# Generated by pormake.
# Topology vbk, (5)-cn, num edge types: 1
# Building blocks:
#     Node 0, Type 0, BuildingBlock: BEQFEK_clean_sbu_0, # of connection points: 5
#     Node 1, Type 0, BuildingBlock: BEQFEK_clean_sbu_0, # of connection points: 5
#     Node 2, Type 0, BuildingBlock: BEQFEK_clean_sbu_0, # of connection points: 5
#     Node 3, Type 0, BuildingBlock: BEQFEK_clean_sbu_0, # of connection points: 5
#     Node 4, Type 0, BuildingBlock: BEQFEK_clean_sbu_0, # of connection points: 5
#     Node 5, Type 0, BuildingBlock: BEQFEK_clean_sbu_0, # of connection points: 5
#     Node 6, Type 0, BuildingBlock: BEQFEK_clean_sbu_0, # of connection points: 5
#     Node 7, Type 0, BuildingBlock: BEQFEK_clean_sbu_0, # of connection points: 5
#     Node 8, Type 0, BuildingBlock: BEQFEK_clean_sbu_0, # of connection points: 5
#     Node 9, Type 0, BuildingBlock: BEQFEK_clean_sbu_0, # of connection points: 5
#     Node 10, Type 0, BuildingBlock: BEQFEK_clean_sbu_0, # of connection points: 5
#     Node 11, Type 0, BuildingBlock: BEQFEK_clean_sbu_0, # of connection points: 5
#     Node 12, Type 0, BuildingBlock: BEQFEK_clean_sbu_0, # of connection points: 5
#     Node 13, Type 0, BuildingBlock: BEQFEK_clean_sbu_0, # of connection points: 5
#     Node 14, Type 0, BuildingBlock: BEQFEK_clean_sbu_0, # of connection points: 5
#     Node 15, Type 0, BuildingBlock: BEQFEK_clean_sbu_0, # of connection points: 5
#     Edge 16, Type (0, 0), BuildingBlock: MIFKUJ_clean_linker_0, # of connection points: 2
#     Edge 17, Type (0, 0), BuildingBlock: MIFKUJ_clean_linker_0, # of connection points: 2
#     Edge 18, Type (0, 0), BuildingBlock: MIFKUJ_clean_linker_0, # of connection points: 2
#     Edge 19, Type (0, 0), BuildingBlock: MIFKUJ_clean_linker_0, # of connection points: 2
#     Edge 20, Type (0, 0), BuildingBlock: MIFKUJ_clean_linker_0, # of connection points: 2
#     Edge 21, Type (0, 0), BuildingBlock: MIFKUJ_clean_linker_0, # of connection points: 2
#     Edge 22, Type (0, 0), BuildingBlock: MIFKUJ_clean_linker_0, # of connection points: 2
#     Edge 23, Type (0, 0), BuildingBlock: MIFKUJ_clean_linker_0, # of connection points: 2
#     Edge 24, Type (0, 0), BuildingBlock: MIFKUJ_clean_linker_0, # of connection points: 2
#     Edge 25, Type (0, 0), BuildingBlock: MIFKUJ_clean_linker_0, # of connection points: 2
#     Edge 26, Type (0, 0), BuildingBlock: MIFKUJ_clean_linker_0, # of connection points: 2
#     Edge 27, Type (0, 0), BuildingBlock: MIFKUJ_clean_linker_0, # of connection points: 2
#     Edge 28, Type (0, 0), BuildingBlock: MIFKUJ_clean_linker_0, # of connection points: 2
#     Edge 29, Type (0, 0), BuildingBlock: MIFKUJ_clean_linker_0, # of connection points: 2
#     Edge 30, Type (0, 0), BuildingBlock: MIFKUJ_clean_linker_0, # of connection points: 2
#     Edge 31, Type (0, 0), BuildingBlock: MIFKUJ_clean_linker_0, # of connection points: 2
#     Edge 32, Type (0, 0), BuildingBlock: MIFKUJ_clean_linker_0, # of connection points: 2
#     Edge 33, Type (0, 0), BuildingBlock: MIFKUJ_clean_linker_0, # of connection points: 2
#     Edge 34, Type (0, 0), BuildingBlock: MIFKUJ_clean_linker_0, # of connection points: 2
#     Edge 35, Type (0, 0), BuildingBlock: MIFKUJ_clean_linker_0, # of connection points: 2
#     Edge 36, Type (0, 0), BuildingBlock: MIFKUJ_clean_linker_0, # of connection points: 2
#     Edge 37, Type (0, 0), BuildingBlock: MIFKUJ_clean_linker_0, # of connection points: 2
#     Edge 38, Type (0, 0), BuildingBlock: MIFKUJ_clean_linker_0, # of connection points: 2
#     Edge 39, Type (0, 0), BuildingBlock: MIFKUJ_clean_linker_0, # of connection points: 2
#     Edge 40, Type (0, 0), BuildingBlock: MIFKUJ_clean_linker_0, # of connection points: 2
#     Edge 41, Type (0, 0), BuildingBlock: MIFKUJ_clean_linker_0, # of connection points: 2
#     Edge 42, Type (0, 0), BuildingBlock: MIFKUJ_clean_linker_0, # of connection points: 2
#     Edge 43, Type (0, 0), BuildingBlock: MIFKUJ_clean_linker_0, # of connection points: 2
#     Edge 44, Type (0, 0), BuildingBlock: MIFKUJ_clean_linker_0, # of connection points: 2
#     Edge 45, Type (0, 0), BuildingBlock: MIFKUJ_clean_linker_0, # of connection points: 2
#     Edge 46, Type (0, 0), BuildingBlock: MIFKUJ_clean_linker_0, # of connection points: 2
#     Edge 47, Type (0, 0), BuildingBlock: MIFKUJ_clean_linker_0, # of connection points: 2
#     Edge 48, Type (0, 0), BuildingBlock: MIFKUJ_clean_linker_0, # of connection points: 2
#     Edge 49, Type (0, 0), BuildingBlock: MIFKUJ_clean_linker_0, # of connection points: 2
#     Edge 50, Type (0, 0), BuildingBlock: MIFKUJ_clean_linker_0, # of connection points: 2
#     Edge 51, Type (0, 0), BuildingBlock: MIFKUJ_clean_linker_0, # of connection points: 2
#     Edge 52, Type (0, 0), BuildingBlock: MIFKUJ_clean_linker_0, # of connection points: 2
#     Edge 53, Type (0, 0), BuildingBlock: MIFKUJ_clean_linker_0, # of connection points: 2
#     Edge 54, Type (0, 0), BuildingBlock: MIFKUJ_clean_linker_0, # of connection points: 2
#     Edge 55, Type (0, 0), BuildingBlock: MIFKUJ_clean_linker_0, # of connection points: 2
# Relax obj value: 0.035
# Max RMSD: 0.071
# Mean RMSD: 0.071
data_MOF--net-vbk--node1-BEQFEK_clean_sbu_0--edge1-MIFKUJ_clean_linker_0
_symmetry_space_group_name_H-M    P1
_symmetry_Int_Tables_number       1
_symmetry_cell_setting            triclinic
loop_
_symmetry_equiv_pos_as_xyz
'x, y, z'
_cell_length_a     94.755909
_cell_length_b     54.105632
_cell_length_c     34.272643
_cell_angle_alpha  89.993724
_cell_angle_beta   89.991635
_cell_angle_gamma 90.002342
loop_
_atom_site_label
_atom_site_type_symbol
_atom_site_fract_x
_atom_site_fract_y
_atom_site_fract_z
_atom_type_partial_charge
Co0 Co 0.1066 0.14559 0.15843 0.0
Co1 Co 0.13992 0.1478 0.15545 0.0
C2 C 0.12438 0.10325 0.12826 0.0
O3 O 0.11254 0.11321 0.1363 0.0
O4 O 0.13596 0.11441 0.13493 0.0
C5 C 0.07798 0.13501 0.14214 0.0
O6 O 0.08377 0.12705 0.10964 0.0
C7 C 0.17 0.13757 0.1746 0.0
C8 C 0.18012 0.17176 0.15312 0.0
C9 C 0.18296 0.14937 0.171 0.0
N10 N 0.15994 0.15249 0.15985 0.0
N11 N 0.16611 0.17281 0.14692 0.0
C12 C 0.16735 0.11207 0.18983 0.0
H13 H 0.15612 0.10683 0.1861 0.0
H14 H 0.17006 0.11113 0.22125 0.0
H15 H 0.17423 0.0987 0.17429 0.0
C16 C 0.11213 0.16132 0.23954 0.0
N17 N 0.11668 0.15335 0.20452 0.0
N18 N 0.13058 0.15378 0.20381 0.0
C19 C 0.13531 0.16174 0.2387 0.0
C20 C 0.12379 0.16688 0.26251 0.0
C21 C 0.09694 0.16643 0.24859 0.0
H22 H 0.0919 0.17571 0.22333 0.0
H23 H 0.09139 0.14864 0.25349 0.0
H24 H 0.09571 0.17829 0.27475 0.0
O25 O 0.10987 0.17161 0.11897 0.0
O26 O 0.1333 0.17201 0.11587 0.0
H27 H 0.15542 0.17888 0.22983 0.0
H28 H 0.1522 0.16953 0.27985 0.0
C29 C 0.1506 0.16457 0.2488 0.0
H30 H 0.15606 0.14686 0.24341 0.0
H31 H 0.16074 0.1875 0.13393 0.0
O32 O 0.08591 0.14393 0.16857 0.0
C33 C 0.12131 0.17988 0.10448 0.0
Co34 Co 0.39733 0.85694 0.65942 0.0
Co35 Co 0.3643 0.84995 0.65545 0.0
C36 C 0.37864 0.89611 0.62623 0.0
O37 O 0.39083 0.88814 0.63553 0.0
O38 O 0.36757 0.8834 0.63286 0.0
C39 C 0.42648 0.86419 0.64271 0.0
O40 O 0.42148 0.86713 0.60725 0.0
C41 C 0.3345 0.85778 0.67893 0.0
C42 C 0.32395 0.82746 0.64708 0.0
C43 C 0.32138 0.84718 0.67185 0.0
N44 N 0.34435 0.84476 0.6594 0.0
N45 N 0.33794 0.82668 0.64047 0.0
C46 C 0.33758 0.88081 0.7015 0.0
H47 H 0.34816 0.88816 0.69378 0.0
H48 H 0.33746 0.87663 0.73316 0.0
H49 H 0.32935 0.89494 0.69574 0.0
C50 C 0.39195 0.84439 0.74188 0.0
N51 N 0.38721 0.84988 0.70591 0.0
N52 N 0.37356 0.84552 0.70419 0.0
C53 C 0.36929 0.83609 0.73868 0.0
C54 C 0.38079 0.83527 0.76391 0.0
C55 C 0.407 0.84734 0.75428 0.0
H56 H 0.4112 0.86513 0.74317 0.0
H57 H 0.40805 0.84697 0.78652 0.0
H58 H 0.4134 0.83219 0.74149 0.0
O59 O 0.39483 0.82971 0.6208 0.0
O60 O 0.37155 0.8253 0.61819 0.0
H61 H 0.35587 0.80907 0.76684 0.0
H62 H 0.34766 0.83825 0.75613 0.0
C63 C 0.35519 0.82422 0.7451 0.0
H64 H 0.35109 0.8165 0.71741 0.0
H65 H 0.3431 0.81386 0.62277 0.0
O66 O 0.41791 0.85974 0.6704 0.0
C67 C 0.38388 0.81912 0.60712 0.0
Co68 Co 0.10604 0.8511 0.84118 0.0
Co69 Co 0.13935 0.84928 0.84408 0.0
C70 C 0.12373 0.89322 0.87287 0.0
O71 O 0.11194 0.88309 0.8648 0.0
O72 O 0.13537 0.88244 0.86551 0.0
C73 C 0.07744 0.86257 0.85693 0.0
O74 O 0.08324 0.8712 0.88898 0.0
C75 C 0.16929 0.86005 0.82481 0.0
C76 C 0.17973 0.82619 0.84636 0.0
C77 C 0.18235 0.84863 0.82841 0.0
N78 N 0.15938 0.8449 0.8397 0.0
N79 N 0.16574 0.82477 0.8527 0.0
C80 C 0.16638 0.88543 0.80946 0.0
H81 H 0.15487 0.88922 0.80908 0.0
H82 H 0.17068 0.88742 0.77954 0.0
H83 H 0.17178 0.89924 0.82819 0.0
C84 C 0.11165 0.83661 0.75951 0.0
N85 N 0.11617 0.84423 0.79476 0.0
N86 N 0.13006 0.84391 0.79548 0.0
C87 C 0.13483 0.83637 0.76038 0.0
C88 C 0.12333 0.83139 0.73642 0.0
C89 C 0.09648 0.83145 0.75031 0.0
H90 H 0.09149 0.82169 0.77521 0.0
H91 H 0.09085 0.84924 0.74619 0.0
H92 H 0.09528 0.82002 0.72366 0.0
O93 O 0.10935 0.82434 0.87932 0.0
O94 O 0.13277 0.82433 0.88261 0.0
H95 H 0.15502 0.81952 0.76937 0.0
H96 H 0.15175 0.82861 0.71927 0.0
C97 C 0.15013 0.83368 0.75027 0.0
H98 H 0.15552 0.85149 0.75541 0.0
H99 H 0.1605 0.80997 0.8658 0.0
O100 O 0.08533 0.85289 0.83109 0.0
C101 C 0.12082 0.81599 0.89349 0.0
Co102 Co 0.39864 0.14752 0.34364 0.0
Co103 Co 0.3654 0.15068 0.34021 0.0
C104 C 0.37996 0.10562 0.37024 0.0
O105 O 0.39204 0.1153 0.36443 0.0
O106 O 0.36864 0.11706 0.36148 0.0
C107 C 0.42613 0.1263 0.32883 0.0
O108 O 0.419 0.10568 0.32421 0.0
C109 C 0.33582 0.14074 0.31618 0.0
C110 C 0.32511 0.17399 0.33906 0.0
C111 C 0.32272 0.15196 0.3197 0.0
N112 N 0.34556 0.15557 0.33262 0.0
N113 N 0.33905 0.1754 0.34618 0.0
C114 C 0.33888 0.11575 0.29959 0.0
H115 H 0.35042 0.11228 0.29874 0.0
H116 H 0.33444 0.11431 0.26973 0.0
H117 H 0.33367 0.10146 0.31783 0.0
C118 C 0.39525 0.16443 0.26221 0.0
N119 N 0.38975 0.15579 0.29578 0.0
N120 N 0.37588 0.15649 0.29373 0.0
C121 C 0.37211 0.1653 0.25845 0.0
C122 C 0.38425 0.17075 0.23728 0.0
C123 C 0.41063 0.16981 0.25675 0.0
H124 H 0.41489 0.17873 0.2834 0.0
H125 H 0.41637 0.15216 0.25234 0.0
H126 H 0.4126 0.18212 0.23148 0.0
O127 O 0.39455 0.17313 0.38313 0.0
O128 O 0.37116 0.1752 0.38039 0.0
H129 H 0.35218 0.18352 0.26457 0.0
H130 H 0.35638 0.17474 0.21483 0.0
C131 C 0.35714 0.16919 0.2459 0.0
H132 H 0.3512 0.15176 0.24969 0.0
H133 H 0.34411 0.18985 0.3607 0.0
O134 O 0.41951 0.14609 0.33698 0.0
C135 C 0.3829 0.18227 0.39469 0.0
Co136 Co 0.89721 0.85344 0.84251 0.0
Co137 Co 0.86397 0.84928 0.84336 0.0
C138 C 0.87882 0.89463 0.87217 0.0
O139 O 0.8909 0.88541 0.86479 0.0
O140 O 0.86751 0.88281 0.86465 0.0
C141 C 0.92596 0.86545 0.85835 0.0
O142 O 0.92027 0.87537 0.8896 0.0
C143 C 0.83454 0.85866 0.81775 0.0
C144 C 0.82324 0.82832 0.84753 0.0
C145 C 0.82122 0.8485 0.82331 0.0
N146 N 0.84399 0.84495 0.8376 0.0
N147 N 0.83713 0.82688 0.85532 0.0
C148 C 0.83812 0.88196 0.79645 0.0
H149 H 0.8491 0.88779 0.80298 0.0
H150 H 0.83713 0.87898 0.76458 0.0
H151 H 0.8306 0.8968 0.80473 0.0
C152 C 0.89266 0.83966 0.76029 0.0
N153 N 0.8876 0.84625 0.79545 0.0
N154 N 0.87376 0.84376 0.79557 0.0
C155 C 0.86964 0.83502 0.76049 0.0
C156 C 0.88147 0.8324 0.73691 0.0
C157 C 0.90802 0.83918 0.75015 0.0
H158 H 0.9133 0.82438 0.76718 0.0
H159 H 0.91292 0.85706 0.75835 0.0
H160 H 0.9097 0.83586 0.71854 0.0
O161 O 0.89376 0.82677 0.88114 0.0
O162 O 0.87034 0.82494 0.88275 0.0
H163 H 0.85045 0.81694 0.77783 0.0
H164 H 0.85518 0.81216 0.72741 0.0
C165 C 0.85509 0.82576 0.75163 0.0
H166 H 0.84835 0.84154 0.7429 0.0
H167 H 0.84193 0.8136 0.87297 0.0
O168 O 0.91798 0.855 0.83349 0.0
C169 C 0.88237 0.81765 0.89467 0.0
Co170 Co 0.60586 0.14509 0.33809 0.0
Co171 Co 0.63903 0.15015 0.34162 0.0
C172 C 0.62398 0.10513 0.37184 0.0
O173 O 0.61194 0.11396 0.36303 0.0
O174 O 0.63531 0.11693 0.36436 0.0
C175 C 0.5781 0.12388 0.32588 0.0
O176 O 0.58477 0.10263 0.32779 0.0
C177 C 0.66865 0.14127 0.31722 0.0
C178 C 0.67981 0.16993 0.35125 0.0
C179 C 0.68196 0.15078 0.32516 0.0
N180 N 0.65907 0.15434 0.3376 0.0
N181 N 0.66583 0.17144 0.35781 0.0
C182 C 0.6652 0.11897 0.29327 0.0
H183 H 0.65382 0.11438 0.29561 0.0
H184 H 0.66788 0.12245 0.26226 0.0
H185 H 0.67168 0.10308 0.30324 0.0
C186 C 0.61129 0.1562 0.25521 0.0
N187 N 0.61599 0.15109 0.29136 0.0
N188 N 0.62972 0.15477 0.29283 0.0
C189 C 0.6341 0.16331 0.25786 0.0
C190 C 0.62258 0.16428 0.23273 0.0
C191 C 0.5962 0.15375 0.24297 0.0
H192 H 0.59189 0.136 0.2539 0.0
H193 H 0.59507 0.15426 0.21076 0.0
H194 H 0.58996 0.16898 0.25608 0.0
O195 O 0.60891 0.17263 0.37543 0.0
O196 O 0.63226 0.17514 0.37919 0.0
H197 H 0.65291 0.18172 0.27777 0.0
H198 H 0.64795 0.18901 0.22835 0.0
C199 C 0.64843 0.17406 0.25049 0.0
H200 H 0.65552 0.15938 0.23936 0.0
H201 H 0.66092 0.18403 0.37646 0.0
O202 O 0.58511 0.14385 0.32861 0.0
C203 C 0.62004 0.18235 0.38955 0.0
Co204 Co 0.89779 0.1462 0.15735 0.0
Co205 Co 0.86453 0.15094 0.1562 0.0
C206 C 0.87935 0.10589 0.12551 0.0
O207 O 0.89143 0.1147 0.13406 0.0
O208 O 0.86806 0.1178 0.13285 0.0
C209 C 0.92649 0.13518 0.14048 0.0
O210 O 0.92079 0.12724 0.10784 0.0
C211 C 0.83461 0.14099 0.17748 0.0
C212 C 0.82432 0.17478 0.15511 0.0
C213 C 0.82159 0.1526 0.17379 0.0
N214 N 0.84457 0.1558 0.16193 0.0
N215 N 0.8383 0.17592 0.14858 0.0
C216 C 0.83744 0.11571 0.19337 0.0
H217 H 0.84809 0.10924 0.18477 0.0
H218 H 0.83687 0.11613 0.22567 0.0
H219 H 0.82929 0.10258 0.18282 0.0
C220 C 0.89304 0.15945 0.23984 0.0
N221 N 0.88806 0.15302 0.20448 0.0
N222 N 0.87422 0.15526 0.20427 0.0
C223 C 0.86998 0.16357 0.23946 0.0
C224 C 0.88175 0.16634 0.26322 0.0
C225 C 0.90842 0.16206 0.24896 0.0
H226 H 0.91337 0.1747 0.22744 0.0
H227 H 0.91361 0.14376 0.24605 0.0
H228 H 0.91024 0.16936 0.27877 0.0
O229 O 0.89453 0.17295 0.11887 0.0
O230 O 0.87115 0.17649 0.11902 0.0
H231 H 0.85109 0.18396 0.22775 0.0
H232 H 0.85408 0.17792 0.27911 0.0
C233 C 0.85507 0.17029 0.24922 0.0
H234 H 0.8484 0.15357 0.24727 0.0
H235 H 0.84357 0.19045 0.13485 0.0
O236 O 0.9185 0.1441 0.16676 0.0
C237 C 0.88324 0.18318 0.10672 0.0
Co238 Co 0.60536 0.85185 0.65397 0.0
Co239 Co 0.63871 0.85054 0.65517 0.0
C240 C 0.62333 0.89483 0.62661 0.0
O241 O 0.61145 0.8844 0.63257 0.0
O242 O 0.63489 0.88405 0.63502 0.0
C243 C 0.57774 0.87044 0.67587 0.0
O244 O 0.5848 0.88955 0.68923 0.0
C245 C 0.66865 0.86083 0.67651 0.0
C246 C 0.67895 0.82701 0.65429 0.0
C247 C 0.68165 0.84929 0.67256 0.0
N248 N 0.65867 0.8459 0.66138 0.0
N249 N 0.66495 0.82574 0.64817 0.0
C250 C 0.66588 0.88614 0.69226 0.0
H251 H 0.65439 0.8901 0.6928 0.0
H252 H 0.67023 0.88776 0.72219 0.0
H253 H 0.67134 0.89999 0.67376 0.0
C254 C 0.60978 0.83572 0.73569 0.0
N255 N 0.61475 0.84414 0.70133 0.0
N256 N 0.62865 0.84414 0.70223 0.0
C257 C 0.63296 0.83612 0.7375 0.0
C258 C 0.62116 0.83037 0.75984 0.0
C259 C 0.59456 0.82998 0.74309 0.0
H260 H 0.58972 0.82197 0.71649 0.0
H261 H 0.58891 0.84736 0.75021 0.0
H262 H 0.59322 0.81679 0.76758 0.0
O263 O 0.60948 0.82596 0.61507 0.0
O264 O 0.63291 0.82642 0.61452 0.0
H265 H 0.6533 0.8194 0.73127 0.0
H266 H 0.64928 0.82916 0.78065 0.0
C267 C 0.64811 0.83379 0.74931 0.0
H268 H 0.65352 0.85158 0.74401 0.0
H269 H 0.65968 0.81113 0.63468 0.0
O270 O 0.58446 0.85254 0.66063 0.0
C271 C 0.6212 0.81811 0.60185 0.0
Co272 Co 0.6068 0.64618 0.15365 0.0
Co273 Co 0.6401 0.64615 0.15381 0.0
C274 C 0.62403 0.60325 0.12301 0.0
O275 O 0.61232 0.614 0.12986 0.0
O276 O 0.63574 0.61333 0.13183 0.0
C277 C 0.5792 0.62683 0.17191 0.0
O278 O 0.58611 0.60619 0.17849 0.0
C279 C 0.66983 0.63383 0.17441 0.0
C280 C 0.68063 0.66802 0.15565 0.0
C281 C 0.68299 0.64507 0.17221 0.0
N282 N 0.66011 0.6496 0.16009 0.0
N283 N 0.66669 0.66993 0.14883 0.0
C284 C 0.66667 0.60816 0.18814 0.0
H285 H 0.6558 0.60263 0.18001 0.0
H286 H 0.66765 0.60723 0.22033 0.0
H287 H 0.67442 0.59501 0.17552 0.0
C288 C 0.61164 0.66117 0.23534 0.0
N289 N 0.61644 0.65252 0.20096 0.0
N290 N 0.63032 0.65197 0.20158 0.0
C291 C 0.6348 0.65976 0.23683 0.0
C292 C 0.62313 0.66604 0.25938 0.0
C293 C 0.59654 0.66809 0.24235 0.0
H294 H 0.59211 0.67691 0.21584 0.0
H295 H 0.59037 0.65109 0.2484 0.0
H296 H 0.59538 0.68103 0.2672 0.0
O297 O 0.61104 0.67287 0.11643 0.0
O298 O 0.63448 0.67145 0.11453 0.0
H299 H 0.65515 0.67649 0.23069 0.0
H300 H 0.65131 0.66581 0.27972 0.0
C301 C 0.65001 0.66178 0.24821 0.0
H302 H 0.65536 0.64409 0.24192 0.0
H303 H 0.66165 0.68519 0.13648 0.0
O304 O 0.58601 0.64599 0.1616 0.0
C305 C 0.62278 0.68053 0.10308 0.0
Co306 Co 0.89813 0.35249 0.65662 0.0
Co307 Co 0.86492 0.34738 0.65612 0.0
C308 C 0.87956 0.39242 0.62437 0.0
O309 O 0.89168 0.38374 0.63278 0.0
O310 O 0.8683 0.38048 0.6322 0.0
C311 C 0.92573 0.3732 0.67366 0.0
O312 O 0.91877 0.39367 0.68108 0.0
C313 C 0.8349 0.3568 0.67789 0.0
C314 C 0.82522 0.32154 0.65956 0.0
C315 C 0.82205 0.34419 0.67635 0.0
N316 N 0.84504 0.34208 0.66297 0.0
N317 N 0.83912 0.32109 0.65205 0.0
C318 C 0.83754 0.38262 0.69166 0.0
H319 H 0.84759 0.3898 0.6796 0.0
H320 H 0.83839 0.38267 0.72394 0.0
H321 H 0.8287 0.39491 0.68302 0.0
C322 C 0.89367 0.34021 0.73983 0.0
N323 N 0.88865 0.34605 0.70426 0.0
N324 N 0.87484 0.34324 0.70407 0.0
C325 C 0.87067 0.33503 0.73941 0.0
C326 C 0.88248 0.33289 0.76332 0.0
C327 C 0.90897 0.34116 0.75061 0.0
H328 H 0.91487 0.32732 0.73317 0.0
H329 H 0.91321 0.3597 0.74352 0.0
H330 H 0.91066 0.33768 0.78215 0.0
O331 O 0.89466 0.32524 0.6192 0.0
O332 O 0.87132 0.322 0.61845 0.0
H333 H 0.85228 0.31426 0.72382 0.0
H334 H 0.85558 0.31516 0.77546 0.0
C335 C 0.85605 0.32605 0.7481 0.0
H336 H 0.84888 0.34214 0.75069 0.0
H337 H 0.84461 0.30638 0.63949 0.0
O338 O 0.91896 0.3539 0.66383 0.0
C339 C 0.88343 0.31511 0.60656 0.0
Co340 Co 0.60519 0.35059 0.84307 0.0
Co341 Co 0.63841 0.34756 0.83701 0.0
C342 C 0.62432 0.39213 0.86957 0.0
O343 O 0.6122 0.38261 0.86356 0.0
O344 O 0.63564 0.38071 0.86059 0.0
C345 C 0.57743 0.36928 0.82234 0.0
O346 O 0.58443 0.38694 0.8045 0.0
C347 C 0.66857 0.35661 0.81612 0.0
C348 C 0.67635 0.31813 0.81397 0.0
C349 C 0.68046 0.3424 0.80811 0.0
N350 N 0.65792 0.3413 0.82596 0.0
N351 N 0.66274 0.31839 0.82509 0.0
C352 C 0.66694 0.38392 0.81116 0.0
H353 H 0.65577 0.38864 0.80486 0.0
H354 H 0.67383 0.39079 0.78732 0.0
H355 H 0.67007 0.39324 0.83867 0.0
C356 C 0.60785 0.33503 0.76035 0.0
N357 N 0.61347 0.34297 0.79422 0.0
N358 N 0.62732 0.34336 0.79108 0.0
C359 C 0.63091 0.3365 0.75461 0.0
C360 C 0.61872 0.33064 0.73402 0.0
C361 C 0.59258 0.32862 0.75527 0.0
H362 H 0.58812 0.32186 0.78319 0.0
H363 H 0.58672 0.34544 0.74633 0.0
H364 H 0.5911 0.31422 0.73261 0.0
O365 O 0.60975 0.32455 0.88122 0.0
O366 O 0.63307 0.32212 0.87625 0.0
H367 H 0.65098 0.31859 0.7511 0.0
H368 H 0.64603 0.33507 0.70738 0.0
C369 C 0.64574 0.33545 0.73974 0.0
H370 H 0.65166 0.35185 0.75001 0.0
H371 H 0.65661 0.30283 0.83107 0.0
O372 O 0.58423 0.35227 0.83972 0.0
C373 C 0.62147 0.315 0.89128 0.0
Co374 Co 0.89754 0.64658 0.34417 0.0
Co375 Co 0.86429 0.64783 0.34173 0.0
C376 C 0.87953 0.60359 0.37113 0.0
O377 O 0.89143 0.61391 0.36516 0.0
O378 O 0.86802 0.61446 0.36261 0.0
C379 C 0.92602 0.63641 0.36387 0.0
O380 O 0.91987 0.62765 0.39533 0.0
C381 C 0.83473 0.63642 0.31969 0.0
C382 C 0.8238 0.67 0.34051 0.0
C383 C 0.82156 0.64737 0.32283 0.0
N384 N 0.84439 0.65198 0.33475 0.0
N385 N 0.83775 0.67199 0.34715 0.0
C386 C 0.83796 0.61111 0.30464 0.0
H387 H 0.84952 0.60829 0.30211 0.0
H388 H 0.83289 0.60833 0.27579 0.0
H389 H 0.8335 0.59717 0.32496 0.0
C390 C 0.89352 0.66274 0.2624 0.0
N391 N 0.88836 0.65432 0.29652 0.0
N392 N 0.87448 0.654 0.29488 0.0
C393 C 0.87037 0.66171 0.25926 0.0
C394 C 0.88229 0.66769 0.23747 0.0
C395 C 0.90877 0.66886 0.25605 0.0
H396 H 0.91319 0.67748 0.28275 0.0
H397 H 0.91469 0.65154 0.25038 0.0
H398 H 0.91027 0.68169 0.23117 0.0
O399 O 0.89329 0.67233 0.38334 0.0
O400 O 0.86986 0.67238 0.38198 0.0
H401 H 0.84986 0.67805 0.26356 0.0
H402 H 0.85428 0.6673 0.21495 0.0
C403 C 0.85528 0.6634 0.24658 0.0
H404 H 0.84996 0.64561 0.25256 0.0
H405 H 0.84274 0.68697 0.36044 0.0
O406 O 0.91839 0.64553 0.33697 0.0
C407 C 0.88148 0.68049 0.39559 0.0
Co408 Co 0.39705 0.35875 0.84037 0.0
Co409 Co 0.36403 0.35215 0.84503 0.0
C410 C 0.37812 0.39924 0.86949 0.0
O411 O 0.39031 0.39067 0.86161 0.0
O412 O 0.367 0.38654 0.86351 0.0
C413 C 0.4258 0.36893 0.85659 0.0
O414 O 0.42035 0.37481 0.8906 0.0
C415 C 0.33415 0.35859 0.82163 0.0
C416 C 0.32418 0.32736 0.85261 0.0
C417 C 0.32118 0.34696 0.82783 0.0
N418 N 0.34415 0.34627 0.84169 0.0
N419 N 0.33808 0.32774 0.8603 0.0
C420 C 0.33737 0.38003 0.79556 0.0
H421 H 0.34884 0.38084 0.7891 0.0
H422 H 0.33131 0.37858 0.76794 0.0
H423 H 0.33435 0.39742 0.81054 0.0
C424 C 0.39173 0.3431 0.75921 0.0
N425 N 0.38701 0.34978 0.7947 0.0
N426 N 0.37334 0.34565 0.79681 0.0
C427 C 0.36901 0.33535 0.76301 0.0
C428 C 0.38051 0.33354 0.73789 0.0
C429 C 0.40677 0.34566 0.74644 0.0
H430 H 0.41102 0.36368 0.75641 0.0
H431 H 0.40777 0.3445 0.71424 0.0
H432 H 0.41315 0.33079 0.76008 0.0
O433 O 0.39473 0.3328 0.88106 0.0
O434 O 0.3714 0.32968 0.88558 0.0
H435 H 0.355 0.30912 0.73513 0.0
H436 H 0.34733 0.33867 0.74662 0.0
C437 C 0.3547 0.32419 0.75705 0.0
H438 H 0.35066 0.31656 0.78486 0.0
H439 H 0.34345 0.31517 0.87798 0.0
O440 O 0.41763 0.36155 0.82958 0.0
C441 C 0.38373 0.32349 0.89662 0.0
Co442 Co 0.10643 0.64961 0.34308 0.0
Co443 Co 0.13971 0.64885 0.3394 0.0
C444 C 0.12458 0.60701 0.37392 0.0
O445 O 0.11297 0.61842 0.36842 0.0
O446 O 0.13632 0.61587 0.36239 0.0
C447 C 0.07802 0.63802 0.36316 0.0
O448 O 0.08426 0.62915 0.39441 0.0
C449 C 0.17004 0.63939 0.32064 0.0
C450 C 0.17781 0.67787 0.31783 0.0
C451 C 0.18195 0.65356 0.31266 0.0
N452 N 0.15935 0.65477 0.32974 0.0
N453 N 0.16416 0.67768 0.32852 0.0
C454 C 0.16845 0.61204 0.31612 0.0
H455 H 0.15727 0.60718 0.31027 0.0
H456 H 0.17526 0.60511 0.29215 0.0
H457 H 0.17174 0.6029 0.34363 0.0
C458 C 0.11027 0.66235 0.25987 0.0
N459 N 0.1154 0.65492 0.29459 0.0
N460 N 0.12922 0.65325 0.29245 0.0
C461 C 0.13329 0.65863 0.25574 0.0
C462 C 0.12145 0.66493 0.2339 0.0
C463 C 0.09523 0.66987 0.25359 0.0
H464 H 0.09087 0.67808 0.28067 0.0
H465 H 0.0889 0.65325 0.24625 0.0
H466 H 0.09423 0.6835 0.22956 0.0
O467 O 0.11074 0.6772 0.37822 0.0
O468 O 0.13414 0.67428 0.3789 0.0
H469 H 0.15401 0.67412 0.25183 0.0
H470 H 0.14877 0.65658 0.2094 0.0
C471 C 0.14824 0.65749 0.24171 0.0
H472 H 0.15347 0.64088 0.25386 0.0
H473 H 0.15798 0.69329 0.33379 0.0
O474 O 0.08555 0.64771 0.33651 0.0
C475 C 0.12271 0.68419 0.39083 0.0
Co476 Co 0.39946 0.64854 0.15573 0.0
Co477 Co 0.36622 0.65233 0.16149 0.0
C478 C 0.38047 0.60782 0.12731 0.0
O479 O 0.39266 0.61699 0.13346 0.0
O480 O 0.36927 0.61934 0.1371 0.0
C481 C 0.42722 0.62766 0.16751 0.0
O482 O 0.42026 0.60689 0.1726 0.0
C483 C 0.33639 0.64237 0.18536 0.0
C484 C 0.32685 0.67874 0.17269 0.0
C485 C 0.32366 0.6553 0.18642 0.0
N486 N 0.34653 0.65763 0.17182 0.0
N487 N 0.3407 0.6793 0.1644 0.0
C488 C 0.33883 0.6158 0.19539 0.0
H489 H 0.34863 0.60889 0.18163 0.0
H490 H 0.33999 0.614 0.22748 0.0
H491 H 0.32972 0.60435 0.18596 0.0
C492 C 0.39684 0.66225 0.23878 0.0
N493 N 0.39104 0.65522 0.2047 0.0
N494 N 0.3772 0.65648 0.20755 0.0
C495 C 0.37378 0.66422 0.24375 0.0
C496 C 0.38613 0.66812 0.2647 0.0
C497 C 0.41238 0.66498 0.24533 0.0
H498 H 0.4168 0.67806 0.22358 0.0
H499 H 0.41756 0.64682 0.24094 0.0
H500 H 0.41478 0.67164 0.27522 0.0
O501 O 0.39496 0.67513 0.11831 0.0
O502 O 0.37163 0.67793 0.1226 0.0
H503 H 0.3549 0.68533 0.23631 0.0
H504 H 0.35884 0.67803 0.28654 0.0
C505 C 0.35914 0.67096 0.25618 0.0
H506 H 0.35226 0.65446 0.25401 0.0
H507 H 0.34619 0.69451 0.15345 0.0
O508 O 0.42038 0.64738 0.16044 0.0
C509 C 0.38333 0.68493 0.10799 0.0
Co510 Co 0.10485 0.35013 0.65425 0.0
Co511 Co 0.13808 0.3515 0.65788 0.0
C512 C 0.1227 0.39316 0.6239 0.0
O513 O 0.11117 0.38139 0.62869 0.0
O514 O 0.13446 0.38466 0.63594 0.0
C515 C 0.07764 0.36897 0.67807 0.0
O516 O 0.08509 0.38683 0.69385 0.0
C517 C 0.16835 0.36045 0.67878 0.0
C518 C 0.17665 0.3226 0.67117 0.0
C519 C 0.18054 0.34618 0.6827 0.0
N520 N 0.15783 0.34573 0.66607 0.0
N521 N 0.16296 0.32326 0.6611 0.0
C522 C 0.16632 0.38693 0.68997 0.0
H523 H 0.15494 0.39113 0.69375 0.0
H524 H 0.17212 0.39111 0.71734 0.0
H525 H 0.17056 0.39892 0.66647 0.0
C526 C 0.10885 0.33566 0.73676 0.0
N527 N 0.11389 0.34443 0.7027 0.0
N528 N 0.12772 0.34611 0.70483 0.0
C529 C 0.13187 0.33931 0.74088 0.0
C530 C 0.12008 0.33216 0.76227 0.0
C531 C 0.09393 0.3272 0.74235 0.0
H532 H 0.08951 0.32051 0.71433 0.0
H533 H 0.08746 0.343 0.75263 0.0
H534 H 0.09324 0.31211 0.76418 0.0
O535 O 0.10922 0.32275 0.61883 0.0
O536 O 0.13256 0.32642 0.61776 0.0
H537 H 0.15262 0.32374 0.74053 0.0
H538 H 0.14764 0.3376 0.78657 0.0
C539 C 0.14689 0.33931 0.75439 0.0
H540 H 0.15201 0.35681 0.74557 0.0
H541 H 0.157 0.30814 0.65187 0.0
O542 O 0.08399 0.35159 0.66028 0.0
C543 C 0.12122 0.31623 0.60586 0.0
H544 H 0.20775 0.15015 0.13142 0.0
H545 H 0.23149 0.14301 0.15769 0.0
H546 H 0.21354 0.12604 0.27018 0.0
H547 H 0.18981 0.1331 0.24398 0.0
H548 H 0.23446 0.16363 0.27034 0.0
H549 H 0.22811 0.08093 0.2223 0.0
H550 H 0.22248 0.04951 0.17259 0.0
H551 H 0.25669 0.07538 0.10128 0.0
H552 H 0.2624 0.10721 0.15033 0.0
H553 H 0.29919 0.14385 0.36258 0.0
H554 H 0.27531 0.1358 0.33845 0.0
H555 H 0.29102 0.13559 0.22017 0.0
H556 H 0.31505 0.14229 0.24469 0.0
H557 H 0.27063 0.10402 0.22449 0.0
H558 H 0.27587 0.18828 0.2646 0.0
H559 H 0.28162 0.2225 0.30941 0.0
H560 H 0.24971 0.19756 0.38921 0.0
H561 H 0.24389 0.16299 0.34508 0.0
C562 C 0.20889 0.14432 0.1615 0.0
C563 C 0.19696 0.14166 0.18548 0.0
C564 C 0.22242 0.14021 0.17643 0.0
C565 C 0.22425 0.13379 0.21579 0.0
C566 C 0.21233 0.13071 0.23962 0.0
C567 C 0.19878 0.13447 0.22453 0.0
C568 C 0.23862 0.13261 0.23281 0.0
C569 C 0.2423 0.15028 0.26093 0.0
C570 C 0.24897 0.11582 0.21931 0.0
C571 C 0.24561 0.0966 0.18987 0.0
C572 C 0.23436 0.08006 0.19588 0.0
C573 C 0.23117 0.06214 0.16784 0.0
C574 C 0.23921 0.06048 0.13376 0.0
C575 C 0.25047 0.0767 0.12769 0.0
C576 C 0.2537 0.09466 0.15562 0.0
C577 C 0.29753 0.1415 0.33152 0.0
C578 C 0.30887 0.14354 0.30543 0.0
C579 C 0.28389 0.13712 0.31768 0.0
C580 C 0.28125 0.13574 0.27736 0.0
C581 C 0.29274 0.13664 0.25138 0.0
C582 C 0.30646 0.14041 0.26534 0.0
C583 C 0.2665 0.13504 0.26228 0.0
C584 C 0.26277 0.11719 0.23432 0.0
C585 C 0.25613 0.15207 0.27523 0.0
C586 C 0.25955 0.1729 0.30174 0.0
C587 C 0.27014 0.19001 0.29183 0.0
C588 C 0.27341 0.20947 0.31709 0.0
C589 C 0.26606 0.21216 0.35219 0.0
C590 C 0.25541 0.19543 0.36205 0.0
C591 C 0.25212 0.1759 0.33692 0.0
H592 H 0.2686 0.22724 0.3717 0.0
H593 H 0.23672 0.0466 0.11209 0.0
H594 H 0.18898 0.86173 0.75392 0.0
H595 H 0.21266 0.86809 0.72685 0.0
H596 H 0.23071 0.85808 0.84124 0.0
H597 H 0.20702 0.85143 0.86835 0.0
H598 H 0.24355 0.89799 0.79124 0.0
H599 H 0.23071 0.81103 0.79189 0.0
H600 H 0.21493 0.77605 0.77699 0.0
H601 H 0.2174 0.79303 0.65478 0.0
H602 H 0.23302 0.8284 0.66908 0.0
H603 H 0.3141 0.86133 0.7461 0.0
H604 H 0.29031 0.86792 0.77169 0.0
H605 H 0.27299 0.85474 0.65708 0.0
H606 H 0.29674 0.84754 0.63174 0.0
H607 H 0.25919 0.829 0.70623 0.0
H608 H 0.2732 0.91357 0.70244 0.0
H609 H 0.28831 0.9498 0.71498 0.0
H610 H 0.2832 0.93971 0.83844 0.0
H611 H 0.26821 0.90318 0.82666 0.0
C612 C 0.19796 0.86177 0.77347 0.0
C613 C 0.19621 0.85653 0.8133 0.0
C614 C 0.21147 0.8652 0.75796 0.0
C615 C 0.22341 0.86361 0.7821 0.0
C616 C 0.22162 0.85959 0.82223 0.0
C617 C 0.20812 0.85573 0.83763 0.0
C618 C 0.23776 0.86338 0.76488 0.0
C619 C 0.24707 0.88288 0.77288 0.0
C620 C 0.24216 0.84391 0.74025 0.0
C621 C 0.23289 0.82252 0.73159 0.0
C622 C 0.22778 0.80744 0.76188 0.0
C623 C 0.21888 0.78752 0.75355 0.0
C624 C 0.21513 0.78236 0.71497 0.0
C625 C 0.22029 0.79708 0.68465 0.0
C626 C 0.22917 0.81706 0.69285 0.0
C627 C 0.30526 0.86053 0.72617 0.0
C628 C 0.30729 0.85425 0.6868 0.0
C629 C 0.29162 0.86424 0.74085 0.0
C630 C 0.27979 0.86209 0.71628 0.0
C631 C 0.2819 0.85648 0.6767 0.0
C632 C 0.29548 0.85244 0.6622 0.0
C633 C 0.26519 0.86377 0.73224 0.0
C634 C 0.25576 0.84437 0.72422 0.0
C635 C 0.26068 0.88353 0.75641 0.0
C636 C 0.26969 0.90548 0.76366 0.0
C637 C 0.27539 0.91895 0.73227 0.0
C638 C 0.28392 0.93956 0.73924 0.0
C639 C 0.28674 0.94701 0.77748 0.0
C640 C 0.28102 0.9339 0.80884 0.0
C641 C 0.27249 0.91325 0.80203 0.0
H642 H 0.29334 0.96299 0.78282 0.0
H643 H 0.20824 0.76692 0.70857 0.0
H644 H 0.70526 0.85408 0.62876 0.0
H645 H 0.72936 0.86139 0.65179 0.0
H646 H 0.71391 0.86777 0.76988 0.0
H647 H 0.68971 0.86162 0.74641 0.0
H648 H 0.73507 0.89787 0.76148 0.0
H649 H 0.72759 0.81239 0.73159 0.0
H650 H 0.7209 0.77666 0.69093 0.0
H651 H 0.7533 0.79521 0.60837 0.0
H652 H 0.76007 0.83127 0.64831 0.0
H653 H 0.79619 0.85164 0.86138 0.0
H654 H 0.77283 0.85923 0.83321 0.0
H655 H 0.7917 0.86855 0.71965 0.0
H656 H 0.8151 0.86104 0.74777 0.0
H657 H 0.76957 0.83331 0.7231 0.0
H658 H 0.77825 0.91732 0.76107 0.0
H659 H 0.78476 0.95063 0.80673 0.0
H660 H 0.74981 0.93154 0.88057 0.0
H661 H 0.74321 0.89787 0.83563 0.0
C662 C 0.70703 0.85764 0.65949 0.0
C663 C 0.6957 0.85749 0.68582 0.0
C664 C 0.72079 0.86161 0.67271 0.0
C665 C 0.72354 0.86453 0.71276 0.0
C666 C 0.7121 0.86554 0.73887 0.0
C667 C 0.69827 0.86212 0.72548 0.0
C668 C 0.73833 0.8648 0.7276 0.0
C669 C 0.74257 0.88364 0.75329 0.0
C670 C 0.74823 0.84639 0.71671 0.0
C671 C 0.74423 0.82467 0.69271 0.0
C672 C 0.73323 0.80894 0.70463 0.0
C673 C 0.72943 0.78862 0.68173 0.0
C674 C 0.73664 0.78371 0.64703 0.0
C675 C 0.7477 0.79907 0.63522 0.0
C676 C 0.75153 0.81944 0.65797 0.0
C677 C 0.79537 0.85581 0.83055 0.0
C678 C 0.80747 0.85616 0.80687 0.0
C679 C 0.78204 0.86021 0.81453 0.0
C680 C 0.78055 0.86466 0.7744 0.0
C681 C 0.79265 0.8654 0.75076 0.0
C682 C 0.80602 0.86136 0.76691 0.0
C683 C 0.76627 0.86634 0.75681 0.0
C684 C 0.76211 0.84772 0.73082 0.0
C685 C 0.7564 0.8846 0.76814 0.0
C686 C 0.7603 0.90493 0.79511 0.0
C687 C 0.77202 0.92009 0.7872 0.0
C688 C 0.77571 0.93906 0.81293 0.0
C689 C 0.76772 0.94317 0.84657 0.0
C690 C 0.756 0.92833 0.85451 0.0
C691 C 0.75226 0.90932 0.82889 0.0
H692 H 0.7706 0.95787 0.86646 0.0
H693 H 0.73369 0.76797 0.62935 0.0
H694 H 0.68959 0.1441 0.24898 0.0
H695 H 0.71343 0.1376 0.22357 0.0
H696 H 0.72954 0.1345 0.34134 0.0
H697 H 0.70578 0.14204 0.36654 0.0
H698 H 0.74511 0.16328 0.30301 0.0
H699 H 0.72779 0.08223 0.27666 0.0
H700 H 0.71148 0.05068 0.251 0.0
H701 H 0.7186 0.07685 0.13437 0.0
H702 H 0.73481 0.1088 0.15938 0.0
H703 H 0.81468 0.13267 0.24475 0.0
H704 H 0.79093 0.12513 0.27041 0.0
H705 H 0.77297 0.14839 0.16081 0.0
H706 H 0.79671 0.15599 0.13504 0.0
H707 H 0.75906 0.10603 0.19673 0.0
H708 H 0.77496 0.18922 0.22669 0.0
H709 H 0.79173 0.21953 0.25389 0.0
H710 H 0.7875 0.18646 0.36721 0.0
H711 H 0.77086 0.1557 0.34049 0.0
C712 C 0.69818 0.14133 0.26936 0.0
C713 C 0.69586 0.14321 0.3097 0.0
C714 C 0.71183 0.13763 0.25485 0.0
C715 C 0.72336 0.13524 0.28048 0.0
C716 C 0.72089 0.13631 0.32088 0.0
C717 C 0.70731 0.1405 0.3353 0.0
C718 C 0.7381 0.13375 0.26535 0.0
C719 C 0.74816 0.15033 0.28034 0.0
C720 C 0.74215 0.11729 0.23515 0.0
C721 C 0.73243 0.09805 0.21995 0.0
C722 C 0.7258 0.08138 0.24557 0.0
C723 C 0.71658 0.0634 0.23113 0.0
C724 C 0.71398 0.0618 0.19109 0.0
C725 C 0.72062 0.07813 0.16538 0.0
C726 C 0.72984 0.09616 0.17967 0.0
C727 C 0.80571 0.13539 0.22571 0.0
C728 C 0.80753 0.14463 0.18773 0.0
C729 C 0.79214 0.13128 0.24051 0.0
C730 C 0.78021 0.13623 0.21749 0.0
C731 C 0.78204 0.14432 0.17895 0.0
C732 C 0.79558 0.14875 0.16435 0.0
C733 C 0.76584 0.13537 0.23466 0.0
C734 C 0.75592 0.11857 0.21984 0.0
C735 C 0.76191 0.15138 0.26539 0.0
C736 C 0.7718 0.17 0.28151 0.0
C737 C 0.7777 0.18829 0.25733 0.0
C738 C 0.78716 0.20557 0.27267 0.0
C739 C 0.79071 0.20487 0.31223 0.0
C740 C 0.78477 0.18695 0.33655 0.0
C741 C 0.77532 0.16959 0.32134 0.0
H742 H 0.79804 0.21827 0.32405 0.0
H743 H 0.70683 0.04787 0.17997 0.0
H744 H 0.68912 0.62414 0.24287 0.0
H745 H 0.7126 0.61578 0.26971 0.0
H746 H 0.73157 0.63928 0.16153 0.0
H747 H 0.7081 0.64769 0.13457 0.0
H748 H 0.74504 0.59648 0.19866 0.0
H749 H 0.72875 0.6801 0.22704 0.0
H750 H 0.71162 0.71006 0.25345 0.0
H751 H 0.71517 0.67679 0.36679 0.0
H752 H 0.73217 0.64638 0.34085 0.0
H753 H 0.81389 0.63726 0.2482 0.0
H754 H 0.79005 0.62891 0.22415 0.0
H755 H 0.77449 0.62867 0.34266 0.0
H756 H 0.79823 0.63857 0.36626 0.0
H757 H 0.75828 0.65504 0.30384 0.0
H758 H 0.77648 0.57449 0.28012 0.0
H759 H 0.79308 0.543 0.25569 0.0
H760 H 0.78561 0.5669 0.13803 0.0
H761 H 0.76911 0.59879 0.16178 0.0
C762 C 0.69825 0.62665 0.22434 0.0
C763 C 0.69681 0.63624 0.18646 0.0
C764 C 0.71166 0.62207 0.23981 0.0
C765 C 0.7238 0.62692 0.21757 0.0
C766 C 0.72233 0.63525 0.17904 0.0
C767 C 0.70895 0.64015 0.16376 0.0
C768 C 0.73798 0.62608 0.23569 0.0
C769 C 0.74803 0.60927 0.22159 0.0
C770 C 0.74168 0.64235 0.26627 0.0
C771 C 0.7316 0.66081 0.28192 0.0
C772 C 0.72579 0.67906 0.25751 0.0
C773 C 0.71612 0.69614 0.2724 0.0
C774 C 0.71227 0.69529 0.31175 0.0
C775 C 0.71813 0.6774 0.33631 0.0
C776 C 0.72779 0.66025 0.32153 0.0
C777 C 0.80539 0.63482 0.26902 0.0
C778 C 0.80781 0.63825 0.309 0.0
C779 C 0.79176 0.62995 0.25534 0.0
C780 C 0.78039 0.62778 0.28155 0.0
C781 C 0.78302 0.63027 0.32176 0.0
C782 C 0.79657 0.63577 0.33529 0.0
C783 C 0.76562 0.62534 0.26697 0.0
C784 C 0.7554 0.64176 0.2815 0.0
C785 C 0.76175 0.60839 0.23725 0.0
C786 C 0.77163 0.58917 0.22279 0.0
C787 C 0.77845 0.57315 0.24906 0.0
C788 C 0.78783 0.55521 0.23532 0.0
C789 C 0.79042 0.55298 0.19534 0.0
C790 C 0.7836 0.56866 0.169 0.0
C791 C 0.77422 0.58665 0.18257 0.0
H792 H 0.79768 0.53908 0.18477 0.0
H793 H 0.70478 0.70852 0.32322 0.0
H794 H 0.81406 0.37618 0.73596 0.0
H795 H 0.79012 0.38555 0.75764 0.0
H796 H 0.77345 0.33645 0.66983 0.0
H797 H 0.79721 0.32826 0.64645 0.0
H798 H 0.75708 0.37446 0.67454 0.0
H799 H 0.77875 0.31945 0.76879 0.0
H800 H 0.79668 0.30714 0.81724 0.0
H801 H 0.78666 0.37077 0.8868 0.0
H802 H 0.76878 0.38362 0.83848 0.0
H803 H 0.69563 0.3202 0.75127 0.0
H804 H 0.71949 0.33014 0.72929 0.0
H805 H 0.72115 0.39098 0.81043 0.0
H806 H 0.69703 0.3812 0.83237 0.0
H807 H 0.74499 0.35709 0.81269 0.0
H808 H 0.71951 0.40622 0.72099 0.0
H809 H 0.70094 0.41485 0.6725 0.0
H810 H 0.71763 0.35836 0.59758 0.0
H811 H 0.73618 0.34911 0.64589 0.0
C812 C 0.80534 0.36802 0.72031 0.0
C813 C 0.80765 0.35173 0.68893 0.0
C814 C 0.7916 0.37308 0.73327 0.0
C815 C 0.77992 0.36151 0.71571 0.0
C816 C 0.78222 0.34571 0.68388 0.0
C817 C 0.79588 0.34089 0.67069 0.0
C818 C 0.76532 0.36471 0.7311 0.0
C819 C 0.75447 0.37063 0.70476 0.0
C820 C 0.76186 0.36038 0.77077 0.0
C821 C 0.77258 0.35266 0.79981 0.0
C822 C 0.78045 0.33091 0.79428 0.0
C823 C 0.79059 0.32382 0.82173 0.0
C824 C 0.79284 0.33821 0.85501 0.0
C825 C 0.78493 0.35968 0.86096 0.0
C826 C 0.77479 0.36687 0.83356 0.0
C827 C 0.70101 0.33588 0.76414 0.0
C828 C 0.69445 0.35007 0.79326 0.0
C829 C 0.71461 0.34158 0.75148 0.0
C830 C 0.72204 0.3614 0.76803 0.0
C831 C 0.71554 0.37571 0.79713 0.0
C832 C 0.70176 0.37024 0.8094 0.0
C833 C 0.73683 0.36603 0.75583 0.0
C834 C 0.74768 0.36152 0.78272 0.0
C835 C 0.74028 0.37124 0.71655 0.0
C836 C 0.72921 0.37689 0.6872 0.0
C837 C 0.71917 0.39551 0.6943 0.0
C838 C 0.70865 0.40053 0.66682 0.0
C839 C 0.7081 0.38714 0.63201 0.0
C840 C 0.71808 0.36872 0.62456 0.0
C841 C 0.72861 0.36361 0.65196 0.0
H842 H 0.69994 0.39105 0.61077 0.0
H843 H 0.80069 0.33269 0.87623 0.0
H844 H 0.19753 0.31585 0.72411 0.0
H845 H 0.22092 0.32411 0.74995 0.0
H846 H 0.21899 0.39866 0.70568 0.0
H847 H 0.19552 0.39018 0.6783 0.0
H848 H 0.24446 0.37736 0.69064 0.0
H849 H 0.21614 0.38901 0.80283 0.0
H850 H 0.19743 0.37993 0.8507 0.0
H851 H 0.21849 0.31269 0.88289 0.0
H852 H 0.23723 0.32115 0.83479 0.0
H853 H 0.30975 0.39167 0.80236 0.0
H854 H 0.28588 0.39886 0.77773 0.0
H855 H 0.27593 0.32192 0.79506 0.0
H856 H 0.29982 0.31427 0.81807 0.0
H857 H 0.256 0.35504 0.8274 0.0
H858 H 0.28198 0.34138 0.70662 0.0
H859 H 0.30057 0.35098 0.65861 0.0
H860 H 0.28371 0.42408 0.64415 0.0
H861 H 0.26512 0.415 0.69255 0.0
C862 C 0.202 0.33408 0.71988 0.0
C863 C 0.19451 0.35247 0.69964 0.0
C864 C 0.21537 0.33883 0.73498 0.0
C865 C 0.22162 0.36216 0.73048 0.0
C866 C 0.21429 0.38061 0.70992 0.0
C867 C 0.2008 0.37583 0.69469 0.0
C868 C 0.236 0.36649 0.74645 0.0
C869 C 0.24694 0.37309 0.7208 0.0
C870 C 0.23928 0.36084 0.78577 0.0
C871 C 0.22808 0.35569 0.81502 0.0
C872 C 0.21675 0.37221 0.81993 0.0
C873 C 0.20613 0.36718 0.84714 0.0
C874 C 0.20676 0.34574 0.86979 0.0
C875 C 0.21802 0.3293 0.86533 0.0
C876 C 0.22866 0.33423 0.83814 0.0
C877 C 0.3027 0.37609 0.7999 0.0
C878 C 0.30692 0.35223 0.81154 0.0
C879 C 0.28895 0.38034 0.78623 0.0
C880 C 0.27915 0.36091 0.78453 0.0
C881 C 0.28331 0.3372 0.79626 0.0
C882 C 0.29701 0.33289 0.80942 0.0
C883 C 0.26443 0.36492 0.77124 0.0
C884 C 0.25345 0.3599 0.7975 0.0
C885 C 0.26114 0.37224 0.73268 0.0
C886 C 0.27229 0.37764 0.70358 0.0
C887 C 0.28232 0.35958 0.6935 0.0
C888 C 0.29284 0.36491 0.66616 0.0
C889 C 0.29336 0.38815 0.64845 0.0
C890 C 0.28332 0.4061 0.65797 0.0
C891 C 0.27279 0.40088 0.68534 0.0
H892 H 0.30151 0.39224 0.62727 0.0
H893 H 0.19853 0.34187 0.89084 0.0
H894 H 0.19859 0.61492 0.33737 0.0
H895 H 0.22277 0.60537 0.31584 0.0
H896 H 0.22094 0.6657 0.23373 0.0
H897 H 0.197 0.67537 0.25524 0.0
H898 H 0.23325 0.62197 0.20287 0.0
H899 H 0.23591 0.67513 0.31806 0.0
H900 H 0.23132 0.68482 0.38724 0.0
H901 H 0.25335 0.61904 0.42198 0.0
H902 H 0.2579 0.60881 0.3529 0.0
H903 H 0.29882 0.67151 0.15698 0.0
H904 H 0.27504 0.66153 0.17841 0.0
H905 H 0.29183 0.61092 0.26387 0.0
H906 H 0.31582 0.62179 0.24372 0.0
H907 H 0.27224 0.63843 0.29592 0.0
H908 H 0.27386 0.58949 0.18187 0.0
H909 H 0.2786 0.57914 0.11307 0.0
H910 H 0.24872 0.63399 0.07604 0.0
H911 H 0.24394 0.64495 0.1446 0.0
C912 C 0.20329 0.62579 0.31424 0.0
C913 C 0.19594 0.64583 0.29785 0.0
C914 C 0.2171 0.62042 0.30214 0.0
C915 C 0.22364 0.63486 0.27321 0.0
C916 C 0.21608 0.65427 0.25595 0.0
C917 C 0.20244 0.65985 0.26841 0.0
C918 C 0.23862 0.63107 0.26212 0.0
C919 C 0.24181 0.62551 0.22313 0.0
C920 C 0.24976 0.63482 0.28894 0.0
C921 C 0.24707 0.64104 0.33037 0.0
C922 C 0.23966 0.66263 0.34045 0.0
C923 C 0.23709 0.66824 0.37963 0.0
C924 C 0.242 0.65251 0.40898 0.0
C925 C 0.24953 0.63117 0.39921 0.0
C926 C 0.2521 0.62546 0.36006 0.0
C927 C 0.2975 0.65807 0.18013 0.0
C928 C 0.30929 0.64711 0.19804 0.0
C929 C 0.28385 0.65219 0.19213 0.0
C930 C 0.28157 0.63502 0.2222 0.0
C931 C 0.2933 0.62396 0.24022 0.0
C932 C 0.30704 0.62995 0.22827 0.0
C933 C 0.26694 0.63017 0.23613 0.0
C934 C 0.26378 0.63416 0.27569 0.0
C935 C 0.25583 0.6247 0.20985 0.0
C936 C 0.25859 0.61812 0.16846 0.0
C937 C 0.26836 0.59946 0.15907 0.0
C938 C 0.27104 0.59347 0.12009 0.0
C939 C 0.26397 0.60592 0.0902 0.0
C940 C 0.25418 0.62435 0.09923 0.0
C941 C 0.25146 0.63043 0.13816 0.0
H942 H 0.26607 0.60126 0.06004 0.0
H943 H 0.24001 0.65689 0.4393 0.0
H944 H 0.94603 0.11447 0.09196 0.0
H945 H 0.97161 0.11359 0.09983 0.0
H946 H 0.96782 0.15268 0.20899 0.0
H947 H 0.9421 0.15378 0.20124 0.0
H948 H 0.98857 0.17212 0.16308 0.0
H949 H 0.97577 0.09232 0.20971 0.0
H950 H 0.96393 0.05174 0.20858 0.0
H951 H 0.98671 0.03207 0.10482 0.0
H952 H 0.99853 0.07268 0.10498 0.0
H953 H 0.06213 0.15353 0.20256 0.0
H954 H 0.03637 0.15277 0.20922 0.0
H955 H 0.03301 0.11376 0.09988 0.0
H956 H 0.05864 0.11427 0.09312 0.0
H957 H 0.01579 0.09395 0.15472 0.0
H958 H 0.02671 0.17533 0.10502 0.0
H959 H 0.03843 0.21602 0.10591 0.0
H960 H 0.01911 0.23257 0.21619 0.0
H961 H 0.0074 0.19181 0.21618 0.0
C962 C 0.9506 0.12281 0.11776 0.0
C963 C 0.942 0.13417 0.14599 0.0
C964 C 0.96524 0.12219 0.1223 0.0
C965 C 0.97163 0.13284 0.15521 0.0
C966 C 0.96311 0.14429 0.18343 0.0
C967 C 0.94841 0.14484 0.17899 0.0
C968 C 0.98725 0.13245 0.15936 0.0
C969 C 0.99451 0.155 0.16204 0.0
C970 C 0.99502 0.11013 0.1574 0.0
C971 C 0.98796 0.08564 0.1572 0.0
C972 C 0.97817 0.07942 0.18647 0.0
C973 C 0.97148 0.0564 0.18603 0.0
C974 C 0.97454 0.03936 0.1566 0.0
C975 C 0.98433 0.04529 0.12758 0.0
C976 C 0.99105 0.0683 0.12786 0.0
C977 C 0.0559 0.14471 0.18001 0.0
C978 C 0.06245 0.13406 0.14721 0.0
C979 C 0.04118 0.14436 0.18381 0.0
C980 C 0.03275 0.13338 0.15488 0.0
C981 C 0.03929 0.12232 0.12256 0.0
C982 C 0.05396 0.12273 0.11869 0.0
C983 C 0.0171 0.13364 0.15764 0.0
C984 C 0.00983 0.11105 0.15627 0.0
C985 C 0.00933 0.1559 0.16084 0.0
C986 C 0.01632 0.18042 0.16082 0.0
C987 C 0.02505 0.18757 0.12961 0.0
C988 C 0.03168 0.21065 0.12993 0.0
C989 C 0.02955 0.22684 0.16115 0.0
C990 C 0.02076 0.22 0.19206 0.0
C991 C 0.01413 0.19691 0.19191 0.0
H992 H 0.03469 0.24471 0.16133 0.0
H993 H 0.96935 0.02154 0.15632 0.0
H994 H 0.56004 0.90449 0.70923 0.0
H995 H 0.53422 0.90406 0.71029 0.0
H996 H 0.53421 0.8354 0.64631 0.0
H997 H 0.55996 0.8354 0.6459 0.0
H998 H 0.51565 0.90641 0.65392 0.0
H999 H 0.50587 0.80086 0.66999 0.0
H1000 H 0.51708 0.7647 0.70101 0.0
H1001 H 0.53709 0.81207 0.7849 0.0
H1002 H 0.52585 0.84847 0.75475 0.0
H1003 H 0.44737 0.874 0.58996 0.0
H1004 H 0.47275 0.87612 0.60162 0.0
H1005 H 0.46599 0.86021 0.72352 0.0
H1006 H 0.44052 0.85775 0.71201 0.0
H1007 H 0.48757 0.83368 0.69578 0.0
H1008 H 0.47411 0.91843 0.69449 0.0
H1009 H 0.46273 0.95614 0.66915 0.0
H1010 H 0.48886 0.95328 0.5669 0.0
H1011 H 0.50027 0.91534 0.59137 0.0
C1012 C 0.55455 0.8892 0.69562 0.0
C1013 C 0.56209 0.86995 0.67755 0.0
C1014 C 0.53978 0.88902 0.69616 0.0
C1015 C 0.53223 0.86959 0.67873 0.0
C1016 C 0.53975 0.85037 0.66063 0.0
C1017 C 0.55451 0.85047 0.66025 0.0
C1018 C 0.51652 0.86974 0.67833 0.0
C1019 C 0.50952 0.89052 0.66319 0.0
C1020 C 0.50845 0.84924 0.69116 0.0
C1021 C 0.51511 0.82741 0.70986 0.0
C1022 C 0.51261 0.80355 0.69517 0.0
C1023 C 0.51898 0.78301 0.71258 0.0
C1024 C 0.52782 0.7861 0.74483 0.0
C1025 C 0.53028 0.80972 0.75983 0.0
C1026 C 0.52392 0.83031 0.74256 0.0
C1027 C 0.45125 0.87099 0.6193 0.0
C1028 C 0.44189 0.86577 0.65007 0.0
C1029 C 0.46578 0.87232 0.62595 0.0
C1030 C 0.47129 0.8686 0.66353 0.0
C1031 C 0.46199 0.86319 0.69429 0.0
C1032 C 0.44742 0.86186 0.68767 0.0
C1033 C 0.48677 0.87007 0.67043 0.0
C1034 C 0.49371 0.8496 0.68672 0.0
C1035 C 0.49476 0.89106 0.65944 0.0
C1036 C 0.48796 0.91392 0.64464 0.0
C1037 C 0.47736 0.92574 0.66646 0.0
C1038 C 0.47091 0.94717 0.65228 0.0
C1039 C 0.47505 0.95707 0.6164 0.0
C1040 C 0.48566 0.94558 0.59467 0.0
C1041 C 0.49213 0.92413 0.60871 0.0
H1042 H 0.47004 0.97367 0.60547 0.0
H1043 H 0.53275 0.77018 0.75824 0.0
H1044 H 0.94555 0.88878 0.90365 0.0
H1045 H 0.97114 0.88887 0.89583 0.0
H1046 H 0.96725 0.84346 0.79297 0.0
H1047 H 0.94153 0.84316 0.8007 0.0
H1048 H 0.98782 0.82651 0.84166 0.0
H1049 H 0.97553 0.90341 0.78339 0.0
H1050 H 0.96394 0.94409 0.7784 0.0
H1051 H 0.98679 0.96946 0.87889 0.0
H1052 H 0.99837 0.9288 0.88485 0.0
H1053 H 0.06142 0.84161 0.7989 0.0
H1054 H 0.03566 0.8426 0.79227 0.0
H1055 H 0.03266 0.88698 0.89647 0.0
H1056 H 0.0583 0.88615 0.90326 0.0
H1057 H 0.01552 0.90432 0.83856 0.0
H1058 H 0.02596 0.82605 0.89993 0.0
H1059 H 0.03743 0.78527 0.90505 0.0
H1060 H 0.01796 0.76262 0.79772 0.0
H1061 H 0.00652 0.80342 0.7917 0.0
C1062 C 0.9501 0.87888 0.87924 0.0
C1063 C 0.94148 0.86598 0.85278 0.0
C1064 C 0.96475 0.87904 0.87471 0.0
C1065 C 0.97112 0.86638 0.84358 0.0
C1066 C 0.96256 0.85341 0.81714 0.0
C1067 C 0.94787 0.85332 0.82155 0.0
C1068 C 0.98674 0.86626 0.83952 0.0
C1069 C 0.99387 0.84351 0.84019 0.0
C1070 C 0.99465 0.88844 0.83822 0.0
C1071 C 0.98773 0.91297 0.83474 0.0
C1072 C 0.978 0.91759 0.80462 0.0
C1073 C 0.97145 0.94066 0.80159 0.0
C1074 C 0.97461 0.95933 0.82836 0.0
C1075 C 0.98435 0.95498 0.85819 0.0
C1076 C 0.99092 0.93193 0.86138 0.0
C1077 C 0.05528 0.85165 0.8203 0.0
C1078 C 0.06192 0.8637 0.85173 0.0
C1079 C 0.04056 0.85215 0.81653 0.0
C1080 C 0.03223 0.86472 0.84405 0.0
C1081 C 0.03887 0.87718 0.8749 0.0
C1082 C 0.05354 0.87659 0.87881 0.0
C1083 C 0.01658 0.86462 0.84143 0.0
C1084 C 0.00945 0.88733 0.83951 0.0
C1085 C 0.00867 0.84241 0.84151 0.0
C1086 C 0.01552 0.81788 0.84513 0.0
C1087 C 0.02422 0.81245 0.87725 0.0
C1088 C 0.0307 0.78932 0.88034 0.0
C1089 C 0.02847 0.77139 0.85166 0.0
C1090 C 0.01971 0.77654 0.81987 0.0
C1091 C 0.01322 0.79966 0.81661 0.0
H1092 H 0.03349 0.75349 0.85411 0.0
H1093 H 0.96953 0.97718 0.82596 0.0
H1094 H 0.55993 0.08479 0.31875 0.0
H1095 H 0.53416 0.08599 0.31576 0.0
H1096 H 0.53517 0.1656 0.32163 0.0
H1097 H 0.56094 0.16459 0.32491 0.0
H1098 H 0.51613 0.14643 0.37208 0.0
H1099 H 0.52751 0.13665 0.23668 0.0
H1100 H 0.53892 0.11728 0.17971 0.0
H1101 H 0.51714 0.04928 0.20319 0.0
H1102 H 0.50575 0.06815 0.26066 0.0
H1103 H 0.44382 0.16627 0.33043 0.0
H1104 H 0.46957 0.16633 0.32669 0.0
H1105 H 0.46954 0.08687 0.31637 0.0
H1106 H 0.44376 0.08668 0.31933 0.0
H1107 H 0.48815 0.10664 0.26707 0.0
H1108 H 0.47739 0.1156 0.40324 0.0
H1109 H 0.46609 0.13443 0.46084 0.0
H1110 H 0.48687 0.20328 0.43669 0.0
H1111 H 0.49815 0.18494 0.3786 0.0
C1112 C 0.55469 0.10258 0.31915 0.0
C1113 C 0.56251 0.12459 0.3221 0.0
C1114 C 0.53995 0.10323 0.3173 0.0
C1115 C 0.53273 0.12589 0.3182 0.0
C1116 C 0.54051 0.1479 0.32089 0.0
C1117 C 0.55525 0.14728 0.32265 0.0
C1118 C 0.51706 0.1266 0.31766 0.0
C1119 C 0.51001 0.13806 0.3488 0.0
C1120 C 0.50907 0.11513 0.28781 0.0
C1121 C 0.51588 0.10375 0.2532 0.0
C1122 C 0.52524 0.11751 0.22989 0.0
C1123 C 0.53169 0.10663 0.19747 0.0
C1124 C 0.52878 0.08205 0.1879 0.0
C1125 C 0.51939 0.06831 0.21067 0.0
C1126 C 0.51293 0.0791 0.24315 0.0
C1127 C 0.44928 0.14879 0.32731 0.0
C1128 C 0.44172 0.12644 0.32546 0.0
C1129 C 0.46402 0.14885 0.32529 0.0
C1130 C 0.47152 0.12657 0.32184 0.0
C1131 C 0.46399 0.10429 0.31912 0.0
C1132 C 0.44924 0.10421 0.32093 0.0
C1133 C 0.48722 0.12646 0.32152 0.0
C1134 C 0.49427 0.11508 0.29027 0.0
C1135 C 0.49522 0.13792 0.35136 0.0
C1136 C 0.4885 0.14897 0.38635 0.0
C1137 C 0.47946 0.13481 0.41004 0.0
C1138 C 0.47308 0.14538 0.44281 0.0
C1139 C 0.47573 0.17006 0.45236 0.0
C1140 C 0.48481 0.18418 0.42922 0.0
C1141 C 0.49121 0.1737 0.39639 0.0
H1142 H 0.47078 0.17821 0.47774 0.0
H1143 H 0.53378 0.07366 0.16278 0.0
H1144 H 0.44506 0.58911 0.18316 0.0
H1145 H 0.47082 0.58995 0.18641 0.0
H1146 H 0.47052 0.66806 0.1612 0.0
H1147 H 0.44476 0.66736 0.15755 0.0
H1148 H 0.49001 0.64436 0.11797 0.0
H1149 H 0.47704 0.64763 0.25273 0.0
H1150 H 0.46483 0.63434 0.31269 0.0
H1151 H 0.48616 0.56438 0.30804 0.0
H1152 H 0.49836 0.57712 0.24769 0.0
H1153 H 0.56185 0.66682 0.16256 0.0
H1154 H 0.53608 0.66763 0.16449 0.0
H1155 H 0.5354 0.58948 0.18932 0.0
H1156 H 0.56121 0.58856 0.18802 0.0
H1157 H 0.5164 0.61407 0.23354 0.0
H1158 H 0.52896 0.61093 0.09749 0.0
H1159 H 0.54132 0.62486 0.0381 0.0
H1160 H 0.52074 0.6954 0.04583 0.0
H1161 H 0.5084 0.68199 0.1056 0.0
C1162 C 0.45046 0.6065 0.1784 0.0
C1163 C 0.44283 0.62817 0.17011 0.0
C1164 C 0.46519 0.60696 0.18042 0.0
C1165 C 0.47261 0.62912 0.17439 0.0
C1166 C 0.46503 0.65076 0.16597 0.0
C1167 C 0.45029 0.65032 0.16399 0.0
C1168 C 0.48827 0.62963 0.17617 0.0
C1169 C 0.49578 0.63807 0.14346 0.0
C1170 C 0.4958 0.62096 0.20912 0.0
C1171 C 0.48851 0.61324 0.24546 0.0
C1172 C 0.47904 0.62933 0.2643 0.0
C1173 C 0.47214 0.62191 0.2984 0.0
C1174 C 0.47469 0.5985 0.31411 0.0
C1175 C 0.48418 0.58249 0.2958 0.0
C1176 C 0.4911 0.58981 0.26167 0.0
C1177 C 0.55624 0.6498 0.16858 0.0
C1178 C 0.5636 0.62757 0.17485 0.0
C1179 C 0.54149 0.65029 0.16955 0.0
C1180 C 0.5338 0.62854 0.17646 0.0
C1181 C 0.54112 0.60647 0.18381 0.0
C1182 C 0.55588 0.60597 0.18295 0.0
C1183 C 0.51812 0.62872 0.17531 0.0
C1184 C 0.51062 0.62039 0.2081 0.0
C1185 C 0.51058 0.63755 0.14246 0.0
C1186 C 0.51786 0.64553 0.10623 0.0
C1187 C 0.52714 0.62947 0.08667 0.0
C1188 C 0.53413 0.63726 0.05292 0.0
C1189 C 0.53185 0.66103 0.03826 0.0
C1190 C 0.52252 0.67701 0.05724 0.0
C1191 C 0.51551 0.66931 0.09104 0.0
H1192 H 0.53729 0.66704 0.01216 0.0
H1193 H 0.46934 0.59279 0.34051 0.0
H1194 H 0.05923 0.33543 0.64692 0.0
H1195 H 0.03348 0.33642 0.64878 0.0
H1196 H 0.03481 0.40379 0.71593 0.0
H1197 H 0.06064 0.40284 0.71453 0.0
H1198 H 0.01494 0.37178 0.74399 0.0
H1199 H 0.02765 0.40622 0.62022 0.0
H1200 H 0.03971 0.40774 0.55651 0.0
H1201 H 0.01826 0.34159 0.52082 0.0
H1202 H 0.00621 0.33948 0.58457 0.0
H1203 H 0.94323 0.40756 0.70687 0.0
H1204 H 0.96906 0.40651 0.71042 0.0
H1205 H 0.96929 0.33649 0.65033 0.0
H1206 H 0.94352 0.33726 0.64697 0.0
H1207 H 0.9883 0.37087 0.61933 0.0
H1208 H 0.97558 0.33662 0.74352 0.0
H1209 H 0.96338 0.33558 0.80703 0.0
H1210 H 0.98466 0.40209 0.84173 0.0
H1211 H 0.99684 0.40375 0.77813 0.0
C1212 C 0.05407 0.35045 0.6622 0.0
C1213 C 0.06201 0.36917 0.68034 0.0
C1214 C 0.03933 0.35102 0.66313 0.0
C1215 C 0.03221 0.37036 0.68206 0.0
C1216 C 0.04009 0.38873 0.70107 0.0
C1217 C 0.05485 0.3882 0.70011 0.0
C1218 C 0.01655 0.37157 0.68129 0.0
C1219 C 0.00912 0.37194 0.71674 0.0
C1220 C 0.00893 0.37133 0.64573 0.0
C1221 C 0.01614 0.37256 0.60732 0.0
C1222 C 0.02559 0.39188 0.59891 0.0
C1223 C 0.03241 0.39287 0.56277 0.0
C1224 C 0.02978 0.37474 0.53467 0.0
C1225 C 0.0203 0.35561 0.54263 0.0
C1226 C 0.01346 0.35452 0.57875 0.0
C1227 C 0.94878 0.39191 0.69451 0.0
C1228 C 0.94132 0.3725 0.67662 0.0
C1229 C 0.96352 0.3913 0.69669 0.0
C1230 C 0.97107 0.37138 0.68075 0.0
C1231 C 0.96366 0.35203 0.6628 0.0
C1232 C 0.94893 0.35247 0.66103 0.0
C1233 C 0.98671 0.37093 0.68199 0.0
C1234 C 0.99413 0.37075 0.64658 0.0
C1235 C 0.99429 0.37143 0.71756 0.0
C1236 C 0.987 0.37046 0.75587 0.0
C1237 C 0.97756 0.35116 0.76453 0.0
C1238 C 0.97067 0.35043 0.80058 0.0
C1239 C 0.97321 0.3688 0.82835 0.0
C1240 C 0.98268 0.3879 0.82016 0.0
C1241 C 0.98959 0.38874 0.78412 0.0
H1242 H 0.96786 0.36819 0.85625 0.0
H1243 H 0.03507 0.37554 0.50671 0.0
H1244 H 0.44074 0.35694 0.79064 0.0
H1245 H 0.46637 0.35787 0.7817 0.0
H1246 H 0.47149 0.38428 0.89961 0.0
H1247 H 0.44594 0.38374 0.90859 0.0
H1248 H 0.48863 0.40866 0.85181 0.0
H1249 H 0.47708 0.3237 0.87677 0.0
H1250 H 0.46466 0.28423 0.86605 0.0
H1251 H 0.48174 0.27992 0.75019 0.0
H1252 H 0.49412 0.31956 0.76006 0.0
H1253 H 0.55995 0.33782 0.86186 0.0
H1254 H 0.53422 0.33862 0.8647 0.0
H1255 H 0.53362 0.40085 0.78601 0.0
H1256 H 0.55943 0.40055 0.78376 0.0
H1257 H 0.51413 0.33241 0.81314 0.0
H1258 H 0.50575 0.43811 0.80835 0.0
H1259 H 0.51835 0.47642 0.82615 0.0
H1260 H 0.5415 0.43711 0.91419 0.0
H1261 H 0.52892 0.39867 0.89724 0.0
C1262 C 0.44732 0.36304 0.81462 0.0
C1263 C 0.44128 0.37015 0.85041 0.0
C1264 C 0.46197 0.36349 0.8095 0.0
C1265 C 0.47088 0.37092 0.84012 0.0
C1266 C 0.46485 0.3785 0.87556 0.0
C1267 C 0.45022 0.37808 0.88069 0.0
C1268 C 0.48649 0.37036 0.8357 0.0
C1269 C 0.4942 0.39202 0.84315 0.0
C1270 C 0.4938 0.34857 0.82499 0.0
C1271 C 0.4864 0.32472 0.81901 0.0
C1272 C 0.4781 0.31443 0.8489 0.0
C1273 C 0.47108 0.29202 0.843 0.0
C1274 C 0.47238 0.27961 0.80742 0.0
C1275 C 0.48073 0.28957 0.77771 0.0
C1276 C 0.48775 0.312 0.78345 0.0
C1277 C 0.55437 0.35169 0.8451 0.0
C1278 C 0.56177 0.36925 0.8228 0.0
C1279 C 0.53963 0.35206 0.84665 0.0
C1280 C 0.53195 0.36995 0.82592 0.0
C1281 C 0.5393 0.38713 0.80282 0.0
C1282 C 0.55407 0.38688 0.80146 0.0
C1283 C 0.51629 0.37074 0.82912 0.0
C1284 C 0.50857 0.34913 0.8214 0.0
C1285 C 0.50899 0.39243 0.84045 0.0
C1286 C 0.51651 0.41548 0.8512 0.0
C1287 C 0.5135 0.43768 0.83158 0.0
C1288 C 0.52064 0.4594 0.84151 0.0
C1289 C 0.53075 0.45918 0.87119 0.0
C1290 C 0.53371 0.43724 0.8911 0.0
C1291 C 0.52659 0.41548 0.88131 0.0
H1292 H 0.53627 0.47601 0.87881 0.0
H1293 H 0.46694 0.26225 0.80291 0.0
H1294 H 0.94244 0.65675 0.30619 0.0
H1295 H 0.96825 0.65752 0.30259 0.0
H1296 H 0.97064 0.61615 0.41001 0.0
H1297 H 0.94494 0.61572 0.41421 0.0
H1298 H 0.98842 0.65379 0.4117 0.0
H1299 H 0.97708 0.58941 0.31945 0.0
H1300 H 0.96538 0.57173 0.26154 0.0
H1301 H 0.98557 0.62566 0.1885 0.0
H1302 H 0.99725 0.64387 0.24608 0.0
H1303 H 0.0593 0.61607 0.41277 0.0
H1304 H 0.03359 0.61631 0.40905 0.0
H1305 H 0.03558 0.65899 0.30288 0.0
H1306 H 0.06142 0.65846 0.30599 0.0
H1307 H 0.01569 0.62341 0.2978 0.0
H1308 H 0.02769 0.68682 0.38918 0.0
H1309 H 0.03946 0.70473 0.44679 0.0
H1310 H 0.0179 0.6532 0.52117 0.0
H1311 H 0.00615 0.63475 0.46392 0.0
C1312 C 0.94847 0.64773 0.32895 0.0
C1313 C 0.94162 0.6362 0.36052 0.0
C1314 C 0.96323 0.6481 0.32677 0.0
C1315 C 0.97141 0.63672 0.35588 0.0
C1316 C 0.96457 0.62509 0.38724 0.0
C1317 C 0.94986 0.62481 0.38954 0.0
C1318 C 0.9871 0.63743 0.35452 0.0
C1319 C 0.99437 0.64686 0.38696 0.0
C1320 C 0.99489 0.62915 0.32175 0.0
C1321 C 0.98792 0.61816 0.28712 0.0
C1322 C 0.97894 0.59762 0.29108 0.0
C1323 C 0.97233 0.58748 0.25831 0.0
C1324 C 0.9747 0.59761 0.22138 0.0
C1325 C 0.98373 0.61786 0.21713 0.0
C1326 C 0.99035 0.62808 0.24981 0.0
C1327 C 0.0543 0.62548 0.38854 0.0
C1328 C 0.06242 0.63743 0.35985 0.0
C1329 C 0.03958 0.62566 0.38653 0.0
C1330 C 0.03263 0.63804 0.35605 0.0
C1331 C 0.04071 0.64942 0.32675 0.0
C1332 C 0.05547 0.64915 0.32864 0.0
C1333 C 0.01696 0.63932 0.3553 0.0
C1334 C 0.00971 0.63039 0.32246 0.0
C1335 C 0.00915 0.64811 0.38767 0.0
C1336 C 0.01613 0.65928 0.42221 0.0
C1337 C 0.02554 0.6792 0.41779 0.0
C1338 C 0.03219 0.68946 0.45039 0.0
C1339 C 0.02945 0.68008 0.48761 0.0
C1340 C 0.02002 0.66044 0.49232 0.0
C1341 C 0.01335 0.65009 0.45981 0.0
H1342 H 0.03462 0.68804 0.51281 0.0
H1343 H 0.96957 0.58973 0.19605 0.0
H1344 H 0.1474 0.07852 0.09976 0.0
H1345 H 0.14746 0.0424 0.05705 0.0
H1346 H 0.1021 0.03805 0.06505 0.0
H1347 H 0.1019 0.07412 0.10796 0.0
H1348 H 0.11462 0.99222 0.06765 0.0
H1349 H 0.11657 0.06519 0.98809 0.0
H1350 H 0.12605 0.10539 0.96659 0.0
H1351 H 0.16582 0.07136 0.93981 0.0
H1352 H 0.15664 0.03099 0.96173 0.0
H1353 H 0.10111 0.91853 0.90234 0.0
H1354 H 0.10157 0.95434 0.94563 0.0
H1355 H 0.14695 0.95705 0.93713 0.0
H1356 H 0.14664 0.92124 0.89358 0.0
H1357 H 0.13472 0.00351 0.93503 0.0
H1358 H 0.13256 0.93034 0.01404 0.0
H1359 H 0.12291 0.89019 0.03521 0.0
H1360 H 0.08334 0.92472 0.06276 0.0
H1361 H 0.09269 0.96503 0.04117 0.0
C1362 C 0.13743 0.06971 0.09294 0.0
C1363 C 0.12462 0.0794 0.10702 0.0
C1364 C 0.13749 0.04913 0.06836 0.0
C1365 C 0.12476 0.03785 0.05737 0.0
C1366 C 0.11203 0.04659 0.07304 0.0
C1367 C 0.11195 0.06723 0.09754 0.0
C1368 C 0.12467 0.01768 0.02814 0.0
C1369 C 0.11887 0.99476 0.03852 0.0
C1370 C 0.13044 0.02091 0.99036 0.0
C1371 C 0.13597 0.04512 0.97694 0.0
C1372 C 0.12738 0.06632 0.97792 0.0
C1373 C 0.13269 0.08913 0.96561 0.0
C1374 C 0.14654 0.09094 0.95195 0.0
C1375 C 0.1551 0.06993 0.95046 0.0
C1376 C 0.14984 0.04707 0.9628 0.0
C1377 C 0.11119 0.9269 0.90918 0.0
C1378 C 0.12385 0.91684 0.89475 0.0
C1379 C 0.11143 0.94731 0.9341 0.0
C1380 C 0.1243 0.95804 0.94509 0.0
C1381 C 0.1369 0.94892 0.92915 0.0
C1382 C 0.1367 0.92843 0.90431 0.0
C1383 C 0.12465 0.97808 0.97453 0.0
C1384 C 0.13049 0.00097 0.96419 0.0
C1385 C 0.1189 0.97483 0.01233 0.0
C1386 C 0.11328 0.95066 0.02562 0.0
C1387 C 0.12176 0.92934 0.02432 0.0
C1388 C 0.11635 0.90656 0.03644 0.0
C1389 C 0.10251 0.90489 0.05023 0.0
C1390 C 0.09406 0.92603 0.05202 0.0
C1391 C 0.09941 0.94885 0.03987 0.0
H1392 H 0.09834 0.88724 0.0596 0.0
H1393 H 0.15063 0.10862 0.94242 0.0
H1394 H 0.35503 0.91632 0.59264 0.0
H1395 H 0.35391 0.95224 0.54943 0.0
H1396 H 0.39851 0.96447 0.5654 0.0
H1397 H 0.39975 0.92879 0.6088 0.0
H1398 H 0.38405 0.00753 0.56606 0.0
H1399 H 0.38668 0.93499 0.48552 0.0
H1400 H 0.37939 0.89405 0.46123 0.0
H1401 H 0.33903 0.92348 0.42829 0.0
H1402 H 0.34602 0.96457 0.45291 0.0
H1403 H 0.4016 0.07936 0.40279 0.0
H1404 H 0.39984 0.04363 0.44592 0.0
H1405 H 0.35472 0.04222 0.42992 0.0
H1406 H 0.35632 0.07816 0.38666 0.0
H1407 H 0.36772 0.99456 0.42994 0.0
H1408 H 0.36611 0.06814 0.50806 0.0
H1409 H 0.37434 0.10901 0.53029 0.0
H1410 H 0.41372 0.07718 0.56659 0.0
H1411 H 0.4058 0.03616 0.544 0.0
C1412 C 0.36458 0.92683 0.58741 0.0
C1413 C 0.37751 0.91953 0.604 0.0
C1414 C 0.36392 0.94728 0.56251 0.0
C1415 C 0.37617 0.96077 0.55373 0.0
C1416 C 0.38894 0.95425 0.57167 0.0
C1417 C 0.38963 0.9338 0.59645 0.0
C1418 C 0.37585 0.98116 0.5248 0.0
C1419 C 0.38058 0.00463 0.53624 0.0
C1420 C 0.37108 0.97748 0.48606 0.0
C1421 C 0.36682 0.95278 0.47146 0.0
C1422 C 0.3762 0.93268 0.47344 0.0
C1423 C 0.37214 0.90946 0.45956 0.0
C1424 C 0.35874 0.90615 0.44332 0.0
C1425 C 0.34939 0.92607 0.44094 0.0
C1426 C 0.3534 0.94933 0.45483 0.0
C1427 C 0.3913 0.0713 0.40789 0.0
C1428 C 0.37908 0.08182 0.39154 0.0
C1429 C 0.39033 0.05092 0.43269 0.0
C1430 C 0.37714 0.04058 0.44154 0.0
C1431 C 0.36499 0.05006 0.42356 0.0
C1432 C 0.36593 0.07061 0.3989 0.0
C1433 C 0.37604 0.02077 0.47119 0.0
C1434 C 0.37106 0.99745 0.45988 0.0
C1435 C 0.38066 0.02452 0.51001 0.0
C1436 C 0.3854 0.04912 0.52402 0.0
C1437 C 0.37656 0.06989 0.52051 0.0
C1438 C 0.38117 0.09308 0.53321 0.0
C1439 C 0.39456 0.0957 0.54976 0.0
C1440 C 0.40336 0.07512 0.55373 0.0
C1441 C 0.39881 0.05189 0.54101 0.0
H1442 H 0.39811 0.11367 0.55957 0.0
H1443 H 0.35564 0.8882 0.43244 0.0
H1444 H 0.90053 0.92553 0.89194 0.0
H1445 H 0.89952 0.96165 0.93445 0.0
H1446 H 0.85438 0.95349 0.94428 0.0
H1447 H 0.85523 0.91753 0.90116 0.0
H1448 H 0.86204 0.00189 0.93905 0.0
H1449 H 0.87569 0.93101 0.01489 0.0
H1450 H 0.8901 0.89431 0.03012 0.0
H1451 H 0.92713 0.93978 0.03829 0.0
H1452 H 0.91296 0.97672 0.02256 0.0
H1453 H 0.85575 0.07938 0.10531 0.0
H1454 H 0.8546 0.04291 0.06323 0.0
H1455 H 0.89997 0.04334 0.05256 0.0
H1456 H 0.90125 0.07923 0.09528 0.0
H1457 H 0.89096 0.99776 0.05961 0.0
H1458 H 0.87791 0.06819 0.98126 0.0
H1459 H 0.86389 0.10516 0.96477 0.0
H1460 H 0.82624 0.06108 0.96033 0.0
H1461 H 0.84002 0.02389 0.97731 0.0
C1462 C 0.89035 0.93157 0.90266 0.0
C1463 C 0.87798 0.91842 0.89346 0.0
C1464 C 0.8898 0.95217 0.92713 0.0
C1465 C 0.87691 0.95991 0.9432 0.0
C1466 C 0.86445 0.94771 0.93239 0.0
C1467 C 0.86497 0.92714 0.90775 0.0
C1468 C 0.87656 0.97994 0.97273 0.0
C1469 C 0.86821 0.00087 0.96567 0.0
C1470 C 0.88477 0.97874 0.00718 0.0
C1471 C 0.89328 0.9566 0.01724 0.0
C1472 C 0.88692 0.93316 0.01972 0.0
C1473 C 0.89504 0.91232 0.02846 0.0
C1474 C 0.90953 0.91471 0.03509 0.0
C1475 C 0.91591 0.93796 0.03312 0.0
C1476 C 0.90783 0.95886 0.02433 0.0
C1477 C 0.86549 0.07155 0.09435 0.0
C1478 C 0.87858 0.08236 0.10347 0.0
C1479 C 0.86481 0.05079 0.07011 0.0
C1480 C 0.87718 0.04068 0.0541 0.0
C1481 C 0.89028 0.05085 0.06443 0.0
C1482 C 0.89098 0.07143 0.08889 0.0
C1483 C 0.87658 0.01994 0.02577 0.0
C1484 C 0.88473 0.99879 0.03309 0.0
C1485 C 0.86823 0.02102 0.9915 0.0
C1486 C 0.85997 0.04332 0.98094 0.0
C1487 C 0.86663 0.06642 0.97702 0.0
C1488 C 0.85873 0.08741 0.96755 0.0
C1489 C 0.84418 0.08548 0.96161 0.0
C1490 C 0.83751 0.06255 0.965 0.0
C1491 C 0.84535 0.04151 0.97452 0.0
H1492 H 0.83808 0.10176 0.9543 0.0
H1493 H 0.9158 0.89855 0.04182 0.0
H1494 H 0.64739 0.08269 0.40288 0.0
H1495 H 0.64799 0.04723 0.44703 0.0
H1496 H 0.60283 0.03956 0.43681 0.0
H1497 H 0.60208 0.07511 0.3931 0.0
H1498 H 0.61101 0.0392 0.51188 0.0
H1499 H 0.62519 0.99859 0.39324 0.0
H1500 H 0.63973 0.9923 0.3344 0.0
H1501 H 0.67665 0.98345 0.40569 0.0
H1502 H 0.66235 0.99002 0.46496 0.0
H1503 H 0.60113 0.921 0.59658 0.0
H1504 H 0.60216 0.95768 0.55538 0.0
H1505 H 0.64744 0.95994 0.56831 0.0
H1506 H 0.64655 0.92289 0.60903 0.0
H1507 H 0.64026 0.96406 0.49372 0.0
H1508 H 0.62609 0.00305 0.61253 0.0
H1509 H 0.61167 0.00943 0.67157 0.0
H1510 H 0.57499 0.02168 0.60061 0.0
H1511 H 0.58915 0.01504 0.54113 0.0
C1512 C 0.6376 0.07327 0.40956 0.0
C1513 C 0.62468 0.08184 0.39452 0.0
C1514 C 0.63797 0.05297 0.4348 0.0
C1515 C 0.62544 0.04075 0.4452 0.0
C1516 C 0.6126 0.0488 0.42931 0.0
C1517 C 0.61221 0.06908 0.40415 0.0
C1518 C 0.62559 0.0203 0.47401 0.0
C1519 C 0.61727 0.02262 0.5077 0.0
C1520 C 0.63411 0.99906 0.46912 0.0
C1521 C 0.64272 0.99506 0.43351 0.0
C1522 C 0.63643 0.99551 0.39636 0.0
C1523 C 0.64462 0.99185 0.36293 0.0
C1524 C 0.65911 0.98755 0.36629 0.0
C1525 C 0.66543 0.98682 0.40312 0.0
C1526 C 0.65728 0.99049 0.43664 0.0
C1527 C 0.6113 0.92946 0.59119 0.0
C1528 C 0.62376 0.9189 0.60603 0.0
C1529 C 0.61187 0.95052 0.56767 0.0
C1530 C 0.62488 0.96164 0.55888 0.0
C1531 C 0.63729 0.95162 0.57463 0.0
C1532 C 0.63675 0.93049 0.59805 0.0
C1533 C 0.62556 0.98284 0.53146 0.0
C1534 C 0.63405 0.98069 0.49804 0.0
C1535 C 0.61721 0.00428 0.53664 0.0
C1536 C 0.60866 0.00833 0.57237 0.0
C1537 C 0.61492 0.00692 0.60951 0.0
C1538 C 0.6068 0.01061 0.64306 0.0
C1539 C 0.59241 0.0159 0.63984 0.0
C1540 C 0.58613 0.01756 0.60306 0.0
C1541 C 0.5942 0.01386 0.56941 0.0
H1542 H 0.58614 0.01876 0.66585 0.0
H1543 H 0.66543 0.98472 0.34038 0.0
H1544 H 0.6018 0.5807 0.08666 0.0
H1545 H 0.6025 0.54457 0.04422 0.0
H1546 H 0.64701 0.5361 0.06714 0.0
H1547 H 0.6465 0.5727 0.1089 0.0
H1548 H 0.64212 0.5328 0.99163 0.0
H1549 H 0.62192 0.49608 0.10609 0.0
H1550 H 0.60507 0.49226 0.16061 0.0
H1551 H 0.57078 0.48571 0.07938 0.0
H1552 H 0.5874 0.48982 0.02435 0.0
H1553 H 0.64755 0.41331 0.90352 0.0
H1554 H 0.64805 0.4494 0.94635 0.0
H1555 H 0.60354 0.46083 0.92672 0.0
H1556 H 0.60287 0.42446 0.88469 0.0
H1557 H 0.60911 0.46198 0.00191 0.0
H1558 H 0.62926 0.49956 0.8875 0.0
H1559 H 0.6461 0.50348 0.83298 0.0
H1560 H 0.68049 0.50831 0.91417 0.0
H1561 H 0.66387 0.50409 0.96919 0.0
C1562 C 0.61171 0.57098 0.08316 0.0
C1563 C 0.6241 0.57963 0.10117 0.0
C1564 C 0.61209 0.55025 0.0589 0.0
C1565 C 0.62479 0.53748 0.05268 0.0
C1566 C 0.6371 0.54569 0.07144 0.0
C1567 C 0.63677 0.56656 0.09544 0.0
C1568 C 0.62535 0.51629 0.02522 0.0
C1569 C 0.63505 0.51711 0.99423 0.0
C1570 C 0.61591 0.49611 0.02804 0.0
C1571 C 0.6059 0.49346 0.0611 0.0
C1572 C 0.61077 0.49399 0.09986 0.0
C1573 C 0.60127 0.49175 0.13085 0.0
C1574 C 0.58686 0.4888 0.12347 0.0
C1575 C 0.58194 0.48801 0.08506 0.0
C1576 C 0.5914 0.49027 0.05396 0.0
C1577 C 0.63791 0.42373 0.90781 0.0
C1578 C 0.62515 0.41591 0.89084 0.0
C1579 C 0.63822 0.4444 0.93228 0.0
C1580 C 0.62583 0.45786 0.93973 0.0
C1581 C 0.61321 0.45064 0.92159 0.0
C1582 C 0.61286 0.42989 0.89743 0.0
C1583 C 0.62578 0.47858 0.96812 0.0
C1584 C 0.6162 0.47764 0.99934 0.0
C1585 C 0.63533 0.49862 0.9655 0.0
C1586 C 0.64533 0.50126 0.93245 0.0
C1587 C 0.64042 0.50127 0.89372 0.0
C1588 C 0.64993 0.50358 0.86273 0.0
C1589 C 0.66436 0.50608 0.8701 0.0
C1590 C 0.66931 0.50634 0.9085 0.0
C1591 C 0.65985 0.50402 0.9396 0.0
H1592 H 0.6717 0.50786 0.84607 0.0
H1593 H 0.57952 0.48707 0.14751 0.0
H1594 H 0.90134 0.42224 0.60162 0.0
H1595 H 0.90032 0.45789 0.55822 0.0
H1596 H 0.85504 0.4509 0.55142 0.0
H1597 H 0.85592 0.41524 0.59523 0.0
H1598 H 0.89128 0.45843 0.48359 0.0
H1599 H 0.84099 0.50892 0.53541 0.0
H1600 H 0.82743 0.51567 0.59596 0.0
H1601 H 0.86504 0.5054 0.66393 0.0
H1602 H 0.87884 0.49893 0.6038 0.0
H1603 H 0.85618 0.57619 0.39 0.0
H1604 H 0.85523 0.53911 0.43065 0.0
H1605 H 0.9006 0.54003 0.44113 0.0
H1606 H 0.90169 0.57682 0.40012 0.0
H1607 H 0.86304 0.53441 0.50511 0.0
H1608 H 0.91308 0.48203 0.45289 0.0
H1609 H 0.92653 0.47529 0.39218 0.0
H1610 H 0.88925 0.48921 0.32444 0.0
H1611 H 0.87554 0.4957 0.38472 0.0
C1612 C 0.89112 0.42842 0.59137 0.0
C1613 C 0.87871 0.41577 0.60184 0.0
C1614 C 0.89058 0.44876 0.56638 0.0
C1615 C 0.87762 0.45703 0.55152 0.0
C1616 C 0.86515 0.44496 0.56281 0.0
C1617 C 0.86568 0.42456 0.58784 0.0
C1618 C 0.87731 0.47759 0.52289 0.0
C1619 C 0.88524 0.47519 0.48849 0.0
C1620 C 0.86907 0.49907 0.52873 0.0
C1621 C 0.8609 0.50315 0.5651 0.0
C1622 C 0.84636 0.50816 0.56328 0.0
C1623 C 0.83864 0.51194 0.59753 0.0
C1624 C 0.84536 0.51087 0.63377 0.0
C1625 C 0.85983 0.50611 0.63585 0.0
C1626 C 0.86761 0.50235 0.60169 0.0
C1627 C 0.86599 0.5683 0.40045 0.0
C1628 C 0.87902 0.57954 0.39181 0.0
C1629 C 0.86541 0.54716 0.42383 0.0
C1630 C 0.87783 0.53674 0.43884 0.0
C1631 C 0.89088 0.54752 0.42943 0.0
C1632 C 0.89148 0.56862 0.40601 0.0
C1633 C 0.87716 0.51539 0.46598 0.0
C1634 C 0.86902 0.51761 0.50007 0.0
C1635 C 0.8852 0.4937 0.45982 0.0
C1636 C 0.89332 0.48958 0.42336 0.0
C1637 C 0.90774 0.48356 0.42505 0.0
C1638 C 0.91541 0.4798 0.3907 0.0
C1639 C 0.90876 0.4819 0.35448 0.0
C1640 C 0.89441 0.48769 0.35252 0.0
C1641 C 0.88669 0.49145 0.38677 0.0
H1642 H 0.91472 0.47899 0.32792 0.0
H1643 H 0.83936 0.51378 0.66025 0.0
H1644 H 0.39935 0.43188 0.88593 0.0
H1645 H 0.39827 0.46759 0.92926 0.0
H1646 H 0.35358 0.45624 0.94489 0.0
H1647 H 0.35448 0.42063 0.901 0.0
H1648 H 0.36033 0.50549 0.94077 0.0
H1649 H 0.37614 0.43394 0.01141 0.0
H1650 H 0.39125 0.39755 0.02296 0.0
H1651 H 0.42781 0.44431 0.02859 0.0
H1652 H 0.41294 0.48095 0.0165 0.0
H1653 H 0.35662 0.58106 0.11017 0.0
H1654 H 0.35483 0.54495 0.06746 0.0
H1655 H 0.39993 0.5462 0.05016 0.0
H1656 H 0.40187 0.58167 0.0935 0.0
H1657 H 0.39138 0.50053 0.05713 0.0
H1658 H 0.37615 0.57162 0.98295 0.0
H1659 H 0.36141 0.60827 0.96975 0.0
H1660 H 0.32423 0.5629 0.96973 0.0
H1661 H 0.33873 0.52602 0.98342 0.0
C1662 C 0.38923 0.43717 0.89801 0.0
C1663 C 0.37703 0.42316 0.89035 0.0
C1664 C 0.38865 0.45754 0.92293 0.0
C1665 C 0.37591 0.46419 0.94099 0.0
C1666 C 0.36354 0.45129 0.93147 0.0
C1667 C 0.36409 0.43093 0.90637 0.0
C1668 C 0.37571 0.48362 0.9715 0.0
C1669 C 0.36697 0.50429 0.96649 0.0
C1670 C 0.3845 0.48213 0.00482 0.0
C1671 C 0.39343 0.46016 0.01276 0.0
C1672 C 0.38741 0.43644 0.0149 0.0
C1673 C 0.39593 0.41577 0.02155 0.0
C1674 C 0.41048 0.41861 0.02642 0.0
C1675 C 0.41653 0.44214 0.02478 0.0
C1676 C 0.40806 0.46287 0.01807 0.0
C1677 C 0.36617 0.57346 0.09764 0.0
C1678 C 0.37937 0.58441 0.10505 0.0
C1679 C 0.36512 0.55291 0.07302 0.0
C1680 C 0.37721 0.54316 0.05495 0.0
C1681 C 0.39044 0.55344 0.06362 0.0
C1682 C 0.39152 0.57379 0.08844 0.0
C1683 C 0.37619 0.52273 0.02615 0.0
C1684 C 0.38468 0.50175 0.03154 0.0
C1685 C 0.36721 0.52401 0.99313 0.0
C1686 C 0.3585 0.54613 0.98461 0.0
C1687 C 0.36482 0.5695 0.98038 0.0
C1688 C 0.35651 0.5903 0.97278 0.0
C1689 C 0.34189 0.58793 0.96901 0.0
C1690 C 0.33555 0.56472 0.97272 0.0
C1691 C 0.34381 0.54386 0.98037 0.0
H1692 H 0.33547 0.60405 0.96314 0.0
H1693 H 0.41706 0.40258 0.03154 0.0
H1694 H 0.14236 0.56722 0.36842 0.0
H1695 H 0.14196 0.5296 0.40838 0.0
H1696 H 0.107 0.55914 0.47447 0.0
H1697 H 0.10674 0.59562 0.43295 0.0
H1698 H 0.14654 0.51927 0.47802 0.0
H1699 H 0.08612 0.51715 0.51182 0.0
H1700 H 0.06371 0.52754 0.47904 0.0
H1701 H 0.08353 0.51889 0.3672 0.0
H1702 H 0.106 0.50813 0.39927 0.0
H1703 H 0.13706 0.43646 0.6354 0.0
H1704 H 0.13722 0.47276 0.59253 0.0
H1705 H 0.10944 0.43483 0.5124 0.0
H1706 H 0.10829 0.39979 0.55688 0.0
H1707 H 0.10166 0.47719 0.51156 0.0
H1708 H 0.14786 0.44305 0.50005 0.0
H1709 H 0.17093 0.4275 0.5226 0.0
H1710 H 0.1807 0.49875 0.57071 0.0
H1711 H 0.15761 0.51464 0.54887 0.0
C1712 C 0.13448 0.5654 0.39116 0.0
C1713 C 0.12442 0.58408 0.39719 0.0
C1714 C 0.1343 0.544 0.41415 0.0
C1715 C 0.12426 0.54118 0.44409 0.0
C1716 C 0.11453 0.56031 0.45076 0.0
C1717 C 0.11442 0.58126 0.42709 0.0
C1718 C 0.12404 0.51855 0.46885 0.0
C1719 C 0.13673 0.50996 0.48513 0.0
C1720 C 0.11132 0.50591 0.47753 0.0
C1721 C 0.09778 0.51206 0.458 0.0
C1722 C 0.08568 0.51735 0.48024 0.0
C1723 C 0.07297 0.52334 0.46178 0.0
C1724 C 0.07221 0.52396 0.42107 0.0
C1725 C 0.08414 0.51849 0.39873 0.0
C1726 C 0.09687 0.51248 0.41703 0.0
C1727 C 0.13088 0.43617 0.6088 0.0
C1728 C 0.1226 0.41552 0.59944 0.0
C1729 C 0.1311 0.45675 0.58403 0.0
C1730 C 0.12358 0.45651 0.54856 0.0
C1731 C 0.11528 0.43575 0.53952 0.0
C1732 C 0.11464 0.41566 0.56494 0.0
C1733 C 0.12418 0.47776 0.52084 0.0
C1734 C 0.11152 0.48625 0.50419 0.0
C1735 C 0.13703 0.48939 0.51015 0.0
C1736 C 0.15096 0.47996 0.52315 0.0
C1737 C 0.1549 0.45535 0.51564 0.0
C1738 C 0.16798 0.44648 0.52828 0.0
C1739 C 0.17726 0.46211 0.54816 0.0
C1740 C 0.1735 0.48666 0.55535 0.0
C1741 C 0.16042 0.49561 0.54282 0.0
H1742 H 0.18738 0.4552 0.55793 0.0
H1743 H 0.06237 0.52862 0.40684 0.0
H1744 H 0.1373 0.29464 0.78544 0.0
H1745 H 0.13658 0.27165 0.8464 0.0
H1746 H 0.10062 0.31452 0.88382 0.0
H1747 H 0.10208 0.33909 0.82371 0.0
H1748 H 0.11666 0.30664 0.94363 0.0
H1749 H 0.09728 0.25465 0.84594 0.0
H1750 H 0.09588 0.23294 0.78282 0.0
H1751 H 0.13322 0.19168 0.81104 0.0
H1752 H 0.13497 0.21341 0.87412 0.0
H1753 H 0.09918 0.2098 0.08401 0.0
H1754 H 0.09796 0.2383 0.02841 0.0
H1755 H 0.14056 0.21905 0.9964 0.0
H1756 H 0.14202 0.19099 0.05214 0.0
H1757 H 0.11841 0.21512 0.93519 0.0
H1758 H 0.13727 0.27088 0.03369 0.0
H1759 H 0.13664 0.29216 0.09729 0.0
H1760 H 0.09687 0.32519 0.06745 0.0
H1761 H 0.09717 0.3038 0.00385 0.0
C1762 C 0.12947 0.29964 0.80705 0.0
C1763 C 0.11983 0.31882 0.80002 0.0
C1764 C 0.1289 0.28616 0.84165 0.0
C1765 C 0.11833 0.29092 0.86938 0.0
C1766 C 0.10882 0.3104 0.86278 0.0
C1767 C 0.10959 0.3243 0.82839 0.0
C1768 C 0.11721 0.27524 0.90484 0.0
C1769 C 0.11681 0.28663 0.94168 0.0
C1770 C 0.11738 0.24908 0.90249 0.0
C1771 C 0.11631 0.23581 0.86467 0.0
C1772 C 0.10525 0.24106 0.83859 0.0
C1773 C 0.10438 0.22874 0.80282 0.0
C1774 C 0.11446 0.21098 0.7929 0.0
C1775 C 0.12542 0.20546 0.81877 0.0
C1776 C 0.12634 0.21775 0.85455 0.0
C1777 C 0.10833 0.2118 0.0653 0.0
C1778 C 0.1207 0.19813 0.07241 0.0
C1779 C 0.10761 0.2281 0.03369 0.0
C1780 C 0.11917 0.23068 0.00848 0.0
C1781 C 0.13155 0.21725 0.01565 0.0
C1782 C 0.13237 0.20131 0.04757 0.0
C1783 C 0.11825 0.24657 0.97354 0.0
C1784 C 0.11816 0.23514 0.93688 0.0
C1785 C 0.1173 0.27257 0.97611 0.0
C1786 C 0.11716 0.28551 0.01423 0.0
C1787 C 0.12832 0.28248 0.04085 0.0
C1788 C 0.12804 0.29461 0.07685 0.0
C1789 C 0.1167 0.30996 0.08646 0.0
C1790 C 0.10564 0.31327 0.06 0.0
C1791 C 0.10586 0.30116 0.02397 0.0
H1792 H 0.1165 0.31933 0.11435 0.0
H1793 H 0.11378 0.20146 0.76519 0.0
H1794 H 0.40806 0.80371 0.57022 0.0
H1795 H 0.40982 0.77571 0.51428 0.0
H1796 H 0.36485 0.76375 0.51808 0.0
H1797 H 0.36293 0.79173 0.57356 0.0
H1798 H 0.40224 0.72638 0.50012 0.0
H1799 H 0.35275 0.76522 0.42483 0.0
H1800 H 0.33848 0.80336 0.42423 0.0
H1801 H 0.37505 0.846 0.45489 0.0
H1802 H 0.38958 0.80817 0.45512 0.0
H1803 H 0.378 0.65326 0.3372 0.0
H1804 H 0.37944 0.6772 0.39818 0.0
H1805 H 0.39842 0.73778 0.33529 0.0
H1806 H 0.39712 0.7138 0.27465 0.0
H1807 H 0.37547 0.75155 0.38213 0.0
H1808 H 0.41867 0.7055 0.39104 0.0
H1809 H 0.43324 0.66775 0.39145 0.0
H1810 H 0.41061 0.64091 0.49141 0.0
H1811 H 0.39575 0.67835 0.49122 0.0
C1812 C 0.39856 0.7949 0.55946 0.0
C1813 C 0.38533 0.80023 0.57609 0.0
C1814 C 0.3996 0.77885 0.52759 0.0
C1815 C 0.38744 0.76796 0.51179 0.0
C1816 C 0.37433 0.77225 0.52955 0.0
C1817 C 0.37327 0.78827 0.56129 0.0
C1818 C 0.38824 0.75348 0.4752 0.0
C1819 C 0.39639 0.73183 0.47431 0.0
C1820 C 0.38072 0.76081 0.44145 0.0
C1821 C 0.37221 0.78382 0.44032 0.0
C1822 C 0.35776 0.78276 0.43122 0.0
C1823 C 0.34963 0.80431 0.43098 0.0
C1824 C 0.35585 0.82707 0.43965 0.0
C1825 C 0.37024 0.82835 0.44832 0.0
C1826 C 0.37842 0.80685 0.44853 0.0
C1827 C 0.38259 0.6716 0.33673 0.0
C1828 C 0.38753 0.68178 0.30167 0.0
C1829 C 0.38344 0.68519 0.37137 0.0
C1830 C 0.38909 0.70918 0.37114 0.0
C1831 C 0.39405 0.71928 0.33602 0.0
C1832 C 0.39336 0.7056 0.30156 0.0
C1833 C 0.38931 0.72425 0.40714 0.0
C1834 C 0.38132 0.74605 0.40792 0.0
C1835 C 0.39704 0.7171 0.4406 0.0
C1836 C 0.406 0.69462 0.44087 0.0
C1837 C 0.41671 0.69145 0.4129 0.0
C1838 C 0.42504 0.67013 0.41313 0.0
C1839 C 0.42283 0.65191 0.44138 0.0
C1840 C 0.4123 0.65502 0.46951 0.0
C1841 C 0.40393 0.6763 0.46938 0.0
H1842 H 0.42929 0.63542 0.44152 0.0
H1843 H 0.3495 0.84369 0.43961 0.0
H1844 H 0.14168 0.80307 0.94429 0.0
H1845 H 0.14062 0.77256 0.99641 0.0
H1846 H 0.09795 0.75404 0.96334 0.0
H1847 H 0.09874 0.78547 0.912 0.0
H1848 H 0.09904 0.757 0.03772 0.0
H1849 H 0.1269 0.71453 0.94463 0.0
H1850 H 0.14596 0.70826 0.89667 0.0
H1851 H 0.17698 0.71912 0.98634 0.0
H1852 H 0.15812 0.72582 0.03477 0.0
H1853 H 0.1032 0.65492 0.17403 0.0
H1854 H 0.10192 0.67578 0.11036 0.0
H1855 H 0.13789 0.72047 0.1413 0.0
H1856 H 0.13875 0.70079 0.20533 0.0
H1857 H 0.13817 0.69807 0.06228 0.0
H1858 H 0.10873 0.74566 0.15218 0.0
H1859 H 0.08902 0.74972 0.19871 0.0
H1860 H 0.05991 0.7254 0.11068 0.0
H1861 H 0.07953 0.72079 0.06381 0.0
C1862 C 0.13209 0.7924 0.94789 0.0
C1863 C 0.1203 0.79665 0.92395 0.0
C1864 C 0.13153 0.7748 0.97759 0.0
C1865 C 0.1193 0.76058 0.98339 0.0
C1866 C 0.10752 0.7647 0.95937 0.0
C1867 C 0.10799 0.78264 0.93002 0.0
C1868 C 0.11868 0.74232 0.01576 0.0
C1869 C 0.10746 0.74375 0.04249 0.0
C1870 C 0.12965 0.725 0.02227 0.0
C1871 C 0.14107 0.72083 0.99331 0.0
C1872 C 0.13778 0.71574 0.9541 0.0
C1873 C 0.14856 0.71209 0.92682 0.0
C1874 C 0.16267 0.71333 0.93844 0.0
C1875 C 0.16604 0.71817 0.97738 0.0
C1876 C 0.15531 0.72186 0.00477 0.0
C1877 C 0.11081 0.66922 0.16714 0.0
C1878 C 0.12114 0.67613 0.19447 0.0
C1879 C 0.11011 0.68097 0.13082 0.0
C1880 C 0.11987 0.69952 0.12124 0.0
C1881 C 0.13038 0.70598 0.14808 0.0
C1882 C 0.13091 0.69461 0.18454 0.0
C1883 C 0.11878 0.71332 0.08418 0.0
C1884 C 0.12966 0.71102 0.05676 0.0
C1885 C 0.10739 0.72948 0.07665 0.0
C1886 C 0.09561 0.73258 0.10467 0.0
C1887 C 0.09815 0.74096 0.14287 0.0
C1888 C 0.08699 0.7434 0.16928 0.0
C1889 C 0.07323 0.73774 0.1577 0.0
C1890 C 0.07059 0.72972 0.11964 0.0
C1891 C 0.08172 0.72719 0.09314 0.0
H1892 H 0.0646 0.73964 0.17819 0.0
H1893 H 0.17099 0.71051 0.91727 0.0
H1894 H 0.39968 0.29936 0.71307 0.0
H1895 H 0.4001 0.27752 0.65061 0.0
H1896 H 0.3624 0.31597 0.61484 0.0
H1897 H 0.36226 0.33872 0.67686 0.0
H1898 H 0.36183 0.26278 0.60607 0.0
H1899 H 0.39095 0.33266 0.57351 0.0
H1900 H 0.41068 0.36171 0.58336 0.0
H1901 H 0.44027 0.3018 0.5757 0.0
H1902 H 0.42069 0.27232 0.56641 0.0
H1903 H 0.36162 0.2138 0.41531 0.0
H1904 H 0.36124 0.24281 0.46989 0.0
H1905 H 0.40355 0.22096 0.50132 0.0
H1906 H 0.4042 0.19261 0.4459 0.0
H1907 H 0.4011 0.26829 0.51065 0.0
H1908 H 0.37362 0.19812 0.54915 0.0
H1909 H 0.35484 0.16678 0.54327 0.0
H1910 H 0.32338 0.2239 0.54459 0.0
H1911 H 0.342 0.25562 0.54996 0.0
C1912 C 0.39167 0.3036 0.69155 0.0
C1913 C 0.38102 0.32093 0.69957 0.0
C1914 C 0.39187 0.29099 0.65603 0.0
C1915 C 0.38133 0.29528 0.62813 0.0
C1916 C 0.37063 0.31248 0.63607 0.0
C1917 C 0.37055 0.32538 0.67142 0.0
C1918 C 0.38127 0.28107 0.59127 0.0
C1919 C 0.37026 0.26427 0.58477 0.0
C1920 C 0.39254 0.28252 0.56434 0.0
C1921 C 0.40434 0.30025 0.56959 0.0
C1922 C 0.40166 0.32565 0.57425 0.0
C1923 C 0.41281 0.3422 0.57968 0.0
C1924 C 0.42672 0.3336 0.58025 0.0
C1925 C 0.42949 0.30843 0.57529 0.0
C1926 C 0.41837 0.2918 0.5699 0.0
C1927 C 0.37088 0.21527 0.43371 0.0
C1928 C 0.38291 0.20078 0.42645 0.0
C1929 C 0.37062 0.2318 0.46502 0.0
C1930 C 0.38226 0.23373 0.49022 0.0
C1931 C 0.39443 0.21978 0.48235 0.0
C1932 C 0.39477 0.20353 0.45069 0.0
C1933 C 0.38166 0.2498 0.52533 0.0
C1934 C 0.39257 0.26691 0.53165 0.0
C1935 C 0.37043 0.24828 0.55256 0.0
C1936 C 0.35921 0.22925 0.54952 0.0
C1937 C 0.3627 0.20401 0.5479 0.0
C1938 C 0.35209 0.18617 0.5447 0.0
C1939 C 0.33793 0.19335 0.54344 0.0
C1940 C 0.33436 0.21837 0.5455 0.0
C1941 C 0.34493 0.23629 0.54864 0.0
H1942 H 0.32973 0.17952 0.54096 0.0
H1943 H 0.43534 0.34645 0.58445 0.0
H1944 H 0.89919 0.65632 0.17537 0.0
H1945 H 0.90056 0.67799 0.11236 0.0
H1946 H 0.86772 0.72781 0.14961 0.0
H1947 H 0.86689 0.70728 0.21316 0.0
H1948 H 0.86554 0.70244 0.06841 0.0
H1949 H 0.89585 0.75118 0.15562 0.0
H1950 H 0.91593 0.75514 0.20095 0.0
H1951 H 0.94408 0.72815 0.11246 0.0
H1952 H 0.92409 0.72364 0.06681 0.0
H1953 H 0.86164 0.80517 0.94603 0.0
H1954 H 0.8629 0.7756 0.99939 0.0
H1955 H 0.90565 0.75722 0.96682 0.0
H1956 H 0.90466 0.78786 0.91428 0.0
H1957 H 0.90474 0.76069 0.04067 0.0
H1958 H 0.87661 0.71702 0.94997 0.0
H1959 H 0.85748 0.70984 0.90257 0.0
H1960 H 0.82659 0.72204 0.99221 0.0
H1961 H 0.84553 0.72965 0.04006 0.0
C1962 C 0.89233 0.67197 0.17006 0.0
C1963 C 0.88283 0.67999 0.1989 0.0
C1964 C 0.89307 0.68419 0.13413 0.0
C1965 C 0.88416 0.70431 0.12646 0.0
C1966 C 0.87455 0.71213 0.15498 0.0
C1967 C 0.87404 0.7003 0.19111 0.0
C1968 C 0.88504 0.71788 0.08918 0.0
C1969 C 0.87405 0.71528 0.06221 0.0
C1970 C 0.89646 0.73376 0.08072 0.0
C1971 C 0.90846 0.73676 0.10801 0.0
C1972 C 0.90629 0.74585 0.14598 0.0
C1973 C 0.91766 0.74825 0.17169 0.0
C1974 C 0.93127 0.74182 0.15964 0.0
C1975 C 0.93353 0.73307 0.12179 0.0
C1976 C 0.92219 0.73059 0.09599 0.0
C1977 C 0.87129 0.79472 0.95 0.0
C1978 C 0.88304 0.79879 0.92584 0.0
C1979 C 0.87197 0.77765 0.98043 0.0
C1980 C 0.88427 0.7637 0.98674 0.0
C1981 C 0.89602 0.76765 0.9625 0.0
C1982 C 0.89544 0.78513 0.93245 0.0
C1983 C 0.88496 0.74591 0.01977 0.0
C1984 C 0.89629 0.74762 0.04614 0.0
C1985 C 0.87398 0.72874 0.0272 0.0
C1986 C 0.86251 0.72407 0.99857 0.0
C1987 C 0.86574 0.71834 0.95954 0.0
C1988 C 0.85493 0.71417 0.93259 0.0
C1989 C 0.84083 0.71553 0.94436 0.0
C1990 C 0.83752 0.721 0.98313 0.0
C1991 C 0.84829 0.72521 0.0102 0.0
H1992 H 0.83247 0.7123 0.92344 0.0
H1993 H 0.94006 0.74369 0.17958 0.0
H1994 H 0.64032 0.19687 0.441 0.0
H1995 H 0.63772 0.22514 0.49608 0.0
H1996 H 0.59456 0.23926 0.46327 0.0
H1997 H 0.59692 0.21044 0.40829 0.0
H1998 H 0.61577 0.2835 0.48828 0.0
H1999 H 0.59329 0.20635 0.52734 0.0
H2000 H 0.59255 0.16094 0.53313 0.0
H2001 H 0.63072 0.16209 0.60063 0.0
H2002 H 0.6318 0.20751 0.59466 0.0
H2003 H 0.6009 0.34055 0.67315 0.0
H2004 H 0.5989 0.31775 0.61144 0.0
H2005 H 0.63276 0.26956 0.64774 0.0
H2006 H 0.63415 0.29122 0.7099 0.0
H2007 H 0.61304 0.24322 0.61817 0.0
H2008 H 0.63699 0.31769 0.5792 0.0
H2009 H 0.64019 0.36268 0.57183 0.0
H2010 H 0.60224 0.3669 0.50369 0.0
H2011 H 0.59872 0.32195 0.5111 0.0
C2012 C 0.63031 0.20619 0.44511 0.0
C2013 C 0.61879 0.2013 0.42043 0.0
C2014 C 0.62886 0.22232 0.47657 0.0
C2015 C 0.61596 0.23415 0.48355 0.0
C2016 C 0.6046 0.23027 0.4581 0.0
C2017 C 0.60596 0.21375 0.42692 0.0
C2018 C 0.6142 0.24904 0.51927 0.0
C2019 C 0.61488 0.27485 0.51674 0.0
C2020 C 0.61343 0.23754 0.55616 0.0
C2021 C 0.6127 0.21028 0.56021 0.0
C2022 C 0.60159 0.19689 0.5431 0.0
C2023 C 0.60109 0.17116 0.54648 0.0
C2024 C 0.6116 0.15862 0.56715 0.0
C2025 C 0.6226 0.17181 0.58459 0.0
C2026 C 0.62315 0.19755 0.58124 0.0
C2027 C 0.60786 0.32503 0.6678 0.0
C2028 C 0.6178 0.31781 0.69599 0.0
C2029 C 0.6068 0.31216 0.63249 0.0
C2030 C 0.6158 0.2921 0.62471 0.0
C2031 C 0.62572 0.28498 0.65298 0.0
C2032 C 0.62664 0.29758 0.68832 0.0
C2033 C 0.61483 0.27798 0.58767 0.0
C2034 C 0.61368 0.25213 0.58987 0.0
C2035 C 0.6154 0.28951 0.55056 0.0
C2036 C 0.6175 0.31652 0.54611 0.0
C2037 C 0.62926 0.32825 0.56293 0.0
C2038 C 0.63115 0.35374 0.55869 0.0
C2039 C 0.6214 0.36766 0.53741 0.0
C2040 C 0.60977 0.35611 0.52024 0.0
C2041 C 0.60782 0.33063 0.52443 0.0
H2042 H 0.62288 0.38738 0.53415 0.0
H2043 H 0.6112 0.1387 0.56973 0.0
H2044 H 0.86438 0.22014 0.09238 0.0
H2045 H 0.86489 0.25013 0.0391 0.0
H2046 H 0.90405 0.21878 0.99786 0.0
H2047 H 0.90396 0.18964 0.05237 0.0
H2048 H 0.90512 0.2656 0.9876 0.0
H2049 H 0.87053 0.20362 0.95795 0.0
H2050 H 0.84952 0.17773 0.96954 0.0
H2051 H 0.82361 0.24271 0.97625 0.0
H2052 H 0.84452 0.26902 0.96519 0.0
H2053 H 0.89952 0.29499 0.78553 0.0
H2054 H 0.90025 0.27424 0.84893 0.0
H2055 H 0.8673 0.32227 0.89125 0.0
H2056 H 0.86685 0.34367 0.82796 0.0
H2057 H 0.86262 0.27054 0.90336 0.0
H2058 H 0.89875 0.33162 0.92452 0.0
H2059 H 0.92038 0.35451 0.90742 0.0
H2060 H 0.94424 0.28708 0.91045 0.0
H2061 H 0.9227 0.26371 0.92699 0.0
C2062 C 0.87316 0.21982 0.07214 0.0
C2063 C 0.88407 0.20243 0.07628 0.0
C2064 C 0.87341 0.23689 0.04158 0.0
C2065 C 0.88433 0.23635 0.01382 0.0
C2066 C 0.89549 0.21955 0.01879 0.0
C2067 C 0.89541 0.20286 0.0499 0.0
C2068 C 0.88385 0.25256 0.97881 0.0
C2069 C 0.89586 0.26651 0.96907 0.0
C2070 C 0.87171 0.25406 0.95475 0.0
C2071 C 0.85911 0.23829 0.96118 0.0
C2072 C 0.86037 0.21239 0.96216 0.0
C2073 C 0.84848 0.19764 0.9686 0.0
C2074 C 0.83525 0.20857 0.97375 0.0
C2075 C 0.83387 0.23428 0.97234 0.0
C2076 C 0.84574 0.24911 0.96596 0.0
C2077 C 0.89265 0.30146 0.80864 0.0
C2078 C 0.88324 0.32107 0.80215 0.0
C2079 C 0.89304 0.28955 0.84472 0.0
C2080 C 0.88391 0.29689 0.87478 0.0
C2081 C 0.87445 0.31643 0.86838 0.0
C2082 C 0.87419 0.32858 0.83237 0.0
C2083 C 0.88388 0.28332 0.91223 0.0
C2084 C 0.8718 0.26982 0.92227 0.0
C2085 C 0.89605 0.28179 0.93597 0.0
C2086 C 0.90908 0.29588 0.92672 0.0
C2087 C 0.90859 0.32164 0.92129 0.0
C2088 C 0.92084 0.3347 0.91173 0.0
C2089 C 0.93368 0.32225 0.90777 0.0
C2090 C 0.93429 0.2967 0.91351 0.0
C2091 C 0.92207 0.28354 0.92303 0.0
H2092 H 0.94315 0.33239 0.90031 0.0
H2093 H 0.82606 0.19713 0.97874 0.0
H2094 H 0.64263 0.80789 0.55124 0.0
H2095 H 0.64215 0.7796 0.49561 0.0
H2096 H 0.59965 0.75813 0.52495 0.0
H2097 H 0.59987 0.78685 0.58034 0.0
H2098 H 0.62151 0.71759 0.50352 0.0
H2099 H 0.59956 0.79387 0.45939 0.0
H2100 H 0.59875 0.83914 0.45128 0.0
H2101 H 0.63753 0.83701 0.38649 0.0
H2102 H 0.63867 0.79173 0.39478 0.0
H2103 H 0.6068 0.65669 0.32338 0.0
H2104 H 0.60563 0.68068 0.38393 0.0
H2105 H 0.63855 0.72876 0.34104 0.0
H2106 H 0.6388 0.7062 0.27952 0.0
H2107 H 0.62013 0.7555 0.37174 0.0
H2108 H 0.64342 0.68153 0.41441 0.0
H2109 H 0.64655 0.6367 0.42417 0.0
H2110 H 0.60859 0.63413 0.4925 0.0
H2111 H 0.60514 0.67891 0.48273 0.0
C2112 C 0.63321 0.797 0.54612 0.0
C2113 C 0.62125 0.7997 0.57002 0.0
C2114 C 0.63297 0.78088 0.51437 0.0
C2115 C 0.62086 0.76691 0.50634 0.0
C2116 C 0.60908 0.76879 0.53089 0.0
C2117 C 0.60921 0.78527 0.5623 0.0
C2118 C 0.6203 0.75147 0.4709 0.0
C2119 C 0.62101 0.72571 0.47461 0.0
C2120 C 0.62004 0.7623 0.43345 0.0
C2121 C 0.61927 0.78947 0.42804 0.0
C2122 C 0.60798 0.80309 0.44372 0.0
C2123 C 0.60745 0.82874 0.43903 0.0
C2124 C 0.6181 0.84095 0.41847 0.0
C2125 C 0.62929 0.82752 0.40245 0.0
C2126 C 0.62988 0.80187 0.40711 0.0
C2127 C 0.61374 0.67243 0.32702 0.0
C2128 C 0.62302 0.67942 0.29704 0.0
C2129 C 0.61319 0.68597 0.36176 0.0
C2130 C 0.62218 0.70633 0.36747 0.0
C2131 C 0.63152 0.71312 0.33751 0.0
C2132 C 0.63182 0.69999 0.30253 0.0
C2133 C 0.62157 0.72126 0.40386 0.0
C2134 C 0.6206 0.74709 0.40045 0.0
C2135 C 0.62189 0.71044 0.44156 0.0
C2136 C 0.62394 0.68352 0.44748 0.0
C2137 C 0.63568 0.67137 0.43127 0.0
C2138 C 0.63752 0.64598 0.43684 0.0
C2139 C 0.62775 0.63256 0.45884 0.0
C2140 C 0.61614 0.64453 0.47541 0.0
C2141 C 0.61424 0.66992 0.46989 0.0
H2142 H 0.62919 0.61291 0.46314 0.0
H2143 H 0.61768 0.86081 0.41488 0.0
H2144 H 0.60309 0.71645 0.09051 0.0
H2145 H 0.60247 0.74651 0.03726 0.0
H2146 H 0.6414 0.71659 0.99182 0.0
H2147 H 0.64246 0.68757 0.04629 0.0
H2148 H 0.64211 0.76301 0.98263 0.0
H2149 H 0.60681 0.70115 0.95553 0.0
H2150 H 0.58575 0.67583 0.96937 0.0
H2151 H 0.56051 0.74149 0.97858 0.0
H2152 H 0.58148 0.76722 0.96525 0.0
H2153 H 0.63574 0.78926 0.78104 0.0
H2154 H 0.63555 0.76835 0.84432 0.0
H2155 H 0.60491 0.8207 0.88707 0.0
H2156 H 0.60548 0.84236 0.82394 0.0
H2157 H 0.59893 0.76783 0.90104 0.0
H2158 H 0.63543 0.82862 0.91903 0.0
H2159 H 0.65699 0.85115 0.90017 0.0
H2160 H 0.68062 0.78344 0.90264 0.0
H2161 H 0.65913 0.76043 0.9209 0.0
C2162 C 0.61156 0.71647 0.06928 0.0
C2163 C 0.62277 0.69959 0.07231 0.0
C2164 C 0.61116 0.73355 0.03873 0.0
C2165 C 0.62171 0.73347 0.0099 0.0
C2166 C 0.63311 0.71704 0.0136 0.0
C2167 C 0.6337 0.7004 0.04469 0.0
C2168 C 0.62076 0.74995 0.9753 0.0
C2169 C 0.63268 0.76388 0.96473 0.0
C2170 C 0.60837 0.75156 0.95217 0.0
C2171 C 0.59574 0.73611 0.95983 0.0
C2172 C 0.59679 0.71019 0.96074 0.0
C2173 C 0.58486 0.69576 0.96847 0.0
C2174 C 0.57181 0.70704 0.97497 0.0
C2175 C 0.57064 0.73278 0.97361 0.0
C2176 C 0.58253 0.74729 0.96595 0.0
C2177 C 0.62915 0.79656 0.80415 0.0
C2178 C 0.62082 0.81765 0.79799 0.0
C2179 C 0.62898 0.78452 0.8401 0.0
C2180 C 0.62031 0.79317 0.87032 0.0
C2181 C 0.61169 0.81387 0.86403 0.0
C2182 C 0.61202 0.82616 0.82812 0.0
C2183 C 0.62032 0.7803 0.90832 0.0
C2184 C 0.60825 0.7671 0.9194 0.0
C2185 C 0.63264 0.77892 0.93142 0.0
C2186 C 0.64564 0.79278 0.92107 0.0
C2187 C 0.6452 0.81851 0.91529 0.0
C2188 C 0.65741 0.83136 0.90473 0.0
C2189 C 0.67016 0.81873 0.90013 0.0
C2190 C 0.67073 0.79321 0.90619 0.0
C2191 C 0.65854 0.78025 0.91669 0.0
H2192 H 0.67961 0.82871 0.89194 0.0
H2193 H 0.56259 0.69585 0.98099 0.0
H2194 H 0.87329 0.2129 0.28053 0.0
H2195 H 0.87522 0.23431 0.34327 0.0
H2196 H 0.89421 0.16938 0.3942 0.0
H2197 H 0.89211 0.1478 0.33125 0.0
H2198 H 0.8743 0.19058 0.44261 0.0
H2199 H 0.91485 0.21563 0.37064 0.0
H2200 H 0.92788 0.23145 0.31359 0.0
H2201 H 0.90555 0.30033 0.32141 0.0
H2202 H 0.89221 0.28477 0.37814 0.0
H2203 H 0.90732 0.29547 0.57387 0.0
H2204 H 0.90879 0.26557 0.5206 0.0
H2205 H 0.86334 0.26152 0.51638 0.0
H2206 H 0.86175 0.29102 0.56999 0.0
H2207 H 0.89987 0.27056 0.4483 0.0
H2208 H 0.8529 0.20528 0.48489 0.0
H2209 H 0.84114 0.18794 0.54298 0.0
H2210 H 0.87927 0.19658 0.60924 0.0
H2211 H 0.89132 0.21363 0.55144 0.0
C2212 C 0.87773 0.20318 0.30529 0.0
C2213 C 0.88249 0.17876 0.30145 0.0
C2214 C 0.87891 0.21542 0.34095 0.0
C2215 C 0.88496 0.20347 0.37324 0.0
C2216 C 0.88951 0.17888 0.3696 0.0
C2217 C 0.88836 0.16664 0.3338 0.0
C2218 C 0.88672 0.21698 0.41049 0.0
C2219 C 0.87993 0.20802 0.444 0.0
C2220 C 0.89436 0.23941 0.41239 0.0
C2221 C 0.90246 0.24896 0.3785 0.0
C2222 C 0.91265 0.23409 0.36003 0.0
C2223 C 0.9201 0.24302 0.32777 0.0
C2224 C 0.91753 0.26687 0.31385 0.0
C2225 C 0.90752 0.28186 0.33222 0.0
C2226 C 0.90003 0.273 0.36446 0.0
C2227 C 0.89763 0.28801 0.56194 0.0
C2228 C 0.88441 0.29572 0.57617 0.0
C2229 C 0.8985 0.27095 0.53143 0.0
C2230 C 0.88619 0.26118 0.51468 0.0
C2231 C 0.87299 0.26849 0.52928 0.0
C2232 C 0.87211 0.28549 0.55983 0.0
C2233 C 0.88708 0.2446 0.48031 0.0
C2234 C 0.89435 0.25301 0.44719 0.0
C2235 C 0.88009 0.22148 0.47904 0.0
C2236 C 0.87298 0.21092 0.51386 0.0
C2237 C 0.8588 0.20336 0.5118 0.0
C2238 C 0.85208 0.19361 0.54469 0.0
C2239 C 0.85944 0.19122 0.57981 0.0
C2240 C 0.87356 0.19852 0.58207 0.0
C2241 C 0.88034 0.20826 0.54925 0.0
H2242 H 0.85422 0.18369 0.60524 0.0
H2243 H 0.92331 0.27375 0.28886 0.0
H2244 H 0.64038 0.15566 0.17168 0.0
H2245 H 0.64058 0.1766 0.10808 0.0
H2246 H 0.60398 0.21888 0.14191 0.0
H2247 H 0.604 0.19864 0.20567 0.0
H2248 H 0.60276 0.19994 0.06441 0.0
H2249 H 0.63475 0.24423 0.15062 0.0
H2250 H 0.65525 0.24675 0.19475 0.0
H2251 H 0.68249 0.222 0.10255 0.0
H2252 H 0.66209 0.21892 0.05804 0.0
H2253 H 0.60087 0.30484 0.94447 0.0
H2254 H 0.60157 0.27471 0.99724 0.0
H2255 H 0.64292 0.25105 0.95988 0.0
H2256 H 0.64253 0.28202 0.90784 0.0
H2257 H 0.64303 0.25541 0.03434 0.0
H2258 H 0.6122 0.21493 0.94553 0.0
H2259 H 0.59206 0.21047 0.90054 0.0
H2260 H 0.56325 0.22525 0.99438 0.0
H2261 H 0.58322 0.23014 0.03986 0.0
C2262 C 0.63236 0.16936 0.16535 0.0
C2263 C 0.62212 0.17545 0.19337 0.0
C2264 C 0.63246 0.1812 0.1291 0.0
C2265 C 0.62229 0.19925 0.12042 0.0
C2266 C 0.61183 0.20483 0.14798 0.0
C2267 C 0.61182 0.19319 0.18429 0.0
C2268 C 0.62294 0.21347 0.08363 0.0
C2269 C 0.61151 0.21218 0.05777 0.0
C2270 C 0.63459 0.22876 0.0746 0.0
C2271 C 0.64688 0.23108 0.10115 0.0
C2272 C 0.64509 0.23915 0.13984 0.0
C2273 C 0.6567 0.2407 0.16492 0.0
C2274 C 0.67016 0.23447 0.1515 0.0
C2275 C 0.67205 0.22677 0.11293 0.0
C2276 C 0.66048 0.22512 0.08777 0.0
C2277 C 0.61007 0.29309 0.94725 0.0
C2278 C 0.62164 0.29577 0.92194 0.0
C2279 C 0.61043 0.27573 0.97734 0.0
C2280 C 0.62219 0.26023 0.98217 0.0
C2281 C 0.63371 0.26273 0.95669 0.0
C2282 C 0.63347 0.28041 0.92694 0.0
C2283 C 0.62268 0.24233 0.01502 0.0
C2284 C 0.63434 0.24292 0.04034 0.0
C2285 C 0.6113 0.22613 0.02326 0.0
C2286 C 0.59923 0.22306 0.99606 0.0
C2287 C 0.60158 0.21738 0.95653 0.0
C2288 C 0.59019 0.21476 0.93095 0.0
C2289 C 0.57639 0.21761 0.94458 0.0
C2290 C 0.57395 0.22304 0.98386 0.0
C2291 C 0.5853 0.22571 0.00957 0.0
H2292 H 0.56758 0.21558 0.92472 0.0
H2293 H 0.67913 0.23567 0.17095 0.0
H2294 H 0.85836 0.69904 0.43331 0.0
H2295 H 0.85791 0.72831 0.4875 0.0
H2296 H 0.90332 0.7334 0.48402 0.0
H2297 H 0.90391 0.70416 0.42965 0.0
H2298 H 0.86957 0.7227 0.55928 0.0
H2299 H 0.91258 0.79251 0.51178 0.0
H2300 H 0.92249 0.80994 0.45115 0.0
H2301 H 0.88332 0.79652 0.39183 0.0
H2302 H 0.87312 0.77934 0.45221 0.0
H2303 H 0.89622 0.79105 0.71852 0.0
H2304 H 0.8959 0.76838 0.65656 0.0
H2305 H 0.86777 0.82292 0.60776 0.0
H2306 H 0.86796 0.84552 0.67008 0.0
H2307 H 0.891 0.80643 0.55654 0.0
H2308 H 0.85292 0.77571 0.63564 0.0
H2309 H 0.84245 0.75927 0.69615 0.0
H2310 H 0.86969 0.69596 0.69009 0.0
H2311 H 0.88053 0.71229 0.6299 0.0
C2312 C 0.86827 0.70649 0.44381 0.0
C2313 C 0.88118 0.69919 0.42715 0.0
C2314 C 0.86798 0.72318 0.47486 0.0
C2315 C 0.88056 0.73309 0.48963 0.0
C2316 C 0.89347 0.72616 0.47275 0.0
C2317 C 0.89378 0.70937 0.44178 0.0
C2318 C 0.88022 0.74982 0.52382 0.0
C2319 C 0.87422 0.74103 0.55859 0.0
C2320 C 0.88617 0.77381 0.5228 0.0
C2321 C 0.89214 0.78443 0.48645 0.0
C2322 C 0.90606 0.79338 0.48584 0.0
C2323 C 0.91174 0.8032 0.45151 0.0
C2324 C 0.90356 0.80427 0.41763 0.0
C2325 C 0.88967 0.7956 0.41805 0.0
C2326 C 0.88394 0.78578 0.45231 0.0
C2327 C 0.89016 0.79835 0.69431 0.0
C2328 C 0.88217 0.81999 0.69868 0.0
C2329 C 0.88995 0.78542 0.65911 0.0
C2330 C 0.88181 0.79404 0.62775 0.0
C2331 C 0.87417 0.81611 0.63165 0.0
C2332 C 0.87423 0.82889 0.6671 0.0
C2333 C 0.88059 0.77905 0.59188 0.0
C2334 C 0.88632 0.78813 0.55699 0.0
C2335 C 0.87427 0.75539 0.59259 0.0
C2336 C 0.86763 0.74534 0.62846 0.0
C2337 C 0.85676 0.75839 0.64738 0.0
C2338 C 0.85075 0.74908 0.6816 0.0
C2339 C 0.85542 0.72661 0.697 0.0
C2340 C 0.86609 0.71338 0.67815 0.0
C2341 C 0.87217 0.72265 0.64397 0.0
H2342 H 0.85075 0.71942 0.72349 0.0
H2343 H 0.90797 0.81185 0.39108 0.0
H2344 H 0.40655 0.29461 0.91533 0.0
H2345 H 0.40879 0.26627 0.9711 0.0
H2346 H 0.36669 0.28522 0.00817 0.0
H2347 H 0.36418 0.31289 0.95227 0.0
H2348 H 0.39318 0.28838 0.06594 0.0
H2349 H 0.36558 0.23691 0.97502 0.0
H2350 H 0.36232 0.2163 0.91148 0.0
H2351 H 0.40133 0.17714 0.92714 0.0
H2352 H 0.40492 0.19785 0.99056 0.0
H2353 H 0.37078 0.21346 0.21841 0.0
H2354 H 0.37272 0.23719 0.15818 0.0
H2355 H 0.40301 0.18463 0.11376 0.0
H2356 H 0.4003 0.15985 0.17337 0.0
H2357 H 0.38647 0.19756 0.05733 0.0
H2358 H 0.41314 0.24228 0.15017 0.0
H2359 H 0.41855 0.26276 0.21265 0.0
H2360 H 0.38511 0.31485 0.19301 0.0
H2361 H 0.37935 0.29445 0.13065 0.0
C2362 C 0.39776 0.2926 0.93528 0.0
C2363 C 0.38518 0.30592 0.92941 0.0
C2364 C 0.39905 0.27643 0.96697 0.0
C2365 C 0.38789 0.27375 0.99349 0.0
C2366 C 0.37539 0.28708 0.98784 0.0
C2367 C 0.37397 0.30279 0.95583 0.0
C2368 C 0.38923 0.25756 0.02791 0.0
C2369 C 0.39165 0.26853 0.06428 0.0
C2370 C 0.38781 0.23165 0.02517 0.0
C2371 C 0.38561 0.21918 0.98721 0.0
C2372 C 0.37354 0.22413 0.9647 0.0
C2373 C 0.37161 0.21237 0.92877 0.0
C2374 C 0.38164 0.19549 0.91521 0.0
C2375 C 0.39359 0.19027 0.93763 0.0
C2376 C 0.39557 0.202 0.97356 0.0
C2377 C 0.37764 0.20672 0.19548 0.0
C2378 C 0.3853 0.18474 0.20029 0.0
C2379 C 0.37893 0.2205 0.16131 0.0
C2380 C 0.38825 0.21302 0.1317 0.0
C2381 C 0.39581 0.19086 0.13625 0.0
C2382 C 0.39432 0.1768 0.17029 0.0
C2383 C 0.38996 0.22841 0.09609 0.0
C2384 C 0.38819 0.21734 0.05932 0.0
C2385 C 0.3923 0.25426 0.09839 0.0
C2386 C 0.39576 0.26671 0.13581 0.0
C2387 C 0.40688 0.258 0.15927 0.0
C2388 C 0.41001 0.26961 0.19467 0.0
C2389 C 0.40216 0.29007 0.20682 0.0
C2390 C 0.39118 0.29899 0.18356 0.0
C2391 C 0.38799 0.28743 0.14816 0.0
H2392 H 0.4046 0.29902 0.23424 0.0
H2393 H 0.38012 0.1864 0.88739 0.0
H2394 H 0.109 0.84549 0.67104 0.0
H2395 H 0.10875 0.82465 0.60724 0.0
H2396 H 0.13785 0.76997 0.65093 0.0
H2397 H 0.13766 0.79004 0.71491 0.0
H2398 H 0.14461 0.79127 0.57418 0.0
H2399 H 0.10598 0.75434 0.64811 0.0
H2400 H 0.0838 0.75659 0.68558 0.0
H2401 H 0.06296 0.78987 0.5875 0.0
H2402 H 0.08511 0.78819 0.54966 0.0
H2403 H 0.14282 0.68989 0.44676 0.0
H2404 H 0.14283 0.71915 0.50081 0.0
H2405 H 0.10428 0.75165 0.45735 0.0
H2406 H 0.1038 0.72126 0.40448 0.0
H2407 H 0.10163 0.74713 0.52968 0.0
H2408 H 0.13838 0.78124 0.45234 0.0
H2409 H 0.1602 0.78181 0.41312 0.0
H2410 H 0.18414 0.7584 0.51286 0.0
H2411 H 0.16244 0.75736 0.55256 0.0
C2412 C 0.1153 0.829 0.66688 0.0
C2413 C 0.12346 0.81947 0.6976 0.0
C2414 C 0.1152 0.81722 0.63055 0.0
C2415 C 0.12335 0.79591 0.62449 0.0
C2416 C 0.13162 0.78656 0.65501 0.0
C2417 C 0.13154 0.79807 0.69141 0.0
C2418 C 0.12294 0.78263 0.58685 0.0
C2419 C 0.13526 0.78149 0.56435 0.0
C2420 C 0.11057 0.77071 0.57362 0.0
C2421 C 0.09724 0.77142 0.59624 0.0
C2422 C 0.0967 0.76234 0.63466 0.0
C2423 C 0.08413 0.76348 0.65595 0.0
C2424 C 0.07199 0.77344 0.63898 0.0
C2425 C 0.07238 0.7822 0.60064 0.0
C2426 C 0.08494 0.78116 0.57926 0.0
C2427 C 0.13443 0.70346 0.44851 0.0
C2428 C 0.12332 0.70335 0.42142 0.0
C2429 C 0.13449 0.72033 0.47931 0.0
C2430 C 0.1237 0.73803 0.4829 0.0
C2431 C 0.11273 0.73823 0.45529 0.0
C2432 C 0.11248 0.72092 0.42503 0.0
C2433 C 0.12345 0.75526 0.51674 0.0
C2434 C 0.11098 0.75717 0.53877 0.0
C2435 C 0.13564 0.76832 0.52907 0.0
C2436 C 0.14875 0.76907 0.50537 0.0
C2437 C 0.14828 0.77607 0.46586 0.0
C2438 C 0.16063 0.77649 0.44354 0.0
C2439 C 0.17354 0.7701 0.46047 0.0
C2440 C 0.17413 0.76334 0.49978 0.0
C2441 C 0.16181 0.76287 0.52222 0.0
H2442 H 0.18309 0.77043 0.44314 0.0
H2443 H 0.06227 0.7743 0.6555 0.0
H2444 H 0.40027 0.8018 0.7891 0.0
H2445 H 0.40067 0.7797 0.85105 0.0
H2446 H 0.3625 0.81702 0.88646 0.0
H2447 H 0.36261 0.84049 0.82517 0.0
H2448 H 0.37937 0.8123 0.94707 0.0
H2449 H 0.36182 0.75785 0.84955 0.0
H2450 H 0.36145 0.73579 0.78662 0.0
H2451 H 0.40003 0.69872 0.8165 0.0
H2452 H 0.40075 0.72086 0.87939 0.0
H2453 H 0.36201 0.71666 0.08767 0.0
H2454 H 0.36157 0.74542 0.0324 0.0
H2455 H 0.40396 0.72396 0.00168 0.0
H2456 H 0.40461 0.69549 0.05698 0.0
H2457 H 0.38338 0.72096 0.93987 0.0
H2458 H 0.40007 0.77749 0.03912 0.0
H2459 H 0.39872 0.7991 0.10234 0.0
H2460 H 0.35902 0.83113 0.0693 0.0
H2461 H 0.36004 0.80941 0.00605 0.0
C2462 C 0.39218 0.80582 0.81048 0.0
C2463 C 0.38145 0.82297 0.80247 0.0
C2464 C 0.39229 0.79288 0.84567 0.0
C2465 C 0.38145 0.79631 0.87311 0.0
C2466 C 0.37094 0.81398 0.86566 0.0
C2467 C 0.37095 0.82723 0.83061 0.0
C2468 C 0.38092 0.78079 0.9088 0.0
C2469 C 0.38006 0.79231 0.94545 0.0
C2470 C 0.38184 0.75468 0.90677 0.0
C2471 C 0.3814 0.74119 0.86906 0.0
C2472 C 0.37028 0.74513 0.84259 0.0
C2473 C 0.37 0.73259 0.80694 0.0
C2474 C 0.38073 0.71591 0.79753 0.0
C2475 C 0.39174 0.71167 0.82381 0.0
C2476 C 0.39208 0.72419 0.85948 0.0
C2477 C 0.3713 0.71826 0.06939 0.0
C2478 C 0.38334 0.70375 0.07665 0.0
C2479 C 0.37103 0.73473 0.03794 0.0
C2480 C 0.38273 0.73674 0.01309 0.0
C2481 C 0.39483 0.72262 0.02062 0.0
C2482 C 0.39519 0.70643 0.05231 0.0
C2483 C 0.38215 0.75252 0.97791 0.0
C2484 C 0.38269 0.74096 0.94136 0.0
C2485 C 0.38065 0.77847 0.98009 0.0
C2486 C 0.38006 0.7916 0.01803 0.0
C2487 C 0.39099 0.78895 0.04548 0.0
C2488 C 0.3903 0.80126 0.08128 0.0
C2489 C 0.37877 0.81642 0.08988 0.0
C2490 C 0.36793 0.81935 0.06263 0.0
C2491 C 0.36857 0.80706 0.02678 0.0
H2492 H 0.37825 0.82594 0.11762 0.0
H2493 H 0.38049 0.70622 0.76991 0.0
H2494 H 0.10928 0.15325 0.32782 0.0
H2495 H 0.10878 0.17462 0.39114 0.0
H2496 H 0.13815 0.22882 0.3473 0.0
H2497 H 0.13819 0.20825 0.28371 0.0
H2498 H 0.14435 0.20809 0.42532 0.0
H2499 H 0.10655 0.24488 0.34804 0.0
H2500 H 0.08473 0.24249 0.30901 0.0
H2501 H 0.06288 0.2101 0.40617 0.0
H2502 H 0.08467 0.21192 0.44556 0.0
H2503 H 0.14166 0.31046 0.5508 0.0
H2504 H 0.14206 0.28096 0.49705 0.0
H2505 H 0.10318 0.24869 0.53872 0.0
H2506 H 0.10235 0.27922 0.59131 0.0
H2507 H 0.10114 0.25304 0.46595 0.0
H2508 H 0.13703 0.2191 0.54644 0.0
H2509 H 0.15846 0.21863 0.58723 0.0
H2510 H 0.18341 0.24111 0.48886 0.0
H2511 H 0.1621 0.24206 0.44758 0.0
C2512 C 0.1156 0.16974 0.33184 0.0
C2513 C 0.12387 0.17902 0.30115 0.0
C2514 C 0.11536 0.18181 0.36791 0.0
C2515 C 0.1235 0.20315 0.37378 0.0
C2516 C 0.13192 0.2122 0.34336 0.0
C2517 C 0.13198 0.20041 0.30718 0.0
C2518 C 0.12283 0.21684 0.411 0.0
C2519 C 0.13496 0.21806 0.4343 0.0
C2520 C 0.11039 0.22902 0.4231 0.0
C2521 C 0.09727 0.22826 0.39957 0.0
C2522 C 0.09713 0.23705 0.36096 0.0
C2523 C 0.08476 0.23583 0.33879 0.0
C2524 C 0.07244 0.22608 0.35506 0.0
C2525 C 0.07245 0.2176 0.39358 0.0
C2526 C 0.08479 0.21873 0.41584 0.0
C2527 C 0.13327 0.29692 0.5487 0.0
C2528 C 0.12198 0.29711 0.57522 0.0
C2529 C 0.13355 0.27992 0.51808 0.0
C2530 C 0.12279 0.26221 0.51411 0.0
C2531 C 0.11162 0.26212 0.54109 0.0
C2532 C 0.11116 0.27953 0.57119 0.0
C2533 C 0.1228 0.24478 0.48054 0.0
C2534 C 0.11053 0.24284 0.45769 0.0
C2535 C 0.13505 0.23151 0.46931 0.0
C2536 C 0.14793 0.23082 0.49397 0.0
C2537 C 0.14707 0.2241 0.53355 0.0
C2538 C 0.1592 0.22372 0.55676 0.0
C2539 C 0.17228 0.22988 0.54066 0.0
C2540 C 0.17327 0.23636 0.50129 0.0
C2541 C 0.16117 0.23678 0.47796 0.0
H2542 H 0.18166 0.22958 0.55868 0.0
H2543 H 0.06288 0.22515 0.33785 0.0
loop_
_geom_bond_atom_site_label_1
_geom_bond_atom_site_label_2
_geom_bond_distance
_geom_bond_site_symmetry_2
_ccdc_geom_bond_type
Co0 O3 1.970 . S
Co0 N17 1.989 . S
Co0 O25 1.967 . S
Co0 O32 1.920 . S
Co1 O4 1.966 . S
Co1 N10 2.022 . S
Co1 N18 1.993 . S
Co1 O26 1.941 . S
C2 O3 1.258 . S
C2 O4 1.263 . S
O3 Co0 1.970 . S
O3 C2 1.258 . S
O4 Co1 1.966 . S
O4 C2 1.263 . S
C5 O6 1.235 . S
C5 O32 1.289 . S
O6 C5 1.235 . S
C7 C9 1.400 . S
C7 N10 1.351 . S
C7 C12 1.501 . S
C8 C9 1.387 . S
C8 N11 1.341 . S
C9 C7 1.400 . S
C9 C8 1.387 . S
N10 Co1 2.022 . S
N10 C7 1.351 . S
N10 N11 1.365 . S
N11 C8 1.341 . S
N11 N10 1.365 . S
N11 H31 0.862 . S
C12 C7 1.501 . S
C12 H13 0.961 . S
C12 H14 0.961 . S
C12 H15 0.960 . S
H13 C12 0.961 . S
H14 C12 0.961 . S
H15 C12 0.960 . S
C16 N17 1.342 . S
C16 C20 1.401 . S
C16 C21 1.499 . S
N17 Co0 1.989 . S
N17 C16 1.342 . S
N17 N18 1.388 . S
N18 Co1 1.993 . S
N18 N17 1.388 . S
N18 C19 1.346 . S
C19 N18 1.346 . S
C19 C20 1.396 . S
C19 C29 1.510 . S
C20 C16 1.401 . S
C20 C19 1.396 . S
C21 C16 1.499 . S
C21 H22 0.959 . S
C21 H23 0.960 . S
C21 H24 0.961 . S
H22 C21 0.959 . S
H23 C21 0.960 . S
H24 C21 0.961 . S
O25 Co0 1.967 . S
O25 C33 1.258 . S
O26 Co1 1.941 . S
O26 C33 1.266 . S
H27 C29 0.959 . S
H28 C29 0.961 . S
C29 C19 1.510 . S
C29 H27 0.959 . S
C29 H28 0.961 . S
C29 H30 0.960 . S
H30 C29 0.960 . S
H31 N11 0.862 . S
O32 Co0 1.920 . S
O32 C5 1.289 . S
C33 O25 1.258 . S
C33 O26 1.266 . S
Co34 O37 1.970 . S
Co34 N51 1.989 . S
Co34 O59 1.967 . S
Co34 O66 1.920 . S
Co35 O38 1.966 . S
Co35 N44 2.022 . S
Co35 N52 1.993 . S
Co35 O60 1.941 . S
C36 O37 1.258 . S
C36 O38 1.263 . S
O37 Co34 1.970 . S
O37 C36 1.258 . S
O38 Co35 1.966 . S
O38 C36 1.263 . S
C39 O40 1.235 . S
C39 O66 1.289 . S
O40 C39 1.235 . S
C41 C43 1.400 . S
C41 N44 1.351 . S
C41 C46 1.501 . S
C42 C43 1.387 . S
C42 N45 1.341 . S
C43 C41 1.400 . S
C43 C42 1.387 . S
N44 Co35 2.022 . S
N44 C41 1.351 . S
N44 N45 1.365 . S
N45 C42 1.341 . S
N45 N44 1.365 . S
N45 H65 0.862 . S
C46 C41 1.501 . S
C46 H47 0.961 . S
C46 H48 0.961 . S
C46 H49 0.960 . S
H47 C46 0.961 . S
H48 C46 0.961 . S
H49 C46 0.960 . S
C50 N51 1.342 . S
C50 C54 1.401 . S
C50 C55 1.499 . S
N51 Co34 1.989 . S
N51 C50 1.342 . S
N51 N52 1.388 . S
N52 Co35 1.993 . S
N52 N51 1.388 . S
N52 C53 1.346 . S
C53 N52 1.346 . S
C53 C54 1.396 . S
C53 C63 1.510 . S
C54 C50 1.401 . S
C54 C53 1.396 . S
C55 C50 1.499 . S
C55 H56 0.959 . S
C55 H57 0.960 . S
C55 H58 0.961 . S
H56 C55 0.959 . S
H57 C55 0.960 . S
H58 C55 0.961 . S
O59 Co34 1.967 . S
O59 C67 1.258 . S
O60 Co35 1.941 . S
O60 C67 1.266 . S
H61 C63 0.959 . S
H62 C63 0.961 . S
C63 C53 1.510 . S
C63 H61 0.959 . S
C63 H62 0.961 . S
C63 H64 0.960 . S
H64 C63 0.960 . S
H65 N45 0.862 . S
O66 Co34 1.920 . S
O66 C39 1.289 . S
C67 O59 1.258 . S
C67 O60 1.266 . S
Co68 O71 1.970 . S
Co68 N85 1.989 . S
Co68 O93 1.967 . S
Co68 O100 1.920 . S
Co69 O72 1.966 . S
Co69 N78 2.022 . S
Co69 N86 1.993 . S
Co69 O94 1.941 . S
C70 O71 1.258 . S
C70 O72 1.263 . S
O71 Co68 1.970 . S
O71 C70 1.258 . S
O72 Co69 1.966 . S
O72 C70 1.263 . S
C73 O74 1.235 . S
C73 O100 1.289 . S
O74 C73 1.235 . S
C75 C77 1.400 . S
C75 N78 1.351 . S
C75 C80 1.501 . S
C76 C77 1.387 . S
C76 N79 1.341 . S
C77 C75 1.400 . S
C77 C76 1.387 . S
N78 Co69 2.022 . S
N78 C75 1.351 . S
N78 N79 1.365 . S
N79 C76 1.341 . S
N79 N78 1.365 . S
N79 H99 0.862 . S
C80 C75 1.501 . S
C80 H81 0.961 . S
C80 H82 0.961 . S
C80 H83 0.960 . S
H81 C80 0.961 . S
H82 C80 0.961 . S
H83 C80 0.960 . S
C84 N85 1.342 . S
C84 C88 1.401 . S
C84 C89 1.499 . S
N85 Co68 1.989 . S
N85 C84 1.342 . S
N85 N86 1.388 . S
N86 Co69 1.993 . S
N86 N85 1.388 . S
N86 C87 1.346 . S
C87 N86 1.346 . S
C87 C88 1.396 . S
C87 C97 1.510 . S
C88 C84 1.401 . S
C88 C87 1.396 . S
C89 C84 1.499 . S
C89 H90 0.959 . S
C89 H91 0.960 . S
C89 H92 0.961 . S
H90 C89 0.959 . S
H91 C89 0.960 . S
H92 C89 0.961 . S
O93 Co68 1.967 . S
O93 C101 1.258 . S
O94 Co69 1.941 . S
O94 C101 1.266 . S
H95 C97 0.959 . S
H96 C97 0.961 . S
C97 C87 1.510 . S
C97 H95 0.959 . S
C97 H96 0.961 . S
C97 H98 0.960 . S
H98 C97 0.960 . S
H99 N79 0.862 . S
O100 Co68 1.920 . S
O100 C73 1.289 . S
C101 O93 1.258 . S
C101 O94 1.266 . S
Co102 O105 1.970 . S
Co102 N119 1.989 . S
Co102 O127 1.967 . S
Co102 O134 1.920 . S
Co103 O106 1.966 . S
Co103 N112 2.022 . S
Co103 N120 1.993 . S
Co103 O128 1.941 . S
C104 O105 1.258 . S
C104 O106 1.263 . S
O105 Co102 1.970 . S
O105 C104 1.258 . S
O106 Co103 1.966 . S
O106 C104 1.263 . S
C107 O108 1.235 . S
C107 O134 1.289 . S
O108 C107 1.235 . S
C109 C111 1.400 . S
C109 N112 1.351 . S
C109 C114 1.501 . S
C110 C111 1.387 . S
C110 N113 1.341 . S
C111 C109 1.400 . S
C111 C110 1.387 . S
N112 Co103 2.022 . S
N112 C109 1.351 . S
N112 N113 1.365 . S
N113 C110 1.341 . S
N113 N112 1.365 . S
N113 H133 0.862 . S
C114 C109 1.501 . S
C114 H115 0.961 . S
C114 H116 0.961 . S
C114 H117 0.960 . S
H115 C114 0.961 . S
H116 C114 0.961 . S
H117 C114 0.960 . S
C118 N119 1.342 . S
C118 C122 1.401 . S
C118 C123 1.499 . S
N119 Co102 1.989 . S
N119 C118 1.342 . S
N119 N120 1.388 . S
N120 Co103 1.993 . S
N120 N119 1.388 . S
N120 C121 1.346 . S
C121 N120 1.346 . S
C121 C122 1.396 . S
C121 C131 1.510 . S
C122 C118 1.401 . S
C122 C121 1.396 . S
C123 C118 1.499 . S
C123 H124 0.959 . S
C123 H125 0.960 . S
C123 H126 0.961 . S
H124 C123 0.959 . S
H125 C123 0.960 . S
H126 C123 0.961 . S
O127 Co102 1.967 . S
O127 C135 1.258 . S
O128 Co103 1.941 . S
O128 C135 1.266 . S
H129 C131 0.959 . S
H130 C131 0.961 . S
C131 C121 1.510 . S
C131 H129 0.959 . S
C131 H130 0.961 . S
C131 H132 0.960 . S
H132 C131 0.960 . S
H133 N113 0.862 . S
O134 Co102 1.920 . S
O134 C107 1.289 . S
C135 O127 1.258 . S
C135 O128 1.266 . S
Co136 O139 1.970 . S
Co136 N153 1.989 . S
Co136 O161 1.967 . S
Co136 O168 1.920 . S
Co137 O140 1.966 . S
Co137 N146 2.022 . S
Co137 N154 1.993 . S
Co137 O162 1.941 . S
C138 O139 1.258 . S
C138 O140 1.263 . S
O139 Co136 1.970 . S
O139 C138 1.258 . S
O140 Co137 1.966 . S
O140 C138 1.263 . S
C141 O142 1.235 . S
C141 O168 1.289 . S
O142 C141 1.235 . S
C143 C145 1.400 . S
C143 N146 1.351 . S
C143 C148 1.501 . S
C144 C145 1.387 . S
C144 N147 1.341 . S
C145 C143 1.400 . S
C145 C144 1.387 . S
N146 Co137 2.022 . S
N146 C143 1.351 . S
N146 N147 1.365 . S
N147 C144 1.341 . S
N147 N146 1.365 . S
N147 H167 0.862 . S
C148 C143 1.501 . S
C148 H149 0.961 . S
C148 H150 0.961 . S
C148 H151 0.960 . S
H149 C148 0.961 . S
H150 C148 0.961 . S
H151 C148 0.960 . S
C152 N153 1.342 . S
C152 C156 1.401 . S
C152 C157 1.499 . S
N153 Co136 1.989 . S
N153 C152 1.342 . S
N153 N154 1.388 . S
N154 Co137 1.993 . S
N154 N153 1.388 . S
N154 C155 1.346 . S
C155 N154 1.346 . S
C155 C156 1.396 . S
C155 C165 1.510 . S
C156 C152 1.401 . S
C156 C155 1.396 . S
C157 C152 1.499 . S
C157 H158 0.959 . S
C157 H159 0.960 . S
C157 H160 0.961 . S
H158 C157 0.959 . S
H159 C157 0.960 . S
H160 C157 0.961 . S
O161 Co136 1.967 . S
O161 C169 1.258 . S
O162 Co137 1.941 . S
O162 C169 1.266 . S
H163 C165 0.959 . S
H164 C165 0.961 . S
C165 C155 1.510 . S
C165 H163 0.959 . S
C165 H164 0.961 . S
C165 H166 0.960 . S
H166 C165 0.960 . S
H167 N147 0.862 . S
O168 Co136 1.920 . S
O168 C141 1.289 . S
C169 O161 1.258 . S
C169 O162 1.266 . S
Co170 O173 1.970 . S
Co170 N187 1.989 . S
Co170 O195 1.967 . S
Co170 O202 1.920 . S
Co171 O174 1.966 . S
Co171 N180 2.022 . S
Co171 N188 1.993 . S
Co171 O196 1.941 . S
C172 O173 1.258 . S
C172 O174 1.263 . S
O173 Co170 1.970 . S
O173 C172 1.258 . S
O174 Co171 1.966 . S
O174 C172 1.263 . S
C175 O176 1.235 . S
C175 O202 1.289 . S
O176 C175 1.235 . S
C177 C179 1.400 . S
C177 N180 1.351 . S
C177 C182 1.501 . S
C178 C179 1.387 . S
C178 N181 1.341 . S
C179 C177 1.400 . S
C179 C178 1.387 . S
N180 Co171 2.022 . S
N180 C177 1.351 . S
N180 N181 1.365 . S
N181 C178 1.341 . S
N181 N180 1.365 . S
N181 H201 0.862 . S
C182 C177 1.501 . S
C182 H183 0.961 . S
C182 H184 0.961 . S
C182 H185 0.960 . S
H183 C182 0.961 . S
H184 C182 0.961 . S
H185 C182 0.960 . S
C186 N187 1.342 . S
C186 C190 1.401 . S
C186 C191 1.499 . S
N187 Co170 1.989 . S
N187 C186 1.342 . S
N187 N188 1.388 . S
N188 Co171 1.993 . S
N188 N187 1.388 . S
N188 C189 1.346 . S
C189 N188 1.346 . S
C189 C190 1.396 . S
C189 C199 1.510 . S
C190 C186 1.401 . S
C190 C189 1.396 . S
C191 C186 1.499 . S
C191 H192 0.959 . S
C191 H193 0.960 . S
C191 H194 0.961 . S
H192 C191 0.959 . S
H193 C191 0.960 . S
H194 C191 0.961 . S
O195 Co170 1.967 . S
O195 C203 1.258 . S
O196 Co171 1.941 . S
O196 C203 1.266 . S
H197 C199 0.959 . S
H198 C199 0.961 . S
C199 C189 1.510 . S
C199 H197 0.959 . S
C199 H198 0.961 . S
C199 H200 0.960 . S
H200 C199 0.960 . S
H201 N181 0.862 . S
O202 Co170 1.920 . S
O202 C175 1.289 . S
C203 O195 1.258 . S
C203 O196 1.266 . S
Co204 O207 1.970 . S
Co204 N221 1.989 . S
Co204 O229 1.967 . S
Co204 O236 1.920 . S
Co205 O208 1.966 . S
Co205 N214 2.022 . S
Co205 N222 1.993 . S
Co205 O230 1.941 . S
C206 O207 1.258 . S
C206 O208 1.263 . S
O207 Co204 1.970 . S
O207 C206 1.258 . S
O208 Co205 1.966 . S
O208 C206 1.263 . S
C209 O210 1.235 . S
C209 O236 1.289 . S
O210 C209 1.235 . S
C211 C213 1.400 . S
C211 N214 1.351 . S
C211 C216 1.501 . S
C212 C213 1.387 . S
C212 N215 1.341 . S
C213 C211 1.400 . S
C213 C212 1.387 . S
N214 Co205 2.022 . S
N214 C211 1.351 . S
N214 N215 1.365 . S
N215 C212 1.341 . S
N215 N214 1.365 . S
N215 H235 0.862 . S
C216 C211 1.501 . S
C216 H217 0.961 . S
C216 H218 0.961 . S
C216 H219 0.960 . S
H217 C216 0.961 . S
H218 C216 0.961 . S
H219 C216 0.960 . S
C220 N221 1.342 . S
C220 C224 1.401 . S
C220 C225 1.499 . S
N221 Co204 1.989 . S
N221 C220 1.342 . S
N221 N222 1.388 . S
N222 Co205 1.993 . S
N222 N221 1.388 . S
N222 C223 1.346 . S
C223 N222 1.346 . S
C223 C224 1.396 . S
C223 C233 1.510 . S
C224 C220 1.401 . S
C224 C223 1.396 . S
C225 C220 1.499 . S
C225 H226 0.959 . S
C225 H227 0.960 . S
C225 H228 0.961 . S
H226 C225 0.959 . S
H227 C225 0.960 . S
H228 C225 0.961 . S
O229 Co204 1.967 . S
O229 C237 1.258 . S
O230 Co205 1.941 . S
O230 C237 1.266 . S
H231 C233 0.959 . S
H232 C233 0.961 . S
C233 C223 1.510 . S
C233 H231 0.959 . S
C233 H232 0.961 . S
C233 H234 0.960 . S
H234 C233 0.960 . S
H235 N215 0.862 . S
O236 Co204 1.920 . S
O236 C209 1.289 . S
C237 O229 1.258 . S
C237 O230 1.266 . S
Co238 O241 1.970 . S
Co238 N255 1.989 . S
Co238 O263 1.967 . S
Co238 O270 1.920 . S
Co239 O242 1.966 . S
Co239 N248 2.022 . S
Co239 N256 1.993 . S
Co239 O264 1.941 . S
C240 O241 1.258 . S
C240 O242 1.263 . S
O241 Co238 1.970 . S
O241 C240 1.258 . S
O242 Co239 1.966 . S
O242 C240 1.263 . S
C243 O244 1.235 . S
C243 O270 1.289 . S
O244 C243 1.235 . S
C245 C247 1.400 . S
C245 N248 1.351 . S
C245 C250 1.501 . S
C246 C247 1.387 . S
C246 N249 1.341 . S
C247 C245 1.400 . S
C247 C246 1.387 . S
N248 Co239 2.022 . S
N248 C245 1.351 . S
N248 N249 1.365 . S
N249 C246 1.341 . S
N249 N248 1.365 . S
N249 H269 0.862 . S
C250 C245 1.501 . S
C250 H251 0.961 . S
C250 H252 0.961 . S
C250 H253 0.960 . S
H251 C250 0.961 . S
H252 C250 0.961 . S
H253 C250 0.960 . S
C254 N255 1.342 . S
C254 C258 1.401 . S
C254 C259 1.499 . S
N255 Co238 1.989 . S
N255 C254 1.342 . S
N255 N256 1.388 . S
N256 Co239 1.993 . S
N256 N255 1.388 . S
N256 C257 1.346 . S
C257 N256 1.346 . S
C257 C258 1.396 . S
C257 C267 1.510 . S
C258 C254 1.401 . S
C258 C257 1.396 . S
C259 C254 1.499 . S
C259 H260 0.959 . S
C259 H261 0.960 . S
C259 H262 0.961 . S
H260 C259 0.959 . S
H261 C259 0.960 . S
H262 C259 0.961 . S
O263 Co238 1.967 . S
O263 C271 1.258 . S
O264 Co239 1.941 . S
O264 C271 1.266 . S
H265 C267 0.959 . S
H266 C267 0.961 . S
C267 C257 1.510 . S
C267 H265 0.959 . S
C267 H266 0.961 . S
C267 H268 0.960 . S
H268 C267 0.960 . S
H269 N249 0.862 . S
O270 Co238 1.920 . S
O270 C243 1.289 . S
C271 O263 1.258 . S
C271 O264 1.266 . S
Co272 O275 1.970 . S
Co272 N289 1.989 . S
Co272 O297 1.967 . S
Co272 O304 1.920 . S
Co273 O276 1.966 . S
Co273 N282 2.022 . S
Co273 N290 1.993 . S
Co273 O298 1.941 . S
C274 O275 1.258 . S
C274 O276 1.263 . S
O275 Co272 1.970 . S
O275 C274 1.258 . S
O276 Co273 1.966 . S
O276 C274 1.263 . S
C277 O278 1.235 . S
C277 O304 1.289 . S
O278 C277 1.235 . S
C279 C281 1.400 . S
C279 N282 1.351 . S
C279 C284 1.501 . S
C280 C281 1.387 . S
C280 N283 1.341 . S
C281 C279 1.400 . S
C281 C280 1.387 . S
N282 Co273 2.022 . S
N282 C279 1.351 . S
N282 N283 1.365 . S
N283 C280 1.341 . S
N283 N282 1.365 . S
N283 H303 0.862 . S
C284 C279 1.501 . S
C284 H285 0.961 . S
C284 H286 0.961 . S
C284 H287 0.960 . S
H285 C284 0.961 . S
H286 C284 0.961 . S
H287 C284 0.960 . S
C288 N289 1.342 . S
C288 C292 1.401 . S
C288 C293 1.499 . S
N289 Co272 1.989 . S
N289 C288 1.342 . S
N289 N290 1.388 . S
N290 Co273 1.993 . S
N290 N289 1.388 . S
N290 C291 1.346 . S
C291 N290 1.346 . S
C291 C292 1.396 . S
C291 C301 1.510 . S
C292 C288 1.401 . S
C292 C291 1.396 . S
C293 C288 1.499 . S
C293 H294 0.959 . S
C293 H295 0.960 . S
C293 H296 0.961 . S
H294 C293 0.959 . S
H295 C293 0.960 . S
H296 C293 0.961 . S
O297 Co272 1.967 . S
O297 C305 1.258 . S
O298 Co273 1.941 . S
O298 C305 1.266 . S
H299 C301 0.959 . S
H300 C301 0.961 . S
C301 C291 1.510 . S
C301 H299 0.959 . S
C301 H300 0.961 . S
C301 H302 0.960 . S
H302 C301 0.960 . S
H303 N283 0.862 . S
O304 Co272 1.920 . S
O304 C277 1.289 . S
C305 O297 1.258 . S
C305 O298 1.266 . S
Co306 O309 1.970 . S
Co306 N323 1.989 . S
Co306 O331 1.967 . S
Co306 O338 1.920 . S
Co307 O310 1.966 . S
Co307 N316 2.022 . S
Co307 N324 1.993 . S
Co307 O332 1.941 . S
C308 O309 1.258 . S
C308 O310 1.263 . S
O309 Co306 1.970 . S
O309 C308 1.258 . S
O310 Co307 1.966 . S
O310 C308 1.263 . S
C311 O312 1.235 . S
C311 O338 1.289 . S
O312 C311 1.235 . S
C313 C315 1.400 . S
C313 N316 1.351 . S
C313 C318 1.501 . S
C314 C315 1.387 . S
C314 N317 1.341 . S
C315 C313 1.400 . S
C315 C314 1.387 . S
N316 Co307 2.022 . S
N316 C313 1.351 . S
N316 N317 1.365 . S
N317 C314 1.341 . S
N317 N316 1.365 . S
N317 H337 0.862 . S
C318 C313 1.501 . S
C318 H319 0.961 . S
C318 H320 0.961 . S
C318 H321 0.960 . S
H319 C318 0.961 . S
H320 C318 0.961 . S
H321 C318 0.960 . S
C322 N323 1.342 . S
C322 C326 1.401 . S
C322 C327 1.499 . S
N323 Co306 1.989 . S
N323 C322 1.342 . S
N323 N324 1.388 . S
N324 Co307 1.993 . S
N324 N323 1.388 . S
N324 C325 1.346 . S
C325 N324 1.346 . S
C325 C326 1.396 . S
C325 C335 1.510 . S
C326 C322 1.401 . S
C326 C325 1.396 . S
C327 C322 1.499 . S
C327 H328 0.959 . S
C327 H329 0.960 . S
C327 H330 0.961 . S
H328 C327 0.959 . S
H329 C327 0.960 . S
H330 C327 0.961 . S
O331 Co306 1.967 . S
O331 C339 1.258 . S
O332 Co307 1.941 . S
O332 C339 1.266 . S
H333 C335 0.959 . S
H334 C335 0.961 . S
C335 C325 1.510 . S
C335 H333 0.959 . S
C335 H334 0.961 . S
C335 H336 0.960 . S
H336 C335 0.960 . S
H337 N317 0.862 . S
O338 Co306 1.920 . S
O338 C311 1.289 . S
C339 O331 1.258 . S
C339 O332 1.266 . S
Co340 O343 1.970 . S
Co340 N357 1.989 . S
Co340 O365 1.967 . S
Co340 O372 1.920 . S
Co341 O344 1.966 . S
Co341 N350 2.022 . S
Co341 N358 1.993 . S
Co341 O366 1.941 . S
C342 O343 1.258 . S
C342 O344 1.263 . S
O343 Co340 1.970 . S
O343 C342 1.258 . S
O344 Co341 1.966 . S
O344 C342 1.263 . S
C345 O346 1.235 . S
C345 O372 1.289 . S
O346 C345 1.235 . S
C347 C349 1.400 . S
C347 N350 1.351 . S
C347 C352 1.501 . S
C348 C349 1.387 . S
C348 N351 1.341 . S
C349 C347 1.400 . S
C349 C348 1.387 . S
N350 Co341 2.022 . S
N350 C347 1.351 . S
N350 N351 1.365 . S
N351 C348 1.341 . S
N351 N350 1.365 . S
N351 H371 0.862 . S
C352 C347 1.501 . S
C352 H353 0.961 . S
C352 H354 0.961 . S
C352 H355 0.960 . S
H353 C352 0.961 . S
H354 C352 0.961 . S
H355 C352 0.960 . S
C356 N357 1.342 . S
C356 C360 1.401 . S
C356 C361 1.499 . S
N357 Co340 1.989 . S
N357 C356 1.342 . S
N357 N358 1.388 . S
N358 Co341 1.993 . S
N358 N357 1.388 . S
N358 C359 1.346 . S
C359 N358 1.346 . S
C359 C360 1.396 . S
C359 C369 1.510 . S
C360 C356 1.401 . S
C360 C359 1.396 . S
C361 C356 1.499 . S
C361 H362 0.959 . S
C361 H363 0.960 . S
C361 H364 0.961 . S
H362 C361 0.959 . S
H363 C361 0.960 . S
H364 C361 0.961 . S
O365 Co340 1.967 . S
O365 C373 1.258 . S
O366 Co341 1.941 . S
O366 C373 1.266 . S
H367 C369 0.959 . S
H368 C369 0.961 . S
C369 C359 1.510 . S
C369 H367 0.959 . S
C369 H368 0.961 . S
C369 H370 0.960 . S
H370 C369 0.960 . S
H371 N351 0.862 . S
O372 Co340 1.920 . S
O372 C345 1.289 . S
C373 O365 1.258 . S
C373 O366 1.266 . S
Co374 O377 1.970 . S
Co374 N391 1.989 . S
Co374 O399 1.967 . S
Co374 O406 1.920 . S
Co375 O378 1.966 . S
Co375 N384 2.022 . S
Co375 N392 1.993 . S
Co375 O400 1.941 . S
C376 O377 1.258 . S
C376 O378 1.263 . S
O377 Co374 1.970 . S
O377 C376 1.258 . S
O378 Co375 1.966 . S
O378 C376 1.263 . S
C379 O380 1.235 . S
C379 O406 1.289 . S
O380 C379 1.235 . S
C381 C383 1.400 . S
C381 N384 1.351 . S
C381 C386 1.501 . S
C382 C383 1.387 . S
C382 N385 1.341 . S
C383 C381 1.400 . S
C383 C382 1.387 . S
N384 Co375 2.022 . S
N384 C381 1.351 . S
N384 N385 1.365 . S
N385 C382 1.341 . S
N385 N384 1.365 . S
N385 H405 0.862 . S
C386 C381 1.501 . S
C386 H387 0.961 . S
C386 H388 0.961 . S
C386 H389 0.960 . S
H387 C386 0.961 . S
H388 C386 0.961 . S
H389 C386 0.960 . S
C390 N391 1.342 . S
C390 C394 1.401 . S
C390 C395 1.499 . S
N391 Co374 1.989 . S
N391 C390 1.342 . S
N391 N392 1.388 . S
N392 Co375 1.993 . S
N392 N391 1.388 . S
N392 C393 1.346 . S
C393 N392 1.346 . S
C393 C394 1.396 . S
C393 C403 1.510 . S
C394 C390 1.401 . S
C394 C393 1.396 . S
C395 C390 1.499 . S
C395 H396 0.959 . S
C395 H397 0.960 . S
C395 H398 0.961 . S
H396 C395 0.959 . S
H397 C395 0.960 . S
H398 C395 0.961 . S
O399 Co374 1.967 . S
O399 C407 1.258 . S
O400 Co375 1.941 . S
O400 C407 1.266 . S
H401 C403 0.959 . S
H402 C403 0.961 . S
C403 C393 1.510 . S
C403 H401 0.959 . S
C403 H402 0.961 . S
C403 H404 0.960 . S
H404 C403 0.960 . S
H405 N385 0.862 . S
O406 Co374 1.920 . S
O406 C379 1.289 . S
C407 O399 1.258 . S
C407 O400 1.266 . S
Co408 O411 1.970 . S
Co408 N425 1.989 . S
Co408 O433 1.967 . S
Co408 O440 1.920 . S
Co409 O412 1.966 . S
Co409 N418 2.022 . S
Co409 N426 1.993 . S
Co409 O434 1.941 . S
C410 O411 1.258 . S
C410 O412 1.263 . S
O411 Co408 1.970 . S
O411 C410 1.258 . S
O412 Co409 1.966 . S
O412 C410 1.263 . S
C413 O414 1.235 . S
C413 O440 1.289 . S
O414 C413 1.235 . S
C415 C417 1.400 . S
C415 N418 1.351 . S
C415 C420 1.501 . S
C416 C417 1.387 . S
C416 N419 1.341 . S
C417 C415 1.400 . S
C417 C416 1.387 . S
N418 Co409 2.022 . S
N418 C415 1.351 . S
N418 N419 1.365 . S
N419 C416 1.341 . S
N419 N418 1.365 . S
N419 H439 0.862 . S
C420 C415 1.501 . S
C420 H421 0.961 . S
C420 H422 0.961 . S
C420 H423 0.960 . S
H421 C420 0.961 . S
H422 C420 0.961 . S
H423 C420 0.960 . S
C424 N425 1.342 . S
C424 C428 1.401 . S
C424 C429 1.499 . S
N425 Co408 1.989 . S
N425 C424 1.342 . S
N425 N426 1.388 . S
N426 Co409 1.993 . S
N426 N425 1.388 . S
N426 C427 1.346 . S
C427 N426 1.346 . S
C427 C428 1.396 . S
C427 C437 1.510 . S
C428 C424 1.401 . S
C428 C427 1.396 . S
C429 C424 1.499 . S
C429 H430 0.959 . S
C429 H431 0.960 . S
C429 H432 0.961 . S
H430 C429 0.959 . S
H431 C429 0.960 . S
H432 C429 0.961 . S
O433 Co408 1.967 . S
O433 C441 1.258 . S
O434 Co409 1.941 . S
O434 C441 1.266 . S
H435 C437 0.959 . S
H436 C437 0.961 . S
C437 C427 1.510 . S
C437 H435 0.959 . S
C437 H436 0.961 . S
C437 H438 0.960 . S
H438 C437 0.960 . S
H439 N419 0.862 . S
O440 Co408 1.920 . S
O440 C413 1.289 . S
C441 O433 1.258 . S
C441 O434 1.266 . S
Co442 O445 1.970 . S
Co442 N459 1.989 . S
Co442 O467 1.967 . S
Co442 O474 1.920 . S
Co443 O446 1.966 . S
Co443 N452 2.022 . S
Co443 N460 1.993 . S
Co443 O468 1.941 . S
C444 O445 1.258 . S
C444 O446 1.263 . S
O445 Co442 1.970 . S
O445 C444 1.258 . S
O446 Co443 1.966 . S
O446 C444 1.263 . S
C447 O448 1.235 . S
C447 O474 1.289 . S
O448 C447 1.235 . S
C449 C451 1.400 . S
C449 N452 1.351 . S
C449 C454 1.501 . S
C450 C451 1.387 . S
C450 N453 1.341 . S
C451 C449 1.400 . S
C451 C450 1.387 . S
N452 Co443 2.022 . S
N452 C449 1.351 . S
N452 N453 1.365 . S
N453 C450 1.341 . S
N453 N452 1.365 . S
N453 H473 0.862 . S
C454 C449 1.501 . S
C454 H455 0.961 . S
C454 H456 0.961 . S
C454 H457 0.960 . S
H455 C454 0.961 . S
H456 C454 0.961 . S
H457 C454 0.960 . S
C458 N459 1.342 . S
C458 C462 1.401 . S
C458 C463 1.499 . S
N459 Co442 1.989 . S
N459 C458 1.342 . S
N459 N460 1.388 . S
N460 Co443 1.993 . S
N460 N459 1.388 . S
N460 C461 1.346 . S
C461 N460 1.346 . S
C461 C462 1.396 . S
C461 C471 1.510 . S
C462 C458 1.401 . S
C462 C461 1.396 . S
C463 C458 1.499 . S
C463 H464 0.959 . S
C463 H465 0.960 . S
C463 H466 0.961 . S
H464 C463 0.959 . S
H465 C463 0.960 . S
H466 C463 0.961 . S
O467 Co442 1.967 . S
O467 C475 1.258 . S
O468 Co443 1.941 . S
O468 C475 1.266 . S
H469 C471 0.959 . S
H470 C471 0.961 . S
C471 C461 1.510 . S
C471 H469 0.959 . S
C471 H470 0.961 . S
C471 H472 0.960 . S
H472 C471 0.960 . S
H473 N453 0.862 . S
O474 Co442 1.920 . S
O474 C447 1.289 . S
C475 O467 1.258 . S
C475 O468 1.266 . S
Co476 O479 1.970 . S
Co476 N493 1.989 . S
Co476 O501 1.967 . S
Co476 O508 1.920 . S
Co477 O480 1.966 . S
Co477 N486 2.022 . S
Co477 N494 1.993 . S
Co477 O502 1.941 . S
C478 O479 1.258 . S
C478 O480 1.263 . S
O479 Co476 1.970 . S
O479 C478 1.258 . S
O480 Co477 1.966 . S
O480 C478 1.263 . S
C481 O482 1.235 . S
C481 O508 1.289 . S
O482 C481 1.235 . S
C483 C485 1.400 . S
C483 N486 1.351 . S
C483 C488 1.501 . S
C484 C485 1.387 . S
C484 N487 1.341 . S
C485 C483 1.400 . S
C485 C484 1.387 . S
N486 Co477 2.022 . S
N486 C483 1.351 . S
N486 N487 1.365 . S
N487 C484 1.341 . S
N487 N486 1.365 . S
N487 H507 0.862 . S
C488 C483 1.501 . S
C488 H489 0.961 . S
C488 H490 0.961 . S
C488 H491 0.960 . S
H489 C488 0.961 . S
H490 C488 0.961 . S
H491 C488 0.960 . S
C492 N493 1.342 . S
C492 C496 1.401 . S
C492 C497 1.499 . S
N493 Co476 1.989 . S
N493 C492 1.342 . S
N493 N494 1.388 . S
N494 Co477 1.993 . S
N494 N493 1.388 . S
N494 C495 1.346 . S
C495 N494 1.346 . S
C495 C496 1.396 . S
C495 C505 1.510 . S
C496 C492 1.401 . S
C496 C495 1.396 . S
C497 C492 1.499 . S
C497 H498 0.959 . S
C497 H499 0.960 . S
C497 H500 0.961 . S
H498 C497 0.959 . S
H499 C497 0.960 . S
H500 C497 0.961 . S
O501 Co476 1.967 . S
O501 C509 1.258 . S
O502 Co477 1.941 . S
O502 C509 1.266 . S
H503 C505 0.959 . S
H504 C505 0.961 . S
C505 C495 1.510 . S
C505 H503 0.959 . S
C505 H504 0.961 . S
C505 H506 0.960 . S
H506 C505 0.960 . S
H507 N487 0.862 . S
O508 Co476 1.920 . S
O508 C481 1.289 . S
C509 O501 1.258 . S
C509 O502 1.266 . S
Co510 O513 1.970 . S
Co510 N527 1.989 . S
Co510 O535 1.967 . S
Co510 O542 1.920 . S
Co511 O514 1.966 . S
Co511 N520 2.022 . S
Co511 N528 1.993 . S
Co511 O536 1.941 . S
C512 O513 1.258 . S
C512 O514 1.263 . S
O513 Co510 1.970 . S
O513 C512 1.258 . S
O514 Co511 1.966 . S
O514 C512 1.263 . S
C515 O516 1.235 . S
C515 O542 1.289 . S
O516 C515 1.235 . S
C517 C519 1.400 . S
C517 N520 1.351 . S
C517 C522 1.501 . S
C518 C519 1.387 . S
C518 N521 1.341 . S
C519 C517 1.400 . S
C519 C518 1.387 . S
N520 Co511 2.022 . S
N520 C517 1.351 . S
N520 N521 1.365 . S
N521 C518 1.341 . S
N521 N520 1.365 . S
N521 H541 0.862 . S
C522 C517 1.501 . S
C522 H523 0.961 . S
C522 H524 0.961 . S
C522 H525 0.960 . S
H523 C522 0.961 . S
H524 C522 0.961 . S
H525 C522 0.960 . S
C526 N527 1.342 . S
C526 C530 1.401 . S
C526 C531 1.499 . S
N527 Co510 1.989 . S
N527 C526 1.342 . S
N527 N528 1.388 . S
N528 Co511 1.993 . S
N528 N527 1.388 . S
N528 C529 1.346 . S
C529 N528 1.346 . S
C529 C530 1.396 . S
C529 C539 1.510 . S
C530 C526 1.401 . S
C530 C529 1.396 . S
C531 C526 1.499 . S
C531 H532 0.959 . S
C531 H533 0.960 . S
C531 H534 0.961 . S
H532 C531 0.959 . S
H533 C531 0.960 . S
H534 C531 0.961 . S
O535 Co510 1.967 . S
O535 C543 1.258 . S
O536 Co511 1.941 . S
O536 C543 1.266 . S
H537 C539 0.959 . S
H538 C539 0.961 . S
C539 C529 1.510 . S
C539 H537 0.959 . S
C539 H538 0.961 . S
C539 H540 0.960 . S
H540 C539 0.960 . S
H541 N521 0.862 . S
O542 Co510 1.920 . S
O542 C515 1.289 . S
C543 O535 1.258 . S
C543 O536 1.266 . S
H544 C562 0.951 . S
H545 C564 0.951 . S
H546 C566 0.950 . S
H547 C567 0.950 . S
H548 C569 0.950 . S
H549 C572 0.950 . S
H550 C573 0.950 . S
H551 C575 0.950 . S
H552 C576 0.950 . S
H553 C577 0.951 . S
H554 C579 0.951 . S
H555 C581 0.950 . S
H556 C582 0.950 . S
H557 C584 0.950 . S
H558 C587 0.950 . S
H559 C588 0.950 . S
H560 C590 0.950 . S
H561 C591 0.950 . S
C562 H544 0.951 . S
C562 C563 1.366 . S
C562 C564 1.388 . S
C563 C562 1.366 . S
C563 C567 1.385 . S
C564 H545 0.951 . S
C564 C562 1.388 . S
C564 C565 1.366 . S
C565 C564 1.366 . S
C565 C566 1.414 . S
C565 C568 1.499 . S
C566 H546 0.950 . S
C566 C565 1.414 . S
C566 C567 1.374 . S
C567 H547 0.950 . S
C567 C563 1.385 . S
C567 C566 1.374 . S
C568 C565 1.499 . S
C568 C569 1.373 . S
C568 C570 1.389 . S
C569 H548 0.950 . S
C569 C568 1.373 . S
C569 C585 1.377 . S
C570 C568 1.389 . S
C570 C571 1.524 . S
C570 C584 1.377 . S
C571 C570 1.524 . S
C571 C572 1.397 . S
C571 C576 1.363 . S
C572 H549 0.950 . S
C572 C571 1.397 . S
C572 C573 1.334 . S
C573 H550 0.950 . S
C573 C572 1.334 . S
C573 C574 1.287 . S
C574 C573 1.287 . S
C574 C575 1.524 . S
C574 H593 0.913 . S
C575 H551 0.950 . S
C575 C574 1.524 . S
C575 C576 1.415 . S
C576 H552 0.950 . S
C576 C571 1.363 . S
C576 C575 1.415 . S
C577 H553 0.951 . S
C577 C578 1.366 . S
C577 C579 1.388 . S
C578 C577 1.366 . S
C578 C582 1.385 . S
C579 H554 0.951 . S
C579 C577 1.388 . S
C579 C580 1.366 . S
C580 C579 1.366 . S
C580 C581 1.414 . S
C580 C583 1.499 . S
C581 H555 0.950 . S
C581 C580 1.414 . S
C581 C582 1.374 . S
C582 H556 0.950 . S
C582 C578 1.385 . S
C582 C581 1.374 . S
C583 C580 1.499 . S
C583 C584 1.373 . S
C583 C585 1.389 . S
C584 H557 0.950 . S
C584 C570 1.377 . S
C584 C583 1.373 . S
C585 C569 1.377 . S
C585 C583 1.389 . S
C585 C586 1.524 . S
C586 C585 1.524 . S
C586 C587 1.397 . S
C586 C591 1.363 . S
C587 H558 0.950 . S
C587 C586 1.397 . S
C587 C588 1.334 . S
C588 H559 0.950 . S
C588 C587 1.334 . S
C588 C589 1.287 . S
C589 C588 1.287 . S
C589 C590 1.524 . S
C589 H592 0.999 . S
C590 H560 0.950 . S
C590 C589 1.524 . S
C590 C591 1.415 . S
C591 H561 0.950 . S
C591 C586 1.363 . S
C591 C590 1.415 . S
H592 C589 0.999 . S
H593 C574 0.913 . S
H594 C612 0.951 . S
H595 C614 0.951 . S
H596 C616 0.950 . S
H597 C617 0.950 . S
H598 C619 0.950 . S
H599 C622 0.950 . S
H600 C623 0.950 . S
H601 C625 0.950 . S
H602 C626 0.950 . S
H603 C627 0.951 . S
H604 C629 0.951 . S
H605 C631 0.950 . S
H606 C632 0.950 . S
H607 C634 0.950 . S
H608 C637 0.950 . S
H609 C638 0.950 . S
H610 C640 0.950 . S
H611 C641 0.950 . S
C612 H594 0.951 . S
C612 C613 1.366 . S
C612 C614 1.388 . S
C613 C612 1.366 . S
C613 C617 1.385 . S
C614 H595 0.951 . S
C614 C612 1.388 . S
C614 C615 1.366 . S
C615 C614 1.366 . S
C615 C616 1.414 . S
C615 C618 1.499 . S
C616 H596 0.950 . S
C616 C615 1.414 . S
C616 C617 1.374 . S
C617 H597 0.950 . S
C617 C613 1.385 . S
C617 C616 1.374 . S
C618 C615 1.499 . S
C618 C619 1.373 . S
C618 C620 1.389 . S
C619 H598 0.950 . S
C619 C618 1.373 . S
C619 C635 1.377 . S
C620 C618 1.389 . S
C620 C621 1.524 . S
C620 C634 1.377 . S
C621 C620 1.524 . S
C621 C622 1.397 . S
C621 C626 1.363 . S
C622 H599 0.950 . S
C622 C621 1.397 . S
C622 C623 1.334 . S
C623 H600 0.950 . S
C623 C622 1.334 . S
C623 C624 1.287 . S
C624 C623 1.287 . S
C624 C625 1.524 . S
C624 H643 0.913 . S
C625 H601 0.950 . S
C625 C624 1.524 . S
C625 C626 1.415 . S
C626 H602 0.950 . S
C626 C621 1.363 . S
C626 C625 1.415 . S
C627 H603 0.951 . S
C627 C628 1.366 . S
C627 C629 1.388 . S
C628 C627 1.366 . S
C628 C632 1.385 . S
C629 H604 0.951 . S
C629 C627 1.388 . S
C629 C630 1.366 . S
C630 C629 1.366 . S
C630 C631 1.414 . S
C630 C633 1.499 . S
C631 H605 0.950 . S
C631 C630 1.414 . S
C631 C632 1.374 . S
C632 H606 0.950 . S
C632 C628 1.385 . S
C632 C631 1.374 . S
C633 C630 1.499 . S
C633 C634 1.373 . S
C633 C635 1.389 . S
C634 H607 0.950 . S
C634 C620 1.377 . S
C634 C633 1.373 . S
C635 C619 1.377 . S
C635 C633 1.389 . S
C635 C636 1.524 . S
C636 C635 1.524 . S
C636 C637 1.397 . S
C636 C641 1.363 . S
C637 H608 0.950 . S
C637 C636 1.397 . S
C637 C638 1.334 . S
C638 H609 0.950 . S
C638 C637 1.334 . S
C638 C639 1.287 . S
C639 C638 1.287 . S
C639 C640 1.524 . S
C639 H642 0.999 . S
C640 H610 0.950 . S
C640 C639 1.524 . S
C640 C641 1.415 . S
C641 H611 0.950 . S
C641 C636 1.363 . S
C641 C640 1.415 . S
H642 C639 0.999 . S
H643 C624 0.913 . S
H644 C662 0.951 . S
H645 C664 0.951 . S
H646 C666 0.950 . S
H647 C667 0.950 . S
H648 C669 0.950 . S
H649 C672 0.950 . S
H650 C673 0.950 . S
H651 C675 0.950 . S
H652 C676 0.950 . S
H653 C677 0.951 . S
H654 C679 0.951 . S
H655 C681 0.950 . S
H656 C682 0.950 . S
H657 C684 0.950 . S
H658 C687 0.950 . S
H659 C688 0.950 . S
H660 C690 0.950 . S
H661 C691 0.950 . S
C662 H644 0.951 . S
C662 C663 1.366 . S
C662 C664 1.388 . S
C663 C662 1.366 . S
C663 C667 1.385 . S
C664 H645 0.951 . S
C664 C662 1.388 . S
C664 C665 1.366 . S
C665 C664 1.366 . S
C665 C666 1.414 . S
C665 C668 1.499 . S
C666 H646 0.950 . S
C666 C665 1.414 . S
C666 C667 1.374 . S
C667 H647 0.950 . S
C667 C663 1.385 . S
C667 C666 1.374 . S
C668 C665 1.499 . S
C668 C669 1.373 . S
C668 C670 1.389 . S
C669 H648 0.950 . S
C669 C668 1.373 . S
C669 C685 1.377 . S
C670 C668 1.389 . S
C670 C671 1.524 . S
C670 C684 1.377 . S
C671 C670 1.524 . S
C671 C672 1.397 . S
C671 C676 1.363 . S
C672 H649 0.950 . S
C672 C671 1.397 . S
C672 C673 1.334 . S
C673 H650 0.950 . S
C673 C672 1.334 . S
C673 C674 1.287 . S
C674 C673 1.287 . S
C674 C675 1.524 . S
C674 H693 0.913 . S
C675 H651 0.950 . S
C675 C674 1.524 . S
C675 C676 1.415 . S
C676 H652 0.950 . S
C676 C671 1.363 . S
C676 C675 1.415 . S
C677 H653 0.951 . S
C677 C678 1.366 . S
C677 C679 1.388 . S
C678 C677 1.366 . S
C678 C682 1.385 . S
C679 H654 0.951 . S
C679 C677 1.388 . S
C679 C680 1.366 . S
C680 C679 1.366 . S
C680 C681 1.414 . S
C680 C683 1.499 . S
C681 H655 0.950 . S
C681 C680 1.414 . S
C681 C682 1.374 . S
C682 H656 0.950 . S
C682 C678 1.385 . S
C682 C681 1.374 . S
C683 C680 1.499 . S
C683 C684 1.373 . S
C683 C685 1.389 . S
C684 H657 0.950 . S
C684 C670 1.377 . S
C684 C683 1.373 . S
C685 C669 1.377 . S
C685 C683 1.389 . S
C685 C686 1.524 . S
C686 C685 1.524 . S
C686 C687 1.397 . S
C686 C691 1.363 . S
C687 H658 0.950 . S
C687 C686 1.397 . S
C687 C688 1.334 . S
C688 H659 0.950 . S
C688 C687 1.334 . S
C688 C689 1.287 . S
C689 C688 1.287 . S
C689 C690 1.524 . S
C689 H692 0.999 . S
C690 H660 0.950 . S
C690 C689 1.524 . S
C690 C691 1.415 . S
C691 H661 0.950 . S
C691 C686 1.363 . S
C691 C690 1.415 . S
H692 C689 0.999 . S
H693 C674 0.913 . S
H694 C712 0.951 . S
H695 C714 0.951 . S
H696 C716 0.950 . S
H697 C717 0.950 . S
H698 C719 0.950 . S
H699 C722 0.950 . S
H700 C723 0.950 . S
H701 C725 0.950 . S
H702 C726 0.950 . S
H703 C727 0.951 . S
H704 C729 0.951 . S
H705 C731 0.950 . S
H706 C732 0.950 . S
H707 C734 0.950 . S
H708 C737 0.950 . S
H709 C738 0.950 . S
H710 C740 0.950 . S
H711 C741 0.950 . S
C712 H694 0.951 . S
C712 C713 1.366 . S
C712 C714 1.388 . S
C713 C712 1.366 . S
C713 C717 1.385 . S
C714 H695 0.951 . S
C714 C712 1.388 . S
C714 C715 1.366 . S
C715 C714 1.366 . S
C715 C716 1.414 . S
C715 C718 1.499 . S
C716 H696 0.950 . S
C716 C715 1.414 . S
C716 C717 1.374 . S
C717 H697 0.950 . S
C717 C713 1.385 . S
C717 C716 1.374 . S
C718 C715 1.499 . S
C718 C719 1.373 . S
C718 C720 1.389 . S
C719 H698 0.950 . S
C719 C718 1.373 . S
C719 C735 1.377 . S
C720 C718 1.389 . S
C720 C721 1.524 . S
C720 C734 1.377 . S
C721 C720 1.524 . S
C721 C722 1.397 . S
C721 C726 1.363 . S
C722 H699 0.950 . S
C722 C721 1.397 . S
C722 C723 1.334 . S
C723 H700 0.950 . S
C723 C722 1.334 . S
C723 C724 1.287 . S
C724 C723 1.287 . S
C724 C725 1.524 . S
C724 H743 0.913 . S
C725 H701 0.950 . S
C725 C724 1.524 . S
C725 C726 1.415 . S
C726 H702 0.950 . S
C726 C721 1.363 . S
C726 C725 1.415 . S
C727 H703 0.951 . S
C727 C728 1.366 . S
C727 C729 1.388 . S
C728 C727 1.366 . S
C728 C732 1.385 . S
C729 H704 0.951 . S
C729 C727 1.388 . S
C729 C730 1.366 . S
C730 C729 1.366 . S
C730 C731 1.414 . S
C730 C733 1.499 . S
C731 H705 0.950 . S
C731 C730 1.414 . S
C731 C732 1.374 . S
C732 H706 0.950 . S
C732 C728 1.385 . S
C732 C731 1.374 . S
C733 C730 1.499 . S
C733 C734 1.373 . S
C733 C735 1.389 . S
C734 H707 0.950 . S
C734 C720 1.377 . S
C734 C733 1.373 . S
C735 C719 1.377 . S
C735 C733 1.389 . S
C735 C736 1.524 . S
C736 C735 1.524 . S
C736 C737 1.397 . S
C736 C741 1.363 . S
C737 H708 0.950 . S
C737 C736 1.397 . S
C737 C738 1.334 . S
C738 H709 0.950 . S
C738 C737 1.334 . S
C738 C739 1.287 . S
C739 C738 1.287 . S
C739 C740 1.524 . S
C739 H742 0.999 . S
C740 H710 0.950 . S
C740 C739 1.524 . S
C740 C741 1.415 . S
C741 H711 0.950 . S
C741 C736 1.363 . S
C741 C740 1.415 . S
H742 C739 0.999 . S
H743 C724 0.913 . S
H744 C762 0.951 . S
H745 C764 0.951 . S
H746 C766 0.950 . S
H747 C767 0.950 . S
H748 C769 0.950 . S
H749 C772 0.950 . S
H750 C773 0.950 . S
H751 C775 0.950 . S
H752 C776 0.950 . S
H753 C777 0.951 . S
H754 C779 0.951 . S
H755 C781 0.950 . S
H756 C782 0.950 . S
H757 C784 0.950 . S
H758 C787 0.950 . S
H759 C788 0.950 . S
H760 C790 0.950 . S
H761 C791 0.950 . S
C762 H744 0.951 . S
C762 C763 1.366 . S
C762 C764 1.388 . S
C763 C762 1.366 . S
C763 C767 1.385 . S
C764 H745 0.951 . S
C764 C762 1.388 . S
C764 C765 1.366 . S
C765 C764 1.366 . S
C765 C766 1.414 . S
C765 C768 1.499 . S
C766 H746 0.950 . S
C766 C765 1.414 . S
C766 C767 1.374 . S
C767 H747 0.950 . S
C767 C763 1.385 . S
C767 C766 1.374 . S
C768 C765 1.499 . S
C768 C769 1.373 . S
C768 C770 1.389 . S
C769 H748 0.950 . S
C769 C768 1.373 . S
C769 C785 1.377 . S
C770 C768 1.389 . S
C770 C771 1.524 . S
C770 C784 1.377 . S
C771 C770 1.524 . S
C771 C772 1.397 . S
C771 C776 1.363 . S
C772 H749 0.950 . S
C772 C771 1.397 . S
C772 C773 1.334 . S
C773 H750 0.950 . S
C773 C772 1.334 . S
C773 C774 1.287 . S
C774 C773 1.287 . S
C774 C775 1.524 . S
C774 H793 0.913 . S
C775 H751 0.950 . S
C775 C774 1.524 . S
C775 C776 1.415 . S
C776 H752 0.950 . S
C776 C771 1.363 . S
C776 C775 1.415 . S
C777 H753 0.951 . S
C777 C778 1.366 . S
C777 C779 1.388 . S
C778 C777 1.366 . S
C778 C782 1.385 . S
C779 H754 0.951 . S
C779 C777 1.388 . S
C779 C780 1.366 . S
C780 C779 1.366 . S
C780 C781 1.414 . S
C780 C783 1.499 . S
C781 H755 0.950 . S
C781 C780 1.414 . S
C781 C782 1.374 . S
C782 H756 0.950 . S
C782 C778 1.385 . S
C782 C781 1.374 . S
C783 C780 1.499 . S
C783 C784 1.373 . S
C783 C785 1.389 . S
C784 H757 0.950 . S
C784 C770 1.377 . S
C784 C783 1.373 . S
C785 C769 1.377 . S
C785 C783 1.389 . S
C785 C786 1.524 . S
C786 C785 1.524 . S
C786 C787 1.397 . S
C786 C791 1.363 . S
C787 H758 0.950 . S
C787 C786 1.397 . S
C787 C788 1.334 . S
C788 H759 0.950 . S
C788 C787 1.334 . S
C788 C789 1.287 . S
C789 C788 1.287 . S
C789 C790 1.524 . S
C789 H792 0.999 . S
C790 H760 0.950 . S
C790 C789 1.524 . S
C790 C791 1.415 . S
C791 H761 0.950 . S
C791 C786 1.363 . S
C791 C790 1.415 . S
H792 C789 0.999 . S
H793 C774 0.913 . S
H794 C812 0.951 . S
H795 C814 0.951 . S
H796 C816 0.950 . S
H797 C817 0.950 . S
H798 C819 0.950 . S
H799 C822 0.950 . S
H800 C823 0.950 . S
H801 C825 0.950 . S
H802 C826 0.950 . S
H803 C827 0.951 . S
H804 C829 0.951 . S
H805 C831 0.950 . S
H806 C832 0.950 . S
H807 C834 0.950 . S
H808 C837 0.950 . S
H809 C838 0.950 . S
H810 C840 0.950 . S
H811 C841 0.950 . S
C812 H794 0.951 . S
C812 C813 1.366 . S
C812 C814 1.388 . S
C813 C812 1.366 . S
C813 C817 1.385 . S
C814 H795 0.951 . S
C814 C812 1.388 . S
C814 C815 1.366 . S
C815 C814 1.366 . S
C815 C816 1.414 . S
C815 C818 1.499 . S
C816 H796 0.950 . S
C816 C815 1.414 . S
C816 C817 1.374 . S
C817 H797 0.950 . S
C817 C813 1.385 . S
C817 C816 1.374 . S
C818 C815 1.499 . S
C818 C819 1.373 . S
C818 C820 1.389 . S
C819 H798 0.950 . S
C819 C818 1.373 . S
C819 C835 1.377 . S
C820 C818 1.389 . S
C820 C821 1.524 . S
C820 C834 1.377 . S
C821 C820 1.524 . S
C821 C822 1.397 . S
C821 C826 1.363 . S
C822 H799 0.950 . S
C822 C821 1.397 . S
C822 C823 1.334 . S
C823 H800 0.950 . S
C823 C822 1.334 . S
C823 C824 1.287 . S
C824 C823 1.287 . S
C824 C825 1.524 . S
C824 H843 0.913 . S
C825 H801 0.950 . S
C825 C824 1.524 . S
C825 C826 1.415 . S
C826 H802 0.950 . S
C826 C821 1.363 . S
C826 C825 1.415 . S
C827 H803 0.951 . S
C827 C828 1.366 . S
C827 C829 1.388 . S
C828 C827 1.366 . S
C828 C832 1.385 . S
C829 H804 0.951 . S
C829 C827 1.388 . S
C829 C830 1.366 . S
C830 C829 1.366 . S
C830 C831 1.414 . S
C830 C833 1.499 . S
C831 H805 0.950 . S
C831 C830 1.414 . S
C831 C832 1.374 . S
C832 H806 0.950 . S
C832 C828 1.385 . S
C832 C831 1.374 . S
C833 C830 1.499 . S
C833 C834 1.373 . S
C833 C835 1.389 . S
C834 H807 0.950 . S
C834 C820 1.377 . S
C834 C833 1.373 . S
C835 C819 1.377 . S
C835 C833 1.389 . S
C835 C836 1.524 . S
C836 C835 1.524 . S
C836 C837 1.397 . S
C836 C841 1.363 . S
C837 H808 0.950 . S
C837 C836 1.397 . S
C837 C838 1.334 . S
C838 H809 0.950 . S
C838 C837 1.334 . S
C838 C839 1.287 . S
C839 C838 1.287 . S
C839 C840 1.524 . S
C839 H842 0.999 . S
C840 H810 0.950 . S
C840 C839 1.524 . S
C840 C841 1.415 . S
C841 H811 0.950 . S
C841 C836 1.363 . S
C841 C840 1.415 . S
H842 C839 0.999 . S
H843 C824 0.913 . S
H844 C862 0.951 . S
H845 C864 0.951 . S
H846 C866 0.950 . S
H847 C867 0.950 . S
H848 C869 0.950 . S
H849 C872 0.950 . S
H850 C873 0.950 . S
H851 C875 0.950 . S
H852 C876 0.950 . S
H853 C877 0.951 . S
H854 C879 0.951 . S
H855 C881 0.950 . S
H856 C882 0.950 . S
H857 C884 0.950 . S
H858 C887 0.950 . S
H859 C888 0.950 . S
H860 C890 0.950 . S
H861 C891 0.950 . S
C862 H844 0.951 . S
C862 C863 1.366 . S
C862 C864 1.388 . S
C863 C862 1.366 . S
C863 C867 1.385 . S
C864 H845 0.951 . S
C864 C862 1.388 . S
C864 C865 1.366 . S
C865 C864 1.366 . S
C865 C866 1.414 . S
C865 C868 1.499 . S
C866 H846 0.950 . S
C866 C865 1.414 . S
C866 C867 1.374 . S
C867 H847 0.950 . S
C867 C863 1.385 . S
C867 C866 1.374 . S
C868 C865 1.499 . S
C868 C869 1.373 . S
C868 C870 1.389 . S
C869 H848 0.950 . S
C869 C868 1.373 . S
C869 C885 1.377 . S
C870 C868 1.389 . S
C870 C871 1.524 . S
C870 C884 1.377 . S
C871 C870 1.524 . S
C871 C872 1.397 . S
C871 C876 1.363 . S
C872 H849 0.950 . S
C872 C871 1.397 . S
C872 C873 1.334 . S
C873 H850 0.950 . S
C873 C872 1.334 . S
C873 C874 1.287 . S
C874 C873 1.287 . S
C874 C875 1.524 . S
C874 H893 0.913 . S
C875 H851 0.950 . S
C875 C874 1.524 . S
C875 C876 1.415 . S
C876 H852 0.950 . S
C876 C871 1.363 . S
C876 C875 1.415 . S
C877 H853 0.951 . S
C877 C878 1.366 . S
C877 C879 1.388 . S
C878 C877 1.366 . S
C878 C882 1.385 . S
C879 H854 0.951 . S
C879 C877 1.388 . S
C879 C880 1.366 . S
C880 C879 1.366 . S
C880 C881 1.414 . S
C880 C883 1.499 . S
C881 H855 0.950 . S
C881 C880 1.414 . S
C881 C882 1.374 . S
C882 H856 0.950 . S
C882 C878 1.385 . S
C882 C881 1.374 . S
C883 C880 1.499 . S
C883 C884 1.373 . S
C883 C885 1.389 . S
C884 H857 0.950 . S
C884 C870 1.377 . S
C884 C883 1.373 . S
C885 C869 1.377 . S
C885 C883 1.389 . S
C885 C886 1.524 . S
C886 C885 1.524 . S
C886 C887 1.397 . S
C886 C891 1.363 . S
C887 H858 0.950 . S
C887 C886 1.397 . S
C887 C888 1.334 . S
C888 H859 0.950 . S
C888 C887 1.334 . S
C888 C889 1.287 . S
C889 C888 1.287 . S
C889 C890 1.524 . S
C889 H892 0.999 . S
C890 H860 0.950 . S
C890 C889 1.524 . S
C890 C891 1.415 . S
C891 H861 0.950 . S
C891 C886 1.363 . S
C891 C890 1.415 . S
H892 C889 0.999 . S
H893 C874 0.913 . S
H894 C912 0.951 . S
H895 C914 0.951 . S
H896 C916 0.950 . S
H897 C917 0.950 . S
H898 C919 0.950 . S
H899 C922 0.950 . S
H900 C923 0.950 . S
H901 C925 0.950 . S
H902 C926 0.950 . S
H903 C927 0.951 . S
H904 C929 0.951 . S
H905 C931 0.950 . S
H906 C932 0.950 . S
H907 C934 0.950 . S
H908 C937 0.950 . S
H909 C938 0.950 . S
H910 C940 0.950 . S
H911 C941 0.950 . S
C912 H894 0.951 . S
C912 C913 1.366 . S
C912 C914 1.388 . S
C913 C912 1.366 . S
C913 C917 1.385 . S
C914 H895 0.951 . S
C914 C912 1.388 . S
C914 C915 1.366 . S
C915 C914 1.366 . S
C915 C916 1.414 . S
C915 C918 1.499 . S
C916 H896 0.950 . S
C916 C915 1.414 . S
C916 C917 1.374 . S
C917 H897 0.950 . S
C917 C913 1.385 . S
C917 C916 1.374 . S
C918 C915 1.499 . S
C918 C919 1.373 . S
C918 C920 1.389 . S
C919 H898 0.950 . S
C919 C918 1.373 . S
C919 C935 1.377 . S
C920 C918 1.389 . S
C920 C921 1.524 . S
C920 C934 1.377 . S
C921 C920 1.524 . S
C921 C922 1.397 . S
C921 C926 1.363 . S
C922 H899 0.950 . S
C922 C921 1.397 . S
C922 C923 1.334 . S
C923 H900 0.950 . S
C923 C922 1.334 . S
C923 C924 1.287 . S
C924 C923 1.287 . S
C924 C925 1.524 . S
C924 H943 0.913 . S
C925 H901 0.950 . S
C925 C924 1.524 . S
C925 C926 1.415 . S
C926 H902 0.950 . S
C926 C921 1.363 . S
C926 C925 1.415 . S
C927 H903 0.951 . S
C927 C928 1.366 . S
C927 C929 1.388 . S
C928 C927 1.366 . S
C928 C932 1.385 . S
C929 H904 0.951 . S
C929 C927 1.388 . S
C929 C930 1.366 . S
C930 C929 1.366 . S
C930 C931 1.414 . S
C930 C933 1.499 . S
C931 H905 0.950 . S
C931 C930 1.414 . S
C931 C932 1.374 . S
C932 H906 0.950 . S
C932 C928 1.385 . S
C932 C931 1.374 . S
C933 C930 1.499 . S
C933 C934 1.373 . S
C933 C935 1.389 . S
C934 H907 0.950 . S
C934 C920 1.377 . S
C934 C933 1.373 . S
C935 C919 1.377 . S
C935 C933 1.389 . S
C935 C936 1.524 . S
C936 C935 1.524 . S
C936 C937 1.397 . S
C936 C941 1.363 . S
C937 H908 0.950 . S
C937 C936 1.397 . S
C937 C938 1.334 . S
C938 H909 0.950 . S
C938 C937 1.334 . S
C938 C939 1.287 . S
C939 C938 1.287 . S
C939 C940 1.524 . S
C939 H942 0.999 . S
C940 H910 0.950 . S
C940 C939 1.524 . S
C940 C941 1.415 . S
C941 H911 0.950 . S
C941 C936 1.363 . S
C941 C940 1.415 . S
H942 C939 0.999 . S
H943 C924 0.913 . S
H944 C962 0.951 . S
H945 C964 0.951 . S
H946 C966 0.950 . S
H947 C967 0.950 . S
H948 C969 0.950 . S
H949 C972 0.950 . S
H950 C973 0.950 . S
H951 C975 0.950 . S
H952 C976 0.950 . S
H953 C977 0.951 . S
H954 C979 0.951 . S
H955 C981 0.950 . S
H956 C982 0.950 . S
H957 C984 0.950 . S
H958 C987 0.950 . S
H959 C988 0.950 . S
H960 C990 0.950 . S
H961 C991 0.950 . S
C962 H944 0.951 . S
C962 C963 1.366 . S
C962 C964 1.388 . S
C963 C962 1.366 . S
C963 C967 1.385 . S
C964 H945 0.951 . S
C964 C962 1.388 . S
C964 C965 1.366 . S
C965 C964 1.366 . S
C965 C966 1.414 . S
C965 C968 1.499 . S
C966 H946 0.950 . S
C966 C965 1.414 . S
C966 C967 1.374 . S
C967 H947 0.950 . S
C967 C963 1.385 . S
C967 C966 1.374 . S
C968 C965 1.499 . S
C968 C969 1.373 . S
C968 C970 1.389 . S
C969 H948 0.950 . S
C969 C968 1.373 . S
C969 C985 1.377 1_655 S
C970 C968 1.389 . S
C970 C971 1.524 . S
C970 C984 1.377 1_655 S
C971 C970 1.524 . S
C971 C972 1.397 . S
C971 C976 1.363 . S
C972 H949 0.950 . S
C972 C971 1.397 . S
C972 C973 1.334 . S
C973 H950 0.950 . S
C973 C972 1.334 . S
C973 C974 1.287 . S
C974 C973 1.287 . S
C974 C975 1.524 . S
C974 H993 0.913 . S
C975 H951 0.950 . S
C975 C974 1.524 . S
C975 C976 1.415 . S
C976 H952 0.950 . S
C976 C971 1.363 . S
C976 C975 1.415 . S
C977 H953 0.951 . S
C977 C978 1.366 . S
C977 C979 1.388 . S
C978 C977 1.366 . S
C978 C982 1.385 . S
C979 H954 0.951 . S
C979 C977 1.388 . S
C979 C980 1.366 . S
C980 C979 1.366 . S
C980 C981 1.414 . S
C980 C983 1.499 . S
C981 H955 0.950 . S
C981 C980 1.414 . S
C981 C982 1.374 . S
C982 H956 0.950 . S
C982 C978 1.385 . S
C982 C981 1.374 . S
C983 C980 1.499 . S
C983 C984 1.373 . S
C983 C985 1.389 . S
C984 H957 0.950 . S
C984 C970 1.377 1_455 S
C984 C983 1.373 . S
C985 C969 1.377 1_455 S
C985 C983 1.389 . S
C985 C986 1.524 . S
C986 C985 1.524 . S
C986 C987 1.397 . S
C986 C991 1.363 . S
C987 H958 0.950 . S
C987 C986 1.397 . S
C987 C988 1.334 . S
C988 H959 0.950 . S
C988 C987 1.334 . S
C988 C989 1.287 . S
C989 C988 1.287 . S
C989 C990 1.524 . S
C989 H992 0.999 . S
C990 H960 0.950 . S
C990 C989 1.524 . S
C990 C991 1.415 . S
C991 H961 0.950 . S
C991 C986 1.363 . S
C991 C990 1.415 . S
H992 C989 0.999 . S
H993 C974 0.913 . S
H994 C1012 0.951 . S
H995 C1014 0.951 . S
H996 C1016 0.950 . S
H997 C1017 0.950 . S
H998 C1019 0.950 . S
H999 C1022 0.950 . S
H1000 C1023 0.950 . S
H1001 C1025 0.950 . S
H1002 C1026 0.950 . S
H1003 C1027 0.951 . S
H1004 C1029 0.951 . S
H1005 C1031 0.950 . S
H1006 C1032 0.950 . S
H1007 C1034 0.950 . S
H1008 C1037 0.950 . S
H1009 C1038 0.950 . S
H1010 C1040 0.950 . S
H1011 C1041 0.950 . S
C1012 H994 0.951 . S
C1012 C1013 1.366 . S
C1012 C1014 1.388 . S
C1013 C1012 1.366 . S
C1013 C1017 1.385 . S
C1014 H995 0.951 . S
C1014 C1012 1.388 . S
C1014 C1015 1.366 . S
C1015 C1014 1.366 . S
C1015 C1016 1.414 . S
C1015 C1018 1.499 . S
C1016 H996 0.950 . S
C1016 C1015 1.414 . S
C1016 C1017 1.374 . S
C1017 H997 0.950 . S
C1017 C1013 1.385 . S
C1017 C1016 1.374 . S
C1018 C1015 1.499 . S
C1018 C1019 1.373 . S
C1018 C1020 1.389 . S
C1019 H998 0.950 . S
C1019 C1018 1.373 . S
C1019 C1035 1.377 . S
C1020 C1018 1.389 . S
C1020 C1021 1.524 . S
C1020 C1034 1.377 . S
C1021 C1020 1.524 . S
C1021 C1022 1.397 . S
C1021 C1026 1.363 . S
C1022 H999 0.950 . S
C1022 C1021 1.397 . S
C1022 C1023 1.334 . S
C1023 H1000 0.950 . S
C1023 C1022 1.334 . S
C1023 C1024 1.287 . S
C1024 C1023 1.287 . S
C1024 C1025 1.524 . S
C1024 H1043 0.913 . S
C1025 H1001 0.950 . S
C1025 C1024 1.524 . S
C1025 C1026 1.415 . S
C1026 H1002 0.950 . S
C1026 C1021 1.363 . S
C1026 C1025 1.415 . S
C1027 H1003 0.951 . S
C1027 C1028 1.366 . S
C1027 C1029 1.388 . S
C1028 C1027 1.366 . S
C1028 C1032 1.385 . S
C1029 H1004 0.951 . S
C1029 C1027 1.388 . S
C1029 C1030 1.366 . S
C1030 C1029 1.366 . S
C1030 C1031 1.414 . S
C1030 C1033 1.499 . S
C1031 H1005 0.950 . S
C1031 C1030 1.414 . S
C1031 C1032 1.374 . S
C1032 H1006 0.950 . S
C1032 C1028 1.385 . S
C1032 C1031 1.374 . S
C1033 C1030 1.499 . S
C1033 C1034 1.373 . S
C1033 C1035 1.389 . S
C1034 H1007 0.950 . S
C1034 C1020 1.377 . S
C1034 C1033 1.373 . S
C1035 C1019 1.377 . S
C1035 C1033 1.389 . S
C1035 C1036 1.524 . S
C1036 C1035 1.524 . S
C1036 C1037 1.397 . S
C1036 C1041 1.363 . S
C1037 H1008 0.950 . S
C1037 C1036 1.397 . S
C1037 C1038 1.334 . S
C1038 H1009 0.950 . S
C1038 C1037 1.334 . S
C1038 C1039 1.287 . S
C1039 C1038 1.287 . S
C1039 C1040 1.524 . S
C1039 H1042 0.999 . S
C1040 H1010 0.950 . S
C1040 C1039 1.524 . S
C1040 C1041 1.415 . S
C1041 H1011 0.950 . S
C1041 C1036 1.363 . S
C1041 C1040 1.415 . S
H1042 C1039 0.999 . S
H1043 C1024 0.913 . S
H1044 C1062 0.951 . S
H1045 C1064 0.951 . S
H1046 C1066 0.950 . S
H1047 C1067 0.950 . S
H1048 C1069 0.950 . S
H1049 C1072 0.950 . S
H1050 C1073 0.950 . S
H1051 C1075 0.950 . S
H1052 C1076 0.950 . S
H1053 C1077 0.951 . S
H1054 C1079 0.951 . S
H1055 C1081 0.950 . S
H1056 C1082 0.950 . S
H1057 C1084 0.950 . S
H1058 C1087 0.950 . S
H1059 C1088 0.950 . S
H1060 C1090 0.950 . S
H1061 C1091 0.950 . S
C1062 H1044 0.951 . S
C1062 C1063 1.366 . S
C1062 C1064 1.388 . S
C1063 C1062 1.366 . S
C1063 C1067 1.385 . S
C1064 H1045 0.951 . S
C1064 C1062 1.388 . S
C1064 C1065 1.366 . S
C1065 C1064 1.366 . S
C1065 C1066 1.414 . S
C1065 C1068 1.499 . S
C1066 H1046 0.950 . S
C1066 C1065 1.414 . S
C1066 C1067 1.374 . S
C1067 H1047 0.950 . S
C1067 C1063 1.385 . S
C1067 C1066 1.374 . S
C1068 C1065 1.499 . S
C1068 C1069 1.373 . S
C1068 C1070 1.389 . S
C1069 H1048 0.950 . S
C1069 C1068 1.373 . S
C1069 C1085 1.377 1_655 S
C1070 C1068 1.389 . S
C1070 C1071 1.524 . S
C1070 C1084 1.377 1_655 S
C1071 C1070 1.524 . S
C1071 C1072 1.397 . S
C1071 C1076 1.363 . S
C1072 H1049 0.950 . S
C1072 C1071 1.397 . S
C1072 C1073 1.334 . S
C1073 H1050 0.950 . S
C1073 C1072 1.334 . S
C1073 C1074 1.287 . S
C1074 C1073 1.287 . S
C1074 C1075 1.524 . S
C1074 H1093 0.913 . S
C1075 H1051 0.950 . S
C1075 C1074 1.524 . S
C1075 C1076 1.415 . S
C1076 H1052 0.950 . S
C1076 C1071 1.363 . S
C1076 C1075 1.415 . S
C1077 H1053 0.951 . S
C1077 C1078 1.366 . S
C1077 C1079 1.388 . S
C1078 C1077 1.366 . S
C1078 C1082 1.385 . S
C1079 H1054 0.951 . S
C1079 C1077 1.388 . S
C1079 C1080 1.366 . S
C1080 C1079 1.366 . S
C1080 C1081 1.414 . S
C1080 C1083 1.499 . S
C1081 H1055 0.950 . S
C1081 C1080 1.414 . S
C1081 C1082 1.374 . S
C1082 H1056 0.950 . S
C1082 C1078 1.385 . S
C1082 C1081 1.374 . S
C1083 C1080 1.499 . S
C1083 C1084 1.373 . S
C1083 C1085 1.389 . S
C1084 H1057 0.950 . S
C1084 C1070 1.377 1_455 S
C1084 C1083 1.373 . S
C1085 C1069 1.377 1_455 S
C1085 C1083 1.389 . S
C1085 C1086 1.524 . S
C1086 C1085 1.524 . S
C1086 C1087 1.397 . S
C1086 C1091 1.363 . S
C1087 H1058 0.950 . S
C1087 C1086 1.397 . S
C1087 C1088 1.334 . S
C1088 H1059 0.950 . S
C1088 C1087 1.334 . S
C1088 C1089 1.287 . S
C1089 C1088 1.287 . S
C1089 C1090 1.524 . S
C1089 H1092 0.999 . S
C1090 H1060 0.950 . S
C1090 C1089 1.524 . S
C1090 C1091 1.415 . S
C1091 H1061 0.950 . S
C1091 C1086 1.363 . S
C1091 C1090 1.415 . S
H1092 C1089 0.999 . S
H1093 C1074 0.913 . S
H1094 C1112 0.951 . S
H1095 C1114 0.951 . S
H1096 C1116 0.950 . S
H1097 C1117 0.950 . S
H1098 C1119 0.950 . S
H1099 C1122 0.950 . S
H1100 C1123 0.950 . S
H1101 C1125 0.950 . S
H1102 C1126 0.950 . S
H1103 C1127 0.951 . S
H1104 C1129 0.951 . S
H1105 C1131 0.950 . S
H1106 C1132 0.950 . S
H1107 C1134 0.950 . S
H1108 C1137 0.950 . S
H1109 C1138 0.950 . S
H1110 C1140 0.950 . S
H1111 C1141 0.950 . S
C1112 H1094 0.951 . S
C1112 C1113 1.366 . S
C1112 C1114 1.388 . S
C1113 C1112 1.366 . S
C1113 C1117 1.385 . S
C1114 H1095 0.951 . S
C1114 C1112 1.388 . S
C1114 C1115 1.366 . S
C1115 C1114 1.366 . S
C1115 C1116 1.414 . S
C1115 C1118 1.499 . S
C1116 H1096 0.950 . S
C1116 C1115 1.414 . S
C1116 C1117 1.374 . S
C1117 H1097 0.950 . S
C1117 C1113 1.385 . S
C1117 C1116 1.374 . S
C1118 C1115 1.499 . S
C1118 C1119 1.373 . S
C1118 C1120 1.389 . S
C1119 H1098 0.950 . S
C1119 C1118 1.373 . S
C1119 C1135 1.377 . S
C1120 C1118 1.389 . S
C1120 C1121 1.524 . S
C1120 C1134 1.377 . S
C1121 C1120 1.524 . S
C1121 C1122 1.397 . S
C1121 C1126 1.363 . S
C1122 H1099 0.950 . S
C1122 C1121 1.397 . S
C1122 C1123 1.334 . S
C1123 H1100 0.950 . S
C1123 C1122 1.334 . S
C1123 C1124 1.287 . S
C1124 C1123 1.287 . S
C1124 C1125 1.524 . S
C1124 H1143 0.913 . S
C1125 H1101 0.950 . S
C1125 C1124 1.524 . S
C1125 C1126 1.415 . S
C1126 H1102 0.950 . S
C1126 C1121 1.363 . S
C1126 C1125 1.415 . S
C1127 H1103 0.951 . S
C1127 C1128 1.366 . S
C1127 C1129 1.388 . S
C1128 C1127 1.366 . S
C1128 C1132 1.385 . S
C1129 H1104 0.951 . S
C1129 C1127 1.388 . S
C1129 C1130 1.366 . S
C1130 C1129 1.366 . S
C1130 C1131 1.414 . S
C1130 C1133 1.499 . S
C1131 H1105 0.950 . S
C1131 C1130 1.414 . S
C1131 C1132 1.374 . S
C1132 H1106 0.950 . S
C1132 C1128 1.385 . S
C1132 C1131 1.374 . S
C1133 C1130 1.499 . S
C1133 C1134 1.373 . S
C1133 C1135 1.389 . S
C1134 H1107 0.950 . S
C1134 C1120 1.377 . S
C1134 C1133 1.373 . S
C1135 C1119 1.377 . S
C1135 C1133 1.389 . S
C1135 C1136 1.524 . S
C1136 C1135 1.524 . S
C1136 C1137 1.397 . S
C1136 C1141 1.363 . S
C1137 H1108 0.950 . S
C1137 C1136 1.397 . S
C1137 C1138 1.334 . S
C1138 H1109 0.950 . S
C1138 C1137 1.334 . S
C1138 C1139 1.287 . S
C1139 C1138 1.287 . S
C1139 C1140 1.524 . S
C1139 H1142 0.999 . S
C1140 H1110 0.950 . S
C1140 C1139 1.524 . S
C1140 C1141 1.415 . S
C1141 H1111 0.950 . S
C1141 C1136 1.363 . S
C1141 C1140 1.415 . S
H1142 C1139 0.999 . S
H1143 C1124 0.913 . S
H1144 C1162 0.951 . S
H1145 C1164 0.951 . S
H1146 C1166 0.950 . S
H1147 C1167 0.950 . S
H1148 C1169 0.950 . S
H1149 C1172 0.950 . S
H1150 C1173 0.950 . S
H1151 C1175 0.950 . S
H1152 C1176 0.950 . S
H1153 C1177 0.951 . S
H1154 C1179 0.951 . S
H1155 C1181 0.950 . S
H1156 C1182 0.950 . S
H1157 C1184 0.950 . S
H1158 C1187 0.950 . S
H1159 C1188 0.950 . S
H1160 C1190 0.950 . S
H1161 C1191 0.950 . S
C1162 H1144 0.951 . S
C1162 C1163 1.366 . S
C1162 C1164 1.388 . S
C1163 C1162 1.366 . S
C1163 C1167 1.385 . S
C1164 H1145 0.951 . S
C1164 C1162 1.388 . S
C1164 C1165 1.366 . S
C1165 C1164 1.366 . S
C1165 C1166 1.414 . S
C1165 C1168 1.499 . S
C1166 H1146 0.950 . S
C1166 C1165 1.414 . S
C1166 C1167 1.374 . S
C1167 H1147 0.950 . S
C1167 C1163 1.385 . S
C1167 C1166 1.374 . S
C1168 C1165 1.499 . S
C1168 C1169 1.373 . S
C1168 C1170 1.389 . S
C1169 H1148 0.950 . S
C1169 C1168 1.373 . S
C1169 C1185 1.377 . S
C1170 C1168 1.389 . S
C1170 C1171 1.524 . S
C1170 C1184 1.377 . S
C1171 C1170 1.524 . S
C1171 C1172 1.397 . S
C1171 C1176 1.363 . S
C1172 H1149 0.950 . S
C1172 C1171 1.397 . S
C1172 C1173 1.334 . S
C1173 H1150 0.950 . S
C1173 C1172 1.334 . S
C1173 C1174 1.287 . S
C1174 C1173 1.287 . S
C1174 C1175 1.524 . S
C1174 H1193 0.913 . S
C1175 H1151 0.950 . S
C1175 C1174 1.524 . S
C1175 C1176 1.415 . S
C1176 H1152 0.950 . S
C1176 C1171 1.363 . S
C1176 C1175 1.415 . S
C1177 H1153 0.951 . S
C1177 C1178 1.366 . S
C1177 C1179 1.388 . S
C1178 C1177 1.366 . S
C1178 C1182 1.385 . S
C1179 H1154 0.951 . S
C1179 C1177 1.388 . S
C1179 C1180 1.366 . S
C1180 C1179 1.366 . S
C1180 C1181 1.414 . S
C1180 C1183 1.499 . S
C1181 H1155 0.950 . S
C1181 C1180 1.414 . S
C1181 C1182 1.374 . S
C1182 H1156 0.950 . S
C1182 C1178 1.385 . S
C1182 C1181 1.374 . S
C1183 C1180 1.499 . S
C1183 C1184 1.373 . S
C1183 C1185 1.389 . S
C1184 H1157 0.950 . S
C1184 C1170 1.377 . S
C1184 C1183 1.373 . S
C1185 C1169 1.377 . S
C1185 C1183 1.389 . S
C1185 C1186 1.524 . S
C1186 C1185 1.524 . S
C1186 C1187 1.397 . S
C1186 C1191 1.363 . S
C1187 H1158 0.950 . S
C1187 C1186 1.397 . S
C1187 C1188 1.334 . S
C1188 H1159 0.950 . S
C1188 C1187 1.334 . S
C1188 C1189 1.287 . S
C1189 C1188 1.287 . S
C1189 C1190 1.524 . S
C1189 H1192 0.999 1_554 S
C1190 H1160 0.950 . S
C1190 C1189 1.524 . S
C1190 C1191 1.415 . S
C1191 H1161 0.950 . S
C1191 C1186 1.363 . S
C1191 C1190 1.415 . S
H1192 C1189 0.999 1_556 S
H1193 C1174 0.913 . S
H1194 C1212 0.951 . S
H1195 C1214 0.951 . S
H1196 C1216 0.950 . S
H1197 C1217 0.950 . S
H1198 C1219 0.950 . S
H1199 C1222 0.950 . S
H1200 C1223 0.950 . S
H1201 C1225 0.950 . S
H1202 C1226 0.950 . S
H1203 C1227 0.951 . S
H1204 C1229 0.951 . S
H1205 C1231 0.950 . S
H1206 C1232 0.950 . S
H1207 C1234 0.950 . S
H1208 C1237 0.950 . S
H1209 C1238 0.950 . S
H1210 C1240 0.950 . S
H1211 C1241 0.950 . S
C1212 H1194 0.951 . S
C1212 C1213 1.366 . S
C1212 C1214 1.388 . S
C1213 C1212 1.366 . S
C1213 C1217 1.385 . S
C1214 H1195 0.951 . S
C1214 C1212 1.388 . S
C1214 C1215 1.366 . S
C1215 C1214 1.366 . S
C1215 C1216 1.414 . S
C1215 C1218 1.499 . S
C1216 H1196 0.950 . S
C1216 C1215 1.414 . S
C1216 C1217 1.374 . S
C1217 H1197 0.950 . S
C1217 C1213 1.385 . S
C1217 C1216 1.374 . S
C1218 C1215 1.499 . S
C1218 C1219 1.373 . S
C1218 C1220 1.389 . S
C1219 H1198 0.950 . S
C1219 C1218 1.373 . S
C1219 C1235 1.377 1_455 S
C1220 C1218 1.389 . S
C1220 C1221 1.524 . S
C1220 C1234 1.377 1_455 S
C1221 C1220 1.524 . S
C1221 C1222 1.397 . S
C1221 C1226 1.363 . S
C1222 H1199 0.950 . S
C1222 C1221 1.397 . S
C1222 C1223 1.334 . S
C1223 H1200 0.950 . S
C1223 C1222 1.334 . S
C1223 C1224 1.287 . S
C1224 C1223 1.287 . S
C1224 C1225 1.524 . S
C1224 H1243 0.913 . S
C1225 H1201 0.950 . S
C1225 C1224 1.524 . S
C1225 C1226 1.415 . S
C1226 H1202 0.950 . S
C1226 C1221 1.363 . S
C1226 C1225 1.415 . S
C1227 H1203 0.951 . S
C1227 C1228 1.366 . S
C1227 C1229 1.388 . S
C1228 C1227 1.366 . S
C1228 C1232 1.385 . S
C1229 H1204 0.951 . S
C1229 C1227 1.388 . S
C1229 C1230 1.366 . S
C1230 C1229 1.366 . S
C1230 C1231 1.414 . S
C1230 C1233 1.499 . S
C1231 H1205 0.950 . S
C1231 C1230 1.414 . S
C1231 C1232 1.374 . S
C1232 H1206 0.950 . S
C1232 C1228 1.385 . S
C1232 C1231 1.374 . S
C1233 C1230 1.499 . S
C1233 C1234 1.373 . S
C1233 C1235 1.389 . S
C1234 H1207 0.950 . S
C1234 C1220 1.377 1_655 S
C1234 C1233 1.373 . S
C1235 C1219 1.377 1_655 S
C1235 C1233 1.389 . S
C1235 C1236 1.524 . S
C1236 C1235 1.524 . S
C1236 C1237 1.397 . S
C1236 C1241 1.363 . S
C1237 H1208 0.950 . S
C1237 C1236 1.397 . S
C1237 C1238 1.334 . S
C1238 H1209 0.950 . S
C1238 C1237 1.334 . S
C1238 C1239 1.287 . S
C1239 C1238 1.287 . S
C1239 C1240 1.524 . S
C1239 H1242 0.999 . S
C1240 H1210 0.950 . S
C1240 C1239 1.524 . S
C1240 C1241 1.415 . S
C1241 H1211 0.950 . S
C1241 C1236 1.363 . S
C1241 C1240 1.415 . S
H1242 C1239 0.999 . S
H1243 C1224 0.913 . S
H1244 C1262 0.951 . S
H1245 C1264 0.951 . S
H1246 C1266 0.950 . S
H1247 C1267 0.950 . S
H1248 C1269 0.950 . S
H1249 C1272 0.950 . S
H1250 C1273 0.950 . S
H1251 C1275 0.950 . S
H1252 C1276 0.950 . S
H1253 C1277 0.951 . S
H1254 C1279 0.951 . S
H1255 C1281 0.950 . S
H1256 C1282 0.950 . S
H1257 C1284 0.950 . S
H1258 C1287 0.950 . S
H1259 C1288 0.950 . S
H1260 C1290 0.950 . S
H1261 C1291 0.950 . S
C1262 H1244 0.951 . S
C1262 C1263 1.366 . S
C1262 C1264 1.388 . S
C1263 C1262 1.366 . S
C1263 C1267 1.385 . S
C1264 H1245 0.951 . S
C1264 C1262 1.388 . S
C1264 C1265 1.366 . S
C1265 C1264 1.366 . S
C1265 C1266 1.414 . S
C1265 C1268 1.499 . S
C1266 H1246 0.950 . S
C1266 C1265 1.414 . S
C1266 C1267 1.374 . S
C1267 H1247 0.950 . S
C1267 C1263 1.385 . S
C1267 C1266 1.374 . S
C1268 C1265 1.499 . S
C1268 C1269 1.373 . S
C1268 C1270 1.389 . S
C1269 H1248 0.950 . S
C1269 C1268 1.373 . S
C1269 C1285 1.377 . S
C1270 C1268 1.389 . S
C1270 C1271 1.524 . S
C1270 C1284 1.377 . S
C1271 C1270 1.524 . S
C1271 C1272 1.397 . S
C1271 C1276 1.363 . S
C1272 H1249 0.950 . S
C1272 C1271 1.397 . S
C1272 C1273 1.334 . S
C1273 H1250 0.950 . S
C1273 C1272 1.334 . S
C1273 C1274 1.287 . S
C1274 C1273 1.287 . S
C1274 C1275 1.524 . S
C1274 H1293 0.913 . S
C1275 H1251 0.950 . S
C1275 C1274 1.524 . S
C1275 C1276 1.415 . S
C1276 H1252 0.950 . S
C1276 C1271 1.363 . S
C1276 C1275 1.415 . S
C1277 H1253 0.951 . S
C1277 C1278 1.366 . S
C1277 C1279 1.388 . S
C1278 C1277 1.366 . S
C1278 C1282 1.385 . S
C1279 H1254 0.951 . S
C1279 C1277 1.388 . S
C1279 C1280 1.366 . S
C1280 C1279 1.366 . S
C1280 C1281 1.414 . S
C1280 C1283 1.499 . S
C1281 H1255 0.950 . S
C1281 C1280 1.414 . S
C1281 C1282 1.374 . S
C1282 H1256 0.950 . S
C1282 C1278 1.385 . S
C1282 C1281 1.374 . S
C1283 C1280 1.499 . S
C1283 C1284 1.373 . S
C1283 C1285 1.389 . S
C1284 H1257 0.950 . S
C1284 C1270 1.377 . S
C1284 C1283 1.373 . S
C1285 C1269 1.377 . S
C1285 C1283 1.389 . S
C1285 C1286 1.524 . S
C1286 C1285 1.524 . S
C1286 C1287 1.397 . S
C1286 C1291 1.363 . S
C1287 H1258 0.950 . S
C1287 C1286 1.397 . S
C1287 C1288 1.334 . S
C1288 H1259 0.950 . S
C1288 C1287 1.334 . S
C1288 C1289 1.287 . S
C1289 C1288 1.287 . S
C1289 C1290 1.524 . S
C1289 H1292 0.999 . S
C1290 H1260 0.950 . S
C1290 C1289 1.524 . S
C1290 C1291 1.415 . S
C1291 H1261 0.950 . S
C1291 C1286 1.363 . S
C1291 C1290 1.415 . S
H1292 C1289 0.999 . S
H1293 C1274 0.913 . S
H1294 C1312 0.951 . S
H1295 C1314 0.951 . S
H1296 C1316 0.950 . S
H1297 C1317 0.950 . S
H1298 C1319 0.950 . S
H1299 C1322 0.950 . S
H1300 C1323 0.950 . S
H1301 C1325 0.950 . S
H1302 C1326 0.950 . S
H1303 C1327 0.951 . S
H1304 C1329 0.951 . S
H1305 C1331 0.950 . S
H1306 C1332 0.950 . S
H1307 C1334 0.950 . S
H1308 C1337 0.950 . S
H1309 C1338 0.950 . S
H1310 C1340 0.950 . S
H1311 C1341 0.950 . S
C1312 H1294 0.951 . S
C1312 C1313 1.366 . S
C1312 C1314 1.388 . S
C1313 C1312 1.366 . S
C1313 C1317 1.385 . S
C1314 H1295 0.951 . S
C1314 C1312 1.388 . S
C1314 C1315 1.366 . S
C1315 C1314 1.366 . S
C1315 C1316 1.414 . S
C1315 C1318 1.499 . S
C1316 H1296 0.950 . S
C1316 C1315 1.414 . S
C1316 C1317 1.374 . S
C1317 H1297 0.950 . S
C1317 C1313 1.385 . S
C1317 C1316 1.374 . S
C1318 C1315 1.499 . S
C1318 C1319 1.373 . S
C1318 C1320 1.389 . S
C1319 H1298 0.950 . S
C1319 C1318 1.373 . S
C1319 C1335 1.377 1_655 S
C1320 C1318 1.389 . S
C1320 C1321 1.524 . S
C1320 C1334 1.377 1_655 S
C1321 C1320 1.524 . S
C1321 C1322 1.397 . S
C1321 C1326 1.363 . S
C1322 H1299 0.950 . S
C1322 C1321 1.397 . S
C1322 C1323 1.334 . S
C1323 H1300 0.950 . S
C1323 C1322 1.334 . S
C1323 C1324 1.287 . S
C1324 C1323 1.287 . S
C1324 C1325 1.524 . S
C1324 H1343 0.913 . S
C1325 H1301 0.950 . S
C1325 C1324 1.524 . S
C1325 C1326 1.415 . S
C1326 H1302 0.950 . S
C1326 C1321 1.363 . S
C1326 C1325 1.415 . S
C1327 H1303 0.951 . S
C1327 C1328 1.366 . S
C1327 C1329 1.388 . S
C1328 C1327 1.366 . S
C1328 C1332 1.385 . S
C1329 H1304 0.951 . S
C1329 C1327 1.388 . S
C1329 C1330 1.366 . S
C1330 C1329 1.366 . S
C1330 C1331 1.414 . S
C1330 C1333 1.499 . S
C1331 H1305 0.950 . S
C1331 C1330 1.414 . S
C1331 C1332 1.374 . S
C1332 H1306 0.950 . S
C1332 C1328 1.385 . S
C1332 C1331 1.374 . S
C1333 C1330 1.499 . S
C1333 C1334 1.373 . S
C1333 C1335 1.389 . S
C1334 H1307 0.950 . S
C1334 C1320 1.377 1_455 S
C1334 C1333 1.373 . S
C1335 C1319 1.377 1_455 S
C1335 C1333 1.389 . S
C1335 C1336 1.524 . S
C1336 C1335 1.524 . S
C1336 C1337 1.397 . S
C1336 C1341 1.363 . S
C1337 H1308 0.950 . S
C1337 C1336 1.397 . S
C1337 C1338 1.334 . S
C1338 H1309 0.950 . S
C1338 C1337 1.334 . S
C1338 C1339 1.287 . S
C1339 C1338 1.287 . S
C1339 C1340 1.524 . S
C1339 H1342 0.999 . S
C1340 H1310 0.950 . S
C1340 C1339 1.524 . S
C1340 C1341 1.415 . S
C1341 H1311 0.950 . S
C1341 C1336 1.363 . S
C1341 C1340 1.415 . S
H1342 C1339 0.999 . S
H1343 C1324 0.913 . S
H1344 C1362 0.951 . S
H1345 C1364 0.951 . S
H1346 C1366 0.950 . S
H1347 C1367 0.950 . S
H1348 C1369 0.950 . S
H1349 C1372 0.950 1_554 S
H1350 C1373 0.950 . S
H1351 C1375 0.950 . S
H1352 C1376 0.950 . S
H1353 C1377 0.951 . S
H1354 C1379 0.951 . S
H1355 C1381 0.950 . S
H1356 C1382 0.950 . S
H1357 C1384 0.950 . S
H1358 C1387 0.950 1_556 S
H1359 C1388 0.950 . S
H1360 C1390 0.950 . S
H1361 C1391 0.950 . S
C1362 H1344 0.951 . S
C1362 C1363 1.366 . S
C1362 C1364 1.388 . S
C1363 C1362 1.366 . S
C1363 C1367 1.385 . S
C1364 H1345 0.951 . S
C1364 C1362 1.388 . S
C1364 C1365 1.366 . S
C1365 C1364 1.366 . S
C1365 C1366 1.414 . S
C1365 C1368 1.499 . S
C1366 H1346 0.950 . S
C1366 C1365 1.414 . S
C1366 C1367 1.374 . S
C1367 H1347 0.950 . S
C1367 C1363 1.385 . S
C1367 C1366 1.374 . S
C1368 C1365 1.499 . S
C1368 C1369 1.373 1_545 S
C1368 C1370 1.389 1_554 S
C1369 H1348 0.950 . S
C1369 C1368 1.373 1_565 S
C1369 C1385 1.377 . S
C1370 C1368 1.389 1_556 S
C1370 C1371 1.524 . S
C1370 C1384 1.377 . S
C1371 C1370 1.524 . S
C1371 C1372 1.397 . S
C1371 C1376 1.363 . S
C1372 H1349 0.950 1_556 S
C1372 C1371 1.397 . S
C1372 C1373 1.334 . S
C1373 H1350 0.950 . S
C1373 C1372 1.334 . S
C1373 C1374 1.287 . S
C1374 C1373 1.287 . S
C1374 C1375 1.524 . S
C1374 H1393 0.913 . S
C1375 H1351 0.950 . S
C1375 C1374 1.524 . S
C1375 C1376 1.415 . S
C1376 H1352 0.950 . S
C1376 C1371 1.363 . S
C1376 C1375 1.415 . S
C1377 H1353 0.951 . S
C1377 C1378 1.366 . S
C1377 C1379 1.388 . S
C1378 C1377 1.366 . S
C1378 C1382 1.385 . S
C1379 H1354 0.951 . S
C1379 C1377 1.388 . S
C1379 C1380 1.366 . S
C1380 C1379 1.366 . S
C1380 C1381 1.414 . S
C1380 C1383 1.499 . S
C1381 H1355 0.950 . S
C1381 C1380 1.414 . S
C1381 C1382 1.374 . S
C1382 H1356 0.950 . S
C1382 C1378 1.385 . S
C1382 C1381 1.374 . S
C1383 C1380 1.499 . S
C1383 C1384 1.373 1_565 S
C1383 C1385 1.389 1_556 S
C1384 H1357 0.950 . S
C1384 C1370 1.377 . S
C1384 C1383 1.373 1_545 S
C1385 C1369 1.377 . S
C1385 C1383 1.389 1_554 S
C1385 C1386 1.524 . S
C1386 C1385 1.524 . S
C1386 C1387 1.397 . S
C1386 C1391 1.363 . S
C1387 H1358 0.950 1_554 S
C1387 C1386 1.397 . S
C1387 C1388 1.334 . S
C1388 H1359 0.950 . S
C1388 C1387 1.334 . S
C1388 C1389 1.287 . S
C1389 C1388 1.287 . S
C1389 C1390 1.524 . S
C1389 H1392 0.999 . S
C1390 H1360 0.950 . S
C1390 C1389 1.524 . S
C1390 C1391 1.415 . S
C1391 H1361 0.950 . S
C1391 C1386 1.363 . S
C1391 C1390 1.415 . S
H1392 C1389 0.999 . S
H1393 C1374 0.913 . S
H1394 C1412 0.951 . S
H1395 C1414 0.951 . S
H1396 C1416 0.950 . S
H1397 C1417 0.950 . S
H1398 C1419 0.950 . S
H1399 C1422 0.950 . S
H1400 C1423 0.950 . S
H1401 C1425 0.950 . S
H1402 C1426 0.950 . S
H1403 C1427 0.951 . S
H1404 C1429 0.951 . S
H1405 C1431 0.950 . S
H1406 C1432 0.950 . S
H1407 C1434 0.950 . S
H1408 C1437 0.950 . S
H1409 C1438 0.950 . S
H1410 C1440 0.950 . S
H1411 C1441 0.950 . S
C1412 H1394 0.951 . S
C1412 C1413 1.366 . S
C1412 C1414 1.388 . S
C1413 C1412 1.366 . S
C1413 C1417 1.385 . S
C1414 H1395 0.951 . S
C1414 C1412 1.388 . S
C1414 C1415 1.366 . S
C1415 C1414 1.366 . S
C1415 C1416 1.414 . S
C1415 C1418 1.499 . S
C1416 H1396 0.950 . S
C1416 C1415 1.414 . S
C1416 C1417 1.374 . S
C1417 H1397 0.950 . S
C1417 C1413 1.385 . S
C1417 C1416 1.374 . S
C1418 C1415 1.499 . S
C1418 C1419 1.373 1_565 S
C1418 C1420 1.389 . S
C1419 H1398 0.950 . S
C1419 C1418 1.373 1_545 S
C1419 C1435 1.377 . S
C1420 C1418 1.389 . S
C1420 C1421 1.524 . S
C1420 C1434 1.377 . S
C1421 C1420 1.524 . S
C1421 C1422 1.397 . S
C1421 C1426 1.363 . S
C1422 H1399 0.950 . S
C1422 C1421 1.397 . S
C1422 C1423 1.334 . S
C1423 H1400 0.950 . S
C1423 C1422 1.334 . S
C1423 C1424 1.287 . S
C1424 C1423 1.287 . S
C1424 C1425 1.524 . S
C1424 H1443 0.913 . S
C1425 H1401 0.950 . S
C1425 C1424 1.524 . S
C1425 C1426 1.415 . S
C1426 H1402 0.950 . S
C1426 C1421 1.363 . S
C1426 C1425 1.415 . S
C1427 H1403 0.951 . S
C1427 C1428 1.366 . S
C1427 C1429 1.388 . S
C1428 C1427 1.366 . S
C1428 C1432 1.385 . S
C1429 H1404 0.951 . S
C1429 C1427 1.388 . S
C1429 C1430 1.366 . S
C1430 C1429 1.366 . S
C1430 C1431 1.414 . S
C1430 C1433 1.499 . S
C1431 H1405 0.950 . S
C1431 C1430 1.414 . S
C1431 C1432 1.374 . S
C1432 H1406 0.950 . S
C1432 C1428 1.385 . S
C1432 C1431 1.374 . S
C1433 C1430 1.499 . S
C1433 C1434 1.373 1_545 S
C1433 C1435 1.389 . S
C1434 H1407 0.950 . S
C1434 C1420 1.377 . S
C1434 C1433 1.373 1_565 S
C1435 C1419 1.377 . S
C1435 C1433 1.389 . S
C1435 C1436 1.524 . S
C1436 C1435 1.524 . S
C1436 C1437 1.397 . S
C1436 C1441 1.363 . S
C1437 H1408 0.950 . S
C1437 C1436 1.397 . S
C1437 C1438 1.334 . S
C1438 H1409 0.950 . S
C1438 C1437 1.334 . S
C1438 C1439 1.287 . S
C1439 C1438 1.287 . S
C1439 C1440 1.524 . S
C1439 H1442 0.999 . S
C1440 H1410 0.950 . S
C1440 C1439 1.524 . S
C1440 C1441 1.415 . S
C1441 H1411 0.950 . S
C1441 C1436 1.363 . S
C1441 C1440 1.415 . S
H1442 C1439 0.999 . S
H1443 C1424 0.913 . S
H1444 C1462 0.951 . S
H1445 C1464 0.951 . S
H1446 C1466 0.950 . S
H1447 C1467 0.950 . S
H1448 C1469 0.950 . S
H1449 C1472 0.950 . S
H1450 C1473 0.950 . S
H1451 C1475 0.950 . S
H1452 C1476 0.950 . S
H1453 C1477 0.951 . S
H1454 C1479 0.951 . S
H1455 C1481 0.950 . S
H1456 C1482 0.950 . S
H1457 C1484 0.950 . S
H1458 C1487 0.950 . S
H1459 C1488 0.950 . S
H1460 C1490 0.950 . S
H1461 C1491 0.950 . S
C1462 H1444 0.951 . S
C1462 C1463 1.366 . S
C1462 C1464 1.388 . S
C1463 C1462 1.366 . S
C1463 C1467 1.385 . S
C1464 H1445 0.951 . S
C1464 C1462 1.388 . S
C1464 C1465 1.366 . S
C1465 C1464 1.366 . S
C1465 C1466 1.414 . S
C1465 C1468 1.499 . S
C1466 H1446 0.950 . S
C1466 C1465 1.414 . S
C1466 C1467 1.374 . S
C1467 H1447 0.950 . S
C1467 C1463 1.385 . S
C1467 C1466 1.374 . S
C1468 C1465 1.499 . S
C1468 C1469 1.384 . S
C1468 C1470 1.389 . S
C1469 H1448 0.950 . S
C1469 C1468 1.384 . S
C1469 C1485 1.366 1_566 S
C1470 C1468 1.389 . S
C1470 C1471 1.524 . S
C1470 C1484 1.366 1_566 S
C1471 C1470 1.524 . S
C1471 C1472 1.397 . S
C1471 C1476 1.363 1_565 S
C1472 H1449 0.950 . S
C1472 C1471 1.397 . S
C1472 C1473 1.334 . S
C1473 H1450 0.950 . S
C1473 C1472 1.334 . S
C1473 C1474 1.287 . S
C1474 C1473 1.287 . S
C1474 C1475 1.524 1_565 S
C1474 H1493 0.913 . S
C1475 H1451 0.950 . S
C1475 C1474 1.524 1_545 S
C1475 C1476 1.415 . S
C1476 H1452 0.950 . S
C1476 C1471 1.363 1_545 S
C1476 C1475 1.415 . S
C1477 H1453 0.951 . S
C1477 C1478 1.366 . S
C1477 C1479 1.388 . S
C1478 C1477 1.366 . S
C1478 C1482 1.385 . S
C1479 H1454 0.951 . S
C1479 C1477 1.388 . S
C1479 C1480 1.366 . S
C1480 C1479 1.366 . S
C1480 C1481 1.414 . S
C1480 C1483 1.499 . S
C1481 H1455 0.950 . S
C1481 C1480 1.414 . S
C1481 C1482 1.374 . S
C1482 H1456 0.950 . S
C1482 C1478 1.385 . S
C1482 C1481 1.374 . S
C1483 C1480 1.499 . S
C1483 C1484 1.384 . S
C1483 C1485 1.389 . S
C1484 H1457 0.950 . S
C1484 C1470 1.366 1_544 S
C1484 C1483 1.384 . S
C1485 C1469 1.366 1_544 S
C1485 C1483 1.389 . S
C1485 C1486 1.524 . S
C1486 C1485 1.524 . S
C1486 C1487 1.397 . S
C1486 C1491 1.363 1_545 S
C1487 H1458 0.950 . S
C1487 C1486 1.397 . S
C1487 C1488 1.334 . S
C1488 H1459 0.950 . S
C1488 C1487 1.334 . S
C1488 C1489 1.287 . S
C1489 C1488 1.287 . S
C1489 C1490 1.524 1_545 S
C1489 H1492 0.999 . S
C1490 H1460 0.950 . S
C1490 C1489 1.524 1_565 S
C1490 C1491 1.415 . S
C1491 H1461 0.950 . S
C1491 C1486 1.363 1_565 S
C1491 C1490 1.415 . S
H1492 C1489 0.999 . S
H1493 C1474 0.913 . S
H1494 C1512 0.951 . S
H1495 C1514 0.951 . S
H1496 C1516 0.950 . S
H1497 C1517 0.950 . S
H1498 C1519 0.950 . S
H1499 C1522 0.950 . S
H1500 C1523 0.950 . S
H1501 C1525 0.950 . S
H1502 C1526 0.950 . S
H1503 C1527 0.951 . S
H1504 C1529 0.951 . S
H1505 C1531 0.950 . S
H1506 C1532 0.950 . S
H1507 C1534 0.950 . S
H1508 C1537 0.950 . S
H1509 C1538 0.950 . S
H1510 C1540 0.950 . S
H1511 C1541 0.950 . S
C1512 H1494 0.951 . S
C1512 C1513 1.366 . S
C1512 C1514 1.388 . S
C1513 C1512 1.366 . S
C1513 C1517 1.385 . S
C1514 H1495 0.951 . S
C1514 C1512 1.388 . S
C1514 C1515 1.366 . S
C1515 C1514 1.366 . S
C1515 C1516 1.414 . S
C1515 C1518 1.499 . S
C1516 H1496 0.950 . S
C1516 C1515 1.414 . S
C1516 C1517 1.374 . S
C1517 H1497 0.950 . S
C1517 C1513 1.385 . S
C1517 C1516 1.374 . S
C1518 C1515 1.499 . S
C1518 C1519 1.373 . S
C1518 C1520 1.389 . S
C1519 H1498 0.950 . S
C1519 C1518 1.373 . S
C1519 C1535 1.377 1_545 S
C1520 C1518 1.389 . S
C1520 C1521 1.524 . S
C1520 C1534 1.377 1_545 S
C1521 C1520 1.524 . S
C1521 C1522 1.397 . S
C1521 C1526 1.363 . S
C1522 H1499 0.950 . S
C1522 C1521 1.397 . S
C1522 C1523 1.334 . S
C1523 H1500 0.950 . S
C1523 C1522 1.334 . S
C1523 C1524 1.287 . S
C1524 C1523 1.287 . S
C1524 C1525 1.524 . S
C1524 H1543 0.913 . S
C1525 H1501 0.950 . S
C1525 C1524 1.524 . S
C1525 C1526 1.415 . S
C1526 H1502 0.950 . S
C1526 C1521 1.363 . S
C1526 C1525 1.415 . S
C1527 H1503 0.951 . S
C1527 C1528 1.366 . S
C1527 C1529 1.388 . S
C1528 C1527 1.366 . S
C1528 C1532 1.385 . S
C1529 H1504 0.951 . S
C1529 C1527 1.388 . S
C1529 C1530 1.366 . S
C1530 C1529 1.366 . S
C1530 C1531 1.414 . S
C1530 C1533 1.499 . S
C1531 H1505 0.950 . S
C1531 C1530 1.414 . S
C1531 C1532 1.374 . S
C1532 H1506 0.950 . S
C1532 C1528 1.385 . S
C1532 C1531 1.374 . S
C1533 C1530 1.499 . S
C1533 C1534 1.373 . S
C1533 C1535 1.389 . S
C1534 H1507 0.950 . S
C1534 C1520 1.377 1_565 S
C1534 C1533 1.373 . S
C1535 C1519 1.377 1_565 S
C1535 C1533 1.389 . S
C1535 C1536 1.524 . S
C1536 C1535 1.524 . S
C1536 C1537 1.397 . S
C1536 C1541 1.363 . S
C1537 H1508 0.950 . S
C1537 C1536 1.397 . S
C1537 C1538 1.334 . S
C1538 H1509 0.950 . S
C1538 C1537 1.334 . S
C1538 C1539 1.287 . S
C1539 C1538 1.287 . S
C1539 C1540 1.524 . S
C1539 H1542 0.999 . S
C1540 H1510 0.950 . S
C1540 C1539 1.524 . S
C1540 C1541 1.415 . S
C1541 H1511 0.950 . S
C1541 C1536 1.363 . S
C1541 C1540 1.415 . S
H1542 C1539 0.999 . S
H1543 C1524 0.913 . S
H1544 C1562 0.951 . S
H1545 C1564 0.951 . S
H1546 C1566 0.950 . S
H1547 C1567 0.950 . S
H1548 C1569 0.950 . S
H1549 C1572 0.950 . S
H1550 C1573 0.950 . S
H1551 C1575 0.950 . S
H1552 C1576 0.950 . S
H1553 C1577 0.951 . S
H1554 C1579 0.951 . S
H1555 C1581 0.950 . S
H1556 C1582 0.950 . S
H1557 C1584 0.950 . S
H1558 C1587 0.950 . S
H1559 C1588 0.950 . S
H1560 C1590 0.950 . S
H1561 C1591 0.950 . S
C1562 H1544 0.951 . S
C1562 C1563 1.366 . S
C1562 C1564 1.388 . S
C1563 C1562 1.366 . S
C1563 C1567 1.385 . S
C1564 H1545 0.951 . S
C1564 C1562 1.388 . S
C1564 C1565 1.366 . S
C1565 C1564 1.366 . S
C1565 C1566 1.414 . S
C1565 C1568 1.499 . S
C1566 H1546 0.950 . S
C1566 C1565 1.414 . S
C1566 C1567 1.374 . S
C1567 H1547 0.950 . S
C1567 C1563 1.385 . S
C1567 C1566 1.374 . S
C1568 C1565 1.499 . S
C1568 C1569 1.373 . S
C1568 C1570 1.370 1_554 S
C1569 H1548 0.950 . S
C1569 C1568 1.373 . S
C1569 C1585 1.396 . S
C1570 C1568 1.370 1_556 S
C1570 C1571 1.526 . S
C1570 C1584 1.396 . S
C1571 C1570 1.526 . S
C1571 C1572 1.397 1_556 S
C1571 C1576 1.363 . S
C1572 H1549 0.950 . S
C1572 C1571 1.397 1_554 S
C1572 C1573 1.334 . S
C1573 H1550 0.950 . S
C1573 C1572 1.334 . S
C1573 C1574 1.287 . S
C1574 C1573 1.287 . S
C1574 C1575 1.524 1_554 S
C1574 H1593 0.913 . S
C1575 H1551 0.950 . S
C1575 C1574 1.524 1_556 S
C1575 C1576 1.415 . S
C1576 H1552 0.950 . S
C1576 C1571 1.363 . S
C1576 C1575 1.415 . S
C1577 H1553 0.951 . S
C1577 C1578 1.366 . S
C1577 C1579 1.388 . S
C1578 C1577 1.366 . S
C1578 C1582 1.385 . S
C1579 H1554 0.951 . S
C1579 C1577 1.388 . S
C1579 C1580 1.366 . S
C1580 C1579 1.366 . S
C1580 C1581 1.414 . S
C1580 C1583 1.499 . S
C1581 H1555 0.950 . S
C1581 C1580 1.414 . S
C1581 C1582 1.374 . S
C1582 H1556 0.950 . S
C1582 C1578 1.385 . S
C1582 C1581 1.374 . S
C1583 C1580 1.499 . S
C1583 C1584 1.373 . S
C1583 C1585 1.370 1_556 S
C1584 H1557 0.950 . S
C1584 C1570 1.396 . S
C1584 C1583 1.373 . S
C1585 C1569 1.396 . S
C1585 C1583 1.370 1_554 S
C1585 C1586 1.526 . S
C1586 C1585 1.526 . S
C1586 C1587 1.397 1_554 S
C1586 C1591 1.363 . S
C1587 H1558 0.950 . S
C1587 C1586 1.397 1_556 S
C1587 C1588 1.334 . S
C1588 H1559 0.950 . S
C1588 C1587 1.334 . S
C1588 C1589 1.287 . S
C1589 C1588 1.287 . S
C1589 C1590 1.524 1_556 S
C1589 H1592 0.999 . S
C1590 H1560 0.950 . S
C1590 C1589 1.524 1_554 S
C1590 C1591 1.415 . S
C1591 H1561 0.950 . S
C1591 C1586 1.363 . S
C1591 C1590 1.415 . S
H1592 C1589 0.999 . S
H1593 C1574 0.913 . S
H1594 C1612 0.951 . S
H1595 C1614 0.951 . S
H1596 C1616 0.950 . S
H1597 C1617 0.950 . S
H1598 C1619 0.950 . S
H1599 C1622 0.950 . S
H1600 C1623 0.950 . S
H1601 C1625 0.950 . S
H1602 C1626 0.950 . S
H1603 C1627 0.951 . S
H1604 C1629 0.951 . S
H1605 C1631 0.950 . S
H1606 C1632 0.950 . S
H1607 C1634 0.950 . S
H1608 C1637 0.950 . S
H1609 C1638 0.950 . S
H1610 C1640 0.950 . S
H1611 C1641 0.950 . S
C1612 H1594 0.951 . S
C1612 C1613 1.366 . S
C1612 C1614 1.388 . S
C1613 C1612 1.366 . S
C1613 C1617 1.385 . S
C1614 H1595 0.951 . S
C1614 C1612 1.388 . S
C1614 C1615 1.366 . S
C1615 C1614 1.366 . S
C1615 C1616 1.414 . S
C1615 C1618 1.499 . S
C1616 H1596 0.950 . S
C1616 C1615 1.414 . S
C1616 C1617 1.374 . S
C1617 H1597 0.950 . S
C1617 C1613 1.385 . S
C1617 C1616 1.374 . S
C1618 C1615 1.499 . S
C1618 C1619 1.373 . S
C1618 C1620 1.389 . S
C1619 H1598 0.950 . S
C1619 C1618 1.373 . S
C1619 C1635 1.377 . S
C1620 C1618 1.389 . S
C1620 C1621 1.524 . S
C1620 C1634 1.377 . S
C1621 C1620 1.524 . S
C1621 C1622 1.397 . S
C1621 C1626 1.363 . S
C1622 H1599 0.950 . S
C1622 C1621 1.397 . S
C1622 C1623 1.334 . S
C1623 H1600 0.950 . S
C1623 C1622 1.334 . S
C1623 C1624 1.287 . S
C1624 C1623 1.287 . S
C1624 C1625 1.524 . S
C1624 H1643 0.913 . S
C1625 H1601 0.950 . S
C1625 C1624 1.524 . S
C1625 C1626 1.415 . S
C1626 H1602 0.950 . S
C1626 C1621 1.363 . S
C1626 C1625 1.415 . S
C1627 H1603 0.951 . S
C1627 C1628 1.366 . S
C1627 C1629 1.388 . S
C1628 C1627 1.366 . S
C1628 C1632 1.385 . S
C1629 H1604 0.951 . S
C1629 C1627 1.388 . S
C1629 C1630 1.366 . S
C1630 C1629 1.366 . S
C1630 C1631 1.414 . S
C1630 C1633 1.499 . S
C1631 H1605 0.950 . S
C1631 C1630 1.414 . S
C1631 C1632 1.374 . S
C1632 H1606 0.950 . S
C1632 C1628 1.385 . S
C1632 C1631 1.374 . S
C1633 C1630 1.499 . S
C1633 C1634 1.373 . S
C1633 C1635 1.389 . S
C1634 H1607 0.950 . S
C1634 C1620 1.377 . S
C1634 C1633 1.373 . S
C1635 C1619 1.377 . S
C1635 C1633 1.389 . S
C1635 C1636 1.524 . S
C1636 C1635 1.524 . S
C1636 C1637 1.397 . S
C1636 C1641 1.363 . S
C1637 H1608 0.950 . S
C1637 C1636 1.397 . S
C1637 C1638 1.334 . S
C1638 H1609 0.950 . S
C1638 C1637 1.334 . S
C1638 C1639 1.287 . S
C1639 C1638 1.287 . S
C1639 C1640 1.524 . S
C1639 H1642 0.999 . S
C1640 H1610 0.950 . S
C1640 C1639 1.524 . S
C1640 C1641 1.415 . S
C1641 H1611 0.950 . S
C1641 C1636 1.363 . S
C1641 C1640 1.415 . S
H1642 C1639 0.999 . S
H1643 C1624 0.913 . S
H1644 C1662 0.951 . S
H1645 C1664 0.951 . S
H1646 C1666 0.950 . S
H1647 C1667 0.950 . S
H1648 C1669 0.950 1_554 S
H1649 C1672 0.950 . S
H1650 C1673 0.950 . S
H1651 C1675 0.950 . S
H1652 C1676 0.950 . S
H1653 C1677 0.951 . S
H1654 C1679 0.951 . S
H1655 C1681 0.950 . S
H1656 C1682 0.950 . S
H1657 C1684 0.950 1_556 S
H1658 C1687 0.950 . S
H1659 C1688 0.950 . S
H1660 C1690 0.950 . S
H1661 C1691 0.950 . S
C1662 H1644 0.951 . S
C1662 C1663 1.366 . S
C1662 C1664 1.388 . S
C1663 C1662 1.366 . S
C1663 C1667 1.385 . S
C1664 H1645 0.951 . S
C1664 C1662 1.388 . S
C1664 C1665 1.366 . S
C1665 C1664 1.366 . S
C1665 C1666 1.414 . S
C1665 C1668 1.499 . S
C1666 H1646 0.950 . S
C1666 C1665 1.414 . S
C1666 C1667 1.374 . S
C1667 H1647 0.950 . S
C1667 C1663 1.385 . S
C1667 C1666 1.374 . S
C1668 C1665 1.499 . S
C1668 C1669 1.374 . S
C1668 C1670 1.389 . S
C1669 H1648 0.950 1_556 S
C1669 C1668 1.374 . S
C1669 C1685 1.375 1_556 S
C1670 C1668 1.389 . S
C1670 C1671 1.524 . S
C1670 C1684 1.375 1_556 S
C1671 C1670 1.524 . S
C1671 C1672 1.397 . S
C1671 C1676 1.363 . S
C1672 H1649 0.950 . S
C1672 C1671 1.397 . S
C1672 C1673 1.334 . S
C1673 H1650 0.950 . S
C1673 C1672 1.334 . S
C1673 C1674 1.287 . S
C1674 C1673 1.287 . S
C1674 C1675 1.524 . S
C1674 H1693 0.913 . S
C1675 H1651 0.950 . S
C1675 C1674 1.524 . S
C1675 C1676 1.415 . S
C1676 H1652 0.950 . S
C1676 C1671 1.363 . S
C1676 C1675 1.415 . S
C1677 H1653 0.951 . S
C1677 C1678 1.366 . S
C1677 C1679 1.388 . S
C1678 C1677 1.366 . S
C1678 C1682 1.385 . S
C1679 H1654 0.951 . S
C1679 C1677 1.388 . S
C1679 C1680 1.366 . S
C1680 C1679 1.366 . S
C1680 C1681 1.414 . S
C1680 C1683 1.499 . S
C1681 H1655 0.950 . S
C1681 C1680 1.414 . S
C1681 C1682 1.374 . S
C1682 H1656 0.950 . S
C1682 C1678 1.385 . S
C1682 C1681 1.374 . S
C1683 C1680 1.499 . S
C1683 C1684 1.374 . S
C1683 C1685 1.389 . S
C1684 H1657 0.950 1_554 S
C1684 C1670 1.375 1_554 S
C1684 C1683 1.374 . S
C1685 C1669 1.375 1_554 S
C1685 C1683 1.389 . S
C1685 C1686 1.524 . S
C1686 C1685 1.524 . S
C1686 C1687 1.397 . S
C1686 C1691 1.363 . S
C1687 H1658 0.950 . S
C1687 C1686 1.397 . S
C1687 C1688 1.334 . S
C1688 H1659 0.950 . S
C1688 C1687 1.334 . S
C1688 C1689 1.287 . S
C1689 C1688 1.287 . S
C1689 C1690 1.524 . S
C1689 H1692 0.999 . S
C1690 H1660 0.950 . S
C1690 C1689 1.524 . S
C1690 C1691 1.415 . S
C1691 H1661 0.950 . S
C1691 C1686 1.363 . S
C1691 C1690 1.415 . S
H1692 C1689 0.999 . S
H1693 C1674 0.913 . S
H1694 C1712 0.951 . S
H1695 C1714 0.951 . S
H1696 C1716 0.950 . S
H1697 C1717 0.950 . S
H1698 C1719 0.950 . S
H1699 C1722 0.950 . S
H1700 C1723 0.950 . S
H1701 C1725 0.950 . S
H1702 C1726 0.950 . S
H1703 C1727 0.951 . S
H1704 C1729 0.951 . S
H1705 C1731 0.950 . S
H1706 C1732 0.950 . S
H1707 C1734 0.950 . S
H1708 C1737 0.950 . S
H1709 C1738 0.950 . S
H1710 C1740 0.950 . S
H1711 C1741 0.950 . S
C1712 H1694 0.951 . S
C1712 C1713 1.366 . S
C1712 C1714 1.388 . S
C1713 C1712 1.366 . S
C1713 C1717 1.385 . S
C1714 H1695 0.951 . S
C1714 C1712 1.388 . S
C1714 C1715 1.366 . S
C1715 C1714 1.366 . S
C1715 C1716 1.414 . S
C1715 C1718 1.499 . S
C1716 H1696 0.950 . S
C1716 C1715 1.414 . S
C1716 C1717 1.374 . S
C1717 H1697 0.950 . S
C1717 C1713 1.385 . S
C1717 C1716 1.374 . S
C1718 C1715 1.499 . S
C1718 C1719 1.373 . S
C1718 C1720 1.389 . S
C1719 H1698 0.950 . S
C1719 C1718 1.373 . S
C1719 C1735 1.377 . S
C1720 C1718 1.389 . S
C1720 C1721 1.524 . S
C1720 C1734 1.377 . S
C1721 C1720 1.524 . S
C1721 C1722 1.397 . S
C1721 C1726 1.363 . S
C1722 H1699 0.950 . S
C1722 C1721 1.397 . S
C1722 C1723 1.334 . S
C1723 H1700 0.950 . S
C1723 C1722 1.334 . S
C1723 C1724 1.287 . S
C1724 C1723 1.287 . S
C1724 C1725 1.524 . S
C1724 H1743 0.913 . S
C1725 H1701 0.950 . S
C1725 C1724 1.524 . S
C1725 C1726 1.415 . S
C1726 H1702 0.950 . S
C1726 C1721 1.363 . S
C1726 C1725 1.415 . S
C1727 H1703 0.951 . S
C1727 C1728 1.366 . S
C1727 C1729 1.388 . S
C1728 C1727 1.366 . S
C1728 C1732 1.385 . S
C1729 H1704 0.951 . S
C1729 C1727 1.388 . S
C1729 C1730 1.366 . S
C1730 C1729 1.366 . S
C1730 C1731 1.414 . S
C1730 C1733 1.499 . S
C1731 H1705 0.950 . S
C1731 C1730 1.414 . S
C1731 C1732 1.374 . S
C1732 H1706 0.950 . S
C1732 C1728 1.385 . S
C1732 C1731 1.374 . S
C1733 C1730 1.499 . S
C1733 C1734 1.373 . S
C1733 C1735 1.389 . S
C1734 H1707 0.950 . S
C1734 C1720 1.377 . S
C1734 C1733 1.373 . S
C1735 C1719 1.377 . S
C1735 C1733 1.389 . S
C1735 C1736 1.524 . S
C1736 C1735 1.524 . S
C1736 C1737 1.397 . S
C1736 C1741 1.363 . S
C1737 H1708 0.950 . S
C1737 C1736 1.397 . S
C1737 C1738 1.334 . S
C1738 H1709 0.950 . S
C1738 C1737 1.334 . S
C1738 C1739 1.287 . S
C1739 C1738 1.287 . S
C1739 C1740 1.524 . S
C1739 H1742 0.999 . S
C1740 H1710 0.950 . S
C1740 C1739 1.524 . S
C1740 C1741 1.415 . S
C1741 H1711 0.950 . S
C1741 C1736 1.363 . S
C1741 C1740 1.415 . S
H1742 C1739 0.999 . S
H1743 C1724 0.913 . S
H1744 C1762 0.951 . S
H1745 C1764 0.951 . S
H1746 C1766 0.950 . S
H1747 C1767 0.950 . S
H1748 C1769 0.950 . S
H1749 C1772 0.950 . S
H1750 C1773 0.950 . S
H1751 C1775 0.950 . S
H1752 C1776 0.950 . S
H1753 C1777 0.951 . S
H1754 C1779 0.946 1_556 S
H1755 C1781 0.954 . S
H1756 C1782 0.950 . S
H1757 C1784 0.950 . S
H1758 C1787 0.950 . S
H1759 C1788 0.950 . S
H1760 C1790 0.950 . S
H1761 C1791 0.950 . S
C1762 H1744 0.951 . S
C1762 C1763 1.366 . S
C1762 C1764 1.388 . S
C1763 C1762 1.366 . S
C1763 C1767 1.385 . S
C1764 H1745 0.951 . S
C1764 C1762 1.388 . S
C1764 C1765 1.366 . S
C1765 C1764 1.366 . S
C1765 C1766 1.414 . S
C1765 C1768 1.499 . S
C1766 H1746 0.950 . S
C1766 C1765 1.414 . S
C1766 C1767 1.374 . S
C1767 H1747 0.950 . S
C1767 C1763 1.385 . S
C1767 C1766 1.374 . S
C1768 C1765 1.499 . S
C1768 C1769 1.373 . S
C1768 C1770 1.389 . S
C1769 H1748 0.950 . S
C1769 C1768 1.373 . S
C1769 C1785 1.377 . S
C1770 C1768 1.389 . S
C1770 C1771 1.524 . S
C1770 C1784 1.377 . S
C1771 C1770 1.524 . S
C1771 C1772 1.397 . S
C1771 C1776 1.363 . S
C1772 H1749 0.950 . S
C1772 C1771 1.397 . S
C1772 C1773 1.334 . S
C1773 H1750 0.950 . S
C1773 C1772 1.334 . S
C1773 C1774 1.287 . S
C1774 C1773 1.287 . S
C1774 C1775 1.524 . S
C1774 H1793 0.913 . S
C1775 H1751 0.950 . S
C1775 C1774 1.524 . S
C1775 C1776 1.415 . S
C1776 H1752 0.950 . S
C1776 C1771 1.363 . S
C1776 C1775 1.415 . S
C1777 H1753 0.951 . S
C1777 C1778 1.366 . S
C1777 C1779 1.388 . S
C1778 C1777 1.366 . S
C1778 C1782 1.385 . S
C1779 H1754 0.946 1_554 S
C1779 C1777 1.388 . S
C1779 C1780 1.366 1_554 S
C1780 C1779 1.366 1_556 S
C1780 C1781 1.414 1_556 S
C1780 C1783 1.499 . S
C1781 H1755 0.954 . S
C1781 C1780 1.414 1_554 S
C1781 C1782 1.374 . S
C1782 H1756 0.950 . S
C1782 C1778 1.385 . S
C1782 C1781 1.374 . S
C1783 C1780 1.499 . S
C1783 C1784 1.373 . S
C1783 C1785 1.389 . S
C1784 H1757 0.950 . S
C1784 C1770 1.377 . S
C1784 C1783 1.373 . S
C1785 C1769 1.377 . S
C1785 C1783 1.389 . S
C1785 C1786 1.524 . S
C1786 C1785 1.524 . S
C1786 C1787 1.397 1_556 S
C1786 C1791 1.363 . S
C1787 H1758 0.950 . S
C1787 C1786 1.397 1_554 S
C1787 C1788 1.334 . S
C1788 H1759 0.950 . S
C1788 C1787 1.334 . S
C1788 C1789 1.287 . S
C1789 C1788 1.287 . S
C1789 C1790 1.524 . S
C1789 H1792 0.999 . S
C1790 H1760 0.950 . S
C1790 C1789 1.524 . S
C1790 C1791 1.415 1_554 S
C1791 H1761 0.950 . S
C1791 C1786 1.363 . S
C1791 C1790 1.415 1_556 S
H1792 C1789 0.999 . S
H1793 C1774 0.913 . S
H1794 C1812 0.951 . S
H1795 C1814 0.951 . S
H1796 C1816 0.950 . S
H1797 C1817 0.950 . S
H1798 C1819 0.950 . S
H1799 C1822 0.950 . S
H1800 C1823 0.950 . S
H1801 C1825 0.950 . S
H1802 C1826 0.950 . S
H1803 C1827 0.951 . S
H1804 C1829 0.951 . S
H1805 C1831 0.950 . S
H1806 C1832 0.950 . S
H1807 C1834 0.950 . S
H1808 C1837 0.950 . S
H1809 C1838 0.950 . S
H1810 C1840 0.950 . S
H1811 C1841 0.950 . S
C1812 H1794 0.951 . S
C1812 C1813 1.366 . S
C1812 C1814 1.388 . S
C1813 C1812 1.366 . S
C1813 C1817 1.385 . S
C1814 H1795 0.951 . S
C1814 C1812 1.388 . S
C1814 C1815 1.366 . S
C1815 C1814 1.366 . S
C1815 C1816 1.414 . S
C1815 C1818 1.499 . S
C1816 H1796 0.950 . S
C1816 C1815 1.414 . S
C1816 C1817 1.374 . S
C1817 H1797 0.950 . S
C1817 C1813 1.385 . S
C1817 C1816 1.374 . S
C1818 C1815 1.499 . S
C1818 C1819 1.373 . S
C1818 C1820 1.389 . S
C1819 H1798 0.950 . S
C1819 C1818 1.373 . S
C1819 C1835 1.377 . S
C1820 C1818 1.389 . S
C1820 C1821 1.524 . S
C1820 C1834 1.377 . S
C1821 C1820 1.524 . S
C1821 C1822 1.397 . S
C1821 C1826 1.363 . S
C1822 H1799 0.950 . S
C1822 C1821 1.397 . S
C1822 C1823 1.334 . S
C1823 H1800 0.950 . S
C1823 C1822 1.334 . S
C1823 C1824 1.287 . S
C1824 C1823 1.287 . S
C1824 C1825 1.524 . S
C1824 H1843 0.913 . S
C1825 H1801 0.950 . S
C1825 C1824 1.524 . S
C1825 C1826 1.415 . S
C1826 H1802 0.950 . S
C1826 C1821 1.363 . S
C1826 C1825 1.415 . S
C1827 H1803 0.951 . S
C1827 C1828 1.366 . S
C1827 C1829 1.388 . S
C1828 C1827 1.366 . S
C1828 C1832 1.385 . S
C1829 H1804 0.951 . S
C1829 C1827 1.388 . S
C1829 C1830 1.366 . S
C1830 C1829 1.366 . S
C1830 C1831 1.414 . S
C1830 C1833 1.499 . S
C1831 H1805 0.950 . S
C1831 C1830 1.414 . S
C1831 C1832 1.374 . S
C1832 H1806 0.950 . S
C1832 C1828 1.385 . S
C1832 C1831 1.374 . S
C1833 C1830 1.499 . S
C1833 C1834 1.373 . S
C1833 C1835 1.389 . S
C1834 H1807 0.950 . S
C1834 C1820 1.377 . S
C1834 C1833 1.373 . S
C1835 C1819 1.377 . S
C1835 C1833 1.389 . S
C1835 C1836 1.524 . S
C1836 C1835 1.524 . S
C1836 C1837 1.397 . S
C1836 C1841 1.363 . S
C1837 H1808 0.950 . S
C1837 C1836 1.397 . S
C1837 C1838 1.334 . S
C1838 H1809 0.950 . S
C1838 C1837 1.334 . S
C1838 C1839 1.287 . S
C1839 C1838 1.287 . S
C1839 C1840 1.524 . S
C1839 H1842 0.999 . S
C1840 H1810 0.950 . S
C1840 C1839 1.524 . S
C1840 C1841 1.415 . S
C1841 H1811 0.950 . S
C1841 C1836 1.363 . S
C1841 C1840 1.415 . S
H1842 C1839 0.999 . S
H1843 C1824 0.913 . S
H1844 C1862 0.951 . S
H1845 C1864 0.951 1_554 S
H1846 C1866 0.950 . S
H1847 C1867 0.950 . S
H1848 C1869 0.950 . S
H1849 C1872 0.950 . S
H1850 C1873 0.950 . S
H1851 C1875 0.950 . S
H1852 C1876 0.950 . S
H1853 C1877 0.951 . S
H1854 C1879 0.951 . S
H1855 C1881 0.950 . S
H1856 C1882 0.950 . S
H1857 C1884 0.950 . S
H1858 C1887 0.950 . S
H1859 C1888 0.950 . S
H1860 C1890 0.950 . S
H1861 C1891 0.950 . S
C1862 H1844 0.951 . S
C1862 C1863 1.366 . S
C1862 C1864 1.388 . S
C1863 C1862 1.366 . S
C1863 C1867 1.385 . S
C1864 H1845 0.951 1_556 S
C1864 C1862 1.388 . S
C1864 C1865 1.366 1_556 S
C1865 C1864 1.366 1_554 S
C1865 C1866 1.414 1_554 S
C1865 C1868 1.499 . S
C1866 H1846 0.950 . S
C1866 C1865 1.414 1_556 S
C1866 C1867 1.374 . S
C1867 H1847 0.950 . S
C1867 C1863 1.385 . S
C1867 C1866 1.374 . S
C1868 C1865 1.499 . S
C1868 C1869 1.373 . S
C1868 C1870 1.389 . S
C1869 H1848 0.950 . S
C1869 C1868 1.373 . S
C1869 C1885 1.377 . S
C1870 C1868 1.389 . S
C1870 C1871 1.524 . S
C1870 C1884 1.377 . S
C1871 C1870 1.524 . S
C1871 C1872 1.397 1_554 S
C1871 C1876 1.363 . S
C1872 H1849 0.950 . S
C1872 C1871 1.397 1_556 S
C1872 C1873 1.334 . S
C1873 H1850 0.950 . S
C1873 C1872 1.334 . S
C1873 C1874 1.287 . S
C1874 C1873 1.287 . S
C1874 C1875 1.524 1_556 S
C1874 H1893 0.913 . S
C1875 H1851 0.950 . S
C1875 C1874 1.524 1_554 S
C1875 C1876 1.415 . S
C1876 H1852 0.950 . S
C1876 C1871 1.363 . S
C1876 C1875 1.415 . S
C1877 H1853 0.951 . S
C1877 C1878 1.366 . S
C1877 C1879 1.388 . S
C1878 C1877 1.366 . S
C1878 C1882 1.385 . S
C1879 H1854 0.951 . S
C1879 C1877 1.388 . S
C1879 C1880 1.366 . S
C1880 C1879 1.366 . S
C1880 C1881 1.414 . S
C1880 C1883 1.499 . S
C1881 H1855 0.950 . S
C1881 C1880 1.414 . S
C1881 C1882 1.374 . S
C1882 H1856 0.950 . S
C1882 C1878 1.385 . S
C1882 C1881 1.374 . S
C1883 C1880 1.499 . S
C1883 C1884 1.373 . S
C1883 C1885 1.389 . S
C1884 H1857 0.950 . S
C1884 C1870 1.377 . S
C1884 C1883 1.373 . S
C1885 C1869 1.377 . S
C1885 C1883 1.389 . S
C1885 C1886 1.524 . S
C1886 C1885 1.524 . S
C1886 C1887 1.397 . S
C1886 C1891 1.363 . S
C1887 H1858 0.950 . S
C1887 C1886 1.397 . S
C1887 C1888 1.334 . S
C1888 H1859 0.950 . S
C1888 C1887 1.334 . S
C1888 C1889 1.287 . S
C1889 C1888 1.287 . S
C1889 C1890 1.524 . S
C1889 H1892 0.999 . S
C1890 H1860 0.950 . S
C1890 C1889 1.524 . S
C1890 C1891 1.415 . S
C1891 H1861 0.950 . S
C1891 C1886 1.363 . S
C1891 C1890 1.415 . S
H1892 C1889 0.999 . S
H1893 C1874 0.913 . S
H1894 C1912 0.951 . S
H1895 C1914 0.951 . S
H1896 C1916 0.950 . S
H1897 C1917 0.950 . S
H1898 C1919 0.950 . S
H1899 C1922 0.950 . S
H1900 C1923 0.950 . S
H1901 C1925 0.950 . S
H1902 C1926 0.950 . S
H1903 C1927 0.951 . S
H1904 C1929 0.951 . S
H1905 C1931 0.950 . S
H1906 C1932 0.950 . S
H1907 C1934 0.950 . S
H1908 C1937 0.950 . S
H1909 C1938 0.950 . S
H1910 C1940 0.950 . S
H1911 C1941 0.950 . S
C1912 H1894 0.951 . S
C1912 C1913 1.366 . S
C1912 C1914 1.388 . S
C1913 C1912 1.366 . S
C1913 C1917 1.385 . S
C1914 H1895 0.951 . S
C1914 C1912 1.388 . S
C1914 C1915 1.366 . S
C1915 C1914 1.366 . S
C1915 C1916 1.414 . S
C1915 C1918 1.499 . S
C1916 H1896 0.950 . S
C1916 C1915 1.414 . S
C1916 C1917 1.374 . S
C1917 H1897 0.950 . S
C1917 C1913 1.385 . S
C1917 C1916 1.374 . S
C1918 C1915 1.499 . S
C1918 C1919 1.373 . S
C1918 C1920 1.389 . S
C1919 H1898 0.950 . S
C1919 C1918 1.373 . S
C1919 C1935 1.377 . S
C1920 C1918 1.389 . S
C1920 C1921 1.524 . S
C1920 C1934 1.377 . S
C1921 C1920 1.524 . S
C1921 C1922 1.397 . S
C1921 C1926 1.363 . S
C1922 H1899 0.950 . S
C1922 C1921 1.397 . S
C1922 C1923 1.334 . S
C1923 H1900 0.950 . S
C1923 C1922 1.334 . S
C1923 C1924 1.287 . S
C1924 C1923 1.287 . S
C1924 C1925 1.524 . S
C1924 H1943 0.913 . S
C1925 H1901 0.950 . S
C1925 C1924 1.524 . S
C1925 C1926 1.415 . S
C1926 H1902 0.950 . S
C1926 C1921 1.363 . S
C1926 C1925 1.415 . S
C1927 H1903 0.951 . S
C1927 C1928 1.366 . S
C1927 C1929 1.388 . S
C1928 C1927 1.366 . S
C1928 C1932 1.385 . S
C1929 H1904 0.951 . S
C1929 C1927 1.388 . S
C1929 C1930 1.366 . S
C1930 C1929 1.366 . S
C1930 C1931 1.414 . S
C1930 C1933 1.499 . S
C1931 H1905 0.950 . S
C1931 C1930 1.414 . S
C1931 C1932 1.374 . S
C1932 H1906 0.950 . S
C1932 C1928 1.385 . S
C1932 C1931 1.374 . S
C1933 C1930 1.499 . S
C1933 C1934 1.373 . S
C1933 C1935 1.389 . S
C1934 H1907 0.950 . S
C1934 C1920 1.377 . S
C1934 C1933 1.373 . S
C1935 C1919 1.377 . S
C1935 C1933 1.389 . S
C1935 C1936 1.524 . S
C1936 C1935 1.524 . S
C1936 C1937 1.397 . S
C1936 C1941 1.363 . S
C1937 H1908 0.950 . S
C1937 C1936 1.397 . S
C1937 C1938 1.334 . S
C1938 H1909 0.950 . S
C1938 C1937 1.334 . S
C1938 C1939 1.287 . S
C1939 C1938 1.287 . S
C1939 C1940 1.524 . S
C1939 H1942 0.999 . S
C1940 H1910 0.950 . S
C1940 C1939 1.524 . S
C1940 C1941 1.415 . S
C1941 H1911 0.950 . S
C1941 C1936 1.363 . S
C1941 C1940 1.415 . S
H1942 C1939 0.999 . S
H1943 C1924 0.913 . S
H1944 C1962 0.951 . S
H1945 C1964 0.951 . S
H1946 C1966 0.950 . S
H1947 C1967 0.950 . S
H1948 C1969 0.950 . S
H1949 C1972 0.950 . S
H1950 C1973 0.950 . S
H1951 C1975 0.950 . S
H1952 C1976 0.950 . S
H1953 C1977 0.951 . S
H1954 C1979 0.951 1_554 S
H1955 C1981 0.950 . S
H1956 C1982 0.950 . S
H1957 C1984 0.950 . S
H1958 C1987 0.950 . S
H1959 C1988 0.950 . S
H1960 C1990 0.950 . S
H1961 C1991 0.950 . S
C1962 H1944 0.951 . S
C1962 C1963 1.366 . S
C1962 C1964 1.388 . S
C1963 C1962 1.366 . S
C1963 C1967 1.385 . S
C1964 H1945 0.951 . S
C1964 C1962 1.388 . S
C1964 C1965 1.366 . S
C1965 C1964 1.366 . S
C1965 C1966 1.414 . S
C1965 C1968 1.499 . S
C1966 H1946 0.950 . S
C1966 C1965 1.414 . S
C1966 C1967 1.374 . S
C1967 H1947 0.950 . S
C1967 C1963 1.385 . S
C1967 C1966 1.374 . S
C1968 C1965 1.499 . S
C1968 C1969 1.373 . S
C1968 C1970 1.389 . S
C1969 H1948 0.950 . S
C1969 C1968 1.373 . S
C1969 C1985 1.377 . S
C1970 C1968 1.389 . S
C1970 C1971 1.524 . S
C1970 C1984 1.377 . S
C1971 C1970 1.524 . S
C1971 C1972 1.397 . S
C1971 C1976 1.363 . S
C1972 H1949 0.950 . S
C1972 C1971 1.397 . S
C1972 C1973 1.334 . S
C1973 H1950 0.950 . S
C1973 C1972 1.334 . S
C1973 C1974 1.287 . S
C1974 C1973 1.287 . S
C1974 C1975 1.524 . S
C1974 H1993 0.913 . S
C1975 H1951 0.950 . S
C1975 C1974 1.524 . S
C1975 C1976 1.415 . S
C1976 H1952 0.950 . S
C1976 C1971 1.363 . S
C1976 C1975 1.415 . S
C1977 H1953 0.951 . S
C1977 C1978 1.366 . S
C1977 C1979 1.388 . S
C1978 C1977 1.366 . S
C1978 C1982 1.385 . S
C1979 H1954 0.951 1_556 S
C1979 C1977 1.388 . S
C1979 C1980 1.366 1_556 S
C1980 C1979 1.366 1_554 S
C1980 C1981 1.414 1_554 S
C1980 C1983 1.499 . S
C1981 H1955 0.950 . S
C1981 C1980 1.414 1_556 S
C1981 C1982 1.374 . S
C1982 H1956 0.950 . S
C1982 C1978 1.385 . S
C1982 C1981 1.374 . S
C1983 C1980 1.499 . S
C1983 C1984 1.373 . S
C1983 C1985 1.389 . S
C1984 H1957 0.950 . S
C1984 C1970 1.377 . S
C1984 C1983 1.373 . S
C1985 C1969 1.377 . S
C1985 C1983 1.389 . S
C1985 C1986 1.524 . S
C1986 C1985 1.524 . S
C1986 C1987 1.397 1_554 S
C1986 C1991 1.363 . S
C1987 H1958 0.950 . S
C1987 C1986 1.397 1_556 S
C1987 C1988 1.334 . S
C1988 H1959 0.950 . S
C1988 C1987 1.334 . S
C1988 C1989 1.287 . S
C1989 C1988 1.287 . S
C1989 C1990 1.524 1_556 S
C1989 H1992 0.999 . S
C1990 H1960 0.950 . S
C1990 C1989 1.524 1_554 S
C1990 C1991 1.415 . S
C1991 H1961 0.950 . S
C1991 C1986 1.363 . S
C1991 C1990 1.415 . S
H1992 C1989 0.999 . S
H1993 C1974 0.913 . S
H1994 C2012 0.951 . S
H1995 C2014 0.951 . S
H1996 C2016 0.950 . S
H1997 C2017 0.950 . S
H1998 C2019 0.950 . S
H1999 C2022 0.950 . S
H2000 C2023 0.950 . S
H2001 C2025 0.950 . S
H2002 C2026 0.950 . S
H2003 C2027 0.951 . S
H2004 C2029 0.951 . S
H2005 C2031 0.950 . S
H2006 C2032 0.950 . S
H2007 C2034 0.950 . S
H2008 C2037 0.950 . S
H2009 C2038 0.950 . S
H2010 C2040 0.950 . S
H2011 C2041 0.950 . S
C2012 H1994 0.951 . S
C2012 C2013 1.366 . S
C2012 C2014 1.388 . S
C2013 C2012 1.366 . S
C2013 C2017 1.385 . S
C2014 H1995 0.951 . S
C2014 C2012 1.388 . S
C2014 C2015 1.366 . S
C2015 C2014 1.366 . S
C2015 C2016 1.414 . S
C2015 C2018 1.499 . S
C2016 H1996 0.950 . S
C2016 C2015 1.414 . S
C2016 C2017 1.374 . S
C2017 H1997 0.950 . S
C2017 C2013 1.385 . S
C2017 C2016 1.374 . S
C2018 C2015 1.499 . S
C2018 C2019 1.373 . S
C2018 C2020 1.389 . S
C2019 H1998 0.950 . S
C2019 C2018 1.373 . S
C2019 C2035 1.377 . S
C2020 C2018 1.389 . S
C2020 C2021 1.524 . S
C2020 C2034 1.377 . S
C2021 C2020 1.524 . S
C2021 C2022 1.397 . S
C2021 C2026 1.363 . S
C2022 H1999 0.950 . S
C2022 C2021 1.397 . S
C2022 C2023 1.334 . S
C2023 H2000 0.950 . S
C2023 C2022 1.334 . S
C2023 C2024 1.287 . S
C2024 C2023 1.287 . S
C2024 C2025 1.524 . S
C2024 H2043 0.913 . S
C2025 H2001 0.950 . S
C2025 C2024 1.524 . S
C2025 C2026 1.415 . S
C2026 H2002 0.950 . S
C2026 C2021 1.363 . S
C2026 C2025 1.415 . S
C2027 H2003 0.951 . S
C2027 C2028 1.366 . S
C2027 C2029 1.388 . S
C2028 C2027 1.366 . S
C2028 C2032 1.385 . S
C2029 H2004 0.951 . S
C2029 C2027 1.388 . S
C2029 C2030 1.366 . S
C2030 C2029 1.366 . S
C2030 C2031 1.414 . S
C2030 C2033 1.499 . S
C2031 H2005 0.950 . S
C2031 C2030 1.414 . S
C2031 C2032 1.374 . S
C2032 H2006 0.950 . S
C2032 C2028 1.385 . S
C2032 C2031 1.374 . S
C2033 C2030 1.499 . S
C2033 C2034 1.373 . S
C2033 C2035 1.389 . S
C2034 H2007 0.950 . S
C2034 C2020 1.377 . S
C2034 C2033 1.373 . S
C2035 C2019 1.377 . S
C2035 C2033 1.389 . S
C2035 C2036 1.524 . S
C2036 C2035 1.524 . S
C2036 C2037 1.397 . S
C2036 C2041 1.363 . S
C2037 H2008 0.950 . S
C2037 C2036 1.397 . S
C2037 C2038 1.334 . S
C2038 H2009 0.950 . S
C2038 C2037 1.334 . S
C2038 C2039 1.287 . S
C2039 C2038 1.287 . S
C2039 C2040 1.524 . S
C2039 H2042 0.999 . S
C2040 H2010 0.950 . S
C2040 C2039 1.524 . S
C2040 C2041 1.415 . S
C2041 H2011 0.950 . S
C2041 C2036 1.363 . S
C2041 C2040 1.415 . S
H2042 C2039 0.999 . S
H2043 C2024 0.913 . S
H2044 C2062 0.951 . S
H2045 C2064 0.951 . S
H2046 C2066 0.950 . S
H2047 C2067 0.950 . S
H2048 C2069 0.950 . S
H2049 C2072 0.950 . S
H2050 C2073 0.950 . S
H2051 C2075 0.950 1_554 S
H2052 C2076 0.950 . S
H2053 C2077 0.951 . S
H2054 C2079 0.951 . S
H2055 C2081 0.950 . S
H2056 C2082 0.950 . S
H2057 C2084 0.950 . S
H2058 C2087 0.950 . S
H2059 C2088 0.950 . S
H2060 C2090 0.950 . S
H2061 C2091 0.950 . S
C2062 H2044 0.951 . S
C2062 C2063 1.366 . S
C2062 C2064 1.388 . S
C2063 C2062 1.366 . S
C2063 C2067 1.385 . S
C2064 H2045 0.951 . S
C2064 C2062 1.388 . S
C2064 C2065 1.366 1_554 S
C2065 C2064 1.366 1_556 S
C2065 C2066 1.414 . S
C2065 C2068 1.499 . S
C2066 H2046 0.950 . S
C2066 C2065 1.414 . S
C2066 C2067 1.374 1_556 S
C2067 H2047 0.950 . S
C2067 C2063 1.385 . S
C2067 C2066 1.374 1_554 S
C2068 C2065 1.499 . S
C2068 C2069 1.373 . S
C2068 C2070 1.389 . S
C2069 H2048 0.950 . S
C2069 C2068 1.373 . S
C2069 C2085 1.377 . S
C2070 C2068 1.389 . S
C2070 C2071 1.524 . S
C2070 C2084 1.377 . S
C2071 C2070 1.524 . S
C2071 C2072 1.397 . S
C2071 C2076 1.363 . S
C2072 H2049 0.950 . S
C2072 C2071 1.397 . S
C2072 C2073 1.334 . S
C2073 H2050 0.950 . S
C2073 C2072 1.334 . S
C2073 C2074 1.287 . S
C2074 C2073 1.287 . S
C2074 C2075 1.524 . S
C2074 H2093 0.913 1_556 S
C2075 H2051 0.950 1_556 S
C2075 C2074 1.524 . S
C2075 C2076 1.415 . S
C2076 H2052 0.950 . S
C2076 C2071 1.363 . S
C2076 C2075 1.415 . S
C2077 H2053 0.951 . S
C2077 C2078 1.366 . S
C2077 C2079 1.388 . S
C2078 C2077 1.366 . S
C2078 C2082 1.385 . S
C2079 H2054 0.951 . S
C2079 C2077 1.388 . S
C2079 C2080 1.366 . S
C2080 C2079 1.366 . S
C2080 C2081 1.414 . S
C2080 C2083 1.499 . S
C2081 H2055 0.950 . S
C2081 C2080 1.414 . S
C2081 C2082 1.374 . S
C2082 H2056 0.950 . S
C2082 C2078 1.385 . S
C2082 C2081 1.374 . S
C2083 C2080 1.499 . S
C2083 C2084 1.373 . S
C2083 C2085 1.389 . S
C2084 H2057 0.950 . S
C2084 C2070 1.377 . S
C2084 C2083 1.373 . S
C2085 C2069 1.377 . S
C2085 C2083 1.389 . S
C2085 C2086 1.524 . S
C2086 C2085 1.524 . S
C2086 C2087 1.397 . S
C2086 C2091 1.363 . S
C2087 H2058 0.950 . S
C2087 C2086 1.397 . S
C2087 C2088 1.334 . S
C2088 H2059 0.950 . S
C2088 C2087 1.334 . S
C2088 C2089 1.287 . S
C2089 C2088 1.287 . S
C2089 C2090 1.524 . S
C2089 H2092 0.999 . S
C2090 H2060 0.950 . S
C2090 C2089 1.524 . S
C2090 C2091 1.415 . S
C2091 H2061 0.950 . S
C2091 C2086 1.363 . S
C2091 C2090 1.415 . S
H2092 C2089 0.999 . S
H2093 C2074 0.913 1_554 S
H2094 C2112 0.951 . S
H2095 C2114 0.951 . S
H2096 C2116 0.950 . S
H2097 C2117 0.950 . S
H2098 C2119 0.950 . S
H2099 C2122 0.950 . S
H2100 C2123 0.950 . S
H2101 C2125 0.950 . S
H2102 C2126 0.950 . S
H2103 C2127 0.951 . S
H2104 C2129 0.951 . S
H2105 C2131 0.950 . S
H2106 C2132 0.950 . S
H2107 C2134 0.950 . S
H2108 C2137 0.950 . S
H2109 C2138 0.950 . S
H2110 C2140 0.950 . S
H2111 C2141 0.950 . S
C2112 H2094 0.951 . S
C2112 C2113 1.366 . S
C2112 C2114 1.388 . S
C2113 C2112 1.366 . S
C2113 C2117 1.385 . S
C2114 H2095 0.951 . S
C2114 C2112 1.388 . S
C2114 C2115 1.366 . S
C2115 C2114 1.366 . S
C2115 C2116 1.414 . S
C2115 C2118 1.499 . S
C2116 H2096 0.950 . S
C2116 C2115 1.414 . S
C2116 C2117 1.374 . S
C2117 H2097 0.950 . S
C2117 C2113 1.385 . S
C2117 C2116 1.374 . S
C2118 C2115 1.499 . S
C2118 C2119 1.373 . S
C2118 C2120 1.389 . S
C2119 H2098 0.950 . S
C2119 C2118 1.373 . S
C2119 C2135 1.377 . S
C2120 C2118 1.389 . S
C2120 C2121 1.524 . S
C2120 C2134 1.377 . S
C2121 C2120 1.524 . S
C2121 C2122 1.397 . S
C2121 C2126 1.363 . S
C2122 H2099 0.950 . S
C2122 C2121 1.397 . S
C2122 C2123 1.334 . S
C2123 H2100 0.950 . S
C2123 C2122 1.334 . S
C2123 C2124 1.287 . S
C2124 C2123 1.287 . S
C2124 C2125 1.524 . S
C2124 H2143 0.913 . S
C2125 H2101 0.950 . S
C2125 C2124 1.524 . S
C2125 C2126 1.415 . S
C2126 H2102 0.950 . S
C2126 C2121 1.363 . S
C2126 C2125 1.415 . S
C2127 H2103 0.951 . S
C2127 C2128 1.366 . S
C2127 C2129 1.388 . S
C2128 C2127 1.366 . S
C2128 C2132 1.385 . S
C2129 H2104 0.951 . S
C2129 C2127 1.388 . S
C2129 C2130 1.366 . S
C2130 C2129 1.366 . S
C2130 C2131 1.414 . S
C2130 C2133 1.499 . S
C2131 H2105 0.950 . S
C2131 C2130 1.414 . S
C2131 C2132 1.374 . S
C2132 H2106 0.950 . S
C2132 C2128 1.385 . S
C2132 C2131 1.374 . S
C2133 C2130 1.499 . S
C2133 C2134 1.373 . S
C2133 C2135 1.389 . S
C2134 H2107 0.950 . S
C2134 C2120 1.377 . S
C2134 C2133 1.373 . S
C2135 C2119 1.377 . S
C2135 C2133 1.389 . S
C2135 C2136 1.524 . S
C2136 C2135 1.524 . S
C2136 C2137 1.397 . S
C2136 C2141 1.363 . S
C2137 H2108 0.950 . S
C2137 C2136 1.397 . S
C2137 C2138 1.334 . S
C2138 H2109 0.950 . S
C2138 C2137 1.334 . S
C2138 C2139 1.287 . S
C2139 C2138 1.287 . S
C2139 C2140 1.524 . S
C2139 H2142 0.999 . S
C2140 H2110 0.950 . S
C2140 C2139 1.524 . S
C2140 C2141 1.415 . S
C2141 H2111 0.950 . S
C2141 C2136 1.363 . S
C2141 C2140 1.415 . S
H2142 C2139 0.999 . S
H2143 C2124 0.913 . S
H2144 C2162 0.951 . S
H2145 C2164 0.951 . S
H2146 C2166 0.950 . S
H2147 C2167 0.950 . S
H2148 C2169 0.950 . S
H2149 C2172 0.950 . S
H2150 C2173 0.950 . S
H2151 C2175 0.950 . S
H2152 C2176 0.950 . S
H2153 C2177 0.951 . S
H2154 C2179 0.951 . S
H2155 C2181 0.950 . S
H2156 C2182 0.950 . S
H2157 C2184 0.950 . S
H2158 C2187 0.950 . S
H2159 C2188 0.950 . S
H2160 C2190 0.950 . S
H2161 C2191 0.950 . S
C2162 H2144 0.951 . S
C2162 C2163 1.366 . S
C2162 C2164 1.388 . S
C2163 C2162 1.366 . S
C2163 C2167 1.385 . S
C2164 H2145 0.951 . S
C2164 C2162 1.388 . S
C2164 C2165 1.366 1_554 S
C2165 C2164 1.366 1_556 S
C2165 C2166 1.414 . S
C2165 C2168 1.499 . S
C2166 H2146 0.950 . S
C2166 C2165 1.414 . S
C2166 C2167 1.374 1_556 S
C2167 H2147 0.950 . S
C2167 C2163 1.385 . S
C2167 C2166 1.374 1_554 S
C2168 C2165 1.499 . S
C2168 C2169 1.373 . S
C2168 C2170 1.389 . S
C2169 H2148 0.950 . S
C2169 C2168 1.373 . S
C2169 C2185 1.377 . S
C2170 C2168 1.389 . S
C2170 C2171 1.524 . S
C2170 C2184 1.377 . S
C2171 C2170 1.524 . S
C2171 C2172 1.397 . S
C2171 C2176 1.363 . S
C2172 H2149 0.950 . S
C2172 C2171 1.397 . S
C2172 C2173 1.334 1_556 S
C2173 H2150 0.950 . S
C2173 C2172 1.334 1_554 S
C2173 C2174 1.287 . S
C2174 C2173 1.287 . S
C2174 C2175 1.524 . S
C2174 H2193 0.913 . S
C2175 H2151 0.950 . S
C2175 C2174 1.524 . S
C2175 C2176 1.415 1_554 S
C2176 H2152 0.950 . S
C2176 C2171 1.363 . S
C2176 C2175 1.415 1_556 S
C2177 H2153 0.951 . S
C2177 C2178 1.366 . S
C2177 C2179 1.388 . S
C2178 C2177 1.366 . S
C2178 C2182 1.385 . S
C2179 H2154 0.951 . S
C2179 C2177 1.388 . S
C2179 C2180 1.366 . S
C2180 C2179 1.366 . S
C2180 C2181 1.414 . S
C2180 C2183 1.499 . S
C2181 H2155 0.950 . S
C2181 C2180 1.414 . S
C2181 C2182 1.374 . S
C2182 H2156 0.950 . S
C2182 C2178 1.385 . S
C2182 C2181 1.374 . S
C2183 C2180 1.499 . S
C2183 C2184 1.373 . S
C2183 C2185 1.389 . S
C2184 H2157 0.950 . S
C2184 C2170 1.377 . S
C2184 C2183 1.373 . S
C2185 C2169 1.377 . S
C2185 C2183 1.389 . S
C2185 C2186 1.524 . S
C2186 C2185 1.524 . S
C2186 C2187 1.397 . S
C2186 C2191 1.363 . S
C2187 H2158 0.950 . S
C2187 C2186 1.397 . S
C2187 C2188 1.334 . S
C2188 H2159 0.950 . S
C2188 C2187 1.334 . S
C2188 C2189 1.287 . S
C2189 C2188 1.287 . S
C2189 C2190 1.524 . S
C2189 H2192 0.999 . S
C2190 H2160 0.950 . S
C2190 C2189 1.524 . S
C2190 C2191 1.415 . S
C2191 H2161 0.950 . S
C2191 C2186 1.363 . S
C2191 C2190 1.415 . S
H2192 C2189 0.999 . S
H2193 C2174 0.913 . S
H2194 C2212 0.951 . S
H2195 C2214 0.951 . S
H2196 C2216 0.950 . S
H2197 C2217 0.950 . S
H2198 C2219 0.950 . S
H2199 C2222 0.950 . S
H2200 C2223 0.950 . S
H2201 C2225 0.950 . S
H2202 C2226 0.950 . S
H2203 C2227 0.951 . S
H2204 C2229 0.951 . S
H2205 C2231 0.950 . S
H2206 C2232 0.950 . S
H2207 C2234 0.950 . S
H2208 C2237 0.950 . S
H2209 C2238 0.950 . S
H2210 C2240 0.950 . S
H2211 C2241 0.950 . S
C2212 H2194 0.951 . S
C2212 C2213 1.366 . S
C2212 C2214 1.388 . S
C2213 C2212 1.366 . S
C2213 C2217 1.385 . S
C2214 H2195 0.951 . S
C2214 C2212 1.388 . S
C2214 C2215 1.366 . S
C2215 C2214 1.366 . S
C2215 C2216 1.414 . S
C2215 C2218 1.499 . S
C2216 H2196 0.950 . S
C2216 C2215 1.414 . S
C2216 C2217 1.374 . S
C2217 H2197 0.950 . S
C2217 C2213 1.385 . S
C2217 C2216 1.374 . S
C2218 C2215 1.499 . S
C2218 C2219 1.373 . S
C2218 C2220 1.389 . S
C2219 H2198 0.950 . S
C2219 C2218 1.373 . S
C2219 C2235 1.377 . S
C2220 C2218 1.389 . S
C2220 C2221 1.524 . S
C2220 C2234 1.377 . S
C2221 C2220 1.524 . S
C2221 C2222 1.397 . S
C2221 C2226 1.363 . S
C2222 H2199 0.950 . S
C2222 C2221 1.397 . S
C2222 C2223 1.334 . S
C2223 H2200 0.950 . S
C2223 C2222 1.334 . S
C2223 C2224 1.287 . S
C2224 C2223 1.287 . S
C2224 C2225 1.524 . S
C2224 H2243 0.913 . S
C2225 H2201 0.950 . S
C2225 C2224 1.524 . S
C2225 C2226 1.415 . S
C2226 H2202 0.950 . S
C2226 C2221 1.363 . S
C2226 C2225 1.415 . S
C2227 H2203 0.951 . S
C2227 C2228 1.366 . S
C2227 C2229 1.388 . S
C2228 C2227 1.366 . S
C2228 C2232 1.385 . S
C2229 H2204 0.951 . S
C2229 C2227 1.388 . S
C2229 C2230 1.366 . S
C2230 C2229 1.366 . S
C2230 C2231 1.414 . S
C2230 C2233 1.499 . S
C2231 H2205 0.950 . S
C2231 C2230 1.414 . S
C2231 C2232 1.374 . S
C2232 H2206 0.950 . S
C2232 C2228 1.385 . S
C2232 C2231 1.374 . S
C2233 C2230 1.499 . S
C2233 C2234 1.373 . S
C2233 C2235 1.389 . S
C2234 H2207 0.950 . S
C2234 C2220 1.377 . S
C2234 C2233 1.373 . S
C2235 C2219 1.377 . S
C2235 C2233 1.389 . S
C2235 C2236 1.524 . S
C2236 C2235 1.524 . S
C2236 C2237 1.397 . S
C2236 C2241 1.363 . S
C2237 H2208 0.950 . S
C2237 C2236 1.397 . S
C2237 C2238 1.334 . S
C2238 H2209 0.950 . S
C2238 C2237 1.334 . S
C2238 C2239 1.287 . S
C2239 C2238 1.287 . S
C2239 C2240 1.524 . S
C2239 H2242 0.999 . S
C2240 H2210 0.950 . S
C2240 C2239 1.524 . S
C2240 C2241 1.415 . S
C2241 H2211 0.950 . S
C2241 C2236 1.363 . S
C2241 C2240 1.415 . S
H2242 C2239 0.999 . S
H2243 C2224 0.913 . S
H2244 C2262 0.951 . S
H2245 C2264 0.951 . S
H2246 C2266 0.950 . S
H2247 C2267 0.950 . S
H2248 C2269 0.950 . S
H2249 C2272 0.950 . S
H2250 C2273 0.950 . S
H2251 C2275 0.950 . S
H2252 C2276 0.950 . S
H2253 C2277 0.951 . S
H2254 C2279 0.951 . S
H2255 C2281 0.950 . S
H2256 C2282 0.950 . S
H2257 C2284 0.950 . S
H2258 C2287 0.963 . S
H2259 C2288 0.950 1_556 S
H2260 C2290 0.950 . S
H2261 C2291 0.950 . S
C2262 H2244 0.951 . S
C2262 C2263 1.366 . S
C2262 C2264 1.388 . S
C2263 C2262 1.366 . S
C2263 C2267 1.385 . S
C2264 H2245 0.951 . S
C2264 C2262 1.388 . S
C2264 C2265 1.366 . S
C2265 C2264 1.366 . S
C2265 C2266 1.414 . S
C2265 C2268 1.499 . S
C2266 H2246 0.950 . S
C2266 C2265 1.414 . S
C2266 C2267 1.374 . S
C2267 H2247 0.950 . S
C2267 C2263 1.385 . S
C2267 C2266 1.374 . S
C2268 C2265 1.499 . S
C2268 C2269 1.373 . S
C2268 C2270 1.389 . S
C2269 H2248 0.950 . S
C2269 C2268 1.373 . S
C2269 C2285 1.377 . S
C2270 C2268 1.389 . S
C2270 C2271 1.524 . S
C2270 C2284 1.377 . S
C2271 C2270 1.524 . S
C2271 C2272 1.397 . S
C2271 C2276 1.363 . S
C2272 H2249 0.950 . S
C2272 C2271 1.397 . S
C2272 C2273 1.334 . S
C2273 H2250 0.950 . S
C2273 C2272 1.334 . S
C2273 C2274 1.287 . S
C2274 C2273 1.287 . S
C2274 C2275 1.524 . S
C2274 H2293 0.913 . S
C2275 H2251 0.950 . S
C2275 C2274 1.524 . S
C2275 C2276 1.415 . S
C2276 H2252 0.950 . S
C2276 C2271 1.363 . S
C2276 C2275 1.415 . S
C2277 H2253 0.951 . S
C2277 C2278 1.366 . S
C2277 C2279 1.388 1_556 S
C2278 C2277 1.366 . S
C2278 C2282 1.385 . S
C2279 H2254 0.951 . S
C2279 C2277 1.388 1_554 S
C2279 C2280 1.366 . S
C2280 C2279 1.366 . S
C2280 C2281 1.414 1_554 S
C2280 C2283 1.499 . S
C2281 H2255 0.950 . S
C2281 C2280 1.414 1_556 S
C2281 C2282 1.374 . S
C2282 H2256 0.950 . S
C2282 C2278 1.385 . S
C2282 C2281 1.374 . S
C2283 C2280 1.499 . S
C2283 C2284 1.373 . S
C2283 C2285 1.389 . S
C2284 H2257 0.950 . S
C2284 C2270 1.377 . S
C2284 C2283 1.373 . S
C2285 C2269 1.377 . S
C2285 C2283 1.389 . S
C2285 C2286 1.524 . S
C2286 C2285 1.524 . S
C2286 C2287 1.397 . S
C2286 C2291 1.363 . S
C2287 H2258 0.963 . S
C2287 C2286 1.397 . S
C2287 C2288 1.334 . S
C2288 H2259 0.950 1_554 S
C2288 C2287 1.334 . S
C2288 C2289 1.287 . S
C2289 C2288 1.287 . S
C2289 C2290 1.524 . S
C2289 H2292 0.999 . S
C2290 H2260 0.950 . S
C2290 C2289 1.524 . S
C2290 C2291 1.415 . S
C2291 H2261 0.950 . S
C2291 C2286 1.363 . S
C2291 C2290 1.415 . S
H2292 C2289 0.999 . S
H2293 C2274 0.913 . S
H2294 C2312 0.951 . S
H2295 C2314 0.951 . S
H2296 C2316 0.950 . S
H2297 C2317 0.950 . S
H2298 C2319 0.950 . S
H2299 C2322 0.950 . S
H2300 C2323 0.950 . S
H2301 C2325 0.950 . S
H2302 C2326 0.950 . S
H2303 C2327 0.951 . S
H2304 C2329 0.951 . S
H2305 C2331 0.950 . S
H2306 C2332 0.950 . S
H2307 C2334 0.950 . S
H2308 C2337 0.950 . S
H2309 C2338 0.950 . S
H2310 C2340 0.950 . S
H2311 C2341 0.950 . S
C2312 H2294 0.951 . S
C2312 C2313 1.366 . S
C2312 C2314 1.388 . S
C2313 C2312 1.366 . S
C2313 C2317 1.385 . S
C2314 H2295 0.951 . S
C2314 C2312 1.388 . S
C2314 C2315 1.366 . S
C2315 C2314 1.366 . S
C2315 C2316 1.414 . S
C2315 C2318 1.499 . S
C2316 H2296 0.950 . S
C2316 C2315 1.414 . S
C2316 C2317 1.374 . S
C2317 H2297 0.950 . S
C2317 C2313 1.385 . S
C2317 C2316 1.374 . S
C2318 C2315 1.499 . S
C2318 C2319 1.373 . S
C2318 C2320 1.389 . S
C2319 H2298 0.950 . S
C2319 C2318 1.373 . S
C2319 C2335 1.377 . S
C2320 C2318 1.389 . S
C2320 C2321 1.524 . S
C2320 C2334 1.377 . S
C2321 C2320 1.524 . S
C2321 C2322 1.397 . S
C2321 C2326 1.363 . S
C2322 H2299 0.950 . S
C2322 C2321 1.397 . S
C2322 C2323 1.334 . S
C2323 H2300 0.950 . S
C2323 C2322 1.334 . S
C2323 C2324 1.287 . S
C2324 C2323 1.287 . S
C2324 C2325 1.524 . S
C2324 H2343 0.913 . S
C2325 H2301 0.950 . S
C2325 C2324 1.524 . S
C2325 C2326 1.415 . S
C2326 H2302 0.950 . S
C2326 C2321 1.363 . S
C2326 C2325 1.415 . S
C2327 H2303 0.951 . S
C2327 C2328 1.366 . S
C2327 C2329 1.388 . S
C2328 C2327 1.366 . S
C2328 C2332 1.385 . S
C2329 H2304 0.951 . S
C2329 C2327 1.388 . S
C2329 C2330 1.366 . S
C2330 C2329 1.366 . S
C2330 C2331 1.414 . S
C2330 C2333 1.499 . S
C2331 H2305 0.950 . S
C2331 C2330 1.414 . S
C2331 C2332 1.374 . S
C2332 H2306 0.950 . S
C2332 C2328 1.385 . S
C2332 C2331 1.374 . S
C2333 C2330 1.499 . S
C2333 C2334 1.373 . S
C2333 C2335 1.389 . S
C2334 H2307 0.950 . S
C2334 C2320 1.377 . S
C2334 C2333 1.373 . S
C2335 C2319 1.377 . S
C2335 C2333 1.389 . S
C2335 C2336 1.524 . S
C2336 C2335 1.524 . S
C2336 C2337 1.397 . S
C2336 C2341 1.363 . S
C2337 H2308 0.950 . S
C2337 C2336 1.397 . S
C2337 C2338 1.334 . S
C2338 H2309 0.950 . S
C2338 C2337 1.334 . S
C2338 C2339 1.287 . S
C2339 C2338 1.287 . S
C2339 C2340 1.524 . S
C2339 H2342 0.999 . S
C2340 H2310 0.950 . S
C2340 C2339 1.524 . S
C2340 C2341 1.415 . S
C2341 H2311 0.950 . S
C2341 C2336 1.363 . S
C2341 C2340 1.415 . S
H2342 C2339 0.999 . S
H2343 C2324 0.913 . S
H2344 C2362 0.951 . S
H2345 C2364 0.951 . S
H2346 C2366 0.950 . S
H2347 C2367 0.950 . S
H2348 C2369 0.950 . S
H2349 C2372 0.950 . S
H2350 C2373 0.950 . S
H2351 C2375 0.950 . S
H2352 C2376 0.950 1_554 S
H2353 C2377 0.951 . S
H2354 C2379 0.951 . S
H2355 C2381 0.950 . S
H2356 C2382 0.950 . S
H2357 C2384 0.950 . S
H2358 C2387 0.950 . S
H2359 C2388 0.950 . S
H2360 C2390 0.950 . S
H2361 C2391 0.950 . S
C2362 H2344 0.951 . S
C2362 C2363 1.366 . S
C2362 C2364 1.388 . S
C2363 C2362 1.366 . S
C2363 C2367 1.385 . S
C2364 H2345 0.951 . S
C2364 C2362 1.388 . S
C2364 C2365 1.366 1_556 S
C2365 C2364 1.366 1_554 S
C2365 C2366 1.414 . S
C2365 C2368 1.499 . S
C2366 H2346 0.950 . S
C2366 C2365 1.414 . S
C2366 C2367 1.374 1_554 S
C2367 H2347 0.950 . S
C2367 C2363 1.385 . S
C2367 C2366 1.374 1_556 S
C2368 C2365 1.499 . S
C2368 C2369 1.373 . S
C2368 C2370 1.389 . S
C2369 H2348 0.950 . S
C2369 C2368 1.373 . S
C2369 C2385 1.377 . S
C2370 C2368 1.389 . S
C2370 C2371 1.524 . S
C2370 C2384 1.377 . S
C2371 C2370 1.524 . S
C2371 C2372 1.397 1_554 S
C2371 C2376 1.363 1_554 S
C2372 H2349 0.950 . S
C2372 C2371 1.397 1_556 S
C2372 C2373 1.334 . S
C2373 H2350 0.950 . S
C2373 C2372 1.334 . S
C2373 C2374 1.287 . S
C2374 C2373 1.287 . S
C2374 C2375 1.524 . S
C2374 H2393 0.913 . S
C2375 H2351 0.950 . S
C2375 C2374 1.524 . S
C2375 C2376 1.415 . S
C2376 H2352 0.950 1_556 S
C2376 C2371 1.363 1_556 S
C2376 C2375 1.415 . S
C2377 H2353 0.951 . S
C2377 C2378 1.366 . S
C2377 C2379 1.388 . S
C2378 C2377 1.366 . S
C2378 C2382 1.385 . S
C2379 H2354 0.951 . S
C2379 C2377 1.388 . S
C2379 C2380 1.366 . S
C2380 C2379 1.366 . S
C2380 C2381 1.414 . S
C2380 C2383 1.499 . S
C2381 H2355 0.950 . S
C2381 C2380 1.414 . S
C2381 C2382 1.374 . S
C2382 H2356 0.950 . S
C2382 C2378 1.385 . S
C2382 C2381 1.374 . S
C2383 C2380 1.499 . S
C2383 C2384 1.373 . S
C2383 C2385 1.389 . S
C2384 H2357 0.950 . S
C2384 C2370 1.377 . S
C2384 C2383 1.373 . S
C2385 C2369 1.377 . S
C2385 C2383 1.389 . S
C2385 C2386 1.524 . S
C2386 C2385 1.524 . S
C2386 C2387 1.397 . S
C2386 C2391 1.363 . S
C2387 H2358 0.950 . S
C2387 C2386 1.397 . S
C2387 C2388 1.334 . S
C2388 H2359 0.950 . S
C2388 C2387 1.334 . S
C2388 C2389 1.287 . S
C2389 C2388 1.287 . S
C2389 C2390 1.524 . S
C2389 H2392 0.999 . S
C2390 H2360 0.950 . S
C2390 C2389 1.524 . S
C2390 C2391 1.415 . S
C2391 H2361 0.950 . S
C2391 C2386 1.363 . S
C2391 C2390 1.415 . S
H2392 C2389 0.999 . S
H2393 C2374 0.913 . S
H2394 C2412 0.951 . S
H2395 C2414 0.951 . S
H2396 C2416 0.950 . S
H2397 C2417 0.950 . S
H2398 C2419 0.950 . S
H2399 C2422 0.950 . S
H2400 C2423 0.950 . S
H2401 C2425 0.950 . S
H2402 C2426 0.950 . S
H2403 C2427 0.951 . S
H2404 C2429 0.951 . S
H2405 C2431 0.950 . S
H2406 C2432 0.950 . S
H2407 C2434 0.950 . S
H2408 C2437 0.950 . S
H2409 C2438 0.950 . S
H2410 C2440 0.950 . S
H2411 C2441 0.950 . S
C2412 H2394 0.951 . S
C2412 C2413 1.366 . S
C2412 C2414 1.388 . S
C2413 C2412 1.366 . S
C2413 C2417 1.385 . S
C2414 H2395 0.951 . S
C2414 C2412 1.388 . S
C2414 C2415 1.366 . S
C2415 C2414 1.366 . S
C2415 C2416 1.414 . S
C2415 C2418 1.499 . S
C2416 H2396 0.950 . S
C2416 C2415 1.414 . S
C2416 C2417 1.374 . S
C2417 H2397 0.950 . S
C2417 C2413 1.385 . S
C2417 C2416 1.374 . S
C2418 C2415 1.499 . S
C2418 C2419 1.373 . S
C2418 C2420 1.389 . S
C2419 H2398 0.950 . S
C2419 C2418 1.373 . S
C2419 C2435 1.377 . S
C2420 C2418 1.389 . S
C2420 C2421 1.524 . S
C2420 C2434 1.377 . S
C2421 C2420 1.524 . S
C2421 C2422 1.397 . S
C2421 C2426 1.363 . S
C2422 H2399 0.950 . S
C2422 C2421 1.397 . S
C2422 C2423 1.334 . S
C2423 H2400 0.950 . S
C2423 C2422 1.334 . S
C2423 C2424 1.287 . S
C2424 C2423 1.287 . S
C2424 C2425 1.524 . S
C2424 H2443 0.913 . S
C2425 H2401 0.950 . S
C2425 C2424 1.524 . S
C2425 C2426 1.415 . S
C2426 H2402 0.950 . S
C2426 C2421 1.363 . S
C2426 C2425 1.415 . S
C2427 H2403 0.951 . S
C2427 C2428 1.366 . S
C2427 C2429 1.388 . S
C2428 C2427 1.366 . S
C2428 C2432 1.385 . S
C2429 H2404 0.951 . S
C2429 C2427 1.388 . S
C2429 C2430 1.366 . S
C2430 C2429 1.366 . S
C2430 C2431 1.414 . S
C2430 C2433 1.499 . S
C2431 H2405 0.950 . S
C2431 C2430 1.414 . S
C2431 C2432 1.374 . S
C2432 H2406 0.950 . S
C2432 C2428 1.385 . S
C2432 C2431 1.374 . S
C2433 C2430 1.499 . S
C2433 C2434 1.373 . S
C2433 C2435 1.389 . S
C2434 H2407 0.950 . S
C2434 C2420 1.377 . S
C2434 C2433 1.373 . S
C2435 C2419 1.377 . S
C2435 C2433 1.389 . S
C2435 C2436 1.524 . S
C2436 C2435 1.524 . S
C2436 C2437 1.397 . S
C2436 C2441 1.363 . S
C2437 H2408 0.950 . S
C2437 C2436 1.397 . S
C2437 C2438 1.334 . S
C2438 H2409 0.950 . S
C2438 C2437 1.334 . S
C2438 C2439 1.287 . S
C2439 C2438 1.287 . S
C2439 C2440 1.524 . S
C2439 H2442 0.999 . S
C2440 H2410 0.950 . S
C2440 C2439 1.524 . S
C2440 C2441 1.415 . S
C2441 H2411 0.950 . S
C2441 C2436 1.363 . S
C2441 C2440 1.415 . S
H2442 C2439 0.999 . S
H2443 C2424 0.913 . S
H2444 C2462 0.951 . S
H2445 C2464 0.951 . S
H2446 C2466 0.950 . S
H2447 C2467 0.950 . S
H2448 C2469 0.950 . S
H2449 C2472 0.950 . S
H2450 C2473 0.950 . S
H2451 C2475 0.950 . S
H2452 C2476 0.950 . S
H2453 C2477 0.951 . S
H2454 C2479 0.951 . S
H2455 C2481 0.950 1_556 S
H2456 C2482 0.950 . S
H2457 C2484 0.950 . S
H2458 C2487 0.950 . S
H2459 C2488 0.950 . S
H2460 C2490 0.950 . S
H2461 C2491 0.950 . S
C2462 H2444 0.951 . S
C2462 C2463 1.366 . S
C2462 C2464 1.388 . S
C2463 C2462 1.366 . S
C2463 C2467 1.385 . S
C2464 H2445 0.951 . S
C2464 C2462 1.388 . S
C2464 C2465 1.366 . S
C2465 C2464 1.366 . S
C2465 C2466 1.414 . S
C2465 C2468 1.499 . S
C2466 H2446 0.950 . S
C2466 C2465 1.414 . S
C2466 C2467 1.374 . S
C2467 H2447 0.950 . S
C2467 C2463 1.385 . S
C2467 C2466 1.374 . S
C2468 C2465 1.499 . S
C2468 C2469 1.373 . S
C2468 C2470 1.389 . S
C2469 H2448 0.950 . S
C2469 C2468 1.373 . S
C2469 C2485 1.377 . S
C2470 C2468 1.389 . S
C2470 C2471 1.524 . S
C2470 C2484 1.377 . S
C2471 C2470 1.524 . S
C2471 C2472 1.397 . S
C2471 C2476 1.363 . S
C2472 H2449 0.950 . S
C2472 C2471 1.397 . S
C2472 C2473 1.334 . S
C2473 H2450 0.950 . S
C2473 C2472 1.334 . S
C2473 C2474 1.287 . S
C2474 C2473 1.287 . S
C2474 C2475 1.524 . S
C2474 H2493 0.913 . S
C2475 H2451 0.950 . S
C2475 C2474 1.524 . S
C2475 C2476 1.415 . S
C2476 H2452 0.950 . S
C2476 C2471 1.363 . S
C2476 C2475 1.415 . S
C2477 H2453 0.951 . S
C2477 C2478 1.366 . S
C2477 C2479 1.388 . S
C2478 C2477 1.366 . S
C2478 C2482 1.385 . S
C2479 H2454 0.951 . S
C2479 C2477 1.388 . S
C2479 C2480 1.366 1_554 S
C2480 C2479 1.366 1_556 S
C2480 C2481 1.414 1_556 S
C2480 C2483 1.499 . S
C2481 H2455 0.950 1_554 S
C2481 C2480 1.414 1_554 S
C2481 C2482 1.374 . S
C2482 H2456 0.950 . S
C2482 C2478 1.385 . S
C2482 C2481 1.374 . S
C2483 C2480 1.499 . S
C2483 C2484 1.373 . S
C2483 C2485 1.389 . S
C2484 H2457 0.950 . S
C2484 C2470 1.377 . S
C2484 C2483 1.373 . S
C2485 C2469 1.377 . S
C2485 C2483 1.389 . S
C2485 C2486 1.524 . S
C2486 C2485 1.524 . S
C2486 C2487 1.397 1_556 S
C2486 C2491 1.363 . S
C2487 H2458 0.950 . S
C2487 C2486 1.397 1_554 S
C2487 C2488 1.334 . S
C2488 H2459 0.950 . S
C2488 C2487 1.334 . S
C2488 C2489 1.287 . S
C2489 C2488 1.287 . S
C2489 C2490 1.524 . S
C2489 H2492 0.999 . S
C2490 H2460 0.950 . S
C2490 C2489 1.524 . S
C2490 C2491 1.415 1_554 S
C2491 H2461 0.950 . S
C2491 C2486 1.363 . S
C2491 C2490 1.415 1_556 S
H2492 C2489 0.999 . S
H2493 C2474 0.913 . S
H2494 C2512 0.951 . S
H2495 C2514 0.951 . S
H2496 C2516 0.950 . S
H2497 C2517 0.950 . S
H2498 C2519 0.950 . S
H2499 C2522 0.950 . S
H2500 C2523 0.950 . S
H2501 C2525 0.950 . S
H2502 C2526 0.950 . S
H2503 C2527 0.951 . S
H2504 C2529 0.951 . S
H2505 C2531 0.950 . S
H2506 C2532 0.950 . S
H2507 C2534 0.950 . S
H2508 C2537 0.950 . S
H2509 C2538 0.950 . S
H2510 C2540 0.950 . S
H2511 C2541 0.950 . S
C2512 H2494 0.951 . S
C2512 C2513 1.366 . S
C2512 C2514 1.388 . S
C2513 C2512 1.366 . S
C2513 C2517 1.385 . S
C2514 H2495 0.951 . S
C2514 C2512 1.388 . S
C2514 C2515 1.366 . S
C2515 C2514 1.366 . S
C2515 C2516 1.414 . S
C2515 C2518 1.499 . S
C2516 H2496 0.950 . S
C2516 C2515 1.414 . S
C2516 C2517 1.374 . S
C2517 H2497 0.950 . S
C2517 C2513 1.385 . S
C2517 C2516 1.374 . S
C2518 C2515 1.499 . S
C2518 C2519 1.373 . S
C2518 C2520 1.389 . S
C2519 H2498 0.950 . S
C2519 C2518 1.373 . S
C2519 C2535 1.377 . S
C2520 C2518 1.389 . S
C2520 C2521 1.524 . S
C2520 C2534 1.377 . S
C2521 C2520 1.524 . S
C2521 C2522 1.397 . S
C2521 C2526 1.363 . S
C2522 H2499 0.950 . S
C2522 C2521 1.397 . S
C2522 C2523 1.334 . S
C2523 H2500 0.950 . S
C2523 C2522 1.334 . S
C2523 C2524 1.287 . S
C2524 C2523 1.287 . S
C2524 C2525 1.524 . S
C2524 H2543 0.913 . S
C2525 H2501 0.950 . S
C2525 C2524 1.524 . S
C2525 C2526 1.415 . S
C2526 H2502 0.950 . S
C2526 C2521 1.363 . S
C2526 C2525 1.415 . S
C2527 H2503 0.951 . S
C2527 C2528 1.366 . S
C2527 C2529 1.388 . S
C2528 C2527 1.366 . S
C2528 C2532 1.385 . S
C2529 H2504 0.951 . S
C2529 C2527 1.388 . S
C2529 C2530 1.366 . S
C2530 C2529 1.366 . S
C2530 C2531 1.414 . S
C2530 C2533 1.499 . S
C2531 H2505 0.950 . S
C2531 C2530 1.414 . S
C2531 C2532 1.374 . S
C2532 H2506 0.950 . S
C2532 C2528 1.385 . S
C2532 C2531 1.374 . S
C2533 C2530 1.499 . S
C2533 C2534 1.373 . S
C2533 C2535 1.389 . S
C2534 H2507 0.950 . S
C2534 C2520 1.377 . S
C2534 C2533 1.373 . S
C2535 C2519 1.377 . S
C2535 C2533 1.389 . S
C2535 C2536 1.524 . S
C2536 C2535 1.524 . S
C2536 C2537 1.397 . S
C2536 C2541 1.363 . S
C2537 H2508 0.950 . S
C2537 C2536 1.397 . S
C2537 C2538 1.334 . S
C2538 H2509 0.950 . S
C2538 C2537 1.334 . S
C2538 C2539 1.287 . S
C2539 C2538 1.287 . S
C2539 C2540 1.524 . S
C2539 H2542 0.999 . S
C2540 H2510 0.950 . S
C2540 C2539 1.524 . S
C2540 C2541 1.415 . S
C2541 H2511 0.950 . S
C2541 C2536 1.363 . S
C2541 C2540 1.415 . S
H2542 C2539 0.999 . S
H2543 C2524 0.913 . S
C563 C9 1.466 . S
C578 C111 1.467 . S
C613 C77 1.467 . S
C628 C43 1.466 . S
C663 C247 1.467 . S
C678 C145 1.466 . S
C713 C179 1.465 . S
C728 C213 1.467 . S
C763 C281 1.467 . S
C778 C383 1.465 . S
C813 C315 1.466 . S
C828 C349 1.466 . S
C863 C519 1.466 . S
C878 C417 1.466 . S
C913 C451 1.467 . S
C928 C485 1.466 . S
C963 C209 1.493 . S
C978 C5 1.493 . S
C1013 C243 1.493 . S
C1028 C39 1.493 . S
C1063 C141 1.493 . S
C1078 C73 1.493 . S
C1113 C175 1.493 . S
C1128 C107 1.493 . S
C1163 C481 1.493 . S
C1178 C277 1.493 . S
C1213 C515 1.493 . S
C1228 C311 1.493 . S
C1263 C413 1.493 . S
C1278 C345 1.493 . S
C1313 C379 1.493 . S
C1328 C447 1.493 . S
C1363 C2 1.547 . S
C1378 C70 1.546 . S
C1413 C36 1.547 . S
C1428 C104 1.547 . S
C1463 C138 1.546 . S
C1478 C206 1.546 . S
C1513 C172 1.546 . S
C1528 C240 1.546 . S
C1563 C274 1.546 . S
C1578 C342 1.546 . S
C1613 C308 1.546 . S
C1628 C376 1.546 . S
C1663 C410 1.546 . S
C1678 C478 1.546 . S
C1713 C444 1.546 . S
C1728 C512 1.546 . S
C1763 C530 1.316 . S
C1778 C33 1.316 . S
C1813 C67 1.316 . S
C1828 C496 1.316 . S
C1863 C101 1.316 . S
C1878 C462 1.316 . S
C1913 C428 1.316 . S
C1928 C135 1.316 . S
C1963 C394 1.316 . S
C1978 C169 1.316 . S
C2013 C203 1.316 . S
C2028 C360 1.316 . S
C2063 C237 1.316 . S
C2078 C326 1.316 . S
C2113 C271 1.316 . S
C2128 C292 1.316 . S
C2163 C305 1.316 . S
C2178 C258 1.316 . S
C2213 C224 1.316 . S
C2228 C339 1.316 . S
C2263 C190 1.316 . S
C2278 C373 1.316 . S
C2313 C407 1.316 . S
C2328 C156 1.316 . S
C2363 C441 1.316 . S
C2378 C122 1.316 . S
C2413 C88 1.316 . S
C2428 C475 1.316 . S
C2463 C54 1.316 . S
C2478 C509 1.316 . S
C2513 C20 1.316 . S
C2528 C543 1.316 . S
