# Generated by pormake.
# Topology fni, (5)-cn, num edge types: 1
# Building blocks:
#     Node 0, Type 0, BuildingBlock: XOMCOT_clean_sbu_1, # of connection points: 5
#     Node 1, Type 0, BuildingBlock: XOMCOT_clean_sbu_1, # of connection points: 5
#     Node 2, Type 0, BuildingBlock: XOMCOT_clean_sbu_1, # of connection points: 5
#     Node 3, Type 0, BuildingBlock: XOMCOT_clean_sbu_1, # of connection points: 5
#     Node 4, Type 0, BuildingBlock: XOMCOT_clean_sbu_1, # of connection points: 5
#     Node 5, Type 0, BuildingBlock: XOMCOT_clean_sbu_1, # of connection points: 5
#     Node 6, Type 0, BuildingBlock: XOMCOT_clean_sbu_1, # of connection points: 5
#     Node 7, Type 0, BuildingBlock: XOMCOT_clean_sbu_1, # of connection points: 5
#     Edge 8, Type (0, 0), BuildingBlock: KIFKEQ_clean_linker_1, # of connection points: 2
#     Edge 9, Type (0, 0), BuildingBlock: KIFKEQ_clean_linker_1, # of connection points: 2
#     Edge 10, Type (0, 0), BuildingBlock: KIFKEQ_clean_linker_1, # of connection points: 2
#     Edge 11, Type (0, 0), BuildingBlock: KIFKEQ_clean_linker_1, # of connection points: 2
#     Edge 12, Type (0, 0), BuildingBlock: KIFKEQ_clean_linker_1, # of connection points: 2
#     Edge 13, Type (0, 0), BuildingBlock: KIFKEQ_clean_linker_1, # of connection points: 2
#     Edge 14, Type (0, 0), BuildingBlock: KIFKEQ_clean_linker_1, # of connection points: 2
#     Edge 15, Type (0, 0), BuildingBlock: KIFKEQ_clean_linker_1, # of connection points: 2
#     Edge 16, Type (0, 0), BuildingBlock: KIFKEQ_clean_linker_1, # of connection points: 2
#     Edge 17, Type (0, 0), BuildingBlock: KIFKEQ_clean_linker_1, # of connection points: 2
#     Edge 18, Type (0, 0), BuildingBlock: KIFKEQ_clean_linker_1, # of connection points: 2
#     Edge 19, Type (0, 0), BuildingBlock: KIFKEQ_clean_linker_1, # of connection points: 2
#     Edge 20, Type (0, 0), BuildingBlock: KIFKEQ_clean_linker_1, # of connection points: 2
#     Edge 21, Type (0, 0), BuildingBlock: KIFKEQ_clean_linker_1, # of connection points: 2
#     Edge 22, Type (0, 0), BuildingBlock: KIFKEQ_clean_linker_1, # of connection points: 2
#     Edge 23, Type (0, 0), BuildingBlock: KIFKEQ_clean_linker_1, # of connection points: 2
#     Edge 24, Type (0, 0), BuildingBlock: KIFKEQ_clean_linker_1, # of connection points: 2
#     Edge 25, Type (0, 0), BuildingBlock: KIFKEQ_clean_linker_1, # of connection points: 2
#     Edge 26, Type (0, 0), BuildingBlock: KIFKEQ_clean_linker_1, # of connection points: 2
#     Edge 27, Type (0, 0), BuildingBlock: KIFKEQ_clean_linker_1, # of connection points: 2
# Relax obj value: 0.165
# Max RMSD: 0.169
# Mean RMSD: 0.163
data_MOF--net-fni--node1-XOMCOT_clean_sbu_1--edge1-KIFKEQ_clean_linker_1
_symmetry_space_group_name_H-M    P1
_symmetry_Int_Tables_number       1
_symmetry_cell_setting            triclinic
loop_
_symmetry_equiv_pos_as_xyz
'x, y, z'
_cell_length_a     55.269706
_cell_length_b     53.077391
_cell_length_c     17.754806
_cell_angle_alpha  93.182215
_cell_angle_beta   93.514828
_cell_angle_gamma 90.419175
loop_
_atom_site_label
_atom_site_type_symbol
_atom_site_fract_x
_atom_site_fract_y
_atom_site_fract_z
_atom_type_partial_charge
C0 C 0.41879 0.4127 0.16605 0.0
C1 C 0.41692 0.41511 0.24303 0.0
N2 N 0.42854 0.39565 0.27429 0.0
N3 N 0.4313 0.39169 0.14877 0.0
C4 C 0.43723 0.38185 0.21588 0.0
H5 H 0.41148 0.42543 0.12516 0.0
Co6 Co 0.43812 0.38014 0.05198 0.0
C7 C 0.43669 0.32425 0.05232 0.0
O8 O 0.42644 0.32406 0.9835 0.0
N9 N 0.44579 0.369 0.95297 0.0
C10 C 0.46727 0.35241 0.86056 0.0
C11 C 0.46546 0.3551 0.93743 0.0
C12 C 0.43634 0.37506 0.8842 0.0
N13 N 0.44897 0.36509 0.82717 0.0
O14 O 0.47167 0.38936 0.07467 0.0
H15 H 0.47808 0.34783 0.97968 0.0
H16 H 0.42089 0.38703 0.87531 0.0
O17 O 0.44286 0.34544 0.08686 0.0
C18 C 0.47557 0.40991 0.04299 0.0
O19 O 0.45769 0.41961 1.0022 0.0
N20 N 0.40468 0.37445 0.03015 0.0
C21 C 0.35432 0.37696 0.0089 0.0
C22 C 0.36513 0.35788 0.05036 0.0
C23 C 0.39037 0.35743 0.06242 0.0
C24 C 0.39428 0.39358 0.99202 0.0
C25 C 0.36921 0.395 0.97971 0.0
H26 H 0.39801 0.34431 0.10126 0.0
H27 H 0.40553 0.40859 0.97408 0.0
H28 H 0.4475 0.36475 0.22183 0.0
H29 H 0.40798 0.4302 0.27365 0.0
H30 H 0.48154 0.34278 0.83171 0.0
H31 H 0.35413 0.3443 0.07667 0.0
H32 H 0.36152 0.41042 0.94901 0.0
C33 C 0.63076 0.94571 0.22186 0.0
C34 C 0.63326 0.9456 0.14528 0.0
N35 N 0.61397 0.93341 0.10971 0.0
N36 N 0.61015 0.93335 0.23469 0.0
C37 C 0.6002 0.92626 0.16528 0.0
H38 H 0.64291 0.95479 0.26526 0.0
Co39 Co 0.59767 0.92961 0.32823 0.0
C40 C 0.57834 0.87695 0.32455 0.0
O41 O 0.58281 0.8763 0.39791 0.0
N42 N 0.58447 0.92676 0.42362 0.0
C43 C 0.55703 0.92307 0.5096 0.0
C44 C 0.56055 0.92395 0.43381 0.0
C45 C 0.59497 0.92804 0.49478 0.0
N46 N 0.57873 0.92569 0.54787 0.0
O47 O 0.56902 0.94667 0.29457 0.0
H48 H 0.54646 0.92229 0.38873 0.0
H49 H 0.61412 0.93035 0.50842 0.0
O50 O 0.58334 0.89688 0.29085 0.0
C51 C 0.57021 0.97059 0.30498 0.0
O52 O 0.59063 0.98094 0.33384 0.0
N53 N 0.627 0.91456 0.36102 0.0
C54 C 0.67382 0.89938 0.40549 0.0
C55 C 0.65802 0.88307 0.36081 0.0
C56 C 0.63488 0.8912 0.33782 0.0
C57 C 0.6425 0.93099 0.40154 0.0
C58 C 0.66579 0.92372 0.42538 0.0
H59 H 0.62396 0.87893 0.29896 0.0
H60 H 0.63673 0.95008 0.41479 0.0
H61 H 0.58303 0.91632 0.15573 0.0
H62 H 0.6477 0.95462 0.11786 0.0
H63 H 0.53979 0.92101 0.53458 0.0
H64 H 0.66358 0.86429 0.34266 0.0
H65 H 0.67763 0.93737 0.45709 0.0
C66 C 0.05567 0.12594 0.45721 0.0
C67 C 0.05297 0.1272 0.38004 0.0
N68 N 0.07331 0.11837 0.3503 0.0
N69 N 0.0776 0.11637 0.47598 0.0
C70 C 0.08793 0.11188 0.40969 0.0
H71 H 0.04245 0.1315 0.49722 0.0
Co72 Co 0.08886 0.11027 0.57357 0.0
C73 C 0.1421 0.118 0.57839 0.0
O74 O 0.14102 0.12886 0.64645 0.0
N75 N 0.0997 0.10321 0.67291 0.0
C76 C 0.11725 0.08213 0.76617 0.0
C77 C 0.11458 0.08392 0.68932 0.0
C78 C 0.0933 0.1126 0.74122 0.0
N79 N 0.10381 0.1002 0.799 0.0
O80 O 0.08524 0.07452 0.55052 0.0
H81 H 0.12266 0.07151 0.64771 0.0
H82 H 0.08088 0.12789 0.74901 0.0
O83 O 0.1226 0.10961 0.54253 0.0
C84 C 0.06348 0.06702 0.55547 0.0
O85 O 0.04696 0.08381 0.57167 0.0
N86 N 0.09002 0.14556 0.59563 0.0
C87 C 0.08487 0.19745 0.62536 0.0
C88 C 0.10354 0.18814 0.58202 0.0
C89 C 0.10532 0.16218 0.56567 0.0
C90 C 0.07073 0.15449 0.63297 0.0
C91 C 0.06799 0.18031 0.64951 0.0
H92 H 0.11855 0.15576 0.52699 0.0
H93 H 0.05717 0.14141 0.64937 0.0
H94 H 0.10555 0.10344 0.40477 0.0
H95 H 0.03734 0.13424 0.34836 0.0
H96 H 0.12759 0.06796 0.79514 0.0
H97 H 0.11628 0.20089 0.55936 0.0
H98 H 0.05295 0.18675 0.68161 0.0
C99 C 0.85471 0.5879 0.68358 0.0
C100 C 0.85232 0.58787 0.60607 0.0
N101 N 0.86956 0.60316 0.58271 0.0
N102 N 0.87316 0.60346 0.70945 0.0
C103 C 0.88203 0.61224 0.64645 0.0
H104 H 0.84411 0.57654 0.71822 0.0
Co105 Co 0.88543 0.60909 0.80952 0.0
C106 C 0.89914 0.66431 0.82512 0.0
O107 O 0.8953 0.66597 0.8975 0.0
N108 N 0.89838 0.61417 0.91048 0.0
C109 C 0.92488 0.62205 0.00896 0.0
C110 C 0.92168 0.62046 0.93138 0.0
C111 C 0.88797 0.61159 0.9768 0.0
N112 N 0.90363 0.61641 0.03743 0.0
O113 O 0.91603 0.59627 0.78115 0.0
H114 H 0.93551 0.62396 0.89261 0.0
H115 H 0.86921 0.60654 0.98137 0.0
O116 O 0.89517 0.64344 0.78651 0.0
C117 C 0.91638 0.5724 0.78582 0.0
O118 O 0.89664 0.56108 0.80514 0.0
N119 N 0.85447 0.6188 0.83768 0.0
C120 C 0.80697 0.62256 0.88371 0.0
C121 C 0.81931 0.64384 0.86032 0.0
C122 C 0.84301 0.64149 0.83631 0.0
C123 C 0.84253 0.59797 0.85815 0.0
C124 C 0.81891 0.59934 0.88062 0.0
H125 H 0.8518 0.65782 0.81648 0.0
H126 H 0.85166 0.58001 0.85728 0.0
H127 H 0.89762 0.62473 0.64727 0.0
H128 H 0.83951 0.57663 0.56958 0.0
H129 H 0.94165 0.62662 0.04174 0.0
H130 H 0.81091 0.6622 0.86107 0.0
H131 H 0.81013 0.5821 0.8949 0.0
C132 C 0.36421 0.08218 0.18874 0.0
C133 C 0.36237 0.07984 0.11104 0.0
N134 N 0.37359 0.09983 0.0846 0.0
N135 N 0.37661 0.10351 0.21137 0.0
C136 C 0.38205 0.11393 0.14649 0.0
H137 H 0.35777 0.06865 0.22644 0.0
Co138 Co 0.38686 0.11199 0.31167 0.0
C139 C 0.39694 0.16754 0.31914 0.0
O140 O 0.38837 0.17016 0.38654 0.0
N141 N 0.39783 0.11981 0.4138 0.0
C142 C 0.42365 0.12917 0.51311 0.0
C143 C 0.42064 0.12771 0.43557 0.0
C144 C 0.38731 0.11673 0.47985 0.0
N145 N 0.40265 0.1223 0.54084 0.0
O146 O 0.41831 0.09938 0.29163 0.0
H147 H 0.43446 0.13177 0.39728 0.0
H148 H 0.36916 0.10955 0.48405 0.0
O149 O 0.39657 0.1458 0.28408 0.0
C150 C 0.41956 0.07615 0.30598 0.0
O151 O 0.40042 0.06537 0.33131 0.0
N152 N 0.35506 0.12133 0.33084 0.0
C153 C 0.30595 0.1241 0.3594 0.0
C154 C 0.31779 0.14442 0.32907 0.0
C155 C 0.34236 0.14245 0.31353 0.0
C156 C 0.34354 0.10123 0.35764 0.0
C157 C 0.3192 0.10227 0.37312 0.0
H158 H 0.35073 0.15758 0.28608 0.0
H159 H 0.35355 0.08418 0.36771 0.0
H160 H 0.39314 0.13073 0.14436 0.0
H161 H 0.35392 0.06434 0.07659 0.0
H162 H 0.44007 0.13464 0.54658 0.0
H163 H 0.30802 0.16139 0.31582 0.0
H164 H 0.31094 0.08615 0.39666 0.0
C165 C 0.91516 0.91015 0.67005 0.0
C166 C 0.91329 0.91264 0.74704 0.0
N167 N 0.92573 0.8938 0.7788 0.0
N168 N 0.92849 0.88968 0.65322 0.0
C169 C 0.93492 0.88028 0.72067 0.0
H170 H 0.90726 0.92244 0.62887 0.0
Co171 Co 0.93559 0.87803 0.55651 0.0
C172 C 0.93758 0.82197 0.56088 0.0
O173 O 0.92867 0.81989 0.49048 0.0
N174 N 0.94349 0.86691 0.45778 0.0
C175 C 0.96573 0.85167 0.36538 0.0
C176 C 0.96384 0.85415 0.44223 0.0
C177 C 0.9337 0.87256 0.38901 0.0
N178 N 0.94679 0.86339 0.33196 0.0
O179 O 0.96885 0.88864 0.57779 0.0
H180 H 0.9769 0.84761 0.48448 0.0
H181 H 0.91773 0.8838 0.3802 0.0
O182 O 0.94158 0.84392 0.59344 0.0
C183 C 0.97054 0.90977 0.54733 0.0
O184 O 0.95104 0.91885 0.51295 0.0
N185 N 0.90241 0.87093 0.53496 0.0
C186 C 0.85198 0.87176 0.51298 0.0
C187 C 0.86338 0.85259 0.5527 0.0
C188 C 0.88866 0.85289 0.56492 0.0
C189 C 0.89142 0.88991 0.49772 0.0
C190 C 0.86634 0.89053 0.48514 0.0
H191 H 0.89672 0.83949 0.60207 0.0
H192 H 0.90222 0.9054 0.48048 0.0
H193 H 0.94588 0.86365 0.72708 0.0
H194 H 0.90375 0.92737 0.77729 0.0
H195 H 0.98048 0.84295 0.33656 0.0
H196 H 0.85279 0.83832 0.57758 0.0
H197 H 0.85822 0.90593 0.45532 0.0
C198 C 0.12931 0.44641 0.72722 0.0
C199 C 0.13178 0.44616 0.65067 0.0
N200 N 0.11306 0.43293 0.61551 0.0
N201 N 0.10929 0.43312 0.74044 0.0
C202 C 0.09964 0.42529 0.67132 0.0
H203 H 0.14101 0.45625 0.77038 0.0
Co204 Co 0.09719 0.42963 0.83439 0.0
C205 C 0.08333 0.37605 0.84038 0.0
O206 O 0.09102 0.37766 0.912 0.0
N207 N 0.08421 0.42704 0.93023 0.0
C208 C 0.0568 0.42115 0.01494 0.0
C209 C 0.06056 0.42201 0.93935 0.0
C210 C 0.09428 0.42964 1.00182 0.0
N211 N 0.07807 0.42594 0.05417 0.0
O212 O 0.06771 0.44497 0.7994 0.0
H213 H 0.04688 0.41864 0.89363 0.0
H214 H 0.11316 0.43357 0.01632 0.0
O215 O 0.08432 0.39563 0.80143 0.0
C216 C 0.06816 0.4689 0.81025 0.0
O217 O 0.08809 0.47977 0.84108 0.0
N218 N 0.12744 0.41644 0.86778 0.0
C219 C 0.17536 0.40374 0.90834 0.0
C220 C 0.1604 0.38726 0.86137 0.0
C221 C 0.13681 0.39429 0.83989 0.0
C222 C 0.14209 0.43319 0.91028 0.0
C223 C 0.16592 0.4271 0.93235 0.0
H224 H 0.12669 0.3823 0.79806 0.0
H225 H 0.13537 0.45176 0.92563 0.0
H226 H 0.08289 0.41456 0.66217 0.0
H227 H 0.14575 0.45586 0.62296 0.0
H228 H 0.03971 0.41739 0.03905 0.0
H229 H 0.16695 0.36926 0.83982 0.0
H230 H 0.17706 0.44101 0.96556 0.0
C231 C 0.55243 0.6111 0.98122 0.0
C232 C 0.54897 0.61151 0.90382 0.0
N233 N 0.57088 0.6116 0.87438 0.0
N234 N 0.57637 0.61087 1.00041 0.0
C235 C 0.58716 0.61112 0.93419 0.0
H236 H 0.53843 0.61106 0.02119 0.0
Co237 Co 0.58957 0.61018 0.09876 0.0
C238 C 0.64091 0.62509 0.09016 0.0
O239 O 0.6387 0.64048 0.14989 0.0
N240 N 0.60269 0.60848 0.19971 0.0
C241 C 0.62472 0.59364 0.2966 0.0
C242 C 0.62186 0.59405 0.21937 0.0
C243 C 0.59384 0.61605 0.26673 0.0
N244 N 0.60699 0.60743 0.32657 0.0
O245 O 0.58925 0.57383 0.08913 0.0
H246 H 0.63245 0.58335 0.17981 0.0
H247 H 0.57746 0.62662 0.27219 0.0
O248 O 0.62277 0.61151 0.0634 0.0
C249 C 0.57214 0.56429 0.12377 0.0
O250 O 0.55803 0.57963 0.1613 0.0
N251 N 0.58729 0.64582 0.10737 0.0
C252 C 0.57876 0.69777 0.12336 0.0
C253 C 0.59522 0.68809 0.07218 0.0
C254 C 0.59879 0.66204 0.06375 0.0
C255 C 0.56937 0.65466 0.15073 0.0
C256 C 0.56534 0.6805 0.16161 0.0
H257 H 0.61054 0.65504 0.02115 0.0
H258 H 0.55768 0.64154 0.17584 0.0
H259 H 0.60657 0.61068 0.92957 0.0
H260 H 0.53169 0.61209 0.87188 0.0
H261 H 0.63798 0.58276 0.32785 0.0
H262 H 0.60498 0.70045 0.03787 0.0
H263 H 0.55189 0.68674 0.20014 0.0
H264 H 0.54685 0.53854 0.22116 0.0
H265 H 0.58438 0.52812 0.01574 0.0
H266 H 0.53097 0.49571 0.20415 0.0
H267 H 0.56854 0.48473 0.99874 0.0
H268 H 0.4965 0.43683 0.9399 0.0
H269 H 0.52719 0.46976 0.96374 0.0
H270 H 0.53679 0.44993 0.19634 0.0
H271 H 0.50562 0.41675 0.17191 0.0
C272 C 0.55214 0.52686 0.17305 0.0
C273 C 0.56658 0.53685 0.11917 0.0
C274 C 0.54322 0.50213 0.16371 0.0
C275 C 0.54833 0.48673 0.09984 0.0
C276 C 0.56408 0.49618 0.04828 0.0
C277 C 0.57325 0.52098 0.0581 0.0
C278 C 0.50572 0.43897 0.99558 0.0
C279 C 0.49858 0.42439 0.05422 0.0
C280 C 0.52346 0.4578 0.0092 0.0
C281 C 0.53432 0.46275 0.08219 0.0
C282 C 0.52857 0.44677 0.13962 0.0
C283 C 0.51091 0.42762 0.12561 0.0
H284 H 0.42625 0.02696 0.33553 0.0
H285 H 0.46318 0.09129 0.25492 0.0
H286 H 0.46256 1.00208 0.32521 0.0
H287 H 0.49974 0.06593 0.24259 0.0
H288 H 0.56686 0.02152 0.33163 0.0
H289 H 0.53071 0.04728 0.32291 0.0
H290 H 0.48847 0.98176 0.23821 0.0
H291 H 0.52463 0.95576 0.24917 0.0
C292 C 0.44209 0.03578 0.31482 0.0
C293 C 0.44182 0.0612 0.29634 0.0
C294 C 0.46292 0.02136 0.30821 0.0
C295 C 0.4841 0.03188 0.28263 0.0
C296 C 0.48379 0.05727 0.26312 0.0
C297 C 0.46284 0.07179 0.2699 0.0
C298 C 0.54991 0.0126 0.3105 0.0
C299 C 0.54859 0.9865 0.29185 0.0
C300 C 0.52918 0.02747 0.30496 0.0
C301 C 0.5066 0.01662 0.28039 0.0
C302 C 0.50549 0.99067 0.25869 0.0
C303 C 0.52624 0.97577 0.26453 0.0
H304 H 0.98931 0.92666 0.42379 0.0
H305 H 0.00186 0.92679 0.66588 0.0
H306 H 0.01804 0.96155 0.41985 0.0
H307 H 0.03076 0.96218 0.66216 0.0
H308 H 0.08731 0.02533 0.60671 0.0
H309 H 0.07106 0.98176 0.60314 0.0
H310 H 0.00672 1.00557 0.47731 0.0
H311 H 0.02251 0.04859 0.48255 0.0
C312 C 0.999 0.93356 0.47589 0.0
C313 C 0.99341 0.92412 0.54512 0.0
C314 C 0.01535 0.9536 0.47366 0.0
C315 C 0.02635 0.96482 0.54076 0.0
C316 C 0.02263 0.95378 0.60954 0.0
C317 C 0.00619 0.9335 0.61173 0.0
C318 C 0.06993 0.02096 0.5771 0.0
C319 C 0.05617 0.04019 0.54447 0.0
C320 C 0.06059 0.99619 0.57561 0.0
C321 C 0.0377 0.99027 0.53958 0.0
C322 C 0.02453 0.00944 0.50467 0.0
C323 C 0.03353 0.0341 0.50776 0.0
H324 H 0.06275 0.51916 0.84374 0.0
H325 H 0.02442 0.45369 0.73998 0.0
H326 H 0.02647 0.54421 0.82701 0.0
H327 H 0.98813 0.47909 0.72051 0.0
H328 H 0.92173 0.52203 0.80025 0.0
H329 H 0.95842 0.49753 0.7959 0.0
H330 H 0.99835 0.56392 0.74269 0.0
H331 H 0.9614 0.58885 0.74984 0.0
C332 C 0.04664 0.51017 0.81625 0.0
C333 C 0.04642 0.48433 0.79386 0.0
C334 C 0.02583 0.52465 0.80603 0.0
C335 C 0.00424 0.51374 0.77262 0.0
C336 C 0.00429 0.48806 0.74768 0.0
C337 C 0.02512 0.47349 0.75847 0.0
C338 C 0.93826 0.53147 0.78705 0.0
C339 C 0.93865 0.5575 0.77596 0.0
C340 C 0.95935 0.51728 0.78386 0.0
C341 C 0.98146 0.52865 0.76896 0.0
C342 C 0.98172 0.55458 0.7554 0.0
C343 C 0.96054 0.56887 0.75903 0.0
H344 H 0.39714 0.40822 0.38104 0.0
H345 H 0.46539 0.3716 0.34705 0.0
H346 H 0.40124 0.40004 0.51482 0.0
H347 H 0.46979 0.36375 0.48111 0.0
H348 H 0.45948 0.33269 0.71101 0.0
H349 H 0.45385 0.33938 0.57629 0.0
H350 H 0.42437 0.41307 0.62837 0.0
H351 H 0.42965 0.4061 0.76272 0.0
C352 C 0.41314 0.39863 0.4023 0.0
C353 C 0.43096 0.39062 0.35338 0.0
C354 C 0.41552 0.39395 0.47909 0.0
C355 C 0.43589 0.38128 0.50904 0.0
C356 C 0.45367 0.37318 0.45993 0.0
C357 C 0.45119 0.37773 0.38301 0.0
C358 C 0.45184 0.35032 0.69354 0.0
C359 C 0.44498 0.36883 0.74755 0.0
C360 C 0.44866 0.35421 0.61633 0.0
C361 C 0.4387 0.37681 0.59123 0.0
C362 C 0.43171 0.39526 0.64542 0.0
C363 C 0.43474 0.39128 0.7226 0.0
H364 H 0.56964 0.9311 0.03495 0.0
H365 H 0.64631 0.92874 1.00178 0.0
H366 H 0.5609 0.92852 0.89837 0.0
H367 H 0.63769 0.92572 0.8654 0.0
H368 H 0.61503 0.9508 0.63039 0.0
H369 H 0.62334 0.95152 0.76668 0.0
H370 H 0.56202 0.90174 0.78529 0.0
H371 H 0.55355 0.9014 0.64874 0.0
C372 C 0.58462 0.92964 0.99848 0.0
C373 C 0.60868 0.93028 0.02919 0.0
C374 C 0.57963 0.92814 0.92011 0.0
C375 C 0.59859 0.9271 0.87065 0.0
C376 C 0.62264 0.92707 0.90162 0.0
C377 C 0.6276 0.92873 0.97984 0.0
C378 C 0.60345 0.93985 0.66347 0.0
C379 C 0.58365 0.92602 0.62866 0.0
C380 C 0.60823 0.94021 0.74173 0.0
C381 C 0.59342 0.9266 0.7872 0.0
C382 C 0.57361 0.91273 0.75228 0.0
C383 C 0.56874 0.91251 0.67397 0.0
H384 H 0.06626 0.1242 0.86386 0.0
H385 H 0.13312 0.08529 0.91647 0.0
H386 H 0.05982 0.12987 0.99754 0.0
H387 H 0.12586 0.08961 0.05003 0.0
H388 H 0.11693 0.12213 0.29002 0.0
H389 H 0.12497 0.11903 0.1562 0.0
H390 H 0.04863 0.10565 0.09869 0.0
H391 H 0.04068 0.10935 0.2321 0.0
C392 C 0.07968 0.1169 0.9036 0.0
C393 C 0.10022 0.10418 0.87871 0.0
C394 C 0.07578 0.11985 0.98057 0.0
C395 C 0.0922 0.11001 0.03475 0.0
C396 C 0.11292 0.09763 0.01005 0.0
C397 C 0.11692 0.09485 0.93311 0.0
C398 C 0.10193 0.11841 0.24866 0.0
C399 C 0.07817 0.11607 0.27149 0.0
C400 C 0.10651 0.11659 0.17196 0.0
C401 C 0.08744 0.11218 0.11645 0.0
C402 C 0.06371 0.10962 0.13962 0.0
C403 C 0.05913 0.11165 0.21615 0.0
H404 H 0.87078 0.58653 0.09755 0.0
H405 H 0.92534 0.64407 0.15602 0.0
H406 H 0.86262 0.58459 0.23023 0.0
H407 H 0.91694 0.64252 0.28901 0.0
H408 H 0.91317 0.61251 0.52693 0.0
H409 H 0.92151 0.61653 0.39471 0.0
H410 H 0.84504 0.60763 0.33125 0.0
H411 H 0.83692 0.60313 0.46308 0.0
C412 C 0.88083 0.599 0.13868 0.0
C413 C 0.89869 0.61547 0.11611 0.0
C414 C 0.87613 0.59794 0.21492 0.0
C415 C 0.88904 0.61347 0.27064 0.0
C416 C 0.90688 0.63001 0.24795 0.0
C417 C 0.91169 0.63093 0.17166 0.0
C418 C 0.89815 0.6117 0.48477 0.0
C419 C 0.8744 0.60731 0.50542 0.0
C420 C 0.9029 0.61402 0.40888 0.0
C421 C 0.88398 0.61219 0.35193 0.0
C422 C 0.86015 0.60854 0.37315 0.0
C423 C 0.85545 0.60603 0.44881 0.0
H424 H 0.37183 0.14401 0.01537 0.0
H425 H 0.38484 0.06442 0.97798 0.0
H426 H 0.37823 0.15023 0.88156 0.0
H427 H 0.39184 0.07069 0.84539 0.0
H428 H 0.43346 0.104 0.64766 0.0
H429 H 0.42612 0.09915 0.78083 0.0
H430 H 0.35476 0.13035 0.74529 0.0
H431 H 0.36191 0.13461 0.61106 0.0
C432 C 0.37617 0.12794 0.97857 0.0
C433 C 0.37775 0.10373 0.00673 0.0
C434 C 0.37968 0.13145 0.90224 0.0
C435 C 0.38548 0.11091 0.85343 0.0
C436 C 0.38739 0.08681 0.88193 0.0
C437 C 0.3833 0.08322 0.95753 0.0
C438 C 0.41625 0.10988 0.6684 0.0
C439 C 0.39824 0.11967 0.61921 0.0
C440 C 0.41203 0.10703 0.74434 0.0
C441 C 0.38993 0.11446 0.77314 0.0
C442 C 0.372 0.12462 0.72439 0.0
C443 C 0.37601 0.1269 0.6478 0.0
H444 H 0.95881 0.83183 0.21566 0.0
H445 H 0.92572 0.90359 0.26772 0.0
H446 H 0.95312 0.83861 0.08104 0.0
H447 H 0.92039 0.91069 0.13339 0.0
H448 H 0.89383 0.90512 0.88515 0.0
H449 H 0.89813 0.89707 0.019 0.0
H450 H 0.96812 0.86376 0.9865 0.0
H451 H 0.96352 0.87145 0.85236 0.0
C452 C 0.95043 0.84912 0.19827 0.0
C453 C 0.94269 0.86714 0.25237 0.0
C454 C 0.94723 0.85307 0.1211 0.0
C455 C 0.93636 0.87525 0.09607 0.0
C456 C 0.92847 0.89319 0.15035 0.0
C457 C 0.93152 0.88914 0.2275 0.0
C458 C 0.91019 0.89622 0.9067 0.0
C459 C 0.92835 0.88897 0.85805 0.0
C460 C 0.91269 0.89161 0.98355 0.0
C461 C 0.9335 0.87978 0.01387 0.0
C462 C 0.95165 0.87251 0.96506 0.0
C463 C 0.94906 0.87696 0.88807 0.0
H464 H 0.14543 0.43006 0.50747 0.0
H465 H 0.06876 0.42837 0.54102 0.0
H466 H 0.13676 0.42737 0.37112 0.0
H467 H 0.05996 0.42599 0.40441 0.0
H468 H 0.05432 0.39941 0.1535 0.0
H469 H 0.06269 0.39953 0.29001 0.0
H470 H 0.12067 0.45372 0.27474 0.0
H471 H 0.11242 0.45336 0.13844 0.0
C472 C 0.1267 0.4292 0.48564 0.0
C473 C 0.10779 0.42959 0.53505 0.0
C474 C 0.12171 0.42773 0.40747 0.0
C475 C 0.09765 0.42673 0.37668 0.0
C476 C 0.07871 0.42647 0.42613 0.0
C477 C 0.08373 0.42783 0.50447 0.0
C478 C 0.06872 0.41148 0.17941 0.0
C479 C 0.08274 0.42633 0.13503 0.0
C480 C 0.07353 0.41156 0.25769 0.0
C481 C 0.09242 0.42655 0.29342 0.0
C482 C 0.1063 0.44154 0.24898 0.0
C483 C 0.10156 0.44138 0.17077 0.0
H484 H 0.61044 0.63169 0.81625 0.0
H485 H 0.54269 0.59281 0.75379 0.0
H486 H 0.61908 0.63232 0.68343 0.0
H487 H 0.55141 0.59308 0.62099 0.0
H488 H 0.56345 0.6173 0.38558 0.0
H489 H 0.55475 0.62005 0.5183 0.0
H490 H 0.6298 0.60467 0.5802 0.0
H491 H 0.63876 0.60325 0.44772 0.0
C492 C 0.59748 0.62307 0.77419 0.0
C493 C 0.5759 0.61214 0.79569 0.0
C494 C 0.60243 0.62343 0.69795 0.0
C495 C 0.58596 0.61273 0.64128 0.0
C496 C 0.56432 0.60189 0.66288 0.0
C497 C 0.55932 0.60167 0.7391 0.0
C498 C 0.57822 0.61494 0.4273 0.0
C499 C 0.60185 0.61 0.40548 0.0
C500 C 0.57314 0.61617 0.50363 0.0
C501 C 0.59152 0.61243 0.56015 0.0
C502 C 0.61521 0.6079 0.53841 0.0
C503 C 0.62031 0.60676 0.46216 0.0
H504 H 0.20196 0.41485 0.04187 0.0
H505 H 0.20727 0.37834 0.81963 0.0
H506 H 0.24487 0.40688 0.07099 0.0
H507 H 0.24983 0.36967 0.85022 0.0
H508 H 0.32748 0.41875 0.03754 0.0
H509 H 0.28363 0.42325 0.01827 0.0
H510 H 0.27705 0.34472 0.94162 0.0
H511 H 0.32111 0.3402 0.96116 0.0
C512 C 0.21219 0.40509 0.99928 0.0
C513 C 0.20108 0.39735 0.92824 0.0
C514 C 0.23672 0.40043 0.01619 0.0
C515 C 0.25061 0.38766 0.96284 0.0
C516 C 0.23944 0.37926 0.89275 0.0
C517 C 0.21499 0.38418 0.87542 0.0
C518 C 0.31664 0.40245 0.01669 0.0
C519 C 0.32763 0.37918 1.00022 0.0
C520 C 0.29157 0.40497 1.00634 0.0
C521 C 0.27699 0.38433 0.97846 0.0
C522 C 0.28793 0.36094 0.96282 0.0
C523 C 0.31304 0.35833 0.97428 0.0
H524 H 0.55469 0.83613 0.37085 0.0
H525 H 0.59027 0.86319 0.18062 0.0
H526 H 0.55187 0.7939 0.30896 0.0
H527 H 0.58777 0.82067 0.11906 0.0
H528 H 0.53712 0.72379 0.15371 0.0
H529 H 0.5335 0.76845 0.19108 0.0
H530 H 0.60947 0.77983 0.15929 0.0
H531 H 0.61353 0.73506 0.1251 0.0
C532 C 0.56147 0.83314 0.3151 0.0
C533 C 0.57276 0.85291 0.28068 0.0
C534 C 0.55979 0.80899 0.27958 0.0
C535 C 0.56973 0.804 0.20944 0.0
C536 C 0.58007 0.82401 0.17334 0.0
C537 C 0.58134 0.84834 0.2083 0.0
C538 C 0.55314 0.73569 0.15495 0.0
C539 C 0.57573 0.72555 0.13737 0.0
C540 C 0.55096 0.76135 0.17574 0.0
C541 C 0.57119 0.77757 0.17814 0.0
C542 C 0.59349 0.76781 0.15701 0.0
C543 C 0.59577 0.74209 0.13729 0.0
H544 H 0.28274 0.16302 0.43159 0.0
H545 H 0.27079 0.08772 0.33071 0.0
H546 H 0.24193 0.16258 0.47747 0.0
H547 H 0.23036 0.08697 0.37824 0.0
H548 H 0.15134 0.10121 0.43344 0.0
H549 H 0.18946 0.10469 0.37136 0.0
H550 H 0.22334 0.1403 0.57619 0.0
H551 H 0.18547 0.13715 0.63759 0.0
C552 C 0.27127 0.14655 0.41821 0.0
C553 C 0.2801 0.12532 0.37827 0.0
C554 C 0.24799 0.14616 0.44518 0.0
C555 C 0.23298 0.12459 0.43244 0.0
C556 C 0.24136 0.1039 0.38895 0.0
C557 C 0.26464 0.10426 0.36228 0.0
C558 C 0.16694 0.10974 0.46517 0.0
C559 C 0.16529 0.11887 0.54056 0.0
C560 C 0.18879 0.11173 0.42961 0.0
C561 C 0.20942 0.123 0.46857 0.0
C562 C 0.20771 0.132 0.54396 0.0
C563 C 0.18599 0.12993 0.57945 0.0
H564 H 0.89538 0.67328 0.67451 0.0
H565 H 0.92121 0.70679 0.89191 0.0
H566 H 0.90734 0.71114 0.61451 0.0
H567 H 0.9344 0.74424 0.83183 0.0
H568 H 0.92889 0.81869 0.71036 0.0
H569 H 0.92115 0.78046 0.77528 0.0
H570 H 0.93882 0.73527 0.57622 0.0
H571 H 0.94517 0.77359 0.51057 0.0
C572 C 0.90395 0.68862 0.70938 0.0
C573 C 0.90725 0.68702 0.788 0.0
C574 C 0.91103 0.71037 0.6749 0.0
C575 C 0.92202 0.73099 0.71794 0.0
C576 C 0.92565 0.7291 0.79664 0.0
C577 C 0.91819 0.70751 0.83121 0.0
C578 C 0.93158 0.80056 0.68114 0.0
C579 C 0.93759 0.79914 0.60531 0.0
C580 C 0.92712 0.77852 0.71835 0.0
C581 C 0.92896 0.7545 0.68098 0.0
C582 C 0.93644 0.75326 0.60645 0.0
C583 C 0.94043 0.77527 0.56894 0.0
H584 H 0.82442 0.91282 0.5433 0.0
H585 H 0.8193 0.83445 0.4643 0.0
H586 H 0.78064 0.91675 0.5229 0.0
H587 H 0.77518 0.83833 0.44415 0.0
H588 H 0.69967 0.91014 0.54011 0.0
H589 H 0.74215 0.90113 0.57221 0.0
H590 H 0.74741 0.86203 0.35414 0.0
H591 H 0.70509 0.87145 0.32113 0.0
C592 C 0.81386 0.89641 0.52177 0.0
C593 C 0.82522 0.87339 0.5047 0.0
C594 C 0.78878 0.89859 0.5108 0.0
C595 C 0.7745 0.87784 0.48197 0.0
C596 C 0.78579 0.85465 0.46605 0.0
C597 C 0.81095 0.85239 0.47793 0.0
C598 C 0.70987 0.89964 0.49892 0.0
C599 C 0.69899 0.89174 0.42775 0.0
C600 C 0.73416 0.8944 0.51747 0.0
C601 C 0.7481 0.88099 0.46552 0.0
C602 C 0.73702 0.87217 0.39562 0.0
C603 C 0.71275 0.87756 0.3768 0.0
H604 H 0.12116 0.22879 0.68435 0.0
H605 H 0.04489 0.2277 0.6147 0.0
H606 H 0.11812 0.27298 0.72959 0.0
H607 H 0.04204 0.27224 0.65919 0.0
H608 H 0.07177 0.36297 0.68956 0.0
H609 H 0.0704 0.32009 0.6288 0.0
H610 H 0.08503 0.28903 0.84594 0.0
H611 H 0.08578 0.33118 0.90692 0.0
C612 C 0.10387 0.23814 0.67746 0.0
C613 C 0.08325 0.22481 0.64637 0.0
C614 C 0.10214 0.26334 0.70338 0.0
C615 C 0.07988 0.27584 0.69742 0.0
C616 C 0.05941 0.26294 0.66375 0.0
C617 C 0.06103 0.23751 0.63895 0.0
C618 C 0.07421 0.34696 0.7244 0.0
C619 C 0.07904 0.35057 0.80307 0.0
C620 C 0.07346 0.32252 0.68962 0.0
C621 C 0.07786 0.30149 0.73298 0.0
C622 C 0.08177 0.30504 0.8115 0.0
C623 C 0.08214 0.32924 0.84623 0.0
H624 H 0.67261 0.66421 0.08587 0.0
H625 H 0.66101 0.5863 0.00783 0.0
H626 H 0.71183 0.66426 0.02903 0.0
H627 H 0.70079 0.58621 0.95287 0.0
H628 H 0.78741 0.59503 0.99214 0.0
H629 H 0.74606 0.59518 0.0313 0.0
H630 H 0.72825 0.6548 0.88301 0.0
H631 H 0.76938 0.65367 0.83889 0.0
C632 C 0.67844 0.64711 0.0564 0.0
C633 C 0.66388 0.62517 0.05169 0.0
C634 C 0.70077 0.64724 0.02352 0.0
C635 C 0.70923 0.62527 0.9868 0.0
C636 C 0.69457 0.60339 0.981 0.0
C637 C 0.67189 0.60344 0.01225 0.0
C638 C 0.7747 0.60782 0.96605 0.0
C639 C 0.7819 0.62406 0.91106 0.0
C640 C 0.751 0.60794 0.98905 0.0
C641 C 0.734 0.62475 0.95942 0.0
C642 C 0.74111 0.64156 0.90633 0.0
C643 C 0.76475 0.64106 0.88176 0.0
H644 H 0.44645 0.31764 0.20434 0.0
H645 H 0.42517 0.27705 0.99277 0.0
H646 H 0.44009 0.2793 0.27119 0.0
H647 H 0.41808 0.23931 0.0591 0.0
H648 H 0.39374 0.21716 0.36782 0.0
H649 H 0.4069 0.25423 0.30596 0.0
H650 H 0.43466 0.20606 0.12756 0.0
H651 H 0.42076 0.169 0.18837 0.0
C652 C 0.44069 0.30053 0.17197 0.0
C653 C 0.43621 0.30055 0.09316 0.0
C654 C 0.4368 0.27857 0.21036 0.0
C655 C 0.42835 0.25612 0.17081 0.0
C656 C 0.42486 0.25601 0.09169 0.0
C657 C 0.42879 0.27784 0.05351 0.0
C658 C 0.40272 0.21445 0.31549 0.0
C659 C 0.40594 0.19005 0.28271 0.0
C660 C 0.41049 0.23577 0.28026 0.0
C661 C 0.42184 0.2333 0.21145 0.0
C662 C 0.42562 0.20881 0.17975 0.0
C663 C 0.41769 0.18749 0.21475 0.0
loop_
_geom_bond_atom_site_label_1
_geom_bond_atom_site_label_2
_geom_bond_distance
_geom_bond_site_symmetry_2
_ccdc_geom_bond_type
C0 C1 1.351 . S
C0 N3 1.368 . S
C0 H5 0.931 . S
C1 C0 1.351 . S
C1 N2 1.373 . S
C1 H29 0.930 . S
N2 C1 1.373 . S
N2 C4 1.340 . S
N3 C0 1.368 . S
N3 C4 1.321 . S
N3 Co6 2.135 . S
C4 N2 1.340 . S
C4 N3 1.321 . S
C4 H28 0.930 . S
H5 C0 0.931 . S
Co6 N3 2.135 . S
Co6 N9 2.121 1_554 S
Co6 O14 2.055 . S
Co6 O17 2.039 . S
Co6 N20 2.140 . S
C7 O8 1.227 . S
C7 O17 1.265 . S
O8 C7 1.227 . S
N9 Co6 2.121 1_556 S
N9 C11 1.375 . S
N9 C12 1.313 . S
C10 C11 1.338 . S
C10 N13 1.377 . S
C10 H30 0.930 . S
C11 N9 1.375 . S
C11 C10 1.338 . S
C11 H15 0.931 . S
C12 N9 1.313 . S
C12 N13 1.344 . S
C12 H16 0.930 . S
N13 C10 1.377 . S
N13 C12 1.344 . S
O14 Co6 2.055 . S
O14 C18 1.253 . S
H15 C11 0.931 . S
H16 C12 0.930 . S
O17 Co6 2.039 . S
O17 C7 1.265 . S
C18 O14 1.253 . S
C18 O19 1.227 . S
O19 C18 1.227 . S
N20 Co6 2.140 . S
N20 C23 1.346 . S
N20 C24 1.345 . S
C21 C22 1.387 . S
C21 C25 1.391 . S
C22 C21 1.387 . S
C22 C23 1.369 . S
C22 H31 0.929 . S
C23 N20 1.346 . S
C23 C22 1.369 . S
C23 H26 0.928 . S
C24 N20 1.345 . S
C24 C25 1.371 . S
C24 H27 0.931 1_554 S
C25 C21 1.391 . S
C25 C24 1.371 . S
C25 H32 0.930 1_554 S
H26 C23 0.928 . S
H27 C24 0.931 1_556 S
H28 C4 0.930 . S
H29 C1 0.930 . S
H30 C10 0.930 . S
H31 C22 0.929 . S
H32 C25 0.930 1_556 S
C33 C34 1.351 . S
C33 N36 1.368 . S
C33 H38 0.931 . S
C34 C33 1.351 . S
C34 N35 1.373 . S
C34 H62 0.930 . S
N35 C34 1.373 . S
N35 C37 1.340 . S
N36 C33 1.368 . S
N36 C37 1.321 . S
N36 Co39 2.135 . S
C37 N35 1.340 . S
C37 N36 1.321 . S
C37 H61 0.930 . S
H38 C33 0.931 . S
Co39 N36 2.135 . S
Co39 N42 2.121 . S
Co39 O47 2.055 . S
Co39 O50 2.039 . S
Co39 N53 2.140 . S
C40 O41 1.227 . S
C40 O50 1.265 . S
O41 C40 1.227 . S
N42 Co39 2.121 . S
N42 C44 1.375 . S
N42 C45 1.313 . S
C43 C44 1.338 . S
C43 N46 1.377 . S
C43 H63 0.930 . S
C44 N42 1.375 . S
C44 C43 1.338 . S
C44 H48 0.931 . S
C45 N42 1.313 . S
C45 N46 1.344 . S
C45 H49 0.930 . S
N46 C43 1.377 . S
N46 C45 1.344 . S
O47 Co39 2.055 . S
O47 C51 1.253 . S
H48 C44 0.931 . S
H49 C45 0.930 . S
O50 Co39 2.039 . S
O50 C40 1.265 . S
C51 O47 1.253 . S
C51 O52 1.227 . S
O52 C51 1.227 . S
N53 Co39 2.140 . S
N53 C56 1.346 . S
N53 C57 1.345 . S
C54 C55 1.387 . S
C54 C58 1.391 . S
C55 C54 1.387 . S
C55 C56 1.369 . S
C55 H64 0.929 . S
C56 N53 1.346 . S
C56 C55 1.369 . S
C56 H59 0.928 . S
C57 N53 1.345 . S
C57 C58 1.371 . S
C57 H60 0.931 . S
C58 C54 1.391 . S
C58 C57 1.371 . S
C58 H65 0.930 . S
H59 C56 0.928 . S
H60 C57 0.931 . S
H61 C37 0.930 . S
H62 C34 0.930 . S
H63 C43 0.930 . S
H64 C55 0.929 . S
H65 C58 0.930 . S
C66 C67 1.351 . S
C66 N69 1.368 . S
C66 H71 0.931 . S
C67 C66 1.351 . S
C67 N68 1.373 . S
C67 H95 0.930 . S
N68 C67 1.373 . S
N68 C70 1.340 . S
N69 C66 1.368 . S
N69 C70 1.321 . S
N69 Co72 2.135 . S
C70 N68 1.340 . S
C70 N69 1.321 . S
C70 H94 0.930 . S
H71 C66 0.931 . S
Co72 N69 2.135 . S
Co72 N75 2.121 . S
Co72 O80 2.055 . S
Co72 O83 2.039 . S
Co72 N86 2.140 . S
C73 O74 1.227 . S
C73 O83 1.265 . S
O74 C73 1.227 . S
N75 Co72 2.121 . S
N75 C77 1.375 . S
N75 C78 1.313 . S
C76 C77 1.338 . S
C76 N79 1.377 . S
C76 H96 0.930 . S
C77 N75 1.375 . S
C77 C76 1.338 . S
C77 H81 0.931 . S
C78 N75 1.313 . S
C78 N79 1.344 . S
C78 H82 0.930 . S
N79 C76 1.377 . S
N79 C78 1.344 . S
O80 Co72 2.055 . S
O80 C84 1.253 . S
H81 C77 0.931 . S
H82 C78 0.930 . S
O83 Co72 2.039 . S
O83 C73 1.265 . S
C84 O80 1.253 . S
C84 O85 1.227 . S
O85 C84 1.227 . S
N86 Co72 2.140 . S
N86 C89 1.346 . S
N86 C90 1.345 . S
C87 C88 1.387 . S
C87 C91 1.391 . S
C88 C87 1.387 . S
C88 C89 1.369 . S
C88 H97 0.929 . S
C89 N86 1.346 . S
C89 C88 1.369 . S
C89 H92 0.928 . S
C90 N86 1.345 . S
C90 C91 1.371 . S
C90 H93 0.931 . S
C91 C87 1.391 . S
C91 C90 1.371 . S
C91 H98 0.930 . S
H92 C89 0.928 . S
H93 C90 0.931 . S
H94 C70 0.930 . S
H95 C67 0.930 . S
H96 C76 0.930 . S
H97 C88 0.929 . S
H98 C91 0.930 . S
C99 C100 1.351 . S
C99 N102 1.368 . S
C99 H104 0.931 . S
C100 C99 1.351 . S
C100 N101 1.373 . S
C100 H128 0.930 . S
N101 C100 1.373 . S
N101 C103 1.340 . S
N102 C99 1.368 . S
N102 C103 1.321 . S
N102 Co105 2.135 . S
C103 N101 1.340 . S
C103 N102 1.321 . S
C103 H127 0.930 . S
H104 C99 0.931 . S
Co105 N102 2.135 . S
Co105 N108 2.121 . S
Co105 O113 2.055 . S
Co105 O116 2.039 . S
Co105 N119 2.140 . S
C106 O107 1.227 . S
C106 O116 1.265 . S
O107 C106 1.227 . S
N108 Co105 2.121 . S
N108 C110 1.375 . S
N108 C111 1.313 1_556 S
C109 C110 1.338 1_554 S
C109 N112 1.377 . S
C109 H129 0.930 . S
C110 N108 1.375 . S
C110 C109 1.338 1_556 S
C110 H114 0.931 . S
C111 N108 1.313 1_554 S
C111 N112 1.344 . S
C111 H115 0.931 . S
N112 C109 1.377 . S
N112 C111 1.344 . S
O113 Co105 2.055 . S
O113 C117 1.253 . S
H114 C110 0.931 . S
H115 C111 0.931 . S
O116 Co105 2.039 . S
O116 C106 1.265 . S
C117 O113 1.253 . S
C117 O118 1.227 . S
O118 C117 1.227 . S
N119 Co105 2.140 . S
N119 C122 1.346 . S
N119 C123 1.345 . S
C120 C121 1.387 . S
C120 C124 1.391 . S
C121 C120 1.387 . S
C121 C122 1.369 . S
C121 H130 0.929 . S
C122 N119 1.346 . S
C122 C121 1.369 . S
C122 H125 0.928 . S
C123 N119 1.345 . S
C123 C124 1.371 . S
C123 H126 0.931 . S
C124 C120 1.391 . S
C124 C123 1.371 . S
C124 H131 0.930 . S
H125 C122 0.928 . S
H126 C123 0.931 . S
H127 C103 0.930 . S
H128 C100 0.930 . S
H129 C109 0.930 . S
H130 C121 0.929 . S
H131 C124 0.930 . S
C132 C133 1.351 . S
C132 N135 1.368 . S
C132 H137 0.931 . S
C133 C132 1.351 . S
C133 N134 1.373 . S
C133 H161 0.930 . S
N134 C133 1.373 . S
N134 C136 1.340 . S
N135 C132 1.368 . S
N135 C136 1.321 . S
N135 Co138 2.135 . S
C136 N134 1.340 . S
C136 N135 1.321 . S
C136 H160 0.930 . S
H137 C132 0.931 . S
Co138 N135 2.135 . S
Co138 N141 2.121 . S
Co138 O146 2.055 . S
Co138 O149 2.039 . S
Co138 N152 2.140 . S
C139 O140 1.227 . S
C139 O149 1.265 . S
O140 C139 1.227 . S
N141 Co138 2.121 . S
N141 C143 1.375 . S
N141 C144 1.313 . S
C142 C143 1.338 . S
C142 N145 1.377 . S
C142 H162 0.930 . S
C143 N141 1.375 . S
C143 C142 1.338 . S
C143 H147 0.931 . S
C144 N141 1.313 . S
C144 N145 1.344 . S
C144 H148 0.930 . S
N145 C142 1.377 . S
N145 C144 1.344 . S
O146 Co138 2.055 . S
O146 C150 1.253 . S
H147 C143 0.931 . S
H148 C144 0.930 . S
O149 Co138 2.039 . S
O149 C139 1.265 . S
C150 O146 1.253 . S
C150 O151 1.227 . S
O151 C150 1.227 . S
N152 Co138 2.140 . S
N152 C155 1.346 . S
N152 C156 1.345 . S
C153 C154 1.387 . S
C153 C157 1.391 . S
C154 C153 1.387 . S
C154 C155 1.369 . S
C154 H163 0.929 . S
C155 N152 1.346 . S
C155 C154 1.369 . S
C155 H158 0.928 . S
C156 N152 1.345 . S
C156 C157 1.371 . S
C156 H159 0.931 . S
C157 C153 1.391 . S
C157 C156 1.371 . S
C157 H164 0.930 . S
H158 C155 0.928 . S
H159 C156 0.931 . S
H160 C136 0.930 . S
H161 C133 0.930 . S
H162 C142 0.930 . S
H163 C154 0.929 . S
H164 C157 0.930 . S
C165 C166 1.351 . S
C165 N168 1.368 . S
C165 H170 0.931 . S
C166 C165 1.351 . S
C166 N167 1.373 . S
C166 H194 0.930 . S
N167 C166 1.373 . S
N167 C169 1.340 . S
N168 C165 1.368 . S
N168 C169 1.321 . S
N168 Co171 2.135 . S
C169 N167 1.340 . S
C169 N168 1.321 . S
C169 H193 0.930 . S
H170 C165 0.931 . S
Co171 N168 2.135 . S
Co171 N174 2.121 . S
Co171 O179 2.055 . S
Co171 O182 2.039 . S
Co171 N185 2.140 . S
C172 O173 1.227 . S
C172 O182 1.265 . S
O173 C172 1.227 . S
N174 Co171 2.121 . S
N174 C176 1.375 . S
N174 C177 1.313 . S
C175 C176 1.338 . S
C175 N178 1.377 . S
C175 H195 0.930 . S
C176 N174 1.375 . S
C176 C175 1.338 . S
C176 H180 0.931 . S
C177 N174 1.313 . S
C177 N178 1.344 . S
C177 H181 0.930 . S
N178 C175 1.377 . S
N178 C177 1.344 . S
O179 Co171 2.055 . S
O179 C183 1.253 . S
H180 C176 0.931 . S
H181 C177 0.930 . S
O182 Co171 2.039 . S
O182 C172 1.265 . S
C183 O179 1.253 . S
C183 O184 1.227 . S
O184 C183 1.227 . S
N185 Co171 2.140 . S
N185 C188 1.346 . S
N185 C189 1.345 . S
C186 C187 1.387 . S
C186 C190 1.391 . S
C187 C186 1.387 . S
C187 C188 1.369 . S
C187 H196 0.929 . S
C188 N185 1.346 . S
C188 C187 1.369 . S
C188 H191 0.928 . S
C189 N185 1.345 . S
C189 C190 1.371 . S
C189 H192 0.931 . S
C190 C186 1.391 . S
C190 C189 1.371 . S
C190 H197 0.930 . S
H191 C188 0.928 . S
H192 C189 0.931 . S
H193 C169 0.930 . S
H194 C166 0.930 . S
H195 C175 0.930 . S
H196 C187 0.929 . S
H197 C190 0.930 . S
C198 C199 1.351 . S
C198 N201 1.368 . S
C198 H203 0.931 . S
C199 C198 1.351 . S
C199 N200 1.373 . S
C199 H227 0.930 . S
N200 C199 1.373 . S
N200 C202 1.340 . S
N201 C198 1.368 . S
N201 C202 1.321 . S
N201 Co204 2.135 . S
C202 N200 1.340 . S
C202 N201 1.321 . S
C202 H226 0.930 . S
H203 C198 0.931 . S
Co204 N201 2.135 . S
Co204 N207 2.121 . S
Co204 O212 2.055 . S
Co204 O215 2.039 . S
Co204 N218 2.140 . S
C205 O206 1.227 . S
C205 O215 1.265 . S
O206 C205 1.227 . S
N207 Co204 2.121 . S
N207 C209 1.375 . S
N207 C210 1.313 . S
C208 C209 1.338 1_554 S
C208 N211 1.377 . S
C208 H228 0.930 . S
C209 N207 1.375 . S
C209 C208 1.338 1_556 S
C209 H213 0.931 . S
C210 N207 1.313 . S
C210 N211 1.344 1_556 S
C210 H214 0.930 . S
N211 C208 1.377 . S
N211 C210 1.344 1_554 S
O212 Co204 2.055 . S
O212 C216 1.253 . S
H213 C209 0.931 . S
H214 C210 0.930 . S
O215 Co204 2.039 . S
O215 C205 1.265 . S
C216 O212 1.253 . S
C216 O217 1.227 . S
O217 C216 1.227 . S
N218 Co204 2.140 . S
N218 C221 1.346 . S
N218 C222 1.345 . S
C219 C220 1.387 . S
C219 C223 1.391 . S
C220 C219 1.387 . S
C220 C221 1.369 . S
C220 H229 0.929 . S
C221 N218 1.346 . S
C221 C220 1.369 . S
C221 H224 0.928 . S
C222 N218 1.345 . S
C222 C223 1.371 . S
C222 H225 0.931 . S
C223 C219 1.391 . S
C223 C222 1.371 . S
C223 H230 0.930 . S
H224 C221 0.928 . S
H225 C222 0.931 . S
H226 C202 0.930 . S
H227 C199 0.930 . S
H228 C208 0.930 . S
H229 C220 0.929 . S
H230 C223 0.930 . S
C231 C232 1.351 . S
C231 N234 1.368 . S
C231 H236 0.931 . S
C232 C231 1.351 . S
C232 N233 1.373 . S
C232 H260 0.930 . S
N233 C232 1.373 . S
N233 C235 1.340 . S
N234 C231 1.368 . S
N234 C235 1.321 . S
N234 Co237 2.135 1_556 S
C235 N233 1.340 . S
C235 N234 1.321 . S
C235 H259 0.930 . S
H236 C231 0.931 . S
Co237 N234 2.135 1_554 S
Co237 N240 2.121 . S
Co237 O245 2.055 . S
Co237 O248 2.039 1_554 S
Co237 N251 2.140 . S
C238 O239 1.227 . S
C238 O248 1.265 . S
O239 C238 1.227 . S
N240 Co237 2.121 . S
N240 C242 1.375 . S
N240 C243 1.313 . S
C241 C242 1.338 . S
C241 N244 1.377 . S
C241 H261 0.930 . S
C242 N240 1.375 . S
C242 C241 1.338 . S
C242 H246 0.931 . S
C243 N240 1.313 . S
C243 N244 1.344 . S
C243 H247 0.930 . S
N244 C241 1.377 . S
N244 C243 1.344 . S
O245 Co237 2.055 . S
O245 C249 1.253 . S
H246 C242 0.931 . S
H247 C243 0.930 . S
O248 Co237 2.039 1_556 S
O248 C238 1.265 . S
C249 O245 1.253 . S
C249 O250 1.227 . S
O250 C249 1.227 . S
N251 Co237 2.140 . S
N251 C254 1.346 1_554 S
N251 C255 1.345 . S
C252 C253 1.387 1_554 S
C252 C256 1.391 . S
C253 C252 1.387 1_556 S
C253 C254 1.369 . S
C253 H262 0.929 . S
C254 N251 1.346 1_556 S
C254 C253 1.369 . S
C254 H257 0.928 . S
C255 N251 1.345 . S
C255 C256 1.371 . S
C255 H258 0.931 . S
C256 C252 1.391 . S
C256 C255 1.371 . S
C256 H263 0.930 . S
H257 C254 0.928 . S
H258 C255 0.931 . S
H259 C235 0.930 . S
H260 C232 0.930 . S
H261 C241 0.930 . S
H262 C253 0.929 . S
H263 C256 0.930 . S
H264 C272 0.950 . S
H265 C277 0.950 1_556 S
H266 C274 0.950 . S
H267 C276 0.950 . S
H268 C278 0.950 . S
H269 C280 0.950 . S
H270 C282 0.950 . S
H271 C283 0.950 . S
C272 H264 0.950 . S
C272 C273 1.386 . S
C272 C274 1.391 . S
C273 C272 1.386 . S
C273 C277 1.393 . S
C274 H266 0.950 . S
C274 C272 1.391 . S
C274 C275 1.400 . S
C275 C274 1.400 . S
C275 C276 1.398 . S
C275 C281 1.491 . S
C276 H267 0.950 . S
C276 C275 1.398 . S
C276 C277 1.391 . S
C277 H265 0.950 1_554 S
C277 C273 1.393 . S
C277 C276 1.391 . S
C278 H268 0.950 . S
C278 C279 1.386 . S
C278 C280 1.391 . S
C279 C278 1.386 . S
C279 C283 1.393 . S
C280 H269 0.950 . S
C280 C278 1.391 . S
C280 C281 1.400 . S
C281 C275 1.491 . S
C281 C280 1.400 . S
C281 C282 1.398 . S
C282 H270 0.950 . S
C282 C281 1.398 . S
C282 C283 1.391 . S
C283 H271 0.950 . S
C283 C279 1.393 . S
C283 C282 1.391 . S
H284 C292 0.950 . S
H285 C297 0.950 . S
H286 C294 0.989 . S
H287 C296 0.950 . S
H288 C298 0.950 . S
H289 C300 0.950 1_545 S
H290 C302 0.950 . S
H291 C303 0.950 . S
C292 H284 0.950 . S
C292 C293 1.386 . S
C292 C294 1.391 . S
C293 C292 1.386 . S
C293 C297 1.393 . S
C294 H286 0.989 . S
C294 C292 1.391 . S
C294 C295 1.400 . S
C295 C294 1.400 . S
C295 C296 1.398 . S
C295 C301 1.491 1_545 S
C296 H287 0.950 . S
C296 C295 1.398 . S
C296 C297 1.391 . S
C297 H285 0.950 . S
C297 C293 1.393 . S
C297 C296 1.391 . S
C298 H288 0.950 . S
C298 C299 1.386 . S
C298 C300 1.391 . S
C299 C298 1.386 . S
C299 C303 1.393 . S
C300 H289 0.950 1_565 S
C300 C298 1.391 . S
C300 C301 1.400 . S
C301 C295 1.491 1_565 S
C301 C300 1.400 . S
C301 C302 1.398 . S
C302 H290 0.950 . S
C302 C301 1.398 . S
C302 C303 1.391 . S
C303 H291 0.950 . S
C303 C299 1.393 . S
C303 C302 1.391 . S
H304 C312 0.950 . S
H305 C317 0.950 . S
H306 C314 0.950 1_545 S
H307 C316 0.950 . S
H308 C318 0.950 . S
H309 C320 0.950 1_565 S
H310 C322 0.950 1_655 S
H311 C323 0.950 . S
C312 H304 0.950 . S
C312 C313 1.386 . S
C312 C314 1.391 . S
C313 C312 1.386 . S
C313 C317 1.393 . S
C314 H306 0.950 1_565 S
C314 C312 1.391 . S
C314 C315 1.400 . S
C315 C314 1.400 . S
C315 C316 1.398 1_655 S
C315 C321 1.491 1_665 S
C316 H307 0.950 . S
C316 C315 1.398 1_455 S
C316 C317 1.391 1_455 S
C317 H305 0.950 . S
C317 C313 1.393 . S
C317 C316 1.391 1_655 S
C318 H308 0.950 . S
C318 C319 1.386 . S
C318 C320 1.391 . S
C319 C318 1.386 . S
C319 C323 1.393 . S
C320 H309 0.950 1_545 S
C320 C318 1.391 . S
C320 C321 1.400 . S
C321 C315 1.491 1_445 S
C321 C320 1.400 . S
C321 C322 1.398 . S
C322 H310 0.950 1_455 S
C322 C321 1.398 . S
C322 C323 1.391 . S
C323 H311 0.950 . S
C323 C319 1.393 . S
C323 C322 1.391 . S
H324 C332 0.950 . S
H325 C337 0.950 . S
H326 C334 0.950 . S
H327 C336 0.977 . S
H328 C338 0.950 . S
H329 C340 0.950 . S
H330 C342 0.950 1_455 S
H331 C343 0.950 . S
C332 H324 0.950 . S
C332 C333 1.386 . S
C332 C334 1.391 . S
C333 C332 1.386 . S
C333 C337 1.393 . S
C334 H326 0.950 . S
C334 C332 1.391 . S
C334 C335 1.400 . S
C335 C334 1.400 . S
C335 C336 1.392 1_455 S
C335 C341 1.491 1_455 S
C336 H327 0.977 . S
C336 C335 1.392 1_655 S
C336 C337 1.372 1_655 S
C337 H325 0.950 . S
C337 C333 1.393 . S
C337 C336 1.372 1_455 S
C338 H328 0.950 . S
C338 C339 1.386 . S
C338 C340 1.391 . S
C339 C338 1.386 . S
C339 C343 1.393 . S
C340 H329 0.950 . S
C340 C338 1.391 . S
C340 C341 1.400 . S
C341 C335 1.491 1_655 S
C341 C340 1.400 . S
C341 C342 1.398 . S
C342 H330 0.950 1_655 S
C342 C341 1.398 . S
C342 C343 1.391 . S
C343 H331 0.950 . S
C343 C339 1.393 . S
C343 C342 1.391 . S
H344 C352 0.950 . S
H345 C357 0.950 . S
H346 C354 0.950 . S
H347 C356 0.950 . S
H348 C358 0.950 . S
H349 C360 0.950 . S
H350 C362 0.950 . S
H351 C363 0.950 . S
C352 H344 0.950 . S
C352 C353 1.386 . S
C352 C354 1.391 . S
C353 C352 1.386 . S
C353 C357 1.393 . S
C354 H346 0.950 . S
C354 C352 1.391 . S
C354 C355 1.400 . S
C355 C354 1.400 . S
C355 C356 1.398 . S
C355 C361 1.491 . S
C356 H347 0.950 . S
C356 C355 1.398 . S
C356 C357 1.391 . S
C357 H345 0.950 . S
C357 C353 1.393 . S
C357 C356 1.391 . S
C358 H348 0.950 . S
C358 C359 1.386 . S
C358 C360 1.391 . S
C359 C358 1.386 . S
C359 C363 1.393 . S
C360 H349 0.950 . S
C360 C358 1.391 . S
C360 C361 1.400 . S
C361 C355 1.491 . S
C361 C360 1.400 . S
C361 C362 1.398 . S
C362 H350 0.950 . S
C362 C361 1.398 . S
C362 C363 1.391 . S
C363 H351 0.950 . S
C363 C359 1.393 . S
C363 C362 1.391 . S
H364 C372 0.950 1_554 S
H365 C377 0.950 1_554 S
H366 C374 0.950 . S
H367 C376 0.950 . S
H368 C378 0.950 . S
H369 C380 0.950 . S
H370 C382 0.950 . S
H371 C383 0.950 . S
C372 H364 0.950 1_556 S
C372 C373 1.386 1_556 S
C372 C374 1.391 . S
C373 C372 1.386 1_554 S
C373 C377 1.393 1_554 S
C374 H366 0.950 . S
C374 C372 1.391 . S
C374 C375 1.400 . S
C375 C374 1.400 . S
C375 C376 1.398 . S
C375 C381 1.491 . S
C376 H367 0.950 . S
C376 C375 1.398 . S
C376 C377 1.391 . S
C377 H365 0.950 1_556 S
C377 C373 1.393 1_556 S
C377 C376 1.391 . S
C378 H368 0.950 . S
C378 C379 1.386 . S
C378 C380 1.391 . S
C379 C378 1.386 . S
C379 C383 1.393 . S
C380 H369 0.950 . S
C380 C378 1.391 . S
C380 C381 1.400 . S
C381 C375 1.491 . S
C381 C380 1.400 . S
C381 C382 1.398 . S
C382 H370 0.950 . S
C382 C381 1.398 . S
C382 C383 1.391 . S
C383 H371 0.950 . S
C383 C379 1.393 . S
C383 C382 1.391 . S
H384 C392 0.950 . S
H385 C397 0.950 . S
H386 C394 0.950 . S
H387 C396 0.950 . S
H388 C398 0.950 . S
H389 C400 0.950 . S
H390 C402 0.950 . S
H391 C403 0.950 . S
C392 H384 0.950 . S
C392 C393 1.386 . S
C392 C394 1.391 . S
C393 C392 1.386 . S
C393 C397 1.393 . S
C394 H386 0.950 . S
C394 C392 1.391 . S
C394 C395 1.400 . S
C395 C394 1.400 . S
C395 C396 1.398 . S
C395 C401 1.491 1_556 S
C396 H387 0.950 . S
C396 C395 1.398 . S
C396 C397 1.391 . S
C397 H385 0.950 . S
C397 C393 1.393 . S
C397 C396 1.391 . S
C398 H388 0.950 . S
C398 C399 1.386 . S
C398 C400 1.391 . S
C399 C398 1.386 . S
C399 C403 1.393 . S
C400 H389 0.950 . S
C400 C398 1.391 . S
C400 C401 1.400 . S
C401 C395 1.491 1_554 S
C401 C400 1.400 . S
C401 C402 1.398 . S
C402 H390 0.950 . S
C402 C401 1.398 . S
C402 C403 1.391 . S
C403 H391 0.950 . S
C403 C399 1.393 . S
C403 C402 1.391 . S
H404 C412 0.950 . S
H405 C417 0.950 . S
H406 C414 0.950 . S
H407 C416 0.950 . S
H408 C418 0.950 . S
H409 C420 0.950 . S
H410 C422 0.950 . S
H411 C423 0.950 . S
C412 H404 0.950 . S
C412 C413 1.386 . S
C412 C414 1.391 . S
C413 C412 1.386 . S
C413 C417 1.393 . S
C414 H406 0.950 . S
C414 C412 1.391 . S
C414 C415 1.400 . S
C415 C414 1.400 . S
C415 C416 1.398 . S
C415 C421 1.491 . S
C416 H407 0.950 . S
C416 C415 1.398 . S
C416 C417 1.391 . S
C417 H405 0.950 . S
C417 C413 1.393 . S
C417 C416 1.391 . S
C418 H408 0.950 . S
C418 C419 1.386 . S
C418 C420 1.391 . S
C419 C418 1.386 . S
C419 C423 1.393 . S
C420 H409 0.950 . S
C420 C418 1.391 . S
C420 C421 1.400 . S
C421 C415 1.491 . S
C421 C420 1.400 . S
C421 C422 1.398 . S
C422 H410 0.950 . S
C422 C421 1.398 . S
C422 C423 1.391 . S
C423 H411 0.950 . S
C423 C419 1.393 . S
C423 C422 1.391 . S
H424 C432 0.950 . S
H425 C437 0.950 . S
H426 C434 0.950 . S
H427 C436 0.950 . S
H428 C438 0.950 . S
H429 C440 0.950 . S
H430 C442 0.950 . S
H431 C443 0.950 . S
C432 H424 0.950 . S
C432 C433 1.386 1_556 S
C432 C434 1.391 . S
C433 C432 1.386 1_554 S
C433 C437 1.393 . S
C434 H426 0.950 . S
C434 C432 1.391 . S
C434 C435 1.400 . S
C435 C434 1.400 . S
C435 C436 1.398 . S
C435 C441 1.491 . S
C436 H427 0.950 . S
C436 C435 1.398 . S
C436 C437 1.391 1_556 S
C437 H425 0.950 . S
C437 C433 1.393 . S
C437 C436 1.391 1_554 S
C438 H428 0.950 . S
C438 C439 1.386 . S
C438 C440 1.391 . S
C439 C438 1.386 . S
C439 C443 1.393 . S
C440 H429 0.950 . S
C440 C438 1.391 . S
C440 C441 1.400 . S
C441 C435 1.491 . S
C441 C440 1.400 . S
C441 C442 1.398 . S
C442 H430 0.950 . S
C442 C441 1.398 . S
C442 C443 1.391 . S
C443 H431 0.950 . S
C443 C439 1.393 . S
C443 C442 1.391 . S
H444 C452 0.950 . S
H445 C457 0.950 . S
H446 C454 0.950 . S
H447 C456 0.950 . S
H448 C458 0.950 . S
H449 C460 0.950 . S
H450 C462 0.950 . S
H451 C463 0.950 . S
C452 H444 0.950 . S
C452 C453 1.386 . S
C452 C454 1.391 . S
C453 C452 1.386 . S
C453 C457 1.393 . S
C454 H446 0.950 . S
C454 C452 1.391 . S
C454 C455 1.400 . S
C455 C454 1.400 . S
C455 C456 1.398 . S
C455 C461 1.491 . S
C456 H447 0.950 . S
C456 C455 1.398 . S
C456 C457 1.391 . S
C457 H445 0.950 . S
C457 C453 1.393 . S
C457 C456 1.391 . S
C458 H448 0.950 . S
C458 C459 1.386 . S
C458 C460 1.391 1_556 S
C459 C458 1.386 . S
C459 C463 1.393 . S
C460 H449 0.950 . S
C460 C458 1.391 1_554 S
C460 C461 1.400 . S
C461 C455 1.491 . S
C461 C460 1.400 . S
C461 C462 1.398 . S
C462 H450 0.950 . S
C462 C461 1.398 . S
C462 C463 1.391 1_554 S
C463 H451 0.950 . S
C463 C459 1.393 . S
C463 C462 1.391 1_556 S
H464 C472 0.950 . S
H465 C477 0.950 . S
H466 C474 0.950 . S
H467 C476 0.950 . S
H468 C478 0.950 . S
H469 C480 0.950 . S
H470 C482 0.950 . S
H471 C483 0.950 . S
C472 H464 0.950 . S
C472 C473 1.386 . S
C472 C474 1.391 . S
C473 C472 1.386 . S
C473 C477 1.393 . S
C474 H466 0.950 . S
C474 C472 1.391 . S
C474 C475 1.400 . S
C475 C474 1.400 . S
C475 C476 1.398 . S
C475 C481 1.491 . S
C476 H467 0.950 . S
C476 C475 1.398 . S
C476 C477 1.391 . S
C477 H465 0.950 . S
C477 C473 1.393 . S
C477 C476 1.391 . S
C478 H468 0.950 . S
C478 C479 1.386 . S
C478 C480 1.391 . S
C479 C478 1.386 . S
C479 C483 1.393 . S
C480 H469 0.950 . S
C480 C478 1.391 . S
C480 C481 1.400 . S
C481 C475 1.491 . S
C481 C480 1.400 . S
C481 C482 1.398 . S
C482 H470 0.950 . S
C482 C481 1.398 . S
C482 C483 1.391 . S
C483 H471 0.950 . S
C483 C479 1.393 . S
C483 C482 1.391 . S
H484 C492 0.950 . S
H485 C497 0.950 . S
H486 C494 0.950 . S
H487 C496 0.950 . S
H488 C498 0.950 . S
H489 C500 0.950 . S
H490 C502 0.950 . S
H491 C503 0.950 . S
C492 H484 0.950 . S
C492 C493 1.386 . S
C492 C494 1.391 . S
C493 C492 1.386 . S
C493 C497 1.393 . S
C494 H486 0.950 . S
C494 C492 1.391 . S
C494 C495 1.400 . S
C495 C494 1.400 . S
C495 C496 1.398 . S
C495 C501 1.491 . S
C496 H487 0.950 . S
C496 C495 1.398 . S
C496 C497 1.391 . S
C497 H485 0.950 . S
C497 C493 1.393 . S
C497 C496 1.391 . S
C498 H488 0.950 . S
C498 C499 1.386 . S
C498 C500 1.391 . S
C499 C498 1.386 . S
C499 C503 1.393 . S
C500 H489 0.950 . S
C500 C498 1.391 . S
C500 C501 1.400 . S
C501 C495 1.491 . S
C501 C500 1.400 . S
C501 C502 1.398 . S
C502 H490 0.950 . S
C502 C501 1.398 . S
C502 C503 1.391 . S
C503 H491 0.950 . S
C503 C499 1.393 . S
C503 C502 1.391 . S
H504 C512 0.950 . S
H505 C517 0.950 . S
H506 C514 0.950 1_554 S
H507 C516 0.950 . S
H508 C518 0.950 . S
H509 C520 0.950 . S
H510 C522 0.950 . S
H511 C523 0.950 . S
C512 H504 0.950 . S
C512 C513 1.386 . S
C512 C514 1.391 . S
C513 C512 1.386 . S
C513 C517 1.393 . S
C514 H506 0.950 1_556 S
C514 C512 1.391 . S
C514 C515 1.400 . S
C515 C514 1.400 . S
C515 C516 1.398 . S
C515 C521 1.491 . S
C516 H507 0.950 . S
C516 C515 1.398 . S
C516 C517 1.391 . S
C517 H505 0.950 . S
C517 C513 1.393 . S
C517 C516 1.391 . S
C518 H508 0.950 . S
C518 C519 1.386 1_556 S
C518 C520 1.391 . S
C519 C518 1.386 1_554 S
C519 C523 1.393 . S
C520 H509 0.950 . S
C520 C518 1.391 . S
C520 C521 1.400 . S
C521 C515 1.491 . S
C521 C520 1.400 . S
C521 C522 1.398 1_556 S
C522 H510 0.950 . S
C522 C521 1.398 1_554 S
C522 C523 1.391 . S
C523 H511 0.950 . S
C523 C519 1.393 . S
C523 C522 1.391 . S
H524 C532 0.950 . S
H525 C537 0.950 . S
H526 C534 0.950 . S
H527 C536 0.950 . S
H528 C538 0.950 . S
H529 C540 0.950 . S
H530 C542 0.950 . S
H531 C543 0.950 . S
C532 H524 0.950 . S
C532 C533 1.386 . S
C532 C534 1.391 . S
C533 C532 1.386 . S
C533 C537 1.393 . S
C534 H526 0.950 . S
C534 C532 1.391 . S
C534 C535 1.400 . S
C535 C534 1.400 . S
C535 C536 1.398 . S
C535 C541 1.491 . S
C536 H527 0.950 . S
C536 C535 1.398 . S
C536 C537 1.391 . S
C537 H525 0.950 . S
C537 C533 1.393 . S
C537 C536 1.391 . S
C538 H528 0.950 . S
C538 C539 1.386 . S
C538 C540 1.391 . S
C539 C538 1.386 . S
C539 C543 1.393 . S
C540 H529 0.950 . S
C540 C538 1.391 . S
C540 C541 1.400 . S
C541 C535 1.491 . S
C541 C540 1.400 . S
C541 C542 1.398 . S
C542 H530 0.950 . S
C542 C541 1.398 . S
C542 C543 1.391 . S
C543 H531 0.950 . S
C543 C539 1.393 . S
C543 C542 1.391 . S
H544 C552 0.950 . S
H545 C557 0.950 . S
H546 C554 0.950 . S
H547 C556 0.950 . S
H548 C558 0.950 . S
H549 C560 0.950 . S
H550 C562 0.950 . S
H551 C563 0.950 . S
C552 H544 0.950 . S
C552 C553 1.386 . S
C552 C554 1.391 . S
C553 C552 1.386 . S
C553 C557 1.393 . S
C554 H546 0.950 . S
C554 C552 1.391 . S
C554 C555 1.400 . S
C555 C554 1.400 . S
C555 C556 1.398 . S
C555 C561 1.491 . S
C556 H547 0.950 . S
C556 C555 1.398 . S
C556 C557 1.391 . S
C557 H545 0.950 . S
C557 C553 1.393 . S
C557 C556 1.391 . S
C558 H548 0.950 . S
C558 C559 1.386 . S
C558 C560 1.391 . S
C559 C558 1.386 . S
C559 C563 1.393 . S
C560 H549 0.950 . S
C560 C558 1.391 . S
C560 C561 1.400 . S
C561 C555 1.491 . S
C561 C560 1.400 . S
C561 C562 1.398 . S
C562 H550 0.950 . S
C562 C561 1.398 . S
C562 C563 1.391 . S
C563 H551 0.950 . S
C563 C559 1.393 . S
C563 C562 1.391 . S
H564 C572 0.950 . S
H565 C577 0.950 . S
H566 C574 0.950 . S
H567 C576 0.950 . S
H568 C578 0.950 . S
H569 C580 0.950 . S
H570 C582 0.950 . S
H571 C583 0.950 . S
C572 H564 0.950 . S
C572 C573 1.386 . S
C572 C574 1.391 . S
C573 C572 1.386 . S
C573 C577 1.393 . S
C574 H566 0.950 . S
C574 C572 1.391 . S
C574 C575 1.400 . S
C575 C574 1.400 . S
C575 C576 1.398 . S
C575 C581 1.491 . S
C576 H567 0.950 . S
C576 C575 1.398 . S
C576 C577 1.391 . S
C577 H565 0.950 . S
C577 C573 1.393 . S
C577 C576 1.391 . S
C578 H568 0.950 . S
C578 C579 1.386 . S
C578 C580 1.391 . S
C579 C578 1.386 . S
C579 C583 1.393 . S
C580 H569 0.950 . S
C580 C578 1.391 . S
C580 C581 1.400 . S
C581 C575 1.491 . S
C581 C580 1.400 . S
C581 C582 1.398 . S
C582 H570 0.950 . S
C582 C581 1.398 . S
C582 C583 1.391 . S
C583 H571 0.950 . S
C583 C579 1.393 . S
C583 C582 1.391 . S
H584 C592 0.950 . S
H585 C597 0.950 . S
H586 C594 0.950 . S
H587 C596 0.950 . S
H588 C598 0.950 . S
H589 C600 0.950 . S
H590 C602 0.950 . S
H591 C603 0.950 . S
C592 H584 0.950 . S
C592 C593 1.386 . S
C592 C594 1.391 . S
C593 C592 1.386 . S
C593 C597 1.393 . S
C594 H586 0.950 . S
C594 C592 1.391 . S
C594 C595 1.400 . S
C595 C594 1.400 . S
C595 C596 1.398 . S
C595 C601 1.491 . S
C596 H587 0.950 . S
C596 C595 1.398 . S
C596 C597 1.391 . S
C597 H585 0.950 . S
C597 C593 1.393 . S
C597 C596 1.391 . S
C598 H588 0.950 . S
C598 C599 1.386 . S
C598 C600 1.391 . S
C599 C598 1.386 . S
C599 C603 1.393 . S
C600 H589 0.950 . S
C600 C598 1.391 . S
C600 C601 1.400 . S
C601 C595 1.491 . S
C601 C600 1.400 . S
C601 C602 1.398 . S
C602 H590 0.950 . S
C602 C601 1.398 . S
C602 C603 1.391 . S
C603 H591 0.950 . S
C603 C599 1.393 . S
C603 C602 1.391 . S
H604 C612 0.950 . S
H605 C617 0.950 . S
H606 C614 0.950 . S
H607 C616 0.950 . S
H608 C618 0.950 . S
H609 C620 0.950 . S
H610 C622 0.950 . S
H611 C623 0.950 . S
C612 H604 0.950 . S
C612 C613 1.386 . S
C612 C614 1.391 . S
C613 C612 1.386 . S
C613 C617 1.393 . S
C614 H606 0.950 . S
C614 C612 1.391 . S
C614 C615 1.400 . S
C615 C614 1.400 . S
C615 C616 1.398 . S
C615 C621 1.491 . S
C616 H607 0.950 . S
C616 C615 1.398 . S
C616 C617 1.391 . S
C617 H605 0.950 . S
C617 C613 1.393 . S
C617 C616 1.391 . S
C618 H608 0.950 . S
C618 C619 1.386 . S
C618 C620 1.391 . S
C619 C618 1.386 . S
C619 C623 1.393 . S
C620 H609 0.950 . S
C620 C618 1.391 . S
C620 C621 1.400 . S
C621 C615 1.491 . S
C621 C620 1.400 . S
C621 C622 1.398 . S
C622 H610 0.950 . S
C622 C621 1.398 . S
C622 C623 1.391 . S
C623 H611 0.950 . S
C623 C619 1.393 . S
C623 C622 1.391 . S
H624 C632 0.950 . S
H625 C637 0.950 . S
H626 C634 0.950 . S
H627 C636 0.950 1_554 S
H628 C638 0.950 . S
H629 C640 0.950 . S
H630 C642 0.950 . S
H631 C643 0.950 . S
C632 H624 0.950 . S
C632 C633 1.386 . S
C632 C634 1.391 . S
C633 C632 1.386 . S
C633 C637 1.393 1_556 S
C634 H626 0.950 . S
C634 C632 1.391 . S
C634 C635 1.400 . S
C635 C634 1.400 . S
C635 C636 1.398 . S
C635 C641 1.491 . S
C636 H627 0.950 1_556 S
C636 C635 1.398 . S
C636 C637 1.391 1_556 S
C637 H625 0.950 . S
C637 C633 1.393 1_554 S
C637 C636 1.391 1_554 S
C638 H628 0.950 . S
C638 C639 1.386 . S
C638 C640 1.391 . S
C639 C638 1.386 . S
C639 C643 1.393 . S
C640 H629 0.950 . S
C640 C638 1.391 . S
C640 C641 1.400 . S
C641 C635 1.491 . S
C641 C640 1.400 . S
C641 C642 1.398 . S
C642 H630 0.950 . S
C642 C641 1.398 . S
C642 C643 1.391 . S
C643 H631 0.950 . S
C643 C639 1.393 . S
C643 C642 1.391 . S
H644 C652 0.950 . S
H645 C657 0.950 . S
H646 C654 0.950 . S
H647 C656 0.950 . S
H648 C658 0.950 . S
H649 C660 0.950 . S
H650 C662 0.950 . S
H651 C663 0.950 . S
C652 H644 0.950 . S
C652 C653 1.386 . S
C652 C654 1.391 . S
C653 C652 1.386 . S
C653 C657 1.393 . S
C654 H646 0.950 . S
C654 C652 1.391 . S
C654 C655 1.400 . S
C655 C654 1.400 . S
C655 C656 1.398 . S
C655 C661 1.491 . S
C656 H647 0.950 . S
C656 C655 1.398 . S
C656 C657 1.391 . S
C657 H645 0.950 . S
C657 C653 1.393 . S
C657 C656 1.391 . S
C658 H648 0.950 . S
C658 C659 1.386 . S
C658 C660 1.391 . S
C659 C658 1.386 . S
C659 C663 1.393 . S
C660 H649 0.950 . S
C660 C658 1.391 . S
C660 C661 1.400 . S
C661 C655 1.491 . S
C661 C660 1.400 . S
C661 C662 1.398 . S
C662 H650 0.950 . S
C662 C661 1.398 . S
C662 C663 1.391 . S
C663 H651 0.950 . S
C663 C659 1.393 . S
C663 C662 1.391 . S
C273 C249 1.164 . S
C279 C18 1.166 . S
C293 C150 1.174 . S
C299 C51 1.177 . S
C313 C183 1.169 . S
C319 C84 1.170 . S
C333 C216 1.176 . S
C339 C117 1.179 . S
C353 N2 1.282 . S
C359 N13 1.284 . S
C373 N35 1.252 . S
C379 N46 1.255 . S
C393 N79 1.292 . S
C399 N68 1.290 . S
C413 N112 1.316 . S
C419 N101 1.313 . S
C433 N134 1.303 . S
C439 N145 1.305 . S
C453 N178 1.282 . S
C459 N167 1.280 . S
C473 N200 1.280 . S
C479 N211 1.282 . S
C493 N233 1.272 . S
C499 N244 1.274 . S
C513 C219 1.373 . S
C519 C21 1.386 . S
C533 C40 1.365 . S
C539 C252 1.374 . S
C553 C153 1.645 . S
C559 C73 1.635 . S
C573 C106 1.584 . S
C579 C172 1.588 . S
C593 C186 1.373 . S
C599 C54 1.379 . S
C613 C87 1.380 . S
C619 C205 1.360 . S
C633 C238 1.622 . S
C639 C120 1.650 . S
C653 C7 1.566 . S
C659 C139 1.581 . S
