# Generated by pormake.
# Topology svo, (7)-cn, num edge types: 1
# Building blocks:
#     Node 0, Type 0, BuildingBlock: HICVOG_clean_sbu_0, # of connection points: 7
#     Node 1, Type 0, BuildingBlock: HICVOG_clean_sbu_0, # of connection points: 7
#     Node 2, Type 0, BuildingBlock: HICVOG_clean_sbu_0, # of connection points: 7
#     Node 3, Type 0, BuildingBlock: HICVOG_clean_sbu_0, # of connection points: 7
#     Node 4, Type 0, BuildingBlock: HICVOG_clean_sbu_0, # of connection points: 7
#     Node 5, Type 0, BuildingBlock: HICVOG_clean_sbu_0, # of connection points: 7
#     Node 6, Type 0, BuildingBlock: HICVOG_clean_sbu_0, # of connection points: 7
#     Node 7, Type 0, BuildingBlock: HICVOG_clean_sbu_0, # of connection points: 7
#     Node 8, Type 0, BuildingBlock: HICVOG_clean_sbu_0, # of connection points: 7
#     Node 9, Type 0, BuildingBlock: HICVOG_clean_sbu_0, # of connection points: 7
#     Node 10, Type 0, BuildingBlock: HICVOG_clean_sbu_0, # of connection points: 7
#     Node 11, Type 0, BuildingBlock: HICVOG_clean_sbu_0, # of connection points: 7
#     Node 12, Type 0, BuildingBlock: HICVOG_clean_sbu_0, # of connection points: 7
#     Node 13, Type 0, BuildingBlock: HICVOG_clean_sbu_0, # of connection points: 7
#     Node 14, Type 0, BuildingBlock: HICVOG_clean_sbu_0, # of connection points: 7
#     Node 15, Type 0, BuildingBlock: HICVOG_clean_sbu_0, # of connection points: 7
#     Edge 16, Type (0, 0), BuildingBlock: OJICUG_clean_linker_0, # of connection points: 2
#     Edge 17, Type (0, 0), BuildingBlock: OJICUG_clean_linker_0, # of connection points: 2
#     Edge 18, Type (0, 0), BuildingBlock: OJICUG_clean_linker_0, # of connection points: 2
#     Edge 19, Type (0, 0), BuildingBlock: OJICUG_clean_linker_0, # of connection points: 2
#     Edge 20, Type (0, 0), BuildingBlock: OJICUG_clean_linker_0, # of connection points: 2
#     Edge 21, Type (0, 0), BuildingBlock: OJICUG_clean_linker_0, # of connection points: 2
#     Edge 22, Type (0, 0), BuildingBlock: OJICUG_clean_linker_0, # of connection points: 2
#     Edge 23, Type (0, 0), BuildingBlock: OJICUG_clean_linker_0, # of connection points: 2
#     Edge 24, Type (0, 0), BuildingBlock: OJICUG_clean_linker_0, # of connection points: 2
#     Edge 25, Type (0, 0), BuildingBlock: OJICUG_clean_linker_0, # of connection points: 2
#     Edge 26, Type (0, 0), BuildingBlock: OJICUG_clean_linker_0, # of connection points: 2
#     Edge 27, Type (0, 0), BuildingBlock: OJICUG_clean_linker_0, # of connection points: 2
#     Edge 28, Type (0, 0), BuildingBlock: OJICUG_clean_linker_0, # of connection points: 2
#     Edge 29, Type (0, 0), BuildingBlock: OJICUG_clean_linker_0, # of connection points: 2
#     Edge 30, Type (0, 0), BuildingBlock: OJICUG_clean_linker_0, # of connection points: 2
#     Edge 31, Type (0, 0), BuildingBlock: OJICUG_clean_linker_0, # of connection points: 2
#     Edge 32, Type (0, 0), BuildingBlock: OJICUG_clean_linker_0, # of connection points: 2
#     Edge 33, Type (0, 0), BuildingBlock: OJICUG_clean_linker_0, # of connection points: 2
#     Edge 34, Type (0, 0), BuildingBlock: OJICUG_clean_linker_0, # of connection points: 2
#     Edge 35, Type (0, 0), BuildingBlock: OJICUG_clean_linker_0, # of connection points: 2
#     Edge 36, Type (0, 0), BuildingBlock: OJICUG_clean_linker_0, # of connection points: 2
#     Edge 37, Type (0, 0), BuildingBlock: OJICUG_clean_linker_0, # of connection points: 2
#     Edge 38, Type (0, 0), BuildingBlock: OJICUG_clean_linker_0, # of connection points: 2
#     Edge 39, Type (0, 0), BuildingBlock: OJICUG_clean_linker_0, # of connection points: 2
#     Edge 40, Type (0, 0), BuildingBlock: OJICUG_clean_linker_0, # of connection points: 2
#     Edge 41, Type (0, 0), BuildingBlock: OJICUG_clean_linker_0, # of connection points: 2
#     Edge 42, Type (0, 0), BuildingBlock: OJICUG_clean_linker_0, # of connection points: 2
#     Edge 43, Type (0, 0), BuildingBlock: OJICUG_clean_linker_0, # of connection points: 2
#     Edge 44, Type (0, 0), BuildingBlock: OJICUG_clean_linker_0, # of connection points: 2
#     Edge 45, Type (0, 0), BuildingBlock: OJICUG_clean_linker_0, # of connection points: 2
#     Edge 46, Type (0, 0), BuildingBlock: OJICUG_clean_linker_0, # of connection points: 2
#     Edge 47, Type (0, 0), BuildingBlock: OJICUG_clean_linker_0, # of connection points: 2
#     Edge 48, Type (0, 0), BuildingBlock: OJICUG_clean_linker_0, # of connection points: 2
#     Edge 49, Type (0, 0), BuildingBlock: OJICUG_clean_linker_0, # of connection points: 2
#     Edge 50, Type (0, 0), BuildingBlock: OJICUG_clean_linker_0, # of connection points: 2
#     Edge 51, Type (0, 0), BuildingBlock: OJICUG_clean_linker_0, # of connection points: 2
#     Edge 52, Type (0, 0), BuildingBlock: OJICUG_clean_linker_0, # of connection points: 2
#     Edge 53, Type (0, 0), BuildingBlock: OJICUG_clean_linker_0, # of connection points: 2
#     Edge 54, Type (0, 0), BuildingBlock: OJICUG_clean_linker_0, # of connection points: 2
#     Edge 55, Type (0, 0), BuildingBlock: OJICUG_clean_linker_0, # of connection points: 2
#     Edge 56, Type (0, 0), BuildingBlock: OJICUG_clean_linker_0, # of connection points: 2
#     Edge 57, Type (0, 0), BuildingBlock: OJICUG_clean_linker_0, # of connection points: 2
#     Edge 58, Type (0, 0), BuildingBlock: OJICUG_clean_linker_0, # of connection points: 2
#     Edge 59, Type (0, 0), BuildingBlock: OJICUG_clean_linker_0, # of connection points: 2
#     Edge 60, Type (0, 0), BuildingBlock: OJICUG_clean_linker_0, # of connection points: 2
#     Edge 61, Type (0, 0), BuildingBlock: OJICUG_clean_linker_0, # of connection points: 2
#     Edge 62, Type (0, 0), BuildingBlock: OJICUG_clean_linker_0, # of connection points: 2
#     Edge 63, Type (0, 0), BuildingBlock: OJICUG_clean_linker_0, # of connection points: 2
#     Edge 64, Type (0, 0), BuildingBlock: OJICUG_clean_linker_0, # of connection points: 2
#     Edge 65, Type (0, 0), BuildingBlock: OJICUG_clean_linker_0, # of connection points: 2
#     Edge 66, Type (0, 0), BuildingBlock: OJICUG_clean_linker_0, # of connection points: 2
#     Edge 67, Type (0, 0), BuildingBlock: OJICUG_clean_linker_0, # of connection points: 2
#     Edge 68, Type (0, 0), BuildingBlock: OJICUG_clean_linker_0, # of connection points: 2
#     Edge 69, Type (0, 0), BuildingBlock: OJICUG_clean_linker_0, # of connection points: 2
#     Edge 70, Type (0, 0), BuildingBlock: OJICUG_clean_linker_0, # of connection points: 2
#     Edge 71, Type (0, 0), BuildingBlock: OJICUG_clean_linker_0, # of connection points: 2
# Relax obj value: 0.213
# Max RMSD: 0.235
# Mean RMSD: 0.235
data_MOF--net-svo--node1-HICVOG_clean_sbu_0--edge1-OJICUG_clean_linker_0
_symmetry_space_group_name_H-M    P1
_symmetry_Int_Tables_number       1
_symmetry_cell_setting            triclinic
loop_
_symmetry_equiv_pos_as_xyz
'x, y, z'
_cell_length_a     22.336073
_cell_length_b     22.330909
_cell_length_c     64.046944
_cell_angle_alpha  89.957644
_cell_angle_beta   89.975289
_cell_angle_gamma 90.000631
loop_
_atom_site_label
_atom_site_type_symbol
_atom_site_fract_x
_atom_site_fract_y
_atom_site_fract_z
_atom_type_partial_charge
Zn0 Zn 0.16831 0.28865 0.16194 0.0
C1 C 0.06389 0.40171 0.13004 0.0
N2 N 0.02038 0.36385 0.13603 0.0
C3 C 0.0514 0.3194 0.14506 0.0
N4 N 0.11062 0.32944 0.14479 0.0
N5 N 0.11919 0.38079 0.1349 0.0
C6 C 0.2334 0.50434 0.12942 0.0
O7 O 0.23897 0.47133 0.14631 0.0
O8 O 0.15105 0.20119 0.16615 0.0
Zn9 Zn 0.18704 0.39286 0.11582 0.0
N10 N 0.17142 0.32577 0.18907 0.0
C11 C 0.15093 0.40676 0.21201 0.0
C12 C 0.14773 0.38103 0.19222 0.0
C13 C 0.19845 0.29515 0.20481 0.0
N14 N 0.17813 0.37634 0.22774 0.0
C15 C 0.20254 0.32105 0.22479 0.0
O16 O 0.26481 0.34763 0.12275 0.0
C17 C 0.28439 0.30964 0.13597 0.0
O18 O 0.25096 0.28858 0.15022 0.0
H19 H 0.12652 0.40483 0.17951 0.0
H20 H 0.21565 0.25085 0.20163 0.0
C21 C 0.16078 0.38408 0.07044 0.0
C22 C 0.13792 0.35208 0.05309 0.0
C23 C 0.111 0.27216 0.07577 0.0
C24 C 0.1349 0.30311 0.09257 0.0
N25 N 0.15886 0.35841 0.08975 0.0
N26 N 0.11341 0.29709 0.05654 0.0
H27 H 0.17968 0.42837 0.06884 0.0
C28 C 0.1519 0.16822 0.15004 0.0
O29 O 0.14992 0.19408 0.13165 0.0
O30 O 0.20982 0.48108 0.11324 0.0
H31 H 0.13423 0.28331 0.10789 0.0
H32 H 0.13213 0.45065 0.21485 0.0
H33 H 0.09138 0.22829 0.07792 0.0
Zn34 Zn 0.74486 0.17284 0.16291 0.0
C35 C 0.64238 0.05695 0.13134 0.0
N36 N 0.68503 0.01867 0.13768 0.0
C37 C 0.72556 0.05437 0.1465 0.0
N38 N 0.70905 0.11207 0.14582 0.0
N39 N 0.65739 0.11497 0.13561 0.0
C40 C 0.52662 0.21514 0.13209 0.0
O41 O 0.55378 0.20115 0.14962 0.0
O42 O 0.83202 0.15797 0.16796 0.0
Zn43 Zn 0.6428 0.18302 0.11628 0.0
N44 N 0.70586 0.17685 0.18969 0.0
C45 C 0.62431 0.15654 0.21242 0.0
C46 C 0.65088 0.15247 0.19278 0.0
C47 C 0.73545 0.20525 0.20536 0.0
N48 N 0.65374 0.18506 0.2281 0.0
C49 C 0.7088 0.21007 0.2252 0.0
O50 O 0.68906 0.26196 0.12187 0.0
C51 C 0.72501 0.28454 0.1352 0.0
O52 O 0.74456 0.254 0.15042 0.0
H53 H 0.62803 0.13001 0.18012 0.0
H54 H 0.77964 0.22283 0.20225 0.0
C55 C 0.64812 0.15541 0.07069 0.0
C56 C 0.67923 0.13197 0.0532 0.0
C57 C 0.76008 0.10529 0.07549 0.0
C58 C 0.73016 0.12992 0.09239 0.0
N59 N 0.67471 0.15387 0.08986 0.0
N60 N 0.73422 0.10724 0.05641 0.0
H61 H 0.6039 0.17459 0.06927 0.0
C62 C 0.86501 0.16027 0.15186 0.0
O63 O 0.8392 0.16084 0.13344 0.0
O64 O 0.55509 0.20925 0.11499 0.0
H65 H 0.75104 0.12997 0.10755 0.0
H66 H 0.58061 0.13724 0.21522 0.0
H67 H 0.80399 0.0856 0.07742 0.0
Zn68 Zn 0.85404 0.64208 0.1136 0.0
C69 C 0.98189 0.7283 0.14223 0.0
N70 N 1.01766 0.68753 0.13353 0.0
C71 C 0.97969 0.64353 0.12815 0.0
N72 N 0.92186 0.65797 0.13285 0.0
N73 N 0.92448 0.71061 0.14245 0.0
C74 C 0.87955 0.86902 0.1502 0.0
O75 O 0.87871 0.84666 0.13124 0.0
O76 O 0.82907 0.55366 0.11216 0.0
Zn77 Zn 0.86365 0.74623 0.15971 0.0
N78 N 0.8817 0.67557 0.08722 0.0
C79 C 0.92497 0.76386 0.0729 0.0
C80 C 0.90205 0.73243 0.08978 0.0
C81 C 0.88202 0.64896 0.06805 0.0
N82 N 0.9248 0.73797 0.05381 0.0
C83 C 0.90358 0.68154 0.05057 0.0
O84 O 0.78203 0.74566 0.14732 0.0
C85 C 0.75184 0.72394 0.13237 0.0
O86 O 0.77486 0.68694 0.11949 0.0
H87 H 0.90036 0.75334 0.10493 0.0
H88 H 0.86563 0.60364 0.06663 0.0
C89 C 0.83131 0.73571 0.20206 0.0
C90 C 0.82603 0.70869 0.22182 0.0
C91 C 0.87867 0.62387 0.20885 0.0
C92 C 0.88317 0.65083 0.18926 0.0
N93 N 0.85944 0.70617 0.18632 0.0
N94 N 0.8504 0.65328 0.22459 0.0
H95 H 0.81424 0.78018 0.19906 0.0
C96 C 0.81803 0.5275 0.12941 0.0
O97 O 0.8264 0.55737 0.14683 0.0
O98 O 0.87936 0.83314 0.16556 0.0
H99 H 0.90541 0.62799 0.17656 0.0
H100 H 0.94183 0.80892 0.07484 0.0
H101 H 0.89744 0.57988 0.21153 0.0
Zn102 Zn 0.39334 0.85096 0.11359 0.0
C103 C 0.31708 0.98536 0.14273 0.0
N104 N 0.36211 1.01695 0.13427 0.0
C105 C 0.40054 0.97383 0.12837 0.0
N106 N 0.37939 0.91828 0.13272 0.0
N107 N 0.32732 0.92611 0.14221 0.0
C108 C 0.16485 0.88698 0.14822 0.0
O109 O 0.18866 0.88895 0.12949 0.0
O110 O 0.48223 0.82912 0.11099 0.0
Zn111 Zn 0.28701 0.86741 0.15923 0.0
N112 N 0.35768 0.87809 0.08758 0.0
C113 C 0.26901 0.92162 0.07372 0.0
C114 C 0.30123 0.89912 0.09048 0.0
C115 C 0.38323 0.87759 0.06826 0.0
N116 N 0.29385 0.92058 0.05446 0.0
C117 C 0.34994 0.89884 0.05094 0.0
O118 O 0.28829 0.7843 0.14753 0.0
C119 C 0.3113 0.75187 0.13335 0.0
O120 O 0.34959 0.77271 0.1205 0.0
H121 H 0.2814 0.89834 0.1058 0.0
H122 H 0.42836 0.86086 0.06661 0.0
C123 C 0.29398 0.83728 0.20209 0.0
C124 C 0.32007 0.83295 0.22204 0.0
C125 C 0.40585 0.88425 0.20916 0.0
C126 C 0.37993 0.88768 0.18941 0.0
N127 N 0.32454 0.86425 0.18631 0.0
N128 N 0.37549 0.85711 0.22493 0.0
H129 H 0.24959 0.82027 0.19896 0.0
C130 C 0.50445 0.80265 0.12683 0.0
O131 O 0.47024 0.7942 0.14327 0.0
O132 O 0.19958 0.88478 0.16386 0.0
H133 H 0.40371 0.90882 0.17668 0.0
H134 H 0.22422 0.93894 0.07591 0.0
H135 H 0.44985 0.90284 0.21195 0.0
Zn136 Zn 0.16857 0.74794 0.35505 0.0
C137 C 0.06387 0.63493 0.38687 0.0
N138 N 0.0204 0.67269 0.38078 0.0
C139 C 0.0515 0.71713 0.37177 0.0
N140 N 0.11074 0.70718 0.37216 0.0
N141 N 0.11922 0.65591 0.3821 0.0
C142 C 0.23337 0.53242 0.38766 0.0
O143 O 0.23903 0.56544 0.37078 0.0
O144 O 0.15135 0.83538 0.35081 0.0
Zn145 Zn 0.18693 0.64389 0.40123 0.0
N146 N 0.17192 0.71076 0.32793 0.0
C147 C 0.1519 0.62959 0.30502 0.0
C148 C 0.1485 0.65537 0.3248 0.0
C149 C 0.19884 0.74146 0.31218 0.0
N150 N 0.17899 0.66008 0.28928 0.0
C151 C 0.20312 0.71551 0.29221 0.0
O152 O 0.26479 0.68911 0.39434 0.0
C153 C 0.28445 0.72702 0.38111 0.0
O154 O 0.25111 0.74799 0.36683 0.0
H155 H 0.12739 0.63151 0.33752 0.0
H156 H 0.21582 0.78586 0.31534 0.0
C157 C 0.16052 0.65278 0.44661 0.0
C158 C 0.13753 0.68476 0.46395 0.0
C159 C 0.11033 0.76448 0.44124 0.0
C160 C 0.13434 0.73355 0.42444 0.0
N161 N 0.15852 0.67836 0.42729 0.0
N162 N 0.11281 0.73965 0.46048 0.0
H163 H 0.1796 0.60857 0.44823 0.0
C164 C 0.15228 0.86835 0.36693 0.0
O165 O 0.15043 0.84248 0.38532 0.0
O166 O 0.20971 0.55566 0.40383 0.0
H167 H 0.13362 0.75329 0.40912 0.0
H168 H 0.13332 0.5856 0.3022 0.0
H169 H 0.09054 0.80827 0.43907 0.0
Zn170 Zn 0.39332 0.18573 0.40339 0.0
C171 C 0.31721 0.05141 0.37415 0.0
N172 N 0.36226 0.01981 0.38259 0.0
C173 C 0.40062 0.06293 0.38853 0.0
N174 N 0.37942 0.11848 0.38422 0.0
N175 N 0.32739 0.11066 0.37472 0.0
C176 C 0.16494 0.14982 0.36884 0.0
O177 O 0.18883 0.14786 0.38755 0.0
O178 O 0.48221 0.20757 0.40596 0.0
Zn179 Zn 0.28703 0.16942 0.35776 0.0
N180 N 0.35771 0.15846 0.42941 0.0
C181 C 0.26918 0.11461 0.44328 0.0
C182 C 0.30135 0.1372 0.42652 0.0
C183 C 0.3832 0.15912 0.44874 0.0
N184 N 0.29396 0.11579 0.46255 0.0
C185 C 0.34995 0.13777 0.46606 0.0
O186 O 0.28832 0.25249 0.3695 0.0
C187 C 0.31129 0.28488 0.38369 0.0
O188 O 0.34955 0.26401 0.39653 0.0
H189 H 0.28155 0.13786 0.4112 0.0
H190 H 0.42826 0.17604 0.45037 0.0
C191 C 0.29382 0.19955 0.31489 0.0
C192 C 0.31988 0.20398 0.29493 0.0
C193 C 0.40588 0.15303 0.30777 0.0
C194 C 0.37998 0.14951 0.32754 0.0
N195 N 0.32449 0.17271 0.33065 0.0
N196 N 0.3754 0.18006 0.29202 0.0
H197 H 0.24936 0.21639 0.31803 0.0
C198 C 0.50447 0.23395 0.3901 0.0
O199 O 0.4703 0.24233 0.37366 0.0
O200 O 0.19959 0.15204 0.35317 0.0
H201 H 0.40385 0.12847 0.34026 0.0
H202 H 0.22446 0.0971 0.4411 0.0
H203 H 0.44995 0.13463 0.30497 0.0
Zn204 Zn 0.86385 0.29051 0.35721 0.0
C205 C 0.97949 0.39321 0.38897 0.0
N206 N 1.01749 0.34906 0.38375 0.0
C207 C 0.98187 0.30837 0.37496 0.0
N208 N 0.92454 0.3263 0.37449 0.0
N209 N 0.92175 0.37898 0.38407 0.0
C210 C 0.818 0.50927 0.38753 0.0
O211 O 0.8266 0.47946 0.37009 0.0
O212 O 0.87968 0.20359 0.3514 0.0
Zn213 Zn 0.85386 0.39465 0.40331 0.0
N214 N 0.85971 0.3305 0.3306 0.0
C215 C 0.87907 0.41271 0.30803 0.0
C216 C 0.88351 0.3858 0.32763 0.0
C217 C 0.83154 0.30095 0.31487 0.0
N218 N 0.85076 0.3833 0.29231 0.0
C219 C 0.82632 0.32793 0.2951 0.0
O220 O 0.77478 0.34972 0.39739 0.0
C221 C 0.75186 0.31269 0.38452 0.0
O222 O 0.78213 0.29097 0.36958 0.0
H223 H 0.90577 0.40864 0.34032 0.0
H224 H 0.81441 0.25651 0.31789 0.0
C225 C 0.8819 0.38782 0.44883 0.0
C226 C 0.90349 0.35528 0.4663 0.0
C227 C 0.92475 0.27288 0.444 0.0
C228 C 0.90179 0.30427 0.42712 0.0
N229 N 0.88149 0.36116 0.42968 0.0
N230 N 0.92467 0.29883 0.46307 0.0
H231 H 0.86555 0.43316 0.45025 0.0
C232 C 0.87979 0.16774 0.36676 0.0
O233 O 0.87886 0.19013 0.38572 0.0
O234 O 0.82881 0.48304 0.40478 0.0
H235 H 0.90003 0.28333 0.41197 0.0
H236 H 0.8979 0.45667 0.30533 0.0
H237 H 0.94158 0.2278 0.44206 0.0
Zn238 Zn 0.745 0.86395 0.35403 0.0
C239 C 0.64248 0.97982 0.38561 0.0
N240 N 0.68518 1.01811 0.3793 0.0
C241 C 0.72575 0.98242 0.37048 0.0
N242 N 0.70921 0.92472 0.37114 0.0
N243 N 0.65749 0.92181 0.38133 0.0
C244 C 0.52671 0.8215 0.38491 0.0
O245 O 0.55393 0.83527 0.36736 0.0
O246 O 0.83218 0.87876 0.34893 0.0
Zn247 Zn 0.64286 0.85377 0.40066 0.0
N248 N 0.70593 0.85993 0.32728 0.0
C249 C 0.62433 0.88027 0.30459 0.0
C250 C 0.65096 0.88435 0.32422 0.0
C251 C 0.73545 0.83149 0.3116 0.0
N252 N 0.6537 0.8517 0.28891 0.0
C253 C 0.70874 0.82665 0.29177 0.0
O254 O 0.68907 0.77482 0.39506 0.0
C255 C 0.72508 0.75225 0.38174 0.0
O256 O 0.74469 0.78281 0.36652 0.0
H257 H 0.62817 0.90684 0.33689 0.0
H258 H 0.77964 0.81388 0.31468 0.0
C259 C 0.64815 0.88149 0.44623 0.0
C260 C 0.67926 0.90494 0.4637 0.0
C261 C 0.7602 0.93142 0.44141 0.0
C262 C 0.73029 0.90677 0.42452 0.0
N263 N 0.67479 0.88293 0.42706 0.0
N264 N 0.73429 0.92957 0.46049 0.0
H265 H 0.60389 0.8624 0.44765 0.0
C266 C 0.86524 0.87645 0.365 0.0
O267 O 0.83952 0.87597 0.38344 0.0
O268 O 0.55513 0.82759 0.402 0.0
H269 H 0.75122 0.90662 0.40936 0.0
H270 H 0.58064 0.89959 0.30182 0.0
H271 H 0.80415 0.95104 0.43948 0.0
Zn272 Zn 0.89369 0.68247 0.90058 0.0
C273 C 0.81171 0.55454 0.86914 0.0
N274 N 0.85262 0.51848 0.87757 0.0
C275 C 0.89454 0.5566 0.88458 0.0
N276 N 0.87872 0.61485 0.88107 0.0
N277 N 0.82724 0.61236 0.87073 0.0
C278 C 0.67141 0.66121 0.86488 0.0
O279 O 0.69718 0.66164 0.88331 0.0
O280 O 0.98146 0.70869 0.90185 0.0
Zn281 Zn 0.79155 0.67375 0.8539 0.0
N282 N 0.86198 0.65273 0.92698 0.0
C283 C 0.77714 0.60306 0.94131 0.0
C284 C 0.80689 0.628 0.92441 0.0
C285 C 0.88834 0.65476 0.94618 0.0
N286 N 0.80277 0.6055 0.96042 0.0
C287 C 0.85737 0.631 0.96367 0.0
O288 O 0.79208 0.75444 0.86664 0.0
C289 C 0.81164 0.78464 0.88192 0.0
O290 O 0.84753 0.76174 0.89522 0.0
H291 H 0.78611 0.62772 0.90923 0.0
H292 H 0.93226 0.67459 0.94762 0.0
C293 C 0.80064 0.70661 0.81145 0.0
C294 C 0.82736 0.712 0.79164 0.0
C295 C 0.91257 0.65967 0.80446 0.0
C296 C 0.88592 0.65503 0.82408 0.0
N297 N 0.83056 0.67854 0.82713 0.0
N298 N 0.88281 0.68785 0.78878 0.0
H299 H 0.75617 0.72351 0.81453 0.0
C300 C 1.00979 0.71532 0.88476 0.0
O301 O 0.98249 0.70205 0.86719 0.0
O302 O 0.70442 0.65906 0.8488 0.0
H303 H 0.90901 0.63282 0.83675 0.0
H304 H 0.73352 0.58276 0.93935 0.0
H305 H 0.95658 0.64107 0.8017 0.0
Zn306 Zn 0.36795 0.78914 0.85497 0.0
C307 C 0.47252 0.90228 0.88673 0.0
N308 N 0.51601 0.8646 0.88062 0.0
C309 C 0.48495 0.82021 0.8716 0.0
N310 N 0.42571 0.83012 0.872 0.0
N311 N 0.41717 0.88131 0.88197 0.0
C312 C 0.3032 1.00456 0.88751 0.0
O313 O 0.29782 0.97165 0.87061 0.0
O314 O 0.38528 0.70164 0.85095 0.0
Zn315 Zn 0.3495 0.89308 0.90115 0.0
N316 N 0.3647 0.82595 0.82777 0.0
C317 C 0.3846 0.90694 0.80472 0.0
C318 C 0.38796 0.88137 0.82455 0.0
C319 C 0.33796 0.795 0.81206 0.0
N320 N 0.35767 0.8762 0.78902 0.0
C321 C 0.3337 0.82073 0.79204 0.0
O322 O 0.27166 0.84775 0.8943 0.0
C323 C 0.25201 0.81 0.88103 0.0
O324 O 0.28537 0.78917 0.86673 0.0
H325 H 0.40892 0.90543 0.83723 0.0
H326 H 0.3211 0.75059 0.81529 0.0
C327 C 0.37561 0.88421 0.94656 0.0
C328 C 0.39882 0.85241 0.96392 0.0
C329 C 0.42713 0.77312 0.94121 0.0
C330 C 0.40294 0.80387 0.9244 0.0
N331 N 0.37809 0.85876 0.92723 0.0
N332 N 0.42419 0.79783 0.96046 0.0
H333 H 0.35602 0.92819 0.94816 0.0
C334 C 0.38444 0.66909 0.86718 0.0
O335 O 0.38616 0.69546 0.88548 0.0
O336 O 0.32661 0.98122 0.90372 0.0
H337 H 0.40409 0.78424 0.90908 0.0
H338 H 0.40305 0.95096 0.80183 0.0
H339 H 0.44744 0.72957 0.93906 0.0
Zn340 Zn 0.25004 0.36813 0.85798 0.0
C341 C 0.13629 0.47379 0.88904 0.0
N342 N 0.17501 0.51704 0.88347 0.0
C343 C 0.22009 0.48568 0.87495 0.0
N344 N 0.20955 0.42648 0.87508 0.0
N345 N 0.15731 0.41838 0.88442 0.0
C346 C 0.03222 0.30278 0.89016 0.0
O347 O 0.06644 0.29448 0.87372 0.0
O348 O 0.33754 0.3855 0.85342 0.0
Zn349 Zn 0.14334 0.35085 0.90346 0.0
N350 N 0.21264 0.36546 0.83087 0.0
C351 C 0.13165 0.38636 0.80796 0.0
C352 C 0.1575 0.38945 0.82773 0.0
C353 C 0.24301 0.33826 0.81511 0.0
N354 N 0.16181 0.35897 0.79222 0.0
C355 C 0.21698 0.33426 0.79514 0.0
O356 O 0.18707 0.27276 0.89647 0.0
C357 C 0.22549 0.25213 0.88363 0.0
O358 O 0.24869 0.28477 0.86954 0.0
H359 H 0.13387 0.41079 0.84045 0.0
H360 H 0.28722 0.3208 0.81826 0.0
C361 C 0.15327 0.37747 0.94879 0.0
C362 C 0.1866 0.39852 0.96611 0.0
C363 C 0.26796 0.42038 0.9434 0.0
C364 C 0.23569 0.39805 0.92664 0.0
N365 N 0.17902 0.37759 0.92949 0.0
N366 N 0.24292 0.41972 0.96263 0.0
H367 H 0.10796 0.3612 0.95041 0.0
C368 C 0.37227 0.38801 0.86906 0.0
O369 O 0.34846 0.39046 0.88778 0.0
O370 O 0.05445 0.32902 0.90604 0.0
H371 H 0.25564 0.39697 0.91134 0.0
H372 H 0.08785 0.40539 0.80515 0.0
H373 H 0.31293 0.43727 0.94124 0.0
Zn374 Zn 0.67288 0.24629 0.85726 0.0
C375 C 0.55721 0.14386 0.88918 0.0
N376 N 0.51929 0.18819 0.88407 0.0
C377 C 0.55494 0.22885 0.87523 0.0
N378 N 0.61219 0.21071 0.87463 0.0
N379 N 0.61493 0.15795 0.88418 0.0
C380 C 0.71922 0.02781 0.88776 0.0
O381 O 0.71135 0.0579 0.87033 0.0
O382 O 0.65706 0.33313 0.85121 0.0
Zn383 Zn 0.68281 0.14225 0.9034 0.0
N384 N 0.67711 0.20592 0.83074 0.0
C385 C 0.65783 0.12345 0.80833 0.0
C386 C 0.65333 0.15058 0.82787 0.0
C387 C 0.70531 0.23529 0.81496 0.0
N388 N 0.68615 0.1527 0.79254 0.0
C389 C 0.71058 0.2081 0.79523 0.0
O390 O 0.7619 0.18708 0.89742 0.0
C391 C 0.78484 0.2242 0.88455 0.0
O392 O 0.75458 0.24601 0.86962 0.0
H393 H 0.63103 0.12787 0.8406 0.0
H394 H 0.72242 0.27977 0.81788 0.0
C395 C 0.65446 0.14931 0.94888 0.0
C396 C 0.63306 0.18203 0.96633 0.0
C397 C 0.61275 0.26466 0.94398 0.0
C398 C 0.63556 0.23309 0.92713 0.0
N399 N 0.65529 0.176 0.92972 0.0
N400 N 0.61244 0.23868 0.96306 0.0
H401 H 0.67036 0.10381 0.95032 0.0
C402 C 0.65711 0.36947 0.86641 0.0
O403 O 0.65807 0.34769 0.88547 0.0
O404 O 0.70773 0.05382 0.90499 0.0
H405 H 0.63766 0.25403 0.91197 0.0
H406 H 0.63901 0.07945 0.80571 0.0
H407 H 0.59637 0.3099 0.94202 0.0
Zn408 Zn 0.89337 0.35396 0.61626 0.0
C409 C 0.81072 0.48222 0.64703 0.0
N410 N 0.85151 0.51815 0.63843 0.0
C411 C 0.89383 0.47996 0.63177 0.0
N412 N 0.87838 0.42181 0.63564 0.0
N413 N 0.82673 0.42444 0.64589 0.0
C414 C 0.67076 0.37577 0.65223 0.0
O415 O 0.69606 0.37543 0.63371 0.0
O416 O 0.98119 0.32789 0.61495 0.0
Zn417 Zn 0.79124 0.36334 0.66293 0.0
N418 N 0.86144 0.38325 0.58985 0.0
C419 C 0.77599 0.43176 0.57551 0.0
C420 C 0.80597 0.40715 0.59241 0.0
C421 C 0.88799 0.38174 0.57067 0.0
N422 N 0.8018 0.42983 0.55642 0.0
C423 C 0.85681 0.40515 0.55319 0.0
O424 O 0.79155 0.28246 0.6503 0.0
C425 C 0.8112 0.25209 0.63507 0.0
O426 O 0.84724 0.27482 0.62178 0.0
H427 H 0.78508 0.40703 0.60758 0.0
H428 H 0.93221 0.36259 0.56924 0.0
C429 C 0.80111 0.33055 0.70534 0.0
C430 C 0.82798 0.32552 0.72513 0.0
C431 C 0.91252 0.3788 0.71222 0.0
C432 C 0.88571 0.38309 0.69262 0.0
N433 N 0.83061 0.35893 0.68963 0.0
N434 N 0.88316 0.35031 0.72794 0.0
H435 H 0.75681 0.31314 0.70231 0.0
C436 C 1.00948 0.32136 0.63205 0.0
O437 O 0.9821 0.33467 0.64961 0.0
O438 O 0.70416 0.37801 0.66821 0.0
H439 H 0.90848 0.40556 0.67993 0.0
H440 H 0.73207 0.4514 0.57745 0.0
H441 H 0.95632 0.39792 0.71494 0.0
Zn442 Zn 0.67183 0.79029 0.65956 0.0
C443 C 0.55696 0.89282 0.62733 0.0
N444 N 0.51898 0.84828 0.63217 0.0
C445 C 0.5544 0.80762 0.64112 0.0
N446 N 0.61155 0.82597 0.64205 0.0
N447 N 0.6145 0.87884 0.63259 0.0
C448 C 0.71842 1.00908 0.6292 0.0
O449 O 0.70985 0.97919 0.64663 0.0
O450 O 0.656 0.70336 0.66547 0.0
Zn451 Zn 0.68269 0.8945 0.6135 0.0
N452 N 0.67533 0.83048 0.68613 0.0
C453 C 0.65467 0.9124 0.70864 0.0
C454 C 0.65073 0.88543 0.68906 0.0
C455 C 0.70382 0.80133 0.70189 0.0
N456 N 0.6833 0.88339 0.7244 0.0
C457 C 0.70856 0.82838 0.72165 0.0
O458 O 0.76161 0.8497 0.61965 0.0
C459 C 0.78435 0.81257 0.63254 0.0
O460 O 0.75386 0.79068 0.64742 0.0
H461 H 0.62819 0.90795 0.67634 0.0
H462 H 0.72158 0.75714 0.69891 0.0
C463 C 0.65456 0.88746 0.56801 0.0
C464 C 0.63345 0.85462 0.55056 0.0
C465 C 0.61401 0.77166 0.57285 0.0
C466 C 0.63652 0.80337 0.58971 0.0
N467 N 0.65567 0.86066 0.58715 0.0
N468 N 0.61341 0.79774 0.55379 0.0
H469 H 0.66997 0.93313 0.56659 0.0
C470 C 0.65607 0.66724 0.6502 0.0
O471 O 0.65702 0.6893 0.63118 0.0
O472 O 0.70761 0.98291 0.61195 0.0
H473 H 0.6388 0.7824 0.60486 0.0
H474 H 0.63519 0.95608 0.71131 0.0
H475 H 0.59808 0.72624 0.5748 0.0
Zn476 Zn 0.24953 0.6687 0.65914 0.0
C477 C 0.13573 0.56293 0.62815 0.0
N478 N 0.17437 0.51969 0.63378 0.0
C479 C 0.2194 0.55107 0.6423 0.0
N480 N 0.2089 0.61029 0.64212 0.0
N481 N 0.15673 0.61837 0.63274 0.0
C482 C 0.03169 0.73378 0.62704 0.0
O483 O 0.06582 0.74185 0.64351 0.0
O484 O 0.33708 0.65134 0.66355 0.0
Zn485 Zn 0.14284 0.68584 0.61365 0.0
N486 N 0.21241 0.67139 0.68631 0.0
C487 C 0.13159 0.65054 0.70932 0.0
C488 C 0.15727 0.64746 0.68951 0.0
C489 C 0.24296 0.69852 0.70204 0.0
N490 N 0.16193 0.67786 0.72503 0.0
C491 C 0.21711 0.7025 0.72204 0.0
O492 O 0.18664 0.76395 0.6206 0.0
C493 C 0.22498 0.78463 0.63344 0.0
O494 O 0.24808 0.75203 0.64756 0.0
H495 H 0.1335 0.62619 0.67683 0.0
H496 H 0.28717 0.71593 0.69883 0.0
C497 C 0.15272 0.65937 0.56829 0.0
C498 C 0.18597 0.63814 0.55096 0.0
C499 C 0.26706 0.61556 0.57368 0.0
C500 C 0.23487 0.63802 0.59045 0.0
N501 N 0.17837 0.65892 0.5876 0.0
N502 N 0.24212 0.61651 0.55444 0.0
H503 H 0.10755 0.67599 0.56667 0.0
C504 C 0.3715 0.64874 0.64782 0.0
O505 O 0.34732 0.64625 0.62916 0.0
O506 O 0.05399 0.70774 0.61113 0.0
H507 H 0.25475 0.63884 0.60576 0.0
H508 H 0.0878 0.63156 0.71219 0.0
H509 H 0.31189 0.59832 0.57585 0.0
Zn510 Zn 0.34942 0.14363 0.61587 0.0
C511 C 0.48463 0.21615 0.64589 0.0
N512 N 0.51583 0.17167 0.63696 0.0
C513 C 0.4724 0.13431 0.63056 0.0
N514 N 0.41699 0.15556 0.63508 0.0
N515 N 0.42534 0.20663 0.64513 0.0
C516 C 0.38345 0.36743 0.64991 0.0
O517 O 0.38476 0.34098 0.63162 0.0
O518 O 0.32652 0.05545 0.61333 0.0
Zn519 Zn 0.36733 0.24747 0.66211 0.0
N520 N 0.3782 0.17786 0.58978 0.0
C521 C 0.42762 0.26331 0.57581 0.0
C522 C 0.40332 0.23263 0.59262 0.0
C523 C 0.37556 0.15248 0.57045 0.0
N524 N 0.42452 0.23867 0.55656 0.0
C525 C 0.39889 0.18422 0.55309 0.0
O526 O 0.28489 0.24742 0.65026 0.0
C527 C 0.25169 0.22667 0.63591 0.0
O528 O 0.27149 0.18897 0.62264 0.0
H529 H 0.40459 0.25223 0.60795 0.0
H530 H 0.35574 0.1086 0.56885 0.0
C531 C 0.33727 0.24159 0.70503 0.0
C532 C 0.3329 0.21579 0.72503 0.0
C533 C 0.38339 0.1294 0.71229 0.0
C534 C 0.38686 0.15504 0.69248 0.0
N535 N 0.36385 0.21059 0.68929 0.0
N536 N 0.35663 0.16019 0.72801 0.0
H537 H 0.3206 0.28609 0.70183 0.0
C538 C 0.30293 0.03216 0.62953 0.0
O539 O 0.29742 0.06511 0.64641 0.0
O540 O 0.38459 0.33495 0.66615 0.0
H541 H 0.4077 0.13094 0.67977 0.0
H542 H 0.44814 0.30675 0.57796 0.0
H543 H 0.40165 0.08528 0.71515 0.0
C544 C 0.18515 0.4162 0.02493 0.0
C545 C 0.14267 0.37326 0.03107 0.0
H546 H 0.23074 0.45889 0.99974 0.0
C547 C 0.10865 0.34469 0.01544 0.0
H548 H 0.21276 0.43919 0.03622 0.0
C549 C 0.11998 0.35504 0.99429 0.0
C550 C 0.16531 0.39496 0.98814 0.0
H551 H 0.07488 0.31185 0.01948 0.0
H552 H 0.09531 0.32892 0.983 0.0
C553 C 0.19598 0.4271 1.00378 0.0
C554 C 0.68548 0.10236 0.01553 0.0
C555 C 0.65747 0.13665 0.03124 0.0
H556 H 0.70102 0.08918 0.98305 0.0
C557 C 0.6149 0.17956 0.02517 0.0
H558 H 0.71797 0.0682 0.0195 0.0
C559 C 0.60409 0.19074 1.00402 0.0
C560 C 0.63595 0.15999 0.98831 0.0
H561 H 0.59228 0.20731 0.03652 0.0
H562 H 0.57272 0.22593 1.00005 0.0
C563 C 0.67521 0.11404 0.99439 0.0
C564 C 0.92143 0.679 0.9917 0.0
C565 C 0.87886 0.63606 0.98566 0.0
H566 H 0.96369 0.7254 0.01676 0.0
C567 C 0.85075 0.60194 1.00142 0.0
H568 H 0.94416 0.70663 0.98033 0.0
C569 C 0.86101 0.61371 0.02255 0.0
C570 C 0.90038 0.6596 0.02859 0.0
H571 H 0.81825 0.56777 0.99749 0.0
H572 H 0.8352 0.58891 0.03391 0.0
C573 C 0.93224 0.69026 0.01284 0.0
C574 C 0.42781 0.84491 1.0016 0.0
C575 C 0.39372 0.87337 0.98595 0.0
H576 H 0.44128 0.82925 0.03404 0.0
C577 C 0.35103 0.9161 0.99207 0.0
H578 H 0.46174 0.81222 0.99759 0.0
C579 C 0.34017 0.92698 0.01322 0.0
C580 C 0.37101 0.89504 0.02888 0.0
H581 H 0.32335 0.939 0.98077 0.0
H582 H 0.30532 0.95867 0.01723 0.0
C583 C 0.41645 0.85524 0.02275 0.0
C584 C 0.10839 0.6924 0.50163 0.0
C585 C 0.1423 0.66369 0.48599 0.0
H586 H 0.09505 0.70821 0.53407 0.0
C587 C 0.18464 0.62061 0.49213 0.0
H588 H 0.07473 0.72536 0.4976 0.0
C589 C 0.19539 0.60968 0.51328 0.0
C590 C 0.1648 0.6419 0.52892 0.0
H591 H 0.21217 0.5975 0.48084 0.0
H592 H 0.23001 0.57775 0.51732 0.0
C593 C 0.11965 0.68201 0.52278 0.0
C594 C 0.35095 0.12064 0.52494 0.0
C595 C 0.39368 0.16334 0.53105 0.0
H596 H 0.30523 0.07807 0.4998 0.0
C597 C 0.42778 0.19179 0.51538 0.0
H598 H 0.32327 0.09774 0.53625 0.0
C599 C 0.4164 0.18146 0.49424 0.0
C600 C 0.37096 0.14167 0.48812 0.0
H601 H 0.46174 0.22444 0.51938 0.0
H602 H 0.44126 0.20741 0.48294 0.0
C603 C 0.34009 0.10976 0.5038 0.0
C604 C 0.85023 0.4345 0.51547 0.0
C605 C 0.87853 0.4005 0.5312 0.0
H606 H 0.83462 0.4475 0.48298 0.0
C607 C 0.92145 0.35792 0.52515 0.0
H608 H 0.81746 0.4684 0.51942 0.0
C609 C 0.93237 0.3468 0.50401 0.0
C610 C 0.90029 0.37726 0.48828 0.0
H611 H 0.94432 0.33039 0.53651 0.0
H612 H 0.96406 0.31188 0.50006 0.0
C613 C 0.86061 0.42288 0.49433 0.0
C614 C 0.68538 0.93464 0.50136 0.0
C615 C 0.65745 0.90029 0.48567 0.0
H616 H 0.70096 0.94779 0.53384 0.0
C617 C 0.61499 0.85726 0.49175 0.0
H618 H 0.71778 0.96889 0.49738 0.0
C619 C 0.60426 0.84601 0.5129 0.0
C620 C 0.63609 0.8768 0.52859 0.0
H621 H 0.59245 0.82945 0.4804 0.0
H622 H 0.57302 0.81071 0.51688 0.0
C623 C 0.67519 0.9229 0.52251 0.0
C624 C 0.25447 0.04478 0.16693 0.0
C625 C 0.26013 1.01366 0.14807 0.0
H626 H 0.2128 0.11799 0.18279 0.0
C627 C 0.21959 0.0248 0.13184 0.0
H628 H 0.28623 0.03741 0.17945 0.0
C629 C 0.17785 0.07094 0.13358 0.0
C630 C 0.17687 0.10714 0.15149 0.0
H631 H 0.22428 1.00205 0.11698 0.0
H632 H 0.15077 0.08213 0.1201 0.0
C633 C 0.21245 0.09093 0.16875 0.0
C634 C 0.99092 0.25822 0.1693 0.0
C635 C 0.02278 0.26281 0.15055 0.0
H636 H 0.91577 0.21907 0.18484 0.0
C637 C 1.01136 0.22221 0.13436 0.0
H638 H 0.99859 0.29004 0.18178 0.0
C639 C 0.96382 0.18207 0.13593 0.0
C640 C 0.92684 0.18265 0.15364 0.0
H641 H 0.03478 0.22606 0.1196 0.0
H642 H 0.95224 0.15526 0.12242 0.0
C643 C 0.94347 0.21767 0.17097 0.0
C644 C 0.86305 0.97159 0.13636 0.0
C645 C 0.86111 0.93184 0.15331 0.0
H646 H 0.82075 0.04564 0.12132 0.0
C647 C 0.82795 0.94777 0.17117 0.0
H648 H 0.88876 0.9608 0.12251 0.0
C649 C 0.78921 0.99693 0.17051 0.0
C650 C 0.78437 0.03098 0.15221 0.0
H651 H 0.82587 0.9182 0.18456 0.0
H652 H 0.75766 1.00338 0.18317 0.0
C653 C 0.82471 0.02083 0.1358 0.0
C654 C 0.06456 0.86718 0.13289 0.0
C655 C 0.10223 0.86649 0.15042 0.0
H656 H 0.99337 0.82287 0.11686 0.0
C657 C 0.08505 0.83282 0.16804 0.0
H658 H 0.07621 0.89319 0.11919 0.0
C659 C 0.03698 0.79283 0.16672 0.0
C660 C 1.00517 0.78718 0.14799 0.0
H661 H 0.11294 0.8316 0.18187 0.0
H662 H 0.02961 0.76134 0.17935 0.0
C663 C 1.01654 0.82743 0.13164 0.0
C664 C 0.21975 1.01193 0.38506 0.0
C665 C 0.26029 0.02307 0.36881 0.0
H666 H 0.15101 0.95452 0.39684 0.0
C667 C 0.25468 0.99188 0.34997 0.0
H668 H 0.2244 0.03472 0.39991 0.0
C669 C 0.21273 0.94566 0.34817 0.0
C670 C 0.17717 0.92946 0.36545 0.0
H671 H 0.28646 0.99924 0.33744 0.0
H672 H 0.21313 0.91855 0.33415 0.0
C673 C 0.17807 0.96572 0.38334 0.0
C674 C 0.06473 0.1696 0.38427 0.0
C675 C 0.1023 0.17026 0.36669 0.0
H676 H 0.99359 0.2139 0.40035 0.0
C677 C 0.08498 0.20387 0.34908 0.0
H678 H 0.07648 0.14364 0.39796 0.0
C679 C 0.03687 0.24381 0.35043 0.0
C680 C 1.00519 0.24951 0.3692 0.0
H681 H 0.11278 0.20506 0.33522 0.0
H682 H 0.0294 0.27526 0.3378 0.0
C683 C 1.0167 0.20932 0.38555 0.0
C684 C 0.78946 0.03985 0.34647 0.0
C685 C 0.78457 1.00581 0.36477 0.0
H686 H 0.82617 0.11855 0.33241 0.0
C687 C 0.82488 1.01596 0.38118 0.0
H688 H 0.75794 0.03339 0.33381 0.0
C689 C 0.86324 0.06518 0.38062 0.0
C690 C 0.86136 0.10492 0.36365 0.0
H691 H 0.82087 0.99113 0.39565 0.0
H692 H 0.88892 0.07596 0.39447 0.0
C693 C 0.82824 0.08898 0.34581 0.0
C694 C 1.01169 0.81449 0.38238 0.0
C695 C 0.0229 0.7737 0.36623 0.0
H696 H 0.95275 0.88165 0.39431 0.0
C697 C 0.99084 0.77809 0.34753 0.0
H698 H 0.03524 0.81078 0.39711 0.0
C699 C 0.94343 0.81869 0.34587 0.0
C700 C 0.92702 0.85394 0.36317 0.0
H701 H 0.99833 0.7461 0.33508 0.0
H702 H 0.91558 0.81716 0.33204 0.0
C703 C 0.96418 0.85468 0.38083 0.0
C704 C 0.76492 0.87629 0.86646 0.0
C705 C 0.79012 0.8476 0.88395 0.0
H706 H 0.72316 0.95457 0.85399 0.0
C707 C 0.79141 0.87874 0.90306 0.0
H708 H 0.76303 0.85394 0.85146 0.0
C709 C 0.7674 0.93693 0.90457 0.0
C710 C 0.74256 0.96539 0.88694 0.0
H711 H 0.81001 0.85783 0.91687 0.0
H712 H 0.76888 0.95983 0.91946 0.0
C713 C 0.74189 0.93426 0.8679 0.0
C714 C 0.10629 0.73398 0.86603 0.0
C715 C 0.07192 0.73917 0.88431 0.0
H716 H 0.18927 0.75205 0.8507 0.0
C717 C 0.09694 0.76881 0.90164 0.0
H718 H 0.08857 0.71142 0.8524 0.0
C719 C 0.15492 0.79314 0.90058 0.0
C720 C 0.18935 0.78748 0.88227 0.0
H721 H 0.07149 0.7738 0.91593 0.0
H722 H 0.17305 0.81557 0.91416 0.0
C723 C 0.16421 0.75741 0.86507 0.0
C724 C 0.26596 0.15918 0.86704 0.0
C725 C 0.24462 0.18854 0.88498 0.0
H726 H 0.30051 0.07822 0.85384 0.0
C727 C 0.2437 0.1571 0.90403 0.0
H728 H 0.26737 0.18208 0.85213 0.0
C729 C 0.2642 0.09769 0.9051 0.0
C730 C 0.28443 0.06822 0.88703 0.0
H731 H 0.22802 0.1787 0.91815 0.0
H732 H 0.26313 0.07446 0.91995 0.0
C733 C 0.28491 0.09961 0.86801 0.0
C734 C 0.93707 0.26628 0.90743 0.0
C735 C 0.9685 0.2839 0.88939 0.0
H736 H 0.85457 0.23178 0.92007 0.0
C737 C 0.93917 0.2812 0.87002 0.0
H738 H 0.95868 0.26761 0.92256 0.0
C739 C 0.87987 0.26178 0.86865 0.0
C740 C 0.84845 0.24313 0.88654 0.0
H741 H 0.962 0.29464 0.85584 0.0
H742 H 0.85873 0.26081 0.85342 0.0
C743 C 0.87777 0.2453 0.90598 0.0
C744 C 0.76369 0.16074 0.65049 0.0
C745 C 0.78955 0.18918 0.63305 0.0
H746 H 0.72134 0.08267 0.66289 0.0
C747 C 0.79138 0.15785 0.61399 0.0
H748 H 0.76136 0.18325 0.66545 0.0
C749 C 0.7673 0.0997 0.61246 0.0
C750 C 0.74182 0.07148 0.63003 0.0
H751 H 0.81049 0.17856 0.60022 0.0
H752 H 0.76923 0.07665 0.5976 0.0
C753 C 0.74058 0.1028 0.64903 0.0
C754 C 0.93674 0.77054 0.60976 0.0
C755 C 0.96799 0.75274 0.6278 0.0
H756 H 0.8544 0.80522 0.59709 0.0
C757 C 0.93851 0.75532 0.64715 0.0
H758 H 0.95847 0.76932 0.59464 0.0
C759 C 0.8792 0.77478 0.64851 0.0
C760 C 0.84797 0.79361 0.63061 0.0
H761 H 0.9612 0.74174 0.66134 0.0
H762 H 0.85792 0.77565 0.66371 0.0
C763 C 0.87745 0.79157 0.61118 0.0
C764 C 0.26399 0.939 0.61194 0.0
C765 C 0.2841 0.96851 0.63002 0.0
H766 H 0.22785 0.85796 0.5989 0.0
C767 C 0.28438 0.93718 0.64904 0.0
H768 H 0.26307 0.96218 0.59708 0.0
C769 C 0.26536 0.87763 0.65002 0.0
C770 C 0.24415 0.84822 0.63209 0.0
H771 H 0.29987 0.95859 0.66322 0.0
H772 H 0.26662 0.85477 0.66494 0.0
C773 C 0.24342 0.8796 0.61302 0.0
C774 C 0.09674 0.26785 0.61521 0.0
C775 C 0.07162 0.29753 0.63252 0.0
H776 H 0.17293 0.22104 0.60274 0.0
C777 C 0.10589 0.30279 0.65081 0.0
H778 H 0.07138 0.26281 0.60091 0.0
C779 C 0.1638 0.27934 0.65181 0.0
C780 C 0.18904 0.24921 0.63463 0.0
H781 H 0.08809 0.32539 0.66442 0.0
H782 H 0.18876 0.28474 0.66618 0.0
C783 C 0.15472 0.24351 0.61631 0.0
C784 C 0.67299 0.56445 0.63664 0.0
C785 C 0.67474 0.60454 0.65349 0.0
H786 H 0.71557 0.49024 0.62182 0.0
C787 C 0.70794 0.58908 0.67138 0.0
H788 H 0.64729 0.57488 0.62276 0.0
C789 C 0.74685 0.54004 0.67086 0.0
C790 C 0.75182 0.5056 0.65267 0.0
H791 H 0.70991 0.61892 0.68469 0.0
H792 H 0.7784 0.53396 0.68354 0.0
C793 C 0.71148 0.5153 0.63623 0.0
C794 C 0.45177 0.70306 0.66732 0.0
C795 C 0.43413 0.66938 0.64978 0.0
H796 H 0.50749 0.77455 0.6784 0.0
C797 C 0.47129 0.66879 0.6321 0.0
H798 H 0.42429 0.70418 0.68126 0.0
C799 C 0.51918 0.70865 0.63065 0.0
C800 C 0.53099 0.74885 0.64695 0.0
H801 H 0.45932 0.64276 0.61846 0.0
H802 H 0.54202 0.71322 0.6158 0.0
C803 C 0.49976 0.7431 0.66581 0.0
C804 C 0.31629 0.51063 0.63126 0.0
C805 C 0.27632 0.52265 0.64759 0.0
H806 H 0.38437 0.45242 0.61955 0.0
C807 C 0.28236 0.49226 0.66659 0.0
H808 H 0.31133 0.53288 0.61631 0.0
C809 C 0.32409 0.44585 0.66848 0.0
C810 C 0.359 0.42874 0.65116 0.0
H811 H 0.25103 0.50033 0.6792 0.0
H812 H 0.32398 0.41931 0.68265 0.0
C813 C 0.35778 0.4643 0.63308 0.0
C814 C 0.54587 0.27685 0.66998 0.0
C815 C 0.51325 0.2727 0.65139 0.0
H816 H 0.62147 0.31582 0.68526 0.0
C817 C 0.52393 0.31378 0.63526 0.0
H818 H 0.53881 0.24465 0.68241 0.0
C819 C 0.57144 0.354 0.6367 0.0
C820 C 0.60909 0.35307 0.65422 0.0
H821 H 0.50001 0.31023 0.6206 0.0
H822 H 0.58245 0.38119 0.62321 0.0
C823 C 0.59323 0.31752 0.67153 0.0
C824 C 0.67403 0.47248 0.87977 0.0
C825 C 0.67575 0.43213 0.863 0.0
H826 H 0.71662 0.54689 0.89442 0.0
C827 C 0.70888 0.44732 0.84506 0.0
H828 H 0.64838 0.46224 0.89369 0.0
C829 C 0.74777 0.49639 0.84546 0.0
C830 C 0.75277 0.53114 0.86357 0.0
H831 H 0.71083 0.41727 0.83181 0.0
H832 H 0.77928 0.50228 0.83275 0.0
C833 C 0.71247 0.52166 0.88006 0.0
C834 C 0.52497 0.72303 0.88233 0.0
C835 C 0.51355 0.76363 0.86612 0.0
H836 H 0.58413 0.65613 0.89431 0.0
C837 C 0.54545 0.75909 0.84738 0.0
H838 H 0.50154 0.72685 0.89709 0.0
C839 C 0.59294 0.71858 0.84575 0.0
C840 C 0.60957 0.68357 0.8631 0.0
H841 H 0.5378 0.79092 0.83488 0.0
H842 H 0.62067 0.72001 0.83187 0.0
C843 C 0.57254 0.68293 0.88079 0.0
C844 C 0.28293 0.54451 0.85061 0.0
C845 C 0.27698 0.51411 0.86962 0.0
H846 H 0.32458 0.61736 0.83451 0.0
C847 C 0.31711 0.52603 0.8859 0.0
H848 H 0.25149 0.53649 0.83804 0.0
C849 C 0.35868 0.57227 0.88403 0.0
C850 C 0.35985 0.60784 0.86595 0.0
H851 H 0.31224 0.50375 0.90085 0.0
H852 H 0.38543 0.58407 0.89752 0.0
C853 C 0.32475 0.59082 0.84867 0.0
C854 C 0.5203 0.32797 0.88577 0.0
C855 C 0.53169 0.28774 0.86944 0.0
H856 H 0.46078 0.39388 0.89816 0.0
C857 C 0.50002 0.29352 0.85068 0.0
H858 H 0.54344 0.32334 0.90056 0.0
C859 C 0.45205 0.33363 0.84932 0.0
C860 C 0.43484 0.36732 0.86691 0.0
H861 H 0.50741 0.26204 0.83807 0.0
H862 H 0.42426 0.33251 0.83547 0.0
C863 C 0.47242 0.36787 0.88447 0.0
C864 C 0.29274 0.37969 0.40416 0.0
C865 C 0.29211 0.34845 0.38508 0.0
H866 H 0.27302 0.46216 0.42011 0.0
C867 C 0.27101 0.37802 0.36714 0.0
H868 H 0.30824 0.35794 0.41828 0.0
C869 C 0.25198 0.43756 0.36813 0.0
C870 C 0.25216 0.46874 0.38717 0.0
H871 H 0.26983 0.35529 0.35221 0.0
H872 H 0.23657 0.45908 0.35395 0.0
C873 C 0.27217 0.43909 0.40525 0.0
C874 C 0.59958 0.27033 0.40739 0.0
C875 C 0.56819 0.25288 0.38934 0.0
H876 H 0.68205 0.30474 0.42005 0.0
C877 C 0.59755 0.25582 0.36997 0.0
H878 H 0.57796 0.26883 0.42252 0.0
C879 C 0.65684 0.27528 0.3686 0.0
C880 C 0.68823 0.29375 0.38651 0.0
H881 H 0.57475 0.24252 0.35578 0.0
H882 H 0.67801 0.27643 0.35338 0.0
C883 C 0.65888 0.29136 0.40595 0.0
C884 C 0.74496 0.65787 0.40276 0.0
C885 C 0.74677 0.68934 0.38372 0.0
H886 H 0.76715 0.57658 0.41913 0.0
C887 C 0.77264 0.66104 0.36627 0.0
H888 H 0.72584 0.67847 0.41654 0.0
C889 C 0.79578 0.6031 0.36771 0.0
C890 C 0.79455 0.57165 0.3867 0.0
H891 H 0.77496 0.68367 0.35132 0.0
H892 H 0.81502 0.58307 0.35384 0.0
C893 C 0.76907 0.59974 0.40428 0.0
C894 C 0.43013 0.80342 0.36621 0.0
C895 C 0.46456 0.79771 0.38444 0.0
H896 H 0.34709 0.78579 0.35089 0.0
C897 C 0.43959 0.76765 0.40171 0.0
H898 H 0.44781 0.82633 0.35262 0.0
C899 C 0.38159 0.74338 0.40063 0.0
C900 C 0.3471 0.74953 0.38236 0.0
H901 H 0.46508 0.76226 0.41597 0.0
H902 H 0.3635 0.7206 0.41416 0.0
C903 C 0.37219 0.78004 0.36522 0.0
C904 C 0.27097 0.65876 0.14991 0.0
C905 C 0.29213 0.6883 0.13198 0.0
H906 H 0.23649 0.57772 0.16312 0.0
C907 C 0.29283 0.65703 0.1129 0.0
H908 H 0.26974 0.68152 0.16485 0.0
C909 C 0.27226 0.59763 0.11182 0.0
C910 C 0.25219 0.56801 0.1299 0.0
H911 H 0.30837 0.67876 0.09878 0.0
H912 H 0.27315 0.57454 0.09696 0.0
C913 C 0.25195 0.59922 0.14893 0.0
C914 C 0.43959 0.2692 0.11535 0.0
C915 C 0.46448 0.23893 0.13258 0.0
H916 H 0.36358 0.31641 0.10294 0.0
C917 C 0.42997 0.23302 0.1508 0.0
H918 H 0.46514 0.27475 0.1011 0.0
C919 C 0.37203 0.25641 0.15181 0.0
C920 C 0.34703 0.28712 0.1347 0.0
H921 H 0.44759 0.20994 0.16435 0.0
H922 H 0.34686 0.2505 0.16612 0.0
C923 C 0.3816 0.29347 0.11645 0.0
C924 C 0.76925 0.43698 0.11264 0.0
C925 C 0.79457 0.46512 0.13024 0.0
H926 H 0.72613 0.35821 0.10037 0.0
C927 C 0.79559 0.43373 0.14924 0.0
H928 H 0.76749 0.46009 0.09778 0.0
C929 C 0.77242 0.37579 0.15068 0.0
C930 C 0.74672 0.34745 0.13322 0.0
H931 H 0.81469 0.4538 0.16312 0.0
H932 H 0.77458 0.35321 0.16564 0.0
C933 C 0.74511 0.37885 0.11416 0.0
C934 C 0.59963 0.76638 0.10951 0.0
C935 C 0.56816 0.78368 0.12758 0.0
H936 H 0.68215 0.73209 0.09683 0.0
C937 C 0.59745 0.78058 0.14695 0.0
H938 H 0.57805 0.76801 0.09438 0.0
C939 C 0.65674 0.76111 0.14831 0.0
C940 C 0.6882 0.74281 0.13039 0.0
H941 H 0.57461 0.79376 0.16115 0.0
H942 H 0.67785 0.75985 0.16353 0.0
C943 C 0.65893 0.74534 0.11094 0.0
C944 C 0.24479 0.27771 0.28022 0.0
C945 C 0.28879 0.23346 0.27708 0.0
H946 H 0.18312 0.33915 0.26633 0.0
C947 C 0.3045 0.21847 0.25646 0.0
H948 H 0.23246 0.29217 0.29575 0.0
C949 C 0.2767 0.24635 0.23948 0.0
C950 C 0.23211 0.29 0.24263 0.0
H951 H 0.33849 0.18502 0.25338 0.0
H952 H 0.29136 0.23425 0.22395 0.0
C953 C 0.21684 0.30543 0.26325 0.0
C954 C 0.81061 0.3133 0.25665 0.0
C955 C 0.7959 0.29758 0.27729 0.0
H956 H 0.79468 0.29981 0.22417 0.0
C957 C 0.75148 0.25378 0.28054 0.0
H958 H 0.84411 0.3472 0.2535 0.0
C959 C 0.72365 0.22568 0.26362 0.0
C960 C 0.73915 0.2406 0.24298 0.0
H961 H 0.73718 0.24153 0.2961 0.0
H962 H 0.69002 0.19191 0.26678 0.0
C963 C 0.78262 0.28535 0.23974 0.0
C964 C 0.72351 0.81102 0.25335 0.0
C965 C 0.73902 0.79608 0.27398 0.0
H966 H 0.73697 0.79516 0.22086 0.0
C967 C 0.78244 0.75129 0.2772 0.0
H968 H 0.68991 0.84482 0.2502 0.0
C969 C 0.81037 0.7233 0.26027 0.0
C970 C 0.79567 0.73905 0.23964 0.0
H971 H 0.79451 0.73682 0.29276 0.0
H972 H 0.84385 0.68937 0.26341 0.0
C973 C 0.75129 0.78289 0.23642 0.0
C974 C 0.21744 0.73109 0.25375 0.0
C975 C 0.23259 0.74665 0.27436 0.0
H976 H 0.23307 0.74436 0.22124 0.0
C977 C 0.27698 0.7905 0.27749 0.0
H978 H 0.18388 0.69721 0.25067 0.0
C979 C 0.30469 0.81847 0.26051 0.0
C980 C 0.28909 0.80337 0.2399 0.0
H981 H 0.29155 0.80271 0.29302 0.0
H982 H 0.33853 0.85208 0.26358 0.0
C983 C 0.2453 0.75891 0.23676 0.0
C984 C 0.72415 0.81378 0.76011 0.0
C985 C 0.7393 0.79845 0.73948 0.0
H986 H 0.73999 0.80031 0.7926 0.0
C987 C 0.78447 0.75542 0.73627 0.0
H988 H 0.69005 0.84709 0.76323 0.0
C989 C 0.8126 0.72766 0.75321 0.0
C990 C 0.79667 0.74217 0.77384 0.0
H991 H 0.79912 0.74352 0.72072 0.0
H992 H 0.84681 0.69448 0.75007 0.0
C993 C 0.75244 0.78616 0.77705 0.0
C994 C 0.31935 0.80496 0.7536 0.0
C995 C 0.30436 0.78935 0.77423 0.0
H996 H 0.30366 0.79158 0.72111 0.0
C997 C 0.26024 0.74524 0.77743 0.0
H998 H 0.3527 0.83902 0.75047 0.0
C999 C 0.23263 0.71709 0.76048 0.0
C1000 C 0.24806 0.73226 0.73985 0.0
H1001 H 0.24578 0.73298 0.79298 0.0
H1002 H 0.19901 0.68329 0.76361 0.0
C1003 C 0.29158 0.77696 0.73666 0.0
C1004 C 0.23227 0.31967 0.75668 0.0
C1005 C 0.24775 0.30443 0.7773 0.0
H1006 H 0.24525 0.30378 0.72418 0.0
C1007 C 0.29115 0.25961 0.78046 0.0
H1008 H 0.19873 0.35356 0.75359 0.0
C1009 C 0.31877 0.23155 0.76348 0.0
C1010 C 0.30374 0.24722 0.74287 0.0
H1011 H 0.30326 0.24495 0.79599 0.0
H1012 H 0.35203 0.19739 0.76658 0.0
C1013 C 0.25973 0.29146 0.73971 0.0
C1014 C 0.72617 0.22253 0.75676 0.0
C1015 C 0.741 0.23829 0.77737 0.0
H1016 H 0.74195 0.23595 0.72425 0.0
C1017 C 0.78553 0.282 0.78054 0.0
H1018 H 0.69257 0.1887 0.75367 0.0
C1019 C 0.81334 0.31 0.76358 0.0
C1020 C 0.7977 0.29506 0.74297 0.0
H1021 H 0.79992 0.29426 0.79608 0.0
H1022 H 0.84705 0.3437 0.76669 0.0
C1023 C 0.75412 0.2504 0.7398 0.0
C1024 C 0.99696 0.47875 0.11371 0.0
C1025 C 0.04968 0.46434 0.12475 0.0
H1026 H 0.93494 0.54807 0.1049 0.0
C1027 C 0.08076 0.50988 0.13496 0.0
H1028 H 0.97175 0.444 0.10585 0.0
C1029 C 0.05858 0.56804 0.13503 0.0
C1030 C 1.00401 0.58231 0.12511 0.0
H1031 H 0.11926 0.4997 0.14455 0.0
H1032 H 0.08279 0.60109 0.14408 0.0
C1033 C 0.97473 0.53766 0.11367 0.0
C1034 C 0.50797 0.95549 0.13434 0.0
C1035 C 0.46373 0.98824 0.12405 0.0
H1036 H 0.5979 0.95169 0.14471 0.0
C1037 C 0.47968 0.04208 0.11394 0.0
H1038 H 0.49659 0.91579 0.14316 0.0
C1039 C 0.53869 0.06385 0.11502 0.0
C1040 C 0.58175 0.03309 0.12673 0.0
H1041 H 0.44601 0.06846 0.10597 0.0
H1042 H 0.55035 0.10444 0.10692 0.0
C1043 C 0.56612 0.9773 0.13556 0.0
C1044 C 0.08076 0.52671 0.38207 0.0
C1045 C 0.04964 0.57236 0.39223 0.0
H1046 H 0.08275 0.43541 0.37304 0.0
C1047 C 0.99684 0.55807 0.40325 0.0
H1048 H 0.11932 0.53681 0.37249 0.0
C1049 C 0.97455 0.49918 0.40333 0.0
C1050 C 1.00388 0.45442 0.39195 0.0
H1051 H 0.97159 0.59289 0.41106 0.0
H1052 H 0.93468 0.48888 0.41208 0.0
C1053 C 0.05852 0.46856 0.38204 0.0
C1054 C 0.53873 0.97297 0.40192 0.0
C1055 C 0.58183 1.00369 0.39018 0.0
H1056 H 0.44604 0.9684 0.41097 0.0
C1057 C 0.5662 0.05943 0.38132 0.0
H1058 H 0.55038 0.93242 0.41004 0.0
C1059 C 0.50805 0.08125 0.38254 0.0
C1060 C 0.4638 0.04855 0.39286 0.0
H1061 H 0.59801 0.08499 0.37216 0.0
H1062 H 0.49669 0.1209 0.37369 0.0
C1063 C 0.47973 0.99475 0.40298 0.0
C1064 C 0.02921 0.4554 0.88245 0.0
C1065 C 0.07289 0.48815 0.89301 0.0
H1066 H 0.93988 0.45146 0.87154 0.0
C1067 C 0.05633 0.54184 0.90306 0.0
H1068 H 0.04105 0.41578 0.87368 0.0
C1069 C 0.99733 0.5635 0.90165 0.0
C1070 C 0.95493 0.53281 0.88964 0.0
H1071 H 0.08956 0.5682 0.91126 0.0
H1072 H 0.98516 0.60394 0.90973 0.0
C1073 C 0.97111 0.4771 0.88089 0.0
C1074 C 0.56188 0.03768 0.9034 0.0
C1075 C 0.5327 0.08265 0.89206 0.0
H1076 H 0.56464 0.94387 0.91103 0.0
C1077 C 0.47811 0.06872 0.8821 0.0
H1078 H 0.60173 0.04779 0.91217 0.0
C1079 C 0.45579 1.0106 0.88204 0.0
C1080 C 0.48675 0.96478 0.89218 0.0
H1081 H 0.45402 0.10205 0.87312 0.0
H1082 H 0.4173 1.0007 0.87242 0.0
C1083 C 0.53949 0.97884 0.90324 0.0
C1084 C 0.02847 0.58111 0.63453 0.0
C1085 C 0.07242 0.54853 0.62403 0.0
H1086 H 0.93882 0.58483 0.64519 0.0
C1087 C 0.05618 0.49491 0.61388 0.0
H1088 H 0.04007 0.62063 0.64339 0.0
C1089 C 0.99716 0.47317 0.6151 0.0
C1090 C 0.95441 0.50376 0.62702 0.0
H1091 H 0.08963 0.46866 0.60575 0.0
H1092 H 0.98525 0.43277 0.60695 0.0
C1093 C 0.97033 0.55935 0.6359 0.0
C1094 C 0.47781 0.96775 0.63464 0.0
C1095 C 0.53243 0.95409 0.62465 0.0
H1096 H 0.41701 0.03558 0.64454 0.0
C1097 C 0.56171 0.99935 0.61348 0.0
H1098 H 0.45368 0.93418 0.64351 0.0
C1099 C 0.53935 0.05819 0.61382 0.0
C1100 C 0.48655 0.07197 0.62491 0.0
H1101 H 0.60162 0.98947 0.60469 0.0
H1102 H 0.56456 0.09336 0.60617 0.0
C1103 C 0.45551 0.02589 0.63488 0.0
loop_
_geom_bond_atom_site_label_1
_geom_bond_atom_site_label_2
_geom_bond_distance
_geom_bond_site_symmetry_2
_ccdc_geom_bond_type
Zn0 N4 2.020 . S
Zn0 O8 2.019 . S
Zn0 N10 2.119 . S
Zn0 O18 1.975 . S
C1 N2 1.334 . S
C1 N5 1.336 . S
N2 C1 1.334 . S
N2 C3 1.334 . S
C3 N2 1.334 . S
C3 N4 1.336 . S
N4 Zn0 2.020 . S
N4 C3 1.336 . S
N4 N5 1.354 . S
N5 C1 1.336 . S
N5 N4 1.354 . S
N5 Zn9 2.020 . S
C6 O7 1.244 . S
C6 O30 1.257 . S
O7 C6 1.244 . S
O8 Zn0 2.019 . S
O8 C28 1.257 . S
Zn9 N5 2.020 . S
Zn9 O16 1.975 . S
Zn9 N25 2.119 . S
Zn9 O30 2.019 . S
N10 Zn0 2.119 . S
N10 C12 1.334 . S
N10 C13 1.328 . S
C11 C12 1.391 . S
C11 N14 1.329 . S
C11 H32 0.930 . S
C12 N10 1.334 . S
C12 C11 1.391 . S
C12 H19 0.930 . S
C13 N10 1.328 . S
C13 C15 1.392 . S
C13 H20 0.930 . S
N14 C11 1.329 . S
N14 C15 1.331 . S
C15 C13 1.392 . S
C15 N14 1.331 . S
O16 Zn9 1.975 . S
O16 C17 1.252 . S
C17 O16 1.252 . S
C17 O18 1.252 . S
O18 Zn0 1.975 . S
O18 C17 1.252 . S
H19 C12 0.930 . S
H20 C13 0.930 . S
C21 C22 1.392 . S
C21 N25 1.328 . S
C21 H27 0.930 . S
C22 C21 1.392 . S
C22 N26 1.331 . S
C23 C24 1.391 . S
C23 N26 1.329 . S
C23 H33 0.930 . S
C24 C23 1.391 . S
C24 N25 1.334 . S
C24 H31 0.930 . S
N25 Zn9 2.119 . S
N25 C21 1.328 . S
N25 C24 1.334 . S
N26 C22 1.331 . S
N26 C23 1.329 . S
H27 C21 0.930 . S
C28 O8 1.257 . S
C28 O29 1.244 . S
O29 C28 1.244 . S
O30 C6 1.257 . S
O30 Zn9 2.019 . S
H31 C24 0.930 . S
H32 C11 0.930 . S
H33 C23 0.930 . S
Zn34 N38 2.020 . S
Zn34 O42 2.019 . S
Zn34 N44 2.119 . S
Zn34 O52 1.975 . S
C35 N36 1.334 . S
C35 N39 1.336 . S
N36 C35 1.334 . S
N36 C37 1.334 . S
C37 N36 1.334 . S
C37 N38 1.336 . S
N38 Zn34 2.020 . S
N38 C37 1.336 . S
N38 N39 1.354 . S
N39 C35 1.336 . S
N39 N38 1.354 . S
N39 Zn43 2.020 . S
C40 O41 1.244 . S
C40 O64 1.257 . S
O41 C40 1.244 . S
O42 Zn34 2.019 . S
O42 C62 1.257 . S
Zn43 N39 2.020 . S
Zn43 O50 1.975 . S
Zn43 N59 2.119 . S
Zn43 O64 2.019 . S
N44 Zn34 2.119 . S
N44 C46 1.334 . S
N44 C47 1.328 . S
C45 C46 1.391 . S
C45 N48 1.329 . S
C45 H66 0.930 . S
C46 N44 1.334 . S
C46 C45 1.391 . S
C46 H53 0.930 . S
C47 N44 1.328 . S
C47 C49 1.392 . S
C47 H54 0.930 . S
N48 C45 1.329 . S
N48 C49 1.331 . S
C49 C47 1.392 . S
C49 N48 1.331 . S
O50 Zn43 1.975 . S
O50 C51 1.252 . S
C51 O50 1.252 . S
C51 O52 1.252 . S
O52 Zn34 1.975 . S
O52 C51 1.252 . S
H53 C46 0.930 . S
H54 C47 0.930 . S
C55 C56 1.392 . S
C55 N59 1.328 . S
C55 H61 0.930 . S
C56 C55 1.392 . S
C56 N60 1.331 . S
C57 C58 1.391 . S
C57 N60 1.329 . S
C57 H67 0.930 . S
C58 C57 1.391 . S
C58 N59 1.334 . S
C58 H65 0.930 . S
N59 Zn43 2.119 . S
N59 C55 1.328 . S
N59 C58 1.334 . S
N60 C56 1.331 . S
N60 C57 1.329 . S
H61 C55 0.930 . S
C62 O42 1.257 . S
C62 O63 1.244 . S
O63 C62 1.244 . S
O64 C40 1.257 . S
O64 Zn43 2.019 . S
H65 C58 0.930 . S
H66 C45 0.930 . S
H67 C57 0.930 . S
Zn68 N72 2.020 . S
Zn68 O76 2.019 . S
Zn68 N78 2.119 . S
Zn68 O86 1.975 . S
C69 N70 1.334 . S
C69 N73 1.336 . S
N70 C69 1.334 . S
N70 C71 1.334 . S
C71 N70 1.334 . S
C71 N72 1.336 . S
N72 Zn68 2.020 . S
N72 C71 1.336 . S
N72 N73 1.354 . S
N73 C69 1.336 . S
N73 N72 1.354 . S
N73 Zn77 2.020 . S
C74 O75 1.244 . S
C74 O98 1.257 . S
O75 C74 1.244 . S
O76 Zn68 2.019 . S
O76 C96 1.257 . S
Zn77 N73 2.020 . S
Zn77 O84 1.975 . S
Zn77 N93 2.119 . S
Zn77 O98 2.019 . S
N78 Zn68 2.119 . S
N78 C80 1.334 . S
N78 C81 1.328 . S
C79 C80 1.391 . S
C79 N82 1.329 . S
C79 H100 0.930 . S
C80 N78 1.334 . S
C80 C79 1.391 . S
C80 H87 0.930 . S
C81 N78 1.328 . S
C81 C83 1.392 . S
C81 H88 0.930 . S
N82 C79 1.329 . S
N82 C83 1.331 . S
C83 C81 1.392 . S
C83 N82 1.331 . S
O84 Zn77 1.975 . S
O84 C85 1.252 . S
C85 O84 1.252 . S
C85 O86 1.252 . S
O86 Zn68 1.975 . S
O86 C85 1.252 . S
H87 C80 0.930 . S
H88 C81 0.930 . S
C89 C90 1.392 . S
C89 N93 1.328 . S
C89 H95 0.930 . S
C90 C89 1.392 . S
C90 N94 1.331 . S
C91 C92 1.391 . S
C91 N94 1.329 . S
C91 H101 0.930 . S
C92 C91 1.391 . S
C92 N93 1.334 . S
C92 H99 0.930 . S
N93 Zn77 2.119 . S
N93 C89 1.328 . S
N93 C92 1.334 . S
N94 C90 1.331 . S
N94 C91 1.329 . S
H95 C89 0.930 . S
C96 O76 1.257 . S
C96 O97 1.244 . S
O97 C96 1.244 . S
O98 C74 1.257 . S
O98 Zn77 2.019 . S
H99 C92 0.930 . S
H100 C79 0.930 . S
H101 C91 0.930 . S
Zn102 N106 2.020 . S
Zn102 O110 2.019 . S
Zn102 N112 2.119 . S
Zn102 O120 1.975 . S
C103 N104 1.334 . S
C103 N107 1.336 . S
N104 C103 1.334 . S
N104 C105 1.334 . S
C105 N104 1.334 . S
C105 N106 1.336 . S
N106 Zn102 2.020 . S
N106 C105 1.336 . S
N106 N107 1.354 . S
N107 C103 1.336 . S
N107 N106 1.354 . S
N107 Zn111 2.020 . S
C108 O109 1.244 . S
C108 O132 1.257 . S
O109 C108 1.244 . S
O110 Zn102 2.019 . S
O110 C130 1.257 . S
Zn111 N107 2.020 . S
Zn111 O118 1.975 . S
Zn111 N127 2.119 . S
Zn111 O132 2.019 . S
N112 Zn102 2.119 . S
N112 C114 1.334 . S
N112 C115 1.328 . S
C113 C114 1.391 . S
C113 N116 1.329 . S
C113 H134 0.930 . S
C114 N112 1.334 . S
C114 C113 1.391 . S
C114 H121 0.930 . S
C115 N112 1.328 . S
C115 C117 1.392 . S
C115 H122 0.930 . S
N116 C113 1.329 . S
N116 C117 1.331 . S
C117 C115 1.392 . S
C117 N116 1.331 . S
O118 Zn111 1.975 . S
O118 C119 1.252 . S
C119 O118 1.252 . S
C119 O120 1.252 . S
O120 Zn102 1.975 . S
O120 C119 1.252 . S
H121 C114 0.930 . S
H122 C115 0.930 . S
C123 C124 1.392 . S
C123 N127 1.328 . S
C123 H129 0.930 . S
C124 C123 1.392 . S
C124 N128 1.331 . S
C125 C126 1.391 . S
C125 N128 1.329 . S
C125 H135 0.930 . S
C126 C125 1.391 . S
C126 N127 1.334 . S
C126 H133 0.930 . S
N127 Zn111 2.119 . S
N127 C123 1.328 . S
N127 C126 1.334 . S
N128 C124 1.331 . S
N128 C125 1.329 . S
H129 C123 0.930 . S
C130 O110 1.257 . S
C130 O131 1.244 . S
O131 C130 1.244 . S
O132 C108 1.257 . S
O132 Zn111 2.019 . S
H133 C126 0.930 . S
H134 C113 0.930 . S
H135 C125 0.930 . S
Zn136 N140 2.020 . S
Zn136 O144 2.019 . S
Zn136 N146 2.119 . S
Zn136 O154 1.975 . S
C137 N138 1.334 . S
C137 N141 1.336 . S
N138 C137 1.334 . S
N138 C139 1.334 . S
C139 N138 1.334 . S
C139 N140 1.336 . S
N140 Zn136 2.020 . S
N140 C139 1.336 . S
N140 N141 1.354 . S
N141 C137 1.336 . S
N141 N140 1.354 . S
N141 Zn145 2.020 . S
C142 O143 1.244 . S
C142 O166 1.257 . S
O143 C142 1.244 . S
O144 Zn136 2.019 . S
O144 C164 1.257 . S
Zn145 N141 2.020 . S
Zn145 O152 1.975 . S
Zn145 N161 2.119 . S
Zn145 O166 2.019 . S
N146 Zn136 2.119 . S
N146 C148 1.334 . S
N146 C149 1.328 . S
C147 C148 1.391 . S
C147 N150 1.329 . S
C147 H168 0.930 . S
C148 N146 1.334 . S
C148 C147 1.391 . S
C148 H155 0.930 . S
C149 N146 1.328 . S
C149 C151 1.392 . S
C149 H156 0.930 . S
N150 C147 1.329 . S
N150 C151 1.331 . S
C151 C149 1.392 . S
C151 N150 1.331 . S
O152 Zn145 1.975 . S
O152 C153 1.252 . S
C153 O152 1.252 . S
C153 O154 1.252 . S
O154 Zn136 1.975 . S
O154 C153 1.252 . S
H155 C148 0.930 . S
H156 C149 0.930 . S
C157 C158 1.392 . S
C157 N161 1.328 . S
C157 H163 0.930 . S
C158 C157 1.392 . S
C158 N162 1.331 . S
C159 C160 1.391 . S
C159 N162 1.329 . S
C159 H169 0.930 . S
C160 C159 1.391 . S
C160 N161 1.334 . S
C160 H167 0.930 . S
N161 Zn145 2.119 . S
N161 C157 1.328 . S
N161 C160 1.334 . S
N162 C158 1.331 . S
N162 C159 1.329 . S
H163 C157 0.930 . S
C164 O144 1.257 . S
C164 O165 1.244 . S
O165 C164 1.244 . S
O166 C142 1.257 . S
O166 Zn145 2.019 . S
H167 C160 0.930 . S
H168 C147 0.930 . S
H169 C159 0.930 . S
Zn170 N174 2.020 . S
Zn170 O178 2.019 . S
Zn170 N180 2.119 . S
Zn170 O188 1.975 . S
C171 N172 1.334 . S
C171 N175 1.336 . S
N172 C171 1.334 . S
N172 C173 1.334 . S
C173 N172 1.334 . S
C173 N174 1.336 . S
N174 Zn170 2.020 . S
N174 C173 1.336 . S
N174 N175 1.354 . S
N175 C171 1.336 . S
N175 N174 1.354 . S
N175 Zn179 2.020 . S
C176 O177 1.244 . S
C176 O200 1.257 . S
O177 C176 1.244 . S
O178 Zn170 2.019 . S
O178 C198 1.257 . S
Zn179 N175 2.020 . S
Zn179 O186 1.975 . S
Zn179 N195 2.119 . S
Zn179 O200 2.019 . S
N180 Zn170 2.119 . S
N180 C182 1.334 . S
N180 C183 1.328 . S
C181 C182 1.391 . S
C181 N184 1.329 . S
C181 H202 0.930 . S
C182 N180 1.334 . S
C182 C181 1.391 . S
C182 H189 0.930 . S
C183 N180 1.328 . S
C183 C185 1.392 . S
C183 H190 0.930 . S
N184 C181 1.329 . S
N184 C185 1.331 . S
C185 C183 1.392 . S
C185 N184 1.331 . S
O186 Zn179 1.975 . S
O186 C187 1.252 . S
C187 O186 1.252 . S
C187 O188 1.252 . S
O188 Zn170 1.975 . S
O188 C187 1.252 . S
H189 C182 0.930 . S
H190 C183 0.930 . S
C191 C192 1.392 . S
C191 N195 1.328 . S
C191 H197 0.930 . S
C192 C191 1.392 . S
C192 N196 1.331 . S
C193 C194 1.391 . S
C193 N196 1.329 . S
C193 H203 0.930 . S
C194 C193 1.391 . S
C194 N195 1.334 . S
C194 H201 0.930 . S
N195 Zn179 2.119 . S
N195 C191 1.328 . S
N195 C194 1.334 . S
N196 C192 1.331 . S
N196 C193 1.329 . S
H197 C191 0.930 . S
C198 O178 1.257 . S
C198 O199 1.244 . S
O199 C198 1.244 . S
O200 C176 1.257 . S
O200 Zn179 2.019 . S
H201 C194 0.930 . S
H202 C181 0.930 . S
H203 C193 0.930 . S
Zn204 N208 2.020 . S
Zn204 O212 2.019 . S
Zn204 N214 2.119 . S
Zn204 O222 1.975 . S
C205 N206 1.334 . S
C205 N209 1.336 . S
N206 C205 1.334 . S
N206 C207 1.334 . S
C207 N206 1.334 . S
C207 N208 1.336 . S
N208 Zn204 2.020 . S
N208 C207 1.336 . S
N208 N209 1.354 . S
N209 C205 1.336 . S
N209 N208 1.354 . S
N209 Zn213 2.020 . S
C210 O211 1.244 . S
C210 O234 1.257 . S
O211 C210 1.244 . S
O212 Zn204 2.019 . S
O212 C232 1.257 . S
Zn213 N209 2.020 . S
Zn213 O220 1.975 . S
Zn213 N229 2.119 . S
Zn213 O234 2.019 . S
N214 Zn204 2.119 . S
N214 C216 1.334 . S
N214 C217 1.328 . S
C215 C216 1.391 . S
C215 N218 1.329 . S
C215 H236 0.930 . S
C216 N214 1.334 . S
C216 C215 1.391 . S
C216 H223 0.930 . S
C217 N214 1.328 . S
C217 C219 1.392 . S
C217 H224 0.930 . S
N218 C215 1.329 . S
N218 C219 1.331 . S
C219 C217 1.392 . S
C219 N218 1.331 . S
O220 Zn213 1.975 . S
O220 C221 1.252 . S
C221 O220 1.252 . S
C221 O222 1.252 . S
O222 Zn204 1.975 . S
O222 C221 1.252 . S
H223 C216 0.930 . S
H224 C217 0.930 . S
C225 C226 1.392 . S
C225 N229 1.328 . S
C225 H231 0.930 . S
C226 C225 1.392 . S
C226 N230 1.331 . S
C227 C228 1.391 . S
C227 N230 1.329 . S
C227 H237 0.930 . S
C228 C227 1.391 . S
C228 N229 1.334 . S
C228 H235 0.930 . S
N229 Zn213 2.119 . S
N229 C225 1.328 . S
N229 C228 1.334 . S
N230 C226 1.331 . S
N230 C227 1.329 . S
H231 C225 0.930 . S
C232 O212 1.257 . S
C232 O233 1.244 . S
O233 C232 1.244 . S
O234 C210 1.257 . S
O234 Zn213 2.019 . S
H235 C228 0.930 . S
H236 C215 0.930 . S
H237 C227 0.930 . S
Zn238 N242 2.020 . S
Zn238 O246 2.019 . S
Zn238 N248 2.119 . S
Zn238 O256 1.975 . S
C239 N240 1.334 . S
C239 N243 1.336 . S
N240 C239 1.334 . S
N240 C241 1.334 . S
C241 N240 1.334 . S
C241 N242 1.336 . S
N242 Zn238 2.020 . S
N242 C241 1.336 . S
N242 N243 1.354 . S
N243 C239 1.336 . S
N243 N242 1.354 . S
N243 Zn247 2.020 . S
C244 O245 1.244 . S
C244 O268 1.257 . S
O245 C244 1.244 . S
O246 Zn238 2.019 . S
O246 C266 1.257 . S
Zn247 N243 2.020 . S
Zn247 O254 1.975 . S
Zn247 N263 2.119 . S
Zn247 O268 2.019 . S
N248 Zn238 2.119 . S
N248 C250 1.334 . S
N248 C251 1.328 . S
C249 C250 1.391 . S
C249 N252 1.329 . S
C249 H270 0.930 . S
C250 N248 1.334 . S
C250 C249 1.391 . S
C250 H257 0.930 . S
C251 N248 1.328 . S
C251 C253 1.392 . S
C251 H258 0.930 . S
N252 C249 1.329 . S
N252 C253 1.331 . S
C253 C251 1.392 . S
C253 N252 1.331 . S
O254 Zn247 1.975 . S
O254 C255 1.252 . S
C255 O254 1.252 . S
C255 O256 1.252 . S
O256 Zn238 1.975 . S
O256 C255 1.252 . S
H257 C250 0.930 . S
H258 C251 0.930 . S
C259 C260 1.392 . S
C259 N263 1.328 . S
C259 H265 0.930 . S
C260 C259 1.392 . S
C260 N264 1.331 . S
C261 C262 1.391 . S
C261 N264 1.329 . S
C261 H271 0.930 . S
C262 C261 1.391 . S
C262 N263 1.334 . S
C262 H269 0.930 . S
N263 Zn247 2.119 . S
N263 C259 1.328 . S
N263 C262 1.334 . S
N264 C260 1.331 . S
N264 C261 1.329 . S
H265 C259 0.930 . S
C266 O246 1.257 . S
C266 O267 1.244 . S
O267 C266 1.244 . S
O268 C244 1.257 . S
O268 Zn247 2.019 . S
H269 C262 0.930 . S
H270 C249 0.930 . S
H271 C261 0.930 . S
Zn272 N276 2.020 . S
Zn272 O280 2.019 . S
Zn272 N282 2.119 . S
Zn272 O290 1.975 . S
C273 N274 1.334 . S
C273 N277 1.336 . S
N274 C273 1.334 . S
N274 C275 1.334 . S
C275 N274 1.334 . S
C275 N276 1.336 . S
N276 Zn272 2.020 . S
N276 C275 1.336 . S
N276 N277 1.354 . S
N277 C273 1.336 . S
N277 N276 1.354 . S
N277 Zn281 2.020 . S
C278 O279 1.244 . S
C278 O302 1.257 . S
O279 C278 1.244 . S
O280 Zn272 2.019 . S
O280 C300 1.257 . S
Zn281 N277 2.020 . S
Zn281 O288 1.975 . S
Zn281 N297 2.119 . S
Zn281 O302 2.019 . S
N282 Zn272 2.119 . S
N282 C284 1.334 . S
N282 C285 1.328 . S
C283 C284 1.391 . S
C283 N286 1.329 . S
C283 H304 0.930 . S
C284 N282 1.334 . S
C284 C283 1.391 . S
C284 H291 0.930 . S
C285 N282 1.328 . S
C285 C287 1.392 . S
C285 H292 0.930 . S
N286 C283 1.329 . S
N286 C287 1.331 . S
C287 C285 1.392 . S
C287 N286 1.331 . S
O288 Zn281 1.975 . S
O288 C289 1.252 . S
C289 O288 1.252 . S
C289 O290 1.252 . S
O290 Zn272 1.975 . S
O290 C289 1.252 . S
H291 C284 0.930 . S
H292 C285 0.930 . S
C293 C294 1.392 . S
C293 N297 1.328 . S
C293 H299 0.930 . S
C294 C293 1.392 . S
C294 N298 1.331 . S
C295 C296 1.391 . S
C295 N298 1.329 . S
C295 H305 0.930 . S
C296 C295 1.391 . S
C296 N297 1.334 . S
C296 H303 0.930 . S
N297 Zn281 2.119 . S
N297 C293 1.328 . S
N297 C296 1.334 . S
N298 C294 1.331 . S
N298 C295 1.329 . S
H299 C293 0.930 . S
C300 O280 1.257 . S
C300 O301 1.244 . S
O301 C300 1.244 . S
O302 C278 1.257 . S
O302 Zn281 2.019 . S
H303 C296 0.930 . S
H304 C283 0.930 . S
H305 C295 0.930 . S
Zn306 N310 2.020 . S
Zn306 O314 2.019 . S
Zn306 N316 2.119 . S
Zn306 O324 1.975 . S
C307 N308 1.334 . S
C307 N311 1.336 . S
N308 C307 1.334 . S
N308 C309 1.334 . S
C309 N308 1.334 . S
C309 N310 1.336 . S
N310 Zn306 2.020 . S
N310 C309 1.336 . S
N310 N311 1.354 . S
N311 C307 1.336 . S
N311 N310 1.354 . S
N311 Zn315 2.020 . S
C312 O313 1.244 . S
C312 O336 1.257 . S
O313 C312 1.244 . S
O314 Zn306 2.019 . S
O314 C334 1.257 . S
Zn315 N311 2.020 . S
Zn315 O322 1.975 . S
Zn315 N331 2.119 . S
Zn315 O336 2.019 . S
N316 Zn306 2.119 . S
N316 C318 1.334 . S
N316 C319 1.328 . S
C317 C318 1.391 . S
C317 N320 1.329 . S
C317 H338 0.930 . S
C318 N316 1.334 . S
C318 C317 1.391 . S
C318 H325 0.930 . S
C319 N316 1.328 . S
C319 C321 1.392 . S
C319 H326 0.930 . S
N320 C317 1.329 . S
N320 C321 1.331 . S
C321 C319 1.392 . S
C321 N320 1.331 . S
O322 Zn315 1.975 . S
O322 C323 1.252 . S
C323 O322 1.252 . S
C323 O324 1.252 . S
O324 Zn306 1.975 . S
O324 C323 1.252 . S
H325 C318 0.930 . S
H326 C319 0.930 . S
C327 C328 1.392 . S
C327 N331 1.328 . S
C327 H333 0.930 . S
C328 C327 1.392 . S
C328 N332 1.331 . S
C329 C330 1.391 . S
C329 N332 1.329 . S
C329 H339 0.930 . S
C330 C329 1.391 . S
C330 N331 1.334 . S
C330 H337 0.930 . S
N331 Zn315 2.119 . S
N331 C327 1.328 . S
N331 C330 1.334 . S
N332 C328 1.331 . S
N332 C329 1.329 . S
H333 C327 0.930 . S
C334 O314 1.257 . S
C334 O335 1.244 . S
O335 C334 1.244 . S
O336 C312 1.257 . S
O336 Zn315 2.019 . S
H337 C330 0.930 . S
H338 C317 0.930 . S
H339 C329 0.930 . S
Zn340 N344 2.020 . S
Zn340 O348 2.019 . S
Zn340 N350 2.119 . S
Zn340 O358 1.975 . S
C341 N342 1.334 . S
C341 N345 1.336 . S
N342 C341 1.334 . S
N342 C343 1.334 . S
C343 N342 1.334 . S
C343 N344 1.336 . S
N344 Zn340 2.020 . S
N344 C343 1.336 . S
N344 N345 1.354 . S
N345 C341 1.336 . S
N345 N344 1.354 . S
N345 Zn349 2.020 . S
C346 O347 1.244 . S
C346 O370 1.257 . S
O347 C346 1.244 . S
O348 Zn340 2.019 . S
O348 C368 1.257 . S
Zn349 N345 2.020 . S
Zn349 O356 1.975 . S
Zn349 N365 2.119 . S
Zn349 O370 2.019 . S
N350 Zn340 2.119 . S
N350 C352 1.334 . S
N350 C353 1.328 . S
C351 C352 1.391 . S
C351 N354 1.329 . S
C351 H372 0.930 . S
C352 N350 1.334 . S
C352 C351 1.391 . S
C352 H359 0.930 . S
C353 N350 1.328 . S
C353 C355 1.392 . S
C353 H360 0.930 . S
N354 C351 1.329 . S
N354 C355 1.331 . S
C355 C353 1.392 . S
C355 N354 1.331 . S
O356 Zn349 1.975 . S
O356 C357 1.252 . S
C357 O356 1.252 . S
C357 O358 1.252 . S
O358 Zn340 1.975 . S
O358 C357 1.252 . S
H359 C352 0.930 . S
H360 C353 0.930 . S
C361 C362 1.392 . S
C361 N365 1.328 . S
C361 H367 0.930 . S
C362 C361 1.392 . S
C362 N366 1.331 . S
C363 C364 1.391 . S
C363 N366 1.329 . S
C363 H373 0.930 . S
C364 C363 1.391 . S
C364 N365 1.334 . S
C364 H371 0.930 . S
N365 Zn349 2.119 . S
N365 C361 1.328 . S
N365 C364 1.334 . S
N366 C362 1.331 . S
N366 C363 1.329 . S
H367 C361 0.930 . S
C368 O348 1.257 . S
C368 O369 1.244 . S
O369 C368 1.244 . S
O370 C346 1.257 . S
O370 Zn349 2.019 . S
H371 C364 0.930 . S
H372 C351 0.930 . S
H373 C363 0.930 . S
Zn374 N378 2.020 . S
Zn374 O382 2.019 . S
Zn374 N384 2.119 . S
Zn374 O392 1.975 . S
C375 N376 1.334 . S
C375 N379 1.336 . S
N376 C375 1.334 . S
N376 C377 1.334 . S
C377 N376 1.334 . S
C377 N378 1.336 . S
N378 Zn374 2.020 . S
N378 C377 1.336 . S
N378 N379 1.354 . S
N379 C375 1.336 . S
N379 N378 1.354 . S
N379 Zn383 2.020 . S
C380 O381 1.244 . S
C380 O404 1.257 . S
O381 C380 1.244 . S
O382 Zn374 2.019 . S
O382 C402 1.257 . S
Zn383 N379 2.020 . S
Zn383 O390 1.975 . S
Zn383 N399 2.119 . S
Zn383 O404 2.019 . S
N384 Zn374 2.119 . S
N384 C386 1.334 . S
N384 C387 1.328 . S
C385 C386 1.391 . S
C385 N388 1.329 . S
C385 H406 0.930 . S
C386 N384 1.334 . S
C386 C385 1.391 . S
C386 H393 0.930 . S
C387 N384 1.328 . S
C387 C389 1.392 . S
C387 H394 0.930 . S
N388 C385 1.329 . S
N388 C389 1.331 . S
C389 C387 1.392 . S
C389 N388 1.331 . S
O390 Zn383 1.975 . S
O390 C391 1.252 . S
C391 O390 1.252 . S
C391 O392 1.252 . S
O392 Zn374 1.975 . S
O392 C391 1.252 . S
H393 C386 0.930 . S
H394 C387 0.930 . S
C395 C396 1.392 . S
C395 N399 1.328 . S
C395 H401 0.930 . S
C396 C395 1.392 . S
C396 N400 1.331 . S
C397 C398 1.391 . S
C397 N400 1.329 . S
C397 H407 0.930 . S
C398 C397 1.391 . S
C398 N399 1.334 . S
C398 H405 0.930 . S
N399 Zn383 2.119 . S
N399 C395 1.328 . S
N399 C398 1.334 . S
N400 C396 1.331 . S
N400 C397 1.329 . S
H401 C395 0.930 . S
C402 O382 1.257 . S
C402 O403 1.244 . S
O403 C402 1.244 . S
O404 C380 1.257 . S
O404 Zn383 2.019 . S
H405 C398 0.930 . S
H406 C385 0.930 . S
H407 C397 0.930 . S
Zn408 N412 2.020 . S
Zn408 O416 2.019 . S
Zn408 N418 2.119 . S
Zn408 O426 1.975 . S
C409 N410 1.334 . S
C409 N413 1.336 . S
N410 C409 1.334 . S
N410 C411 1.334 . S
C411 N410 1.334 . S
C411 N412 1.336 . S
N412 Zn408 2.020 . S
N412 C411 1.336 . S
N412 N413 1.354 . S
N413 C409 1.336 . S
N413 N412 1.354 . S
N413 Zn417 2.020 . S
C414 O415 1.244 . S
C414 O438 1.257 . S
O415 C414 1.244 . S
O416 Zn408 2.019 . S
O416 C436 1.257 . S
Zn417 N413 2.020 . S
Zn417 O424 1.975 . S
Zn417 N433 2.119 . S
Zn417 O438 2.019 . S
N418 Zn408 2.119 . S
N418 C420 1.334 . S
N418 C421 1.328 . S
C419 C420 1.391 . S
C419 N422 1.329 . S
C419 H440 0.930 . S
C420 N418 1.334 . S
C420 C419 1.391 . S
C420 H427 0.930 . S
C421 N418 1.328 . S
C421 C423 1.392 . S
C421 H428 0.930 . S
N422 C419 1.329 . S
N422 C423 1.331 . S
C423 C421 1.392 . S
C423 N422 1.331 . S
O424 Zn417 1.975 . S
O424 C425 1.252 . S
C425 O424 1.252 . S
C425 O426 1.252 . S
O426 Zn408 1.975 . S
O426 C425 1.252 . S
H427 C420 0.930 . S
H428 C421 0.930 . S
C429 C430 1.392 . S
C429 N433 1.328 . S
C429 H435 0.930 . S
C430 C429 1.392 . S
C430 N434 1.331 . S
C431 C432 1.391 . S
C431 N434 1.329 . S
C431 H441 0.930 . S
C432 C431 1.391 . S
C432 N433 1.334 . S
C432 H439 0.930 . S
N433 Zn417 2.119 . S
N433 C429 1.328 . S
N433 C432 1.334 . S
N434 C430 1.331 . S
N434 C431 1.329 . S
H435 C429 0.930 . S
C436 O416 1.257 . S
C436 O437 1.244 . S
O437 C436 1.244 . S
O438 C414 1.257 . S
O438 Zn417 2.019 . S
H439 C432 0.930 . S
H440 C419 0.930 . S
H441 C431 0.930 . S
Zn442 N446 2.020 . S
Zn442 O450 2.019 . S
Zn442 N452 2.119 . S
Zn442 O460 1.975 . S
C443 N444 1.334 . S
C443 N447 1.336 . S
N444 C443 1.334 . S
N444 C445 1.334 . S
C445 N444 1.334 . S
C445 N446 1.336 . S
N446 Zn442 2.020 . S
N446 C445 1.336 . S
N446 N447 1.354 . S
N447 C443 1.336 . S
N447 N446 1.354 . S
N447 Zn451 2.020 . S
C448 O449 1.244 . S
C448 O472 1.257 . S
O449 C448 1.244 . S
O450 Zn442 2.019 . S
O450 C470 1.257 . S
Zn451 N447 2.020 . S
Zn451 O458 1.975 . S
Zn451 N467 2.119 . S
Zn451 O472 2.019 . S
N452 Zn442 2.119 . S
N452 C454 1.334 . S
N452 C455 1.328 . S
C453 C454 1.391 . S
C453 N456 1.329 . S
C453 H474 0.930 . S
C454 N452 1.334 . S
C454 C453 1.391 . S
C454 H461 0.930 . S
C455 N452 1.328 . S
C455 C457 1.392 . S
C455 H462 0.930 . S
N456 C453 1.329 . S
N456 C457 1.331 . S
C457 C455 1.392 . S
C457 N456 1.331 . S
O458 Zn451 1.975 . S
O458 C459 1.252 . S
C459 O458 1.252 . S
C459 O460 1.252 . S
O460 Zn442 1.975 . S
O460 C459 1.252 . S
H461 C454 0.930 . S
H462 C455 0.930 . S
C463 C464 1.392 . S
C463 N467 1.328 . S
C463 H469 0.930 . S
C464 C463 1.392 . S
C464 N468 1.331 . S
C465 C466 1.391 . S
C465 N468 1.329 . S
C465 H475 0.930 . S
C466 C465 1.391 . S
C466 N467 1.334 . S
C466 H473 0.930 . S
N467 Zn451 2.119 . S
N467 C463 1.328 . S
N467 C466 1.334 . S
N468 C464 1.331 . S
N468 C465 1.329 . S
H469 C463 0.930 . S
C470 O450 1.257 . S
C470 O471 1.244 . S
O471 C470 1.244 . S
O472 C448 1.257 . S
O472 Zn451 2.019 . S
H473 C466 0.930 . S
H474 C453 0.930 . S
H475 C465 0.930 . S
Zn476 N480 2.020 . S
Zn476 O484 2.019 . S
Zn476 N486 2.119 . S
Zn476 O494 1.975 . S
C477 N478 1.334 . S
C477 N481 1.336 . S
N478 C477 1.334 . S
N478 C479 1.334 . S
C479 N478 1.334 . S
C479 N480 1.336 . S
N480 Zn476 2.020 . S
N480 C479 1.336 . S
N480 N481 1.354 . S
N481 C477 1.336 . S
N481 N480 1.354 . S
N481 Zn485 2.020 . S
C482 O483 1.244 . S
C482 O506 1.257 . S
O483 C482 1.244 . S
O484 Zn476 2.019 . S
O484 C504 1.257 . S
Zn485 N481 2.020 . S
Zn485 O492 1.975 . S
Zn485 N501 2.119 . S
Zn485 O506 2.019 . S
N486 Zn476 2.119 . S
N486 C488 1.334 . S
N486 C489 1.328 . S
C487 C488 1.391 . S
C487 N490 1.329 . S
C487 H508 0.930 . S
C488 N486 1.334 . S
C488 C487 1.391 . S
C488 H495 0.930 . S
C489 N486 1.328 . S
C489 C491 1.392 . S
C489 H496 0.930 . S
N490 C487 1.329 . S
N490 C491 1.331 . S
C491 C489 1.392 . S
C491 N490 1.331 . S
O492 Zn485 1.975 . S
O492 C493 1.252 . S
C493 O492 1.252 . S
C493 O494 1.252 . S
O494 Zn476 1.975 . S
O494 C493 1.252 . S
H495 C488 0.930 . S
H496 C489 0.930 . S
C497 C498 1.392 . S
C497 N501 1.328 . S
C497 H503 0.930 . S
C498 C497 1.392 . S
C498 N502 1.331 . S
C499 C500 1.391 . S
C499 N502 1.329 . S
C499 H509 0.930 . S
C500 C499 1.391 . S
C500 N501 1.334 . S
C500 H507 0.930 . S
N501 Zn485 2.119 . S
N501 C497 1.328 . S
N501 C500 1.334 . S
N502 C498 1.331 . S
N502 C499 1.329 . S
H503 C497 0.930 . S
C504 O484 1.257 . S
C504 O505 1.244 . S
O505 C504 1.244 . S
O506 C482 1.257 . S
O506 Zn485 2.019 . S
H507 C500 0.930 . S
H508 C487 0.930 . S
H509 C499 0.930 . S
Zn510 N514 2.020 . S
Zn510 O518 2.019 . S
Zn510 N520 2.119 . S
Zn510 O528 1.975 . S
C511 N512 1.334 . S
C511 N515 1.336 . S
N512 C511 1.334 . S
N512 C513 1.334 . S
C513 N512 1.334 . S
C513 N514 1.336 . S
N514 Zn510 2.020 . S
N514 C513 1.336 . S
N514 N515 1.354 . S
N515 C511 1.336 . S
N515 N514 1.354 . S
N515 Zn519 2.020 . S
C516 O517 1.244 . S
C516 O540 1.257 . S
O517 C516 1.244 . S
O518 Zn510 2.019 . S
O518 C538 1.257 . S
Zn519 N515 2.020 . S
Zn519 O526 1.975 . S
Zn519 N535 2.119 . S
Zn519 O540 2.019 . S
N520 Zn510 2.119 . S
N520 C522 1.334 . S
N520 C523 1.328 . S
C521 C522 1.391 . S
C521 N524 1.329 . S
C521 H542 0.930 . S
C522 N520 1.334 . S
C522 C521 1.391 . S
C522 H529 0.930 . S
C523 N520 1.328 . S
C523 C525 1.392 . S
C523 H530 0.930 . S
N524 C521 1.329 . S
N524 C525 1.331 . S
C525 C523 1.392 . S
C525 N524 1.331 . S
O526 Zn519 1.975 . S
O526 C527 1.252 . S
C527 O526 1.252 . S
C527 O528 1.252 . S
O528 Zn510 1.975 . S
O528 C527 1.252 . S
H529 C522 0.930 . S
H530 C523 0.930 . S
C531 C532 1.392 . S
C531 N535 1.328 . S
C531 H537 0.930 . S
C532 C531 1.392 . S
C532 N536 1.331 . S
C533 C534 1.391 . S
C533 N536 1.329 . S
C533 H543 0.930 . S
C534 C533 1.391 . S
C534 N535 1.334 . S
C534 H541 0.930 . S
N535 Zn519 2.119 . S
N535 C531 1.328 . S
N535 C534 1.334 . S
N536 C532 1.331 . S
N536 C533 1.329 . S
H537 C531 0.930 . S
C538 O518 1.257 . S
C538 O539 1.244 . S
O539 C538 1.244 . S
O540 C516 1.257 . S
O540 Zn519 2.019 . S
H541 C534 0.930 . S
H542 C521 0.930 . S
H543 C533 0.930 . S
C544 C545 1.387 . S
C544 H548 0.950 . S
C544 C553 1.390 1_554 S
C545 C544 1.387 . S
C545 C547 1.387 . S
H546 C553 0.950 . S
C547 C545 1.387 . S
C547 C549 1.390 1_554 S
C547 H551 0.950 . S
H548 C544 0.950 . S
C549 C547 1.390 1_556 S
C549 C550 1.387 . S
C549 H552 0.950 . S
C550 C549 1.387 . S
C550 C553 1.387 . S
H551 C547 0.950 . S
H552 C549 0.950 . S
C553 C544 1.390 1_556 S
C553 H546 0.950 . S
C553 C550 1.387 . S
C554 C555 1.387 . S
C554 H558 0.950 . S
C554 C563 1.390 1_554 S
C555 C554 1.387 . S
C555 C557 1.387 . S
H556 C563 0.950 . S
C557 C555 1.387 . S
C557 C559 1.390 1_554 S
C557 H561 0.950 . S
H558 C554 0.950 . S
C559 C557 1.390 1_556 S
C559 C560 1.387 . S
C559 H562 0.950 . S
C560 C559 1.387 . S
C560 C563 1.387 . S
H561 C557 0.950 . S
H562 C559 0.950 . S
C563 C554 1.390 1_556 S
C563 H556 0.950 . S
C563 C560 1.387 . S
C564 C565 1.387 . S
C564 H568 0.950 . S
C564 C573 1.390 1_556 S
C565 C564 1.387 . S
C565 C567 1.387 . S
H566 C573 0.950 . S
C567 C565 1.387 . S
C567 C569 1.390 1_556 S
C567 H571 0.950 . S
H568 C564 0.950 . S
C569 C567 1.390 1_554 S
C569 C570 1.387 . S
C569 H572 0.950 . S
C570 C569 1.387 . S
C570 C573 1.387 . S
H571 C567 0.950 . S
H572 C569 0.950 . S
C573 C564 1.390 1_554 S
C573 H566 0.950 . S
C573 C570 1.387 . S
C574 C575 1.387 . S
C574 H578 0.950 . S
C574 C583 1.390 1_556 S
C575 C574 1.387 . S
C575 C577 1.387 . S
H576 C583 0.950 . S
C577 C575 1.387 . S
C577 C579 1.390 1_556 S
C577 H581 0.950 . S
H578 C574 0.950 . S
C579 C577 1.390 1_554 S
C579 C580 1.387 . S
C579 H582 0.950 . S
C580 C579 1.387 . S
C580 C583 1.387 . S
H581 C577 0.950 . S
H582 C579 0.950 . S
C583 C574 1.390 1_554 S
C583 H576 0.950 . S
C583 C580 1.387 . S
C584 C585 1.387 . S
C584 H588 0.950 . S
C584 C593 1.390 . S
C585 C584 1.387 . S
C585 C587 1.387 . S
H586 C593 0.950 . S
C587 C585 1.387 . S
C587 C589 1.390 . S
C587 H591 0.950 . S
H588 C584 0.950 . S
C589 C587 1.390 . S
C589 C590 1.387 . S
C589 H592 0.950 . S
C590 C589 1.387 . S
C590 C593 1.387 . S
H591 C587 0.950 . S
H592 C589 0.950 . S
C593 C584 1.390 . S
C593 H586 0.950 . S
C593 C590 1.387 . S
C594 C595 1.387 . S
C594 H598 0.950 . S
C594 C603 1.390 . S
C595 C594 1.387 . S
C595 C597 1.387 . S
H596 C603 0.950 . S
C597 C595 1.387 . S
C597 C599 1.390 . S
C597 H601 0.950 . S
H598 C594 0.950 . S
C599 C597 1.390 . S
C599 C600 1.387 . S
C599 H602 0.950 . S
C600 C599 1.387 . S
C600 C603 1.387 . S
H601 C597 0.950 . S
H602 C599 0.950 . S
C603 C594 1.390 . S
C603 H596 0.950 . S
C603 C600 1.387 . S
C604 C605 1.387 . S
C604 H608 0.950 . S
C604 C613 1.390 . S
C605 C604 1.387 . S
C605 C607 1.387 . S
H606 C613 0.950 . S
C607 C605 1.387 . S
C607 C609 1.390 . S
C607 H611 0.950 . S
H608 C604 0.950 . S
C609 C607 1.390 . S
C609 C610 1.387 . S
C609 H612 0.950 . S
C610 C609 1.387 . S
C610 C613 1.387 . S
H611 C607 0.950 . S
H612 C609 0.950 . S
C613 C604 1.390 . S
C613 H606 0.950 . S
C613 C610 1.387 . S
C614 C615 1.387 . S
C614 H618 0.950 . S
C614 C623 1.390 . S
C615 C614 1.387 . S
C615 C617 1.387 . S
H616 C623 0.950 . S
C617 C615 1.387 . S
C617 C619 1.390 . S
C617 H621 0.950 . S
H618 C614 0.950 . S
C619 C617 1.390 . S
C619 C620 1.387 . S
C619 H622 0.950 . S
C620 C619 1.387 . S
C620 C623 1.387 . S
H621 C617 0.950 . S
H622 C619 0.950 . S
C623 C614 1.390 . S
C623 H616 0.950 . S
C623 C620 1.387 . S
C624 C625 1.390 . S
C624 H628 0.959 . S
C624 C633 1.379 1_565 S
C625 C624 1.390 . S
C625 C627 1.387 1_565 S
H626 C633 0.950 . S
C627 C625 1.387 1_545 S
C627 C629 1.390 . S
C627 H631 0.950 . S
H628 C624 0.959 . S
C629 C627 1.390 . S
C629 C630 1.387 . S
C629 H632 0.950 . S
C630 C629 1.387 . S
C630 C633 1.387 . S
H631 C627 0.950 . S
H632 C629 0.950 . S
C633 C624 1.379 1_545 S
C633 H626 0.950 . S
C633 C630 1.387 . S
C634 C635 1.387 . S
C634 H638 0.950 . S
C634 C643 1.390 1_455 S
C635 C634 1.387 . S
C635 C637 1.387 1_455 S
H636 C643 0.950 . S
C637 C635 1.387 1_655 S
C637 C639 1.390 . S
C637 H641 0.950 . S
H638 C634 0.950 . S
C639 C637 1.390 . S
C639 C640 1.387 . S
C639 H642 0.950 . S
C640 C639 1.387 . S
C640 C643 1.387 . S
H641 C637 0.950 . S
H642 C639 0.950 . S
C643 C634 1.390 1_655 S
C643 H636 0.950 . S
C643 C640 1.387 . S
C644 C645 1.387 . S
C644 H648 0.950 . S
C644 C653 1.390 . S
C645 C644 1.387 . S
C645 C647 1.387 . S
H646 C653 0.950 1_545 S
C647 C645 1.387 . S
C647 C649 1.390 . S
C647 H651 0.950 . S
H648 C644 0.950 . S
C649 C647 1.390 . S
C649 C650 1.387 1_565 S
C649 H652 0.950 . S
C650 C649 1.387 1_545 S
C650 C653 1.387 1_545 S
H651 C647 0.950 . S
H652 C649 0.950 . S
C653 C644 1.390 . S
C653 H646 0.950 1_565 S
C653 C650 1.387 1_565 S
C654 C655 1.387 . S
C654 H658 0.950 . S
C654 C663 1.390 . S
C655 C654 1.387 . S
C655 C657 1.387 . S
H656 C663 0.950 . S
C657 C655 1.387 . S
C657 C659 1.390 1_455 S
C657 H661 0.950 . S
H658 C654 0.950 . S
C659 C657 1.390 1_655 S
C659 C660 1.387 . S
C659 H662 0.950 . S
C660 C659 1.387 . S
C660 C663 1.387 1_655 S
H661 C657 0.950 . S
H662 C659 0.950 . S
C663 C654 1.390 . S
C663 H656 0.950 . S
C663 C660 1.387 1_455 S
C664 C665 1.387 1_565 S
C664 H668 0.950 1_565 S
C664 C673 1.390 . S
C665 C664 1.387 1_545 S
C665 C667 1.387 1_545 S
H666 C673 0.950 . S
C667 C665 1.387 1_565 S
C667 C669 1.390 . S
C667 H671 0.950 . S
H668 C664 0.950 1_545 S
C669 C667 1.390 . S
C669 C670 1.387 . S
C669 H672 0.950 . S
C670 C669 1.387 . S
C670 C673 1.387 . S
H671 C667 0.950 . S
H672 C669 0.950 . S
C673 C664 1.390 . S
C673 H666 0.950 . S
C673 C670 1.387 . S
C674 C675 1.387 . S
C674 H678 0.950 . S
C674 C683 1.390 . S
C675 C674 1.387 . S
C675 C677 1.387 . S
H676 C683 0.950 1_655 S
C677 C675 1.387 . S
C677 C679 1.390 . S
C677 H681 0.950 . S
H678 C674 0.950 . S
C679 C677 1.390 . S
C679 C680 1.387 1_455 S
C679 H682 0.945 1_455 S
C680 C679 1.387 1_655 S
C680 C683 1.387 1_655 S
H681 C677 0.950 . S
H682 C679 0.945 1_655 S
C683 C674 1.390 . S
C683 H676 0.950 1_455 S
C683 C680 1.387 1_455 S
C684 C685 1.387 1_545 S
C684 H688 0.950 . S
C684 C693 1.390 . S
C685 C684 1.387 1_565 S
C685 C687 1.387 1_565 S
H686 C693 0.950 . S
C687 C685 1.387 1_545 S
C687 C689 1.390 . S
C687 H691 0.950 1_545 S
H688 C684 0.950 . S
C689 C687 1.390 . S
C689 C690 1.387 . S
C689 H692 0.950 . S
C690 C689 1.387 . S
C690 C693 1.387 . S
H691 C687 0.950 1_565 S
H692 C689 0.950 . S
C693 C684 1.390 . S
C693 H686 0.950 . S
C693 C690 1.387 . S
C694 C695 1.387 1_655 S
C694 H698 0.949 . S
C694 C703 1.390 . S
C695 C694 1.387 1_455 S
C695 C697 1.387 1_455 S
H696 C703 0.950 . S
C697 C695 1.387 1_655 S
C697 C699 1.390 . S
C697 H701 0.950 1_655 S
H698 C694 0.949 . S
C699 C697 1.390 . S
C699 C700 1.387 . S
C699 H702 0.950 . S
C700 C699 1.387 . S
C700 C703 1.387 . S
H701 C697 0.950 1_455 S
H702 C699 0.950 . S
C703 C694 1.390 . S
C703 H696 0.950 . S
C703 C700 1.387 . S
C704 C705 1.387 . S
C704 H708 0.950 . S
C704 C713 1.390 . S
C705 C704 1.387 . S
C705 C707 1.387 . S
H706 C713 0.950 . S
C707 C705 1.387 . S
C707 C709 1.390 . S
C707 H711 0.950 . S
H708 C704 0.950 . S
C709 C707 1.390 . S
C709 C710 1.387 . S
C709 H712 0.950 . S
C710 C709 1.387 . S
C710 C713 1.387 . S
H711 C707 0.950 . S
H712 C709 0.950 . S
C713 C704 1.390 . S
C713 H706 0.950 . S
C713 C710 1.387 . S
C714 C715 1.387 . S
C714 H718 0.950 . S
C714 C723 1.390 . S
C715 C714 1.387 . S
C715 C717 1.387 . S
H716 C723 0.950 . S
C717 C715 1.387 . S
C717 C719 1.390 . S
C717 H721 0.950 . S
H718 C714 0.950 . S
C719 C717 1.390 . S
C719 C720 1.387 . S
C719 H722 0.950 . S
C720 C719 1.387 . S
C720 C723 1.387 . S
H721 C717 0.950 . S
H722 C719 0.950 . S
C723 C714 1.390 . S
C723 H716 0.950 . S
C723 C720 1.387 . S
C724 C725 1.387 . S
C724 H728 0.950 . S
C724 C733 1.390 . S
C725 C724 1.387 . S
C725 C727 1.387 . S
H726 C733 0.950 . S
C727 C725 1.387 . S
C727 C729 1.390 . S
C727 H731 0.950 . S
H728 C724 0.950 . S
C729 C727 1.390 . S
C729 C730 1.387 . S
C729 H732 0.950 . S
C730 C729 1.387 . S
C730 C733 1.387 . S
H731 C727 0.950 . S
H732 C729 0.950 . S
C733 C724 1.390 . S
C733 H726 0.950 . S
C733 C730 1.387 . S
C734 C735 1.387 . S
C734 H738 0.950 . S
C734 C743 1.390 . S
C735 C734 1.387 . S
C735 C737 1.387 . S
H736 C743 0.950 . S
C737 C735 1.387 . S
C737 C739 1.390 . S
C737 H741 0.950 . S
H738 C734 0.950 . S
C739 C737 1.390 . S
C739 C740 1.387 . S
C739 H742 0.950 . S
C740 C739 1.387 . S
C740 C743 1.387 . S
H741 C737 0.950 . S
H742 C739 0.950 . S
C743 C734 1.390 . S
C743 H736 0.950 . S
C743 C740 1.387 . S
C744 C745 1.387 . S
C744 H748 0.950 . S
C744 C753 1.390 . S
C745 C744 1.387 . S
C745 C747 1.387 . S
H746 C753 0.950 . S
C747 C745 1.387 . S
C747 C749 1.390 . S
C747 H751 0.950 . S
H748 C744 0.950 . S
C749 C747 1.390 . S
C749 C750 1.387 . S
C749 H752 0.950 . S
C750 C749 1.387 . S
C750 C753 1.387 . S
H751 C747 0.950 . S
H752 C749 0.950 . S
C753 C744 1.390 . S
C753 H746 0.950 . S
C753 C750 1.387 . S
C754 C755 1.387 . S
C754 H758 0.950 . S
C754 C763 1.390 . S
C755 C754 1.387 . S
C755 C757 1.387 . S
H756 C763 0.950 . S
C757 C755 1.387 . S
C757 C759 1.390 . S
C757 H761 0.950 . S
H758 C754 0.950 . S
C759 C757 1.390 . S
C759 C760 1.387 . S
C759 H762 0.950 . S
C760 C759 1.387 . S
C760 C763 1.387 . S
H761 C757 0.950 . S
H762 C759 0.950 . S
C763 C754 1.390 . S
C763 H756 0.950 . S
C763 C760 1.387 . S
C764 C765 1.387 . S
C764 H768 0.950 . S
C764 C773 1.390 . S
C765 C764 1.387 . S
C765 C767 1.387 . S
H766 C773 0.950 . S
C767 C765 1.387 . S
C767 C769 1.390 . S
C767 H771 0.950 . S
H768 C764 0.950 . S
C769 C767 1.390 . S
C769 C770 1.387 . S
C769 H772 0.950 . S
C770 C769 1.387 . S
C770 C773 1.387 . S
H771 C767 0.950 . S
H772 C769 0.950 . S
C773 C764 1.390 . S
C773 H766 0.950 . S
C773 C770 1.387 . S
C774 C775 1.387 . S
C774 H778 0.950 . S
C774 C783 1.390 . S
C775 C774 1.387 . S
C775 C777 1.387 . S
H776 C783 0.950 . S
C777 C775 1.387 . S
C777 C779 1.390 . S
C777 H781 0.950 . S
H778 C774 0.950 . S
C779 C777 1.390 . S
C779 C780 1.387 . S
C779 H782 0.950 . S
C780 C779 1.387 . S
C780 C783 1.387 . S
H781 C777 0.950 . S
H782 C779 0.950 . S
C783 C774 1.390 . S
C783 H776 0.950 . S
C783 C780 1.387 . S
C784 C785 1.387 . S
C784 H788 0.950 . S
C784 C793 1.390 . S
C785 C784 1.387 . S
C785 C787 1.387 . S
H786 C793 0.950 . S
C787 C785 1.387 . S
C787 C789 1.390 . S
C787 H791 0.950 . S
H788 C784 0.950 . S
C789 C787 1.390 . S
C789 C790 1.387 . S
C789 H792 0.950 . S
C790 C789 1.387 . S
C790 C793 1.387 . S
H791 C787 0.950 . S
H792 C789 0.950 . S
C793 C784 1.390 . S
C793 H786 0.950 . S
C793 C790 1.387 . S
C794 C795 1.387 . S
C794 H798 0.950 . S
C794 C803 1.390 . S
C795 C794 1.387 . S
C795 C797 1.387 . S
H796 C803 0.950 . S
C797 C795 1.387 . S
C797 C799 1.390 . S
C797 H801 0.950 . S
H798 C794 0.950 . S
C799 C797 1.390 . S
C799 C800 1.387 . S
C799 H802 0.950 . S
C800 C799 1.387 . S
C800 C803 1.387 . S
H801 C797 0.950 . S
H802 C799 0.950 . S
C803 C794 1.390 . S
C803 H796 0.950 . S
C803 C800 1.387 . S
C804 C805 1.387 . S
C804 H808 0.950 . S
C804 C813 1.390 . S
C805 C804 1.387 . S
C805 C807 1.387 . S
H806 C813 0.950 . S
C807 C805 1.387 . S
C807 C809 1.390 . S
C807 H811 0.950 . S
H808 C804 0.950 . S
C809 C807 1.390 . S
C809 C810 1.387 . S
C809 H812 0.950 . S
C810 C809 1.387 . S
C810 C813 1.387 . S
H811 C807 0.950 . S
H812 C809 0.950 . S
C813 C804 1.390 . S
C813 H806 0.950 . S
C813 C810 1.387 . S
C814 C815 1.387 . S
C814 H818 0.950 . S
C814 C823 1.390 . S
C815 C814 1.387 . S
C815 C817 1.387 . S
H816 C823 0.950 . S
C817 C815 1.387 . S
C817 C819 1.390 . S
C817 H821 0.950 . S
H818 C814 0.950 . S
C819 C817 1.390 . S
C819 C820 1.387 . S
C819 H822 0.950 . S
C820 C819 1.387 . S
C820 C823 1.387 . S
H821 C817 0.950 . S
H822 C819 0.950 . S
C823 C814 1.390 . S
C823 H816 0.950 . S
C823 C820 1.387 . S
C824 C825 1.387 . S
C824 H828 0.950 . S
C824 C833 1.390 . S
C825 C824 1.387 . S
C825 C827 1.387 . S
H826 C833 0.950 . S
C827 C825 1.387 . S
C827 C829 1.390 . S
C827 H831 0.950 . S
H828 C824 0.950 . S
C829 C827 1.390 . S
C829 C830 1.387 . S
C829 H832 0.950 . S
C830 C829 1.387 . S
C830 C833 1.387 . S
H831 C827 0.950 . S
H832 C829 0.950 . S
C833 C824 1.390 . S
C833 H826 0.950 . S
C833 C830 1.387 . S
C834 C835 1.387 . S
C834 H838 0.950 . S
C834 C843 1.390 . S
C835 C834 1.387 . S
C835 C837 1.387 . S
H836 C843 0.950 . S
C837 C835 1.387 . S
C837 C839 1.390 . S
C837 H841 0.950 . S
H838 C834 0.950 . S
C839 C837 1.390 . S
C839 C840 1.387 . S
C839 H842 0.950 . S
C840 C839 1.387 . S
C840 C843 1.387 . S
H841 C837 0.950 . S
H842 C839 0.950 . S
C843 C834 1.390 . S
C843 H836 0.950 . S
C843 C840 1.387 . S
C844 C845 1.387 . S
C844 H848 0.950 . S
C844 C853 1.390 . S
C845 C844 1.387 . S
C845 C847 1.387 . S
H846 C853 0.950 . S
C847 C845 1.387 . S
C847 C849 1.390 . S
C847 H851 0.950 . S
H848 C844 0.950 . S
C849 C847 1.390 . S
C849 C850 1.387 . S
C849 H852 0.950 . S
C850 C849 1.387 . S
C850 C853 1.387 . S
H851 C847 0.950 . S
H852 C849 0.950 . S
C853 C844 1.390 . S
C853 H846 0.950 . S
C853 C850 1.387 . S
C854 C855 1.387 . S
C854 H858 0.950 . S
C854 C863 1.390 . S
C855 C854 1.387 . S
C855 C857 1.387 . S
H856 C863 0.950 . S
C857 C855 1.387 . S
C857 C859 1.390 . S
C857 H861 0.950 . S
H858 C854 0.950 . S
C859 C857 1.390 . S
C859 C860 1.387 . S
C859 H862 0.950 . S
C860 C859 1.387 . S
C860 C863 1.387 . S
H861 C857 0.950 . S
H862 C859 0.950 . S
C863 C854 1.390 . S
C863 H856 0.950 . S
C863 C860 1.387 . S
C864 C865 1.387 . S
C864 H868 0.950 . S
C864 C873 1.390 . S
C865 C864 1.387 . S
C865 C867 1.387 . S
H866 C873 0.950 . S
C867 C865 1.387 . S
C867 C869 1.390 . S
C867 H871 0.950 . S
H868 C864 0.950 . S
C869 C867 1.390 . S
C869 C870 1.387 . S
C869 H872 0.950 . S
C870 C869 1.387 . S
C870 C873 1.387 . S
H871 C867 0.950 . S
H872 C869 0.950 . S
C873 C864 1.390 . S
C873 H866 0.950 . S
C873 C870 1.387 . S
C874 C875 1.387 . S
C874 H878 0.950 . S
C874 C883 1.390 . S
C875 C874 1.387 . S
C875 C877 1.387 . S
H876 C883 0.950 . S
C877 C875 1.387 . S
C877 C879 1.390 . S
C877 H881 0.950 . S
H878 C874 0.950 . S
C879 C877 1.390 . S
C879 C880 1.387 . S
C879 H882 0.950 . S
C880 C879 1.387 . S
C880 C883 1.387 . S
H881 C877 0.950 . S
H882 C879 0.950 . S
C883 C874 1.390 . S
C883 H876 0.950 . S
C883 C880 1.387 . S
C884 C885 1.387 . S
C884 H888 0.950 . S
C884 C893 1.390 . S
C885 C884 1.387 . S
C885 C887 1.387 . S
H886 C893 0.950 . S
C887 C885 1.387 . S
C887 C889 1.390 . S
C887 H891 0.950 . S
H888 C884 0.950 . S
C889 C887 1.390 . S
C889 C890 1.387 . S
C889 H892 0.950 . S
C890 C889 1.387 . S
C890 C893 1.387 . S
H891 C887 0.950 . S
H892 C889 0.950 . S
C893 C884 1.390 . S
C893 H886 0.950 . S
C893 C890 1.387 . S
C894 C895 1.387 . S
C894 H898 0.950 . S
C894 C903 1.390 . S
C895 C894 1.387 . S
C895 C897 1.387 . S
H896 C903 0.950 . S
C897 C895 1.387 . S
C897 C899 1.390 . S
C897 H901 0.950 . S
H898 C894 0.950 . S
C899 C897 1.390 . S
C899 C900 1.387 . S
C899 H902 0.950 . S
C900 C899 1.387 . S
C900 C903 1.387 . S
H901 C897 0.950 . S
H902 C899 0.950 . S
C903 C894 1.390 . S
C903 H896 0.950 . S
C903 C900 1.387 . S
C904 C905 1.387 . S
C904 H908 0.950 . S
C904 C913 1.390 . S
C905 C904 1.387 . S
C905 C907 1.387 . S
H906 C913 0.950 . S
C907 C905 1.387 . S
C907 C909 1.390 . S
C907 H911 0.950 . S
H908 C904 0.950 . S
C909 C907 1.390 . S
C909 C910 1.387 . S
C909 H912 0.950 . S
C910 C909 1.387 . S
C910 C913 1.387 . S
H911 C907 0.950 . S
H912 C909 0.950 . S
C913 C904 1.390 . S
C913 H906 0.950 . S
C913 C910 1.387 . S
C914 C915 1.387 . S
C914 H918 0.950 . S
C914 C923 1.390 . S
C915 C914 1.387 . S
C915 C917 1.387 . S
H916 C923 0.950 . S
C917 C915 1.387 . S
C917 C919 1.390 . S
C917 H921 0.950 . S
H918 C914 0.950 . S
C919 C917 1.390 . S
C919 C920 1.387 . S
C919 H922 0.950 . S
C920 C919 1.387 . S
C920 C923 1.387 . S
H921 C917 0.950 . S
H922 C919 0.950 . S
C923 C914 1.390 . S
C923 H916 0.950 . S
C923 C920 1.387 . S
C924 C925 1.387 . S
C924 H928 0.950 . S
C924 C933 1.390 . S
C925 C924 1.387 . S
C925 C927 1.387 . S
H926 C933 0.950 . S
C927 C925 1.387 . S
C927 C929 1.390 . S
C927 H931 0.950 . S
H928 C924 0.950 . S
C929 C927 1.390 . S
C929 C930 1.387 . S
C929 H932 0.950 . S
C930 C929 1.387 . S
C930 C933 1.387 . S
H931 C927 0.950 . S
H932 C929 0.950 . S
C933 C924 1.390 . S
C933 H926 0.950 . S
C933 C930 1.387 . S
C934 C935 1.387 . S
C934 H938 0.950 . S
C934 C943 1.390 . S
C935 C934 1.387 . S
C935 C937 1.387 . S
H936 C943 0.950 . S
C937 C935 1.387 . S
C937 C939 1.390 . S
C937 H941 0.950 . S
H938 C934 0.950 . S
C939 C937 1.390 . S
C939 C940 1.387 . S
C939 H942 0.950 . S
C940 C939 1.387 . S
C940 C943 1.387 . S
H941 C937 0.950 . S
H942 C939 0.950 . S
C943 C934 1.390 . S
C943 H936 0.950 . S
C943 C940 1.387 . S
C944 C945 1.387 . S
C944 H948 0.950 . S
C944 C953 1.390 . S
C945 C944 1.387 . S
C945 C947 1.387 . S
H946 C953 0.950 . S
C947 C945 1.387 . S
C947 C949 1.390 . S
C947 H951 0.950 . S
H948 C944 0.950 . S
C949 C947 1.390 . S
C949 C950 1.387 . S
C949 H952 0.950 . S
C950 C949 1.387 . S
C950 C953 1.387 . S
H951 C947 0.950 . S
H952 C949 0.950 . S
C953 C944 1.390 . S
C953 H946 0.950 . S
C953 C950 1.387 . S
C954 C955 1.387 . S
C954 H958 0.950 . S
C954 C963 1.390 . S
C955 C954 1.387 . S
C955 C957 1.387 . S
H956 C963 0.950 . S
C957 C955 1.387 . S
C957 C959 1.390 . S
C957 H961 0.950 . S
H958 C954 0.950 . S
C959 C957 1.390 . S
C959 C960 1.387 . S
C959 H962 0.950 . S
C960 C959 1.387 . S
C960 C963 1.387 . S
H961 C957 0.950 . S
H962 C959 0.950 . S
C963 C954 1.390 . S
C963 H956 0.950 . S
C963 C960 1.387 . S
C964 C965 1.387 . S
C964 H968 0.950 . S
C964 C973 1.390 . S
C965 C964 1.387 . S
C965 C967 1.387 . S
H966 C973 0.950 . S
C967 C965 1.387 . S
C967 C969 1.390 . S
C967 H971 0.950 . S
H968 C964 0.950 . S
C969 C967 1.390 . S
C969 C970 1.387 . S
C969 H972 0.950 . S
C970 C969 1.387 . S
C970 C973 1.387 . S
H971 C967 0.950 . S
H972 C969 0.950 . S
C973 C964 1.390 . S
C973 H966 0.950 . S
C973 C970 1.387 . S
C974 C975 1.387 . S
C974 H978 0.950 . S
C974 C983 1.390 . S
C975 C974 1.387 . S
C975 C977 1.387 . S
H976 C983 0.950 . S
C977 C975 1.387 . S
C977 C979 1.390 . S
C977 H981 0.950 . S
H978 C974 0.950 . S
C979 C977 1.390 . S
C979 C980 1.387 . S
C979 H982 0.950 . S
C980 C979 1.387 . S
C980 C983 1.387 . S
H981 C977 0.950 . S
H982 C979 0.950 . S
C983 C974 1.390 . S
C983 H976 0.950 . S
C983 C980 1.387 . S
C984 C985 1.387 . S
C984 H988 0.950 . S
C984 C993 1.390 . S
C985 C984 1.387 . S
C985 C987 1.387 . S
H986 C993 0.950 . S
C987 C985 1.387 . S
C987 C989 1.390 . S
C987 H991 0.950 . S
H988 C984 0.950 . S
C989 C987 1.390 . S
C989 C990 1.387 . S
C989 H992 0.950 . S
C990 C989 1.387 . S
C990 C993 1.387 . S
H991 C987 0.950 . S
H992 C989 0.950 . S
C993 C984 1.390 . S
C993 H986 0.950 . S
C993 C990 1.387 . S
C994 C995 1.387 . S
C994 H998 0.950 . S
C994 C1003 1.390 . S
C995 C994 1.387 . S
C995 C997 1.387 . S
H996 C1003 0.950 . S
C997 C995 1.387 . S
C997 C999 1.390 . S
C997 H1001 0.950 . S
H998 C994 0.950 . S
C999 C997 1.390 . S
C999 C1000 1.387 . S
C999 H1002 0.950 . S
C1000 C999 1.387 . S
C1000 C1003 1.387 . S
H1001 C997 0.950 . S
H1002 C999 0.950 . S
C1003 C994 1.390 . S
C1003 H996 0.950 . S
C1003 C1000 1.387 . S
C1004 C1005 1.387 . S
C1004 H1008 0.950 . S
C1004 C1013 1.390 . S
C1005 C1004 1.387 . S
C1005 C1007 1.387 . S
H1006 C1013 0.950 . S
C1007 C1005 1.387 . S
C1007 C1009 1.390 . S
C1007 H1011 0.950 . S
H1008 C1004 0.950 . S
C1009 C1007 1.390 . S
C1009 C1010 1.387 . S
C1009 H1012 0.950 . S
C1010 C1009 1.387 . S
C1010 C1013 1.387 . S
H1011 C1007 0.950 . S
H1012 C1009 0.950 . S
C1013 C1004 1.390 . S
C1013 H1006 0.950 . S
C1013 C1010 1.387 . S
C1014 C1015 1.387 . S
C1014 H1018 0.950 . S
C1014 C1023 1.390 . S
C1015 C1014 1.387 . S
C1015 C1017 1.387 . S
H1016 C1023 0.950 . S
C1017 C1015 1.387 . S
C1017 C1019 1.390 . S
C1017 H1021 0.950 . S
H1018 C1014 0.950 . S
C1019 C1017 1.390 . S
C1019 C1020 1.387 . S
C1019 H1022 0.950 . S
C1020 C1019 1.387 . S
C1020 C1023 1.387 . S
H1021 C1017 0.950 . S
H1022 C1019 0.950 . S
C1023 C1014 1.390 . S
C1023 H1016 0.950 . S
C1023 C1020 1.387 . S
C1024 C1025 1.387 . S
C1024 H1028 0.950 . S
C1024 C1033 1.390 1_455 S
C1025 C1024 1.387 . S
C1025 C1027 1.387 . S
H1026 C1033 0.950 . S
C1027 C1025 1.387 . S
C1027 C1029 1.390 1_455 S
C1027 H1031 0.950 . S
H1028 C1024 0.950 . S
C1029 C1027 1.390 1_655 S
C1029 C1030 1.387 . S
C1029 H1032 0.950 . S
C1030 C1029 1.387 . S
C1030 C1033 1.387 . S
H1031 C1027 0.950 . S
H1032 C1029 0.950 . S
C1033 C1024 1.390 1_655 S
C1033 H1026 0.950 . S
C1033 C1030 1.387 . S
C1034 C1035 1.387 . S
C1034 H1038 0.950 . S
C1034 C1043 1.390 1_565 S
C1035 C1034 1.387 . S
C1035 C1037 1.387 . S
H1036 C1043 0.950 . S
C1037 C1035 1.387 . S
C1037 C1039 1.390 1_565 S
C1037 H1041 0.950 . S
H1038 C1034 0.950 . S
C1039 C1037 1.390 1_545 S
C1039 C1040 1.387 . S
C1039 H1042 0.950 . S
C1040 C1039 1.387 . S
C1040 C1043 1.387 . S
H1041 C1037 0.950 . S
H1042 C1039 0.950 . S
C1043 C1034 1.390 1_545 S
C1043 H1036 0.950 . S
C1043 C1040 1.387 . S
C1044 C1045 1.387 . S
C1044 H1048 0.950 . S
C1044 C1053 1.390 1_455 S
C1045 C1044 1.387 . S
C1045 C1047 1.387 . S
H1046 C1053 0.950 . S
C1047 C1045 1.387 . S
C1047 C1049 1.390 1_455 S
C1047 H1051 0.950 . S
H1048 C1044 0.950 . S
C1049 C1047 1.390 1_655 S
C1049 C1050 1.387 . S
C1049 H1052 0.950 . S
C1050 C1049 1.387 . S
C1050 C1053 1.387 . S
H1051 C1047 0.950 . S
H1052 C1049 0.950 . S
C1053 C1044 1.390 1_655 S
C1053 H1046 0.950 . S
C1053 C1050 1.387 . S
C1054 C1055 1.387 . S
C1054 H1058 0.950 . S
C1054 C1063 1.390 1_565 S
C1055 C1054 1.387 . S
C1055 C1057 1.387 . S
H1056 C1063 0.950 . S
C1057 C1055 1.387 . S
C1057 C1059 1.390 1_565 S
C1057 H1061 0.950 . S
H1058 C1054 0.950 . S
C1059 C1057 1.390 1_545 S
C1059 C1060 1.387 . S
C1059 H1062 0.950 . S
C1060 C1059 1.387 . S
C1060 C1063 1.387 . S
H1061 C1057 0.950 . S
H1062 C1059 0.950 . S
C1063 C1054 1.390 1_545 S
C1063 H1056 0.950 . S
C1063 C1060 1.387 . S
C1064 C1065 1.387 . S
C1064 H1068 0.950 . S
C1064 C1073 1.390 1_455 S
C1065 C1064 1.387 . S
C1065 C1067 1.387 . S
H1066 C1073 0.950 . S
C1067 C1065 1.387 . S
C1067 C1069 1.390 1_455 S
C1067 H1071 0.950 . S
H1068 C1064 0.950 . S
C1069 C1067 1.390 1_655 S
C1069 C1070 1.387 . S
C1069 H1072 0.950 . S
C1070 C1069 1.387 . S
C1070 C1073 1.387 . S
H1071 C1067 0.950 . S
H1072 C1069 0.950 . S
C1073 C1064 1.390 1_655 S
C1073 H1066 0.950 . S
C1073 C1070 1.387 . S
C1074 C1075 1.387 . S
C1074 H1078 0.950 . S
C1074 C1083 1.390 1_545 S
C1075 C1074 1.387 . S
C1075 C1077 1.387 . S
H1076 C1083 0.950 . S
C1077 C1075 1.387 . S
C1077 C1079 1.390 1_545 S
C1077 H1081 0.950 . S
H1078 C1074 0.950 . S
C1079 C1077 1.390 1_565 S
C1079 C1080 1.387 . S
C1079 H1082 0.950 . S
C1080 C1079 1.387 . S
C1080 C1083 1.387 . S
H1081 C1077 0.950 . S
H1082 C1079 0.950 . S
C1083 C1074 1.390 1_565 S
C1083 H1076 0.950 . S
C1083 C1080 1.387 . S
C1084 C1085 1.387 . S
C1084 H1088 0.950 . S
C1084 C1093 1.390 1_455 S
C1085 C1084 1.387 . S
C1085 C1087 1.387 . S
H1086 C1093 0.950 . S
C1087 C1085 1.387 . S
C1087 C1089 1.390 1_455 S
C1087 H1091 0.950 . S
H1088 C1084 0.950 . S
C1089 C1087 1.390 1_655 S
C1089 C1090 1.387 . S
C1089 H1092 0.950 . S
C1090 C1089 1.387 . S
C1090 C1093 1.387 . S
H1091 C1087 0.950 . S
H1092 C1089 0.950 . S
C1093 C1084 1.390 1_655 S
C1093 H1086 0.950 . S
C1093 C1090 1.387 . S
C1094 C1095 1.387 . S
C1094 H1098 0.950 . S
C1094 C1103 1.390 1_565 S
C1095 C1094 1.387 . S
C1095 C1097 1.387 . S
H1096 C1103 0.950 . S
C1097 C1095 1.387 . S
C1097 C1099 1.390 1_565 S
C1097 H1101 0.950 . S
H1098 C1094 0.950 . S
C1099 C1097 1.390 1_545 S
C1099 C1100 1.387 . S
C1099 H1102 0.950 . S
C1100 C1099 1.387 . S
C1100 C1103 1.387 . S
H1101 C1097 0.950 . S
H1102 C1099 0.950 . S
C1103 C1094 1.390 1_545 S
C1103 H1096 0.950 . S
C1103 C1100 1.387 . S
C545 C22 1.844 . S
C550 C362 1.842 . S
C555 C56 1.842 . S
C560 C396 1.844 . S
C565 C287 1.846 . S
C570 C83 1.844 . S
C575 C328 1.846 . S
C580 C117 1.847 . S
C585 C158 1.844 . S
C590 C498 1.846 . S
C595 C525 1.844 . S
C600 C185 1.842 . S
C605 C423 1.843 . S
C610 C226 1.844 . S
C615 C260 1.843 . S
C620 C464 1.845 . S
C625 C103 1.168 . S
C630 C28 1.135 . S
C635 C3 1.167 . S
C640 C62 1.135 . S
C645 C74 1.140 . S
C650 C37 1.167 . S
C655 C108 1.140 . S
C660 C69 1.169 . S
C665 C171 1.167 . S
C670 C164 1.140 . S
C675 C176 1.140 . S
C680 C207 1.167 . S
C685 C241 1.170 . S
C690 C232 1.135 . S
C695 C139 1.168 . S
C700 C266 1.140 . S
C705 C289 1.799 . S
C710 C380 1.805 1_565 S
C715 C300 1.805 1_455 S
C720 C323 1.799 . S
C725 C357 1.799 . S
C730 C312 1.805 1_545 S
C735 C346 1.804 1_655 S
C740 C391 1.798 . S
C745 C425 1.799 . S
C750 C448 1.805 1_545 S
C755 C482 1.804 1_655 S
C760 C459 1.798 . S
C765 C538 1.804 1_565 S
C770 C493 1.798 . S
C775 C436 1.804 1_455 S
C780 C527 1.798 . S
C785 C470 1.140 . S
C790 C409 1.166 . S
C795 C504 1.135 . S
C800 C445 1.169 . S
C805 C479 1.167 . S
C810 C516 1.140 . S
C815 C511 1.170 . S
C820 C414 1.135 . S
C825 C402 1.140 . S
C830 C273 1.167 . S
C835 C309 1.167 . S
C840 C278 1.140 . S
C845 C343 1.167 . S
C850 C334 1.136 . S
C855 C377 1.168 . S
C860 C368 1.140 . S
C865 C187 1.798 . S
C870 C142 1.804 . S
C875 C198 1.804 . S
C880 C221 1.798 . S
C885 C255 1.798 . S
C890 C210 1.804 . S
C895 C244 1.805 . S
C900 C153 1.799 . S
C905 C119 1.799 . S
C910 C6 1.805 . S
C915 C40 1.804 . S
C920 C17 1.798 . S
C925 C96 1.804 . S
C930 C51 1.798 . S
C935 C130 1.804 . S
C940 C85 1.798 . S
C945 C192 1.551 . S
C950 C15 1.549 . S
C955 C219 1.548 . S
C960 C49 1.551 . S
C965 C253 1.548 . S
C970 C90 1.549 . S
C975 C151 1.549 . S
C980 C124 1.551 . S
C985 C457 1.548 . S
C990 C294 1.548 . S
C995 C321 1.550 . S
C1000 C491 1.550 . S
C1005 C355 1.548 . S
C1010 C532 1.549 . S
C1015 C389 1.548 . S
C1020 C430 1.551 . S
C1025 C1 1.993 . S
C1030 C71 1.993 . S
C1035 C105 1.992 . S
C1040 C35 1.992 . S
C1045 C137 1.992 . S
C1050 C205 1.992 . S
C1055 C239 1.993 . S
C1060 C173 1.993 . S
C1065 C341 1.992 . S
C1070 C275 1.992 . S
C1075 C375 1.993 . S
C1080 C307 1.993 . S
C1085 C477 1.992 . S
C1090 C411 1.992 . S
C1095 C443 1.992 . S
C1100 C513 1.992 . S
