# Generated by pormake.
# Topology vbm, (6)-cn, num edge types: 1
# Building blocks:
#     Node 0, Type 0, BuildingBlock: BETFAJ_clean_sbu_0, # of connection points: 6
#     Node 1, Type 0, BuildingBlock: BETFAJ_clean_sbu_0, # of connection points: 6
#     Node 2, Type 0, BuildingBlock: BETFAJ_clean_sbu_0, # of connection points: 6
#     Node 3, Type 0, BuildingBlock: BETFAJ_clean_sbu_0, # of connection points: 6
#     Node 4, Type 0, BuildingBlock: BETFAJ_clean_sbu_0, # of connection points: 6
#     Node 5, Type 0, BuildingBlock: BETFAJ_clean_sbu_0, # of connection points: 6
#     Node 6, Type 0, BuildingBlock: BETFAJ_clean_sbu_0, # of connection points: 6
#     Node 7, Type 0, BuildingBlock: BETFAJ_clean_sbu_0, # of connection points: 6
#     Node 8, Type 0, BuildingBlock: BETFAJ_clean_sbu_0, # of connection points: 6
#     Node 9, Type 0, BuildingBlock: BETFAJ_clean_sbu_0, # of connection points: 6
#     Node 10, Type 0, BuildingBlock: BETFAJ_clean_sbu_0, # of connection points: 6
#     Node 11, Type 0, BuildingBlock: BETFAJ_clean_sbu_0, # of connection points: 6
#     Node 12, Type 0, BuildingBlock: BETFAJ_clean_sbu_0, # of connection points: 6
#     Node 13, Type 0, BuildingBlock: BETFAJ_clean_sbu_0, # of connection points: 6
#     Node 14, Type 0, BuildingBlock: BETFAJ_clean_sbu_0, # of connection points: 6
#     Node 15, Type 0, BuildingBlock: BETFAJ_clean_sbu_0, # of connection points: 6
#     Edge 16, Type (0, 0), BuildingBlock: ZUJKAS_clean_linker_0, # of connection points: 2
#     Edge 17, Type (0, 0), BuildingBlock: ZUJKAS_clean_linker_0, # of connection points: 2
#     Edge 18, Type (0, 0), BuildingBlock: ZUJKAS_clean_linker_0, # of connection points: 2
#     Edge 19, Type (0, 0), BuildingBlock: ZUJKAS_clean_linker_0, # of connection points: 2
#     Edge 20, Type (0, 0), BuildingBlock: ZUJKAS_clean_linker_0, # of connection points: 2
#     Edge 21, Type (0, 0), BuildingBlock: ZUJKAS_clean_linker_0, # of connection points: 2
#     Edge 22, Type (0, 0), BuildingBlock: ZUJKAS_clean_linker_0, # of connection points: 2
#     Edge 23, Type (0, 0), BuildingBlock: ZUJKAS_clean_linker_0, # of connection points: 2
#     Edge 24, Type (0, 0), BuildingBlock: ZUJKAS_clean_linker_0, # of connection points: 2
#     Edge 25, Type (0, 0), BuildingBlock: ZUJKAS_clean_linker_0, # of connection points: 2
#     Edge 26, Type (0, 0), BuildingBlock: ZUJKAS_clean_linker_0, # of connection points: 2
#     Edge 27, Type (0, 0), BuildingBlock: ZUJKAS_clean_linker_0, # of connection points: 2
#     Edge 28, Type (0, 0), BuildingBlock: ZUJKAS_clean_linker_0, # of connection points: 2
#     Edge 29, Type (0, 0), BuildingBlock: ZUJKAS_clean_linker_0, # of connection points: 2
#     Edge 30, Type (0, 0), BuildingBlock: ZUJKAS_clean_linker_0, # of connection points: 2
#     Edge 31, Type (0, 0), BuildingBlock: ZUJKAS_clean_linker_0, # of connection points: 2
#     Edge 32, Type (0, 0), BuildingBlock: ZUJKAS_clean_linker_0, # of connection points: 2
#     Edge 33, Type (0, 0), BuildingBlock: ZUJKAS_clean_linker_0, # of connection points: 2
#     Edge 34, Type (0, 0), BuildingBlock: ZUJKAS_clean_linker_0, # of connection points: 2
#     Edge 35, Type (0, 0), BuildingBlock: ZUJKAS_clean_linker_0, # of connection points: 2
#     Edge 36, Type (0, 0), BuildingBlock: ZUJKAS_clean_linker_0, # of connection points: 2
#     Edge 37, Type (0, 0), BuildingBlock: ZUJKAS_clean_linker_0, # of connection points: 2
#     Edge 38, Type (0, 0), BuildingBlock: ZUJKAS_clean_linker_0, # of connection points: 2
#     Edge 39, Type (0, 0), BuildingBlock: ZUJKAS_clean_linker_0, # of connection points: 2
#     Edge 40, Type (0, 0), BuildingBlock: ZUJKAS_clean_linker_0, # of connection points: 2
#     Edge 41, Type (0, 0), BuildingBlock: ZUJKAS_clean_linker_0, # of connection points: 2
#     Edge 42, Type (0, 0), BuildingBlock: ZUJKAS_clean_linker_0, # of connection points: 2
#     Edge 43, Type (0, 0), BuildingBlock: ZUJKAS_clean_linker_0, # of connection points: 2
#     Edge 44, Type (0, 0), BuildingBlock: ZUJKAS_clean_linker_0, # of connection points: 2
#     Edge 45, Type (0, 0), BuildingBlock: ZUJKAS_clean_linker_0, # of connection points: 2
#     Edge 46, Type (0, 0), BuildingBlock: ZUJKAS_clean_linker_0, # of connection points: 2
#     Edge 47, Type (0, 0), BuildingBlock: ZUJKAS_clean_linker_0, # of connection points: 2
#     Edge 48, Type (0, 0), BuildingBlock: ZUJKAS_clean_linker_0, # of connection points: 2
#     Edge 49, Type (0, 0), BuildingBlock: ZUJKAS_clean_linker_0, # of connection points: 2
#     Edge 50, Type (0, 0), BuildingBlock: ZUJKAS_clean_linker_0, # of connection points: 2
#     Edge 51, Type (0, 0), BuildingBlock: ZUJKAS_clean_linker_0, # of connection points: 2
#     Edge 52, Type (0, 0), BuildingBlock: ZUJKAS_clean_linker_0, # of connection points: 2
#     Edge 53, Type (0, 0), BuildingBlock: ZUJKAS_clean_linker_0, # of connection points: 2
#     Edge 54, Type (0, 0), BuildingBlock: ZUJKAS_clean_linker_0, # of connection points: 2
#     Edge 55, Type (0, 0), BuildingBlock: ZUJKAS_clean_linker_0, # of connection points: 2
#     Edge 56, Type (0, 0), BuildingBlock: ZUJKAS_clean_linker_0, # of connection points: 2
#     Edge 57, Type (0, 0), BuildingBlock: ZUJKAS_clean_linker_0, # of connection points: 2
#     Edge 58, Type (0, 0), BuildingBlock: ZUJKAS_clean_linker_0, # of connection points: 2
#     Edge 59, Type (0, 0), BuildingBlock: ZUJKAS_clean_linker_0, # of connection points: 2
#     Edge 60, Type (0, 0), BuildingBlock: ZUJKAS_clean_linker_0, # of connection points: 2
#     Edge 61, Type (0, 0), BuildingBlock: ZUJKAS_clean_linker_0, # of connection points: 2
#     Edge 62, Type (0, 0), BuildingBlock: ZUJKAS_clean_linker_0, # of connection points: 2
#     Edge 63, Type (0, 0), BuildingBlock: ZUJKAS_clean_linker_0, # of connection points: 2
# Relax obj value: 0.073
# Max RMSD: 0.141
# Mean RMSD: 0.141
data_MOF--net-vbm--node1-BETFAJ_clean_sbu_0--edge1-ZUJKAS_clean_linker_0
_symmetry_space_group_name_H-M    P1
_symmetry_Int_Tables_number       1
_symmetry_cell_setting            triclinic
loop_
_symmetry_equiv_pos_as_xyz
'x, y, z'
_cell_length_a     72.974912
_cell_length_b     30.659069
_cell_length_c     74.353244
_cell_angle_alpha  89.954681
_cell_angle_beta   90.057896
_cell_angle_gamma 90.087933
loop_
_atom_site_label
_atom_site_type_symbol
_atom_site_fract_x
_atom_site_fract_y
_atom_site_fract_z
_atom_type_partial_charge
Sm0 Sm 0.13253 0.07705 0.13973 0.0
Sm1 Sm 0.11577 0.16692 0.13715 0.0
C2 C 0.14143 0.99552 0.14838 0.0
C3 C 0.1366 0.94879 0.14608 0.0
C4 C 0.13272 0.92347 0.16136 0.0
C5 C 0.12984 0.87845 0.15991 0.0
C6 C 0.13086 0.85747 0.14311 0.0
C7 C 0.13438 0.88304 0.12774 0.0
C8 C 0.13722 0.92817 0.1292 0.0
C9 C 0.13206 0.10997 0.1051 0.0
C10 C 0.08798 0.08802 0.13281 0.0
C11 C 0.1065 0.24885 0.12964 0.0
C12 C 0.11152 0.29542 0.13215 0.0
C13 C 0.11555 0.32106 0.11699 0.0
C14 C 0.11859 0.36598 0.11865 0.0
C15 C 0.11758 0.38656 0.13554 0.0
C16 C 0.1139 0.36067 0.15078 0.0
C17 C 0.1109 0.31564 0.14912 0.0
C18 C 0.11629 0.13123 0.17144 0.0
C19 C 0.16007 0.1587 0.14304 0.0
O20 O 0.13052 1.01971 0.1581 0.0
O21 O 0.14841 1.01651 0.13467 0.0
O22 O 0.11915 0.1134 0.11633 0.0
O23 O 0.14541 0.08731 0.11184 0.0
O24 O 0.10109 0.06355 0.13985 0.0
O25 O 0.09129 0.12811 0.12743 0.0
O26 O 0.11693 0.22513 0.11922 0.0
O27 O 0.10011 0.22713 0.14343 0.0
O28 O 0.12917 0.12996 0.16019 0.0
O29 O 0.10273 0.15389 0.16512 0.0
O30 O 0.14653 0.18165 0.13616 0.0
O31 O 0.15758 0.11792 0.14828 0.0
H32 H 0.13237 0.93839 0.17456 0.0
H33 H 0.12741 0.85987 0.17207 0.0
H34 H 0.13503 0.86815 0.11455 0.0
H35 H 0.14021 0.9467 0.11714 0.0
H36 H 0.11589 0.30651 0.10372 0.0
H37 H 0.12113 0.38481 0.10658 0.0
H38 H 0.11324 0.37525 0.16403 0.0
H39 H 0.10779 0.29688 0.16108 0.0
Sm40 Sm 0.85534 0.97193 0.14336 0.0
Sm41 Sm 0.87311 0.87718 0.1423 0.0
C42 C 0.84512 0.04991 0.15508 0.0
C43 C 0.84656 0.09712 0.15104 0.0
C44 C 0.86265 0.11565 0.14399 0.0
C45 C 0.86399 0.16093 0.14142 0.0
C46 C 0.84927 0.18865 0.14587 0.0
C47 C 0.83307 0.16965 0.15257 0.0
C48 C 0.83176 0.12449 0.15513 0.0
C49 C 0.85863 0.94675 0.1077 0.0
C50 C 0.89969 0.9581 0.13529 0.0
C51 C 0.88316 0.79413 0.13949 0.0
C52 C 0.8773 0.74866 0.13601 0.0
C53 C 0.85995 0.73318 0.14118 0.0
C54 C 0.85578 0.68853 0.14003 0.0
C55 C 0.86888 0.65841 0.13371 0.0
C56 C 0.88599 0.67453 0.12797 0.0
C57 C 0.89012 0.71905 0.12912 0.0
C58 C 0.87392 0.92161 0.17476 0.0
C59 C 0.82858 0.88659 0.14399 0.0
O60 O 0.86005 0.03002 0.16049 0.0
O61 O 0.83495 0.02599 0.14437 0.0
O62 O 0.86333 0.92471 0.12132 0.0
O63 O 0.85177 0.98367 0.11291 0.0
O64 O 0.88682 0.98361 0.14223 0.0
O65 O 0.89676 0.91672 0.13145 0.0
O66 O 0.88403 0.82159 0.126 0.0
O67 O 0.87753 0.81213 0.15443 0.0
O68 O 0.86063 0.91994 0.16394 0.0
O69 O 0.8875 0.89858 0.16874 0.0
O70 O 0.84272 0.86327 0.13866 0.0
O71 O 0.83014 0.92804 0.14882 0.0
H72 H 0.87429 0.09524 0.14074 0.0
H73 H 0.87673 0.17428 0.13639 0.0
H74 H 0.82134 0.18969 0.15585 0.0
H75 H 0.8192 0.11095 0.16056 0.0
H76 H 0.84981 0.75539 0.14657 0.0
H77 H 0.84236 0.67756 0.14431 0.0
H78 H 0.89654 0.65253 0.12327 0.0
H79 H 0.90365 0.73016 0.12522 0.0
Sm80 Sm 0.13585 0.98147 0.37588 0.0
Sm81 Sm 0.11928 0.88431 0.37986 0.0
C82 C 0.14438 0.05826 0.36183 0.0
C83 C 0.1419 0.10563 0.36456 0.0
C84 C 0.13884 0.13236 0.34954 0.0
C85 C 0.13692 0.17749 0.35154 0.0
C86 C 0.13806 0.19701 0.36863 0.0
C87 C 0.14102 0.17003 0.38371 0.0
C88 C 0.14287 0.12476 0.3817 0.0
C89 C 0.1323 0.96053 0.41206 0.0
C90 C 0.09231 0.96485 0.3856 0.0
C91 C 0.11132 0.80299 0.38932 0.0
C92 C 0.11613 0.75662 0.38635 0.0
C93 C 0.12015 0.73024 0.40127 0.0
C94 C 0.12335 0.68556 0.39917 0.0
C95 C 0.12253 0.66605 0.38206 0.0
C96 C 0.11884 0.69272 0.36705 0.0
C97 C 0.1157 0.73754 0.36916 0.0
C98 C 0.11795 0.92221 0.34609 0.0
C99 C 0.16357 0.89683 0.37221 0.0
O100 O 0.12985 0.03591 0.35701 0.0
O101 O 0.15501 0.03733 0.37318 0.0
O102 O 0.12831 0.93704 0.3987 0.0
O103 O 0.1387 0.99756 0.40629 0.0
O104 O 0.1042 0.98947 0.37667 0.0
O105 O 0.09657 0.92571 0.39162 0.0
O106 O 0.12321 0.82722 0.39797 0.0
O107 O 0.10283 0.82393 0.3764 0.0
O108 O 0.13087 0.92501 0.35728 0.0
O109 O 0.10534 0.89591 0.3521 0.0
O110 O 0.14966 0.87041 0.37556 0.0
O111 O 0.1619 0.93988 0.37117 0.0
H112 H 0.13809 0.11831 0.33619 0.0
H113 H 0.1349 0.1972 0.33961 0.0
H114 H 0.14174 0.18386 0.39708 0.0
H115 H 0.14511 0.10479 0.39352 0.0
H116 H 0.12042 0.74408 0.41467 0.0
H117 H 0.12591 0.66605 0.41106 0.0
H118 H 0.11834 0.67892 0.35366 0.0
H119 H 0.11267 0.75705 0.35738 0.0
Sm120 Sm 0.85806 0.07189 0.38251 0.0
Sm121 Sm 0.87505 0.16153 0.38467 0.0
C122 C 0.84898 0.99016 0.37428 0.0
C123 C 0.85384 0.94347 0.37659 0.0
C124 C 0.85786 0.91826 0.36133 0.0
C125 C 0.86071 0.87324 0.36279 0.0
C126 C 0.85953 0.85214 0.37957 0.0
C127 C 0.85587 0.8776 0.39492 0.0
C128 C 0.85306 0.92272 0.39345 0.0
C129 C 0.85829 0.10579 0.41696 0.0
C130 C 0.90266 0.08261 0.38948 0.0
C131 C 0.88444 0.24353 0.39198 0.0
C132 C 0.8794 0.29008 0.38949 0.0
C133 C 0.87527 0.31554 0.40465 0.0
C134 C 0.87222 0.36044 0.40302 0.0
C135 C 0.87332 0.38121 0.38617 0.0
C136 C 0.87711 0.35551 0.37092 0.0
C137 C 0.88012 0.31049 0.37255 0.0
C138 C 0.8746 0.12506 0.35052 0.0
C139 C 0.83077 0.15382 0.37838 0.0
O140 O 0.85968 1.01432 0.36427 0.0
O141 O 0.8423 1.01128 0.38807 0.0
O142 O 0.87135 0.10877 0.40585 0.0
O143 O 0.84492 0.08318 0.41018 0.0
O144 O 0.88947 0.058 0.38262 0.0
O145 O 0.89946 0.12294 0.39456 0.0
O146 O 0.8741 0.21978 0.40253 0.0
O147 O 0.89069 0.22181 0.37815 0.0
O148 O 0.86166 0.1241 0.36172 0.0
O149 O 0.88819 0.14776 0.35681 0.0
O150 O 0.84438 0.17699 0.38503 0.0
O151 O 0.83303 0.11255 0.37377 0.0
H152 H 0.85833 0.93326 0.34813 0.0
H153 H 0.86325 0.85477 0.35064 0.0
H154 H 0.85509 0.86261 0.40809 0.0
H155 H 0.84995 0.94113 0.40549 0.0
H156 H 0.87485 0.30085 0.41791 0.0
H157 H 0.86959 0.37912 0.4151 0.0
H158 H 0.87784 0.37024 0.3577 0.0
H159 H 0.88333 0.29189 0.36059 0.0
Sm160 Sm 0.8744 0.87568 0.88466 0.0
Sm161 Sm 0.85748 0.97238 0.88094 0.0
C162 C 0.88272 0.79429 0.8937 0.0
C163 C 0.87775 0.74796 0.89069 0.0
C164 C 0.87316 0.72176 0.90551 0.0
C165 C 0.86984 0.67709 0.90337 0.0
C166 C 0.87113 0.65741 0.88633 0.0
C167 C 0.87541 0.68388 0.87142 0.0
C168 C 0.87867 0.72866 0.87356 0.0
C169 C 0.87488 0.91336 0.85081 0.0
C170 C 0.82987 0.88734 0.87792 0.0
C171 C 0.84873 0.04922 0.86709 0.0
C172 C 0.85129 0.09663 0.86979 0.0
C173 C 0.85513 0.12306 0.85485 0.0
C174 C 0.85711 0.16821 0.85679 0.0
C175 C 0.85525 0.18807 0.87375 0.0
C176 C 0.85152 0.1614 0.88875 0.0
C177 C 0.8496 0.11612 0.88681 0.0
C178 C 0.8613 0.95093 0.91709 0.0
C179 C 0.90128 0.95678 0.88982 0.0
O180 O 0.87117 0.81836 0.9028 0.0
O181 O 0.89078 0.81555 0.88062 0.0
O182 O 0.86219 0.91608 0.86222 0.0
O183 O 0.88767 0.88744 0.85664 0.0
O184 O 0.84384 0.86137 0.88154 0.0
O185 O 0.8316 0.93024 0.87613 0.0
O186 O 0.86318 0.02697 0.86206 0.0
O187 O 0.83828 0.02814 0.87855 0.0
O188 O 0.86544 0.92797 0.90364 0.0
O189 O 0.85461 0.98774 0.91144 0.0
O190 O 0.88906 0.98106 0.8812 0.0
O191 O 0.89734 0.91749 0.89593 0.0
H192 H 0.87253 0.73571 0.91888 0.0
H193 H 0.86682 0.65773 0.9152 0.0
H194 H 0.87629 0.66994 0.85806 0.0
H195 H 0.88217 0.74796 0.86184 0.0
H196 H 0.85643 0.10875 0.84158 0.0
H197 H 0.85974 0.18767 0.8449 0.0
H198 H 0.85023 0.17549 0.90204 0.0
H199 H 0.84675 0.09644 0.89858 0.0
Sm200 Sm 0.11857 0.15519 0.88098 0.0
Sm201 Sm 0.13517 0.0581 0.87722 0.0
C202 C 0.11011 0.23622 0.89036 0.0
C203 C 0.11498 0.28275 0.88779 0.0
C204 C 0.11907 0.3083 0.90293 0.0
C205 C 0.12222 0.35312 0.90123 0.0
C206 C 0.12129 0.37364 0.88431 0.0
C207 C 0.11762 0.34778 0.86907 0.0
C208 C 0.11448 0.30283 0.87078 0.0
C209 C 0.11966 0.11987 0.84668 0.0
C210 C 0.16326 0.14269 0.87693 0.0
C211 C 0.14424 0.98149 0.86341 0.0
C212 C 0.14216 0.934 0.86613 0.0
C213 C 0.1394 0.90722 0.85109 0.0
C214 C 0.13788 0.86198 0.85305 0.0
C215 C 0.13913 0.84237 0.87013 0.0
C216 C 0.14167 0.86945 0.88525 0.0
C217 C 0.14316 0.91483 0.88327 0.0
C218 C 0.12997 0.07788 0.91329 0.0
C219 C 0.09123 0.0745 0.8849 0.0
O220 O 0.12163 0.21192 0.8994 0.0
O221 O 0.1022 0.21547 0.87704 0.0
O222 O 0.13164 0.11552 0.85875 0.0
O223 O 0.10694 0.14649 0.85205 0.0
O224 O 0.14922 0.16852 0.8803 0.0
O225 O 0.16145 0.10016 0.87395 0.0
O226 O 0.12951 1.00301 0.8586 0.0
O227 O 0.15469 1.00302 0.87472 0.0
O228 O 0.12653 0.10161 0.89987 0.0
O229 O 0.13668 0.04112 0.90766 0.0
O230 O 0.1035 0.05028 0.87635 0.0
O231 O 0.09521 0.11346 0.89128 0.0
H232 H 0.1195 0.29366 0.91619 0.0
H233 H 0.12533 0.37175 0.91322 0.0
H234 H 0.11663 0.36247 0.85585 0.0
H235 H 0.1113 0.28404 0.85885 0.0
H236 H 0.1385 0.92134 0.83776 0.0
H237 H 0.13558 0.8424 0.84114 0.0
H238 H 0.14285 0.85554 0.89859 0.0
H239 H 0.14523 0.93483 0.89511 0.0
Sm240 Sm 0.87471 0.16062 0.64226 0.0
Sm241 Sm 0.85794 0.07071 0.64457 0.0
C242 C 0.88401 0.24253 0.63471 0.0
C243 C 0.87897 0.28912 0.63694 0.0
C244 C 0.87433 0.31382 0.62169 0.0
C245 C 0.87142 0.35881 0.62299 0.0
C246 C 0.8732 0.38043 0.63959 0.0
C247 C 0.87738 0.35547 0.65497 0.0
C248 C 0.88027 0.31036 0.65366 0.0
C249 C 0.87461 0.12429 0.67641 0.0
C250 C 0.83048 0.15219 0.64863 0.0
C251 C 0.84893 0.98907 0.65297 0.0
C252 C 0.85388 0.94236 0.65103 0.0
C253 C 0.85835 0.91806 0.66644 0.0
C254 C 0.86116 0.87299 0.66537 0.0
C255 C 0.85946 0.85092 0.64886 0.0
C256 C 0.85544 0.87549 0.63334 0.0
C257 C 0.85264 0.92066 0.63441 0.0
C258 C 0.85794 0.10489 0.61012 0.0
C259 C 0.90244 0.08196 0.63749 0.0
O260 O 0.87375 0.21852 0.62419 0.0
O261 O 0.8902 0.22114 0.64869 0.0
O262 O 0.86159 0.12296 0.66528 0.0
O263 O 0.88809 0.14719 0.67004 0.0
O264 O 0.84399 0.17562 0.64194 0.0
O265 O 0.8329 0.11104 0.65333 0.0
O266 O 0.85943 1.01357 0.66306 0.0
O267 O 0.84244 1.00976 0.63896 0.0
O268 O 0.87106 0.10766 0.62119 0.0
O269 O 0.84461 0.08223 0.61693 0.0
O270 O 0.88936 0.05716 0.64443 0.0
O271 O 0.8991 0.1222 0.63236 0.0
H272 H 0.87334 0.29844 0.6086 0.0
H273 H 0.86793 0.37674 0.61091 0.0
H274 H 0.87903 0.37099 0.66795 0.0
H275 H 0.88397 0.2924 0.66567 0.0
H276 H 0.85928 0.93383 0.67945 0.0
H277 H 0.86453 0.85536 0.67756 0.0
H278 H 0.85384 0.85963 0.62042 0.0
H279 H 0.84908 0.93832 0.62228 0.0
Sm280 Sm 0.11919 0.87826 0.63637 0.0
Sm281 Sm 0.13585 0.96756 0.63821 0.0
C282 C 0.10976 0.79611 0.62941 0.0
C283 C 0.11438 0.74962 0.63278 0.0
C284 C 0.1288 0.72898 0.62357 0.0
C285 C 0.13158 0.68392 0.62523 0.0
C286 C 0.11996 0.65832 0.63609 0.0
C287 C 0.10589 0.6793 0.64569 0.0
C288 C 0.1031 0.72428 0.64399 0.0
C289 C 0.1209 0.91294 0.67081 0.0
C290 C 0.16344 0.88633 0.64071 0.0
C291 C 0.14513 0.04957 0.64576 0.0
C292 C 0.14092 0.09633 0.64245 0.0
C293 C 0.12704 0.11777 0.65212 0.0
C294 C 0.12464 0.16296 0.65054 0.0
C295 C 0.13614 0.18793 0.63933 0.0
C296 C 0.14972 0.16625 0.62933 0.0
C297 C 0.15212 0.12109 0.63092 0.0
C298 C 0.13439 0.93433 0.60363 0.0
C299 C 0.09117 0.9562 0.63281 0.0
O300 O 0.12073 0.8191 0.6192 0.0
O301 O 0.10283 0.81876 0.64265 0.0
O302 O 0.13336 0.91533 0.65913 0.0
O303 O 0.10737 0.88953 0.66493 0.0
O304 O 0.14976 0.864 0.63379 0.0
O305 O 0.16102 0.92662 0.64654 0.0
O306 O 0.13357 0.02666 0.65533 0.0
O307 O 0.15257 0.02701 0.63277 0.0
O308 O 0.12171 0.93133 0.61514 0.0
O309 O 0.14799 0.95668 0.61005 0.0
O310 O 0.10441 0.98068 0.63964 0.0
O311 O 0.09453 0.91655 0.62704 0.0
H312 H 0.13766 0.74735 0.61466 0.0
H313 H 0.14243 0.66895 0.61748 0.0
H314 H 0.09686 0.66089 0.65441 0.0
H315 H 0.09178 0.73908 0.65114 0.0
H316 H 0.11832 0.0999 0.66133 0.0
H317 H 0.11419 0.17851 0.65862 0.0
H318 H 0.15865 0.18423 0.62037 0.0
H319 H 0.16307 0.10572 0.62343 0.0
Sm320 Sm 0.6336 0.55814 0.14333 0.0
Sm321 Sm 0.61759 0.65601 0.13875 0.0
C322 C 0.6417 0.48113 0.15738 0.0
C323 C 0.63966 0.43377 0.15431 0.0
C324 C 0.63531 0.40679 0.16893 0.0
C325 C 0.63362 0.3617 0.16667 0.0
C326 C 0.63629 0.34248 0.1497 0.0
C327 C 0.64059 0.36967 0.135 0.0
C328 C 0.64221 0.41493 0.13727 0.0
C329 C 0.63006 0.57844 0.1071 0.0
C330 C 0.59002 0.57591 0.13421 0.0
C331 C 0.61037 0.73683 0.12822 0.0
C332 C 0.61517 0.78318 0.13124 0.0
C333 C 0.62058 0.80882 0.11652 0.0
C334 C 0.62388 0.85349 0.11858 0.0
C335 C 0.62176 0.87368 0.13544 0.0
C336 C 0.61668 0.84776 0.15027 0.0
C337 C 0.61344 0.80296 0.14821 0.0
C338 C 0.61668 0.62055 0.17299 0.0
C339 C 0.66173 0.64242 0.1468 0.0
O340 O 0.62674 0.50268 0.16138 0.0
O341 O 0.65287 0.50286 0.14682 0.0
O342 O 0.62623 0.6021 0.12041 0.0
O343 O 0.63632 0.54139 0.11295 0.0
O344 O 0.60191 0.55143 0.14317 0.0
O345 O 0.59442 0.61458 0.12775 0.0
O346 O 0.62272 0.7122 0.12048 0.0
O347 O 0.60102 0.71643 0.14072 0.0
O348 O 0.62914 0.6157 0.16148 0.0
O349 O 0.60456 0.64831 0.16716 0.0
O350 O 0.64804 0.66904 0.14302 0.0
O351 O 0.65982 0.59945 0.14821 0.0
H352 H 0.63335 0.42063 0.1822 0.0
H353 H 0.63055 0.34178 0.17832 0.0
H354 H 0.64254 0.35602 0.12171 0.0
H355 H 0.64547 0.43511 0.12574 0.0
H356 H 0.62187 0.79442 0.10328 0.0
H357 H 0.62754 0.87245 0.10683 0.0
H358 H 0.61516 0.86213 0.16348 0.0
H359 H 0.60933 0.78403 0.15983 0.0
Sm360 Sm 0.35579 0.48043 0.14706 0.0
Sm361 Sm 0.37316 0.38454 0.14361 0.0
C362 C 0.347 0.55766 0.16046 0.0
C363 C 0.34952 0.60521 0.15733 0.0
C364 C 0.364 0.62782 0.16567 0.0
C365 C 0.3657 0.67308 0.16383 0.0
C366 C 0.35289 0.69705 0.1537 0.0
C367 C 0.33851 0.67436 0.14521 0.0
C368 C 0.33681 0.62905 0.14705 0.0
C369 C 0.3589 0.45852 0.11097 0.0
C370 C 0.39934 0.46621 0.13686 0.0
C371 C 0.38183 0.30301 0.13523 0.0
C372 C 0.37711 0.25671 0.13888 0.0
C373 C 0.36111 0.23754 0.13184 0.0
C374 C 0.35782 0.19278 0.13394 0.0
C375 C 0.37044 0.16614 0.14312 0.0
C376 C 0.38622 0.18558 0.15049 0.0
C377 C 0.38955 0.23025 0.14832 0.0
C378 C 0.37435 0.42358 0.17715 0.0
C379 C 0.32878 0.39467 0.15121 0.0
O380 O 0.36139 0.53531 0.16567 0.0
O381 O 0.33638 0.53596 0.14934 0.0
O382 O 0.36346 0.43571 0.12436 0.0
O383 O 0.35214 0.49517 0.11665 0.0
O384 O 0.38733 0.49043 0.14575 0.0
O385 O 0.39539 0.42653 0.13125 0.0
O386 O 0.37013 0.32654 0.12602 0.0
O387 O 0.39002 0.32505 0.14802 0.0
O388 O 0.36129 0.42506 0.16608 0.0
O389 O 0.38727 0.39837 0.1711 0.0
O390 O 0.34288 0.36901 0.1478 0.0
O391 O 0.33013 0.43777 0.15226 0.0
H392 H 0.37395 0.61064 0.17384 0.0
H393 H 0.37709 0.6893 0.17037 0.0
H394 H 0.32824 0.69176 0.13752 0.0
H395 H 0.32532 0.61284 0.14067 0.0
H396 H 0.35125 0.25688 0.12443 0.0
H397 H 0.34543 0.17897 0.12827 0.0
H398 H 0.39635 0.16601 0.15743 0.0
H399 H 0.40212 0.24391 0.15368 0.0
Sm400 Sm 0.63629 0.47541 0.38178 0.0
Sm401 Sm 0.61869 0.38592 0.38451 0.0
C402 C 0.64539 0.5574 0.37381 0.0
C403 C 0.64071 0.60414 0.37665 0.0
C404 C 0.62939 0.62621 0.36432 0.0
C405 C 0.62659 0.67127 0.36572 0.0
C406 C 0.63513 0.69563 0.37942 0.0
C407 C 0.64615 0.67338 0.39198 0.0
C408 C 0.64896 0.62828 0.39057 0.0
C409 C 0.63635 0.44148 0.41624 0.0
C410 C 0.59187 0.46619 0.38929 0.0
C411 C 0.60929 0.30425 0.39242 0.0
C412 C 0.61407 0.25761 0.38944 0.0
C413 C 0.62584 0.2357 0.40141 0.0
C414 C 0.62877 0.1907 0.39986 0.0
C415 C 0.61994 0.1663 0.38636 0.0
C416 C 0.60849 0.18841 0.37414 0.0
C417 C 0.60553 0.23341 0.37571 0.0
C418 C 0.61868 0.4215 0.35025 0.0
C419 C 0.6629 0.39248 0.37708 0.0
O420 O 0.63422 0.53374 0.3641 0.0
O421 O 0.65262 0.53552 0.38714 0.0
O422 O 0.62312 0.43906 0.40529 0.0
O423 O 0.64973 0.4637 0.40931 0.0
O424 O 0.60497 0.48967 0.38169 0.0
O425 O 0.59491 0.42617 0.3949 0.0
O426 O 0.62035 0.32783 0.40233 0.0
O427 O 0.60215 0.32626 0.37906 0.0
O428 O 0.63179 0.42291 0.36128 0.0
O429 O 0.60529 0.39839 0.35668 0.0
O430 O 0.64928 0.36969 0.38394 0.0
O431 O 0.66093 0.43397 0.37263 0.0
H432 H 0.62298 0.60883 0.3533 0.0
H433 H 0.61783 0.6871 0.35594 0.0
H434 H 0.65314 0.69103 0.40257 0.0
H435 H 0.65801 0.61255 0.40013 0.0
H436 H 0.63252 0.25312 0.41227 0.0
H437 H 0.63786 0.17496 0.40937 0.0
H438 H 0.60127 0.17068 0.36371 0.0
H439 H 0.59616 0.24902 0.36643 0.0
Sm440 Sm 0.35795 0.57486 0.38426 0.0
Sm441 Sm 0.37554 0.66385 0.38678 0.0
C442 C 0.34846 0.49316 0.37626 0.0
C443 C 0.3532 0.44632 0.37889 0.0
C444 C 0.36499 0.42478 0.36686 0.0
C445 C 0.36784 0.37967 0.36815 0.0
C446 C 0.35891 0.35476 0.38144 0.0
C447 C 0.34739 0.37649 0.39368 0.0
C448 C 0.34452 0.42159 0.39238 0.0
C449 C 0.35878 0.60802 0.41887 0.0
C450 C 0.40249 0.58382 0.39099 0.0
C451 C 0.38534 0.74577 0.39388 0.0
C452 C 0.38042 0.7924 0.39097 0.0
C453 C 0.36788 0.81363 0.40235 0.0
C454 C 0.36486 0.85865 0.40085 0.0
C455 C 0.37433 0.88372 0.38798 0.0
C456 C 0.38656 0.86226 0.37635 0.0
C457 C 0.38962 0.81728 0.37788 0.0
C458 C 0.37482 0.62814 0.35253 0.0
C459 C 0.33115 0.65747 0.3809 0.0
O460 O 0.35922 0.51707 0.3662 0.0
O461 O 0.34176 0.51476 0.3899 0.0
O462 O 0.37172 0.61061 0.40764 0.0
O463 O 0.34518 0.58616 0.41216 0.0
O464 O 0.38927 0.56054 0.38349 0.0
O465 O 0.39951 0.62365 0.39684 0.0
O466 O 0.37491 0.72231 0.40445 0.0
O467 O 0.39167 0.72355 0.38022 0.0
O468 O 0.36184 0.62747 0.36368 0.0
O469 O 0.38858 0.65003 0.35893 0.0
O470 O 0.34489 0.67967 0.38787 0.0
O471 O 0.33328 0.61667 0.37558 0.0
H472 H 0.37175 0.44261 0.35617 0.0
H473 H 0.37699 0.36426 0.35863 0.0
H474 H 0.34006 0.35845 0.40393 0.0
H475 H 0.3351 0.43687 0.40168 0.0
H476 H 0.36065 0.79569 0.4127 0.0
H477 H 0.35517 0.87388 0.4099 0.0
H478 H 0.39429 0.88048 0.36643 0.0
H479 H 0.3996 0.80219 0.36909 0.0
Sm480 Sm 0.37337 0.38048 0.88849 0.0
Sm481 Sm 0.35564 0.47658 0.88363 0.0
C482 C 0.38142 0.29974 0.89872 0.0
C483 C 0.37662 0.25313 0.89569 0.0
C484 C 0.36652 0.23024 0.90874 0.0
C485 C 0.36326 0.18543 0.90696 0.0
C486 C 0.37012 0.16214 0.89212 0.0
C487 C 0.37994 0.18524 0.87888 0.0
C488 C 0.3832 0.23012 0.88066 0.0
C489 C 0.37434 0.41606 0.85427 0.0
C490 C 0.32914 0.38978 0.8794 0.0
C491 C 0.34714 0.55374 0.86983 0.0
C492 C 0.34892 0.60135 0.87295 0.0
C493 C 0.3572 0.62727 0.85967 0.0
C494 C 0.35854 0.67251 0.86176 0.0
C495 C 0.35152 0.69317 0.87718 0.0
C496 C 0.34336 0.66706 0.89058 0.0
C497 C 0.34207 0.62165 0.8885 0.0
C498 C 0.359 0.45653 0.91998 0.0
C499 C 0.39946 0.46283 0.89271 0.0
O500 O 0.36934 0.3242 0.90696 0.0
O501 O 0.39031 0.3206 0.88604 0.0
O502 O 0.36149 0.41965 0.86548 0.0
O503 O 0.38688 0.38985 0.86043 0.0
O504 O 0.34317 0.36479 0.88383 0.0
O505 O 0.33034 0.43286 0.87775 0.0
O506 O 0.3622 0.53265 0.86582 0.0
O507 O 0.33597 0.53128 0.88015 0.0
O508 O 0.36355 0.43343 0.90673 0.0
O509 O 0.35203 0.49269 0.91399 0.0
O510 O 0.38718 0.48537 0.88343 0.0
O511 O 0.3958 0.4242 0.89964 0.0
H512 H 0.36139 0.24687 0.92056 0.0
H513 H 0.35541 0.16897 0.9173 0.0
H514 H 0.38564 0.1684 0.86738 0.0
H515 H 0.39121 0.24652 0.87043 0.0
H516 H 0.36259 0.61247 0.84754 0.0
H517 H 0.36521 0.69126 0.85129 0.0
H518 H 0.33763 0.68177 0.90256 0.0
H519 H 0.33556 0.60259 0.89897 0.0
Sm520 Sm 0.61563 0.65931 0.88379 0.0
Sm521 Sm 0.63386 0.57033 0.8815 0.0
C522 C 0.60571 0.74088 0.89118 0.0
C523 C 0.61046 0.78766 0.88833 0.0
C524 C 0.61944 0.81127 0.90196 0.0
C525 C 0.6223 0.8563 0.90031 0.0
C526 C 0.61616 0.87913 0.88501 0.0
C527 C 0.60748 0.85533 0.87122 0.0
C528 C 0.60463 0.81024 0.87287 0.0
C529 C 0.61599 0.62257 0.84981 0.0
C530 C 0.66004 0.65421 0.877 0.0
C531 C 0.64354 0.48872 0.87373 0.0
C532 C 0.63866 0.44188 0.87614 0.0
C533 C 0.63013 0.41874 0.8621 0.0
C534 C 0.62724 0.37363 0.8634 0.0
C535 C 0.63294 0.35029 0.87873 0.0
C536 C 0.64117 0.37362 0.89292 0.0
C537 C 0.64403 0.41876 0.89163 0.0
C538 C 0.63335 0.60532 0.91579 0.0
C539 C 0.58935 0.57788 0.88889 0.0
O540 O 0.61645 0.71767 0.90154 0.0
O541 O 0.59917 0.71855 0.8776 0.0
O542 O 0.6291 0.62234 0.86085 0.0
O543 O 0.60229 0.6447 0.85614 0.0
O544 O 0.64617 0.67658 0.88355 0.0
O545 O 0.65836 0.6126 0.87264 0.0
O546 O 0.63311 0.51259 0.86333 0.0
O547 O 0.64982 0.51032 0.88759 0.0
O548 O 0.62026 0.60658 0.90468 0.0
O549 O 0.64699 0.58352 0.90916 0.0
O550 O 0.6026 0.55476 0.8814 0.0
O551 O 0.59211 0.61819 0.89431 0.0
H552 H 0.62384 0.79513 0.91419 0.0
H553 H 0.6288 0.87346 0.91133 0.0
H554 H 0.60276 0.87159 0.85914 0.0
H555 H 0.59752 0.79328 0.86216 0.0
H556 H 0.6261 0.43533 0.84985 0.0
H557 H 0.62109 0.35682 0.8521 0.0
H558 H 0.64554 0.35693 0.90503 0.0
H559 H 0.6508 0.43533 0.90265 0.0
Sm560 Sm 0.37397 0.65564 0.64349 0.0
Sm561 Sm 0.35765 0.55859 0.64682 0.0
C562 C 0.38211 0.73706 0.63447 0.0
C563 C 0.37791 0.7832 0.63849 0.0
C564 C 0.35989 0.79938 0.63814 0.0
C565 C 0.35656 0.84401 0.64053 0.0
C566 C 0.37115 0.87329 0.64342 0.0
C567 C 0.3891 0.85671 0.64416 0.0
C568 C 0.39242 0.81223 0.64168 0.0
C569 C 0.37493 0.61803 0.67734 0.0
C570 C 0.32974 0.64286 0.65071 0.0
C571 C 0.34905 0.48068 0.65973 0.0
C572 C 0.35112 0.43344 0.65603 0.0
C573 C 0.36842 0.41327 0.65606 0.0
C574 C 0.36994 0.36803 0.65404 0.0
C575 C 0.35421 0.34191 0.65188 0.0
C576 C 0.33696 0.36228 0.65145 0.0
C577 C 0.33544 0.4075 0.65358 0.0
C578 C 0.36125 0.58036 0.61074 0.0
C579 C 0.40112 0.57571 0.63764 0.0
O580 O 0.3695 0.71382 0.62634 0.0
O581 O 0.3913 0.71501 0.64658 0.0
O582 O 0.36224 0.61432 0.66594 0.0
O583 O 0.3873 0.64521 0.67157 0.0
O584 O 0.34359 0.66947 0.64744 0.0
O585 O 0.33152 0.59983 0.65172 0.0
O586 O 0.36378 0.50238 0.6645 0.0
O587 O 0.33808 0.50308 0.64922 0.0
O588 O 0.36521 0.60365 0.62416 0.0
O589 O 0.35489 0.54323 0.61638 0.0
O590 O 0.38929 0.55101 0.64658 0.0
O591 O 0.39669 0.61465 0.63156 0.0
H592 H 0.3484 0.77772 0.63576 0.0
H593 H 0.34255 0.85563 0.64009 0.0
H594 H 0.40069 0.87833 0.64611 0.0
H595 H 0.40644 0.80059 0.64187 0.0
H596 H 0.3808 0.43226 0.65791 0.0
H597 H 0.38345 0.35346 0.65419 0.0
H598 H 0.32456 0.34312 0.65001 0.0
H599 H 0.32193 0.42212 0.65367 0.0
Sm600 Sm 0.61775 0.3794 0.64105 0.0
Sm601 Sm 0.63511 0.46928 0.64378 0.0
C602 C 0.60849 0.2977 0.63308 0.0
C603 C 0.61334 0.25107 0.63562 0.0
C604 C 0.617 0.22526 0.62046 0.0
C605 C 0.61998 0.18035 0.62216 0.0
C606 C 0.6193 0.15993 0.63911 0.0
C607 C 0.61597 0.18598 0.65436 0.0
C608 C 0.61302 0.23103 0.65265 0.0
C609 C 0.61721 0.41586 0.67508 0.0
C610 C 0.66186 0.38665 0.64908 0.0
C611 C 0.64414 0.55096 0.65217 0.0
C612 C 0.63925 0.59765 0.64986 0.0
C613 C 0.63559 0.62306 0.66515 0.0
C614 C 0.63269 0.66806 0.66365 0.0
C615 C 0.63347 0.68896 0.6468 0.0
C616 C 0.63677 0.66329 0.63144 0.0
C617 C 0.63963 0.61818 0.63294 0.0
C618 C 0.63578 0.43475 0.60946 0.0
C619 C 0.59069 0.45924 0.63552 0.0
O620 O 0.61929 0.32151 0.62301 0.0
O621 O 0.60173 0.31923 0.64674 0.0
O622 O 0.63046 0.41691 0.66426 0.0
O623 O 0.60381 0.39293 0.66851 0.0
O624 O 0.64835 0.36338 0.64226 0.0
O625 O 0.65978 0.42828 0.65319 0.0
O626 O 0.6334 0.52672 0.6621 0.0
O627 O 0.6509 0.52994 0.63839 0.0
O628 O 0.6224 0.43246 0.6202 0.0
O629 O 0.64905 0.45715 0.61655 0.0
O630 O 0.60377 0.48359 0.64275 0.0
O631 O 0.59384 0.41881 0.63053 0.0
H632 H 0.61711 0.23971 0.60715 0.0
H633 H 0.62225 0.1614 0.61008 0.0
H634 H 0.61557 0.17153 0.66765 0.0
H635 H 0.61022 0.24994 0.66462 0.0
H636 H 0.63543 0.60822 0.67838 0.0
H637 H 0.63044 0.68669 0.67582 0.0
H638 H 0.63722 0.67809 0.61821 0.0
H639 H 0.64244 0.5996 0.62087 0.0
H640 H 0.16831 0.24315 0.13522 0.0
H641 H 0.1972 0.28111 0.13968 0.0
H642 H 0.22118 0.16395 0.16147 0.0
H643 H 0.19206 0.12505 0.15697 0.0
H644 H 0.21726 0.29254 0.17277 0.0
H645 H 0.25615 0.20301 0.12005 0.0
H646 H 0.23142 0.20255 0.12102 0.0
H647 H 0.24448 0.17041 0.1366 0.0
C648 C 0.17968 0.22514 0.14093 0.0
C649 C 0.17788 0.18086 0.14566 0.0
C650 C 0.19617 0.24709 0.14353 0.0
C651 C 0.21128 0.22528 0.15081 0.0
C652 C 0.20964 0.18116 0.15566 0.0
H653 H 0.32333 0.31131 0.16213 0.0
H654 H 0.2945 0.27175 0.16416 0.0
C655 C 0.19303 0.15904 0.1531 0.0
C656 C 0.22873 0.24916 0.15301 0.0
H657 H 0.27197 0.25734 0.13607 0.0
C658 C 0.2293 0.28478 0.16486 0.0
C659 C 0.24428 0.23896 0.14256 0.0
C660 C 0.24415 0.20187 0.12923 0.0
C661 C 0.24513 0.31048 0.1666 0.0
C662 C 0.26061 0.30071 0.15593 0.0
C663 C 0.26006 0.26477 0.14423 0.0
C664 C 0.27767 0.32685 0.15666 0.0
C665 C 0.24523 0.34742 0.17999 0.0
C666 C 0.27775 0.37136 0.15208 0.0
C667 C 0.29432 0.3944 0.15105 0.0
C668 C 0.31099 0.37293 0.15427 0.0
C669 C 0.31073 0.32873 0.15937 0.0
C670 C 0.29426 0.30601 0.16057 0.0
H671 H 0.23446 0.3431 0.19041 0.0
H672 H 0.25875 0.35023 0.18676 0.0
H673 H 0.24247 0.37851 0.17284 0.0
H674 H 0.26511 0.38787 0.14867 0.0
H675 H 0.29414 0.42833 0.14699 0.0
H676 H 0.79581 0.91652 0.15777 0.0
H677 H 0.76717 0.8748 0.16103 0.0
H678 H 0.79269 0.76344 0.13614 0.0
H679 H 0.82101 0.80408 0.13281 0.0
H680 H 0.74637 0.83141 0.13273 0.0
H681 H 0.7721 0.71506 0.18408 0.0
H682 H 0.78325 0.7665 0.17943 0.0
H683 H 0.78659 0.72075 0.1647 0.0
C684 C 0.79527 0.88322 0.15295 0.0
C685 C 0.81076 0.86364 0.14517 0.0
C686 C 0.77896 0.85943 0.15488 0.0
C687 C 0.77804 0.81579 0.14919 0.0
C688 C 0.79329 0.79671 0.14102 0.0
H689 H 0.69625 0.61113 0.13954 0.0
H690 H 0.72509 0.65288 0.14125 0.0
C691 C 0.80946 0.82027 0.13905 0.0
C692 C 0.76104 0.79004 0.15112 0.0
H693 H 0.74387 0.69672 0.16979 0.0
C694 C 0.74571 0.80227 0.14099 0.0
C695 C 0.7604 0.75174 0.16174 0.0
C696 C 0.77641 0.73782 0.17324 0.0
C697 C 0.72982 0.77654 0.14081 0.0
C698 C 0.72916 0.73813 0.1514 0.0
C699 C 0.74446 0.72608 0.16166 0.0
C700 C 0.71246 0.71089 0.15224 0.0
C701 C 0.71406 0.79007 0.12887 0.0
C702 C 0.69613 0.72909 0.1586 0.0
C703 C 0.67983 0.70569 0.15749 0.0
C704 C 0.67957 0.66331 0.15028 0.0
C705 C 0.69613 0.64376 0.14512 0.0
C706 C 0.71252 0.66757 0.14604 0.0
H707 H 0.71856 0.81282 0.11811 0.0
H708 H 0.70748 0.76126 0.12251 0.0
H709 H 0.70361 0.80707 0.13711 0.0
H710 H 0.6959 0.76199 0.1639 0.0
H711 H 0.6673 0.72128 0.1619 0.0
H712 H 0.3234 0.74143 0.38988 0.0
H713 H 0.2949 0.78089 0.38546 0.0
H714 H 0.27042 0.6667 0.36156 0.0
H715 H 0.29912 0.62627 0.36602 0.0
H716 H 0.27576 0.79675 0.35255 0.0
H717 H 0.2347 0.70284 0.40241 0.0
H718 H 0.25942 0.70105 0.40191 0.0
H719 H 0.24633 0.67142 0.38551 0.0
C720 C 0.312 0.72438 0.38371 0.0
C721 C 0.31354 0.68048 0.37836 0.0
C722 C 0.29573 0.74719 0.38115 0.0
C723 C 0.28058 0.72666 0.37329 0.0
C724 C 0.28197 0.68292 0.36784 0.0
H725 H 0.16944 0.81534 0.35956 0.0
H726 H 0.19834 0.77616 0.35776 0.0
C727 C 0.29835 0.65992 0.37037 0.0
C728 C 0.26338 0.75144 0.37107 0.0
H729 H 0.21958 0.75872 0.38662 0.0
C730 C 0.26341 0.78841 0.3599 0.0
C731 C 0.24741 0.74051 0.3808 0.0
C732 C 0.24687 0.70201 0.39345 0.0
C733 C 0.24776 0.81466 0.35809 0.0
C734 C 0.23185 0.804 0.36798 0.0
C735 C 0.23182 0.76682 0.37905 0.0
C736 C 0.21487 0.8303 0.36701 0.0
C737 C 0.24833 0.8531 0.34542 0.0
C738 C 0.21462 0.87424 0.37243 0.0
C739 C 0.19801 0.89707 0.37332 0.0
C740 C 0.18148 0.8759 0.36912 0.0
C741 C 0.18194 0.83243 0.3631 0.0
C742 C 0.19844 0.80995 0.36203 0.0
H743 H 0.25956 0.84995 0.33542 0.0
H744 H 0.23514 0.85671 0.33812 0.0
H745 H 0.25077 0.88332 0.35327 0.0
H746 H 0.22712 0.89033 0.37665 0.0
H747 H 0.19801 0.93044 0.3781 0.0
H748 H 0.7971 0.11786 0.37052 0.0
H749 H 0.76794 0.15705 0.36668 0.0
H750 H 0.79572 0.27935 0.3756 0.0
H751 H 0.82459 0.2411 0.37944 0.0
H752 H 0.75252 0.21536 0.39403 0.0
H753 H 0.76511 0.29963 0.32906 0.0
H754 H 0.77766 0.25164 0.33594 0.0
H755 H 0.78337 0.30404 0.3452 0.0
C756 C 0.79697 0.1531 0.37149 0.0
C757 C 0.81313 0.17629 0.37535 0.0
C758 C 0.78036 0.17538 0.36929 0.0
C759 C 0.77981 0.22108 0.3706 0.0
C760 C 0.79594 0.24418 0.37421 0.0
H761 H 0.69783 0.42604 0.37461 0.0
H762 H 0.72647 0.38407 0.37213 0.0
C763 C 0.81242 0.22208 0.37656 0.0
C764 C 0.76227 0.24492 0.3696 0.0
H765 H 0.73983 0.32487 0.34642 0.0
C766 C 0.7496 0.2389 0.38351 0.0
C767 C 0.75875 0.2761 0.35601 0.0
C768 C 0.77186 0.28313 0.3406 0.0
C769 C 0.73361 0.26407 0.38447 0.0
C770 C 0.73002 0.29524 0.37085 0.0
C771 C 0.74265 0.30103 0.35684 0.0
C772 C 0.71295 0.32122 0.3708 0.0
C773 C 0.72102 0.25794 0.40038 0.0
C774 C 0.69599 0.29987 0.37022 0.0
C775 C 0.67982 0.32349 0.37183 0.0
C776 C 0.68022 0.36912 0.37373 0.0
C777 C 0.69716 0.3909 0.37324 0.0
C778 C 0.71346 0.367 0.37184 0.0
H779 H 0.72824 0.2427 0.41195 0.0
H780 H 0.71516 0.28952 0.40485 0.0
H781 H 0.70956 0.23606 0.39649 0.0
H782 H 0.69527 0.26472 0.36888 0.0
H783 H 0.66695 0.30579 0.37179 0.0
H784 H 0.66468 0.7419 0.87552 0.0
H785 H 0.69312 0.78252 0.87245 0.0
H786 H 0.72332 0.66195 0.86911 0.0
H787 H 0.69459 0.62057 0.87181 0.0
H788 H 0.72148 0.78026 0.89578 0.0
H789 H 0.74473 0.73204 0.82758 0.0
H790 H 0.72171 0.72206 0.83548 0.0
H791 H 0.74014 0.68691 0.84233 0.0
C792 C 0.67733 0.72381 0.874 0.0
C793 C 0.67741 0.67792 0.87401 0.0
C794 C 0.69357 0.7472 0.8722 0.0
C795 C 0.7103 0.72534 0.87042 0.0
C796 C 0.71049 0.67947 0.87012 0.0
H797 H 0.8227 0.80028 0.87617 0.0
H798 H 0.79315 0.76444 0.87322 0.0
C799 C 0.69411 0.65587 0.87176 0.0
C800 C 0.7275 0.75096 0.87014 0.0
H801 H 0.76597 0.77199 0.84553 0.0
C802 C 0.73114 0.77875 0.88472 0.0
C803 C 0.74002 0.74896 0.85566 0.0
C804 C 0.73642 0.72121 0.83929 0.0
C805 C 0.74719 0.80383 0.88545 0.0
C806 C 0.75982 0.80138 0.87111 0.0
C807 C 0.75614 0.77393 0.85643 0.0
C808 C 0.77762 0.82431 0.87183 0.0
C809 C 0.75081 0.83167 0.90181 0.0
C810 C 0.77867 0.87006 0.87178 0.0
C811 C 0.79567 0.89099 0.87351 0.0
C812 C 0.81179 0.86632 0.87533 0.0
C813 C 0.81059 0.82047 0.87495 0.0
C814 C 0.79371 0.79977 0.87317 0.0
H815 H 0.74128 0.82398 0.91302 0.0
H816 H 0.7651 0.82716 0.90662 0.0
H817 H 0.74905 0.86654 0.89821 0.0
H818 H 0.76636 0.88951 0.87055 0.0
H819 H 0.79613 0.92629 0.87367 0.0
H820 H 0.32573 0.30791 0.86644 0.0
H821 H 0.29787 0.26535 0.86262 0.0
H822 H 0.26559 0.37565 0.87961 0.0
H823 H 0.29371 0.41922 0.88311 0.0
H824 H 0.27487 0.24433 0.88957 0.0
H825 H 0.23727 0.33277 0.83592 0.0
H826 H 0.26125 0.34225 0.84054 0.0
H827 H 0.24396 0.3667 0.85447 0.0
C828 C 0.31269 0.32342 0.86917 0.0
C829 C 0.31187 0.36683 0.87524 0.0
C830 C 0.29678 0.29899 0.86694 0.0
C831 C 0.27967 0.31728 0.87077 0.0
C832 C 0.27867 0.36113 0.87627 0.0
H833 H 0.17164 0.22519 0.8873 0.0
H834 H 0.20059 0.26334 0.88452 0.0
C835 C 0.2947 0.38595 0.87833 0.0
C836 C 0.26319 0.28904 0.87035 0.0
H837 H 0.22058 0.27829 0.85198 0.0
C838 C 0.26306 0.25148 0.8812 0.0
C839 C 0.24789 0.29835 0.85935 0.0
C840 C 0.2476 0.33697 0.84677 0.0
C841 C 0.24778 0.22376 0.88183 0.0
C842 C 0.23231 0.2337 0.87119 0.0
C843 C 0.23255 0.27073 0.86005 0.0
C844 C 0.21503 0.20883 0.87283 0.0
C845 C 0.24798 0.18505 0.89437 0.0
C846 C 0.21361 0.16513 0.86729 0.0
C847 C 0.19689 0.14277 0.86887 0.0
C848 C 0.18144 0.16405 0.87593 0.0
C849 C 0.18316 0.20767 0.88164 0.0
C850 C 0.19972 0.22974 0.88006 0.0
H851 H 0.25995 0.18563 0.90362 0.0
H852 H 0.23523 0.18407 0.90251 0.0
H853 H 0.24859 0.15457 0.88636 0.0
H854 H 0.22532 0.14858 0.86154 0.0
H855 H 0.196 0.1093 0.8643 0.0
H856 H 0.66617 0.30012 0.65475 0.0
H857 H 0.69458 0.25991 0.65866 0.0
H858 H 0.72528 0.38006 0.65536 0.0
H859 H 0.69656 0.42105 0.65193 0.0
H860 H 0.72118 0.255 0.63417 0.0
H861 H 0.74944 0.32082 0.69792 0.0
H862 H 0.72602 0.32992 0.69103 0.0
H863 H 0.74426 0.36207 0.68155 0.0
C864 C 0.67894 0.31819 0.65504 0.0
C865 C 0.67919 0.36375 0.6529 0.0
C866 C 0.69516 0.29509 0.65733 0.0
C867 C 0.71203 0.31694 0.65742 0.0
C868 C 0.71237 0.36263 0.65571 0.0
H869 H 0.82327 0.2388 0.64539 0.0
H870 H 0.79407 0.27578 0.64908 0.0
C871 C 0.69601 0.38599 0.65364 0.0
C872 C 0.72915 0.29112 0.65778 0.0
H873 H 0.76947 0.27659 0.6803 0.0
C874 C 0.73165 0.25941 0.64438 0.0
C875 C 0.74276 0.29691 0.67112 0.0
C876 C 0.74045 0.32898 0.68633 0.0
C877 C 0.74757 0.23403 0.64369 0.0
C878 C 0.7613 0.24037 0.65682 0.0
C879 C 0.7588 0.27173 0.67033 0.0
C880 C 0.77899 0.21728 0.65578 0.0
C881 C 0.7499 0.20164 0.62859 0.0
C882 C 0.78016 0.17205 0.65854 0.0
C883 C 0.79693 0.15052 0.65643 0.0
C884 C 0.81268 0.17405 0.65147 0.0
C885 C 0.81141 0.2195 0.64907 0.0
C886 C 0.79475 0.24086 0.65127 0.0
H887 H 0.73924 0.20541 0.61803 0.0
H888 H 0.7636 0.20537 0.62228 0.0
H889 H 0.74896 0.16804 0.63408 0.0
H890 H 0.76808 0.15344 0.66216 0.0
H891 H 0.7975 0.11556 0.65845 0.0
H892 H 0.17175 0.80495 0.629 0.0
H893 H 0.19986 0.76443 0.63335 0.0
H894 H 0.22383 0.87423 0.661 0.0
H895 H 0.1952 0.91545 0.65702 0.0
H896 H 0.23427 0.78396 0.62133 0.0
H897 H 0.23258 0.77254 0.69598 0.0
H898 H 0.21296 0.78933 0.68289 0.0
H899 H 0.23145 0.82683 0.68689 0.0
C900 C 0.18291 0.8208 0.63606 0.0
C901 C 0.18117 0.86354 0.64276 0.0
C902 C 0.19902 0.79742 0.63851 0.0
C903 C 0.21382 0.81605 0.6477 0.0
C904 C 0.21239 0.85899 0.65416 0.0
H905 H 0.32352 0.72438 0.66321 0.0
H906 H 0.29453 0.76362 0.66396 0.0
C907 C 0.19612 0.88261 0.65175 0.0
C908 C 0.23074 0.79013 0.64997 0.0
H909 H 0.25834 0.74192 0.68131 0.0
C910 C 0.23952 0.7747 0.63444 0.0
C911 C 0.23744 0.77794 0.66711 0.0
C912 C 0.22808 0.79214 0.6842 0.0
C913 C 0.25491 0.74761 0.63557 0.0
C914 C 0.26158 0.73538 0.65268 0.0
C915 C 0.25297 0.75105 0.66823 0.0
C916 C 0.27839 0.7091 0.6545 0.0
C917 C 0.26417 0.73286 0.61849 0.0
C918 C 0.27874 0.66495 0.64945 0.0
C919 C 0.29536 0.64214 0.64909 0.0
C920 C 0.31176 0.66355 0.65357 0.0
C921 C 0.31112 0.70713 0.65947 0.0
C922 C 0.29458 0.72961 0.66 0.0
H923 H 0.25883 0.75016 0.60644 0.0
H924 H 0.2792 0.73835 0.61937 0.0
H925 H 0.26185 0.69736 0.61664 0.0
H926 H 0.26627 0.64866 0.64525 0.0
H927 H 0.29549 0.60863 0.64449 0.0
H928 H 0.09139 0.91798 0.32013 0.0
H929 H 0.09129 0.95344 0.29052 0.0
H930 H 0.14386 1.01138 0.30208 0.0
H931 H 0.14408 0.97579 0.33163 0.0
H932 H 0.11773 0.07061 0.2872 0.0
H933 H 0.12323 0.91901 0.24675 0.0
H934 H 0.10498 0.91937 0.26296 0.0
H935 H 0.12837 0.92063 0.2705 0.0
C936 C 0.10294 0.93819 0.31634 0.0
C937 C 0.11774 0.94404 0.32823 0.0
C938 C 0.10291 0.95832 0.29937 0.0
C939 C 0.11767 0.98472 0.29394 0.0
C940 C 0.13234 0.99107 0.30591 0.0
H941 H 0.14329 0.08015 0.18597 0.0
H942 H 0.14374 0.04529 0.2157 0.0
C943 C 0.13244 0.97072 0.32281 0.0
C944 C 0.11776 1.00605 0.27587 0.0
H945 H 0.11805 0.98468 0.23069 0.0
C946 C 0.1178 0.05182 0.27485 0.0
C947 C 0.11809 0.9816 0.25972 0.0
C948 C 0.11883 0.93243 0.25993 0.0
C949 C 0.11783 0.07369 0.25817 0.0
C950 C 0.11771 0.04923 0.24202 0.0
C951 C 0.118 1.00347 0.24304 0.0
C952 C 0.11739 0.07054 0.22395 0.0
C953 C 0.11827 0.12288 0.25797 0.0
C954 C 0.10235 0.09598 0.21855 0.0
C955 C 0.10202 0.11572 0.20152 0.0
C956 C 0.11674 0.11051 0.18952 0.0
C957 C 0.13176 0.0849 0.19491 0.0
C958 C 0.13202 0.06491 0.2119 0.0
H959 H 0.12262 0.13647 0.27115 0.0
H960 H 0.12771 0.13509 0.24739 0.0
H961 H 0.10433 0.13536 0.25494 0.0
H962 H 0.09076 0.10027 0.22746 0.0
H963 H 0.0902 0.13502 0.19775 0.0
H964 H 0.9003 0.13059 0.32387 0.0
H965 H 0.89936 0.09742 0.29387 0.0
H966 H 0.84672 0.04066 0.30595 0.0
H967 H 0.84753 0.07402 0.33596 0.0
H968 H 0.87263 0.98136 0.29012 0.0
H969 H 0.8665 0.1348 0.25086 0.0
H970 H 0.88493 0.13377 0.26692 0.0
H971 H 0.86163 0.13199 0.27465 0.0
C972 C 0.88848 0.11122 0.32011 0.0
C973 C 0.87396 0.1051 0.33228 0.0
C974 C 0.88792 0.0924 0.30291 0.0
C975 C 0.87287 0.06692 0.29751 0.0
C976 C 0.85844 0.06034 0.30974 0.0
H977 H 0.84666 0.9723 0.18914 0.0
H978 H 0.8461 1.00753 0.21881 0.0
C979 C 0.85892 0.07946 0.32689 0.0
C980 C 0.87236 0.04645 0.27928 0.0
H981 H 0.87173 0.06993 0.23424 0.0
C982 C 0.87239 1.00074 0.27791 0.0
C983 C 0.87184 0.07164 0.2633 0.0
C984 C 0.87106 0.12078 0.2639 0.0
C985 C 0.87234 0.97967 0.26107 0.0
C986 C 0.87234 1.00487 0.24509 0.0
C987 C 0.87188 0.05057 0.24645 0.0
C988 C 0.87286 0.9843 0.22688 0.0
C989 C 0.87211 0.93049 0.26048 0.0
C990 C 0.88819 0.96012 0.22136 0.0
C991 C 0.8886 0.94028 0.20437 0.0
C992 C 0.87365 0.94405 0.19251 0.0
C993 C 0.85839 0.96873 0.19795 0.0
C994 C 0.85805 0.98889 0.21491 0.0
H995 H 0.86797 0.91614 0.27359 0.0
H996 H 0.8626 0.91861 0.24989 0.0
H997 H 0.88606 0.91851 0.25722 0.0
H998 H 0.8999 0.95662 0.23021 0.0
H999 H 0.90059 0.92165 0.20057 0.0
H1000 H 0.901 0.12786 0.70252 0.0
H1001 H 0.90086 0.09223 0.73209 0.0
H1002 H 0.84769 0.03739 0.72069 0.0
H1003 H 0.84771 0.07312 0.69114 0.0
H1004 H 0.87479 0.10055 0.76088 0.0
H1005 H 0.87919 0.93053 0.73546 0.0
H1006 H 0.88462 0.97725 0.72164 0.0
H1007 H 0.86115 0.96301 0.7259 0.0
C1008 C 0.88927 0.10823 0.70632 0.0
C1009 C 0.8744 0.10319 0.69444 0.0
C1010 C 0.8892 0.0879 0.72323 0.0
C1011 C 0.87436 0.06166 0.72858 0.0
C1012 C 0.85942 0.05689 0.7168 0.0
H1013 H 0.84847 0.96671 0.8367 0.0
H1014 H 0.84842 1.00334 0.80738 0.0
C1015 C 0.85942 0.07748 0.69993 0.0
C1016 C 0.8745 0.03964 0.74652 0.0
H1017 H 0.87473 0.93936 0.7668 0.0
C1018 C 0.87477 0.06531 0.76217 0.0
C1019 C 0.87466 0.99363 0.74825 0.0
C1020 C 0.87504 0.96434 0.73196 0.0
C1021 C 0.87494 0.04628 0.77944 0.0
C1022 C 0.87476 1.00026 0.78117 0.0
C1023 C 0.87475 0.9746 0.76551 0.0
C1024 C 0.87478 0.97816 0.79909 0.0
C1025 C 0.87562 0.0756 0.79572 0.0
C1026 C 0.88946 0.95115 0.80418 0.0
C1027 C 0.88954 0.9303 0.82099 0.0
C1028 C 0.87486 0.93564 0.83302 0.0
C1029 C 0.86007 0.96224 0.82783 0.0
C1030 C 0.86005 0.98332 0.81107 0.0
H1031 H 0.87995 0.10928 0.79217 0.0
H1032 H 0.86177 0.07735 0.80183 0.0
H1033 H 0.88519 0.06247 0.806 0.0
H1034 H 0.90094 0.94648 0.79517 0.0
H1035 H 0.9011 0.90992 0.82456 0.0
H1036 H 0.09859 0.13801 0.81717 0.0
H1037 H 0.09979 0.10386 0.78752 0.0
H1038 H 0.14273 1.01817 0.8061 0.0
H1039 H 0.14298 0.05604 0.835 0.0
H1040 H 0.15048 0.03475 0.77504 0.0
H1041 H 0.07671 0.99748 0.7712 0.0
H1042 H 0.07986 0.05518 0.7729 0.0
H1043 H 0.08687 1.02007 0.79118 0.0
C1044 C 0.10829 0.11188 0.8149 0.0
C1045 C 0.12035 0.09891 0.82864 0.0
C1046 C 0.1088 0.09181 0.79795 0.0
C1047 C 0.12081 0.05683 0.79451 0.0
C1048 C 0.13311 0.04453 0.80823 0.0
H1049 H 0.10085 0.89074 0.70042 0.0
H1050 H 0.1021 0.92292 0.73047 0.0
C1051 C 0.1331 0.06583 0.82492 0.0
C1052 C 0.12098 0.03397 0.77659 0.0
H1053 H 0.09333 0.99223 0.74361 0.0
C1054 C 0.13793 0.02498 0.76834 0.0
C1055 C 0.10475 1.02002 0.76772 0.0
C1056 C 0.08608 0.02324 0.77633 0.0
C1057 C 0.13911 1.00307 0.75171 0.0
C1058 C 0.12284 0.99215 0.74222 0.0
C1059 C 0.1059 1.00087 0.75053 0.0
C1060 C 0.1229 0.97101 0.72393 0.0
C1061 C 0.1579 0.99052 0.74503 0.0
C1062 C 0.13419 0.98655 0.70994 0.0
C1063 C 0.13406 0.96666 0.69294 0.0
C1064 C 0.12191 0.93229 0.68913 0.0
C1065 C 0.11033 0.91728 0.7029 0.0
C1066 C 0.11099 0.93595 0.72012 0.0
H1067 H 0.16763 0.98605 0.75638 0.0
H1068 H 0.15753 0.95982 0.73713 0.0
H1069 H 0.1634 1.0171 0.73644 0.0
H1070 H 0.143 1.01449 0.71202 0.0
H1071 H 0.1432 0.97888 0.68265 0.0
H1072 H 0.64193 0.4842 0.33737 0.0
H1073 H 0.64067 0.52139 0.30835 0.0
H1074 H 0.5966 0.43613 0.29186 0.0
H1075 H 0.5964 0.40288 0.32173 0.0
H1076 H 0.64718 0.50436 0.2774 0.0
H1077 H 0.57345 0.54198 0.27552 0.0
H1078 H 0.58414 0.51978 0.29531 0.0
H1079 H 0.57638 0.48427 0.27745 0.0
C1080 C 0.63163 0.47431 0.32773 0.0
C1081 C 0.61887 0.44163 0.33207 0.0
C1082 C 0.63103 0.49525 0.31096 0.0
C1083 C 0.61811 0.48288 0.29781 0.0
C1084 C 0.60608 0.44826 0.30187 0.0
H1085 H 0.63851 0.5549 0.1854 0.0
H1086 H 0.63815 0.52053 0.21495 0.0
C1087 C 0.60615 0.42867 0.31893 0.0
C1088 C 0.61774 0.50515 0.27978 0.0
H1089 H 0.58913 0.54523 0.24727 0.0
C1090 C 0.63443 0.51383 0.27101 0.0
C1091 C 0.60126 0.51878 0.2713 0.0
C1092 C 0.58286 0.51618 0.28051 0.0
C1093 C 0.63514 0.53505 0.25421 0.0
C1094 C 0.61859 0.54522 0.24505 0.0
C1095 C 0.6019 0.537 0.25391 0.0
C1096 C 0.61819 0.56475 0.22649 0.0
C1097 C 0.65374 0.54772 0.247 0.0
C1098 C 0.6062 0.59938 0.22235 0.0
C1099 C 0.60547 0.61702 0.20494 0.0
C1100 C 0.61705 0.6013 0.19133 0.0
C1101 C 0.62918 0.56721 0.19547 0.0
C1102 C 0.62932 0.54825 0.21262 0.0
H1103 H 0.66364 0.55342 0.25812 0.0
H1104 H 0.65923 0.52066 0.23872 0.0
H1105 H 0.65308 0.57778 0.23871 0.0
H1106 H 0.59741 0.61307 0.23262 0.0
H1107 H 0.59605 0.64349 0.20222 0.0
H1108 H 0.40102 0.63187 0.32636 0.0
H1109 H 0.40042 0.59785 0.29653 0.0
H1110 H 0.34713 0.54368 0.30788 0.0
H1111 H 0.34761 0.57788 0.33775 0.0
H1112 H 0.37308 0.48291 0.29274 0.0
H1113 H 0.36847 0.63586 0.25293 0.0
H1114 H 0.38659 0.6345 0.26932 0.0
H1115 H 0.36315 0.6336 0.27664 0.0
C1116 C 0.38913 0.61289 0.32248 0.0
C1117 C 0.37432 0.60775 0.33439 0.0
C1118 C 0.38878 0.59358 0.30538 0.0
C1119 C 0.37364 0.56859 0.29984 0.0
C1120 C 0.35892 0.56297 0.31181 0.0
H1121 H 0.34772 0.47543 0.19168 0.0
H1122 H 0.34751 0.51024 0.22137 0.0
C1123 C 0.3592 0.58257 0.32886 0.0
C1124 C 0.37332 0.54779 0.28169 0.0
H1125 H 0.37349 0.57054 0.23661 0.0
C1126 C 0.37314 0.50206 0.28047 0.0
C1127 C 0.37322 0.57274 0.26565 0.0
C1128 C 0.37271 0.62191 0.26609 0.0
C1129 C 0.37321 0.4807 0.26369 0.0
C1130 C 0.37356 0.50565 0.24766 0.0
C1131 C 0.37338 0.55137 0.24888 0.0
C1132 C 0.3739 0.48486 0.2295 0.0
C1133 C 0.37265 0.43153 0.26325 0.0
C1134 C 0.38891 0.45948 0.22402 0.0
C1135 C 0.38913 0.43984 0.20698 0.0
C1136 C 0.37432 0.44512 0.19506 0.0
C1137 C 0.35936 0.4708 0.20052 0.0
C1138 C 0.35922 0.4907 0.2175 0.0
H1139 H 0.36831 0.41755 0.27636 0.0
H1140 H 0.36315 0.41983 0.25261 0.0
H1141 H 0.38654 0.41896 0.26013 0.0
H1142 H 0.40053 0.45501 0.23291 0.0
H1143 H 0.40087 0.42038 0.20316 0.0
H1144 H 0.35181 0.47991 0.84132 0.0
H1145 H 0.35274 0.51523 0.81196 0.0
H1146 H 0.39576 0.42738 0.79545 0.0
H1147 H 0.39643 0.39613 0.82573 0.0
H1148 H 0.40341 0.49632 0.78139 0.0
H1149 H 0.32955 0.48134 0.7677 0.0
H1150 H 0.33271 0.51401 0.78736 0.0
H1151 H 0.33976 0.45748 0.7874 0.0
C1152 C 0.36174 0.46882 0.83155 0.0
C1153 C 0.37428 0.43581 0.836 0.0
C1154 C 0.36196 0.48833 0.8145 0.0
C1155 C 0.37392 0.47341 0.80098 0.0
C1156 C 0.38632 0.43985 0.80543 0.0
H1157 H 0.35263 0.55274 0.68958 0.0
H1158 H 0.35377 0.51543 0.71854 0.0
C1159 C 0.38666 0.42172 0.82277 0.0
C1160 C 0.37391 0.49341 0.78248 0.0
H1161 H 0.34595 0.53189 0.74912 0.0
C1162 C 0.39079 0.50339 0.77427 0.0
C1163 C 0.35758 0.50215 0.77271 0.0
C1164 C 0.33894 0.48766 0.77919 0.0
C1165 C 0.39181 0.52182 0.75693 0.0
C1166 C 0.37546 0.53385 0.74781 0.0
C1167 C 0.35859 0.52358 0.75598 0.0
C1168 C 0.37539 0.55592 0.72971 0.0
C1169 C 0.41051 0.5263 0.74844 0.0
C1170 C 0.38699 0.59157 0.72594 0.0
C1171 C 0.38708 0.6112 0.70888 0.0
C1172 C 0.37492 0.59717 0.6954 0.0
C1173 C 0.3626 0.56332 0.69943 0.0
C1174 C 0.36308 0.54238 0.71619 0.0
H1175 H 0.42016 0.50151 0.75382 0.0
H1176 H 0.40989 0.52254 0.7336 0.0
H1177 H 0.41627 0.55885 0.75172 0.0
H1178 H 0.39597 0.60459 0.7362 0.0
H1179 H 0.39644 0.63795 0.70635 0.0
H1180 H 0.64331 0.57295 0.83514 0.0
H1181 H 0.64374 0.53791 0.80547 0.0
H1182 H 0.59008 0.58971 0.79413 0.0
H1183 H 0.5895 0.62454 0.82382 0.0
H1184 H 0.61767 0.47575 0.79075 0.0
H1185 H 0.62203 0.62797 0.75036 0.0
H1186 H 0.62755 0.62624 0.77404 0.0
H1187 H 0.60405 0.62649 0.76687 0.0
C1188 C 0.63161 0.5769 0.82632 0.0
C1189 C 0.61639 0.60163 0.8318 0.0
C1190 C 0.63187 0.55682 0.80937 0.0
C1191 C 0.61703 0.56155 0.79747 0.0
C1192 C 0.60179 0.5861 0.80296 0.0
H1193 H 0.59052 0.41225 0.70086 0.0
H1194 H 0.59066 0.44683 0.73062 0.0
C1195 C 0.60146 0.60589 0.81996 0.0
C1196 C 0.61739 0.54035 0.77943 0.0
H1197 H 0.61755 0.5621 0.73428 0.0
C1198 C 0.61766 0.49461 0.77841 0.0
C1199 C 0.61755 0.56496 0.76331 0.0
C1200 C 0.61793 0.61415 0.76358 0.0
C1201 C 0.61778 0.47288 0.76172 0.0
C1202 C 0.61754 0.49748 0.7456 0.0
C1203 C 0.61759 0.54323 0.74663 0.0
C1204 C 0.61743 0.47632 0.72755 0.0
C1205 C 0.6184 0.42371 0.76145 0.0
C1206 C 0.6323 0.48187 0.71577 0.0
C1207 C 0.63229 0.46197 0.6988 0.0
C1208 C 0.61728 0.43657 0.69314 0.0
C1209 C 0.60232 0.43144 0.70486 0.0
C1210 C 0.6024 0.45107 0.7219 0.0
H1211 H 0.62249 0.41003 0.7747 0.0
H1212 H 0.6046 0.41087 0.75806 0.0
H1213 H 0.62814 0.41198 0.75106 0.0
H1214 H 0.64401 0.50132 0.71979 0.0
H1215 H 0.64402 0.46658 0.69008 0.0
H1216 H 0.11819 0.15518 0.92858 0.0
H1217 H 0.11539 0.17157 0.96094 0.0
H1218 H 0.13369 0.0415 0.97367 0.0
H1219 H 0.13643 0.02512 0.94171 0.0
H1220 H 0.10274 0.06761 0.99345 0.0
H1221 H 0.15862 0.1912 0.99635 0.0
H1222 H 0.14076 0.19999 0.98005 0.0
H1223 H 0.15595 0.15442 0.97757 0.0
C1224 C 0.1216 0.13023 0.93833 0.0
C1225 C 0.12763 0.08897 0.9326 0.0
C1226 C 0.12007 0.13963 0.9568 0.0
C1227 C 0.12451 0.10787 0.96979 0.0
C1228 C 0.13021 0.06656 0.96397 0.0
H1229 H 0.15801 0.09835 0.07932 0.0
H1230 H 0.15443 0.10363 0.0467 0.0
C1231 C 0.1318 0.05728 0.94565 0.0
C1232 C 0.12341 0.11679 0.98949 0.0
H1233 H 0.14451 0.17221 0.02367 0.0
C1234 C 0.11167 0.09096 1.00005 0.0
C1235 C 0.13521 0.14692 0.99812 0.0
C1236 C 0.14847 0.17463 0.98754 0.0
C1237 C 0.11179 0.09347 0.01896 0.0
C1238 C 0.12382 0.12306 0.02763 0.0
C1239 C 0.1352 0.14977 0.01704 0.0
C1240 C 0.12604 0.12366 0.04759 0.0
C1241 C 0.09968 0.06283 0.02952 0.0
C1242 C 0.11139 0.13421 0.05909 0.0
C1243 C 0.11342 0.13118 0.07785 0.0
C1244 C 0.13013 0.11757 0.08544 0.0
C1245 C 0.14493 0.10869 0.07392 0.0
C1246 C 0.14291 0.1118 0.05524 0.0
H1247 H 0.09389 0.03649 0.02097 0.0
H1248 H 0.10744 0.04766 0.04076 0.0
H1249 H 0.08811 0.08144 0.03538 0.0
H1250 H 0.09832 0.14417 0.05355 0.0
H1251 H 0.10179 0.13846 0.08638 0.0
H1252 H 0.84888 0.9974 0.9454 0.0
H1253 H 0.85058 0.97981 0.97733 0.0
H1254 H 0.87869 0.86 0.96496 0.0
H1255 H 0.87697 0.87759 0.93257 0.0
H1256 H 0.83607 0.89963 0.99435 0.0
H1257 H 0.91104 0.92462 1.00457 0.0
H1258 H 0.89907 0.94925 0.98587 0.0
H1259 H 0.90323 0.89168 0.98599 0.0
C1260 C 0.85547 0.96727 0.94939 0.0
C1261 C 0.86276 0.93885 0.93641 0.0
C1262 C 0.85641 0.95725 0.9677 0.0
C1263 C 0.86483 0.91873 0.97361 0.0
C1264 C 0.87225 0.89011 0.96073 0.0
H1265 H 0.87584 0.87516 0.09218 0.0
H1266 H 0.87812 0.85865 0.05967 0.0
C1267 C 0.87119 0.90007 0.94224 0.0
C1268 C 0.86526 0.90913 0.99328 0.0
H1269 H 0.89288 0.91562 0.03045 0.0
C1270 C 0.84856 0.9022 1.0022 0.0
C1271 C 0.88155 0.91227 1.00357 0.0
C1272 C 0.89981 0.91998 0.99465 0.0
C1273 C 0.84757 0.90047 0.02107 0.0
C1274 C 0.86366 0.90665 0.03143 0.0
C1275 C 0.88055 0.91087 0.02253 0.0
C1276 C 0.86265 0.91525 0.05117 0.0
C1277 C 0.82915 0.8936 0.02981 0.0
C1278 C 0.85347 0.95263 0.05716 0.0
C1279 C 0.85224 0.96205 0.07547 0.0
C1280 C 0.86016 0.93441 0.08842 0.0
C1281 C 0.8695 0.89691 0.08253 0.0
C1282 C 0.87084 0.88756 0.06399 0.0
H1283 H 0.81955 0.87617 0.02069 0.0
H1284 H 0.83047 0.87476 0.04251 0.0
H1285 H 0.82304 0.92579 0.03303 0.0
H1286 H 0.8473 0.97488 0.04759 0.0
H1287 H 0.84502 0.99132 0.07947 0.0
H1288 H 0.12054 0.88337 0.42762 0.0
H1289 H 0.11729 0.86785 0.46005 0.0
H1290 H 0.13568 0.99818 0.47231 0.0
H1291 H 0.13896 1.01363 0.44032 0.0
H1292 H 0.14486 0.87322 0.48792 0.0
H1293 H 0.08753 0.98679 0.50096 0.0
H1294 H 0.09339 0.96839 0.47861 0.0
H1295 H 0.10613 1.01189 0.48901 0.0
C1296 C 0.12383 0.90861 0.43728 0.0
C1297 C 0.12997 0.94973 0.43141 0.0
C1298 C 0.12197 0.89976 0.45578 0.0
C1299 C 0.12597 0.9321 0.46864 0.0
C1300 C 0.13216 0.97297 0.4627 0.0
H1301 H 0.16045 0.94177 0.57776 0.0
H1302 H 0.15687 0.93421 0.54526 0.0
C1303 C 0.13413 0.98166 0.44436 0.0
C1304 C 0.12434 0.92354 0.48834 0.0
H1305 H 0.10508 0.96448 0.52669 0.0
C1306 C 0.13594 0.89264 0.49637 0.0
C1307 C 0.11254 0.94842 0.49943 0.0
C1308 C 0.09905 0.98044 0.49156 0.0
C1309 C 0.13681 0.8878 0.51521 0.0
C1310 C 0.12595 0.91492 0.52635 0.0
C1311 C 0.11357 0.94396 0.51824 0.0
C1312 C 0.12822 0.91612 0.54632 0.0
C1313 C 0.14956 0.85404 0.523 0.0
C1314 C 0.11325 0.90901 0.5579 0.0
C1315 C 0.11528 0.91344 0.57662 0.0
C1316 C 0.13225 0.92569 0.58407 0.0
C1317 C 0.14721 0.93219 0.57247 0.0
C1318 C 0.14521 0.92756 0.55385 0.0
H1319 H 0.15215 0.82724 0.51328 0.0
H1320 H 0.16292 0.8696 0.52616 0.0
H1321 H 0.14393 0.83985 0.53559 0.0
H1322 H 0.09996 0.9005 0.55243 0.0
H1323 H 0.10347 0.90838 0.58519 0.0
H1324 H 0.88792 0.13371 0.59096 0.0
H1325 H 0.89029 0.14349 0.55818 0.0
H1326 H 0.83375 0.10501 0.55232 0.0
H1327 H 0.83128 0.09564 0.58484 0.0
H1328 H 0.88493 0.08113 0.53126 0.0
H1329 H 0.8356 0.21629 0.52255 0.0
H1330 H 0.84496 0.20164 0.54421 0.0
H1331 H 0.82607 0.17135 0.53487 0.0
C1332 C 0.87595 0.1279 0.58267 0.0
C1333 C 0.8594 0.11401 0.59052 0.0
C1334 C 0.87733 0.13337 0.56394 0.0
C1335 C 0.86212 0.12561 0.55272 0.0
C1336 C 0.84557 0.11215 0.56062 0.0
H1337 H 0.83186 0.0953 0.44235 0.0
H1338 H 0.83453 0.1038 0.47491 0.0
C1339 C 0.84421 0.10655 0.57926 0.0
C1340 C 0.86359 0.12932 0.53272 0.0
H1341 H 0.84315 0.17581 0.49598 0.0
C1342 C 0.87601 0.10235 0.52354 0.0
C1343 C 0.85197 0.15702 0.52259 0.0
C1344 C 0.83902 0.18854 0.53156 0.0
C1345 C 0.87646 0.10068 0.50459 0.0
C1346 C 0.86436 0.12724 0.49447 0.0
C1347 C 0.85239 0.1553 0.50367 0.0
C1348 C 0.86293 0.12413 0.47445 0.0
C1349 C 0.88927 0.06891 0.49558 0.0
C1350 C 0.87789 0.13362 0.46315 0.0
C1351 C 0.87638 0.12879 0.44439 0.0
C1352 C 0.85986 0.11443 0.43659 0.0
C1353 C 0.8448 0.10622 0.4479 0.0
C1354 C 0.84631 0.11111 0.46656 0.0
H1355 H 0.89487 0.04461 0.50521 0.0
H1356 H 0.88217 0.05125 0.48455 0.0
H1357 H 0.90095 0.08709 0.48964 0.0
H1358 H 0.89076 0.14457 0.46884 0.0
H1359 H 0.8882 0.13557 0.43605 0.0
H1360 H 0.61872 0.65578 0.09154 0.0
H1361 H 0.61601 0.67169 0.05911 0.0
H1362 H 0.63424 0.54136 0.04689 0.0
H1363 H 0.63699 0.5255 0.0789 0.0
H1364 H 0.64409 0.66606 0.03164 0.0
H1365 H 0.58632 0.55377 0.01776 0.0
H1366 H 0.59199 0.57203 0.04018 0.0
H1367 H 0.60466 0.52832 0.02995 0.0
C1368 C 0.62209 0.63063 0.08189 0.0
C1369 C 0.62804 0.58939 0.08777 0.0
C1370 C 0.62054 0.63971 0.06339 0.0
C1371 C 0.62466 0.60747 0.05055 0.0
C1372 C 0.63066 0.56648 0.0565 0.0
H1373 H 0.6597 0.59825 0.94153 0.0
H1374 H 0.65626 0.60601 0.97406 0.0
C1375 C 0.63231 0.55755 0.07484 0.0
C1376 C 0.6233 0.61623 0.03088 0.0
H1377 H 0.60421 0.57604 0.99229 0.0
C1378 C 0.63516 0.64692 0.02305 0.0
C1379 C 0.61148 0.59169 0.01964 0.0
C1380 C 0.59775 0.5599 0.02731 0.0
C1381 C 0.63624 0.65192 1.00424 0.0
C1382 C 0.62533 0.62515 0.99295 0.0
C1383 C 0.61272 0.59629 1.00086 0.0
C1384 C 0.62764 0.62427 0.97301 0.0
C1385 C 0.64922 0.68549 0.99663 0.0
C1386 C 0.61266 0.63148 0.96147 0.0
C1387 C 0.61459 0.62688 0.94278 0.0
C1388 C 0.63149 0.61443 0.93531 0.0
C1389 C 0.64652 0.60801 0.94686 0.0
C1390 C 0.6446 0.61275 0.96548 0.0
H1391 H 0.65187 0.71211 1.00643 0.0
H1392 H 0.66252 0.66966 0.99358 0.0
H1393 H 0.64376 0.69995 0.98403 0.0
H1394 H 0.5994 0.64008 0.96695 0.0
H1395 H 0.60275 0.63192 0.93424 0.0
H1396 H 0.37545 0.38512 0.9362 0.0
H1397 H 0.37708 0.36934 0.96877 0.0
H1398 H 0.34736 0.48773 0.97979 0.0
H1399 H 0.34572 0.50348 0.94773 0.0
H1400 H 0.39189 0.42591 0.99808 0.0
H1401 H 0.31797 0.39042 1.0062 0.0
H1402 H 0.32936 0.38825 0.98465 0.0
H1403 H 0.32235 0.43978 0.99391 0.0
C1404 C 0.36923 0.40755 0.94562 0.0
C1405 C 0.36034 0.44537 0.93939 0.0
C1406 C 0.3702 0.3986 0.9642 0.0
C1407 C 0.36211 0.42707 0.97673 0.0
C1408 C 0.35345 0.46492 0.97042 0.0
H1409 H 0.34604 0.50501 0.08284 0.0
H1410 H 0.34806 0.48863 0.05087 0.0
C1411 C 0.35258 0.47393 0.95204 0.0
C1412 C 0.36262 0.41851 0.99648 0.0
H1413 H 0.33428 0.41136 0.03294 0.0
C1414 C 0.37938 0.42159 1.00573 0.0
C1415 C 0.34629 0.4128 1.00646 0.0
C1416 C 0.32798 0.40718 0.99731 0.0
C1417 C 0.38004 0.42226 0.0247 0.0
C1418 C 0.36353 0.41941 0.03464 0.0
C1419 C 0.34694 0.41369 0.02536 0.0
C1420 C 0.3628 0.42809 0.05437 0.0
C1421 C 0.3982 0.42884 0.034 0.0
C1422 C 0.37036 0.39934 0.06716 0.0
C1423 C 0.36913 0.40862 0.08568 0.0
C1424 C 0.36038 0.44683 0.09163 0.0
C1425 C 0.35288 0.4753 0.07876 0.0
C1426 C 0.35401 0.46597 0.06042 0.0
H1427 H 0.40954 0.43459 0.02432 0.0
H1428 H 0.3974 0.45702 0.04335 0.0
H1429 H 0.40151 0.39948 0.0421 0.0
H1430 H 0.37705 0.36966 0.06283 0.0
H1431 H 0.37506 0.38612 0.09529 0.0
H1432 H 0.60636 0.41376 0.43564 0.0
H1433 H 0.60394 0.40703 0.46856 0.0
H1434 H 0.66083 0.44292 0.47384 0.0
H1435 H 0.66328 0.45004 0.44121 0.0
H1436 H 0.62413 0.35635 0.49473 0.0
H1437 H 0.63387 0.53401 0.50465 0.0
H1438 H 0.62833 0.51064 0.48304 0.0
H1439 H 0.6515 0.50934 0.49128 0.0
C1440 C 0.61836 0.41985 0.44385 0.0
C1441 C 0.63496 0.43292 0.43585 0.0
C1442 C 0.61697 0.41599 0.46264 0.0
C1443 C 0.63211 0.42531 0.47371 0.0
C1444 C 0.64886 0.43646 0.46564 0.0
H1445 H 0.66271 0.4456 0.58465 0.0
H1446 H 0.66037 0.43992 0.55197 0.0
C1447 C 0.65025 0.44035 0.44695 0.0
C1448 C 0.63051 0.42486 0.49371 0.0
H1449 H 0.63653 0.48936 0.53072 0.0
C1450 C 0.62663 0.38548 0.50263 0.0
C1451 C 0.63366 0.46295 0.50402 0.0
C1452 C 0.63689 0.50674 0.49528 0.0
C1453 C 0.62667 0.38284 0.52158 0.0
C1454 C 0.63045 0.42069 0.53185 0.0
C1455 C 0.63376 0.46025 0.52288 0.0
C1456 C 0.63192 0.42004 0.55186 0.0
C1457 C 0.62336 0.33931 0.53046 0.0
C1458 C 0.61674 0.41026 0.56281 0.0
C1459 C 0.61805 0.41347 0.58163 0.0
C1460 C 0.63454 0.42678 0.58979 0.0
C1461 C 0.6498 0.43538 0.57881 0.0
C1462 C 0.64848 0.43219 0.56009 0.0
H1463 H 0.62435 0.3119 0.52074 0.0
H1464 H 0.63335 0.33382 0.5415 0.0
H1465 H 0.60941 0.33892 0.53638 0.0
H1466 H 0.60373 0.40149 0.5568 0.0
H1467 H 0.60604 0.4068 0.58973 0.0
H1468 H 0.37319 0.65759 0.59527 0.0
H1469 H 0.37587 0.6737 0.56284 0.0
H1470 H 0.35654 0.54418 0.55046 0.0
H1471 H 0.35391 0.52808 0.58243 0.0
H1472 H 0.38791 0.56902 0.53079 0.0
H1473 H 0.33276 0.69398 0.52712 0.0
H1474 H 0.35057 0.70223 0.54353 0.0
H1475 H 0.33501 0.65726 0.54599 0.0
C1476 C 0.3695 0.63273 0.58558 0.0
C1477 C 0.36326 0.59165 0.59141 0.0
C1478 C 0.37097 0.64196 0.56707 0.0
C1479 C 0.36626 0.61022 0.55417 0.0
C1480 C 0.36025 0.56921 0.56009 0.0
H1481 H 0.33276 0.59784 0.44472 0.0
H1482 H 0.33635 0.60428 0.47731 0.0
C1483 C 0.35872 0.56009 0.57843 0.0
C1484 C 0.36748 0.61872 0.53443 0.0
H1485 H 0.34662 0.67336 0.49991 0.0
C1486 C 0.37909 0.59233 0.52404 0.0
C1487 C 0.35583 0.64879 0.52561 0.0
C1488 C 0.34271 0.67711 0.53603 0.0
C1489 C 0.37898 0.59418 0.50512 0.0
C1490 C 0.36708 0.62367 0.49626 0.0
C1491 C 0.35583 0.65098 0.50667 0.0
C1492 C 0.36486 0.6236 0.47629 0.0
C1493 C 0.39093 0.56291 0.49476 0.0
C1494 C 0.37956 0.63332 0.46473 0.0
C1495 C 0.37754 0.6296 0.44599 0.0
C1496 C 0.36075 0.61613 0.43849 0.0
C1497 C 0.3459 0.60805 0.45006 0.0
C1498 C 0.34792 0.61184 0.46872 0.0
H1499 H 0.39658 0.53672 0.50348 0.0
H1500 H 0.3831 0.54754 0.48362 0.0
H1501 H 0.40261 0.58105 0.4888 0.0
H1502 H 0.39269 0.64319 0.4702 0.0
H1503 H 0.38921 0.63628 0.43743 0.0
H1504 H 0.92803 0.91706 0.1187 0.0
H1505 H 0.95988 0.93992 0.11742 0.0
H1506 H 0.94621 0.05972 0.14463 0.0
H1507 H 0.91405 0.03661 0.14637 0.0
H1508 H 0.97636 1.01127 0.10224 0.0
H1509 H 0.98666 1.00739 0.17631 0.0
H1510 H 0.96672 0.98415 0.16558 0.0
H1511 H 0.96838 0.04211 0.16878 0.0
C1512 C 0.93168 0.9484 0.1244 0.0
C1513 C 0.91851 0.97481 0.13286 0.0
C1514 C 0.94993 0.96141 0.1236 0.0
C1515 C 0.95542 1.00105 0.13122 0.0
C1516 C 0.94225 0.02852 0.139 0.0
H1517 H 0.05926 0.12769 0.11623 0.0
H1518 H 0.0275 0.10393 0.11536 0.0
C1519 C 0.92389 1.01546 0.13985 0.0
C1520 C 0.97506 1.01276 0.13117 0.0
H1521 H 0.01163 0.03199 0.15868 0.0
C1522 C 0.98408 1.01586 0.11457 0.0
C1523 C 0.98512 1.01771 0.14731 0.0
C1524 C 0.97631 1.0123 0.16553 0.0
C1525 C 0.00292 0.02441 0.11364 0.0
C1526 C 0.01286 0.03082 0.12976 0.0
C1527 C 0.00391 0.02712 0.14637 0.0
C1528 C 0.03237 0.04355 0.12963 0.0
C1529 C 0.01205 0.02594 0.09545 0.0
C1530 C 0.04562 1.01761 0.13818 0.0
C1531 C 0.06391 0.03125 0.13883 0.0
C1532 C 0.06911 0.0712 0.13107 0.0
C1533 C 0.05577 0.09668 0.12233 0.0
C1534 C 0.03759 0.08307 0.1217 0.0
H1535 H 0.00398 1.00791 0.08517 0.0
H1536 H 0.01316 0.06039 0.09099 0.0
H1537 H 0.02606 1.01195 0.09602 0.0
H1538 H 0.04177 0.98707 0.14447 0.0
H1539 H 0.07386 1.01104 0.14572 0.0
H1540 H 0.91657 1.00468 0.3774 0.0
H1541 H 0.94869 0.98103 0.37843 0.0
H1542 H 0.9634 0.10007 0.40578 0.0
H1543 H 0.93164 0.12344 0.40516 0.0
H1544 H 0.97835 0.02373 0.36309 0.0
H1545 H 0.98804 1.00815 0.43668 0.0
H1546 H 0.96566 1.01134 0.42641 0.0
H1547 H 0.9788 0.06014 0.43036 0.0
C1548 C 0.92662 0.02542 0.38388 0.0
C1549 C 0.92154 0.06587 0.39121 0.0
C1550 C 0.94494 1.01196 0.38441 0.0
C1551 C 0.95834 0.03859 0.3924 0.0
C1552 C 0.95322 0.07861 0.39991 0.0
H1553 H 0.07587 0.03878 0.37223 0.0
H1554 H 0.04331 0.05799 0.3741 0.0
C1555 C 0.93502 0.09202 0.39942 0.0
C1556 C 0.97789 0.02622 0.39203 0.0
H1557 H 0.01533 1.01252 0.41893 0.0
C1558 C 0.98643 0.02083 0.37528 0.0
C1559 C 0.98833 0.02226 0.40798 0.0
C1560 C 0.9797 0.02534 0.42637 0.0
C1561 C 0.00528 1.01246 0.37404 0.0
C1562 C 0.01586 1.01043 0.38997 0.0
C1563 C 0.00723 1.01489 0.40673 0.0
C1564 C 0.03572 1.00101 0.38965 0.0
C1565 C 0.01361 1.00519 0.35572 0.0
C1566 C 0.04229 0.96377 0.39843 0.0
C1567 C 0.0608 0.9531 0.3976 0.0
C1568 C 0.07316 0.97943 0.38794 0.0
C1569 C 0.06669 1.01771 0.3797 0.0
C1570 C 0.04808 0.0285 0.38061 0.0
H1571 H 0.00304 0.99708 0.34549 0.0
H1572 H 0.02069 0.03543 0.35133 0.0
H1573 H 0.02385 0.97844 0.35611 0.0
H1574 H 0.033 0.94231 0.40559 0.0
H1575 H 0.06529 0.92352 0.40424 0.0
H1576 H 0.07586 0.99819 0.87245 0.0
H1577 H 0.04354 0.97645 0.87435 0.0
H1578 H 0.03121 0.09512 0.90298 0.0
H1579 H 0.0632 0.11652 0.90159 0.0
H1580 H 0.01486 0.02443 0.91807 0.0
H1581 H 0.00231 0.02979 0.84436 0.0
H1582 H 0.02053 0.9941 0.85122 0.0
H1583 H 0.02277 0.05193 0.85452 0.0
C1584 C 0.06627 1.01947 0.87924 0.0
C1585 C 0.07211 0.05921 0.88675 0.0
C1586 C 0.04781 1.00717 0.88019 0.0
C1587 C 0.03497 0.0346 0.88853 0.0
C1588 C 0.04088 0.0736 0.89642 0.0
H1589 H 0.91655 0.03196 0.87643 0.0
H1590 H 0.94898 0.05283 0.8771 0.0
C1591 C 0.05923 0.08577 0.89556 0.0
C1592 C 0.01528 0.02335 0.88911 0.0
H1593 H 0.97773 1.00602 0.86266 0.0
C1594 C 0.00673 0.02033 0.90596 0.0
C1595 C 0.00468 1.01892 0.87327 0.0
C1596 C 0.01296 0.02422 0.8548 0.0
C1597 C 0.98786 1.01272 0.90744 0.0
C1598 C 0.97736 1.00702 0.89162 0.0
C1599 C 0.98587 1.01033 0.87476 0.0
C1600 C 0.95764 0.9962 0.89227 0.0
C1601 C 0.97929 1.01172 0.92591 0.0
C1602 C 0.95184 0.95767 0.90066 0.0
C1603 C 0.93341 0.94586 0.90041 0.0
C1604 C 0.92041 0.9721 0.89156 0.0
C1605 C 0.9262 1.01113 0.88341 0.0
C1606 C 0.9447 0.02301 0.88372 0.0
H1607 H 0.98783 0.02937 0.93592 0.0
H1608 H 0.9654 0.02644 0.92576 0.0
H1609 H 0.97802 0.97735 0.93043 0.0
H1610 H 0.96165 0.93609 0.90701 0.0
H1611 H 0.92948 0.91549 0.90679 0.0
H1612 H 0.93097 0.12274 0.62109 0.0
H1613 H 0.9627 0.09936 0.61971 0.0
H1614 H 0.94887 0.98101 0.64803 0.0
H1615 H 0.91677 1.00461 0.64981 0.0
H1616 H 0.97964 0.02548 0.66197 0.0
H1617 H 0.98501 1.00454 0.58812 0.0
H1618 H 0.97603 0.05672 0.59452 0.0
H1619 H 0.96327 1.00799 0.5996 0.0
C1620 C 0.93454 0.0915 0.62693 0.0
C1621 C 0.92131 0.06545 0.63555 0.0
C1622 C 0.95271 0.07813 0.62602 0.0
C1623 C 0.95804 0.03828 0.63354 0.0
C1624 C 0.94492 1.01183 0.64205 0.0
H1625 H 0.06209 0.91492 0.61761 0.0
H1626 H 0.03012 0.93649 0.6183 0.0
C1627 C 0.92662 0.02524 0.64299 0.0
C1628 C 0.97752 0.02554 0.63308 0.0
H1629 H 0.01315 1.00792 0.6044 0.0
C1630 C 0.98698 0.02125 0.64941 0.0
C1631 C 0.98695 1.01998 0.61666 0.0
C1632 C 0.97726 0.02212 0.59873 0.0
C1633 C 0.00581 1.01214 0.64975 0.0
C1634 C 0.01537 1.0081 0.6333 0.0
C1635 C 0.00582 1.01178 0.61699 0.0
C1636 C 0.03501 0.99674 0.63264 0.0
C1637 C 0.01522 1.00612 0.66766 0.0
C1638 C 0.04845 0.02406 0.64018 0.0
C1639 C 0.06691 1.01171 0.63989 0.0
C1640 C 0.0721 0.97202 0.63196 0.0
C1641 C 0.05861 0.94562 0.62393 0.0
C1642 C 0.04028 0.95787 0.62428 0.0
H1643 H 0.00523 1.00048 0.67869 0.0
H1644 H 0.02488 0.9782 0.66721 0.0
H1645 H 0.02318 0.03596 0.67091 0.0
H1646 H 0.04465 0.05469 0.64637 0.0
H1647 H 0.07701 0.03276 0.64613 0.0
H1648 H 0.42645 0.4261 0.11801 0.0
H1649 H 0.45862 0.44609 0.11657 0.0
H1650 H 0.44775 0.56172 0.14778 0.0
H1651 H 0.41531 0.54126 0.14977 0.0
H1652 H 0.47643 0.51631 0.10334 0.0
H1653 H 0.48762 0.50156 0.17702 0.0
H1654 H 0.46695 0.48277 0.16615 0.0
H1655 H 0.47014 0.53984 0.17075 0.0
C1656 C 0.43079 0.45595 0.12455 0.0
C1657 C 0.41832 0.48182 0.13423 0.0
C1658 C 0.44923 0.46733 0.12366 0.0
C1659 C 0.45562 0.50485 0.13238 0.0
C1660 C 0.44312 0.53203 0.14132 0.0
H1661 H 0.56229 0.61935 0.11747 0.0
H1662 H 0.53004 0.59989 0.1165 0.0
C1663 C 0.42458 0.52052 0.14231 0.0
C1664 C 0.47548 0.51447 0.13229 0.0
H1665 H 0.51273 0.52644 0.15964 0.0
C1666 C 0.48438 0.51857 0.11565 0.0
C1667 C 0.48585 0.51636 0.14836 0.0
C1668 C 0.47723 0.5095 0.16659 0.0
C1669 C 0.50336 0.52501 0.11462 0.0
C1670 C 0.51363 0.52848 0.1307 0.0
C1671 C 0.50478 0.52388 0.14735 0.0
C1672 C 0.53343 0.53866 0.13059 0.0
C1673 C 0.51227 0.52722 0.09633 0.0
C1674 C 0.54605 0.51095 0.13912 0.0
C1675 C 0.56462 0.52222 0.13991 0.0
C1676 C 0.57079 0.5615 0.13224 0.0
C1677 C 0.55809 0.58872 0.12347 0.0
C1678 C 0.5396 0.57755 0.12278 0.0
H1679 H 0.50383 0.51052 0.08596 0.0
H1680 H 0.51371 0.56189 0.09226 0.0
H1681 H 0.5261 0.51221 0.09651 0.0
H1682 H 0.54149 0.48085 0.14533 0.0
H1683 H 0.57404 0.50063 0.14681 0.0
H1684 H 0.41922 0.52521 0.36885 0.0
H1685 H 0.45166 0.50471 0.3691 0.0
H1686 H 0.46003 0.58213 0.41689 0.0
H1687 H 0.42791 0.6041 0.41621 0.0
H1688 H 0.48506 0.60054 0.39273 0.0
H1689 H 0.48003 0.42087 0.3994 0.0
H1690 H 0.46773 0.44134 0.3803 0.0
H1691 H 0.46058 0.45622 0.40263 0.0
C1692 C 0.42795 0.5371 0.37957 0.0
C1693 C 0.42115 0.5662 0.3925 0.0
C1694 C 0.44645 0.52531 0.37975 0.0
C1695 C 0.45824 0.54158 0.39312 0.0
C1696 C 0.45121 0.56932 0.40642 0.0
H1697 H 0.56688 0.44516 0.41478 0.0
H1698 H 0.5348 0.46726 0.41606 0.0
C1699 C 0.43286 0.58173 0.40605 0.0
C1700 C 0.47813 0.53216 0.39274 0.0
H1701 H 0.50939 0.44971 0.39214 0.0
C1702 C 0.49039 0.56754 0.39272 0.0
C1703 C 0.48505 0.48913 0.39286 0.0
C1704 C 0.47267 0.44974 0.39398 0.0
C1705 C 0.50941 0.56111 0.39289 0.0
C1706 C 0.51632 0.51809 0.39244 0.0
C1707 C 0.50406 0.48272 0.39239 0.0
C1708 C 0.53621 0.50865 0.39249 0.0
C1709 C 0.52181 0.60046 0.39405 0.0
C1710 C 0.54778 0.52535 0.37903 0.0
C1711 C 0.56627 0.51348 0.37852 0.0
C1712 C 0.57327 0.48387 0.39117 0.0
C1713 C 0.56178 0.46792 0.40482 0.0
C1714 C 0.54345 0.48041 0.40553 0.0
H1715 H 0.51454 0.62913 0.39973 0.0
H1716 H 0.53403 0.59366 0.4025 0.0
H1717 H 0.52653 0.60934 0.38035 0.0
H1718 H 0.5424 0.54636 0.36858 0.0
H1719 H 0.57482 0.52572 0.36773 0.0
H1720 H 0.41683 0.51837 0.86967 0.0
H1721 H 0.44956 0.53578 0.86905 0.0
H1722 H 0.45758 0.4612 0.91767 0.0
H1723 H 0.42505 0.4423 0.91796 0.0
H1724 H 0.47203 0.57675 0.89104 0.0
H1725 H 0.49443 0.40493 0.88525 0.0
H1726 H 0.47076 0.42093 0.88307 0.0
H1727 H 0.48087 0.41387 0.90499 0.0
C1728 C 0.42556 0.50608 0.88032 0.0
C1729 C 0.41848 0.47864 0.89376 0.0
C1730 C 0.44425 0.51586 0.87991 0.0
C1731 C 0.45608 0.49868 0.89302 0.0
C1732 C 0.44881 0.47347 0.90706 0.0
H1733 H 0.56448 0.59754 0.91463 0.0
H1734 H 0.53235 0.57547 0.91572 0.0
C1735 C 0.43021 0.46308 0.90731 0.0
C1736 C 0.47602 0.5072 0.89201 0.0
H1737 H 0.5178 0.45719 0.89192 0.0
C1738 C 0.48203 0.5506 0.89112 0.0
C1739 C 0.48904 0.47299 0.8917 0.0
C1740 C 0.48345 0.42558 0.8911 0.0
C1741 C 0.50073 0.56083 0.89038 0.0
C1742 C 0.51377 0.52672 0.89122 0.0
C1743 C 0.50777 0.48327 0.89161 0.0
C1744 C 0.53368 0.5357 0.89171 0.0
C1745 C 0.50626 0.60807 0.88838 0.0
C1746 C 0.54537 0.51814 0.87858 0.0
C1747 C 0.5639 0.52984 0.8782 0.0
C1748 C 0.57084 0.55954 0.89085 0.0
C1749 C 0.55935 0.57511 0.90454 0.0
C1750 C 0.54098 0.56282 0.9051 0.0
H1751 H 0.4951 0.62776 0.88227 0.0
H1752 H 0.50921 0.6219 0.90186 0.0
H1753 H 0.51871 0.61151 0.87993 0.0
H1754 H 0.54002 0.49673 0.86824 0.0
H1755 H 0.57252 0.51748 0.86751 0.0
H1756 H 0.41763 0.50157 0.65071 0.0
H1757 H 0.45025 0.48292 0.64896 0.0
H1758 H 0.46049 0.59987 0.61827 0.0
H1759 H 0.42816 0.61814 0.61948 0.0
H1760 H 0.47847 0.53043 0.60465 0.0
H1761 H 0.49006 0.5436 0.67827 0.0
H1762 H 0.47257 0.50515 0.67207 0.0
H1763 H 0.46929 0.56224 0.66758 0.0
C1764 C 0.42681 0.52305 0.64345 0.0
C1765 C 0.42031 0.56152 0.63539 0.0
C1766 C 0.44545 0.51256 0.6426 0.0
C1767 C 0.4578 0.54057 0.63382 0.0
C1768 C 0.4512 0.57802 0.62522 0.0
H1769 H 0.57671 0.53703 0.64762 0.0
H1770 H 0.54467 0.56102 0.64607 0.0
C1771 C 0.43267 0.58839 0.62597 0.0
C1772 C 0.47768 0.53149 0.63361 0.0
H1773 H 0.51496 0.5178 0.66074 0.0
C1774 C 0.48647 0.52775 0.61691 0.0
C1775 C 0.48811 0.52911 0.64962 0.0
C1776 C 0.4796 0.53565 0.66791 0.0
C1777 C 0.50539 0.5207 0.61578 0.0
C1778 C 0.51568 0.51633 0.63179 0.0
C1779 C 0.50698 0.52104 0.64849 0.0
C1780 C 0.53524 0.50405 0.63155 0.0
C1781 C 0.5142 0.51839 0.59744 0.0
C1782 C 0.54046 0.46431 0.62386 0.0
C1783 C 0.55862 0.45072 0.62464 0.0
C1784 C 0.57194 0.47639 0.63333 0.0
C1785 C 0.56678 0.51666 0.64077 0.0
C1786 C 0.54851 0.53031 0.63995 0.0
H1787 H 0.50595 0.536 0.58719 0.0
H1788 H 0.52824 0.5324 0.59763 0.0
H1789 H 0.51514 0.48376 0.59322 0.0
H1790 H 0.53037 0.44313 0.61767 0.0
H1791 H 0.56207 0.41947 0.61878 0.0
H1792 H 0.15063 0.80061 0.12223 0.0
H1793 H 0.14798 0.7211 0.12079 0.0
H1794 H 0.10461 0.72459 0.16007 0.0
H1795 H 0.10677 0.80417 0.16121 0.0
H1796 H 0.15276 0.66085 0.14845 0.0
H1797 H 0.08243 0.649 0.12045 0.0
H1798 H 0.09546 0.69909 0.12016 0.0
H1799 H 0.08411 0.68175 0.1404 0.0
C1800 C 0.14029 0.7846 0.13034 0.0
C1801 C 0.12885 0.80901 0.14177 0.0
C1802 C 0.1389 0.73904 0.1296 0.0
C1803 C 0.12595 0.71679 0.14015 0.0
C1804 C 0.1145 0.74099 0.15156 0.0
H1805 H 0.09787 0.44323 0.15655 0.0
H1806 H 0.10061 0.52269 0.1582 0.0
C1807 C 0.11589 0.78654 0.15233 0.0
C1808 C 0.12483 0.66823 0.13963 0.0
H1809 H 0.09591 0.58307 0.13068 0.0
C1810 C 0.14036 0.64384 0.14448 0.0
C1811 C 0.10863 0.64598 0.1345 0.0
C1812 C 0.09175 0.67021 0.12842 0.0
C1813 C 0.14003 0.59793 0.14464 0.0
C1814 C 0.12384 0.57567 0.13951 0.0
C1815 C 0.10831 0.60007 0.13466 0.0
C1816 C 0.12273 0.52712 0.13894 0.0
C1817 C 0.15692 0.5737 0.15072 0.0
C1818 C 0.1342 0.503 0.12752 0.0
C1819 C 0.13275 0.45747 0.12663 0.0
C1820 C 0.11971 0.43495 0.13707 0.0
C1821 C 0.10826 0.45927 0.14853 0.0
C1822 C 0.10971 0.50481 0.14939 0.0
H1823 H 0.16621 0.59488 0.15874 0.0
H1824 H 0.15321 0.54474 0.15894 0.0
H1825 H 0.1646 0.5623 0.13875 0.0
H1826 H 0.14414 0.51944 0.11908 0.0
H1827 H 0.14188 0.4399 0.11774 0.0
H1828 H 0.83637 0.25204 0.16864 0.0
H1829 H 0.83873 0.33118 0.16545 0.0
H1830 H 0.86882 0.31492 0.11606 0.0
H1831 H 0.86601 0.2356 0.11882 0.0
H1832 H 0.86976 0.38269 0.16403 0.0
H1833 H 0.82931 0.40184 0.10129 0.0
H1834 H 0.82904 0.35226 0.1144 0.0
H1835 H 0.84791 0.36379 0.09961 0.0
C1836 C 0.84325 0.26517 0.15692 0.0
C1837 C 0.85086 0.23716 0.14391 0.0
C1838 C 0.8447 0.31055 0.1552 0.0
C1839 C 0.8537 0.32921 0.14038 0.0
C1840 C 0.86148 0.30145 0.12744 0.0
H1841 H 0.87921 0.59663 0.10883 0.0
H1842 H 0.87547 0.51744 0.11063 0.0
C1843 C 0.86005 0.25598 0.12916 0.0
C1844 C 0.85538 0.37762 0.13883 0.0
H1845 H 0.84482 0.46477 0.11198 0.0
C1846 C 0.86423 0.40064 0.15268 0.0
C1847 C 0.84823 0.40115 0.124 0.0
C1848 C 0.83794 0.37864 0.10904 0.0
C1849 C 0.86638 0.44624 0.15199 0.0
C1850 C 0.85915 0.46984 0.13721 0.0
C1851 C 0.85034 0.44681 0.12332 0.0
C1852 C 0.86075 0.51831 0.13587 0.0
C1853 C 0.87682 0.46858 0.16691 0.0
C1854 C 0.85335 0.5455 0.14921 0.0
C1855 C 0.8556 0.59088 0.14831 0.0
C1856 C 0.86521 0.61029 0.13394 0.0
C1857 C 0.87204 0.58297 0.12027 0.0
C1858 C 0.8698 0.5376 0.12121 0.0
H1859 H 0.88566 0.44533 0.17441 0.0
H1860 H 0.88554 0.4953 0.16158 0.0
H1861 H 0.86694 0.48285 0.17659 0.0
H1862 H 0.84595 0.5316 0.16046 0.0
H1863 H 0.85025 0.6106 0.15916 0.0
H1864 H 0.11416 0.252 0.35139 0.0
H1865 H 0.11228 0.33148 0.3537 0.0
H1866 H 0.15583 0.33101 0.39291 0.0
H1867 H 0.15815 0.25159 0.39034 0.0
H1868 H 0.10504 0.38357 0.38383 0.0
H1869 H 0.17382 0.42002 0.35565 0.0
H1870 H 0.16309 0.36719 0.35349 0.0
H1871 H 0.17385 0.38268 0.37428 0.0
C1872 C 0.12348 0.26879 0.36039 0.0
C1873 C 0.13641 0.24531 0.37059 0.0
C1874 C 0.1223 0.31424 0.36177 0.0
C1875 C 0.1341 0.33733 0.37326 0.0
C1876 C 0.1468 0.31401 0.38371 0.0
H1877 H 0.14725 0.61275 0.3992 0.0
H1878 H 0.14981 0.53329 0.39719 0.0
C1879 C 0.14796 0.26851 0.38238 0.0
C1880 C 0.13291 0.38571 0.37445 0.0
H1881 H 0.1572 0.47972 0.36755 0.0
C1882 C 0.11642 0.40461 0.38021 0.0
C1883 C 0.14779 0.41316 0.36976 0.0
C1884 C 0.1656 0.39488 0.36279 0.0
C1885 C 0.11447 0.4501 0.38167 0.0
C1886 C 0.12931 0.47756 0.37689 0.0
C1887 C 0.14584 0.45867 0.37119 0.0
C1888 C 0.12795 0.52597 0.37775 0.0
C1889 C 0.09667 0.46832 0.38868 0.0
C1890 C 0.11506 0.54846 0.36723 0.0
C1891 C 0.11351 0.59389 0.36839 0.0
C1892 C 0.12488 0.61791 0.38007 0.0
C1893 C 0.13808 0.59531 0.39027 0.0
C1894 C 0.13964 0.54988 0.38907 0.0
H1895 H 0.08862 0.4433 0.39609 0.0
H1896 H 0.09916 0.49646 0.39777 0.0
H1897 H 0.08824 0.47981 0.37719 0.0
H1898 H 0.10611 0.53082 0.35814 0.0
H1899 H 0.1031 0.61008 0.36044 0.0
H1900 H 0.8489 0.43416 0.40389 0.0
H1901 H 0.84648 0.5137 0.40246 0.0
H1902 H 0.89056 0.51771 0.36395 0.0
H1903 H 0.89314 0.43828 0.36535 0.0
H1904 H 0.8727 0.57578 0.41081 0.0
H1905 H 0.85171 0.59201 0.33941 0.0
H1906 H 0.85101 0.5406 0.35124 0.0
H1907 H 0.87235 0.56118 0.3426 0.0
C1908 C 0.8581 0.45191 0.3951 0.0
C1909 C 0.87118 0.4296 0.38468 0.0
C1910 C 0.85664 0.49744 0.39426 0.0
C1911 C 0.86816 0.52178 0.38291 0.0
C1912 C 0.88122 0.49967 0.37248 0.0
H1913 H 0.88373 0.79898 0.36166 0.0
H1914 H 0.88596 0.71939 0.36296 0.0
C1915 C 0.88267 0.45414 0.37329 0.0
C1916 C 0.86693 0.57034 0.3825 0.0
H1917 H 0.85968 0.65742 0.35463 0.0
C1918 C 0.86975 0.59362 0.39854 0.0
C1919 C 0.86315 0.5937 0.36649 0.0
C1920 C 0.85921 0.57065 0.34898 0.0
C1921 C 0.86923 0.6395 0.39895 0.0
C1922 C 0.86545 0.66287 0.38293 0.0
C1923 C 0.86262 0.63959 0.36689 0.0
C1924 C 0.86428 0.71143 0.38252 0.0
C1925 C 0.87317 0.66254 0.41646 0.0
C1926 C 0.85126 0.73363 0.39298 0.0
C1927 C 0.84993 0.77919 0.39224 0.0
C1928 C 0.86148 0.80368 0.3809 0.0
C1929 C 0.87449 0.78128 0.37042 0.0
C1930 C 0.87583 0.73572 0.37119 0.0
H1931 H 0.88066 0.64117 0.42604 0.0
H1932 H 0.88138 0.69256 0.4142 0.0
H1933 H 0.86003 0.67204 0.42283 0.0
H1934 H 0.84189 0.71564 0.40149 0.0
H1935 H 0.8395 0.79512 0.40023 0.0
H1936 H 0.87998 0.24267 0.85735 0.0
H1937 H 0.88216 0.32208 0.85975 0.0
H1938 H 0.83659 0.32262 0.89661 0.0
H1939 H 0.83429 0.2432 0.89427 0.0
H1940 H 0.85624 0.3845 0.85124 0.0
H1941 H 0.87455 0.39485 0.92357 0.0
H1942 H 0.87564 0.34444 0.91109 0.0
H1943 H 0.854 0.36444 0.91912 0.0
C1944 C 0.87038 0.25964 0.86596 0.0
C1945 C 0.85698 0.2364 0.87566 0.0
C1946 C 0.8717 0.30507 0.86736 0.0
C1947 C 0.85971 0.32837 0.87855 0.0
C1948 C 0.84628 0.30535 0.88822 0.0
H1949 H 0.84566 0.60464 0.90272 0.0
H1950 H 0.8425 0.52535 0.90032 0.0
C1951 C 0.84498 0.25987 0.88686 0.0
C1952 C 0.86095 0.37681 0.87965 0.0
H1953 H 0.86776 0.4615 0.90881 0.0
C1954 C 0.85883 0.40133 0.86382 0.0
C1955 C 0.86427 0.39882 0.89607 0.0
C1956 C 0.86742 0.37435 0.91342 0.0
C1957 C 0.85968 0.44717 0.86399 0.0
C1958 C 0.86308 0.46918 0.88039 0.0
C1959 C 0.86512 0.44467 0.89624 0.0
C1960 C 0.86475 0.51755 0.88141 0.0
C1961 C 0.85654 0.47163 0.84664 0.0
C1962 C 0.87839 0.53966 0.87166 0.0
C1963 C 0.88025 0.58502 0.87302 0.0
C1964 C 0.86861 0.6093 0.88429 0.0
C1965 C 0.85497 0.58701 0.89404 0.0
C1966 C 0.8531 0.54166 0.89264 0.0
H1967 H 0.84914 0.45133 0.8366 0.0
H1968 H 0.84857 0.50192 0.84899 0.0
H1969 H 0.86997 0.48085 0.84077 0.0
H1970 H 0.88785 0.52174 0.86324 0.0
H1971 H 0.89113 0.60091 0.86559 0.0
H1972 H 0.1083 0.43702 0.90696 0.0
H1973 H 0.11191 0.51602 0.90439 0.0
H1974 H 0.1429 0.49916 0.85556 0.0
H1975 H 0.13949 0.41993 0.85809 0.0
H1976 H 0.14367 0.56642 0.90347 0.0
H1977 H 0.10356 0.58679 0.84055 0.0
H1978 H 0.10288 0.53734 0.85373 0.0
H1979 H 0.12189 0.54797 0.839 0.0
C1980 C 0.11603 0.44998 0.89573 0.0
C1981 C 0.12359 0.42193 0.88272 0.0
C1982 C 0.11799 0.49525 0.89424 0.0
C1983 C 0.12745 0.51363 0.87966 0.0
C1984 C 0.13519 0.48582 0.86673 0.0
H1985 H 0.15374 0.77969 0.84806 0.0
H1986 H 0.15113 0.70047 0.85076 0.0
C1987 C 0.13323 0.44047 0.8682 0.0
C1988 C 0.1294 0.56186 0.87819 0.0
H1989 H 0.11929 0.64919 0.85135 0.0
C1990 C 0.13828 0.58454 0.89211 0.0
C1991 C 0.12238 0.58552 0.86335 0.0
C1992 C 0.11199 0.56331 0.84837 0.0
C1993 C 0.14059 0.63008 0.89147 0.0
C1994 C 0.13355 0.65373 0.87664 0.0
C1995 C 0.1247 0.63104 0.8627 0.0
C1996 C 0.13525 0.70201 0.87528 0.0
C1997 C 0.15088 0.65238 0.90648 0.0
C1998 C 0.12704 0.72937 0.8881 0.0
C1999 C 0.1284 0.77482 0.88654 0.0
C2000 C 0.13791 0.79392 0.87206 0.0
C2001 C 0.14609 0.76629 0.85925 0.0
C2002 C 0.1447 0.72091 0.86081 0.0
H2003 H 0.15931 0.62897 0.91433 0.0
H2004 H 0.15997 0.67843 0.90115 0.0
H2005 H 0.14092 0.66767 0.91581 0.0
H2006 H 0.11934 0.71558 0.89918 0.0
H2007 H 0.12167 0.79497 0.89648 0.0
H2008 H 0.84674 0.79019 0.67295 0.0
H2009 H 0.84956 0.71084 0.67155 0.0
H2010 H 0.8782 0.72178 0.62107 0.0
H2011 H 0.87599 0.80134 0.62264 0.0
H2012 H 0.83635 0.65381 0.64577 0.0
H2013 H 0.91211 0.64294 0.65008 0.0
H2014 H 0.89976 0.69224 0.65537 0.0
H2015 H 0.90396 0.6776 0.63233 0.0
C2016 C 0.85392 0.77586 0.66168 0.0
C2017 C 0.86128 0.80239 0.64799 0.0
C2018 C 0.85538 0.73038 0.66083 0.0
C2019 C 0.86432 0.71026 0.64635 0.0
C2020 C 0.87154 0.73652 0.63256 0.0
H2021 H 0.88577 0.44174 0.6157 0.0
H2022 H 0.88286 0.52102 0.6174 0.0
C2023 C 0.87008 0.78206 0.63339 0.0
C2024 C 0.86566 0.6618 0.64549 0.0
H2025 H 0.89616 0.57741 0.64341 0.0
C2026 C 0.84943 0.63709 0.64534 0.0
C2027 C 0.88272 0.63994 0.64492 0.0
C2028 C 0.90065 0.66444 0.64585 0.0
C2029 C 0.84978 0.59127 0.64428 0.0
C2030 C 0.86685 0.56942 0.64368 0.0
C2031 C 0.88308 0.59413 0.64386 0.0
C2032 C 0.8682 0.52099 0.64266 0.0
C2033 C 0.83186 0.56675 0.64336 0.0
C2034 C 0.86105 0.4944 0.65637 0.0
C2035 C 0.86257 0.44888 0.65539 0.0
C2036 C 0.87134 0.42892 0.64068 0.0
C2037 C 0.87862 0.45578 0.62706 0.0
C2038 C 0.8771 0.50122 0.62807 0.0
H2039 H 0.82036 0.58829 0.63926 0.0
H2040 H 0.83272 0.53915 0.63374 0.0
H2041 H 0.82863 0.55328 0.65685 0.0
H2042 H 0.85443 0.50886 0.66794 0.0
H2043 H 0.85673 0.42932 0.66608 0.0
H2044 H 0.16374 0.24881 0.63801 0.0
H2045 H 0.16102 0.32826 0.63757 0.0
H2046 H 0.10215 0.31699 0.63883 0.0
H2047 H 0.10471 0.23741 0.6391 0.0
H2048 H 0.14369 0.38304 0.61302 0.0
H2049 H 0.1126 0.39955 0.68075 0.0
H2050 H 0.12329 0.34977 0.67321 0.0
H2051 H 0.10045 0.36319 0.66602 0.0
C2052 C 0.15018 0.26311 0.63801 0.0
C2053 C 0.13444 0.2365 0.63863 0.0
C2054 C 0.14866 0.30863 0.63787 0.0
C2055 C 0.1314 0.32869 0.63847 0.0
C2056 C 0.11564 0.30232 0.63879 0.0
H2057 H 0.0928 0.59632 0.63684 0.0
H2058 H 0.09606 0.51704 0.63749 0.0
C2059 C 0.11713 0.25676 0.63893 0.0
C2060 C 0.12992 0.37714 0.6385 0.0
H2061 H 0.11371 0.46352 0.66278 0.0
C2062 C 0.13722 0.40066 0.62394 0.0
C2063 C 0.12148 0.40017 0.65276 0.0
C2064 C 0.11415 0.377 0.66916 0.0
C2065 C 0.13597 0.44641 0.62308 0.0
C2066 C 0.12746 0.4694 0.6373 0.0
C2067 C 0.12021 0.4459 0.65188 0.0
C2068 C 0.12569 0.51778 0.63719 0.0
C2069 C 0.14336 0.46966 0.60672 0.0
C2070 C 0.14127 0.54474 0.63711 0.0
C2071 C 0.13947 0.59025 0.63688 0.0
C2072 C 0.12202 0.60983 0.63683 0.0
C2073 C 0.10646 0.58259 0.63715 0.0
C2074 C 0.10828 0.53715 0.6374 0.0
H2075 H 0.1453 0.44702 0.59522 0.0
H2076 H 0.13402 0.49633 0.60247 0.0
H2077 H 0.15686 0.48429 0.61004 0.0
H2078 H 0.15486 0.53058 0.63734 0.0
H2079 H 0.15176 0.61008 0.63693 0.0
H2080 H 0.60077 0.93092 0.15481 0.0
H2081 H 0.60402 1.01021 0.15681 0.0
H2082 H 0.65143 1.00485 0.12234 0.0
H2083 H 0.64831 0.92552 0.12029 0.0
H2084 H 0.63297 0.061 0.16916 0.0
H2085 H 0.61927 0.09477 0.09702 0.0
H2086 H 0.61454 0.04253 0.10723 0.0
H2087 H 0.63757 0.05689 0.10102 0.0
C2088 C 0.612 0.94651 0.14778 0.0
C2089 C 0.62423 0.92178 0.13731 0.0
C2090 C 0.61378 0.9919 0.14886 0.0
C2091 C 0.62776 1.01361 0.13946 0.0
C2092 C 0.64025 0.98898 0.12934 0.0
H2093 H 0.65837 0.28815 0.12993 0.0
H2094 H 0.65653 0.20857 0.12747 0.0
C2095 C 0.63847 0.94358 0.12821 0.0
C2096 C 0.62934 0.06195 0.14043 0.0
H2097 H 0.62851 0.15479 0.11493 0.0
C2098 C 0.63195 0.08152 0.15731 0.0
C2099 C 0.62806 0.08872 0.12495 0.0
C2100 C 0.62454 0.0698 0.10654 0.0
C2101 C 0.63351 0.12701 0.15912 0.0
C2102 C 0.63207 0.15381 0.14366 0.0
C2103 C 0.62961 0.13424 0.12676 0.0
C2104 C 0.63287 0.20223 0.1448 0.0
C2105 C 0.63703 0.14588 0.17754 0.0
C2106 C 0.61994 0.22527 0.15502 0.0
C2107 C 0.62093 0.27071 0.15642 0.0
C2108 C 0.63479 0.29424 0.1475 0.0
C2109 C 0.64744 0.27115 0.13687 0.0
C2110 C 0.64646 0.22563 0.13552 0.0
H2111 H 0.64279 0.12113 0.18689 0.0
H2112 H 0.64664 0.17394 0.17682 0.0
H2113 H 0.62391 0.15758 0.1833 0.0
H2114 H 0.60904 0.20808 0.16191 0.0
H2115 H 0.61074 0.28747 0.16442 0.0
H2116 H 0.36227 0.75513 0.18023 0.0
H2117 H 0.36457 0.83452 0.1781 0.0
H2118 H 0.34892 0.82863 0.12223 0.0
H2119 H 0.34675 0.74908 0.12418 0.0
H2120 H 0.3869 0.88496 0.15551 0.0
H2121 H 0.31325 0.9188 0.14295 0.0
H2122 H 0.32129 0.86683 0.1512 0.0
H2123 H 0.32343 0.88029 0.12777 0.0
C2124 C 0.35944 0.7706 0.16743 0.0
C2125 C 0.3543 0.74555 0.15237 0.0
C2126 C 0.36066 0.81607 0.16627 0.0
C2127 C 0.35666 0.83763 0.15008 0.0
C2128 C 0.35167 0.81282 0.13498 0.0
H2129 H 0.35815 0.1102 0.11698 0.0
H2130 H 0.35482 0.03087 0.11879 0.0
C2131 C 0.35045 0.76729 0.13612 0.0
C2132 C 0.35817 0.88596 0.14895 0.0
H2133 H 0.33364 0.97875 0.14066 0.0
C2134 C 0.37524 0.9055 0.15233 0.0
C2135 C 0.34297 0.91272 0.14474 0.0
C2136 C 0.32415 0.89375 0.1416 0.0
C2137 C 0.3776 0.95096 0.15135 0.0
C2138 C 0.36237 0.97779 0.14726 0.0
C2139 C 0.34531 0.95822 0.14382 0.0
C2140 C 0.36389 0.0262 0.14644 0.0
C2141 C 0.39651 0.9697 0.15427 0.0
C2142 C 0.36971 0.05019 0.16149 0.0
C2143 C 0.37162 0.09557 0.1605 0.0
C2144 C 0.36755 0.11806 0.14448 0.0
C2145 C 0.36124 0.09404 0.12958 0.0
C2146 C 0.35941 0.04862 0.13056 0.0
H2147 H 0.40735 0.94476 0.15224 0.0
H2148 H 0.39915 0.99745 0.14502 0.0
H2149 H 0.39763 0.98178 0.16829 0.0
H2150 H 0.37277 0.0338 0.17404 0.0
H2151 H 0.3762 0.1131 0.17232 0.0
H2152 H 0.62096 0.10791 0.41433 0.0
H2153 H 0.62401 0.02855 0.41289 0.0
H2154 H 0.62605 0.03502 0.35501 0.0
H2155 H 0.62351 0.11458 0.35633 0.0
H2156 H 0.60081 0.96849 0.39615 0.0
H2157 H 0.67079 0.96022 0.36718 0.0
H2158 H 0.66159 1.0095 0.37688 0.0
H2159 H 0.65501 0.99319 0.35457 0.0
C2160 C 0.62236 0.0926 0.40128 0.0
C2161 C 0.62212 0.11785 0.38545 0.0
C2162 C 0.62396 0.04712 0.40049 0.0
C2163 C 0.6255 0.02576 0.38386 0.0
C2164 C 0.6252 0.05075 0.36802 0.0
H2165 H 0.63475 0.75387 0.35135 0.0
H2166 H 0.63172 0.83322 0.35262 0.0
C2167 C 0.62356 0.09627 0.36879 0.0
C2168 C 0.6269 0.97728 0.38314 0.0
H2169 H 0.65437 0.89359 0.36924 0.0
C2170 C 0.61256 0.95211 0.39033 0.0
C2171 C 0.6422 0.95585 0.37551 0.0
C2172 C 0.65837 0.98098 0.36823 0.0
C2173 C 0.61296 0.90623 0.38984 0.0
C2174 C 0.62829 0.88478 0.38225 0.0
C2175 C 0.64262 0.90996 0.37504 0.0
C2176 C 0.62972 0.83629 0.38162 0.0
C2177 C 0.59675 0.88115 0.39706 0.0
C2178 C 0.62975 0.81141 0.3975 0.0
C2179 C 0.63136 0.76588 0.39682 0.0
C2180 C 0.63305 0.74413 0.38022 0.0
C2181 C 0.63313 0.76927 0.36435 0.0
C2182 C 0.63155 0.81477 0.36505 0.0
H2183 H 0.5843 0.90186 0.39788 0.0
H2184 H 0.59365 0.85237 0.38852 0.0
H2185 H 0.59996 0.86938 0.41083 0.0
H2186 H 0.62871 0.82725 0.41047 0.0
H2187 H 0.63115 0.74769 0.4093 0.0
H2188 H 0.37148 0.94145 0.41605 0.0
H2189 H 0.36839 0.02085 0.41469 0.0
H2190 H 0.36959 1.01568 0.35678 0.0
H2191 H 0.37221 0.93613 0.35799 0.0
H2192 H 0.39252 0.08141 0.39935 0.0
H2193 H 0.32419 0.09026 0.36671 0.0
H2194 H 0.33284 0.04083 0.37681 0.0
H2195 H 0.3406 0.05741 0.35491 0.0
C2196 C 0.37078 0.95705 0.403 0.0
C2197 C 0.37198 0.93217 0.38712 0.0
C2198 C 0.36916 1.00256 0.40225 0.0
C2199 C 0.36852 0.02432 0.38564 0.0
C2200 C 0.36973 0.99967 0.36976 0.0
H2201 H 0.36069 0.29699 0.35325 0.0
H2202 H 0.36374 0.21761 0.35447 0.0
C2203 C 0.37142 0.95414 0.37049 0.0
C2204 C 0.36716 0.07285 0.38497 0.0
H2205 H 0.3405 0.15683 0.36974 0.0
C2206 C 0.3811 0.09791 0.39295 0.0
C2207 C 0.35229 0.09445 0.37657 0.0
C2208 C 0.33653 0.06945 0.36839 0.0
C2209 C 0.38076 0.14381 0.39248 0.0
C2210 C 0.36587 0.16543 0.38412 0.0
C2211 C 0.35193 0.14036 0.37613 0.0
C2212 C 0.36447 0.21399 0.38352 0.0
C2213 C 0.39659 0.16871 0.40058 0.0
C2214 C 0.36374 0.23861 0.39943 0.0
C2215 C 0.36213 0.28415 0.39879 0.0
C2216 C 0.36111 0.30623 0.38219 0.0
C2217 C 0.36177 0.28136 0.36627 0.0
C2218 C 0.36336 0.23583 0.36694 0.0
H2219 H 0.409 0.14798 0.40191 0.0
H2220 H 0.40009 0.19772 0.39231 0.0
H2221 H 0.39273 0.18008 0.41422 0.0
H2222 H 0.36421 0.22256 0.4124 0.0
H2223 H 0.36178 0.30209 0.41132 0.0
H2224 H 0.35867 0.74127 0.90766 0.0
H2225 H 0.36062 0.8207 0.91052 0.0
H2226 H 0.34962 0.83451 0.85383 0.0
H2227 H 0.34691 0.75546 0.85098 0.0
H2228 H 0.38438 0.8777 0.89412 0.0
H2229 H 0.313 0.91893 0.87516 0.0
H2230 H 0.31998 0.86406 0.88064 0.0
H2231 H 0.32454 0.88626 0.85868 0.0
C2232 C 0.35636 0.76118 0.89584 0.0
C2233 C 0.35258 0.74171 0.87909 0.0
C2234 C 0.35761 0.80665 0.89748 0.0
C2235 C 0.355 0.83376 0.88245 0.0
C2236 C 0.35132 0.81447 0.86571 0.0
H2237 H 0.36254 0.11311 0.86201 0.0
H2238 H 0.35924 0.03375 0.85988 0.0
C2239 C 0.35003 0.76907 0.86406 0.0
C2240 C 0.35674 0.88207 0.88414 0.0
H2241 H 0.33408 0.97811 0.87689 0.0
C2242 C 0.37333 0.89962 0.89047 0.0
C2243 C 0.34235 0.9108 0.87933 0.0
C2244 C 0.3239 0.89412 0.87323 0.0
C2245 C 0.37606 0.94496 0.89176 0.0
C2246 C 0.3617 0.97367 0.88687 0.0
C2247 C 0.3451 0.95615 0.88058 0.0
C2248 C 0.36363 0.02196 0.88825 0.0
C2249 C 0.39447 0.96173 0.89793 0.0
C2250 C 0.36695 0.04191 0.90493 0.0
C2251 C 0.36894 0.08724 0.90618 0.0
C2252 C 0.36755 0.11383 0.89078 0.0
C2253 C 0.36395 0.09374 0.87411 0.0
C2254 C 0.36194 0.04835 0.87289 0.0
H2255 H 0.40532 0.93656 0.89659 0.0
H2256 H 0.39862 0.99102 0.89014 0.0
H2257 H 0.39359 0.97101 0.91233 0.0
H2258 H 0.36798 0.02239 0.91703 0.0
H2259 H 0.37187 0.10137 0.91921 0.0
H2260 H 0.65728 0.29024 0.89222 0.0
H2261 H 0.65427 0.2108 0.89298 0.0
H2262 H 0.60107 0.22041 0.86805 0.0
H2263 H 0.60394 0.29993 0.86728 0.0
H2264 H 0.62862 0.15804 0.9094 0.0
H2265 H 0.62674 0.13321 0.83553 0.0
H2266 H 0.63355 0.18428 0.84559 0.0
H2267 H 0.60968 0.17038 0.84367 0.0
C2268 C 0.64485 0.27558 0.88702 0.0
C2269 C 0.63088 0.30173 0.87963 0.0
C2270 C 0.6432 0.23003 0.88738 0.0
C2271 C 0.62759 0.2094 0.88028 0.0
C2272 C 0.61347 0.23537 0.87319 0.0
H2273 H 0.5916 0.93893 0.87167 0.0
H2274 H 0.59461 1.01837 0.87061 0.0
C2275 C 0.61512 0.28094 0.87279 0.0
C2276 C 0.62601 0.16084 0.88059 0.0
H2277 H 0.62042 0.07128 0.85368 0.0
C2278 C 0.62691 0.13908 0.8972 0.0
C2279 C 0.62377 0.13595 0.86468 0.0
C2280 C 0.62354 0.15702 0.84634 0.0
C2281 C 0.6253 0.09339 0.89839 0.0
C2282 C 0.62304 0.06852 0.88249 0.0
C2283 C 0.62213 0.09026 0.86587 0.0
C2284 C 0.62151 1.01996 0.88282 0.0
C2285 C 0.62558 0.07227 0.91672 0.0
C2286 C 0.63578 0.99413 0.8897 0.0
C2287 C 0.63416 0.94857 0.89024 0.0
C2288 C 0.61825 0.92766 0.88379 0.0
C2289 C 0.60414 0.95367 0.87657 0.0
C2290 C 0.60578 0.99922 0.87604 0.0
H2291 H 0.62252 0.09609 0.92756 0.0
H2292 H 0.61549 0.04517 0.91751 0.0
H2293 H 0.63941 0.05864 0.91929 0.0
H2294 H 0.64825 1.0092 0.8946 0.0
H2295 H 0.64545 0.9297 0.89559 0.0
H2296 H 0.38726 0.93082 0.66682 0.0
H2297 H 0.38328 1.00998 0.66819 0.0
H2298 H 0.34394 1.00338 0.62497 0.0
H2299 H 0.34785 0.9242 0.6235 0.0
H2300 H 0.39013 0.06971 0.64109 0.0
H2301 H 0.31721 0.07774 0.66199 0.0
H2302 H 0.33053 0.02831 0.66355 0.0
H2303 H 0.32126 0.0454 0.64227 0.0
C2304 C 0.37772 0.94618 0.65763 0.0
C2305 C 0.36786 0.9211 0.64506 0.0
C2306 C 0.37542 0.99142 0.65847 0.0
C2307 C 0.36316 1.01261 0.64684 0.0
C2308 C 0.35317 0.98769 0.63437 0.0
H2309 H 0.33567 0.28636 0.62932 0.0
H2310 H 0.33805 0.20674 0.6277 0.0
C2311 C 0.35543 0.94238 0.63355 0.0
C2312 C 0.36153 0.06096 0.64721 0.0
H2313 H 0.33131 0.14453 0.65368 0.0
C2314 C 0.37729 0.08608 0.64392 0.0
C2315 C 0.34474 0.08229 0.65077 0.0
C2316 C 0.32749 0.05713 0.65501 0.0
C2317 C 0.37669 0.13188 0.64391 0.0
C2318 C 0.35994 0.15326 0.64766 0.0
C2319 C 0.34414 0.12815 0.65081 0.0
C2320 C 0.35858 0.20162 0.64861 0.0
C2321 C 0.39394 0.15691 0.63952 0.0
C2322 C 0.36915 0.22522 0.66105 0.0
C2323 C 0.36785 0.27067 0.66197 0.0
C2324 C 0.35578 0.29355 0.65062 0.0
C2325 C 0.34502 0.26976 0.63833 0.0
C2326 C 0.3464 0.22427 0.63735 0.0
H2327 H 0.4039 0.1365 0.63201 0.0
H2328 H 0.39085 0.18644 0.63142 0.0
H2329 H 0.4006 0.16742 0.65222 0.0
H2330 H 0.37829 0.20842 0.6702 0.0
H2331 H 0.37605 0.28785 0.67185 0.0
H2332 H 0.60971 0.74233 0.6652 0.0
H2333 H 0.60737 0.82189 0.66373 0.0
H2334 H 0.65039 0.82524 0.62407 0.0
H2335 H 0.65289 0.74579 0.6255 0.0
H2336 H 0.63373 0.88423 0.67122 0.0
H2337 H 0.61093 0.89907 0.6003 0.0
H2338 H 0.61059 0.84787 0.61229 0.0
H2339 H 0.63168 0.86841 0.60307 0.0
C2340 C 0.6187 0.75993 0.65616 0.0
C2341 C 0.63144 0.73742 0.6454 0.0
C2342 C 0.61729 0.80548 0.65529 0.0
C2343 C 0.62851 0.82965 0.6436 0.0
C2344 C 0.64126 0.80735 0.63288 0.0
H2345 H 0.64319 0.10651 0.62093 0.0
H2346 H 0.64561 0.027 0.62256 0.0
C2347 C 0.64267 0.7618 0.63371 0.0
C2348 C 0.62726 0.87822 0.64307 0.0
H2349 H 0.61924 0.96477 0.61511 0.0
C2350 C 0.63046 0.90182 0.65897 0.0
C2351 C 0.62306 0.90129 0.62708 0.0
C2352 C 0.6187 0.87792 0.60975 0.0
C2353 C 0.62991 0.94772 0.65924 0.0
C2354 C 0.62571 0.97079 0.64326 0.0
C2355 C 0.62251 0.94718 0.62736 0.0
C2356 C 0.62448 1.01935 0.64271 0.0
C2357 C 0.63428 0.9711 0.67658 0.0
C2358 C 0.61172 0.04172 0.6534 0.0
C2359 C 0.61027 0.08726 0.65248 0.0
C2360 C 0.62145 0.11154 0.64071 0.0
C2361 C 0.63423 0.08897 0.63002 0.0
C2362 C 0.63568 0.04345 0.63098 0.0
H2363 H 0.64203 0.94994 0.68604 0.0
H2364 H 0.6424 1.00113 0.67403 0.0
H2365 H 0.62129 0.98065 0.68325 0.0
H2366 H 0.60261 0.02389 0.66225 0.0
H2367 H 0.60003 0.10331 0.66065 0.0
loop_
_geom_bond_atom_site_label_1
_geom_bond_atom_site_label_2
_geom_bond_distance
_geom_bond_site_symmetry_2
_ccdc_geom_bond_type
Sm0 C2 2.846 1_545 S
Sm0 O20 2.543 1_545 S
Sm0 O21 2.450 1_545 S
Sm0 O22 2.681 . S
Sm0 O23 2.464 . S
Sm0 O24 2.396 . S
Sm0 O28 2.386 . S
Sm0 O31 2.408 . S
Sm1 C11 2.846 . S
Sm1 O22 2.386 . S
Sm1 O25 2.408 . S
Sm1 O26 2.543 . S
Sm1 O27 2.450 . S
Sm1 O28 2.681 . S
Sm1 O29 2.464 . S
Sm1 O30 2.396 . S
C2 Sm0 2.846 1_565 S
C2 C3 1.506 . S
C2 O20 1.261 . S
C2 O21 1.242 . S
C3 C2 1.506 . S
C3 C4 1.358 . S
C3 C8 1.382 . S
C4 C3 1.358 . S
C4 C5 1.385 . S
C4 H32 0.930 . S
C5 C4 1.385 . S
C5 C6 1.395 . S
C5 H33 0.929 . S
C6 C5 1.395 . S
C6 C7 1.335 . S
C7 C6 1.335 . S
C7 C8 1.398 . S
C7 H34 0.930 . S
C8 C3 1.382 . S
C8 C7 1.398 . S
C8 H35 0.929 . S
C9 O22 1.271 . S
C9 O23 1.251 . S
C10 O24 1.252 . S
C10 O25 1.272 . S
C11 Sm1 2.846 . S
C11 C12 1.506 . S
C11 O26 1.261 . S
C11 O27 1.242 . S
C12 C11 1.506 . S
C12 C13 1.358 . S
C12 C17 1.382 . S
C13 C12 1.358 . S
C13 C14 1.385 . S
C13 H36 0.930 . S
C14 C13 1.385 . S
C14 C15 1.395 . S
C14 H37 0.929 . S
C15 C14 1.395 . S
C15 C16 1.335 . S
C16 C15 1.335 . S
C16 C17 1.398 . S
C16 H38 0.930 . S
C17 C12 1.382 . S
C17 C16 1.398 . S
C17 H39 0.929 . S
C18 O28 1.271 . S
C18 O29 1.251 . S
C19 O30 1.252 . S
C19 O31 1.272 . S
O20 Sm0 2.543 1_565 S
O20 C2 1.261 . S
O21 Sm0 2.450 1_565 S
O21 C2 1.242 . S
O22 Sm0 2.681 . S
O22 Sm1 2.386 . S
O22 C9 1.271 . S
O23 Sm0 2.464 . S
O23 C9 1.251 . S
O24 Sm0 2.396 . S
O24 C10 1.252 . S
O25 Sm1 2.408 . S
O25 C10 1.272 . S
O26 Sm1 2.543 . S
O26 C11 1.261 . S
O27 Sm1 2.450 . S
O27 C11 1.242 . S
O28 Sm0 2.386 . S
O28 Sm1 2.681 . S
O28 C18 1.271 . S
O29 Sm1 2.464 . S
O29 C18 1.251 . S
O30 Sm1 2.396 . S
O30 C19 1.252 . S
O31 Sm0 2.408 . S
O31 C19 1.272 . S
H32 C4 0.930 . S
H33 C5 0.929 . S
H34 C7 0.930 . S
H35 C8 0.929 . S
H36 C13 0.930 . S
H37 C14 0.929 . S
H38 C16 0.930 . S
H39 C17 0.929 . S
Sm40 C42 2.846 1_565 S
Sm40 O60 2.543 1_565 S
Sm40 O61 2.450 1_565 S
Sm40 O62 2.681 . S
Sm40 O63 2.464 . S
Sm40 O64 2.396 . S
Sm40 O68 2.386 . S
Sm40 O71 2.408 . S
Sm41 C51 2.846 . S
Sm41 O62 2.386 . S
Sm41 O65 2.408 . S
Sm41 O66 2.543 . S
Sm41 O67 2.450 . S
Sm41 O68 2.681 . S
Sm41 O69 2.464 . S
Sm41 O70 2.396 . S
C42 Sm40 2.846 1_545 S
C42 C43 1.506 . S
C42 O60 1.261 . S
C42 O61 1.242 . S
C43 C42 1.506 . S
C43 C44 1.358 . S
C43 C48 1.382 . S
C44 C43 1.358 . S
C44 C45 1.385 . S
C44 H72 0.930 . S
C45 C44 1.385 . S
C45 C46 1.395 . S
C45 H73 0.929 . S
C46 C45 1.395 . S
C46 C47 1.335 . S
C47 C46 1.335 . S
C47 C48 1.398 . S
C47 H74 0.930 . S
C48 C43 1.382 . S
C48 C47 1.398 . S
C48 H75 0.929 . S
C49 O62 1.271 . S
C49 O63 1.251 . S
C50 O64 1.252 . S
C50 O65 1.272 . S
C51 Sm41 2.846 . S
C51 C52 1.506 . S
C51 O66 1.261 . S
C51 O67 1.242 . S
C52 C51 1.506 . S
C52 C53 1.358 . S
C52 C57 1.382 . S
C53 C52 1.358 . S
C53 C54 1.385 . S
C53 H76 0.930 . S
C54 C53 1.385 . S
C54 C55 1.395 . S
C54 H77 0.929 . S
C55 C54 1.395 . S
C55 C56 1.335 . S
C56 C55 1.335 . S
C56 C57 1.398 . S
C56 H78 0.930 . S
C57 C52 1.382 . S
C57 C56 1.398 . S
C57 H79 0.929 . S
C58 O68 1.271 . S
C58 O69 1.251 . S
C59 O70 1.252 . S
C59 O71 1.272 . S
O60 Sm40 2.543 1_545 S
O60 C42 1.261 . S
O61 Sm40 2.450 1_545 S
O61 C42 1.242 . S
O62 Sm40 2.681 . S
O62 Sm41 2.386 . S
O62 C49 1.271 . S
O63 Sm40 2.464 . S
O63 C49 1.251 . S
O64 Sm40 2.396 . S
O64 C50 1.252 . S
O65 Sm41 2.408 . S
O65 C50 1.272 . S
O66 Sm41 2.543 . S
O66 C51 1.261 . S
O67 Sm41 2.450 . S
O67 C51 1.242 . S
O68 Sm40 2.386 . S
O68 Sm41 2.681 . S
O68 C58 1.271 . S
O69 Sm41 2.464 . S
O69 C58 1.251 . S
O70 Sm41 2.396 . S
O70 C59 1.252 . S
O71 Sm40 2.408 . S
O71 C59 1.272 . S
H72 C44 0.930 . S
H73 C45 0.929 . S
H74 C47 0.930 . S
H75 C48 0.929 . S
H76 C53 0.930 . S
H77 C54 0.929 . S
H78 C56 0.930 . S
H79 C57 0.929 . S
Sm80 C82 2.846 1_565 S
Sm80 O100 2.543 1_565 S
Sm80 O101 2.450 1_565 S
Sm80 O102 2.681 . S
Sm80 O103 2.464 . S
Sm80 O104 2.396 . S
Sm80 O108 2.386 . S
Sm80 O111 2.408 . S
Sm81 C91 2.846 . S
Sm81 O102 2.386 . S
Sm81 O105 2.408 . S
Sm81 O106 2.543 . S
Sm81 O107 2.450 . S
Sm81 O108 2.681 . S
Sm81 O109 2.464 . S
Sm81 O110 2.396 . S
C82 Sm80 2.846 1_545 S
C82 C83 1.506 . S
C82 O100 1.261 . S
C82 O101 1.242 . S
C83 C82 1.506 . S
C83 C84 1.358 . S
C83 C88 1.382 . S
C84 C83 1.358 . S
C84 C85 1.385 . S
C84 H112 0.930 . S
C85 C84 1.385 . S
C85 C86 1.395 . S
C85 H113 0.929 . S
C86 C85 1.395 . S
C86 C87 1.335 . S
C87 C86 1.335 . S
C87 C88 1.398 . S
C87 H114 0.930 . S
C88 C83 1.382 . S
C88 C87 1.398 . S
C88 H115 0.929 . S
C89 O102 1.271 . S
C89 O103 1.251 . S
C90 O104 1.252 . S
C90 O105 1.272 . S
C91 Sm81 2.846 . S
C91 C92 1.506 . S
C91 O106 1.261 . S
C91 O107 1.242 . S
C92 C91 1.506 . S
C92 C93 1.358 . S
C92 C97 1.382 . S
C93 C92 1.358 . S
C93 C94 1.385 . S
C93 H116 0.930 . S
C94 C93 1.385 . S
C94 C95 1.395 . S
C94 H117 0.929 . S
C95 C94 1.395 . S
C95 C96 1.335 . S
C96 C95 1.335 . S
C96 C97 1.398 . S
C96 H118 0.930 . S
C97 C92 1.382 . S
C97 C96 1.398 . S
C97 H119 0.929 . S
C98 O108 1.271 . S
C98 O109 1.251 . S
C99 O110 1.252 . S
C99 O111 1.272 . S
O100 Sm80 2.543 1_545 S
O100 C82 1.261 . S
O101 Sm80 2.450 1_545 S
O101 C82 1.242 . S
O102 Sm80 2.681 . S
O102 Sm81 2.386 . S
O102 C89 1.271 . S
O103 Sm80 2.464 . S
O103 C89 1.251 . S
O104 Sm80 2.396 . S
O104 C90 1.252 . S
O105 Sm81 2.408 . S
O105 C90 1.272 . S
O106 Sm81 2.543 . S
O106 C91 1.261 . S
O107 Sm81 2.450 . S
O107 C91 1.242 . S
O108 Sm80 2.386 . S
O108 Sm81 2.681 . S
O108 C98 1.271 . S
O109 Sm81 2.464 . S
O109 C98 1.251 . S
O110 Sm81 2.396 . S
O110 C99 1.252 . S
O111 Sm80 2.408 . S
O111 C99 1.272 . S
H112 C84 0.930 . S
H113 C85 0.929 . S
H114 C87 0.930 . S
H115 C88 0.929 . S
H116 C93 0.930 . S
H117 C94 0.929 . S
H118 C96 0.930 . S
H119 C97 0.929 . S
Sm120 C122 2.846 1_545 S
Sm120 O140 2.543 1_545 S
Sm120 O141 2.450 1_545 S
Sm120 O142 2.681 . S
Sm120 O143 2.464 . S
Sm120 O144 2.396 . S
Sm120 O148 2.386 . S
Sm120 O151 2.408 . S
Sm121 C131 2.846 . S
Sm121 O142 2.386 . S
Sm121 O145 2.408 . S
Sm121 O146 2.543 . S
Sm121 O147 2.450 . S
Sm121 O148 2.681 . S
Sm121 O149 2.464 . S
Sm121 O150 2.396 . S
C122 Sm120 2.846 1_565 S
C122 C123 1.506 . S
C122 O140 1.261 . S
C122 O141 1.242 . S
C123 C122 1.506 . S
C123 C124 1.358 . S
C123 C128 1.382 . S
C124 C123 1.358 . S
C124 C125 1.385 . S
C124 H152 0.930 . S
C125 C124 1.385 . S
C125 C126 1.395 . S
C125 H153 0.929 . S
C126 C125 1.395 . S
C126 C127 1.335 . S
C127 C126 1.335 . S
C127 C128 1.398 . S
C127 H154 0.930 . S
C128 C123 1.382 . S
C128 C127 1.398 . S
C128 H155 0.929 . S
C129 O142 1.271 . S
C129 O143 1.251 . S
C130 O144 1.252 . S
C130 O145 1.272 . S
C131 Sm121 2.846 . S
C131 C132 1.506 . S
C131 O146 1.261 . S
C131 O147 1.242 . S
C132 C131 1.506 . S
C132 C133 1.358 . S
C132 C137 1.382 . S
C133 C132 1.358 . S
C133 C134 1.385 . S
C133 H156 0.930 . S
C134 C133 1.385 . S
C134 C135 1.395 . S
C134 H157 0.929 . S
C135 C134 1.395 . S
C135 C136 1.335 . S
C136 C135 1.335 . S
C136 C137 1.398 . S
C136 H158 0.930 . S
C137 C132 1.382 . S
C137 C136 1.398 . S
C137 H159 0.929 . S
C138 O148 1.271 . S
C138 O149 1.251 . S
C139 O150 1.252 . S
C139 O151 1.272 . S
O140 Sm120 2.543 1_565 S
O140 C122 1.261 . S
O141 Sm120 2.450 1_565 S
O141 C122 1.242 . S
O142 Sm120 2.681 . S
O142 Sm121 2.386 . S
O142 C129 1.271 . S
O143 Sm120 2.464 . S
O143 C129 1.251 . S
O144 Sm120 2.396 . S
O144 C130 1.252 . S
O145 Sm121 2.408 . S
O145 C130 1.272 . S
O146 Sm121 2.543 . S
O146 C131 1.261 . S
O147 Sm121 2.450 . S
O147 C131 1.242 . S
O148 Sm120 2.386 . S
O148 Sm121 2.681 . S
O148 C138 1.271 . S
O149 Sm121 2.464 . S
O149 C138 1.251 . S
O150 Sm121 2.396 . S
O150 C139 1.252 . S
O151 Sm120 2.408 . S
O151 C139 1.272 . S
H152 C124 0.930 . S
H153 C125 0.929 . S
H154 C127 0.930 . S
H155 C128 0.929 . S
H156 C133 0.930 . S
H157 C134 0.929 . S
H158 C136 0.930 . S
H159 C137 0.929 . S
Sm160 C162 2.846 . S
Sm160 O180 2.543 . S
Sm160 O181 2.450 . S
Sm160 O182 2.681 . S
Sm160 O183 2.464 . S
Sm160 O184 2.396 . S
Sm160 O188 2.386 . S
Sm160 O191 2.408 . S
Sm161 C171 2.846 1_565 S
Sm161 O182 2.386 . S
Sm161 O185 2.408 . S
Sm161 O186 2.543 1_565 S
Sm161 O187 2.450 1_565 S
Sm161 O188 2.681 . S
Sm161 O189 2.464 . S
Sm161 O190 2.396 . S
C162 Sm160 2.846 . S
C162 C163 1.506 . S
C162 O180 1.261 . S
C162 O181 1.242 . S
C163 C162 1.506 . S
C163 C164 1.358 . S
C163 C168 1.382 . S
C164 C163 1.358 . S
C164 C165 1.385 . S
C164 H192 0.930 . S
C165 C164 1.385 . S
C165 C166 1.395 . S
C165 H193 0.929 . S
C166 C165 1.395 . S
C166 C167 1.335 . S
C167 C166 1.335 . S
C167 C168 1.398 . S
C167 H194 0.930 . S
C168 C163 1.382 . S
C168 C167 1.398 . S
C168 H195 0.929 . S
C169 O182 1.271 . S
C169 O183 1.251 . S
C170 O184 1.252 . S
C170 O185 1.272 . S
C171 Sm161 2.846 1_545 S
C171 C172 1.506 . S
C171 O186 1.261 . S
C171 O187 1.242 . S
C172 C171 1.506 . S
C172 C173 1.358 . S
C172 C177 1.382 . S
C173 C172 1.358 . S
C173 C174 1.385 . S
C173 H196 0.930 . S
C174 C173 1.385 . S
C174 C175 1.395 . S
C174 H197 0.929 . S
C175 C174 1.395 . S
C175 C176 1.335 . S
C176 C175 1.335 . S
C176 C177 1.398 . S
C176 H198 0.930 . S
C177 C172 1.382 . S
C177 C176 1.398 . S
C177 H199 0.929 . S
C178 O188 1.271 . S
C178 O189 1.251 . S
C179 O190 1.252 . S
C179 O191 1.272 . S
O180 Sm160 2.543 . S
O180 C162 1.261 . S
O181 Sm160 2.450 . S
O181 C162 1.242 . S
O182 Sm160 2.681 . S
O182 Sm161 2.386 . S
O182 C169 1.271 . S
O183 Sm160 2.464 . S
O183 C169 1.251 . S
O184 Sm160 2.396 . S
O184 C170 1.252 . S
O185 Sm161 2.408 . S
O185 C170 1.272 . S
O186 Sm161 2.543 1_545 S
O186 C171 1.261 . S
O187 Sm161 2.450 1_545 S
O187 C171 1.242 . S
O188 Sm160 2.386 . S
O188 Sm161 2.681 . S
O188 C178 1.271 . S
O189 Sm161 2.464 . S
O189 C178 1.251 . S
O190 Sm161 2.396 . S
O190 C179 1.252 . S
O191 Sm160 2.408 . S
O191 C179 1.272 . S
H192 C164 0.930 . S
H193 C165 0.929 . S
H194 C167 0.930 . S
H195 C168 0.929 . S
H196 C173 0.930 . S
H197 C174 0.929 . S
H198 C176 0.930 . S
H199 C177 0.929 . S
Sm200 C202 2.846 . S
Sm200 O220 2.543 . S
Sm200 O221 2.450 . S
Sm200 O222 2.681 . S
Sm200 O223 2.464 . S
Sm200 O224 2.396 . S
Sm200 O228 2.386 . S
Sm200 O231 2.408 . S
Sm201 C211 2.846 1_545 S
Sm201 O222 2.386 . S
Sm201 O225 2.408 . S
Sm201 O226 2.543 1_545 S
Sm201 O227 2.450 1_545 S
Sm201 O228 2.681 . S
Sm201 O229 2.464 . S
Sm201 O230 2.396 . S
C202 Sm200 2.846 . S
C202 C203 1.506 . S
C202 O220 1.261 . S
C202 O221 1.242 . S
C203 C202 1.506 . S
C203 C204 1.358 . S
C203 C208 1.382 . S
C204 C203 1.358 . S
C204 C205 1.385 . S
C204 H232 0.930 . S
C205 C204 1.385 . S
C205 C206 1.395 . S
C205 H233 0.929 . S
C206 C205 1.395 . S
C206 C207 1.335 . S
C207 C206 1.335 . S
C207 C208 1.398 . S
C207 H234 0.930 . S
C208 C203 1.382 . S
C208 C207 1.398 . S
C208 H235 0.929 . S
C209 O222 1.271 . S
C209 O223 1.251 . S
C210 O224 1.252 . S
C210 O225 1.272 . S
C211 Sm201 2.846 1_565 S
C211 C212 1.506 . S
C211 O226 1.261 . S
C211 O227 1.242 . S
C212 C211 1.506 . S
C212 C213 1.358 . S
C212 C217 1.382 . S
C213 C212 1.358 . S
C213 C214 1.385 . S
C213 H236 0.930 . S
C214 C213 1.385 . S
C214 C215 1.395 . S
C214 H237 0.929 . S
C215 C214 1.395 . S
C215 C216 1.335 . S
C216 C215 1.335 . S
C216 C217 1.398 . S
C216 H238 0.930 . S
C217 C212 1.382 . S
C217 C216 1.398 . S
C217 H239 0.929 . S
C218 O228 1.271 . S
C218 O229 1.251 . S
C219 O230 1.252 . S
C219 O231 1.272 . S
O220 Sm200 2.543 . S
O220 C202 1.261 . S
O221 Sm200 2.450 . S
O221 C202 1.242 . S
O222 Sm200 2.681 . S
O222 Sm201 2.386 . S
O222 C209 1.271 . S
O223 Sm200 2.464 . S
O223 C209 1.251 . S
O224 Sm200 2.396 . S
O224 C210 1.252 . S
O225 Sm201 2.408 . S
O225 C210 1.272 . S
O226 Sm201 2.543 1_565 S
O226 C211 1.261 . S
O227 Sm201 2.450 1_565 S
O227 C211 1.242 . S
O228 Sm200 2.386 . S
O228 Sm201 2.681 . S
O228 C218 1.271 . S
O229 Sm201 2.464 . S
O229 C218 1.251 . S
O230 Sm201 2.396 . S
O230 C219 1.252 . S
O231 Sm200 2.408 . S
O231 C219 1.272 . S
H232 C204 0.930 . S
H233 C205 0.929 . S
H234 C207 0.930 . S
H235 C208 0.929 . S
H236 C213 0.930 . S
H237 C214 0.929 . S
H238 C216 0.930 . S
H239 C217 0.929 . S
Sm240 C242 2.846 . S
Sm240 O260 2.543 . S
Sm240 O261 2.450 . S
Sm240 O262 2.681 . S
Sm240 O263 2.464 . S
Sm240 O264 2.396 . S
Sm240 O268 2.386 . S
Sm240 O271 2.408 . S
Sm241 C251 2.846 1_545 S
Sm241 O262 2.386 . S
Sm241 O265 2.408 . S
Sm241 O266 2.543 1_545 S
Sm241 O267 2.450 1_545 S
Sm241 O268 2.681 . S
Sm241 O269 2.464 . S
Sm241 O270 2.396 . S
C242 Sm240 2.846 . S
C242 C243 1.506 . S
C242 O260 1.261 . S
C242 O261 1.242 . S
C243 C242 1.506 . S
C243 C244 1.358 . S
C243 C248 1.382 . S
C244 C243 1.358 . S
C244 C245 1.385 . S
C244 H272 0.930 . S
C245 C244 1.385 . S
C245 C246 1.395 . S
C245 H273 0.929 . S
C246 C245 1.395 . S
C246 C247 1.335 . S
C247 C246 1.335 . S
C247 C248 1.398 . S
C247 H274 0.930 . S
C248 C243 1.382 . S
C248 C247 1.398 . S
C248 H275 0.929 . S
C249 O262 1.271 . S
C249 O263 1.251 . S
C250 O264 1.252 . S
C250 O265 1.272 . S
C251 Sm241 2.846 1_565 S
C251 C252 1.506 . S
C251 O266 1.261 . S
C251 O267 1.242 . S
C252 C251 1.506 . S
C252 C253 1.358 . S
C252 C257 1.382 . S
C253 C252 1.358 . S
C253 C254 1.385 . S
C253 H276 0.930 . S
C254 C253 1.385 . S
C254 C255 1.395 . S
C254 H277 0.929 . S
C255 C254 1.395 . S
C255 C256 1.335 . S
C256 C255 1.335 . S
C256 C257 1.398 . S
C256 H278 0.930 . S
C257 C252 1.382 . S
C257 C256 1.398 . S
C257 H279 0.929 . S
C258 O268 1.271 . S
C258 O269 1.251 . S
C259 O270 1.252 . S
C259 O271 1.272 . S
O260 Sm240 2.543 . S
O260 C242 1.261 . S
O261 Sm240 2.450 . S
O261 C242 1.242 . S
O262 Sm240 2.681 . S
O262 Sm241 2.386 . S
O262 C249 1.271 . S
O263 Sm240 2.464 . S
O263 C249 1.251 . S
O264 Sm240 2.396 . S
O264 C250 1.252 . S
O265 Sm241 2.408 . S
O265 C250 1.272 . S
O266 Sm241 2.543 1_565 S
O266 C251 1.261 . S
O267 Sm241 2.450 1_565 S
O267 C251 1.242 . S
O268 Sm240 2.386 . S
O268 Sm241 2.681 . S
O268 C258 1.271 . S
O269 Sm241 2.464 . S
O269 C258 1.251 . S
O270 Sm241 2.396 . S
O270 C259 1.252 . S
O271 Sm240 2.408 . S
O271 C259 1.272 . S
H272 C244 0.930 . S
H273 C245 0.929 . S
H274 C247 0.930 . S
H275 C248 0.929 . S
H276 C253 0.930 . S
H277 C254 0.929 . S
H278 C256 0.930 . S
H279 C257 0.929 . S
Sm280 C282 2.846 . S
Sm280 O300 2.543 . S
Sm280 O301 2.450 . S
Sm280 O302 2.681 . S
Sm280 O303 2.464 . S
Sm280 O304 2.396 . S
Sm280 O308 2.386 . S
Sm280 O311 2.408 . S
Sm281 C291 2.846 1_565 S
Sm281 O302 2.386 . S
Sm281 O305 2.408 . S
Sm281 O306 2.543 1_565 S
Sm281 O307 2.450 1_565 S
Sm281 O308 2.681 . S
Sm281 O309 2.464 . S
Sm281 O310 2.396 . S
C282 Sm280 2.846 . S
C282 C283 1.506 . S
C282 O300 1.261 . S
C282 O301 1.242 . S
C283 C282 1.506 . S
C283 C284 1.358 . S
C283 C288 1.382 . S
C284 C283 1.358 . S
C284 C285 1.385 . S
C284 H312 0.930 . S
C285 C284 1.385 . S
C285 C286 1.395 . S
C285 H313 0.929 . S
C286 C285 1.395 . S
C286 C287 1.335 . S
C287 C286 1.335 . S
C287 C288 1.398 . S
C287 H314 0.930 . S
C288 C283 1.382 . S
C288 C287 1.398 . S
C288 H315 0.929 . S
C289 O302 1.271 . S
C289 O303 1.251 . S
C290 O304 1.252 . S
C290 O305 1.272 . S
C291 Sm281 2.846 1_545 S
C291 C292 1.506 . S
C291 O306 1.261 . S
C291 O307 1.242 . S
C292 C291 1.506 . S
C292 C293 1.358 . S
C292 C297 1.382 . S
C293 C292 1.358 . S
C293 C294 1.385 . S
C293 H316 0.930 . S
C294 C293 1.385 . S
C294 C295 1.395 . S
C294 H317 0.929 . S
C295 C294 1.395 . S
C295 C296 1.335 . S
C296 C295 1.335 . S
C296 C297 1.398 . S
C296 H318 0.930 . S
C297 C292 1.382 . S
C297 C296 1.398 . S
C297 H319 0.929 . S
C298 O308 1.271 . S
C298 O309 1.251 . S
C299 O310 1.252 . S
C299 O311 1.272 . S
O300 Sm280 2.543 . S
O300 C282 1.261 . S
O301 Sm280 2.450 . S
O301 C282 1.242 . S
O302 Sm280 2.681 . S
O302 Sm281 2.386 . S
O302 C289 1.271 . S
O303 Sm280 2.464 . S
O303 C289 1.251 . S
O304 Sm280 2.396 . S
O304 C290 1.252 . S
O305 Sm281 2.408 . S
O305 C290 1.272 . S
O306 Sm281 2.543 1_545 S
O306 C291 1.261 . S
O307 Sm281 2.450 1_545 S
O307 C291 1.242 . S
O308 Sm280 2.386 . S
O308 Sm281 2.681 . S
O308 C298 1.271 . S
O309 Sm281 2.464 . S
O309 C298 1.251 . S
O310 Sm281 2.396 . S
O310 C299 1.252 . S
O311 Sm280 2.408 . S
O311 C299 1.272 . S
H312 C284 0.930 . S
H313 C285 0.929 . S
H314 C287 0.930 . S
H315 C288 0.929 . S
H316 C293 0.930 . S
H317 C294 0.929 . S
H318 C296 0.930 . S
H319 C297 0.929 . S
Sm320 C322 2.846 . S
Sm320 O340 2.543 . S
Sm320 O341 2.450 . S
Sm320 O342 2.681 . S
Sm320 O343 2.464 . S
Sm320 O344 2.396 . S
Sm320 O348 2.386 . S
Sm320 O351 2.408 . S
Sm321 C331 2.846 . S
Sm321 O342 2.386 . S
Sm321 O345 2.408 . S
Sm321 O346 2.543 . S
Sm321 O347 2.450 . S
Sm321 O348 2.681 . S
Sm321 O349 2.464 . S
Sm321 O350 2.396 . S
C322 Sm320 2.846 . S
C322 C323 1.506 . S
C322 O340 1.261 . S
C322 O341 1.242 . S
C323 C322 1.506 . S
C323 C324 1.358 . S
C323 C328 1.382 . S
C324 C323 1.358 . S
C324 C325 1.385 . S
C324 H352 0.930 . S
C325 C324 1.385 . S
C325 C326 1.395 . S
C325 H353 0.929 . S
C326 C325 1.395 . S
C326 C327 1.335 . S
C327 C326 1.335 . S
C327 C328 1.398 . S
C327 H354 0.930 . S
C328 C323 1.382 . S
C328 C327 1.398 . S
C328 H355 0.929 . S
C329 O342 1.271 . S
C329 O343 1.251 . S
C330 O344 1.252 . S
C330 O345 1.272 . S
C331 Sm321 2.846 . S
C331 C332 1.506 . S
C331 O346 1.261 . S
C331 O347 1.242 . S
C332 C331 1.506 . S
C332 C333 1.358 . S
C332 C337 1.382 . S
C333 C332 1.358 . S
C333 C334 1.385 . S
C333 H356 0.930 . S
C334 C333 1.385 . S
C334 C335 1.395 . S
C334 H357 0.929 . S
C335 C334 1.395 . S
C335 C336 1.335 . S
C336 C335 1.335 . S
C336 C337 1.398 . S
C336 H358 0.930 . S
C337 C332 1.382 . S
C337 C336 1.398 . S
C337 H359 0.929 . S
C338 O348 1.271 . S
C338 O349 1.251 . S
C339 O350 1.252 . S
C339 O351 1.272 . S
O340 Sm320 2.543 . S
O340 C322 1.261 . S
O341 Sm320 2.450 . S
O341 C322 1.242 . S
O342 Sm320 2.681 . S
O342 Sm321 2.386 . S
O342 C329 1.271 . S
O343 Sm320 2.464 . S
O343 C329 1.251 . S
O344 Sm320 2.396 . S
O344 C330 1.252 . S
O345 Sm321 2.408 . S
O345 C330 1.272 . S
O346 Sm321 2.543 . S
O346 C331 1.261 . S
O347 Sm321 2.450 . S
O347 C331 1.242 . S
O348 Sm320 2.386 . S
O348 Sm321 2.681 . S
O348 C338 1.271 . S
O349 Sm321 2.464 . S
O349 C338 1.251 . S
O350 Sm321 2.396 . S
O350 C339 1.252 . S
O351 Sm320 2.408 . S
O351 C339 1.272 . S
H352 C324 0.930 . S
H353 C325 0.929 . S
H354 C327 0.930 . S
H355 C328 0.929 . S
H356 C333 0.930 . S
H357 C334 0.929 . S
H358 C336 0.930 . S
H359 C337 0.929 . S
Sm360 C362 2.846 . S
Sm360 O380 2.543 . S
Sm360 O381 2.450 . S
Sm360 O382 2.681 . S
Sm360 O383 2.464 . S
Sm360 O384 2.396 . S
Sm360 O388 2.386 . S
Sm360 O391 2.408 . S
Sm361 C371 2.846 . S
Sm361 O382 2.386 . S
Sm361 O385 2.408 . S
Sm361 O386 2.543 . S
Sm361 O387 2.450 . S
Sm361 O388 2.681 . S
Sm361 O389 2.464 . S
Sm361 O390 2.396 . S
C362 Sm360 2.846 . S
C362 C363 1.506 . S
C362 O380 1.261 . S
C362 O381 1.242 . S
C363 C362 1.506 . S
C363 C364 1.358 . S
C363 C368 1.382 . S
C364 C363 1.358 . S
C364 C365 1.385 . S
C364 H392 0.930 . S
C365 C364 1.385 . S
C365 C366 1.395 . S
C365 H393 0.929 . S
C366 C365 1.395 . S
C366 C367 1.335 . S
C367 C366 1.335 . S
C367 C368 1.398 . S
C367 H394 0.930 . S
C368 C363 1.382 . S
C368 C367 1.398 . S
C368 H395 0.929 . S
C369 O382 1.271 . S
C369 O383 1.251 . S
C370 O384 1.252 . S
C370 O385 1.272 . S
C371 Sm361 2.846 . S
C371 C372 1.506 . S
C371 O386 1.261 . S
C371 O387 1.242 . S
C372 C371 1.506 . S
C372 C373 1.358 . S
C372 C377 1.382 . S
C373 C372 1.358 . S
C373 C374 1.385 . S
C373 H396 0.930 . S
C374 C373 1.385 . S
C374 C375 1.395 . S
C374 H397 0.929 . S
C375 C374 1.395 . S
C375 C376 1.335 . S
C376 C375 1.335 . S
C376 C377 1.398 . S
C376 H398 0.930 . S
C377 C372 1.382 . S
C377 C376 1.398 . S
C377 H399 0.929 . S
C378 O388 1.271 . S
C378 O389 1.251 . S
C379 O390 1.252 . S
C379 O391 1.272 . S
O380 Sm360 2.543 . S
O380 C362 1.261 . S
O381 Sm360 2.450 . S
O381 C362 1.242 . S
O382 Sm360 2.681 . S
O382 Sm361 2.386 . S
O382 C369 1.271 . S
O383 Sm360 2.464 . S
O383 C369 1.251 . S
O384 Sm360 2.396 . S
O384 C370 1.252 . S
O385 Sm361 2.408 . S
O385 C370 1.272 . S
O386 Sm361 2.543 . S
O386 C371 1.261 . S
O387 Sm361 2.450 . S
O387 C371 1.242 . S
O388 Sm360 2.386 . S
O388 Sm361 2.681 . S
O388 C378 1.271 . S
O389 Sm361 2.464 . S
O389 C378 1.251 . S
O390 Sm361 2.396 . S
O390 C379 1.252 . S
O391 Sm360 2.408 . S
O391 C379 1.272 . S
H392 C364 0.930 . S
H393 C365 0.929 . S
H394 C367 0.930 . S
H395 C368 0.929 . S
H396 C373 0.930 . S
H397 C374 0.929 . S
H398 C376 0.930 . S
H399 C377 0.929 . S
Sm400 C402 2.846 . S
Sm400 O420 2.543 . S
Sm400 O421 2.450 . S
Sm400 O422 2.681 . S
Sm400 O423 2.464 . S
Sm400 O424 2.396 . S
Sm400 O428 2.386 . S
Sm400 O431 2.408 . S
Sm401 C411 2.846 . S
Sm401 O422 2.386 . S
Sm401 O425 2.408 . S
Sm401 O426 2.543 . S
Sm401 O427 2.450 . S
Sm401 O428 2.681 . S
Sm401 O429 2.464 . S
Sm401 O430 2.396 . S
C402 Sm400 2.846 . S
C402 C403 1.506 . S
C402 O420 1.261 . S
C402 O421 1.242 . S
C403 C402 1.506 . S
C403 C404 1.358 . S
C403 C408 1.382 . S
C404 C403 1.358 . S
C404 C405 1.385 . S
C404 H432 0.930 . S
C405 C404 1.385 . S
C405 C406 1.395 . S
C405 H433 0.929 . S
C406 C405 1.395 . S
C406 C407 1.335 . S
C407 C406 1.335 . S
C407 C408 1.398 . S
C407 H434 0.930 . S
C408 C403 1.382 . S
C408 C407 1.398 . S
C408 H435 0.929 . S
C409 O422 1.271 . S
C409 O423 1.251 . S
C410 O424 1.252 . S
C410 O425 1.272 . S
C411 Sm401 2.846 . S
C411 C412 1.506 . S
C411 O426 1.261 . S
C411 O427 1.242 . S
C412 C411 1.506 . S
C412 C413 1.358 . S
C412 C417 1.382 . S
C413 C412 1.358 . S
C413 C414 1.385 . S
C413 H436 0.930 . S
C414 C413 1.385 . S
C414 C415 1.395 . S
C414 H437 0.929 . S
C415 C414 1.395 . S
C415 C416 1.335 . S
C416 C415 1.335 . S
C416 C417 1.398 . S
C416 H438 0.930 . S
C417 C412 1.382 . S
C417 C416 1.398 . S
C417 H439 0.929 . S
C418 O428 1.271 . S
C418 O429 1.251 . S
C419 O430 1.252 . S
C419 O431 1.272 . S
O420 Sm400 2.543 . S
O420 C402 1.261 . S
O421 Sm400 2.450 . S
O421 C402 1.242 . S
O422 Sm400 2.681 . S
O422 Sm401 2.386 . S
O422 C409 1.271 . S
O423 Sm400 2.464 . S
O423 C409 1.251 . S
O424 Sm400 2.396 . S
O424 C410 1.252 . S
O425 Sm401 2.408 . S
O425 C410 1.272 . S
O426 Sm401 2.543 . S
O426 C411 1.261 . S
O427 Sm401 2.450 . S
O427 C411 1.242 . S
O428 Sm400 2.386 . S
O428 Sm401 2.681 . S
O428 C418 1.271 . S
O429 Sm401 2.464 . S
O429 C418 1.251 . S
O430 Sm401 2.396 . S
O430 C419 1.252 . S
O431 Sm400 2.408 . S
O431 C419 1.272 . S
H432 C404 0.930 . S
H433 C405 0.929 . S
H434 C407 0.930 . S
H435 C408 0.929 . S
H436 C413 0.930 . S
H437 C414 0.929 . S
H438 C416 0.930 . S
H439 C417 0.929 . S
Sm440 C442 2.846 . S
Sm440 O460 2.543 . S
Sm440 O461 2.450 . S
Sm440 O462 2.681 . S
Sm440 O463 2.464 . S
Sm440 O464 2.396 . S
Sm440 O468 2.386 . S
Sm440 O471 2.408 . S
Sm441 C451 2.846 . S
Sm441 O462 2.386 . S
Sm441 O465 2.408 . S
Sm441 O466 2.543 . S
Sm441 O467 2.450 . S
Sm441 O468 2.681 . S
Sm441 O469 2.464 . S
Sm441 O470 2.396 . S
C442 Sm440 2.846 . S
C442 C443 1.506 . S
C442 O460 1.261 . S
C442 O461 1.242 . S
C443 C442 1.506 . S
C443 C444 1.358 . S
C443 C448 1.382 . S
C444 C443 1.358 . S
C444 C445 1.385 . S
C444 H472 0.930 . S
C445 C444 1.385 . S
C445 C446 1.395 . S
C445 H473 0.929 . S
C446 C445 1.395 . S
C446 C447 1.335 . S
C447 C446 1.335 . S
C447 C448 1.398 . S
C447 H474 0.930 . S
C448 C443 1.382 . S
C448 C447 1.398 . S
C448 H475 0.929 . S
C449 O462 1.271 . S
C449 O463 1.251 . S
C450 O464 1.252 . S
C450 O465 1.272 . S
C451 Sm441 2.846 . S
C451 C452 1.506 . S
C451 O466 1.261 . S
C451 O467 1.242 . S
C452 C451 1.506 . S
C452 C453 1.358 . S
C452 C457 1.382 . S
C453 C452 1.358 . S
C453 C454 1.385 . S
C453 H476 0.930 . S
C454 C453 1.385 . S
C454 C455 1.395 . S
C454 H477 0.929 . S
C455 C454 1.395 . S
C455 C456 1.335 . S
C456 C455 1.335 . S
C456 C457 1.398 . S
C456 H478 0.930 . S
C457 C452 1.382 . S
C457 C456 1.398 . S
C457 H479 0.929 . S
C458 O468 1.271 . S
C458 O469 1.251 . S
C459 O470 1.252 . S
C459 O471 1.272 . S
O460 Sm440 2.543 . S
O460 C442 1.261 . S
O461 Sm440 2.450 . S
O461 C442 1.242 . S
O462 Sm440 2.681 . S
O462 Sm441 2.386 . S
O462 C449 1.271 . S
O463 Sm440 2.464 . S
O463 C449 1.251 . S
O464 Sm440 2.396 . S
O464 C450 1.252 . S
O465 Sm441 2.408 . S
O465 C450 1.272 . S
O466 Sm441 2.543 . S
O466 C451 1.261 . S
O467 Sm441 2.450 . S
O467 C451 1.242 . S
O468 Sm440 2.386 . S
O468 Sm441 2.681 . S
O468 C458 1.271 . S
O469 Sm441 2.464 . S
O469 C458 1.251 . S
O470 Sm441 2.396 . S
O470 C459 1.252 . S
O471 Sm440 2.408 . S
O471 C459 1.272 . S
H472 C444 0.930 . S
H473 C445 0.929 . S
H474 C447 0.930 . S
H475 C448 0.929 . S
H476 C453 0.930 . S
H477 C454 0.929 . S
H478 C456 0.930 . S
H479 C457 0.929 . S
Sm480 C482 2.846 . S
Sm480 O500 2.543 . S
Sm480 O501 2.450 . S
Sm480 O502 2.681 . S
Sm480 O503 2.464 . S
Sm480 O504 2.396 . S
Sm480 O508 2.386 . S
Sm480 O511 2.408 . S
Sm481 C491 2.846 . S
Sm481 O502 2.386 . S
Sm481 O505 2.408 . S
Sm481 O506 2.543 . S
Sm481 O507 2.450 . S
Sm481 O508 2.681 . S
Sm481 O509 2.464 . S
Sm481 O510 2.396 . S
C482 Sm480 2.846 . S
C482 C483 1.506 . S
C482 O500 1.261 . S
C482 O501 1.242 . S
C483 C482 1.506 . S
C483 C484 1.358 . S
C483 C488 1.382 . S
C484 C483 1.358 . S
C484 C485 1.385 . S
C484 H512 0.930 . S
C485 C484 1.385 . S
C485 C486 1.395 . S
C485 H513 0.929 . S
C486 C485 1.395 . S
C486 C487 1.335 . S
C487 C486 1.335 . S
C487 C488 1.398 . S
C487 H514 0.930 . S
C488 C483 1.382 . S
C488 C487 1.398 . S
C488 H515 0.929 . S
C489 O502 1.271 . S
C489 O503 1.251 . S
C490 O504 1.252 . S
C490 O505 1.272 . S
C491 Sm481 2.846 . S
C491 C492 1.506 . S
C491 O506 1.261 . S
C491 O507 1.242 . S
C492 C491 1.506 . S
C492 C493 1.358 . S
C492 C497 1.382 . S
C493 C492 1.358 . S
C493 C494 1.385 . S
C493 H516 0.930 . S
C494 C493 1.385 . S
C494 C495 1.395 . S
C494 H517 0.929 . S
C495 C494 1.395 . S
C495 C496 1.335 . S
C496 C495 1.335 . S
C496 C497 1.398 . S
C496 H518 0.930 . S
C497 C492 1.382 . S
C497 C496 1.398 . S
C497 H519 0.929 . S
C498 O508 1.271 . S
C498 O509 1.251 . S
C499 O510 1.252 . S
C499 O511 1.272 . S
O500 Sm480 2.543 . S
O500 C482 1.261 . S
O501 Sm480 2.450 . S
O501 C482 1.242 . S
O502 Sm480 2.681 . S
O502 Sm481 2.386 . S
O502 C489 1.271 . S
O503 Sm480 2.464 . S
O503 C489 1.251 . S
O504 Sm480 2.396 . S
O504 C490 1.252 . S
O505 Sm481 2.408 . S
O505 C490 1.272 . S
O506 Sm481 2.543 . S
O506 C491 1.261 . S
O507 Sm481 2.450 . S
O507 C491 1.242 . S
O508 Sm480 2.386 . S
O508 Sm481 2.681 . S
O508 C498 1.271 . S
O509 Sm481 2.464 . S
O509 C498 1.251 . S
O510 Sm481 2.396 . S
O510 C499 1.252 . S
O511 Sm480 2.408 . S
O511 C499 1.272 . S
H512 C484 0.930 . S
H513 C485 0.929 . S
H514 C487 0.930 . S
H515 C488 0.929 . S
H516 C493 0.930 . S
H517 C494 0.929 . S
H518 C496 0.930 . S
H519 C497 0.929 . S
Sm520 C522 2.846 . S
Sm520 O540 2.543 . S
Sm520 O541 2.450 . S
Sm520 O542 2.681 . S
Sm520 O543 2.464 . S
Sm520 O544 2.396 . S
Sm520 O548 2.386 . S
Sm520 O551 2.408 . S
Sm521 C531 2.846 . S
Sm521 O542 2.386 . S
Sm521 O545 2.408 . S
Sm521 O546 2.543 . S
Sm521 O547 2.450 . S
Sm521 O548 2.681 . S
Sm521 O549 2.464 . S
Sm521 O550 2.396 . S
C522 Sm520 2.846 . S
C522 C523 1.506 . S
C522 O540 1.261 . S
C522 O541 1.242 . S
C523 C522 1.506 . S
C523 C524 1.358 . S
C523 C528 1.382 . S
C524 C523 1.358 . S
C524 C525 1.385 . S
C524 H552 0.930 . S
C525 C524 1.385 . S
C525 C526 1.395 . S
C525 H553 0.929 . S
C526 C525 1.395 . S
C526 C527 1.335 . S
C527 C526 1.335 . S
C527 C528 1.398 . S
C527 H554 0.930 . S
C528 C523 1.382 . S
C528 C527 1.398 . S
C528 H555 0.929 . S
C529 O542 1.271 . S
C529 O543 1.251 . S
C530 O544 1.252 . S
C530 O545 1.272 . S
C531 Sm521 2.846 . S
C531 C532 1.506 . S
C531 O546 1.261 . S
C531 O547 1.242 . S
C532 C531 1.506 . S
C532 C533 1.358 . S
C532 C537 1.382 . S
C533 C532 1.358 . S
C533 C534 1.385 . S
C533 H556 0.930 . S
C534 C533 1.385 . S
C534 C535 1.395 . S
C534 H557 0.929 . S
C535 C534 1.395 . S
C535 C536 1.335 . S
C536 C535 1.335 . S
C536 C537 1.398 . S
C536 H558 0.930 . S
C537 C532 1.382 . S
C537 C536 1.398 . S
C537 H559 0.929 . S
C538 O548 1.271 . S
C538 O549 1.251 . S
C539 O550 1.252 . S
C539 O551 1.272 . S
O540 Sm520 2.543 . S
O540 C522 1.261 . S
O541 Sm520 2.450 . S
O541 C522 1.242 . S
O542 Sm520 2.681 . S
O542 Sm521 2.386 . S
O542 C529 1.271 . S
O543 Sm520 2.464 . S
O543 C529 1.251 . S
O544 Sm520 2.396 . S
O544 C530 1.252 . S
O545 Sm521 2.408 . S
O545 C530 1.272 . S
O546 Sm521 2.543 . S
O546 C531 1.261 . S
O547 Sm521 2.450 . S
O547 C531 1.242 . S
O548 Sm520 2.386 . S
O548 Sm521 2.681 . S
O548 C538 1.271 . S
O549 Sm521 2.464 . S
O549 C538 1.251 . S
O550 Sm521 2.396 . S
O550 C539 1.252 . S
O551 Sm520 2.408 . S
O551 C539 1.272 . S
H552 C524 0.930 . S
H553 C525 0.929 . S
H554 C527 0.930 . S
H555 C528 0.929 . S
H556 C533 0.930 . S
H557 C534 0.929 . S
H558 C536 0.930 . S
H559 C537 0.929 . S
Sm560 C562 2.846 . S
Sm560 O580 2.543 . S
Sm560 O581 2.450 . S
Sm560 O582 2.681 . S
Sm560 O583 2.464 . S
Sm560 O584 2.396 . S
Sm560 O588 2.386 . S
Sm560 O591 2.408 . S
Sm561 C571 2.846 . S
Sm561 O582 2.386 . S
Sm561 O585 2.408 . S
Sm561 O586 2.543 . S
Sm561 O587 2.450 . S
Sm561 O588 2.681 . S
Sm561 O589 2.464 . S
Sm561 O590 2.396 . S
C562 Sm560 2.846 . S
C562 C563 1.506 . S
C562 O580 1.261 . S
C562 O581 1.242 . S
C563 C562 1.506 . S
C563 C564 1.358 . S
C563 C568 1.382 . S
C564 C563 1.358 . S
C564 C565 1.385 . S
C564 H592 0.930 . S
C565 C564 1.385 . S
C565 C566 1.395 . S
C565 H593 0.929 . S
C566 C565 1.395 . S
C566 C567 1.335 . S
C567 C566 1.335 . S
C567 C568 1.398 . S
C567 H594 0.930 . S
C568 C563 1.382 . S
C568 C567 1.398 . S
C568 H595 0.929 . S
C569 O582 1.271 . S
C569 O583 1.251 . S
C570 O584 1.252 . S
C570 O585 1.272 . S
C571 Sm561 2.846 . S
C571 C572 1.506 . S
C571 O586 1.261 . S
C571 O587 1.242 . S
C572 C571 1.506 . S
C572 C573 1.358 . S
C572 C577 1.382 . S
C573 C572 1.358 . S
C573 C574 1.385 . S
C573 H596 0.930 . S
C574 C573 1.385 . S
C574 C575 1.395 . S
C574 H597 0.929 . S
C575 C574 1.395 . S
C575 C576 1.335 . S
C576 C575 1.335 . S
C576 C577 1.398 . S
C576 H598 0.930 . S
C577 C572 1.382 . S
C577 C576 1.398 . S
C577 H599 0.929 . S
C578 O588 1.271 . S
C578 O589 1.251 . S
C579 O590 1.252 . S
C579 O591 1.272 . S
O580 Sm560 2.543 . S
O580 C562 1.261 . S
O581 Sm560 2.450 . S
O581 C562 1.242 . S
O582 Sm560 2.681 . S
O582 Sm561 2.386 . S
O582 C569 1.271 . S
O583 Sm560 2.464 . S
O583 C569 1.251 . S
O584 Sm560 2.396 . S
O584 C570 1.252 . S
O585 Sm561 2.408 . S
O585 C570 1.272 . S
O586 Sm561 2.543 . S
O586 C571 1.261 . S
O587 Sm561 2.450 . S
O587 C571 1.242 . S
O588 Sm560 2.386 . S
O588 Sm561 2.681 . S
O588 C578 1.271 . S
O589 Sm561 2.464 . S
O589 C578 1.251 . S
O590 Sm561 2.396 . S
O590 C579 1.252 . S
O591 Sm560 2.408 . S
O591 C579 1.272 . S
H592 C564 0.930 . S
H593 C565 0.929 . S
H594 C567 0.930 . S
H595 C568 0.929 . S
H596 C573 0.930 . S
H597 C574 0.929 . S
H598 C576 0.930 . S
H599 C577 0.929 . S
Sm600 C602 2.846 . S
Sm600 O620 2.543 . S
Sm600 O621 2.450 . S
Sm600 O622 2.681 . S
Sm600 O623 2.464 . S
Sm600 O624 2.396 . S
Sm600 O628 2.386 . S
Sm600 O631 2.408 . S
Sm601 C611 2.846 . S
Sm601 O622 2.386 . S
Sm601 O625 2.408 . S
Sm601 O626 2.543 . S
Sm601 O627 2.450 . S
Sm601 O628 2.681 . S
Sm601 O629 2.464 . S
Sm601 O630 2.396 . S
C602 Sm600 2.846 . S
C602 C603 1.506 . S
C602 O620 1.261 . S
C602 O621 1.242 . S
C603 C602 1.506 . S
C603 C604 1.358 . S
C603 C608 1.382 . S
C604 C603 1.358 . S
C604 C605 1.385 . S
C604 H632 0.930 . S
C605 C604 1.385 . S
C605 C606 1.395 . S
C605 H633 0.929 . S
C606 C605 1.395 . S
C606 C607 1.335 . S
C607 C606 1.335 . S
C607 C608 1.398 . S
C607 H634 0.930 . S
C608 C603 1.382 . S
C608 C607 1.398 . S
C608 H635 0.929 . S
C609 O622 1.271 . S
C609 O623 1.251 . S
C610 O624 1.252 . S
C610 O625 1.272 . S
C611 Sm601 2.846 . S
C611 C612 1.506 . S
C611 O626 1.261 . S
C611 O627 1.242 . S
C612 C611 1.506 . S
C612 C613 1.358 . S
C612 C617 1.382 . S
C613 C612 1.358 . S
C613 C614 1.385 . S
C613 H636 0.930 . S
C614 C613 1.385 . S
C614 C615 1.395 . S
C614 H637 0.929 . S
C615 C614 1.395 . S
C615 C616 1.335 . S
C616 C615 1.335 . S
C616 C617 1.398 . S
C616 H638 0.930 . S
C617 C612 1.382 . S
C617 C616 1.398 . S
C617 H639 0.929 . S
C618 O628 1.271 . S
C618 O629 1.251 . S
C619 O630 1.252 . S
C619 O631 1.272 . S
O620 Sm600 2.543 . S
O620 C602 1.261 . S
O621 Sm600 2.450 . S
O621 C602 1.242 . S
O622 Sm600 2.681 . S
O622 Sm601 2.386 . S
O622 C609 1.271 . S
O623 Sm600 2.464 . S
O623 C609 1.251 . S
O624 Sm600 2.396 . S
O624 C610 1.252 . S
O625 Sm601 2.408 . S
O625 C610 1.272 . S
O626 Sm601 2.543 . S
O626 C611 1.261 . S
O627 Sm601 2.450 . S
O627 C611 1.242 . S
O628 Sm600 2.386 . S
O628 Sm601 2.681 . S
O628 C618 1.271 . S
O629 Sm601 2.464 . S
O629 C618 1.251 . S
O630 Sm601 2.396 . S
O630 C619 1.252 . S
O631 Sm600 2.408 . S
O631 C619 1.272 . S
H632 C604 0.930 . S
H633 C605 0.929 . S
H634 C607 0.930 . S
H635 C608 0.929 . S
H636 C613 0.930 . S
H637 C614 0.929 . S
H638 C616 0.930 . S
H639 C617 0.929 . S
H640 C648 0.929 . S
H641 C650 0.930 . S
H642 C652 0.930 . S
H643 C655 0.929 . S
H644 C658 0.930 . S
H645 C660 0.960 . S
H646 C660 0.960 . S
H647 C660 0.960 . S
C648 H640 0.929 . S
C648 C649 1.377 . S
C648 C650 1.384 . S
C649 C648 1.377 . S
C649 C655 1.390 . S
C650 H641 0.930 . S
C650 C648 1.384 . S
C650 C651 1.372 . S
C651 C650 1.372 . S
C651 C652 1.400 . S
C651 C656 1.490 . S
C652 H642 0.930 . S
C652 C651 1.400 . S
C652 C655 1.386 . S
H653 C669 0.930 . S
H654 C670 0.931 . S
C655 H643 0.929 . S
C655 C649 1.390 . S
C655 C652 1.386 . S
C656 C651 1.490 . S
C656 C658 1.395 . S
C656 C659 1.403 . S
H657 C663 0.930 . S
C658 H644 0.930 . S
C658 C656 1.395 . S
C658 C661 1.403 . S
C659 C656 1.403 . S
C659 C660 1.524 . S
C659 C663 1.400 . S
C660 H645 0.960 . S
C660 H646 0.960 . S
C660 H647 0.960 . S
C660 C659 1.524 . S
C661 C658 1.403 . S
C661 C662 1.392 . S
C661 C665 1.495 . S
C662 C661 1.392 . S
C662 C663 1.385 . S
C662 C664 1.478 . S
C663 H657 0.930 . S
C663 C659 1.400 . S
C663 C662 1.385 . S
C664 C662 1.478 . S
C664 C666 1.381 . S
C664 C670 1.383 . S
C665 C661 1.495 . S
C665 H671 0.959 . S
C665 H672 0.961 . S
C665 H673 0.960 . S
C666 C664 1.381 . S
C666 C667 1.394 . S
C666 H674 0.930 . S
C667 C666 1.394 . S
C667 C668 1.383 . S
C667 H675 0.929 . S
C668 C667 1.383 . S
C668 C669 1.377 . S
C669 H653 0.930 . S
C669 C668 1.377 . S
C669 C670 1.379 . S
C670 H654 0.931 . S
C670 C664 1.383 . S
C670 C669 1.379 . S
H671 C665 0.959 . S
H672 C665 0.961 . S
H673 C665 0.960 . S
H674 C666 0.930 . S
H675 C667 0.929 . S
H676 C684 0.929 . S
H677 C686 0.930 . S
H678 C688 0.930 . S
H679 C691 0.929 . S
H680 C694 0.930 . S
H681 C696 0.960 . S
H682 C696 0.960 . S
H683 C696 0.960 . S
C684 H676 0.929 . S
C684 C685 1.377 . S
C684 C686 1.384 . S
C685 C684 1.377 . S
C685 C691 1.390 . S
C686 H677 0.930 . S
C686 C684 1.384 . S
C686 C687 1.372 . S
C687 C686 1.372 . S
C687 C688 1.400 . S
C687 C692 1.490 . S
C688 H678 0.930 . S
C688 C687 1.400 . S
C688 C691 1.386 . S
H689 C705 0.930 . S
H690 C706 0.931 . S
C691 H679 0.929 . S
C691 C685 1.390 . S
C691 C688 1.386 . S
C692 C687 1.490 . S
C692 C694 1.395 . S
C692 C695 1.403 . S
H693 C699 0.930 . S
C694 H680 0.930 . S
C694 C692 1.395 . S
C694 C697 1.403 . S
C695 C692 1.403 . S
C695 C696 1.524 . S
C695 C699 1.400 . S
C696 H681 0.960 . S
C696 H682 0.960 . S
C696 H683 0.960 . S
C696 C695 1.524 . S
C697 C694 1.403 . S
C697 C698 1.392 . S
C697 C701 1.495 . S
C698 C697 1.392 . S
C698 C699 1.385 . S
C698 C700 1.478 . S
C699 H693 0.930 . S
C699 C695 1.400 . S
C699 C698 1.385 . S
C700 C698 1.478 . S
C700 C702 1.381 . S
C700 C706 1.383 . S
C701 C697 1.495 . S
C701 H707 0.959 . S
C701 H708 0.961 . S
C701 H709 0.960 . S
C702 C700 1.381 . S
C702 C703 1.394 . S
C702 H710 0.930 . S
C703 C702 1.394 . S
C703 C704 1.383 . S
C703 H711 0.929 . S
C704 C703 1.383 . S
C704 C705 1.377 . S
C705 H689 0.930 . S
C705 C704 1.377 . S
C705 C706 1.379 . S
C706 H690 0.931 . S
C706 C700 1.383 . S
C706 C705 1.379 . S
H707 C701 0.959 . S
H708 C701 0.961 . S
H709 C701 0.960 . S
H710 C702 0.930 . S
H711 C703 0.929 . S
H712 C720 0.929 . S
H713 C722 0.930 . S
H714 C724 0.930 . S
H715 C727 0.929 . S
H716 C730 0.930 . S
H717 C732 0.960 . S
H718 C732 0.960 . S
H719 C732 0.960 . S
C720 H712 0.929 . S
C720 C721 1.377 . S
C720 C722 1.384 . S
C721 C720 1.377 . S
C721 C727 1.390 . S
C722 H713 0.930 . S
C722 C720 1.384 . S
C722 C723 1.372 . S
C723 C722 1.372 . S
C723 C724 1.400 . S
C723 C728 1.490 . S
C724 H714 0.930 . S
C724 C723 1.400 . S
C724 C727 1.386 . S
H725 C741 0.930 . S
H726 C742 0.931 . S
C727 H715 0.929 . S
C727 C721 1.390 . S
C727 C724 1.386 . S
C728 C723 1.490 . S
C728 C730 1.395 . S
C728 C731 1.403 . S
H729 C735 0.930 . S
C730 H716 0.930 . S
C730 C728 1.395 . S
C730 C733 1.403 . S
C731 C728 1.403 . S
C731 C732 1.524 . S
C731 C735 1.400 . S
C732 H717 0.960 . S
C732 H718 0.960 . S
C732 H719 0.960 . S
C732 C731 1.524 . S
C733 C730 1.403 . S
C733 C734 1.392 . S
C733 C737 1.495 . S
C734 C733 1.392 . S
C734 C735 1.385 . S
C734 C736 1.478 . S
C735 H729 0.930 . S
C735 C731 1.400 . S
C735 C734 1.385 . S
C736 C734 1.478 . S
C736 C738 1.381 . S
C736 C742 1.383 . S
C737 C733 1.495 . S
C737 H743 0.959 . S
C737 H744 0.961 . S
C737 H745 0.960 . S
C738 C736 1.381 . S
C738 C739 1.394 . S
C738 H746 0.930 . S
C739 C738 1.394 . S
C739 C740 1.383 . S
C739 H747 0.929 . S
C740 C739 1.383 . S
C740 C741 1.377 . S
C741 H725 0.930 . S
C741 C740 1.377 . S
C741 C742 1.379 . S
C742 H726 0.931 . S
C742 C736 1.383 . S
C742 C741 1.379 . S
H743 C737 0.959 . S
H744 C737 0.961 . S
H745 C737 0.960 . S
H746 C738 0.930 . S
H747 C739 0.929 . S
H748 C756 0.929 . S
H749 C758 0.930 . S
H750 C760 0.930 . S
H751 C763 0.929 . S
H752 C766 0.930 . S
H753 C768 0.960 . S
H754 C768 0.960 . S
H755 C768 0.960 . S
C756 H748 0.929 . S
C756 C757 1.377 . S
C756 C758 1.384 . S
C757 C756 1.377 . S
C757 C763 1.390 . S
C758 H749 0.930 . S
C758 C756 1.384 . S
C758 C759 1.372 . S
C759 C758 1.372 . S
C759 C760 1.400 . S
C759 C764 1.490 . S
C760 H750 0.930 . S
C760 C759 1.400 . S
C760 C763 1.386 . S
H761 C777 0.930 . S
H762 C778 0.931 . S
C763 H751 0.929 . S
C763 C757 1.390 . S
C763 C760 1.386 . S
C764 C759 1.490 . S
C764 C766 1.395 . S
C764 C767 1.403 . S
H765 C771 0.930 . S
C766 H752 0.930 . S
C766 C764 1.395 . S
C766 C769 1.403 . S
C767 C764 1.403 . S
C767 C768 1.524 . S
C767 C771 1.400 . S
C768 H753 0.960 . S
C768 H754 0.960 . S
C768 H755 0.960 . S
C768 C767 1.524 . S
C769 C766 1.403 . S
C769 C770 1.392 . S
C769 C773 1.495 . S
C770 C769 1.392 . S
C770 C771 1.385 . S
C770 C772 1.478 . S
C771 H765 0.930 . S
C771 C767 1.400 . S
C771 C770 1.385 . S
C772 C770 1.478 . S
C772 C774 1.381 . S
C772 C778 1.383 . S
C773 C769 1.495 . S
C773 H779 0.959 . S
C773 H780 0.961 . S
C773 H781 0.960 . S
C774 C772 1.381 . S
C774 C775 1.394 . S
C774 H782 0.930 . S
C775 C774 1.394 . S
C775 C776 1.383 . S
C775 H783 0.929 . S
C776 C775 1.383 . S
C776 C777 1.377 . S
C777 H761 0.930 . S
C777 C776 1.377 . S
C777 C778 1.379 . S
C778 H762 0.931 . S
C778 C772 1.383 . S
C778 C777 1.379 . S
H779 C773 0.959 . S
H780 C773 0.961 . S
H781 C773 0.960 . S
H782 C774 0.930 . S
H783 C775 0.929 . S
H784 C792 0.929 . S
H785 C794 0.930 . S
H786 C796 0.930 . S
H787 C799 0.929 . S
H788 C802 0.930 . S
H789 C804 0.960 . S
H790 C804 0.960 . S
H791 C804 0.960 . S
C792 H784 0.929 . S
C792 C793 1.377 . S
C792 C794 1.384 . S
C793 C792 1.377 . S
C793 C799 1.390 . S
C794 H785 0.930 . S
C794 C792 1.384 . S
C794 C795 1.372 . S
C795 C794 1.372 . S
C795 C796 1.400 . S
C795 C800 1.490 . S
C796 H786 0.930 . S
C796 C795 1.400 . S
C796 C799 1.386 . S
H797 C813 0.930 . S
H798 C814 0.931 . S
C799 H787 0.929 . S
C799 C793 1.390 . S
C799 C796 1.386 . S
C800 C795 1.490 . S
C800 C802 1.395 . S
C800 C803 1.403 . S
H801 C807 0.930 . S
C802 H788 0.930 . S
C802 C800 1.395 . S
C802 C805 1.403 . S
C803 C800 1.403 . S
C803 C804 1.524 . S
C803 C807 1.400 . S
C804 H789 0.960 . S
C804 H790 0.960 . S
C804 H791 0.960 . S
C804 C803 1.524 . S
C805 C802 1.403 . S
C805 C806 1.392 . S
C805 C809 1.495 . S
C806 C805 1.392 . S
C806 C807 1.385 . S
C806 C808 1.478 . S
C807 H801 0.930 . S
C807 C803 1.400 . S
C807 C806 1.385 . S
C808 C806 1.478 . S
C808 C810 1.381 . S
C808 C814 1.383 . S
C809 C805 1.495 . S
C809 H815 0.959 . S
C809 H816 0.961 . S
C809 H817 0.960 . S
C810 C808 1.381 . S
C810 C811 1.394 . S
C810 H818 0.930 . S
C811 C810 1.394 . S
C811 C812 1.383 . S
C811 H819 0.929 . S
C812 C811 1.383 . S
C812 C813 1.377 . S
C813 H797 0.930 . S
C813 C812 1.377 . S
C813 C814 1.379 . S
C814 H798 0.931 . S
C814 C808 1.383 . S
C814 C813 1.379 . S
H815 C809 0.959 . S
H816 C809 0.961 . S
H817 C809 0.960 . S
H818 C810 0.930 . S
H819 C811 0.929 . S
H820 C828 0.929 . S
H821 C830 0.930 . S
H822 C832 0.930 . S
H823 C835 0.929 . S
H824 C838 0.930 . S
H825 C840 0.960 . S
H826 C840 0.960 . S
H827 C840 0.960 . S
C828 H820 0.929 . S
C828 C829 1.377 . S
C828 C830 1.384 . S
C829 C828 1.377 . S
C829 C835 1.390 . S
C830 H821 0.930 . S
C830 C828 1.384 . S
C830 C831 1.372 . S
C831 C830 1.372 . S
C831 C832 1.400 . S
C831 C836 1.490 . S
C832 H822 0.930 . S
C832 C831 1.400 . S
C832 C835 1.386 . S
H833 C849 0.930 . S
H834 C850 0.931 . S
C835 H823 0.929 . S
C835 C829 1.390 . S
C835 C832 1.386 . S
C836 C831 1.490 . S
C836 C838 1.395 . S
C836 C839 1.403 . S
H837 C843 0.930 . S
C838 H824 0.930 . S
C838 C836 1.395 . S
C838 C841 1.403 . S
C839 C836 1.403 . S
C839 C840 1.524 . S
C839 C843 1.400 . S
C840 H825 0.960 . S
C840 H826 0.960 . S
C840 H827 0.960 . S
C840 C839 1.524 . S
C841 C838 1.403 . S
C841 C842 1.392 . S
C841 C845 1.495 . S
C842 C841 1.392 . S
C842 C843 1.385 . S
C842 C844 1.478 . S
C843 H837 0.930 . S
C843 C839 1.400 . S
C843 C842 1.385 . S
C844 C842 1.478 . S
C844 C846 1.381 . S
C844 C850 1.383 . S
C845 C841 1.495 . S
C845 H851 0.959 . S
C845 H852 0.961 . S
C845 H853 0.960 . S
C846 C844 1.381 . S
C846 C847 1.394 . S
C846 H854 0.930 . S
C847 C846 1.394 . S
C847 C848 1.383 . S
C847 H855 0.929 . S
C848 C847 1.383 . S
C848 C849 1.377 . S
C849 H833 0.930 . S
C849 C848 1.377 . S
C849 C850 1.379 . S
C850 H834 0.931 . S
C850 C844 1.383 . S
C850 C849 1.379 . S
H851 C845 0.959 . S
H852 C845 0.961 . S
H853 C845 0.960 . S
H854 C846 0.930 . S
H855 C847 0.929 . S
H856 C864 0.929 . S
H857 C866 0.930 . S
H858 C868 0.930 . S
H859 C871 0.929 . S
H860 C874 0.930 . S
H861 C876 0.960 . S
H862 C876 0.960 . S
H863 C876 0.960 . S
C864 H856 0.929 . S
C864 C865 1.377 . S
C864 C866 1.384 . S
C865 C864 1.377 . S
C865 C871 1.390 . S
C866 H857 0.930 . S
C866 C864 1.384 . S
C866 C867 1.372 . S
C867 C866 1.372 . S
C867 C868 1.400 . S
C867 C872 1.490 . S
C868 H858 0.930 . S
C868 C867 1.400 . S
C868 C871 1.386 . S
H869 C885 0.930 . S
H870 C886 0.931 . S
C871 H859 0.929 . S
C871 C865 1.390 . S
C871 C868 1.386 . S
C872 C867 1.490 . S
C872 C874 1.395 . S
C872 C875 1.403 . S
H873 C879 0.930 . S
C874 H860 0.930 . S
C874 C872 1.395 . S
C874 C877 1.403 . S
C875 C872 1.403 . S
C875 C876 1.524 . S
C875 C879 1.400 . S
C876 H861 0.960 . S
C876 H862 0.960 . S
C876 H863 0.960 . S
C876 C875 1.524 . S
C877 C874 1.403 . S
C877 C878 1.392 . S
C877 C881 1.495 . S
C878 C877 1.392 . S
C878 C879 1.385 . S
C878 C880 1.478 . S
C879 H873 0.930 . S
C879 C875 1.400 . S
C879 C878 1.385 . S
C880 C878 1.478 . S
C880 C882 1.381 . S
C880 C886 1.383 . S
C881 C877 1.495 . S
C881 H887 0.959 . S
C881 H888 0.961 . S
C881 H889 0.960 . S
C882 C880 1.381 . S
C882 C883 1.394 . S
C882 H890 0.930 . S
C883 C882 1.394 . S
C883 C884 1.383 . S
C883 H891 0.929 . S
C884 C883 1.383 . S
C884 C885 1.377 . S
C885 H869 0.930 . S
C885 C884 1.377 . S
C885 C886 1.379 . S
C886 H870 0.931 . S
C886 C880 1.383 . S
C886 C885 1.379 . S
H887 C881 0.959 . S
H888 C881 0.961 . S
H889 C881 0.960 . S
H890 C882 0.930 . S
H891 C883 0.929 . S
H892 C900 0.929 . S
H893 C902 0.930 . S
H894 C904 0.930 . S
H895 C907 0.929 . S
H896 C910 0.930 . S
H897 C912 0.960 . S
H898 C912 0.960 . S
H899 C912 0.960 . S
C900 H892 0.929 . S
C900 C901 1.377 . S
C900 C902 1.384 . S
C901 C900 1.377 . S
C901 C907 1.390 . S
C902 H893 0.930 . S
C902 C900 1.384 . S
C902 C903 1.372 . S
C903 C902 1.372 . S
C903 C904 1.400 . S
C903 C908 1.490 . S
C904 H894 0.930 . S
C904 C903 1.400 . S
C904 C907 1.386 . S
H905 C921 0.930 . S
H906 C922 0.931 . S
C907 H895 0.929 . S
C907 C901 1.390 . S
C907 C904 1.386 . S
C908 C903 1.490 . S
C908 C910 1.395 . S
C908 C911 1.403 . S
H909 C915 0.930 . S
C910 H896 0.930 . S
C910 C908 1.395 . S
C910 C913 1.403 . S
C911 C908 1.403 . S
C911 C912 1.524 . S
C911 C915 1.400 . S
C912 H897 0.960 . S
C912 H898 0.960 . S
C912 H899 0.960 . S
C912 C911 1.524 . S
C913 C910 1.403 . S
C913 C914 1.392 . S
C913 C917 1.495 . S
C914 C913 1.392 . S
C914 C915 1.385 . S
C914 C916 1.478 . S
C915 H909 0.930 . S
C915 C911 1.400 . S
C915 C914 1.385 . S
C916 C914 1.478 . S
C916 C918 1.381 . S
C916 C922 1.383 . S
C917 C913 1.495 . S
C917 H923 0.959 . S
C917 H924 0.961 . S
C917 H925 0.960 . S
C918 C916 1.381 . S
C918 C919 1.394 . S
C918 H926 0.930 . S
C919 C918 1.394 . S
C919 C920 1.383 . S
C919 H927 0.929 . S
C920 C919 1.383 . S
C920 C921 1.377 . S
C921 H905 0.930 . S
C921 C920 1.377 . S
C921 C922 1.379 . S
C922 H906 0.931 . S
C922 C916 1.383 . S
C922 C921 1.379 . S
H923 C917 0.959 . S
H924 C917 0.961 . S
H925 C917 0.960 . S
H926 C918 0.930 . S
H927 C919 0.929 . S
H928 C936 0.929 . S
H929 C938 0.930 . S
H930 C940 0.930 . S
H931 C943 0.929 . S
H932 C946 0.930 . S
H933 C948 0.960 . S
H934 C948 0.960 . S
H935 C948 0.960 . S
C936 H928 0.929 . S
C936 C937 1.377 . S
C936 C938 1.384 . S
C937 C936 1.377 . S
C937 C943 1.390 . S
C938 H929 0.930 . S
C938 C936 1.384 . S
C938 C939 1.372 . S
C939 C938 1.372 . S
C939 C940 1.400 . S
C939 C944 1.490 . S
C940 H930 0.930 . S
C940 C939 1.400 . S
C940 C943 1.386 . S
H941 C957 0.930 . S
H942 C958 0.931 . S
C943 H931 0.929 . S
C943 C937 1.390 . S
C943 C940 1.386 . S
C944 C939 1.490 . S
C944 C946 1.395 1_565 S
C944 C947 1.403 . S
H945 C951 0.930 . S
C946 H932 0.930 . S
C946 C944 1.395 1_545 S
C946 C949 1.403 . S
C947 C944 1.403 . S
C947 C948 1.524 . S
C947 C951 1.400 . S
C948 H933 0.960 . S
C948 H934 0.960 . S
C948 H935 0.960 . S
C948 C947 1.524 . S
C949 C946 1.403 . S
C949 C950 1.392 . S
C949 C953 1.495 . S
C950 C949 1.392 . S
C950 C951 1.385 1_545 S
C950 C952 1.478 . S
C951 H945 0.930 . S
C951 C947 1.400 . S
C951 C950 1.385 1_565 S
C952 C950 1.478 . S
C952 C954 1.381 . S
C952 C958 1.383 . S
C953 C949 1.495 . S
C953 H959 0.959 . S
C953 H960 0.961 . S
C953 H961 0.960 . S
C954 C952 1.381 . S
C954 C955 1.394 . S
C954 H962 0.930 . S
C955 C954 1.394 . S
C955 C956 1.383 . S
C955 H963 0.929 . S
C956 C955 1.383 . S
C956 C957 1.377 . S
C957 H941 0.930 . S
C957 C956 1.377 . S
C957 C958 1.379 . S
C958 H942 0.931 . S
C958 C952 1.383 . S
C958 C957 1.379 . S
H959 C953 0.959 . S
H960 C953 0.961 . S
H961 C953 0.960 . S
H962 C954 0.930 . S
H963 C955 0.929 . S
H964 C972 0.929 . S
H965 C974 0.930 . S
H966 C976 0.930 . S
H967 C979 0.929 . S
H968 C982 0.930 . S
H969 C984 0.960 . S
H970 C984 0.960 . S
H971 C984 0.960 . S
C972 H964 0.929 . S
C972 C973 1.377 . S
C972 C974 1.384 . S
C973 C972 1.377 . S
C973 C979 1.390 . S
C974 H965 0.930 . S
C974 C972 1.384 . S
C974 C975 1.372 . S
C975 C974 1.372 . S
C975 C976 1.400 . S
C975 C980 1.490 . S
C976 H966 0.930 . S
C976 C975 1.400 . S
C976 C979 1.386 . S
H977 C993 0.930 . S
H978 C994 0.931 . S
C979 H967 0.929 . S
C979 C973 1.390 . S
C979 C976 1.386 . S
C980 C975 1.490 . S
C980 C982 1.395 1_545 S
C980 C983 1.403 . S
H981 C987 0.930 . S
C982 H968 0.930 . S
C982 C980 1.395 1_565 S
C982 C985 1.403 . S
C983 C980 1.403 . S
C983 C984 1.524 . S
C983 C987 1.400 . S
C984 H969 0.960 . S
C984 H970 0.960 . S
C984 H971 0.960 . S
C984 C983 1.524 . S
C985 C982 1.403 . S
C985 C986 1.392 . S
C985 C989 1.495 . S
C986 C985 1.392 . S
C986 C987 1.385 1_565 S
C986 C988 1.478 . S
C987 H981 0.930 . S
C987 C983 1.400 . S
C987 C986 1.385 1_545 S
C988 C986 1.478 . S
C988 C990 1.381 . S
C988 C994 1.383 . S
C989 C985 1.495 . S
C989 H995 0.959 . S
C989 H996 0.961 . S
C989 H997 0.960 . S
C990 C988 1.381 . S
C990 C991 1.394 . S
C990 H998 0.930 . S
C991 C990 1.394 . S
C991 C992 1.383 . S
C991 H999 0.929 . S
C992 C991 1.383 . S
C992 C993 1.377 . S
C993 H977 0.930 . S
C993 C992 1.377 . S
C993 C994 1.379 . S
C994 H978 0.931 . S
C994 C988 1.383 . S
C994 C993 1.379 . S
H995 C989 0.959 . S
H996 C989 0.961 . S
H997 C989 0.960 . S
H998 C990 0.930 . S
H999 C991 0.929 . S
H1000 C1008 0.929 . S
H1001 C1010 0.930 1_565 S
H1002 C1012 0.930 . S
H1003 C1015 0.929 . S
H1004 C1018 0.930 . S
H1005 C1020 0.960 1_565 S
H1006 C1020 0.960 1_565 S
H1007 C1020 0.960 . S
C1008 H1000 0.929 . S
C1008 C1009 1.377 . S
C1008 C1010 1.384 . S
C1009 C1008 1.377 . S
C1009 C1015 1.390 . S
C1010 H1001 0.930 1_545 S
C1010 C1008 1.384 . S
C1010 C1011 1.372 . S
C1011 C1010 1.372 . S
C1011 C1012 1.400 . S
C1011 C1016 1.490 . S
C1012 H1002 0.930 . S
C1012 C1011 1.400 . S
C1012 C1015 1.386 . S
H1013 C1029 0.930 . S
H1014 C1030 0.931 1_545 S
C1015 H1003 0.929 . S
C1015 C1009 1.390 . S
C1015 C1012 1.386 . S
C1016 C1011 1.490 . S
C1016 C1018 1.395 . S
C1016 C1019 1.403 . S
H1017 C1023 0.930 . S
C1018 H1004 0.930 . S
C1018 C1016 1.395 . S
C1018 C1021 1.403 1_545 S
C1019 C1016 1.403 . S
C1019 C1020 1.524 . S
C1019 C1023 1.400 1_545 S
C1020 H1005 0.960 1_545 S
C1020 H1006 0.960 1_545 S
C1020 H1007 0.960 . S
C1020 C1019 1.524 . S
C1021 C1018 1.403 1_565 S
C1021 C1022 1.392 . S
C1021 C1025 1.495 . S
C1022 C1021 1.392 . S
C1022 C1023 1.385 . S
C1022 C1024 1.478 . S
C1023 H1017 0.930 . S
C1023 C1019 1.400 1_565 S
C1023 C1022 1.385 . S
C1024 C1022 1.478 . S
C1024 C1026 1.381 . S
C1024 C1030 1.383 . S
C1025 C1021 1.495 . S
C1025 H1031 0.959 . S
C1025 H1032 0.961 1_565 S
C1025 H1033 0.960 . S
C1026 C1024 1.381 . S
C1026 C1027 1.394 . S
C1026 H1034 0.930 . S
C1027 C1026 1.394 . S
C1027 C1028 1.383 . S
C1027 H1035 0.929 . S
C1028 C1027 1.383 . S
C1028 C1029 1.377 . S
C1029 H1013 0.930 . S
C1029 C1028 1.377 . S
C1029 C1030 1.379 . S
C1030 H1014 0.931 1_565 S
C1030 C1024 1.383 . S
C1030 C1029 1.379 . S
H1031 C1025 0.959 . S
H1032 C1025 0.961 1_545 S
H1033 C1025 0.960 . S
H1034 C1026 0.930 . S
H1035 C1027 0.929 . S
H1036 C1044 0.929 . S
H1037 C1046 0.930 . S
H1038 C1048 0.930 1_565 S
H1039 C1051 0.929 . S
H1040 C1054 0.930 . S
H1041 C1056 0.960 . S
H1042 C1056 0.960 . S
H1043 C1056 0.960 . S
C1044 H1036 0.929 . S
C1044 C1045 1.377 . S
C1044 C1046 1.384 . S
C1045 C1044 1.377 . S
C1045 C1051 1.390 . S
C1046 H1037 0.930 . S
C1046 C1044 1.384 . S
C1046 C1047 1.372 . S
C1047 C1046 1.372 . S
C1047 C1048 1.400 . S
C1047 C1052 1.490 . S
C1048 H1038 0.930 1_545 S
C1048 C1047 1.400 . S
C1048 C1051 1.386 . S
H1049 C1065 0.930 . S
H1050 C1066 0.931 . S
C1051 H1039 0.929 . S
C1051 C1045 1.390 . S
C1051 C1048 1.386 . S
C1052 C1047 1.490 . S
C1052 C1054 1.395 . S
C1052 C1055 1.403 . S
H1053 C1059 0.930 . S
C1054 H1040 0.930 . S
C1054 C1052 1.395 . S
C1054 C1057 1.403 1_545 S
C1055 C1052 1.403 . S
C1055 C1056 1.524 . S
C1055 C1059 1.400 1_545 S
C1056 H1041 0.960 . S
C1056 H1042 0.960 . S
C1056 H1043 0.960 . S
C1056 C1055 1.524 . S
C1057 C1054 1.403 1_565 S
C1057 C1058 1.392 . S
C1057 C1061 1.495 . S
C1058 C1057 1.392 . S
C1058 C1059 1.385 . S
C1058 C1060 1.478 . S
C1059 H1053 0.930 . S
C1059 C1055 1.400 1_565 S
C1059 C1058 1.385 . S
C1060 C1058 1.478 . S
C1060 C1062 1.381 . S
C1060 C1066 1.383 . S
C1061 C1057 1.495 . S
C1061 H1067 0.959 . S
C1061 H1068 0.961 . S
C1061 H1069 0.972 . S
C1062 C1060 1.381 . S
C1062 C1063 1.394 . S
C1062 H1070 0.930 1_565 S
C1063 C1062 1.394 . S
C1063 C1064 1.383 . S
C1063 H1071 0.929 . S
C1064 C1063 1.383 . S
C1064 C1065 1.377 . S
C1065 H1049 0.930 . S
C1065 C1064 1.377 . S
C1065 C1066 1.379 . S
C1066 H1050 0.931 . S
C1066 C1060 1.383 . S
C1066 C1065 1.379 . S
H1067 C1061 0.959 . S
H1068 C1061 0.961 . S
H1069 C1061 0.972 . S
H1070 C1062 0.930 1_545 S
H1071 C1063 0.929 . S
H1072 C1080 0.929 . S
H1073 C1082 0.930 . S
H1074 C1084 0.930 . S
H1075 C1087 0.929 . S
H1076 C1090 0.930 . S
H1077 C1092 0.960 . S
H1078 C1092 0.960 . S
H1079 C1092 0.960 . S
C1080 H1072 0.929 . S
C1080 C1081 1.377 . S
C1080 C1082 1.384 . S
C1081 C1080 1.377 . S
C1081 C1087 1.390 . S
C1082 H1073 0.930 . S
C1082 C1080 1.384 . S
C1082 C1083 1.372 . S
C1083 C1082 1.372 . S
C1083 C1084 1.400 . S
C1083 C1088 1.490 . S
C1084 H1074 0.930 . S
C1084 C1083 1.400 . S
C1084 C1087 1.386 . S
H1085 C1101 0.930 . S
H1086 C1102 0.931 . S
C1087 H1075 0.929 . S
C1087 C1081 1.390 . S
C1087 C1084 1.386 . S
C1088 C1083 1.490 . S
C1088 C1090 1.395 . S
C1088 C1091 1.403 . S
H1089 C1095 0.930 . S
C1090 H1076 0.930 . S
C1090 C1088 1.395 . S
C1090 C1093 1.403 . S
C1091 C1088 1.403 . S
C1091 C1092 1.524 . S
C1091 C1095 1.400 . S
C1092 H1077 0.960 . S
C1092 H1078 0.960 . S
C1092 H1079 0.960 . S
C1092 C1091 1.524 . S
C1093 C1090 1.403 . S
C1093 C1094 1.392 . S
C1093 C1097 1.495 . S
C1094 C1093 1.392 . S
C1094 C1095 1.385 . S
C1094 C1096 1.478 . S
C1095 H1089 0.930 . S
C1095 C1091 1.400 . S
C1095 C1094 1.385 . S
C1096 C1094 1.478 . S
C1096 C1098 1.381 . S
C1096 C1102 1.383 . S
C1097 C1093 1.495 . S
C1097 H1103 0.959 . S
C1097 H1104 0.961 . S
C1097 H1105 0.960 . S
C1098 C1096 1.381 . S
C1098 C1099 1.394 . S
C1098 H1106 0.930 . S
C1099 C1098 1.394 . S
C1099 C1100 1.383 . S
C1099 H1107 0.929 . S
C1100 C1099 1.383 . S
C1100 C1101 1.377 . S
C1101 H1085 0.930 . S
C1101 C1100 1.377 . S
C1101 C1102 1.379 . S
C1102 H1086 0.931 . S
C1102 C1096 1.383 . S
C1102 C1101 1.379 . S
H1103 C1097 0.959 . S
H1104 C1097 0.961 . S
H1105 C1097 0.960 . S
H1106 C1098 0.930 . S
H1107 C1099 0.929 . S
H1108 C1116 0.929 . S
H1109 C1118 0.930 . S
H1110 C1120 0.930 . S
H1111 C1123 0.929 . S
H1112 C1126 0.930 . S
H1113 C1128 0.960 . S
H1114 C1128 0.960 . S
H1115 C1128 0.960 . S
C1116 H1108 0.929 . S
C1116 C1117 1.377 . S
C1116 C1118 1.384 . S
C1117 C1116 1.377 . S
C1117 C1123 1.390 . S
C1118 H1109 0.930 . S
C1118 C1116 1.384 . S
C1118 C1119 1.372 . S
C1119 C1118 1.372 . S
C1119 C1120 1.400 . S
C1119 C1124 1.490 . S
C1120 H1110 0.930 . S
C1120 C1119 1.400 . S
C1120 C1123 1.386 . S
H1121 C1137 0.930 . S
H1122 C1138 0.931 . S
C1123 H1111 0.929 . S
C1123 C1117 1.390 . S
C1123 C1120 1.386 . S
C1124 C1119 1.490 . S
C1124 C1126 1.395 . S
C1124 C1127 1.403 . S
H1125 C1131 0.930 . S
C1126 H1112 0.930 . S
C1126 C1124 1.395 . S
C1126 C1129 1.403 . S
C1127 C1124 1.403 . S
C1127 C1128 1.524 . S
C1127 C1131 1.400 . S
C1128 H1113 0.960 . S
C1128 H1114 0.960 . S
C1128 H1115 0.960 . S
C1128 C1127 1.524 . S
C1129 C1126 1.403 . S
C1129 C1130 1.392 . S
C1129 C1133 1.495 . S
C1130 C1129 1.392 . S
C1130 C1131 1.385 . S
C1130 C1132 1.478 . S
C1131 H1125 0.930 . S
C1131 C1127 1.400 . S
C1131 C1130 1.385 . S
C1132 C1130 1.478 . S
C1132 C1134 1.381 . S
C1132 C1138 1.383 . S
C1133 C1129 1.495 . S
C1133 H1139 0.959 . S
C1133 H1140 0.961 . S
C1133 H1141 0.960 . S
C1134 C1132 1.381 . S
C1134 C1135 1.394 . S
C1134 H1142 0.930 . S
C1135 C1134 1.394 . S
C1135 C1136 1.383 . S
C1135 H1143 0.929 . S
C1136 C1135 1.383 . S
C1136 C1137 1.377 . S
C1137 H1121 0.930 . S
C1137 C1136 1.377 . S
C1137 C1138 1.379 . S
C1138 H1122 0.931 . S
C1138 C1132 1.383 . S
C1138 C1137 1.379 . S
H1139 C1133 0.959 . S
H1140 C1133 0.961 . S
H1141 C1133 0.960 . S
H1142 C1134 0.930 . S
H1143 C1135 0.929 . S
H1144 C1152 0.929 . S
H1145 C1154 0.930 . S
H1146 C1156 0.930 . S
H1147 C1159 0.929 . S
H1148 C1162 0.930 . S
H1149 C1164 0.960 . S
H1150 C1164 0.960 . S
H1151 C1164 0.960 . S
C1152 H1144 0.929 . S
C1152 C1153 1.377 . S
C1152 C1154 1.384 . S
C1153 C1152 1.377 . S
C1153 C1159 1.390 . S
C1154 H1145 0.930 . S
C1154 C1152 1.384 . S
C1154 C1155 1.372 . S
C1155 C1154 1.372 . S
C1155 C1156 1.400 . S
C1155 C1160 1.490 . S
C1156 H1146 0.930 . S
C1156 C1155 1.400 . S
C1156 C1159 1.386 . S
H1157 C1173 0.930 . S
H1158 C1174 0.931 . S
C1159 H1147 0.929 . S
C1159 C1153 1.390 . S
C1159 C1156 1.386 . S
C1160 C1155 1.490 . S
C1160 C1162 1.395 . S
C1160 C1163 1.403 . S
H1161 C1167 0.930 . S
C1162 H1148 0.930 . S
C1162 C1160 1.395 . S
C1162 C1165 1.403 . S
C1163 C1160 1.403 . S
C1163 C1164 1.524 . S
C1163 C1167 1.400 . S
C1164 H1149 0.960 . S
C1164 H1150 0.960 . S
C1164 H1151 0.960 . S
C1164 C1163 1.524 . S
C1165 C1162 1.403 . S
C1165 C1166 1.392 . S
C1165 C1169 1.495 . S
C1166 C1165 1.392 . S
C1166 C1167 1.385 . S
C1166 C1168 1.478 . S
C1167 H1161 0.930 . S
C1167 C1163 1.400 . S
C1167 C1166 1.385 . S
C1168 C1166 1.478 . S
C1168 C1170 1.381 . S
C1168 C1174 1.383 . S
C1169 C1165 1.495 . S
C1169 H1175 0.959 . S
C1169 H1176 0.961 . S
C1169 H1177 0.960 . S
C1170 C1168 1.381 . S
C1170 C1171 1.394 . S
C1170 H1178 0.930 . S
C1171 C1170 1.394 . S
C1171 C1172 1.383 . S
C1171 H1179 0.929 . S
C1172 C1171 1.383 . S
C1172 C1173 1.377 . S
C1173 H1157 0.930 . S
C1173 C1172 1.377 . S
C1173 C1174 1.379 . S
C1174 H1158 0.931 . S
C1174 C1168 1.383 . S
C1174 C1173 1.379 . S
H1175 C1169 0.959 . S
H1176 C1169 0.961 . S
H1177 C1169 0.960 . S
H1178 C1170 0.930 . S
H1179 C1171 0.929 . S
H1180 C1188 0.929 . S
H1181 C1190 0.930 . S
H1182 C1192 0.930 . S
H1183 C1195 0.929 . S
H1184 C1198 0.930 . S
H1185 C1200 0.960 . S
H1186 C1200 0.960 . S
H1187 C1200 0.960 . S
C1188 H1180 0.929 . S
C1188 C1189 1.377 . S
C1188 C1190 1.384 . S
C1189 C1188 1.377 . S
C1189 C1195 1.390 . S
C1190 H1181 0.930 . S
C1190 C1188 1.384 . S
C1190 C1191 1.372 . S
C1191 C1190 1.372 . S
C1191 C1192 1.400 . S
C1191 C1196 1.490 . S
C1192 H1182 0.930 . S
C1192 C1191 1.400 . S
C1192 C1195 1.386 . S
H1193 C1209 0.930 . S
H1194 C1210 0.931 . S
C1195 H1183 0.929 . S
C1195 C1189 1.390 . S
C1195 C1192 1.386 . S
C1196 C1191 1.490 . S
C1196 C1198 1.395 . S
C1196 C1199 1.403 . S
H1197 C1203 0.930 . S
C1198 H1184 0.930 . S
C1198 C1196 1.395 . S
C1198 C1201 1.403 . S
C1199 C1196 1.403 . S
C1199 C1200 1.524 . S
C1199 C1203 1.400 . S
C1200 H1185 0.960 . S
C1200 H1186 0.960 . S
C1200 H1187 0.960 . S
C1200 C1199 1.524 . S
C1201 C1198 1.403 . S
C1201 C1202 1.392 . S
C1201 C1205 1.495 . S
C1202 C1201 1.392 . S
C1202 C1203 1.385 . S
C1202 C1204 1.478 . S
C1203 H1197 0.930 . S
C1203 C1199 1.400 . S
C1203 C1202 1.385 . S
C1204 C1202 1.478 . S
C1204 C1206 1.381 . S
C1204 C1210 1.383 . S
C1205 C1201 1.495 . S
C1205 H1211 0.959 . S
C1205 H1212 0.961 . S
C1205 H1213 0.960 . S
C1206 C1204 1.381 . S
C1206 C1207 1.394 . S
C1206 H1214 0.930 . S
C1207 C1206 1.394 . S
C1207 C1208 1.383 . S
C1207 H1215 0.929 . S
C1208 C1207 1.383 . S
C1208 C1209 1.377 . S
C1209 H1193 0.930 . S
C1209 C1208 1.377 . S
C1209 C1210 1.379 . S
C1210 H1194 0.931 . S
C1210 C1204 1.383 . S
C1210 C1209 1.379 . S
H1211 C1205 0.959 . S
H1212 C1205 0.961 . S
H1213 C1205 0.960 . S
H1214 C1206 0.930 . S
H1215 C1207 0.929 . S
H1216 C1224 0.929 . S
H1217 C1226 0.930 . S
H1218 C1228 0.930 . S
H1219 C1231 0.929 . S
H1220 C1234 0.930 . S
H1221 C1236 0.960 . S
H1222 C1236 0.960 . S
H1223 C1236 0.960 . S
C1224 H1216 0.929 . S
C1224 C1225 1.377 . S
C1224 C1226 1.384 . S
C1225 C1224 1.377 . S
C1225 C1231 1.390 . S
C1226 H1217 0.930 . S
C1226 C1224 1.384 . S
C1226 C1227 1.372 . S
C1227 C1226 1.372 . S
C1227 C1228 1.400 . S
C1227 C1232 1.490 . S
C1228 H1218 0.930 . S
C1228 C1227 1.400 . S
C1228 C1231 1.386 . S
H1229 C1245 0.930 . S
H1230 C1246 0.931 . S
C1231 H1219 0.929 . S
C1231 C1225 1.390 . S
C1231 C1228 1.386 . S
C1232 C1227 1.490 . S
C1232 C1234 1.395 . S
C1232 C1235 1.403 . S
H1233 C1239 0.930 . S
C1234 H1220 0.930 . S
C1234 C1232 1.395 . S
C1234 C1237 1.403 1_556 S
C1235 C1232 1.403 . S
C1235 C1236 1.524 . S
C1235 C1239 1.400 1_556 S
C1236 H1221 0.960 . S
C1236 H1222 0.960 . S
C1236 H1223 0.960 . S
C1236 C1235 1.524 . S
C1237 C1234 1.403 1_554 S
C1237 C1238 1.392 . S
C1237 C1241 1.495 . S
C1238 C1237 1.392 . S
C1238 C1239 1.385 . S
C1238 C1240 1.478 . S
C1239 H1233 0.930 . S
C1239 C1235 1.400 1_554 S
C1239 C1238 1.385 . S
C1240 C1238 1.478 . S
C1240 C1242 1.381 . S
C1240 C1246 1.383 . S
C1241 C1237 1.495 . S
C1241 H1247 0.959 . S
C1241 H1248 0.961 . S
C1241 H1249 0.960 . S
C1242 C1240 1.381 . S
C1242 C1243 1.394 . S
C1242 H1250 0.930 . S
C1243 C1242 1.394 . S
C1243 C1244 1.383 . S
C1243 H1251 0.929 . S
C1244 C1243 1.383 . S
C1244 C1245 1.377 . S
C1245 H1229 0.930 . S
C1245 C1244 1.377 . S
C1245 C1246 1.379 . S
C1246 H1230 0.931 . S
C1246 C1240 1.383 . S
C1246 C1245 1.379 . S
H1247 C1241 0.959 . S
H1248 C1241 0.961 . S
H1249 C1241 0.960 . S
H1250 C1242 0.930 . S
H1251 C1243 0.929 . S
H1252 C1260 0.929 . S
H1253 C1262 0.930 . S
H1254 C1264 0.930 . S
H1255 C1267 0.929 . S
H1256 C1270 0.930 . S
H1257 C1272 0.960 . S
H1258 C1272 0.960 . S
H1259 C1272 0.960 . S
C1260 H1252 0.929 . S
C1260 C1261 1.377 . S
C1260 C1262 1.384 . S
C1261 C1260 1.377 . S
C1261 C1267 1.390 . S
C1262 H1253 0.930 . S
C1262 C1260 1.384 . S
C1262 C1263 1.372 . S
C1263 C1262 1.372 . S
C1263 C1264 1.400 . S
C1263 C1268 1.490 . S
C1264 H1254 0.930 . S
C1264 C1263 1.400 . S
C1264 C1267 1.386 . S
H1265 C1281 0.930 . S
H1266 C1282 0.931 . S
C1267 H1255 0.929 . S
C1267 C1261 1.390 . S
C1267 C1264 1.386 . S
C1268 C1263 1.490 . S
C1268 C1270 1.395 . S
C1268 C1271 1.403 . S
H1269 C1275 0.930 . S
C1270 H1256 0.930 . S
C1270 C1268 1.395 . S
C1270 C1273 1.403 1_556 S
C1271 C1268 1.403 . S
C1271 C1272 1.524 . S
C1271 C1275 1.400 1_556 S
C1272 H1257 0.960 . S
C1272 H1258 0.960 . S
C1272 H1259 0.960 . S
C1272 C1271 1.524 . S
C1273 C1270 1.403 1_554 S
C1273 C1274 1.392 . S
C1273 C1277 1.495 . S
C1274 C1273 1.392 . S
C1274 C1275 1.385 . S
C1274 C1276 1.478 . S
C1275 H1269 0.930 . S
C1275 C1271 1.400 1_554 S
C1275 C1274 1.385 . S
C1276 C1274 1.478 . S
C1276 C1278 1.381 . S
C1276 C1282 1.383 . S
C1277 C1273 1.495 . S
C1277 H1283 0.959 . S
C1277 H1284 0.961 . S
C1277 H1285 0.960 . S
C1278 C1276 1.381 . S
C1278 C1279 1.394 . S
C1278 H1286 0.930 . S
C1279 C1278 1.394 . S
C1279 C1280 1.383 . S
C1279 H1287 0.929 . S
C1280 C1279 1.383 . S
C1280 C1281 1.377 . S
C1281 H1265 0.930 . S
C1281 C1280 1.377 . S
C1281 C1282 1.379 . S
C1282 H1266 0.931 . S
C1282 C1276 1.383 . S
C1282 C1281 1.379 . S
H1283 C1277 0.959 . S
H1284 C1277 0.961 . S
H1285 C1277 0.960 . S
H1286 C1278 0.930 . S
H1287 C1279 0.929 . S
H1288 C1296 0.929 . S
H1289 C1298 0.930 . S
H1290 C1300 0.930 . S
H1291 C1303 0.929 . S
H1292 C1306 0.930 . S
H1293 C1308 0.960 . S
H1294 C1308 0.960 . S
H1295 C1308 0.960 . S
C1296 H1288 0.929 . S
C1296 C1297 1.377 . S
C1296 C1298 1.384 . S
C1297 C1296 1.377 . S
C1297 C1303 1.390 . S
C1298 H1289 0.930 . S
C1298 C1296 1.384 . S
C1298 C1299 1.372 . S
C1299 C1298 1.372 . S
C1299 C1300 1.400 . S
C1299 C1304 1.490 . S
C1300 H1290 0.930 . S
C1300 C1299 1.400 . S
C1300 C1303 1.386 . S
H1301 C1317 0.930 . S
H1302 C1318 0.931 . S
C1303 H1291 0.929 . S
C1303 C1297 1.390 . S
C1303 C1300 1.386 . S
C1304 C1299 1.490 . S
C1304 C1306 1.395 . S
C1304 C1307 1.403 . S
H1305 C1311 0.930 . S
C1306 H1292 0.930 . S
C1306 C1304 1.395 . S
C1306 C1309 1.403 . S
C1307 C1304 1.403 . S
C1307 C1308 1.524 . S
C1307 C1311 1.400 . S
C1308 H1293 0.960 . S
C1308 H1294 0.960 . S
C1308 H1295 0.960 . S
C1308 C1307 1.524 . S
C1309 C1306 1.403 . S
C1309 C1310 1.392 . S
C1309 C1313 1.495 . S
C1310 C1309 1.392 . S
C1310 C1311 1.385 . S
C1310 C1312 1.478 . S
C1311 H1305 0.930 . S
C1311 C1307 1.400 . S
C1311 C1310 1.385 . S
C1312 C1310 1.478 . S
C1312 C1314 1.381 . S
C1312 C1318 1.383 . S
C1313 C1309 1.495 . S
C1313 H1319 0.959 . S
C1313 H1320 0.961 . S
C1313 H1321 0.960 . S
C1314 C1312 1.381 . S
C1314 C1315 1.394 . S
C1314 H1322 0.930 . S
C1315 C1314 1.394 . S
C1315 C1316 1.383 . S
C1315 H1323 0.929 . S
C1316 C1315 1.383 . S
C1316 C1317 1.377 . S
C1317 H1301 0.930 . S
C1317 C1316 1.377 . S
C1317 C1318 1.379 . S
C1318 H1302 0.931 . S
C1318 C1312 1.383 . S
C1318 C1317 1.379 . S
H1319 C1313 0.959 . S
H1320 C1313 0.961 . S
H1321 C1313 0.960 . S
H1322 C1314 0.930 . S
H1323 C1315 0.929 . S
H1324 C1332 0.929 . S
H1325 C1334 0.930 . S
H1326 C1336 0.930 . S
H1327 C1339 0.929 . S
H1328 C1342 0.930 . S
H1329 C1344 0.960 . S
H1330 C1344 0.960 . S
H1331 C1344 0.960 . S
C1332 H1324 0.929 . S
C1332 C1333 1.377 . S
C1332 C1334 1.384 . S
C1333 C1332 1.377 . S
C1333 C1339 1.390 . S
C1334 H1325 0.930 . S
C1334 C1332 1.384 . S
C1334 C1335 1.372 . S
C1335 C1334 1.372 . S
C1335 C1336 1.400 . S
C1335 C1340 1.490 . S
C1336 H1326 0.930 . S
C1336 C1335 1.400 . S
C1336 C1339 1.386 . S
H1337 C1353 0.930 . S
H1338 C1354 0.931 . S
C1339 H1327 0.929 . S
C1339 C1333 1.390 . S
C1339 C1336 1.386 . S
C1340 C1335 1.490 . S
C1340 C1342 1.395 . S
C1340 C1343 1.403 . S
H1341 C1347 0.930 . S
C1342 H1328 0.930 . S
C1342 C1340 1.395 . S
C1342 C1345 1.403 . S
C1343 C1340 1.403 . S
C1343 C1344 1.524 . S
C1343 C1347 1.400 . S
C1344 H1329 0.960 . S
C1344 H1330 0.960 . S
C1344 H1331 0.960 . S
C1344 C1343 1.524 . S
C1345 C1342 1.403 . S
C1345 C1346 1.392 . S
C1345 C1349 1.495 . S
C1346 C1345 1.392 . S
C1346 C1347 1.385 . S
C1346 C1348 1.478 . S
C1347 H1341 0.930 . S
C1347 C1343 1.400 . S
C1347 C1346 1.385 . S
C1348 C1346 1.478 . S
C1348 C1350 1.381 . S
C1348 C1354 1.383 . S
C1349 C1345 1.495 . S
C1349 H1355 0.959 . S
C1349 H1356 0.961 . S
C1349 H1357 0.960 . S
C1350 C1348 1.381 . S
C1350 C1351 1.394 . S
C1350 H1358 0.930 . S
C1351 C1350 1.394 . S
C1351 C1352 1.383 . S
C1351 H1359 0.929 . S
C1352 C1351 1.383 . S
C1352 C1353 1.377 . S
C1353 H1337 0.930 . S
C1353 C1352 1.377 . S
C1353 C1354 1.379 . S
C1354 H1338 0.931 . S
C1354 C1348 1.383 . S
C1354 C1353 1.379 . S
H1355 C1349 0.959 . S
H1356 C1349 0.961 . S
H1357 C1349 0.960 . S
H1358 C1350 0.930 . S
H1359 C1351 0.929 . S
H1360 C1368 0.929 . S
H1361 C1370 0.930 . S
H1362 C1372 0.930 . S
H1363 C1375 0.929 . S
H1364 C1378 0.930 . S
H1365 C1380 0.960 . S
H1366 C1380 0.960 . S
H1367 C1380 0.960 . S
C1368 H1360 0.929 . S
C1368 C1369 1.377 . S
C1368 C1370 1.384 . S
C1369 C1368 1.377 . S
C1369 C1375 1.390 . S
C1370 H1361 0.930 . S
C1370 C1368 1.384 . S
C1370 C1371 1.372 . S
C1371 C1370 1.372 . S
C1371 C1372 1.400 . S
C1371 C1376 1.490 . S
C1372 H1362 0.930 . S
C1372 C1371 1.400 . S
C1372 C1375 1.386 . S
H1373 C1389 0.930 . S
H1374 C1390 0.931 . S
C1375 H1363 0.929 . S
C1375 C1369 1.390 . S
C1375 C1372 1.386 . S
C1376 C1371 1.490 . S
C1376 C1378 1.395 . S
C1376 C1379 1.403 . S
H1377 C1383 0.930 . S
C1378 H1364 0.930 . S
C1378 C1376 1.395 . S
C1378 C1381 1.403 1_554 S
C1379 C1376 1.403 . S
C1379 C1380 1.524 . S
C1379 C1383 1.400 1_554 S
C1380 H1365 0.960 . S
C1380 H1366 0.960 . S
C1380 H1367 0.960 . S
C1380 C1379 1.524 . S
C1381 C1378 1.403 1_556 S
C1381 C1382 1.392 . S
C1381 C1385 1.495 . S
C1382 C1381 1.392 . S
C1382 C1383 1.385 . S
C1382 C1384 1.478 . S
C1383 H1377 0.930 . S
C1383 C1379 1.400 1_556 S
C1383 C1382 1.385 . S
C1384 C1382 1.478 . S
C1384 C1386 1.381 . S
C1384 C1390 1.383 . S
C1385 C1381 1.495 . S
C1385 H1391 0.959 . S
C1385 H1392 0.961 . S
C1385 H1393 0.960 . S
C1386 C1384 1.381 . S
C1386 C1387 1.394 . S
C1386 H1394 0.930 . S
C1387 C1386 1.394 . S
C1387 C1388 1.383 . S
C1387 H1395 0.929 . S
C1388 C1387 1.383 . S
C1388 C1389 1.377 . S
C1389 H1373 0.930 . S
C1389 C1388 1.377 . S
C1389 C1390 1.379 . S
C1390 H1374 0.931 . S
C1390 C1384 1.383 . S
C1390 C1389 1.379 . S
H1391 C1385 0.959 . S
H1392 C1385 0.961 . S
H1393 C1385 0.960 . S
H1394 C1386 0.930 . S
H1395 C1387 0.929 . S
H1396 C1404 0.929 . S
H1397 C1406 0.930 . S
H1398 C1408 0.930 . S
H1399 C1411 0.929 . S
H1400 C1414 0.930 . S
H1401 C1416 0.960 . S
H1402 C1416 0.960 . S
H1403 C1416 0.960 . S
C1404 H1396 0.929 . S
C1404 C1405 1.377 . S
C1404 C1406 1.384 . S
C1405 C1404 1.377 . S
C1405 C1411 1.390 . S
C1406 H1397 0.930 . S
C1406 C1404 1.384 . S
C1406 C1407 1.372 . S
C1407 C1406 1.372 . S
C1407 C1408 1.400 . S
C1407 C1412 1.490 . S
C1408 H1398 0.930 . S
C1408 C1407 1.400 . S
C1408 C1411 1.386 . S
H1409 C1425 0.930 . S
H1410 C1426 0.931 . S
C1411 H1399 0.929 . S
C1411 C1405 1.390 . S
C1411 C1408 1.386 . S
C1412 C1407 1.490 . S
C1412 C1414 1.395 . S
C1412 C1415 1.403 . S
H1413 C1419 0.930 . S
C1414 H1400 0.930 . S
C1414 C1412 1.395 . S
C1414 C1417 1.403 1_556 S
C1415 C1412 1.403 . S
C1415 C1416 1.524 . S
C1415 C1419 1.400 1_556 S
C1416 H1401 0.960 . S
C1416 H1402 0.960 . S
C1416 H1403 0.960 . S
C1416 C1415 1.524 . S
C1417 C1414 1.403 1_554 S
C1417 C1418 1.392 . S
C1417 C1421 1.495 . S
C1418 C1417 1.392 . S
C1418 C1419 1.385 . S
C1418 C1420 1.478 . S
C1419 H1413 0.930 . S
C1419 C1415 1.400 1_554 S
C1419 C1418 1.385 . S
C1420 C1418 1.478 . S
C1420 C1422 1.381 . S
C1420 C1426 1.383 . S
C1421 C1417 1.495 . S
C1421 H1427 0.959 . S
C1421 H1428 0.961 . S
C1421 H1429 0.960 . S
C1422 C1420 1.381 . S
C1422 C1423 1.394 . S
C1422 H1430 0.930 . S
C1423 C1422 1.394 . S
C1423 C1424 1.383 . S
C1423 H1431 0.929 . S
C1424 C1423 1.383 . S
C1424 C1425 1.377 . S
C1425 H1409 0.930 . S
C1425 C1424 1.377 . S
C1425 C1426 1.379 . S
C1426 H1410 0.931 . S
C1426 C1420 1.383 . S
C1426 C1425 1.379 . S
H1427 C1421 0.959 . S
H1428 C1421 0.961 . S
H1429 C1421 0.960 . S
H1430 C1422 0.930 . S
H1431 C1423 0.929 . S
H1432 C1440 0.929 . S
H1433 C1442 0.930 . S
H1434 C1444 0.930 . S
H1435 C1447 0.929 . S
H1436 C1450 0.930 . S
H1437 C1452 0.960 . S
H1438 C1452 0.960 . S
H1439 C1452 0.960 . S
C1440 H1432 0.929 . S
C1440 C1441 1.377 . S
C1440 C1442 1.384 . S
C1441 C1440 1.377 . S
C1441 C1447 1.390 . S
C1442 H1433 0.930 . S
C1442 C1440 1.384 . S
C1442 C1443 1.372 . S
C1443 C1442 1.372 . S
C1443 C1444 1.400 . S
C1443 C1448 1.490 . S
C1444 H1434 0.930 . S
C1444 C1443 1.400 . S
C1444 C1447 1.386 . S
H1445 C1461 0.930 . S
H1446 C1462 0.931 . S
C1447 H1435 0.929 . S
C1447 C1441 1.390 . S
C1447 C1444 1.386 . S
C1448 C1443 1.490 . S
C1448 C1450 1.395 . S
C1448 C1451 1.403 . S
H1449 C1455 0.930 . S
C1450 H1436 0.930 . S
C1450 C1448 1.395 . S
C1450 C1453 1.403 . S
C1451 C1448 1.403 . S
C1451 C1452 1.524 . S
C1451 C1455 1.400 . S
C1452 H1437 0.960 . S
C1452 H1438 0.960 . S
C1452 H1439 0.960 . S
C1452 C1451 1.524 . S
C1453 C1450 1.403 . S
C1453 C1454 1.392 . S
C1453 C1457 1.495 . S
C1454 C1453 1.392 . S
C1454 C1455 1.385 . S
C1454 C1456 1.478 . S
C1455 H1449 0.930 . S
C1455 C1451 1.400 . S
C1455 C1454 1.385 . S
C1456 C1454 1.478 . S
C1456 C1458 1.381 . S
C1456 C1462 1.383 . S
C1457 C1453 1.495 . S
C1457 H1463 0.959 . S
C1457 H1464 0.961 . S
C1457 H1465 0.960 . S
C1458 C1456 1.381 . S
C1458 C1459 1.394 . S
C1458 H1466 0.930 . S
C1459 C1458 1.394 . S
C1459 C1460 1.383 . S
C1459 H1467 0.929 . S
C1460 C1459 1.383 . S
C1460 C1461 1.377 . S
C1461 H1445 0.930 . S
C1461 C1460 1.377 . S
C1461 C1462 1.379 . S
C1462 H1446 0.931 . S
C1462 C1456 1.383 . S
C1462 C1461 1.379 . S
H1463 C1457 0.959 . S
H1464 C1457 0.961 . S
H1465 C1457 0.960 . S
H1466 C1458 0.930 . S
H1467 C1459 0.929 . S
H1468 C1476 0.929 . S
H1469 C1478 0.930 . S
H1470 C1480 0.930 . S
H1471 C1483 0.929 . S
H1472 C1486 0.930 . S
H1473 C1488 0.960 . S
H1474 C1488 0.960 . S
H1475 C1488 0.960 . S
C1476 H1468 0.929 . S
C1476 C1477 1.377 . S
C1476 C1478 1.384 . S
C1477 C1476 1.377 . S
C1477 C1483 1.390 . S
C1478 H1469 0.930 . S
C1478 C1476 1.384 . S
C1478 C1479 1.372 . S
C1479 C1478 1.372 . S
C1479 C1480 1.400 . S
C1479 C1484 1.490 . S
C1480 H1470 0.930 . S
C1480 C1479 1.400 . S
C1480 C1483 1.386 . S
H1481 C1497 0.930 . S
H1482 C1498 0.931 . S
C1483 H1471 0.929 . S
C1483 C1477 1.390 . S
C1483 C1480 1.386 . S
C1484 C1479 1.490 . S
C1484 C1486 1.395 . S
C1484 C1487 1.403 . S
H1485 C1491 0.930 . S
C1486 H1472 0.930 . S
C1486 C1484 1.395 . S
C1486 C1489 1.403 . S
C1487 C1484 1.403 . S
C1487 C1488 1.524 . S
C1487 C1491 1.400 . S
C1488 H1473 0.960 . S
C1488 H1474 0.960 . S
C1488 H1475 0.960 . S
C1488 C1487 1.524 . S
C1489 C1486 1.403 . S
C1489 C1490 1.392 . S
C1489 C1493 1.495 . S
C1490 C1489 1.392 . S
C1490 C1491 1.385 . S
C1490 C1492 1.478 . S
C1491 H1485 0.930 . S
C1491 C1487 1.400 . S
C1491 C1490 1.385 . S
C1492 C1490 1.478 . S
C1492 C1494 1.381 . S
C1492 C1498 1.383 . S
C1493 C1489 1.495 . S
C1493 H1499 0.959 . S
C1493 H1500 0.961 . S
C1493 H1501 0.960 . S
C1494 C1492 1.381 . S
C1494 C1495 1.394 . S
C1494 H1502 0.930 . S
C1495 C1494 1.394 . S
C1495 C1496 1.383 . S
C1495 H1503 0.929 . S
C1496 C1495 1.383 . S
C1496 C1497 1.377 . S
C1497 H1481 0.930 . S
C1497 C1496 1.377 . S
C1497 C1498 1.379 . S
C1498 H1482 0.931 . S
C1498 C1492 1.383 . S
C1498 C1497 1.379 . S
H1499 C1493 0.959 . S
H1500 C1493 0.961 . S
H1501 C1493 0.960 . S
H1502 C1494 0.930 . S
H1503 C1495 0.929 . S
H1504 C1512 0.929 . S
H1505 C1514 0.930 . S
H1506 C1516 0.930 . S
H1507 C1519 0.929 . S
H1508 C1522 0.930 . S
H1509 C1524 0.960 . S
H1510 C1524 0.960 1_565 S
H1511 C1524 0.960 . S
C1512 H1504 0.929 . S
C1512 C1513 1.377 . S
C1512 C1514 1.384 . S
C1513 C1512 1.377 . S
C1513 C1519 1.390 1_565 S
C1514 H1505 0.930 . S
C1514 C1512 1.384 . S
C1514 C1515 1.372 . S
C1515 C1514 1.372 . S
C1515 C1516 1.400 1_565 S
C1515 C1520 1.490 . S
C1516 H1506 0.930 . S
C1516 C1515 1.400 1_545 S
C1516 C1519 1.386 . S
H1517 C1533 0.930 . S
H1518 C1534 0.931 . S
C1519 H1507 0.929 . S
C1519 C1513 1.390 1_545 S
C1519 C1516 1.386 . S
C1520 C1515 1.490 . S
C1520 C1522 1.395 . S
C1520 C1523 1.403 1_565 S
H1521 C1527 0.930 . S
C1522 H1508 0.930 . S
C1522 C1520 1.395 . S
C1522 C1525 1.403 1_655 S
C1523 C1520 1.403 1_545 S
C1523 C1524 1.524 . S
C1523 C1527 1.400 1_655 S
C1524 H1509 0.960 . S
C1524 H1510 0.960 1_545 S
C1524 H1511 0.960 . S
C1524 C1523 1.524 . S
C1525 C1522 1.403 1_455 S
C1525 C1526 1.392 1_565 S
C1525 C1529 1.495 . S
C1526 C1525 1.392 1_545 S
C1526 C1527 1.385 . S
C1526 C1528 1.478 . S
C1527 H1521 0.930 . S
C1527 C1523 1.400 1_455 S
C1527 C1526 1.385 . S
C1528 C1526 1.478 . S
C1528 C1530 1.381 1_545 S
C1528 C1534 1.383 . S
C1529 C1525 1.495 . S
C1529 H1535 0.959 . S
C1529 H1536 0.974 . S
C1529 H1537 0.960 . S
C1530 C1528 1.381 1_565 S
C1530 C1531 1.394 . S
C1530 H1538 0.930 . S
C1531 C1530 1.394 . S
C1531 C1532 1.383 1_565 S
C1531 H1539 0.929 . S
C1532 C1531 1.383 1_545 S
C1532 C1533 1.377 . S
C1533 H1517 0.930 . S
C1533 C1532 1.377 . S
C1533 C1534 1.379 . S
C1534 H1518 0.931 . S
C1534 C1528 1.383 . S
C1534 C1533 1.379 . S
H1535 C1529 0.959 . S
H1536 C1529 0.974 . S
H1537 C1529 0.960 . S
H1538 C1530 0.930 . S
H1539 C1531 0.929 . S
H1540 C1548 0.929 1_565 S
H1541 C1550 0.931 1_565 S
H1542 C1552 0.930 . S
H1543 C1555 0.929 . S
H1544 C1558 0.930 . S
H1545 C1560 0.960 . S
H1546 C1560 0.960 . S
H1547 C1560 0.960 . S
C1548 H1540 0.929 1_545 S
C1548 C1549 1.377 . S
C1548 C1550 1.383 . S
C1549 C1548 1.377 . S
C1549 C1555 1.390 . S
C1550 H1541 0.931 1_545 S
C1550 C1548 1.383 . S
C1550 C1551 1.371 . S
C1551 C1550 1.371 . S
C1551 C1552 1.400 . S
C1551 C1556 1.490 . S
C1552 H1542 0.930 . S
C1552 C1551 1.400 . S
C1552 C1555 1.386 . S
H1553 C1569 0.930 1_545 S
H1554 C1570 0.931 . S
C1555 H1543 0.929 . S
C1555 C1549 1.390 . S
C1555 C1552 1.386 . S
C1556 C1551 1.490 . S
C1556 C1558 1.395 . S
C1556 C1559 1.403 1_545 S
H1557 C1563 0.930 . S
C1558 H1544 0.930 . S
C1558 C1556 1.395 . S
C1558 C1561 1.403 1_655 S
C1559 C1556 1.403 1_565 S
C1559 C1560 1.524 . S
C1559 C1563 1.400 1_655 S
C1560 H1545 0.960 . S
C1560 H1546 0.960 . S
C1560 H1547 0.960 . S
C1560 C1559 1.524 . S
C1561 C1558 1.403 1_455 S
C1561 C1562 1.392 1_545 S
C1561 C1565 1.495 . S
C1562 C1561 1.392 1_565 S
C1562 C1563 1.385 . S
C1562 C1564 1.478 . S
C1563 H1557 0.930 . S
C1563 C1559 1.400 1_455 S
C1563 C1562 1.385 . S
C1564 C1562 1.478 . S
C1564 C1566 1.381 . S
C1564 C1570 1.383 1_565 S
C1565 C1561 1.495 . S
C1565 H1571 0.959 . S
C1565 H1572 0.961 . S
C1565 H1573 0.960 . S
C1566 C1564 1.381 . S
C1566 C1567 1.394 . S
C1566 H1574 0.930 . S
C1567 C1566 1.394 . S
C1567 C1568 1.383 . S
C1567 H1575 0.929 . S
C1568 C1567 1.383 . S
C1568 C1569 1.377 . S
C1569 H1553 0.930 1_565 S
C1569 C1568 1.377 . S
C1569 C1570 1.379 1_565 S
C1570 H1554 0.931 . S
C1570 C1564 1.383 1_545 S
C1570 C1569 1.379 1_545 S
H1571 C1565 0.959 . S
H1572 C1565 0.961 . S
H1573 C1565 0.960 . S
H1574 C1566 0.930 . S
H1575 C1567 0.929 . S
H1576 C1584 0.929 . S
H1577 C1586 0.930 1_565 S
H1578 C1588 0.930 . S
H1579 C1591 0.929 . S
H1580 C1594 0.930 . S
H1581 C1596 0.917 1_655 S
H1582 C1596 0.960 . S
H1583 C1596 0.960 . S
C1584 H1576 0.929 . S
C1584 C1585 1.377 . S
C1584 C1586 1.384 . S
C1585 C1584 1.377 . S
C1585 C1591 1.390 . S
C1586 H1577 0.930 1_545 S
C1586 C1584 1.384 . S
C1586 C1587 1.372 . S
C1587 C1586 1.372 . S
C1587 C1588 1.400 . S
C1587 C1592 1.490 . S
C1588 H1578 0.930 . S
C1588 C1587 1.400 . S
C1588 C1591 1.386 . S
H1589 C1605 0.930 . S
H1590 C1606 0.931 . S
C1591 H1579 0.929 . S
C1591 C1585 1.390 . S
C1591 C1588 1.386 . S
C1592 C1587 1.490 . S
C1592 C1594 1.395 1_545 S
C1592 C1595 1.403 . S
H1593 C1599 0.930 . S
C1594 H1580 0.930 . S
C1594 C1592 1.395 1_565 S
C1594 C1597 1.403 1_455 S
C1595 C1592 1.403 . S
C1595 C1596 1.524 . S
C1595 C1599 1.400 1_455 S
C1596 H1581 0.917 1_455 S
C1596 H1582 0.960 . S
C1596 H1583 0.960 . S
C1596 C1595 1.524 . S
C1597 C1594 1.403 1_655 S
C1597 C1598 1.392 . S
C1597 C1601 1.495 . S
C1598 C1597 1.392 . S
C1598 C1599 1.385 1_565 S
C1598 C1600 1.478 . S
C1599 H1593 0.930 . S
C1599 C1595 1.400 1_655 S
C1599 C1598 1.385 1_545 S
C1600 C1598 1.478 . S
C1600 C1602 1.381 . S
C1600 C1606 1.383 . S
C1601 C1597 1.495 . S
C1601 H1607 0.920 1_655 S
C1601 H1608 0.961 . S
C1601 H1609 0.960 . S
C1602 C1600 1.381 . S
C1602 C1603 1.394 . S
C1602 H1610 0.930 . S
C1603 C1602 1.394 . S
C1603 C1604 1.383 . S
C1603 H1611 0.929 . S
C1604 C1603 1.383 . S
C1604 C1605 1.377 . S
C1605 H1589 0.930 . S
C1605 C1604 1.377 . S
C1605 C1606 1.379 . S
C1606 H1590 0.931 . S
C1606 C1600 1.383 . S
C1606 C1605 1.379 . S
H1607 C1601 0.920 1_455 S
H1608 C1601 0.961 . S
H1609 C1601 0.960 . S
H1610 C1602 0.930 . S
H1611 C1603 0.929 . S
H1612 C1620 0.929 . S
H1613 C1622 0.930 . S
H1614 C1624 0.930 1_565 S
H1615 C1627 0.929 . S
H1616 C1630 0.930 . S
H1617 C1632 0.960 . S
H1618 C1632 0.960 . S
H1619 C1632 0.960 . S
C1620 H1612 0.929 . S
C1620 C1621 1.377 . S
C1620 C1622 1.384 . S
C1621 C1620 1.377 . S
C1621 C1627 1.390 . S
C1622 H1613 0.930 . S
C1622 C1620 1.384 . S
C1622 C1623 1.372 . S
C1623 C1622 1.372 . S
C1623 C1624 1.400 . S
C1623 C1628 1.490 . S
C1624 H1614 0.930 1_545 S
C1624 C1623 1.400 . S
C1624 C1627 1.386 . S
H1625 C1641 0.930 . S
H1626 C1642 0.931 . S
C1627 H1615 0.929 . S
C1627 C1621 1.390 . S
C1627 C1624 1.386 . S
C1628 C1623 1.490 . S
C1628 C1630 1.395 . S
C1628 C1631 1.403 1_545 S
H1629 C1635 0.930 . S
C1630 H1616 0.930 . S
C1630 C1628 1.395 . S
C1630 C1633 1.403 1_655 S
C1631 C1628 1.403 1_565 S
C1631 C1632 1.524 . S
C1631 C1635 1.400 1_655 S
C1632 H1617 0.960 . S
C1632 H1618 0.960 . S
C1632 H1619 0.960 . S
C1632 C1631 1.524 . S
C1633 C1630 1.403 1_455 S
C1633 C1634 1.392 . S
C1633 C1637 1.495 . S
C1634 C1633 1.392 . S
C1634 C1635 1.385 1_545 S
C1634 C1636 1.478 1_545 S
C1635 H1629 0.930 . S
C1635 C1631 1.400 1_455 S
C1635 C1634 1.385 1_565 S
C1636 C1634 1.478 1_565 S
C1636 C1638 1.381 . S
C1636 C1642 1.383 . S
C1637 C1633 1.495 . S
C1637 H1643 0.959 . S
C1637 H1644 0.961 . S
C1637 H1645 0.960 . S
C1638 C1636 1.381 . S
C1638 C1639 1.394 . S
C1638 H1646 0.930 1_565 S
C1639 C1638 1.394 . S
C1639 C1640 1.383 . S
C1639 H1647 0.929 . S
C1640 C1639 1.383 . S
C1640 C1641 1.377 . S
C1641 H1625 0.930 . S
C1641 C1640 1.377 . S
C1641 C1642 1.379 . S
C1642 H1626 0.931 . S
C1642 C1636 1.383 . S
C1642 C1641 1.379 . S
H1643 C1637 0.959 . S
H1644 C1637 0.961 . S
H1645 C1637 0.960 . S
H1646 C1638 0.930 1_545 S
H1647 C1639 0.929 . S
H1648 C1656 0.929 . S
H1649 C1658 0.930 . S
H1650 C1660 0.930 . S
H1651 C1663 0.929 . S
H1652 C1666 0.930 . S
H1653 C1668 0.960 . S
H1654 C1668 0.960 . S
H1655 C1668 0.960 . S
C1656 H1648 0.929 . S
C1656 C1657 1.377 . S
C1656 C1658 1.384 . S
C1657 C1656 1.377 . S
C1657 C1663 1.390 . S
C1658 H1649 0.930 . S
C1658 C1656 1.384 . S
C1658 C1659 1.372 . S
C1659 C1658 1.372 . S
C1659 C1660 1.400 . S
C1659 C1664 1.490 . S
C1660 H1650 0.930 . S
C1660 C1659 1.400 . S
C1660 C1663 1.386 . S
H1661 C1677 0.930 . S
H1662 C1678 0.931 . S
C1663 H1651 0.929 . S
C1663 C1657 1.390 . S
C1663 C1660 1.386 . S
C1664 C1659 1.490 . S
C1664 C1666 1.395 . S
C1664 C1667 1.403 . S
H1665 C1671 0.930 . S
C1666 H1652 0.930 . S
C1666 C1664 1.395 . S
C1666 C1669 1.403 . S
C1667 C1664 1.403 . S
C1667 C1668 1.524 . S
C1667 C1671 1.400 . S
C1668 H1653 0.960 . S
C1668 H1654 0.960 . S
C1668 H1655 0.960 . S
C1668 C1667 1.524 . S
C1669 C1666 1.403 . S
C1669 C1670 1.392 . S
C1669 C1673 1.495 . S
C1670 C1669 1.392 . S
C1670 C1671 1.385 . S
C1670 C1672 1.478 . S
C1671 H1665 0.930 . S
C1671 C1667 1.400 . S
C1671 C1670 1.385 . S
C1672 C1670 1.478 . S
C1672 C1674 1.381 . S
C1672 C1678 1.383 . S
C1673 C1669 1.495 . S
C1673 H1679 0.959 . S
C1673 H1680 0.961 . S
C1673 H1681 0.960 . S
C1674 C1672 1.381 . S
C1674 C1675 1.394 . S
C1674 H1682 0.930 . S
C1675 C1674 1.394 . S
C1675 C1676 1.383 . S
C1675 H1683 0.929 . S
C1676 C1675 1.383 . S
C1676 C1677 1.377 . S
C1677 H1661 0.930 . S
C1677 C1676 1.377 . S
C1677 C1678 1.379 . S
C1678 H1662 0.931 . S
C1678 C1672 1.383 . S
C1678 C1677 1.379 . S
H1679 C1673 0.959 . S
H1680 C1673 0.961 . S
H1681 C1673 0.960 . S
H1682 C1674 0.930 . S
H1683 C1675 0.929 . S
H1684 C1692 0.929 . S
H1685 C1694 0.930 . S
H1686 C1696 0.930 . S
H1687 C1699 0.929 . S
H1688 C1702 0.930 . S
H1689 C1704 0.960 . S
H1690 C1704 0.960 . S
H1691 C1704 0.960 . S
C1692 H1684 0.929 . S
C1692 C1693 1.377 . S
C1692 C1694 1.384 . S
C1693 C1692 1.377 . S
C1693 C1699 1.390 . S
C1694 H1685 0.930 . S
C1694 C1692 1.384 . S
C1694 C1695 1.372 . S
C1695 C1694 1.372 . S
C1695 C1696 1.400 . S
C1695 C1700 1.490 . S
C1696 H1686 0.930 . S
C1696 C1695 1.400 . S
C1696 C1699 1.386 . S
H1697 C1713 0.930 . S
H1698 C1714 0.931 . S
C1699 H1687 0.929 . S
C1699 C1693 1.390 . S
C1699 C1696 1.386 . S
C1700 C1695 1.490 . S
C1700 C1702 1.395 . S
C1700 C1703 1.403 . S
H1701 C1707 0.930 . S
C1702 H1688 0.930 . S
C1702 C1700 1.395 . S
C1702 C1705 1.403 . S
C1703 C1700 1.403 . S
C1703 C1704 1.524 . S
C1703 C1707 1.400 . S
C1704 H1689 0.960 . S
C1704 H1690 0.960 . S
C1704 H1691 0.960 . S
C1704 C1703 1.524 . S
C1705 C1702 1.403 . S
C1705 C1706 1.392 . S
C1705 C1709 1.495 . S
C1706 C1705 1.392 . S
C1706 C1707 1.385 . S
C1706 C1708 1.478 . S
C1707 H1701 0.930 . S
C1707 C1703 1.400 . S
C1707 C1706 1.385 . S
C1708 C1706 1.478 . S
C1708 C1710 1.381 . S
C1708 C1714 1.383 . S
C1709 C1705 1.495 . S
C1709 H1715 0.959 . S
C1709 H1716 0.961 . S
C1709 H1717 0.960 . S
C1710 C1708 1.381 . S
C1710 C1711 1.394 . S
C1710 H1718 0.930 . S
C1711 C1710 1.394 . S
C1711 C1712 1.383 . S
C1711 H1719 0.929 . S
C1712 C1711 1.383 . S
C1712 C1713 1.377 . S
C1713 H1697 0.930 . S
C1713 C1712 1.377 . S
C1713 C1714 1.379 . S
C1714 H1698 0.931 . S
C1714 C1708 1.383 . S
C1714 C1713 1.379 . S
H1715 C1709 0.959 . S
H1716 C1709 0.961 . S
H1717 C1709 0.960 . S
H1718 C1710 0.930 . S
H1719 C1711 0.929 . S
H1720 C1728 0.929 . S
H1721 C1730 0.930 . S
H1722 C1732 0.930 . S
H1723 C1735 0.929 . S
H1724 C1738 0.930 . S
H1725 C1740 0.960 . S
H1726 C1740 0.960 . S
H1727 C1740 0.960 . S
C1728 H1720 0.929 . S
C1728 C1729 1.377 . S
C1728 C1730 1.384 . S
C1729 C1728 1.377 . S
C1729 C1735 1.390 . S
C1730 H1721 0.930 . S
C1730 C1728 1.384 . S
C1730 C1731 1.372 . S
C1731 C1730 1.372 . S
C1731 C1732 1.400 . S
C1731 C1736 1.490 . S
C1732 H1722 0.930 . S
C1732 C1731 1.400 . S
C1732 C1735 1.386 . S
H1733 C1749 0.930 . S
H1734 C1750 0.931 . S
C1735 H1723 0.929 . S
C1735 C1729 1.390 . S
C1735 C1732 1.386 . S
C1736 C1731 1.490 . S
C1736 C1738 1.395 . S
C1736 C1739 1.403 . S
H1737 C1743 0.930 . S
C1738 H1724 0.930 . S
C1738 C1736 1.395 . S
C1738 C1741 1.403 . S
C1739 C1736 1.403 . S
C1739 C1740 1.524 . S
C1739 C1743 1.400 . S
C1740 H1725 0.960 . S
C1740 H1726 0.960 . S
C1740 H1727 0.960 . S
C1740 C1739 1.524 . S
C1741 C1738 1.403 . S
C1741 C1742 1.392 . S
C1741 C1745 1.495 . S
C1742 C1741 1.392 . S
C1742 C1743 1.385 . S
C1742 C1744 1.478 . S
C1743 H1737 0.930 . S
C1743 C1739 1.400 . S
C1743 C1742 1.385 . S
C1744 C1742 1.478 . S
C1744 C1746 1.381 . S
C1744 C1750 1.383 . S
C1745 C1741 1.495 . S
C1745 H1751 0.959 . S
C1745 H1752 0.961 . S
C1745 H1753 0.960 . S
C1746 C1744 1.381 . S
C1746 C1747 1.394 . S
C1746 H1754 0.930 . S
C1747 C1746 1.394 . S
C1747 C1748 1.383 . S
C1747 H1755 0.929 . S
C1748 C1747 1.383 . S
C1748 C1749 1.377 . S
C1749 H1733 0.930 . S
C1749 C1748 1.377 . S
C1749 C1750 1.379 . S
C1750 H1734 0.931 . S
C1750 C1744 1.383 . S
C1750 C1749 1.379 . S
H1751 C1745 0.959 . S
H1752 C1745 0.961 . S
H1753 C1745 0.960 . S
H1754 C1746 0.930 . S
H1755 C1747 0.929 . S
H1756 C1764 0.929 . S
H1757 C1766 0.930 . S
H1758 C1768 0.930 . S
H1759 C1771 0.929 . S
H1760 C1774 0.930 . S
H1761 C1776 0.960 . S
H1762 C1776 0.960 . S
H1763 C1776 0.960 . S
C1764 H1756 0.929 . S
C1764 C1765 1.377 . S
C1764 C1766 1.384 . S
C1765 C1764 1.377 . S
C1765 C1771 1.390 . S
C1766 H1757 0.930 . S
C1766 C1764 1.384 . S
C1766 C1767 1.372 . S
C1767 C1766 1.372 . S
C1767 C1768 1.400 . S
C1767 C1772 1.490 . S
C1768 H1758 0.930 . S
C1768 C1767 1.400 . S
C1768 C1771 1.386 . S
H1769 C1785 0.930 . S
H1770 C1786 0.931 . S
C1771 H1759 0.929 . S
C1771 C1765 1.390 . S
C1771 C1768 1.386 . S
C1772 C1767 1.490 . S
C1772 C1774 1.395 . S
C1772 C1775 1.403 . S
H1773 C1779 0.930 . S
C1774 H1760 0.930 . S
C1774 C1772 1.395 . S
C1774 C1777 1.403 . S
C1775 C1772 1.403 . S
C1775 C1776 1.524 . S
C1775 C1779 1.400 . S
C1776 H1761 0.960 . S
C1776 H1762 0.960 . S
C1776 H1763 0.960 . S
C1776 C1775 1.524 . S
C1777 C1774 1.403 . S
C1777 C1778 1.392 . S
C1777 C1781 1.495 . S
C1778 C1777 1.392 . S
C1778 C1779 1.385 . S
C1778 C1780 1.478 . S
C1779 H1773 0.930 . S
C1779 C1775 1.400 . S
C1779 C1778 1.385 . S
C1780 C1778 1.478 . S
C1780 C1782 1.381 . S
C1780 C1786 1.383 . S
C1781 C1777 1.495 . S
C1781 H1787 0.959 . S
C1781 H1788 0.961 . S
C1781 H1789 0.960 . S
C1782 C1780 1.381 . S
C1782 C1783 1.394 . S
C1782 H1790 0.930 . S
C1783 C1782 1.394 . S
C1783 C1784 1.383 . S
C1783 H1791 0.929 . S
C1784 C1783 1.383 . S
C1784 C1785 1.377 . S
C1785 H1769 0.930 . S
C1785 C1784 1.377 . S
C1785 C1786 1.379 . S
C1786 H1770 0.931 . S
C1786 C1780 1.383 . S
C1786 C1785 1.379 . S
H1787 C1781 0.959 . S
H1788 C1781 0.961 . S
H1789 C1781 0.960 . S
H1790 C1782 0.930 . S
H1791 C1783 0.929 . S
H1792 C1800 0.929 . S
H1793 C1802 0.930 . S
H1794 C1804 0.930 . S
H1795 C1807 0.929 . S
H1796 C1810 0.930 . S
H1797 C1812 0.960 . S
H1798 C1812 0.960 . S
H1799 C1812 0.960 . S
C1800 H1792 0.929 . S
C1800 C1801 1.377 . S
C1800 C1802 1.384 . S
C1801 C1800 1.377 . S
C1801 C1807 1.390 . S
C1802 H1793 0.930 . S
C1802 C1800 1.384 . S
C1802 C1803 1.372 . S
C1803 C1802 1.372 . S
C1803 C1804 1.400 . S
C1803 C1808 1.490 . S
C1804 H1794 0.930 . S
C1804 C1803 1.400 . S
C1804 C1807 1.386 . S
H1805 C1821 0.930 . S
H1806 C1822 0.931 . S
C1807 H1795 0.929 . S
C1807 C1801 1.390 . S
C1807 C1804 1.386 . S
C1808 C1803 1.490 . S
C1808 C1810 1.395 . S
C1808 C1811 1.403 . S
H1809 C1815 0.930 . S
C1810 H1796 0.930 . S
C1810 C1808 1.395 . S
C1810 C1813 1.403 . S
C1811 C1808 1.403 . S
C1811 C1812 1.524 . S
C1811 C1815 1.400 . S
C1812 H1797 0.960 . S
C1812 H1798 0.960 . S
C1812 H1799 0.960 . S
C1812 C1811 1.524 . S
C1813 C1810 1.403 . S
C1813 C1814 1.392 . S
C1813 C1817 1.495 . S
C1814 C1813 1.392 . S
C1814 C1815 1.385 . S
C1814 C1816 1.478 . S
C1815 H1809 0.930 . S
C1815 C1811 1.400 . S
C1815 C1814 1.385 . S
C1816 C1814 1.478 . S
C1816 C1818 1.381 . S
C1816 C1822 1.383 . S
C1817 C1813 1.495 . S
C1817 H1823 0.959 . S
C1817 H1824 0.961 . S
C1817 H1825 0.960 . S
C1818 C1816 1.381 . S
C1818 C1819 1.394 . S
C1818 H1826 0.930 . S
C1819 C1818 1.394 . S
C1819 C1820 1.383 . S
C1819 H1827 0.929 . S
C1820 C1819 1.383 . S
C1820 C1821 1.377 . S
C1821 H1805 0.930 . S
C1821 C1820 1.377 . S
C1821 C1822 1.379 . S
C1822 H1806 0.931 . S
C1822 C1816 1.383 . S
C1822 C1821 1.379 . S
H1823 C1817 0.959 . S
H1824 C1817 0.961 . S
H1825 C1817 0.960 . S
H1826 C1818 0.930 . S
H1827 C1819 0.929 . S
H1828 C1836 0.929 . S
H1829 C1838 0.930 . S
H1830 C1840 0.930 . S
H1831 C1843 0.929 . S
H1832 C1846 0.930 . S
H1833 C1848 0.960 . S
H1834 C1848 0.960 . S
H1835 C1848 0.960 . S
C1836 H1828 0.929 . S
C1836 C1837 1.377 . S
C1836 C1838 1.384 . S
C1837 C1836 1.377 . S
C1837 C1843 1.390 . S
C1838 H1829 0.930 . S
C1838 C1836 1.384 . S
C1838 C1839 1.372 . S
C1839 C1838 1.372 . S
C1839 C1840 1.400 . S
C1839 C1844 1.490 . S
C1840 H1830 0.930 . S
C1840 C1839 1.400 . S
C1840 C1843 1.386 . S
H1841 C1857 0.930 . S
H1842 C1858 0.931 . S
C1843 H1831 0.929 . S
C1843 C1837 1.390 . S
C1843 C1840 1.386 . S
C1844 C1839 1.490 . S
C1844 C1846 1.395 . S
C1844 C1847 1.403 . S
H1845 C1851 0.930 . S
C1846 H1832 0.930 . S
C1846 C1844 1.395 . S
C1846 C1849 1.403 . S
C1847 C1844 1.403 . S
C1847 C1848 1.524 . S
C1847 C1851 1.400 . S
C1848 H1833 0.960 . S
C1848 H1834 0.960 . S
C1848 H1835 0.960 . S
C1848 C1847 1.524 . S
C1849 C1846 1.403 . S
C1849 C1850 1.392 . S
C1849 C1853 1.495 . S
C1850 C1849 1.392 . S
C1850 C1851 1.385 . S
C1850 C1852 1.478 . S
C1851 H1845 0.930 . S
C1851 C1847 1.400 . S
C1851 C1850 1.385 . S
C1852 C1850 1.478 . S
C1852 C1854 1.381 . S
C1852 C1858 1.383 . S
C1853 C1849 1.495 . S
C1853 H1859 0.959 . S
C1853 H1860 0.961 . S
C1853 H1861 0.960 . S
C1854 C1852 1.381 . S
C1854 C1855 1.394 . S
C1854 H1862 0.930 . S
C1855 C1854 1.394 . S
C1855 C1856 1.383 . S
C1855 H1863 0.929 . S
C1856 C1855 1.383 . S
C1856 C1857 1.377 . S
C1857 H1841 0.930 . S
C1857 C1856 1.377 . S
C1857 C1858 1.379 . S
C1858 H1842 0.931 . S
C1858 C1852 1.383 . S
C1858 C1857 1.379 . S
H1859 C1853 0.959 . S
H1860 C1853 0.961 . S
H1861 C1853 0.960 . S
H1862 C1854 0.930 . S
H1863 C1855 0.929 . S
H1864 C1872 0.929 . S
H1865 C1874 0.930 . S
H1866 C1876 0.930 . S
H1867 C1879 0.929 . S
H1868 C1882 0.930 . S
H1869 C1884 0.960 . S
H1870 C1884 0.960 . S
H1871 C1884 0.960 . S
C1872 H1864 0.929 . S
C1872 C1873 1.377 . S
C1872 C1874 1.384 . S
C1873 C1872 1.377 . S
C1873 C1879 1.390 . S
C1874 H1865 0.930 . S
C1874 C1872 1.384 . S
C1874 C1875 1.372 . S
C1875 C1874 1.372 . S
C1875 C1876 1.400 . S
C1875 C1880 1.490 . S
C1876 H1866 0.930 . S
C1876 C1875 1.400 . S
C1876 C1879 1.386 . S
H1877 C1893 0.930 . S
H1878 C1894 0.931 . S
C1879 H1867 0.929 . S
C1879 C1873 1.390 . S
C1879 C1876 1.386 . S
C1880 C1875 1.490 . S
C1880 C1882 1.395 . S
C1880 C1883 1.403 . S
H1881 C1887 0.930 . S
C1882 H1868 0.930 . S
C1882 C1880 1.395 . S
C1882 C1885 1.403 . S
C1883 C1880 1.403 . S
C1883 C1884 1.524 . S
C1883 C1887 1.400 . S
C1884 H1869 0.960 . S
C1884 H1870 0.960 . S
C1884 H1871 0.960 . S
C1884 C1883 1.524 . S
C1885 C1882 1.403 . S
C1885 C1886 1.392 . S
C1885 C1889 1.495 . S
C1886 C1885 1.392 . S
C1886 C1887 1.385 . S
C1886 C1888 1.478 . S
C1887 H1881 0.930 . S
C1887 C1883 1.400 . S
C1887 C1886 1.385 . S
C1888 C1886 1.478 . S
C1888 C1890 1.381 . S
C1888 C1894 1.383 . S
C1889 C1885 1.495 . S
C1889 H1895 0.959 . S
C1889 H1896 0.961 . S
C1889 H1897 0.960 . S
C1890 C1888 1.381 . S
C1890 C1891 1.394 . S
C1890 H1898 0.930 . S
C1891 C1890 1.394 . S
C1891 C1892 1.383 . S
C1891 H1899 0.929 . S
C1892 C1891 1.383 . S
C1892 C1893 1.377 . S
C1893 H1877 0.930 . S
C1893 C1892 1.377 . S
C1893 C1894 1.379 . S
C1894 H1878 0.931 . S
C1894 C1888 1.383 . S
C1894 C1893 1.379 . S
H1895 C1889 0.959 . S
H1896 C1889 0.961 . S
H1897 C1889 0.960 . S
H1898 C1890 0.930 . S
H1899 C1891 0.929 . S
H1900 C1908 0.929 . S
H1901 C1910 0.930 . S
H1902 C1912 0.930 . S
H1903 C1915 0.929 . S
H1904 C1918 0.930 . S
H1905 C1920 0.960 . S
H1906 C1920 0.960 . S
H1907 C1920 0.960 . S
C1908 H1900 0.929 . S
C1908 C1909 1.377 . S
C1908 C1910 1.384 . S
C1909 C1908 1.377 . S
C1909 C1915 1.390 . S
C1910 H1901 0.930 . S
C1910 C1908 1.384 . S
C1910 C1911 1.372 . S
C1911 C1910 1.372 . S
C1911 C1912 1.400 . S
C1911 C1916 1.490 . S
C1912 H1902 0.930 . S
C1912 C1911 1.400 . S
C1912 C1915 1.386 . S
H1913 C1929 0.930 . S
H1914 C1930 0.931 . S
C1915 H1903 0.929 . S
C1915 C1909 1.390 . S
C1915 C1912 1.386 . S
C1916 C1911 1.490 . S
C1916 C1918 1.395 . S
C1916 C1919 1.403 . S
H1917 C1923 0.930 . S
C1918 H1904 0.930 . S
C1918 C1916 1.395 . S
C1918 C1921 1.403 . S
C1919 C1916 1.403 . S
C1919 C1920 1.524 . S
C1919 C1923 1.400 . S
C1920 H1905 0.960 . S
C1920 H1906 0.960 . S
C1920 H1907 0.960 . S
C1920 C1919 1.524 . S
C1921 C1918 1.403 . S
C1921 C1922 1.392 . S
C1921 C1925 1.495 . S
C1922 C1921 1.392 . S
C1922 C1923 1.385 . S
C1922 C1924 1.478 . S
C1923 H1917 0.930 . S
C1923 C1919 1.400 . S
C1923 C1922 1.385 . S
C1924 C1922 1.478 . S
C1924 C1926 1.381 . S
C1924 C1930 1.383 . S
C1925 C1921 1.495 . S
C1925 H1931 0.959 . S
C1925 H1932 0.961 . S
C1925 H1933 0.960 . S
C1926 C1924 1.381 . S
C1926 C1927 1.394 . S
C1926 H1934 0.930 . S
C1927 C1926 1.394 . S
C1927 C1928 1.383 . S
C1927 H1935 0.929 . S
C1928 C1927 1.383 . S
C1928 C1929 1.377 . S
C1929 H1913 0.930 . S
C1929 C1928 1.377 . S
C1929 C1930 1.379 . S
C1930 H1914 0.931 . S
C1930 C1924 1.383 . S
C1930 C1929 1.379 . S
H1931 C1925 0.959 . S
H1932 C1925 0.961 . S
H1933 C1925 0.960 . S
H1934 C1926 0.930 . S
H1935 C1927 0.929 . S
H1936 C1944 0.929 . S
H1937 C1946 0.930 . S
H1938 C1948 0.930 . S
H1939 C1951 0.929 . S
H1940 C1954 0.930 . S
H1941 C1956 0.960 . S
H1942 C1956 0.960 . S
H1943 C1956 0.960 . S
C1944 H1936 0.929 . S
C1944 C1945 1.377 . S
C1944 C1946 1.384 . S
C1945 C1944 1.377 . S
C1945 C1951 1.390 . S
C1946 H1937 0.930 . S
C1946 C1944 1.384 . S
C1946 C1947 1.372 . S
C1947 C1946 1.372 . S
C1947 C1948 1.400 . S
C1947 C1952 1.490 . S
C1948 H1938 0.930 . S
C1948 C1947 1.400 . S
C1948 C1951 1.386 . S
H1949 C1965 0.930 . S
H1950 C1966 0.931 . S
C1951 H1939 0.929 . S
C1951 C1945 1.390 . S
C1951 C1948 1.386 . S
C1952 C1947 1.490 . S
C1952 C1954 1.395 . S
C1952 C1955 1.403 . S
H1953 C1959 0.930 . S
C1954 H1940 0.930 . S
C1954 C1952 1.395 . S
C1954 C1957 1.403 . S
C1955 C1952 1.403 . S
C1955 C1956 1.524 . S
C1955 C1959 1.400 . S
C1956 H1941 0.960 . S
C1956 H1942 0.960 . S
C1956 H1943 0.960 . S
C1956 C1955 1.524 . S
C1957 C1954 1.403 . S
C1957 C1958 1.392 . S
C1957 C1961 1.495 . S
C1958 C1957 1.392 . S
C1958 C1959 1.385 . S
C1958 C1960 1.478 . S
C1959 H1953 0.930 . S
C1959 C1955 1.400 . S
C1959 C1958 1.385 . S
C1960 C1958 1.478 . S
C1960 C1962 1.381 . S
C1960 C1966 1.383 . S
C1961 C1957 1.495 . S
C1961 H1967 0.959 . S
C1961 H1968 0.961 . S
C1961 H1969 0.960 . S
C1962 C1960 1.381 . S
C1962 C1963 1.394 . S
C1962 H1970 0.930 . S
C1963 C1962 1.394 . S
C1963 C1964 1.383 . S
C1963 H1971 0.929 . S
C1964 C1963 1.383 . S
C1964 C1965 1.377 . S
C1965 H1949 0.930 . S
C1965 C1964 1.377 . S
C1965 C1966 1.379 . S
C1966 H1950 0.931 . S
C1966 C1960 1.383 . S
C1966 C1965 1.379 . S
H1967 C1961 0.959 . S
H1968 C1961 0.961 . S
H1969 C1961 0.960 . S
H1970 C1962 0.930 . S
H1971 C1963 0.929 . S
H1972 C1980 0.929 . S
H1973 C1982 0.930 . S
H1974 C1984 0.930 . S
H1975 C1987 0.929 . S
H1976 C1990 0.930 . S
H1977 C1992 0.960 . S
H1978 C1992 0.960 . S
H1979 C1992 0.960 . S
C1980 H1972 0.929 . S
C1980 C1981 1.377 . S
C1980 C1982 1.384 . S
C1981 C1980 1.377 . S
C1981 C1987 1.390 . S
C1982 H1973 0.930 . S
C1982 C1980 1.384 . S
C1982 C1983 1.372 . S
C1983 C1982 1.372 . S
C1983 C1984 1.400 . S
C1983 C1988 1.490 . S
C1984 H1974 0.930 . S
C1984 C1983 1.400 . S
C1984 C1987 1.386 . S
H1985 C2001 0.930 . S
H1986 C2002 0.931 . S
C1987 H1975 0.929 . S
C1987 C1981 1.390 . S
C1987 C1984 1.386 . S
C1988 C1983 1.490 . S
C1988 C1990 1.395 . S
C1988 C1991 1.403 . S
H1989 C1995 0.930 . S
C1990 H1976 0.930 . S
C1990 C1988 1.395 . S
C1990 C1993 1.403 . S
C1991 C1988 1.403 . S
C1991 C1992 1.524 . S
C1991 C1995 1.400 . S
C1992 H1977 0.960 . S
C1992 H1978 0.960 . S
C1992 H1979 0.960 . S
C1992 C1991 1.524 . S
C1993 C1990 1.403 . S
C1993 C1994 1.392 . S
C1993 C1997 1.495 . S
C1994 C1993 1.392 . S
C1994 C1995 1.385 . S
C1994 C1996 1.478 . S
C1995 H1989 0.930 . S
C1995 C1991 1.400 . S
C1995 C1994 1.385 . S
C1996 C1994 1.478 . S
C1996 C1998 1.381 . S
C1996 C2002 1.383 . S
C1997 C1993 1.495 . S
C1997 H2003 0.959 . S
C1997 H2004 0.961 . S
C1997 H2005 0.960 . S
C1998 C1996 1.381 . S
C1998 C1999 1.394 . S
C1998 H2006 0.930 . S
C1999 C1998 1.394 . S
C1999 C2000 1.383 . S
C1999 H2007 0.929 . S
C2000 C1999 1.383 . S
C2000 C2001 1.377 . S
C2001 H1985 0.930 . S
C2001 C2000 1.377 . S
C2001 C2002 1.379 . S
C2002 H1986 0.931 . S
C2002 C1996 1.383 . S
C2002 C2001 1.379 . S
H2003 C1997 0.959 . S
H2004 C1997 0.961 . S
H2005 C1997 0.960 . S
H2006 C1998 0.930 . S
H2007 C1999 0.929 . S
H2008 C2016 0.929 . S
H2009 C2018 0.930 . S
H2010 C2020 0.930 . S
H2011 C2023 0.929 . S
H2012 C2026 0.930 . S
H2013 C2028 0.960 . S
H2014 C2028 0.960 . S
H2015 C2028 0.960 . S
C2016 H2008 0.929 . S
C2016 C2017 1.377 . S
C2016 C2018 1.384 . S
C2017 C2016 1.377 . S
C2017 C2023 1.390 . S
C2018 H2009 0.930 . S
C2018 C2016 1.384 . S
C2018 C2019 1.372 . S
C2019 C2018 1.372 . S
C2019 C2020 1.400 . S
C2019 C2024 1.490 . S
C2020 H2010 0.930 . S
C2020 C2019 1.400 . S
C2020 C2023 1.386 . S
H2021 C2037 0.930 . S
H2022 C2038 0.931 . S
C2023 H2011 0.929 . S
C2023 C2017 1.390 . S
C2023 C2020 1.386 . S
C2024 C2019 1.490 . S
C2024 C2026 1.395 . S
C2024 C2027 1.403 . S
H2025 C2031 0.930 . S
C2026 H2012 0.930 . S
C2026 C2024 1.395 . S
C2026 C2029 1.403 . S
C2027 C2024 1.403 . S
C2027 C2028 1.524 . S
C2027 C2031 1.400 . S
C2028 H2013 0.960 . S
C2028 H2014 0.960 . S
C2028 H2015 0.960 . S
C2028 C2027 1.524 . S
C2029 C2026 1.403 . S
C2029 C2030 1.392 . S
C2029 C2033 1.495 . S
C2030 C2029 1.392 . S
C2030 C2031 1.385 . S
C2030 C2032 1.478 . S
C2031 H2025 0.930 . S
C2031 C2027 1.400 . S
C2031 C2030 1.385 . S
C2032 C2030 1.478 . S
C2032 C2034 1.381 . S
C2032 C2038 1.383 . S
C2033 C2029 1.495 . S
C2033 H2039 0.959 . S
C2033 H2040 0.961 . S
C2033 H2041 0.960 . S
C2034 C2032 1.381 . S
C2034 C2035 1.394 . S
C2034 H2042 0.930 . S
C2035 C2034 1.394 . S
C2035 C2036 1.383 . S
C2035 H2043 0.929 . S
C2036 C2035 1.383 . S
C2036 C2037 1.377 . S
C2037 H2021 0.930 . S
C2037 C2036 1.377 . S
C2037 C2038 1.379 . S
C2038 H2022 0.931 . S
C2038 C2032 1.383 . S
C2038 C2037 1.379 . S
H2039 C2033 0.959 . S
H2040 C2033 0.961 . S
H2041 C2033 0.960 . S
H2042 C2034 0.930 . S
H2043 C2035 0.929 . S
H2044 C2052 0.929 . S
H2045 C2054 0.930 . S
H2046 C2056 0.930 . S
H2047 C2059 0.929 . S
H2048 C2062 0.930 . S
H2049 C2064 0.960 . S
H2050 C2064 0.960 . S
H2051 C2064 0.960 . S
C2052 H2044 0.929 . S
C2052 C2053 1.377 . S
C2052 C2054 1.384 . S
C2053 C2052 1.377 . S
C2053 C2059 1.390 . S
C2054 H2045 0.930 . S
C2054 C2052 1.384 . S
C2054 C2055 1.372 . S
C2055 C2054 1.372 . S
C2055 C2056 1.400 . S
C2055 C2060 1.490 . S
C2056 H2046 0.930 . S
C2056 C2055 1.400 . S
C2056 C2059 1.386 . S
H2057 C2073 0.930 . S
H2058 C2074 0.931 . S
C2059 H2047 0.929 . S
C2059 C2053 1.390 . S
C2059 C2056 1.386 . S
C2060 C2055 1.490 . S
C2060 C2062 1.395 . S
C2060 C2063 1.403 . S
H2061 C2067 0.930 . S
C2062 H2048 0.930 . S
C2062 C2060 1.395 . S
C2062 C2065 1.403 . S
C2063 C2060 1.403 . S
C2063 C2064 1.524 . S
C2063 C2067 1.400 . S
C2064 H2049 0.960 . S
C2064 H2050 0.960 . S
C2064 H2051 0.960 . S
C2064 C2063 1.524 . S
C2065 C2062 1.403 . S
C2065 C2066 1.392 . S
C2065 C2069 1.495 . S
C2066 C2065 1.392 . S
C2066 C2067 1.385 . S
C2066 C2068 1.478 . S
C2067 H2061 0.930 . S
C2067 C2063 1.400 . S
C2067 C2066 1.385 . S
C2068 C2066 1.478 . S
C2068 C2070 1.381 . S
C2068 C2074 1.383 . S
C2069 C2065 1.495 . S
C2069 H2075 0.959 . S
C2069 H2076 0.961 . S
C2069 H2077 0.960 . S
C2070 C2068 1.381 . S
C2070 C2071 1.394 . S
C2070 H2078 0.930 . S
C2071 C2070 1.394 . S
C2071 C2072 1.383 . S
C2071 H2079 0.929 . S
C2072 C2071 1.383 . S
C2072 C2073 1.377 . S
C2073 H2057 0.930 . S
C2073 C2072 1.377 . S
C2073 C2074 1.379 . S
C2074 H2058 0.931 . S
C2074 C2068 1.383 . S
C2074 C2073 1.379 . S
H2075 C2069 0.959 . S
H2076 C2069 0.961 . S
H2077 C2069 0.960 . S
H2078 C2070 0.930 . S
H2079 C2071 0.929 . S
H2080 C2088 0.929 . S
H2081 C2090 0.930 . S
H2082 C2092 0.930 1_545 S
H2083 C2095 0.929 . S
H2084 C2098 0.930 . S
H2085 C2100 0.960 . S
H2086 C2100 0.960 . S
H2087 C2100 0.960 . S
C2088 H2080 0.929 . S
C2088 C2089 1.377 . S
C2088 C2090 1.384 . S
C2089 C2088 1.377 . S
C2089 C2095 1.390 . S
C2090 H2081 0.930 . S
C2090 C2088 1.384 . S
C2090 C2091 1.372 1_565 S
C2091 C2090 1.372 1_545 S
C2091 C2092 1.400 1_545 S
C2091 C2096 1.490 . S
C2092 H2082 0.930 1_565 S
C2092 C2091 1.400 1_565 S
C2092 C2095 1.386 . S
H2093 C2109 0.930 . S
H2094 C2110 0.931 . S
C2095 H2083 0.929 . S
C2095 C2089 1.390 . S
C2095 C2092 1.386 . S
C2096 C2091 1.490 . S
C2096 C2098 1.395 . S
C2096 C2099 1.403 . S
H2097 C2103 0.930 . S
C2098 H2084 0.930 . S
C2098 C2096 1.395 . S
C2098 C2101 1.403 . S
C2099 C2096 1.403 . S
C2099 C2100 1.524 . S
C2099 C2103 1.400 . S
C2100 H2085 0.960 . S
C2100 H2086 0.960 . S
C2100 H2087 0.960 . S
C2100 C2099 1.524 . S
C2101 C2098 1.403 . S
C2101 C2102 1.392 . S
C2101 C2105 1.495 . S
C2102 C2101 1.392 . S
C2102 C2103 1.385 . S
C2102 C2104 1.478 . S
C2103 H2097 0.930 . S
C2103 C2099 1.400 . S
C2103 C2102 1.385 . S
C2104 C2102 1.478 . S
C2104 C2106 1.381 . S
C2104 C2110 1.383 . S
C2105 C2101 1.495 . S
C2105 H2111 0.959 . S
C2105 H2112 0.961 . S
C2105 H2113 0.960 . S
C2106 C2104 1.381 . S
C2106 C2107 1.394 . S
C2106 H2114 0.930 . S
C2107 C2106 1.394 . S
C2107 C2108 1.383 . S
C2107 H2115 0.929 . S
C2108 C2107 1.383 . S
C2108 C2109 1.377 . S
C2109 H2093 0.930 . S
C2109 C2108 1.377 . S
C2109 C2110 1.379 . S
C2110 H2094 0.931 . S
C2110 C2104 1.383 . S
C2110 C2109 1.379 . S
H2111 C2105 0.959 . S
H2112 C2105 0.961 . S
H2113 C2105 0.960 . S
H2114 C2106 0.930 . S
H2115 C2107 0.929 . S
H2116 C2124 0.929 . S
H2117 C2126 0.930 . S
H2118 C2128 0.930 . S
H2119 C2131 0.929 . S
H2120 C2134 0.930 . S
H2121 C2136 0.960 . S
H2122 C2136 0.960 . S
H2123 C2136 0.960 . S
C2124 H2116 0.929 . S
C2124 C2125 1.377 . S
C2124 C2126 1.384 . S
C2125 C2124 1.377 . S
C2125 C2131 1.390 . S
C2126 H2117 0.930 . S
C2126 C2124 1.384 . S
C2126 C2127 1.372 . S
C2127 C2126 1.372 . S
C2127 C2128 1.400 . S
C2127 C2132 1.490 . S
C2128 H2118 0.930 . S
C2128 C2127 1.400 . S
C2128 C2131 1.386 . S
H2129 C2145 0.930 . S
H2130 C2146 0.931 . S
C2131 H2119 0.929 . S
C2131 C2125 1.390 . S
C2131 C2128 1.386 . S
C2132 C2127 1.490 . S
C2132 C2134 1.395 . S
C2132 C2135 1.403 . S
H2133 C2139 0.930 . S
C2134 H2120 0.930 . S
C2134 C2132 1.395 . S
C2134 C2137 1.403 . S
C2135 C2132 1.403 . S
C2135 C2136 1.524 . S
C2135 C2139 1.400 . S
C2136 H2121 0.960 . S
C2136 H2122 0.960 . S
C2136 H2123 0.960 . S
C2136 C2135 1.524 . S
C2137 C2134 1.403 . S
C2137 C2138 1.392 . S
C2137 C2141 1.495 . S
C2138 C2137 1.392 . S
C2138 C2139 1.385 . S
C2138 C2140 1.478 . S
C2139 H2133 0.930 . S
C2139 C2135 1.400 . S
C2139 C2138 1.385 . S
C2140 C2138 1.478 . S
C2140 C2142 1.381 1_565 S
C2140 C2146 1.383 1_565 S
C2141 C2137 1.495 . S
C2141 H2147 0.959 . S
C2141 H2148 0.961 . S
C2141 H2149 0.960 . S
C2142 C2140 1.381 1_545 S
C2142 C2143 1.394 . S
C2142 H2150 0.930 . S
C2143 C2142 1.394 . S
C2143 C2144 1.383 . S
C2143 H2151 0.929 . S
C2144 C2143 1.383 . S
C2144 C2145 1.377 . S
C2145 H2129 0.930 . S
C2145 C2144 1.377 . S
C2145 C2146 1.379 . S
C2146 H2130 0.931 . S
C2146 C2140 1.383 1_545 S
C2146 C2145 1.379 . S
H2147 C2141 0.959 . S
H2148 C2141 0.961 . S
H2149 C2141 0.960 . S
H2150 C2142 0.930 . S
H2151 C2143 0.929 . S
H2152 C2160 0.929 . S
H2153 C2162 0.930 . S
H2154 C2164 0.930 1_565 S
H2155 C2167 0.929 . S
H2156 C2170 0.930 . S
H2157 C2172 0.960 . S
H2158 C2172 0.960 . S
H2159 C2172 0.960 . S
C2160 H2152 0.929 . S
C2160 C2161 1.377 . S
C2160 C2162 1.384 . S
C2161 C2160 1.377 . S
C2161 C2167 1.390 . S
C2162 H2153 0.930 . S
C2162 C2160 1.384 . S
C2162 C2163 1.372 1_545 S
C2163 C2162 1.372 1_565 S
C2163 C2164 1.400 1_565 S
C2163 C2168 1.490 . S
C2164 H2154 0.930 1_545 S
C2164 C2163 1.400 1_545 S
C2164 C2167 1.386 . S
H2165 C2181 0.930 . S
H2166 C2182 0.931 . S
C2167 H2155 0.929 . S
C2167 C2161 1.390 . S
C2167 C2164 1.386 . S
C2168 C2163 1.490 . S
C2168 C2170 1.395 . S
C2168 C2171 1.403 . S
H2169 C2175 0.930 . S
C2170 H2156 0.930 . S
C2170 C2168 1.395 . S
C2170 C2173 1.403 . S
C2171 C2168 1.403 . S
C2171 C2172 1.524 . S
C2171 C2175 1.400 . S
C2172 H2157 0.960 . S
C2172 H2158 0.960 . S
C2172 H2159 0.960 . S
C2172 C2171 1.524 . S
C2173 C2170 1.403 . S
C2173 C2174 1.392 . S
C2173 C2177 1.495 . S
C2174 C2173 1.392 . S
C2174 C2175 1.385 . S
C2174 C2176 1.478 . S
C2175 H2169 0.930 . S
C2175 C2171 1.400 . S
C2175 C2174 1.385 . S
C2176 C2174 1.478 . S
C2176 C2178 1.381 . S
C2176 C2182 1.383 . S
C2177 C2173 1.495 . S
C2177 H2183 0.959 . S
C2177 H2184 0.961 . S
C2177 H2185 0.960 . S
C2178 C2176 1.381 . S
C2178 C2179 1.394 . S
C2178 H2186 0.930 . S
C2179 C2178 1.394 . S
C2179 C2180 1.383 . S
C2179 H2187 0.929 . S
C2180 C2179 1.383 . S
C2180 C2181 1.377 . S
C2181 H2165 0.930 . S
C2181 C2180 1.377 . S
C2181 C2182 1.379 . S
C2182 H2166 0.931 . S
C2182 C2176 1.383 . S
C2182 C2181 1.379 . S
H2183 C2177 0.959 . S
H2184 C2177 0.961 . S
H2185 C2177 0.960 . S
H2186 C2178 0.930 . S
H2187 C2179 0.929 . S
H2188 C2196 0.929 . S
H2189 C2198 0.930 . S
H2190 C2200 0.930 1_545 S
H2191 C2203 0.929 . S
H2192 C2206 0.930 . S
H2193 C2208 0.960 . S
H2194 C2208 0.960 . S
H2195 C2208 0.960 . S
C2196 H2188 0.929 . S
C2196 C2197 1.377 . S
C2196 C2198 1.384 . S
C2197 C2196 1.377 . S
C2197 C2203 1.390 . S
C2198 H2189 0.930 . S
C2198 C2196 1.384 . S
C2198 C2199 1.372 1_565 S
C2199 C2198 1.372 1_545 S
C2199 C2200 1.400 1_545 S
C2199 C2204 1.490 . S
C2200 H2190 0.930 1_565 S
C2200 C2199 1.400 1_565 S
C2200 C2203 1.386 . S
H2201 C2217 0.930 . S
H2202 C2218 0.931 . S
C2203 H2191 0.929 . S
C2203 C2197 1.390 . S
C2203 C2200 1.386 . S
C2204 C2199 1.490 . S
C2204 C2206 1.395 . S
C2204 C2207 1.403 . S
H2205 C2211 0.930 . S
C2206 H2192 0.930 . S
C2206 C2204 1.395 . S
C2206 C2209 1.403 . S
C2207 C2204 1.403 . S
C2207 C2208 1.524 . S
C2207 C2211 1.400 . S
C2208 H2193 0.960 . S
C2208 H2194 0.960 . S
C2208 H2195 0.960 . S
C2208 C2207 1.524 . S
C2209 C2206 1.403 . S
C2209 C2210 1.392 . S
C2209 C2213 1.495 . S
C2210 C2209 1.392 . S
C2210 C2211 1.385 . S
C2210 C2212 1.478 . S
C2211 H2205 0.930 . S
C2211 C2207 1.400 . S
C2211 C2210 1.385 . S
C2212 C2210 1.478 . S
C2212 C2214 1.381 . S
C2212 C2218 1.383 . S
C2213 C2209 1.495 . S
C2213 H2219 0.959 . S
C2213 H2220 0.961 . S
C2213 H2221 0.960 . S
C2214 C2212 1.381 . S
C2214 C2215 1.394 . S
C2214 H2222 0.930 . S
C2215 C2214 1.394 . S
C2215 C2216 1.383 . S
C2215 H2223 0.929 . S
C2216 C2215 1.383 . S
C2216 C2217 1.377 . S
C2217 H2201 0.930 . S
C2217 C2216 1.377 . S
C2217 C2218 1.379 . S
C2218 H2202 0.931 . S
C2218 C2212 1.383 . S
C2218 C2217 1.379 . S
H2219 C2213 0.959 . S
H2220 C2213 0.961 . S
H2221 C2213 0.960 . S
H2222 C2214 0.930 . S
H2223 C2215 0.929 . S
H2224 C2232 0.929 . S
H2225 C2234 0.930 . S
H2226 C2236 0.930 . S
H2227 C2239 0.929 . S
H2228 C2242 0.930 . S
H2229 C2244 0.960 . S
H2230 C2244 0.960 . S
H2231 C2244 0.960 . S
C2232 H2224 0.929 . S
C2232 C2233 1.377 . S
C2232 C2234 1.384 . S
C2233 C2232 1.377 . S
C2233 C2239 1.390 . S
C2234 H2225 0.930 . S
C2234 C2232 1.384 . S
C2234 C2235 1.372 . S
C2235 C2234 1.372 . S
C2235 C2236 1.400 . S
C2235 C2240 1.490 . S
C2236 H2226 0.930 . S
C2236 C2235 1.400 . S
C2236 C2239 1.386 . S
H2237 C2253 0.930 . S
H2238 C2254 0.938 . S
C2239 H2227 0.929 . S
C2239 C2233 1.390 . S
C2239 C2236 1.386 . S
C2240 C2235 1.490 . S
C2240 C2242 1.395 . S
C2240 C2243 1.403 . S
H2241 C2247 0.930 . S
C2242 H2228 0.930 . S
C2242 C2240 1.395 . S
C2242 C2245 1.403 . S
C2243 C2240 1.403 . S
C2243 C2244 1.524 . S
C2243 C2247 1.400 . S
C2244 H2229 0.960 . S
C2244 H2230 0.960 . S
C2244 H2231 0.960 . S
C2244 C2243 1.524 . S
C2245 C2242 1.403 . S
C2245 C2246 1.392 . S
C2245 C2249 1.495 . S
C2246 C2245 1.392 . S
C2246 C2247 1.385 . S
C2246 C2248 1.478 . S
C2247 H2241 0.930 . S
C2247 C2243 1.400 . S
C2247 C2246 1.385 . S
C2248 C2246 1.478 . S
C2248 C2250 1.381 1_565 S
C2248 C2254 1.383 1_565 S
C2249 C2245 1.495 . S
C2249 H2255 0.959 . S
C2249 H2256 0.961 . S
C2249 H2257 0.960 . S
C2250 C2248 1.381 1_545 S
C2250 C2251 1.394 . S
C2250 H2258 0.930 . S
C2251 C2250 1.394 . S
C2251 C2252 1.383 . S
C2251 H2259 0.929 . S
C2252 C2251 1.383 . S
C2252 C2253 1.377 . S
C2253 H2237 0.930 . S
C2253 C2252 1.377 . S
C2253 C2254 1.379 . S
C2254 H2238 0.938 . S
C2254 C2248 1.383 1_545 S
C2254 C2253 1.379 . S
H2255 C2249 0.959 . S
H2256 C2249 0.961 . S
H2257 C2249 0.960 . S
H2258 C2250 0.930 . S
H2259 C2251 0.929 . S
H2260 C2268 0.929 . S
H2261 C2270 0.930 . S
H2262 C2272 0.930 . S
H2263 C2275 0.929 . S
H2264 C2278 0.930 . S
H2265 C2280 0.960 . S
H2266 C2280 0.960 . S
H2267 C2280 0.960 . S
C2268 H2260 0.929 . S
C2268 C2269 1.377 . S
C2268 C2270 1.384 . S
C2269 C2268 1.377 . S
C2269 C2275 1.390 . S
C2270 H2261 0.930 . S
C2270 C2268 1.384 . S
C2270 C2271 1.372 . S
C2271 C2270 1.372 . S
C2271 C2272 1.400 . S
C2271 C2276 1.490 . S
C2272 H2262 0.930 . S
C2272 C2271 1.400 . S
C2272 C2275 1.386 . S
H2273 C2289 0.930 . S
H2274 C2290 0.931 . S
C2275 H2263 0.929 . S
C2275 C2269 1.390 . S
C2275 C2272 1.386 . S
C2276 C2271 1.490 . S
C2276 C2278 1.395 . S
C2276 C2279 1.403 . S
H2277 C2283 0.930 . S
C2278 H2264 0.930 . S
C2278 C2276 1.395 . S
C2278 C2281 1.403 . S
C2279 C2276 1.403 . S
C2279 C2280 1.524 . S
C2279 C2283 1.400 . S
C2280 H2265 0.960 . S
C2280 H2266 0.960 . S
C2280 H2267 0.960 . S
C2280 C2279 1.524 . S
C2281 C2278 1.403 . S
C2281 C2282 1.392 . S
C2281 C2285 1.495 . S
C2282 C2281 1.392 . S
C2282 C2283 1.385 . S
C2282 C2284 1.478 . S
C2283 H2277 0.930 . S
C2283 C2279 1.400 . S
C2283 C2282 1.385 . S
C2284 C2282 1.478 . S
C2284 C2286 1.381 1_545 S
C2284 C2290 1.383 1_545 S
C2285 C2281 1.495 . S
C2285 H2291 0.959 . S
C2285 H2292 0.961 . S
C2285 H2293 0.960 . S
C2286 C2284 1.381 1_565 S
C2286 C2287 1.394 . S
C2286 H2294 0.919 1_565 S
C2287 C2286 1.394 . S
C2287 C2288 1.383 . S
C2287 H2295 0.929 . S
C2288 C2287 1.383 . S
C2288 C2289 1.377 . S
C2289 H2273 0.930 . S
C2289 C2288 1.377 . S
C2289 C2290 1.379 . S
C2290 H2274 0.931 . S
C2290 C2284 1.383 1_565 S
C2290 C2289 1.379 . S
H2291 C2285 0.959 . S
H2292 C2285 0.961 . S
H2293 C2285 0.960 . S
H2294 C2286 0.919 1_545 S
H2295 C2287 0.929 . S
H2296 C2304 0.929 . S
H2297 C2306 0.930 . S
H2298 C2308 0.930 . S
H2299 C2311 0.929 . S
H2300 C2314 0.930 . S
H2301 C2316 0.960 . S
H2302 C2316 0.960 . S
H2303 C2316 0.960 . S
C2304 H2296 0.929 . S
C2304 C2305 1.377 . S
C2304 C2306 1.384 . S
C2305 C2304 1.377 . S
C2305 C2311 1.390 . S
C2306 H2297 0.930 . S
C2306 C2304 1.384 . S
C2306 C2307 1.372 1_565 S
C2307 C2306 1.372 1_545 S
C2307 C2308 1.400 1_545 S
C2307 C2312 1.490 . S
C2308 H2298 0.930 . S
C2308 C2307 1.400 1_565 S
C2308 C2311 1.386 . S
H2309 C2325 0.930 . S
H2310 C2326 0.931 . S
C2311 H2299 0.929 . S
C2311 C2305 1.390 . S
C2311 C2308 1.386 . S
C2312 C2307 1.490 . S
C2312 C2314 1.395 . S
C2312 C2315 1.403 . S
H2313 C2319 0.930 . S
C2314 H2300 0.930 . S
C2314 C2312 1.395 . S
C2314 C2317 1.403 . S
C2315 C2312 1.403 . S
C2315 C2316 1.524 . S
C2315 C2319 1.400 . S
C2316 H2301 0.960 . S
C2316 H2302 0.960 . S
C2316 H2303 0.960 . S
C2316 C2315 1.524 . S
C2317 C2314 1.403 . S
C2317 C2318 1.392 . S
C2317 C2321 1.495 . S
C2318 C2317 1.392 . S
C2318 C2319 1.385 . S
C2318 C2320 1.478 . S
C2319 H2313 0.930 . S
C2319 C2315 1.400 . S
C2319 C2318 1.385 . S
C2320 C2318 1.478 . S
C2320 C2322 1.381 . S
C2320 C2326 1.383 . S
C2321 C2317 1.495 . S
C2321 H2327 0.959 . S
C2321 H2328 0.961 . S
C2321 H2329 0.960 . S
C2322 C2320 1.381 . S
C2322 C2323 1.394 . S
C2322 H2330 0.930 . S
C2323 C2322 1.394 . S
C2323 C2324 1.383 . S
C2323 H2331 0.929 . S
C2324 C2323 1.383 . S
C2324 C2325 1.377 . S
C2325 H2309 0.930 . S
C2325 C2324 1.377 . S
C2325 C2326 1.379 . S
C2326 H2310 0.931 . S
C2326 C2320 1.383 . S
C2326 C2325 1.379 . S
H2327 C2321 0.959 . S
H2328 C2321 0.961 . S
H2329 C2321 0.960 . S
H2330 C2322 0.930 . S
H2331 C2323 0.929 . S
H2332 C2340 0.929 . S
H2333 C2342 0.930 . S
H2334 C2344 0.930 . S
H2335 C2347 0.929 . S
H2336 C2350 0.930 . S
H2337 C2352 0.960 . S
H2338 C2352 0.960 . S
H2339 C2352 0.960 . S
C2340 H2332 0.929 . S
C2340 C2341 1.377 . S
C2340 C2342 1.384 . S
C2341 C2340 1.377 . S
C2341 C2347 1.390 . S
C2342 H2333 0.930 . S
C2342 C2340 1.384 . S
C2342 C2343 1.372 . S
C2343 C2342 1.372 . S
C2343 C2344 1.400 . S
C2343 C2348 1.490 . S
C2344 H2334 0.930 . S
C2344 C2343 1.400 . S
C2344 C2347 1.386 . S
H2345 C2361 0.930 . S
H2346 C2362 0.931 1_565 S
C2347 H2335 0.929 . S
C2347 C2341 1.390 . S
C2347 C2344 1.386 . S
C2348 C2343 1.490 . S
C2348 C2350 1.395 . S
C2348 C2351 1.403 . S
H2349 C2355 0.930 . S
C2350 H2336 0.930 . S
C2350 C2348 1.395 . S
C2350 C2353 1.403 . S
C2351 C2348 1.403 . S
C2351 C2352 1.524 . S
C2351 C2355 1.400 . S
C2352 H2337 0.960 . S
C2352 H2338 0.960 . S
C2352 H2339 0.960 . S
C2352 C2351 1.524 . S
C2353 C2350 1.403 . S
C2353 C2354 1.392 . S
C2353 C2357 1.495 . S
C2354 C2353 1.392 . S
C2354 C2355 1.385 . S
C2354 C2356 1.478 . S
C2355 H2349 0.930 . S
C2355 C2351 1.400 . S
C2355 C2354 1.385 . S
C2356 C2354 1.478 . S
C2356 C2358 1.381 1_565 S
C2356 C2362 1.383 1_565 S
C2357 C2353 1.495 . S
C2357 H2363 0.959 . S
C2357 H2364 0.961 . S
C2357 H2365 0.960 . S
C2358 C2356 1.381 1_545 S
C2358 C2359 1.394 . S
C2358 H2366 0.930 . S
C2359 C2358 1.394 . S
C2359 C2360 1.383 . S
C2359 H2367 0.929 . S
C2360 C2359 1.383 . S
C2360 C2361 1.377 . S
C2361 H2345 0.930 . S
C2361 C2360 1.377 . S
C2361 C2362 1.379 . S
C2362 H2346 0.931 1_545 S
C2362 C2356 1.383 1_545 S
C2362 C2361 1.379 . S
H2363 C2357 0.959 . S
H2364 C2357 0.961 . S
H2365 C2357 0.960 . S
H2366 C2358 0.930 . S
H2367 C2359 0.929 . S
C649 C19 1.541 . S
C668 C379 1.528 . S
C685 C59 1.537 . S
C704 C339 1.543 . S
C721 C459 1.541 . S
C740 C99 1.529 . S
C757 C139 1.537 . S
C776 C419 1.542 . S
C793 C530 1.537 . S
C812 C170 1.533 . S
C829 C490 1.537 . S
C848 C210 1.535 . S
C865 C610 1.537 . S
C884 C250 1.539 . S
C901 C290 1.540 . S
C920 C570 1.547 . S
C937 C98 1.640 . S
C956 C18 1.632 . S
C973 C138 1.640 . S
C992 C58 1.627 . S
C1009 C249 1.645 . S
C1028 C169 1.630 . S
C1045 C209 1.640 . S
C1064 C289 1.649 . S
C1081 C418 1.644 . S
C1100 C338 1.651 . S
C1117 C458 1.640 . S
C1136 C378 1.629 . S
C1153 C489 1.645 . S
C1172 C569 1.626 . S
C1189 C529 1.643 . S
C1208 C609 1.635 . S
C1225 C218 1.526 . S
C1244 C9 1.536 . S
C1261 C178 1.518 . S
C1280 C49 1.525 . S
C1297 C89 1.524 . S
C1316 C298 1.544 . S
C1333 C258 1.523 . S
C1352 C129 1.546 . S
C1369 C329 1.521 . S
C1388 C538 1.548 . S
C1405 C498 1.528 . S
C1424 C369 1.520 . S
C1441 C409 1.521 . S
C1460 C618 1.548 . S
C1477 C578 1.526 . S
C1496 C449 1.535 . S
C1513 C50 1.620 . S
C1532 C10 1.614 . S
C1549 C130 1.626 . S
C1568 C90 1.637 . S
C1585 C219 1.621 . S
C1604 C179 1.598 . S
C1621 C259 1.622 . S
C1640 C299 1.638 . S
C1657 C370 1.619 . S
C1676 C330 1.609 . S
C1693 C450 1.626 . S
C1712 C410 1.640 . S
C1729 C499 1.620 . S
C1748 C539 1.600 . S
C1765 C579 1.621 . S
C1784 C619 1.598 . S
C1801 C6 1.743 . S
C1820 C15 1.752 . S
C1837 C46 1.741 . S
C1856 C55 1.743 . S
C1873 C86 1.743 . S
C1892 C95 1.727 . S
C1909 C135 1.745 . S
C1928 C126 1.745 . S
C1945 C175 1.745 . S
C1964 C166 1.735 . S
C1981 C206 1.740 . S
C2000 C215 1.735 . S
C2017 C255 1.742 . S
C2036 C246 1.748 . S
C2053 C295 1.741 . S
C2072 C286 1.746 . S
C2089 C335 1.740 . S
C2108 C326 1.736 . S
C2125 C366 1.741 . S
C2144 C375 1.726 . S
C2161 C415 1.743 . S
C2180 C406 1.752 . S
C2197 C455 1.744 . S
C2216 C446 1.753 . S
C2233 C495 1.741 . S
C2252 C486 1.725 . S
C2269 C535 1.740 . S
C2288 C526 1.736 . S
C2305 C566 1.745 . S
C2324 C575 1.752 . S
C2341 C615 1.745 . S
C2360 C606 1.748 . S
