# Generated by pormake.
# Topology sml, (6)-cn, num edge types: 1
# Building blocks:
#     Node 0, Type 0, BuildingBlock: KUMBOL_clean_sbu_1, # of connection points: 6
#     Node 1, Type 0, BuildingBlock: KUMBOL_clean_sbu_1, # of connection points: 6
#     Node 2, Type 0, BuildingBlock: KUMBOL_clean_sbu_1, # of connection points: 6
#     Node 3, Type 0, BuildingBlock: KUMBOL_clean_sbu_1, # of connection points: 6
#     Node 4, Type 0, BuildingBlock: KUMBOL_clean_sbu_1, # of connection points: 6
#     Node 5, Type 0, BuildingBlock: KUMBOL_clean_sbu_1, # of connection points: 6
#     Edge 6, Type (0, 0), BuildingBlock: KIFKEQ_clean_linker_1, # of connection points: 2
#     Edge 7, Type (0, 0), BuildingBlock: KIFKEQ_clean_linker_1, # of connection points: 2
#     Edge 8, Type (0, 0), BuildingBlock: KIFKEQ_clean_linker_1, # of connection points: 2
#     Edge 9, Type (0, 0), BuildingBlock: KIFKEQ_clean_linker_1, # of connection points: 2
#     Edge 10, Type (0, 0), BuildingBlock: KIFKEQ_clean_linker_1, # of connection points: 2
#     Edge 11, Type (0, 0), BuildingBlock: KIFKEQ_clean_linker_1, # of connection points: 2
#     Edge 12, Type (0, 0), BuildingBlock: KIFKEQ_clean_linker_1, # of connection points: 2
#     Edge 13, Type (0, 0), BuildingBlock: KIFKEQ_clean_linker_1, # of connection points: 2
#     Edge 14, Type (0, 0), BuildingBlock: KIFKEQ_clean_linker_1, # of connection points: 2
#     Edge 15, Type (0, 0), BuildingBlock: KIFKEQ_clean_linker_1, # of connection points: 2
#     Edge 16, Type (0, 0), BuildingBlock: KIFKEQ_clean_linker_1, # of connection points: 2
#     Edge 17, Type (0, 0), BuildingBlock: KIFKEQ_clean_linker_1, # of connection points: 2
#     Edge 18, Type (0, 0), BuildingBlock: KIFKEQ_clean_linker_1, # of connection points: 2
#     Edge 19, Type (0, 0), BuildingBlock: KIFKEQ_clean_linker_1, # of connection points: 2
#     Edge 20, Type (0, 0), BuildingBlock: KIFKEQ_clean_linker_1, # of connection points: 2
#     Edge 21, Type (0, 0), BuildingBlock: KIFKEQ_clean_linker_1, # of connection points: 2
#     Edge 22, Type (0, 0), BuildingBlock: KIFKEQ_clean_linker_1, # of connection points: 2
#     Edge 23, Type (0, 0), BuildingBlock: KIFKEQ_clean_linker_1, # of connection points: 2
# Relax obj value: 0.061
# Max RMSD: 0.173
# Mean RMSD: 0.173
data_MOF--net-sml--node1-KUMBOL_clean_sbu_1--edge1-KIFKEQ_clean_linker_1
_symmetry_space_group_name_H-M    P1
_symmetry_Int_Tables_number       1
_symmetry_cell_setting            triclinic
loop_
_symmetry_equiv_pos_as_xyz
'x, y, z'
_cell_length_a     33.943326
_cell_length_b     33.902066
_cell_length_c     24.29416
_cell_angle_alpha  89.914483
_cell_angle_beta   89.879395
_cell_angle_gamma 120.0284
loop_
_atom_site_label
_atom_site_type_symbol
_atom_site_fract_x
_atom_site_fract_y
_atom_site_fract_z
_atom_type_partial_charge
C0 C 0.31947 0.42257 0.06548 0.0
C1 C 0.37197 0.50171 0.08809 0.0
C2 C 0.32729 0.46574 0.07897 0.0
C3 C 0.40863 0.4937 0.08331 0.0
C4 C 0.35617 0.4144 0.06068 0.0
C5 C 0.40077 0.45021 0.06956 0.0
N6 N 0.27598 0.38855 0.05729 0.0
C7 C 0.26659 0.3454 0.04557 0.0
C8 C 0.34692 0.37042 0.04721 0.0
C9 C 0.30191 0.33575 0.03978 0.0
Gd10 Gd 0.15455 0.42851 0.9363 0.0
Gd11 Gd 0.21958 0.40849 0.06689 0.0
N12 N 0.29123 0.47278 0.08171 0.0
C13 C 0.37845 0.54471 0.10146 0.0
C14 C 0.29718 0.51427 0.09618 0.0
C15 C 0.34087 0.55093 0.10579 0.0
H16 H 0.26842 0.5193 0.10045 0.0
H17 H 0.34551 0.58393 0.11674 0.0
H18 H 0.13731 0.32853 0.8802 0.0
H19 H 0.23174 0.31831 0.04124 0.0
H20 H 0.07408 0.25105 0.86669 0.0
H21 H 0.41225 0.57323 0.1088 0.0
H22 H 0.44322 0.52095 0.09007 0.0
H23 H 0.10793 0.48884 0.98033 0.0
H24 H 0.3742 0.3628 0.04294 0.0
H25 H 0.29438 0.30155 0.02995 0.0
H26 H 0.94228 0.25811 0.9224 0.0
H27 H 0.42941 0.44458 0.06602 0.0
H28 H 0.96306 0.40166 0.98322 0.0
H29 H 0.03103 0.47732 0.99847 0.0
N30 N 0.08327 0.42057 0.95474 0.0
C31 C 0.04644 0.37884 0.94535 0.0
C32 C 0.07831 0.45578 0.97341 0.0
C33 C 0.99662 0.4066 0.97486 0.0
C34 C 0.03492 0.44936 0.98364 0.0
C35 C 1.00206 0.37063 0.95576 0.0
H36 H 0.93043 0.31973 0.9561 0.0
N37 N 0.0969 0.35271 0.91864 0.0
C38 C 0.05348 0.34383 0.92758 0.0
C39 C 0.02361 0.26602 0.89782 0.0
C40 C 0.01579 0.30001 0.91832 0.0
C41 C 0.10414 0.32053 0.89445 0.0
C42 C 0.0679 0.27656 0.88498 0.0
O43 O 0.26549 0.45301 0.99716 0.0
O44 O 0.22568 0.48403 0.95658 0.0
O45 O 0.16096 0.4279 0.84638 0.0
O46 O 0.14549 0.47634 0.88609 0.0
O47 O 0.18987 0.45449 0.08071 0.0
O48 O 0.18316 0.48626 0.99813 0.0
O49 O 0.11599 0.39871 1.01559 0.0
O50 O 0.14836 0.35724 0.04162 0.0
O51 O 0.20271 0.41594 0.15131 0.0
O52 O 0.21758 0.36263 0.13066 0.0
O53 O 0.19883 0.39701 0.92083 0.0
O54 O 0.18821 0.3559 1.00006 0.0
C55 C 0.26269 0.48124 0.9621 0.0
C56 C 0.18453 0.48485 0.05256 0.0
C57 C 0.15036 0.48013 0.7862 0.0
C58 C 0.16114 0.48598 0.68596 0.0
C59 C 0.13205 0.52957 0.73309 0.0
C60 C 0.13479 0.51145 0.78348 0.0
C61 C 0.14493 0.51693 0.68474 0.0
C62 C 0.16349 0.46741 0.73719 0.0
C63 C 0.1522 0.46089 0.84027 0.0
C64 C 0.97152 0.29164 0.92892 0.0
C65 C 0.96471 0.3268 0.94773 0.0
H66 H 0.9956 0.23198 0.89008 0.0
C67 C 0.11566 0.36681 0.04633 0.0
C68 C 0.20306 0.36624 0.94919 0.0
C69 C 0.23906 0.39557 0.21951 0.0
C70 C 0.24954 0.41161 0.31836 0.0
C71 C 0.30922 0.41046 0.26389 0.0
C72 C 0.28257 0.40032 0.21668 0.0
C73 C 0.2929 0.41597 0.31439 0.0
C74 C 0.2228 0.40149 0.27044 0.0
C75 C 0.21016 0.38419 0.17002 0.0
H76 H 0.11965 0.5534 0.73146 0.0
H77 H 0.12433 0.52176 0.82033 0.0
H78 H 0.14161 0.53107 0.6462 0.0
H79 H 0.17609 0.44372 0.73905 0.0
H80 H 0.34274 0.41414 0.2613 0.0
H81 H 0.29597 0.39603 0.17814 0.0
H82 H 0.31456 0.4244 0.35022 0.0
H83 H 0.18915 0.39763 0.2728 0.0
C84 C 0.65742 0.10359 0.3254 0.0
C85 C 0.61329 0.14098 0.30931 0.0
C86 C 0.65564 0.14294 0.31389 0.0
C87 C 0.57289 0.0991 0.31618 0.0
C88 C 0.61692 0.06161 0.3329 0.0
C89 C 0.5747 0.05956 0.32801 0.0
N90 N 0.69874 0.10663 0.33075 0.0
C91 C 0.7021 0.06905 0.34226 0.0
C92 C 0.62009 0.02298 0.34562 0.0
C93 C 0.66287 0.02673 0.35027 0.0
Gd94 Gd 0.83469 0.26075 0.44762 0.0
Gd95 Gd 0.76208 0.17897 0.31681 0.0
N96 N 0.69539 0.1834 0.30953 0.0
C97 C 0.6128 0.1813 0.29845 0.0
C98 C 0.69506 0.22252 0.29742 0.0
C99 C 0.65386 0.22216 0.2922 0.0
H100 H 0.7263 0.25402 0.29116 0.0
H101 H 0.65379 0.25338 0.28305 0.0
H102 H 0.85107 0.17675 0.50072 0.0
H103 H 0.73508 0.07164 0.3444 0.0
H104 H 0.9145 0.16343 0.51731 0.0
H105 H 0.58096 0.18121 0.29457 0.0
H106 H 0.54005 0.09697 0.31281 0.0
H107 H 0.88142 0.36831 0.40462 0.0
H108 H 0.58977 0.99013 0.35183 0.0
H109 H 0.66565 0.99701 0.35971 0.0
H110 H 0.04703 0.30487 0.46937 0.0
H111 H 0.54322 0.02759 0.33357 0.0
H112 H 0.02631 0.42706 0.40549 0.0
H113 H 0.95831 0.43411 0.38789 0.0
N114 N 0.90595 0.3247 0.43072 0.0
C115 C 0.94276 0.32009 0.44117 0.0
C116 C 0.91096 0.36491 0.41201 0.0
C117 C 0.99271 0.39811 0.41283 0.0
C118 C 0.9544 0.40221 0.40274 0.0
C119 C 0.98722 0.35671 0.4322 0.0
H120 H 0.05908 0.37857 0.4358 0.0
N121 N 0.89229 0.24304 0.46638 0.0
C122 C 0.93575 0.27808 0.45926 0.0
C123 C 0.96544 0.2302 0.48991 0.0
C124 C 0.97341 0.27233 0.47012 0.0
C125 C 0.88466 0.20292 0.48905 0.0
C126 C 0.92092 0.19558 0.50005 0.0
O127 O 0.72162 0.17674 0.39287 0.0
O128 O 0.76571 0.249 0.42443 0.0
O129 O 0.82414 0.24985 0.5371 0.0
O130 O 0.8442 0.31621 0.50034 0.0
O131 O 0.80095 0.25543 0.30249 0.0
O132 O 0.80833 0.2924 0.38593 0.0
O133 O 0.87395 0.26655 0.36984 0.0
O134 O 0.83349 0.19416 0.33509 0.0
O135 O 0.76875 0.19729 0.22994 0.0
O136 O 0.75406 0.1299 0.25414 0.0
O137 O 0.7905 0.1843 0.46049 0.0
O138 O 0.79378 0.15272 0.37765 0.0
C139 C 0.72839 0.2095 0.42708 0.0
C140 C 0.80974 0.29185 0.33146 0.0
C141 C 0.83314 0.31113 0.59925 0.0
C142 C 0.83399 0.30968 0.70025 0.0
C143 C 0.8286 0.36969 0.65166 0.0
C144 C 0.83011 0.35092 0.60131 0.0
C145 C 0.83045 0.34933 0.70069 0.0
C146 C 0.83479 0.29035 0.64897 0.0
C147 C 0.83386 0.29177 0.54492 0.0
C148 C 0.01777 0.30879 0.46139 0.0
C149 C 0.02465 0.35082 0.44241 0.0
H150 H 0.99344 0.22444 0.49876 0.0
C151 C 0.8695 0.23509 0.33505 0.0
C152 C 0.78422 0.14918 0.43058 0.0
C153 C 0.79703 0.16084 0.17206 0.0
C154 C 0.82869 0.18032 0.07865 0.0
C155 C 0.85938 0.1491 0.14522 0.0
C156 C 0.82827 0.14648 0.18478 0.0
C157 C 0.85961 0.16577 0.09255 0.0
C158 C 0.79753 0.17789 0.11897 0.0
C159 C 0.76399 0.15855 0.2136 0.0
H160 H 0.82582 0.40013 0.65271 0.0
H161 H 0.8284 0.36739 0.56386 0.0
H162 H 0.82855 0.36446 0.73911 0.0
H163 H 0.83755 0.25987 0.6477 0.0
H164 H 0.88359 0.13834 0.15551 0.0
H165 H 0.82901 0.13373 0.22544 0.0
H166 H 0.88447 0.16788 0.06288 0.0
H167 H 0.77325 0.18869 0.10892 0.0
C168 C 0.56904 0.8941 0.73362 0.0
C169 C 0.48955 0.85924 0.76038 0.0
C170 C 0.52875 0.85593 0.75048 0.0
C171 C 0.49134 0.90121 0.75292 0.0
C172 C 0.57086 0.93621 0.7258 0.0
C173 C 0.53183 0.93955 0.73561 0.0
N174 N 0.6061 0.88975 0.72357 0.0
C175 C 0.64632 0.92627 0.70719 0.0
C176 C 0.6118 0.97365 0.70789 0.0
C177 C 0.64971 0.96866 0.69868 0.0
Gd178 Gd 0.576 0.73079 0.60675 0.0
Gd179 Gd 0.59666 0.81716 0.73753 0.0
N180 N 0.5276 0.81531 0.75551 0.0
C181 C 0.44963 0.82021 0.7773 0.0
C182 C 0.48922 0.77762 0.7739 0.0
C183 C 0.4496 0.77934 0.7845 0.0
H184 H 0.48895 0.74631 0.78145 0.0
H185 H 0.41914 0.74918 0.79862 0.0
H186 H 0.6805 0.81129 0.55917 0.0
H187 H 0.67599 0.9228 0.70146 0.0
H188 H 0.7541 0.81755 0.53937 0.0
H189 H 0.41881 0.82136 0.78542 0.0
H190 H 0.46152 0.90434 0.76025 0.0
H191 H 0.50817 0.62374 0.64829 0.0
H192 H 0.61452 0.00654 0.70125 0.0
H193 H 0.6816 0.99748 0.68526 0.0
H194 H 0.72983 0.66772 0.57359 0.0
H195 H 0.53258 0.97161 0.7298 0.0
H196 H 0.58269 0.55278 0.63682 0.0
H197 H 0.51176 0.55306 0.65965 0.0
N198 N 0.57633 0.66268 0.61972 0.0
C199 C 0.61564 0.66338 0.60678 0.0
C200 C 0.53933 0.6239 0.63862 0.0
C201 C 0.58129 0.58381 0.63174 0.0
C202 C 0.5412 0.58386 0.64483 0.0
C203 C 0.61921 0.62389 0.6127 0.0
H204 H 0.66396 0.59581 0.6046 0.0
N205 N 0.64895 0.7423 0.58628 0.0
C206 C 0.65304 0.70433 0.58987 0.0
C207 C 0.73147 0.74766 0.56013 0.0
C208 C 0.69461 0.70622 0.57756 0.0
C209 C 0.68428 0.78219 0.56679 0.0
C210 C 0.72613 0.78566 0.55427 0.0
O211 O 0.55454 0.81963 0.66622 0.0
O212 O 0.52237 0.7466 0.63539 0.0
O213 O 0.57558 0.74197 0.51773 0.0
O214 O 0.5254 0.67732 0.55525 0.0
O215 O 0.55679 0.74086 0.75455 0.0
O216 O 0.52156 0.70354 0.67315 0.0
O217 O 0.6129 0.72478 0.68103 0.0
O218 O 0.64857 0.79847 0.70985 0.0
O219 O 0.59449 0.8017 0.82573 0.0
O220 O 0.64561 0.86805 0.79282 0.0
O221 O 0.60967 0.80682 0.59015 0.0
O222 O 0.64934 0.83993 0.66975 0.0
C223 C 0.52614 0.7869 0.63357 0.0
C224 C 0.52593 0.70483 0.7274 0.0
C225 C 0.51896 0.68357 0.45643 0.0
C226 C 0.5178 0.68952 0.35605 0.0
C227 C 0.45314 0.62867 0.40437 0.0
C228 C 0.47534 0.64478 0.45452 0.0
C229 C 0.47402 0.65099 0.35547 0.0
C230 C 0.54036 0.70567 0.40677 0.0
C231 C 0.54052 0.70147 0.51053 0.0
C232 C 0.69813 0.66681 0.58284 0.0
C233 C 0.66057 0.6258 0.60037 0.0
H234 H 0.76394 0.7505 0.55025 0.0
C235 C 0.64212 0.75709 0.71341 0.0
C236 C 0.63956 0.8427 0.61799 0.0
C237 C 0.64843 0.85786 0.89149 0.0
C238 C 0.64957 0.84564 0.99105 0.0
C239 C 0.7038 0.91847 0.94959 0.0
C240 C 0.68519 0.90235 0.89784 0.0
C241 C 0.68612 0.89059 0.99581 0.0
C242 C 0.6308 0.82947 0.93831 0.0
C243 C 0.62888 0.84209 0.83596 0.0
H244 H 0.41943 0.59891 0.40343 0.0
H245 H 0.45798 0.62719 0.49194 0.0
H246 H 0.4561 0.63793 0.31699 0.0
H247 H 0.57392 0.73572 0.40756 0.0
H248 H 0.73184 0.95297 0.954 0.0
H249 H 0.6995 0.92498 0.86278 0.0
H250 H 0.70067 0.90477 0.03553 0.0
H251 H 0.60278 0.79496 0.93362 0.0
C252 C 0.88318 0.53853 0.98486 0.0
C253 C 0.83425 0.46079 0.95451 0.0
C254 C 0.84108 0.50457 0.96616 0.0
C255 C 0.86948 0.45127 0.96404 0.0
C256 C 0.91883 0.5293 0.99384 0.0
C257 C 0.91165 0.48542 0.98368 0.0
N258 N 0.88885 0.5804 0.99561 0.0
C259 C 0.92962 0.61495 1.01344 0.0
C260 C 0.96055 0.56442 1.01319 0.0
C261 C 0.96601 0.6075 0.02278 0.0
Gd262 Gd 0.74483 0.57887 0.11286 0.0
Gd263 Gd 0.82606 0.59001 0.97988 0.0
N264 N 0.80742 0.51471 0.95778 0.0
C265 C 0.7926 0.42818 0.93219 0.0
C266 C 0.76867 0.48433 0.93099 0.0
C267 C 0.76005 0.44033 0.91935 0.0
H268 H 0.74512 0.49414 0.91604 0.0
H269 H 0.72874 0.4162 0.89917 0.0
H270 H 0.82457 0.68418 0.15777 0.0
H271 H 0.93414 0.64839 0.01967 0.0
H272 H 0.83 0.75762 0.17659 0.0
H273 H 0.78603 0.39422 0.92257 0.0
H274 H 0.86468 0.41776 0.95562 0.0
H275 H 0.63756 0.5095 0.07354 0.0
H276 H 0.98877 0.5587 0.0206 0.0
H277 H 0.99827 0.63501 0.03717 0.0
H278 H 0.67983 0.73163 0.14272 0.0
H279 H 0.93857 0.47763 0.99052 0.0
H280 H 0.56588 0.58339 0.08237 0.0
H281 H 0.56675 0.5124 0.06161 0.0
N282 N 0.67631 0.57831 0.09975 0.0
C283 C 0.67661 0.61759 0.1118 0.0
C284 C 0.63762 0.5408 0.08198 0.0
C285 C 0.59706 0.58236 0.08752 0.0
C286 C 0.59744 0.54225 0.07559 0.0
C287 C 0.63694 0.62072 0.10572 0.0
H288 H 0.60829 0.66509 0.11287 0.0
N289 N 0.7554 0.65168 0.13197 0.0
C290 C 0.71726 0.65533 0.12828 0.0
C291 C 0.75998 0.73412 0.15653 0.0
C292 C 0.71875 0.69686 0.13976 0.0
C293 C 0.79517 0.68749 0.15054 0.0
C294 C 0.79822 0.72928 0.16236 0.0
O295 O 0.83209 0.55509 0.0569 0.0
O296 O 0.75909 0.52411 0.0854 0.0
O297 O 0.75895 0.57872 0.20125 0.0
O298 O 0.69184 0.53143 0.16748 0.0
O299 O 0.74952 0.55705 0.96678 0.0
O300 O 0.7165 0.52229 0.04971 0.0
O301 O 0.74005 0.61642 0.03848 0.0
O302 O 0.81167 0.64631 1.00222 0.0
O303 O 0.81663 0.59123 0.89089 0.0
O304 O 0.8827 0.63681 0.92806 0.0
O305 O 0.82149 0.61541 0.12576 0.0
O306 O 0.85673 0.64732 0.04211 0.0
C307 C 0.79905 0.52773 0.09 0.0
C308 C 0.71434 0.52704 0.99604 0.0
C309 C 0.70036 0.52477 0.26545 0.0
C310 C 0.70834 0.52342 0.36542 0.0
C311 C 0.6438 0.46097 0.3195 0.0
C312 C 0.65983 0.48255 0.26883 0.0
C313 C 0.66795 0.48107 0.36747 0.0
C314 C 0.72442 0.54539 0.31416 0.0
C315 C 0.71766 0.54562 0.21073 0.0
C316 C 0.67919 0.69996 0.1342 0.0
C317 C 0.63842 0.66203 0.11724 0.0
H318 H 0.7625 0.76657 0.16578 0.0
C319 C 0.7714 0.64285 1.00288 0.0
C320 C 0.85758 0.64359 0.09622 0.0
C321 C 0.87813 0.64217 0.82849 0.0
C322 C 0.87017 0.64534 0.7284 0.0
C323 C 0.94341 0.69314 0.77244 0.0
C324 C 0.92437 0.67528 0.82377 0.0
C325 C 0.91674 0.67825 0.72513 0.0
C326 C 0.85108 0.62749 0.78065 0.0
C327 C 0.85877 0.62293 0.88327 0.0
H328 H 0.61266 0.42837 0.32156 0.0
H329 H 0.6407 0.46579 0.23214 0.0
H330 H 0.65487 0.46365 0.40639 0.0
H331 H 0.75583 0.57783 0.31219 0.0
H332 H 0.9792 0.71836 0.76921 0.0
H333 H 0.94601 0.68722 0.85974 0.0
H334 H 0.93298 0.69196 0.68581 0.0
H335 H 0.81526 0.60241 0.78417 0.0
C336 C 0.12343 0.66458 0.40541 0.0
C337 C 0.16741 0.63026 0.43613 0.0
C338 C 0.16415 0.66934 0.42444 0.0
C339 C 0.12997 0.58674 0.4263 0.0
C340 C 0.08555 0.62095 0.39622 0.0
C341 C 0.08917 0.5821 0.40635 0.0
N342 N 0.12116 0.70278 0.39492 0.0
C343 C 0.08169 0.69985 0.37738 0.0
C344 C 0.04521 0.61772 0.37686 0.0
C345 C 0.04321 0.65737 0.36772 0.0
Gd346 Gd 0.2714 0.84147 0.27886 0.0
Gd347 Gd 0.1875 0.77271 0.41017 0.0
N348 N 0.20002 0.71203 0.43302 0.0
C349 C 0.20781 0.63602 0.45871 0.0
C350 C 0.23776 0.71736 0.45965 0.0
C351 C 0.24278 0.67974 0.4715 0.0
H352 H 0.26338 0.75011 0.47414 0.0
H353 H 0.27325 0.68445 0.49166 0.0
H354 H 0.19362 0.87045 0.23524 0.0
H355 H 0.07977 0.73032 0.37186 0.0
H356 H 0.18885 0.93959 0.22346 0.0
H357 H 0.21163 0.6069 0.46841 0.0
H358 H 0.13202 0.55642 0.43472 0.0
H359 H 0.37786 0.87671 0.31881 0.0
H360 H 0.01536 0.58483 0.36928 0.0
H361 H 0.01201 0.65525 0.3535 0.0
H362 H 0.3382 0.06112 0.26783 0.0
H363 H 0.06051 0.5483 0.39932 0.0
H364 H 0.45047 0.02261 0.32218 0.0
H365 H 0.44878 0.94947 0.33599 0.0
N366 N 0.34002 0.90857 0.29608 0.0
C367 C 0.34021 0.94834 0.2877 0.0
C368 C 0.37825 0.90851 0.31312 0.0
C369 C 0.4193 0.99084 0.31455 0.0
C370 C 0.41846 0.9496 0.32257 0.0
C371 C 0.37988 0.99061 0.29712 0.0
H372 H 0.40892 0.06394 0.29674 0.0
N373 N 0.26175 0.90509 0.26496 0.0
C374 C 0.29994 0.94657 0.272 0.0
C375 C 0.2582 0.98456 0.24777 0.0
C376 C 0.29891 0.98733 0.2644 0.0
C377 C 0.2227 0.9025 0.24595 0.0
C378 C 0.22012 0.942 0.23794 0.0
O379 O 0.18077 0.73105 0.33367 0.0
O380 O 0.25382 0.77054 0.30282 0.0
O381 O 0.25939 0.83282 0.18975 0.0
O382 O 0.32504 0.84829 0.22415 0.0
O383 O 0.26431 0.81123 0.42323 0.0
O384 O 0.2977 0.80972 0.34023 0.0
O385 O 0.27834 0.88112 0.35599 0.0
O386 O 0.2054 0.84466 0.38823 0.0
O387 O 0.19825 0.78456 0.49919 0.0
O388 O 0.13277 0.76675 0.46218 0.0
O389 O 0.19505 0.80282 0.26404 0.0
O390 O 0.16006 0.80178 0.3467 0.0
C391 C 0.21289 0.73521 0.29988 0.0
C392 C 0.29879 0.81423 0.39437 0.0
C393 C 0.31857 0.84101 0.12453 0.0
C394 C 0.31105 0.8369 0.02413 0.0
C395 C 0.38256 0.85399 0.06665 0.0
C396 C 0.36387 0.85098 0.11872 0.0
C397 C 0.35652 0.84737 0.01963 0.0
C398 C 0.29196 0.8333 0.07686 0.0
C399 C 0.30059 0.84096 0.18021 0.0
C400 C 0.33846 0.02951 0.27337 0.0
C401 C 0.3788 0.03114 0.2897 0.0
H402 H 0.25604 0.01507 0.24143 0.0
C403 C 0.24698 0.87946 0.38895 0.0
C404 C 0.15904 0.79584 0.29289 0.0
C405 C 0.13823 0.77902 0.56111 0.0
C406 C 0.14422 0.78718 0.66171 0.0
C407 C 0.07818 0.78062 0.61387 0.0
C408 C 0.09599 0.77716 0.56359 0.0
C409 C 0.10205 0.78583 0.66244 0.0
C410 C 0.16225 0.78396 0.6104 0.0
C411 C 0.15695 0.77679 0.50677 0.0
H412 H 0.41753 0.86185 0.06271 0.0
H413 H 0.38518 0.85701 0.15445 0.0
H414 H 0.37181 0.85004 0.97959 0.0
H415 H 0.25702 0.82573 0.08055 0.0
H416 H 0.04581 0.77961 0.61518 0.0
H417 H 0.0768 0.77353 0.52651 0.0
H418 H 0.0876 0.78945 0.70055 0.0
H419 H 0.19453 0.78475 0.6088 0.0
C420 C 0.43877 0.34361 0.6659 0.0
C421 C 0.52064 0.39069 0.65444 0.0
C422 C 0.48095 0.34747 0.65601 0.0
C423 C 0.51737 0.42994 0.66293 0.0
C424 C 0.4354 0.38294 0.67457 0.0
C425 C 0.4749 0.42607 0.67301 0.0
N426 N 0.40117 0.30142 0.66771 0.0
C427 C 0.35908 0.29611 0.67634 0.0
C428 C 0.3924 0.37769 0.68478 0.0
C429 C 0.35407 0.33409 0.6855 0.0
Gd430 Gd 0.41873 0.16327 0.77944 0.0
Gd431 Gd 0.41349 0.24017 0.65346 0.0
N432 N 0.48326 0.30875 0.64986 0.0
C433 C 0.56248 0.39314 0.6447 0.0
C434 C 0.52369 0.31098 0.63853 0.0
C435 C 0.56394 0.35312 0.63634 0.0
H436 H 0.52512 0.28048 0.63094 0.0
H437 H 0.59604 0.35473 0.62798 0.0
H438 H 0.31127 0.13891 0.81153 0.0
H439 H 0.32928 0.26254 0.67551 0.0
H440 H 0.23515 0.07159 0.81784 0.0
H441 H 0.59376 0.4257 0.64317 0.0
H442 H 0.54752 0.46344 0.66195 0.0
H443 H 0.48842 0.12478 0.74274 0.0
H444 H 0.3884 0.40705 0.69181 0.0
H445 H 0.32065 0.32973 0.69282 0.0
H446 H 0.25847 0.94652 0.77641 0.0
H447 H 0.47298 0.45668 0.6796 0.0
H448 H 0.40953 0.97934 0.73207 0.0
H449 H 0.48355 0.05079 0.72419 0.0
N450 N 0.41774 0.09537 0.75945 0.0
C451 C 0.37669 0.05657 0.76424 0.0
C452 C 0.45585 0.09381 0.74533 0.0
C453 C 0.4114 0.0117 0.73988 0.0
C454 C 0.45325 0.05198 0.73524 0.0
C455 C 0.37244 0.01361 0.75444 0.0
H456 H 0.3257 0.94077 0.75189 0.0
N457 N 0.34342 0.10213 0.78485 0.0
C458 C 0.33854 0.06001 0.77741 0.0
C459 C 0.2579 0.02472 0.79597 0.0
C460 C 0.2955 0.02025 0.78215 0.0
C461 C 0.30715 0.10637 0.80079 0.0
C462 C 0.26384 0.06792 0.80569 0.0
O463 O 0.45246 0.27784 0.73035 0.0
O464 O 0.4794 0.23354 0.76864 0.0
O465 O 0.40618 0.16466 0.86713 0.0
O466 O 0.45613 0.14733 0.8393 0.0
O467 O 0.45199 0.20235 0.64001 0.0
O468 O 0.48056 0.19397 0.72351 0.0
O469 O 0.38845 0.12881 0.69838 0.0
O470 O 0.35521 0.16889 0.66703 0.0
O471 O 0.42922 0.23461 0.56806 0.0
O472 O 0.37617 0.25006 0.58742 0.0
O473 O 0.38796 0.2083 0.79468 0.0
O474 O 0.35434 0.20747 0.7123 0.0
C475 C 0.47957 0.27225 0.76419 0.0
C476 C 0.48069 0.19534 0.66912 0.0
C477 C 0.46831 0.18336 0.92645 0.0
C478 C 0.47918 0.20414 0.02391 0.0
C479 C 0.54371 0.23659 0.96097 0.0
C480 C 0.5152 0.2118 0.91752 0.0
C481 C 0.52596 0.2326 1.01392 0.0
C482 C 0.45043 0.17998 0.9797 0.0
C483 C 0.43776 0.15561 0.88153 0.0
C484 C 0.29128 0.97738 0.77298 0.0
C485 C 0.3296 0.97408 0.75908 0.0
H486 H 0.22429 0.99503 0.79999 0.0
C487 C 0.36001 0.1329 0.66582 0.0
C488 C 0.36015 0.21624 0.76523 0.0
C489 C 0.36718 0.20669 0.50702 0.0
C490 C 0.35787 0.17662 0.41323 0.0
C491 C 0.29749 0.13828 0.48142 0.0
C492 C 0.3235 0.17112 0.52056 0.0
C493 C 0.31455 0.14068 0.42839 0.0
C494 C 0.38398 0.20957 0.45329 0.0
C495 C 0.39639 0.24 0.54885 0.0
H496 H 0.57979 0.25859 0.95368 0.0
H497 H 0.5299 0.21447 0.87717 0.0
H498 H 0.54876 0.25189 0.0471 0.0
H499 H 0.41436 0.15755 0.987 0.0
H500 H 0.26419 0.11039 0.49248 0.0
H501 H 0.30993 0.16806 0.56173 0.0
H502 H 0.29389 0.11393 0.39957 0.0
H503 H 0.41732 0.23777 0.44289 0.0
H504 H 0.39447 0.28387 0.8408 0.0
H505 H 0.2719 0.19519 0.75126 0.0
H506 H 0.35577 0.32002 0.88542 0.0
H507 H 0.23274 0.23067 0.79707 0.0
H508 H 0.17582 0.27561 0.95094 0.0
H509 H 0.21317 0.23803 0.90573 0.0
H510 H 0.31787 0.36811 0.84371 0.0
H511 H 0.27998 0.40539 0.8876 0.0
C512 C 0.3591 0.27188 0.83116 0.0
C513 C 0.33601 0.23678 0.79279 0.0
C514 C 0.33713 0.29267 0.85638 0.0
C515 C 0.29134 0.27797 0.84468 0.0
C516 C 0.268 0.24236 0.80693 0.0
C517 C 0.29033 0.22224 0.7807 0.0
C518 C 0.20674 0.29596 0.92748 0.0
C519 C 0.22511 0.34323 0.92252 0.0
C520 C 0.22792 0.27455 0.90156 0.0
C521 C 0.2683 0.30027 0.87134 0.0
C522 C 0.28684 0.34762 0.86692 0.0
C523 C 0.26511 0.36883 0.89172 0.0
H524 H 0.10554 0.30273 0.12345 0.0
H525 H 0.04379 0.37967 0.06525 0.0
H526 H 0.04527 0.26631 0.19302 0.0
H527 H 0.98397 0.34318 0.13344 0.0
H528 H 0.85973 0.24117 0.22589 0.0
H529 H 0.91838 0.26765 0.15461 0.0
H530 H 0.01847 0.28898 0.27825 0.0
H531 H 0.95877 0.26056 0.34906 0.0
C532 C 0.07903 0.31161 0.12511 0.0
C533 C 0.07921 0.34369 0.08816 0.0
C534 C 0.04466 0.2909 0.16505 0.0
C535 C 0.0096 0.30152 0.16835 0.0
C536 C 0.00992 0.33353 0.13134 0.0
C537 C 0.04437 0.35451 0.0921 0.0
C538 C 0.89391 0.24999 0.23731 0.0
C539 C 0.90461 0.24767 0.29239 0.0
C540 C 0.92771 0.26593 0.1968 0.0
C541 C 0.97314 0.28044 0.21077 0.0
C542 C 0.98371 0.27746 0.26606 0.0
C543 C 0.94972 0.26152 0.30661 0.0
H544 H 0.80778 0.08359 0.41671 0.0
H545 H 0.71569 0.11364 0.50542 0.0
H546 H 0.77396 0.00888 0.46268 0.0
H547 H 0.68116 0.03869 0.55001 0.0
H548 H 0.60017 0.87707 0.55149 0.0
H549 H 0.63617 0.95178 0.50617 0.0
H550 H 0.7659 0.98291 0.5741 0.0
H551 H 0.72951 0.90843 0.62094 0.0
C552 C 0.7803 0.0741 0.44591 0.0
C553 C 0.76436 0.10422 0.45777 0.0
C554 C 0.76114 0.03161 0.47225 0.0
C555 C 0.72506 0.01824 0.50979 0.0
C556 C 0.7089 0.04826 0.52116 0.0
C557 C 0.72876 0.09108 0.49591 0.0
C558 C 0.63641 0.89984 0.55649 0.0
C559 C 0.6622 0.88719 0.58954 0.0
C560 C 0.65688 0.94253 0.53085 0.0
C561 C 0.70373 0.97287 0.53663 0.0
C562 C 0.72974 0.95991 0.56886 0.0
C563 C 0.70901 0.91756 0.59566 0.0
H564 H 0.68435 0.80369 0.80717 0.0
H565 H 0.65837 0.68586 0.71154 0.0
H566 H 0.72086 0.78154 0.87812 0.0
H567 H 0.69643 0.66498 0.78117 0.0
H568 H 0.80686 0.67014 0.89948 0.0
H569 H 0.78064 0.70246 0.82769 0.0
H570 H 0.68432 0.70484 0.94181 0.0
H571 H 0.70926 0.67122 1.01277 0.0
C572 C 0.68695 0.77349 0.80087 0.0
C573 C 0.66813 0.74638 0.75382 0.0
C574 C 0.70785 0.76087 0.84144 0.0
C575 C 0.71155 0.72168 0.83491 0.0
C576 C 0.69435 0.69557 0.78695 0.0
C577 C 0.67239 0.70748 0.74718 0.0
C578 C 0.78051 0.67808 0.90943 0.0
C579 C 0.76 0.6679 0.96178 0.0
C580 C 0.76545 0.69642 0.86832 0.0
C581 C 0.73052 0.70613 0.87935 0.0
C582 C 0.71151 0.69795 0.93238 0.0
C583 C 0.72571 0.67853 0.97295 0.0
H584 H 0.08166 0.79525 0.32858 0.0
H585 H 0.13831 0.76272 0.18805 0.0
H586 H 0.00818 0.76247 0.28168 0.0
H587 H 0.06554 0.73174 0.14075 0.0
H588 H 0.93685 0.71599 0.05625 0.0
H589 H 0.01025 0.75746 0.10292 0.0
H590 H 0.94995 0.67964 0.25089 0.0
H591 H 0.87701 0.63702 0.20405 0.0
C592 C 0.07859 0.78135 0.28768 0.0
C593 C 0.11572 0.78078 0.26267 0.0
C594 C 0.03655 0.76272 0.26082 0.0
C595 C 0.0311 0.74437 0.20768 0.0
C596 C 0.06879 0.74587 0.18156 0.0
C597 C 0.11051 0.76365 0.20879 0.0
C598 C 0.93918 0.70755 0.09867 0.0
C599 C 0.9011 0.67241 0.12589 0.0
C600 C 0.98122 0.73144 0.12539 0.0
C601 C 0.98585 0.72162 0.18043 0.0
C602 C 0.94734 0.68812 0.20854 0.0
C603 C 0.90554 0.66365 0.18155 0.0
H604 H 0.38853 0.13835 0.56107 0.0
H605 H 0.28333 0.0501 0.67448 0.0
H606 H 0.35719 0.0791 0.49103 0.0
H607 H 0.2532 0.98907 0.606 0.0
H608 H 0.19171 0.89659 0.45613 0.0
H609 H 0.21526 0.96013 0.52026 0.0
H610 H 0.35574 0.01049 0.47484 0.0
H611 H 0.33235 0.94865 0.41046 0.0
C612 C 0.35832 0.10622 0.57062 0.0
C613 C 0.33782 0.09873 0.62252 0.0
C614 C 0.34067 0.07195 0.5309 0.0
C615 C 0.30284 0.02888 0.54287 0.0
C616 C 0.2819 0.02186 0.5949 0.0
C617 C 0.29929 0.05657 0.63434 0.0
C618 C 0.22754 0.92154 0.45967 0.0
C619 C 0.26003 0.91775 0.42768 0.0
C620 C 0.2411 0.95783 0.49662 0.0
C621 C 0.28745 0.99086 0.50254 0.0
C622 C 0.3197 0.98664 0.47056 0.0
C623 C 0.3062 0.95079 0.43362 0.0
H624 H 0.14662 0.40185 0.65356 0.0
H625 H 0.20753 0.54177 0.59916 0.0
H626 H 0.16572 0.38131 0.56495 0.0
H627 H 0.22561 0.52103 0.51077 0.0
H628 H 0.20658 0.46017 0.33935 0.0
H629 H 0.18409 0.47581 0.42864 0.0
H630 H 0.23364 0.39543 0.50892 0.0
H631 H 0.2554 0.37911 0.41953 0.0
C632 C 0.16442 0.42831 0.62306 0.0
C633 C 0.17511 0.47342 0.63351 0.0
C634 C 0.17519 0.41648 0.57219 0.0
C635 C 0.19666 0.44943 0.53055 0.0
C636 C 0.20815 0.49462 0.54146 0.0
C637 C 0.19775 0.50648 0.59225 0.0
C638 C 0.21209 0.44532 0.37596 0.0
C639 C 0.23301 0.4186 0.37232 0.0
C640 C 0.19963 0.45464 0.42717 0.0
C641 C 0.20744 0.43717 0.47594 0.0
C642 C 0.22701 0.40926 0.47216 0.0
C643 C 0.23983 0.40025 0.42098 0.0
H644 H 0.82288 0.2554 0.04974 0.0
H645 H 0.83622 0.14561 0.97988 0.0
H646 H 0.82527 0.28521 0.95747 0.0
H647 H 0.83964 0.176 0.88763 0.0
H648 H 0.792 0.21897 0.72957 0.0
H649 H 0.79119 0.18688 0.82018 0.0
H650 H 0.88033 0.32223 0.88248 0.0
H651 H 0.88183 0.35407 0.7923 0.0
C652 C 0.82608 0.23749 1.01468 0.0
C653 C 0.8293 0.1981 0.02226 0.0
C654 C 0.82793 0.25483 0.96179 0.0
C655 C 0.8328 0.23308 0.91507 0.0
C656 C 0.83554 0.19341 0.92261 0.0
C657 C 0.834 0.17624 0.97555 0.0
C658 C 0.81204 0.24178 0.76237 0.0
C659 C 0.83653 0.28918 0.75366 0.0
C660 C 0.81148 0.2234 0.81437 0.0
C661 C 0.83527 0.25202 0.85887 0.0
C662 C 0.86089 0.29922 0.84957 0.0
C663 C 0.86169 0.31749 0.79772 0.0
H664 H 0.59905 0.70651 0.31212 0.0
H665 H 0.48348 0.72351 0.2808 0.0
H666 H 0.63028 0.73856 0.22154 0.0
H667 H 0.51539 0.75787 0.19177 0.0
H668 H 0.56009 0.78437 0.01615 0.0
H669 H 0.52924 0.74381 0.10238 0.0
H670 H 0.66529 0.8044 0.16878 0.0
H671 H 0.69614 0.84178 0.08132 0.0
C672 C 0.58081 0.71791 0.28607 0.0
C673 C 0.53896 0.71265 0.30332 0.0
C674 C 0.59864 0.73636 0.23411 0.0
C675 C 0.57537 0.75073 0.19861 0.0
C676 C 0.53387 0.7462 0.21688 0.0
C677 C 0.51574 0.72702 0.26827 0.0
C678 C 0.58352 0.78819 0.04864 0.0
C679 C 0.63065 0.81703 0.04171 0.0
C680 C 0.56574 0.76549 0.09869 0.0
C681 C 0.59454 0.77137 0.14348 0.0
C682 C 0.6418 0.79869 0.13561 0.0
C683 C 0.65956 0.82082 0.0854 0.0
H684 H 0.8751 0.69485 0.6363 0.0
H685 H 0.80236 0.55846 0.70349 0.0
H686 H 0.83679 0.66669 0.54879 0.0
H687 H 0.76152 0.53085 0.61726 0.0
H688 H 0.73763 0.48413 0.43993 0.0
H689 H 0.77451 0.51443 0.52795 0.0
H690 H 0.76956 0.63764 0.49749 0.0
H691 H 0.73453 0.60766 0.40792 0.0
C692 C 0.85068 0.65885 0.63263 0.0
C693 C 0.84252 0.62889 0.67699 0.0
C694 C 0.82812 0.64276 0.58246 0.0
C695 C 0.79632 0.59627 0.57532 0.0
C696 C 0.78658 0.56668 0.62054 0.0
C697 C 0.80952 0.5827 0.67054 0.0
C698 C 0.74478 0.51782 0.45205 0.0
C699 C 0.73342 0.54364 0.41719 0.0
C700 C 0.76547 0.53508 0.50282 0.0
C701 C 0.77467 0.57839 0.52057 0.0
C702 C 0.7636 0.60442 0.48518 0.0
C703 C 0.7435 0.58733 0.43384 0.0
H704 H 0.2366 0.83585 0.68125 0.0
H705 H 0.1079 0.75045 0.76274 0.0
H706 H 0.27584 0.84648 0.76838 0.0
H707 H 0.1465 0.7641 0.85024 0.0
H708 H 0.23096 0.76224 0.99427 0.0
H709 H 0.19159 0.74836 0.9063 0.0
H710 H 0.29154 0.88397 0.85205 0.0
H711 H 0.33193 0.89622 0.93883 0.0
C712 C 0.21659 0.81924 0.71761 0.0
C713 C 0.16891 0.79246 0.7146 0.0
C714 C 0.23908 0.826 0.76804 0.0
C715 C 0.21453 0.80658 0.81705 0.0
C716 C 0.16691 0.77931 0.81372 0.0
C717 C 0.14455 0.77204 0.76331 0.0
C718 C 0.2441 0.78904 0.96352 0.0
C719 C 0.28437 0.83024 0.97322 0.0
C720 C 0.22155 0.78127 0.913 0.0
C721 C 0.2383 0.81491 0.87134 0.0
C722 C 0.27804 0.85669 0.88214 0.0
C723 C 0.30099 0.86403 0.93218 0.0
H724 H 0.44626 0.20779 0.37947 0.0
H725 H 0.30971 0.1522 0.31621 0.0
H726 H 0.47499 0.21518 0.28626 0.0
H727 H 0.33791 0.1558 0.22354 0.0
H728 H 0.40646 0.21169 0.05798 0.0
H729 H 0.37758 0.20529 0.15157 0.0
H730 H 0.48048 0.17615 0.21086 0.0
H731 H 0.51041 0.18492 0.11762 0.0
C732 C 0.42223 0.19704 0.34585 0.0
C733 C 0.37554 0.17965 0.35592 0.0
C734 C 0.4387 0.20054 0.29213 0.0
C735 C 0.40892 0.1861 0.24681 0.0
C736 C 0.36217 0.16807 0.25697 0.0
C737 C 0.3458 0.16523 0.31058 0.0
C738 C 0.42273 0.20386 0.09117 0.0
C739 C 0.46075 0.19899 0.08063 0.0
C740 C 0.40608 0.1999 0.14489 0.0
C741 C 0.42656 0.19016 0.18932 0.0
C742 C 0.46429 0.18465 0.17827 0.0
C743 C 0.48137 0.1894 0.12472 0.0
H744 H 0.20279 0.56959 0.01824 0.0
H745 H 0.16114 0.48091 0.16052 0.0
H746 H 0.20502 0.63033 0.07503 0.0
H747 H 0.16343 0.54134 0.21681 0.0
H748 H 0.13769 0.64966 0.29264 0.0
H749 H 0.12577 0.58869 0.22938 0.0
H750 H 0.25578 0.67761 0.15294 0.0
H751 H 0.26799 0.73823 0.21631 0.0
C752 C 0.19362 0.56288 0.06137 0.0
C753 C 0.18222 0.52061 0.08496 0.0
C754 C 0.1951 0.59768 0.0939 0.0
C755 C 0.18452 0.59059 0.15039 0.0
C756 C 0.1714 0.54773 0.17336 0.0
C757 C 0.17048 0.51324 0.14112 0.0
C758 C 0.16373 0.65618 0.26247 0.0
C759 C 0.20412 0.69856 0.26025 0.0
C760 C 0.15687 0.6213 0.22615 0.0
C761 C 0.18988 0.62839 0.18624 0.0
C762 C 0.22954 0.67124 0.18289 0.0
C763 C 0.23668 0.70584 0.21961 0.0
H764 H 0.64107 0.13737 0.43449 0.0
H765 H 0.73355 0.26722 0.50855 0.0
H766 H 0.58083 0.12903 0.49683 0.0
H767 H 0.67344 0.25862 0.57092 0.0
H768 H 0.56418 0.21144 0.70488 0.0
H769 H 0.62425 0.21068 0.64943 0.0
H770 H 0.53627 0.16897 0.50744 0.0
H771 H 0.47662 0.16961 0.56239 0.0
C772 C 0.6486 0.16413 0.46395 0.0
C773 C 0.69196 0.2033 0.46585 0.0
C774 C 0.61409 0.1593 0.49974 0.0
C775 C 0.62239 0.1932 0.53876 0.0
C776 C 0.6661 0.2317 0.54171 0.0
C777 C 0.70043 0.23679 0.50555 0.0
C778 C 0.55756 0.20154 0.66203 0.0
C779 C 0.51581 0.1909 0.63795 0.0
C780 C 0.59199 0.20137 0.63022 0.0
C781 C 0.585 0.18989 0.57402 0.0
C782 C 0.5426 0.17758 0.55067 0.0
C783 C 0.50853 0.17829 0.58215 0.0
H784 H 0.26738 0.53909 0.88093 0.0
H785 H 0.34942 0.49378 0.96616 0.0
H786 H 0.33224 0.58903 0.8237 0.0
H787 H 0.41478 0.54459 0.90881 0.0
H788 H 0.52819 0.68653 0.83681 0.0
H789 H 0.46584 0.63005 0.8935 0.0
H790 H 0.3799 0.58145 0.74997 0.0
H791 H 0.44199 0.63791 0.69319 0.0
C792 C 0.2993 0.53992 0.88785 0.0
C793 C 0.30318 0.51268 0.92882 0.0
C794 C 0.33642 0.56833 0.85457 0.0
C795 C 0.37855 0.57058 0.86154 0.0
C796 C 0.38276 0.54373 0.90272 0.0
C797 C 0.34532 0.51473 0.93569 0.0
C798 C 0.49615 0.66346 0.81718 0.0
C799 C 0.49 0.66703 0.76048 0.0
C800 C 0.46053 0.63097 0.84968 0.0
C801 C 0.41787 0.60163 0.82628 0.0
C802 C 0.41225 0.60403 0.76926 0.0
C803 C 0.44796 0.63619 0.73668 0.0
H804 H 0.79414 0.35967 0.36681 0.0
H805 H 0.83745 0.31424 0.22497 0.0
H806 H 0.79592 0.42097 0.31146 0.0
H807 H 0.83932 0.37542 0.16998 0.0
H808 H 0.87229 0.51453 0.09977 0.0
H809 H 0.87987 0.46157 0.16123 0.0
H810 H 0.74808 0.42118 0.23161 0.0
H811 H 0.74002 0.47324 0.16963 0.0
C812 C 0.80464 0.36314 0.32411 0.0
C813 C 0.81531 0.33191 0.30017 0.0
C814 C 0.8054 0.39804 0.29237 0.0
C815 C 0.81757 0.40286 0.23633 0.0
C816 C 0.8301 0.37279 0.2131 0.0
C817 C 0.82872 0.33757 0.24456 0.0
C818 C 0.84489 0.49429 0.12816 0.0
C819 C 0.80526 0.49765 0.12907 0.0
C820 C 0.84929 0.46402 0.16346 0.0
C821 C 0.81454 0.43719 0.20121 0.0
C822 C 0.77561 0.44167 0.20333 0.0
C823 C 0.7709 0.47132 0.16749 0.0
H824 H 0.36034 0.78928 0.36083 0.0
H825 H 0.32567 0.84691 0.49827 0.0
H826 H 0.41896 0.78671 0.41644 0.0
H827 H 0.38366 0.8437 0.55401 0.0
H828 H 0.51628 0.8624 0.62662 0.0
H829 H 0.46603 0.87423 0.56556 0.0
H830 H 0.41755 0.74072 0.49567 0.0
H831 H 0.46774 0.72893 0.55625 0.0
C832 C 0.36564 0.80197 0.40263 0.0
C833 C 0.3381 0.8179 0.42531 0.0
C834 C 0.39894 0.80012 0.43466 0.0
C835 C 0.40566 0.81455 0.48987 0.0
C836 C 0.37957 0.83254 0.51159 0.0
C837 C 0.34615 0.83415 0.47971 0.0
C838 C 0.49484 0.83553 0.59835 0.0
C839 C 0.49573 0.79451 0.59682 0.0
C840 C 0.46602 0.84232 0.56334 0.0
C841 C 0.43783 0.80847 0.52562 0.0
C842 C 0.43924 0.76775 0.52367 0.0
C843 C 0.46774 0.76082 0.55887 0.0
H844 H 0.65561 0.43921 0.02709 0.0
H845 H 0.68349 0.53569 0.89561 0.0
H846 H 0.5968 0.3787 0.97099 0.0
H847 H 0.62433 0.47506 0.83962 0.0
H848 H 0.48399 0.35471 0.77962 0.0
H849 H 0.5376 0.418 0.8373 0.0
H850 H 0.60326 0.34163 0.88208 0.0
H851 H 0.55129 0.27946 0.82287 0.0
C852 C 0.64855 0.44768 0.98667 0.0
C853 C 0.67429 0.49212 0.9656 0.0
C854 C 0.61517 0.41297 0.9544 0.0
C855 C 0.60633 0.42214 0.90079 0.0
C856 C 0.63036 0.46707 0.88084 0.0
C857 C 0.66423 0.50168 0.91281 0.0
C858 C 0.51017 0.3516 0.80126 0.0
C859 C 0.51296 0.31166 0.79711 0.0
C860 C 0.54071 0.38779 0.83445 0.0
C861 C 0.57412 0.38441 0.86481 0.0
C862 C 0.57723 0.34479 0.86009 0.0
C863 C 0.54732 0.30908 0.82625 0.0
loop_
_geom_bond_atom_site_label_1
_geom_bond_atom_site_label_2
_geom_bond_distance
_geom_bond_site_symmetry_2
_ccdc_geom_bond_type
C0 C2 1.422 . S
C0 C4 1.415 . S
C0 N6 1.369 . S
C1 C2 1.421 . S
C1 C3 1.417 . S
C1 C13 1.422 . S
C2 C0 1.422 . S
C2 C1 1.421 . S
C2 N12 1.359 . S
C3 C1 1.417 . S
C3 C5 1.329 . S
C3 H22 0.930 . S
C4 C0 1.415 . S
C4 C5 1.437 . S
C4 C8 1.413 . S
C5 C3 1.329 . S
C5 C4 1.437 . S
C5 H27 0.929 . S
N6 C0 1.369 . S
N6 C7 1.338 . S
N6 Gd11 2.622 . S
C7 N6 1.338 . S
C7 C9 1.378 . S
C7 H19 0.929 . S
C8 C4 1.413 . S
C8 C9 1.348 . S
C8 H24 0.931 . S
C9 C7 1.378 . S
C9 C8 1.348 . S
C9 H25 0.930 . S
Gd10 N30 2.622 . S
Gd10 N37 2.570 . S
Gd10 O44 2.353 . S
Gd10 O45 2.468 . S
Gd10 O46 2.427 . S
Gd10 O48 2.378 1_556 S
Gd10 O49 2.386 1_556 S
Gd10 O53 2.307 . S
Gd10 C63 2.805 . S
Gd11 N6 2.622 . S
Gd11 N12 2.570 . S
Gd11 O43 2.386 1_554 S
Gd11 O47 2.307 . S
Gd11 O50 2.353 . S
Gd11 O51 2.468 . S
Gd11 O52 2.427 . S
Gd11 O54 2.388 . S
Gd11 C75 2.805 . S
N12 C2 1.359 . S
N12 Gd11 2.570 . S
N12 C14 1.343 . S
C13 C1 1.422 . S
C13 C15 1.321 . S
C13 H21 0.931 . S
C14 N12 1.343 . S
C14 C15 1.390 . S
C14 H16 0.931 . S
C15 C13 1.321 . S
C15 C14 1.390 . S
C15 H17 0.930 . S
H16 C14 0.931 . S
H17 C15 0.930 . S
H18 C41 0.931 . S
H19 C7 0.929 . S
H20 C42 0.930 . S
H21 C13 0.931 . S
H22 C3 0.930 . S
H23 C32 0.929 . S
H24 C8 0.931 . S
H25 C9 0.930 . S
H26 C64 0.930 . S
H27 C5 0.929 . S
H28 C33 0.931 1_655 S
H29 C34 0.930 . S
N30 Gd10 2.622 . S
N30 C31 1.369 . S
N30 C32 1.338 . S
C31 N30 1.369 . S
C31 C35 1.415 . S
C31 C38 1.422 . S
C32 H23 0.929 . S
C32 N30 1.338 . S
C32 C34 1.378 . S
C33 H28 0.931 1_455 S
C33 C34 1.348 . S
C33 C35 1.413 . S
C34 H29 0.930 . S
C34 C32 1.378 . S
C34 C33 1.348 . S
C35 C31 1.415 . S
C35 C33 1.413 . S
C35 C65 1.437 1_455 S
H36 C65 0.929 . S
N37 Gd10 2.570 . S
N37 C38 1.359 . S
N37 C41 1.343 . S
C38 C31 1.422 . S
C38 N37 1.359 . S
C38 C40 1.421 . S
C39 C40 1.422 . S
C39 C42 1.321 . S
C39 H66 0.931 1_455 S
C40 C38 1.421 . S
C40 C39 1.422 . S
C40 C64 1.417 1_455 S
C41 H18 0.931 . S
C41 N37 1.343 . S
C41 C42 1.390 . S
C42 H20 0.930 . S
C42 C39 1.321 . S
C42 C41 1.390 . S
O43 Gd11 2.386 1_556 S
O43 C55 1.265 . S
O44 Gd10 2.353 . S
O44 C55 1.242 . S
O45 Gd10 2.468 . S
O45 C63 1.263 . S
O46 Gd10 2.427 . S
O46 C63 1.252 . S
O47 Gd11 2.307 . S
O47 C56 1.261 . S
O48 Gd10 2.378 1_554 S
O48 C56 1.265 . S
O49 Gd10 2.386 1_554 S
O49 C67 1.265 . S
O50 Gd11 2.353 . S
O50 C67 1.242 . S
O51 Gd11 2.468 . S
O51 C75 1.263 . S
O52 Gd11 2.427 . S
O52 C75 1.252 . S
O53 Gd10 2.307 . S
O53 C68 1.261 . S
O54 Gd11 2.388 . S
O54 C68 1.252 1_554 S
C55 O43 1.265 . S
C55 O44 1.242 . S
C56 O47 1.261 . S
C56 O48 1.265 . S
C57 C60 1.394 . S
C57 C62 1.370 . S
C57 C63 1.500 . S
C58 C61 1.383 . S
C58 C62 1.395 . S
C59 C60 1.396 . S
C59 C61 1.365 . S
C59 H76 0.929 . S
C60 C57 1.394 . S
C60 C59 1.396 . S
C60 H77 0.930 . S
C61 C58 1.383 . S
C61 C59 1.365 . S
C61 H78 0.931 . S
C62 C57 1.370 . S
C62 C58 1.395 . S
C62 H79 0.930 . S
C63 Gd10 2.805 . S
C63 O45 1.263 . S
C63 O46 1.252 . S
C63 C57 1.500 . S
C64 H26 0.930 . S
C64 C40 1.417 1_655 S
C64 C65 1.329 . S
C65 C35 1.437 1_655 S
C65 H36 0.929 . S
C65 C64 1.329 . S
H66 C39 0.931 1_655 S
C67 O49 1.265 . S
C67 O50 1.242 . S
C68 O53 1.261 . S
C68 O54 1.252 1_556 S
C69 C72 1.394 . S
C69 C74 1.370 . S
C69 C75 1.500 . S
C70 C73 1.383 . S
C70 C74 1.395 . S
C71 C72 1.396 . S
C71 C73 1.365 . S
C71 H80 0.929 . S
C72 C69 1.394 . S
C72 C71 1.396 . S
C72 H81 0.930 . S
C73 C70 1.383 . S
C73 C71 1.365 . S
C73 H82 0.931 . S
C74 C69 1.370 . S
C74 C70 1.395 . S
C74 H83 0.930 . S
C75 Gd11 2.805 . S
C75 O51 1.263 . S
C75 O52 1.252 . S
C75 C69 1.500 . S
H76 C59 0.929 . S
H77 C60 0.930 . S
H78 C61 0.931 . S
H79 C62 0.930 . S
H80 C71 0.929 . S
H81 C72 0.930 . S
H82 C73 0.931 . S
H83 C74 0.930 . S
C84 C86 1.422 . S
C84 C88 1.415 . S
C84 N90 1.369 . S
C85 C86 1.421 . S
C85 C87 1.417 . S
C85 C97 1.422 . S
C86 C84 1.422 . S
C86 C85 1.421 . S
C86 N96 1.359 . S
C87 C85 1.417 . S
C87 C89 1.329 . S
C87 H106 0.930 . S
C88 C84 1.415 . S
C88 C89 1.437 . S
C88 C92 1.413 . S
C89 C87 1.329 . S
C89 C88 1.437 . S
C89 H111 0.929 . S
N90 C84 1.369 . S
N90 C91 1.338 . S
N90 Gd95 2.622 . S
C91 N90 1.338 . S
C91 C93 1.378 . S
C91 H103 0.929 . S
C92 C88 1.413 . S
C92 C93 1.348 . S
C92 H108 0.931 1_545 S
C93 C91 1.378 . S
C93 C92 1.348 . S
C93 H109 0.930 1_545 S
Gd94 N114 2.622 . S
Gd94 N121 2.570 . S
Gd94 O128 2.353 . S
Gd94 O129 2.468 . S
Gd94 O130 2.427 . S
Gd94 O132 2.388 . S
Gd94 O133 2.386 . S
Gd94 O137 2.307 . S
Gd94 C147 2.805 . S
Gd95 N90 2.622 . S
Gd95 N96 2.570 . S
Gd95 O127 2.386 . S
Gd95 O131 2.307 . S
Gd95 O134 2.353 . S
Gd95 O135 2.468 . S
Gd95 O136 2.427 . S
Gd95 O138 2.388 . S
Gd95 C159 2.805 . S
N96 C86 1.359 . S
N96 Gd95 2.570 . S
N96 C98 1.343 . S
C97 C85 1.422 . S
C97 C99 1.321 . S
C97 H105 0.931 . S
C98 N96 1.343 . S
C98 C99 1.390 . S
C98 H100 0.931 . S
C99 C97 1.321 . S
C99 C98 1.390 . S
C99 H101 0.930 . S
H100 C98 0.931 . S
H101 C99 0.930 . S
H102 C125 0.931 . S
H103 C91 0.929 . S
H104 C126 0.930 . S
H105 C97 0.931 . S
H106 C87 0.930 . S
H107 C116 0.929 . S
H108 C92 0.931 1_565 S
H109 C93 0.930 1_565 S
H110 C148 0.930 . S
H111 C89 0.929 . S
H112 C117 0.931 1_455 S
H113 C118 0.930 . S
N114 Gd94 2.622 . S
N114 C115 1.369 . S
N114 C116 1.338 . S
C115 N114 1.369 . S
C115 C119 1.415 . S
C115 C122 1.422 . S
C116 H107 0.929 . S
C116 N114 1.338 . S
C116 C118 1.378 . S
C117 H112 0.931 1_655 S
C117 C118 1.348 . S
C117 C119 1.413 . S
C118 H113 0.930 . S
C118 C116 1.378 . S
C118 C117 1.348 . S
C119 C115 1.415 . S
C119 C117 1.413 . S
C119 C149 1.437 1_655 S
H120 C149 0.929 . S
N121 Gd94 2.570 . S
N121 C122 1.359 . S
N121 C125 1.343 . S
C122 C115 1.422 . S
C122 N121 1.359 . S
C122 C124 1.421 . S
C123 C124 1.422 . S
C123 C126 1.321 . S
C123 H150 0.931 1_655 S
C124 C122 1.421 . S
C124 C123 1.422 . S
C124 C148 1.417 1_655 S
C125 H102 0.931 . S
C125 N121 1.343 . S
C125 C126 1.390 . S
C126 H104 0.930 . S
C126 C123 1.321 . S
C126 C125 1.390 . S
O127 Gd95 2.386 . S
O127 C139 1.265 . S
O128 Gd94 2.353 . S
O128 C139 1.242 . S
O129 Gd94 2.468 . S
O129 C147 1.263 . S
O130 Gd94 2.427 . S
O130 C147 1.252 . S
O131 Gd95 2.307 . S
O131 C140 1.261 . S
O132 Gd94 2.388 . S
O132 C140 1.252 . S
O133 Gd94 2.386 . S
O133 C151 1.265 . S
O134 Gd95 2.353 . S
O134 C151 1.242 . S
O135 Gd95 2.468 . S
O135 C159 1.263 . S
O136 Gd95 2.427 . S
O136 C159 1.252 . S
O137 Gd94 2.307 . S
O137 C152 1.261 . S
O138 Gd95 2.388 . S
O138 C152 1.252 . S
C139 O127 1.265 . S
C139 O128 1.242 . S
C140 O131 1.261 . S
C140 O132 1.252 . S
C141 C144 1.394 . S
C141 C146 1.370 . S
C141 C147 1.500 . S
C142 C145 1.383 . S
C142 C146 1.395 . S
C143 C144 1.396 . S
C143 C145 1.365 . S
C143 H160 0.929 . S
C144 C141 1.394 . S
C144 C143 1.396 . S
C144 H161 0.930 . S
C145 C142 1.383 . S
C145 C143 1.365 . S
C145 H162 0.931 . S
C146 C141 1.370 . S
C146 C142 1.395 . S
C146 H163 0.930 . S
C147 Gd94 2.805 . S
C147 O129 1.263 . S
C147 O130 1.252 . S
C147 C141 1.500 . S
C148 H110 0.930 . S
C148 C124 1.417 1_455 S
C148 C149 1.329 . S
C149 C119 1.437 1_455 S
C149 H120 0.929 . S
C149 C148 1.329 . S
H150 C123 0.931 1_455 S
C151 O133 1.265 . S
C151 O134 1.242 . S
C152 O137 1.261 . S
C152 O138 1.252 . S
C153 C156 1.394 . S
C153 C158 1.370 . S
C153 C159 1.500 . S
C154 C157 1.383 . S
C154 C158 1.395 . S
C155 C156 1.396 . S
C155 C157 1.365 . S
C155 H164 0.929 . S
C156 C153 1.394 . S
C156 C155 1.396 . S
C156 H165 0.930 . S
C157 C154 1.383 . S
C157 C155 1.365 . S
C157 H166 0.931 1_554 S
C158 C153 1.370 . S
C158 C154 1.395 . S
C158 H167 0.930 . S
C159 Gd95 2.805 . S
C159 O135 1.263 . S
C159 O136 1.252 . S
C159 C153 1.500 . S
H160 C143 0.929 . S
H161 C144 0.930 . S
H162 C145 0.931 . S
H163 C146 0.930 . S
H164 C155 0.929 . S
H165 C156 0.930 . S
H166 C157 0.931 1_556 S
H167 C158 0.930 . S
C168 C170 1.422 . S
C168 C172 1.415 . S
C168 N174 1.369 . S
C169 C170 1.421 . S
C169 C171 1.417 . S
C169 C181 1.422 . S
C170 C168 1.422 . S
C170 C169 1.421 . S
C170 N180 1.359 . S
C171 C169 1.417 . S
C171 C173 1.329 . S
C171 H190 0.930 . S
C172 C168 1.415 . S
C172 C173 1.437 . S
C172 C176 1.413 . S
C173 C171 1.329 . S
C173 C172 1.437 . S
C173 H195 0.929 . S
N174 C168 1.369 . S
N174 C175 1.338 . S
N174 Gd179 2.622 . S
C175 N174 1.338 . S
C175 C177 1.378 . S
C175 H187 0.929 . S
C176 C172 1.413 . S
C176 C177 1.348 . S
C176 H192 0.931 1_565 S
C177 C175 1.378 . S
C177 C176 1.348 . S
C177 H193 0.930 1_565 S
Gd178 N198 2.622 . S
Gd178 N205 2.570 . S
Gd178 O212 2.353 . S
Gd178 O213 2.468 . S
Gd178 O214 2.427 . S
Gd178 O216 2.388 . S
Gd178 O217 2.386 . S
Gd178 O221 2.307 . S
Gd178 C231 2.805 . S
Gd179 N174 2.622 . S
Gd179 N180 2.570 . S
Gd179 O211 2.386 . S
Gd179 O215 2.307 . S
Gd179 O218 2.353 . S
Gd179 O219 2.468 . S
Gd179 O220 2.427 . S
Gd179 O222 2.388 . S
Gd179 C243 2.805 . S
N180 C170 1.359 . S
N180 Gd179 2.570 . S
N180 C182 1.343 . S
C181 C169 1.422 . S
C181 C183 1.321 . S
C181 H189 0.931 . S
C182 N180 1.343 . S
C182 C183 1.390 . S
C182 H184 0.931 . S
C183 C181 1.321 . S
C183 C182 1.390 . S
C183 H185 0.930 . S
H184 C182 0.931 . S
H185 C183 0.930 . S
H186 C209 0.931 . S
H187 C175 0.929 . S
H188 C210 0.930 . S
H189 C181 0.931 . S
H190 C171 0.930 . S
H191 C200 0.929 . S
H192 C176 0.931 1_545 S
H193 C177 0.930 1_545 S
H194 C232 0.930 . S
H195 C173 0.929 . S
H196 C201 0.931 . S
H197 C202 0.930 . S
N198 Gd178 2.622 . S
N198 C199 1.369 . S
N198 C200 1.338 . S
C199 N198 1.369 . S
C199 C203 1.415 . S
C199 C206 1.422 . S
C200 H191 0.929 . S
C200 N198 1.338 . S
C200 C202 1.378 . S
C201 H196 0.931 . S
C201 C202 1.348 . S
C201 C203 1.413 . S
C202 H197 0.930 . S
C202 C200 1.378 . S
C202 C201 1.348 . S
C203 C199 1.415 . S
C203 C201 1.413 . S
C203 C233 1.437 . S
H204 C233 0.929 . S
N205 Gd178 2.570 . S
N205 C206 1.359 . S
N205 C209 1.343 . S
C206 C199 1.422 . S
C206 N205 1.359 . S
C206 C208 1.421 . S
C207 C208 1.422 . S
C207 C210 1.321 . S
C207 H234 0.931 . S
C208 C206 1.421 . S
C208 C207 1.422 . S
C208 C232 1.417 . S
C209 H186 0.931 . S
C209 N205 1.343 . S
C209 C210 1.390 . S
C210 H188 0.930 . S
C210 C207 1.321 . S
C210 C209 1.390 . S
O211 Gd179 2.386 . S
O211 C223 1.265 . S
O212 Gd178 2.353 . S
O212 C223 1.242 . S
O213 Gd178 2.468 . S
O213 C231 1.263 . S
O214 Gd178 2.427 . S
O214 C231 1.252 . S
O215 Gd179 2.307 . S
O215 C224 1.261 . S
O216 Gd178 2.388 . S
O216 C224 1.252 . S
O217 Gd178 2.386 . S
O217 C235 1.265 . S
O218 Gd179 2.353 . S
O218 C235 1.242 . S
O219 Gd179 2.468 . S
O219 C243 1.263 . S
O220 Gd179 2.427 . S
O220 C243 1.252 . S
O221 Gd178 2.307 . S
O221 C236 1.261 . S
O222 Gd179 2.388 . S
O222 C236 1.252 . S
C223 O211 1.265 . S
C223 O212 1.242 . S
C224 O215 1.261 . S
C224 O216 1.252 . S
C225 C228 1.394 . S
C225 C230 1.370 . S
C225 C231 1.500 . S
C226 C229 1.383 . S
C226 C230 1.395 . S
C227 C228 1.396 . S
C227 C229 1.365 . S
C227 H244 0.929 . S
C228 C225 1.394 . S
C228 C227 1.396 . S
C228 H245 0.930 . S
C229 C226 1.383 . S
C229 C227 1.365 . S
C229 H246 0.931 . S
C230 C225 1.370 . S
C230 C226 1.395 . S
C230 H247 0.930 . S
C231 Gd178 2.805 . S
C231 O213 1.263 . S
C231 O214 1.252 . S
C231 C225 1.500 . S
C232 H194 0.930 . S
C232 C208 1.417 . S
C232 C233 1.329 . S
C233 C203 1.437 . S
C233 H204 0.929 . S
C233 C232 1.329 . S
H234 C207 0.931 . S
C235 O217 1.265 . S
C235 O218 1.242 . S
C236 O221 1.261 . S
C236 O222 1.252 . S
C237 C240 1.394 . S
C237 C242 1.370 . S
C237 C243 1.500 . S
C238 C241 1.383 1_556 S
C238 C242 1.395 . S
C239 C240 1.396 . S
C239 C241 1.365 1_556 S
C239 H248 0.929 . S
C240 C237 1.394 . S
C240 C239 1.396 . S
C240 H249 0.930 . S
C241 C238 1.383 1_554 S
C241 C239 1.365 1_554 S
C241 H250 0.931 . S
C242 C237 1.370 . S
C242 C238 1.395 . S
C242 H251 0.930 . S
C243 Gd179 2.805 . S
C243 O219 1.263 . S
C243 O220 1.252 . S
C243 C237 1.500 . S
H244 C227 0.929 . S
H245 C228 0.930 . S
H246 C229 0.931 . S
H247 C230 0.930 . S
H248 C239 0.929 . S
H249 C240 0.930 . S
H250 C241 0.931 . S
H251 C242 0.930 . S
C252 C254 1.422 . S
C252 C256 1.415 . S
C252 N258 1.369 . S
C253 C254 1.421 . S
C253 C255 1.417 . S
C253 C265 1.422 . S
C254 C252 1.422 . S
C254 C253 1.421 . S
C254 N264 1.359 . S
C255 C253 1.417 . S
C255 C257 1.329 . S
C255 H274 0.930 . S
C256 C252 1.415 . S
C256 C257 1.437 . S
C256 C260 1.413 . S
C257 C255 1.329 . S
C257 C256 1.437 . S
C257 H279 0.929 . S
N258 C252 1.369 . S
N258 C259 1.338 . S
N258 Gd263 2.622 . S
C259 N258 1.338 . S
C259 C261 1.378 . S
C259 H271 0.929 . S
C260 C256 1.413 . S
C260 C261 1.348 . S
C260 H276 0.931 1_655 S
C261 C259 1.378 . S
C261 C260 1.348 . S
C261 H277 0.930 1_655 S
Gd262 N282 2.622 . S
Gd262 N289 2.570 . S
Gd262 O296 2.353 . S
Gd262 O297 2.468 . S
Gd262 O298 2.427 . S
Gd262 O300 2.388 . S
Gd262 O301 2.386 . S
Gd262 O305 2.307 . S
Gd262 C315 2.805 . S
Gd263 N258 2.622 . S
Gd263 N264 2.570 . S
Gd263 O295 2.386 1_556 S
Gd263 O299 2.307 . S
Gd263 O302 2.353 . S
Gd263 O303 2.468 . S
Gd263 O304 2.427 . S
Gd263 O306 2.388 1_556 S
Gd263 C327 2.805 . S
N264 C254 1.359 . S
N264 Gd263 2.570 . S
N264 C266 1.343 . S
C265 C253 1.422 . S
C265 C267 1.321 . S
C265 H273 0.931 . S
C266 N264 1.343 . S
C266 C267 1.390 . S
C266 H268 0.931 . S
C267 C265 1.321 . S
C267 C266 1.390 . S
C267 H269 0.930 . S
H268 C266 0.931 . S
H269 C267 0.930 . S
H270 C293 0.931 . S
H271 C259 0.929 . S
H272 C294 0.930 . S
H273 C265 0.931 . S
H274 C255 0.930 . S
H275 C284 0.929 . S
H276 C260 0.931 1_455 S
H277 C261 0.930 1_455 S
H278 C316 0.930 . S
H279 C257 0.929 . S
H280 C285 0.931 . S
H281 C286 0.930 . S
N282 Gd262 2.622 . S
N282 C283 1.369 . S
N282 C284 1.338 . S
C283 N282 1.369 . S
C283 C287 1.415 . S
C283 C290 1.422 . S
C284 H275 0.929 . S
C284 N282 1.338 . S
C284 C286 1.378 . S
C285 H280 0.931 . S
C285 C286 1.348 . S
C285 C287 1.413 . S
C286 H281 0.930 . S
C286 C284 1.378 . S
C286 C285 1.348 . S
C287 C283 1.415 . S
C287 C285 1.413 . S
C287 C317 1.437 . S
H288 C317 0.929 . S
N289 Gd262 2.570 . S
N289 C290 1.359 . S
N289 C293 1.343 . S
C290 C283 1.422 . S
C290 N289 1.359 . S
C290 C292 1.421 . S
C291 C292 1.422 . S
C291 C294 1.321 . S
C291 H318 0.931 . S
C292 C290 1.421 . S
C292 C291 1.422 . S
C292 C316 1.417 . S
C293 H270 0.931 . S
C293 N289 1.343 . S
C293 C294 1.390 . S
C294 H272 0.930 . S
C294 C291 1.321 . S
C294 C293 1.390 . S
O295 Gd263 2.386 1_554 S
O295 C307 1.265 . S
O296 Gd262 2.353 . S
O296 C307 1.242 . S
O297 Gd262 2.468 . S
O297 C315 1.263 . S
O298 Gd262 2.427 . S
O298 C315 1.252 . S
O299 Gd263 2.307 . S
O299 C308 1.261 . S
O300 Gd262 2.388 . S
O300 C308 1.252 1_554 S
O301 Gd262 2.386 . S
O301 C319 1.265 1_554 S
O302 Gd263 2.353 . S
O302 C319 1.242 . S
O303 Gd263 2.468 . S
O303 C327 1.263 . S
O304 Gd263 2.427 . S
O304 C327 1.252 . S
O305 Gd262 2.307 . S
O305 C320 1.261 . S
O306 Gd263 2.388 1_554 S
O306 C320 1.252 . S
C307 O295 1.265 . S
C307 O296 1.242 . S
C308 O299 1.261 . S
C308 O300 1.252 1_556 S
C309 C312 1.394 . S
C309 C314 1.370 . S
C309 C315 1.500 . S
C310 C313 1.383 . S
C310 C314 1.395 . S
C311 C312 1.396 . S
C311 C313 1.365 . S
C311 H328 0.929 . S
C312 C309 1.394 . S
C312 C311 1.396 . S
C312 H329 0.930 . S
C313 C310 1.383 . S
C313 C311 1.365 . S
C313 H330 0.931 . S
C314 C309 1.370 . S
C314 C310 1.395 . S
C314 H331 0.930 . S
C315 Gd262 2.805 . S
C315 O297 1.263 . S
C315 O298 1.252 . S
C315 C309 1.500 . S
C316 H278 0.930 . S
C316 C292 1.417 . S
C316 C317 1.329 . S
C317 C287 1.437 . S
C317 H288 0.929 . S
C317 C316 1.329 . S
H318 C291 0.931 . S
C319 O301 1.265 1_556 S
C319 O302 1.242 . S
C320 O305 1.261 . S
C320 O306 1.252 . S
C321 C324 1.394 . S
C321 C326 1.370 . S
C321 C327 1.500 . S
C322 C325 1.383 . S
C322 C326 1.395 . S
C323 C324 1.396 . S
C323 C325 1.365 . S
C323 H332 0.929 . S
C324 C321 1.394 . S
C324 C323 1.396 . S
C324 H333 0.930 . S
C325 C322 1.383 . S
C325 C323 1.365 . S
C325 H334 0.931 . S
C326 C321 1.370 . S
C326 C322 1.395 . S
C326 H335 0.930 . S
C327 Gd263 2.805 . S
C327 O303 1.263 . S
C327 O304 1.252 . S
C327 C321 1.500 . S
H328 C311 0.929 . S
H329 C312 0.930 . S
H330 C313 0.931 . S
H331 C314 0.930 . S
H332 C323 0.929 . S
H333 C324 0.930 . S
H334 C325 0.931 . S
H335 C326 0.930 . S
C336 C338 1.422 . S
C336 C340 1.415 . S
C336 N342 1.369 . S
C337 C338 1.421 . S
C337 C339 1.417 . S
C337 C349 1.422 . S
C338 C336 1.422 . S
C338 C337 1.421 . S
C338 N348 1.359 . S
C339 C337 1.417 . S
C339 C341 1.329 . S
C339 H358 0.930 . S
C340 C336 1.415 . S
C340 C341 1.437 . S
C340 C344 1.413 . S
C341 C339 1.329 . S
C341 C340 1.437 . S
C341 H363 0.929 . S
N342 C336 1.369 . S
N342 C343 1.338 . S
N342 Gd347 2.622 . S
C343 N342 1.338 . S
C343 C345 1.378 . S
C343 H355 0.929 . S
C344 C340 1.413 . S
C344 C345 1.348 . S
C344 H360 0.931 1_455 S
C345 C343 1.378 . S
C345 C344 1.348 . S
C345 H361 0.930 1_455 S
Gd346 N366 2.622 . S
Gd346 N373 2.570 . S
Gd346 O380 2.353 . S
Gd346 O381 2.468 . S
Gd346 O382 2.427 . S
Gd346 O384 2.388 . S
Gd346 O385 2.386 . S
Gd346 O389 2.307 . S
Gd346 C399 2.805 . S
Gd347 N342 2.622 . S
Gd347 N348 2.570 . S
Gd347 O379 2.386 . S
Gd347 O383 2.307 . S
Gd347 O386 2.353 . S
Gd347 O387 2.468 . S
Gd347 O388 2.427 . S
Gd347 O390 2.388 . S
Gd347 C411 2.805 . S
N348 C338 1.359 . S
N348 Gd347 2.570 . S
N348 C350 1.343 . S
C349 C337 1.422 . S
C349 C351 1.321 . S
C349 H357 0.931 . S
C350 N348 1.343 . S
C350 C351 1.390 . S
C350 H352 0.931 . S
C351 C349 1.321 . S
C351 C350 1.390 . S
C351 H353 0.930 . S
H352 C350 0.931 . S
H353 C351 0.930 . S
H354 C377 0.931 . S
H355 C343 0.929 . S
H356 C378 0.930 . S
H357 C349 0.931 . S
H358 C339 0.930 . S
H359 C368 0.929 . S
H360 C344 0.931 1_655 S
H361 C345 0.930 1_655 S
H362 C400 0.930 . S
H363 C341 0.929 . S
H364 C369 0.931 1_545 S
H365 C370 0.930 . S
N366 Gd346 2.622 . S
N366 C367 1.369 . S
N366 C368 1.338 . S
C367 N366 1.369 . S
C367 C371 1.415 . S
C367 C374 1.422 . S
C368 H359 0.929 . S
C368 N366 1.338 . S
C368 C370 1.378 . S
C369 H364 0.931 1_565 S
C369 C370 1.348 . S
C369 C371 1.413 . S
C370 H365 0.930 . S
C370 C368 1.378 . S
C370 C369 1.348 . S
C371 C367 1.415 . S
C371 C369 1.413 . S
C371 C401 1.437 1_565 S
H372 C401 0.929 . S
N373 Gd346 2.570 . S
N373 C374 1.359 . S
N373 C377 1.343 . S
C374 C367 1.422 . S
C374 N373 1.359 . S
C374 C376 1.421 . S
C375 C376 1.422 . S
C375 C378 1.321 . S
C375 H402 0.931 1_565 S
C376 C374 1.421 . S
C376 C375 1.422 . S
C376 C400 1.417 1_565 S
C377 H354 0.931 . S
C377 N373 1.343 . S
C377 C378 1.390 . S
C378 H356 0.930 . S
C378 C375 1.321 . S
C378 C377 1.390 . S
O379 Gd347 2.386 . S
O379 C391 1.265 . S
O380 Gd346 2.353 . S
O380 C391 1.242 . S
O381 Gd346 2.468 . S
O381 C399 1.263 . S
O382 Gd346 2.427 . S
O382 C399 1.252 . S
O383 Gd347 2.307 . S
O383 C392 1.261 . S
O384 Gd346 2.388 . S
O384 C392 1.252 . S
O385 Gd346 2.386 . S
O385 C403 1.265 . S
O386 Gd347 2.353 . S
O386 C403 1.242 . S
O387 Gd347 2.468 . S
O387 C411 1.263 . S
O388 Gd347 2.427 . S
O388 C411 1.252 . S
O389 Gd346 2.307 . S
O389 C404 1.261 . S
O390 Gd347 2.388 . S
O390 C404 1.252 . S
C391 O379 1.265 . S
C391 O380 1.242 . S
C392 O383 1.261 . S
C392 O384 1.252 . S
C393 C396 1.394 . S
C393 C398 1.370 . S
C393 C399 1.500 . S
C394 C397 1.385 . S
C394 C398 1.395 . S
C395 C396 1.396 . S
C395 C397 1.369 . S
C395 H412 0.929 . S
C396 C393 1.394 . S
C396 C395 1.396 . S
C396 H413 0.930 . S
C397 C394 1.385 . S
C397 C395 1.369 . S
C397 H414 0.926 1_554 S
C398 C393 1.370 . S
C398 C394 1.395 . S
C398 H415 0.930 . S
C399 Gd346 2.805 . S
C399 O381 1.263 . S
C399 O382 1.252 . S
C399 C393 1.500 . S
C400 H362 0.930 . S
C400 C376 1.417 1_545 S
C400 C401 1.329 . S
C401 C371 1.437 1_545 S
C401 H372 0.929 . S
C401 C400 1.329 . S
H402 C375 0.931 1_545 S
C403 O385 1.265 . S
C403 O386 1.242 . S
C404 O389 1.261 . S
C404 O390 1.252 . S
C405 C408 1.394 . S
C405 C410 1.370 . S
C405 C411 1.500 . S
C406 C409 1.383 . S
C406 C410 1.395 . S
C407 C408 1.396 . S
C407 C409 1.365 . S
C407 H416 0.929 . S
C408 C405 1.394 . S
C408 C407 1.396 . S
C408 H417 0.930 . S
C409 C406 1.383 . S
C409 C407 1.365 . S
C409 H418 0.931 . S
C410 C405 1.370 . S
C410 C406 1.395 . S
C410 H419 0.930 . S
C411 Gd347 2.805 . S
C411 O387 1.263 . S
C411 O388 1.252 . S
C411 C405 1.500 . S
H412 C395 0.929 . S
H413 C396 0.930 . S
H414 C397 0.926 1_556 S
H415 C398 0.930 . S
H416 C407 0.929 . S
H417 C408 0.930 . S
H418 C409 0.931 . S
H419 C410 0.930 . S
C420 C422 1.422 . S
C420 C424 1.415 . S
C420 N426 1.369 . S
C421 C422 1.421 . S
C421 C423 1.417 . S
C421 C433 1.422 . S
C422 C420 1.422 . S
C422 C421 1.421 . S
C422 N432 1.359 . S
C423 C421 1.417 . S
C423 C425 1.329 . S
C423 H442 0.930 . S
C424 C420 1.415 . S
C424 C425 1.437 . S
C424 C428 1.413 . S
C425 C423 1.329 . S
C425 C424 1.437 . S
C425 H447 0.929 . S
N426 C420 1.369 . S
N426 C427 1.338 . S
N426 Gd431 2.622 . S
C427 N426 1.338 . S
C427 C429 1.378 . S
C427 H439 0.929 . S
C428 C424 1.413 . S
C428 C429 1.348 . S
C428 H444 0.931 . S
C429 C427 1.378 . S
C429 C428 1.348 . S
C429 H445 0.930 . S
Gd430 N450 2.622 . S
Gd430 N457 2.570 . S
Gd430 O464 2.353 . S
Gd430 O465 2.468 . S
Gd430 O466 2.427 . S
Gd430 O468 2.388 . S
Gd430 O469 2.386 . S
Gd430 O473 2.307 . S
Gd430 C483 2.805 . S
Gd431 N426 2.622 . S
Gd431 N432 2.570 . S
Gd431 O463 2.386 . S
Gd431 O467 2.307 . S
Gd431 O470 2.353 . S
Gd431 O471 2.468 . S
Gd431 O472 2.427 . S
Gd431 O474 2.388 . S
Gd431 C495 2.805 . S
N432 C422 1.359 . S
N432 Gd431 2.570 . S
N432 C434 1.343 . S
C433 C421 1.422 . S
C433 C435 1.321 . S
C433 H441 0.931 . S
C434 N432 1.343 . S
C434 C435 1.390 . S
C434 H436 0.931 . S
C435 C433 1.321 . S
C435 C434 1.390 . S
C435 H437 0.930 . S
H436 C434 0.931 . S
H437 C435 0.930 . S
H438 C461 0.931 . S
H439 C427 0.929 . S
H440 C462 0.930 . S
H441 C433 0.931 . S
H442 C423 0.930 . S
H443 C452 0.929 . S
H444 C428 0.931 . S
H445 C429 0.930 . S
H446 C484 0.930 . S
H447 C425 0.929 . S
H448 C453 0.931 1_565 S
H449 C454 0.930 . S
N450 Gd430 2.622 . S
N450 C451 1.369 . S
N450 C452 1.338 . S
C451 N450 1.369 . S
C451 C455 1.415 . S
C451 C458 1.422 . S
C452 H443 0.929 . S
C452 N450 1.338 . S
C452 C454 1.378 . S
C453 H448 0.931 1_545 S
C453 C454 1.348 . S
C453 C455 1.413 . S
C454 H449 0.930 . S
C454 C452 1.378 . S
C454 C453 1.348 . S
C455 C451 1.415 . S
C455 C453 1.413 . S
C455 C485 1.437 1_545 S
H456 C485 0.929 . S
N457 Gd430 2.570 . S
N457 C458 1.359 . S
N457 C461 1.343 . S
C458 C451 1.422 . S
C458 N457 1.359 . S
C458 C460 1.421 . S
C459 C460 1.422 . S
C459 C462 1.321 . S
C459 H486 0.931 1_545 S
C460 C458 1.421 . S
C460 C459 1.422 . S
C460 C484 1.417 1_545 S
C461 H438 0.931 . S
C461 N457 1.343 . S
C461 C462 1.390 . S
C462 H440 0.930 . S
C462 C459 1.321 . S
C462 C461 1.390 . S
O463 Gd431 2.386 . S
O463 C475 1.265 . S
O464 Gd430 2.353 . S
O464 C475 1.242 . S
O465 Gd430 2.468 . S
O465 C483 1.263 . S
O466 Gd430 2.427 . S
O466 C483 1.252 . S
O467 Gd431 2.307 . S
O467 C476 1.261 . S
O468 Gd430 2.388 . S
O468 C476 1.252 . S
O469 Gd430 2.386 . S
O469 C487 1.265 . S
O470 Gd431 2.353 . S
O470 C487 1.242 . S
O471 Gd431 2.468 . S
O471 C495 1.263 . S
O472 Gd431 2.427 . S
O472 C495 1.252 . S
O473 Gd430 2.307 . S
O473 C488 1.261 . S
O474 Gd431 2.388 . S
O474 C488 1.252 . S
C475 O463 1.265 . S
C475 O464 1.242 . S
C476 O467 1.261 . S
C476 O468 1.252 . S
C477 C480 1.394 . S
C477 C482 1.370 . S
C477 C483 1.500 . S
C478 C481 1.383 . S
C478 C482 1.395 1_554 S
C479 C480 1.396 . S
C479 C481 1.365 1_556 S
C479 H496 0.926 1_556 S
C480 C477 1.394 . S
C480 C479 1.396 . S
C480 H497 0.930 . S
C481 C478 1.383 . S
C481 C479 1.365 1_554 S
C481 H498 0.931 . S
C482 C477 1.370 . S
C482 C478 1.395 1_556 S
C482 H499 0.930 . S
C483 Gd430 2.805 . S
C483 O465 1.263 . S
C483 O466 1.252 . S
C483 C477 1.500 . S
C484 H446 0.930 . S
C484 C460 1.417 1_565 S
C484 C485 1.329 . S
C485 C455 1.437 1_565 S
C485 H456 0.929 . S
C485 C484 1.329 . S
H486 C459 0.931 1_565 S
C487 O469 1.265 . S
C487 O470 1.242 . S
C488 O473 1.261 . S
C488 O474 1.252 . S
C489 C492 1.394 . S
C489 C494 1.370 . S
C489 C495 1.500 . S
C490 C493 1.383 . S
C490 C494 1.395 . S
C491 C492 1.396 . S
C491 C493 1.365 . S
C491 H500 0.929 . S
C492 C489 1.394 . S
C492 C491 1.396 . S
C492 H501 0.930 . S
C493 C490 1.383 . S
C493 C491 1.365 . S
C493 H502 0.931 . S
C494 C489 1.370 . S
C494 C490 1.395 . S
C494 H503 0.930 . S
C495 Gd431 2.805 . S
C495 O471 1.263 . S
C495 O472 1.252 . S
C495 C489 1.500 . S
H496 C479 0.926 1_554 S
H497 C480 0.930 . S
H498 C481 0.931 . S
H499 C482 0.930 . S
H500 C491 0.929 . S
H501 C492 0.930 . S
H502 C493 0.931 . S
H503 C494 0.930 . S
H504 C512 0.950 . S
H505 C517 0.950 . S
H506 C514 0.950 . S
H507 C516 0.950 . S
H508 C518 0.950 . S
H509 C520 0.950 . S
H510 C522 0.950 . S
H511 C523 0.950 . S
C512 H504 0.950 . S
C512 C513 1.386 . S
C512 C514 1.391 . S
C513 C512 1.386 . S
C513 C517 1.393 . S
C514 H506 0.950 . S
C514 C512 1.391 . S
C514 C515 1.400 . S
C515 C514 1.400 . S
C515 C516 1.398 . S
C515 C521 1.491 . S
C516 H507 0.950 . S
C516 C515 1.398 . S
C516 C517 1.391 . S
C517 H505 0.950 . S
C517 C513 1.393 . S
C517 C516 1.391 . S
C518 H508 0.950 . S
C518 C519 1.386 . S
C518 C520 1.391 . S
C519 C518 1.386 . S
C519 C523 1.393 . S
C520 H509 0.950 . S
C520 C518 1.391 . S
C520 C521 1.400 . S
C521 C515 1.491 . S
C521 C520 1.400 . S
C521 C522 1.398 . S
C522 H510 0.950 . S
C522 C521 1.398 . S
C522 C523 1.391 . S
C523 H511 0.950 . S
C523 C519 1.393 . S
C523 C522 1.391 . S
H524 C532 0.950 . S
H525 C537 0.950 . S
H526 C534 0.950 . S
H527 C536 0.950 1_655 S
H528 C538 0.950 . S
H529 C540 0.950 . S
H530 C542 0.950 1_455 S
H531 C543 0.950 . S
C532 H524 0.950 . S
C532 C533 1.386 . S
C532 C534 1.391 . S
C533 C532 1.386 . S
C533 C537 1.393 . S
C534 H526 0.950 . S
C534 C532 1.391 . S
C534 C535 1.400 . S
C535 C534 1.400 . S
C535 C536 1.398 . S
C535 C541 1.491 1_455 S
C536 H527 0.950 1_455 S
C536 C535 1.398 . S
C536 C537 1.391 . S
C537 H525 0.950 . S
C537 C533 1.393 . S
C537 C536 1.391 . S
C538 H528 0.950 . S
C538 C539 1.386 . S
C538 C540 1.391 . S
C539 C538 1.386 . S
C539 C543 1.393 . S
C540 H529 0.950 . S
C540 C538 1.391 . S
C540 C541 1.400 . S
C541 C535 1.491 1_655 S
C541 C540 1.400 . S
C541 C542 1.398 . S
C542 H530 0.950 1_655 S
C542 C541 1.398 . S
C542 C543 1.391 . S
C543 H531 0.950 . S
C543 C539 1.393 . S
C543 C542 1.391 . S
H544 C552 0.950 . S
H545 C557 0.950 . S
H546 C554 0.950 . S
H547 C556 0.950 . S
H548 C558 0.950 . S
H549 C560 0.950 . S
H550 C562 0.950 . S
H551 C563 0.950 . S
C552 H544 0.950 . S
C552 C553 1.386 . S
C552 C554 1.391 . S
C553 C552 1.386 . S
C553 C557 1.393 . S
C554 H546 0.950 . S
C554 C552 1.391 . S
C554 C555 1.400 . S
C555 C554 1.400 . S
C555 C556 1.398 . S
C555 C561 1.491 1_545 S
C556 H547 0.950 . S
C556 C555 1.398 . S
C556 C557 1.391 . S
C557 H545 0.950 . S
C557 C553 1.393 . S
C557 C556 1.391 . S
C558 H548 0.950 . S
C558 C559 1.386 . S
C558 C560 1.391 . S
C559 C558 1.386 . S
C559 C563 1.393 . S
C560 H549 0.950 . S
C560 C558 1.391 . S
C560 C561 1.400 . S
C561 C555 1.491 1_565 S
C561 C560 1.400 . S
C561 C562 1.398 . S
C562 H550 0.950 . S
C562 C561 1.398 . S
C562 C563 1.391 . S
C563 H551 0.950 . S
C563 C559 1.393 . S
C563 C562 1.391 . S
H564 C572 0.950 . S
H565 C577 0.950 . S
H566 C574 0.950 . S
H567 C576 0.950 . S
H568 C578 0.950 . S
H569 C580 0.950 . S
H570 C582 0.950 . S
H571 C583 0.950 . S
C572 H564 0.950 . S
C572 C573 1.386 . S
C572 C574 1.391 . S
C573 C572 1.386 . S
C573 C577 1.393 . S
C574 H566 0.950 . S
C574 C572 1.391 . S
C574 C575 1.400 . S
C575 C574 1.400 . S
C575 C576 1.398 . S
C575 C581 1.491 . S
C576 H567 0.950 . S
C576 C575 1.398 . S
C576 C577 1.391 . S
C577 H565 0.950 . S
C577 C573 1.393 . S
C577 C576 1.391 . S
C578 H568 0.950 . S
C578 C579 1.386 . S
C578 C580 1.391 . S
C579 C578 1.386 . S
C579 C583 1.393 . S
C580 H569 0.950 . S
C580 C578 1.391 . S
C580 C581 1.400 . S
C581 C575 1.491 . S
C581 C580 1.400 . S
C581 C582 1.398 . S
C582 H570 0.950 . S
C582 C581 1.398 . S
C582 C583 1.391 . S
C583 H571 0.950 . S
C583 C579 1.393 . S
C583 C582 1.391 . S
H584 C592 0.950 . S
H585 C597 0.950 . S
H586 C594 0.950 1_655 S
H587 C596 0.950 . S
H588 C598 0.950 . S
H589 C600 0.950 1_455 S
H590 C602 0.950 . S
H591 C603 0.950 . S
C592 H584 0.950 . S
C592 C593 1.386 . S
C592 C594 1.391 . S
C593 C592 1.386 . S
C593 C597 1.393 . S
C594 H586 0.950 1_455 S
C594 C592 1.391 . S
C594 C595 1.400 . S
C595 C594 1.400 . S
C595 C596 1.398 . S
C595 C601 1.491 1_455 S
C596 H587 0.950 . S
C596 C595 1.398 . S
C596 C597 1.391 . S
C597 H585 0.950 . S
C597 C593 1.393 . S
C597 C596 1.391 . S
C598 H588 0.950 . S
C598 C599 1.386 . S
C598 C600 1.391 . S
C599 C598 1.386 . S
C599 C603 1.393 . S
C600 H589 0.950 1_655 S
C600 C598 1.391 . S
C600 C601 1.400 . S
C601 C595 1.491 1_655 S
C601 C600 1.400 . S
C601 C602 1.398 . S
C602 H590 0.950 . S
C602 C601 1.398 . S
C602 C603 1.391 . S
C603 H591 0.950 . S
C603 C599 1.393 . S
C603 C602 1.391 . S
H604 C612 0.950 . S
H605 C617 0.950 . S
H606 C614 0.950 . S
H607 C616 0.950 1_565 S
H608 C618 0.950 . S
H609 C620 0.950 . S
H610 C622 0.950 1_545 S
H611 C623 0.950 . S
C612 H604 0.950 . S
C612 C613 1.386 . S
C612 C614 1.391 . S
C613 C612 1.386 . S
C613 C617 1.393 . S
C614 H606 0.950 . S
C614 C612 1.391 . S
C614 C615 1.400 . S
C615 C614 1.400 . S
C615 C616 1.398 . S
C615 C621 1.491 1_545 S
C616 H607 0.950 1_545 S
C616 C615 1.398 . S
C616 C617 1.391 . S
C617 H605 0.950 . S
C617 C613 1.393 . S
C617 C616 1.391 . S
C618 H608 0.950 . S
C618 C619 1.386 . S
C618 C620 1.391 . S
C619 C618 1.386 . S
C619 C623 1.393 . S
C620 H609 0.950 . S
C620 C618 1.391 . S
C620 C621 1.400 . S
C621 C615 1.491 1_565 S
C621 C620 1.400 . S
C621 C622 1.398 . S
C622 H610 0.950 1_565 S
C622 C621 1.398 . S
C622 C623 1.391 . S
C623 H611 0.950 . S
C623 C619 1.393 . S
C623 C622 1.391 . S
H624 C632 0.950 . S
H625 C637 0.950 . S
H626 C634 0.950 . S
H627 C636 0.950 . S
H628 C638 0.950 . S
H629 C640 0.950 . S
H630 C642 0.950 . S
H631 C643 0.950 . S
C632 H624 0.950 . S
C632 C633 1.386 . S
C632 C634 1.391 . S
C633 C632 1.386 . S
C633 C637 1.393 . S
C634 H626 0.950 . S
C634 C632 1.391 . S
C634 C635 1.400 . S
C635 C634 1.400 . S
C635 C636 1.398 . S
C635 C641 1.491 . S
C636 H627 0.950 . S
C636 C635 1.398 . S
C636 C637 1.391 . S
C637 H625 0.950 . S
C637 C633 1.393 . S
C637 C636 1.391 . S
C638 H628 0.950 . S
C638 C639 1.386 . S
C638 C640 1.391 . S
C639 C638 1.386 . S
C639 C643 1.393 . S
C640 H629 0.950 . S
C640 C638 1.391 . S
C640 C641 1.400 . S
C641 C635 1.491 . S
C641 C640 1.400 . S
C641 C642 1.398 . S
C642 H630 0.950 . S
C642 C641 1.398 . S
C642 C643 1.391 . S
C643 H631 0.950 . S
C643 C639 1.393 . S
C643 C642 1.391 . S
H644 C652 0.950 . S
H645 C657 0.950 . S
H646 C654 0.950 . S
H647 C656 0.950 . S
H648 C658 0.950 . S
H649 C660 0.950 . S
H650 C662 0.950 . S
H651 C663 0.950 . S
C652 H644 0.950 . S
C652 C653 1.386 . S
C652 C654 1.391 . S
C653 C652 1.386 . S
C653 C657 1.393 . S
C654 H646 0.950 . S
C654 C652 1.391 . S
C654 C655 1.400 . S
C655 C654 1.400 . S
C655 C656 1.398 . S
C655 C661 1.491 . S
C656 H647 0.950 . S
C656 C655 1.398 . S
C656 C657 1.391 . S
C657 H645 0.950 . S
C657 C653 1.393 . S
C657 C656 1.391 . S
C658 H648 0.950 . S
C658 C659 1.386 . S
C658 C660 1.391 . S
C659 C658 1.386 . S
C659 C663 1.393 . S
C660 H649 0.950 . S
C660 C658 1.391 . S
C660 C661 1.400 . S
C661 C655 1.491 . S
C661 C660 1.400 . S
C661 C662 1.398 . S
C662 H650 0.950 . S
C662 C661 1.398 . S
C662 C663 1.391 . S
C663 H651 0.950 . S
C663 C659 1.393 . S
C663 C662 1.391 . S
H664 C672 0.950 . S
H665 C677 0.950 . S
H666 C674 0.950 . S
H667 C676 0.950 . S
H668 C678 0.950 . S
H669 C680 0.950 . S
H670 C682 0.950 . S
H671 C683 0.950 . S
C672 H664 0.950 . S
C672 C673 1.386 . S
C672 C674 1.391 . S
C673 C672 1.386 . S
C673 C677 1.393 . S
C674 H666 0.950 . S
C674 C672 1.391 . S
C674 C675 1.400 . S
C675 C674 1.400 . S
C675 C676 1.398 . S
C675 C681 1.491 . S
C676 H667 0.950 . S
C676 C675 1.398 . S
C676 C677 1.391 . S
C677 H665 0.950 . S
C677 C673 1.393 . S
C677 C676 1.391 . S
C678 H668 0.950 . S
C678 C679 1.386 . S
C678 C680 1.391 . S
C679 C678 1.386 . S
C679 C683 1.393 . S
C680 H669 0.950 . S
C680 C678 1.391 . S
C680 C681 1.400 . S
C681 C675 1.491 . S
C681 C680 1.400 . S
C681 C682 1.398 . S
C682 H670 0.950 . S
C682 C681 1.398 . S
C682 C683 1.391 . S
C683 H671 0.950 . S
C683 C679 1.393 . S
C683 C682 1.391 . S
H684 C692 0.950 . S
H685 C697 0.950 . S
H686 C694 0.950 . S
H687 C696 0.950 . S
H688 C698 0.950 . S
H689 C700 0.950 . S
H690 C702 0.950 . S
H691 C703 0.950 . S
C692 H684 0.950 . S
C692 C693 1.386 . S
C692 C694 1.391 . S
C693 C692 1.386 . S
C693 C697 1.393 . S
C694 H686 0.950 . S
C694 C692 1.391 . S
C694 C695 1.400 . S
C695 C694 1.400 . S
C695 C696 1.398 . S
C695 C701 1.491 . S
C696 H687 0.950 . S
C696 C695 1.398 . S
C696 C697 1.391 . S
C697 H685 0.950 . S
C697 C693 1.393 . S
C697 C696 1.391 . S
C698 H688 0.950 . S
C698 C699 1.386 . S
C698 C700 1.391 . S
C699 C698 1.386 . S
C699 C703 1.393 . S
C700 H689 0.950 . S
C700 C698 1.391 . S
C700 C701 1.400 . S
C701 C695 1.491 . S
C701 C700 1.400 . S
C701 C702 1.398 . S
C702 H690 0.950 . S
C702 C701 1.398 . S
C702 C703 1.391 . S
C703 H691 0.950 . S
C703 C699 1.393 . S
C703 C702 1.391 . S
H704 C712 0.950 . S
H705 C717 0.950 . S
H706 C714 0.950 . S
H707 C716 0.950 . S
H708 C718 0.950 . S
H709 C720 0.950 . S
H710 C722 0.950 . S
H711 C723 0.950 . S
C712 H704 0.950 . S
C712 C713 1.386 . S
C712 C714 1.391 . S
C713 C712 1.386 . S
C713 C717 1.393 . S
C714 H706 0.950 . S
C714 C712 1.391 . S
C714 C715 1.400 . S
C715 C714 1.400 . S
C715 C716 1.398 . S
C715 C721 1.491 . S
C716 H707 0.950 . S
C716 C715 1.398 . S
C716 C717 1.391 . S
C717 H705 0.950 . S
C717 C713 1.393 . S
C717 C716 1.391 . S
C718 H708 0.950 . S
C718 C719 1.386 . S
C718 C720 1.391 . S
C719 C718 1.386 . S
C719 C723 1.393 . S
C720 H709 0.950 . S
C720 C718 1.391 . S
C720 C721 1.400 . S
C721 C715 1.491 . S
C721 C720 1.400 . S
C721 C722 1.398 . S
C722 H710 0.950 . S
C722 C721 1.398 . S
C722 C723 1.391 . S
C723 H711 0.950 . S
C723 C719 1.393 . S
C723 C722 1.391 . S
H724 C732 0.950 . S
H725 C737 0.950 . S
H726 C734 0.950 . S
H727 C736 0.950 . S
H728 C738 0.950 . S
H729 C740 0.950 . S
H730 C742 0.950 . S
H731 C743 0.950 . S
C732 H724 0.950 . S
C732 C733 1.386 . S
C732 C734 1.391 . S
C733 C732 1.386 . S
C733 C737 1.393 . S
C734 H726 0.950 . S
C734 C732 1.391 . S
C734 C735 1.400 . S
C735 C734 1.400 . S
C735 C736 1.398 . S
C735 C741 1.491 . S
C736 H727 0.950 . S
C736 C735 1.398 . S
C736 C737 1.391 . S
C737 H725 0.950 . S
C737 C733 1.393 . S
C737 C736 1.391 . S
C738 H728 0.950 . S
C738 C739 1.386 . S
C738 C740 1.391 . S
C739 C738 1.386 . S
C739 C743 1.393 . S
C740 H729 0.950 . S
C740 C738 1.391 . S
C740 C741 1.400 . S
C741 C735 1.491 . S
C741 C740 1.400 . S
C741 C742 1.398 . S
C742 H730 0.950 . S
C742 C741 1.398 . S
C742 C743 1.391 . S
C743 H731 0.950 . S
C743 C739 1.393 . S
C743 C742 1.391 . S
H744 C752 0.950 . S
H745 C757 0.950 . S
H746 C754 0.950 . S
H747 C756 0.950 . S
H748 C758 0.950 . S
H749 C760 0.950 . S
H750 C762 0.950 . S
H751 C763 0.950 . S
C752 H744 0.950 . S
C752 C753 1.386 . S
C752 C754 1.391 . S
C753 C752 1.386 . S
C753 C757 1.393 . S
C754 H746 0.950 . S
C754 C752 1.391 . S
C754 C755 1.400 . S
C755 C754 1.400 . S
C755 C756 1.398 . S
C755 C761 1.491 . S
C756 H747 0.950 . S
C756 C755 1.398 . S
C756 C757 1.391 . S
C757 H745 0.950 . S
C757 C753 1.393 . S
C757 C756 1.391 . S
C758 H748 0.950 . S
C758 C759 1.386 . S
C758 C760 1.391 . S
C759 C758 1.386 . S
C759 C763 1.393 . S
C760 H749 0.950 . S
C760 C758 1.391 . S
C760 C761 1.400 . S
C761 C755 1.491 . S
C761 C760 1.400 . S
C761 C762 1.398 . S
C762 H750 0.950 . S
C762 C761 1.398 . S
C762 C763 1.391 . S
C763 H751 0.950 . S
C763 C759 1.393 . S
C763 C762 1.391 . S
H764 C772 0.950 . S
H765 C777 0.950 . S
H766 C774 0.950 . S
H767 C776 0.950 . S
H768 C778 0.950 . S
H769 C780 0.950 . S
H770 C782 0.950 . S
H771 C783 0.950 . S
C772 H764 0.950 . S
C772 C773 1.386 . S
C772 C774 1.391 . S
C773 C772 1.386 . S
C773 C777 1.393 . S
C774 H766 0.950 . S
C774 C772 1.391 . S
C774 C775 1.400 . S
C775 C774 1.400 . S
C775 C776 1.398 . S
C775 C781 1.491 . S
C776 H767 0.950 . S
C776 C775 1.398 . S
C776 C777 1.391 . S
C777 H765 0.950 . S
C777 C773 1.393 . S
C777 C776 1.391 . S
C778 H768 0.950 . S
C778 C779 1.386 . S
C778 C780 1.391 . S
C779 C778 1.386 . S
C779 C783 1.393 . S
C780 H769 0.950 . S
C780 C778 1.391 . S
C780 C781 1.400 . S
C781 C775 1.491 . S
C781 C780 1.400 . S
C781 C782 1.398 . S
C782 H770 0.950 . S
C782 C781 1.398 . S
C782 C783 1.391 . S
C783 H771 0.950 . S
C783 C779 1.393 . S
C783 C782 1.391 . S
H784 C792 0.950 . S
H785 C797 0.950 . S
H786 C794 0.950 . S
H787 C796 0.950 . S
H788 C798 0.950 . S
H789 C800 0.950 . S
H790 C802 0.950 . S
H791 C803 0.950 . S
C792 H784 0.950 . S
C792 C793 1.386 . S
C792 C794 1.391 . S
C793 C792 1.386 . S
C793 C797 1.393 . S
C794 H786 0.950 . S
C794 C792 1.391 . S
C794 C795 1.400 . S
C795 C794 1.400 . S
C795 C796 1.398 . S
C795 C801 1.491 . S
C796 H787 0.950 . S
C796 C795 1.398 . S
C796 C797 1.391 . S
C797 H785 0.950 . S
C797 C793 1.393 . S
C797 C796 1.391 . S
C798 H788 0.950 . S
C798 C799 1.386 . S
C798 C800 1.391 . S
C799 C798 1.386 . S
C799 C803 1.393 . S
C800 H789 0.950 . S
C800 C798 1.391 . S
C800 C801 1.400 . S
C801 C795 1.491 . S
C801 C800 1.400 . S
C801 C802 1.398 . S
C802 H790 0.950 . S
C802 C801 1.398 . S
C802 C803 1.391 . S
C803 H791 0.950 . S
C803 C799 1.393 . S
C803 C802 1.391 . S
H804 C812 0.950 . S
H805 C817 0.950 . S
H806 C814 0.950 . S
H807 C816 0.950 . S
H808 C818 0.950 . S
H809 C820 0.950 . S
H810 C822 0.950 . S
H811 C823 0.950 . S
C812 H804 0.950 . S
C812 C813 1.386 . S
C812 C814 1.391 . S
C813 C812 1.386 . S
C813 C817 1.393 . S
C814 H806 0.950 . S
C814 C812 1.391 . S
C814 C815 1.400 . S
C815 C814 1.400 . S
C815 C816 1.398 . S
C815 C821 1.491 . S
C816 H807 0.950 . S
C816 C815 1.398 . S
C816 C817 1.391 . S
C817 H805 0.950 . S
C817 C813 1.393 . S
C817 C816 1.391 . S
C818 H808 0.950 . S
C818 C819 1.386 . S
C818 C820 1.391 . S
C819 C818 1.386 . S
C819 C823 1.393 . S
C820 H809 0.950 . S
C820 C818 1.391 . S
C820 C821 1.400 . S
C821 C815 1.491 . S
C821 C820 1.400 . S
C821 C822 1.398 . S
C822 H810 0.950 . S
C822 C821 1.398 . S
C822 C823 1.391 . S
C823 H811 0.950 . S
C823 C819 1.393 . S
C823 C822 1.391 . S
H824 C832 0.950 . S
H825 C837 0.950 . S
H826 C834 0.950 . S
H827 C836 0.950 . S
H828 C838 0.950 . S
H829 C840 0.950 . S
H830 C842 0.950 . S
H831 C843 0.950 . S
C832 H824 0.950 . S
C832 C833 1.386 . S
C832 C834 1.391 . S
C833 C832 1.386 . S
C833 C837 1.393 . S
C834 H826 0.950 . S
C834 C832 1.391 . S
C834 C835 1.400 . S
C835 C834 1.400 . S
C835 C836 1.398 . S
C835 C841 1.491 . S
C836 H827 0.950 . S
C836 C835 1.398 . S
C836 C837 1.391 . S
C837 H825 0.950 . S
C837 C833 1.393 . S
C837 C836 1.391 . S
C838 H828 0.950 . S
C838 C839 1.386 . S
C838 C840 1.391 . S
C839 C838 1.386 . S
C839 C843 1.393 . S
C840 H829 0.950 . S
C840 C838 1.391 . S
C840 C841 1.400 . S
C841 C835 1.491 . S
C841 C840 1.400 . S
C841 C842 1.398 . S
C842 H830 0.950 . S
C842 C841 1.398 . S
C842 C843 1.391 . S
C843 H831 0.950 . S
C843 C839 1.393 . S
C843 C842 1.391 . S
H844 C852 0.950 . S
H845 C857 0.950 . S
H846 C854 0.950 . S
H847 C856 0.950 . S
H848 C858 0.950 . S
H849 C860 0.950 . S
H850 C862 0.950 . S
H851 C863 0.950 . S
C852 H844 0.950 . S
C852 C853 1.386 . S
C852 C854 1.391 . S
C853 C852 1.386 . S
C853 C857 1.393 . S
C854 H846 0.950 . S
C854 C852 1.391 . S
C854 C855 1.400 . S
C855 C854 1.400 . S
C855 C856 1.398 . S
C855 C861 1.491 . S
C856 H847 0.950 . S
C856 C855 1.398 . S
C856 C857 1.391 . S
C857 H845 0.950 . S
C857 C853 1.393 . S
C857 C856 1.391 . S
C858 H848 0.950 . S
C858 C859 1.386 . S
C858 C860 1.391 . S
C859 C858 1.386 . S
C859 C863 1.393 . S
C860 H849 0.950 . S
C860 C858 1.391 . S
C860 C861 1.400 . S
C861 C855 1.491 . S
C861 C860 1.400 . S
C861 C862 1.398 . S
C862 H850 0.950 . S
C862 C861 1.398 . S
C862 C863 1.391 . S
C863 H851 0.950 . S
C863 C859 1.393 . S
C863 C862 1.391 . S
C513 C488 1.357 . S
C519 C68 1.363 . S
C533 C67 1.309 . S
C539 C151 1.334 . S
C553 C152 1.370 . S
C559 C236 1.366 . S
C573 C235 1.309 . S
C579 C319 1.331 . S
C593 C404 1.368 . S
C599 C320 1.358 . S
C613 C487 1.318 . S
C619 C403 1.336 . S
C633 C58 1.104 . S
C639 C70 1.104 . S
C653 C154 1.106 1_556 S
C659 C142 1.106 . S
C673 C226 1.091 . S
C679 C238 1.091 1_554 S
C693 C322 1.098 . S
C699 C310 1.098 . S
C713 C406 1.097 . S
C719 C394 1.097 1_556 S
C733 C490 1.107 . S
C739 C478 1.107 . S
C753 C56 1.624 . S
C759 C391 1.627 . S
C773 C139 1.625 . S
C779 C476 1.618 . S
C793 C55 1.631 . S
C799 C224 1.618 . S
C813 C140 1.626 . S
C819 C307 1.625 . S
C833 C392 1.625 . S
C839 C223 1.626 . S
C853 C308 1.626 . S
C859 C475 1.625 . S
