# Generated by pormake.
# Topology sml, (6)-cn, num edge types: 1
# Building blocks:
#     Node 0, Type 0, BuildingBlock: FUNLAD_clean_sbu_0, # of connection points: 6
#     Node 1, Type 0, BuildingBlock: FUNLAD_clean_sbu_0, # of connection points: 6
#     Node 2, Type 0, BuildingBlock: FUNLAD_clean_sbu_0, # of connection points: 6
#     Node 3, Type 0, BuildingBlock: FUNLAD_clean_sbu_0, # of connection points: 6
#     Node 4, Type 0, BuildingBlock: FUNLAD_clean_sbu_0, # of connection points: 6
#     Node 5, Type 0, BuildingBlock: FUNLAD_clean_sbu_0, # of connection points: 6
#     Edge 6, Type (0, 0), BuildingBlock: FUNLAD_clean_linker_0, # of connection points: 2
#     Edge 7, Type (0, 0), BuildingBlock: FUNLAD_clean_linker_0, # of connection points: 2
#     Edge 8, Type (0, 0), BuildingBlock: FUNLAD_clean_linker_0, # of connection points: 2
#     Edge 9, Type (0, 0), BuildingBlock: FUNLAD_clean_linker_0, # of connection points: 2
#     Edge 10, Type (0, 0), BuildingBlock: FUNLAD_clean_linker_0, # of connection points: 2
#     Edge 11, Type (0, 0), BuildingBlock: FUNLAD_clean_linker_0, # of connection points: 2
#     Edge 12, Type (0, 0), BuildingBlock: FUNLAD_clean_linker_0, # of connection points: 2
#     Edge 13, Type (0, 0), BuildingBlock: FUNLAD_clean_linker_0, # of connection points: 2
#     Edge 14, Type (0, 0), BuildingBlock: FUNLAD_clean_linker_0, # of connection points: 2
#     Edge 15, Type (0, 0), BuildingBlock: FUNLAD_clean_linker_0, # of connection points: 2
#     Edge 16, Type (0, 0), BuildingBlock: FUNLAD_clean_linker_0, # of connection points: 2
#     Edge 17, Type (0, 0), BuildingBlock: FUNLAD_clean_linker_0, # of connection points: 2
#     Edge 18, Type (0, 0), BuildingBlock: FUNLAD_clean_linker_0, # of connection points: 2
#     Edge 19, Type (0, 0), BuildingBlock: FUNLAD_clean_linker_0, # of connection points: 2
#     Edge 20, Type (0, 0), BuildingBlock: FUNLAD_clean_linker_0, # of connection points: 2
#     Edge 21, Type (0, 0), BuildingBlock: FUNLAD_clean_linker_0, # of connection points: 2
#     Edge 22, Type (0, 0), BuildingBlock: FUNLAD_clean_linker_0, # of connection points: 2
#     Edge 23, Type (0, 0), BuildingBlock: FUNLAD_clean_linker_0, # of connection points: 2
# Relax obj value: 0.372
# Max RMSD: 0.209
# Mean RMSD: 0.209
data_MOF--net-sml--node1-FUNLAD_clean_sbu_0--edge1-FUNLAD_clean_linker_0
_symmetry_space_group_name_H-M    P1
_symmetry_Int_Tables_number       1
_symmetry_cell_setting            triclinic
loop_
_symmetry_equiv_pos_as_xyz
'x, y, z'
_cell_length_a     53.860601
_cell_length_b     54.033014
_cell_length_c     17.192514
_cell_angle_alpha  90.257289
_cell_angle_beta   89.518017
_cell_angle_gamma 119.97661
loop_
_atom_site_label
_atom_site_type_symbol
_atom_site_fract_x
_atom_site_fract_y
_atom_site_fract_z
_atom_type_partial_charge
C0 C 0.14044 0.38561 0.88095 0.0
N1 N 0.16167 0.33438 0.01514 0.0
C2 C 0.14172 0.31158 -0.0259 0.0
C3 C 0.14599 0.28863 0.9569 0.0
C4 C 0.17105 0.28919 -0.01789 0.0
C5 C 0.19067 0.31256 0.02683 0.0
C6 C 0.18555 0.33495 0.04272 0.0
Zn7 Zn 0.15875 0.37052 0.02848 0.0
C8 C 0.21318 0.42242 -0.01911 0.0
N9 N 0.15467 0.44726 0.05034 0.0
C10 C 0.1313 0.44947 0.03197 0.0
C11 C 0.17849 0.46976 0.08112 0.0
C12 C 0.17966 0.49577 0.09368 0.0
C13 C 0.15596 0.49875 0.07543 0.0
C14 C 0.13142 0.47516 0.04468 0.0
Zn15 Zn 0.15569 0.4101 0.03615 0.0
O16 O 0.14639 0.36794 0.91214 0.0
C17 C 0.10089 0.35902 0.08143 0.0
O18 O 0.14174 0.40602 0.92112 0.0
H19 H 0.19668 0.46752 0.09668 0.0
H20 H 0.1229 0.31159 0.95263 0.0
H21 H 0.11254 0.43129 0.00783 0.0
O22 O 0.11452 0.34606 0.0641 0.0
O23 O 0.11342 0.38604 0.07536 0.0
H24 H 0.20126 0.35334 0.07471 0.0
O25 O 0.16965 0.41361 0.15146 0.0
O26 O 0.17094 0.37373 0.14497 0.0
O27 O 0.19781 0.4336 -0.00481 0.0
O28 O 0.20291 0.39584 -0.00762 0.0
C29 C 0.17391 0.39502 0.18395 0.0
H30 H 0.1301 0.27091 0.92305 0.0
H31 H 0.21051 0.31425 0.04651 0.0
H32 H 0.19879 0.51328 0.11884 0.0
H33 H 0.11272 0.47669 0.02993 0.0
C34 C 0.80098 0.21732 0.45375 0.0
N35 N 0.78106 0.14384 0.32691 0.0
C36 C 0.80065 0.14268 0.37393 0.0
C37 C 0.79655 0.11639 0.39927 0.0
C38 C 0.77225 0.09111 0.37517 0.0
C39 C 0.75333 0.09286 0.32279 0.0
C40 C 0.75807 0.11962 0.29964 0.0
Zn41 Zn 0.78387 0.18239 0.30718 0.0
C42 C 0.72906 0.18079 0.34471 0.0
N43 N 0.78998 0.2637 0.27698 0.0
C44 C 0.81273 0.28916 0.29898 0.0
C45 C 0.76705 0.26248 0.24069 0.0
C46 C 0.76603 0.28729 0.22671 0.0
C47 C 0.78894 0.31382 0.24945 0.0
C48 C 0.81273 0.31471 0.28517 0.0
Zn49 Zn 0.78823 0.22547 0.29635 0.0
O50 O 0.79543 0.1937 0.42318 0.0
C51 C 0.843 0.22703 0.25985 0.0
O52 O 0.79981 0.23619 0.41275 0.0
H53 H 0.74935 0.24215 0.22255 0.0
H54 H 0.81884 0.1622 0.39468 0.0
H55 H 0.83078 0.28965 0.32756 0.0
O56 O 0.82767 0.20054 0.27512 0.0
O57 O 0.83189 0.24298 0.26425 0.0
H58 H 0.74266 0.12104 0.26279 0.0
O59 O 0.77658 0.21424 0.18037 0.0
O60 O 0.7725 0.17188 0.19049 0.0
O61 O 0.74465 0.20718 0.32921 0.0
O62 O 0.73985 0.16462 0.33982 0.0
C63 C 0.77125 0.19071 0.14959 0.0
H64 H 0.81169 0.11584 0.43932 0.0
H65 H 0.73416 0.07383 0.30363 0.0
H66 H 0.74751 0.28575 0.19776 0.0
H67 H 0.83081 0.33482 0.30352 0.0
C68 C 0.55323 0.71698 0.5446 0.0
N69 N 0.6058 0.79155 0.6693 0.0
C70 C 0.62599 0.79428 0.61653 0.0
C71 C 0.64746 0.82132 0.59256 0.0
C72 C 0.64852 0.84588 0.62424 0.0
C73 C 0.62843 0.84228 0.68232 0.0
C74 C 0.60698 0.81489 0.70321 0.0
Zn75 Zn 0.57087 0.75229 0.69065 0.0
C76 C 0.51657 0.75182 0.6565 0.0
N77 N 0.49683 0.67014 0.72507 0.0
C78 C 0.49352 0.64469 0.70029 0.0
C79 C 0.47575 0.67138 0.76597 0.0
C80 C 0.45 0.64667 0.78207 0.0
C81 C 0.44559 0.62016 0.75585 0.0
C82 C 0.46788 0.61919 0.71547 0.0
Zn83 Zn 0.5328 0.7087 0.70327 0.0
O84 O 0.57094 0.74088 0.57439 0.0
C85 C 0.58684 0.70888 0.73609 0.0
O86 O 0.5336 0.69781 0.58661 0.0
H87 H 0.47875 0.6917 0.78583 0.0
H88 H 0.62481 0.77547 0.5905 0.0
H89 H 0.5106 0.64419 0.66807 0.0
O90 O 0.59761 0.73529 0.72019 0.0
O91 O 0.55979 0.6925 0.73333 0.0
H92 H 0.59068 0.81234 0.74475 0.0
O93 O 0.53242 0.72008 0.81946 0.0
O94 O 0.57015 0.7628 0.80794 0.0
O95 O 0.50657 0.7256 0.67227 0.0
O96 O 0.54345 0.76878 0.66042 0.0
C97 C 0.55032 0.74378 0.84966 0.0
H98 H 0.6622 0.82282 0.54719 0.0
H99 H 0.62873 0.86043 0.71019 0.0
H100 H 0.43362 0.64833 0.81478 0.0
H101 H 0.46526 0.59912 0.6943 0.0
C102 C 0.7185 0.54396 0.10808 0.0
N103 N 0.79251 0.59463 -0.02354 0.0
C104 C 0.79669 0.6162 0.02556 0.0
C105 C 0.82446 0.63693 0.04702 0.0
C106 C 0.84809 0.63546 0.01735 0.0
C107 C 0.84309 0.61403 0.96283 0.0
C108 C 0.81508 0.59365 0.9437 0.0
Zn109 Zn 0.75244 0.56011 0.96002 0.0
C110 C 0.75212 0.50554 -0.0018 0.0
N111 N 0.66979 0.48602 0.93363 0.0
C112 C 0.64536 0.48521 0.9589 0.0
C113 C 0.66875 0.46425 0.89102 0.0
C114 C 0.6425 0.44101 0.86984 0.0
C115 C 0.61696 0.43996 0.89306 0.0
C116 C 0.61851 0.46212 0.93954 0.0
Zn117 Zn 0.70928 0.52114 0.95111 0.0
O118 O 0.74218 0.56181 0.07667 0.0
C119 C 0.70872 0.57482 0.9131 0.0
O120 O 0.69946 0.52371 0.06782 0.0
H121 H 0.68836 0.4652 0.8717 0.0
H122 H 0.77846 0.61659 0.05106 0.0
H123 H 0.64669 0.50281 -0.00756 0.0
O124 O 0.73536 0.58692 0.92851 0.0
O125 O 0.69341 0.54783 0.91871 0.0
H126 H 0.81139 0.57628 0.90521 0.0
O127 O 0.71967 0.51914 0.83462 0.0
O128 O 0.76183 0.55784 0.84262 0.0
O129 O 0.72566 0.49488 -0.01626 0.0
O130 O 0.76866 0.5324 -0.00813 0.0
C131 C 0.74302 0.53735 0.80266 0.0
H132 H 0.82725 0.65295 0.08954 0.0
H133 H 0.86064 0.61238 0.93713 0.0
H134 H 0.64219 0.4241 0.83501 0.0
H135 H 0.59924 0.46204 0.95841 0.0
C136 C 0.22088 0.79776 0.22656 0.0
N137 N 0.14557 0.77091 0.35718 0.0
C138 C 0.13942 0.78576 0.30435 0.0
C139 C 0.11099 0.77606 0.2828 0.0
C140 C 0.08874 0.75098 0.31642 0.0
C141 C 0.09572 0.73738 0.3747 0.0
C142 C 0.12429 0.74749 0.39346 0.0
Zn143 Zn 0.18676 0.77931 0.37428 0.0
C144 C 0.19027 0.72626 0.33598 0.0
N145 N 0.271 0.79171 0.403 0.0
C146 C 0.28305 0.78012 0.35623 0.0
C147 C 0.28411 0.80582 0.46944 0.0
C148 C 0.30954 0.80743 0.49322 0.0
C149 C 0.32164 0.7943 0.44856 0.0
C150 C 0.30858 0.78123 0.37798 0.0
Zn151 Zn 0.2306 0.78492 0.3833 0.0
O152 O 0.19685 0.79102 0.25768 0.0
C153 C 0.22781 0.83803 0.42139 0.0
O154 O 0.24043 0.7976 0.26702 0.0
H155 H 0.27421 0.81481 0.50612 0.0
H156 H 0.15661 0.8043 0.27596 0.0
H157 H 0.27223 0.76893 0.30378 0.0
O158 O 0.20131 0.82287 0.40519 0.0
O159 O 0.24388 0.82712 0.41599 0.0
H160 H 0.12946 0.73567 0.43448 0.0
O161 O 0.22023 0.77196 0.499 0.0
O162 O 0.17781 0.76803 0.49196 0.0
O163 O 0.21664 0.7427 0.35032 0.0
O164 O 0.17301 0.73579 0.34288 0.0
C165 C 0.19682 0.76656 0.53137 0.0
H166 H 0.1067 0.7872 0.23739 0.0
H167 H 0.07931 0.7184 0.40368 0.0
H168 H 0.31913 0.81808 0.54744 0.0
H169 H 0.31712 0.77067 0.34208 0.0
C170 C 0.38921 0.13644 0.77182 0.0
N171 N 0.33849 0.16169 0.65075 0.0
C172 C 0.3158 0.14226 0.69378 0.0
C173 C 0.29386 0.14764 0.71547 0.0
C174 C 0.29531 0.17332 0.69289 0.0
C175 C 0.31872 0.19266 0.64708 0.0
C176 C 0.34009 0.18637 0.6265 0.0
Zn177 Zn 0.37215 0.15525 0.62703 0.0
C178 C 0.42844 0.20742 0.65789 0.0
N179 N 0.44336 0.14222 0.58656 0.0
C180 C 0.44549 0.11912 0.60821 0.0
C181 C 0.46405 0.16331 0.54199 0.0
C182 C 0.48752 0.16142 0.51568 0.0
C183 C 0.49006 0.13764 0.53528 0.0
C184 C 0.46897 0.11648 0.58341 0.0
Zn185 Zn 0.40875 0.14715 0.61276 0.0
O186 O 0.372 0.14344 0.74263 0.0
C187 C 0.35307 0.09486 0.58204 0.0
O188 O 0.40842 0.13601 0.72939 0.0
H189 H 0.46219 0.18158 0.52543 0.0
H190 H 0.31496 0.12278 0.71255 0.0
H191 H 0.42879 0.10256 0.64353 0.0
O192 O 0.34351 0.11167 0.59718 0.0
O193 O 0.37992 0.10424 0.58478 0.0
H194 H 0.35836 0.20159 0.59261 0.0
O195 O 0.40838 0.15839 0.49687 0.0
O196 O 0.37268 0.16672 0.5104 0.0
O197 O 0.43688 0.18992 0.64125 0.0
O198 O 0.40176 0.19892 0.65706 0.0
C199 C 0.3915 0.16575 0.4677 0.0
H200 H 0.27607 0.13193 0.74994 0.0
H201 H 0.32106 0.21291 0.62927 0.0
H202 H 0.50357 0.17849 0.47999 0.0
H203 H 0.47024 0.09782 0.59985 0.0
C204 C 0.26203 0.17402 0.79548 0.0
C205 C 0.27335 0.18061 0.7195 0.0
C206 C 0.24322 0.18298 0.82258 0.0
C207 C 0.23551 0.19908 0.77444 0.0
C208 C 0.24588 0.20453 0.69752 0.0
C209 C 0.26453 0.19545 0.67036 0.0
C210 C 0.2177 0.21153 0.80185 0.0
C211 C 0.21178 0.21363 0.87727 0.0
C212 C 0.19803 0.23023 0.90446 0.0
C213 C 0.20214 0.23976 -0.01808 0.0
C214 C 0.19228 0.25785 0.00819 0.0
C215 C 0.17796 0.26684 0.95758 0.0
H216 H 0.17732 0.23001 0.79596 0.0
C217 C 0.1723 0.25593 0.88135 0.0
C218 C 0.18205 0.23771 0.85515 0.0
H219 H 0.16133 0.26236 0.84069 0.0
H220 H 0.26838 0.16269 0.83508 0.0
H221 H 0.23522 0.17742 0.88145 0.0
H222 H 0.24008 0.2165 0.65855 0.0
H223 H 0.27228 0.20034 0.61094 0.0
H224 H 0.21138 0.22154 0.75774 0.0
H225 H 0.21958 0.20528 0.92215 0.0
H226 H 0.2139 0.23399 0.02176 0.0
H227 H 0.19642 0.26528 0.06782 0.0
C228 C 0.0547 0.31332 0.10862 0.0
C229 C 0.07075 0.34333 0.10893 0.0
C230 C 0.02602 0.29905 0.13371 0.0
C231 C 0.01294 0.31464 0.15971 0.0
C232 C 0.02927 0.34455 0.16115 0.0
C233 C 0.05769 0.35872 0.13582 0.0
C234 C 0.98259 0.3011 0.1864 0.0
C235 C 0.96215 0.2741 0.17008 0.0
C236 C 0.93167 0.26247 0.19361 0.0
C237 C 0.91434 0.23302 0.20675 0.0
C238 C 0.88558 0.22148 0.22866 0.0
C239 C 0.87345 0.23915 0.2369 0.0
H240 H 0.93167 0.30269 0.18812 0.0
C241 C 0.89065 0.26854 0.22231 0.0
C242 C 0.91938 0.28007 0.20066 0.0
H243 H 0.88192 0.28272 0.22725 0.0
H244 H 0.06423 0.30087 0.08868 0.0
H245 H 0.01447 0.27596 0.13331 0.0
H246 H 0.01991 0.35715 0.18122 0.0
H247 H 0.06941 0.38185 0.13743 0.0
H248 H 0.97672 0.3146 0.21947 0.0
H249 H 0.96757 0.25991 0.13898 0.0
H250 H 0.92315 0.21894 0.20078 0.0
H251 H 0.87286 0.1987 0.23895 0.0
C252 C 0.75483 0.03857 0.36569 0.0
C253 C 0.76481 0.06338 0.41112 0.0
C254 C 0.74429 0.01189 0.40117 0.0
C255 C 0.74325 0.0096 0.48278 0.0
C256 C 0.75404 0.0345 0.52788 0.0
C257 C 0.76498 0.06116 0.49246 0.0
C258 C 0.72784 0.98156 0.52241 0.0
C259 C 0.72564 0.95742 0.49325 0.0
C260 C 0.70651 0.92932 0.52959 0.0
C261 C 0.71476 0.90852 0.53279 0.0
C262 C 0.69638 0.88167 0.56534 0.0
C263 C 0.66903 0.87488 0.59343 0.0
H264 H 0.672 0.938 0.55378 0.0
C265 C 0.66078 0.89577 0.58876 0.0
C266 C 0.67933 0.92267 0.55779 0.0
H267 H 0.63963 0.89122 0.60704 0.0
H268 H 0.75444 0.03974 0.30286 0.0
H269 H 0.73556 0.99304 0.36472 0.0
H270 H 0.75321 0.03325 0.59082 0.0
H271 H 0.77217 0.07988 0.52895 0.0
H272 H 0.7175 0.98074 0.57772 0.0
H273 H 0.73804 0.9582 0.44221 0.0
H274 H 0.73556 0.91314 0.51081 0.0
H275 H 0.70366 0.86631 0.56849 0.0
C276 C 0.59328 0.66804 0.77565 0.0
C277 C 0.60545 0.69722 0.75838 0.0
C278 C 0.61055 0.65679 0.797 0.0
C279 C 0.64052 0.6744 0.8009 0.0
C280 C 0.65268 0.70367 0.78527 0.0
C281 C 0.63534 0.71499 0.76372 0.0
C282 C 0.65924 0.66275 0.82361 0.0
C283 C 0.65227 0.63565 0.80717 0.0
C284 C 0.66811 0.62143 0.83469 0.0
C285 C 0.65363 0.5915 0.83362 0.0
C286 C 0.66688 0.57663 0.85956 0.0
C287 C 0.69522 0.59132 0.88662 0.0
H288 H 0.70877 0.65943 0.86158 0.0
C289 C 0.71007 0.62136 0.88687 0.0
C290 C 0.69662 0.63634 0.86127 0.0
H291 H 0.732 0.63326 0.90693 0.0
H292 H 0.57031 0.65381 0.77315 0.0
H293 H 0.6002 0.63434 0.81175 0.0
H294 H 0.67565 0.71776 0.78892 0.0
H295 H 0.64537 0.73763 0.75138 0.0
H296 H 0.67881 0.67678 0.85458 0.0
H297 H 0.63301 0.62245 0.77382 0.0
H298 H 0.63174 0.57942 0.81323 0.0
H299 H 0.65481 0.5535 0.85793 0.0
C300 C 0.0466 0.75393 0.26318 0.0
C301 C 0.05886 0.73749 0.28674 0.0
C302 C 0.01865 0.74068 0.23364 0.0
C303 C 1.00248 0.71071 0.22712 0.0
C304 C 0.01473 0.69445 0.25122 0.0
C305 C 0.04253 0.7076 0.27994 0.0
C306 C 0.97284 0.69505 0.19606 0.0
C307 C 0.96096 0.70639 0.14992 0.0
C308 C 0.9323 0.68838 0.11418 0.0
C309 C 0.91481 0.70014 0.09796 0.0
C310 C 0.88754 0.68321 0.06574 0.0
C311 C 0.87745 0.65427 0.04809 0.0
H312 H 0.93567 0.65004 0.10304 0.0
C313 C 0.89537 0.64284 0.06255 0.0
C314 C 0.92246 0.65967 0.09446 0.0
H315 H 0.88829 0.6206 0.0506 0.0
H316 H 0.05847 0.77698 0.26832 0.0
H317 H 0.0098 0.75397 0.21717 0.0
H318 H 1.00288 0.67136 0.24662 0.0
H319 H 0.05138 0.69418 0.29546 0.0
H320 H 0.96057 0.67242 0.20976 0.0
H321 H 0.97227 0.72909 0.13725 0.0
H322 H 0.92206 0.72232 0.11139 0.0
H323 H 0.87442 0.69278 0.05447 0.0
C324 C 0.34438 0.04636 0.54627 0.0
C325 C 0.33336 0.06462 0.56132 0.0
C326 C 0.32615 0.01778 0.52724 0.0
C327 C 0.29633 0.00658 0.5234 0.0
C328 C 0.28529 0.02493 0.53646 0.0
C329 C 0.30361 0.05366 0.55582 0.0
C330 C 0.27674 0.97607 0.50351 0.0
C331 C 0.28255 0.95559 0.52533 0.0
C332 C 0.26672 0.92527 0.49962 0.0
C333 C 0.28042 0.90922 0.50883 0.0
C334 C 0.2676 0.88105 0.48347 0.0
C335 C 0.24042 0.86788 0.44884 0.0
H336 H 0.22768 0.92353 0.45915 0.0
C337 C 0.22614 0.88353 0.44114 0.0
C338 C 0.23923 0.91209 0.46603 0.0
H339 H 0.20509 0.87386 0.41511 0.0
H340 H 0.36719 0.05413 0.54895 0.0
H341 H 0.33561 0.00463 0.51443 0.0
H342 H 0.26245 0.01693 0.53274 0.0
H343 H 0.29447 0.06725 0.56649 0.0
H344 H 0.25778 0.97079 0.46988 0.0
H345 H 0.30115 0.96165 0.56164 0.0
H346 H 0.3015 0.91866 0.53477 0.0
H347 H 0.27913 0.86958 0.49123 0.0
C348 C 0.1367 0.36297 0.75217 0.0
C349 C 0.13629 0.38469 0.79636 0.0
C350 C 0.13916 0.36518 0.67156 0.0
C351 C 0.14131 0.38919 0.63393 0.0
C352 C 0.13812 0.40947 0.67724 0.0
C353 C 0.13577 0.40735 0.7581 0.0
C354 C 0.14814 0.39421 0.55031 0.0
C355 C 0.16566 0.3866 0.51466 0.0
C356 C 0.17251 0.39156 0.43105 0.0
C357 C 0.17584 0.3713 0.38807 0.0
C358 C 0.17834 0.37339 0.30725 0.0
C359 C 0.17787 0.39602 0.26864 0.0
H360 H 0.17345 0.43217 0.4253 0.0
C361 C 0.1773 0.41772 0.31252 0.0
C362 C 0.17463 0.41552 0.39312 0.0
H363 H 0.17742 0.4357 0.2845 0.0
H364 H 0.13655 0.34493 0.77995 0.0
H365 H 0.14022 0.3485 0.63915 0.0
H366 H 0.13913 0.42784 0.64897 0.0
H367 H 0.13518 0.42426 0.79066 0.0
H368 H 0.13955 0.40556 0.5185 0.0
H369 H 0.17427 0.37527 0.54652 0.0
H370 H 0.17485 0.35297 0.41657 0.0
H371 H 0.17908 0.3565 0.27495 0.0
C372 C 0.76457 0.20779 0.0221 0.0
C373 C 0.76733 0.18727 0.06509 0.0
C374 C 0.76699 0.20845 0.94152 0.0
C375 C 0.77233 0.18866 0.90273 0.0
C376 C 0.77235 0.16652 0.94485 0.0
C377 C 0.76998 0.16586 0.02577 0.0
C378 C 0.7792 0.19144 0.81908 0.0
C379 C 0.79419 0.21709 0.78433 0.0
C380 C 0.80089 0.21983 0.70059 0.0
C381 C 0.80066 0.24188 0.65852 0.0
C382 C 0.80269 0.24239 0.57753 0.0
C383 C 0.8052 0.22091 0.53812 0.0
H384 H 0.80779 0.18357 0.69302 0.0
C385 C 0.80821 0.20051 0.58096 0.0
C386 C 0.80614 0.20001 0.66161 0.0
H387 H 0.81083 0.18409 0.5521 0.0
H388 H 0.76186 0.22419 0.05085 0.0
H389 H 0.7655 0.22497 0.91003 0.0
H390 H 0.77586 0.15071 0.9156 0.0
H391 H 0.77191 0.14963 0.05753 0.0
H392 H 0.77277 0.17192 0.7864 0.0
H393 H 0.80061 0.23661 0.817 0.0
H394 H 0.79721 0.25771 0.6879 0.0
H395 H 0.80059 0.25853 0.54585 0.0
C396 C 0.57717 0.73378 0.41646 0.0
C397 C 0.55375 0.71338 0.46009 0.0
C398 C 0.57552 0.73436 0.33595 0.0
C399 C 0.55033 0.71461 0.29789 0.0
C400 C 0.52801 0.69257 0.34062 0.0
C401 C 0.52963 0.69198 0.42149 0.0
C402 C 0.54633 0.7174 0.21447 0.0
C403 C 0.5572 0.74308 0.17982 0.0
C404 C 0.5532 0.74589 0.09641 0.0
C405 C 0.57551 0.76799 0.05379 0.0
C406 C 0.57389 0.76865 -0.02707 0.0
C407 C 0.54979 0.74727 0.93423 0.0
H408 H 0.50992 0.70969 0.09018 0.0
C409 C 0.52638 0.7268 -0.02223 0.0
C410 C 0.52803 0.72615 0.05827 0.0
H411 H 0.50724 0.71045 0.94948 0.0
H412 H 0.59632 0.75015 0.44468 0.0
H413 H 0.59364 0.75078 0.30397 0.0
H414 H 0.50864 0.6768 0.31193 0.0
H415 H 0.51137 0.67587 0.4538 0.0
H416 H 0.5331 0.69791 0.18199 0.0
H417 H 0.57042 0.76257 0.21232 0.0
H418 H 0.59486 0.78376 0.08254 0.0
H419 H 0.59214 0.78482 0.94071 0.0
C420 C 0.72454 0.51438 0.67455 0.0
C421 C 0.74621 0.53669 0.71791 0.0
C422 C 0.72405 0.51647 0.5941 0.0
C423 C 0.74521 0.54096 0.55585 0.0
C424 C 0.76832 0.56196 0.59818 0.0
C425 C 0.76879 0.55994 0.67893 0.0
C426 C 0.74298 0.54564 0.47258 0.0
C427 C 0.71755 0.53694 0.4384 0.0
C428 C 0.71539 0.54139 0.35494 0.0
C429 C 0.69248 0.52013 0.31257 0.0
C430 C 0.69232 0.52179 0.23166 0.0
C431 C 0.71499 0.54492 0.1926 0.0
H432 H 0.75379 0.58316 0.3482 0.0
C433 C 0.73639 0.56751 0.23584 0.0
C434 C 0.73657 0.5658 0.31644 0.0
H435 H 0.75381 0.58593 0.20734 0.0
H436 H 0.70715 0.4959 0.70294 0.0
H437 H 0.70666 0.49929 0.56232 0.0
H438 H 0.78516 0.58072 0.56932 0.0
H439 H 0.78593 0.57731 0.71091 0.0
H440 H 0.76282 0.55756 0.43975 0.0
H441 H 0.6977 0.52501 0.47119 0.0
H442 H 0.67564 0.50143 0.34159 0.0
H443 H 0.67537 0.50422 0.19974 0.0
C444 C 0.21577 0.76243 0.65876 0.0
C445 C 0.19373 0.76257 0.616 0.0
C446 C 0.2162 0.7648 0.73932 0.0
C447 C 0.19463 0.76743 0.77829 0.0
C448 C 0.17122 0.76483 0.73646 0.0
C449 C 0.17081 0.76255 0.6556 0.0
C450 C 0.19672 0.77417 0.86181 0.0
C451 C 0.22205 0.79122 0.89614 0.0
C452 C 0.22404 0.79787 -0.0203 0.0
C453 C 0.24717 0.80002 0.02199 0.0
C454 C 0.24729 0.80199 0.10292 0.0
C455 C 0.22435 0.80209 0.14208 0.0
H456 H 0.18511 0.80044 -0.01335 0.0
C457 C 0.20266 0.80273 0.09893 0.0
C458 C 0.20253 0.80069 0.01833 0.0
H459 H 0.18502 0.80344 0.12753 0.0
H460 H 0.23345 0.76189 0.62989 0.0
H461 H 0.23385 0.7654 0.77064 0.0
H462 H 0.15409 0.76623 0.76586 0.0
H463 H 0.15339 0.76238 0.62408 0.0
H464 H 0.17684 0.7659 0.89472 0.0
H465 H 0.24195 0.79949 0.86333 0.0
H466 H 0.26426 0.79846 -0.00713 0.0
H467 H 0.26444 0.80175 0.13478 0.0
C468 C 0.41526 0.17206 0.33956 0.0
C469 C 0.39202 0.16967 0.38325 0.0
C470 C 0.41358 0.16965 0.25907 0.0
C471 C 0.38852 0.16461 0.22104 0.0
C472 C 0.3664 0.16492 0.26386 0.0
C473 C 0.36806 0.16734 0.34475 0.0
C474 C 0.3845 0.1578 0.13749 0.0
C475 C 0.39524 0.14283 0.10228 0.0
C476 C 0.39143 0.13626 0.01859 0.0
C477 C 0.41375 0.13632 -0.02414 0.0
C478 C 0.41235 0.13437 0.89487 0.0
C479 C 0.38847 0.13214 0.85618 0.0
H480 H 0.3483 0.12975 0.0122 0.0
C481 C 0.36502 0.12933 0.89969 0.0
C482 C 0.36643 0.13128 -0.01971 0.0
H483 H 0.34603 0.1269 0.87135 0.0
H484 H 0.43429 0.17453 0.36776 0.0
H485 H 0.43158 0.17092 0.22707 0.0
H486 H 0.34714 0.16165 0.2352 0.0
H487 H 0.34994 0.16566 0.37715 0.0
H488 H 0.37146 0.16433 0.10527 0.0
H489 H 0.40829 0.13631 0.13449 0.0
H490 H 0.43296 0.13957 0.0047 0.0
H491 H 0.43062 0.13635 0.86263 0.0
C492 C 0.13529 0.52757 0.13198 0.0
C493 C 0.1572 0.52638 0.09025 0.0
C494 C 0.13847 0.55394 0.15471 0.0
C495 C 0.16362 0.57964 0.13534 0.0
C496 C 0.18472 0.57824 0.09008 0.0
C497 C 0.18162 0.55199 0.06803 0.0
C498 C 0.17005 0.60824 0.16459 0.0
C499 C 0.15282 0.61336 0.2111 0.0
C500 C 0.16244 0.64212 0.24482 0.0
C501 C 0.14242 0.65104 0.25943 0.0
C502 C 0.15125 0.67824 0.29009 0.0
C503 C 0.18025 0.69685 0.30775 0.0
H504 H 0.20715 0.6539 0.25729 0.0
C505 C 0.20006 0.68748 0.29556 0.0
C506 C 0.19128 0.66045 0.26473 0.0
H507 H 0.22252 0.70112 0.3092 0.0
H508 H 0.11629 0.50809 0.15009 0.0
H509 H 0.12154 0.55378 0.18919 0.0
H510 H 0.20422 0.59756 0.07367 0.0
H511 H 0.19869 0.5517 0.03497 0.0
H512 H 0.1908 0.62616 0.14824 0.0
H513 H 0.1312 0.59659 0.22459 0.0
H514 H 0.12 0.63715 0.24574 0.0
H515 H 0.13542 0.68477 0.29917 0.0
C516 C 0.68638 0.18682 0.36441 0.0
C517 C 0.6989 0.16947 0.36959 0.0
C518 C 0.65827 0.17681 0.38959 0.0
C519 C 0.64187 0.14913 0.42057 0.0
C520 C 0.65443 0.13186 0.42668 0.0
C521 C 0.6826 0.14181 0.40073 0.0
C522 C 0.61217 0.13857 0.4497 0.0
C523 C 0.5947 0.14656 0.41649 0.0
C524 C 0.56599 0.13962 0.44689 0.0
C525 C 0.548 0.1441 0.39753 0.0
C526 C 0.52265 0.14197 0.4256 0.0
C527 C 0.51465 0.13542 0.50406 0.0
H528 H 0.57073 0.12837 0.56507 0.0
C529 C 0.53174 0.12938 0.55288 0.0
C530 C 0.5573 0.13158 0.52471 0.0
H531 H 0.52616 0.12445 0.61374 0.0
H532 H 0.69838 0.20831 0.34129 0.0
H533 H 0.64968 0.19111 0.38631 0.0
H534 H 0.64238 0.11059 0.45115 0.0
H535 H 0.69172 0.12801 0.40609 0.0
H536 H 0.60461 0.1237 0.49813 0.0
H537 H 0.60191 0.15928 0.36362 0.0
H538 H 0.55403 0.15023 0.33737 0.0
H539 H 0.50967 0.14631 0.38627 0.0
C540 C 0.24682 0.46395 0.90103 0.0
C541 C 0.24188 0.44035 0.94621 0.0
C542 C 0.27378 0.48204 0.86942 0.0
C543 C 0.29694 0.47761 0.88429 0.0
C544 C 0.29175 0.45327 0.92682 0.0
C545 C 0.26435 0.43465 0.95732 0.0
C546 C 0.32649 0.49818 0.85622 0.0
C547 C 0.33491 0.52586 0.84268 0.0
C548 C 0.36351 0.54782 0.81319 0.0
C549 C 0.36572 0.57256 0.7803 0.0
C550 C 0.39225 0.59535 0.75856 0.0
C551 C 0.41741 0.59417 0.76985 0.0
H552 H 0.38772 0.52735 0.84732 0.0
C553 C 0.41529 0.56897 0.79956 0.0
C554 C 0.38851 0.54592 0.82131 0.0
H555 H 0.4344 0.56758 0.80921 0.0
H556 H 0.22967 0.46838 0.88943 0.0
H557 H 0.27617 0.4994 0.83313 0.0
H558 H 0.30903 0.449 0.93793 0.0
H559 H 0.26095 0.41636 -0.00875 0.0
H560 H 0.34146 0.49045 0.84812 0.0
H561 H 0.31995 0.53341 0.85371 0.0
H562 H 0.34684 0.57455 0.77278 0.0
H563 H 0.39312 0.61426 0.73441 0.0
C564 C 0.81004 0.36402 0.19901 0.0
C565 C 0.78743 0.34009 0.23568 0.0
C566 C 0.80688 0.38734 0.17794 0.0
C567 C 0.78105 0.38714 0.19394 0.0
C568 C 0.75917 0.36374 0.23427 0.0
C569 C 0.76226 0.3405 0.25462 0.0
C570 C 0.77478 0.40953 0.16634 0.0
C571 C 0.79191 0.4318 0.12005 0.0
C572 C 0.78192 0.45064 0.08683 0.0
C573 C 0.80139 0.47976 0.07429 0.0
C574 C 0.79196 0.49775 0.04447 0.0
C575 C 0.76295 0.48675 0.02559 0.0
H576 H 0.73772 0.41702 0.07132 0.0
C577 C 0.74377 0.45739 0.03552 0.0
C578 C 0.75312 0.43957 0.06552 0.0
H579 H 0.72134 0.44809 0.02075 0.0
H580 H 0.82968 0.3642 0.18375 0.0
H581 H 0.82447 0.40492 0.14775 0.0
H582 H 0.73912 0.36297 0.24807 0.0
H583 H 0.74464 0.3225 0.28392 0.0
H584 H 0.75402 0.40676 0.18291 0.0
H585 H 0.81349 0.43657 0.10569 0.0
H586 H 0.82377 0.48871 0.08905 0.0
H587 H 0.80731 0.52025 0.03704 0.0
C588 C 0.36891 0.79582 0.43098 0.0
C589 C 0.3461 0.79203 0.47938 0.0
C590 C 0.39107 0.79218 0.46045 0.0
C591 C 0.39067 0.78453 0.53887 0.0
C592 C 0.36793 0.78091 0.58695 0.0
C593 C 0.34601 0.78473 0.55779 0.0
C594 C 0.41208 0.77784 0.57147 0.0
C595 C 0.43877 0.78793 0.54285 0.0
C596 C 0.45862 0.77898 0.57492 0.0
C597 C 0.48837 0.79772 0.57149 0.0
C598 C 0.50736 0.78932 0.59977 0.0
C599 C 0.4969 0.76181 0.63084 0.0
H600 H 0.42554 0.73608 0.60741 0.0
C601 C 0.46714 0.74307 0.63386 0.0
C602 C 0.44825 0.75149 0.60611 0.0
H603 H 0.45832 0.72164 0.6568 0.0
H604 H 0.36953 0.80141 0.3703 0.0
H605 H 0.40787 0.79448 0.42108 0.0
H606 H 0.36689 0.77469 0.64726 0.0
H607 H 0.32848 0.7811 0.59629 0.0
H608 H 0.40557 0.76436 0.62291 0.0
H609 H 0.44664 0.80366 0.49643 0.0
H610 H 0.49691 0.8189 0.54701 0.0
H611 H 0.5302 0.80416 0.59603 0.0
C612 C 0.58572 0.40748 0.78831 0.0
C613 C 0.58909 0.41608 0.86651 0.0
C614 C 0.56067 0.38341 0.76365 0.0
C615 C 0.53854 0.36705 0.81703 0.0
C616 C 0.54116 0.37665 0.89423 0.0
C617 C 0.56626 0.40098 0.91888 0.0
C618 C 0.51325 0.33936 0.79424 0.0
C619 C 0.51531 0.32248 0.73963 0.0
C620 C 0.49204 0.29329 0.71964 0.0
C621 C 0.49986 0.27449 0.68591 0.0
C622 C 0.47913 0.24678 0.66588 0.0
C623 C 0.44989 0.2372 0.67813 0.0
H624 H 0.45587 0.29809 0.7556 0.0
C625 C 0.44183 0.25611 0.71056 0.0
C626 C 0.46274 0.28395 0.7314 0.0
H627 H 0.41944 0.24935 0.72038 0.0
H628 H 0.60266 0.41924 0.74621 0.0
H629 H 0.55892 0.37749 0.70287 0.0
H630 H 0.52427 0.36467 0.93628 0.0
H631 H 0.56826 0.40728 -0.02057 0.0
H632 H 0.49363 0.33166 0.82794 0.0
H633 H 0.53595 0.32937 0.71194 0.0
H634 H 0.52222 0.28114 0.67567 0.0
H635 H 0.48614 0.23288 0.64057 0.0
loop_
_geom_bond_atom_site_label_1
_geom_bond_atom_site_label_2
_geom_bond_distance
_geom_bond_site_symmetry_2
_ccdc_geom_bond_type
C0 O16 1.251 . S
C0 O18 1.254 . S
N1 C2 1.333 1_554 S
N1 C6 1.307 . S
N1 Zn7 2.020 . S
C2 N1 1.333 1_556 S
C2 C3 1.379 . S
C2 H20 0.952 . S
C3 C2 1.379 . S
C3 C4 1.390 1_556 S
C3 H30 0.949 . S
C4 C3 1.390 1_554 S
C4 C5 1.357 . S
C5 C4 1.357 . S
C5 C6 1.370 . S
C5 H31 0.950 . S
C6 N1 1.307 . S
C6 C5 1.370 . S
C6 H24 0.948 . S
Zn7 N1 2.020 . S
Zn7 O16 2.039 1_554 S
Zn7 O22 2.034 . S
Zn7 O26 2.025 . S
Zn7 O28 2.024 . S
C8 O27 1.246 . S
C8 O28 1.249 . S
N9 C10 1.307 . S
N9 C11 1.333 . S
N9 Zn15 2.020 . S
C10 N9 1.307 . S
C10 C14 1.370 . S
C10 H21 0.948 1_554 S
C11 N9 1.333 . S
C11 C12 1.379 . S
C11 H19 0.952 . S
C12 C11 1.379 . S
C12 C13 1.390 . S
C12 H32 0.949 . S
C13 C12 1.390 . S
C13 C14 1.357 . S
C14 C10 1.370 . S
C14 C13 1.357 . S
C14 H33 0.950 . S
Zn15 N9 2.020 . S
Zn15 O18 2.025 1_554 S
Zn15 O23 2.024 . S
Zn15 O25 2.039 . S
Zn15 O27 2.034 . S
O16 C0 1.251 . S
O16 Zn7 2.039 1_556 S
C17 O22 1.246 . S
C17 O23 1.249 . S
O18 C0 1.254 . S
O18 Zn15 2.025 1_556 S
H19 C11 0.952 . S
H20 C2 0.952 . S
H21 C10 0.948 1_556 S
O22 Zn7 2.034 . S
O22 C17 1.246 . S
O23 Zn15 2.024 . S
O23 C17 1.249 . S
H24 C6 0.948 . S
O25 Zn15 2.039 . S
O25 C29 1.251 . S
O26 Zn7 2.025 . S
O26 C29 1.254 . S
O27 C8 1.246 . S
O27 Zn15 2.034 . S
O28 Zn7 2.024 . S
O28 C8 1.249 . S
C29 O25 1.251 . S
C29 O26 1.254 . S
H30 C3 0.949 . S
H31 C5 0.950 . S
H32 C12 0.949 . S
H33 C14 0.950 . S
C34 O50 1.251 . S
C34 O52 1.254 . S
N35 C36 1.333 . S
N35 C40 1.307 . S
N35 Zn41 2.020 . S
C36 N35 1.333 . S
C36 C37 1.379 . S
C36 H54 0.952 . S
C37 C36 1.379 . S
C37 C38 1.390 . S
C37 H64 0.949 . S
C38 C37 1.390 . S
C38 C39 1.357 . S
C39 C38 1.357 . S
C39 C40 1.370 . S
C39 H65 0.950 . S
C40 N35 1.307 . S
C40 C39 1.370 . S
C40 H58 0.948 . S
Zn41 N35 2.020 . S
Zn41 O50 2.039 . S
Zn41 O56 2.034 . S
Zn41 O60 2.025 . S
Zn41 O62 2.024 . S
C42 O61 1.246 . S
C42 O62 1.249 . S
N43 C44 1.307 . S
N43 C45 1.333 . S
N43 Zn49 2.020 . S
C44 N43 1.307 . S
C44 C48 1.370 . S
C44 H55 0.948 . S
C45 N43 1.333 . S
C45 C46 1.379 . S
C45 H53 0.952 . S
C46 C45 1.379 . S
C46 C47 1.390 . S
C46 H66 0.949 . S
C47 C46 1.390 . S
C47 C48 1.357 . S
C48 C44 1.370 . S
C48 C47 1.357 . S
C48 H67 0.950 . S
Zn49 N43 2.020 . S
Zn49 O52 2.025 . S
Zn49 O57 2.024 . S
Zn49 O59 2.039 . S
Zn49 O61 2.034 . S
O50 C34 1.251 . S
O50 Zn41 2.039 . S
C51 O56 1.246 . S
C51 O57 1.249 . S
O52 C34 1.254 . S
O52 Zn49 2.025 . S
H53 C45 0.952 . S
H54 C36 0.952 . S
H55 C44 0.948 . S
O56 Zn41 2.034 . S
O56 C51 1.246 . S
O57 Zn49 2.024 . S
O57 C51 1.249 . S
H58 C40 0.948 . S
O59 Zn49 2.039 . S
O59 C63 1.251 . S
O60 Zn41 2.025 . S
O60 C63 1.254 . S
O61 C42 1.246 . S
O61 Zn49 2.034 . S
O62 Zn41 2.024 . S
O62 C42 1.249 . S
C63 O59 1.251 . S
C63 O60 1.254 . S
H64 C37 0.949 . S
H65 C39 0.950 . S
H66 C46 0.949 . S
H67 C48 0.950 . S
C68 O84 1.251 . S
C68 O86 1.254 . S
N69 C70 1.333 . S
N69 C74 1.307 . S
N69 Zn75 2.020 . S
C70 N69 1.333 . S
C70 C71 1.379 . S
C70 H88 0.952 . S
C71 C70 1.379 . S
C71 C72 1.390 . S
C71 H98 0.949 . S
C72 C71 1.390 . S
C72 C73 1.357 . S
C73 C72 1.357 . S
C73 C74 1.370 . S
C73 H99 0.950 . S
C74 N69 1.307 . S
C74 C73 1.370 . S
C74 H92 0.948 . S
Zn75 N69 2.020 . S
Zn75 O84 2.039 . S
Zn75 O90 2.034 . S
Zn75 O94 2.025 . S
Zn75 O96 2.024 . S
C76 O95 1.246 . S
C76 O96 1.249 . S
N77 C78 1.307 . S
N77 C79 1.333 . S
N77 Zn83 2.020 . S
C78 N77 1.307 . S
C78 C82 1.370 . S
C78 H89 0.948 . S
C79 N77 1.333 . S
C79 C80 1.379 . S
C79 H87 0.952 . S
C80 C79 1.379 . S
C80 C81 1.390 . S
C80 H100 0.949 . S
C81 C80 1.390 . S
C81 C82 1.357 . S
C82 C78 1.370 . S
C82 C81 1.357 . S
C82 H101 0.950 . S
Zn83 N77 2.020 . S
Zn83 O86 2.025 . S
Zn83 O91 2.024 . S
Zn83 O93 2.039 . S
Zn83 O95 2.034 . S
O84 C68 1.251 . S
O84 Zn75 2.039 . S
C85 O90 1.246 . S
C85 O91 1.249 . S
O86 C68 1.254 . S
O86 Zn83 2.025 . S
H87 C79 0.952 . S
H88 C70 0.952 . S
H89 C78 0.948 . S
O90 Zn75 2.034 . S
O90 C85 1.246 . S
O91 Zn83 2.024 . S
O91 C85 1.249 . S
H92 C74 0.948 . S
O93 Zn83 2.039 . S
O93 C97 1.251 . S
O94 Zn75 2.025 . S
O94 C97 1.254 . S
O95 C76 1.246 . S
O95 Zn83 2.034 . S
O96 Zn75 2.024 . S
O96 C76 1.249 . S
C97 O93 1.251 . S
C97 O94 1.254 . S
H98 C71 0.949 . S
H99 C73 0.950 . S
H100 C80 0.949 . S
H101 C82 0.950 . S
C102 O118 1.251 . S
C102 O120 1.254 . S
N103 C104 1.333 . S
N103 C108 1.307 1_554 S
N103 Zn109 2.020 . S
C104 N103 1.333 . S
C104 C105 1.379 . S
C104 H122 0.952 . S
C105 C104 1.379 . S
C105 C106 1.390 . S
C105 H132 0.949 . S
C106 C105 1.390 . S
C106 C107 1.357 1_554 S
C107 C106 1.357 1_556 S
C107 C108 1.370 . S
C107 H133 0.950 . S
C108 N103 1.307 1_556 S
C108 C107 1.370 . S
C108 H126 0.948 . S
Zn109 N103 2.020 . S
Zn109 O118 2.039 . S
Zn109 O124 2.034 1_554 S
Zn109 O128 2.025 1_554 S
Zn109 O130 2.024 . S
C110 O129 1.246 . S
C110 O130 1.249 . S
N111 C112 1.307 1_556 S
N111 C113 1.333 . S
N111 Zn117 2.020 . S
C112 N111 1.307 1_554 S
C112 C116 1.370 . S
C112 H123 0.948 . S
C113 N111 1.333 . S
C113 C114 1.379 . S
C113 H121 0.952 . S
C114 C113 1.379 . S
C114 C115 1.390 . S
C114 H134 0.949 . S
C115 C114 1.390 . S
C115 C116 1.357 1_556 S
C116 C112 1.370 . S
C116 C115 1.357 1_554 S
C116 H135 0.950 . S
Zn117 N111 2.020 . S
Zn117 O120 2.025 1_556 S
Zn117 O125 2.024 . S
Zn117 O127 2.039 . S
Zn117 O129 2.034 1_556 S
O118 C102 1.251 . S
O118 Zn109 2.039 . S
C119 O124 1.246 . S
C119 O125 1.249 . S
O120 C102 1.254 . S
O120 Zn117 2.025 1_554 S
H121 C113 0.952 . S
H122 C104 0.952 . S
H123 C112 0.948 . S
O124 Zn109 2.034 1_556 S
O124 C119 1.246 . S
O125 Zn117 2.024 . S
O125 C119 1.249 . S
H126 C108 0.948 . S
O127 Zn117 2.039 . S
O127 C131 1.251 . S
O128 Zn109 2.025 1_556 S
O128 C131 1.254 . S
O129 C110 1.246 . S
O129 Zn117 2.034 1_554 S
O130 Zn109 2.024 . S
O130 C110 1.249 . S
C131 O127 1.251 . S
C131 O128 1.254 . S
H132 C105 0.949 . S
H133 C107 0.950 . S
H134 C114 0.949 . S
H135 C116 0.950 . S
C136 O152 1.251 . S
C136 O154 1.254 . S
N137 C138 1.333 . S
N137 C142 1.307 . S
N137 Zn143 2.020 . S
C138 N137 1.333 . S
C138 C139 1.379 . S
C138 H156 0.952 . S
C139 C138 1.379 . S
C139 C140 1.390 . S
C139 H166 0.949 . S
C140 C139 1.390 . S
C140 C141 1.357 . S
C141 C140 1.357 . S
C141 C142 1.370 . S
C141 H167 0.950 . S
C142 N137 1.307 . S
C142 C141 1.370 . S
C142 H160 0.948 . S
Zn143 N137 2.020 . S
Zn143 O152 2.039 . S
Zn143 O158 2.034 . S
Zn143 O162 2.025 . S
Zn143 O164 2.024 . S
C144 O163 1.246 . S
C144 O164 1.249 . S
N145 C146 1.307 . S
N145 C147 1.333 . S
N145 Zn151 2.020 . S
C146 N145 1.307 . S
C146 C150 1.370 . S
C146 H157 0.948 . S
C147 N145 1.333 . S
C147 C148 1.379 . S
C147 H155 0.952 . S
C148 C147 1.379 . S
C148 C149 1.390 . S
C148 H168 0.949 . S
C149 C148 1.390 . S
C149 C150 1.357 . S
C150 C146 1.370 . S
C150 C149 1.357 . S
C150 H169 0.950 . S
Zn151 N145 2.020 . S
Zn151 O154 2.025 . S
Zn151 O159 2.024 . S
Zn151 O161 2.039 . S
Zn151 O163 2.034 . S
O152 C136 1.251 . S
O152 Zn143 2.039 . S
C153 O158 1.246 . S
C153 O159 1.249 . S
O154 C136 1.254 . S
O154 Zn151 2.025 . S
H155 C147 0.952 . S
H156 C138 0.952 . S
H157 C146 0.948 . S
O158 Zn143 2.034 . S
O158 C153 1.246 . S
O159 Zn151 2.024 . S
O159 C153 1.249 . S
H160 C142 0.948 . S
O161 Zn151 2.039 . S
O161 C165 1.251 . S
O162 Zn143 2.025 . S
O162 C165 1.254 . S
O163 C144 1.246 . S
O163 Zn151 2.034 . S
O164 Zn143 2.024 . S
O164 C144 1.249 . S
C165 O161 1.251 . S
C165 O162 1.254 . S
H166 C139 0.949 . S
H167 C141 0.950 . S
H168 C148 0.949 . S
H169 C150 0.950 . S
C170 O186 1.251 . S
C170 O188 1.254 . S
N171 C172 1.333 . S
N171 C176 1.307 . S
N171 Zn177 2.020 . S
C172 N171 1.333 . S
C172 C173 1.379 . S
C172 H190 0.952 . S
C173 C172 1.379 . S
C173 C174 1.390 . S
C173 H200 0.949 . S
C174 C173 1.390 . S
C174 C175 1.357 . S
C175 C174 1.357 . S
C175 C176 1.370 . S
C175 H201 0.950 . S
C176 N171 1.307 . S
C176 C175 1.370 . S
C176 H194 0.948 . S
Zn177 N171 2.020 . S
Zn177 O186 2.039 . S
Zn177 O192 2.034 . S
Zn177 O196 2.025 . S
Zn177 O198 2.024 . S
C178 O197 1.246 . S
C178 O198 1.249 . S
N179 C180 1.307 . S
N179 C181 1.333 . S
N179 Zn185 2.020 . S
C180 N179 1.307 . S
C180 C184 1.370 . S
C180 H191 0.948 . S
C181 N179 1.333 . S
C181 C182 1.379 . S
C181 H189 0.952 . S
C182 C181 1.379 . S
C182 C183 1.390 . S
C182 H202 0.949 . S
C183 C182 1.390 . S
C183 C184 1.357 . S
C184 C180 1.370 . S
C184 C183 1.357 . S
C184 H203 0.950 . S
Zn185 N179 2.020 . S
Zn185 O188 2.025 . S
Zn185 O193 2.024 . S
Zn185 O195 2.039 . S
Zn185 O197 2.034 . S
O186 C170 1.251 . S
O186 Zn177 2.039 . S
C187 O192 1.246 . S
C187 O193 1.249 . S
O188 C170 1.254 . S
O188 Zn185 2.025 . S
H189 C181 0.952 . S
H190 C172 0.952 . S
H191 C180 0.948 . S
O192 Zn177 2.034 . S
O192 C187 1.246 . S
O193 Zn185 2.024 . S
O193 C187 1.249 . S
H194 C176 0.948 . S
O195 Zn185 2.039 . S
O195 C199 1.251 . S
O196 Zn177 2.025 . S
O196 C199 1.254 . S
O197 C178 1.246 . S
O197 Zn185 2.034 . S
O198 Zn177 2.024 . S
O198 C178 1.249 . S
C199 O195 1.251 . S
C199 O196 1.254 . S
H200 C173 0.949 . S
H201 C175 0.950 . S
H202 C182 0.949 . S
H203 C184 0.950 . S
C204 C205 1.386 . S
C204 C206 1.383 . S
C204 H220 0.951 . S
C205 C204 1.386 . S
C205 C209 1.383 . S
C206 C204 1.383 . S
C206 C207 1.402 . S
C206 H221 0.951 . S
C207 C206 1.402 . S
C207 C208 1.375 . S
C207 C210 1.481 . S
C208 C207 1.375 . S
C208 C209 1.367 . S
C208 H222 0.951 . S
C209 C205 1.383 . S
C209 C208 1.367 . S
C209 H223 0.950 . S
C210 C207 1.481 . S
C210 C211 1.297 . S
C210 H224 0.950 . S
C211 C210 1.297 . S
C211 C212 1.479 . S
C211 H225 0.950 . S
C212 C211 1.479 . S
C212 C213 1.375 . S
C212 C218 1.404 . S
C213 C212 1.375 . S
C213 C214 1.369 1_556 S
C213 H226 0.950 1_556 S
C214 C213 1.369 1_554 S
C214 C215 1.392 1_554 S
C214 H227 0.951 . S
C215 C214 1.392 1_556 S
C215 C217 1.384 . S
H216 C218 0.949 . S
C217 C215 1.384 . S
C217 C218 1.385 . S
C217 H219 0.950 . S
C218 C212 1.404 . S
C218 H216 0.949 . S
C218 C217 1.385 . S
H219 C217 0.950 . S
H220 C204 0.951 . S
H221 C206 0.951 . S
H222 C208 0.951 . S
H223 C209 0.950 . S
H224 C210 0.950 . S
H225 C211 0.950 . S
H226 C213 0.950 1_554 S
H227 C214 0.951 . S
C228 C229 1.386 . S
C228 C230 1.383 . S
C228 H244 0.951 . S
C229 C228 1.386 . S
C229 C233 1.383 . S
C230 C228 1.383 . S
C230 C231 1.402 . S
C230 H245 0.951 1_455 S
C231 C230 1.402 . S
C231 C232 1.375 . S
C231 C234 1.481 1_455 S
C232 C231 1.375 . S
C232 C233 1.367 . S
C232 H246 0.951 . S
C233 C229 1.383 . S
C233 C232 1.367 . S
C233 H247 0.950 . S
C234 C231 1.481 1_655 S
C234 C235 1.297 . S
C234 H248 0.950 . S
C235 C234 1.297 . S
C235 C236 1.479 . S
C235 H249 0.950 . S
C236 C235 1.479 . S
C236 C237 1.375 . S
C236 C242 1.404 . S
C237 C236 1.375 . S
C237 C238 1.369 . S
C237 H250 0.950 . S
C238 C237 1.369 . S
C238 C239 1.392 . S
C238 H251 0.951 . S
C239 C238 1.392 . S
C239 C241 1.384 . S
H240 C242 0.949 . S
C241 C239 1.384 . S
C241 C242 1.385 . S
C241 H243 0.950 . S
C242 C236 1.404 . S
C242 H240 0.949 . S
C242 C241 1.385 . S
H243 C241 0.950 . S
H244 C228 0.951 . S
H245 C230 0.951 1_655 S
H246 C232 0.951 . S
H247 C233 0.950 . S
H248 C234 0.950 . S
H249 C235 0.950 . S
H250 C237 0.950 . S
H251 C238 0.951 . S
C252 C253 1.386 . S
C252 C254 1.383 . S
C252 H268 0.951 . S
C253 C252 1.386 . S
C253 C257 1.383 . S
C254 C252 1.383 . S
C254 C255 1.402 . S
C254 H269 0.951 1_545 S
C255 C254 1.402 . S
C255 C256 1.375 . S
C255 C258 1.481 1_545 S
C256 C255 1.375 . S
C256 C257 1.367 . S
C256 H270 0.951 . S
C257 C253 1.383 . S
C257 C256 1.367 . S
C257 H271 0.950 . S
C258 C255 1.481 1_565 S
C258 C259 1.297 . S
C258 H272 0.950 . S
C259 C258 1.297 . S
C259 C260 1.479 . S
C259 H273 0.950 . S
C260 C259 1.479 . S
C260 C261 1.375 . S
C260 C266 1.404 . S
C261 C260 1.375 . S
C261 C262 1.369 . S
C261 H274 0.950 . S
C262 C261 1.369 . S
C262 C263 1.392 . S
C262 H275 0.951 . S
C263 C262 1.392 . S
C263 C265 1.384 . S
H264 C266 0.949 . S
C265 C263 1.384 . S
C265 C266 1.385 . S
C265 H267 0.950 . S
C266 C260 1.404 . S
C266 H264 0.949 . S
C266 C265 1.385 . S
H267 C265 0.950 . S
H268 C252 0.951 . S
H269 C254 0.951 1_565 S
H270 C256 0.951 . S
H271 C257 0.950 . S
H272 C258 0.950 . S
H273 C259 0.950 . S
H274 C261 0.950 . S
H275 C262 0.951 . S
C276 C277 1.386 . S
C276 C278 1.383 . S
C276 H292 0.951 . S
C277 C276 1.386 . S
C277 C281 1.383 . S
C278 C276 1.383 . S
C278 C279 1.402 . S
C278 H293 0.951 . S
C279 C278 1.402 . S
C279 C280 1.375 . S
C279 C282 1.481 . S
C280 C279 1.375 . S
C280 C281 1.367 . S
C280 H294 0.951 . S
C281 C277 1.383 . S
C281 C280 1.367 . S
C281 H295 0.950 . S
C282 C279 1.481 . S
C282 C283 1.297 . S
C282 H296 0.950 . S
C283 C282 1.297 . S
C283 C284 1.479 . S
C283 H297 0.950 . S
C284 C283 1.479 . S
C284 C285 1.375 . S
C284 C290 1.404 . S
C285 C284 1.375 . S
C285 C286 1.369 . S
C285 H298 0.950 . S
C286 C285 1.369 . S
C286 C287 1.392 . S
C286 H299 0.951 . S
C287 C286 1.392 . S
C287 C289 1.384 . S
H288 C290 0.949 . S
C289 C287 1.384 . S
C289 C290 1.385 . S
C289 H291 0.950 . S
C290 C284 1.404 . S
C290 H288 0.949 . S
C290 C289 1.385 . S
H291 C289 0.950 . S
H292 C276 0.951 . S
H293 C278 0.951 . S
H294 C280 0.951 . S
H295 C281 0.950 . S
H296 C282 0.950 . S
H297 C283 0.950 . S
H298 C285 0.950 . S
H299 C286 0.951 . S
C300 C301 1.386 . S
C300 C302 1.383 . S
C300 H316 0.951 . S
C301 C300 1.386 . S
C301 C305 1.383 . S
C302 C300 1.383 . S
C302 C303 1.402 . S
C302 H317 0.951 . S
C303 C302 1.402 . S
C303 C304 1.375 . S
C303 C306 1.481 1_455 S
C304 C303 1.375 . S
C304 C305 1.367 . S
C304 H318 0.951 . S
C305 C301 1.383 . S
C305 C304 1.367 . S
C305 H319 0.950 . S
C306 C303 1.481 1_655 S
C306 C307 1.297 . S
C306 H320 0.950 . S
C307 C306 1.297 . S
C307 C308 1.479 . S
C307 H321 0.950 . S
C308 C307 1.479 . S
C308 C309 1.375 . S
C308 C314 1.404 . S
C309 C308 1.375 . S
C309 C310 1.369 . S
C309 H322 0.950 . S
C310 C309 1.369 . S
C310 C311 1.392 . S
C310 H323 0.951 . S
C311 C310 1.392 . S
C311 C313 1.384 . S
H312 C314 0.949 . S
C313 C311 1.384 . S
C313 C314 1.385 . S
C313 H315 0.950 . S
C314 C308 1.404 . S
C314 H312 0.949 . S
C314 C313 1.385 . S
H315 C313 0.950 . S
H316 C300 0.951 . S
H317 C302 0.951 . S
H318 C304 0.951 . S
H319 C305 0.950 . S
H320 C306 0.950 . S
H321 C307 0.950 . S
H322 C309 0.950 . S
H323 C310 0.951 . S
C324 C325 1.386 . S
C324 C326 1.383 . S
C324 H340 0.951 . S
C325 C324 1.386 . S
C325 C329 1.383 . S
C326 C324 1.383 . S
C326 C327 1.402 . S
C326 H341 0.951 1_545 S
C327 C326 1.402 . S
C327 C328 1.375 . S
C327 C330 1.481 1_545 S
C328 C327 1.375 . S
C328 C329 1.367 . S
C328 H342 0.951 . S
C329 C325 1.383 . S
C329 C328 1.367 . S
C329 H343 0.950 . S
C330 C327 1.481 1_565 S
C330 C331 1.297 . S
C330 H344 0.950 . S
C331 C330 1.297 . S
C331 C332 1.479 . S
C331 H345 0.950 . S
C332 C331 1.479 . S
C332 C333 1.375 . S
C332 C338 1.404 . S
C333 C332 1.375 . S
C333 C334 1.369 . S
C333 H346 0.950 . S
C334 C333 1.369 . S
C334 C335 1.392 . S
C334 H347 0.951 . S
C335 C334 1.392 . S
C335 C337 1.384 . S
H336 C338 0.949 . S
C337 C335 1.384 . S
C337 C338 1.385 . S
C337 H339 0.950 . S
C338 C332 1.404 . S
C338 H336 0.949 . S
C338 C337 1.385 . S
H339 C337 0.950 . S
H340 C324 0.951 . S
H341 C326 0.951 1_565 S
H342 C328 0.951 . S
H343 C329 0.950 . S
H344 C330 0.950 . S
H345 C331 0.950 . S
H346 C333 0.950 . S
H347 C334 0.951 . S
C348 C349 1.386 . S
C348 C350 1.383 . S
C348 H364 0.951 . S
C349 C348 1.386 . S
C349 C353 1.383 . S
C350 C348 1.383 . S
C350 C351 1.402 . S
C350 H365 0.951 . S
C351 C350 1.402 . S
C351 C352 1.375 . S
C351 C354 1.481 . S
C352 C351 1.375 . S
C352 C353 1.367 . S
C352 H366 0.951 . S
C353 C349 1.383 . S
C353 C352 1.367 . S
C353 H367 0.950 . S
C354 C351 1.481 . S
C354 C355 1.297 . S
C354 H368 0.950 . S
C355 C354 1.297 . S
C355 C356 1.479 . S
C355 H369 0.950 . S
C356 C355 1.479 . S
C356 C357 1.375 . S
C356 C362 1.404 . S
C357 C356 1.375 . S
C357 C358 1.369 . S
C357 H370 0.950 . S
C358 C357 1.369 . S
C358 C359 1.392 . S
C358 H371 0.951 . S
C359 C358 1.392 . S
C359 C361 1.384 . S
H360 C362 0.949 . S
C361 C359 1.384 . S
C361 C362 1.385 . S
C361 H363 0.950 . S
C362 C356 1.404 . S
C362 H360 0.949 . S
C362 C361 1.385 . S
H363 C361 0.950 . S
H364 C348 0.951 . S
H365 C350 0.951 . S
H366 C352 0.951 . S
H367 C353 0.950 . S
H368 C354 0.950 . S
H369 C355 0.950 . S
H370 C357 0.950 . S
H371 C358 0.951 . S
C372 C373 1.386 . S
C372 C374 1.383 1_554 S
C372 H388 0.951 . S
C373 C372 1.386 . S
C373 C377 1.383 . S
C374 C372 1.383 1_556 S
C374 C375 1.402 . S
C374 H389 0.951 . S
C375 C374 1.402 . S
C375 C376 1.376 . S
C375 C378 1.481 . S
C376 C375 1.376 . S
C376 C377 1.366 1_556 S
C376 H390 0.952 . S
C377 C373 1.383 . S
C377 C376 1.366 1_554 S
C377 H391 0.950 . S
C378 C375 1.481 . S
C378 C379 1.297 . S
C378 H392 0.950 . S
C379 C378 1.297 . S
C379 C380 1.479 . S
C379 H393 0.950 . S
C380 C379 1.479 . S
C380 C381 1.375 . S
C380 C386 1.404 . S
C381 C380 1.375 . S
C381 C382 1.369 . S
C381 H394 0.950 . S
C382 C381 1.369 . S
C382 C383 1.392 . S
C382 H395 0.951 . S
C383 C382 1.392 . S
C383 C385 1.384 . S
H384 C386 0.949 . S
C385 C383 1.384 . S
C385 C386 1.385 . S
C385 H387 0.950 . S
C386 C380 1.404 . S
C386 H384 0.949 . S
C386 C385 1.385 . S
H387 C385 0.950 . S
H388 C372 0.951 . S
H389 C374 0.951 . S
H390 C376 0.952 . S
H391 C377 0.950 . S
H392 C378 0.950 . S
H393 C379 0.950 . S
H394 C381 0.950 . S
H395 C382 0.951 . S
C396 C397 1.386 . S
C396 C398 1.383 . S
C396 H412 0.951 . S
C397 C396 1.386 . S
C397 C401 1.383 . S
C398 C396 1.383 . S
C398 C399 1.402 . S
C398 H413 0.951 . S
C399 C398 1.402 . S
C399 C400 1.375 . S
C399 C402 1.481 . S
C400 C399 1.375 . S
C400 C401 1.367 . S
C400 H414 0.951 . S
C401 C397 1.383 . S
C401 C400 1.367 . S
C401 H415 0.950 . S
C402 C399 1.481 . S
C402 C403 1.297 . S
C402 H416 0.950 . S
C403 C402 1.297 . S
C403 C404 1.479 . S
C403 H417 0.950 . S
C404 C403 1.479 . S
C404 C405 1.375 . S
C404 C410 1.404 . S
C405 C404 1.375 . S
C405 C406 1.369 1_554 S
C405 H418 0.950 . S
C406 C405 1.369 1_556 S
C406 C407 1.392 . S
C406 H419 0.951 . S
C407 C406 1.392 . S
C407 C409 1.384 . S
H408 C410 0.949 . S
C409 C407 1.384 . S
C409 C410 1.385 1_556 S
C409 H411 0.950 . S
C410 C404 1.404 . S
C410 H408 0.949 . S
C410 C409 1.385 1_554 S
H411 C409 0.950 . S
H412 C396 0.951 . S
H413 C398 0.951 . S
H414 C400 0.951 . S
H415 C401 0.950 . S
H416 C402 0.950 . S
H417 C403 0.950 . S
H418 C405 0.950 . S
H419 C406 0.951 . S
C420 C421 1.386 . S
C420 C422 1.383 . S
C420 H436 0.951 . S
C421 C420 1.386 . S
C421 C425 1.383 . S
C422 C420 1.383 . S
C422 C423 1.402 . S
C422 H437 0.951 . S
C423 C422 1.402 . S
C423 C424 1.375 . S
C423 C426 1.481 . S
C424 C423 1.375 . S
C424 C425 1.367 . S
C424 H438 0.951 . S
C425 C421 1.383 . S
C425 C424 1.367 . S
C425 H439 0.950 . S
C426 C423 1.481 . S
C426 C427 1.297 . S
C426 H440 0.950 . S
C427 C426 1.297 . S
C427 C428 1.479 . S
C427 H441 0.950 . S
C428 C427 1.479 . S
C428 C429 1.375 . S
C428 C434 1.404 . S
C429 C428 1.375 . S
C429 C430 1.369 . S
C429 H442 0.950 . S
C430 C429 1.369 . S
C430 C431 1.392 . S
C430 H443 0.951 . S
C431 C430 1.392 . S
C431 C433 1.384 . S
H432 C434 0.949 . S
C433 C431 1.384 . S
C433 C434 1.385 . S
C433 H435 0.950 . S
C434 C428 1.404 . S
C434 H432 0.949 . S
C434 C433 1.385 . S
H435 C433 0.950 . S
H436 C420 0.951 . S
H437 C422 0.951 . S
H438 C424 0.951 . S
H439 C425 0.950 . S
H440 C426 0.950 . S
H441 C427 0.950 . S
H442 C429 0.950 . S
H443 C430 0.951 . S
C444 C445 1.386 . S
C444 C446 1.383 . S
C444 H460 0.951 . S
C445 C444 1.386 . S
C445 C449 1.383 . S
C446 C444 1.383 . S
C446 C447 1.402 . S
C446 H461 0.951 . S
C447 C446 1.402 . S
C447 C448 1.375 . S
C447 C450 1.481 . S
C448 C447 1.375 . S
C448 C449 1.367 . S
C448 H462 0.951 . S
C449 C445 1.383 . S
C449 C448 1.367 . S
C449 H463 0.950 . S
C450 C447 1.481 . S
C450 C451 1.297 . S
C450 H464 0.950 . S
C451 C450 1.297 . S
C451 C452 1.479 1_556 S
C451 H465 0.950 . S
C452 C451 1.479 1_554 S
C452 C453 1.375 . S
C452 C458 1.404 . S
C453 C452 1.375 . S
C453 C454 1.369 . S
C453 H466 0.950 . S
C454 C453 1.369 . S
C454 C455 1.392 . S
C454 H467 0.951 . S
C455 C454 1.392 . S
C455 C457 1.384 . S
H456 C458 0.949 . S
C457 C455 1.384 . S
C457 C458 1.385 . S
C457 H459 0.950 . S
C458 C452 1.404 . S
C458 H456 0.949 . S
C458 C457 1.385 . S
H459 C457 0.950 . S
H460 C444 0.951 . S
H461 C446 0.951 . S
H462 C448 0.951 . S
H463 C449 0.950 . S
H464 C450 0.950 . S
H465 C451 0.950 . S
H466 C453 0.950 . S
H467 C454 0.951 . S
C468 C469 1.386 . S
C468 C470 1.383 . S
C468 H484 0.951 . S
C469 C468 1.386 . S
C469 C473 1.383 . S
C470 C468 1.383 . S
C470 C471 1.402 . S
C470 H485 0.951 . S
C471 C470 1.402 . S
C471 C472 1.375 . S
C471 C474 1.481 . S
C472 C471 1.375 . S
C472 C473 1.367 . S
C472 H486 0.951 . S
C473 C469 1.383 . S
C473 C472 1.367 . S
C473 H487 0.950 . S
C474 C471 1.481 . S
C474 C475 1.297 . S
C474 H488 0.950 . S
C475 C474 1.297 . S
C475 C476 1.479 . S
C475 H489 0.950 . S
C476 C475 1.479 . S
C476 C477 1.375 1_554 S
C476 C482 1.404 . S
C477 C476 1.375 1_556 S
C477 C478 1.369 . S
C477 H490 0.950 1_556 S
C478 C477 1.369 . S
C478 C479 1.392 . S
C478 H491 0.951 . S
C479 C478 1.392 . S
C479 C481 1.384 . S
H480 C482 0.949 . S
C481 C479 1.384 . S
C481 C482 1.385 1_556 S
C481 H483 0.950 . S
C482 C476 1.404 . S
C482 H480 0.949 . S
C482 C481 1.385 1_554 S
H483 C481 0.950 . S
H484 C468 0.951 . S
H485 C470 0.951 . S
H486 C472 0.951 . S
H487 C473 0.950 . S
H488 C474 0.950 . S
H489 C475 0.950 . S
H490 C477 0.950 1_554 S
H491 C478 0.951 . S
C492 C493 1.386 . S
C492 C494 1.383 . S
C492 H508 0.951 . S
C493 C492 1.386 . S
C493 C497 1.383 . S
C494 C492 1.383 . S
C494 C495 1.402 . S
C494 H509 0.951 . S
C495 C494 1.402 . S
C495 C496 1.375 . S
C495 C498 1.481 . S
C496 C495 1.375 . S
C496 C497 1.367 . S
C496 H510 0.951 . S
C497 C493 1.383 . S
C497 C496 1.367 . S
C497 H511 0.950 . S
C498 C495 1.481 . S
C498 C499 1.297 . S
C498 H512 0.950 . S
C499 C498 1.297 . S
C499 C500 1.479 . S
C499 H513 0.950 . S
C500 C499 1.479 . S
C500 C501 1.375 . S
C500 C506 1.404 . S
C501 C500 1.375 . S
C501 C502 1.369 . S
C501 H514 0.950 . S
C502 C501 1.369 . S
C502 C503 1.392 . S
C502 H515 0.951 . S
C503 C502 1.392 . S
C503 C505 1.384 . S
H504 C506 0.949 . S
C505 C503 1.384 . S
C505 C506 1.385 . S
C505 H507 0.950 . S
C506 C500 1.404 . S
C506 H504 0.949 . S
C506 C505 1.385 . S
H507 C505 0.950 . S
H508 C492 0.951 . S
H509 C494 0.951 . S
H510 C496 0.951 . S
H511 C497 0.950 . S
H512 C498 0.950 . S
H513 C499 0.950 . S
H514 C501 0.950 . S
H515 C502 0.951 . S
C516 C517 1.386 . S
C516 C518 1.383 . S
C516 H532 0.951 . S
C517 C516 1.386 . S
C517 C521 1.383 . S
C518 C516 1.383 . S
C518 C519 1.402 . S
C518 H533 0.951 . S
C519 C518 1.402 . S
C519 C520 1.375 . S
C519 C522 1.481 . S
C520 C519 1.375 . S
C520 C521 1.367 . S
C520 H534 0.951 . S
C521 C517 1.383 . S
C521 C520 1.367 . S
C521 H535 0.950 . S
C522 C519 1.481 . S
C522 C523 1.297 . S
C522 H536 0.950 . S
C523 C522 1.297 . S
C523 C524 1.479 . S
C523 H537 0.950 . S
C524 C523 1.479 . S
C524 C525 1.375 . S
C524 C530 1.404 . S
C525 C524 1.375 . S
C525 C526 1.369 . S
C525 H538 0.950 . S
C526 C525 1.369 . S
C526 C527 1.392 . S
C526 H539 0.951 . S
C527 C526 1.392 . S
C527 C529 1.384 . S
H528 C530 0.949 . S
C529 C527 1.384 . S
C529 C530 1.385 . S
C529 H531 0.950 . S
C530 C524 1.404 . S
C530 H528 0.949 . S
C530 C529 1.385 . S
H531 C529 0.950 . S
H532 C516 0.951 . S
H533 C518 0.951 . S
H534 C520 0.951 . S
H535 C521 0.950 . S
H536 C522 0.950 . S
H537 C523 0.950 . S
H538 C525 0.950 . S
H539 C526 0.951 . S
C540 C541 1.386 . S
C540 C542 1.383 1_554 S
C540 H556 0.951 . S
C541 C540 1.386 . S
C541 C545 1.383 1_554 S
C542 C540 1.383 1_556 S
C542 C543 1.402 . S
C542 H557 0.950 1_556 S
C543 C542 1.402 . S
C543 C544 1.375 . S
C543 C546 1.481 . S
C544 C543 1.375 . S
C544 C545 1.367 . S
C544 H558 0.951 . S
C545 C541 1.383 1_556 S
C545 C544 1.367 . S
C545 H559 0.950 . S
C546 C543 1.481 . S
C546 C547 1.297 . S
C546 H560 0.950 . S
C547 C546 1.297 . S
C547 C548 1.479 . S
C547 H561 0.950 . S
C548 C547 1.479 . S
C548 C549 1.375 . S
C548 C554 1.404 . S
C549 C548 1.375 . S
C549 C550 1.369 . S
C549 H562 0.950 . S
C550 C549 1.369 . S
C550 C551 1.392 . S
C550 H563 0.951 . S
C551 C550 1.392 . S
C551 C553 1.384 . S
H552 C554 0.949 . S
C553 C551 1.384 . S
C553 C554 1.385 . S
C553 H555 0.950 . S
C554 C548 1.404 . S
C554 H552 0.949 . S
C554 C553 1.385 . S
H555 C553 0.950 . S
H556 C540 0.951 . S
H557 C542 0.950 1_554 S
H558 C544 0.951 . S
H559 C545 0.950 . S
H560 C546 0.950 . S
H561 C547 0.950 . S
H562 C549 0.950 . S
H563 C550 0.951 . S
C564 C565 1.386 . S
C564 C566 1.383 . S
C564 H580 0.951 . S
C565 C564 1.386 . S
C565 C569 1.383 . S
C566 C564 1.383 . S
C566 C567 1.402 . S
C566 H581 0.951 . S
C567 C566 1.402 . S
C567 C568 1.375 . S
C567 C570 1.481 . S
C568 C567 1.375 . S
C568 C569 1.367 . S
C568 H582 0.951 . S
C569 C565 1.383 . S
C569 C568 1.367 . S
C569 H583 0.950 . S
C570 C567 1.481 . S
C570 C571 1.297 . S
C570 H584 0.950 . S
C571 C570 1.297 . S
C571 C572 1.479 . S
C571 H585 0.950 . S
C572 C571 1.479 . S
C572 C573 1.375 . S
C572 C578 1.404 . S
C573 C572 1.375 . S
C573 C574 1.369 . S
C573 H586 0.950 . S
C574 C573 1.369 . S
C574 C575 1.392 . S
C574 H587 0.951 . S
C575 C574 1.392 . S
C575 C577 1.384 . S
H576 C578 0.949 . S
C577 C575 1.384 . S
C577 C578 1.385 . S
C577 H579 0.950 . S
C578 C572 1.404 . S
C578 H576 0.949 . S
C578 C577 1.385 . S
H579 C577 0.950 . S
H580 C564 0.951 . S
H581 C566 0.951 . S
H582 C568 0.951 . S
H583 C569 0.950 . S
H584 C570 0.950 . S
H585 C571 0.950 . S
H586 C573 0.950 . S
H587 C574 0.951 . S
C588 C589 1.386 . S
C588 C590 1.383 . S
C588 H604 0.951 . S
C589 C588 1.386 . S
C589 C593 1.383 . S
C590 C588 1.383 . S
C590 C591 1.402 . S
C590 H605 0.951 . S
C591 C590 1.402 . S
C591 C592 1.375 . S
C591 C594 1.481 . S
C592 C591 1.375 . S
C592 C593 1.367 . S
C592 H606 0.951 . S
C593 C589 1.383 . S
C593 C592 1.367 . S
C593 H607 0.950 . S
C594 C591 1.481 . S
C594 C595 1.297 . S
C594 H608 0.950 . S
C595 C594 1.297 . S
C595 C596 1.479 . S
C595 H609 0.950 . S
C596 C595 1.479 . S
C596 C597 1.375 . S
C596 C602 1.404 . S
C597 C596 1.375 . S
C597 C598 1.369 . S
C597 H610 0.950 . S
C598 C597 1.369 . S
C598 C599 1.392 . S
C598 H611 0.951 . S
C599 C598 1.392 . S
C599 C601 1.384 . S
H600 C602 0.949 . S
C601 C599 1.384 . S
C601 C602 1.385 . S
C601 H603 0.950 . S
C602 C596 1.404 . S
C602 H600 0.949 . S
C602 C601 1.385 . S
H603 C601 0.950 . S
H604 C588 0.951 . S
H605 C590 0.951 . S
H606 C592 0.951 . S
H607 C593 0.950 . S
H608 C594 0.950 . S
H609 C595 0.950 . S
H610 C597 0.950 . S
H611 C598 0.951 . S
C612 C613 1.386 . S
C612 C614 1.383 . S
C612 H628 0.951 . S
C613 C612 1.386 . S
C613 C617 1.383 . S
C614 C612 1.383 . S
C614 C615 1.402 . S
C614 H629 0.951 . S
C615 C614 1.402 . S
C615 C616 1.375 . S
C615 C618 1.481 . S
C616 C615 1.375 . S
C616 C617 1.367 . S
C616 H630 0.951 1_556 S
C617 C613 1.383 . S
C617 C616 1.367 . S
C617 H631 0.950 1_556 S
C618 C615 1.481 . S
C618 C619 1.297 . S
C618 H632 0.950 . S
C619 C618 1.297 . S
C619 C620 1.479 . S
C619 H633 0.950 . S
C620 C619 1.479 . S
C620 C621 1.375 . S
C620 C626 1.404 . S
C621 C620 1.375 . S
C621 C622 1.369 . S
C621 H634 0.950 . S
C622 C621 1.369 . S
C622 C623 1.392 . S
C622 H635 0.951 . S
C623 C622 1.392 . S
C623 C625 1.384 . S
H624 C626 0.949 . S
C625 C623 1.384 . S
C625 C626 1.385 . S
C625 H627 0.950 . S
C626 C620 1.404 . S
C626 H624 0.949 . S
C626 C625 1.385 . S
H627 C625 0.950 . S
H628 C612 0.951 . S
H629 C614 0.951 . S
H630 C616 0.951 1_554 S
H631 C617 0.950 1_554 S
H632 C618 0.950 . S
H633 C619 0.950 . S
H634 C621 0.950 . S
H635 C622 0.951 . S
C205 C174 1.369 . S
C215 C4 1.330 1_556 S
C229 C17 1.609 . S
C239 C51 1.620 . S
C253 C38 1.366 . S
C263 C72 1.398 . S
C277 C85 1.615 . S
C287 C119 1.590 . S
C301 C140 1.352 . S
C311 C106 1.373 . S
C325 C187 1.615 . S
C335 C153 1.621 . S
C349 C0 0.844 . S
C359 C29 0.798 . S
C373 C63 0.825 . S
C383 C34 0.852 . S
C397 C68 0.839 . S
C407 C97 0.789 . S
C421 C131 0.822 . S
C431 C102 0.854 . S
C445 C165 0.837 . S
C455 C136 0.834 . S
C469 C199 0.804 . S
C479 C170 0.841 . S
C493 C13 1.657 . S
C503 C144 1.701 . S
C517 C42 1.706 . S
C527 C183 1.685 . S
C541 C8 1.708 . S
C551 C81 1.666 . S
C565 C47 1.647 . S
C575 C110 1.705 . S
C589 C149 1.662 . S
C599 C76 1.700 . S
C613 C115 1.658 . S
C623 C178 1.707 . S
