# Generated by pormake.
# Topology wmi, (6)-cn, num edge types: 1
# Building blocks:
#     Node 0, Type 0, BuildingBlock: JUFBIX_clean_sbu_0, # of connection points: 6
#     Node 1, Type 0, BuildingBlock: JUFBIX_clean_sbu_0, # of connection points: 6
#     Node 2, Type 0, BuildingBlock: JUFBIX_clean_sbu_0, # of connection points: 6
#     Node 3, Type 0, BuildingBlock: JUFBIX_clean_sbu_0, # of connection points: 6
#     Node 4, Type 0, BuildingBlock: JUFBIX_clean_sbu_0, # of connection points: 6
#     Node 5, Type 0, BuildingBlock: JUFBIX_clean_sbu_0, # of connection points: 6
#     Node 6, Type 0, BuildingBlock: JUFBIX_clean_sbu_0, # of connection points: 6
#     Node 7, Type 0, BuildingBlock: JUFBIX_clean_sbu_0, # of connection points: 6
#     Node 8, Type 0, BuildingBlock: JUFBIX_clean_sbu_0, # of connection points: 6
#     Node 9, Type 0, BuildingBlock: JUFBIX_clean_sbu_0, # of connection points: 6
#     Node 10, Type 0, BuildingBlock: JUFBIX_clean_sbu_0, # of connection points: 6
#     Node 11, Type 0, BuildingBlock: JUFBIX_clean_sbu_0, # of connection points: 6
#     Node 12, Type 0, BuildingBlock: JUFBIX_clean_sbu_0, # of connection points: 6
#     Node 13, Type 0, BuildingBlock: JUFBIX_clean_sbu_0, # of connection points: 6
#     Node 14, Type 0, BuildingBlock: JUFBIX_clean_sbu_0, # of connection points: 6
#     Node 15, Type 0, BuildingBlock: JUFBIX_clean_sbu_0, # of connection points: 6
#     Node 16, Type 0, BuildingBlock: JUFBIX_clean_sbu_0, # of connection points: 6
#     Node 17, Type 0, BuildingBlock: JUFBIX_clean_sbu_0, # of connection points: 6
#     Edge 18, Type (0, 0), BuildingBlock: AJUNOK_clean_linker_0, # of connection points: 2
#     Edge 19, Type (0, 0), BuildingBlock: AJUNOK_clean_linker_0, # of connection points: 2
#     Edge 20, Type (0, 0), BuildingBlock: AJUNOK_clean_linker_0, # of connection points: 2
#     Edge 21, Type (0, 0), BuildingBlock: AJUNOK_clean_linker_0, # of connection points: 2
#     Edge 22, Type (0, 0), BuildingBlock: AJUNOK_clean_linker_0, # of connection points: 2
#     Edge 23, Type (0, 0), BuildingBlock: AJUNOK_clean_linker_0, # of connection points: 2
#     Edge 24, Type (0, 0), BuildingBlock: AJUNOK_clean_linker_0, # of connection points: 2
#     Edge 25, Type (0, 0), BuildingBlock: AJUNOK_clean_linker_0, # of connection points: 2
#     Edge 26, Type (0, 0), BuildingBlock: AJUNOK_clean_linker_0, # of connection points: 2
#     Edge 27, Type (0, 0), BuildingBlock: AJUNOK_clean_linker_0, # of connection points: 2
#     Edge 28, Type (0, 0), BuildingBlock: AJUNOK_clean_linker_0, # of connection points: 2
#     Edge 29, Type (0, 0), BuildingBlock: AJUNOK_clean_linker_0, # of connection points: 2
#     Edge 30, Type (0, 0), BuildingBlock: AJUNOK_clean_linker_0, # of connection points: 2
#     Edge 31, Type (0, 0), BuildingBlock: AJUNOK_clean_linker_0, # of connection points: 2
#     Edge 32, Type (0, 0), BuildingBlock: AJUNOK_clean_linker_0, # of connection points: 2
#     Edge 33, Type (0, 0), BuildingBlock: AJUNOK_clean_linker_0, # of connection points: 2
#     Edge 34, Type (0, 0), BuildingBlock: AJUNOK_clean_linker_0, # of connection points: 2
#     Edge 35, Type (0, 0), BuildingBlock: AJUNOK_clean_linker_0, # of connection points: 2
#     Edge 36, Type (0, 0), BuildingBlock: AJUNOK_clean_linker_0, # of connection points: 2
#     Edge 37, Type (0, 0), BuildingBlock: AJUNOK_clean_linker_0, # of connection points: 2
#     Edge 38, Type (0, 0), BuildingBlock: AJUNOK_clean_linker_0, # of connection points: 2
#     Edge 39, Type (0, 0), BuildingBlock: AJUNOK_clean_linker_0, # of connection points: 2
#     Edge 40, Type (0, 0), BuildingBlock: AJUNOK_clean_linker_0, # of connection points: 2
#     Edge 41, Type (0, 0), BuildingBlock: AJUNOK_clean_linker_0, # of connection points: 2
#     Edge 42, Type (0, 0), BuildingBlock: AJUNOK_clean_linker_0, # of connection points: 2
#     Edge 43, Type (0, 0), BuildingBlock: AJUNOK_clean_linker_0, # of connection points: 2
#     Edge 44, Type (0, 0), BuildingBlock: AJUNOK_clean_linker_0, # of connection points: 2
#     Edge 45, Type (0, 0), BuildingBlock: AJUNOK_clean_linker_0, # of connection points: 2
#     Edge 46, Type (0, 0), BuildingBlock: AJUNOK_clean_linker_0, # of connection points: 2
#     Edge 47, Type (0, 0), BuildingBlock: AJUNOK_clean_linker_0, # of connection points: 2
#     Edge 48, Type (0, 0), BuildingBlock: AJUNOK_clean_linker_0, # of connection points: 2
#     Edge 49, Type (0, 0), BuildingBlock: AJUNOK_clean_linker_0, # of connection points: 2
#     Edge 50, Type (0, 0), BuildingBlock: AJUNOK_clean_linker_0, # of connection points: 2
#     Edge 51, Type (0, 0), BuildingBlock: AJUNOK_clean_linker_0, # of connection points: 2
#     Edge 52, Type (0, 0), BuildingBlock: AJUNOK_clean_linker_0, # of connection points: 2
#     Edge 53, Type (0, 0), BuildingBlock: AJUNOK_clean_linker_0, # of connection points: 2
#     Edge 54, Type (0, 0), BuildingBlock: AJUNOK_clean_linker_0, # of connection points: 2
#     Edge 55, Type (0, 0), BuildingBlock: AJUNOK_clean_linker_0, # of connection points: 2
#     Edge 56, Type (0, 0), BuildingBlock: AJUNOK_clean_linker_0, # of connection points: 2
#     Edge 57, Type (0, 0), BuildingBlock: AJUNOK_clean_linker_0, # of connection points: 2
#     Edge 58, Type (0, 0), BuildingBlock: AJUNOK_clean_linker_0, # of connection points: 2
#     Edge 59, Type (0, 0), BuildingBlock: AJUNOK_clean_linker_0, # of connection points: 2
#     Edge 60, Type (0, 0), BuildingBlock: AJUNOK_clean_linker_0, # of connection points: 2
#     Edge 61, Type (0, 0), BuildingBlock: AJUNOK_clean_linker_0, # of connection points: 2
#     Edge 62, Type (0, 0), BuildingBlock: AJUNOK_clean_linker_0, # of connection points: 2
#     Edge 63, Type (0, 0), BuildingBlock: AJUNOK_clean_linker_0, # of connection points: 2
#     Edge 64, Type (0, 0), BuildingBlock: AJUNOK_clean_linker_0, # of connection points: 2
#     Edge 65, Type (0, 0), BuildingBlock: AJUNOK_clean_linker_0, # of connection points: 2
#     Edge 66, Type (0, 0), BuildingBlock: AJUNOK_clean_linker_0, # of connection points: 2
#     Edge 67, Type (0, 0), BuildingBlock: AJUNOK_clean_linker_0, # of connection points: 2
#     Edge 68, Type (0, 0), BuildingBlock: AJUNOK_clean_linker_0, # of connection points: 2
#     Edge 69, Type (0, 0), BuildingBlock: AJUNOK_clean_linker_0, # of connection points: 2
#     Edge 70, Type (0, 0), BuildingBlock: AJUNOK_clean_linker_0, # of connection points: 2
#     Edge 71, Type (0, 0), BuildingBlock: AJUNOK_clean_linker_0, # of connection points: 2
# Relax obj value: 0.319
# Max RMSD: 0.244
# Mean RMSD: 0.244
data_MOF--net-wmi--node1-JUFBIX_clean_sbu_0--edge1-AJUNOK_clean_linker_0
_symmetry_space_group_name_H-M    P1
_symmetry_Int_Tables_number       1
_symmetry_cell_setting            triclinic
loop_
_symmetry_equiv_pos_as_xyz
'x, y, z'
_cell_length_a     25.59117
_cell_length_b     25.571137
_cell_length_c     59.907378
_cell_angle_alpha  90.027486
_cell_angle_beta   89.982526
_cell_angle_gamma 120.23495
loop_
_atom_site_label
_atom_site_type_symbol
_atom_site_fract_x
_atom_site_fract_y
_atom_site_fract_z
_atom_type_partial_charge
Co0 Co 0.51254 0.98201 0.12844 0.0
C1 C 0.52902 0.02624 0.08482 0.0
Co2 Co 0.48617 0.05099 0.12368 0.0
C3 C 0.55305 0.89722 0.11807 0.0
C4 C 0.55746 0.91704 0.15294 0.0
N5 N 0.53916 0.92756 0.13319 0.0
N6 N 0.57998 0.86892 0.12759 0.0
C7 C 0.58204 0.88077 0.14959 0.0
H8 H 0.54515 0.8972 0.10033 0.0
H9 H 0.55484 0.93597 0.16876 0.0
C10 C 0.45545 0.99843 0.16573 0.0
N11 N 0.46265 0.10965 0.12007 0.0
C12 C 0.49807 0.1706 0.11793 0.0
C13 C 0.40604 0.10042 0.12185 0.0
N14 N 0.4659 0.19953 0.11834 0.0
C15 C 0.4079 0.15516 0.1208 0.0
C16 C 0.39727 0.93178 0.11486 0.0
O17 O 0.47776 0.96706 0.15834 0.0
O18 O 0.46305 0.04352 0.15422 0.0
O19 O 0.40561 0.9852 0.11696 0.0
O20 O 0.44026 0.92202 0.11844 0.0
O21 O 0.50558 0.0557 0.09295 0.0
H22 H 0.36592 0.05691 0.1246 0.0
H23 H 0.54688 0.19368 0.11715 0.0
O24 O 0.54216 0.99521 0.09791 0.0
O25 O 0.58685 0.04189 0.13845 0.0
O26 O 0.56869 0.11414 0.13019 0.0
C27 C 0.60593 0.0976 0.13619 0.0
H28 H 0.59932 0.86399 0.16249 0.0
H29 H 0.36942 0.16177 0.12207 0.0
Co30 Co 0.06667 0.52663 0.1256 0.0
C31 C 0.02044 0.4777 0.08249 0.0
Co32 Co 1.00322 0.42954 0.1234 0.0
C33 C 0.16712 0.65443 0.12679 0.0
C34 C 0.08259 0.63977 0.11432 0.0
N35 N 0.10939 0.61044 0.12327 0.0
N36 N 0.17583 0.70929 0.12077 0.0
C37 C 0.12281 0.70015 0.11309 0.0
H38 H 0.20231 0.64631 0.13279 0.0
H39 H 0.03703 0.61825 0.10781 0.0
C40 C 0.05881 0.47444 0.16545 0.0
N41 N 0.95238 0.34671 0.12549 0.0
C42 C 0.89236 0.31594 0.12134 0.0
C43 C 0.96297 0.30798 0.13718 0.0
N44 N 0.86462 0.26032 0.13059 0.0
C45 C 0.90913 0.25506 0.14048 0.0
C46 C 0.12548 0.46658 0.11764 0.0
O47 O 0.08789 0.5265 0.15632 0.0
O48 O 0.01513 0.43178 0.15477 0.0
O49 O 0.07272 0.42037 0.11963 0.0
O50 O 0.13295 0.51959 0.11812 0.0
O51 O 0.99399 0.4266 0.09211 0.0
H52 H 1.00595 0.31948 0.14463 0.0
H53 H 0.86873 0.33535 0.1129 0.0
O54 O 0.04845 0.52514 0.09433 0.0
O55 O 1.00047 0.53394 0.13391 0.0
O56 O 0.93398 0.44067 0.12693 0.0
C57 C 0.94584 0.4936 0.132 0.0
H58 H 0.11503 0.7343 0.1057 0.0
H59 H 0.90289 0.21792 0.15096 0.0
Co60 Co 0.53248 0.55341 0.1055 0.0
C61 C 0.58499 0.54609 0.06515 0.0
Co62 Co 0.62753 0.58115 0.10726 0.0
C63 C 0.40233 0.50231 0.1124 0.0
C64 C 0.43467 0.54205 0.08023 0.0
N65 N 0.45321 0.53211 0.10009 0.0
N66 N 0.35306 0.49207 0.10062 0.0
C67 C 0.37337 0.5174 0.0805 0.0
H68 H 0.40137 0.48865 0.12957 0.0
H69 H 0.46407 0.56622 0.06636 0.0
C70 C 0.58026 0.60032 0.14665 0.0
N71 N 0.70692 0.60143 0.11218 0.0
C72 C 0.7314 0.5655 0.11043 0.0
C73 C 0.74674 0.64905 0.12448 0.0
N74 N 0.78392 0.58779 0.12186 0.0
C75 C 0.79379 0.64082 0.13044 0.0
C76 C 0.60971 0.67565 0.09773 0.0
O77 O 0.53138 0.58167 0.13557 0.0
O78 O 0.62157 0.5928 0.13825 0.0
O79 O 0.65128 0.66447 0.10291 0.0
O80 O 0.55614 0.63192 0.09568 0.0
O81 O 0.63452 0.57225 0.07593 0.0
H82 H 0.73947 0.68478 0.13047 0.0
H83 H 0.70966 0.52277 0.10168 0.0
O84 O 0.53602 0.52929 0.07561 0.0
O85 O 0.5074 0.47292 0.11547 0.0
O86 O 0.6019 0.49693 0.11172 0.0
C87 C 0.54706 0.45687 0.11529 0.0
H88 H 0.34597 0.52025 0.06731 0.0
H89 H 0.83045 0.67002 0.1415 0.0
Co90 Co 0.99988 0.49014 0.94552 0.0
C91 C 0.05573 0.49249 0.98634 0.0
Co92 Co 0.06449 0.45947 0.94431 0.0
C93 C 0.92472 0.54356 0.93663 0.0
C94 C 0.92001 0.51358 0.97031 0.0
N95 N 0.94597 0.51673 0.95033 0.0
N96 N 0.88733 0.55783 0.9475 0.0
C97 C 0.88445 0.53909 0.96864 0.0
H98 H 0.93518 0.55111 0.919 0.0
H99 H 0.92516 0.49248 0.98514 0.0
C100 C 1.00216 0.44564 0.9042 0.0
N101 N 0.11943 0.43353 0.93956 0.0
C102 C 0.18018 0.4632 0.94212 0.0
C103 C 0.10694 0.38581 0.92648 0.0
N104 N 0.20622 0.43635 0.93074 0.0
C105 C 0.15964 0.38788 0.92079 0.0
C106 C 0.94885 0.36944 0.95278 0.0
O107 O 0.97116 0.4633 0.91523 0.0
O108 O 0.05008 0.45202 0.91303 0.0
O109 O 1.00065 0.37806 0.94751 0.0
O110 O 0.94139 0.41429 0.95512 0.0
O111 O 0.07714 0.46425 0.97583 0.0
H112 H 0.06298 0.35494 0.91951 0.0
H113 H 0.20492 0.50567 0.95099 0.0
O114 O 0.02706 0.51267 0.97553 0.0
O115 O 0.05844 0.56812 0.93591 0.0
O116 O 0.12726 0.54243 0.94124 0.0
C117 C 0.11369 0.58309 0.93731 0.0
H118 H 0.85536 0.54013 0.98156 0.0
H119 H 0.16269 0.3587 0.90848 0.0
Co120 Co 0.5558 0.49886 0.92561 0.0
C121 C 0.56148 0.54886 0.96869 0.0
Co122 Co 0.58526 0.59488 0.92727 0.0
C123 C 0.53758 0.37386 0.92692 0.0
C124 C 0.4631 0.38351 0.9374 0.0
N125 N 0.51931 0.41502 0.92849 0.0
N126 N 0.49393 0.31851 0.93402 0.0
C127 C 0.4472 0.32476 0.94036 0.0
H128 H 0.58252 0.38476 0.92179 0.0
H129 H 0.43646 0.40274 0.94325 0.0
C130 C 0.59253 0.55045 0.8848 0.0
N131 N 0.61198 0.67634 0.92517 0.0
C132 C 0.58142 0.70293 0.9328 0.0
C133 C 0.65271 0.71615 0.91065 0.0
N134 N 0.59887 0.75635 0.9227 0.0
C135 C 0.64465 0.76525 0.90904 0.0
C136 C 0.67586 0.56542 0.9312 0.0
O137 O 0.57483 0.49943 0.89424 0.0
O138 O 0.59067 0.59185 0.8959 0.0
O139 O 0.66639 0.60965 0.9293 0.0
O140 O 0.63178 0.51137 0.93193 0.0
O141 O 0.583 0.59885 0.95849 0.0
H142 H 0.68245 0.70761 0.9004 0.0
H143 H 0.54495 0.68159 0.94473 0.0
O144 O 0.54158 0.50046 0.95737 0.0
O145 O 0.47918 0.48661 0.91835 0.0
O146 O 0.50285 0.5788 0.92533 0.0
C147 C 0.46278 0.52514 0.92052 0.0
H148 H 0.40633 0.29025 0.94837 0.0
H149 H 0.66802 0.80255 0.8975 0.0
Co150 Co 0.54462 0.03903 0.94529 0.0
C151 C 0.50828 0.98982 0.98811 0.0
Co152 Co 0.44812 0.97746 0.94854 0.0
C153 C 0.66899 0.14043 0.93955 0.0
C154 C 0.66129 0.05498 0.94685 0.0
N155 N 0.62791 0.08165 0.94298 0.0
N156 N 0.72593 0.15014 0.94053 0.0
C157 C 0.72117 0.09663 0.94507 0.0
H158 H 0.65769 0.17562 0.93737 0.0
H159 H 0.64349 0.00848 0.95193 0.0
C160 C 0.47978 0.03491 0.90738 0.0
N161 N 0.36466 0.92731 0.9506 0.0
C162 C 0.33597 0.86687 0.95386 0.0
C163 C 0.32066 0.93863 0.94443 0.0
N164 N 0.2763 0.83944 0.94939 0.0
C165 C 0.26634 0.8847 0.94363 0.0
C166 C 0.4914 0.10062 0.95741 0.0
O167 O 0.53306 0.06341 0.9157 0.0
O168 O 0.439 0.98941 0.91789 0.0
O169 O 0.4435 0.04904 0.95476 0.0
O170 O 0.54269 0.10454 0.95661 0.0
O171 O 0.45605 0.96771 0.97949 0.0
H172 H 0.32822 0.98239 0.9392 0.0
H173 H 0.35935 0.84267 0.95756 0.0
O174 O 0.5542 0.01726 0.97546 0.0
O175 O 0.54774 0.97429 0.93313 0.0
O176 O 0.45609 0.90742 0.94174 0.0
C177 C 0.50719 0.91972 0.93416 0.0
H178 H 0.75853 0.08933 0.94859 0.0
H179 H 0.22357 0.87903 0.93804 0.0
Co180 Co 0.15006 0.33027 0.45608 0.0
C181 C 0.16322 0.36893 0.4123 0.0
Co182 Co 0.1258 0.4012 0.4507 0.0
C183 C 0.2127 0.26173 0.452 0.0
C184 C 0.14224 0.22576 0.47655 0.0
N185 N 0.16945 0.27042 0.4613 0.0
N186 N 0.21394 0.21428 0.46129 0.0
C187 C 0.16967 0.19155 0.47665 0.0
H188 H 0.24238 0.28924 0.43867 0.0
H189 H 0.10404 0.21769 0.48675 0.0
C190 C 0.10064 0.3548 0.49349 0.0
N191 N 0.10568 0.46235 0.44742 0.0
C192 C 0.14182 0.52359 0.44723 0.0
C193 C 0.04953 0.45345 0.45053 0.0
N194 N 0.11025 0.5527 0.45004 0.0
C195 C 0.05221 0.50822 0.4522 0.0
C196 C 0.03108 0.28394 0.4438 0.0
O197 O 0.12305 0.3234 0.48647 0.0
O198 O 0.10486 0.39703 0.48116 0.0
O199 O 0.04344 0.33872 0.44454 0.0
O200 O 0.07173 0.27105 0.44813 0.0
O201 O 0.14373 0.40258 0.41991 0.0
H202 H 1.00935 0.41006 0.45332 0.0
H203 H 0.19061 0.54652 0.44613 0.0
O204 O 0.17312 0.33598 0.42556 0.0
O205 O 0.22982 0.3898 0.46355 0.0
O206 O 0.2094 0.46147 0.45641 0.0
C207 C 0.24811 0.4457 0.46114 0.0
H208 H 0.15655 0.1514 0.48658 0.0
H209 H 0.01453 0.51437 0.45639 0.0
Co210 Co 0.72674 0.86787 0.44022 0.0
C211 C 0.68656 0.838 0.39686 0.0
Co212 Co 0.65413 0.77289 0.4375 0.0
C213 C 0.79813 1.00019 0.43749 0.0
C214 C 0.83759 0.96057 0.45806 0.0
N215 N 0.78967 0.94634 0.44474 0.0
N216 N 0.84867 0.04687 0.44629 0.0
C217 C 0.87371 0.02221 0.45908 0.0
H218 H 0.76791 1.00509 0.42617 0.0
H219 H 0.84587 0.9281 0.46653 0.0
C220 C 0.70015 0.79677 0.47976 0.0
N221 N 0.59014 0.69368 0.4344 0.0
C222 C 0.53663 0.66899 0.44539 0.0
C223 C 0.58619 0.64845 0.4216 0.0
N224 N 0.49964 0.61031 0.44007 0.0
C225 C 0.53062 0.59714 0.42506 0.0
C226 C 0.7698 0.7903 0.43117 0.0
O227 O 0.73382 0.84905 0.47134 0.0
O228 O 0.65604 0.75808 0.46824 0.0
O229 O 0.7146 0.74827 0.43312 0.0
O230 O 0.7829 0.84493 0.43265 0.0
O231 O 0.65387 0.78677 0.4062 0.0
H232 H 0.62129 0.65255 0.41044 0.0
H233 H 0.52515 0.69335 0.45735 0.0
O234 O 0.72082 0.8836 0.40903 0.0
O235 O 0.67007 0.89227 0.44761 0.0
O236 O 0.59596 0.79996 0.44208 0.0
C237 C 0.61363 0.85529 0.44621 0.0
H238 H 0.91585 0.04723 0.46816 0.0
H239 H 0.51386 0.55386 0.41686 0.0
Co240 Co 0.18182 0.90847 0.45864 0.0
C241 C 0.21669 0.89743 0.4156 0.0
Co242 Co 0.27795 0.9311 0.45612 0.0
C243 C 0.05228 0.84833 0.44786 0.0
C244 C 0.07517 0.90431 0.47693 0.0
N245 N 0.09993 0.88671 0.4608 0.0
N246 N 0.99927 0.8405 0.45573 0.0
C247 C 0.01363 0.8759 0.47391 0.0
H248 H 0.05613 0.82634 0.43303 0.0
H249 H 0.10008 0.93645 0.48997 0.0
C250 C 0.24719 0.9539 0.49857 0.0
N251 N 0.35929 0.9504 0.45476 0.0
C252 C 0.38391 0.916 0.44897 0.0
C253 C 0.40624 1.00204 0.46271 0.0
N254 N 0.44436 0.94449 0.45289 0.0
C255 C 0.45802 0.99849 0.46169 0.0
C256 C 0.25867 0.02792 0.44867 0.0
O257 O 0.1946 0.93114 0.49 0.0
O258 O 0.28823 0.95161 0.4873 0.0
O259 O 0.29998 0.014 0.4499 0.0
O260 O 0.20377 0.98789 0.45189 0.0
O261 O 0.26747 0.91335 0.42482 0.0
H262 H 0.4026 0.03897 0.46982 0.0
H263 H 0.3578 0.87043 0.44247 0.0
O264 O 0.17254 0.89057 0.42754 0.0
O265 O 0.15967 0.82739 0.46487 0.0
O266 O 0.25334 0.84752 0.46197 0.0
C267 C 0.19732 0.80885 0.46413 0.0
H268 H 0.98195 0.88236 0.48385 0.0
H269 H 0.50183 0.03218 0.46803 0.0
Co270 Co 0.66339 0.84255 0.25573 0.0
C271 C 0.70786 0.85213 0.29935 0.0
Co272 Co 0.72651 0.80868 0.25965 0.0
C273 C 0.57685 0.87945 0.26767 0.0
C274 C 0.60514 0.89804 0.23356 0.0
N275 N 0.61203 0.87317 0.25236 0.0
N276 N 0.54881 0.90785 0.2592 0.0
C277 C 0.56597 0.91884 0.23764 0.0
H278 H 0.57223 0.86389 0.28475 0.0
H279 H 0.62733 0.90103 0.21785 0.0
C280 C 0.67407 0.78577 0.21735 0.0
N281 N 0.78088 0.78066 0.26164 0.0
C282 C 0.84009 0.81149 0.26745 0.0
C283 C 0.77298 0.72995 0.25177 0.0
N284 N 0.87001 0.78271 0.26109 0.0
C285 C 0.82727 0.73143 0.25109 0.0
C286 C 0.60715 0.72411 0.26763 0.0
O287 O 0.64626 0.81141 0.22516 0.0
O288 O 0.71706 0.78843 0.2288 0.0
O289 O 0.65957 0.73028 0.26575 0.0
O290 O 0.60008 0.76923 0.2648 0.0
O291 O 0.73375 0.82586 0.29054 0.0
H292 H 0.73163 0.69661 0.24373 0.0
H293 H 0.86141 0.85586 0.27505 0.0
O294 O 0.67819 0.86855 0.28689 0.0
O295 O 0.72759 0.91808 0.2467 0.0
O296 O 0.79198 0.88798 0.25395 0.0
C297 C 0.78168 0.9301 0.24882 0.0
H298 H 0.54999 0.93876 0.22543 0.0
H299 H 0.83461 0.69917 0.24205 0.0
Co300 Co 0.2229 0.84911 0.2768 0.0
C301 C 0.21253 0.89543 0.31866 0.0
Co302 Co 0.2492 0.9441 0.27764 0.0
C303 C 0.20077 0.72419 0.27283 0.0
C304 C 0.13009 0.73376 0.28774 0.0
N305 N 0.186 0.76603 0.27865 0.0
N306 N 0.15504 0.66778 0.27735 0.0
C307 C 0.11084 0.67366 0.28673 0.0
H308 H 0.24404 0.73469 0.26588 0.0
H309 H 0.1048 0.75287 0.29508 0.0
C310 C 0.2706 0.90335 0.23663 0.0
N311 N 0.27827 0.02572 0.27542 0.0
C312 C 0.24588 0.05308 0.27915 0.0
C313 C 0.32619 0.06543 0.2632 0.0
N314 N 0.26964 0.10686 0.26867 0.0
C315 C 0.32095 0.11535 0.25901 0.0
C316 C 0.34019 0.91453 0.28671 0.0
O317 O 0.25035 0.85204 0.24619 0.0
O318 O 0.26548 0.94406 0.24679 0.0
O319 O 0.32962 0.95784 0.28365 0.0
O320 O 0.29657 0.86032 0.28629 0.0
O321 O 0.23525 0.94591 0.30869 0.0
H322 H 0.35915 0.05605 0.25582 0.0
H323 H 0.20377 0.03207 0.28831 0.0
O324 O 0.20092 0.84855 0.30756 0.0
O325 O 0.14751 0.83639 0.26672 0.0
O326 O 0.16777 0.92848 0.27138 0.0
C327 C 0.12951 0.87402 0.26661 0.0
H328 H 0.06899 0.63709 0.29342 0.0
H329 H 0.35014 0.15271 0.24819 0.0
Co330 Co 0.20581 0.38568 0.27545 0.0
C331 C 0.15518 0.33059 0.31657 0.0
Co332 Co 0.10952 0.322 0.27503 0.0
C333 C 0.33046 0.48653 0.27115 0.0
C334 C 0.32084 0.40699 0.28682 0.0
N335 N 0.28872 0.43024 0.27751 0.0
N336 N 0.38694 0.49826 0.27592 0.0
C337 C 0.38102 0.44859 0.28586 0.0
H338 H 0.31982 0.51815 0.26328 0.0
H339 H 0.30158 0.36227 0.29403 0.0
C340 C 0.15354 0.38436 0.23522 0.0
N341 N 0.02665 0.27051 0.27274 0.0
C342 C 0.99807 0.20968 0.27423 0.0
C343 C 0.98469 0.2825 0.26457 0.0
N344 N 0.94063 0.18285 0.26682 0.0
C345 C 0.93177 0.22866 0.26088 0.0
C346 C 0.14555 0.44202 0.28503 0.0
O347 O 0.2043 0.41361 0.24532 0.0
O348 O 0.11137 0.33733 0.24444 0.0
O349 O 0.09973 0.39056 0.28037 0.0
O350 O 0.19771 0.44811 0.28595 0.0
O351 O 0.10592 0.30785 0.30583 0.0
H352 H 0.99323 0.32702 0.25998 0.0
H353 H 0.02055 0.18519 0.27886 0.0
O354 O 0.20448 0.36036 0.3059 0.0
O355 O 0.21613 0.32407 0.26443 0.0
O356 O 0.12265 0.2552 0.2696 0.0
C357 C 0.17614 0.2691 0.26457 0.0
H358 H 0.41753 0.44356 0.29258 0.0
H359 H 0.8911 0.22364 0.2533 0.0
Co360 Co 0.82367 0.64986 0.77295 0.0
C361 C 0.83818 0.71073 0.7323 0.0
Co362 Co 0.79903 0.72112 0.77393 0.0
C363 C 0.88473 0.57919 0.77974 0.0
C364 C 0.8261 0.55306 0.75133 0.0
N365 N 0.8445 0.59032 0.76921 0.0
N366 N 0.89215 0.53693 0.76884 0.0
C367 C 0.85498 0.52038 0.7511 0.0
H368 H 0.90959 0.60304 0.79453 0.0
H369 H 0.7951 0.55124 0.73867 0.0
C370 C 0.77347 0.65413 0.81331 0.0
N371 N 0.77937 0.7832 0.77682 0.0
C372 C 0.81517 0.84458 0.77599 0.0
C373 C 0.72488 0.77426 0.78309 0.0
N374 N 0.78492 0.87385 0.78142 0.0
C375 C 0.72819 0.82918 0.78605 0.0
C376 C 0.70275 0.6056 0.76365 0.0
O377 O 0.79417 0.62416 0.80324 0.0
O378 O 0.7815 0.70278 0.80439 0.0
O379 O 0.71446 0.6595 0.7678 0.0
O380 O 0.74583 0.59492 0.76323 0.0
O381 O 0.81485 0.73738 0.74276 0.0
H382 H 0.68549 0.73053 0.78631 0.0
H383 H 0.86277 0.86748 0.77181 0.0
O384 O 0.84871 0.67406 0.74292 0.0
O385 O 0.90307 0.7054 0.78279 0.0
O386 O 0.88304 0.77906 0.78055 0.0
C387 C 0.92109 0.76158 0.78395 0.0
H388 H 0.84888 0.4866 0.73885 0.0
H389 H 0.6919 0.83539 0.79217 0.0
Co390 Co 0.401 0.19375 0.79903 0.0
C391 C 0.35718 0.15688 0.7556 0.0
Co392 Co 0.33166 0.09582 0.79597 0.0
C393 C 0.48382 0.32079 0.78555 0.0
C394 C 0.47751 0.30871 0.82093 0.0
N395 N 0.45846 0.27747 0.8016 0.0
N396 N 0.51773 0.37733 0.79416 0.0
C397 C 0.51374 0.36937 0.81645 0.0
H398 H 0.47579 0.31133 0.76791 0.0
H399 H 0.46475 0.28925 0.83742 0.0
C400 C 0.38301 0.12633 0.83822 0.0
N401 N 0.27145 0.01368 0.79419 0.0
C402 C 0.21203 0.98964 0.78915 0.0
C403 C 0.2762 0.96597 0.80101 0.0
N404 N 0.17948 0.92929 0.79294 0.0
C405 C 0.22009 0.91425 0.80013 0.0
C406 C 0.44938 0.1214 0.7899 0.0
O407 O 0.41275 0.1796 0.83007 0.0
O408 O 0.33946 0.08568 0.82689 0.0
O409 O 0.3949 0.0777 0.79073 0.0
O410 O 0.46123 0.1758 0.79195 0.0
O411 O 0.32648 0.10538 0.76488 0.0
H412 H 0.31729 0.96893 0.80721 0.0
H413 H 0.19279 0.01598 0.78306 0.0
O414 O 0.39007 0.20324 0.76762 0.0
O415 O 0.33962 0.21159 0.80629 0.0
O416 O 0.27032 0.11682 0.80116 0.0
C417 C 0.28415 0.1712 0.8051 0.0
H418 H 0.53573 0.40498 0.82875 0.0
H419 H 0.20954 0.86941 0.80529 0.0
Co420 Co 0.8654 0.23563 0.78888 0.0
C421 C 0.91042 0.23415 0.74588 0.0
Co422 Co 0.96099 0.25883 0.78742 0.0
C423 C 0.73249 0.17616 0.79292 0.0
C424 C 0.77341 0.25125 0.77035 0.0
N425 N 0.7869 0.22111 0.78572 0.0
N426 N 0.68651 0.17703 0.78213 0.0
C427 C 0.71222 0.22461 0.76823 0.0
H428 H 0.72667 0.14207 0.80495 0.0
H429 H 0.80605 0.28861 0.7603 0.0
C430 C 0.91934 0.27146 0.82986 0.0
N431 N 0.04055 0.27415 0.78869 0.0
C432 C 0.06054 0.23801 0.79689 0.0
C433 C 0.09103 0.32396 0.7814 0.0
N434 N 0.12106 0.2633 0.79495 0.0
C435 C 0.1405 0.31753 0.78535 0.0
C436 C 0.94898 0.35888 0.78373 0.0
O437 O 0.86795 0.25154 0.82041 0.0
O438 O 0.96138 0.26936 0.8191 0.0
O439 O 0.9896 0.34432 0.78441 0.0
O440 O 0.89399 0.3181 0.78457 0.0
O441 O 0.96069 0.25159 0.75562 0.0
H442 H 0.09204 0.36227 0.77334 0.0
H443 H 0.03147 0.19387 0.80413 0.0
O444 O 0.86462 0.22307 0.7575 0.0
O445 O 0.83665 0.15198 0.79328 0.0
O446 O 0.93004 0.17162 0.79014 0.0
C447 C 0.87378 0.13283 0.7919 0.0
H448 H 0.68819 0.23888 0.75721 0.0
H449 H 0.18691 0.34926 0.78081 0.0
Co450 Co 0.31556 0.16412 0.61716 0.0
C451 C 0.3683 0.16795 0.65826 0.0
Co452 Co 0.38427 0.13823 0.61525 0.0
C453 C 0.23802 0.21795 0.61089 0.0
C454 C 0.21791 0.16085 0.63954 0.0
N455 N 0.2536 0.18077 0.62122 0.0
N456 N 0.1954 0.22272 0.62257 0.0
C457 C 0.18231 0.18639 0.64038 0.0
H458 H 0.25844 0.24214 0.59557 0.0
H459 H 0.21893 0.13081 0.65201 0.0
C460 C 0.32641 0.12275 0.5749 0.0
N461 N 0.44648 0.12135 0.61374 0.0
C462 C 0.50188 0.15687 0.60487 0.0
C463 C 0.44944 0.0754 0.62357 0.0
N464 N 0.53922 0.13545 0.60904 0.0
C465 C 0.50663 0.08395 0.62063 0.0
C466 C 0.27131 0.04072 0.62267 0.0
O467 O 0.29395 0.13907 0.58592 0.0
O468 O 0.37407 0.12889 0.58401 0.0
O469 O 0.32467 0.05283 0.61781 0.0
O470 O 0.26129 0.08394 0.62509 0.0
O471 O 0.39334 0.14466 0.64695 0.0
H472 H 0.4134 0.03964 0.63319 0.0
H473 H 0.51544 0.19854 0.59601 0.0
O474 O 0.33622 0.1852 0.64808 0.0
O475 O 0.37 0.24602 0.60903 0.0
O476 O 0.44241 0.22489 0.61215 0.0
C477 C 0.42622 0.26404 0.60898 0.0
H478 H 0.14856 0.17829 0.65292 0.0
H479 H 0.52393 0.05642 0.62744 0.0
Co480 Co 0.88293 0.20413 0.60564 0.0
C481 C 0.88765 0.24791 0.64978 0.0
Co482 Co 0.9177 0.30162 0.60941 0.0
C483 C 0.85838 0.07746 0.60031 0.0
C484 C 0.7882 0.08744 0.61537 0.0
N485 N 0.84403 0.11973 0.60619 0.0
N486 N 0.81298 0.02081 0.60523 0.0
C487 C 0.76898 0.02722 0.61456 0.0
H488 H 0.90129 0.08791 0.59303 0.0
H489 H 0.76318 0.10654 0.62296 0.0
C490 C 0.92441 0.26272 0.56611 0.0
N491 N 0.94752 0.38473 0.60925 0.0
C492 C 0.91395 0.41133 0.61245 0.0
C493 C 0.99905 0.42803 0.59977 0.0
N494 N 0.94093 0.46837 0.60455 0.0
C495 C 0.99508 0.4794 0.59682 0.0
C496 C 1.00403 0.26631 0.61246 0.0
O497 O 0.90286 0.20978 0.57444 0.0
O498 O 0.92622 0.30455 0.57812 0.0
O499 O 0.99751 0.3126 0.61186 0.0
O500 O 0.95819 0.21323 0.61167 0.0
O501 O 0.91219 0.29969 0.6407 0.0
H502 H 0.03453 0.42094 0.59337 0.0
H503 H 0.86784 0.38734 0.61831 0.0
O504 O 0.86742 0.20113 0.63745 0.0
O505 O 0.80766 0.19487 0.59862 0.0
O506 O 0.83634 0.28777 0.60697 0.0
C507 C 0.79462 0.23567 0.60129 0.0
H508 H 0.7271 0.99093 0.62135 0.0
H509 H 0.0277 0.52004 0.58819 0.0
Co510 Co 0.86377 0.73295 0.5911 0.0
C511 C 0.83746 0.69945 0.63578 0.0
Co512 Co 0.76662 0.6715 0.59803 0.0
C513 C 0.98989 0.81735 0.60102 0.0
C514 C 0.97572 0.79783 0.56614 0.0
N515 N 0.94607 0.786 0.58576 0.0
N516 N 0.04565 0.84862 0.59179 0.0
C517 C 0.03661 0.83617 0.56977 0.0
H518 H 0.98106 0.81556 0.6187 0.0
H519 H 0.95469 0.77902 0.55023 0.0
C520 C 0.78767 0.71164 0.55429 0.0
N521 N 0.68486 0.61473 0.60378 0.0
C522 C 0.65374 0.55644 0.59666 0.0
C523 C 0.64765 0.61903 0.61864 0.0
N524 N 0.59938 0.52373 0.60686 0.0
C525 C 0.59525 0.56353 0.62049 0.0
C526 C 0.80344 0.79224 0.60276 0.0
O527 O 0.84269 0.74193 0.56075 0.0
O528 O 0.7487 0.67191 0.56735 0.0
O529 O 0.75524 0.74019 0.60229 0.0
O530 O 0.85421 0.79676 0.59903 0.0
O531 O 0.78354 0.67333 0.62866 0.0
H532 H 0.6592 0.65897 0.62843 0.0
H533 H 0.67149 0.53801 0.58456 0.0
O534 O 0.88098 0.72494 0.62196 0.0
O535 O 0.87484 0.66885 0.58313 0.0
O536 O 0.78252 0.60584 0.5942 0.0
C537 C 0.83384 0.61537 0.58757 0.0
H538 H 0.07141 0.85378 0.55708 0.0
H539 H 0.55841 0.55252 0.63195 0.0
C540 C 0.56467 0.79398 0.09863 0.0
C541 C 0.5982 0.83021 0.11678 0.0
C542 C 0.57414 0.74809 0.09051 0.0
C543 C 0.61753 0.73668 0.10021 0.0
H544 H 0.52778 0.798 0.09171 0.0
H545 H 0.54383 0.71812 0.07774 0.0
S546 S 0.72544 0.82677 0.14511 0.0
N547 N 0.6834 0.85834 0.1417 0.0
N548 N 0.70005 0.77087 0.12685 0.0
C549 C 0.65555 0.77654 0.11681 0.0
C550 C 0.64592 0.8234 0.12509 0.0
C551 C 0.28782 0.87482 0.12358 0.0
C552 C 0.33735 0.87839 0.11215 0.0
C553 C 0.23513 0.81884 0.12662 0.0
C554 C 0.23116 0.76525 0.11861 0.0
H555 H 0.29102 0.91468 0.13129 0.0
H556 H 0.19767 0.81695 0.13574 0.0
S557 S 0.34487 0.75197 0.08485 0.0
N558 N 0.37668 0.82485 0.09062 0.0
N559 N 0.27756 0.71963 0.09678 0.0
C560 C 0.27899 0.76867 0.10621 0.0
C561 C 0.33209 0.82543 0.10279 0.0
C562 C 0.22825 0.49576 0.13036 0.0
C563 C 0.17898 0.46026 0.11624 0.0
C564 C 0.28449 0.50072 0.12668 0.0
C565 C 0.29309 0.47132 0.10851 0.0
H566 H 0.22403 0.52231 0.14361 0.0
H567 H 0.32264 0.53186 0.13682 0.0
S568 S 0.17658 0.36769 0.06842 0.0
N569 N 0.14024 0.39029 0.08506 0.0
N570 N 0.24692 0.4009 0.07772 0.0
C571 C 0.243 0.4321 0.09537 0.0
C572 C 0.18548 0.42623 0.09934 0.0
C573 C 0.83399 0.61456 0.94979 0.0
C574 C 0.84539 0.57328 0.9383 0.0
C575 C 0.78064 0.61588 0.94611 0.0
C576 C 0.73714 0.57501 0.93116 0.0
H577 H 0.86442 0.64256 0.96289 0.0
H578 H 0.77124 0.64523 0.95629 0.0
S579 S 0.7494 0.46444 0.89474 0.0
N580 N 0.8124 0.49614 0.90954 0.0
N581 N 0.71158 0.49774 0.90283 0.0
C582 C 0.7504 0.53738 0.9182 0.0
C583 C 0.80496 0.53685 0.92167 0.0
C584 C 0.44212 0.15516 0.94225 0.0
C585 C 0.48996 0.15697 0.95439 0.0
C586 C 0.44565 0.20831 0.93453 0.0
C587 C 0.49688 0.2652 0.93869 0.0
H588 H 0.40263 0.11234 0.93788 0.0
H589 H 0.40775 0.20518 0.92533 0.0
S590 S 0.63325 0.29515 0.97047 0.0
N591 N 0.58978 0.22073 0.97069 0.0
N592 N 0.59543 0.32082 0.9563 0.0
C593 C 0.54479 0.26797 0.95094 0.0
C594 C 0.54136 0.21382 0.95887 0.0
C595 C 0.78642 0.24822 0.95859 0.0
C596 C 0.78097 0.2063 0.94239 0.0
C597 C 0.84246 0.29927 0.96298 0.0
C598 C 0.89455 0.30974 0.95127 0.0
H599 H 0.74738 0.24064 0.96822 0.0
H600 H 0.84488 0.33143 0.97532 0.0
S601 S 0.90182 0.21442 0.9061 0.0
N602 N 0.83035 0.17842 0.91413 0.0
N603 N 0.93626 0.2753 0.92202 0.0
C604 C 0.88938 0.26801 0.93493 0.0
C605 C 0.83227 0.21609 0.93052 0.0
C606 C 0.29184 0.12586 0.4668 0.0
C607 C 0.27256 0.09083 0.44724 0.0
C608 C 0.27852 0.1721 0.47037 0.0
C609 C 0.24667 0.18524 0.45433 0.0
H610 H 0.31054 0.11274 0.48048 0.0
H611 H 0.28791 0.19381 0.48657 0.0
S612 S 0.19532 0.11294 0.39903 0.0
N613 N 0.2267 0.07684 0.41067 0.0
N614 N 0.20334 0.16515 0.41719 0.0
C615 C 0.23376 0.15541 0.43371 0.0
C616 C 0.24631 0.10767 0.43022 0.0
C617 C 0.95927 0.1945 0.42203 0.0
C618 C 0.96956 0.2334 0.44019 0.0
C619 C 0.91284 0.13377 0.42273 0.0
C620 C 0.87629 0.11025 0.44175 0.0
H621 H 0.99101 0.20942 0.40825 0.0
H622 H 0.90994 0.10349 0.40952 0.0
S623 S 0.88041 0.19521 0.49236 0.0
N624 N 0.93525 0.2461 0.47646 0.0
N625 N 0.84893 0.13134 0.47797 0.0
C626 C 0.88241 0.15008 0.45899 0.0
C627 C 0.92896 0.21203 0.45815 0.0
C628 C 0.93099 0.83147 0.42523 0.0
C629 C 0.94042 0.80982 0.44546 0.0
C630 C 0.8725 0.81697 0.41862 0.0
C631 C 0.82147 0.77964 0.43187 0.0
H632 H 0.96942 0.86467 0.4157 0.0
H633 H 0.86785 0.84012 0.40428 0.0
S634 S 0.8219 0.70185 0.48393 0.0
N635 N 0.89403 0.74255 0.47694 0.0
N636 N 0.78389 0.71404 0.46431 0.0
C637 C 0.82991 0.75189 0.45066 0.0
C638 C 0.88955 0.76757 0.45758 0.0
C639 C 0.4127 0.87805 0.29251 0.0
C640 C 0.40214 0.9243 0.28524 0.0
C641 C 0.46306 0.87513 0.2851 0.0
C642 C 0.50452 0.91816 0.27005 0.0
H643 H 0.37951 0.84136 0.30274 0.0
H644 H 0.46702 0.83648 0.28992 0.0
S645 S 0.50342 0.05412 0.24909 0.0
N646 N 0.44164 0.01838 0.26443 0.0
N647 N 0.53684 0.01337 0.25082 0.0
C648 C 0.49762 0.96771 0.26433 0.0
C649 C 0.44641 0.97082 0.27194 0.0
C650 C 0.19424 0.60582 0.29209 0.0
C651 C 0.15569 0.61264 0.27739 0.0
C652 C 0.18773 0.54898 0.29564 0.0
C653 C 0.14245 0.49747 0.28455 0.0
H654 H 0.2283 0.6444 0.30133 0.0
H655 H 0.21898 0.54543 0.30689 0.0
S656 S 0.0326 0.49386 0.24334 0.0
N657 N 0.07202 0.56531 0.25137 0.0
N658 N 0.06036 0.45781 0.25744 0.0
C659 C 0.10381 0.50408 0.26966 0.0
C660 C 0.11047 0.56202 0.26617 0.0
C661 C 0.49993 0.66272 0.27878 0.0
C662 C 0.55307 0.66492 0.27116 0.0
C663 C 0.44537 0.60815 0.2798 0.0
C664 C 0.44231 0.55407 0.27339 0.0
H665 H 0.50025 0.70362 0.28379 0.0
H666 H 0.40548 0.60798 0.28595 0.0
S667 S 0.5673 0.53525 0.25147 0.0
N668 N 0.59884 0.60844 0.25661 0.0
N669 N 0.49556 0.5052 0.25871 0.0
C670 C 0.49488 0.55529 0.26587 0.0
C671 C 0.55059 0.61095 0.26476 0.0
C672 C 0.95412 0.49252 0.75781 0.0
C673 C 0.92772 0.50983 0.77482 0.0
C674 C 0.97091 0.44888 0.76165 0.0
C675 C 0.96217 0.42165 0.78266 0.0
H676 H 0.95661 0.50879 0.74094 0.0
H677 H 0.98425 0.43162 0.74756 0.0
S678 S 0.90555 0.45886 0.83366 0.0
N679 N 0.90205 0.50261 0.81414 0.0
N680 N 0.93405 0.4209 0.82138 0.0
C681 C 0.94293 0.44391 0.80038 0.0
C682 C 0.92568 0.48817 0.79648 0.0
C683 C 0.606 0.5463 0.78447 0.0
C684 C 0.64132 0.55161 0.76569 0.0
C685 C 0.56275 0.4891 0.79282 0.0
C686 C 0.55287 0.43488 0.7827 0.0
H687 H 0.61593 0.58615 0.7941 0.0
H688 H 0.53927 0.48737 0.80808 0.0
S689 S 0.628 0.42495 0.73117 0.0
N690 N 0.65853 0.49831 0.73567 0.0
N691 N 0.57809 0.39128 0.75135 0.0
C692 C 0.58393 0.43993 0.7627 0.0
C693 C 0.62779 0.49813 0.75421 0.0
C694 C 0.53749 0.12543 0.80809 0.0
C695 C 0.50051 0.11097 0.78906 0.0
C696 C 0.59775 0.13934 0.80628 0.0
C697 C 0.62255 0.14001 0.78534 0.0
H698 H 0.52151 0.13166 0.82408 0.0
H699 H 0.62675 0.15631 0.82081 0.0
S700 S 0.54123 0.09515 0.73129 0.0
N701 N 0.49004 0.08991 0.74937 0.0
N702 N 0.60349 0.11603 0.74589 0.0
C703 C 0.58394 0.11886 0.7667 0.0
C704 C 0.52268 0.10451 0.76856 0.0
C705 C 0.0772 0.24248 0.59535 0.0
C706 C 0.06395 0.27238 0.6122 0.0
C707 C 0.12627 0.23303 0.59742 0.0
C708 C 0.16241 0.25207 0.61662 0.0
H709 H 0.04697 0.22263 0.58126 0.0
H710 H 0.13215 0.20533 0.58513 0.0
S711 S 0.15082 0.33889 0.66398 0.0
N712 N 0.09447 0.327 0.64729 0.0
N713 N 0.18621 0.30784 0.6515 0.0
C714 C 0.15274 0.28664 0.63258 0.0
C715 C 0.10338 0.2971 0.63031 0.0
C716 C 0.75501 0.85511 0.59744 0.0
C717 C 0.80301 0.84912 0.60568 0.0
C718 C 0.75944 0.912 0.59674 0.0
C719 C 0.81207 0.96445 0.60405 0.0
H720 H 0.71481 0.81619 0.59085 0.0
H721 H 0.72168 0.9153 0.59029 0.0
S722 S 0.9474 0.97176 0.62936 0.0
N723 N 0.90287 0.89968 0.62301 0.0
N724 N 0.9107 1.00625 0.62135 0.0
C725 C 0.85955 0.95879 0.61284 0.0
C726 C 0.85499 0.9011 0.61381 0.0
C727 C 0.21409 0.94406 0.60147 0.0
C728 C 0.21755 0.97976 0.61988 0.0
C729 C 0.15781 0.89915 0.59309 0.0
C730 C 0.10286 0.88841 0.60272 0.0
H731 H 0.25462 0.95432 0.59227 0.0
H732 H 0.15743 0.87461 0.57832 0.0
S733 S 0.08874 0.96592 0.65298 0.0
N734 N 0.16226 0.99701 0.64908 0.0
N735 N 0.05689 0.91514 0.63297 0.0
C736 C 0.10627 0.92101 0.62219 0.0
C737 C 0.1635 0.96587 0.63087 0.0
C738 C 0.47861 0.01421 0.04814 0.0
C739 C 0.52757 0.01777 0.06016 0.0
C740 C 0.472 1.00252 1.02517 0.0
C741 C 0.51479 0.99524 1.01288 0.0
H742 H 0.44415 0.01947 0.05665 0.0
H743 H 0.43359 1.00089 1.01686 0.0
S744 S 0.65136 0.99992 0.03624 0.0
N745 N 0.61889 0.01118 0.05814 0.0
N746 N 0.60825 0.99243 1.01451 0.0
C747 C 0.56432 0.99894 1.02458 0.0
C748 C 0.57013 0.00915 0.04829 0.0
C749 C 0.04382 0.4415 1.02309 0.0
C750 C 0.05348 0.49282 1.01104 0.0
C751 C 0.03074 0.43601 0.04603 0.0
C752 C 0.02785 0.48209 0.05788 0.0
H753 H 0.0442 0.40428 1.01458 0.0
H754 H 0.02386 0.39573 0.05461 0.0
S755 S 0.05213 0.62671 0.03422 0.0
N756 N 0.06016 0.59097 1.0127 0.0
N757 N 0.03757 0.58156 0.05591 0.0
C758 C 0.03883 0.53425 0.04612 0.0
C759 C 0.05109 0.53935 1.0227 0.0
C760 C 0.52416 0.5002 1.00617 0.0
C761 C 0.56829 0.54778 0.99322 0.0
C762 C 0.53103 0.4986 0.0294 0.0
C763 C 0.58327 0.54332 0.04041 0.0
H764 H 0.48343 0.46478 0.99837 0.0
H765 H 0.49475 0.46249 0.03888 0.0
S766 S 0.71448 0.67456 1.01364 0.0
N767 N 0.6674 0.63898 0.99285 0.0
N768 N 0.68099 0.635 0.03629 0.0
C769 C 0.62882 0.58968 1.02746 0.0
C770 C 0.62112 0.59219 1.00394 0.0
C771 C 0.21031 0.35947 0.37683 0.0
C772 C 0.1615 0.35825 0.38806 0.0
C773 C 0.20747 0.34834 0.35371 0.0
C774 C 0.15488 0.33337 0.34133 0.0
H775 H 0.25131 0.37052 0.38584 0.0
H776 H 0.24693 0.35222 0.34545 0.0
S777 S 0.01254 0.31818 0.36396 0.0
N778 N 0.0582 0.33769 0.38568 0.0
N779 N 0.05161 0.31465 0.34268 0.0
C780 C 0.10484 0.32926 0.3528 0.0
C781 C 0.10849 0.34227 0.37605 0.0
C782 C 0.70969 0.89746 0.36058 0.0
C783 C 0.68917 0.84198 0.3719 0.0
C784 C 0.71463 0.90116 0.33701 0.0
C785 C 0.70102 0.84986 0.32406 0.0
H786 H 0.72196 0.93824 0.36998 0.0
H787 H 0.73054 0.94451 0.32896 0.0
S788 S 0.64481 0.69405 0.34512 0.0
N789 N 0.65401 0.73449 0.36778 0.0
N790 N 0.66478 0.74205 0.32412 0.0
C791 C 0.68027 0.79442 0.33514 0.0
C792 C 0.674 0.79031 0.35886 0.0
C793 C 0.23849 0.86762 0.35513 0.0
C794 C 0.2085 0.89231 0.34327 0.0
C795 C 0.24045 0.86871 0.37857 0.0
C796 C 0.21065 0.89261 0.39097 0.0
H797 H 0.26249 0.84925 0.34619 0.0
H798 H 0.26563 0.85096 0.38704 0.0
S799 S 0.12314 0.95985 0.36773 0.0
N800 N 0.14782 0.94052 0.3455 0.0
N801 N 0.14848 0.93979 0.38956 0.0
C802 C 0.17866 0.91549 0.37926 0.0
C803 C 0.17843 0.91615 0.35539 0.0
C804 C 0.86699 0.68075 0.69638 0.0
C805 C 0.84701 0.71622 0.70763 0.0
C806 C 0.86721 0.6777 0.67294 0.0
C807 C 0.84756 0.71006 0.65996 0.0
H808 H 0.88031 0.65309 0.70572 0.0
H809 H 0.88017 0.64784 0.66499 0.0
S810 S 0.79694 0.81413 0.68044 0.0
N811 N 0.8118 0.78818 0.70338 0.0
N812 N 0.81187 0.78173 0.65949 0.0
C813 C 0.83041 0.74783 0.67077 0.0
C814 C 0.83035 0.75125 0.69456 0.0
C815 C 0.36565 0.21197 0.69568 0.0
C816 C 0.36957 0.16746 0.68308 0.0
C817 C 0.36262 0.20927 0.7192 0.0
C818 C 0.3609 0.16063 0.73085 0.0
H819 H 0.36505 0.2492 0.6873 0.0
H820 H 0.36022 0.24464 0.72829 0.0
S821 S 0.36994 0.0326 0.70577 0.0
N822 N 0.37277 0.07409 0.68421 0.0
N823 N 0.36455 0.06769 0.72802 0.0
C824 C 0.36472 0.11595 0.71841 0.0
C825 C 0.36968 0.11968 0.69465 0.0
C826 C 0.94464 0.28481 0.68555 0.0
C827 C 0.89154 0.24282 0.67428 0.0
C828 C 0.9518 0.27973 0.70854 0.0
C829 C 0.90552 0.23327 0.72123 0.0
H830 H 0.98142 0.32154 0.67646 0.0
H831 H 0.99302 0.31363 0.71656 0.0
S832 S 0.75801 0.11138 0.69972 0.0
N833 N 0.79281 0.15215 0.67741 0.0
N834 N 0.80497 0.14407 0.72082 0.0
C835 C 0.85227 0.19087 0.71016 0.0
C836 C 0.84565 0.19518 0.68664 0.0
C837 C 0.34708 0.89563 0.21179 0.0
C838 C 0.31206 0.92267 0.21674 0.0
C839 C 0.39469 0.92125 0.19596 0.0
C840 C 0.41005 0.97555 0.18454 0.0
H841 H 0.33895 0.85536 0.2207 0.0
H842 H 0.41959 0.89816 0.19265 0.0
S843 S 0.33142 0.06379 0.19107 0.0
N844 N 0.29539 1.0061 0.20827 0.0
N845 N 0.38467 0.05465 0.17942 0.0
C846 C 0.37505 1.00273 0.18936 0.0
C847 C 0.32628 0.97625 0.20512 0.0
C848 C 0.05311 0.39558 0.19141 0.0
C849 C 0.08356 0.45686 0.18489 0.0
C850 C 0.07871 0.37269 0.20626 0.0
C851 C 0.13575 0.40984 0.21612 0.0
H852 H 1.0091 0.3639 0.18459 0.0
H853 H 0.05232 0.32504 0.21043 0.0
S854 S 0.23366 0.57485 0.20613 0.0
N855 N 0.17437 0.55511 0.1899 0.0
N856 N 0.22118 0.51245 0.21901 0.0
C857 C 0.16666 0.4717 0.21025 0.0
C858 C 0.14082 0.49509 0.19455 0.0
C859 C 0.67578 0.70571 0.19356 0.0
C860 C 0.64933 0.7414 0.19825 0.0
C861 C 0.65052 0.65806 0.17806 0.0
C862 C 0.59744 0.64325 0.16606 0.0
H863 H 0.71649 0.71398 0.20214 0.0
H864 H 0.67396 0.6333 0.17514 0.0
S865 S 0.51045 0.72317 0.17118 0.0
N866 N 0.56622 0.7582 0.18931 0.0
N867 N 0.51998 0.66996 0.15954 0.0
C868 C 0.57031 0.67856 0.17038 0.0
C869 C 0.59594 0.72718 0.18648 0.0
C870 C 0.01878 0.39521 0.87135 0.0
C871 C 0.97832 0.40526 0.88407 0.0
C872 C 0.99865 0.34989 0.85497 0.0
C873 C 0.93668 0.31187 0.8501 0.0
H874 H 0.06702 0.42211 0.87435 0.0
H875 H 0.03273 0.34574 0.8457 0.0
S876 S 0.81088 0.31665 0.87921 0.0
N877 N 0.87239 0.37106 0.89127 0.0
N878 N 0.83447 0.28696 0.85996 0.0
C879 C 0.8953 0.32105 0.86271 0.0
C880 C 0.91603 0.36737 0.87968 0.0
C881 C 0.66244 0.54152 0.85677 0.0
C882 C 0.62988 0.56964 0.86388 0.0
C883 C 0.70991 0.56929 0.84093 0.0
C884 C 0.72767 0.62692 0.83188 0.0
H885 H 0.65266 0.49878 0.86403 0.0
H886 H 0.7331 0.54558 0.83589 0.0
S887 S 0.65252 0.71686 0.84344 0.0
N888 N 0.6147 0.65525 0.85863 0.0
N889 N 0.7054 0.70915 0.83079 0.0
C890 C 0.69401 0.6544 0.83854 0.0
C891 C 0.64474 0.62527 0.85388 0.0
C892 C 0.37909 0.04457 0.86269 0.0
C893 C 0.40726 0.10673 0.85738 0.0
C894 C 0.4047 0.02195 0.87787 0.0
C895 C 0.46012 0.06001 0.88864 0.0
H896 H 0.33697 0.01233 0.85474 0.0
H897 H 0.38021 0.97384 0.88137 0.0
S898 S 0.55142 0.22704 0.88203 0.0
N899 N 0.49362 0.20654 0.86495 0.0
N900 N 0.54114 0.16404 0.89373 0.0
C901 C 0.48875 0.12246 0.88381 0.0
C902 C 0.46248 0.14573 0.86825 0.0
C903 C 0.99273 0.25143 0.53878 0.0
C904 C 0.96201 0.28159 0.54545 0.0
C905 C 0.03939 0.27668 0.52277 0.0
C906 C 0.0574 0.3332 0.5127 0.0
H907 H 0.98225 0.20901 0.54656 0.0
H908 H 0.06113 0.25127 0.51816 0.0
S909 S 0.98913 0.42925 0.52364 0.0
N910 N 0.95139 0.37002 0.54005 0.0
N911 N 0.03875 0.4175 0.51034 0.0
C912 C 0.02615 0.36322 0.519 0.0
C913 C 0.97855 0.33738 0.53516 0.0
C914 C 0.77879 0.81177 0.50862 0.0
C915 C 0.71972 0.77632 0.5 0.0
C916 C 0.80144 0.78963 0.52536 0.0
C917 C 0.76617 0.73088 0.53429 0.0
H918 H 0.80848 0.85671 0.50208 0.0
H919 H 0.84674 0.81931 0.53158 0.0
S920 S 0.60867 0.61912 0.51756 0.0
N921 N 0.6265 0.67891 0.50192 0.0
N922 N 0.66889 0.63763 0.53303 0.0
C923 C 0.70706 0.69499 0.52584 0.0
C924 C 0.68396 0.71754 0.50887 0.0
C925 C 0.32638 0.03295 0.52391 0.0
C926 C 0.2646 0.99434 0.51888 0.0
C927 C 0.34555 0.07651 0.54104 0.0
C928 C 0.30422 0.08443 0.55415 0.0
H929 H 0.36082 0.03017 0.51434 0.0
H930 H 0.39364 0.10374 0.54428 0.0
S931 S 0.13703 0.99441 0.54863 0.0
N932 N 0.1618 0.9669 0.52899 0.0
N933 N 0.19789 0.04838 0.56114 0.0
C934 C 0.24223 0.04644 0.54935 0.0
C935 C 0.22252 1.00165 0.53185 0.0
C936 C 0.47749 0.35095 0.1292 0.0
C937 C 0.52895 0.39167 0.11692 0.0
C938 C 0.45784 0.28869 0.12983 0.0
C939 C 0.48828 0.26423 0.11796 0.0
H940 H 0.45217 0.36731 0.13843 0.0
H941 H 0.41843 0.25949 0.13978 0.0
S942 S 0.6216 0.3507 0.08121 0.0
N943 N 0.60802 0.40251 0.09157 0.0
N944 N 0.57033 0.28583 0.09233 0.0
C945 C 0.5394 0.30446 0.10539 0.0
C946 C 0.55982 0.36795 0.10495 0.0
C947 C 0.6971 0.20268 0.13556 0.0
C948 C 0.67244 0.13968 0.13671 0.0
C949 C 0.75988 0.24186 0.13368 0.0
C950 C 0.80026 0.21951 0.13255 0.0
H951 H 0.66779 0.22185 0.1359 0.0
H952 H 0.77687 0.29003 0.13321 0.0
S953 S 0.75894 0.05821 0.13364 0.0
N954 N 0.69414 0.05681 0.13629 0.0
N955 N 0.81083 0.13046 0.13185 0.0
C956 C 0.77621 0.15676 0.1336 0.0
C957 C 0.71272 0.11692 0.13589 0.0
C958 C 0.88276 0.59875 0.13047 0.0
C959 C 0.82123 0.56091 0.12553 0.0
C960 C 0.92084 0.57546 0.13406 0.0
C961 C 0.90012 0.5131 0.1321 0.0
H962 H 0.90251 0.64737 0.13113 0.0
H963 H 0.96778 0.60761 0.13768 0.0
S964 S 0.74118 0.39268 0.12273 0.0
N965 N 0.7392 0.45623 0.12184 0.0
N966 N 0.81266 0.4129 0.12699 0.0
C967 C 0.83824 0.474 0.12802 0.0
C968 C 0.79849 0.49775 0.12497 0.0
C969 C 0.37563 0.54244 0.92762 0.0
C970 C 0.39699 0.50421 0.92047 0.0
C971 C 0.3135 0.52031 0.9308 0.0
C972 C 0.27021 0.45861 0.92744 0.0
H973 H 0.40717 0.58948 0.93128 0.0
H974 H 0.29968 0.55202 0.93602 0.0
S975 S 0.3031 0.33947 0.90845 0.0
N976 N 0.36929 0.40234 0.90856 0.0
N977 N 0.25462 0.3595 0.91715 0.0
C978 C 0.29133 0.42002 0.92025 0.0
C979 C 0.35403 0.44311 0.91607 0.0
C980 C 0.58429 0.89475 0.92152 0.0
C981 C 0.52473 0.87399 0.92897 0.0
C982 C 0.60753 0.8561 0.91963 0.0
C983 C 0.57209 0.79426 0.9245 0.0
H984 H 0.61457 0.94207 0.91771 0.0
H985 H 0.65443 0.8755 0.9148 0.0
S986 S 0.40967 0.7147 0.94114 0.0
N987 N 0.42874 0.7866 0.93941 0.0
N988 N 0.47112 0.71235 0.93452 0.0
C989 C 0.51096 0.77176 0.93066 0.0
C990 C 0.48754 0.8119 0.93308 0.0
C991 C 0.19044 0.7531 0.93015 0.0
C992 C 0.23589 0.77503 0.94664 0.0
C993 C 0.15261 0.6908 0.92652 0.0
C994 C 0.15963 0.64801 0.93887 0.0
H995 H 0.18417 0.78421 0.91982 0.0
H996 H 0.11725 0.67597 0.91407 0.0
S997 S 0.26823 0.68075 0.98509 0.0
N998 N 0.28252 0.748 0.97648 0.0
N999 N 0.21352 0.63135 0.96883 0.0
C1000 C 0.20495 0.66903 0.95529 0.0
C1001 C 0.2425 0.73237 0.95938 0.0
C1002 C 0.21018 0.71704 0.46701 0.0
C1003 C 0.17448 0.74277 0.46142 0.0
C1004 C 0.18961 0.6552 0.46303 0.0
C1005 C 0.13302 0.61702 0.45291 0.0
H1006 H 0.25411 0.74474 0.47466 0.0
H1007 H 0.21784 0.63705 0.4682 0.0
S1008 S 0.02647 0.66439 0.43198 0.0
N1009 N 0.08182 0.72592 0.44356 0.0
N1010 N 0.04491 0.61168 0.43531 0.0
C1011 C 0.09819 0.643 0.44647 0.0
C1012 C 0.11843 0.70523 0.4509 0.0
C1013 C 0.39674 0.59096 0.44889 0.0
C1014 C 0.43876 0.57082 0.44799 0.0
C1015 C 0.33571 0.5512 0.45444 0.0
C1016 C 0.31451 0.48993 0.45966 0.0
H1017 H 0.41063 0.63711 0.44429 0.0
H1018 H 0.30455 0.56815 0.45379 0.0
S1019 S 0.40941 0.4177 0.46279 0.0
N1020 N 0.45678 0.48785 0.45484 0.0
N1021 N 0.34315 0.41328 0.46567 0.0
C1022 C 0.35742 0.47057 0.46019 0.0
C1023 C 0.41915 0.51086 0.45421 0.0
C1024 C 0.50806 0.83861 0.45234 0.0
C1025 C 0.5699 0.87794 0.44766 0.0
C1026 C 0.46688 0.86008 0.45359 0.0
C1027 C 0.48577 0.92166 0.45003 0.0
H1028 H 0.49146 0.79103 0.45539 0.0
H1029 H 0.42023 0.82849 0.45786 0.0
S1030 S 0.64086 0.04167 0.43418 0.0
N1031 N 0.64649 0.98072 0.43769 0.0
N1032 N 0.5695 0.0201 0.43939 0.0
C1033 C 0.54694 0.96076 0.44448 0.0
C1034 C 0.58879 0.93921 0.44347 0.0
C1035 C 0.97679 0.86776 0.26477 0.0
C1036 C 0.93478 0.80525 0.26222 0.0
C1037 C 0.03965 0.8902 0.26559 0.0
C1038 C 0.0635 0.85148 0.2634 0.0
H1039 H 0.96137 0.89999 0.26611 0.0
H1040 H 0.06968 0.93812 0.2682 0.0
S1041 S 0.97394 0.68405 0.25643 0.0
N1042 N 0.92291 0.70495 0.2587 0.0
N1043 N 0.03961 0.74735 0.25768 0.0
C1044 C 0.0221 0.78917 0.26023 0.0
C1045 C 0.95833 0.76607 0.26031 0.0
C1046 C 0.28184 0.20721 0.26314 0.0
C1047 C 0.24349 0.14489 0.26615 0.0
C1048 C 0.25877 0.24594 0.26118 0.0
C1049 C 0.19616 0.22433 0.26262 0.0
H1050 H 0.33045 0.22669 0.26291 0.0
H1051 H 0.29106 0.29378 0.25939 0.0
S1052 S 0.07518 0.06374 0.26709 0.0
N1053 N 0.13878 0.06191 0.26751 0.0
N1054 N 0.09557 0.13593 0.26509 0.0
C1055 C 0.15675 0.16178 0.2646 0.0
C1056 C 0.18035 0.12179 0.26617 0.0
C1057 C 0.82688 0.0386 0.23833 0.0
C1058 C 0.82916 0.99395 0.25125 0.0
C1059 C 0.86337 0.10017 0.24348 0.0
C1060 C 0.90236 0.11922 0.26208 0.0
H1061 H 0.7957 0.02572 0.22443 0.0
H1062 H 0.86081 0.13296 0.23283 0.0
S1063 S 0.92089 0.01913 0.30229 0.0
N1064 N 0.8722 0.97245 0.28369 0.0
N1065 N 0.93831 0.08764 0.2941 0.0
C1066 C 0.90465 0.07472 0.2752 0.0
C1067 C 0.86872 0.01225 0.26959 0.0
C1068 C 0.86733 0.97908 0.79053 0.0
C1069 C 0.80777 0.93867 0.78327 0.0
C1070 C 0.88848 0.04153 0.79354 0.0
C1071 C 0.85077 0.06617 0.78964 0.0
H1072 H 0.89755 0.96219 0.79427 0.0
H1073 H 0.93458 0.07061 0.79913 0.0
S1074 S 0.69369 0.98148 0.7676 0.0
N1075 N 0.71377 0.92974 0.77011 0.0
N1076 N 0.75229 0.04528 0.77633 0.0
C1077 C 0.79166 0.02637 0.78186 0.0
C1078 C 0.77054 0.9633 0.77854 0.0
C1079 C 0.09206 0.82899 0.78356 0.0
C1080 C 0.11476 0.88894 0.79082 0.0
C1081 C 0.02963 0.78832 0.78177 0.0
C1082 C 0.98684 0.80572 0.78709 0.0
H1083 H 0.12295 0.81351 0.77898 0.0
H1084 H 0.0149 0.74299 0.77579 0.0
S1085 S 0.02202 0.95535 0.80933 0.0
N1086 N 0.089 0.96214 0.80516 0.0
N1087 N 0.97175 0.88615 0.80126 0.0
C1088 C 1.00875 0.86525 0.79471 0.0
C1089 C 0.07255 0.9067 0.7967 0.0
C1090 C 0.25212 0.2469 0.81375 0.0
C1091 C 0.23739 0.18955 0.80534 0.0
C1092 C 0.21297 0.26991 0.81098 0.0
C1093 C 0.15734 0.2363 0.7999 0.0
H1094 H 0.29518 0.27519 0.82191 0.0
H1095 H 0.22676 0.31487 0.81711 0.0
S1096 S 0.09793 0.08557 0.77385 0.0
N1097 N 0.16308 0.10054 0.78495 0.0
N1098 N 0.08965 0.14382 0.78014 0.0
C1099 C 0.14114 0.17848 0.79195 0.0
C1100 C 0.18108 0.15508 0.79459 0.0
C1101 C 0.627 0.13926 0.59113 0.0
C1102 C 0.60295 0.16588 0.60501 0.0
C1103 C 0.68957 0.16526 0.58871 0.0
C1104 C 0.73024 0.21842 0.60034 0.0
H1105 H 0.59711 0.09727 0.58258 0.0
H1106 H 0.70624 0.14199 0.57837 0.0
S1107 S 0.68846 0.30446 0.63912 0.0
N1108 N 0.62302 0.24783 0.63039 0.0
N1109 N 0.74122 0.29688 0.62612 0.0
C1110 C 0.70639 0.2466 0.61371 0.0
C1111 C 0.64248 0.2201 0.61605 0.0
C1112 C 0.9256 0.53847 0.58069 0.0
C1113 C 0.9113 0.50274 0.60009 0.0
C1114 C 0.89685 0.57145 0.57583 0.0
C1115 C 0.85179 0.56913 0.58991 0.0
H1116 H 0.95948 0.5413 0.56916 0.0
H1117 H 0.91126 0.60044 0.56124 0.0
S1118 S 0.79768 0.48331 0.64288 0.0
N1119 N 0.84946 0.46815 0.6337 0.0
N1120 N 0.79383 0.52822 0.62399 0.0
C1121 C 0.83545 0.53213 0.60895 0.0
C1122 C 0.86564 0.49951 0.6142 0.0
C1123 C 0.45293 0.37343 0.60891 0.0
C1124 C 0.47168 0.33034 0.60679 0.0
C1125 C 0.4946 0.43607 0.60849 0.0
C1126 C 0.55707 0.45891 0.60568 0.0
H1127 H 0.4056 0.35878 0.61142 0.0
H1128 H 0.47769 0.467 0.6105 0.0
S1129 S 0.63023 0.3661 0.59839 0.0
N1130 N 0.55761 0.31583 0.601 0.0
N1131 N 0.63549 0.43294 0.60036 0.0
C1132 C 0.57646 0.41651 0.60301 0.0
C1133 C 0.534 0.35258 0.60357 0.0
loop_
_geom_bond_atom_site_label_1
_geom_bond_atom_site_label_2
_geom_bond_distance
_geom_bond_site_symmetry_2
_ccdc_geom_bond_type
Co0 N5 2.057 . S
Co0 O17 2.021 . S
Co0 O20 2.062 . S
Co0 O24 2.117 . S
Co0 O25 2.020 1_565 S
C1 O21 1.259 . S
C1 O24 1.258 1_545 S
Co2 N11 2.057 . S
Co2 O18 2.117 . S
Co2 O19 2.020 1_545 S
Co2 O21 2.021 . S
Co2 O26 2.062 . S
C3 N5 1.316 . S
C3 N6 1.347 . S
C3 H8 0.931 . S
C4 N5 1.375 . S
C4 C7 1.350 . S
C4 H9 0.930 . S
N5 Co0 2.057 . S
N5 C3 1.316 . S
N5 C4 1.375 . S
N6 C3 1.347 . S
N6 C7 1.373 . S
C7 C4 1.350 . S
C7 N6 1.373 . S
C7 H28 0.931 . S
H8 C3 0.931 . S
H9 C4 0.930 . S
C10 O17 1.259 . S
C10 O18 1.258 1_565 S
N11 Co2 2.057 . S
N11 C12 1.316 . S
N11 C13 1.375 . S
C12 N11 1.316 . S
C12 N14 1.347 . S
C12 H23 0.931 . S
C13 N11 1.375 . S
C13 C15 1.350 . S
C13 H22 0.930 . S
N14 C12 1.347 . S
N14 C15 1.373 . S
C15 C13 1.350 . S
C15 N14 1.373 . S
C15 H29 0.931 . S
C16 O19 1.256 . S
C16 O20 1.255 . S
O17 Co0 2.021 . S
O17 C10 1.259 . S
O18 Co2 2.117 . S
O18 C10 1.258 1_545 S
O19 Co2 2.020 1_565 S
O19 C16 1.256 . S
O20 Co0 2.062 . S
O20 C16 1.255 . S
O21 C1 1.259 . S
O21 Co2 2.021 . S
H22 C13 0.930 . S
H23 C12 0.931 . S
O24 Co0 2.117 . S
O24 C1 1.258 1_565 S
O25 Co0 2.020 1_545 S
O25 C27 1.256 . S
O26 Co2 2.062 . S
O26 C27 1.255 . S
C27 O25 1.256 . S
C27 O26 1.255 . S
H28 C7 0.931 . S
H29 C15 0.931 . S
Co30 N35 2.057 . S
Co30 O47 2.021 . S
Co30 O50 2.062 . S
Co30 O54 2.117 . S
Co30 O55 2.020 1_455 S
C31 O51 1.259 1_455 S
C31 O54 1.258 . S
Co32 N41 2.057 . S
Co32 O48 2.117 1_655 S
Co32 O49 2.020 1_655 S
Co32 O51 2.021 . S
Co32 O56 2.062 . S
C33 N35 1.316 . S
C33 N36 1.347 . S
C33 H38 0.931 . S
C34 N35 1.375 . S
C34 C37 1.350 . S
C34 H39 0.930 . S
N35 Co30 2.057 . S
N35 C33 1.316 . S
N35 C34 1.375 . S
N36 C33 1.347 . S
N36 C37 1.373 . S
C37 C34 1.350 . S
C37 N36 1.373 . S
C37 H58 0.931 . S
H38 C33 0.931 . S
H39 C34 0.930 . S
C40 O47 1.259 . S
C40 O48 1.258 . S
N41 Co32 2.057 . S
N41 C42 1.316 . S
N41 C43 1.375 . S
C42 N41 1.316 . S
C42 N44 1.347 . S
C42 H53 0.931 . S
C43 N41 1.375 . S
C43 C45 1.350 . S
C43 H52 0.930 . S
N44 C42 1.347 . S
N44 C45 1.373 . S
C45 C43 1.350 . S
C45 N44 1.373 . S
C45 H59 0.931 . S
C46 O49 1.256 . S
C46 O50 1.255 . S
O47 Co30 2.021 . S
O47 C40 1.259 . S
O48 Co32 2.117 1_455 S
O48 C40 1.258 . S
O49 Co32 2.020 1_455 S
O49 C46 1.256 . S
O50 Co30 2.062 . S
O50 C46 1.255 . S
O51 C31 1.259 1_655 S
O51 Co32 2.021 . S
H52 C43 0.930 . S
H53 C42 0.931 . S
O54 Co30 2.117 . S
O54 C31 1.258 . S
O55 Co30 2.020 1_655 S
O55 C57 1.256 . S
O56 Co32 2.062 . S
O56 C57 1.255 . S
C57 O55 1.256 . S
C57 O56 1.255 . S
H58 C37 0.931 . S
H59 C45 0.931 . S
Co60 N65 2.057 . S
Co60 O77 2.021 . S
Co60 O80 2.062 . S
Co60 O84 2.117 . S
Co60 O85 2.020 . S
C61 O81 1.259 . S
C61 O84 1.258 . S
Co62 N71 2.057 . S
Co62 O78 2.117 . S
Co62 O79 2.020 . S
Co62 O81 2.021 . S
Co62 O86 2.062 . S
C63 N65 1.316 . S
C63 N66 1.347 . S
C63 H68 0.931 . S
C64 N65 1.375 . S
C64 C67 1.350 . S
C64 H69 0.930 . S
N65 Co60 2.057 . S
N65 C63 1.316 . S
N65 C64 1.375 . S
N66 C63 1.347 . S
N66 C67 1.373 . S
C67 C64 1.350 . S
C67 N66 1.373 . S
C67 H88 0.931 . S
H68 C63 0.931 . S
H69 C64 0.930 . S
C70 O77 1.259 . S
C70 O78 1.258 . S
N71 Co62 2.057 . S
N71 C72 1.316 . S
N71 C73 1.375 . S
C72 N71 1.316 . S
C72 N74 1.347 . S
C72 H83 0.931 . S
C73 N71 1.375 . S
C73 C75 1.350 . S
C73 H82 0.930 . S
N74 C72 1.347 . S
N74 C75 1.373 . S
C75 C73 1.350 . S
C75 N74 1.373 . S
C75 H89 0.931 . S
C76 O79 1.256 . S
C76 O80 1.255 . S
O77 Co60 2.021 . S
O77 C70 1.259 . S
O78 Co62 2.117 . S
O78 C70 1.258 . S
O79 Co62 2.020 . S
O79 C76 1.256 . S
O80 Co60 2.062 . S
O80 C76 1.255 . S
O81 C61 1.259 . S
O81 Co62 2.021 . S
H82 C73 0.930 . S
H83 C72 0.931 . S
O84 Co60 2.117 . S
O84 C61 1.258 . S
O85 Co60 2.020 . S
O85 C87 1.256 . S
O86 Co62 2.062 . S
O86 C87 1.255 . S
C87 O85 1.256 . S
C87 O86 1.255 . S
H88 C67 0.931 . S
H89 C75 0.931 . S
Co90 N95 2.057 . S
Co90 O107 2.021 . S
Co90 O110 2.062 . S
Co90 O114 2.117 . S
Co90 O115 2.020 1_655 S
C91 O111 1.259 . S
C91 O114 1.258 1_455 S
Co92 N101 2.057 . S
Co92 O108 2.117 . S
Co92 O109 2.020 1_455 S
Co92 O111 2.021 . S
Co92 O116 2.062 . S
C93 N95 1.316 . S
C93 N96 1.347 . S
C93 H98 0.931 . S
C94 N95 1.375 . S
C94 C97 1.350 . S
C94 H99 0.930 . S
N95 Co90 2.057 . S
N95 C93 1.316 . S
N95 C94 1.375 . S
N96 C93 1.347 . S
N96 C97 1.373 . S
C97 C94 1.350 . S
C97 N96 1.373 . S
C97 H118 0.931 . S
H98 C93 0.931 . S
H99 C94 0.930 . S
C100 O107 1.259 . S
C100 O108 1.258 1_655 S
N101 Co92 2.057 . S
N101 C102 1.316 . S
N101 C103 1.375 . S
C102 N101 1.316 . S
C102 N104 1.347 . S
C102 H113 0.931 . S
C103 N101 1.375 . S
C103 C105 1.350 . S
C103 H112 0.930 . S
N104 C102 1.347 . S
N104 C105 1.373 . S
C105 C103 1.350 . S
C105 N104 1.373 . S
C105 H119 0.931 . S
C106 O109 1.256 . S
C106 O110 1.255 . S
O107 Co90 2.021 . S
O107 C100 1.259 . S
O108 Co92 2.117 . S
O108 C100 1.258 1_455 S
O109 Co92 2.020 1_655 S
O109 C106 1.256 . S
O110 Co90 2.062 . S
O110 C106 1.255 . S
O111 C91 1.259 . S
O111 Co92 2.021 . S
H112 C103 0.930 . S
H113 C102 0.931 . S
O114 Co90 2.117 . S
O114 C91 1.258 1_655 S
O115 Co90 2.020 1_455 S
O115 C117 1.256 . S
O116 Co92 2.062 . S
O116 C117 1.255 . S
C117 O115 1.256 . S
C117 O116 1.255 . S
H118 C97 0.931 . S
H119 C105 0.931 . S
Co120 N125 2.057 . S
Co120 O137 2.021 . S
Co120 O140 2.062 . S
Co120 O144 2.117 . S
Co120 O145 2.020 . S
C121 O141 1.259 . S
C121 O144 1.258 . S
Co122 N131 2.057 . S
Co122 O138 2.117 . S
Co122 O139 2.020 . S
Co122 O141 2.021 . S
Co122 O146 2.062 . S
C123 N125 1.316 . S
C123 N126 1.347 . S
C123 H128 0.931 . S
C124 N125 1.375 . S
C124 C127 1.350 . S
C124 H129 0.930 . S
N125 Co120 2.057 . S
N125 C123 1.316 . S
N125 C124 1.375 . S
N126 C123 1.347 . S
N126 C127 1.373 . S
C127 C124 1.350 . S
C127 N126 1.373 . S
C127 H148 0.931 . S
H128 C123 0.931 . S
H129 C124 0.930 . S
C130 O137 1.259 . S
C130 O138 1.258 . S
N131 Co122 2.057 . S
N131 C132 1.316 . S
N131 C133 1.375 . S
C132 N131 1.316 . S
C132 N134 1.347 . S
C132 H143 0.931 . S
C133 N131 1.375 . S
C133 C135 1.350 . S
C133 H142 0.930 . S
N134 C132 1.347 . S
N134 C135 1.373 . S
C135 C133 1.350 . S
C135 N134 1.373 . S
C135 H149 0.931 . S
C136 O139 1.256 . S
C136 O140 1.255 . S
O137 Co120 2.021 . S
O137 C130 1.259 . S
O138 Co122 2.117 . S
O138 C130 1.258 . S
O139 Co122 2.020 . S
O139 C136 1.256 . S
O140 Co120 2.062 . S
O140 C136 1.255 . S
O141 C121 1.259 . S
O141 Co122 2.021 . S
H142 C133 0.930 . S
H143 C132 0.931 . S
O144 Co120 2.117 . S
O144 C121 1.258 . S
O145 Co120 2.020 . S
O145 C147 1.256 . S
O146 Co122 2.062 . S
O146 C147 1.255 . S
C147 O145 1.256 . S
C147 O146 1.255 . S
H148 C127 0.931 . S
H149 C135 0.931 . S
Co150 N155 2.057 . S
Co150 O167 2.021 . S
Co150 O170 2.062 . S
Co150 O174 2.117 . S
Co150 O175 2.020 1_545 S
C151 O171 1.259 1_545 S
C151 O174 1.258 . S
Co152 N161 2.057 . S
Co152 O168 2.117 1_565 S
Co152 O169 2.020 1_565 S
Co152 O171 2.021 . S
Co152 O176 2.062 . S
C153 N155 1.316 . S
C153 N156 1.347 . S
C153 H158 0.931 . S
C154 N155 1.375 . S
C154 C157 1.350 . S
C154 H159 0.930 . S
N155 Co150 2.057 . S
N155 C153 1.316 . S
N155 C154 1.375 . S
N156 C153 1.347 . S
N156 C157 1.373 . S
C157 C154 1.350 . S
C157 N156 1.373 . S
C157 H178 0.931 . S
H158 C153 0.931 . S
H159 C154 0.930 . S
C160 O167 1.259 . S
C160 O168 1.258 . S
N161 Co152 2.057 . S
N161 C162 1.316 . S
N161 C163 1.375 . S
C162 N161 1.316 . S
C162 N164 1.347 . S
C162 H173 0.931 . S
C163 N161 1.375 . S
C163 C165 1.350 . S
C163 H172 0.930 . S
N164 C162 1.347 . S
N164 C165 1.373 . S
C165 C163 1.350 . S
C165 N164 1.373 . S
C165 H179 0.931 . S
C166 O169 1.256 . S
C166 O170 1.255 . S
O167 Co150 2.021 . S
O167 C160 1.259 . S
O168 Co152 2.117 1_545 S
O168 C160 1.258 . S
O169 Co152 2.020 1_545 S
O169 C166 1.256 . S
O170 Co150 2.062 . S
O170 C166 1.255 . S
O171 C151 1.259 1_565 S
O171 Co152 2.021 . S
H172 C163 0.930 . S
H173 C162 0.931 . S
O174 Co150 2.117 . S
O174 C151 1.258 . S
O175 Co150 2.020 1_565 S
O175 C177 1.256 . S
O176 Co152 2.062 . S
O176 C177 1.255 . S
C177 O175 1.256 . S
C177 O176 1.255 . S
H178 C157 0.931 . S
H179 C165 0.931 . S
Co180 N185 2.057 . S
Co180 O197 2.021 . S
Co180 O200 2.062 . S
Co180 O204 2.117 . S
Co180 O205 2.020 . S
C181 O201 1.259 . S
C181 O204 1.258 . S
Co182 N191 2.057 . S
Co182 O198 2.117 . S
Co182 O199 2.020 . S
Co182 O201 2.021 . S
Co182 O206 2.062 . S
C183 N185 1.316 . S
C183 N186 1.347 . S
C183 H188 0.931 . S
C184 N185 1.375 . S
C184 C187 1.350 . S
C184 H189 0.930 . S
N185 Co180 2.057 . S
N185 C183 1.316 . S
N185 C184 1.375 . S
N186 C183 1.347 . S
N186 C187 1.373 . S
C187 C184 1.350 . S
C187 N186 1.373 . S
C187 H208 0.931 . S
H188 C183 0.931 . S
H189 C184 0.930 . S
C190 O197 1.259 . S
C190 O198 1.258 . S
N191 Co182 2.057 . S
N191 C192 1.316 . S
N191 C193 1.375 . S
C192 N191 1.316 . S
C192 N194 1.347 . S
C192 H203 0.931 . S
C193 N191 1.375 . S
C193 C195 1.350 . S
C193 H202 0.930 . S
N194 C192 1.347 . S
N194 C195 1.373 . S
C195 C193 1.350 . S
C195 N194 1.373 . S
C195 H209 0.931 . S
C196 O199 1.256 . S
C196 O200 1.255 . S
O197 Co180 2.021 . S
O197 C190 1.259 . S
O198 Co182 2.117 . S
O198 C190 1.258 . S
O199 Co182 2.020 . S
O199 C196 1.256 . S
O200 Co180 2.062 . S
O200 C196 1.255 . S
O201 C181 1.259 . S
O201 Co182 2.021 . S
H202 C193 0.930 . S
H203 C192 0.931 . S
O204 Co180 2.117 . S
O204 C181 1.258 . S
O205 Co180 2.020 . S
O205 C207 1.256 . S
O206 Co182 2.062 . S
O206 C207 1.255 . S
C207 O205 1.256 . S
C207 O206 1.255 . S
H208 C187 0.931 . S
H209 C195 0.931 . S
Co210 N215 2.057 . S
Co210 O227 2.021 . S
Co210 O230 2.062 . S
Co210 O234 2.117 . S
Co210 O235 2.020 . S
C211 O231 1.259 . S
C211 O234 1.258 . S
Co212 N221 2.057 . S
Co212 O228 2.117 . S
Co212 O229 2.020 . S
Co212 O231 2.021 . S
Co212 O236 2.062 . S
C213 N215 1.316 1_545 S
C213 N216 1.347 . S
C213 H218 0.931 . S
C214 N215 1.375 1_545 S
C214 C217 1.350 . S
C214 H219 0.930 1_545 S
N215 Co210 2.057 . S
N215 C213 1.316 1_565 S
N215 C214 1.375 1_565 S
N216 C213 1.347 . S
N216 C217 1.373 . S
C217 C214 1.350 . S
C217 N216 1.373 . S
C217 H238 0.931 . S
H218 C213 0.931 . S
H219 C214 0.930 1_565 S
C220 O227 1.259 . S
C220 O228 1.258 . S
N221 Co212 2.057 . S
N221 C222 1.316 . S
N221 C223 1.375 . S
C222 N221 1.316 . S
C222 N224 1.347 . S
C222 H233 0.931 . S
C223 N221 1.375 . S
C223 C225 1.350 . S
C223 H232 0.930 . S
N224 C222 1.347 . S
N224 C225 1.373 . S
C225 C223 1.350 . S
C225 N224 1.373 . S
C225 H239 0.931 . S
C226 O229 1.256 . S
C226 O230 1.255 . S
O227 Co210 2.021 . S
O227 C220 1.259 . S
O228 Co212 2.117 . S
O228 C220 1.258 . S
O229 Co212 2.020 . S
O229 C226 1.256 . S
O230 Co210 2.062 . S
O230 C226 1.255 . S
O231 C211 1.259 . S
O231 Co212 2.021 . S
H232 C223 0.930 . S
H233 C222 0.931 . S
O234 Co210 2.117 . S
O234 C211 1.258 . S
O235 Co210 2.020 . S
O235 C237 1.256 . S
O236 Co212 2.062 . S
O236 C237 1.255 . S
C237 O235 1.256 . S
C237 O236 1.255 . S
H238 C217 0.931 . S
H239 C225 0.931 . S
Co240 N245 2.057 . S
Co240 O257 2.021 . S
Co240 O260 2.062 . S
Co240 O264 2.117 . S
Co240 O265 2.020 . S
C241 O261 1.259 . S
C241 O264 1.258 . S
Co242 N251 2.057 . S
Co242 O258 2.117 . S
Co242 O259 2.020 . S
Co242 O261 2.021 . S
Co242 O266 2.062 . S
C243 N245 1.316 . S
C243 N246 1.347 1_455 S
C243 H248 0.931 . S
C244 N245 1.375 . S
C244 C247 1.350 1_455 S
C244 H249 0.930 . S
N245 Co240 2.057 . S
N245 C243 1.316 . S
N245 C244 1.375 . S
N246 C243 1.347 1_655 S
N246 C247 1.373 . S
C247 C244 1.350 1_655 S
C247 N246 1.373 . S
C247 H268 0.931 . S
H248 C243 0.931 . S
H249 C244 0.930 . S
C250 O257 1.259 . S
C250 O258 1.258 . S
N251 Co242 2.057 . S
N251 C252 1.316 . S
N251 C253 1.375 . S
C252 N251 1.316 . S
C252 N254 1.347 . S
C252 H263 0.931 . S
C253 N251 1.375 . S
C253 C255 1.350 . S
C253 H262 0.930 . S
N254 C252 1.347 . S
N254 C255 1.373 . S
C255 C253 1.350 . S
C255 N254 1.373 . S
C255 H269 0.931 . S
C256 O259 1.256 . S
C256 O260 1.255 . S
O257 Co240 2.021 . S
O257 C250 1.259 . S
O258 Co242 2.117 . S
O258 C250 1.258 . S
O259 Co242 2.020 . S
O259 C256 1.256 . S
O260 Co240 2.062 . S
O260 C256 1.255 . S
O261 C241 1.259 . S
O261 Co242 2.021 . S
H262 C253 0.930 . S
H263 C252 0.931 . S
O264 Co240 2.117 . S
O264 C241 1.258 . S
O265 Co240 2.020 . S
O265 C267 1.256 . S
O266 Co242 2.062 . S
O266 C267 1.255 . S
C267 O265 1.256 . S
C267 O266 1.255 . S
H268 C247 0.931 . S
H269 C255 0.931 . S
Co270 N275 2.057 . S
Co270 O287 2.021 . S
Co270 O290 2.062 . S
Co270 O294 2.117 . S
Co270 O295 2.020 . S
C271 O291 1.259 . S
C271 O294 1.258 . S
Co272 N281 2.057 . S
Co272 O288 2.117 . S
Co272 O289 2.020 . S
Co272 O291 2.021 . S
Co272 O296 2.062 . S
C273 N275 1.316 . S
C273 N276 1.347 . S
C273 H278 0.931 . S
C274 N275 1.375 . S
C274 C277 1.350 . S
C274 H279 0.930 . S
N275 Co270 2.057 . S
N275 C273 1.316 . S
N275 C274 1.375 . S
N276 C273 1.347 . S
N276 C277 1.373 . S
C277 C274 1.350 . S
C277 N276 1.373 . S
C277 H298 0.931 . S
H278 C273 0.931 . S
H279 C274 0.930 . S
C280 O287 1.259 . S
C280 O288 1.258 . S
N281 Co272 2.057 . S
N281 C282 1.316 . S
N281 C283 1.375 . S
C282 N281 1.316 . S
C282 N284 1.347 . S
C282 H293 0.931 . S
C283 N281 1.375 . S
C283 C285 1.350 . S
C283 H292 0.930 . S
N284 C282 1.347 . S
N284 C285 1.373 . S
C285 C283 1.350 . S
C285 N284 1.373 . S
C285 H299 0.931 . S
C286 O289 1.256 . S
C286 O290 1.255 . S
O287 Co270 2.021 . S
O287 C280 1.259 . S
O288 Co272 2.117 . S
O288 C280 1.258 . S
O289 Co272 2.020 . S
O289 C286 1.256 . S
O290 Co270 2.062 . S
O290 C286 1.255 . S
O291 C271 1.259 . S
O291 Co272 2.021 . S
H292 C283 0.930 . S
H293 C282 0.931 . S
O294 Co270 2.117 . S
O294 C271 1.258 . S
O295 Co270 2.020 . S
O295 C297 1.256 . S
O296 Co272 2.062 . S
O296 C297 1.255 . S
C297 O295 1.256 . S
C297 O296 1.255 . S
H298 C277 0.931 . S
H299 C285 0.931 . S
Co300 N305 2.057 . S
Co300 O317 2.021 . S
Co300 O320 2.062 . S
Co300 O324 2.117 . S
Co300 O325 2.020 . S
C301 O321 1.259 . S
C301 O324 1.258 . S
Co302 N311 2.057 1_565 S
Co302 O318 2.117 . S
Co302 O319 2.020 . S
Co302 O321 2.021 . S
Co302 O326 2.062 . S
C303 N305 1.316 . S
C303 N306 1.347 . S
C303 H308 0.931 . S
C304 N305 1.375 . S
C304 C307 1.350 . S
C304 H309 0.930 . S
N305 Co300 2.057 . S
N305 C303 1.316 . S
N305 C304 1.375 . S
N306 C303 1.347 . S
N306 C307 1.373 . S
C307 C304 1.350 . S
C307 N306 1.373 . S
C307 H328 0.931 . S
H308 C303 0.931 . S
H309 C304 0.930 . S
C310 O317 1.259 . S
C310 O318 1.258 . S
N311 Co302 2.057 1_545 S
N311 C312 1.316 . S
N311 C313 1.375 . S
C312 N311 1.316 . S
C312 N314 1.347 . S
C312 H323 0.931 . S
C313 N311 1.375 . S
C313 C315 1.350 . S
C313 H322 0.930 . S
N314 C312 1.347 . S
N314 C315 1.373 . S
C315 C313 1.350 . S
C315 N314 1.373 . S
C315 H329 0.931 . S
C316 O319 1.256 . S
C316 O320 1.255 . S
O317 Co300 2.021 . S
O317 C310 1.259 . S
O318 Co302 2.117 . S
O318 C310 1.258 . S
O319 Co302 2.020 . S
O319 C316 1.256 . S
O320 Co300 2.062 . S
O320 C316 1.255 . S
O321 C301 1.259 . S
O321 Co302 2.021 . S
H322 C313 0.930 . S
H323 C312 0.931 . S
O324 Co300 2.117 . S
O324 C301 1.258 . S
O325 Co300 2.020 . S
O325 C327 1.256 . S
O326 Co302 2.062 . S
O326 C327 1.255 . S
C327 O325 1.256 . S
C327 O326 1.255 . S
H328 C307 0.931 . S
H329 C315 0.931 . S
Co330 N335 2.057 . S
Co330 O347 2.021 . S
Co330 O350 2.062 . S
Co330 O354 2.117 . S
Co330 O355 2.020 . S
C331 O351 1.259 . S
C331 O354 1.258 . S
Co332 N341 2.057 . S
Co332 O348 2.117 . S
Co332 O349 2.020 . S
Co332 O351 2.021 . S
Co332 O356 2.062 . S
C333 N335 1.316 . S
C333 N336 1.347 . S
C333 H338 0.931 . S
C334 N335 1.375 . S
C334 C337 1.350 . S
C334 H339 0.930 . S
N335 Co330 2.057 . S
N335 C333 1.316 . S
N335 C334 1.375 . S
N336 C333 1.347 . S
N336 C337 1.373 . S
C337 C334 1.350 . S
C337 N336 1.373 . S
C337 H358 0.931 . S
H338 C333 0.931 . S
H339 C334 0.930 . S
C340 O347 1.259 . S
C340 O348 1.258 . S
N341 Co332 2.057 . S
N341 C342 1.316 1_455 S
N341 C343 1.375 1_455 S
C342 N341 1.316 1_655 S
C342 N344 1.347 . S
C342 H353 0.931 . S
C343 N341 1.375 1_655 S
C343 C345 1.350 . S
C343 H352 0.930 . S
N344 C342 1.347 . S
N344 C345 1.373 . S
C345 C343 1.350 . S
C345 N344 1.373 . S
C345 H359 0.931 . S
C346 O349 1.256 . S
C346 O350 1.255 . S
O347 Co330 2.021 . S
O347 C340 1.259 . S
O348 Co332 2.117 . S
O348 C340 1.258 . S
O349 Co332 2.020 . S
O349 C346 1.256 . S
O350 Co330 2.062 . S
O350 C346 1.255 . S
O351 C331 1.259 . S
O351 Co332 2.021 . S
H352 C343 0.930 . S
H353 C342 0.931 . S
O354 Co330 2.117 . S
O354 C331 1.258 . S
O355 Co330 2.020 . S
O355 C357 1.256 . S
O356 Co332 2.062 . S
O356 C357 1.255 . S
C357 O355 1.256 . S
C357 O356 1.255 . S
H358 C337 0.931 . S
H359 C345 0.931 . S
Co360 N365 2.057 . S
Co360 O377 2.021 . S
Co360 O380 2.062 . S
Co360 O384 2.117 . S
Co360 O385 2.020 . S
C361 O381 1.259 . S
C361 O384 1.258 . S
Co362 N371 2.057 . S
Co362 O378 2.117 . S
Co362 O379 2.020 . S
Co362 O381 2.021 . S
Co362 O386 2.062 . S
C363 N365 1.316 . S
C363 N366 1.347 . S
C363 H368 0.931 . S
C364 N365 1.375 . S
C364 C367 1.350 . S
C364 H369 0.930 . S
N365 Co360 2.057 . S
N365 C363 1.316 . S
N365 C364 1.375 . S
N366 C363 1.347 . S
N366 C367 1.373 . S
C367 C364 1.350 . S
C367 N366 1.373 . S
C367 H388 0.931 . S
H368 C363 0.931 . S
H369 C364 0.930 . S
C370 O377 1.259 . S
C370 O378 1.258 . S
N371 Co362 2.057 . S
N371 C372 1.316 . S
N371 C373 1.375 . S
C372 N371 1.316 . S
C372 N374 1.347 . S
C372 H383 0.931 . S
C373 N371 1.375 . S
C373 C375 1.350 . S
C373 H382 0.930 . S
N374 C372 1.347 . S
N374 C375 1.373 . S
C375 C373 1.350 . S
C375 N374 1.373 . S
C375 H389 0.931 . S
C376 O379 1.256 . S
C376 O380 1.255 . S
O377 Co360 2.021 . S
O377 C370 1.259 . S
O378 Co362 2.117 . S
O378 C370 1.258 . S
O379 Co362 2.020 . S
O379 C376 1.256 . S
O380 Co360 2.062 . S
O380 C376 1.255 . S
O381 C361 1.259 . S
O381 Co362 2.021 . S
H382 C373 0.930 . S
H383 C372 0.931 . S
O384 Co360 2.117 . S
O384 C361 1.258 . S
O385 Co360 2.020 . S
O385 C387 1.256 . S
O386 Co362 2.062 . S
O386 C387 1.255 . S
C387 O385 1.256 . S
C387 O386 1.255 . S
H388 C367 0.931 . S
H389 C375 0.931 . S
Co390 N395 2.057 . S
Co390 O407 2.021 . S
Co390 O410 2.062 . S
Co390 O414 2.117 . S
Co390 O415 2.020 . S
C391 O411 1.259 . S
C391 O414 1.258 . S
Co392 N401 2.057 . S
Co392 O408 2.117 . S
Co392 O409 2.020 . S
Co392 O411 2.021 . S
Co392 O416 2.062 . S
C393 N395 1.316 . S
C393 N396 1.347 . S
C393 H398 0.931 . S
C394 N395 1.375 . S
C394 C397 1.350 . S
C394 H399 0.930 . S
N395 Co390 2.057 . S
N395 C393 1.316 . S
N395 C394 1.375 . S
N396 C393 1.347 . S
N396 C397 1.373 . S
C397 C394 1.350 . S
C397 N396 1.373 . S
C397 H418 0.931 . S
H398 C393 0.931 . S
H399 C394 0.930 . S
C400 O407 1.259 . S
C400 O408 1.258 . S
N401 Co392 2.057 . S
N401 C402 1.316 1_545 S
N401 C403 1.375 1_545 S
C402 N401 1.316 1_565 S
C402 N404 1.347 . S
C402 H413 0.931 . S
C403 N401 1.375 1_565 S
C403 C405 1.350 . S
C403 H412 0.930 . S
N404 C402 1.347 . S
N404 C405 1.373 . S
C405 C403 1.350 . S
C405 N404 1.373 . S
C405 H419 0.931 . S
C406 O409 1.256 . S
C406 O410 1.255 . S
O407 Co390 2.021 . S
O407 C400 1.259 . S
O408 Co392 2.117 . S
O408 C400 1.258 . S
O409 Co392 2.020 . S
O409 C406 1.256 . S
O410 Co390 2.062 . S
O410 C406 1.255 . S
O411 C391 1.259 . S
O411 Co392 2.021 . S
H412 C403 0.930 . S
H413 C402 0.931 . S
O414 Co390 2.117 . S
O414 C391 1.258 . S
O415 Co390 2.020 . S
O415 C417 1.256 . S
O416 Co392 2.062 . S
O416 C417 1.255 . S
C417 O415 1.256 . S
C417 O416 1.255 . S
H418 C397 0.931 . S
H419 C405 0.931 . S
Co420 N425 2.057 . S
Co420 O437 2.021 . S
Co420 O440 2.062 . S
Co420 O444 2.117 . S
Co420 O445 2.020 . S
C421 O441 1.259 . S
C421 O444 1.258 . S
Co422 N431 2.057 1_655 S
Co422 O438 2.117 . S
Co422 O439 2.020 . S
Co422 O441 2.021 . S
Co422 O446 2.062 . S
C423 N425 1.316 . S
C423 N426 1.347 . S
C423 H428 0.931 . S
C424 N425 1.375 . S
C424 C427 1.350 . S
C424 H429 0.930 . S
N425 Co420 2.057 . S
N425 C423 1.316 . S
N425 C424 1.375 . S
N426 C423 1.347 . S
N426 C427 1.373 . S
C427 C424 1.350 . S
C427 N426 1.373 . S
C427 H448 0.931 . S
H428 C423 0.931 . S
H429 C424 0.930 . S
C430 O437 1.259 . S
C430 O438 1.258 . S
N431 Co422 2.057 1_455 S
N431 C432 1.316 . S
N431 C433 1.375 . S
C432 N431 1.316 . S
C432 N434 1.347 . S
C432 H443 0.931 . S
C433 N431 1.375 . S
C433 C435 1.350 . S
C433 H442 0.930 . S
N434 C432 1.347 . S
N434 C435 1.373 . S
C435 C433 1.350 . S
C435 N434 1.373 . S
C435 H449 0.931 . S
C436 O439 1.256 . S
C436 O440 1.255 . S
O437 Co420 2.021 . S
O437 C430 1.259 . S
O438 Co422 2.117 . S
O438 C430 1.258 . S
O439 Co422 2.020 . S
O439 C436 1.256 . S
O440 Co420 2.062 . S
O440 C436 1.255 . S
O441 C421 1.259 . S
O441 Co422 2.021 . S
H442 C433 0.930 . S
H443 C432 0.931 . S
O444 Co420 2.117 . S
O444 C421 1.258 . S
O445 Co420 2.020 . S
O445 C447 1.256 . S
O446 Co422 2.062 . S
O446 C447 1.255 . S
C447 O445 1.256 . S
C447 O446 1.255 . S
H448 C427 0.931 . S
H449 C435 0.931 . S
Co450 N455 2.057 . S
Co450 O467 2.021 . S
Co450 O470 2.062 . S
Co450 O474 2.117 . S
Co450 O475 2.020 . S
C451 O471 1.259 . S
C451 O474 1.258 . S
Co452 N461 2.057 . S
Co452 O468 2.117 . S
Co452 O469 2.020 . S
Co452 O471 2.021 . S
Co452 O476 2.062 . S
C453 N455 1.316 . S
C453 N456 1.347 . S
C453 H458 0.931 . S
C454 N455 1.375 . S
C454 C457 1.350 . S
C454 H459 0.930 . S
N455 Co450 2.057 . S
N455 C453 1.316 . S
N455 C454 1.375 . S
N456 C453 1.347 . S
N456 C457 1.373 . S
C457 C454 1.350 . S
C457 N456 1.373 . S
C457 H478 0.931 . S
H458 C453 0.931 . S
H459 C454 0.930 . S
C460 O467 1.259 . S
C460 O468 1.258 . S
N461 Co452 2.057 . S
N461 C462 1.316 . S
N461 C463 1.375 . S
C462 N461 1.316 . S
C462 N464 1.347 . S
C462 H473 0.931 . S
C463 N461 1.375 . S
C463 C465 1.350 . S
C463 H472 0.930 . S
N464 C462 1.347 . S
N464 C465 1.373 . S
C465 C463 1.350 . S
C465 N464 1.373 . S
C465 H479 0.931 . S
C466 O469 1.256 . S
C466 O470 1.255 . S
O467 Co450 2.021 . S
O467 C460 1.259 . S
O468 Co452 2.117 . S
O468 C460 1.258 . S
O469 Co452 2.020 . S
O469 C466 1.256 . S
O470 Co450 2.062 . S
O470 C466 1.255 . S
O471 C451 1.259 . S
O471 Co452 2.021 . S
H472 C463 0.930 . S
H473 C462 0.931 . S
O474 Co450 2.117 . S
O474 C451 1.258 . S
O475 Co450 2.020 . S
O475 C477 1.256 . S
O476 Co452 2.062 . S
O476 C477 1.255 . S
C477 O475 1.256 . S
C477 O476 1.255 . S
H478 C457 0.931 . S
H479 C465 0.931 . S
Co480 N485 2.057 . S
Co480 O497 2.021 . S
Co480 O500 2.062 . S
Co480 O504 2.117 . S
Co480 O505 2.020 . S
C481 O501 1.259 . S
C481 O504 1.258 . S
Co482 N491 2.057 . S
Co482 O498 2.117 . S
Co482 O499 2.020 . S
Co482 O501 2.021 . S
Co482 O506 2.062 . S
C483 N485 1.316 . S
C483 N486 1.347 1_545 S
C483 H488 0.931 . S
C484 N485 1.375 . S
C484 C487 1.350 1_545 S
C484 H489 0.930 . S
N485 Co480 2.057 . S
N485 C483 1.316 . S
N485 C484 1.375 . S
N486 C483 1.347 1_565 S
N486 C487 1.373 . S
C487 C484 1.350 1_565 S
C487 N486 1.373 . S
C487 H508 0.931 . S
H488 C483 0.931 . S
H489 C484 0.930 . S
C490 O497 1.259 . S
C490 O498 1.258 . S
N491 Co482 2.057 . S
N491 C492 1.316 . S
N491 C493 1.375 . S
C492 N491 1.316 . S
C492 N494 1.347 . S
C492 H503 0.931 . S
C493 N491 1.375 . S
C493 C495 1.350 . S
C493 H502 0.930 . S
N494 C492 1.347 . S
N494 C495 1.373 . S
C495 C493 1.350 . S
C495 N494 1.373 . S
C495 H509 0.931 . S
C496 O499 1.256 . S
C496 O500 1.255 . S
O497 Co480 2.021 . S
O497 C490 1.259 . S
O498 Co482 2.117 . S
O498 C490 1.258 . S
O499 Co482 2.020 . S
O499 C496 1.256 . S
O500 Co480 2.062 . S
O500 C496 1.255 . S
O501 C481 1.259 . S
O501 Co482 2.021 . S
H502 C493 0.930 . S
H503 C492 0.931 . S
O504 Co480 2.117 . S
O504 C481 1.258 . S
O505 Co480 2.020 . S
O505 C507 1.256 . S
O506 Co482 2.062 . S
O506 C507 1.255 . S
C507 O505 1.256 . S
C507 O506 1.255 . S
H508 C487 0.931 . S
H509 C495 0.931 . S
Co510 N515 2.057 . S
Co510 O527 2.021 . S
Co510 O530 2.062 . S
Co510 O534 2.117 . S
Co510 O535 2.020 . S
C511 O531 1.259 . S
C511 O534 1.258 . S
Co512 N521 2.057 . S
Co512 O528 2.117 . S
Co512 O529 2.020 . S
Co512 O531 2.021 . S
Co512 O536 2.062 . S
C513 N515 1.316 1_455 S
C513 N516 1.347 . S
C513 H518 0.931 . S
C514 N515 1.375 1_455 S
C514 C517 1.350 . S
C514 H519 0.930 1_455 S
N515 Co510 2.057 . S
N515 C513 1.316 1_655 S
N515 C514 1.375 1_655 S
N516 C513 1.347 . S
N516 C517 1.373 . S
C517 C514 1.350 . S
C517 N516 1.373 . S
C517 H538 0.931 . S
H518 C513 0.931 . S
H519 C514 0.930 1_655 S
C520 O527 1.259 . S
C520 O528 1.258 . S
N521 Co512 2.057 . S
N521 C522 1.316 . S
N521 C523 1.375 . S
C522 N521 1.316 . S
C522 N524 1.347 . S
C522 H533 0.931 . S
C523 N521 1.375 . S
C523 C525 1.350 . S
C523 H532 0.930 . S
N524 C522 1.347 . S
N524 C525 1.373 . S
C525 C523 1.350 . S
C525 N524 1.373 . S
C525 H539 0.931 . S
C526 O529 1.256 . S
C526 O530 1.255 . S
O527 Co510 2.021 . S
O527 C520 1.259 . S
O528 Co512 2.117 . S
O528 C520 1.258 . S
O529 Co512 2.020 . S
O529 C526 1.256 . S
O530 Co510 2.062 . S
O530 C526 1.255 . S
O531 C511 1.259 . S
O531 Co512 2.021 . S
H532 C523 0.930 . S
H533 C522 0.931 . S
O534 Co510 2.117 . S
O534 C511 1.258 . S
O535 Co510 2.020 . S
O535 C537 1.256 . S
O536 Co512 2.062 . S
O536 C537 1.255 . S
C537 O535 1.256 . S
C537 O536 1.255 . S
H538 C517 0.931 . S
H539 C525 0.931 . S
C540 C541 1.369 . S
C540 C542 1.419 . S
C540 H544 0.930 . S
C541 C540 1.369 . S
C541 C550 1.429 . S
C542 C540 1.419 . S
C542 C543 1.363 . S
C542 H545 0.929 . S
C543 C542 1.363 . S
C543 C549 1.428 . S
H544 C540 0.930 . S
H545 C542 0.929 . S
S546 N547 1.613 . S
S546 N548 1.610 . S
N547 S546 1.613 . S
N547 C550 1.350 . S
N548 S546 1.610 . S
N548 C549 1.351 . S
C549 C543 1.428 . S
C549 N548 1.351 . S
C549 C550 1.434 . S
C550 C541 1.429 . S
C550 N547 1.350 . S
C550 C549 1.434 . S
C551 C552 1.369 . S
C551 C553 1.419 . S
C551 H555 0.930 . S
C552 C551 1.369 . S
C552 C561 1.429 . S
C553 C551 1.419 . S
C553 C554 1.363 . S
C553 H556 0.929 . S
C554 C553 1.363 . S
C554 C560 1.428 . S
H555 C551 0.930 . S
H556 C553 0.929 . S
S557 N558 1.613 . S
S557 N559 1.610 . S
N558 S557 1.613 . S
N558 C561 1.350 . S
N559 S557 1.610 . S
N559 C560 1.351 . S
C560 C554 1.428 . S
C560 N559 1.351 . S
C560 C561 1.434 . S
C561 C552 1.429 . S
C561 N558 1.350 . S
C561 C560 1.434 . S
C562 C563 1.369 . S
C562 C564 1.419 . S
C562 H566 0.930 . S
C563 C562 1.369 . S
C563 C572 1.429 . S
C564 C562 1.419 . S
C564 C565 1.363 . S
C564 H567 0.929 . S
C565 C564 1.363 . S
C565 C571 1.428 . S
H566 C562 0.930 . S
H567 C564 0.929 . S
S568 N569 1.613 . S
S568 N570 1.610 . S
N569 S568 1.613 . S
N569 C572 1.350 . S
N570 S568 1.610 . S
N570 C571 1.351 . S
C571 C565 1.428 . S
C571 N570 1.351 . S
C571 C572 1.434 . S
C572 C563 1.429 . S
C572 N569 1.350 . S
C572 C571 1.434 . S
C573 C574 1.369 . S
C573 C575 1.419 . S
C573 H577 0.930 . S
C574 C573 1.369 . S
C574 C583 1.429 . S
C575 C573 1.419 . S
C575 C576 1.363 . S
C575 H578 0.929 . S
C576 C575 1.363 . S
C576 C582 1.428 . S
H577 C573 0.930 . S
H578 C575 0.929 . S
S579 N580 1.613 . S
S579 N581 1.610 . S
N580 S579 1.613 . S
N580 C583 1.350 . S
N581 S579 1.610 . S
N581 C582 1.351 . S
C582 C576 1.428 . S
C582 N581 1.351 . S
C582 C583 1.434 . S
C583 C574 1.429 . S
C583 N580 1.350 . S
C583 C582 1.434 . S
C584 C585 1.369 . S
C584 C586 1.419 . S
C584 H588 0.930 . S
C585 C584 1.369 . S
C585 C594 1.429 . S
C586 C584 1.419 . S
C586 C587 1.363 . S
C586 H589 0.929 . S
C587 C586 1.363 . S
C587 C593 1.428 . S
H588 C584 0.930 . S
H589 C586 0.929 . S
S590 N591 1.613 . S
S590 N592 1.610 . S
N591 S590 1.613 . S
N591 C594 1.350 . S
N592 S590 1.610 . S
N592 C593 1.351 . S
C593 C587 1.428 . S
C593 N592 1.351 . S
C593 C594 1.434 . S
C594 C585 1.429 . S
C594 N591 1.350 . S
C594 C593 1.434 . S
C595 C596 1.369 . S
C595 C597 1.419 . S
C595 H599 0.930 . S
C596 C595 1.369 . S
C596 C605 1.429 . S
C597 C595 1.419 . S
C597 C598 1.363 . S
C597 H600 0.929 . S
C598 C597 1.363 . S
C598 C604 1.428 . S
H599 C595 0.930 . S
H600 C597 0.929 . S
S601 N602 1.613 . S
S601 N603 1.610 . S
N602 S601 1.613 . S
N602 C605 1.350 . S
N603 S601 1.610 . S
N603 C604 1.351 . S
C604 C598 1.428 . S
C604 N603 1.351 . S
C604 C605 1.434 . S
C605 C596 1.429 . S
C605 N602 1.350 . S
C605 C604 1.434 . S
C606 C607 1.369 . S
C606 C608 1.419 . S
C606 H610 0.930 1_545 S
C607 C606 1.369 . S
C607 C616 1.429 . S
C608 C606 1.419 . S
C608 C609 1.363 . S
C608 H611 0.929 . S
C609 C608 1.363 . S
C609 C615 1.428 . S
H610 C606 0.930 1_565 S
H611 C608 0.929 . S
S612 N613 1.613 . S
S612 N614 1.610 . S
N613 S612 1.613 . S
N613 C616 1.350 . S
N614 S612 1.610 . S
N614 C615 1.351 . S
C615 C609 1.428 . S
C615 N614 1.351 . S
C615 C616 1.434 . S
C616 C607 1.429 . S
C616 N613 1.350 . S
C616 C615 1.434 . S
C617 C618 1.369 1_655 S
C617 C619 1.419 . S
C617 H621 0.930 . S
C618 C617 1.369 1_455 S
C618 C627 1.429 . S
C619 C617 1.419 . S
C619 C620 1.363 . S
C619 H622 0.929 . S
C620 C619 1.363 . S
C620 C626 1.428 . S
H621 C617 0.930 . S
H622 C619 0.929 . S
S623 N624 1.613 . S
S623 N625 1.610 1_455 S
N624 S623 1.613 . S
N624 C627 1.350 . S
N625 S623 1.610 1_655 S
N625 C626 1.351 . S
C626 C620 1.428 . S
C626 N625 1.351 . S
C626 C627 1.434 1_655 S
C627 C618 1.429 . S
C627 N624 1.350 . S
C627 C626 1.434 1_455 S
C628 C629 1.369 . S
C628 C630 1.419 . S
C628 H632 0.930 . S
C629 C628 1.369 . S
C629 C638 1.429 . S
C630 C628 1.419 . S
C630 C631 1.363 . S
C630 H633 0.929 . S
C631 C630 1.363 . S
C631 C637 1.428 . S
H632 C628 0.930 . S
H633 C630 0.929 . S
S634 N635 1.613 . S
S634 N636 1.610 . S
N635 S634 1.613 . S
N635 C638 1.350 . S
N636 S634 1.610 . S
N636 C637 1.351 . S
C637 C631 1.428 . S
C637 N636 1.351 . S
C637 C638 1.434 . S
C638 C629 1.429 . S
C638 N635 1.350 . S
C638 C637 1.434 . S
C639 C640 1.369 . S
C639 C641 1.419 . S
C639 H643 0.930 . S
C640 C639 1.369 . S
C640 C649 1.429 . S
C641 C639 1.419 . S
C641 C642 1.363 . S
C641 H644 0.929 . S
C642 C641 1.363 . S
C642 C648 1.428 . S
H643 C639 0.930 . S
H644 C641 0.929 . S
S645 N646 1.613 . S
S645 N647 1.610 1_545 S
N646 S645 1.613 . S
N646 C649 1.350 1_545 S
N647 S645 1.610 1_565 S
N647 C648 1.351 . S
C648 C642 1.428 . S
C648 N647 1.351 . S
C648 C649 1.434 . S
C649 C640 1.429 . S
C649 N646 1.350 1_565 S
C649 C648 1.434 . S
C650 C651 1.369 . S
C650 C652 1.419 . S
C650 H654 0.930 . S
C651 C650 1.369 . S
C651 C660 1.429 . S
C652 C650 1.419 . S
C652 C653 1.363 . S
C652 H655 0.929 . S
C653 C652 1.363 . S
C653 C659 1.428 . S
H654 C650 0.930 . S
H655 C652 0.929 . S
S656 N657 1.613 . S
S656 N658 1.610 . S
N657 S656 1.613 . S
N657 C660 1.350 . S
N658 S656 1.610 . S
N658 C659 1.351 . S
C659 C653 1.428 . S
C659 N658 1.351 . S
C659 C660 1.434 . S
C660 C651 1.429 . S
C660 N657 1.350 . S
C660 C659 1.434 . S
C661 C662 1.369 . S
C661 C663 1.419 . S
C661 H665 0.930 . S
C662 C661 1.369 . S
C662 C671 1.429 . S
C663 C661 1.419 . S
C663 C664 1.363 . S
C663 H666 0.929 . S
C664 C663 1.363 . S
C664 C670 1.428 . S
H665 C661 0.930 . S
H666 C663 0.929 . S
S667 N668 1.613 . S
S667 N669 1.610 . S
N668 S667 1.613 . S
N668 C671 1.350 . S
N669 S667 1.610 . S
N669 C670 1.351 . S
C670 C664 1.428 . S
C670 N669 1.351 . S
C670 C671 1.434 . S
C671 C662 1.429 . S
C671 N668 1.350 . S
C671 C670 1.434 . S
C672 C673 1.369 . S
C672 C674 1.419 . S
C672 H676 0.930 . S
C673 C672 1.369 . S
C673 C682 1.429 . S
C674 C672 1.419 . S
C674 C675 1.363 . S
C674 H677 0.929 . S
C675 C674 1.363 . S
C675 C681 1.428 . S
H676 C672 0.930 . S
H677 C674 0.929 . S
S678 N679 1.613 . S
S678 N680 1.610 . S
N679 S678 1.613 . S
N679 C682 1.350 . S
N680 S678 1.610 . S
N680 C681 1.351 . S
C681 C675 1.428 . S
C681 N680 1.351 . S
C681 C682 1.434 . S
C682 C673 1.429 . S
C682 N679 1.350 . S
C682 C681 1.434 . S
C683 C684 1.369 . S
C683 C685 1.419 . S
C683 H687 0.930 . S
C684 C683 1.369 . S
C684 C693 1.429 . S
C685 C683 1.419 . S
C685 C686 1.363 . S
C685 H688 0.929 . S
C686 C685 1.363 . S
C686 C692 1.428 . S
H687 C683 0.930 . S
H688 C685 0.929 . S
S689 N690 1.613 . S
S689 N691 1.610 . S
N690 S689 1.613 . S
N690 C693 1.350 . S
N691 S689 1.610 . S
N691 C692 1.351 . S
C692 C686 1.428 . S
C692 N691 1.351 . S
C692 C693 1.434 . S
C693 C684 1.429 . S
C693 N690 1.350 . S
C693 C692 1.434 . S
C694 C695 1.369 . S
C694 C696 1.419 . S
C694 H698 0.930 . S
C695 C694 1.369 . S
C695 C704 1.429 . S
C696 C694 1.419 . S
C696 C697 1.363 . S
C696 H699 0.929 . S
C697 C696 1.363 . S
C697 C703 1.428 . S
H698 C694 0.930 . S
H699 C696 0.929 . S
S700 N701 1.613 . S
S700 N702 1.610 . S
N701 S700 1.613 . S
N701 C704 1.350 . S
N702 S700 1.610 . S
N702 C703 1.351 . S
C703 C697 1.428 . S
C703 N702 1.351 . S
C703 C704 1.434 . S
C704 C695 1.429 . S
C704 N701 1.350 . S
C704 C703 1.434 . S
C705 C706 1.369 . S
C705 C707 1.419 . S
C705 H709 0.930 . S
C706 C705 1.369 . S
C706 C715 1.429 . S
C707 C705 1.419 . S
C707 C708 1.363 . S
C707 H710 0.929 . S
C708 C707 1.363 . S
C708 C714 1.428 . S
H709 C705 0.930 . S
H710 C707 0.929 . S
S711 N712 1.613 . S
S711 N713 1.610 . S
N712 S711 1.613 . S
N712 C715 1.350 . S
N713 S711 1.610 . S
N713 C714 1.351 . S
C714 C708 1.428 . S
C714 N713 1.351 . S
C714 C715 1.434 . S
C715 C706 1.429 . S
C715 N712 1.350 . S
C715 C714 1.434 . S
C716 C717 1.369 . S
C716 C718 1.419 . S
C716 H720 0.930 . S
C717 C716 1.369 . S
C717 C726 1.429 . S
C718 C716 1.419 . S
C718 C719 1.363 . S
C718 H721 0.929 . S
C719 C718 1.363 . S
C719 C725 1.428 . S
H720 C716 0.930 . S
H721 C718 0.929 . S
S722 N723 1.613 . S
S722 N724 1.610 . S
N723 S722 1.613 . S
N723 C726 1.350 . S
N724 S722 1.610 . S
N724 C725 1.351 . S
C725 C719 1.428 . S
C725 N724 1.351 . S
C725 C726 1.434 . S
C726 C717 1.429 . S
C726 N723 1.350 . S
C726 C725 1.434 . S
C727 C728 1.369 1_565 S
C727 C729 1.419 . S
C727 H731 0.930 . S
C728 C727 1.369 1_545 S
C728 C737 1.421 . S
C729 C727 1.419 . S
C729 C730 1.363 . S
C729 H732 0.929 . S
C730 C729 1.363 . S
C730 C736 1.428 . S
H731 C727 0.930 . S
H732 C729 0.929 . S
S733 N734 1.613 . S
S733 N735 1.610 1_545 S
N734 S733 1.613 . S
N734 C737 1.362 . S
N735 S733 1.610 1_565 S
N735 C736 1.351 . S
C736 C730 1.428 . S
C736 N735 1.351 . S
C736 C737 1.429 1_565 S
C737 C728 1.421 . S
C737 N734 1.362 . S
C737 C736 1.429 1_545 S
C738 C739 1.369 1_565 S
C738 C740 1.419 1_554 S
C738 H742 0.930 . S
C739 C738 1.369 1_545 S
C739 C748 1.429 . S
C740 C738 1.419 1_556 S
C740 C741 1.363 1_565 S
C740 H743 0.929 . S
C741 C740 1.363 1_545 S
C741 C747 1.428 . S
H742 C738 0.930 . S
H743 C740 0.929 . S
S744 N745 1.613 1_556 S
S744 N746 1.610 . S
N745 S744 1.613 1_554 S
N745 C748 1.350 . S
N746 S744 1.610 . S
N746 C747 1.351 . S
C747 C741 1.428 . S
C747 N746 1.351 . S
C747 C748 1.434 1_556 S
C748 C739 1.429 . S
C748 N745 1.350 . S
C748 C747 1.434 1_554 S
C749 C750 1.369 . S
C749 C751 1.419 1_556 S
C749 H753 0.930 . S
C750 C749 1.369 . S
C750 C759 1.429 . S
C751 C749 1.419 1_554 S
C751 C752 1.363 . S
C751 H754 0.929 1_455 S
C752 C751 1.363 . S
C752 C758 1.428 . S
H753 C749 0.930 . S
H754 C751 0.929 1_655 S
S755 N756 1.573 1_554 S
S755 N757 1.650 . S
N756 S755 1.573 1_556 S
N756 C759 1.350 . S
N757 S755 1.650 . S
N757 C758 1.351 . S
C758 C752 1.428 . S
C758 N757 1.351 . S
C758 C759 1.434 1_554 S
C759 C750 1.429 . S
C759 N756 1.350 . S
C759 C758 1.434 1_556 S
C760 C761 1.369 . S
C760 C762 1.419 1_556 S
C760 H764 0.930 . S
C761 C760 1.369 . S
C761 C770 1.429 . S
C762 C760 1.419 1_554 S
C762 C763 1.363 . S
C762 H765 0.929 . S
C763 C762 1.363 . S
C763 C769 1.428 . S
H764 C760 0.930 . S
H765 C762 0.929 . S
S766 N767 1.613 1_554 S
S766 N768 1.610 . S
N767 S766 1.613 1_556 S
N767 C770 1.350 . S
N768 S766 1.610 . S
N768 C769 1.351 . S
C769 C763 1.428 . S
C769 N768 1.351 . S
C769 C770 1.434 1_554 S
C770 C761 1.429 . S
C770 N767 1.350 . S
C770 C769 1.434 1_556 S
C771 C772 1.369 . S
C771 C773 1.419 . S
C771 H775 0.930 . S
C772 C771 1.369 . S
C772 C781 1.429 . S
C773 C771 1.419 . S
C773 C774 1.363 . S
C773 H776 0.929 . S
C774 C773 1.363 . S
C774 C780 1.428 . S
H775 C771 0.930 . S
H776 C773 0.929 . S
S777 N778 1.613 . S
S777 N779 1.610 . S
N778 S777 1.613 . S
N778 C781 1.350 . S
N779 S777 1.610 . S
N779 C780 1.351 . S
C780 C774 1.428 . S
C780 N779 1.351 . S
C780 C781 1.434 . S
C781 C772 1.429 . S
C781 N778 1.350 . S
C781 C780 1.434 . S
C782 C783 1.369 . S
C782 C784 1.419 . S
C782 H786 0.930 . S
C783 C782 1.369 . S
C783 C792 1.429 . S
C784 C782 1.419 . S
C784 C785 1.363 . S
C784 H787 0.929 . S
C785 C784 1.363 . S
C785 C791 1.428 . S
H786 C782 0.930 . S
H787 C784 0.929 . S
S788 N789 1.613 . S
S788 N790 1.610 . S
N789 S788 1.613 . S
N789 C792 1.350 . S
N790 S788 1.610 . S
N790 C791 1.351 . S
C791 C785 1.428 . S
C791 N790 1.351 . S
C791 C792 1.434 . S
C792 C783 1.429 . S
C792 N789 1.350 . S
C792 C791 1.434 . S
C793 C794 1.369 . S
C793 C795 1.419 . S
C793 H797 0.930 . S
C794 C793 1.369 . S
C794 C803 1.429 . S
C795 C793 1.419 . S
C795 C796 1.363 . S
C795 H798 0.929 . S
C796 C795 1.363 . S
C796 C802 1.428 . S
H797 C793 0.930 . S
H798 C795 0.929 . S
S799 N800 1.613 . S
S799 N801 1.610 . S
N800 S799 1.613 . S
N800 C803 1.350 . S
N801 S799 1.610 . S
N801 C802 1.351 . S
C802 C796 1.428 . S
C802 N801 1.351 . S
C802 C803 1.434 . S
C803 C794 1.429 . S
C803 N800 1.350 . S
C803 C802 1.434 . S
C804 C805 1.369 . S
C804 C806 1.419 . S
C804 H808 0.930 . S
C805 C804 1.369 . S
C805 C814 1.429 . S
C806 C804 1.419 . S
C806 C807 1.363 . S
C806 H809 0.929 . S
C807 C806 1.363 . S
C807 C813 1.428 . S
H808 C804 0.930 . S
H809 C806 0.929 . S
S810 N811 1.613 . S
S810 N812 1.610 . S
N811 S810 1.613 . S
N811 C814 1.350 . S
N812 S810 1.610 . S
N812 C813 1.351 . S
C813 C807 1.428 . S
C813 N812 1.351 . S
C813 C814 1.434 . S
C814 C805 1.429 . S
C814 N811 1.350 . S
C814 C813 1.434 . S
C815 C816 1.369 . S
C815 C817 1.419 . S
C815 H819 0.930 . S
C816 C815 1.369 . S
C816 C825 1.429 . S
C817 C815 1.419 . S
C817 C818 1.363 . S
C817 H820 0.929 . S
C818 C817 1.363 . S
C818 C824 1.428 . S
H819 C815 0.930 . S
H820 C817 0.929 . S
S821 N822 1.613 . S
S821 N823 1.610 . S
N822 S821 1.613 . S
N822 C825 1.350 . S
N823 S821 1.610 . S
N823 C824 1.351 . S
C824 C818 1.428 . S
C824 N823 1.351 . S
C824 C825 1.434 . S
C825 C816 1.429 . S
C825 N822 1.350 . S
C825 C824 1.434 . S
C826 C827 1.369 . S
C826 C828 1.419 . S
C826 H830 0.930 . S
C827 C826 1.369 . S
C827 C836 1.429 . S
C828 C826 1.419 . S
C828 C829 1.363 . S
C828 H831 0.929 . S
C829 C828 1.363 . S
C829 C835 1.428 . S
H830 C826 0.930 . S
H831 C828 0.929 . S
S832 N833 1.613 . S
S832 N834 1.610 . S
N833 S832 1.613 . S
N833 C836 1.350 . S
N834 S832 1.610 . S
N834 C835 1.351 . S
C835 C829 1.428 . S
C835 N834 1.351 . S
C835 C836 1.434 . S
C836 C827 1.429 . S
C836 N833 1.350 . S
C836 C835 1.434 . S
C837 C838 1.369 . S
C837 C839 1.419 . S
C837 H841 0.930 . S
C838 C837 1.369 . S
C838 C847 1.429 . S
C839 C837 1.419 . S
C839 C840 1.363 . S
C839 H842 0.929 . S
C840 C839 1.363 . S
C840 C846 1.428 . S
H841 C837 0.930 . S
H842 C839 0.929 . S
S843 N844 1.613 1_545 S
S843 N845 1.610 . S
N844 S843 1.613 1_565 S
N844 C847 1.350 . S
N845 S843 1.610 . S
N845 C846 1.351 1_545 S
C846 C840 1.428 . S
C846 N845 1.351 1_565 S
C846 C847 1.434 . S
C847 C838 1.429 . S
C847 N844 1.350 . S
C847 C846 1.434 . S
C848 C849 1.369 . S
C848 C850 1.419 . S
C848 H852 0.930 . S
C849 C848 1.369 . S
C849 C858 1.429 . S
C850 C848 1.419 . S
C850 C851 1.363 . S
C850 H853 0.929 . S
C851 C850 1.363 . S
C851 C857 1.428 . S
H852 C848 0.930 . S
H853 C850 0.929 . S
S854 N855 1.613 . S
S854 N856 1.610 . S
N855 S854 1.613 . S
N855 C858 1.350 . S
N856 S854 1.610 . S
N856 C857 1.351 . S
C857 C851 1.428 . S
C857 N856 1.351 . S
C857 C858 1.434 . S
C858 C849 1.429 . S
C858 N855 1.350 . S
C858 C857 1.434 . S
C859 C860 1.369 . S
C859 C861 1.419 . S
C859 H863 0.930 . S
C860 C859 1.369 . S
C860 C869 1.429 . S
C861 C859 1.419 . S
C861 C862 1.363 . S
C861 H864 0.929 . S
C862 C861 1.363 . S
C862 C868 1.428 . S
H863 C859 0.930 . S
H864 C861 0.929 . S
S865 N866 1.613 . S
S865 N867 1.610 . S
N866 S865 1.613 . S
N866 C869 1.350 . S
N867 S865 1.610 . S
N867 C868 1.351 . S
C868 C862 1.428 . S
C868 N867 1.351 . S
C868 C869 1.434 . S
C869 C860 1.429 . S
C869 N866 1.350 . S
C869 C868 1.434 . S
C870 C871 1.369 . S
C870 C872 1.419 . S
C870 H874 0.930 . S
C871 C870 1.369 . S
C871 C880 1.429 . S
C872 C870 1.419 . S
C872 C873 1.363 . S
C872 H875 0.929 . S
C873 C872 1.363 . S
C873 C879 1.428 . S
H874 C870 0.930 . S
H875 C872 0.929 . S
S876 N877 1.613 . S
S876 N878 1.610 . S
N877 S876 1.613 . S
N877 C880 1.350 . S
N878 S876 1.610 . S
N878 C879 1.351 . S
C879 C873 1.428 . S
C879 N878 1.351 . S
C879 C880 1.434 . S
C880 C871 1.429 . S
C880 N877 1.350 . S
C880 C879 1.434 . S
C881 C882 1.369 . S
C881 C883 1.419 . S
C881 H885 0.930 . S
C882 C881 1.369 . S
C882 C891 1.429 . S
C883 C881 1.419 . S
C883 C884 1.363 . S
C883 H886 0.929 . S
C884 C883 1.363 . S
C884 C890 1.428 . S
H885 C881 0.930 . S
H886 C883 0.929 . S
S887 N888 1.613 . S
S887 N889 1.610 . S
N888 S887 1.613 . S
N888 C891 1.350 . S
N889 S887 1.610 . S
N889 C890 1.351 . S
C890 C884 1.428 . S
C890 N889 1.351 . S
C890 C891 1.434 . S
C891 C882 1.429 . S
C891 N888 1.350 . S
C891 C890 1.434 . S
C892 C893 1.369 . S
C892 C894 1.419 . S
C892 H896 0.930 . S
C893 C892 1.369 . S
C893 C902 1.429 . S
C894 C892 1.419 . S
C894 C895 1.363 . S
C894 H897 0.929 . S
C895 C894 1.363 . S
C895 C901 1.428 . S
H896 C892 0.930 . S
H897 C894 0.929 . S
S898 N899 1.613 . S
S898 N900 1.610 . S
N899 S898 1.613 . S
N899 C902 1.350 . S
N900 S898 1.610 . S
N900 C901 1.351 . S
C901 C895 1.428 . S
C901 N900 1.351 . S
C901 C902 1.434 . S
C902 C893 1.429 . S
C902 N899 1.350 . S
C902 C901 1.434 . S
C903 C904 1.369 . S
C903 C905 1.419 1_655 S
C903 H907 0.930 . S
C904 C903 1.369 . S
C904 C913 1.429 . S
C905 C903 1.419 1_455 S
C905 C906 1.363 . S
C905 H908 0.929 . S
C906 C905 1.363 . S
C906 C912 1.428 . S
H907 C903 0.930 . S
H908 C905 0.929 . S
S909 N910 1.613 . S
S909 N911 1.610 1_655 S
N910 S909 1.613 . S
N910 C913 1.350 . S
N911 S909 1.610 1_455 S
N911 C912 1.351 . S
C912 C906 1.428 . S
C912 N911 1.351 . S
C912 C913 1.434 1_455 S
C913 C904 1.429 . S
C913 N910 1.350 . S
C913 C912 1.434 1_655 S
C914 C915 1.369 . S
C914 C916 1.419 . S
C914 H918 0.930 . S
C915 C914 1.369 . S
C915 C924 1.429 . S
C916 C914 1.419 . S
C916 C917 1.363 . S
C916 H919 0.929 . S
C917 C916 1.363 . S
C917 C923 1.428 . S
H918 C914 0.930 . S
H919 C916 0.929 . S
S920 N921 1.613 . S
S920 N922 1.610 . S
N921 S920 1.613 . S
N921 C924 1.350 . S
N922 S920 1.610 . S
N922 C923 1.351 . S
C923 C917 1.428 . S
C923 N922 1.351 . S
C923 C924 1.434 . S
C924 C915 1.429 . S
C924 N921 1.350 . S
C924 C923 1.434 . S
C925 C926 1.369 1_545 S
C925 C927 1.419 . S
C925 H929 0.930 . S
C926 C925 1.369 1_565 S
C926 C935 1.429 . S
C927 C925 1.419 . S
C927 C928 1.363 . S
C927 H930 0.929 . S
C928 C927 1.363 . S
C928 C934 1.428 . S
H929 C925 0.930 . S
H930 C927 0.929 . S
S931 N932 1.613 . S
S931 N933 1.610 1_565 S
N932 S931 1.613 . S
N932 C935 1.350 . S
N933 S931 1.610 1_545 S
N933 C934 1.351 . S
C934 C928 1.428 . S
C934 N933 1.351 . S
C934 C935 1.434 1_545 S
C935 C926 1.429 . S
C935 N932 1.350 . S
C935 C934 1.434 1_565 S
C936 C937 1.369 . S
C936 C938 1.419 . S
C936 H940 0.930 . S
C937 C936 1.369 . S
C937 C946 1.429 . S
C938 C936 1.419 . S
C938 C939 1.363 . S
C938 H941 0.929 . S
C939 C938 1.363 . S
C939 C945 1.428 . S
H940 C936 0.930 . S
H941 C938 0.929 . S
S942 N943 1.613 . S
S942 N944 1.610 . S
N943 S942 1.613 . S
N943 C946 1.350 . S
N944 S942 1.610 . S
N944 C945 1.351 . S
C945 C939 1.428 . S
C945 N944 1.351 . S
C945 C946 1.434 . S
C946 C937 1.429 . S
C946 N943 1.350 . S
C946 C945 1.434 . S
C947 C948 1.369 . S
C947 C949 1.419 . S
C947 H951 0.930 . S
C948 C947 1.369 . S
C948 C957 1.429 . S
C949 C947 1.419 . S
C949 C950 1.363 . S
C949 H952 0.929 . S
C950 C949 1.363 . S
C950 C956 1.428 . S
H951 C947 0.930 . S
H952 C949 0.929 . S
S953 N954 1.613 . S
S953 N955 1.610 . S
N954 S953 1.613 . S
N954 C957 1.350 . S
N955 S953 1.610 . S
N955 C956 1.351 . S
C956 C950 1.428 . S
C956 N955 1.351 . S
C956 C957 1.434 . S
C957 C948 1.429 . S
C957 N954 1.350 . S
C957 C956 1.434 . S
C958 C959 1.369 . S
C958 C960 1.419 . S
C958 H962 0.930 . S
C959 C958 1.369 . S
C959 C968 1.429 . S
C960 C958 1.419 . S
C960 C961 1.363 . S
C960 H963 0.929 . S
C961 C960 1.363 . S
C961 C967 1.428 . S
H962 C958 0.930 . S
H963 C960 0.929 . S
S964 N965 1.613 . S
S964 N966 1.610 . S
N965 S964 1.613 . S
N965 C968 1.350 . S
N966 S964 1.610 . S
N966 C967 1.351 . S
C967 C961 1.428 . S
C967 N966 1.351 . S
C967 C968 1.434 . S
C968 C959 1.429 . S
C968 N965 1.350 . S
C968 C967 1.434 . S
C969 C970 1.369 . S
C969 C971 1.419 . S
C969 H973 0.930 . S
C970 C969 1.369 . S
C970 C979 1.429 . S
C971 C969 1.419 . S
C971 C972 1.363 . S
C971 H974 0.929 . S
C972 C971 1.363 . S
C972 C978 1.428 . S
H973 C969 0.930 . S
H974 C971 0.929 . S
S975 N976 1.613 . S
S975 N977 1.610 . S
N976 S975 1.613 . S
N976 C979 1.350 . S
N977 S975 1.610 . S
N977 C978 1.351 . S
C978 C972 1.428 . S
C978 N977 1.351 . S
C978 C979 1.434 . S
C979 C970 1.429 . S
C979 N976 1.350 . S
C979 C978 1.434 . S
C980 C981 1.369 . S
C980 C982 1.419 . S
C980 H984 0.930 . S
C981 C980 1.369 . S
C981 C990 1.429 . S
C982 C980 1.419 . S
C982 C983 1.363 . S
C982 H985 0.929 . S
C983 C982 1.363 . S
C983 C989 1.428 . S
H984 C980 0.930 . S
H985 C982 0.929 . S
S986 N987 1.613 . S
S986 N988 1.610 . S
N987 S986 1.613 . S
N987 C990 1.350 . S
N988 S986 1.610 . S
N988 C989 1.351 . S
C989 C983 1.428 . S
C989 N988 1.351 . S
C989 C990 1.434 . S
C990 C981 1.429 . S
C990 N987 1.350 . S
C990 C989 1.434 . S
C991 C992 1.369 . S
C991 C993 1.419 . S
C991 H995 0.930 . S
C992 C991 1.369 . S
C992 C1001 1.429 . S
C993 C991 1.419 . S
C993 C994 1.363 . S
C993 H996 0.929 . S
C994 C993 1.363 . S
C994 C1000 1.428 . S
H995 C991 0.930 . S
H996 C993 0.929 . S
S997 N998 1.613 . S
S997 N999 1.610 . S
N998 S997 1.613 . S
N998 C1001 1.350 . S
N999 S997 1.610 . S
N999 C1000 1.351 . S
C1000 C994 1.428 . S
C1000 N999 1.351 . S
C1000 C1001 1.434 . S
C1001 C992 1.429 . S
C1001 N998 1.350 . S
C1001 C1000 1.434 . S
C1002 C1003 1.369 . S
C1002 C1004 1.419 . S
C1002 H1006 0.930 . S
C1003 C1002 1.369 . S
C1003 C1012 1.429 . S
C1004 C1002 1.419 . S
C1004 C1005 1.363 . S
C1004 H1007 0.929 . S
C1005 C1004 1.363 . S
C1005 C1011 1.428 . S
H1006 C1002 0.930 . S
H1007 C1004 0.929 . S
S1008 N1009 1.613 . S
S1008 N1010 1.610 . S
N1009 S1008 1.613 . S
N1009 C1012 1.350 . S
N1010 S1008 1.610 . S
N1010 C1011 1.351 . S
C1011 C1005 1.428 . S
C1011 N1010 1.351 . S
C1011 C1012 1.434 . S
C1012 C1003 1.429 . S
C1012 N1009 1.350 . S
C1012 C1011 1.434 . S
C1013 C1014 1.369 . S
C1013 C1015 1.419 . S
C1013 H1017 0.930 . S
C1014 C1013 1.369 . S
C1014 C1023 1.429 . S
C1015 C1013 1.419 . S
C1015 C1016 1.363 . S
C1015 H1018 0.929 . S
C1016 C1015 1.363 . S
C1016 C1022 1.428 . S
H1017 C1013 0.930 . S
H1018 C1015 0.929 . S
S1019 N1020 1.613 . S
S1019 N1021 1.610 . S
N1020 S1019 1.613 . S
N1020 C1023 1.350 . S
N1021 S1019 1.610 . S
N1021 C1022 1.351 . S
C1022 C1016 1.428 . S
C1022 N1021 1.351 . S
C1022 C1023 1.434 . S
C1023 C1014 1.429 . S
C1023 N1020 1.350 . S
C1023 C1022 1.434 . S
C1024 C1025 1.369 . S
C1024 C1026 1.419 . S
C1024 H1028 0.930 . S
C1025 C1024 1.369 . S
C1025 C1034 1.429 . S
C1026 C1024 1.419 . S
C1026 C1027 1.363 . S
C1026 H1029 0.929 . S
C1027 C1026 1.363 . S
C1027 C1033 1.428 . S
H1028 C1024 0.930 . S
H1029 C1026 0.929 . S
S1030 N1031 1.613 1_545 S
S1030 N1032 1.610 . S
N1031 S1030 1.613 1_565 S
N1031 C1034 1.350 . S
N1032 S1030 1.610 . S
N1032 C1033 1.351 1_545 S
C1033 C1027 1.428 . S
C1033 N1032 1.351 1_565 S
C1033 C1034 1.434 . S
C1034 C1025 1.429 . S
C1034 N1031 1.350 . S
C1034 C1033 1.434 . S
C1035 C1036 1.369 . S
C1035 C1037 1.419 1_655 S
C1035 H1039 0.930 . S
C1036 C1035 1.369 . S
C1036 C1045 1.429 . S
C1037 C1035 1.419 1_455 S
C1037 C1038 1.363 . S
C1037 H1040 0.929 . S
C1038 C1037 1.363 . S
C1038 C1044 1.428 . S
H1039 C1035 0.930 . S
H1040 C1037 0.929 . S
S1041 N1042 1.613 . S
S1041 N1043 1.610 1_655 S
N1042 S1041 1.613 . S
N1042 C1045 1.350 . S
N1043 S1041 1.610 1_455 S
N1043 C1044 1.351 . S
C1044 C1038 1.428 . S
C1044 N1043 1.351 . S
C1044 C1045 1.434 1_455 S
C1045 C1036 1.429 . S
C1045 N1042 1.350 . S
C1045 C1044 1.434 1_655 S
C1046 C1047 1.369 . S
C1046 C1048 1.419 . S
C1046 H1050 0.930 . S
C1047 C1046 1.369 . S
C1047 C1056 1.429 . S
C1048 C1046 1.419 . S
C1048 C1049 1.363 . S
C1048 H1051 0.929 . S
C1049 C1048 1.363 . S
C1049 C1055 1.428 . S
H1050 C1046 0.930 . S
H1051 C1048 0.929 . S
S1052 N1053 1.613 . S
S1052 N1054 1.610 . S
N1053 S1052 1.613 . S
N1053 C1056 1.350 . S
N1054 S1052 1.610 . S
N1054 C1055 1.351 . S
C1055 C1049 1.428 . S
C1055 N1054 1.351 . S
C1055 C1056 1.434 . S
C1056 C1047 1.429 . S
C1056 N1053 1.350 . S
C1056 C1055 1.434 . S
C1057 C1058 1.369 1_545 S
C1057 C1059 1.419 . S
C1057 H1061 0.930 . S
C1058 C1057 1.369 1_565 S
C1058 C1067 1.429 1_565 S
C1059 C1057 1.419 . S
C1059 C1060 1.363 . S
C1059 H1062 0.929 . S
C1060 C1059 1.363 . S
C1060 C1066 1.428 . S
H1061 C1057 0.930 . S
H1062 C1059 0.929 . S
S1063 N1064 1.613 1_545 S
S1063 N1065 1.610 . S
N1064 S1063 1.613 1_565 S
N1064 C1067 1.350 1_565 S
N1065 S1063 1.610 . S
N1065 C1066 1.351 . S
C1066 C1060 1.428 . S
C1066 N1065 1.351 . S
C1066 C1067 1.434 . S
C1067 C1058 1.429 1_545 S
C1067 N1064 1.350 1_545 S
C1067 C1066 1.434 . S
C1068 C1069 1.369 . S
C1068 C1070 1.419 1_565 S
C1068 H1072 0.930 . S
C1069 C1068 1.369 . S
C1069 C1078 1.429 . S
C1070 C1068 1.419 1_545 S
C1070 C1071 1.363 . S
C1070 H1073 0.929 . S
C1071 C1070 1.363 . S
C1071 C1077 1.428 . S
H1072 C1068 0.930 . S
H1073 C1070 0.929 . S
S1074 N1075 1.613 . S
S1074 N1076 1.610 1_565 S
N1075 S1074 1.613 . S
N1075 C1078 1.350 . S
N1076 S1074 1.610 1_545 S
N1076 C1077 1.351 . S
C1077 C1071 1.428 . S
C1077 N1076 1.351 . S
C1077 C1078 1.434 1_545 S
C1078 C1069 1.429 . S
C1078 N1075 1.350 . S
C1078 C1077 1.434 1_565 S
C1079 C1080 1.369 . S
C1079 C1081 1.419 . S
C1079 H1083 0.930 . S
C1080 C1079 1.369 . S
C1080 C1089 1.429 . S
C1081 C1079 1.419 . S
C1081 C1082 1.363 1_455 S
C1081 H1084 0.929 1_455 S
C1082 C1081 1.363 1_655 S
C1082 C1088 1.428 1_655 S
H1083 C1079 0.930 . S
H1084 C1081 0.929 1_655 S
S1085 N1086 1.613 . S
S1085 N1087 1.610 . S
N1086 S1085 1.613 . S
N1086 C1089 1.350 . S
N1087 S1085 1.610 . S
N1087 C1088 1.351 . S
C1088 C1082 1.428 1_455 S
C1088 N1087 1.351 . S
C1088 C1089 1.434 . S
C1089 C1080 1.429 . S
C1089 N1086 1.350 . S
C1089 C1088 1.434 . S
C1090 C1091 1.369 . S
C1090 C1092 1.419 . S
C1090 H1094 0.930 . S
C1091 C1090 1.369 . S
C1091 C1100 1.429 . S
C1092 C1090 1.419 . S
C1092 C1093 1.363 . S
C1092 H1095 0.929 . S
C1093 C1092 1.363 . S
C1093 C1099 1.428 . S
H1094 C1090 0.930 . S
H1095 C1092 0.929 . S
S1096 N1097 1.613 . S
S1096 N1098 1.610 . S
N1097 S1096 1.613 . S
N1097 C1100 1.350 . S
N1098 S1096 1.610 . S
N1098 C1099 1.351 . S
C1099 C1093 1.428 . S
C1099 N1098 1.351 . S
C1099 C1100 1.434 . S
C1100 C1091 1.429 . S
C1100 N1097 1.350 . S
C1100 C1099 1.434 . S
C1101 C1102 1.369 . S
C1101 C1103 1.419 . S
C1101 H1105 0.930 . S
C1102 C1101 1.369 . S
C1102 C1111 1.429 . S
C1103 C1101 1.419 . S
C1103 C1104 1.363 . S
C1103 H1106 0.929 . S
C1104 C1103 1.363 . S
C1104 C1110 1.428 . S
H1105 C1101 0.930 . S
H1106 C1103 0.929 . S
S1107 N1108 1.613 . S
S1107 N1109 1.610 . S
N1108 S1107 1.613 . S
N1108 C1111 1.350 . S
N1109 S1107 1.610 . S
N1109 C1110 1.351 . S
C1110 C1104 1.428 . S
C1110 N1109 1.351 . S
C1110 C1111 1.434 . S
C1111 C1102 1.429 . S
C1111 N1108 1.350 . S
C1111 C1110 1.434 . S
C1112 C1113 1.369 . S
C1112 C1114 1.419 . S
C1112 H1116 0.930 . S
C1113 C1112 1.369 . S
C1113 C1122 1.429 . S
C1114 C1112 1.419 . S
C1114 C1115 1.363 . S
C1114 H1117 0.929 . S
C1115 C1114 1.363 . S
C1115 C1121 1.428 . S
H1116 C1112 0.930 . S
H1117 C1114 0.929 . S
S1118 N1119 1.613 . S
S1118 N1120 1.610 . S
N1119 S1118 1.613 . S
N1119 C1122 1.350 . S
N1120 S1118 1.610 . S
N1120 C1121 1.351 . S
C1121 C1115 1.428 . S
C1121 N1120 1.351 . S
C1121 C1122 1.434 . S
C1122 C1113 1.429 . S
C1122 N1119 1.350 . S
C1122 C1121 1.434 . S
C1123 C1124 1.369 . S
C1123 C1125 1.419 . S
C1123 H1127 0.930 . S
C1124 C1123 1.369 . S
C1124 C1133 1.429 . S
C1125 C1123 1.419 . S
C1125 C1126 1.363 . S
C1125 H1128 0.929 . S
C1126 C1125 1.363 . S
C1126 C1132 1.428 . S
H1127 C1123 0.930 . S
H1128 C1125 0.929 . S
S1129 N1130 1.613 . S
S1129 N1131 1.610 . S
N1130 S1129 1.613 . S
N1130 C1133 1.350 . S
N1131 S1129 1.610 . S
N1131 C1132 1.351 . S
C1132 C1126 1.428 . S
C1132 N1131 1.351 . S
C1132 C1133 1.434 . S
C1133 C1124 1.429 . S
C1133 N1130 1.350 . S
C1133 C1132 1.434 . S
C541 N6 0.957 . S
C543 C76 0.960 . S
C552 C16 0.972 . S
C554 N36 0.941 . S
C563 C46 0.972 . S
C565 N66 0.943 . S
C574 N96 0.956 . S
C576 C136 0.960 . S
C585 C166 0.965 . S
C587 N126 0.947 . S
C596 N156 0.945 . S
C598 C106 0.969 . S
C607 C256 0.970 1_545 S
C609 N186 0.946 . S
C618 C196 0.959 . S
C620 N216 0.953 . S
C629 N246 0.957 . S
C631 C226 0.960 . S
C640 C316 0.967 . S
C642 N276 0.949 . S
C651 N306 0.940 . S
C653 C346 0.971 . S
C662 C286 0.965 . S
C664 N336 0.950 . S
C673 N366 0.956 . S
C675 C436 0.962 . S
C684 C376 0.965 . S
C686 N396 0.947 . S
C695 C406 0.973 . S
C697 N426 0.942 . S
C706 C496 0.973 1_455 S
C708 N456 0.941 . S
C717 C526 0.968 . S
C719 N486 0.944 . S
C728 C466 0.968 . S
C730 N516 0.944 . S
C739 C1 1.646 . S
C741 C151 1.645 . S
C750 C91 1.647 . S
C752 C31 1.646 . S
C761 C121 1.642 . S
C763 C61 1.643 . S
C772 C181 1.643 . S
C774 C331 1.644 . S
C783 C211 1.642 . S
C785 C271 1.643 . S
C794 C301 1.644 . S
C796 C241 1.643 . S
C805 C361 1.643 . S
C807 C511 1.645 . S
C816 C451 1.643 . S
C818 C391 1.644 . S
C827 C481 1.646 . S
C829 C421 1.645 . S
C838 C310 2.029 . S
C840 C10 2.023 . S
C849 C40 2.025 . S
C851 C340 2.025 . S
C860 C280 2.021 . S
C862 C70 2.028 . S
C871 C100 2.027 . S
C873 C430 2.024 . S
C882 C130 2.021 . S
C884 C370 2.029 . S
C893 C400 2.023 . S
C895 C160 2.026 . S
C904 C490 2.029 . S
C906 C190 2.024 . S
C915 C220 2.027 . S
C917 C520 2.025 . S
C926 C250 2.028 . S
C928 C460 2.023 . S
C937 C87 1.458 . S
C939 N14 1.416 . S
C948 C27 1.457 . S
C950 N44 1.417 . S
C959 N74 1.408 . S
C961 C57 1.462 . S
C970 C147 1.460 . S
C972 N104 1.413 . S
C981 C177 1.462 . S
C983 N134 1.411 . S
C992 N164 1.410 . S
C994 C117 1.462 . S
C1003 C267 1.456 . S
C1005 N194 1.417 . S
C1014 N224 1.414 . S
C1016 C207 1.459 . S
C1025 C237 1.460 . S
C1027 N254 1.412 . S
C1036 N284 1.414 . S
C1038 C327 1.459 . S
C1047 N314 1.408 . S
C1049 C357 1.463 . S
C1058 C297 1.456 . S
C1060 N344 1.417 . S
C1069 N374 1.414 . S
C1071 C447 1.459 . S
C1080 N404 1.408 . S
C1082 C387 1.462 . S
C1091 C417 1.460 . S
C1093 N434 1.413 . S
C1102 N464 1.418 . S
C1104 C507 1.458 . S
C1113 N494 1.416 . S
C1115 C537 1.459 . S
C1124 C477 1.456 . S
C1126 N524 1.417 . S
