# Generated by pormake.
# Topology uov, (4)-cn, num edge types: 1
# Building blocks:
#     Node 0, Type 0, BuildingBlock: KUFVIS_clean_sbu_0, # of connection points: 4
#     Node 1, Type 0, BuildingBlock: KUFVIS_clean_sbu_0, # of connection points: 4
#     Node 2, Type 0, BuildingBlock: KUFVIS_clean_sbu_0, # of connection points: 4
#     Node 3, Type 0, BuildingBlock: KUFVIS_clean_sbu_0, # of connection points: 4
#     Node 4, Type 0, BuildingBlock: KUFVIS_clean_sbu_0, # of connection points: 4
#     Node 5, Type 0, BuildingBlock: KUFVIS_clean_sbu_0, # of connection points: 4
#     Node 6, Type 0, BuildingBlock: KUFVIS_clean_sbu_0, # of connection points: 4
#     Node 7, Type 0, BuildingBlock: KUFVIS_clean_sbu_0, # of connection points: 4
#     Edge 8, Type (0, 0), BuildingBlock: FUNLAD_clean_linker_0, # of connection points: 2
#     Edge 9, Type (0, 0), BuildingBlock: FUNLAD_clean_linker_0, # of connection points: 2
#     Edge 10, Type (0, 0), BuildingBlock: FUNLAD_clean_linker_0, # of connection points: 2
#     Edge 11, Type (0, 0), BuildingBlock: FUNLAD_clean_linker_0, # of connection points: 2
#     Edge 12, Type (0, 0), BuildingBlock: FUNLAD_clean_linker_0, # of connection points: 2
#     Edge 13, Type (0, 0), BuildingBlock: FUNLAD_clean_linker_0, # of connection points: 2
#     Edge 14, Type (0, 0), BuildingBlock: FUNLAD_clean_linker_0, # of connection points: 2
#     Edge 15, Type (0, 0), BuildingBlock: FUNLAD_clean_linker_0, # of connection points: 2
#     Edge 16, Type (0, 0), BuildingBlock: FUNLAD_clean_linker_0, # of connection points: 2
#     Edge 17, Type (0, 0), BuildingBlock: FUNLAD_clean_linker_0, # of connection points: 2
#     Edge 18, Type (0, 0), BuildingBlock: FUNLAD_clean_linker_0, # of connection points: 2
#     Edge 19, Type (0, 0), BuildingBlock: FUNLAD_clean_linker_0, # of connection points: 2
#     Edge 20, Type (0, 0), BuildingBlock: FUNLAD_clean_linker_0, # of connection points: 2
#     Edge 21, Type (0, 0), BuildingBlock: FUNLAD_clean_linker_0, # of connection points: 2
#     Edge 22, Type (0, 0), BuildingBlock: FUNLAD_clean_linker_0, # of connection points: 2
#     Edge 23, Type (0, 0), BuildingBlock: FUNLAD_clean_linker_0, # of connection points: 2
# Relax obj value: 0.168
# Max RMSD: 0.184
# Mean RMSD: 0.181
data_MOF--net-uov--node1-KUFVIS_clean_sbu_0--edge1-FUNLAD_clean_linker_0
_symmetry_space_group_name_H-M    P1
_symmetry_Int_Tables_number       1
_symmetry_cell_setting            triclinic
loop_
_symmetry_equiv_pos_as_xyz
'x, y, z'
_cell_length_a     33.891731
_cell_length_b     34.886051
_cell_length_c     49.375899
_cell_angle_alpha  89.962869
_cell_angle_beta   90.012826
_cell_angle_gamma 91.412294
loop_
_atom_site_label
_atom_site_type_symbol
_atom_site_fract_x
_atom_site_fract_y
_atom_site_fract_z
_atom_type_partial_charge
Mn0 Mn 0.05708 0.25469 0.60038 0.0
Mn1 Mn 0.97845 0.25062 0.64231 0.0
C2 C 0.99453 0.26132 0.58318 0.0
C3 C 0.10135 0.22238 0.5729 0.0
C4 C 0.03092 0.3217 0.63561 0.0
O5 O 0.07964 0.23169 0.63458 0.0
O6 O 0.02514 0.22834 0.66059 0.0
C7 C 0.96747 0.1662 0.64429 0.0
N8 N 0.95281 0.20143 0.63899 0.0
C9 C 0.89003 0.17365 0.62575 0.0
C10 C 0.90436 0.13711 0.63128 0.0
C11 C 0.94327 0.13338 0.64056 0.0
C12 C 0.91539 0.20535 0.6301 0.0
H13 H 0.99744 0.16316 0.65124 0.0
C14 C 0.06188 0.22253 0.65648 0.0
O15 O 0.11036 0.25614 0.5826 0.0
O16 O 0.06759 0.20736 0.57994 0.0
N17 N 0.93105 0.27057 0.6273 0.0
C18 C 0.92251 0.30761 0.62136 0.0
C19 C 0.88513 0.31613 0.61102 0.0
C20 C 0.85686 0.28655 0.60704 0.0
C21 C 0.86616 0.24872 0.61359 0.0
C22 C 0.90378 0.242 0.62408 0.0
H23 H 0.94418 0.33044 0.62418 0.0
O24 O 0.02508 0.27352 0.5696 0.0
O25 O 0.00155 0.24471 0.60625 0.0
O26 O 0.05483 0.30774 0.61839 0.0
O27 O 0.00228 0.30241 0.64617 0.0
C28 C 0.83993 0.2173 0.60948 0.0
C29 C 0.85186 0.1798 0.61554 0.0
H30 H 0.88589 0.11169 0.62822 0.0
H31 H 0.95462 0.10525 0.64472 0.0
H32 H 0.87821 0.34539 0.60597 0.0
H33 H 0.82823 0.29318 0.59876 0.0
H34 H 0.81073 0.2216 0.60128 0.0
H35 H 0.83163 0.15583 0.61193 0.0
Mn36 Mn 0.24523 0.93444 0.39582 0.0
Mn37 Mn 0.29288 0.85058 0.39473 0.0
C38 C 0.22296 0.88388 0.42201 0.0
C39 C 0.23797 0.99571 0.4138 0.0
C40 C 0.23711 0.87521 0.35028 0.0
O41 O 0.29755 0.94902 0.37849 0.0
O42 O 0.3283 0.89258 0.38096 0.0
C43 C 0.35304 0.86877 0.43658 0.0
N44 N 0.32266 0.84601 0.42741 0.0
C45 C 0.3258 0.80571 0.46689 0.0
C46 C 0.3573 0.82856 0.47666 0.0
C47 C 0.37094 0.86025 0.46145 0.0
C48 C 0.30928 0.81547 0.4419 0.0
H49 H 0.36346 0.8933 0.42505 0.0
C50 C 0.32762 0.92834 0.37499 0.0
O51 O 0.22461 0.9869 0.38987 0.0
O52 O 0.2565 0.96933 0.42678 0.0
N53 N 0.26222 0.80766 0.40789 0.0
C54 C 0.23093 0.78909 0.39595 0.0
C55 C 0.2134 0.75704 0.4088 0.0
C56 C 0.22836 0.74426 0.43366 0.0
C57 C 0.26098 0.76344 0.44533 0.0
C58 C 0.27749 0.79498 0.43145 0.0
H59 H 0.21921 0.79884 0.37689 0.0
O60 O 0.19959 0.91147 0.41591 0.0
O61 O 0.2589 0.88702 0.413 0.0
O62 O 0.22746 0.90688 0.3611 0.0
O63 O 0.26191 0.85258 0.36086 0.0
C64 C 0.27741 0.75284 0.47037 0.0
C65 C 0.30976 0.77399 0.48116 0.0
H66 H 0.37104 0.82221 0.4959 0.0
H67 H 0.3951 0.87813 0.46892 0.0
H68 H 0.18828 0.74235 0.39964 0.0
H69 H 0.21448 0.71978 0.44365 0.0
H70 H 0.26516 0.72869 0.48162 0.0
H71 H 0.32189 0.76579 0.50055 0.0
Mn72 Mn 0.94586 0.73381 0.59994 0.0
Mn73 Mn 0.02676 0.74151 0.63956 0.0
C74 C 0.0076 0.73366 0.58058 0.0
C75 C 0.89705 0.76532 0.57591 0.0
C76 C 0.97892 0.66731 0.63237 0.0
O77 O 0.92383 0.75142 0.6359 0.0
O78 O 0.98009 0.76082 0.65953 0.0
C79 C 0.03334 0.82617 0.6427 0.0
N80 N 0.04954 0.79198 0.63637 0.0
C81 C 0.10991 0.82334 0.62179 0.0
C82 C 0.09401 0.85885 0.62842 0.0
C83 C 0.05554 0.86026 0.63888 0.0
C84 C 0.08655 0.79028 0.6263 0.0
H85 H 0.00364 0.82744 0.65051 0.0
C86 C 0.94251 0.76256 0.657 0.0
O87 O 0.89171 0.72984 0.58346 0.0
O88 O 0.93 0.78217 0.58271 0.0
N89 N 0.07413 0.72457 0.62269 0.0
C90 C 0.08416 0.6883 0.61567 0.0
C91 C 0.12124 0.6821 0.604 0.0
C92 C 0.14767 0.71316 0.59978 0.0
C93 C 0.13685 0.75016 0.60739 0.0
C94 C 0.09966 0.75455 0.61919 0.0
H95 H 0.0639 0.66434 0.61865 0.0
O96 O 0.97711 0.72064 0.56732 0.0
O97 O 0.00083 0.7476 0.60452 0.0
O98 O 0.95384 0.67985 0.61536 0.0
O99 O 0.00595 0.68841 0.64325 0.0
C100 C 0.16113 0.78296 0.60311 0.0
C101 C 0.14767 0.81952 0.61029 0.0
H102 H 0.11091 0.88524 0.62528 0.0
H103 H 0.04295 0.88758 0.64386 0.0
H104 H 0.12933 0.65347 0.59812 0.0
H105 H 0.17606 0.70832 0.59048 0.0
H106 H 0.18998 0.78047 0.59392 0.0
H107 H 0.16638 0.84459 0.60653 0.0
Mn108 Mn 0.73767 0.06672 0.41416 0.0
Mn109 Mn 0.68988 0.15 0.4084 0.0
C110 C 0.76123 0.12045 0.43639 0.0
C111 C 0.74361 0.00826 0.43678 0.0
C112 C 0.74353 0.11916 0.36463 0.0
O113 O 0.68494 0.05038 0.39828 0.0
O114 O 0.65354 0.10655 0.39841 0.0
C115 C 0.6322 0.13816 0.4528 0.0
N116 N 0.66208 0.15932 0.44132 0.0
C117 C 0.66156 0.20483 0.47791 0.0
C118 C 0.63059 0.18367 0.49003 0.0
C119 C 0.61588 0.15017 0.47742 0.0
C120 C 0.67647 0.19159 0.45329 0.0
H121 H 0.621 0.11224 0.44327 0.0
C122 C 0.65448 0.0703 0.39423 0.0
O123 O 0.75714 0.0129 0.41231 0.0
O124 O 0.72621 0.03712 0.44755 0.0
N125 N 0.72143 0.19434 0.41768 0.0
C126 C 0.75208 0.21088 0.40372 0.0
C127 C 0.77058 0.24436 0.41386 0.0
C128 C 0.75725 0.26059 0.43812 0.0
C129 C 0.72525 0.24339 0.45189 0.0
C130 C 0.7077 0.21029 0.44066 0.0
H131 H 0.76254 0.19848 0.38511 0.0
O132 O 0.78408 0.0918 0.4321 0.0
O133 O 0.72498 0.11633 0.42813 0.0
O134 O 0.75464 0.08938 0.3774 0.0
O135 O 0.71881 0.14278 0.37418 0.0
C136 C 0.71044 0.25748 0.47651 0.0
C137 C 0.67865 0.23819 0.48953 0.0
H138 H 0.61807 0.19272 0.5091 0.0
H139 H 0.59212 0.13358 0.48672 0.0
H140 H 0.79521 0.2575 0.40308 0.0
H141 H 0.77187 0.28618 0.44602 0.0
H142 H 0.72351 0.28293 0.48574 0.0
H143 H 0.66777 0.24909 0.50859 0.0
Mn144 Mn 0.93189 0.24645 0.10339 0.0
Mn145 Mn 0.0159 0.24216 0.13977 0.0
C146 C 0.99193 0.24394 0.08159 0.0
C147 C 0.87842 0.21645 0.08217 0.0
C148 C 0.97041 0.31517 0.13209 0.0
O149 O 0.91238 0.23088 0.14085 0.0
O150 O 0.97044 0.22452 0.16251 0.0
C151 C 0.01926 0.15795 0.14636 0.0
N152 N 0.03611 0.19158 0.13761 0.0
C153 C 0.09307 0.15914 0.12095 0.0
C154 C 0.07645 0.12421 0.12996 0.0
C155 C 0.03937 0.12362 0.14269 0.0
C156 C 0.07181 0.19248 0.12538 0.0
H157 H 0.99063 0.15731 0.15597 0.0
C158 C 0.93263 0.22187 0.16162 0.0
O159 O 0.87719 0.25213 0.08953 0.0
O160 O 0.91012 0.19798 0.08787 0.0
N161 N 0.06204 0.25782 0.11986 0.0
C162 C 0.07292 0.29354 0.11098 0.0
C163 C 0.10883 0.29889 0.09714 0.0
C164 C 0.1332 0.26753 0.09265 0.0
C165 C 0.12153 0.23112 0.10216 0.0
C166 C 0.08563 0.2276 0.1161 0.0
H167 H 0.05423 0.31772 0.11425 0.0
O168 O 0.9614 0.25701 0.06909 0.0
O169 O 0.98619 0.23235 0.10634 0.0
O170 O 0.94401 0.30077 0.11652 0.0
O171 O 0.99796 0.29564 0.14258 0.0
C172 C 0.1437 0.19803 0.09785 0.0
C173 C 0.12947 0.16207 0.10722 0.0
H174 H 0.09171 0.09762 0.12697 0.0
H175 H 0.02624 0.09674 0.14955 0.0
H176 H 0.1176 0.32707 0.08981 0.0
H177 H 0.16066 0.27169 0.08168 0.0
H178 H 0.17147 0.19983 0.08701 0.0
H179 H 0.1465 0.13676 0.10343 0.0
Mn180 Mn 0.25305 0.04311 0.90238 0.0
Mn181 Mn 0.25245 0.96987 0.85787 0.0
C182 C 0.2613 0.9815 0.91761 0.0
C183 C 0.21911 0.0831 0.93138 0.0
C184 C 0.32367 0.02233 0.86713 0.0
O185 O 0.22913 0.06668 0.86891 0.0
O186 O 0.22926 0.01605 0.84066 0.0
C187 C 0.16589 0.95758 0.8538 0.0
N188 N 0.20223 0.94379 0.85946 0.0
C189 C 0.1744 0.88165 0.87065 0.0
C190 C 0.13672 0.89511 0.86473 0.0
C191 C 0.13246 0.93325 0.85629 0.0
C192 C 0.20668 0.90709 0.8675 0.0
H193 H 0.16242 0.98695 0.84751 0.0
C194 C 0.22165 0.05107 0.84609 0.0
O195 O 0.25342 0.09353 0.92175 0.0
O196 O 0.20413 0.05063 0.92319 0.0
N197 N 0.27339 0.92339 0.87185 0.0
C198 C 0.31143 0.9156 0.8784 0.0
C199 C 0.32051 0.87904 0.88814 0.0
C200 C 0.29049 0.85084 0.89091 0.0
C201 C 0.25164 0.85941 0.88379 0.0
C202 C 0.24439 0.89624 0.87395 0.0
H203 H 0.3346 0.93723 0.87649 0.0
O204 O 0.27312 0.01059 0.93207 0.0
O205 O 0.24434 0.98938 0.89464 0.0
O206 O 0.30776 0.04391 0.8847 0.0
O207 O 0.30543 0.9943 0.85559 0.0
C208 C 0.21966 0.83314 0.8867 0.0
C209 C 0.18108 0.84426 0.88013 0.0
H210 H 0.11081 0.87654 0.86686 0.0
H211 H 0.10345 0.94392 0.85184 0.0
H212 H 0.35056 0.87268 0.89365 0.0
H213 H 0.29755 0.82281 0.89872 0.0
H214 H 0.22434 0.8045 0.89434 0.0
H215 H 0.15667 0.82397 0.8828 0.0
Mn216 Mn 0.05631 0.73065 0.08762 0.0
Mn217 Mn 0.97742 0.74261 0.12807 0.0
C218 C 0.99609 0.74527 0.06898 0.0
C219 C 0.11193 0.75492 0.0655 0.0
C220 C 0.00956 0.6648 0.1139 0.0
O221 O 0.08104 0.73809 0.12486 0.0
O222 O 0.02675 0.75048 0.14947 0.0
C223 C 0.98787 0.82536 0.14011 0.0
N224 N 0.96539 0.79578 0.13002 0.0
C225 C 0.91311 0.83824 0.11839 0.0
C226 C 0.93559 0.86911 0.12883 0.0
C227 C 0.97315 0.86263 0.13971 0.0
C228 C 0.92915 0.80166 0.11959 0.0
H229 H 0.01687 0.82058 0.14832 0.0
C230 C 0.06425 0.74753 0.14696 0.0
O231 O 0.10788 0.71856 0.07075 0.0
O232 O 0.08447 0.77723 0.07397 0.0
N233 N 0.9281 0.7365 0.10945 0.0
C234 C 0.91134 0.70412 0.09857 0.0
C235 C 0.87429 0.70596 0.08597 0.0
C236 C 0.85484 0.74101 0.08474 0.0
C237 C 0.87257 0.7739 0.09622 0.0
C238 C 0.90936 0.77025 0.10875 0.0
H239 H 0.92625 0.67715 0.09929 0.0
O240 O 0.02289 0.72927 0.05437 0.0
O241 O 0.00555 0.75252 0.09402 0.0
O242 O 0.03646 0.67709 0.09789 0.0
O243 O 0.98669 0.68678 0.12693 0.0
C244 C 0.85557 0.81033 0.09519 0.0
C245 C 0.87582 0.84247 0.10628 0.0
H246 H 0.92448 0.89795 0.12835 0.0
H247 H 0.99077 0.88634 0.14767 0.0
H248 H 0.86085 0.68047 0.07708 0.0
H249 H 0.82646 0.7424 0.07474 0.0
H250 H 0.82719 0.81404 0.08557 0.0
H251 H 0.86269 0.87041 0.10502 0.0
Mn252 Mn 0.75087 0.96291 0.8881 0.0
Mn253 Mn 0.7581 0.04127 0.84824 0.0
C254 C 0.75039 0.02289 0.90748 0.0
C255 C 0.78213 0.91503 0.91226 0.0
C256 C 0.68256 0.99372 0.85513 0.0
O257 O 0.76957 0.94172 0.85222 0.0
O258 O 0.77925 0.99631 0.82849 0.0
C259 C 0.84512 0.04977 0.84531 0.0
N260 N 0.80947 0.06462 0.85158 0.0
C261 C 0.84008 0.12422 0.86583 0.0
C262 C 0.87709 0.10969 0.85929 0.0
C263 C 0.87961 0.07228 0.84903 0.0
C264 C 0.80669 0.10061 0.86141 0.0
H265 H 0.84722 0.02093 0.8376 0.0
C266 C 0.78128 0.95982 0.83115 0.0
O267 O 0.74595 0.91023 0.90394 0.0
O268 O 0.80003 0.94705 0.90596 0.0
N269 N 0.73936 0.0868 0.86503 0.0
C270 C 0.70178 0.09546 0.87219 0.0
C271 C 0.6944 0.13125 0.88388 0.0
C272 C 0.72563 0.15783 0.88794 0.0
C273 C 0.764 0.1484 0.88023 0.0
C274 C 0.76954 0.1124 0.86848 0.0
H275 H 0.67766 0.0751 0.86924 0.0
O276 O 0.73684 0.99317 0.92062 0.0
O277 O 0.76486 0.01642 0.88352 0.0
O278 O 0.69565 0.9703 0.87264 0.0
O279 O 0.70385 0.02001 0.84395 0.0
C280 C 0.7971 0.17293 0.88435 0.0
C281 C 0.83511 0.16085 0.87716 0.0
H282 H 0.9038 0.12683 0.86235 0.0
H283 H 0.90809 0.06076 0.84411 0.0
H284 H 0.66472 0.13828 0.88985 0.0
H285 H 0.71987 0.18526 0.89722 0.0
H286 H 0.79373 0.20091 0.89344 0.0
H287 H 0.86039 0.17974 0.88081 0.0
C288 C 0.01081 0.61029 0.65312 0.0
C289 C 0.97943 0.62558 0.63821 0.0
C290 C 0.01425 0.57075 0.65613 0.0
C291 C 0.98624 0.54547 0.64444 0.0
C292 C 0.95378 0.56061 0.63077 0.0
C293 C 0.95055 0.60026 0.62745 0.0
C294 C 0.99018 0.5033 0.64623 0.0
C295 C 0.02545 0.48621 0.64633 0.0
C296 C 0.02902 0.44393 0.64611 0.0
C297 C 0.06001 0.42734 0.63174 0.0
C298 C 0.06193 0.38745 0.62926 0.0
C299 C 0.03319 0.36341 0.64153 0.0
H300 H 0.97819 0.43182 0.67168 0.0
C301 C 0.00377 0.38019 0.65746 0.0
C302 C 0.00163 0.41994 0.65965 0.0
H303 H 0.98134 0.36272 0.66752 0.0
H304 H 0.03349 0.62879 0.66195 0.0
H305 H 0.03893 0.56007 0.66756 0.0
H306 H 0.93151 0.54167 0.62189 0.0
H307 H 0.92588 0.61097 0.616 0.0
H308 H 0.96324 0.48579 0.64532 0.0
H309 H 0.05239 0.50351 0.64425 0.0
H310 H 0.08184 0.44531 0.62147 0.0
H311 H 0.08513 0.37559 0.61699 0.0
C312 C 0.58325 0.07065 0.38055 0.0
C313 C 0.61796 0.05027 0.38491 0.0
C314 C 0.54825 0.05143 0.37323 0.0
C315 C 0.54726 0.01133 0.36996 0.0
C316 C 0.58208 0.99111 0.37382 0.0
C317 C 0.61708 0.01031 0.38108 0.0
C318 C 0.50995 0.98923 0.36537 0.0
C319 C 0.47717 0.00433 0.35475 0.0
C320 C 0.43833 0.98386 0.35558 0.0
C321 C 0.40416 0.00544 0.35811 0.0
C322 C 0.3677 0.98734 0.36314 0.0
C323 C 0.36472 0.9472 0.36558 0.0
H324 H 0.46026 0.92593 0.35275 0.0
C325 C 0.39846 0.92549 0.36094 0.0
C326 C 0.43486 0.9436 0.35585 0.0
H327 H 0.3971 0.89447 0.36208 0.0
H328 H 0.58279 0.10142 0.38342 0.0
H329 H 0.52188 0.06804 0.37131 0.0
H330 H 0.58205 0.96019 0.37169 0.0
H331 H 0.64323 0.99363 0.38423 0.0
H332 H 0.50919 0.95981 0.37255 0.0
H333 H 0.47773 0.03378 0.34766 0.0
H334 H 0.40596 0.03649 0.3576 0.0
H335 H 0.34225 0.00498 0.3663 0.0
C336 C 0.94664 0.38061 0.12085 0.0
C337 C 0.97048 0.3571 0.13681 0.0
C338 C 0.94926 0.4204 0.1233 0.0
C339 C 0.97563 0.43761 0.14186 0.0
C340 C 0.99788 0.41426 0.15887 0.0
C341 C 0.99566 0.37433 0.1562 0.0
C342 C 0.98122 0.47981 0.143 0.0
C343 C 0.9821 0.50103 0.12024 0.0
C344 C 0.99013 0.5429 0.11995 0.0
C345 C 0.00978 0.55901 0.09754 0.0
C346 C 0.01683 0.59848 0.09596 0.0
C347 C 0.00353 0.62286 0.1165 0.0
H348 H 0.96115 0.55551 0.15799 0.0
C349 C 0.98354 0.60678 0.13891 0.0
C350 C 0.97713 0.56708 0.14073 0.0
H351 H 0.97283 0.62486 0.155 0.0
H352 H 0.92669 0.3684 0.10585 0.0
H353 H 0.93093 0.43772 0.11041 0.0
H354 H 0.01812 0.42695 0.1735 0.0
H355 H 0.01418 0.35706 0.16898 0.0
H356 H 0.98806 0.49305 0.16241 0.0
H357 H 0.97947 0.48678 0.10072 0.0
H358 H 0.0198 0.54096 0.0812 0.0
H359 H 0.03196 0.60996 0.0783 0.0
C360 C 0.38475 0.00549 0.84161 0.0
C361 C 0.36664 0.02679 0.86215 0.0
C362 C 0.42584 0.00421 0.83987 0.0
C363 C 0.44971 0.02424 0.85868 0.0
C364 C 0.43168 0.04693 0.87836 0.0
C365 C 0.3906 0.04847 0.87997 0.0
C366 C 0.49295 0.01903 0.86014 0.0
C367 C 0.51523 0.00843 0.839 0.0
C368 C 0.55791 0.00162 0.84218 0.0
C369 C 0.58446 0.01444 0.82218 0.0
C370 C 0.62509 0.01074 0.8259 0.0
C371 C 0.63974 0.99318 0.84939 0.0
H372 H 0.55244 0.97157 0.88053 0.0
C373 C 0.61291 0.9783 0.86861 0.0
C374 C 0.5724 0.98268 0.86512 0.0
H375 H 0.62322 0.96466 0.88692 0.0
H376 H 0.36722 0.98841 0.82755 0.0
H377 H 0.43858 0.98585 0.82472 0.0
H378 H 0.44941 0.06258 0.89312 0.0
H379 H 0.37774 0.06507 0.89611 0.0
H380 H 0.50715 0.02448 0.87957 0.0
H381 H 0.50263 0.0066 0.81881 0.0
H382 H 0.57385 0.02866 0.80418 0.0
H383 H 0.64505 0.02229 0.81066 0.0
C384 C 0.24522 0.04145 0.45259 0.0
C385 C 0.22912 0.03256 0.42704 0.0
C386 C 0.23217 0.07301 0.46723 0.0
C387 C 0.20265 0.09636 0.45659 0.0
C388 C 0.18814 0.08859 0.43045 0.0
C389 C 0.2014 0.05718 0.41573 0.0
C390 C 0.18242 0.12523 0.47344 0.0
C391 C 0.19769 0.1412 0.49613 0.0
C392 C 0.17296 0.16307 0.51524 0.0
C393 C 0.18934 0.19383 0.5302 0.0
C394 C 0.16625 0.21362 0.54893 0.0
C395 C 0.12674 0.2022 0.55346 0.0
H396 H 0.12024 0.12737 0.50947 0.0
C397 C 0.11076 0.17097 0.53882 0.0
C398 C 0.13349 0.15174 0.51994 0.0
H399 H 0.08044 0.16135 0.54183 0.0
H400 H 0.26668 0.02304 0.46185 0.0
H401 H 0.24362 0.07747 0.48747 0.0
H402 H 0.16525 0.10597 0.4218 0.0
H403 H 0.18841 0.0511 0.3961 0.0
H404 H 0.1526 0.13233 0.46746 0.0
H405 H 0.22854 0.13764 0.50122 0.0
H406 H 0.21989 0.20271 0.52724 0.0
H407 H 0.17937 0.2375 0.56001 0.0
C408 C 0.17551 0.83531 0.44018 0.0
C409 C 0.21092 0.85638 0.44298 0.0
C410 C 0.16114 0.81296 0.46159 0.0
C411 C 0.18151 0.81221 0.48645 0.0
C412 C 0.21706 0.83332 0.48913 0.0
C413 C 0.23174 0.8552 0.46751 0.0
C414 C 0.16302 0.79471 0.51076 0.0
C415 C 0.13726 0.7649 0.50927 0.0
C416 C 0.10869 0.75572 0.5311 0.0
C417 C 0.09222 0.71851 0.53289 0.0
C418 C 0.06043 0.71075 0.55021 0.0
C419 C 0.04478 0.7401 0.56601 0.0
H420 H 0.10403 0.8143 0.54566 0.0
C421 C 0.06116 0.77724 0.56429 0.0
C422 C 0.09319 0.78495 0.54729 0.0
H423 H 0.04816 0.80065 0.57528 0.0
H424 H 0.15859 0.83679 0.4216 0.0
H425 H 0.13292 0.79818 0.45908 0.0
H426 H 0.23283 0.8338 0.50822 0.0
H427 H 0.25853 0.87236 0.47026 0.0
H428 H 0.1684 0.80876 0.5301 0.0
H429 H 0.13472 0.74851 0.4906 0.0
H430 H 0.10308 0.69576 0.52019 0.0
H431 H 0.04732 0.68211 0.55073 0.0
C432 C 0.77373 0.94355 0.44337 0.0
C433 C 0.74994 0.97311 0.4529 0.0
C434 C 0.78362 0.9131 0.46048 0.0
C435 C 0.76981 0.91182 0.4874 0.0
C436 C 0.74457 0.94042 0.49633 0.0
C437 C 0.73458 0.97055 0.47929 0.0
C438 C 0.78504 0.88458 0.50781 0.0
C439 C 0.80056 0.8504 0.50199 0.0
C440 C 0.82187 0.8281 0.52282 0.0
C441 C 0.82115 0.7878 0.52209 0.0
C442 C 0.84382 0.76685 0.54044 0.0
C443 C 0.86835 0.78604 0.55924 0.0
H444 H 0.84766 0.87803 0.54304 0.0
C445 C 0.86853 0.82625 0.56019 0.0
C446 C 0.84551 0.84703 0.54231 0.0
H447 H 0.88733 0.8418 0.57438 0.0
H448 H 0.78607 0.94478 0.42315 0.0
H449 H 0.80376 0.89195 0.45304 0.0
H450 H 0.73361 0.94025 0.51695 0.0
H451 H 0.71597 0.99267 0.48728 0.0
H452 H 0.78427 0.89379 0.52884 0.0
H453 H 0.79836 0.83879 0.48163 0.0
H454 H 0.80348 0.77258 0.5071 0.0
H455 H 0.84356 0.73586 0.5391 0.0
C456 C 0.80988 0.17077 0.45017 0.0
C457 C 0.77436 0.1507 0.45507 0.0
C458 C 0.82634 0.19458 0.47006 0.0
C459 C 0.80797 0.19781 0.49553 0.0
C460 C 0.77187 0.17833 0.5001 0.0
C461 C 0.75513 0.15494 0.47999 0.0
C462 C 0.82939 0.21512 0.5188 0.0
C463 C 0.85795 0.2422 0.51586 0.0
C464 C 0.88905 0.24857 0.53649 0.0
C465 C 0.9086 0.28441 0.5382 0.0
C466 C 0.94204 0.28917 0.55455 0.0
C467 C 0.95634 0.25811 0.56935 0.0
H468 H 0.89014 0.18915 0.54981 0.0
C469 C 0.9371 0.22226 0.56747 0.0
C470 C 0.90342 0.21759 0.55153 0.0
H471 H 0.94895 0.19748 0.57758 0.0
H472 H 0.82556 0.16699 0.43127 0.0
H473 H 0.85481 0.2081 0.46605 0.0
H474 H 0.75753 0.17981 0.51967 0.0
H475 H 0.72825 0.13866 0.4844 0.0
H476 H 0.82424 0.20232 0.53861 0.0
H477 H 0.8609 0.25774 0.49686 0.0
H478 H 0.89865 0.3084 0.52628 0.0
H479 H 0.95732 0.31681 0.55514 0.0
C480 C 0.72734 0.07277 0.93927 0.0
C481 C 0.75701 0.05891 0.92233 0.0
C482 C 0.73562 0.10292 0.95717 0.0
C483 C 0.77375 0.11956 0.95833 0.0
C484 C 0.80295 0.10663 0.94068 0.0
C485 C 0.79492 0.07586 0.92331 0.0
C486 C 0.78497 0.14762 0.97953 0.0
C487 C 0.77611 0.14101 0.0057 0.0
C488 C 0.79717 0.16182 0.02761 0.0
C489 C 0.81453 0.14066 0.04841 0.0
C490 C 0.83987 0.15874 0.06697 0.0
C491 C 0.84708 0.19847 0.06555 0.0
H492 H 0.78947 0.21871 0.01112 0.0
C493 C 0.82735 0.22009 0.04599 0.0
C494 C 0.80294 0.20181 0.02687 0.0
H495 H 0.83263 0.25077 0.04445 0.0
H496 H 0.69813 0.05943 0.93925 0.0
H497 H 0.71261 0.11252 0.9706 0.0
H498 H 0.83266 0.11877 0.94149 0.0
H499 H 0.81873 0.06433 0.91145 0.0
H500 H 0.80643 0.17012 0.97431 0.0
H501 H 0.75858 0.11564 0.01116 0.0
H502 H 0.81034 0.10979 0.04934 0.0
H503 H 0.85471 0.14154 0.08194 0.0
C504 C 0.20401 0.14472 0.95533 0.0
C505 C 0.19922 0.10476 0.9528 0.0
C506 C 0.18426 0.16424 0.97594 0.0
C507 C 0.16048 0.14375 0.99461 0.0
C508 C 0.15681 0.10381 0.9924 0.0
C509 C 0.17545 0.08459 0.97151 0.0
C510 C 0.13836 0.16252 0.01651 0.0
C511 C 0.11855 0.19506 0.01281 0.0
C512 C 0.08798 0.20804 0.03214 0.0
C513 C 0.07667 0.24653 0.03186 0.0
C514 C 0.04585 0.25872 0.04841 0.0
C515 C 0.02634 0.23266 0.06574 0.0
H516 H 0.07347 0.15163 0.04904 0.0
C517 C 0.0369 0.19414 0.06562 0.0
C518 C 0.06736 0.1819 0.04908 0.0
H519 H 0.02092 0.17325 0.07794 0.0
H520 H 0.22242 0.1608 0.94121 0.0
H521 H 0.18796 0.19508 0.97747 0.0
H522 H 0.13871 0.08744 0.00658 0.0
H523 H 0.17166 0.0537 0.97026 0.0
H524 H 0.13461 0.14634 0.03516 0.0
H525 H 0.1228 0.21136 0.99423 0.0
H526 H 0.09138 0.26708 0.01859 0.0
H527 H 0.03724 0.2884 0.04769 0.0
C528 C 0.15664 0.80831 0.05037 0.0
C529 C 0.14367 0.77001 0.04787 0.0
C530 C 0.1813 0.82491 0.03076 0.0
C531 C 0.19271 0.80365 0.00798 0.0
C532 C 0.181 0.76491 0.00605 0.0
C533 C 0.1572 0.74798 0.02612 0.0
C534 C 0.21122 0.82318 0.98441 0.0
C535 C 0.23723 0.85255 0.98728 0.0
C536 C 0.24573 0.88034 0.96527 0.0
C537 C 0.28255 0.89955 0.9644 0.0
C538 C 0.2886 0.93098 0.9472 0.0
C539 C 0.25778 0.94385 0.93082 0.0
H540 H 0.18614 0.87915 0.94902 0.0
C541 C 0.22112 0.92441 0.93146 0.0
C542 C 0.21532 0.89246 0.94812 0.0
H543 H 0.19629 0.93516 0.92019 0.0
H544 H 0.14641 0.82589 0.06691 0.0
H545 H 0.18909 0.8551 0.03253 0.0
H546 H 0.18906 0.74816 0.98852 0.0
H547 H 0.14719 0.71846 0.02362 0.0
H548 H 0.20069 0.81519 0.96434 0.0
H549 H 0.25029 0.8584 0.00701 0.0
H550 H 0.30612 0.89119 0.97783 0.0
H551 H 0.31678 0.94631 0.94757 0.0
C552 C 0.84107 0.89381 0.93772 0.0
C553 C 0.8019 0.88668 0.92952 0.0
C554 C 0.85936 0.86928 0.9558 0.0
C555 C 0.83886 0.83707 0.96631 0.0
C556 C 0.80032 0.82882 0.95719 0.0
C557 C 0.78183 0.8536 0.93906 0.0
C558 C 0.85783 0.81167 0.98637 0.0
C559 C 0.8833 0.82595 0.005 0.0
C560 C 0.90794 0.80282 0.02345 0.0
C561 C 0.91245 0.76297 0.02048 0.0
C562 C 0.94008 0.74373 0.03621 0.0
C563 C 0.96313 0.7638 0.05534 0.0
H564 H 0.92836 0.85318 0.04556 0.0
C565 C 0.9584 0.8033 0.0585 0.0
C566 C 0.9308 0.82249 0.04296 0.0
H567 H 0.97701 0.81961 0.07237 0.0
H568 H 0.8576 0.91873 0.93047 0.0
H569 H 0.88968 0.87565 0.96147 0.0
H570 H 0.78418 0.80379 0.96465 0.0
H571 H 0.75168 0.84726 0.93295 0.0
H572 H 0.85021 0.78132 0.98581 0.0
H573 H 0.88731 0.85691 0.00639 0.0
H574 H 0.89614 0.74669 0.00541 0.0
H575 H 0.9441 0.71335 0.03303 0.0
C576 C 0.0671 0.19466 0.70324 0.0
C577 C 0.08446 0.20284 0.67794 0.0
C578 C 0.08774 0.17468 0.72305 0.0
C579 C 0.1263 0.16242 0.71803 0.0
C580 C 0.1436 0.17049 0.69278 0.0
C581 C 0.12309 0.19069 0.67302 0.0
C582 C 0.14848 0.13956 0.7381 0.0
C583 C 0.14255 0.14184 0.76502 0.0
C584 C 0.16417 0.11849 0.78508 0.0
C585 C 0.16894 0.13248 0.81154 0.0
C586 C 0.18806 0.1109 0.8312 0.0
C587 C 0.20239 0.07443 0.82495 0.0
H588 H 0.17431 0.06974 0.7588 0.0
C589 C 0.19732 0.06026 0.79848 0.0
C590 C 0.17845 0.08202 0.77875 0.0
H591 H 0.20771 0.03221 0.79296 0.0
H592 H 0.03731 0.20328 0.7077 0.0
H593 H 0.07291 0.16805 0.74194 0.0
H594 H 0.17312 0.16109 0.68829 0.0
H595 H 0.13735 0.1962 0.65373 0.0
H596 H 0.17152 0.12144 0.73037 0.0
H597 H 0.12232 0.16275 0.77291 0.0
H598 H 0.15789 0.16031 0.81703 0.0
H599 H 0.19114 0.12268 0.8514 0.0
C600 C 0.07196 0.77162 0.19454 0.0
C601 C 0.08928 0.75779 0.17068 0.0
C602 C 0.09534 0.78383 0.2163 0.0
C603 C 0.13673 0.78271 0.21472 0.0
C604 C 0.15405 0.76767 0.19133 0.0
C605 C 0.13064 0.75556 0.16944 0.0
C606 C 0.16238 0.79618 0.2374 0.0
C607 C 0.1517 0.82399 0.25468 0.0
C608 C 0.17605 0.83739 0.27805 0.0
C609 C 0.16818 0.87313 0.28966 0.0
C610 C 0.18861 0.88589 0.31267 0.0
C611 C 0.21729 0.863 0.32478 0.0
H612 H 0.21136 0.78647 0.28216 0.0
C613 C 0.2255 0.82737 0.31296 0.0
C614 C 0.20508 0.81463 0.28994 0.0
H615 H 0.24716 0.80878 0.32181 0.0
H616 H 0.04022 0.7735 0.19639 0.0
H617 H 0.08079 0.79385 0.23437 0.0
H618 H 0.18585 0.76598 0.18975 0.0
H619 H 0.14503 0.74491 0.15147 0.0
H620 H 0.19144 0.78398 0.23897 0.0
H621 H 0.12419 0.83856 0.25123 0.0
H622 H 0.14581 0.89117 0.28106 0.0
H623 H 0.18138 0.91344 0.3212 0.0
C624 C 0.93917 0.80309 0.69881 0.0
C625 C 0.91981 0.78031 0.67916 0.0
C626 C 0.91761 0.82209 0.71859 0.0
C627 C 0.8762 0.81851 0.71927 0.0
C628 C 0.85695 0.79464 0.70032 0.0
C629 C 0.87845 0.77605 0.68028 0.0
C630 C 0.85252 0.83896 0.73972 0.0
C631 C 0.86298 0.87411 0.74891 0.0
C632 C 0.83973 0.89535 0.76921 0.0
C633 C 0.84229 0.93556 0.76941 0.0
C634 C 0.82239 0.95654 0.78901 0.0
C635 C 0.79997 0.93769 0.80919 0.0
H636 H 0.81497 0.84543 0.79004 0.0
C637 C 0.79727 0.89737 0.80892 0.0
C638 C 0.81685 0.87642 0.78913 0.0
H639 H 0.7804 0.88189 0.82422 0.0
H640 H 0.97098 0.80692 0.69863 0.0
H641 H 0.93346 0.83938 0.73341 0.0
H642 H 0.8251 0.79107 0.70064 0.0
H643 H 0.86262 0.7585 0.66559 0.0
H644 H 0.82467 0.82571 0.74602 0.0
H645 H 0.88877 0.88878 0.74037 0.0
H646 H 0.85995 0.95083 0.75441 0.0
H647 H 0.8254 0.98752 0.78869 0.0
C648 C 0.79324 0.10798 0.32771 0.0
C649 C 0.76081 0.12804 0.33767 0.0
C650 C 0.81076 0.1184 0.30301 0.0
C651 C 0.79617 0.14914 0.28778 0.0
C652 C 0.76296 0.16816 0.29728 0.0
C653 C 0.74563 0.15795 0.32195 0.0
C654 C 0.81455 0.16243 0.26198 0.0
C655 C 0.85298 0.15809 0.25606 0.0
C656 C 0.87229 0.17457 0.23146 0.0
C657 C 0.91335 0.18078 0.23168 0.0
C658 C 0.9328 0.1965 0.20919 0.0
C659 C 0.91165 0.20624 0.18575 0.0
H660 H 0.8196 0.17841 0.20647 0.0
C661 C 0.87054 0.19964 0.18538 0.0
C662 C 0.85108 0.18384 0.2079 0.0
H663 H 0.85333 0.20626 0.16757 0.0
H664 H 0.80551 0.08463 0.33917 0.0
H665 H 0.83555 0.10221 0.29594 0.0
H666 H 0.75083 0.19165 0.28586 0.0
H667 H 0.72048 0.17389 0.32879 0.0
H668 H 0.79634 0.17919 0.24858 0.0
H669 H 0.87192 0.14433 0.2707 0.0
H670 H 0.93051 0.17369 0.24944 0.0
H671 H 0.96452 0.20086 0.21022 0.0
loop_
_geom_bond_atom_site_label_1
_geom_bond_atom_site_label_2
_geom_bond_distance
_geom_bond_site_symmetry_2
_ccdc_geom_bond_type
Mn0 O5 2.095 . S
Mn0 O15 2.162 . S
Mn0 O16 2.297 . S
Mn0 O24 2.385 . S
Mn0 O25 2.209 . S
Mn0 O26 2.094 . S
Mn1 O6 2.121 . S
Mn1 N8 2.257 1_455 S
Mn1 N17 2.282 1_455 S
Mn1 O25 2.215 . S
Mn1 O27 2.117 . S
C2 O24 1.234 . S
C2 O25 1.283 . S
C3 O15 1.281 . S
C3 O16 1.236 . S
C4 O26 1.240 . S
C4 O27 1.264 . S
O5 Mn0 2.095 . S
O5 C14 1.250 . S
O6 Mn1 2.121 . S
O6 C14 1.258 . S
C7 N8 1.326 . S
C7 C11 1.460 . S
C7 H13 0.929 1_655 S
N8 Mn1 2.257 1_655 S
N8 C7 1.326 . S
N8 C12 1.362 . S
C9 C10 1.258 . S
C9 C12 1.431 . S
C9 C29 1.449 . S
C10 C9 1.258 . S
C10 C11 1.477 . S
C10 H30 0.931 . S
C11 C7 1.460 . S
C11 C10 1.477 . S
C11 H31 0.930 . S
C12 N8 1.362 . S
C12 C9 1.431 . S
C12 C22 1.476 . S
H13 C7 0.929 1_455 S
C14 O5 1.250 . S
C14 O6 1.258 . S
O15 Mn0 2.162 . S
O15 C3 1.281 . S
O16 Mn0 2.297 . S
O16 C3 1.236 . S
N17 Mn1 2.282 1_655 S
N17 C18 1.328 . S
N17 C22 1.318 . S
C18 N17 1.328 . S
C18 C19 1.457 . S
C18 H23 0.929 . S
C19 C18 1.457 . S
C19 C20 1.291 . S
C19 H32 0.931 . S
C20 C19 1.291 . S
C20 C21 1.373 . S
C20 H33 0.929 . S
C21 C20 1.373 . S
C21 C22 1.396 . S
C21 C28 1.403 . S
C22 C12 1.476 . S
C22 N17 1.318 . S
C22 C21 1.396 . S
H23 C18 0.929 . S
O24 Mn0 2.385 . S
O24 C2 1.234 . S
O25 Mn0 2.209 . S
O25 Mn1 2.215 . S
O25 C2 1.283 . S
O26 Mn0 2.094 . S
O26 C4 1.240 . S
O27 Mn1 2.117 . S
O27 C4 1.264 . S
C28 C21 1.403 . S
C28 C29 1.399 . S
C28 H34 0.929 . S
C29 C9 1.449 . S
C29 C28 1.399 . S
C29 H35 0.930 . S
H30 C10 0.931 . S
H31 C11 0.930 . S
H32 C19 0.931 . S
H33 C20 0.929 . S
H34 C28 0.929 . S
H35 C29 0.930 . S
Mn36 O41 2.095 . S
Mn36 O51 2.162 . S
Mn36 O52 2.297 . S
Mn36 O60 2.385 . S
Mn36 O61 2.209 . S
Mn36 O62 2.094 . S
Mn37 O42 2.121 . S
Mn37 N44 2.257 . S
Mn37 N53 2.282 . S
Mn37 O61 2.215 . S
Mn37 O63 2.117 . S
C38 O60 1.234 . S
C38 O61 1.283 . S
C39 O51 1.281 . S
C39 O52 1.236 . S
C40 O62 1.240 . S
C40 O63 1.264 . S
O41 Mn36 2.095 . S
O41 C50 1.250 . S
O42 Mn37 2.121 . S
O42 C50 1.258 . S
C43 N44 1.326 . S
C43 C47 1.460 . S
C43 H49 0.929 . S
N44 Mn37 2.257 . S
N44 C43 1.326 . S
N44 C48 1.362 . S
C45 C46 1.258 . S
C45 C48 1.431 . S
C45 C65 1.449 . S
C46 C45 1.258 . S
C46 C47 1.477 . S
C46 H66 0.931 . S
C47 C43 1.460 . S
C47 C46 1.477 . S
C47 H67 0.930 . S
C48 N44 1.362 . S
C48 C45 1.431 . S
C48 C58 1.476 . S
H49 C43 0.929 . S
C50 O41 1.250 . S
C50 O42 1.258 . S
O51 Mn36 2.162 . S
O51 C39 1.281 . S
O52 Mn36 2.297 . S
O52 C39 1.236 . S
N53 Mn37 2.282 . S
N53 C54 1.328 . S
N53 C58 1.318 . S
C54 N53 1.328 . S
C54 C55 1.457 . S
C54 H59 0.929 . S
C55 C54 1.457 . S
C55 C56 1.291 . S
C55 H68 0.931 . S
C56 C55 1.291 . S
C56 C57 1.373 . S
C56 H69 0.929 . S
C57 C56 1.373 . S
C57 C58 1.396 . S
C57 C64 1.403 . S
C58 C48 1.476 . S
C58 N53 1.318 . S
C58 C57 1.396 . S
H59 C54 0.929 . S
O60 Mn36 2.385 . S
O60 C38 1.234 . S
O61 Mn36 2.209 . S
O61 Mn37 2.215 . S
O61 C38 1.283 . S
O62 Mn36 2.094 . S
O62 C40 1.240 . S
O63 Mn37 2.117 . S
O63 C40 1.264 . S
C64 C57 1.403 . S
C64 C65 1.399 . S
C64 H70 0.929 . S
C65 C45 1.449 . S
C65 C64 1.399 . S
C65 H71 0.930 . S
H66 C46 0.931 . S
H67 C47 0.930 . S
H68 C55 0.931 . S
H69 C56 0.929 . S
H70 C64 0.929 . S
H71 C65 0.930 . S
Mn72 O77 2.095 . S
Mn72 O87 2.162 . S
Mn72 O88 2.297 . S
Mn72 O96 2.385 . S
Mn72 O97 2.209 . S
Mn72 O98 2.094 . S
Mn73 O78 2.121 . S
Mn73 N80 2.257 1_655 S
Mn73 N89 2.282 1_655 S
Mn73 O97 2.215 . S
Mn73 O99 2.117 . S
C74 O96 1.234 . S
C74 O97 1.283 . S
C75 O87 1.281 . S
C75 O88 1.236 . S
C76 O98 1.240 . S
C76 O99 1.264 . S
O77 Mn72 2.095 . S
O77 C86 1.250 . S
O78 Mn73 2.121 . S
O78 C86 1.258 . S
C79 N80 1.326 . S
C79 C83 1.460 . S
C79 H85 0.929 1_455 S
N80 Mn73 2.257 1_455 S
N80 C79 1.326 . S
N80 C84 1.362 . S
C81 C82 1.258 . S
C81 C84 1.431 . S
C81 C101 1.449 . S
C82 C81 1.258 . S
C82 C83 1.477 . S
C82 H102 0.931 . S
C83 C79 1.460 . S
C83 C82 1.477 . S
C83 H103 0.930 . S
C84 N80 1.362 . S
C84 C81 1.431 . S
C84 C94 1.476 . S
H85 C79 0.929 1_655 S
C86 O77 1.250 . S
C86 O78 1.258 . S
O87 Mn72 2.162 . S
O87 C75 1.281 . S
O88 Mn72 2.297 . S
O88 C75 1.236 . S
N89 Mn73 2.282 1_455 S
N89 C90 1.328 . S
N89 C94 1.318 . S
C90 N89 1.328 . S
C90 C91 1.457 . S
C90 H95 0.929 . S
C91 C90 1.457 . S
C91 C92 1.291 . S
C91 H104 0.931 . S
C92 C91 1.291 . S
C92 C93 1.373 . S
C92 H105 0.929 . S
C93 C92 1.373 . S
C93 C94 1.396 . S
C93 C100 1.403 . S
C94 C84 1.476 . S
C94 N89 1.318 . S
C94 C93 1.396 . S
H95 C90 0.929 . S
O96 Mn72 2.385 . S
O96 C74 1.234 . S
O97 Mn72 2.209 . S
O97 Mn73 2.215 . S
O97 C74 1.283 . S
O98 Mn72 2.094 . S
O98 C76 1.240 . S
O99 Mn73 2.117 . S
O99 C76 1.264 . S
C100 C93 1.403 . S
C100 C101 1.399 . S
C100 H106 0.929 . S
C101 C81 1.449 . S
C101 C100 1.399 . S
C101 H107 0.930 . S
H102 C82 0.931 . S
H103 C83 0.930 . S
H104 C91 0.931 . S
H105 C92 0.929 . S
H106 C100 0.929 . S
H107 C101 0.930 . S
Mn108 O113 2.095 . S
Mn108 O123 2.162 . S
Mn108 O124 2.297 . S
Mn108 O132 2.385 . S
Mn108 O133 2.209 . S
Mn108 O134 2.094 . S
Mn109 O114 2.121 . S
Mn109 N116 2.257 . S
Mn109 N125 2.282 . S
Mn109 O133 2.215 . S
Mn109 O135 2.117 . S
C110 O132 1.234 . S
C110 O133 1.283 . S
C111 O123 1.281 . S
C111 O124 1.236 . S
C112 O134 1.240 . S
C112 O135 1.264 . S
O113 Mn108 2.095 . S
O113 C122 1.250 . S
O114 Mn109 2.121 . S
O114 C122 1.258 . S
C115 N116 1.326 . S
C115 C119 1.460 . S
C115 H121 0.929 . S
N116 Mn109 2.257 . S
N116 C115 1.326 . S
N116 C120 1.362 . S
C117 C118 1.258 . S
C117 C120 1.431 . S
C117 C137 1.449 . S
C118 C117 1.258 . S
C118 C119 1.477 . S
C118 H138 0.931 . S
C119 C115 1.460 . S
C119 C118 1.477 . S
C119 H139 0.930 . S
C120 N116 1.362 . S
C120 C117 1.431 . S
C120 C130 1.476 . S
H121 C115 0.929 . S
C122 O113 1.250 . S
C122 O114 1.258 . S
O123 Mn108 2.162 . S
O123 C111 1.281 . S
O124 Mn108 2.297 . S
O124 C111 1.236 . S
N125 Mn109 2.282 . S
N125 C126 1.328 . S
N125 C130 1.318 . S
C126 N125 1.328 . S
C126 C127 1.457 . S
C126 H131 0.929 . S
C127 C126 1.457 . S
C127 C128 1.291 . S
C127 H140 0.931 . S
C128 C127 1.291 . S
C128 C129 1.373 . S
C128 H141 0.929 . S
C129 C128 1.373 . S
C129 C130 1.396 . S
C129 C136 1.403 . S
C130 C120 1.476 . S
C130 N125 1.318 . S
C130 C129 1.396 . S
H131 C126 0.929 . S
O132 Mn108 2.385 . S
O132 C110 1.234 . S
O133 Mn108 2.209 . S
O133 Mn109 2.215 . S
O133 C110 1.283 . S
O134 Mn108 2.094 . S
O134 C112 1.240 . S
O135 Mn109 2.117 . S
O135 C112 1.264 . S
C136 C129 1.403 . S
C136 C137 1.399 . S
C136 H142 0.929 . S
C137 C117 1.449 . S
C137 C136 1.399 . S
C137 H143 0.930 . S
H138 C118 0.931 . S
H139 C119 0.930 . S
H140 C127 0.931 . S
H141 C128 0.929 . S
H142 C136 0.929 . S
H143 C137 0.930 . S
Mn144 O149 2.095 . S
Mn144 O159 2.162 . S
Mn144 O160 2.297 . S
Mn144 O168 2.385 . S
Mn144 O169 2.209 . S
Mn144 O170 2.094 . S
Mn145 O150 2.121 . S
Mn145 N152 2.257 1_655 S
Mn145 N161 2.282 1_655 S
Mn145 O169 2.215 . S
Mn145 O171 2.117 . S
C146 O168 1.234 . S
C146 O169 1.283 . S
C147 O159 1.281 . S
C147 O160 1.236 . S
C148 O170 1.240 . S
C148 O171 1.264 . S
O149 Mn144 2.095 . S
O149 C158 1.250 . S
O150 Mn145 2.121 . S
O150 C158 1.258 . S
C151 N152 1.326 . S
C151 C155 1.460 . S
C151 H157 0.929 1_455 S
N152 Mn145 2.257 1_455 S
N152 C151 1.326 . S
N152 C156 1.362 . S
C153 C154 1.258 . S
C153 C156 1.431 . S
C153 C173 1.449 . S
C154 C153 1.258 . S
C154 C155 1.477 . S
C154 H174 0.931 . S
C155 C151 1.460 . S
C155 C154 1.477 . S
C155 H175 0.930 . S
C156 N152 1.362 . S
C156 C153 1.431 . S
C156 C166 1.476 . S
H157 C151 0.929 1_655 S
C158 O149 1.250 . S
C158 O150 1.258 . S
O159 Mn144 2.162 . S
O159 C147 1.281 . S
O160 Mn144 2.297 . S
O160 C147 1.236 . S
N161 Mn145 2.282 1_455 S
N161 C162 1.328 . S
N161 C166 1.318 . S
C162 N161 1.328 . S
C162 C163 1.457 . S
C162 H167 0.929 . S
C163 C162 1.457 . S
C163 C164 1.291 . S
C163 H176 0.931 . S
C164 C163 1.291 . S
C164 C165 1.373 . S
C164 H177 0.929 . S
C165 C164 1.373 . S
C165 C166 1.396 . S
C165 C172 1.403 . S
C166 C156 1.476 . S
C166 N161 1.318 . S
C166 C165 1.396 . S
H167 C162 0.929 . S
O168 Mn144 2.385 . S
O168 C146 1.234 . S
O169 Mn144 2.209 . S
O169 Mn145 2.215 . S
O169 C146 1.283 . S
O170 Mn144 2.094 . S
O170 C148 1.240 . S
O171 Mn145 2.117 . S
O171 C148 1.264 . S
C172 C165 1.403 . S
C172 C173 1.399 . S
C172 H178 0.929 . S
C173 C153 1.449 . S
C173 C172 1.399 . S
C173 H179 0.930 . S
H174 C154 0.931 . S
H175 C155 0.930 . S
H176 C163 0.931 . S
H177 C164 0.929 . S
H178 C172 0.929 . S
H179 C173 0.930 . S
Mn180 O185 2.095 . S
Mn180 O195 2.162 . S
Mn180 O196 2.297 . S
Mn180 O204 2.385 . S
Mn180 O205 2.209 . S
Mn180 O206 2.094 . S
Mn181 O186 2.121 . S
Mn181 N188 2.257 1_545 S
Mn181 N197 2.282 1_545 S
Mn181 O205 2.215 . S
Mn181 O207 2.117 . S
C182 O204 1.234 . S
C182 O205 1.283 . S
C183 O195 1.281 . S
C183 O196 1.236 . S
C184 O206 1.240 . S
C184 O207 1.264 . S
O185 Mn180 2.095 . S
O185 C194 1.250 . S
O186 Mn181 2.121 . S
O186 C194 1.258 . S
C187 N188 1.326 . S
C187 C191 1.460 . S
C187 H193 0.929 1_565 S
N188 Mn181 2.257 1_565 S
N188 C187 1.326 . S
N188 C192 1.362 . S
C189 C190 1.258 . S
C189 C192 1.431 . S
C189 C209 1.449 . S
C190 C189 1.258 . S
C190 C191 1.477 . S
C190 H210 0.931 . S
C191 C187 1.460 . S
C191 C190 1.477 . S
C191 H211 0.930 . S
C192 N188 1.362 . S
C192 C189 1.431 . S
C192 C202 1.476 . S
H193 C187 0.929 1_545 S
C194 O185 1.250 . S
C194 O186 1.258 . S
O195 Mn180 2.162 . S
O195 C183 1.281 . S
O196 Mn180 2.297 . S
O196 C183 1.236 . S
N197 Mn181 2.282 1_565 S
N197 C198 1.328 . S
N197 C202 1.318 . S
C198 N197 1.328 . S
C198 C199 1.457 . S
C198 H203 0.929 . S
C199 C198 1.457 . S
C199 C200 1.291 . S
C199 H212 0.931 . S
C200 C199 1.291 . S
C200 C201 1.373 . S
C200 H213 0.929 . S
C201 C200 1.373 . S
C201 C202 1.396 . S
C201 C208 1.403 . S
C202 C192 1.476 . S
C202 N197 1.318 . S
C202 C201 1.396 . S
H203 C198 0.929 . S
O204 Mn180 2.385 . S
O204 C182 1.234 . S
O205 Mn180 2.209 . S
O205 Mn181 2.215 . S
O205 C182 1.283 . S
O206 Mn180 2.094 . S
O206 C184 1.240 . S
O207 Mn181 2.117 . S
O207 C184 1.264 . S
C208 C201 1.403 . S
C208 C209 1.399 . S
C208 H214 0.929 . S
C209 C189 1.449 . S
C209 C208 1.399 . S
C209 H215 0.930 . S
H210 C190 0.931 . S
H211 C191 0.930 . S
H212 C199 0.931 . S
H213 C200 0.929 . S
H214 C208 0.929 . S
H215 C209 0.930 . S
Mn216 O221 2.095 . S
Mn216 O231 2.162 . S
Mn216 O232 2.297 . S
Mn216 O240 2.385 . S
Mn216 O241 2.209 . S
Mn216 O242 2.094 . S
Mn217 O222 2.121 . S
Mn217 N224 2.257 1_455 S
Mn217 N233 2.282 1_455 S
Mn217 O241 2.215 . S
Mn217 O243 2.117 . S
C218 O240 1.234 . S
C218 O241 1.283 . S
C219 O231 1.281 . S
C219 O232 1.236 . S
C220 O242 1.240 . S
C220 O243 1.264 . S
O221 Mn216 2.095 . S
O221 C230 1.250 . S
O222 Mn217 2.121 . S
O222 C230 1.258 . S
C223 N224 1.326 . S
C223 C227 1.460 . S
C223 H229 0.929 1_655 S
N224 Mn217 2.257 1_655 S
N224 C223 1.326 . S
N224 C228 1.362 . S
C225 C226 1.258 . S
C225 C228 1.431 . S
C225 C245 1.449 . S
C226 C225 1.258 . S
C226 C227 1.477 . S
C226 H246 0.931 . S
C227 C223 1.460 . S
C227 C226 1.477 . S
C227 H247 0.930 . S
C228 N224 1.362 . S
C228 C225 1.431 . S
C228 C238 1.476 . S
H229 C223 0.929 1_455 S
C230 O221 1.250 . S
C230 O222 1.258 . S
O231 Mn216 2.162 . S
O231 C219 1.281 . S
O232 Mn216 2.297 . S
O232 C219 1.236 . S
N233 Mn217 2.282 1_655 S
N233 C234 1.328 . S
N233 C238 1.318 . S
C234 N233 1.328 . S
C234 C235 1.457 . S
C234 H239 0.929 . S
C235 C234 1.457 . S
C235 C236 1.291 . S
C235 H248 0.931 . S
C236 C235 1.291 . S
C236 C237 1.373 . S
C236 H249 0.929 . S
C237 C236 1.373 . S
C237 C238 1.396 . S
C237 C244 1.403 . S
C238 C228 1.476 . S
C238 N233 1.318 . S
C238 C237 1.396 . S
H239 C234 0.929 . S
O240 Mn216 2.385 . S
O240 C218 1.234 . S
O241 Mn216 2.209 . S
O241 Mn217 2.215 . S
O241 C218 1.283 . S
O242 Mn216 2.094 . S
O242 C220 1.240 . S
O243 Mn217 2.117 . S
O243 C220 1.264 . S
C244 C237 1.403 . S
C244 C245 1.399 . S
C244 H250 0.929 . S
C245 C225 1.449 . S
C245 C244 1.399 . S
C245 H251 0.930 . S
H246 C226 0.931 . S
H247 C227 0.930 . S
H248 C235 0.931 . S
H249 C236 0.929 . S
H250 C244 0.929 . S
H251 C245 0.930 . S
Mn252 O257 2.095 . S
Mn252 O267 2.162 . S
Mn252 O268 2.297 . S
Mn252 O276 2.385 . S
Mn252 O277 2.209 . S
Mn252 O278 2.094 . S
Mn253 O258 2.121 . S
Mn253 N260 2.257 1_565 S
Mn253 N269 2.282 1_565 S
Mn253 O277 2.215 . S
Mn253 O279 2.117 . S
C254 O276 1.234 . S
C254 O277 1.283 . S
C255 O267 1.281 . S
C255 O268 1.236 . S
C256 O278 1.240 . S
C256 O279 1.264 . S
O257 Mn252 2.095 . S
O257 C266 1.250 . S
O258 Mn253 2.121 . S
O258 C266 1.258 . S
C259 N260 1.326 . S
C259 C263 1.460 . S
C259 H265 0.929 1_545 S
N260 Mn253 2.257 1_545 S
N260 C259 1.326 . S
N260 C264 1.362 . S
C261 C262 1.258 . S
C261 C264 1.431 . S
C261 C281 1.449 . S
C262 C261 1.258 . S
C262 C263 1.477 . S
C262 H282 0.931 . S
C263 C259 1.460 . S
C263 C262 1.477 . S
C263 H283 0.930 . S
C264 N260 1.362 . S
C264 C261 1.431 . S
C264 C274 1.476 . S
H265 C259 0.929 1_565 S
C266 O257 1.250 . S
C266 O258 1.258 . S
O267 Mn252 2.162 . S
O267 C255 1.281 . S
O268 Mn252 2.297 . S
O268 C255 1.236 . S
N269 Mn253 2.282 1_545 S
N269 C270 1.328 . S
N269 C274 1.318 . S
C270 N269 1.328 . S
C270 C271 1.457 . S
C270 H275 0.929 . S
C271 C270 1.457 . S
C271 C272 1.291 . S
C271 H284 0.931 . S
C272 C271 1.291 . S
C272 C273 1.373 . S
C272 H285 0.929 . S
C273 C272 1.373 . S
C273 C274 1.396 . S
C273 C280 1.403 . S
C274 C264 1.476 . S
C274 N269 1.318 . S
C274 C273 1.396 . S
H275 C270 0.929 . S
O276 Mn252 2.385 . S
O276 C254 1.234 . S
O277 Mn252 2.209 . S
O277 Mn253 2.215 . S
O277 C254 1.283 . S
O278 Mn252 2.094 . S
O278 C256 1.240 . S
O279 Mn253 2.117 . S
O279 C256 1.264 . S
C280 C273 1.403 . S
C280 C281 1.399 . S
C280 H286 0.929 . S
C281 C261 1.449 . S
C281 C280 1.399 . S
C281 H287 0.930 . S
H282 C262 0.931 . S
H283 C263 0.930 . S
H284 C271 0.931 . S
H285 C272 0.929 . S
H286 C280 0.929 . S
H287 C281 0.930 . S
C288 C289 1.386 . S
C288 C290 1.383 . S
C288 H304 0.951 . S
C289 C288 1.386 . S
C289 C293 1.383 . S
C290 C288 1.383 . S
C290 C291 1.402 . S
C290 H305 0.951 1_655 S
C291 C290 1.402 . S
C291 C292 1.375 . S
C291 C294 1.481 . S
C292 C291 1.375 . S
C292 C293 1.367 . S
C292 H306 0.951 . S
C293 C289 1.383 . S
C293 C292 1.367 . S
C293 H307 0.950 . S
C294 C291 1.481 . S
C294 C295 1.297 1_655 S
C294 H308 0.950 . S
C295 C294 1.297 1_455 S
C295 C296 1.479 . S
C295 H309 0.950 . S
C296 C295 1.479 . S
C296 C297 1.375 . S
C296 C302 1.404 . S
C297 C296 1.375 . S
C297 C298 1.369 . S
C297 H310 0.950 . S
C298 C297 1.369 . S
C298 C299 1.392 . S
C298 H311 0.951 . S
C299 C298 1.392 . S
C299 C301 1.384 . S
H300 C302 0.949 1_655 S
C301 C299 1.384 . S
C301 C302 1.385 . S
C301 H303 0.950 . S
C302 C296 1.404 . S
C302 H300 0.949 1_455 S
C302 C301 1.385 . S
H303 C301 0.950 . S
H304 C288 0.951 . S
H305 C290 0.951 1_455 S
H306 C292 0.951 . S
H307 C293 0.950 . S
H308 C294 0.950 . S
H309 C295 0.950 . S
H310 C297 0.950 . S
H311 C298 0.951 . S
C312 C313 1.386 . S
C312 C314 1.383 . S
C312 H328 0.951 . S
C313 C312 1.386 . S
C313 C317 1.383 . S
C314 C312 1.383 . S
C314 C315 1.402 . S
C314 H329 0.951 . S
C315 C314 1.402 . S
C315 C316 1.375 . S
C315 C318 1.481 1_545 S
C316 C315 1.375 . S
C316 C317 1.367 . S
C316 H330 0.951 1_545 S
C317 C313 1.383 . S
C317 C316 1.367 . S
C317 H331 0.950 . S
C318 C315 1.481 1_565 S
C318 C319 1.297 . S
C318 H332 0.950 . S
C319 C318 1.297 . S
C319 C320 1.479 . S
C319 H333 0.950 1_565 S
C320 C319 1.479 . S
C320 C321 1.375 . S
C320 C326 1.404 . S
C321 C320 1.375 . S
C321 C322 1.369 . S
C321 H334 0.950 . S
C322 C321 1.369 . S
C322 C323 1.392 . S
C322 H335 0.951 . S
C323 C322 1.392 . S
C323 C325 1.384 . S
H324 C326 0.949 . S
C325 C323 1.384 . S
C325 C326 1.385 . S
C325 H327 0.950 . S
C326 C320 1.404 . S
C326 H324 0.949 . S
C326 C325 1.385 . S
H327 C325 0.950 . S
H328 C312 0.951 . S
H329 C314 0.951 . S
H330 C316 0.951 1_565 S
H331 C317 0.950 . S
H332 C318 0.950 . S
H333 C319 0.950 1_545 S
H334 C321 0.950 . S
H335 C322 0.951 . S
C336 C337 1.386 . S
C336 C338 1.383 . S
C336 H352 0.951 . S
C337 C336 1.386 . S
C337 C341 1.383 . S
C338 C336 1.383 . S
C338 C339 1.402 . S
C338 H353 0.951 . S
C339 C338 1.402 . S
C339 C340 1.375 . S
C339 C342 1.483 1_655 S
C340 C339 1.375 . S
C340 C341 1.367 . S
C340 H354 0.951 1_655 S
C341 C337 1.383 . S
C341 C340 1.367 . S
C341 H355 0.950 . S
C342 C339 1.483 1_455 S
C342 C343 1.298 1_455 S
C342 H356 0.947 . S
C343 C342 1.298 1_655 S
C343 C344 1.479 1_655 S
C343 H357 0.950 . S
C344 C343 1.479 1_455 S
C344 C345 1.375 . S
C344 C350 1.404 . S
C345 C344 1.375 . S
C345 C346 1.369 . S
C345 H358 0.950 1_455 S
C346 C345 1.369 . S
C346 C347 1.392 . S
C346 H359 0.951 . S
C347 C346 1.392 . S
C347 C349 1.384 . S
H348 C350 0.949 . S
C349 C347 1.384 . S
C349 C350 1.385 . S
C349 H351 0.950 . S
C350 C344 1.404 . S
C350 H348 0.949 . S
C350 C349 1.385 . S
H351 C349 0.950 . S
H352 C336 0.951 . S
H353 C338 0.951 . S
H354 C340 0.951 1_455 S
H355 C341 0.950 . S
H356 C342 0.947 . S
H357 C343 0.950 . S
H358 C345 0.950 1_655 S
H359 C346 0.951 . S
C360 C361 1.386 . S
C360 C362 1.383 . S
C360 H376 0.951 . S
C361 C360 1.386 . S
C361 C365 1.383 . S
C362 C360 1.383 . S
C362 C363 1.402 . S
C362 H377 0.951 . S
C363 C362 1.402 . S
C363 C364 1.375 . S
C363 C366 1.481 1_545 S
C364 C363 1.375 . S
C364 C365 1.367 . S
C364 H378 0.951 1_545 S
C365 C361 1.383 . S
C365 C364 1.367 . S
C365 H379 0.950 . S
C366 C363 1.481 1_565 S
C366 C367 1.297 1_565 S
C366 H380 0.950 . S
C367 C366 1.297 1_545 S
C367 C368 1.479 1_545 S
C367 H381 0.950 . S
C368 C367 1.479 1_565 S
C368 C369 1.375 . S
C368 C374 1.404 . S
C369 C368 1.375 . S
C369 C370 1.369 . S
C369 H382 0.950 1_565 S
C370 C369 1.369 . S
C370 C371 1.392 . S
C370 H383 0.951 . S
C371 C370 1.392 . S
C371 C373 1.384 . S
H372 C374 0.949 . S
C373 C371 1.384 . S
C373 C374 1.385 . S
C373 H375 0.950 . S
C374 C368 1.404 . S
C374 H372 0.949 . S
C374 C373 1.385 . S
H375 C373 0.950 . S
H376 C360 0.951 . S
H377 C362 0.951 . S
H378 C364 0.951 1_565 S
H379 C365 0.950 . S
H380 C366 0.950 . S
H381 C367 0.950 . S
H382 C369 0.950 1_545 S
H383 C370 0.951 . S
C384 C385 1.386 1_545 S
C384 C386 1.383 . S
C384 H400 0.951 . S
C385 C384 1.386 1_565 S
C385 C389 1.385 . S
C386 C384 1.383 . S
C386 C387 1.402 . S
C386 H401 0.951 . S
C387 C386 1.402 . S
C387 C388 1.375 . S
C387 C390 1.481 . S
C388 C387 1.375 . S
C388 C389 1.347 1_545 S
C388 H402 0.951 . S
C389 C385 1.385 . S
C389 C388 1.347 1_565 S
C389 H403 0.968 . S
C390 C387 1.481 . S
C390 C391 1.297 . S
C390 H404 0.950 . S
C391 C390 1.297 . S
C391 C392 1.479 . S
C391 H405 0.950 . S
C392 C391 1.479 . S
C392 C393 1.375 . S
C392 C398 1.404 . S
C393 C392 1.375 . S
C393 C394 1.369 . S
C393 H406 0.950 . S
C394 C393 1.369 . S
C394 C395 1.392 . S
C394 H407 0.951 . S
C395 C394 1.392 . S
C395 C397 1.384 . S
H396 C398 0.949 . S
C397 C395 1.384 . S
C397 C398 1.385 . S
C397 H399 0.950 . S
C398 C392 1.404 . S
C398 H396 0.949 . S
C398 C397 1.385 . S
H399 C397 0.950 . S
H400 C384 0.951 . S
H401 C386 0.951 . S
H402 C388 0.951 . S
H403 C389 0.968 . S
H404 C390 0.950 . S
H405 C391 0.950 . S
H406 C393 0.950 . S
H407 C394 0.951 . S
C408 C409 1.386 . S
C408 C410 1.383 . S
C408 H424 0.951 . S
C409 C408 1.386 . S
C409 C413 1.383 . S
C410 C408 1.383 . S
C410 C411 1.402 . S
C410 H425 0.951 . S
C411 C410 1.402 . S
C411 C412 1.375 . S
C411 C414 1.481 . S
C412 C411 1.375 . S
C412 C413 1.367 . S
C412 H426 0.951 . S
C413 C409 1.383 . S
C413 C412 1.367 . S
C413 H427 0.950 . S
C414 C411 1.481 . S
C414 C415 1.297 . S
C414 H428 0.950 . S
C415 C414 1.297 . S
C415 C416 1.479 . S
C415 H429 0.950 . S
C416 C415 1.479 . S
C416 C417 1.375 . S
C416 C422 1.404 . S
C417 C416 1.375 . S
C417 C418 1.348 1_455 S
C417 H430 0.950 . S
C418 C417 1.348 1_655 S
C418 C419 1.391 1_655 S
C418 H431 0.974 . S
C419 C418 1.391 1_455 S
C419 C421 1.384 . S
H420 C422 0.949 . S
C421 C419 1.384 . S
C421 C422 1.385 . S
C421 H423 0.950 . S
C422 C416 1.404 . S
C422 H420 0.949 . S
C422 C421 1.385 . S
H423 C421 0.950 . S
H424 C408 0.951 . S
H425 C410 0.951 . S
H426 C412 0.951 . S
H427 C413 0.950 . S
H428 C414 0.950 . S
H429 C415 0.950 . S
H430 C417 0.950 . S
H431 C418 0.974 . S
C432 C433 1.386 1_565 S
C432 C434 1.383 . S
C432 H448 0.951 . S
C433 C432 1.386 1_545 S
C433 C437 1.383 . S
C434 C432 1.383 . S
C434 C435 1.402 . S
C434 H449 0.951 . S
C435 C434 1.402 . S
C435 C436 1.375 . S
C435 C438 1.481 . S
C436 C435 1.375 . S
C436 C437 1.367 1_565 S
C436 H450 0.951 . S
C437 C433 1.383 . S
C437 C436 1.367 1_545 S
C437 H451 0.950 . S
C438 C435 1.481 . S
C438 C439 1.297 . S
C438 H452 0.950 . S
C439 C438 1.297 . S
C439 C440 1.479 . S
C439 H453 0.950 . S
C440 C439 1.479 . S
C440 C441 1.375 . S
C440 C446 1.404 . S
C441 C440 1.375 . S
C441 C442 1.369 . S
C441 H454 0.950 . S
C442 C441 1.369 . S
C442 C443 1.392 . S
C442 H455 0.951 . S
C443 C442 1.392 . S
C443 C445 1.384 . S
H444 C446 0.949 . S
C445 C443 1.384 . S
C445 C446 1.385 . S
C445 H447 0.950 . S
C446 C440 1.404 . S
C446 H444 0.949 . S
C446 C445 1.385 . S
H447 C445 0.950 . S
H448 C432 0.951 . S
H449 C434 0.951 . S
H450 C436 0.951 . S
H451 C437 0.950 . S
H452 C438 0.950 . S
H453 C439 0.950 . S
H454 C441 0.950 . S
H455 C442 0.951 . S
C456 C457 1.386 . S
C456 C458 1.383 . S
C456 H472 0.951 . S
C457 C456 1.386 . S
C457 C461 1.383 . S
C458 C456 1.383 . S
C458 C459 1.402 . S
C458 H473 0.951 . S
C459 C458 1.402 . S
C459 C460 1.375 . S
C459 C462 1.481 . S
C460 C459 1.375 . S
C460 C461 1.367 . S
C460 H474 0.951 . S
C461 C457 1.383 . S
C461 C460 1.367 . S
C461 H475 0.950 . S
C462 C459 1.481 . S
C462 C463 1.297 . S
C462 H476 0.950 . S
C463 C462 1.297 . S
C463 C464 1.479 . S
C463 H477 0.950 . S
C464 C463 1.479 . S
C464 C465 1.375 . S
C464 C470 1.404 . S
C465 C464 1.375 . S
C465 C466 1.369 . S
C465 H478 0.950 . S
C466 C465 1.369 . S
C466 C467 1.392 . S
C466 H479 0.951 . S
C467 C466 1.392 . S
C467 C469 1.384 . S
H468 C470 0.949 . S
C469 C467 1.384 . S
C469 C470 1.385 . S
C469 H471 0.950 1_655 S
C470 C464 1.404 . S
C470 H468 0.949 . S
C470 C469 1.385 . S
H471 C469 0.950 1_455 S
H472 C456 0.951 . S
H473 C458 0.951 . S
H474 C460 0.951 . S
H475 C461 0.950 . S
H476 C462 0.950 . S
H477 C463 0.950 . S
H478 C465 0.950 . S
H479 C466 0.951 . S
C480 C481 1.386 . S
C480 C482 1.383 1_565 S
C480 H496 0.951 . S
C481 C480 1.386 . S
C481 C485 1.383 1_565 S
C482 C480 1.383 1_545 S
C482 C483 1.402 . S
C482 H497 0.951 . S
C483 C482 1.402 . S
C483 C484 1.375 . S
C483 C486 1.481 . S
C484 C483 1.375 . S
C484 C485 1.367 . S
C484 H498 0.951 . S
C485 C481 1.383 1_545 S
C485 C484 1.367 . S
C485 H499 0.950 . S
C486 C483 1.481 . S
C486 C487 1.297 1_556 S
C486 H500 0.950 . S
C487 C486 1.297 1_554 S
C487 C488 1.479 . S
C487 H501 0.950 . S
C488 C487 1.479 . S
C488 C489 1.375 . S
C488 C494 1.404 . S
C489 C488 1.375 . S
C489 C490 1.369 . S
C489 H502 0.950 . S
C490 C489 1.369 . S
C490 C491 1.392 . S
C490 H503 0.951 . S
C491 C490 1.392 . S
C491 C493 1.384 . S
H492 C494 0.949 1_556 S
C493 C491 1.384 . S
C493 C494 1.385 . S
C493 H495 0.950 . S
C494 C488 1.404 . S
C494 H492 0.949 1_554 S
C494 C493 1.385 . S
H495 C493 0.950 . S
H496 C480 0.951 . S
H497 C482 0.951 . S
H498 C484 0.951 . S
H499 C485 0.950 . S
H500 C486 0.950 . S
H501 C487 0.950 . S
H502 C489 0.950 . S
H503 C490 0.951 . S
C504 C505 1.386 . S
C504 C506 1.383 . S
C504 H520 0.951 . S
C505 C504 1.386 . S
C505 C509 1.383 . S
C506 C504 1.383 . S
C506 C507 1.402 . S
C506 H521 0.951 . S
C507 C506 1.402 . S
C507 C508 1.375 . S
C507 C510 1.481 . S
C508 C507 1.375 . S
C508 C509 1.367 . S
C508 H522 0.951 . S
C509 C505 1.383 . S
C509 C508 1.367 . S
C509 H523 0.950 . S
C510 C507 1.481 . S
C510 C511 1.297 . S
C510 H524 0.950 1_556 S
C511 C510 1.297 . S
C511 C512 1.479 1_556 S
C511 H525 0.950 . S
C512 C511 1.479 1_554 S
C512 C513 1.375 . S
C512 C518 1.404 . S
C513 C512 1.375 . S
C513 C514 1.369 . S
C513 H526 0.950 . S
C514 C513 1.369 . S
C514 C515 1.392 1_455 S
C514 H527 0.954 . S
C515 C514 1.392 1_655 S
C515 C517 1.384 . S
H516 C518 0.949 . S
C517 C515 1.384 . S
C517 C518 1.385 1_655 S
C517 H519 0.950 . S
C518 C512 1.404 . S
C518 H516 0.949 . S
C518 C517 1.385 1_455 S
H519 C517 0.950 . S
H520 C504 0.951 . S
H521 C506 0.951 . S
H522 C508 0.951 . S
H523 C509 0.950 . S
H524 C510 0.950 1_554 S
H525 C511 0.950 . S
H526 C513 0.950 . S
H527 C514 0.954 . S
C528 C529 1.386 . S
C528 C530 1.383 . S
C528 H544 0.951 . S
C529 C528 1.386 . S
C529 C533 1.383 . S
C530 C528 1.383 . S
C530 C531 1.402 . S
C530 H545 0.951 . S
C531 C530 1.402 . S
C531 C532 1.371 1_554 S
C531 C534 1.481 1_554 S
C532 C531 1.371 1_556 S
C532 C533 1.342 1_556 S
C532 H546 0.983 . S
C533 C529 1.383 . S
C533 C532 1.342 1_554 S
C533 H547 0.950 . S
C534 C531 1.481 1_556 S
C534 C535 1.297 . S
C534 H548 0.950 . S
C535 C534 1.297 . S
C535 C536 1.479 . S
C535 H549 0.950 . S
C536 C535 1.479 . S
C536 C537 1.375 . S
C536 C542 1.404 . S
C537 C536 1.375 . S
C537 C538 1.369 1_565 S
C537 H550 0.950 . S
C538 C537 1.369 1_545 S
C538 C539 1.392 . S
C538 H551 0.951 . S
C539 C538 1.392 . S
C539 C541 1.384 1_545 S
H540 C542 0.949 . S
C541 C539 1.384 1_565 S
C541 C542 1.385 . S
C541 H543 0.950 . S
C542 C536 1.404 . S
C542 H540 0.949 . S
C542 C541 1.385 . S
H543 C541 0.950 . S
H544 C528 0.951 . S
H545 C530 0.951 . S
H546 C532 0.983 . S
H547 C533 0.950 . S
H548 C534 0.950 . S
H549 C535 0.950 . S
H550 C537 0.950 . S
H551 C538 0.951 . S
C552 C553 1.386 . S
C552 C554 1.383 . S
C552 H568 0.951 . S
C553 C552 1.386 . S
C553 C557 1.383 . S
C554 C552 1.383 . S
C554 C555 1.402 . S
C554 H569 0.951 . S
C555 C554 1.402 . S
C555 C556 1.375 . S
C555 C558 1.481 1_556 S
C556 C555 1.375 . S
C556 C557 1.367 . S
C556 H570 0.951 1_556 S
C557 C553 1.383 . S
C557 C556 1.367 . S
C557 H571 0.950 . S
C558 C555 1.481 1_554 S
C558 C559 1.297 . S
C558 H572 0.950 . S
C559 C558 1.297 . S
C559 C560 1.479 . S
C559 H573 0.951 1_554 S
C560 C559 1.479 . S
C560 C561 1.375 . S
C560 C566 1.404 . S
C561 C560 1.375 . S
C561 C562 1.369 1_655 S
C561 H574 0.950 . S
C562 C561 1.369 1_455 S
C562 C563 1.392 . S
C562 H575 0.951 . S
C563 C562 1.392 . S
C563 C565 1.384 1_455 S
H564 C566 0.949 . S
C565 C563 1.384 1_655 S
C565 C566 1.385 . S
C565 H567 0.950 . S
C566 C560 1.404 . S
C566 H564 0.949 . S
C566 C565 1.385 . S
H567 C565 0.950 . S
H568 C552 0.951 . S
H569 C554 0.951 . S
H570 C556 0.951 1_554 S
H571 C557 0.950 . S
H572 C558 0.950 . S
H573 C559 0.951 1_556 S
H574 C561 0.950 . S
H575 C562 0.951 . S
C576 C577 1.386 . S
C576 C578 1.383 . S
C576 H592 0.951 . S
C577 C576 1.386 . S
C577 C581 1.383 . S
C578 C576 1.383 . S
C578 C579 1.402 . S
C578 H593 0.951 . S
C579 C578 1.402 . S
C579 C580 1.375 . S
C579 C582 1.481 . S
C580 C579 1.375 . S
C580 C581 1.367 . S
C580 H594 0.951 . S
C581 C577 1.383 . S
C581 C580 1.367 . S
C581 H595 0.950 . S
C582 C579 1.481 . S
C582 C583 1.297 . S
C582 H596 0.950 . S
C583 C582 1.297 . S
C583 C584 1.479 . S
C583 H597 0.950 . S
C584 C583 1.479 . S
C584 C585 1.375 . S
C584 C590 1.404 . S
C585 C584 1.375 . S
C585 C586 1.369 . S
C585 H598 0.950 . S
C586 C585 1.369 . S
C586 C587 1.392 . S
C586 H599 0.951 . S
C587 C586 1.392 . S
C587 C589 1.384 . S
H588 C590 0.949 . S
C589 C587 1.384 . S
C589 C590 1.385 . S
C589 H591 0.950 . S
C590 C584 1.404 . S
C590 H588 0.949 . S
C590 C589 1.385 . S
H591 C589 0.950 . S
H592 C576 0.951 . S
H593 C578 0.951 . S
H594 C580 0.951 . S
H595 C581 0.950 . S
H596 C582 0.950 . S
H597 C583 0.950 . S
H598 C585 0.950 . S
H599 C586 0.951 . S
C600 C601 1.386 . S
C600 C602 1.383 . S
C600 H616 0.951 . S
C601 C600 1.386 . S
C601 C605 1.383 . S
C602 C600 1.383 . S
C602 C603 1.402 . S
C602 H617 0.951 . S
C603 C602 1.402 . S
C603 C604 1.375 . S
C603 C606 1.481 . S
C604 C603 1.375 . S
C604 C605 1.367 . S
C604 H618 0.951 . S
C605 C601 1.383 . S
C605 C604 1.367 . S
C605 H619 0.950 . S
C606 C603 1.481 . S
C606 C607 1.297 . S
C606 H620 0.950 . S
C607 C606 1.297 . S
C607 C608 1.479 . S
C607 H621 0.950 . S
C608 C607 1.479 . S
C608 C609 1.375 . S
C608 C614 1.404 . S
C609 C608 1.375 . S
C609 C610 1.369 . S
C609 H622 0.950 . S
C610 C609 1.369 . S
C610 C611 1.392 . S
C610 H623 0.951 . S
C611 C610 1.392 . S
C611 C613 1.384 . S
H612 C614 0.949 . S
C613 C611 1.384 . S
C613 C614 1.385 . S
C613 H615 0.950 . S
C614 C608 1.404 . S
C614 H612 0.949 . S
C614 C613 1.385 . S
H615 C613 0.950 . S
H616 C600 0.951 . S
H617 C602 0.951 . S
H618 C604 0.951 . S
H619 C605 0.950 . S
H620 C606 0.950 . S
H621 C607 0.950 . S
H622 C609 0.950 . S
H623 C610 0.951 . S
C624 C625 1.386 . S
C624 C626 1.383 . S
C624 H640 0.951 . S
C625 C624 1.386 . S
C625 C629 1.383 . S
C626 C624 1.383 . S
C626 C627 1.402 . S
C626 H641 0.951 . S
C627 C626 1.402 . S
C627 C628 1.375 . S
C627 C630 1.481 . S
C628 C627 1.375 . S
C628 C629 1.367 . S
C628 H642 0.951 . S
C629 C625 1.383 . S
C629 C628 1.367 . S
C629 H643 0.950 . S
C630 C627 1.481 . S
C630 C631 1.297 . S
C630 H644 0.950 . S
C631 C630 1.297 . S
C631 C632 1.479 . S
C631 H645 0.950 . S
C632 C631 1.479 . S
C632 C633 1.375 . S
C632 C638 1.404 . S
C633 C632 1.375 . S
C633 C634 1.369 . S
C633 H646 0.950 . S
C634 C633 1.369 . S
C634 C635 1.392 . S
C634 H647 0.951 . S
C635 C634 1.392 . S
C635 C637 1.384 . S
H636 C638 0.949 . S
C637 C635 1.384 . S
C637 C638 1.385 . S
C637 H639 0.950 . S
C638 C632 1.404 . S
C638 H636 0.949 . S
C638 C637 1.385 . S
H639 C637 0.950 . S
H640 C624 0.951 . S
H641 C626 0.951 . S
H642 C628 0.951 . S
H643 C629 0.950 . S
H644 C630 0.950 . S
H645 C631 0.950 . S
H646 C633 0.950 . S
H647 C634 0.951 . S
C648 C649 1.386 . S
C648 C650 1.383 . S
C648 H664 0.951 . S
C649 C648 1.386 . S
C649 C653 1.383 . S
C650 C648 1.383 . S
C650 C651 1.402 . S
C650 H665 0.951 . S
C651 C650 1.402 . S
C651 C652 1.375 . S
C651 C654 1.481 . S
C652 C651 1.375 . S
C652 C653 1.367 . S
C652 H666 0.951 . S
C653 C649 1.383 . S
C653 C652 1.367 . S
C653 H667 0.950 . S
C654 C651 1.481 . S
C654 C655 1.297 . S
C654 H668 0.950 . S
C655 C654 1.297 . S
C655 C656 1.479 . S
C655 H669 0.950 . S
C656 C655 1.479 . S
C656 C657 1.375 . S
C656 C662 1.404 . S
C657 C656 1.375 . S
C657 C658 1.369 . S
C657 H670 0.950 . S
C658 C657 1.369 . S
C658 C659 1.392 . S
C658 H671 0.951 . S
C659 C658 1.392 . S
C659 C661 1.384 . S
H660 C662 0.949 . S
C661 C659 1.384 . S
C661 C662 1.385 . S
C661 H663 0.950 . S
C662 C656 1.404 . S
C662 H660 0.949 . S
C662 C661 1.385 . S
H663 C661 0.950 . S
H664 C648 0.951 . S
H665 C650 0.951 . S
H666 C652 0.951 . S
H667 C653 0.950 . S
H668 C654 0.950 . S
H669 C655 0.950 . S
H670 C657 0.950 . S
H671 C658 0.951 . S
C289 C76 1.387 . S
C299 C4 1.335 . S
C313 C122 1.463 . S
C323 C50 1.441 . S
C337 C148 1.347 . S
C347 C220 1.311 . S
C361 C184 1.365 . S
C371 C256 1.343 . S
C385 C39 0.887 . S
C395 C3 0.890 . S
C409 C38 1.056 . S
C419 C74 1.030 1_455 S
C433 C111 0.883 . S
C443 C75 0.847 . S
C457 C110 0.996 . S
C467 C2 1.090 1_655 S
C481 C254 1.016 . S
C491 C147 0.926 . S
C505 C183 0.898 . S
C515 C146 0.872 . S
C529 C219 0.992 . S
C539 C182 0.994 . S
C553 C255 0.938 . S
C563 C218 0.970 . S
C577 C14 1.700 . S
C587 C194 1.657 . S
C601 C230 1.675 . S
C611 C40 1.650 . S
C625 C86 1.702 . S
C635 C266 1.653 . S
C649 C112 1.695 . S
C659 C158 1.678 . S
