# Generated by pormake.
# Topology umc, (4)-cn, num edge types: 1
# Building blocks:
#     Node 0, Type 0, BuildingBlock: QUQFOY_clean_sbu_3, # of connection points: 4
#     Node 1, Type 0, BuildingBlock: QUQFOY_clean_sbu_3, # of connection points: 4
#     Node 2, Type 0, BuildingBlock: QUQFOY_clean_sbu_3, # of connection points: 4
#     Node 3, Type 0, BuildingBlock: QUQFOY_clean_sbu_3, # of connection points: 4
#     Node 4, Type 0, BuildingBlock: QUQFOY_clean_sbu_3, # of connection points: 4
#     Node 5, Type 0, BuildingBlock: QUQFOY_clean_sbu_3, # of connection points: 4
#     Node 6, Type 0, BuildingBlock: QUQFOY_clean_sbu_3, # of connection points: 4
#     Node 7, Type 0, BuildingBlock: QUQFOY_clean_sbu_3, # of connection points: 4
#     Node 8, Type 0, BuildingBlock: QUQFOY_clean_sbu_3, # of connection points: 4
#     Node 9, Type 0, BuildingBlock: QUQFOY_clean_sbu_3, # of connection points: 4
#     Node 10, Type 0, BuildingBlock: QUQFOY_clean_sbu_3, # of connection points: 4
#     Node 11, Type 0, BuildingBlock: QUQFOY_clean_sbu_3, # of connection points: 4
#     Node 12, Type 0, BuildingBlock: QUQFOY_clean_sbu_3, # of connection points: 4
#     Node 13, Type 0, BuildingBlock: QUQFOY_clean_sbu_3, # of connection points: 4
#     Node 14, Type 0, BuildingBlock: QUQFOY_clean_sbu_3, # of connection points: 4
#     Node 15, Type 0, BuildingBlock: QUQFOY_clean_sbu_3, # of connection points: 4
#     Edge 16, Type (0, 0), BuildingBlock: XUDNAN_clean_linker_2, # of connection points: 2
#     Edge 17, Type (0, 0), BuildingBlock: XUDNAN_clean_linker_2, # of connection points: 2
#     Edge 18, Type (0, 0), BuildingBlock: XUDNAN_clean_linker_2, # of connection points: 2
#     Edge 19, Type (0, 0), BuildingBlock: XUDNAN_clean_linker_2, # of connection points: 2
#     Edge 20, Type (0, 0), BuildingBlock: XUDNAN_clean_linker_2, # of connection points: 2
#     Edge 21, Type (0, 0), BuildingBlock: XUDNAN_clean_linker_2, # of connection points: 2
#     Edge 22, Type (0, 0), BuildingBlock: XUDNAN_clean_linker_2, # of connection points: 2
#     Edge 23, Type (0, 0), BuildingBlock: XUDNAN_clean_linker_2, # of connection points: 2
#     Edge 24, Type (0, 0), BuildingBlock: XUDNAN_clean_linker_2, # of connection points: 2
#     Edge 25, Type (0, 0), BuildingBlock: XUDNAN_clean_linker_2, # of connection points: 2
#     Edge 26, Type (0, 0), BuildingBlock: XUDNAN_clean_linker_2, # of connection points: 2
#     Edge 27, Type (0, 0), BuildingBlock: XUDNAN_clean_linker_2, # of connection points: 2
#     Edge 28, Type (0, 0), BuildingBlock: XUDNAN_clean_linker_2, # of connection points: 2
#     Edge 29, Type (0, 0), BuildingBlock: XUDNAN_clean_linker_2, # of connection points: 2
#     Edge 30, Type (0, 0), BuildingBlock: XUDNAN_clean_linker_2, # of connection points: 2
#     Edge 31, Type (0, 0), BuildingBlock: XUDNAN_clean_linker_2, # of connection points: 2
#     Edge 32, Type (0, 0), BuildingBlock: XUDNAN_clean_linker_2, # of connection points: 2
#     Edge 33, Type (0, 0), BuildingBlock: XUDNAN_clean_linker_2, # of connection points: 2
#     Edge 34, Type (0, 0), BuildingBlock: XUDNAN_clean_linker_2, # of connection points: 2
#     Edge 35, Type (0, 0), BuildingBlock: XUDNAN_clean_linker_2, # of connection points: 2
#     Edge 36, Type (0, 0), BuildingBlock: XUDNAN_clean_linker_2, # of connection points: 2
#     Edge 37, Type (0, 0), BuildingBlock: XUDNAN_clean_linker_2, # of connection points: 2
#     Edge 38, Type (0, 0), BuildingBlock: XUDNAN_clean_linker_2, # of connection points: 2
#     Edge 39, Type (0, 0), BuildingBlock: XUDNAN_clean_linker_2, # of connection points: 2
#     Edge 40, Type (0, 0), BuildingBlock: XUDNAN_clean_linker_2, # of connection points: 2
#     Edge 41, Type (0, 0), BuildingBlock: XUDNAN_clean_linker_2, # of connection points: 2
#     Edge 42, Type (0, 0), BuildingBlock: XUDNAN_clean_linker_2, # of connection points: 2
#     Edge 43, Type (0, 0), BuildingBlock: XUDNAN_clean_linker_2, # of connection points: 2
#     Edge 44, Type (0, 0), BuildingBlock: XUDNAN_clean_linker_2, # of connection points: 2
#     Edge 45, Type (0, 0), BuildingBlock: XUDNAN_clean_linker_2, # of connection points: 2
#     Edge 46, Type (0, 0), BuildingBlock: XUDNAN_clean_linker_2, # of connection points: 2
#     Edge 47, Type (0, 0), BuildingBlock: XUDNAN_clean_linker_2, # of connection points: 2
# Relax obj value: 0.085
# Max RMSD: 0.168
# Mean RMSD: 0.168
data_MOF--net-umc--node1-QUQFOY_clean_sbu_3--edge1-XUDNAN_clean_linker_2
_symmetry_space_group_name_H-M    P1
_symmetry_Int_Tables_number       1
_symmetry_cell_setting            triclinic
loop_
_symmetry_equiv_pos_as_xyz
'x, y, z'
_cell_length_a     45.732228
_cell_length_b     35.171031
_cell_length_c     59.002412
_cell_angle_alpha  90.117828
_cell_angle_beta   90.456275
_cell_angle_gamma 90.070775
loop_
_atom_site_label
_atom_site_type_symbol
_atom_site_fract_x
_atom_site_fract_y
_atom_site_fract_z
_atom_type_partial_charge
C0 C 0.29962 0.98489 0.30655 0.0
O1 O 0.30567 0.95615 0.31866 0.0
Cd2 Cd 0.33096 0.96433 0.35418 0.0
O3 O 0.30416 0.01826 0.31411 0.0
Cd4 Cd 0.31916 0.05094 0.34905 0.0
C5 C 0.38852 0.02308 0.33945 0.0
O6 O 0.30391 0.00585 0.37849 0.0
O7 O 0.33536 0.04932 0.38787 0.0
O8 O 0.27211 0.08145 0.34722 0.0
C9 C 0.31858 0.02255 0.39394 0.0
O10 O 0.37925 0.99055 0.34563 0.0
C11 C 0.28116 0.11551 0.34781 0.0
O12 O 0.371 0.05121 0.33783 0.0
O13 O 0.30876 0.12034 0.34859 0.0
C14 C 0.69721 0.01734 0.31027 0.0
O15 O 0.69655 0.04514 0.324 0.0
Cd16 Cd 0.67043 0.03933 0.35908 0.0
O17 O 0.68594 0.98559 0.31567 0.0
Cd18 Cd 0.66232 0.95225 0.34708 0.0
C19 C 0.60245 0.00826 0.3406 0.0
O20 O 0.68697 0.98375 0.37904 0.0
O21 O 0.64934 0.94866 0.38655 0.0
O22 O 0.69874 0.90259 0.34243 0.0
C23 C 0.67051 0.96873 0.39379 0.0
O24 O 0.61879 0.03462 0.34845 0.0
C25 C 0.68083 0.87583 0.33841 0.0
O26 O 0.61251 0.97482 0.33751 0.0
O27 O 0.65381 0.88446 0.33826 0.0
C28 C 0.29943 0.98476 0.14491 0.0
O29 O 0.30003 0.01634 0.13458 0.0
Cd30 Cd 0.3265 0.01893 0.09928 0.0
O31 O 0.31157 0.9557 0.1364 0.0
Cd32 Cd 0.33735 0.93125 0.10363 0.0
C33 C 0.39522 0.98815 0.11558 0.0
O34 O 0.3124 0.96795 0.07384 0.0
O35 O 0.35091 0.9356 0.06464 0.0
O36 O 0.30036 0.8825 0.10529 0.0
C37 C 0.3295 0.9561 0.05845 0.0
O38 O 0.37799 0.01487 0.10976 0.0
C39 C 0.31747 0.85443 0.10748 0.0
O40 O 0.38641 0.9537 0.11589 0.0
O41 O 0.34477 0.86168 0.10764 0.0
C42 C 0.70216 0.01836 0.14834 0.0
O43 O 0.69688 0.9859 0.13982 0.0
Cd44 Cd 0.6719 0.98002 0.1038 0.0
O45 O 0.69488 0.04829 0.13771 0.0
Cd46 Cd 0.67183 0.06616 0.10176 0.0
C47 C 0.60752 0.02438 0.11538 0.0
O48 O 0.69316 0.02 0.07493 0.0
O49 O 0.6546 0.051 0.06432 0.0
O50 O 0.70912 0.11597 0.09886 0.0
C51 C 0.67555 0.02922 0.05911 0.0
O52 O 0.62004 0.99327 0.11017 0.0
C53 C 0.69117 0.14307 0.09614 0.0
O54 O 0.62192 0.05545 0.1156 0.0
O55 O 0.66416 0.13449 0.09623 0.0
C56 C 0.69954 0.99489 0.64548 0.0
O57 O 0.69172 0.02423 0.63455 0.0
Cd58 Cd 0.66732 0.01589 0.59832 0.0
O59 O 0.69495 0.96193 0.63738 0.0
Cd60 Cd 0.67592 0.92722 0.60472 0.0
C61 C 0.60786 0.96223 0.61437 0.0
O62 O 0.69251 0.97036 0.57483 0.0
O63 O 0.66188 0.9259 0.56541 0.0
O64 O 0.72151 0.89361 0.60909 0.0
C65 C 0.67838 0.95296 0.55932 0.0
O66 O 0.61833 0.99352 0.60722 0.0
C67 C 0.71105 0.86024 0.60955 0.0
O68 O 0.62421 0.93303 0.61667 0.0
O69 O 0.68336 0.85725 0.60776 0.0
C70 C 0.30043 0.0058 0.64748 0.0
O71 O 0.29921 0.97298 0.63858 0.0
Cd72 Cd 0.32499 0.96253 0.60355 0.0
O73 O 0.31339 0.03267 0.63734 0.0
Cd74 Cd 0.33773 0.04776 0.60196 0.0
C75 C 0.3949 0.99214 0.61665 0.0
O76 O 0.31192 0.0071 0.57403 0.0
O77 O 0.35297 0.03331 0.56444 0.0
O78 O 0.30182 0.0978 0.5994 0.0
C79 C 0.33035 0.01469 0.55863 0.0
O80 O 0.37704 0.96513 0.61257 0.0
C81 C 0.31962 0.12538 0.59851 0.0
O82 O 0.38658 0.02672 0.61529 0.0
O83 O 0.34673 0.11716 0.59921 0.0
C84 C 0.69798 0.99524 0.80718 0.0
O85 O 0.70001 0.96523 0.81897 0.0
Cd86 Cd 0.67369 0.95994 0.8538 0.0
O87 O 0.68455 0.02411 0.81484 0.0
Cd88 Cd 0.66145 0.04571 0.85013 0.0
C89 C 0.6039 0.98861 0.83881 0.0
O90 O 0.68823 0.00964 0.87948 0.0
O91 O 0.647 0.03523 0.88872 0.0
O92 O 0.69548 0.09894 0.84959 0.0
C93 C 0.67007 0.01804 0.89487 0.0
O94 O 0.62149 0.96202 0.84426 0.0
C95 C 0.67629 0.12488 0.8503 0.0
O96 O 0.61254 0.02311 0.83844 0.0
O97 O 0.64971 0.11414 0.85062 0.0
C98 C 0.30245 0.00578 0.80923 0.0
O99 O 0.3084 0.03266 0.8229 0.0
Cd100 Cd 0.33224 0.0177 0.85835 0.0
O101 O 0.3068 0.97147 0.81502 0.0
Cd102 Cd 0.3214 0.93051 0.84645 0.0
C103 C 0.3905 0.96292 0.8398 0.0
O104 O 0.30459 0.97004 0.87796 0.0
O105 O 0.33359 0.92327 0.88598 0.0
O106 O 0.27501 0.90122 0.8378 0.0
C107 C 0.31763 0.95029 0.89293 0.0
O108 O 0.38065 0.99374 0.84818 0.0
C109 C 0.28393 0.86716 0.83687 0.0
O110 O 0.3735 0.9347 0.83609 0.0
O111 O 0.31114 0.86175 0.84033 0.0
C112 C 0.78213 0.49099 0.30635 0.0
O113 O 0.78174 0.46316 0.32 0.0
Cd114 Cd 0.80699 0.4705 0.3557 0.0
O115 O 0.79244 0.52293 0.31263 0.0
Cd116 Cd 0.81164 0.56015 0.34451 0.0
C117 C 0.87285 0.50903 0.33632 0.0
O118 O 0.78923 0.5251 0.37558 0.0
O119 O 0.82452 0.56385 0.3841 0.0
O120 O 0.76893 0.59654 0.33527 0.0
C121 C 0.80517 0.5406 0.39074 0.0
O122 O 0.85719 0.4819 0.34384 0.0
C123 C 0.7808 0.6291 0.33506 0.0
O124 O 0.86234 0.54247 0.334 0.0
O125 O 0.80823 0.63041 0.3391 0.0
C126 C 0.17833 0.47561 0.30056 0.0
O127 O 0.1748 0.50885 0.30848 0.0
Cd128 Cd 0.15089 0.51665 0.34478 0.0
O129 O 0.17042 0.44699 0.31202 0.0
Cd130 Cd 0.14941 0.43129 0.34855 0.0
C131 C 0.08512 0.47409 0.33517 0.0
O132 O 0.17245 0.47802 0.37462 0.0
O133 O 0.13501 0.44616 0.38649 0.0
O134 O 0.18741 0.38309 0.35104 0.0
C135 C 0.15598 0.46867 0.39097 0.0
O136 O 0.09837 0.50522 0.33933 0.0
C137 C 0.1702 0.35486 0.35215 0.0
O138 O 0.09899 0.44267 0.33563 0.0
O139 O 0.14296 0.36211 0.35212 0.0
C140 C 0.78667 0.50494 0.14408 0.0
O141 O 0.78732 0.53849 0.13628 0.0
Cd142 Cd 0.81348 0.54872 0.10148 0.0
O143 O 0.79734 0.47769 0.13272 0.0
Cd144 Cd 0.81851 0.46282 0.09591 0.0
C145 C 0.8804 0.50691 0.11246 0.0
O146 O 0.79651 0.51017 0.07012 0.0
O147 O 0.83513 0.47981 0.05897 0.0
O148 O 0.77618 0.42407 0.09036 0.0
C149 C 0.81411 0.50201 0.05422 0.0
O150 O 0.86468 0.53654 0.11019 0.0
C151 C 0.7887 0.39202 0.08943 0.0
O152 O 0.86952 0.47389 0.1091 0.0
O153 O 0.81649 0.39193 0.09143 0.0
C154 C 0.18244 0.48215 0.13786 0.0
O155 O 0.17788 0.45646 0.12315 0.0
Cd156 Cd 0.15325 0.47698 0.08857 0.0
O157 O 0.1772 0.51656 0.13301 0.0
Cd158 Cd 0.16277 0.55765 0.10212 0.0
C159 C 0.09409 0.52522 0.10908 0.0
O160 O 0.17797 0.52539 0.06651 0.0
O161 O 0.14683 0.57218 0.06505 0.0
O162 O 0.21009 0.58559 0.10928 0.0
C163 C 0.16382 0.54968 0.05474 0.0
O164 O 0.10384 0.4958 0.09907 0.0
C165 C 0.20148 0.6196 0.11167 0.0
O166 O 0.11118 0.55287 0.1139 0.0
O167 O 0.17402 0.62537 0.11022 0.0
C168 C 0.18943 0.48088 0.64596 0.0
O169 O 0.18449 0.51301 0.637 0.0
Cd170 Cd 0.16132 0.51436 0.59994 0.0
O171 O 0.18486 0.45072 0.63466 0.0
Cd172 Cd 0.17086 0.42906 0.59692 0.0
C173 C 0.10185 0.45631 0.60848 0.0
O174 O 0.18596 0.47959 0.57029 0.0
O175 O 0.1529 0.43895 0.55939 0.0
O176 O 0.21807 0.39899 0.5954 0.0
C177 C 0.16995 0.46611 0.55442 0.0
O178 O 0.11196 0.48958 0.60516 0.0
C179 C 0.20909 0.36497 0.59389 0.0
O180 O 0.11877 0.42743 0.60796 0.0
O181 O 0.18148 0.35999 0.59353 0.0
C182 C 0.79258 0.47699 0.64061 0.0
O183 O 0.79241 0.44823 0.6276 0.0
Cd184 Cd 0.81848 0.45061 0.59234 0.0
O185 O 0.80498 0.50761 0.63447 0.0
Cd186 Cd 0.82979 0.53661 0.60211 0.0
C187 C 0.88798 0.47802 0.60895 0.0
O188 O 0.80311 0.50531 0.5709 0.0
O189 O 0.84224 0.53689 0.56254 0.0
O190 O 0.7946 0.58753 0.60649 0.0
C191 C 0.81984 0.5187 0.55579 0.0
O192 O 0.87056 0.45237 0.6017 0.0
C193 C 0.81299 0.61429 0.60871 0.0
O194 O 0.87907 0.51206 0.61183 0.0
O195 O 0.83989 0.60509 0.60817 0.0
C196 C 0.17082 0.48999 0.80822 0.0
O197 O 0.16576 0.4631 0.82195 0.0
Cd198 Cd 0.13972 0.47752 0.85661 0.0
O199 O 0.16361 0.52374 0.81329 0.0
Cd200 Cd 0.14224 0.56018 0.84394 0.0
C201 C 0.07636 0.51666 0.8373 0.0
O202 O 0.16301 0.52844 0.87797 0.0
O203 O 0.12872 0.57046 0.88239 0.0
O204 O 0.18243 0.60465 0.83864 0.0
C205 C 0.14843 0.54975 0.89115 0.0
O206 O 0.08814 0.48839 0.84722 0.0
C207 C 0.16659 0.63349 0.83469 0.0
O208 O 0.0915 0.54606 0.83269 0.0
O209 O 0.13906 0.62827 0.83461 0.0
C210 C 0.77167 0.49553 0.80166 0.0
O211 O 0.77291 0.52856 0.81027 0.0
Cd212 Cd 0.79846 0.53594 0.84597 0.0
O213 O 0.78116 0.46708 0.81267 0.0
Cd214 Cd 0.80092 0.44741 0.84933 0.0
C215 C 0.86351 0.48988 0.8337 0.0
O216 O 0.78158 0.49509 0.87592 0.0
O217 O 0.81893 0.46126 0.88652 0.0
O218 O 0.75733 0.40993 0.85232 0.0
C219 C 0.79964 0.48576 0.89147 0.0
O220 O 0.84871 0.52009 0.83674 0.0
C221 C 0.7693 0.37748 0.85311 0.0
O222 O 0.85194 0.45712 0.83636 0.0
O223 O 0.79716 0.37674 0.85241 0.0
H224 H 0.35619 0.04229 0.42769 0.0
H225 H 0.27666 0.97845 0.41435 0.0
H226 H 0.27233 0.96481 0.45542 0.0
H227 H 0.38421 0.98145 0.47315 0.0
H228 H 0.3989 0.02137 0.48872 0.0
H229 H 0.39653 0.02312 0.45824 0.0
H230 H 0.36651 0.0855 0.4608 0.0
H231 H 0.36871 0.0839 0.49121 0.0
H232 H 0.33352 0.08631 0.47732 0.0
H233 H 0.27475 0.96391 0.49875 0.0
H234 H 0.28471 0.97385 0.53974 0.0
H235 H 0.36344 0.03648 0.52302 0.0
C236 C 0.33801 0.02505 0.43333 0.0
C237 C 0.31671 0.01149 0.41794 0.0
C238 C 0.29328 0.98898 0.42594 0.0
C239 C 0.29066 0.98112 0.44919 0.0
C240 C 0.31189 0.99556 0.46399 0.0
C241 C 0.33527 0.0167 0.45626 0.0
C242 C 0.35461 0.03034 0.47543 0.0
C243 C 0.38538 0.01302 0.47378 0.0
C244 C 0.35588 0.07409 0.47623 0.0
C245 C 0.33813 0.01443 0.49531 0.0
C246 C 0.31359 0.99432 0.48853 0.0
C247 C 0.29415 0.97911 0.50423 0.0
C248 C 0.29993 0.98493 0.52743 0.0
C249 C 0.32491 0.00574 0.53453 0.0
C250 C 0.34432 0.02008 0.51818 0.0
H251 H 0.64699 0.92369 0.524 0.0
H252 H 0.71583 0.00467 0.54006 0.0
H253 H 0.72094 0.01906 0.49918 0.0
H254 H 0.67851 0.8865 0.47404 0.0
H255 H 0.64405 0.88131 0.45931 0.0
H256 H 0.64541 0.87862 0.48976 0.0
H257 H 0.607 0.93259 0.49247 0.0
H258 H 0.60546 0.93539 0.46201 0.0
H259 H 0.61378 0.97726 0.47852 0.0
H260 H 0.71951 0.02226 0.45608 0.0
H261 H 0.71072 0.01534 0.41479 0.0
H262 H 0.64231 0.93292 0.42816 0.0
C263 C 0.66309 0.94461 0.519 0.0
C264 C 0.68107 0.96304 0.53516 0.0
C265 C 0.70181 0.99026 0.5279 0.0
C266 C 0.70487 -0.00142 0.50476 0.0
C267 C 0.68689 0.97957 0.48924 0.0
C268 C 0.66631 0.9533 0.49613 0.0
C269 C 0.64984 0.93636 0.47624 0.0
C270 C 0.65476 0.89315 0.47476 0.0
C271 C 0.61708 0.946 0.47739 0.0
C272 C 0.6645 0.95694 0.45699 0.0
C273 C 0.68583 0.98174 0.46473 0.0
C274 C 0.70273 0.00311 0.44985 0.0
C275 C 0.69763 -0.00105 0.42647 0.0
C276 C 0.67578 0.97371 0.41831 0.0
C277 C 0.65904 0.95264 0.43386 0.0
H278 H 0.35766 0.92418 0.0228 0.0
H279 H 0.28828 0.00339 0.03931 0.0
H280 H 0.27837 0.01275 -0.00167 0.0
H281 H 0.38403 0.97225 0.97298 0.0
H282 H 0.39116 0.92845 0.95812 0.0
H283 H 0.39346 0.92994 -0.01141 0.0
H284 H 0.35602 0.87467 -0.009 0.0
H285 H 0.35354 0.87306 0.96056 0.0
H286 H 0.32094 0.87933 -0.02288 0.0
H287 H 0.27584 0.01201 0.9551 0.0
H288 H 0.27996 -0.00018 0.91386 0.0
H289 H 0.35013 0.91972 0.92707 0.0
C290 C 0.34054 0.94381 0.01787 0.0
C291 C 0.32381 0.96321 0.03419 0.0
C292 C 0.30139 0.9883 0.02702 0.0
C293 C 0.29565 0.99382 0.00382 0.0
C294 C 0.31249 0.97392 -0.01183 0.0
C295 C 0.33442 0.94937 -0.00504 0.0
C296 C 0.34871 0.93014 -0.02497 0.0
C297 C 0.38126 0.94085 0.9736 0.0
C298 C 0.34453 0.88674 -0.02401 0.0
C299 C 0.3313 0.94747 0.95585 0.0
C300 C 0.31064 0.97289 0.96364 0.0
C301 C 0.29197 0.99219 0.94884 0.0
C302 C 0.29446 0.98511 0.92548 0.0
C303 C 0.31528 0.95874 0.91732 0.0
C304 C 0.33391 0.93992 0.93278 0.0
H305 H 0.63256 0.02887 0.92969 0.0
H306 H 0.71986 0.98845 0.91455 0.0
H307 H 0.72947 0.97972 0.95562 0.0
H308 H 0.65148 0.0835 -0.02404 0.0
H309 H 0.61893 0.0733 -0.00813 0.0
H310 H 0.61792 0.07122 0.96144 0.0
H311 H 0.59892 0.00177 0.96312 0.0
H312 H 0.5998 0.00366 -0.00636 0.0
H313 H 0.61928 0.96672 -0.02109 0.0
H314 H 0.73072 0.98185 -0.00112 0.0
H315 H 0.72373 0.99577 0.03971 0.0
H316 H 0.63568 0.03494 0.0251 0.0
C317 C 0.65356 0.01753 0.93492 0.0
C318 C 0.67547 0.00931 0.91899 0.0
C319 C 0.70271 0.99477 0.92654 0.0
C320 C 0.70832 0.98965 0.94979 0.0
C321 C 0.68633 -0.00116 0.96512 0.0
C322 C 0.65943 0.01225 0.95789 0.0
C323 C 0.64015 0.02288 -0.02247 0.0
C324 C 0.63165 0.06523 -0.02336 0.0
C325 C 0.61293 -0.00278 -0.02165 0.0
C326 C 0.66072 0.0147 -0.00298 0.0
C327 C 0.68711 0.00028 -0.01031 0.0
C328 C 0.70999 0.99266 0.0048 0.0
C329 C 0.70585 0.00062 0.02793 0.0
C330 C 0.67919 0.01645 0.03549 0.0
C331 C 0.65629 0.02278 0.01983 0.0
H332 H 0.84895 0.55169 0.5209 0.0
H333 H 0.77528 0.47808 0.53561 0.0
H334 H 0.7636 0.47432 0.4946 0.0
H335 H 0.81409 0.60481 0.47739 0.0
H336 H 0.84662 0.60914 0.46053 0.0
H337 H 0.84963 0.6045 0.49083 0.0
H338 H 0.8833 0.54582 0.48592 0.0
H339 H 0.88046 0.55034 0.45559 0.0
H340 H 0.87083 0.50614 0.46902 0.0
H341 H 0.75989 0.47983 0.45165 0.0
H342 H 0.76418 0.49465 0.41077 0.0
H343 H 0.83983 0.56547 0.42544 0.0
C344 C 0.83047 0.53451 0.51555 0.0
C345 C 0.81306 0.51506 0.5314 0.0
C346 C 0.78893 0.49317 0.5237 0.0
C347 C 0.78215 0.49086 0.50047 0.0
C348 C 0.79971 0.51068 0.4853 0.0
C349 C 0.82335 0.53209 0.49259 0.0
C350 C 0.83841 0.55155 0.4731 0.0
C351 C 0.83709 0.59507 0.47562 0.0
C352 C 0.87012 0.53761 0.47077 0.0
C353 C 0.81952 0.53788 0.45363 0.0
C354 C 0.79736 0.51422 0.4609 0.0
C355 C 0.77717 0.4983 0.44578 0.0
C356 C 0.77977 0.50688 0.42263 0.0
C357 C 0.80228 0.53126 0.41498 0.0
C358 C 0.82233 0.54681 0.43076 0.0
H359 H 0.1285 0.45679 0.52202 0.0
H360 H 0.21457 0.50519 0.53354 0.0
H361 H 0.21842 0.51911 0.49243 0.0
H362 H 0.14427 0.40877 0.4736 0.0
H363 H 0.10953 0.41677 0.45978 0.0
H364 H 0.11188 0.41674 0.49017 0.0
H365 H 0.08916 0.48423 0.4915 0.0
H366 H 0.08652 0.48439 0.461 0.0
H367 H 0.10565 0.52219 0.47555 0.0
H368 H 0.215 0.51894 0.44902 0.0
H369 H 0.20434 0.50589 0.40844 0.0
H370 H 0.12035 0.45819 0.42691 0.0
C371 C 0.14793 0.47111 0.51601 0.0
C372 C 0.17127 0.47988 0.53085 0.0
C373 C 0.19635 0.49851 0.52238 0.0
C374 C 0.19869 0.50648 0.49909 0.0
C375 C 0.17553 0.49622 0.48474 0.0
C376 C 0.15046 0.47941 0.49305 0.0
C377 C 0.12957 0.46819 0.47427 0.0
C378 C 0.12349 0.42508 0.47447 0.0
C379 C 0.10104 0.49113 0.47567 0.0
C380 C 0.14727 0.47965 0.45393 0.0
C381 C 0.17354 0.49631 0.46015 0.0
C382 C 0.19425 0.50656 0.444 0.0
C383 C 0.18805 0.49902 0.42102 0.0
C384 C 0.16152 0.48104 0.41456 0.0
C385 C 0.14077 0.47212 0.43127 0.0
H386 H 0.84189 0.48205 0.92379 0.0
H387 H 0.75379 0.52316 0.9117 0.0
H388 H 0.75007 0.54102 0.95226 0.0
H389 H 0.82871 0.43802 0.97385 0.0
H390 H 0.86327 0.44973 -0.01297 0.0
H391 H 0.86052 0.44657 0.95672 0.0
H392 H 0.88057 0.51528 0.95307 0.0
H393 H 0.8835 0.51863 -0.01651 0.0
H394 H 0.86277 0.55357 0.96789 0.0
H395 H 0.75395 0.54538 -0.00471 0.0
H396 H 0.76498 0.53589 0.03607 0.0
H397 H 0.85072 0.49258 0.01872 0.0
C398 C 0.82201 0.49559 0.92952 0.0
C399 C 0.7981 0.50119 0.91469 0.0
C400 C 0.77243 0.51884 0.92283 0.0
C401 C 0.77017 0.52912 0.9458 0.0
C402 C 0.79396 0.5221 0.96017 0.0
C403 C 0.81952 0.50614 0.95219 0.0
C404 C 0.84103 0.49821 0.97112 0.0
C405 C 0.84881 0.45562 0.97224 0.0
C406 C 0.86859 0.52291 0.96875 0.0
C407 C 0.82312 0.51043 -0.00878 0.0
C408 C 0.79622 0.52478 -0.01533 0.0
C409 C 0.77516 0.53489 0.00057 0.0
C410 C 0.7816 0.5294 0.02368 0.0
C411 C 0.80871 0.51353 0.03052 0.0
C412 C 0.82987 0.505 0.01404 0.0
H413 H 0.17146 0.49606 0.02112 0.0
H414 H 0.16727 0.61741 0.03397 0.0
H415 H 0.16987 0.62998 -0.00692 0.0
H416 H 0.21961 0.50158 0.96925 0.0
H417 H 0.19977 0.46398 0.9551 0.0
H418 H 0.20312 0.4641 -0.01442 0.0
H419 H 0.14674 0.46082 -0.01111 0.0
H420 H 0.1432 0.46099 0.95851 0.0
H421 H 0.12465 0.49651 -0.0249 0.0
H422 H 0.16468 0.63005 0.95215 0.0
H423 H 0.15371 0.61751 0.91192 0.0
H424 H 0.1619 0.49626 0.9236 0.0
C425 C 0.17208 0.52518 0.01522 0.0
C426 C 0.16935 0.55584 0.03054 0.0
C427 C 0.16933 0.59362 0.02239 0.0
C428 C 0.17098 0.60106 -0.00076 0.0
C429 C 0.17261 0.57037 -0.01558 0.0
C430 C 0.17339 0.53315 -0.00807 0.0
C431 C 0.17194 0.50561 0.97209 0.0
C432 C 0.20031 0.48245 0.97041 0.0
C433 C 0.14503 0.47946 0.97375 0.0
C434 C 0.16899 0.53327 0.95247 0.0
C435 C 0.16981 0.57045 0.96011 0.0
C436 C 0.16467 0.60115 0.94581 0.0
C437 C 0.15825 0.59376 0.92307 0.0
C438 C 0.15724 0.55603 0.91482 0.0
C439 C 0.16321 0.52537 0.92955 0.0
H440 H 0.5558 0.95867 0.33913 0.0
H441 H 0.57856 0.07786 0.33213 0.0
H442 H 0.52637 0.094 0.32764 0.0
H443 H 0.49254 0.95873 0.29953 0.0
H444 H 0.47167 0.92693 0.31705 0.0
H445 H 0.51102 0.92411 0.31698 0.0
H446 H 0.51199 0.93284 0.3606 0.0
H447 H 0.47272 0.93581 0.3608 0.0
H448 H 0.49436 0.97367 0.37296 0.0
H449 H 0.47151 0.09799 0.32674 0.0
H450 H 0.41813 0.08949 0.33061 0.0
H451 H 0.43101 0.96802 0.33916 0.0
C452 C 0.54983 0.98803 0.33613 0.0
C453 C 0.57129 0.01696 0.33582 0.0
C454 C 0.56252 0.05519 0.3324 0.0
C455 C 0.53291 0.06465 0.32975 0.0
C456 C 0.51224 0.03561 0.33061 0.0
C457 C 0.52028 -0.00194 0.33371 0.0
C458 C 0.49361 0.97272 0.33578 0.0
C459 C 0.49213 0.94392 0.31616 0.0
C460 C 0.49315 0.95259 0.35891 0.0
C461 C 0.46941 0.00199 0.33384 0.0
C462 C 0.48058 0.03803 0.33056 0.0
C463 C 0.46248 0.06984 0.32911 0.0
C464 C 0.43216 0.06474 0.33133 0.0
C465 C 0.42026 0.02812 0.33518 0.0
C466 C 0.43928 0.99641 0.33615 0.0
H467 H 0.44426 0.94288 0.11227 0.0
H468 H 0.41567 0.05636 0.13067 0.0
H469 H 0.46696 0.07622 0.13587 0.0
H470 H 0.50923 0.93953 0.15069 0.0
H471 H 0.53102 0.91461 0.13014 0.0
H472 H 0.49196 0.90774 0.13065 0.0
H473 H 0.48866 0.92684 0.08832 0.0
H474 H 0.52761 0.93398 0.08772 0.0
H475 H 0.50337 0.97197 0.07947 0.0
H476 H 0.52092 0.08583 0.13558 0.0
H477 H 0.57429 0.08435 0.12994 0.0
H478 H 0.56852 0.96499 0.11134 0.0
C479 C 0.44882 0.97159 0.11797 0.0
C480 C 0.42595 -0.002 0.1212 0.0
C481 C 0.43282 0.03562 0.1281 0.0
C482 C 0.4619 0.04716 0.13118 0.0
C483 C 0.48398 0.02081 0.12729 0.0
C484 C 0.47787 0.98375 0.12093 0.0
C485 C 0.5058 0.96205 0.11614 0.0
C486 C 0.50973 0.92903 0.13291 0.0
C487 C 0.50638 0.9479 0.09145 0.0
C488 C 0.5284 0.99298 0.12027 0.0
C489 C 0.51533 0.02651 0.12692 0.0
C490 C 0.53148 0.05961 0.13064 0.0
C491 C 0.56181 0.0585 0.12733 0.0
C492 C 0.57572 0.02456 0.12027 0.0
C493 C 0.55868 0.99132 0.11696 0.0
H494 H 0.56747 0.01949 0.61078 0.0
H495 H 0.57606 0.9003 0.62872 0.0
H496 H 0.52263 0.89673 0.63457 0.0
H497 H 0.50874 0.04255 0.65057 0.0
H498 H 0.4909 0.07413 0.63083 0.0
H499 H 0.53 0.06808 0.62998 0.0
H500 H 0.5264 0.0491 0.58758 0.0
H501 H 0.48736 0.0551 0.5883 0.0
H502 H 0.50269 0.01047 0.57921 0.0
H503 H 0.46797 0.90495 0.63543 0.0
H504 H 0.41635 0.92387 0.63106 0.0
H505 H 0.44351 0.03805 0.61292 0.0
C506 C 0.55828 0.99268 0.61624 0.0
C507 C 0.57609 0.96014 0.61933 0.0
C508 C 0.56297 0.92563 0.6263 0.0
C509 C 0.53263 0.92336 0.62971 0.0
C510 C 0.51575 0.9559 0.62623 0.0
C511 C 0.52814 0.98994 0.61973 0.0
C512 C 0.50505 0.02023 0.61593 0.0
C513 C 0.50891 0.0532 0.63284 0.0
C514 C 0.5054 0.03454 0.59129 0.0
C515 C 0.47758 -0.00231 0.62078 0.0
C516 C 0.48427 0.96072 0.62687 0.0
C517 C 0.46252 0.93392 0.63093 0.0
C518 C 0.43324 0.94497 0.62835 0.0
C519 C 0.42583 0.98253 0.62176 0.0
C520 C 0.4484 0.00934 0.61834 0.0
H521 H 0.55588 0.03543 0.84121 0.0
H522 H 0.58176 0.91944 0.82632 0.0
H523 H 0.5299 0.90126 0.82181 0.0
H524 H 0.49618 0.01148 0.87503 0.0
H525 H 0.47312 0.05 0.86569 0.0
H526 H 0.51225 0.05509 0.86499 0.0
H527 H 0.50957 0.07108 0.82217 0.0
H528 H 0.47035 0.0662 0.82276 0.0
H529 H 0.49144 0.03865 0.80297 0.0
H530 H 0.47504 0.89452 0.82163 0.0
H531 H 0.42157 0.89968 0.82671 0.0
H532 H 0.43162 0.01961 0.84267 0.0
C533 C 0.55065 0.00643 0.83649 0.0
C534 C 0.5729 0.97893 0.83395 0.0
C535 C 0.5651 0.94103 0.8283 0.0
C536 C 0.53569 0.93043 0.82563 0.0
C537 C 0.51425 0.958 0.82872 0.0
C538 C 0.52136 0.99524 0.834 0.0
C539 C 0.49412 0.01867 0.83812 0.0
C540 C 0.49392 0.03474 0.8624 0.0
C541 C 0.4912 0.05053 0.82045 0.0
C542 C 0.47069 0.98863 0.83478 0.0
C543 C 0.48269 0.95393 0.82909 0.0
C544 C 0.46536 0.92164 0.82591 0.0
C545 C 0.435 0.92484 0.82884 0.0
C546 C 0.42229 0.96 0.8351 0.0
C547 C 0.44052 0.99228 0.83784 0.0
H548 H 0.92172 0.55521 0.33991 0.0
H549 H 0.89312 0.44222 0.31999 0.0
H550 H 0.94428 0.42308 0.31425 0.0
H551 H 0.98606 0.56048 0.30128 0.0
H552 H 0.00832 0.58467 0.32214 0.0
H553 H 0.96925 0.59144 0.32177 0.0
H554 H 0.96693 0.57071 0.36382 0.0
H555 H 0.00589 0.56364 0.36427 0.0
H556 H 0.98181 0.52528 0.37203 0.0
H557 H -0.00208 0.41364 0.31442 0.0
H558 H 0.05136 0.41483 0.32005 0.0
H559 H 0.0464 0.53351 0.34019 0.0
C560 C 0.92628 0.52684 0.33373 0.0
C561 C 0.90345 0.50026 0.33025 0.0
C562 C 0.91028 0.46303 0.32275 0.0
C563 C 0.93927 0.4519 0.31936 0.0
C564 C 0.96134 0.47828 0.32355 0.0
C565 C 0.95532 0.51504 0.33046 0.0
C566 C 0.98341 0.53663 0.33551 0.0
C567 C 0.98696 0.5703 0.3192 0.0
C568 C 0.98456 0.54982 0.36039 0.0
C569 C 0.00594 0.50592 0.33092 0.0
C570 C -0.00732 0.47265 0.32382 0.0
C571 C 0.00864 0.43967 0.31969 0.0
C572 C 0.03901 0.4406 0.32302 0.0
C573 C 0.05318 0.47426 0.33047 0.0
C574 C 0.03632 0.50743 0.33422 0.0
H575 H 0.05153 0.47259 0.09892 0.0
H576 H 0.06489 0.58225 0.13139 0.0
H577 H 0.01192 0.5862 0.13895 0.0
H578 H 0.98587 0.49573 0.07099 0.0
H579 H 0.96924 0.44967 0.0746 0.0
H580 H 0.00842 0.45392 0.07355 0.0
H581 H 0.01281 0.42013 0.1124 0.0
H582 H 0.97357 0.41585 0.11361 0.0
H583 H -0.00669 0.43879 0.13641 0.0
H584 H 0.9574 0.58058 0.14033 0.0
H585 H 0.905 0.56659 0.13495 0.0
H586 H 0.92676 0.46004 0.10197 0.0
C587 C 0.04345 0.49727 0.1079 0.0
C588 C 0.0625 0.52711 0.11462 0.0
C589 C 0.05084 0.55901 0.12611 0.0
C590 C 0.02078 0.56144 0.13054 0.0
C591 C 0.00266 0.53167 0.12349 0.0
C592 C 0.01355 0.50015 0.11245 0.0
C593 C 0.98919 0.47305 0.10553 0.0
C594 C 0.98812 0.46781 0.07963 0.0
C595 C -0.00758 0.43468 0.11772 0.0
C596 C 0.96276 0.49468 0.11395 0.0
C597 C 0.9711 0.52827 0.12443 0.0
C598 C 0.95064 0.55418 0.13241 0.0
C599 C 0.92091 0.54598 0.12922 0.0
C600 C 0.91177 0.5121 0.11817 0.0
C601 C 0.93305 0.48578 0.11086 0.0
H602 H 0.93577 0.52579 0.61168 0.0
H603 H 0.91064 0.40686 0.61465 0.0
H604 H 0.96252 0.38854 0.61777 0.0
H605 H -0.00342 0.51249 0.57679 0.0
H606 H 0.0191 0.54819 0.59027 0.0
H607 H 0.97991 0.55244 0.59083 0.0
H608 H 0.9814 0.55632 0.63469 0.0
H609 H 0.02068 0.55224 0.63425 0.0
H610 H -0.00067 0.51926 0.65063 0.0
H611 H 0.01734 0.38259 0.61767 0.0
H612 H 0.07089 0.38983 0.6141 0.0
H613 H 0.06031 0.5124 0.6107 0.0
C614 C 0.94115 0.49597 0.61348 0.0
C615 C 0.91907 0.46781 0.61304 0.0
C616 C 0.92712 0.429 0.61496 0.0
C617 C 0.95656 0.41827 0.61681 0.0
C618 C 0.97782 0.44662 0.61671 0.0
C619 C 0.97051 0.4847 0.61516 0.0
C620 C -0.00233 0.50932 0.61392 0.0
C621 C -0.00166 0.53192 0.59163 0.0
C622 C -0.0001 0.53585 0.63461 0.0
C623 C 0.02128 0.4791 0.61455 0.0
C624 C 0.00942 0.44314 0.61639 0.0
C625 C 0.02691 0.41066 0.61644 0.0
C626 C 0.05733 0.41504 0.61438 0.0
C627 C 0.06994 0.45163 0.61215 0.0
C628 C 0.05151 0.48398 0.61248 0.0
H629 H 0.03543 0.46348 0.85011 0.0
H630 H 0.04553 0.56773 0.8116 0.0
H631 H -0.00736 0.56767 0.80318 0.0
H632 H 0.97774 0.42064 0.81416 0.0
H633 H 0.95855 0.40103 0.83801 0.0
H634 H -0.00232 0.40705 0.83934 0.0
H635 H -0.00745 0.44725 0.87593 0.0
H636 H 0.95349 0.44125 0.87476 0.0
H637 H 0.96903 0.48836 0.87577 0.0
H638 H 0.93874 0.5597 0.80155 0.0
H639 H 0.88666 0.54533 0.80763 0.0
H640 H 0.91054 0.44567 0.84678 0.0
C641 C 0.02661 0.486 0.83961 0.0
C642 C 0.04474 0.51556 0.83143 0.0
C643 C 0.03219 0.54476 0.81804 0.0
C644 C 0.00216 0.54488 0.81307 0.0
C645 C 0.98492 0.51555 0.82155 0.0
C646 C -0.00338 0.48662 0.83453 0.0
C647 C 0.97286 0.45992 0.84279 0.0
C648 C 0.97696 0.41978 0.83299 0.0
C649 C 0.97194 0.45918 0.86886 0.0
C650 C 0.9459 0.47892 0.83286 0.0
C651 C 0.9535 0.51076 0.82049 0.0
C652 C 0.93253 0.53457 0.81092 0.0
C653 C 0.90301 0.52619 0.81449 0.0
C654 C 0.8946 0.49419 0.82747 0.0
C655 C 0.91636 0.46977 0.83634 0.0
H656 H 0.22753 0.33197 0.35266 0.0
H657 H 0.13855 0.28871 0.35229 0.0
H658 H 0.15754 0.22302 0.3511 0.0
H659 H 0.25699 0.26361 0.31433 0.0
H660 H 0.29162 0.25967 0.32893 0.0
H661 H 0.27119 0.30334 0.33035 0.0
H662 H 0.27201 0.30017 0.37422 0.0
H663 H 0.29259 0.2566 0.37295 0.0
H664 H 0.25862 0.25815 0.3882 0.0
H665 H 0.18592 0.16252 0.34891 0.0
H666 H 0.22175 0.11048 0.34724 0.0
H667 H 0.2927 0.19267 0.3493 0.0
C668 C 0.21202 0.30869 0.35247 0.0
C669 C 0.18152 0.31546 0.35258 0.0
C670 C 0.16198 0.28421 0.35226 0.0
C671 C 0.17256 0.24682 0.35155 0.0
C672 C 0.20272 0.24118 0.35123 0.0
C673 C 0.2222 0.2712 0.3518 0.0
C674 C 0.25357 0.25729 0.35119 0.0
C675 C 0.26926 0.27184 0.32993 0.0
C676 C 0.27017 0.26873 0.37294 0.0
C677 C 0.24869 0.21471 0.35007 0.0
C678 C 0.21917 0.20614 0.35009 0.0
C679 C 0.20908 0.16886 0.34897 0.0
C680 C 0.22967 0.1395 0.34799 0.0
C681 C 0.26008 0.14745 0.34815 0.0
C682 C 0.26964 0.18566 0.34914 0.0
H683 H 0.73651 0.84839 0.34393 0.0
H684 H 0.64859 0.81434 0.3243 0.0
H685 H 0.66585 0.74845 0.31866 0.0
H686 H 0.77567 0.78599 0.30495 0.0
H687 H 0.80436 0.77576 0.32515 0.0
H688 H 0.78562 0.82077 0.32614 0.0
H689 H 0.77229 0.80882 0.36813 0.0
H690 H 0.79101 0.76387 0.36728 0.0
H691 H 0.75322 0.76581 0.37564 0.0
H692 H 0.69193 0.68625 0.31679 0.0
H693 H 0.72443 0.63085 0.32017 0.0
H694 H 0.79573 0.70465 0.34154 0.0
C695 C 0.72093 0.82717 0.3382 0.0
C696 C 0.69118 0.83653 0.33444 0.0
C697 C 0.67145 0.80784 0.32725 0.0
C698 C 0.68108 0.77039 0.32393 0.0
C699 C 0.71049 0.76212 0.3279 0.0
C700 C 0.73014 0.78963 0.33494 0.0
C701 C 0.76023 0.7728 0.33915 0.0
C702 C 0.7828 0.78985 0.32287 0.0
C703 C 0.76973 0.77814 0.36403 0.0
C704 C 0.75435 0.73135 0.33372 0.0
C705 C 0.72556 0.72598 0.32706 0.0
C706 C 0.71453 0.69013 0.32187 0.0
C707 C 0.73322 0.65881 0.32388 0.0
C708 C 0.76267 0.66337 0.33111 0.0
C709 C 0.77344 0.70028 0.33577 0.0
H710 H 0.19188 0.69678 0.10923 0.0
H711 H 0.25991 0.61271 0.12023 0.0
H712 H 0.29696 0.66363 0.12165 0.0
H713 H 0.23239 0.75533 0.07256 0.0
H714 H 0.21808 0.79956 0.08323 0.0
H715 H 0.19646 0.75687 0.08488 0.0
H716 H 0.19141 0.76594 0.12828 0.0
H717 H 0.21283 0.80887 0.12674 0.0
H718 H 0.22385 0.77114 0.14558 0.0
H719 H 0.32719 0.72342 0.11943 0.0
H720 H 0.34781 0.78812 0.11507 0.0
H721 H 0.26013 0.83278 0.10549 0.0
C722 C 0.21449 0.68916 0.11234 0.0
C723 C 0.22296 0.65077 0.11469 0.0
C724 C 0.25287 0.64194 0.1184 0.0
C725 C 0.27412 0.67066 0.11924 0.0
C726 C 0.26516 0.70815 0.11637 0.0
C727 C 0.23605 0.71751 0.11315 0.0
C728 C 0.23239 0.75988 0.10965 0.0
C729 C 0.21905 0.76839 0.08619 0.0
C730 C 0.21404 0.77749 0.1287 0.0
C731 C 0.26398 0.77272 0.11113 0.0
C732 C 0.28257 0.74252 0.11508 0.0
C733 C 0.31283 0.74737 0.11651 0.0
C734 C 0.32436 0.78415 0.11394 0.0
C735 C 0.30563 0.81549 0.10997 0.0
C736 C 0.27507 0.80947 0.10859 0.0
H737 H 0.74704 0.17137 0.10081 0.0
H738 H 0.65801 0.20429 0.08398 0.0
H739 H 0.67439 0.27039 0.0783 0.0
H740 H 0.76492 0.25522 0.1323 0.0
H741 H 0.80217 0.25766 0.12265 0.0
H742 H 0.78387 0.21239 0.12427 0.0
H743 H 0.79497 0.19999 0.08192 0.0
H744 H 0.81322 0.24532 0.08013 0.0
H745 H 0.78351 0.23423 0.06096 0.0
H746 H 0.69953 0.33249 0.07542 0.0
H747 H 0.73158 0.3885 0.07702 0.0
H748 H 0.80499 0.31682 0.09614 0.0
C749 C 0.73104 0.19246 0.09579 0.0
C750 C 0.70122 0.18266 0.09276 0.0
C751 C 0.68092 0.21112 0.0864 0.0
C752 C 0.69004 0.24871 0.08305 0.0
C753 C 0.71952 0.25742 0.08618 0.0
C754 C 0.73975 0.23026 0.0925 0.0
C755 C 0.76992 0.24773 0.09562 0.0
C756 C 0.78085 0.24297 0.12017 0.0
C757 C 0.79169 0.23081 0.07864 0.0
C758 C 0.76338 0.28905 0.09026 0.0
C759 C 0.73417 0.29375 0.08471 0.0
C760 C 0.72245 0.32919 0.07966 0.0
C761 C 0.74091 0.36086 0.08066 0.0
C762 C 0.77084 0.35711 0.08671 0.0
C763 C 0.7823 0.32055 0.09127 0.0
H764 H 0.69681 0.78392 0.60748 0.0
H765 H 0.77001 0.86141 0.61642 0.0
H766 H 0.80376 0.80705 0.61868 0.0
H767 H 0.7242 0.70992 0.6455 0.0
H768 H 0.71095 0.67163 0.62783 0.0
H769 H 0.69217 0.71664 0.62796 0.0
H770 H 0.69778 0.72121 0.58438 0.0
H771 H 0.71659 0.67629 0.58413 0.0
H772 H 0.73368 0.71775 0.57213 0.0
H773 H 0.8301 0.74456 0.61831 0.0
H774 H 0.84684 0.67786 0.61556 0.0
H775 H 0.75678 0.64092 0.60713 0.0
C776 C 0.71989 0.7894 0.61012 0.0
C777 C 0.73072 0.82697 0.61178 0.0
C778 C 0.76114 0.83292 0.61507 0.0
C779 C 0.78054 0.80221 0.61642 0.0
C780 C 0.76926 0.76559 0.61451 0.0
C781 C 0.73965 0.75899 0.61149 0.0
C782 C 0.7334 0.71681 0.60931 0.0
C783 C 0.71403 0.70294 0.62882 0.0
C784 C 0.71955 0.70748 0.58611 0.0
C785 C 0.76412 0.70091 0.61129 0.0
C786 C 0.78448 0.7295 0.61437 0.0
C787 C 0.81434 0.72185 0.61605 0.0
C788 C 0.82366 0.68392 0.61444 0.0
C789 C 0.80317 0.65418 0.61119 0.0
C790 C 0.77302 0.66297 0.60975 0.0
H791 H 0.19775 0.28787 0.59439 0.0
H792 H 0.26849 0.37018 0.59187 0.0
H793 H 0.30445 0.31811 0.59202 0.0
H794 H 0.23333 0.22315 0.6321 0.0
H795 H 0.21913 0.18104 0.61843 0.0
H796 H 0.19873 0.22476 0.61726 0.0
H797 H 0.1978 0.22121 0.57338 0.0
H798 H 0.21813 0.17741 0.57442 0.0
H799 H 0.23173 0.21698 0.55823 0.0
H800 H 0.33305 0.25711 0.5935 0.0
H801 H 0.35185 0.19124 0.59589 0.0
H802 H 0.26267 0.14892 0.5975 0.0
C803 C 0.22079 0.2949 0.59369 0.0
C804 C 0.23025 0.33313 0.59308 0.0
C805 C 0.26064 0.34112 0.59233 0.0
C806 C 0.2813 0.31174 0.5924 0.0
C807 C 0.2713 0.2744 0.59321 0.0
C808 C 0.24178 0.26586 0.59379 0.0
C809 C 0.23691 0.22332 0.59504 0.0
C810 C 0.22109 0.21244 0.61702 0.0
C811 C 0.22015 0.20889 0.57401 0.0
C812 C 0.26826 0.20941 0.59521 0.0
C813 C 0.28779 0.23929 0.59409 0.0
C814 C 0.31797 0.23343 0.5943 0.0
C815 C 0.32846 0.19596 0.59568 0.0
C816 C 0.30879 0.16494 0.59686 0.0
C817 C 0.27832 0.17198 0.59657 0.0
H818 H 0.73161 0.15501 0.84844 0.0
H819 H 0.6402 0.18663 0.85415 0.0
H820 H 0.65451 0.25431 0.85633 0.0
H821 H 0.76031 0.22549 0.88702 0.0
H822 H 0.79273 0.23434 0.87068 0.0
H823 H 0.77544 0.18831 0.86963 0.0
H824 H 0.77114 0.1931 0.82592 0.0
H825 H 0.78851 0.23907 0.82682 0.0
H826 H 0.75319 0.23366 0.81342 0.0
H827 H 0.67847 0.31802 0.85787 0.0
H828 H 0.71023 0.37445 0.85767 0.0
H829 H 0.78657 0.30207 0.85085 0.0
C830 C 0.71457 0.17615 0.85014 0.0
C831 C 0.68473 0.16553 0.85113 0.0
C832 C 0.66315 0.19408 0.85332 0.0
C833 C 0.67108 0.23258 0.85462 0.0
C834 C 0.70067 0.24202 0.85368 0.0
C835 C 0.72209 0.2147 0.85142 0.0
C836 C 0.75229 0.23258 0.85058 0.0
C837 C 0.77131 0.21939 0.87068 0.0
C838 C 0.76715 0.2241 0.82783 0.0
C839 C 0.74449 0.27431 0.85268 0.0
C840 C 0.71457 0.27898 0.85451 0.0
C841 C 0.70191 0.31473 0.85645 0.0
C842 C 0.72022 0.34663 0.85632 0.0
C843 C 0.75096 0.34276 0.85424 0.0
C844 C 0.76321 0.30599 0.85255 0.0
H845 H 0.22426 0.65363 0.83927 0.0
H846 H 0.1386 0.69936 0.82274 0.0
H847 H 0.16027 0.7634 0.81897 0.0
H848 H 0.24766 0.73037 0.87338 0.0
H849 H 0.28518 0.72902 0.86427 0.0
H850 H 0.26347 0.6863 0.8638 0.0
H851 H 0.27459 0.67728 0.82113 0.0
H852 H 0.2964 0.72 0.82148 0.0
H853 H 0.26652 0.71521 0.80156 0.0
H854 H 0.19047 0.82261 0.81921 0.0
H855 H 0.22691 0.87364 0.8239 0.0
H856 H 0.2933 0.78984 0.84056 0.0
C857 C 0.21011 0.67701 0.83454 0.0
C858 C 0.17972 0.67149 0.83118 0.0
C859 C 0.16191 0.70291 0.82532 0.0
C860 C 0.17404 0.73935 0.8231 0.0
C861 C 0.20401 0.74386 0.82677 0.0
C862 C 0.22183 0.71358 0.83234 0.0
C863 C 0.25308 0.72647 0.83653 0.0
C864 C 0.26291 0.71751 0.86094 0.0
C865 C 0.27387 0.70868 0.81913 0.0
C866 C 0.24995 0.76889 0.83284 0.0
C867 C 0.22148 0.77819 0.82704 0.0
C868 C 0.21286 0.81566 0.82357 0.0
C869 C 0.23376 0.84445 0.82633 0.0
C870 C 0.263 0.83575 0.83257 0.0
C871 C 0.27121 0.79736 0.83559 0.0
H872 H 0.2968 0.03882 0.27346 0.0
H873 H 0.27935 0.91953 0.28641 0.0
H874 H 0.26716 0.91017 0.24596 0.0
H875 H 0.24129 0.05202 0.22617 0.0
H876 H 0.26592 0.08257 0.21092 0.0
H877 H 0.26668 0.08196 0.24148 0.0
H878 H 0.32204 0.06633 0.24089 0.0
H879 H 0.32145 0.06687 0.21047 0.0
H880 H 0.33447 0.02536 0.22529 0.0
H881 H 0.26554 0.91102 0.20416 0.0
H882 H 0.27668 0.92111 0.16385 0.0
H883 H 0.29546 0.03987 0.17753 0.0
C884 C 0.28947 0.01099 0.26794 0.0
C885 C 0.28883 0.97993 0.28309 0.0
C886 C 0.27989 0.94375 0.27511 0.0
C887 C 0.2727 0.93825 0.2522 0.0
C888 C 0.27442 0.96925 0.23757 0.0
C889 C 0.28249 0.00499 0.24514 0.0
C890 C 0.28675 0.03224 0.22559 0.0
C891 C 0.26379 0.06408 0.22607 0.0
C892 C 0.31803 0.04862 0.22557 0.0
C893 C 0.28154 0.00566 0.20576 0.0
C894 C 0.27368 0.96972 0.21309 0.0
C895 C 0.27098 0.9392 0.19817 0.0
C896 C 0.27747 0.94518 0.17533 0.0
C897 C 0.2867 0.98135 0.16766 0.0
C898 C 0.2877 0.01224 0.1829 0.0
H899 H 0.70351 0.96371 0.1812 0.0
H900 H 0.72533 0.08177 0.16843 0.0
H901 H 0.73538 0.09132 0.20914 0.0
H902 H 0.66346 0.97955 0.22738 0.0
H903 H 0.67432 0.93806 0.24323 0.0
H904 H 0.67605 0.93756 0.21286 0.0
H905 H 0.73102 0.91992 0.21481 0.0
H906 H 0.7294 0.91999 0.24534 0.0
H907 H 0.7559 0.94919 0.23107 0.0
H908 H 0.73357 0.09152 0.25127 0.0
H909 H 0.72053 0.08192 0.29139 0.0
H910 H 0.69976 0.96385 0.27678 0.0
C911 C 0.71159 0.99112 0.18684 0.0
C912 C 0.71379 0.02191 0.17167 0.0
C913 C 0.72358 0.05771 0.17978 0.0
C914 C 0.72949 0.06338 0.20287 0.0
C915 C 0.72575 0.0329 0.21759 0.0
C916 C 0.71736 -0.0027 0.20987 0.0
C917 C 0.71095 0.97078 0.22937 0.0
C918 C 0.67933 0.95565 0.22813 0.0
C919 C 0.73315 0.93803 0.23019 0.0
C920 C 0.71528 -0.00233 0.24916 0.0
C921 C 0.72449 0.0331 0.24209 0.0
C922 C 0.72706 0.06364 0.25711 0.0
C923 C 0.71948 0.05796 0.27985 0.0
C924 C 0.70917 0.02213 0.28724 0.0
C925 C 0.70788 0.99149 0.27174 0.0
H926 H 0.68539 0.04673 0.77393 0.0
H927 H 0.7357 0.94466 0.78763 0.0
H928 H 0.74988 0.94169 0.74742 0.0
H929 H 0.65466 0.01567 0.72513 0.0
H930 H 0.65499 0.06045 0.71032 0.0
H931 H 0.65434 0.05982 0.74073 0.0
H932 H 0.70121 0.10126 0.74216 0.0
H933 H 0.70199 0.10206 0.7116 0.0
H934 H 0.73346 0.08578 0.72739 0.0
H935 H 0.75114 0.94274 0.70568 0.0
H936 H 0.73825 0.94654 0.66513 0.0
H937 H 0.68728 0.04808 0.67789 0.0
C938 C 0.70021 0.02448 0.76863 0.0
C939 C 0.70961 0.99604 0.78391 0.0
C940 C 0.72832 0.9668 0.77622 0.0
C941 C 0.73667 0.96506 0.75344 0.0
C942 C 0.72626 0.99288 0.73865 0.0
C943 C 0.70853 0.02218 0.74594 0.0
C944 C 0.69695 0.04529 0.72617 0.0
C945 C 0.66326 0.04526 0.72556 0.0
C946 C 0.70914 0.08602 0.72688 0.0
C947 C 0.70955 0.02307 0.70655 0.0
C948 C 0.72698 0.99351 0.71417 0.0
C949 C 0.73821 0.96631 0.69946 0.0
C950 C 0.73068 0.96862 0.67648 0.0
C951 C 0.71207 -0.00214 0.66846 0.0
C952 C 0.70224 0.02615 0.68354 0.0
H953 H 0.29079 0.95404 0.77595 0.0
H954 H 0.29169 0.07536 0.78965 0.0
H955 H 0.28099 0.08782 0.74924 0.0
H956 H 0.32961 0.95766 0.72802 0.0
H957 H 0.31047 0.92034 0.71304 0.0
H958 H 0.31113 0.92065 0.74345 0.0
H959 H 0.25447 0.91961 0.74408 0.0
H960 H 0.25362 0.91917 0.71352 0.0
H961 H 0.23418 0.95544 0.72887 0.0
H962 H 0.27937 0.08736 0.70716 0.0
H963 H 0.28834 0.07444 0.66678 0.0
H964 H 0.28887 0.95326 0.68036 0.0
C965 C 0.28785 0.98325 0.77065 0.0
C966 C 0.29202 0.01376 0.78596 0.0
C967 C 0.28847 0.05154 0.77823 0.0
C968 C 0.28221 0.05886 0.75534 0.0
C969 C 0.27929 0.02808 0.74053 0.0
C970 C 0.28179 0.99098 0.74793 0.0
C971 C 0.28178 0.96317 0.72831 0.0
C972 C 0.30992 0.93908 0.72821 0.0
C973 C 0.25437 0.93786 0.72872 0.0
C974 C 0.28074 0.99053 0.70861 0.0
C975 C 0.27853 0.02779 0.71602 0.0
C976 C 0.28043 0.05832 0.70113 0.0
C977 C 0.28568 0.05067 0.67823 0.0
C978 C 0.28921 0.0128 0.67048 0.0
C979 C 0.28565 0.98239 0.68574 0.0
H980 H 0.77936 0.55548 0.1789 0.0
H981 H 0.77 0.43631 0.16116 0.0
H982 H 0.75905 0.42112 0.20095 0.0
H983 H 0.81813 0.54138 0.22697 0.0
H984 H 0.80229 0.57931 0.24337 0.0
H985 H 0.80265 0.58234 0.21301 0.0
H986 H 0.74637 0.59108 0.21231 0.0
H987 H 0.74586 0.5883 0.24282 0.0
H988 H 0.72341 0.55658 0.22609 0.0
H989 H 0.75766 0.41715 0.24311 0.0
H990 H 0.76645 0.42502 0.28423 0.0
H991 H 0.77692 0.54659 0.27449 0.0
C992 C 0.7739 0.52645 0.18326 0.0
C993 C 0.77536 0.49714 0.16697 0.0
C994 C 0.76894 0.45925 0.1734 0.0
C995 C 0.76252 0.45035 0.19594 0.0
C996 C 0.76241 0.47967 0.21181 0.0
C997 C 0.76768 0.51705 0.20573 0.0
C998 C 0.77012 0.54244 0.22638 0.0
C999 C 0.80007 0.5625 0.22749 0.0
C1000 C 0.74493 0.5713 0.22693 0.0
C1001 C 0.76703 0.5132 0.24498 0.0
C1002 C 0.7619 0.4773 0.23629 0.0
C1003 C 0.76101 0.44525 0.25017 0.0
C1004 C 0.76609 0.44997 0.2735 0.0
C1005 C 0.77236 0.48639 0.28257 0.0
C1006 C 0.77198 0.51838 0.26813 0.0
H1007 H 0.18866 0.52938 0.26794 0.0
H1008 H 0.1911 0.40778 0.28023 0.0
H1009 H 0.20064 0.39638 0.23979 0.0
H1010 H 0.14948 0.52557 0.21934 0.0
H1011 H 0.16801 0.56351 0.20478 0.0
H1012 H 0.16755 0.5628 0.2352 0.0
H1013 H 0.22421 0.5651 0.23636 0.0
H1014 H 0.22484 0.56607 0.20581 0.0
H1015 H 0.24487 0.52998 0.22102 0.0
H1016 H 0.20061 0.3974 0.19734 0.0
H1017 H 0.19256 0.41154 0.15668 0.0
H1018 H 0.19171 0.53219 0.17237 0.0
C1019 C 0.19222 0.50046 0.26227 0.0
C1020 C 0.18911 0.46955 0.27726 0.0
C1021 C 0.19336 0.43201 0.26908 0.0
C1022 C 0.19894 0.42519 0.24612 0.0
C1023 C 0.20064 0.4562 0.23158 0.0
C1024 C 0.19785 0.49316 0.2394 0.0
C1025 C 0.19738 0.52118 0.22001 0.0
C1026 C 0.16891 0.5446 0.21983 0.0
C1027 C 0.22444 0.54711 0.22085 0.0
C1028 C 0.19864 0.49408 0.2001 0.0
C1029 C 0.20103 0.45675 0.20704 0.0
C1030 C 0.19948 0.42659 0.19164 0.0
C1031 C 0.19483 0.43484 0.1686 0.0
C1032 C 0.19161 0.47292 0.16131 0.0
C1033 C 0.19441 0.50275 0.17729 0.0
H1034 H 0.1773 0.5409 0.77392 0.0
H1035 H 0.19105 0.42219 0.79092 0.0
H1036 H 0.20598 0.40954 0.75142 0.0
H1037 H 0.14325 0.52497 0.7235 0.0
H1038 H 0.15844 0.56528 0.70887 0.0
H1039 H 0.1548 0.56652 0.73914 0.0
H1040 H 0.21017 0.5809 0.74349 0.0
H1041 H 0.21399 0.5798 0.71311 0.0
H1042 H 0.23645 0.54955 0.73065 0.0
H1043 H 0.21243 0.40817 0.70941 0.0
H1044 H 0.20765 0.41702 0.66818 0.0
H1045 H 0.18849 0.53661 0.67858 0.0
C1046 C 0.18424 0.5124 0.76958 0.0
C1047 C 0.18317 0.48254 0.78556 0.0
C1048 C 0.19186 0.44553 0.779 0.0
C1049 C 0.20051 0.43815 0.75664 0.0
C1050 C 0.20051 0.46813 0.74117 0.0
C1051 C 0.19267 0.50456 0.7474 0.0
C1052 C 0.19087 0.53079 0.72713 0.0
C1053 C 0.16001 0.54785 0.72451 0.0
C1054 C 0.21427 0.56211 0.72869 0.0
C1055 C 0.19754 0.50302 0.70829 0.0
C1056 C 0.20373 0.46725 0.71679 0.0
C1057 C 0.20812 0.43617 0.70259 0.0
C1058 C 0.20525 0.4415 0.67917 0.0
C1059 C 0.19771 0.47757 0.67015 0.0
C1060 C 0.19473 0.50889 0.68492 0.0
H1061 H 0.78914 0.53405 0.67192 0.0
H1062 H 0.76699 0.4153 0.66102 0.0
H1063 H 0.75009 0.41091 0.70058 0.0
H1064 H 0.81989 0.52321 0.72393 0.0
H1065 H 0.80686 0.56721 0.73586 0.0
H1066 H 0.81162 0.56304 0.70579 0.0
H1067 H 0.75754 0.58239 0.69924 0.0
H1068 H 0.75259 0.58659 0.72943 0.0
H1069 H 0.72887 0.55607 0.71297 0.0
H1070 H 0.74378 0.41636 0.74227 0.0
H1071 H 0.74936 0.43075 0.78299 0.0
H1072 H 0.77474 0.54631 0.7668 0.0
C1073 C 0.78003 0.50733 0.67763 0.0
C1074 C 0.77935 0.47501 0.66336 0.0
C1075 C 0.76762 0.44048 0.67161 0.0
C1076 C 0.75782 0.43778 0.69402 0.0
C1077 C 0.75955 0.46997 0.70781 0.0
C1078 C 0.77016 0.5042 0.69987 0.0
C1079 C 0.77294 0.53331 0.71871 0.0
C1080 C 0.80471 0.54748 0.72121 0.0
C1081 C 0.75171 0.56655 0.71485 0.0
C1082 C 0.76381 0.50949 0.73876 0.0
C1083 C 0.75557 0.47327 0.73204 0.0
C1084 C 0.74946 0.44485 0.7477 0.0
C1085 C 0.75277 0.45326 0.77078 0.0
C1086 C 0.76217 0.48977 0.77797 0.0
C1087 C 0.76674 0.51854 0.76177 0.0
loop_
_geom_bond_atom_site_label_1
_geom_bond_atom_site_label_2
_geom_bond_distance
_geom_bond_site_symmetry_2
_ccdc_geom_bond_type
C0 O1 1.306 1_545 S
C0 O3 1.160 . S
O1 C0 1.306 1_565 S
O1 Cd2 2.228 . S
Cd2 O1 2.228 . S
Cd2 O6 2.273 1_565 S
Cd2 O10 2.277 1_565 S
O3 C0 1.160 . S
O3 Cd4 2.203 . S
Cd4 O3 2.203 . S
Cd4 O6 2.411 . S
Cd4 O7 2.333 . S
Cd4 O8 2.352 . S
Cd4 O12 2.277 . S
Cd4 O13 2.356 . S
C5 O10 1.209 . S
C5 O12 1.226 . S
O6 Cd2 2.273 1_545 S
O6 Cd4 2.411 . S
O6 C9 1.320 . S
O7 Cd4 2.333 . S
O7 C9 1.214 . S
O8 Cd4 2.352 . S
O8 C11 1.258 . S
C9 O6 1.320 . S
C9 O7 1.214 . S
O10 Cd2 2.277 1_545 S
O10 C5 1.209 . S
C11 O8 1.258 . S
C11 O13 1.282 . S
O12 Cd4 2.277 . S
O12 C5 1.226 . S
O13 Cd4 2.356 . S
O13 C11 1.282 . S
C14 O15 1.306 1_565 S
C14 O17 1.160 . S
O15 C14 1.306 1_545 S
O15 Cd16 2.228 . S
Cd16 O15 2.228 . S
Cd16 O20 2.273 1_545 S
Cd16 O24 2.277 1_545 S
O17 C14 1.160 . S
O17 Cd18 2.203 . S
Cd18 O17 2.203 . S
Cd18 O20 2.411 . S
Cd18 O21 2.333 . S
Cd18 O22 2.352 . S
Cd18 O26 2.277 . S
Cd18 O27 2.356 . S
C19 O24 1.209 . S
C19 O26 1.226 . S
O20 Cd16 2.273 1_565 S
O20 Cd18 2.411 . S
O20 C23 1.320 . S
O21 Cd18 2.333 . S
O21 C23 1.214 . S
O22 Cd18 2.352 . S
O22 C25 1.258 . S
C23 O20 1.320 . S
C23 O21 1.214 . S
O24 Cd16 2.277 1_565 S
O24 C19 1.209 . S
C25 O22 1.258 . S
C25 O27 1.282 . S
O26 Cd18 2.277 . S
O26 C19 1.226 . S
O27 Cd18 2.356 . S
O27 C25 1.282 . S
C28 O29 1.306 1_565 S
C28 O31 1.160 . S
O29 C28 1.306 1_545 S
O29 Cd30 2.228 . S
Cd30 O29 2.228 . S
Cd30 O34 2.273 1_545 S
Cd30 O38 2.277 1_545 S
O31 C28 1.160 . S
O31 Cd32 2.203 . S
Cd32 O31 2.203 . S
Cd32 O34 2.411 . S
Cd32 O35 2.333 . S
Cd32 O36 2.352 . S
Cd32 O40 2.277 . S
Cd32 O41 2.356 . S
C33 O38 1.209 . S
C33 O40 1.226 . S
O34 Cd30 2.273 1_565 S
O34 Cd32 2.411 . S
O34 C37 1.320 . S
O35 Cd32 2.333 . S
O35 C37 1.214 . S
O36 Cd32 2.352 . S
O36 C39 1.258 . S
C37 O34 1.320 . S
C37 O35 1.214 . S
O38 Cd30 2.277 1_565 S
O38 C33 1.209 . S
C39 O36 1.258 . S
C39 O41 1.282 . S
O40 Cd32 2.277 . S
O40 C33 1.226 . S
O41 Cd32 2.356 . S
O41 C39 1.282 . S
C42 O43 1.306 1_545 S
C42 O45 1.160 . S
O43 C42 1.306 1_565 S
O43 Cd44 2.228 . S
Cd44 O43 2.228 . S
Cd44 O48 2.273 1_565 S
Cd44 O52 2.277 1_565 S
O45 C42 1.160 . S
O45 Cd46 2.203 . S
Cd46 O45 2.203 . S
Cd46 O48 2.411 . S
Cd46 O49 2.333 . S
Cd46 O50 2.352 . S
Cd46 O54 2.277 . S
Cd46 O55 2.356 . S
C47 O52 1.209 . S
C47 O54 1.226 . S
O48 Cd44 2.273 1_545 S
O48 Cd46 2.411 . S
O48 C51 1.320 . S
O49 Cd46 2.333 . S
O49 C51 1.214 . S
O50 Cd46 2.352 . S
O50 C53 1.258 . S
C51 O48 1.320 . S
C51 O49 1.214 . S
O52 Cd44 2.277 1_545 S
O52 C47 1.209 . S
C53 O50 1.258 . S
C53 O55 1.282 . S
O54 Cd46 2.277 . S
O54 C47 1.226 . S
O55 Cd46 2.356 . S
O55 C53 1.282 . S
C56 O57 1.306 1_565 S
C56 O59 1.160 . S
O57 C56 1.306 1_545 S
O57 Cd58 2.228 . S
Cd58 O57 2.228 . S
Cd58 O62 2.273 1_545 S
Cd58 O66 2.277 1_545 S
O59 C56 1.160 . S
O59 Cd60 2.203 . S
Cd60 O59 2.203 . S
Cd60 O62 2.411 . S
Cd60 O63 2.333 . S
Cd60 O64 2.352 . S
Cd60 O68 2.277 . S
Cd60 O69 2.356 . S
C61 O66 1.209 . S
C61 O68 1.226 . S
O62 Cd58 2.273 1_565 S
O62 Cd60 2.411 . S
O62 C65 1.320 . S
O63 Cd60 2.333 . S
O63 C65 1.214 . S
O64 Cd60 2.352 . S
O64 C67 1.258 . S
C65 O62 1.320 . S
C65 O63 1.214 . S
O66 Cd58 2.277 1_565 S
O66 C61 1.209 . S
C67 O64 1.258 . S
C67 O69 1.282 . S
O68 Cd60 2.277 . S
O68 C61 1.226 . S
O69 Cd60 2.356 . S
O69 C67 1.282 . S
C70 O71 1.306 1_545 S
C70 O73 1.160 . S
O71 C70 1.306 1_565 S
O71 Cd72 2.228 . S
Cd72 O71 2.228 . S
Cd72 O76 2.273 1_565 S
Cd72 O80 2.277 1_565 S
O73 C70 1.160 . S
O73 Cd74 2.203 . S
Cd74 O73 2.203 . S
Cd74 O76 2.411 . S
Cd74 O77 2.333 . S
Cd74 O78 2.352 . S
Cd74 O82 2.277 . S
Cd74 O83 2.356 . S
C75 O80 1.209 . S
C75 O82 1.226 . S
O76 Cd72 2.273 1_545 S
O76 Cd74 2.411 . S
O76 C79 1.320 . S
O77 Cd74 2.333 . S
O77 C79 1.214 . S
O78 Cd74 2.352 . S
O78 C81 1.258 . S
C79 O76 1.320 . S
C79 O77 1.214 . S
O80 Cd72 2.277 1_545 S
O80 C75 1.209 . S
C81 O78 1.258 . S
C81 O83 1.282 . S
O82 Cd74 2.277 . S
O82 C75 1.226 . S
O83 Cd74 2.356 . S
O83 C81 1.282 . S
C84 O85 1.306 1_545 S
C84 O87 1.160 . S
O85 C84 1.306 1_565 S
O85 Cd86 2.228 . S
Cd86 O85 2.228 . S
Cd86 O90 2.273 1_565 S
Cd86 O94 2.277 1_565 S
O87 C84 1.160 . S
O87 Cd88 2.203 . S
Cd88 O87 2.203 . S
Cd88 O90 2.411 . S
Cd88 O91 2.333 . S
Cd88 O92 2.352 . S
Cd88 O96 2.277 . S
Cd88 O97 2.356 . S
C89 O94 1.209 . S
C89 O96 1.226 . S
O90 Cd86 2.273 1_545 S
O90 Cd88 2.411 . S
O90 C93 1.320 . S
O91 Cd88 2.333 . S
O91 C93 1.214 . S
O92 Cd88 2.352 . S
O92 C95 1.258 . S
C93 O90 1.320 . S
C93 O91 1.214 . S
O94 Cd86 2.277 1_545 S
O94 C89 1.209 . S
C95 O92 1.258 . S
C95 O97 1.282 . S
O96 Cd88 2.277 . S
O96 C89 1.226 . S
O97 Cd88 2.356 . S
O97 C95 1.282 . S
C98 O99 1.306 1_565 S
C98 O101 1.160 . S
O99 C98 1.306 1_545 S
O99 Cd100 2.228 . S
Cd100 O99 2.228 . S
Cd100 O104 2.273 1_545 S
Cd100 O108 2.277 1_545 S
O101 C98 1.160 . S
O101 Cd102 2.203 . S
Cd102 O101 2.203 . S
Cd102 O104 2.411 . S
Cd102 O105 2.333 . S
Cd102 O106 2.352 . S
Cd102 O110 2.277 . S
Cd102 O111 2.356 . S
C103 O108 1.209 . S
C103 O110 1.226 . S
O104 Cd100 2.273 1_565 S
O104 Cd102 2.411 . S
O104 C107 1.320 . S
O105 Cd102 2.333 . S
O105 C107 1.214 . S
O106 Cd102 2.352 . S
O106 C109 1.258 . S
C107 O104 1.320 . S
C107 O105 1.214 . S
O108 Cd100 2.277 1_565 S
O108 C103 1.209 . S
C109 O106 1.258 . S
C109 O111 1.282 . S
O110 Cd102 2.277 . S
O110 C103 1.226 . S
O111 Cd102 2.356 . S
O111 C109 1.282 . S
C112 O113 1.306 . S
C112 O115 1.160 . S
O113 C112 1.306 . S
O113 Cd114 2.228 . S
Cd114 O113 2.228 . S
Cd114 O118 2.273 . S
Cd114 O122 2.277 . S
O115 C112 1.160 . S
O115 Cd116 2.203 . S
Cd116 O115 2.203 . S
Cd116 O118 2.411 . S
Cd116 O119 2.333 . S
Cd116 O120 2.352 . S
Cd116 O124 2.277 . S
Cd116 O125 2.356 . S
C117 O122 1.209 . S
C117 O124 1.226 . S
O118 Cd114 2.273 . S
O118 Cd116 2.411 . S
O118 C121 1.320 . S
O119 Cd116 2.333 . S
O119 C121 1.214 . S
O120 Cd116 2.352 . S
O120 C123 1.258 . S
C121 O118 1.320 . S
C121 O119 1.214 . S
O122 Cd114 2.277 . S
O122 C117 1.209 . S
C123 O120 1.258 . S
C123 O125 1.282 . S
O124 Cd116 2.277 . S
O124 C117 1.226 . S
O125 Cd116 2.356 . S
O125 C123 1.282 . S
C126 O127 1.306 . S
C126 O129 1.160 . S
O127 C126 1.306 . S
O127 Cd128 2.228 . S
Cd128 O127 2.228 . S
Cd128 O132 2.273 . S
Cd128 O136 2.277 . S
O129 C126 1.160 . S
O129 Cd130 2.203 . S
Cd130 O129 2.203 . S
Cd130 O132 2.411 . S
Cd130 O133 2.333 . S
Cd130 O134 2.352 . S
Cd130 O138 2.277 . S
Cd130 O139 2.356 . S
C131 O136 1.209 . S
C131 O138 1.226 . S
O132 Cd128 2.273 . S
O132 Cd130 2.411 . S
O132 C135 1.320 . S
O133 Cd130 2.333 . S
O133 C135 1.214 . S
O134 Cd130 2.352 . S
O134 C137 1.258 . S
C135 O132 1.320 . S
C135 O133 1.214 . S
O136 Cd128 2.277 . S
O136 C131 1.209 . S
C137 O134 1.258 . S
C137 O139 1.282 . S
O138 Cd130 2.277 . S
O138 C131 1.226 . S
O139 Cd130 2.356 . S
O139 C137 1.282 . S
C140 O141 1.306 . S
C140 O143 1.160 . S
O141 C140 1.306 . S
O141 Cd142 2.228 . S
Cd142 O141 2.228 . S
Cd142 O146 2.273 . S
Cd142 O150 2.277 . S
O143 C140 1.160 . S
O143 Cd144 2.203 . S
Cd144 O143 2.203 . S
Cd144 O146 2.411 . S
Cd144 O147 2.333 . S
Cd144 O148 2.352 . S
Cd144 O152 2.277 . S
Cd144 O153 2.356 . S
C145 O150 1.209 . S
C145 O152 1.226 . S
O146 Cd142 2.273 . S
O146 Cd144 2.411 . S
O146 C149 1.320 . S
O147 Cd144 2.333 . S
O147 C149 1.214 . S
O148 Cd144 2.352 . S
O148 C151 1.258 . S
C149 O146 1.320 . S
C149 O147 1.214 . S
O150 Cd142 2.277 . S
O150 C145 1.209 . S
C151 O148 1.258 . S
C151 O153 1.282 . S
O152 Cd144 2.277 . S
O152 C145 1.226 . S
O153 Cd144 2.356 . S
O153 C151 1.282 . S
C154 O155 1.306 . S
C154 O157 1.160 . S
O155 C154 1.306 . S
O155 Cd156 2.228 . S
Cd156 O155 2.228 . S
Cd156 O160 2.273 . S
Cd156 O164 2.277 . S
O157 C154 1.160 . S
O157 Cd158 2.203 . S
Cd158 O157 2.203 . S
Cd158 O160 2.411 . S
Cd158 O161 2.333 . S
Cd158 O162 2.352 . S
Cd158 O166 2.277 . S
Cd158 O167 2.356 . S
C159 O164 1.209 . S
C159 O166 1.226 . S
O160 Cd156 2.273 . S
O160 Cd158 2.411 . S
O160 C163 1.320 . S
O161 Cd158 2.333 . S
O161 C163 1.214 . S
O162 Cd158 2.352 . S
O162 C165 1.258 . S
C163 O160 1.320 . S
C163 O161 1.214 . S
O164 Cd156 2.277 . S
O164 C159 1.209 . S
C165 O162 1.258 . S
C165 O167 1.282 . S
O166 Cd158 2.277 . S
O166 C159 1.226 . S
O167 Cd158 2.356 . S
O167 C165 1.282 . S
C168 O169 1.306 . S
C168 O171 1.160 . S
O169 C168 1.306 . S
O169 Cd170 2.228 . S
Cd170 O169 2.228 . S
Cd170 O174 2.273 . S
Cd170 O178 2.277 . S
O171 C168 1.160 . S
O171 Cd172 2.203 . S
Cd172 O171 2.203 . S
Cd172 O174 2.411 . S
Cd172 O175 2.333 . S
Cd172 O176 2.352 . S
Cd172 O180 2.277 . S
Cd172 O181 2.356 . S
C173 O178 1.209 . S
C173 O180 1.226 . S
O174 Cd170 2.273 . S
O174 Cd172 2.411 . S
O174 C177 1.320 . S
O175 Cd172 2.333 . S
O175 C177 1.214 . S
O176 Cd172 2.352 . S
O176 C179 1.258 . S
C177 O174 1.320 . S
C177 O175 1.214 . S
O178 Cd170 2.277 . S
O178 C173 1.209 . S
C179 O176 1.258 . S
C179 O181 1.282 . S
O180 Cd172 2.277 . S
O180 C173 1.226 . S
O181 Cd172 2.356 . S
O181 C179 1.282 . S
C182 O183 1.306 . S
C182 O185 1.160 . S
O183 C182 1.306 . S
O183 Cd184 2.228 . S
Cd184 O183 2.228 . S
Cd184 O188 2.273 . S
Cd184 O192 2.277 . S
O185 C182 1.160 . S
O185 Cd186 2.203 . S
Cd186 O185 2.203 . S
Cd186 O188 2.411 . S
Cd186 O189 2.333 . S
Cd186 O190 2.352 . S
Cd186 O194 2.277 . S
Cd186 O195 2.356 . S
C187 O192 1.209 . S
C187 O194 1.226 . S
O188 Cd184 2.273 . S
O188 Cd186 2.411 . S
O188 C191 1.320 . S
O189 Cd186 2.333 . S
O189 C191 1.214 . S
O190 Cd186 2.352 . S
O190 C193 1.258 . S
C191 O188 1.320 . S
C191 O189 1.214 . S
O192 Cd184 2.277 . S
O192 C187 1.209 . S
C193 O190 1.258 . S
C193 O195 1.282 . S
O194 Cd186 2.277 . S
O194 C187 1.226 . S
O195 Cd186 2.356 . S
O195 C193 1.282 . S
C196 O197 1.306 . S
C196 O199 1.160 . S
O197 C196 1.306 . S
O197 Cd198 2.228 . S
Cd198 O197 2.228 . S
Cd198 O202 2.273 . S
Cd198 O206 2.277 . S
O199 C196 1.160 . S
O199 Cd200 2.203 . S
Cd200 O199 2.203 . S
Cd200 O202 2.411 . S
Cd200 O203 2.333 . S
Cd200 O204 2.352 . S
Cd200 O208 2.277 . S
Cd200 O209 2.356 . S
C201 O206 1.209 . S
C201 O208 1.226 . S
O202 Cd198 2.273 . S
O202 Cd200 2.411 . S
O202 C205 1.320 . S
O203 Cd200 2.333 . S
O203 C205 1.214 . S
O204 Cd200 2.352 . S
O204 C207 1.258 . S
C205 O202 1.320 . S
C205 O203 1.214 . S
O206 Cd198 2.277 . S
O206 C201 1.209 . S
C207 O204 1.258 . S
C207 O209 1.282 . S
O208 Cd200 2.277 . S
O208 C201 1.226 . S
O209 Cd200 2.356 . S
O209 C207 1.282 . S
C210 O211 1.306 . S
C210 O213 1.160 . S
O211 C210 1.306 . S
O211 Cd212 2.228 . S
Cd212 O211 2.228 . S
Cd212 O216 2.273 . S
Cd212 O220 2.277 . S
O213 C210 1.160 . S
O213 Cd214 2.203 . S
Cd214 O213 2.203 . S
Cd214 O216 2.411 . S
Cd214 O217 2.333 . S
Cd214 O218 2.352 . S
Cd214 O222 2.277 . S
Cd214 O223 2.356 . S
C215 O220 1.209 . S
C215 O222 1.226 . S
O216 Cd212 2.273 . S
O216 Cd214 2.411 . S
O216 C219 1.320 . S
O217 Cd214 2.333 . S
O217 C219 1.214 . S
O218 Cd214 2.352 . S
O218 C221 1.258 . S
C219 O216 1.320 . S
C219 O217 1.214 . S
O220 Cd212 2.277 . S
O220 C215 1.209 . S
C221 O218 1.258 . S
C221 O223 1.282 . S
O222 Cd214 2.277 . S
O222 C215 1.226 . S
O223 Cd214 2.356 . S
O223 C221 1.282 . S
H224 C236 0.930 . S
H225 C238 0.930 . S
H226 C239 0.930 . S
H227 C243 0.959 . S
H228 C243 0.959 . S
H229 C243 0.961 . S
H230 C244 0.960 . S
H231 C244 0.961 . S
H232 C244 0.959 . S
H233 C247 0.929 . S
H234 C248 0.931 . S
H235 C250 0.930 . S
C236 H224 0.930 . S
C236 C237 1.399 . S
C236 C241 1.399 . S
C237 C236 1.399 . S
C237 C238 1.376 1_545 S
C238 H225 0.930 . S
C238 C237 1.376 1_565 S
C238 C239 1.388 . S
C239 H226 0.930 . S
C239 C238 1.388 . S
C239 C240 1.390 1_565 S
C240 C239 1.390 1_545 S
C240 C241 1.394 . S
C240 C246 1.465 . S
C241 C236 1.399 . S
C241 C240 1.394 . S
C241 C242 1.516 . S
C242 C241 1.516 . S
C242 C243 1.502 . S
C242 C244 1.561 . S
C242 C245 1.526 . S
C243 H227 0.959 . S
C243 H228 0.959 . S
C243 H229 0.961 . S
C243 C242 1.502 . S
C244 H230 0.960 . S
C244 H231 0.961 . S
C244 H232 0.959 . S
C244 C242 1.561 . S
C245 C242 1.526 . S
C245 C246 1.396 . S
C245 C250 1.390 . S
C246 C240 1.465 . S
C246 C245 1.396 . S
C246 C247 1.399 1_545 S
C247 H233 0.929 . S
C247 C246 1.399 1_565 S
C247 C248 1.385 . S
C248 H234 0.931 . S
C248 C247 1.385 . S
C248 C249 1.389 1_565 S
C249 C248 1.389 1_545 S
C249 C250 1.387 . S
C250 H235 0.930 . S
C250 C245 1.390 . S
C250 C249 1.387 . S
H251 C263 0.930 . S
H252 C265 0.930 . S
H253 C266 0.930 . S
H254 C270 0.959 . S
H255 C270 0.959 . S
H256 C270 0.961 . S
H257 C271 0.960 . S
H258 C271 0.961 . S
H259 C271 0.959 . S
H260 C274 0.929 . S
H261 C275 0.931 . S
H262 C277 0.930 . S
C263 H251 0.930 . S
C263 C264 1.399 . S
C263 C268 1.399 . S
C264 C263 1.399 . S
C264 C265 1.376 1_565 S
C265 H252 0.930 . S
C265 C264 1.376 1_545 S
C265 C266 1.388 . S
C266 H253 0.930 . S
C266 C265 1.388 . S
C266 C267 1.390 1_545 S
C267 C266 1.390 1_565 S
C267 C268 1.394 . S
C267 C273 1.465 . S
C268 C263 1.399 . S
C268 C267 1.394 . S
C268 C269 1.516 . S
C269 C268 1.516 . S
C269 C270 1.502 . S
C269 C271 1.561 . S
C269 C272 1.526 . S
C270 H254 0.959 . S
C270 H255 0.959 . S
C270 H256 0.961 . S
C270 C269 1.502 . S
C271 H257 0.960 . S
C271 H258 0.961 . S
C271 H259 0.959 . S
C271 C269 1.561 . S
C272 C269 1.526 . S
C272 C273 1.396 . S
C272 C277 1.390 . S
C273 C267 1.465 . S
C273 C272 1.396 . S
C273 C274 1.399 1_565 S
C274 H260 0.929 . S
C274 C273 1.399 1_545 S
C274 C275 1.385 . S
C275 H261 0.931 . S
C275 C274 1.385 . S
C275 C276 1.389 1_545 S
C276 C275 1.389 1_565 S
C276 C277 1.387 . S
C277 H262 0.930 . S
C277 C272 1.390 . S
C277 C276 1.387 . S
H278 C290 0.930 . S
H279 C292 0.930 . S
H280 C293 0.930 . S
H281 C297 0.962 . S
H282 C297 0.979 . S
H283 C297 0.939 1_554 S
H284 C298 0.957 1_554 S
H285 C298 0.963 . S
H286 C298 0.959 . S
H287 C301 0.929 . S
H288 C302 0.931 . S
H289 C304 0.930 . S
C290 H278 0.930 . S
C290 C291 1.399 . S
C290 C295 1.399 . S
C291 C290 1.399 . S
C291 C292 1.376 1_565 S
C292 H279 0.930 . S
C292 C291 1.376 1_545 S
C292 C293 1.388 . S
C293 H280 0.930 . S
C293 C292 1.388 . S
C293 C294 1.390 1_545 S
C294 C293 1.390 1_565 S
C294 C295 1.394 . S
C294 C300 1.465 1_554 S
C295 C290 1.399 . S
C295 C294 1.394 . S
C295 C296 1.517 1_554 S
C296 C295 1.517 1_556 S
C296 C297 1.502 . S
C296 C298 1.561 . S
C296 C299 1.525 . S
C297 H281 0.962 . S
C297 H282 0.979 . S
C297 H283 0.939 1_556 S
C297 C296 1.502 . S
C298 H284 0.957 1_556 S
C298 H285 0.963 . S
C298 H286 0.959 . S
C298 C296 1.561 . S
C299 C296 1.525 . S
C299 C300 1.396 . S
C299 C304 1.390 . S
C300 C294 1.465 1_556 S
C300 C299 1.396 . S
C300 C301 1.399 1_565 S
C301 H287 0.929 . S
C301 C300 1.399 1_545 S
C301 C302 1.385 . S
C302 H288 0.931 . S
C302 C301 1.385 . S
C302 C303 1.389 1_545 S
C303 C302 1.389 1_565 S
C303 C304 1.387 . S
C304 H289 0.930 . S
C304 C299 1.390 . S
C304 C303 1.387 . S
H305 C317 0.930 . S
H306 C319 0.930 . S
H307 C320 0.930 . S
H308 C324 0.962 . S
H309 C324 0.979 . S
H310 C324 0.939 1_556 S
H311 C325 0.958 1_556 S
H312 C325 0.963 . S
H313 C325 0.959 . S
H314 C328 0.929 . S
H315 C329 0.931 . S
H316 C331 0.930 . S
C317 H305 0.930 . S
C317 C318 1.399 1_565 S
C317 C322 1.399 1_565 S
C318 C317 1.399 1_545 S
C318 C319 1.376 . S
C319 H306 0.930 . S
C319 C318 1.376 . S
C319 C320 1.388 . S
C320 H307 0.930 . S
C320 C319 1.388 . S
C320 C321 1.390 . S
C321 C320 1.390 . S
C321 C322 1.394 . S
C321 C327 1.465 1_556 S
C322 C317 1.399 1_545 S
C322 C321 1.394 . S
C322 C323 1.517 1_546 S
C323 C322 1.517 1_564 S
C323 C324 1.502 . S
C323 C325 1.561 . S
C323 C326 1.525 1_565 S
C324 H308 0.962 . S
C324 H309 0.979 . S
C324 H310 0.939 1_554 S
C324 C323 1.502 . S
C325 H311 0.958 1_554 S
C325 H312 0.963 . S
C325 H313 0.959 . S
C325 C323 1.561 . S
C326 C323 1.525 1_545 S
C326 C327 1.396 . S
C326 C331 1.390 1_545 S
C327 C321 1.465 1_554 S
C327 C326 1.396 . S
C327 C328 1.399 . S
C328 H314 0.929 . S
C328 C327 1.399 . S
C328 C329 1.385 . S
C329 H315 0.931 . S
C329 C328 1.385 . S
C329 C330 1.389 . S
C330 C329 1.389 . S
C330 C331 1.387 1_545 S
C331 H316 0.930 . S
C331 C326 1.390 1_565 S
C331 C330 1.387 1_565 S
H332 C344 0.930 . S
H333 C346 0.930 . S
H334 C347 0.930 . S
H335 C351 0.959 . S
H336 C351 0.959 . S
H337 C351 0.961 . S
H338 C352 0.960 . S
H339 C352 0.961 . S
H340 C352 0.959 . S
H341 C355 0.929 . S
H342 C356 0.931 . S
H343 C358 0.930 . S
C344 H332 0.930 . S
C344 C345 1.399 . S
C344 C349 1.399 . S
C345 C344 1.399 . S
C345 C346 1.376 . S
C346 H333 0.930 . S
C346 C345 1.376 . S
C346 C347 1.388 . S
C347 H334 0.930 . S
C347 C346 1.388 . S
C347 C348 1.390 . S
C348 C347 1.390 . S
C348 C349 1.394 . S
C348 C354 1.465 . S
C349 C344 1.399 . S
C349 C348 1.394 . S
C349 C350 1.516 . S
C350 C349 1.516 . S
C350 C351 1.502 . S
C350 C352 1.561 . S
C350 C353 1.526 . S
C351 H335 0.959 . S
C351 H336 0.959 . S
C351 H337 0.961 . S
C351 C350 1.502 . S
C352 H338 0.960 . S
C352 H339 0.961 . S
C352 H340 0.959 . S
C352 C350 1.561 . S
C353 C350 1.526 . S
C353 C354 1.396 . S
C353 C358 1.390 . S
C354 C348 1.465 . S
C354 C353 1.396 . S
C354 C355 1.399 . S
C355 H341 0.929 . S
C355 C354 1.399 . S
C355 C356 1.385 . S
C356 H342 0.931 . S
C356 C355 1.385 . S
C356 C357 1.389 . S
C357 C356 1.389 . S
C357 C358 1.387 . S
C358 H343 0.930 . S
C358 C353 1.390 . S
C358 C357 1.387 . S
H359 C371 0.930 . S
H360 C373 0.930 . S
H361 C374 0.930 . S
H362 C378 0.959 . S
H363 C378 0.959 . S
H364 C378 0.961 . S
H365 C379 0.960 . S
H366 C379 0.961 . S
H367 C379 0.959 . S
H368 C382 0.929 . S
H369 C383 0.931 . S
H370 C385 0.930 . S
C371 H359 0.930 . S
C371 C372 1.399 . S
C371 C376 1.399 . S
C372 C371 1.399 . S
C372 C373 1.376 . S
C373 H360 0.930 . S
C373 C372 1.376 . S
C373 C374 1.388 . S
C374 H361 0.930 . S
C374 C373 1.388 . S
C374 C375 1.390 . S
C375 C374 1.390 . S
C375 C376 1.394 . S
C375 C381 1.465 . S
C376 C371 1.399 . S
C376 C375 1.394 . S
C376 C377 1.516 . S
C377 C376 1.516 . S
C377 C378 1.502 . S
C377 C379 1.561 . S
C377 C380 1.526 . S
C378 H362 0.959 . S
C378 H363 0.959 . S
C378 H364 0.961 . S
C378 C377 1.502 . S
C379 H365 0.960 . S
C379 H366 0.961 . S
C379 H367 0.959 . S
C379 C377 1.561 . S
C380 C377 1.526 . S
C380 C381 1.396 . S
C380 C385 1.390 . S
C381 C375 1.465 . S
C381 C380 1.396 . S
C381 C382 1.399 . S
C382 H368 0.929 . S
C382 C381 1.399 . S
C382 C383 1.385 . S
C383 H369 0.931 . S
C383 C382 1.385 . S
C383 C384 1.389 . S
C384 C383 1.389 . S
C384 C385 1.387 . S
C385 H370 0.930 . S
C385 C380 1.390 . S
C385 C384 1.387 . S
H386 C398 0.930 . S
H387 C400 0.930 . S
H388 C401 0.930 . S
H389 C405 0.962 . S
H390 C405 0.979 . S
H391 C405 0.939 1_556 S
H392 C406 0.957 1_556 S
H393 C406 0.963 . S
H394 C406 0.959 . S
H395 C409 0.929 . S
H396 C410 0.931 . S
H397 C412 0.930 . S
C398 H386 0.930 . S
C398 C399 1.399 . S
C398 C403 1.399 . S
C399 C398 1.399 . S
C399 C400 1.376 . S
C400 H387 0.930 . S
C400 C399 1.376 . S
C400 C401 1.388 . S
C401 H388 0.930 . S
C401 C400 1.388 . S
C401 C402 1.390 . S
C402 C401 1.390 . S
C402 C403 1.394 . S
C402 C408 1.465 1_556 S
C403 C398 1.399 . S
C403 C402 1.394 . S
C403 C404 1.517 1_556 S
C404 C403 1.517 1_554 S
C404 C405 1.502 . S
C404 C406 1.561 . S
C404 C407 1.525 . S
C405 H389 0.962 . S
C405 H390 0.979 . S
C405 H391 0.939 1_554 S
C405 C404 1.502 . S
C406 H392 0.957 1_554 S
C406 H393 0.963 . S
C406 H394 0.959 . S
C406 C404 1.561 . S
C407 C404 1.525 . S
C407 C408 1.396 . S
C407 C412 1.390 . S
C408 C402 1.465 1_554 S
C408 C407 1.396 . S
C408 C409 1.399 . S
C409 H395 0.929 . S
C409 C408 1.399 . S
C409 C410 1.385 . S
C410 H396 0.931 . S
C410 C409 1.385 . S
C410 C411 1.389 . S
C411 C410 1.389 . S
C411 C412 1.387 . S
C412 H397 0.930 . S
C412 C407 1.390 . S
C412 C411 1.387 . S
H413 C425 0.930 . S
H414 C427 0.930 . S
H415 C428 0.930 . S
H416 C432 0.962 . S
H417 C432 0.979 . S
H418 C432 0.939 1_554 S
H419 C433 0.957 1_554 S
H420 C433 0.963 . S
H421 C433 0.959 . S
H422 C436 0.929 . S
H423 C437 0.931 . S
H424 C439 0.930 . S
C425 H413 0.930 . S
C425 C426 1.399 . S
C425 C430 1.399 . S
C426 C425 1.399 . S
C426 C427 1.376 . S
C427 H414 0.930 . S
C427 C426 1.376 . S
C427 C428 1.388 . S
C428 H415 0.930 . S
C428 C427 1.388 . S
C428 C429 1.390 . S
C429 C428 1.390 . S
C429 C430 1.394 . S
C429 C435 1.465 1_554 S
C430 C425 1.399 . S
C430 C429 1.394 . S
C430 C431 1.517 1_554 S
C431 C430 1.517 1_556 S
C431 C432 1.502 . S
C431 C433 1.561 . S
C431 C434 1.525 . S
C432 H416 0.962 . S
C432 H417 0.979 . S
C432 H418 0.939 1_556 S
C432 C431 1.502 . S
C433 H419 0.957 1_556 S
C433 H420 0.963 . S
C433 H421 0.959 . S
C433 C431 1.561 . S
C434 C431 1.525 . S
C434 C435 1.396 . S
C434 C439 1.390 . S
C435 C429 1.465 1_556 S
C435 C434 1.396 . S
C435 C436 1.399 . S
C436 H422 0.929 . S
C436 C435 1.399 . S
C436 C437 1.385 . S
C437 H423 0.931 . S
C437 C436 1.385 . S
C437 C438 1.389 . S
C438 C437 1.389 . S
C438 C439 1.387 . S
C439 H424 0.930 . S
C439 C434 1.390 . S
C439 C438 1.387 . S
H440 C452 0.930 . S
H441 C454 0.930 . S
H442 C455 0.930 . S
H443 C459 0.959 . S
H444 C459 0.959 . S
H445 C459 0.961 . S
H446 C460 0.960 . S
H447 C460 0.961 . S
H448 C460 0.959 . S
H449 C463 0.929 . S
H450 C464 0.931 . S
H451 C466 0.930 . S
C452 H440 0.930 . S
C452 C453 1.399 . S
C452 C457 1.399 . S
C453 C452 1.399 . S
C453 C454 1.376 1_565 S
C454 H441 0.930 . S
C454 C453 1.376 1_545 S
C454 C455 1.388 . S
C455 H442 0.930 . S
C455 C454 1.388 . S
C455 C456 1.390 . S
C456 C455 1.390 . S
C456 C457 1.394 1_545 S
C456 C462 1.465 . S
C457 C452 1.399 . S
C457 C456 1.394 1_565 S
C457 C458 1.516 . S
C458 C457 1.516 . S
C458 C459 1.502 . S
C458 C460 1.561 . S
C458 C461 1.526 . S
C459 H443 0.959 . S
C459 H444 0.959 . S
C459 H445 0.961 . S
C459 C458 1.502 . S
C460 H446 0.960 . S
C460 H447 0.961 . S
C460 H448 0.959 . S
C460 C458 1.561 . S
C461 C458 1.526 . S
C461 C462 1.396 1_565 S
C461 C466 1.390 . S
C462 C456 1.465 . S
C462 C461 1.396 1_545 S
C462 C463 1.399 . S
C463 H449 0.929 . S
C463 C462 1.399 . S
C463 C464 1.385 . S
C464 H450 0.931 . S
C464 C463 1.385 . S
C464 C465 1.389 . S
C465 C464 1.389 . S
C465 C466 1.387 1_545 S
C466 H451 0.930 . S
C466 C461 1.390 . S
C466 C465 1.387 1_565 S
H467 C479 0.930 . S
H468 C481 0.930 . S
H469 C482 0.930 . S
H470 C486 0.959 . S
H471 C486 0.959 . S
H472 C486 0.961 . S
H473 C487 0.960 . S
H474 C487 0.961 . S
H475 C487 0.959 . S
H476 C490 0.929 . S
H477 C491 0.931 . S
H478 C493 0.930 . S
C479 H467 0.930 . S
C479 C480 1.399 . S
C479 C484 1.399 . S
C480 C479 1.399 . S
C480 C481 1.376 . S
C481 H468 0.930 . S
C481 C480 1.376 . S
C481 C482 1.388 1_565 S
C482 H469 0.930 . S
C482 C481 1.388 1_545 S
C482 C483 1.390 . S
C483 C482 1.390 . S
C483 C484 1.394 1_545 S
C483 C489 1.465 . S
C484 C479 1.399 . S
C484 C483 1.394 1_565 S
C484 C485 1.516 . S
C485 C484 1.516 . S
C485 C486 1.502 . S
C485 C487 1.561 1_565 S
C485 C488 1.526 1_565 S
C486 H470 0.959 . S
C486 H471 0.959 . S
C486 H472 0.961 . S
C486 C485 1.502 . S
C487 H473 0.960 . S
C487 H474 0.961 . S
C487 H475 0.959 . S
C487 C485 1.561 1_545 S
C488 C485 1.526 1_545 S
C488 C489 1.396 . S
C488 C493 1.390 . S
C489 C483 1.465 . S
C489 C488 1.396 . S
C489 C490 1.399 . S
C490 H476 0.929 . S
C490 C489 1.399 . S
C490 C491 1.385 . S
C491 H477 0.931 . S
C491 C490 1.385 . S
C491 C492 1.389 . S
C492 C491 1.389 . S
C492 C493 1.387 . S
C493 H478 0.930 . S
C493 C488 1.390 . S
C493 C492 1.387 . S
H494 C506 0.930 . S
H495 C508 0.930 . S
H496 C509 0.930 . S
H497 C513 0.959 . S
H498 C513 0.959 . S
H499 C513 0.961 . S
H500 C514 0.960 . S
H501 C514 0.961 . S
H502 C514 0.959 . S
H503 C517 0.929 . S
H504 C518 0.931 . S
H505 C520 0.930 . S
C506 H494 0.930 . S
C506 C507 1.399 . S
C506 C511 1.399 . S
C507 C506 1.399 . S
C507 C508 1.376 . S
C508 H495 0.930 . S
C508 C507 1.376 . S
C508 C509 1.388 . S
C509 H496 0.930 . S
C509 C508 1.388 . S
C509 C510 1.390 . S
C510 C509 1.390 . S
C510 C511 1.394 . S
C510 C516 1.465 . S
C511 C506 1.399 . S
C511 C510 1.394 . S
C511 C512 1.516 1_565 S
C512 C511 1.516 1_545 S
C512 C513 1.502 . S
C512 C514 1.561 1_545 S
C512 C515 1.526 . S
C513 H497 0.959 . S
C513 H498 0.959 . S
C513 H499 0.961 . S
C513 C512 1.502 . S
C514 H500 0.960 . S
C514 H501 0.961 . S
C514 H502 0.959 . S
C514 C512 1.561 1_565 S
C515 C512 1.526 . S
C515 C516 1.396 1_545 S
C515 C520 1.390 . S
C516 C510 1.465 . S
C516 C515 1.396 1_565 S
C516 C517 1.399 . S
C517 H503 0.929 . S
C517 C516 1.399 . S
C517 C518 1.385 1_565 S
C518 H504 0.931 . S
C518 C517 1.385 1_545 S
C518 C519 1.389 . S
C519 C518 1.389 . S
C519 C520 1.387 . S
C520 H505 0.930 . S
C520 C515 1.390 . S
C520 C519 1.387 . S
H521 C533 0.930 . S
H522 C535 0.930 . S
H523 C536 0.930 . S
H524 C540 0.959 . S
H525 C540 0.959 . S
H526 C540 0.961 . S
H527 C541 0.960 . S
H528 C541 0.961 . S
H529 C541 0.959 . S
H530 C544 0.929 . S
H531 C545 0.931 . S
H532 C547 0.930 . S
C533 H521 0.930 . S
C533 C534 1.399 . S
C533 C538 1.399 . S
C534 C533 1.399 . S
C534 C535 1.376 . S
C535 H522 0.930 . S
C535 C534 1.376 . S
C535 C536 1.388 . S
C536 H523 0.930 . S
C536 C535 1.388 . S
C536 C537 1.390 . S
C537 C536 1.390 . S
C537 C538 1.394 . S
C537 C543 1.465 1_545 S
C538 C533 1.399 . S
C538 C537 1.394 . S
C538 C539 1.516 1_545 S
C539 C538 1.516 1_565 S
C539 C540 1.502 1_565 S
C539 C541 1.561 . S
C539 C542 1.526 . S
C540 H524 0.959 . S
C540 H525 0.959 . S
C540 H526 0.961 . S
C540 C539 1.502 1_545 S
C541 H527 0.960 . S
C541 H528 0.961 . S
C541 H529 0.959 . S
C541 C539 1.561 . S
C542 C539 1.526 . S
C542 C543 1.396 . S
C542 C547 1.390 . S
C543 C537 1.465 1_565 S
C543 C542 1.396 . S
C543 C544 1.399 . S
C544 H530 0.929 . S
C544 C543 1.399 . S
C544 C545 1.385 . S
C545 H531 0.931 . S
C545 C544 1.385 . S
C545 C546 1.389 . S
C546 C545 1.389 . S
C546 C547 1.387 . S
C547 H532 0.930 . S
C547 C542 1.390 . S
C547 C546 1.387 . S
H548 C560 0.930 . S
H549 C562 0.930 . S
H550 C563 0.930 . S
H551 C567 0.959 . S
H552 C567 0.959 . S
H553 C567 0.961 1_655 S
H554 C568 0.951 1_655 S
H555 C568 0.971 . S
H556 C568 0.957 1_655 S
H557 C571 0.929 . S
H558 C572 0.931 . S
H559 C574 0.930 . S
C560 H548 0.930 . S
C560 C561 1.399 . S
C560 C565 1.399 . S
C561 C560 1.399 . S
C561 C562 1.376 . S
C562 H549 0.930 . S
C562 C561 1.376 . S
C562 C563 1.388 . S
C563 H550 0.930 . S
C563 C562 1.388 . S
C563 C564 1.390 . S
C564 C563 1.390 . S
C564 C565 1.394 . S
C564 C570 1.465 1_655 S
C565 C560 1.399 . S
C565 C564 1.394 . S
C565 C566 1.516 1_655 S
C566 C565 1.516 1_455 S
C566 C567 1.502 . S
C566 C568 1.563 . S
C566 C569 1.526 . S
C567 H551 0.959 . S
C567 H552 0.959 . S
C567 H553 0.961 1_455 S
C567 C566 1.502 . S
C568 H554 0.951 1_455 S
C568 H555 0.971 . S
C568 H556 0.957 1_455 S
C568 C566 1.563 . S
C569 C566 1.526 . S
C569 C570 1.396 . S
C569 C574 1.390 . S
C570 C564 1.465 1_455 S
C570 C569 1.396 . S
C570 C571 1.399 . S
C571 H557 0.929 . S
C571 C570 1.399 . S
C571 C572 1.385 . S
C572 H558 0.931 . S
C572 C571 1.385 . S
C572 C573 1.389 . S
C573 C572 1.389 . S
C573 C574 1.387 . S
C574 H559 0.930 . S
C574 C569 1.390 . S
C574 C573 1.387 . S
H575 C587 0.930 . S
H576 C589 0.930 . S
H577 C590 0.930 . S
H578 C594 0.959 . S
H579 C594 0.959 1_655 S
H580 C594 0.961 . S
H581 C595 0.960 . S
H582 C595 0.961 1_655 S
H583 C595 0.959 1_655 S
H584 C598 0.929 . S
H585 C599 0.931 . S
H586 C601 0.930 . S
C587 H575 0.930 . S
C587 C588 1.399 . S
C587 C592 1.399 . S
C588 C587 1.399 . S
C588 C589 1.376 . S
C589 H576 0.930 . S
C589 C588 1.376 . S
C589 C590 1.388 . S
C590 H577 0.930 . S
C590 C589 1.388 . S
C590 C591 1.390 . S
C591 C590 1.390 . S
C591 C592 1.394 . S
C591 C597 1.465 1_455 S
C592 C587 1.399 . S
C592 C591 1.394 . S
C592 C593 1.516 . S
C593 C592 1.516 . S
C593 C594 1.502 . S
C593 C595 1.561 . S
C593 C596 1.526 1_455 S
C594 H578 0.959 . S
C594 H579 0.959 1_455 S
C594 H580 0.961 . S
C594 C593 1.502 . S
C595 H581 0.960 . S
C595 H582 0.961 1_455 S
C595 H583 0.959 1_455 S
C595 C593 1.561 . S
C596 C593 1.526 1_655 S
C596 C597 1.396 . S
C596 C601 1.390 . S
C597 C591 1.465 1_655 S
C597 C596 1.396 . S
C597 C598 1.399 . S
C598 H584 0.929 . S
C598 C597 1.399 . S
C598 C599 1.385 . S
C599 H585 0.931 . S
C599 C598 1.385 . S
C599 C600 1.389 . S
C600 C599 1.389 . S
C600 C601 1.387 . S
C601 H586 0.930 . S
C601 C596 1.390 . S
C601 C600 1.387 . S
H602 C614 0.930 . S
H603 C616 0.930 . S
H604 C617 0.930 . S
H605 C621 0.959 . S
H606 C621 0.959 . S
H607 C621 0.950 1_655 S
H608 C622 0.960 1_655 S
H609 C622 0.961 . S
H610 C622 0.959 . S
H611 C625 0.929 . S
H612 C626 0.931 . S
H613 C628 0.930 . S
C614 H602 0.930 . S
C614 C615 1.399 . S
C614 C619 1.399 . S
C615 C614 1.399 . S
C615 C616 1.376 . S
C616 H603 0.930 . S
C616 C615 1.376 . S
C616 C617 1.388 . S
C617 H604 0.930 . S
C617 C616 1.388 . S
C617 C618 1.390 . S
C618 C617 1.390 . S
C618 C619 1.394 . S
C618 C624 1.465 1_655 S
C619 C614 1.399 . S
C619 C618 1.394 . S
C619 C620 1.516 1_655 S
C620 C619 1.516 1_455 S
C620 C621 1.502 . S
C620 C622 1.561 . S
C620 C623 1.526 . S
C621 H605 0.959 . S
C621 H606 0.959 . S
C621 H607 0.950 1_455 S
C621 C620 1.502 . S
C622 H608 0.960 1_455 S
C622 H609 0.961 . S
C622 H610 0.959 . S
C622 C620 1.561 . S
C623 C620 1.526 . S
C623 C624 1.396 . S
C623 C628 1.390 . S
C624 C618 1.465 1_455 S
C624 C623 1.396 . S
C624 C625 1.399 . S
C625 H611 0.929 . S
C625 C624 1.399 . S
C625 C626 1.385 . S
C626 H612 0.931 . S
C626 C625 1.385 . S
C626 C627 1.389 . S
C627 C626 1.389 . S
C627 C628 1.387 . S
C628 H613 0.930 . S
C628 C623 1.390 . S
C628 C627 1.387 . S
H629 C641 0.930 . S
H630 C643 0.930 . S
H631 C644 0.930 . S
H632 C648 0.959 . S
H633 C648 0.959 1_655 S
H634 C648 0.961 . S
H635 C649 0.960 1_455 S
H636 C649 0.961 . S
H637 C649 0.959 . S
H638 C652 0.929 . S
H639 C653 0.931 . S
H640 C655 0.930 . S
C641 H629 0.930 . S
C641 C642 1.399 . S
C641 C646 1.399 . S
C642 C641 1.399 . S
C642 C643 1.376 . S
C643 H630 0.930 . S
C643 C642 1.376 . S
C643 C644 1.388 . S
C644 H631 0.930 . S
C644 C643 1.388 . S
C644 C645 1.390 . S
C645 C644 1.390 . S
C645 C646 1.394 . S
C645 C651 1.465 1_455 S
C646 C641 1.399 . S
C646 C645 1.394 . S
C646 C647 1.523 . S
C647 C646 1.523 . S
C647 C648 1.503 . S
C647 C649 1.560 1_455 S
C647 C650 1.519 1_455 S
C648 H632 0.959 . S
C648 H633 0.959 1_455 S
C648 H634 0.961 . S
C648 C647 1.503 . S
C649 H635 0.960 1_655 S
C649 H636 0.961 . S
C649 H637 0.959 . S
C649 C647 1.560 1_655 S
C650 C647 1.519 1_655 S
C650 C651 1.396 . S
C650 C655 1.390 . S
C651 C645 1.465 1_655 S
C651 C650 1.396 . S
C651 C652 1.399 . S
C652 H638 0.929 . S
C652 C651 1.399 . S
C652 C653 1.385 . S
C653 H639 0.931 . S
C653 C652 1.385 . S
C653 C654 1.389 . S
C654 C653 1.389 . S
C654 C655 1.387 . S
C655 H640 0.930 . S
C655 C650 1.390 . S
C655 C654 1.387 . S
H656 C668 0.930 . S
H657 C670 0.930 . S
H658 C671 0.930 . S
H659 C675 0.959 . S
H660 C675 0.959 . S
H661 C675 0.961 . S
H662 C676 0.960 . S
H663 C676 0.961 . S
H664 C676 0.959 . S
H665 C679 0.929 . S
H666 C680 0.931 . S
H667 C682 0.930 . S
C668 H656 0.930 . S
C668 C669 1.399 . S
C668 C673 1.399 . S
C669 C668 1.399 . S
C669 C670 1.376 . S
C670 H657 0.930 . S
C670 C669 1.376 . S
C670 C671 1.388 . S
C671 H658 0.930 . S
C671 C670 1.388 . S
C671 C672 1.390 . S
C672 C671 1.390 . S
C672 C673 1.394 . S
C672 C678 1.465 . S
C673 C668 1.399 . S
C673 C672 1.394 . S
C673 C674 1.516 . S
C674 C673 1.516 . S
C674 C675 1.502 . S
C674 C676 1.561 . S
C674 C677 1.526 . S
C675 H659 0.959 . S
C675 H660 0.959 . S
C675 H661 0.961 . S
C675 C674 1.502 . S
C676 H662 0.960 . S
C676 H663 0.961 . S
C676 H664 0.959 . S
C676 C674 1.561 . S
C677 C674 1.526 . S
C677 C678 1.396 . S
C677 C682 1.390 . S
C678 C672 1.465 . S
C678 C677 1.396 . S
C678 C679 1.399 . S
C679 H665 0.929 . S
C679 C678 1.399 . S
C679 C680 1.385 . S
C680 H666 0.931 . S
C680 C679 1.385 . S
C680 C681 1.389 . S
C681 C680 1.389 . S
C681 C682 1.387 . S
C682 H667 0.930 . S
C682 C677 1.390 . S
C682 C681 1.387 . S
H683 C695 0.930 . S
H684 C697 0.930 . S
H685 C698 0.930 . S
H686 C702 0.959 . S
H687 C702 0.959 . S
H688 C702 0.961 . S
H689 C703 0.960 . S
H690 C703 0.961 . S
H691 C703 0.959 . S
H692 C706 0.929 . S
H693 C707 0.931 . S
H694 C709 0.930 . S
C695 H683 0.930 . S
C695 C696 1.399 . S
C695 C700 1.399 . S
C696 C695 1.399 . S
C696 C697 1.376 . S
C697 H684 0.930 . S
C697 C696 1.376 . S
C697 C698 1.388 . S
C698 H685 0.930 . S
C698 C697 1.388 . S
C698 C699 1.390 . S
C699 C698 1.390 . S
C699 C700 1.394 . S
C699 C705 1.465 . S
C700 C695 1.399 . S
C700 C699 1.394 . S
C700 C701 1.516 . S
C701 C700 1.516 . S
C701 C702 1.502 . S
C701 C703 1.561 . S
C701 C704 1.526 . S
C702 H686 0.959 . S
C702 H687 0.959 . S
C702 H688 0.961 . S
C702 C701 1.502 . S
C703 H689 0.960 . S
C703 H690 0.961 . S
C703 H691 0.959 . S
C703 C701 1.561 . S
C704 C701 1.526 . S
C704 C705 1.396 . S
C704 C709 1.390 . S
C705 C699 1.465 . S
C705 C704 1.396 . S
C705 C706 1.399 . S
C706 H692 0.929 . S
C706 C705 1.399 . S
C706 C707 1.385 . S
C707 H693 0.931 . S
C707 C706 1.385 . S
C707 C708 1.389 . S
C708 C707 1.389 . S
C708 C709 1.387 . S
C709 H694 0.930 . S
C709 C704 1.390 . S
C709 C708 1.387 . S
H710 C722 0.930 . S
H711 C724 0.930 . S
H712 C725 0.930 . S
H713 C729 0.959 . S
H714 C729 0.959 . S
H715 C729 0.961 . S
H716 C730 0.960 . S
H717 C730 0.961 . S
H718 C730 0.959 . S
H719 C733 0.929 . S
H720 C734 0.931 . S
H721 C736 0.930 . S
C722 H710 0.930 . S
C722 C723 1.399 . S
C722 C727 1.399 . S
C723 C722 1.399 . S
C723 C724 1.376 . S
C724 H711 0.930 . S
C724 C723 1.376 . S
C724 C725 1.388 . S
C725 H712 0.930 . S
C725 C724 1.388 . S
C725 C726 1.390 . S
C726 C725 1.390 . S
C726 C727 1.394 . S
C726 C732 1.465 . S
C727 C722 1.399 . S
C727 C726 1.394 . S
C727 C728 1.516 . S
C728 C727 1.516 . S
C728 C729 1.502 . S
C728 C730 1.561 . S
C728 C731 1.526 . S
C729 H713 0.959 . S
C729 H714 0.959 . S
C729 H715 0.961 . S
C729 C728 1.502 . S
C730 H716 0.960 . S
C730 H717 0.961 . S
C730 H718 0.959 . S
C730 C728 1.561 . S
C731 C728 1.526 . S
C731 C732 1.396 . S
C731 C736 1.390 . S
C732 C726 1.465 . S
C732 C731 1.396 . S
C732 C733 1.399 . S
C733 H719 0.929 . S
C733 C732 1.399 . S
C733 C734 1.385 . S
C734 H720 0.931 . S
C734 C733 1.385 . S
C734 C735 1.389 . S
C735 C734 1.389 . S
C735 C736 1.387 . S
C736 H721 0.930 . S
C736 C731 1.390 . S
C736 C735 1.387 . S
H737 C749 0.930 . S
H738 C751 0.930 . S
H739 C752 0.930 . S
H740 C756 0.959 . S
H741 C756 0.959 . S
H742 C756 0.961 . S
H743 C757 0.960 . S
H744 C757 0.961 . S
H745 C757 0.959 . S
H746 C760 0.929 . S
H747 C761 0.931 . S
H748 C763 0.930 . S
C749 H737 0.930 . S
C749 C750 1.399 . S
C749 C754 1.399 . S
C750 C749 1.399 . S
C750 C751 1.376 . S
C751 H738 0.930 . S
C751 C750 1.376 . S
C751 C752 1.388 . S
C752 H739 0.930 . S
C752 C751 1.388 . S
C752 C753 1.390 . S
C753 C752 1.390 . S
C753 C754 1.394 . S
C753 C759 1.465 . S
C754 C749 1.399 . S
C754 C753 1.394 . S
C754 C755 1.516 . S
C755 C754 1.516 . S
C755 C756 1.502 . S
C755 C757 1.561 . S
C755 C758 1.526 . S
C756 H740 0.959 . S
C756 H741 0.959 . S
C756 H742 0.961 . S
C756 C755 1.502 . S
C757 H743 0.960 . S
C757 H744 0.961 . S
C757 H745 0.959 . S
C757 C755 1.561 . S
C758 C755 1.526 . S
C758 C759 1.396 . S
C758 C763 1.390 . S
C759 C753 1.465 . S
C759 C758 1.396 . S
C759 C760 1.399 . S
C760 H746 0.929 . S
C760 C759 1.399 . S
C760 C761 1.385 . S
C761 H747 0.931 . S
C761 C760 1.385 . S
C761 C762 1.389 . S
C762 C761 1.389 . S
C762 C763 1.387 . S
C763 H748 0.930 . S
C763 C758 1.390 . S
C763 C762 1.387 . S
H764 C776 0.930 . S
H765 C778 0.930 . S
H766 C779 0.930 . S
H767 C783 0.959 . S
H768 C783 0.959 . S
H769 C783 0.961 . S
H770 C784 0.960 . S
H771 C784 0.961 . S
H772 C784 0.959 . S
H773 C787 0.929 . S
H774 C788 0.931 . S
H775 C790 0.930 . S
C776 H764 0.930 . S
C776 C777 1.399 . S
C776 C781 1.399 . S
C777 C776 1.399 . S
C777 C778 1.376 . S
C778 H765 0.930 . S
C778 C777 1.376 . S
C778 C779 1.388 . S
C779 H766 0.930 . S
C779 C778 1.388 . S
C779 C780 1.390 . S
C780 C779 1.390 . S
C780 C781 1.394 . S
C780 C786 1.465 . S
C781 C776 1.399 . S
C781 C780 1.394 . S
C781 C782 1.516 . S
C782 C781 1.516 . S
C782 C783 1.502 . S
C782 C784 1.561 . S
C782 C785 1.526 . S
C783 H767 0.959 . S
C783 H768 0.959 . S
C783 H769 0.961 . S
C783 C782 1.502 . S
C784 H770 0.960 . S
C784 H771 0.961 . S
C784 H772 0.959 . S
C784 C782 1.561 . S
C785 C782 1.526 . S
C785 C786 1.396 . S
C785 C790 1.390 . S
C786 C780 1.465 . S
C786 C785 1.396 . S
C786 C787 1.399 . S
C787 H773 0.929 . S
C787 C786 1.399 . S
C787 C788 1.385 . S
C788 H774 0.931 . S
C788 C787 1.385 . S
C788 C789 1.389 . S
C789 C788 1.389 . S
C789 C790 1.387 . S
C790 H775 0.930 . S
C790 C785 1.390 . S
C790 C789 1.387 . S
H791 C803 0.930 . S
H792 C805 0.930 . S
H793 C806 0.930 . S
H794 C810 0.959 . S
H795 C810 0.959 . S
H796 C810 0.961 . S
H797 C811 0.960 . S
H798 C811 0.961 . S
H799 C811 0.959 . S
H800 C814 0.929 . S
H801 C815 0.931 . S
H802 C817 0.930 . S
C803 H791 0.930 . S
C803 C804 1.399 . S
C803 C808 1.399 . S
C804 C803 1.399 . S
C804 C805 1.376 . S
C805 H792 0.930 . S
C805 C804 1.376 . S
C805 C806 1.388 . S
C806 H793 0.930 . S
C806 C805 1.388 . S
C806 C807 1.390 . S
C807 C806 1.390 . S
C807 C808 1.394 . S
C807 C813 1.465 . S
C808 C803 1.399 . S
C808 C807 1.394 . S
C808 C809 1.516 . S
C809 C808 1.516 . S
C809 C810 1.502 . S
C809 C811 1.561 . S
C809 C812 1.526 . S
C810 H794 0.959 . S
C810 H795 0.959 . S
C810 H796 0.961 . S
C810 C809 1.502 . S
C811 H797 0.960 . S
C811 H798 0.961 . S
C811 H799 0.959 . S
C811 C809 1.561 . S
C812 C809 1.526 . S
C812 C813 1.396 . S
C812 C817 1.390 . S
C813 C807 1.465 . S
C813 C812 1.396 . S
C813 C814 1.399 . S
C814 H800 0.929 . S
C814 C813 1.399 . S
C814 C815 1.385 . S
C815 H801 0.931 . S
C815 C814 1.385 . S
C815 C816 1.389 . S
C816 C815 1.389 . S
C816 C817 1.387 . S
C817 H802 0.930 . S
C817 C812 1.390 . S
C817 C816 1.387 . S
H818 C830 0.930 . S
H819 C832 0.930 . S
H820 C833 0.930 . S
H821 C837 0.959 . S
H822 C837 0.959 . S
H823 C837 0.961 . S
H824 C838 0.960 . S
H825 C838 0.961 . S
H826 C838 0.959 . S
H827 C841 0.929 . S
H828 C842 0.931 . S
H829 C844 0.930 . S
C830 H818 0.930 . S
C830 C831 1.399 . S
C830 C835 1.399 . S
C831 C830 1.399 . S
C831 C832 1.376 . S
C832 H819 0.930 . S
C832 C831 1.376 . S
C832 C833 1.388 . S
C833 H820 0.930 . S
C833 C832 1.388 . S
C833 C834 1.390 . S
C834 C833 1.390 . S
C834 C835 1.394 . S
C834 C840 1.465 . S
C835 C830 1.399 . S
C835 C834 1.394 . S
C835 C836 1.516 . S
C836 C835 1.516 . S
C836 C837 1.502 . S
C836 C838 1.561 . S
C836 C839 1.526 . S
C837 H821 0.959 . S
C837 H822 0.959 . S
C837 H823 0.961 . S
C837 C836 1.502 . S
C838 H824 0.960 . S
C838 H825 0.961 . S
C838 H826 0.959 . S
C838 C836 1.561 . S
C839 C836 1.526 . S
C839 C840 1.396 . S
C839 C844 1.390 . S
C840 C834 1.465 . S
C840 C839 1.396 . S
C840 C841 1.399 . S
C841 H827 0.929 . S
C841 C840 1.399 . S
C841 C842 1.385 . S
C842 H828 0.931 . S
C842 C841 1.385 . S
C842 C843 1.389 . S
C843 C842 1.389 . S
C843 C844 1.387 . S
C844 H829 0.930 . S
C844 C839 1.390 . S
C844 C843 1.387 . S
H845 C857 0.930 . S
H846 C859 0.930 . S
H847 C860 0.930 . S
H848 C864 0.959 . S
H849 C864 0.959 . S
H850 C864 0.961 . S
H851 C865 0.960 . S
H852 C865 0.961 . S
H853 C865 0.959 . S
H854 C868 0.929 . S
H855 C869 0.931 . S
H856 C871 0.930 . S
C857 H845 0.930 . S
C857 C858 1.399 . S
C857 C862 1.399 . S
C858 C857 1.399 . S
C858 C859 1.376 . S
C859 H846 0.930 . S
C859 C858 1.376 . S
C859 C860 1.388 . S
C860 H847 0.930 . S
C860 C859 1.388 . S
C860 C861 1.390 . S
C861 C860 1.390 . S
C861 C862 1.394 . S
C861 C867 1.465 . S
C862 C857 1.399 . S
C862 C861 1.394 . S
C862 C863 1.516 . S
C863 C862 1.516 . S
C863 C864 1.502 . S
C863 C865 1.561 . S
C863 C866 1.526 . S
C864 H848 0.959 . S
C864 H849 0.959 . S
C864 H850 0.961 . S
C864 C863 1.502 . S
C865 H851 0.960 . S
C865 H852 0.961 . S
C865 H853 0.959 . S
C865 C863 1.561 . S
C866 C863 1.526 . S
C866 C867 1.396 . S
C866 C871 1.390 . S
C867 C861 1.465 . S
C867 C866 1.396 . S
C867 C868 1.399 . S
C868 H854 0.929 . S
C868 C867 1.399 . S
C868 C869 1.385 . S
C869 H855 0.931 . S
C869 C868 1.385 . S
C869 C870 1.389 . S
C870 C869 1.389 . S
C870 C871 1.387 . S
C871 H856 0.930 . S
C871 C866 1.390 . S
C871 C870 1.387 . S
H872 C884 0.930 . S
H873 C886 0.930 . S
H874 C887 0.930 . S
H875 C891 0.959 . S
H876 C891 0.959 . S
H877 C891 0.961 . S
H878 C892 0.960 . S
H879 C892 0.961 . S
H880 C892 0.959 . S
H881 C895 0.929 . S
H882 C896 0.931 . S
H883 C898 0.930 . S
C884 H872 0.930 . S
C884 C885 1.399 . S
C884 C889 1.399 . S
C885 C884 1.399 . S
C885 C886 1.376 1_545 S
C886 H873 0.930 . S
C886 C885 1.376 1_565 S
C886 C887 1.388 . S
C887 H874 0.930 . S
C887 C886 1.388 . S
C887 C888 1.390 . S
C888 C887 1.390 . S
C888 C889 1.394 1_565 S
C888 C894 1.465 . S
C889 C884 1.399 . S
C889 C888 1.394 1_545 S
C889 C890 1.516 . S
C890 C889 1.516 . S
C890 C891 1.502 . S
C890 C892 1.561 . S
C890 C893 1.526 . S
C891 H875 0.959 . S
C891 H876 0.959 . S
C891 H877 0.961 . S
C891 C890 1.502 . S
C892 H878 0.960 . S
C892 H879 0.961 . S
C892 H880 0.959 . S
C892 C890 1.561 . S
C893 C890 1.526 . S
C893 C894 1.396 1_545 S
C893 C898 1.390 . S
C894 C888 1.465 . S
C894 C893 1.396 1_565 S
C894 C895 1.399 . S
C895 H881 0.929 . S
C895 C894 1.399 . S
C895 C896 1.385 . S
C896 H882 0.931 . S
C896 C895 1.385 . S
C896 C897 1.389 . S
C897 C896 1.389 . S
C897 C898 1.387 1_565 S
C898 H883 0.930 . S
C898 C893 1.390 . S
C898 C897 1.387 1_545 S
H899 C911 0.930 . S
H900 C913 0.930 . S
H901 C914 0.930 . S
H902 C918 0.959 . S
H903 C918 0.959 . S
H904 C918 0.961 . S
H905 C919 0.960 . S
H906 C919 0.961 . S
H907 C919 0.959 . S
H908 C922 0.929 . S
H909 C923 0.931 . S
H910 C925 0.930 . S
C911 H899 0.930 . S
C911 C912 1.399 1_565 S
C911 C916 1.399 . S
C912 C911 1.399 1_545 S
C912 C913 1.376 . S
C913 H900 0.930 . S
C913 C912 1.376 . S
C913 C914 1.388 . S
C914 H901 0.930 . S
C914 C913 1.388 . S
C914 C915 1.390 . S
C915 C914 1.390 . S
C915 C916 1.394 1_545 S
C915 C921 1.465 . S
C916 C911 1.399 . S
C916 C915 1.394 1_565 S
C916 C917 1.516 . S
C917 C916 1.516 . S
C917 C918 1.502 . S
C917 C919 1.561 . S
C917 C920 1.526 . S
C918 H902 0.959 . S
C918 H903 0.959 . S
C918 H904 0.961 . S
C918 C917 1.502 . S
C919 H905 0.960 . S
C919 H906 0.961 . S
C919 H907 0.959 . S
C919 C917 1.561 . S
C920 C917 1.526 . S
C920 C921 1.396 1_565 S
C920 C925 1.390 . S
C921 C915 1.465 . S
C921 C920 1.396 1_545 S
C921 C922 1.399 . S
C922 H908 0.929 . S
C922 C921 1.399 . S
C922 C923 1.385 . S
C923 H909 0.931 . S
C923 C922 1.385 . S
C923 C924 1.389 1_545 S
C924 C923 1.389 1_565 S
C924 C925 1.387 . S
C925 H910 0.930 . S
C925 C920 1.390 . S
C925 C924 1.387 . S
H926 C938 0.930 . S
H927 C940 0.930 . S
H928 C941 0.930 . S
H929 C945 0.959 . S
H930 C945 0.959 . S
H931 C945 0.961 . S
H932 C946 0.960 . S
H933 C946 0.961 . S
H934 C946 0.959 . S
H935 C949 0.929 . S
H936 C950 0.931 . S
H937 C952 0.930 . S
C938 H926 0.930 . S
C938 C939 1.399 . S
C938 C943 1.399 . S
C939 C938 1.399 . S
C939 C940 1.376 1_545 S
C940 H927 0.930 . S
C940 C939 1.376 1_565 S
C940 C941 1.388 . S
C941 H928 0.930 . S
C941 C940 1.388 . S
C941 C942 1.390 . S
C942 C941 1.390 . S
C942 C943 1.394 1_565 S
C942 C948 1.465 . S
C943 C938 1.399 . S
C943 C942 1.394 1_545 S
C943 C944 1.516 . S
C944 C943 1.516 . S
C944 C945 1.502 . S
C944 C946 1.561 . S
C944 C947 1.526 . S
C945 H929 0.959 . S
C945 H930 0.959 . S
C945 H931 0.961 . S
C945 C944 1.502 . S
C946 H932 0.960 . S
C946 H933 0.961 . S
C946 H934 0.959 . S
C946 C944 1.561 . S
C947 C944 1.526 . S
C947 C948 1.396 1_545 S
C947 C952 1.390 . S
C948 C942 1.465 . S
C948 C947 1.396 1_565 S
C948 C949 1.399 . S
C949 H935 0.929 . S
C949 C948 1.399 . S
C949 C950 1.385 . S
C950 H936 0.931 . S
C950 C949 1.385 . S
C950 C951 1.389 . S
C951 C950 1.389 . S
C951 C952 1.387 1_565 S
C952 H937 0.930 . S
C952 C947 1.390 . S
C952 C951 1.387 1_545 S
H953 C965 0.930 . S
H954 C967 0.930 . S
H955 C968 0.930 . S
H956 C972 0.959 . S
H957 C972 0.959 . S
H958 C972 0.961 . S
H959 C973 0.960 . S
H960 C973 0.961 . S
H961 C973 0.959 . S
H962 C976 0.929 . S
H963 C977 0.931 . S
H964 C979 0.930 . S
C965 H953 0.930 . S
C965 C966 1.399 . S
C965 C970 1.399 . S
C966 C965 1.399 . S
C966 C967 1.376 1_565 S
C967 H954 0.930 . S
C967 C966 1.376 1_545 S
C967 C968 1.388 . S
C968 H955 0.930 . S
C968 C967 1.388 . S
C968 C969 1.390 . S
C969 C968 1.390 . S
C969 C970 1.394 1_545 S
C969 C975 1.465 . S
C970 C965 1.399 . S
C970 C969 1.394 1_565 S
C970 C971 1.516 . S
C971 C970 1.516 . S
C971 C972 1.502 . S
C971 C973 1.561 . S
C971 C974 1.526 . S
C972 H956 0.959 . S
C972 H957 0.959 . S
C972 H958 0.961 . S
C972 C971 1.502 . S
C973 H959 0.960 . S
C973 H960 0.961 . S
C973 H961 0.959 . S
C973 C971 1.561 . S
C974 C971 1.526 . S
C974 C975 1.396 1_565 S
C974 C979 1.390 . S
C975 C969 1.465 . S
C975 C974 1.396 1_545 S
C975 C976 1.399 . S
C976 H962 0.929 . S
C976 C975 1.399 . S
C976 C977 1.385 . S
C977 H963 0.931 . S
C977 C976 1.385 . S
C977 C978 1.389 . S
C978 C977 1.389 . S
C978 C979 1.387 1_545 S
C979 H964 0.930 . S
C979 C974 1.390 . S
C979 C978 1.387 1_565 S
H980 C992 0.930 . S
H981 C994 0.930 . S
H982 C995 0.930 . S
H983 C999 0.959 . S
H984 C999 0.959 . S
H985 C999 0.961 . S
H986 C1000 0.960 . S
H987 C1000 0.961 . S
H988 C1000 0.959 . S
H989 C1003 0.929 . S
H990 C1004 0.931 . S
H991 C1006 0.930 . S
C992 H980 0.930 . S
C992 C993 1.399 . S
C992 C997 1.399 . S
C993 C992 1.399 . S
C993 C994 1.376 . S
C994 H981 0.930 . S
C994 C993 1.376 . S
C994 C995 1.388 . S
C995 H982 0.930 . S
C995 C994 1.388 . S
C995 C996 1.390 . S
C996 C995 1.390 . S
C996 C997 1.394 . S
C996 C1002 1.465 . S
C997 C992 1.399 . S
C997 C996 1.394 . S
C997 C998 1.516 . S
C998 C997 1.516 . S
C998 C999 1.502 . S
C998 C1000 1.561 . S
C998 C1001 1.526 . S
C999 H983 0.959 . S
C999 H984 0.959 . S
C999 H985 0.961 . S
C999 C998 1.502 . S
C1000 H986 0.960 . S
C1000 H987 0.961 . S
C1000 H988 0.959 . S
C1000 C998 1.561 . S
C1001 C998 1.526 . S
C1001 C1002 1.396 . S
C1001 C1006 1.390 . S
C1002 C996 1.465 . S
C1002 C1001 1.396 . S
C1002 C1003 1.399 . S
C1003 H989 0.929 . S
C1003 C1002 1.399 . S
C1003 C1004 1.385 . S
C1004 H990 0.931 . S
C1004 C1003 1.385 . S
C1004 C1005 1.389 . S
C1005 C1004 1.389 . S
C1005 C1006 1.387 . S
C1006 H991 0.930 . S
C1006 C1001 1.390 . S
C1006 C1005 1.387 . S
H1007 C1019 0.930 . S
H1008 C1021 0.930 . S
H1009 C1022 0.930 . S
H1010 C1026 0.959 . S
H1011 C1026 0.959 . S
H1012 C1026 0.961 . S
H1013 C1027 0.960 . S
H1014 C1027 0.961 . S
H1015 C1027 0.959 . S
H1016 C1030 0.929 . S
H1017 C1031 0.931 . S
H1018 C1033 0.930 . S
C1019 H1007 0.930 . S
C1019 C1020 1.399 . S
C1019 C1024 1.399 . S
C1020 C1019 1.399 . S
C1020 C1021 1.376 . S
C1021 H1008 0.930 . S
C1021 C1020 1.376 . S
C1021 C1022 1.388 . S
C1022 H1009 0.930 . S
C1022 C1021 1.388 . S
C1022 C1023 1.390 . S
C1023 C1022 1.390 . S
C1023 C1024 1.394 . S
C1023 C1029 1.465 . S
C1024 C1019 1.399 . S
C1024 C1023 1.394 . S
C1024 C1025 1.516 . S
C1025 C1024 1.516 . S
C1025 C1026 1.502 . S
C1025 C1027 1.561 . S
C1025 C1028 1.526 . S
C1026 H1010 0.959 . S
C1026 H1011 0.959 . S
C1026 H1012 0.961 . S
C1026 C1025 1.502 . S
C1027 H1013 0.960 . S
C1027 H1014 0.961 . S
C1027 H1015 0.959 . S
C1027 C1025 1.561 . S
C1028 C1025 1.526 . S
C1028 C1029 1.396 . S
C1028 C1033 1.390 . S
C1029 C1023 1.465 . S
C1029 C1028 1.396 . S
C1029 C1030 1.399 . S
C1030 H1016 0.929 . S
C1030 C1029 1.399 . S
C1030 C1031 1.385 . S
C1031 H1017 0.931 . S
C1031 C1030 1.385 . S
C1031 C1032 1.389 . S
C1032 C1031 1.389 . S
C1032 C1033 1.387 . S
C1033 H1018 0.930 . S
C1033 C1028 1.390 . S
C1033 C1032 1.387 . S
H1034 C1046 0.930 . S
H1035 C1048 0.930 . S
H1036 C1049 0.930 . S
H1037 C1053 0.959 . S
H1038 C1053 0.959 . S
H1039 C1053 0.961 . S
H1040 C1054 0.960 . S
H1041 C1054 0.961 . S
H1042 C1054 0.959 . S
H1043 C1057 0.929 . S
H1044 C1058 0.931 . S
H1045 C1060 0.930 . S
C1046 H1034 0.930 . S
C1046 C1047 1.399 . S
C1046 C1051 1.399 . S
C1047 C1046 1.399 . S
C1047 C1048 1.376 . S
C1048 H1035 0.930 . S
C1048 C1047 1.376 . S
C1048 C1049 1.388 . S
C1049 H1036 0.930 . S
C1049 C1048 1.388 . S
C1049 C1050 1.390 . S
C1050 C1049 1.390 . S
C1050 C1051 1.394 . S
C1050 C1056 1.465 . S
C1051 C1046 1.399 . S
C1051 C1050 1.394 . S
C1051 C1052 1.516 . S
C1052 C1051 1.516 . S
C1052 C1053 1.502 . S
C1052 C1054 1.561 . S
C1052 C1055 1.526 . S
C1053 H1037 0.959 . S
C1053 H1038 0.959 . S
C1053 H1039 0.961 . S
C1053 C1052 1.502 . S
C1054 H1040 0.960 . S
C1054 H1041 0.961 . S
C1054 H1042 0.959 . S
C1054 C1052 1.561 . S
C1055 C1052 1.526 . S
C1055 C1056 1.396 . S
C1055 C1060 1.390 . S
C1056 C1050 1.465 . S
C1056 C1055 1.396 . S
C1056 C1057 1.399 . S
C1057 H1043 0.929 . S
C1057 C1056 1.399 . S
C1057 C1058 1.385 . S
C1058 H1044 0.931 . S
C1058 C1057 1.385 . S
C1058 C1059 1.389 . S
C1059 C1058 1.389 . S
C1059 C1060 1.387 . S
C1060 H1045 0.930 . S
C1060 C1055 1.390 . S
C1060 C1059 1.387 . S
H1061 C1073 0.930 . S
H1062 C1075 0.930 . S
H1063 C1076 0.930 . S
H1064 C1080 0.959 . S
H1065 C1080 0.959 . S
H1066 C1080 0.961 . S
H1067 C1081 0.960 . S
H1068 C1081 0.961 . S
H1069 C1081 0.959 . S
H1070 C1084 0.929 . S
H1071 C1085 0.931 . S
H1072 C1087 0.930 . S
C1073 H1061 0.930 . S
C1073 C1074 1.399 . S
C1073 C1078 1.399 . S
C1074 C1073 1.399 . S
C1074 C1075 1.376 . S
C1075 H1062 0.930 . S
C1075 C1074 1.376 . S
C1075 C1076 1.388 . S
C1076 H1063 0.930 . S
C1076 C1075 1.388 . S
C1076 C1077 1.390 . S
C1077 C1076 1.390 . S
C1077 C1078 1.394 . S
C1077 C1083 1.465 . S
C1078 C1073 1.399 . S
C1078 C1077 1.394 . S
C1078 C1079 1.516 . S
C1079 C1078 1.516 . S
C1079 C1080 1.502 . S
C1079 C1081 1.561 . S
C1079 C1082 1.526 . S
C1080 H1064 0.959 . S
C1080 H1065 0.959 . S
C1080 H1066 0.961 . S
C1080 C1079 1.502 . S
C1081 H1067 0.960 . S
C1081 H1068 0.961 . S
C1081 H1069 0.959 . S
C1081 C1079 1.561 . S
C1082 C1079 1.526 . S
C1082 C1083 1.396 . S
C1082 C1087 1.390 . S
C1083 C1077 1.465 . S
C1083 C1082 1.396 . S
C1083 C1084 1.399 . S
C1084 H1070 0.929 . S
C1084 C1083 1.399 . S
C1084 C1085 1.385 . S
C1085 H1071 0.931 . S
C1085 C1084 1.385 . S
C1085 C1086 1.389 . S
C1086 C1085 1.389 . S
C1086 C1087 1.387 . S
C1087 H1072 0.930 . S
C1087 C1082 1.390 . S
C1087 C1086 1.387 . S
C237 C9 1.259 . S
C249 C79 1.263 . S
C264 C65 1.233 . S
C276 C23 1.245 . S
C291 C37 1.260 . S
C303 C107 1.263 . S
C318 C93 1.210 . S
C330 C51 1.199 . S
C345 C191 1.221 . S
C357 C121 1.208 . S
C372 C177 1.211 . S
C384 C135 1.199 . S
C399 C219 1.208 . S
C411 C149 1.197 . S
C426 C163 1.181 . S
C438 C205 1.180 . S
C453 C19 1.494 . S
C465 C5 1.499 . S
C480 C33 1.494 . S
C492 C47 1.500 . S
C507 C61 1.500 . S
C519 C75 1.496 . S
C534 C89 1.494 . S
C546 C103 1.496 . S
C561 C117 1.493 . S
C573 C131 1.501 . S
C588 C159 1.501 . S
C600 C145 1.493 . S
C615 C187 1.492 . S
C627 C173 1.501 . S
C642 C201 1.500 . S
C654 C215 1.497 . S
C669 C137 1.510 . S
C681 C11 1.521 . S
C696 C25 1.507 . S
C708 C123 1.522 . S
C723 C165 1.522 . S
C735 C39 1.506 . S
C750 C53 1.502 . S
C762 C151 1.507 . S
C777 C67 1.522 . S
C789 C193 1.508 . S
C804 C179 1.522 . S
C816 C81 1.513 . S
C831 C95 1.498 . S
C843 C221 1.508 . S
C858 C207 1.498 . S
C870 C109 1.508 . S
C885 C0 1.274 . S
C897 C28 1.248 . S
C912 C42 1.285 . S
C924 C14 1.312 . S
C939 C84 1.315 . S
C951 C56 1.277 . S
C966 C98 1.315 . S
C978 C70 1.275 . S
C993 C140 1.286 . S
C1005 C112 1.312 . S
C1020 C126 1.284 . S
C1032 C154 1.311 . S
C1047 C196 1.315 . S
C1059 C168 1.280 . S
C1074 C182 1.306 . S
C1086 C210 1.255 . S
