# Generated by pormake.
# Topology bcs, (6)-cn, num edge types: 1
# Building blocks:
#     Node 0, Type 0, BuildingBlock: MIFKUJ_clean_sbu_0, # of connection points: 6
#     Node 1, Type 0, BuildingBlock: MIFKUJ_clean_sbu_0, # of connection points: 6
#     Node 2, Type 0, BuildingBlock: MIFKUJ_clean_sbu_0, # of connection points: 6
#     Node 3, Type 0, BuildingBlock: MIFKUJ_clean_sbu_0, # of connection points: 6
#     Node 4, Type 0, BuildingBlock: MIFKUJ_clean_sbu_0, # of connection points: 6
#     Node 5, Type 0, BuildingBlock: MIFKUJ_clean_sbu_0, # of connection points: 6
#     Node 6, Type 0, BuildingBlock: MIFKUJ_clean_sbu_0, # of connection points: 6
#     Node 7, Type 0, BuildingBlock: MIFKUJ_clean_sbu_0, # of connection points: 6
#     Node 8, Type 0, BuildingBlock: MIFKUJ_clean_sbu_0, # of connection points: 6
#     Node 9, Type 0, BuildingBlock: MIFKUJ_clean_sbu_0, # of connection points: 6
#     Node 10, Type 0, BuildingBlock: MIFKUJ_clean_sbu_0, # of connection points: 6
#     Node 11, Type 0, BuildingBlock: MIFKUJ_clean_sbu_0, # of connection points: 6
#     Node 12, Type 0, BuildingBlock: MIFKUJ_clean_sbu_0, # of connection points: 6
#     Node 13, Type 0, BuildingBlock: MIFKUJ_clean_sbu_0, # of connection points: 6
#     Node 14, Type 0, BuildingBlock: MIFKUJ_clean_sbu_0, # of connection points: 6
#     Node 15, Type 0, BuildingBlock: MIFKUJ_clean_sbu_0, # of connection points: 6
#     Edge 16, Type (0, 0), BuildingBlock: CIFDUS_clean_linker_0, # of connection points: 2
#     Edge 17, Type (0, 0), BuildingBlock: CIFDUS_clean_linker_0, # of connection points: 2
#     Edge 18, Type (0, 0), BuildingBlock: CIFDUS_clean_linker_0, # of connection points: 2
#     Edge 19, Type (0, 0), BuildingBlock: CIFDUS_clean_linker_0, # of connection points: 2
#     Edge 20, Type (0, 0), BuildingBlock: CIFDUS_clean_linker_0, # of connection points: 2
#     Edge 21, Type (0, 0), BuildingBlock: CIFDUS_clean_linker_0, # of connection points: 2
#     Edge 22, Type (0, 0), BuildingBlock: CIFDUS_clean_linker_0, # of connection points: 2
#     Edge 23, Type (0, 0), BuildingBlock: CIFDUS_clean_linker_0, # of connection points: 2
#     Edge 24, Type (0, 0), BuildingBlock: CIFDUS_clean_linker_0, # of connection points: 2
#     Edge 25, Type (0, 0), BuildingBlock: CIFDUS_clean_linker_0, # of connection points: 2
#     Edge 26, Type (0, 0), BuildingBlock: CIFDUS_clean_linker_0, # of connection points: 2
#     Edge 27, Type (0, 0), BuildingBlock: CIFDUS_clean_linker_0, # of connection points: 2
#     Edge 28, Type (0, 0), BuildingBlock: CIFDUS_clean_linker_0, # of connection points: 2
#     Edge 29, Type (0, 0), BuildingBlock: CIFDUS_clean_linker_0, # of connection points: 2
#     Edge 30, Type (0, 0), BuildingBlock: CIFDUS_clean_linker_0, # of connection points: 2
#     Edge 31, Type (0, 0), BuildingBlock: CIFDUS_clean_linker_0, # of connection points: 2
#     Edge 32, Type (0, 0), BuildingBlock: CIFDUS_clean_linker_0, # of connection points: 2
#     Edge 33, Type (0, 0), BuildingBlock: CIFDUS_clean_linker_0, # of connection points: 2
#     Edge 34, Type (0, 0), BuildingBlock: CIFDUS_clean_linker_0, # of connection points: 2
#     Edge 35, Type (0, 0), BuildingBlock: CIFDUS_clean_linker_0, # of connection points: 2
#     Edge 36, Type (0, 0), BuildingBlock: CIFDUS_clean_linker_0, # of connection points: 2
#     Edge 37, Type (0, 0), BuildingBlock: CIFDUS_clean_linker_0, # of connection points: 2
#     Edge 38, Type (0, 0), BuildingBlock: CIFDUS_clean_linker_0, # of connection points: 2
#     Edge 39, Type (0, 0), BuildingBlock: CIFDUS_clean_linker_0, # of connection points: 2
#     Edge 40, Type (0, 0), BuildingBlock: CIFDUS_clean_linker_0, # of connection points: 2
#     Edge 41, Type (0, 0), BuildingBlock: CIFDUS_clean_linker_0, # of connection points: 2
#     Edge 42, Type (0, 0), BuildingBlock: CIFDUS_clean_linker_0, # of connection points: 2
#     Edge 43, Type (0, 0), BuildingBlock: CIFDUS_clean_linker_0, # of connection points: 2
#     Edge 44, Type (0, 0), BuildingBlock: CIFDUS_clean_linker_0, # of connection points: 2
#     Edge 45, Type (0, 0), BuildingBlock: CIFDUS_clean_linker_0, # of connection points: 2
#     Edge 46, Type (0, 0), BuildingBlock: CIFDUS_clean_linker_0, # of connection points: 2
#     Edge 47, Type (0, 0), BuildingBlock: CIFDUS_clean_linker_0, # of connection points: 2
#     Edge 48, Type (0, 0), BuildingBlock: CIFDUS_clean_linker_0, # of connection points: 2
#     Edge 49, Type (0, 0), BuildingBlock: CIFDUS_clean_linker_0, # of connection points: 2
#     Edge 50, Type (0, 0), BuildingBlock: CIFDUS_clean_linker_0, # of connection points: 2
#     Edge 51, Type (0, 0), BuildingBlock: CIFDUS_clean_linker_0, # of connection points: 2
#     Edge 52, Type (0, 0), BuildingBlock: CIFDUS_clean_linker_0, # of connection points: 2
#     Edge 53, Type (0, 0), BuildingBlock: CIFDUS_clean_linker_0, # of connection points: 2
#     Edge 54, Type (0, 0), BuildingBlock: CIFDUS_clean_linker_0, # of connection points: 2
#     Edge 55, Type (0, 0), BuildingBlock: CIFDUS_clean_linker_0, # of connection points: 2
#     Edge 56, Type (0, 0), BuildingBlock: CIFDUS_clean_linker_0, # of connection points: 2
#     Edge 57, Type (0, 0), BuildingBlock: CIFDUS_clean_linker_0, # of connection points: 2
#     Edge 58, Type (0, 0), BuildingBlock: CIFDUS_clean_linker_0, # of connection points: 2
#     Edge 59, Type (0, 0), BuildingBlock: CIFDUS_clean_linker_0, # of connection points: 2
#     Edge 60, Type (0, 0), BuildingBlock: CIFDUS_clean_linker_0, # of connection points: 2
#     Edge 61, Type (0, 0), BuildingBlock: CIFDUS_clean_linker_0, # of connection points: 2
#     Edge 62, Type (0, 0), BuildingBlock: CIFDUS_clean_linker_0, # of connection points: 2
#     Edge 63, Type (0, 0), BuildingBlock: CIFDUS_clean_linker_0, # of connection points: 2
# Relax obj value: 0.090
# Max RMSD: 0.225
# Mean RMSD: 0.142
data_MOF--net-bcs--node1-MIFKUJ_clean_sbu_0--edge1-CIFDUS_clean_linker_0
_symmetry_space_group_name_H-M    P1
_symmetry_Int_Tables_number       1
_symmetry_cell_setting            triclinic
loop_
_symmetry_equiv_pos_as_xyz
'x, y, z'
_cell_length_a     33.227175
_cell_length_b     36.079526
_cell_length_c     31.87442
_cell_angle_alpha  96.688604
_cell_angle_beta   98.757018
_cell_angle_gamma 105.25864
loop_
_atom_site_label
_atom_site_type_symbol
_atom_site_fract_x
_atom_site_fract_y
_atom_site_fract_z
_atom_type_partial_charge
Zn0 Zn 0.95504 0.00549 0.96834 0.0
Zn1 Zn 0.03586 0.99086 0.02342 0.0
C2 C 0.94455 0.06903 0.02828 0.0
O3 O 0.95157 0.08972 -0.00254 0.0
C4 C 0.07672 0.95599 0.96769 0.0
O5 O 0.10803 0.98276 0.99376 0.0
O6 O 0.9062 0.01226 0.92675 0.0
O7 O 0.00893 0.0296 0.94811 0.0
O8 O 0.05774 0.04523 0.00768 0.0
C9 C 0.91129 0.03919 0.90387 0.0
O10 O 0.95002 0.05962 0.90255 0.0
O11 O 0.94874 0.03484 0.02414 0.0
C12 C 0.06317 0.94432 0.07781 0.0
O13 O 0.02517 0.9233 0.0575 0.0
O14 O 0.07733 0.97889 0.07044 0.0
O15 O 0.97802 0.97337 0.04109 0.0
O16 O 0.94302 0.94904 0.97542 0.0
O17 O 0.03872 0.95359 0.97218 0.0
C18 C 0.04541 0.0495 0.96909 0.0
C19 C 0.94933 0.94656 0.01515 0.0
Zn20 Zn 0.27163 0.77529 0.16635 0.0
Zn21 Zn 0.23178 0.70582 0.25684 0.0
C22 C 0.21844 0.82329 0.15957 0.0
O23 O 0.19911 0.79598 0.17957 0.0
C24 C 0.27626 0.66241 0.30058 0.0
O25 O 0.25971 0.67753 0.33085 0.0
O26 O 0.32465 0.76202 0.15343 0.0
O27 O 0.27934 0.78096 0.23198 0.0
O28 O 0.26606 0.75665 0.29074 0.0
C29 C 0.36004 0.78233 0.14752 0.0
O30 O 0.39045 0.76588 0.14363 0.0
O31 O 0.25359 0.8219 0.14919 0.0
C32 C 0.16422 0.64991 0.27766 0.0
O33 O 0.18063 0.62681 0.25516 0.0
O34 O 0.17906 0.68648 0.2803 0.0
O35 O 0.22483 0.71948 0.1998 0.0
O36 O 0.22714 0.7266 0.13434 0.0
O37 O 0.26849 0.67001 0.26281 0.0
C38 C 0.28417 0.78455 0.27276 0.0
C39 C 0.21569 0.70455 0.16086 0.0
Zn40 Zn 0.52779 0.98154 0.47605 0.0
Zn41 Zn 0.46145 0.0039 0.52628 0.0
C42 C 0.56688 0.9394 0.52735 0.0
O43 O 0.59793 0.96853 0.52184 0.0
C44 C 0.42349 0.03749 0.46229 0.0
O45 O 0.39229 0.00809 0.46693 0.0
O46 O 0.5669 0.97519 0.43532 0.0
O47 O 0.47009 0.97247 0.44092 0.0
O48 O 0.43987 0.95001 0.49312 0.0
C49 C 0.55638 0.94217 0.41137 0.0
O50 O 0.51946 0.91743 0.41153 0.0
O51 O 0.529 0.93794 0.51106 0.0
C52 C 0.43372 0.04939 0.58269 0.0
O53 O 0.4728 0.0694 0.58205 0.0
O54 O 0.41998 0.0147 0.56243 0.0
O55 O 0.51773 0.01495 0.56552 0.0
O56 O 0.55427 0.03235 0.51529 0.0
O57 O 0.4604 0.04292 0.48457 0.0
C58 C 0.44199 0.94748 0.45354 0.0
C59 C 0.55147 0.03344 0.55462 0.0
Zn60 Zn 0.19005 0.25392 0.7826 0.0
Zn61 Zn 0.27757 0.24779 0.69446 0.0
C62 C 0.14945 0.17879 0.80426 0.0
O63 O 0.14367 0.16881 0.76233 0.0
C64 C 0.34349 0.30582 0.67282 0.0
O65 O 0.36409 0.29107 0.70193 0.0
O66 O 0.1826 0.30534 0.8059 0.0
O67 O 0.24889 0.25759 0.7747 0.0
O68 O 0.30994 0.26247 0.75632 0.0
C69 C 0.18853 0.31685 0.84617 0.0
O70 O 0.20312 0.29611 0.87276 0.0
O71 O 0.16952 0.21384 0.82104 0.0
C72 C 0.30178 0.19723 0.63411 0.0
O73 O 0.29969 0.2247 0.61095 0.0
O74 O 0.29029 0.19913 0.67027 0.0
O75 O 0.21432 0.23874 0.69557 0.0
O76 O 0.15622 0.23603 0.72154 0.0
O77 O 0.30314 0.29227 0.66279 0.0
C78 C 0.28877 0.26631 0.78559 0.0
C79 C 0.17394 0.23016 0.68949 0.0
Zn80 Zn 0.02405 0.03124 0.4511 0.0
Zn81 Zn 0.9816 0.96429 0.54028 0.0
C82 C 0.95306 0.0662 0.42726 0.0
O83 O 0.9272 0.03778 0.44075 0.0
C84 C 0.06203 0.95425 0.57662 0.0
O85 O 0.06703 0.98929 0.59731 0.0
O86 O 0.08313 0.05096 0.43811 0.0
O87 O 0.01876 0.03048 0.51164 0.0
O88 O 0.00352 0.01979 0.57342 0.0
C89 C 0.09561 0.08746 0.43825 0.0
O90 O 0.07421 0.10957 0.4545 0.0
O91 O 0.99149 0.06658 0.42816 0.0
C92 C 0.91849 0.89735 0.5504 0.0
O93 O 0.93269 0.88174 0.51855 0.0
O94 O 0.93415 0.93343 0.5652 0.0
O95 O 0.96128 0.96724 0.477 0.0
O96 O 0.99678 0.97478 0.42426 0.0
O97 O 0.02847 0.93794 0.54852 0.0
C98 C 0.02028 0.04367 0.5504 0.0
C99 C 0.97307 0.95235 0.4445 0.0
Zn100 Zn 0.28864 0.71872 0.73135 0.0
Zn101 Zn 0.216 0.79633 0.75479 0.0
C102 C 0.3164 0.68845 0.80917 0.0
O103 O 0.33853 0.72474 0.82415 0.0
C104 C 0.17284 0.80489 0.67127 0.0
O105 O 0.1579 0.76679 0.66572 0.0
O106 O 0.31081 0.69794 0.68037 0.0
O107 O 0.22991 0.727 0.71436 0.0
O108 O 0.17977 0.74078 0.74446 0.0
C109 C 0.30656 0.66152 0.6741 0.0
O110 O 0.28356 0.63924 0.69659 0.0
O111 O 0.29044 0.68063 0.77338 0.0
C112 C 0.16877 0.82645 0.80833 0.0
O113 O 0.13909 0.80681 0.77527 0.0
O114 O 0.20686 0.82582 0.80838 0.0
O115 O 0.27455 0.79124 0.75931 0.0
O116 O 0.33047 0.77117 0.75962 0.0
O117 O 0.19945 0.82271 0.70531 0.0
C118 C 0.19539 0.71512 0.72803 0.0
C119 C 0.3143 0.79827 0.77022 0.0
Zn120 Zn 0.4715 0.01459 0.03356 0.0
Zn121 Zn 0.53156 0.95092 0.97009 0.0
C122 C 0.44242 -0.00598 0.10578 0.0
O123 O 0.41175 0.00596 0.08582 0.0
C124 C 0.54801 -0.00259 0.90877 0.0
O125 O 0.58614 -0.00342 0.92616 0.0
O126 O 0.44547 0.05983 0.03362 0.0
O127 O 0.52484 0.01684 0.00972 0.0
O128 O 0.57716 0.99076 0.01318 0.0
C129 C 0.45301 0.08469 0.06771 0.0
O130 O 0.48233 0.08402 0.1 0.0
O131 O 0.47666 -0.00098 0.09138 0.0
C132 C 0.54976 0.89601 0.90884 0.0
O133 O 0.52656 0.91118 0.88265 0.0
O134 O 0.55378 0.90583 0.94928 0.0
O135 O 0.4831 0.94217 0.00235 0.0
O136 O 0.43016 0.96756 0.99334 0.0
O137 O 0.51601 0.97818 0.92178 0.0
C138 C 0.56085 0.01591 0.02924 0.0
C139 C 0.44636 0.94038 0.9825 0.0
Zn140 Zn 0.23144 0.28009 0.24679 0.0
Zn141 Zn 0.31717 0.23745 0.28204 0.0
C142 C 0.2154 0.30926 0.33021 0.0
O143 O 0.20325 0.27269 0.33538 0.0
C144 C 0.31856 0.19046 0.19559 0.0
O145 O 0.27869 0.16976 0.1906 0.0
O146 O 0.19176 0.29838 0.20598 0.0
O147 O 0.2859 0.29068 0.225 0.0
O148 O 0.33448 0.29607 0.28248 0.0
C149 C 0.15808 0.28451 0.17757 0.0
O150 O 0.14151 0.24665 0.1667 0.0
O151 O 0.23484 0.3182 0.29973 0.0
C152 C 0.34864 0.18522 0.32365 0.0
O153 O 0.32098 0.16424 0.28974 0.0
O154 O 0.35443 0.22195 0.32989 0.0
O155 O 0.25713 0.20869 0.28788 0.0
O156 O 0.20314 0.22654 0.25536 0.0
O157 O 0.33516 0.21658 0.22855 0.0
C158 C 0.32095 0.30933 0.2495 0.0
C159 C 0.21738 0.20379 0.27701 0.0
Zn160 Zn 0.50195 0.52037 0.94713 0.0
Zn161 Zn 0.49104 0.47019 0.04305 0.0
C162 C 0.43947 0.55231 0.9174 0.0
O163 O 0.43878 0.52461 0.88638 0.0
C164 C 0.56936 0.45957 0.08062 0.0
O165 O 0.56687 0.48753 0.10957 0.0
O166 O 0.53375 0.54016 0.90078 0.0
O167 O 0.54706 0.52572 -0.00109 0.0
O168 O 0.51412 0.529 0.0532 0.0
C169 C 0.55426 0.57599 0.91275 0.0
O170 O 0.55349 0.59271 0.95141 0.0
O171 O 0.4654 0.55711 0.95279 0.0
C172 C 0.46032 0.41508 0.0945 0.0
O173 O 0.47363 0.39497 0.06529 0.0
O174 O 0.46291 0.45065 0.09212 0.0
O175 O 0.44927 0.44369 0.98848 0.0
O176 O 0.46062 0.46741 0.92826 0.0
O177 O 0.54118 0.44831 0.04642 0.0
C178 C 0.54366 0.54398 0.03392 0.0
C179 C 0.44017 0.44234 0.94805 0.0
Zn180 Zn 0.78315 0.2168 0.23326 0.0
Zn181 Zn 0.70013 0.28016 0.23954 0.0
C182 C 0.84041 0.20063 0.30112 0.0
O183 O 0.86861 0.22401 0.28414 0.0
C184 C 0.66617 0.29789 0.1605 0.0
O185 O 0.6396 0.26379 0.16058 0.0
O186 O 0.8144 0.19818 0.18891 0.0
O187 O 0.72042 0.19117 0.21282 0.0
O188 O 0.67295 0.22401 0.21838 0.0
C189 C 0.81814 0.16378 0.18416 0.0
O190 O 0.79927 0.13885 0.207 0.0
O191 O 0.80116 0.19497 0.28629 0.0
C192 C 0.6623 0.3035 0.31302 0.0
O193 O 0.69184 0.29401 0.33821 0.0
O194 O 0.66099 0.29916 0.27271 0.0
O195 O 0.75714 0.29337 0.27684 0.0
O196 O 0.80447 0.27568 0.244 0.0
O197 O 0.699 0.31058 0.19023 0.0
C198 C 0.68219 0.19263 0.20847 0.0
C199 C 0.79159 0.30214 0.26291 0.0
Zn200 Zn 0.96583 0.51332 0.51771 0.0
Zn201 Zn 0.03468 0.46739 0.49116 0.0
C202 C 0.91951 0.44442 0.54243 0.0
O203 O 0.89077 0.44556 0.50976 0.0
C204 C 0.07643 0.52873 0.44939 0.0
O205 O 0.10683 0.5368 0.48347 0.0
O206 O 0.92784 0.54671 0.53592 0.0
O207 O 0.0263 0.54548 0.54195 0.0
O208 O 0.05849 0.49929 0.54962 0.0
C209 C 0.93434 0.55426 0.57691 0.0
O210 O 0.96237 0.54056 0.59882 0.0
O211 O 0.95491 0.47054 0.55183 0.0
C212 C 0.0704 0.4197 0.44031 0.0
O213 O 0.04728 0.43149 0.41042 0.0
O214 O 0.06914 0.42982 0.47958 0.0
O215 O 0.97358 0.43908 0.47714 0.0
O216 O 0.95037 0.48672 0.45507 0.0
O217 O 0.04273 0.50162 0.44692 0.0
C218 C 0.05579 0.53336 0.56092 0.0
C219 C 0.95273 0.45185 0.44818 0.0
Zn220 Zn 0.72066 0.74714 0.29062 0.0
Zn221 Zn 0.81068 0.73695 0.20987 0.0
C222 C 0.66566 0.69677 0.32783 0.0
O223 O 0.64284 0.71066 0.29972 0.0
C224 C 0.84612 0.78002 0.14374 0.0
O225 O 0.84773 0.74596 0.12572 0.0
O226 O 0.69199 0.78774 0.30607 0.0
O227 O 0.78121 0.77002 0.2836 0.0
O228 O 0.83754 0.75389 0.27291 0.0
C229 C 0.7035 0.82425 0.31878 0.0
O230 O 0.74377 0.84402 0.32456 0.0
O231 O 0.70598 0.70713 0.33097 0.0
C232 C 0.81372 0.66738 0.15258 0.0
O233 O 0.78223 0.6727 0.12592 0.0
O234 O 0.82904 0.69057 0.18805 0.0
O235 O 0.74698 0.72275 0.20383 0.0
O236 O 0.6896 0.7212 0.23128 0.0
O237 O 0.83168 0.78258 0.17846 0.0
C238 C 0.81695 0.76596 0.29939 0.0
C239 C 0.70681 0.71364 0.19961 0.0
Zn240 Zn 0.77577 0.28045 0.73729 0.0
Zn241 Zn 0.71406 0.22047 0.80785 0.0
C242 C 0.73801 0.33224 0.6954 0.0
O243 O 0.76174 0.32557 0.66765 0.0
C244 C 0.75069 0.15976 0.83328 0.0
O245 O 0.72041 0.15376 0.85597 0.0
O246 O 0.83119 0.30027 0.71907 0.0
O247 O 0.7788 0.2649 0.79436 0.0
O248 O 0.74486 0.27128 0.84613 0.0
C249 C 0.84875 0.33675 0.72622 0.0
O250 O 0.83131 0.35973 0.74742 0.0
O251 O 0.73949 0.31703 0.72943 0.0
C252 C 0.62778 0.17603 0.80629 0.0
O253 O 0.62455 0.17031 0.7643 0.0
O254 O 0.66246 0.19682 0.82995 0.0
O255 O 0.69813 0.23064 0.74674 0.0
O256 O 0.74149 0.231 0.70093 0.0
O257 O 0.75351 0.18603 0.80964 0.0
C258 C 0.77369 0.28605 0.82635 0.0
C259 C 0.70855 0.21384 0.71447 0.0
Zn260 Zn 0.68807 0.74212 0.69595 0.0
Zn261 Zn 0.76869 0.71849 0.74358 0.0
C262 C 0.65735 0.76977 0.76701 0.0
O263 O 0.62581 0.73919 0.74818 0.0
C264 C 0.81252 0.69265 0.68373 0.0
O265 O 0.84166 0.72143 0.70964 0.0
O266 O 0.6508 0.76435 0.65451 0.0
O267 O 0.74288 0.75294 0.67305 0.0
O268 O 0.78595 0.77438 0.73539 0.0
C269 C 0.67041 0.80043 0.65793 0.0
O270 O 0.70647 0.81459 0.68557 0.0
O271 O 0.69166 0.77678 0.75234 0.0
C272 C 0.80167 0.67453 0.79603 0.0
O273 O 0.76653 0.65059 0.7724 0.0
O274 O 0.81227 0.70982 0.7904 0.0
O275 O 0.7125 0.6975 0.76202 0.0
O276 O 0.66218 0.68654 0.70413 0.0
O277 O 0.77446 0.68486 0.68995 0.0
C278 C 0.77658 0.77646 0.69586 0.0
C279 C 0.67528 0.6795 0.7412 0.0
Zn280 Zn 0.46134 0.5133 0.4779 0.0
Zn281 Zn 0.54775 0.47862 0.52425 0.0
C282 C 0.42044 0.53414 0.54204 0.0
O283 O 0.39417 0.50073 0.52186 0.0
C284 C 0.54228 0.42436 0.44621 0.0
O285 O 0.53664 0.45214 0.42479 0.0
O286 O 0.41374 0.51944 0.4344 0.0
O287 O 0.51653 0.53813 0.45975 0.0
O288 O 0.57201 0.52309 0.49347 0.0
C289 C 0.41936 0.53918 0.40414 0.0
O290 O 0.45766 0.55149 0.39568 0.0
O291 O 0.45554 0.54724 0.53012 0.0
C292 C 0.58662 0.44704 0.58981 0.0
O293 O 0.54799 0.423 0.58092 0.0
O294 O 0.59442 0.47696 0.57152 0.0
O295 O 0.49461 0.47403 0.54971 0.0
O296 O 0.44667 0.45749 0.49002 0.0
O297 O 0.54274 0.42866 0.48635 0.0
C298 C 0.55624 0.54207 0.46754 0.0
C299 C 0.45888 0.45272 0.52832 0.0
Zn300 Zn 0.00096 0.45766 0.00631 0.0
Zn301 Zn 0.99688 0.53726 0.97455 0.0
C302 C 0.04629 0.42963 0.9495 0.0
O303 O 0.00877 0.40385 0.93853 0.0
C304 C 0.95321 0.55615 0.04072 0.0
O305 O 0.99129 0.5798 0.05682 0.0
O306 O 0.99813 0.40927 0.03362 0.0
O307 O 0.01526 0.50209 0.05388 0.0
O308 O 0.05022 0.54238 0.01609 0.0
C309 C 0.03303 0.41519 0.0598 0.0
O310 O 0.06088 0.44969 0.06619 0.0
O311 O 0.05128 0.45942 0.97739 0.0
C312 C 0.95581 0.57721 0.92682 0.0
O313 O 0.93109 0.54159 0.92352 0.0
O314 O 0.99379 0.58557 0.94779 0.0
O315 O 0.98399 0.49373 0.92538 0.0
O316 O 0.94951 0.45261 0.96283 0.0
O317 O 0.94792 0.53174 0.00678 0.0
C318 C 0.04817 0.52788 0.05054 0.0
C319 C 0.95322 0.46516 0.92759 0.0
H320 H 0.15947 0.18597 0.89269 0.0
H321 H 0.09594 0.10621 0.77505 0.0
H322 H 0.06055 0.05922 0.81603 0.0
H323 H 0.04467 0.04146 0.88418 0.0
H324 H 0.10782 0.11857 0.00317 0.0
H325 H 0.14671 0.16561 0.96288 0.0
C326 C 0.13804 0.15823 0.8761 0.0
C327 C 0.13026 0.14992 0.83066 0.0
C328 C 0.1177 0.13082 0.90006 0.0
C329 C 0.1026 0.11364 0.80981 0.0
C330 C 0.08222 0.08662 0.83324 0.0
C331 C 0.06708 0.06851 0.90146 0.0
C332 C 0.07298 0.0767 0.94659 0.0
C333 C 0.08912 0.09507 0.87821 0.0
C334 C 0.10271 0.11155 0.96845 0.0
C335 C 0.12473 0.13851 0.94535 0.0
H336 H 0.14893 0.95548 0.08728 0.0
H337 H 0.03585 0.88841 0.12441 0.0
H338 H 0.07491 0.84656 0.15552 0.0
H339 H 0.13881 0.82518 0.16605 0.0
H340 H 0.25178 0.88909 0.12612 0.0
H341 H 0.21536 0.93606 0.10244 0.0
C342 C 0.13331 0.93234 0.10324 0.0
C343 C 0.08968 0.9251 0.10378 0.0
C344 C 0.15573 0.90744 0.11991 0.0
C345 C 0.06946 0.89456 0.12374 0.0
C346 C 0.0917 0.87047 0.14131 0.0
C347 C 0.15574 0.84956 0.15254 0.0
C348 C 0.19789 0.85338 0.14751 0.0
C349 C 0.13448 0.87599 0.13853 0.0
C350 C 0.21919 0.88521 0.12992 0.0
C351 C 0.19839 0.91214 0.11648 0.0
H352 H 0.40045 0.9466 0.37398 0.0
H353 H 0.42705 0.87287 0.46532 0.0
H354 H 0.38251 0.81516 0.41506 0.0
H355 H 0.33273 0.78664 0.34798 0.0
H356 H 0.30326 0.85928 0.25645 0.0
H357 H 0.35201 0.91714 0.3043 0.0
C358 C 0.39619 0.91779 0.3826 0.0
C359 C 0.41577 0.91346 0.42316 0.0
C360 C 0.36987 0.88504 0.35401 0.0
C361 C 0.41102 0.87642 0.43444 0.0
C362 C 0.38588 0.84362 0.40578 0.0
C363 C 0.33687 0.81521 0.33866 0.0
C364 C 0.31416 0.81923 0.29958 0.0
C365 C 0.36447 0.84776 0.36603 0.0
C366 C 0.32047 0.85594 0.28685 0.0
C367 C 0.34816 0.88882 0.31408 0.0
H368 H 0.2848 0.11816 0.62354 0.0
H369 H 0.38342 0.22474 0.62908 0.0
H370 H 0.43441 0.18815 0.61949 0.0
H371 H 0.45007 0.12661 0.60602 0.0
H372 H 0.35121 0.0185 0.59253 0.0
H373 H 0.3011 0.05479 0.60921 0.0
C374 C 0.31744 0.13304 0.62238 0.0
C375 C 0.33055 0.1738 0.62633 0.0
C376 C 0.34638 0.11165 0.61567 0.0
C377 C 0.37276 0.19323 0.6252 0.0
C378 C 0.4019 0.1724 0.62005 0.0
C379 C 0.41771 0.11078 0.60717 0.0
C380 C 0.4044 0.06993 0.59812 0.0
C381 C 0.38895 0.13168 0.61481 0.0
C382 C 0.36225 0.05001 0.59951 0.0
C383 C 0.33356 0.07073 0.60878 0.0
H384 H 0.05333 0.87672 0.55426 0.0
H385 H 0.13814 0.98266 0.63167 0.0
H386 H 0.18277 0.94589 0.66423 0.0
H387 H 0.19354 0.88341 0.67651 0.0
H388 H 0.10788 0.77685 0.6014 0.0
H389 H 0.06832 0.81419 0.56169 0.0
C390 C 0.08198 0.89183 0.57768 0.0
C391 C 0.09208 0.93234 0.59081 0.0
C392 C 0.10727 0.87039 0.59693 0.0
C393 C 0.12936 0.95146 0.6212 0.0
C394 C 0.15493 0.93046 0.63994 0.0
C395 C 0.1666 0.8683 0.65103 0.0
C396 C 0.1534 0.82738 0.64239 0.0
C397 C 0.14353 0.88985 0.62895 0.0
C398 C 0.11862 0.80834 0.60897 0.0
C399 C 0.09584 0.82967 0.58633 0.0
H400 H 0.38943 0.80741 0.82197 0.0
H401 H 0.29402 0.86604 0.78994 0.0
H402 H 0.32841 0.91742 0.85196 0.0
H403 H 0.38115 0.9415 0.91952 0.0
H404 H 0.4714 0.87804 0.95409 0.0
H405 H 0.44341 0.83267 0.88691 0.0
C406 C 0.37658 0.8318 0.82805 0.0
C407 C 0.33914 0.83286 0.80179 0.0
C408 C 0.39524 0.86004 0.86465 0.0
C409 C 0.32276 0.86456 0.81005 0.0
C410 C 0.34222 0.89376 0.8456 0.0
C411 C 0.39469 0.91779 0.91224 0.0
C412 C 0.42851 0.91331 0.94158 0.0
C413 C 0.37762 0.89104 0.87395 0.0
C414 C 0.44573 0.88244 0.93177 0.0
C415 C 0.42968 0.85637 0.89341 0.0
H416 H 0.46859 0.1554 0.11561 0.0
H417 H 0.36691 0.05898 0.04154 0.0
H418 H 0.31469 0.08495 0.07203 0.0
H419 H 0.29922 0.13067 0.1273 0.0
H420 H 0.40186 0.228 0.19938 0.0
H421 H 0.45199 0.20649 0.16165 0.0
C422 C 0.43488 0.14074 0.10527 0.0
C423 C 0.42159 0.10539 0.07658 0.0
C424 C 0.40515 0.15573 0.12304 0.0
C425 C 0.37788 0.08653 0.06331 0.0
C426 C 0.34803 0.10114 0.08112 0.0
C427 C 0.3324 0.14752 0.13422 0.0
C428 C 0.34675 0.18037 0.16696 0.0
C429 C 0.36143 0.13504 0.11219 0.0
C430 C 0.38987 0.20215 0.175 0.0
C431 C 0.41873 0.18992 0.1534 0.0
H432 H 0.07614 0.12524 0.37463 0.0
H433 H 0.1761 0.08234 0.43458 0.0
H434 H 0.22206 0.11125 0.38606 0.0
H435 H 0.2349 0.15332 0.33044 0.0
H436 H 0.13203 0.19278 0.26919 0.0
H437 H 0.08572 0.15966 0.31367 0.0
C438 C 0.10804 0.12222 0.37698 0.0
C439 C 0.12335 0.10267 0.40856 0.0
C440 C 0.1335 0.13799 0.34856 0.0
C441 C 0.16409 0.09782 0.41073 0.0
C442 C 0.19018 0.11425 0.383 0.0
C443 C 0.20212 0.15405 0.3262 0.0
C444 C 0.18735 0.17616 0.29687 0.0
C445 C 0.17541 0.13499 0.35221 0.0
C446 C 0.14456 0.17634 0.2916 0.0
C447 C 0.118 0.15761 0.31729 0.0
H448 H 0.83104 0.0926 0.16522 0.0
H449 H 0.86654 0.20983 0.13736 0.0
H450 H 0.91111 0.19164 0.08912 0.0
H451 H 0.93794 0.14184 0.05252 0.0
H452 H 0.90293 0.02483 0.08105 0.0
H453 H 0.86057 0.04364 0.13134 0.0
C454 C 0.84851 0.11422 0.14863 0.0
C455 C 0.84504 0.15247 0.15469 0.0
C456 C 0.87431 0.10362 0.12102 0.0
C457 C 0.86819 0.18008 0.13304 0.0
C458 C 0.89385 0.16974 0.1055 0.0
C459 C 0.92144 0.12057 0.07011 0.0
C460 C 0.92369 0.08201 0.06293 0.0
C461 C 0.8969 0.13153 0.09897 0.0
C462 C 0.90212 0.05482 0.08611 0.0
C463 C 0.87759 0.06548 0.11473 0.0
H464 H 0.09794 0.6049 0.44303 0.0
H465 H 0.07175 0.48998 0.37039 0.0
H466 H 0.09097 0.5177 0.30743 0.0
H467 H 0.12232 0.57461 0.27604 0.0
H468 H 0.1474 0.68995 0.34795 0.0
H469 H 0.11963 0.66219 0.40753 0.0
C470 C 0.0961 0.58619 0.41315 0.0
C471 C 0.08419 0.54577 0.41107 0.0
C472 C 0.10651 0.60233 0.37696 0.0
C473 C 0.08106 0.52131 0.37239 0.0
C474 C 0.09201 0.5371 0.33648 0.0
C475 C 0.12095 0.59368 0.30442 0.0
C476 C 0.13771 0.63413 0.30805 0.0
C477 C 0.10571 0.57758 0.33877 0.0
C478 C 0.13499 0.65861 0.34456 0.0
C479 C 0.11951 0.64279 0.37883 0.0
H480 H 0.64434 0.93858 0.56538 0.0
H481 H 0.51278 0.87066 0.54041 0.0
H482 H 0.53266 0.81988 0.577 0.0
H483 H 0.5887 0.79541 0.61728 0.0
H484 H 0.71942 0.86614 0.63981 0.0
H485 H 0.69846 0.91479 0.60268 0.0
C486 C 0.61977 0.91274 0.56779 0.0
C487 C 0.57715 0.90855 0.55026 0.0
C488 C 0.63139 0.88392 0.58838 0.0
C489 C 0.5459 0.87474 0.55386 0.0
C490 C 0.55729 0.84564 0.57463 0.0
C491 C 0.61244 0.82129 0.61353 0.0
C492 C 0.65556 0.82709 0.63151 0.0
C493 C 0.60011 0.84989 0.59207 0.0
C494 C 0.68599 0.86095 0.62671 0.0
C495 C 0.67411 0.88894 0.60542 0.0
H496 H 0.43076 0.3652 0.93716 0.0
H497 H 0.3682 0.45131 0.90446 0.0
H498 H 0.30851 0.40058 0.85866 0.0
H499 H 0.28016 0.33387 0.81978 0.0
H500 H 0.34903 0.2501 0.84226 0.0
H501 H 0.3997 0.29696 0.90116 0.0
C502 C 0.40369 0.37248 0.92028 0.0
C503 C 0.40352 0.41148 0.92342 0.0
C504 C 0.37074 0.34349 0.89245 0.0
C505 C 0.36876 0.42123 0.90171 0.0
C506 C 0.33474 0.39233 0.87578 0.0
C507 C 0.30546 0.32564 0.83873 0.0
C508 C 0.31095 0.28885 0.82759 0.0
C509 C 0.3361 0.3536 0.86982 0.0
C510 C 0.3443 0.27837 0.85105 0.0
C511 C 0.37341 0.30524 0.88423 0.0
H512 H 0.9027 0.79126 0.32409 0.0
H513 H 0.78701 0.79793 0.36624 0.0
H514 H 0.82745 0.85428 0.42099 0.0
H515 H 0.89308 0.90878 0.44613 0.0
H516 H 0.00643 0.90472 0.39762 0.0
H517 H 0.96939 0.84043 0.35553 0.0
C518 C 0.88626 0.80439 0.34579 0.0
C519 C 0.84165 0.79117 0.34018 0.0
C520 C 0.90925 0.83792 0.37528 0.0
C521 C 0.82119 0.80816 0.36925 0.0
C522 C 0.84427 0.84053 0.40032 0.0
C523 C 0.90984 0.89336 0.42706 0.0
C524 C 0.9523 0.91142 0.42463 0.0
C525 C 0.8879 0.85692 0.4019 0.0
C526 C 0.97364 0.89141 0.39961 0.0
C527 C 0.95251 0.85468 0.37565 0.0
H528 H 0.41348 0.6074 0.54337 0.0
H529 H 0.39397 0.51037 0.61253 0.0
H530 H 0.35801 0.54232 0.66063 0.0
H531 H 0.32709 0.59469 0.67885 0.0
H532 H 0.3433 0.69139 0.60897 0.0
H533 H 0.38509 0.66252 0.56462 0.0
C534 C 0.40218 0.59391 0.5697 0.0
C535 C 0.40656 0.55696 0.57507 0.0
C536 C 0.3801 0.61184 0.59615 0.0
C537 C 0.39105 0.53901 0.60835 0.0
C538 C 0.37026 0.55708 0.63551 0.0
C539 C 0.33958 0.60947 0.65381 0.0
C540 C 0.33162 0.64482 0.64673 0.0
C541 C 0.36358 0.59291 0.6289 0.0
C542 C 0.34881 0.66398 0.61479 0.0
C543 C 0.37277 0.64755 0.58956 0.0
H544 H 0.56149 0.07278 0.9353 0.0
H545 H 0.52709 0.98562 0.82163 0.0
H546 H 0.53896 0.03659 0.77634 0.0
H547 H 0.57422 0.10465 0.772 0.0
H548 H 0.61407 0.19078 0.88739 0.0
H549 H 0.58367 0.14184 0.92923 0.0
C550 C 0.55536 0.06525 0.90047 0.0
C551 C 0.54395 0.02617 0.88133 0.0
C552 C 0.56355 0.0945 0.87522 0.0
C553 C 0.53601 0.01592 0.83651 0.0
C554 C 0.54299 0.04497 0.81084 0.0
C555 C 0.57474 0.11295 0.80595 0.0
C556 C 0.5971 0.15086 0.82692 0.0
C557 C 0.55895 0.08428 0.83012 0.0
C558 C 0.59752 0.16147 0.87084 0.0
C559 C 0.58044 0.1335 0.89482 0.0
H560 H 0.09292 0.42512 0.12941 0.0
H561 H 0.00223 0.33552 0.03395 0.0
H562 H 0.03242 0.28605 0.06235 0.0
H563 H 0.08813 0.26948 0.11236 0.0
H564 H 0.17929 0.36222 0.2049 0.0
H565 H 0.14557 0.40914 0.17915 0.0
C566 C 0.07942 0.39471 0.11491 0.0
C567 C 0.04553 0.38395 0.07966 0.0
C568 C 0.09743 0.36701 0.13059 0.0
C569 C 0.02815 0.34443 0.06147 0.0
C570 C 0.04569 0.31627 0.07743 0.0
C571 C 0.10049 0.29993 0.12682 0.0
C572 C 0.13645 0.31213 0.16037 0.0
C573 C 0.08093 0.32736 0.11161 0.0
C574 C 0.15198 0.35179 0.17884 0.0
C575 C 0.13262 0.37882 0.16428 0.0
H576 H 0.55731 0.55504 0.82757 0.0
H577 H 0.60336 0.65082 0.93393 0.0
H578 H 0.64212 0.69135 0.88922 0.0
H579 H 0.6656 0.69946 0.82142 0.0
H580 H 0.61997 0.60615 0.71323 0.0
H581 H 0.57829 0.56481 0.75695 0.0
C582 C 0.57591 0.58473 0.84089 0.0
C583 C 0.57767 0.59959 0.88427 0.0
C584 C 0.59818 0.60836 0.81471 0.0
C585 C 0.60156 0.63835 0.90086 0.0
C586 C 0.62378 0.66172 0.8753 0.0
C587 C 0.64622 0.67013 0.80732 0.0
C588 C 0.64578 0.65567 0.76441 0.0
C589 C 0.62261 0.64696 0.83243 0.0
C590 C 0.62036 0.61788 0.74621 0.0
C591 C 0.59688 0.59425 0.77129 0.0
H592 H 0.69378 0.37714 0.17243 0.0
H593 H 0.60581 0.27729 0.08751 0.0
H594 H 0.57144 0.31977 0.05087 0.0
H595 H 0.56026 0.38407 0.04948 0.0
H596 H 0.64437 0.48343 0.13809 0.0
H597 H 0.68679 0.44255 0.16625 0.0
C598 C 0.66785 0.36478 0.14515 0.0
C599 C 0.65227 0.32411 0.13283 0.0
C600 C 0.64724 0.3893 0.12516 0.0
C601 C 0.61833 0.30851 0.09771 0.0
C602 C 0.59851 0.33276 0.07684 0.0
C603 C 0.58848 0.39696 0.07422 0.0
C604 C 0.59912 0.43664 0.09183 0.0
C605 C 0.61177 0.37305 0.09125 0.0
C606 C 0.63544 0.45286 0.12423 0.0
C607 C 0.65962 0.42949 0.1404 0.0
H608 H 0.8868 0.45655 0.3882 0.0
H609 H 0.97299 0.38779 0.41648 0.0
H610 H 0.93651 0.34 0.3531 0.0
H611 H 0.87325 0.31176 0.29797 0.0
H612 H 0.7796 0.37385 0.27609 0.0
H613 H 0.82592 0.43042 0.32739 0.0
C614 C 0.8979 0.43143 0.37993 0.0
C615 C 0.93251 0.42576 0.40701 0.0
C616 C 0.87513 0.40263 0.34458 0.0
C617 C 0.94651 0.39298 0.39614 0.0
C618 C 0.92557 0.36546 0.35991 0.0
C619 C 0.8636 0.33813 0.3035 0.0
C620 C 0.82322 0.33882 0.28386 0.0
C621 C 0.88889 0.36916 0.33499 0.0
C622 C 0.81068 0.37288 0.29137 0.0
C623 C 0.83695 0.405 0.32087 0.0
H624 H 0.5396 0.60236 0.43238 0.0
H625 H 0.63594 0.54286 0.45263 0.0
H626 H 0.67988 0.58621 0.4127 0.0
H627 H 0.6897 0.64048 0.36957 0.0
H628 H 0.59109 0.69782 0.35014 0.0
H629 H 0.54977 0.65623 0.39222 0.0
C630 C 0.5702 0.59876 0.4281 0.0
C631 C 0.58428 0.56927 0.44534 0.0
C632 C 0.59512 0.62364 0.4052 0.0
C633 C 0.62435 0.56548 0.4399 0.0
C634 C 0.64946 0.5902 0.41692 0.0
C635 C 0.65938 0.64398 0.37497 0.0
C636 C 0.64351 0.67217 0.35642 0.0
C637 C 0.63509 0.61938 0.39915 0.0
C638 C 0.60398 0.67617 0.36353 0.0
C639 C 0.58021 0.6524 0.38771 0.0
H640 H 0.85203 0.31541 0.81328 0.0
H641 H 0.75099 0.34686 0.8655 0.0
H642 H 0.79748 0.41314 0.89198 0.0
H643 H 0.87032 0.45631 0.91176 0.0
H644 H 0.97098 0.42386 0.86025 0.0
H645 H 0.9202 0.3641 0.8188 0.0
C646 C 0.83986 0.33715 0.82937 0.0
C647 C 0.79859 0.32676 0.83773 0.0
C648 C 0.86642 0.37478 0.84389 0.0
C649 C 0.78301 0.35459 0.85913 0.0
C650 C 0.80935 0.39234 0.87389 0.0
C651 C 0.88044 0.43688 0.88972 0.0
C652 C 0.92369 0.44319 0.88926 0.0
C653 C 0.85156 0.40214 0.86789 0.0
C654 C 0.93745 0.41882 0.86082 0.0
C655 C 0.90867 0.38449 0.83795 0.0
H656 H 0.86649 0.78297 0.06436 0.0
H657 H 0.86224 0.8564 0.17968 0.0
H658 H 0.89265 0.91435 0.14948 0.0
H659 H 0.92349 0.94421 0.09156 0.0
H660 H 0.9243 0.8711 0.97487 0.0
H661 H 0.89231 0.81294 0.00434 0.0
C662 C 0.87209 0.81164 0.08289 0.0
C663 C 0.86245 0.81524 0.12446 0.0
C664 C 0.88913 0.84488 0.06511 0.0
C665 C 0.86948 0.85269 0.14772 0.0
C666 C 0.88696 0.88588 0.1305 0.0
C667 C 0.91631 0.9155 0.07254 0.0
C668 C 0.92629 0.91181 0.03122 0.0
C669 C 0.89734 0.88232 0.08945 0.0
C670 C 0.91655 0.87459 0.00663 0.0
C671 C 0.89851 0.84138 0.02357 0.0
H672 H 0.74704 0.09525 0.87034 0.0
H673 H 0.82698 0.1759 0.80645 0.0
H674 H 0.88261 0.14348 0.81943 0.0
H675 H 0.91039 0.09512 0.85349 0.0
H676 H 0.82984 0.01443 0.91697 0.0
H677 H 0.77252 0.04369 0.89902 0.0
C678 C 0.77651 0.10559 0.85896 0.0
C679 C 0.78294 0.13816 0.8378 0.0
C680 C 0.8083 0.08679 0.86644 0.0
C681 C 0.82118 0.15092 0.82289 0.0
C682 C 0.85307 0.13244 0.83038 0.0
C683 C 0.88009 0.08355 0.86287 0.0
C684 C 0.87462 0.05276 0.88681 0.0
C685 C 0.84723 0.10073 0.85272 0.0
C686 C 0.83503 0.03805 0.89849 0.0
C687 C 0.80224 0.05492 0.88846 0.0
H688 H 0.70216 0.1377 0.69855 0.0
H689 H 0.64178 0.22475 0.66389 0.0
H690 H 0.58683 0.17567 0.61073 0.0
H691 H 0.55768 0.10857 0.57291 0.0
H692 H 0.61572 0.02043 0.60865 0.0
H693 H 0.67038 0.06921 0.66301 0.0
C694 C 0.67682 0.14555 0.67918 0.0
C695 C 0.67556 0.18421 0.68414 0.0
C696 C 0.64542 0.11721 0.64916 0.0
C697 C 0.64282 0.19479 0.65986 0.0
C698 C 0.61167 0.16691 0.62966 0.0
C699 C 0.58243 0.10034 0.59276 0.0
C700 C 0.58368 0.06176 0.58709 0.0
C701 C 0.61293 0.12819 0.62381 0.0
C702 C 0.61503 0.05049 0.61277 0.0
C703 C 0.646 0.0782 0.64366 0.0
H704 H 0.54406 0.87287 0.36121 0.0
H705 H 0.63984 0.98151 0.4147 0.0
H706 H 0.69395 0.95547 0.38848 0.0
H707 H 0.71494 0.89973 0.3555 0.0
H708 H 0.61814 0.79097 0.30418 0.0
H709 H 0.56385 0.81924 0.32455 0.0
C710 C 0.57666 0.8911 0.36672 0.0
C711 C 0.5879 0.92895 0.39014 0.0
C712 C 0.60765 0.87576 0.35233 0.0
C713 C 0.63029 0.9522 0.39677 0.0
C714 C 0.66133 0.93727 0.38199 0.0
C715 C 0.68193 0.88239 0.34843 0.0
C716 C 0.67084 0.84322 0.32866 0.0
C717 C 0.65054 0.89875 0.36057 0.0
C718 C 0.62781 0.82114 0.31966 0.0
C719 C 0.59657 0.83725 0.33125 0.0
H720 H 0.92112 0.20544 0.33849 0.0
H721 H 0.79047 0.14053 0.33186 0.0
H722 H 0.81366 0.09459 0.3734 0.0
H723 H 0.87127 0.06935 0.40571 0.0
H724 H 0.00168 0.13414 0.41041 0.0
H725 H 0.97829 0.18355 0.37594 0.0
C726 C 0.89764 0.18154 0.34653 0.0
C727 C 0.85414 0.17628 0.33163 0.0
C728 C 0.91116 0.15487 0.36982 0.0
C729 C 0.8242 0.14527 0.34275 0.0
C730 C 0.83743 0.11883 0.36637 0.0
C731 C 0.89453 0.09445 0.39952 0.0
C732 C 0.9381 0.09757 0.4099 0.0
C733 C 0.88086 0.12276 0.37912 0.0
C734 C 0.96787 0.13054 0.40206 0.0
C735 C 0.95457 0.15895 0.38239 0.0
H736 H 0.68464 0.11768 0.1938 0.0
H737 H 0.60241 0.19091 0.17014 0.0
H738 H 0.55482 0.14033 0.11417 0.0
H739 H 0.54389 0.08027 0.06357 0.0
H740 H 0.62412 0.0058 0.08822 0.0
H741 H 0.66518 0.05178 0.15235 0.0
C742 C 0.65571 0.12211 0.17712 0.0
C743 C 0.64798 0.15848 0.18479 0.0
C744 C 0.62833 0.0928 0.14488 0.0
C745 C 0.60975 0.16351 0.16403 0.0
C746 C 0.58239 0.13453 0.13192 0.0
C747 C 0.56921 0.07343 0.08402 0.0
C748 C 0.58108 0.04003 0.07131 0.0
C749 C 0.59249 0.09985 0.12074 0.0
C750 C 0.61477 0.03176 0.0972 0.0
C751 C 0.63817 0.05793 0.13389 0.0
H752 H 0.64858 0.77686 0.85084 0.0
H753 H 0.63894 0.83093 0.73756 0.0
H754 H 0.60438 0.87497 0.77167 0.0
H755 H 0.57217 0.89451 0.83115 0.0
H756 H 0.58435 0.84396 0.94688 0.0
H757 H 0.62336 0.80248 0.91484 0.0
C758 C 0.64 0.79915 0.83439 0.0
C759 C 0.64671 0.8013 0.79217 0.0
C760 C 0.62017 0.82449 0.85436 0.0
C761 C 0.63485 0.82957 0.77049 0.0
C762 C 0.61467 0.85438 0.78977 0.0
C763 C 0.58326 0.87437 0.84943 0.0
C764 C 0.57448 0.87155 0.89089 0.0
C765 C 0.60628 0.85144 0.83124 0.0
C766 C 0.59016 0.84616 0.9146 0.0
C767 C 0.61251 0.82255 0.89633 0.0
H768 H 0.91338 0.90556 0.63467 0.0
H769 H 0.8543 0.83311 0.51179 0.0
H770 H 0.80397 0.79001 0.54607 0.0
H771 H 0.77833 0.77214 0.611 0.0
H772 H 0.84063 0.8416 0.73485 0.0
H773 H 0.88856 0.88669 0.7002 0.0
C774 C 0.88918 0.88051 0.61546 0.0
C775 C 0.88713 0.87254 0.57085 0.0
C776 C 0.86133 0.85528 0.63556 0.0
C777 C 0.85631 0.83969 0.54623 0.0
C778 C 0.82763 0.8151 0.56578 0.0
C779 C 0.80228 0.79723 0.63044 0.0
C780 C 0.80587 0.80366 0.67539 0.0
C781 C 0.8301 0.82247 0.61044 0.0
C782 C 0.83736 0.83602 0.70018 0.0
C783 C 0.86464 0.86183 0.68039 0.0
H784 H 0.09064 0.83266 0.81706 0.0
H785 H 0.22318 0.87566 0.87774 0.0
H786 H 0.20599 0.91912 0.93249 0.0
H787 H 0.15385 0.94629 0.96165 0.0
H788 H 0.02123 0.90324 0.90148 0.0
H789 H 0.03806 0.85831 0.8478 0.0
C790 C 0.1158 0.8514 0.84235 0.0
C791 C 0.15818 0.851 0.84314 0.0
C792 C 0.10573 0.87644 0.8736 0.0
C793 C 0.19031 0.87537 0.8763 0.0
C794 C 0.18053 0.90032 0.90756 0.0
C795 C 0.12855 0.92717 0.93674 0.0
C796 C 0.08635 0.92839 0.9353 0.0
C797 C 0.13843 0.90137 0.90623 0.0
C798 C 0.05397 0.90301 0.90318 0.0
C799 C 0.06358 0.87732 0.87251 0.0
H800 H 0.95183 0.45246 0.62649 0.0
H801 H 0.86522 0.37131 0.52021 0.0
H802 H 0.84333 0.32536 0.56882 0.0
H803 H 0.84111 0.3133 0.64224 0.0
H804 H 0.91837 0.39966 0.74923 0.0
H805 H 0.95321 0.43826 0.69969 0.0
C806 C 0.92879 0.42436 0.61393 0.0
C807 C 0.90981 0.41509 0.57018 0.0
C808 C 0.91505 0.39915 0.64223 0.0
C809 C 0.87974 0.37896 0.55404 0.0
C810 C 0.8674 0.35276 0.58171 0.0
C811 C 0.86665 0.3399 0.65462 0.0
C812 C 0.87772 0.35371 0.69897 0.0
C813 C 0.88381 0.36317 0.62601 0.0
C814 C 0.90991 0.38857 0.71503 0.0
C815 C 0.92937 0.41073 0.68676 0.0
H816 H 0.44115 0.11696 0.47281 0.0
H817 H 0.38422 0.01196 0.38007 0.0
H818 H 0.35893 0.04917 0.32806 0.0
H819 H 0.34776 0.10988 0.31098 0.0
H820 H 0.40004 0.21562 0.40356 0.0
H821 H 0.43238 0.17999 0.45364 0.0
C822 C 0.42402 0.10259 0.44084 0.0
C823 C 0.41484 0.06187 0.42993 0.0
C824 C 0.40818 0.12417 0.41143 0.0
C825 C 0.3918 0.04327 0.38891 0.0
C826 C 0.37716 0.0645 0.35928 0.0
C827 C 0.36638 0.12538 0.34201 0.0
C828 C 0.37113 0.16534 0.35358 0.0
C829 C 0.38427 0.10472 0.37056 0.0
C830 C 0.39576 0.18483 0.39384 0.0
C831 C 0.41421 0.16444 0.42249 0.0
H832 H 0.55129 0.61983 0.05788 0.0
H833 H 0.62022 0.53425 0.06385 0.0
H834 H 0.68111 0.58208 0.1115 0.0
H835 H 0.71049 0.64583 0.15837 0.0
H836 H 0.64129 0.73124 0.15304 0.0
H837 H 0.58544 0.68677 0.09655 0.0
C838 C 0.57987 0.61201 0.06951 0.0
C839 C 0.58122 0.57368 0.05898 0.0
C840 C 0.61475 0.63975 0.09632 0.0
C841 C 0.6185 0.56361 0.07278 0.0
C842 C 0.65328 0.59092 0.0997 0.0
C843 C 0.68381 0.65498 0.14369 0.0
C844 C 0.6795 0.69132 0.15945 0.0
C845 C 0.65127 0.62877 0.11263 0.0
C846 C 0.64469 0.70304 0.14118 0.0
C847 C 0.61277 0.67761 0.10925 0.0
H848 H 0.08822 0.20366 0.66974 0.0
H849 H 0.20065 0.20202 0.61812 0.0
H850 H 0.15893 0.14704 0.56261 0.0
H851 H 0.0946 0.09085 0.54023 0.0
H852 H 0.98581 0.08861 0.59927 0.0
H853 H 0.02154 0.15379 0.63999 0.0
C854 C 0.1035 0.1919 0.64578 0.0
C855 C 0.14768 0.20604 0.64891 0.0
C856 C 0.07993 0.15904 0.6157 0.0
C857 C 0.16678 0.19115 0.61693 0.0
C858 C 0.143 0.1595 0.58536 0.0
C859 C 0.07852 0.10527 0.56121 0.0
C860 C 0.03816 0.08521 0.56758 0.0
C861 C 0.10018 0.14178 0.58619 0.0
C862 C 0.01729 0.10362 0.59472 0.0
C863 C 0.03768 0.14075 0.6179 0.0
H864 H 0.65371 0.31605 0.39684 0.0
H865 H 0.60323 0.33213 0.26933 0.0
H866 H 0.55807 0.36753 0.29879 0.0
H867 H 0.53761 0.39918 0.36133 0.0
H868 H 0.58702 0.38208 0.48868 0.0
H869 H 0.62728 0.34165 0.45865 0.0
C870 C 0.63257 0.32699 0.37547 0.0
C871 C 0.63238 0.32187 0.33106 0.0
C872 C 0.60645 0.34732 0.39257 0.0
C873 C 0.60441 0.33593 0.30376 0.0
C874 C 0.57849 0.35622 0.32053 0.0
C875 C 0.5566 0.38602 0.38239 0.0
C876 C 0.55953 0.39396 0.42709 0.0
C877 C 0.57991 0.36283 0.36497 0.0
C878 C 0.58403 0.37643 0.45404 0.0
C879 C 0.6074 0.35349 0.43696 0.0
H880 H 0.36492 0.94625 0.10201 0.0
H881 H 0.49609 0.9705 0.1638 0.0
H882 H 0.48018 0.90692 0.18759 0.0
H883 H 0.43137 0.84087 0.18005 0.0
H884 H 0.30547 0.81397 0.10424 0.0
H885 H 0.31652 0.8822 0.09624 0.0
C886 C 0.38983 0.9382 0.12181 0.0
C887 C 0.43159 0.96273 0.13112 0.0
C888 C 0.38125 0.90081 0.13213 0.0
C889 C 0.46366 0.95184 0.15639 0.0
C890 C 0.45468 0.91542 0.16947 0.0
C891 C 0.40634 0.85036 0.1624 0.0
C892 C 0.36691 0.82339 0.14441 0.0
C893 C 0.41405 0.88903 0.1557 0.0
C894 C 0.33492 0.83516 0.12059 0.0
C895 C 0.34153 0.87388 0.11546 0.0
H896 H 0.87437 0.57472 0.91735 0.0
H897 H 0.99425 0.64423 0.89613 0.0
H898 H 0.95719 0.68453 0.85693 0.0
H899 H 0.88865 0.69446 0.82187 0.0
H900 H 0.77051 0.62066 0.84274 0.0
H901 H 0.80905 0.5876 0.88924 0.0
C902 C 0.89267 0.59888 0.9045 0.0
C903 C 0.93682 0.60609 0.90889 0.0
C904 C 0.87128 0.62098 0.88175 0.0
C905 C 0.96011 0.63802 0.89289 0.0
C906 C 0.93887 0.66084 0.87033 0.0
C907 C 0.87164 0.67165 0.83737 0.0
C908 C 0.8268 0.6597 0.82872 0.0
C909 C 0.89419 0.65186 0.86352 0.0
C910 C 0.80495 0.63 0.8486 0.0
C911 C 0.82692 0.61108 0.87519 0.0
H912 H 0.40344 0.43311 0.14136 0.0
H913 H 0.47841 0.35322 0.12499 0.0
H914 H 0.44653 0.31674 0.17722 0.0
H915 H 0.39233 0.30353 0.22232 0.0
H916 H 0.31215 0.379 0.2335 0.0
H917 H 0.35129 0.42157 0.18958 0.0
C918 C 0.41319 0.40809 0.14979 0.0
C919 C 0.44311 0.39583 0.12919 0.0
C920 C 0.39381 0.38648 0.17917 0.0
C921 C 0.45515 0.36308 0.14009 0.0
C922 C 0.43703 0.34221 0.17008 0.0
C923 C 0.38448 0.33001 0.21618 0.0
C924 C 0.35029 0.33885 0.2318 0.0
C925 C 0.40574 0.35315 0.1892 0.0
C926 C 0.33908 0.37229 0.22241 0.0
C927 C 0.36115 0.39634 0.19698 0.0
H928 H 0.37794 0.54374 0.8482 0.0
H929 H 0.44391 0.62219 0.96576 0.0
H930 H 0.40807 0.67033 0.94442 0.0
H931 H 0.36349 0.69238 0.88862 0.0
H932 H 0.29818 0.61261 0.77158 0.0
H933 H 0.32857 0.56289 0.79646 0.0
C934 C 0.38427 0.5712 0.86949 0.0
C935 C 0.41399 0.57954 0.90829 0.0
C936 C 0.36397 0.59869 0.85687 0.0
C937 C 0.42132 0.61509 0.93563 0.0
C938 C 0.40097 0.64268 0.92333 0.0
C939 C 0.35533 0.66388 0.86893 0.0
C940 C 0.32878 0.65647 0.82811 0.0
C941 C 0.37303 0.63516 0.88348 0.0
C942 C 0.31838 0.61928 0.8031 0.0
C943 C 0.33594 0.59077 0.81722 0.0
H944 H 0.04198 0.57955 0.62638 0.0
H945 H 0.1415 0.54548 0.57412 0.0
H946 H 0.19536 0.59589 0.62712 0.0
H947 H 0.2127 0.65554 0.68069 0.0
H948 H 0.11256 0.68651 0.73533 0.0
H949 H 0.06017 0.63049 0.68976 0.0
C950 C 0.07545 0.58288 0.62702 0.0
C951 C 0.088 0.55984 0.59594 0.0
C952 C 0.10594 0.6112 0.65793 0.0
C953 C 0.13134 0.56351 0.59754 0.0
C954 C 0.16203 0.59223 0.62777 0.0
C955 C 0.17968 0.64932 0.68363 0.0
C956 C 0.16656 0.67575 0.71047 0.0
C957 C 0.14959 0.61709 0.65715 0.0
C958 C 0.12355 0.66708 0.71431 0.0
C959 C 0.09343 0.63516 0.68806 0.0
H960 H 0.31945 0.32803 0.59518 0.0
H961 H 0.42341 0.3526 0.70326 0.0
H962 H 0.46724 0.40039 0.66875 0.0
H963 H 0.47733 0.43416 0.60768 0.0
H964 H 0.37585 0.4088 0.49724 0.0
H965 H 0.32991 0.36287 0.53291 0.0
C966 C 0.35154 0.34416 0.61127 0.0
C967 C 0.36801 0.33666 0.65184 0.0
C968 C 0.3772 0.37141 0.59076 0.0
C969 C 0.40986 0.35757 0.67203 0.0
C970 C 0.43506 0.38499 0.65231 0.0
C971 C 0.44523 0.41856 0.59117 0.0
C972 C 0.43036 0.42485 0.5496 0.0
C973 C 0.41927 0.39188 0.61157 0.0
C974 C 0.3884 0.40444 0.5291 0.0
C975 C 0.36203 0.37817 0.54955 0.0
H976 H 0.1533 0.65775 0.18962 0.0
H977 H 0.24023 0.65922 0.10212 0.0
H978 H 0.20073 0.5927 0.06799 0.0
H979 H 0.13084 0.54536 0.05025 0.0
H980 H 0.04052 0.54711 0.13351 0.0
H981 H 0.09347 0.59933 0.18495 0.0
C982 C 0.16459 0.64255 0.16461 0.0
C983 C 0.19848 0.66282 0.14746 0.0
C984 C 0.14108 0.60502 0.14463 0.0
C985 C 0.2131 0.6439 0.11459 0.0
C986 C 0.19083 0.60598 0.09542 0.0
C987 C 0.12357 0.55639 0.08052 0.0
C988 C 0.08203 0.54471 0.08765 0.0
C989 C 0.15297 0.58773 0.10802 0.0
C990 C 0.07245 0.55711 0.12728 0.0
C991 C 0.10245 0.58715 0.15629 0.0
H992 H 0.74803 0.39383 0.65315 0.0
H993 H 0.65848 0.31851 0.71315 0.0
H994 H 0.60392 0.34932 0.68796 0.0
H995 H 0.58052 0.39453 0.64452 0.0
H996 H 0.67106 0.47185 0.58714 0.0
H997 H 0.7267 0.44401 0.61639 0.0
C998 C 0.71669 0.3846 0.6611 0.0
C999 C 0.70705 0.35397 0.68474 0.0
C1000 C 0.68579 0.40283 0.64709 0.0
C1001 C 0.66657 0.34229 0.69523 0.0
C1002 C 0.63537 0.35974 0.68066 0.0
C1003 C 0.6126 0.40569 0.639 0.0
C1004 C 0.62159 0.43502 0.6135 0.0
C1005 C 0.64445 0.38964 0.65602 0.0
C1006 C 0.66334 0.4494 0.60682 0.0
C1007 C 0.69511 0.4333 0.62327 0.0
H1008 H 0.80565 0.62708 0.07212 0.0
H1009 H 0.87162 0.64302 0.20347 0.0
H1010 H 0.91752 0.60503 0.18087 0.0
H1011 H 0.9456 0.57557 0.12276 0.0
H1012 H 0.87978 0.55837 0.99159 0.0
H1013 H 0.82722 0.58851 0.01495 0.0
C1014 C 0.82953 0.62162 0.09588 0.0
C1015 C 0.83584 0.63863 0.13929 0.0
C1016 C 0.85622 0.59993 0.0826 0.0
C1017 C 0.86667 0.63095 0.16972 0.0
C1018 C 0.89298 0.60921 0.15686 0.0
C1019 C 0.91903 0.57751 0.09955 0.0
C1020 C 0.91646 0.565 0.05566 0.0
C1021 C 0.88908 0.59483 0.11325 0.0
C1022 C 0.88205 0.56755 0.02565 0.0
C1023 C 0.85223 0.58507 0.03897 0.0
H1024 H 0.87272 0.58869 0.54572 0.0
H1025 H 0.94585 0.57303 0.66325 0.0
H1026 H 0.91307 0.61243 0.70552 0.0
H1027 H 0.86629 0.65367 0.71039 0.0
H1028 H 0.79075 0.67014 0.59574 0.0
H1029 H 0.82149 0.62832 0.55122 0.0
C1030 C 0.88132 0.59387 0.58053 0.0
C1031 C 0.91211 0.57796 0.60099 0.0
C1032 C 0.86195 0.61681 0.60531 0.0
C1033 C 0.9226 0.58488 0.64628 0.0
C1034 C 0.90382 0.60749 0.67075 0.0
C1035 C 0.85634 0.64777 0.67562 0.0
C1036 C 0.82653 0.66471 0.65618 0.0
C1037 C 0.87389 0.62387 0.65071 0.0
C1038 C 0.81352 0.65695 0.61125 0.0
C1039 C 0.83129 0.63328 0.58591 0.0
H1040 H 0.41495 0.57339 0.33241 0.0
H1041 H 0.34785 0.54183 0.43477 0.0
H1042 H 0.29717 0.57655 0.41089 0.0
H1043 H 0.27454 0.61933 0.36412 0.0
H1044 H 0.33917 0.64943 0.25997 0.0
H1045 H 0.38812 0.61168 0.28123 0.0
C1046 C 0.38886 0.57366 0.34906 0.0
C1047 C 0.38531 0.55512 0.38536 0.0
C1048 C 0.35962 0.59365 0.3351 0.0
C1049 C 0.35124 0.5556 0.40656 0.0
C1050 C 0.32236 0.5757 0.39314 0.0
C1051 C 0.29924 0.61744 0.34597 0.0
C1052 C 0.30367 0.63736 0.31092 0.0
C1053 C 0.32672 0.59538 0.35799 0.0
C1054 C 0.33527 0.63427 0.28716 0.0
C1055 C 0.36328 0.61281 0.29936 0.0
H1056 H 0.17785 0.33705 0.92779 0.0
H1057 H 0.15979 0.36739 0.80059 0.0
H1058 H 0.11806 0.40985 0.82322 0.0
H1059 H 0.07758 0.43028 0.87599 0.0
H1060 H 0.09511 0.39933 0.00255 0.0
H1061 H 0.14588 0.36503 0.98346 0.0
C1062 C 0.16555 0.35355 0.90523 0.0
C1063 C 0.17119 0.3484 0.86231 0.0
C1064 C 0.14093 0.37739 0.91823 0.0
C1065 C 0.15531 0.3703 0.83364 0.0
C1066 C 0.13132 0.39453 0.8465 0.0
C1067 C 0.09364 0.41698 0.89958 0.0
C1068 C 0.08324 0.41741 0.94057 0.0
C1069 C 0.12252 0.39709 0.8882 0.0
C1070 C 0.1034 0.39971 0.97098 0.0
C1071 C 0.13213 0.37989 0.95997 0.0
H1072 H 0.19377 0.31625 0.40951 0.0
H1073 H 0.18585 0.36141 0.28988 0.0
H1074 H 0.13932 0.39833 0.31304 0.0
H1075 H 0.0987 0.41596 0.36559 0.0
H1076 H 0.10894 0.37525 0.48766 0.0
H1077 H 0.15707 0.33877 0.46553 0.0
C1078 C 0.18244 0.33481 0.38902 0.0
C1079 C 0.19356 0.33635 0.34825 0.0
C1080 C 0.1559 0.3565 0.40278 0.0
C1081 C 0.1785 0.36028 0.32176 0.0
C1082 C 0.15148 0.38113 0.33477 0.0
C1083 C 0.11134 0.39905 0.38741 0.0
C1084 C 0.09982 0.39782 0.42795 0.0
C1085 C 0.13958 0.37907 0.37492 0.0
C1086 C 0.11714 0.37639 0.45612 0.0
C1087 C 0.14466 0.35559 0.44349 0.0
loop_
_geom_bond_atom_site_label_1
_geom_bond_atom_site_label_2
_geom_bond_distance
_geom_bond_site_symmetry_2
_ccdc_geom_bond_type
Zn0 O6 1.969 . S
Zn0 O7 1.965 1_655 S
Zn0 O11 2.024 1_556 S
Zn0 O16 1.969 1_546 S
Zn1 O8 1.969 1_564 S
Zn1 O14 1.969 . S
Zn1 O15 1.965 1_455 S
Zn1 O17 2.024 1_554 S
C2 O3 1.229 . S
C2 O11 1.058 . S
O3 C2 1.229 . S
C4 O5 1.229 . S
C4 O17 1.058 . S
O5 C4 1.229 . S
O6 Zn0 1.969 . S
O6 C9 1.267 . S
O7 Zn0 1.965 1_455 S
O7 C18 1.260 . S
O8 Zn1 1.969 1_546 S
O8 C18 1.258 . S
C9 O6 1.267 . S
C9 O10 1.228 . S
O10 C9 1.228 . S
O11 Zn0 2.024 1_554 S
O11 C2 1.058 . S
C12 O13 1.228 . S
C12 O14 1.267 . S
O13 C12 1.228 . S
O14 Zn1 1.969 . S
O14 C12 1.267 . S
O15 Zn1 1.965 1_655 S
O15 C19 1.260 . S
O16 Zn0 1.969 1_564 S
O16 C19 1.258 . S
O17 Zn1 2.024 1_556 S
O17 C4 1.058 . S
C18 O7 1.260 . S
C18 O8 1.258 . S
C19 O15 1.260 . S
C19 O16 1.258 . S
Zn20 O26 1.969 . S
Zn20 O27 1.965 . S
Zn20 O31 2.024 . S
Zn20 O36 1.969 . S
Zn21 O28 1.969 . S
Zn21 O34 1.969 . S
Zn21 O35 1.965 . S
Zn21 O37 2.024 . S
C22 O23 1.229 . S
C22 O31 1.058 . S
O23 C22 1.229 . S
C24 O25 1.229 . S
C24 O37 1.058 . S
O25 C24 1.229 . S
O26 Zn20 1.969 . S
O26 C29 1.267 . S
O27 Zn20 1.965 . S
O27 C38 1.260 . S
O28 Zn21 1.969 . S
O28 C38 1.258 . S
C29 O26 1.267 . S
C29 O30 1.228 . S
O30 C29 1.228 . S
O31 Zn20 2.024 . S
O31 C22 1.058 . S
C32 O33 1.228 . S
C32 O34 1.267 . S
O33 C32 1.228 . S
O34 Zn21 1.969 . S
O34 C32 1.267 . S
O35 Zn21 1.965 . S
O35 C39 1.260 . S
O36 Zn20 1.969 . S
O36 C39 1.258 . S
O37 Zn21 2.024 . S
O37 C24 1.058 . S
C38 O27 1.260 . S
C38 O28 1.258 . S
C39 O35 1.260 . S
C39 O36 1.258 . S
Zn40 O46 1.969 . S
Zn40 O47 1.965 . S
Zn40 O51 2.024 . S
Zn40 O56 1.969 1_565 S
Zn41 O48 1.969 1_545 S
Zn41 O54 1.969 . S
Zn41 O55 1.965 . S
Zn41 O57 2.024 . S
C42 O43 1.229 . S
C42 O51 1.058 . S
O43 C42 1.229 . S
C44 O45 1.229 . S
C44 O57 1.058 . S
O45 C44 1.229 . S
O46 Zn40 1.969 . S
O46 C49 1.267 . S
O47 Zn40 1.965 . S
O47 C58 1.260 . S
O48 Zn41 1.969 1_565 S
O48 C58 1.258 . S
C49 O46 1.267 . S
C49 O50 1.228 . S
O50 C49 1.228 . S
O51 Zn40 2.024 . S
O51 C42 1.058 . S
C52 O53 1.228 . S
C52 O54 1.267 . S
O53 C52 1.228 . S
O54 Zn41 1.969 . S
O54 C52 1.267 . S
O55 Zn41 1.965 . S
O55 C59 1.260 . S
O56 Zn40 1.969 1_545 S
O56 C59 1.258 . S
O57 Zn41 2.024 . S
O57 C44 1.058 . S
C58 O47 1.260 . S
C58 O48 1.258 . S
C59 O55 1.260 . S
C59 O56 1.258 . S
Zn60 O66 1.969 . S
Zn60 O67 1.965 . S
Zn60 O71 2.024 . S
Zn60 O76 1.969 . S
Zn61 O68 1.969 . S
Zn61 O74 1.969 . S
Zn61 O75 1.965 . S
Zn61 O77 2.024 . S
C62 O63 1.229 . S
C62 O71 1.058 . S
O63 C62 1.229 . S
C64 O65 1.229 . S
C64 O77 1.058 . S
O65 C64 1.229 . S
O66 Zn60 1.969 . S
O66 C69 1.267 . S
O67 Zn60 1.965 . S
O67 C78 1.260 . S
O68 Zn61 1.969 . S
O68 C78 1.258 . S
C69 O66 1.267 . S
C69 O70 1.228 . S
O70 C69 1.228 . S
O71 Zn60 2.024 . S
O71 C62 1.058 . S
C72 O73 1.228 . S
C72 O74 1.267 . S
O73 C72 1.228 . S
O74 Zn61 1.969 . S
O74 C72 1.267 . S
O75 Zn61 1.965 . S
O75 C79 1.260 . S
O76 Zn60 1.969 . S
O76 C79 1.258 . S
O77 Zn61 2.024 . S
O77 C64 1.058 . S
C78 O67 1.260 . S
C78 O68 1.258 . S
C79 O75 1.260 . S
C79 O76 1.258 . S
Zn80 O86 1.969 . S
Zn80 O87 1.965 . S
Zn80 O91 2.024 1_455 S
Zn80 O96 1.969 1_445 S
Zn81 O88 1.969 1_665 S
Zn81 O94 1.969 . S
Zn81 O95 1.965 . S
Zn81 O97 2.024 1_655 S
C82 O83 1.229 . S
C82 O91 1.058 . S
O83 C82 1.229 . S
C84 O85 1.229 . S
C84 O97 1.058 . S
O85 C84 1.229 . S
O86 Zn80 1.969 . S
O86 C89 1.267 . S
O87 Zn80 1.965 . S
O87 C98 1.260 . S
O88 Zn81 1.969 1_445 S
O88 C98 1.258 . S
C89 O86 1.267 . S
C89 O90 1.228 . S
O90 C89 1.228 . S
O91 Zn80 2.024 1_655 S
O91 C82 1.058 . S
C92 O93 1.228 . S
C92 O94 1.267 . S
O93 C92 1.228 . S
O94 Zn81 1.969 . S
O94 C92 1.267 . S
O95 Zn81 1.965 . S
O95 C99 1.260 . S
O96 Zn80 1.969 1_665 S
O96 C99 1.258 . S
O97 Zn81 2.024 1_455 S
O97 C84 1.058 . S
C98 O87 1.260 . S
C98 O88 1.258 . S
C99 O95 1.260 . S
C99 O96 1.258 . S
Zn100 O106 1.969 . S
Zn100 O107 1.965 . S
Zn100 O111 2.024 . S
Zn100 O116 1.969 . S
Zn101 O108 1.969 . S
Zn101 O114 1.969 . S
Zn101 O115 1.965 . S
Zn101 O117 2.024 . S
C102 O103 1.229 . S
C102 O111 1.058 . S
O103 C102 1.229 . S
C104 O105 1.229 . S
C104 O117 1.058 . S
O105 C104 1.229 . S
O106 Zn100 1.969 . S
O106 C109 1.267 . S
O107 Zn100 1.965 . S
O107 C118 1.260 . S
O108 Zn101 1.969 . S
O108 C118 1.258 . S
C109 O106 1.267 . S
C109 O110 1.228 . S
O110 C109 1.228 . S
O111 Zn100 2.024 . S
O111 C102 1.058 . S
C112 O113 1.228 . S
C112 O114 1.267 . S
O113 C112 1.228 . S
O114 Zn101 1.969 . S
O114 C112 1.267 . S
O115 Zn101 1.965 . S
O115 C119 1.260 . S
O116 Zn100 1.969 . S
O116 C119 1.258 . S
O117 Zn101 2.024 . S
O117 C104 1.058 . S
C118 O107 1.260 . S
C118 O108 1.258 . S
C119 O115 1.260 . S
C119 O116 1.258 . S
Zn120 O126 1.969 . S
Zn120 O127 1.965 . S
Zn120 O131 2.024 1_545 S
Zn120 O136 1.969 1_544 S
Zn121 O128 1.959 1_566 S
Zn121 O134 1.992 . S
Zn121 O135 1.976 . S
Zn121 O137 2.002 1_565 S
C122 O123 1.229 . S
C122 O131 1.058 . S
O123 C122 1.229 . S
C124 O125 1.229 . S
C124 O137 1.058 . S
O125 C124 1.229 . S
O126 Zn120 1.969 . S
O126 C129 1.267 . S
O127 Zn120 1.965 . S
O127 C138 1.260 . S
O128 Zn121 1.959 1_544 S
O128 C138 1.258 . S
C129 O126 1.267 . S
C129 O130 1.228 . S
O130 C129 1.228 . S
O131 Zn120 2.024 1_565 S
O131 C122 1.058 . S
C132 O133 1.228 . S
C132 O134 1.267 . S
O133 C132 1.228 . S
O134 Zn121 1.992 . S
O134 C132 1.267 . S
O135 Zn121 1.976 . S
O135 C139 1.260 . S
O136 Zn120 1.969 1_566 S
O136 C139 1.258 . S
O137 Zn121 2.002 1_545 S
O137 C124 1.058 . S
C138 O127 1.260 . S
C138 O128 1.258 . S
C139 O135 1.260 . S
C139 O136 1.258 . S
Zn140 O146 1.969 . S
Zn140 O147 1.965 . S
Zn140 O151 2.024 . S
Zn140 O156 1.969 . S
Zn141 O148 1.969 . S
Zn141 O154 1.969 . S
Zn141 O155 1.965 . S
Zn141 O157 2.024 . S
C142 O143 1.229 . S
C142 O151 1.058 . S
O143 C142 1.229 . S
C144 O145 1.229 . S
C144 O157 1.058 . S
O145 C144 1.229 . S
O146 Zn140 1.969 . S
O146 C149 1.267 . S
O147 Zn140 1.965 . S
O147 C158 1.260 . S
O148 Zn141 1.969 . S
O148 C158 1.258 . S
C149 O146 1.267 . S
C149 O150 1.228 . S
O150 C149 1.228 . S
O151 Zn140 2.024 . S
O151 C142 1.058 . S
C152 O153 1.228 . S
C152 O154 1.267 . S
O153 C152 1.228 . S
O154 Zn141 1.969 . S
O154 C152 1.267 . S
O155 Zn141 1.965 . S
O155 C159 1.260 . S
O156 Zn140 1.969 . S
O156 C159 1.258 . S
O157 Zn141 2.024 . S
O157 C144 1.058 . S
C158 O147 1.260 . S
C158 O148 1.258 . S
C159 O155 1.260 . S
C159 O156 1.258 . S
Zn160 O166 1.969 . S
Zn160 O167 1.965 1_556 S
Zn160 O171 2.024 . S
Zn160 O176 1.969 . S
Zn161 O168 1.969 . S
Zn161 O174 1.969 . S
Zn161 O175 1.965 1_554 S
Zn161 O177 2.024 . S
C162 O163 1.229 . S
C162 O171 1.058 . S
O163 C162 1.229 . S
C164 O165 1.229 . S
C164 O177 1.058 . S
O165 C164 1.229 . S
O166 Zn160 1.969 . S
O166 C169 1.267 . S
O167 Zn160 1.965 1_554 S
O167 C178 1.260 . S
O168 Zn161 1.969 . S
O168 C178 1.258 . S
C169 O166 1.267 . S
C169 O170 1.228 . S
O170 C169 1.228 . S
O171 Zn160 2.024 . S
O171 C162 1.058 . S
C172 O173 1.228 . S
C172 O174 1.267 . S
O173 C172 1.228 . S
O174 Zn161 1.969 . S
O174 C172 1.267 . S
O175 Zn161 1.965 1_556 S
O175 C179 1.260 . S
O176 Zn160 1.969 . S
O176 C179 1.258 . S
O177 Zn161 2.024 . S
O177 C164 1.058 . S
C178 O167 1.260 . S
C178 O168 1.258 . S
C179 O175 1.260 . S
C179 O176 1.258 . S
Zn180 O186 1.969 . S
Zn180 O187 1.965 . S
Zn180 O191 2.024 . S
Zn180 O196 1.969 . S
Zn181 O188 1.969 . S
Zn181 O194 1.969 . S
Zn181 O195 1.965 . S
Zn181 O197 2.024 . S
C182 O183 1.229 . S
C182 O191 1.058 . S
O183 C182 1.229 . S
C184 O185 1.229 . S
C184 O197 1.058 . S
O185 C184 1.229 . S
O186 Zn180 1.969 . S
O186 C189 1.267 . S
O187 Zn180 1.965 . S
O187 C198 1.260 . S
O188 Zn181 1.969 . S
O188 C198 1.258 . S
C189 O186 1.267 . S
C189 O190 1.228 . S
O190 C189 1.228 . S
O191 Zn180 2.024 . S
O191 C182 1.058 . S
C192 O193 1.228 . S
C192 O194 1.267 . S
O193 C192 1.228 . S
O194 Zn181 1.969 . S
O194 C192 1.267 . S
O195 Zn181 1.965 . S
O195 C199 1.260 . S
O196 Zn180 1.969 . S
O196 C199 1.258 . S
O197 Zn181 2.024 . S
O197 C184 1.058 . S
C198 O187 1.260 . S
C198 O188 1.258 . S
C199 O195 1.260 . S
C199 O196 1.258 . S
Zn200 O206 1.969 . S
Zn200 O207 1.965 1_655 S
Zn200 O211 2.024 . S
Zn200 O216 1.969 . S
Zn201 O208 1.969 . S
Zn201 O214 1.969 . S
Zn201 O215 1.965 1_455 S
Zn201 O217 2.024 . S
C202 O203 1.229 . S
C202 O211 1.058 . S
O203 C202 1.229 . S
C204 O205 1.229 . S
C204 O217 1.058 . S
O205 C204 1.229 . S
O206 Zn200 1.969 . S
O206 C209 1.267 . S
O207 Zn200 1.965 1_455 S
O207 C218 1.260 . S
O208 Zn201 1.969 . S
O208 C218 1.258 . S
C209 O206 1.267 . S
C209 O210 1.228 . S
O210 C209 1.228 . S
O211 Zn200 2.024 . S
O211 C202 1.058 . S
C212 O213 1.228 . S
C212 O214 1.267 . S
O213 C212 1.228 . S
O214 Zn201 1.969 . S
O214 C212 1.267 . S
O215 Zn201 1.965 1_655 S
O215 C219 1.260 . S
O216 Zn200 1.969 . S
O216 C219 1.258 . S
O217 Zn201 2.024 . S
O217 C204 1.058 . S
C218 O207 1.260 . S
C218 O208 1.258 . S
C219 O215 1.260 . S
C219 O216 1.258 . S
Zn220 O226 1.969 . S
Zn220 O227 1.965 . S
Zn220 O231 2.024 . S
Zn220 O236 1.969 . S
Zn221 O228 1.969 . S
Zn221 O234 1.969 . S
Zn221 O235 1.965 . S
Zn221 O237 2.024 . S
C222 O223 1.229 . S
C222 O231 1.058 . S
O223 C222 1.229 . S
C224 O225 1.229 . S
C224 O237 1.058 . S
O225 C224 1.229 . S
O226 Zn220 1.969 . S
O226 C229 1.267 . S
O227 Zn220 1.965 . S
O227 C238 1.260 . S
O228 Zn221 1.969 . S
O228 C238 1.258 . S
C229 O226 1.267 . S
C229 O230 1.228 . S
O230 C229 1.228 . S
O231 Zn220 2.024 . S
O231 C222 1.058 . S
C232 O233 1.228 . S
C232 O234 1.267 . S
O233 C232 1.228 . S
O234 Zn221 1.969 . S
O234 C232 1.267 . S
O235 Zn221 1.965 . S
O235 C239 1.260 . S
O236 Zn220 1.969 . S
O236 C239 1.258 . S
O237 Zn221 2.024 . S
O237 C224 1.058 . S
C238 O227 1.260 . S
C238 O228 1.258 . S
C239 O235 1.260 . S
C239 O236 1.258 . S
Zn240 O246 1.969 . S
Zn240 O247 1.965 . S
Zn240 O251 2.024 . S
Zn240 O256 1.969 . S
Zn241 O248 1.969 . S
Zn241 O254 1.969 . S
Zn241 O255 1.965 . S
Zn241 O257 2.024 . S
C242 O243 1.229 . S
C242 O251 1.058 . S
O243 C242 1.229 . S
C244 O245 1.229 . S
C244 O257 1.058 . S
O245 C244 1.229 . S
O246 Zn240 1.969 . S
O246 C249 1.267 . S
O247 Zn240 1.965 . S
O247 C258 1.260 . S
O248 Zn241 1.969 . S
O248 C258 1.258 . S
C249 O246 1.267 . S
C249 O250 1.228 . S
O250 C249 1.228 . S
O251 Zn240 2.024 . S
O251 C242 1.058 . S
C252 O253 1.228 . S
C252 O254 1.267 . S
O253 C252 1.228 . S
O254 Zn241 1.969 . S
O254 C252 1.267 . S
O255 Zn241 1.965 . S
O255 C259 1.260 . S
O256 Zn240 1.969 . S
O256 C259 1.258 . S
O257 Zn241 2.024 . S
O257 C244 1.058 . S
C258 O247 1.260 . S
C258 O248 1.258 . S
C259 O255 1.260 . S
C259 O256 1.258 . S
Zn260 O266 1.969 . S
Zn260 O267 1.965 . S
Zn260 O271 2.024 . S
Zn260 O276 1.969 . S
Zn261 O268 1.969 . S
Zn261 O274 1.969 . S
Zn261 O275 1.965 . S
Zn261 O277 2.024 . S
C262 O263 1.229 . S
C262 O271 1.058 . S
O263 C262 1.229 . S
C264 O265 1.229 . S
C264 O277 1.058 . S
O265 C264 1.229 . S
O266 Zn260 1.969 . S
O266 C269 1.267 . S
O267 Zn260 1.965 . S
O267 C278 1.260 . S
O268 Zn261 1.969 . S
O268 C278 1.258 . S
C269 O266 1.267 . S
C269 O270 1.228 . S
O270 C269 1.228 . S
O271 Zn260 2.024 . S
O271 C262 1.058 . S
C272 O273 1.228 . S
C272 O274 1.267 . S
O273 C272 1.228 . S
O274 Zn261 1.969 . S
O274 C272 1.267 . S
O275 Zn261 1.965 . S
O275 C279 1.260 . S
O276 Zn260 1.969 . S
O276 C279 1.258 . S
O277 Zn261 2.024 . S
O277 C264 1.058 . S
C278 O267 1.260 . S
C278 O268 1.258 . S
C279 O275 1.260 . S
C279 O276 1.258 . S
Zn280 O286 1.969 . S
Zn280 O287 1.965 . S
Zn280 O291 2.024 . S
Zn280 O296 1.969 . S
Zn281 O288 1.969 . S
Zn281 O294 1.969 . S
Zn281 O295 1.965 . S
Zn281 O297 2.024 . S
C282 O283 1.229 . S
C282 O291 1.058 . S
O283 C282 1.229 . S
C284 O285 1.229 . S
C284 O297 1.058 . S
O285 C284 1.229 . S
O286 Zn280 1.969 . S
O286 C289 1.267 . S
O287 Zn280 1.965 . S
O287 C298 1.260 . S
O288 Zn281 1.969 . S
O288 C298 1.258 . S
C289 O286 1.267 . S
C289 O290 1.228 . S
O290 C289 1.228 . S
O291 Zn280 2.024 . S
O291 C282 1.058 . S
C292 O293 1.228 . S
C292 O294 1.267 . S
O293 C292 1.228 . S
O294 Zn281 1.969 . S
O294 C292 1.267 . S
O295 Zn281 1.965 . S
O295 C299 1.260 . S
O296 Zn280 1.969 . S
O296 C299 1.258 . S
O297 Zn281 2.024 . S
O297 C284 1.058 . S
C298 O287 1.260 . S
C298 O288 1.258 . S
C299 O295 1.260 . S
C299 O296 1.258 . S
Zn300 O306 1.969 . S
Zn300 O307 1.965 . S
Zn300 O311 2.024 1_554 S
Zn300 O316 1.969 1_454 S
Zn301 O308 1.969 1_656 S
Zn301 O314 1.969 . S
Zn301 O315 1.965 . S
Zn301 O317 2.024 1_556 S
C302 O303 1.229 . S
C302 O311 1.058 . S
O303 C302 1.229 . S
C304 O305 1.229 . S
C304 O317 1.058 . S
O305 C304 1.229 . S
O306 Zn300 1.969 . S
O306 C309 1.267 . S
O307 Zn300 1.965 . S
O307 C318 1.260 . S
O308 Zn301 1.969 1_454 S
O308 C318 1.258 . S
C309 O306 1.267 . S
C309 O310 1.228 . S
O310 C309 1.228 . S
O311 Zn300 2.024 1_556 S
O311 C302 1.058 . S
C312 O313 1.228 . S
C312 O314 1.267 . S
O313 C312 1.228 . S
O314 Zn301 1.969 . S
O314 C312 1.267 . S
O315 Zn301 1.965 . S
O315 C319 1.260 . S
O316 Zn300 1.969 1_656 S
O316 C319 1.258 . S
O317 Zn301 2.024 1_554 S
O317 C304 1.058 . S
C318 O307 1.260 . S
C318 O308 1.258 . S
C319 O315 1.260 . S
C319 O316 1.258 . S
H320 C326 0.930 . S
H321 C329 0.930 . S
H322 C330 0.930 . S
H323 C331 0.930 . S
H324 C334 0.930 1_554 S
H325 C335 0.930 . S
C326 H320 0.930 . S
C326 C327 1.355 . S
C326 C328 1.415 . S
C327 C326 1.355 . S
C327 C329 1.419 . S
C328 C326 1.415 . S
C328 C333 1.425 . S
C328 C335 1.409 . S
C329 H321 0.930 . S
C329 C327 1.419 . S
C329 C330 1.362 . S
C330 H322 0.930 . S
C330 C329 1.362 . S
C330 C333 1.409 . S
C331 H323 0.930 . S
C331 C332 1.355 . S
C331 C333 1.415 . S
C332 C331 1.355 . S
C332 C334 1.419 . S
C333 C328 1.425 . S
C333 C330 1.409 . S
C333 C331 1.415 . S
C334 H324 0.930 1_556 S
C334 C332 1.419 . S
C334 C335 1.362 . S
C335 H325 0.930 . S
C335 C328 1.409 . S
C335 C334 1.362 . S
H336 C342 0.930 . S
H337 C345 0.930 . S
H338 C346 0.930 . S
H339 C347 0.930 . S
H340 C350 0.930 . S
H341 C351 0.930 . S
C342 H336 0.930 . S
C342 C343 1.355 . S
C342 C344 1.415 . S
C343 C342 1.355 . S
C343 C345 1.419 . S
C344 C342 1.415 . S
C344 C349 1.425 . S
C344 C351 1.409 . S
C345 H337 0.930 . S
C345 C343 1.419 . S
C345 C346 1.362 . S
C346 H338 0.930 . S
C346 C345 1.362 . S
C346 C349 1.409 . S
C347 H339 0.930 . S
C347 C348 1.355 . S
C347 C349 1.415 . S
C348 C347 1.355 . S
C348 C350 1.419 . S
C349 C344 1.425 . S
C349 C346 1.409 . S
C349 C347 1.415 . S
C350 H340 0.930 . S
C350 C348 1.419 . S
C350 C351 1.362 . S
C351 H341 0.930 . S
C351 C344 1.409 . S
C351 C350 1.362 . S
H352 C358 0.930 . S
H353 C361 0.930 . S
H354 C362 0.930 . S
H355 C363 0.930 . S
H356 C366 0.930 . S
H357 C367 0.930 . S
C358 H352 0.930 . S
C358 C359 1.355 . S
C358 C360 1.415 . S
C359 C358 1.355 . S
C359 C361 1.419 . S
C360 C358 1.415 . S
C360 C365 1.425 . S
C360 C367 1.409 . S
C361 H353 0.930 . S
C361 C359 1.419 . S
C361 C362 1.362 . S
C362 H354 0.930 . S
C362 C361 1.362 . S
C362 C365 1.409 . S
C363 H355 0.930 . S
C363 C364 1.355 . S
C363 C365 1.415 . S
C364 C363 1.355 . S
C364 C366 1.419 . S
C365 C360 1.425 . S
C365 C362 1.409 . S
C365 C363 1.415 . S
C366 H356 0.930 . S
C366 C364 1.419 . S
C366 C367 1.362 . S
C367 H357 0.930 . S
C367 C360 1.409 . S
C367 C366 1.362 . S
H368 C374 0.930 . S
H369 C377 0.930 . S
H370 C378 0.930 . S
H371 C379 0.930 . S
H372 C382 0.930 . S
H373 C383 0.930 . S
C374 H368 0.930 . S
C374 C375 1.355 . S
C374 C376 1.415 . S
C375 C374 1.355 . S
C375 C377 1.419 . S
C376 C374 1.415 . S
C376 C381 1.425 . S
C376 C383 1.409 . S
C377 H369 0.930 . S
C377 C375 1.419 . S
C377 C378 1.362 . S
C378 H370 0.930 . S
C378 C377 1.362 . S
C378 C381 1.409 . S
C379 H371 0.930 . S
C379 C380 1.355 . S
C379 C381 1.415 . S
C380 C379 1.355 . S
C380 C382 1.419 . S
C381 C376 1.425 . S
C381 C378 1.409 . S
C381 C379 1.415 . S
C382 H372 0.930 . S
C382 C380 1.419 . S
C382 C383 1.362 . S
C383 H373 0.930 . S
C383 C376 1.409 . S
C383 C382 1.362 . S
H384 C390 0.930 . S
H385 C393 0.930 . S
H386 C394 0.930 . S
H387 C395 0.930 . S
H388 C398 0.930 . S
H389 C399 0.930 . S
C390 H384 0.930 . S
C390 C391 1.355 . S
C390 C392 1.415 . S
C391 C390 1.355 . S
C391 C393 1.419 . S
C392 C390 1.415 . S
C392 C397 1.425 . S
C392 C399 1.409 . S
C393 H385 0.930 . S
C393 C391 1.419 . S
C393 C394 1.362 . S
C394 H386 0.930 . S
C394 C393 1.362 . S
C394 C397 1.409 . S
C395 H387 0.930 . S
C395 C396 1.355 . S
C395 C397 1.415 . S
C396 C395 1.355 . S
C396 C398 1.419 . S
C397 C392 1.425 . S
C397 C394 1.409 . S
C397 C395 1.415 . S
C398 H388 0.930 . S
C398 C396 1.419 . S
C398 C399 1.362 . S
C399 H389 0.930 . S
C399 C392 1.409 . S
C399 C398 1.362 . S
H400 C406 0.930 . S
H401 C409 0.930 . S
H402 C410 0.930 . S
H403 C411 0.930 . S
H404 C414 0.930 . S
H405 C415 0.930 . S
C406 H400 0.930 . S
C406 C407 1.355 . S
C406 C408 1.415 . S
C407 C406 1.355 . S
C407 C409 1.419 . S
C408 C406 1.415 . S
C408 C413 1.425 . S
C408 C415 1.409 . S
C409 H401 0.930 . S
C409 C407 1.419 . S
C409 C410 1.362 . S
C410 H402 0.930 . S
C410 C409 1.362 . S
C410 C413 1.409 . S
C411 H403 0.930 . S
C411 C412 1.355 . S
C411 C413 1.415 . S
C412 C411 1.355 . S
C412 C414 1.419 . S
C413 C408 1.425 . S
C413 C410 1.409 . S
C413 C411 1.415 . S
C414 H404 0.930 . S
C414 C412 1.419 . S
C414 C415 1.362 . S
C415 H405 0.930 . S
C415 C408 1.409 . S
C415 C414 1.362 . S
H416 C422 0.930 . S
H417 C425 0.930 . S
H418 C426 0.930 . S
H419 C427 0.930 . S
H420 C430 0.930 . S
H421 C431 0.930 . S
C422 H416 0.930 . S
C422 C423 1.355 . S
C422 C424 1.415 . S
C423 C422 1.355 . S
C423 C425 1.419 . S
C424 C422 1.415 . S
C424 C429 1.425 . S
C424 C431 1.409 . S
C425 H417 0.930 . S
C425 C423 1.419 . S
C425 C426 1.362 . S
C426 H418 0.930 . S
C426 C425 1.362 . S
C426 C429 1.409 . S
C427 H419 0.930 . S
C427 C428 1.355 . S
C427 C429 1.415 . S
C428 C427 1.355 . S
C428 C430 1.419 . S
C429 C424 1.425 . S
C429 C426 1.409 . S
C429 C427 1.415 . S
C430 H420 0.930 . S
C430 C428 1.419 . S
C430 C431 1.362 . S
C431 H421 0.930 . S
C431 C424 1.409 . S
C431 C430 1.362 . S
H432 C438 0.930 . S
H433 C441 0.930 . S
H434 C442 0.930 . S
H435 C443 0.930 . S
H436 C446 0.930 . S
H437 C447 0.930 . S
C438 H432 0.930 . S
C438 C439 1.355 . S
C438 C440 1.415 . S
C439 C438 1.355 . S
C439 C441 1.419 . S
C440 C438 1.415 . S
C440 C445 1.425 . S
C440 C447 1.409 . S
C441 H433 0.930 . S
C441 C439 1.419 . S
C441 C442 1.362 . S
C442 H434 0.930 . S
C442 C441 1.362 . S
C442 C445 1.409 . S
C443 H435 0.930 . S
C443 C444 1.355 . S
C443 C445 1.415 . S
C444 C443 1.355 . S
C444 C446 1.419 . S
C445 C440 1.425 . S
C445 C442 1.409 . S
C445 C443 1.415 . S
C446 H436 0.930 . S
C446 C444 1.419 . S
C446 C447 1.362 . S
C447 H437 0.930 . S
C447 C440 1.409 . S
C447 C446 1.362 . S
H448 C454 0.930 . S
H449 C457 0.930 . S
H450 C458 0.930 . S
H451 C459 0.930 . S
H452 C462 0.930 . S
H453 C463 0.930 . S
C454 H448 0.930 . S
C454 C455 1.355 . S
C454 C456 1.415 . S
C455 C454 1.355 . S
C455 C457 1.419 . S
C456 C454 1.415 . S
C456 C461 1.425 . S
C456 C463 1.409 . S
C457 H449 0.930 . S
C457 C455 1.419 . S
C457 C458 1.362 . S
C458 H450 0.930 . S
C458 C457 1.362 . S
C458 C461 1.409 . S
C459 H451 0.930 . S
C459 C460 1.355 . S
C459 C461 1.415 . S
C460 C459 1.355 . S
C460 C462 1.419 . S
C461 C456 1.425 . S
C461 C458 1.409 . S
C461 C459 1.415 . S
C462 H452 0.930 . S
C462 C460 1.419 . S
C462 C463 1.362 . S
C463 H453 0.930 . S
C463 C456 1.409 . S
C463 C462 1.362 . S
H464 C470 0.930 . S
H465 C473 0.930 . S
H466 C474 0.930 . S
H467 C475 0.930 . S
H468 C478 0.930 . S
H469 C479 0.930 . S
C470 H464 0.930 . S
C470 C471 1.355 . S
C470 C472 1.415 . S
C471 C470 1.355 . S
C471 C473 1.419 . S
C472 C470 1.415 . S
C472 C477 1.425 . S
C472 C479 1.409 . S
C473 H465 0.930 . S
C473 C471 1.419 . S
C473 C474 1.362 . S
C474 H466 0.930 . S
C474 C473 1.362 . S
C474 C477 1.409 . S
C475 H467 0.930 . S
C475 C476 1.355 . S
C475 C477 1.415 . S
C476 C475 1.355 . S
C476 C478 1.419 . S
C477 C472 1.425 . S
C477 C474 1.409 . S
C477 C475 1.415 . S
C478 H468 0.930 . S
C478 C476 1.419 . S
C478 C479 1.362 . S
C479 H469 0.930 . S
C479 C472 1.409 . S
C479 C478 1.362 . S
H480 C486 0.930 . S
H481 C489 0.930 . S
H482 C490 0.930 . S
H483 C491 0.930 . S
H484 C494 0.930 . S
H485 C495 0.930 . S
C486 H480 0.930 . S
C486 C487 1.355 . S
C486 C488 1.415 . S
C487 C486 1.355 . S
C487 C489 1.419 . S
C488 C486 1.415 . S
C488 C493 1.425 . S
C488 C495 1.409 . S
C489 H481 0.930 . S
C489 C487 1.419 . S
C489 C490 1.362 . S
C490 H482 0.930 . S
C490 C489 1.362 . S
C490 C493 1.409 . S
C491 H483 0.930 . S
C491 C492 1.355 . S
C491 C493 1.415 . S
C492 C491 1.355 . S
C492 C494 1.419 . S
C493 C488 1.425 . S
C493 C490 1.409 . S
C493 C491 1.415 . S
C494 H484 0.930 . S
C494 C492 1.419 . S
C494 C495 1.362 . S
C495 H485 0.930 . S
C495 C488 1.409 . S
C495 C494 1.362 . S
H496 C502 0.930 . S
H497 C505 0.930 . S
H498 C506 0.930 . S
H499 C507 0.930 . S
H500 C510 0.930 . S
H501 C511 0.930 . S
C502 H496 0.930 . S
C502 C503 1.355 . S
C502 C504 1.415 . S
C503 C502 1.355 . S
C503 C505 1.419 . S
C504 C502 1.415 . S
C504 C509 1.425 . S
C504 C511 1.409 . S
C505 H497 0.930 . S
C505 C503 1.419 . S
C505 C506 1.362 . S
C506 H498 0.930 . S
C506 C505 1.362 . S
C506 C509 1.409 . S
C507 H499 0.930 . S
C507 C508 1.355 . S
C507 C509 1.415 . S
C508 C507 1.355 . S
C508 C510 1.419 . S
C509 C504 1.425 . S
C509 C506 1.409 . S
C509 C507 1.415 . S
C510 H500 0.930 . S
C510 C508 1.419 . S
C510 C511 1.362 . S
C511 H501 0.930 . S
C511 C504 1.409 . S
C511 C510 1.362 . S
H512 C518 0.930 . S
H513 C521 0.930 . S
H514 C522 0.930 . S
H515 C523 0.930 . S
H516 C526 0.930 . S
H517 C527 0.930 . S
C518 H512 0.930 . S
C518 C519 1.355 . S
C518 C520 1.415 . S
C519 C518 1.355 . S
C519 C521 1.419 . S
C520 C518 1.415 . S
C520 C525 1.425 . S
C520 C527 1.409 . S
C521 H513 0.930 . S
C521 C519 1.419 . S
C521 C522 1.362 . S
C522 H514 0.930 . S
C522 C521 1.362 . S
C522 C525 1.409 . S
C523 H515 0.930 . S
C523 C524 1.355 . S
C523 C525 1.415 . S
C524 C523 1.355 . S
C524 C526 1.419 . S
C525 C520 1.425 . S
C525 C522 1.409 . S
C525 C523 1.415 . S
C526 H516 0.930 . S
C526 C524 1.419 . S
C526 C527 1.362 . S
C527 H517 0.930 . S
C527 C520 1.409 . S
C527 C526 1.362 . S
H528 C534 0.930 . S
H529 C537 0.930 . S
H530 C538 0.930 . S
H531 C539 0.930 . S
H532 C542 0.930 . S
H533 C543 0.930 . S
C534 H528 0.930 . S
C534 C535 1.355 . S
C534 C536 1.415 . S
C535 C534 1.355 . S
C535 C537 1.419 . S
C536 C534 1.415 . S
C536 C541 1.425 . S
C536 C543 1.409 . S
C537 H529 0.930 . S
C537 C535 1.419 . S
C537 C538 1.362 . S
C538 H530 0.930 . S
C538 C537 1.362 . S
C538 C541 1.409 . S
C539 H531 0.930 . S
C539 C540 1.355 . S
C539 C541 1.415 . S
C540 C539 1.355 . S
C540 C542 1.419 . S
C541 C536 1.425 . S
C541 C538 1.409 . S
C541 C539 1.415 . S
C542 H532 0.930 . S
C542 C540 1.419 . S
C542 C543 1.362 . S
C543 H533 0.930 . S
C543 C536 1.409 . S
C543 C542 1.362 . S
H544 C550 0.930 . S
H545 C553 0.930 . S
H546 C554 0.930 . S
H547 C555 0.930 . S
H548 C558 0.930 . S
H549 C559 0.930 . S
C550 H544 0.930 . S
C550 C551 1.355 . S
C550 C552 1.415 . S
C551 C550 1.355 . S
C551 C553 1.419 . S
C552 C550 1.415 . S
C552 C557 1.425 . S
C552 C559 1.409 . S
C553 H545 0.930 . S
C553 C551 1.419 . S
C553 C554 1.362 . S
C554 H546 0.930 . S
C554 C553 1.362 . S
C554 C557 1.409 . S
C555 H547 0.930 . S
C555 C556 1.355 . S
C555 C557 1.415 . S
C556 C555 1.355 . S
C556 C558 1.419 . S
C557 C552 1.425 . S
C557 C554 1.409 . S
C557 C555 1.415 . S
C558 H548 0.930 . S
C558 C556 1.419 . S
C558 C559 1.362 . S
C559 H549 0.930 . S
C559 C552 1.409 . S
C559 C558 1.362 . S
H560 C566 0.930 . S
H561 C569 0.930 . S
H562 C570 0.930 . S
H563 C571 0.930 . S
H564 C574 0.930 . S
H565 C575 0.930 . S
C566 H560 0.930 . S
C566 C567 1.355 . S
C566 C568 1.415 . S
C567 C566 1.355 . S
C567 C569 1.419 . S
C568 C566 1.415 . S
C568 C573 1.425 . S
C568 C575 1.409 . S
C569 H561 0.930 . S
C569 C567 1.419 . S
C569 C570 1.362 . S
C570 H562 0.930 . S
C570 C569 1.362 . S
C570 C573 1.409 . S
C571 H563 0.930 . S
C571 C572 1.355 . S
C571 C573 1.415 . S
C572 C571 1.355 . S
C572 C574 1.419 . S
C573 C568 1.425 . S
C573 C570 1.409 . S
C573 C571 1.415 . S
C574 H564 0.930 . S
C574 C572 1.419 . S
C574 C575 1.362 . S
C575 H565 0.930 . S
C575 C568 1.409 . S
C575 C574 1.362 . S
H576 C582 0.930 . S
H577 C585 0.930 . S
H578 C586 0.930 . S
H579 C587 0.930 . S
H580 C590 0.930 . S
H581 C591 0.930 . S
C582 H576 0.930 . S
C582 C583 1.355 . S
C582 C584 1.415 . S
C583 C582 1.355 . S
C583 C585 1.419 . S
C584 C582 1.415 . S
C584 C589 1.425 . S
C584 C591 1.409 . S
C585 H577 0.930 . S
C585 C583 1.419 . S
C585 C586 1.362 . S
C586 H578 0.930 . S
C586 C585 1.362 . S
C586 C589 1.409 . S
C587 H579 0.930 . S
C587 C588 1.355 . S
C587 C589 1.415 . S
C588 C587 1.355 . S
C588 C590 1.419 . S
C589 C584 1.425 . S
C589 C586 1.409 . S
C589 C587 1.415 . S
C590 H580 0.930 . S
C590 C588 1.419 . S
C590 C591 1.362 . S
C591 H581 0.930 . S
C591 C584 1.409 . S
C591 C590 1.362 . S
H592 C598 0.930 . S
H593 C601 0.930 . S
H594 C602 0.930 . S
H595 C603 0.930 . S
H596 C606 0.930 . S
H597 C607 0.930 . S
C598 H592 0.930 . S
C598 C599 1.355 . S
C598 C600 1.415 . S
C599 C598 1.355 . S
C599 C601 1.419 . S
C600 C598 1.415 . S
C600 C605 1.425 . S
C600 C607 1.409 . S
C601 H593 0.930 . S
C601 C599 1.419 . S
C601 C602 1.362 . S
C602 H594 0.930 . S
C602 C601 1.362 . S
C602 C605 1.409 . S
C603 H595 0.930 . S
C603 C604 1.355 . S
C603 C605 1.415 . S
C604 C603 1.355 . S
C604 C606 1.419 . S
C605 C600 1.425 . S
C605 C602 1.409 . S
C605 C603 1.415 . S
C606 H596 0.930 . S
C606 C604 1.419 . S
C606 C607 1.362 . S
C607 H597 0.930 . S
C607 C600 1.409 . S
C607 C606 1.362 . S
H608 C614 0.930 . S
H609 C617 0.930 . S
H610 C618 0.930 . S
H611 C619 0.930 . S
H612 C622 0.930 . S
H613 C623 0.930 . S
C614 H608 0.930 . S
C614 C615 1.355 . S
C614 C616 1.415 . S
C615 C614 1.355 . S
C615 C617 1.419 . S
C616 C614 1.415 . S
C616 C621 1.425 . S
C616 C623 1.409 . S
C617 H609 0.930 . S
C617 C615 1.419 . S
C617 C618 1.362 . S
C618 H610 0.930 . S
C618 C617 1.362 . S
C618 C621 1.409 . S
C619 H611 0.930 . S
C619 C620 1.355 . S
C619 C621 1.415 . S
C620 C619 1.355 . S
C620 C622 1.419 . S
C621 C616 1.425 . S
C621 C618 1.409 . S
C621 C619 1.415 . S
C622 H612 0.930 . S
C622 C620 1.419 . S
C622 C623 1.362 . S
C623 H613 0.930 . S
C623 C616 1.409 . S
C623 C622 1.362 . S
H624 C630 0.930 . S
H625 C633 0.930 . S
H626 C634 0.930 . S
H627 C635 0.930 . S
H628 C638 0.930 . S
H629 C639 0.930 . S
C630 H624 0.930 . S
C630 C631 1.355 . S
C630 C632 1.415 . S
C631 C630 1.355 . S
C631 C633 1.419 . S
C632 C630 1.415 . S
C632 C637 1.425 . S
C632 C639 1.409 . S
C633 H625 0.930 . S
C633 C631 1.419 . S
C633 C634 1.362 . S
C634 H626 0.930 . S
C634 C633 1.362 . S
C634 C637 1.409 . S
C635 H627 0.930 . S
C635 C636 1.355 . S
C635 C637 1.415 . S
C636 C635 1.355 . S
C636 C638 1.419 . S
C637 C632 1.425 . S
C637 C634 1.409 . S
C637 C635 1.415 . S
C638 H628 0.930 . S
C638 C636 1.419 . S
C638 C639 1.362 . S
C639 H629 0.930 . S
C639 C632 1.409 . S
C639 C638 1.362 . S
H640 C646 0.930 . S
H641 C649 0.930 . S
H642 C650 0.930 . S
H643 C651 0.930 . S
H644 C654 0.930 . S
H645 C655 0.930 . S
C646 H640 0.930 . S
C646 C647 1.355 . S
C646 C648 1.415 . S
C647 C646 1.355 . S
C647 C649 1.419 . S
C648 C646 1.415 . S
C648 C653 1.425 . S
C648 C655 1.409 . S
C649 H641 0.930 . S
C649 C647 1.419 . S
C649 C650 1.362 . S
C650 H642 0.930 . S
C650 C649 1.362 . S
C650 C653 1.409 . S
C651 H643 0.930 . S
C651 C652 1.355 . S
C651 C653 1.415 . S
C652 C651 1.355 . S
C652 C654 1.419 . S
C653 C648 1.425 . S
C653 C650 1.409 . S
C653 C651 1.415 . S
C654 H644 0.930 . S
C654 C652 1.419 . S
C654 C655 1.362 . S
C655 H645 0.930 . S
C655 C648 1.409 . S
C655 C654 1.362 . S
H656 C662 0.930 . S
H657 C665 0.930 . S
H658 C666 0.930 . S
H659 C667 0.930 . S
H660 C670 0.930 . S
H661 C671 0.930 . S
C662 H656 0.930 . S
C662 C663 1.355 . S
C662 C664 1.415 . S
C663 C662 1.355 . S
C663 C665 1.419 . S
C664 C662 1.415 . S
C664 C669 1.425 . S
C664 C671 1.409 . S
C665 H657 0.930 . S
C665 C663 1.419 . S
C665 C666 1.362 . S
C666 H658 0.930 . S
C666 C665 1.362 . S
C666 C669 1.409 . S
C667 H659 0.930 . S
C667 C668 1.355 . S
C667 C669 1.415 . S
C668 C667 1.355 . S
C668 C670 1.419 . S
C669 C664 1.425 . S
C669 C666 1.409 . S
C669 C667 1.415 . S
C670 H660 0.930 . S
C670 C668 1.419 . S
C670 C671 1.362 . S
C671 H661 0.930 . S
C671 C664 1.409 . S
C671 C670 1.362 . S
H672 C678 0.930 . S
H673 C681 0.930 . S
H674 C682 0.930 . S
H675 C683 0.930 . S
H676 C686 0.930 . S
H677 C687 0.930 . S
C678 H672 0.930 . S
C678 C679 1.355 . S
C678 C680 1.415 . S
C679 C678 1.355 . S
C679 C681 1.419 . S
C680 C678 1.415 . S
C680 C685 1.425 . S
C680 C687 1.409 . S
C681 H673 0.930 . S
C681 C679 1.419 . S
C681 C682 1.362 . S
C682 H674 0.930 . S
C682 C681 1.362 . S
C682 C685 1.409 . S
C683 H675 0.930 . S
C683 C684 1.355 . S
C683 C685 1.415 . S
C684 C683 1.355 . S
C684 C686 1.419 . S
C685 C680 1.425 . S
C685 C682 1.409 . S
C685 C683 1.415 . S
C686 H676 0.930 . S
C686 C684 1.419 . S
C686 C687 1.362 . S
C687 H677 0.930 . S
C687 C680 1.409 . S
C687 C686 1.362 . S
H688 C694 0.930 . S
H689 C697 0.930 . S
H690 C698 0.930 . S
H691 C699 0.930 . S
H692 C702 0.930 . S
H693 C703 0.930 . S
C694 H688 0.930 . S
C694 C695 1.355 . S
C694 C696 1.415 . S
C695 C694 1.355 . S
C695 C697 1.419 . S
C696 C694 1.415 . S
C696 C701 1.425 . S
C696 C703 1.409 . S
C697 H689 0.930 . S
C697 C695 1.419 . S
C697 C698 1.362 . S
C698 H690 0.930 . S
C698 C697 1.362 . S
C698 C701 1.409 . S
C699 H691 0.930 . S
C699 C700 1.355 . S
C699 C701 1.415 . S
C700 C699 1.355 . S
C700 C702 1.419 . S
C701 C696 1.425 . S
C701 C698 1.409 . S
C701 C699 1.415 . S
C702 H692 0.930 . S
C702 C700 1.419 . S
C702 C703 1.362 . S
C703 H693 0.930 . S
C703 C696 1.409 . S
C703 C702 1.362 . S
H704 C710 0.930 . S
H705 C713 0.930 . S
H706 C714 0.930 . S
H707 C715 0.930 . S
H708 C718 0.930 . S
H709 C719 0.930 . S
C710 H704 0.930 . S
C710 C711 1.355 . S
C710 C712 1.415 . S
C711 C710 1.355 . S
C711 C713 1.419 . S
C712 C710 1.415 . S
C712 C717 1.425 . S
C712 C719 1.409 . S
C713 H705 0.930 . S
C713 C711 1.419 . S
C713 C714 1.362 . S
C714 H706 0.930 . S
C714 C713 1.362 . S
C714 C717 1.409 . S
C715 H707 0.930 . S
C715 C716 1.355 . S
C715 C717 1.415 . S
C716 C715 1.355 . S
C716 C718 1.419 . S
C717 C712 1.425 . S
C717 C714 1.409 . S
C717 C715 1.415 . S
C718 H708 0.930 . S
C718 C716 1.419 . S
C718 C719 1.362 . S
C719 H709 0.930 . S
C719 C712 1.409 . S
C719 C718 1.362 . S
H720 C726 0.930 . S
H721 C729 0.930 . S
H722 C730 0.930 . S
H723 C731 0.930 . S
H724 C734 0.930 . S
H725 C735 0.930 . S
C726 H720 0.930 . S
C726 C727 1.355 . S
C726 C728 1.415 . S
C727 C726 1.355 . S
C727 C729 1.419 . S
C728 C726 1.415 . S
C728 C733 1.425 . S
C728 C735 1.409 . S
C729 H721 0.930 . S
C729 C727 1.419 . S
C729 C730 1.362 . S
C730 H722 0.930 . S
C730 C729 1.362 . S
C730 C733 1.409 . S
C731 H723 0.930 . S
C731 C732 1.355 . S
C731 C733 1.415 . S
C732 C731 1.355 . S
C732 C734 1.419 . S
C733 C728 1.425 . S
C733 C730 1.409 . S
C733 C731 1.415 . S
C734 H724 0.930 . S
C734 C732 1.419 . S
C734 C735 1.362 . S
C735 H725 0.930 . S
C735 C728 1.409 . S
C735 C734 1.362 . S
H736 C742 0.930 . S
H737 C745 0.930 . S
H738 C746 0.930 . S
H739 C747 0.930 . S
H740 C750 0.930 . S
H741 C751 0.930 . S
C742 H736 0.930 . S
C742 C743 1.355 . S
C742 C744 1.415 . S
C743 C742 1.355 . S
C743 C745 1.419 . S
C744 C742 1.415 . S
C744 C749 1.425 . S
C744 C751 1.409 . S
C745 H737 0.930 . S
C745 C743 1.419 . S
C745 C746 1.362 . S
C746 H738 0.930 . S
C746 C745 1.362 . S
C746 C749 1.409 . S
C747 H739 0.930 . S
C747 C748 1.355 . S
C747 C749 1.415 . S
C748 C747 1.355 . S
C748 C750 1.419 . S
C749 C744 1.425 . S
C749 C746 1.409 . S
C749 C747 1.415 . S
C750 H740 0.930 . S
C750 C748 1.419 . S
C750 C751 1.362 . S
C751 H741 0.930 . S
C751 C744 1.409 . S
C751 C750 1.362 . S
H752 C758 0.930 . S
H753 C761 0.930 . S
H754 C762 0.930 . S
H755 C763 0.930 . S
H756 C766 0.930 . S
H757 C767 0.930 . S
C758 H752 0.930 . S
C758 C759 1.355 . S
C758 C760 1.415 . S
C759 C758 1.355 . S
C759 C761 1.419 . S
C760 C758 1.415 . S
C760 C765 1.425 . S
C760 C767 1.409 . S
C761 H753 0.930 . S
C761 C759 1.419 . S
C761 C762 1.362 . S
C762 H754 0.930 . S
C762 C761 1.362 . S
C762 C765 1.409 . S
C763 H755 0.930 . S
C763 C764 1.355 . S
C763 C765 1.415 . S
C764 C763 1.355 . S
C764 C766 1.419 . S
C765 C760 1.425 . S
C765 C762 1.409 . S
C765 C763 1.415 . S
C766 H756 0.930 . S
C766 C764 1.419 . S
C766 C767 1.362 . S
C767 H757 0.930 . S
C767 C760 1.409 . S
C767 C766 1.362 . S
H768 C774 0.930 . S
H769 C777 0.930 . S
H770 C778 0.930 . S
H771 C779 0.930 . S
H772 C782 0.930 . S
H773 C783 0.930 . S
C774 H768 0.930 . S
C774 C775 1.355 . S
C774 C776 1.415 . S
C775 C774 1.355 . S
C775 C777 1.419 . S
C776 C774 1.415 . S
C776 C781 1.425 . S
C776 C783 1.409 . S
C777 H769 0.930 . S
C777 C775 1.419 . S
C777 C778 1.362 . S
C778 H770 0.930 . S
C778 C777 1.362 . S
C778 C781 1.409 . S
C779 H771 0.930 . S
C779 C780 1.355 . S
C779 C781 1.415 . S
C780 C779 1.355 . S
C780 C782 1.419 . S
C781 C776 1.425 . S
C781 C778 1.409 . S
C781 C779 1.415 . S
C782 H772 0.930 . S
C782 C780 1.419 . S
C782 C783 1.362 . S
C783 H773 0.930 . S
C783 C776 1.409 . S
C783 C782 1.362 . S
H784 C790 0.930 . S
H785 C793 0.930 . S
H786 C794 0.930 . S
H787 C795 0.930 . S
H788 C798 0.930 1_655 S
H789 C799 0.930 . S
C790 H784 0.930 . S
C790 C791 1.355 . S
C790 C792 1.415 . S
C791 C790 1.355 . S
C791 C793 1.419 . S
C792 C790 1.415 . S
C792 C797 1.425 . S
C792 C799 1.409 . S
C793 H785 0.930 . S
C793 C791 1.419 . S
C793 C794 1.362 . S
C794 H786 0.930 . S
C794 C793 1.362 . S
C794 C797 1.409 . S
C795 H787 0.930 . S
C795 C796 1.355 . S
C795 C797 1.415 . S
C796 C795 1.355 . S
C796 C798 1.419 . S
C797 C792 1.425 . S
C797 C794 1.409 . S
C797 C795 1.415 . S
C798 H788 0.930 1_455 S
C798 C796 1.419 . S
C798 C799 1.362 . S
C799 H789 0.930 . S
C799 C792 1.409 . S
C799 C798 1.362 . S
H800 C806 0.930 . S
H801 C809 0.930 . S
H802 C810 0.930 . S
H803 C811 0.930 . S
H804 C814 0.930 . S
H805 C815 0.930 . S
C806 H800 0.930 . S
C806 C807 1.355 . S
C806 C808 1.415 . S
C807 C806 1.355 . S
C807 C809 1.419 . S
C808 C806 1.415 . S
C808 C813 1.425 . S
C808 C815 1.409 . S
C809 H801 0.930 . S
C809 C807 1.419 . S
C809 C810 1.362 . S
C810 H802 0.930 . S
C810 C809 1.362 . S
C810 C813 1.409 . S
C811 H803 0.930 . S
C811 C812 1.355 . S
C811 C813 1.415 . S
C812 C811 1.355 . S
C812 C814 1.419 . S
C813 C808 1.425 . S
C813 C810 1.409 . S
C813 C811 1.415 . S
C814 H804 0.930 . S
C814 C812 1.419 . S
C814 C815 1.362 . S
C815 H805 0.930 . S
C815 C808 1.409 . S
C815 C814 1.362 . S
H816 C822 0.930 . S
H817 C825 0.930 . S
H818 C826 0.930 . S
H819 C827 0.930 . S
H820 C830 0.930 . S
H821 C831 0.930 . S
C822 H816 0.930 . S
C822 C823 1.355 . S
C822 C824 1.415 . S
C823 C822 1.355 . S
C823 C825 1.419 . S
C824 C822 1.415 . S
C824 C829 1.425 . S
C824 C831 1.409 . S
C825 H817 0.930 . S
C825 C823 1.419 . S
C825 C826 1.362 . S
C826 H818 0.930 . S
C826 C825 1.362 . S
C826 C829 1.409 . S
C827 H819 0.930 . S
C827 C828 1.355 . S
C827 C829 1.415 . S
C828 C827 1.355 . S
C828 C830 1.419 . S
C829 C824 1.425 . S
C829 C826 1.409 . S
C829 C827 1.415 . S
C830 H820 0.930 . S
C830 C828 1.419 . S
C830 C831 1.362 . S
C831 H821 0.930 . S
C831 C824 1.409 . S
C831 C830 1.362 . S
H832 C838 0.930 . S
H833 C841 0.930 . S
H834 C842 0.930 . S
H835 C843 0.930 . S
H836 C846 0.930 . S
H837 C847 0.930 . S
C838 H832 0.930 . S
C838 C839 1.355 . S
C838 C840 1.415 . S
C839 C838 1.355 . S
C839 C841 1.419 . S
C840 C838 1.415 . S
C840 C845 1.425 . S
C840 C847 1.409 . S
C841 H833 0.930 . S
C841 C839 1.419 . S
C841 C842 1.362 . S
C842 H834 0.930 . S
C842 C841 1.362 . S
C842 C845 1.409 . S
C843 H835 0.930 . S
C843 C844 1.355 . S
C843 C845 1.415 . S
C844 C843 1.355 . S
C844 C846 1.419 . S
C845 C840 1.425 . S
C845 C842 1.409 . S
C845 C843 1.415 . S
C846 H836 0.930 . S
C846 C844 1.419 . S
C846 C847 1.362 . S
C847 H837 0.930 . S
C847 C840 1.409 . S
C847 C846 1.362 . S
H848 C854 0.930 . S
H849 C857 0.930 . S
H850 C858 0.930 . S
H851 C859 0.930 . S
H852 C862 0.930 . S
H853 C863 0.930 . S
C854 H848 0.930 . S
C854 C855 1.355 . S
C854 C856 1.415 . S
C855 C854 1.355 . S
C855 C857 1.419 . S
C856 C854 1.415 . S
C856 C861 1.425 . S
C856 C863 1.409 . S
C857 H849 0.930 . S
C857 C855 1.419 . S
C857 C858 1.362 . S
C858 H850 0.930 . S
C858 C857 1.362 . S
C858 C861 1.409 . S
C859 H851 0.930 . S
C859 C860 1.355 . S
C859 C861 1.415 . S
C860 C859 1.355 . S
C860 C862 1.419 . S
C861 C856 1.425 . S
C861 C858 1.409 . S
C861 C859 1.415 . S
C862 H852 0.930 . S
C862 C860 1.419 . S
C862 C863 1.362 . S
C863 H853 0.930 . S
C863 C856 1.409 . S
C863 C862 1.362 . S
H864 C870 0.930 . S
H865 C873 0.930 . S
H866 C874 0.930 . S
H867 C875 0.930 . S
H868 C878 0.930 . S
H869 C879 0.930 . S
C870 H864 0.930 . S
C870 C871 1.355 . S
C870 C872 1.415 . S
C871 C870 1.355 . S
C871 C873 1.419 . S
C872 C870 1.415 . S
C872 C877 1.425 . S
C872 C879 1.409 . S
C873 H865 0.930 . S
C873 C871 1.419 . S
C873 C874 1.362 . S
C874 H866 0.930 . S
C874 C873 1.362 . S
C874 C877 1.409 . S
C875 H867 0.930 . S
C875 C876 1.355 . S
C875 C877 1.415 . S
C876 C875 1.355 . S
C876 C878 1.419 . S
C877 C872 1.425 . S
C877 C874 1.409 . S
C877 C875 1.415 . S
C878 H868 0.930 . S
C878 C876 1.419 . S
C878 C879 1.362 . S
C879 H869 0.930 . S
C879 C872 1.409 . S
C879 C878 1.362 . S
H880 C886 0.930 . S
H881 C889 0.930 . S
H882 C890 0.930 . S
H883 C891 0.930 . S
H884 C894 0.930 . S
H885 C895 0.930 . S
C886 H880 0.930 . S
C886 C887 1.355 . S
C886 C888 1.415 . S
C887 C886 1.355 . S
C887 C889 1.419 . S
C888 C886 1.415 . S
C888 C893 1.425 . S
C888 C895 1.409 . S
C889 H881 0.930 . S
C889 C887 1.419 . S
C889 C890 1.362 . S
C890 H882 0.930 . S
C890 C889 1.362 . S
C890 C893 1.409 . S
C891 H883 0.930 . S
C891 C892 1.355 . S
C891 C893 1.415 . S
C892 C891 1.355 . S
C892 C894 1.419 . S
C893 C888 1.425 . S
C893 C890 1.409 . S
C893 C891 1.415 . S
C894 H884 0.930 . S
C894 C892 1.419 . S
C894 C895 1.362 . S
C895 H885 0.930 . S
C895 C888 1.409 . S
C895 C894 1.362 . S
H896 C902 0.930 . S
H897 C905 0.930 . S
H898 C906 0.930 . S
H899 C907 0.930 . S
H900 C910 0.930 . S
H901 C911 0.930 . S
C902 H896 0.930 . S
C902 C903 1.355 . S
C902 C904 1.415 . S
C903 C902 1.355 . S
C903 C905 1.419 . S
C904 C902 1.415 . S
C904 C909 1.425 . S
C904 C911 1.409 . S
C905 H897 0.930 . S
C905 C903 1.419 . S
C905 C906 1.362 . S
C906 H898 0.930 . S
C906 C905 1.362 . S
C906 C909 1.409 . S
C907 H899 0.930 . S
C907 C908 1.355 . S
C907 C909 1.415 . S
C908 C907 1.355 . S
C908 C910 1.419 . S
C909 C904 1.425 . S
C909 C906 1.409 . S
C909 C907 1.415 . S
C910 H900 0.930 . S
C910 C908 1.419 . S
C910 C911 1.362 . S
C911 H901 0.930 . S
C911 C904 1.409 . S
C911 C910 1.362 . S
H912 C918 0.930 . S
H913 C921 0.930 . S
H914 C922 0.930 . S
H915 C923 0.930 . S
H916 C926 0.930 . S
H917 C927 0.930 . S
C918 H912 0.930 . S
C918 C919 1.355 . S
C918 C920 1.415 . S
C919 C918 1.355 . S
C919 C921 1.419 . S
C920 C918 1.415 . S
C920 C925 1.425 . S
C920 C927 1.409 . S
C921 H913 0.930 . S
C921 C919 1.419 . S
C921 C922 1.362 . S
C922 H914 0.930 . S
C922 C921 1.362 . S
C922 C925 1.409 . S
C923 H915 0.930 . S
C923 C924 1.355 . S
C923 C925 1.415 . S
C924 C923 1.355 . S
C924 C926 1.419 . S
C925 C920 1.425 . S
C925 C922 1.409 . S
C925 C923 1.415 . S
C926 H916 0.930 . S
C926 C924 1.419 . S
C926 C927 1.362 . S
C927 H917 0.930 . S
C927 C920 1.409 . S
C927 C926 1.362 . S
H928 C934 0.930 . S
H929 C937 0.930 . S
H930 C938 0.930 . S
H931 C939 0.930 . S
H932 C942 0.930 . S
H933 C943 0.930 . S
C934 H928 0.930 . S
C934 C935 1.355 . S
C934 C936 1.415 . S
C935 C934 1.355 . S
C935 C937 1.419 . S
C936 C934 1.415 . S
C936 C941 1.425 . S
C936 C943 1.409 . S
C937 H929 0.930 . S
C937 C935 1.419 . S
C937 C938 1.362 . S
C938 H930 0.930 . S
C938 C937 1.362 . S
C938 C941 1.409 . S
C939 H931 0.930 . S
C939 C940 1.355 . S
C939 C941 1.415 . S
C940 C939 1.355 . S
C940 C942 1.419 . S
C941 C936 1.425 . S
C941 C938 1.409 . S
C941 C939 1.415 . S
C942 H932 0.930 . S
C942 C940 1.419 . S
C942 C943 1.362 . S
C943 H933 0.930 . S
C943 C936 1.409 . S
C943 C942 1.362 . S
H944 C950 0.930 . S
H945 C953 0.930 . S
H946 C954 0.930 . S
H947 C955 0.930 . S
H948 C958 0.930 . S
H949 C959 0.930 . S
C950 H944 0.930 . S
C950 C951 1.355 . S
C950 C952 1.415 . S
C951 C950 1.355 . S
C951 C953 1.419 . S
C952 C950 1.415 . S
C952 C957 1.425 . S
C952 C959 1.409 . S
C953 H945 0.930 . S
C953 C951 1.419 . S
C953 C954 1.362 . S
C954 H946 0.930 . S
C954 C953 1.362 . S
C954 C957 1.409 . S
C955 H947 0.930 . S
C955 C956 1.355 . S
C955 C957 1.415 . S
C956 C955 1.355 . S
C956 C958 1.419 . S
C957 C952 1.425 . S
C957 C954 1.409 . S
C957 C955 1.415 . S
C958 H948 0.930 . S
C958 C956 1.419 . S
C958 C959 1.362 . S
C959 H949 0.930 . S
C959 C952 1.409 . S
C959 C958 1.362 . S
H960 C966 0.930 . S
H961 C969 0.930 . S
H962 C970 0.930 . S
H963 C971 0.930 . S
H964 C974 0.930 . S
H965 C975 0.930 . S
C966 H960 0.930 . S
C966 C967 1.355 . S
C966 C968 1.415 . S
C967 C966 1.355 . S
C967 C969 1.419 . S
C968 C966 1.415 . S
C968 C973 1.425 . S
C968 C975 1.409 . S
C969 H961 0.930 . S
C969 C967 1.419 . S
C969 C970 1.362 . S
C970 H962 0.930 . S
C970 C969 1.362 . S
C970 C973 1.409 . S
C971 H963 0.930 . S
C971 C972 1.355 . S
C971 C973 1.415 . S
C972 C971 1.355 . S
C972 C974 1.419 . S
C973 C968 1.425 . S
C973 C970 1.409 . S
C973 C971 1.415 . S
C974 H964 0.930 . S
C974 C972 1.419 . S
C974 C975 1.362 . S
C975 H965 0.930 . S
C975 C968 1.409 . S
C975 C974 1.362 . S
H976 C982 0.930 . S
H977 C985 0.930 . S
H978 C986 0.930 . S
H979 C987 0.930 . S
H980 C990 0.930 . S
H981 C991 0.930 . S
C982 H976 0.930 . S
C982 C983 1.355 . S
C982 C984 1.415 . S
C983 C982 1.355 . S
C983 C985 1.419 . S
C984 C982 1.415 . S
C984 C989 1.425 . S
C984 C991 1.409 . S
C985 H977 0.930 . S
C985 C983 1.419 . S
C985 C986 1.362 . S
C986 H978 0.930 . S
C986 C985 1.362 . S
C986 C989 1.409 . S
C987 H979 0.930 . S
C987 C988 1.355 . S
C987 C989 1.415 . S
C988 C987 1.355 . S
C988 C990 1.419 . S
C989 C984 1.425 . S
C989 C986 1.409 . S
C989 C987 1.415 . S
C990 H980 0.930 . S
C990 C988 1.419 . S
C990 C991 1.362 . S
C991 H981 0.930 . S
C991 C984 1.409 . S
C991 C990 1.362 . S
H992 C998 0.930 . S
H993 C1001 0.930 . S
H994 C1002 0.930 . S
H995 C1003 0.930 . S
H996 C1006 0.930 . S
H997 C1007 0.930 . S
C998 H992 0.930 . S
C998 C999 1.355 . S
C998 C1000 1.415 . S
C999 C998 1.355 . S
C999 C1001 1.419 . S
C1000 C998 1.415 . S
C1000 C1005 1.425 . S
C1000 C1007 1.409 . S
C1001 H993 0.930 . S
C1001 C999 1.419 . S
C1001 C1002 1.362 . S
C1002 H994 0.930 . S
C1002 C1001 1.362 . S
C1002 C1005 1.409 . S
C1003 H995 0.930 . S
C1003 C1004 1.355 . S
C1003 C1005 1.415 . S
C1004 C1003 1.355 . S
C1004 C1006 1.419 . S
C1005 C1000 1.425 . S
C1005 C1002 1.409 . S
C1005 C1003 1.415 . S
C1006 H996 0.930 . S
C1006 C1004 1.419 . S
C1006 C1007 1.362 . S
C1007 H997 0.930 . S
C1007 C1000 1.409 . S
C1007 C1006 1.362 . S
H1008 C1014 0.930 . S
H1009 C1017 0.930 . S
H1010 C1018 0.930 . S
H1011 C1019 0.930 . S
H1012 C1022 0.930 . S
H1013 C1023 0.930 . S
C1014 H1008 0.930 . S
C1014 C1015 1.355 . S
C1014 C1016 1.415 . S
C1015 C1014 1.355 . S
C1015 C1017 1.419 . S
C1016 C1014 1.415 . S
C1016 C1021 1.425 . S
C1016 C1023 1.409 . S
C1017 H1009 0.930 . S
C1017 C1015 1.419 . S
C1017 C1018 1.362 . S
C1018 H1010 0.930 . S
C1018 C1017 1.362 . S
C1018 C1021 1.409 . S
C1019 H1011 0.930 . S
C1019 C1020 1.355 . S
C1019 C1021 1.415 . S
C1020 C1019 1.355 . S
C1020 C1022 1.419 . S
C1021 C1016 1.425 . S
C1021 C1018 1.409 . S
C1021 C1019 1.415 . S
C1022 H1012 0.930 . S
C1022 C1020 1.419 . S
C1022 C1023 1.362 . S
C1023 H1013 0.930 . S
C1023 C1016 1.409 . S
C1023 C1022 1.362 . S
H1024 C1030 0.930 . S
H1025 C1033 0.930 . S
H1026 C1034 0.930 . S
H1027 C1035 0.930 . S
H1028 C1038 0.930 . S
H1029 C1039 0.930 . S
C1030 H1024 0.930 . S
C1030 C1031 1.355 . S
C1030 C1032 1.415 . S
C1031 C1030 1.355 . S
C1031 C1033 1.419 . S
C1032 C1030 1.415 . S
C1032 C1037 1.425 . S
C1032 C1039 1.409 . S
C1033 H1025 0.930 . S
C1033 C1031 1.419 . S
C1033 C1034 1.362 . S
C1034 H1026 0.930 . S
C1034 C1033 1.362 . S
C1034 C1037 1.409 . S
C1035 H1027 0.930 . S
C1035 C1036 1.355 . S
C1035 C1037 1.415 . S
C1036 C1035 1.355 . S
C1036 C1038 1.419 . S
C1037 C1032 1.425 . S
C1037 C1034 1.409 . S
C1037 C1035 1.415 . S
C1038 H1028 0.930 . S
C1038 C1036 1.419 . S
C1038 C1039 1.362 . S
C1039 H1029 0.930 . S
C1039 C1032 1.409 . S
C1039 C1038 1.362 . S
H1040 C1046 0.930 . S
H1041 C1049 0.930 . S
H1042 C1050 0.930 . S
H1043 C1051 0.930 . S
H1044 C1054 0.930 . S
H1045 C1055 0.930 . S
C1046 H1040 0.930 . S
C1046 C1047 1.355 . S
C1046 C1048 1.415 . S
C1047 C1046 1.355 . S
C1047 C1049 1.419 . S
C1048 C1046 1.415 . S
C1048 C1053 1.425 . S
C1048 C1055 1.409 . S
C1049 H1041 0.930 . S
C1049 C1047 1.419 . S
C1049 C1050 1.362 . S
C1050 H1042 0.930 . S
C1050 C1049 1.362 . S
C1050 C1053 1.409 . S
C1051 H1043 0.930 . S
C1051 C1052 1.355 . S
C1051 C1053 1.415 . S
C1052 C1051 1.355 . S
C1052 C1054 1.419 . S
C1053 C1048 1.425 . S
C1053 C1050 1.409 . S
C1053 C1051 1.415 . S
C1054 H1044 0.930 . S
C1054 C1052 1.419 . S
C1054 C1055 1.362 . S
C1055 H1045 0.930 . S
C1055 C1048 1.409 . S
C1055 C1054 1.362 . S
H1056 C1062 0.930 . S
H1057 C1065 0.930 . S
H1058 C1066 0.930 . S
H1059 C1067 0.930 . S
H1060 C1070 0.930 . S
H1061 C1071 0.930 . S
C1062 H1056 0.930 . S
C1062 C1063 1.355 . S
C1062 C1064 1.415 . S
C1063 C1062 1.355 . S
C1063 C1065 1.419 . S
C1064 C1062 1.415 . S
C1064 C1069 1.425 . S
C1064 C1071 1.409 . S
C1065 H1057 0.930 . S
C1065 C1063 1.419 . S
C1065 C1066 1.362 . S
C1066 H1058 0.930 . S
C1066 C1065 1.362 . S
C1066 C1069 1.409 . S
C1067 H1059 0.930 . S
C1067 C1068 1.355 . S
C1067 C1069 1.415 . S
C1068 C1067 1.355 . S
C1068 C1070 1.419 . S
C1069 C1064 1.425 . S
C1069 C1066 1.409 . S
C1069 C1067 1.415 . S
C1070 H1060 0.930 . S
C1070 C1068 1.419 . S
C1070 C1071 1.362 . S
C1071 H1061 0.930 . S
C1071 C1064 1.409 . S
C1071 C1070 1.362 . S
H1072 C1078 0.930 . S
H1073 C1081 0.930 . S
H1074 C1082 0.930 . S
H1075 C1083 0.930 . S
H1076 C1086 0.930 . S
H1077 C1087 0.930 . S
C1078 H1072 0.930 . S
C1078 C1079 1.355 . S
C1078 C1080 1.415 . S
C1079 C1078 1.355 . S
C1079 C1081 1.419 . S
C1080 C1078 1.415 . S
C1080 C1085 1.425 . S
C1080 C1087 1.409 . S
C1081 H1073 0.930 . S
C1081 C1079 1.419 . S
C1081 C1082 1.362 . S
C1082 H1074 0.930 . S
C1082 C1081 1.362 . S
C1082 C1085 1.409 . S
C1083 H1075 0.930 . S
C1083 C1084 1.355 . S
C1083 C1085 1.415 . S
C1084 C1083 1.355 . S
C1084 C1086 1.419 . S
C1085 C1080 1.425 . S
C1085 C1082 1.409 . S
C1085 C1083 1.415 . S
C1086 H1076 0.930 . S
C1086 C1084 1.419 . S
C1086 C1087 1.362 . S
C1087 H1077 0.930 . S
C1087 C1080 1.409 . S
C1087 C1086 1.362 . S
C327 C62 1.764 . S
C332 C18 1.832 . S
C343 C12 1.351 . S
C348 C22 1.372 . S
C359 C58 1.233 . S
C364 C38 1.235 . S
C375 C72 1.296 . S
C380 C52 1.271 . S
C391 C84 1.517 . S
C396 C104 1.510 . S
C407 C119 1.212 . S
C412 C139 1.177 . S
C423 C129 1.447 . S
C428 C144 1.337 . S
C439 C89 1.572 . S
C444 C159 1.514 . S
C455 C189 1.432 . S
C460 C2 1.275 . S
C471 C204 0.715 . S
C476 C32 0.825 . S
C487 C42 1.242 . S
C492 C269 1.168 . S
C503 C179 1.087 . S
C508 C78 1.141 . S
C519 C238 1.283 . S
C524 C99 1.271 . S
C535 C282 1.389 . S
C540 C109 1.501 . S
C551 C124 0.771 . S
C556 C252 0.782 . S
C567 C309 1.183 . S
C572 C149 1.112 . S
C583 C169 1.525 . S
C588 C279 1.573 . S
C599 C184 1.494 . S
C604 C164 1.576 . S
C615 C219 1.145 . S
C620 C199 1.217 . S
C631 C298 1.816 . S
C636 C222 1.769 . S
C647 C258 1.181 . S
C652 C319 1.117 . S
C663 C224 1.767 . S
C668 C19 1.834 . S
C679 C244 1.432 . S
C684 C9 1.420 . S
C695 C259 1.167 . S
C700 C59 1.158 . S
C711 C49 1.266 . S
C716 C229 1.302 . S
C727 C182 1.543 . S
C732 C82 1.519 . S
C743 C198 1.160 . S
C748 C138 1.215 . S
C759 C262 1.325 . S
C764 C132 1.472 . S
C775 C92 1.525 . S
C780 C278 1.570 . S
C791 C112 1.408 . S
C796 C4 1.384 . S
C807 C202 0.728 . S
C812 C249 0.696 . S
C823 C44 1.220 . S
C828 C152 1.277 . S
C839 C178 1.081 . S
C844 C239 1.123 . S
C855 C79 1.249 . S
C860 C98 1.291 . S
C871 C192 1.464 . S
C876 C284 1.311 . S
C887 C122 0.815 . S
C892 C29 0.705 . S
C903 C312 1.250 . S
C908 C272 1.166 . S
C919 C172 1.524 . S
C924 C158 1.536 . S
C935 C162 1.606 . S
C940 C102 1.499 . S
C951 C218 1.166 . S
C956 C118 1.180 . S
C967 C64 1.757 . S
C972 C299 1.835 . S
C983 C39 1.164 . S
C988 C318 1.119 . S
C999 C242 1.294 . S
C1004 C292 1.267 . S
C1015 C232 1.404 . S
C1020 C304 1.236 . S
C1031 C209 1.431 . S
C1036 C264 1.406 . S
C1047 C289 1.223 . S
C1052 C24 1.290 . S
C1063 C69 1.417 . S
C1068 C302 1.241 . S
C1079 C142 1.288 . S
C1084 C212 1.466 . S
