# Generated by pormake.
# Topology unc, (4)-cn, num edge types: 1
# Building blocks:
#     Node 0, Type 0, BuildingBlock: UXUYUI_clean_sbu_0, # of connection points: 4
#     Node 1, Type 0, BuildingBlock: UXUYUI_clean_sbu_0, # of connection points: 4
#     Node 2, Type 0, BuildingBlock: UXUYUI_clean_sbu_0, # of connection points: 4
#     Node 3, Type 0, BuildingBlock: UXUYUI_clean_sbu_0, # of connection points: 4
#     Edge 4, Type (0, 0), BuildingBlock: FUNLAD_clean_linker_0, # of connection points: 2
#     Edge 5, Type (0, 0), BuildingBlock: FUNLAD_clean_linker_0, # of connection points: 2
#     Edge 6, Type (0, 0), BuildingBlock: FUNLAD_clean_linker_0, # of connection points: 2
#     Edge 7, Type (0, 0), BuildingBlock: FUNLAD_clean_linker_0, # of connection points: 2
#     Edge 8, Type (0, 0), BuildingBlock: FUNLAD_clean_linker_0, # of connection points: 2
#     Edge 9, Type (0, 0), BuildingBlock: FUNLAD_clean_linker_0, # of connection points: 2
#     Edge 10, Type (0, 0), BuildingBlock: FUNLAD_clean_linker_0, # of connection points: 2
#     Edge 11, Type (0, 0), BuildingBlock: FUNLAD_clean_linker_0, # of connection points: 2
# Relax obj value: 0.184
# Max RMSD: 0.213
# Mean RMSD: 0.213
data_MOF--net-unc--node1-UXUYUI_clean_sbu_0--edge1-FUNLAD_clean_linker_0
_symmetry_space_group_name_H-M    P1
_symmetry_Int_Tables_number       1
_symmetry_cell_setting            triclinic
loop_
_symmetry_equiv_pos_as_xyz
'x, y, z'
_cell_length_a     47.874033
_cell_length_b     47.851592
_cell_length_c     36.159541
_cell_angle_alpha  90.039873
_cell_angle_beta   89.978013
_cell_angle_gamma 90.062006
loop_
_atom_site_label
_atom_site_type_symbol
_atom_site_fract_x
_atom_site_fract_y
_atom_site_fract_z
_atom_type_partial_charge
Li0 Li 0.01668 0.67911 0.01417 0.0
Li1 Li 0.98088 0.6452 0.03766 0.0
Li2 Li 0.99692 0.64294 0.97479 0.0
Li3 Li 0.96626 0.67928 0.99371 0.0
C4 C 0.03526 0.61572 0.01246 0.0
N5 N 0.06579 0.5691 0.99278 0.0
C6 C 0.02484 0.58901 0.0198 0.0
C7 C 0.06125 0.61877 0.9953 0.0
C8 C 0.04059 0.56568 0.00958 0.0
C9 C 0.07636 0.59492 0.98552 0.0
C10 C 0.97767 0.68864 0.08088 0.0
C11 C 0.94717 0.68599 0.13389 0.0
N12 N 0.96942 0.69052 0.15649 0.0
C13 C 0.00022 0.69339 0.10462 0.0
C14 C 0.95089 0.68504 0.09559 0.0
C15 C 0.99562 0.69424 0.14277 0.0
C16 C 0.04508 0.72963 0.0207 0.0
N17 N 0.04749 0.70174 0.02672 0.0
C18 C 0.09244 0.70796 0.05409 0.0
C19 C 0.07052 0.69061 0.04296 0.0
C20 C 0.09048 0.73698 0.04858 0.0
C21 C 0.06645 0.74773 0.03141 0.0
H22 H 0.0263 0.73781 0.0081 0.0
H23 H 0.07162 0.66835 0.04785 0.0
C24 C 0.94621 0.61093 0.08262 0.0
N25 N 0.97148 0.62372 0.07994 0.0
C26 C 0.93977 0.59475 0.11357 0.0
C27 C 0.98563 0.60497 0.13814 0.0
C28 C 0.99113 0.621 0.10677 0.0
C29 C 0.95967 0.59149 0.1418 0.0
H30 H 0.93115 0.61305 0.06061 0.0
H31 H 0.01121 0.6311 0.10356 0.0
C32 C 0.01235 0.68541 0.92934 0.0
N33 N 0.03553 0.68959 0.85955 0.0
C34 C 0.99679 0.67783 0.89819 0.0
C35 C 0.03968 0.6952 0.92497 0.0
C36 C 0.00889 0.68004 0.86316 0.0
C37 C 0.05102 0.69715 0.88946 0.0
C38 C 0.932 0.63957 0.97848 0.0
C39 C 0.92765 0.63376 0.94101 0.0
C40 C 0.90933 0.64722 0.00069 0.0
C41 C 0.9007 0.63566 0.92642 0.0
C42 C 0.88272 0.64896 0.98504 0.0
N43 N 0.87898 0.64317 0.94855 0.0
C44 C 0.99007 0.59288 0.93646 0.0
C45 C 0.0287 0.61884 0.91426 0.0
C46 C 0.99498 0.5719 0.91055 0.0
N47 N 0.00639 0.61611 0.93731 0.0
C48 C 0.03422 0.59848 0.88755 0.0
C49 C 0.01702 0.57473 0.88514 0.0
H50 H 0.97322 0.59058 0.95615 0.0
H51 H 0.04234 0.63671 0.91659 0.0
C52 C 0.92645 0.72182 0.00606 0.0
N53 N 0.93712 0.70438 0.97995 0.0
C54 C 0.90549 0.74084 0.99684 0.0
C55 C 0.90685 0.72358 0.93403 0.0
C56 C 0.92788 0.70505 0.94443 0.0
C57 C 0.89548 0.74189 0.96037 0.0
H58 H 0.93438 0.72117 0.03399 0.0
H59 H 0.93686 0.69126 0.92408 0.0
O60 O 0.01981 0.63877 0.02131 0.0
O61 O 0.98186 0.68702 0.0435 0.0
O62 O 0.00085 0.68369 0.96389 0.0
O63 O 0.95831 0.63817 0.99322 0.0
H64 H 0.00467 0.58633 0.03286 0.0
H65 H 0.06943 0.63933 0.98905 0.0
H66 H 0.03273 0.54487 0.01489 0.0
H67 H 0.09641 0.59694 0.97199 0.0
H68 H 0.9266 0.68302 0.14565 0.0
H69 H 0.02109 0.69613 0.0938 0.0
H70 H 0.93323 0.68118 0.07767 0.0
H71 H 0.0129 0.69776 0.16147 0.0
H72 H 0.11066 0.69876 0.06698 0.0
H73 H 0.06381 0.76998 0.0272 0.0
H74 H 0.91944 0.5849 0.11534 0.0
H75 H 0.0018 0.60262 0.15883 0.0
H76 H 0.97584 0.66972 0.90105 0.0
H77 H 0.05206 0.70112 0.94873 0.0
H78 H 0.99716 0.67404 0.83885 0.0
H79 H 0.07216 0.70464 0.88568 0.0
H80 H 0.94491 0.62827 0.92316 0.0
H81 H 0.91231 0.65227 0.02956 0.0
H82 H 0.89707 0.63132 0.89745 0.0
H83 H 0.86505 0.65503 0.00187 0.0
H84 H 0.98172 0.55355 0.91064 0.0
H85 H 0.05153 0.60157 0.86871 0.0
H86 H 0.89719 0.75454 0.018 0.0
H87 H 0.90006 0.72402 0.90547 0.0
Li88 Li 0.35991 0.98715 0.26348 0.0
Li89 Li 0.32026 0.01583 0.25442 0.0
Li90 Li 0.32226 0.96949 0.227 0.0
Li91 Li 0.35241 0.00744 0.20438 0.0
C92 C 0.31761 0.98296 0.31726 0.0
N93 N 0.30973 0.99102 0.39222 0.0
C94 C 0.33361 0.00272 0.33633 0.0
C95 C 0.29759 0.96732 0.33631 0.0
C96 C 0.32932 0.00648 0.37421 0.0
C97 C 0.29392 0.97169 0.37421 0.0
C98 C 0.3618 0.05523 0.24413 0.0
C99 C 0.34513 0.09682 0.21363 0.0
N100 N 0.36579 0.11186 0.2301 0.0
C101 C 0.38286 0.07109 0.26073 0.0
C102 C 0.34275 0.06817 0.22036 0.0
C103 C 0.38453 0.0997 0.25331 0.0
C104 C 0.41276 0.99362 0.29299 0.0
N105 N 0.38909 0.97826 0.29697 0.0
C106 C 0.4075 0.95587 0.35069 0.0
C107 C 0.38628 0.95915 0.32453 0.0
C108 C 0.43168 0.97246 0.34826 0.0
C109 C 0.43444 0.99101 0.31839 0.0
H110 H 0.41443 0.00843 0.27051 0.0
H111 H 0.36722 0.94712 0.32689 0.0
C112 C 0.26843 0.04168 0.2676 0.0
N113 N 0.29595 0.04222 0.2767 0.0
C114 C 0.24987 0.06046 0.28402 0.0
C115 C 0.28839 0.07985 0.3189 0.0
C116 C 0.30618 0.06082 0.30171 0.0
C117 C 0.25981 0.07978 0.31019 0.0
H118 H 0.26091 0.0265 0.24777 0.0
H119 H 0.32816 0.06086 0.30846 0.0
C120 C 0.38035 0.94692 0.22374 0.0
N121 N 0.41689 0.90508 0.24435 0.0
C122 C 0.40825 0.94792 0.21245 0.0
C123 C 0.371 0.9246 0.24539 0.0
C124 C 0.42641 0.92658 0.22319 0.0
C125 C 0.38981 0.90366 0.25554 0.0
C126 C 0.3007 -0.00012 0.16833 0.0
C127 C 0.31518 0.98178 0.14477 0.0
C128 C 0.27579 0.01209 0.15638 0.0
C129 C 0.30448 0.97625 0.10958 0.0
C130 C 0.26579 0.00605 0.12097 0.0
N131 N 0.28022 0.9884 0.09851 0.0
C132 C 0.27326 0.93798 0.22417 0.0
C133 C 0.31072 0.9186 0.18974 0.0
C134 C 0.25538 0.9168 0.21217 0.0
N135 N 0.30025 0.93854 0.21265 0.0
C136 C 0.29362 0.89693 0.17722 0.0
C137 C 0.26547 0.89604 0.18814 0.0
H138 H 0.26555 0.95432 0.24217 0.0
H139 H 0.33218 0.91988 0.18054 0.0
C140 C 0.39971 0.02317 0.16653 0.0
N141 N 0.37145 0.02382 0.16373 0.0
C142 C 0.41633 0.03419 0.13847 0.0
C143 C 0.37439 0.04738 0.1056 0.0
C144 C 0.35856 0.03619 0.1345 0.0
C145 C 0.40369 0.04622 0.10727 0.0
H146 H 0.40932 0.014 0.19069 0.0
H147 H 0.33605 0.03747 0.13352 0.0
O148 O 0.32121 0.97891 0.2801 0.0
O149 O 0.36011 0.02718 0.25122 0.0
O150 O 0.36236 0.96794 0.21436 0.0
O151 O 0.31042 0.00537 0.20316 0.0
H152 H 0.34921 0.01503 0.3221 0.0
H153 H 0.28501 0.95196 0.32192 0.0
H154 H 0.34157 0.0217 0.38929 0.0
H155 H 0.2785 0.95973 0.38931 0.0
H156 H 0.33054 0.10709 0.19531 0.0
H157 H 0.39776 0.06139 0.27921 0.0
H158 H 0.32627 0.05635 0.20723 0.0
H159 H 0.40073 0.11223 0.26599 0.0
H160 H 0.40448 0.94144 0.3734 0.0
H161 H 0.45295 0.00381 0.31513 0.0
H162 H 0.22793 0.05957 0.27681 0.0
H163 H 0.29696 0.09465 0.33855 0.0
H164 H 0.41585 0.96496 0.19561 0.0
H165 H 0.34956 0.92369 0.25478 0.0
H166 H 0.44808 0.92711 0.21473 0.0
H167 H 0.38289 0.88635 0.27247 0.0
H168 H 0.33452 0.97218 0.1534 0.0
H169 H 0.2643 0.02609 0.17432 0.0
H170 H 0.31549 0.96231 0.09107 0.0
H171 H 0.24654 0.01536 0.11136 0.0
H172 H 0.23387 0.91671 0.22148 0.0
H173 H 0.3021 0.88156 0.15832 0.0
H174 H 0.43883 0.0327 0.14081 0.0
H175 H 0.36386 0.05691 0.08231 0.0
Li176 Li 0.01928 0.35091 0.53309 0.0
Li177 Li 0.98254 0.31654 0.52097 0.0
Li178 Li 0.02775 0.31373 0.49189 0.0
Li179 Li 0.99527 0.3508 0.4744 0.0
C180 C 0.03216 0.28644 0.5548 0.0
N181 N 0.05895 0.23692 0.5717 0.0
C182 C 0.01744 0.26119 0.55421 0.0
C183 C 0.06044 0.2865 0.56443 0.0
C184 C 0.03137 0.23638 0.56275 0.0
C185 C 0.07363 0.26125 0.57274 0.0
C186 C 0.95171 0.36554 0.52004 0.0
C187 C 0.90626 0.35942 0.49242 0.0
N188 N 0.89645 0.38119 0.51282 0.0
C189 C 0.9412 0.38786 0.5407 0.0
C190 C 0.93414 0.35119 0.49565 0.0
C191 C 0.9132 0.39545 0.53667 0.0
C192 C 0.03024 0.40293 0.56579 0.0
N193 N 0.03332 0.37492 0.57029 0.0
C194 C 0.05201 0.38147 0.63085 0.0
C195 C 0.04427 0.36395 0.60173 0.0
C196 C 0.0483 0.41049 0.62751 0.0
C197 C 0.03779 0.42123 0.59414 0.0
H198 H 0.02113 0.41095 0.54056 0.0
H199 H 0.04622 0.34155 0.6046 0.0
C200 C 0.93987 0.27601 0.5229 0.0
N201 N 0.95256 0.29666 0.54244 0.0
C202 C 0.91867 0.26019 0.53906 0.0
C203 C 0.92362 0.28764 0.59488 0.0
C204 C 0.94481 0.3029 0.57763 0.0
C205 C 0.91049 0.26574 0.57566 0.0
H206 H 0.94656 0.27156 0.49501 0.0
H207 H 0.95541 0.31946 0.59243 0.0
C208 C 0.05815 0.37131 0.48902 0.0
N209 N 0.10207 0.40744 0.50261 0.0
C210 C 0.05949 0.39711 0.47099 0.0
C211 C 0.07947 0.36369 0.51337 0.0
C212 C 0.08178 0.41513 0.47836 0.0
C213 C 0.1014 0.38229 0.52007 0.0
C214 C 0.99364 0.30186 0.43178 0.0
C215 C 0.01448 0.31438 0.41025 0.0
C216 C 0.97656 0.28133 0.41606 0.0
C217 C 0.01779 0.30621 0.37342 0.0
C218 C 0.98052 0.27375 0.37912 0.0
N219 N 0.00088 0.28624 0.35874 0.0
C220 C 0.04501 0.26097 0.46785 0.0
C221 C 0.08016 0.29568 0.46288 0.0
C222 C 0.06264 0.24104 0.45221 0.0
N223 N 0.05402 0.28763 0.47294 0.0
C224 C 0.0985 0.27644 0.44701 0.0
C225 C 0.08974 0.24872 0.44131 0.0
H226 H 0.02392 0.25528 0.47551 0.0
H227 H 0.08658 0.31715 0.46639 0.0
C228 C 0.98512 0.40248 0.44161 0.0
N229 N 0.98048 0.37468 0.43706 0.0
C230 C 0.97647 0.42146 0.41468 0.0
C231 C 0.95669 0.38302 0.38006 0.0
C232 C 0.96571 0.36481 0.40769 0.0
C233 C 0.96256 0.4117 0.38299 0.0
H234 H 0.99591 0.40985 0.46601 0.0
H235 H 0.96095 0.34284 0.40546 0.0
O236 O 0.01898 0.31091 0.54589 0.0
O237 O 0.97914 0.35804 0.52366 0.0
O238 O 0.03627 0.35349 0.48254 0.0
O239 O 0.99021 0.3091 0.46818 0.0
H240 H 0.99561 0.26063 0.54677 0.0
H241 H 0.07214 0.3058 0.56548 0.0
H242 H 0.02027 0.21668 0.56213 0.0
H243 H 0.09554 0.26101 0.58004 0.0
H244 H 0.89244 0.34851 0.47366 0.0
H245 H 0.95459 0.39921 0.55962 0.0
H246 H 0.94188 0.33393 0.47933 0.0
H247 H 0.90477 0.41269 0.5525 0.0
H248 H 0.06023 0.37237 0.65601 0.0
H249 H 0.03421 0.44341 0.59062 0.0
H250 H 0.90883 0.24374 0.52309 0.0
H251 H 0.91813 0.29243 0.62324 0.0
H252 H 0.04368 0.40309 0.45124 0.0
H253 H 0.07892 0.34373 0.52723 0.0
H254 H 0.083 0.4352 0.46471 0.0
H255 H 0.11787 0.37673 0.53916 0.0
H256 H 0.028 0.33025 0.42166 0.0
H257 H 0.96038 0.27131 0.43219 0.0
H258 H 0.03381 0.31575 0.35651 0.0
H259 H 0.96741 0.25791 0.36665 0.0
H260 H 0.05509 0.21987 0.44867 0.0
H261 H 0.11904 0.28338 0.43842 0.0
H262 H 0.98139 0.4434 0.41813 0.0
H263 H 0.94535 0.37472 0.35658 0.0
Li264 Li 0.63793 0.01344 0.77681 0.0
Li265 Li 0.67375 0.97745 0.76864 0.0
Li266 Li 0.67994 0.02515 0.74037 0.0
Li267 Li 0.64698 0.99093 0.71525 0.0
C268 C 0.68263 0.02932 0.8249 0.0
N269 N 0.69304 0.05955 0.88861 0.0
C270 C 0.68833 0.0155 0.8581 0.0
C271 C 0.68272 0.05852 0.82401 0.0
C272 C 0.69339 0.03115 0.89004 0.0
C273 C 0.6879 0.07343 0.85652 0.0
C274 C 0.62575 0.94942 0.77879 0.0
C275 C 0.62473 0.89905 0.78036 0.0
N276 N 0.61251 0.90005 0.81431 0.0
C277 C 0.61295 0.94996 0.81352 0.0
C278 C 0.63145 0.92379 0.76188 0.0
C279 C 0.6065 0.92477 0.83108 0.0
C280 C 0.58566 0.03711 0.79145 0.0
N281 N 0.60944 0.02793 0.80797 0.0
C282 C 0.59078 0.03806 0.86772 0.0
C283 C 0.61231 0.02809 0.84535 0.0
C284 C 0.56593 0.04764 0.85146 0.0
C285 C 0.56353 0.04716 0.81277 0.0
H286 H 0.58381 0.03637 0.76165 0.0
H287 H 0.63095 0.01981 0.85794 0.0
C288 C 0.71572 0.93697 0.77431 0.0
N289 N 0.69317 0.94773 0.79211 0.0
C290 C 0.73149 0.91585 0.79066 0.0
C291 C 0.70045 0.9171 0.84339 0.0
C292 C 0.68537 0.93834 0.82607 0.0
C293 C 0.724 0.90577 0.82575 0.0
H294 H 0.72174 0.94505 0.74758 0.0
H295 H 0.66773 0.94766 0.84002 0.0
C296 C 0.63355 0.05765 0.71756 0.0
N297 N 0.61989 0.11186 0.69844 0.0
C298 C 0.62766 0.0644 0.68077 0.0
C299 C 0.63199 0.0784 0.7447 0.0
C300 C 0.62096 0.09194 0.67163 0.0
C301 C 0.62517 0.1057 0.73447 0.0
C302 C 0.69614 0.97636 0.68599 0.0
C303 C 0.71008 0.99261 0.6597 0.0
C304 C 0.69021 0.94836 0.67829 0.0
C305 C 0.71742 0.98067 0.6258 0.0
C306 C 0.69787 0.93719 0.64406 0.0
N307 N 0.71117 0.95345 0.61872 0.0
C308 C 0.72815 0.05823 0.75051 0.0
C309 C 0.7027 0.06784 0.69578 0.0
C310 C 0.74805 0.0784 0.74128 0.0
N311 N 0.70595 0.05353 0.72792 0.0
C312 C 0.72208 0.08816 0.68545 0.0
C313 C 0.74518 0.09363 0.70829 0.0
H314 H 0.73054 0.04612 0.77554 0.0
H315 H 0.68548 0.06295 0.67763 0.0
C316 C 0.60809 0.96078 0.67191 0.0
N317 N 0.62969 0.97919 0.67076 0.0
C318 C 0.59351 0.95409 0.63964 0.0
C319 C 0.62437 0.98472 0.60556 0.0
C320 C 0.63812 0.99101 0.63849 0.0
C321 C 0.6013 0.96653 0.60595 0.0
H322 H 0.60157 0.95202 0.69809 0.0
H323 H 0.65508 0.00593 0.63847 0.0
O324 O 0.67763 0.01426 0.79338 0.0
O325 O 0.63237 0.97388 0.76127 0.0
O326 O 0.64015 0.03074 0.72694 0.0
O327 O 0.68853 0.98777 0.71921 0.0
H328 H 0.68867 0.99294 0.85927 0.0
H329 H 0.67922 0.0696 0.79842 0.0
H330 H 0.69763 0.02071 0.91597 0.0
H331 H 0.68797 0.09603 0.8562 0.0
H332 H 0.62918 0.87906 0.7677 0.0
H333 H 0.60821 0.9696 0.8269 0.0
H334 H 0.64101 0.92299 0.73482 0.0
H335 H 0.59674 0.92487 0.85807 0.0
H336 H 0.59323 0.03743 0.89748 0.0
H337 H 0.54473 0.0544 0.79916 0.0
H338 H 0.74938 0.90752 0.77601 0.0
H339 H 0.69422 0.91016 0.87069 0.0
H340 H 0.62843 0.04857 0.65944 0.0
H341 H 0.63563 0.07346 0.77341 0.0
H342 H 0.61656 0.09748 0.64322 0.0
H343 H 0.62396 0.12195 0.75521 0.0
H344 H 0.71508 0.01423 0.66532 0.0
H345 H 0.67973 0.93542 0.69848 0.0
H346 H 0.72807 0.99304 0.60511 0.0
H347 H 0.69324 0.91559 0.63765 0.0
H348 H 0.7655 0.082 0.75975 0.0
H349 H 0.71941 0.09888 0.65932 0.0
H350 H 0.57561 0.9403 0.64139 0.0
H351 H 0.63139 0.99451 0.58021 0.0
C352 C 0.93989 0.54767 0.16962 0.0
C353 C 0.95393 0.57326 0.17416 0.0
C354 C 0.93615 0.52963 0.19956 0.0
C355 C 0.9467 0.53664 0.2347 0.0
C356 C 0.95964 0.56273 0.23955 0.0
C357 C 0.9633 0.58081 0.20963 0.0
C358 C 0.9453 0.51718 0.26668 0.0
C359 C 0.94359 0.4892 0.26285 0.0
C360 C 0.94626 0.46936 0.29424 0.0
C361 C 0.95535 0.44206 0.28678 0.0
C362 C 0.96001 0.42318 0.31552 0.0
C363 C 0.95545 0.43112 0.35245 0.0
H364 H 0.93253 0.49747 0.33794 0.0
C365 C 0.94526 0.45809 0.35989 0.0
C366 C 0.94058 0.47699 0.3311 0.0
H367 H 0.94096 0.4646 0.38801 0.0
H368 H 0.93242 0.54117 0.14268 0.0
H369 H 0.92515 0.5102 0.19485 0.0
H370 H 0.96761 0.56887 0.2664 0.0
H371 H 0.97367 0.60064 0.21425 0.0
H372 H 0.94852 0.52614 0.29392 0.0
H373 H 0.9429 0.48014 0.23534 0.0
H374 H 0.9597 0.43552 0.25867 0.0
H375 H 0.96807 0.40265 0.30884 0.0
C376 C 0.46179 0.94678 0.39405 0.0
C377 C 0.45301 0.97202 0.37796 0.0
C378 C 0.48137 0.94684 0.42281 0.0
C379 C 0.49246 0.97224 0.43603 0.0
C380 C 0.4835 0.99735 0.41996 0.0
C381 C 0.46411 0.99727 0.39125 0.0
C382 C 0.51254 0.97398 0.46723 0.0
C383 C 0.52842 0.95265 0.47941 0.0
C384 C 0.54842 0.95606 0.51051 0.0
C385 C 0.55453 0.93312 0.53328 0.0
C386 C 0.57215 0.93623 0.5639 0.0
C387 C 0.58421 0.96234 0.57209 0.0
H388 H 0.55822 -0.00023 0.50013 0.0
C389 C 0.57889 0.98498 0.5484 0.0
C390 C 0.56144 0.98185 0.51785 0.0
H391 H 0.58762 0.00545 0.55391 0.0
H392 H 0.45356 0.92699 0.38436 0.0
H393 H 0.48719 0.92704 0.43492 0.0
H394 H 0.49147 0.01724 0.42974 0.0
H395 H 0.45736 0.01712 0.37999 0.0
H396 H 0.51436 0.99423 0.48059 0.0
H397 H 0.52645 0.93203 0.4672 0.0
H398 H 0.54515 0.91291 0.52787 0.0
H399 H 0.5762 0.91824 0.58122 0.0
C400 C 0.04883 0.54556 0.84517 0.0
C401 C 0.02167 0.55316 0.85616 0.0
C402 C 0.05294 0.52517 0.81795 0.0
C403 C 0.02991 0.51192 0.80128 0.0
C404 C 0.00288 0.51934 0.81245 0.0
C405 C -0.00123 0.53988 0.83927 0.0
C406 C 0.0331 0.48971 0.77301 0.0
C407 C 0.05476 0.48824 0.74932 0.0
C408 C 0.05563 0.46709 0.71935 0.0
C409 C 0.06681 0.47435 0.68478 0.0
C410 C 0.06526 0.45568 0.65507 0.0
C411 C 0.05292 0.42923 0.65963 0.0
H412 H 0.03652 0.43358 0.75098 0.0
C413 C 0.04317 0.42144 0.69481 0.0
C414 C 0.04455 0.44014 0.72437 0.0
H415 H 0.03346 0.40126 0.69922 0.0
H416 H 0.06696 0.55496 0.85806 0.0
H417 H 0.07409 0.51941 0.81067 0.0
H418 H 0.98479 0.50943 0.80005 0.0
H419 H 0.97755 0.54551 0.84648 0.0
H420 H 0.01576 0.47522 0.76984 0.0
H421 H 0.07078 0.50433 0.74964 0.0
H422 H 0.07578 0.49488 0.68038 0.0
H423 H 0.0733 0.4621 0.62838 0.0
C424 C 0.41403 0.04948 0.03949 0.0
C425 C 0.42115 0.05625 0.0761 0.0
C426 C 0.43223 0.05576 0.01043 0.0
C427 C 0.4579 0.0692 0.01741 0.0
C428 C 0.46435 0.07704 0.05385 0.0
C429 C 0.44618 0.0707 0.08287 0.0
C430 C 0.47982 0.07254 0.9886 0.0
C431 C 0.47511 0.07057 0.95194 0.0
C432 C 0.49809 0.06816 0.92448 0.0
C433 C 0.49311 0.05325 0.89169 0.0
C434 C 0.51494 0.04742 0.86725 0.0
C435 C 0.54221 0.05657 0.87504 0.0
H436 H 0.52951 0.09148 0.95518 0.0
C437 C 0.54689 0.07296 0.90669 0.0
C438 C 0.52504 0.07885 0.93107 0.0
H439 H 0.56756 0.08091 0.91287 0.0
H440 H 0.39505 0.03801 0.03347 0.0
H441 H 0.42658 0.04867 0.98306 0.0
H442 H 0.48395 0.08736 0.0601 0.0
H443 H 0.45206 0.07654 0.11075 0.0
H444 H 0.50107 0.0749 -0.00142 0.0
H445 H 0.45397 0.06807 0.9417 0.0
H446 H 0.47251 0.04498 0.88574 0.0
H447 H 0.51068 0.03468 0.84313 0.0
C448 C 0.21962 0.88128 0.16113 0.0
C449 C 0.2465 0.87417 0.17351 0.0
C450 C 0.20186 0.8609 0.14661 0.0
C451 C 0.21064 0.83291 0.14404 0.0
C452 C 0.23729 0.82571 0.15707 0.0
C453 C 0.25515 0.84616 0.17138 0.0
C454 C 0.1921 0.81072 0.12914 0.0
C455 C 0.17248 0.81582 0.10333 0.0
C456 C 0.15298 0.79424 0.08899 0.0
C457 C 0.14035 0.79848 0.05443 0.0
C458 C 0.1206 0.77958 0.0409 0.0
C459 C 0.1128 0.7561 0.06185 0.0
H460 H 0.15403 0.76697 0.13707 0.0
C461 C 0.12563 0.75168 0.09632 0.0
C462 C 0.14545 0.77056 0.10981 0.0
H463 H 0.11968 0.73413 0.1135 0.0
H464 H 0.21241 0.90272 0.16226 0.0
H465 H 0.18114 0.86712 0.13794 0.0
H466 H 0.24441 0.80424 0.15584 0.0
H467 H 0.27563 0.84001 0.18113 0.0
H468 H 0.1956 0.7895 0.13867 0.0
H469 H 0.17104 0.83655 0.09124 0.0
H470 H 0.14567 0.8166 0.03789 0.0
H471 H 0.11136 0.78343 0.01405 0.0
C472 C 0.22021 0.11398 0.30776 0.0
C473 C 0.24058 0.09978 0.3284 0.0
C474 C 0.20252 0.13331 0.32479 0.0
C475 C 0.20463 0.13859 0.36303 0.0
C476 C 0.22507 0.12441 0.38354 0.0
C477 C 0.24281 0.10518 0.36648 0.0
C478 C 0.18669 0.15933 0.38233 0.0
C479 C 0.16188 0.16814 0.36921 0.0
C480 C 0.14396 0.18885 0.3886 0.0
C481 C 0.11541 0.18979 0.37995 0.0
C482 C 0.09783 0.2091 0.39712 0.0
C483 C 0.10846 0.22809 0.42327 0.0
H484 H 0.17672 0.20876 0.42109 0.0
C485 C 0.1371 0.22741 0.43166 0.0
C486 C 0.15471 0.20811 0.41443 0.0
H487 H 0.14593 0.24171 0.45175 0.0
H488 H 0.21837 0.11063 0.27822 0.0
H489 H 0.18777 0.14443 0.30762 0.0
H490 H 0.22729 0.12815 0.41295 0.0
H491 H 0.25815 0.09438 0.38318 0.0
H492 H 0.19383 0.16659 0.40915 0.0
H493 H 0.15353 0.15898 0.34408 0.0
H494 H 0.10661 0.17547 0.35983 0.0
H495 H 0.07596 0.20943 0.38946 0.0
C496 C 0.75885 0.13954 0.68001 0.0
C497 C 0.76666 0.11428 0.69689 0.0
C498 C 0.77911 0.15821 0.66721 0.0
C499 C 0.8077 0.15208 0.67126 0.0
C500 C 0.81545 0.12701 0.68857 0.0
C501 C 0.79519 0.10835 0.70136 0.0
C502 C 0.82999 0.17019 0.65562 0.0
C503 C 0.82639 0.19733 0.64696 0.0
C504 C 0.84847 0.21444 0.62904 0.0
C505 C 0.84817 0.24357 0.63362 0.0
C506 C 0.86834 0.26029 0.61647 0.0
C507 C 0.889 0.24819 0.59397 0.0
H508 H 0.86944 0.18013 0.60096 0.0
C509 C 0.88909 0.21907 0.58905 0.0
C510 C 0.86901 0.20238 0.60623 0.0
H511 H 0.90483 0.20909 0.57207 0.0
H512 H 0.73702 0.14479 0.67637 0.0
H513 H 0.77214 0.1769 0.65322 0.0
H514 H 0.83729 0.1216 0.69174 0.0
H515 H 0.80193 0.08889 0.71373 0.0
H516 H 0.85037 0.1607 0.65172 0.0
H517 H 0.807 0.20778 0.65407 0.0
H518 H 0.83235 0.25343 0.65063 0.0
H519 H 0.86751 0.28272 0.6204 0.0
C520 C 0.7705 0.8861 0.84343 0.0
C521 C 0.74122 0.88418 0.84422 0.0
C522 C 0.7869 0.8658 0.86052 0.0
C523 C 0.77437 0.84313 0.87893 0.0
C524 C 0.74513 0.84105 0.87942 0.0
C525 C 0.72867 0.86151 0.8625 0.0
C526 C 0.79136 0.82073 0.89619 0.0
C527 C 0.81706 0.82542 0.91004 0.0
C528 C 0.83538 0.80307 0.92483 0.0
C529 C 0.85704 0.81049 0.94909 0.0
C530 C 0.87608 0.79049 0.96143 0.0
C531 C 0.87406 0.76265 0.94939 0.0
H532 H 0.81713 0.76861 0.89382 0.0
C533 C 0.8522 0.75509 0.92546 0.0
C534 C 0.83306 0.77507 0.91325 0.0
H535 H 0.85006 0.73375 0.91585 0.0
H536 H 0.78076 0.90342 0.82972 0.0
H537 H 0.80938 0.86768 0.85853 0.0
H538 H 0.73498 0.8236 0.89301 0.0
H539 H 0.70615 0.85934 0.86317 0.0
H540 H 0.78205 0.80009 0.8983 0.0
H541 H 0.82502 0.84667 0.91119 0.0
H542 H 0.85948 0.83195 0.95814 0.0
H543 H 0.89293 0.79703 0.97947 0.0
loop_
_geom_bond_atom_site_label_1
_geom_bond_atom_site_label_2
_geom_bond_distance
_geom_bond_site_symmetry_2
_ccdc_geom_bond_type
Li0 N17 1.990 . S
Li0 O60 1.956 . S
Li0 O61 1.970 1_455 S
Li0 O62 1.961 1_554 S
Li1 N25 1.990 . S
Li1 O60 1.970 1_655 S
Li1 O61 1.956 . S
Li1 O63 1.961 1_554 S
Li2 N47 1.990 . S
Li2 O60 1.961 1_556 S
Li2 O62 1.956 . S
Li2 O63 1.970 1_455 S
Li3 N53 1.990 . S
Li3 O61 1.961 1_556 S
Li3 O62 1.970 1_655 S
Li3 O63 1.956 . S
C4 C6 1.348 . S
C4 C7 1.356 1_554 S
C4 O60 1.325 . S
N5 C8 1.314 . S
N5 C9 1.279 . S
C6 C4 1.348 . S
C6 C8 1.353 . S
C6 H64 0.929 . S
C7 C4 1.356 1_556 S
C7 C9 1.358 1_556 S
C7 H65 0.930 . S
C8 N5 1.314 . S
C8 C6 1.353 . S
C8 H66 0.930 . S
C9 N5 1.279 . S
C9 C7 1.358 1_554 S
C9 H67 0.930 1_554 S
C10 C13 1.348 1_655 S
C10 C14 1.356 . S
C10 O61 1.325 . S
C11 N12 1.279 . S
C11 C14 1.358 . S
C11 H68 0.930 . S
N12 C11 1.279 . S
N12 C15 1.314 . S
C13 C10 1.348 1_455 S
C13 C15 1.353 1_455 S
C13 H69 0.929 . S
C14 C10 1.356 . S
C14 C11 1.358 . S
C14 H70 0.930 . S
C15 N12 1.314 . S
C15 C13 1.353 1_655 S
C15 H71 0.930 1_655 S
C16 N17 1.314 . S
C16 C21 1.353 . S
C16 H22 0.930 1_554 S
N17 Li0 1.990 . S
N17 C16 1.314 . S
N17 C19 1.279 . S
C18 C19 1.358 . S
C18 C20 1.356 . S
C18 H72 0.930 . S
C19 N17 1.279 . S
C19 C18 1.358 . S
C19 H23 0.930 . S
C20 C18 1.356 . S
C20 C21 1.348 . S
C21 C16 1.353 . S
C21 C20 1.348 . S
C21 H73 0.929 . S
H22 C16 0.930 1_556 S
H23 C19 0.930 . S
C24 N25 1.314 . S
C24 C26 1.353 . S
C24 H30 0.930 . S
N25 Li1 1.990 . S
N25 C24 1.314 . S
N25 C28 1.279 . S
C26 C24 1.353 . S
C26 C29 1.348 . S
C26 H74 0.929 . S
C27 C28 1.358 . S
C27 C29 1.356 . S
C27 H75 0.930 . S
C28 N25 1.279 . S
C28 C27 1.358 . S
C28 H31 0.930 . S
C29 C26 1.348 . S
C29 C27 1.356 . S
H30 C24 0.930 . S
H31 C28 0.930 . S
C32 C34 1.348 1_455 S
C32 C35 1.356 . S
C32 O62 1.325 . S
N33 C36 1.314 . S
N33 C37 1.279 . S
C34 C32 1.348 1_655 S
C34 C36 1.353 1_655 S
C34 H76 0.929 . S
C35 C32 1.356 . S
C35 C37 1.358 . S
C35 H77 0.930 . S
C36 N33 1.314 . S
C36 C34 1.353 1_455 S
C36 H78 0.930 1_455 S
C37 N33 1.279 . S
C37 C35 1.358 . S
C37 H79 0.930 . S
C38 C39 1.348 . S
C38 C40 1.356 1_556 S
C38 O63 1.325 . S
C39 C38 1.348 . S
C39 C41 1.353 . S
C39 H80 0.929 . S
C40 C38 1.356 1_554 S
C40 C42 1.358 1_554 S
C40 H81 0.930 . S
C41 C39 1.353 . S
C41 N43 1.314 . S
C41 H82 0.930 . S
C42 C40 1.358 1_556 S
C42 N43 1.279 . S
C42 H83 0.930 1_556 S
N43 C41 1.314 . S
N43 C42 1.279 . S
C44 C46 1.353 . S
C44 N47 1.314 . S
C44 H50 0.930 . S
C45 N47 1.279 . S
C45 C48 1.358 . S
C45 H51 0.930 . S
C46 C44 1.353 . S
C46 C49 1.348 . S
C46 H84 0.929 . S
N47 Li2 1.990 . S
N47 C44 1.314 . S
N47 C45 1.279 . S
C48 C45 1.358 . S
C48 C49 1.356 . S
C48 H85 0.930 . S
C49 C46 1.348 . S
C49 C48 1.356 . S
H50 C44 0.930 . S
H51 C45 0.930 . S
C52 N53 1.314 . S
C52 C54 1.353 . S
C52 H58 0.930 1_556 S
N53 Li3 1.990 . S
N53 C52 1.314 . S
N53 C56 1.279 . S
C54 C52 1.353 . S
C54 C57 1.348 . S
C54 H86 0.929 . S
C55 C56 1.358 . S
C55 C57 1.356 . S
C55 H87 0.930 . S
C56 N53 1.279 . S
C56 C55 1.358 . S
C56 H59 0.930 . S
C57 C54 1.348 . S
C57 C55 1.356 . S
H58 C52 0.930 1_554 S
H59 C56 0.930 . S
O60 Li0 1.956 . S
O60 Li1 1.970 1_455 S
O60 Li2 1.961 1_554 S
O60 C4 1.325 . S
O61 Li0 1.970 1_655 S
O61 Li1 1.956 . S
O61 Li3 1.961 1_554 S
O61 C10 1.325 . S
O62 Li0 1.961 1_556 S
O62 Li2 1.956 . S
O62 Li3 1.970 1_455 S
O62 C32 1.325 . S
O63 Li1 1.961 1_556 S
O63 Li2 1.970 1_655 S
O63 Li3 1.956 . S
O63 C38 1.325 . S
H64 C6 0.929 . S
H65 C7 0.930 . S
H66 C8 0.930 . S
H67 C9 0.930 1_556 S
H68 C11 0.930 . S
H69 C13 0.929 . S
H70 C14 0.930 . S
H71 C15 0.930 1_455 S
H72 C18 0.930 . S
H73 C21 0.929 . S
H74 C26 0.929 . S
H75 C27 0.930 . S
H76 C34 0.929 . S
H77 C35 0.930 . S
H78 C36 0.930 1_655 S
H79 C37 0.930 . S
H80 C39 0.929 . S
H81 C40 0.930 . S
H82 C41 0.930 . S
H83 C42 0.930 1_554 S
H84 C46 0.929 . S
H85 C48 0.930 . S
H86 C54 0.929 . S
H87 C55 0.930 . S
Li88 N105 1.990 . S
Li88 O148 1.956 . S
Li88 O149 1.970 1_565 S
Li88 O150 1.961 . S
Li89 N113 1.990 . S
Li89 O148 1.970 1_545 S
Li89 O149 1.956 . S
Li89 O151 1.961 . S
Li90 N135 1.990 . S
Li90 O148 1.961 . S
Li90 O150 1.956 . S
Li90 O151 1.970 1_565 S
Li91 N141 1.990 . S
Li91 O149 1.961 . S
Li91 O150 1.970 1_545 S
Li91 O151 1.956 . S
C92 C94 1.348 1_565 S
C92 C95 1.356 . S
C92 O148 1.325 . S
N93 C96 1.314 . S
N93 C97 1.279 . S
C94 C92 1.348 1_545 S
C94 C96 1.353 1_545 S
C94 H152 0.929 . S
C95 C92 1.356 . S
C95 C97 1.358 . S
C95 H153 0.930 . S
C96 N93 1.314 . S
C96 C94 1.353 1_565 S
C96 H154 0.930 1_565 S
C97 N93 1.279 . S
C97 C95 1.358 . S
C97 H155 0.930 . S
C98 C101 1.348 . S
C98 C102 1.356 . S
C98 O149 1.325 . S
C99 N100 1.279 . S
C99 C102 1.358 . S
C99 H156 0.930 . S
N100 C99 1.279 . S
N100 C103 1.314 . S
C101 C98 1.348 . S
C101 C103 1.353 . S
C101 H157 0.929 . S
C102 C98 1.356 . S
C102 C99 1.358 . S
C102 H158 0.930 . S
C103 N100 1.314 . S
C103 C101 1.353 . S
C103 H159 0.930 . S
C104 N105 1.314 . S
C104 C109 1.353 . S
C104 H110 0.930 . S
N105 Li88 1.990 . S
N105 C104 1.314 . S
N105 C107 1.279 . S
C106 C107 1.358 . S
C106 C108 1.356 . S
C106 H160 0.930 . S
C107 N105 1.279 . S
C107 C106 1.358 . S
C107 H111 0.930 . S
C108 C106 1.356 . S
C108 C109 1.348 . S
C109 C104 1.353 . S
C109 C108 1.348 . S
C109 H161 0.929 . S
H110 C104 0.930 . S
H111 C107 0.930 . S
C112 N113 1.314 . S
C112 C114 1.353 . S
C112 H118 0.930 . S
N113 Li89 1.990 . S
N113 C112 1.314 . S
N113 C116 1.279 . S
C114 C112 1.353 . S
C114 C117 1.348 . S
C114 H162 0.929 . S
C115 C116 1.358 . S
C115 C117 1.356 . S
C115 H163 0.930 . S
C116 N113 1.279 . S
C116 C115 1.358 . S
C116 H119 0.930 . S
C117 C114 1.348 . S
C117 C115 1.356 . S
H118 C112 0.930 . S
H119 C116 0.930 . S
C120 C122 1.348 . S
C120 C123 1.356 . S
C120 O150 1.325 . S
N121 C124 1.314 . S
N121 C125 1.279 . S
C122 C120 1.348 . S
C122 C124 1.353 . S
C122 H164 0.929 . S
C123 C120 1.356 . S
C123 C125 1.358 . S
C123 H165 0.930 . S
C124 N121 1.314 . S
C124 C122 1.353 . S
C124 H166 0.930 . S
C125 N121 1.279 . S
C125 C123 1.358 . S
C125 H167 0.930 . S
C126 C127 1.348 1_545 S
C126 C128 1.356 . S
C126 O151 1.325 . S
C127 C126 1.348 1_565 S
C127 C129 1.353 1_565 S
C127 H168 0.929 . S
C128 C126 1.356 . S
C128 C130 1.358 . S
C128 H169 0.930 . S
C129 C127 1.353 1_545 S
C129 N131 1.314 . S
C129 H170 0.930 1_545 S
C130 C128 1.358 . S
C130 N131 1.279 . S
C130 H171 0.930 . S
N131 C129 1.314 . S
N131 C130 1.279 . S
C132 C134 1.353 . S
C132 N135 1.314 . S
C132 H138 0.930 . S
C133 N135 1.279 . S
C133 C136 1.358 . S
C133 H139 0.930 . S
C134 C132 1.353 . S
C134 C137 1.348 . S
C134 H172 0.929 . S
N135 Li90 1.990 . S
N135 C132 1.314 . S
N135 C133 1.279 . S
C136 C133 1.358 . S
C136 C137 1.356 . S
C136 H173 0.930 . S
C137 C134 1.348 . S
C137 C136 1.356 . S
H138 C132 0.930 . S
H139 C133 0.930 . S
C140 N141 1.314 . S
C140 C142 1.353 . S
C140 H146 0.930 . S
N141 Li91 1.990 . S
N141 C140 1.314 . S
N141 C144 1.279 . S
C142 C140 1.353 . S
C142 C145 1.348 . S
C142 H174 0.929 . S
C143 C144 1.358 . S
C143 C145 1.356 . S
C143 H175 0.930 . S
C144 N141 1.279 . S
C144 C143 1.358 . S
C144 H147 0.930 . S
C145 C142 1.348 . S
C145 C143 1.356 . S
H146 C140 0.930 . S
H147 C144 0.930 . S
O148 Li88 1.956 . S
O148 Li89 1.970 1_565 S
O148 Li90 1.961 . S
O148 C92 1.325 . S
O149 Li88 1.970 1_545 S
O149 Li89 1.956 . S
O149 Li91 1.961 . S
O149 C98 1.325 . S
O150 Li88 1.961 . S
O150 Li90 1.956 . S
O150 Li91 1.970 1_565 S
O150 C120 1.325 . S
O151 Li89 1.961 . S
O151 Li90 1.970 1_545 S
O151 Li91 1.956 . S
O151 C126 1.325 . S
H152 C94 0.929 . S
H153 C95 0.930 . S
H154 C96 0.930 1_545 S
H155 C97 0.930 . S
H156 C99 0.930 . S
H157 C101 0.929 . S
H158 C102 0.930 . S
H159 C103 0.930 . S
H160 C106 0.930 . S
H161 C109 0.929 . S
H162 C114 0.929 . S
H163 C115 0.930 . S
H164 C122 0.929 . S
H165 C123 0.930 . S
H166 C124 0.930 . S
H167 C125 0.930 . S
H168 C127 0.929 . S
H169 C128 0.930 . S
H170 C129 0.930 1_565 S
H171 C130 0.930 . S
H172 C134 0.929 . S
H173 C136 0.930 . S
H174 C142 0.929 . S
H175 C143 0.930 . S
Li176 N193 1.990 . S
Li176 O236 1.956 . S
Li176 O237 1.970 1_455 S
Li176 O238 1.961 . S
Li177 N201 1.990 . S
Li177 O236 1.970 1_655 S
Li177 O237 1.956 . S
Li177 O239 1.961 . S
Li178 N223 1.990 . S
Li178 O236 1.961 . S
Li178 O238 1.956 . S
Li178 O239 1.970 1_455 S
Li179 N229 1.990 . S
Li179 O237 1.961 . S
Li179 O238 1.970 1_655 S
Li179 O239 1.956 . S
C180 C182 1.348 1_455 S
C180 C183 1.356 . S
C180 O236 1.325 . S
N181 C184 1.314 . S
N181 C185 1.279 . S
C182 C180 1.348 1_655 S
C182 C184 1.353 1_655 S
C182 H240 0.929 . S
C183 C180 1.356 . S
C183 C185 1.358 . S
C183 H241 0.930 . S
C184 N181 1.314 . S
C184 C182 1.353 1_455 S
C184 H242 0.930 1_455 S
C185 N181 1.279 . S
C185 C183 1.358 . S
C185 H243 0.930 . S
C186 C189 1.348 . S
C186 C190 1.356 . S
C186 O237 1.325 . S
C187 N188 1.279 . S
C187 C190 1.358 . S
C187 H244 0.930 . S
N188 C187 1.279 . S
N188 C191 1.314 . S
C189 C186 1.348 . S
C189 C191 1.353 . S
C189 H245 0.929 . S
C190 C186 1.356 . S
C190 C187 1.358 . S
C190 H246 0.930 . S
C191 N188 1.314 . S
C191 C189 1.353 . S
C191 H247 0.930 . S
C192 N193 1.314 . S
C192 C197 1.353 . S
C192 H198 0.930 . S
N193 Li176 1.990 . S
N193 C192 1.314 . S
N193 C195 1.279 . S
C194 C195 1.358 . S
C194 C196 1.356 . S
C194 H248 0.930 . S
C195 N193 1.279 . S
C195 C194 1.358 . S
C195 H199 0.930 . S
C196 C194 1.356 . S
C196 C197 1.348 . S
C197 C192 1.353 . S
C197 C196 1.348 . S
C197 H249 0.929 . S
H198 C192 0.930 . S
H199 C195 0.930 . S
C200 N201 1.314 . S
C200 C202 1.353 . S
C200 H206 0.930 . S
N201 Li177 1.990 . S
N201 C200 1.314 . S
N201 C204 1.279 . S
C202 C200 1.353 . S
C202 C205 1.348 . S
C202 H250 0.929 . S
C203 C204 1.358 . S
C203 C205 1.356 . S
C203 H251 0.930 . S
C204 N201 1.279 . S
C204 C203 1.358 . S
C204 H207 0.930 . S
C205 C202 1.348 . S
C205 C203 1.356 . S
H206 C200 0.930 . S
H207 C204 0.930 . S
C208 C210 1.348 . S
C208 C211 1.356 . S
C208 O238 1.325 . S
N209 C212 1.314 . S
N209 C213 1.279 . S
C210 C208 1.348 . S
C210 C212 1.353 . S
C210 H252 0.929 . S
C211 C208 1.356 . S
C211 C213 1.358 . S
C211 H253 0.930 . S
C212 N209 1.314 . S
C212 C210 1.353 . S
C212 H254 0.930 . S
C213 N209 1.279 . S
C213 C211 1.358 . S
C213 H255 0.930 . S
C214 C215 1.348 1_655 S
C214 C216 1.356 . S
C214 O239 1.325 . S
C215 C214 1.348 1_455 S
C215 C217 1.353 1_455 S
C215 H256 0.929 . S
C216 C214 1.356 . S
C216 C218 1.358 . S
C216 H257 0.930 . S
C217 C215 1.353 1_655 S
C217 N219 1.314 . S
C217 H258 0.930 1_655 S
C218 C216 1.358 . S
C218 N219 1.279 . S
C218 H259 0.930 . S
N219 C217 1.314 . S
N219 C218 1.279 . S
C220 C222 1.353 . S
C220 N223 1.314 . S
C220 H226 0.930 . S
C221 N223 1.279 . S
C221 C224 1.358 . S
C221 H227 0.930 . S
C222 C220 1.353 . S
C222 C225 1.348 . S
C222 H260 0.929 . S
N223 Li178 1.990 . S
N223 C220 1.314 . S
N223 C221 1.279 . S
C224 C221 1.358 . S
C224 C225 1.356 . S
C224 H261 0.930 . S
C225 C222 1.348 . S
C225 C224 1.356 . S
H226 C220 0.930 . S
H227 C221 0.930 . S
C228 N229 1.314 . S
C228 C230 1.353 . S
C228 H234 0.930 . S
N229 Li179 1.990 . S
N229 C228 1.314 . S
N229 C232 1.279 . S
C230 C228 1.353 . S
C230 C233 1.348 . S
C230 H262 0.929 . S
C231 C232 1.358 . S
C231 C233 1.356 . S
C231 H263 0.930 . S
C232 N229 1.279 . S
C232 C231 1.358 . S
C232 H235 0.930 . S
C233 C230 1.348 . S
C233 C231 1.356 . S
H234 C228 0.930 . S
H235 C232 0.930 . S
O236 Li176 1.956 . S
O236 Li177 1.970 1_455 S
O236 Li178 1.961 . S
O236 C180 1.325 . S
O237 Li176 1.970 1_655 S
O237 Li177 1.956 . S
O237 Li179 1.961 . S
O237 C186 1.325 . S
O238 Li176 1.961 . S
O238 Li178 1.956 . S
O238 Li179 1.970 1_455 S
O238 C208 1.325 . S
O239 Li177 1.961 . S
O239 Li178 1.970 1_655 S
O239 Li179 1.956 . S
O239 C214 1.325 . S
H240 C182 0.929 . S
H241 C183 0.930 . S
H242 C184 0.930 1_655 S
H243 C185 0.930 . S
H244 C187 0.930 . S
H245 C189 0.929 . S
H246 C190 0.930 . S
H247 C191 0.930 . S
H248 C194 0.930 . S
H249 C197 0.929 . S
H250 C202 0.929 . S
H251 C203 0.930 . S
H252 C210 0.929 . S
H253 C211 0.930 . S
H254 C212 0.930 . S
H255 C213 0.930 . S
H256 C215 0.929 . S
H257 C216 0.930 . S
H258 C217 0.930 1_455 S
H259 C218 0.930 . S
H260 C222 0.929 . S
H261 C224 0.930 . S
H262 C230 0.929 . S
H263 C231 0.930 . S
Li264 N281 1.990 . S
Li264 O324 1.956 . S
Li264 O325 1.970 1_545 S
Li264 O326 1.961 . S
Li265 N289 1.990 . S
Li265 O324 1.970 1_565 S
Li265 O325 1.956 . S
Li265 O327 1.961 . S
Li266 N311 1.990 . S
Li266 O324 1.961 . S
Li266 O326 1.956 . S
Li266 O327 1.970 1_545 S
Li267 N317 1.990 . S
Li267 O325 1.961 . S
Li267 O326 1.970 1_565 S
Li267 O327 1.956 . S
C268 C270 1.348 1_545 S
C268 C271 1.356 . S
C268 O324 1.325 . S
N269 C272 1.314 . S
N269 C273 1.279 . S
C270 C268 1.348 1_565 S
C270 C272 1.353 1_565 S
C270 H328 0.929 . S
C271 C268 1.356 . S
C271 C273 1.358 . S
C271 H329 0.930 . S
C272 N269 1.314 . S
C272 C270 1.353 1_545 S
C272 H330 0.930 1_545 S
C273 N269 1.279 . S
C273 C271 1.358 . S
C273 H331 0.930 . S
C274 C277 1.348 . S
C274 C278 1.356 . S
C274 O325 1.325 . S
C275 N276 1.279 . S
C275 C278 1.358 . S
C275 H332 0.930 . S
N276 C275 1.279 . S
N276 C279 1.314 . S
C277 C274 1.348 . S
C277 C279 1.353 . S
C277 H333 0.929 . S
C278 C274 1.356 . S
C278 C275 1.358 . S
C278 H334 0.930 . S
C279 N276 1.314 . S
C279 C277 1.353 . S
C279 H335 0.930 . S
C280 N281 1.314 . S
C280 C285 1.353 . S
C280 H286 0.930 . S
N281 Li264 1.990 . S
N281 C280 1.314 . S
N281 C283 1.279 . S
C282 C283 1.358 . S
C282 C284 1.356 . S
C282 H336 0.930 . S
C283 N281 1.279 . S
C283 C282 1.358 . S
C283 H287 0.930 . S
C284 C282 1.356 . S
C284 C285 1.348 . S
C285 C280 1.353 . S
C285 C284 1.348 . S
C285 H337 0.929 . S
H286 C280 0.930 . S
H287 C283 0.930 . S
C288 N289 1.314 . S
C288 C290 1.353 . S
C288 H294 0.930 . S
N289 Li265 1.990 . S
N289 C288 1.314 . S
N289 C292 1.279 . S
C290 C288 1.353 . S
C290 C293 1.348 . S
C290 H338 0.929 . S
C291 C292 1.358 . S
C291 C293 1.356 . S
C291 H339 0.930 . S
C292 N289 1.279 . S
C292 C291 1.358 . S
C292 H295 0.930 . S
C293 C290 1.348 . S
C293 C291 1.356 . S
H294 C288 0.930 . S
H295 C292 0.930 . S
C296 C298 1.348 . S
C296 C299 1.356 . S
C296 O326 1.325 . S
N297 C300 1.314 . S
N297 C301 1.279 . S
C298 C296 1.348 . S
C298 C300 1.353 . S
C298 H340 0.929 . S
C299 C296 1.356 . S
C299 C301 1.358 . S
C299 H341 0.930 . S
C300 N297 1.314 . S
C300 C298 1.353 . S
C300 H342 0.930 . S
C301 N297 1.279 . S
C301 C299 1.358 . S
C301 H343 0.930 . S
C302 C303 1.348 1_565 S
C302 C304 1.356 . S
C302 O327 1.325 . S
C303 C302 1.348 1_545 S
C303 C305 1.353 1_545 S
C303 H344 0.929 . S
C304 C302 1.356 . S
C304 C306 1.358 . S
C304 H345 0.930 . S
C305 C303 1.353 1_565 S
C305 N307 1.314 . S
C305 H346 0.930 1_565 S
C306 C304 1.358 . S
C306 N307 1.279 . S
C306 H347 0.930 . S
N307 C305 1.314 . S
N307 C306 1.279 . S
C308 C310 1.353 . S
C308 N311 1.314 . S
C308 H314 0.930 . S
C309 N311 1.279 . S
C309 C312 1.358 . S
C309 H315 0.930 . S
C310 C308 1.353 . S
C310 C313 1.348 . S
C310 H348 0.929 . S
N311 Li266 1.990 . S
N311 C308 1.314 . S
N311 C309 1.279 . S
C312 C309 1.358 . S
C312 C313 1.356 . S
C312 H349 0.930 . S
C313 C310 1.348 . S
C313 C312 1.356 . S
H314 C308 0.930 . S
H315 C309 0.930 . S
C316 N317 1.314 . S
C316 C318 1.353 . S
C316 H322 0.930 . S
N317 Li267 1.990 . S
N317 C316 1.314 . S
N317 C320 1.279 . S
C318 C316 1.353 . S
C318 C321 1.348 . S
C318 H350 0.929 . S
C319 C320 1.358 . S
C319 C321 1.356 . S
C319 H351 0.930 . S
C320 N317 1.279 . S
C320 C319 1.358 . S
C320 H323 0.930 . S
C321 C318 1.348 . S
C321 C319 1.356 . S
H322 C316 0.930 . S
H323 C320 0.930 . S
O324 Li264 1.956 . S
O324 Li265 1.970 1_545 S
O324 Li266 1.961 . S
O324 C268 1.325 . S
O325 Li264 1.970 1_565 S
O325 Li265 1.956 . S
O325 Li267 1.961 . S
O325 C274 1.325 . S
O326 Li264 1.961 . S
O326 Li266 1.956 . S
O326 Li267 1.970 1_545 S
O326 C296 1.325 . S
O327 Li265 1.961 . S
O327 Li266 1.970 1_565 S
O327 Li267 1.956 . S
O327 C302 1.325 . S
H328 C270 0.929 . S
H329 C271 0.930 . S
H330 C272 0.930 1_565 S
H331 C273 0.930 . S
H332 C275 0.930 . S
H333 C277 0.929 . S
H334 C278 0.930 . S
H335 C279 0.930 . S
H336 C282 0.930 . S
H337 C285 0.929 . S
H338 C290 0.929 . S
H339 C291 0.930 . S
H340 C298 0.929 . S
H341 C299 0.930 . S
H342 C300 0.930 . S
H343 C301 0.930 . S
H344 C303 0.929 . S
H345 C304 0.930 . S
H346 C305 0.930 1_545 S
H347 C306 0.930 . S
H348 C310 0.929 . S
H349 C312 0.930 . S
H350 C318 0.929 . S
H351 C319 0.930 . S
C352 C353 1.386 . S
C352 C354 1.383 . S
C352 H368 0.951 1_655 S
C353 C352 1.386 . S
C353 C357 1.383 . S
C354 C352 1.383 . S
C354 C355 1.402 . S
C354 H369 0.951 1_655 S
C355 C354 1.402 . S
C355 C356 1.375 . S
C355 C358 1.481 . S
C356 C355 1.375 . S
C356 C357 1.367 . S
C356 H370 0.951 . S
C357 C353 1.383 . S
C357 C356 1.367 . S
C357 H371 0.950 . S
C358 C355 1.481 . S
C358 C359 1.297 . S
C358 H372 0.950 . S
C359 C358 1.297 . S
C359 C360 1.479 . S
C359 H373 0.950 . S
C360 C359 1.479 . S
C360 C361 1.375 . S
C360 C366 1.404 . S
C361 C360 1.375 . S
C361 C362 1.369 . S
C361 H374 0.950 1_655 S
C362 C361 1.369 . S
C362 C363 1.392 . S
C362 H375 0.951 1_655 S
C363 C362 1.392 . S
C363 C365 1.384 . S
H364 C366 0.949 . S
C365 C363 1.384 . S
C365 C366 1.385 . S
C365 H367 0.950 . S
C366 C360 1.404 . S
C366 H364 0.949 . S
C366 C365 1.385 . S
H367 C365 0.950 . S
H368 C352 0.951 1_455 S
H369 C354 0.951 1_455 S
H370 C356 0.951 . S
H371 C357 0.950 . S
H372 C358 0.950 . S
H373 C359 0.950 . S
H374 C361 0.950 1_455 S
H375 C362 0.951 1_455 S
C376 C377 1.386 . S
C376 C378 1.383 . S
C376 H392 0.951 . S
C377 C376 1.386 . S
C377 C381 1.383 . S
C378 C376 1.383 . S
C378 C379 1.402 . S
C378 H393 0.951 . S
C379 C378 1.402 . S
C379 C380 1.381 . S
C379 C382 1.481 . S
C380 C379 1.381 . S
C380 C381 1.368 . S
C380 H394 0.945 1_565 S
C381 C377 1.383 . S
C381 C380 1.368 . S
C381 H395 0.950 1_565 S
C382 C379 1.481 . S
C382 C383 1.297 . S
C382 H396 0.957 . S
C383 C382 1.297 . S
C383 C384 1.479 . S
C383 H397 0.950 . S
C384 C383 1.479 . S
C384 C385 1.375 . S
C384 C390 1.404 . S
C385 C384 1.375 . S
C385 C386 1.369 . S
C385 H398 0.950 . S
C386 C385 1.369 . S
C386 C387 1.392 . S
C386 H399 0.951 . S
C387 C386 1.392 . S
C387 C389 1.384 . S
H388 C390 0.949 1_545 S
C389 C387 1.384 . S
C389 C390 1.385 . S
C389 H391 0.950 1_565 S
C390 C384 1.404 . S
C390 H388 0.949 1_565 S
C390 C389 1.385 . S
H391 C389 0.950 1_545 S
H392 C376 0.951 . S
H393 C378 0.951 . S
H394 C380 0.945 1_545 S
H395 C381 0.950 1_545 S
H396 C382 0.957 . S
H397 C383 0.950 . S
H398 C385 0.950 . S
H399 C386 0.951 . S
C400 C401 1.386 . S
C400 C402 1.383 . S
C400 H416 0.951 . S
C401 C400 1.386 . S
C401 C405 1.383 . S
C402 C400 1.383 . S
C402 C403 1.402 . S
C402 H417 0.951 . S
C403 C402 1.402 . S
C403 C404 1.375 . S
C403 C406 1.481 . S
C404 C403 1.375 . S
C404 C405 1.367 . S
C404 H418 0.951 1_455 S
C405 C401 1.383 . S
C405 C404 1.367 . S
C405 H419 0.950 1_455 S
C406 C403 1.481 . S
C406 C407 1.297 . S
C406 H420 0.950 . S
C407 C406 1.297 . S
C407 C408 1.479 . S
C407 H421 0.950 . S
C408 C407 1.479 . S
C408 C409 1.375 . S
C408 C414 1.404 . S
C409 C408 1.375 . S
C409 C410 1.369 . S
C409 H422 0.950 . S
C410 C409 1.369 . S
C410 C411 1.392 . S
C410 H423 0.951 . S
C411 C410 1.392 . S
C411 C413 1.384 . S
H412 C414 0.949 . S
C413 C411 1.384 . S
C413 C414 1.385 . S
C413 H415 0.950 . S
C414 C408 1.404 . S
C414 H412 0.949 . S
C414 C413 1.385 . S
H415 C413 0.950 . S
H416 C400 0.951 . S
H417 C402 0.951 . S
H418 C404 0.951 1_655 S
H419 C405 0.950 1_655 S
H420 C406 0.950 . S
H421 C407 0.950 . S
H422 C409 0.950 . S
H423 C410 0.951 . S
C424 C425 1.386 . S
C424 C426 1.383 . S
C424 H440 0.951 . S
C425 C424 1.386 . S
C425 C429 1.383 . S
C426 C424 1.383 . S
C426 C427 1.402 . S
C426 H441 0.951 . S
C427 C426 1.402 . S
C427 C428 1.375 . S
C427 C430 1.481 . S
C428 C427 1.375 . S
C428 C429 1.367 . S
C428 H442 0.951 . S
C429 C425 1.383 . S
C429 C428 1.367 . S
C429 H443 0.950 . S
C430 C427 1.481 . S
C430 C431 1.297 1_554 S
C430 H444 0.950 . S
C431 C430 1.297 1_556 S
C431 C432 1.479 . S
C431 H445 0.950 . S
C432 C431 1.479 . S
C432 C433 1.375 . S
C432 C438 1.404 . S
C433 C432 1.375 . S
C433 C434 1.369 . S
C433 H446 0.950 . S
C434 C433 1.369 . S
C434 C435 1.392 . S
C434 H447 0.951 . S
C435 C434 1.392 . S
C435 C437 1.384 . S
H436 C438 0.949 . S
C437 C435 1.384 . S
C437 C438 1.385 . S
C437 H439 0.950 . S
C438 C432 1.404 . S
C438 H436 0.949 . S
C438 C437 1.385 . S
H439 C437 0.950 . S
H440 C424 0.951 . S
H441 C426 0.951 . S
H442 C428 0.951 . S
H443 C429 0.950 . S
H444 C430 0.950 . S
H445 C431 0.950 . S
H446 C433 0.950 . S
H447 C434 0.951 . S
C448 C449 1.386 . S
C448 C450 1.383 . S
C448 H464 0.951 . S
C449 C448 1.386 . S
C449 C453 1.383 . S
C450 C448 1.383 . S
C450 C451 1.402 . S
C450 H465 0.951 . S
C451 C450 1.402 . S
C451 C452 1.375 . S
C451 C454 1.481 . S
C452 C451 1.375 . S
C452 C453 1.367 . S
C452 H466 0.951 . S
C453 C449 1.383 . S
C453 C452 1.367 . S
C453 H467 0.950 . S
C454 C451 1.481 . S
C454 C455 1.297 . S
C454 H468 0.950 . S
C455 C454 1.297 . S
C455 C456 1.479 . S
C455 H469 0.950 . S
C456 C455 1.479 . S
C456 C457 1.375 . S
C456 C462 1.404 . S
C457 C456 1.375 . S
C457 C458 1.369 . S
C457 H470 0.950 . S
C458 C457 1.369 . S
C458 C459 1.392 . S
C458 H471 0.951 . S
C459 C458 1.392 . S
C459 C461 1.384 . S
H460 C462 0.949 . S
C461 C459 1.384 . S
C461 C462 1.385 . S
C461 H463 0.950 . S
C462 C456 1.404 . S
C462 H460 0.949 . S
C462 C461 1.385 . S
H463 C461 0.950 . S
H464 C448 0.951 . S
H465 C450 0.951 . S
H466 C452 0.951 . S
H467 C453 0.950 . S
H468 C454 0.950 . S
H469 C455 0.950 . S
H470 C457 0.950 . S
H471 C458 0.951 . S
C472 C473 1.386 . S
C472 C474 1.383 . S
C472 H488 0.951 . S
C473 C472 1.386 . S
C473 C477 1.383 . S
C474 C472 1.383 . S
C474 C475 1.402 . S
C474 H489 0.951 . S
C475 C474 1.402 . S
C475 C476 1.375 . S
C475 C478 1.481 . S
C476 C475 1.375 . S
C476 C477 1.367 . S
C476 H490 0.951 . S
C477 C473 1.383 . S
C477 C476 1.367 . S
C477 H491 0.950 . S
C478 C475 1.481 . S
C478 C479 1.297 . S
C478 H492 0.950 . S
C479 C478 1.297 . S
C479 C480 1.479 . S
C479 H493 0.950 . S
C480 C479 1.479 . S
C480 C481 1.375 . S
C480 C486 1.404 . S
C481 C480 1.375 . S
C481 C482 1.369 . S
C481 H494 0.950 . S
C482 C481 1.369 . S
C482 C483 1.392 . S
C482 H495 0.951 . S
C483 C482 1.392 . S
C483 C485 1.384 . S
H484 C486 0.949 . S
C485 C483 1.384 . S
C485 C486 1.385 . S
C485 H487 0.950 . S
C486 C480 1.404 . S
C486 H484 0.949 . S
C486 C485 1.385 . S
H487 C485 0.950 . S
H488 C472 0.951 . S
H489 C474 0.951 . S
H490 C476 0.951 . S
H491 C477 0.950 . S
H492 C478 0.950 . S
H493 C479 0.950 . S
H494 C481 0.950 . S
H495 C482 0.951 . S
C496 C497 1.386 . S
C496 C498 1.383 . S
C496 H512 0.951 . S
C497 C496 1.386 . S
C497 C501 1.383 . S
C498 C496 1.383 . S
C498 C499 1.402 . S
C498 H513 0.951 . S
C499 C498 1.402 . S
C499 C500 1.375 . S
C499 C502 1.481 . S
C500 C499 1.375 . S
C500 C501 1.367 . S
C500 H514 0.951 . S
C501 C497 1.383 . S
C501 C500 1.367 . S
C501 H515 0.950 . S
C502 C499 1.481 . S
C502 C503 1.297 . S
C502 H516 0.950 . S
C503 C502 1.297 . S
C503 C504 1.479 . S
C503 H517 0.950 . S
C504 C503 1.479 . S
C504 C505 1.375 . S
C504 C510 1.404 . S
C505 C504 1.375 . S
C505 C506 1.369 . S
C505 H518 0.950 . S
C506 C505 1.369 . S
C506 C507 1.392 . S
C506 H519 0.951 . S
C507 C506 1.392 . S
C507 C509 1.384 . S
H508 C510 0.949 . S
C509 C507 1.384 . S
C509 C510 1.385 . S
C509 H511 0.950 . S
C510 C504 1.404 . S
C510 H508 0.949 . S
C510 C509 1.385 . S
H511 C509 0.950 . S
H512 C496 0.951 . S
H513 C498 0.951 . S
H514 C500 0.951 . S
H515 C501 0.950 . S
H516 C502 0.950 . S
H517 C503 0.950 . S
H518 C505 0.950 . S
H519 C506 0.951 . S
C520 C521 1.386 . S
C520 C522 1.383 . S
C520 H536 0.951 . S
C521 C520 1.386 . S
C521 C525 1.383 . S
C522 C520 1.383 . S
C522 C523 1.402 . S
C522 H537 0.951 . S
C523 C522 1.402 . S
C523 C524 1.375 . S
C523 C526 1.481 . S
C524 C523 1.375 . S
C524 C525 1.367 . S
C524 H538 0.951 . S
C525 C521 1.383 . S
C525 C524 1.367 . S
C525 H539 0.950 . S
C526 C523 1.481 . S
C526 C527 1.297 . S
C526 H540 0.950 . S
C527 C526 1.297 . S
C527 C528 1.479 . S
C527 H541 0.950 . S
C528 C527 1.479 . S
C528 C529 1.375 . S
C528 C534 1.404 . S
C529 C528 1.375 . S
C529 C530 1.369 . S
C529 H542 0.950 . S
C530 C529 1.369 . S
C530 C531 1.392 . S
C530 H543 0.951 . S
C531 C530 1.392 . S
C531 C533 1.384 . S
H532 C534 0.949 . S
C533 C531 1.384 . S
C533 C534 1.385 . S
C533 H535 0.950 . S
C534 C528 1.404 . S
C534 H532 0.949 . S
C534 C533 1.385 . S
H535 C533 0.950 . S
H536 C520 0.951 . S
H537 C522 0.951 . S
H538 C524 0.951 . S
H539 C525 0.950 . S
H540 C526 0.950 . S
H541 C527 0.950 . S
H542 C529 0.950 . S
H543 C530 0.951 . S
C353 C29 0.800 . S
C363 C233 0.748 . S
C377 C108 0.757 . S
C387 C321 0.807 . S
C401 C49 0.762 . S
C411 C196 0.817 . S
C425 C145 0.794 . S
C435 C284 0.784 . S
C449 C137 1.616 . S
C459 C20 1.631 . S
C473 C117 1.593 . S
C483 C225 1.603 . S
C497 C313 1.622 . S
C507 C205 1.581 . S
C521 C293 1.611 . S
C531 C57 1.641 . S
