# Generated by pormake.
# Topology qtz-x, (6)-cn, num edge types: 1
# Building blocks:
#     Node 0, Type 0, BuildingBlock: LEVNOQ01_clean_sbu_1, # of connection points: 6
#     Node 1, Type 0, BuildingBlock: LEVNOQ01_clean_sbu_1, # of connection points: 6
#     Node 2, Type 0, BuildingBlock: LEVNOQ01_clean_sbu_1, # of connection points: 6
#     Edge 3, Type (0, 0), BuildingBlock: XUDNAN_clean_linker_2, # of connection points: 2
#     Edge 4, Type (0, 0), BuildingBlock: XUDNAN_clean_linker_2, # of connection points: 2
#     Edge 5, Type (0, 0), BuildingBlock: XUDNAN_clean_linker_2, # of connection points: 2
#     Edge 6, Type (0, 0), BuildingBlock: XUDNAN_clean_linker_2, # of connection points: 2
#     Edge 7, Type (0, 0), BuildingBlock: XUDNAN_clean_linker_2, # of connection points: 2
#     Edge 8, Type (0, 0), BuildingBlock: XUDNAN_clean_linker_2, # of connection points: 2
#     Edge 9, Type (0, 0), BuildingBlock: XUDNAN_clean_linker_2, # of connection points: 2
#     Edge 10, Type (0, 0), BuildingBlock: XUDNAN_clean_linker_2, # of connection points: 2
#     Edge 11, Type (0, 0), BuildingBlock: XUDNAN_clean_linker_2, # of connection points: 2
# Relax obj value: 0.267
# Max RMSD: 0.266
# Mean RMSD: 0.263
data_MOF--net-qtz-x--node1-LEVNOQ01_clean_sbu_1--edge1-XUDNAN_clean_linker_2
_symmetry_space_group_name_H-M    P1
_symmetry_Int_Tables_number       1
_symmetry_cell_setting            triclinic
loop_
_symmetry_equiv_pos_as_xyz
'x, y, z'
_cell_length_a     15.778481
_cell_length_b     15.827765
_cell_length_c     38.960686
_cell_angle_alpha  94.757235
_cell_angle_beta   94.694915
_cell_angle_gamma 120.18791
loop_
_atom_site_label
_atom_site_type_symbol
_atom_site_fract_x
_atom_site_fract_y
_atom_site_fract_z
_atom_type_partial_charge
O0 O 0.69218 0.25578 0.10949 0.0
Mg1 Mg 0.80259 0.21562 0.10568 0.0
O2 O 0.82208 0.40214 0.12293 0.0
Mg3 Mg 0.96016 0.42582 0.15564 0.0
O4 O 0.92668 0.27035 0.14208 0.0
O5 O 0.8054 0.11969 0.1401 0.0
O6 O 0.11003 0.46328 0.18701 0.0
O7 O 0.87244 0.3466 0.20397 0.0
Mg8 Mg 0.94771 0.50296 0.19425 0.0
O9 O 0.00618 0.60461 0.16281 0.0
O10 O 0.04596 0.48944 0.23111 0.0
O11 O 0.79407 0.42411 0.19945 0.0
O12 O -0.02344 0.6353 0.21605 0.0
C13 C -0.02096 0.39198 0.07364 0.0
C14 C 0.73362 0.34726 0.10801 0.0
C15 C 0.89234 0.1884 0.15425 0.0
C16 C 0.11393 0.4803 0.21975 0.0
C17 C 0.80562 0.36133 0.21367 0.0
C18 C 0.00517 0.66535 0.18729 0.0
O19 O 0.90188 0.30617 0.07216 0.0
O20 O 0.02129 0.45252 0.1023 0.0
O21 O 0.62169 0.21352 0.45816 0.0
Mg22 Mg 0.51073 0.06159 0.44728 0.0
O23 O 0.67506 0.11291 0.45115 0.0
Mg24 Mg 0.56822 0.01063 0.49105 0.0
O25 O 0.40707 -0.00228 0.47801 0.0
O26 O 0.38525 0.05637 0.4294 0.0
O27 O 0.48685 0.91501 0.53434 0.0
O28 O 0.61528 0.15377 0.53056 0.0
Mg29 Mg 0.73248 0.06972 0.55403 0.0
O30 O 0.70699 0.00119 0.50517 0.0
O31 O 0.61089 -0.02211 0.5782 0.0
O32 O 0.76794 0.21648 0.55676 0.0
O33 O 0.83471 0.03141 0.54396 0.0
C34 C 0.51514 0.88321 0.4193 0.0
C35 C 0.68398 0.19551 0.44658 0.0
C36 C 0.351 0.01225 0.45568 0.0
C37 C 0.5197 0.92131 0.56626 0.0
C38 C 0.69197 0.22324 0.55029 0.0
C39 C 0.78529 -0.00421 0.51309 0.0
O40 O 0.52449 0.96221 0.41025 0.0
O41 O 0.51528 0.87194 0.45125 0.0
O42 O 0.3761 0.66456 0.87053 0.0
Mg43 Mg 0.50009 0.64921 0.87185 0.0
O44 O 0.32085 0.50928 0.85219 0.0
Mg45 Mg 0.42856 0.50369 0.81401 0.0
O46 O 0.56968 0.66161 0.82918 0.0
O47 O 0.6298 0.77899 0.87576 0.0
O48 O 0.52579 0.486 0.77415 0.0
O49 O 0.37789 0.5861 0.77514 0.0
Mg50 Mg 0.30501 0.41328 0.76089 0.0
O51 O 0.29676 0.33447 0.80043 0.0
O52 O 0.4193 0.46506 0.72972 0.0
O53 O 0.22044 0.48145 0.75898 0.0
O54 O 0.22106 0.26749 0.74542 0.0
C55 C 0.50594 0.46954 0.8888 0.0
C56 C 0.30824 0.57543 0.86777 0.0
C57 C 0.63841 0.74799 0.84528 0.0
C58 C 0.50405 0.48212 0.74157 0.0
C59 C 0.29421 0.56681 0.75956 0.0
C60 C 0.23646 0.25771 0.77744 0.0
O61 O 0.50412 0.54478 0.90169 0.0
O62 O 0.4909 0.44375 0.85586 0.0
H63 H 0.93744 0.76713 0.22249 0.0
H64 H 0.11479 0.78774 0.14071 0.0
H65 H 0.13766 0.95248 0.13344 0.0
H66 H 0.80266 0.84911 0.18077 0.0
H67 H 0.79234 0.9128 0.21931 0.0
H68 H 0.81005 0.81025 0.22257 0.0
H69 H 0.96586 0.92135 0.26846 0.0
H70 H 0.94909 0.02501 0.26474 0.0
H71 H 0.06511 0.03481 0.25785 0.0
H72 H 0.12659 0.1078 0.13216 0.0
H73 H 0.05592 0.21531 0.12748 0.0
H74 H 0.87356 0.08023 0.20663 0.0
C75 C -0.01634 0.80712 0.20363 0.0
C76 C 0.02592 0.76547 0.18254 0.0
C77 C 0.0826 0.81884 0.15734 0.0
C78 C 0.09665 0.9127 0.15336 0.0
C79 C 0.05296 0.95111 0.17465 0.0
C80 C -0.00354 0.89874 0.19898 0.0
C81 C 0.94381 0.94656 0.21489 0.0
C82 C 0.8306 0.87549 0.20898 0.0
C83 C -0.01664 -0.01584 0.25379 0.0
C84 C -0.02553 0.03155 0.19432 0.0
C85 C 0.04125 0.03607 0.17244 0.0
C86 C 0.07534 0.10534 0.14946 0.0
C87 C 0.03551 0.16687 0.14723 0.0
C88 C 0.96019 0.15622 0.16706 0.0
C89 C 0.93264 0.09092 0.19187 0.0
H90 H 0.24158 0.09018 0.43294 0.0
H91 H 0.22524 0.85354 0.48608 0.0
H92 H 0.04852 0.79281 0.49022 0.0
H93 H 0.11648 0.15132 0.48618 0.0
H94 H 0.0546 0.18294 0.45314 0.0
H95 H 0.16964 0.19095 0.44711 0.0
H96 H 0.08476 0.07449 0.38839 0.0
H97 H -0.03161 0.06427 0.39511 0.0
H98 H -0.02392 0.95459 0.38751 0.0
H99 H 0.88605 0.77408 0.49687 0.0
H100 H 0.76715 0.81866 0.51636 0.0
H101 H 0.88763 0.06916 0.46019 0.0
C102 C 0.19997 0.02417 0.44473 0.0
C103 C 0.24634 0.976 0.45905 0.0
C104 C 0.19082 0.89155 0.4751 0.0
C105 C 0.09012 0.85567 0.47697 0.0
C106 C 0.04646 0.90525 0.46271 0.0
C107 C 0.10018 -0.0114 0.44727 0.0
C108 C 0.04222 0.03914 0.43973 0.0
C109 C 0.09906 0.14736 0.45764 0.0
C110 C 0.01633 0.03268 0.40034 0.0
C111 C 0.95035 0.97569 0.45581 0.0
C112 C 0.95209 0.89591 0.46733 0.0
C113 C 0.88245 0.83453 0.48721 0.0
C114 C 0.81459 0.85981 0.49794 0.0
C115 C 0.81773 0.94586 0.48898 0.0
C116 C 0.88189 0.00086 0.466 0.0
H117 H 0.79668 0.92786 0.874 0.0
H118 H 0.69198 0.70006 0.78453 0.0
H119 H 0.85237 0.79542 0.76289 0.0
H120 H 0.91771 0.12966 0.83017 0.0
H121 H 0.01862 0.20267 0.86503 0.0
H122 H 0.90012 0.11065 0.87465 0.0
H123 H -0.01485 0.02972 0.9071 0.0
H124 H 0.10369 0.12067 0.89662 0.0
H125 H 0.05778 -0.00899 0.88444 0.0
H126 H 0.01696 0.92215 0.7485 0.0
H127 H 0.1622 0.0779 0.73878 0.0
H128 H 0.16128 0.22069 0.83847 0.0
C129 C 0.80748 0.89736 0.84997 0.0
C130 C 0.73181 0.80629 0.831 0.0
C131 C 0.74886 0.76965 0.79952 0.0
C132 C 0.8401 0.82278 0.78723 0.0
C133 C 0.91354 0.91179 0.80689 0.0
C134 C 0.89786 0.94906 0.83747 0.0
C135 C -0.01487 0.05026 0.85221 0.0
C136 C 0.95349 0.12783 0.85568 0.0
C137 C 0.03593 0.04771 0.88717 0.0
C138 C 0.05044 0.06665 0.82418 0.0
C139 C 0.00903 -0.01519 0.79872 0.0
C140 C 0.05075 -0.01405 0.7685 0.0
C141 C 0.13329 0.07461 0.76324 0.0
C142 C 0.17271 0.16065 0.78801 0.0
C143 C 0.13396 0.1552 0.81959 0.0
H144 H 0.34615 0.65179 0.93564 0.0
H145 H 0.11202 0.42968 0.85648 0.0
H146 H -0.00114 0.37211 0.90097 0.0
H147 H 0.29465 0.49332 -0.00158 0.0
H148 H 0.32748 0.58668 0.03508 0.0
H149 H 0.38394 0.62073 -0.00369 0.0
H150 H 0.32471 0.74571 -0.00839 0.0
H151 H 0.26852 0.7127 0.03057 0.0
H152 H 0.19518 0.70422 -0.009 0.0
H153 H 0.9152 0.33697 0.9532 0.0
H154 H 0.86702 0.30723 0.01081 0.0
H155 H 0.16155 0.54128 0.05881 0.0
C156 C 0.2699 0.59335 0.92749 0.0
C157 C 0.23602 0.54745 0.89248 0.0
C158 C 0.13792 0.46739 0.883 0.0
C159 C 0.07356 0.43448 0.90806 0.0
C160 C 0.10972 0.48113 0.94244 0.0
C161 C 0.20595 0.55777 0.95231 0.0
C162 C 0.23002 0.58652 -0.00842 0.0
C163 C 0.31394 0.57083 0.00621 0.0
C164 C 0.25612 0.69365 0.0018 0.0
C165 C 0.13188 0.51353 0.00242 0.0
C166 C 0.06355 0.45512 0.97341 0.0
C167 C -0.03187 0.38154 0.97607 0.0
C168 C 0.94199 0.36499 0.00917 0.0
C169 C 0.01121 0.42046 0.03961 0.0
C170 C 0.10716 0.49744 0.03616 0.0
H171 H 0.74694 0.12929 0.39188 0.0
H172 H 0.72953 0.38006 0.4363 0.0
H173 H 0.75847 0.44664 0.38087 0.0
H174 H 0.94272 0.2748 0.33418 0.0
H175 H 0.88706 0.17035 0.30013 0.0
H176 H 0.8819 0.15101 0.34504 0.0
H177 H 0.69126 0.04053 0.33059 0.0
H178 H 0.69517 0.06289 0.28605 0.0
H179 H 0.62057 0.09071 0.31208 0.0
H180 H 0.75024 0.46629 0.31933 0.0
H181 H 0.7567 0.46832 0.25678 0.0
H182 H 0.79626 0.21507 0.25073 0.0
C183 C 0.75418 0.20063 0.39046 0.0
C184 C 0.7355 0.24939 0.41845 0.0
C185 C 0.74345 0.34148 0.41527 0.0
C186 C 0.75918 0.37959 0.38379 0.0
C187 C 0.76931 0.32604 0.35593 0.0
C188 C 0.77152 0.24087 0.35914 0.0
C189 C 0.78033 0.19674 0.3243 0.0
C190 C 0.87889 0.19839 0.32602 0.0
C191 C 0.69153 0.0915 0.31258 0.0
C192 C 0.77854 0.2685 0.30101 0.0
C193 C 0.77066 0.34135 0.31995 0.0
C194 C 0.7593 0.41148 0.30429 0.0
C195 C 0.76144 0.41086 0.26851 0.0
C196 C 0.77722 0.342 0.24872 0.0
C197 C 0.78412 0.26862 0.26516 0.0
H198 H 0.44142 0.75014 0.7504 0.0
H199 H 0.14299 0.51737 0.70712 0.0
H200 H 0.15854 0.59301 0.6534 0.0
H201 H 0.43334 0.95309 0.70597 0.0
H202 H 0.56161 0.00624 0.7003 0.0
H203 H 0.5184 0.94614 0.73783 0.0
H204 H 0.58794 0.83218 0.72173 0.0
H205 H 0.62932 0.89074 0.68401 0.0
H206 H 0.54709 0.75889 0.67927 0.0
H207 H 0.22171 0.67625 0.59937 0.0
H208 H 0.32049 0.76997 0.55467 0.0
H209 H 0.57128 0.94796 0.63582 0.0
C210 C 0.37767 0.71747 0.73031 0.0
C211 C 0.29129 0.62772 0.73304 0.0
C212 C 0.21002 0.58651 0.70581 0.0
C213 C 0.21821 0.62876 0.67502 0.0
C214 C 0.30714 0.71369 0.67218 0.0
C215 C 0.38428 0.75925 0.69965 0.0
C216 C 0.47506 0.84472 0.68934 0.0
C217 C 0.49843 0.94336 0.70957 0.0
C218 C 0.56502 0.83066 0.69385 0.0
C219 C 0.43912 0.83644 0.65145 0.0
C220 C 0.34198 0.76164 0.64174 0.0
C221 C 0.29726 0.73661 0.60696 0.0
C222 C 0.35383 0.78976 0.5817 0.0
C223 C 0.45397 0.86607 0.59153 0.0
C224 C 0.49524 0.88996 0.62703 0.0
H225 H 0.41341 0.3405 0.93469 0.0
H226 H 0.6957 0.51979 0.89907 0.0
H227 H 0.78219 0.50849 0.95254 0.0
H228 H 0.47946 0.43389 0.02032 0.0
H229 H 0.41427 0.32079 0.03861 0.0
H230 H 0.3703 0.3286 -0.00445 0.0
H231 H 0.37935 0.17789 0.96973 0.0
H232 H 0.41965 0.16686 0.01291 0.0
H233 H 0.49292 0.17715 0.9786 0.0
H234 H 0.83688 0.51372 0.01361 0.0
H235 H 0.86415 0.48811 0.07324 0.0
H236 H 0.54871 0.27917 0.06861 0.0
C237 C 0.49294 0.37236 0.93744 0.0
C238 C 0.54837 0.42926 0.91263 0.0
C239 C 0.65242 0.47371 0.91742 0.0
C240 C 0.70205 0.46884 0.9479 0.0
C241 C 0.64598 0.41687 0.97277 0.0
C242 C 0.54369 0.36506 0.96732 0.0
C243 C 0.50268 0.31569 -0.00113 0.0
C244 C 0.43787 0.35195 0.01423 0.0
C245 C 0.44526 0.20267 -0.01054 0.0
C246 C 0.59814 0.35183 0.02332 0.0
C247 C 0.67916 0.41203 0.00771 0.0
C248 C 0.77455 0.46358 0.0257 0.0
C249 C 0.78879 0.44886 0.05995 0.0
C250 C 0.70877 0.37937 0.07576 0.0
C251 C 0.61151 0.33164 0.05727 0.0
H252 H 0.11217 0.45062 0.2866 0.0
H253 H 0.30944 0.57548 0.21027 0.0
H254 H 0.45079 0.66773 0.25766 0.0
H255 H 0.19689 0.65795 0.33815 0.0
H256 H 0.18461 0.61104 0.37921 0.0
H257 H 0.10746 0.53058 0.34042 0.0
H258 H 0.16807 0.40925 0.35078 0.0
H259 H 0.24475 0.48846 0.39028 0.0
H260 H 0.29892 0.45335 0.35708 0.0
H261 H 0.55666 0.77865 0.31139 0.0
H262 H 0.61916 0.89383 0.36647 0.0
H263 H 0.35405 0.69888 0.40864 0.0
C264 C 0.18616 0.49325 0.27986 0.0
C265 C 0.20063 0.50522 0.24493 0.0
C266 C 0.29748 0.56351 0.23686 0.0
C267 C 0.37795 0.61661 0.26369 0.0
C268 C 0.35992 0.60902 0.29817 0.0
C269 C 0.2663 0.5473 0.30626 0.0
C270 C 0.26179 0.56459 0.3447 0.0
C271 C 0.18318 0.5928 0.35093 0.0
C272 C 0.24229 0.47351 0.36173 0.0
C273 C 0.36595 0.65041 0.35679 0.0
C274 C 0.42211 0.67349 0.32971 0.0
C275 C 0.51508 0.75907 0.33309 0.0
C276 C 0.55008 0.82406 0.36439 0.0
C277 C 0.49243 0.8029 0.39183 0.0
C278 C 0.40114 0.71361 0.3885 0.0
H279 H 0.60889 0.38677 0.73571 0.0
H280 H 0.53782 0.58503 0.68773 0.0
H281 H 0.59421 0.55282 0.63372 0.0
H282 H 0.83248 0.44438 0.68745 0.0
H283 H 0.80132 0.31747 0.68408 0.0
H284 H 0.77646 0.37249 0.72138 0.0
H285 H 0.59274 0.23053 0.70896 0.0
H286 H 0.61641 0.17708 0.67113 0.0
H287 H 0.52172 0.209 0.66713 0.0
H288 H 0.61816 0.46882 0.58124 0.0
H289 H 0.64207 0.36246 0.53712 0.0
H290 H 0.70921 0.22849 0.61953 0.0
C291 C 0.61089 0.42761 0.71452 0.0
C292 C 0.57014 0.48916 0.71589 0.0
C293 C 0.56983 0.53838 0.68717 0.0
C294 C 0.60118 0.52015 0.65632 0.0
C295 C 0.63445 0.45376 0.65475 0.0
C296 C 0.64296 0.41069 0.68342 0.0
C297 C 0.67367 0.33611 0.67377 0.0
C298 C 0.77713 0.36967 0.69282 0.0
C299 C 0.59651 0.2321 0.68066 0.0
C300 C 0.67593 0.34078 0.63516 0.0
C301 C 0.65304 0.40886 0.62456 0.0
C302 C 0.64006 0.41799 0.58937 0.0
C303 C 0.6532 0.35736 0.56451 0.0
C304 C 0.68065 0.29042 0.57526 0.0
C305 C 0.69191 0.28218 0.61092 0.0
loop_
_geom_bond_atom_site_label_1
_geom_bond_atom_site_label_2
_geom_bond_distance
_geom_bond_site_symmetry_2
_ccdc_geom_bond_type
O0 Mg1 2.002 . S
O0 C14 1.253 . S
Mg1 O0 2.002 . S
Mg1 O4 2.180 1_655 S
Mg1 O5 2.117 . S
Mg1 O19 2.028 1_655 S
O2 Mg3 2.072 1_655 S
O2 C14 1.260 . S
Mg3 O2 2.072 1_455 S
Mg3 O4 2.099 . S
Mg3 O6 2.079 . S
Mg3 O7 2.072 1_455 S
Mg3 O9 2.099 . S
Mg3 O20 2.079 . S
O4 Mg1 2.180 1_455 S
O4 Mg3 2.099 . S
O4 C15 1.279 1_455 S
O5 Mg1 2.117 . S
O5 C15 1.250 . S
O6 Mg3 2.079 . S
O6 C16 1.264 . S
O7 Mg3 2.072 1_655 S
O7 C17 1.260 . S
Mg8 O9 2.180 . S
Mg8 O10 2.030 . S
Mg8 O11 1.990 1_455 S
Mg8 O12 2.117 1_455 S
O9 Mg3 2.099 . S
O9 Mg8 2.180 . S
O9 C18 1.279 1_455 S
O10 Mg8 2.030 . S
O10 C16 1.248 . S
O11 Mg8 1.990 1_655 S
O11 C17 1.253 . S
O12 Mg8 2.117 1_655 S
O12 C18 1.250 . S
C13 O19 1.248 . S
C13 O20 1.264 . S
C14 O0 1.253 . S
C14 O2 1.260 . S
C15 O4 1.279 1_655 S
C15 O5 1.250 . S
C16 O6 1.264 . S
C16 O10 1.248 . S
C17 O7 1.260 . S
C17 O11 1.253 . S
C18 O9 1.279 1_655 S
C18 O12 1.250 . S
O19 Mg1 2.028 1_455 S
O19 C13 1.248 . S
O20 Mg3 2.079 . S
O20 C13 1.264 . S
O21 Mg22 1.995 . S
O21 C35 1.253 . S
Mg22 O21 1.995 . S
Mg22 O25 2.178 1_545 S
Mg22 O26 2.125 . S
Mg22 O40 2.018 1_545 S
O23 Mg24 2.072 1_545 S
O23 C35 1.260 . S
Mg24 O23 2.072 1_565 S
Mg24 O25 2.099 . S
Mg24 O27 2.079 . S
Mg24 O28 2.072 1_565 S
Mg24 O30 2.099 . S
Mg24 O41 2.079 . S
O25 Mg22 2.178 1_565 S
O25 Mg24 2.099 . S
O25 C36 1.279 1_565 S
O26 Mg22 2.125 . S
O26 C36 1.250 . S
O27 Mg24 2.079 . S
O27 C37 1.264 . S
O28 Mg24 2.072 1_545 S
O28 C38 1.260 . S
Mg29 O30 2.180 1_545 S
Mg29 O31 2.030 1_545 S
Mg29 O32 1.990 . S
Mg29 O33 2.117 . S
O30 Mg24 2.099 . S
O30 Mg29 2.180 1_565 S
O30 C39 1.279 1_565 S
O31 Mg29 2.030 1_565 S
O31 C37 1.248 . S
O32 Mg29 1.990 . S
O32 C38 1.253 . S
O33 Mg29 2.117 . S
O33 C39 1.250 . S
C34 O40 1.248 . S
C34 O41 1.264 . S
C35 O21 1.253 . S
C35 O23 1.260 . S
C36 O25 1.279 1_545 S
C36 O26 1.250 . S
C37 O27 1.264 . S
C37 O31 1.248 . S
C38 O28 1.260 . S
C38 O32 1.253 . S
C39 O30 1.279 1_545 S
C39 O33 1.250 . S
O40 Mg22 2.018 1_565 S
O40 C34 1.248 . S
O41 Mg24 2.079 . S
O41 C34 1.264 . S
O42 Mg43 1.990 . S
O42 C56 1.253 . S
Mg43 O42 1.990 . S
Mg43 O46 2.180 . S
Mg43 O47 2.117 . S
Mg43 O61 2.030 . S
O44 Mg45 2.072 . S
O44 C56 1.260 . S
Mg45 O44 2.072 . S
Mg45 O46 2.099 . S
Mg45 O48 2.079 . S
Mg45 O49 2.072 . S
Mg45 O51 2.099 . S
Mg45 O62 2.079 . S
O46 Mg43 2.180 . S
O46 Mg45 2.099 . S
O46 C57 1.279 . S
O47 Mg43 2.117 . S
O47 C57 1.250 . S
O48 Mg45 2.079 . S
O48 C58 1.264 . S
O49 Mg45 2.072 . S
O49 C59 1.260 . S
Mg50 O51 2.180 . S
Mg50 O52 2.030 . S
Mg50 O53 1.990 . S
Mg50 O54 2.117 . S
O51 Mg45 2.099 . S
O51 Mg50 2.180 . S
O51 C60 1.279 . S
O52 Mg50 2.030 . S
O52 C58 1.248 . S
O53 Mg50 1.990 . S
O53 C59 1.253 . S
O54 Mg50 2.117 . S
O54 C60 1.250 . S
C55 O61 1.248 . S
C55 O62 1.264 . S
C56 O42 1.253 . S
C56 O44 1.260 . S
C57 O46 1.279 . S
C57 O47 1.250 . S
C58 O48 1.264 . S
C58 O52 1.248 . S
C59 O49 1.260 . S
C59 O53 1.253 . S
C60 O51 1.279 . S
C60 O54 1.250 . S
O61 Mg43 2.030 . S
O61 C55 1.248 . S
O62 Mg45 2.079 . S
O62 C55 1.264 . S
H63 C75 0.930 . S
H64 C77 0.930 . S
H65 C78 0.930 . S
H66 C82 0.959 . S
H67 C82 0.959 . S
H68 C82 0.961 . S
H69 C83 0.960 1_565 S
H70 C83 0.961 . S
H71 C83 0.959 . S
H72 C86 0.929 . S
H73 C87 0.931 . S
H74 C89 0.930 . S
C75 H63 0.930 . S
C75 C76 1.399 . S
C75 C80 1.399 . S
C76 C75 1.399 . S
C76 C77 1.376 1_655 S
C77 H64 0.930 . S
C77 C76 1.376 1_455 S
C77 C78 1.388 . S
C78 H65 0.930 . S
C78 C77 1.388 . S
C78 C79 1.390 . S
C79 C78 1.390 . S
C79 C80 1.394 1_455 S
C79 C85 1.465 1_565 S
C80 C75 1.399 . S
C80 C79 1.394 1_655 S
C80 C81 1.516 . S
C81 C80 1.516 . S
C81 C82 1.502 . S
C81 C83 1.561 1_665 S
C81 C84 1.526 1_565 S
C82 H66 0.959 . S
C82 H67 0.959 . S
C82 H68 0.961 . S
C82 C81 1.502 . S
C83 H69 0.960 1_545 S
C83 H70 0.961 . S
C83 H71 0.959 . S
C83 C81 1.561 1_445 S
C84 C81 1.526 1_545 S
C84 C85 1.396 1_655 S
C84 C89 1.390 . S
C85 C79 1.465 1_545 S
C85 C84 1.396 1_455 S
C85 C86 1.399 . S
C86 H72 0.929 . S
C86 C85 1.399 . S
C86 C87 1.385 . S
C87 H73 0.931 . S
C87 C86 1.385 . S
C87 C88 1.389 1_455 S
C88 C87 1.389 1_655 S
C88 C89 1.387 . S
C89 H74 0.930 . S
C89 C84 1.390 . S
C89 C88 1.387 . S
H90 C102 0.930 . S
H91 C104 0.930 . S
H92 C105 0.930 . S
H93 C109 0.959 . S
H94 C109 0.959 . S
H95 C109 0.961 . S
H96 C110 0.960 . S
H97 C110 0.961 . S
H98 C110 0.959 . S
H99 C113 0.929 . S
H100 C114 0.931 . S
H101 C116 0.930 . S
C102 H90 0.930 . S
C102 C103 1.399 . S
C102 C107 1.399 . S
C103 C102 1.399 . S
C103 C104 1.376 1_545 S
C104 H91 0.930 . S
C104 C103 1.376 1_565 S
C104 C105 1.388 . S
C105 H92 0.930 . S
C105 C104 1.388 . S
C105 C106 1.390 . S
C106 C105 1.390 . S
C106 C107 1.394 1_565 S
C106 C112 1.465 1_455 S
C107 C102 1.399 . S
C107 C106 1.394 1_545 S
C107 C108 1.516 . S
C108 C107 1.516 . S
C108 C109 1.502 . S
C108 C110 1.561 . S
C108 C111 1.526 . S
C109 H93 0.959 . S
C109 H94 0.959 . S
C109 H95 0.961 . S
C109 C108 1.502 . S
C110 H96 0.960 . S
C110 H97 0.961 . S
C110 H98 0.959 . S
C110 C108 1.561 . S
C111 C108 1.526 . S
C111 C112 1.396 1_445 S
C111 C116 1.390 1_455 S
C112 C106 1.465 1_655 S
C112 C111 1.396 1_665 S
C112 C113 1.399 . S
C113 H99 0.929 . S
C113 C112 1.399 . S
C113 C114 1.385 . S
C114 H100 0.931 . S
C114 C113 1.385 . S
C114 C115 1.389 1_565 S
C115 C114 1.389 1_545 S
C115 C116 1.387 . S
C116 H101 0.930 . S
C116 C111 1.390 1_655 S
C116 C115 1.387 . S
H117 C129 0.930 . S
H118 C131 0.930 . S
H119 C132 0.930 . S
H120 C136 0.959 . S
H121 C136 0.959 . S
H122 C136 0.961 . S
H123 C137 0.960 1_665 S
H124 C137 0.961 . S
H125 C137 0.959 . S
H126 C140 0.929 . S
H127 C141 0.931 . S
H128 C143 0.930 . S
C129 H117 0.930 . S
C129 C130 1.399 . S
C129 C134 1.399 . S
C130 C129 1.399 . S
C130 C131 1.376 . S
C131 H118 0.930 . S
C131 C130 1.376 . S
C131 C132 1.388 . S
C132 H119 0.930 . S
C132 C131 1.388 . S
C132 C133 1.390 . S
C133 C132 1.390 . S
C133 C134 1.394 . S
C133 C139 1.465 1_665 S
C134 C129 1.399 . S
C134 C133 1.394 . S
C134 C135 1.516 1_565 S
C135 C134 1.516 1_545 S
C135 C136 1.502 . S
C135 C137 1.561 1_655 S
C135 C138 1.526 1_655 S
C136 H120 0.959 . S
C136 H121 0.959 . S
C136 H122 0.961 . S
C136 C135 1.502 . S
C137 H123 0.960 1_445 S
C137 H124 0.961 . S
C137 H125 0.959 . S
C137 C135 1.561 1_455 S
C138 C135 1.526 1_455 S
C138 C139 1.396 . S
C138 C143 1.390 . S
C139 C133 1.465 1_445 S
C139 C138 1.396 . S
C139 C140 1.399 . S
C140 H126 0.929 . S
C140 C139 1.399 . S
C140 C141 1.385 . S
C141 H127 0.931 . S
C141 C140 1.385 . S
C141 C142 1.389 . S
C142 C141 1.389 . S
C142 C143 1.387 . S
C143 H128 0.930 . S
C143 C138 1.390 . S
C143 C142 1.387 . S
H144 C156 0.930 . S
H145 C158 0.930 . S
H146 C159 0.930 . S
H147 C163 0.959 . S
H148 C163 0.959 . S
H149 C163 0.961 . S
H150 C164 0.960 1_556 S
H151 C164 0.961 . S
H152 C164 0.959 1_556 S
H153 C167 0.929 . S
H154 C168 0.931 . S
H155 C170 0.930 . S
C156 H144 0.930 . S
C156 C157 1.399 . S
C156 C161 1.399 . S
C157 C156 1.399 . S
C157 C158 1.376 . S
C158 H145 0.930 . S
C158 C157 1.376 . S
C158 C159 1.388 . S
C159 H146 0.930 . S
C159 C158 1.388 . S
C159 C160 1.390 . S
C160 C159 1.390 . S
C160 C161 1.394 . S
C160 C166 1.465 1_556 S
C161 C156 1.399 . S
C161 C160 1.394 . S
C161 C162 1.516 1_556 S
C162 C161 1.516 1_554 S
C162 C163 1.502 . S
C162 C164 1.561 . S
C162 C165 1.526 . S
C163 H147 0.959 . S
C163 H148 0.959 . S
C163 H149 0.961 . S
C163 C162 1.502 . S
C164 H150 0.960 1_554 S
C164 H151 0.961 . S
C164 H152 0.959 1_554 S
C164 C162 1.561 . S
C165 C162 1.526 . S
C165 C166 1.396 . S
C165 C170 1.390 . S
C166 C160 1.465 1_554 S
C166 C165 1.396 . S
C166 C167 1.399 . S
C167 H153 0.929 . S
C167 C166 1.399 . S
C167 C168 1.385 . S
C168 H154 0.931 . S
C168 C167 1.385 . S
C168 C169 1.389 . S
C169 C168 1.389 . S
C169 C170 1.387 . S
C170 H155 0.930 . S
C170 C165 1.390 . S
C170 C169 1.387 . S
H171 C183 0.930 . S
H172 C185 0.930 . S
H173 C186 0.930 . S
H174 C190 0.959 . S
H175 C190 0.959 . S
H176 C190 0.961 . S
H177 C191 0.960 . S
H178 C191 0.961 . S
H179 C191 0.959 . S
H180 C194 0.929 . S
H181 C195 0.931 . S
H182 C197 0.930 . S
C183 H171 0.930 . S
C183 C184 1.399 . S
C183 C188 1.399 . S
C184 C183 1.399 . S
C184 C185 1.376 . S
C185 H172 0.930 . S
C185 C184 1.376 . S
C185 C186 1.388 . S
C186 H173 0.930 . S
C186 C185 1.388 . S
C186 C187 1.390 . S
C187 C186 1.390 . S
C187 C188 1.394 . S
C187 C193 1.465 . S
C188 C183 1.399 . S
C188 C187 1.394 . S
C188 C189 1.516 . S
C189 C188 1.516 . S
C189 C190 1.502 . S
C189 C191 1.561 . S
C189 C192 1.526 . S
C190 H174 0.959 . S
C190 H175 0.959 . S
C190 H176 0.961 . S
C190 C189 1.502 . S
C191 H177 0.960 . S
C191 H178 0.961 . S
C191 H179 0.959 . S
C191 C189 1.561 . S
C192 C189 1.526 . S
C192 C193 1.396 . S
C192 C197 1.390 . S
C193 C187 1.465 . S
C193 C192 1.396 . S
C193 C194 1.399 . S
C194 H180 0.929 . S
C194 C193 1.399 . S
C194 C195 1.385 . S
C195 H181 0.931 . S
C195 C194 1.385 . S
C195 C196 1.389 . S
C196 C195 1.389 . S
C196 C197 1.387 . S
C197 H182 0.930 . S
C197 C192 1.390 . S
C197 C196 1.387 . S
H198 C210 0.930 . S
H199 C212 0.930 . S
H200 C213 0.930 . S
H201 C217 0.959 . S
H202 C217 0.959 . S
H203 C217 0.961 . S
H204 C218 0.960 . S
H205 C218 0.961 . S
H206 C218 0.959 . S
H207 C221 0.929 . S
H208 C222 0.931 . S
H209 C224 0.930 . S
C210 H198 0.930 . S
C210 C211 1.399 . S
C210 C215 1.399 . S
C211 C210 1.399 . S
C211 C212 1.376 . S
C212 H199 0.930 . S
C212 C211 1.376 . S
C212 C213 1.388 . S
C213 H200 0.930 . S
C213 C212 1.388 . S
C213 C214 1.390 . S
C214 C213 1.390 . S
C214 C215 1.394 . S
C214 C220 1.465 . S
C215 C210 1.399 . S
C215 C214 1.394 . S
C215 C216 1.516 . S
C216 C215 1.516 . S
C216 C217 1.502 . S
C216 C218 1.561 . S
C216 C219 1.526 . S
C217 H201 0.959 . S
C217 H202 0.959 . S
C217 H203 0.961 . S
C217 C216 1.502 . S
C218 H204 0.960 . S
C218 H205 0.961 . S
C218 H206 0.959 . S
C218 C216 1.561 . S
C219 C216 1.526 . S
C219 C220 1.396 . S
C219 C224 1.390 . S
C220 C214 1.465 . S
C220 C219 1.396 . S
C220 C221 1.399 . S
C221 H207 0.929 . S
C221 C220 1.399 . S
C221 C222 1.385 . S
C222 H208 0.931 . S
C222 C221 1.385 . S
C222 C223 1.389 . S
C223 C222 1.389 . S
C223 C224 1.387 . S
C224 H209 0.930 . S
C224 C219 1.390 . S
C224 C223 1.387 . S
H225 C237 0.930 . S
H226 C239 0.930 . S
H227 C240 0.930 . S
H228 C244 0.959 . S
H229 C244 0.959 . S
H230 C244 0.961 . S
H231 C245 0.960 . S
H232 C245 0.961 1_554 S
H233 C245 0.959 . S
H234 C248 0.929 . S
H235 C249 0.931 . S
H236 C251 0.930 . S
C237 H225 0.930 . S
C237 C238 1.399 . S
C237 C242 1.399 . S
C238 C237 1.399 . S
C238 C239 1.376 . S
C239 H226 0.930 . S
C239 C238 1.376 . S
C239 C240 1.388 . S
C240 H227 0.930 . S
C240 C239 1.388 . S
C240 C241 1.390 . S
C241 C240 1.390 . S
C241 C242 1.394 . S
C241 C247 1.465 1_556 S
C242 C237 1.399 . S
C242 C241 1.394 . S
C242 C243 1.516 1_556 S
C243 C242 1.516 1_554 S
C243 C244 1.502 . S
C243 C245 1.561 1_554 S
C243 C246 1.526 . S
C244 H228 0.959 . S
C244 H229 0.959 . S
C244 H230 0.961 . S
C244 C243 1.502 . S
C245 H231 0.960 . S
C245 H232 0.961 1_556 S
C245 H233 0.959 . S
C245 C243 1.561 1_556 S
C246 C243 1.526 . S
C246 C247 1.396 . S
C246 C251 1.390 . S
C247 C241 1.465 1_554 S
C247 C246 1.396 . S
C247 C248 1.399 . S
C248 H234 0.929 . S
C248 C247 1.399 . S
C248 C249 1.385 . S
C249 H235 0.931 . S
C249 C248 1.385 . S
C249 C250 1.389 . S
C250 C249 1.389 . S
C250 C251 1.387 . S
C251 H236 0.930 . S
C251 C246 1.390 . S
C251 C250 1.387 . S
H252 C264 0.930 . S
H253 C266 0.930 . S
H254 C267 0.930 . S
H255 C271 0.959 . S
H256 C271 0.959 . S
H257 C271 0.961 . S
H258 C272 0.960 . S
H259 C272 0.961 . S
H260 C272 0.959 . S
H261 C275 0.929 . S
H262 C276 0.931 . S
H263 C278 0.930 . S
C264 H252 0.930 . S
C264 C265 1.399 . S
C264 C269 1.399 . S
C265 C264 1.399 . S
C265 C266 1.376 . S
C266 H253 0.930 . S
C266 C265 1.376 . S
C266 C267 1.388 . S
C267 H254 0.930 . S
C267 C266 1.388 . S
C267 C268 1.390 . S
C268 C267 1.390 . S
C268 C269 1.394 . S
C268 C274 1.465 . S
C269 C264 1.399 . S
C269 C268 1.394 . S
C269 C270 1.516 . S
C270 C269 1.516 . S
C270 C271 1.502 . S
C270 C272 1.561 . S
C270 C273 1.526 . S
C271 H255 0.959 . S
C271 H256 0.959 . S
C271 H257 0.961 . S
C271 C270 1.502 . S
C272 H258 0.960 . S
C272 H259 0.961 . S
C272 H260 0.959 . S
C272 C270 1.561 . S
C273 C270 1.526 . S
C273 C274 1.396 . S
C273 C278 1.390 . S
C274 C268 1.465 . S
C274 C273 1.396 . S
C274 C275 1.399 . S
C275 H261 0.929 . S
C275 C274 1.399 . S
C275 C276 1.385 . S
C276 H262 0.931 . S
C276 C275 1.385 . S
C276 C277 1.389 . S
C277 C276 1.389 . S
C277 C278 1.387 . S
C278 H263 0.930 . S
C278 C273 1.390 . S
C278 C277 1.387 . S
H279 C291 0.930 . S
H280 C293 0.930 . S
H281 C294 0.930 . S
H282 C298 0.959 . S
H283 C298 0.959 . S
H284 C298 0.961 . S
H285 C299 0.960 . S
H286 C299 0.961 . S
H287 C299 0.959 . S
H288 C302 0.929 . S
H289 C303 0.931 . S
H290 C305 0.930 . S
C291 H279 0.930 . S
C291 C292 1.399 . S
C291 C296 1.399 . S
C292 C291 1.399 . S
C292 C293 1.376 . S
C293 H280 0.930 . S
C293 C292 1.376 . S
C293 C294 1.388 . S
C294 H281 0.930 . S
C294 C293 1.388 . S
C294 C295 1.390 . S
C295 C294 1.390 . S
C295 C296 1.394 . S
C295 C301 1.465 . S
C296 C291 1.399 . S
C296 C295 1.394 . S
C296 C297 1.516 . S
C297 C296 1.516 . S
C297 C298 1.502 . S
C297 C299 1.561 . S
C297 C300 1.526 . S
C298 H282 0.959 . S
C298 H283 0.959 . S
C298 H284 0.961 . S
C298 C297 1.502 . S
C299 H285 0.960 . S
C299 H286 0.961 . S
C299 H287 0.959 . S
C299 C297 1.561 . S
C300 C297 1.526 . S
C300 C301 1.396 . S
C300 C305 1.390 . S
C301 C295 1.465 . S
C301 C300 1.396 . S
C301 C302 1.399 . S
C302 H288 0.929 . S
C302 C301 1.399 . S
C302 C303 1.385 . S
C303 H289 0.931 . S
C303 C302 1.385 . S
C303 C304 1.389 . S
C304 C303 1.389 . S
C304 C305 1.387 . S
C305 H290 0.930 . S
C305 C300 1.390 . S
C305 C304 1.387 . S
C76 C18 1.262 . S
C88 C15 1.118 . S
C103 C36 1.150 . S
C115 C39 1.220 . S
C130 C57 1.273 . S
C142 C60 1.137 . S
C157 C56 1.170 . S
C169 C13 1.011 . S
C184 C35 1.455 . S
C196 C17 1.392 . S
C211 C59 1.075 . S
C223 C37 1.108 . S
C238 C55 1.063 . S
C250 C14 1.120 . S
C265 C16 0.916 . S
C277 C34 0.882 . S
C292 C58 1.027 . S
C304 C38 1.178 . S
