# Generated by pormake.
# Topology wkd, (5)-cn, num edge types: 1
# Building blocks:
#     Node 0, Type 0, BuildingBlock: BEQFEK_clean_sbu_0, # of connection points: 5
#     Node 1, Type 0, BuildingBlock: BEQFEK_clean_sbu_0, # of connection points: 5
#     Node 2, Type 0, BuildingBlock: BEQFEK_clean_sbu_0, # of connection points: 5
#     Node 3, Type 0, BuildingBlock: BEQFEK_clean_sbu_0, # of connection points: 5
#     Node 4, Type 0, BuildingBlock: BEQFEK_clean_sbu_0, # of connection points: 5
#     Node 5, Type 0, BuildingBlock: BEQFEK_clean_sbu_0, # of connection points: 5
#     Node 6, Type 0, BuildingBlock: BEQFEK_clean_sbu_0, # of connection points: 5
#     Node 7, Type 0, BuildingBlock: BEQFEK_clean_sbu_0, # of connection points: 5
#     Node 8, Type 0, BuildingBlock: BEQFEK_clean_sbu_0, # of connection points: 5
#     Node 9, Type 0, BuildingBlock: BEQFEK_clean_sbu_0, # of connection points: 5
#     Node 10, Type 0, BuildingBlock: BEQFEK_clean_sbu_0, # of connection points: 5
#     Node 11, Type 0, BuildingBlock: BEQFEK_clean_sbu_0, # of connection points: 5
#     Edge 12, Type (0, 0), BuildingBlock: EZIPEK_clean_linker_0, # of connection points: 2
#     Edge 13, Type (0, 0), BuildingBlock: EZIPEK_clean_linker_0, # of connection points: 2
#     Edge 14, Type (0, 0), BuildingBlock: EZIPEK_clean_linker_0, # of connection points: 2
#     Edge 15, Type (0, 0), BuildingBlock: EZIPEK_clean_linker_0, # of connection points: 2
#     Edge 16, Type (0, 0), BuildingBlock: EZIPEK_clean_linker_0, # of connection points: 2
#     Edge 17, Type (0, 0), BuildingBlock: EZIPEK_clean_linker_0, # of connection points: 2
#     Edge 18, Type (0, 0), BuildingBlock: EZIPEK_clean_linker_0, # of connection points: 2
#     Edge 19, Type (0, 0), BuildingBlock: EZIPEK_clean_linker_0, # of connection points: 2
#     Edge 20, Type (0, 0), BuildingBlock: EZIPEK_clean_linker_0, # of connection points: 2
#     Edge 21, Type (0, 0), BuildingBlock: EZIPEK_clean_linker_0, # of connection points: 2
#     Edge 22, Type (0, 0), BuildingBlock: EZIPEK_clean_linker_0, # of connection points: 2
#     Edge 23, Type (0, 0), BuildingBlock: EZIPEK_clean_linker_0, # of connection points: 2
#     Edge 24, Type (0, 0), BuildingBlock: EZIPEK_clean_linker_0, # of connection points: 2
#     Edge 25, Type (0, 0), BuildingBlock: EZIPEK_clean_linker_0, # of connection points: 2
#     Edge 26, Type (0, 0), BuildingBlock: EZIPEK_clean_linker_0, # of connection points: 2
#     Edge 27, Type (0, 0), BuildingBlock: EZIPEK_clean_linker_0, # of connection points: 2
#     Edge 28, Type (0, 0), BuildingBlock: EZIPEK_clean_linker_0, # of connection points: 2
#     Edge 29, Type (0, 0), BuildingBlock: EZIPEK_clean_linker_0, # of connection points: 2
#     Edge 30, Type (0, 0), BuildingBlock: EZIPEK_clean_linker_0, # of connection points: 2
#     Edge 31, Type (0, 0), BuildingBlock: EZIPEK_clean_linker_0, # of connection points: 2
#     Edge 32, Type (0, 0), BuildingBlock: EZIPEK_clean_linker_0, # of connection points: 2
#     Edge 33, Type (0, 0), BuildingBlock: EZIPEK_clean_linker_0, # of connection points: 2
#     Edge 34, Type (0, 0), BuildingBlock: EZIPEK_clean_linker_0, # of connection points: 2
#     Edge 35, Type (0, 0), BuildingBlock: EZIPEK_clean_linker_0, # of connection points: 2
#     Edge 36, Type (0, 0), BuildingBlock: EZIPEK_clean_linker_0, # of connection points: 2
#     Edge 37, Type (0, 0), BuildingBlock: EZIPEK_clean_linker_0, # of connection points: 2
#     Edge 38, Type (0, 0), BuildingBlock: EZIPEK_clean_linker_0, # of connection points: 2
#     Edge 39, Type (0, 0), BuildingBlock: EZIPEK_clean_linker_0, # of connection points: 2
#     Edge 40, Type (0, 0), BuildingBlock: EZIPEK_clean_linker_0, # of connection points: 2
#     Edge 41, Type (0, 0), BuildingBlock: EZIPEK_clean_linker_0, # of connection points: 2
# Relax obj value: 0.067
# Max RMSD: 0.100
# Mean RMSD: 0.099
data_MOF--net-wkd--node1-BEQFEK_clean_sbu_0--edge1-EZIPEK_clean_linker_0
_symmetry_space_group_name_H-M    P1
_symmetry_Int_Tables_number       1
_symmetry_cell_setting            triclinic
loop_
_symmetry_equiv_pos_as_xyz
'x, y, z'
_cell_length_a     18.254549
_cell_length_b     18.218721
_cell_length_c     102.708
_cell_angle_alpha  90.04556
_cell_angle_beta   89.995362
_cell_angle_gamma 119.65193
loop_
_atom_site_label
_atom_site_type_symbol
_atom_site_fract_x
_atom_site_fract_y
_atom_site_fract_z
_atom_type_partial_charge
Co0 Co 0.90085 0.34207 0.03751 0.0
Co1 Co 0.98515 0.26058 0.05467 0.0
C2 C 0.86329 0.16014 0.03386 0.0
O3 O 0.85404 0.22293 0.03063 0.0
O4 O 0.91083 0.16489 0.04331 0.0
C5 C 0.7978 0.37594 0.01915 0.0
O6 O 0.77967 0.30417 1.01351 0.0
C7 C 0.02342 0.15295 0.07194 0.0
C8 C 0.12019 0.25075 0.08468 0.0
C9 C 0.07245 0.16417 0.08296 0.0
N10 N 0.03996 0.2294 0.06765 0.0
N11 N 0.09937 0.28744 0.07512 0.0
C12 C 0.96116 0.07154 0.06566 0.0
H13 H 0.97386 0.07494 0.05505 0.0
H14 H 0.89672 0.06219 0.06694 0.0
H15 H 0.9643 0.0171 0.06988 0.0
C16 C 0.86506 0.38413 0.06416 0.0
N17 N 0.89243 0.3444 0.05603 0.0
N18 N 0.92145 0.30382 0.06305 0.0
C19 C 0.90866 0.31246 0.07575 0.0
C20 C 0.87427 0.36472 0.07691 0.0
C21 C 0.83861 0.4461 0.05997 0.0
H22 H 0.87141 0.47832 0.05088 0.0
H23 H 0.7697 0.41168 0.0582 0.0
H24 H 0.85195 0.49375 0.0677 0.0
O25 O 0.01995 0.40912 0.03223 0.0
O26 O 0.07836 0.34935 0.04402 0.0
H27 H 0.99824 0.31811 0.08966 0.0
H28 H 0.89179 0.26698 0.09547 0.0
C29 C 0.93182 0.27497 0.08685 0.0
H30 H 0.92341 0.21272 0.08403 0.0
H31 H 0.12312 0.35226 0.07401 0.0
O32 O 0.84369 0.39952 0.0293 0.0
C33 C 0.08389 0.40368 0.0357 0.0
Co34 Co 0.58088 0.92203 0.20363 0.0
Co35 Co 0.74364 0.99442 0.22111 0.0
C36 C 0.72163 0.87979 0.19919 0.0
O37 O 0.65132 0.87464 0.19612 0.0
O38 O 0.76472 0.92362 0.20888 0.0
C39 C 0.40822 0.80102 0.19454 0.0
O40 O 0.40955 0.74517 0.20247 0.0
C41 C 0.8858 0.02157 0.23839 0.0
C42 C 0.88573 0.11523 0.25209 0.0
C43 C 0.92312 0.06635 0.24975 0.0
N44 N 0.82751 0.04158 0.23447 0.0
N45 N 0.82937 0.09903 0.24254 0.0
C46 C 0.90399 0.96019 0.23143 0.0
H47 H 0.91492 0.97704 0.22096 0.0
H48 H 0.84817 0.89601 0.23213 0.0
H49 H 0.95994 0.95978 0.23556 0.0
C50 C 0.50025 0.87516 0.23035 0.0
N51 N 0.5667 0.90428 0.22211 0.0
N52 N 0.63568 0.92822 0.22904 0.0
C53 C 0.6142 0.90958 0.24167 0.0
C54 C 0.52849 0.87716 0.24295 0.0
C55 C 0.41369 0.85681 0.22668 0.0
H56 H 0.41622 0.89146 0.21773 0.0
H57 H 0.37332 0.788 0.22502 0.0
H58 H 0.38477 0.87516 0.23463 0.0
O59 O 0.63521 0.04406 0.20007 0.0
O60 O 0.75247 0.09463 0.21171 0.0
H61 H 0.69886 0.99067 0.25627 0.0
H62 H 0.6413 0.88162 0.26084 0.0
C63 C 0.67403 0.92536 0.25262 0.0
H64 H 0.72633 0.91593 0.24928 0.0
H65 H 0.78958 0.12473 0.24181 0.0
O66 O 0.47261 0.87408 0.19371 0.0
C67 C 0.70478 0.10567 0.20386 0.0
Co68 Co 0.68897 0.56323 0.37021 0.0
Co69 Co 0.76629 0.72891 0.3872 0.0
C70 C 0.86821 0.70643 0.36645 0.0
O71 O 0.80682 0.63431 0.36319 0.0
O72 O 0.86188 0.74879 0.37584 0.0
C73 C 0.62859 0.43305 0.35051 0.0
O74 O 0.66408 0.49623 0.34227 0.0
C75 C 0.8761 0.87321 0.40431 0.0
C76 C 0.78031 0.8803 0.41659 0.0
C77 C 0.86649 0.9141 0.41509 0.0
N78 N 0.79903 0.81634 0.39995 0.0
N79 N 0.7423 0.82251 0.40714 0.0
C80 C 0.95654 0.88688 0.3983 0.0
H81 H 0.95543 0.89792 0.38769 0.0
H82 H 0.96147 0.82895 0.39952 0.0
H83 H 0.0123 0.94156 0.40272 0.0
C84 C 0.65008 0.48629 0.39662 0.0
N85 N 0.68772 0.55393 0.38866 0.0
N86 N 0.72343 0.62312 0.39577 0.0
C87 C 0.71214 0.60119 0.40846 0.0
C88 C 0.66436 0.51428 0.40943 0.0
C89 C 0.5945 0.39771 0.39203 0.0
H90 H 0.54431 0.39545 0.38566 0.0
H91 H 0.63236 0.37749 0.38614 0.0
H92 H 0.56545 0.35352 0.40032 0.0
O93 O 0.61993 0.61411 0.36471 0.0
O94 O 0.67725 0.73247 0.37639 0.0
H95 H 0.69613 0.68432 0.42131 0.0
H96 H 0.74485 0.63001 0.42872 0.0
C97 C 0.74149 0.66148 0.41966 0.0
H98 H 0.8046 0.71555 0.41757 0.0
H99 H 0.67726 0.7846 0.40592 0.0
O100 O 0.63425 0.44763 0.36267 0.0
C101 C 0.6238 0.68319 0.36805 0.0
Co102 Co 0.12131 0.67502 0.53666 0.0
Co103 Co 0.03315 0.75816 0.55267 0.0
C104 C 0.16329 0.85615 0.53236 0.0
O105 O 0.17529 0.79406 0.52997 0.0
O106 O 0.11071 0.85127 0.54098 0.0
C107 C 0.22122 0.63621 0.51871 0.0
O108 O 0.23804 0.70694 0.51286 0.0
C109 C 0.01339 0.86908 0.5718 0.0
C110 C 0.88056 0.78835 0.57773 0.0
C111 C 0.95205 0.86493 0.58021 0.0
N112 N 0.97999 0.79744 0.56474 0.0
N113 N 0.90027 0.75005 0.56824 0.0
C114 C 0.10326 0.93774 0.57096 0.0
H115 H 0.14359 0.91159 0.56765 0.0
H116 H 0.12558 0.96974 0.58051 0.0
H117 H 0.10821 0.98523 0.56373 0.0
C118 C 0.14637 0.62967 0.56354 0.0
N119 N 0.12329 0.67176 0.55518 0.0
N120 N 0.08971 0.70963 0.56184 0.0
C121 C 0.09242 0.69431 0.57462 0.0
C122 C 0.12783 0.64295 0.57612 0.0
C123 C 0.17756 0.5711 0.55952 0.0
H124 H 0.14204 0.53383 0.55089 0.0
H125 H 0.24501 0.60913 0.55685 0.0
H126 H 0.17153 0.52769 0.56754 0.0
O127 O 1.00309 0.61208 0.53055 0.0
O128 O 0.94106 0.67023 0.54191 0.0
H129 H 0.06592 0.70269 0.59498 0.0
H130 H 0.08614 0.79196 0.58508 0.0
C131 C 0.05574 0.72226 0.58523 0.0
H132 H 0.98714 0.69491 0.58358 0.0
H133 H 0.8599 0.69023 0.56443 0.0
O134 O 0.17685 0.6142 0.52903 0.0
C135 C 0.9381 0.61701 0.53358 0.0
Co136 Co 0.43946 0.0952 0.70418 0.0
Co137 Co 0.27022 0.01986 0.72032 0.0
C138 C 0.30532 0.14433 0.69904 0.0
O139 O 0.37701 0.15071 0.69671 0.0
O140 O 0.25727 0.09623 0.708 0.0
C141 C 0.61525 0.21424 0.69589 0.0
O142 O 0.61337 0.27094 0.70358 0.0
C143 C 0.14047 0.00921 0.73893 0.0
C144 C 0.08941 0.8787 0.74618 0.0
C145 C 0.08387 0.95119 0.74774 0.0
N146 N 0.17876 0.97293 0.73254 0.0
N147 N 0.14692 0.89454 0.73681 0.0
C148 C 0.16107 0.09881 0.73712 0.0
H149 H 0.11867 0.10102 0.72958 0.0
H150 H 0.22708 0.13781 0.73373 0.0
H151 H 0.15126 0.12488 0.74631 0.0
C152 C 0.51114 0.13112 0.73144 0.0
N153 N 0.44712 0.10583 0.7228 0.0
N154 N 0.37588 0.07741 0.72934 0.0
C155 C 0.39316 0.08637 0.7422 0.0
C156 C 0.47893 0.12009 0.74395 0.0
C157 C 0.59977 0.15538 0.72804 0.0
H158 H 0.60065 0.12299 0.71902 0.0
H159 H 0.63673 0.22467 0.72658 0.0
H160 H 0.63002 0.1387 0.736 0.0
O161 O 0.38114 0.97373 0.69962 0.0
O162 O 0.2609 0.92127 0.71054 0.0
H163 H 0.28676 0.98791 0.75197 0.0
H164 H 0.3579 0.07212 0.76258 0.0
C165 C 0.32863 0.05713 0.75277 0.0
H166 H 0.2907 0.08889 0.75169 0.0
H167 H 0.16643 0.85254 0.73362 0.0
O168 O 0.55054 0.14137 0.69501 0.0
C169 C 0.31005 0.91177 0.70281 0.0
Co170 Co 0.34863 0.45138 0.87118 0.0
Co171 Co 0.2582 0.28775 0.88847 0.0
C172 C 0.16592 0.31185 0.86671 0.0
O173 O 0.23102 0.38186 0.86364 0.0
O174 O 0.1665 0.26841 0.8764 0.0
C175 C 0.39595 0.62232 0.8613 0.0
O176 O 0.33175 0.61723 0.86785 0.0
C177 C 0.14546 0.14421 0.90572 0.0
C178 C 0.24017 0.14401 0.91912 0.0
C179 C 0.15422 0.10625 0.91694 0.0
N180 N 0.22273 0.20315 0.90174 0.0
N181 N 0.27889 0.20112 0.90963 0.0
C182 C 0.06566 0.12588 0.89894 0.0
H183 H 0.0714 0.11635 0.88839 0.0
H184 H 0.05609 0.18123 0.89993 0.0
H185 H 1.01044 0.06899 0.903 0.0
C186 C 0.38457 0.53086 0.89806 0.0
N187 N 0.34584 0.46491 0.88972 0.0
N188 N 0.30054 0.39571 0.89658 0.0
C189 C 0.30453 0.41666 0.90926 0.0
C190 C 0.3591 0.50207 0.91066 0.0
C191 C 0.45546 0.61604 0.89451 0.0
H192 H 0.43499 0.64479 0.88691 0.0
H193 H 0.47802 0.65894 0.90306 0.0
H194 H 0.50829 0.60877 0.89069 0.0
O195 O 0.41532 0.39589 0.86739 0.0
O196 O 0.34824 0.27782 0.87882 0.0
H197 H 0.3009 0.33091 0.92375 0.0
H198 H 0.25015 0.38942 0.92844 0.0
C199 C 0.26072 0.35646 0.92017 0.0
H200 H 0.1992 0.30452 0.91684 0.0
H201 H 0.34383 0.24125 0.90882 0.0
O202 O 0.41021 0.56078 0.86154 0.0
C203 C 0.40673 0.32543 0.871 0.0
Co204 Co 0.67591 0.12087 0.83217 0.0
Co205 Co 0.75659 0.03307 0.81554 0.0
C206 C 0.85666 0.16043 0.83609 0.0
O207 O 0.79442 0.17062 0.83919 0.0
O208 O 0.85101 0.11085 0.82689 0.0
C209 C 0.63741 0.22003 0.85055 0.0
O210 O 0.7068 0.23487 0.8566 0.0
C211 C 0.86701 0.01553 0.79625 0.0
C212 C 0.78753 0.88284 0.79001 0.0
C213 C 0.86373 0.95511 0.7877 0.0
N214 N 0.79532 0.98092 0.80323 0.0
N215 N 0.74859 0.9013 0.79955 0.0
C216 C 0.9351 0.10568 0.79729 0.0
H217 H 0.90946 0.14504 0.80127 0.0
H218 H 0.96452 0.13001 0.78764 0.0
H219 H 0.98456 0.1097 0.80401 0.0
C220 C 0.63157 0.15062 0.8054 0.0
N221 N 0.67302 0.12573 0.81359 0.0
N222 N 0.70883 0.09096 0.80672 0.0
C223 C 0.69284 0.09453 0.79399 0.0
C224 C 0.64323 0.13196 0.79273 0.0
C225 C 0.57466 0.18319 0.80967 0.0
H226 H 0.5362 0.14618 0.8181 0.0
H227 H 0.61388 0.24988 0.81273 0.0
H228 H 0.53254 0.18035 0.80165 0.0
O229 O 0.61026 1.00144 0.83773 0.0
O230 O 0.66896 0.94009 0.82632 0.0
H231 H 0.69728 0.0665 0.77356 0.0
H232 H 0.78763 0.08605 0.78308 0.0
C233 C 0.71813 0.05644 0.78321 0.0
H234 H 0.69033 0.98769 0.7849 0.0
H235 H 0.68892 0.86012 0.80331 0.0
O236 O 0.61647 0.17732 0.84005 0.0
C237 C 0.61504 0.93646 0.83454 0.0
Co238 Co 0.56962 0.66831 0.99919 0.0
Co239 Co 0.73057 0.75586 0.98133 0.0
C240 C 0.71055 0.85072 1.00316 0.0
O241 O 0.64061 0.78632 1.0064 0.0
O242 O 0.75274 0.84894 0.99339 0.0
C243 C 0.39665 0.6163 1.00833 0.0
O244 O 0.39592 0.67114 1.00011 0.0
C245 C 0.87158 0.86733 0.96366 0.0
C246 C 0.86973 0.77171 0.95018 0.0
C247 C 0.90794 0.85794 0.9523 0.0
N248 N 0.81314 0.79016 0.96779 0.0
N249 N 0.81394 0.73344 0.95984 0.0
C250 C 0.89098 0.94765 0.97044 0.0
H251 H 0.90204 0.9424 0.98093 0.0
H252 H 0.83568 0.9573 0.96968 0.0
H253 H 0.94721 1.00275 0.96621 0.0
C254 C 0.48654 0.62995 0.97263 0.0
N255 N 0.55362 0.66936 0.98072 0.0
N256 N 0.62173 0.7136 0.9736 0.0
C257 C 0.59892 0.70833 0.96099 0.0
C258 C 0.51334 0.65407 0.95993 0.0
C259 C 0.40116 0.56126 0.97656 0.0
H260 H 0.40541 0.5316 0.98567 0.0
H261 H 0.35901 0.58824 0.97799 0.0
H262 H 0.37308 0.51246 0.96882 0.0
O263 O 0.62438 0.60085 1.00282 0.0
O264 O 0.74044 0.66542 0.9909 0.0
H265 H 0.68194 0.70965 0.94623 0.0
H266 H 0.62354 0.76073 0.94168 0.0
C267 C 0.65745 0.75069 0.94985 0.0
H268 H 0.7101 0.81249 0.95296 0.0
H269 H 0.77387 0.66843 0.96075 0.0
O270 O 0.46235 0.60948 1.00932 0.0
C271 C 0.69358 0.60791 0.99892 0.0
Co272 Co 0.91212 0.57678 0.16519 0.0
Co273 Co 0.99497 0.74079 0.14776 0.0
C274 C 0.87349 0.72083 0.16859 0.0
O275 O 0.86485 0.64933 0.17196 0.0
O276 O 0.92047 0.7626 0.15907 0.0
C277 C 0.81025 0.44159 0.18378 0.0
O278 O 0.79285 0.49579 0.18946 0.0
C279 C 0.03013 0.8848 0.13037 0.0
C280 C 0.12537 0.88277 0.11731 0.0
C281 C 0.07722 0.92146 0.11918 0.0
N282 N 0.04803 0.8256 0.13463 0.0
N283 N 0.10658 0.82641 0.12696 0.0
C284 C 0.96834 0.90432 0.13686 0.0
H285 H 0.98268 0.9146 0.14742 0.0
H286 H 0.90395 0.8493 0.13583 0.0
H287 H 0.97024 0.96122 0.13261 0.0
C288 C 0.87399 0.49732 0.13866 0.0
N289 N 0.90283 0.56485 0.14669 0.0
N290 N 0.93149 0.63371 0.13957 0.0
C291 C 0.9171 0.61146 0.12691 0.0
C292 C 0.88184 0.52495 0.12588 0.0
C293 C 0.84658 0.40911 0.14295 0.0
H294 H 0.87953 0.40935 0.15202 0.0
H295 H 0.77774 0.37609 0.14477 0.0
H296 H 0.85898 0.37386 0.13525 0.0
O297 O 0.03161 0.6292 0.1704 0.0
O298 O 0.08896 0.74625 0.15846 0.0
H299 H 1.00474 0.69385 0.11273 0.0
H300 H 0.89758 0.63868 0.10722 0.0
C301 C 0.93862 0.67105 0.11572 0.0
H302 H 0.93029 0.72498 0.11855 0.0
H303 H 0.13098 0.78562 0.12799 0.0
O304 O 0.85548 0.46307 0.17356 0.0
C305 C 0.09512 0.69819 0.16687 0.0
Co306 Co 0.36047 0.91049 0.33192 0.0
Co307 Co 0.26849 0.97948 0.31389 0.0
C308 C 0.1762 0.86567 0.33569 0.0
O309 O 0.24192 0.86199 0.33898 0.0
O310 O 0.17618 0.90842 0.32587 0.0
C311 C 0.4136 0.78914 0.34064 0.0
O312 O 0.35964 0.73564 0.33217 0.0
C313 C 0.15792 0.0114 0.29618 0.0
C314 C 0.25412 0.10361 0.28275 0.0
C315 C 0.16806 0.05781 0.28489 0.0
N316 N 0.23455 0.02777 0.30027 0.0
N317 N 0.29164 0.08427 0.29235 0.0
C318 C 0.07744 0.9523 0.30295 0.0
H319 H 0.06614 0.88681 0.30201 0.0
H320 H 0.02315 0.95595 0.29883 0.0
H321 H 0.08338 0.96783 0.31348 0.0
C322 C 0.40129 0.86772 0.3053 0.0
N323 N 0.36002 0.89357 0.31341 0.0
N324 N 0.3128 0.91422 0.30631 0.0
C325 C 0.31778 0.89606 0.29373 0.0
C326 C 0.37516 0.86804 0.29261 0.0
C327 C 0.47335 0.85547 0.30917 0.0
H328 H 0.50244 0.89084 0.3182 0.0
H329 H 0.45015 0.78728 0.31076 0.0
H330 H 0.52153 0.87722 0.30134 0.0
O331 O 0.42456 0.03256 0.33579 0.0
O332 O 0.3569 0.07964 0.32343 0.0
H333 H 0.31134 0.9732 0.27862 0.0
H334 H 0.26162 0.86325 0.2747 0.0
C335 C 0.27223 0.90885 0.28264 0.0
H336 H 0.21061 0.89985 0.28593 0.0
H337 H 0.35637 0.10753 0.29327 0.0
O338 O 0.42012 0.86149 0.34196 0.0
C339 C 0.41446 0.0925 0.33159 0.0
Co340 Co 0.45207 0.34799 0.49752 0.0
Co341 Co 0.28902 0.25852 0.48018 0.0
C342 C 0.31276 0.16477 0.50172 0.0
O343 O 0.38422 0.22898 0.50444 0.0
O344 O 0.26721 0.16625 0.49242 0.0
C345 C 0.62683 0.40286 0.50593 0.0
O346 O 0.62774 0.34959 0.49739 0.0
C347 C 0.14659 0.14848 0.46252 0.0
C348 C 0.15345 0.24501 0.44876 0.0
C349 C 0.11226 0.1588 0.451 0.0
N350 N 0.20662 0.22506 0.46662 0.0
N351 N 0.2088 0.28238 0.45851 0.0
C352 C 0.1242 0.06783 0.46944 0.0
H353 H 0.11586 0.07508 0.47997 0.0
H354 H 0.17697 0.05439 0.46846 0.0
H355 H 0.06567 0.01415 0.46545 0.0
C356 C 0.53193 0.38681 0.47076 0.0
N357 N 0.46612 0.34741 0.47906 0.0
N358 N 0.39744 0.30045 0.4722 0.0
C359 C 0.41895 0.30357 0.45956 0.0
C360 C 0.50398 0.35967 0.45819 0.0
C361 C 0.61697 0.45773 0.47434 0.0
H362 H 0.61347 0.48685 0.48357 0.0
H363 H 0.6615 0.43326 0.47537 0.0
H364 H 0.64166 0.50641 0.46657 0.0
O365 O 0.39572 0.41341 0.50164 0.0
O366 O 0.2794 0.34887 0.48977 0.0
H367 H 0.33484 0.29495 0.44441 0.0
H368 H 0.39377 0.24293 0.44086 0.0
C369 C 0.3599 0.25603 0.4487 0.0
H370 H 0.30771 0.19549 0.45231 0.0
H371 H 0.2508 0.34702 0.45934 0.0
O372 O 0.56038 0.40788 0.50736 0.0
C373 C 0.32616 0.40601 0.49785 0.0
Co374 Co 0.10818 0.43929 0.66418 0.0
Co375 Co 0.02177 0.26797 0.64838 0.0
C376 C 0.15425 0.30292 0.6685 0.0
O377 O 0.1648 0.37639 0.67085 0.0
O378 O 0.10155 0.25457 0.65998 0.0
C379 C 0.20693 0.57795 0.68199 0.0
O380 O 0.22352 0.52407 0.68795 0.0
C381 C 1.00621 0.13894 0.62934 0.0
C382 C 0.87307 0.08405 0.6233 0.0
C383 C 0.94612 0.08112 0.62088 0.0
N384 N 0.97062 0.17546 0.63635 0.0
N385 N 0.89073 0.14147 0.63279 0.0
C386 C 0.09692 0.16237 0.63024 0.0
H387 H 0.13555 0.22914 0.63338 0.0
H388 H 0.11999 0.15241 0.62077 0.0
H389 H 0.10357 0.12169 0.63764 0.0
C390 C 0.13474 0.50856 0.63724 0.0
N391 N 0.10987 0.44374 0.64568 0.0
N392 N 0.07621 0.37231 0.63909 0.0
C393 C 0.08021 0.38997 0.62627 0.0
C394 C 0.11713 0.47653 0.62468 0.0
C395 C 0.16847 0.59867 0.64114 0.0
H396 H 0.13263 0.60256 0.64957 0.0
H397 H 0.2353 0.62536 0.64405 0.0
H398 H 0.16517 0.63679 0.63297 0.0
O399 O 0.98988 0.3829 0.67044 0.0
O400 O 0.92904 0.26236 0.65928 0.0
H401 H 0.97645 0.28303 0.6174 0.0
H402 H 0.0536 0.35467 0.60592 0.0
C403 C 0.0447 0.32539 0.61568 0.0
H404 H 0.07701 0.28761 0.61577 0.0
H405 H 0.84884 0.15945 0.63657 0.0
O406 O 0.16269 0.55559 0.67166 0.0
C407 C 0.92555 0.3125 0.66758 0.0
C408 C 0.69992 0.96901 1.01444 0.0
C409 C 0.74714 0.92839 1.01137 0.0
C410 C 0.87197 0.04532 0.0215 0.0
C411 C 0.82263 0.08102 0.02595 0.0
N412 N 0.68459 0.06627 0.02879 0.0
N413 N 0.87232 0.91788 1.01514 0.0
C414 C 0.73506 0.03998 0.02301 0.0
C415 C 0.8315 0.96363 1.01582 0.0
N416 N 0.62302 0.94228 1.00879 0.0
N417 N 0.95799 0.09071 0.0221 0.0
H418 H 0.84389 0.85607 1.01164 0.0
H419 H 0.93092 0.93772 0.01943 0.0
H420 H 0.99107 0.1525 0.02556 0.0
H421 H 0.99663 0.07049 0.01779 0.0
H422 H 0.58995 0.97506 1.00964 0.0
H423 H 0.5959 0.89204 1.00224 0.0
H424 H 0.61911 0.0333 0.02801 0.0
H425 H 0.70712 0.11606 0.03543 0.0
C426 C 0.88206 0.84505 0.18068 0.0
C427 C 0.83288 0.75995 0.17643 0.0
C428 C 0.7105 0.75053 0.18799 0.0
C429 C 0.75755 0.83823 0.19089 0.0
N430 N 0.88186 0.97293 0.18681 0.0
N431 N 0.69503 0.63712 0.17385 0.0
C432 C 0.84151 0.88667 0.18629 0.0
C433 C 0.74549 0.71402 0.17947 0.0
N434 N 0.96807 0.88541 0.17996 0.0
N435 N 0.634 0.70119 0.19375 0.0
H436 H 0.71746 0.60935 0.16725 0.0
H437 H 0.6296 0.60491 0.17471 0.0
H438 H 0.60696 0.72485 0.20026 0.0
H439 H 0.60119 0.63555 0.19303 0.0
H440 H 1.00666 0.94441 0.18414 0.0
H441 H 1.00132 0.8565 0.17655 0.0
H442 H 0.94009 0.01112 0.18241 0.0
H443 H 0.85328 1.00647 0.19028 0.0
C444 C 0.98049 0.82996 0.35404 0.0
C445 C 0.94721 0.74567 0.35857 0.0
C446 C 0.0609 0.73683 0.3471 0.0
C447 C 0.09902 0.82402 0.34393 0.0
N448 N 0.10515 0.95811 0.34751 0.0
N449 N 0.96619 0.62461 0.36155 0.0
C450 C 0.06175 0.87192 0.34831 0.0
C451 C 0.99029 0.70052 0.35569 0.0
N452 N 0.93318 0.86915 0.3546 0.0
N453 N 0.08967 0.68773 0.34153 0.0
H454 H 0.91668 0.5971 0.3682 0.0
H455 H 1.00063 0.59316 0.36081 0.0
H456 H 0.13975 0.71123 0.33497 0.0
H457 H 0.05871 0.62222 0.34246 0.0
H458 H 0.95153 0.92722 0.3502 0.0
H459 H 0.87171 0.83999 0.35814 0.0
H460 H 0.08397 0.99614 0.35177 0.0
H461 H 0.16643 0.99209 0.3439 0.0
C462 C 0.24994 1.00699 0.50336 0.0
C463 C 0.28076 0.0863 0.50966 0.0
C464 C 0.25043 0.0146 0.53084 0.0
C465 C 0.20813 0.93498 0.5245 0.0
N466 N 0.15296 0.8568 0.50444 0.0
N467 N 0.29442 0.16327 0.52956 0.0
C468 C 0.20414 0.93135 0.51067 0.0
C469 C 0.27712 0.08969 0.52347 0.0
N470 N 0.26635 1.0036 0.49045 0.0
N471 N 0.26725 0.01882 0.54387 0.0
H472 H 0.31049 0.21903 0.52458 0.0
H473 H 0.28414 0.16666 0.53947 0.0
H474 H 0.25162 0.9654 0.54949 0.0
H475 H 0.3047 0.07551 0.54875 0.0
H476 H 0.25217 0.94754 0.4857 0.0
H477 H 0.30231 0.05745 0.48485 0.0
H478 H 0.14127 0.85289 0.49447 0.0
H479 H 0.11509 0.80029 0.50933 0.0
C480 C 0.24477 0.24142 0.69739 0.0
C481 C 0.27558 0.19282 0.69106 0.0
C482 C 0.24419 0.2339 0.66992 0.0
C483 C 0.20097 0.27044 0.67631 0.0
N484 N 0.14656 0.29395 0.69645 0.0
N485 N 0.29087 0.13084 0.67112 0.0
C486 C 0.19793 0.2707 0.69015 0.0
C487 C 0.27217 0.18615 0.67726 0.0
N488 N 0.262 0.26154 0.71026 0.0
N489 N 0.26054 0.24656 0.65689 0.0
H490 H 0.30858 0.09213 0.67606 0.0
H491 H 0.28061 0.11725 0.66121 0.0
H492 H 0.24392 0.28392 0.65131 0.0
H493 H 0.29849 0.22785 0.65196 0.0
H494 H 0.24757 0.30324 0.71506 0.0
H495 H 0.29908 0.24418 0.71575 0.0
H496 H 0.1357 0.28664 0.70645 0.0
H497 H 0.10782 0.31207 0.69163 0.0
C498 C 0.97828 0.28934 0.84665 0.0
C499 C 0.93567 0.20118 0.844 0.0
C500 C 0.05185 0.19102 0.85418 0.0
C501 C 0.08878 0.27623 0.8584 0.0
N502 N 0.07776 0.4025 0.86056 0.0
N503 N 0.92283 0.06487 0.84848 0.0
C504 C 0.04956 0.32455 0.85514 0.0
C505 C 0.96988 0.15106 0.84868 0.0
N506 N 0.95302 0.34016 0.84071 0.0
N507 N 0.09618 0.14879 0.85492 0.0
H508 H 0.8606 0.0323 0.84524 0.0
H509 H 0.94227 0.02605 0.85296 0.0
H510 H 0.15832 0.17687 0.85821 0.0
H511 H 0.07475 0.0892 0.85084 0.0
H512 H 0.98702 0.40584 0.84127 0.0
H513 H 0.90279 0.31739 0.83417 0.0
H514 H 0.04609 0.43657 0.85957 0.0
H515 H 0.12811 0.42969 0.86707 0.0
C516 C 0.15004 0.10569 0.09564 0.0
C517 C 0.07242 0.09999 0.09194 0.0
C518 C 0.99731 0.97101 0.10487 0.0
C519 C 0.07482 0.98426 0.11015 0.0
N520 N 0.22485 0.07776 0.11257 0.0
N521 N 0.92344 0.0397 0.09649 0.0
C522 C 0.15132 0.05562 0.10612 0.0
C523 C 0.99623 0.03631 0.09755 0.0
N524 N 0.22216 0.15644 0.08888 0.0
N525 N 0.92524 0.89512 0.10623 0.0
H526 H 0.92068 0.08945 0.09199 0.0
H527 H 0.86836 0.99807 0.10141 0.0
H528 H 0.92395 0.84334 0.11073 0.0
H529 H 0.86912 0.8811 0.10154 0.0
H530 H 0.27867 0.15676 0.09052 0.0
H531 H 0.22325 0.19069 0.08068 0.0
H532 H 0.28069 0.13364 0.11068 0.0
H533 H 0.22789 0.04559 0.12076 0.0
C534 C 0.97292 0.98439 0.26355 0.0
C535 C 0.98665 0.06252 0.25839 0.0
C536 C 0.10991 0.13673 0.27257 0.0
C537 C 0.10319 0.05847 0.2762 0.0
N538 N 0.03993 0.90862 0.27193 0.0
N539 N 0.08129 0.21245 0.25587 0.0
C540 C 0.03809 0.98233 0.27077 0.0
C541 C 0.05905 0.13866 0.26228 0.0
N542 N 0.89672 0.9127 0.26217 0.0
N543 N 0.16245 0.20892 0.27922 0.0
H544 H 0.04835 0.21588 0.24781 0.0
H545 H 0.13776 0.26798 0.25762 0.0
H546 H 0.19755 0.20963 0.28727 0.0
H547 H 0.16368 0.26604 0.27765 0.0
H548 H 0.88212 0.85618 0.2668 0.0
H549 H 0.84536 0.91205 0.25766 0.0
H550 H 0.99742 0.85336 0.26711 0.0
H551 H 0.08908 0.90499 0.27646 0.0
C552 C 0.98006 0.10341 0.43759 0.0
C553 C 0.04854 0.09406 0.4421 0.0
C554 C 0.99229 0.96124 0.43003 0.0
C555 C 0.93167 0.97733 0.42399 0.0
N556 N 0.88285 0.07667 0.41989 0.0
N557 N 0.13223 0.02567 0.43911 0.0
C558 C 0.92989 0.0523 0.42714 0.0
C559 C 0.05847 0.02634 0.43733 0.0
N560 N 0.96064 0.15868 0.44355 0.0
N561 N 0.98525 0.88318 0.42938 0.0
H562 H 0.18476 0.07508 0.44356 0.0
H563 H 0.14405 0.98072 0.4348 0.0
H564 H 0.93491 0.83191 0.42485 0.0
H565 H 0.02445 0.86742 0.43462 0.0
H566 H 0.90678 0.16215 0.44128 0.0
H567 H 0.99256 0.19378 0.45174 0.0
H568 H 0.88568 0.13481 0.42113 0.0
H569 H 0.84869 0.04347 0.4117 0.0
C570 C 0.96126 0.05504 0.59729 0.0
C571 C 0.95704 0.03051 0.61052 0.0
C572 C 0.9656 0.90581 0.60379 0.0
C573 C 0.96033 0.92544 0.59057 0.0
N574 N 0.94688 0.01444 0.57452 0.0
N575 N 0.94873 0.93022 0.62655 0.0
C576 C 0.9573 0.99938 0.58724 0.0
C577 C 0.9583 0.95564 0.61384 0.0
N578 N 0.97053 0.13235 0.59435 0.0
N579 N 0.97899 0.84023 0.60673 0.0
H580 H 0.94494 0.96587 0.63421 0.0
H581 H 0.93887 0.87137 0.6295 0.0
H582 H 0.98253 0.80119 0.59965 0.0
H583 H 0.99304 0.82825 0.61604 0.0
H584 H 0.98375 0.15839 0.58505 0.0
H585 H 0.9714 0.17372 0.60142 0.0
H586 H 0.93389 0.06144 0.57156 0.0
H587 H 0.94569 0.97621 0.56686 0.0
C588 C 0.95709 0.96219 0.75431 0.0
C589 C 0.03297 0.9638 0.75784 0.0
C590 C 1.00043 0.96485 0.78101 0.0
C591 C 0.92534 0.9648 0.77749 0.0
N592 N 0.83973 0.98042 0.76106 0.0
N593 N 0.13598 0.98421 0.77421 0.0
C594 C 0.90607 0.96881 0.7642 0.0
C595 C 0.05746 0.97067 0.77111 0.0
N596 N 0.93193 0.95047 0.74158 0.0
N597 N 0.01535 0.95538 0.79378 0.0
H598 H 0.17882 0.98754 0.76723 0.0
H599 H 0.16144 0.99919 0.78355 0.0
H600 H 0.97583 0.95233 0.80135 0.0
H601 H 0.06357 0.94461 0.79685 0.0
H602 H 0.87262 0.93849 0.73854 0.0
H603 H 0.96842 0.94712 0.73403 0.0
H604 H 0.82765 0.9931 0.75167 0.0
H605 H 0.80036 0.98426 0.76805 0.0
C606 C 0.04313 0.91797 0.93961 0.0
C607 C 0.97145 0.92356 0.94351 0.0
C608 C 0.02393 0.05433 0.931 0.0
C609 C 0.08842 0.04167 0.92558 0.0
N610 N 0.14551 0.9481 0.92259 0.0
N611 N 0.88263 0.98535 0.93963 0.0
C612 C 0.09399 0.96948 0.92925 0.0
C613 C 0.95843 0.98831 0.93826 0.0
N614 N 0.06482 0.86596 0.94607 0.0
N615 N 0.02676 0.13031 0.92982 0.0
H616 H 0.83103 0.93549 0.94417 0.0
H617 H 0.86854 0.02764 0.93495 0.0
H618 H 0.07629 0.18232 0.92531 0.0
H619 H 0.9847 0.1441 0.93464 0.0
H620 H 0.12086 0.86558 0.94429 0.0
H621 H 0.03202 0.83055 0.95418 0.0
H622 H 0.14589 0.8918 0.9242 0.0
H623 H 0.18047 0.9815 0.91448 0.0
C624 C 0.28094 0.47183 1.01533 0.0
C625 C 0.32036 0.56153 1.01627 0.0
C626 C 0.20948 0.54659 0.03149 0.0
C627 C 0.1658 0.45824 0.02924 0.0
N628 N 0.1516 0.33809 1.01728 0.0
N629 N 0.32243 0.68516 0.02525 0.0
C630 C 0.19946 0.42118 0.02074 0.0
C631 C 0.28439 0.59914 0.02432 0.0
N632 N 0.32091 0.43407 1.00942 0.0
N633 N 0.181 0.57969 0.04088 0.0
H634 H 0.38192 0.72572 0.02141 0.0
H635 H 0.294 0.7168 0.02945 0.0
H636 H 0.1265 0.54295 0.04629 0.0
H637 H 0.21425 0.64207 0.04404 0.0
H638 H 0.29912 0.36941 1.00994 0.0
H639 H 0.37971 0.46666 1.00505 0.0
H640 H 0.16817 0.31003 1.00986 0.0
H641 H 0.09116 0.29887 0.0209 0.0
C642 C 0.79342 0.3445 0.20254 0.0
C643 C 0.77883 0.35557 0.18928 0.0
C644 C 0.72562 0.20492 0.18536 0.0
C645 C 0.73082 0.19194 0.19889 0.0
N646 N 0.75049 0.24794 0.22077 0.0
N647 N 0.70899 0.29128 0.16909 0.0
C648 C 0.75921 0.26131 0.20763 0.0
C649 C 0.73837 0.28423 0.18098 0.0
N650 N 0.84305 0.41282 0.21017 0.0
N651 N 0.71251 0.14322 0.17657 0.0
H652 H 0.71246 0.34727 0.1659 0.0
H653 H 0.67259 0.23946 0.16313 0.0
H654 H 0.70778 0.08581 0.17923 0.0
H655 H 0.71607 0.15298 0.16654 0.0
H656 H 0.86241 0.40732 0.21949 0.0
H657 H 0.87204 0.47479 0.20677 0.0
H658 H 0.76288 0.29579 0.22745 0.0
H659 H 0.72214 0.1879 0.22492 0.0
C660 C 0.42914 0.69071 0.35625 0.0
C661 C 0.46745 0.76531 0.3485 0.0
C662 C 0.60687 0.7815 0.353 0.0
C663 C 0.56929 0.71036 0.36133 0.0
N664 N 0.44694 0.60363 0.3725 0.0
N665 N 0.59538 0.89243 0.34209 0.0
C666 C 0.4809 0.66639 0.36337 0.0
C667 C 0.557 0.8142 0.34771 0.0
N668 N 0.34322 0.64365 0.35696 0.0
N669 N 0.68977 0.81542 0.34956 0.0
H670 H 0.56325 0.92007 0.33789 0.0
H671 H 0.65997 0.93411 0.34272 0.0
H672 H 0.72808 0.79218 0.353 0.0
H673 H 0.71831 0.8607 0.34229 0.0
H674 H 0.31122 0.5832 0.36091 0.0
H675 H 0.30314 0.66376 0.35316 0.0
H676 H 0.38442 0.57486 0.37553 0.0
H677 H 0.483 0.58421 0.37783 0.0
C678 C 0.81541 0.47326 0.5288 0.0
C679 C 0.85754 0.56188 0.52682 0.0
C680 C 0.7416 0.54747 0.51305 0.0
C681 C 0.70359 0.45781 0.51375 0.0
N682 N 0.70478 0.3345 0.52214 0.0
N683 N 0.86946 0.68241 0.51529 0.0
C684 C 0.741 0.42049 0.52153 0.0
C685 C 0.82286 0.59875 0.51851 0.0
N686 N 0.84451 0.44002 0.53805 0.0
N687 N 0.70034 0.58452 0.50735 0.0
H688 H 0.92968 0.72225 0.51897 0.0
H689 H 0.85208 0.71057 0.508 0.0
H690 H 0.64158 0.55134 0.50297 0.0
H691 H 0.721 0.64889 0.50805 0.0
H692 H 0.81203 0.37724 0.54103 0.0
H693 H 0.89852 0.47681 0.54358 0.0
H694 H 0.73456 0.30355 0.52611 0.0
H695 H 0.64566 0.29339 0.51823 0.0
C696 C 0.21974 0.6733 0.70074 0.0
C697 C 0.23639 0.66356 0.68753 0.0
C698 C 0.29177 0.815 0.68401 0.0
C699 C 0.28464 0.82632 0.69755 0.0
N700 N 0.2614 0.76748 0.71925 0.0
N701 N 0.30883 0.72953 0.66758 0.0
C702 C 0.25422 0.75583 0.70607 0.0
C703 C 0.27839 0.73573 0.67943 0.0
N704 N 0.16792 0.60436 0.70809 0.0
N705 N 0.30765 0.87838 0.67541 0.0
H706 H 0.30509 0.67362 0.66429 0.0
H707 H 0.3463 0.7818 0.66178 0.0
H708 H 0.31368 0.93611 0.67823 0.0
H709 H 0.3055 0.87009 0.66535 0.0
H710 H 0.14733 0.60918 0.71735 0.0
H711 H 0.13819 0.54284 0.70447 0.0
H712 H 0.24736 0.71855 0.72579 0.0
H713 H 0.29018 0.82698 0.72361 0.0
C714 C 0.48522 0.30546 0.85239 0.0
C715 C 0.4662 0.29848 0.8659 0.0
C716 C 0.55441 0.23316 0.86925 0.0
C717 C 0.58154 0.2502 0.85608 0.0
N718 N 0.5891 0.32409 0.8362 0.0
N719 N 0.50064 0.27471 0.88767 0.0
C720 C 0.55169 0.29266 0.84795 0.0
C721 C 0.50589 0.26775 0.8745 0.0
N722 N 0.43771 0.32055 0.84366 0.0
N723 N 0.57127 0.18092 0.87663 0.0
H724 H 0.46959 0.30358 0.89196 0.0
H725 H 0.53513 0.26041 0.89427 0.0
H726 H 0.60332 0.15108 0.87308 0.0
H727 H 0.54549 0.16014 0.88586 0.0
H728 H 0.44468 0.31847 0.83362 0.0
H729 H 0.38516 0.32537 0.84635 0.0
H730 H 0.57424 0.3618 0.83039 0.0
H731 H 0.64181 0.32104 0.83303 0.0
C732 C 0.47384 0.80608 0.83717 0.0
C733 C 0.55916 0.85526 0.84109 0.0
C734 C 0.5409 0.74676 0.85689 0.0
C735 C 0.45309 0.70068 0.85392 0.0
N736 N 0.3349 0.68665 0.84136 0.0
N737 N 0.67136 0.88055 0.85591 0.0
C738 C 0.41921 0.73071 0.84412 0.0
C739 C 0.59204 0.82766 0.85125 0.0
N740 N 0.44602 0.8301 0.82649 0.0
N741 N 0.57636 0.71338 0.86497 0.0
H742 H 0.71108 0.94008 0.85198 0.0
H743 H 0.69531 0.86894 0.86438 0.0
H744 H 0.54237 0.65619 0.86977 0.0
H745 H 0.64117 0.73911 0.8661 0.0
H746 H 0.38741 0.79302 0.82217 0.0
H747 H 0.48413 0.88537 0.82131 0.0
H748 H 0.30409 0.71027 0.83567 0.0
H749 H 0.29434 0.62688 0.84512 0.0
C750 C 0.78079 0.45578 1.00032 0.0
C751 C 0.76695 0.43124 1.01363 0.0
C752 C 0.71575 0.53081 0.01749 0.0
C753 C 0.71991 0.54779 1.00393 0.0
N754 N 0.73715 0.509 0.98208 0.0
N755 N 0.69935 0.42895 0.03392 0.0
C756 C 0.74692 0.5053 0.99521 0.0
C757 C 0.72793 0.46393 0.02194 0.0
N758 N 0.82943 0.43554 0.99266 0.0
N759 N 0.70404 0.58071 0.02622 0.0
H760 H 0.70239 0.3763 0.03718 0.0
H761 H 0.66396 0.44581 0.03992 0.0
H762 H 0.69973 0.63355 0.02349 0.0
H763 H 0.70837 0.57529 0.03626 0.0
H764 H 0.84823 0.45947 0.9833 0.0
H765 H 0.85832 0.40223 0.99607 0.0
H766 H 0.7485 0.4725 0.97544 0.0
H767 H 0.70898 0.54107 0.97792 0.0
C768 C 0.29838 0.70708 0.1782 0.0
C769 C 0.33158 0.77878 0.18659 0.0
C770 C 0.20806 0.79514 0.18221 0.0
C771 C 0.17706 0.72628 0.17342 0.0
N772 N 0.19696 0.62414 0.16139 0.0
N773 N 0.32659 0.90271 0.19409 0.0
C774 C 0.2233 0.68405 0.17098 0.0
C775 C 0.28937 0.82663 0.18778 0.0
N776 N 0.33922 0.66155 0.17702 0.0
N777 N 0.15784 0.82792 0.18577 0.0
H778 H 0.38497 0.92895 0.19862 0.0
H779 H 0.30295 0.94429 0.1938 0.0
H780 H 0.09754 0.80622 0.18201 0.0
H781 H 0.17236 0.8709 0.19336 0.0
H782 H 0.31301 0.60262 0.17255 0.0
H783 H 0.39891 0.68133 0.18089 0.0
H784 H 0.23197 0.59693 0.15809 0.0
H785 H 0.14223 0.60578 0.15597 0.0
C786 C 0.48632 0.30402 0.3482 0.0
C787 C 0.57429 0.34578 0.34566 0.0
C788 C 0.55645 0.22345 0.33305 0.0
C789 C 0.46985 0.1793 0.33652 0.0
N790 N 0.35496 0.17122 0.34921 0.0
N791 N 0.69584 0.34187 0.33737 0.0
C792 C 0.43546 0.21785 0.3446 0.0
C793 C 0.61018 0.30462 0.33852 0.0
N794 N 0.45069 0.3477 0.35357 0.0
N795 N 0.58667 0.18902 0.32417 0.0
H796 H 0.73705 0.4013 0.34123 0.0
H797 H 0.72644 0.31132 0.33354 0.0
H798 H 0.5493 0.12964 0.32 0.0
H799 H 0.64679 0.2218 0.32015 0.0
H800 H 0.38586 0.32339 0.35433 0.0
H801 H 0.48541 0.41119 0.35622 0.0
H802 H 0.32946 0.19296 0.35629 0.0
H803 H 0.31584 0.10782 0.34683 0.0
C804 C 0.29085 0.54764 0.5213 0.0
C805 C 0.25098 0.58013 0.51313 0.0
C806 C 0.27091 0.50728 0.49452 0.0
C807 C 0.2992 0.4652 0.50307 0.0
N808 N 0.31626 0.43151 0.52526 0.0
N809 N 0.18611 0.57476 0.49233 0.0
C810 C 0.30361 0.48142 0.51667 0.0
C811 C 0.23628 0.55562 0.49982 0.0
N812 N 0.31993 0.58235 0.53329 0.0
N813 N 0.28016 0.50435 0.48135 0.0
H814 H 0.15612 0.60663 0.49591 0.0
H815 H 0.167 0.55093 0.48296 0.0
H816 H 0.30892 0.47324 0.47705 0.0
H817 H 0.26777 0.54065 0.47483 0.0
H818 H 0.35582 0.56555 0.53917 0.0
H819 H 0.31696 0.63486 0.53664 0.0
H820 H 0.31216 0.43635 0.53531 0.0
H821 H 0.32115 0.37918 0.52239 0.0
C822 C 0.72458 0.30669 0.6794 0.0
C823 C 0.69201 0.23606 0.68798 0.0
C824 C 0.81506 0.21886 0.68351 0.0
C825 C 0.84522 0.28651 0.67452 0.0
N826 N 0.82416 0.38707 0.66226 0.0
N827 N 0.6977 0.11341 0.69586 0.0
C828 C 0.79892 0.32863 0.67205 0.0
C829 C 0.7344 0.18845 0.68929 0.0
N830 N 0.68373 0.35215 0.67811 0.0
N831 N 0.86537 0.18604 0.68701 0.0
H832 H 0.63971 0.08809 0.70049 0.0
H833 H 0.72123 0.07171 0.69571 0.0
H834 H 0.92494 0.20648 0.68302 0.0
H835 H 0.85167 0.14412 0.69472 0.0
H836 H 0.70981 0.41066 0.67353 0.0
H837 H 0.6242 0.33282 0.68201 0.0
H838 H 0.78875 0.41372 0.65892 0.0
H839 H 0.87826 0.40467 0.65672 0.0
C840 C 0.79867 0.4254 0.10767 0.0
C841 C 0.87736 0.47855 0.11374 0.0
C842 C 0.95177 0.46815 0.09464 0.0
C843 C 0.87356 0.40881 0.08904 0.0
N844 N 0.72262 0.32326 0.09057 0.0
N845 N 0.02808 0.53577 0.11433 0.0
C846 C 0.7968 0.38529 0.09564 0.0
C847 C 0.95373 0.49555 0.10761 0.0
N848 N 0.72618 0.41515 0.11322 0.0
N849 N 0.02407 0.50025 0.08742 0.0
H850 H 0.03201 0.55535 0.12397 0.0
H851 H 0.08443 0.5421 0.11081 0.0
H852 H 0.02513 0.48301 0.07777 0.0
H853 H 0.08151 0.55012 0.09055 0.0
H854 H 0.66771 0.3848 0.10862 0.0
H855 H 0.72537 0.44175 0.12218 0.0
H856 H 0.66554 0.29657 0.09556 0.0
H857 H 0.71906 0.29467 0.08161 0.0
C858 C 0.43322 0.7937 0.26149 0.0
C859 C 0.48466 0.87265 0.25536 0.0
C860 C 0.47535 0.94693 0.27461 0.0
C861 C 0.41809 0.86821 0.28032 0.0
N862 N 0.33508 0.71673 0.27896 0.0
N863 N 0.54174 0.02369 0.25489 0.0
C864 C 0.39499 0.79142 0.2737 0.0
C865 C 0.50198 0.9491 0.26158 0.0
N866 N 0.42273 0.72134 0.25578 0.0
N867 N 0.50594 0.01961 0.28176 0.0
H868 H 0.56159 0.028 0.24526 0.0
H869 H 0.54796 0.08009 0.25842 0.0
H870 H 0.48832 0.02083 0.29138 0.0
H871 H 0.55471 0.07763 0.27861 0.0
H872 H 0.39372 0.66271 0.26035 0.0
H873 H 0.44768 0.72081 0.24666 0.0
H874 H 0.30843 0.65935 0.27402 0.0
H875 H 0.30827 0.71291 0.28809 0.0
C876 C 0.60773 0.38095 0.44037 0.0
C877 C 0.54723 0.39954 0.44578 0.0
C878 C 0.55282 0.4786 0.4262 0.0
C879 C 0.61923 0.46734 0.42132 0.0
N880 N 0.71652 0.41535 0.42406 0.0
N881 N 0.47502 0.48037 0.44513 0.0
C882 C 0.64847 0.42031 0.42847 0.0
C883 C 0.52329 0.45236 0.43905 0.0
N884 N 0.62468 0.32431 0.44645 0.0
N885 N 0.5167 0.5129 0.41843 0.0
H886 H 0.45359 0.46437 0.45468 0.0
H887 H 0.46317 0.52615 0.44119 0.0
H888 H 0.53603 0.5322 0.40888 0.0
H889 H 0.46231 0.51454 0.42098 0.0
H890 H 0.66134 0.30112 0.44234 0.0
H891 H 0.59738 0.29605 0.45531 0.0
H892 H 0.747 0.3902 0.4295 0.0
H893 H 0.74581 0.44111 0.41519 0.0
C894 C 0.04843 0.53703 0.59354 0.0
C895 C 0.12699 0.59746 0.58818 0.0
C896 C 0.20059 0.57536 0.60644 0.0
C897 C 0.12161 0.52198 0.61242 0.0
N898 N 0.97114 0.46668 0.61301 0.0
N899 N 0.27794 0.68242 0.5901 0.0
C900 C 0.04569 0.50712 0.60636 0.0
C901 C 0.2033 0.6189 0.59478 0.0
N902 N 0.97658 0.50638 0.58624 0.0
N903 N 0.2726 0.58252 0.61171 0.0
H904 H 0.28234 0.71439 0.58145 0.0
H905 H 0.33452 0.70742 0.59521 0.0
H906 H 0.27303 0.55252 0.62033 0.0
H907 H 0.33091 0.61305 0.60707 0.0
H908 H 0.91894 0.45611 0.58919 0.0
H909 H 0.97626 0.52527 0.57666 0.0
H910 H 0.91526 0.46176 0.60954 0.0
H911 H 0.9667 0.44544 0.62256 0.0
C912 C 0.57925 0.20432 0.762 0.0
C913 C 0.52259 0.12478 0.75641 0.0
C914 C 0.53324 0.05301 0.77585 0.0
C915 C 0.59683 0.1315 0.78081 0.0
N916 N 0.68748 0.28146 0.77821 0.0
N917 N 0.45925 0.9729 0.75676 0.0
C918 C 0.62172 0.20727 0.7738 0.0
C919 C 0.50338 0.04889 0.76298 0.0
N920 N 0.59074 0.27678 0.75621 0.0
N921 N 0.5001 0.9826 0.78354 0.0
H922 H 0.4381 0.9672 0.74718 0.0
H923 H 0.45094 0.91641 0.76061 0.0
H924 H 0.51945 0.98346 0.79312 0.0
H925 H 0.44776 0.92552 0.78089 0.0
H926 H 0.6241 0.33619 0.7605 0.0
H927 H 0.56169 0.27691 0.74747 0.0
H928 H 0.71499 0.33712 0.77282 0.0
H929 H 0.71831 0.28614 0.78699 0.0
C930 C 0.41459 0.63635 0.94152 0.0
C931 C 0.46872 0.61197 0.94771 0.0
C932 C 0.45959 0.52569 0.92883 0.0
C933 C 0.40029 0.54458 0.92305 0.0
N934 N 0.31324 0.60947 0.92426 0.0
N935 N 0.52937 0.52066 0.94856 0.0
C936 C 0.37547 0.59769 0.9295 0.0
C937 C 0.48727 0.55282 0.94174 0.0
N938 N 0.40246 0.69793 0.94699 0.0
N939 N 0.49145 0.48392 0.92183 0.0
H940 H 0.5501 0.53825 0.95811 0.0
H941 H 0.53673 0.47067 0.94524 0.0
H942 H 0.47333 0.46334 0.91229 0.0
H943 H 0.5416 0.47654 0.92501 0.0
H944 H 0.37137 0.72537 0.94232 0.0
H945 H 0.42811 0.72542 0.95598 0.0
H946 H 0.28565 0.63983 0.92911 0.0
H947 H 0.28529 0.58411 0.91529 0.0
loop_
_geom_bond_atom_site_label_1
_geom_bond_atom_site_label_2
_geom_bond_distance
_geom_bond_site_symmetry_2
_ccdc_geom_bond_type
Co0 O3 1.970 . S
Co0 N17 1.989 . S
Co0 O25 1.967 1_655 S
Co0 O32 1.920 . S
Co1 O4 1.966 1_455 S
Co1 N10 2.022 . S
Co1 N18 1.993 . S
Co1 O26 1.941 . S
C2 O3 1.258 . S
C2 O4 1.263 . S
O3 Co0 1.970 . S
O3 C2 1.258 . S
O4 Co1 1.966 1_655 S
O4 C2 1.263 . S
C5 O6 1.235 . S
C5 O32 1.289 . S
O6 C5 1.235 . S
C7 C9 1.400 . S
C7 N10 1.351 . S
C7 C12 1.501 1_455 S
C8 C9 1.387 . S
C8 N11 1.341 . S
C9 C7 1.400 . S
C9 C8 1.387 . S
N10 Co1 2.022 . S
N10 C7 1.351 . S
N10 N11 1.365 . S
N11 C8 1.341 . S
N11 N10 1.365 . S
N11 H31 0.862 . S
C12 C7 1.501 1_655 S
C12 H13 0.961 . S
C12 H14 0.961 . S
C12 H15 0.960 . S
H13 C12 0.961 . S
H14 C12 0.961 . S
H15 C12 0.960 . S
C16 N17 1.342 . S
C16 C20 1.401 . S
C16 C21 1.499 . S
N17 Co0 1.989 . S
N17 C16 1.342 . S
N17 N18 1.388 1_655 S
N18 Co1 1.993 . S
N18 N17 1.388 1_455 S
N18 C19 1.346 . S
C19 N18 1.346 . S
C19 C20 1.396 1_455 S
C19 C29 1.510 . S
C20 C16 1.401 . S
C20 C19 1.396 1_655 S
C21 C16 1.499 . S
C21 H22 0.959 . S
C21 H23 0.960 . S
C21 H24 0.961 . S
H22 C21 0.959 . S
H23 C21 0.960 . S
H24 C21 0.961 . S
O25 Co0 1.967 1_455 S
O25 C33 1.258 . S
O26 Co1 1.941 . S
O26 C33 1.266 . S
H27 C29 0.959 . S
H28 C29 0.961 1_655 S
C29 C19 1.510 . S
C29 H27 0.959 . S
C29 H28 0.961 1_455 S
C29 H30 0.960 . S
H30 C29 0.960 . S
H31 N11 0.862 . S
O32 Co0 1.920 . S
O32 C5 1.289 . S
C33 O25 1.258 . S
C33 O26 1.266 . S
Co34 O37 1.970 . S
Co34 N51 1.989 . S
Co34 O59 1.967 1_565 S
Co34 O66 1.920 . S
Co35 O38 1.966 1_545 S
Co35 N44 2.022 . S
Co35 N52 1.993 . S
Co35 O60 1.941 . S
C36 O37 1.258 . S
C36 O38 1.263 . S
O37 Co34 1.970 . S
O37 C36 1.258 . S
O38 Co35 1.966 1_565 S
O38 C36 1.263 . S
C39 O40 1.235 . S
C39 O66 1.289 . S
O40 C39 1.235 . S
C41 C43 1.400 . S
C41 N44 1.351 . S
C41 C46 1.501 1_545 S
C42 C43 1.387 . S
C42 N45 1.341 . S
C43 C41 1.400 . S
C43 C42 1.387 . S
N44 Co35 2.022 . S
N44 C41 1.351 . S
N44 N45 1.365 . S
N45 C42 1.341 . S
N45 N44 1.365 . S
N45 H65 0.862 . S
C46 C41 1.501 1_565 S
C46 H47 0.961 . S
C46 H48 0.961 . S
C46 H49 0.960 . S
H47 C46 0.961 . S
H48 C46 0.961 . S
H49 C46 0.960 . S
C50 N51 1.342 . S
C50 C54 1.401 . S
C50 C55 1.499 . S
N51 Co34 1.989 . S
N51 C50 1.342 . S
N51 N52 1.388 1_565 S
N52 Co35 1.993 . S
N52 N51 1.388 1_545 S
N52 C53 1.347 1_545 S
C53 N52 1.347 1_565 S
C53 C54 1.392 . S
C53 C63 1.513 1_565 S
C54 C50 1.401 . S
C54 C53 1.392 . S
C55 C50 1.499 . S
C55 H56 0.959 . S
C55 H57 0.960 . S
C55 H58 0.961 . S
H56 C55 0.959 . S
H57 C55 0.960 . S
H58 C55 0.961 . S
O59 Co34 1.967 1_545 S
O59 C67 1.258 . S
O60 Co35 1.941 . S
O60 C67 1.266 . S
H61 C63 0.959 . S
H62 C63 0.961 1_565 S
C63 C53 1.513 1_545 S
C63 H61 0.959 . S
C63 H62 0.961 1_545 S
C63 H64 0.960 . S
H64 C63 0.960 . S
H65 N45 0.862 . S
O66 Co34 1.920 . S
O66 C39 1.289 . S
C67 O59 1.258 . S
C67 O60 1.266 . S
Co68 O71 1.970 . S
Co68 N85 1.989 . S
Co68 O93 1.967 . S
Co68 O100 1.920 . S
Co69 O72 1.966 . S
Co69 N78 2.022 . S
Co69 N86 1.993 . S
Co69 O94 1.941 . S
C70 O71 1.258 . S
C70 O72 1.263 . S
O71 Co68 1.970 . S
O71 C70 1.258 . S
O72 Co69 1.966 . S
O72 C70 1.263 . S
C73 O74 1.235 . S
C73 O100 1.289 . S
O74 C73 1.235 . S
C75 C77 1.400 . S
C75 N78 1.351 . S
C75 C80 1.501 . S
C76 C77 1.387 . S
C76 N79 1.341 . S
C77 C75 1.400 . S
C77 C76 1.387 . S
N78 Co69 2.022 . S
N78 C75 1.351 . S
N78 N79 1.365 . S
N79 C76 1.341 . S
N79 N78 1.365 . S
N79 H99 0.862 . S
C80 C75 1.501 . S
C80 H81 0.961 . S
C80 H82 0.961 . S
C80 H83 0.960 1_655 S
H81 C80 0.961 . S
H82 C80 0.961 . S
H83 C80 0.960 1_455 S
C84 N85 1.342 . S
C84 C88 1.401 . S
C84 C89 1.499 . S
N85 Co68 1.989 . S
N85 C84 1.342 . S
N85 N86 1.388 . S
N86 Co69 1.993 . S
N86 N85 1.388 . S
N86 C87 1.346 . S
C87 N86 1.346 . S
C87 C88 1.396 . S
C87 C97 1.510 . S
C88 C84 1.401 . S
C88 C87 1.396 . S
C89 C84 1.499 . S
C89 H90 0.959 . S
C89 H91 0.960 . S
C89 H92 0.961 . S
H90 C89 0.959 . S
H91 C89 0.960 . S
H92 C89 0.961 . S
O93 Co68 1.967 . S
O93 C101 1.258 . S
O94 Co69 1.941 . S
O94 C101 1.266 . S
H95 C97 0.959 . S
H96 C97 0.961 . S
C97 C87 1.510 . S
C97 H95 0.959 . S
C97 H96 0.961 . S
C97 H98 0.960 . S
H98 C97 0.960 . S
H99 N79 0.862 . S
O100 Co68 1.920 . S
O100 C73 1.289 . S
C101 O93 1.258 . S
C101 O94 1.266 . S
Co102 O105 1.970 . S
Co102 N119 1.989 . S
Co102 O127 1.967 1_455 S
Co102 O134 1.920 . S
Co103 O106 1.966 1_655 S
Co103 N112 2.022 . S
Co103 N120 1.993 . S
Co103 O128 1.941 . S
C104 O105 1.258 . S
C104 O106 1.263 . S
O105 Co102 1.970 . S
O105 C104 1.258 . S
O106 Co103 1.966 1_455 S
O106 C104 1.263 . S
C107 O108 1.235 . S
C107 O134 1.289 . S
O108 C107 1.235 . S
C109 C111 1.400 . S
C109 N112 1.351 . S
C109 C114 1.501 1_655 S
C110 C111 1.387 . S
C110 N113 1.341 . S
C111 C109 1.400 . S
C111 C110 1.387 . S
N112 Co103 2.022 . S
N112 C109 1.351 . S
N112 N113 1.365 . S
N113 C110 1.341 . S
N113 N112 1.365 . S
N113 H133 0.862 . S
C114 C109 1.501 1_455 S
C114 H115 0.961 . S
C114 H116 0.961 . S
C114 H117 0.960 . S
H115 C114 0.961 . S
H116 C114 0.961 . S
H117 C114 0.960 . S
C118 N119 1.342 . S
C118 C122 1.401 . S
C118 C123 1.499 . S
N119 Co102 1.989 . S
N119 C118 1.342 . S
N119 N120 1.388 1_455 S
N120 Co103 1.993 . S
N120 N119 1.388 1_655 S
N120 C121 1.346 . S
C121 N120 1.346 . S
C121 C122 1.396 1_655 S
C121 C131 1.510 . S
C122 C118 1.401 . S
C122 C121 1.396 1_455 S
C123 C118 1.499 . S
C123 H124 0.959 . S
C123 H125 0.960 . S
C123 H126 0.961 . S
H124 C123 0.959 . S
H125 C123 0.960 . S
H126 C123 0.961 . S
O127 Co102 1.967 1_655 S
O127 C135 1.258 . S
O128 Co103 1.941 . S
O128 C135 1.266 . S
H129 C131 0.959 . S
H130 C131 0.961 1_455 S
C131 C121 1.510 . S
C131 H129 0.959 . S
C131 H130 0.961 1_655 S
C131 H132 0.960 . S
H132 C131 0.960 . S
H133 N113 0.862 . S
O134 Co102 1.920 . S
O134 C107 1.289 . S
C135 O127 1.258 . S
C135 O128 1.266 . S
Co136 O139 1.970 . S
Co136 N153 1.989 . S
Co136 O161 1.967 1_545 S
Co136 O168 1.920 . S
Co137 O140 1.966 1_565 S
Co137 N146 2.022 . S
Co137 N154 1.993 . S
Co137 O162 1.941 . S
C138 O139 1.258 . S
C138 O140 1.263 . S
O139 Co136 1.970 . S
O139 C138 1.258 . S
O140 Co137 1.966 1_545 S
O140 C138 1.263 . S
C141 O142 1.235 . S
C141 O168 1.289 . S
O142 C141 1.235 . S
C143 C145 1.400 . S
C143 N146 1.351 . S
C143 C148 1.501 1_565 S
C144 C145 1.387 . S
C144 N147 1.341 . S
C145 C143 1.400 . S
C145 C144 1.387 . S
N146 Co137 2.022 . S
N146 C143 1.351 . S
N146 N147 1.365 . S
N147 C144 1.341 . S
N147 N146 1.365 . S
N147 H167 0.862 . S
C148 C143 1.501 1_545 S
C148 H149 0.961 . S
C148 H150 0.961 . S
C148 H151 0.960 . S
H149 C148 0.961 . S
H150 C148 0.961 . S
H151 C148 0.960 . S
C152 N153 1.342 . S
C152 C156 1.401 . S
C152 C157 1.499 . S
N153 Co136 1.989 . S
N153 C152 1.342 . S
N153 N154 1.388 1_545 S
N154 Co137 1.993 . S
N154 N153 1.388 1_565 S
N154 C155 1.347 1_565 S
C155 N154 1.347 1_545 S
C155 C156 1.392 . S
C155 C165 1.513 1_545 S
C156 C152 1.401 . S
C156 C155 1.392 . S
C157 C152 1.499 . S
C157 H158 0.959 . S
C157 H159 0.960 . S
C157 H160 0.961 . S
H158 C157 0.959 . S
H159 C157 0.960 . S
H160 C157 0.961 . S
O161 Co136 1.967 1_565 S
O161 C169 1.258 . S
O162 Co137 1.941 . S
O162 C169 1.266 . S
H163 C165 0.959 . S
H164 C165 0.961 1_545 S
C165 C155 1.513 1_565 S
C165 H163 0.959 . S
C165 H164 0.961 1_565 S
C165 H166 0.960 . S
H166 C165 0.960 . S
H167 N147 0.862 . S
O168 Co136 1.920 . S
O168 C141 1.289 . S
C169 O161 1.258 . S
C169 O162 1.266 . S
Co170 O173 1.970 . S
Co170 N187 1.989 . S
Co170 O195 1.967 . S
Co170 O202 1.920 . S
Co171 O174 1.966 . S
Co171 N180 2.022 . S
Co171 N188 1.993 . S
Co171 O196 1.941 . S
C172 O173 1.258 . S
C172 O174 1.263 . S
O173 Co170 1.970 . S
O173 C172 1.258 . S
O174 Co171 1.966 . S
O174 C172 1.263 . S
C175 O176 1.235 . S
C175 O202 1.289 . S
O176 C175 1.235 . S
C177 C179 1.400 . S
C177 N180 1.351 . S
C177 C182 1.501 . S
C178 C179 1.387 . S
C178 N181 1.341 . S
C179 C177 1.400 . S
C179 C178 1.387 . S
N180 Co171 2.022 . S
N180 C177 1.351 . S
N180 N181 1.365 . S
N181 C178 1.341 . S
N181 N180 1.365 . S
N181 H201 0.862 . S
C182 C177 1.501 . S
C182 H183 0.961 . S
C182 H184 0.961 . S
C182 H185 0.960 1_455 S
H183 C182 0.961 . S
H184 C182 0.961 . S
H185 C182 0.960 1_655 S
C186 N187 1.342 . S
C186 C190 1.401 . S
C186 C191 1.499 . S
N187 Co170 1.989 . S
N187 C186 1.342 . S
N187 N188 1.388 . S
N188 Co171 1.993 . S
N188 N187 1.388 . S
N188 C189 1.346 . S
C189 N188 1.346 . S
C189 C190 1.396 . S
C189 C199 1.510 . S
C190 C186 1.401 . S
C190 C189 1.396 . S
C191 C186 1.499 . S
C191 H192 0.959 . S
C191 H193 0.960 . S
C191 H194 0.961 . S
H192 C191 0.959 . S
H193 C191 0.960 . S
H194 C191 0.961 . S
O195 Co170 1.967 . S
O195 C203 1.258 . S
O196 Co171 1.941 . S
O196 C203 1.266 . S
H197 C199 0.959 . S
H198 C199 0.961 . S
C199 C189 1.510 . S
C199 H197 0.959 . S
C199 H198 0.961 . S
C199 H200 0.960 . S
H200 C199 0.960 . S
H201 N181 0.862 . S
O202 Co170 1.920 . S
O202 C175 1.289 . S
C203 O195 1.258 . S
C203 O196 1.266 . S
Co204 O207 1.970 . S
Co204 N221 1.989 . S
Co204 O229 1.967 1_545 S
Co204 O236 1.920 . S
Co205 O208 1.966 1_565 S
Co205 N214 2.022 . S
Co205 N222 1.993 . S
Co205 O230 1.941 . S
C206 O207 1.258 . S
C206 O208 1.263 . S
O207 Co204 1.970 . S
O207 C206 1.258 . S
O208 Co205 1.966 1_545 S
O208 C206 1.263 . S
C209 O210 1.235 . S
C209 O236 1.289 . S
O210 C209 1.235 . S
C211 C213 1.400 . S
C211 N214 1.351 . S
C211 C216 1.501 1_565 S
C212 C213 1.387 . S
C212 N215 1.341 . S
C213 C211 1.400 . S
C213 C212 1.387 . S
N214 Co205 2.022 . S
N214 C211 1.351 . S
N214 N215 1.365 . S
N215 C212 1.341 . S
N215 N214 1.365 . S
N215 H235 0.862 . S
C216 C211 1.501 1_545 S
C216 H217 0.961 . S
C216 H218 0.961 . S
C216 H219 0.960 . S
H217 C216 0.961 . S
H218 C216 0.961 . S
H219 C216 0.960 . S
C220 N221 1.342 . S
C220 C224 1.401 . S
C220 C225 1.499 . S
N221 Co204 1.989 . S
N221 C220 1.342 . S
N221 N222 1.388 1_545 S
N222 Co205 1.993 . S
N222 N221 1.388 1_565 S
N222 C223 1.346 . S
C223 N222 1.346 . S
C223 C224 1.396 1_565 S
C223 C233 1.510 . S
C224 C220 1.401 . S
C224 C223 1.396 1_545 S
C225 C220 1.499 . S
C225 H226 0.959 . S
C225 H227 0.960 . S
C225 H228 0.961 . S
H226 C225 0.959 . S
H227 C225 0.960 . S
H228 C225 0.961 . S
O229 Co204 1.967 1_565 S
O229 C237 1.258 . S
O230 Co205 1.941 . S
O230 C237 1.266 . S
H231 C233 0.959 . S
H232 C233 0.961 1_545 S
C233 C223 1.510 . S
C233 H231 0.959 . S
C233 H232 0.961 1_565 S
C233 H234 0.960 . S
H234 C233 0.960 . S
H235 N215 0.862 . S
O236 Co204 1.920 . S
O236 C209 1.289 . S
C237 O229 1.258 . S
C237 O230 1.266 . S
Co238 O241 1.970 . S
Co238 N255 1.989 . S
Co238 O263 1.967 . S
Co238 O270 1.920 . S
Co239 O242 1.966 . S
Co239 N248 2.022 . S
Co239 N256 1.993 . S
Co239 O264 1.941 . S
C240 O241 1.258 . S
C240 O242 1.263 . S
O241 Co238 1.970 . S
O241 C240 1.258 . S
O242 Co239 1.966 . S
O242 C240 1.263 . S
C243 O244 1.235 . S
C243 O270 1.289 . S
O244 C243 1.235 . S
C245 C247 1.400 . S
C245 N248 1.351 . S
C245 C250 1.501 . S
C246 C247 1.387 . S
C246 N249 1.341 . S
C247 C245 1.400 . S
C247 C246 1.387 . S
N248 Co239 2.022 . S
N248 C245 1.351 . S
N248 N249 1.365 . S
N249 C246 1.341 . S
N249 N248 1.365 . S
N249 H269 0.862 . S
C250 C245 1.501 . S
C250 H251 0.961 . S
C250 H252 0.961 . S
C250 H253 0.960 1_565 S
H251 C250 0.961 . S
H252 C250 0.961 . S
H253 C250 0.960 1_545 S
C254 N255 1.342 . S
C254 C258 1.401 . S
C254 C259 1.499 . S
N255 Co238 1.989 . S
N255 C254 1.342 . S
N255 N256 1.388 . S
N256 Co239 1.993 . S
N256 N255 1.388 . S
N256 C257 1.346 . S
C257 N256 1.346 . S
C257 C258 1.396 . S
C257 C267 1.510 . S
C258 C254 1.401 . S
C258 C257 1.396 . S
C259 C254 1.499 . S
C259 H260 0.959 . S
C259 H261 0.960 . S
C259 H262 0.961 . S
H260 C259 0.959 . S
H261 C259 0.960 . S
H262 C259 0.961 . S
O263 Co238 1.967 . S
O263 C271 1.258 . S
O264 Co239 1.941 . S
O264 C271 1.266 . S
H265 C267 0.959 . S
H266 C267 0.961 . S
C267 C257 1.510 . S
C267 H265 0.959 . S
C267 H266 0.961 . S
C267 H268 0.960 . S
H268 C267 0.960 . S
H269 N249 0.862 . S
O270 Co238 1.920 . S
O270 C243 1.289 . S
C271 O263 1.258 . S
C271 O264 1.266 . S
Co272 O275 1.970 . S
Co272 N289 1.989 . S
Co272 O297 1.967 1_655 S
Co272 O304 1.920 . S
Co273 O276 1.966 1_455 S
Co273 N282 2.022 . S
Co273 N290 1.993 . S
Co273 O298 1.941 . S
C274 O275 1.258 . S
C274 O276 1.263 . S
O275 Co272 1.970 . S
O275 C274 1.258 . S
O276 Co273 1.966 1_655 S
O276 C274 1.263 . S
C277 O278 1.235 . S
C277 O304 1.289 . S
O278 C277 1.235 . S
C279 C281 1.400 . S
C279 N282 1.351 . S
C279 C284 1.501 1_455 S
C280 C281 1.387 . S
C280 N283 1.341 . S
C281 C279 1.400 . S
C281 C280 1.387 . S
N282 Co273 2.022 . S
N282 C279 1.351 . S
N282 N283 1.365 . S
N283 C280 1.341 . S
N283 N282 1.365 . S
N283 H303 0.862 . S
C284 C279 1.501 1_655 S
C284 H285 0.961 . S
C284 H286 0.961 . S
C284 H287 0.960 . S
H285 C284 0.961 . S
H286 C284 0.961 . S
H287 C284 0.960 . S
C288 N289 1.342 . S
C288 C292 1.401 . S
C288 C293 1.499 . S
N289 Co272 1.989 . S
N289 C288 1.342 . S
N289 N290 1.388 1_655 S
N290 Co273 1.993 . S
N290 N289 1.388 1_455 S
N290 C291 1.347 1_455 S
C291 N290 1.347 1_655 S
C291 C292 1.392 . S
C291 C301 1.513 1_655 S
C292 C288 1.401 . S
C292 C291 1.392 . S
C293 C288 1.499 . S
C293 H294 0.959 . S
C293 H295 0.960 . S
C293 H296 0.961 . S
H294 C293 0.959 . S
H295 C293 0.960 . S
H296 C293 0.961 . S
O297 Co272 1.967 1_455 S
O297 C305 1.258 . S
O298 Co273 1.941 . S
O298 C305 1.266 . S
H299 C301 0.959 . S
H300 C301 0.961 1_655 S
C301 C291 1.513 1_455 S
C301 H299 0.959 . S
C301 H300 0.961 1_455 S
C301 H302 0.960 . S
H302 C301 0.960 . S
H303 N283 0.862 . S
O304 Co272 1.920 . S
O304 C277 1.289 . S
C305 O297 1.258 . S
C305 O298 1.266 . S
Co306 O309 1.970 . S
Co306 N323 1.989 . S
Co306 O331 1.967 1_565 S
Co306 O338 1.920 . S
Co307 O310 1.966 1_545 S
Co307 N316 2.022 . S
Co307 N324 1.993 . S
Co307 O332 1.941 . S
C308 O309 1.258 . S
C308 O310 1.263 . S
O309 Co306 1.970 . S
O309 C308 1.258 . S
O310 Co307 1.966 1_565 S
O310 C308 1.263 . S
C311 O312 1.235 . S
C311 O338 1.289 . S
O312 C311 1.235 . S
C313 C315 1.400 . S
C313 N316 1.351 . S
C313 C318 1.501 1_545 S
C314 C315 1.387 . S
C314 N317 1.341 . S
C315 C313 1.400 . S
C315 C314 1.387 . S
N316 Co307 2.022 . S
N316 C313 1.351 . S
N316 N317 1.365 . S
N317 C314 1.341 . S
N317 N316 1.365 . S
N317 H337 0.862 . S
C318 C313 1.501 1_565 S
C318 H319 0.961 . S
C318 H320 0.961 . S
C318 H321 0.960 . S
H319 C318 0.961 . S
H320 C318 0.961 . S
H321 C318 0.960 . S
C322 N323 1.342 . S
C322 C326 1.401 . S
C322 C327 1.499 . S
N323 Co306 1.989 . S
N323 C322 1.342 . S
N323 N324 1.388 1_565 S
N324 Co307 1.993 . S
N324 N323 1.388 1_545 S
N324 C325 1.346 . S
C325 N324 1.346 . S
C325 C326 1.396 1_545 S
C325 C335 1.510 . S
C326 C322 1.401 . S
C326 C325 1.396 1_565 S
C327 C322 1.499 . S
C327 H328 0.959 . S
C327 H329 0.960 . S
C327 H330 0.961 . S
H328 C327 0.959 . S
H329 C327 0.960 . S
H330 C327 0.961 . S
O331 Co306 1.967 1_545 S
O331 C339 1.258 . S
O332 Co307 1.941 . S
O332 C339 1.266 . S
H333 C335 0.959 . S
H334 C335 0.961 1_565 S
C335 C325 1.510 . S
C335 H333 0.959 . S
C335 H334 0.961 1_545 S
C335 H336 0.960 . S
H336 C335 0.960 . S
H337 N317 0.862 . S
O338 Co306 1.920 . S
O338 C311 1.289 . S
C339 O331 1.258 . S
C339 O332 1.266 . S
Co340 O343 1.970 . S
Co340 N357 1.989 . S
Co340 O365 1.967 . S
Co340 O372 1.920 . S
Co341 O344 1.966 . S
Co341 N350 2.022 . S
Co341 N358 1.993 . S
Co341 O366 1.941 . S
C342 O343 1.258 . S
C342 O344 1.263 . S
O343 Co340 1.970 . S
O343 C342 1.258 . S
O344 Co341 1.966 . S
O344 C342 1.263 . S
C345 O346 1.235 . S
C345 O372 1.289 . S
O346 C345 1.235 . S
C347 C349 1.400 . S
C347 N350 1.351 . S
C347 C352 1.501 . S
C348 C349 1.387 . S
C348 N351 1.341 . S
C349 C347 1.400 . S
C349 C348 1.387 . S
N350 Co341 2.022 . S
N350 C347 1.351 . S
N350 N351 1.365 . S
N351 C348 1.341 . S
N351 N350 1.365 . S
N351 H371 0.862 . S
C352 C347 1.501 . S
C352 H353 0.961 . S
C352 H354 0.961 . S
C352 H355 0.960 1_545 S
H353 C352 0.961 . S
H354 C352 0.961 . S
H355 C352 0.960 1_565 S
C356 N357 1.342 . S
C356 C360 1.401 . S
C356 C361 1.499 . S
N357 Co340 1.989 . S
N357 C356 1.342 . S
N357 N358 1.388 . S
N358 Co341 1.993 . S
N358 N357 1.388 . S
N358 C359 1.346 . S
C359 N358 1.346 . S
C359 C360 1.396 . S
C359 C369 1.510 . S
C360 C356 1.401 . S
C360 C359 1.396 . S
C361 C356 1.499 . S
C361 H362 0.959 . S
C361 H363 0.960 . S
C361 H364 0.961 . S
H362 C361 0.959 . S
H363 C361 0.960 . S
H364 C361 0.961 . S
O365 Co340 1.967 . S
O365 C373 1.258 . S
O366 Co341 1.941 . S
O366 C373 1.266 . S
H367 C369 0.959 . S
H368 C369 0.961 . S
C369 C359 1.510 . S
C369 H367 0.959 . S
C369 H368 0.961 . S
C369 H370 0.960 . S
H370 C369 0.960 . S
H371 N351 0.862 . S
O372 Co340 1.920 . S
O372 C345 1.289 . S
C373 O365 1.258 . S
C373 O366 1.266 . S
Co374 O377 1.970 . S
Co374 N391 1.989 . S
Co374 O399 1.967 1_455 S
Co374 O406 1.920 . S
Co375 O378 1.966 1_655 S
Co375 N384 2.022 . S
Co375 N392 1.993 . S
Co375 O400 1.941 . S
C376 O377 1.258 . S
C376 O378 1.263 . S
O377 Co374 1.970 . S
O377 C376 1.258 . S
O378 Co375 1.966 1_455 S
O378 C376 1.263 . S
C379 O380 1.235 . S
C379 O406 1.289 . S
O380 C379 1.235 . S
C381 C383 1.400 . S
C381 N384 1.351 . S
C381 C386 1.501 1_655 S
C382 C383 1.387 . S
C382 N385 1.341 . S
C383 C381 1.400 . S
C383 C382 1.387 . S
N384 Co375 2.022 . S
N384 C381 1.351 . S
N384 N385 1.365 . S
N385 C382 1.341 . S
N385 N384 1.365 . S
N385 H405 0.862 . S
C386 C381 1.501 1_455 S
C386 H387 0.961 . S
C386 H388 0.961 . S
C386 H389 0.960 . S
H387 C386 0.961 . S
H388 C386 0.961 . S
H389 C386 0.960 . S
C390 N391 1.342 . S
C390 C394 1.401 . S
C390 C395 1.499 . S
N391 Co374 1.989 . S
N391 C390 1.342 . S
N391 N392 1.388 1_455 S
N392 Co375 1.993 . S
N392 N391 1.388 1_655 S
N392 C393 1.347 1_655 S
C393 N392 1.347 1_455 S
C393 C394 1.392 . S
C393 C403 1.513 1_455 S
C394 C390 1.401 . S
C394 C393 1.392 . S
C395 C390 1.499 . S
C395 H396 0.959 . S
C395 H397 0.960 . S
C395 H398 0.961 . S
H396 C395 0.959 . S
H397 C395 0.960 . S
H398 C395 0.961 . S
O399 Co374 1.967 1_655 S
O399 C407 1.258 . S
O400 Co375 1.941 . S
O400 C407 1.266 . S
H401 C403 0.959 . S
H402 C403 0.961 1_455 S
C403 C393 1.513 1_655 S
C403 H401 0.959 . S
C403 H402 0.961 1_655 S
C403 H404 0.960 . S
H404 C403 0.960 . S
H405 N385 0.862 . S
O406 Co374 1.920 . S
O406 C379 1.289 . S
C407 O399 1.258 . S
C407 O400 1.266 . S
C408 C409 1.363 . S
C408 C414 1.379 1_566 S
C408 N416 1.356 . S
C409 C408 1.363 . S
C409 C415 1.363 . S
C410 C411 1.363 . S
C410 C415 1.379 1_544 S
C410 N417 1.356 . S
C411 C410 1.363 . S
C411 C414 1.363 . S
N412 C414 1.356 . S
N412 H424 0.984 . S
N412 H425 0.985 . S
N413 C415 1.356 . S
N413 H418 0.984 . S
N413 H419 0.985 . S
C414 C408 1.379 1_544 S
C414 C411 1.363 . S
C414 N412 1.356 . S
C415 C409 1.363 . S
C415 C410 1.379 1_566 S
C415 N413 1.356 . S
N416 C408 1.356 . S
N416 H422 0.984 . S
N416 H423 0.984 . S
N417 C410 1.356 . S
N417 H420 0.984 . S
N417 H421 0.985 1_655 S
H418 N413 0.984 . S
H419 N413 0.985 . S
H420 N417 0.984 . S
H421 N417 0.985 1_455 S
H422 N416 0.984 . S
H423 N416 0.984 . S
H424 N412 0.984 . S
H425 N412 0.985 . S
C426 C427 1.363 . S
C426 C432 1.379 . S
C426 N434 1.356 . S
C427 C426 1.363 . S
C427 C433 1.363 . S
C428 C429 1.363 . S
C428 C433 1.379 . S
C428 N435 1.356 . S
C429 C428 1.363 . S
C429 C432 1.363 . S
N430 C432 1.356 . S
N430 H442 0.984 1_565 S
N430 H443 0.985 1_565 S
N431 C433 1.356 . S
N431 H436 0.984 . S
N431 H437 0.985 . S
C432 C426 1.379 . S
C432 C429 1.363 . S
C432 N430 1.356 . S
C433 C427 1.363 . S
C433 C428 1.379 . S
C433 N431 1.356 . S
N434 C426 1.356 . S
N434 H440 0.986 . S
N434 H441 0.984 . S
N435 C428 1.356 . S
N435 H438 0.984 . S
N435 H439 0.985 . S
H436 N431 0.984 . S
H437 N431 0.985 . S
H438 N435 0.984 . S
H439 N435 0.985 . S
H440 N434 0.986 . S
H441 N434 0.984 . S
H442 N430 0.984 1_545 S
H443 N430 0.985 1_545 S
C444 C445 1.363 . S
C444 C450 1.379 1_655 S
C444 N452 1.356 . S
C445 C444 1.363 . S
C445 C451 1.363 1_655 S
C446 C447 1.363 . S
C446 C451 1.379 . S
C446 N453 1.356 . S
C447 C446 1.363 . S
C447 C450 1.363 . S
N448 C450 1.356 . S
N448 H460 0.984 . S
N448 H461 0.985 . S
N449 C451 1.356 1_655 S
N449 H454 0.984 . S
N449 H455 0.985 1_655 S
C450 C444 1.379 1_455 S
C450 C447 1.363 . S
C450 N448 1.356 . S
C451 C445 1.363 1_455 S
C451 C446 1.379 . S
C451 N449 1.356 1_455 S
N452 C444 1.356 . S
N452 H458 0.984 . S
N452 H459 0.984 . S
N453 C446 1.356 . S
N453 H456 0.984 . S
N453 H457 0.985 . S
H454 N449 0.984 . S
H455 N449 0.985 1_455 S
H456 N453 0.984 . S
H457 N453 0.985 . S
H458 N452 0.984 . S
H459 N452 0.984 . S
H460 N448 0.984 . S
H461 N448 0.985 . S
C462 C463 1.363 1_565 S
C462 C468 1.379 . S
C462 N470 1.356 1_565 S
C463 C462 1.363 1_545 S
C463 C469 1.363 . S
C464 C465 1.363 . S
C464 C469 1.379 1_565 S
C464 N471 1.356 . S
C465 C464 1.363 . S
C465 C468 1.363 . S
N466 C468 1.356 . S
N466 H478 0.984 . S
N466 H479 0.985 . S
N467 C469 1.356 . S
N467 H472 0.984 . S
N467 H473 0.985 . S
C468 C462 1.379 . S
C468 C465 1.363 . S
C468 N466 1.356 . S
C469 C463 1.363 . S
C469 C464 1.379 1_545 S
C469 N467 1.356 . S
N470 C462 1.356 1_545 S
N470 H476 0.984 1_545 S
N470 H477 0.984 . S
N471 C464 1.356 . S
N471 H474 0.984 . S
N471 H475 0.985 . S
H472 N467 0.984 . S
H473 N467 0.985 . S
H474 N471 0.984 . S
H475 N471 0.985 . S
H476 N470 0.984 1_565 S
H477 N470 0.984 . S
H478 N466 0.984 . S
H479 N466 0.985 . S
C480 C481 1.363 . S
C480 C486 1.379 . S
C480 N488 1.356 . S
C481 C480 1.363 . S
C481 C487 1.363 . S
C482 C483 1.363 . S
C482 C487 1.379 . S
C482 N489 1.356 . S
C483 C482 1.363 . S
C483 C486 1.363 . S
N484 C486 1.356 . S
N484 H496 0.984 . S
N484 H497 0.985 . S
N485 C487 1.356 . S
N485 H490 0.984 . S
N485 H491 0.985 . S
C486 C480 1.379 . S
C486 C483 1.363 . S
C486 N484 1.356 . S
C487 C481 1.363 . S
C487 C482 1.379 . S
C487 N485 1.356 . S
N488 C480 1.356 . S
N488 H494 0.984 . S
N488 H495 0.984 . S
N489 C482 1.356 . S
N489 H492 0.984 . S
N489 H493 0.985 . S
H490 N485 0.984 . S
H491 N485 0.985 . S
H492 N489 0.984 . S
H493 N489 0.985 . S
H494 N488 0.984 . S
H495 N488 0.984 . S
H496 N484 0.984 . S
H497 N484 0.985 . S
C498 C499 1.363 . S
C498 C504 1.379 . S
C498 N506 1.356 . S
C499 C498 1.363 . S
C499 C505 1.363 . S
C500 C501 1.363 . S
C500 C505 1.379 1_455 S
C500 N507 1.356 . S
C501 C500 1.363 . S
C501 C504 1.363 1_455 S
N502 C504 1.356 1_455 S
N502 H514 0.984 1_455 S
N502 H515 0.985 . S
N503 C505 1.356 . S
N503 H508 0.984 . S
N503 H509 0.985 . S
C504 C498 1.379 . S
C504 C501 1.363 1_655 S
C504 N502 1.356 1_655 S
C505 C499 1.363 . S
C505 C500 1.379 1_655 S
C505 N503 1.356 . S
N506 C498 1.356 . S
N506 H512 0.984 . S
N506 H513 0.984 . S
N507 C500 1.356 . S
N507 H510 0.984 . S
N507 H511 0.985 . S
H508 N503 0.984 . S
H509 N503 0.985 . S
H510 N507 0.984 . S
H511 N507 0.985 . S
H512 N506 0.984 . S
H513 N506 0.984 . S
H514 N502 0.984 1_655 S
H515 N502 0.985 . S
C516 C517 1.363 . S
C516 C522 1.379 . S
C516 N524 1.356 . S
C517 C516 1.363 . S
C517 C523 1.363 1_455 S
C518 C519 1.363 1_655 S
C518 C523 1.379 1_565 S
C518 N525 1.356 . S
C519 C518 1.363 1_455 S
C519 C522 1.363 1_565 S
N520 C522 1.356 . S
N520 H532 0.984 . S
N520 H533 0.985 . S
N521 C523 1.356 . S
N521 H526 0.984 . S
N521 H527 0.985 1_545 S
C522 C516 1.379 . S
C522 C519 1.363 1_545 S
C522 N520 1.356 . S
C523 C517 1.363 1_655 S
C523 C518 1.379 1_545 S
C523 N521 1.356 . S
N524 C516 1.356 . S
N524 H530 0.984 . S
N524 H531 0.984 . S
N525 C518 1.356 . S
N525 H528 0.984 . S
N525 H529 0.985 . S
H526 N521 0.984 . S
H527 N521 0.985 1_565 S
H528 N525 0.984 . S
H529 N525 0.985 . S
H530 N524 0.984 . S
H531 N524 0.984 . S
H532 N520 0.984 . S
H533 N520 0.985 . S
C534 C535 1.363 1_565 S
C534 C540 1.379 1_655 S
C534 N542 1.356 . S
C535 C534 1.363 1_545 S
C535 C541 1.363 1_655 S
C536 C537 1.363 . S
C536 C541 1.379 . S
C536 N543 1.356 . S
C537 C536 1.363 . S
C537 C540 1.363 1_545 S
N538 C540 1.356 . S
N538 H550 0.984 1_455 S
N538 H551 0.985 . S
N539 C541 1.356 . S
N539 H544 0.984 1_455 S
N539 H545 0.985 . S
C540 C534 1.379 1_455 S
C540 C537 1.363 1_565 S
C540 N538 1.356 . S
C541 C535 1.363 1_455 S
C541 C536 1.379 . S
C541 N539 1.356 . S
N542 C534 1.356 . S
N542 H548 0.984 . S
N542 H549 0.984 . S
N543 C536 1.356 . S
N543 H546 0.984 . S
N543 H547 0.985 . S
H544 N539 0.984 1_655 S
H545 N539 0.985 . S
H546 N543 0.984 . S
H547 N543 0.985 . S
H548 N542 0.984 . S
H549 N542 0.984 . S
H550 N538 0.984 1_655 S
H551 N538 0.985 . S
C552 C553 1.363 . S
C552 C558 1.379 1_455 S
C552 N560 1.356 . S
C553 C552 1.363 . S
C553 C559 1.363 1_545 S
C554 C555 1.363 . S
C554 C559 1.379 1_655 S
C554 N561 1.356 . S
C555 C554 1.363 . S
C555 C558 1.363 1_565 S
N556 C558 1.356 . S
N556 H568 0.984 . S
N556 H569 0.989 . S
N557 C559 1.356 . S
N557 H562 0.984 . S
N557 H563 0.985 . S
C558 C552 1.379 1_655 S
C558 C555 1.363 1_545 S
C558 N556 1.356 . S
C559 C553 1.363 1_565 S
C559 C554 1.379 1_455 S
C559 N557 1.356 . S
N560 C552 1.356 . S
N560 H566 0.984 . S
N560 H567 0.984 . S
N561 C554 1.356 . S
N561 H564 0.984 . S
N561 H565 0.985 . S
H562 N557 0.984 . S
H563 N557 0.985 . S
H564 N561 0.984 . S
H565 N561 0.985 . S
H566 N560 0.984 . S
H567 N560 0.984 . S
H568 N556 0.984 . S
H569 N556 0.989 . S
C570 C571 1.363 . S
C570 C576 1.379 1_545 S
C570 N578 1.356 . S
C571 C570 1.363 . S
C571 C577 1.363 1_545 S
C572 C573 1.363 . S
C572 C577 1.379 . S
C572 N579 1.356 . S
C573 C572 1.363 . S
C573 C576 1.363 . S
N574 C576 1.356 . S
N574 H586 0.984 1_565 S
N574 H587 0.985 . S
N575 C577 1.356 . S
N575 H580 0.984 . S
N575 H581 0.985 . S
C576 C570 1.379 1_565 S
C576 C573 1.363 . S
C576 N574 1.356 . S
C577 C571 1.363 1_565 S
C577 C572 1.379 . S
C577 N575 1.356 . S
N578 C570 1.356 . S
N578 H584 0.984 . S
N578 H585 0.984 . S
N579 C572 1.356 . S
N579 H582 0.984 . S
N579 H583 0.985 . S
H580 N575 0.984 . S
H581 N575 0.985 . S
H582 N579 0.984 . S
H583 N579 0.985 . S
H584 N578 0.984 . S
H585 N578 0.984 . S
H586 N574 0.984 1_545 S
H587 N574 0.985 . S
C588 C589 1.363 1_655 S
C588 C594 1.379 . S
C588 N596 1.356 . S
C589 C588 1.363 1_455 S
C589 C595 1.363 1_565 S
C590 C591 1.371 1_545 S
C590 C595 1.371 1_655 S
C590 N597 1.358 1_655 S
C591 C590 1.371 1_565 S
C591 C594 1.363 . S
N592 C594 1.356 . S
N592 H604 0.984 . S
N592 H605 0.985 . S
N593 C595 1.356 . S
N593 H598 0.984 . S
N593 H599 0.985 . S
C594 C588 1.379 . S
C594 C591 1.363 . S
C594 N592 1.356 . S
C595 C589 1.363 1_545 S
C595 C590 1.371 1_455 S
C595 N593 1.356 . S
N596 C588 1.356 . S
N596 H602 0.984 . S
N596 H603 0.984 . S
N597 C590 1.358 1_455 S
N597 H600 0.984 1_455 S
N597 H601 0.985 . S
H598 N593 0.984 . S
H599 N593 0.985 . S
H600 N597 0.984 1_655 S
H601 N597 0.985 . S
H602 N596 0.984 . S
H603 N596 0.984 . S
H604 N592 0.984 . S
H605 N592 0.985 . S
C606 C607 1.363 . S
C606 C612 1.379 1_655 S
C606 N614 1.356 . S
C607 C606 1.363 . S
C607 C613 1.363 1_565 S
C608 C609 1.363 . S
C608 C613 1.379 1_455 S
C608 N615 1.356 . S
C609 C608 1.363 . S
C609 C612 1.363 1_545 S
N610 C612 1.356 . S
N610 H622 0.984 . S
N610 H623 0.985 1_565 S
N611 C613 1.356 . S
N611 H616 0.984 1_545 S
N611 H617 0.985 . S
C612 C606 1.379 1_455 S
C612 C609 1.363 1_565 S
C612 N610 1.356 . S
C613 C607 1.363 1_545 S
C613 C608 1.379 1_655 S
C613 N611 1.356 . S
N614 C606 1.356 . S
N614 H620 0.984 . S
N614 H621 0.984 . S
N615 C608 1.356 . S
N615 H618 0.984 . S
N615 H619 0.985 . S
H616 N611 0.984 1_565 S
H617 N611 0.985 . S
H618 N615 0.984 . S
H619 N615 0.985 . S
H620 N614 0.984 . S
H621 N614 0.984 . S
H622 N610 0.984 . S
H623 N610 0.985 1_545 S
C624 C625 1.363 1_554 S
C624 C630 1.379 . S
C624 N632 1.358 1_554 S
C625 C624 1.363 1_556 S
C625 C631 1.356 1_556 S
C626 C627 1.363 . S
C626 C631 1.407 . S
C626 N633 1.356 . S
C627 C626 1.363 . S
C627 C630 1.363 . S
N628 C630 1.356 . S
N628 H640 0.984 . S
N628 H641 0.985 . S
N629 C631 1.332 1_556 S
N629 H634 0.984 . S
N629 H635 0.985 . S
C630 C624 1.379 . S
C630 C627 1.363 . S
C630 N628 1.356 . S
C631 C625 1.356 1_554 S
C631 C626 1.407 . S
C631 N629 1.332 1_554 S
N632 C624 1.358 1_556 S
N632 H638 0.986 1_556 S
N632 H639 0.981 . S
N633 C626 1.356 . S
N633 H636 0.984 . S
N633 H637 0.985 . S
H634 N629 0.984 . S
H635 N629 0.985 . S
H636 N633 0.984 . S
H637 N633 0.985 . S
H638 N632 0.986 1_554 S
H639 N632 0.981 . S
H640 N628 0.984 . S
H641 N628 0.985 . S
C642 C643 1.363 . S
C642 C648 1.379 . S
C642 N650 1.356 . S
C643 C642 1.363 . S
C643 C649 1.363 . S
C644 C645 1.363 . S
C644 C649 1.379 . S
C644 N651 1.356 . S
C645 C644 1.363 . S
C645 C648 1.363 . S
N646 C648 1.356 . S
N646 H658 0.984 . S
N646 H659 0.985 . S
N647 C649 1.356 . S
N647 H652 0.984 . S
N647 H653 0.985 . S
C648 C642 1.379 . S
C648 C645 1.363 . S
C648 N646 1.356 . S
C649 C643 1.363 . S
C649 C644 1.379 . S
C649 N647 1.356 . S
N650 C642 1.356 . S
N650 H656 0.984 . S
N650 H657 0.984 . S
N651 C644 1.356 . S
N651 H654 0.984 . S
N651 H655 0.985 . S
H652 N647 0.984 . S
H653 N647 0.985 . S
H654 N651 0.984 . S
H655 N651 0.985 . S
H656 N650 0.984 . S
H657 N650 0.984 . S
H658 N646 0.984 . S
H659 N646 0.985 . S
C660 C661 1.363 . S
C660 C666 1.379 . S
C660 N668 1.356 . S
C661 C660 1.363 . S
C661 C667 1.363 . S
C662 C663 1.363 . S
C662 C667 1.379 . S
C662 N669 1.356 . S
C663 C662 1.363 . S
C663 C666 1.363 . S
N664 C666 1.356 . S
N664 H676 0.984 . S
N664 H677 0.985 . S
N665 C667 1.356 . S
N665 H670 0.984 . S
N665 H671 0.985 1_565 S
C666 C660 1.379 . S
C666 C663 1.363 . S
C666 N664 1.356 . S
C667 C661 1.363 . S
C667 C662 1.379 . S
C667 N665 1.356 . S
N668 C660 1.356 . S
N668 H674 0.984 . S
N668 H675 0.984 . S
N669 C662 1.356 . S
N669 H672 0.984 . S
N669 H673 0.985 . S
H670 N665 0.984 . S
H671 N665 0.985 1_545 S
H672 N669 0.984 . S
H673 N669 0.985 . S
H674 N668 0.984 . S
H675 N668 0.984 . S
H676 N664 0.984 . S
H677 N664 0.985 . S
C678 C679 1.363 . S
C678 C684 1.379 . S
C678 N686 1.356 . S
C679 C678 1.363 . S
C679 C685 1.363 . S
C680 C681 1.363 . S
C680 C685 1.379 . S
C680 N687 1.356 . S
C681 C680 1.363 . S
C681 C684 1.363 . S
N682 C684 1.356 . S
N682 H694 0.984 . S
N682 H695 0.985 . S
N683 C685 1.356 . S
N683 H688 0.984 . S
N683 H689 0.985 . S
C684 C678 1.379 . S
C684 C681 1.363 . S
C684 N682 1.356 . S
C685 C679 1.363 . S
C685 C680 1.379 . S
C685 N683 1.356 . S
N686 C678 1.356 . S
N686 H692 0.984 . S
N686 H693 0.984 . S
N687 C680 1.356 . S
N687 H690 0.984 . S
N687 H691 0.985 . S
H688 N683 0.984 . S
H689 N683 0.985 . S
H690 N687 0.984 . S
H691 N687 0.985 . S
H692 N686 0.984 . S
H693 N686 0.984 . S
H694 N682 0.984 . S
H695 N682 0.985 . S
C696 C697 1.363 . S
C696 C702 1.379 . S
C696 N704 1.356 . S
C697 C696 1.363 . S
C697 C703 1.363 . S
C698 C699 1.363 . S
C698 C703 1.379 . S
C698 N705 1.356 . S
C699 C698 1.363 . S
C699 C702 1.363 . S
N700 C702 1.356 . S
N700 H712 0.984 . S
N700 H713 0.985 . S
N701 C703 1.356 . S
N701 H706 0.984 . S
N701 H707 0.985 . S
C702 C696 1.379 . S
C702 C699 1.363 . S
C702 N700 1.356 . S
C703 C697 1.363 . S
C703 C698 1.379 . S
C703 N701 1.356 . S
N704 C696 1.356 . S
N704 H710 0.984 . S
N704 H711 0.984 . S
N705 C698 1.356 . S
N705 H708 0.984 . S
N705 H709 0.985 . S
H706 N701 0.984 . S
H707 N701 0.985 . S
H708 N705 0.984 . S
H709 N705 0.985 . S
H710 N704 0.984 . S
H711 N704 0.984 . S
H712 N700 0.984 . S
H713 N700 0.985 . S
C714 C715 1.363 . S
C714 C720 1.379 . S
C714 N722 1.356 . S
C715 C714 1.363 . S
C715 C721 1.363 . S
C716 C717 1.363 . S
C716 C721 1.379 . S
C716 N723 1.356 . S
C717 C716 1.363 . S
C717 C720 1.363 . S
N718 C720 1.356 . S
N718 H730 0.984 . S
N718 H731 0.985 . S
N719 C721 1.356 . S
N719 H724 0.984 . S
N719 H725 0.985 . S
C720 C714 1.379 . S
C720 C717 1.363 . S
C720 N718 1.356 . S
C721 C715 1.363 . S
C721 C716 1.379 . S
C721 N719 1.356 . S
N722 C714 1.356 . S
N722 H728 0.984 . S
N722 H729 0.984 . S
N723 C716 1.356 . S
N723 H726 0.984 . S
N723 H727 0.985 . S
H724 N719 0.984 . S
H725 N719 0.985 . S
H726 N723 0.984 . S
H727 N723 0.985 . S
H728 N722 0.984 . S
H729 N722 0.984 . S
H730 N718 0.984 . S
H731 N718 0.985 . S
C732 C733 1.363 . S
C732 C738 1.379 . S
C732 N740 1.356 . S
C733 C732 1.363 . S
C733 C739 1.363 . S
C734 C735 1.363 . S
C734 C739 1.379 . S
C734 N741 1.356 . S
C735 C734 1.363 . S
C735 C738 1.363 . S
N736 C738 1.356 . S
N736 H748 0.984 . S
N736 H749 0.985 . S
N737 C739 1.356 . S
N737 H742 0.984 . S
N737 H743 0.985 . S
C738 C732 1.379 . S
C738 C735 1.363 . S
C738 N736 1.356 . S
C739 C733 1.363 . S
C739 C734 1.379 . S
C739 N737 1.356 . S
N740 C732 1.356 . S
N740 H746 0.984 . S
N740 H747 0.984 . S
N741 C734 1.356 . S
N741 H744 0.984 . S
N741 H745 0.985 . S
H742 N737 0.984 . S
H743 N737 0.985 . S
H744 N741 0.984 . S
H745 N741 0.985 . S
H746 N740 0.984 . S
H747 N740 0.984 . S
H748 N736 0.984 . S
H749 N736 0.985 . S
C750 C751 1.363 1_556 S
C750 C756 1.379 . S
C750 N758 1.356 . S
C751 C750 1.363 1_554 S
C751 C757 1.363 . S
C752 C753 1.363 1_554 S
C752 C757 1.379 . S
C752 N759 1.356 . S
C753 C752 1.363 1_556 S
C753 C756 1.363 . S
N754 C756 1.356 . S
N754 H766 0.984 . S
N754 H767 0.985 . S
N755 C757 1.356 . S
N755 H760 0.984 . S
N755 H761 0.985 . S
C756 C750 1.379 . S
C756 C753 1.363 . S
C756 N754 1.356 . S
C757 C751 1.363 . S
C757 C752 1.379 . S
C757 N755 1.356 . S
N758 C750 1.356 . S
N758 H764 0.984 . S
N758 H765 0.984 . S
N759 C752 1.356 . S
N759 H762 0.984 1_554 S
N759 H763 0.985 . S
H760 N755 0.984 . S
H761 N755 0.985 . S
H762 N759 0.984 1_556 S
H763 N759 0.985 . S
H764 N758 0.984 . S
H765 N758 0.984 . S
H766 N754 0.984 . S
H767 N754 0.985 . S
C768 C769 1.363 . S
C768 C774 1.379 . S
C768 N776 1.356 . S
C769 C768 1.363 . S
C769 C775 1.363 . S
C770 C771 1.363 . S
C770 C775 1.379 . S
C770 N777 1.356 . S
C771 C770 1.363 . S
C771 C774 1.363 . S
N772 C774 1.356 . S
N772 H784 0.984 . S
N772 H785 0.985 . S
N773 C775 1.356 . S
N773 H778 0.984 . S
N773 H779 0.985 1_565 S
C774 C768 1.379 . S
C774 C771 1.363 . S
C774 N772 1.356 . S
C775 C769 1.363 . S
C775 C770 1.379 . S
C775 N773 1.356 . S
N776 C768 1.356 . S
N776 H782 0.984 . S
N776 H783 0.984 . S
N777 C770 1.356 . S
N777 H780 0.984 . S
N777 H781 0.985 . S
H778 N773 0.984 . S
H779 N773 0.985 1_545 S
H780 N777 0.984 . S
H781 N777 0.985 . S
H782 N776 0.984 . S
H783 N776 0.984 . S
H784 N772 0.984 . S
H785 N772 0.985 . S
C786 C787 1.363 . S
C786 C792 1.379 . S
C786 N794 1.356 . S
C787 C786 1.363 . S
C787 C793 1.363 . S
C788 C789 1.363 . S
C788 C793 1.379 . S
C788 N795 1.356 . S
C789 C788 1.363 . S
C789 C792 1.363 . S
N790 C792 1.356 . S
N790 H802 0.984 . S
N790 H803 0.985 . S
N791 C793 1.356 . S
N791 H796 0.984 . S
N791 H797 0.985 . S
C792 C786 1.379 . S
C792 C789 1.363 . S
C792 N790 1.356 . S
C793 C787 1.363 . S
C793 C788 1.379 . S
C793 N791 1.356 . S
N794 C786 1.356 . S
N794 H800 0.984 . S
N794 H801 0.984 . S
N795 C788 1.356 . S
N795 H798 0.984 . S
N795 H799 0.985 . S
H796 N791 0.984 . S
H797 N791 0.985 . S
H798 N795 0.984 . S
H799 N795 0.985 . S
H800 N794 0.984 . S
H801 N794 0.984 . S
H802 N790 0.984 . S
H803 N790 0.985 . S
C804 C805 1.363 . S
C804 C810 1.379 . S
C804 N812 1.356 . S
C805 C804 1.363 . S
C805 C811 1.363 . S
C806 C807 1.363 . S
C806 C811 1.379 . S
C806 N813 1.356 . S
C807 C806 1.363 . S
C807 C810 1.363 . S
N808 C810 1.356 . S
N808 H820 0.984 . S
N808 H821 0.985 . S
N809 C811 1.356 . S
N809 H814 0.984 . S
N809 H815 0.985 . S
C810 C804 1.379 . S
C810 C807 1.363 . S
C810 N808 1.356 . S
C811 C805 1.363 . S
C811 C806 1.379 . S
C811 N809 1.356 . S
N812 C804 1.356 . S
N812 H818 0.984 . S
N812 H819 0.984 . S
N813 C806 1.356 . S
N813 H816 0.984 . S
N813 H817 0.985 . S
H814 N809 0.984 . S
H815 N809 0.985 . S
H816 N813 0.984 . S
H817 N813 0.985 . S
H818 N812 0.984 . S
H819 N812 0.984 . S
H820 N808 0.984 . S
H821 N808 0.985 . S
C822 C823 1.363 . S
C822 C828 1.379 . S
C822 N830 1.356 . S
C823 C822 1.363 . S
C823 C829 1.363 . S
C824 C825 1.363 . S
C824 C829 1.379 . S
C824 N831 1.356 . S
C825 C824 1.363 . S
C825 C828 1.363 . S
N826 C828 1.356 . S
N826 H838 0.984 . S
N826 H839 0.985 . S
N827 C829 1.356 . S
N827 H832 0.984 . S
N827 H833 0.985 1_545 S
C828 C822 1.379 . S
C828 C825 1.363 . S
C828 N826 1.356 . S
C829 C823 1.363 . S
C829 C824 1.379 . S
C829 N827 1.356 . S
N830 C822 1.356 . S
N830 H836 0.984 . S
N830 H837 0.984 . S
N831 C824 1.356 . S
N831 H834 0.984 . S
N831 H835 0.985 . S
H832 N827 0.984 . S
H833 N827 0.985 1_565 S
H834 N831 0.984 . S
H835 N831 0.985 . S
H836 N830 0.984 . S
H837 N830 0.984 . S
H838 N826 0.984 . S
H839 N826 0.985 . S
C840 C841 1.363 . S
C840 C846 1.379 . S
C840 N848 1.356 . S
C841 C840 1.363 . S
C841 C847 1.363 1_655 S
C842 C843 1.363 1_455 S
C842 C847 1.379 . S
C842 N849 1.356 . S
C843 C842 1.363 1_655 S
C843 C846 1.363 . S
N844 C846 1.356 . S
N844 H856 0.984 . S
N844 H857 0.985 . S
N845 C847 1.356 . S
N845 H850 0.984 . S
N845 H851 0.985 . S
C846 C840 1.379 . S
C846 C843 1.363 . S
C846 N844 1.356 . S
C847 C841 1.363 1_455 S
C847 C842 1.379 . S
C847 N845 1.356 . S
N848 C840 1.356 . S
N848 H854 0.984 . S
N848 H855 0.984 . S
N849 C842 1.356 . S
N849 H852 0.984 . S
N849 H853 0.985 . S
H850 N845 0.984 . S
H851 N845 0.985 . S
H852 N849 0.984 . S
H853 N849 0.985 . S
H854 N848 0.984 . S
H855 N848 0.984 . S
H856 N844 0.984 . S
H857 N844 0.985 . S
C858 C859 1.363 . S
C858 C864 1.379 . S
C858 N866 1.356 . S
C859 C858 1.363 . S
C859 C865 1.363 1_565 S
C860 C861 1.363 1_545 S
C860 C865 1.379 . S
C860 N867 1.356 . S
C861 C860 1.363 1_565 S
C861 C864 1.363 . S
N862 C864 1.356 . S
N862 H874 0.984 . S
N862 H875 0.985 . S
N863 C865 1.356 . S
N863 H868 0.984 . S
N863 H869 0.985 . S
C864 C858 1.379 . S
C864 C861 1.363 . S
C864 N862 1.356 . S
C865 C859 1.363 1_545 S
C865 C860 1.379 . S
C865 N863 1.356 . S
N866 C858 1.356 . S
N866 H872 0.984 . S
N866 H873 0.984 . S
N867 C860 1.356 . S
N867 H870 0.984 . S
N867 H871 0.985 . S
H868 N863 0.984 . S
H869 N863 0.985 . S
H870 N867 0.984 . S
H871 N867 0.985 . S
H872 N866 0.984 . S
H873 N866 0.984 . S
H874 N862 0.984 . S
H875 N862 0.985 . S
C876 C877 1.363 . S
C876 C882 1.379 . S
C876 N884 1.356 . S
C877 C876 1.363 . S
C877 C883 1.363 . S
C878 C879 1.363 . S
C878 C883 1.379 . S
C878 N885 1.356 . S
C879 C878 1.363 . S
C879 C882 1.363 . S
N880 C882 1.356 . S
N880 H892 0.984 . S
N880 H893 0.985 . S
N881 C883 1.356 . S
N881 H886 0.984 . S
N881 H887 0.985 . S
C882 C876 1.379 . S
C882 C879 1.363 . S
C882 N880 1.356 . S
C883 C877 1.363 . S
C883 C878 1.379 . S
C883 N881 1.356 . S
N884 C876 1.356 . S
N884 H890 0.984 . S
N884 H891 0.984 . S
N885 C878 1.356 . S
N885 H888 0.984 . S
N885 H889 0.985 . S
H886 N881 0.984 . S
H887 N881 0.985 . S
H888 N885 0.984 . S
H889 N885 0.985 . S
H890 N884 0.984 . S
H891 N884 0.984 . S
H892 N880 0.984 . S
H893 N880 0.985 . S
C894 C895 1.363 1_655 S
C894 C900 1.379 . S
C894 N902 1.356 . S
C895 C894 1.363 1_455 S
C895 C901 1.363 . S
C896 C897 1.363 . S
C896 C901 1.379 . S
C896 N903 1.356 . S
C897 C896 1.363 . S
C897 C900 1.363 1_455 S
N898 C900 1.356 . S
N898 H910 0.984 . S
N898 H911 0.985 . S
N899 C901 1.356 . S
N899 H904 0.984 . S
N899 H905 0.985 . S
C900 C894 1.379 . S
C900 C897 1.363 1_655 S
C900 N898 1.356 . S
C901 C895 1.363 . S
C901 C896 1.379 . S
C901 N899 1.356 . S
N902 C894 1.356 . S
N902 H908 0.984 . S
N902 H909 0.984 . S
N903 C896 1.356 . S
N903 H906 0.984 . S
N903 H907 0.985 . S
H904 N899 0.984 . S
H905 N899 0.985 . S
H906 N903 0.984 . S
H907 N903 0.985 . S
H908 N902 0.984 . S
H909 N902 0.984 . S
H910 N898 0.984 . S
H911 N898 0.985 . S
C912 C913 1.363 . S
C912 C918 1.379 . S
C912 N920 1.356 . S
C913 C912 1.363 . S
C913 C919 1.363 1_545 S
C914 C915 1.363 1_565 S
C914 C919 1.379 . S
C914 N921 1.356 . S
C915 C914 1.363 1_545 S
C915 C918 1.363 . S
N916 C918 1.356 . S
N916 H928 0.984 . S
N916 H929 0.985 . S
N917 C919 1.356 . S
N917 H922 0.984 . S
N917 H923 0.985 . S
C918 C912 1.379 . S
C918 C915 1.363 . S
C918 N916 1.356 . S
C919 C913 1.363 1_565 S
C919 C914 1.379 . S
C919 N917 1.356 . S
N920 C912 1.356 . S
N920 H926 0.984 . S
N920 H927 0.984 . S
N921 C914 1.356 . S
N921 H924 0.984 . S
N921 H925 0.985 . S
H922 N917 0.984 . S
H923 N917 0.985 . S
H924 N921 0.984 . S
H925 N921 0.985 . S
H926 N920 0.984 . S
H927 N920 0.984 . S
H928 N916 0.984 . S
H929 N916 0.985 . S
C930 C931 1.363 . S
C930 C936 1.379 . S
C930 N938 1.356 . S
C931 C930 1.363 . S
C931 C937 1.363 . S
C932 C933 1.363 . S
C932 C937 1.379 . S
C932 N939 1.356 . S
C933 C932 1.363 . S
C933 C936 1.363 . S
N934 C936 1.356 . S
N934 H946 0.984 . S
N934 H947 0.985 . S
N935 C937 1.356 . S
N935 H940 0.984 . S
N935 H941 0.985 . S
C936 C930 1.379 . S
C936 C933 1.363 . S
C936 N934 1.356 . S
C937 C931 1.363 . S
C937 C932 1.379 . S
C937 N935 1.356 . S
N938 C930 1.356 . S
N938 H944 0.984 . S
N938 H945 0.984 . S
N939 C932 1.356 . S
N939 H942 0.984 . S
N939 H943 0.985 . S
H940 N935 0.984 . S
H941 N935 0.985 . S
H942 N939 0.984 . S
H943 N939 0.985 . S
H944 N938 0.984 . S
H945 N938 0.984 . S
H946 N934 0.984 . S
H947 N934 0.985 . S
C409 C240 2.097 . S
C411 C2 2.100 . S
C427 C274 2.010 . S
C429 C36 2.012 . S
C445 C70 2.097 . S
C447 C308 2.100 . S
C463 C342 2.097 . S
C465 C104 2.101 . S
C481 C138 2.010 . S
C483 C376 2.013 . S
C499 C206 2.100 . S
C501 C172 2.097 . S
C517 C9 1.173 . S
C519 C281 1.166 . S
C535 C43 1.166 . S
C537 C315 1.173 . S
C553 C349 1.078 . S
C555 C77 1.078 . S
C571 C383 1.165 . S
C573 C111 1.172 . S
C589 C145 1.166 . S
C591 C213 1.172 . S
C607 C247 1.078 . S
C609 C179 1.078 . S
C625 C243 1.416 . S
C627 C33 1.424 . S
C643 C277 1.557 . S
C645 C67 1.569 . S
C661 C311 1.621 . S
C663 C101 1.640 . S
C679 C135 1.425 . S
C681 C345 1.415 . S
C697 C379 1.557 . S
C699 C169 1.569 . S
C715 C203 1.638 . S
C717 C209 1.621 . S
C733 C237 1.425 . S
C735 C175 1.415 . S
C751 C5 1.621 . S
C753 C271 1.639 . S
C769 C39 1.558 . S
C771 C305 1.569 . S
C787 C73 1.416 . S
C789 C339 1.424 . S
C805 C107 1.621 . S
C807 C373 1.640 . S
C823 C141 1.557 . S
C825 C407 1.568 . S
C841 C292 1.485 . S
C843 C20 1.485 . S
C859 C54 1.484 . S
C861 C326 1.484 . S
C877 C360 1.624 . S
C879 C88 1.624 . S
C895 C122 1.485 . S
C897 C394 1.485 . S
C913 C156 1.485 . S
C915 C224 1.485 . S
C931 C258 1.624 . S
C933 C190 1.624 . S
