# Generated by pormake.
# Topology uod, (4)-cn, num edge types: 1
# Building blocks:
#     Node 0, Type 0, BuildingBlock: QUQFOY_clean_sbu_3, # of connection points: 4
#     Node 1, Type 0, BuildingBlock: QUQFOY_clean_sbu_3, # of connection points: 4
#     Node 2, Type 0, BuildingBlock: QUQFOY_clean_sbu_3, # of connection points: 4
#     Node 3, Type 0, BuildingBlock: QUQFOY_clean_sbu_3, # of connection points: 4
#     Node 4, Type 0, BuildingBlock: QUQFOY_clean_sbu_3, # of connection points: 4
#     Node 5, Type 0, BuildingBlock: QUQFOY_clean_sbu_3, # of connection points: 4
#     Node 6, Type 0, BuildingBlock: QUQFOY_clean_sbu_3, # of connection points: 4
#     Node 7, Type 0, BuildingBlock: QUQFOY_clean_sbu_3, # of connection points: 4
#     Node 8, Type 0, BuildingBlock: QUQFOY_clean_sbu_3, # of connection points: 4
#     Node 9, Type 0, BuildingBlock: QUQFOY_clean_sbu_3, # of connection points: 4
#     Node 10, Type 0, BuildingBlock: QUQFOY_clean_sbu_3, # of connection points: 4
#     Node 11, Type 0, BuildingBlock: QUQFOY_clean_sbu_3, # of connection points: 4
#     Node 12, Type 0, BuildingBlock: QUQFOY_clean_sbu_3, # of connection points: 4
#     Node 13, Type 0, BuildingBlock: QUQFOY_clean_sbu_3, # of connection points: 4
#     Node 14, Type 0, BuildingBlock: QUQFOY_clean_sbu_3, # of connection points: 4
#     Node 15, Type 0, BuildingBlock: QUQFOY_clean_sbu_3, # of connection points: 4
#     Node 16, Type 0, BuildingBlock: QUQFOY_clean_sbu_3, # of connection points: 4
#     Node 17, Type 0, BuildingBlock: QUQFOY_clean_sbu_3, # of connection points: 4
#     Node 18, Type 0, BuildingBlock: QUQFOY_clean_sbu_3, # of connection points: 4
#     Node 19, Type 0, BuildingBlock: QUQFOY_clean_sbu_3, # of connection points: 4
#     Node 20, Type 0, BuildingBlock: QUQFOY_clean_sbu_3, # of connection points: 4
#     Node 21, Type 0, BuildingBlock: QUQFOY_clean_sbu_3, # of connection points: 4
#     Node 22, Type 0, BuildingBlock: QUQFOY_clean_sbu_3, # of connection points: 4
#     Node 23, Type 0, BuildingBlock: QUQFOY_clean_sbu_3, # of connection points: 4
#     Node 24, Type 0, BuildingBlock: QUQFOY_clean_sbu_3, # of connection points: 4
#     Node 25, Type 0, BuildingBlock: QUQFOY_clean_sbu_3, # of connection points: 4
#     Node 26, Type 0, BuildingBlock: QUQFOY_clean_sbu_3, # of connection points: 4
#     Node 27, Type 0, BuildingBlock: QUQFOY_clean_sbu_3, # of connection points: 4
#     Node 28, Type 0, BuildingBlock: QUQFOY_clean_sbu_3, # of connection points: 4
#     Node 29, Type 0, BuildingBlock: QUQFOY_clean_sbu_3, # of connection points: 4
#     Node 30, Type 0, BuildingBlock: QUQFOY_clean_sbu_3, # of connection points: 4
#     Node 31, Type 0, BuildingBlock: QUQFOY_clean_sbu_3, # of connection points: 4
#     Edge 32, Type (0, 0), BuildingBlock: AJUNOK_clean_linker_0, # of connection points: 2
#     Edge 33, Type (0, 0), BuildingBlock: AJUNOK_clean_linker_0, # of connection points: 2
#     Edge 34, Type (0, 0), BuildingBlock: AJUNOK_clean_linker_0, # of connection points: 2
#     Edge 35, Type (0, 0), BuildingBlock: AJUNOK_clean_linker_0, # of connection points: 2
#     Edge 36, Type (0, 0), BuildingBlock: AJUNOK_clean_linker_0, # of connection points: 2
#     Edge 37, Type (0, 0), BuildingBlock: AJUNOK_clean_linker_0, # of connection points: 2
#     Edge 38, Type (0, 0), BuildingBlock: AJUNOK_clean_linker_0, # of connection points: 2
#     Edge 39, Type (0, 0), BuildingBlock: AJUNOK_clean_linker_0, # of connection points: 2
#     Edge 40, Type (0, 0), BuildingBlock: AJUNOK_clean_linker_0, # of connection points: 2
#     Edge 41, Type (0, 0), BuildingBlock: AJUNOK_clean_linker_0, # of connection points: 2
#     Edge 42, Type (0, 0), BuildingBlock: AJUNOK_clean_linker_0, # of connection points: 2
#     Edge 43, Type (0, 0), BuildingBlock: AJUNOK_clean_linker_0, # of connection points: 2
#     Edge 44, Type (0, 0), BuildingBlock: AJUNOK_clean_linker_0, # of connection points: 2
#     Edge 45, Type (0, 0), BuildingBlock: AJUNOK_clean_linker_0, # of connection points: 2
#     Edge 46, Type (0, 0), BuildingBlock: AJUNOK_clean_linker_0, # of connection points: 2
#     Edge 47, Type (0, 0), BuildingBlock: AJUNOK_clean_linker_0, # of connection points: 2
#     Edge 48, Type (0, 0), BuildingBlock: AJUNOK_clean_linker_0, # of connection points: 2
#     Edge 49, Type (0, 0), BuildingBlock: AJUNOK_clean_linker_0, # of connection points: 2
#     Edge 50, Type (0, 0), BuildingBlock: AJUNOK_clean_linker_0, # of connection points: 2
#     Edge 51, Type (0, 0), BuildingBlock: AJUNOK_clean_linker_0, # of connection points: 2
#     Edge 52, Type (0, 0), BuildingBlock: AJUNOK_clean_linker_0, # of connection points: 2
#     Edge 53, Type (0, 0), BuildingBlock: AJUNOK_clean_linker_0, # of connection points: 2
#     Edge 54, Type (0, 0), BuildingBlock: AJUNOK_clean_linker_0, # of connection points: 2
#     Edge 55, Type (0, 0), BuildingBlock: AJUNOK_clean_linker_0, # of connection points: 2
#     Edge 56, Type (0, 0), BuildingBlock: AJUNOK_clean_linker_0, # of connection points: 2
#     Edge 57, Type (0, 0), BuildingBlock: AJUNOK_clean_linker_0, # of connection points: 2
#     Edge 58, Type (0, 0), BuildingBlock: AJUNOK_clean_linker_0, # of connection points: 2
#     Edge 59, Type (0, 0), BuildingBlock: AJUNOK_clean_linker_0, # of connection points: 2
#     Edge 60, Type (0, 0), BuildingBlock: AJUNOK_clean_linker_0, # of connection points: 2
#     Edge 61, Type (0, 0), BuildingBlock: AJUNOK_clean_linker_0, # of connection points: 2
#     Edge 62, Type (0, 0), BuildingBlock: AJUNOK_clean_linker_0, # of connection points: 2
#     Edge 63, Type (0, 0), BuildingBlock: AJUNOK_clean_linker_0, # of connection points: 2
#     Edge 64, Type (0, 0), BuildingBlock: AJUNOK_clean_linker_0, # of connection points: 2
#     Edge 65, Type (0, 0), BuildingBlock: AJUNOK_clean_linker_0, # of connection points: 2
#     Edge 66, Type (0, 0), BuildingBlock: AJUNOK_clean_linker_0, # of connection points: 2
#     Edge 67, Type (0, 0), BuildingBlock: AJUNOK_clean_linker_0, # of connection points: 2
#     Edge 68, Type (0, 0), BuildingBlock: AJUNOK_clean_linker_0, # of connection points: 2
#     Edge 69, Type (0, 0), BuildingBlock: AJUNOK_clean_linker_0, # of connection points: 2
#     Edge 70, Type (0, 0), BuildingBlock: AJUNOK_clean_linker_0, # of connection points: 2
#     Edge 71, Type (0, 0), BuildingBlock: AJUNOK_clean_linker_0, # of connection points: 2
#     Edge 72, Type (0, 0), BuildingBlock: AJUNOK_clean_linker_0, # of connection points: 2
#     Edge 73, Type (0, 0), BuildingBlock: AJUNOK_clean_linker_0, # of connection points: 2
#     Edge 74, Type (0, 0), BuildingBlock: AJUNOK_clean_linker_0, # of connection points: 2
#     Edge 75, Type (0, 0), BuildingBlock: AJUNOK_clean_linker_0, # of connection points: 2
#     Edge 76, Type (0, 0), BuildingBlock: AJUNOK_clean_linker_0, # of connection points: 2
#     Edge 77, Type (0, 0), BuildingBlock: AJUNOK_clean_linker_0, # of connection points: 2
#     Edge 78, Type (0, 0), BuildingBlock: AJUNOK_clean_linker_0, # of connection points: 2
#     Edge 79, Type (0, 0), BuildingBlock: AJUNOK_clean_linker_0, # of connection points: 2
#     Edge 80, Type (0, 0), BuildingBlock: AJUNOK_clean_linker_0, # of connection points: 2
#     Edge 81, Type (0, 0), BuildingBlock: AJUNOK_clean_linker_0, # of connection points: 2
#     Edge 82, Type (0, 0), BuildingBlock: AJUNOK_clean_linker_0, # of connection points: 2
#     Edge 83, Type (0, 0), BuildingBlock: AJUNOK_clean_linker_0, # of connection points: 2
#     Edge 84, Type (0, 0), BuildingBlock: AJUNOK_clean_linker_0, # of connection points: 2
#     Edge 85, Type (0, 0), BuildingBlock: AJUNOK_clean_linker_0, # of connection points: 2
#     Edge 86, Type (0, 0), BuildingBlock: AJUNOK_clean_linker_0, # of connection points: 2
#     Edge 87, Type (0, 0), BuildingBlock: AJUNOK_clean_linker_0, # of connection points: 2
#     Edge 88, Type (0, 0), BuildingBlock: AJUNOK_clean_linker_0, # of connection points: 2
#     Edge 89, Type (0, 0), BuildingBlock: AJUNOK_clean_linker_0, # of connection points: 2
#     Edge 90, Type (0, 0), BuildingBlock: AJUNOK_clean_linker_0, # of connection points: 2
#     Edge 91, Type (0, 0), BuildingBlock: AJUNOK_clean_linker_0, # of connection points: 2
#     Edge 92, Type (0, 0), BuildingBlock: AJUNOK_clean_linker_0, # of connection points: 2
#     Edge 93, Type (0, 0), BuildingBlock: AJUNOK_clean_linker_0, # of connection points: 2
#     Edge 94, Type (0, 0), BuildingBlock: AJUNOK_clean_linker_0, # of connection points: 2
#     Edge 95, Type (0, 0), BuildingBlock: AJUNOK_clean_linker_0, # of connection points: 2
# Relax obj value: 0.156
# Max RMSD: 0.154
# Mean RMSD: 0.154
data_MOF--net-uod--node1-QUQFOY_clean_sbu_3--edge1-AJUNOK_clean_linker_0
_symmetry_space_group_name_H-M    P1
_symmetry_Int_Tables_number       1
_symmetry_cell_setting            triclinic
loop_
_symmetry_equiv_pos_as_xyz
'x, y, z'
_cell_length_a     67.434332
_cell_length_b     20.615682
_cell_length_c     48.223069
_cell_angle_alpha  90.046022
_cell_angle_beta   89.943149
_cell_angle_gamma 89.917727
loop_
_atom_site_label
_atom_site_type_symbol
_atom_site_fract_x
_atom_site_fract_y
_atom_site_fract_z
_atom_type_partial_charge
C0 C 0.01661 0.26657 0.14765 0.0
O1 O 0.02139 0.30169 0.16814 0.0
Cd2 Cd 0.04237 0.39357 0.15883 0.0
O3 O 0.02201 0.28218 0.12334 0.0
Cd4 Cd 0.03905 0.36782 0.09891 0.0
C5 C 0.08279 0.32604 0.12598 0.0
O6 O 0.03075 0.46709 0.12337 0.0
O7 O 0.05847 0.46287 0.1004 0.0
O8 O 0.00997 0.38478 0.07006 0.0
C9 C 0.04462 0.49672 0.11072 0.0
O10 O 0.07556 0.35369 0.14736 0.0
C11 C 0.01944 0.38826 0.04741 0.0
O12 O 0.0721 0.31816 0.10439 0.0
O13 O 0.03782 0.37425 0.0482 0.0
C14 C 0.24041 0.01784 0.1086 0.0
O15 O 0.23872 0.00521 0.13421 0.0
Cd16 Cd 0.21781 0.92066 0.15076 0.0
O17 O 0.23235 -0.01884 0.09075 0.0
Cd18 Cd 0.21582 0.87618 0.09312 0.0
C19 C 0.17344 0.9387 0.11595 0.0
O20 O 0.22791 0.81788 0.13365 0.0
O21 O 0.19761 0.80097 0.12061 0.0
O22 O 0.24248 0.82307 0.06843 0.0
C23 C 0.21279 0.78132 0.13359 0.0
O24 O 0.18288 0.93917 0.13883 0.0
C25 C 0.23211 0.7997 0.04895 0.0
O26 O 0.18229 0.92302 0.09349 0.0
O27 O 0.2138 0.815 0.04884 0.0
C28 C 0.01988 0.00405 0.1318 0.0
O29 O 0.02092 -0.00407 0.10577 0.0
Cd30 Cd 0.04213 0.9163 0.08554 0.0
O31 O 0.02869 0.96492 0.14794 0.0
Cd32 Cd 0.04578 0.86137 0.14076 0.0
C33 C 0.08724 0.93125 0.11884 0.0
O34 O 0.03251 0.81019 0.09931 0.0
O35 O 0.06326 0.79227 0.10911 0.0
O36 O 0.01966 0.80268 0.16372 0.0
C37 C 0.04732 0.77227 0.09814 0.0
O38 O 0.07713 0.9361 0.09663 0.0
C39 C 0.03012 0.7751 0.18202 0.0
O40 O 0.07913 0.90949 0.1409 0.0
O41 O 0.0484 0.79076 0.18271 0.0
C42 C 0.23531 0.28093 0.09924 0.0
O43 O 0.22926 0.31408 0.0788 0.0
Cd44 Cd 0.20707 0.40204 0.08842 0.0
O45 O 0.22994 0.29522 0.12376 0.0
Cd46 Cd 0.21207 0.37593 0.15059 0.0
C47 C 0.16829 0.33014 0.12414 0.0
O48 O 0.22086 0.47033 0.12384 0.0
O49 O 0.19539 0.47761 0.15126 0.0
O50 O 0.2427 0.38513 0.17587 0.0
C51 C 0.20885 0.50565 0.13742 0.0
O52 O 0.1751 0.35696 0.10234 0.0
C53 C 0.23507 0.39217 0.19967 0.0
O54 O 0.17899 0.32565 0.1459 0.0
O55 O 0.21638 0.38417 0.2014 0.0
C56 C 0.97667 0.69958 0.87174 0.0
O57 O 0.97934 0.67824 0.84737 0.0
Cd58 Cd 0.97565 0.56388 0.84011 0.0
O59 O 0.97316 0.66027 0.89143 0.0
Cd60 Cd 0.97047 0.54303 0.89804 0.0
C61 C 0.92808 0.53992 0.86261 0.0
O62 O 0.9987 0.50521 0.87066 0.0
O63 O 0.97494 0.43767 0.87561 0.0
O64 O 0.99055 0.55727 0.9392 0.0
C65 C 0.99343 0.44647 0.87251 0.0
O66 O 0.93934 0.54262 0.84142 0.0
C67 C 0.98124 0.5177 0.9545 0.0
O68 O 0.93556 0.5422 0.88677 0.0
O69 O 0.9654 0.49409 0.94446 0.0
C70 C 0.78982 0.97017 0.89891 0.0
O71 O 0.79194 0.00924 0.8788 0.0
Cd72 Cd 0.7969 0.12314 0.88051 0.0
O73 O 0.79007 -0.00946 0.92398 0.0
Cd74 Cd 0.79354 0.09755 0.94799 0.0
C75 C 0.83966 0.12539 0.92039 0.0
O76 O 0.77421 0.1573 0.9146 0.0
O77 O 0.79031 0.21456 0.94419 0.0
O78 O 0.76622 0.08089 0.98074 0.0
C79 C 0.77794 0.21269 0.92449 0.0
O80 O 0.83049 0.13617 0.89778 0.0
C81 C 0.77571 0.10181 0.00164 0.0
O82 O 0.83027 0.10602 0.9419 0.0
O83 O 0.79418 0.11133 0.99823 0.0
C84 C 0.97521 -0.02624 0.89976 0.0
O85 O 0.97682 -0.01074 0.9251 0.0
Cd86 Cd 0.97292 0.09926 0.93857 0.0
O87 O 0.97216 0.01739 0.88163 0.0
Cd88 Cd 0.9694 0.13683 0.88201 0.0
C89 C 0.92607 0.13213 0.91572 0.0
O90 O 0.99725 0.16248 0.91247 0.0
O91 O 0.97411 0.23381 0.90995 0.0
O92 O 0.98958 0.13338 0.84045 0.0
C93 C 0.99224 0.22137 0.91453 0.0
O94 O 0.93681 0.1221 0.93699 0.0
C95 C 0.98114 0.17967 0.82783 0.0
O96 O 0.93407 0.13638 0.8919 0.0
O97 O 0.96604 0.20412 0.83963 0.0
C98 C 0.79081 0.69224 0.87819 0.0
O99 O 0.79362 0.65646 0.89924 0.0
Cd100 Cd 0.79955 0.54339 0.90006 0.0
O101 O 0.79063 0.66794 0.85378 0.0
Cd102 Cd 0.79443 0.55657 0.83364 0.0
C103 C 0.84148 0.54025 0.85887 0.0
O104 O 0.77559 0.5014 0.86936 0.0
O105 O 0.79267 0.44079 0.84202 0.0
O106 O 0.76697 0.56849 0.80056 0.0
C107 C 0.77992 0.44493 0.8612 0.0
O108 O 0.83299 0.53113 0.88214 0.0
C109 C 0.77616 0.54095 0.78078 0.0
O110 O 0.83127 0.55469 0.83745 0.0
O111 O 0.79446 0.52931 0.78459 0.0
C112 C 0.02834 0.71251 0.61984 0.0
O113 O 0.03212 0.74368 0.6419 0.0
Cd114 Cd 0.04839 0.84455 0.64448 0.0
O115 O 0.03159 0.73778 0.59613 0.0
Cd116 Cd 0.04204 0.84538 0.57811 0.0
C117 C 0.0887 0.8154 0.60033 0.0
O118 O 0.0309 0.9142 0.61514 0.0
O119 O 0.0552 0.94962 0.59003 0.0
O120 O 0.01013 0.86242 0.55621 0.0
C121 C 0.04228 0.96037 0.60852 0.0
O122 O 0.08096 0.82628 0.62401 0.0
C123 C 0.01679 0.88445 0.53352 0.0
O124 O 0.078 0.81567 0.57839 0.0
O125 O 0.03551 0.88107 0.53004 0.0
C126 C 0.23594 0.44237 0.64449 0.0
O127 O 0.2361 0.42632 0.66987 0.0
Cd128 Cd 0.22182 0.32395 0.68392 0.0
O129 O 0.22994 0.40202 0.62644 0.0
Cd130 Cd 0.2186 0.28927 0.62706 0.0
C131 C 0.17543 0.33383 0.65293 0.0
O132 O 0.23627 0.22893 0.66121 0.0
O133 O 0.20502 0.21274 0.66094 0.0
O134 O 0.24557 0.25197 0.59866 0.0
C135 C 0.22223 0.18827 0.65906 0.0
O136 O 0.18551 0.33407 0.67534 0.0
C137 C 0.23546 0.22291 0.5804 0.0
O138 O 0.18397 0.32226 0.62983 0.0
O139 O 0.21668 0.22881 0.58212 0.0
C140 C 0.0282 0.43884 0.63752 0.0
O141 O 0.03095 0.3993 0.61773 0.0
Cd142 Cd 0.04624 0.29648 0.62269 0.0
O143 O 0.03232 0.42281 0.66242 0.0
Cd144 Cd 0.04393 0.3267 0.68846 0.0
C145 C 0.08906 0.3416 0.65863 0.0
O146 O 0.03038 0.24315 0.65969 0.0
O147 O 0.05554 0.2169 0.68501 0.0
O148 O 0.01433 0.32842 0.71763 0.0
C149 C 0.04179 0.19937 0.66882 0.0
O150 O 0.08008 0.32018 0.63726 0.0
C151 C 0.0234 0.31139 0.73946 0.0
O152 O 0.07956 0.353 0.68112 0.0
O153 O 0.04226 0.31073 0.7385 0.0
C154 C 0.2357 0.7092 0.60849 0.0
O155 O 0.23541 0.72272 0.58284 0.0
Cd156 Cd 0.22128 0.82468 0.56807 0.0
O157 O 0.22994 0.75128 0.62599 0.0
Cd158 Cd 0.21863 0.86422 0.62325 0.0
C159 C 0.17511 0.81904 0.59892 0.0
O160 O 0.23689 0.92104 0.58808 0.0
O161 O 0.20577 0.94008 0.58902 0.0
O162 O 0.24479 0.89603 0.65464 0.0
C163 C 0.22316 0.96322 0.58766 0.0
O164 O 0.1848 0.81859 0.57618 0.0
C165 C 0.23451 0.93325 0.66988 0.0
O166 O 0.18407 0.83003 0.62173 0.0
O167 O 0.21597 0.93502 0.66493 0.0
C168 C 0.96628 0.22727 0.37927 0.0
O169 O 0.9628 0.20198 0.35578 0.0
Cd170 Cd 0.94621 0.10337 0.34759 0.0
O171 O 0.96106 0.19873 0.40155 0.0
Cd172 Cd 0.94686 0.09087 0.41294 0.0
C173 C 0.90201 0.12146 0.38377 0.0
O174 O 0.96306 0.03049 0.37681 0.0
O175 O 0.93714 -0.01362 0.39539 0.0
O176 O 0.9761 0.0727 0.44071 0.0
C177 C 0.95273 -0.0196 0.38094 0.0
O178 O 0.91162 0.11492 0.3612 0.0
C179 C 0.96764 0.04382 0.46063 0.0
O180 O 0.91107 0.11963 0.40708 0.0
O181 O 0.94874 0.04398 0.46041 0.0
C182 C 0.77711 0.51776 0.3666 0.0
O183 O 0.77913 0.55144 0.34476 0.0
Cd184 Cd 0.79521 0.6536 0.34591 0.0
O185 O 0.78403 0.53734 0.3897 0.0
Cd186 Cd 0.80088 0.62983 0.41088 0.0
C187 C 0.84184 0.61149 0.36996 0.0
O188 O 0.77941 0.70019 0.38552 0.0
O189 O 0.80323 0.74631 0.40803 0.0
O190 O 0.77768 0.60568 0.44822 0.0
C191 C 0.78671 0.75125 0.39576 0.0
O192 O 0.83064 0.63099 0.35043 0.0
C193 C 0.78758 0.63441 0.46687 0.0
O194 O 0.8349 0.60406 0.39443 0.0
O195 O 0.80502 0.65221 0.46038 0.0
C196 C 0.98514 0.4945 0.36882 0.0
O197 O 0.9846 0.53585 0.38831 0.0
Cd198 Cd 0.97136 0.64297 0.38304 0.0
O199 O 0.9808 0.51068 0.34407 0.0
Cd200 Cd 0.97136 0.60505 0.31653 0.0
C201 C 0.92717 0.5975 0.35105 0.0
O202 O 0.98313 0.69568 0.34285 0.0
O203 O 0.95811 0.71035 0.31521 0.0
O204 O 1.00129 0.61063 0.28902 0.0
C205 C 0.97053 0.73406 0.33209 0.0
O206 O 0.93705 0.6196 0.37151 0.0
C207 C 0.99254 0.61461 0.26578 0.0
O208 O 0.93571 0.58373 0.32799 0.0
O209 O 0.97387 0.60453 0.2658 0.0
C210 C 0.75824 0.24925 0.36707 0.0
O211 O 0.75778 0.22164 0.39061 0.0
Cd212 Cd 0.76857 0.11363 0.40042 0.0
O213 O 0.7635 0.21814 0.34552 0.0
Cd214 Cd 0.77303 0.10917 0.33225 0.0
C215 C 0.81556 0.12406 0.37138 0.0
O216 O 0.75445 0.04657 0.36608 0.0
O217 O 0.77828 0.00014 0.34311 0.0
O218 O 0.74737 0.10007 0.29717 0.0
C219 C 0.76396 -0.00453 0.35995 0.0
O220 O 0.80433 0.11713 0.39244 0.0
C221 C 0.7589 0.08202 0.27782 0.0
O222 O 0.8082 0.12662 0.3469 0.0
O223 O 0.77741 0.08352 0.28303 0.0
C224 C 0.54851 0.20361 0.60933 0.0
O225 O 0.5507 0.24035 0.63025 0.0
Cd226 Cd 0.55605 0.35404 0.63056 0.0
O227 O 0.54861 0.22687 0.58477 0.0
Cd228 Cd 0.55175 0.33597 0.56283 0.0
C229 C 0.59828 0.35938 0.58951 0.0
O230 O 0.53336 0.39457 0.59784 0.0
O231 O 0.54949 0.45238 0.56846 0.0
O232 O 0.52356 0.323 0.53156 0.0
C233 C 0.53766 0.45034 0.58883 0.0
O234 O 0.58936 0.36742 0.61256 0.0
C235 C 0.53269 0.34251 0.5101 0.0
O236 O 0.58858 0.34355 0.56776 0.0
O237 O 0.5513 0.35068 0.51254 0.0
C238 C 0.73879 0.95362 0.63391 0.0
O239 O 0.7406 0.93751 0.65914 0.0
Cd240 Cd 0.73709 0.82644 0.67165 0.0
O241 O 0.73603 0.91029 0.61557 0.0
Cd242 Cd 0.73407 0.79145 0.61518 0.0
C243 C 0.69043 0.79393 0.64792 0.0
O244 O 0.76129 0.76154 0.64609 0.0
O245 O 0.73689 0.69495 0.64353 0.0
O246 O 0.75558 0.79348 0.5747 0.0
C247 C 0.75518 0.70383 0.64829 0.0
O248 O 0.70118 0.80105 0.6694 0.0
C249 C 0.74684 0.7488 0.56142 0.0
O250 O 0.69852 0.79253 0.62407 0.0
O251 O 0.73109 0.7266 0.57227 0.0
C252 C 0.55105 0.92602 0.62938 0.0
O253 O 0.55412 0.88848 0.60894 0.0
Cd254 Cd 0.56154 0.77618 0.61017 0.0
O255 O 0.55151 0.90459 0.65427 0.0
Cd256 Cd 0.55647 0.79727 0.67754 0.0
C257 C 0.60366 0.78394 0.65128 0.0
O258 O 0.53837 0.73841 0.64292 0.0
O259 O 0.55434 0.67979 0.67225 0.0
O260 O 0.52828 0.81237 0.70882 0.0
C261 C 0.54211 0.68271 0.6524 0.0
O262 O 0.5952 0.77233 0.6282 0.0
C263 C 0.53714 0.79133 0.73023 0.0
O264 O 0.59335 0.79765 0.67278 0.0
O265 O 0.55566 0.7811 0.72783 0.0
C266 C 0.73538 0.22776 0.60676 0.0
O267 O 0.73739 0.2491 0.58228 0.0
Cd268 Cd 0.7327 0.36194 0.57379 0.0
O269 O 0.73147 0.26662 0.62654 0.0
Cd270 Cd 0.72665 0.38383 0.63242 0.0
C271 C 0.68469 0.379 0.59517 0.0
O272 O 0.75527 0.41885 0.60538 0.0
O273 O 0.73214 0.48891 0.61033 0.0
O274 O 0.74477 0.3717 0.67573 0.0
C275 C 0.75054 0.47803 0.60731 0.0
O276 O 0.69617 0.37782 0.57421 0.0
C277 C 0.73522 0.41417 0.68933 0.0
O278 O 0.69199 0.37877 0.61947 0.0
O279 O 0.72021 0.43849 0.67728 0.0
C280 C 0.49448 0.6883 0.3513 0.0
O281 O 0.49394 0.66981 0.32623 0.0
Cd282 Cd 0.47802 0.56781 0.31542 0.0
O283 O 0.48849 0.6505 0.3703 0.0
Cd284 Cd 0.47579 0.54027 0.37291 0.0
C285 C 0.43283 0.58916 0.34899 0.0
O286 O 0.49117 0.47227 0.33927 0.0
O287 O 0.45964 0.46351 0.34145 0.0
O288 O 0.50272 0.50207 0.40141 0.0
C289 C 0.47631 0.43545 0.343 0.0
O290 O 0.44227 0.58525 0.32609 0.0
C291 C 0.49231 0.4776 0.4206 0.0
O292 O 0.44183 0.57902 0.37183 0.0
O293 O 0.47365 0.48649 0.419 0.0
C294 C 0.2817 -0.01587 0.38504 0.0
O295 O 0.28521 0.02417 0.36569 0.0
Cd296 Cd 0.30103 0.12589 0.37331 0.0
O297 O 0.28559 -0.00171 0.4102 0.0
Cd298 Cd 0.29778 0.0891 0.4387 0.0
C299 C 0.34319 0.07291 0.4086 0.0
O300 O 0.28561 0.17759 0.41149 0.0
O301 O 0.30993 0.19889 0.4392 0.0
O302 O 0.26776 0.09049 0.46664 0.0
C303 C 0.29697 0.21933 0.42233 0.0
O304 O 0.33465 0.09739 0.38746 0.0
C305 C 0.27645 0.09343 0.48992 0.0
O306 O 0.33327 0.06016 0.43059 0.0
O307 O 0.29524 0.087 0.4896 0.0
C308 C 0.49171 0.95463 0.38598 0.0
O309 O 0.49215 0.96758 0.41168 0.0
Cd310 Cd 0.47696 0.06586 0.42833 0.0
O311 O 0.48463 -0.00407 0.36915 0.0
Cd312 Cd 0.47238 0.10762 0.37341 0.0
C313 C 0.42966 0.06237 0.40064 0.0
O314 O 0.49095 0.16427 0.40875 0.0
O315 O 0.4598 0.18354 0.40752 0.0
O316 O 0.49826 0.14708 0.34347 0.0
C317 C 0.47716 0.20608 0.41026 0.0
O318 O 0.44047 0.05881 0.42228 0.0
C319 C 0.48748 0.17965 0.32712 0.0
O320 O 0.43759 0.07526 0.37725 0.0
O321 O 0.4688 0.17499 0.33063 0.0
C322 C 0.28425 0.71252 0.36924 0.0
O323 O 0.28884 0.68579 0.39201 0.0
Cd324 Cd 0.30593 0.58673 0.39759 0.0
O325 O 0.2878 0.68443 0.34619 0.0
Cd326 Cd 0.30016 0.57495 0.33296 0.0
C327 C 0.3466 0.60657 0.35403 0.0
O328 O 0.28837 0.50984 0.37129 0.0
O329 O 0.31394 0.47398 0.34888 0.0
O330 O 0.27056 0.54708 0.30697 0.0
C331 C 0.3003 0.46386 0.36639 0.0
O332 O 0.33918 0.59893 0.37813 0.0
C333 C 0.27951 0.52778 0.28535 0.0
O334 O 0.3355 0.60559 0.33259 0.0
O335 O 0.29818 0.5364 0.28472 0.0
C336 C 0.52187 0.74413 0.11933 0.0
O337 O 0.5249 0.78098 0.13996 0.0
Cd338 Cd 0.53908 0.88594 0.13828 0.0
O339 O 0.52504 0.7642 0.09467 0.0
Cd340 Cd 0.53519 0.86673 0.07156 0.0
C341 C 0.58124 0.85005 0.09922 0.0
O342 O 0.5222 0.94512 0.10392 0.0
O343 O 0.54658 -0.02364 0.07823 0.0
O344 O 0.50594 0.87395 0.04167 0.0
C345 C 0.5335 -0.00952 0.09608 0.0
O346 O 0.57286 0.86742 0.12176 0.0
C347 C 0.51552 0.88613 0.01963 0.0
O348 O 0.57105 0.84144 0.07715 0.0
O349 O 0.53433 0.88225 0.02116 0.0
C350 C 0.73498 0.48184 0.14201 0.0
O351 O 0.73514 0.47005 0.1678 0.0
Cd352 Cd 0.72025 0.37194 0.18463 0.0
O353 O 0.72883 0.43876 0.12528 0.0
Cd354 Cd 0.71808 0.32575 0.13082 0.0
C355 C 0.67423 0.37187 0.15297 0.0
O356 O 0.73565 0.2724 0.16797 0.0
O357 O 0.70441 0.25584 0.16651 0.0
O358 O 0.74472 0.2877 0.10161 0.0
C359 C 0.72154 0.23218 0.17034 0.0
O360 O 0.68393 0.37719 0.17558 0.0
C361 C 0.73454 0.25007 0.08649 0.0
O362 O 0.6833 0.35721 0.1306 0.0
O363 O 0.71587 0.25073 0.09044 0.0
C364 C 0.52633 0.47013 0.13892 0.0
O365 O 0.52945 0.43431 0.11796 0.0
Cd366 Cd 0.54462 0.33095 0.11903 0.0
O367 O 0.53034 0.44993 0.1633 0.0
Cd368 Cd 0.54243 0.34778 0.18509 0.0
C369 C 0.58767 0.36779 0.15554 0.0
O370 O 0.52783 0.27131 0.15348 0.0
O371 O 0.55294 0.23676 0.17684 0.0
O372 O 0.51402 0.33893 0.21625 0.0
C373 C 0.53876 0.22429 0.16049 0.0
O374 O 0.57877 0.35052 0.13345 0.0
C375 C 0.52404 0.32735 0.23793 0.0
O376 O 0.57804 0.37471 0.17823 0.0
O377 O 0.54278 0.33228 0.23564 0.0
C378 C 0.73099 0.74722 0.10796 0.0
O379 O 0.72982 0.76686 0.0831 0.0
Cd380 Cd 0.71434 0.87105 0.07419 0.0
O381 O 0.72461 0.78262 0.12756 0.0
Cd382 Cd 0.7105 0.89023 0.13269 0.0
C383 C 0.66783 0.85118 0.10329 0.0
O384 O 0.72776 0.96066 0.10152 0.0
O385 O 0.6966 -0.02118 0.1057 0.0
O386 O 0.73665 0.92327 0.1635 0.0
C387 C 0.71405 0.00147 0.10638 0.0
O388 O 0.67816 0.85809 0.08133 0.0
C389 C 0.72588 0.94222 0.18341 0.0
O390 O 0.67612 0.85518 0.12702 0.0
O391 O 0.70732 0.9324 0.18095 0.0
C392 C 0.48462 0.26694 0.88271 0.0
O393 O 0.48602 0.25981 0.85667 0.0
Cd394 Cd 0.47053 0.17027 0.8339 0.0
O395 O 0.47619 0.22365 0.89718 0.0
Cd396 Cd 0.46412 0.1147 0.88651 0.0
C397 C 0.42217 0.16287 0.85793 0.0
O398 O 0.4844 0.06921 0.84962 0.0
O399 O 0.45341 0.04722 0.84834 0.0
O400 O 0.4891 0.07096 0.9169 0.0
C401 C 0.47103 0.02799 0.84432 0.0
O402 O 0.43385 0.17276 0.83755 0.0
C403 C 0.47801 0.03524 0.93155 0.0
O404 O 0.42924 0.14571 0.88136 0.0
O405 O 0.45952 0.03793 0.9263 0.0
C406 C 0.2766 0.48995 0.8703 0.0
O407 O 0.28109 0.52226 0.84883 0.0
Cd408 Cd 0.29801 0.62269 0.84827 0.0
O409 O 0.28021 0.51229 0.89445 0.0
Cd410 Cd 0.29289 0.6144 0.9149 0.0
C411 C 0.33899 0.58649 0.88946 0.0
O412 O 0.28128 0.68941 0.88032 0.0
O413 O 0.30561 0.72135 0.90612 0.0
O414 O 0.26291 0.6307 0.94184 0.0
C415 C 0.29269 0.73466 0.88796 0.0
O416 O 0.33125 0.60136 0.86621 0.0
C417 C 0.27147 0.64339 0.96459 0.0
O418 O 0.32835 0.58328 0.9114 0.0
O419 O 0.29022 0.63608 0.96508 0.0
C420 C 0.48819 0.52903 0.91215 0.0
O421 O 0.48456 0.55845 0.93467 0.0
Cd422 Cd 0.46603 0.65846 0.93067 0.0
O423 O 0.48332 0.55433 0.8892 0.0
Cd424 Cd 0.46904 0.65204 0.8709 0.0
C425 C 0.4249 0.60708 0.89407 0.0
O426 O 0.47946 0.74075 0.8998 0.0
O427 O 0.44987 0.74447 0.88258 0.0
O428 O 0.49912 0.67144 0.84521 0.0
C429 C 0.46569 0.77423 0.88882 0.0
O430 O 0.43226 0.62737 0.91684 0.0
C431 C 0.49116 0.68484 0.82214 0.0
O432 O 0.43564 0.60489 0.87226 0.0
O433 O 0.4724 0.67795 0.82071 0.0
C434 C 0.27393 0.21719 0.85439 0.0
O435 O 0.27578 0.18007 0.87519 0.0
Cd436 Cd 0.29325 0.0803 0.87359 0.0
O437 O 0.27987 0.19929 0.83046 0.0
Cd438 Cd 0.2938 0.1025 0.80731 0.0
C439 C 0.33677 0.1331 0.84126 0.0
O440 O 0.28033 0.01925 0.83649 0.0
O441 O 0.30702 -0.0051 0.81392 0.0
O442 O 0.26525 0.09907 0.77643 0.0
C443 C 0.29286 -0.02331 0.82931 0.0
O444 O 0.32722 0.11142 0.86212 0.0
C445 C 0.27495 0.08373 0.75485 0.0
O446 O 0.32818 0.13957 0.81774 0.0
O447 O 0.29379 0.08455 0.75684 0.0
C448 C 0.06202 0.66403 0.09175 0.0
C449 C 0.04489 0.702 0.09507 0.0
C450 C 0.06166 0.59765 0.09688 0.0
C451 C 0.04416 0.56677 0.10553 0.0
H452 H 0.07609 0.68636 0.08659 0.0
H453 H 0.07541 0.57076 0.09482 0.0
S454 S 0.99452 0.64249 0.11273 0.0
N455 N 0.00937 0.70303 0.10435 0.0
N456 N 0.00871 0.5772 0.11381 0.0
C457 C 0.02658 0.6032 0.1071 0.0
C458 C 0.02691 0.6711 0.10171 0.0
C459 C 0.19659 0.68135 0.14925 0.0
C460 C 0.21396 0.71279 0.14065 0.0
C461 C 0.19526 0.614 0.14864 0.0
C462 C 0.21116 0.57613 0.13898 0.0
H463 H 0.1836 0.70918 0.15517 0.0
H464 H 0.18138 0.59172 0.15474 0.0
S465 S 0.26058 0.6356 0.11665 0.0
N466 N 0.24791 0.70187 0.12424 0.0
N467 N 0.24544 0.57446 0.12295 0.0
C468 C 0.22903 0.60688 0.13175 0.0
C469 C 0.23045 0.6756 0.13274 0.0
C470 C 1.00338 0.3298 0.92694 0.0
C471 C 1.00641 0.2745 0.91063 0.0
C472 C 1.00381 0.3912 0.91476 0.0
C473 C 1.00636 0.39844 0.88605 0.0
H474 H 0.99755 0.32527 0.94781 0.0
H475 H 0.99883 0.43154 0.92683 0.0
S476 S 0.02685 0.27343 0.8394 0.0
N477 N 0.02132 0.23356 0.86813 0.0
N478 N 0.02035 0.34976 0.8447 0.0
C479 C 0.01399 0.34568 0.87133 0.0
C480 C 0.01452 0.28319 0.88401 0.0
C481 C 0.77459 0.32662 0.86422 0.0
C482 C 0.77472 0.38736 0.8774 0.0
C483 C 0.77378 0.2695 0.87968 0.0
C484 C 0.77361 0.27167 0.90878 0.0
H485 H 0.77606 0.32316 0.84189 0.0
H486 H 0.77477 0.22362 0.86881 0.0
S487 S 0.7707 0.41835 0.95298 0.0
N488 N 0.77189 0.44651 0.92098 0.0
N489 N 0.77116 0.33852 0.95014 0.0
C490 C 0.7722 0.33194 0.92212 0.0
C491 C 0.77253 0.39015 0.90636 0.0
C492 C 0.02466 0.04731 0.63363 0.0
C493 C 0.04262 0.01962 0.62489 0.0
C494 C 0.02453 0.10554 0.64837 0.0
C495 C 0.04238 0.1362 0.65542 0.0
H496 H 0.01065 0.02483 0.62837 0.0
H497 H 0.01046 0.12683 0.65416 0.0
S498 S 0.09332 0.08073 0.63864 0.0
N499 N 0.07865 0.02529 0.6249 0.0
N500 N 0.07844 0.13432 0.65339 0.0
C501 C 0.06047 0.10781 0.64759 0.0
C502 C 0.06057 0.04945 0.63204 0.0
C503 C 0.20882 0.06683 0.6034 0.0
C504 C 0.22581 0.02791 0.60067 0.0
C505 C 0.20791 0.11682 0.6227 0.0
C506 C 0.2243 0.13305 0.63942 0.0
H507 H 0.19549 0.05593 0.59176 0.0
H508 H 0.19402 0.14302 0.62429 0.0
S509 S 0.27385 0.05534 0.63637 0.0
N510 N 0.26042 0.01385 0.61387 0.0
N511 N 0.25903 0.11173 0.64927 0.0
C512 C 0.24208 0.09871 0.63516 0.0
C513 C 0.24284 0.04575 0.61584 0.0
C514 C 0.94258 0.87857 0.35849 0.0
C515 C 0.9578 0.91907 0.36787 0.0
C516 C 0.94698 0.81906 0.34638 0.0
C517 C 0.96672 0.7978 0.34393 0.0
H518 H 0.92718 0.89312 0.36035 0.0
H519 H 0.9348 0.7889 0.33945 0.0
S520 S 0.01181 0.88577 0.36606 0.0
N521 N 0.99328 0.93476 0.37417 0.0
N522 N 1.00157 0.82093 0.35194 0.0
C523 C 0.98209 0.83755 0.35345 0.0
C524 C 0.97761 0.89895 0.36526 0.0
C525 C 0.76252 0.82024 0.37088 0.0
C526 C 0.77692 0.8139 0.39178 0.0
C527 C 0.75563 0.88129 0.36308 0.0
C528 C 0.76269 0.93703 0.37633 0.0
H529 H 0.75773 0.77857 0.35895 0.0
H530 H 0.74632 0.88532 0.34484 0.0
S531 S 0.79689 0.94545 0.43614 0.0
N532 N 0.79538 0.86738 0.42869 0.0
N533 N 0.78223 -0.01742 0.41378 0.0
C534 C 0.77514 0.93089 0.39937 0.0
C535 C 0.78239 0.86891 0.40716 0.0
C536 C 0.53671 0.62672 0.60768 0.0
C537 C 0.53689 0.62447 0.63677 0.0
C538 C 0.53557 0.56974 0.59217 0.0
C539 C 0.53413 0.5091 0.60528 0.0
H540 H 0.53879 0.67221 0.59683 0.0
H541 H 0.53679 0.57294 0.5698 0.0
S542 S 0.53007 0.47948 0.68097 0.0
N543 N 0.53303 0.55871 0.67815 0.0
N544 N 0.52998 0.45115 0.64893 0.0
C545 C 0.53229 0.50696 0.63431 0.0
C546 C 0.53397 0.56493 0.65012 0.0
C547 C 0.76356 0.59399 0.66166 0.0
C548 C 0.7683 0.6476 0.64517 0.0
C549 C 0.76157 0.53286 0.64954 0.0
C550 C 0.76399 0.52424 0.62087 0.0
H551 H 0.75797 0.601 0.68255 0.0
H552 H 0.75526 0.49482 0.66172 0.0
S553 S 0.78846 0.64006 0.57384 0.0
N554 N 0.78442 0.68211 0.60253 0.0
N555 N 0.77946 0.56668 0.57935 0.0
C556 C 0.77336 0.57349 0.60601 0.0
C557 C 0.77606 0.63552 0.61856 0.0
C558 C 0.49486 0.34104 0.36373 0.0
C559 C 0.47791 0.38089 0.363 0.0
C560 C 0.49588 0.28747 0.38176 0.0
C561 C 0.48008 0.27283 0.39988 0.0
H562 H 0.50696 0.34951 0.3494 0.0
H563 H 0.50842 0.25487 0.38003 0.0
S564 S 0.43448 0.37009 0.41071 0.0
N565 N 0.4462 0.40672 0.38513 0.0
N566 N 0.44881 0.30862 0.41949 0.0
C567 C 0.46416 0.31641 0.40145 0.0
C568 C 0.46277 0.36935 0.38271 0.0
C569 C 0.28149 0.3759 0.389 0.0
C570 C 0.29981 0.40446 0.3827 0.0
C571 C 0.28068 0.3161 0.40249 0.0
C572 C 0.29815 0.28451 0.41074 0.0
H573 H 0.26776 0.39868 0.38252 0.0
H574 H 0.26634 0.29406 0.40621 0.0
S575 S 0.34972 0.34224 0.40079 0.0
N576 N 0.33572 0.39896 0.38659 0.0
N577 N 0.33421 0.28707 0.41281 0.0
C578 C 0.31654 0.31403 0.40562 0.0
C579 C 0.31737 0.37406 0.3913 0.0
C580 C 0.5193 0.13958 0.13644 0.0
C581 C 0.53779 0.16301 0.1453 0.0
C582 C 0.51798 0.08296 0.12062 0.0
C583 C 0.53517 0.0496 0.11253 0.0
H584 H 0.50577 0.16509 0.14186 0.0
H585 H 0.50351 0.06582 0.11426 0.0
S586 S 0.58708 0.09056 0.13069 0.0
N587 N 0.5736 0.14799 0.14542 0.0
N588 N 0.57113 0.04227 0.11496 0.0
C589 C 0.55375 0.07235 0.12129 0.0
C590 C 0.55506 0.12902 0.13793 0.0
C591 C 0.73525 0.09283 0.12418 0.0
C592 C 0.71786 0.0555 0.12599 0.0
C593 C 0.73814 0.14674 0.14165 0.0
C594 C 0.72385 0.16393 0.16173 0.0
H595 H 0.7461 0.08264 0.10816 0.0
H596 H 0.75072 0.17804 0.13777 0.0
S597 S 0.67821 0.07335 0.17935 0.0
N598 N 0.68757 0.03465 0.1524 0.0
N599 N 0.6939 0.13259 0.18599 0.0
C600 C 0.7078 0.12209 0.166 0.0
C601 C 0.70442 0.06921 0.14773 0.0
C602 C 0.45622 0.85772 0.85443 0.0
C603 C 0.46967 0.83643 0.87482 0.0
C604 C 0.4587 0.91686 0.84111 0.0
C605 C 0.47439 0.95817 0.84816 0.0
H606 H 0.44322 0.82953 0.84912 0.0
H607 H 0.44716 0.93303 0.82706 0.0
S608 S 0.51656 0.9179 0.89445 0.0
N609 N 0.50149 0.85514 0.89715 0.0
N610 N 0.50583 0.96858 0.87257 0.0
C611 C 0.48923 0.93463 0.86607 0.0
C612 C 0.48683 0.87342 0.87951 0.0
C613 C 0.27537 0.8237 0.86372 0.0
C614 C 0.2932 0.79583 0.87283 0.0
C615 C 0.27541 0.88254 0.84943 0.0
C616 C 0.29332 0.91389 0.84319 0.0
H617 H 0.26131 0.8005 0.86812 0.0
H618 H 0.26138 0.90349 0.84312 0.0
S619 S 0.344 0.85916 0.86169 0.0
N620 N 0.32919 0.80281 0.8744 0.0
N621 N 0.32931 0.91294 0.84678 0.0
C622 C 0.31128 0.88581 0.85168 0.0
C623 C 0.31121 0.82675 0.86678 0.0
C624 C 0.97994 0.45039 0.99786 0.0
C625 C 0.99093 0.48841 0.97915 0.0
C626 C 0.9893 0.41643 0.01946 0.0
C627 C 0.01006 0.41762 0.02264 0.0
H628 H 0.96398 0.44677 0.9958 0.0
H629 H 0.98021 0.38903 0.0338 0.0
S630 S 0.04574 0.50857 0.97889 0.0
N631 N 0.02385 0.5249 0.96532 0.0
N632 N 0.04132 0.45986 0.0053 0.0
C633 C 0.02124 0.45468 0.00387 0.0
C634 C 0.01172 0.49048 0.98235 0.0
C635 C 0.27112 0.70224 0.00998 0.0
C636 C 0.26052 0.6749 0.98777 0.0
C637 C 0.26171 0.74179 0.02965 0.0
C638 C 0.24127 0.75583 0.02803 0.0
H639 H 0.28698 0.69506 0.01169 0.0
H640 H 0.2707 0.7625 0.04601 0.0
S641 S 0.2063 0.69085 0.97557 0.0
N642 N 0.22806 0.66068 0.96652 0.0
N643 N 0.21044 0.73506 0.00353 0.0
C644 C 0.23029 0.72653 0.00666 0.0
C645 C 0.23989 0.68604 0.98658 0.0
C646 C 0.03176 0.70485 0.22459 0.0
C647 C 0.02115 0.72719 0.20141 0.0
C648 C 0.02284 0.66393 0.24427 0.0
C649 C 1.00298 0.6434 0.2415 0.0
H650 H 0.04681 0.721 0.22818 0.0
H651 H 0.03135 0.65097 0.26248 0.0
S652 S 0.96967 0.6804 0.18237 0.0
N653 N 0.99031 0.72 0.1753 0.0
N654 N 0.97375 0.643 0.21206 0.0
C655 C 0.99269 0.66165 0.21739 0.0
C656 C 1.0017 0.70365 0.19746 0.0
C657 C 0.23735 0.44839 0.24554 0.0
C658 C 0.24695 0.41933 0.22281 0.0
C659 C 0.24799 0.48404 0.26533 0.0
C660 C 0.26869 0.49211 0.26326 0.0
H661 H 0.22138 0.44551 0.24764 0.0
H662 H 0.23981 0.50585 0.2823 0.0
S663 S 0.30116 0.42141 0.20881 0.0
N664 N 0.2786 0.39792 0.2002 0.0
N665 N 0.29853 0.46483 0.23735 0.0
C666 C 0.27857 0.46173 0.24105 0.0
C667 C 0.26774 0.4253 0.22091 0.0
C668 C 0.7754 0.17077 0.04412 0.0
C669 C 0.76519 0.12833 0.02631 0.0
C670 C 0.7653 0.20899 0.06354 0.0
C671 C 0.74452 0.20637 0.06624 0.0
H672 H 0.79128 0.17724 0.04215 0.0
H673 H 0.77394 0.24212 0.07609 0.0
S674 S 0.71106 0.09528 0.02789 0.0
N675 N 0.73326 0.08048 0.0148 0.0
N676 N 0.7143 0.15184 0.05173 0.0
C677 C 0.73421 0.16094 0.04994 0.0
C678 C 0.74453 0.12202 0.02994 0.0
C679 C 0.98436 0.27135 0.79376 0.0
C680 C 0.99031 0.20924 0.80283 0.0
C681 C 0.99518 0.30501 0.77338 0.0
C682 C 0.01257 0.27842 0.76199 0.0
H683 H 0.97164 0.29504 0.80305 0.0
H684 H 0.99016 0.35259 0.76692 0.0
S685 S 0.03306 0.11456 0.77569 0.0
N686 N 0.01358 0.12003 0.7963 0.0
N687 N 0.03414 0.18428 0.75898 0.0
C688 C 0.0182 0.21557 0.76999 0.0
C689 C 1.00698 0.18065 0.79009 0.0
C690 C 0.76333 0.42525 0.72254 0.0
C691 C 0.74417 0.44452 0.71436 0.0
C692 C 0.77376 0.45874 0.74311 0.0
C693 C 0.76544 0.51255 0.75681 0.0
H694 H 0.77064 0.38465 0.71255 0.0
H695 H 0.78838 0.44122 0.74868 0.0
S696 S 0.7158 0.58356 0.74331 0.0
N697 N 0.71736 0.52199 0.72148 0.0
N698 N 0.73684 0.58385 0.76081 0.0
C699 C 0.74623 0.53223 0.74914 0.0
C700 C 0.73563 0.49849 0.72782 0.0
C701 C 1.00035 0.00131 0.47714 0.0
C702 C 0.9796 0.0048 0.48056 0.0
C703 C 0.0121 0.96026 0.4935 0.0
C704 C 1.00368 0.92092 0.51418 0.0
H705 H 0.0077 0.03013 0.46143 0.0
H706 H 0.028 0.96043 0.49021 0.0
S707 S 0.95002 0.91061 0.53141 0.0
N708 N 0.95109 0.96422 0.50605 0.0
N709 N 0.97312 0.88748 0.53699 0.0
C710 C 0.98291 0.92359 0.51781 0.0
C711 C 0.97092 0.96542 0.50104 0.0
C712 C 0.24515 0.13106 0.51318 0.0
C713 C 0.26547 0.11493 0.51511 0.0
C714 C 0.23531 0.16412 0.53467 0.0
C715 C 0.24543 0.18291 0.55882 0.0
H716 H 0.23694 0.12065 0.49441 0.0
H717 H 0.21988 0.17724 0.53184 0.0
S718 S 0.29782 0.14362 0.57609 0.0
N719 N 0.29464 0.11368 0.54467 0.0
N720 N 0.27632 0.17609 0.5848 0.0
C721 C 0.26537 0.16334 0.56178 0.0
C722 C 0.27533 0.12922 0.54003 0.0
C723 C 0.26478 0.96731 0.69596 0.0
C724 C 0.24429 -0.02531 0.69111 0.0
C725 C 0.27482 0.00619 0.71519 0.0
C726 C 0.26478 0.05357 0.73079 0.0
H727 H 0.27323 0.93077 0.68492 0.0
H728 H 0.29043 -0.00314 0.71871 0.0
S729 S 0.21154 0.09694 0.72439 0.0
N730 N 0.21462 0.0369 0.7021 0.0
N731 N 0.23342 0.10878 0.73889 0.0
C732 C 0.24443 0.06302 0.72563 0.0
C733 C 0.2342 0.02383 0.70572 0.0
C734 C 0.78405 0.71779 0.5039 0.0
C735 C 0.7777 0.65879 0.49228 0.0
C736 C 0.77337 0.74791 0.52526 0.0
C737 C 0.75604 0.71983 0.53628 0.0
H738 H 0.7971 0.74207 0.49592 0.0
H739 H 0.77901 0.79313 0.53352 0.0
S740 S 0.73345 0.5644 0.5136 0.0
N741 N 0.75302 0.57306 0.49332 0.0
N742 N 0.73321 0.62858 0.53411 0.0
C743 C 0.74953 0.66062 0.52489 0.0
C744 C 0.76033 0.63029 0.50284 0.0
C745 C 0.72227 0.00739 0.22713 0.0
C746 C 0.7346 -0.0216 0.20712 0.0
C747 C 0.73023 0.04348 0.24915 0.0
C748 C 0.75088 0.05204 0.25212 0.0
H749 H 0.70632 0.00209 0.22588 0.0
H750 H 0.72008 0.06351 0.26434 0.0
S751 S 0.78964 -0.01137 0.20455 0.0
N752 N 0.76858 0.96276 0.19117 0.0
N753 N 0.78343 0.0303 0.23246 0.0
C754 C 0.76335 0.02466 0.23186 0.0
C755 C 0.75526 -0.01212 0.20945 0.0
C756 C 0.52267 0.43323 0.44338 0.0
C757 C 0.50185 0.43855 0.4428 0.0
C758 C 0.53243 0.39819 0.46415 0.0
C759 C 0.52182 0.3667 0.48534 0.0
H760 H 0.53167 0.45753 0.42795 0.0
H761 H 0.54849 0.39808 0.46415 0.0
S762 S 0.46692 0.35868 0.49144 0.0
N763 N 0.47082 0.40448 0.46391 0.0
N764 N 0.48911 0.33822 0.50299 0.0
C765 C 0.50092 0.36853 0.48419 0.0
C766 C 0.49096 0.40462 0.46299 0.0
C767 C 0.50492 0.76793 0.75427 0.0
C768 C 0.52581 0.76994 0.75511 0.0
C769 C 0.49384 0.73941 0.77572 0.0
C770 C 0.50318 0.71186 0.79898 0.0
H771 H 0.49698 0.78711 0.73656 0.0
H772 H 0.47783 0.73911 0.77403 0.0
S773 S 0.55753 0.70646 0.81186 0.0
N774 N 0.55536 0.74328 0.78165 0.0
N775 N 0.53468 0.68995 0.82186 0.0
C776 C 0.52407 0.71464 0.80035 0.0
C777 C 0.53533 0.74363 0.7785 0.0
C778 C 0.48526 0.24675 0.28367 0.0
C779 C 0.49658 0.22239 0.3058 0.0
C780 C 0.49404 0.2841 0.26261 0.0
C781 C 0.51446 0.29911 0.26298 0.0
H782 H 0.46964 0.23517 0.28209 0.0
H783 H 0.48485 0.29918 0.24537 0.0
S784 S 0.54999 0.25542 0.31869 0.0
N785 N 0.5289 0.22184 0.32834 0.0
N786 N 0.54522 0.2923 0.28908 0.0
C787 C 0.52564 0.27849 0.28594 0.0
C788 C 0.51677 0.24 0.30721 0.0
C789 C 0.50758 -0.00782 0.95669 0.0
C790 C 0.48683 -0.0075 0.95317 0.0
C791 C 0.51674 0.95399 0.97695 0.0
C792 C 0.50557 0.91524 0.99511 0.0
H793 H 0.51697 0.02241 0.94386 0.0
H794 H 0.53269 0.95737 0.97917 0.0
S795 S 0.45088 0.89458 0.99362 0.0
N796 N 0.45544 0.94694 0.9685 0.0
N797 N 0.47264 0.8765 0.00732 0.0
C798 C 0.48484 0.91339 0.99141 0.0
C799 C 0.47549 0.95172 0.97035 0.0
C800 C 0.13633 0.317 0.14996 0.0
C801 C 0.14691 0.31282 0.1249 0.0
C802 C 0.11552 0.31648 0.15026 0.0
C803 C 0.10443 0.31126 0.12555 0.0
H804 H 0.14408 0.32526 0.16931 0.0
H805 H 0.1081 0.3237 0.16996 0.0
S806 S 0.12526 0.28581 0.05506 0.0
N807 N 0.1449 0.29362 0.07521 0.0
N808 N 0.10585 0.2923 0.07577 0.0
C809 C 0.1149 0.30075 0.10068 0.0
C810 C 0.1361 0.30173 0.10036 0.0
C811 C 0.12036 0.93814 0.1424 0.0
C812 C 0.10901 0.94404 0.11806 0.0
C813 C 0.14114 0.94029 0.14163 0.0
C814 C 0.15154 0.94779 0.11645 0.0
H815 H 0.1132 0.92941 0.16216 0.0
H816 H 0.14908 0.93281 0.16087 0.0
S817 S 0.12897 -0.02571 0.04725 0.0
N818 N 0.10986 0.9648 0.06827 0.0
N819 N 0.14886 0.96784 0.06696 0.0
C820 C 0.14041 0.95761 0.09218 0.0
C821 C 0.1192 0.95606 0.09296 0.0
C822 C 0.87397 0.51862 0.882 0.0
C823 C 0.86357 0.53625 0.85781 0.0
C824 C 0.89469 0.51855 0.88294 0.0
C825 C 0.90613 0.53575 0.8597 0.0
H826 H 0.86609 0.50565 0.90078 0.0
H827 H 0.90176 0.50552 0.90232 0.0
S828 S 0.88647 0.58252 0.79061 0.0
N829 N 0.86646 0.56898 0.80949 0.0
N830 N 0.90554 0.56851 0.81123 0.0
C831 C 0.89605 0.55144 0.83499 0.0
C832 C 0.87479 0.5518 0.83405 0.0
C833 C 0.89414 0.10439 0.94005 0.0
C834 C 0.90414 0.13633 0.91833 0.0
C835 C 0.87328 0.1027 0.94121 0.0
C836 C 0.86164 0.13314 0.92075 0.0
H837 H 0.90246 0.07852 0.95575 0.0
H838 H 0.86628 0.07558 0.95776 0.0
S839 S 0.88071 0.2319 0.86197 0.0
N840 N 0.90082 0.20474 0.87759 0.0
N841 N 0.86188 0.20241 0.87982 0.0
C842 C 0.87154 0.16825 0.8998 0.0
C843 C 0.89269 0.1696 0.89856 0.0
C844 C 0.14212 0.82362 0.5745 0.0
C845 C 0.15319 0.81027 0.59866 0.0
C846 C 0.12124 0.82209 0.57465 0.0
C847 C 0.11064 0.80691 0.59894 0.0
H848 H 0.14959 0.8379 0.55558 0.0
H849 H 0.11339 0.83561 0.55593 0.0
S850 S 0.13266 0.75778 0.66643 0.0
N851 N 0.15195 0.77432 0.6466 0.0
N852 N 0.11297 0.77072 0.6469 0.0
C853 C 0.12161 0.78955 0.62273 0.0
C854 C 0.14278 0.79147 0.62259 0.0
C855 C 0.12265 0.34431 0.68133 0.0
C856 C 0.11101 0.34866 0.65721 0.0
C857 C 0.14346 0.34163 0.67982 0.0
C858 C 0.1535 0.3433 0.65412 0.0
H859 H 0.11564 0.34022 0.70147 0.0
H860 H 0.15168 0.33605 0.69895 0.0
S861 S 0.12995 0.3637 0.58507 0.0
N862 N 0.11118 0.36121 0.60702 0.0
N863 N 0.15009 0.35607 0.6042 0.0
C864 C 0.14204 0.35114 0.62997 0.0
C865 C 0.12089 0.35386 0.63152 0.0
C866 C 0.85021 0.13567 0.35275 0.0
C867 C 0.83751 0.1275 0.37561 0.0
C868 C 0.87089 0.1357 0.35589 0.0
C869 C 0.87995 0.12754 0.38205 0.0
H870 H 0.84419 0.14119 0.33207 0.0
H871 H 0.87985 0.14118 0.33738 0.0
S872 S 0.8535 0.10688 0.44899 0.0
N873 N 0.83564 0.11316 0.42577 0.0
N874 N 0.87445 0.11312 0.43147 0.0
C875 C 0.86747 0.12105 0.40526 0.0
C876 C 0.84633 0.12097 0.40209 0.0
C877 C 0.89726 0.59041 0.38163 0.0
C878 C 0.9053 0.59192 0.35461 0.0
C879 C 0.87677 0.59427 0.38631 0.0
C880 C 0.86333 0.60038 0.3642 0.0
H881 H 0.90692 0.58781 0.39953 0.0
H882 H 0.87153 0.59469 0.40755 0.0
S883 S 0.87652 0.60088 0.28923 0.0
N884 N 0.89806 0.59553 0.30531 0.0
N885 N 0.85954 0.60281 0.31392 0.0
C886 C 0.87109 0.59899 0.33695 0.0
C887 C 0.89203 0.59462 0.3322 0.0
C888 C 0.63006 0.38448 0.61385 0.0
C889 C 0.62028 0.36737 0.58908 0.0
C890 C 0.6507 0.38956 0.61521 0.0
C891 C 0.66271 0.37806 0.59187 0.0
H892 H 0.62177 0.39332 0.63273 0.0
H893 H 0.65727 0.40196 0.63501 0.0
S894 S 0.64472 0.33501 0.52141 0.0
N895 N 0.6243 0.34129 0.54017 0.0
N896 N 0.66325 0.35102 0.54271 0.0
C897 C 0.65322 0.36272 0.56665 0.0
C898 C 0.63202 0.35729 0.56527 0.0
C899 C 0.63643 0.77287 0.62728 0.0
C900 C 0.62581 0.78389 0.65205 0.0
C901 C 0.65716 0.77535 0.62641 0.0
C902 C 0.66842 0.78874 0.65028 0.0
H903 H 0.62871 0.76298 0.60806 0.0
H904 H 0.66438 0.76714 0.60664 0.0
S905 S 0.64811 0.81852 0.72086 0.0
N906 N 0.6283 0.80683 0.70142 0.0
N907 N 0.66734 0.81129 0.69985 0.0
C908 C 0.65809 0.7985 0.67543 0.0
C909 C 0.63683 0.79616 0.67629 0.0
C910 C 0.40096 0.60731 0.37453 0.0
C911 C 0.41104 0.6013 0.3491 0.0
C912 C 0.38027 0.61202 0.37567 0.0
C913 C 0.36859 0.61077 0.35144 0.0
H914 H 0.40906 0.60673 0.39392 0.0
H915 H 0.37339 0.61475 0.39594 0.0
S916 S 0.38768 0.60166 0.27927 0.0
N917 N 0.40776 0.59899 0.29879 0.0
N918 N 0.36883 0.60755 0.301 0.0
C919 C 0.37848 0.60789 0.32573 0.0
C920 C 0.39966 0.60319 0.32455 0.0
C921 C 0.3957 0.06871 0.37966 0.0
C922 C 0.40762 0.05712 0.40305 0.0
C923 C 0.37499 0.07139 0.38167 0.0
C924 C 0.3651 0.06251 0.40718 0.0
H925 H 0.4024 0.0777 0.3596 0.0
H926 H 0.36672 0.08204 0.36297 0.0
S927 S 0.3892 0.02492 0.47446 0.0
N928 N 0.40783 0.0322 0.45245 0.0
N929 N 0.36888 0.0374 0.45614 0.0
C930 C 0.37673 0.048 0.43059 0.0
C931 C 0.39794 0.04531 0.42855 0.0
C932 C 0.63433 0.84393 0.12567 0.0
C933 C 0.64586 0.84358 0.10134 0.0
C934 C 0.61357 0.84376 0.12461 0.0
C935 C 0.60327 0.84301 0.09917 0.0
H936 H 0.64134 0.8462 0.14584 0.0
H937 H 0.60556 0.8456 0.14407 0.0
S938 S 0.62632 0.83666 0.02928 0.0
N939 N 0.64531 0.83843 0.05085 0.0
N940 N 0.60628 0.83815 0.04897 0.0
C941 C 0.61455 0.83987 0.07464 0.0
C942 C 0.6358 0.8402 0.0757 0.0
C943 C 0.64171 0.37618 0.17854 0.0
C944 C 0.6522 0.37802 0.15323 0.0
C945 C 0.62086 0.37534 0.17925 0.0
C946 C 0.60963 0.37631 0.15467 0.0
H947 H 0.64962 0.37322 0.19803 0.0
H948 H 0.61355 0.37166 0.19919 0.0
S949 S 0.62982 0.38977 0.08308 0.0
N950 N 0.64963 0.3868 0.10308 0.0
N951 N 0.61066 0.38553 0.10431 0.0
C952 C 0.61994 0.38142 0.12928 0.0
C953 C 0.64113 0.38217 0.12858 0.0
C954 C 0.38749 0.14672 0.87543 0.0
C955 C 0.40023 0.16405 0.85356 0.0
C956 C 0.36708 0.13894 0.87126 0.0
C957 C 0.3583 0.14802 0.84498 0.0
H958 H 0.39337 0.13707 0.89592 0.0
H959 H 0.35821 0.12401 0.88886 0.0
S960 S 0.38467 0.19999 0.78117 0.0
N961 N 0.40226 0.19488 0.80485 0.0
N962 N 0.36388 0.17999 0.79709 0.0
C963 C 0.37067 0.16824 0.82313 0.0
C964 C 0.39158 0.17633 0.82739 0.0
C965 C 0.39157 0.59812 0.91705 0.0
C966 C 0.40332 0.59139 0.89296 0.0
C967 C 0.37085 0.59244 0.91612 0.0
C968 C 0.36094 0.58006 0.89105 0.0
H969 H 0.39833 0.61035 0.93674 0.0
H970 H 0.36251 0.60113 0.93498 0.0
S971 S 0.38478 0.54827 0.82284 0.0
N972 N 0.40346 0.56423 0.84384 0.0
N973 N 0.3646 0.55362 0.8421 0.0
C974 C 0.37255 0.56894 0.86715 0.0
C975 C 0.39368 0.57454 0.86811 0.0
C976 C 1.00042 0.10477 0.12456 0.0
C977 C 0.01154 0.06536 0.14256 0.0
C978 C 0.99906 0.1715 0.12903 0.0
C979 C 0.00885 0.20061 0.15153 0.0
H980 H 0.99457 0.08532 0.10537 0.0
H981 H 0.99248 0.20123 0.11295 0.0
S982 S 0.0337 0.11576 0.2096 0.0
N983 N 0.02773 0.05756 0.18761 0.0
N984 N 0.02531 0.18368 0.19576 0.0
C985 C 0.01673 0.16046 0.17228 0.0
C986 C 0.01811 0.09225 0.16778 0.0
C987 C 0.23991 0.11064 0.07589 0.0
C988 C 0.24758 0.08236 0.10021 0.0
C989 C 0.2387 0.17809 0.07331 0.0
C990 C 0.24521 0.21833 0.09495 0.0
H991 H 0.23252 0.08119 0.06043 0.0
H992 H 0.23031 0.19801 0.05614 0.0
S993 S 0.27367 0.16815 0.15699 0.0
N994 N 0.26717 0.0994 0.14193 0.0
N995 N 0.26487 0.22649 0.13701 0.0
C996 C 0.25634 0.19081 0.11653 0.0
C997 C 0.25755 0.12234 0.1192 0.0
C998 C 0.97699 0.79087 0.90555 0.0
C999 C 0.97725 0.76996 0.87776 0.0
C1000 C 0.97662 0.85668 0.91231 0.0
C1001 C 0.97641 0.90463 0.8916 0.0
H1002 H 0.97693 0.75615 0.9224 0.0
H1003 H 0.97621 0.86984 0.93406 0.0
S1004 S 0.97773 0.87594 0.81554 0.0
N1005 N 0.97785 0.80261 0.82926 0.0
N1006 N 0.97714 0.92678 0.84199 0.0
C1007 C 0.97701 0.88465 0.86366 0.0
C1008 C 0.97747 0.81728 0.85675 0.0
C1009 C 0.78943 0.85496 0.91488 0.0
C1010 C 0.78816 0.89974 0.89302 0.0
C1011 C 0.78971 0.78822 0.90979 0.0
C1012 C 0.78872 0.76317 0.88261 0.0
H1013 H 0.79074 0.8714 0.93614 0.0
H1014 H 0.79116 0.75616 0.92746 0.0
S1015 S 0.78325 0.85962 0.8181 0.0
N1016 N 0.7844 0.91419 0.84309 0.0
N1017 N 0.78503 0.78856 0.83363 0.0
C1018 C 0.78662 0.80724 0.86057 0.0
C1019 C 0.78633 0.87547 0.86575 0.0
C1020 C 0.01969 0.61716 0.64899 0.0
C1021 C 0.02287 0.64331 0.62239 0.0
C1022 C 0.01975 0.55029 0.65339 0.0
C1023 C 0.02288 0.50692 0.63133 0.0
H1024 H 0.01845 0.64847 0.66697 0.0
H1025 H 0.01858 0.53286 0.67451 0.0
S1026 S 0.02692 0.5502 0.55672 0.0
N1027 N 0.02556 0.62053 0.57299 0.0
N1028 N 0.02551 0.49439 0.58116 0.0
C1029 C 0.02365 0.53209 0.60417 0.0
C1030 C 0.02367 0.60048 0.59971 0.0
C1031 C 0.23969 0.5262 0.60745 0.0
C1032 C 0.24023 0.51006 0.63583 0.0
C1033 C 0.23968 0.59088 0.59865 0.0
C1034 C 0.24011 0.64218 0.61787 0.0
H1035 H 0.23828 0.4887 0.59183 0.0
H1036 H 0.23813 0.60052 0.57668 0.0
S1037 S 0.2454 0.62634 0.69424 0.0
N1038 N 0.24403 0.5509 0.68292 0.0
N1039 N 0.24399 0.67252 0.66636 0.0
C1040 C 0.24239 0.62681 0.64615 0.0
C1041 C 0.24247 0.56078 0.65514 0.0
C1042 C 0.9899 0.38104 0.3534 0.0
C1043 C 0.98641 0.42469 0.37524 0.0
C1044 C 0.98461 0.31593 0.35573 0.0
C1045 C 0.97565 0.29194 0.38001 0.0
H1046 H 0.99536 0.39822 0.33359 0.0
H1047 H 0.98652 0.28515 0.3377 0.0
S1048 S 0.96747 0.38322 0.44536 0.0
N1049 N 0.97662 0.43729 0.42361 0.0
N1050 N 0.96667 0.31426 0.42797 0.0
C1051 C 0.97426 0.33321 0.40315 0.0
C1052 C 0.9797 0.39984 0.40079 0.0
C1053 C 0.75764 0.35637 0.39048 0.0
C1054 C 0.75693 0.32056 0.36569 0.0
C1055 C 0.76295 0.42165 0.39034 0.0
C1056 C 0.76756 0.4536 0.36541 0.0
H1057 H 0.75567 0.33289 0.41038 0.0
H1058 H 0.76451 0.4461 0.41011 0.0
S1059 S 0.76256 0.38603 0.2944 0.0
N1060 N 0.75725 0.32491 0.31519 0.0
N1061 N 0.76731 0.44815 0.31494 0.0
C1062 C 0.76446 0.42065 0.34025 0.0
C1063 C 0.75907 0.35392 0.34039 0.0
C1064 C 0.55028 0.04086 0.64585 0.0
C1065 C 0.54815 -0.00383 0.62407 0.0
C1066 C 0.54975 0.10766 0.64091 0.0
C1067 C 0.54705 0.13267 0.61396 0.0
H1068 H 0.55304 0.02434 0.66682 0.0
H1069 H 0.55205 0.13981 0.65838 0.0
S1070 S 0.53821 0.03606 0.55018 0.0
N1071 N 0.54137 -0.01848 0.57481 0.0
N1072 N 0.54045 0.10718 0.56557 0.0
C1073 C 0.54393 0.08854 0.59216 0.0
C1074 C 0.54446 0.02034 0.5972 0.0
C1075 C 0.73834 0.13656 0.64036 0.0
C1076 C 0.73726 0.15765 0.61266 0.0
C1077 C 0.73927 0.07066 0.64691 0.0
C1078 C 0.73905 0.02298 0.62605 0.0
H1079 H 0.73833 0.17116 0.65728 0.0
H1080 H 0.73982 0.05718 0.6686 0.0
S1081 S 0.73709 0.05255 0.55008 0.0
N1082 N 0.73658 0.12562 0.56406 0.0
N1083 N 0.73832 0.00148 0.57635 0.0
C1084 C 0.73837 0.0433 0.59817 0.0
C1085 C 0.73749 0.11065 0.59149 0.0
C1086 C 0.50067 0.77372 0.38681 0.0
C1087 C 0.49895 0.75657 0.35864 0.0
C1088 C 0.4998 0.83851 0.39533 0.0
C1089 C 0.4971 0.88882 0.37603 0.0
H1090 H 0.50153 0.73662 0.40266 0.0
H1091 H 0.5 0.84861 0.41737 0.0
S1092 S 0.49601 0.87095 0.29936 0.0
N1093 N 0.49756 0.79592 0.31111 0.0
N1094 N 0.49598 0.91793 0.3271 0.0
C1095 C 0.49737 0.87292 0.34759 0.0
C1096 C 0.49832 0.80673 0.33889 0.0
C1097 C 0.2831 0.82303 0.34855 0.0
C1098 C 0.27755 0.78056 0.36996 0.0
C1099 C 0.28249 0.89027 0.35254 0.0
C1100 C 0.27635 0.91679 0.37806 0.0
H1101 H 0.28962 0.80445 0.32959 0.0
H1102 H 0.28854 0.92111 0.33644 0.0
S1103 S 0.25491 0.82645 0.43734 0.0
N1104 N 0.26168 0.76971 0.41506 0.0
N1105 N 0.26065 0.8962 0.42259 0.0
C1106 C 0.26837 0.87505 0.39815 0.0
C1107 C 0.26894 0.80675 0.39407 0.0
C1108 C 0.5207 0.56363 0.10711 0.0
C1109 C 0.52044 0.53849 0.13427 0.0
C1110 C 0.51945 0.6303 0.10224 0.0
C1111 C 0.51784 0.6745 0.12433 0.0
H1112 H 0.52314 0.53215 0.08944 0.0
H1113 H 0.52108 0.64726 0.08111 0.0
S1114 S 0.5115 0.63241 0.19877 0.0
N1115 N 0.51486 0.56202 0.18311 0.0
N1116 N 0.51232 0.68758 0.17401 0.0
C1117 C 0.51534 0.64956 0.15134 0.0
C1118 C 0.51671 0.58149 0.1563 0.0
C1119 C 0.73386 0.56494 0.10428 0.0
C1120 C 0.73901 0.54831 0.13172 0.0
C1121 C 0.733 0.62985 0.09578 0.0
C1122 C 0.73722 0.68028 0.11444 0.0
H1123 H 0.72915 0.52801 0.08973 0.0
H1124 H 0.72754 0.64058 0.07516 0.0
S1125 S 0.75613 0.66243 0.18625 0.0
N1126 N 0.7519 0.58742 0.17582 0.0
N1127 N 0.75013 0.70935 0.15982 0.0
C1128 C 0.74441 0.66415 0.14091 0.0
C1129 C 0.74536 0.59814 0.14956 0.0
C1130 C 0.50219 0.37257 0.87977 0.0
C1131 C 0.49092 0.32869 0.89552 0.0
C1132 C 0.50384 0.4374 0.88773 0.0
C1133 C 0.4942 0.46053 0.91163 0.0
H1134 H 0.5085 0.35815 0.86002 0.0
H1135 H 0.51099 0.47093 0.87361 0.0
S1136 S 0.46731 0.36205 0.96368 0.0
N1137 N 0.47345 0.30998 0.93908 0.0
N1138 N 0.4764 0.43267 0.95379 0.0
C1139 C 0.48534 0.41555 0.92959 0.0
C1140 C 0.48367 0.34921 0.92151 0.0
C1141 C 0.27035 0.31235 0.88574 0.0
C1142 C 0.26842 0.28567 0.859 0.0
C1143 C 0.27115 0.37944 0.88966 0.0
C1144 C 0.26997 0.42209 0.86699 0.0
H1145 H 0.27296 0.28148 0.90354 0.0
H1146 H 0.27428 0.39747 0.9103 0.0
S1147 S 0.25873 0.37672 0.79411 0.0
N1148 N 0.26096 0.30683 0.81051 0.0
N1149 N 0.26226 0.43329 0.81785 0.0
C1150 C 0.26535 0.39619 0.84074 0.0
C1151 C 0.26462 0.32778 0.83675 0.0
loop_
_geom_bond_atom_site_label_1
_geom_bond_atom_site_label_2
_geom_bond_distance
_geom_bond_site_symmetry_2
_ccdc_geom_bond_type
C0 O1 1.306 . S
C0 O3 1.160 . S
O1 C0 1.306 . S
O1 Cd2 2.228 . S
Cd2 O1 2.228 . S
Cd2 O6 2.273 . S
Cd2 O10 2.277 . S
O3 C0 1.160 . S
O3 Cd4 2.203 . S
Cd4 O3 2.203 . S
Cd4 O6 2.411 . S
Cd4 O7 2.333 . S
Cd4 O8 2.352 . S
Cd4 O12 2.277 . S
Cd4 O13 2.356 . S
C5 O10 1.209 . S
C5 O12 1.226 . S
O6 Cd2 2.273 . S
O6 Cd4 2.411 . S
O6 C9 1.320 . S
O7 Cd4 2.333 . S
O7 C9 1.214 . S
O8 Cd4 2.352 . S
O8 C11 1.258 . S
C9 O6 1.320 . S
C9 O7 1.214 . S
O10 Cd2 2.277 . S
O10 C5 1.209 . S
C11 O8 1.258 . S
C11 O13 1.282 . S
O12 Cd4 2.277 . S
O12 C5 1.226 . S
O13 Cd4 2.356 . S
O13 C11 1.282 . S
C14 O15 1.306 . S
C14 O17 1.160 . S
O15 C14 1.306 . S
O15 Cd16 2.228 . S
Cd16 O15 2.228 . S
Cd16 O20 2.273 . S
Cd16 O24 2.277 . S
O17 C14 1.160 . S
O17 Cd18 2.203 . S
Cd18 O17 2.203 . S
Cd18 O20 2.411 . S
Cd18 O21 2.333 . S
Cd18 O22 2.352 . S
Cd18 O26 2.277 . S
Cd18 O27 2.356 . S
C19 O24 1.209 . S
C19 O26 1.226 . S
O20 Cd16 2.273 . S
O20 Cd18 2.411 . S
O20 C23 1.320 . S
O21 Cd18 2.333 . S
O21 C23 1.214 . S
O22 Cd18 2.352 . S
O22 C25 1.258 . S
C23 O20 1.320 . S
C23 O21 1.214 . S
O24 Cd16 2.277 . S
O24 C19 1.209 . S
C25 O22 1.258 . S
C25 O27 1.282 . S
O26 Cd18 2.277 . S
O26 C19 1.226 . S
O27 Cd18 2.356 . S
O27 C25 1.282 . S
C28 O29 1.306 . S
C28 O31 1.160 . S
O29 C28 1.306 . S
O29 Cd30 2.228 . S
Cd30 O29 2.228 . S
Cd30 O34 2.273 . S
Cd30 O38 2.277 . S
O31 C28 1.160 . S
O31 Cd32 2.203 . S
Cd32 O31 2.203 . S
Cd32 O34 2.411 . S
Cd32 O35 2.333 . S
Cd32 O36 2.352 . S
Cd32 O40 2.277 . S
Cd32 O41 2.356 . S
C33 O38 1.209 . S
C33 O40 1.226 . S
O34 Cd30 2.273 . S
O34 Cd32 2.411 . S
O34 C37 1.320 . S
O35 Cd32 2.333 . S
O35 C37 1.214 . S
O36 Cd32 2.352 . S
O36 C39 1.258 . S
C37 O34 1.320 . S
C37 O35 1.214 . S
O38 Cd30 2.277 . S
O38 C33 1.209 . S
C39 O36 1.258 . S
C39 O41 1.282 . S
O40 Cd32 2.277 . S
O40 C33 1.226 . S
O41 Cd32 2.356 . S
O41 C39 1.282 . S
C42 O43 1.306 . S
C42 O45 1.160 . S
O43 C42 1.306 . S
O43 Cd44 2.228 . S
Cd44 O43 2.228 . S
Cd44 O48 2.273 . S
Cd44 O52 2.277 . S
O45 C42 1.160 . S
O45 Cd46 2.203 . S
Cd46 O45 2.203 . S
Cd46 O48 2.411 . S
Cd46 O49 2.333 . S
Cd46 O50 2.352 . S
Cd46 O54 2.277 . S
Cd46 O55 2.356 . S
C47 O52 1.209 . S
C47 O54 1.226 . S
O48 Cd44 2.273 . S
O48 Cd46 2.411 . S
O48 C51 1.320 . S
O49 Cd46 2.333 . S
O49 C51 1.214 . S
O50 Cd46 2.352 . S
O50 C53 1.258 . S
C51 O48 1.320 . S
C51 O49 1.214 . S
O52 Cd44 2.277 . S
O52 C47 1.209 . S
C53 O50 1.258 . S
C53 O55 1.282 . S
O54 Cd46 2.277 . S
O54 C47 1.226 . S
O55 Cd46 2.356 . S
O55 C53 1.282 . S
C56 O57 1.306 . S
C56 O59 1.160 . S
O57 C56 1.306 . S
O57 Cd58 2.228 . S
Cd58 O57 2.228 . S
Cd58 O62 2.273 . S
Cd58 O66 2.277 . S
O59 C56 1.160 . S
O59 Cd60 2.203 . S
Cd60 O59 2.203 . S
Cd60 O62 2.411 . S
Cd60 O63 2.333 . S
Cd60 O64 2.352 . S
Cd60 O68 2.277 . S
Cd60 O69 2.356 . S
C61 O66 1.209 . S
C61 O68 1.226 . S
O62 Cd58 2.273 . S
O62 Cd60 2.411 . S
O62 C65 1.320 . S
O63 Cd60 2.333 . S
O63 C65 1.214 . S
O64 Cd60 2.352 . S
O64 C67 1.258 . S
C65 O62 1.320 . S
C65 O63 1.214 . S
O66 Cd58 2.277 . S
O66 C61 1.209 . S
C67 O64 1.258 . S
C67 O69 1.282 . S
O68 Cd60 2.277 . S
O68 C61 1.226 . S
O69 Cd60 2.356 . S
O69 C67 1.282 . S
C70 O71 1.306 . S
C70 O73 1.160 . S
O71 C70 1.306 . S
O71 Cd72 2.228 . S
Cd72 O71 2.228 . S
Cd72 O76 2.273 . S
Cd72 O80 2.277 . S
O73 C70 1.160 . S
O73 Cd74 2.203 . S
Cd74 O73 2.203 . S
Cd74 O76 2.411 . S
Cd74 O77 2.333 . S
Cd74 O78 2.352 . S
Cd74 O82 2.277 . S
Cd74 O83 2.356 . S
C75 O80 1.209 . S
C75 O82 1.226 . S
O76 Cd72 2.273 . S
O76 Cd74 2.411 . S
O76 C79 1.320 . S
O77 Cd74 2.333 . S
O77 C79 1.214 . S
O78 Cd74 2.352 . S
O78 C81 1.258 . S
C79 O76 1.320 . S
C79 O77 1.214 . S
O80 Cd72 2.277 . S
O80 C75 1.209 . S
C81 O78 1.258 . S
C81 O83 1.282 . S
O82 Cd74 2.277 . S
O82 C75 1.226 . S
O83 Cd74 2.356 . S
O83 C81 1.282 . S
C84 O85 1.306 . S
C84 O87 1.160 . S
O85 C84 1.306 . S
O85 Cd86 2.228 . S
Cd86 O85 2.228 . S
Cd86 O90 2.273 . S
Cd86 O94 2.277 . S
O87 C84 1.160 . S
O87 Cd88 2.203 . S
Cd88 O87 2.203 . S
Cd88 O90 2.411 . S
Cd88 O91 2.333 . S
Cd88 O92 2.352 . S
Cd88 O96 2.277 . S
Cd88 O97 2.356 . S
C89 O94 1.209 . S
C89 O96 1.226 . S
O90 Cd86 2.273 . S
O90 Cd88 2.411 . S
O90 C93 1.320 . S
O91 Cd88 2.333 . S
O91 C93 1.214 . S
O92 Cd88 2.352 . S
O92 C95 1.258 . S
C93 O90 1.320 . S
C93 O91 1.214 . S
O94 Cd86 2.277 . S
O94 C89 1.209 . S
C95 O92 1.258 . S
C95 O97 1.282 . S
O96 Cd88 2.277 . S
O96 C89 1.226 . S
O97 Cd88 2.356 . S
O97 C95 1.282 . S
C98 O99 1.306 . S
C98 O101 1.160 . S
O99 C98 1.306 . S
O99 Cd100 2.228 . S
Cd100 O99 2.228 . S
Cd100 O104 2.273 . S
Cd100 O108 2.277 . S
O101 C98 1.160 . S
O101 Cd102 2.203 . S
Cd102 O101 2.203 . S
Cd102 O104 2.411 . S
Cd102 O105 2.333 . S
Cd102 O106 2.352 . S
Cd102 O110 2.277 . S
Cd102 O111 2.356 . S
C103 O108 1.209 . S
C103 O110 1.226 . S
O104 Cd100 2.273 . S
O104 Cd102 2.411 . S
O104 C107 1.320 . S
O105 Cd102 2.333 . S
O105 C107 1.214 . S
O106 Cd102 2.352 . S
O106 C109 1.258 . S
C107 O104 1.320 . S
C107 O105 1.214 . S
O108 Cd100 2.277 . S
O108 C103 1.209 . S
C109 O106 1.258 . S
C109 O111 1.282 . S
O110 Cd102 2.277 . S
O110 C103 1.226 . S
O111 Cd102 2.356 . S
O111 C109 1.282 . S
C112 O113 1.306 . S
C112 O115 1.160 . S
O113 C112 1.306 . S
O113 Cd114 2.228 . S
Cd114 O113 2.228 . S
Cd114 O118 2.273 . S
Cd114 O122 2.277 . S
O115 C112 1.160 . S
O115 Cd116 2.203 . S
Cd116 O115 2.203 . S
Cd116 O118 2.411 . S
Cd116 O119 2.333 1_565 S
Cd116 O120 2.352 . S
Cd116 O124 2.277 . S
Cd116 O125 2.356 . S
C117 O122 1.209 . S
C117 O124 1.226 . S
O118 Cd114 2.273 . S
O118 Cd116 2.411 . S
O118 C121 1.320 1_565 S
O119 Cd116 2.333 1_545 S
O119 C121 1.214 . S
O120 Cd116 2.352 . S
O120 C123 1.258 . S
C121 O118 1.320 1_545 S
C121 O119 1.214 . S
O122 Cd114 2.277 . S
O122 C117 1.209 . S
C123 O120 1.258 . S
C123 O125 1.282 . S
O124 Cd116 2.277 . S
O124 C117 1.226 . S
O125 Cd116 2.356 . S
O125 C123 1.282 . S
C126 O127 1.306 . S
C126 O129 1.160 . S
O127 C126 1.306 . S
O127 Cd128 2.228 . S
Cd128 O127 2.228 . S
Cd128 O132 2.273 . S
Cd128 O136 2.277 . S
O129 C126 1.160 . S
O129 Cd130 2.203 . S
Cd130 O129 2.203 . S
Cd130 O132 2.411 . S
Cd130 O133 2.333 . S
Cd130 O134 2.352 . S
Cd130 O138 2.277 . S
Cd130 O139 2.356 . S
C131 O136 1.209 . S
C131 O138 1.226 . S
O132 Cd128 2.273 . S
O132 Cd130 2.411 . S
O132 C135 1.320 . S
O133 Cd130 2.333 . S
O133 C135 1.214 . S
O134 Cd130 2.352 . S
O134 C137 1.258 . S
C135 O132 1.320 . S
C135 O133 1.214 . S
O136 Cd128 2.277 . S
O136 C131 1.209 . S
C137 O134 1.258 . S
C137 O139 1.282 . S
O138 Cd130 2.277 . S
O138 C131 1.226 . S
O139 Cd130 2.356 . S
O139 C137 1.282 . S
C140 O141 1.306 . S
C140 O143 1.160 . S
O141 C140 1.306 . S
O141 Cd142 2.228 . S
Cd142 O141 2.228 . S
Cd142 O146 2.273 . S
Cd142 O150 2.277 . S
O143 C140 1.160 . S
O143 Cd144 2.203 . S
Cd144 O143 2.203 . S
Cd144 O146 2.411 . S
Cd144 O147 2.333 . S
Cd144 O148 2.352 . S
Cd144 O152 2.277 . S
Cd144 O153 2.356 . S
C145 O150 1.209 . S
C145 O152 1.226 . S
O146 Cd142 2.273 . S
O146 Cd144 2.411 . S
O146 C149 1.320 . S
O147 Cd144 2.333 . S
O147 C149 1.214 . S
O148 Cd144 2.352 . S
O148 C151 1.258 . S
C149 O146 1.320 . S
C149 O147 1.214 . S
O150 Cd142 2.277 . S
O150 C145 1.209 . S
C151 O148 1.258 . S
C151 O153 1.282 . S
O152 Cd144 2.277 . S
O152 C145 1.226 . S
O153 Cd144 2.356 . S
O153 C151 1.282 . S
C154 O155 1.306 . S
C154 O157 1.160 . S
O155 C154 1.306 . S
O155 Cd156 2.228 . S
Cd156 O155 2.228 . S
Cd156 O160 2.273 . S
Cd156 O164 2.277 . S
O157 C154 1.160 . S
O157 Cd158 2.203 . S
Cd158 O157 2.203 . S
Cd158 O160 2.411 . S
Cd158 O161 2.333 1_565 S
Cd158 O162 2.352 . S
Cd158 O166 2.277 . S
Cd158 O167 2.356 . S
C159 O164 1.209 . S
C159 O166 1.226 . S
O160 Cd156 2.273 . S
O160 Cd158 2.411 . S
O160 C163 1.320 1_565 S
O161 Cd158 2.333 1_545 S
O161 C163 1.214 . S
O162 Cd158 2.352 . S
O162 C165 1.258 . S
C163 O160 1.320 1_545 S
C163 O161 1.214 . S
O164 Cd156 2.277 . S
O164 C159 1.209 . S
C165 O162 1.258 . S
C165 O167 1.282 . S
O166 Cd158 2.277 . S
O166 C159 1.226 . S
O167 Cd158 2.356 . S
O167 C165 1.282 . S
C168 O169 1.306 . S
C168 O171 1.160 . S
O169 C168 1.306 . S
O169 Cd170 2.228 . S
Cd170 O169 2.228 . S
Cd170 O174 2.273 . S
Cd170 O178 2.277 . S
O171 C168 1.160 . S
O171 Cd172 2.203 . S
Cd172 O171 2.203 . S
Cd172 O174 2.411 . S
Cd172 O175 2.333 1_545 S
Cd172 O176 2.352 . S
Cd172 O180 2.277 . S
Cd172 O181 2.356 . S
C173 O178 1.209 . S
C173 O180 1.226 . S
O174 Cd170 2.273 . S
O174 Cd172 2.411 . S
O174 C177 1.320 1_545 S
O175 Cd172 2.333 1_565 S
O175 C177 1.214 . S
O176 Cd172 2.352 . S
O176 C179 1.258 . S
C177 O174 1.320 1_565 S
C177 O175 1.214 . S
O178 Cd170 2.277 . S
O178 C173 1.209 . S
C179 O176 1.258 . S
C179 O181 1.282 . S
O180 Cd172 2.277 . S
O180 C173 1.226 . S
O181 Cd172 2.356 . S
O181 C179 1.282 . S
C182 O183 1.306 . S
C182 O185 1.160 . S
O183 C182 1.306 . S
O183 Cd184 2.228 . S
Cd184 O183 2.228 . S
Cd184 O188 2.273 . S
Cd184 O192 2.277 . S
O185 C182 1.160 . S
O185 Cd186 2.203 . S
Cd186 O185 2.203 . S
Cd186 O188 2.411 . S
Cd186 O189 2.333 . S
Cd186 O190 2.352 . S
Cd186 O194 2.277 . S
Cd186 O195 2.356 . S
C187 O192 1.209 . S
C187 O194 1.226 . S
O188 Cd184 2.273 . S
O188 Cd186 2.411 . S
O188 C191 1.320 . S
O189 Cd186 2.333 . S
O189 C191 1.214 . S
O190 Cd186 2.352 . S
O190 C193 1.258 . S
C191 O188 1.320 . S
C191 O189 1.214 . S
O192 Cd184 2.277 . S
O192 C187 1.209 . S
C193 O190 1.258 . S
C193 O195 1.282 . S
O194 Cd186 2.277 . S
O194 C187 1.226 . S
O195 Cd186 2.356 . S
O195 C193 1.282 . S
C196 O197 1.306 . S
C196 O199 1.160 . S
O197 C196 1.306 . S
O197 Cd198 2.228 . S
Cd198 O197 2.228 . S
Cd198 O202 2.273 . S
Cd198 O206 2.277 . S
O199 C196 1.160 . S
O199 Cd200 2.203 . S
Cd200 O199 2.203 . S
Cd200 O202 2.411 . S
Cd200 O203 2.333 . S
Cd200 O204 2.352 . S
Cd200 O208 2.277 . S
Cd200 O209 2.356 . S
C201 O206 1.209 . S
C201 O208 1.226 . S
O202 Cd198 2.273 . S
O202 Cd200 2.411 . S
O202 C205 1.320 . S
O203 Cd200 2.333 . S
O203 C205 1.214 . S
O204 Cd200 2.352 . S
O204 C207 1.258 . S
C205 O202 1.320 . S
C205 O203 1.214 . S
O206 Cd198 2.277 . S
O206 C201 1.209 . S
C207 O204 1.258 . S
C207 O209 1.282 . S
O208 Cd200 2.277 . S
O208 C201 1.226 . S
O209 Cd200 2.356 . S
O209 C207 1.282 . S
C210 O211 1.306 . S
C210 O213 1.160 . S
O211 C210 1.306 . S
O211 Cd212 2.228 . S
Cd212 O211 2.228 . S
Cd212 O216 2.273 . S
Cd212 O220 2.277 . S
O213 C210 1.160 . S
O213 Cd214 2.203 . S
Cd214 O213 2.203 . S
Cd214 O216 2.411 . S
Cd214 O217 2.333 1_545 S
Cd214 O218 2.352 . S
Cd214 O222 2.277 . S
Cd214 O223 2.356 . S
C215 O220 1.209 . S
C215 O222 1.226 . S
O216 Cd212 2.273 . S
O216 Cd214 2.411 . S
O216 C219 1.320 1_545 S
O217 Cd214 2.333 1_565 S
O217 C219 1.214 . S
O218 Cd214 2.352 . S
O218 C221 1.258 . S
C219 O216 1.320 1_565 S
C219 O217 1.214 . S
O220 Cd212 2.277 . S
O220 C215 1.209 . S
C221 O218 1.258 . S
C221 O223 1.282 . S
O222 Cd214 2.277 . S
O222 C215 1.226 . S
O223 Cd214 2.356 . S
O223 C221 1.282 . S
C224 O225 1.306 . S
C224 O227 1.160 . S
O225 C224 1.306 . S
O225 Cd226 2.228 . S
Cd226 O225 2.228 . S
Cd226 O230 2.273 . S
Cd226 O234 2.277 . S
O227 C224 1.160 . S
O227 Cd228 2.203 . S
Cd228 O227 2.203 . S
Cd228 O230 2.411 . S
Cd228 O231 2.333 . S
Cd228 O232 2.352 . S
Cd228 O236 2.277 . S
Cd228 O237 2.356 . S
C229 O234 1.209 . S
C229 O236 1.226 . S
O230 Cd226 2.273 . S
O230 Cd228 2.411 . S
O230 C233 1.320 . S
O231 Cd228 2.333 . S
O231 C233 1.214 . S
O232 Cd228 2.352 . S
O232 C235 1.258 . S
C233 O230 1.320 . S
C233 O231 1.214 . S
O234 Cd226 2.277 . S
O234 C229 1.209 . S
C235 O232 1.258 . S
C235 O237 1.282 . S
O236 Cd228 2.277 . S
O236 C229 1.226 . S
O237 Cd228 2.356 . S
O237 C235 1.282 . S
C238 O239 1.306 . S
C238 O241 1.160 . S
O239 C238 1.306 . S
O239 Cd240 2.228 . S
Cd240 O239 2.228 . S
Cd240 O244 2.273 . S
Cd240 O248 2.277 . S
O241 C238 1.160 . S
O241 Cd242 2.203 . S
Cd242 O241 2.203 . S
Cd242 O244 2.411 . S
Cd242 O245 2.333 . S
Cd242 O246 2.352 . S
Cd242 O250 2.277 . S
Cd242 O251 2.356 . S
C243 O248 1.209 . S
C243 O250 1.226 . S
O244 Cd240 2.273 . S
O244 Cd242 2.411 . S
O244 C247 1.320 . S
O245 Cd242 2.333 . S
O245 C247 1.214 . S
O246 Cd242 2.352 . S
O246 C249 1.258 . S
C247 O244 1.320 . S
C247 O245 1.214 . S
O248 Cd240 2.277 . S
O248 C243 1.209 . S
C249 O246 1.258 . S
C249 O251 1.282 . S
O250 Cd242 2.277 . S
O250 C243 1.226 . S
O251 Cd242 2.356 . S
O251 C249 1.282 . S
C252 O253 1.306 . S
C252 O255 1.160 . S
O253 C252 1.306 . S
O253 Cd254 2.228 . S
Cd254 O253 2.228 . S
Cd254 O258 2.273 . S
Cd254 O262 2.277 . S
O255 C252 1.160 . S
O255 Cd256 2.203 . S
Cd256 O255 2.203 . S
Cd256 O258 2.411 . S
Cd256 O259 2.333 . S
Cd256 O260 2.352 . S
Cd256 O264 2.277 . S
Cd256 O265 2.356 . S
C257 O262 1.209 . S
C257 O264 1.226 . S
O258 Cd254 2.273 . S
O258 Cd256 2.411 . S
O258 C261 1.320 . S
O259 Cd256 2.333 . S
O259 C261 1.214 . S
O260 Cd256 2.352 . S
O260 C263 1.258 . S
C261 O258 1.320 . S
C261 O259 1.214 . S
O262 Cd254 2.277 . S
O262 C257 1.209 . S
C263 O260 1.258 . S
C263 O265 1.282 . S
O264 Cd256 2.277 . S
O264 C257 1.226 . S
O265 Cd256 2.356 . S
O265 C263 1.282 . S
C266 O267 1.306 . S
C266 O269 1.160 . S
O267 C266 1.306 . S
O267 Cd268 2.228 . S
Cd268 O267 2.228 . S
Cd268 O272 2.273 . S
Cd268 O276 2.277 . S
O269 C266 1.160 . S
O269 Cd270 2.203 . S
Cd270 O269 2.203 . S
Cd270 O272 2.411 . S
Cd270 O273 2.333 . S
Cd270 O274 2.352 . S
Cd270 O278 2.277 . S
Cd270 O279 2.356 . S
C271 O276 1.209 . S
C271 O278 1.226 . S
O272 Cd268 2.273 . S
O272 Cd270 2.411 . S
O272 C275 1.320 . S
O273 Cd270 2.333 . S
O273 C275 1.214 . S
O274 Cd270 2.352 . S
O274 C277 1.258 . S
C275 O272 1.320 . S
C275 O273 1.214 . S
O276 Cd268 2.277 . S
O276 C271 1.209 . S
C277 O274 1.258 . S
C277 O279 1.282 . S
O278 Cd270 2.277 . S
O278 C271 1.226 . S
O279 Cd270 2.356 . S
O279 C277 1.282 . S
C280 O281 1.306 . S
C280 O283 1.160 . S
O281 C280 1.306 . S
O281 Cd282 2.228 . S
Cd282 O281 2.228 . S
Cd282 O286 2.273 . S
Cd282 O290 2.277 . S
O283 C280 1.160 . S
O283 Cd284 2.203 . S
Cd284 O283 2.203 . S
Cd284 O286 2.411 . S
Cd284 O287 2.333 . S
Cd284 O288 2.352 . S
Cd284 O292 2.277 . S
Cd284 O293 2.356 . S
C285 O290 1.209 . S
C285 O292 1.226 . S
O286 Cd282 2.273 . S
O286 Cd284 2.411 . S
O286 C289 1.320 . S
O287 Cd284 2.333 . S
O287 C289 1.214 . S
O288 Cd284 2.352 . S
O288 C291 1.258 . S
C289 O286 1.320 . S
C289 O287 1.214 . S
O290 Cd282 2.277 . S
O290 C285 1.209 . S
C291 O288 1.258 . S
C291 O293 1.282 . S
O292 Cd284 2.277 . S
O292 C285 1.226 . S
O293 Cd284 2.356 . S
O293 C291 1.282 . S
C294 O295 1.306 . S
C294 O297 1.160 . S
O295 C294 1.306 . S
O295 Cd296 2.228 . S
Cd296 O295 2.228 . S
Cd296 O300 2.273 . S
Cd296 O304 2.277 . S
O297 C294 1.160 . S
O297 Cd298 2.203 . S
Cd298 O297 2.203 . S
Cd298 O300 2.411 . S
Cd298 O301 2.333 . S
Cd298 O302 2.352 . S
Cd298 O306 2.277 . S
Cd298 O307 2.356 . S
C299 O304 1.209 . S
C299 O306 1.226 . S
O300 Cd296 2.273 . S
O300 Cd298 2.411 . S
O300 C303 1.320 . S
O301 Cd298 2.333 . S
O301 C303 1.214 . S
O302 Cd298 2.352 . S
O302 C305 1.258 . S
C303 O300 1.320 . S
C303 O301 1.214 . S
O304 Cd296 2.277 . S
O304 C299 1.209 . S
C305 O302 1.258 . S
C305 O307 1.282 . S
O306 Cd298 2.277 . S
O306 C299 1.226 . S
O307 Cd298 2.356 . S
O307 C305 1.282 . S
C308 O309 1.306 . S
C308 O311 1.160 . S
O309 C308 1.306 . S
O309 Cd310 2.228 . S
Cd310 O309 2.228 . S
Cd310 O314 2.273 . S
Cd310 O318 2.277 . S
O311 C308 1.160 . S
O311 Cd312 2.203 . S
Cd312 O311 2.203 . S
Cd312 O314 2.411 . S
Cd312 O315 2.333 . S
Cd312 O316 2.352 . S
Cd312 O320 2.277 . S
Cd312 O321 2.356 . S
C313 O318 1.209 . S
C313 O320 1.226 . S
O314 Cd310 2.273 . S
O314 Cd312 2.411 . S
O314 C317 1.320 . S
O315 Cd312 2.333 . S
O315 C317 1.214 . S
O316 Cd312 2.352 . S
O316 C319 1.258 . S
C317 O314 1.320 . S
C317 O315 1.214 . S
O318 Cd310 2.277 . S
O318 C313 1.209 . S
C319 O316 1.258 . S
C319 O321 1.282 . S
O320 Cd312 2.277 . S
O320 C313 1.226 . S
O321 Cd312 2.356 . S
O321 C319 1.282 . S
C322 O323 1.306 . S
C322 O325 1.160 . S
O323 C322 1.306 . S
O323 Cd324 2.228 . S
Cd324 O323 2.228 . S
Cd324 O328 2.273 . S
Cd324 O332 2.277 . S
O325 C322 1.160 . S
O325 Cd326 2.203 . S
Cd326 O325 2.203 . S
Cd326 O328 2.411 . S
Cd326 O329 2.333 . S
Cd326 O330 2.352 . S
Cd326 O334 2.277 . S
Cd326 O335 2.356 . S
C327 O332 1.209 . S
C327 O334 1.226 . S
O328 Cd324 2.273 . S
O328 Cd326 2.411 . S
O328 C331 1.320 . S
O329 Cd326 2.333 . S
O329 C331 1.214 . S
O330 Cd326 2.352 . S
O330 C333 1.258 . S
C331 O328 1.320 . S
C331 O329 1.214 . S
O332 Cd324 2.277 . S
O332 C327 1.209 . S
C333 O330 1.258 . S
C333 O335 1.282 . S
O334 Cd326 2.277 . S
O334 C327 1.226 . S
O335 Cd326 2.356 . S
O335 C333 1.282 . S
C336 O337 1.306 . S
C336 O339 1.160 . S
O337 C336 1.306 . S
O337 Cd338 2.228 . S
Cd338 O337 2.228 . S
Cd338 O342 2.273 . S
Cd338 O346 2.277 . S
O339 C336 1.160 . S
O339 Cd340 2.203 . S
Cd340 O339 2.203 . S
Cd340 O342 2.411 . S
Cd340 O343 2.333 1_565 S
Cd340 O344 2.352 . S
Cd340 O348 2.277 . S
Cd340 O349 2.356 . S
C341 O346 1.209 . S
C341 O348 1.226 . S
O342 Cd338 2.273 . S
O342 Cd340 2.411 . S
O342 C345 1.320 1_565 S
O343 Cd340 2.333 1_545 S
O343 C345 1.214 . S
O344 Cd340 2.352 . S
O344 C347 1.258 . S
C345 O342 1.320 1_545 S
C345 O343 1.214 . S
O346 Cd338 2.277 . S
O346 C341 1.209 . S
C347 O344 1.258 . S
C347 O349 1.282 . S
O348 Cd340 2.277 . S
O348 C341 1.226 . S
O349 Cd340 2.356 . S
O349 C347 1.282 . S
C350 O351 1.306 . S
C350 O353 1.160 . S
O351 C350 1.306 . S
O351 Cd352 2.228 . S
Cd352 O351 2.228 . S
Cd352 O356 2.273 . S
Cd352 O360 2.277 . S
O353 C350 1.160 . S
O353 Cd354 2.203 . S
Cd354 O353 2.203 . S
Cd354 O356 2.411 . S
Cd354 O357 2.333 . S
Cd354 O358 2.352 . S
Cd354 O362 2.277 . S
Cd354 O363 2.356 . S
C355 O360 1.209 . S
C355 O362 1.226 . S
O356 Cd352 2.273 . S
O356 Cd354 2.411 . S
O356 C359 1.320 . S
O357 Cd354 2.333 . S
O357 C359 1.214 . S
O358 Cd354 2.352 . S
O358 C361 1.258 . S
C359 O356 1.320 . S
C359 O357 1.214 . S
O360 Cd352 2.277 . S
O360 C355 1.209 . S
C361 O358 1.258 . S
C361 O363 1.282 . S
O362 Cd354 2.277 . S
O362 C355 1.226 . S
O363 Cd354 2.356 . S
O363 C361 1.282 . S
C364 O365 1.306 . S
C364 O367 1.160 . S
O365 C364 1.306 . S
O365 Cd366 2.228 . S
Cd366 O365 2.228 . S
Cd366 O370 2.273 . S
Cd366 O374 2.277 . S
O367 C364 1.160 . S
O367 Cd368 2.203 . S
Cd368 O367 2.203 . S
Cd368 O370 2.411 . S
Cd368 O371 2.333 . S
Cd368 O372 2.352 . S
Cd368 O376 2.277 . S
Cd368 O377 2.356 . S
C369 O374 1.209 . S
C369 O376 1.226 . S
O370 Cd366 2.273 . S
O370 Cd368 2.411 . S
O370 C373 1.320 . S
O371 Cd368 2.333 . S
O371 C373 1.214 . S
O372 Cd368 2.352 . S
O372 C375 1.258 . S
C373 O370 1.320 . S
C373 O371 1.214 . S
O374 Cd366 2.277 . S
O374 C369 1.209 . S
C375 O372 1.258 . S
C375 O377 1.282 . S
O376 Cd368 2.277 . S
O376 C369 1.226 . S
O377 Cd368 2.356 . S
O377 C375 1.282 . S
C378 O379 1.306 . S
C378 O381 1.160 . S
O379 C378 1.306 . S
O379 Cd380 2.228 . S
Cd380 O379 2.228 . S
Cd380 O384 2.273 . S
Cd380 O388 2.277 . S
O381 C378 1.160 . S
O381 Cd382 2.203 . S
Cd382 O381 2.203 . S
Cd382 O384 2.411 . S
Cd382 O385 2.333 1_565 S
Cd382 O386 2.352 . S
Cd382 O390 2.277 . S
Cd382 O391 2.356 . S
C383 O388 1.209 . S
C383 O390 1.226 . S
O384 Cd380 2.273 . S
O384 Cd382 2.411 . S
O384 C387 1.320 1_565 S
O385 Cd382 2.333 1_545 S
O385 C387 1.214 . S
O386 Cd382 2.352 . S
O386 C389 1.258 . S
C387 O384 1.320 1_545 S
C387 O385 1.214 . S
O388 Cd380 2.277 . S
O388 C383 1.209 . S
C389 O386 1.258 . S
C389 O391 1.282 . S
O390 Cd382 2.277 . S
O390 C383 1.226 . S
O391 Cd382 2.356 . S
O391 C389 1.282 . S
C392 O393 1.306 . S
C392 O395 1.160 . S
O393 C392 1.306 . S
O393 Cd394 2.228 . S
Cd394 O393 2.228 . S
Cd394 O398 2.273 . S
Cd394 O402 2.277 . S
O395 C392 1.160 . S
O395 Cd396 2.203 . S
Cd396 O395 2.203 . S
Cd396 O398 2.411 . S
Cd396 O399 2.333 1_545 S
Cd396 O400 2.352 . S
Cd396 O404 2.277 . S
Cd396 O405 2.356 . S
C397 O402 1.209 . S
C397 O404 1.226 . S
O398 Cd394 2.273 . S
O398 Cd396 2.411 . S
O398 C401 1.320 1_545 S
O399 Cd396 2.333 1_565 S
O399 C401 1.214 . S
O400 Cd396 2.352 . S
O400 C403 1.258 . S
C401 O398 1.320 1_565 S
C401 O399 1.214 . S
O402 Cd394 2.277 . S
O402 C397 1.209 . S
C403 O400 1.258 . S
C403 O405 1.282 . S
O404 Cd396 2.277 . S
O404 C397 1.226 . S
O405 Cd396 2.356 . S
O405 C403 1.282 . S
C406 O407 1.306 . S
C406 O409 1.160 . S
O407 C406 1.306 . S
O407 Cd408 2.228 . S
Cd408 O407 2.228 . S
Cd408 O412 2.273 . S
Cd408 O416 2.277 . S
O409 C406 1.160 . S
O409 Cd410 2.203 . S
Cd410 O409 2.203 . S
Cd410 O412 2.411 . S
Cd410 O413 2.333 . S
Cd410 O414 2.352 . S
Cd410 O418 2.277 . S
Cd410 O419 2.356 . S
C411 O416 1.209 . S
C411 O418 1.226 . S
O412 Cd408 2.273 . S
O412 Cd410 2.411 . S
O412 C415 1.320 . S
O413 Cd410 2.333 . S
O413 C415 1.214 . S
O414 Cd410 2.352 . S
O414 C417 1.258 . S
C415 O412 1.320 . S
C415 O413 1.214 . S
O416 Cd408 2.277 . S
O416 C411 1.209 . S
C417 O414 1.258 . S
C417 O419 1.282 . S
O418 Cd410 2.277 . S
O418 C411 1.226 . S
O419 Cd410 2.356 . S
O419 C417 1.282 . S
C420 O421 1.306 . S
C420 O423 1.160 . S
O421 C420 1.306 . S
O421 Cd422 2.228 . S
Cd422 O421 2.228 . S
Cd422 O426 2.273 . S
Cd422 O430 2.277 . S
O423 C420 1.160 . S
O423 Cd424 2.203 . S
Cd424 O423 2.203 . S
Cd424 O426 2.411 . S
Cd424 O427 2.333 . S
Cd424 O428 2.352 . S
Cd424 O432 2.277 . S
Cd424 O433 2.356 . S
C425 O430 1.209 . S
C425 O432 1.226 . S
O426 Cd422 2.273 . S
O426 Cd424 2.411 . S
O426 C429 1.320 . S
O427 Cd424 2.333 . S
O427 C429 1.214 . S
O428 Cd424 2.352 . S
O428 C431 1.258 . S
C429 O426 1.320 . S
C429 O427 1.214 . S
O430 Cd422 2.277 . S
O430 C425 1.209 . S
C431 O428 1.258 . S
C431 O433 1.282 . S
O432 Cd424 2.277 . S
O432 C425 1.226 . S
O433 Cd424 2.356 . S
O433 C431 1.282 . S
C434 O435 1.306 . S
C434 O437 1.160 . S
O435 C434 1.306 . S
O435 Cd436 2.228 . S
Cd436 O435 2.228 . S
Cd436 O440 2.273 . S
Cd436 O444 2.277 . S
O437 C434 1.160 . S
O437 Cd438 2.203 . S
Cd438 O437 2.203 . S
Cd438 O440 2.411 . S
Cd438 O441 2.333 1_545 S
Cd438 O442 2.352 . S
Cd438 O446 2.277 . S
Cd438 O447 2.356 . S
C439 O444 1.209 . S
C439 O446 1.226 . S
O440 Cd436 2.273 . S
O440 Cd438 2.411 . S
O440 C443 1.320 1_545 S
O441 Cd438 2.333 1_565 S
O441 C443 1.214 . S
O442 Cd438 2.352 . S
O442 C445 1.258 . S
C443 O440 1.320 1_565 S
C443 O441 1.214 . S
O444 Cd436 2.277 . S
O444 C439 1.209 . S
C445 O442 1.258 . S
C445 O447 1.282 . S
O446 Cd438 2.277 . S
O446 C439 1.226 . S
O447 Cd438 2.356 . S
O447 C445 1.282 . S
C448 C449 1.369 . S
C448 C450 1.419 . S
C448 H452 0.930 . S
C449 C448 1.369 . S
C449 C458 1.429 . S
C450 C448 1.419 . S
C450 C451 1.363 . S
C450 H453 0.929 . S
C451 C450 1.363 . S
C451 C457 1.428 . S
H452 C448 0.930 . S
H453 C450 0.929 . S
S454 N455 1.613 1_655 S
S454 N456 1.610 1_655 S
N455 S454 1.613 1_455 S
N455 C458 1.350 . S
N456 S454 1.610 1_455 S
N456 C457 1.351 . S
C457 C451 1.428 . S
C457 N456 1.351 . S
C457 C458 1.434 . S
C458 C449 1.429 . S
C458 N455 1.350 . S
C458 C457 1.434 . S
C459 C460 1.369 . S
C459 C461 1.419 . S
C459 H463 0.930 . S
C460 C459 1.369 . S
C460 C469 1.429 . S
C461 C459 1.419 . S
C461 C462 1.363 . S
C461 H464 0.929 . S
C462 C461 1.363 . S
C462 C468 1.428 . S
H463 C459 0.930 . S
H464 C461 0.929 . S
S465 N466 1.613 . S
S465 N467 1.610 . S
N466 S465 1.613 . S
N466 C469 1.350 . S
N467 S465 1.610 . S
N467 C468 1.351 . S
C468 C462 1.428 . S
C468 N467 1.351 . S
C468 C469 1.434 . S
C469 C460 1.429 . S
C469 N466 1.350 . S
C469 C468 1.434 . S
C470 C471 1.369 . S
C470 C472 1.419 . S
C470 H474 0.930 . S
C471 C470 1.369 . S
C471 C480 1.429 . S
C472 C470 1.419 . S
C472 C473 1.363 . S
C472 H475 0.929 . S
C473 C472 1.363 . S
C473 C479 1.428 . S
H474 C470 0.930 . S
H475 C472 0.929 . S
S476 N477 1.613 . S
S476 N478 1.610 . S
N477 S476 1.613 . S
N477 C480 1.350 . S
N478 S476 1.610 . S
N478 C479 1.351 . S
C479 C473 1.428 . S
C479 N478 1.351 . S
C479 C480 1.434 . S
C480 C471 1.429 . S
C480 N477 1.350 . S
C480 C479 1.434 . S
C481 C482 1.369 . S
C481 C483 1.419 . S
C481 H485 0.930 . S
C482 C481 1.369 . S
C482 C491 1.429 . S
C483 C481 1.419 . S
C483 C484 1.363 . S
C483 H486 0.929 . S
C484 C483 1.363 . S
C484 C490 1.428 . S
H485 C481 0.930 . S
H486 C483 0.929 . S
S487 N488 1.613 . S
S487 N489 1.610 . S
N488 S487 1.613 . S
N488 C491 1.350 . S
N489 S487 1.610 . S
N489 C490 1.351 . S
C490 C484 1.428 . S
C490 N489 1.351 . S
C490 C491 1.434 . S
C491 C482 1.429 . S
C491 N488 1.350 . S
C491 C490 1.434 . S
C492 C493 1.369 . S
C492 C494 1.419 . S
C492 H496 0.930 . S
C493 C492 1.369 . S
C493 C502 1.429 . S
C494 C492 1.419 . S
C494 C495 1.363 . S
C494 H497 0.929 . S
C495 C494 1.363 . S
C495 C501 1.428 . S
H496 C492 0.930 . S
H497 C494 0.929 . S
S498 N499 1.613 . S
S498 N500 1.610 . S
N499 S498 1.613 . S
N499 C502 1.350 . S
N500 S498 1.610 . S
N500 C501 1.351 . S
C501 C495 1.428 . S
C501 N500 1.351 . S
C501 C502 1.434 . S
C502 C493 1.429 . S
C502 N499 1.350 . S
C502 C501 1.434 . S
C503 C504 1.369 . S
C503 C505 1.419 . S
C503 H507 0.930 . S
C504 C503 1.369 . S
C504 C513 1.429 . S
C505 C503 1.419 . S
C505 C506 1.363 . S
C505 H508 0.929 . S
C506 C505 1.363 . S
C506 C512 1.428 . S
H507 C503 0.930 . S
H508 C505 0.929 . S
S509 N510 1.613 . S
S509 N511 1.610 . S
N510 S509 1.613 . S
N510 C513 1.350 . S
N511 S509 1.610 . S
N511 C512 1.351 . S
C512 C506 1.428 . S
C512 N511 1.351 . S
C512 C513 1.434 . S
C513 C504 1.429 . S
C513 N510 1.350 . S
C513 C512 1.434 . S
C514 C515 1.369 . S
C514 C516 1.419 . S
C514 H518 0.930 . S
C515 C514 1.369 . S
C515 C524 1.429 . S
C516 C514 1.419 . S
C516 C517 1.363 . S
C516 H519 0.929 . S
C517 C516 1.363 . S
C517 C523 1.428 . S
H518 C514 0.930 . S
H519 C516 0.929 . S
S520 N521 1.613 1_455 S
S520 N522 1.610 1_455 S
N521 S520 1.613 1_655 S
N521 C524 1.350 . S
N522 S520 1.610 1_655 S
N522 C523 1.351 . S
C523 C517 1.428 . S
C523 N522 1.351 . S
C523 C524 1.434 . S
C524 C515 1.429 . S
C524 N521 1.350 . S
C524 C523 1.434 . S
C525 C526 1.369 . S
C525 C527 1.419 . S
C525 H529 0.930 . S
C526 C525 1.369 . S
C526 C535 1.429 . S
C527 C525 1.419 . S
C527 C528 1.363 . S
C527 H530 0.929 . S
C528 C527 1.363 . S
C528 C534 1.428 . S
H529 C525 0.930 . S
H530 C527 0.929 . S
S531 N532 1.613 . S
S531 N533 1.610 . S
N532 S531 1.613 . S
N532 C535 1.350 . S
N533 S531 1.610 . S
N533 C534 1.351 . S
C534 C528 1.428 . S
C534 N533 1.351 . S
C534 C535 1.434 . S
C535 C526 1.429 . S
C535 N532 1.350 . S
C535 C534 1.434 . S
C536 C537 1.369 . S
C536 C538 1.419 . S
C536 H540 0.930 . S
C537 C536 1.369 . S
C537 C546 1.429 . S
C538 C536 1.419 . S
C538 C539 1.363 . S
C538 H541 0.929 . S
C539 C538 1.363 . S
C539 C545 1.428 . S
H540 C536 0.930 . S
H541 C538 0.929 . S
S542 N543 1.613 . S
S542 N544 1.610 . S
N543 S542 1.613 . S
N543 C546 1.350 . S
N544 S542 1.610 . S
N544 C545 1.351 . S
C545 C539 1.428 . S
C545 N544 1.351 . S
C545 C546 1.434 . S
C546 C537 1.429 . S
C546 N543 1.350 . S
C546 C545 1.434 . S
C547 C548 1.369 . S
C547 C549 1.419 . S
C547 H551 0.930 . S
C548 C547 1.369 . S
C548 C557 1.429 . S
C549 C547 1.419 . S
C549 C550 1.363 . S
C549 H552 0.929 . S
C550 C549 1.363 . S
C550 C556 1.428 . S
H551 C547 0.930 . S
H552 C549 0.929 . S
S553 N554 1.613 . S
S553 N555 1.610 . S
N554 S553 1.613 . S
N554 C557 1.350 . S
N555 S553 1.610 . S
N555 C556 1.351 . S
C556 C550 1.428 . S
C556 N555 1.351 . S
C556 C557 1.434 . S
C557 C548 1.429 . S
C557 N554 1.350 . S
C557 C556 1.434 . S
C558 C559 1.369 . S
C558 C560 1.419 . S
C558 H562 0.930 . S
C559 C558 1.369 . S
C559 C568 1.429 . S
C560 C558 1.419 . S
C560 C561 1.363 . S
C560 H563 0.929 . S
C561 C560 1.363 . S
C561 C567 1.428 . S
H562 C558 0.930 . S
H563 C560 0.929 . S
S564 N565 1.613 . S
S564 N566 1.610 . S
N565 S564 1.613 . S
N565 C568 1.350 . S
N566 S564 1.610 . S
N566 C567 1.351 . S
C567 C561 1.428 . S
C567 N566 1.351 . S
C567 C568 1.434 . S
C568 C559 1.429 . S
C568 N565 1.350 . S
C568 C567 1.434 . S
C569 C570 1.369 . S
C569 C571 1.419 . S
C569 H573 0.930 . S
C570 C569 1.369 . S
C570 C579 1.429 . S
C571 C569 1.419 . S
C571 C572 1.363 . S
C571 H574 0.929 . S
C572 C571 1.363 . S
C572 C578 1.428 . S
H573 C569 0.930 . S
H574 C571 0.929 . S
S575 N576 1.613 . S
S575 N577 1.610 . S
N576 S575 1.613 . S
N576 C579 1.350 . S
N577 S575 1.610 . S
N577 C578 1.351 . S
C578 C572 1.428 . S
C578 N577 1.351 . S
C578 C579 1.434 . S
C579 C570 1.429 . S
C579 N576 1.350 . S
C579 C578 1.434 . S
C580 C581 1.369 . S
C580 C582 1.419 . S
C580 H584 0.930 . S
C581 C580 1.369 . S
C581 C590 1.429 . S
C582 C580 1.419 . S
C582 C583 1.363 . S
C582 H585 0.929 . S
C583 C582 1.363 . S
C583 C589 1.428 . S
H584 C580 0.930 . S
H585 C582 0.929 . S
S586 N587 1.613 . S
S586 N588 1.610 . S
N587 S586 1.613 . S
N587 C590 1.350 . S
N588 S586 1.610 . S
N588 C589 1.351 . S
C589 C583 1.428 . S
C589 N588 1.351 . S
C589 C590 1.434 . S
C590 C581 1.429 . S
C590 N587 1.350 . S
C590 C589 1.434 . S
C591 C592 1.369 . S
C591 C593 1.419 . S
C591 H595 0.930 . S
C592 C591 1.369 . S
C592 C601 1.429 . S
C593 C591 1.419 . S
C593 C594 1.363 . S
C593 H596 0.929 . S
C594 C593 1.363 . S
C594 C600 1.428 . S
H595 C591 0.930 . S
H596 C593 0.929 . S
S597 N598 1.613 . S
S597 N599 1.610 . S
N598 S597 1.613 . S
N598 C601 1.350 . S
N599 S597 1.610 . S
N599 C600 1.351 . S
C600 C594 1.428 . S
C600 N599 1.351 . S
C600 C601 1.434 . S
C601 C592 1.429 . S
C601 N598 1.350 . S
C601 C600 1.434 . S
C602 C603 1.369 . S
C602 C604 1.419 . S
C602 H606 0.930 . S
C603 C602 1.369 . S
C603 C612 1.429 . S
C604 C602 1.419 . S
C604 C605 1.363 . S
C604 H607 0.929 . S
C605 C604 1.363 . S
C605 C611 1.428 . S
H606 C602 0.930 . S
H607 C604 0.929 . S
S608 N609 1.613 . S
S608 N610 1.610 . S
N609 S608 1.613 . S
N609 C612 1.350 . S
N610 S608 1.610 . S
N610 C611 1.351 . S
C611 C605 1.428 . S
C611 N610 1.351 . S
C611 C612 1.434 . S
C612 C603 1.429 . S
C612 N609 1.350 . S
C612 C611 1.434 . S
C613 C614 1.369 . S
C613 C615 1.419 . S
C613 H617 0.930 . S
C614 C613 1.369 . S
C614 C623 1.429 . S
C615 C613 1.419 . S
C615 C616 1.363 . S
C615 H618 0.929 . S
C616 C615 1.363 . S
C616 C622 1.428 . S
H617 C613 0.930 . S
H618 C615 0.929 . S
S619 N620 1.613 . S
S619 N621 1.610 . S
N620 S619 1.613 . S
N620 C623 1.350 . S
N621 S619 1.610 . S
N621 C622 1.351 . S
C622 C616 1.428 . S
C622 N621 1.351 . S
C622 C623 1.434 . S
C623 C614 1.429 . S
C623 N620 1.350 . S
C623 C622 1.434 . S
C624 C625 1.369 . S
C624 C626 1.419 1_655 S
C624 H628 0.930 . S
C625 C624 1.369 . S
C625 C634 1.429 1_556 S
C626 C624 1.419 1_455 S
C626 C627 1.363 1_556 S
C626 H629 0.929 . S
C627 C626 1.363 1_554 S
C627 C633 1.428 . S
H628 C624 0.930 . S
H629 C626 0.929 . S
S630 N631 1.598 1_455 S
S630 N632 1.625 . S
N631 S630 1.598 1_655 S
N631 C634 1.350 . S
N632 S630 1.625 . S
N632 C633 1.351 . S
C633 C627 1.428 . S
C633 N632 1.351 . S
C633 C634 1.434 1_455 S
C634 C625 1.429 1_554 S
C634 N631 1.350 . S
C634 C633 1.434 1_655 S
C635 C636 1.369 . S
C635 C637 1.419 1_556 S
C635 H639 0.930 . S
C636 C635 1.369 . S
C636 C645 1.429 . S
C637 C635 1.419 1_554 S
C637 C638 1.363 . S
C637 H640 0.929 . S
C638 C637 1.363 . S
C638 C644 1.428 . S
H639 C635 0.930 . S
H640 C637 0.929 . S
S641 N642 1.613 1_554 S
S641 N643 1.610 . S
N642 S641 1.613 1_556 S
N642 C645 1.350 . S
N643 S641 1.610 . S
N643 C644 1.351 . S
C644 C638 1.428 . S
C644 N643 1.351 . S
C644 C645 1.434 1_554 S
C645 C636 1.429 . S
C645 N642 1.350 . S
C645 C644 1.434 1_556 S
C646 C647 1.369 . S
C646 C648 1.419 1_455 S
C646 H650 0.930 . S
C647 C646 1.369 . S
C647 C656 1.429 . S
C648 C646 1.419 1_655 S
C648 C649 1.363 . S
C648 H651 0.929 . S
C649 C648 1.363 . S
C649 C655 1.428 . S
H650 C646 0.930 . S
H651 C648 0.929 . S
S652 N653 1.594 1_655 S
S652 N654 1.610 . S
N653 S652 1.594 1_455 S
N653 C656 1.352 . S
N654 S652 1.610 . S
N654 C655 1.351 . S
C655 C649 1.428 . S
C655 N654 1.351 . S
C655 C656 1.434 1_655 S
C656 C647 1.429 . S
C656 N653 1.352 . S
C656 C655 1.434 1_455 S
C657 C658 1.369 . S
C657 C659 1.419 . S
C657 H661 0.930 . S
C658 C657 1.369 . S
C658 C667 1.429 . S
C659 C657 1.419 . S
C659 C660 1.363 . S
C659 H662 0.929 . S
C660 C659 1.363 . S
C660 C666 1.428 . S
H661 C657 0.930 . S
H662 C659 0.929 . S
S663 N664 1.613 . S
S663 N665 1.610 . S
N664 S663 1.613 . S
N664 C667 1.350 . S
N665 S663 1.610 . S
N665 C666 1.351 . S
C666 C660 1.428 . S
C666 N665 1.351 . S
C666 C667 1.434 . S
C667 C658 1.429 . S
C667 N664 1.350 . S
C667 C666 1.434 . S
C668 C669 1.369 1_554 S
C668 C670 1.419 . S
C668 H672 0.930 . S
C669 C668 1.369 1_556 S
C669 C678 1.429 . S
C670 C668 1.419 . S
C670 C671 1.363 . S
C670 H673 0.929 . S
C671 C670 1.363 . S
C671 C677 1.428 1_554 S
H672 C668 0.930 . S
H673 C670 0.929 . S
S674 N675 1.613 . S
S674 N676 1.610 . S
N675 S674 1.613 . S
N675 C678 1.350 . S
N676 S674 1.610 . S
N676 C677 1.351 . S
C677 C671 1.428 1_556 S
C677 N676 1.351 . S
C677 C678 1.434 . S
C678 C669 1.429 . S
C678 N675 1.350 . S
C678 C677 1.434 . S
C679 C680 1.369 . S
C679 C681 1.419 . S
C679 H683 0.930 . S
C680 C679 1.369 . S
C680 C689 1.429 1_655 S
C681 C679 1.419 . S
C681 C682 1.363 1_655 S
C681 H684 0.929 . S
C682 C681 1.363 1_455 S
C682 C688 1.428 . S
H683 C679 0.930 . S
H684 C681 0.929 . S
S685 N686 1.613 . S
S685 N687 1.610 . S
N686 S685 1.613 . S
N686 C689 1.350 . S
N687 S685 1.610 . S
N687 C688 1.351 . S
C688 C682 1.428 . S
C688 N687 1.351 . S
C688 C689 1.434 . S
C689 C680 1.429 1_455 S
C689 N686 1.350 . S
C689 C688 1.434 . S
C690 C691 1.369 . S
C690 C692 1.419 . S
C690 H694 0.930 . S
C691 C690 1.369 . S
C691 C700 1.429 . S
C692 C690 1.419 . S
C692 C693 1.363 . S
C692 H695 0.929 . S
C693 C692 1.363 . S
C693 C699 1.428 . S
H694 C690 0.930 . S
H695 C692 0.929 . S
S696 N697 1.613 . S
S696 N698 1.610 . S
N697 S696 1.613 . S
N697 C700 1.350 . S
N698 S696 1.610 . S
N698 C699 1.351 . S
C699 C693 1.428 . S
C699 N698 1.351 . S
C699 C700 1.434 . S
C700 C691 1.429 . S
C700 N697 1.350 . S
C700 C699 1.434 . S
C701 C702 1.369 1_565 S
C701 C703 1.419 1_655 S
C701 H705 0.930 . S
C702 C701 1.369 1_545 S
C702 C711 1.429 . S
C703 C701 1.419 1_455 S
C703 C704 1.363 . S
C703 H706 0.929 . S
C704 C703 1.363 . S
C704 C710 1.428 1_565 S
H705 C701 0.930 . S
H706 C703 0.929 . S
S707 N708 1.613 . S
S707 N709 1.610 1_655 S
N708 S707 1.613 . S
N708 C711 1.350 . S
N709 S707 1.610 1_455 S
N709 C710 1.351 . S
C710 C704 1.428 1_545 S
C710 N709 1.351 . S
C710 C711 1.434 1_455 S
C711 C702 1.429 . S
C711 N708 1.350 . S
C711 C710 1.434 1_655 S
C712 C713 1.369 . S
C712 C714 1.419 . S
C712 H716 0.930 . S
C713 C712 1.369 . S
C713 C722 1.429 . S
C714 C712 1.419 . S
C714 C715 1.363 . S
C714 H717 0.929 . S
C715 C714 1.363 . S
C715 C721 1.428 . S
H716 C712 0.930 . S
H717 C714 0.929 . S
S718 N719 1.613 . S
S718 N720 1.610 . S
N719 S718 1.613 . S
N719 C722 1.350 . S
N720 S718 1.610 . S
N720 C721 1.351 . S
C721 C715 1.428 . S
C721 N720 1.351 . S
C721 C722 1.434 . S
C722 C713 1.429 . S
C722 N719 1.350 . S
C722 C721 1.434 . S
C723 C724 1.369 . S
C723 C725 1.419 . S
C723 H727 0.930 . S
C724 C723 1.369 . S
C724 C733 1.429 1_565 S
C725 C723 1.419 . S
C725 C726 1.363 1_565 S
C725 H728 0.929 . S
C726 C725 1.363 1_545 S
C726 C732 1.428 . S
H727 C723 0.930 . S
H728 C725 0.929 . S
S729 N730 1.613 . S
S729 N731 1.610 . S
N730 S729 1.613 . S
N730 C733 1.350 . S
N731 S729 1.610 . S
N731 C732 1.351 . S
C732 C726 1.428 . S
C732 N731 1.351 . S
C732 C733 1.434 . S
C733 C724 1.429 1_545 S
C733 N730 1.350 . S
C733 C732 1.434 . S
C734 C735 1.369 . S
C734 C736 1.419 . S
C734 H738 0.930 . S
C735 C734 1.369 . S
C735 C744 1.429 . S
C736 C734 1.419 . S
C736 C737 1.363 . S
C736 H739 0.929 . S
C737 C736 1.363 . S
C737 C743 1.428 . S
H738 C734 0.930 . S
H739 C736 0.929 . S
S740 N741 1.613 . S
S740 N742 1.610 . S
N741 S740 1.613 . S
N741 C744 1.350 . S
N742 S740 1.610 . S
N742 C743 1.351 . S
C743 C737 1.428 . S
C743 N742 1.351 . S
C743 C744 1.434 . S
C744 C735 1.429 . S
C744 N741 1.350 . S
C744 C743 1.434 . S
C745 C746 1.369 . S
C745 C747 1.419 1_565 S
C745 H749 0.930 . S
C746 C745 1.369 . S
C746 C755 1.429 . S
C747 C745 1.419 1_545 S
C747 C748 1.363 . S
C747 H750 0.929 . S
C748 C747 1.363 . S
C748 C754 1.428 . S
H749 C745 0.930 . S
H750 C747 0.929 . S
S751 N752 1.613 1_545 S
S751 N753 1.610 . S
N752 S751 1.613 1_565 S
N752 C755 1.350 . S
N753 S751 1.610 . S
N753 C754 1.351 . S
C754 C748 1.428 . S
C754 N753 1.351 . S
C754 C755 1.434 1_545 S
C755 C746 1.429 . S
C755 N752 1.350 . S
C755 C754 1.434 1_565 S
C756 C757 1.369 . S
C756 C758 1.419 . S
C756 H760 0.930 . S
C757 C756 1.369 . S
C757 C766 1.429 . S
C758 C756 1.419 . S
C758 C759 1.363 . S
C758 H761 0.929 . S
C759 C758 1.363 . S
C759 C765 1.428 . S
H760 C756 0.930 . S
H761 C758 0.929 . S
S762 N763 1.613 . S
S762 N764 1.610 . S
N763 S762 1.613 . S
N763 C766 1.350 . S
N764 S762 1.610 . S
N764 C765 1.351 . S
C765 C759 1.428 . S
C765 N764 1.351 . S
C765 C766 1.434 . S
C766 C757 1.429 . S
C766 N763 1.350 . S
C766 C765 1.434 . S
C767 C768 1.369 . S
C767 C769 1.419 . S
C767 H771 0.930 . S
C768 C767 1.369 . S
C768 C777 1.429 . S
C769 C767 1.419 . S
C769 C770 1.363 . S
C769 H772 0.929 . S
C770 C769 1.363 . S
C770 C776 1.428 . S
H771 C767 0.930 . S
H772 C769 0.929 . S
S773 N774 1.613 . S
S773 N775 1.610 . S
N774 S773 1.613 . S
N774 C777 1.350 . S
N775 S773 1.610 . S
N775 C776 1.351 . S
C776 C770 1.428 . S
C776 N775 1.351 . S
C776 C777 1.434 . S
C777 C768 1.429 . S
C777 N774 1.350 . S
C777 C776 1.434 . S
C778 C779 1.369 . S
C778 C780 1.419 . S
C778 H782 0.930 . S
C779 C778 1.369 . S
C779 C788 1.429 . S
C780 C778 1.419 . S
C780 C781 1.363 . S
C780 H783 0.929 . S
C781 C780 1.363 . S
C781 C787 1.428 . S
H782 C778 0.930 . S
H783 C780 0.929 . S
S784 N785 1.613 . S
S784 N786 1.610 . S
N785 S784 1.613 . S
N785 C788 1.350 . S
N786 S784 1.610 . S
N786 C787 1.351 . S
C787 C781 1.428 . S
C787 N786 1.351 . S
C787 C788 1.434 . S
C788 C779 1.429 . S
C788 N785 1.350 . S
C788 C787 1.434 . S
C789 C790 1.369 1_554 S
C789 C791 1.419 . S
C789 H793 0.930 . S
C790 C789 1.369 1_556 S
C790 C799 1.429 1_545 S
C791 C789 1.419 . S
C791 C792 1.363 1_545 S
C791 H794 0.929 . S
C792 C791 1.363 1_565 S
C792 C798 1.428 1_554 S
H793 C789 0.930 . S
H794 C791 0.929 . S
S795 N796 1.613 . S
S795 N797 1.610 . S
N796 S795 1.613 . S
N796 C799 1.350 . S
N797 S795 1.610 . S
N797 C798 1.351 . S
C798 C792 1.428 1_556 S
C798 N797 1.351 . S
C798 C799 1.434 . S
C799 C790 1.429 1_565 S
C799 N796 1.350 . S
C799 C798 1.434 . S
C800 C801 1.369 . S
C800 C802 1.419 . S
C800 H804 0.930 . S
C801 C800 1.369 . S
C801 C810 1.429 . S
C802 C800 1.419 . S
C802 C803 1.363 . S
C802 H805 0.929 . S
C803 C802 1.363 . S
C803 C809 1.428 . S
H804 C800 0.930 . S
H805 C802 0.929 . S
S806 N807 1.613 . S
S806 N808 1.610 . S
N807 S806 1.613 . S
N807 C810 1.350 . S
N808 S806 1.610 . S
N808 C809 1.351 . S
C809 C803 1.428 . S
C809 N808 1.351 . S
C809 C810 1.434 . S
C810 C801 1.429 . S
C810 N807 1.350 . S
C810 C809 1.434 . S
C811 C812 1.369 . S
C811 C813 1.419 . S
C811 H815 0.930 . S
C812 C811 1.369 . S
C812 C821 1.429 . S
C813 C811 1.419 . S
C813 C814 1.363 . S
C813 H816 0.929 . S
C814 C813 1.363 . S
C814 C820 1.428 . S
H815 C811 0.930 . S
H816 C813 0.929 . S
S817 N818 1.613 . S
S817 N819 1.610 . S
N818 S817 1.613 . S
N818 C821 1.350 . S
N819 S817 1.610 . S
N819 C820 1.351 . S
C820 C814 1.428 . S
C820 N819 1.351 . S
C820 C821 1.434 . S
C821 C812 1.429 . S
C821 N818 1.350 . S
C821 C820 1.434 . S
C822 C823 1.369 . S
C822 C824 1.419 . S
C822 H826 0.930 . S
C823 C822 1.369 . S
C823 C832 1.429 . S
C824 C822 1.419 . S
C824 C825 1.363 . S
C824 H827 0.929 . S
C825 C824 1.363 . S
C825 C831 1.428 . S
H826 C822 0.930 . S
H827 C824 0.929 . S
S828 N829 1.613 . S
S828 N830 1.610 . S
N829 S828 1.613 . S
N829 C832 1.350 . S
N830 S828 1.610 . S
N830 C831 1.351 . S
C831 C825 1.428 . S
C831 N830 1.351 . S
C831 C832 1.434 . S
C832 C823 1.429 . S
C832 N829 1.350 . S
C832 C831 1.434 . S
C833 C834 1.369 . S
C833 C835 1.419 . S
C833 H837 0.930 . S
C834 C833 1.369 . S
C834 C843 1.429 . S
C835 C833 1.419 . S
C835 C836 1.363 . S
C835 H838 0.929 . S
C836 C835 1.363 . S
C836 C842 1.428 . S
H837 C833 0.930 . S
H838 C835 0.929 . S
S839 N840 1.613 . S
S839 N841 1.610 . S
N840 S839 1.613 . S
N840 C843 1.350 . S
N841 S839 1.610 . S
N841 C842 1.351 . S
C842 C836 1.428 . S
C842 N841 1.351 . S
C842 C843 1.434 . S
C843 C834 1.429 . S
C843 N840 1.350 . S
C843 C842 1.434 . S
C844 C845 1.369 . S
C844 C846 1.419 . S
C844 H848 0.930 . S
C845 C844 1.369 . S
C845 C854 1.429 . S
C846 C844 1.419 . S
C846 C847 1.363 . S
C846 H849 0.929 . S
C847 C846 1.363 . S
C847 C853 1.428 . S
H848 C844 0.930 . S
H849 C846 0.929 . S
S850 N851 1.613 1_545 S
S850 N852 1.610 1_545 S
N851 S850 1.613 1_565 S
N851 C854 1.350 . S
N852 S850 1.610 1_565 S
N852 C853 1.351 . S
C853 C847 1.428 . S
C853 N852 1.351 . S
C853 C854 1.434 . S
C854 C845 1.429 . S
C854 N851 1.350 . S
C854 C853 1.434 . S
C855 C856 1.369 . S
C855 C857 1.419 . S
C855 H859 0.930 . S
C856 C855 1.369 . S
C856 C865 1.429 . S
C857 C855 1.419 . S
C857 C858 1.363 . S
C857 H860 0.929 . S
C858 C857 1.363 . S
C858 C864 1.428 . S
H859 C855 0.930 . S
H860 C857 0.929 . S
S861 N862 1.613 . S
S861 N863 1.610 . S
N862 S861 1.613 . S
N862 C865 1.350 . S
N863 S861 1.610 . S
N863 C864 1.351 . S
C864 C858 1.428 . S
C864 N863 1.351 . S
C864 C865 1.434 . S
C865 C856 1.429 . S
C865 N862 1.350 . S
C865 C864 1.434 . S
C866 C867 1.369 . S
C866 C868 1.419 . S
C866 H870 0.930 . S
C867 C866 1.369 . S
C867 C876 1.429 . S
C868 C866 1.419 . S
C868 C869 1.363 . S
C868 H871 0.929 . S
C869 C868 1.363 . S
C869 C875 1.428 . S
H870 C866 0.930 . S
H871 C868 0.929 . S
S872 N873 1.613 . S
S872 N874 1.610 . S
N873 S872 1.613 . S
N873 C876 1.350 . S
N874 S872 1.610 . S
N874 C875 1.351 . S
C875 C869 1.428 . S
C875 N874 1.351 . S
C875 C876 1.434 . S
C876 C867 1.429 . S
C876 N873 1.350 . S
C876 C875 1.434 . S
C877 C878 1.369 . S
C877 C879 1.419 . S
C877 H881 0.930 . S
C878 C877 1.369 . S
C878 C887 1.429 . S
C879 C877 1.419 . S
C879 C880 1.363 . S
C879 H882 0.929 . S
C880 C879 1.363 . S
C880 C886 1.428 . S
H881 C877 0.930 . S
H882 C879 0.929 . S
S883 N884 1.613 . S
S883 N885 1.610 . S
N884 S883 1.613 . S
N884 C887 1.350 . S
N885 S883 1.610 . S
N885 C886 1.351 . S
C886 C880 1.428 . S
C886 N885 1.351 . S
C886 C887 1.434 . S
C887 C878 1.429 . S
C887 N884 1.350 . S
C887 C886 1.434 . S
C888 C889 1.369 . S
C888 C890 1.419 . S
C888 H892 0.930 . S
C889 C888 1.369 . S
C889 C898 1.429 . S
C890 C888 1.419 . S
C890 C891 1.363 . S
C890 H893 0.929 . S
C891 C890 1.363 . S
C891 C897 1.428 . S
H892 C888 0.930 . S
H893 C890 0.929 . S
S894 N895 1.613 . S
S894 N896 1.610 . S
N895 S894 1.613 . S
N895 C898 1.350 . S
N896 S894 1.610 . S
N896 C897 1.351 . S
C897 C891 1.428 . S
C897 N896 1.351 . S
C897 C898 1.434 . S
C898 C889 1.429 . S
C898 N895 1.350 . S
C898 C897 1.434 . S
C899 C900 1.369 . S
C899 C901 1.419 . S
C899 H903 0.930 . S
C900 C899 1.369 . S
C900 C909 1.429 . S
C901 C899 1.419 . S
C901 C902 1.363 . S
C901 H904 0.929 . S
C902 C901 1.363 . S
C902 C908 1.428 . S
H903 C899 0.930 . S
H904 C901 0.929 . S
S905 N906 1.613 . S
S905 N907 1.610 . S
N906 S905 1.613 . S
N906 C909 1.350 . S
N907 S905 1.610 . S
N907 C908 1.351 . S
C908 C902 1.428 . S
C908 N907 1.351 . S
C908 C909 1.434 . S
C909 C900 1.429 . S
C909 N906 1.350 . S
C909 C908 1.434 . S
C910 C911 1.369 . S
C910 C912 1.419 . S
C910 H914 0.930 . S
C911 C910 1.369 . S
C911 C920 1.429 . S
C912 C910 1.419 . S
C912 C913 1.363 . S
C912 H915 0.929 . S
C913 C912 1.363 . S
C913 C919 1.428 . S
H914 C910 0.930 . S
H915 C912 0.929 . S
S916 N917 1.613 . S
S916 N918 1.610 . S
N917 S916 1.613 . S
N917 C920 1.350 . S
N918 S916 1.610 . S
N918 C919 1.351 . S
C919 C913 1.428 . S
C919 N918 1.351 . S
C919 C920 1.434 . S
C920 C911 1.429 . S
C920 N917 1.350 . S
C920 C919 1.434 . S
C921 C922 1.369 . S
C921 C923 1.419 . S
C921 H925 0.930 . S
C922 C921 1.369 . S
C922 C931 1.429 . S
C923 C921 1.419 . S
C923 C924 1.363 . S
C923 H926 0.929 . S
C924 C923 1.363 . S
C924 C930 1.428 . S
H925 C921 0.930 . S
H926 C923 0.929 . S
S927 N928 1.613 . S
S927 N929 1.610 . S
N928 S927 1.613 . S
N928 C931 1.350 . S
N929 S927 1.610 . S
N929 C930 1.351 . S
C930 C924 1.428 . S
C930 N929 1.351 . S
C930 C931 1.434 . S
C931 C922 1.429 . S
C931 N928 1.350 . S
C931 C930 1.434 . S
C932 C933 1.369 . S
C932 C934 1.419 . S
C932 H936 0.930 . S
C933 C932 1.369 . S
C933 C942 1.429 . S
C934 C932 1.419 . S
C934 C935 1.363 . S
C934 H937 0.929 . S
C935 C934 1.363 . S
C935 C941 1.428 . S
H936 C932 0.930 . S
H937 C934 0.929 . S
S938 N939 1.613 . S
S938 N940 1.610 . S
N939 S938 1.613 . S
N939 C942 1.350 . S
N940 S938 1.610 . S
N940 C941 1.351 . S
C941 C935 1.428 . S
C941 N940 1.351 . S
C941 C942 1.434 . S
C942 C933 1.429 . S
C942 N939 1.350 . S
C942 C941 1.434 . S
C943 C944 1.369 . S
C943 C945 1.419 . S
C943 H947 0.930 . S
C944 C943 1.369 . S
C944 C953 1.429 . S
C945 C943 1.419 . S
C945 C946 1.363 . S
C945 H948 0.929 . S
C946 C945 1.363 . S
C946 C952 1.428 . S
H947 C943 0.930 . S
H948 C945 0.929 . S
S949 N950 1.613 . S
S949 N951 1.610 . S
N950 S949 1.613 . S
N950 C953 1.350 . S
N951 S949 1.610 . S
N951 C952 1.351 . S
C952 C946 1.428 . S
C952 N951 1.351 . S
C952 C953 1.434 . S
C953 C944 1.429 . S
C953 N950 1.350 . S
C953 C952 1.434 . S
C954 C955 1.369 . S
C954 C956 1.419 . S
C954 H958 0.930 . S
C955 C954 1.369 . S
C955 C964 1.429 . S
C956 C954 1.419 . S
C956 C957 1.363 . S
C956 H959 0.929 . S
C957 C956 1.363 . S
C957 C963 1.428 . S
H958 C954 0.930 . S
H959 C956 0.929 . S
S960 N961 1.613 . S
S960 N962 1.610 . S
N961 S960 1.613 . S
N961 C964 1.350 . S
N962 S960 1.610 . S
N962 C963 1.351 . S
C963 C957 1.428 . S
C963 N962 1.351 . S
C963 C964 1.434 . S
C964 C955 1.429 . S
C964 N961 1.350 . S
C964 C963 1.434 . S
C965 C966 1.369 . S
C965 C967 1.419 . S
C965 H969 0.930 . S
C966 C965 1.369 . S
C966 C975 1.429 . S
C967 C965 1.419 . S
C967 C968 1.363 . S
C967 H970 0.929 . S
C968 C967 1.363 . S
C968 C974 1.428 . S
H969 C965 0.930 . S
H970 C967 0.929 . S
S971 N972 1.613 . S
S971 N973 1.610 . S
N972 S971 1.613 . S
N972 C975 1.350 . S
N973 S971 1.610 . S
N973 C974 1.351 . S
C974 C968 1.428 . S
C974 N973 1.351 . S
C974 C975 1.434 . S
C975 C966 1.429 . S
C975 N972 1.350 . S
C975 C974 1.434 . S
C976 C977 1.369 . S
C976 C978 1.419 . S
C976 H980 0.930 . S
C977 C976 1.369 . S
C977 C986 1.429 . S
C978 C976 1.419 . S
C978 C979 1.363 . S
C978 H981 0.929 . S
C979 C978 1.363 . S
C979 C985 1.428 . S
H980 C976 0.930 . S
H981 C978 0.929 . S
S982 N983 1.613 . S
S982 N984 1.610 . S
N983 S982 1.613 . S
N983 C986 1.350 . S
N984 S982 1.610 . S
N984 C985 1.351 . S
C985 C979 1.428 . S
C985 N984 1.351 . S
C985 C986 1.434 . S
C986 C977 1.429 . S
C986 N983 1.350 . S
C986 C985 1.434 . S
C987 C988 1.369 . S
C987 C989 1.419 . S
C987 H991 0.930 . S
C988 C987 1.369 . S
C988 C997 1.429 . S
C989 C987 1.419 . S
C989 C990 1.363 . S
C989 H992 0.929 . S
C990 C989 1.363 . S
C990 C996 1.428 . S
H991 C987 0.930 . S
H992 C989 0.929 . S
S993 N994 1.613 . S
S993 N995 1.610 . S
N994 S993 1.613 . S
N994 C997 1.350 . S
N995 S993 1.610 . S
N995 C996 1.351 . S
C996 C990 1.428 . S
C996 N995 1.351 . S
C996 C997 1.434 . S
C997 C988 1.429 . S
C997 N994 1.350 . S
C997 C996 1.434 . S
C998 C999 1.369 . S
C998 C1000 1.419 . S
C998 H1002 0.930 . S
C999 C998 1.369 . S
C999 C1008 1.429 . S
C1000 C998 1.419 . S
C1000 C1001 1.363 . S
C1000 H1003 0.929 . S
C1001 C1000 1.363 . S
C1001 C1007 1.428 . S
H1002 C998 0.930 . S
H1003 C1000 0.929 . S
S1004 N1005 1.613 . S
S1004 N1006 1.610 . S
N1005 S1004 1.613 . S
N1005 C1008 1.350 . S
N1006 S1004 1.610 . S
N1006 C1007 1.351 . S
C1007 C1001 1.428 . S
C1007 N1006 1.351 . S
C1007 C1008 1.434 . S
C1008 C999 1.429 . S
C1008 N1005 1.350 . S
C1008 C1007 1.434 . S
C1009 C1010 1.369 . S
C1009 C1011 1.419 . S
C1009 H1013 0.930 . S
C1010 C1009 1.369 . S
C1010 C1019 1.429 . S
C1011 C1009 1.419 . S
C1011 C1012 1.363 . S
C1011 H1014 0.929 . S
C1012 C1011 1.363 . S
C1012 C1018 1.428 . S
H1013 C1009 0.930 . S
H1014 C1011 0.929 . S
S1015 N1016 1.613 . S
S1015 N1017 1.610 . S
N1016 S1015 1.613 . S
N1016 C1019 1.350 . S
N1017 S1015 1.610 . S
N1017 C1018 1.351 . S
C1018 C1012 1.428 . S
C1018 N1017 1.351 . S
C1018 C1019 1.434 . S
C1019 C1010 1.429 . S
C1019 N1016 1.350 . S
C1019 C1018 1.434 . S
C1020 C1021 1.369 . S
C1020 C1022 1.419 . S
C1020 H1024 0.930 . S
C1021 C1020 1.369 . S
C1021 C1030 1.429 . S
C1022 C1020 1.419 . S
C1022 C1023 1.363 . S
C1022 H1025 0.929 . S
C1023 C1022 1.363 . S
C1023 C1029 1.428 . S
H1024 C1020 0.930 . S
H1025 C1022 0.929 . S
S1026 N1027 1.613 . S
S1026 N1028 1.610 . S
N1027 S1026 1.613 . S
N1027 C1030 1.350 . S
N1028 S1026 1.610 . S
N1028 C1029 1.351 . S
C1029 C1023 1.428 . S
C1029 N1028 1.351 . S
C1029 C1030 1.434 . S
C1030 C1021 1.429 . S
C1030 N1027 1.350 . S
C1030 C1029 1.434 . S
C1031 C1032 1.369 . S
C1031 C1033 1.419 . S
C1031 H1035 0.930 . S
C1032 C1031 1.369 . S
C1032 C1041 1.429 . S
C1033 C1031 1.419 . S
C1033 C1034 1.363 . S
C1033 H1036 0.929 . S
C1034 C1033 1.363 . S
C1034 C1040 1.428 . S
H1035 C1031 0.930 . S
H1036 C1033 0.929 . S
S1037 N1038 1.613 . S
S1037 N1039 1.610 . S
N1038 S1037 1.613 . S
N1038 C1041 1.350 . S
N1039 S1037 1.610 . S
N1039 C1040 1.351 . S
C1040 C1034 1.428 . S
C1040 N1039 1.351 . S
C1040 C1041 1.434 . S
C1041 C1032 1.429 . S
C1041 N1038 1.350 . S
C1041 C1040 1.434 . S
C1042 C1043 1.369 . S
C1042 C1044 1.419 . S
C1042 H1046 0.930 . S
C1043 C1042 1.369 . S
C1043 C1052 1.429 . S
C1044 C1042 1.419 . S
C1044 C1045 1.363 . S
C1044 H1047 0.929 . S
C1045 C1044 1.363 . S
C1045 C1051 1.428 . S
H1046 C1042 0.930 . S
H1047 C1044 0.929 . S
S1048 N1049 1.613 . S
S1048 N1050 1.610 . S
N1049 S1048 1.613 . S
N1049 C1052 1.350 . S
N1050 S1048 1.610 . S
N1050 C1051 1.351 . S
C1051 C1045 1.428 . S
C1051 N1050 1.351 . S
C1051 C1052 1.434 . S
C1052 C1043 1.429 . S
C1052 N1049 1.350 . S
C1052 C1051 1.434 . S
C1053 C1054 1.369 . S
C1053 C1055 1.419 . S
C1053 H1057 0.930 . S
C1054 C1053 1.369 . S
C1054 C1063 1.429 . S
C1055 C1053 1.419 . S
C1055 C1056 1.363 . S
C1055 H1058 0.929 . S
C1056 C1055 1.363 . S
C1056 C1062 1.428 . S
H1057 C1053 0.930 . S
H1058 C1055 0.929 . S
S1059 N1060 1.613 . S
S1059 N1061 1.610 . S
N1060 S1059 1.613 . S
N1060 C1063 1.350 . S
N1061 S1059 1.610 . S
N1061 C1062 1.351 . S
C1062 C1056 1.428 . S
C1062 N1061 1.351 . S
C1062 C1063 1.434 . S
C1063 C1054 1.429 . S
C1063 N1060 1.350 . S
C1063 C1062 1.434 . S
C1064 C1065 1.369 . S
C1064 C1066 1.419 . S
C1064 H1068 0.930 . S
C1065 C1064 1.369 . S
C1065 C1074 1.429 . S
C1066 C1064 1.419 . S
C1066 C1067 1.363 . S
C1066 H1069 0.929 . S
C1067 C1066 1.363 . S
C1067 C1073 1.428 . S
H1068 C1064 0.930 . S
H1069 C1066 0.929 . S
S1070 N1071 1.613 . S
S1070 N1072 1.610 . S
N1071 S1070 1.613 . S
N1071 C1074 1.350 . S
N1072 S1070 1.610 . S
N1072 C1073 1.351 . S
C1073 C1067 1.428 . S
C1073 N1072 1.351 . S
C1073 C1074 1.434 . S
C1074 C1065 1.429 . S
C1074 N1071 1.350 . S
C1074 C1073 1.434 . S
C1075 C1076 1.369 . S
C1075 C1077 1.419 . S
C1075 H1079 0.930 . S
C1076 C1075 1.369 . S
C1076 C1085 1.429 . S
C1077 C1075 1.419 . S
C1077 C1078 1.363 . S
C1077 H1080 0.929 . S
C1078 C1077 1.363 . S
C1078 C1084 1.428 . S
H1079 C1075 0.930 . S
H1080 C1077 0.929 . S
S1081 N1082 1.613 . S
S1081 N1083 1.610 . S
N1082 S1081 1.613 . S
N1082 C1085 1.350 . S
N1083 S1081 1.610 . S
N1083 C1084 1.351 . S
C1084 C1078 1.428 . S
C1084 N1083 1.351 . S
C1084 C1085 1.434 . S
C1085 C1076 1.429 . S
C1085 N1082 1.350 . S
C1085 C1084 1.434 . S
C1086 C1087 1.369 . S
C1086 C1088 1.419 . S
C1086 H1090 0.930 . S
C1087 C1086 1.369 . S
C1087 C1096 1.429 . S
C1088 C1086 1.419 . S
C1088 C1089 1.363 . S
C1088 H1091 0.929 . S
C1089 C1088 1.363 . S
C1089 C1095 1.428 . S
H1090 C1086 0.930 . S
H1091 C1088 0.929 . S
S1092 N1093 1.613 . S
S1092 N1094 1.610 . S
N1093 S1092 1.613 . S
N1093 C1096 1.350 . S
N1094 S1092 1.610 . S
N1094 C1095 1.351 . S
C1095 C1089 1.428 . S
C1095 N1094 1.351 . S
C1095 C1096 1.434 . S
C1096 C1087 1.429 . S
C1096 N1093 1.350 . S
C1096 C1095 1.434 . S
C1097 C1098 1.369 . S
C1097 C1099 1.419 . S
C1097 H1101 0.930 . S
C1098 C1097 1.369 . S
C1098 C1107 1.429 . S
C1099 C1097 1.419 . S
C1099 C1100 1.363 . S
C1099 H1102 0.929 . S
C1100 C1099 1.363 . S
C1100 C1106 1.428 . S
H1101 C1097 0.930 . S
H1102 C1099 0.929 . S
S1103 N1104 1.613 . S
S1103 N1105 1.610 . S
N1104 S1103 1.613 . S
N1104 C1107 1.350 . S
N1105 S1103 1.610 . S
N1105 C1106 1.351 . S
C1106 C1100 1.428 . S
C1106 N1105 1.351 . S
C1106 C1107 1.434 . S
C1107 C1098 1.429 . S
C1107 N1104 1.350 . S
C1107 C1106 1.434 . S
C1108 C1109 1.369 . S
C1108 C1110 1.419 . S
C1108 H1112 0.930 . S
C1109 C1108 1.369 . S
C1109 C1118 1.429 . S
C1110 C1108 1.419 . S
C1110 C1111 1.363 . S
C1110 H1113 0.929 . S
C1111 C1110 1.363 . S
C1111 C1117 1.428 . S
H1112 C1108 0.930 . S
H1113 C1110 0.929 . S
S1114 N1115 1.613 . S
S1114 N1116 1.610 . S
N1115 S1114 1.613 . S
N1115 C1118 1.350 . S
N1116 S1114 1.610 . S
N1116 C1117 1.351 . S
C1117 C1111 1.428 . S
C1117 N1116 1.351 . S
C1117 C1118 1.434 . S
C1118 C1109 1.429 . S
C1118 N1115 1.350 . S
C1118 C1117 1.434 . S
C1119 C1120 1.369 . S
C1119 C1121 1.419 . S
C1119 H1123 0.930 . S
C1120 C1119 1.369 . S
C1120 C1129 1.429 . S
C1121 C1119 1.419 . S
C1121 C1122 1.363 . S
C1121 H1124 0.929 . S
C1122 C1121 1.363 . S
C1122 C1128 1.428 . S
H1123 C1119 0.930 . S
H1124 C1121 0.929 . S
S1125 N1126 1.613 . S
S1125 N1127 1.610 . S
N1126 S1125 1.613 . S
N1126 C1129 1.350 . S
N1127 S1125 1.610 . S
N1127 C1128 1.351 . S
C1128 C1122 1.428 . S
C1128 N1127 1.351 . S
C1128 C1129 1.434 . S
C1129 C1120 1.429 . S
C1129 N1126 1.350 . S
C1129 C1128 1.434 . S
C1130 C1131 1.369 . S
C1130 C1132 1.419 . S
C1130 H1134 0.930 . S
C1131 C1130 1.369 . S
C1131 C1140 1.429 . S
C1132 C1130 1.419 . S
C1132 C1133 1.363 . S
C1132 H1135 0.929 . S
C1133 C1132 1.363 . S
C1133 C1139 1.428 . S
H1134 C1130 0.930 . S
H1135 C1132 0.929 . S
S1136 N1137 1.613 . S
S1136 N1138 1.610 . S
N1137 S1136 1.613 . S
N1137 C1140 1.350 . S
N1138 S1136 1.610 . S
N1138 C1139 1.351 . S
C1139 C1133 1.428 . S
C1139 N1138 1.351 . S
C1139 C1140 1.434 . S
C1140 C1131 1.429 . S
C1140 N1137 1.350 . S
C1140 C1139 1.434 . S
C1141 C1142 1.369 . S
C1141 C1143 1.419 . S
C1141 H1145 0.930 . S
C1142 C1141 1.369 . S
C1142 C1151 1.429 . S
C1143 C1141 1.419 . S
C1143 C1144 1.363 . S
C1143 H1146 0.929 . S
C1144 C1143 1.363 . S
C1144 C1150 1.428 . S
H1145 C1141 0.930 . S
H1146 C1143 0.929 . S
S1147 N1148 1.613 . S
S1147 N1149 1.610 . S
N1148 S1147 1.613 . S
N1148 C1151 1.350 . S
N1149 S1147 1.610 . S
N1149 C1150 1.351 . S
C1150 C1144 1.428 . S
C1150 N1149 1.351 . S
C1150 C1151 1.434 . S
C1151 C1142 1.429 . S
C1151 N1148 1.350 . S
C1151 C1150 1.434 . S
C449 C37 0.789 . S
C451 C9 0.780 . S
C460 C23 0.772 . S
C462 C51 0.791 . S
C471 C93 0.772 . S
C473 C65 0.792 . S
C482 C107 0.792 . S
C484 C79 0.772 . S
C493 C121 0.785 . S
C495 C149 0.776 . S
C504 C163 0.777 . S
C506 C135 0.789 . S
C515 C177 0.781 . S
C517 C205 0.788 . S
C526 C191 0.770 . S
C528 C219 0.792 . S
C537 C261 0.769 . S
C539 C233 0.792 . S
C548 C247 0.770 . S
C550 C275 0.788 . S
C559 C289 0.771 . S
C561 C317 0.792 . S
C570 C331 0.785 . S
C572 C303 0.774 . S
C581 C373 0.790 . S
C583 C345 0.773 . S
C592 C387 0.770 . S
C594 C359 0.788 . S
C603 C429 0.791 . S
C605 C401 0.779 . S
C614 C415 0.769 . S
C616 C443 0.789 . S
C625 C67 1.609 . S
C627 C11 1.602 . S
C636 C417 1.608 . S
C638 C25 1.602 . S
C647 C39 1.603 . S
C649 C207 1.606 . S
C658 C53 1.608 . S
C660 C333 1.603 . S
C669 C81 1.602 . S
C671 C361 1.606 . S
C680 C95 1.603 . S
C682 C151 1.605 . S
C691 C277 1.602 . S
C693 C109 1.607 . S
C702 C179 1.609 . S
C704 C123 1.602 . S
C713 C305 1.607 . S
C715 C137 1.603 . S
C724 C165 1.601 . S
C726 C445 1.608 . S
C735 C193 1.601 . S
C737 C249 1.608 . S
C746 C389 1.606 . S
C748 C221 1.604 . S
C757 C291 1.600 . S
C759 C235 1.608 . S
C768 C263 1.602 . S
C770 C431 1.607 . S
C779 C319 1.608 . S
C781 C375 1.602 . S
C790 C403 1.600 . S
C792 C347 1.608 . S
C801 C47 1.509 . S
C803 C5 1.512 . S
C812 C33 1.509 . S
C814 C19 1.511 . S
C823 C103 1.512 . S
C825 C61 1.509 . S
C834 C89 1.510 . S
C836 C75 1.510 . S
C845 C159 1.511 . S
C847 C117 1.509 . S
C856 C145 1.509 . S
C858 C131 1.512 . S
C867 C215 1.509 . S
C869 C173 1.511 . S
C878 C201 1.510 . S
C880 C187 1.510 . S
C889 C229 1.511 . S
C891 C271 1.510 . S
C900 C257 1.512 . S
C902 C243 1.509 . S
C911 C285 1.510 . S
C913 C327 1.511 . S
C922 C313 1.509 . S
C924 C299 1.512 . S
C933 C383 1.510 . S
C935 C341 1.511 . S
C944 C355 1.512 . S
C946 C369 1.509 . S
C955 C397 1.509 . S
C957 C439 1.512 . S
C966 C425 1.511 . S
C968 C411 1.509 . S
C977 C28 1.530 1_545 S
C979 C0 1.530 . S
C988 C14 1.532 1_545 S
C990 C42 1.532 . S
C999 C56 1.530 . S
C1001 C84 1.531 1_565 S
C1010 C70 1.533 1_565 S
C1012 C98 1.533 . S
C1021 C112 1.530 . S
C1023 C140 1.530 . S
C1032 C126 1.529 . S
C1034 C154 1.530 . S
C1043 C196 1.530 . S
C1045 C168 1.531 . S
C1054 C210 1.533 . S
C1056 C182 1.533 . S
C1065 C252 1.532 1_545 S
C1067 C224 1.532 . S
C1076 C266 1.529 . S
C1078 C238 1.530 1_545 S
C1087 C280 1.530 . S
C1089 C308 1.530 1_565 S
C1098 C322 1.534 . S
C1100 C294 1.533 1_565 S
C1109 C364 1.533 . S
C1111 C336 1.532 . S
C1120 C350 1.530 . S
C1122 C378 1.531 . S
C1131 C392 1.529 . S
C1133 C420 1.529 . S
C1142 C434 1.531 . S
C1144 C406 1.531 . S
