# Generated by pormake.
# Topology ilc, (8)-cn, num edge types: 1
# Building blocks:
#     Node 0, Type 0, BuildingBlock: EBIMEJ_clean_sbu_0, # of connection points: 8
#     Node 1, Type 0, BuildingBlock: EBIMEJ_clean_sbu_0, # of connection points: 8
#     Node 2, Type 0, BuildingBlock: EBIMEJ_clean_sbu_0, # of connection points: 8
#     Edge 3, Type (0, 0), BuildingBlock: MIFKUJ_clean_linker_0, # of connection points: 2
#     Edge 4, Type (0, 0), BuildingBlock: MIFKUJ_clean_linker_0, # of connection points: 2
#     Edge 5, Type (0, 0), BuildingBlock: MIFKUJ_clean_linker_0, # of connection points: 2
#     Edge 6, Type (0, 0), BuildingBlock: MIFKUJ_clean_linker_0, # of connection points: 2
#     Edge 7, Type (0, 0), BuildingBlock: MIFKUJ_clean_linker_0, # of connection points: 2
#     Edge 8, Type (0, 0), BuildingBlock: MIFKUJ_clean_linker_0, # of connection points: 2
#     Edge 9, Type (0, 0), BuildingBlock: MIFKUJ_clean_linker_0, # of connection points: 2
#     Edge 10, Type (0, 0), BuildingBlock: MIFKUJ_clean_linker_0, # of connection points: 2
#     Edge 11, Type (0, 0), BuildingBlock: MIFKUJ_clean_linker_0, # of connection points: 2
#     Edge 12, Type (0, 0), BuildingBlock: MIFKUJ_clean_linker_0, # of connection points: 2
#     Edge 13, Type (0, 0), BuildingBlock: MIFKUJ_clean_linker_0, # of connection points: 2
#     Edge 14, Type (0, 0), BuildingBlock: MIFKUJ_clean_linker_0, # of connection points: 2
# Relax obj value: 0.132
# Max RMSD: 0.226
# Mean RMSD: 0.226
data_MOF--net-ilc--node1-EBIMEJ_clean_sbu_0--edge1-MIFKUJ_clean_linker_0
_symmetry_space_group_name_H-M    P1
_symmetry_Int_Tables_number       1
_symmetry_cell_setting            triclinic
loop_
_symmetry_equiv_pos_as_xyz
'x, y, z'
_cell_length_a     32.450813
_cell_length_b     29.422777
_cell_length_c     21.273214
_cell_angle_alpha  86.01623
_cell_angle_beta   96.353837
_cell_angle_gamma 136.81176
loop_
_atom_site_label
_atom_site_type_symbol
_atom_site_fract_x
_atom_site_fract_y
_atom_site_fract_z
_atom_type_partial_charge
Co0 Co 1.01038 0.96039 0.13653 0.0
Co1 Co 0.05998 0.98477 1.00335 0.0
Co2 Co 0.97121 0.99317 0.01173 0.0
H3 H 0.98932 0.967 0.06255 0.0
O4 O 0.98739 0.93914 0.04701 0.0
H5 H 0.04483 0.01486 0.95552 0.0
O6 O 0.0464 0.0421 0.97217 0.0
Co7 Co 0.0268 0.02465 0.88208 0.0
O8 O 0.08385 0.02257 0.85615 0.0
O9 O 0.12901 0.02873 0.94807 0.0
O10 O 0.95812 0.01498 0.86225 0.0
O11 O 0.95136 0.03746 0.95674 0.0
O12 O 0.03857 0.94337 0.21643 0.0
O13 O 0.94883 0.89119 0.1996 0.0
O14 O 0.95227 0.92779 0.89565 0.0
O15 O 1.00139 0.90701 0.94282 0.0
C16 C 0.89333 0.92577 0.1192 0.0
C17 C 0.09066 0.94499 0.11639 0.0
C18 C 0.07648 0.11152 0.79997 0.0
C19 C 0.0661 0.09207 0.11321 0.0
C20 C 0.12623 0.03285 0.88707 0.0
C21 C 0.94158 0.03321 0.89546 0.0
C22 C 0.98711 0.89974 0.2363 0.0
C23 C 0.95443 0.88715 0.91179 0.0
O24 O 0.93288 0.93182 0.1516 0.0
O25 O 0.89848 0.94369 0.06105 0.0
O26 O 0.07751 0.9377 0.05559 0.0
O27 O 0.07884 0.9681 0.15018 0.0
O28 O 1.02052 0.06478 0.80389 0.0
O29 O 0.10419 0.10908 0.8435 0.0
O30 O 0.07739 0.05935 0.12799 0.0
O31 O 1.02035 0.06768 0.07545 0.0
Co32 Co 0.70099 0.3284 0.46778 0.0
Co33 Co 0.73157 0.32477 0.33865 0.0
Co34 Co 0.63583 0.32353 0.3438 0.0
H35 H 0.66321 0.30979 0.39642 0.0
O36 O 0.66171 0.28048 0.38705 0.0
H37 H 0.70906 0.34541 0.28715 0.0
O38 O 0.70918 0.37266 0.30027 0.0
Co39 Co 0.68291 0.34333 0.21264 0.0
O40 O 0.75393 0.36313 0.19049 0.0
O41 O 0.80016 0.37076 0.28234 0.0
O42 O 0.6118 0.32987 0.1932 0.0
O43 O 0.60871 0.35895 0.28514 0.0
O44 O 0.70465 0.33001 0.56396 0.0
O45 O 0.78172 0.40618 0.51666 0.0
O46 O 0.6163 0.24694 0.2333 0.0
O47 O 0.67739 0.24357 0.28297 0.0
C48 C 0.57137 0.26712 0.45984 0.0
C49 C 0.75149 0.27397 0.45481 0.0
C50 C 0.7084 0.40845 0.11661 0.0
C51 C 0.73413 0.44188 0.42544 0.0
C52 C 0.79867 0.37835 0.22183 0.0
C53 C 0.59956 0.35408 0.2239 0.0
C54 C 0.75977 0.38436 0.56907 0.0
C55 C 0.62841 0.21526 0.24972 0.0
O56 O 0.61831 0.28455 0.48827 0.0
O57 O 0.56704 0.27479 0.39963 0.0
O58 O 0.75621 0.2857 0.39458 0.0
O59 O 0.7282 0.28466 0.48699 0.0
O60 O 0.67079 0.34627 0.11699 0.0
O61 O 0.73236 0.43398 0.17093 0.0
O62 O 0.75747 0.42143 0.4349 0.0
O63 O 0.68091 0.40274 0.39894 0.0
Co64 Co 0.34874 0.63353 0.80243 0.0
Co65 Co 0.40369 0.66462 0.67329 0.0
Co66 Co 0.31782 0.67703 0.68328 0.0
H67 H 0.33204 0.64582 0.7298 0.0
O68 O 0.32973 0.61799 0.71331 0.0
H69 H 0.38316 0.68774 0.6223 0.0
O70 O 0.38708 0.71798 0.63541 0.0
Co71 Co 0.35405 0.68371 0.54927 0.0
O72 O 0.43427 0.7193 0.53223 0.0
O73 O 0.47319 0.71011 0.62031 0.0
O74 O 0.31329 0.71387 0.53662 0.0
O75 O 0.30173 0.72646 0.63394 0.0
O76 O 0.34052 0.57808 0.87387 0.0
O77 O 0.26555 0.53821 0.81354 0.0
O78 O 0.28732 0.58743 0.57178 0.0
O79 O 0.35124 0.58588 0.61476 0.0
C80 C 0.25404 0.63067 0.80147 0.0
C81 C 0.43382 0.62564 0.79199 0.0
C82 C 0.33413 0.678 0.43431 0.0
C83 C 0.42272 0.77261 0.77975 0.0
C84 C 0.4754 0.72654 0.56196 0.0
C85 C 0.298 0.73155 0.57303 0.0
C86 C 0.28508 0.52788 0.86001 0.0
C87 C 0.29988 0.55595 0.58678 0.0
O88 O 0.29654 0.64082 0.83161 0.0
O89 O 0.25107 0.6358 0.74069 0.0
O90 O 0.42482 0.62186 0.73048 0.0
O91 O 0.41899 0.64648 0.82394 0.0
O92 O 0.29821 0.66151 0.47224 0.0
O93 O 0.38128 0.69766 0.46176 0.0
O94 O 0.42308 0.73119 0.79948 0.0
O95 O 0.37901 0.75505 0.74296 0.0
H96 H 0.03076 0.13451 0.70369 0.0
H97 H 0.03086 0.11463 0.5942 0.0
H98 H 0.17056 0.12735 0.65098 0.0
H99 H 0.17663 0.15635 0.75809 0.0
H100 H 0.15472 0.13865 0.51503 0.0
H101 H 0.03042 0.96235 0.68451 0.0
H102 H 0.96913 0.92157 0.77418 0.0
H103 H 0.86719 0.94749 0.66751 0.0
H104 H 0.92635 0.9855 0.57619 0.0
H105 H 0.05709 0.89897 0.31843 0.0
H106 H 0.07944 0.93391 0.4288 0.0
H107 H 0.92492 0.90015 0.4125 0.0
H108 H 0.90069 0.86179 0.30436 0.0
H109 H 0.95606 0.90297 0.53051 0.0
H110 H 0.06442 0.0369 0.34516 0.0
H111 H 0.12891 0.07387 0.26039 0.0
H112 H 0.26896 0.13432 0.39848 0.0
H113 H 0.20479 0.09694 0.48419 0.0
C114 C 0.06515 0.13892 0.69166 0.0
C115 C 0.10132 0.14295 0.73934 0.0
C116 C 0.06476 0.12685 0.62921 0.0
C117 C 0.09892 0.11666 0.61563 0.0
C118 C 0.14382 0.13482 0.66071 0.0
C119 C 0.14665 0.15068 0.72225 0.0
C120 C 0.07536 0.0684 0.56595 0.0
C121 C 0.11122 0.08725 0.51783 0.0
C122 C 1.01946 0.00108 0.57091 0.0
C123 C 0.98283 0.97702 0.62435 0.0
C124 C 0.99462 0.95883 0.68038 0.0
C125 C 0.95989 0.93561 0.73111 0.0
C126 C 0.91367 0.93105 0.72624 0.0
C127 C 0.90218 0.94979 0.67069 0.0
C128 C 0.93597 0.97169 0.61931 0.0
C129 C 0.02566 0.89472 0.33997 0.0
C130 C 0.97909 0.88121 0.30273 0.0
C131 C 0.03885 0.91539 0.40272 0.0
C132 C 1.00616 0.92374 0.42686 0.0
C133 C 0.95188 0.89602 0.3939 0.0
C134 C 0.93783 0.87375 0.33189 0.0
C135 C 0.03395 0.97321 0.47723 0.0
C136 C 0.99932 0.95444 0.52662 0.0
C137 C 0.09093 0.04056 0.4727 0.0
C138 C 0.12981 0.06423 0.42108 0.0
C139 C 0.10911 0.05857 0.35749 0.0
C140 C 0.14553 0.07938 0.30923 0.0
C141 C 0.2031 0.10666 0.32396 0.0
C142 C 0.22439 0.11328 0.38708 0.0
C143 C 0.18801 0.09231 0.43554 0.0
H144 H 0.23113 0.12252 0.28646 0.0
H145 H 0.88709 0.9136 0.76562 0.0
H146 H 0.85656 0.51826 0.57858 0.0
H147 H 0.88666 0.58669 0.66927 0.0
H148 H 0.7599 0.4101 0.77858 0.0
H149 H 0.72897 0.34129 0.68815 0.0
H150 H 0.75848 0.52282 0.72949 0.0
H151 H 0.84981 0.46976 0.91889 0.0
H152 H 0.90169 0.43732 0.922 0.0
H153 H 1.00897 0.57447 0.77445 0.0
H154 H 0.95903 0.60928 0.77165 0.0
H155 H 0.65856 0.35785 0.99887 0.0
H156 H 0.69516 0.41756 0.90135 0.0
H157 H 0.82646 0.60429 1.00465 0.0
H158 H 0.79086 0.54343 0.10445 0.0
H159 H 0.87091 0.57044 0.93629 0.0
H160 H 0.72988 0.59246 0.86133 0.0
H161 H 0.6258 0.5411 0.85019 0.0
H162 H 0.55627 0.36127 0.7786 0.0
H163 H 0.65944 0.41252 0.78461 0.0
C164 C 0.83682 0.49434 0.62279 0.0
C165 C 0.79007 0.42476 0.62678 0.0
C166 C 0.85364 0.53345 0.67405 0.0
C167 C 0.82469 0.50302 0.72956 0.0
C168 C 0.78246 0.43397 0.73557 0.0
C169 C 0.76497 0.39487 0.68423 0.0
C170 C 0.83036 0.54004 0.7787 0.0
C171 C 0.78507 0.53702 0.77435 0.0
C172 C 0.86327 0.55457 0.83714 0.0
C173 C 0.90089 0.54264 0.84539 0.0
C174 C 0.88557 0.49438 0.8882 0.0
C175 C 0.91423 0.47505 0.88953 0.0
C176 C 0.95817 0.50337 0.84811 0.0
C177 C 0.97464 0.55228 0.80629 0.0
C178 C 0.94643 0.57218 0.80508 0.0
C179 C 0.6939 0.41166 1.00099 0.0
C180 C 0.72292 0.44613 0.05884 0.0
C181 C 0.71383 0.44604 0.94489 0.0
C182 C 0.76228 0.51565 0.94545 0.0
C183 C 0.78815 0.55066 1.00332 0.0
C184 C 0.76833 0.51592 0.06002 0.0
C185 C 0.795 0.54704 0.88823 0.0
C186 C 0.84832 0.56377 0.89063 0.0
C187 C 0.76399 0.53565 0.82899 0.0
C188 C 0.70235 0.5063 0.82389 0.0
C189 C 0.69235 0.54204 0.84325 0.0
C190 C 0.63364 0.51305 0.83772 0.0
C191 C 0.58461 0.44774 0.81531 0.0
C192 C 0.59416 0.41167 0.79653 0.0
C193 C 0.65278 0.44105 0.79985 0.0
H194 H 0.53931 0.42539 0.81173 0.0
H195 H 0.97943 0.48735 0.84857 0.0
H196 H 0.17086 0.46155 0.8769 0.0
H197 H 0.14639 0.45323 0.98339 0.0
H198 H 0.28689 0.47158 0.05818 0.0
H199 H 0.31345 0.4827 0.95121 0.0
H200 H 0.14932 0.41791 0.12346 0.0
H201 H 0.37121 0.58616 0.08577 0.0
H202 H 0.45991 0.663 0.02402 0.0
H203 H 0.39496 0.73902 0.93509 0.0
H204 H 0.30682 0.6638 0.99832 0.0
H205 H 0.39588 0.68658 0.35026 0.0
H206 H 0.35626 0.63665 0.24525 0.0
H207 H 0.20263 0.60138 0.25612 0.0
H208 H 0.23855 0.64379 0.36541 0.0
H209 H 0.32746 0.66306 0.13899 0.0
H210 H 0.11425 0.49873 0.20934 0.0
H211 H 0.04242 0.42956 0.29103 0.0
H212 H 0.11231 0.35067 0.33886 0.0
H213 H 0.18668 0.42193 0.25981 0.0
C214 C 0.19366 0.45874 0.91542 0.0
C215 C 0.24643 0.47702 0.90678 0.0
C216 C 0.18001 0.4548 0.97659 0.0
C217 C 0.21852 0.46764 0.02771 0.0
C218 C 0.25926 0.46565 0.01848 0.0
C219 C 0.27381 0.47099 0.95731 0.0
C220 C 0.23032 0.50494 0.08192 0.0
C221 C 0.1885 0.47142 0.12734 0.0
C222 C 0.28046 0.57518 0.08547 0.0
C223 C 0.32956 0.61511 0.04252 0.0
C224 C 0.37449 0.6172 0.05108 0.0
C225 C 0.42538 0.66149 0.01682 0.0
C226 C 0.43224 0.70456 0.97418 0.0
C227 C 0.38881 0.70439 0.96683 0.0
C228 C 0.33826 0.66074 1.00173 0.0
C229 C 0.35333 0.66757 0.33052 0.0
C230 C 0.31857 0.66567 0.36645 0.0
C231 C 0.33082 0.63936 0.27045 0.0
C232 C 0.27464 0.61182 0.24443 0.0
C233 C 0.24371 0.61793 0.27716 0.0
C234 C 0.265 0.64358 0.33876 0.0
C235 C 0.24972 0.57572 0.18384 0.0
C236 C 0.28778 0.60957 0.13495 0.0
C237 C 0.19836 0.50595 0.17934 0.0
C238 C 0.157 0.46697 0.23001 0.0
C239 C 0.11545 0.46805 0.23866 0.0
C240 C 0.07427 0.42843 0.28448 0.0
C241 C 0.07348 0.38647 0.32096 0.0
C242 C 0.11387 0.38415 0.31163 0.0
C243 C 0.15576 0.42444 0.26661 0.0
H244 H 0.0412 0.35528 0.356 0.0
H245 H 0.47169 0.73881 0.94771 0.0
H246 H 0.34158 0.85592 0.57138 0.0
H247 H 0.30806 0.89374 0.49682 0.0
H248 H 0.1614 0.69474 0.41973 0.0
H249 H 0.19656 0.65843 0.49184 0.0
H250 H 0.1999 0.76424 0.32661 0.0
H251 H 0.15687 0.79185 0.51965 0.0
H252 H 0.17326 0.83397 0.62577 0.0
H253 H 0.2943 0.03274 0.55594 0.0
H254 H 0.28115 0.99247 0.45022 0.0
H255 H 0.04771 0.82164 0.12334 0.0
H256 H 0.07871 0.78479 0.20311 0.0
H257 H 0.22474 0.98505 0.27745 0.0
H258 H 0.19098 0.02031 0.20051 0.0
H259 H 0.18656 0.91562 0.37241 0.0
H260 H 0.23333 0.8847 0.18035 0.0
H261 H 0.2055 0.83822 0.07276 0.0
H262 H 0.06712 0.64059 0.14346 0.0
H263 H 0.0936 0.68583 0.25116 0.0
C264 C 0.3011 0.81985 0.53987 0.0
C265 C 0.27098 0.75336 0.53945 0.0
C266 C 0.28177 0.84163 0.49651 0.0
C267 C 0.2312 0.79761 0.45142 0.0
C268 C 0.2005 0.73085 0.45274 0.0
C269 C 0.22024 0.70954 0.49513 0.0
C270 C 0.21182 0.82033 0.4006 0.0
C271 C 0.19657 0.79686 0.33762 0.0
C272 C 0.20802 0.86436 0.41231 0.0
C273 C 0.21875 0.8891 0.47701 0.0
C274 C 0.18805 0.84473 0.52716 0.0
C275 C 0.19681 0.86834 0.58734 0.0
C276 C 0.23529 0.9361 0.59777 0.0
C277 C 0.2651 0.98039 0.54803 0.0
C278 C 0.25729 0.95723 0.48806 0.0
C279 C 0.0877 0.85828 0.15521 0.0
C280 C 0.11805 0.92479 0.15315 0.0
C281 C 0.10566 0.83707 0.20166 0.0
C282 C 0.15569 0.88181 0.24712 0.0
C283 C 0.18634 0.94851 0.24397 0.0
C284 C 0.16753 0.96921 0.1987 0.0
C285 C 0.17525 0.85986 0.29889 0.0
C286 C 0.19048 0.88344 0.36182 0.0
C287 C 0.17877 0.81567 0.28756 0.0
C288 C 0.16503 0.78865 0.22353 0.0
C289 C 0.19701 0.83136 0.17285 0.0
C290 C 0.18143 0.80527 0.11192 0.0
C291 C 0.13438 0.73664 0.10142 0.0
C292 C 0.10339 0.69377 0.15174 0.0
C293 C 0.1187 0.71958 0.21271 0.0
H294 H 0.12181 0.71675 0.05428 0.0
H295 H 0.24175 0.95426 0.64426 0.0
H296 H 0.32228 0.48247 0.58897 0.0
H297 H 0.27291 0.39 0.51764 0.0
H298 H 0.13978 0.38575 0.45031 0.0
H299 H 0.18889 0.47839 0.52097 0.0
H300 H 0.09684 0.25943 0.444 0.0
H301 H 0.2663 0.49081 0.38965 0.0
H302 H 0.37003 0.60116 0.41497 0.0
H303 H 0.43961 0.52261 0.40084 0.0
H304 H 0.33582 0.41044 0.38029 0.0
H305 H 0.02912 0.14894 0.13017 0.0
H306 H 0.06632 0.22564 0.2157 0.0
H307 H 0.20856 0.24206 0.27301 0.0
H308 H 0.17285 0.16704 0.18658 0.0
H309 H 0.24581 0.35939 0.28669 0.0
H310 H 0.07871 0.12991 0.34154 0.0
H311 H 0.97497 0.01632 0.32508 0.0
H312 H 0.90226 0.09215 0.33445 0.0
H313 H 1.00552 0.20602 0.35013 0.0
C314 C 0.28141 0.46061 0.56043 0.0
C315 C 0.26078 0.48932 0.55874 0.0
C316 C 0.25312 0.40754 0.51994 0.0
C317 C 0.20407 0.38281 0.47738 0.0
C318 C 0.17833 0.40511 0.48199 0.0
C319 C 0.20671 0.45836 0.52223 0.0
C320 C 0.18802 0.34504 0.42049 0.0
C321 C 0.12919 0.28116 0.40947 0.0
C322 C 0.23059 0.37383 0.37563 0.0
C323 C 0.29315 0.44197 0.38425 0.0
C324 C 0.30362 0.49685 0.39245 0.0
C325 C 0.36244 0.55978 0.40597 0.0
C326 C 0.41143 0.56913 0.40879 0.0
C327 C 0.40163 0.51533 0.39859 0.0
C328 C 0.34275 0.45192 0.38655 0.0
C329 C 0.06944 0.17046 0.1597 0.0
C330 C 0.09731 0.15082 0.15261 0.0
C331 C 0.09022 0.21372 0.20891 0.0
C332 C 0.13897 0.23773 0.2516 0.0
C333 C 0.17037 0.22331 0.24094 0.0
C334 C 0.1498 0.18031 0.19166 0.0
C335 C 0.15456 0.27365 0.30998 0.0
C336 C 0.21342 0.33738 0.32127 0.0
C337 C 0.11193 0.24481 0.35478 0.0
C338 C 0.04976 0.17634 0.34648 0.0
C339 C 0.04049 0.12215 0.3398 0.0
C340 C 0.98188 0.05784 0.33066 0.0
C341 C 0.9321 0.04707 0.3286 0.0
C342 C 0.94087 0.10057 0.33599 0.0
C343 C 0.99942 0.16498 0.34507 0.0
H344 H 0.88675 0.99729 0.32136 0.0
H345 H 0.45693 0.61801 0.41903 0.0
H346 H 0.53665 0.69326 0.56659 0.0
H347 H 0.60348 0.72194 0.48952 0.0
H348 H 0.59119 0.84579 0.39192 0.0
H349 H 0.52198 0.81381 0.46594 0.0
H350 H 0.58506 0.78774 0.30791 0.0
H351 H 0.72607 0.90139 0.49791 0.0
H352 H 0.75701 0.90214 0.60956 0.0
H353 H 0.75418 0.75976 0.56471 0.0
H354 H 0.72273 0.75774 0.453 0.0
H355 H 0.83703 0.96484 0.11764 0.0
H356 H 0.76487 0.93028 0.19111 0.0
H357 H 0.76145 0.78975 0.27425 0.0
H358 H 0.83282 0.82399 0.20171 0.0
H359 H 0.77629 0.85588 0.36518 0.0
H360 H 0.63831 0.74187 0.17883 0.0
H361 H 0.59777 0.72888 0.06857 0.0
H362 H 0.59083 0.8646 0.10594 0.0
H363 H 0.63159 0.8787 0.21643 0.0
C364 C 0.54951 0.72788 0.52959 0.0
C365 C 0.5248 0.75229 0.52352 0.0
C366 C 0.58795 0.74448 0.48516 0.0
C367 C 0.60426 0.78762 0.43464 0.0
C368 C 0.58005 0.81255 0.42972 0.0
C369 C 0.54086 0.79488 0.47294 0.0
C370 C 0.64448 0.80561 0.38548 0.0
C371 C 0.62741 0.80378 0.32093 0.0
C372 C 0.69915 0.82458 0.40095 0.0
C373 C 0.72137 0.82885 0.46732 0.0
C374 C 0.73206 0.87028 0.51192 0.0
C375 C 0.74956 0.87081 0.5752 0.0
C376 C 0.75691 0.83047 0.59426 0.0
C377 C 0.74808 0.79062 0.54991 0.0
C378 C 0.73054 0.78987 0.48661 0.0
C379 C 0.81956 0.92537 0.15047 0.0
C380 C 0.84089 0.89729 0.1536 0.0
C381 C 0.77846 0.90577 0.19288 0.0
C382 C 0.75738 0.85726 0.23899 0.0
C383 C 0.77705 0.82763 0.24006 0.0
C384 C 0.81792 0.8472 0.19814 0.0
C385 C 0.71717 0.83892 0.28802 0.0
C386 C 0.73425 0.84058 0.3524 0.0
C387 C 0.66244 0.81957 0.27236 0.0
C388 C 0.63881 0.81203 0.20571 0.0
C389 C 0.6287 0.76946 0.1634 0.0
C390 C 0.60547 0.76171 0.10092 0.0
C391 C 0.59195 0.7961 0.08025 0.0
C392 C 0.60138 0.83808 0.12206 0.0
C393 C 0.62449 0.84591 0.18462 0.0
H394 H 0.57404 0.79011 0.03186 0.0
H395 H 0.76947 0.83004 0.64341 0.0
H396 H 0.76848 0.19747 0.41984 0.0
H397 H 0.80125 0.15624 0.49042 0.0
H398 H 0.82282 0.2575 0.64874 0.0
H399 H 0.79083 0.29819 0.57987 0.0
H400 H 0.91762 0.27269 0.65342 0.0
H401 H 0.69269 0.07991 0.62059 0.0
H402 H 0.60231 0.0019 0.54506 0.0
H403 H 0.67849 0.9459 0.47121 0.0
H404 H 0.76851 0.02258 0.54672 0.0
H405 H 0.94807 0.13182 0.91797 0.0
H406 H 0.91673 0.17171 0.84275 0.0
H407 H 0.84555 0.02134 0.70739 0.0
H408 H 0.87313 0.97993 0.78292 0.0
H409 H 0.77823 0.0311 0.68421 0.0
H410 H 0.98761 0.19686 0.70047 0.0
H411 H 0.09423 0.28155 0.74351 0.0
H412 H 0.07205 0.39562 0.81349 0.0
H413 H 0.96479 0.31083 0.7718 0.0
C414 C 0.78071 0.21143 0.4695 0.0
C415 C 0.77618 0.25116 0.49336 0.0
C416 C 0.79915 0.18733 0.51032 0.0
C417 C 0.81427 0.20275 0.5761 0.0
C418 C 0.81164 0.24417 0.59892 0.0
C419 C 0.79279 0.26737 0.55882 0.0
C420 C 0.83149 0.17561 0.62234 0.0
C421 C 0.88663 0.21981 0.66075 0.0
C422 C 0.79346 0.10669 0.63053 0.0
C423 C 0.73718 0.05695 0.58903 0.0
C424 C 0.68971 0.05039 0.58856 0.0
C425 C 0.63855 0.00638 0.5458 0.0
C426 C 0.63453 0.96884 0.50338 0.0
C427 C 0.68124 0.97446 0.5043 0.0
C428 C 0.73223 0.01796 0.54725 0.0
C429 C 0.92427 0.10617 0.8729 0.0
C430 C 0.91356 0.05228 0.85724 0.0
C431 C 0.90717 0.12988 0.82888 0.0
C432 C 0.87938 0.10107 0.76739 0.0
C433 C 0.86661 0.04554 0.75343 0.0
C434 C 0.88302 0.02179 0.79721 0.0
C435 C 0.86428 0.1283 0.71724 0.0
C436 C 0.80945 0.08414 0.67794 0.0
C437 C 0.90444 0.19737 0.70558 0.0
C438 C 0.96791 0.24701 0.73378 0.0
C439 C 1.00518 0.23948 0.7259 0.0
C440 C 0.06579 0.28758 0.74987 0.0
C441 C 0.08989 0.34384 0.78129 0.0
C442 C 0.0533 0.35191 0.78928 0.0
C443 C 0.99253 0.30379 0.76552 0.0
H444 H 0.13705 0.38129 0.79892 0.0
H445 H 0.5954 0.93573 0.46958 0.0
H446 H 0.67761 0.40693 0.52921 0.0
H447 H 0.70524 0.47842 0.61403 0.0
H448 H 0.8538 0.65093 0.51341 0.0
H449 H 0.82805 0.57783 0.42975 0.0
H450 H 0.89065 0.66793 0.6279 0.0
H451 H 0.71885 0.60416 0.52467 0.0
H452 H 0.61496 0.52894 0.47382 0.0
H453 H 0.54376 0.43298 0.65092 0.0
H454 H 0.64733 0.50743 0.7022 0.0
H455 H 0.85224 0.83184 0.83787 0.0
H456 H 0.80076 0.74591 0.75788 0.0
H457 H 0.88999 0.696 0.84538 0.0
H458 H 0.94771 0.78812 0.92086 0.0
H459 H 0.73586 0.62957 0.72638 0.0
H460 H 0.94527 0.67888 0.74292 0.0
H461 H 0.05231 0.76528 0.78523 0.0
H462 H 0.05272 0.91175 0.76404 0.0
H463 H 0.94659 0.82662 0.71919 0.0
C464 C 0.7159 0.46018 0.52508 0.0
C465 C 0.75053 0.4874 0.4731 0.0
C466 C 0.73136 0.50106 0.57326 0.0
C467 C 0.7805 0.57024 0.56931 0.0
C468 C 0.81531 0.59765 0.51711 0.0
C469 C 0.80064 0.55627 0.46938 0.0
C470 C 0.79699 0.61294 0.62178 0.0
C471 C 0.85665 0.6593 0.64931 0.0
C472 C 0.75331 0.60401 0.64832 0.0
C473 C 0.69092 0.56075 0.61743 0.0
C474 C 0.68108 0.56679 0.55272 0.0
C475 C 0.62222 0.52436 0.52371 0.0
C476 C 0.57274 0.47601 0.55901 0.0
C477 C 0.58204 0.47031 0.62347 0.0
C478 C 0.64079 0.51264 0.65255 0.0
C479 C 0.86104 0.80267 0.84008 0.0
C480 C 0.90751 0.82012 0.88222 0.0
C481 C 0.8306 0.75253 0.79489 0.0
C482 C 0.8443 0.71717 0.79331 0.0
C483 C 0.88131 0.72532 0.84371 0.0
C484 C 0.914 0.7777 0.88715 0.0
C485 C 0.82855 0.68127 0.73442 0.0
C486 C 0.76945 0.63737 0.7051 0.0
C487 C 0.87322 0.69438 0.70448 0.0
C488 C 0.93804 0.74639 0.72813 0.0
C489 C 0.96857 0.7297 0.74648 0.0
C490 C 0.0291 0.77848 0.77091 0.0
C491 C 0.05947 0.84416 0.77732 0.0
C492 C 0.02948 0.86117 0.75871 0.0
C493 C 0.96924 0.81274 0.73356 0.0
H494 H 0.10618 0.88184 0.79672 0.0
H495 H 0.52722 0.4431 0.53646 0.0
H496 H 0.5837 0.27825 0.58828 0.0
H497 H 0.51027 0.23793 0.66016 0.0
H498 H 0.3763 0.15698 0.50279 0.0
H499 H 0.45115 0.19887 0.42887 0.0
H500 H 0.37723 0.22312 0.58958 0.0
H501 H 0.38463 0.06322 0.60577 0.0
H502 H 0.43453 0.02862 0.62838 0.0
H503 H 0.48979 0.10735 0.81763 0.0
H504 H 0.44096 0.14327 0.79597 0.0
H505 H 0.12107 0.02939 0.75851 0.0
H506 H 0.19707 0.06961 0.69094 0.0
H507 H 0.31848 0.12819 0.85488 0.0
H508 H 0.24063 0.08598 0.92439 0.0
H509 H 0.32817 0.07675 0.7681 0.0
H510 H 0.33435 0.23955 0.76553 0.0
H511 H 0.31186 0.30364 0.75434 0.0
H512 H 0.26173 0.25522 0.55595 0.0
H513 H 0.2815 0.18847 0.56622 0.0
C514 C 0.53855 0.25132 0.56815 0.0
C515 C 0.52361 0.24117 0.50197 0.0
C516 C 0.49624 0.22794 0.60999 0.0
C517 C 0.43682 0.19257 0.58773 0.0
C518 C 0.42161 0.18337 0.52161 0.0
C519 C 0.46447 0.20737 0.47918 0.0
C520 C 0.3919 0.16769 0.63368 0.0
C521 C 0.36509 0.1896 0.62764 0.0
C522 C 0.37965 0.12804 0.68656 0.0
C523 C 0.40887 0.10595 0.69915 0.0
C524 C 0.40738 0.07327 0.65218 0.0
C525 C 0.4357 0.05353 0.66482 0.0
C526 C 0.46548 0.06588 0.72438 0.0
C527 C 0.46687 0.09788 0.77146 0.0
C528 C 0.43878 0.11785 0.75903 0.0
C529 C 0.1635 0.05007 0.7811 0.0
C530 C 0.17389 0.05393 0.84782 0.0
C531 C 0.20763 0.07413 0.74171 0.0
C532 C 0.26464 0.10384 0.76699 0.0
C533 C 0.27514 0.10613 0.83364 0.0
C534 C 0.23042 0.0817 0.87359 0.0
C535 C 0.31173 0.13062 0.72306 0.0
C536 C 0.33919 0.10935 0.72954 0.0
C537 C 0.32684 0.17353 0.67216 0.0
C538 C 0.30859 0.2078 0.66695 0.0
C539 C 0.31705 0.24097 0.71977 0.0
C540 C 0.30519 0.27829 0.71349 0.0
C541 C 0.28554 0.28366 0.65444 0.0
C542 C 0.27715 0.2512 0.60163 0.0
C543 C 0.28829 0.21321 0.60777 0.0
H544 H 0.27658 0.31275 0.64965 0.0
H545 H 0.48743 0.05063 0.7341 0.0
H546 H 0.59853 0.36882 0.09515 0.0
H547 H 0.57776 0.42104 0.02776 0.0
H548 H 0.53135 0.45355 0.18806 0.0
H549 H 0.55665 0.40452 0.25833 0.0
H550 H 0.44409 0.39417 0.06702 0.0
H551 H 0.64638 0.57485 0.14239 0.0
H552 H 0.75409 0.64347 0.16925 0.0
H553 H 0.78078 0.66216 0.97218 0.0
H554 H 0.67316 0.5931 0.94439 0.0
H555 H 0.43919 0.61501 0.92046 0.0
H556 H 0.46819 0.57197 0.98918 0.0
H557 H 0.51203 0.53626 0.8289 0.0
H558 H 0.48052 0.57872 0.75739 0.0
H559 H 0.60323 0.60151 0.9524 0.0
H560 H 0.39173 0.40685 0.88423 0.0
H561 H 0.28462 0.34403 0.86533 0.0
H562 H 0.28148 0.36737 0.06122 0.0
H563 H 0.3888 0.43096 0.08114 0.0
C564 C 0.58468 0.38743 0.11737 0.0
C565 C 0.58024 0.38219 0.18366 0.0
C566 C 0.57247 0.41753 0.07783 0.0
C567 C 0.5531 0.44215 0.10184 0.0
C568 C 0.5464 0.43539 0.16764 0.0
C569 C 0.56078 0.407 0.2081 0.0
C570 C 0.53956 0.47362 0.05719 0.0
C571 C 0.47928 0.43988 0.04266 0.0
C572 C 0.58496 0.53345 0.02419 0.0
C573 C 0.65043 0.57585 0.04104 0.0
C574 C 0.67463 0.59198 0.10467 0.0
C575 C 0.736 0.63162 0.1202 0.0
C576 C 0.77414 0.65644 0.07252 0.0
C577 C 0.75109 0.64226 0.0092 0.0
C578 C 0.68976 0.60262 0.99354 0.0
C579 C 0.45488 0.59843 0.8985 0.0
C580 C 0.45671 0.60099 0.83188 0.0
C581 C 0.47177 0.57345 0.93887 0.0
C582 C 0.49257 0.55026 0.91539 0.0
C583 C 0.49631 0.55379 0.84905 0.0
C584 C 0.47809 0.57813 0.80782 0.0
C585 C 0.50771 0.52079 0.96105 0.0
C586 C 0.56828 0.55532 0.97626 0.0
C587 C 0.46301 0.4626 0.99591 0.0
C588 C 0.3984 0.42401 0.98408 0.0
C589 C 0.36831 0.39896 0.92318 0.0
C590 C 0.30752 0.3631 0.91231 0.0
C591 C 0.27626 0.3517 0.96205 0.0
C592 C 0.30572 0.37611 0.02277 0.0
C593 C 0.36649 0.41199 0.03389 0.0
H594 H 0.22925 0.32406 0.95353 0.0
H595 H 0.82164 0.68718 0.0846 0.0
H596 H 0.42333 0.86632 0.77399 0.0
H597 H 0.47653 0.95528 0.85172 0.0
H598 H 0.57532 0.91598 0.93486 0.0
H599 H 0.5231 0.8276 0.85705 0.0
H600 H 0.49601 0.88797 0.01214 0.0
H601 H 0.65155 0.06401 0.88589 0.0
H602 H 0.698 0.13439 0.79224 0.0
H603 H 0.60864 0.19009 0.80788 0.0
H604 H 0.56053 0.1189 0.90093 0.0
H605 H 0.64868 0.13939 0.25895 0.0
H606 H 0.61612 0.06093 0.17834 0.0
H607 H 0.50273 0.07513 0.07885 0.0
H608 H 0.5339 0.15245 0.15922 0.0
H609 H 0.59989 0.12055 0.01217 0.0
H610 H 0.43575 0.93552 0.12891 0.0
H611 H 0.38251 0.85861 0.21736 0.0
H612 H 0.48468 0.81701 0.21592 0.0
H613 H 0.53944 0.89479 0.12822 0.0
C614 C 0.4581 0.87831 0.80715 0.0
C615 C 0.4675 0.83849 0.81096 0.0
C616 C 0.48866 0.92938 0.85138 0.0
C617 C 0.5289 0.94107 0.89942 0.0
C618 C 0.54397 0.90707 0.89825 0.0
C619 C 0.5138 0.8564 0.85392 0.0
C620 C 0.54401 0.97677 0.9574 0.0
C621 C 0.52015 0.93946 0.01274 0.0
C622 C 0.57345 0.04292 0.95679 0.0
C623 C 0.60174 0.08529 0.90017 0.0
C624 C 0.64107 0.09048 0.86896 0.0
C625 C 0.66786 0.13071 0.81602 0.0
C626 C 0.65608 0.16648 0.79399 0.0
C627 C 0.61756 0.16218 0.82491 0.0
C628 C 0.59052 0.12188 0.87778 0.0
C629 C 0.61514 0.124 0.22119 0.0
C630 C 0.59512 0.1535 0.21455 0.0
C631 C 0.59666 0.07923 0.17523 0.0
C632 C 0.55806 0.06361 0.12245 0.0
C633 C 0.53308 0.08739 0.1192 0.0
C634 C 0.55092 0.13146 0.16532 0.0
C635 C 0.55116 0.03137 0.06642 0.0
C636 C 0.5766 0.06941 0.01165 0.0
C637 C 0.52289 0.96572 0.06733 0.0
C638 C 0.49253 0.92197 0.12261 0.0
C639 C 0.44779 0.91105 0.14823 0.0
C640 C 0.41707 0.86698 0.19805 0.0
C641 C 0.43037 0.83314 0.22244 0.0
C642 C 0.47456 0.84343 0.19717 0.0
C643 C 0.5055 0.88756 0.14745 0.0
H644 H 0.40626 0.79875 0.26074 0.0
H645 H 0.67697 0.19771 0.75309 0.0
H646 H 0.16186 0.62258 0.77332 0.0
H647 H 0.08681 0.58501 0.84429 0.0
H648 H 0.16458 0.55092 0.99071 0.0
H649 H 0.23538 0.58377 0.92018 0.0
H650 H 0.0537 0.45286 0.99054 0.0
H651 H 0.18336 0.68494 0.97605 0.0
H652 H 0.23423 0.79274 0.92973 0.0
H653 H 0.06346 0.72425 0.88857 0.0
H654 H 1.01152 0.61596 0.93389 0.0
H655 H 0.90194 0.40661 0.25558 0.0
H656 H 0.98229 0.45353 0.18745 0.0
H657 H 0.89159 0.46433 0.03353 0.0
H658 H 0.8131 0.41897 0.09964 0.0
H659 H 1.00905 0.57493 0.03878 0.0
H660 H 0.88355 0.33869 0.05519 0.0
H661 H 0.84093 0.23717 0.11074 0.0
H662 H 1.01963 0.32729 0.1625 0.0
H663 H 0.06329 0.42955 0.1079 0.0
C664 C 0.16246 0.60655 0.82046 0.0
C665 C 0.20598 0.60766 0.84098 0.0
C666 C 0.11945 0.58506 0.86136 0.0
C667 C 0.11904 0.56424 0.92358 0.0
C668 C 0.16257 0.56558 0.94328 0.0
C669 C 0.20435 0.58594 0.90275 0.0
C670 C 0.07381 0.53976 0.96904 0.0
C671 C 0.04472 0.48036 1.00136 0.0
C672 C 0.06119 0.57485 0.98362 0.0
C673 C 0.09286 0.64047 0.95564 0.0
C674 C 0.15628 0.69193 0.95551 0.0
C675 C 0.18552 0.7536 0.92993 0.0
C676 C 0.15206 0.76507 0.90527 0.0
C677 C 0.08936 0.71512 0.90675 0.0
C678 C 0.05996 0.65342 0.93221 0.0
C679 C 0.89926 0.41909 0.20729 0.0
C680 C 0.85008 0.40797 0.18368 0.0
C681 C 0.94523 0.44585 0.16813 0.0
C682 C 0.94318 0.46227 0.10456 0.0
C683 C 0.89484 0.45237 0.08189 0.0
C684 C 0.84931 0.42569 0.12034 0.0
C685 C 0.98978 0.48874 0.06021 0.0
C686 C 1.01871 0.54813 0.02791 0.0
C687 C 1.0038 0.45486 0.04684 0.0
C688 C 0.97683 0.39267 0.07904 0.0
C689 C 0.91382 0.3373 0.07922 0.0
C690 C 0.88943 0.27944 0.11032 0.0
C691 C 0.92754 0.27597 0.14063 0.0
C692 C 0.99011 0.33013 0.13943 0.0
C693 C 1.01468 0.38808 0.10853 0.0
H694 H 0.90858 0.23117 0.16469 0.0
H695 H 0.17478 0.8129 0.88566 0.0
loop_
_geom_bond_atom_site_label_1
_geom_bond_atom_site_label_2
_geom_bond_distance
_geom_bond_site_symmetry_2
_ccdc_geom_bond_type
Co0 H3 2.400 . S
Co0 O4 2.009 . S
Co0 O12 2.115 . S
Co0 O13 2.315 . S
Co0 O24 2.053 . S
Co0 O27 2.094 1_655 S
Co0 O30 2.122 1_665 S
Co1 O4 2.126 1_456 S
Co1 H5 2.388 1_565 S
Co1 O6 2.053 1_565 S
Co1 O9 2.047 1_565 S
Co1 O15 2.113 1_455 S
Co1 O26 2.063 1_556 S
Co2 H3 2.388 1_545 S
Co2 O4 2.053 1_545 S
Co2 O6 2.126 1_654 S
Co2 O11 2.063 1_554 S
Co2 O25 2.047 1_545 S
Co2 O31 2.113 1_655 S
H3 Co0 2.400 . S
H3 Co2 2.388 1_565 S
H3 O4 0.760 . S
O4 Co0 2.009 . S
O4 Co1 2.126 1_654 S
O4 Co2 2.053 1_565 S
O4 H3 0.760 . S
H5 Co1 2.388 1_545 S
H5 O6 0.760 . S
H5 Co7 2.400 . S
O6 Co1 2.053 1_545 S
O6 Co2 2.126 1_456 S
O6 H5 0.760 . S
O6 Co7 2.009 . S
Co7 H5 2.400 . S
Co7 O6 2.009 . S
Co7 O8 2.053 . S
Co7 O10 2.094 1_455 S
Co7 O14 2.122 1_445 S
Co7 O28 2.115 . S
Co7 O29 2.315 . S
O8 Co7 2.053 . S
O8 C20 1.259 . S
O9 Co1 2.047 1_545 S
O9 C20 1.257 . S
O10 Co7 2.094 1_655 S
O10 C21 1.253 . S
O11 Co2 2.063 1_556 S
O11 C21 1.268 . S
O12 Co0 2.115 . S
O12 C22 1.281 . S
O13 Co0 2.315 . S
O13 C22 1.252 . S
O14 Co7 2.122 1_665 S
O14 C23 1.272 . S
O15 Co1 2.113 1_655 S
O15 C23 1.245 . S
C16 O24 1.259 . S
C16 O25 1.257 . S
C17 O26 1.268 . S
C17 O27 1.253 . S
C18 O28 1.281 . S
C18 O29 1.252 . S
C19 O30 1.272 . S
C19 O31 1.245 . S
C20 O8 1.259 . S
C20 O9 1.257 . S
C21 O10 1.253 . S
C21 O11 1.268 . S
C22 O12 1.281 . S
C22 O13 1.252 . S
C23 O14 1.272 . S
C23 O15 1.245 . S
O24 Co0 2.053 . S
O24 C16 1.259 . S
O25 Co2 2.047 1_565 S
O25 C16 1.257 . S
O26 Co1 2.063 1_554 S
O26 C17 1.268 . S
O27 Co0 2.094 1_455 S
O27 C17 1.253 . S
O28 Co7 2.115 . S
O28 C18 1.281 . S
O29 Co7 2.315 . S
O29 C18 1.252 . S
O30 Co0 2.122 1_445 S
O30 C19 1.272 . S
O31 Co2 2.113 1_455 S
O31 C19 1.245 . S
Co32 H35 2.400 . S
Co32 O36 2.009 . S
Co32 O44 2.115 . S
Co32 O45 2.315 . S
Co32 O56 2.053 . S
Co32 O59 2.094 . S
Co32 O62 2.122 . S
Co33 O36 2.126 . S
Co33 H37 2.388 . S
Co33 O38 2.053 . S
Co33 O41 2.047 . S
Co33 O47 2.113 . S
Co33 O58 2.063 . S
Co34 H35 2.388 . S
Co34 O36 2.053 . S
Co34 O38 2.126 . S
Co34 O43 2.063 . S
Co34 O57 2.047 . S
Co34 O63 2.113 . S
H35 Co32 2.400 . S
H35 Co34 2.388 . S
H35 O36 0.760 . S
O36 Co32 2.009 . S
O36 Co33 2.126 . S
O36 Co34 2.053 . S
O36 H35 0.760 . S
H37 Co33 2.388 . S
H37 O38 0.760 . S
H37 Co39 2.400 . S
O38 Co33 2.053 . S
O38 Co34 2.126 . S
O38 H37 0.760 . S
O38 Co39 2.009 . S
Co39 H37 2.400 . S
Co39 O38 2.009 . S
Co39 O40 2.053 . S
Co39 O42 2.094 . S
Co39 O46 2.122 . S
Co39 O60 2.115 . S
Co39 O61 2.315 . S
O40 Co39 2.053 . S
O40 C52 1.259 . S
O41 Co33 2.047 . S
O41 C52 1.257 . S
O42 Co39 2.094 . S
O42 C53 1.253 . S
O43 Co34 2.063 . S
O43 C53 1.268 . S
O44 Co32 2.115 . S
O44 C54 1.281 . S
O45 Co32 2.315 . S
O45 C54 1.252 . S
O46 Co39 2.122 . S
O46 C55 1.272 . S
O47 Co33 2.113 . S
O47 C55 1.245 . S
C48 O56 1.259 . S
C48 O57 1.257 . S
C49 O58 1.268 . S
C49 O59 1.253 . S
C50 O60 1.281 . S
C50 O61 1.252 . S
C51 O62 1.272 . S
C51 O63 1.245 . S
C52 O40 1.259 . S
C52 O41 1.257 . S
C53 O42 1.253 . S
C53 O43 1.268 . S
C54 O44 1.281 . S
C54 O45 1.252 . S
C55 O46 1.272 . S
C55 O47 1.245 . S
O56 Co32 2.053 . S
O56 C48 1.259 . S
O57 Co34 2.047 . S
O57 C48 1.257 . S
O58 Co33 2.063 . S
O58 C49 1.268 . S
O59 Co32 2.094 . S
O59 C49 1.253 . S
O60 Co39 2.115 . S
O60 C50 1.281 . S
O61 Co39 2.315 . S
O61 C50 1.252 . S
O62 Co32 2.122 . S
O62 C51 1.272 . S
O63 Co34 2.113 . S
O63 C51 1.245 . S
Co64 H67 2.400 . S
Co64 O68 2.009 . S
Co64 O76 2.115 . S
Co64 O77 2.315 . S
Co64 O88 2.053 . S
Co64 O91 2.094 . S
Co64 O94 2.122 . S
Co65 O68 2.126 . S
Co65 H69 2.388 . S
Co65 O70 2.053 . S
Co65 O73 2.047 . S
Co65 O79 2.113 . S
Co65 O90 2.063 . S
Co66 H67 2.388 . S
Co66 O68 2.053 . S
Co66 O70 2.126 . S
Co66 O75 2.063 . S
Co66 O89 2.047 . S
Co66 O95 2.113 . S
H67 Co64 2.400 . S
H67 Co66 2.388 . S
H67 O68 0.760 . S
O68 Co64 2.009 . S
O68 Co65 2.126 . S
O68 Co66 2.053 . S
O68 H67 0.760 . S
H69 Co65 2.388 . S
H69 O70 0.760 . S
H69 Co71 2.400 . S
O70 Co65 2.053 . S
O70 Co66 2.126 . S
O70 H69 0.760 . S
O70 Co71 2.009 . S
Co71 H69 2.400 . S
Co71 O70 2.009 . S
Co71 O72 2.053 . S
Co71 O74 2.094 . S
Co71 O78 2.122 . S
Co71 O92 2.115 . S
Co71 O93 2.315 . S
O72 Co71 2.053 . S
O72 C84 1.259 . S
O73 Co65 2.047 . S
O73 C84 1.257 . S
O74 Co71 2.094 . S
O74 C85 1.253 . S
O75 Co66 2.063 . S
O75 C85 1.268 . S
O76 Co64 2.115 . S
O76 C86 1.281 . S
O77 Co64 2.315 . S
O77 C86 1.252 . S
O78 Co71 2.122 . S
O78 C87 1.272 . S
O79 Co65 2.113 . S
O79 C87 1.245 . S
C80 O88 1.259 . S
C80 O89 1.257 . S
C81 O90 1.268 . S
C81 O91 1.253 . S
C82 O92 1.281 . S
C82 O93 1.252 . S
C83 O94 1.272 . S
C83 O95 1.245 . S
C84 O72 1.259 . S
C84 O73 1.257 . S
C85 O74 1.253 . S
C85 O75 1.268 . S
C86 O76 1.281 . S
C86 O77 1.252 . S
C87 O78 1.272 . S
C87 O79 1.245 . S
O88 Co64 2.053 . S
O88 C80 1.259 . S
O89 Co66 2.047 . S
O89 C80 1.257 . S
O90 Co65 2.063 . S
O90 C81 1.268 . S
O91 Co64 2.094 . S
O91 C81 1.253 . S
O92 Co71 2.115 . S
O92 C82 1.281 . S
O93 Co71 2.315 . S
O93 C82 1.252 . S
O94 Co64 2.122 . S
O94 C83 1.272 . S
O95 Co66 2.113 . S
O95 C83 1.245 . S
H96 C114 0.951 . S
H97 C116 0.951 . S
H98 C118 0.950 1_565 S
H99 C119 0.950 . S
H100 C121 0.950 . S
H101 C124 0.950 . S
H102 C125 0.950 . S
H103 C127 0.950 1_545 S
H104 C128 0.950 . S
H105 C129 0.951 . S
H106 C131 0.951 . S
H107 C133 0.950 1_545 S
H108 C134 0.950 . S
H109 C136 0.950 . S
H110 C139 0.950 . S
H111 C140 0.950 . S
H112 C142 0.950 1_565 S
H113 C143 0.950 . S
C114 H96 0.951 . S
C114 C115 1.366 . S
C114 C116 1.388 . S
C115 C114 1.366 . S
C115 C119 1.385 . S
C116 H97 0.951 . S
C116 C114 1.388 . S
C116 C117 1.366 . S
C117 C116 1.366 . S
C117 C118 1.414 . S
C117 C120 1.499 . S
C118 H98 0.950 1_545 S
C118 C117 1.414 . S
C118 C119 1.374 . S
C119 H99 0.950 . S
C119 C115 1.385 . S
C119 C118 1.374 . S
C120 C117 1.499 . S
C120 C121 1.373 . S
C120 C122 1.389 1_445 S
C121 H100 0.950 . S
C121 C120 1.373 . S
C121 C137 1.377 . S
C122 C120 1.389 1_665 S
C122 C123 1.524 . S
C122 C136 1.377 . S
C123 C122 1.524 . S
C123 C124 1.397 . S
C123 C128 1.363 1_565 S
C124 H101 0.950 . S
C124 C123 1.397 . S
C124 C125 1.334 . S
C125 H102 0.950 . S
C125 C124 1.334 . S
C125 C126 1.287 . S
C126 C125 1.287 . S
C126 C127 1.524 . S
C126 H145 0.913 . S
C127 H103 0.950 1_565 S
C127 C126 1.524 . S
C127 C128 1.415 1_565 S
C128 H104 0.950 . S
C128 C123 1.363 1_545 S
C128 C127 1.415 1_545 S
C129 H105 0.951 . S
C129 C130 1.366 . S
C129 C131 1.388 . S
C130 C129 1.366 . S
C130 C134 1.385 . S
C131 H106 0.951 . S
C131 C129 1.388 . S
C131 C132 1.366 . S
C132 C131 1.366 . S
C132 C133 1.414 . S
C132 C135 1.499 . S
C133 H107 0.950 1_565 S
C133 C132 1.414 . S
C133 C134 1.374 . S
C134 H108 0.950 . S
C134 C130 1.385 . S
C134 C133 1.374 . S
C135 C132 1.499 . S
C135 C136 1.373 . S
C135 C137 1.389 1_665 S
C136 H109 0.950 . S
C136 C122 1.377 . S
C136 C135 1.373 . S
C137 C121 1.377 . S
C137 C135 1.389 1_445 S
C137 C138 1.524 . S
C138 C137 1.524 . S
C138 C139 1.397 . S
C138 C143 1.363 1_545 S
C139 H110 0.950 . S
C139 C138 1.397 . S
C139 C140 1.334 . S
C140 H111 0.950 . S
C140 C139 1.334 . S
C140 C141 1.287 . S
C141 C140 1.287 . S
C141 C142 1.524 . S
C141 H144 0.999 . S
C142 H112 0.950 1_545 S
C142 C141 1.524 . S
C142 C143 1.415 1_545 S
C143 H113 0.950 . S
C143 C138 1.363 1_565 S
C143 C142 1.415 1_565 S
H144 C141 0.999 . S
H145 C126 0.913 . S
H146 C164 0.951 . S
H147 C166 0.951 . S
H148 C168 0.950 . S
H149 C169 0.950 . S
H150 C171 0.950 . S
H151 C174 0.950 . S
H152 C175 0.950 . S
H153 C177 0.950 . S
H154 C178 0.950 . S
H155 C179 0.951 . S
H156 C181 0.951 1_556 S
H157 C183 0.950 . S
H158 C184 0.950 . S
H159 C186 0.950 . S
H160 C189 0.950 . S
H161 C190 0.950 . S
H162 C192 0.950 . S
H163 C193 0.950 . S
C164 H146 0.951 . S
C164 C165 1.366 . S
C164 C166 1.388 . S
C165 C164 1.366 . S
C165 C169 1.385 . S
C166 H147 0.951 . S
C166 C164 1.388 . S
C166 C167 1.366 . S
C167 C166 1.366 . S
C167 C168 1.414 . S
C167 C170 1.499 . S
C168 H148 0.950 . S
C168 C167 1.414 . S
C168 C169 1.374 . S
C169 H149 0.950 . S
C169 C165 1.385 . S
C169 C168 1.374 . S
C170 C167 1.499 . S
C170 C171 1.373 . S
C170 C172 1.389 . S
C171 H150 0.950 . S
C171 C170 1.373 . S
C171 C187 1.377 . S
C172 C170 1.389 . S
C172 C173 1.524 . S
C172 C186 1.377 . S
C173 C172 1.524 . S
C173 C174 1.397 . S
C173 C178 1.363 . S
C174 H151 0.950 . S
C174 C173 1.397 . S
C174 C175 1.334 . S
C175 H152 0.950 . S
C175 C174 1.334 . S
C175 C176 1.287 . S
C176 C175 1.287 . S
C176 C177 1.524 . S
C176 H195 0.913 . S
C177 H153 0.950 . S
C177 C176 1.524 . S
C177 C178 1.415 . S
C178 H154 0.950 . S
C178 C173 1.363 . S
C178 C177 1.415 . S
C179 H155 0.951 . S
C179 C180 1.366 . S
C179 C181 1.388 . S
C180 C179 1.366 . S
C180 C184 1.385 . S
C181 H156 0.951 1_554 S
C181 C179 1.388 . S
C181 C182 1.366 1_554 S
C182 C181 1.366 1_556 S
C182 C183 1.414 . S
C182 C185 1.499 . S
C183 H157 0.950 . S
C183 C182 1.414 . S
C183 C184 1.374 1_556 S
C184 H158 0.950 . S
C184 C180 1.385 . S
C184 C183 1.374 1_554 S
C185 C182 1.499 . S
C185 C186 1.373 . S
C185 C187 1.389 . S
C186 H159 0.950 . S
C186 C172 1.377 . S
C186 C185 1.373 . S
C187 C171 1.377 . S
C187 C185 1.389 . S
C187 C188 1.524 . S
C188 C187 1.524 . S
C188 C189 1.397 . S
C188 C193 1.363 . S
C189 H160 0.950 . S
C189 C188 1.397 . S
C189 C190 1.334 . S
C190 H161 0.950 . S
C190 C189 1.334 . S
C190 C191 1.287 . S
C191 C190 1.287 . S
C191 C192 1.524 . S
C191 H194 0.999 . S
C192 H162 0.950 . S
C192 C191 1.524 . S
C192 C193 1.415 . S
C193 H163 0.950 . S
C193 C188 1.363 . S
C193 C192 1.415 . S
H194 C191 0.999 . S
H195 C176 0.913 . S
H196 C214 0.951 . S
H197 C216 0.948 1_554 S
H198 C218 0.950 . S
H199 C219 0.950 . S
H200 C221 0.950 . S
H201 C224 0.950 . S
H202 C225 0.950 1_556 S
H203 C227 0.950 . S
H204 C228 0.950 . S
H205 C229 0.951 . S
H206 C231 0.951 . S
H207 C233 0.950 . S
H208 C234 0.950 . S
H209 C236 0.950 . S
H210 C239 0.950 . S
H211 C240 0.950 . S
H212 C242 0.950 . S
H213 C243 0.950 . S
C214 H196 0.951 . S
C214 C215 1.366 . S
C214 C216 1.388 . S
C215 C214 1.366 . S
C215 C219 1.385 . S
C216 H197 0.948 1_556 S
C216 C214 1.388 . S
C216 C217 1.366 1_556 S
C217 C216 1.366 1_554 S
C217 C218 1.414 . S
C217 C220 1.499 . S
C218 H198 0.950 . S
C218 C217 1.414 . S
C218 C219 1.374 1_554 S
C219 H199 0.950 . S
C219 C215 1.385 . S
C219 C218 1.374 1_556 S
C220 C217 1.499 . S
C220 C221 1.373 . S
C220 C222 1.389 . S
C221 H200 0.950 . S
C221 C220 1.373 . S
C221 C237 1.377 . S
C222 C220 1.389 . S
C222 C223 1.524 . S
C222 C236 1.377 . S
C223 C222 1.524 . S
C223 C224 1.397 . S
C223 C228 1.363 . S
C224 H201 0.950 . S
C224 C223 1.397 . S
C224 C225 1.334 . S
C225 H202 0.950 1_554 S
C225 C224 1.334 . S
C225 C226 1.287 1_554 S
C226 C225 1.287 1_556 S
C226 C227 1.524 1_556 S
C226 H245 0.913 . S
C227 H203 0.950 . S
C227 C226 1.524 1_554 S
C227 C228 1.415 . S
C228 H204 0.950 . S
C228 C223 1.363 . S
C228 C227 1.415 . S
C229 H205 0.951 . S
C229 C230 1.366 . S
C229 C231 1.388 . S
C230 C229 1.366 . S
C230 C234 1.385 . S
C231 H206 0.951 . S
C231 C229 1.388 . S
C231 C232 1.366 . S
C232 C231 1.366 . S
C232 C233 1.414 . S
C232 C235 1.499 . S
C233 H207 0.950 . S
C233 C232 1.414 . S
C233 C234 1.374 . S
C234 H208 0.950 . S
C234 C230 1.385 . S
C234 C233 1.374 . S
C235 C232 1.499 . S
C235 C236 1.373 . S
C235 C237 1.389 . S
C236 H209 0.950 . S
C236 C222 1.377 . S
C236 C235 1.373 . S
C237 C221 1.377 . S
C237 C235 1.389 . S
C237 C238 1.524 . S
C238 C237 1.524 . S
C238 C239 1.397 . S
C238 C243 1.363 . S
C239 H210 0.950 . S
C239 C238 1.397 . S
C239 C240 1.334 . S
C240 H211 0.950 . S
C240 C239 1.334 . S
C240 C241 1.287 . S
C241 C240 1.287 . S
C241 C242 1.524 . S
C241 H244 0.999 . S
C242 H212 0.950 . S
C242 C241 1.524 . S
C242 C243 1.415 . S
C243 H213 0.950 . S
C243 C238 1.363 . S
C243 C242 1.415 . S
H244 C241 0.999 . S
H245 C226 0.913 . S
H246 C264 0.951 . S
H247 C266 0.951 . S
H248 C268 0.950 . S
H249 C269 0.950 . S
H250 C271 0.950 . S
H251 C274 0.950 . S
H252 C275 0.950 . S
H253 C277 0.950 . S
H254 C278 0.950 1_545 S
H255 C279 0.951 . S
H256 C281 0.951 . S
H257 C283 0.950 . S
H258 C284 0.950 1_545 S
H259 C286 0.950 . S
H260 C289 0.950 . S
H261 C290 0.950 . S
H262 C292 0.950 . S
H263 C293 0.950 . S
C264 H246 0.951 . S
C264 C265 1.366 . S
C264 C266 1.388 . S
C265 C264 1.366 . S
C265 C269 1.385 . S
C266 H247 0.951 . S
C266 C264 1.388 . S
C266 C267 1.366 . S
C267 C266 1.366 . S
C267 C268 1.414 . S
C267 C270 1.499 . S
C268 H248 0.950 . S
C268 C267 1.414 . S
C268 C269 1.374 . S
C269 H249 0.950 . S
C269 C265 1.385 . S
C269 C268 1.374 . S
C270 C267 1.499 . S
C270 C271 1.373 . S
C270 C272 1.389 . S
C271 H250 0.950 . S
C271 C270 1.373 . S
C271 C287 1.377 . S
C272 C270 1.389 . S
C272 C273 1.524 . S
C272 C286 1.377 . S
C273 C272 1.524 . S
C273 C274 1.397 . S
C273 C278 1.363 . S
C274 H251 0.950 . S
C274 C273 1.397 . S
C274 C275 1.334 . S
C275 H252 0.950 . S
C275 C274 1.334 . S
C275 C276 1.287 1_565 S
C276 C275 1.287 1_545 S
C276 C277 1.524 . S
C276 H295 0.913 . S
C277 H253 0.950 . S
C277 C276 1.524 . S
C277 C278 1.415 1_545 S
C278 H254 0.950 1_565 S
C278 C273 1.363 . S
C278 C277 1.415 1_565 S
C279 H255 0.951 . S
C279 C280 1.366 . S
C279 C281 1.388 . S
C280 C279 1.366 . S
C280 C284 1.385 . S
C281 H256 0.951 . S
C281 C279 1.388 . S
C281 C282 1.366 . S
C282 C281 1.366 . S
C282 C283 1.414 . S
C282 C285 1.499 . S
C283 H257 0.950 . S
C283 C282 1.414 . S
C283 C284 1.374 . S
C284 H258 0.950 1_565 S
C284 C280 1.385 . S
C284 C283 1.374 . S
C285 C282 1.499 . S
C285 C286 1.373 . S
C285 C287 1.389 . S
C286 H259 0.950 . S
C286 C272 1.377 . S
C286 C285 1.373 . S
C287 C271 1.377 . S
C287 C285 1.389 . S
C287 C288 1.524 . S
C288 C287 1.524 . S
C288 C289 1.397 . S
C288 C293 1.363 . S
C289 H260 0.950 . S
C289 C288 1.397 . S
C289 C290 1.334 . S
C290 H261 0.950 . S
C290 C289 1.334 . S
C290 C291 1.287 . S
C291 C290 1.287 . S
C291 C292 1.524 1_455 S
C291 H294 0.999 1_455 S
C292 H262 0.950 . S
C292 C291 1.524 1_655 S
C292 C293 1.415 1_655 S
C293 H263 0.950 . S
C293 C288 1.363 . S
C293 C292 1.415 1_455 S
H294 C291 0.999 1_655 S
H295 C276 0.913 . S
H296 C314 0.951 . S
H297 C316 0.951 . S
H298 C318 0.950 . S
H299 C319 0.950 . S
H300 C321 0.950 . S
H301 C324 0.950 . S
H302 C325 0.950 . S
H303 C327 0.950 . S
H304 C328 0.950 . S
H305 C329 0.951 . S
H306 C331 0.951 . S
H307 C333 0.950 . S
H308 C334 0.950 . S
H309 C336 0.950 . S
H310 C339 0.950 . S
H311 C340 0.950 . S
H312 C342 0.950 . S
H313 C343 0.950 . S
C314 H296 0.951 . S
C314 C315 1.366 . S
C314 C316 1.388 . S
C315 C314 1.366 . S
C315 C319 1.385 . S
C316 H297 0.951 . S
C316 C314 1.388 . S
C316 C317 1.366 . S
C317 C316 1.366 . S
C317 C318 1.414 . S
C317 C320 1.499 . S
C318 H298 0.950 . S
C318 C317 1.414 . S
C318 C319 1.374 . S
C319 H299 0.950 . S
C319 C315 1.385 . S
C319 C318 1.374 . S
C320 C317 1.499 . S
C320 C321 1.373 . S
C320 C322 1.389 . S
C321 H300 0.950 . S
C321 C320 1.373 . S
C321 C337 1.377 . S
C322 C320 1.389 . S
C322 C323 1.524 . S
C322 C336 1.377 . S
C323 C322 1.524 . S
C323 C324 1.397 . S
C323 C328 1.363 . S
C324 H301 0.950 . S
C324 C323 1.397 . S
C324 C325 1.334 . S
C325 H302 0.950 . S
C325 C324 1.334 . S
C325 C326 1.287 . S
C326 C325 1.287 . S
C326 C327 1.524 . S
C326 H345 0.913 . S
C327 H303 0.950 . S
C327 C326 1.524 . S
C327 C328 1.415 . S
C328 H304 0.950 . S
C328 C323 1.363 . S
C328 C327 1.415 . S
C329 H305 0.951 . S
C329 C330 1.366 . S
C329 C331 1.388 . S
C330 C329 1.366 . S
C330 C334 1.385 . S
C331 H306 0.951 . S
C331 C329 1.388 . S
C331 C332 1.366 . S
C332 C331 1.366 . S
C332 C333 1.414 . S
C332 C335 1.499 . S
C333 H307 0.950 . S
C333 C332 1.414 . S
C333 C334 1.374 . S
C334 H308 0.950 . S
C334 C330 1.385 . S
C334 C333 1.374 . S
C335 C332 1.499 . S
C335 C336 1.373 . S
C335 C337 1.389 . S
C336 H309 0.950 . S
C336 C322 1.377 . S
C336 C335 1.373 . S
C337 C321 1.377 . S
C337 C335 1.389 . S
C337 C338 1.524 . S
C338 C337 1.524 . S
C338 C339 1.397 . S
C338 C343 1.363 . S
C339 H310 0.950 . S
C339 C338 1.397 . S
C339 C340 1.334 1_455 S
C340 H311 0.950 . S
C340 C339 1.334 1_655 S
C340 C341 1.287 . S
C341 C340 1.287 . S
C341 C342 1.524 . S
C341 H344 0.999 . S
C342 H312 0.950 . S
C342 C341 1.524 . S
C342 C343 1.415 1_655 S
C343 H313 0.950 . S
C343 C338 1.363 . S
C343 C342 1.415 1_455 S
H344 C341 0.999 . S
H345 C326 0.913 . S
H346 C364 0.951 . S
H347 C366 0.951 . S
H348 C368 0.950 . S
H349 C369 0.950 . S
H350 C371 0.950 . S
H351 C374 0.950 . S
H352 C375 0.950 . S
H353 C377 0.950 . S
H354 C378 0.950 . S
H355 C379 0.951 1_545 S
H356 C381 0.951 . S
H357 C383 0.950 . S
H358 C384 0.950 . S
H359 C386 0.950 . S
H360 C389 0.950 . S
H361 C390 0.950 . S
H362 C392 0.950 . S
H363 C393 0.950 . S
C364 H346 0.951 . S
C364 C365 1.366 . S
C364 C366 1.388 . S
C365 C364 1.366 . S
C365 C369 1.385 . S
C366 H347 0.951 . S
C366 C364 1.388 . S
C366 C367 1.366 . S
C367 C366 1.366 . S
C367 C368 1.414 . S
C367 C370 1.499 . S
C368 H348 0.950 . S
C368 C367 1.414 . S
C368 C369 1.374 . S
C369 H349 0.950 . S
C369 C365 1.385 . S
C369 C368 1.374 . S
C370 C367 1.499 . S
C370 C371 1.373 . S
C370 C372 1.389 . S
C371 H350 0.950 . S
C371 C370 1.373 . S
C371 C387 1.377 . S
C372 C370 1.389 . S
C372 C373 1.524 . S
C372 C386 1.377 . S
C373 C372 1.524 . S
C373 C374 1.397 . S
C373 C378 1.363 . S
C374 H351 0.950 . S
C374 C373 1.397 . S
C374 C375 1.334 . S
C375 H352 0.950 . S
C375 C374 1.334 . S
C375 C376 1.287 . S
C376 C375 1.287 . S
C376 C377 1.524 . S
C376 H395 0.913 . S
C377 H353 0.950 . S
C377 C376 1.524 . S
C377 C378 1.415 . S
C378 H354 0.950 . S
C378 C373 1.363 . S
C378 C377 1.415 . S
C379 H355 0.951 1_565 S
C379 C380 1.366 . S
C379 C381 1.388 . S
C380 C379 1.366 . S
C380 C384 1.385 . S
C381 H356 0.951 . S
C381 C379 1.388 . S
C381 C382 1.366 . S
C382 C381 1.366 . S
C382 C383 1.414 . S
C382 C385 1.499 . S
C383 H357 0.950 . S
C383 C382 1.414 . S
C383 C384 1.374 . S
C384 H358 0.950 . S
C384 C380 1.385 . S
C384 C383 1.374 . S
C385 C382 1.499 . S
C385 C386 1.373 . S
C385 C387 1.389 . S
C386 H359 0.950 . S
C386 C372 1.377 . S
C386 C385 1.373 . S
C387 C371 1.377 . S
C387 C385 1.389 . S
C387 C388 1.524 . S
C388 C387 1.524 . S
C388 C389 1.397 . S
C388 C393 1.363 . S
C389 H360 0.950 . S
C389 C388 1.397 . S
C389 C390 1.334 . S
C390 H361 0.950 . S
C390 C389 1.334 . S
C390 C391 1.287 . S
C391 C390 1.287 . S
C391 C392 1.524 . S
C391 H394 0.999 . S
C392 H362 0.950 . S
C392 C391 1.524 . S
C392 C393 1.415 . S
C393 H363 0.950 . S
C393 C388 1.363 . S
C393 C392 1.415 . S
H394 C391 0.999 . S
H395 C376 0.913 . S
H396 C414 0.951 . S
H397 C416 0.951 . S
H398 C418 0.950 . S
H399 C419 0.950 . S
H400 C421 0.950 . S
H401 C424 0.950 . S
H402 C425 0.950 . S
H403 C427 0.950 . S
H404 C428 0.950 . S
H405 C429 0.951 . S
H406 C431 0.951 . S
H407 C433 0.950 . S
H408 C434 0.950 . S
H409 C436 0.950 . S
H410 C439 0.950 . S
H411 C440 0.950 . S
H412 C442 0.950 . S
H413 C443 0.950 . S
C414 H396 0.951 . S
C414 C415 1.366 . S
C414 C416 1.388 . S
C415 C414 1.366 . S
C415 C419 1.385 . S
C416 H397 0.951 . S
C416 C414 1.388 . S
C416 C417 1.366 . S
C417 C416 1.366 . S
C417 C418 1.414 . S
C417 C420 1.499 . S
C418 H398 0.950 . S
C418 C417 1.414 . S
C418 C419 1.374 . S
C419 H399 0.950 . S
C419 C415 1.385 . S
C419 C418 1.374 . S
C420 C417 1.499 . S
C420 C421 1.373 . S
C420 C422 1.389 . S
C421 H400 0.950 . S
C421 C420 1.373 . S
C421 C437 1.377 . S
C422 C420 1.389 . S
C422 C423 1.524 . S
C422 C436 1.377 . S
C423 C422 1.524 . S
C423 C424 1.397 . S
C423 C428 1.363 . S
C424 H401 0.950 . S
C424 C423 1.397 . S
C424 C425 1.334 . S
C425 H402 0.950 . S
C425 C424 1.334 . S
C425 C426 1.287 1_545 S
C426 C425 1.287 1_565 S
C426 C427 1.524 . S
C426 H445 0.913 . S
C427 H403 0.950 . S
C427 C426 1.524 . S
C427 C428 1.415 1_565 S
C428 H404 0.950 . S
C428 C423 1.363 . S
C428 C427 1.415 1_545 S
C429 H405 0.951 . S
C429 C430 1.366 . S
C429 C431 1.388 . S
C430 C429 1.366 . S
C430 C434 1.385 . S
C431 H406 0.951 . S
C431 C429 1.388 . S
C431 C432 1.366 . S
C432 C431 1.366 . S
C432 C433 1.414 . S
C432 C435 1.499 . S
C433 H407 0.950 . S
C433 C432 1.414 . S
C433 C434 1.374 . S
C434 H408 0.950 . S
C434 C430 1.385 . S
C434 C433 1.374 . S
C435 C432 1.499 . S
C435 C436 1.373 . S
C435 C437 1.389 . S
C436 H409 0.950 . S
C436 C422 1.377 . S
C436 C435 1.373 . S
C437 C421 1.377 . S
C437 C435 1.389 . S
C437 C438 1.524 . S
C438 C437 1.524 . S
C438 C439 1.397 . S
C438 C443 1.363 . S
C439 H410 0.950 . S
C439 C438 1.397 . S
C439 C440 1.334 1_655 S
C440 H411 0.950 . S
C440 C439 1.334 1_455 S
C440 C441 1.287 . S
C441 C440 1.287 . S
C441 C442 1.524 . S
C441 H444 0.999 . S
C442 H412 0.950 . S
C442 C441 1.524 . S
C442 C443 1.415 1_455 S
C443 H413 0.950 . S
C443 C438 1.363 . S
C443 C442 1.415 1_655 S
H444 C441 0.999 . S
H445 C426 0.913 . S
H446 C464 0.951 . S
H447 C466 0.951 . S
H448 C468 0.950 . S
H449 C469 0.950 . S
H450 C471 0.950 . S
H451 C474 0.950 . S
H452 C475 0.950 . S
H453 C477 0.950 . S
H454 C478 0.950 . S
H455 C479 0.951 . S
H456 C481 0.951 . S
H457 C483 0.950 . S
H458 C484 0.950 . S
H459 C486 0.950 . S
H460 C489 0.950 . S
H461 C490 0.950 . S
H462 C492 0.950 . S
H463 C493 0.953 . S
C464 H446 0.951 . S
C464 C465 1.366 . S
C464 C466 1.388 . S
C465 C464 1.366 . S
C465 C469 1.385 . S
C466 H447 0.951 . S
C466 C464 1.388 . S
C466 C467 1.366 . S
C467 C466 1.366 . S
C467 C468 1.414 . S
C467 C470 1.499 . S
C468 H448 0.950 . S
C468 C467 1.414 . S
C468 C469 1.374 . S
C469 H449 0.950 . S
C469 C465 1.385 . S
C469 C468 1.374 . S
C470 C467 1.499 . S
C470 C471 1.373 . S
C470 C472 1.389 . S
C471 H450 0.950 . S
C471 C470 1.373 . S
C471 C487 1.377 . S
C472 C470 1.389 . S
C472 C473 1.524 . S
C472 C486 1.377 . S
C473 C472 1.524 . S
C473 C474 1.397 . S
C473 C478 1.363 . S
C474 H451 0.950 . S
C474 C473 1.397 . S
C474 C475 1.334 . S
C475 H452 0.950 . S
C475 C474 1.334 . S
C475 C476 1.287 . S
C476 C475 1.287 . S
C476 C477 1.524 . S
C476 H495 0.913 . S
C477 H453 0.950 . S
C477 C476 1.524 . S
C477 C478 1.415 . S
C478 H454 0.950 . S
C478 C473 1.363 . S
C478 C477 1.415 . S
C479 H455 0.951 . S
C479 C480 1.366 . S
C479 C481 1.388 . S
C480 C479 1.366 . S
C480 C484 1.385 . S
C481 H456 0.951 . S
C481 C479 1.388 . S
C481 C482 1.366 . S
C482 C481 1.366 . S
C482 C483 1.414 . S
C482 C485 1.499 . S
C483 H457 0.950 . S
C483 C482 1.414 . S
C483 C484 1.374 . S
C484 H458 0.950 . S
C484 C480 1.385 . S
C484 C483 1.374 . S
C485 C482 1.499 . S
C485 C486 1.373 . S
C485 C487 1.389 . S
C486 H459 0.950 . S
C486 C472 1.377 . S
C486 C485 1.373 . S
C487 C471 1.377 . S
C487 C485 1.389 . S
C487 C488 1.524 . S
C488 C487 1.524 . S
C488 C489 1.397 . S
C488 C493 1.368 . S
C489 H460 0.950 . S
C489 C488 1.397 . S
C489 C490 1.334 1_655 S
C490 H461 0.950 . S
C490 C489 1.334 1_455 S
C490 C491 1.287 . S
C491 C490 1.287 . S
C491 C492 1.524 . S
C491 H494 0.999 . S
C492 H462 0.950 . S
C492 C491 1.524 . S
C492 C493 1.408 1_455 S
C493 H463 0.953 . S
C493 C488 1.368 . S
C493 C492 1.408 1_655 S
H494 C491 0.999 . S
H495 C476 0.913 . S
H496 C514 0.951 . S
H497 C516 0.951 . S
H498 C518 0.950 . S
H499 C519 0.950 . S
H500 C521 0.950 . S
H501 C524 0.950 . S
H502 C525 0.950 . S
H503 C527 0.950 . S
H504 C528 0.950 . S
H505 C529 0.951 . S
H506 C531 0.951 . S
H507 C533 0.950 . S
H508 C534 0.950 . S
H509 C536 0.950 . S
H510 C539 0.950 . S
H511 C540 0.950 . S
H512 C542 0.950 . S
H513 C543 0.950 . S
C514 H496 0.951 . S
C514 C515 1.366 . S
C514 C516 1.388 . S
C515 C514 1.366 . S
C515 C519 1.385 . S
C516 H497 0.951 . S
C516 C514 1.388 . S
C516 C517 1.366 . S
C517 C516 1.366 . S
C517 C518 1.414 . S
C517 C520 1.499 . S
C518 H498 0.950 . S
C518 C517 1.414 . S
C518 C519 1.374 . S
C519 H499 0.950 . S
C519 C515 1.385 . S
C519 C518 1.374 . S
C520 C517 1.499 . S
C520 C521 1.373 . S
C520 C522 1.389 . S
C521 H500 0.950 . S
C521 C520 1.373 . S
C521 C537 1.377 . S
C522 C520 1.389 . S
C522 C523 1.524 . S
C522 C536 1.377 . S
C523 C522 1.524 . S
C523 C524 1.397 . S
C523 C528 1.363 . S
C524 H501 0.950 . S
C524 C523 1.397 . S
C524 C525 1.334 . S
C525 H502 0.950 . S
C525 C524 1.334 . S
C525 C526 1.287 . S
C526 C525 1.287 . S
C526 C527 1.524 . S
C526 H545 0.913 . S
C527 H503 0.950 . S
C527 C526 1.524 . S
C527 C528 1.415 . S
C528 H504 0.950 . S
C528 C523 1.363 . S
C528 C527 1.415 . S
C529 H505 0.951 . S
C529 C530 1.366 . S
C529 C531 1.388 . S
C530 C529 1.366 . S
C530 C534 1.385 . S
C531 H506 0.951 . S
C531 C529 1.388 . S
C531 C532 1.366 . S
C532 C531 1.366 . S
C532 C533 1.414 . S
C532 C535 1.499 . S
C533 H507 0.950 . S
C533 C532 1.414 . S
C533 C534 1.374 . S
C534 H508 0.950 . S
C534 C530 1.385 . S
C534 C533 1.374 . S
C535 C532 1.499 . S
C535 C536 1.373 . S
C535 C537 1.389 . S
C536 H509 0.950 . S
C536 C522 1.377 . S
C536 C535 1.373 . S
C537 C521 1.377 . S
C537 C535 1.389 . S
C537 C538 1.524 . S
C538 C537 1.524 . S
C538 C539 1.397 . S
C538 C543 1.363 . S
C539 H510 0.950 . S
C539 C538 1.397 . S
C539 C540 1.334 . S
C540 H511 0.950 . S
C540 C539 1.334 . S
C540 C541 1.287 . S
C541 C540 1.287 . S
C541 C542 1.524 . S
C541 H544 0.999 . S
C542 H512 0.950 . S
C542 C541 1.524 . S
C542 C543 1.415 . S
C543 H513 0.950 . S
C543 C538 1.363 . S
C543 C542 1.415 . S
H544 C541 0.999 . S
H545 C526 0.913 . S
H546 C564 0.951 . S
H547 C566 0.951 . S
H548 C568 0.950 . S
H549 C569 0.950 . S
H550 C571 0.950 . S
H551 C574 0.950 . S
H552 C575 0.950 . S
H553 C577 0.950 . S
H554 C578 0.950 . S
H555 C579 0.951 . S
H556 C581 0.951 . S
H557 C583 0.950 . S
H558 C584 0.950 . S
H559 C586 0.950 . S
H560 C589 0.950 . S
H561 C590 0.950 . S
H562 C592 0.950 . S
H563 C593 0.950 . S
C564 H546 0.951 . S
C564 C565 1.366 . S
C564 C566 1.388 . S
C565 C564 1.366 . S
C565 C569 1.385 . S
C566 H547 0.951 . S
C566 C564 1.388 . S
C566 C567 1.366 . S
C567 C566 1.366 . S
C567 C568 1.414 . S
C567 C570 1.499 . S
C568 H548 0.950 . S
C568 C567 1.414 . S
C568 C569 1.374 . S
C569 H549 0.950 . S
C569 C565 1.385 . S
C569 C568 1.374 . S
C570 C567 1.499 . S
C570 C571 1.373 . S
C570 C572 1.389 1_554 S
C571 H550 0.950 . S
C571 C570 1.373 . S
C571 C587 1.377 . S
C572 C570 1.389 1_556 S
C572 C573 1.524 . S
C572 C586 1.377 . S
C573 C572 1.524 . S
C573 C574 1.397 1_556 S
C573 C578 1.363 . S
C574 H551 0.950 . S
C574 C573 1.397 1_554 S
C574 C575 1.334 . S
C575 H552 0.950 . S
C575 C574 1.334 . S
C575 C576 1.287 1_554 S
C576 C575 1.287 1_556 S
C576 C577 1.524 . S
C576 H595 0.913 . S
C577 H553 0.950 . S
C577 C576 1.524 . S
C577 C578 1.415 . S
C578 H554 0.950 . S
C578 C573 1.363 . S
C578 C577 1.415 . S
C579 H555 0.951 . S
C579 C580 1.366 . S
C579 C581 1.388 . S
C580 C579 1.366 . S
C580 C584 1.385 . S
C581 H556 0.951 . S
C581 C579 1.388 . S
C581 C582 1.366 . S
C582 C581 1.366 . S
C582 C583 1.414 . S
C582 C585 1.499 . S
C583 H557 0.950 . S
C583 C582 1.414 . S
C583 C584 1.374 . S
C584 H558 0.950 . S
C584 C580 1.385 . S
C584 C583 1.374 . S
C585 C582 1.499 . S
C585 C586 1.373 . S
C585 C587 1.389 1_556 S
C586 H559 0.950 . S
C586 C572 1.377 . S
C586 C585 1.373 . S
C587 C571 1.377 . S
C587 C585 1.389 1_554 S
C587 C588 1.524 . S
C588 C587 1.524 . S
C588 C589 1.397 1_554 S
C588 C593 1.363 . S
C589 H560 0.950 . S
C589 C588 1.397 1_556 S
C589 C590 1.334 . S
C590 H561 0.950 . S
C590 C589 1.334 . S
C590 C591 1.287 1_556 S
C591 C590 1.287 1_554 S
C591 C592 1.524 . S
C591 H594 0.999 . S
C592 H562 0.950 . S
C592 C591 1.524 . S
C592 C593 1.415 . S
C593 H563 0.950 . S
C593 C588 1.363 . S
C593 C592 1.415 . S
H594 C591 0.999 . S
H595 C576 0.913 . S
H596 C614 0.951 . S
H597 C616 0.951 . S
H598 C618 0.950 . S
H599 C619 0.950 . S
H600 C621 0.950 . S
H601 C624 0.950 . S
H602 C625 0.950 . S
H603 C627 0.950 . S
H604 C628 0.950 . S
H605 C629 0.951 . S
H606 C631 0.951 . S
H607 C633 0.950 . S
H608 C634 0.950 . S
H609 C636 0.950 . S
H610 C639 0.950 . S
H611 C640 0.950 . S
H612 C642 0.950 . S
H613 C643 0.950 . S
C614 H596 0.951 . S
C614 C615 1.366 . S
C614 C616 1.388 . S
C615 C614 1.366 . S
C615 C619 1.385 . S
C616 H597 0.951 . S
C616 C614 1.388 . S
C616 C617 1.366 . S
C617 C616 1.366 . S
C617 C618 1.414 . S
C617 C620 1.499 . S
C618 H598 0.950 . S
C618 C617 1.414 . S
C618 C619 1.374 . S
C619 H599 0.950 . S
C619 C615 1.385 . S
C619 C618 1.374 . S
C620 C617 1.499 . S
C620 C621 1.373 1_556 S
C620 C622 1.389 1_565 S
C621 H600 0.950 . S
C621 C620 1.373 1_554 S
C621 C637 1.377 . S
C622 C620 1.389 1_545 S
C622 C623 1.524 . S
C622 C636 1.377 . S
C623 C622 1.524 . S
C623 C624 1.397 . S
C623 C628 1.363 . S
C624 H601 0.950 . S
C624 C623 1.397 . S
C624 C625 1.334 . S
C625 H602 0.950 . S
C625 C624 1.334 . S
C625 C626 1.287 . S
C626 C625 1.287 . S
C626 C627 1.524 . S
C626 H645 0.913 . S
C627 H603 0.950 . S
C627 C626 1.524 . S
C627 C628 1.415 . S
C628 H604 0.950 . S
C628 C623 1.363 . S
C628 C627 1.415 . S
C629 H605 0.951 . S
C629 C630 1.366 . S
C629 C631 1.388 . S
C630 C629 1.366 . S
C630 C634 1.385 . S
C631 H606 0.951 . S
C631 C629 1.388 . S
C631 C632 1.366 . S
C632 C631 1.366 . S
C632 C633 1.414 . S
C632 C635 1.499 . S
C633 H607 0.950 . S
C633 C632 1.414 . S
C633 C634 1.374 . S
C634 H608 0.950 . S
C634 C630 1.385 . S
C634 C633 1.374 . S
C635 C632 1.499 . S
C635 C636 1.373 1_554 S
C635 C637 1.389 1_545 S
C636 H609 0.950 . S
C636 C622 1.377 . S
C636 C635 1.373 1_556 S
C637 C621 1.377 . S
C637 C635 1.389 1_565 S
C637 C638 1.524 . S
C638 C637 1.524 . S
C638 C639 1.397 . S
C638 C643 1.363 . S
C639 H610 0.950 . S
C639 C638 1.397 . S
C639 C640 1.334 . S
C640 H611 0.950 . S
C640 C639 1.334 . S
C640 C641 1.287 . S
C641 C640 1.287 . S
C641 C642 1.524 . S
C641 H644 0.999 . S
C642 H612 0.950 . S
C642 C641 1.524 . S
C642 C643 1.415 . S
C643 H613 0.950 . S
C643 C638 1.363 . S
C643 C642 1.415 . S
H644 C641 0.999 . S
H645 C626 0.913 . S
H646 C664 0.951 . S
H647 C666 0.951 . S
H648 C668 0.950 . S
H649 C669 0.950 . S
H650 C671 0.950 . S
H651 C674 0.950 . S
H652 C675 0.950 . S
H653 C677 0.950 . S
H654 C678 0.950 . S
H655 C679 0.951 . S
H656 C681 0.951 . S
H657 C683 0.950 . S
H658 C684 0.950 . S
H659 C686 0.950 . S
H660 C689 0.950 . S
H661 C690 0.950 . S
H662 C692 0.950 . S
H663 C693 0.950 . S
C664 H646 0.951 . S
C664 C665 1.366 . S
C664 C666 1.388 . S
C665 C664 1.366 . S
C665 C669 1.385 . S
C666 H647 0.951 . S
C666 C664 1.388 . S
C666 C667 1.366 . S
C667 C666 1.366 . S
C667 C668 1.414 . S
C667 C670 1.499 . S
C668 H648 0.950 . S
C668 C667 1.414 . S
C668 C669 1.374 . S
C669 H649 0.950 . S
C669 C665 1.385 . S
C669 C668 1.374 . S
C670 C667 1.499 . S
C670 C671 1.373 1_556 S
C670 C672 1.389 1_455 S
C671 H650 0.950 . S
C671 C670 1.373 1_554 S
C671 C687 1.377 . S
C672 C670 1.389 1_655 S
C672 C673 1.524 . S
C672 C686 1.377 . S
C673 C672 1.524 . S
C673 C674 1.397 1_655 S
C673 C678 1.363 . S
C674 H651 0.950 . S
C674 C673 1.397 1_455 S
C674 C675 1.334 . S
C675 H652 0.950 . S
C675 C674 1.334 . S
C675 C676 1.287 1_455 S
C676 C675 1.287 1_655 S
C676 C677 1.524 . S
C676 H695 0.913 . S
C677 H653 0.950 . S
C677 C676 1.524 . S
C677 C678 1.415 . S
C678 H654 0.950 . S
C678 C673 1.363 . S
C678 C677 1.415 . S
C679 H655 0.951 . S
C679 C680 1.366 . S
C679 C681 1.388 . S
C680 C679 1.366 . S
C680 C684 1.385 . S
C681 H656 0.951 . S
C681 C679 1.388 . S
C681 C682 1.366 . S
C682 C681 1.366 . S
C682 C683 1.414 . S
C682 C685 1.499 . S
C683 H657 0.950 . S
C683 C682 1.414 . S
C683 C684 1.374 . S
C684 H658 0.950 . S
C684 C680 1.385 . S
C684 C683 1.374 . S
C685 C682 1.499 . S
C685 C686 1.373 1_554 S
C685 C687 1.389 1_655 S
C686 H659 0.950 . S
C686 C672 1.377 . S
C686 C685 1.373 1_556 S
C687 C671 1.377 . S
C687 C685 1.389 1_455 S
C687 C688 1.524 . S
C688 C687 1.524 . S
C688 C689 1.397 1_455 S
C688 C693 1.363 . S
C689 H660 0.950 . S
C689 C688 1.397 1_655 S
C689 C690 1.334 . S
C690 H661 0.950 . S
C690 C689 1.334 . S
C690 C691 1.287 1_655 S
C691 C690 1.287 1_455 S
C691 C692 1.524 . S
C691 H694 0.999 . S
C692 H662 0.950 . S
C692 C691 1.524 . S
C692 C693 1.415 . S
C693 H663 0.950 . S
C693 C688 1.363 . S
C693 C692 1.415 . S
H694 C691 0.999 . S
H695 C676 0.913 . S
C115 C18 0.661 . S
C130 C22 0.661 . S
C165 C54 0.661 . S
C180 C50 0.661 . S
C215 C86 0.663 . S
C230 C82 0.663 . S
C265 C85 2.691 . S
C280 C17 2.690 . S
C315 C87 0.786 . S
C330 C19 0.784 . S
C365 C84 1.726 . S
C380 C16 1.726 . S
C415 C49 2.691 . S
C430 C21 2.693 . S
C465 C51 0.784 . S
C480 C23 0.786 . S
C515 C48 1.727 . S
C530 C20 1.726 . S
C565 C53 2.691 . S
C580 C81 2.691 . S
C615 C83 0.783 . S
C630 C55 0.783 . S
C665 C80 1.726 . S
C680 C52 1.726 . S
