# Generated by pormake.
# Topology qtz-e, (6)-cn, num edge types: 1
# Building blocks:
#     Node 0, Type 0, BuildingBlock: KUMJIN_clean_sbu_1, # of connection points: 6
#     Node 1, Type 0, BuildingBlock: KUMJIN_clean_sbu_1, # of connection points: 6
#     Node 2, Type 0, BuildingBlock: KUMJIN_clean_sbu_1, # of connection points: 6
#     Node 3, Type 0, BuildingBlock: KUMJIN_clean_sbu_1, # of connection points: 6
#     Node 4, Type 0, BuildingBlock: KUMJIN_clean_sbu_1, # of connection points: 6
#     Node 5, Type 0, BuildingBlock: KUMJIN_clean_sbu_1, # of connection points: 6
#     Edge 6, Type (0, 0), BuildingBlock: KIFKEQ_clean_linker_1, # of connection points: 2
#     Edge 7, Type (0, 0), BuildingBlock: KIFKEQ_clean_linker_1, # of connection points: 2
#     Edge 8, Type (0, 0), BuildingBlock: KIFKEQ_clean_linker_1, # of connection points: 2
#     Edge 9, Type (0, 0), BuildingBlock: KIFKEQ_clean_linker_1, # of connection points: 2
#     Edge 10, Type (0, 0), BuildingBlock: KIFKEQ_clean_linker_1, # of connection points: 2
#     Edge 11, Type (0, 0), BuildingBlock: KIFKEQ_clean_linker_1, # of connection points: 2
#     Edge 12, Type (0, 0), BuildingBlock: KIFKEQ_clean_linker_1, # of connection points: 2
#     Edge 13, Type (0, 0), BuildingBlock: KIFKEQ_clean_linker_1, # of connection points: 2
#     Edge 14, Type (0, 0), BuildingBlock: KIFKEQ_clean_linker_1, # of connection points: 2
#     Edge 15, Type (0, 0), BuildingBlock: KIFKEQ_clean_linker_1, # of connection points: 2
#     Edge 16, Type (0, 0), BuildingBlock: KIFKEQ_clean_linker_1, # of connection points: 2
#     Edge 17, Type (0, 0), BuildingBlock: KIFKEQ_clean_linker_1, # of connection points: 2
#     Edge 18, Type (0, 0), BuildingBlock: KIFKEQ_clean_linker_1, # of connection points: 2
#     Edge 19, Type (0, 0), BuildingBlock: KIFKEQ_clean_linker_1, # of connection points: 2
#     Edge 20, Type (0, 0), BuildingBlock: KIFKEQ_clean_linker_1, # of connection points: 2
#     Edge 21, Type (0, 0), BuildingBlock: KIFKEQ_clean_linker_1, # of connection points: 2
#     Edge 22, Type (0, 0), BuildingBlock: KIFKEQ_clean_linker_1, # of connection points: 2
#     Edge 23, Type (0, 0), BuildingBlock: KIFKEQ_clean_linker_1, # of connection points: 2
# Relax obj value: 0.150
# Max RMSD: 0.212
# Mean RMSD: 0.212
data_MOF--net-qtz-e--node1-KUMJIN_clean_sbu_1--edge1-KIFKEQ_clean_linker_1
_symmetry_space_group_name_H-M    P1
_symmetry_Int_Tables_number       1
_symmetry_cell_setting            triclinic
loop_
_symmetry_equiv_pos_as_xyz
'x, y, z'
_cell_length_a     28.494118
_cell_length_b     28.55435
_cell_length_c     49.380255
_cell_angle_alpha  90.374812
_cell_angle_beta   90.265253
_cell_angle_gamma 120.07902
loop_
_atom_site_label
_atom_site_type_symbol
_atom_site_fract_x
_atom_site_fract_y
_atom_site_fract_z
_atom_type_partial_charge
Eu0 Eu 0.17736 0.3476 0.98999 0.0
C1 C 0.36762 0.58224 0.03181 0.0
N2 N 0.34962 0.53424 0.04457 0.0
C3 C 0.44039 0.56031 0.05806 0.0
C4 C 0.42343 0.62082 0.03115 0.0
C5 C 0.38476 0.52315 0.058 0.0
C6 C 0.45992 0.6091 0.04432 0.0
C7 C 0.34769 0.64223 0.00581 0.0
C8 C 0.33011 0.59289 0.01933 0.0
C9 C 0.40329 0.68052 0.00495 0.0
C10 C 0.44104 0.66985 0.01757 0.0
Eu11 Eu 0.25532 0.47398 0.04312 0.0
N12 N 0.27658 0.5543 0.01973 0.0
C13 C 0.30886 0.65154 0.99345 0.0
C14 C 0.23847 0.56397 0.00848 0.0
C15 C 0.25401 0.6124 0.99497 0.0
H16 H 0.3695 0.48586 0.06908 0.0
H17 H 0.22363 0.61957 0.98581 0.0
H18 H 0.04824 0.31543 0.98477 0.0
H19 H 0.26556 0.22972 0.03108 0.0
H20 H 0.19609 0.53468 0.00986 0.0
H21 H 0.32075 0.68895 0.98288 0.0
H22 H 0.26622 0.30324 0.00569 0.0
H23 H 0.46811 0.55137 0.06879 0.0
H24 H 0.41753 0.71858 0.9946 0.0
H25 H 0.48377 0.69989 0.0168 0.0
H26 H 0.95783 0.24171 -0.00142 0.0
H27 H 0.50311 0.6377 0.04431 0.0
H28 H 0.1798 0.15656 0.04962 0.0
N29 N 0.09011 0.27819 0.00143 0.0
C30 C 0.0868 0.23524 0.01482 0.0
C31 C 0.99377 0.23943 0.00327 0.0
C32 C 0.03622 0.19257 0.02325 0.0
C33 C 0.04482 0.28099 0.99549 0.0
C34 C 0.98943 0.19505 0.01725 0.0
N35 N 0.18278 0.27703 0.01255 0.0
C36 C 0.22899 0.27404 0.015 0.0
C37 C 0.13194 0.19063 0.03462 0.0
C38 C 0.1344 0.23486 0.02074 0.0
C39 C 0.18001 0.18982 0.03908 0.0
C40 C 0.22855 0.23123 0.0288 0.0
H41 H 0.94981 0.16302 0.02337 0.0
H42 H 0.99545 0.11603 0.04422 0.0
H43 H 0.07913 0.11407 0.05397 0.0
O44 O 0.21047 0.32743 0.95488 0.0
O45 O 0.14318 0.34048 0.03211 0.0
O46 O 0.22208 0.387 0.05608 0.0
O47 O 0.12843 0.3123 0.95329 0.0
O48 O 0.2694 0.38674 0.99568 0.0
O49 O 0.28123 0.41123 0.04049 0.0
O50 O 0.21197 0.49597 0.07215 0.0
O51 O 0.28486 0.48937 -0.00036 0.0
O52 O 0.20628 0.43294 0.97725 0.0
O53 O 0.29016 0.50566 0.08297 0.0
O54 O 0.16663 0.44617 0.03377 0.0
O55 O 0.14184 0.40402 0.99122 0.0
C56 C 0.17001 0.3521 0.05501 0.0
C57 C 0.14859 0.25384 0.92787 0.0
C58 C 0.16049 0.20261 0.89124 0.0
C59 C 0.11922 0.15449 0.90263 0.0
C60 C 0.1079 0.20537 0.93896 0.0
C61 C 0.09329 0.15601 0.92631 0.0
C62 C 0.17482 0.25226 0.90413 0.0
C63 C 0.30006 0.40368 0.01768 0.0
C64 C 0.16544 0.30639 0.94101 0.0
C65 C 0.03394 0.14915 0.03753 0.0
C66 C 0.08164 0.14816 0.04317 0.0
C67 C 0.25729 0.47026 0.977 0.0
C68 C 0.22723 0.48466 0.11779 0.0
C69 C 0.2016 0.49672 0.16297 0.0
C70 C 0.19053 0.44435 0.16965 0.0
C71 C 0.21775 0.43316 0.12481 0.0
C72 C 0.21848 0.51582 0.13669 0.0
C73 C 0.1985 0.41272 0.15055 0.0
C74 C 0.13421 0.4284 0.01234 0.0
C75 C 0.24808 0.50786 0.09125 0.0
H76 H 0.1065 0.11564 0.8931 0.0
H77 H 0.08748 0.20562 0.95734 0.0
H78 H 0.06168 0.11873 0.93487 0.0
H79 H 0.20707 0.2898 0.89602 0.0
H80 H 0.17776 0.42869 0.18985 0.0
H81 H 0.22602 0.40933 0.11059 0.0
H82 H 0.22608 0.55568 0.13105 0.0
H83 H 0.19111 0.37292 0.15595 0.0
Eu84 Eu 0.8274 0.17863 0.32216 0.0
C85 C 0.72515 0.32082 0.35422 0.0
N86 N 0.77468 0.32989 0.36225 0.0
C87 C 0.81415 0.4244 0.35276 0.0
C88 C 0.71892 0.363 0.34346 0.0
C89 C 0.81832 0.38118 0.36314 0.0
C90 C 0.76446 0.41505 0.34232 0.0
C91 C 0.6278 0.26061 0.35209 0.0
C92 C 0.68016 0.27018 0.35858 0.0
C93 C 0.62179 0.30129 0.3395 0.0
C94 C 0.66724 0.35244 0.33528 0.0
Eu95 Eu 0.77813 0.25455 0.37901 0.0
N96 N 0.68706 0.23223 0.3716 0.0
C97 C 0.58286 0.21156 0.35981 0.0
C98 C 0.64334 0.18746 0.38198 0.0
C99 C 0.59067 0.17542 0.37543 0.0
H100 H 0.85641 0.38837 0.37148 0.0
H101 H 0.55618 0.13874 0.3828 0.0
H102 H 0.71971 0.05404 0.31311 0.0
H103 H 0.03088 0.24211 0.36121 0.0
H104 H 0.6489 0.16074 0.39531 0.0
H105 H 0.54198 0.20259 0.35513 0.0
H106 H 0.95782 0.2557 0.34386 0.0
H107 H 0.84919 0.46476 0.35278 0.0
H108 H 0.58192 0.29438 0.33406 0.0
H109 H 0.66172 0.38411 0.32658 0.0
H110 H 0.69829 0.95912 0.31702 0.0
H111 H 0.76126 0.44857 0.33429 0.0
H112 H 0.01618 0.14957 0.36583 0.0
N113 N 0.80111 0.08685 0.32682 0.0
C114 C 0.84089 0.07679 0.33497 0.0
C115 C 0.73843 0.99184 0.32226 0.0
C116 C 0.83046 0.02323 0.33733 0.0
C117 C 0.75051 0.04559 0.32032 0.0
C118 C 0.77853 0.9806 0.33081 0.0
N119 N 0.90048 0.17153 0.34008 0.0
C120 C 0.94993 0.21502 0.3464 0.0
C121 C 0.93328 0.11077 0.35106 0.0
C122 C 0.89202 0.12023 0.3416 0.0
C123 C 0.98353 0.1552 0.35838 0.0
C124 C 0.9919 0.2075 0.35594 0.0
H125 H 0.76898 0.9389 0.33233 0.0
H126 H 0.86449 0.97295 0.34833 0.0
H127 H 0.95425 0.04947 0.36049 0.0
O128 O 0.8811 0.21634 0.28764 0.0
O129 O 0.83073 0.1565 0.36666 0.0
O130 O 0.78524 0.18549 0.39569 0.0
O131 O 0.81112 0.13657 0.28312 0.0
O132 O 0.88342 0.26868 0.32859 0.0
O133 O 0.86296 0.26913 0.37265 0.0
O134 O 0.74469 0.25852 0.41835 0.0
O135 O 0.79811 0.28866 0.33634 0.0
O136 O 0.77011 0.20972 0.31353 0.0
O137 O 0.83083 0.31212 0.41017 0.0
O138 O 0.72334 0.1635 0.37103 0.0
O139 O 0.73642 0.14622 0.32633 0.0
C140 C 0.81021 0.15817 0.39045 0.0
C141 C 0.88889 0.15588 0.25754 0.0
C142 C 0.95451 0.1704 0.22223 0.0
C143 C 0.95697 0.12527 0.2315 0.0
C144 C 0.89089 0.11001 0.26597 0.0
C145 C 0.92495 0.09506 0.2531 0.0
C146 C 0.92022 0.18549 0.23534 0.0
C147 C 0.89206 0.29479 0.35166 0.0
C148 C 0.85532 0.17388 0.27197 0.0
C149 C 0.87182 0.01385 0.34637 0.0
C150 C 0.92298 0.05745 0.35327 0.0
C151 C 0.78534 0.26112 0.31352 0.0
C152 C 0.79906 0.32074 0.45472 0.0
C153 C 0.76277 0.32689 0.49857 0.0
C154 C 0.81505 0.36753 0.50655 0.0
C155 C 0.85082 0.36152 0.46317 0.0
C156 C 0.7551 0.30329 0.4726 0.0
C157 C 0.85866 0.38457 0.48897 0.0
C158 C 0.70612 0.13535 0.34819 0.0
C159 C 0.79137 0.29672 0.42735 0.0
H160 H 0.98289 0.11277 0.22166 0.0
H161 H 0.8662 0.08564 0.28244 0.0
H162 H 0.92645 0.05985 0.25988 0.0
H163 H 0.91855 0.22067 0.22854 0.0
H164 H 0.82232 0.38587 0.52653 0.0
H165 H 0.88534 0.37563 0.44987 0.0
H166 H 0.71489 0.27215 0.46621 0.0
H167 H 0.89874 0.41583 0.49535 0.0
Eu168 Eu 0.64907 0.83077 0.65051 0.0
C169 C 0.42378 0.78885 0.72217 0.0
N170 N 0.47789 0.82456 0.72421 0.0
C171 C 0.46013 0.89579 0.73569 0.0
C172 C 0.38563 0.80603 0.72569 0.0
C173 C 0.49633 0.87675 0.73206 0.0
C174 C 0.40457 0.86051 0.73204 0.0
C175 C 0.3506 0.69634 0.71534 0.0
C176 C 0.40636 0.73454 0.71738 0.0
C177 C 0.31252 0.71352 0.71822 0.0
C178 C 0.32998 0.7682 0.72341 0.0
Eu179 Eu 0.53561 0.78826 0.71932 0.0
N180 N 0.44424 0.71929 0.7142 0.0
C181 C 0.33484 0.642 0.71053 0.0
C182 C 0.4292 0.66621 0.71031 0.0
C183 C 0.37431 0.62686 0.70816 0.0
H184 H 0.53886 0.90316 0.73644 0.0
H185 H 0.36247 0.58486 0.70477 0.0
H186 H 0.68619 0.7391 0.6418 0.0
H187 H 0.77093 0.0465 0.67838 0.0
H188 H 0.45944 0.65416 0.70882 0.0
H189 H 0.29235 0.61139 0.70884 0.0
H190 H 0.68876 0.96405 0.66437 0.0
H191 H 0.47504 0.93735 0.74183 0.0
H192 H 0.26945 0.68478 0.71667 0.0
H193 H 0.30009 0.78071 0.72594 0.0
H194 H 0.77002 0.73309 0.64396 0.0
H195 H 0.3766 0.87532 0.73501 0.0
H196 H 0.8573 0.04677 0.68365 0.0
N197 N 0.72643 0.82209 0.65315 0.0
C198 C 0.77391 0.86732 0.65967 0.0
C199 C 0.77162 0.771 0.64851 0.0
C200 C 0.82249 0.86576 0.66134 0.0
C201 C 0.7244 0.77441 0.64732 0.0
C202 C 0.82089 0.81684 0.65561 0.0
N203 N 0.72561 0.9148 0.66373 0.0
C204 C 0.72486 0.96186 0.6676 0.0
C205 C 0.8221 0.9621 0.67279 0.0
C206 C 0.77339 0.91478 0.66546 0.0
C207 C 0.82078 0.00962 0.67795 0.0
C208 C 0.77206 0.00956 0.67512 0.0
H209 H 0.8574 0.81404 0.65662 0.0
H210 H 0.90861 0.91236 0.67022 0.0
H211 H 0.90833 0.99672 0.68018 0.0
O212 O 0.66569 0.87301 0.61198 0.0
O213 O 0.68073 0.81427 0.68933 0.0
O214 O 0.62412 0.8349 0.70913 0.0
O215 O 0.63532 0.78685 0.61212 0.0
O216 O 0.60744 0.88126 0.6582 0.0
O217 O 0.59218 0.8752 0.70461 0.0
O218 O 0.52985 0.7398 0.75474 0.0
O219 O 0.48553 0.76616 0.68047 0.0
O220 O 0.56598 0.79571 0.66599 0.0
O221 O 0.5497 0.82295 0.75984 0.0
O222 O 0.55678 0.72435 0.70442 0.0
O223 O 0.59656 0.73991 0.6603 0.0
C224 C 0.65855 0.81763 0.7117 0.0
C225 C 0.69508 0.83847 0.57651 0.0
C226 C 0.74676 0.88858 0.53683 0.0
C227 C 0.76906 0.8544 0.53531 0.0
C228 C 0.718 0.80504 0.57459 0.0
C229 C 0.75493 0.81324 0.55414 0.0
C230 C 0.70997 0.88031 0.55775 0.0
C231 C 0.59035 0.89438 0.68049 0.0
C232 C 0.65516 0.83048 0.59756 0.0
C233 C 0.87084 0.91274 0.6688 0.0
C234 C 0.87064 0.96075 0.67452 0.0
C235 C 0.51533 0.7764 0.65929 0.0
C236 C 0.48573 0.75965 0.78969 0.0
C237 C 0.41589 0.69129 0.81821 0.0
C238 C 0.39113 0.72318 0.82017 0.0
C239 C 0.46099 0.79152 0.79253 0.0
C240 C 0.46312 0.70967 0.8028 0.0
C241 C 0.41372 0.77302 0.80741 0.0
C242 C 0.57201 0.70926 0.68193 0.0
C243 C 0.53232 0.77652 0.77152 0.0
H244 H 0.79662 0.85863 0.51926 0.0
H245 H 0.70727 0.77246 0.58871 0.0
H246 H 0.77225 0.78715 0.55267 0.0
H247 H 0.69286 0.90656 0.55965 0.0
H248 H 0.35526 0.71046 0.83233 0.0
H249 H 0.47765 0.83062 0.78308 0.0
H250 H 0.48197 0.68495 0.8008 0.0
H251 H 0.39481 0.79764 0.80927 0.0
Eu252 Eu 0.82671 0.64657 0.98387 0.0
C253 C 0.67814 0.40029 0.03407 0.0
N254 N 0.67395 0.44464 0.03978 0.0
C255 C 0.57733 0.39249 0.03484 0.0
C256 C 0.63186 0.3506 0.02706 0.0
C257 C 0.62443 0.4408 0.04171 0.0
C258 C 0.58115 0.34739 0.02701 0.0
C259 C 0.73389 0.35844 0.03155 0.0
C260 C 0.72867 0.40444 0.03618 0.0
C261 C 0.68838 0.30946 0.02325 0.0
C262 C 0.63747 0.30554 0.02103 0.0
Eu263 Eu 0.75547 0.52562 0.04941 0.0
N264 N 0.77177 0.45216 0.04469 0.0
C265 C 0.78417 0.36242 0.03647 0.0
C266 C 0.81908 0.45438 0.05215 0.0
C267 C 0.82661 0.41028 0.04737 0.0
H268 H 0.62166 0.47523 0.04835 0.0
H269 H 0.86483 0.41294 0.05256 0.0
H270 H 0.95075 0.66498 0.9735 0.0
H271 H 0.76312 0.79183 0.01276 0.0
H272 H 0.85104 0.48977 0.06219 0.0
H273 H 0.78987 0.32807 0.03312 0.0
H274 H 0.75043 0.70128 0.00448 0.0
H275 H 0.53819 0.39001 0.03572 0.0
H276 H 0.6918 0.27392 0.01932 0.0
H277 H 0.60248 0.26711 0.01533 0.0
H278 H 0.04471 0.74152 0.96969 0.0
H279 H 0.5446 0.30991 0.02177 0.0
H280 H 0.85372 0.87295 0.00769 0.0
N281 N 0.91773 0.7155 0.98224 0.0
C282 C 0.92697 0.76679 0.98558 0.0
C283 C 0.01198 0.74911 0.97424 0.0
C284 C 0.97976 0.81157 0.98335 0.0
C285 C 0.95894 0.70589 0.97664 0.0
C286 C 0.02243 0.80217 0.97752 0.0
N287 N 0.83348 0.73012 0.99552 0.0
C288 C 0.79042 0.73591 0.00258 0.0
C289 C 0.89254 0.82703 0.99667 0.0
C290 C 0.88367 0.77437 0.99223 0.0
C291 C 0.84856 0.83315 0.00412 0.0
C292 C 0.79737 0.78741 0.00711 0.0
H293 H 0.06359 0.83554 0.97563 0.0
H294 H 0.02866 0.89902 0.98548 0.0
H295 H 0.95242 0.91255 -0.0029 0.0
O296 O 0.78308 0.65207 0.94848 0.0
O297 O 0.86662 0.68861 0.02391 0.0
O298 O 0.8066 0.60926 0.03557 0.0
O299 O 0.85702 0.64995 0.94294 0.0
O300 O 0.73694 0.61273 0.99458 0.0
O301 O 0.73143 0.58917 0.03973 0.0
O302 O 0.7752 0.51693 0.09142 0.0
O303 O 0.71304 0.49637 0.00867 0.0
O304 O 0.79014 0.5563 0.98899 0.0
O305 O 0.7114 0.53462 0.08291 0.0
O306 O 0.84625 0.56031 0.03946 0.0
O307 O 0.86307 0.59149 0.99396 0.0
C308 C 0.84593 0.65597 0.04393 0.0
C309 C 0.84005 0.7046 0.91288 0.0
C310 C 0.82234 0.75174 0.87642 0.0
C311 C 0.87631 0.79438 0.8788 0.0
C312 C 0.89382 0.74768 0.91457 0.0
C313 C 0.91162 0.79224 0.89771 0.0
C314 C 0.80449 0.70669 0.8936 0.0
C315 C 0.70864 0.59259 0.01703 0.0
C316 C 0.82051 0.65816 0.93149 0.0
C317 C 0.9884 0.86409 0.98725 0.0
C318 C 0.94494 0.87179 0.99387 0.0
C319 C 0.73896 0.51955 0.98648 0.0
C320 C 0.69717 0.47615 0.11947 0.0
C321 C 0.68335 0.41412 0.15644 0.0
C322 C 0.62716 0.39429 0.15469 0.0
C323 C 0.64078 0.45546 0.1181 0.0
C324 C 0.71813 0.45528 0.13871 0.0
C325 C 0.60617 0.41477 0.13559 0.0
C326 C 0.87403 0.57205 0.01634 0.0
C327 C 0.73414 0.51964 0.10113 0.0
H328 H 0.89165 0.82912 0.86564 0.0
H329 H 0.92235 0.74707 0.92885 0.0
H330 H 0.95312 0.82518 0.8992 0.0
H331 H 0.76292 0.67369 0.89224 0.0
H332 H 0.59934 0.36349 0.16838 0.0
H333 H 0.6232 0.4707 0.1036 0.0
H334 H 0.76147 0.47074 0.13964 0.0
H335 H 0.56289 0.39928 0.13446 0.0
Eu336 Eu 0.1784 0.82037 0.32437 0.0
C337 C 0.23667 0.64758 0.37316 0.0
N338 N 0.20768 0.66685 0.38608 0.0
C339 C 0.14705 0.57872 0.40344 0.0
C340 C 0.22105 0.59235 0.37451 0.0
C341 C 0.16418 0.63384 0.40157 0.0
C342 C 0.17537 0.55779 0.3897 0.0
C343 C 0.31256 0.66426 0.34454 0.0
C344 C 0.28192 0.68312 0.3583 0.0
C345 C 0.29696 0.60921 0.34576 0.0
C346 C 0.25131 0.57337 0.36066 0.0
Eu347 Eu 0.23784 0.75945 0.38044 0.0
N348 N 0.29476 0.73581 0.35652 0.0
C349 C 0.35784 0.70128 0.32984 0.0
C350 C 0.34002 0.77244 0.34316 0.0
C351 C 0.3719 0.75569 0.32937 0.0
H352 H 0.14284 0.65023 0.41256 0.0
H353 H 0.40735 0.78477 0.31844 0.0
H354 H 0.27769 0.94262 0.30543 0.0
H355 H 0.9886 0.76182 0.37709 0.0
H356 H 0.35159 0.81445 0.34308 0.0
H357 H 0.38246 0.68839 0.319 0.0
H358 H 0.05566 0.74616 0.35381 0.0
H359 H 0.11206 0.55245 0.41547 0.0
H360 H 0.31989 0.59394 0.33522 0.0
H361 H 0.2398 0.53102 0.36139 0.0
H362 H 0.29937 0.03788 0.30853 0.0
H363 H 0.16192 0.51505 0.39114 0.0
H364 H 0.00442 0.85484 0.38227 0.0
N365 N 0.20272 0.91209 0.32595 0.0
C366 C 0.16664 0.92334 0.33801 0.0
C367 C 0.262 0.00606 0.31695 0.0
C368 C 0.1773 0.97707 0.34012 0.0
C369 C 0.2498 0.9522 0.31537 0.0
C370 C 0.22565 0.01858 0.32939 0.0
N371 N 0.11073 0.82964 0.34712 0.0
C372 C 0.06399 0.78702 0.35651 0.0
C373 C 0.08157 0.89171 0.36169 0.0
C374 C 0.11928 0.88102 0.34877 0.0
C375 C 0.0344 0.84829 0.37221 0.0
C376 C 0.02544 0.79573 0.36944 0.0
H377 H 0.23529 0.06038 0.33063 0.0
H378 H 0.14728 0.02877 0.35482 0.0
H379 H 0.06353 0.95414 0.37362 0.0
O380 O 0.1145 0.7728 0.29459 0.0
O381 O 0.19679 0.85709 0.36714 0.0
O382 O 0.17992 0.78633 0.39504 0.0
O383 O 0.17922 0.8523 0.28409 0.0
O384 O 0.12833 0.73072 0.33501 0.0
O385 O 0.14684 0.7242 0.37986 0.0
O386 O 0.3125 0.80693 0.4034 0.0
O387 O 0.21908 0.72181 0.33856 0.0
O388 O 0.23523 0.79183 0.31074 0.0
O389 O 0.24398 0.73879 0.42236 0.0
O390 O 0.28521 0.84847 0.36913 0.0
O391 O 0.27042 0.85713 0.32394 0.0
C392 C 0.18648 0.83468 0.39123 0.0
C393 C 0.09371 0.8213 0.26272 0.0
C394 C 0.02802 0.80169 0.22587 0.0
C395 C 0.01836 0.84192 0.23659 0.0
C396 C 0.08284 0.86074 0.27296 0.0
C397 C 0.04539 0.87091 0.25995 0.0
C398 C 0.06613 0.79172 0.23923 0.0
C399 C 0.11787 0.70309 0.35766 0.0
C400 C 0.1335 0.81053 0.27636 0.0
C401 C 0.13975 0.98772 0.353 0.0
C402 C 0.09205 0.9452 0.36373 0.0
C403 C 0.2251 0.74233 0.31434 0.0
C404 C 0.30397 0.81162 0.45043 0.0
C405 C 0.33956 0.83051 0.49653 0.0
C406 C 0.3294 0.87389 0.49796 0.0
C407 C 0.29481 0.85542 0.45191 0.0
C408 C 0.32623 0.79932 0.47266 0.0
C409 C 0.30701 0.88611 0.47573 0.0
C410 C 0.30246 0.87158 0.34552 0.0
C411 C 0.29299 0.77956 0.42558 0.0
H412 H 0.99052 0.85183 0.22668 0.0
H413 H 0.10349 0.88393 0.2909 0.0
H414 H 0.03756 0.90174 0.26789 0.0
H415 H 0.0741 0.76075 0.23157 0.0
H416 H 0.33874 0.89829 0.51622 0.0
H417 H 0.279 0.86619 0.43457 0.0
H418 H 0.33468 0.76636 0.471 0.0
H419 H 0.29964 0.91976 0.47688 0.0
Eu420 Eu 0.35657 0.18703 0.65478 0.0
C421 C 0.59694 0.28077 0.68094 0.0
N422 N 0.55681 0.23282 0.69056 0.0
C423 C 0.6072 0.18937 0.67828 0.0
C424 C 0.64257 0.28394 0.66814 0.0
C425 C 0.56254 0.18809 0.69061 0.0
C426 C 0.64691 0.23725 0.66654 0.0
C427 C 0.63539 0.37763 0.67606 0.0
C428 C 0.59294 0.327 0.68464 0.0
C429 C 0.67933 0.38039 0.66189 0.0
C430 C 0.6829 0.33366 0.65793 0.0
Eu431 Eu 0.48111 0.23409 0.70924 0.0
N432 N 0.55014 0.32331 0.69862 0.0
C433 C 0.63382 0.42434 0.68318 0.0
C434 C 0.55231 0.36916 0.70851 0.0
C435 C 0.59291 0.42018 0.70015 0.0
H436 H 0.53223 0.15138 0.69986 0.0
H437 H 0.593 0.45626 0.7071 0.0
H438 H 0.33778 0.29223 0.64578 0.0
H439 H 0.22271 0.98837 0.69947 0.0
H440 H 0.52255 0.36664 0.7228 0.0
H441 H 0.6656 0.46396 0.67697 0.0
H442 H 0.30493 0.05746 0.6774 0.0
H443 H 0.61085 0.15343 0.67778 0.0
H444 H 0.71182 0.41883 0.65479 0.0
H445 H 0.71785 0.33671 0.64768 0.0
H446 H 0.2661 0.31554 0.65351 0.0
H447 H 0.68139 0.23809 0.65688 0.0
H448 H 0.14786 0.00584 0.70926 0.0
N449 N 0.29148 0.21317 0.66176 0.0
C450 C 0.24397 0.17547 0.67293 0.0
C451 C 0.25942 0.27607 0.65907 0.0
C452 C 0.20204 0.18702 0.67764 0.0
C453 C 0.29995 0.26292 0.65484 0.0
C454 C 0.21022 0.23795 0.67047 0.0
N455 N 0.28001 0.11641 0.67655 0.0
C456 C 0.27418 0.06716 0.68249 0.0
C457 C 0.18956 0.08662 0.6927 0.0
C458 C 0.23809 0.12587 0.68056 0.0
C459 C 0.18453 0.03704 0.69993 0.0
C460 C 0.22683 0.02715 0.69459 0.0
H461 H 0.17897 0.24835 0.6738 0.0
H462 H 0.1211 0.15605 0.69347 0.0
H463 H 0.11004 0.06816 0.7065 0.0
O464 O 0.33299 0.12911 0.62117 0.0
O465 O 0.34238 0.20668 0.69785 0.0
O466 O 0.39442 0.18321 0.72348 0.0
O467 O 0.32598 0.20049 0.61666 0.0
O468 O 0.3909 0.13069 0.66031 0.0
O469 O 0.4164 0.14615 0.70474 0.0
O470 O 0.50624 0.27213 0.74991 0.0
O471 O 0.49214 0.2135 0.66584 0.0
O472 O 0.4429 0.24199 0.64119 0.0
O473 O 0.50994 0.1995 0.73951 0.0
O474 O 0.44475 0.2889 0.70269 0.0
O475 O 0.41792 0.27717 0.65748 0.0
C476 C 0.35589 0.19538 0.72137 0.0
C477 C 0.26308 0.12134 0.5924 0.0
C478 C 0.2089 0.05657 0.55664 0.0
C479 C 0.16259 0.05632 0.56662 0.0
C480 C 0.21635 0.12047 0.60193 0.0
C481 C 0.16643 0.08803 0.5891 0.0
C482 C 0.25915 0.08933 0.56979 0.0
C483 C 0.40841 0.1184 0.68232 0.0
C484 C 0.31614 0.15472 0.60584 0.0
C485 C 0.15378 0.1479 0.6897 0.0
C486 C 0.14754 0.09788 0.69718 0.0
C487 C 0.48208 0.23075 0.64318 0.0
C488 C 0.5383 0.23384 0.78501 0.0
C489 C 0.58159 0.27732 0.82781 0.0
C490 C 0.58099 0.22982 0.83565 0.0
C491 C 0.53788 0.18662 0.79332 0.0
C492 C 0.55948 0.27899 0.80256 0.0
C493 C 0.5589 0.18466 0.81855 0.0
C494 C 0.43631 0.30718 0.67971 0.0
C495 C 0.51805 0.23574 0.75777 0.0
H496 H 0.12347 0.03227 0.55681 0.0
H497 H 0.21834 0.14491 0.61917 0.0
H498 H 0.13057 0.08769 0.59653 0.0
H499 H 0.29521 0.08955 0.56269 0.0
H500 H 0.59743 0.22761 0.85513 0.0
H501 H 0.52145 0.15115 0.78027 0.0
H502 H 0.56038 0.31576 0.79632 0.0
H503 H 0.55845 0.14816 0.82477 0.0
H504 H 0.19814 0.63663 0.31534 0.0
H505 H 0.23682 0.7686 0.26055 0.0
H506 H 0.18687 0.57792 0.27734 0.0
H507 H 0.22459 0.70876 0.22217 0.0
H508 H 0.27503 0.6033 0.1708 0.0
H509 H 0.27538 0.66372 0.2057 0.0
H510 H 0.12596 0.53371 0.23747 0.0
H511 H 0.12504 0.47286 0.20206 0.0
C512 C 0.20446 0.65328 0.29518 0.0
C513 C 0.21918 0.70758 0.29096 0.0
C514 C 0.19715 0.61925 0.27339 0.0
C515 C 0.20455 0.63877 0.24689 0.0
C516 C 0.21891 0.69292 0.24251 0.0
C517 C 0.22601 0.72709 0.26442 0.0
C518 C 0.24155 0.58779 0.18484 0.0
C519 C 0.19986 0.53336 0.18368 0.0
C520 C 0.24181 0.62247 0.20479 0.0
C521 C 0.20067 0.60334 0.22415 0.0
C522 C 0.15837 0.54921 0.22281 0.0
C523 C 0.15795 0.51444 0.20269 0.0
H524 H 0.53982 0.18095 0.63128 0.0
H525 H 0.50412 0.30201 0.60214 0.0
H526 H 0.60441 0.202 0.5946 0.0
H527 H 0.56737 0.32195 0.56492 0.0
H528 H 0.73826 0.39208 0.52847 0.0
H529 H 0.66673 0.36563 0.56177 0.0
H530 H 0.61075 0.19717 0.54443 0.0
H531 H 0.6834 0.22385 0.5113 0.0
C532 C 0.54583 0.21203 0.617 0.0
C533 C 0.51788 0.24062 0.61984 0.0
C534 C 0.5822 0.22356 0.59579 0.0
C535 C 0.59121 0.26386 0.57695 0.0
C536 C 0.56183 0.29119 0.57934 0.0
C537 C 0.52537 0.27954 0.60052 0.0
C538 C 0.71068 0.34939 0.53175 0.0
C539 C 0.71665 0.31006 0.51741 0.0
C540 C 0.66937 0.33422 0.55063 0.0
C541 C 0.63307 0.27932 0.55572 0.0
C542 C 0.63839 0.23982 0.54108 0.0
C543 C 0.67962 0.25505 0.52197 0.0
H544 H 0.35707 0.5581 0.96847 0.0
H545 H 0.21826 0.4291 0.92667 0.0
H546 H 0.39812 0.59655 0.92534 0.0
H547 H 0.26046 0.46648 0.88332 0.0
H548 H 0.31028 0.61247 0.82416 0.0
H549 H 0.2745 0.5459 0.85996 0.0
H550 H 0.43774 0.58923 0.88366 0.0
H551 H 0.47355 0.65788 0.84863 0.0
C552 C 0.3356 0.53763 0.95006 0.0
C553 C 0.28385 0.49151 0.95092 0.0
C554 C 0.35955 0.55911 0.92528 0.0
C555 C 0.33244 0.53455 0.90087 0.0
C556 C 0.28196 0.48666 0.90179 0.0
C557 C 0.25776 0.46546 0.9266 0.0
C558 C 0.33841 0.60699 0.83671 0.0
C559 C 0.39459 0.64137 0.83423 0.0
C560 C 0.31796 0.56837 0.85703 0.0
C561 C 0.35344 0.56333 0.87506 0.0
C562 C 0.40953 0.59325 0.87045 0.0
C563 C 0.43001 0.63217 0.85022 0.0
H564 H 0.80918 0.36551 0.30602 0.0
H565 H 0.75219 0.21367 0.26358 0.0
H566 H 0.78904 0.40279 0.26661 0.0
H567 H 0.736 0.25213 0.22324 0.0
H568 H 0.64009 0.30909 0.17249 0.0
H569 H 0.67117 0.27434 0.2088 0.0
H570 H 0.80999 0.43394 0.22198 0.0
H571 H 0.7765 0.46953 0.18691 0.0
C572 C 0.79248 0.34014 0.28826 0.0
C573 C 0.78015 0.28601 0.28838 0.0
C574 C 0.78188 0.36185 0.26537 0.0
C575 C 0.76001 0.33023 0.24176 0.0
C576 C 0.75127 0.27716 0.24131 0.0
C577 C 0.76091 0.25519 0.2644 0.0
C578 C 0.67701 0.33693 0.18327 0.0
C579 C 0.70536 0.39225 0.17698 0.0
C580 C 0.69543 0.31678 0.20384 0.0
C581 C 0.74316 0.35127 0.21843 0.0
C582 C 0.77263 0.40631 0.21148 0.0
C583 C 0.7538 0.42661 0.19108 0.0
H584 H 0.41101 0.71463 0.64338 0.0
H585 H 0.56772 0.83457 0.61444 0.0
H586 H 0.36901 0.72377 0.6022 0.0
H587 H 0.52677 0.84261 0.57278 0.0
H588 H 0.42517 0.90265 0.5277 0.0
H589 H 0.46971 0.88307 0.56456 0.0
H590 H 0.35947 0.71177 0.55287 0.0
H591 H 0.31358 0.73145 0.51663 0.0
C592 C 0.43682 0.74176 0.62779 0.0
C593 C 0.49305 0.77375 0.63199 0.0
C594 C 0.41276 0.74689 0.60418 0.0
C595 C 0.44455 0.78436 0.58438 0.0
C596 C 0.50114 0.81383 0.58785 0.0
C597 C 0.52502 0.80848 0.61148 0.0
C598 C 0.4101 0.86087 0.53319 0.0
C599 C 0.36575 0.81863 0.51937 0.0
C600 C 0.43615 0.84959 0.55399 0.0
C601 C 0.41838 0.79583 0.5614 0.0
C602 C 0.37397 0.75357 0.54762 0.0
C603 C 0.34793 0.76485 0.5268 0.0
H604 H 0.78945 0.54068 0.93761 0.0
H605 H 0.63285 0.44764 0.97516 0.0
H606 H 0.75122 0.49348 0.89477 0.0
H607 H 0.59487 0.39987 0.93242 0.0
H608 H 0.53587 0.33467 0.84767 0.0
H609 H 0.57364 0.40547 0.88297 0.0
H610 H 0.72055 0.39649 0.88426 0.0
H611 H 0.68287 0.32624 0.84929 0.0
C612 C 0.74659 0.5112 0.93655 0.0
C613 C 0.71419 0.49764 0.95974 0.0
C614 C 0.72481 0.48396 0.91207 0.0
C615 C 0.67023 0.44275 0.91034 0.0
C616 C 0.63697 0.43175 0.93309 0.0
C617 C 0.65883 0.45881 0.95761 0.0
C618 C 0.57663 0.34886 0.8552 0.0
C619 C 0.60646 0.32499 0.84607 0.0
C620 C 0.59808 0.38903 0.8754 0.0
C621 C 0.64997 0.4064 0.88634 0.0
C622 C 0.68074 0.38443 0.87601 0.0
C623 C 0.65908 0.34395 0.85618 0.0
H624 H 0.36751 0.39407 0.0537 0.0
H625 H 0.36553 0.46271 0.9765 0.0
H626 H 0.46674 0.44088 0.05269 0.0
H627 H 0.4644 0.51118 0.97579 0.0
H628 H 0.64065 0.58107 0.05866 0.0
H629 H 0.54162 0.53246 0.05766 0.0
H630 H 0.54333 0.50227 0.97189 0.0
H631 H 0.64212 0.55172 0.97291 0.0
C632 C 0.38843 0.41879 0.0364 0.0
C633 C 0.35904 0.4252 0.0153 0.0
C634 C 0.4452 0.44612 0.03593 0.0
C635 C 0.47376 0.48062 0.01437 0.0
C636 C 0.44395 0.48486 0.99266 0.0
C637 C 0.38722 0.4571 0.99304 0.0
C638 C 0.61976 0.56468 0.03955 0.0
C639 C 0.64912 0.56968 0.01594 0.0
C640 C 0.56297 0.5363 0.039 0.0
C641 C 0.53426 0.51271 0.01475 0.0
C642 C 0.5639 0.51999 0.99091 0.0
C643 C 0.62063 0.5484 0.99148 0.0
H644 H 0.10107 0.63623 0.315 0.0
H645 H 0.05048 0.6366 0.39712 0.0
H646 H 0.04913 0.5381 0.31373 0.0
H647 H 0.99543 0.5378 0.39557 0.0
H648 H 0.94773 0.35977 0.39476 0.0
H649 H 0.00118 0.45858 0.39602 0.0
H650 H 0.96336 0.46244 0.31139 0.0
H651 H 0.91295 0.36414 0.30998 0.0
C652 C 0.07791 0.61519 0.33266 0.0
C653 C 0.08026 0.64398 0.35626 0.0
C654 C 0.04777 0.55872 0.33192 0.0
C655 C 0.01796 0.52946 0.35459 0.0
C656 C 0.01871 0.55863 0.3779 0.0
C657 C 0.04973 0.61528 0.37875 0.0
C658 C 0.95146 0.38199 0.37644 0.0
C659 C 0.92639 0.35437 0.35229 0.0
C660 C 0.98158 0.43865 0.37717 0.0
C661 C 0.98657 0.46896 0.35385 0.0
C662 C 0.96151 0.44087 0.32967 0.0
C663 C 0.93237 0.38434 0.32883 0.0
H664 H 0.43591 0.08265 0.63695 0.0
H665 H 0.42688 0.06729 0.72402 0.0
H666 H 0.48171 0.02978 0.6349 0.0
H667 H 0.47305 0.01487 0.72194 0.0
H668 H 0.51388 0.88517 0.64455 0.0
H669 H 0.46663 0.93678 0.6439 0.0
H670 H 0.56764 0.03611 0.71021 0.0
H671 H 0.61478 0.98407 0.71076 0.0
C672 C 0.44265 0.06702 0.65559 0.0
C673 C 0.42801 0.07932 0.68067 0.0
C674 C 0.46916 0.03699 0.65442 0.0
C675 C 0.48165 0.0188 0.67829 0.0
C676 C 0.46479 0.02907 0.70324 0.0
C677 C 0.43789 0.05866 0.70441 0.0
C678 C 0.5265 0.91859 0.65865 0.0
C679 C 0.56731 0.93028 0.67797 0.0
C680 C 0.4994 0.94804 0.65834 0.0
C681 C 0.51282 0.9899 0.67731 0.0
C682 C 0.55566 0.00333 0.69572 0.0
C683 C 0.58287 0.97393 0.69594 0.0
H684 H 0.56586 0.64427 0.72346 0.0
H685 H 0.54205 0.64352 0.63708 0.0
H686 H 0.5336 0.54771 0.72192 0.0
H687 H 0.50664 0.54608 0.63553 0.0
H688 H 0.48687 0.37684 0.63834 0.0
H689 H 0.52299 0.47447 0.63823 0.0
H690 H 0.45586 0.46459 0.71783 0.0
H691 H 0.42287 0.3677 0.71828 0.0
C692 C 0.55347 0.62325 0.70412 0.0
C693 C 0.55643 0.65143 0.6804 0.0
C694 C 0.53434 0.56761 0.70322 0.0
C695 C 0.51641 0.53827 0.67866 0.0
C696 C 0.52051 0.56696 0.65482 0.0
C697 C 0.54074 0.62294 0.65566 0.0
C698 C 0.47945 0.39573 0.65563 0.0
C699 C 0.45223 0.36495 0.67834 0.0
C700 C 0.50011 0.45176 0.65561 0.0
C701 C 0.49303 0.47814 0.67813 0.0
C702 C 0.46371 0.44645 0.7004 0.0
C703 C 0.44407 0.3907 0.70059 0.0
H704 H 0.07727 0.43539 0.05447 0.0
H705 H 0.09562 0.45649 0.96803 0.0
H706 H 0.01419 0.46904 0.0544 0.0
H707 H 0.03497 0.49382 0.96793 0.0
H708 H 0.88948 0.52043 0.97375 0.0
H709 H 0.94871 0.48172 0.97188 0.0
H710 H 0.01075 0.54729 0.05181 0.0
H711 H 0.94896 0.58285 0.05401 0.0
C712 C 0.06759 0.44719 0.03538 0.0
C713 C 0.09118 0.44305 0.01124 0.0
C714 C 0.03193 0.46736 0.03535 0.0
C715 C 0.01986 0.48546 0.01125 0.0
C716 C 0.04254 0.47993 0.98691 0.0
C717 C 0.0774 0.45848 0.98689 0.0
C718 C 0.91629 0.52689 0.99076 0.0
C719 C 0.91467 0.55451 0.01406 0.0
C720 C 0.95041 0.50475 0.98972 0.0
C721 C 0.98454 0.51058 0.01179 0.0
C722 C 0.98414 0.54028 0.03467 0.0
C723 C 0.94925 0.56142 0.03588 0.0
H724 H 0.36865 0.90435 0.30099 0.0
H725 H 0.36699 0.93562 0.3865 0.0
H726 H 0.46673 0.96647 0.30041 0.0
H727 H 0.46368 0.99921 0.38583 0.0
H728 H 0.64288 0.06287 0.38617 0.0
H729 H 0.54543 0.00021 0.38401 0.0
H730 H 0.54002 0.05582 0.30339 0.0
H731 H 0.63816 0.1165 0.30532 0.0
C732 C 0.38906 0.92542 0.3195 0.0
C733 C 0.36015 0.91479 0.3438 0.0
C734 C 0.44535 0.96108 0.31923 0.0
C735 C 0.47378 0.98744 0.3432 0.0
C736 C 0.44395 0.97854 0.36713 0.0
C737 C 0.38815 0.94242 0.36747 0.0
C738 C 0.62076 0.06109 0.36792 0.0
C739 C 0.6479 0.09436 0.34593 0.0
C740 C 0.56473 0.02565 0.36672 0.0
C741 C 0.53418 0.02324 0.34365 0.0
C742 C 0.5619 0.0559 0.32139 0.0
C743 C 0.61819 0.09076 0.32246 0.0
H744 H 0.27579 0.22151 0.72584 0.0
H745 H 0.36897 0.16929 0.77306 0.0
H746 H 0.22722 0.22112 0.76628 0.0
H747 H 0.32201 0.17115 0.81375 0.0
H748 H 0.19155 0.12901 0.87716 0.0
H749 H 0.2362 0.12541 0.83593 0.0
H750 H 0.24053 0.27042 0.80771 0.0
H751 H 0.19339 0.27245 0.84833 0.0
C752 C 0.28576 0.20962 0.74478 0.0
C753 C 0.32585 0.19471 0.74601 0.0
C754 C 0.25832 0.21008 0.76812 0.0
C755 C 0.27061 0.19614 0.79339 0.0
C756 C 0.31078 0.18128 0.79461 0.0
C757 C 0.338 0.18053 0.77124 0.0
C758 C 0.20136 0.15977 0.86203 0.0
C759 C 0.18863 0.20094 0.86613 0.0
C760 C 0.22766 0.1581 0.83848 0.0
C761 C 0.24212 0.19765 0.81841 0.0
C762 C 0.22945 0.23887 0.82253 0.0
C763 C 0.20302 0.24046 0.84604 0.0
H764 H 0.06342 0.21461 0.21548 0.0
H765 H 0.91913 0.19416 0.17582 0.0
H766 H 0.11703 0.26173 0.17597 0.0
H767 H 0.97155 0.23826 0.13559 0.0
H768 H 0.08457 0.35763 0.07441 0.0
H769 H 0.03464 0.3184 0.11595 0.0
H770 H 0.13609 0.24847 0.13186 0.0
H771 H 0.18812 0.29145 0.09117 0.0
C772 C 0.04325 0.22007 0.19816 0.0
C773 C 0.98727 0.20096 0.19865 0.0
C774 C 0.0738 0.24664 0.17538 0.0
C775 C 0.04884 0.2537 0.15229 0.0
C776 C 0.99266 0.23469 0.15302 0.0
C777 C 0.96238 0.20911 0.17603 0.0
C778 C 0.09612 0.33408 0.08702 0.0
C779 C 0.14011 0.32766 0.07994 0.0
C780 C 0.06732 0.31115 0.11071 0.0
C781 C 0.08091 0.27984 0.12745 0.0
C782 C 0.12491 0.2731 0.11994 0.0
C783 C 0.15456 0.29729 0.09655 0.0
H784 H 0.84446 0.95173 0.51146 0.0
H785 H 0.68055 0.92342 0.51533 0.0
H786 H 0.8653 0.01928 0.47642 0.0
H787 H 0.70273 0.99281 0.48151 0.0
H788 H 0.78156 0.1597 0.44296 0.0
H789 H 0.7702 0.09734 0.4788 0.0
H790 H 0.82837 0.0167 0.42615 0.0
H791 H 0.83925 0.07883 0.38982 0.0
C792 C 0.81281 0.95962 0.50489 0.0
C793 C 0.76066 0.93169 0.51632 0.0
C794 C 0.82497 0.99854 0.48493 0.0
C795 C 0.78564 0.01113 0.47634 0.0
C796 C 0.73396 0.98416 0.488 0.0
C797 C 0.72145 0.94462 0.50756 0.0
C798 C 0.79224 0.12893 0.43878 0.0
C799 C 0.81047 0.12391 0.41299 0.0
C800 C 0.78564 0.0932 0.45946 0.0
C801 C 0.79779 0.05193 0.45511 0.0
C802 C 0.81875 0.04834 0.42998 0.0
C803 C 0.82489 0.08393 0.4091 0.0
H804 H 0.69238 0.74467 0.71872 0.0
H805 H 0.65132 0.84985 0.7628 0.0
H806 H 0.72214 0.72282 0.76074 0.0
H807 H 0.67811 0.82585 0.80518 0.0
H808 H 0.8118 0.83893 0.86347 0.0
H809 H 0.76292 0.84814 0.82536 0.0
H810 H 0.69983 0.67983 0.80422 0.0
H811 H 0.75091 0.67132 0.84193 0.0
C812 C 0.68841 0.76203 0.73755 0.0
C813 C 0.66887 0.79845 0.73757 0.0
C814 C 0.70503 0.74915 0.76171 0.0
C815 C 0.70272 0.77261 0.78647 0.0
C816 C 0.68103 0.80741 0.78651 0.0
C817 C 0.6647 0.82046 0.7623 0.0
C818 C 0.78733 0.80377 0.85076 0.0
C819 C 0.78594 0.75459 0.85554 0.0
C820 C 0.75865 0.80886 0.82905 0.0
C821 C 0.72753 0.76482 0.8115 0.0
C822 C 0.72399 0.71482 0.81706 0.0
C823 C 0.75279 0.70974 0.83886 0.0
H824 H 0.06726 0.76792 0.18364 0.0
H825 H 0.92268 0.76687 0.2105 0.0
H826 H 0.0218 0.72503 0.14114 0.0
H827 H 0.87862 0.7275 0.16746 0.0
H828 H 0.79614 0.62717 0.09315 0.0
H829 H 0.83848 0.65249 0.1381 0.0
H830 H 0.99501 0.74797 0.10062 0.0
H831 H 0.9525 0.71875 0.05614 0.0
C832 C 0.02568 0.75826 0.18064 0.0
C833 C 0.99906 0.7716 0.20057 0.0
C834 C 0.99974 0.73427 0.156 0.0
C835 C 0.94652 0.72318 0.15049 0.0
C836 C 0.91933 0.73484 0.17083 0.0
C837 C 0.94507 0.75837 0.1955 0.0
C838 C 0.83969 0.65129 0.09473 0.0
C839 C 0.87105 0.66918 0.07128 0.0
C840 C 0.86408 0.6672 0.12045 0.0
C841 C 0.92054 0.70236 0.12325 0.0
C842 C 0.95176 0.72002 0.09954 0.0
C843 C 0.92731 0.7037 0.07395 0.0
H844 H 0.12856 0.95323 0.54418 0.0
H845 H 0.27958 0.08396 0.51426 0.0
H846 H 0.1198 0.89969 0.50385 0.0
H847 H 0.27197 0.02949 0.47447 0.0
H848 H 0.215 0.94156 0.39354 0.0
H849 H 0.21853 0.99426 0.43327 0.0
H850 H 0.16009 0.85178 0.48272 0.0
H851 H 0.15492 0.79866 0.44286 0.0
C852 C 0.15991 0.9706 0.529 0.0
C853 C 0.20467 0.02307 0.53246 0.0
C854 C 0.15517 0.93963 0.50599 0.0
C855 C 0.19506 0.9603 0.48583 0.0
C856 C 0.24007 0.01258 0.48939 0.0
C857 C 0.24481 0.04357 0.51241 0.0
C858 C 0.20211 0.92122 0.41279 0.0
C859 C 0.18464 0.86581 0.41496 0.0
C860 C 0.20475 0.95164 0.43566 0.0
C861 C 0.19001 0.92741 0.46127 0.0
C862 C 0.17122 0.87167 0.46329 0.0
C863 C 0.16845 0.84122 0.44041 0.0
loop_
_geom_bond_atom_site_label_1
_geom_bond_atom_site_label_2
_geom_bond_distance
_geom_bond_site_symmetry_2
_ccdc_geom_bond_type
Eu0 N29 2.600 1_556 S
Eu0 N35 2.562 1_556 S
Eu0 O44 2.462 . S
Eu0 O45 2.373 1_556 S
Eu0 O47 2.432 . S
Eu0 O48 2.291 1_556 S
Eu0 O52 2.335 . S
Eu0 O55 2.372 . S
Eu0 C64 2.787 . S
C1 N2 1.365 . S
C1 C4 1.405 . S
C1 C8 1.448 . S
N2 C1 1.365 . S
N2 C5 1.319 . S
N2 Eu11 2.600 . S
C3 C5 1.397 . S
C3 C6 1.367 . S
C3 H23 0.931 . S
C4 C1 1.405 . S
C4 C6 1.403 . S
C4 C10 1.439 . S
C5 N2 1.319 . S
C5 C3 1.397 . S
C5 H16 0.930 . S
C6 C3 1.367 . S
C6 C4 1.403 . S
C6 H27 0.929 . S
C7 C8 1.430 . S
C7 C9 1.387 . S
C7 C13 1.403 . S
C8 C1 1.448 . S
C8 C7 1.430 . S
C8 N12 1.351 . S
C9 C7 1.387 . S
C9 C10 1.374 . S
C9 H24 0.931 1_554 S
C10 C4 1.439 . S
C10 C9 1.374 . S
C10 H25 0.931 . S
Eu11 N2 2.600 . S
Eu11 N12 2.562 . S
Eu11 O46 2.335 . S
Eu11 O49 2.372 . S
Eu11 O50 2.462 . S
Eu11 O51 2.373 1_554 S
Eu11 O53 2.432 . S
Eu11 O54 2.291 . S
Eu11 C75 2.787 . S
N12 C8 1.351 . S
N12 Eu11 2.562 . S
N12 C14 1.325 . S
C13 C7 1.403 . S
C13 C15 1.365 . S
C13 H21 0.933 1_554 S
C14 N12 1.325 . S
C14 C15 1.416 . S
C14 H20 0.929 . S
C15 C13 1.365 . S
C15 C14 1.416 . S
C15 H17 0.923 1_554 S
H16 C5 0.930 . S
H17 C15 0.923 1_556 S
H18 C33 0.930 . S
H19 C40 0.930 . S
H20 C14 0.929 . S
H21 C13 0.933 1_556 S
H22 C36 0.929 . S
H23 C3 0.931 . S
H24 C9 0.931 1_556 S
H25 C10 0.931 . S
H26 C31 0.931 . S
H27 C6 0.929 . S
H28 C39 0.930 . S
N29 Eu0 2.600 1_554 S
N29 C30 1.367 . S
N29 C33 1.318 1_554 S
C30 N29 1.367 . S
C30 C32 1.405 . S
C30 C38 1.448 . S
C31 H26 0.931 . S
C31 C33 1.397 1_655 S
C31 C34 1.367 1_556 S
C32 C30 1.405 . S
C32 C34 1.403 1_455 S
C32 C65 1.439 1_455 S
C33 H18 0.930 . S
C33 N29 1.318 1_556 S
C33 C31 1.397 1_455 S
C34 C31 1.367 1_554 S
C34 C32 1.403 1_655 S
C34 H41 0.929 . S
N35 Eu0 2.562 1_554 S
N35 C36 1.325 . S
N35 C38 1.351 . S
C36 H22 0.929 . S
C36 N35 1.325 . S
C36 C40 1.416 . S
C37 C38 1.430 . S
C37 C39 1.404 . S
C37 C66 1.387 . S
C38 C30 1.448 . S
C38 N35 1.351 . S
C38 C37 1.430 . S
C39 H28 0.930 . S
C39 C37 1.404 . S
C39 C40 1.366 . S
C40 H19 0.930 . S
C40 C36 1.416 . S
C40 C39 1.366 . S
H41 C34 0.929 . S
H42 C65 0.931 . S
H43 C66 0.931 . S
O44 Eu0 2.462 . S
O44 C64 1.252 . S
O45 Eu0 2.373 1_554 S
O45 C56 1.249 . S
O46 Eu11 2.335 . S
O46 C56 1.264 . S
O47 Eu0 2.432 . S
O47 C64 1.268 . S
O48 Eu0 2.291 1_554 S
O48 C63 1.255 . S
O49 Eu11 2.372 . S
O49 C63 1.257 . S
O50 Eu11 2.462 . S
O50 C75 1.252 . S
O51 Eu11 2.373 1_556 S
O51 C67 1.249 . S
O52 Eu0 2.335 . S
O52 C67 1.264 . S
O53 Eu11 2.432 . S
O53 C75 1.268 . S
O54 Eu11 2.291 . S
O54 C74 1.255 . S
O55 Eu0 2.372 . S
O55 C74 1.257 1_556 S
C56 O45 1.249 . S
C56 O46 1.264 . S
C57 C60 1.382 . S
C57 C62 1.390 . S
C57 C64 1.506 . S
C58 C59 1.398 . S
C58 C62 1.392 . S
C59 C58 1.398 . S
C59 C61 1.372 . S
C59 H76 0.931 . S
C60 C57 1.382 . S
C60 C61 1.390 . S
C60 H77 0.931 . S
C61 C59 1.372 . S
C61 C60 1.390 . S
C61 H78 0.929 . S
C62 C57 1.390 . S
C62 C58 1.392 . S
C62 H79 0.930 . S
C63 O48 1.255 . S
C63 O49 1.257 . S
C64 Eu0 2.787 . S
C64 O44 1.252 . S
C64 O47 1.268 . S
C64 C57 1.506 . S
C65 C32 1.439 1_655 S
C65 H42 0.931 . S
C65 C66 1.374 1_655 S
C66 C37 1.387 . S
C66 H43 0.931 . S
C66 C65 1.374 1_455 S
C67 O51 1.249 . S
C67 O52 1.264 . S
C68 C71 1.382 . S
C68 C72 1.390 . S
C68 C75 1.506 . S
C69 C70 1.398 . S
C69 C72 1.392 . S
C70 C69 1.398 . S
C70 C73 1.372 . S
C70 H80 0.931 . S
C71 C68 1.382 . S
C71 C73 1.390 . S
C71 H81 0.931 . S
C72 C68 1.390 . S
C72 C69 1.392 . S
C72 H82 0.930 . S
C73 C70 1.372 . S
C73 C71 1.390 . S
C73 H83 0.929 . S
C74 O54 1.255 . S
C74 O55 1.257 1_554 S
C75 Eu11 2.787 . S
C75 O50 1.252 . S
C75 O53 1.268 . S
C75 C68 1.506 . S
H76 C59 0.931 . S
H77 C60 0.931 . S
H78 C61 0.929 . S
H79 C62 0.930 . S
H80 C70 0.931 . S
H81 C71 0.931 . S
H82 C72 0.930 . S
H83 C73 0.929 . S
Eu84 N113 2.600 . S
Eu84 N119 2.562 . S
Eu84 O128 2.462 . S
Eu84 O129 2.373 . S
Eu84 O131 2.432 . S
Eu84 O132 2.291 . S
Eu84 O136 2.335 . S
Eu84 O139 2.372 . S
Eu84 C148 2.787 . S
C85 N86 1.365 . S
C85 C88 1.405 . S
C85 C92 1.448 . S
N86 C85 1.365 . S
N86 C89 1.319 . S
N86 Eu95 2.600 . S
C87 C89 1.397 . S
C87 C90 1.367 . S
C87 H107 0.931 . S
C88 C85 1.405 . S
C88 C90 1.403 . S
C88 C94 1.439 . S
C89 N86 1.319 . S
C89 C87 1.397 . S
C89 H100 0.930 . S
C90 C87 1.367 . S
C90 C88 1.403 . S
C90 H111 0.929 . S
C91 C92 1.430 . S
C91 C93 1.387 . S
C91 C97 1.404 . S
C92 C85 1.448 . S
C92 C91 1.430 . S
C92 N96 1.351 . S
C93 C91 1.387 . S
C93 C94 1.374 . S
C93 H108 0.931 . S
C94 C88 1.439 . S
C94 C93 1.374 . S
C94 H109 0.931 . S
Eu95 N86 2.600 . S
Eu95 N96 2.562 . S
Eu95 O130 2.335 . S
Eu95 O133 2.372 . S
Eu95 O134 2.462 . S
Eu95 O135 2.373 . S
Eu95 O137 2.432 . S
Eu95 O138 2.291 . S
Eu95 C159 2.787 . S
N96 C92 1.351 . S
N96 Eu95 2.562 . S
N96 C98 1.325 . S
C97 C91 1.404 . S
C97 C99 1.366 . S
C97 H105 0.930 . S
C98 N96 1.325 . S
C98 C99 1.416 . S
C98 H104 0.929 . S
C99 C97 1.366 . S
C99 C98 1.416 . S
C99 H101 0.930 . S
H100 C89 0.930 . S
H101 C99 0.930 . S
H102 C117 0.930 . S
H103 C124 0.930 1_455 S
H104 C98 0.929 . S
H105 C97 0.930 . S
H106 C120 0.929 . S
H107 C87 0.931 . S
H108 C93 0.931 . S
H109 C94 0.931 . S
H110 C115 0.931 . S
H111 C90 0.929 . S
H112 C123 0.930 1_455 S
N113 Eu84 2.600 . S
N113 C114 1.365 . S
N113 C117 1.319 . S
C114 N113 1.365 . S
C114 C116 1.405 . S
C114 C122 1.448 . S
C115 H110 0.931 . S
C115 C117 1.397 1_565 S
C115 C118 1.367 . S
C116 C114 1.405 . S
C116 C118 1.403 1_545 S
C116 C149 1.439 1_545 S
C117 H102 0.930 . S
C117 N113 1.319 . S
C117 C115 1.397 1_545 S
C118 C115 1.367 . S
C118 C116 1.403 1_565 S
C118 H125 0.929 . S
N119 Eu84 2.562 . S
N119 C120 1.325 . S
N119 C122 1.351 . S
C120 H106 0.929 . S
C120 N119 1.325 . S
C120 C124 1.416 . S
C121 C122 1.430 . S
C121 C123 1.404 . S
C121 C150 1.387 . S
C122 C114 1.448 . S
C122 N119 1.351 . S
C122 C121 1.430 . S
C123 H112 0.930 1_655 S
C123 C121 1.404 . S
C123 C124 1.366 . S
C124 H103 0.930 1_655 S
C124 C120 1.416 . S
C124 C123 1.366 . S
H125 C118 0.929 . S
H126 C149 0.931 . S
H127 C150 0.931 . S
O128 Eu84 2.462 . S
O128 C148 1.252 . S
O129 Eu84 2.373 . S
O129 C140 1.249 . S
O130 Eu95 2.335 . S
O130 C140 1.264 . S
O131 Eu84 2.432 . S
O131 C148 1.268 . S
O132 Eu84 2.291 . S
O132 C147 1.255 . S
O133 Eu95 2.372 . S
O133 C147 1.257 . S
O134 Eu95 2.462 . S
O134 C159 1.252 . S
O135 Eu95 2.373 . S
O135 C151 1.249 . S
O136 Eu84 2.335 . S
O136 C151 1.264 . S
O137 Eu95 2.432 . S
O137 C159 1.268 . S
O138 Eu95 2.291 . S
O138 C158 1.255 . S
O139 Eu84 2.372 . S
O139 C158 1.257 . S
C140 O129 1.249 . S
C140 O130 1.264 . S
C141 C144 1.382 . S
C141 C146 1.390 . S
C141 C148 1.506 . S
C142 C143 1.398 . S
C142 C146 1.392 . S
C143 C142 1.398 . S
C143 C145 1.372 . S
C143 H160 0.931 . S
C144 C141 1.382 . S
C144 C145 1.390 . S
C144 H161 0.931 . S
C145 C143 1.372 . S
C145 C144 1.390 . S
C145 H162 0.929 . S
C146 C141 1.390 . S
C146 C142 1.392 . S
C146 H163 0.930 . S
C147 O132 1.255 . S
C147 O133 1.257 . S
C148 Eu84 2.787 . S
C148 O128 1.252 . S
C148 O131 1.268 . S
C148 C141 1.506 . S
C149 C116 1.439 1_565 S
C149 H126 0.931 . S
C149 C150 1.374 1_565 S
C150 C121 1.387 . S
C150 H127 0.931 . S
C150 C149 1.374 1_545 S
C151 O135 1.249 . S
C151 O136 1.264 . S
C152 C155 1.382 . S
C152 C156 1.390 . S
C152 C159 1.506 . S
C153 C154 1.398 . S
C153 C156 1.392 . S
C154 C153 1.398 . S
C154 C157 1.372 . S
C154 H164 0.931 . S
C155 C152 1.382 . S
C155 C157 1.390 . S
C155 H165 0.931 . S
C156 C152 1.390 . S
C156 C153 1.392 . S
C156 H166 0.930 . S
C157 C154 1.372 . S
C157 C155 1.390 . S
C157 H167 0.929 . S
C158 O138 1.255 . S
C158 O139 1.257 . S
C159 Eu95 2.787 . S
C159 O134 1.252 . S
C159 O137 1.268 . S
C159 C152 1.506 . S
H160 C143 0.931 . S
H161 C144 0.931 . S
H162 C145 0.929 . S
H163 C146 0.930 . S
H164 C154 0.931 . S
H165 C155 0.931 . S
H166 C156 0.930 . S
H167 C157 0.929 . S
Eu168 N197 2.600 . S
Eu168 N203 2.562 . S
Eu168 O212 2.462 . S
Eu168 O213 2.373 . S
Eu168 O215 2.432 . S
Eu168 O216 2.291 . S
Eu168 O220 2.335 . S
Eu168 O223 2.372 . S
Eu168 C232 2.787 . S
C169 N170 1.365 . S
C169 C172 1.405 . S
C169 C176 1.448 . S
N170 C169 1.365 . S
N170 C173 1.319 . S
N170 Eu179 2.600 . S
C171 C173 1.397 . S
C171 C174 1.367 . S
C171 H191 0.931 . S
C172 C169 1.405 . S
C172 C174 1.403 . S
C172 C178 1.439 . S
C173 N170 1.319 . S
C173 C171 1.397 . S
C173 H184 0.930 . S
C174 C171 1.367 . S
C174 C172 1.403 . S
C174 H195 0.929 . S
C175 C176 1.430 . S
C175 C177 1.387 . S
C175 C181 1.404 . S
C176 C169 1.448 . S
C176 C175 1.430 . S
C176 N180 1.351 . S
C177 C175 1.387 . S
C177 C178 1.374 . S
C177 H192 0.931 . S
C178 C172 1.439 . S
C178 C177 1.374 . S
C178 H193 0.931 . S
Eu179 N170 2.600 . S
Eu179 N180 2.562 . S
Eu179 O214 2.335 . S
Eu179 O217 2.372 . S
Eu179 O218 2.462 . S
Eu179 O219 2.373 . S
Eu179 O221 2.432 . S
Eu179 O222 2.291 . S
Eu179 C243 2.787 . S
N180 C176 1.351 . S
N180 Eu179 2.562 . S
N180 C182 1.325 . S
C181 C175 1.404 . S
C181 C183 1.366 . S
C181 H189 0.930 . S
C182 N180 1.325 . S
C182 C183 1.416 . S
C182 H188 0.929 . S
C183 C181 1.366 . S
C183 C182 1.416 . S
C183 H185 0.930 . S
H184 C173 0.930 . S
H185 C183 0.930 . S
H186 C201 0.930 . S
H187 C208 0.930 1_545 S
H188 C182 0.929 . S
H189 C181 0.930 . S
H190 C204 0.929 . S
H191 C171 0.931 . S
H192 C177 0.931 . S
H193 C178 0.931 . S
H194 C199 0.931 . S
H195 C174 0.929 . S
H196 C207 0.930 1_545 S
N197 Eu168 2.600 . S
N197 C198 1.365 . S
N197 C201 1.319 . S
C198 N197 1.365 . S
C198 C200 1.405 . S
C198 C206 1.448 . S
C199 H194 0.931 . S
C199 C201 1.397 . S
C199 C202 1.367 . S
C200 C198 1.405 . S
C200 C202 1.403 . S
C200 C233 1.439 . S
C201 H186 0.930 . S
C201 N197 1.319 . S
C201 C199 1.397 . S
C202 C199 1.367 . S
C202 C200 1.403 . S
C202 H209 0.929 . S
N203 Eu168 2.562 . S
N203 C204 1.325 . S
N203 C206 1.351 . S
C204 H190 0.929 . S
C204 N203 1.325 . S
C204 C208 1.416 . S
C205 C206 1.430 . S
C205 C207 1.404 . S
C205 C234 1.387 . S
C206 C198 1.448 . S
C206 N203 1.351 . S
C206 C205 1.430 . S
C207 H196 0.930 1_565 S
C207 C205 1.404 . S
C207 C208 1.366 . S
C208 H187 0.930 1_565 S
C208 C204 1.416 . S
C208 C207 1.366 . S
H209 C202 0.929 . S
H210 C233 0.931 . S
H211 C234 0.931 . S
O212 Eu168 2.462 . S
O212 C232 1.252 . S
O213 Eu168 2.373 . S
O213 C224 1.249 . S
O214 Eu179 2.335 . S
O214 C224 1.264 . S
O215 Eu168 2.432 . S
O215 C232 1.268 . S
O216 Eu168 2.291 . S
O216 C231 1.255 . S
O217 Eu179 2.372 . S
O217 C231 1.257 . S
O218 Eu179 2.462 . S
O218 C243 1.252 . S
O219 Eu179 2.373 . S
O219 C235 1.249 . S
O220 Eu168 2.335 . S
O220 C235 1.264 . S
O221 Eu179 2.432 . S
O221 C243 1.268 . S
O222 Eu179 2.291 . S
O222 C242 1.255 . S
O223 Eu168 2.372 . S
O223 C242 1.257 . S
C224 O213 1.249 . S
C224 O214 1.264 . S
C225 C228 1.382 . S
C225 C230 1.390 . S
C225 C232 1.506 . S
C226 C227 1.398 . S
C226 C230 1.392 . S
C227 C226 1.398 . S
C227 C229 1.372 . S
C227 H244 0.931 . S
C228 C225 1.382 . S
C228 C229 1.390 . S
C228 H245 0.931 . S
C229 C227 1.372 . S
C229 C228 1.390 . S
C229 H246 0.929 . S
C230 C225 1.390 . S
C230 C226 1.392 . S
C230 H247 0.930 . S
C231 O216 1.255 . S
C231 O217 1.257 . S
C232 Eu168 2.787 . S
C232 O212 1.252 . S
C232 O215 1.268 . S
C232 C225 1.506 . S
C233 C200 1.439 . S
C233 H210 0.931 . S
C233 C234 1.374 . S
C234 C205 1.387 . S
C234 H211 0.931 . S
C234 C233 1.374 . S
C235 O219 1.249 . S
C235 O220 1.264 . S
C236 C239 1.382 . S
C236 C240 1.390 . S
C236 C243 1.506 . S
C237 C238 1.398 . S
C237 C240 1.392 . S
C238 C237 1.398 . S
C238 C241 1.372 . S
C238 H248 0.931 . S
C239 C236 1.382 . S
C239 C241 1.390 . S
C239 H249 0.931 . S
C240 C236 1.390 . S
C240 C237 1.392 . S
C240 H250 0.930 . S
C241 C238 1.372 . S
C241 C239 1.390 . S
C241 H251 0.929 . S
C242 O222 1.255 . S
C242 O223 1.257 . S
C243 Eu179 2.787 . S
C243 O218 1.252 . S
C243 O221 1.268 . S
C243 C236 1.506 . S
H244 C227 0.931 . S
H245 C228 0.931 . S
H246 C229 0.929 . S
H247 C230 0.930 . S
H248 C238 0.931 . S
H249 C239 0.931 . S
H250 C240 0.930 . S
H251 C241 0.929 . S
Eu252 N281 2.600 1_556 S
Eu252 N287 2.562 1_556 S
Eu252 O296 2.462 . S
Eu252 O297 2.373 1_556 S
Eu252 O299 2.432 . S
Eu252 O300 2.291 1_556 S
Eu252 O304 2.335 . S
Eu252 O307 2.372 . S
Eu252 C316 2.787 . S
C253 N254 1.365 . S
C253 C256 1.405 . S
C253 C260 1.448 . S
N254 C253 1.365 . S
N254 C257 1.319 . S
N254 Eu263 2.600 . S
C255 C257 1.397 . S
C255 C258 1.367 . S
C255 H275 0.931 . S
C256 C253 1.405 . S
C256 C258 1.403 . S
C256 C262 1.439 . S
C257 N254 1.319 . S
C257 C255 1.397 . S
C257 H268 0.930 . S
C258 C255 1.367 . S
C258 C256 1.403 . S
C258 H279 0.929 . S
C259 C260 1.430 . S
C259 C261 1.387 . S
C259 C265 1.403 . S
C260 C253 1.448 . S
C260 C259 1.430 . S
C260 N264 1.351 . S
C261 C259 1.387 . S
C261 C262 1.374 . S
C261 H276 0.931 1_554 S
C262 C256 1.439 . S
C262 C261 1.374 . S
C262 H277 0.931 . S
Eu263 N254 2.600 . S
Eu263 N264 2.562 . S
Eu263 O298 2.335 . S
Eu263 O301 2.372 . S
Eu263 O302 2.462 . S
Eu263 O303 2.373 1_554 S
Eu263 O305 2.432 . S
Eu263 O306 2.291 . S
Eu263 C327 2.787 . S
N264 C260 1.351 . S
N264 Eu263 2.562 . S
N264 C266 1.325 . S
C265 C259 1.403 . S
C265 C267 1.365 . S
C265 H273 0.933 1_554 S
C266 N264 1.325 . S
C266 C267 1.416 . S
C266 H272 0.929 . S
C267 C265 1.365 . S
C267 C266 1.416 . S
C267 H269 0.923 1_554 S
H268 C257 0.930 . S
H269 C267 0.923 1_556 S
H270 C285 0.930 . S
H271 C292 0.930 . S
H272 C266 0.929 . S
H273 C265 0.933 1_556 S
H274 C288 0.929 . S
H275 C255 0.931 . S
H276 C261 0.931 1_556 S
H277 C262 0.931 . S
H278 C283 0.931 . S
H279 C258 0.929 . S
H280 C291 0.930 . S
N281 Eu252 2.600 1_554 S
N281 C282 1.367 . S
N281 C285 1.318 1_554 S
C282 N281 1.367 . S
C282 C284 1.405 . S
C282 C290 1.448 . S
C283 H278 0.931 . S
C283 C285 1.397 1_455 S
C283 C286 1.367 1_556 S
C284 C282 1.405 . S
C284 C286 1.403 1_655 S
C284 C317 1.439 1_655 S
C285 H270 0.930 . S
C285 N281 1.318 1_556 S
C285 C283 1.397 1_655 S
C286 C283 1.367 1_554 S
C286 C284 1.403 1_455 S
C286 H293 0.929 . S
N287 Eu252 2.562 1_554 S
N287 C288 1.325 . S
N287 C290 1.351 . S
C288 H274 0.929 . S
C288 N287 1.325 . S
C288 C292 1.416 . S
C289 C290 1.430 . S
C289 C291 1.404 . S
C289 C318 1.387 . S
C290 C282 1.448 . S
C290 N287 1.351 . S
C290 C289 1.430 . S
C291 H280 0.930 . S
C291 C289 1.404 . S
C291 C292 1.366 . S
C292 H271 0.930 . S
C292 C288 1.416 . S
C292 C291 1.366 . S
H293 C286 0.929 . S
H294 C317 0.931 . S
H295 C318 0.931 . S
O296 Eu252 2.462 . S
O296 C316 1.252 . S
O297 Eu252 2.373 1_554 S
O297 C308 1.249 . S
O298 Eu263 2.335 . S
O298 C308 1.264 . S
O299 Eu252 2.432 . S
O299 C316 1.268 . S
O300 Eu252 2.291 1_554 S
O300 C315 1.255 . S
O301 Eu263 2.372 . S
O301 C315 1.257 . S
O302 Eu263 2.462 . S
O302 C327 1.252 . S
O303 Eu263 2.373 1_556 S
O303 C319 1.249 . S
O304 Eu252 2.335 . S
O304 C319 1.264 . S
O305 Eu263 2.432 . S
O305 C327 1.268 . S
O306 Eu263 2.291 . S
O306 C326 1.255 . S
O307 Eu252 2.372 . S
O307 C326 1.257 1_556 S
C308 O297 1.249 . S
C308 O298 1.264 . S
C309 C312 1.382 . S
C309 C314 1.390 . S
C309 C316 1.506 . S
C310 C311 1.398 . S
C310 C314 1.392 . S
C311 C310 1.398 . S
C311 C313 1.372 . S
C311 H328 0.931 . S
C312 C309 1.382 . S
C312 C313 1.390 . S
C312 H329 0.931 . S
C313 C311 1.372 . S
C313 C312 1.390 . S
C313 H330 0.929 . S
C314 C309 1.390 . S
C314 C310 1.392 . S
C314 H331 0.930 . S
C315 O300 1.255 . S
C315 O301 1.257 . S
C316 Eu252 2.787 . S
C316 O296 1.252 . S
C316 O299 1.268 . S
C316 C309 1.506 . S
C317 C284 1.439 1_455 S
C317 H294 0.931 . S
C317 C318 1.374 1_455 S
C318 C289 1.387 . S
C318 H295 0.931 . S
C318 C317 1.374 1_655 S
C319 O303 1.249 . S
C319 O304 1.264 . S
C320 C323 1.382 . S
C320 C324 1.390 . S
C320 C327 1.506 . S
C321 C322 1.398 . S
C321 C324 1.392 . S
C322 C321 1.398 . S
C322 C325 1.372 . S
C322 H332 0.931 . S
C323 C320 1.382 . S
C323 C325 1.390 . S
C323 H333 0.931 . S
C324 C320 1.390 . S
C324 C321 1.392 . S
C324 H334 0.930 . S
C325 C322 1.372 . S
C325 C323 1.390 . S
C325 H335 0.929 . S
C326 O306 1.255 . S
C326 O307 1.257 1_554 S
C327 Eu263 2.787 . S
C327 O302 1.252 . S
C327 O305 1.268 . S
C327 C320 1.506 . S
H328 C311 0.931 . S
H329 C312 0.931 . S
H330 C313 0.929 . S
H331 C314 0.930 . S
H332 C322 0.931 . S
H333 C323 0.931 . S
H334 C324 0.930 . S
H335 C325 0.929 . S
Eu336 N365 2.600 . S
Eu336 N371 2.562 . S
Eu336 O380 2.462 . S
Eu336 O381 2.373 . S
Eu336 O383 2.432 . S
Eu336 O384 2.291 . S
Eu336 O388 2.335 . S
Eu336 O391 2.372 . S
Eu336 C400 2.787 . S
C337 N338 1.365 . S
C337 C340 1.405 . S
C337 C344 1.448 . S
N338 C337 1.365 . S
N338 C341 1.319 . S
N338 Eu347 2.600 . S
C339 C341 1.397 . S
C339 C342 1.367 . S
C339 H359 0.931 . S
C340 C337 1.405 . S
C340 C342 1.403 . S
C340 C346 1.439 . S
C341 N338 1.319 . S
C341 C339 1.397 . S
C341 H352 0.930 . S
C342 C339 1.367 . S
C342 C340 1.403 . S
C342 H363 0.929 . S
C343 C344 1.430 . S
C343 C345 1.387 . S
C343 C349 1.404 . S
C344 C337 1.448 . S
C344 C343 1.430 . S
C344 N348 1.351 . S
C345 C343 1.387 . S
C345 C346 1.374 . S
C345 H360 0.931 . S
C346 C340 1.439 . S
C346 C345 1.374 . S
C346 H361 0.931 . S
Eu347 N338 2.600 . S
Eu347 N348 2.562 . S
Eu347 O382 2.335 . S
Eu347 O385 2.372 . S
Eu347 O386 2.462 . S
Eu347 O387 2.373 . S
Eu347 O389 2.432 . S
Eu347 O390 2.291 . S
Eu347 C411 2.787 . S
N348 C344 1.351 . S
N348 Eu347 2.562 . S
N348 C350 1.325 . S
C349 C343 1.404 . S
C349 C351 1.366 . S
C349 H357 0.930 . S
C350 N348 1.325 . S
C350 C351 1.416 . S
C350 H356 0.929 . S
C351 C349 1.366 . S
C351 C350 1.416 . S
C351 H353 0.930 . S
H352 C341 0.930 . S
H353 C351 0.930 . S
H354 C369 0.930 . S
H355 C376 0.930 1_655 S
H356 C350 0.929 . S
H357 C349 0.930 . S
H358 C372 0.929 . S
H359 C339 0.931 . S
H360 C345 0.931 . S
H361 C346 0.931 . S
H362 C367 0.931 . S
H363 C342 0.929 . S
H364 C375 0.930 1_655 S
N365 Eu336 2.600 . S
N365 C366 1.365 . S
N365 C369 1.319 . S
C366 N365 1.365 . S
C366 C368 1.405 . S
C366 C374 1.448 . S
C367 H362 0.931 . S
C367 C369 1.397 1_545 S
C367 C370 1.367 . S
C368 C366 1.405 . S
C368 C370 1.403 1_565 S
C368 C401 1.439 1_565 S
C369 H354 0.930 . S
C369 N365 1.319 . S
C369 C367 1.397 1_565 S
C370 C367 1.367 . S
C370 C368 1.403 1_545 S
C370 H377 0.929 . S
N371 Eu336 2.562 . S
N371 C372 1.325 . S
N371 C374 1.351 . S
C372 H358 0.929 . S
C372 N371 1.325 . S
C372 C376 1.416 . S
C373 C374 1.430 . S
C373 C375 1.404 . S
C373 C402 1.387 . S
C374 C366 1.448 . S
C374 N371 1.351 . S
C374 C373 1.430 . S
C375 H364 0.930 1_455 S
C375 C373 1.404 . S
C375 C376 1.366 . S
C376 H355 0.930 1_455 S
C376 C372 1.416 . S
C376 C375 1.366 . S
H377 C370 0.929 . S
H378 C401 0.931 . S
H379 C402 0.931 . S
O380 Eu336 2.462 . S
O380 C400 1.252 . S
O381 Eu336 2.373 . S
O381 C392 1.249 . S
O382 Eu347 2.335 . S
O382 C392 1.264 . S
O383 Eu336 2.432 . S
O383 C400 1.268 . S
O384 Eu336 2.291 . S
O384 C399 1.255 . S
O385 Eu347 2.372 . S
O385 C399 1.257 . S
O386 Eu347 2.462 . S
O386 C411 1.252 . S
O387 Eu347 2.373 . S
O387 C403 1.249 . S
O388 Eu336 2.335 . S
O388 C403 1.264 . S
O389 Eu347 2.432 . S
O389 C411 1.268 . S
O390 Eu347 2.291 . S
O390 C410 1.255 . S
O391 Eu336 2.372 . S
O391 C410 1.257 . S
C392 O381 1.249 . S
C392 O382 1.264 . S
C393 C396 1.382 . S
C393 C398 1.390 . S
C393 C400 1.506 . S
C394 C395 1.398 . S
C394 C398 1.392 . S
C395 C394 1.398 . S
C395 C397 1.372 . S
C395 H412 0.931 . S
C396 C393 1.382 . S
C396 C397 1.390 . S
C396 H413 0.931 . S
C397 C395 1.372 . S
C397 C396 1.390 . S
C397 H414 0.929 . S
C398 C393 1.390 . S
C398 C394 1.392 . S
C398 H415 0.930 . S
C399 O384 1.255 . S
C399 O385 1.257 . S
C400 Eu336 2.787 . S
C400 O380 1.252 . S
C400 O383 1.268 . S
C400 C393 1.506 . S
C401 C368 1.439 1_545 S
C401 H378 0.931 . S
C401 C402 1.374 1_545 S
C402 C373 1.387 . S
C402 H379 0.931 . S
C402 C401 1.374 1_565 S
C403 O387 1.249 . S
C403 O388 1.264 . S
C404 C407 1.382 . S
C404 C408 1.390 . S
C404 C411 1.506 . S
C405 C406 1.398 . S
C405 C408 1.392 . S
C406 C405 1.398 . S
C406 C409 1.372 . S
C406 H416 0.931 . S
C407 C404 1.382 . S
C407 C409 1.390 . S
C407 H417 0.931 . S
C408 C404 1.390 . S
C408 C405 1.392 . S
C408 H418 0.930 . S
C409 C406 1.372 . S
C409 C407 1.390 . S
C409 H419 0.929 . S
C410 O390 1.255 . S
C410 O391 1.257 . S
C411 Eu347 2.787 . S
C411 O386 1.252 . S
C411 O389 1.268 . S
C411 C404 1.506 . S
H412 C395 0.931 . S
H413 C396 0.931 . S
H414 C397 0.929 . S
H415 C398 0.930 . S
H416 C406 0.931 . S
H417 C407 0.931 . S
H418 C408 0.930 . S
H419 C409 0.929 . S
Eu420 N449 2.600 . S
Eu420 N455 2.562 . S
Eu420 O464 2.462 . S
Eu420 O465 2.373 . S
Eu420 O467 2.432 . S
Eu420 O468 2.291 . S
Eu420 O472 2.335 . S
Eu420 O475 2.372 . S
Eu420 C484 2.787 . S
C421 N422 1.365 . S
C421 C424 1.405 . S
C421 C428 1.448 . S
N422 C421 1.365 . S
N422 C425 1.319 . S
N422 Eu431 2.600 . S
C423 C425 1.397 . S
C423 C426 1.367 . S
C423 H443 0.931 . S
C424 C421 1.405 . S
C424 C426 1.403 . S
C424 C430 1.439 . S
C425 N422 1.319 . S
C425 C423 1.397 . S
C425 H436 0.930 . S
C426 C423 1.367 . S
C426 C424 1.403 . S
C426 H447 0.929 . S
C427 C428 1.430 . S
C427 C429 1.387 . S
C427 C433 1.404 . S
C428 C421 1.448 . S
C428 C427 1.430 . S
C428 N432 1.351 . S
C429 C427 1.387 . S
C429 C430 1.374 . S
C429 H444 0.931 . S
C430 C424 1.439 . S
C430 C429 1.374 . S
C430 H445 0.931 . S
Eu431 N422 2.600 . S
Eu431 N432 2.562 . S
Eu431 O466 2.335 . S
Eu431 O469 2.372 . S
Eu431 O470 2.462 . S
Eu431 O471 2.373 . S
Eu431 O473 2.432 . S
Eu431 O474 2.291 . S
Eu431 C495 2.787 . S
N432 C428 1.351 . S
N432 Eu431 2.562 . S
N432 C434 1.325 . S
C433 C427 1.404 . S
C433 C435 1.366 . S
C433 H441 0.930 . S
C434 N432 1.325 . S
C434 C435 1.416 . S
C434 H440 0.929 . S
C435 C433 1.366 . S
C435 C434 1.416 . S
C435 H437 0.930 . S
H436 C425 0.930 . S
H437 C435 0.930 . S
H438 C453 0.930 . S
H439 C460 0.930 1_565 S
H440 C434 0.929 . S
H441 C433 0.930 . S
H442 C456 0.929 . S
H443 C423 0.931 . S
H444 C429 0.931 . S
H445 C430 0.931 . S
H446 C451 0.931 . S
H447 C426 0.929 . S
H448 C459 0.930 1_565 S
N449 Eu420 2.600 . S
N449 C450 1.365 . S
N449 C453 1.319 . S
C450 N449 1.365 . S
C450 C452 1.405 . S
C450 C458 1.448 . S
C451 H446 0.931 . S
C451 C453 1.397 . S
C451 C454 1.367 . S
C452 C450 1.405 . S
C452 C454 1.403 . S
C452 C485 1.439 . S
C453 H438 0.930 . S
C453 N449 1.319 . S
C453 C451 1.397 . S
C454 C451 1.367 . S
C454 C452 1.403 . S
C454 H461 0.929 . S
N455 Eu420 2.562 . S
N455 C456 1.325 . S
N455 C458 1.351 . S
C456 H442 0.929 . S
C456 N455 1.325 . S
C456 C460 1.416 . S
C457 C458 1.430 . S
C457 C459 1.404 . S
C457 C486 1.387 . S
C458 C450 1.448 . S
C458 N455 1.351 . S
C458 C457 1.430 . S
C459 H448 0.930 1_545 S
C459 C457 1.404 . S
C459 C460 1.366 . S
C460 H439 0.930 1_545 S
C460 C456 1.416 . S
C460 C459 1.366 . S
H461 C454 0.929 . S
H462 C485 0.931 . S
H463 C486 0.931 . S
O464 Eu420 2.462 . S
O464 C484 1.252 . S
O465 Eu420 2.373 . S
O465 C476 1.249 . S
O466 Eu431 2.335 . S
O466 C476 1.264 . S
O467 Eu420 2.432 . S
O467 C484 1.268 . S
O468 Eu420 2.291 . S
O468 C483 1.255 . S
O469 Eu431 2.372 . S
O469 C483 1.257 . S
O470 Eu431 2.462 . S
O470 C495 1.252 . S
O471 Eu431 2.373 . S
O471 C487 1.249 . S
O472 Eu420 2.335 . S
O472 C487 1.264 . S
O473 Eu431 2.432 . S
O473 C495 1.268 . S
O474 Eu431 2.291 . S
O474 C494 1.255 . S
O475 Eu420 2.372 . S
O475 C494 1.257 . S
C476 O465 1.249 . S
C476 O466 1.264 . S
C477 C480 1.382 . S
C477 C482 1.390 . S
C477 C484 1.506 . S
C478 C479 1.398 . S
C478 C482 1.392 . S
C479 C478 1.398 . S
C479 C481 1.372 . S
C479 H496 0.931 . S
C480 C477 1.382 . S
C480 C481 1.390 . S
C480 H497 0.931 . S
C481 C479 1.372 . S
C481 C480 1.390 . S
C481 H498 0.929 . S
C482 C477 1.390 . S
C482 C478 1.392 . S
C482 H499 0.930 . S
C483 O468 1.255 . S
C483 O469 1.257 . S
C484 Eu420 2.787 . S
C484 O464 1.252 . S
C484 O467 1.268 . S
C484 C477 1.506 . S
C485 C452 1.439 . S
C485 H462 0.931 . S
C485 C486 1.374 . S
C486 C457 1.387 . S
C486 H463 0.931 . S
C486 C485 1.374 . S
C487 O471 1.249 . S
C487 O472 1.264 . S
C488 C491 1.382 . S
C488 C492 1.390 . S
C488 C495 1.506 . S
C489 C490 1.398 . S
C489 C492 1.392 . S
C490 C489 1.398 . S
C490 C493 1.372 . S
C490 H500 0.931 . S
C491 C488 1.382 . S
C491 C493 1.390 . S
C491 H501 0.931 . S
C492 C488 1.390 . S
C492 C489 1.392 . S
C492 H502 0.930 . S
C493 C490 1.372 . S
C493 C491 1.390 . S
C493 H503 0.929 . S
C494 O474 1.255 . S
C494 O475 1.257 . S
C495 Eu431 2.787 . S
C495 O470 1.252 . S
C495 O473 1.268 . S
C495 C488 1.506 . S
H496 C479 0.931 . S
H497 C480 0.931 . S
H498 C481 0.929 . S
H499 C482 0.930 . S
H500 C490 0.931 . S
H501 C491 0.931 . S
H502 C492 0.930 . S
H503 C493 0.929 . S
H504 C512 0.950 . S
H505 C517 0.950 . S
H506 C514 0.950 . S
H507 C516 0.950 . S
H508 C518 0.950 . S
H509 C520 0.950 . S
H510 C522 0.950 . S
H511 C523 0.950 . S
C512 H504 0.950 . S
C512 C513 1.386 . S
C512 C514 1.391 . S
C513 C512 1.386 . S
C513 C517 1.393 . S
C514 H506 0.950 . S
C514 C512 1.391 . S
C514 C515 1.400 . S
C515 C514 1.400 . S
C515 C516 1.398 . S
C515 C521 1.491 . S
C516 H507 0.950 . S
C516 C515 1.398 . S
C516 C517 1.391 . S
C517 H505 0.950 . S
C517 C513 1.393 . S
C517 C516 1.391 . S
C518 H508 0.950 . S
C518 C519 1.386 . S
C518 C520 1.391 . S
C519 C518 1.386 . S
C519 C523 1.393 . S
C520 H509 0.950 . S
C520 C518 1.391 . S
C520 C521 1.400 . S
C521 C515 1.491 . S
C521 C520 1.400 . S
C521 C522 1.398 . S
C522 H510 0.950 . S
C522 C521 1.398 . S
C522 C523 1.391 . S
C523 H511 0.950 . S
C523 C519 1.393 . S
C523 C522 1.391 . S
H524 C532 0.950 . S
H525 C537 0.950 . S
H526 C534 0.950 . S
H527 C536 0.950 . S
H528 C538 0.950 . S
H529 C540 0.950 . S
H530 C542 0.950 . S
H531 C543 0.950 . S
C532 H524 0.950 . S
C532 C533 1.386 . S
C532 C534 1.391 . S
C533 C532 1.386 . S
C533 C537 1.393 . S
C534 H526 0.950 . S
C534 C532 1.391 . S
C534 C535 1.400 . S
C535 C534 1.400 . S
C535 C536 1.398 . S
C535 C541 1.491 . S
C536 H527 0.950 . S
C536 C535 1.398 . S
C536 C537 1.391 . S
C537 H525 0.950 . S
C537 C533 1.393 . S
C537 C536 1.391 . S
C538 H528 0.950 . S
C538 C539 1.386 . S
C538 C540 1.391 . S
C539 C538 1.386 . S
C539 C543 1.393 . S
C540 H529 0.950 . S
C540 C538 1.391 . S
C540 C541 1.400 . S
C541 C535 1.491 . S
C541 C540 1.400 . S
C541 C542 1.398 . S
C542 H530 0.950 . S
C542 C541 1.398 . S
C542 C543 1.391 . S
C543 H531 0.950 . S
C543 C539 1.393 . S
C543 C542 1.391 . S
H544 C552 0.950 . S
H545 C557 0.950 . S
H546 C554 0.950 . S
H547 C556 0.950 . S
H548 C558 0.950 . S
H549 C560 0.950 . S
H550 C562 0.950 . S
H551 C563 0.950 . S
C552 H544 0.950 . S
C552 C553 1.386 . S
C552 C554 1.391 . S
C553 C552 1.386 . S
C553 C557 1.393 . S
C554 H546 0.950 . S
C554 C552 1.391 . S
C554 C555 1.400 . S
C555 C554 1.400 . S
C555 C556 1.398 . S
C555 C561 1.491 . S
C556 H547 0.950 . S
C556 C555 1.398 . S
C556 C557 1.391 . S
C557 H545 0.950 . S
C557 C553 1.393 . S
C557 C556 1.391 . S
C558 H548 0.950 . S
C558 C559 1.386 . S
C558 C560 1.391 . S
C559 C558 1.386 . S
C559 C563 1.393 . S
C560 H549 0.950 . S
C560 C558 1.391 . S
C560 C561 1.400 . S
C561 C555 1.491 . S
C561 C560 1.400 . S
C561 C562 1.398 . S
C562 H550 0.950 . S
C562 C561 1.398 . S
C562 C563 1.391 . S
C563 H551 0.950 . S
C563 C559 1.393 . S
C563 C562 1.391 . S
H564 C572 0.950 . S
H565 C577 0.950 . S
H566 C574 0.950 . S
H567 C576 0.950 . S
H568 C578 0.950 . S
H569 C580 0.950 . S
H570 C582 0.950 . S
H571 C583 0.950 . S
C572 H564 0.950 . S
C572 C573 1.386 . S
C572 C574 1.391 . S
C573 C572 1.386 . S
C573 C577 1.393 . S
C574 H566 0.950 . S
C574 C572 1.391 . S
C574 C575 1.400 . S
C575 C574 1.400 . S
C575 C576 1.398 . S
C575 C581 1.491 . S
C576 H567 0.950 . S
C576 C575 1.398 . S
C576 C577 1.391 . S
C577 H565 0.950 . S
C577 C573 1.393 . S
C577 C576 1.391 . S
C578 H568 0.950 . S
C578 C579 1.386 . S
C578 C580 1.391 . S
C579 C578 1.386 . S
C579 C583 1.393 . S
C580 H569 0.950 . S
C580 C578 1.391 . S
C580 C581 1.400 . S
C581 C575 1.491 . S
C581 C580 1.400 . S
C581 C582 1.398 . S
C582 H570 0.950 . S
C582 C581 1.398 . S
C582 C583 1.391 . S
C583 H571 0.950 . S
C583 C579 1.393 . S
C583 C582 1.391 . S
H584 C592 0.950 . S
H585 C597 0.950 . S
H586 C594 0.950 . S
H587 C596 0.950 . S
H588 C598 0.950 . S
H589 C600 0.950 . S
H590 C602 0.950 . S
H591 C603 0.950 . S
C592 H584 0.950 . S
C592 C593 1.386 . S
C592 C594 1.391 . S
C593 C592 1.386 . S
C593 C597 1.393 . S
C594 H586 0.950 . S
C594 C592 1.391 . S
C594 C595 1.400 . S
C595 C594 1.400 . S
C595 C596 1.398 . S
C595 C601 1.491 . S
C596 H587 0.950 . S
C596 C595 1.398 . S
C596 C597 1.391 . S
C597 H585 0.950 . S
C597 C593 1.393 . S
C597 C596 1.391 . S
C598 H588 0.950 . S
C598 C599 1.386 . S
C598 C600 1.391 . S
C599 C598 1.386 . S
C599 C603 1.393 . S
C600 H589 0.950 . S
C600 C598 1.391 . S
C600 C601 1.400 . S
C601 C595 1.491 . S
C601 C600 1.400 . S
C601 C602 1.398 . S
C602 H590 0.950 . S
C602 C601 1.398 . S
C602 C603 1.391 . S
C603 H591 0.950 . S
C603 C599 1.393 . S
C603 C602 1.391 . S
H604 C612 0.950 . S
H605 C617 0.950 . S
H606 C614 0.950 . S
H607 C616 0.950 . S
H608 C618 0.950 . S
H609 C620 0.950 . S
H610 C622 0.950 . S
H611 C623 0.950 . S
C612 H604 0.950 . S
C612 C613 1.386 . S
C612 C614 1.391 . S
C613 C612 1.386 . S
C613 C617 1.393 . S
C614 H606 0.950 . S
C614 C612 1.391 . S
C614 C615 1.400 . S
C615 C614 1.400 . S
C615 C616 1.398 . S
C615 C621 1.491 . S
C616 H607 0.950 . S
C616 C615 1.398 . S
C616 C617 1.391 . S
C617 H605 0.950 . S
C617 C613 1.393 . S
C617 C616 1.391 . S
C618 H608 0.950 . S
C618 C619 1.386 . S
C618 C620 1.391 . S
C619 C618 1.386 . S
C619 C623 1.393 . S
C620 H609 0.950 . S
C620 C618 1.391 . S
C620 C621 1.400 . S
C621 C615 1.491 . S
C621 C620 1.400 . S
C621 C622 1.398 . S
C622 H610 0.950 . S
C622 C621 1.398 . S
C622 C623 1.391 . S
C623 H611 0.950 . S
C623 C619 1.393 . S
C623 C622 1.391 . S
H624 C632 0.950 . S
H625 C637 0.950 . S
H626 C634 0.950 . S
H627 C636 0.950 . S
H628 C638 0.950 . S
H629 C640 0.950 . S
H630 C642 0.950 . S
H631 C643 0.950 . S
C632 H624 0.950 . S
C632 C633 1.386 . S
C632 C634 1.391 . S
C633 C632 1.386 . S
C633 C637 1.393 . S
C634 H626 0.950 . S
C634 C632 1.391 . S
C634 C635 1.400 . S
C635 C634 1.400 . S
C635 C636 1.398 . S
C635 C641 1.491 . S
C636 H627 0.950 . S
C636 C635 1.398 . S
C636 C637 1.391 . S
C637 H625 0.950 . S
C637 C633 1.393 . S
C637 C636 1.391 . S
C638 H628 0.950 . S
C638 C639 1.386 . S
C638 C640 1.391 . S
C639 C638 1.386 . S
C639 C643 1.393 . S
C640 H629 0.950 . S
C640 C638 1.391 . S
C640 C641 1.400 . S
C641 C635 1.491 . S
C641 C640 1.400 . S
C641 C642 1.398 . S
C642 H630 0.950 . S
C642 C641 1.398 . S
C642 C643 1.391 . S
C643 H631 0.950 . S
C643 C639 1.393 . S
C643 C642 1.391 . S
H644 C652 0.950 . S
H645 C657 0.950 . S
H646 C654 0.950 . S
H647 C656 0.950 . S
H648 C658 0.950 . S
H649 C660 0.950 . S
H650 C662 0.950 . S
H651 C663 0.950 . S
C652 H644 0.950 . S
C652 C653 1.386 . S
C652 C654 1.391 . S
C653 C652 1.386 . S
C653 C657 1.393 . S
C654 H646 0.950 . S
C654 C652 1.391 . S
C654 C655 1.400 . S
C655 C654 1.400 . S
C655 C656 1.398 . S
C655 C661 1.491 1_455 S
C656 H647 0.950 . S
C656 C655 1.398 . S
C656 C657 1.391 . S
C657 H645 0.950 . S
C657 C653 1.393 . S
C657 C656 1.391 . S
C658 H648 0.950 . S
C658 C659 1.386 . S
C658 C660 1.391 . S
C659 C658 1.386 . S
C659 C663 1.393 . S
C660 H649 0.950 . S
C660 C658 1.391 . S
C660 C661 1.400 . S
C661 C655 1.491 1_655 S
C661 C660 1.400 . S
C661 C662 1.398 . S
C662 H650 0.950 . S
C662 C661 1.398 . S
C662 C663 1.391 . S
C663 H651 0.950 . S
C663 C659 1.393 . S
C663 C662 1.391 . S
H664 C672 0.950 . S
H665 C677 0.950 1_565 S
H666 C674 0.950 . S
H667 C676 0.950 . S
H668 C678 0.950 . S
H669 C680 0.950 . S
H670 C682 0.950 . S
H671 C683 0.950 1_545 S
C672 H664 0.950 . S
C672 C673 1.386 . S
C672 C674 1.391 . S
C673 C672 1.386 . S
C673 C677 1.393 . S
C674 H666 0.950 . S
C674 C672 1.391 . S
C674 C675 1.400 . S
C675 C674 1.400 . S
C675 C676 1.398 1_545 S
C675 C681 1.491 1_545 S
C676 H667 0.950 . S
C676 C675 1.398 1_565 S
C676 C677 1.391 1_565 S
C677 H665 0.950 1_545 S
C677 C673 1.393 . S
C677 C676 1.391 1_545 S
C678 H668 0.950 . S
C678 C679 1.386 . S
C678 C680 1.391 . S
C679 C678 1.386 . S
C679 C683 1.393 . S
C680 H669 0.950 . S
C680 C678 1.391 . S
C680 C681 1.400 . S
C681 C675 1.491 1_565 S
C681 C680 1.400 . S
C681 C682 1.398 1_565 S
C682 H670 0.950 . S
C682 C681 1.398 1_545 S
C682 C683 1.391 1_545 S
C683 H671 0.950 1_565 S
C683 C679 1.393 . S
C683 C682 1.391 1_565 S
H684 C692 0.950 . S
H685 C697 0.950 . S
H686 C694 0.950 . S
H687 C696 0.950 . S
H688 C698 0.950 . S
H689 C700 0.950 . S
H690 C702 0.950 . S
H691 C703 0.950 . S
C692 H684 0.950 . S
C692 C693 1.386 . S
C692 C694 1.391 . S
C693 C692 1.386 . S
C693 C697 1.393 . S
C694 H686 0.950 . S
C694 C692 1.391 . S
C694 C695 1.400 . S
C695 C694 1.400 . S
C695 C696 1.398 . S
C695 C701 1.491 . S
C696 H687 0.950 . S
C696 C695 1.398 . S
C696 C697 1.391 . S
C697 H685 0.950 . S
C697 C693 1.393 . S
C697 C696 1.391 . S
C698 H688 0.950 . S
C698 C699 1.386 . S
C698 C700 1.391 . S
C699 C698 1.386 . S
C699 C703 1.393 . S
C700 H689 0.950 . S
C700 C698 1.391 . S
C700 C701 1.400 . S
C701 C695 1.491 . S
C701 C700 1.400 . S
C701 C702 1.398 . S
C702 H690 0.950 . S
C702 C701 1.398 . S
C702 C703 1.391 . S
C703 H691 0.950 . S
C703 C699 1.393 . S
C703 C702 1.391 . S
H704 C712 0.950 . S
H705 C717 0.950 . S
H706 C714 0.950 . S
H707 C716 0.953 . S
H708 C718 0.950 . S
H709 C720 0.950 . S
H710 C722 0.950 . S
H711 C723 0.950 . S
C712 H704 0.950 . S
C712 C713 1.386 . S
C712 C714 1.391 . S
C713 C712 1.386 . S
C713 C717 1.393 . S
C714 H706 0.950 . S
C714 C712 1.391 . S
C714 C715 1.400 . S
C715 C714 1.400 . S
C715 C716 1.398 1_455 S
C715 C721 1.491 1_455 S
C716 H707 0.953 . S
C716 C715 1.398 1_655 S
C716 C717 1.391 1_655 S
C717 H705 0.950 . S
C717 C713 1.393 . S
C717 C716 1.391 1_455 S
C718 H708 0.950 . S
C718 C719 1.386 . S
C718 C720 1.391 . S
C719 C718 1.386 . S
C719 C723 1.393 . S
C720 H709 0.950 . S
C720 C718 1.391 . S
C720 C721 1.400 . S
C721 C715 1.491 1_655 S
C721 C720 1.400 . S
C721 C722 1.398 1_655 S
C722 H710 0.950 . S
C722 C721 1.398 1_455 S
C722 C723 1.391 1_455 S
C723 H711 0.950 . S
C723 C719 1.393 . S
C723 C722 1.391 1_655 S
H724 C732 0.950 . S
H725 C737 0.950 . S
H726 C734 0.950 . S
H727 C736 0.950 1_545 S
H728 C738 0.950 . S
H729 C740 0.950 . S
H730 C742 0.950 1_565 S
H731 C743 0.950 . S
C732 H724 0.950 . S
C732 C733 1.386 . S
C732 C734 1.391 . S
C733 C732 1.386 . S
C733 C737 1.393 . S
C734 H726 0.950 . S
C734 C732 1.391 . S
C734 C735 1.400 . S
C735 C734 1.400 . S
C735 C736 1.398 . S
C735 C741 1.491 1_565 S
C736 H727 0.950 1_565 S
C736 C735 1.398 . S
C736 C737 1.391 . S
C737 H725 0.950 . S
C737 C733 1.393 . S
C737 C736 1.391 . S
C738 H728 0.950 . S
C738 C739 1.386 . S
C738 C740 1.391 . S
C739 C738 1.386 . S
C739 C743 1.393 . S
C740 H729 0.950 . S
C740 C738 1.391 . S
C740 C741 1.400 . S
C741 C735 1.491 1_545 S
C741 C740 1.400 . S
C741 C742 1.398 . S
C742 H730 0.950 1_545 S
C742 C741 1.398 . S
C742 C743 1.391 . S
C743 H731 0.950 . S
C743 C739 1.393 . S
C743 C742 1.391 . S
H744 C752 0.950 . S
H745 C757 0.950 . S
H746 C754 0.950 . S
H747 C756 0.950 . S
H748 C758 0.950 . S
H749 C760 0.950 . S
H750 C762 0.950 . S
H751 C763 0.950 . S
C752 H744 0.950 . S
C752 C753 1.386 . S
C752 C754 1.391 . S
C753 C752 1.386 . S
C753 C757 1.393 . S
C754 H746 0.950 . S
C754 C752 1.391 . S
C754 C755 1.400 . S
C755 C754 1.400 . S
C755 C756 1.398 . S
C755 C761 1.491 . S
C756 H747 0.950 . S
C756 C755 1.398 . S
C756 C757 1.391 . S
C757 H745 0.950 . S
C757 C753 1.393 . S
C757 C756 1.391 . S
C758 H748 0.950 . S
C758 C759 1.386 . S
C758 C760 1.391 . S
C759 C758 1.386 . S
C759 C763 1.393 . S
C760 H749 0.950 . S
C760 C758 1.391 . S
C760 C761 1.400 . S
C761 C755 1.491 . S
C761 C760 1.400 . S
C761 C762 1.398 . S
C762 H750 0.950 . S
C762 C761 1.398 . S
C762 C763 1.391 . S
C763 H751 0.950 . S
C763 C759 1.393 . S
C763 C762 1.391 . S
H764 C772 0.950 . S
H765 C777 0.950 . S
H766 C774 0.950 . S
H767 C776 0.950 . S
H768 C778 0.950 . S
H769 C780 0.950 . S
H770 C782 0.950 . S
H771 C783 0.950 . S
C772 H764 0.950 . S
C772 C773 1.386 . S
C772 C774 1.391 . S
C773 C772 1.386 . S
C773 C777 1.393 . S
C774 H766 0.950 . S
C774 C772 1.391 . S
C774 C775 1.400 . S
C775 C774 1.400 . S
C775 C776 1.398 . S
C775 C781 1.491 . S
C776 H767 0.950 . S
C776 C775 1.398 . S
C776 C777 1.391 . S
C777 H765 0.950 . S
C777 C773 1.393 . S
C777 C776 1.391 . S
C778 H768 0.950 . S
C778 C779 1.386 . S
C778 C780 1.391 . S
C779 C778 1.386 . S
C779 C783 1.393 . S
C780 H769 0.950 . S
C780 C778 1.391 . S
C780 C781 1.400 . S
C781 C775 1.491 . S
C781 C780 1.400 . S
C781 C782 1.398 . S
C782 H770 0.950 . S
C782 C781 1.398 . S
C782 C783 1.391 . S
C783 H771 0.950 . S
C783 C779 1.393 . S
C783 C782 1.391 . S
H784 C792 0.950 . S
H785 C797 0.950 . S
H786 C794 0.950 . S
H787 C796 0.950 . S
H788 C798 0.950 . S
H789 C800 0.950 . S
H790 C802 0.950 . S
H791 C803 0.950 . S
C792 H784 0.950 . S
C792 C793 1.386 . S
C792 C794 1.391 . S
C793 C792 1.386 . S
C793 C797 1.393 . S
C794 H786 0.950 . S
C794 C792 1.391 . S
C794 C795 1.400 . S
C795 C794 1.400 . S
C795 C796 1.398 . S
C795 C801 1.491 . S
C796 H787 0.950 . S
C796 C795 1.398 . S
C796 C797 1.391 . S
C797 H785 0.950 . S
C797 C793 1.393 . S
C797 C796 1.391 . S
C798 H788 0.950 . S
C798 C799 1.386 . S
C798 C800 1.391 . S
C799 C798 1.386 . S
C799 C803 1.393 . S
C800 H789 0.950 . S
C800 C798 1.391 . S
C800 C801 1.400 . S
C801 C795 1.491 . S
C801 C800 1.400 . S
C801 C802 1.398 . S
C802 H790 0.950 . S
C802 C801 1.398 . S
C802 C803 1.391 . S
C803 H791 0.950 . S
C803 C799 1.393 . S
C803 C802 1.391 . S
H804 C812 0.950 . S
H805 C817 0.950 . S
H806 C814 0.950 . S
H807 C816 0.950 . S
H808 C818 0.950 . S
H809 C820 0.950 . S
H810 C822 0.950 . S
H811 C823 0.950 . S
C812 H804 0.950 . S
C812 C813 1.386 . S
C812 C814 1.391 . S
C813 C812 1.386 . S
C813 C817 1.393 . S
C814 H806 0.950 . S
C814 C812 1.391 . S
C814 C815 1.400 . S
C815 C814 1.400 . S
C815 C816 1.398 . S
C815 C821 1.491 . S
C816 H807 0.950 . S
C816 C815 1.398 . S
C816 C817 1.391 . S
C817 H805 0.950 . S
C817 C813 1.393 . S
C817 C816 1.391 . S
C818 H808 0.950 . S
C818 C819 1.386 . S
C818 C820 1.391 . S
C819 C818 1.386 . S
C819 C823 1.393 . S
C820 H809 0.950 . S
C820 C818 1.391 . S
C820 C821 1.400 . S
C821 C815 1.491 . S
C821 C820 1.400 . S
C821 C822 1.398 . S
C822 H810 0.950 . S
C822 C821 1.398 . S
C822 C823 1.391 . S
C823 H811 0.950 . S
C823 C819 1.393 . S
C823 C822 1.391 . S
H824 C832 0.950 1_455 S
H825 C837 0.950 . S
H826 C834 0.950 . S
H827 C836 0.950 . S
H828 C838 0.950 . S
H829 C840 0.950 . S
H830 C842 0.950 . S
H831 C843 0.950 . S
C832 H824 0.950 1_655 S
C832 C833 1.386 . S
C832 C834 1.391 . S
C833 C832 1.386 . S
C833 C837 1.393 . S
C834 H826 0.950 . S
C834 C832 1.391 . S
C834 C835 1.400 . S
C835 C834 1.400 . S
C835 C836 1.398 . S
C835 C841 1.491 . S
C836 H827 0.950 . S
C836 C835 1.398 . S
C836 C837 1.391 . S
C837 H825 0.950 . S
C837 C833 1.393 . S
C837 C836 1.391 . S
C838 H828 0.950 . S
C838 C839 1.386 . S
C838 C840 1.391 . S
C839 C838 1.386 . S
C839 C843 1.393 . S
C840 H829 0.950 . S
C840 C838 1.391 . S
C840 C841 1.400 . S
C841 C835 1.491 . S
C841 C840 1.400 . S
C841 C842 1.398 . S
C842 H830 0.950 . S
C842 C841 1.398 . S
C842 C843 1.391 . S
C843 H831 0.950 . S
C843 C839 1.393 . S
C843 C842 1.391 . S
H844 C852 0.950 . S
H845 C857 0.950 1_545 S
H846 C854 0.950 . S
H847 C856 0.950 . S
H848 C858 0.950 . S
H849 C860 0.950 . S
H850 C862 0.950 . S
H851 C863 0.950 . S
C852 H844 0.950 . S
C852 C853 1.386 . S
C852 C854 1.391 . S
C853 C852 1.386 . S
C853 C857 1.393 . S
C854 H846 0.950 . S
C854 C852 1.391 . S
C854 C855 1.400 . S
C855 C854 1.400 . S
C855 C856 1.398 . S
C855 C861 1.491 . S
C856 H847 0.950 . S
C856 C855 1.398 . S
C856 C857 1.391 . S
C857 H845 0.950 1_565 S
C857 C853 1.393 . S
C857 C856 1.391 . S
C858 H848 0.950 . S
C858 C859 1.386 . S
C858 C860 1.391 . S
C859 C858 1.386 . S
C859 C863 1.393 . S
C860 H849 0.950 . S
C860 C858 1.391 . S
C860 C861 1.400 . S
C861 C855 1.491 . S
C861 C860 1.400 . S
C861 C862 1.398 . S
C862 H850 0.950 . S
C862 C861 1.398 . S
C862 C863 1.391 . S
C863 H851 0.950 . S
C863 C859 1.393 . S
C863 C862 1.391 . S
C513 C403 1.139 . S
C519 C69 0.947 . S
C533 C487 1.133 . S
C539 C153 0.943 . S
C553 C67 1.136 . S
C559 C237 0.964 . S
C573 C151 1.133 . S
C579 C321 0.943 . S
C593 C235 1.140 . S
C599 C405 0.976 . S
C613 C319 1.159 . S
C619 C489 1.005 . S
C633 C63 1.474 . S
C639 C315 1.463 . S
C653 C399 1.448 . S
C659 C147 1.451 . S
C673 C483 1.456 . S
C679 C231 1.467 . S
C693 C242 1.670 . S
C699 C494 1.664 . S
C713 C74 1.666 . S
C719 C326 1.675 . S
C733 C410 1.675 . S
C739 C158 1.678 . S
C753 C476 1.085 . S
C759 C58 1.030 . S
C773 C142 0.976 1_455 S
C779 C56 1.080 . S
C793 C226 0.979 1_545 S
C799 C140 1.083 . S
C813 C224 1.091 . S
C819 C310 1.000 . S
C833 C394 1.004 1_655 S
C839 C308 1.092 . S
C853 C478 0.975 1_565 S
C859 C392 1.070 . S
