# Generated by pormake.
# Topology why, (6)-cn, num edge types: 1
# Building blocks:
#     Node 0, Type 0, BuildingBlock: BETDIP_clean_sbu_0, # of connection points: 6
#     Node 1, Type 0, BuildingBlock: BETDIP_clean_sbu_0, # of connection points: 6
#     Node 2, Type 0, BuildingBlock: BETDIP_clean_sbu_0, # of connection points: 6
#     Node 3, Type 0, BuildingBlock: BETDIP_clean_sbu_0, # of connection points: 6
#     Node 4, Type 0, BuildingBlock: BETDIP_clean_sbu_0, # of connection points: 6
#     Node 5, Type 0, BuildingBlock: BETDIP_clean_sbu_0, # of connection points: 6
#     Node 6, Type 0, BuildingBlock: BETDIP_clean_sbu_0, # of connection points: 6
#     Node 7, Type 0, BuildingBlock: BETDIP_clean_sbu_0, # of connection points: 6
#     Node 8, Type 0, BuildingBlock: BETDIP_clean_sbu_0, # of connection points: 6
#     Node 9, Type 0, BuildingBlock: BETDIP_clean_sbu_0, # of connection points: 6
#     Node 10, Type 0, BuildingBlock: BETDIP_clean_sbu_0, # of connection points: 6
#     Node 11, Type 0, BuildingBlock: BETDIP_clean_sbu_0, # of connection points: 6
#     Node 12, Type 0, BuildingBlock: BETDIP_clean_sbu_0, # of connection points: 6
#     Node 13, Type 0, BuildingBlock: BETDIP_clean_sbu_0, # of connection points: 6
#     Node 14, Type 0, BuildingBlock: BETDIP_clean_sbu_0, # of connection points: 6
#     Node 15, Type 0, BuildingBlock: BETDIP_clean_sbu_0, # of connection points: 6
#     Edge 16, Type (0, 0), BuildingBlock: OJICUG_clean_linker_0, # of connection points: 2
#     Edge 17, Type (0, 0), BuildingBlock: OJICUG_clean_linker_0, # of connection points: 2
#     Edge 18, Type (0, 0), BuildingBlock: OJICUG_clean_linker_0, # of connection points: 2
#     Edge 19, Type (0, 0), BuildingBlock: OJICUG_clean_linker_0, # of connection points: 2
#     Edge 20, Type (0, 0), BuildingBlock: OJICUG_clean_linker_0, # of connection points: 2
#     Edge 21, Type (0, 0), BuildingBlock: OJICUG_clean_linker_0, # of connection points: 2
#     Edge 22, Type (0, 0), BuildingBlock: OJICUG_clean_linker_0, # of connection points: 2
#     Edge 23, Type (0, 0), BuildingBlock: OJICUG_clean_linker_0, # of connection points: 2
#     Edge 24, Type (0, 0), BuildingBlock: OJICUG_clean_linker_0, # of connection points: 2
#     Edge 25, Type (0, 0), BuildingBlock: OJICUG_clean_linker_0, # of connection points: 2
#     Edge 26, Type (0, 0), BuildingBlock: OJICUG_clean_linker_0, # of connection points: 2
#     Edge 27, Type (0, 0), BuildingBlock: OJICUG_clean_linker_0, # of connection points: 2
#     Edge 28, Type (0, 0), BuildingBlock: OJICUG_clean_linker_0, # of connection points: 2
#     Edge 29, Type (0, 0), BuildingBlock: OJICUG_clean_linker_0, # of connection points: 2
#     Edge 30, Type (0, 0), BuildingBlock: OJICUG_clean_linker_0, # of connection points: 2
#     Edge 31, Type (0, 0), BuildingBlock: OJICUG_clean_linker_0, # of connection points: 2
#     Edge 32, Type (0, 0), BuildingBlock: OJICUG_clean_linker_0, # of connection points: 2
#     Edge 33, Type (0, 0), BuildingBlock: OJICUG_clean_linker_0, # of connection points: 2
#     Edge 34, Type (0, 0), BuildingBlock: OJICUG_clean_linker_0, # of connection points: 2
#     Edge 35, Type (0, 0), BuildingBlock: OJICUG_clean_linker_0, # of connection points: 2
#     Edge 36, Type (0, 0), BuildingBlock: OJICUG_clean_linker_0, # of connection points: 2
#     Edge 37, Type (0, 0), BuildingBlock: OJICUG_clean_linker_0, # of connection points: 2
#     Edge 38, Type (0, 0), BuildingBlock: OJICUG_clean_linker_0, # of connection points: 2
#     Edge 39, Type (0, 0), BuildingBlock: OJICUG_clean_linker_0, # of connection points: 2
#     Edge 40, Type (0, 0), BuildingBlock: OJICUG_clean_linker_0, # of connection points: 2
#     Edge 41, Type (0, 0), BuildingBlock: OJICUG_clean_linker_0, # of connection points: 2
#     Edge 42, Type (0, 0), BuildingBlock: OJICUG_clean_linker_0, # of connection points: 2
#     Edge 43, Type (0, 0), BuildingBlock: OJICUG_clean_linker_0, # of connection points: 2
#     Edge 44, Type (0, 0), BuildingBlock: OJICUG_clean_linker_0, # of connection points: 2
#     Edge 45, Type (0, 0), BuildingBlock: OJICUG_clean_linker_0, # of connection points: 2
#     Edge 46, Type (0, 0), BuildingBlock: OJICUG_clean_linker_0, # of connection points: 2
#     Edge 47, Type (0, 0), BuildingBlock: OJICUG_clean_linker_0, # of connection points: 2
#     Edge 48, Type (0, 0), BuildingBlock: OJICUG_clean_linker_0, # of connection points: 2
#     Edge 49, Type (0, 0), BuildingBlock: OJICUG_clean_linker_0, # of connection points: 2
#     Edge 50, Type (0, 0), BuildingBlock: OJICUG_clean_linker_0, # of connection points: 2
#     Edge 51, Type (0, 0), BuildingBlock: OJICUG_clean_linker_0, # of connection points: 2
#     Edge 52, Type (0, 0), BuildingBlock: OJICUG_clean_linker_0, # of connection points: 2
#     Edge 53, Type (0, 0), BuildingBlock: OJICUG_clean_linker_0, # of connection points: 2
#     Edge 54, Type (0, 0), BuildingBlock: OJICUG_clean_linker_0, # of connection points: 2
#     Edge 55, Type (0, 0), BuildingBlock: OJICUG_clean_linker_0, # of connection points: 2
#     Edge 56, Type (0, 0), BuildingBlock: OJICUG_clean_linker_0, # of connection points: 2
#     Edge 57, Type (0, 0), BuildingBlock: OJICUG_clean_linker_0, # of connection points: 2
#     Edge 58, Type (0, 0), BuildingBlock: OJICUG_clean_linker_0, # of connection points: 2
#     Edge 59, Type (0, 0), BuildingBlock: OJICUG_clean_linker_0, # of connection points: 2
#     Edge 60, Type (0, 0), BuildingBlock: OJICUG_clean_linker_0, # of connection points: 2
#     Edge 61, Type (0, 0), BuildingBlock: OJICUG_clean_linker_0, # of connection points: 2
#     Edge 62, Type (0, 0), BuildingBlock: OJICUG_clean_linker_0, # of connection points: 2
#     Edge 63, Type (0, 0), BuildingBlock: OJICUG_clean_linker_0, # of connection points: 2
# Relax obj value: 0.572
# Max RMSD: 0.262
# Mean RMSD: 0.262
data_MOF--net-why--node1-BETDIP_clean_sbu_0--edge1-OJICUG_clean_linker_0
_symmetry_space_group_name_H-M    P1
_symmetry_Int_Tables_number       1
_symmetry_cell_setting            triclinic
loop_
_symmetry_equiv_pos_as_xyz
'x, y, z'
_cell_length_a     33.969889
_cell_length_b     34.225964
_cell_length_c     32.161603
_cell_angle_alpha  89.8037
_cell_angle_beta   90.326109
_cell_angle_gamma 89.63046
loop_
_atom_site_label
_atom_site_type_symbol
_atom_site_fract_x
_atom_site_fract_y
_atom_site_fract_z
_atom_type_partial_charge
Tb0 Tb 0.55603 0.26908 0.04106 0.0
Tb1 Tb 0.51262 0.3147 0.08671 0.0
C2 C 0.60627 0.23114 1.00033 0.0
C3 C 0.63297 0.24146 0.96679 0.0
C4 C 0.62863 0.27737 0.94612 0.0
C5 C 0.64889 0.2843 0.90929 0.0
C6 C 0.67393 0.25541 0.89296 0.0
C7 C 0.68045 0.22073 0.9157 0.0
C8 C 0.65975 0.21366 0.95219 0.0
C9 C 0.53099 0.22888 0.11091 0.0
C10 C 0.60084 0.347 0.07694 0.0
C11 C 0.47941 0.3347 0.15235 0.0
C12 C 0.49289 0.33079 0.19546 0.0
C13 C 0.53315 0.3263 0.20479 0.0
C14 C 0.54607 0.3258 0.24613 0.0
C15 C 0.51883 0.32947 0.2786 0.0
C16 C 0.47825 0.33051 0.26876 0.0
C17 C 0.46548 0.33129 0.22755 0.0
C18 C 0.51169 0.34755 0.01386 0.0
C19 C 0.46832 0.27579 0.0069 0.0
O20 O 0.56909 0.23359 0.99031 0.0
O21 O 0.61361 0.24662 0.03652 0.0
O22 O 0.54556 0.26315 0.10823 0.0
O23 O 0.52678 0.21873 0.07265 0.0
O24 O 0.60348 0.31488 0.05339 0.0
O25 O 0.56628 0.35281 0.09554 0.0
O26 O 0.47238 0.30156 0.13369 0.0
O27 O 0.4994 0.35898 0.1292 0.0
O28 O 0.5413 0.3294 0.02902 0.0
O29 O 0.48291 0.34917 0.04016 0.0
O30 O 0.46321 0.28941 0.04569 0.0
O31 O 0.50525 0.26798 0.9965 0.0
H32 H 0.60788 0.29905 0.95723 0.0
H33 H 0.64308 0.31119 0.89243 0.0
H34 H 0.70028 0.19832 0.90435 0.0
H35 H 0.66326 0.1858 0.96783 0.0
H36 H 0.55468 0.32474 0.18012 0.0
H37 H 0.57739 0.32494 0.25265 0.0
H38 H 0.45626 0.33403 0.29273 0.0
H39 H 0.43429 0.33396 0.22078 0.0
Tb40 Tb 0.80668 0.79939 0.29053 0.0
Tb41 Tb 0.76257 0.75449 0.33207 0.0
C42 C 0.85206 0.83626 0.24281 0.0
C43 C 0.8475 0.85328 0.20143 0.0
C44 C 0.81478 0.84402 0.17668 0.0
C45 C 0.8092 0.86239 0.13829 0.0
C46 C 0.83642 0.89012 0.12425 0.0
C47 C 0.86927 0.89909 0.14921 0.0
C48 C 0.87473 0.88078 0.18758 0.0
C49 C 0.84127 0.78419 0.36712 0.0
C50 C 0.72893 0.84408 0.32363 0.0
C51 C 0.74402 0.7237 0.39941 0.0
C52 C 0.76677 0.69544 0.42481 0.0
C53 C 0.7992 0.70713 0.44918 0.0
C54 C 0.8203 0.67974 0.47296 0.0
C55 C 0.80922 0.64023 0.47299 0.0
C56 C 0.77828 0.62855 0.44643 0.0
C57 C 0.75723 0.65579 0.423 0.0
C58 C 0.7277 0.75829 0.26062 0.0
C59 C 0.80068 0.70985 0.2564 0.0
O60 O 0.85067 0.79829 0.24496 0.0
O61 O 0.83071 0.85266 0.27136 0.0
O62 O 0.8264 0.76024 0.341 0.0
O63 O 0.83261 0.81786 0.35159 0.0
O64 O 0.76049 0.84701 0.29934 0.0
O65 O 0.72406 0.80898 0.34121 0.0
O66 O 0.75834 0.75903 0.39686 0.0
O67 O 0.73159 0.71083 0.36347 0.0
O68 O 0.74607 0.787 0.27669 0.0
O69 O 0.72497 0.7291 0.28629 0.0
O70 O 0.78583 0.7043 0.29421 0.0
O71 O 0.8097 0.74678 0.24704 0.0
H72 H 0.79353 0.8228 0.18723 0.0
H73 H 0.78387 0.85469 0.1195 0.0
H74 H 0.89042 0.92075 0.13936 0.0
H75 H 0.8999 0.88844 0.20665 0.0
H76 H 0.80773 0.73751 0.45078 0.0
H77 H 0.84382 0.6898 0.49305 0.0
H78 H 0.76801 0.59868 0.44587 0.0
H79 H 0.73273 0.64583 0.40418 0.0
Tb80 Tb 0.27543 1.04579 0.53822 0.0
Tb81 Tb 0.31675 1.00776 0.58201 0.0
C82 C 0.23256 1.09102 0.49607 0.0
C83 C 0.20959 1.08418 0.458 0.0
C84 C 0.18809 1.04955 0.45285 0.0
C85 C 0.17105 1.04077 0.41446 0.0
C86 C 0.17583 1.06611 0.38049 0.0
C87 C 0.1967 1.10104 0.38587 0.0
C88 C 0.21332 1.11007 0.42442 0.0
C89 C 0.27832 1.08156 0.62592 0.0
C90 C 0.22956 0.97101 0.5746 0.0
C91 C 0.34921 0.99009 0.64959 0.0
C92 C 0.37322 1.01429 0.67771 0.0
C93 C 0.3562 1.04291 0.70339 0.0
C94 C 0.37962 1.06459 0.73064 0.0
C95 C 0.42039 1.05737 0.73342 0.0
C96 C 0.43746 1.0309 0.70505 0.0
C97 C 0.41415 1.00953 0.67788 0.0
C98 C 0.31687 0.96783 0.51312 0.0
C99 C 0.3621 1.04279 0.50421 0.0
O100 O 0.27057 1.08795 0.49116 0.0
O101 O 0.22061 1.07344 0.52988 0.0
O102 O 0.29999 1.07053 0.59422 0.0
O103 O 0.30099 1.07116 0.59498 0.0
O104 O 0.22542 1.00369 0.55233 0.0
O105 O 0.26555 0.96571 0.59036 0.0
O106 O 0.31183 0.99886 0.64648 0.0
O107 O 0.36483 0.98291 0.61351 0.0
O108 O 0.287 0.98566 0.52694 0.0
O109 O 0.34631 0.9696 0.53873 0.0
O110 O 0.36675 1.03315 0.54421 0.0
O111 O 0.32498 1.04687 0.49215 0.0
H112 H 0.1854 1.02869 0.47806 0.0
H113 H 1.1552 1.0136 0.41095 0.0
H114 H 0.20033 1.12124 0.36019 0.0
H115 H 0.23018 1.13666 0.42768 0.0
H116 H 0.32468 1.0476 0.7036 0.0
H117 H 0.36545 1.08492 0.75161 0.0
H118 H 0.46854 1.02379 0.70601 0.0
H119 H 0.42817 0.98811 0.65801 0.0
Tb120 Tb 1.02602 0.51732 0.79524 0.0
Tb121 Tb 1.07005 0.56244 0.83824 0.0
C122 C 0.98098 0.4816 0.74587 0.0
C123 C 0.98527 0.46763 0.70328 0.0
C124 C 1.01827 0.4781 0.67983 0.0
C125 C 1.02412 0.46198 0.64053 0.0
C126 C 0.99682 0.43541 0.62415 0.0
C127 C 0.9634 0.42561 0.64755 0.0
C128 C 0.95775 0.44156 0.68694 0.0
C129 C 0.99223 0.52938 0.87282 0.0
C130 C 1.10416 0.4728 0.82845 0.0
C131 C 1.0915 0.59001 0.90678 0.0
C132 C 1.07069 0.59371 0.94656 0.0
C133 C 1.04931 0.56227 0.96323 0.0
C134 C 1.03545 0.56377 0.004 0.0
C135 C 1.04306 0.5966 0.02877 0.0
C136 C 1.06033 0.62969 0.0101 0.0
C137 C 1.0742 0.62811 0.96944 0.0
C138 C 1.10583 0.5592 0.76752 0.0
C139 C 1.03461 0.60708 0.76006 0.0
O140 O 0.98059 0.51939 0.75068 0.0
O141 O 1.00389 0.46436 0.7729 0.0
O142 O 1.00676 0.55415 0.8475 0.0
O143 O 1.00011 0.4964 0.85553 0.0
O144 O 1.07281 0.47007 0.8035 0.0
O145 O 1.10831 0.50745 0.84713 0.0
O146 O 1.09922 0.5544 0.895 0.0
O147 O 1.07865 0.61175 0.8762 0.0
O148 O 1.08653 0.53088 0.7828 0.0
O149 O 1.10909 0.58784 0.79368 0.0
O150 O 1.0507 0.61262 0.79745 0.0
O151 O 1.02372 0.57042 0.75165 0.0
H152 H 1.03967 0.49831 0.69223 0.0
H153 H 1.04989 0.47028 0.62298 0.0
H154 H 0.94214 0.40486 0.63582 0.0
H155 H 0.93233 0.43298 0.70493 0.0
H156 H 1.04554 0.53555 0.94579 0.0
H157 H 1.02206 0.53799 0.01732 0.0
H158 H 1.06708 0.6555 0.02809 0.0
H159 H 1.08999 0.65286 0.95689 0.0
Tb160 Tb 0.81717 1.01207 0.90004 0.0
Tb161 Tb 0.77452 1.04906 0.94223 0.0
C162 C 0.8532 0.99212 0.83537 0.0
C163 C 0.88638 1.0108 0.81393 0.0
C164 C 0.8819 1.04612 0.79178 0.0
C165 C 0.91383 1.06222 0.77057 0.0
C166 C 0.95068 1.04327 0.77122 0.0
C167 C 0.95543 1.00948 0.79601 0.0
C168 C 0.92365 0.99336 0.81674 0.0
C169 C 0.81967 0.97304 0.9695 0.0
C170 C 0.86132 1.05024 0.97734 0.0
C171 C 0.73081 1.09442 0.98245 0.0
C172 C 0.71197 1.08853 0.02265 0.0
C173 C 0.71746 1.05301 0.04387 0.0
C174 C 0.70071 1.04737 0.08286 0.0
C175 C 0.67818 1.07719 0.10115 0.0
C176 C 0.67233 1.11256 0.07938 0.0
C177 C 0.68929 1.11821 0.04042 0.0
C178 C 0.81297 1.10359 0.87773 0.0
C179 C 0.72971 0.97409 0.90811 0.0
O180 O 0.81941 1.01027 0.83453 0.0
O181 O 0.86122 0.97833 0.87208 0.0
O182 O 0.78856 0.98925 0.9556 0.0
O183 O 0.84908 0.97751 0.94471 0.0
O184 O 0.86644 1.04105 0.93735 0.0
O185 O 0.82401 1.05271 0.98838 0.0
O186 O 0.76923 1.09561 0.98396 0.0
O187 O 0.71804 1.0718 0.95275 0.0
O188 O 0.79276 1.07135 0.88267 0.0
O189 O 0.79262 1.07134 0.88115 0.0
O190 O 0.72557 1.00579 0.93139 0.0
O191 O 0.76543 0.96995 0.8913 0.0
H192 H 0.85356 1.06064 0.78968 0.0
H193 H 0.90914 1.0881 0.75165 0.0
H194 H 0.98294 0.99332 0.7968 0.0
H195 H 0.92803 0.96638 0.83396 0.0
H196 H 0.73516 1.02986 0.03044 0.0
H197 H 0.70613 1.02004 0.09905 0.0
H198 H 0.65463 1.13586 0.09246 0.0
H199 H 0.68496 1.14578 0.02442 0.0
Tb200 Tb 0.57298 0.56838 0.64896 0.0
Tb201 Tb 0.52839 0.52367 0.69072 0.0
C202 C 0.60994 0.58998 0.58652 0.0
C203 C 0.65183 0.58128 0.57983 0.0
C204 C 0.6666 0.57668 0.53971 0.0
C205 C 0.70666 0.56915 0.53399 0.0
C206 C 0.73254 0.56623 0.56838 0.0
C207 C 0.71718 0.56857 0.60859 0.0
C208 C 0.67711 0.57573 0.61426 0.0
C209 C 0.60618 0.56578 0.72117 0.0
C210 C 0.53298 0.61424 0.72205 0.0
C211 C 0.48383 0.48667 0.73941 0.0
C212 C 0.48913 0.46703 0.77963 0.0
C213 C 0.52246 0.47404 0.80445 0.0
C214 C 0.52773 0.45387 0.84201 0.0
C215 C 0.49975 0.42641 0.85517 0.0
C216 C 0.46675 0.4192 0.82971 0.0
C217 C 0.46151 0.43938 0.79231 0.0
C218 C 0.49446 0.53778 0.61336 0.0
C219 C 0.60685 0.47894 0.66062 0.0
O220 O 0.60254 0.61318 0.61773 0.0
O221 O 0.58686 0.55953 0.58604 0.0
O222 O 0.58874 0.53666 0.70507 0.0
O223 O 0.60813 0.59503 0.69575 0.0
O224 O 0.54831 0.61925 0.68434 0.0
O225 O 0.52405 0.57748 0.73222 0.0
O226 O 0.48705 0.52459 0.73913 0.0
O227 O 0.50269 0.47077 0.70871 0.0
O228 O 0.50949 0.56222 0.63872 0.0
O229 O 0.50213 0.50443 0.6302 0.0
O230 O 0.57486 0.476 0.68411 0.0
O231 O 0.6117 0.51382 0.64296 0.0
H232 H 0.64745 0.58005 0.51286 0.0
H233 H 0.71779 0.56841 0.5025 0.0
H234 H 0.73647 0.56692 0.63549 0.0
H235 H 0.66616 0.57805 0.64566 0.0
H236 H 0.54428 0.49508 0.79477 0.0
H237 H 0.55327 0.46028 0.86106 0.0
H238 H 0.44502 0.39776 0.8386 0.0
H239 H 0.43597 0.43321 0.77314 0.0
Tb240 Tb 1.02125 0.31624 0.39881 0.0
Tb241 Tb 1.06071 0.27871 0.44275 0.0
C242 C 0.98695 0.35141 0.34102 0.0
C243 C 0.96825 0.38983 0.34698 0.0
C244 C 0.93093 0.39769 0.33042 0.0
C245 C 0.91232 0.43326 0.3388 0.0
C246 C 0.93065 0.46154 0.36414 0.0
C247 C 0.96756 0.45306 0.38165 0.0
C248 C 0.98612 0.41754 0.37326 0.0
C249 C 1.01713 0.35574 0.46868 0.0
C250 C 0.9733 0.28077 0.47537 0.0
C251 C 1.10314 0.23358 0.48561 0.0
C252 C 1.11915 0.23941 0.52764 0.0
C253 C 1.10199 0.26739 0.55394 0.0
C254 C 1.11783 0.2743 0.59336 0.0
C255 C 1.15146 0.25378 0.6069 0.0
C256 C 1.16858 0.22576 0.58047 0.0
C257 C 1.15246 0.21857 0.54113 0.0
C258 C 1.0252 0.22599 0.37401 0.0
C259 C 1.10777 0.35308 0.41006 0.0
O260 O 0.97069 0.3226 0.36101 0.0
O261 O 1.02511 0.35086 0.34502 0.0
O262 O 1.04779 0.33836 0.45658 0.0
O263 O 0.98923 0.35254 0.44191 0.0
O264 O 0.96958 0.29267 0.43602 0.0
O265 O 1.01001 0.27437 0.48712 0.0
O266 O 1.0648 0.23094 0.48346 0.0
O267 O 1.11713 0.25691 0.45714 0.0
O268 O 1.04586 0.25766 0.38078 0.0
O269 O 1.04613 0.25776 0.37952 0.0
O270 O 1.10852 0.32449 0.43812 0.0
O271 O 1.075 0.35429 0.38733 0.0
H272 H 0.91635 0.37648 0.31082 0.0
H273 H 0.8843 0.43927 0.32377 0.0
H274 H 0.98248 0.47431 0.40091 0.0
H275 H 1.0146 0.41185 0.3874 0.0
H276 H 1.07656 0.28424 0.54378 0.0
H277 H 1.10435 0.29635 0.61284 0.0
H278 H 0.19439 0.20934 0.59032 0.0
H279 H 1.16618 0.19707 0.52114 0.0
Tb280 Tb 0.2577 0.76223 0.15116 0.0
Tb281 Tb 0.30815 0.8037 0.19106 0.0
C282 C 0.22974 0.70885 0.10711 0.0
C283 C 0.20322 0.67735 0.11954 0.0
C284 C 0.19593 0.6465 0.0924 0.0
C285 C 1.16535 0.62067 0.1006 0.0
C286 C 1.14121 0.62578 0.13578 0.0
C287 C 1.15087 0.65471 0.16477 0.0
C288 C 0.18205 0.68006 0.15692 0.0
C289 C 0.22272 0.78339 0.22096 0.0
C290 C 0.29928 0.71696 0.23041 0.0
C291 C 0.34801 0.85426 0.22903 0.0
C292 C 0.34121 0.87496 0.26796 0.0
C293 C 0.30483 0.87171 0.28802 0.0
C294 C 0.29967 0.88756 0.32749 0.0
C295 C 0.33083 0.90699 0.34738 0.0
C296 C 0.36682 0.91129 0.32641 0.0
C297 C 0.37202 0.89513 0.28705 0.0
C298 C 0.34396 0.77757 0.11925 0.0
C299 C 0.22951 0.84944 0.15585 0.0
O300 O 0.26522 0.70738 0.12283 0.0
O301 O 0.21442 0.74379 0.10924 0.0
O302 O 0.25862 0.77548 0.21654 0.0
O303 O 0.20467 0.77668 0.18628 0.0
O304 O 0.27746 0.71336 0.19591 0.0
O305 O 0.3132 0.75294 0.2369 0.0
O306 O 0.35327 0.81676 0.2333 0.0
O307 O 0.32368 0.86254 0.1987 0.0
O308 O 0.30896 0.7919 0.12306 0.0
O309 O 0.35676 0.77496 0.15686 0.0
O310 O 0.25806 0.84851 0.1846 0.0
O311 O 0.22768 0.81815 0.13157 0.0
H312 H 0.21216 0.64385 0.06363 0.0
H313 H 1.15825 0.59912 0.07717 0.0
H314 H 1.13262 0.65946 0.19183 0.0
H315 H 0.18788 0.70334 0.17871 0.0
H316 H 0.28084 0.85592 0.27362 0.0
H317 H 0.27176 0.88339 0.34297 0.0
H318 H 0.39114 0.9267 0.34064 0.0
H319 H 0.40035 0.89753 0.27202 0.0
Tb320 Tb 1.0562 0.76787 0.53746 0.0
Tb321 Tb 1.01618 0.8072 0.57844 0.0
C322 C 1.0982 0.72212 0.49564 0.0
C323 C 1.12106 0.7297 0.45767 0.0
C324 C 1.14357 0.76384 0.45375 0.0
C325 C 1.1604 0.77375 0.41566 0.0
C326 C 1.15456 0.75003 0.38064 0.0
C327 C 1.13272 0.7155 0.38479 0.0
C328 C 1.11623 0.70536 0.42304 0.0
C329 C 1.05299 0.73399 0.62642 0.0
C330 C 1.10379 0.84226 0.57145 0.0
C331 C 0.99408 0.84092 0.64309 0.0
C332 C 1.00124 0.88202 0.6532 0.0
C333 C 1.00803 0.89301 0.69438 0.0
C334 C 1.01714 0.9317 0.70371 0.0
C335 C 1.01973 0.96006 0.6719 0.0
C336 C 1.01463 0.94849 0.63045 0.0
C337 C 1.0056 0.90976 0.62117 0.0
C338 C 1.01604 0.84551 0.5082 0.0
C339 C 0.96865 0.77163 0.50256 0.0
O340 O 1.06017 0.7255 0.49072 0.0
O341 O 1.11041 0.73896 0.52977 0.0
O342 O 1.03143 0.74436 0.59404 0.0
O343 O 1.03046 0.74377 0.59475 0.0
O344 O 1.10785 0.80835 0.55178 0.0
O345 O 1.06745 0.84909 0.58428 0.0
O346 O 0.97062 0.83443 0.61163 0.0
O347 O 1.02596 0.8196 0.64152 0.0
O348 O 1.04599 0.82775 0.52266 0.0
O349 O 0.98662 0.84395 0.53345 0.0
O350 O 0.9642 0.78355 0.54183 0.0
O351 O 1.00576 0.7657 0.4915 0.0
H352 H 1.14721 0.78358 0.4797 0.0
H353 H 0.17689 0.80064 0.41326 0.0
H354 H 1.12821 0.69646 0.35837 0.0
H355 H 1.09861 0.67917 0.42526 0.0
H356 H 1.00579 0.87181 0.71934 0.0
H357 H 1.0199 0.93978 0.73613 0.0
H358 H 1.01613 0.96969 0.60544 0.0
H359 H 1.00168 0.9016 0.58893 0.0
Tb360 Tb 0.31057 0.29902 0.79024 0.0
Tb361 Tb 0.2615 0.25731 0.83637 0.0
C362 C 0.34641 0.3469 0.74479 0.0
C363 C 0.33687 0.36565 0.70473 0.0
C364 C 0.30259 0.38843 0.69948 0.0
C365 C 0.29344 0.4047 0.66075 0.0
C366 C 0.3181 0.39802 0.62659 0.0
C367 C 0.35218 0.37509 0.63179 0.0
C368 C 0.3616 0.35922 0.67062 0.0
C369 C 0.34791 0.27763 0.86337 0.0
C370 C 0.2325 0.34456 0.82822 0.0
C371 C 0.2505 0.21179 0.89588 0.0
C372 C 0.26209 0.21759 0.93931 0.0
C373 C 0.26964 0.25538 0.95413 0.0
C374 C 0.28084 0.26112 0.99549 0.0
C375 C 0.28475 0.22911 0.02264 0.0
C376 C 0.27974 0.19106 0.00661 0.0
C377 C 0.26849 0.18542 0.96531 0.0
C378 C 0.22376 0.27603 0.76762 0.0
C379 C 0.29872 0.2095 0.75693 0.0
O380 O 0.32525 0.35713 0.77674 0.0
O381 O 0.35198 0.30924 0.74337 0.0
O382 O 0.31271 0.29104 0.85838 0.0
O383 O 0.36102 0.27423 0.82607 0.0
O384 O 0.26158 0.34455 0.80015 0.0
O385 O 0.22976 0.31281 0.85204 0.0
O386 O 0.22309 0.23536 0.88149 0.0
O387 O 0.28028 0.2085 0.8706 0.0
O388 O 0.25998 0.26872 0.77136 0.0
O389 O 0.20634 0.26773 0.80247 0.0
O390 O 0.27729 0.20759 0.79179 0.0
O391 O 0.31384 0.2448 0.74856 0.0
H392 H 0.28271 0.39358 0.72513 0.0
H393 H 0.26694 0.42224 0.65737 0.0
H394 H 0.37191 0.37002 0.60598 0.0
H395 H 0.38811 0.34168 0.67398 0.0
H396 H 0.26603 0.28056 0.93392 0.0
H397 H 0.28453 0.29066 0.00676 0.0
H398 H 0.28174 1.16559 0.02659 0.0
H399 H 0.26379 1.15602 0.95399 0.0
Tb400 Tb 0.7765 0.54865 0.04467 0.0
Tb401 Tb 0.82073 0.50568 0.08551 0.0
C402 C 0.73871 0.59419 0.99713 0.0
C403 C 0.72031 0.58908 0.95654 0.0
C404 C 0.72961 0.55645 0.93213 0.0
C405 C 0.70999 0.55033 0.89453 0.0
C406 C 0.68098 0.57693 0.88103 0.0
C407 C 0.67155 0.60935 0.90592 0.0
C408 C 0.69113 0.61536 0.94346 0.0
C409 C 0.79037 0.58339 0.12121 0.0
C410 C 0.73149 0.47136 0.07563 0.0
C411 C 0.84548 0.48649 0.15591 0.0
C412 C 0.85658 0.51117 0.19155 0.0
C413 C 0.82831 0.53393 0.21255 0.0
C414 C 0.83838 0.55412 0.24868 0.0
C415 C 0.87668 0.5512 0.26505 0.0
C416 C 0.90573 0.53174 0.24138 0.0
C417 C 0.89567 0.51178 0.20523 0.0
C418 C 0.81872 0.46928 0.0154 0.0
C419 C 0.86655 0.54087 0.00953 0.0
O420 O 0.77699 0.59198 0.99828 0.0
O421 O 0.72275 0.5739 0.0267 0.0
O422 O 0.81487 0.56899 0.09533 0.0
O423 O 0.75686 0.57357 0.1058 0.0
O424 O 0.72823 0.50348 0.05235 0.0
O425 O 0.76703 0.46599 0.09276 0.0
O426 O 0.8082 0.48716 0.14582 0.0
O427 O 0.86834 0.48784 0.12337 0.0
O428 O 0.78945 0.4887 0.02942 0.0
O429 O 0.84719 0.46628 0.0424 0.0
O430 O 0.87215 0.52477 0.04685 0.0
O431 O 0.8295 0.55182 1.00106 0.0
H432 H 0.75203 0.53586 0.94223 0.0
H433 H 0.71805 0.5254 0.87567 0.0
H434 H 0.64898 0.63006 0.89633 0.0
H435 H 0.68334 0.64034 0.96237 0.0
H436 H 0.7979 0.53472 0.20233 0.0
H437 H 0.81543 0.5691 0.26574 0.0
H438 H 0.93565 0.52842 0.25265 0.0
H439 H 0.91813 0.4951 0.1892 0.0
Tb440 Tb 0.52822 1.02112 0.28898 0.0
Tb441 Tb 0.56632 1.06171 0.33011 0.0
C442 C 0.48128 0.9783 0.24998 0.0
C443 C 0.48772 0.95557 0.21242 0.0
C444 C 0.5238 0.95863 0.19177 0.0
C445 C 0.5294 0.93999 0.15389 0.0
C446 C 0.49902 0.91776 0.13628 0.0
C447 C 0.4634 0.91353 0.15803 0.0
C448 C 0.4577 0.93261 0.1958 0.0
C449 C 0.4937 1.02529 0.37708 0.0
C450 C 0.6026 0.97404 0.32502 0.0
C451 C 0.58571 1.09415 0.39682 0.0
C452 C 0.56257 1.1176 0.42642 0.0
C453 C 0.53633 1.10024 0.45456 0.0
C454 C 0.51686 1.123 0.48415 0.0
C455 C 0.52404 1.16338 0.48674 0.0
C456 C 0.54752 0.18089 0.45588 0.0
C457 C 0.56671 1.15825 0.4264 0.0
C458 C 0.6072 1.06136 0.26212 0.0
C459 C 0.53115 1.10575 0.2507 0.0
O460 O 0.48358 1.01603 0.24438 0.0
O461 O 0.50127 0.96651 0.28254 0.0
O462 O 0.50361 1.04625 0.34451 0.0
O463 O 0.50294 1.04731 0.3452 0.0
O464 O 0.56918 0.97025 0.30389 0.0
O465 O 0.60873 1.0101 0.33907 0.0
O466 O 0.57765 1.05699 0.3943 0.0
O467 O 0.5906 1.10994 0.36036 0.0
O468 O 0.58892 1.03164 0.27543 0.0
O469 O 0.60473 1.09055 0.28736 0.0
O470 O 0.54063 1.11137 0.2906 0.0
O471 O 0.52728 1.06853 0.24053 0.0
H472 H 0.54718 0.97648 0.20443 0.0
H473 H 0.55694 0.94423 0.13772 0.0
H474 H 0.4397 0.896 0.14554 0.0
H475 H 0.4297 0.93012 0.21149 0.0
H476 H 0.53212 1.06894 0.45494 0.0
H477 H 0.49863 1.10855 0.50697 0.0
H478 H 0.5544 0.21172 0.45654 0.0
H479 H 0.58629 0.17251 0.40471 0.0
Tb480 Tb 0.31842 0.51131 0.4002 0.0
Tb481 Tb 0.27627 0.56031 0.44528 0.0
C482 C 0.37249 0.49182 0.35199 0.0
C483 C 0.41132 0.47522 0.36164 0.0
C484 C 0.44098 0.47646 0.3319 0.0
C485 C 0.47618 0.45628 0.33876 0.0
C486 C 0.48218 0.4342 0.37551 0.0
C487 C 0.45376 0.43641 0.40701 0.0
C488 C 0.41849 0.4567 0.40005 0.0
C489 C 0.29946 0.47387 0.46832 0.0
C490 C 0.36529 0.55032 0.48023 0.0
C491 C 0.22455 0.59635 0.48637 0.0
C492 C 0.20188 0.58697 0.52364 0.0
C493 C 0.20695 0.55087 0.54384 0.0
C494 C 0.18887 0.5439 0.58207 0.0
C495 C 1.16533 0.57296 0.60044 0.0
C496 C 1.15858 0.60821 0.57871 0.0
C497 C 0.17691 0.61521 0.54071 0.0
C498 C 0.29914 0.59733 0.37306 0.0
C499 C 0.23121 0.48362 0.40732 0.0
O500 O 0.36695 0.5278 0.36422 0.0
O501 O 0.34268 0.46932 0.3606 0.0
O502 O 0.30706 0.50975 0.46542 0.0
O503 O 0.30633 0.45691 0.4331 0.0
O504 O 0.36735 0.52841 0.44587 0.0
O505 O 0.32976 0.56565 0.48806 0.0
O506 O 0.26229 0.60014 0.49237 0.0
O507 O 0.21682 0.57552 0.4535 0.0
O508 O 0.28533 0.56262 0.37711 0.0
O509 O 0.3023 0.60993 0.41059 0.0
O510 O 0.23292 0.51 0.43785 0.0
O511 O 0.26147 0.48341 0.38115 0.0
H512 H 0.43609 0.49116 0.30241 0.0
H513 H 0.49696 0.45511 0.31339 0.0
H514 H 0.45749 0.42005 0.43566 0.0
H515 H 0.39598 0.4561 0.42377 0.0
H516 H 0.22587 0.52862 0.53064 0.0
H517 H 0.19477 0.51655 0.59802 0.0
H518 H 1.13988 0.63083 0.5916 0.0
H519 H 0.17244 0.64309 0.52524 0.0
Tb520 Tb 1.07093 1.06343 0.1504 0.0
Tb521 Tb 1.02034 1.02149 0.19061 0.0
C522 C 1.10208 1.11395 0.10512 0.0
C523 C 1.13665 1.13833 0.11411 0.0
C524 C 0.17193 1.12985 0.09369 0.0
C525 C 0.20595 1.15023 0.1033 0.0
C526 C 0.20555 0.18025 0.13315 0.0
C527 C 1.17034 0.18856 0.15411 0.0
C528 C 1.13618 0.16745 0.14499 0.0
C529 C 1.1064 1.04101 0.21981 0.0
C530 C 1.03011 1.10836 0.22965 0.0
C531 C 0.98105 0.97054 0.22863 0.0
C532 C 0.98879 0.94799 0.26649 0.0
C533 C 1.02562 0.95015 0.28626 0.0
C534 C 1.03164 0.93231 0.32487 0.0
C535 C 1.00087 0.91196 0.34416 0.0
C536 C 0.9645 0.90857 0.32328 0.0
C537 C 0.95847 0.92665 0.28479 0.0
C538 C 0.98412 1.04876 0.11876 0.0
C539 C 1.09907 0.97576 0.15624 0.0
O540 O 1.07012 1.12071 0.12635 0.0
O541 O 1.10968 1.07673 0.1022 0.0
O542 O 1.07054 1.04922 0.2155 0.0
O543 O 1.12433 1.04884 0.18549 0.0
O544 O 1.05175 1.11215 0.19518 0.0
O545 O 1.01564 1.07249 0.23588 0.0
O546 O 0.97703 1.008 0.23438 0.0
O547 O 1.00377 0.96279 0.19713 0.0
O548 O 1.01908 1.03445 0.12275 0.0
O549 O 0.97124 1.05026 0.15627 0.0
O550 O 1.07004 0.97623 0.18416 0.0
O551 O 1.10171 1.00758 0.13272 0.0
H552 H 0.1732 1.10745 0.06999 0.0
H553 H 0.23209 1.14386 0.08536 0.0
H554 H 1.16901 0.21214 0.17645 0.0
H555 H 1.10944 0.17426 0.16173 0.0
H556 H 1.04932 0.96659 0.27234 0.0
H557 H 1.05985 0.93569 0.34025 0.0
H558 H 0.94048 0.89245 0.33699 0.0
H559 H 0.92989 0.92478 0.26985 0.0
Tb560 Tb 0.51302 0.8135 0.90315 0.0
Tb561 Tb 0.55383 0.77398 0.94256 0.0
C562 C 0.4867 0.85083 0.84206 0.0
C563 C 0.48655 0.89372 0.83838 0.0
C564 C 0.49852 0.9116 0.80144 0.0
C565 C 0.50045 0.9523 0.79878 0.0
C566 C 0.49071 0.97586 0.83321 0.0
C567 C 0.48066 0.95771 0.87075 0.0
C568 C 0.47844 0.91713 0.87325 0.0
C569 C 0.51363 0.85091 0.97355 0.0
C570 C 0.46722 0.77675 0.97938 0.0
C571 C 0.59778 0.72725 0.98192 0.0
C572 C 0.62142 0.73393 0.0195 0.0
C573 C 0.61839 0.76978 0.04033 0.0
C574 C 0.63836 0.77566 0.07784 0.0
C575 C 0.66184 0.74573 0.0951 0.0
C576 C 0.66608 0.71039 0.07307 0.0
C577 C 0.64584 0.70449 0.03565 0.0
C578 C 0.54948 0.74272 0.85269 0.0
C579 C 0.6011 0.84822 0.90951 0.0
O580 O 0.46408 0.83611 0.87067 0.0
O581 O 0.52162 0.83482 0.84247 0.0
O582 O 0.54359 0.83352 0.95915 0.0
O583 O 0.4838 0.8486 0.9488 0.0
O584 O 0.46176 0.78889 0.94022 0.0
O585 O 0.50476 0.77109 0.98957 0.0
O586 O 0.55978 0.72973 0.98737 0.0
O587 O 0.60899 0.74647 0.94896 0.0
O588 O 0.52856 0.75154 0.88559 0.0
O589 O 0.52748 0.75094 0.88496 0.0
O590 O 0.6054 0.81398 0.92848 0.0
O591 O 0.56444 0.85552 0.89728 0.0
H592 H 0.50577 0.89413 0.77448 0.0
H593 H 0.50739 0.96525 0.76895 0.0
H594 H 0.4728 0.97496 0.89767 0.0
H595 H 0.46966 0.90433 0.90242 0.0
H596 H 0.59964 0.7928 0.02805 0.0
H597 H 0.63409 0.80302 0.09408 0.0
H598 H 0.68451 0.68698 0.08514 0.0
H599 H 0.64864 0.67674 0.01983 0.0
Tb600 Tb 0.77274 0.26581 0.65668 0.0
Tb601 Tb 0.8127 0.30696 0.69485 0.0
C602 C 0.73554 0.23803 0.59652 0.0
C603 C 0.6924 0.23562 0.59302 0.0
C604 C 0.67346 0.24764 0.5564 0.0
C605 C 0.63243 0.24708 0.55365 0.0
C606 C 0.60956 0.23464 0.58765 0.0
C607 C 0.62862 0.22448 0.62496 0.0
C608 C 0.66959 0.22484 0.62757 0.0
C609 C 0.73598 0.26757 0.72767 0.0
C610 C 0.81084 0.22153 0.73377 0.0
C611 C 0.85924 0.35091 0.73344 0.0
C612 C 0.85161 0.37342 0.77135 0.0
C613 C 0.81466 0.37071 0.79036 0.0
C614 C 0.80777 0.38844 0.82867 0.0
C615 C 0.83779 0.4094 0.84868 0.0
C616 C 0.87438 0.41343 0.82856 0.0
C617 C 0.88128 0.3954 0.79024 0.0
C618 C 0.84326 0.30127 0.60461 0.0
C619 C 0.73631 0.35286 0.6617 0.0
O620 O 0.75203 0.21633 0.6252 0.0
O621 O 0.74943 0.27345 0.59646 0.0
O622 O 0.75315 0.29692 0.71231 0.0
O623 O 0.73781 0.23775 0.70339 0.0
O624 O 0.79772 0.21552 0.69514 0.0
O625 O 0.81689 0.25882 0.74285 0.0
O626 O 0.8581 0.31309 0.73868 0.0
O627 O 0.83929 0.36199 0.70057 0.0
O628 O 0.83483 0.28114 0.63822 0.0
O629 O 0.83544 0.28006 0.63759 0.0
O630 O 0.77103 0.35757 0.68007 0.0
O631 O 0.72943 0.31639 0.65018 0.0
H632 H 0.69042 0.25685 0.5297 0.0
H633 H 0.61883 0.25423 0.52403 0.0
H634 H 0.6119 0.21461 0.65154 0.0
H635 H 0.68325 0.21596 0.65652 0.0
H636 H 0.79152 0.35373 0.77604 0.0
H637 H 0.77946 0.38433 0.84332 0.0
H638 H 0.89793 0.42998 0.84277 0.0
H639 H 0.90994 0.39788 0.77591 0.0
C640 C 0.67549 0.36923 0.07652 0.0
C641 C 0.63461 0.37869 0.07811 0.0
H642 H 0.73639 0.38865 0.07608 0.0
C643 C 0.62666 0.41963 0.07928 0.0
H644 H 0.68417 0.33877 0.0753 0.0
C645 C 0.65714 0.44884 0.07806 0.0
C646 C 0.69804 0.43939 0.07736 0.0
H647 H 0.59632 0.42944 0.08007 0.0
H648 H 0.64841 0.47931 0.07815 0.0
C649 C 0.70604 0.39843 0.07703 0.0
C650 C 0.65552 0.86973 0.32844 0.0
C651 C 0.69662 0.87749 0.32582 0.0
H652 H 0.59521 0.89159 0.32909 0.0
C653 C 0.70574 0.91802 0.32373 0.0
H654 H 0.64596 0.83964 0.3297 0.0
C655 C 0.67612 0.94844 0.32498 0.0
C656 C 0.63499 0.94066 0.32674 0.0
H657 H 0.7363 0.92652 0.32142 0.0
H658 H 0.68568 0.97852 0.32337 0.0
C659 C 0.62582 0.90011 0.32805 0.0
C660 C 1.15611 0.94588 0.57408 0.0
C661 C 0.19727 0.93796 0.57533 0.0
H662 H 1.09615 0.92416 0.57341 0.0
C663 C 0.20693 0.89731 0.57544 0.0
H664 H 1.14619 0.976 0.57365 0.0
C665 C 0.17767 0.86692 0.57368 0.0
C666 C 1.13649 0.87488 0.57325 0.0
H667 H 0.23766 0.88873 0.57587 0.0
H668 H 0.18756 0.8368 0.5731 0.0
C669 C 1.12687 0.91551 0.57392 0.0
C670 C 0.17821 0.44844 0.82627 0.0
C671 C 1.13728 0.44007 0.8299 0.0
H672 H 0.23866 0.42732 0.82141 0.0
C673 C 1.12891 0.39947 0.83321 0.0
H674 H 0.18713 0.47861 0.82308 0.0
C675 C 1.15916 0.36964 0.83395 0.0
C676 C 0.20002 0.37791 0.82955 0.0
H677 H 1.09852 0.39049 0.83578 0.0
H678 H 1.15017 0.33947 0.83694 0.0
C679 C 0.20836 0.41845 0.82519 0.0
C680 C 0.70554 0.90077 0.90487 0.0
C681 C 0.69692 0.94157 0.90633 0.0
H682 H 0.68456 0.84076 0.90587 0.0
C683 C 0.65598 0.95046 0.9084 0.0
H684 H 0.73603 0.89144 0.9038 0.0
C685 C 0.62591 0.92093 0.90817 0.0
C686 C 0.63447 0.88012 0.90759 0.0
H687 H 0.64686 0.98079 0.90992 0.0
H688 H 0.59545 0.93034 0.90951 0.0
C689 C 0.67546 0.87113 0.90623 0.0
C690 C 0.63204 0.40591 0.66363 0.0
C691 C 0.63999 0.4465 0.65974 0.0
H692 H 0.65392 0.34614 0.66585 0.0
C693 C 0.68074 0.4555 0.65607 0.0
H694 H 0.6018 0.3966 0.66669 0.0
C695 C 0.71135 0.42611 0.65711 0.0
C696 C 0.70333 0.38545 0.66024 0.0
H697 H 0.68932 0.48581 0.65328 0.0
H698 H 0.74166 0.43544 0.65495 0.0
C699 C 0.66253 0.37645 0.66307 0.0
C700 C 1.15834 0.40077 0.44514 0.0
C701 C 1.13979 0.38625 0.40859 0.0
H702 H 0.19879 0.44169 0.47385 0.0
C703 C 1.1519 0.40508 0.37123 0.0
H704 H 1.15057 0.38824 0.47492 0.0
C705 C 0.18122 0.43547 0.37046 0.0
C706 C 0.19911 0.4505 0.40719 0.0
H707 H 1.13908 0.39582 0.34202 0.0
H708 H 0.18939 0.44775 0.3407 0.0
C709 C 0.18635 0.43218 0.44453 0.0
C710 C 0.17926 0.89793 0.11824 0.0
C711 C 0.19639 0.88225 0.15533 0.0
H712 H 1.13813 0.93872 0.08879 0.0
C713 C 0.17994 0.89781 0.19249 0.0
H714 H 0.18992 0.8876 0.08856 0.0
C715 C 1.14844 0.92634 0.19261 0.0
C716 C 1.13187 0.94267 0.15558 0.0
H717 H 0.19102 0.88725 0.22212 0.0
H718 H 1.13753 0.93635 0.22232 0.0
C719 C 1.14886 0.92773 0.11838 0.0
C720 C 0.41463 0.26028 0.89893 0.0
C721 C 0.37619 0.27659 0.90255 0.0
H722 H 0.47146 0.24689 0.92615 0.0
C723 C 0.36792 0.29209 0.94271 0.0
H724 H 0.42353 0.24801 0.86942 0.0
C725 C 0.39633 0.29112 0.97658 0.0
C726 C 0.43496 0.27482 0.97243 0.0
H727 H 0.33966 0.30588 0.94791 0.0
H728 H 0.38811 0.30405 0.00596 0.0
C729 C 0.44278 0.2595 0.9323 0.0
C730 C 0.76896 0.61746 0.19032 0.0
C731 C 0.79587 0.61483 0.15664 0.0
H732 H 0.74997 0.64608 0.24693 0.0
C733 C 0.82554 0.64409 0.15717 0.0
H734 H 0.7453 0.59649 0.19212 0.0
C735 C 0.82733 0.67428 0.18858 0.0
C736 C 0.80062 0.67636 0.22263 0.0
H737 H 0.84695 0.64453 0.13238 0.0
H738 H 0.85009 0.69614 0.18613 0.0
C739 C 0.77173 0.64646 0.22247 0.0
C740 C 0.42576 1.05675 0.4016 0.0
C741 C 0.46116 1.03557 0.40976 0.0
H742 H 0.36783 1.0752 0.4229 0.0
C743 C 0.46329 1.01847 0.45008 0.0
H744 H 0.42137 1.06981 0.37122 0.0
C745 C 0.43276 1.02235 0.48042 0.0
C746 C 0.39696 1.04255 0.47223 0.0
H747 H 0.48903 1.00121 0.45833 0.0
H748 H 0.43679 1.00799 0.5102 0.0
C749 C 0.39447 1.05967 0.43172 0.0
C750 C 1.01901 0.66857 0.65482 0.0
C751 C 1.04252 0.70253 0.66048 0.0
H752 H 0.99823 0.6129 0.67938 0.0
C753 C 1.06184 0.70415 0.69978 0.0
H754 H 1.00409 0.66447 0.62535 0.0
C755 C 1.058 0.67468 0.73132 0.0
C756 C 1.03524 0.64039 0.72586 0.0
H757 H 1.08096 0.72862 0.70625 0.0
H758 H 1.07424 0.67844 0.76007 0.0
C759 C 1.01581 0.63834 0.68635 0.0
C760 C 0.93527 1.04082 0.00502 0.0
C761 C 0.89504 1.05166 0.0114 0.0
H762 H 0.99414 1.03107 0.03112 0.0
C763 C 0.88624 1.0616 0.05319 0.0
H764 H 0.94441 1.03229 0.97415 0.0
C765 C 0.91493 1.06086 0.08603 0.0
C766 C 0.955 1.04985 0.08022 0.0
H767 H 0.85637 1.06984 0.06103 0.0
H768 H 0.90517 1.06882 0.11687 0.0
C769 C 0.96432 1.03994 0.03832 0.0
C770 C 0.5579 0.71293 0.77963 0.0
C771 C 0.53951 0.71088 0.81918 0.0
H772 H 0.56989 0.68706 0.71965 0.0
C773 C 0.5172 0.67632 0.82571 0.0
H774 H 0.57605 0.73796 0.77258 0.0
C775 C 0.51432 0.64582 0.79478 0.0
C776 C 0.53286 0.6482 0.75507 0.0
H777 H 0.50305 0.67199 0.85543 0.0
H778 H 0.49779 0.61985 0.8024 0.0
C779 C 0.55435 0.6831 0.74864 0.0
C780 C 0.87313 0.30773 0.53101 0.0
C781 C 0.87531 0.29053 0.57133 0.0
H782 H 0.89929 0.31783 0.47056 0.0
C783 C 0.91026 0.26839 0.57882 0.0
H784 H 0.84779 0.32571 0.52318 0.0
C785 C 0.94101 0.26456 0.54814 0.0
C786 C 0.93855 0.28182 0.50767 0.0
H787 H 0.91472 0.25511 0.60908 0.0
H788 H 0.96729 0.24826 0.55657 0.0
C789 C 0.90325 0.30317 0.50019 0.0
C790 C 0.28407 0.61791 0.29432 0.0
C791 C 0.29992 0.62584 0.33447 0.0
H792 H 0.27098 0.6385 0.2315 0.0
C793 C 0.31624 0.66388 0.33852 0.0
H794 H 0.27083 0.58972 0.28867 0.0
C795 C 0.31671 0.69201 0.30536 0.0
C796 C 0.30062 0.68454 0.26537 0.0
H797 H 0.32883 0.67236 0.36812 0.0
H798 H 0.32942 0.72034 0.31157 0.0
C799 C 0.28421 0.64642 0.26096 0.0
C800 C 0.87407 0.80341 0.43781 0.0
C801 C 0.87234 0.77771 0.40312 0.0
H802 H 0.90263 0.82123 0.49521 0.0
C803 C 0.90249 0.74864 0.4029 0.0
H804 H 0.85237 0.82661 0.44007 0.0
C805 C 0.93284 0.7464 0.43453 0.0
C806 C 0.93421 0.77198 0.46946 0.0
H807 H 0.9036 0.72824 0.37729 0.0
H808 H 0.95556 0.7243 0.43145 0.0
C809 C 0.90338 0.80023 0.47013 0.0
C810 C 0.27126 1.14373 0.72801 0.0
C811 C 0.29745 0.17561 0.72376 0.0
H812 H 0.2453 1.0915 0.70234 0.0
C813 C 0.31987 0.17493 0.68625 0.0
H814 H 0.25283 1.14205 0.7553 0.0
C815 C 0.31601 1.1445 0.65526 0.0
C816 C 0.28891 1.11316 0.65954 0.0
H817 H 0.34033 0.1984 0.6804 0.0
H818 H 0.33347 1.14639 0.62729 0.0
C819 C 0.2669 1.11408 0.69698 0.0
C820 C 0.90131 0.56669 0.94084 0.0
C821 C 0.89985 0.54035 0.97531 0.0
H822 H 0.93037 0.58572 0.88398 0.0
C823 C 0.93021 0.51151 0.9752 0.0
H824 H 0.87909 0.5894 0.93832 0.0
C825 C 0.95906 0.50846 0.94274 0.0
C826 C 0.96102 0.53499 0.90864 0.0
H827 H 0.93111 0.49005 0.99999 0.0
H828 H 0.98041 0.4849 0.94463 0.0
C829 C 0.93131 0.56459 0.90909 0.0
C830 C 0.53987 0.17888 0.22344 0.0
C831 C 0.52983 1.13896 0.21644 0.0
H832 H 0.54843 0.23756 0.19827 0.0
C833 C 0.52027 1.13039 0.17438 0.0
H834 H 0.54793 0.18785 0.25457 0.0
C835 C 0.52054 1.15919 0.14184 0.0
C836 C 0.53068 0.19897 0.14842 0.0
H837 H 0.51261 1.10074 0.16616 0.0
H838 H 0.51286 1.14982 0.11073 0.0
C839 C 0.5403 0.20792 0.19054 0.0
C840 C 0.40393 0.57764 0.54578 0.0
C841 C 0.39946 0.54951 0.5135 0.0
H842 H 0.43629 0.59763 0.60039 0.0
C843 C 0.42774 0.51874 0.51473 0.0
H844 H 0.38336 0.60187 0.5472 0.0
C845 C 0.45768 0.51571 0.54626 0.0
C846 C 0.46256 0.54384 0.57827 0.0
H847 H 0.4262 0.49588 0.49159 0.0
H848 H 0.47739 0.49073 0.54546 0.0
C849 C 0.43487 0.57524 0.57675 0.0
C850 C 1.05066 0.2039 0.29826 0.0
C851 C 1.02691 0.19894 0.3343 0.0
H852 H 1.07029 0.18143 0.23837 0.0
C853 C 1.00403 1.16423 0.33385 0.0
H854 H 1.0693 0.22934 0.29611 0.0
C855 C 1.0048 1.13629 0.30063 0.0
C856 C 1.0283 1.14082 0.2646 0.0
H857 H 0.98538 1.15806 0.36024 0.0
H858 H 0.98674 1.11048 0.30357 0.0
C859 C 1.05117 0.17584 0.2645 0.0
C860 C 0.36448 0.78817 0.03938 0.0
C861 C 0.37331 0.7769 0.08117 0.0
H862 H 0.38488 0.79705 0.97579 0.0
C863 C 0.41317 0.76491 0.0874 0.0
H864 H 0.3349 0.79787 0.03184 0.0
C865 C 0.44207 0.76438 0.05503 0.0
C866 C 0.4337 0.77562 0.01335 0.0
H867 H 0.42259 0.75591 0.11821 0.0
H868 H 0.47172 0.75523 0.06314 0.0
C869 C 0.39372 0.78757 0.00661 0.0
C870 C 0.79343 1.15193 0.76568 0.0
C871 C 0.81266 0.18888 0.76847 0.0
H872 H 0.7773 1.09682 0.79537 0.0
C873 C 0.83182 0.19543 0.80712 0.0
H874 H 0.77762 1.14488 0.73741 0.0
C875 C 0.83207 0.1674 0.84034 0.0
C876 C 0.81259 1.13082 0.83816 0.0
H877 H 0.84682 0.22285 0.81205 0.0
H878 H 0.84735 0.175 0.86881 0.0
C879 C 0.7931 1.1239 0.79955 0.0
C880 C 0.70366 0.29553 0.83564 0.0
C881 C 0.68981 0.25947 0.8505 0.0
H882 H 0.7283 0.32674 0.78417 0.0
C883 C 0.6894 0.22712 0.82375 0.0
H884 H 0.70423 0.32098 0.85555 0.0
C885 C 0.70343 0.23039 0.78344 0.0
C886 C 0.71789 0.26611 0.76885 0.0
H887 H 0.67789 0.19922 0.83379 0.0
H888 H 0.70342 0.20466 0.76388 0.0
C889 C 0.71752 0.29884 0.79496 0.0
C890 C 0.86331 0.91421 0.05715 0.0
C891 C 0.83097 0.9096 0.08359 0.0
H892 H 0.8848 0.93781 1.00029 0.0
C893 C 0.79399 0.92454 0.07135 0.0
H894 H 0.892 0.90251 0.06554 0.0
C895 C 0.78976 0.94465 0.03365 0.0
C896 C 0.82243 0.94981 0.00779 0.0
H897 H 0.76865 0.92159 0.09138 0.0
H898 H 0.76125 0.95667 0.02512 0.0
C899 C 0.85909 0.93415 0.01967 0.0
C900 C 1.10294 1.03856 0.29684 0.0
C901 C 1.12571 1.04246 0.26076 0.0
H902 H 1.10114 1.04298 0.36318 0.0
C903 C 1.16575 1.0517 0.2644 0.0
H904 H 1.0719 1.03174 0.29482 0.0
C905 C 0.18228 1.0588 0.30349 0.0
C906 C 1.15913 1.05617 0.33945 0.0
H907 H 0.18389 1.05493 0.23702 0.0
H908 H 0.21303 1.06681 0.30562 0.0
C909 C 1.11958 1.04509 0.33589 0.0
C910 C 0.97701 0.39536 0.51699 0.0
C911 C 1.01356 0.37867 0.50693 0.0
H912 H 0.94325 0.42675 0.56187 0.0
C913 C 1.04529 0.38218 0.53473 0.0
H914 H 0.95203 0.39295 0.49607 0.0
C915 C 1.04021 0.40157 0.57254 0.0
C916 C 1.00325 0.41735 0.58307 0.0
H917 H 1.07369 0.3693 0.52766 0.0
H918 H 1.06478 0.40314 0.59407 0.0
C919 C 0.97188 0.41447 0.55472 0.0
C920 C 0.64449 1.03631 0.15514 0.0
C921 C 0.66167 1.07191 0.14324 0.0
H922 H 0.61409 1.00475 0.20278 0.0
C923 C 0.66292 1.10277 0.17183 0.0
H924 H 0.64291 1.01208 0.13364 0.0
C925 C 0.64633 1.0986 0.21103 0.0
C926 C 0.62833 1.06344 0.22253 0.0
H927 H 0.67664 1.13026 0.1639 0.0
H928 H 0.64694 1.12328 0.23202 0.0
C929 C 0.62795 1.0321 0.19458 0.0
C930 C 0.54045 0.39158 0.91 0.0
C931 C 0.50387 0.40628 0.89594 0.0
H932 H 0.57185 0.36127 0.95874 0.0
C933 C 0.47066 0.40168 0.92121 0.0
H934 H 0.56653 0.39449 0.89105 0.0
C935 C 0.47372 0.38266 0.95939 0.0
C936 C 0.51006 0.36781 0.97341 0.0
H937 H 0.4422 0.41316 0.91168 0.0
H938 H 0.44737 0.37945 0.9779 0.0
C939 C 0.54349 0.37235 0.94847 0.0
C940 C 1.16318 0.27052 0.72301 0.0
C941 C 0.20415 0.27449 0.72663 0.0
H942 H 1.11424 0.2606 0.68195 0.0
C943 C 0.22723 0.27389 0.69049 0.0
H944 H 1.14474 0.27097 0.75037 0.0
C945 C 0.21 0.26751 0.65169 0.0
C946 C 1.16922 0.26216 0.64807 0.0
H947 H 0.25887 0.27735 0.69223 0.0
H948 H 0.22863 0.26661 0.62448 0.0
C949 C 1.14581 0.26456 0.68395 0.0
C950 C 0.3537 0.93086 0.45959 0.0
C951 C 0.31885 0.94944 0.47208 0.0
H952 H 0.38456 0.90235 0.41054 0.0
C953 C 0.28745 0.95334 0.44381 0.0
H954 H 0.37841 0.92773 0.48082 0.0
C955 C 0.29119 0.93943 0.40326 0.0
C956 C 0.32637 0.92137 0.39045 0.0
H957 H 0.26045 0.96806 0.45266 0.0
H958 H 0.26692 0.94367 0.38171 0.0
C959 C 0.35738 0.91682 0.41921 0.0
C960 C 1.14779 0.7598 0.30357 0.0
C961 C 0.17103 0.76144 0.33984 0.0
H962 H 1.14568 0.76651 0.23727 0.0
C963 C 0.21033 0.77352 0.33686 0.0
H964 H 1.11724 0.75109 0.30512 0.0
C965 C 0.22653 0.78228 0.29819 0.0
C966 C 0.20366 0.77954 0.26179 0.0
H967 H 0.22894 0.7749 0.36428 0.0
H968 H 0.25736 0.79001 0.29667 0.0
C969 C 1.16391 0.76901 0.26486 0.0
C970 C 0.31092 0.39452 0.54922 0.0
C971 C 0.30939 0.41645 0.58604 0.0
H972 H 0.30798 0.39554 0.48261 0.0
C973 C 0.30163 0.4567 0.58383 0.0
H974 H 0.31657 0.36334 0.5503 0.0
C975 C 0.29718 0.47505 0.54537 0.0
C976 C 0.29984 0.45339 0.50849 0.0
H977 H 0.30063 0.47425 0.61178 0.0
H978 H 0.29289 0.50642 0.54451 0.0
C979 C 0.30585 0.41284 0.51066 0.0
C980 C 0.62918 0.53353 0.78731 0.0
C981 C 0.62601 0.56663 0.76167 0.0
H982 H 0.64941 0.51083 0.84608 0.0
C983 C 0.64128 0.60241 0.77526 0.0
H984 H 0.61754 0.50568 0.77733 0.0
C985 C 0.65921 0.60535 0.81388 0.0
C986 C 0.66223 0.5726 0.83992 0.0
H987 H 0.6391 0.6285 0.75618 0.0
H988 H 0.67093 0.63335 0.8233 0.0
C989 C 0.64743 0.53647 0.82633 0.0
C990 C 0.47594 0.88734 0.02633 0.0
C991 C 0.51163 0.87031 0.01396 0.0
H992 H 0.4442 0.91611 0.07442 0.0
C993 C 0.54365 0.86941 0.04161 0.0
H994 H 0.45076 0.88838 0.00551 0.0
C995 C 0.53962 0.88455 0.08163 0.0
C996 C 0.5036 0.90106 0.09428 0.0
H997 H 0.57145 0.85648 0.0326 0.0
H998 H 0.56447 0.88276 0.10281 0.0
C999 C 0.472 0.90271 0.06601 0.0
C1000 C 1.13519 0.53233 0.65763 0.0
C1001 C 1.15046 0.56812 0.64344 0.0
H1002 H 1.1095 0.50101 0.70873 0.0
C1003 C 1.15247 0.5997 0.67111 0.0
H1004 H 1.13327 0.50746 0.63701 0.0
C1005 C 1.13882 0.59602 0.71158 0.0
C1006 C 1.12289 0.56066 0.72558 0.0
H1007 H 1.1649 0.62737 0.6616 0.0
H1008 H 1.14024 0.62128 0.73175 0.0
C1009 C 1.12147 0.52864 0.69849 0.0
C1010 C 1.04106 0.87712 0.39897 0.0
C1011 C 1.0059 0.89598 0.38674 0.0
H1012 H 1.07202 0.84639 0.44752 0.0
C1013 C 0.97533 0.8999 0.41569 0.0
H1014 H 1.06504 0.87346 0.37725 0.0
C1015 C 0.97934 0.88447 0.45559 0.0
C1016 C 1.01407 0.86499 0.46751 0.0
H1017 H 0.94822 0.91498 0.40756 0.0
H1018 H 0.95492 0.8873 0.47692 0.0
C1019 C 1.0451 0.8617 0.4391 0.0
C1020 C 0.69559 0.78558 0.15091 0.0
C1021 C 0.67919 0.75002 0.13737 0.0
H1022 H 0.72346 0.81655 0.20113 0.0
C1023 C 0.67796 0.71842 0.16522 0.0
H1024 H 0.69702 0.81049 0.13014 0.0
C1025 C 0.69308 0.72192 0.20528 0.0
C1026 C 0.70983 0.7571 0.21877 0.0
H1027 H 0.66475 0.69095 0.15631 0.0
H1028 H 0.69185 0.69668 0.22563 0.0
C1029 C 0.71083 0.78908 0.19139 0.0
C1030 C 0.85723 0.43472 0.9614 0.0
C1031 C 0.82148 0.45194 0.97356 0.0
H1032 H 0.89026 0.40783 0.91298 0.0
C1033 C 0.79054 0.45474 0.9446 0.0
H1034 H 0.88167 0.43208 0.98302 0.0
C1035 C 0.79571 0.44124 0.90384 0.0
C1036 C 0.83189 0.42465 0.8915 0.0
H1037 H 0.76262 0.46764 0.95329 0.0
H1038 H 0.77159 0.44432 0.88189 0.0
C1039 C 0.86238 0.42128 0.92097 0.0
C1040 C 0.55517 0.37605 0.32264 0.0
C1041 C 0.53153 0.3425 0.3205 0.0
H1042 H 0.55869 0.43407 0.34651 0.0
C1043 C 0.50761 0.33374 0.35474 0.0
H1044 H 0.57563 0.38294 0.29801 0.0
C1045 C 0.4971 0.36367 0.38197 0.0
C1046 C 0.51134 0.40165 0.37489 0.0
H1047 H 0.4908 0.30695 0.35532 0.0
H1048 H 0.47236 0.35866 0.40234 0.0
C1049 C 0.5453 0.40567 0.35052 0.0
C1050 C 0.81513 0.62792 0.54798 0.0
C1051 C 0.82118 0.61365 0.50755 0.0
H1052 H 0.77989 0.62143 0.6021 0.0
C1053 C 0.81751 0.57313 0.50136 0.0
H1054 H 0.82035 0.65831 0.55531 0.0
C1055 C 0.79294 0.55204 0.52781 0.0
C1056 C 0.77513 0.57133 0.56135 0.0
H1057 H 0.82488 0.56047 0.47154 0.0
H1058 H 0.78219 0.52388 0.51767 0.0
C1059 C 0.79157 0.60659 0.57509 0.0
C1060 C 0.48409 1.06537 0.77078 0.0
C1061 C 0.44269 1.06703 0.77201 0.0
H1062 H 0.53387 1.03112 0.79036 0.0
C1063 C 0.42455 1.05689 0.8097 0.0
H1064 H 0.49961 1.07615 0.74376 0.0
C1065 C 0.44414 1.03148 0.83683 0.0
C1066 C 0.48198 1.01789 0.82651 0.0
H1067 H 0.39314 1.06061 0.81386 0.0
H1068 H 0.42697 1.01718 0.86065 0.0
C1069 C 0.50377 1.03931 0.79736 0.0
C1070 C 1.06965 0.63465 0.12921 0.0
C1071 C 1.10141 0.60857 0.13486 0.0
H1072 H 1.0216 0.64991 0.08907 0.0
C1073 C 1.0973 0.5701 0.12064 0.0
H1074 H 1.07108 0.66413 0.14127 0.0
C1075 C 1.06887 0.56203 0.09044 0.0
C1076 C 1.04529 0.59274 0.07471 0.0
H1077 H 1.12056 0.54886 0.12613 0.0
H1078 H 1.07145 0.53465 0.07386 0.0
C1079 C 1.04113 0.62651 0.09906 0.0
C1080 C 0.96648 1.0487 0.69714 0.0
C1081 C 0.98022 1.05082 0.73837 0.0
H1082 H 0.97001 1.0159 0.64116 0.0
C1083 C 1.01965 1.04019 0.74628 0.0
H1084 H 0.93717 1.05882 0.68894 0.0
C1085 C 1.03845 1.01462 0.71894 0.0
C1086 C 1.01818 1.00188 0.68333 0.0
H1087 H 1.03212 1.04384 0.77711 0.0
H1088 H 1.06495 0.99963 0.72932 0.0
C1089 C 0.98543 1.02367 0.66949 0.0
C1090 C 0.92264 0.5608 0.32414 0.0
C1091 C 0.88357 0.55631 0.31043 0.0
H1092 H 0.97052 0.53012 0.35278 0.0
C1093 C 0.85789 0.53566 0.33664 0.0
H1094 H 0.9426 0.57923 0.30685 0.0
C1095 C 0.87366 0.50745 0.36346 0.0
C1096 C 0.91462 0.50185 0.36472 0.0
H1097 H 0.8267 0.53411 0.32973 0.0
H1098 H 0.85418 0.48574 0.37654 0.0
C1099 C 0.93876 0.53229 0.35049 0.0
C1100 C 0.25302 0.25858 0.08388 0.0
C1101 C 0.28351 0.23486 0.06832 0.0
H1102 H 0.20256 0.25914 0.12282 0.0
C1103 C 0.29939 0.2058 0.09463 0.0
H1104 H 0.24123 0.28271 0.06573 0.0
C1105 C 0.27698 0.19242 0.12802 0.0
C1106 C 0.23889 0.20786 0.13354 0.0
H1107 H 0.3244 0.18844 0.08474 0.0
H1108 H 0.28512 1.16479 0.14233 0.0
C1109 C 0.2307 0.24509 0.11717 0.0
C1110 C 0.55687 0.1852 0.58979 0.0
C1111 C 0.56796 0.22372 0.5805 0.0
H1112 H 0.52953 1.13426 0.56632 0.0
C1113 C 0.54461 0.24537 0.55239 0.0
H1114 H 0.57295 0.16799 0.61263 0.0
C1115 C 0.51861 0.22579 0.52602 0.0
C1116 C 0.51825 0.18465 0.52655 0.0
H1117 H 0.55103 0.2758 0.54618 0.0
H1118 H 0.50597 0.24173 0.49997 0.0
C1119 C 0.53145 1.16567 0.56296 0.0
loop_
_geom_bond_atom_site_label_1
_geom_bond_atom_site_label_2
_geom_bond_distance
_geom_bond_site_symmetry_2
_ccdc_geom_bond_type
Tb0 C2 2.809 . S
Tb0 O20 2.484 . S
Tb0 O21 2.440 . S
Tb0 O22 2.658 1_556 S
Tb0 O23 2.409 1_556 S
Tb0 O24 2.378 1_556 S
Tb0 O28 2.325 . S
Tb0 O31 2.341 . S
Tb1 C11 2.809 . S
Tb1 O22 2.325 . S
Tb1 O25 2.341 . S
Tb1 O26 2.484 . S
Tb1 O27 2.440 . S
Tb1 O28 2.658 1_554 S
Tb1 O29 2.409 . S
Tb1 O30 2.378 . S
C2 Tb0 2.809 . S
C2 C3 1.514 . S
C2 O20 1.248 . S
C2 O21 1.266 . S
C3 C2 1.514 . S
C3 C4 1.359 . S
C3 C8 1.348 . S
C4 C3 1.359 . S
C4 C5 1.380 . S
C4 H32 0.929 . S
C5 C4 1.380 . S
C5 C6 1.347 . S
C5 H33 0.931 . S
C6 C5 1.347 . S
C6 C7 1.369 . S
C7 C6 1.369 . S
C7 C8 1.408 . S
C7 H34 0.930 . S
C8 C3 1.348 . S
C8 C7 1.408 . S
C8 H35 0.930 . S
C9 O22 1.281 . S
C9 O23 1.254 . S
C10 O24 1.236 . S
C10 O25 1.266 . S
C11 Tb1 2.809 . S
C11 C12 1.514 . S
C11 O26 1.248 . S
C11 O27 1.266 . S
C12 C11 1.514 . S
C12 C13 1.359 . S
C12 C17 1.348 . S
C13 C12 1.359 . S
C13 C14 1.380 . S
C13 H36 0.929 . S
C14 C13 1.380 . S
C14 C15 1.347 . S
C14 H37 0.931 . S
C15 C14 1.347 . S
C15 C16 1.369 . S
C16 C15 1.369 . S
C16 C17 1.408 . S
C16 H38 0.930 . S
C17 C12 1.348 . S
C17 C16 1.408 . S
C17 H39 0.930 . S
C18 O28 1.281 . S
C18 O29 1.254 1_556 S
C19 O30 1.236 . S
C19 O31 1.266 1_554 S
O20 Tb0 2.484 . S
O20 C2 1.248 . S
O21 Tb0 2.440 . S
O21 C2 1.266 . S
O22 Tb0 2.658 1_554 S
O22 Tb1 2.325 . S
O22 C9 1.281 . S
O23 Tb0 2.409 1_554 S
O23 C9 1.254 . S
O24 Tb0 2.378 1_554 S
O24 C10 1.236 . S
O25 Tb1 2.341 . S
O25 C10 1.266 . S
O26 Tb1 2.484 . S
O26 C11 1.248 . S
O27 Tb1 2.440 . S
O27 C11 1.266 . S
O28 Tb0 2.325 . S
O28 Tb1 2.658 1_556 S
O28 C18 1.281 . S
O29 Tb1 2.409 . S
O29 C18 1.254 1_554 S
O30 Tb1 2.378 . S
O30 C19 1.236 . S
O31 Tb0 2.341 . S
O31 C19 1.266 1_556 S
H32 C4 0.929 . S
H33 C5 0.931 . S
H34 C7 0.930 . S
H35 C8 0.930 . S
H36 C13 0.929 . S
H37 C14 0.931 . S
H38 C16 0.930 . S
H39 C17 0.930 . S
Tb40 C42 2.809 . S
Tb40 O60 2.484 . S
Tb40 O61 2.440 . S
Tb40 O62 2.658 . S
Tb40 O63 2.409 . S
Tb40 O64 2.378 . S
Tb40 O68 2.325 . S
Tb40 O71 2.341 . S
Tb41 C51 2.809 . S
Tb41 O62 2.325 . S
Tb41 O65 2.341 . S
Tb41 O66 2.484 . S
Tb41 O67 2.440 . S
Tb41 O68 2.658 . S
Tb41 O69 2.409 . S
Tb41 O70 2.378 . S
C42 Tb40 2.809 . S
C42 C43 1.514 . S
C42 O60 1.248 . S
C42 O61 1.266 . S
C43 C42 1.514 . S
C43 C44 1.359 . S
C43 C48 1.348 . S
C44 C43 1.359 . S
C44 C45 1.380 . S
C44 H72 0.929 . S
C45 C44 1.380 . S
C45 C46 1.347 . S
C45 H73 0.931 . S
C46 C45 1.347 . S
C46 C47 1.369 . S
C47 C46 1.369 . S
C47 C48 1.408 . S
C47 H74 0.930 . S
C48 C43 1.348 . S
C48 C47 1.408 . S
C48 H75 0.930 . S
C49 O62 1.281 . S
C49 O63 1.254 . S
C50 O64 1.236 . S
C50 O65 1.266 . S
C51 Tb41 2.809 . S
C51 C52 1.514 . S
C51 O66 1.248 . S
C51 O67 1.266 . S
C52 C51 1.514 . S
C52 C53 1.359 . S
C52 C57 1.348 . S
C53 C52 1.359 . S
C53 C54 1.380 . S
C53 H76 0.929 . S
C54 C53 1.380 . S
C54 C55 1.347 . S
C54 H77 0.931 . S
C55 C54 1.347 . S
C55 C56 1.369 . S
C56 C55 1.369 . S
C56 C57 1.408 . S
C56 H78 0.930 . S
C57 C52 1.348 . S
C57 C56 1.408 . S
C57 H79 0.930 . S
C58 O68 1.281 . S
C58 O69 1.254 . S
C59 O70 1.236 . S
C59 O71 1.266 . S
O60 Tb40 2.484 . S
O60 C42 1.248 . S
O61 Tb40 2.440 . S
O61 C42 1.266 . S
O62 Tb40 2.658 . S
O62 Tb41 2.325 . S
O62 C49 1.281 . S
O63 Tb40 2.409 . S
O63 C49 1.254 . S
O64 Tb40 2.378 . S
O64 C50 1.236 . S
O65 Tb41 2.341 . S
O65 C50 1.266 . S
O66 Tb41 2.484 . S
O66 C51 1.248 . S
O67 Tb41 2.440 . S
O67 C51 1.266 . S
O68 Tb40 2.325 . S
O68 Tb41 2.658 . S
O68 C58 1.281 . S
O69 Tb41 2.409 . S
O69 C58 1.254 . S
O70 Tb41 2.378 . S
O70 C59 1.236 . S
O71 Tb40 2.341 . S
O71 C59 1.266 . S
H72 C44 0.929 . S
H73 C45 0.931 . S
H74 C47 0.930 . S
H75 C48 0.930 . S
H76 C53 0.929 . S
H77 C54 0.931 . S
H78 C56 0.930 . S
H79 C57 0.930 . S
Tb80 C82 2.809 . S
Tb80 O100 2.484 . S
Tb80 O101 2.440 . S
Tb80 O102 2.658 . S
Tb80 O103 2.409 . S
Tb80 O104 2.378 . S
Tb80 O108 2.325 . S
Tb80 O111 2.341 . S
Tb81 C91 2.809 . S
Tb81 O102 2.325 . S
Tb81 O105 2.341 . S
Tb81 O106 2.484 . S
Tb81 O107 2.440 . S
Tb81 O108 2.658 . S
Tb81 O109 2.409 . S
Tb81 O110 2.378 . S
C82 Tb80 2.809 . S
C82 C83 1.514 . S
C82 O100 1.248 . S
C82 O101 1.266 . S
C83 C82 1.514 . S
C83 C84 1.359 . S
C83 C88 1.348 . S
C84 C83 1.359 . S
C84 C85 1.380 1_455 S
C84 H112 0.929 . S
C85 C84 1.380 1_655 S
C85 C86 1.347 . S
C85 H113 0.931 . S
C86 C85 1.347 . S
C86 C87 1.369 . S
C87 C86 1.369 . S
C87 C88 1.408 1_655 S
C87 H114 0.930 . S
C88 C83 1.348 . S
C88 C87 1.408 1_455 S
C88 H115 0.930 . S
C89 O102 1.281 . S
C89 O103 1.254 . S
C90 O104 1.236 . S
C90 O105 1.266 . S
C91 Tb81 2.809 . S
C91 C92 1.514 . S
C91 O106 1.248 . S
C91 O107 1.266 . S
C92 C91 1.514 . S
C92 C93 1.359 . S
C92 C97 1.348 . S
C93 C92 1.359 . S
C93 C94 1.380 . S
C93 H116 0.929 . S
C94 C93 1.380 . S
C94 C95 1.347 . S
C94 H117 0.931 . S
C95 C94 1.347 . S
C95 C96 1.369 . S
C96 C95 1.369 . S
C96 C97 1.408 . S
C96 H118 0.930 . S
C97 C92 1.348 . S
C97 C96 1.408 . S
C97 H119 0.930 . S
C98 O108 1.281 . S
C98 O109 1.254 . S
C99 O110 1.236 . S
C99 O111 1.266 . S
O100 Tb80 2.484 . S
O100 C82 1.248 . S
O101 Tb80 2.440 . S
O101 C82 1.266 . S
O102 Tb80 2.658 . S
O102 Tb81 2.325 . S
O102 C89 1.281 . S
O103 Tb80 2.409 . S
O103 C89 1.254 . S
O104 Tb80 2.378 . S
O104 C90 1.236 . S
O105 Tb81 2.341 . S
O105 C90 1.266 . S
O106 Tb81 2.484 . S
O106 C91 1.248 . S
O107 Tb81 2.440 . S
O107 C91 1.266 . S
O108 Tb80 2.325 . S
O108 Tb81 2.658 . S
O108 C98 1.281 . S
O109 Tb81 2.409 . S
O109 C98 1.254 . S
O110 Tb81 2.378 . S
O110 C99 1.236 . S
O111 Tb80 2.341 . S
O111 C99 1.266 . S
H112 C84 0.929 . S
H113 C85 0.931 . S
H114 C87 0.930 . S
H115 C88 0.930 . S
H116 C93 0.929 . S
H117 C94 0.931 . S
H118 C96 0.930 . S
H119 C97 0.930 . S
Tb120 C122 2.809 . S
Tb120 O140 2.484 . S
Tb120 O141 2.440 . S
Tb120 O142 2.658 . S
Tb120 O143 2.409 . S
Tb120 O144 2.378 . S
Tb120 O148 2.325 . S
Tb120 O151 2.341 . S
Tb121 C131 2.809 . S
Tb121 O142 2.325 . S
Tb121 O145 2.341 . S
Tb121 O146 2.484 . S
Tb121 O147 2.440 . S
Tb121 O148 2.658 . S
Tb121 O149 2.409 . S
Tb121 O150 2.378 . S
C122 Tb120 2.809 . S
C122 C123 1.514 . S
C122 O140 1.248 . S
C122 O141 1.266 . S
C123 C122 1.514 . S
C123 C124 1.359 . S
C123 C128 1.348 . S
C124 C123 1.359 . S
C124 C125 1.380 . S
C124 H152 0.929 . S
C125 C124 1.380 . S
C125 C126 1.347 . S
C125 H153 0.931 . S
C126 C125 1.347 . S
C126 C127 1.369 . S
C127 C126 1.369 . S
C127 C128 1.408 . S
C127 H154 0.930 . S
C128 C123 1.348 . S
C128 C127 1.408 . S
C128 H155 0.930 . S
C129 O142 1.281 . S
C129 O143 1.254 . S
C130 O144 1.236 . S
C130 O145 1.266 . S
C131 Tb121 2.809 . S
C131 C132 1.514 . S
C131 O146 1.248 . S
C131 O147 1.266 . S
C132 C131 1.514 . S
C132 C133 1.359 . S
C132 C137 1.348 . S
C133 C132 1.359 . S
C133 C134 1.380 . S
C133 H156 0.929 . S
C134 C133 1.380 . S
C134 C135 1.347 . S
C134 H157 0.931 . S
C135 C134 1.347 . S
C135 C136 1.369 . S
C136 C135 1.369 . S
C136 C137 1.408 . S
C136 H158 0.930 . S
C137 C132 1.348 . S
C137 C136 1.408 . S
C137 H159 0.930 . S
C138 O148 1.281 . S
C138 O149 1.254 . S
C139 O150 1.236 . S
C139 O151 1.266 . S
O140 Tb120 2.484 . S
O140 C122 1.248 . S
O141 Tb120 2.440 . S
O141 C122 1.266 . S
O142 Tb120 2.658 . S
O142 Tb121 2.325 . S
O142 C129 1.281 . S
O143 Tb120 2.409 . S
O143 C129 1.254 . S
O144 Tb120 2.378 . S
O144 C130 1.236 . S
O145 Tb121 2.341 . S
O145 C130 1.266 . S
O146 Tb121 2.484 . S
O146 C131 1.248 . S
O147 Tb121 2.440 . S
O147 C131 1.266 . S
O148 Tb120 2.325 . S
O148 Tb121 2.658 . S
O148 C138 1.281 . S
O149 Tb121 2.409 . S
O149 C138 1.254 . S
O150 Tb121 2.378 . S
O150 C139 1.236 . S
O151 Tb120 2.341 . S
O151 C139 1.266 . S
H152 C124 0.929 . S
H153 C125 0.931 . S
H154 C127 0.930 . S
H155 C128 0.930 . S
H156 C133 0.929 . S
H157 C134 0.931 . S
H158 C136 0.930 . S
H159 C137 0.930 . S
Tb160 C162 2.809 . S
Tb160 O180 2.484 . S
Tb160 O181 2.440 . S
Tb160 O182 2.658 1_556 S
Tb160 O183 2.409 . S
Tb160 O184 2.378 . S
Tb160 O188 2.325 . S
Tb160 O191 2.341 . S
Tb161 C171 2.809 . S
Tb161 O182 2.325 . S
Tb161 O185 2.341 . S
Tb161 O186 2.484 . S
Tb161 O187 2.440 . S
Tb161 O188 2.658 1_554 S
Tb161 O189 2.409 1_554 S
Tb161 O190 2.378 1_554 S
C162 Tb160 2.809 . S
C162 C163 1.514 . S
C162 O180 1.248 . S
C162 O181 1.266 . S
C163 C162 1.514 . S
C163 C164 1.359 . S
C163 C168 1.348 . S
C164 C163 1.359 . S
C164 C165 1.380 . S
C164 H192 0.929 . S
C165 C164 1.380 . S
C165 C166 1.347 . S
C165 H193 0.931 . S
C166 C165 1.347 . S
C166 C167 1.369 . S
C167 C166 1.369 . S
C167 C168 1.408 . S
C167 H194 0.930 . S
C168 C163 1.348 . S
C168 C167 1.408 . S
C168 H195 0.930 . S
C169 O182 1.281 . S
C169 O183 1.254 1_554 S
C170 O184 1.236 . S
C170 O185 1.266 1_556 S
C171 Tb161 2.809 . S
C171 C172 1.514 . S
C171 O186 1.248 . S
C171 O187 1.266 . S
C172 C171 1.514 . S
C172 C173 1.359 . S
C172 C177 1.348 . S
C173 C172 1.359 . S
C173 C174 1.380 . S
C173 H196 0.929 . S
C174 C173 1.380 . S
C174 C175 1.347 . S
C174 H197 0.931 . S
C175 C174 1.347 . S
C175 C176 1.369 . S
C176 C175 1.369 . S
C176 C177 1.408 . S
C176 H198 0.930 . S
C177 C172 1.348 . S
C177 C176 1.408 . S
C177 H199 0.930 . S
C178 O188 1.281 . S
C178 O189 1.254 . S
C179 O190 1.236 . S
C179 O191 1.266 . S
O180 Tb160 2.484 . S
O180 C162 1.248 . S
O181 Tb160 2.440 . S
O181 C162 1.266 . S
O182 Tb160 2.658 1_554 S
O182 Tb161 2.325 . S
O182 C169 1.281 . S
O183 Tb160 2.409 . S
O183 C169 1.254 1_556 S
O184 Tb160 2.378 . S
O184 C170 1.236 . S
O185 Tb161 2.341 . S
O185 C170 1.266 1_554 S
O186 Tb161 2.484 . S
O186 C171 1.248 . S
O187 Tb161 2.440 . S
O187 C171 1.266 . S
O188 Tb160 2.325 . S
O188 Tb161 2.658 1_556 S
O188 C178 1.281 . S
O189 Tb161 2.409 1_556 S
O189 C178 1.254 . S
O190 Tb161 2.378 1_556 S
O190 C179 1.236 . S
O191 Tb160 2.341 . S
O191 C179 1.266 . S
H192 C164 0.929 . S
H193 C165 0.931 . S
H194 C167 0.930 . S
H195 C168 0.930 . S
H196 C173 0.929 . S
H197 C174 0.931 . S
H198 C176 0.930 . S
H199 C177 0.930 . S
Tb200 C202 2.809 . S
Tb200 O220 2.484 . S
Tb200 O221 2.440 . S
Tb200 O222 2.658 . S
Tb200 O223 2.409 . S
Tb200 O224 2.378 . S
Tb200 O228 2.325 . S
Tb200 O231 2.341 . S
Tb201 C211 2.809 . S
Tb201 O222 2.325 . S
Tb201 O225 2.341 . S
Tb201 O226 2.484 . S
Tb201 O227 2.440 . S
Tb201 O228 2.658 . S
Tb201 O229 2.409 . S
Tb201 O230 2.378 . S
C202 Tb200 2.809 . S
C202 C203 1.514 . S
C202 O220 1.248 . S
C202 O221 1.266 . S
C203 C202 1.514 . S
C203 C204 1.359 . S
C203 C208 1.348 . S
C204 C203 1.359 . S
C204 C205 1.380 . S
C204 H232 0.929 . S
C205 C204 1.380 . S
C205 C206 1.347 . S
C205 H233 0.931 . S
C206 C205 1.347 . S
C206 C207 1.369 . S
C207 C206 1.369 . S
C207 C208 1.408 . S
C207 H234 0.930 . S
C208 C203 1.348 . S
C208 C207 1.408 . S
C208 H235 0.930 . S
C209 O222 1.281 . S
C209 O223 1.254 . S
C210 O224 1.236 . S
C210 O225 1.266 . S
C211 Tb201 2.809 . S
C211 C212 1.514 . S
C211 O226 1.248 . S
C211 O227 1.266 . S
C212 C211 1.514 . S
C212 C213 1.359 . S
C212 C217 1.348 . S
C213 C212 1.359 . S
C213 C214 1.380 . S
C213 H236 0.929 . S
C214 C213 1.380 . S
C214 C215 1.347 . S
C214 H237 0.931 . S
C215 C214 1.347 . S
C215 C216 1.369 . S
C216 C215 1.369 . S
C216 C217 1.408 . S
C216 H238 0.930 . S
C217 C212 1.348 . S
C217 C216 1.408 . S
C217 H239 0.930 . S
C218 O228 1.281 . S
C218 O229 1.254 . S
C219 O230 1.236 . S
C219 O231 1.266 . S
O220 Tb200 2.484 . S
O220 C202 1.248 . S
O221 Tb200 2.440 . S
O221 C202 1.266 . S
O222 Tb200 2.658 . S
O222 Tb201 2.325 . S
O222 C209 1.281 . S
O223 Tb200 2.409 . S
O223 C209 1.254 . S
O224 Tb200 2.378 . S
O224 C210 1.236 . S
O225 Tb201 2.341 . S
O225 C210 1.266 . S
O226 Tb201 2.484 . S
O226 C211 1.248 . S
O227 Tb201 2.440 . S
O227 C211 1.266 . S
O228 Tb200 2.325 . S
O228 Tb201 2.658 . S
O228 C218 1.281 . S
O229 Tb201 2.409 . S
O229 C218 1.254 . S
O230 Tb201 2.378 . S
O230 C219 1.236 . S
O231 Tb200 2.341 . S
O231 C219 1.266 . S
H232 C204 0.929 . S
H233 C205 0.931 . S
H234 C207 0.930 . S
H235 C208 0.930 . S
H236 C213 0.929 . S
H237 C214 0.931 . S
H238 C216 0.930 . S
H239 C217 0.930 . S
Tb240 C242 2.809 . S
Tb240 O260 2.484 . S
Tb240 O261 2.440 . S
Tb240 O262 2.658 . S
Tb240 O263 2.409 . S
Tb240 O264 2.378 . S
Tb240 O268 2.325 . S
Tb240 O271 2.341 . S
Tb241 C251 2.809 . S
Tb241 O262 2.325 . S
Tb241 O265 2.341 . S
Tb241 O266 2.484 . S
Tb241 O267 2.440 . S
Tb241 O268 2.658 . S
Tb241 O269 2.409 . S
Tb241 O270 2.378 . S
C242 Tb240 2.809 . S
C242 C243 1.514 . S
C242 O260 1.248 . S
C242 O261 1.266 . S
C243 C242 1.514 . S
C243 C244 1.359 . S
C243 C248 1.348 . S
C244 C243 1.359 . S
C244 C245 1.380 . S
C244 H272 0.929 . S
C245 C244 1.380 . S
C245 C246 1.347 . S
C245 H273 0.931 . S
C246 C245 1.347 . S
C246 C247 1.369 . S
C247 C246 1.369 . S
C247 C248 1.408 . S
C247 H274 0.930 . S
C248 C243 1.348 . S
C248 C247 1.408 . S
C248 H275 0.930 . S
C249 O262 1.281 . S
C249 O263 1.254 . S
C250 O264 1.236 . S
C250 O265 1.266 . S
C251 Tb241 2.809 . S
C251 C252 1.514 . S
C251 O266 1.248 . S
C251 O267 1.266 . S
C252 C251 1.514 . S
C252 C253 1.359 . S
C252 C257 1.348 . S
C253 C252 1.359 . S
C253 C254 1.380 1_655 S
C253 H276 0.929 . S
C254 C253 1.380 1_455 S
C254 C255 1.347 . S
C254 H277 0.931 . S
C255 C254 1.347 . S
C255 C256 1.369 . S
C256 C255 1.369 . S
C256 C257 1.408 1_455 S
C256 H278 0.930 . S
C257 C252 1.348 . S
C257 C256 1.408 1_655 S
C257 H279 0.930 . S
C258 O268 1.281 . S
C258 O269 1.254 . S
C259 O270 1.236 . S
C259 O271 1.266 . S
O260 Tb240 2.484 . S
O260 C242 1.248 . S
O261 Tb240 2.440 . S
O261 C242 1.266 . S
O262 Tb240 2.658 . S
O262 Tb241 2.325 . S
O262 C249 1.281 . S
O263 Tb240 2.409 . S
O263 C249 1.254 . S
O264 Tb240 2.378 . S
O264 C250 1.236 . S
O265 Tb241 2.341 . S
O265 C250 1.266 . S
O266 Tb241 2.484 . S
O266 C251 1.248 . S
O267 Tb241 2.440 . S
O267 C251 1.266 . S
O268 Tb240 2.325 . S
O268 Tb241 2.658 . S
O268 C258 1.281 . S
O269 Tb241 2.409 . S
O269 C258 1.254 . S
O270 Tb241 2.378 . S
O270 C259 1.236 . S
O271 Tb240 2.341 . S
O271 C259 1.266 . S
H272 C244 0.929 . S
H273 C245 0.931 . S
H274 C247 0.930 . S
H275 C248 0.930 . S
H276 C253 0.929 . S
H277 C254 0.931 . S
H278 C256 0.930 . S
H279 C257 0.930 . S
Tb280 C282 2.809 . S
Tb280 O300 2.484 . S
Tb280 O301 2.440 . S
Tb280 O302 2.658 . S
Tb280 O303 2.409 . S
Tb280 O304 2.378 . S
Tb280 O308 2.325 . S
Tb280 O311 2.341 . S
Tb281 C291 2.809 . S
Tb281 O302 2.325 . S
Tb281 O305 2.341 . S
Tb281 O306 2.484 . S
Tb281 O307 2.440 . S
Tb281 O308 2.658 . S
Tb281 O309 2.409 . S
Tb281 O310 2.378 . S
C282 Tb280 2.809 . S
C282 C283 1.514 . S
C282 O300 1.248 . S
C282 O301 1.266 . S
C283 C282 1.514 . S
C283 C284 1.359 . S
C283 C288 1.348 . S
C284 C283 1.359 . S
C284 C285 1.380 . S
C284 H312 0.929 . S
C285 C284 1.380 . S
C285 C286 1.347 . S
C285 H313 0.931 . S
C286 C285 1.347 . S
C286 C287 1.369 . S
C287 C286 1.369 . S
C287 C288 1.408 . S
C287 H314 0.930 . S
C288 C283 1.348 . S
C288 C287 1.408 . S
C288 H315 0.930 . S
C289 O302 1.281 . S
C289 O303 1.254 . S
C290 O304 1.236 . S
C290 O305 1.266 . S
C291 Tb281 2.809 . S
C291 C292 1.514 . S
C291 O306 1.248 . S
C291 O307 1.266 . S
C292 C291 1.514 . S
C292 C293 1.359 . S
C292 C297 1.348 . S
C293 C292 1.359 . S
C293 C294 1.380 . S
C293 H316 0.929 . S
C294 C293 1.380 . S
C294 C295 1.347 . S
C294 H317 0.931 . S
C295 C294 1.347 . S
C295 C296 1.369 . S
C296 C295 1.369 . S
C296 C297 1.408 . S
C296 H318 0.930 . S
C297 C292 1.348 . S
C297 C296 1.408 . S
C297 H319 0.930 . S
C298 O308 1.281 . S
C298 O309 1.254 . S
C299 O310 1.236 . S
C299 O311 1.266 . S
O300 Tb280 2.484 . S
O300 C282 1.248 . S
O301 Tb280 2.440 . S
O301 C282 1.266 . S
O302 Tb280 2.658 . S
O302 Tb281 2.325 . S
O302 C289 1.281 . S
O303 Tb280 2.409 . S
O303 C289 1.254 . S
O304 Tb280 2.378 . S
O304 C290 1.236 . S
O305 Tb281 2.341 . S
O305 C290 1.266 . S
O306 Tb281 2.484 . S
O306 C291 1.248 . S
O307 Tb281 2.440 . S
O307 C291 1.266 . S
O308 Tb280 2.325 . S
O308 Tb281 2.658 . S
O308 C298 1.281 . S
O309 Tb281 2.409 . S
O309 C298 1.254 . S
O310 Tb281 2.378 . S
O310 C299 1.236 . S
O311 Tb280 2.341 . S
O311 C299 1.266 . S
H312 C284 0.929 . S
H313 C285 0.931 . S
H314 C287 0.930 . S
H315 C288 0.930 . S
H316 C293 0.929 . S
H317 C294 0.931 . S
H318 C296 0.930 . S
H319 C297 0.930 . S
Tb320 C322 2.809 . S
Tb320 O340 2.484 . S
Tb320 O341 2.440 . S
Tb320 O342 2.658 . S
Tb320 O343 2.409 . S
Tb320 O344 2.378 . S
Tb320 O348 2.325 . S
Tb320 O351 2.341 . S
Tb321 C331 2.809 . S
Tb321 O342 2.325 . S
Tb321 O345 2.341 . S
Tb321 O346 2.484 . S
Tb321 O347 2.440 . S
Tb321 O348 2.658 . S
Tb321 O349 2.409 . S
Tb321 O350 2.378 . S
C322 Tb320 2.809 . S
C322 C323 1.514 . S
C322 O340 1.248 . S
C322 O341 1.266 . S
C323 C322 1.514 . S
C323 C324 1.359 . S
C323 C328 1.348 . S
C324 C323 1.359 . S
C324 C325 1.380 1_655 S
C324 H352 0.929 . S
C325 C324 1.380 1_455 S
C325 C326 1.347 . S
C325 H353 0.931 . S
C326 C325 1.347 . S
C326 C327 1.369 . S
C327 C326 1.369 . S
C327 C328 1.408 1_455 S
C327 H354 0.930 . S
C328 C323 1.348 . S
C328 C327 1.408 1_655 S
C328 H355 0.930 . S
C329 O342 1.281 . S
C329 O343 1.254 . S
C330 O344 1.236 . S
C330 O345 1.266 . S
C331 Tb321 2.809 . S
C331 C332 1.514 . S
C331 O346 1.248 . S
C331 O347 1.266 . S
C332 C331 1.514 . S
C332 C333 1.359 . S
C332 C337 1.348 . S
C333 C332 1.359 . S
C333 C334 1.380 . S
C333 H356 0.929 . S
C334 C333 1.380 . S
C334 C335 1.347 . S
C334 H357 0.931 . S
C335 C334 1.347 . S
C335 C336 1.369 . S
C336 C335 1.369 . S
C336 C337 1.408 . S
C336 H358 0.930 . S
C337 C332 1.348 . S
C337 C336 1.408 . S
C337 H359 0.930 . S
C338 O348 1.281 . S
C338 O349 1.254 . S
C339 O350 1.236 . S
C339 O351 1.266 . S
O340 Tb320 2.484 . S
O340 C322 1.248 . S
O341 Tb320 2.440 . S
O341 C322 1.266 . S
O342 Tb320 2.658 . S
O342 Tb321 2.325 . S
O342 C329 1.281 . S
O343 Tb320 2.409 . S
O343 C329 1.254 . S
O344 Tb320 2.378 . S
O344 C330 1.236 . S
O345 Tb321 2.341 . S
O345 C330 1.266 . S
O346 Tb321 2.484 . S
O346 C331 1.248 . S
O347 Tb321 2.440 . S
O347 C331 1.266 . S
O348 Tb320 2.325 . S
O348 Tb321 2.658 . S
O348 C338 1.281 . S
O349 Tb321 2.409 . S
O349 C338 1.254 . S
O350 Tb321 2.378 . S
O350 C339 1.236 . S
O351 Tb320 2.341 . S
O351 C339 1.266 . S
H352 C324 0.929 . S
H353 C325 0.931 . S
H354 C327 0.930 . S
H355 C328 0.930 . S
H356 C333 0.929 . S
H357 C334 0.931 . S
H358 C336 0.930 . S
H359 C337 0.930 . S
Tb360 C362 2.809 . S
Tb360 O380 2.484 . S
Tb360 O381 2.440 . S
Tb360 O382 2.658 . S
Tb360 O383 2.409 . S
Tb360 O384 2.378 . S
Tb360 O388 2.325 . S
Tb360 O391 2.341 . S
Tb361 C371 2.809 . S
Tb361 O382 2.325 . S
Tb361 O385 2.341 . S
Tb361 O386 2.484 . S
Tb361 O387 2.440 . S
Tb361 O388 2.658 . S
Tb361 O389 2.409 . S
Tb361 O390 2.378 . S
C362 Tb360 2.809 . S
C362 C363 1.514 . S
C362 O380 1.248 . S
C362 O381 1.266 . S
C363 C362 1.514 . S
C363 C364 1.359 . S
C363 C368 1.348 . S
C364 C363 1.359 . S
C364 C365 1.380 . S
C364 H392 0.929 . S
C365 C364 1.380 . S
C365 C366 1.347 . S
C365 H393 0.931 . S
C366 C365 1.347 . S
C366 C367 1.369 . S
C367 C366 1.369 . S
C367 C368 1.408 . S
C367 H394 0.930 . S
C368 C363 1.348 . S
C368 C367 1.408 . S
C368 H395 0.930 . S
C369 O382 1.281 . S
C369 O383 1.254 . S
C370 O384 1.236 . S
C370 O385 1.266 . S
C371 Tb361 2.809 . S
C371 C372 1.514 . S
C371 O386 1.248 . S
C371 O387 1.266 . S
C372 C371 1.514 . S
C372 C373 1.359 . S
C372 C377 1.348 . S
C373 C372 1.359 . S
C373 C374 1.370 1_545 S
C373 H396 0.929 . S
C374 C373 1.370 1_565 S
C374 C375 1.352 . S
C374 H397 0.936 . S
C375 C374 1.352 . S
C375 C376 1.369 . S
C376 C375 1.369 . S
C376 C377 1.408 1_565 S
C376 H398 0.930 . S
C377 C372 1.348 . S
C377 C376 1.408 1_545 S
C377 H399 0.930 . S
C378 O388 1.281 . S
C378 O389 1.254 . S
C379 O390 1.236 . S
C379 O391 1.266 . S
O380 Tb360 2.484 . S
O380 C362 1.248 . S
O381 Tb360 2.440 . S
O381 C362 1.266 . S
O382 Tb360 2.658 . S
O382 Tb361 2.325 . S
O382 C369 1.281 . S
O383 Tb360 2.409 . S
O383 C369 1.254 . S
O384 Tb360 2.378 . S
O384 C370 1.236 . S
O385 Tb361 2.341 . S
O385 C370 1.266 . S
O386 Tb361 2.484 . S
O386 C371 1.248 . S
O387 Tb361 2.440 . S
O387 C371 1.266 . S
O388 Tb360 2.325 . S
O388 Tb361 2.658 . S
O388 C378 1.281 . S
O389 Tb361 2.409 . S
O389 C378 1.254 . S
O390 Tb361 2.378 . S
O390 C379 1.236 . S
O391 Tb360 2.341 . S
O391 C379 1.266 . S
H392 C364 0.929 . S
H393 C365 0.931 . S
H394 C367 0.930 . S
H395 C368 0.930 . S
H396 C373 0.929 . S
H397 C374 0.936 . S
H398 C376 0.930 . S
H399 C377 0.930 . S
Tb400 C402 2.809 . S
Tb400 O420 2.484 . S
Tb400 O421 2.440 . S
Tb400 O422 2.658 1_556 S
Tb400 O423 2.409 1_556 S
Tb400 O424 2.378 1_556 S
Tb400 O428 2.325 . S
Tb400 O431 2.341 . S
Tb401 C411 2.809 . S
Tb401 O422 2.325 . S
Tb401 O425 2.341 . S
Tb401 O426 2.484 . S
Tb401 O427 2.440 . S
Tb401 O428 2.658 1_554 S
Tb401 O429 2.409 . S
Tb401 O430 2.378 . S
C402 Tb400 2.809 . S
C402 C403 1.514 . S
C402 O420 1.248 . S
C402 O421 1.266 . S
C403 C402 1.514 . S
C403 C404 1.359 . S
C403 C408 1.348 . S
C404 C403 1.359 . S
C404 C405 1.380 . S
C404 H432 0.929 . S
C405 C404 1.380 . S
C405 C406 1.347 . S
C405 H433 0.931 . S
C406 C405 1.347 . S
C406 C407 1.369 . S
C407 C406 1.369 . S
C407 C408 1.408 . S
C407 H434 0.930 . S
C408 C403 1.348 . S
C408 C407 1.408 . S
C408 H435 0.930 . S
C409 O422 1.281 . S
C409 O423 1.254 . S
C410 O424 1.236 . S
C410 O425 1.266 . S
C411 Tb401 2.809 . S
C411 C412 1.514 . S
C411 O426 1.248 . S
C411 O427 1.266 . S
C412 C411 1.514 . S
C412 C413 1.359 . S
C412 C417 1.348 . S
C413 C412 1.359 . S
C413 C414 1.380 . S
C413 H436 0.929 . S
C414 C413 1.380 . S
C414 C415 1.347 . S
C414 H437 0.931 . S
C415 C414 1.347 . S
C415 C416 1.369 . S
C416 C415 1.369 . S
C416 C417 1.408 . S
C416 H438 0.930 . S
C417 C412 1.348 . S
C417 C416 1.408 . S
C417 H439 0.930 . S
C418 O428 1.281 . S
C418 O429 1.254 1_556 S
C419 O430 1.236 . S
C419 O431 1.266 1_554 S
O420 Tb400 2.484 . S
O420 C402 1.248 . S
O421 Tb400 2.440 . S
O421 C402 1.266 . S
O422 Tb400 2.658 1_554 S
O422 Tb401 2.325 . S
O422 C409 1.281 . S
O423 Tb400 2.409 1_554 S
O423 C409 1.254 . S
O424 Tb400 2.378 1_554 S
O424 C410 1.236 . S
O425 Tb401 2.341 . S
O425 C410 1.266 . S
O426 Tb401 2.484 . S
O426 C411 1.248 . S
O427 Tb401 2.440 . S
O427 C411 1.266 . S
O428 Tb400 2.325 . S
O428 Tb401 2.658 1_556 S
O428 C418 1.281 . S
O429 Tb401 2.409 . S
O429 C418 1.254 1_554 S
O430 Tb401 2.378 . S
O430 C419 1.236 . S
O431 Tb400 2.341 . S
O431 C419 1.266 1_556 S
H432 C404 0.929 . S
H433 C405 0.931 . S
H434 C407 0.930 . S
H435 C408 0.930 . S
H436 C413 0.929 . S
H437 C414 0.931 . S
H438 C416 0.930 . S
H439 C417 0.930 . S
Tb440 C442 2.809 . S
Tb440 O460 2.484 . S
Tb440 O461 2.440 . S
Tb440 O462 2.658 . S
Tb440 O463 2.409 . S
Tb440 O464 2.378 . S
Tb440 O468 2.325 . S
Tb440 O471 2.341 . S
Tb441 C451 2.809 . S
Tb441 O462 2.325 . S
Tb441 O465 2.341 . S
Tb441 O466 2.484 . S
Tb441 O467 2.440 . S
Tb441 O468 2.658 . S
Tb441 O469 2.409 . S
Tb441 O470 2.378 . S
C442 Tb440 2.809 . S
C442 C443 1.514 . S
C442 O460 1.248 . S
C442 O461 1.266 . S
C443 C442 1.514 . S
C443 C444 1.359 . S
C443 C448 1.348 . S
C444 C443 1.359 . S
C444 C445 1.380 . S
C444 H472 0.929 . S
C445 C444 1.380 . S
C445 C446 1.347 . S
C445 H473 0.931 . S
C446 C445 1.347 . S
C446 C447 1.369 . S
C447 C446 1.369 . S
C447 C448 1.408 . S
C447 H474 0.930 . S
C448 C443 1.348 . S
C448 C447 1.408 . S
C448 H475 0.930 . S
C449 O462 1.281 . S
C449 O463 1.254 . S
C450 O464 1.236 . S
C450 O465 1.266 . S
C451 Tb441 2.809 . S
C451 C452 1.514 . S
C451 O466 1.248 . S
C451 O467 1.266 . S
C452 C451 1.514 . S
C452 C453 1.359 . S
C452 C457 1.348 . S
C453 C452 1.359 . S
C453 C454 1.370 1_565 S
C453 H476 0.929 . S
C454 C453 1.370 1_545 S
C454 C455 1.352 . S
C454 H477 0.935 . S
C455 C454 1.352 . S
C455 C456 1.369 . S
C456 C455 1.369 . S
C456 C457 1.408 1_545 S
C456 H478 0.930 . S
C457 C452 1.348 . S
C457 C456 1.408 1_565 S
C457 H479 0.930 . S
C458 O468 1.281 . S
C458 O469 1.254 . S
C459 O470 1.236 . S
C459 O471 1.266 . S
O460 Tb440 2.484 . S
O460 C442 1.248 . S
O461 Tb440 2.440 . S
O461 C442 1.266 . S
O462 Tb440 2.658 . S
O462 Tb441 2.325 . S
O462 C449 1.281 . S
O463 Tb440 2.409 . S
O463 C449 1.254 . S
O464 Tb440 2.378 . S
O464 C450 1.236 . S
O465 Tb441 2.341 . S
O465 C450 1.266 . S
O466 Tb441 2.484 . S
O466 C451 1.248 . S
O467 Tb441 2.440 . S
O467 C451 1.266 . S
O468 Tb440 2.325 . S
O468 Tb441 2.658 . S
O468 C458 1.281 . S
O469 Tb441 2.409 . S
O469 C458 1.254 . S
O470 Tb441 2.378 . S
O470 C459 1.236 . S
O471 Tb440 2.341 . S
O471 C459 1.266 . S
H472 C444 0.929 . S
H473 C445 0.931 . S
H474 C447 0.930 . S
H475 C448 0.930 . S
H476 C453 0.929 . S
H477 C454 0.935 . S
H478 C456 0.930 . S
H479 C457 0.930 . S
Tb480 C482 2.809 . S
Tb480 O500 2.484 . S
Tb480 O501 2.440 . S
Tb480 O502 2.658 . S
Tb480 O503 2.409 . S
Tb480 O504 2.378 . S
Tb480 O508 2.325 . S
Tb480 O511 2.341 . S
Tb481 C491 2.809 . S
Tb481 O502 2.325 . S
Tb481 O505 2.341 . S
Tb481 O506 2.484 . S
Tb481 O507 2.440 . S
Tb481 O508 2.658 . S
Tb481 O509 2.409 . S
Tb481 O510 2.378 . S
C482 Tb480 2.809 . S
C482 C483 1.514 . S
C482 O500 1.248 . S
C482 O501 1.266 . S
C483 C482 1.514 . S
C483 C484 1.359 . S
C483 C488 1.348 . S
C484 C483 1.359 . S
C484 C485 1.380 . S
C484 H512 0.929 . S
C485 C484 1.380 . S
C485 C486 1.347 . S
C485 H513 0.931 . S
C486 C485 1.347 . S
C486 C487 1.369 . S
C487 C486 1.369 . S
C487 C488 1.408 . S
C487 H514 0.930 . S
C488 C483 1.348 . S
C488 C487 1.408 . S
C488 H515 0.930 . S
C489 O502 1.281 . S
C489 O503 1.254 . S
C490 O504 1.236 . S
C490 O505 1.266 . S
C491 Tb481 2.809 . S
C491 C492 1.514 . S
C491 O506 1.248 . S
C491 O507 1.266 . S
C492 C491 1.514 . S
C492 C493 1.359 . S
C492 C497 1.348 . S
C493 C492 1.359 . S
C493 C494 1.380 1_455 S
C493 H516 0.929 . S
C494 C493 1.380 1_655 S
C494 C495 1.347 . S
C494 H517 0.931 . S
C495 C494 1.347 . S
C495 C496 1.369 . S
C496 C495 1.369 . S
C496 C497 1.408 1_655 S
C496 H518 0.930 . S
C497 C492 1.348 . S
C497 C496 1.408 1_455 S
C497 H519 0.930 . S
C498 O508 1.281 . S
C498 O509 1.254 . S
C499 O510 1.236 . S
C499 O511 1.266 . S
O500 Tb480 2.484 . S
O500 C482 1.248 . S
O501 Tb480 2.440 . S
O501 C482 1.266 . S
O502 Tb480 2.658 . S
O502 Tb481 2.325 . S
O502 C489 1.281 . S
O503 Tb480 2.409 . S
O503 C489 1.254 . S
O504 Tb480 2.378 . S
O504 C490 1.236 . S
O505 Tb481 2.341 . S
O505 C490 1.266 . S
O506 Tb481 2.484 . S
O506 C491 1.248 . S
O507 Tb481 2.440 . S
O507 C491 1.266 . S
O508 Tb480 2.325 . S
O508 Tb481 2.658 . S
O508 C498 1.281 . S
O509 Tb481 2.409 . S
O509 C498 1.254 . S
O510 Tb481 2.378 . S
O510 C499 1.236 . S
O511 Tb480 2.341 . S
O511 C499 1.266 . S
H512 C484 0.929 . S
H513 C485 0.931 . S
H514 C487 0.930 . S
H515 C488 0.930 . S
H516 C493 0.929 . S
H517 C494 0.931 . S
H518 C496 0.930 . S
H519 C497 0.930 . S
Tb520 C522 2.809 . S
Tb520 O540 2.484 . S
Tb520 O541 2.440 . S
Tb520 O542 2.658 . S
Tb520 O543 2.409 . S
Tb520 O544 2.378 . S
Tb520 O548 2.325 . S
Tb520 O551 2.341 . S
Tb521 C531 2.809 . S
Tb521 O542 2.325 . S
Tb521 O545 2.341 . S
Tb521 O546 2.484 . S
Tb521 O547 2.440 . S
Tb521 O548 2.658 . S
Tb521 O549 2.409 . S
Tb521 O550 2.378 . S
C522 Tb520 2.809 . S
C522 C523 1.514 . S
C522 O540 1.248 . S
C522 O541 1.266 . S
C523 C522 1.514 . S
C523 C524 1.359 . S
C523 C528 1.348 . S
C524 C523 1.359 . S
C524 C525 1.370 1_565 S
C524 H552 0.929 . S
C525 C524 1.370 1_545 S
C525 C526 1.352 . S
C525 H553 0.936 . S
C526 C525 1.352 . S
C526 C527 1.369 . S
C527 C526 1.369 . S
C527 C528 1.408 1_545 S
C527 H554 0.930 . S
C528 C523 1.348 . S
C528 C527 1.408 1_565 S
C528 H555 0.930 . S
C529 O542 1.281 . S
C529 O543 1.254 . S
C530 O544 1.236 . S
C530 O545 1.266 . S
C531 Tb521 2.809 . S
C531 C532 1.514 . S
C531 O546 1.248 . S
C531 O547 1.266 . S
C532 C531 1.514 . S
C532 C533 1.359 . S
C532 C537 1.348 . S
C533 C532 1.359 . S
C533 C534 1.380 . S
C533 H556 0.929 . S
C534 C533 1.380 . S
C534 C535 1.347 . S
C534 H557 0.931 . S
C535 C534 1.347 . S
C535 C536 1.369 . S
C536 C535 1.369 . S
C536 C537 1.408 . S
C536 H558 0.930 . S
C537 C532 1.348 . S
C537 C536 1.408 . S
C537 H559 0.930 . S
C538 O548 1.281 . S
C538 O549 1.254 . S
C539 O550 1.236 . S
C539 O551 1.266 . S
O540 Tb520 2.484 . S
O540 C522 1.248 . S
O541 Tb520 2.440 . S
O541 C522 1.266 . S
O542 Tb520 2.658 . S
O542 Tb521 2.325 . S
O542 C529 1.281 . S
O543 Tb520 2.409 . S
O543 C529 1.254 . S
O544 Tb520 2.378 . S
O544 C530 1.236 . S
O545 Tb521 2.341 . S
O545 C530 1.266 . S
O546 Tb521 2.484 . S
O546 C531 1.248 . S
O547 Tb521 2.440 . S
O547 C531 1.266 . S
O548 Tb520 2.325 . S
O548 Tb521 2.658 . S
O548 C538 1.281 . S
O549 Tb521 2.409 . S
O549 C538 1.254 . S
O550 Tb521 2.378 . S
O550 C539 1.236 . S
O551 Tb520 2.341 . S
O551 C539 1.266 . S
H552 C524 0.929 . S
H553 C525 0.936 . S
H554 C527 0.930 . S
H555 C528 0.930 . S
H556 C533 0.929 . S
H557 C534 0.931 . S
H558 C536 0.930 . S
H559 C537 0.930 . S
Tb560 C562 2.809 . S
Tb560 O580 2.484 . S
Tb560 O581 2.440 . S
Tb560 O582 2.658 1_556 S
Tb560 O583 2.409 . S
Tb560 O584 2.378 . S
Tb560 O588 2.325 . S
Tb560 O591 2.341 . S
Tb561 C571 2.809 . S
Tb561 O582 2.325 . S
Tb561 O585 2.341 . S
Tb561 O586 2.484 . S
Tb561 O587 2.440 . S
Tb561 O588 2.658 1_554 S
Tb561 O589 2.409 1_554 S
Tb561 O590 2.378 1_554 S
C562 Tb560 2.809 . S
C562 C563 1.514 . S
C562 O580 1.248 . S
C562 O581 1.266 . S
C563 C562 1.514 . S
C563 C564 1.359 . S
C563 C568 1.348 . S
C564 C563 1.359 . S
C564 C565 1.380 . S
C564 H592 0.929 . S
C565 C564 1.380 . S
C565 C566 1.347 . S
C565 H593 0.931 . S
C566 C565 1.347 . S
C566 C567 1.369 . S
C567 C566 1.369 . S
C567 C568 1.408 . S
C567 H594 0.930 . S
C568 C563 1.348 . S
C568 C567 1.408 . S
C568 H595 0.930 . S
C569 O582 1.281 . S
C569 O583 1.254 1_554 S
C570 O584 1.236 . S
C570 O585 1.266 1_556 S
C571 Tb561 2.809 . S
C571 C572 1.514 . S
C571 O586 1.248 . S
C571 O587 1.266 . S
C572 C571 1.514 . S
C572 C573 1.359 . S
C572 C577 1.348 . S
C573 C572 1.359 . S
C573 C574 1.380 . S
C573 H596 0.929 . S
C574 C573 1.380 . S
C574 C575 1.347 . S
C574 H597 0.931 . S
C575 C574 1.347 . S
C575 C576 1.369 . S
C576 C575 1.369 . S
C576 C577 1.408 . S
C576 H598 0.930 . S
C577 C572 1.348 . S
C577 C576 1.408 . S
C577 H599 0.930 . S
C578 O588 1.281 . S
C578 O589 1.254 . S
C579 O590 1.236 . S
C579 O591 1.266 . S
O580 Tb560 2.484 . S
O580 C562 1.248 . S
O581 Tb560 2.440 . S
O581 C562 1.266 . S
O582 Tb560 2.658 1_554 S
O582 Tb561 2.325 . S
O582 C569 1.281 . S
O583 Tb560 2.409 . S
O583 C569 1.254 1_556 S
O584 Tb560 2.378 . S
O584 C570 1.236 . S
O585 Tb561 2.341 . S
O585 C570 1.266 1_554 S
O586 Tb561 2.484 . S
O586 C571 1.248 . S
O587 Tb561 2.440 . S
O587 C571 1.266 . S
O588 Tb560 2.325 . S
O588 Tb561 2.658 1_556 S
O588 C578 1.281 . S
O589 Tb561 2.409 1_556 S
O589 C578 1.254 . S
O590 Tb561 2.378 1_556 S
O590 C579 1.236 . S
O591 Tb560 2.341 . S
O591 C579 1.266 . S
H592 C564 0.929 . S
H593 C565 0.931 . S
H594 C567 0.930 . S
H595 C568 0.930 . S
H596 C573 0.929 . S
H597 C574 0.931 . S
H598 C576 0.930 . S
H599 C577 0.930 . S
Tb600 C602 2.809 . S
Tb600 O620 2.484 . S
Tb600 O621 2.440 . S
Tb600 O622 2.658 . S
Tb600 O623 2.409 . S
Tb600 O624 2.378 . S
Tb600 O628 2.325 . S
Tb600 O631 2.341 . S
Tb601 C611 2.809 . S
Tb601 O622 2.325 . S
Tb601 O625 2.341 . S
Tb601 O626 2.484 . S
Tb601 O627 2.440 . S
Tb601 O628 2.658 . S
Tb601 O629 2.409 . S
Tb601 O630 2.378 . S
C602 Tb600 2.809 . S
C602 C603 1.514 . S
C602 O620 1.248 . S
C602 O621 1.266 . S
C603 C602 1.514 . S
C603 C604 1.359 . S
C603 C608 1.348 . S
C604 C603 1.359 . S
C604 C605 1.370 1_545 S
C604 H632 0.929 . S
C605 C604 1.370 1_565 S
C605 C606 1.352 . S
C605 H633 0.935 . S
C606 C605 1.352 . S
C606 C607 1.369 . S
C607 C606 1.369 . S
C607 C608 1.408 1_565 S
C607 H634 0.930 . S
C608 C603 1.348 . S
C608 C607 1.408 1_545 S
C608 H635 0.930 . S
C609 O622 1.281 . S
C609 O623 1.254 . S
C610 O624 1.236 . S
C610 O625 1.266 . S
C611 Tb601 2.809 . S
C611 C612 1.514 . S
C611 O626 1.248 . S
C611 O627 1.266 . S
C612 C611 1.514 . S
C612 C613 1.359 . S
C612 C617 1.348 . S
C613 C612 1.359 . S
C613 C614 1.380 . S
C613 H636 0.929 . S
C614 C613 1.380 . S
C614 C615 1.347 . S
C614 H637 0.931 . S
C615 C614 1.347 . S
C615 C616 1.369 . S
C616 C615 1.369 . S
C616 C617 1.408 . S
C616 H638 0.930 . S
C617 C612 1.348 . S
C617 C616 1.408 . S
C617 H639 0.930 . S
C618 O628 1.281 . S
C618 O629 1.254 . S
C619 O630 1.236 . S
C619 O631 1.266 . S
O620 Tb600 2.484 . S
O620 C602 1.248 . S
O621 Tb600 2.440 . S
O621 C602 1.266 . S
O622 Tb600 2.658 . S
O622 Tb601 2.325 . S
O622 C609 1.281 . S
O623 Tb600 2.409 . S
O623 C609 1.254 . S
O624 Tb600 2.378 . S
O624 C610 1.236 . S
O625 Tb601 2.341 . S
O625 C610 1.266 . S
O626 Tb601 2.484 . S
O626 C611 1.248 . S
O627 Tb601 2.440 . S
O627 C611 1.266 . S
O628 Tb600 2.325 . S
O628 Tb601 2.658 . S
O628 C618 1.281 . S
O629 Tb601 2.409 . S
O629 C618 1.254 . S
O630 Tb601 2.378 . S
O630 C619 1.236 . S
O631 Tb600 2.341 . S
O631 C619 1.266 . S
H632 C604 0.929 . S
H633 C605 0.935 . S
H634 C607 0.930 . S
H635 C608 0.930 . S
H636 C613 0.929 . S
H637 C614 0.931 . S
H638 C616 0.930 . S
H639 C617 0.930 . S
C640 C641 1.387 . S
C640 H644 0.950 1_554 S
C640 C649 1.390 . S
C641 C640 1.387 . S
C641 C643 1.387 . S
H642 C649 0.950 1_556 S
C643 C641 1.387 . S
C643 C645 1.390 . S
C643 H647 0.950 . S
H644 C640 0.950 1_556 S
C645 C643 1.390 . S
C645 C646 1.387 . S
C645 H648 0.950 . S
C646 C645 1.387 . S
C646 C649 1.387 . S
H647 C643 0.950 . S
H648 C645 0.950 . S
C649 C640 1.390 . S
C649 H642 0.950 1_554 S
C649 C646 1.387 . S
C650 C651 1.387 . S
C650 H654 0.950 . S
C650 C659 1.390 . S
C651 C650 1.387 . S
C651 C653 1.387 . S
H652 C659 0.950 . S
C653 C651 1.387 . S
C653 C655 1.390 . S
C653 H657 0.950 . S
H654 C650 0.950 . S
C655 C653 1.390 . S
C655 C656 1.387 . S
C655 H658 0.950 . S
C656 C655 1.387 . S
C656 C659 1.387 . S
H657 C653 0.950 . S
H658 C655 0.950 . S
C659 C650 1.390 . S
C659 H652 0.950 . S
C659 C656 1.387 . S
C660 C661 1.387 . S
C660 H664 0.950 . S
C660 C669 1.390 1_455 S
C661 C660 1.387 . S
C661 C663 1.387 . S
H662 C669 0.950 . S
C663 C661 1.387 . S
C663 C665 1.390 1_455 S
C663 H667 0.950 . S
H664 C660 0.950 . S
C665 C663 1.390 1_655 S
C665 C666 1.387 . S
C665 H668 0.950 . S
C666 C665 1.387 . S
C666 C669 1.387 . S
H667 C663 0.950 . S
H668 C665 0.950 . S
C669 C660 1.390 1_655 S
C669 H662 0.950 . S
C669 C666 1.387 . S
C670 C671 1.387 . S
C670 H674 0.950 . S
C670 C679 1.390 1_655 S
C671 C670 1.387 . S
C671 C673 1.387 . S
H672 C679 0.950 . S
C673 C671 1.387 . S
C673 C675 1.390 1_655 S
C673 H677 0.950 . S
H674 C670 0.950 . S
C675 C673 1.390 1_455 S
C675 C676 1.387 . S
C675 H678 0.950 . S
C676 C675 1.387 . S
C676 C679 1.387 . S
H677 C673 0.950 . S
H678 C675 0.950 . S
C679 C670 1.390 1_455 S
C679 H672 0.950 . S
C679 C676 1.387 . S
C680 C681 1.387 . S
C680 H684 0.950 1_556 S
C680 C689 1.390 . S
C681 C680 1.387 . S
C681 C683 1.387 . S
H682 C689 0.950 1_554 S
C683 C681 1.387 . S
C683 C685 1.390 . S
C683 H687 0.950 . S
H684 C680 0.950 1_554 S
C685 C683 1.390 . S
C685 C686 1.387 . S
C685 H688 0.950 . S
C686 C685 1.387 . S
C686 C689 1.387 . S
H687 C683 0.950 . S
H688 C685 0.950 . S
C689 C680 1.390 . S
C689 H682 0.950 1_556 S
C689 C686 1.387 . S
C690 C691 1.387 . S
C690 H694 0.950 . S
C690 C699 1.390 . S
C691 C690 1.387 . S
C691 C693 1.387 . S
H692 C699 0.950 . S
C693 C691 1.387 . S
C693 C695 1.390 . S
C693 H697 0.950 . S
H694 C690 0.950 . S
C695 C693 1.390 . S
C695 C696 1.387 . S
C695 H698 0.950 . S
C696 C695 1.387 . S
C696 C699 1.387 . S
H697 C693 0.950 . S
H698 C695 0.950 . S
C699 C690 1.390 . S
C699 H692 0.950 . S
C699 C696 1.387 . S
C700 C701 1.387 . S
C700 H704 0.950 . S
C700 C709 1.390 1_655 S
C701 C700 1.387 . S
C701 C703 1.387 . S
H702 C709 0.950 . S
C703 C701 1.387 . S
C703 C705 1.390 1_655 S
C703 H707 0.950 . S
H704 C700 0.950 . S
C705 C703 1.390 1_455 S
C705 C706 1.387 . S
C705 H708 0.950 . S
C706 C705 1.387 . S
C706 C709 1.387 . S
H707 C703 0.950 . S
H708 C705 0.950 . S
C709 C700 1.390 1_455 S
C709 H702 0.950 . S
C709 C706 1.387 . S
C710 C711 1.387 . S
C710 H714 0.950 . S
C710 C719 1.390 1_455 S
C711 C710 1.387 . S
C711 C713 1.387 . S
H712 C719 0.950 . S
C713 C711 1.387 . S
C713 C715 1.390 1_455 S
C713 H717 0.950 . S
H714 C710 0.950 . S
C715 C713 1.390 1_655 S
C715 C716 1.387 . S
C715 H718 0.950 . S
C716 C715 1.387 . S
C716 C719 1.387 . S
H717 C713 0.950 . S
H718 C715 0.950 . S
C719 C710 1.390 1_655 S
C719 H712 0.950 . S
C719 C716 1.387 . S
C720 C721 1.387 . S
C720 H724 0.950 . S
C720 C729 1.390 . S
C721 C720 1.387 . S
C721 C723 1.387 . S
H722 C729 0.950 . S
C723 C721 1.387 . S
C723 C725 1.390 . S
C723 H727 0.950 . S
H724 C720 0.950 . S
C725 C723 1.390 . S
C725 C726 1.387 . S
C725 H728 0.950 . S
C726 C725 1.387 . S
C726 C729 1.387 . S
H727 C723 0.950 . S
H728 C725 0.950 . S
C729 C720 1.390 . S
C729 H722 0.950 . S
C729 C726 1.387 . S
C730 C731 1.387 . S
C730 H734 0.950 . S
C730 C739 1.390 . S
C731 C730 1.387 . S
C731 C733 1.387 . S
H732 C739 0.950 . S
C733 C731 1.387 . S
C733 C735 1.390 . S
C733 H737 0.950 . S
H734 C730 0.950 . S
C735 C733 1.390 . S
C735 C736 1.387 . S
C735 H738 0.950 . S
C736 C735 1.387 . S
C736 C739 1.387 . S
H737 C733 0.950 . S
H738 C735 0.950 . S
C739 C730 1.390 . S
C739 H732 0.950 . S
C739 C736 1.387 . S
C740 C741 1.387 . S
C740 H744 0.950 . S
C740 C749 1.390 . S
C741 C740 1.387 . S
C741 C743 1.387 . S
H742 C749 0.950 . S
C743 C741 1.387 . S
C743 C745 1.390 . S
C743 H747 0.950 . S
H744 C740 0.950 . S
C745 C743 1.390 . S
C745 C746 1.387 . S
C745 H748 0.950 . S
C746 C745 1.387 . S
C746 C749 1.387 . S
H747 C743 0.950 . S
H748 C745 0.950 . S
C749 C740 1.390 . S
C749 H742 0.950 . S
C749 C746 1.387 . S
C750 C751 1.387 . S
C750 H754 0.950 . S
C750 C759 1.390 . S
C751 C750 1.387 . S
C751 C753 1.387 . S
H752 C759 0.950 . S
C753 C751 1.387 . S
C753 C755 1.390 . S
C753 H757 0.950 . S
H754 C750 0.950 . S
C755 C753 1.390 . S
C755 C756 1.387 . S
C755 H758 0.950 . S
C756 C755 1.387 . S
C756 C759 1.387 . S
H757 C753 0.950 . S
H758 C755 0.950 . S
C759 C750 1.390 . S
C759 H752 0.950 . S
C759 C756 1.387 . S
C760 C761 1.387 . S
C760 H764 0.950 . S
C760 C769 1.390 . S
C761 C760 1.387 . S
C761 C763 1.387 . S
H762 C769 0.950 . S
C763 C761 1.387 . S
C763 C765 1.390 . S
C763 H767 0.950 . S
H764 C760 0.950 . S
C765 C763 1.390 . S
C765 C766 1.387 . S
C765 H768 0.950 . S
C766 C765 1.387 . S
C766 C769 1.387 . S
H767 C763 0.950 . S
H768 C765 0.950 . S
C769 C760 1.390 . S
C769 H762 0.950 . S
C769 C766 1.387 . S
C770 C771 1.387 . S
C770 H774 0.950 . S
C770 C779 1.390 . S
C771 C770 1.387 . S
C771 C773 1.387 . S
H772 C779 0.950 . S
C773 C771 1.387 . S
C773 C775 1.390 . S
C773 H777 0.950 . S
H774 C770 0.950 . S
C775 C773 1.390 . S
C775 C776 1.387 . S
C775 H778 0.950 . S
C776 C775 1.387 . S
C776 C779 1.387 . S
H777 C773 0.950 . S
H778 C775 0.950 . S
C779 C770 1.390 . S
C779 H772 0.950 . S
C779 C776 1.387 . S
C780 C781 1.387 . S
C780 H784 0.950 . S
C780 C789 1.390 . S
C781 C780 1.387 . S
C781 C783 1.387 . S
H782 C789 0.950 . S
C783 C781 1.387 . S
C783 C785 1.390 . S
C783 H787 0.950 . S
H784 C780 0.950 . S
C785 C783 1.390 . S
C785 C786 1.387 . S
C785 H788 0.950 . S
C786 C785 1.387 . S
C786 C789 1.387 . S
H787 C783 0.950 . S
H788 C785 0.950 . S
C789 C780 1.390 . S
C789 H782 0.950 . S
C789 C786 1.387 . S
C790 C791 1.387 . S
C790 H794 0.950 . S
C790 C799 1.390 . S
C791 C790 1.387 . S
C791 C793 1.387 . S
H792 C799 0.950 . S
C793 C791 1.387 . S
C793 C795 1.390 . S
C793 H797 0.950 . S
H794 C790 0.950 . S
C795 C793 1.390 . S
C795 C796 1.387 . S
C795 H798 0.950 . S
C796 C795 1.387 . S
C796 C799 1.387 . S
H797 C793 0.950 . S
H798 C795 0.950 . S
C799 C790 1.390 . S
C799 H792 0.950 . S
C799 C796 1.387 . S
C800 C801 1.387 . S
C800 H804 0.950 . S
C800 C809 1.390 . S
C801 C800 1.387 . S
C801 C803 1.387 . S
H802 C809 0.950 . S
C803 C801 1.387 . S
C803 C805 1.390 . S
C803 H807 0.950 . S
H804 C800 0.950 . S
C805 C803 1.390 . S
C805 C806 1.387 . S
C805 H808 0.950 . S
C806 C805 1.387 . S
C806 C809 1.387 . S
H807 C803 0.950 . S
H808 C805 0.950 . S
C809 C800 1.390 . S
C809 H802 0.950 . S
C809 C806 1.387 . S
C810 C811 1.387 . S
C810 H814 0.950 . S
C810 C819 1.390 1_545 S
C811 C810 1.387 . S
C811 C813 1.387 1_545 S
H812 C819 0.950 . S
C813 C811 1.387 1_565 S
C813 C815 1.390 . S
C813 H817 0.950 . S
H814 C810 0.950 . S
C815 C813 1.390 . S
C815 C816 1.387 . S
C815 H818 0.950 . S
C816 C815 1.387 . S
C816 C819 1.387 . S
H817 C813 0.950 . S
H818 C815 0.950 . S
C819 C810 1.390 1_565 S
C819 H812 0.950 . S
C819 C816 1.387 . S
C820 C821 1.387 . S
C820 H824 0.950 . S
C820 C829 1.390 . S
C821 C820 1.387 . S
C821 C823 1.387 . S
H822 C829 0.950 . S
C823 C821 1.387 . S
C823 C825 1.390 . S
C823 H827 0.950 . S
H824 C820 0.950 . S
C825 C823 1.390 . S
C825 C826 1.387 . S
C825 H828 0.950 . S
C826 C825 1.387 . S
C826 C829 1.387 . S
H827 C823 0.950 . S
H828 C825 0.950 . S
C829 C820 1.390 . S
C829 H822 0.950 . S
C829 C826 1.387 . S
C830 C831 1.387 1_545 S
C830 H834 0.950 . S
C830 C839 1.390 . S
C831 C830 1.387 1_565 S
C831 C833 1.387 . S
H832 C839 0.950 . S
C833 C831 1.387 . S
C833 C835 1.390 1_565 S
C833 H837 0.950 . S
H834 C830 0.950 . S
C835 C833 1.390 1_545 S
C835 C836 1.387 . S
C835 H838 0.950 . S
C836 C835 1.387 . S
C836 C839 1.387 . S
H837 C833 0.950 . S
H838 C835 0.950 . S
C839 C830 1.390 . S
C839 H832 0.950 . S
C839 C836 1.387 . S
C840 C841 1.387 . S
C840 H844 0.950 . S
C840 C849 1.390 . S
C841 C840 1.387 . S
C841 C843 1.387 . S
H842 C849 0.950 . S
C843 C841 1.387 . S
C843 C845 1.390 . S
C843 H847 0.950 . S
H844 C840 0.950 . S
C845 C843 1.390 . S
C845 C846 1.387 . S
C845 H848 0.950 . S
C846 C845 1.387 . S
C846 C849 1.387 . S
H847 C843 0.950 . S
H848 C845 0.950 . S
C849 C840 1.390 . S
C849 H842 0.950 . S
C849 C846 1.387 . S
C850 C851 1.387 . S
C850 H854 0.950 . S
C850 C859 1.368 1_545 S
C851 C850 1.387 . S
C851 C853 1.387 . S
H852 C859 0.966 . S
C853 C851 1.387 . S
C853 C855 1.390 . S
C853 H857 0.950 . S
H854 C850 0.950 . S
C855 C853 1.390 . S
C855 C856 1.387 1_545 S
C855 H858 0.950 . S
C856 C855 1.387 1_565 S
C856 C859 1.394 . S
H857 C853 0.950 . S
H858 C855 0.950 . S
C859 C850 1.368 1_565 S
C859 H852 0.966 . S
C859 C856 1.394 . S
C860 C861 1.387 . S
C860 H864 0.950 . S
C860 C869 1.390 . S
C861 C860 1.387 . S
C861 C863 1.387 . S
H862 C869 0.950 . S
C863 C861 1.387 . S
C863 C865 1.390 . S
C863 H867 0.950 . S
H864 C860 0.950 . S
C865 C863 1.390 . S
C865 C866 1.387 . S
C865 H868 0.950 . S
C866 C865 1.387 . S
C866 C869 1.387 . S
H867 C863 0.950 . S
H868 C865 0.950 . S
C869 C860 1.390 . S
C869 H862 0.950 . S
C869 C866 1.387 . S
C870 C871 1.387 1_565 S
C870 H874 0.950 . S
C870 C879 1.390 . S
C871 C870 1.387 1_545 S
C871 C873 1.387 . S
H872 C879 0.950 . S
C873 C871 1.387 . S
C873 C875 1.390 1_545 S
C873 H877 0.950 . S
H874 C870 0.950 . S
C875 C873 1.390 1_565 S
C875 C876 1.387 . S
C875 H878 0.950 . S
C876 C875 1.387 . S
C876 C879 1.387 . S
H877 C873 0.950 . S
H878 C875 0.950 . S
C879 C870 1.390 . S
C879 H872 0.950 . S
C879 C876 1.387 . S
C880 C881 1.387 . S
C880 H884 0.950 . S
C880 C889 1.390 . S
C881 C880 1.387 . S
C881 C883 1.387 . S
H882 C889 0.950 . S
C883 C881 1.387 . S
C883 C885 1.390 . S
C883 H887 0.950 . S
H884 C880 0.950 . S
C885 C883 1.390 . S
C885 C886 1.387 . S
C885 H888 0.950 . S
C886 C885 1.387 . S
C886 C889 1.387 . S
H887 C883 0.950 . S
H888 C885 0.950 . S
C889 C880 1.390 . S
C889 H882 0.950 . S
C889 C886 1.387 . S
C890 C891 1.387 . S
C890 H894 0.950 . S
C890 C899 1.390 . S
C891 C890 1.387 . S
C891 C893 1.387 . S
H892 C899 0.950 . S
C893 C891 1.387 . S
C893 C895 1.390 . S
C893 H897 0.950 . S
H894 C890 0.950 . S
C895 C893 1.390 . S
C895 C896 1.387 . S
C895 H898 0.950 . S
C896 C895 1.387 . S
C896 C899 1.387 . S
H897 C893 0.950 . S
H898 C895 0.950 . S
C899 C890 1.390 . S
C899 H892 0.950 . S
C899 C896 1.387 . S
C900 C901 1.387 . S
C900 H904 0.950 . S
C900 C909 1.390 . S
C901 C900 1.387 . S
C901 C903 1.387 . S
H902 C909 0.950 . S
C903 C901 1.387 . S
C903 C905 1.390 . S
C903 H907 0.950 . S
H904 C900 0.950 . S
C905 C903 1.390 . S
C905 C906 1.387 . S
C905 H908 0.950 . S
C906 C905 1.387 . S
C906 C909 1.387 . S
H907 C903 0.950 . S
H908 C905 0.950 . S
C909 C900 1.390 . S
C909 H902 0.950 . S
C909 C906 1.387 . S
C910 C911 1.387 . S
C910 H914 0.950 . S
C910 C919 1.390 . S
C911 C910 1.387 . S
C911 C913 1.387 . S
H912 C919 0.950 . S
C913 C911 1.387 . S
C913 C915 1.390 . S
C913 H917 0.950 . S
H914 C910 0.950 . S
C915 C913 1.390 . S
C915 C916 1.387 . S
C915 H918 0.950 . S
C916 C915 1.387 . S
C916 C919 1.387 . S
H917 C913 0.950 . S
H918 C915 0.950 . S
C919 C910 1.390 . S
C919 H912 0.950 . S
C919 C916 1.387 . S
C920 C921 1.387 . S
C920 H924 0.950 . S
C920 C929 1.390 . S
C921 C920 1.387 . S
C921 C923 1.387 . S
H922 C929 0.950 . S
C923 C921 1.387 . S
C923 C925 1.390 . S
C923 H927 0.950 . S
H924 C920 0.950 . S
C925 C923 1.390 . S
C925 C926 1.387 . S
C925 H928 0.950 . S
C926 C925 1.387 . S
C926 C929 1.387 . S
H927 C923 0.950 . S
H928 C925 0.950 . S
C929 C920 1.390 . S
C929 H922 0.950 . S
C929 C926 1.387 . S
C930 C931 1.387 . S
C930 H934 0.950 . S
C930 C939 1.390 . S
C931 C930 1.387 . S
C931 C933 1.387 . S
H932 C939 0.950 . S
C933 C931 1.387 . S
C933 C935 1.390 . S
C933 H937 0.950 . S
H934 C930 0.950 . S
C935 C933 1.390 . S
C935 C936 1.387 . S
C935 H938 0.950 . S
C936 C935 1.387 . S
C936 C939 1.387 . S
H937 C933 0.950 . S
H938 C935 0.950 . S
C939 C930 1.390 . S
C939 H932 0.950 . S
C939 C936 1.387 . S
C940 C941 1.387 . S
C940 H944 0.950 . S
C940 C949 1.390 . S
C941 C940 1.387 . S
C941 C943 1.387 . S
H942 C949 0.950 . S
C943 C941 1.387 . S
C943 C945 1.390 . S
C943 H947 0.950 . S
H944 C940 0.950 . S
C945 C943 1.390 . S
C945 C946 1.387 . S
C945 H948 0.950 . S
C946 C945 1.387 . S
C946 C949 1.387 . S
H947 C943 0.950 . S
H948 C945 0.950 . S
C949 C940 1.390 . S
C949 H942 0.950 . S
C949 C946 1.387 . S
C950 C951 1.387 . S
C950 H954 0.950 . S
C950 C959 1.390 . S
C951 C950 1.387 . S
C951 C953 1.387 . S
H952 C959 0.950 . S
C953 C951 1.387 . S
C953 C955 1.390 . S
C953 H957 0.950 . S
H954 C950 0.950 . S
C955 C953 1.390 . S
C955 C956 1.387 . S
C955 H958 0.950 . S
C956 C955 1.387 . S
C956 C959 1.387 . S
H957 C953 0.950 . S
H958 C955 0.950 . S
C959 C950 1.390 . S
C959 H952 0.950 . S
C959 C956 1.387 . S
C960 C961 1.387 . S
C960 H964 0.950 . S
C960 C969 1.390 . S
C961 C960 1.387 . S
C961 C963 1.387 . S
H962 C969 0.950 . S
C963 C961 1.387 . S
C963 C965 1.390 . S
C963 H967 0.950 . S
H964 C960 0.950 . S
C965 C963 1.390 . S
C965 C966 1.387 . S
C965 H968 0.950 . S
C966 C965 1.387 . S
C966 C969 1.387 . S
H967 C963 0.950 . S
H968 C965 0.950 . S
C969 C960 1.390 . S
C969 H962 0.950 . S
C969 C966 1.387 . S
C970 C971 1.387 . S
C970 H974 0.950 . S
C970 C979 1.390 . S
C971 C970 1.387 . S
C971 C973 1.387 . S
H972 C979 0.950 . S
C973 C971 1.387 . S
C973 C975 1.390 . S
C973 H977 0.950 . S
H974 C970 0.950 . S
C975 C973 1.390 . S
C975 C976 1.387 . S
C975 H978 0.950 . S
C976 C975 1.387 . S
C976 C979 1.387 . S
H977 C973 0.950 . S
H978 C975 0.950 . S
C979 C970 1.390 . S
C979 H972 0.950 . S
C979 C976 1.387 . S
C980 C981 1.387 . S
C980 H984 0.950 . S
C980 C989 1.390 . S
C981 C980 1.387 . S
C981 C983 1.387 . S
H982 C989 0.950 . S
C983 C981 1.387 . S
C983 C985 1.390 . S
C983 H987 0.950 . S
H984 C980 0.950 . S
C985 C983 1.390 . S
C985 C986 1.387 . S
C985 H988 0.950 . S
C986 C985 1.387 . S
C986 C989 1.387 . S
H987 C983 0.950 . S
H988 C985 0.950 . S
C989 C980 1.390 . S
C989 H982 0.950 . S
C989 C986 1.387 . S
C990 C991 1.387 . S
C990 H994 0.950 . S
C990 C999 1.390 . S
C991 C990 1.387 . S
C991 C993 1.387 . S
H992 C999 0.950 . S
C993 C991 1.387 . S
C993 C995 1.390 . S
C993 H997 0.950 . S
H994 C990 0.950 . S
C995 C993 1.390 . S
C995 C996 1.387 . S
C995 H998 0.950 . S
C996 C995 1.387 . S
C996 C999 1.387 . S
H997 C993 0.950 . S
H998 C995 0.950 . S
C999 C990 1.390 . S
C999 H992 0.950 . S
C999 C996 1.387 . S
C1000 C1001 1.387 . S
C1000 H1004 0.950 . S
C1000 C1009 1.390 . S
C1001 C1000 1.387 . S
C1001 C1003 1.387 . S
H1002 C1009 0.950 . S
C1003 C1001 1.387 . S
C1003 C1005 1.390 . S
C1003 H1007 0.950 . S
H1004 C1000 0.950 . S
C1005 C1003 1.390 . S
C1005 C1006 1.387 . S
C1005 H1008 0.950 . S
C1006 C1005 1.387 . S
C1006 C1009 1.387 . S
H1007 C1003 0.950 . S
H1008 C1005 0.950 . S
C1009 C1000 1.390 . S
C1009 H1002 0.950 . S
C1009 C1006 1.387 . S
C1010 C1011 1.387 . S
C1010 H1014 0.950 . S
C1010 C1019 1.390 . S
C1011 C1010 1.387 . S
C1011 C1013 1.387 . S
H1012 C1019 0.950 . S
C1013 C1011 1.387 . S
C1013 C1015 1.390 . S
C1013 H1017 0.950 . S
H1014 C1010 0.950 . S
C1015 C1013 1.390 . S
C1015 C1016 1.387 . S
C1015 H1018 0.950 . S
C1016 C1015 1.387 . S
C1016 C1019 1.387 . S
H1017 C1013 0.950 . S
H1018 C1015 0.950 . S
C1019 C1010 1.390 . S
C1019 H1012 0.950 . S
C1019 C1016 1.387 . S
C1020 C1021 1.387 . S
C1020 H1024 0.950 . S
C1020 C1029 1.390 . S
C1021 C1020 1.387 . S
C1021 C1023 1.387 . S
H1022 C1029 0.950 . S
C1023 C1021 1.387 . S
C1023 C1025 1.390 . S
C1023 H1027 0.950 . S
H1024 C1020 0.950 . S
C1025 C1023 1.390 . S
C1025 C1026 1.387 . S
C1025 H1028 0.950 . S
C1026 C1025 1.387 . S
C1026 C1029 1.387 . S
H1027 C1023 0.950 . S
H1028 C1025 0.950 . S
C1029 C1020 1.390 . S
C1029 H1022 0.950 . S
C1029 C1026 1.387 . S
C1030 C1031 1.387 . S
C1030 H1034 0.950 . S
C1030 C1039 1.390 . S
C1031 C1030 1.387 . S
C1031 C1033 1.387 . S
H1032 C1039 0.950 . S
C1033 C1031 1.387 . S
C1033 C1035 1.390 . S
C1033 H1037 0.950 . S
H1034 C1030 0.950 . S
C1035 C1033 1.390 . S
C1035 C1036 1.387 . S
C1035 H1038 0.950 . S
C1036 C1035 1.387 . S
C1036 C1039 1.387 . S
H1037 C1033 0.950 . S
H1038 C1035 0.950 . S
C1039 C1030 1.390 . S
C1039 H1032 0.950 . S
C1039 C1036 1.387 . S
C1040 C1041 1.387 . S
C1040 H1044 0.950 . S
C1040 C1049 1.390 . S
C1041 C1040 1.387 . S
C1041 C1043 1.387 . S
H1042 C1049 0.950 . S
C1043 C1041 1.387 . S
C1043 C1045 1.390 . S
C1043 H1047 0.950 . S
H1044 C1040 0.950 . S
C1045 C1043 1.390 . S
C1045 C1046 1.387 . S
C1045 H1048 0.950 . S
C1046 C1045 1.387 . S
C1046 C1049 1.387 . S
H1047 C1043 0.950 . S
H1048 C1045 0.950 . S
C1049 C1040 1.390 . S
C1049 H1042 0.950 . S
C1049 C1046 1.387 . S
C1050 C1051 1.387 . S
C1050 H1054 0.950 . S
C1050 C1059 1.390 . S
C1051 C1050 1.387 . S
C1051 C1053 1.387 . S
H1052 C1059 0.950 . S
C1053 C1051 1.387 . S
C1053 C1055 1.390 . S
C1053 H1057 0.950 . S
H1054 C1050 0.950 . S
C1055 C1053 1.390 . S
C1055 C1056 1.387 . S
C1055 H1058 0.950 . S
C1056 C1055 1.387 . S
C1056 C1059 1.387 . S
H1057 C1053 0.950 . S
H1058 C1055 0.950 . S
C1059 C1050 1.390 . S
C1059 H1052 0.950 . S
C1059 C1056 1.387 . S
C1060 C1061 1.387 . S
C1060 H1064 0.950 . S
C1060 C1069 1.390 . S
C1061 C1060 1.387 . S
C1061 C1063 1.387 . S
H1062 C1069 0.950 . S
C1063 C1061 1.387 . S
C1063 C1065 1.390 . S
C1063 H1067 0.950 . S
H1064 C1060 0.950 . S
C1065 C1063 1.390 . S
C1065 C1066 1.387 . S
C1065 H1068 0.950 . S
C1066 C1065 1.387 . S
C1066 C1069 1.387 . S
H1067 C1063 0.950 . S
H1068 C1065 0.950 . S
C1069 C1060 1.390 . S
C1069 H1062 0.950 . S
C1069 C1066 1.387 . S
C1070 C1071 1.387 . S
C1070 H1074 0.950 . S
C1070 C1079 1.390 1_455 S
C1071 C1070 1.387 . S
C1071 C1073 1.387 1_554 S
H1072 C1079 0.950 . S
C1073 C1071 1.387 1_556 S
C1073 C1075 1.390 1_455 S
C1073 H1077 0.950 . S
H1074 C1070 0.950 . S
C1075 C1073 1.390 1_655 S
C1075 C1076 1.387 . S
C1075 H1078 0.950 . S
C1076 C1075 1.387 . S
C1076 C1079 1.387 1_556 S
H1077 C1073 0.950 . S
H1078 C1075 0.950 . S
C1079 C1070 1.390 1_655 S
C1079 H1072 0.950 . S
C1079 C1076 1.387 1_554 S
C1080 C1081 1.387 . S
C1080 H1084 0.950 . S
C1080 C1089 1.390 . S
C1081 C1080 1.387 . S
C1081 C1083 1.387 . S
H1082 C1089 0.950 . S
C1083 C1081 1.387 . S
C1083 C1085 1.390 . S
C1083 H1087 0.950 . S
H1084 C1080 0.950 . S
C1085 C1083 1.390 . S
C1085 C1086 1.387 . S
C1085 H1088 0.950 . S
C1086 C1085 1.387 . S
C1086 C1089 1.387 . S
H1087 C1083 0.950 . S
H1088 C1085 0.950 . S
C1089 C1080 1.390 . S
C1089 H1082 0.950 . S
C1089 C1086 1.387 . S
C1090 C1091 1.387 . S
C1090 H1094 0.950 . S
C1090 C1099 1.390 . S
C1091 C1090 1.387 . S
C1091 C1093 1.387 . S
H1092 C1099 0.950 . S
C1093 C1091 1.387 . S
C1093 C1095 1.390 . S
C1093 H1097 0.950 . S
H1094 C1090 0.950 . S
C1095 C1093 1.390 . S
C1095 C1096 1.387 . S
C1095 H1098 0.950 . S
C1096 C1095 1.387 . S
C1096 C1099 1.387 . S
H1097 C1093 0.950 . S
H1098 C1095 0.950 . S
C1099 C1090 1.390 . S
C1099 H1092 0.950 . S
C1099 C1096 1.387 . S
C1100 C1101 1.387 1_544 S
C1100 H1104 0.950 . S
C1100 C1109 1.390 . S
C1101 C1100 1.387 1_566 S
C1101 C1103 1.387 1_455 S
H1102 C1109 0.950 . S
C1103 C1101 1.387 1_655 S
C1103 C1105 1.390 . S
C1103 H1107 0.950 . S
H1104 C1100 0.950 . S
C1105 C1103 1.390 . S
C1105 C1106 1.387 1_566 S
C1105 H1108 0.950 . S
C1106 C1105 1.387 1_544 S
C1106 C1109 1.387 1_655 S
H1107 C1103 0.950 . S
H1108 C1105 0.950 . S
C1109 C1100 1.390 . S
C1109 H1102 0.950 . S
C1109 C1106 1.387 1_455 S
C1110 C1111 1.387 . S
C1110 H1114 0.950 . S
C1110 C1119 1.390 1_565 S
C1111 C1110 1.387 . S
C1111 C1113 1.387 . S
H1112 C1119 0.950 . S
C1113 C1111 1.387 . S
C1113 C1115 1.390 1_565 S
C1113 H1117 0.950 . S
H1114 C1110 0.950 . S
C1115 C1113 1.390 1_545 S
C1115 C1116 1.387 . S
C1115 H1118 0.950 . S
C1116 C1115 1.387 . S
C1116 C1119 1.387 . S
H1117 C1113 0.950 . S
H1118 C1115 0.950 . S
C1119 C1110 1.390 1_545 S
C1119 H1112 0.950 . S
C1119 C1116 1.387 . S
C641 C10 3.495 . S
C646 C410 3.495 . S
C651 C50 3.493 . S
C656 C450 3.493 . S
C661 C90 3.493 . S
C666 C330 3.493 . S
C671 C130 3.494 . S
C676 C370 3.494 . S
C681 C179 3.493 . S
C686 C579 3.493 . S
C691 C219 3.495 . S
C696 C619 3.495 . S
C701 C259 3.493 . S
C706 C499 3.493 . S
C711 C299 3.495 . S
C716 C539 3.495 . S
C721 C369 3.789 . S
C726 C19 3.696 1_556 S
C731 C409 3.788 . S
C736 C59 3.698 . S
C741 C449 3.789 . S
C746 C99 3.696 . S
C751 C329 3.789 . S
C756 C139 3.696 . S
C761 C170 3.696 1_554 S
C766 C538 3.789 . S
C771 C578 3.789 . S
C776 C210 3.697 . S
C781 C618 3.789 . S
C786 C250 3.696 . S
C791 C498 3.789 . S
C796 C290 3.696 . S
C801 C49 3.788 . S
C806 C339 3.698 . S
C811 C379 3.697 . S
C816 C89 3.788 . S
C821 C419 3.696 1_556 S
C826 C129 3.789 . S
C831 C459 3.698 . S
C836 C9 3.788 . S
C841 C490 3.698 . S
C846 C218 3.788 . S
C851 C258 3.789 . S
C856 C530 3.696 . S
C861 C298 3.789 . S
C866 C570 3.696 1_554 S
C871 C610 3.696 . S
C876 C178 3.789 . S
C881 C6 0.702 . S
C886 C609 0.634 . S
C891 C46 0.707 . S
C896 C169 0.640 . S
C901 C529 0.633 . S
C906 C86 0.699 . S
C911 C249 0.640 . S
C916 C126 0.708 . S
C921 C175 0.707 . S
C926 C458 0.640 . S
C931 C215 0.708 . S
C936 C18 0.640 . S
C941 C378 0.633 . S
C946 C255 0.700 . S
C951 C98 0.634 . S
C956 C295 0.702 . S
C961 C326 0.708 . S
C966 C289 0.638 . S
C971 C366 0.710 . S
C976 C489 0.640 . S
C981 C209 0.633 . S
C986 C406 0.702 . S
C991 C569 0.640 . S
C996 C446 0.707 . S
C1001 C495 0.708 . S
C1006 C138 0.640 . S
C1011 C535 0.707 . S
C1016 C338 0.640 . S
C1021 C575 0.707 . S
C1026 C58 0.640 . S
C1031 C418 0.634 . S
C1036 C615 0.702 . S
C1041 C15 2.297 . S
C1046 C486 2.297 . S
C1051 C55 2.296 . S
C1056 C206 2.296 . S
C1061 C95 2.293 . S
C1066 C566 2.293 . S
C1071 C286 2.296 . S
C1076 C135 2.296 . S
C1081 C166 2.297 . S
C1086 C335 2.297 . S
C1091 C415 2.295 . S
C1096 C246 2.295 . S
C1101 C375 2.297 . S
C1106 C526 2.297 . S
C1111 C606 2.297 . S
C1116 C455 2.297 . S
