# Generated by pormake.
# Topology sml, (6)-cn, num edge types: 1
# Building blocks:
#     Node 0, Type 0, BuildingBlock: BETGAK_clean_sbu_0, # of connection points: 6
#     Node 1, Type 0, BuildingBlock: BETGAK_clean_sbu_0, # of connection points: 6
#     Node 2, Type 0, BuildingBlock: BETGAK_clean_sbu_0, # of connection points: 6
#     Node 3, Type 0, BuildingBlock: BETGAK_clean_sbu_0, # of connection points: 6
#     Node 4, Type 0, BuildingBlock: BETGAK_clean_sbu_0, # of connection points: 6
#     Node 5, Type 0, BuildingBlock: BETGAK_clean_sbu_0, # of connection points: 6
#     Edge 6, Type (0, 0), BuildingBlock: KIFKEQ_clean_linker_1, # of connection points: 2
#     Edge 7, Type (0, 0), BuildingBlock: KIFKEQ_clean_linker_1, # of connection points: 2
#     Edge 8, Type (0, 0), BuildingBlock: KIFKEQ_clean_linker_1, # of connection points: 2
#     Edge 9, Type (0, 0), BuildingBlock: KIFKEQ_clean_linker_1, # of connection points: 2
#     Edge 10, Type (0, 0), BuildingBlock: KIFKEQ_clean_linker_1, # of connection points: 2
#     Edge 11, Type (0, 0), BuildingBlock: KIFKEQ_clean_linker_1, # of connection points: 2
#     Edge 12, Type (0, 0), BuildingBlock: KIFKEQ_clean_linker_1, # of connection points: 2
#     Edge 13, Type (0, 0), BuildingBlock: KIFKEQ_clean_linker_1, # of connection points: 2
#     Edge 14, Type (0, 0), BuildingBlock: KIFKEQ_clean_linker_1, # of connection points: 2
#     Edge 15, Type (0, 0), BuildingBlock: KIFKEQ_clean_linker_1, # of connection points: 2
#     Edge 16, Type (0, 0), BuildingBlock: KIFKEQ_clean_linker_1, # of connection points: 2
#     Edge 17, Type (0, 0), BuildingBlock: KIFKEQ_clean_linker_1, # of connection points: 2
#     Edge 18, Type (0, 0), BuildingBlock: KIFKEQ_clean_linker_1, # of connection points: 2
#     Edge 19, Type (0, 0), BuildingBlock: KIFKEQ_clean_linker_1, # of connection points: 2
#     Edge 20, Type (0, 0), BuildingBlock: KIFKEQ_clean_linker_1, # of connection points: 2
#     Edge 21, Type (0, 0), BuildingBlock: KIFKEQ_clean_linker_1, # of connection points: 2
#     Edge 22, Type (0, 0), BuildingBlock: KIFKEQ_clean_linker_1, # of connection points: 2
#     Edge 23, Type (0, 0), BuildingBlock: KIFKEQ_clean_linker_1, # of connection points: 2
# Relax obj value: 0.189
# Max RMSD: 0.221
# Mean RMSD: 0.221
data_MOF--net-sml--node1-BETGAK_clean_sbu_0--edge1-KIFKEQ_clean_linker_1
_symmetry_space_group_name_H-M    P1
_symmetry_Int_Tables_number       1
_symmetry_cell_setting            triclinic
loop_
_symmetry_equiv_pos_as_xyz
'x, y, z'
_cell_length_a     32.817726
_cell_length_b     32.847881
_cell_length_c     25.257614
_cell_angle_alpha  89.94145
_cell_angle_beta   90.156804
_cell_angle_gamma 120.04324
loop_
_atom_site_label
_atom_site_type_symbol
_atom_site_fract_x
_atom_site_fract_y
_atom_site_fract_z
_atom_type_partial_charge
La0 La 0.16503 0.42717 0.10152 0.0
La1 La 0.20117 0.3969 0.19689 0.0
C2 C 0.15249 0.45346 1.01204 0.0
C3 C 0.15886 0.4469 0.95564 0.0
C4 C 0.13535 0.45868 0.91763 0.0
C5 C 0.14053 0.4529 0.86372 0.0
C6 C 0.16936 0.4351 0.84666 0.0
C7 C 0.19277 0.42304 0.88504 0.0
C8 C 0.18764 0.42899 0.93911 0.0
C9 C 0.1007 0.37281 0.17022 0.0
C10 C 0.19178 0.34546 0.09177 0.0
C11 C 0.21085 0.3701 0.28723 0.0
C12 C 0.20578 0.3793 0.34349 0.0
C13 C 0.24433 0.39374 0.37772 0.0
C14 C 0.24026 0.40063 0.4316 0.0
C15 C 0.19731 0.39286 0.45277 0.0
C16 C 0.1588 0.37903 0.41819 0.0
C17 C 0.16298 0.37237 0.3641 0.0
C18 C 0.26521 0.45437 0.12924 0.0
C19 C 0.18094 0.48256 0.20694 0.0
O20 O 0.12015 0.41645 0.03708 0.0
O21 O 0.19082 0.47714 0.04041 0.0
O22 O 0.0993 0.40552 0.14297 0.0
O23 O 0.13586 0.36966 0.15611 0.0
O24 O 0.18556 0.37805 0.06802 0.0
O25 O 0.1924 0.34187 0.14378 0.0
O26 O 0.24531 0.40454 0.26111 0.0
O27 O 0.17233 0.34795 0.25874 0.0
O28 O 0.26878 0.42233 0.1556 0.0
O29 O 0.22909 0.45501 0.14399 0.0
O30 O 0.18575 0.4491 0.23046 0.0
O31 O 0.17688 0.48425 0.15485 0.0
H32 H 0.1128 0.47232 0.92968 0.0
H33 H 0.1214 0.46182 0.8354 0.0
H34 H 0.21556 0.40963 0.87327 0.0
H35 H 0.20621 0.41978 0.9679 0.0
H36 H 0.2777 0.3994 0.36278 0.0
H37 H 0.27094 0.41221 0.45666 0.0
H38 H 0.12506 0.37227 0.43305 0.0
H39 H 0.13255 0.36122 0.3387 0.0
La40 La 0.82649 0.25875 0.55784 0.0
La41 La 0.79061 0.19241 0.46285 0.0
C42 C 0.84186 0.29811 0.6473 0.0
C43 C 0.8353 0.28534 0.70379 0.0
C44 C 0.86394 0.31916 0.74116 0.0
C45 C 0.85934 0.30815 0.79506 0.0
C46 C 0.82603 0.26287 0.81281 0.0
C47 C 0.79706 0.22901 0.77506 0.0
C48 C 0.80165 0.24016 0.72099 0.0
C49 C 0.89086 0.26882 0.489 0.0
C50 C 0.79991 0.15049 0.56824 0.0
C51 C 0.78156 0.1565 0.37232 0.0
C52 C 0.78751 0.17161 0.31621 0.0
C53 C 0.74816 0.15196 0.28247 0.0
C54 C 0.75291 0.16378 0.22876 0.0
C55 C 0.79727 0.19526 0.20735 0.0
C56 C 0.8367 0.21529 0.24123 0.0
C57 C 0.83188 0.20372 0.29514 0.0
C58 C 0.72568 0.18436 0.53008 0.0
C59 C 0.8112 0.29845 0.45231 0.0
O60 O 0.87243 0.2909 0.62202 0.0
O61 O 0.80384 0.28575 0.61917 0.0
O62 O 0.89192 0.30293 0.51573 0.0
O63 O 0.85587 0.23054 0.50348 0.0
O64 O 0.80449 0.18881 0.59155 0.0
O65 O 0.80043 0.14669 0.51623 0.0
O66 O 0.74699 0.15648 0.39811 0.0
O67 O 0.81964 0.17213 0.40143 0.0
O68 O 0.7229 0.14948 0.50298 0.0
O69 O 0.76177 0.22181 0.51611 0.0
O70 O 0.80619 0.26003 0.42915 0.0
O71 O 0.8151 0.30435 0.50439 0.0
H72 H 0.88999 0.35426 0.72863 0.0
H73 H 0.88163 0.33539 0.82288 0.0
H74 H 0.77133 0.19368 0.78718 0.0
H75 H 0.77915 0.21356 0.69266 0.0
H76 H 0.71365 0.12686 0.29755 0.0
H77 H 0.72194 0.14728 0.20369 0.0
H78 H 0.87128 0.24003 0.22608 0.0
H79 H 0.86297 0.2196 0.32006 0.0
La80 La 0.56618 0.74297 0.78654 0.0
La81 La 0.58862 0.80857 0.88049 0.0
C82 C 0.54548 0.70474 0.69642 0.0
C83 C 0.55129 0.7184 0.64013 0.0
C84 C 0.55562 0.6892 0.60294 0.0
C85 C 0.55992 0.70023 0.54906 0.0
C86 C 0.55987 0.74078 0.53109 0.0
C87 C 0.55619 0.77046 0.56869 0.0
C88 C 0.55194 0.75938 0.62277 0.0
C89 C 0.61802 0.73446 0.86028 0.0
C90 C 0.6458 0.8521 0.7789 0.0
C91 C 0.60705 0.84635 0.97093 0.0
C92 C 0.59984 0.83167 0.02729 0.0
C93 C 0.56895 0.83939 0.05843 0.0
C94 C 0.56357 0.82839 0.1124 0.0
C95 C 0.58926 0.80972 0.13677 0.0
C96 C 0.61979 0.80144 0.10539 0.0
C97 C 0.62506 0.81232 0.05131 0.0
C98 C 0.53412 0.81311 0.80638 0.0
C99 C 0.50855 0.70032 0.88926 0.0
O100 O 0.58386 0.71421 0.72229 0.0
O101 O 0.51733 0.71368 0.72448 0.0
O102 O 0.58853 0.70048 0.83015 0.0
O103 O 0.62089 0.77259 0.84556 0.0
O104 O 0.61427 0.81333 0.75414 0.0
O105 O 0.64673 0.85591 0.83097 0.0
O106 O 0.56944 0.8372 0.94357 0.0
O107 O 0.63642 0.83883 0.9434 0.0
O108 O 0.56445 0.84918 0.83352 0.0
O109 O 0.5335 0.77694 0.82341 0.0
O110 O 0.54019 0.73919 0.91353 0.0
O111 O 0.50829 0.69527 0.83723 0.0
H112 H 0.55548 0.6576 0.61559 0.0
H113 H 0.56361 0.67707 0.52148 0.0
H114 H 0.55568 0.80176 0.55626 0.0
H115 H 0.54876 0.78253 0.65088 0.0
H116 H 0.54921 0.85443 0.0411 0.0
H117 H 0.53917 0.83453 0.13503 0.0
H118 H 0.64056 0.78763 0.12284 0.0
H119 H 0.64946 0.80622 0.02864 0.0
La120 La 0.75025 0.56736 0.20894 0.0
La121 La 0.81287 0.58262 0.11075 0.0
C122 C 0.70478 0.53711 0.29424 0.0
C123 C 0.71601 0.54803 0.35106 0.0
C124 C 0.68029 0.53991 0.38713 0.0
C125 C 0.68985 0.54636 0.44161 0.0
C126 C 0.73534 0.56076 0.46111 0.0
C127 C 0.7713 0.56999 0.42459 0.0
C128 C 0.76178 0.56383 0.37022 0.0
C129 C 0.76335 0.63646 0.1435 0.0
C130 C 0.85797 0.64295 0.2122 0.0
C131 C 0.84875 0.59914 0.0197 0.0
C132 C 0.83385 0.5965 0.9639 0.0
C133 C 0.86604 0.62806 0.92706 0.0
C134 C 0.8539 0.62518 0.87349 0.0
C135 C 0.80917 0.59051 0.85539 0.0
C136 C 0.7765 0.55954 0.89278 0.0
C137 C 0.78874 0.56249 0.94649 0.0
C138 C 0.81837 0.53169 0.18842 0.0
C139 C 0.70225 0.508 0.10534 0.0
O140 O 0.70332 0.56921 0.26477 0.0
O141 O 0.72692 0.51842 0.27067 0.0
O142 O 0.75585 0.63645 0.19399 0.0
O143 O 0.75966 0.59766 0.13236 0.0
O144 O 0.82138 0.61118 0.23951 0.0
O145 O 0.85811 0.64359 0.15971 0.0
O146 O 0.83382 0.55908 0.04472 0.0
O147 O 0.84719 0.63115 0.04936 0.0
O148 O 0.8534 0.55803 0.15769 0.0
O149 O 0.78268 0.53262 0.17249 0.0
O150 O 0.74319 0.53157 0.08045 0.0
O151 O 0.69645 0.51529 0.15581 0.0
H152 H 0.64472 0.52755 0.37327 0.0
H153 H 0.66127 0.53864 0.46858 0.0
H154 H 0.80687 0.58184 0.43806 0.0
H155 H 0.79005 0.57048 0.34322 0.0
H156 H 0.90093 0.65475 0.93967 0.0
H157 H 0.87969 0.65023 0.84621 0.0
H158 H 0.74189 0.53218 0.8804 0.0
H159 H 0.76325 0.53771 0.97416 0.0
La160 La 0.26763 0.8257 0.4303 0.0
La161 La 0.20076 0.79116 0.5244 0.0
C162 C 0.30567 0.83578 0.34079 0.0
C163 C 0.2923 0.8291 0.28429 0.0
C164 C 0.32528 0.85876 0.24685 0.0
C165 C 0.31403 0.85361 0.19294 0.0
C166 C 0.2694 0.81858 0.17517 0.0
C167 C 0.23617 0.78899 0.21297 0.0
C168 C 0.24754 0.79415 0.26707 0.0
C169 C 0.27708 0.89196 0.49554 0.0
C170 C 0.15967 0.80069 0.41837 0.0
C171 C 0.16262 0.77771 0.61437 0.0
C172 C 0.17667 0.78335 0.67098 0.0
C173 C 0.15947 0.7433 0.70327 0.0
C174 C 0.17019 0.74748 0.75732 0.0
C175 C 0.19813 0.79194 0.78073 0.0
C176 C 0.2158 0.83211 0.7482 0.0
C177 C 0.20521 0.82789 0.69396 0.0
C178 C 0.19407 0.72641 0.45791 0.0
C179 C 0.30747 0.81444 0.53777 0.0
O180 O 0.30255 0.86918 0.36529 0.0
O181 O 0.29044 0.79791 0.36994 0.0
O182 O 0.31126 0.89315 0.46873 0.0
O183 O 0.23862 0.85612 0.48259 0.0
O184 O 0.19809 0.80491 0.39571 0.0
O185 O 0.15549 0.80136 0.47036 0.0
O186 O 0.16603 0.74534 0.58787 0.0
O187 O 0.17622 0.81586 0.58625 0.0
O188 O 0.15831 0.72423 0.48225 0.0
O189 O 0.23112 0.76211 0.47328 0.0
O190 O 0.26909 0.81061 0.55974 0.0
O191 O 0.31327 0.81617 0.48573 0.0
H192 H 0.3599 0.88612 0.25936 0.0
H193 H 0.34021 0.87755 0.16521 0.0
H194 H 0.20162 0.7614 0.2007 0.0
H195 H 0.22152 0.7708 0.29534 0.0
H196 H 0.13733 0.70857 0.68669 0.0
H197 H 0.15664 0.71571 0.78074 0.0
H198 H 0.237 0.86696 0.76481 0.0
H199 H 0.21891 0.85955 0.67029 0.0
La200 La 0.42313 0.17167 0.8716 0.0
La201 La 0.41019 0.22021 0.7753 0.0
C202 C 0.43781 0.14885 0.9621 0.0
C203 C 0.43289 0.15754 1.01817 0.0
C204 C 0.42753 0.12381 0.0557 0.0
C205 C 0.42352 0.13112 0.10942 0.0
C206 C 0.42481 0.17244 0.12673 0.0
C207 C 0.43008 0.20626 0.08885 0.0
C208 C 0.43396 0.1988 0.03493 0.0
C209 C 0.37044 0.11428 0.79618 0.0
C210 C 0.35043 0.2098 0.87436 0.0
C211 C 0.39673 0.24484 0.68532 0.0
C212 C 0.39858 0.23436 0.62907 0.0
C213 C 0.37461 0.24646 0.59204 0.0
C214 C 0.37726 0.23892 0.53806 0.0
C215 C 0.40398 0.21904 0.52002 0.0
C216 C 0.4273 0.20607 0.55748 0.0
C217 C 0.42472 0.21379 0.61158 0.0
C218 C 0.46346 0.27666 0.85184 0.0
C219 C 0.48222 0.18222 0.77144 0.0
O220 O 0.39867 0.1243 0.93548 0.0
O221 O 0.46956 0.1845 0.93482 0.0
O222 O 0.39565 0.10546 0.82855 0.0
O223 O 0.37191 0.15199 0.80945 0.0
O224 O 0.37793 0.19827 0.90134 0.0
O225 O 0.35277 0.21462 0.82237 0.0
O226 O 0.437 0.26613 0.71065 0.0
O227 O 0.36328 0.21144 0.7136 0.0
O228 O 0.43752 0.2856 0.82077 0.0
O229 O 0.46183 0.23943 0.83665 0.0
O230 O 0.45266 0.19108 0.74499 0.0
O231 O 0.48166 0.17931 0.82373 0.0
H232 H 0.42678 0.09183 0.04345 0.0
H233 H 0.42021 0.1047 0.13751 0.0
H234 H 0.43074 0.23823 0.10083 0.0
H235 H 0.43789 0.22521 1.00643 0.0
H236 H 0.35412 0.26222 0.60486 0.0
H237 H 0.35821 0.24855 0.51043 0.0
H238 H 0.44845 0.191 0.54493 0.0
H239 H 0.44358 0.20428 0.63957 0.0
H240 H 0.31036 0.1775 0.97128 0.0
H241 H 0.31998 0.26949 0.84381 0.0
H242 H 0.26258 0.20129 0.02179 0.0
H243 H 0.27532 0.29596 0.89527 0.0
H244 H 0.1764 0.32514 0.98574 0.0
H245 H 0.2062 0.28423 0.93175 0.0
H246 H 0.2706 0.26318 0.07102 0.0
H247 H 0.23829 0.30095 0.12472 0.0
C248 C 0.30224 0.20288 0.95415 0.0
C249 C 0.31887 0.22164 0.90369 0.0
C250 C 0.27515 0.21692 0.98323 0.0
C251 C 0.26521 0.25111 0.96315 0.0
C252 C 0.28119 0.26898 0.91199 0.0
C253 C 0.30723 0.25404 0.88245 0.0
C254 C 0.19616 0.31086 1.00476 0.0
C255 C 0.20487 0.31622 0.05948 0.0
C256 C 0.21373 0.28778 0.97377 0.0
C257 C 0.2414 0.27053 0.99662 0.0
C258 C 0.24879 0.27489 0.05173 0.0
C259 C 0.23039 0.29696 0.08274 0.0
H260 H 0.05656 0.28225 0.20763 0.0
H261 H 0.0851 0.42238 0.2437 0.0
H262 H 0.00267 0.25166 0.28348 0.0
H263 H 0.0357 0.39348 0.32126 0.0
H264 H 0.90753 0.33451 0.41561 0.0
H265 H 0.95686 0.35454 0.33807 0.0
H266 H 0.9877 0.24415 0.37567 0.0
H267 H 0.93389 0.2214 0.45153 0.0
C268 C 0.05212 0.30651 0.23265 0.0
C269 C 0.07431 0.35445 0.21976 0.0
C270 C 0.02143 0.28915 0.27613 0.0
C271 C 0.0135 0.31981 0.30788 0.0
C272 C 0.0389 0.36829 0.29662 0.0
C273 C 0.06798 0.38515 0.25253 0.0
C274 C 0.92417 0.31397 0.40677 0.0
C275 C 0.91726 0.27666 0.43951 0.0
C276 C 0.9532 0.32589 0.36267 0.0
C277 C 0.97798 0.30222 0.35137 0.0
C278 C 0.96944 0.26336 0.38308 0.0
C279 C 0.93881 0.25034 0.42657 0.0
H280 H 0.79176 0.06712 0.53606 0.0
H281 H 0.78036 0.13818 0.67431 0.0
H282 H 0.76221 0.9948 0.58698 0.0
H283 H 0.74966 0.06567 0.72471 0.0
H284 H 0.71935 0.93553 0.8141 0.0
H285 H 0.76469 0.00792 0.76394 0.0
H286 H 0.68739 0.93733 0.62237 0.0
H287 H 0.64297 0.86473 0.67211 0.0
C288 C 0.78339 0.06751 0.57744 0.0
C289 C 0.78814 0.10848 0.60093 0.0
C290 C 0.76612 0.02588 0.60655 0.0
C291 C 0.75303 0.02415 0.65984 0.0
C292 C 0.75981 0.06572 0.68394 0.0
C293 C 0.77727 0.10739 0.65489 0.0
C294 C 0.71248 0.93525 0.7721 0.0
C295 C 0.6773 0.89432 0.74724 0.0
C296 C 0.73831 0.97689 0.7434 0.0
C297 C 0.72948 0.9787 0.68918 0.0
C298 C 0.69561 0.9372 0.6639 0.0
C299 C 0.66992 0.8955 0.69254 0.0
H300 H 0.68846 0.80122 0.92427 0.0
H301 H 0.60616 0.65183 0.89499 0.0
H302 H 0.73081 0.78648 0.99578 0.0
H303 H 0.64876 0.63753 0.96435 0.0
H304 H 0.7665 0.62908 0.0374 0.0
H305 H 0.73735 0.66097 0.97022 0.0
H306 H 0.70819 0.73621 0.09028 0.0
H307 H 0.73836 0.70437 0.15857 0.0
C308 C 0.67915 0.76541 0.93339 0.0
C309 C 0.64396 0.72768 0.90416 0.0
C310 C 0.70342 0.75703 0.97405 0.0
C311 C 0.69333 0.71092 0.98508 0.0
C312 C 0.65772 0.67347 0.9562 0.0
C313 C 0.6333 0.68172 0.91646 0.0
C314 C 0.75535 0.65357 0.04959 0.0
C315 C 0.7546 0.66407 0.10336 0.0
C316 C 0.73834 0.67159 1.01103 0.0
C317 C 0.71999 0.70054 0.02517 0.0
C318 C 0.7223 0.71404 0.07843 0.0
C319 C 0.73946 0.6958 0.1174 0.0
H320 H 0.14641 0.77616 0.31353 0.0
H321 H 0.07807 0.79798 0.44762 0.0
H322 H 0.07383 0.74525 0.26275 0.0
H323 H 0.00579 0.76837 0.39624 0.0
H324 H 0.8731 0.64715 0.31898 0.0
H325 H 0.94681 0.69275 0.36618 0.0
H326 H 0.01626 0.75852 0.21956 0.0
H327 H 0.94235 0.71163 0.17177 0.0
C328 C 0.11624 0.7754 0.33184 0.0
C329 C 0.11801 0.78912 0.38491 0.0
C330 C 0.07454 0.7578 0.30255 0.0
C331 C 0.03364 0.75376 0.3255 0.0
C332 C 0.03626 0.77 0.37763 0.0
C333 C 0.07786 0.7873 0.40702 0.0
C334 C 0.90385 0.67172 0.2967 0.0
C335 C 0.90171 0.67539 0.24141 0.0
C336 C 0.94625 0.69821 0.32396 0.0
C337 C 0.98772 0.72934 0.29676 0.0
C338 C 0.98521 0.7344 0.24169 0.0
C339 C 0.94271 0.70772 0.21433 0.0
H340 H 0.37109 0.14037 0.69362 0.0
H341 H 0.31542 0.01978 0.79671 0.0
H342 H 0.34114 0.08837 0.61648 0.0
H343 H 0.28419 0.96755 0.71968 0.0
H344 H 0.21011 0.89839 0.5546 0.0
H345 H 0.22447 0.95358 0.62759 0.0
H346 H 0.37335 0.024 0.59501 0.0
H347 H 0.35958 0.96727 0.52518 0.0
C348 C 0.35072 0.1029 0.69985 0.0
C349 C 0.3449 0.08404 0.7509 0.0
C350 C 0.33388 0.07316 0.65581 0.0
C351 C 0.31004 0.02413 0.66249 0.0
C352 C 0.30186 0.00527 0.71376 0.0
C353 C 0.3198 0.03505 0.75762 0.0
C354 C 0.24585 0.92507 0.56381 0.0
C355 C 0.28381 0.92752 0.53556 0.0
C356 C 0.25395 0.95698 0.60484 0.0
C357 C 0.29996 0.99285 0.61649 0.0
C358 C 0.33755 0.99676 0.58638 0.0
C359 C 0.32961 0.96418 0.54662 0.0
H360 H 0.18003 0.49521 0.76575 0.0
H361 H 0.1706 0.36147 0.79698 0.0
H362 H 0.18649 0.48474 0.6713 0.0
H363 H 0.17667 0.35072 0.70235 0.0
H364 H 0.23573 0.36862 0.53503 0.0
H365 H 0.2304 0.3798 0.6294 0.0
H366 H 0.14117 0.43878 0.59691 0.0
H367 H 0.14849 0.42981 0.50222 0.0
C368 C 0.17897 0.46336 0.75242 0.0
C369 C 0.17465 0.42912 0.78903 0.0
C370 C 0.18258 0.45729 0.69816 0.0
C371 C 0.18189 0.41677 0.67897 0.0
C372 C 0.17796 0.38268 0.71566 0.0
C373 C 0.17448 0.38882 0.76999 0.0
C374 C 0.21542 0.38452 0.54786 0.0
C375 C 0.19279 0.39857 0.51073 0.0
C376 C 0.21183 0.39034 0.60218 0.0
C377 C 0.18535 0.4102 0.621 0.0
C378 C 0.16239 0.42392 0.58393 0.0
C379 C 0.16609 0.41821 0.52954 0.0
H380 H 0.74069 0.21398 0.14411 0.0
H381 H 0.86499 0.20063 0.13995 0.0
H382 H 0.74757 0.22947 0.04916 0.0
H383 H 0.87154 0.21532 0.04485 0.0
H384 H 0.89694 0.29043 0.88593 0.0
H385 H 0.89022 0.27535 0.98069 0.0
H386 H 0.73895 0.19226 0.96511 0.0
H387 H 0.74558 0.20939 0.87055 0.0
C388 C 0.76933 0.21405 0.12281 0.0
C389 C 0.80231 0.20611 0.14965 0.0
C390 C 0.77319 0.22275 0.06828 0.0
C391 C 0.81002 0.22351 0.03906 0.0
C392 C 0.84313 0.21575 0.06605 0.0
C393 C 0.8394 0.20731 0.12065 0.0
C394 C 0.86217 0.26932 0.90272 0.0
C395 C 0.82178 0.25143 0.87046 0.0
C396 C 0.85834 0.26014 0.95711 0.0
C397 C 0.81403 0.2326 0.98082 0.0
C398 C 0.77364 0.21415 0.94845 0.0
C399 C 0.77747 0.22345 0.894 0.0
H400 H 0.51709 0.67927 0.449 0.0
H401 H 0.61038 0.82664 0.48212 0.0
H402 H 0.52424 0.69606 0.35452 0.0
H403 H 0.61753 0.84347 0.38737 0.0
H404 H 0.58169 0.862 0.21675 0.0
H405 H 0.57338 0.84538 0.31135 0.0
H406 H 0.58076 0.71951 0.28344 0.0
H407 H 0.58701 0.73503 0.18854 0.0
C408 C 0.53946 0.71525 0.43614 0.0
C409 C 0.56336 0.75156 0.47332 0.0
C410 C 0.54358 0.72487 0.38186 0.0
C411 C 0.57166 0.77109 0.36317 0.0
C412 C 0.59515 0.80753 0.40033 0.0
C413 C 0.59103 0.79789 0.45472 0.0
C414 C 0.58098 0.83045 0.23064 0.0
C415 C 0.5848 0.79975 0.19479 0.0
C416 C 0.57683 0.82125 0.28507 0.0
C417 C 0.57641 0.78111 0.30517 0.0
C418 C 0.58039 0.75047 0.26936 0.0
C419 C 0.58453 0.75967 0.21492 0.0
H420 H 0.72529 0.57013 0.80801 0.0
H421 H 0.86631 0.60055 0.77152 0.0
H422 H 0.70635 0.56182 0.71365 0.0
H423 H 0.84816 0.59446 0.67754 0.0
H424 H 0.78786 0.53157 0.5165 0.0
H425 H 0.80426 0.53796 0.61109 0.0
H426 H 0.72144 0.60557 0.63249 0.0
H427 H 0.70451 0.59852 0.5376 0.0
C428 C 0.75228 0.57506 0.77995 0.0
C429 C 0.79739 0.58608 0.79765 0.0
C430 C 0.74158 0.57085 0.7257 0.0
C431 C 0.77566 0.57742 0.68767 0.0
C432 C 0.82074 0.58852 0.70547 0.0
C433 C 0.8314 0.59268 0.75957 0.0
C434 C 0.77344 0.54817 0.54127 0.0
C435 C 0.7451 0.5648 0.51925 0.0
C436 C 0.78289 0.55188 0.59566 0.0
C437 C 0.76446 0.57256 0.62972 0.0
C438 C 0.73577 0.58889 0.60775 0.0
C439 C 0.72613 0.58496 0.55326 0.0
H440 H 0.13856 0.74062 0.86151 0.0
H441 H 0.28046 0.853 0.83207 0.0
H442 H 0.15543 0.74578 0.95595 0.0
H443 H 0.29662 0.85967 0.92687 0.0
H444 H 0.32596 0.82433 0.0925 0.0
H445 H 0.30858 0.81819 0.99812 0.0
H446 H 0.16957 0.79489 0.03222 0.0
H447 H 0.18697 0.80083 0.12683 0.0
C448 C 0.17342 0.76644 0.87508 0.0
C449 C 0.20821 0.79619 0.83885 0.0
C450 C 0.1829 0.76981 0.92948 0.0
C451 C 0.22742 0.80312 0.94928 0.0
C452 C 0.26211 0.83316 0.91311 0.0
C453 C 0.25265 0.82973 0.85867 0.0
C454 C 0.29177 0.81821 0.07992 0.0
C455 C 0.25795 0.81327 0.11743 0.0
C456 C 0.28181 0.81477 0.02567 0.0
C457 C 0.23774 0.8063 1.00729 0.0
C458 C 0.2037 0.80086 0.04482 0.0
C459 C 0.21365 0.80424 0.09917 0.0
H460 H 0.41578 0.27993 0.43972 0.0
H461 H 0.4013 0.1438 0.46964 0.0
H462 H 0.41995 0.26882 0.34497 0.0
H463 H 0.40726 0.13342 0.37484 0.0
H464 H 0.36584 0.10851 0.19964 0.0
H465 H 0.36158 0.12001 0.29431 0.0
H466 H 0.47138 0.26512 0.27876 0.0
H467 H 0.47555 0.2536 0.18391 0.0
C468 C 0.41343 0.24758 0.42607 0.0
C469 C 0.40792 0.21263 0.4623 0.0
C470 C 0.4164 0.24146 0.37174 0.0
C471 C 0.4139 0.20022 0.35221 0.0
C472 C 0.40874 0.16539 0.38847 0.0
C473 C 0.40586 0.17155 0.44287 0.0
C474 C 0.38928 0.14281 0.21646 0.0
C475 C 0.42113 0.18011 0.18418 0.0
C476 C 0.3869 0.14938 0.27078 0.0
C477 C 0.41629 0.19342 0.29425 0.0
C478 C 0.44782 0.23088 0.26189 0.0
C479 C 0.45018 0.22431 0.20749 0.0
H480 H 0.21265 0.50345 0.30826 0.0
H481 H 0.15148 0.54556 0.18297 0.0
H482 H 0.21562 0.56446 0.36521 0.0
H483 H 0.15404 0.60681 0.24109 0.0
H484 H 0.11816 0.66504 0.39892 0.0
H485 H 0.1147 0.60787 0.33378 0.0
H486 H 0.26182 0.65605 0.3614 0.0
H487 H 0.26534 0.71318 0.42587 0.0
C488 C 0.19969 0.52565 0.29282 0.0
C489 C 0.18195 0.51974 0.24093 0.0
C490 C 0.20166 0.56075 0.32546 0.0
C491 C 0.18532 0.59042 0.30739 0.0
C492 C 0.16681 0.58426 0.25587 0.0
C493 C 0.16555 0.54944 0.22265 0.0
C494 C 0.1497 0.6634 0.39074 0.0
C495 C 0.19194 0.69314 0.41748 0.0
C496 C 0.14781 0.63108 0.35329 0.0
C497 C 0.18796 0.62755 0.34283 0.0
C498 C 0.23032 0.65792 0.36902 0.0
C499 C 0.23236 0.69061 0.40575 0.0
H500 H 0.64777 0.10517 0.56534 0.0
H501 H 0.72287 0.25639 0.58008 0.0
H502 H 0.58816 0.1003 0.62764 0.0
H503 H 0.66503 0.25122 0.64462 0.0
H504 H 0.57238 0.20776 0.79961 0.0
H505 H 0.63246 0.20572 0.74357 0.0
H506 H 0.53018 0.14065 0.61836 0.0
H507 H 0.47061 0.14392 0.67344 0.0
C508 C 0.65191 0.13725 0.58246 0.0
C509 C 0.69042 0.18115 0.56865 0.0
C510 C 0.61797 0.13441 0.61811 0.0
C511 C 0.62256 0.17535 0.6413 0.0
C512 C 0.6613 0.21913 0.62796 0.0
C513 C 0.69452 0.22204 0.59136 0.0
C514 C 0.56269 0.19248 0.76039 0.0
C515 C 0.51703 0.17619 0.7407 0.0
C516 C 0.59698 0.1915 0.72839 0.0
C517 C 0.58571 0.173 0.67686 0.0
C518 C 0.53955 0.15484 0.65808 0.0
C519 C 0.50565 0.15692 0.68948 0.0
H520 H 0.27434 0.53715 0.09717 0.0
H521 H 0.33339 0.44679 0.07541 0.0
H522 H 0.3324 0.59443 0.0363 0.0
H523 H 0.39166 0.50437 1.01364 0.0
H524 H 0.45217 0.60685 0.86379 0.0
H525 H 0.39244 0.54453 0.92003 0.0
H526 H 0.42373 0.64565 0.04488 0.0
H527 H 0.48333 0.70739 0.98971 0.0
C528 C 0.29955 0.52941 0.07896 0.0
C529 C 0.29963 0.48774 0.09106 0.0
C530 C 0.33282 0.56223 0.04431 0.0
C531 C 0.36651 0.55381 0.02049 0.0
C532 C 0.36587 0.51152 0.03138 0.0
C533 C 0.33288 0.47885 0.06686 0.0
C534 C 0.44623 0.61566 0.90325 0.0
C535 C 0.47238 0.66205 0.92223 0.0
C536 C 0.41233 0.58001 0.93542 0.0
C537 C 0.40347 0.59046 0.98659 0.0
C538 C 0.42963 0.63676 1.00542 0.0
C539 C 0.4639 0.67205 0.97381 0.0
H540 H 0.77661 0.2868 0.35246 0.0
H541 H 0.84835 0.39301 0.47261 0.0
H542 H 0.77943 0.34603 0.29254 0.0
H543 H 0.85157 0.45298 0.41144 0.0
H544 H 0.89297 0.54129 0.24713 0.0
H545 H 0.89152 0.48749 0.31604 0.0
H546 H 0.74167 0.39906 0.29344 0.0
H547 H 0.74312 0.45241 0.22524 0.0
C548 C 0.79299 0.32286 0.36618 0.0
C549 C 0.8121 0.33518 0.41746 0.0
C550 C 0.79442 0.35674 0.33181 0.0
C551 C 0.81557 0.40399 0.34743 0.0
C552 C 0.83516 0.41671 0.39849 0.0
C553 C 0.83301 0.38244 0.4335 0.0
C554 C 0.85982 0.51044 0.2573 0.0
C555 C 0.81817 0.50087 0.23104 0.0
C556 C 0.85891 0.47999 0.29688 0.0
C557 C 0.81647 0.43918 0.30992 0.0
C558 C 0.77486 0.43019 0.28403 0.0
C559 C 0.77568 0.46079 0.24518 0.0
H560 H 0.29456 0.78243 0.63886 0.0
H561 H 0.40163 0.84741 0.51848 0.0
H562 H 0.35217 0.78237 0.6995 0.0
H563 H 0.45999 0.84799 0.58048 0.0
H564 H 0.54706 0.88826 0.7468 0.0
H565 H 0.49506 0.88878 0.67679 0.0
H566 H 0.40219 0.73976 0.6987 0.0
H567 H 0.45412 0.73912 0.76784 0.0
C568 C 0.33049 0.79689 0.6253 0.0
C569 C 0.3435 0.81492 0.57372 0.0
C570 C 0.3634 0.7966 0.66008 0.0
C571 C 0.4104 0.81501 0.64459 0.0
C572 C 0.42389 0.83366 0.59331 0.0
C573 C 0.39054 0.83313 0.55788 0.0
C574 C 0.51565 0.85566 0.73628 0.0
C575 C 0.50432 0.81371 0.76285 0.0
C576 C 0.48621 0.85589 0.69605 0.0
C577 C 0.44462 0.81432 0.68256 0.0
C578 C 0.43395 0.7723 0.70852 0.0
C579 C 0.46366 0.77194 0.74797 0.0
H580 H 0.68098 0.5197 1.00514 0.0
H581 H 0.63268 0.41992 0.13387 0.0
H582 H 0.61831 0.46172 0.94844 0.0
H583 H 0.57035 0.36105 0.0762 0.0
H584 H 0.52881 0.26864 0.91169 0.0
H585 H 0.58045 0.3228 0.98021 0.0
H586 H 0.52131 0.41235 0.95282 0.0
H587 H 0.46787 0.35698 0.88639 0.0
C588 C 0.6567 0.48537 0.0213 0.0
C589 C 0.66153 0.47409 0.07371 0.0
C590 C 0.62083 0.45236 0.98898 0.0
C591 C 0.58974 0.40707 1.00808 0.0
C592 C 0.59405 0.39583 0.06075 0.0
C593 C 0.62935 0.42942 0.09366 0.0
C594 C 0.52575 0.29901 0.92154 0.0
C595 C 0.49386 0.30822 0.89431 0.0
C596 C 0.55541 0.33007 0.96051 0.0
C597 C 0.5545 0.37145 0.97182 0.0
C598 C 0.52246 0.38053 0.94484 0.0
C599 C 0.4921 0.34898 0.90679 0.0
loop_
_geom_bond_atom_site_label_1
_geom_bond_atom_site_label_2
_geom_bond_distance
_geom_bond_site_symmetry_2
_ccdc_geom_bond_type
La0 C2 2.928 . S
La0 O20 2.521 . S
La0 O21 2.628 . S
La0 O22 2.554 . S
La0 O23 2.757 . S
La0 O24 2.470 . S
La0 O29 2.482 . S
La0 O31 2.503 . S
La1 C11 2.928 . S
La1 O23 2.482 . S
La1 O25 2.503 . S
La1 O26 2.521 . S
La1 O27 2.628 . S
La1 O28 2.554 . S
La1 O29 2.757 . S
La1 O30 2.470 . S
C2 La0 2.928 . S
C2 C3 1.503 1_554 S
C2 O20 1.261 . S
C2 O21 1.243 . S
C3 C2 1.503 1_556 S
C3 C4 1.394 . S
C3 C8 1.373 . S
C4 C3 1.394 . S
C4 C5 1.380 . S
C4 H32 0.930 . S
C5 C4 1.380 . S
C5 C6 1.376 . S
C5 H33 0.930 . S
C6 C5 1.376 . S
C6 C7 1.370 . S
C7 C6 1.370 . S
C7 C8 1.396 . S
C7 H34 0.929 . S
C8 C3 1.373 . S
C8 C7 1.396 . S
C8 H35 0.929 . S
C9 O22 1.240 . S
C9 O23 1.289 . S
C10 O24 1.258 . S
C10 O25 1.256 . S
C11 La1 2.928 . S
C11 C12 1.503 . S
C11 O26 1.261 . S
C11 O27 1.243 . S
C12 C11 1.503 . S
C12 C13 1.394 . S
C12 C17 1.373 . S
C13 C12 1.394 . S
C13 C14 1.380 . S
C13 H36 0.930 . S
C14 C13 1.380 . S
C14 C15 1.376 . S
C14 H37 0.930 . S
C15 C14 1.376 . S
C15 C16 1.370 . S
C16 C15 1.370 . S
C16 C17 1.396 . S
C16 H38 0.929 . S
C17 C12 1.373 . S
C17 C16 1.396 . S
C17 H39 0.929 . S
C18 O28 1.240 . S
C18 O29 1.289 . S
C19 O30 1.258 . S
C19 O31 1.256 . S
O20 La0 2.521 . S
O20 C2 1.261 . S
O21 La0 2.628 . S
O21 C2 1.243 . S
O22 La0 2.554 . S
O22 C9 1.240 . S
O23 La0 2.757 . S
O23 La1 2.482 . S
O23 C9 1.289 . S
O24 La0 2.470 . S
O24 C10 1.258 . S
O25 La1 2.503 . S
O25 C10 1.256 . S
O26 La1 2.521 . S
O26 C11 1.261 . S
O27 La1 2.628 . S
O27 C11 1.243 . S
O28 La1 2.554 . S
O28 C18 1.240 . S
O29 La0 2.482 . S
O29 La1 2.757 . S
O29 C18 1.289 . S
O30 La1 2.470 . S
O30 C19 1.258 . S
O31 La0 2.503 . S
O31 C19 1.256 . S
H32 C4 0.930 . S
H33 C5 0.930 . S
H34 C7 0.929 . S
H35 C8 0.929 . S
H36 C13 0.930 . S
H37 C14 0.930 . S
H38 C16 0.929 . S
H39 C17 0.929 . S
La40 C42 2.928 . S
La40 O60 2.521 . S
La40 O61 2.628 . S
La40 O62 2.554 . S
La40 O63 2.757 . S
La40 O64 2.470 . S
La40 O69 2.482 . S
La40 O71 2.503 . S
La41 C51 2.928 . S
La41 O63 2.482 . S
La41 O65 2.503 . S
La41 O66 2.521 . S
La41 O67 2.628 . S
La41 O68 2.554 . S
La41 O69 2.757 . S
La41 O70 2.470 . S
C42 La40 2.928 . S
C42 C43 1.503 . S
C42 O60 1.261 . S
C42 O61 1.243 . S
C43 C42 1.503 . S
C43 C44 1.394 . S
C43 C48 1.373 . S
C44 C43 1.394 . S
C44 C45 1.380 . S
C44 H72 0.930 . S
C45 C44 1.380 . S
C45 C46 1.376 . S
C45 H73 0.930 . S
C46 C45 1.376 . S
C46 C47 1.370 . S
C47 C46 1.370 . S
C47 C48 1.396 . S
C47 H74 0.929 . S
C48 C43 1.373 . S
C48 C47 1.396 . S
C48 H75 0.929 . S
C49 O62 1.240 . S
C49 O63 1.289 . S
C50 O64 1.258 . S
C50 O65 1.256 . S
C51 La41 2.928 . S
C51 C52 1.503 . S
C51 O66 1.261 . S
C51 O67 1.243 . S
C52 C51 1.503 . S
C52 C53 1.394 . S
C52 C57 1.373 . S
C53 C52 1.394 . S
C53 C54 1.380 . S
C53 H76 0.930 . S
C54 C53 1.380 . S
C54 C55 1.376 . S
C54 H77 0.930 . S
C55 C54 1.376 . S
C55 C56 1.370 . S
C56 C55 1.370 . S
C56 C57 1.396 . S
C56 H78 0.929 . S
C57 C52 1.373 . S
C57 C56 1.396 . S
C57 H79 0.929 . S
C58 O68 1.240 . S
C58 O69 1.289 . S
C59 O70 1.258 . S
C59 O71 1.256 . S
O60 La40 2.521 . S
O60 C42 1.261 . S
O61 La40 2.628 . S
O61 C42 1.243 . S
O62 La40 2.554 . S
O62 C49 1.240 . S
O63 La40 2.757 . S
O63 La41 2.482 . S
O63 C49 1.289 . S
O64 La40 2.470 . S
O64 C50 1.258 . S
O65 La41 2.503 . S
O65 C50 1.256 . S
O66 La41 2.521 . S
O66 C51 1.261 . S
O67 La41 2.628 . S
O67 C51 1.243 . S
O68 La41 2.554 . S
O68 C58 1.240 . S
O69 La40 2.482 . S
O69 La41 2.757 . S
O69 C58 1.289 . S
O70 La41 2.470 . S
O70 C59 1.258 . S
O71 La40 2.503 . S
O71 C59 1.256 . S
H72 C44 0.930 . S
H73 C45 0.930 . S
H74 C47 0.929 . S
H75 C48 0.929 . S
H76 C53 0.930 . S
H77 C54 0.930 . S
H78 C56 0.929 . S
H79 C57 0.929 . S
La80 C82 2.928 . S
La80 O100 2.521 . S
La80 O101 2.628 . S
La80 O102 2.554 . S
La80 O103 2.757 . S
La80 O104 2.470 . S
La80 O109 2.482 . S
La80 O111 2.503 . S
La81 C91 2.928 1_556 S
La81 O103 2.482 . S
La81 O105 2.503 . S
La81 O106 2.521 1_556 S
La81 O107 2.628 1_556 S
La81 O108 2.554 . S
La81 O109 2.757 . S
La81 O110 2.470 . S
C82 La80 2.928 . S
C82 C83 1.503 . S
C82 O100 1.261 . S
C82 O101 1.243 . S
C83 C82 1.503 . S
C83 C84 1.394 . S
C83 C88 1.373 . S
C84 C83 1.394 . S
C84 C85 1.380 . S
C84 H112 0.930 . S
C85 C84 1.380 . S
C85 C86 1.376 . S
C85 H113 0.930 . S
C86 C85 1.376 . S
C86 C87 1.370 . S
C87 C86 1.370 . S
C87 C88 1.396 . S
C87 H114 0.929 . S
C88 C83 1.373 . S
C88 C87 1.396 . S
C88 H115 0.929 . S
C89 O102 1.240 . S
C89 O103 1.289 . S
C90 O104 1.258 . S
C90 O105 1.256 . S
C91 La81 2.928 1_554 S
C91 C92 1.503 . S
C91 O106 1.261 . S
C91 O107 1.243 . S
C92 C91 1.503 . S
C92 C93 1.394 . S
C92 C97 1.373 . S
C93 C92 1.394 . S
C93 C94 1.380 . S
C93 H116 0.930 . S
C94 C93 1.380 . S
C94 C95 1.376 . S
C94 H117 0.930 . S
C95 C94 1.376 . S
C95 C96 1.370 . S
C96 C95 1.370 . S
C96 C97 1.396 . S
C96 H118 0.929 . S
C97 C92 1.373 . S
C97 C96 1.396 . S
C97 H119 0.929 . S
C98 O108 1.240 . S
C98 O109 1.289 . S
C99 O110 1.258 . S
C99 O111 1.256 . S
O100 La80 2.521 . S
O100 C82 1.261 . S
O101 La80 2.628 . S
O101 C82 1.243 . S
O102 La80 2.554 . S
O102 C89 1.240 . S
O103 La80 2.757 . S
O103 La81 2.482 . S
O103 C89 1.289 . S
O104 La80 2.470 . S
O104 C90 1.258 . S
O105 La81 2.503 . S
O105 C90 1.256 . S
O106 La81 2.521 1_554 S
O106 C91 1.261 . S
O107 La81 2.628 1_554 S
O107 C91 1.243 . S
O108 La81 2.554 . S
O108 C98 1.240 . S
O109 La80 2.482 . S
O109 La81 2.757 . S
O109 C98 1.289 . S
O110 La81 2.470 . S
O110 C99 1.258 . S
O111 La80 2.503 . S
O111 C99 1.256 . S
H112 C84 0.930 . S
H113 C85 0.930 . S
H114 C87 0.929 . S
H115 C88 0.929 . S
H116 C93 0.930 . S
H117 C94 0.930 . S
H118 C96 0.929 . S
H119 C97 0.929 . S
La120 C122 2.928 . S
La120 O140 2.521 . S
La120 O141 2.628 . S
La120 O142 2.554 . S
La120 O143 2.757 . S
La120 O144 2.470 . S
La120 O149 2.482 . S
La120 O151 2.503 . S
La121 C131 2.928 1_554 S
La121 O143 2.482 . S
La121 O145 2.503 . S
La121 O146 2.521 1_554 S
La121 O147 2.628 1_554 S
La121 O148 2.554 . S
La121 O149 2.757 . S
La121 O150 2.470 1_554 S
C122 La120 2.928 . S
C122 C123 1.503 . S
C122 O140 1.261 . S
C122 O141 1.243 . S
C123 C122 1.503 . S
C123 C124 1.394 . S
C123 C128 1.373 . S
C124 C123 1.394 . S
C124 C125 1.380 . S
C124 H152 0.930 . S
C125 C124 1.380 . S
C125 C126 1.376 . S
C125 H153 0.930 . S
C126 C125 1.376 . S
C126 C127 1.370 . S
C127 C126 1.370 . S
C127 C128 1.396 . S
C127 H154 0.929 . S
C128 C123 1.373 . S
C128 C127 1.396 . S
C128 H155 0.929 . S
C129 O142 1.240 . S
C129 O143 1.289 . S
C130 O144 1.258 . S
C130 O145 1.256 . S
C131 La121 2.928 1_556 S
C131 C132 1.503 . S
C131 O146 1.261 . S
C131 O147 1.243 . S
C132 C131 1.503 . S
C132 C133 1.394 . S
C132 C137 1.373 . S
C133 C132 1.394 . S
C133 C134 1.380 . S
C133 H156 0.930 . S
C134 C133 1.380 . S
C134 C135 1.376 . S
C134 H157 0.930 . S
C135 C134 1.376 . S
C135 C136 1.370 . S
C136 C135 1.370 . S
C136 C137 1.396 . S
C136 H158 0.929 . S
C137 C132 1.373 . S
C137 C136 1.396 . S
C137 H159 0.929 . S
C138 O148 1.240 . S
C138 O149 1.289 . S
C139 O150 1.258 . S
C139 O151 1.256 1_556 S
O140 La120 2.521 . S
O140 C122 1.261 . S
O141 La120 2.628 . S
O141 C122 1.243 . S
O142 La120 2.554 . S
O142 C129 1.240 . S
O143 La120 2.757 . S
O143 La121 2.482 . S
O143 C129 1.289 . S
O144 La120 2.470 . S
O144 C130 1.258 . S
O145 La121 2.503 . S
O145 C130 1.256 . S
O146 La121 2.521 1_556 S
O146 C131 1.261 . S
O147 La121 2.628 1_556 S
O147 C131 1.243 . S
O148 La121 2.554 . S
O148 C138 1.240 . S
O149 La120 2.482 . S
O149 La121 2.757 . S
O149 C138 1.289 . S
O150 La121 2.470 1_556 S
O150 C139 1.258 . S
O151 La120 2.503 . S
O151 C139 1.256 1_554 S
H152 C124 0.930 . S
H153 C125 0.930 . S
H154 C127 0.929 . S
H155 C128 0.929 . S
H156 C133 0.930 . S
H157 C134 0.930 . S
H158 C136 0.929 . S
H159 C137 0.929 . S
La160 C162 2.928 . S
La160 O180 2.521 . S
La160 O181 2.628 . S
La160 O182 2.554 . S
La160 O183 2.757 . S
La160 O184 2.470 . S
La160 O189 2.482 . S
La160 O191 2.503 . S
La161 C171 2.928 . S
La161 O183 2.482 . S
La161 O185 2.503 . S
La161 O186 2.521 . S
La161 O187 2.628 . S
La161 O188 2.554 . S
La161 O189 2.757 . S
La161 O190 2.470 . S
C162 La160 2.928 . S
C162 C163 1.503 . S
C162 O180 1.261 . S
C162 O181 1.243 . S
C163 C162 1.503 . S
C163 C164 1.394 . S
C163 C168 1.373 . S
C164 C163 1.394 . S
C164 C165 1.380 . S
C164 H192 0.930 . S
C165 C164 1.380 . S
C165 C166 1.376 . S
C165 H193 0.930 . S
C166 C165 1.376 . S
C166 C167 1.370 . S
C167 C166 1.370 . S
C167 C168 1.396 . S
C167 H194 0.929 . S
C168 C163 1.373 . S
C168 C167 1.396 . S
C168 H195 0.929 . S
C169 O182 1.240 . S
C169 O183 1.289 . S
C170 O184 1.258 . S
C170 O185 1.256 . S
C171 La161 2.928 . S
C171 C172 1.503 . S
C171 O186 1.261 . S
C171 O187 1.243 . S
C172 C171 1.503 . S
C172 C173 1.394 . S
C172 C177 1.373 . S
C173 C172 1.394 . S
C173 C174 1.380 . S
C173 H196 0.930 . S
C174 C173 1.380 . S
C174 C175 1.376 . S
C174 H197 0.930 . S
C175 C174 1.376 . S
C175 C176 1.370 . S
C176 C175 1.370 . S
C176 C177 1.396 . S
C176 H198 0.929 . S
C177 C172 1.373 . S
C177 C176 1.396 . S
C177 H199 0.929 . S
C178 O188 1.240 . S
C178 O189 1.289 . S
C179 O190 1.258 . S
C179 O191 1.256 . S
O180 La160 2.521 . S
O180 C162 1.261 . S
O181 La160 2.628 . S
O181 C162 1.243 . S
O182 La160 2.554 . S
O182 C169 1.240 . S
O183 La160 2.757 . S
O183 La161 2.482 . S
O183 C169 1.289 . S
O184 La160 2.470 . S
O184 C170 1.258 . S
O185 La161 2.503 . S
O185 C170 1.256 . S
O186 La161 2.521 . S
O186 C171 1.261 . S
O187 La161 2.628 . S
O187 C171 1.243 . S
O188 La161 2.554 . S
O188 C178 1.240 . S
O189 La160 2.482 . S
O189 La161 2.757 . S
O189 C178 1.289 . S
O190 La161 2.470 . S
O190 C179 1.258 . S
O191 La160 2.503 . S
O191 C179 1.256 . S
H192 C164 0.930 . S
H193 C165 0.930 . S
H194 C167 0.929 . S
H195 C168 0.929 . S
H196 C173 0.930 . S
H197 C174 0.930 . S
H198 C176 0.929 . S
H199 C177 0.929 . S
La200 C202 2.928 . S
La200 O220 2.521 . S
La200 O221 2.628 . S
La200 O222 2.554 . S
La200 O223 2.757 . S
La200 O224 2.470 . S
La200 O229 2.482 . S
La200 O231 2.503 . S
La201 C211 2.928 . S
La201 O223 2.482 . S
La201 O225 2.503 . S
La201 O226 2.521 . S
La201 O227 2.628 . S
La201 O228 2.554 . S
La201 O229 2.757 . S
La201 O230 2.470 . S
C202 La200 2.928 . S
C202 C203 1.503 . S
C202 O220 1.261 . S
C202 O221 1.243 . S
C203 C202 1.503 . S
C203 C204 1.394 . S
C203 C208 1.373 . S
C204 C203 1.394 . S
C204 C205 1.380 1_556 S
C204 H232 0.930 . S
C205 C204 1.380 1_554 S
C205 C206 1.376 . S
C205 H233 0.930 . S
C206 C205 1.376 . S
C206 C207 1.370 . S
C207 C206 1.370 . S
C207 C208 1.396 1_554 S
C207 H234 0.929 . S
C208 C203 1.373 . S
C208 C207 1.396 1_556 S
C208 H235 0.929 . S
C209 O222 1.240 . S
C209 O223 1.289 . S
C210 O224 1.258 . S
C210 O225 1.256 . S
C211 La201 2.928 . S
C211 C212 1.503 . S
C211 O226 1.261 . S
C211 O227 1.243 . S
C212 C211 1.503 . S
C212 C213 1.394 . S
C212 C217 1.373 . S
C213 C212 1.394 . S
C213 C214 1.380 . S
C213 H236 0.930 . S
C214 C213 1.380 . S
C214 C215 1.376 . S
C214 H237 0.930 . S
C215 C214 1.376 . S
C215 C216 1.370 . S
C216 C215 1.370 . S
C216 C217 1.396 . S
C216 H238 0.929 . S
C217 C212 1.373 . S
C217 C216 1.396 . S
C217 H239 0.929 . S
C218 O228 1.240 . S
C218 O229 1.289 . S
C219 O230 1.258 . S
C219 O231 1.256 . S
O220 La200 2.521 . S
O220 C202 1.261 . S
O221 La200 2.628 . S
O221 C202 1.243 . S
O222 La200 2.554 . S
O222 C209 1.240 . S
O223 La200 2.757 . S
O223 La201 2.482 . S
O223 C209 1.289 . S
O224 La200 2.470 . S
O224 C210 1.258 . S
O225 La201 2.503 . S
O225 C210 1.256 . S
O226 La201 2.521 . S
O226 C211 1.261 . S
O227 La201 2.628 . S
O227 C211 1.243 . S
O228 La201 2.554 . S
O228 C218 1.240 . S
O229 La200 2.482 . S
O229 La201 2.757 . S
O229 C218 1.289 . S
O230 La201 2.470 . S
O230 C219 1.258 . S
O231 La200 2.503 . S
O231 C219 1.256 . S
H232 C204 0.930 . S
H233 C205 0.930 . S
H234 C207 0.929 . S
H235 C208 0.929 . S
H236 C213 0.930 . S
H237 C214 0.930 . S
H238 C216 0.929 . S
H239 C217 0.929 . S
H240 C248 0.950 . S
H241 C253 0.950 . S
H242 C250 0.950 . S
H243 C252 0.950 . S
H244 C254 0.950 . S
H245 C256 0.950 1_556 S
H246 C258 0.950 . S
H247 C259 0.950 . S
C248 H240 0.950 . S
C248 C249 1.386 . S
C248 C250 1.391 . S
C249 C248 1.386 . S
C249 C253 1.393 . S
C250 H242 0.950 . S
C250 C248 1.391 . S
C250 C251 1.400 . S
C251 C250 1.400 . S
C251 C252 1.398 . S
C251 C257 1.510 . S
C252 H243 0.950 . S
C252 C251 1.398 . S
C252 C253 1.391 . S
C253 H241 0.950 . S
C253 C249 1.393 . S
C253 C252 1.391 . S
C254 H244 0.950 . S
C254 C255 1.386 . S
C254 C256 1.391 . S
C255 C254 1.386 . S
C255 C259 1.393 . S
C256 H245 0.950 1_554 S
C256 C254 1.391 . S
C256 C257 1.397 1_554 S
C257 C251 1.510 . S
C257 C256 1.397 1_556 S
C257 C258 1.381 1_556 S
C258 H246 0.950 . S
C258 C257 1.381 1_554 S
C258 C259 1.391 . S
C259 H247 0.950 . S
C259 C255 1.393 . S
C259 C258 1.391 . S
H260 C268 0.950 . S
H261 C273 0.950 . S
H262 C270 0.950 . S
H263 C272 0.950 . S
H264 C274 0.950 . S
H265 C276 0.950 . S
H266 C278 0.950 . S
H267 C279 0.950 . S
C268 H260 0.950 . S
C268 C269 1.386 . S
C268 C270 1.391 . S
C269 C268 1.386 . S
C269 C273 1.393 . S
C270 H262 0.950 . S
C270 C268 1.391 . S
C270 C271 1.400 . S
C271 C270 1.400 . S
C271 C272 1.398 . S
C271 C277 1.491 1_455 S
C272 H263 0.950 . S
C272 C271 1.398 . S
C272 C273 1.391 . S
C273 H261 0.950 . S
C273 C269 1.393 . S
C273 C272 1.391 . S
C274 H264 0.950 . S
C274 C275 1.386 . S
C274 C276 1.391 . S
C275 C274 1.386 . S
C275 C279 1.393 . S
C276 H265 0.950 . S
C276 C274 1.391 . S
C276 C277 1.400 . S
C277 C271 1.491 1_655 S
C277 C276 1.400 . S
C277 C278 1.398 . S
C278 H266 0.950 . S
C278 C277 1.398 . S
C278 C279 1.391 . S
C279 H267 0.950 . S
C279 C275 1.393 . S
C279 C278 1.391 . S
H280 C288 0.950 . S
H281 C293 0.950 . S
H282 C290 0.950 1_565 S
H283 C292 0.950 . S
H284 C294 0.950 . S
H285 C296 0.950 1_545 S
H286 C298 0.950 . S
H287 C299 0.950 . S
C288 H280 0.950 . S
C288 C289 1.386 . S
C288 C290 1.391 . S
C289 C288 1.386 . S
C289 C293 1.393 . S
C290 H282 0.950 1_545 S
C290 C288 1.391 . S
C290 C291 1.400 . S
C291 C290 1.400 . S
C291 C292 1.398 . S
C291 C297 1.491 1_545 S
C292 H283 0.950 . S
C292 C291 1.398 . S
C292 C293 1.391 . S
C293 H281 0.950 . S
C293 C289 1.393 . S
C293 C292 1.391 . S
C294 H284 0.950 . S
C294 C295 1.386 . S
C294 C296 1.391 . S
C295 C294 1.386 . S
C295 C299 1.393 . S
C296 H285 0.950 1_565 S
C296 C294 1.391 . S
C296 C297 1.400 . S
C297 C291 1.491 1_565 S
C297 C296 1.400 . S
C297 C298 1.398 . S
C298 H286 0.950 . S
C298 C297 1.398 . S
C298 C299 1.391 . S
C299 H287 0.950 . S
C299 C295 1.393 . S
C299 C298 1.391 . S
H300 C308 0.950 . S
H301 C313 0.950 . S
H302 C310 0.950 1_554 S
H303 C312 0.950 . S
H304 C314 0.950 . S
H305 C316 0.950 . S
H306 C318 0.950 . S
H307 C319 0.950 . S
C308 H300 0.950 . S
C308 C309 1.386 . S
C308 C310 1.391 . S
C309 C308 1.386 . S
C309 C313 1.393 . S
C310 H302 0.950 1_556 S
C310 C308 1.391 . S
C310 C311 1.400 . S
C311 C310 1.400 . S
C311 C312 1.398 . S
C311 C317 1.491 . S
C312 H303 0.950 . S
C312 C311 1.398 . S
C312 C313 1.391 . S
C313 H301 0.950 . S
C313 C309 1.393 . S
C313 C312 1.391 . S
C314 H304 0.950 . S
C314 C315 1.386 1_556 S
C314 C316 1.391 . S
C315 C314 1.386 1_554 S
C315 C319 1.393 . S
C316 H305 0.950 . S
C316 C314 1.391 . S
C316 C317 1.400 . S
C317 C311 1.491 . S
C317 C316 1.400 . S
C317 C318 1.398 1_556 S
C318 H306 0.950 . S
C318 C317 1.398 1_554 S
C318 C319 1.391 . S
C319 H307 0.950 . S
C319 C315 1.393 . S
C319 C318 1.391 . S
H320 C328 0.950 . S
H321 C333 0.950 1_655 S
H322 C330 0.950 . S
H323 C332 0.950 . S
H324 C334 0.950 . S
H325 C336 0.950 . S
H326 C338 0.950 . S
H327 C339 0.950 1_455 S
C328 H320 0.950 . S
C328 C329 1.386 . S
C328 C330 1.391 . S
C329 C328 1.386 . S
C329 C333 1.393 . S
C330 H322 0.950 . S
C330 C328 1.391 . S
C330 C331 1.400 . S
C331 C330 1.400 . S
C331 C332 1.398 1_455 S
C331 C337 1.491 1_455 S
C332 H323 0.950 . S
C332 C331 1.398 1_655 S
C332 C333 1.391 1_655 S
C333 H321 0.950 1_455 S
C333 C329 1.393 . S
C333 C332 1.391 1_455 S
C334 H324 0.950 . S
C334 C335 1.386 . S
C334 C336 1.391 . S
C335 C334 1.386 . S
C335 C339 1.393 . S
C336 H325 0.950 . S
C336 C334 1.391 . S
C336 C337 1.400 . S
C337 C331 1.491 1_655 S
C337 C336 1.400 . S
C337 C338 1.398 1_655 S
C338 H326 0.950 . S
C338 C337 1.398 1_455 S
C338 C339 1.391 1_455 S
C339 H327 0.950 1_655 S
C339 C335 1.393 . S
C339 C338 1.391 1_655 S
H340 C348 0.950 . S
H341 C353 0.950 . S
H342 C350 0.950 . S
H343 C352 0.950 . S
H344 C354 0.950 . S
H345 C356 0.950 . S
H346 C358 0.950 . S
H347 C359 0.950 . S
C348 H340 0.950 . S
C348 C349 1.386 . S
C348 C350 1.391 . S
C349 C348 1.386 . S
C349 C353 1.393 . S
C350 H342 0.950 . S
C350 C348 1.391 . S
C350 C351 1.400 . S
C351 C350 1.400 . S
C351 C352 1.398 . S
C351 C357 1.491 1_545 S
C352 H343 0.950 . S
C352 C351 1.398 . S
C352 C353 1.391 . S
C353 H341 0.950 . S
C353 C349 1.393 . S
C353 C352 1.391 . S
C354 H344 0.950 . S
C354 C355 1.386 . S
C354 C356 1.391 . S
C355 C354 1.386 . S
C355 C359 1.393 . S
C356 H345 0.950 . S
C356 C354 1.391 . S
C356 C357 1.400 . S
C357 C351 1.491 1_565 S
C357 C356 1.400 . S
C357 C358 1.398 . S
C358 H346 0.950 . S
C358 C357 1.398 . S
C358 C359 1.391 . S
C359 H347 0.950 . S
C359 C355 1.393 . S
C359 C358 1.391 . S
H360 C368 0.950 . S
H361 C373 0.950 . S
H362 C370 0.950 . S
H363 C372 0.950 . S
H364 C374 0.950 . S
H365 C376 0.950 . S
H366 C378 0.950 . S
H367 C379 0.950 . S
C368 H360 0.950 . S
C368 C369 1.386 . S
C368 C370 1.391 . S
C369 C368 1.386 . S
C369 C373 1.393 . S
C370 H362 0.950 . S
C370 C368 1.391 . S
C370 C371 1.400 . S
C371 C370 1.400 . S
C371 C372 1.398 . S
C371 C377 1.491 . S
C372 H363 0.950 . S
C372 C371 1.398 . S
C372 C373 1.391 . S
C373 H361 0.950 . S
C373 C369 1.393 . S
C373 C372 1.391 . S
C374 H364 0.950 . S
C374 C375 1.386 . S
C374 C376 1.391 . S
C375 C374 1.386 . S
C375 C379 1.393 . S
C376 H365 0.950 . S
C376 C374 1.391 . S
C376 C377 1.400 . S
C377 C371 1.491 . S
C377 C376 1.400 . S
C377 C378 1.398 . S
C378 H366 0.950 . S
C378 C377 1.398 . S
C378 C379 1.391 . S
C379 H367 0.950 . S
C379 C375 1.393 . S
C379 C378 1.391 . S
H380 C388 0.950 . S
H381 C393 0.950 . S
H382 C390 0.950 . S
H383 C392 0.950 . S
H384 C394 0.950 . S
H385 C396 0.950 . S
H386 C398 0.950 . S
H387 C399 0.950 . S
C388 H380 0.950 . S
C388 C389 1.386 1_556 S
C388 C390 1.391 . S
C389 C388 1.386 1_554 S
C389 C393 1.393 . S
C390 H382 0.950 . S
C390 C388 1.391 . S
C390 C391 1.400 . S
C391 C390 1.400 . S
C391 C392 1.398 . S
C391 C397 1.491 . S
C392 H383 0.950 . S
C392 C391 1.398 . S
C392 C393 1.391 1_556 S
C393 H381 0.950 . S
C393 C389 1.393 . S
C393 C392 1.391 1_554 S
C394 H384 0.950 . S
C394 C395 1.386 . S
C394 C396 1.391 . S
C395 C394 1.386 . S
C395 C399 1.393 . S
C396 H385 0.950 . S
C396 C394 1.391 . S
C396 C397 1.400 . S
C397 C391 1.491 . S
C397 C396 1.400 . S
C397 C398 1.398 . S
C398 H386 0.950 . S
C398 C397 1.398 . S
C398 C399 1.391 . S
C399 H387 0.950 . S
C399 C395 1.393 . S
C399 C398 1.391 . S
H400 C408 0.950 . S
H401 C413 0.950 . S
H402 C410 0.950 . S
H403 C412 0.950 . S
H404 C414 0.950 . S
H405 C416 0.950 . S
H406 C418 0.950 . S
H407 C419 0.950 . S
C408 H400 0.950 . S
C408 C409 1.386 . S
C408 C410 1.391 . S
C409 C408 1.386 . S
C409 C413 1.393 . S
C410 H402 0.950 . S
C410 C408 1.391 . S
C410 C411 1.400 . S
C411 C410 1.400 . S
C411 C412 1.398 . S
C411 C417 1.491 . S
C412 H403 0.950 . S
C412 C411 1.398 . S
C412 C413 1.391 . S
C413 H401 0.950 . S
C413 C409 1.393 . S
C413 C412 1.391 . S
C414 H404 0.950 . S
C414 C415 1.386 . S
C414 C416 1.391 . S
C415 C414 1.386 . S
C415 C419 1.393 . S
C416 H405 0.950 . S
C416 C414 1.391 . S
C416 C417 1.400 . S
C417 C411 1.491 . S
C417 C416 1.400 . S
C417 C418 1.398 . S
C418 H406 0.950 . S
C418 C417 1.398 . S
C418 C419 1.391 . S
C419 H407 0.950 . S
C419 C415 1.393 . S
C419 C418 1.391 . S
H420 C428 0.950 . S
H421 C433 0.950 . S
H422 C430 0.950 . S
H423 C432 0.950 . S
H424 C434 0.950 . S
H425 C436 0.950 . S
H426 C438 0.950 . S
H427 C439 0.950 . S
C428 H420 0.950 . S
C428 C429 1.386 . S
C428 C430 1.391 . S
C429 C428 1.386 . S
C429 C433 1.393 . S
C430 H422 0.950 . S
C430 C428 1.391 . S
C430 C431 1.400 . S
C431 C430 1.400 . S
C431 C432 1.398 . S
C431 C437 1.491 . S
C432 H423 0.950 . S
C432 C431 1.398 . S
C432 C433 1.391 . S
C433 H421 0.950 . S
C433 C429 1.393 . S
C433 C432 1.391 . S
C434 H424 0.950 . S
C434 C435 1.386 . S
C434 C436 1.391 . S
C435 C434 1.386 . S
C435 C439 1.393 . S
C436 H425 0.950 . S
C436 C434 1.391 . S
C436 C437 1.400 . S
C437 C431 1.491 . S
C437 C436 1.400 . S
C437 C438 1.398 . S
C438 H426 0.950 . S
C438 C437 1.398 . S
C438 C439 1.391 . S
C439 H427 0.950 . S
C439 C435 1.393 . S
C439 C438 1.391 . S
H440 C448 0.950 . S
H441 C453 0.950 . S
H442 C450 0.950 . S
H443 C452 0.946 1_554 S
H444 C454 0.950 . S
H445 C456 0.950 . S
H446 C458 0.950 . S
H447 C459 0.950 . S
C448 H440 0.950 . S
C448 C449 1.386 . S
C448 C450 1.391 1_556 S
C449 C448 1.386 . S
C449 C453 1.393 . S
C450 H442 0.950 . S
C450 C448 1.391 1_554 S
C450 C451 1.400 . S
C451 C450 1.400 . S
C451 C452 1.398 1_554 S
C451 C457 1.491 . S
C452 H443 0.946 1_556 S
C452 C451 1.398 1_556 S
C452 C453 1.391 . S
C453 H441 0.950 . S
C453 C449 1.393 . S
C453 C452 1.391 . S
C454 H444 0.950 . S
C454 C455 1.386 . S
C454 C456 1.391 . S
C455 C454 1.386 . S
C455 C459 1.393 . S
C456 H445 0.950 . S
C456 C454 1.391 . S
C456 C457 1.400 . S
C457 C451 1.491 . S
C457 C456 1.400 . S
C457 C458 1.398 . S
C458 H446 0.950 . S
C458 C457 1.398 . S
C458 C459 1.391 . S
C459 H447 0.950 . S
C459 C455 1.393 . S
C459 C458 1.391 . S
H460 C468 0.950 . S
H461 C473 0.950 . S
H462 C470 0.950 . S
H463 C472 0.950 . S
H464 C474 0.950 . S
H465 C476 0.950 . S
H466 C478 0.950 . S
H467 C479 0.950 . S
C468 H460 0.950 . S
C468 C469 1.386 . S
C468 C470 1.391 . S
C469 C468 1.386 . S
C469 C473 1.393 . S
C470 H462 0.950 . S
C470 C468 1.391 . S
C470 C471 1.400 . S
C471 C470 1.400 . S
C471 C472 1.398 . S
C471 C477 1.491 . S
C472 H463 0.950 . S
C472 C471 1.398 . S
C472 C473 1.391 . S
C473 H461 0.950 . S
C473 C469 1.393 . S
C473 C472 1.391 . S
C474 H464 0.950 . S
C474 C475 1.386 . S
C474 C476 1.391 . S
C475 C474 1.386 . S
C475 C479 1.393 . S
C476 H465 0.950 . S
C476 C474 1.391 . S
C476 C477 1.400 . S
C477 C471 1.491 . S
C477 C476 1.400 . S
C477 C478 1.398 . S
C478 H466 0.950 . S
C478 C477 1.398 . S
C478 C479 1.391 . S
C479 H467 0.950 . S
C479 C475 1.393 . S
C479 C478 1.391 . S
H480 C488 0.950 . S
H481 C493 0.950 . S
H482 C490 0.950 . S
H483 C492 0.950 . S
H484 C494 0.950 . S
H485 C496 0.950 . S
H486 C498 0.950 . S
H487 C499 0.950 . S
C488 H480 0.950 . S
C488 C489 1.386 . S
C488 C490 1.391 . S
C489 C488 1.386 . S
C489 C493 1.393 . S
C490 H482 0.950 . S
C490 C488 1.391 . S
C490 C491 1.400 . S
C491 C490 1.400 . S
C491 C492 1.398 . S
C491 C497 1.491 . S
C492 H483 0.950 . S
C492 C491 1.398 . S
C492 C493 1.391 . S
C493 H481 0.950 . S
C493 C489 1.393 . S
C493 C492 1.391 . S
C494 H484 0.950 . S
C494 C495 1.386 . S
C494 C496 1.391 . S
C495 C494 1.386 . S
C495 C499 1.393 . S
C496 H485 0.950 . S
C496 C494 1.391 . S
C496 C497 1.400 . S
C497 C491 1.491 . S
C497 C496 1.400 . S
C497 C498 1.398 . S
C498 H486 0.950 . S
C498 C497 1.398 . S
C498 C499 1.391 . S
C499 H487 0.950 . S
C499 C495 1.393 . S
C499 C498 1.391 . S
H500 C508 0.950 . S
H501 C513 0.950 . S
H502 C510 0.950 . S
H503 C512 0.950 . S
H504 C514 0.950 . S
H505 C516 0.950 . S
H506 C518 0.950 . S
H507 C519 0.950 . S
C508 H500 0.950 . S
C508 C509 1.386 . S
C508 C510 1.391 . S
C509 C508 1.386 . S
C509 C513 1.393 . S
C510 H502 0.950 . S
C510 C508 1.391 . S
C510 C511 1.400 . S
C511 C510 1.400 . S
C511 C512 1.398 . S
C511 C517 1.491 . S
C512 H503 0.950 . S
C512 C511 1.398 . S
C512 C513 1.391 . S
C513 H501 0.950 . S
C513 C509 1.393 . S
C513 C512 1.391 . S
C514 H504 0.950 . S
C514 C515 1.386 . S
C514 C516 1.391 . S
C515 C514 1.386 . S
C515 C519 1.393 . S
C516 H505 0.950 . S
C516 C514 1.391 . S
C516 C517 1.400 . S
C517 C511 1.491 . S
C517 C516 1.400 . S
C517 C518 1.398 . S
C518 H506 0.950 . S
C518 C517 1.398 . S
C518 C519 1.391 . S
C519 H507 0.950 . S
C519 C515 1.393 . S
C519 C518 1.391 . S
H520 C528 0.950 . S
H521 C533 0.950 . S
H522 C530 0.950 . S
H523 C532 0.950 . S
H524 C534 0.950 . S
H525 C536 0.950 1_556 S
H526 C538 0.950 . S
H527 C539 0.950 . S
C528 H520 0.950 . S
C528 C529 1.386 . S
C528 C530 1.391 . S
C529 C528 1.386 . S
C529 C533 1.393 . S
C530 H522 0.950 . S
C530 C528 1.391 . S
C530 C531 1.400 . S
C531 C530 1.400 . S
C531 C532 1.398 . S
C531 C537 1.491 . S
C532 H523 0.950 . S
C532 C531 1.398 . S
C532 C533 1.391 . S
C533 H521 0.950 . S
C533 C529 1.393 . S
C533 C532 1.391 . S
C534 H524 0.950 . S
C534 C535 1.386 . S
C534 C536 1.391 1_556 S
C535 C534 1.386 . S
C535 C539 1.393 1_556 S
C536 H525 0.950 1_554 S
C536 C534 1.391 1_554 S
C536 C537 1.400 . S
C537 C531 1.491 . S
C537 C536 1.400 . S
C537 C538 1.398 . S
C538 H526 0.950 . S
C538 C537 1.398 . S
C538 C539 1.391 . S
C539 H527 0.950 . S
C539 C535 1.393 1_554 S
C539 C538 1.391 . S
H540 C548 0.950 . S
H541 C553 0.950 . S
H542 C550 0.950 . S
H543 C552 0.950 . S
H544 C554 0.950 . S
H545 C556 0.950 . S
H546 C558 0.950 . S
H547 C559 0.950 . S
C548 H540 0.950 . S
C548 C549 1.386 . S
C548 C550 1.391 . S
C549 C548 1.386 . S
C549 C553 1.393 . S
C550 H542 0.950 . S
C550 C548 1.391 . S
C550 C551 1.400 . S
C551 C550 1.400 . S
C551 C552 1.398 . S
C551 C557 1.491 . S
C552 H543 0.950 . S
C552 C551 1.398 . S
C552 C553 1.391 . S
C553 H541 0.950 . S
C553 C549 1.393 . S
C553 C552 1.391 . S
C554 H544 0.950 . S
C554 C555 1.386 . S
C554 C556 1.391 . S
C555 C554 1.386 . S
C555 C559 1.393 . S
C556 H545 0.950 . S
C556 C554 1.391 . S
C556 C557 1.400 . S
C557 C551 1.491 . S
C557 C556 1.400 . S
C557 C558 1.398 . S
C558 H546 0.950 . S
C558 C557 1.398 . S
C558 C559 1.391 . S
C559 H547 0.950 . S
C559 C555 1.393 . S
C559 C558 1.391 . S
H560 C568 0.950 . S
H561 C573 0.950 . S
H562 C570 0.950 . S
H563 C572 0.950 . S
H564 C574 0.950 . S
H565 C576 0.950 . S
H566 C578 0.950 . S
H567 C579 0.950 . S
C568 H560 0.950 . S
C568 C569 1.386 . S
C568 C570 1.391 . S
C569 C568 1.386 . S
C569 C573 1.393 . S
C570 H562 0.950 . S
C570 C568 1.391 . S
C570 C571 1.400 . S
C571 C570 1.400 . S
C571 C572 1.398 . S
C571 C577 1.491 . S
C572 H563 0.950 . S
C572 C571 1.398 . S
C572 C573 1.391 . S
C573 H561 0.950 . S
C573 C569 1.393 . S
C573 C572 1.391 . S
C574 H564 0.950 . S
C574 C575 1.386 . S
C574 C576 1.391 . S
C575 C574 1.386 . S
C575 C579 1.393 . S
C576 H565 0.950 . S
C576 C574 1.391 . S
C576 C577 1.400 . S
C577 C571 1.491 . S
C577 C576 1.400 . S
C577 C578 1.398 . S
C578 H566 0.950 . S
C578 C577 1.398 . S
C578 C579 1.391 . S
C579 H567 0.950 . S
C579 C575 1.393 . S
C579 C578 1.391 . S
H580 C588 0.950 . S
H581 C593 0.950 . S
H582 C590 0.950 . S
H583 C592 0.950 . S
H584 C594 0.950 . S
H585 C596 0.950 . S
H586 C598 0.950 . S
H587 C599 0.950 . S
C588 H580 0.950 . S
C588 C589 1.386 . S
C588 C590 1.391 . S
C589 C588 1.386 . S
C589 C593 1.393 . S
C590 H582 0.950 . S
C590 C588 1.391 . S
C590 C591 1.400 . S
C591 C590 1.400 . S
C591 C592 1.398 . S
C591 C597 1.491 . S
C592 H583 0.950 . S
C592 C591 1.398 . S
C592 C593 1.391 . S
C593 H581 0.950 . S
C593 C589 1.393 . S
C593 C592 1.391 . S
C594 H584 0.950 . S
C594 C595 1.386 . S
C594 C596 1.391 . S
C595 C594 1.386 . S
C595 C599 1.393 . S
C596 H585 0.950 . S
C596 C594 1.391 . S
C596 C597 1.400 . S
C597 C591 1.491 . S
C597 C596 1.400 . S
C597 C598 1.398 . S
C598 H586 0.950 . S
C598 C597 1.398 . S
C598 C599 1.391 . S
C599 H587 0.950 . S
C599 C595 1.393 . S
C599 C598 1.391 . S
C249 C210 1.763 . S
C255 C10 1.761 . S
C269 C9 1.399 . S
C275 C49 1.403 . S
C289 C50 1.755 . S
C295 C90 1.755 . S
C309 C89 1.373 . S
C315 C129 1.395 . S
C329 C170 1.760 . S
C335 C130 1.758 . S
C349 C209 1.374 . S
C355 C169 1.396 . S
C369 C6 1.255 . S
C375 C15 1.255 . S
C389 C55 1.263 . S
C395 C46 1.263 . S
C409 C86 1.262 . S
C415 C95 1.262 . S
C429 C135 1.277 . S
C435 C126 1.277 . S
C449 C175 1.284 . S
C455 C166 1.284 . S
C469 C215 1.261 . S
C475 C206 1.261 . S
C489 C19 1.827 . S
C495 C178 1.849 . S
C509 C58 1.849 . S
C515 C219 1.832 . S
C529 C18 1.848 . S
C535 C99 1.827 . S
C549 C59 1.826 . S
C555 C138 1.849 . S
C569 C179 1.824 . S
C575 C98 1.848 . S
C589 C139 1.832 . S
C595 C218 1.848 . S
