# Generated by pormake.
# Topology wju, (5)-cn, num edge types: 1
# Building blocks:
#     Node 0, Type 0, BuildingBlock: BEQFEK_clean_sbu_0, # of connection points: 5
#     Node 1, Type 0, BuildingBlock: BEQFEK_clean_sbu_0, # of connection points: 5
#     Node 2, Type 0, BuildingBlock: BEQFEK_clean_sbu_0, # of connection points: 5
#     Node 3, Type 0, BuildingBlock: BEQFEK_clean_sbu_0, # of connection points: 5
#     Node 4, Type 0, BuildingBlock: BEQFEK_clean_sbu_0, # of connection points: 5
#     Node 5, Type 0, BuildingBlock: BEQFEK_clean_sbu_0, # of connection points: 5
#     Node 6, Type 0, BuildingBlock: BEQFEK_clean_sbu_0, # of connection points: 5
#     Node 7, Type 0, BuildingBlock: BEQFEK_clean_sbu_0, # of connection points: 5
#     Node 8, Type 0, BuildingBlock: BEQFEK_clean_sbu_0, # of connection points: 5
#     Node 9, Type 0, BuildingBlock: BEQFEK_clean_sbu_0, # of connection points: 5
#     Node 10, Type 0, BuildingBlock: BEQFEK_clean_sbu_0, # of connection points: 5
#     Node 11, Type 0, BuildingBlock: BEQFEK_clean_sbu_0, # of connection points: 5
#     Edge 12, Type (0, 0), BuildingBlock: OJICUG_clean_linker_0, # of connection points: 2
#     Edge 13, Type (0, 0), BuildingBlock: OJICUG_clean_linker_0, # of connection points: 2
#     Edge 14, Type (0, 0), BuildingBlock: OJICUG_clean_linker_0, # of connection points: 2
#     Edge 15, Type (0, 0), BuildingBlock: OJICUG_clean_linker_0, # of connection points: 2
#     Edge 16, Type (0, 0), BuildingBlock: OJICUG_clean_linker_0, # of connection points: 2
#     Edge 17, Type (0, 0), BuildingBlock: OJICUG_clean_linker_0, # of connection points: 2
#     Edge 18, Type (0, 0), BuildingBlock: OJICUG_clean_linker_0, # of connection points: 2
#     Edge 19, Type (0, 0), BuildingBlock: OJICUG_clean_linker_0, # of connection points: 2
#     Edge 20, Type (0, 0), BuildingBlock: OJICUG_clean_linker_0, # of connection points: 2
#     Edge 21, Type (0, 0), BuildingBlock: OJICUG_clean_linker_0, # of connection points: 2
#     Edge 22, Type (0, 0), BuildingBlock: OJICUG_clean_linker_0, # of connection points: 2
#     Edge 23, Type (0, 0), BuildingBlock: OJICUG_clean_linker_0, # of connection points: 2
#     Edge 24, Type (0, 0), BuildingBlock: OJICUG_clean_linker_0, # of connection points: 2
#     Edge 25, Type (0, 0), BuildingBlock: OJICUG_clean_linker_0, # of connection points: 2
#     Edge 26, Type (0, 0), BuildingBlock: OJICUG_clean_linker_0, # of connection points: 2
#     Edge 27, Type (0, 0), BuildingBlock: OJICUG_clean_linker_0, # of connection points: 2
#     Edge 28, Type (0, 0), BuildingBlock: OJICUG_clean_linker_0, # of connection points: 2
#     Edge 29, Type (0, 0), BuildingBlock: OJICUG_clean_linker_0, # of connection points: 2
#     Edge 30, Type (0, 0), BuildingBlock: OJICUG_clean_linker_0, # of connection points: 2
#     Edge 31, Type (0, 0), BuildingBlock: OJICUG_clean_linker_0, # of connection points: 2
#     Edge 32, Type (0, 0), BuildingBlock: OJICUG_clean_linker_0, # of connection points: 2
#     Edge 33, Type (0, 0), BuildingBlock: OJICUG_clean_linker_0, # of connection points: 2
#     Edge 34, Type (0, 0), BuildingBlock: OJICUG_clean_linker_0, # of connection points: 2
#     Edge 35, Type (0, 0), BuildingBlock: OJICUG_clean_linker_0, # of connection points: 2
#     Edge 36, Type (0, 0), BuildingBlock: OJICUG_clean_linker_0, # of connection points: 2
#     Edge 37, Type (0, 0), BuildingBlock: OJICUG_clean_linker_0, # of connection points: 2
#     Edge 38, Type (0, 0), BuildingBlock: OJICUG_clean_linker_0, # of connection points: 2
#     Edge 39, Type (0, 0), BuildingBlock: OJICUG_clean_linker_0, # of connection points: 2
#     Edge 40, Type (0, 0), BuildingBlock: OJICUG_clean_linker_0, # of connection points: 2
#     Edge 41, Type (0, 0), BuildingBlock: OJICUG_clean_linker_0, # of connection points: 2
# Relax obj value: 0.112
# Max RMSD: 0.140
# Mean RMSD: 0.140
data_MOF--net-wju--node1-BEQFEK_clean_sbu_0--edge1-OJICUG_clean_linker_0
_symmetry_space_group_name_H-M    P1
_symmetry_Int_Tables_number       1
_symmetry_cell_setting            triclinic
loop_
_symmetry_equiv_pos_as_xyz
'x, y, z'
_cell_length_a     20.139872
_cell_length_b     20.139058
_cell_length_c     88.085947
_cell_angle_alpha  89.951788
_cell_angle_beta   90.026735
_cell_angle_gamma 119.99016
loop_
_atom_site_label
_atom_site_type_symbol
_atom_site_fract_x
_atom_site_fract_y
_atom_site_fract_z
_atom_type_partial_charge
Co0 Co 0.30868 0.19195 0.12145 0.0
Co1 Co 0.30144 0.17437 0.08588 0.0
C2 C 0.15856 0.11544 0.10373 0.0
O3 O 0.19647 0.13568 0.1161 0.0
O4 O 0.19256 0.13264 0.09095 0.0
C5 C 0.26059 0.13835 0.15175 0.0
O6 O 0.1984 0.08768 0.14466 0.0
C7 C 0.25885 0.10011 0.05543 0.0
C8 C 0.37123 0.1579 0.0439 0.0
C9 C 0.29563 0.1007 0.04204 0.0
N10 N 0.31059 0.1543 0.0648 0.0
N11 N 0.37729 0.18931 0.05769 0.0
C12 C 0.17832 0.04289 0.05987 0.0
H13 H 0.17382 0.03314 0.07228 0.0
H14 H 0.15856 0.98722 0.05407 0.0
H15 H 0.14005 0.06527 0.05653 0.0
C16 C 0.39511 0.10956 0.11793 0.0
N17 N 0.3542 0.14013 0.11234 0.0
N18 N 0.339 0.12171 0.09797 0.0
C19 C 0.36219 0.07177 0.09432 0.0
C20 C 0.40159 0.06399 0.10669 0.0
C21 C 0.43242 0.13062 0.13323 0.0
H22 H 0.43782 0.18543 0.13714 0.0
H23 H 0.39671 0.08519 0.14154 0.0
H24 H 0.49058 0.13751 0.13282 0.0
O25 O 0.36581 0.29923 0.11451 0.0
O26 O 0.36785 0.28919 0.08941 0.0
H27 H 0.3747 0.05389 0.07073 0.0
H28 H 0.33038 0.96678 0.08205 0.0
C29 C 0.33503 0.02347 0.08028 0.0
H30 H 0.27739 0.01283 0.0772 0.0
H31 H 0.42784 0.23247 0.06253 0.0
O32 O 0.3166 0.18898 0.14408 0.0
C33 C 0.38855 0.32994 0.10148 0.0
Co34 Co 0.10565 0.30607 0.45541 0.0
Co35 Co 0.11611 0.3004 0.41983 0.0
C36 C 0.03673 0.15667 0.43755 0.0
O37 O 0.0533 0.19416 0.44996 0.0
O38 O 0.05231 0.19097 0.42481 0.0
C39 C 0.11869 0.25966 0.48535 0.0
O40 O 0.1132 0.20061 0.47793 0.0
C41 C 0.15002 0.26089 0.38931 0.0
C42 C 0.19987 0.37317 0.3778 0.0
C43 C 0.18487 0.29864 0.3759 0.0
N44 N 0.14508 0.31107 0.39873 0.0
N45 N 0.17393 0.37768 0.39163 0.0
C46 C 0.13044 0.18129 0.39371 0.0
H47 H 0.13594 0.17698 0.40612 0.0
H48 H 0.16842 0.16414 0.38791 0.0
H49 H 0.07034 0.14086 0.39035 0.0
C50 C 0.27388 0.39944 0.45172 0.0
N51 N 0.20274 0.35541 0.4462 0.0
N52 N 0.20664 0.34082 0.43183 0.0
C53 C 0.28035 0.36769 0.42809 0.0
C54 C 0.32676 0.40881 0.44042 0.0
C55 C 0.28859 0.43682 0.46699 0.0
H56 H 0.23755 0.43926 0.47091 0.0
H57 H 0.3007 0.40286 0.47533 0.0
H58 H 0.3379 0.4962 0.46653 0.0
O59 O 0.05161 0.35971 0.44872 0.0
O60 O 0.06433 0.36344 0.42362 0.0
H61 H 0.31086 0.3819 0.4045 0.0
H62 H 0.35678 0.34048 0.41575 0.0
C63 C 0.30331 0.34256 0.41401 0.0
H64 H 0.25804 0.28416 0.41089 0.0
H65 H 0.17901 0.42721 0.3965 0.0
O66 O 0.1174 0.31343 0.478 0.0
C67 C 0.04282 0.38228 0.43574 0.0
Co68 Co 0.79604 0.10983 0.78893 0.0
Co69 Co 0.81179 0.11747 0.75343 0.0
C70 C 0.87672 0.03996 0.77177 0.0
O71 O 0.8568 0.05821 0.78411 0.0
O72 O 0.85709 0.0539 0.75894 0.0
C73 C 0.7899 0.07001 0.82014 0.0
O74 O 0.77121 0.00291 0.81428 0.0
C75 C 0.88547 0.14919 0.72291 0.0
C76 C 0.82417 0.19969 0.7112 0.0
C77 C 0.88338 0.1841 0.70944 0.0
N78 N 0.83025 0.14485 0.73223 0.0
N79 N 0.79314 0.17403 0.725 0.0
C80 C 0.94505 0.12929 0.72749 0.0
H81 H 0.95463 0.13535 0.7399 0.0
H82 H 0.00032 0.16669 0.72167 0.0
H83 H 0.92503 0.06895 0.72427 0.0
C84 C 0.87049 0.27739 0.78472 0.0
N85 N 0.84315 0.20596 0.77938 0.0
N86 N 0.862 0.20896 0.76506 0.0
C87 C 0.90935 0.28239 0.76118 0.0
C88 C 0.91476 0.32952 0.77337 0.0
C89 C 0.84722 0.29304 0.79985 0.0
H90 H 0.79286 0.2427 0.80367 0.0
H91 H 0.8923 0.30425 0.80835 0.0
H92 H 0.83846 0.34315 0.79921 0.0
O93 O 0.68826 0.0546 0.78239 0.0
O94 O 0.69706 0.06657 0.75727 0.0
H95 H 0.92641 0.31224 0.73756 0.0
H96 H 0.01355 0.35744 0.74885 0.0
C97 C 0.95766 0.30437 0.74713 0.0
H98 H 0.97007 0.25849 0.74413 0.0
H99 H 0.74886 0.17974 0.72979 0.0
O100 O 0.80176 0.12474 0.81129 0.0
C101 C 0.65682 0.04554 0.76942 0.0
Co102 Co 0.68767 0.79298 0.1213 0.0
Co103 Co 0.69358 0.81248 0.08594 0.0
C104 C 0.83711 0.8802 0.10398 0.0
O105 O 0.79955 0.85823 0.11638 0.0
O106 O 0.80307 0.86032 0.09121 0.0
C107 C 0.70323 0.85235 0.15141 0.0
O108 O 0.73026 0.91798 0.1442 0.0
C109 C 0.73434 0.88964 0.05571 0.0
C110 C 0.62313 0.82727 0.04384 0.0
C111 C 0.69748 0.88755 0.04223 0.0
N112 N 0.6839 0.83323 0.06489 0.0
N113 N 0.61791 0.79562 0.05759 0.0
C114 C 0.81328 0.94988 0.06039 0.0
H115 H 0.81625 0.95918 0.0728 0.0
H116 H 0.83061 0.00513 0.0546 0.0
H117 H 0.85433 0.93073 0.0572 0.0
C118 C 0.58739 0.8619 0.11791 0.0
N119 N 0.63446 0.83822 0.11245 0.0
N120 N 0.64991 0.85873 0.09817 0.0
C121 C 0.62086 0.9038 0.09452 0.0
C122 C 0.57721 0.90552 0.10673 0.0
C123 C 0.54734 0.83541 0.13287 0.0
H124 H 0.54819 0.78344 0.13677 0.0
H125 H 0.57694 0.88115 0.14148 0.0
H126 H 0.48684 0.82169 0.13192 0.0
O127 O 0.63888 0.68651 0.1141 0.0
O128 O 0.63258 0.69688 0.08911 0.0
H129 H 0.60811 0.92272 0.07098 0.0
H130 H 0.64641 0.0083 0.08267 0.0
C131 C 0.64621 0.95384 0.08068 0.0
H132 H 0.70537 0.96892 0.07769 0.0
H133 H 0.5683 0.75023 0.06224 0.0
O134 O 0.68015 0.79103 0.14382 0.0
C135 C 0.61594 0.65572 0.1011 0.0
Co136 Co 0.88176 0.68594 0.45536 0.0
Co137 Co 0.87145 0.69212 0.41976 0.0
C138 C 0.95167 0.83557 0.43752 0.0
O139 O 0.93478 0.7979 0.44992 0.0
O140 O 0.93596 0.80144 0.42477 0.0
C141 C 0.8691 0.73225 0.48531 0.0
O142 O 0.87488 0.7915 0.4779 0.0
C143 C 0.83898 0.7329 0.38919 0.0
C144 C 0.78612 0.62036 0.37776 0.0
C145 C 0.80338 0.69559 0.3758 0.0
N146 N 0.8423 0.68186 0.39864 0.0
N147 N 0.81159 0.61505 0.39159 0.0
C148 C 0.86088 0.81316 0.39354 0.0
H149 H 0.85394 0.81735 0.4059 0.0
H150 H 0.82532 0.83252 0.38746 0.0
H151 H 0.92184 0.85193 0.3905 0.0
C152 C 0.71349 0.59405 0.45166 0.0
N153 N 0.78472 0.63739 0.44613 0.0
N154 N 0.78103 0.65236 0.43177 0.0
C155 C 0.70748 0.62658 0.42805 0.0
C156 C 0.66081 0.58567 0.44037 0.0
C157 C 0.69847 0.55635 0.46691 0.0
H158 H 0.74925 0.55336 0.47082 0.0
H159 H 0.68668 0.59038 0.47526 0.0
H160 H 0.64889 0.49714 0.46642 0.0
O161 O 0.93514 0.63179 0.44866 0.0
O162 O 0.92251 0.62828 0.42355 0.0
H163 H 0.67651 0.61307 0.40448 0.0
H164 H 0.63248 0.65611 0.4158 0.0
C165 C 0.68518 0.65268 0.41399 0.0
H166 H 0.73131 0.71067 0.41084 0.0
H167 H 0.80498 0.5649 0.3965 0.0
O168 O 0.87002 0.67838 0.47795 0.0
C169 C 0.94377 0.60914 0.43568 0.0
Co170 Co 0.19216 0.883 0.78891 0.0
Co171 Co 0.17641 0.87547 0.7534 0.0
C172 C 0.11067 0.95212 0.77174 0.0
O173 O 0.13085 0.93406 0.78408 0.0
O174 O 0.13039 0.93839 0.75892 0.0
C175 C 0.19723 0.92205 0.82013 0.0
O176 O 0.21485 0.98897 0.81431 0.0
C177 C 0.10267 0.84343 0.72288 0.0
C178 C 0.16493 0.79411 0.71115 0.0
C179 C 0.10519 0.80892 0.7094 0.0
N180 N 0.15816 0.84828 0.7322 0.0
N181 N 0.19583 0.8198 0.72496 0.0
C182 C 0.04251 0.86245 0.72747 0.0
H183 H 0.03308 0.85634 0.73989 0.0
H184 H 0.98731 0.82455 0.72168 0.0
H185 H 0.06183 0.92264 0.72423 0.0
C186 C 0.11885 0.71556 0.7847 0.0
N187 N 0.14564 0.78694 0.77935 0.0
N188 N 0.12677 0.78387 0.76503 0.0
C189 C 0.07995 0.71035 0.76115 0.0
C190 C 0.07494 0.66334 0.77334 0.0
C191 C 0.14231 0.70008 0.79983 0.0
H192 H 0.19656 0.75059 0.80364 0.0
H193 H 0.0972 0.68867 0.80834 0.0
H194 H 0.15135 0.65015 0.79921 0.0
O195 O 0.29994 0.93888 0.78238 0.0
O196 O 0.29117 0.927 0.75726 0.0
H197 H 0.06335 0.68065 0.73752 0.0
H198 H 0.97613 0.63467 0.74878 0.0
C199 C 0.03176 0.68807 0.74708 0.0
H200 H 0.0188 0.73358 0.74406 0.0
H201 H 0.24045 0.81459 0.72974 0.0
O202 O 0.18645 0.86782 0.81127 0.0
C203 C 0.33142 0.94819 0.7694 0.0
Co204 Co 0.79579 0.68552 0.58073 0.0
Co205 Co 0.81249 0.69173 0.61632 0.0
C206 C 0.8755 0.83515 0.59849 0.0
O207 O 0.85477 0.79753 0.5861 0.0
O208 O 0.85703 0.80096 0.61125 0.0
C209 C 0.85494 0.7317 0.55079 0.0
O210 O 0.90869 0.79056 0.55822 0.0
C211 C 0.88666 0.73311 0.64678 0.0
C212 C 0.82682 0.62103 0.6584 0.0
C213 C 0.88516 0.69619 0.66021 0.0
N214 N 0.83184 0.68194 0.63743 0.0
N215 N 0.79564 0.61541 0.6446 0.0
C216 C 0.94529 0.81306 0.64227 0.0
H217 H 0.95561 0.81691 0.62989 0.0
H218 H 0.00051 0.83199 0.6482 0.0
H219 H 0.92391 0.85239 0.64541 0.0
C220 C 0.87219 0.59356 0.58442 0.0
N221 N 0.84442 0.63701 0.58994 0.0
N222 N 0.86312 0.65193 0.6043 0.0
C223 C 0.91076 0.62597 0.60801 0.0
C224 C 0.9164 0.58502 0.5957 0.0
C225 C 0.84949 0.55591 0.56917 0.0
H226 H 0.79575 0.55299 0.56526 0.0
H227 H 0.89533 0.58994 0.56081 0.0
H228 H 0.83985 0.49668 0.56967 0.0
O229 O 0.68829 0.63131 0.58749 0.0
O230 O 0.69756 0.62775 0.6126 0.0
H231 H 0.92808 0.61246 0.6316 0.0
H232 H 0.01511 0.65487 0.62026 0.0
C233 C 0.95919 0.65189 0.62206 0.0
H234 H 0.97147 0.71005 0.62517 0.0
H235 H 0.75177 0.56524 0.63979 0.0
O236 O 0.79984 0.67801 0.55813 0.0
C237 C 0.65709 0.60861 0.60048 0.0
Co238 Co 0.1067 0.79736 0.91314 0.0
Co239 Co 0.11464 0.81216 0.94868 0.0
C240 C 0.03677 0.87733 0.93065 0.0
O241 O 0.05435 0.85708 0.91828 0.0
O242 O 0.05131 0.85796 0.94343 0.0
C243 C 0.14922 0.87222 0.88494 0.0
O244 O 0.16651 0.93065 0.89394 0.0
C245 C 0.14691 0.88464 0.97929 0.0
C246 C 0.19617 0.82181 0.99086 0.0
C247 C 0.18142 0.88152 0.99274 0.0
N248 N 0.14201 0.82951 0.96987 0.0
N249 N 0.17044 0.79148 0.97701 0.0
C250 C 0.1279 0.945 0.97483 0.0
H251 H 0.13365 0.95475 0.96242 0.0
H252 H 0.16604 6e-05 0.98064 0.0
H253 H 0.06782 0.92572 0.97815 0.0
C254 C 0.27448 0.87096 0.91737 0.0
N255 N 0.20304 0.84418 0.92268 0.0
N256 N 0.20608 0.86271 0.93702 0.0
C257 C 0.27959 0.90938 0.94094 0.0
C258 C 0.32666 0.91459 0.92876 0.0
C259 C 0.29016 0.84732 0.90229 0.0
H260 H 0.23923 0.79377 0.89835 0.0
H261 H 0.30319 0.89298 0.8938 0.0
H262 H 0.33933 0.83712 0.90306 0.0
O263 O 0.0518 0.68917 0.91948 0.0
O264 O 0.06339 0.6976 0.94462 0.0
H265 H 0.3092 0.92517 0.96457 0.0
H266 H 0.35531 0.01275 0.95341 0.0
C267 C 0.30187 0.95711 0.95507 0.0
H268 H 0.25639 0.97004 0.95811 0.0
H269 H 0.17558 0.74705 0.97215 0.0
O270 O 0.12149 0.80567 0.89073 0.0
C271 C 0.04252 0.65754 0.93245 0.0
Co272 Co 0.31075 0.1156 0.24707 0.0
Co273 Co 0.30325 0.12546 0.2826 0.0
C274 C 0.1605 0.04154 0.2647 0.0
O275 O 0.19847 0.05934 0.25233 0.0
O276 O 0.19443 0.05827 0.27748 0.0
C277 C 0.26531 0.13036 0.21728 0.0
O278 O 0.2081 0.12805 0.22488 0.0
C279 C 0.26075 0.15676 0.31309 0.0
C280 C 0.37335 0.21156 0.32454 0.0
C281 C 0.29775 0.19308 0.32646 0.0
N282 N 0.31241 0.1544 0.30368 0.0
N283 N 0.37923 0.18619 0.31075 0.0
C284 C 0.18009 0.13323 0.3087 0.0
H285 H 0.17532 0.13824 0.29629 0.0
H286 H 0.16034 0.16916 0.3145 0.0
H287 H 0.14197 0.07262 0.31208 0.0
C288 C 0.39652 0.28431 0.25062 0.0
N289 N 0.35597 0.21281 0.25621 0.0
N290 N 0.34063 0.21584 0.27057 0.0
C291 C 0.36335 0.28885 0.27423 0.0
C292 C 0.40256 0.33618 0.26187 0.0
C293 C 0.43394 0.30078 0.23533 0.0
H294 H 0.43964 0.25156 0.23142 0.0
H295 H 0.39814 0.31035 0.22702 0.0
H296 H 0.49199 0.35221 0.23576 0.0
O297 O 0.36807 0.06555 0.25392 0.0
O298 O 0.36989 0.07732 0.27902 0.0
H299 H 0.37562 0.31917 0.29782 0.0
H300 H 0.33074 0.36142 0.2865 0.0
C301 C 0.33587 0.30964 0.28828 0.0
H302 H 0.27839 0.26236 0.29134 0.0
H303 H 0.42974 0.19367 0.30587 0.0
O304 O 0.31815 0.12674 0.2245 0.0
C305 C 0.39078 0.05752 0.26695 0.0
Co306 Co 0.19236 0.30576 0.58076 0.0
Co307 Co 0.17571 0.29952 0.61635 0.0
C308 C 0.11188 0.15608 0.59854 0.0
O309 O 0.13288 0.19377 0.58614 0.0
O310 O 0.13041 0.19019 0.61129 0.0
C311 C 0.13317 0.25976 0.55082 0.0
O312 O 0.07941 0.20086 0.55826 0.0
C313 C 0.10148 0.25847 0.6468 0.0
C314 C 0.16233 0.37036 0.65845 0.0
C315 C 0.10344 0.29544 0.66025 0.0
N316 N 0.15659 0.30939 0.63746 0.0
N317 N 0.19339 0.37579 0.64464 0.0
C318 C 0.04223 0.17882 0.64229 0.0
H319 H 0.03207 0.17518 0.6299 0.0
H320 H 0.98708 0.16047 0.64819 0.0
H321 H 0.0629 0.13892 0.64545 0.0
C322 C 0.11713 0.39878 0.58443 0.0
N323 N 0.14433 0.35481 0.58996 0.0
N324 N 0.12565 0.34 0.60432 0.0
C325 C 0.07861 0.36666 0.60804 0.0
C326 C 0.07336 0.40787 0.59572 0.0
C327 C 0.13998 0.43639 0.56918 0.0
H328 H 0.19356 0.43897 0.56528 0.0
H329 H 0.09406 0.40252 0.56082 0.0
H330 H 0.14994 0.49574 0.56965 0.0
O331 O 0.29988 0.35934 0.58751 0.0
O332 O 0.29068 0.36289 0.61262 0.0
H333 H 0.06187 0.38058 0.63163 0.0
H334 H 0.97471 0.33894 0.62034 0.0
C335 C 0.03034 0.34124 0.62212 0.0
H336 H 0.01744 0.2829 0.62524 0.0
H337 H 0.23761 0.4258 0.63984 0.0
O338 O 0.18829 0.31339 0.55816 0.0
C339 C 0.33114 0.38185 0.6005 0.0
Co340 Co 0.8804 0.19231 0.91323 0.0
Co341 Co 0.87257 0.17717 0.94878 0.0
C342 C 0.95063 0.11243 0.9307 0.0
O343 O 0.93289 0.1327 0.91833 0.0
O344 O 0.93611 0.13164 0.94349 0.0
C345 C 0.83778 0.11802 0.88497 0.0
O346 O 0.82032 0.05933 0.89393 0.0
C347 C 0.84131 0.10464 0.97942 0.0
C348 C 0.78995 0.16548 0.99096 0.0
C349 C 0.80631 0.10686 0.99286 0.0
N350 N 0.84505 0.15928 0.96999 0.0
N351 N 0.81532 0.19611 0.97711 0.0
C352 C 0.86194 0.04544 0.97499 0.0
H353 H 0.85484 0.03462 0.96262 0.0
H354 H 0.82571 0.99056 0.98103 0.0
H355 H 0.92274 0.06663 0.97802 0.0
C356 C 0.71265 0.11809 0.91746 0.0
N357 N 0.78413 0.14523 0.92278 0.0
N358 N 0.78118 0.1265 0.93712 0.0
C359 C 0.70775 0.0793 0.94101 0.0
C360 C 0.66055 0.07393 0.92883 0.0
C361 C 0.69683 0.14195 0.9024 0.0
H362 H 0.74763 0.19571 0.89849 0.0
H363 H 0.684 0.09655 0.89388 0.0
H364 H 0.64751 0.1519 0.90321 0.0
O365 O 0.93518 0.30034 0.91959 0.0
O366 O 0.92358 0.29184 0.94473 0.0
H367 H 0.67766 0.06265 0.96462 0.0
H368 H 0.63289 0.97529 0.9534 0.0
C369 C 0.68581 0.03132 0.95512 0.0
H370 H 0.73184 0.01922 0.95821 0.0
H371 H 0.80907 0.23992 0.97223 0.0
O372 O 0.86563 0.18444 0.89081 0.0
C373 C 0.94441 0.33193 0.93255 0.0
Co374 Co 0.68944 0.8931 0.24714 0.0
Co375 Co 0.69526 0.87956 0.2825 0.0
C376 C 0.83888 0.95483 0.26448 0.0
O377 O 0.80134 0.93945 0.25208 0.0
O378 O 0.80483 0.94068 0.27724 0.0
C379 C 0.70423 0.84869 0.21701 0.0
O380 O 0.73088 0.80969 0.2242 0.0
C381 C 0.73501 0.84264 0.31278 0.0
C382 C 0.62363 0.7947 0.32455 0.0
C383 C 0.6977 0.80803 0.32624 0.0
N384 N 0.68508 0.84917 0.30354 0.0
N385 N 0.619 0.82136 0.3108 0.0
C386 C 0.81384 0.86066 0.30816 0.0
H387 H 0.81704 0.8546 0.29575 0.0
H388 H 0.83047 0.82215 0.31394 0.0
H389 H 0.85528 0.92064 0.31142 0.0
C390 C 0.58836 0.72401 0.25057 0.0
N391 N 0.63584 0.79471 0.25601 0.0
N392 N 0.65122 0.78961 0.27029 0.0
C393 C 0.62168 0.71546 0.27397 0.0
C394 C 0.57782 0.67018 0.26177 0.0
C395 C 0.54824 0.71057 0.23562 0.0
H396 H 0.54935 0.7635 0.23171 0.0
H397 H 0.57761 0.69416 0.22701 0.0
H398 H 0.48766 0.664 0.23659 0.0
O399 O 0.64101 0.95118 0.25431 0.0
O400 O 0.63474 0.93458 0.2793 0.0
H401 H 0.60868 0.68392 0.29751 0.0
H402 H 0.64648 0.63607 0.28586 0.0
C403 C 0.64671 0.69057 0.28783 0.0
H404 H 0.70598 0.73435 0.29081 0.0
H405 H 0.56969 0.81765 0.30609 0.0
O406 O 0.68178 0.88741 0.22463 0.0
C407 C 0.61819 0.95918 0.26731 0.0
C408 C 0.19216 0.01971 0.02329 0.0
C409 C 0.26556 0.0451 0.02934 0.0
H410 H 0.10718 0.94692 1.0071 0.0
C411 C 0.3106 0.01628 0.02328 0.0
H412 H 0.1566 0.04173 0.0276 0.0
C413 C 0.28246 0.96227 1.01157 0.0
C414 C 0.20926 0.93707 1.00546 0.0
H415 H 0.3673 0.03465 0.02775 0.0
H416 H 0.31855 0.9411 1.00713 0.0
C417 C 0.1642 0.96608 1.01146 0.0
C418 C 0.16697 0.19679 0.35713 0.0
C419 C 0.21235 0.27079 0.36314 0.0
H420 H 0.15881 0.11341 0.34095 0.0
C421 C 0.28548 0.31859 0.35698 0.0
H422 H 0.10997 0.1591 0.36151 0.0
C423 C 0.31327 0.29259 0.34524 0.0
C424 C 0.26794 0.21877 0.33918 0.0
H425 H 0.32179 0.37581 0.36142 0.0
H426 H 0.36994 0.33077 0.34074 0.0
C427 C 0.19459 0.17096 0.34527 0.0
C428 C 0.96606 0.28495 0.69071 0.0
C429 C 0.93935 0.21137 0.69678 0.0
H430 H 0.03985 0.3694 0.67459 0.0
C431 C 0.96716 0.16529 0.69078 0.0
H432 H 0.94582 0.32182 0.69516 0.0
C433 C 0.02096 0.19253 0.67898 0.0
C434 C 0.04781 0.26628 0.67296 0.0
H435 H 0.94686 0.108 0.69512 0.0
H436 H 0.04192 0.15611 0.67464 0.0
C437 C 0.02031 0.31241 0.67904 0.0
C438 C 0.70596 0.02364 1.01162 0.0
C439 C 0.77981 0.05146 1.00562 0.0
H440 H 0.62185 0.94905 0.02772 0.0
C441 C 0.8269 0.02515 1.01177 0.0
H442 H 0.66834 0.04274 1.00706 0.0
C443 C 0.80034 0.97163 0.02364 0.0
C444 C 0.72623 0.94349 0.02955 0.0
H445 H 0.88441 0.04631 1.00748 0.0
H446 H 0.8375 0.95174 0.02807 0.0
C447 C 0.67915 0.96961 0.02335 0.0
C448 C 0.67776 0.70735 0.34518 0.0
C449 C 0.72569 0.78029 0.33895 0.0
H450 H 0.66551 0.62315 0.36154 0.0
C451 C 0.79987 0.8255 0.34489 0.0
H452 H 0.62038 0.67119 0.34079 0.0
C453 C 0.82565 0.79805 0.3568 0.0
C454 C 0.77769 0.72494 0.36298 0.0
H455 H 0.83767 0.88235 0.34044 0.0
H456 H 0.88324 0.8338 0.36111 0.0
C457 C 0.70377 0.67964 0.35696 0.0
C458 C 0.02062 0.8268 0.69077 0.0
C459 C 0.04922 0.7813 0.69675 0.0
H460 H 0.94525 0.83518 0.67464 0.0
C461 C 0.02331 0.70796 0.69065 0.0
H462 H 0.0403 0.88391 0.69513 0.0
C463 C 0.96906 0.68015 0.67897 0.0
C464 C 0.94077 0.7257 0.67292 0.0
H465 H 0.04417 0.67153 0.69507 0.0
H466 H 0.95015 0.62335 0.6745 0.0
C467 C 0.96682 0.79922 0.67897 0.0
C468 C 0.50807 0.96332 0.12085 0.0
C469 C 0.52933 0.94312 0.10715 0.0
H470 H 0.44301 0.00668 0.13159 0.0
C471 C 0.50495 0.96041 0.09354 0.0
H472 H 0.52617 0.95325 0.1317 0.0
C473 C 0.46907 0.00392 0.09352 0.0
C474 C 0.44457 0.02127 0.1071 0.0
H475 H 0.51405 0.94169 0.08268 0.0
H476 H 0.46143 0.02374 0.08265 0.0
C477 C 0.46275 -0.00197 0.12081 0.0
C478 C 0.45395 0.48002 0.42721 0.0
C479 C 0.41233 0.45479 0.4408 0.0
H480 H 0.56085 0.52496 0.4163 0.0
C481 C 0.45387 0.4744 0.45449 0.0
H482 H 0.42621 0.47188 0.41636 0.0
C483 C 0.53376 0.52043 0.45448 0.0
C484 C 0.57518 0.54053 0.44077 0.0
H485 H 0.42581 0.45482 0.46531 0.0
H486 H 0.5619 0.53946 0.4653 0.0
C487 C 0.53335 0.51632 0.42718 0.0
C488 C 0.0172 0.53618 0.76008 0.0
C489 C 0.03445 0.57781 0.77368 0.0
H490 H 0.95408 0.42914 0.74922 0.0
C491 C 0.01233 0.53635 0.78738 0.0
H492 H 0.03668 0.56393 0.74923 0.0
C493 C 0.97772 0.45648 0.78739 0.0
C494 C 0.95572 0.41508 0.77369 0.0
H495 H 0.02126 0.56448 0.7982 0.0
H496 H 0.96861 0.4283 0.79821 0.0
C497 C 0.97337 0.45679 0.76008 0.0
C498 C 0.01694 0.47872 0.60891 0.0
C499 C 0.03365 0.45376 0.59532 0.0
H500 H 0.95486 0.52363 0.61978 0.0
C501 C 0.01196 0.47359 0.58162 0.0
H502 H 0.03629 0.47036 0.61977 0.0
C503 C 0.97815 0.51968 0.58161 0.0
C504 C 0.95666 0.53965 0.59531 0.0
H505 H 0.02063 0.45417 0.5708 0.0
H506 H 0.96922 0.5389 0.57079 0.0
C507 C 0.97391 0.51511 0.60891 0.0
C508 C 0.5332 0.01531 0.9421 0.0
C509 C 0.57497 0.03314 0.9285 0.0
H510 H 0.42596 0.95217 0.95291 0.0
C511 C 0.53359 0.01147 0.91479 0.0
H512 H 0.56081 0.03431 0.95297 0.0
C513 C 0.45374 0.97702 0.91478 0.0
C514 C 0.4122 0.95483 0.92846 0.0
H515 H 0.56173 0.0207 0.90397 0.0
H516 H 0.4257 0.96828 0.90395 0.0
C517 C 0.45377 0.97175 0.94207 0.0
C518 C 0.46319 0.46321 0.24774 0.0
C519 C 0.44505 0.42187 0.26146 0.0
H520 H 0.5266 0.57134 0.23683 0.0
C521 C 0.46923 0.46381 0.27503 0.0
H522 H 0.44356 0.43478 0.23695 0.0
C523 C 0.50503 0.54319 0.27498 0.0
C524 C 0.52962 0.58476 0.26137 0.0
H525 H 0.46153 0.43644 0.28591 0.0
H526 H 0.51404 0.57111 0.28583 0.0
C527 C 0.50842 0.54323 0.24768 0.0
C528 C 0.19595 0.10491 0.19266 0.0
C529 C 0.26558 0.13341 0.20053 0.0
H530 H 0.14001 0.08315 0.17111 0.0
C531 C 0.33434 0.16428 0.19224 0.0
H532 H 0.14204 0.08049 0.19875 0.0
C533 C 0.33329 0.16725 0.17634 0.0
C534 C 0.26332 0.13758 0.16851 0.0
H535 H 0.38883 0.18691 0.19804 0.0
H536 H 0.38694 0.19154 0.17017 0.0
C537 C 0.19476 0.10613 0.17684 0.0
C538 C 0.15924 0.33073 0.51013 0.0
C539 C 0.12296 0.26115 0.50209 0.0
H540 H 0.19248 0.385 0.53199 0.0
C541 C 0.09061 0.19185 0.51019 0.0
H542 H 0.18493 0.38495 0.50413 0.0
C543 C 0.09347 0.19188 0.52601 0.0
C544 C 0.13049 0.26121 0.53408 0.0
H545 H 0.06204 0.13736 0.5043 0.0
H546 H 0.0675 0.13741 0.53193 0.0
C547 C 0.16389 0.33076 0.52601 0.0
C548 C 0.78645 0.02144 0.84646 0.0
C549 C 0.80021 0.0824 0.83676 0.0
H550 H 0.78743 0.98486 0.86921 0.0
C551 C 0.82558 0.15538 0.84306 0.0
H552 H 0.76689 0.96451 0.842 0.0
C553 C 0.83766 0.16717 0.85872 0.0
C554 C 0.82441 0.10619 0.8684 0.0
H555 H 0.83677 0.20362 0.8359 0.0
H556 H 0.85754 0.22407 0.86323 0.0
C557 C 0.79828 0.03316 0.86209 0.0
C558 C 0.69956 0.78882 0.17609 0.0
C559 C 0.70069 0.85003 0.16819 0.0
H560 H 0.70085 0.74099 0.19777 0.0
C561 C 0.70101 0.90979 0.17646 0.0
H562 H 0.69946 0.74204 0.17001 0.0
C563 C 0.70042 0.90849 0.19234 0.0
C564 C 0.70123 0.84825 0.20024 0.0
H565 H 0.70148 0.95748 0.17067 0.0
H566 H 0.70099 0.9555 0.19842 0.0
C567 C 0.70068 0.78837 0.19197 0.0
C568 C 0.82853 0.661 0.51009 0.0
C569 C 0.86492 0.73064 0.50205 0.0
H570 H 0.7953 0.60659 0.53195 0.0
C571 C 0.8975 0.79989 0.51015 0.0
H572 H 0.80268 0.60682 0.50409 0.0
C573 C 0.89472 0.79975 0.52598 0.0
C574 C 0.85758 0.73037 0.53405 0.0
H575 H 0.92617 0.85441 0.50426 0.0
H576 H 0.92085 0.85417 0.53189 0.0
C577 C 0.82398 0.66087 0.52598 0.0
C578 C 0.15026 0.82404 0.85866 0.0
C579 C 0.16258 0.88452 0.86837 0.0
H580 H 0.15195 0.78841 0.83582 0.0
C581 C 0.18779 0.95752 0.86211 0.0
H582 H 0.1311 0.76718 0.86314 0.0
C583 C 0.19965 0.96968 0.84649 0.0
C584 C 0.18686 0.90922 0.83674 0.0
H585 H 0.19789 0.00543 0.86925 0.0
H586 H 0.21848 0.02656 0.84206 0.0
C587 C 0.16239 0.83628 0.84301 0.0
C588 C 0.537 0.52985 0.11423 0.0
C589 C 0.56132 0.57133 0.10054 0.0
H590 H 0.46378 0.4237 0.12524 0.0
C591 C 0.52781 0.53241 0.08689 0.0
H592 H 0.56076 0.55726 0.12502 0.0
C593 C 0.4712 0.45412 0.08702 0.0
C594 C 0.44622 0.4135 0.10082 0.0
H595 H 0.54461 0.56253 0.07615 0.0
H596 H 0.44673 0.42564 0.07635 0.0
C597 C 0.48034 0.45272 0.11437 0.0
C598 C 0.00312 0.46705 0.44887 0.0
C599 C 0.01466 0.43817 0.43521 0.0
H600 H 0.97403 0.54351 0.45972 0.0
C601 C 0.00428 0.46753 0.42143 0.0
H602 H 0.01102 0.44674 0.45974 0.0
C603 C 0.98249 0.52401 0.42142 0.0
C604 C 0.97157 0.55296 0.43518 0.0
H605 H 0.01325 0.44714 0.41068 0.0
H606 H 0.97406 0.5448 0.41066 0.0
C607 C 0.98241 0.52356 0.44886 0.0
C608 C 0.45572 0.98739 0.78258 0.0
C609 C 0.4154 0.97612 0.7689 0.0
H610 H 0.56108 0.0157 0.79345 0.0
C611 C 0.45504 0.98615 0.75513 0.0
H612 H 0.42756 0.97971 0.79344 0.0
C613 C 0.53313 0.00733 0.75514 0.0
C614 C 0.57291 0.01797 0.76891 0.0
H615 H 0.42574 0.97734 0.74438 0.0
H616 H 0.56229 0.01555 0.74438 0.0
C617 C 0.53278 0.00748 0.78258 0.0
C618 C 0.53323 0.5236 0.61479 0.0
C619 C 0.57311 0.55243 0.60102 0.0
H620 H 0.42557 0.44689 0.62555 0.0
C621 C 0.53287 0.52293 0.58735 0.0
H622 H 0.56244 0.54447 0.62554 0.0
C623 C 0.45564 0.46647 0.58735 0.0
C624 C 0.41519 0.43773 0.60103 0.0
H625 H 0.56119 0.54277 0.57648 0.0
H626 H 0.42746 0.4461 0.57649 0.0
C627 C 0.45493 0.46717 0.61479 0.0
C628 C 0.0041 0.53384 0.94674 0.0
C629 C 0.01465 0.57357 0.93296 0.0
H630 H 0.97405 0.42648 0.95753 0.0
C631 C 0.00368 0.53328 0.9193 0.0
H632 H 0.01266 0.5631 0.95749 0.0
C633 C 0.98328 0.45612 0.91932 0.0
C634 C 0.97223 0.4159 0.93302 0.0
H635 H 0.01178 0.56154 0.90843 0.0
H636 H 0.97527 0.42783 0.90847 0.0
C637 C 0.98267 0.45569 0.94677 0.0
C638 C 0.53972 0.00672 0.2542 0.0
C639 C 0.56372 0.98913 0.26787 0.0
H640 H 0.46668 0.03994 0.2432 0.0
C641 C 0.52994 0.99416 0.28152 0.0
H642 H 0.56372 0.00341 0.24342 0.0
C643 C 0.4733 0.0158 0.28139 0.0
C644 C 0.44858 0.03179 0.2676 0.0
H645 H 0.54651 0.98051 0.29226 0.0
H646 H 0.44858 0.01945 0.29205 0.0
C647 C 0.48303 0.02717 0.25406 0.0
C648 C 0.03561 0.03007 0.11786 0.0
C649 C 0.07473 0.05994 0.10407 0.0
H650 H 0.93036 0.9493 0.12873 0.0
C651 C 0.03506 0.02897 0.09042 0.0
H652 H 0.06431 0.05208 0.12861 0.0
C653 C 0.95949 0.96861 0.09049 0.0
C654 C 0.92016 0.93849 0.10421 0.0
H655 H 0.06273 0.05026 0.07957 0.0
H656 H 0.93184 0.946 0.0797 0.0
C657 C 0.95906 0.97029 0.11793 0.0
C658 C 0.00232 0.03412 0.42411 0.0
C659 C 0.01052 0.0733 0.43781 0.0
H660 H 0.98208 0.9311 0.41329 0.0
C661 C 0.00215 0.03417 0.45156 0.0
H662 H 0.00838 0.06198 0.41329 0.0
C663 C 0.9859 0.95781 0.45155 0.0
C664 C 0.97827 0.91903 0.4378 0.0
H665 H 0.00879 0.06261 0.46234 0.0
H666 H 0.97857 0.92905 0.46233 0.0
C667 C 0.98743 0.95863 0.42411 0.0
C668 C 0.96412 0.00482 0.78585 0.0
C669 C 0.93327 0.01302 0.77209 0.0
H670 H 0.04504 0.98011 0.79661 0.0
C671 C 0.96331 0.00346 0.7584 0.0
H672 H 0.94296 0.01251 0.79662 0.0
C673 C 0.02329 0.98775 0.75839 0.0
C674 C 0.05387 0.97876 0.77207 0.0
H675 H 0.94132 0.00916 0.74758 0.0
H676 H 0.0449 0.98167 0.74756 0.0
C677 C 0.02346 0.98737 0.78584 0.0
C678 C 0.96373 0.9575 0.58447 0.0
C679 C 0.93243 0.91858 0.59822 0.0
H680 H 0.04583 0.0624 0.57371 0.0
C681 C 0.96287 0.95799 0.61191 0.0
H682 H 0.94233 0.92888 0.57369 0.0
C683 C 0.02363 0.03336 0.61193 0.0
C684 C 0.0547 0.07272 0.59825 0.0
H685 H 0.94055 0.93038 0.62273 0.0
H686 H 0.04547 0.06097 0.62276 0.0
C687 C 0.02394 0.03381 0.58449 0.0
C688 C 0.98503 0.02466 0.91662 0.0
C689 C 0.97723 0.05563 0.93038 0.0
H690 H 0.00898 0.94339 0.90583 0.0
C691 C 0.98654 0.02528 0.94407 0.0
H692 H 0.97742 0.04599 0.90585 0.0
C693 C 0.00172 0.96493 0.94406 0.0
C694 C 0.01032 0.93425 0.93037 0.0
H695 H 0.98106 0.04733 0.95489 0.0
H696 H 0.00777 0.94314 0.95489 0.0
C697 C 0.00191 0.96496 0.91661 0.0
C698 C 0.03674 0.00336 0.27801 0.0
C699 C 0.07664 0.01307 0.26434 0.0
H700 H 0.93323 0.98203 0.28876 0.0
C701 C 0.03773 0.00471 0.25056 0.0
H702 H 0.06431 0.00915 0.28885 0.0
C703 C 0.9611 0.98773 0.25051 0.0
C704 C 0.92194 0.97957 0.26424 0.0
H705 H 0.06672 0.0124 0.2398 0.0
H706 H 0.93258 0.98079 0.23971 0.0
C707 C 0.96108 0.98791 0.27795 0.0
loop_
_geom_bond_atom_site_label_1
_geom_bond_atom_site_label_2
_geom_bond_distance
_geom_bond_site_symmetry_2
_ccdc_geom_bond_type
Co0 O3 1.970 . S
Co0 N17 1.989 . S
Co0 O25 1.967 . S
Co0 O32 1.920 . S
Co1 O4 1.966 . S
Co1 N10 2.022 . S
Co1 N18 1.993 . S
Co1 O26 1.941 . S
C2 O3 1.258 . S
C2 O4 1.263 . S
O3 Co0 1.970 . S
O3 C2 1.258 . S
O4 Co1 1.966 . S
O4 C2 1.263 . S
C5 O6 1.235 . S
C5 O32 1.289 . S
O6 C5 1.235 . S
C7 C9 1.400 . S
C7 N10 1.351 . S
C7 C12 1.501 . S
C8 C9 1.387 . S
C8 N11 1.341 . S
C9 C7 1.400 . S
C9 C8 1.387 . S
N10 Co1 2.022 . S
N10 C7 1.351 . S
N10 N11 1.365 . S
N11 C8 1.341 . S
N11 N10 1.365 . S
N11 H31 0.862 . S
C12 C7 1.501 . S
C12 H13 0.961 . S
C12 H14 0.961 1_545 S
C12 H15 0.960 . S
H13 C12 0.961 . S
H14 C12 0.961 1_565 S
H15 C12 0.960 . S
C16 N17 1.342 . S
C16 C20 1.401 . S
C16 C21 1.499 . S
N17 Co0 1.989 . S
N17 C16 1.342 . S
N17 N18 1.388 . S
N18 Co1 1.993 . S
N18 N17 1.388 . S
N18 C19 1.346 . S
C19 N18 1.346 . S
C19 C20 1.396 . S
C19 C29 1.510 . S
C20 C16 1.401 . S
C20 C19 1.396 . S
C21 C16 1.499 . S
C21 H22 0.959 . S
C21 H23 0.960 . S
C21 H24 0.961 . S
H22 C21 0.959 . S
H23 C21 0.960 . S
H24 C21 0.961 . S
O25 Co0 1.967 . S
O25 C33 1.258 . S
O26 Co1 1.941 . S
O26 C33 1.266 . S
H27 C29 0.959 . S
H28 C29 0.961 1_565 S
C29 C19 1.510 . S
C29 H27 0.959 . S
C29 H28 0.961 1_545 S
C29 H30 0.960 . S
H30 C29 0.960 . S
H31 N11 0.862 . S
O32 Co0 1.920 . S
O32 C5 1.289 . S
C33 O25 1.258 . S
C33 O26 1.266 . S
Co34 O37 1.970 . S
Co34 N51 1.989 . S
Co34 O59 1.967 . S
Co34 O66 1.920 . S
Co35 O38 1.966 . S
Co35 N44 2.022 . S
Co35 N52 1.993 . S
Co35 O60 1.941 . S
C36 O37 1.258 . S
C36 O38 1.263 . S
O37 Co34 1.970 . S
O37 C36 1.258 . S
O38 Co35 1.966 . S
O38 C36 1.263 . S
C39 O40 1.235 . S
C39 O66 1.289 . S
O40 C39 1.235 . S
C41 C43 1.400 . S
C41 N44 1.351 . S
C41 C46 1.501 . S
C42 C43 1.387 . S
C42 N45 1.341 . S
C43 C41 1.400 . S
C43 C42 1.387 . S
N44 Co35 2.022 . S
N44 C41 1.351 . S
N44 N45 1.365 . S
N45 C42 1.341 . S
N45 N44 1.365 . S
N45 H65 0.862 . S
C46 C41 1.501 . S
C46 H47 0.961 . S
C46 H48 0.961 . S
C46 H49 0.960 . S
H47 C46 0.961 . S
H48 C46 0.961 . S
H49 C46 0.960 . S
C50 N51 1.342 . S
C50 C54 1.401 . S
C50 C55 1.499 . S
N51 Co34 1.989 . S
N51 C50 1.342 . S
N51 N52 1.388 . S
N52 Co35 1.993 . S
N52 N51 1.388 . S
N52 C53 1.346 . S
C53 N52 1.346 . S
C53 C54 1.396 . S
C53 C63 1.510 . S
C54 C50 1.401 . S
C54 C53 1.396 . S
C55 C50 1.499 . S
C55 H56 0.959 . S
C55 H57 0.960 . S
C55 H58 0.961 . S
H56 C55 0.959 . S
H57 C55 0.960 . S
H58 C55 0.961 . S
O59 Co34 1.967 . S
O59 C67 1.258 . S
O60 Co35 1.941 . S
O60 C67 1.266 . S
H61 C63 0.959 . S
H62 C63 0.961 . S
C63 C53 1.510 . S
C63 H61 0.959 . S
C63 H62 0.961 . S
C63 H64 0.960 . S
H64 C63 0.960 . S
H65 N45 0.862 . S
O66 Co34 1.920 . S
O66 C39 1.289 . S
C67 O59 1.258 . S
C67 O60 1.266 . S
Co68 O71 1.970 . S
Co68 N85 1.989 . S
Co68 O93 1.967 . S
Co68 O100 1.920 . S
Co69 O72 1.966 . S
Co69 N78 2.022 . S
Co69 N86 1.993 . S
Co69 O94 1.941 . S
C70 O71 1.258 . S
C70 O72 1.263 . S
O71 Co68 1.970 . S
O71 C70 1.258 . S
O72 Co69 1.966 . S
O72 C70 1.263 . S
C73 O74 1.235 . S
C73 O100 1.289 . S
O74 C73 1.235 . S
C75 C77 1.400 . S
C75 N78 1.351 . S
C75 C80 1.501 . S
C76 C77 1.387 . S
C76 N79 1.341 . S
C77 C75 1.400 . S
C77 C76 1.387 . S
N78 Co69 2.022 . S
N78 C75 1.351 . S
N78 N79 1.365 . S
N79 C76 1.341 . S
N79 N78 1.365 . S
N79 H99 0.862 . S
C80 C75 1.501 . S
C80 H81 0.961 . S
C80 H82 0.961 1_655 S
C80 H83 0.960 . S
H81 C80 0.961 . S
H82 C80 0.961 1_455 S
H83 C80 0.960 . S
C84 N85 1.342 . S
C84 C88 1.401 . S
C84 C89 1.499 . S
N85 Co68 1.989 . S
N85 C84 1.342 . S
N85 N86 1.388 . S
N86 Co69 1.993 . S
N86 N85 1.388 . S
N86 C87 1.346 . S
C87 N86 1.346 . S
C87 C88 1.396 . S
C87 C97 1.510 . S
C88 C84 1.401 . S
C88 C87 1.396 . S
C89 C84 1.499 . S
C89 H90 0.959 . S
C89 H91 0.960 . S
C89 H92 0.961 . S
H90 C89 0.959 . S
H91 C89 0.960 . S
H92 C89 0.961 . S
O93 Co68 1.967 . S
O93 C101 1.258 . S
O94 Co69 1.941 . S
O94 C101 1.266 . S
H95 C97 0.959 . S
H96 C97 0.961 1_455 S
C97 C87 1.510 . S
C97 H95 0.959 . S
C97 H96 0.961 1_655 S
C97 H98 0.960 . S
H98 C97 0.960 . S
H99 N79 0.862 . S
O100 Co68 1.920 . S
O100 C73 1.289 . S
C101 O93 1.258 . S
C101 O94 1.266 . S
Co102 O105 1.970 . S
Co102 N119 1.989 . S
Co102 O127 1.967 . S
Co102 O134 1.920 . S
Co103 O106 1.966 . S
Co103 N112 2.022 . S
Co103 N120 1.993 . S
Co103 O128 1.941 . S
C104 O105 1.258 . S
C104 O106 1.263 . S
O105 Co102 1.970 . S
O105 C104 1.258 . S
O106 Co103 1.966 . S
O106 C104 1.263 . S
C107 O108 1.235 . S
C107 O134 1.289 . S
O108 C107 1.235 . S
C109 C111 1.400 . S
C109 N112 1.351 . S
C109 C114 1.501 . S
C110 C111 1.387 . S
C110 N113 1.341 . S
C111 C109 1.400 . S
C111 C110 1.387 . S
N112 Co103 2.022 . S
N112 C109 1.351 . S
N112 N113 1.365 . S
N113 C110 1.341 . S
N113 N112 1.365 . S
N113 H133 0.862 . S
C114 C109 1.501 . S
C114 H115 0.961 . S
C114 H116 0.961 1_565 S
C114 H117 0.960 . S
H115 C114 0.961 . S
H116 C114 0.961 1_545 S
H117 C114 0.960 . S
C118 N119 1.342 . S
C118 C122 1.401 . S
C118 C123 1.499 . S
N119 Co102 1.989 . S
N119 C118 1.342 . S
N119 N120 1.388 . S
N120 Co103 1.993 . S
N120 N119 1.388 . S
N120 C121 1.346 . S
C121 N120 1.346 . S
C121 C122 1.396 . S
C121 C131 1.510 . S
C122 C118 1.401 . S
C122 C121 1.396 . S
C123 C118 1.499 . S
C123 H124 0.959 . S
C123 H125 0.960 . S
C123 H126 0.961 . S
H124 C123 0.959 . S
H125 C123 0.960 . S
H126 C123 0.961 . S
O127 Co102 1.967 . S
O127 C135 1.258 . S
O128 Co103 1.941 . S
O128 C135 1.266 . S
H129 C131 0.959 . S
H130 C131 0.961 1_545 S
C131 C121 1.510 . S
C131 H129 0.959 . S
C131 H130 0.961 1_565 S
C131 H132 0.960 . S
H132 C131 0.960 . S
H133 N113 0.862 . S
O134 Co102 1.920 . S
O134 C107 1.289 . S
C135 O127 1.258 . S
C135 O128 1.266 . S
Co136 O139 1.970 . S
Co136 N153 1.989 . S
Co136 O161 1.967 . S
Co136 O168 1.920 . S
Co137 O140 1.966 . S
Co137 N146 2.022 . S
Co137 N154 1.993 . S
Co137 O162 1.941 . S
C138 O139 1.258 . S
C138 O140 1.263 . S
O139 Co136 1.970 . S
O139 C138 1.258 . S
O140 Co137 1.966 . S
O140 C138 1.263 . S
C141 O142 1.235 . S
C141 O168 1.289 . S
O142 C141 1.235 . S
C143 C145 1.400 . S
C143 N146 1.351 . S
C143 C148 1.501 . S
C144 C145 1.387 . S
C144 N147 1.341 . S
C145 C143 1.400 . S
C145 C144 1.387 . S
N146 Co137 2.022 . S
N146 C143 1.351 . S
N146 N147 1.365 . S
N147 C144 1.341 . S
N147 N146 1.365 . S
N147 H167 0.862 . S
C148 C143 1.501 . S
C148 H149 0.961 . S
C148 H150 0.961 . S
C148 H151 0.960 . S
H149 C148 0.961 . S
H150 C148 0.961 . S
H151 C148 0.960 . S
C152 N153 1.342 . S
C152 C156 1.401 . S
C152 C157 1.499 . S
N153 Co136 1.989 . S
N153 C152 1.342 . S
N153 N154 1.388 . S
N154 Co137 1.993 . S
N154 N153 1.388 . S
N154 C155 1.346 . S
C155 N154 1.346 . S
C155 C156 1.396 . S
C155 C165 1.510 . S
C156 C152 1.401 . S
C156 C155 1.396 . S
C157 C152 1.499 . S
C157 H158 0.959 . S
C157 H159 0.960 . S
C157 H160 0.961 . S
H158 C157 0.959 . S
H159 C157 0.960 . S
H160 C157 0.961 . S
O161 Co136 1.967 . S
O161 C169 1.258 . S
O162 Co137 1.941 . S
O162 C169 1.266 . S
H163 C165 0.959 . S
H164 C165 0.961 . S
C165 C155 1.510 . S
C165 H163 0.959 . S
C165 H164 0.961 . S
C165 H166 0.960 . S
H166 C165 0.960 . S
H167 N147 0.862 . S
O168 Co136 1.920 . S
O168 C141 1.289 . S
C169 O161 1.258 . S
C169 O162 1.266 . S
Co170 O173 1.970 . S
Co170 N187 1.989 . S
Co170 O195 1.967 . S
Co170 O202 1.920 . S
Co171 O174 1.966 . S
Co171 N180 2.022 . S
Co171 N188 1.993 . S
Co171 O196 1.941 . S
C172 O173 1.258 . S
C172 O174 1.263 . S
O173 Co170 1.970 . S
O173 C172 1.258 . S
O174 Co171 1.966 . S
O174 C172 1.263 . S
C175 O176 1.235 . S
C175 O202 1.289 . S
O176 C175 1.235 . S
C177 C179 1.400 . S
C177 N180 1.351 . S
C177 C182 1.501 . S
C178 C179 1.387 . S
C178 N181 1.341 . S
C179 C177 1.400 . S
C179 C178 1.387 . S
N180 Co171 2.022 . S
N180 C177 1.351 . S
N180 N181 1.365 . S
N181 C178 1.341 . S
N181 N180 1.365 . S
N181 H201 0.862 . S
C182 C177 1.501 . S
C182 H183 0.961 . S
C182 H184 0.961 1_455 S
C182 H185 0.960 . S
H183 C182 0.961 . S
H184 C182 0.961 1_655 S
H185 C182 0.960 . S
C186 N187 1.342 . S
C186 C190 1.401 . S
C186 C191 1.499 . S
N187 Co170 1.989 . S
N187 C186 1.342 . S
N187 N188 1.388 . S
N188 Co171 1.993 . S
N188 N187 1.388 . S
N188 C189 1.346 . S
C189 N188 1.346 . S
C189 C190 1.396 . S
C189 C199 1.510 . S
C190 C186 1.401 . S
C190 C189 1.396 . S
C191 C186 1.499 . S
C191 H192 0.959 . S
C191 H193 0.960 . S
C191 H194 0.961 . S
H192 C191 0.959 . S
H193 C191 0.960 . S
H194 C191 0.961 . S
O195 Co170 1.967 . S
O195 C203 1.258 . S
O196 Co171 1.941 . S
O196 C203 1.266 . S
H197 C199 0.959 . S
H198 C199 0.961 1_655 S
C199 C189 1.510 . S
C199 H197 0.959 . S
C199 H198 0.961 1_455 S
C199 H200 0.960 . S
H200 C199 0.960 . S
H201 N181 0.862 . S
O202 Co170 1.920 . S
O202 C175 1.289 . S
C203 O195 1.258 . S
C203 O196 1.266 . S
Co204 O207 1.970 . S
Co204 N221 1.989 . S
Co204 O229 1.967 . S
Co204 O236 1.920 . S
Co205 O208 1.966 . S
Co205 N214 2.022 . S
Co205 N222 1.993 . S
Co205 O230 1.941 . S
C206 O207 1.258 . S
C206 O208 1.263 . S
O207 Co204 1.970 . S
O207 C206 1.258 . S
O208 Co205 1.966 . S
O208 C206 1.263 . S
C209 O210 1.235 . S
C209 O236 1.289 . S
O210 C209 1.235 . S
C211 C213 1.400 . S
C211 N214 1.351 . S
C211 C216 1.501 . S
C212 C213 1.387 . S
C212 N215 1.341 . S
C213 C211 1.400 . S
C213 C212 1.387 . S
N214 Co205 2.022 . S
N214 C211 1.351 . S
N214 N215 1.365 . S
N215 C212 1.341 . S
N215 N214 1.365 . S
N215 H235 0.862 . S
C216 C211 1.501 . S
C216 H217 0.961 . S
C216 H218 0.961 1_655 S
C216 H219 0.960 . S
H217 C216 0.961 . S
H218 C216 0.961 1_455 S
H219 C216 0.960 . S
C220 N221 1.342 . S
C220 C224 1.401 . S
C220 C225 1.499 . S
N221 Co204 1.989 . S
N221 C220 1.342 . S
N221 N222 1.388 . S
N222 Co205 1.993 . S
N222 N221 1.388 . S
N222 C223 1.346 . S
C223 N222 1.346 . S
C223 C224 1.396 . S
C223 C233 1.510 . S
C224 C220 1.401 . S
C224 C223 1.396 . S
C225 C220 1.499 . S
C225 H226 0.959 . S
C225 H227 0.960 . S
C225 H228 0.961 . S
H226 C225 0.959 . S
H227 C225 0.960 . S
H228 C225 0.961 . S
O229 Co204 1.967 . S
O229 C237 1.258 . S
O230 Co205 1.941 . S
O230 C237 1.266 . S
H231 C233 0.959 . S
H232 C233 0.961 1_455 S
C233 C223 1.510 . S
C233 H231 0.959 . S
C233 H232 0.961 1_655 S
C233 H234 0.960 . S
H234 C233 0.960 . S
H235 N215 0.862 . S
O236 Co204 1.920 . S
O236 C209 1.289 . S
C237 O229 1.258 . S
C237 O230 1.266 . S
Co238 O241 1.970 . S
Co238 N255 1.989 . S
Co238 O263 1.967 . S
Co238 O270 1.920 . S
Co239 O242 1.966 . S
Co239 N248 2.022 . S
Co239 N256 1.993 . S
Co239 O264 1.941 . S
C240 O241 1.258 . S
C240 O242 1.263 . S
O241 Co238 1.970 . S
O241 C240 1.258 . S
O242 Co239 1.966 . S
O242 C240 1.263 . S
C243 O244 1.235 . S
C243 O270 1.289 . S
O244 C243 1.235 . S
C245 C247 1.400 . S
C245 N248 1.351 . S
C245 C250 1.501 . S
C246 C247 1.387 . S
C246 N249 1.341 . S
C247 C245 1.400 . S
C247 C246 1.387 . S
N248 Co239 2.022 . S
N248 C245 1.351 . S
N248 N249 1.365 . S
N249 C246 1.341 . S
N249 N248 1.365 . S
N249 H269 0.862 . S
C250 C245 1.501 . S
C250 H251 0.961 . S
C250 H252 0.961 1_565 S
C250 H253 0.960 . S
H251 C250 0.961 . S
H252 C250 0.961 1_545 S
H253 C250 0.960 . S
C254 N255 1.342 . S
C254 C258 1.401 . S
C254 C259 1.499 . S
N255 Co238 1.989 . S
N255 C254 1.342 . S
N255 N256 1.388 . S
N256 Co239 1.993 . S
N256 N255 1.388 . S
N256 C257 1.346 . S
C257 N256 1.346 . S
C257 C258 1.396 . S
C257 C267 1.510 . S
C258 C254 1.401 . S
C258 C257 1.396 . S
C259 C254 1.499 . S
C259 H260 0.959 . S
C259 H261 0.960 . S
C259 H262 0.961 . S
H260 C259 0.959 . S
H261 C259 0.960 . S
H262 C259 0.961 . S
O263 Co238 1.967 . S
O263 C271 1.258 . S
O264 Co239 1.941 . S
O264 C271 1.266 . S
H265 C267 0.959 . S
H266 C267 0.961 1_545 S
C267 C257 1.510 . S
C267 H265 0.959 . S
C267 H266 0.961 1_565 S
C267 H268 0.960 . S
H268 C267 0.960 . S
H269 N249 0.862 . S
O270 Co238 1.920 . S
O270 C243 1.289 . S
C271 O263 1.258 . S
C271 O264 1.266 . S
Co272 O275 1.970 . S
Co272 N289 1.989 . S
Co272 O297 1.967 . S
Co272 O304 1.920 . S
Co273 O276 1.966 . S
Co273 N282 2.022 . S
Co273 N290 1.993 . S
Co273 O298 1.941 . S
C274 O275 1.258 . S
C274 O276 1.263 . S
O275 Co272 1.970 . S
O275 C274 1.258 . S
O276 Co273 1.966 . S
O276 C274 1.263 . S
C277 O278 1.235 . S
C277 O304 1.289 . S
O278 C277 1.235 . S
C279 C281 1.400 . S
C279 N282 1.351 . S
C279 C284 1.501 . S
C280 C281 1.387 . S
C280 N283 1.341 . S
C281 C279 1.400 . S
C281 C280 1.387 . S
N282 Co273 2.022 . S
N282 C279 1.351 . S
N282 N283 1.365 . S
N283 C280 1.341 . S
N283 N282 1.365 . S
N283 H303 0.862 . S
C284 C279 1.501 . S
C284 H285 0.961 . S
C284 H286 0.961 . S
C284 H287 0.960 . S
H285 C284 0.961 . S
H286 C284 0.961 . S
H287 C284 0.960 . S
C288 N289 1.342 . S
C288 C292 1.401 . S
C288 C293 1.499 . S
N289 Co272 1.989 . S
N289 C288 1.342 . S
N289 N290 1.388 . S
N290 Co273 1.993 . S
N290 N289 1.388 . S
N290 C291 1.346 . S
C291 N290 1.346 . S
C291 C292 1.396 . S
C291 C301 1.510 . S
C292 C288 1.401 . S
C292 C291 1.396 . S
C293 C288 1.499 . S
C293 H294 0.959 . S
C293 H295 0.960 . S
C293 H296 0.961 . S
H294 C293 0.959 . S
H295 C293 0.960 . S
H296 C293 0.961 . S
O297 Co272 1.967 . S
O297 C305 1.258 . S
O298 Co273 1.941 . S
O298 C305 1.266 . S
H299 C301 0.959 . S
H300 C301 0.961 . S
C301 C291 1.510 . S
C301 H299 0.959 . S
C301 H300 0.961 . S
C301 H302 0.960 . S
H302 C301 0.960 . S
H303 N283 0.862 . S
O304 Co272 1.920 . S
O304 C277 1.289 . S
C305 O297 1.258 . S
C305 O298 1.266 . S
Co306 O309 1.970 . S
Co306 N323 1.989 . S
Co306 O331 1.967 . S
Co306 O338 1.920 . S
Co307 O310 1.966 . S
Co307 N316 2.022 . S
Co307 N324 1.993 . S
Co307 O332 1.941 . S
C308 O309 1.258 . S
C308 O310 1.263 . S
O309 Co306 1.970 . S
O309 C308 1.258 . S
O310 Co307 1.966 . S
O310 C308 1.263 . S
C311 O312 1.235 . S
C311 O338 1.289 . S
O312 C311 1.235 . S
C313 C315 1.400 . S
C313 N316 1.351 . S
C313 C318 1.501 . S
C314 C315 1.387 . S
C314 N317 1.341 . S
C315 C313 1.400 . S
C315 C314 1.387 . S
N316 Co307 2.022 . S
N316 C313 1.351 . S
N316 N317 1.365 . S
N317 C314 1.341 . S
N317 N316 1.365 . S
N317 H337 0.862 . S
C318 C313 1.501 . S
C318 H319 0.961 . S
C318 H320 0.961 1_455 S
C318 H321 0.960 . S
H319 C318 0.961 . S
H320 C318 0.961 1_655 S
H321 C318 0.960 . S
C322 N323 1.342 . S
C322 C326 1.401 . S
C322 C327 1.499 . S
N323 Co306 1.989 . S
N323 C322 1.342 . S
N323 N324 1.388 . S
N324 Co307 1.993 . S
N324 N323 1.388 . S
N324 C325 1.346 . S
C325 N324 1.346 . S
C325 C326 1.396 . S
C325 C335 1.510 . S
C326 C322 1.401 . S
C326 C325 1.396 . S
C327 C322 1.499 . S
C327 H328 0.959 . S
C327 H329 0.960 . S
C327 H330 0.961 . S
H328 C327 0.959 . S
H329 C327 0.960 . S
H330 C327 0.961 . S
O331 Co306 1.967 . S
O331 C339 1.258 . S
O332 Co307 1.941 . S
O332 C339 1.266 . S
H333 C335 0.959 . S
H334 C335 0.961 1_655 S
C335 C325 1.510 . S
C335 H333 0.959 . S
C335 H334 0.961 1_455 S
C335 H336 0.960 . S
H336 C335 0.960 . S
H337 N317 0.862 . S
O338 Co306 1.920 . S
O338 C311 1.289 . S
C339 O331 1.258 . S
C339 O332 1.266 . S
Co340 O343 1.970 . S
Co340 N357 1.989 . S
Co340 O365 1.967 . S
Co340 O372 1.920 . S
Co341 O344 1.966 . S
Co341 N350 2.022 . S
Co341 N358 1.993 . S
Co341 O366 1.941 . S
C342 O343 1.258 . S
C342 O344 1.263 . S
O343 Co340 1.970 . S
O343 C342 1.258 . S
O344 Co341 1.966 . S
O344 C342 1.263 . S
C345 O346 1.235 . S
C345 O372 1.289 . S
O346 C345 1.235 . S
C347 C349 1.400 . S
C347 N350 1.351 . S
C347 C352 1.501 . S
C348 C349 1.387 . S
C348 N351 1.341 . S
C349 C347 1.400 . S
C349 C348 1.387 . S
N350 Co341 2.022 . S
N350 C347 1.351 . S
N350 N351 1.365 . S
N351 C348 1.341 . S
N351 N350 1.365 . S
N351 H371 0.862 . S
C352 C347 1.501 . S
C352 H353 0.961 . S
C352 H354 0.961 1_545 S
C352 H355 0.960 . S
H353 C352 0.961 . S
H354 C352 0.961 1_565 S
H355 C352 0.960 . S
C356 N357 1.342 . S
C356 C360 1.401 . S
C356 C361 1.499 . S
N357 Co340 1.989 . S
N357 C356 1.342 . S
N357 N358 1.388 . S
N358 Co341 1.993 . S
N358 N357 1.388 . S
N358 C359 1.346 . S
C359 N358 1.346 . S
C359 C360 1.396 . S
C359 C369 1.510 . S
C360 C356 1.401 . S
C360 C359 1.396 . S
C361 C356 1.499 . S
C361 H362 0.959 . S
C361 H363 0.960 . S
C361 H364 0.961 . S
H362 C361 0.959 . S
H363 C361 0.960 . S
H364 C361 0.961 . S
O365 Co340 1.967 . S
O365 C373 1.258 . S
O366 Co341 1.941 . S
O366 C373 1.266 . S
H367 C369 0.959 . S
H368 C369 0.961 1_565 S
C369 C359 1.510 . S
C369 H367 0.959 . S
C369 H368 0.961 1_545 S
C369 H370 0.960 . S
H370 C369 0.960 . S
H371 N351 0.862 . S
O372 Co340 1.920 . S
O372 C345 1.289 . S
C373 O365 1.258 . S
C373 O366 1.266 . S
Co374 O377 1.970 . S
Co374 N391 1.989 . S
Co374 O399 1.967 . S
Co374 O406 1.920 . S
Co375 O378 1.966 . S
Co375 N384 2.022 . S
Co375 N392 1.993 . S
Co375 O400 1.941 . S
C376 O377 1.258 . S
C376 O378 1.263 . S
O377 Co374 1.970 . S
O377 C376 1.258 . S
O378 Co375 1.966 . S
O378 C376 1.263 . S
C379 O380 1.235 . S
C379 O406 1.289 . S
O380 C379 1.235 . S
C381 C383 1.400 . S
C381 N384 1.351 . S
C381 C386 1.501 . S
C382 C383 1.387 . S
C382 N385 1.341 . S
C383 C381 1.400 . S
C383 C382 1.387 . S
N384 Co375 2.022 . S
N384 C381 1.351 . S
N384 N385 1.365 . S
N385 C382 1.341 . S
N385 N384 1.365 . S
N385 H405 0.862 . S
C386 C381 1.501 . S
C386 H387 0.961 . S
C386 H388 0.961 . S
C386 H389 0.960 . S
H387 C386 0.961 . S
H388 C386 0.961 . S
H389 C386 0.960 . S
C390 N391 1.342 . S
C390 C394 1.401 . S
C390 C395 1.499 . S
N391 Co374 1.989 . S
N391 C390 1.342 . S
N391 N392 1.388 . S
N392 Co375 1.993 . S
N392 N391 1.388 . S
N392 C393 1.346 . S
C393 N392 1.346 . S
C393 C394 1.396 . S
C393 C403 1.510 . S
C394 C390 1.401 . S
C394 C393 1.396 . S
C395 C390 1.499 . S
C395 H396 0.959 . S
C395 H397 0.960 . S
C395 H398 0.961 . S
H396 C395 0.959 . S
H397 C395 0.960 . S
H398 C395 0.961 . S
O399 Co374 1.967 . S
O399 C407 1.258 . S
O400 Co375 1.941 . S
O400 C407 1.266 . S
H401 C403 0.959 . S
H402 C403 0.961 . S
C403 C393 1.510 . S
C403 H401 0.959 . S
C403 H402 0.961 . S
C403 H404 0.960 . S
H404 C403 0.960 . S
H405 N385 0.862 . S
O406 Co374 1.920 . S
O406 C379 1.289 . S
C407 O399 1.258 . S
C407 O400 1.266 . S
C408 C409 1.387 . S
C408 H412 0.950 . S
C408 C417 1.390 1_544 S
C409 C408 1.387 . S
C409 C411 1.387 . S
H410 C417 0.950 . S
C411 C409 1.387 . S
C411 C413 1.390 1_544 S
C411 H415 0.950 . S
H412 C408 0.950 . S
C413 C411 1.390 1_566 S
C413 C414 1.387 . S
C413 H416 0.950 . S
C414 C413 1.387 . S
C414 C417 1.387 . S
H415 C411 0.950 . S
H416 C413 0.950 . S
C417 C408 1.390 1_566 S
C417 H410 0.950 . S
C417 C414 1.387 . S
C418 C419 1.387 . S
C418 H422 0.950 . S
C418 C427 1.390 . S
C419 C418 1.387 . S
C419 C421 1.387 . S
H420 C427 0.950 . S
C421 C419 1.387 . S
C421 C423 1.390 . S
C421 H425 0.950 . S
H422 C418 0.950 . S
C423 C421 1.390 . S
C423 C424 1.387 . S
C423 H426 0.950 . S
C424 C423 1.387 . S
C424 C427 1.387 . S
H425 C421 0.950 . S
H426 C423 0.950 . S
C427 C418 1.390 . S
C427 H420 0.950 . S
C427 C424 1.387 . S
C428 C429 1.387 1_455 S
C428 H432 0.950 . S
C428 C437 1.390 . S
C429 C428 1.387 1_655 S
C429 C431 1.387 . S
H430 C437 0.950 . S
C431 C429 1.387 . S
C431 C433 1.390 . S
C431 H435 0.950 . S
H432 C428 0.950 . S
C433 C431 1.390 . S
C433 C434 1.387 1_655 S
C433 H436 0.950 . S
C434 C433 1.387 1_455 S
C434 C437 1.387 . S
H435 C431 0.950 . S
H436 C433 0.950 . S
C437 C428 1.390 . S
C437 H430 0.950 . S
C437 C434 1.387 . S
C438 C439 1.387 . S
C438 H442 0.950 . S
C438 C447 1.390 1_546 S
C439 C438 1.387 . S
C439 C441 1.387 . S
H440 C447 0.950 . S
C441 C439 1.387 . S
C441 C443 1.390 1_546 S
C441 H445 0.950 . S
H442 C438 0.950 . S
C443 C441 1.390 1_564 S
C443 C444 1.387 . S
C443 H446 0.950 . S
C444 C443 1.387 . S
C444 C447 1.387 . S
H445 C441 0.950 . S
H446 C443 0.950 . S
C447 C438 1.390 1_564 S
C447 H440 0.950 . S
C447 C444 1.387 . S
C448 C449 1.387 . S
C448 H452 0.950 . S
C448 C457 1.390 . S
C449 C448 1.387 . S
C449 C451 1.387 . S
H450 C457 0.950 . S
C451 C449 1.387 . S
C451 C453 1.390 . S
C451 H455 0.950 . S
H452 C448 0.950 . S
C453 C451 1.390 . S
C453 C454 1.387 . S
C453 H456 0.950 . S
C454 C453 1.387 . S
C454 C457 1.387 . S
H455 C451 0.950 . S
H456 C453 0.950 . S
C457 C448 1.390 . S
C457 H450 0.950 . S
C457 C454 1.387 . S
C458 C459 1.387 1_655 S
C458 H462 0.950 . S
C458 C467 1.390 . S
C459 C458 1.387 1_455 S
C459 C461 1.387 . S
H460 C467 0.950 . S
C461 C459 1.387 . S
C461 C463 1.390 . S
C461 H465 0.950 . S
H462 C458 0.950 . S
C463 C461 1.390 . S
C463 C464 1.387 1_455 S
C463 H466 0.950 . S
C464 C463 1.387 1_655 S
C464 C467 1.387 . S
H465 C461 0.950 . S
H466 C463 0.950 . S
C467 C458 1.390 . S
C467 H460 0.950 . S
C467 C464 1.387 . S
C468 C469 1.387 . S
C468 H472 0.950 . S
C468 C477 1.390 1_565 S
C469 C468 1.387 . S
C469 C471 1.387 . S
H470 C477 0.950 . S
C471 C469 1.387 . S
C471 C473 1.390 1_565 S
C471 H475 0.950 . S
H472 C468 0.950 . S
C473 C471 1.390 1_545 S
C473 C474 1.387 . S
C473 H476 0.950 . S
C474 C473 1.387 . S
C474 C477 1.387 . S
H475 C471 0.950 . S
H476 C473 0.950 . S
C477 C468 1.390 1_545 S
C477 H470 0.950 . S
C477 C474 1.387 . S
C478 C479 1.387 . S
C478 H482 0.950 . S
C478 C487 1.390 . S
C479 C478 1.387 . S
C479 C481 1.387 . S
H480 C487 0.950 . S
C481 C479 1.387 . S
C481 C483 1.390 . S
C481 H485 0.950 . S
H482 C478 0.950 . S
C483 C481 1.390 . S
C483 C484 1.387 . S
C483 H486 0.950 . S
C484 C483 1.387 . S
C484 C487 1.387 . S
H485 C481 0.950 . S
H486 C483 0.950 . S
C487 C478 1.390 . S
C487 H480 0.950 . S
C487 C484 1.387 . S
C488 C489 1.387 . S
C488 H492 0.950 . S
C488 C497 1.390 1_455 S
C489 C488 1.387 . S
C489 C491 1.387 . S
H490 C497 0.950 . S
C491 C489 1.387 . S
C491 C493 1.390 1_455 S
C491 H495 0.950 . S
H492 C488 0.950 . S
C493 C491 1.390 1_655 S
C493 C494 1.387 . S
C493 H496 0.950 . S
C494 C493 1.387 . S
C494 C497 1.387 . S
H495 C491 0.950 . S
H496 C493 0.950 . S
C497 C488 1.390 1_655 S
C497 H490 0.950 . S
C497 C494 1.387 . S
C498 C499 1.387 . S
C498 H502 0.950 . S
C498 C507 1.390 1_455 S
C499 C498 1.387 . S
C499 C501 1.387 . S
H500 C507 0.950 . S
C501 C499 1.387 . S
C501 C503 1.390 1_455 S
C501 H505 0.950 . S
H502 C498 0.950 . S
C503 C501 1.390 1_655 S
C503 C504 1.387 . S
C503 H506 0.950 . S
C504 C503 1.387 . S
C504 C507 1.387 . S
H505 C501 0.950 . S
H506 C503 0.950 . S
C507 C498 1.390 1_655 S
C507 H500 0.950 . S
C507 C504 1.387 . S
C508 C509 1.387 . S
C508 H512 0.950 . S
C508 C517 1.390 1_545 S
C509 C508 1.387 . S
C509 C511 1.387 . S
H510 C517 0.950 . S
C511 C509 1.387 . S
C511 C513 1.390 1_545 S
C511 H515 0.950 . S
H512 C508 0.950 . S
C513 C511 1.390 1_565 S
C513 C514 1.387 . S
C513 H516 0.950 . S
C514 C513 1.387 . S
C514 C517 1.387 . S
H515 C511 0.950 . S
H516 C513 0.950 . S
C517 C508 1.390 1_565 S
C517 H510 0.950 . S
C517 C514 1.387 . S
C518 C519 1.387 . S
C518 H522 0.950 . S
C518 C527 1.390 . S
C519 C518 1.387 . S
C519 C521 1.387 . S
H520 C527 0.950 . S
C521 C519 1.387 . S
C521 C523 1.390 . S
C521 H525 0.950 . S
H522 C518 0.950 . S
C523 C521 1.390 . S
C523 C524 1.387 . S
C523 H526 0.950 . S
C524 C523 1.387 . S
C524 C527 1.387 . S
H525 C521 0.950 . S
H526 C523 0.950 . S
C527 C518 1.390 . S
C527 H520 0.950 . S
C527 C524 1.387 . S
C528 C529 1.387 . S
C528 H532 0.950 . S
C528 C537 1.390 . S
C529 C528 1.387 . S
C529 C531 1.387 . S
H530 C537 0.950 . S
C531 C529 1.387 . S
C531 C533 1.390 . S
C531 H535 0.950 . S
H532 C528 0.950 . S
C533 C531 1.390 . S
C533 C534 1.387 . S
C533 H536 0.950 . S
C534 C533 1.387 . S
C534 C537 1.387 . S
H535 C531 0.950 . S
H536 C533 0.950 . S
C537 C528 1.390 . S
C537 H530 0.950 . S
C537 C534 1.387 . S
C538 C539 1.387 . S
C538 H542 0.950 . S
C538 C547 1.390 . S
C539 C538 1.387 . S
C539 C541 1.387 . S
H540 C547 0.950 . S
C541 C539 1.387 . S
C541 C543 1.390 . S
C541 H545 0.950 . S
H542 C538 0.950 . S
C543 C541 1.390 . S
C543 C544 1.387 . S
C543 H546 0.950 . S
C544 C543 1.387 . S
C544 C547 1.387 . S
H545 C541 0.950 . S
H546 C543 0.950 . S
C547 C538 1.390 . S
C547 H540 0.950 . S
C547 C544 1.387 . S
C548 C549 1.387 . S
C548 H552 0.950 . S
C548 C557 1.390 . S
C549 C548 1.387 . S
C549 C551 1.387 . S
H550 C557 0.950 . S
C551 C549 1.387 . S
C551 C553 1.390 . S
C551 H555 0.950 . S
H552 C548 0.950 . S
C553 C551 1.390 . S
C553 C554 1.387 . S
C553 H556 0.950 . S
C554 C553 1.387 . S
C554 C557 1.387 . S
H555 C551 0.950 . S
H556 C553 0.950 . S
C557 C548 1.390 . S
C557 H550 0.950 . S
C557 C554 1.387 . S
C558 C559 1.387 . S
C558 H562 0.950 . S
C558 C567 1.390 . S
C559 C558 1.387 . S
C559 C561 1.387 . S
H560 C567 0.950 . S
C561 C559 1.387 . S
C561 C563 1.390 . S
C561 H565 0.950 . S
H562 C558 0.950 . S
C563 C561 1.390 . S
C563 C564 1.387 . S
C563 H566 0.950 . S
C564 C563 1.387 . S
C564 C567 1.387 . S
H565 C561 0.950 . S
H566 C563 0.950 . S
C567 C558 1.390 . S
C567 H560 0.950 . S
C567 C564 1.387 . S
C568 C569 1.387 . S
C568 H572 0.950 . S
C568 C577 1.390 . S
C569 C568 1.387 . S
C569 C571 1.387 . S
H570 C577 0.950 . S
C571 C569 1.387 . S
C571 C573 1.390 . S
C571 H575 0.950 . S
H572 C568 0.950 . S
C573 C571 1.390 . S
C573 C574 1.387 . S
C573 H576 0.950 . S
C574 C573 1.387 . S
C574 C577 1.387 . S
H575 C571 0.950 . S
H576 C573 0.950 . S
C577 C568 1.390 . S
C577 H570 0.950 . S
C577 C574 1.387 . S
C578 C579 1.387 . S
C578 H582 0.950 . S
C578 C587 1.390 . S
C579 C578 1.387 . S
C579 C581 1.387 . S
H580 C587 0.950 . S
C581 C579 1.387 . S
C581 C583 1.390 . S
C581 H585 0.950 . S
H582 C578 0.950 . S
C583 C581 1.390 . S
C583 C584 1.387 . S
C583 H586 0.950 . S
C584 C583 1.387 . S
C584 C587 1.387 . S
H585 C581 0.950 . S
H586 C583 0.950 . S
C587 C578 1.390 . S
C587 H580 0.950 . S
C587 C584 1.387 . S
C588 C589 1.387 . S
C588 H592 0.950 . S
C588 C597 1.390 . S
C589 C588 1.387 . S
C589 C591 1.387 . S
H590 C597 0.950 . S
C591 C589 1.387 . S
C591 C593 1.390 . S
C591 H595 0.950 . S
H592 C588 0.950 . S
C593 C591 1.390 . S
C593 C594 1.387 . S
C593 H596 0.950 . S
C594 C593 1.387 . S
C594 C597 1.387 . S
H595 C591 0.950 . S
H596 C593 0.950 . S
C597 C588 1.390 . S
C597 H590 0.950 . S
C597 C594 1.387 . S
C598 C599 1.387 . S
C598 H602 0.950 . S
C598 C607 1.390 1_455 S
C599 C598 1.387 . S
C599 C601 1.387 . S
H600 C607 0.950 . S
C601 C599 1.387 . S
C601 C603 1.390 1_455 S
C601 H605 0.950 . S
H602 C598 0.950 . S
C603 C601 1.390 1_655 S
C603 C604 1.387 . S
C603 H606 0.950 . S
C604 C603 1.387 . S
C604 C607 1.387 . S
H605 C601 0.950 . S
H606 C603 0.950 . S
C607 C598 1.390 1_655 S
C607 H600 0.950 . S
C607 C604 1.387 . S
C608 C609 1.387 . S
C608 H612 0.950 . S
C608 C617 1.390 1_565 S
C609 C608 1.387 . S
C609 C611 1.387 . S
H610 C617 0.950 . S
C611 C609 1.387 . S
C611 C613 1.390 1_565 S
C611 H615 0.950 . S
H612 C608 0.950 . S
C613 C611 1.390 1_545 S
C613 C614 1.387 . S
C613 H616 0.950 . S
C614 C613 1.387 . S
C614 C617 1.387 . S
H615 C611 0.950 . S
H616 C613 0.950 . S
C617 C608 1.390 1_545 S
C617 H610 0.950 . S
C617 C614 1.387 . S
C618 C619 1.387 . S
C618 H622 0.950 . S
C618 C627 1.390 . S
C619 C618 1.387 . S
C619 C621 1.387 . S
H620 C627 0.950 . S
C621 C619 1.387 . S
C621 C623 1.390 . S
C621 H625 0.950 . S
H622 C618 0.950 . S
C623 C621 1.390 . S
C623 C624 1.387 . S
C623 H626 0.950 . S
C624 C623 1.387 . S
C624 C627 1.387 . S
H625 C621 0.950 . S
H626 C623 0.950 . S
C627 C618 1.390 . S
C627 H620 0.950 . S
C627 C624 1.387 . S
C628 C629 1.387 . S
C628 H632 0.950 . S
C628 C637 1.390 1_455 S
C629 C628 1.387 . S
C629 C631 1.387 . S
H630 C637 0.950 . S
C631 C629 1.387 . S
C631 C633 1.390 1_455 S
C631 H635 0.950 . S
H632 C628 0.950 . S
C633 C631 1.390 1_655 S
C633 C634 1.387 . S
C633 H636 0.950 . S
C634 C633 1.387 . S
C634 C637 1.387 . S
H635 C631 0.950 . S
H636 C633 0.950 . S
C637 C628 1.390 1_655 S
C637 H630 0.950 . S
C637 C634 1.387 . S
C638 C639 1.387 . S
C638 H642 0.950 . S
C638 C647 1.390 1_565 S
C639 C638 1.387 . S
C639 C641 1.387 . S
H640 C647 0.950 . S
C641 C639 1.387 . S
C641 C643 1.390 1_565 S
C641 H645 0.950 . S
H642 C638 0.950 . S
C643 C641 1.390 1_545 S
C643 C644 1.387 . S
C643 H646 0.950 . S
C644 C643 1.387 . S
C644 C647 1.387 . S
H645 C641 0.950 . S
H646 C643 0.950 . S
C647 C638 1.390 1_545 S
C647 H640 0.950 . S
C647 C644 1.387 . S
C648 C649 1.387 . S
C648 H652 0.950 . S
C648 C657 1.390 1_445 S
C649 C648 1.387 . S
C649 C651 1.387 . S
H650 C657 0.950 . S
C651 C649 1.387 . S
C651 C653 1.390 1_445 S
C651 H655 0.950 . S
H652 C648 0.950 . S
C653 C651 1.390 1_665 S
C653 C654 1.387 . S
C653 H656 0.950 . S
C654 C653 1.387 . S
C654 C657 1.387 . S
H655 C651 0.950 . S
H656 C653 0.950 . S
C657 C648 1.390 1_665 S
C657 H650 0.950 . S
C657 C654 1.387 . S
C658 C659 1.387 . S
C658 H662 0.950 . S
C658 C667 1.390 1_445 S
C659 C658 1.387 . S
C659 C661 1.387 . S
H660 C667 0.950 . S
C661 C659 1.387 . S
C661 C663 1.390 1_445 S
C661 H665 0.950 . S
H662 C658 0.950 . S
C663 C661 1.390 1_665 S
C663 C664 1.387 . S
C663 H666 0.950 . S
C664 C663 1.387 . S
C664 C667 1.387 . S
H665 C661 0.950 . S
H666 C663 0.950 . S
C667 C658 1.390 1_665 S
C667 H660 0.950 . S
C667 C664 1.387 . S
C668 C669 1.387 . S
C668 H672 0.950 . S
C668 C677 1.390 1_645 S
C669 C668 1.387 . S
C669 C671 1.387 . S
H670 C677 0.950 . S
C671 C669 1.387 . S
C671 C673 1.390 1_645 S
C671 H675 0.950 . S
H672 C668 0.950 . S
C673 C671 1.390 1_465 S
C673 C674 1.387 . S
C673 H676 0.950 . S
C674 C673 1.387 . S
C674 C677 1.387 . S
H675 C671 0.950 . S
H676 C673 0.950 . S
C677 C668 1.390 1_465 S
C677 H670 0.950 . S
C677 C674 1.387 . S
C678 C679 1.387 . S
C678 H682 0.950 . S
C678 C687 1.390 1_665 S
C679 C678 1.387 . S
C679 C681 1.387 . S
H680 C687 0.950 . S
C681 C679 1.387 . S
C681 C683 1.390 1_665 S
C681 H685 0.950 . S
H682 C678 0.950 . S
C683 C681 1.390 1_445 S
C683 C684 1.387 . S
C683 H686 0.950 . S
C684 C683 1.387 . S
C684 C687 1.387 . S
H685 C681 0.950 . S
H686 C683 0.950 . S
C687 C678 1.390 1_445 S
C687 H680 0.950 . S
C687 C684 1.387 . S
C688 C689 1.387 . S
C688 H692 0.950 . S
C688 C697 1.390 1_645 S
C689 C688 1.387 . S
C689 C691 1.387 . S
H690 C697 0.950 . S
C691 C689 1.387 . S
C691 C693 1.390 1_645 S
C691 H695 0.950 . S
H692 C688 0.950 . S
C693 C691 1.390 1_465 S
C693 C694 1.387 . S
C693 H696 0.950 . S
C694 C693 1.387 . S
C694 C697 1.387 . S
H695 C691 0.950 . S
H696 C693 0.950 . S
C697 C688 1.390 1_465 S
C697 H690 0.950 . S
C697 C694 1.387 . S
C698 C699 1.387 . S
C698 H702 0.950 . S
C698 C707 1.390 1_445 S
C699 C698 1.387 . S
C699 C701 1.387 . S
H700 C707 0.950 . S
C701 C699 1.387 . S
C701 C703 1.390 1_445 S
C701 H705 0.950 . S
H702 C698 0.950 . S
C703 C701 1.390 1_665 S
C703 C704 1.387 . S
C703 H706 0.950 . S
C704 C703 1.387 . S
C704 C707 1.387 . S
H705 C701 0.950 . S
H706 C703 0.950 . S
C707 C698 1.390 1_665 S
C707 H700 0.950 . S
C707 C704 1.387 . S
C409 C9 1.459 . S
C414 C247 1.459 . S
C419 C43 1.458 . S
C424 C281 1.459 . S
C429 C77 1.456 . S
C434 C315 1.457 . S
C439 C349 1.456 . S
C444 C111 1.456 . S
C449 C383 1.456 . S
C454 C145 1.457 . S
C459 C179 1.459 . S
C464 C213 1.459 . S
C469 C122 0.813 . S
C474 C20 0.813 . S
C479 C54 0.809 . S
C484 C156 0.809 . S
C489 C190 0.809 . S
C494 C88 0.809 . S
C499 C326 0.810 . S
C504 C224 0.810 . S
C509 C360 0.809 . S
C514 C258 0.809 . S
C519 C292 0.813 . S
C524 C394 0.813 . S
C529 C277 1.498 . S
C534 C5 1.499 . S
C539 C39 1.498 . S
C544 C311 1.498 . S
C549 C73 1.499 . S
C554 C345 1.498 . S
C559 C107 1.499 . S
C564 C379 1.498 . S
C569 C141 1.498 . S
C574 C209 1.498 . S
C579 C243 1.498 . S
C584 C175 1.498 . S
C589 C135 2.111 . S
C594 C33 2.111 . S
C599 C67 2.111 . S
C604 C169 2.111 . S
C609 C203 2.112 . S
C614 C101 2.112 . S
C619 C237 2.110 . S
C624 C339 2.110 . S
C629 C271 2.110 . S
C634 C373 2.110 . S
C639 C407 2.111 . S
C644 C305 2.111 . S
C649 C2 1.608 . S
C654 C104 1.608 . S
C659 C36 1.611 . S
C664 C138 1.611 . S
C669 C70 1.608 . S
C674 C172 1.608 . S
C679 C206 1.608 . S
C684 C308 1.608 . S
C689 C342 1.608 . S
C694 C240 1.608 . S
C699 C274 1.611 . S
C704 C376 1.611 . S
