# Generated by pormake.
# Topology ukd, (4)-cn, num edge types: 1
# Building blocks:
#     Node 0, Type 0, BuildingBlock: KUFVIS_clean_sbu_0, # of connection points: 4
#     Node 1, Type 0, BuildingBlock: KUFVIS_clean_sbu_0, # of connection points: 4
#     Node 2, Type 0, BuildingBlock: KUFVIS_clean_sbu_0, # of connection points: 4
#     Node 3, Type 0, BuildingBlock: KUFVIS_clean_sbu_0, # of connection points: 4
#     Node 4, Type 0, BuildingBlock: KUFVIS_clean_sbu_0, # of connection points: 4
#     Node 5, Type 0, BuildingBlock: KUFVIS_clean_sbu_0, # of connection points: 4
#     Node 6, Type 0, BuildingBlock: KUFVIS_clean_sbu_0, # of connection points: 4
#     Node 7, Type 0, BuildingBlock: KUFVIS_clean_sbu_0, # of connection points: 4
#     Node 8, Type 0, BuildingBlock: KUFVIS_clean_sbu_0, # of connection points: 4
#     Node 9, Type 0, BuildingBlock: KUFVIS_clean_sbu_0, # of connection points: 4
#     Node 10, Type 0, BuildingBlock: KUFVIS_clean_sbu_0, # of connection points: 4
#     Node 11, Type 0, BuildingBlock: KUFVIS_clean_sbu_0, # of connection points: 4
#     Node 12, Type 0, BuildingBlock: KUFVIS_clean_sbu_0, # of connection points: 4
#     Node 13, Type 0, BuildingBlock: KUFVIS_clean_sbu_0, # of connection points: 4
#     Node 14, Type 0, BuildingBlock: KUFVIS_clean_sbu_0, # of connection points: 4
#     Node 15, Type 0, BuildingBlock: KUFVIS_clean_sbu_0, # of connection points: 4
#     Node 16, Type 0, BuildingBlock: KUFVIS_clean_sbu_0, # of connection points: 4
#     Node 17, Type 0, BuildingBlock: KUFVIS_clean_sbu_0, # of connection points: 4
#     Node 18, Type 0, BuildingBlock: KUFVIS_clean_sbu_0, # of connection points: 4
#     Node 19, Type 0, BuildingBlock: KUFVIS_clean_sbu_0, # of connection points: 4
#     Node 20, Type 0, BuildingBlock: KUFVIS_clean_sbu_0, # of connection points: 4
#     Node 21, Type 0, BuildingBlock: KUFVIS_clean_sbu_0, # of connection points: 4
#     Node 22, Type 0, BuildingBlock: KUFVIS_clean_sbu_0, # of connection points: 4
#     Node 23, Type 0, BuildingBlock: KUFVIS_clean_sbu_0, # of connection points: 4
#     Node 24, Type 0, BuildingBlock: KUFVIS_clean_sbu_0, # of connection points: 4
#     Node 25, Type 0, BuildingBlock: KUFVIS_clean_sbu_0, # of connection points: 4
#     Node 26, Type 0, BuildingBlock: KUFVIS_clean_sbu_0, # of connection points: 4
#     Node 27, Type 0, BuildingBlock: KUFVIS_clean_sbu_0, # of connection points: 4
#     Node 28, Type 0, BuildingBlock: KUFVIS_clean_sbu_0, # of connection points: 4
#     Node 29, Type 0, BuildingBlock: KUFVIS_clean_sbu_0, # of connection points: 4
#     Node 30, Type 0, BuildingBlock: KUFVIS_clean_sbu_0, # of connection points: 4
#     Node 31, Type 0, BuildingBlock: KUFVIS_clean_sbu_0, # of connection points: 4
#     Edge 32, Type (0, 0), BuildingBlock: AJUNOK_clean_linker_0, # of connection points: 2
#     Edge 33, Type (0, 0), BuildingBlock: AJUNOK_clean_linker_0, # of connection points: 2
#     Edge 34, Type (0, 0), BuildingBlock: AJUNOK_clean_linker_0, # of connection points: 2
#     Edge 35, Type (0, 0), BuildingBlock: AJUNOK_clean_linker_0, # of connection points: 2
#     Edge 36, Type (0, 0), BuildingBlock: AJUNOK_clean_linker_0, # of connection points: 2
#     Edge 37, Type (0, 0), BuildingBlock: AJUNOK_clean_linker_0, # of connection points: 2
#     Edge 38, Type (0, 0), BuildingBlock: AJUNOK_clean_linker_0, # of connection points: 2
#     Edge 39, Type (0, 0), BuildingBlock: AJUNOK_clean_linker_0, # of connection points: 2
#     Edge 40, Type (0, 0), BuildingBlock: AJUNOK_clean_linker_0, # of connection points: 2
#     Edge 41, Type (0, 0), BuildingBlock: AJUNOK_clean_linker_0, # of connection points: 2
#     Edge 42, Type (0, 0), BuildingBlock: AJUNOK_clean_linker_0, # of connection points: 2
#     Edge 43, Type (0, 0), BuildingBlock: AJUNOK_clean_linker_0, # of connection points: 2
#     Edge 44, Type (0, 0), BuildingBlock: AJUNOK_clean_linker_0, # of connection points: 2
#     Edge 45, Type (0, 0), BuildingBlock: AJUNOK_clean_linker_0, # of connection points: 2
#     Edge 46, Type (0, 0), BuildingBlock: AJUNOK_clean_linker_0, # of connection points: 2
#     Edge 47, Type (0, 0), BuildingBlock: AJUNOK_clean_linker_0, # of connection points: 2
#     Edge 48, Type (0, 0), BuildingBlock: AJUNOK_clean_linker_0, # of connection points: 2
#     Edge 49, Type (0, 0), BuildingBlock: AJUNOK_clean_linker_0, # of connection points: 2
#     Edge 50, Type (0, 0), BuildingBlock: AJUNOK_clean_linker_0, # of connection points: 2
#     Edge 51, Type (0, 0), BuildingBlock: AJUNOK_clean_linker_0, # of connection points: 2
#     Edge 52, Type (0, 0), BuildingBlock: AJUNOK_clean_linker_0, # of connection points: 2
#     Edge 53, Type (0, 0), BuildingBlock: AJUNOK_clean_linker_0, # of connection points: 2
#     Edge 54, Type (0, 0), BuildingBlock: AJUNOK_clean_linker_0, # of connection points: 2
#     Edge 55, Type (0, 0), BuildingBlock: AJUNOK_clean_linker_0, # of connection points: 2
#     Edge 56, Type (0, 0), BuildingBlock: AJUNOK_clean_linker_0, # of connection points: 2
#     Edge 57, Type (0, 0), BuildingBlock: AJUNOK_clean_linker_0, # of connection points: 2
#     Edge 58, Type (0, 0), BuildingBlock: AJUNOK_clean_linker_0, # of connection points: 2
#     Edge 59, Type (0, 0), BuildingBlock: AJUNOK_clean_linker_0, # of connection points: 2
#     Edge 60, Type (0, 0), BuildingBlock: AJUNOK_clean_linker_0, # of connection points: 2
#     Edge 61, Type (0, 0), BuildingBlock: AJUNOK_clean_linker_0, # of connection points: 2
#     Edge 62, Type (0, 0), BuildingBlock: AJUNOK_clean_linker_0, # of connection points: 2
#     Edge 63, Type (0, 0), BuildingBlock: AJUNOK_clean_linker_0, # of connection points: 2
#     Edge 64, Type (0, 0), BuildingBlock: AJUNOK_clean_linker_0, # of connection points: 2
#     Edge 65, Type (0, 0), BuildingBlock: AJUNOK_clean_linker_0, # of connection points: 2
#     Edge 66, Type (0, 0), BuildingBlock: AJUNOK_clean_linker_0, # of connection points: 2
#     Edge 67, Type (0, 0), BuildingBlock: AJUNOK_clean_linker_0, # of connection points: 2
#     Edge 68, Type (0, 0), BuildingBlock: AJUNOK_clean_linker_0, # of connection points: 2
#     Edge 69, Type (0, 0), BuildingBlock: AJUNOK_clean_linker_0, # of connection points: 2
#     Edge 70, Type (0, 0), BuildingBlock: AJUNOK_clean_linker_0, # of connection points: 2
#     Edge 71, Type (0, 0), BuildingBlock: AJUNOK_clean_linker_0, # of connection points: 2
#     Edge 72, Type (0, 0), BuildingBlock: AJUNOK_clean_linker_0, # of connection points: 2
#     Edge 73, Type (0, 0), BuildingBlock: AJUNOK_clean_linker_0, # of connection points: 2
#     Edge 74, Type (0, 0), BuildingBlock: AJUNOK_clean_linker_0, # of connection points: 2
#     Edge 75, Type (0, 0), BuildingBlock: AJUNOK_clean_linker_0, # of connection points: 2
#     Edge 76, Type (0, 0), BuildingBlock: AJUNOK_clean_linker_0, # of connection points: 2
#     Edge 77, Type (0, 0), BuildingBlock: AJUNOK_clean_linker_0, # of connection points: 2
#     Edge 78, Type (0, 0), BuildingBlock: AJUNOK_clean_linker_0, # of connection points: 2
#     Edge 79, Type (0, 0), BuildingBlock: AJUNOK_clean_linker_0, # of connection points: 2
#     Edge 80, Type (0, 0), BuildingBlock: AJUNOK_clean_linker_0, # of connection points: 2
#     Edge 81, Type (0, 0), BuildingBlock: AJUNOK_clean_linker_0, # of connection points: 2
#     Edge 82, Type (0, 0), BuildingBlock: AJUNOK_clean_linker_0, # of connection points: 2
#     Edge 83, Type (0, 0), BuildingBlock: AJUNOK_clean_linker_0, # of connection points: 2
#     Edge 84, Type (0, 0), BuildingBlock: AJUNOK_clean_linker_0, # of connection points: 2
#     Edge 85, Type (0, 0), BuildingBlock: AJUNOK_clean_linker_0, # of connection points: 2
#     Edge 86, Type (0, 0), BuildingBlock: AJUNOK_clean_linker_0, # of connection points: 2
#     Edge 87, Type (0, 0), BuildingBlock: AJUNOK_clean_linker_0, # of connection points: 2
#     Edge 88, Type (0, 0), BuildingBlock: AJUNOK_clean_linker_0, # of connection points: 2
#     Edge 89, Type (0, 0), BuildingBlock: AJUNOK_clean_linker_0, # of connection points: 2
#     Edge 90, Type (0, 0), BuildingBlock: AJUNOK_clean_linker_0, # of connection points: 2
#     Edge 91, Type (0, 0), BuildingBlock: AJUNOK_clean_linker_0, # of connection points: 2
#     Edge 92, Type (0, 0), BuildingBlock: AJUNOK_clean_linker_0, # of connection points: 2
#     Edge 93, Type (0, 0), BuildingBlock: AJUNOK_clean_linker_0, # of connection points: 2
#     Edge 94, Type (0, 0), BuildingBlock: AJUNOK_clean_linker_0, # of connection points: 2
#     Edge 95, Type (0, 0), BuildingBlock: AJUNOK_clean_linker_0, # of connection points: 2
# Relax obj value: 0.059
# Max RMSD: 0.104
# Mean RMSD: 0.102
data_MOF--net-ukd--node1-KUFVIS_clean_sbu_0--edge1-AJUNOK_clean_linker_0
_symmetry_space_group_name_H-M    P1
_symmetry_Int_Tables_number       1
_symmetry_cell_setting            triclinic
loop_
_symmetry_equiv_pos_as_xyz
'x, y, z'
_cell_length_a     32.797556
_cell_length_b     32.806256
_cell_length_c     52.668307
_cell_angle_alpha  90.055185
_cell_angle_beta   90.056155
_cell_angle_gamma 89.993326
loop_
_atom_site_label
_atom_site_type_symbol
_atom_site_fract_x
_atom_site_fract_y
_atom_site_fract_z
_atom_type_partial_charge
Mn0 Mn 0.22308 0.18778 0.35802 0.0
Mn1 Mn 0.13114 0.20814 0.33143 0.0
C2 C 0.16429 0.15807 0.37389 0.0
C3 C 0.28115 0.14696 0.36291 0.0
C4 C 0.17363 0.26571 0.36743 0.0
O5 O 0.23941 0.21235 0.32367 0.0
O6 O 0.17619 0.22572 0.30888 0.0
C7 C 0.13717 0.14875 0.28927 0.0
N8 N 0.11683 0.16355 0.30983 0.0
C9 C 0.0625 0.11511 0.3041 0.0
C10 C 0.08277 0.09946 0.28278 0.0
C11 C 0.12036 0.11623 0.27541 0.0
C12 C 0.08098 0.14721 0.31733 0.0
H13 H 0.16597 0.1617 0.28349 0.0
C14 C 0.21506 0.22708 0.30701 0.0
O15 O 0.28094 0.18466 0.37047 0.0
O16 O 0.24943 0.13469 0.35035 0.0
N17 N 0.08396 0.1935 0.35078 0.0
C18 C 0.06764 0.21302 0.37126 0.0
C19 C 0.0299 0.2001 0.38096 0.0
C20 C 0.00885 0.16796 0.36917 0.0
C21 C 0.02566 0.14916 0.34768 0.0
C22 C 0.06335 0.16336 0.33885 0.0
H23 H 0.08336 0.23817 0.38018 0.0
O24 O 0.19644 0.16167 0.38799 0.0
O25 O 0.16714 0.17198 0.35084 0.0
O26 O 0.20602 0.24474 0.37063 0.0
O27 O 0.14346 0.25458 0.35376 0.0
C28 C 1.0064 0.11701 0.33458 0.0
C29 C 0.02489 0.09988 0.31287 0.0
H30 H 0.06985 0.07446 0.27199 0.0
H31 H 0.13625 0.10421 0.25904 0.0
H32 H 0.01707 0.21479 0.39752 0.0
H33 H 0.97978 0.15808 0.37674 0.0
H34 H 0.97738 0.10521 0.34105 0.0
H35 H 0.0099 0.07501 0.30306 0.0
Mn36 Mn 0.07391 0.97061 0.6071 0.0
Mn37 Mn 0.05446 0.8785 0.58055 0.0
C38 C 0.10404 0.91216 0.62311 0.0
C39 C 0.1143 0.02882 0.61228 0.0
C40 C 0.99631 0.92055 0.61629 0.0
O41 O 0.0495 0.98671 0.57264 0.0
O42 O 0.03643 0.92336 0.55797 0.0
C43 C 0.11383 0.88507 0.53847 0.0
N44 N 0.09922 0.86463 0.55902 0.0
C45 C 0.14821 0.81078 0.55338 0.0
C46 C 0.16368 0.83116 0.53207 0.0
C47 C 0.14654 0.86857 0.52467 0.0
C48 C 0.11593 0.82897 0.56657 0.0
H49 H 0.10058 0.91373 0.53266 0.0
C50 C 0.03484 0.96221 0.55603 0.0
O51 O 0.07649 0.02843 0.61959 0.0
O52 O 0.1269 0.99727 0.5997 0.0
N53 N 0.06955 0.83151 0.59994 0.0
C54 C 0.05009 0.81498 0.62034 0.0
C55 C 0.06328 0.77733 0.63003 0.0
C56 C 0.0957 0.75663 0.61834 0.0
C57 C 0.11446 0.77365 0.59691 0.0
C58 C 0.09993 0.8112 0.58807 0.0
H59 H 0.02471 0.83043 0.62918 0.0
O60 O 0.09994 0.94425 0.6372 0.0
O61 O 0.09027 0.91482 0.60001 0.0
O62 O 0.01693 0.95318 0.61942 0.0
O63 O 0.00785 0.89036 0.6028 0.0
C64 C 0.14678 0.75466 0.58386 0.0
C65 C 0.16377 0.77331 0.56218 0.0
H66 H 0.18881 0.81847 0.52133 0.0
H67 H 0.1584 0.88456 0.5083 0.0
H68 H 0.04847 0.76425 0.64647 0.0
H69 H 0.10577 0.72761 0.62588 0.0
H70 H 0.1588 0.72572 0.59032 0.0
H71 H 0.18877 0.75854 0.55239 0.0
Mn72 Mn 0.29022 0.82454 0.85812 0.0
Mn73 Mn 0.38007 0.80665 0.8285 0.0
C74 C 0.34923 0.85527 0.87288 0.0
C75 C 0.23174 0.86443 0.86315 0.0
C76 C 0.33988 0.74674 0.86457 0.0
O77 O 0.27268 0.79817 0.82459 0.0
O78 O 0.33405 0.79311 0.80541 0.0
C79 C 0.37426 0.87144 0.78961 0.0
N80 N 0.39496 0.85341 0.809 0.0
C81 C 0.45002 0.90151 0.80537 0.0
C82 C 0.42946 0.92039 0.78519 0.0
C83 C 0.39134 0.90538 0.77736 0.0
C84 C 0.43142 0.86789 0.8169 0.0
H85 H 0.34491 0.86003 0.78361 0.0
C86 C 0.29528 0.78861 0.8057 0.0
O87 O 0.23284 0.82712 0.87139 0.0
O88 O 0.26274 0.87666 0.84998 0.0
N89 N 0.42792 0.81798 0.84817 0.0
C90 C 0.4435 0.79671 0.86817 0.0
C91 C 0.4812 0.8083 0.87861 0.0
C92 C 0.50306 0.84084 0.86794 0.0
C93 C 0.48694 0.86159 0.84695 0.0
C94 C 0.44915 0.84876 0.83742 0.0
H95 H 0.42724 0.77122 0.87617 0.0
O96 O 0.3175 0.85203 0.88735 0.0
O97 O 0.34541 0.84113 0.8499 0.0
O98 O 0.30941 0.76869 0.87093 0.0
O99 O 0.36729 0.75764 0.84873 0.0
C100 C 0.50658 0.89489 0.83534 0.0
C101 C 0.48804 0.91497 0.81465 0.0
H102 H 0.44253 0.94658 0.77569 0.0
H103 H 0.37518 0.91993 0.7619 0.0
H104 H 0.49329 0.79234 0.89491 0.0
H105 H 0.53205 0.84978 0.87612 0.0
H106 H 0.53574 0.90559 0.84234 0.0
H107 H 0.50321 0.94085 0.80608 0.0
Mn108 Mn 0.44154 0.03691 0.10987 0.0
Mn109 Mn 0.45797 0.12642 0.07953 0.0
C110 C 0.41101 0.09597 0.12465 0.0
C111 C 0.4026 0.97772 0.11533 0.0
C112 C 0.51953 0.08661 0.11476 0.0
O113 O 0.46706 0.01937 0.07602 0.0
O114 O 0.46979 0.08036 0.05617 0.0
C115 C 0.39089 0.12131 0.04207 0.0
N116 N 0.41021 0.14175 0.0611 0.0
C117 C 0.3626 0.1974 0.05845 0.0
C118 C 0.34234 0.17709 0.03868 0.0
C119 C 0.35646 0.13881 0.03053 0.0
C120 C 0.39661 0.17836 0.0693 0.0
H121 H 0.40169 0.09188 0.03579 0.0
C122 C 0.47509 0.0417 0.05673 0.0
O123 O 0.44011 0.97955 0.12322 0.0
O124 O 0.38924 0.00873 0.10257 0.0
N125 N 0.44828 0.17428 0.0995 0.0
C126 C 0.47103 0.18971 0.11894 0.0
C127 C 0.4608 0.22777 0.12941 0.0
C128 C 0.42784 0.24996 0.11948 0.0
C129 C 0.40545 0.23391 0.09909 0.0
C130 C 0.41714 0.19588 0.0894 0.0
H131 H 0.49671 0.17306 0.12649 0.0
O132 O 0.41472 0.06445 0.13927 0.0
O133 O 0.42451 0.09186 0.10158 0.0
O134 O 0.49766 0.05664 0.122 0.0
O135 O 0.50814 0.11332 0.09859 0.0
C136 C 0.37175 0.25396 0.08816 0.0
C137 C 0.35019 0.23561 0.06796 0.0
H138 H 0.3158 0.19049 0.02972 0.0
H139 H 0.34088 0.12286 0.01536 0.0
H140 H 0.47817 0.23993 0.14516 0.0
H141 H 0.4199 0.27919 0.12771 0.0
H142 H 0.36191 0.28331 0.0953 0.0
H143 H 0.32405 0.25112 0.05992 0.0
Mn144 Mn 0.22439 0.82207 0.15871 0.0
Mn145 Mn 0.13448 0.80645 0.18862 0.0
C146 C 0.16556 0.85286 0.14351 0.0
C147 C 0.28392 0.86056 0.15342 0.0
C148 C 0.17493 0.74401 0.15425 0.0
O149 O 0.24128 0.79687 0.19288 0.0
O150 O 0.1801 0.79602 0.21258 0.0
C151 C 0.13867 0.87601 0.22433 0.0
N152 N 0.11824 0.85481 0.20611 0.0
C153 C 0.06152 0.90123 0.20797 0.0
C154 C 0.08153 0.92301 0.22723 0.0
C155 C 0.12043 0.91051 0.2353 0.0
C156 C 0.08129 0.86717 0.19773 0.0
H157 H 0.1688 0.86684 0.23021 0.0
C158 C 0.21872 0.79019 0.21229 0.0
O159 O 0.28196 0.82299 0.1457 0.0
O160 O 0.25279 0.8743 0.16592 0.0
N161 N 0.08699 0.81487 0.16807 0.0
C162 C 0.07245 0.79144 0.14868 0.0
C163 C 0.03433 0.80055 0.1379 0.0
C164 C 0.01118 0.83314 0.14746 0.0
C165 C 0.02636 0.85628 0.16777 0.0
C166 C 0.06449 0.84569 0.17779 0.0
H167 H 0.0898 0.76602 0.14145 0.0
O168 O 0.19723 0.84885 0.12904 0.0
O169 O 0.1694 0.83939 0.16658 0.0
O170 O 0.20461 0.76598 0.14668 0.0
O171 O 0.14836 0.75557 0.17046 0.0
C172 C 1.00536 0.88973 0.1783 0.0
C173 C 0.02304 0.91236 0.19826 0.0
H174 H 0.06758 0.94967 0.23571 0.0
H175 H 0.13634 0.9275 0.24988 0.0
H176 H 0.02281 0.78252 0.12225 0.0
H177 H 0.98189 0.84021 0.139 0.0
H178 H 0.97581 0.89859 0.171 0.0
H179 H 0.00691 0.93844 0.20589 0.0
Mn180 Mn 0.43881 0.97242 0.41008 0.0
Mn181 Mn 0.45558 0.88208 0.43937 0.0
C182 C 0.40848 0.91342 0.39483 0.0
C183 C 0.39866 0.03065 0.40417 0.0
C184 C 0.51666 0.92236 0.4041 0.0
O185 O 0.46365 0.98981 0.44431 0.0
O186 O 0.46887 0.92785 0.46262 0.0
C187 C 0.38879 0.88898 0.47689 0.0
N188 N 0.40815 0.86751 0.45835 0.0
C189 C 0.36043 0.81214 0.46209 0.0
C190 C 0.34085 0.83305 0.48187 0.0
C191 C 0.35484 0.87184 0.4891 0.0
C192 C 0.39405 0.83085 0.4506 0.0
H193 H 0.39891 0.91914 0.48205 0.0
C194 C 0.47278 0.96668 0.46308 0.0
O195 O 0.43641 0.02981 0.39671 0.0
O196 O 0.38612 0.99971 0.41727 0.0
N197 N 0.44441 0.83428 0.4196 0.0
C198 C 0.46645 0.81823 0.40007 0.0
C199 C 0.45525 0.78031 0.38978 0.0
C200 C 0.42238 0.75863 0.40019 0.0
C201 C 0.40098 0.7751 0.42081 0.0
C202 C 0.41341 0.81311 0.43019 0.0
H203 H 0.49231 0.83425 0.39236 0.0
O204 O 0.41247 0.945 0.38033 0.0
O205 O 0.42192 0.91724 0.41792 0.0
O206 O 0.49522 0.95336 0.39806 0.0
O207 O 0.50513 0.89455 0.4195 0.0
C208 C 0.36766 0.75538 0.43236 0.0
C209 C 0.34731 0.77396 0.45293 0.0
H210 H 0.31456 0.81998 0.49126 0.0
H211 H 0.33938 0.88855 0.50397 0.0
H212 H 0.47175 0.76789 0.3738 0.0
H213 H 0.41381 0.72943 0.39216 0.0
H214 H 0.35724 0.72607 0.42546 0.0
H215 H 0.32137 0.75877 0.46142 0.0
Mn216 Mn 0.28725 0.18784 0.65999 0.0
Mn217 Mn 0.37793 0.20909 0.68801 0.0
C218 C 0.34677 0.15883 0.6448 0.0
C219 C 0.22981 0.1465 0.65424 0.0
C220 C 0.33637 0.26622 0.65135 0.0
O221 O 0.26947 0.21212 0.6941 0.0
O222 O 0.33189 0.22609 0.71006 0.0
C223 C 0.37087 0.14911 0.72972 0.0
N224 N 0.39193 0.16448 0.70962 0.0
C225 C 0.44612 0.11593 0.71556 0.0
C226 C 0.42511 0.09972 0.73642 0.0
C227 C 0.38726 0.1163 0.74347 0.0
C228 C 0.42815 0.14846 0.7025 0.0
H229 H 0.34178 0.1618 0.73519 0.0
C230 C 0.29294 0.22664 0.7113 0.0
O231 O 0.22989 0.18421 0.64676 0.0
O232 O 0.26117 0.1345 0.66724 0.0
N233 N 0.42596 0.19508 0.66927 0.0
C234 C 0.4425 0.21447 0.64885 0.0
C235 C 0.48042 0.20164 0.63939 0.0
C236 C 0.50146 0.16974 0.6514 0.0
C237 C 0.48439 0.15101 0.67282 0.0
C238 C 0.4465 0.16513 0.68139 0.0
H239 H 0.42684 0.23947 0.6398 0.0
O240 O 0.31495 0.16209 0.63038 0.0
O241 O 0.34313 0.17255 0.66789 0.0
O242 O 0.30436 0.24489 0.64756 0.0
O243 O 0.36595 0.25546 0.66561 0.0
C244 C 0.50329 0.11863 0.68586 0.0
C245 C 0.48406 0.10095 0.70713 0.0
H246 H 0.43768 0.07446 0.7471 0.0
H247 H 0.37081 0.10386 0.75949 0.0
H248 H 0.49338 0.21623 0.62285 0.0
H249 H 0.53064 0.15984 0.64398 0.0
H250 H 0.53246 0.10689 0.67958 0.0
H251 H 0.49872 0.07585 0.71687 0.0
Mn252 Mn 0.07506 0.04015 0.90933 0.0
Mn253 Mn 0.05847 0.12906 0.94044 0.0
C254 C 0.10591 0.09942 0.89538 0.0
C255 C 0.11447 0.98169 0.9031 0.0
C256 C 0.99768 0.09091 0.90397 0.0
O257 O 0.04942 0.02149 0.94274 0.0
O258 O 0.04444 0.08228 0.96269 0.0
C259 C 0.12317 0.12078 0.9793 0.0
N260 N 0.10561 0.14237 0.96012 0.0
C261 C 0.15453 0.19654 0.96475 0.0
C262 C 0.1729 0.17506 0.98473 0.0
C263 C 0.15728 0.13691 0.99193 0.0
C264 C 0.12081 0.17877 0.95275 0.0
H265 H 0.11125 0.09145 0.98487 0.0
C266 C 0.04003 0.04352 0.96192 0.0
O267 O 0.07699 0.98329 0.89512 0.0
O268 O 0.12721 0.01212 0.91663 0.0
N269 N 0.07042 0.17758 0.92162 0.0
C270 C 0.04857 0.19494 0.90244 0.0
C271 C 0.06054 0.23301 0.89278 0.0
C272 C 0.0941 0.25341 0.90341 0.0
C273 C 0.11526 0.23563 0.92371 0.0
C274 C 0.10199 0.19757 0.9325 0.0
H275 H 0.02223 0.17987 0.89455 0.0
O276 O 0.10207 0.06843 0.88034 0.0
O277 O 0.09221 0.09479 0.91838 0.0
O278 O 0.01906 0.06021 0.89729 0.0
O279 O 0.00918 0.11785 0.92001 0.0
C280 C 0.14899 0.25419 0.9356 0.0
C281 C 0.16868 0.23462 0.95606 0.0
H282 H 0.19921 0.18741 0.99452 0.0
H283 H 0.17146 0.12003 1.00722 0.0
H284 H 0.04405 0.24658 0.87714 0.0
H285 H 0.10328 0.28273 0.89587 0.0
H286 H 0.16011 0.28347 0.9291 0.0
H287 H 0.19476 0.24905 0.96493 0.0
Mn288 Mn 0.79926 0.81166 0.66309 0.0
Mn289 Mn 0.80581 0.89658 0.69847 0.0
C290 C 0.84334 0.86301 0.65131 0.0
C291 C 0.8219 0.74537 0.65551 0.0
C292 C 0.73602 0.87981 0.6617 0.0
O293 O 0.77231 0.79532 0.69637 0.0
O294 O 0.78531 0.85089 0.72016 0.0
C295 C 0.87203 0.87045 0.73312 0.0
N296 N 0.85709 0.89745 0.71581 0.0
C297 C 0.91932 0.93633 0.71687 0.0
C298 C 0.93485 0.90958 0.73523 0.0
C299 C 0.91115 0.87639 0.7433 0.0
C300 C 0.87987 0.9292 0.70766 0.0
H301 H 0.85448 0.84423 0.73883 0.0
C302 C 0.77271 0.81404 0.71765 0.0
O303 O 0.78668 0.7577 0.64712 0.0
O304 O 0.84287 0.77109 0.66882 0.0
N305 N 0.82633 0.94231 0.67979 0.0
C306 C 0.80813 0.96365 0.66068 0.0
C307 C 0.82874 0.99664 0.64959 0.0
C308 C 0.86774 0.00746 0.65827 0.0
C309 C 0.88572 0.98532 0.6781 0.0
C310 C 0.86355 0.95301 0.68863 0.0
H311 H 0.77829 0.95542 0.65374 0.0
O312 O 0.83162 0.836 0.63486 0.0
O313 O 0.82926 0.85853 0.67415 0.0
O314 O 0.75004 0.84645 0.65275 0.0
O315 O 0.75271 0.89903 0.68017 0.0
C316 C 0.92513 0.99354 0.68744 0.0
C317 C 0.94192 0.96906 0.70681 0.0
H318 H 0.96522 0.91378 0.7429 0.0
H319 H 0.9232 0.85518 0.75712 0.0
H320 H 0.81478 0.01339 0.63418 0.0
H321 H 0.88374 0.0326 0.64944 0.0
H322 H 0.94303 0.01826 0.67961 0.0
H323 H 0.97251 0.97528 0.71355 0.0
Mn324 Mn 0.95349 0.04831 0.41227 0.0
Mn325 Mn 0.86715 0.05323 0.44666 0.0
C326 C 0.90232 0.09241 0.40031 0.0
C327 C 0.01992 0.07096 0.40523 0.0
C328 C 0.88489 0.98502 0.40916 0.0
O329 O 0.96975 0.02181 0.4456 0.0
O330 O 0.91169 0.02964 0.46808 0.0
C331 C 0.89158 0.11403 0.48541 0.0
N332 N 0.86645 0.10252 0.46608 0.0
C333 C 0.82784 0.16467 0.46955 0.0
C334 C 0.85311 0.17703 0.48962 0.0
C335 C 0.88516 0.15163 0.49754 0.0
C336 C 0.83545 0.12669 0.45835 0.0
H337 H 0.91636 0.09472 0.49153 0.0
C338 C 0.94922 0.01901 0.46607 0.0
O339 O 0.00765 0.03586 0.39665 0.0
O340 O 0.99397 0.09202 0.4183 0.0
N341 N 0.82253 0.07646 0.42816 0.0
C342 C 0.80166 0.06065 0.40803 0.0
C343 C 0.76944 0.08295 0.39729 0.0
C344 C 0.75895 0.12119 0.40736 0.0
C345 C 0.78064 0.13669 0.42819 0.0
C346 C 0.81229 0.11297 0.43822 0.0
H347 H 0.8097 0.0314 0.40008 0.0
O348 O 0.92944 0.0805 0.38401 0.0
O349 O 0.90621 0.07815 0.42325 0.0
O350 O 0.91923 0.99856 0.40141 0.0
O351 O 0.8642 1.0021 0.42675 0.0
C352 C 0.77241 0.17497 0.43921 0.0
C353 C 0.79593 0.18891 0.45991 0.0
H354 H 0.84848 0.20616 0.49888 0.0
H355 H 0.90496 0.16107 0.51291 0.0
H356 H 0.75285 0.07077 0.38121 0.0
H357 H 0.73427 0.13843 0.3989 0.0
H358 H 0.7482 0.19404 0.43181 0.0
H359 H 0.78947 0.2185 0.4681 0.0
Mn360 Mn 0.71441 0.20249 0.16153 0.0
Mn361 Mn 0.70953 0.11782 0.19717 0.0
C362 C 0.67017 0.15115 0.1501 0.0
C363 C 0.69169 0.26908 0.15519 0.0
C364 C 0.7778 0.1346 0.15934 0.0
O365 O 0.74295 0.21863 0.19424 0.0
O366 O 0.73034 0.16385 0.21872 0.0
C367 C 0.64494 0.14259 0.2333 0.0
N368 N 0.65908 0.11626 0.21534 0.0
C369 C 0.59772 0.07619 0.21763 0.0
C370 C 0.58284 0.10249 0.23646 0.0
C371 C 0.60653 0.13589 0.24428 0.0
C372 C 0.63648 0.08407 0.20762 0.0
H373 H 0.66267 0.1687 0.23907 0.0
C374 C 0.74327 0.20048 0.21564 0.0
O375 O 0.72626 0.25683 0.14579 0.0
O376 O 0.67119 0.24291 0.16835 0.0
N377 N 0.68874 0.07188 0.1787 0.0
C378 C 0.70594 0.05132 0.15892 0.0
C379 C 0.68507 0.01835 0.14794 0.0
C380 C 0.64685 0.00669 0.15746 0.0
C381 C 0.62984 0.02811 0.17792 0.0
C382 C 0.65218 0.06057 0.18822 0.0
H383 H 0.73514 0.0602 0.15132 0.0
O384 O 0.68103 0.17855 0.13372 0.0
O385 O 0.68484 0.15544 0.1729 0.0
O386 O 0.76317 0.16764 0.15028 0.0
O387 O 0.76199 0.11578 0.17822 0.0
C388 C 0.59113 0.01917 0.18805 0.0
C389 C 0.5751 0.04315 0.20791 0.0
H390 H 0.55303 0.09769 0.24477 0.0
H391 H 0.59506 0.15661 0.25859 0.0
H392 H 0.69822 1.00223 0.13199 0.0
H393 H 0.63065 0.98153 0.14874 0.0
H394 H 0.57315 0.99429 0.18044 0.0
H395 H 0.54504 0.03636 0.21527 0.0
Mn396 Mn 0.56141 0.96233 0.91245 0.0
Mn397 Mn 0.6474 0.95643 0.94691 0.0
C398 C 0.61269 0.91865 0.89992 0.0
C399 C 0.495 0.9393 0.90577 0.0
C400 C 0.62897 0.02612 0.91047 0.0
O401 O 0.54586 0.98912 0.94599 0.0
O402 O 0.60207 0.97628 0.96922 0.0
C403 C 0.62351 0.88998 0.98191 0.0
N404 N 0.64969 0.90528 0.96427 0.0
C405 C 0.69017 0.84408 0.96524 0.0
C406 C 0.66425 0.82818 0.98392 0.0
C407 C 0.63068 0.85118 0.99221 0.0
C408 C 0.68188 0.88323 0.95596 0.0
H409 H 0.59704 0.907 0.98783 0.0
C410 C 0.56505 0.98863 0.96711 0.0
O411 O 0.50681 0.9745 0.89712 0.0
O412 O 0.52136 0.91848 0.91864 0.0
N413 N 0.69278 0.93652 0.92761 0.0
C414 C 0.71259 0.95452 0.90782 0.0
C415 C 0.74538 0.93429 0.89622 0.0
C416 C 0.75759 0.89585 0.9051 0.0
C417 C 0.73693 0.87799 0.92555 0.0
C418 C 0.70468 0.89976 0.93654 0.0
H419 H 0.70325 0.98391 0.90072 0.0
O420 O 0.58502 0.93026 0.88388 0.0
O421 O 0.60889 0.93254 0.92291 0.0
O422 O 0.59557 0.0118 0.90172 0.0
O423 O 0.64869 0.00957 0.92875 0.0
C424 C 0.74639 0.83896 0.93502 0.0
C425 C 0.72305 0.82204 0.95486 0.0
H426 H 0.66936 0.79802 0.99166 0.0
H427 H 0.61011 0.83882 1.00629 0.0
H428 H 0.76097 0.94814 0.88032 0.0
H429 H 0.78259 0.88013 0.89589 0.0
H430 H 0.77111 0.82141 0.92687 0.0
H431 H 0.73015 0.79169 0.96165 0.0
Mn432 Mn 0.80089 0.2026 0.8554 0.0
Mn433 Mn 0.80839 0.11753 0.82028 0.0
C434 C 0.84581 0.15208 0.86743 0.0
C435 C 0.82298 0.26929 0.86243 0.0
C436 C 0.73798 0.13428 0.85661 0.0
O437 O 0.77361 0.21816 0.82205 0.0
O438 O 0.78776 0.16285 0.79828 0.0
C439 C 0.87387 0.1421 0.78472 0.0
N440 N 0.85956 0.11626 0.80287 0.0
C441 C 0.92136 0.07672 0.80162 0.0
C442 C 0.93628 0.1023 0.78246 0.0
C443 C 0.91249 0.13524 0.77406 0.0
C444 C 0.88235 0.08466 0.81125 0.0
H445 H 0.85618 0.16801 0.77862 0.0
C446 C 0.77451 0.1995 0.80076 0.0
O447 O 0.78797 0.25679 0.87101 0.0
O448 O 0.84406 0.24347 0.8493 0.0
N449 N 0.82912 0.07234 0.83942 0.0
C450 C 0.81119 0.05165 0.85887 0.0
C451 C 0.83194 0.01901 0.87028 0.0
C452 C 0.87081 0.00786 0.86155 0.0
C453 C 0.88855 0.0294 0.84141 0.0
C454 C 0.8663 0.06149 0.83064 0.0
H455 H 0.78141 0.06008 0.86579 0.0
O456 O 0.83363 0.17907 0.88373 0.0
O457 O 0.83155 0.15601 0.84454 0.0
O458 O 0.75194 0.1674 0.86599 0.0
O459 O 0.75526 0.1152 0.83834 0.0
C460 C 0.92771 0.02068 0.83187 0.0
C461 C 0.94407 0.04427 0.81197 0.0
H462 H 0.96627 0.09742 0.77441 0.0
H463 H 0.92408 0.15555 0.75958 0.0
H464 H 0.81811 1.00264 0.88589 0.0
H465 H 0.88686 0.98289 0.87055 0.0
H466 H 0.94566 0.99612 0.83987 0.0
H467 H 0.97437 0.03753 0.80497 0.0
Mn468 Mn 0.55938 0.05184 0.60679 0.0
Mn469 Mn 0.64373 0.05807 0.57098 0.0
C470 C 0.61051 0.09606 0.61849 0.0
C471 C 0.49281 0.0743 0.61342 0.0
C472 C 0.62707 0.98843 0.6079 0.0
O473 O 0.54334 0.02383 0.57386 0.0
O474 O 0.59766 0.03797 0.54923 0.0
C475 C 0.61894 0.12391 0.53577 0.0
N476 N 0.64531 0.10913 0.5535 0.0
C477 C 0.68539 0.17054 0.55206 0.0
C478 C 0.65904 0.1861 0.53347 0.0
C479 C 0.62562 0.16271 0.52534 0.0
C480 C 0.67753 0.13143 0.56152 0.0
H481 H 0.59282 0.10639 0.52977 0.0
C482 C 0.56129 0.02435 0.55238 0.0
O483 O 0.50513 0.03957 0.62255 0.0
O484 O 0.51884 0.09505 0.60031 0.0
N485 N 0.68972 0.07816 0.5897 0.0
C486 C 0.71031 0.06024 0.60923 0.0
C487 C 0.74329 0.0807 0.62049 0.0
C488 C 0.75494 0.11925 0.61151 0.0
C489 C 0.73351 0.137 0.5913 0.0
C490 C 0.70105 0.11504 0.58068 0.0
H491 H 0.70144 0.03076 0.61639 0.0
O492 O 0.58323 0.08476 0.63484 0.0
O493 O 0.60616 0.08184 0.59559 0.0
O494 O 0.59447 1.00299 0.61761 0.0
O495 O 0.64566 1.005 0.58918 0.0
C496 C 0.74243 0.17607 0.58173 0.0
C497 C 0.71842 0.19281 0.5621 0.0
H498 H 0.66381 0.21622 0.5256 0.0
H499 H 0.60486 0.17471 0.51122 0.0
H500 H 0.75943 0.06698 0.63623 0.0
H501 H 0.7801 0.13514 0.62045 0.0
H502 H 0.7673 0.19377 0.58959 0.0
H503 H 0.72519 0.22314 0.55518 0.0
Mn504 Mn 0.71133 0.81019 0.35368 0.0
Mn505 Mn 0.70521 0.89586 0.31875 0.0
C506 C 0.66775 0.86165 0.36592 0.0
C507 C 0.68892 0.74393 0.36152 0.0
C508 C 0.77522 0.87833 0.35504 0.0
O509 O 0.73642 0.79329 0.32002 0.0
O510 O 0.72772 0.85093 0.29723 0.0
C511 C 0.64258 0.87106 0.28125 0.0
N512 N 0.65505 0.89642 0.30022 0.0
C513 C 0.59281 0.9351 0.29767 0.0
C514 C 0.57946 0.90957 0.27798 0.0
C515 C 0.60443 0.87737 0.26978 0.0
C516 C 0.63129 0.92757 0.30822 0.0
H517 H 0.66157 0.84616 0.27492 0.0
C518 C 0.7384 0.81344 0.29937 0.0
O519 O 0.72439 0.75631 0.36943 0.0
O520 O 0.66729 0.7697 0.34866 0.0
N521 N 0.68299 0.94084 0.33739 0.0
C522 C 0.69984 0.96202 0.35705 0.0
C523 C 0.67816 0.9945 0.36797 0.0
C524 C 0.63946 1.00492 0.35856 0.0
C525 C 0.62288 0.9829 0.33819 0.0
C526 C 0.64603 0.95101 0.32794 0.0
H527 H 0.72947 0.95406 0.36448 0.0
O528 O 0.6803 0.83486 0.38225 0.0
O529 O 0.68115 0.8573 0.34282 0.0
O530 O 0.76166 0.84444 0.36348 0.0
O531 O 0.75728 0.89888 0.33771 0.0
C532 C 0.58411 0.99105 0.32783 0.0
C533 C 0.56912 0.96723 0.30756 0.0
H534 H 0.54992 0.91413 0.26922 0.0
H535 H 0.59423 0.85738 0.2547 0.0
H536 H 0.69117 0.01135 0.38369 0.0
H537 H 0.6227 0.0298 0.36716 0.0
H538 H 0.56547 0.01545 0.33541 0.0
H539 H 0.53917 0.97364 0.29986 0.0
Mn540 Mn 0.95255 0.96009 0.10486 0.0
Mn541 Mn 0.8677 0.95293 0.06951 0.0
C542 C 0.90142 0.91595 0.11683 0.0
C543 C 0.01902 0.93682 0.11166 0.0
C544 C 0.88473 0.02367 0.10566 0.0
O545 O 0.96854 0.98704 0.07153 0.0
O546 O 0.91336 0.97287 0.04761 0.0
C547 C 0.89356 0.88588 0.03544 0.0
N548 N 0.86667 0.90125 0.05266 0.0
C549 C 0.8278 0.839 0.05236 0.0
C550 C 0.85446 0.82299 0.0341 0.0
C551 C 0.88758 0.84649 0.02569 0.0
C552 C 0.83497 0.87869 0.06113 0.0
H553 H 0.91972 0.9033 0.02947 0.0
C554 C 0.95 0.98606 0.0502 0.0
O555 O 0.00719 0.97196 0.12047 0.0
O556 O 0.99263 0.91625 0.0987 0.0
N557 N 0.82199 0.93297 0.08845 0.0
C558 C 0.80066 0.95175 0.10734 0.0
C559 C 0.76767 0.93149 0.11868 0.0
C560 C 0.75684 0.89223 0.11047 0.0
C561 C 0.77896 0.87367 0.09084 0.0
C562 C 0.81125 0.89553 0.08003 0.0
H563 H 0.80888 0.98181 0.1139 0.0
O564 O 0.92849 0.92778 0.13319 0.0
O565 O 0.9057 0.93007 0.09399 0.0
O566 O 0.91769 0.00953 0.11521 0.0
O567 O 0.86565 0.0064 0.08732 0.0
C568 C 0.77072 0.834 0.08195 0.0
C569 C 0.79513 0.81668 0.06273 0.0
H570 H 0.85023 0.79243 0.02676 0.0
H571 H 0.90872 0.83408 0.01194 0.0
H572 H 0.75091 0.94592 0.13392 0.0
H573 H 0.73171 0.8765 0.1195 0.0
H574 H 0.74603 0.81633 0.09001 0.0
H575 H 0.78889 0.78591 0.05633 0.0
Mn576 Mn 0.7239 0.68871 0.85926 0.0
Mn577 Mn 0.63416 0.70588 0.8293 0.0
C578 C 0.66487 0.65866 0.87429 0.0
C579 C 0.78237 0.64856 0.86437 0.0
C580 C 0.67482 0.76699 0.86449 0.0
O581 O 0.74124 0.71432 0.82552 0.0
O582 O 0.68005 0.71776 0.80586 0.0
C583 C 0.6387 0.63921 0.79155 0.0
N584 N 0.61851 0.65836 0.81072 0.0
C585 C 0.56275 0.61088 0.80807 0.0
C586 C 0.58281 0.5908 0.78815 0.0
C587 C 0.62102 0.60494 0.77993 0.0
C588 C 0.58195 0.64476 0.81898 0.0
H589 H 0.66809 0.65001 0.78522 0.0
C590 C 0.71876 0.72275 0.80635 0.0
O591 O 0.78143 0.686 0.87246 0.0
O592 O 0.75111 0.63633 0.8514 0.0
N593 N 0.58647 0.69611 0.84936 0.0
C594 C 0.57147 0.71846 0.86909 0.0
C595 C 0.53369 0.70794 0.87978 0.0
C596 C 0.51123 0.67525 0.86972 0.0
C597 C 0.52685 0.65327 0.84906 0.0
C598 C 0.56471 0.66511 0.83921 0.0
H599 H 0.58835 0.74391 0.87675 0.0
O600 O 0.69667 0.66198 0.88872 0.0
O601 O 0.66871 0.67218 0.8512 0.0
O602 O 0.70481 0.74494 0.8716 0.0
O603 O 0.64772 0.75576 0.8485 0.0
C604 C 0.50662 0.61972 0.83806 0.0
C605 C 0.52466 0.59841 0.81768 0.0
H606 H 0.56927 0.56437 0.77914 0.0
H607 H 0.63677 0.58948 0.76465 0.0
H608 H 0.52201 0.72477 0.89587 0.0
H609 H 0.48221 0.66711 0.87812 0.0
H610 H 0.47738 0.6098 0.8453 0.0
H611 H 0.50902 0.57237 0.80959 0.0
Mn612 Mn 0.57448 0.4735 0.10967 0.0
Mn613 Mn 0.55985 0.38298 0.0798 0.0
C614 C 0.60737 0.41546 0.12414 0.0
C615 C 0.60987 0.53457 0.11573 0.0
C616 C 0.49861 0.42035 0.11594 0.0
O617 O 0.54843 0.49051 0.07579 0.0
O618 O 0.54385 0.42872 0.05734 0.0
C619 C 0.62344 0.39209 0.0404 0.0
N620 N 0.60675 0.3704 0.05981 0.0
C621 C 0.65637 0.31693 0.05494 0.0
C622 C 0.67401 0.33861 0.03481 0.0
C623 C 0.65756 0.37643 0.02758 0.0
C624 C 0.62261 0.33422 0.06711 0.0
H625 H 0.61076 0.4211 0.03477 0.0
C626 C 0.53872 0.46741 0.05709 0.0
O627 O 0.57282 0.52999 0.12381 0.0
O628 O 0.62542 0.50488 0.10265 0.0
N629 N 0.57337 0.33518 0.09888 0.0
C630 C 0.55261 0.31799 0.11856 0.0
C631 C 0.56507 0.27998 0.12806 0.0
C632 C 0.59808 0.25953 0.11685 0.0
C633 C 0.61831 0.27729 0.09619 0.0
C634 C 0.60449 0.31523 0.08753 0.0
H635 H 0.52672 0.33313 0.12695 0.0
O636 O 0.60249 0.44673 0.13886 0.0
O637 O 0.59349 0.41903 0.10108 0.0
O638 O 0.51918 0.4519 0.1219 0.0
O639 O 0.51067 0.39307 0.10037 0.0
C640 C 0.65188 0.25902 0.08398 0.0
C641 C 0.67105 0.27895 0.06347 0.0
H642 H 0.70026 0.32659 0.02483 0.0
H643 H 0.67108 0.39339 0.01212 0.0
H644 H 0.5493 0.26648 0.144 0.0
H645 H 0.60766 0.23027 0.12428 0.0
H646 H 0.6634 0.22982 0.09033 0.0
H647 H 0.69707 0.26477 0.05439 0.0
Mn648 Mn 0.79225 0.32271 0.35843 0.0
Mn649 Mn 0.8828 0.30628 0.32936 0.0
C650 C 0.85111 0.35286 0.37417 0.0
C651 C 0.73373 0.36265 0.36389 0.0
C652 C 0.8417 0.24453 0.36386 0.0
O653 O 0.77545 0.29792 0.32411 0.0
O654 O 0.83736 0.29444 0.3055 0.0
C655 C 0.87744 0.37479 0.29301 0.0
N656 N 0.8984 0.35426 0.31128 0.0
C657 C 0.95414 0.4018 0.30908 0.0
C658 C 0.93369 0.42275 0.28967 0.0
C659 C 0.89501 0.40938 0.28176 0.0
C660 C 0.93508 0.36755 0.31956 0.0
H661 H 0.84735 0.36512 0.28735 0.0
C662 C 0.79858 0.28982 0.30516 0.0
O663 O 0.73456 0.32492 0.37137 0.0
O664 O 0.76497 0.37536 0.35112 0.0
N665 N 0.93028 0.31602 0.34973 0.0
C666 C 0.94529 0.29335 0.36929 0.0
C667 C 0.98305 0.30367 0.38014 0.0
C668 C 1.00555 0.33647 0.37033 0.0
C669 C 0.99005 0.35866 0.34974 0.0
C670 C 0.95222 0.34697 0.33972 0.0
H671 H 0.92861 0.2676 0.37657 0.0
O672 O 0.81917 0.34895 0.38838 0.0
O673 O 0.84761 0.33959 0.35101 0.0
O674 O 0.81121 0.26629 0.37044 0.0
O675 O 0.86931 0.25607 0.34832 0.0
C676 C 0.01037 0.3923 0.33898 0.0
C677 C 0.99231 0.41402 0.31877 0.0
H678 H 0.94709 0.44952 0.28102 0.0
H679 H 0.87869 0.42581 0.26712 0.0
H680 H 0.99477 0.28645 0.39605 0.0
H681 H 0.03458 0.34446 0.37883 0.0
H682 H 0.03962 0.40208 0.34632 0.0
H683 H 0.00787 0.44029 0.31097 0.0
Mn684 Mn 0.93852 0.5408 0.6096 0.0
Mn685 Mn 0.95431 0.62962 0.57842 0.0
C686 C 0.90726 0.59985 0.62368 0.0
C687 C 0.90029 0.48138 0.61547 0.0
C688 C 0.01609 0.59114 0.61405 0.0
O689 O 0.96435 0.52266 0.57603 0.0
O690 O 0.96676 0.58312 0.55554 0.0
C691 C 0.88804 0.62339 0.54046 0.0
N692 N 0.9066 0.64412 0.55966 0.0
C693 C 0.85889 0.69954 0.5561 0.0
C694 C 0.83941 0.67893 0.53615 0.0
C695 C 0.85393 0.64058 0.52839 0.0
C696 C 0.89252 0.68073 0.56754 0.0
H697 H 0.89924 0.59399 0.53441 0.0
C698 C 0.97239 0.54453 0.55655 0.0
O699 O 0.93771 0.4838 0.62346 0.0
O700 O 0.88658 0.51197 0.60246 0.0
N701 N 0.94392 0.67777 0.59797 0.0
C702 C 0.96664 0.69405 0.61716 0.0
C703 C 0.95601 0.73228 0.62722 0.0
C704 C 0.92267 0.75375 0.61715 0.0
C705 C 0.9004 0.73688 0.59697 0.0
C706 C 0.91247 0.6987 0.58769 0.0
H707 H 0.99264 0.67798 0.62477 0.0
O708 O 0.91128 0.56884 0.63867 0.0
O709 O 0.921 0.59528 0.60069 0.0
O710 O 0.99438 0.56125 0.62159 0.0
O711 O 1.00451 0.61743 0.59768 0.0
C712 C 0.86677 0.75649 0.58566 0.0
C713 C 0.84595 0.73778 0.56529 0.0
H714 H 0.81312 0.6921 0.52678 0.0
H715 H 0.83893 0.62439 0.5131 0.0
H716 H 0.97345 0.74519 0.6427 0.0
H717 H 0.9145 0.78317 0.62501 0.0
H718 H 0.8566 0.78592 0.59251 0.0
H719 H 0.81996 0.75303 0.55686 0.0
Mn720 Mn 0.72376 0.32456 0.65914 0.0
Mn721 Mn 0.63455 0.30775 0.68976 0.0
C722 C 0.66453 0.35485 0.6445 0.0
C723 C 0.78293 0.36335 0.65372 0.0
C724 C 0.67431 0.24653 0.65433 0.0
O725 O 0.74156 0.29885 0.6928 0.0
O726 O 0.68085 0.29613 0.71298 0.0
C727 C 0.63966 0.37488 0.72717 0.0
N728 N 0.61915 0.35545 0.70822 0.0
C729 C 0.5633 0.40281 0.71101 0.0
C730 C 0.5837 0.4232 0.7307 0.0
C731 C 0.62212 0.40925 0.73874 0.0
C732 C 0.58239 0.36887 0.70013 0.0
H733 H 0.6692 0.36421 0.73337 0.0
C734 C 0.71949 0.29075 0.71218 0.0
O735 O 0.78101 0.32592 0.64572 0.0
O736 O 0.75195 0.37677 0.6665 0.0
N737 N 0.58644 0.31717 0.66996 0.0
C738 C 0.57088 0.29423 0.65064 0.0
C739 C 0.53266 0.30424 0.64032 0.0
C740 C 0.51042 0.33713 0.65029 0.0
C741 C 0.52658 0.35967 0.67057 0.0
C742 C 0.56478 0.34821 0.68013 0.0
H743 H 0.58757 0.26861 0.64307 0.0
O744 O 0.69605 0.35144 0.62985 0.0
O745 O 0.66879 0.34135 0.66758 0.0
O746 O 0.70405 0.26857 0.64695 0.0
O747 O 0.64776 0.25768 0.67066 0.0
C748 C 0.5065 0.39335 0.68151 0.0
C749 C 0.52495 0.41504 0.70161 0.0
H750 H 0.57027 0.4497 0.73968 0.0
H751 H 0.63813 0.42493 0.75384 0.0
H752 H 0.52043 0.28677 0.62464 0.0
H753 H 0.48107 0.3449 0.64216 0.0
H754 H 0.47705 0.40307 0.67443 0.0
H755 H 0.50941 0.44115 0.70968 0.0
Mn756 Mn 0.93982 0.47301 0.90967 0.0
Mn757 Mn 0.95537 0.38263 0.93908 0.0
C758 C 0.90901 0.41431 0.89428 0.0
C759 C 0.90049 0.53172 0.90402 0.0
C760 C 0.01743 0.4227 0.90432 0.0
O761 O 0.9647 0.49001 0.9439 0.0
O762 O 0.96797 0.42822 0.96265 0.0
C763 C 0.88735 0.38931 0.97574 0.0
N764 N 0.90731 0.36796 0.9574 0.0
C765 C 0.85943 0.31261 0.96037 0.0
C766 C 0.83923 0.33338 0.97996 0.0
C767 C 0.85299 0.37212 0.98747 0.0
C768 C 0.89342 0.33138 0.94936 0.0
H769 H 0.8973 0.41944 0.98108 0.0
C770 C 0.97273 0.46697 0.96289 0.0
O771 O 0.93819 0.5305 0.8965 0.0
O772 O 0.88745 0.50074 0.9169 0.0
N773 N 0.94478 0.33502 0.919 0.0
C774 C 0.96752 0.31904 0.89976 0.0
C775 C 0.95672 0.28114 0.88927 0.0
C776 C 0.92346 0.25944 0.89917 0.0
C777 C 0.90133 0.27583 0.91952 0.0
C778 C 0.91343 0.31379 0.92913 0.0
H779 H 0.99371 0.33504 0.89248 0.0
O780 O 0.91328 0.44592 0.87983 0.0
O781 O 0.92241 0.418 0.91738 0.0
O782 O 0.99605 0.45347 0.89778 0.0
O783 O 1.0056 0.39523 0.91987 0.0
C784 C 0.86768 0.25602 0.93063 0.0
C785 C 0.84663 0.27448 0.95096 0.0
H786 H 0.81263 0.32026 0.98898 0.0
H787 H 0.83704 0.38875 1.00217 0.0
H788 H 0.97394 0.26868 0.87358 0.0
H789 H 0.91521 0.23024 0.89101 0.0
H790 H 0.85758 0.22669 0.9236 0.0
H791 H 0.82045 0.25922 0.95911 0.0
Mn792 Mn 0.78953 0.68697 0.159 0.0
Mn793 Mn 0.88043 0.70297 0.18834 0.0
C794 C 0.84776 0.65379 0.14498 0.0
C795 C 0.7285 0.65138 0.15269 0.0
C796 C 0.84325 0.7624 0.15127 0.0
O797 O 0.77222 0.71343 0.19269 0.0
O798 O 0.83474 0.72188 0.2099 0.0
C799 C 0.86967 0.64314 0.22979 0.0
N800 N 0.89184 0.65762 0.20991 0.0
C801 C 0.94471 0.60806 0.21703 0.0
C802 C 0.92252 0.59268 0.23766 0.0
C803 C 0.88474 0.61016 0.24398 0.0
C804 C 0.92786 0.64056 0.20338 0.0
H805 H 0.84077 0.65673 0.23479 0.0
C806 C 0.79596 0.726 0.21037 0.0
O807 O 0.73319 0.68845 0.14467 0.0
O808 O 0.758 0.6361 0.16611 0.0
N809 N 0.92834 0.68713 0.17009 0.0
C810 C 0.94678 0.70675 0.15039 0.0
C811 C 0.98512 0.69341 0.14188 0.0
C812 C 1.00454 0.66067 0.15407 0.0
C813 C 0.98558 0.64179 0.17481 0.0
C814 C 0.94743 0.65651 0.18249 0.0
H815 H 0.93236 0.73241 0.14122 0.0
O816 O 0.81672 0.65858 0.13006 0.0
O817 O 0.84409 0.66824 0.16789 0.0
O818 O 0.81083 0.74234 0.14659 0.0
O819 O 0.87142 0.75042 0.16621 0.0
C820 C 1.00322 0.60921 0.18833 0.0
C821 C 0.98272 0.59223 0.20936 0.0
H822 H 0.93413 0.56738 0.24872 0.0
H823 H 0.86739 0.59838 0.25982 0.0
H824 H 0.99971 0.70836 0.12601 0.0
H825 H 0.0341 0.65049 0.14745 0.0
H826 H 0.03255 0.59698 0.18271 0.0
H827 H 0.99648 0.56705 0.21952 0.0
Mn828 Mn 0.5759 0.53847 0.40908 0.0
Mn829 Mn 0.5587 0.62876 0.43841 0.0
C830 C 0.60606 0.5975 0.39384 0.0
C831 C 0.61622 0.4801 0.4039 0.0
C832 C 0.49779 0.58777 0.4031 0.0
O833 O 0.55044 0.52139 0.4431 0.0
O834 O 0.54653 0.58312 0.46198 0.0
C835 C 0.62633 0.62342 0.47551 0.0
N836 N 0.6063 0.64431 0.457 0.0
C837 C 0.65328 0.70042 0.46018 0.0
C838 C 0.67356 0.6801 0.47991 0.0
C839 C 0.66027 0.64122 0.48742 0.0
C840 C 0.61971 0.68106 0.44899 0.0
H841 H 0.61674 0.59321 0.48086 0.0
C842 C 0.54203 0.54435 0.46209 0.0
O843 O 0.57868 0.48087 0.39599 0.0
O844 O 0.62845 0.51135 0.41687 0.0
N845 N 0.56876 0.67645 0.41836 0.0
C846 C 0.54601 0.69196 0.39897 0.0
C847 C 0.55642 0.72989 0.38845 0.0
C848 C 0.5892 0.75219 0.39852 0.0
C849 C 0.61131 0.73629 0.41904 0.0
C850 C 0.59967 0.69822 0.42864 0.0
H851 H 0.52016 0.67552 0.39156 0.0
O852 O 0.60267 0.56568 0.37946 0.0
O853 O 0.5924 0.59378 0.41687 0.0
O854 O 0.51971 0.55734 0.39662 0.0
O855 O 0.50893 0.61526 0.41889 0.0
C856 C 0.64456 0.75667 0.43029 0.0
C857 C 0.66563 0.73868 0.45077 0.0
H858 H 0.69984 0.69369 0.48908 0.0
H859 H 0.67628 0.62495 0.50226 0.0
H860 H 0.53935 0.74188 0.37256 0.0
H861 H 0.59716 0.78142 0.39033 0.0
H862 H 0.65436 0.78606 0.42321 0.0
H863 H 0.6915 0.75438 0.45903 0.0
Mn864 Mn 0.30271 0.30823 0.16344 0.0
Mn865 Mn 0.30632 0.39456 0.19794 0.0
C866 C 0.34616 0.35995 0.15171 0.0
C867 C 0.32696 0.24225 0.15665 0.0
C868 C 0.23855 0.37603 0.16023 0.0
O869 O 0.27615 0.2916 0.1967 0.0
O870 O 0.28299 0.34981 0.21922 0.0
C871 C 0.36724 0.37048 0.23668 0.0
N872 N 0.35556 0.39559 0.21742 0.0
C873 C 0.41773 0.43423 0.22076 0.0
C874 C 0.43026 0.40896 0.24076 0.0
C875 C 0.40493 0.37692 0.24872 0.0
C876 C 0.37967 0.42659 0.20965 0.0
H877 H 0.348 0.34567 0.24281 0.0
C878 C 0.27283 0.31216 0.21715 0.0
O879 O 0.29172 0.25363 0.14778 0.0
O880 O 0.34719 0.26885 0.1697 0.0
N881 N 0.32925 0.43939 0.17956 0.0
C882 C 0.31328 0.46026 0.15951 0.0
C883 C 0.33543 0.49256 0.14879 0.0
C884 C 0.37369 0.50314 0.15882 0.0
C885 C 0.38937 0.48145 0.17957 0.0
C886 C 0.36578 0.44973 0.18958 0.0
H887 H 0.28401 0.45215 0.15159 0.0
O888 O 0.33475 0.33273 0.13531 0.0
O889 O 0.33171 0.35586 0.17456 0.0
O890 O 0.25248 0.3418 0.15246 0.0
O891 O 0.25532 0.39693 0.17788 0.0
C892 C 0.42771 0.48973 0.19051 0.0
C893 C 0.44185 0.46619 0.21111 0.0
H894 H 0.45945 0.41361 0.24995 0.0
H895 H 0.4145 0.35713 0.26403 0.0
H896 H 0.32315 0.50911 0.13275 0.0
H897 H 0.39083 0.52787 0.15037 0.0
H898 H 0.44669 0.51399 0.18312 0.0
H899 H 0.47149 0.47268 0.21925 0.0
Mn900 Mn 0.45275 0.55204 0.91376 0.0
Mn901 Mn 0.36661 0.55651 0.94806 0.0
C902 C 0.40135 0.59571 0.9015 0.0
C903 C 0.51903 0.57545 0.90744 0.0
C904 C 0.38694 0.48696 0.91175 0.0
O905 O 0.46803 0.52458 0.94707 0.0
O906 O 0.41265 0.53921 0.97098 0.0
C907 C 0.38311 0.62296 0.98481 0.0
N908 N 0.36102 0.60786 0.96505 0.0
C909 C 0.3182 0.6675 0.96456 0.0
C910 C 0.34075 0.68371 0.9848 0.0
C911 C 0.37332 0.66128 0.995 0.0
C912 C 0.32913 0.6289 0.95539 0.0
H913 H 0.40781 0.60577 0.99279 0.0
C914 C 0.44949 0.52632 0.96835 0.0
O915 O 0.50737 0.54034 0.89854 0.0
O916 O 0.49259 0.59597 0.92045 0.0
N917 N 0.32138 0.5742 0.92765 0.0
C918 C 0.30305 0.55482 0.90776 0.0
C919 C 0.27047 0.57369 0.89509 0.0
C920 C 0.25685 0.61221 0.903 0.0
C921 C 0.27596 0.63152 0.92357 0.0
C922 C 0.30825 0.61117 0.93554 0.0
H923 H 0.31328 0.52531 0.90141 0.0
O924 O 0.42911 0.58453 0.88543 0.0
O925 O 0.40505 0.5813 0.92437 0.0
O926 O 0.41922 0.5026 0.90243 0.0
O927 O 0.36779 0.50268 0.93054 0.0
C928 C 0.26461 0.67044 0.93239 0.0
C929 C 0.28563 0.68836 0.95293 0.0
H930 H 0.33348 0.71342 0.99257 0.0
H931 H 0.39087 0.67351 0.01066 0.0
H932 H 0.25606 0.55868 0.87913 0.0
H933 H 0.23189 0.62679 0.89305 0.0
H934 H 0.23987 0.68695 0.92344 0.0
H935 H 0.27669 0.71835 0.95951 0.0
Mn936 Mn 0.21361 0.70205 0.66209 0.0
Mn937 Mn 0.20525 0.61674 0.69679 0.0
C938 C 0.16872 0.65187 0.64952 0.0
C939 C 0.19206 0.76889 0.65531 0.0
C940 C 0.27609 0.63341 0.66082 0.0
O941 O 0.24076 0.71706 0.69558 0.0
O942 O 0.22567 0.66184 0.71913 0.0
C943 C 0.13873 0.64206 0.73137 0.0
N944 N 0.15378 0.61553 0.71382 0.0
C945 C 0.09191 0.57609 0.71457 0.0
C946 C 0.07624 0.60236 0.73317 0.0
C947 C 0.0997 0.63559 0.74152 0.0
C948 C 0.1313 0.58366 0.70546 0.0
H949 H 0.15613 0.66826 0.73733 0.0
C950 C 0.23938 0.69833 0.71681 0.0
O951 O 0.22706 0.75625 0.64677 0.0
O952 O 0.1707 0.74315 0.66829 0.0
N953 N 0.1848 0.57164 0.67742 0.0
C954 C 0.2027 0.55146 0.65772 0.0
C955 C 0.18202 0.51902 0.64601 0.0
C956 C 0.14325 0.50751 0.65471 0.0
C957 C 0.1255 0.52856 0.67508 0.0
C958 C 0.14769 0.56045 0.68615 0.0
H959 H 0.23234 0.56024 0.65076 0.0
O960 O 0.18109 0.67914 0.63348 0.0
O961 O 0.18257 0.65547 0.67254 0.0
O962 O 0.26234 0.66661 0.65148 0.0
O963 O 0.25867 0.61437 0.67904 0.0
C964 C 0.0862 0.51981 0.68437 0.0
C965 C 0.06944 0.54352 0.70412 0.0
H966 H 0.04592 0.59779 0.74079 0.0
H967 H 0.08753 0.65643 0.75554 0.0
H968 H 0.19576 0.50316 0.63016 0.0
H969 H 0.12719 0.48278 0.64543 0.0
H970 H 0.06832 0.49536 0.67616 0.0
H971 H 0.03891 0.53697 0.71079 0.0
Mn972 Mn 0.06268 0.46125 0.41422 0.0
Mn973 Mn 0.14771 0.4567 0.44965 0.0
C974 C 0.11462 0.41764 0.40276 0.0
C975 C 0.99653 0.43751 0.40721 0.0
C976 C 0.13018 0.52519 0.41215 0.0
O977 O 0.04605 0.48894 0.44722 0.0
O978 O 0.10175 0.47725 0.47114 0.0
C979 C 0.12234 0.39121 0.48496 0.0
N980 N 0.14917 0.40595 0.46751 0.0
C981 C 0.18897 0.34435 0.46932 0.0
C982 C 0.1624 0.32906 0.48785 0.0
C983 C 0.12883 0.35253 0.4956 0.0
C984 C 0.18127 0.38336 0.45964 0.0
H985 H 0.09585 0.40856 0.49045 0.0
C986 C 0.06473 0.48932 0.46851 0.0
O987 O 0.00833 0.47251 0.39824 0.0
O988 O 0.02278 0.41729 0.42052 0.0
N989 N 0.19373 0.43618 0.4312 0.0
C990 C 0.21485 0.45403 0.41189 0.0
C991 C 0.24812 0.43351 0.40104 0.0
C992 C 0.25947 0.39496 0.41018 0.0
C993 C 0.23756 0.37734 0.4302 0.0
C994 C 0.20491 0.3994 0.44046 0.0
H995 H 0.20622 0.48352 0.40461 0.0
O996 O 0.08733 0.4285 0.38628 0.0
O997 O 0.11 0.43216 0.42551 0.0
O998 O 0.09691 0.51061 0.40334 0.0
O999 O 0.14955 0.50925 0.4308 0.0
C1000 C 0.24635 0.33839 0.44002 0.0
C1001 C 0.22208 0.32191 0.45957 0.0
H1002 H 0.16705 0.29904 0.49589 0.0
H1003 H 0.10776 0.34064 0.50955 0.0
H1004 H 0.26469 0.44718 0.38548 0.0
H1005 H 0.28485 0.37902 0.40154 0.0
H1006 H 0.27136 0.3206 0.43243 0.0
H1007 H 0.22875 0.29167 0.46669 0.0
Mn1008 Mn 0.30173 0.70106 0.3558 0.0
Mn1009 Mn 0.30717 0.61725 0.31932 0.0
C1010 C 0.34672 0.64997 0.36651 0.0
C1011 C 0.32375 0.76758 0.36327 0.0
C1012 C 0.23857 0.63297 0.35718 0.0
O1013 O 0.27329 0.7179 0.32318 0.0
O1014 O 0.28574 0.66349 0.29829 0.0
C1015 C 0.37028 0.64204 0.28221 0.0
N1016 N 0.35725 0.61622 0.30075 0.0
C1017 C 0.41846 0.57609 0.29743 0.0
C1018 C 0.43224 0.60193 0.27807 0.0
C1019 C 0.40809 0.63512 0.27048 0.0
C1020 C 0.38028 0.5842 0.3082 0.0
H1021 H 0.35206 0.66782 0.27645 0.0
C1022 C 0.27293 0.70013 0.30162 0.0
O1023 O 0.28917 0.75461 0.37224 0.0
O1024 O 0.34461 0.74222 0.34965 0.0
N1025 N 0.32866 0.57134 0.33742 0.0
C1026 C 0.31184 0.55028 0.35711 0.0
C1027 C 0.3331 0.51726 0.3677 0.0
C1028 C 0.37129 0.50606 0.35789 0.0
C1029 C 0.38788 0.52799 0.33754 0.0
C1030 C 0.36525 0.56056 0.32769 0.0
H1031 H 0.28261 0.55875 0.36485 0.0
O1032 O 0.33531 0.67656 0.38329 0.0
O1033 O 0.33185 0.6547 0.34379 0.0
O1034 O 0.25309 0.66573 0.36669 0.0
O1035 O 0.25495 0.61443 0.33839 0.0
C1036 C 0.42629 0.51918 0.3269 0.0
C1037 C 0.44151 0.54313 0.30681 0.0
H1038 H 0.46157 0.59693 0.26914 0.0
H1039 H 0.41869 0.65544 0.25573 0.0
H1040 H 0.32021 0.50065 0.3835 0.0
H1041 H 0.38771 0.48074 0.36623 0.0
H1042 H 0.4445 0.49422 0.33416 0.0
H1043 H 0.47121 0.53624 0.29892 0.0
Mn1044 Mn 0.06117 0.54784 0.10709 0.0
Mn1045 Mn 0.14486 0.55531 0.07073 0.0
C1046 C 0.11228 0.59227 0.11877 0.0
C1047 C 0.9944 0.56934 0.11458 0.0
C1048 C 0.12923 0.48458 0.10701 0.0
O1049 O 0.04458 0.52078 0.074 0.0
O1050 O 0.09851 0.53535 0.04919 0.0
C1051 C 0.11919 0.6215 0.03602 0.0
N1052 N 0.1458 0.60667 0.0536 0.0
C1053 C 0.18561 0.66826 0.05222 0.0
C1054 C 0.15894 0.68393 0.03384 0.0
C1055 C 0.12554 0.66046 0.02575 0.0
C1056 C 0.17804 0.62901 0.06154 0.0
H1057 H 0.09315 0.60386 0.02999 0.0
C1058 C 0.06214 0.52177 0.05241 0.0
O1059 O 0.0074 0.53447 0.12311 0.0
O1060 O 0.01991 0.59086 0.10151 0.0
N1061 N 0.19103 0.57533 0.08927 0.0
C1062 C 0.21217 0.55711 0.10846 0.0
C1063 C 0.2454 0.57745 0.11953 0.0
C1064 C 0.25664 0.61624 0.11075 0.0
C1065 C 0.23462 0.63431 0.0909 0.0
C1066 C 0.20198 0.61243 0.08043 0.0
H1067 H 0.20362 0.52743 0.11546 0.0
O1068 O 0.08552 0.58023 0.13526 0.0
O1069 O 0.10756 0.57847 0.09579 0.0
O1070 O 0.09672 0.49881 0.11703 0.0
O1071 O 0.14754 0.50183 0.08844 0.0
C1072 C 0.24321 0.67356 0.08148 0.0
C1073 C 0.21875 0.6905 0.06214 0.0
H1074 H 0.16348 0.71415 0.02607 0.0
H1075 H 0.10459 0.67251 0.01175 0.0
H1076 H 0.26212 0.56338 0.13493 0.0
H1077 H 0.28202 0.63202 0.11953 0.0
H1078 H 0.26821 0.69121 0.08924 0.0
H1079 H 0.22531 0.72094 0.05532 0.0
Mn1080 Mn 0.21398 0.31108 0.85644 0.0
Mn1081 Mn 0.20838 0.39611 0.82104 0.0
C1082 C 0.16989 0.36247 0.86809 0.0
C1083 C 0.19117 0.24494 0.86402 0.0
C1084 C 0.27785 0.37884 0.85793 0.0
O1085 O 0.24021 0.2941 0.82311 0.0
O1086 O 0.22996 0.35058 0.79958 0.0
C1087 C 0.14548 0.37214 0.78349 0.0
N1088 N 0.15821 0.39729 0.80251 0.0
C1089 C 0.09648 0.43676 0.79992 0.0
C1090 C 0.08287 0.41146 0.78018 0.0
C1091 C 0.10746 0.37898 0.77197 0.0
C1092 C 0.13486 0.42876 0.81048 0.0
H1093 H 0.16416 0.34702 0.77714 0.0
C1094 C 0.24099 0.3132 0.80202 0.0
O1095 O 0.22641 0.25719 0.87241 0.0
O1096 O 0.17013 0.27074 0.85084 0.0
N1097 N 0.18671 0.44141 0.83966 0.0
C1098 C 0.20358 0.46213 0.85951 0.0
C1099 C 0.18209 0.49461 0.87058 0.0
C1100 C 0.14362 0.5056 0.86107 0.0
C1101 C 0.12698 0.48402 0.84054 0.0
C1102 C 0.14986 0.45201 0.83021 0.0
H1103 H 0.23302 0.45374 0.86704 0.0
O1104 O 0.18199 0.33578 0.88461 0.0
O1105 O 0.18398 0.35798 0.84516 0.0
O1106 O 0.26381 0.34545 0.8668 0.0
O1107 O 0.26058 0.39865 0.84 0.0
C1108 C 0.08832 0.49265 0.83018 0.0
C1109 C 0.07313 0.46911 0.80983 0.0
H1110 H 0.05341 0.41641 0.7714 0.0
H1111 H 0.09706 0.35917 0.75685 0.0
H1112 H 0.19501 0.51096 0.88652 0.0
H1113 H 0.12702 0.5305 0.86978 0.0
H1114 H 0.06989 0.51715 0.83781 0.0
H1115 H 0.04325 0.47588 0.80213 0.0
Mn1116 Mn 0.45096 0.45988 0.60468 0.0
Mn1117 Mn 0.36708 0.45707 0.56808 0.0
C1118 C 0.39852 0.41627 0.61502 0.0
C1119 C 0.51691 0.43611 0.61207 0.0
C1120 C 0.38411 0.52441 0.6066 0.0
O1121 O 0.46866 0.48831 0.57228 0.0
O1122 O 0.41387 0.47782 0.54729 0.0
C1123 C 0.39138 0.39355 0.53102 0.0
N1124 N 0.36532 0.40714 0.5493 0.0
C1125 C 0.32454 0.34638 0.54588 0.0
C1126 C 0.35056 0.33209 0.52674 0.0
C1127 C 0.3842 0.35573 0.51934 0.0
C1128 C 0.33293 0.38454 0.55663 0.0
H1129 H 0.41761 0.41126 0.52552 0.0
C1130 C 0.45082 0.48964 0.55076 0.0
O1131 O 0.50477 0.47084 0.6213 0.0
O1132 O 0.49101 0.41602 0.59838 0.0
N1133 N 0.32055 0.4363 0.58589 0.0
C1134 C 0.29938 0.45351 0.60542 0.0
C1135 C 0.2658 0.43285 0.61576 0.0
C1136 C 0.25418 0.39482 0.60587 0.0
C1137 C 0.27622 0.37782 0.58567 0.0
C1138 C 0.30928 0.39993 0.57602 0.0
H1139 H 0.30817 0.48262 0.61325 0.0
O1140 O 0.42537 0.4266 0.63193 0.0
O1141 O 0.40385 0.4313 0.59243 0.0
O1142 O 0.41682 0.50917 0.61572 0.0
O1143 O 0.3652 0.50905 0.58757 0.0
C1144 C 0.26705 0.3395 0.57501 0.0
C1145 C 0.29114 0.32382 0.5551 0.0
H1146 H 0.34536 0.30274 0.51786 0.0
H1147 H 0.40471 0.34469 0.5048 0.0
H1148 H 0.24908 0.44607 0.63144 0.0
H1149 H 0.22846 0.37883 0.61404 0.0
H1150 H 0.24172 0.32168 0.58212 0.0
H1151 H 0.28401 0.29416 0.54721 0.0
C1152 C 0.13267 0.34567 0.41129 0.0
C1153 C 0.13952 0.38153 0.39733 0.0
C1154 C 0.14752 0.30806 0.4027 0.0
C1155 C 0.16972 0.30537 0.37999 0.0
H1156 H 0.11328 0.34624 0.42793 0.0
H1157 H 0.13918 0.28063 0.4129 0.0
S1158 S 0.19852 0.39075 0.33778 0.0
N1159 N 0.17153 0.41239 0.36058 0.0
N1160 N 0.20044 0.34168 0.34475 0.0
C1161 C 0.17888 0.34127 0.36675 0.0
C1162 C 0.16332 0.37942 0.3753 0.0
C1163 C 0.95364 0.89366 0.65113 0.0
C1164 C 0.95655 0.91646 0.62867 0.0
C1165 C 0.91584 0.87922 0.65961 0.0
C1166 C 0.88 0.88702 0.64578 0.0
H1167 H 0.98099 0.88472 0.66126 0.0
H1168 H 0.91504 0.85952 0.6761 0.0
S1169 S 0.8714 0.94756 0.58679 0.0
N1170 N 0.92054 0.94858 0.59375 0.0
N1171 N 0.84945 0.92032 0.60932 0.0
C1172 C 0.88237 0.91124 0.62394 0.0
C1173 C 0.92073 0.92644 0.61553 0.0
C1174 C 0.35431 0.63393 0.87318 0.0
C1175 C 0.37733 0.6323 0.89567 0.0
C1176 C 0.33893 0.6711 0.86413 0.0
C1177 C 0.34628 0.70758 0.87734 0.0
H1178 H 0.34989 0.60663 0.86191 0.0
H1179 H 0.32322 0.67167 0.84603 0.0
S1180 S 0.40685 0.71998 0.9361 0.0
N1181 N 0.40832 0.67057 0.93015 0.0
N1182 N 0.37789 0.74007 0.91371 0.0
C1183 C 0.36801 0.70615 0.90023 0.0
C1184 C 0.38409 0.66853 0.90924 0.0
C1185 C 0.56212 0.11253 0.1501 0.0
C1186 C 0.55962 0.09298 0.12643 0.0
C1187 C 0.59916 0.12887 0.15868 0.0
C1188 C 0.63486 0.12528 0.14409 0.0
H1189 H 0.53476 0.11784 0.16115 0.0
H1190 H 0.59929 0.14663 0.17603 0.0
S1191 S 0.64446 0.07429 0.08162 0.0
N1192 N 0.5958 0.06921 0.0891 0.0
N1193 N 0.66575 0.09917 0.1055 0.0
C1194 C 0.63301 0.10403 0.12099 0.0
C1195 C 0.59528 0.08782 0.11215 0.0
C1196 C 0.14861 0.70117 0.11913 0.0
C1197 C 0.16853 0.70383 0.14268 0.0
C1198 C 0.13277 0.66393 0.11054 0.0
C1199 C 0.13734 0.62814 0.12493 0.0
H1200 H 0.14271 0.7285 0.10818 0.0
H1201 H 0.11472 0.66366 0.09331 0.0
S1202 S 0.1895 0.61897 0.18705 0.0
N1203 N 0.19352 0.66778 0.17974 0.0
N1204 N 0.16468 0.59742 0.16324 0.0
C1205 C 0.1589 0.6302 0.14791 0.0
C1206 C 0.17451 0.66816 0.15682 0.0
C1207 C 0.59246 0.92337 0.40397 0.0
C1208 C 0.55569 0.91564 0.39116 0.0
C1209 C 0.62956 0.90831 0.39457 0.0
C1210 C 0.63089 0.88519 0.3721 0.0
H1211 H 0.59222 0.93924 0.42202 0.0
H1212 H 0.65711 0.91312 0.40554 0.0
S1213 S 0.54234 0.85461 0.33265 0.0
N1214 N 0.52256 0.88351 0.35518 0.0
N1215 N 0.59193 0.8536 0.33811 0.0
C1216 C 0.59432 0.87796 0.35894 0.0
C1217 C 0.55675 0.89373 0.36832 0.0
C1218 C 0.33271 0.34164 0.65045 0.0
C1219 C 0.34145 0.30493 0.63785 0.0
C1220 C 0.34863 0.37872 0.64164 0.0
C1221 C 0.3734 0.38007 0.61991 0.0
H1222 H 0.31598 0.34129 0.66818 0.0
H1223 H 0.34346 0.40613 0.65267 0.0
S1224 S 0.40585 0.29195 0.5808 0.0
N1225 N 0.37571 0.27204 0.6026 0.0
N1226 N 0.40659 0.34148 0.58642 0.0
C1227 C 0.38103 0.34371 0.60667 0.0
C1228 C 0.36466 0.30613 0.61554 0.0
C1229 C 0.92198 0.0892 0.904 0.0
C1230 C 0.95854 0.09814 0.89132 0.0
C1231 C 0.88467 0.10447 0.89507 0.0
C1232 C 0.88296 0.12886 0.87317 0.0
H1233 H 0.92254 0.07216 0.92161 0.0
H1234 H 0.85724 0.09869 0.90594 0.0
S1235 S 0.97082 0.16295 0.83443 0.0
N1236 N 0.99111 0.13295 0.8562 0.0
N1237 N 0.92125 0.16295 0.83993 0.0
C1238 C 0.91933 0.13734 0.86016 0.0
C1239 C 0.95712 0.12149 0.86909 0.0
C1240 C 0.89661 0.65753 0.65338 0.0
C1241 C 0.88369 0.63543 0.63208 0.0
C1242 C 0.87536 0.69224 0.66137 0.0
C1243 C 0.83973 0.70531 0.64879 0.0
H1244 H 0.92425 0.64888 0.6633 0.0
H1245 H 0.88764 0.70951 0.67716 0.0
S1246 S 0.7885 0.65155 0.59557 0.0
N1247 N 0.83014 0.62455 0.60098 0.0
N1248 N 0.78951 0.68962 0.61613 0.0
C1249 C 0.82467 0.68124 0.62874 0.0
C1250 C 0.84679 0.64622 0.62038 0.0
C1251 C 0.10916 0.14406 0.40502 0.0
C1252 C 0.12976 0.13333 0.38269 0.0
C1253 C 0.07454 0.12242 0.41278 0.0
C1254 C 0.06024 0.08851 0.39894 0.0
H1255 H 0.11861 0.17058 0.4158 0.0
H1256 H 0.05815 0.13318 0.42933 0.0
S1257 S 0.11026 0.04261 0.34258 0.0
N1258 N 0.13815 0.0832 0.34919 0.0
N1259 N 0.07346 0.04175 0.36398 0.0
C1260 C 0.08311 0.07526 0.37791 0.0
C1261 C 0.11791 0.09784 0.36977 0.0
C1262 C 0.66529 0.36643 0.12001 0.0
C1263 C 0.63065 0.38004 0.13321 0.0
C1264 C 0.68678 0.33172 0.1281 0.0
C1265 C 0.6741 0.30967 0.1496 0.0
H1266 H 0.67514 0.38204 0.10297 0.0
H1267 H 0.71204 0.32096 0.11668 0.0
S1268 S 0.58914 0.33756 0.19288 0.0
N1269 N 0.5879 0.3726 0.17042 0.0
N1270 N 0.62753 0.30718 0.18559 0.0
C1271 C 0.64125 0.32503 0.16394 0.0
C1272 C 0.61982 0.36046 0.15581 0.0
C1273 C 0.43362 0.93388 0.87756 0.0
C1274 C 0.45484 0.92138 0.89946 0.0
C1275 C 0.3992 0.91238 0.86898 0.0
C1276 C 0.38508 0.87784 0.88205 0.0
H1277 H 0.44474 0.95915 0.8663 0.0
H1278 H 0.38407 0.92228 0.85176 0.0
S1279 S 0.42551 0.8366 0.9424 0.0
N1280 N 0.45621 0.87488 0.93547 0.0
N1281 N 0.39124 0.83527 0.91944 0.0
C1282 C 0.40396 0.86704 0.90492 0.0
C1283 C 0.43911 0.88848 0.91353 0.0
C1284 C 0.89765 0.3572 0.86414 0.0
C1285 C 0.8849 0.37934 0.88545 0.0
C1286 C 0.87622 0.32256 0.85618 0.0
C1287 C 0.84062 0.30959 0.86882 0.0
H1288 H 0.92538 0.36563 0.85429 0.0
H1289 H 0.88846 0.30513 0.84046 0.0
S1290 S 0.78956 0.36391 0.92181 0.0
N1291 N 0.83135 0.39064 0.91644 0.0
N1292 N 0.7904 0.32573 0.90132 0.0
C1293 C 0.82561 0.33387 0.88876 0.0
C1294 C 0.8479 0.36882 0.89708 0.0
C1295 C 0.39687 0.10203 0.64959 0.0
C1296 C 0.38232 0.13569 0.63579 0.0
C1297 C 0.43141 0.08035 0.64144 0.0
C1298 C 0.45235 0.09184 0.61926 0.0
H1299 H 0.38206 0.09307 0.6671 0.0
H1300 H 0.44291 0.05591 0.65325 0.0
S1301 S 0.4219 0.17384 0.57451 0.0
N1302 N 0.38778 0.17616 0.59748 0.0
N1303 N 0.45297 0.13622 0.58221 0.0
C1304 C 0.43614 0.1237 0.60445 0.0
C1305 C 0.40085 0.14531 0.61264 0.0
C1306 C 0.6365 0.68971 0.35556 0.0
C1307 C 0.67182 0.70356 0.36817 0.0
C1308 C 0.61593 0.65462 0.36359 0.0
C1309 C 0.62923 0.63301 0.38498 0.0
H1310 H 0.6239 0.7067 0.33977 0.0
H1311 H 0.58841 0.64542 0.35373 0.0
S1312 S 0.72414 0.65108 0.42142 0.0
N1313 N 0.72241 0.68896 0.40079 0.0
N1314 N 0.68298 0.62332 0.41608 0.0
C1315 C 0.66595 0.64452 0.39663 0.0
C1316 C 0.6874 0.67986 0.3882 0.0
C1317 C 0.11624 0.91058 0.14726 0.0
C1318 C 0.12974 0.87553 0.1344 0.0
C1319 C 0.0815 0.9319 0.13902 0.0
C1320 C 0.0593 0.91873 0.11765 0.0
H1321 H 0.1321 0.921 0.16411 0.0
H1322 H 0.07099 0.95763 0.15012 0.0
S1323 S 0.08621 0.83178 0.07557 0.0
N1324 N 0.12155 0.83127 0.09791 0.0
N1325 N 0.0561 0.87061 0.0824 0.0
C1326 C 0.07428 0.88512 0.10378 0.0
C1327 C 0.10973 0.86383 0.11208 0.0
C1328 C 0.64973 0.81005 0.89977 0.0
C1329 C 0.66899 0.8072 0.87605 0.0
C1330 C 0.63386 0.84729 0.90829 0.0
C1331 C 0.63764 0.88286 0.89359 0.0
H1332 H 0.64431 0.78284 0.91092 0.0
H1333 H 0.61638 0.84772 0.92572 0.0
S1334 S 0.68772 0.89147 0.83086 0.0
N1335 N 0.69246 0.84284 0.83847 0.0
N1336 N 0.66342 0.9132 0.85478 0.0
C1337 C 0.65847 0.88063 0.8704 0.0
C1338 C 0.6742 0.84269 0.86161 0.0
C1339 C 0.42299 0.42149 0.11503 0.0
C1340 C 0.45922 0.41336 0.12831 0.0
C1341 C 0.38549 0.4066 0.12382 0.0
C1342 C 0.38323 0.38343 0.1462 0.0
H1343 H 0.42397 0.43753 0.09707 0.0
H1344 H 0.35838 0.41159 0.11247 0.0
S1345 S 0.47002 0.35221 0.18689 0.0
N1346 N 0.49086 0.38083 0.16463 0.0
N1347 N 0.42063 0.35163 0.18075 0.0
C1348 C 0.41923 0.37592 0.15988 0.0
C1349 C 0.45724 0.39134 0.15104 0.0
C1350 C 0.85626 0.13143 0.37174 0.0
C1351 C 0.87871 0.12933 0.39445 0.0
C1352 C 0.84119 0.16879 0.36277 0.0
C1353 C 0.84816 0.20504 0.3763 0.0
H1354 H 0.85202 0.10433 0.36026 0.0
H1355 H 0.82592 0.16968 0.34453 0.0
S1356 S 0.9075 0.21637 0.43564 0.0
N1357 N 0.90913 0.16707 0.42935 0.0
N1358 N 0.87893 0.23683 0.41319 0.0
C1359 C 0.86936 0.20316 0.39938 0.0
C1360 C 0.88527 0.16537 0.40827 0.0
C1361 C 0.09686 0.63223 0.65767 0.0
C1362 C 0.13246 0.62768 0.64308 0.0
C1363 C 0.05939 0.61693 0.64909 0.0
C1364 C 0.05637 0.59754 0.62541 0.0
H1365 H 0.0975 0.64978 0.6751 0.0
H1366 H 0.03223 0.62271 0.66023 0.0
S1367 S 0.14056 0.57705 0.58043 0.0
N1368 N 0.16256 0.60117 0.60436 0.0
N1369 N 0.0918 0.57322 0.58793 0.0
C1370 C 0.09182 0.5917 0.61103 0.0
C1371 C 0.12998 0.60682 0.61988 0.0
C1372 C 0.632 0.1673 0.61027 0.0
C1373 C 0.63609 0.13144 0.62464 0.0
C1374 C 0.64816 0.20431 0.61896 0.0
C1375 C 0.66797 0.20659 0.64255 0.0
H1376 H 0.61403 0.16727 0.593 0.0
H1377 H 0.64253 0.23177 0.60808 0.0
S1378 S 0.68783 0.12136 0.68683 0.0
N1379 N 0.66286 0.1002 0.66295 0.0
N1380 N 0.69244 0.17014 0.6796 0.0
C1381 C 0.67356 0.17082 0.65663 0.0
C1382 C 0.65756 0.13311 0.64766 0.0
C1383 C 0.13064 0.40913 0.89615 0.0
C1384 C 0.13275 0.38588 0.87376 0.0
C1385 C 0.09319 0.424 0.9051 0.0
C1386 C 0.05686 0.41596 0.89189 0.0
H1387 H 0.15784 0.41417 0.90742 0.0
H1388 H 0.09232 0.43999 0.9231 0.0
S1389 S 0.04555 0.35452 0.83339 0.0
N1390 N 0.09498 0.35381 0.83942 0.0
N1391 N 0.02496 0.38348 0.8556 0.0
C1392 C 0.0587 0.39396 0.86911 0.0
C1393 C 0.09662 0.37833 0.86021 0.0
C1394 C 0.88652 0.84316 0.10867 0.0
C1395 C 0.87794 0.87899 0.12234 0.0
C1396 C 0.87229 0.80525 0.11709 0.0
C1397 C 0.84898 0.80227 0.13933 0.0
H1398 H 0.90649 0.84413 0.0923 0.0
H1399 H 0.88151 0.77795 0.10702 0.0
S1400 S 0.81596 0.88724 0.18076 0.0
N1401 N 0.84359 0.90935 0.15847 0.0
N1402 N 0.81562 0.83808 0.17387 0.0
C1403 C 0.83841 0.83801 0.15236 0.0
C1404 C 0.85339 0.87646 0.14402 0.0
C1405 C 0.42207 0.58657 0.40324 0.0
C1406 C 0.45862 0.5943 0.39026 0.0
C1407 C 0.3849 0.60198 0.39417 0.0
C1408 C 0.38329 0.62554 0.37192 0.0
H1409 H 0.42257 0.57054 0.42121 0.0
H1410 H 0.35756 0.59727 0.40533 0.0
S1411 S 0.47122 0.65607 0.33209 0.0
N1412 N 0.49124 0.62659 0.35423 0.0
N1413 N 0.42176 0.6574 0.33791 0.0
C1414 C 0.41961 0.63265 0.35853 0.0
C1415 C 0.45724 0.61641 0.36752 0.0
C1416 C 0.35336 0.14527 0.12096 0.0
C1417 C 0.38858 0.13193 0.13369 0.0
C1418 C 0.33202 0.17991 0.12928 0.0
C1419 C 0.34537 0.2022 0.15058 0.0
H1420 H 0.34278 0.12932 0.10418 0.0
H1421 H 0.30609 0.19027 0.11829 0.0
S1422 S 0.43288 0.17573 0.1923 0.0
N1423 N 0.43323 0.14032 0.17 0.0
N1424 N 0.39389 0.20571 0.1856 0.0
C1425 C 0.37918 0.18741 0.16431 0.0
C1426 C 0.40048 0.15201 0.15595 0.0
C1427 C 0.58068 0.5802 0.8796 0.0
C1428 C 0.55906 0.59358 0.90114 0.0
C1429 C 0.61514 0.60141 0.87095 0.0
C1430 C 0.62894 0.63654 0.88356 0.0
H1431 H 0.56991 0.55435 0.86869 0.0
H1432 H 0.63059 0.59078 0.85401 0.0
S1433 S 0.58703 0.68082 0.94267 0.0
N1434 N 0.5567 0.64198 0.93623 0.0
N1435 N 0.6218 0.6811 0.92002 0.0
C1436 C 0.60957 0.64844 0.90605 0.0
C1437 C 0.57434 0.62728 0.91475 0.0
C1438 C 0.14048 0.82339 0.66255 0.0
C1439 C 0.17457 0.80917 0.64887 0.0
C1440 C 0.11849 0.85761 0.6545 0.0
C1441 C 0.12907 0.87794 0.63208 0.0
H1442 H 0.1298 0.80718 0.67917 0.0
H1443 H 0.09185 0.86697 0.66518 0.0
S1444 S 0.22013 0.85867 0.5923 0.0
N1445 N 0.22129 0.82222 0.61392 0.0
N1446 N 0.17925 0.88629 0.59865 0.0
C1447 C 0.16474 0.86624 0.61931 0.0
C1448 C 0.18766 0.83179 0.62772 0.0
C1449 C 0.93483 0.43207 0.37926 0.0
C1450 C 0.95649 0.41922 0.40091 0.0
C1451 C 0.9004 0.41057 0.37073 0.0
C1452 C 0.88666 0.37566 0.38357 0.0
H1453 H 0.94557 0.45768 0.36817 0.0
H1454 H 0.88496 0.42075 0.35368 0.0
S1455 S 0.92838 0.33315 0.44322 0.0
N1456 N 0.95872 0.37181 0.43647 0.0
N1457 N 0.89372 0.33219 0.42048 0.0
C1458 C 0.90599 0.3644 0.4062 0.0
C1459 C 0.94118 0.38586 0.41478 0.0
C1460 C 0.37611 0.8216 0.35671 0.0
C1461 C 0.34102 0.80802 0.36964 0.0
C1462 C 0.39719 0.8565 0.36457 0.0
C1463 C 0.38461 0.87827 0.38606 0.0
H1464 H 0.38823 0.80445 0.34083 0.0
H1465 H 0.42459 0.86539 0.35451 0.0
S1466 S 0.2902 0.8614 0.42309 0.0
N1467 N 0.29118 0.82334 0.40253 0.0
N1468 N 0.33153 0.88872 0.41747 0.0
C1469 C 0.348 0.8672 0.39795 0.0
C1470 C 0.32605 0.832 0.38973 0.0
C1471 C 0.93937 0.62029 0.10709 0.0
C1472 C 0.95362 0.58611 0.12066 0.0
C1473 C 0.90424 0.64126 0.11465 0.0
C1474 C 0.88289 0.62955 0.13649 0.0
H1475 H 0.95618 0.63182 0.09093 0.0
H1476 H 0.89492 0.66804 0.1041 0.0
S1477 S 0.90183 0.53753 0.17543 0.0
N1478 N 0.93953 0.53789 0.15464 0.0
N1479 N 0.87374 0.57807 0.16905 0.0
C1480 C 0.89464 0.59372 0.14905 0.0
C1481 C 0.93008 0.57183 0.14111 0.0
C1482 C 0.13797 0.1917 0.85781 0.0
C1483 C 0.17347 0.20481 0.87053 0.0
C1484 C 0.11669 0.157 0.86572 0.0
C1485 C 0.12948 0.13496 0.88705 0.0
H1486 H 0.12578 0.20897 0.84202 0.0
H1487 H 0.0891 0.14834 0.85574 0.0
S1488 S 0.22454 0.15095 0.92371 0.0
N1489 N 0.2236 0.18906 0.90322 0.0
N1490 N 0.18292 0.12397 0.9182 0.0
C1491 C 0.16635 0.14568 0.89881 0.0
C1492 C 0.18849 0.1807 0.89054 0.0
C1493 C 0.57928 0.43229 0.6395 0.0
C1494 C 0.55714 0.41822 0.61831 0.0
C1495 C 0.61431 0.41169 0.64791 0.0
C1496 C 0.62819 0.37652 0.63539 0.0
H1497 H 0.56856 0.45825 0.65032 0.0
H1498 H 0.63013 0.42282 0.6646 0.0
S1499 S 0.58498 0.33049 0.57713 0.0
N1500 N 0.55436 0.36907 0.58361 0.0
N1501 N 0.62046 0.33113 0.59938 0.0
C1502 C 0.60825 0.36391 0.61323 0.0
C1503 C 0.57246 0.38445 0.60478 0.0
C1504 C 0.27565 0.25352 0.24759 0.0
C1505 C 0.25814 0.2909 0.24013 0.0
C1506 C 0.26287 0.23345 0.26983 0.0
C1507 C 0.23136 0.24959 0.28485 0.0
H1508 H 0.29972 0.23998 0.23631 0.0
H1509 H 0.27689 0.20468 0.2749 0.0
S1510 S 0.17551 0.34635 0.27326 0.0
N1511 N 0.20844 0.34343 0.24964 0.0
N1512 N 0.18307 0.30517 0.29065 0.0
C1513 C 0.21363 0.28689 0.27745 0.0
C1514 C 0.22738 0.30771 0.25529 0.0
C1515 C 0.02812 0.00971 0.51875 0.0
C1516 C 0.01213 0.97828 0.53387 0.0
C1517 C 0.00789 0.02227 0.4965 0.0
C1518 C 0.97051 1.00462 0.48912 0.0
H1519 H 0.05688 0.02383 0.52375 0.0
H1520 H 0.02133 0.04626 0.48513 0.0
S1521 S 0.91543 0.92214 0.52253 0.0
N1522 N 0.9567 0.92991 0.53986 0.0
N1523 N 0.91813 0.95491 0.49882 0.0
C1524 C 0.95383 0.97396 0.50439 0.0
C1525 C 0.97482 0.96042 0.52656 0.0
C1526 C 0.27643 0.75662 0.73752 0.0
C1527 C 0.25269 0.72099 0.74 0.0
C1528 C 0.28888 0.77915 0.75883 0.0
C1529 C 0.27714 0.76777 0.78348 0.0
H1530 H 0.28618 0.76694 0.71897 0.0
H1531 H 0.30818 0.80556 0.75599 0.0
S1532 S 0.21575 0.67725 0.80094 0.0
N1533 N 0.21873 0.6752 0.76967 0.0
N1534 N 0.24107 0.71857 0.80944 0.0
C1535 C 0.253 0.73276 0.78637 0.0
C1536 C 0.24111 0.70911 0.76474 0.0
C1537 C 0.48279 0.03424 0.00978 0.0
C1538 C 0.49565 0.02368 0.03438 0.0
C1539 C 0.50529 0.02266 0.98828 0.0
C1540 C 0.54234 1.00108 0.99048 0.0
H1541 H 0.45529 0.05206 1.00715 0.0
H1542 H 0.49381 0.03144 0.96979 0.0
S1543 S 0.59016 0.96797 0.05117 0.0
N1544 N 0.5477 0.99099 0.05997 0.0
N1545 N 0.591 0.97042 0.01986 0.0
C1546 C 0.55565 0.99066 0.01517 0.0
C1547 C 0.53206 1.0016 0.037 0.0
C1548 C 0.27151 0.71249 0.25436 0.0
C1549 C 0.25944 0.72416 0.27905 0.0
C1550 C 0.26049 0.73554 0.2329 0.0
C1551 C 0.2364 0.7708 0.23522 0.0
H1552 H 0.28964 0.68529 0.2515 0.0
H1553 H 0.26947 0.72472 0.21428 0.0
S1554 S 0.19726 0.8153 0.29521 0.0
N1555 N 0.2227 0.77441 0.30428 0.0
N1556 N 0.20144 0.81678 0.264 0.0
C1557 C 0.22446 0.78305 0.25969 0.0
C1558 C 0.2361 0.76003 0.28155 0.0
C1559 C 0.52176 0.01487 0.48434 0.0
C1560 C 0.49194 0.98419 0.48627 0.0
C1561 C 0.54464 0.02719 0.50565 0.0
C1562 C 0.53794 0.00995 0.52982 0.0
H1563 H 0.52857 0.02834 0.46606 0.0
H1564 H 0.56762 0.05051 0.50315 0.0
S1565 S 0.46259 0.92925 0.54515 0.0
N1566 N 0.45682 0.93717 0.51443 0.0
N1567 N 0.49872 0.96102 0.55434 0.0
C1568 C 0.50756 0.97993 0.53206 0.0
C1569 C 0.48488 0.96691 0.51035 0.0
C1570 C 0.27162 0.31097 0.75841 0.0
C1571 C 0.25308 0.29039 0.77879 0.0
C1572 C 0.28313 0.29011 0.73627 0.0
C1573 C 0.27546 0.24819 0.73334 0.0
H1574 H 0.27813 0.34327 0.75979 0.0
H1575 H 0.29865 0.30681 0.72139 0.0
S1576 S 0.22599 0.18039 0.78021 0.0
N1577 N 0.22653 0.22554 0.79412 0.0
N1578 N 0.2476 0.18686 0.75217 0.0
C1579 C 0.25607 0.22737 0.75314 0.0
C1580 C 0.24503 0.24835 0.77595 0.0
C1581 C 0.03098 0.03594 1.00871 0.0
C1582 C 0.01947 0.02474 0.98396 0.0
C1583 C 0.00853 0.02307 0.0299 0.0
C1584 C 0.97288 0.99942 0.02718 0.0
H1585 H 0.05736 0.05522 0.01172 0.0
H1586 H 0.01886 0.03249 0.04854 0.0
S1587 S 0.92903 0.96352 0.96593 0.0
N1588 N 0.97028 0.98908 0.95766 0.0
N1589 N 0.92707 0.9659 0.99722 0.0
C1590 C 0.96097 0.98824 1.00235 0.0
C1591 C 0.98453 1.00057 0.98084 0.0
C1592 C 0.73782 0.75431 0.73818 0.0
C1593 C 0.75989 0.79099 0.74076 0.0
C1594 C 0.72596 0.73148 0.75947 0.0
C1595 C 0.73675 0.74365 0.78417 0.0
H1596 H 0.72889 0.74338 0.71958 0.0
H1597 H 0.7078 0.70428 0.75659 0.0
S1598 S 0.79364 0.83702 0.80188 0.0
N1599 N 0.79115 0.83861 0.77059 0.0
N1600 N 0.77012 0.79465 0.81027 0.0
C1601 C 0.75928 0.7797 0.78715 0.0
C1602 C 0.77047 0.80363 0.76556 0.0
C1603 C 0.74205 0.21493 0.26269 0.0
C1604 C 0.75719 0.22407 0.23827 0.0
C1605 C 0.75353 0.23799 0.2841 0.0
C1606 C 0.78123 0.27055 0.28202 0.0
H1607 H 0.72106 0.18984 0.26534 0.0
H1608 H 0.74188 0.22922 0.30254 0.0
S1609 S 0.82964 0.30734 0.22262 0.0
N1610 N 0.80086 0.26878 0.21344 0.0
N1611 N 0.82309 0.31105 0.25359 0.0
C1612 C 0.79636 0.28014 0.25775 0.0
C1613 C 0.7842 0.25722 0.23594 0.0
C1614 C 0.73961 0.2593 0.78026 0.0
C1615 C 0.76143 0.22246 0.77764 0.0
C1616 C 0.72754 0.28214 0.75901 0.0
C1617 C 0.73782 0.26982 0.73428 0.0
H1618 H 0.73106 0.27039 0.79889 0.0
H1619 H 0.70961 0.30947 0.76195 0.0
S1620 S 0.79373 0.17594 0.7164 0.0
N1621 N 0.79181 0.1745 0.74771 0.0
N1622 N 0.77036 0.21845 0.70807 0.0
C1623 C 0.76006 0.23359 0.73123 0.0
C1624 C 0.77149 0.20966 0.7528 0.0
C1625 C 0.73332 0.75571 0.26836 0.0
C1626 C 0.75253 0.79195 0.27636 0.0
C1627 C 0.74616 0.73508 0.2463 0.0
C1628 C 0.77938 0.74948 0.23207 0.0
H1629 H 0.70802 0.74343 0.27913 0.0
H1630 H 0.73089 0.70713 0.24082 0.0
S1631 S 0.83997 0.8428 0.24535 0.0
N1632 N 0.80555 0.84166 0.2682 0.0
N1633 N 0.83107 0.80222 0.2276 0.0
C1634 C 0.79873 0.7857 0.24001 0.0
C1635 C 0.78495 0.80714 0.26194 0.0
C1636 C 0.50788 0.45844 0.01374 0.0
C1637 C 0.51798 0.48463 0.03417 0.0
C1638 C 0.48571 0.47223 0.99266 0.0
C1639 C 0.47224 0.51267 0.9911 0.0
H1640 H 0.51679 0.42665 0.014 0.0
H1641 H 0.47862 0.4509 0.97756 0.0
S1642 S 0.49401 0.59514 0.03742 0.0
N1643 N 0.51481 0.55417 0.05022 0.0
N1644 N 0.47374 0.57992 0.01031 0.0
C1645 C 0.4831 0.53965 0.01075 0.0
C1646 C 0.50582 0.5257 0.03231 0.0
C1647 C 1.00444 0.52391 0.48864 0.0
C1648 C 0.04143 0.50242 0.49147 0.0
C1649 C 0.98135 0.53602 0.50978 0.0
C1650 C 0.99355 0.52607 0.53459 0.0
H1651 H 0.99348 0.5322 0.46994 0.0
H1652 H 0.95392 0.55374 0.50668 0.0
S1653 S 0.08759 0.47082 0.55296 0.0
N1654 N 0.08931 0.47254 0.52165 0.0
N1655 N 0.04487 0.49401 0.56107 0.0
C1656 C 0.02989 0.50407 0.53784 0.0
C1657 C 0.05408 0.49264 0.51639 0.0
C1658 C 0.0475 0.5235 1.00541 0.0
C1659 C 0.03828 0.50832 0.0298 0.0
C1660 C 0.0245 0.51205 0.98397 0.0
C1661 C 0.9919 0.4844 0.98603 0.0
H1662 H 0.07266 0.54443 1.00279 0.0
H1663 H 0.03338 0.52363 0.96553 0.0
S1664 S 0.95459 0.43628 0.04539 0.0
N1665 N 0.99327 0.46488 0.0546 0.0
N1666 N 0.95107 0.44282 0.01442 0.0
C1667 C 0.98211 0.46939 0.01028 0.0
C1668 C 1.005 0.48147 0.03211 0.0
C1669 C 0.48843 0.50092 0.48246 0.0
C1670 C 0.52236 0.5268 0.48497 0.0
C1671 C 0.46498 0.48971 0.50371 0.0
C1672 C 0.47506 0.50327 0.52837 0.0
H1673 H 0.4789 0.49062 0.46383 0.0
H1674 H 0.43878 0.47023 0.50071 0.0
S1675 S 0.5621 0.57063 0.54509 0.0
N1676 N 0.56518 0.56527 0.514 0.0
N1677 N 0.52219 0.54345 0.55387 0.0
C1678 C 0.50959 0.52841 0.53111 0.0
C1679 C 0.53292 0.54034 0.50946 0.0
C1680 C 0.3521 0.12928 0.3783 0.0
C1681 C 0.312 0.11723 0.37221 0.0
C1682 C 0.38037 0.10135 0.38865 0.0
C1683 C 0.36895 0.06093 0.39418 0.0
H1684 H 0.36175 0.16037 0.37491 0.0
H1685 H 0.4111 0.11159 0.39266 0.0
S1686 S 0.2675 0.01431 0.38213 0.0
N1687 N 0.26266 0.06185 0.37243 0.0
N1688 N 0.31484 0.0103 0.39242 0.0
C1689 C 0.32886 0.04876 0.38834 0.0
C1690 C 0.30065 0.07665 0.37723 0.0
C1691 C 0.13172 0.09975 0.6277 0.0
C1692 C 0.1438 0.05956 0.62198 0.0
C1693 C 0.15944 0.12799 0.63829 0.0
C1694 C 0.19965 0.11649 0.64443 0.0
H1695 H 0.10081 0.10953 0.62378 0.0
H1696 H 0.14923 0.15885 0.64191 0.0
S1697 S 0.24603 0.01456 0.63379 0.0
N1698 N 0.19881 0.00987 0.6234 0.0
N1699 N 0.24999 0.06203 0.64384 0.0
C1700 C 0.21177 0.07622 0.63908 0.0
C1701 C 0.1841 0.04802 0.62773 0.0
C1702 C 0.16083 0.88224 0.87846 0.0
C1703 C 0.20087 0.8942 0.87223 0.0
C1704 C 0.13253 0.9105 0.88838 0.0
C1705 C 0.14392 0.95114 0.89331 0.0
H1706 H 0.15127 0.851 0.87548 0.0
H1707 H 0.10183 0.90038 0.89256 0.0
S1708 S 0.24516 0.99759 0.88069 0.0
N1709 N 0.25011 0.94968 0.8717 0.0
N1710 N 0.19782 1.00188 0.89087 0.0
C1711 C 0.18392 0.96321 0.88733 0.0
C1712 C 0.21216 0.93498 0.87667 0.0
C1713 C 0.30502 0.92944 0.13901 0.0
C1714 C 0.31608 0.88898 0.1445 0.0
C1715 C 0.33306 0.95707 0.12883 0.0
C1716 C 0.37381 0.94588 0.12426 0.0
H1717 H 0.27403 0.93977 0.14209 0.0
H1718 H 0.32279 0.98786 0.12502 0.0
S1719 S 0.41875 0.8438 0.13571 0.0
N1720 N 0.37055 0.83876 0.14434 0.0
N1721 N 0.4241 0.89156 0.1263 0.0
C1722 C 0.38562 0.90567 0.12996 0.0
C1723 C 0.35655 0.877 0.13972 0.0
C1724 C 0.67578 0.92719 0.66097 0.0
C1725 C 0.7023 0.90071 0.64792 0.0
C1726 C 0.6489 0.95312 0.64784 0.0
C1727 C 0.64819 0.95434 0.6211 0.0
H1728 H 0.67694 0.92907 0.6815 0.0
H1729 H 0.63058 0.97432 0.65873 0.0
S1730 S 0.70955 0.88945 0.57789 0.0
N1731 N 0.7241 0.87557 0.60663 0.0
N1732 N 0.67447 0.92493 0.58208 0.0
C1733 C 0.67316 0.92672 0.60785 0.0
C1734 C 0.69992 0.89974 0.62121 0.0
C1735 C 0.83854 0.92421 0.40808 0.0
C1736 C 0.86466 0.95121 0.39513 0.0
C1737 C 0.81216 0.89786 0.39485 0.0
C1738 C 0.8101 0.89826 0.36816 0.0
H1739 H 0.83715 0.92476 0.42863 0.0
H1740 H 0.79116 0.87926 0.40568 0.0
S1741 S 0.87421 0.96072 0.32519 0.0
N1742 N 0.88895 0.97425 0.35398 0.0
N1743 N 0.83864 0.9257 0.32922 0.0
C1744 C 0.83756 0.92349 0.35498 0.0
C1745 C 0.86504 0.94966 0.36842 0.0
C1746 C 0.83855 0.08788 0.15835 0.0
C1747 C 0.81103 0.11335 0.1453 0.0
C1748 C 0.86485 0.06132 0.14524 0.0
C1749 C 0.86397 0.05838 0.11855 0.0
H1750 H 0.83862 0.08728 0.17892 0.0
H1751 H 0.88401 0.04099 0.15621 0.0
S1752 S 0.7994 0.12008 0.0753 0.0
N1753 N 0.7865 0.13567 0.104 0.0
N1754 N 0.83504 0.08517 0.0795 0.0
C1755 C 0.83796 0.085 0.10525 0.0
C1756 C 0.81179 0.11263 0.11856 0.0
C1757 C 0.67533 0.0871 0.90955 0.0
C1758 C 0.64957 0.0598 0.89653 0.0
C1759 C 0.70143 0.11373 0.89639 0.0
C1760 C 0.70361 0.11336 0.86967 0.0
H1761 H 0.67655 0.08671 0.93011 0.0
H1762 H 0.72206 0.13271 0.9073 0.0
S1763 S 0.64085 0.04958 0.82652 0.0
N1764 N 0.6261 0.03607 0.85527 0.0
N1765 N 0.6758 0.0852 0.83067 0.0
C1766 C 0.67667 0.0876 0.85642 0.0
C1767 C 0.64949 0.06112 0.8698 0.0
C1768 C 0.85258 0.63168 0.88143 0.0
C1769 C 0.81377 0.61888 0.87304 0.0
C1770 C 0.8811 0.60356 0.89129 0.0
C1771 C 0.87109 0.56206 0.89396 0.0
H1772 H 0.86096 0.66356 0.88034 0.0
H1773 H 0.91075 0.61445 0.89731 0.0
S1774 S 0.77406 0.51273 0.87454 0.0
N1775 N 0.76765 0.56133 0.8676 0.0
N1776 N 0.8203 0.5094 0.88667 0.0
C1777 C 0.83253 0.549 0.88558 0.0
C1778 C 0.80412 0.57715 0.875 0.0
C1779 C 0.67863 0.59465 0.15967 0.0
C1780 C 0.69409 0.62558 0.14392 0.0
C1781 C 0.64962 0.56665 0.15061 0.0
C1782 C 0.63593 0.56789 0.1253 0.0
H1783 H 0.68958 0.59161 0.17899 0.0
H1784 H 0.63907 0.54278 0.1632 0.0
S1785 S 0.66688 0.64235 0.07626 0.0
N1786 N 0.6927 0.65614 0.10182 0.0
N1787 N 0.63951 0.6023 0.08469 0.0
C1788 C 0.65068 0.59875 0.10943 0.0
C1789 C 0.67938 0.62798 0.11879 0.0
C1790 C 0.66221 0.38115 0.37791 0.0
C1791 C 0.70312 0.39223 0.3736 0.0
C1792 C 0.63392 0.40944 0.38787 0.0
C1793 C 0.64605 0.44918 0.39478 0.0
H1794 H 0.65189 0.3507 0.37322 0.0
H1795 H 0.60251 0.40009 0.39034 0.0
S1796 S 0.75022 0.49253 0.38824 0.0
N1797 N 0.7543 0.4455 0.37744 0.0
N1798 N 0.70209 0.49771 0.39669 0.0
C1799 C 0.68711 0.46013 0.39099 0.0
C1800 C 0.71538 0.43192 0.38028 0.0
C1801 C 0.83126 0.46046 0.62959 0.0
C1802 C 0.87188 0.4494 0.62455 0.0
C1803 C 0.80353 0.43257 0.63981 0.0
C1804 C 0.81481 0.39202 0.64484 0.0
H1805 H 0.82087 0.49131 0.62611 0.0
H1806 H 0.7726 0.44278 0.64325 0.0
S1807 S 0.91733 0.34722 0.63473 0.0
N1808 N 0.92236 0.3952 0.62567 0.0
N1809 N 0.86936 0.34191 0.64377 0.0
C1810 C 0.85519 0.38021 0.63961 0.0
C1811 C 0.88395 0.40914 0.62982 0.0
C1812 C 0.14994 0.4471 0.14641 0.0
C1813 C 0.1505 0.45002 0.11973 0.0
C1814 C 0.17675 0.42097 0.15941 0.0
C1815 C 0.20448 0.39589 0.14626 0.0
H1816 H 0.13068 0.46722 0.15747 0.0
H1817 H 0.17702 0.42173 0.17997 0.0
S1818 S 0.21513 0.38871 0.07627 0.0
N1819 N 0.17915 0.42327 0.08057 0.0
N1820 N 0.22867 0.37347 0.10495 0.0
C1821 C 0.2033 0.39634 0.11955 0.0
C1822 C 0.1766 0.42358 0.10632 0.0
C1823 C 0.34022 0.42617 0.911 0.0
C1824 C 0.36661 0.45281 0.89797 0.0
C1825 C 0.314 0.39953 0.89786 0.0
C1826 C 0.31244 0.39917 0.87114 0.0
H1827 H 0.33847 0.42721 0.93153 0.0
H1828 H 0.29278 0.38124 0.90873 0.0
S1829 S 0.3774 0.46023 0.82792 0.0
N1830 N 0.39162 0.47456 0.85665 0.0
N1831 N 0.34171 0.4254 0.83213 0.0
C1832 C 0.34015 0.42397 0.8579 0.0
C1833 C 0.36741 0.45048 0.87125 0.0
C1834 C 0.33768 0.58535 0.6077 0.0
C1835 C 0.36352 0.55807 0.62065 0.0
C1836 C 0.31189 0.61224 0.62093 0.0
C1837 C 0.31019 0.61223 0.64765 0.0
H1838 H 0.33615 0.5848 0.58715 0.0
H1839 H 0.29115 0.63115 0.61008 0.0
S1840 S 0.37357 0.54899 0.69067 0.0
N1841 N 0.38774 0.53495 0.66188 0.0
N1842 N 0.33859 0.5846 0.68659 0.0
C1843 C 0.33724 0.58656 0.66083 0.0
C1844 C 0.36409 0.55978 0.64738 0.0
C1845 C 0.17718 0.58571 0.41074 0.0
C1846 C 0.15094 0.55856 0.39797 0.0
C1847 C 0.20312 0.6122 0.39733 0.0
C1848 C 0.20463 0.61187 0.37059 0.0
H1849 H 0.17885 0.58538 0.43128 0.0
H1850 H 0.22406 0.6311 0.40805 0.0
S1851 S 0.14041 0.54851 0.32802 0.0
N1852 N 0.12633 0.53502 0.3569 0.0
N1853 N 0.17568 0.58391 0.33185 0.0
C1854 C 0.17725 0.58624 0.3576 0.0
C1855 C 0.15025 0.55988 0.37123 0.0
loop_
_geom_bond_atom_site_label_1
_geom_bond_atom_site_label_2
_geom_bond_distance
_geom_bond_site_symmetry_2
_ccdc_geom_bond_type
Mn0 O5 2.095 . S
Mn0 O15 2.162 . S
Mn0 O16 2.297 . S
Mn0 O24 2.385 . S
Mn0 O25 2.209 . S
Mn0 O26 2.094 . S
Mn1 O6 2.121 . S
Mn1 N8 2.257 . S
Mn1 N17 2.282 . S
Mn1 O25 2.215 . S
Mn1 O27 2.117 . S
C2 O24 1.234 . S
C2 O25 1.283 . S
C3 O15 1.281 . S
C3 O16 1.236 . S
C4 O26 1.240 . S
C4 O27 1.264 . S
O5 Mn0 2.095 . S
O5 C14 1.250 . S
O6 Mn1 2.121 . S
O6 C14 1.258 . S
C7 N8 1.326 . S
C7 C11 1.460 . S
C7 H13 0.929 . S
N8 Mn1 2.257 . S
N8 C7 1.326 . S
N8 C12 1.362 . S
C9 C10 1.258 . S
C9 C12 1.431 . S
C9 C29 1.449 1_455 S
C10 C9 1.258 . S
C10 C11 1.477 . S
C10 H30 0.931 . S
C11 C7 1.460 . S
C11 C10 1.477 . S
C11 H31 0.930 . S
C12 N8 1.362 . S
C12 C9 1.431 . S
C12 C22 1.476 . S
H13 C7 0.929 . S
C14 O5 1.250 . S
C14 O6 1.258 . S
O15 Mn0 2.162 . S
O15 C3 1.281 . S
O16 Mn0 2.297 . S
O16 C3 1.236 . S
N17 Mn1 2.282 . S
N17 C18 1.328 . S
N17 C22 1.318 . S
C18 N17 1.328 . S
C18 C19 1.457 . S
C18 H23 0.929 . S
C19 C18 1.457 . S
C19 C20 1.291 . S
C19 H32 0.931 . S
C20 C19 1.291 . S
C20 C21 1.373 . S
C20 H33 0.929 1_455 S
C21 C20 1.373 . S
C21 C22 1.396 . S
C21 C28 1.403 1_455 S
C22 C12 1.476 . S
C22 N17 1.318 . S
C22 C21 1.396 . S
H23 C18 0.929 . S
O24 Mn0 2.385 . S
O24 C2 1.234 . S
O25 Mn0 2.209 . S
O25 Mn1 2.215 . S
O25 C2 1.283 . S
O26 Mn0 2.094 . S
O26 C4 1.240 . S
O27 Mn1 2.117 . S
O27 C4 1.264 . S
C28 C21 1.403 1_655 S
C28 C29 1.399 . S
C28 H34 0.929 . S
C29 C9 1.449 1_655 S
C29 C28 1.399 . S
C29 H35 0.930 . S
H30 C10 0.931 . S
H31 C11 0.930 . S
H32 C19 0.931 . S
H33 C20 0.929 1_655 S
H34 C28 0.929 . S
H35 C29 0.930 . S
Mn36 O41 2.095 . S
Mn36 O51 2.162 1_565 S
Mn36 O52 2.297 1_565 S
Mn36 O60 2.385 . S
Mn36 O61 2.209 . S
Mn36 O62 2.094 1_455 S
Mn37 O42 2.121 . S
Mn37 N44 2.257 . S
Mn37 N53 2.282 . S
Mn37 O61 2.215 . S
Mn37 O63 2.117 1_455 S
C38 O60 1.234 . S
C38 O61 1.283 . S
C39 O51 1.281 . S
C39 O52 1.236 . S
C40 O62 1.240 . S
C40 O63 1.264 . S
O41 Mn36 2.095 . S
O41 C50 1.250 . S
O42 Mn37 2.121 . S
O42 C50 1.258 . S
C43 N44 1.326 . S
C43 C47 1.460 . S
C43 H49 0.929 . S
N44 Mn37 2.257 . S
N44 C43 1.326 . S
N44 C48 1.362 . S
C45 C46 1.258 . S
C45 C48 1.431 . S
C45 C65 1.449 . S
C46 C45 1.258 . S
C46 C47 1.477 . S
C46 H66 0.931 . S
C47 C43 1.460 . S
C47 C46 1.477 . S
C47 H67 0.930 . S
C48 N44 1.362 . S
C48 C45 1.431 . S
C48 C58 1.476 . S
H49 C43 0.929 . S
C50 O41 1.250 . S
C50 O42 1.258 . S
O51 Mn36 2.162 1_545 S
O51 C39 1.281 . S
O52 Mn36 2.297 1_545 S
O52 C39 1.236 . S
N53 Mn37 2.282 . S
N53 C54 1.328 . S
N53 C58 1.318 . S
C54 N53 1.328 . S
C54 C55 1.457 . S
C54 H59 0.929 . S
C55 C54 1.457 . S
C55 C56 1.291 . S
C55 H68 0.931 . S
C56 C55 1.291 . S
C56 C57 1.373 . S
C56 H69 0.929 . S
C57 C56 1.373 . S
C57 C58 1.396 . S
C57 C64 1.403 . S
C58 C48 1.476 . S
C58 N53 1.318 . S
C58 C57 1.396 . S
H59 C54 0.929 . S
O60 Mn36 2.385 . S
O60 C38 1.234 . S
O61 Mn36 2.209 . S
O61 Mn37 2.215 . S
O61 C38 1.283 . S
O62 Mn36 2.094 1_655 S
O62 C40 1.240 . S
O63 Mn37 2.117 1_655 S
O63 C40 1.264 . S
C64 C57 1.403 . S
C64 C65 1.399 . S
C64 H70 0.929 . S
C65 C45 1.449 . S
C65 C64 1.399 . S
C65 H71 0.930 . S
H66 C46 0.931 . S
H67 C47 0.930 . S
H68 C55 0.931 . S
H69 C56 0.929 . S
H70 C64 0.929 . S
H71 C65 0.930 . S
Mn72 O77 2.095 . S
Mn72 O87 2.162 . S
Mn72 O88 2.297 . S
Mn72 O96 2.385 . S
Mn72 O97 2.209 . S
Mn72 O98 2.094 . S
Mn73 O78 2.121 . S
Mn73 N80 2.257 . S
Mn73 N89 2.282 . S
Mn73 O97 2.215 . S
Mn73 O99 2.117 . S
C74 O96 1.234 . S
C74 O97 1.283 . S
C75 O87 1.281 . S
C75 O88 1.236 . S
C76 O98 1.240 . S
C76 O99 1.264 . S
O77 Mn72 2.095 . S
O77 C86 1.250 . S
O78 Mn73 2.121 . S
O78 C86 1.258 . S
C79 N80 1.326 . S
C79 C83 1.460 . S
C79 H85 0.929 . S
N80 Mn73 2.257 . S
N80 C79 1.326 . S
N80 C84 1.362 . S
C81 C82 1.258 . S
C81 C84 1.431 . S
C81 C101 1.449 . S
C82 C81 1.258 . S
C82 C83 1.477 . S
C82 H102 0.931 . S
C83 C79 1.460 . S
C83 C82 1.477 . S
C83 H103 0.930 . S
C84 N80 1.362 . S
C84 C81 1.431 . S
C84 C94 1.476 . S
H85 C79 0.929 . S
C86 O77 1.250 . S
C86 O78 1.258 . S
O87 Mn72 2.162 . S
O87 C75 1.281 . S
O88 Mn72 2.297 . S
O88 C75 1.236 . S
N89 Mn73 2.282 . S
N89 C90 1.328 . S
N89 C94 1.318 . S
C90 N89 1.328 . S
C90 C91 1.457 . S
C90 H95 0.929 . S
C91 C90 1.457 . S
C91 C92 1.291 . S
C91 H104 0.931 . S
C92 C91 1.291 . S
C92 C93 1.373 . S
C92 H105 0.929 . S
C93 C92 1.373 . S
C93 C94 1.396 . S
C93 C100 1.403 . S
C94 C84 1.476 . S
C94 N89 1.318 . S
C94 C93 1.396 . S
H95 C90 0.929 . S
O96 Mn72 2.385 . S
O96 C74 1.234 . S
O97 Mn72 2.209 . S
O97 Mn73 2.215 . S
O97 C74 1.283 . S
O98 Mn72 2.094 . S
O98 C76 1.240 . S
O99 Mn73 2.117 . S
O99 C76 1.264 . S
C100 C93 1.403 . S
C100 C101 1.399 . S
C100 H106 0.929 . S
C101 C81 1.449 . S
C101 C100 1.399 . S
C101 H107 0.930 . S
H102 C82 0.931 . S
H103 C83 0.930 . S
H104 C91 0.931 . S
H105 C92 0.929 . S
H106 C100 0.929 . S
H107 C101 0.930 . S
Mn108 O113 2.095 . S
Mn108 O123 2.162 1_545 S
Mn108 O124 2.297 1_545 S
Mn108 O132 2.385 . S
Mn108 O133 2.209 . S
Mn108 O134 2.094 . S
Mn109 O114 2.121 . S
Mn109 N116 2.257 . S
Mn109 N125 2.282 . S
Mn109 O133 2.215 . S
Mn109 O135 2.117 . S
C110 O132 1.234 . S
C110 O133 1.283 . S
C111 O123 1.281 . S
C111 O124 1.236 . S
C112 O134 1.240 . S
C112 O135 1.264 . S
O113 Mn108 2.095 . S
O113 C122 1.250 . S
O114 Mn109 2.121 . S
O114 C122 1.258 . S
C115 N116 1.326 . S
C115 C119 1.460 . S
C115 H121 0.929 . S
N116 Mn109 2.257 . S
N116 C115 1.326 . S
N116 C120 1.362 . S
C117 C118 1.258 . S
C117 C120 1.431 . S
C117 C137 1.449 . S
C118 C117 1.258 . S
C118 C119 1.477 . S
C118 H138 0.931 . S
C119 C115 1.460 . S
C119 C118 1.477 . S
C119 H139 0.930 1_554 S
C120 N116 1.362 . S
C120 C117 1.431 . S
C120 C130 1.476 . S
H121 C115 0.929 . S
C122 O113 1.250 . S
C122 O114 1.258 . S
O123 Mn108 2.162 1_565 S
O123 C111 1.281 . S
O124 Mn108 2.297 1_565 S
O124 C111 1.236 . S
N125 Mn109 2.282 . S
N125 C126 1.328 . S
N125 C130 1.318 . S
C126 N125 1.328 . S
C126 C127 1.457 . S
C126 H131 0.929 . S
C127 C126 1.457 . S
C127 C128 1.291 . S
C127 H140 0.931 . S
C128 C127 1.291 . S
C128 C129 1.373 . S
C128 H141 0.929 . S
C129 C128 1.373 . S
C129 C130 1.396 . S
C129 C136 1.403 . S
C130 C120 1.476 . S
C130 N125 1.318 . S
C130 C129 1.396 . S
H131 C126 0.929 . S
O132 Mn108 2.385 . S
O132 C110 1.234 . S
O133 Mn108 2.209 . S
O133 Mn109 2.215 . S
O133 C110 1.283 . S
O134 Mn108 2.094 . S
O134 C112 1.240 . S
O135 Mn109 2.117 . S
O135 C112 1.264 . S
C136 C129 1.403 . S
C136 C137 1.399 . S
C136 H142 0.929 . S
C137 C117 1.449 . S
C137 C136 1.399 . S
C137 H143 0.930 . S
H138 C118 0.931 . S
H139 C119 0.930 1_556 S
H140 C127 0.931 . S
H141 C128 0.929 . S
H142 C136 0.929 . S
H143 C137 0.930 . S
Mn144 O149 2.095 . S
Mn144 O159 2.162 . S
Mn144 O160 2.297 . S
Mn144 O168 2.385 . S
Mn144 O169 2.209 . S
Mn144 O170 2.094 . S
Mn145 O150 2.121 . S
Mn145 N152 2.257 . S
Mn145 N161 2.282 . S
Mn145 O169 2.215 . S
Mn145 O171 2.117 . S
C146 O168 1.234 . S
C146 O169 1.283 . S
C147 O159 1.281 . S
C147 O160 1.236 . S
C148 O170 1.240 . S
C148 O171 1.264 . S
O149 Mn144 2.095 . S
O149 C158 1.250 . S
O150 Mn145 2.121 . S
O150 C158 1.258 . S
C151 N152 1.326 . S
C151 C155 1.460 . S
C151 H157 0.929 . S
N152 Mn145 2.257 . S
N152 C151 1.326 . S
N152 C156 1.362 . S
C153 C154 1.258 . S
C153 C156 1.431 . S
C153 C173 1.449 1_455 S
C154 C153 1.258 . S
C154 C155 1.477 . S
C154 H174 0.931 . S
C155 C151 1.460 . S
C155 C154 1.477 . S
C155 H175 0.930 . S
C156 N152 1.362 . S
C156 C153 1.431 . S
C156 C166 1.476 . S
H157 C151 0.929 . S
C158 O149 1.250 . S
C158 O150 1.258 . S
O159 Mn144 2.162 . S
O159 C147 1.281 . S
O160 Mn144 2.297 . S
O160 C147 1.236 . S
N161 Mn145 2.282 . S
N161 C162 1.328 . S
N161 C166 1.318 . S
C162 N161 1.328 . S
C162 C163 1.457 . S
C162 H167 0.929 . S
C163 C162 1.457 . S
C163 C164 1.291 . S
C163 H176 0.931 . S
C164 C163 1.291 . S
C164 C165 1.373 . S
C164 H177 0.929 1_455 S
C165 C164 1.373 . S
C165 C166 1.396 . S
C165 C172 1.403 1_455 S
C166 C156 1.476 . S
C166 N161 1.318 . S
C166 C165 1.396 . S
H167 C162 0.929 . S
O168 Mn144 2.385 . S
O168 C146 1.234 . S
O169 Mn144 2.209 . S
O169 Mn145 2.215 . S
O169 C146 1.283 . S
O170 Mn144 2.094 . S
O170 C148 1.240 . S
O171 Mn145 2.117 . S
O171 C148 1.264 . S
C172 C165 1.403 1_655 S
C172 C173 1.399 . S
C172 H178 0.929 . S
C173 C153 1.449 1_655 S
C173 C172 1.399 . S
C173 H179 0.930 . S
H174 C154 0.931 . S
H175 C155 0.930 . S
H176 C163 0.931 . S
H177 C164 0.929 1_655 S
H178 C172 0.929 . S
H179 C173 0.930 . S
Mn180 O185 2.095 . S
Mn180 O195 2.162 1_565 S
Mn180 O196 2.297 1_565 S
Mn180 O204 2.385 . S
Mn180 O205 2.209 . S
Mn180 O206 2.094 . S
Mn181 O186 2.121 . S
Mn181 N188 2.257 . S
Mn181 N197 2.282 . S
Mn181 O205 2.215 . S
Mn181 O207 2.117 . S
C182 O204 1.234 . S
C182 O205 1.283 . S
C183 O195 1.281 . S
C183 O196 1.236 . S
C184 O206 1.240 . S
C184 O207 1.264 . S
O185 Mn180 2.095 . S
O185 C194 1.250 . S
O186 Mn181 2.121 . S
O186 C194 1.258 . S
C187 N188 1.326 . S
C187 C191 1.460 . S
C187 H193 0.929 . S
N188 Mn181 2.257 . S
N188 C187 1.326 . S
N188 C192 1.362 . S
C189 C190 1.258 . S
C189 C192 1.431 . S
C189 C209 1.449 . S
C190 C189 1.258 . S
C190 C191 1.477 . S
C190 H210 0.931 . S
C191 C187 1.460 . S
C191 C190 1.477 . S
C191 H211 0.930 . S
C192 N188 1.362 . S
C192 C189 1.431 . S
C192 C202 1.476 . S
H193 C187 0.929 . S
C194 O185 1.250 . S
C194 O186 1.258 . S
O195 Mn180 2.162 1_545 S
O195 C183 1.281 . S
O196 Mn180 2.297 1_545 S
O196 C183 1.236 . S
N197 Mn181 2.282 . S
N197 C198 1.328 . S
N197 C202 1.318 . S
C198 N197 1.328 . S
C198 C199 1.457 . S
C198 H203 0.929 . S
C199 C198 1.457 . S
C199 C200 1.291 . S
C199 H212 0.931 . S
C200 C199 1.291 . S
C200 C201 1.373 . S
C200 H213 0.929 . S
C201 C200 1.373 . S
C201 C202 1.396 . S
C201 C208 1.403 . S
C202 C192 1.476 . S
C202 N197 1.318 . S
C202 C201 1.396 . S
H203 C198 0.929 . S
O204 Mn180 2.385 . S
O204 C182 1.234 . S
O205 Mn180 2.209 . S
O205 Mn181 2.215 . S
O205 C182 1.283 . S
O206 Mn180 2.094 . S
O206 C184 1.240 . S
O207 Mn181 2.117 . S
O207 C184 1.264 . S
C208 C201 1.403 . S
C208 C209 1.399 . S
C208 H214 0.929 . S
C209 C189 1.449 . S
C209 C208 1.399 . S
C209 H215 0.930 . S
H210 C190 0.931 . S
H211 C191 0.930 . S
H212 C199 0.931 . S
H213 C200 0.929 . S
H214 C208 0.929 . S
H215 C209 0.930 . S
Mn216 O221 2.095 . S
Mn216 O231 2.162 . S
Mn216 O232 2.297 . S
Mn216 O240 2.385 . S
Mn216 O241 2.209 . S
Mn216 O242 2.094 . S
Mn217 O222 2.121 . S
Mn217 N224 2.257 . S
Mn217 N233 2.282 . S
Mn217 O241 2.215 . S
Mn217 O243 2.117 . S
C218 O240 1.234 . S
C218 O241 1.283 . S
C219 O231 1.281 . S
C219 O232 1.236 . S
C220 O242 1.240 . S
C220 O243 1.264 . S
O221 Mn216 2.095 . S
O221 C230 1.250 . S
O222 Mn217 2.121 . S
O222 C230 1.258 . S
C223 N224 1.326 . S
C223 C227 1.460 . S
C223 H229 0.929 . S
N224 Mn217 2.257 . S
N224 C223 1.326 . S
N224 C228 1.362 . S
C225 C226 1.258 . S
C225 C228 1.431 . S
C225 C245 1.449 . S
C226 C225 1.258 . S
C226 C227 1.477 . S
C226 H246 0.931 . S
C227 C223 1.460 . S
C227 C226 1.477 . S
C227 H247 0.930 . S
C228 N224 1.362 . S
C228 C225 1.431 . S
C228 C238 1.476 . S
H229 C223 0.929 . S
C230 O221 1.250 . S
C230 O222 1.258 . S
O231 Mn216 2.162 . S
O231 C219 1.281 . S
O232 Mn216 2.297 . S
O232 C219 1.236 . S
N233 Mn217 2.282 . S
N233 C234 1.328 . S
N233 C238 1.318 . S
C234 N233 1.328 . S
C234 C235 1.457 . S
C234 H239 0.929 . S
C235 C234 1.457 . S
C235 C236 1.291 . S
C235 H248 0.931 . S
C236 C235 1.291 . S
C236 C237 1.373 . S
C236 H249 0.929 . S
C237 C236 1.373 . S
C237 C238 1.396 . S
C237 C244 1.403 . S
C238 C228 1.476 . S
C238 N233 1.318 . S
C238 C237 1.396 . S
H239 C234 0.929 . S
O240 Mn216 2.385 . S
O240 C218 1.234 . S
O241 Mn216 2.209 . S
O241 Mn217 2.215 . S
O241 C218 1.283 . S
O242 Mn216 2.094 . S
O242 C220 1.240 . S
O243 Mn217 2.117 . S
O243 C220 1.264 . S
C244 C237 1.403 . S
C244 C245 1.399 . S
C244 H250 0.929 . S
C245 C225 1.449 . S
C245 C244 1.399 . S
C245 H251 0.930 . S
H246 C226 0.931 . S
H247 C227 0.930 . S
H248 C235 0.931 . S
H249 C236 0.929 . S
H250 C244 0.929 . S
H251 C245 0.930 . S
Mn252 O257 2.095 . S
Mn252 O267 2.162 1_545 S
Mn252 O268 2.297 1_545 S
Mn252 O276 2.385 . S
Mn252 O277 2.209 . S
Mn252 O278 2.094 1_455 S
Mn253 O258 2.121 . S
Mn253 N260 2.257 . S
Mn253 N269 2.282 . S
Mn253 O277 2.215 . S
Mn253 O279 2.117 1_455 S
C254 O276 1.234 . S
C254 O277 1.283 . S
C255 O267 1.281 . S
C255 O268 1.236 . S
C256 O278 1.240 . S
C256 O279 1.264 . S
O257 Mn252 2.095 . S
O257 C266 1.250 . S
O258 Mn253 2.121 . S
O258 C266 1.258 . S
C259 N260 1.326 . S
C259 C263 1.460 . S
C259 H265 0.929 . S
N260 Mn253 2.257 . S
N260 C259 1.326 . S
N260 C264 1.362 . S
C261 C262 1.258 . S
C261 C264 1.431 . S
C261 C281 1.449 . S
C262 C261 1.258 . S
C262 C263 1.477 . S
C262 H282 0.931 . S
C263 C259 1.460 . S
C263 C262 1.477 . S
C263 H283 0.930 1_556 S
C264 N260 1.362 . S
C264 C261 1.431 . S
C264 C274 1.476 . S
H265 C259 0.929 . S
C266 O257 1.250 . S
C266 O258 1.258 . S
O267 Mn252 2.162 1_565 S
O267 C255 1.281 . S
O268 Mn252 2.297 1_565 S
O268 C255 1.236 . S
N269 Mn253 2.282 . S
N269 C270 1.328 . S
N269 C274 1.318 . S
C270 N269 1.328 . S
C270 C271 1.457 . S
C270 H275 0.929 . S
C271 C270 1.457 . S
C271 C272 1.291 . S
C271 H284 0.931 . S
C272 C271 1.291 . S
C272 C273 1.373 . S
C272 H285 0.929 . S
C273 C272 1.373 . S
C273 C274 1.396 . S
C273 C280 1.403 . S
C274 C264 1.476 . S
C274 N269 1.318 . S
C274 C273 1.396 . S
H275 C270 0.929 . S
O276 Mn252 2.385 . S
O276 C254 1.234 . S
O277 Mn252 2.209 . S
O277 Mn253 2.215 . S
O277 C254 1.283 . S
O278 Mn252 2.094 1_655 S
O278 C256 1.240 . S
O279 Mn253 2.117 1_655 S
O279 C256 1.264 . S
C280 C273 1.403 . S
C280 C281 1.399 . S
C280 H286 0.929 . S
C281 C261 1.449 . S
C281 C280 1.399 . S
C281 H287 0.930 . S
H282 C262 0.931 . S
H283 C263 0.930 1_554 S
H284 C271 0.931 . S
H285 C272 0.929 . S
H286 C280 0.929 . S
H287 C281 0.930 . S
Mn288 O293 2.095 . S
Mn288 O303 2.162 . S
Mn288 O304 2.297 . S
Mn288 O312 2.385 . S
Mn288 O313 2.209 . S
Mn288 O314 2.094 . S
Mn289 O294 2.121 . S
Mn289 N296 2.257 . S
Mn289 N305 2.282 . S
Mn289 O313 2.215 . S
Mn289 O315 2.117 . S
C290 O312 1.234 . S
C290 O313 1.283 . S
C291 O303 1.281 . S
C291 O304 1.236 . S
C292 O314 1.240 . S
C292 O315 1.264 . S
O293 Mn288 2.095 . S
O293 C302 1.250 . S
O294 Mn289 2.121 . S
O294 C302 1.258 . S
C295 N296 1.326 . S
C295 C299 1.460 . S
C295 H301 0.929 . S
N296 Mn289 2.257 . S
N296 C295 1.326 . S
N296 C300 1.362 . S
C297 C298 1.258 . S
C297 C300 1.431 . S
C297 C317 1.449 . S
C298 C297 1.258 . S
C298 C299 1.477 . S
C298 H318 0.931 . S
C299 C295 1.460 . S
C299 C298 1.477 . S
C299 H319 0.930 . S
C300 N296 1.362 . S
C300 C297 1.431 . S
C300 C310 1.476 . S
H301 C295 0.929 . S
C302 O293 1.250 . S
C302 O294 1.258 . S
O303 Mn288 2.162 . S
O303 C291 1.281 . S
O304 Mn288 2.297 . S
O304 C291 1.236 . S
N305 Mn289 2.282 . S
N305 C306 1.328 . S
N305 C310 1.318 . S
C306 N305 1.328 . S
C306 C307 1.457 . S
C306 H311 0.929 . S
C307 C306 1.457 . S
C307 C308 1.291 . S
C307 H320 0.931 . S
C308 C307 1.291 . S
C308 C309 1.373 . S
C308 H321 0.929 1_565 S
C309 C308 1.373 . S
C309 C310 1.396 . S
C309 C316 1.399 1_565 S
C310 C300 1.476 . S
C310 N305 1.318 . S
C310 C309 1.396 . S
H311 C306 0.929 . S
O312 Mn288 2.385 . S
O312 C290 1.234 . S
O313 Mn288 2.209 . S
O313 Mn289 2.215 . S
O313 C290 1.283 . S
O314 Mn288 2.094 . S
O314 C292 1.240 . S
O315 Mn289 2.117 . S
O315 C292 1.264 . S
C316 C309 1.399 1_545 S
C316 C317 1.397 1_545 S
C316 H322 0.935 . S
C317 C297 1.449 . S
C317 C316 1.397 1_565 S
C317 H323 0.930 1_565 S
H318 C298 0.931 . S
H319 C299 0.930 . S
H320 C307 0.931 . S
H321 C308 0.929 1_545 S
H322 C316 0.935 . S
H323 C317 0.930 1_545 S
Mn324 O329 2.095 1_545 S
Mn324 O339 2.162 1_655 S
Mn324 O340 2.297 1_655 S
Mn324 O348 2.385 . S
Mn324 O349 2.209 . S
Mn324 O350 2.094 1_545 S
Mn325 O330 2.121 . S
Mn325 N332 2.257 . S
Mn325 N341 2.282 . S
Mn325 O349 2.215 . S
Mn325 O351 2.117 1_545 S
C326 O348 1.234 . S
C326 O349 1.283 . S
C327 O339 1.281 . S
C327 O340 1.236 . S
C328 O350 1.240 . S
C328 O351 1.264 . S
O329 Mn324 2.095 1_565 S
O329 C338 1.250 1_565 S
O330 Mn325 2.121 . S
O330 C338 1.258 . S
C331 N332 1.326 . S
C331 C335 1.460 . S
C331 H337 0.929 . S
N332 Mn325 2.257 . S
N332 C331 1.326 . S
N332 C336 1.362 . S
C333 C334 1.258 . S
C333 C336 1.431 . S
C333 C353 1.449 . S
C334 C333 1.258 . S
C334 C335 1.477 . S
C334 H354 0.931 . S
C335 C331 1.460 . S
C335 C334 1.477 . S
C335 H355 0.930 . S
C336 N332 1.362 . S
C336 C333 1.431 . S
C336 C346 1.476 . S
H337 C331 0.929 . S
C338 O329 1.250 1_545 S
C338 O330 1.258 . S
O339 Mn324 2.162 1_455 S
O339 C327 1.281 . S
O340 Mn324 2.297 1_455 S
O340 C327 1.236 . S
N341 Mn325 2.282 . S
N341 C342 1.328 . S
N341 C346 1.318 . S
C342 N341 1.328 . S
C342 C343 1.457 . S
C342 H347 0.929 . S
C343 C342 1.457 . S
C343 C344 1.291 . S
C343 H356 0.931 . S
C344 C343 1.291 . S
C344 C345 1.373 . S
C344 H357 0.929 . S
C345 C344 1.373 . S
C345 C346 1.396 . S
C345 C352 1.403 . S
C346 C336 1.476 . S
C346 N341 1.318 . S
C346 C345 1.396 . S
H347 C342 0.929 . S
O348 Mn324 2.385 . S
O348 C326 1.234 . S
O349 Mn324 2.209 . S
O349 Mn325 2.215 . S
O349 C326 1.283 . S
O350 Mn324 2.094 1_565 S
O350 C328 1.240 . S
O351 Mn325 2.117 1_565 S
O351 C328 1.264 . S
C352 C345 1.403 . S
C352 C353 1.399 . S
C352 H358 0.929 . S
C353 C333 1.449 . S
C353 C352 1.399 . S
C353 H359 0.930 . S
H354 C334 0.931 . S
H355 C335 0.930 . S
H356 C343 0.931 . S
H357 C344 0.929 . S
H358 C352 0.929 . S
H359 C353 0.930 . S
Mn360 O365 2.095 . S
Mn360 O375 2.162 . S
Mn360 O376 2.297 . S
Mn360 O384 2.385 . S
Mn360 O385 2.209 . S
Mn360 O386 2.094 . S
Mn361 O366 2.121 . S
Mn361 N368 2.257 . S
Mn361 N377 2.282 . S
Mn361 O385 2.215 . S
Mn361 O387 2.117 . S
C362 O384 1.234 . S
C362 O385 1.283 . S
C363 O375 1.281 . S
C363 O376 1.236 . S
C364 O386 1.240 . S
C364 O387 1.264 . S
O365 Mn360 2.095 . S
O365 C374 1.250 . S
O366 Mn361 2.121 . S
O366 C374 1.258 . S
C367 N368 1.326 . S
C367 C371 1.460 . S
C367 H373 0.929 . S
N368 Mn361 2.257 . S
N368 C367 1.326 . S
N368 C372 1.362 . S
C369 C370 1.258 . S
C369 C372 1.431 . S
C369 C389 1.449 . S
C370 C369 1.258 . S
C370 C371 1.477 . S
C370 H390 0.931 . S
C371 C367 1.460 . S
C371 C370 1.477 . S
C371 H391 0.930 . S
C372 N368 1.362 . S
C372 C369 1.431 . S
C372 C382 1.476 . S
H373 C367 0.929 . S
C374 O365 1.250 . S
C374 O366 1.258 . S
O375 Mn360 2.162 . S
O375 C363 1.281 . S
O376 Mn360 2.297 . S
O376 C363 1.236 . S
N377 Mn361 2.282 . S
N377 C378 1.328 . S
N377 C382 1.318 . S
C378 N377 1.328 . S
C378 C379 1.457 . S
C378 H383 0.929 . S
C379 C378 1.457 . S
C379 C380 1.291 . S
C379 H392 0.931 . S
C380 C379 1.291 . S
C380 C381 1.373 . S
C380 H393 0.929 1_545 S
C381 C380 1.373 . S
C381 C382 1.396 . S
C381 C388 1.403 1_545 S
C382 C372 1.476 . S
C382 N377 1.318 . S
C382 C381 1.396 . S
H383 C378 0.929 . S
O384 Mn360 2.385 . S
O384 C362 1.234 . S
O385 Mn360 2.209 . S
O385 Mn361 2.215 . S
O385 C362 1.283 . S
O386 Mn360 2.094 . S
O386 C364 1.240 . S
O387 Mn361 2.117 . S
O387 C364 1.264 . S
C388 C381 1.403 1_565 S
C388 C389 1.399 1_565 S
C388 H394 0.929 . S
C389 C369 1.449 . S
C389 C388 1.399 1_545 S
C389 H395 0.930 1_545 S
H390 C370 0.931 . S
H391 C371 0.930 . S
H392 C379 0.931 . S
H393 C380 0.929 1_565 S
H394 C388 0.929 . S
H395 C389 0.930 1_565 S
Mn396 O401 2.082 1_565 S
Mn396 O411 2.162 . S
Mn396 O412 2.297 . S
Mn396 O420 2.385 . S
Mn396 O421 2.209 . S
Mn396 O422 2.094 1_565 S
Mn397 O402 2.121 . S
Mn397 N404 2.257 . S
Mn397 N413 2.282 . S
Mn397 O421 2.215 . S
Mn397 O423 2.117 1_565 S
C398 O420 1.234 . S
C398 O421 1.283 . S
C399 O411 1.281 . S
C399 O412 1.236 . S
C400 O422 1.240 . S
C400 O423 1.264 . S
O401 Mn396 2.082 1_545 S
O401 C410 1.243 1_545 S
O402 Mn397 2.121 . S
O402 C410 1.258 . S
C403 N404 1.326 . S
C403 C407 1.460 . S
C403 H409 0.929 . S
N404 Mn397 2.257 . S
N404 C403 1.326 . S
N404 C408 1.362 . S
C405 C406 1.258 . S
C405 C408 1.431 . S
C405 C425 1.449 . S
C406 C405 1.258 . S
C406 C407 1.477 . S
C406 H426 0.931 . S
C407 C403 1.460 . S
C407 C406 1.477 . S
C407 H427 0.930 1_556 S
C408 N404 1.362 . S
C408 C405 1.431 . S
C408 C418 1.476 . S
H409 C403 0.929 . S
C410 O401 1.243 1_565 S
C410 O402 1.258 . S
O411 Mn396 2.162 . S
O411 C399 1.281 . S
O412 Mn396 2.297 . S
O412 C399 1.236 . S
N413 Mn397 2.282 . S
N413 C414 1.328 . S
N413 C418 1.318 . S
C414 N413 1.328 . S
C414 C415 1.457 . S
C414 H419 0.929 . S
C415 C414 1.457 . S
C415 C416 1.291 . S
C415 H428 0.931 . S
C416 C415 1.291 . S
C416 C417 1.373 . S
C416 H429 0.929 . S
C417 C416 1.373 . S
C417 C418 1.396 . S
C417 C424 1.403 . S
C418 C408 1.476 . S
C418 N413 1.318 . S
C418 C417 1.396 . S
H419 C414 0.929 . S
O420 Mn396 2.385 . S
O420 C398 1.234 . S
O421 Mn396 2.209 . S
O421 Mn397 2.215 . S
O421 C398 1.283 . S
O422 Mn396 2.094 1_545 S
O422 C400 1.240 . S
O423 Mn397 2.117 1_545 S
O423 C400 1.264 . S
C424 C417 1.403 . S
C424 C425 1.399 . S
C424 H430 0.929 . S
C425 C405 1.449 . S
C425 C424 1.399 . S
C425 H431 0.930 . S
H426 C406 0.931 . S
H427 C407 0.930 1_554 S
H428 C415 0.931 . S
H429 C416 0.929 . S
H430 C424 0.929 . S
H431 C425 0.930 . S
Mn432 O437 2.095 . S
Mn432 O447 2.162 . S
Mn432 O448 2.297 . S
Mn432 O456 2.385 . S
Mn432 O457 2.209 . S
Mn432 O458 2.094 . S
Mn433 O438 2.121 . S
Mn433 N440 2.257 . S
Mn433 N449 2.282 . S
Mn433 O457 2.215 . S
Mn433 O459 2.117 . S
C434 O456 1.234 . S
C434 O457 1.283 . S
C435 O447 1.281 . S
C435 O448 1.236 . S
C436 O458 1.240 . S
C436 O459 1.264 . S
O437 Mn432 2.095 . S
O437 C446 1.250 . S
O438 Mn433 2.121 . S
O438 C446 1.258 . S
C439 N440 1.326 . S
C439 C443 1.460 . S
C439 H445 0.929 . S
N440 Mn433 2.257 . S
N440 C439 1.326 . S
N440 C444 1.362 . S
C441 C442 1.258 . S
C441 C444 1.431 . S
C441 C461 1.449 . S
C442 C441 1.258 . S
C442 C443 1.477 . S
C442 H462 0.931 . S
C443 C439 1.460 . S
C443 C442 1.477 . S
C443 H463 0.930 . S
C444 N440 1.362 . S
C444 C441 1.431 . S
C444 C454 1.476 . S
H445 C439 0.929 . S
C446 O437 1.250 . S
C446 O438 1.258 . S
O447 Mn432 2.162 . S
O447 C435 1.281 . S
O448 Mn432 2.297 . S
O448 C435 1.236 . S
N449 Mn433 2.282 . S
N449 C450 1.328 . S
N449 C454 1.318 . S
C450 N449 1.328 . S
C450 C451 1.457 . S
C450 H455 0.929 . S
C451 C450 1.457 . S
C451 C452 1.291 . S
C451 H464 0.931 . S
C452 C451 1.291 . S
C452 C453 1.373 . S
C452 H465 0.929 1_545 S
C453 C452 1.373 . S
C453 C454 1.396 . S
C453 C460 1.403 1_545 S
C454 C444 1.476 . S
C454 N449 1.318 . S
C454 C453 1.396 . S
H455 C450 0.929 . S
O456 Mn432 2.385 . S
O456 C434 1.234 . S
O457 Mn432 2.209 . S
O457 Mn433 2.215 . S
O457 C434 1.283 . S
O458 Mn432 2.094 . S
O458 C436 1.240 . S
O459 Mn433 2.117 . S
O459 C436 1.264 . S
C460 C453 1.403 1_565 S
C460 C461 1.399 1_565 S
C460 H466 0.929 . S
C461 C441 1.449 . S
C461 C460 1.399 1_545 S
C461 H467 0.930 1_545 S
H462 C442 0.931 . S
H463 C443 0.930 . S
H464 C451 0.931 . S
H465 C452 0.929 1_565 S
H466 C460 0.929 . S
H467 C461 0.930 1_565 S
Mn468 O473 2.095 1_545 S
Mn468 O483 2.162 . S
Mn468 O484 2.297 . S
Mn468 O492 2.385 . S
Mn468 O493 2.209 . S
Mn468 O494 2.094 1_545 S
Mn469 O474 2.121 . S
Mn469 N476 2.257 . S
Mn469 N485 2.282 . S
Mn469 O493 2.215 . S
Mn469 O495 2.117 1_545 S
C470 O492 1.234 . S
C470 O493 1.283 . S
C471 O483 1.281 . S
C471 O484 1.236 . S
C472 O494 1.240 . S
C472 O495 1.264 . S
O473 Mn468 2.095 1_565 S
O473 C482 1.250 1_565 S
O474 Mn469 2.121 . S
O474 C482 1.258 . S
C475 N476 1.326 . S
C475 C479 1.460 . S
C475 H481 0.929 . S
N476 Mn469 2.257 . S
N476 C475 1.326 . S
N476 C480 1.362 . S
C477 C478 1.258 . S
C477 C480 1.431 . S
C477 C497 1.449 . S
C478 C477 1.258 . S
C478 C479 1.477 . S
C478 H498 0.931 . S
C479 C475 1.460 . S
C479 C478 1.477 . S
C479 H499 0.930 . S
C480 N476 1.362 . S
C480 C477 1.431 . S
C480 C490 1.476 . S
H481 C475 0.929 . S
C482 O473 1.250 1_545 S
C482 O474 1.258 . S
O483 Mn468 2.162 . S
O483 C471 1.281 . S
O484 Mn468 2.297 . S
O484 C471 1.236 . S
N485 Mn469 2.282 . S
N485 C486 1.328 . S
N485 C490 1.318 . S
C486 N485 1.328 . S
C486 C487 1.457 . S
C486 H491 0.929 . S
C487 C486 1.457 . S
C487 C488 1.291 . S
C487 H500 0.931 . S
C488 C487 1.291 . S
C488 C489 1.373 . S
C488 H501 0.929 . S
C489 C488 1.373 . S
C489 C490 1.396 . S
C489 C496 1.403 . S
C490 C480 1.476 . S
C490 N485 1.318 . S
C490 C489 1.396 . S
H491 C486 0.929 . S
O492 Mn468 2.385 . S
O492 C470 1.234 . S
O493 Mn468 2.209 . S
O493 Mn469 2.215 . S
O493 C470 1.283 . S
O494 Mn468 2.094 1_565 S
O494 C472 1.240 . S
O495 Mn469 2.117 1_565 S
O495 C472 1.264 . S
C496 C489 1.403 . S
C496 C497 1.399 . S
C496 H502 0.929 . S
C497 C477 1.449 . S
C497 C496 1.399 . S
C497 H503 0.930 . S
H498 C478 0.931 . S
H499 C479 0.930 . S
H500 C487 0.931 . S
H501 C488 0.929 . S
H502 C496 0.929 . S
H503 C497 0.930 . S
Mn504 O509 2.095 . S
Mn504 O519 2.162 . S
Mn504 O520 2.297 . S
Mn504 O528 2.385 . S
Mn504 O529 2.209 . S
Mn504 O530 2.094 . S
Mn505 O510 2.121 . S
Mn505 N512 2.257 . S
Mn505 N521 2.282 . S
Mn505 O529 2.215 . S
Mn505 O531 2.117 . S
C506 O528 1.234 . S
C506 O529 1.283 . S
C507 O519 1.281 . S
C507 O520 1.236 . S
C508 O530 1.240 . S
C508 O531 1.264 . S
O509 Mn504 2.095 . S
O509 C518 1.250 . S
O510 Mn505 2.121 . S
O510 C518 1.258 . S
C511 N512 1.326 . S
C511 C515 1.460 . S
C511 H517 0.929 . S
N512 Mn505 2.257 . S
N512 C511 1.326 . S
N512 C516 1.362 . S
C513 C514 1.258 . S
C513 C516 1.431 . S
C513 C533 1.449 . S
C514 C513 1.258 . S
C514 C515 1.477 . S
C514 H534 0.931 . S
C515 C511 1.460 . S
C515 C514 1.477 . S
C515 H535 0.930 . S
C516 N512 1.362 . S
C516 C513 1.431 . S
C516 C526 1.476 . S
H517 C511 0.929 . S
C518 O509 1.250 . S
C518 O510 1.258 . S
O519 Mn504 2.162 . S
O519 C507 1.281 . S
O520 Mn504 2.297 . S
O520 C507 1.236 . S
N521 Mn505 2.282 . S
N521 C522 1.328 . S
N521 C526 1.318 . S
C522 N521 1.328 . S
C522 C523 1.457 . S
C522 H527 0.929 . S
C523 C522 1.457 . S
C523 C524 1.291 . S
C523 H536 0.931 . S
C524 C523 1.291 . S
C524 C525 1.373 . S
C524 H537 0.929 1_565 S
C525 C524 1.373 . S
C525 C526 1.396 . S
C525 C532 1.399 1_565 S
C526 C516 1.476 . S
C526 N521 1.318 . S
C526 C525 1.396 . S
H527 C522 0.929 . S
O528 Mn504 2.385 . S
O528 C506 1.234 . S
O529 Mn504 2.209 . S
O529 Mn505 2.215 . S
O529 C506 1.283 . S
O530 Mn504 2.094 . S
O530 C508 1.240 . S
O531 Mn505 2.117 . S
O531 C508 1.264 . S
C532 C525 1.399 1_545 S
C532 C533 1.397 1_545 S
C532 H538 0.935 . S
C533 C513 1.449 . S
C533 C532 1.397 1_565 S
C533 H539 0.930 1_565 S
H534 C514 0.931 . S
H535 C515 0.930 . S
H536 C523 0.931 . S
H537 C524 0.929 1_545 S
H538 C532 0.935 . S
H539 C533 0.930 1_545 S
Mn540 O545 2.082 1_565 S
Mn540 O555 2.162 1_655 S
Mn540 O556 2.297 1_655 S
Mn540 O564 2.385 . S
Mn540 O565 2.209 . S
Mn540 O566 2.094 1_565 S
Mn541 O546 2.121 . S
Mn541 N548 2.257 . S
Mn541 N557 2.282 . S
Mn541 O565 2.215 . S
Mn541 O567 2.117 1_565 S
C542 O564 1.234 . S
C542 O565 1.283 . S
C543 O555 1.281 . S
C543 O556 1.236 . S
C544 O566 1.240 . S
C544 O567 1.264 . S
O545 Mn540 2.082 1_545 S
O545 C554 1.243 1_545 S
O546 Mn541 2.121 . S
O546 C554 1.258 . S
C547 N548 1.326 . S
C547 C551 1.460 . S
C547 H553 0.929 . S
N548 Mn541 2.257 . S
N548 C547 1.326 . S
N548 C552 1.362 . S
C549 C550 1.258 . S
C549 C552 1.431 . S
C549 C569 1.449 . S
C550 C549 1.258 . S
C550 C551 1.477 . S
C550 H570 0.931 . S
C551 C547 1.460 . S
C551 C550 1.477 . S
C551 H571 0.930 1_554 S
C552 N548 1.362 . S
C552 C549 1.431 . S
C552 C562 1.476 . S
H553 C547 0.929 . S
C554 O545 1.243 1_565 S
C554 O546 1.258 . S
O555 Mn540 2.162 1_455 S
O555 C543 1.281 . S
O556 Mn540 2.297 1_455 S
O556 C543 1.236 . S
N557 Mn541 2.282 . S
N557 C558 1.328 . S
N557 C562 1.318 . S
C558 N557 1.328 . S
C558 C559 1.457 . S
C558 H563 0.929 . S
C559 C558 1.457 . S
C559 C560 1.291 . S
C559 H572 0.931 . S
C560 C559 1.291 . S
C560 C561 1.373 . S
C560 H573 0.929 . S
C561 C560 1.373 . S
C561 C562 1.396 . S
C561 C568 1.403 . S
C562 C552 1.476 . S
C562 N557 1.318 . S
C562 C561 1.396 . S
H563 C558 0.929 . S
O564 Mn540 2.385 . S
O564 C542 1.234 . S
O565 Mn540 2.209 . S
O565 Mn541 2.215 . S
O565 C542 1.283 . S
O566 Mn540 2.094 1_545 S
O566 C544 1.240 . S
O567 Mn541 2.117 1_545 S
O567 C544 1.264 . S
C568 C561 1.403 . S
C568 C569 1.399 . S
C568 H574 0.929 . S
C569 C549 1.449 . S
C569 C568 1.399 . S
C569 H575 0.930 . S
H570 C550 0.931 . S
H571 C551 0.930 1_556 S
H572 C559 0.931 . S
H573 C560 0.929 . S
H574 C568 0.929 . S
H575 C569 0.930 . S
Mn576 O581 2.095 . S
Mn576 O591 2.162 . S
Mn576 O592 2.297 . S
Mn576 O600 2.385 . S
Mn576 O601 2.209 . S
Mn576 O602 2.094 . S
Mn577 O582 2.121 . S
Mn577 N584 2.257 . S
Mn577 N593 2.282 . S
Mn577 O601 2.215 . S
Mn577 O603 2.117 . S
C578 O600 1.234 . S
C578 O601 1.283 . S
C579 O591 1.281 . S
C579 O592 1.236 . S
C580 O602 1.240 . S
C580 O603 1.264 . S
O581 Mn576 2.095 . S
O581 C590 1.250 . S
O582 Mn577 2.121 . S
O582 C590 1.258 . S
C583 N584 1.326 . S
C583 C587 1.460 . S
C583 H589 0.929 . S
N584 Mn577 2.257 . S
N584 C583 1.326 . S
N584 C588 1.362 . S
C585 C586 1.258 . S
C585 C588 1.431 . S
C585 C605 1.449 . S
C586 C585 1.258 . S
C586 C587 1.477 . S
C586 H606 0.931 . S
C587 C583 1.460 . S
C587 C586 1.477 . S
C587 H607 0.930 . S
C588 N584 1.362 . S
C588 C585 1.431 . S
C588 C598 1.476 . S
H589 C583 0.929 . S
C590 O581 1.250 . S
C590 O582 1.258 . S
O591 Mn576 2.162 . S
O591 C579 1.281 . S
O592 Mn576 2.297 . S
O592 C579 1.236 . S
N593 Mn577 2.282 . S
N593 C594 1.328 . S
N593 C598 1.318 . S
C594 N593 1.328 . S
C594 C595 1.457 . S
C594 H599 0.929 . S
C595 C594 1.457 . S
C595 C596 1.291 . S
C595 H608 0.931 . S
C596 C595 1.291 . S
C596 C597 1.373 . S
C596 H609 0.929 . S
C597 C596 1.373 . S
C597 C598 1.396 . S
C597 C604 1.403 . S
C598 C588 1.476 . S
C598 N593 1.318 . S
C598 C597 1.396 . S
H599 C594 0.929 . S
O600 Mn576 2.385 . S
O600 C578 1.234 . S
O601 Mn576 2.209 . S
O601 Mn577 2.215 . S
O601 C578 1.283 . S
O602 Mn576 2.094 . S
O602 C580 1.240 . S
O603 Mn577 2.117 . S
O603 C580 1.264 . S
C604 C597 1.403 . S
C604 C605 1.399 . S
C604 H610 0.929 . S
C605 C585 1.449 . S
C605 C604 1.399 . S
C605 H611 0.930 . S
H606 C586 0.931 . S
H607 C587 0.930 . S
H608 C595 0.931 . S
H609 C596 0.929 . S
H610 C604 0.929 . S
H611 C605 0.930 . S
Mn612 O617 2.095 . S
Mn612 O627 2.162 . S
Mn612 O628 2.297 . S
Mn612 O636 2.385 . S
Mn612 O637 2.209 . S
Mn612 O638 2.094 . S
Mn613 O618 2.121 . S
Mn613 N620 2.257 . S
Mn613 N629 2.282 . S
Mn613 O637 2.215 . S
Mn613 O639 2.117 . S
C614 O636 1.234 . S
C614 O637 1.283 . S
C615 O627 1.281 . S
C615 O628 1.236 . S
C616 O638 1.240 . S
C616 O639 1.264 . S
O617 Mn612 2.095 . S
O617 C626 1.250 . S
O618 Mn613 2.121 . S
O618 C626 1.258 . S
C619 N620 1.326 . S
C619 C623 1.460 . S
C619 H625 0.929 . S
N620 Mn613 2.257 . S
N620 C619 1.326 . S
N620 C624 1.362 . S
C621 C622 1.258 . S
C621 C624 1.431 . S
C621 C641 1.449 . S
C622 C621 1.258 . S
C622 C623 1.477 . S
C622 H642 0.931 . S
C623 C619 1.460 . S
C623 C622 1.477 . S
C623 H643 0.930 1_554 S
C624 N620 1.362 . S
C624 C621 1.431 . S
C624 C634 1.476 . S
H625 C619 0.929 . S
C626 O617 1.250 . S
C626 O618 1.258 . S
O627 Mn612 2.162 . S
O627 C615 1.281 . S
O628 Mn612 2.297 . S
O628 C615 1.236 . S
N629 Mn613 2.282 . S
N629 C630 1.328 . S
N629 C634 1.318 . S
C630 N629 1.328 . S
C630 C631 1.457 . S
C630 H635 0.929 . S
C631 C630 1.457 . S
C631 C632 1.291 . S
C631 H644 0.931 . S
C632 C631 1.291 . S
C632 C633 1.373 . S
C632 H645 0.929 . S
C633 C632 1.373 . S
C633 C634 1.396 . S
C633 C640 1.403 . S
C634 C624 1.476 . S
C634 N629 1.318 . S
C634 C633 1.396 . S
H635 C630 0.929 . S
O636 Mn612 2.385 . S
O636 C614 1.234 . S
O637 Mn612 2.209 . S
O637 Mn613 2.215 . S
O637 C614 1.283 . S
O638 Mn612 2.094 . S
O638 C616 1.240 . S
O639 Mn613 2.117 . S
O639 C616 1.264 . S
C640 C633 1.403 . S
C640 C641 1.399 . S
C640 H646 0.929 . S
C641 C621 1.449 . S
C641 C640 1.399 . S
C641 H647 0.930 . S
H642 C622 0.931 . S
H643 C623 0.930 1_556 S
H644 C631 0.931 . S
H645 C632 0.929 . S
H646 C640 0.929 . S
H647 C641 0.930 . S
Mn648 O653 2.095 . S
Mn648 O663 2.162 . S
Mn648 O664 2.297 . S
Mn648 O672 2.385 . S
Mn648 O673 2.209 . S
Mn648 O674 2.094 . S
Mn649 O654 2.121 . S
Mn649 N656 2.257 . S
Mn649 N665 2.282 . S
Mn649 O673 2.215 . S
Mn649 O675 2.117 . S
C650 O672 1.234 . S
C650 O673 1.283 . S
C651 O663 1.281 . S
C651 O664 1.236 . S
C652 O674 1.240 . S
C652 O675 1.264 . S
O653 Mn648 2.095 . S
O653 C662 1.250 . S
O654 Mn649 2.121 . S
O654 C662 1.258 . S
C655 N656 1.326 . S
C655 C659 1.460 . S
C655 H661 0.929 . S
N656 Mn649 2.257 . S
N656 C655 1.326 . S
N656 C660 1.362 . S
C657 C658 1.258 . S
C657 C660 1.431 . S
C657 C677 1.449 1_655 S
C658 C657 1.258 . S
C658 C659 1.477 . S
C658 H678 0.931 . S
C659 C655 1.460 . S
C659 C658 1.477 . S
C659 H679 0.930 . S
C660 N656 1.362 . S
C660 C657 1.431 . S
C660 C670 1.476 . S
H661 C655 0.929 . S
C662 O653 1.250 . S
C662 O654 1.258 . S
O663 Mn648 2.162 . S
O663 C651 1.281 . S
O664 Mn648 2.297 . S
O664 C651 1.236 . S
N665 Mn649 2.282 . S
N665 C666 1.328 . S
N665 C670 1.318 . S
C666 N665 1.328 . S
C666 C667 1.457 . S
C666 H671 0.929 . S
C667 C666 1.457 . S
C667 C668 1.291 . S
C667 H680 0.931 . S
C668 C667 1.291 . S
C668 C669 1.373 . S
C668 H681 0.929 1_655 S
C669 C668 1.373 . S
C669 C670 1.396 . S
C669 C676 1.403 1_655 S
C670 C660 1.476 . S
C670 N665 1.318 . S
C670 C669 1.396 . S
H671 C666 0.929 . S
O672 Mn648 2.385 . S
O672 C650 1.234 . S
O673 Mn648 2.209 . S
O673 Mn649 2.215 . S
O673 C650 1.283 . S
O674 Mn648 2.094 . S
O674 C652 1.240 . S
O675 Mn649 2.117 . S
O675 C652 1.264 . S
C676 C669 1.403 1_455 S
C676 C677 1.399 . S
C676 H682 0.929 . S
C677 C657 1.449 1_455 S
C677 C676 1.399 . S
C677 H683 0.930 . S
H678 C658 0.931 . S
H679 C659 0.930 . S
H680 C667 0.931 . S
H681 C668 0.929 1_455 S
H682 C676 0.929 . S
H683 C677 0.930 . S
Mn684 O689 2.095 . S
Mn684 O699 2.162 . S
Mn684 O700 2.297 . S
Mn684 O708 2.385 . S
Mn684 O709 2.209 . S
Mn684 O710 2.094 1_655 S
Mn685 O690 2.121 . S
Mn685 N692 2.257 . S
Mn685 N701 2.282 . S
Mn685 O709 2.215 . S
Mn685 O711 2.117 1_655 S
C686 O708 1.234 . S
C686 O709 1.283 . S
C687 O699 1.281 . S
C687 O700 1.236 . S
C688 O710 1.240 . S
C688 O711 1.264 . S
O689 Mn684 2.095 . S
O689 C698 1.250 . S
O690 Mn685 2.121 . S
O690 C698 1.258 . S
C691 N692 1.326 . S
C691 C695 1.460 . S
C691 H697 0.929 . S
N692 Mn685 2.257 . S
N692 C691 1.326 . S
N692 C696 1.362 . S
C693 C694 1.258 . S
C693 C696 1.431 . S
C693 C713 1.449 . S
C694 C693 1.258 . S
C694 C695 1.477 . S
C694 H714 0.931 . S
C695 C691 1.460 . S
C695 C694 1.477 . S
C695 H715 0.930 . S
C696 N692 1.362 . S
C696 C693 1.431 . S
C696 C706 1.476 . S
H697 C691 0.929 . S
C698 O689 1.250 . S
C698 O690 1.258 . S
O699 Mn684 2.162 . S
O699 C687 1.281 . S
O700 Mn684 2.297 . S
O700 C687 1.236 . S
N701 Mn685 2.282 . S
N701 C702 1.328 . S
N701 C706 1.318 . S
C702 N701 1.328 . S
C702 C703 1.457 . S
C702 H707 0.929 . S
C703 C702 1.457 . S
C703 C704 1.291 . S
C703 H716 0.931 . S
C704 C703 1.291 . S
C704 C705 1.373 . S
C704 H717 0.929 . S
C705 C704 1.373 . S
C705 C706 1.396 . S
C705 C712 1.403 . S
C706 C696 1.476 . S
C706 N701 1.318 . S
C706 C705 1.396 . S
H707 C702 0.929 . S
O708 Mn684 2.385 . S
O708 C686 1.234 . S
O709 Mn684 2.209 . S
O709 Mn685 2.215 . S
O709 C686 1.283 . S
O710 Mn684 2.094 1_455 S
O710 C688 1.240 . S
O711 Mn685 2.117 1_455 S
O711 C688 1.264 . S
C712 C705 1.403 . S
C712 C713 1.399 . S
C712 H718 0.929 . S
C713 C693 1.449 . S
C713 C712 1.399 . S
C713 H719 0.930 . S
H714 C694 0.931 . S
H715 C695 0.930 . S
H716 C703 0.931 . S
H717 C704 0.929 . S
H718 C712 0.929 . S
H719 C713 0.930 . S
Mn720 O725 2.095 . S
Mn720 O735 2.162 . S
Mn720 O736 2.297 . S
Mn720 O744 2.385 . S
Mn720 O745 2.209 . S
Mn720 O746 2.094 . S
Mn721 O726 2.121 . S
Mn721 N728 2.257 . S
Mn721 N737 2.282 . S
Mn721 O745 2.215 . S
Mn721 O747 2.117 . S
C722 O744 1.234 . S
C722 O745 1.283 . S
C723 O735 1.281 . S
C723 O736 1.236 . S
C724 O746 1.240 . S
C724 O747 1.264 . S
O725 Mn720 2.095 . S
O725 C734 1.250 . S
O726 Mn721 2.121 . S
O726 C734 1.258 . S
C727 N728 1.326 . S
C727 C731 1.460 . S
C727 H733 0.929 . S
N728 Mn721 2.257 . S
N728 C727 1.326 . S
N728 C732 1.362 . S
C729 C730 1.258 . S
C729 C732 1.431 . S
C729 C749 1.449 . S
C730 C729 1.258 . S
C730 C731 1.477 . S
C730 H750 0.931 . S
C731 C727 1.460 . S
C731 C730 1.477 . S
C731 H751 0.930 . S
C732 N728 1.362 . S
C732 C729 1.431 . S
C732 C742 1.476 . S
H733 C727 0.929 . S
C734 O725 1.250 . S
C734 O726 1.258 . S
O735 Mn720 2.162 . S
O735 C723 1.281 . S
O736 Mn720 2.297 . S
O736 C723 1.236 . S
N737 Mn721 2.282 . S
N737 C738 1.328 . S
N737 C742 1.318 . S
C738 N737 1.328 . S
C738 C739 1.457 . S
C738 H743 0.929 . S
C739 C738 1.457 . S
C739 C740 1.291 . S
C739 H752 0.931 . S
C740 C739 1.291 . S
C740 C741 1.373 . S
C740 H753 0.929 . S
C741 C740 1.373 . S
C741 C742 1.396 . S
C741 C748 1.403 . S
C742 C732 1.476 . S
C742 N737 1.318 . S
C742 C741 1.396 . S
H743 C738 0.929 . S
O744 Mn720 2.385 . S
O744 C722 1.234 . S
O745 Mn720 2.209 . S
O745 Mn721 2.215 . S
O745 C722 1.283 . S
O746 Mn720 2.094 . S
O746 C724 1.240 . S
O747 Mn721 2.117 . S
O747 C724 1.264 . S
C748 C741 1.403 . S
C748 C749 1.399 . S
C748 H754 0.929 . S
C749 C729 1.449 . S
C749 C748 1.399 . S
C749 H755 0.930 . S
H750 C730 0.931 . S
H751 C731 0.930 . S
H752 C739 0.931 . S
H753 C740 0.929 . S
H754 C748 0.929 . S
H755 C749 0.930 . S
Mn756 O761 2.095 . S
Mn756 O771 2.162 . S
Mn756 O772 2.297 . S
Mn756 O780 2.385 . S
Mn756 O781 2.209 . S
Mn756 O782 2.094 1_655 S
Mn757 O762 2.121 . S
Mn757 N764 2.257 . S
Mn757 N773 2.282 . S
Mn757 O781 2.215 . S
Mn757 O783 2.117 1_655 S
C758 O780 1.234 . S
C758 O781 1.283 . S
C759 O771 1.281 . S
C759 O772 1.236 . S
C760 O782 1.240 . S
C760 O783 1.264 . S
O761 Mn756 2.095 . S
O761 C770 1.250 . S
O762 Mn757 2.121 . S
O762 C770 1.258 . S
C763 N764 1.326 . S
C763 C767 1.460 . S
C763 H769 0.929 . S
N764 Mn757 2.257 . S
N764 C763 1.326 . S
N764 C768 1.362 . S
C765 C766 1.258 . S
C765 C768 1.431 . S
C765 C785 1.449 . S
C766 C765 1.258 . S
C766 C767 1.477 . S
C766 H786 0.931 . S
C767 C763 1.460 . S
C767 C766 1.477 . S
C767 H787 0.930 1_556 S
C768 N764 1.362 . S
C768 C765 1.431 . S
C768 C778 1.476 . S
H769 C763 0.929 . S
C770 O761 1.250 . S
C770 O762 1.258 . S
O771 Mn756 2.162 . S
O771 C759 1.281 . S
O772 Mn756 2.297 . S
O772 C759 1.236 . S
N773 Mn757 2.282 . S
N773 C774 1.328 . S
N773 C778 1.318 . S
C774 N773 1.328 . S
C774 C775 1.457 . S
C774 H779 0.929 . S
C775 C774 1.457 . S
C775 C776 1.291 . S
C775 H788 0.931 . S
C776 C775 1.291 . S
C776 C777 1.373 . S
C776 H789 0.929 . S
C777 C776 1.373 . S
C777 C778 1.396 . S
C777 C784 1.403 . S
C778 C768 1.476 . S
C778 N773 1.318 . S
C778 C777 1.396 . S
H779 C774 0.929 . S
O780 Mn756 2.385 . S
O780 C758 1.234 . S
O781 Mn756 2.209 . S
O781 Mn757 2.215 . S
O781 C758 1.283 . S
O782 Mn756 2.094 1_455 S
O782 C760 1.240 . S
O783 Mn757 2.117 1_455 S
O783 C760 1.264 . S
C784 C777 1.403 . S
C784 C785 1.399 . S
C784 H790 0.929 . S
C785 C765 1.449 . S
C785 C784 1.399 . S
C785 H791 0.930 . S
H786 C766 0.931 . S
H787 C767 0.930 1_554 S
H788 C775 0.931 . S
H789 C776 0.929 . S
H790 C784 0.929 . S
H791 C785 0.930 . S
Mn792 O797 2.095 . S
Mn792 O807 2.162 . S
Mn792 O808 2.297 . S
Mn792 O816 2.385 . S
Mn792 O817 2.209 . S
Mn792 O818 2.094 . S
Mn793 O798 2.121 . S
Mn793 N800 2.257 . S
Mn793 N809 2.282 . S
Mn793 O817 2.215 . S
Mn793 O819 2.117 . S
C794 O816 1.234 . S
C794 O817 1.283 . S
C795 O807 1.281 . S
C795 O808 1.236 . S
C796 O818 1.240 . S
C796 O819 1.264 . S
O797 Mn792 2.095 . S
O797 C806 1.250 . S
O798 Mn793 2.121 . S
O798 C806 1.258 . S
C799 N800 1.326 . S
C799 C803 1.460 . S
C799 H805 0.929 . S
N800 Mn793 2.257 . S
N800 C799 1.326 . S
N800 C804 1.362 . S
C801 C802 1.258 . S
C801 C804 1.431 . S
C801 C821 1.449 1_655 S
C802 C801 1.258 . S
C802 C803 1.477 . S
C802 H822 0.931 . S
C803 C799 1.460 . S
C803 C802 1.477 . S
C803 H823 0.930 . S
C804 N800 1.362 . S
C804 C801 1.431 . S
C804 C814 1.476 . S
H805 C799 0.929 . S
C806 O797 1.250 . S
C806 O798 1.258 . S
O807 Mn792 2.162 . S
O807 C795 1.281 . S
O808 Mn792 2.297 . S
O808 C795 1.236 . S
N809 Mn793 2.282 . S
N809 C810 1.328 . S
N809 C814 1.318 . S
C810 N809 1.328 . S
C810 C811 1.457 . S
C810 H815 0.929 . S
C811 C810 1.457 . S
C811 C812 1.291 . S
C811 H824 0.931 . S
C812 C811 1.291 . S
C812 C813 1.373 . S
C812 H825 0.929 1_655 S
C813 C812 1.373 . S
C813 C814 1.396 . S
C813 C820 1.403 1_655 S
C814 C804 1.476 . S
C814 N809 1.318 . S
C814 C813 1.396 . S
H815 C810 0.929 . S
O816 Mn792 2.385 . S
O816 C794 1.234 . S
O817 Mn792 2.209 . S
O817 Mn793 2.215 . S
O817 C794 1.283 . S
O818 Mn792 2.094 . S
O818 C796 1.240 . S
O819 Mn793 2.117 . S
O819 C796 1.264 . S
C820 C813 1.403 1_455 S
C820 C821 1.399 . S
C820 H826 0.929 . S
C821 C801 1.449 1_455 S
C821 C820 1.399 . S
C821 H827 0.930 . S
H822 C802 0.931 . S
H823 C803 0.930 . S
H824 C811 0.931 . S
H825 C812 0.929 1_455 S
H826 C820 0.929 . S
H827 C821 0.930 . S
Mn828 O833 2.095 . S
Mn828 O843 2.162 . S
Mn828 O844 2.297 . S
Mn828 O852 2.385 . S
Mn828 O853 2.209 . S
Mn828 O854 2.094 . S
Mn829 O834 2.121 . S
Mn829 N836 2.257 . S
Mn829 N845 2.282 . S
Mn829 O853 2.215 . S
Mn829 O855 2.117 . S
C830 O852 1.234 . S
C830 O853 1.283 . S
C831 O843 1.281 . S
C831 O844 1.236 . S
C832 O854 1.240 . S
C832 O855 1.264 . S
O833 Mn828 2.095 . S
O833 C842 1.250 . S
O834 Mn829 2.121 . S
O834 C842 1.258 . S
C835 N836 1.326 . S
C835 C839 1.460 . S
C835 H841 0.929 . S
N836 Mn829 2.257 . S
N836 C835 1.326 . S
N836 C840 1.362 . S
C837 C838 1.258 . S
C837 C840 1.431 . S
C837 C857 1.449 . S
C838 C837 1.258 . S
C838 C839 1.477 . S
C838 H858 0.931 . S
C839 C835 1.460 . S
C839 C838 1.477 . S
C839 H859 0.930 . S
C840 N836 1.362 . S
C840 C837 1.431 . S
C840 C850 1.476 . S
H841 C835 0.929 . S
C842 O833 1.250 . S
C842 O834 1.258 . S
O843 Mn828 2.162 . S
O843 C831 1.281 . S
O844 Mn828 2.297 . S
O844 C831 1.236 . S
N845 Mn829 2.282 . S
N845 C846 1.328 . S
N845 C850 1.318 . S
C846 N845 1.328 . S
C846 C847 1.457 . S
C846 H851 0.929 . S
C847 C846 1.457 . S
C847 C848 1.291 . S
C847 H860 0.931 . S
C848 C847 1.291 . S
C848 C849 1.373 . S
C848 H861 0.929 . S
C849 C848 1.373 . S
C849 C850 1.396 . S
C849 C856 1.403 . S
C850 C840 1.476 . S
C850 N845 1.318 . S
C850 C849 1.396 . S
H851 C846 0.929 . S
O852 Mn828 2.385 . S
O852 C830 1.234 . S
O853 Mn828 2.209 . S
O853 Mn829 2.215 . S
O853 C830 1.283 . S
O854 Mn828 2.094 . S
O854 C832 1.240 . S
O855 Mn829 2.117 . S
O855 C832 1.264 . S
C856 C849 1.403 . S
C856 C857 1.399 . S
C856 H862 0.929 . S
C857 C837 1.449 . S
C857 C856 1.399 . S
C857 H863 0.930 . S
H858 C838 0.931 . S
H859 C839 0.930 . S
H860 C847 0.931 . S
H861 C848 0.929 . S
H862 C856 0.929 . S
H863 C857 0.930 . S
Mn864 O869 2.095 . S
Mn864 O879 2.162 . S
Mn864 O880 2.297 . S
Mn864 O888 2.385 . S
Mn864 O889 2.209 . S
Mn864 O890 2.094 . S
Mn865 O870 2.121 . S
Mn865 N872 2.257 . S
Mn865 N881 2.282 . S
Mn865 O889 2.215 . S
Mn865 O891 2.117 . S
C866 O888 1.234 . S
C866 O889 1.283 . S
C867 O879 1.281 . S
C867 O880 1.236 . S
C868 O890 1.240 . S
C868 O891 1.264 . S
O869 Mn864 2.095 . S
O869 C878 1.250 . S
O870 Mn865 2.121 . S
O870 C878 1.258 . S
C871 N872 1.326 . S
C871 C875 1.460 . S
C871 H877 0.929 . S
N872 Mn865 2.257 . S
N872 C871 1.326 . S
N872 C876 1.362 . S
C873 C874 1.258 . S
C873 C876 1.431 . S
C873 C893 1.449 . S
C874 C873 1.258 . S
C874 C875 1.477 . S
C874 H894 0.931 . S
C875 C871 1.460 . S
C875 C874 1.477 . S
C875 H895 0.930 . S
C876 N872 1.362 . S
C876 C873 1.431 . S
C876 C886 1.476 . S
H877 C871 0.929 . S
C878 O869 1.250 . S
C878 O870 1.258 . S
O879 Mn864 2.162 . S
O879 C867 1.281 . S
O880 Mn864 2.297 . S
O880 C867 1.236 . S
N881 Mn865 2.282 . S
N881 C882 1.328 . S
N881 C886 1.318 . S
C882 N881 1.328 . S
C882 C883 1.457 . S
C882 H887 0.929 . S
C883 C882 1.457 . S
C883 C884 1.291 . S
C883 H896 0.931 . S
C884 C883 1.291 . S
C884 C885 1.373 . S
C884 H897 0.929 . S
C885 C884 1.373 . S
C885 C886 1.396 . S
C885 C892 1.403 . S
C886 C876 1.476 . S
C886 N881 1.318 . S
C886 C885 1.396 . S
H887 C882 0.929 . S
O888 Mn864 2.385 . S
O888 C866 1.234 . S
O889 Mn864 2.209 . S
O889 Mn865 2.215 . S
O889 C866 1.283 . S
O890 Mn864 2.094 . S
O890 C868 1.240 . S
O891 Mn865 2.117 . S
O891 C868 1.264 . S
C892 C885 1.403 . S
C892 C893 1.399 . S
C892 H898 0.929 . S
C893 C873 1.449 . S
C893 C892 1.399 . S
C893 H899 0.930 . S
H894 C874 0.931 . S
H895 C875 0.930 . S
H896 C883 0.931 . S
H897 C884 0.929 . S
H898 C892 0.929 . S
H899 C893 0.930 . S
Mn900 O905 2.095 . S
Mn900 O915 2.162 . S
Mn900 O916 2.297 . S
Mn900 O924 2.385 . S
Mn900 O925 2.209 . S
Mn900 O926 2.094 . S
Mn901 O906 2.121 . S
Mn901 N908 2.257 . S
Mn901 N917 2.282 . S
Mn901 O925 2.215 . S
Mn901 O927 2.117 . S
C902 O924 1.234 . S
C902 O925 1.283 . S
C903 O915 1.281 . S
C903 O916 1.236 . S
C904 O926 1.240 . S
C904 O927 1.264 . S
O905 Mn900 2.095 . S
O905 C914 1.250 . S
O906 Mn901 2.121 . S
O906 C914 1.258 . S
C907 N908 1.326 . S
C907 C911 1.460 . S
C907 H913 0.929 . S
N908 Mn901 2.257 . S
N908 C907 1.326 . S
N908 C912 1.362 . S
C909 C910 1.258 . S
C909 C912 1.431 . S
C909 C929 1.449 . S
C910 C909 1.258 . S
C910 C911 1.477 . S
C910 H930 0.931 . S
C911 C907 1.460 . S
C911 C910 1.477 . S
C911 H931 0.930 1_556 S
C912 N908 1.362 . S
C912 C909 1.431 . S
C912 C922 1.476 . S
H913 C907 0.929 . S
C914 O905 1.250 . S
C914 O906 1.258 . S
O915 Mn900 2.162 . S
O915 C903 1.281 . S
O916 Mn900 2.297 . S
O916 C903 1.236 . S
N917 Mn901 2.282 . S
N917 C918 1.328 . S
N917 C922 1.318 . S
C918 N917 1.328 . S
C918 C919 1.457 . S
C918 H923 0.929 . S
C919 C918 1.457 . S
C919 C920 1.291 . S
C919 H932 0.931 . S
C920 C919 1.291 . S
C920 C921 1.373 . S
C920 H933 0.929 . S
C921 C920 1.373 . S
C921 C922 1.396 . S
C921 C928 1.403 . S
C922 C912 1.476 . S
C922 N917 1.318 . S
C922 C921 1.396 . S
H923 C918 0.929 . S
O924 Mn900 2.385 . S
O924 C902 1.234 . S
O925 Mn900 2.209 . S
O925 Mn901 2.215 . S
O925 C902 1.283 . S
O926 Mn900 2.094 . S
O926 C904 1.240 . S
O927 Mn901 2.117 . S
O927 C904 1.264 . S
C928 C921 1.403 . S
C928 C929 1.399 . S
C928 H934 0.929 . S
C929 C909 1.449 . S
C929 C928 1.399 . S
C929 H935 0.930 . S
H930 C910 0.931 . S
H931 C911 0.930 1_554 S
H932 C919 0.931 . S
H933 C920 0.929 . S
H934 C928 0.929 . S
H935 C929 0.930 . S
Mn936 O941 2.095 . S
Mn936 O951 2.162 . S
Mn936 O952 2.297 . S
Mn936 O960 2.385 . S
Mn936 O961 2.209 . S
Mn936 O962 2.094 . S
Mn937 O942 2.121 . S
Mn937 N944 2.257 . S
Mn937 N953 2.282 . S
Mn937 O961 2.215 . S
Mn937 O963 2.117 . S
C938 O960 1.234 . S
C938 O961 1.283 . S
C939 O951 1.281 . S
C939 O952 1.236 . S
C940 O962 1.240 . S
C940 O963 1.264 . S
O941 Mn936 2.095 . S
O941 C950 1.250 . S
O942 Mn937 2.121 . S
O942 C950 1.258 . S
C943 N944 1.326 . S
C943 C947 1.460 . S
C943 H949 0.929 . S
N944 Mn937 2.257 . S
N944 C943 1.326 . S
N944 C948 1.362 . S
C945 C946 1.258 . S
C945 C948 1.431 . S
C945 C965 1.449 . S
C946 C945 1.258 . S
C946 C947 1.477 . S
C946 H966 0.931 . S
C947 C943 1.460 . S
C947 C946 1.477 . S
C947 H967 0.930 . S
C948 N944 1.362 . S
C948 C945 1.431 . S
C948 C958 1.476 . S
H949 C943 0.929 . S
C950 O941 1.250 . S
C950 O942 1.258 . S
O951 Mn936 2.162 . S
O951 C939 1.281 . S
O952 Mn936 2.297 . S
O952 C939 1.236 . S
N953 Mn937 2.282 . S
N953 C954 1.328 . S
N953 C958 1.318 . S
C954 N953 1.328 . S
C954 C955 1.457 . S
C954 H959 0.929 . S
C955 C954 1.457 . S
C955 C956 1.291 . S
C955 H968 0.931 . S
C956 C955 1.291 . S
C956 C957 1.373 . S
C956 H969 0.929 . S
C957 C956 1.373 . S
C957 C958 1.396 . S
C957 C964 1.403 . S
C958 C948 1.476 . S
C958 N953 1.318 . S
C958 C957 1.396 . S
H959 C954 0.929 . S
O960 Mn936 2.385 . S
O960 C938 1.234 . S
O961 Mn936 2.209 . S
O961 Mn937 2.215 . S
O961 C938 1.283 . S
O962 Mn936 2.094 . S
O962 C940 1.240 . S
O963 Mn937 2.117 . S
O963 C940 1.264 . S
C964 C957 1.403 . S
C964 C965 1.399 . S
C964 H970 0.929 . S
C965 C945 1.449 . S
C965 C964 1.399 . S
C965 H971 0.930 . S
H966 C946 0.931 . S
H967 C947 0.930 . S
H968 C955 0.931 . S
H969 C956 0.929 . S
H970 C964 0.929 . S
H971 C965 0.930 . S
Mn972 O977 2.095 . S
Mn972 O987 2.162 1_455 S
Mn972 O988 2.297 1_455 S
Mn972 O996 2.385 . S
Mn972 O997 2.209 . S
Mn972 O998 2.094 . S
Mn973 O978 2.121 . S
Mn973 N980 2.257 . S
Mn973 N989 2.282 . S
Mn973 O997 2.215 . S
Mn973 O999 2.117 . S
C974 O996 1.234 . S
C974 O997 1.283 . S
C975 O987 1.281 . S
C975 O988 1.236 . S
C976 O998 1.240 . S
C976 O999 1.264 . S
O977 Mn972 2.095 . S
O977 C986 1.250 . S
O978 Mn973 2.121 . S
O978 C986 1.258 . S
C979 N980 1.326 . S
C979 C983 1.460 . S
C979 H985 0.929 . S
N980 Mn973 2.257 . S
N980 C979 1.326 . S
N980 C984 1.362 . S
C981 C982 1.258 . S
C981 C984 1.431 . S
C981 C1001 1.449 . S
C982 C981 1.258 . S
C982 C983 1.477 . S
C982 H1002 0.931 . S
C983 C979 1.460 . S
C983 C982 1.477 . S
C983 H1003 0.930 . S
C984 N980 1.362 . S
C984 C981 1.431 . S
C984 C994 1.476 . S
H985 C979 0.929 . S
C986 O977 1.250 . S
C986 O978 1.258 . S
O987 Mn972 2.162 1_655 S
O987 C975 1.281 . S
O988 Mn972 2.297 1_655 S
O988 C975 1.236 . S
N989 Mn973 2.282 . S
N989 C990 1.328 . S
N989 C994 1.318 . S
C990 N989 1.328 . S
C990 C991 1.457 . S
C990 H995 0.929 . S
C991 C990 1.457 . S
C991 C992 1.291 . S
C991 H1004 0.931 . S
C992 C991 1.291 . S
C992 C993 1.373 . S
C992 H1005 0.929 . S
C993 C992 1.373 . S
C993 C994 1.396 . S
C993 C1000 1.403 . S
C994 C984 1.476 . S
C994 N989 1.318 . S
C994 C993 1.396 . S
H995 C990 0.929 . S
O996 Mn972 2.385 . S
O996 C974 1.234 . S
O997 Mn972 2.209 . S
O997 Mn973 2.215 . S
O997 C974 1.283 . S
O998 Mn972 2.094 . S
O998 C976 1.240 . S
O999 Mn973 2.117 . S
O999 C976 1.264 . S
C1000 C993 1.403 . S
C1000 C1001 1.399 . S
C1000 H1006 0.929 . S
C1001 C981 1.449 . S
C1001 C1000 1.399 . S
C1001 H1007 0.930 . S
H1002 C982 0.931 . S
H1003 C983 0.930 . S
H1004 C991 0.931 . S
H1005 C992 0.929 . S
H1006 C1000 0.929 . S
H1007 C1001 0.930 . S
Mn1008 O1013 2.095 . S
Mn1008 O1023 2.162 . S
Mn1008 O1024 2.297 . S
Mn1008 O1032 2.385 . S
Mn1008 O1033 2.209 . S
Mn1008 O1034 2.094 . S
Mn1009 O1014 2.121 . S
Mn1009 N1016 2.257 . S
Mn1009 N1025 2.282 . S
Mn1009 O1033 2.215 . S
Mn1009 O1035 2.117 . S
C1010 O1032 1.234 . S
C1010 O1033 1.283 . S
C1011 O1023 1.281 . S
C1011 O1024 1.236 . S
C1012 O1034 1.240 . S
C1012 O1035 1.264 . S
O1013 Mn1008 2.095 . S
O1013 C1022 1.250 . S
O1014 Mn1009 2.121 . S
O1014 C1022 1.258 . S
C1015 N1016 1.326 . S
C1015 C1019 1.460 . S
C1015 H1021 0.929 . S
N1016 Mn1009 2.257 . S
N1016 C1015 1.326 . S
N1016 C1020 1.362 . S
C1017 C1018 1.258 . S
C1017 C1020 1.431 . S
C1017 C1037 1.449 . S
C1018 C1017 1.258 . S
C1018 C1019 1.477 . S
C1018 H1038 0.931 . S
C1019 C1015 1.460 . S
C1019 C1018 1.477 . S
C1019 H1039 0.930 . S
C1020 N1016 1.362 . S
C1020 C1017 1.431 . S
C1020 C1030 1.476 . S
H1021 C1015 0.929 . S
C1022 O1013 1.250 . S
C1022 O1014 1.258 . S
O1023 Mn1008 2.162 . S
O1023 C1011 1.281 . S
O1024 Mn1008 2.297 . S
O1024 C1011 1.236 . S
N1025 Mn1009 2.282 . S
N1025 C1026 1.328 . S
N1025 C1030 1.318 . S
C1026 N1025 1.328 . S
C1026 C1027 1.457 . S
C1026 H1031 0.929 . S
C1027 C1026 1.457 . S
C1027 C1028 1.291 . S
C1027 H1040 0.931 . S
C1028 C1027 1.291 . S
C1028 C1029 1.373 . S
C1028 H1041 0.929 . S
C1029 C1028 1.373 . S
C1029 C1030 1.396 . S
C1029 C1036 1.403 . S
C1030 C1020 1.476 . S
C1030 N1025 1.318 . S
C1030 C1029 1.396 . S
H1031 C1026 0.929 . S
O1032 Mn1008 2.385 . S
O1032 C1010 1.234 . S
O1033 Mn1008 2.209 . S
O1033 Mn1009 2.215 . S
O1033 C1010 1.283 . S
O1034 Mn1008 2.094 . S
O1034 C1012 1.240 . S
O1035 Mn1009 2.117 . S
O1035 C1012 1.264 . S
C1036 C1029 1.403 . S
C1036 C1037 1.399 . S
C1036 H1042 0.929 . S
C1037 C1017 1.449 . S
C1037 C1036 1.399 . S
C1037 H1043 0.930 . S
H1038 C1018 0.931 . S
H1039 C1019 0.930 . S
H1040 C1027 0.931 . S
H1041 C1028 0.929 . S
H1042 C1036 0.929 . S
H1043 C1037 0.930 . S
Mn1044 O1049 2.095 . S
Mn1044 O1059 2.162 1_455 S
Mn1044 O1060 2.297 1_455 S
Mn1044 O1068 2.385 . S
Mn1044 O1069 2.209 . S
Mn1044 O1070 2.094 . S
Mn1045 O1050 2.121 . S
Mn1045 N1052 2.257 . S
Mn1045 N1061 2.282 . S
Mn1045 O1069 2.215 . S
Mn1045 O1071 2.117 . S
C1046 O1068 1.234 . S
C1046 O1069 1.283 . S
C1047 O1059 1.281 . S
C1047 O1060 1.236 . S
C1048 O1070 1.240 . S
C1048 O1071 1.264 . S
O1049 Mn1044 2.095 . S
O1049 C1058 1.250 . S
O1050 Mn1045 2.121 . S
O1050 C1058 1.258 . S
C1051 N1052 1.326 . S
C1051 C1055 1.460 . S
C1051 H1057 0.929 . S
N1052 Mn1045 2.257 . S
N1052 C1051 1.326 . S
N1052 C1056 1.362 . S
C1053 C1054 1.258 . S
C1053 C1056 1.431 . S
C1053 C1073 1.449 . S
C1054 C1053 1.258 . S
C1054 C1055 1.477 . S
C1054 H1074 0.931 . S
C1055 C1051 1.460 . S
C1055 C1054 1.477 . S
C1055 H1075 0.930 1_554 S
C1056 N1052 1.362 . S
C1056 C1053 1.431 . S
C1056 C1066 1.476 . S
H1057 C1051 0.929 . S
C1058 O1049 1.250 . S
C1058 O1050 1.258 . S
O1059 Mn1044 2.162 1_655 S
O1059 C1047 1.281 . S
O1060 Mn1044 2.297 1_655 S
O1060 C1047 1.236 . S
N1061 Mn1045 2.282 . S
N1061 C1062 1.328 . S
N1061 C1066 1.318 . S
C1062 N1061 1.328 . S
C1062 C1063 1.457 . S
C1062 H1067 0.929 . S
C1063 C1062 1.457 . S
C1063 C1064 1.291 . S
C1063 H1076 0.931 . S
C1064 C1063 1.291 . S
C1064 C1065 1.373 . S
C1064 H1077 0.929 . S
C1065 C1064 1.373 . S
C1065 C1066 1.396 . S
C1065 C1072 1.403 . S
C1066 C1056 1.476 . S
C1066 N1061 1.318 . S
C1066 C1065 1.396 . S
H1067 C1062 0.929 . S
O1068 Mn1044 2.385 . S
O1068 C1046 1.234 . S
O1069 Mn1044 2.209 . S
O1069 Mn1045 2.215 . S
O1069 C1046 1.283 . S
O1070 Mn1044 2.094 . S
O1070 C1048 1.240 . S
O1071 Mn1045 2.117 . S
O1071 C1048 1.264 . S
C1072 C1065 1.403 . S
C1072 C1073 1.399 . S
C1072 H1078 0.929 . S
C1073 C1053 1.449 . S
C1073 C1072 1.399 . S
C1073 H1079 0.930 . S
H1074 C1054 0.931 . S
H1075 C1055 0.930 1_556 S
H1076 C1063 0.931 . S
H1077 C1064 0.929 . S
H1078 C1072 0.929 . S
H1079 C1073 0.930 . S
Mn1080 O1085 2.095 . S
Mn1080 O1095 2.162 . S
Mn1080 O1096 2.297 . S
Mn1080 O1104 2.385 . S
Mn1080 O1105 2.209 . S
Mn1080 O1106 2.094 . S
Mn1081 O1086 2.121 . S
Mn1081 N1088 2.257 . S
Mn1081 N1097 2.282 . S
Mn1081 O1105 2.215 . S
Mn1081 O1107 2.117 . S
C1082 O1104 1.234 . S
C1082 O1105 1.283 . S
C1083 O1095 1.281 . S
C1083 O1096 1.236 . S
C1084 O1106 1.240 . S
C1084 O1107 1.264 . S
O1085 Mn1080 2.095 . S
O1085 C1094 1.250 . S
O1086 Mn1081 2.121 . S
O1086 C1094 1.258 . S
C1087 N1088 1.326 . S
C1087 C1091 1.460 . S
C1087 H1093 0.929 . S
N1088 Mn1081 2.257 . S
N1088 C1087 1.326 . S
N1088 C1092 1.362 . S
C1089 C1090 1.258 . S
C1089 C1092 1.431 . S
C1089 C1109 1.449 . S
C1090 C1089 1.258 . S
C1090 C1091 1.477 . S
C1090 H1110 0.931 . S
C1091 C1087 1.460 . S
C1091 C1090 1.477 . S
C1091 H1111 0.930 . S
C1092 N1088 1.362 . S
C1092 C1089 1.431 . S
C1092 C1102 1.476 . S
H1093 C1087 0.929 . S
C1094 O1085 1.250 . S
C1094 O1086 1.258 . S
O1095 Mn1080 2.162 . S
O1095 C1083 1.281 . S
O1096 Mn1080 2.297 . S
O1096 C1083 1.236 . S
N1097 Mn1081 2.282 . S
N1097 C1098 1.328 . S
N1097 C1102 1.318 . S
C1098 N1097 1.328 . S
C1098 C1099 1.457 . S
C1098 H1103 0.929 . S
C1099 C1098 1.457 . S
C1099 C1100 1.291 . S
C1099 H1112 0.931 . S
C1100 C1099 1.291 . S
C1100 C1101 1.373 . S
C1100 H1113 0.929 . S
C1101 C1100 1.373 . S
C1101 C1102 1.396 . S
C1101 C1108 1.403 . S
C1102 C1092 1.476 . S
C1102 N1097 1.318 . S
C1102 C1101 1.396 . S
H1103 C1098 0.929 . S
O1104 Mn1080 2.385 . S
O1104 C1082 1.234 . S
O1105 Mn1080 2.209 . S
O1105 Mn1081 2.215 . S
O1105 C1082 1.283 . S
O1106 Mn1080 2.094 . S
O1106 C1084 1.240 . S
O1107 Mn1081 2.117 . S
O1107 C1084 1.264 . S
C1108 C1101 1.403 . S
C1108 C1109 1.399 . S
C1108 H1114 0.929 . S
C1109 C1089 1.449 . S
C1109 C1108 1.399 . S
C1109 H1115 0.930 . S
H1110 C1090 0.931 . S
H1111 C1091 0.930 . S
H1112 C1099 0.931 . S
H1113 C1100 0.929 . S
H1114 C1108 0.929 . S
H1115 C1109 0.930 . S
Mn1116 O1121 2.095 . S
Mn1116 O1131 2.162 . S
Mn1116 O1132 2.297 . S
Mn1116 O1140 2.385 . S
Mn1116 O1141 2.209 . S
Mn1116 O1142 2.094 . S
Mn1117 O1122 2.121 . S
Mn1117 N1124 2.257 . S
Mn1117 N1133 2.282 . S
Mn1117 O1141 2.215 . S
Mn1117 O1143 2.117 . S
C1118 O1140 1.234 . S
C1118 O1141 1.283 . S
C1119 O1131 1.281 . S
C1119 O1132 1.236 . S
C1120 O1142 1.240 . S
C1120 O1143 1.264 . S
O1121 Mn1116 2.095 . S
O1121 C1130 1.250 . S
O1122 Mn1117 2.121 . S
O1122 C1130 1.258 . S
C1123 N1124 1.326 . S
C1123 C1127 1.460 . S
C1123 H1129 0.929 . S
N1124 Mn1117 2.257 . S
N1124 C1123 1.326 . S
N1124 C1128 1.362 . S
C1125 C1126 1.258 . S
C1125 C1128 1.431 . S
C1125 C1145 1.449 . S
C1126 C1125 1.258 . S
C1126 C1127 1.477 . S
C1126 H1146 0.931 . S
C1127 C1123 1.460 . S
C1127 C1126 1.477 . S
C1127 H1147 0.930 . S
C1128 N1124 1.362 . S
C1128 C1125 1.431 . S
C1128 C1138 1.476 . S
H1129 C1123 0.929 . S
C1130 O1121 1.250 . S
C1130 O1122 1.258 . S
O1131 Mn1116 2.162 . S
O1131 C1119 1.281 . S
O1132 Mn1116 2.297 . S
O1132 C1119 1.236 . S
N1133 Mn1117 2.282 . S
N1133 C1134 1.328 . S
N1133 C1138 1.318 . S
C1134 N1133 1.328 . S
C1134 C1135 1.457 . S
C1134 H1139 0.929 . S
C1135 C1134 1.457 . S
C1135 C1136 1.291 . S
C1135 H1148 0.931 . S
C1136 C1135 1.291 . S
C1136 C1137 1.373 . S
C1136 H1149 0.929 . S
C1137 C1136 1.373 . S
C1137 C1138 1.396 . S
C1137 C1144 1.403 . S
C1138 C1128 1.476 . S
C1138 N1133 1.318 . S
C1138 C1137 1.396 . S
H1139 C1134 0.929 . S
O1140 Mn1116 2.385 . S
O1140 C1118 1.234 . S
O1141 Mn1116 2.209 . S
O1141 Mn1117 2.215 . S
O1141 C1118 1.283 . S
O1142 Mn1116 2.094 . S
O1142 C1120 1.240 . S
O1143 Mn1117 2.117 . S
O1143 C1120 1.264 . S
C1144 C1137 1.403 . S
C1144 C1145 1.399 . S
C1144 H1150 0.929 . S
C1145 C1125 1.449 . S
C1145 C1144 1.399 . S
C1145 H1151 0.930 . S
H1146 C1126 0.931 . S
H1147 C1127 0.930 . S
H1148 C1135 0.931 . S
H1149 C1136 0.929 . S
H1150 C1144 0.929 . S
H1151 C1145 0.930 . S
C1152 C1153 1.369 . S
C1152 C1154 1.419 . S
C1152 H1156 0.930 . S
C1153 C1152 1.369 . S
C1153 C1162 1.429 . S
C1154 C1152 1.419 . S
C1154 C1155 1.363 . S
C1154 H1157 0.929 . S
C1155 C1154 1.363 . S
C1155 C1161 1.428 . S
H1156 C1152 0.930 . S
H1157 C1154 0.929 . S
S1158 N1159 1.613 . S
S1158 N1160 1.610 . S
N1159 S1158 1.613 . S
N1159 C1162 1.350 . S
N1160 S1158 1.610 . S
N1160 C1161 1.351 . S
C1161 C1155 1.428 . S
C1161 N1160 1.351 . S
C1161 C1162 1.434 . S
C1162 C1153 1.429 . S
C1162 N1159 1.350 . S
C1162 C1161 1.434 . S
C1163 C1164 1.369 . S
C1163 C1165 1.419 . S
C1163 H1167 0.930 . S
C1164 C1163 1.369 . S
C1164 C1173 1.429 . S
C1165 C1163 1.419 . S
C1165 C1166 1.363 . S
C1165 H1168 0.929 . S
C1166 C1165 1.363 . S
C1166 C1172 1.428 . S
H1167 C1163 0.930 . S
H1168 C1165 0.929 . S
S1169 N1170 1.613 . S
S1169 N1171 1.610 . S
N1170 S1169 1.613 . S
N1170 C1173 1.350 . S
N1171 S1169 1.610 . S
N1171 C1172 1.351 . S
C1172 C1166 1.428 . S
C1172 N1171 1.351 . S
C1172 C1173 1.434 . S
C1173 C1164 1.429 . S
C1173 N1170 1.350 . S
C1173 C1172 1.434 . S
C1174 C1175 1.369 . S
C1174 C1176 1.419 . S
C1174 H1178 0.930 . S
C1175 C1174 1.369 . S
C1175 C1184 1.429 . S
C1176 C1174 1.419 . S
C1176 C1177 1.363 . S
C1176 H1179 0.929 . S
C1177 C1176 1.363 . S
C1177 C1183 1.428 . S
H1178 C1174 0.930 . S
H1179 C1176 0.929 . S
S1180 N1181 1.613 . S
S1180 N1182 1.610 . S
N1181 S1180 1.613 . S
N1181 C1184 1.350 . S
N1182 S1180 1.610 . S
N1182 C1183 1.351 . S
C1183 C1177 1.428 . S
C1183 N1182 1.351 . S
C1183 C1184 1.434 . S
C1184 C1175 1.429 . S
C1184 N1181 1.350 . S
C1184 C1183 1.434 . S
C1185 C1186 1.369 . S
C1185 C1187 1.419 . S
C1185 H1189 0.930 . S
C1186 C1185 1.369 . S
C1186 C1195 1.429 . S
C1187 C1185 1.419 . S
C1187 C1188 1.363 . S
C1187 H1190 0.929 . S
C1188 C1187 1.363 . S
C1188 C1194 1.428 . S
H1189 C1185 0.930 . S
H1190 C1187 0.929 . S
S1191 N1192 1.613 . S
S1191 N1193 1.610 . S
N1192 S1191 1.613 . S
N1192 C1195 1.350 . S
N1193 S1191 1.610 . S
N1193 C1194 1.351 . S
C1194 C1188 1.428 . S
C1194 N1193 1.351 . S
C1194 C1195 1.434 . S
C1195 C1186 1.429 . S
C1195 N1192 1.350 . S
C1195 C1194 1.434 . S
C1196 C1197 1.369 . S
C1196 C1198 1.419 . S
C1196 H1200 0.930 . S
C1197 C1196 1.369 . S
C1197 C1206 1.429 . S
C1198 C1196 1.419 . S
C1198 C1199 1.363 . S
C1198 H1201 0.929 . S
C1199 C1198 1.363 . S
C1199 C1205 1.428 . S
H1200 C1196 0.930 . S
H1201 C1198 0.929 . S
S1202 N1203 1.613 . S
S1202 N1204 1.610 . S
N1203 S1202 1.613 . S
N1203 C1206 1.350 . S
N1204 S1202 1.610 . S
N1204 C1205 1.351 . S
C1205 C1199 1.428 . S
C1205 N1204 1.351 . S
C1205 C1206 1.434 . S
C1206 C1197 1.429 . S
C1206 N1203 1.350 . S
C1206 C1205 1.434 . S
C1207 C1208 1.369 . S
C1207 C1209 1.419 . S
C1207 H1211 0.930 . S
C1208 C1207 1.369 . S
C1208 C1217 1.429 . S
C1209 C1207 1.419 . S
C1209 C1210 1.363 . S
C1209 H1212 0.929 . S
C1210 C1209 1.363 . S
C1210 C1216 1.428 . S
H1211 C1207 0.930 . S
H1212 C1209 0.929 . S
S1213 N1214 1.613 . S
S1213 N1215 1.610 . S
N1214 S1213 1.613 . S
N1214 C1217 1.350 . S
N1215 S1213 1.610 . S
N1215 C1216 1.351 . S
C1216 C1210 1.428 . S
C1216 N1215 1.351 . S
C1216 C1217 1.434 . S
C1217 C1208 1.429 . S
C1217 N1214 1.350 . S
C1217 C1216 1.434 . S
C1218 C1219 1.369 . S
C1218 C1220 1.419 . S
C1218 H1222 0.930 . S
C1219 C1218 1.369 . S
C1219 C1228 1.429 . S
C1220 C1218 1.419 . S
C1220 C1221 1.363 . S
C1220 H1223 0.929 . S
C1221 C1220 1.363 . S
C1221 C1227 1.428 . S
H1222 C1218 0.930 . S
H1223 C1220 0.929 . S
S1224 N1225 1.613 . S
S1224 N1226 1.610 . S
N1225 S1224 1.613 . S
N1225 C1228 1.350 . S
N1226 S1224 1.610 . S
N1226 C1227 1.351 . S
C1227 C1221 1.428 . S
C1227 N1226 1.351 . S
C1227 C1228 1.434 . S
C1228 C1219 1.429 . S
C1228 N1225 1.350 . S
C1228 C1227 1.434 . S
C1229 C1230 1.369 . S
C1229 C1231 1.419 . S
C1229 H1233 0.930 . S
C1230 C1229 1.369 . S
C1230 C1239 1.429 . S
C1231 C1229 1.419 . S
C1231 C1232 1.363 . S
C1231 H1234 0.929 . S
C1232 C1231 1.363 . S
C1232 C1238 1.428 . S
H1233 C1229 0.930 . S
H1234 C1231 0.929 . S
S1235 N1236 1.613 . S
S1235 N1237 1.610 . S
N1236 S1235 1.613 . S
N1236 C1239 1.350 . S
N1237 S1235 1.610 . S
N1237 C1238 1.351 . S
C1238 C1232 1.428 . S
C1238 N1237 1.351 . S
C1238 C1239 1.434 . S
C1239 C1230 1.429 . S
C1239 N1236 1.350 . S
C1239 C1238 1.434 . S
C1240 C1241 1.369 . S
C1240 C1242 1.419 . S
C1240 H1244 0.930 . S
C1241 C1240 1.369 . S
C1241 C1250 1.429 . S
C1242 C1240 1.419 . S
C1242 C1243 1.363 . S
C1242 H1245 0.929 . S
C1243 C1242 1.363 . S
C1243 C1249 1.428 . S
H1244 C1240 0.930 . S
H1245 C1242 0.929 . S
S1246 N1247 1.613 . S
S1246 N1248 1.610 . S
N1247 S1246 1.613 . S
N1247 C1250 1.350 . S
N1248 S1246 1.610 . S
N1248 C1249 1.351 . S
C1249 C1243 1.428 . S
C1249 N1248 1.351 . S
C1249 C1250 1.434 . S
C1250 C1241 1.429 . S
C1250 N1247 1.350 . S
C1250 C1249 1.434 . S
C1251 C1252 1.369 . S
C1251 C1253 1.419 . S
C1251 H1255 0.930 . S
C1252 C1251 1.369 . S
C1252 C1261 1.429 . S
C1253 C1251 1.419 . S
C1253 C1254 1.363 . S
C1253 H1256 0.929 . S
C1254 C1253 1.363 . S
C1254 C1260 1.428 . S
H1255 C1251 0.930 . S
H1256 C1253 0.929 . S
S1257 N1258 1.613 . S
S1257 N1259 1.610 . S
N1258 S1257 1.613 . S
N1258 C1261 1.350 . S
N1259 S1257 1.610 . S
N1259 C1260 1.351 . S
C1260 C1254 1.428 . S
C1260 N1259 1.351 . S
C1260 C1261 1.434 . S
C1261 C1252 1.429 . S
C1261 N1258 1.350 . S
C1261 C1260 1.434 . S
C1262 C1263 1.369 . S
C1262 C1264 1.419 . S
C1262 H1266 0.930 . S
C1263 C1262 1.369 . S
C1263 C1272 1.429 . S
C1264 C1262 1.419 . S
C1264 C1265 1.363 . S
C1264 H1267 0.929 . S
C1265 C1264 1.363 . S
C1265 C1271 1.428 . S
H1266 C1262 0.930 . S
H1267 C1264 0.929 . S
S1268 N1269 1.613 . S
S1268 N1270 1.610 . S
N1269 S1268 1.613 . S
N1269 C1272 1.350 . S
N1270 S1268 1.610 . S
N1270 C1271 1.351 . S
C1271 C1265 1.428 . S
C1271 N1270 1.351 . S
C1271 C1272 1.434 . S
C1272 C1263 1.429 . S
C1272 N1269 1.350 . S
C1272 C1271 1.434 . S
C1273 C1274 1.369 . S
C1273 C1275 1.419 . S
C1273 H1277 0.930 . S
C1274 C1273 1.369 . S
C1274 C1283 1.429 . S
C1275 C1273 1.419 . S
C1275 C1276 1.363 . S
C1275 H1278 0.929 . S
C1276 C1275 1.363 . S
C1276 C1282 1.428 . S
H1277 C1273 0.930 . S
H1278 C1275 0.929 . S
S1279 N1280 1.613 . S
S1279 N1281 1.610 . S
N1280 S1279 1.613 . S
N1280 C1283 1.350 . S
N1281 S1279 1.610 . S
N1281 C1282 1.351 . S
C1282 C1276 1.428 . S
C1282 N1281 1.351 . S
C1282 C1283 1.434 . S
C1283 C1274 1.429 . S
C1283 N1280 1.350 . S
C1283 C1282 1.434 . S
C1284 C1285 1.369 . S
C1284 C1286 1.419 . S
C1284 H1288 0.930 . S
C1285 C1284 1.369 . S
C1285 C1294 1.429 . S
C1286 C1284 1.419 . S
C1286 C1287 1.363 . S
C1286 H1289 0.929 . S
C1287 C1286 1.363 . S
C1287 C1293 1.428 . S
H1288 C1284 0.930 . S
H1289 C1286 0.929 . S
S1290 N1291 1.613 . S
S1290 N1292 1.610 . S
N1291 S1290 1.613 . S
N1291 C1294 1.350 . S
N1292 S1290 1.610 . S
N1292 C1293 1.351 . S
C1293 C1287 1.428 . S
C1293 N1292 1.351 . S
C1293 C1294 1.434 . S
C1294 C1285 1.429 . S
C1294 N1291 1.350 . S
C1294 C1293 1.434 . S
C1295 C1296 1.369 . S
C1295 C1297 1.419 . S
C1295 H1299 0.930 . S
C1296 C1295 1.369 . S
C1296 C1305 1.429 . S
C1297 C1295 1.419 . S
C1297 C1298 1.363 . S
C1297 H1300 0.929 . S
C1298 C1297 1.363 . S
C1298 C1304 1.428 . S
H1299 C1295 0.930 . S
H1300 C1297 0.929 . S
S1301 N1302 1.613 . S
S1301 N1303 1.610 . S
N1302 S1301 1.613 . S
N1302 C1305 1.350 . S
N1303 S1301 1.610 . S
N1303 C1304 1.351 . S
C1304 C1298 1.428 . S
C1304 N1303 1.351 . S
C1304 C1305 1.434 . S
C1305 C1296 1.429 . S
C1305 N1302 1.350 . S
C1305 C1304 1.434 . S
C1306 C1307 1.369 . S
C1306 C1308 1.419 . S
C1306 H1310 0.930 . S
C1307 C1306 1.369 . S
C1307 C1316 1.429 . S
C1308 C1306 1.419 . S
C1308 C1309 1.363 . S
C1308 H1311 0.929 . S
C1309 C1308 1.363 . S
C1309 C1315 1.428 . S
H1310 C1306 0.930 . S
H1311 C1308 0.929 . S
S1312 N1313 1.613 . S
S1312 N1314 1.610 . S
N1313 S1312 1.613 . S
N1313 C1316 1.350 . S
N1314 S1312 1.610 . S
N1314 C1315 1.351 . S
C1315 C1309 1.428 . S
C1315 N1314 1.351 . S
C1315 C1316 1.434 . S
C1316 C1307 1.429 . S
C1316 N1313 1.350 . S
C1316 C1315 1.434 . S
C1317 C1318 1.369 . S
C1317 C1319 1.419 . S
C1317 H1321 0.930 . S
C1318 C1317 1.369 . S
C1318 C1327 1.429 . S
C1319 C1317 1.419 . S
C1319 C1320 1.363 . S
C1319 H1322 0.929 . S
C1320 C1319 1.363 . S
C1320 C1326 1.428 . S
H1321 C1317 0.930 . S
H1322 C1319 0.929 . S
S1323 N1324 1.613 . S
S1323 N1325 1.610 . S
N1324 S1323 1.613 . S
N1324 C1327 1.350 . S
N1325 S1323 1.610 . S
N1325 C1326 1.351 . S
C1326 C1320 1.428 . S
C1326 N1325 1.351 . S
C1326 C1327 1.434 . S
C1327 C1318 1.429 . S
C1327 N1324 1.350 . S
C1327 C1326 1.434 . S
C1328 C1329 1.369 . S
C1328 C1330 1.419 . S
C1328 H1332 0.930 . S
C1329 C1328 1.369 . S
C1329 C1338 1.429 . S
C1330 C1328 1.419 . S
C1330 C1331 1.363 . S
C1330 H1333 0.929 . S
C1331 C1330 1.363 . S
C1331 C1337 1.428 . S
H1332 C1328 0.930 . S
H1333 C1330 0.929 . S
S1334 N1335 1.613 . S
S1334 N1336 1.610 . S
N1335 S1334 1.613 . S
N1335 C1338 1.350 . S
N1336 S1334 1.610 . S
N1336 C1337 1.351 . S
C1337 C1331 1.428 . S
C1337 N1336 1.351 . S
C1337 C1338 1.434 . S
C1338 C1329 1.429 . S
C1338 N1335 1.350 . S
C1338 C1337 1.434 . S
C1339 C1340 1.369 . S
C1339 C1341 1.419 . S
C1339 H1343 0.930 . S
C1340 C1339 1.369 . S
C1340 C1349 1.429 . S
C1341 C1339 1.419 . S
C1341 C1342 1.363 . S
C1341 H1344 0.929 . S
C1342 C1341 1.363 . S
C1342 C1348 1.428 . S
H1343 C1339 0.930 . S
H1344 C1341 0.929 . S
S1345 N1346 1.613 . S
S1345 N1347 1.610 . S
N1346 S1345 1.613 . S
N1346 C1349 1.350 . S
N1347 S1345 1.610 . S
N1347 C1348 1.351 . S
C1348 C1342 1.428 . S
C1348 N1347 1.351 . S
C1348 C1349 1.434 . S
C1349 C1340 1.429 . S
C1349 N1346 1.350 . S
C1349 C1348 1.434 . S
C1350 C1351 1.369 . S
C1350 C1352 1.419 . S
C1350 H1354 0.930 . S
C1351 C1350 1.369 . S
C1351 C1360 1.429 . S
C1352 C1350 1.419 . S
C1352 C1353 1.363 . S
C1352 H1355 0.929 . S
C1353 C1352 1.363 . S
C1353 C1359 1.428 . S
H1354 C1350 0.930 . S
H1355 C1352 0.929 . S
S1356 N1357 1.613 . S
S1356 N1358 1.610 . S
N1357 S1356 1.613 . S
N1357 C1360 1.350 . S
N1358 S1356 1.610 . S
N1358 C1359 1.351 . S
C1359 C1353 1.428 . S
C1359 N1358 1.351 . S
C1359 C1360 1.434 . S
C1360 C1351 1.429 . S
C1360 N1357 1.350 . S
C1360 C1359 1.434 . S
C1361 C1362 1.369 . S
C1361 C1363 1.419 . S
C1361 H1365 0.930 . S
C1362 C1361 1.369 . S
C1362 C1371 1.429 . S
C1363 C1361 1.419 . S
C1363 C1364 1.363 . S
C1363 H1366 0.929 . S
C1364 C1363 1.363 . S
C1364 C1370 1.428 . S
H1365 C1361 0.930 . S
H1366 C1363 0.929 . S
S1367 N1368 1.613 . S
S1367 N1369 1.610 . S
N1368 S1367 1.613 . S
N1368 C1371 1.350 . S
N1369 S1367 1.610 . S
N1369 C1370 1.351 . S
C1370 C1364 1.428 . S
C1370 N1369 1.351 . S
C1370 C1371 1.434 . S
C1371 C1362 1.429 . S
C1371 N1368 1.350 . S
C1371 C1370 1.434 . S
C1372 C1373 1.369 . S
C1372 C1374 1.419 . S
C1372 H1376 0.930 . S
C1373 C1372 1.369 . S
C1373 C1382 1.429 . S
C1374 C1372 1.419 . S
C1374 C1375 1.363 . S
C1374 H1377 0.929 . S
C1375 C1374 1.363 . S
C1375 C1381 1.428 . S
H1376 C1372 0.930 . S
H1377 C1374 0.929 . S
S1378 N1379 1.613 . S
S1378 N1380 1.610 . S
N1379 S1378 1.613 . S
N1379 C1382 1.350 . S
N1380 S1378 1.610 . S
N1380 C1381 1.351 . S
C1381 C1375 1.428 . S
C1381 N1380 1.351 . S
C1381 C1382 1.434 . S
C1382 C1373 1.429 . S
C1382 N1379 1.350 . S
C1382 C1381 1.434 . S
C1383 C1384 1.369 . S
C1383 C1385 1.419 . S
C1383 H1387 0.930 . S
C1384 C1383 1.369 . S
C1384 C1393 1.429 . S
C1385 C1383 1.419 . S
C1385 C1386 1.363 . S
C1385 H1388 0.929 . S
C1386 C1385 1.363 . S
C1386 C1392 1.428 . S
H1387 C1383 0.930 . S
H1388 C1385 0.929 . S
S1389 N1390 1.613 . S
S1389 N1391 1.610 . S
N1390 S1389 1.613 . S
N1390 C1393 1.350 . S
N1391 S1389 1.610 . S
N1391 C1392 1.351 . S
C1392 C1386 1.428 . S
C1392 N1391 1.351 . S
C1392 C1393 1.434 . S
C1393 C1384 1.429 . S
C1393 N1390 1.350 . S
C1393 C1392 1.434 . S
C1394 C1395 1.369 . S
C1394 C1396 1.419 . S
C1394 H1398 0.930 . S
C1395 C1394 1.369 . S
C1395 C1404 1.429 . S
C1396 C1394 1.419 . S
C1396 C1397 1.363 . S
C1396 H1399 0.929 . S
C1397 C1396 1.363 . S
C1397 C1403 1.428 . S
H1398 C1394 0.930 . S
H1399 C1396 0.929 . S
S1400 N1401 1.613 . S
S1400 N1402 1.610 . S
N1401 S1400 1.613 . S
N1401 C1404 1.350 . S
N1402 S1400 1.610 . S
N1402 C1403 1.351 . S
C1403 C1397 1.428 . S
C1403 N1402 1.351 . S
C1403 C1404 1.434 . S
C1404 C1395 1.429 . S
C1404 N1401 1.350 . S
C1404 C1403 1.434 . S
C1405 C1406 1.369 . S
C1405 C1407 1.419 . S
C1405 H1409 0.930 . S
C1406 C1405 1.369 . S
C1406 C1415 1.429 . S
C1407 C1405 1.419 . S
C1407 C1408 1.363 . S
C1407 H1410 0.929 . S
C1408 C1407 1.363 . S
C1408 C1414 1.428 . S
H1409 C1405 0.930 . S
H1410 C1407 0.929 . S
S1411 N1412 1.613 . S
S1411 N1413 1.610 . S
N1412 S1411 1.613 . S
N1412 C1415 1.350 . S
N1413 S1411 1.610 . S
N1413 C1414 1.351 . S
C1414 C1408 1.428 . S
C1414 N1413 1.351 . S
C1414 C1415 1.434 . S
C1415 C1406 1.429 . S
C1415 N1412 1.350 . S
C1415 C1414 1.434 . S
C1416 C1417 1.369 . S
C1416 C1418 1.419 . S
C1416 H1420 0.930 . S
C1417 C1416 1.369 . S
C1417 C1426 1.429 . S
C1418 C1416 1.419 . S
C1418 C1419 1.363 . S
C1418 H1421 0.929 . S
C1419 C1418 1.363 . S
C1419 C1425 1.428 . S
H1420 C1416 0.930 . S
H1421 C1418 0.929 . S
S1422 N1423 1.613 . S
S1422 N1424 1.610 . S
N1423 S1422 1.613 . S
N1423 C1426 1.350 . S
N1424 S1422 1.610 . S
N1424 C1425 1.351 . S
C1425 C1419 1.428 . S
C1425 N1424 1.351 . S
C1425 C1426 1.434 . S
C1426 C1417 1.429 . S
C1426 N1423 1.350 . S
C1426 C1425 1.434 . S
C1427 C1428 1.369 . S
C1427 C1429 1.419 . S
C1427 H1431 0.930 . S
C1428 C1427 1.369 . S
C1428 C1437 1.429 . S
C1429 C1427 1.419 . S
C1429 C1430 1.363 . S
C1429 H1432 0.929 . S
C1430 C1429 1.363 . S
C1430 C1436 1.428 . S
H1431 C1427 0.930 . S
H1432 C1429 0.929 . S
S1433 N1434 1.613 . S
S1433 N1435 1.610 . S
N1434 S1433 1.613 . S
N1434 C1437 1.350 . S
N1435 S1433 1.610 . S
N1435 C1436 1.351 . S
C1436 C1430 1.428 . S
C1436 N1435 1.351 . S
C1436 C1437 1.434 . S
C1437 C1428 1.429 . S
C1437 N1434 1.350 . S
C1437 C1436 1.434 . S
C1438 C1439 1.369 . S
C1438 C1440 1.419 . S
C1438 H1442 0.930 . S
C1439 C1438 1.369 . S
C1439 C1448 1.429 . S
C1440 C1438 1.419 . S
C1440 C1441 1.363 . S
C1440 H1443 0.929 . S
C1441 C1440 1.363 . S
C1441 C1447 1.428 . S
H1442 C1438 0.930 . S
H1443 C1440 0.929 . S
S1444 N1445 1.613 . S
S1444 N1446 1.610 . S
N1445 S1444 1.613 . S
N1445 C1448 1.350 . S
N1446 S1444 1.610 . S
N1446 C1447 1.351 . S
C1447 C1441 1.428 . S
C1447 N1446 1.351 . S
C1447 C1448 1.434 . S
C1448 C1439 1.429 . S
C1448 N1445 1.350 . S
C1448 C1447 1.434 . S
C1449 C1450 1.369 . S
C1449 C1451 1.419 . S
C1449 H1453 0.930 . S
C1450 C1449 1.369 . S
C1450 C1459 1.429 . S
C1451 C1449 1.419 . S
C1451 C1452 1.363 . S
C1451 H1454 0.929 . S
C1452 C1451 1.363 . S
C1452 C1458 1.428 . S
H1453 C1449 0.930 . S
H1454 C1451 0.929 . S
S1455 N1456 1.613 . S
S1455 N1457 1.610 . S
N1456 S1455 1.613 . S
N1456 C1459 1.350 . S
N1457 S1455 1.610 . S
N1457 C1458 1.351 . S
C1458 C1452 1.428 . S
C1458 N1457 1.351 . S
C1458 C1459 1.434 . S
C1459 C1450 1.429 . S
C1459 N1456 1.350 . S
C1459 C1458 1.434 . S
C1460 C1461 1.369 . S
C1460 C1462 1.419 . S
C1460 H1464 0.930 . S
C1461 C1460 1.369 . S
C1461 C1470 1.429 . S
C1462 C1460 1.419 . S
C1462 C1463 1.363 . S
C1462 H1465 0.929 . S
C1463 C1462 1.363 . S
C1463 C1469 1.428 . S
H1464 C1460 0.930 . S
H1465 C1462 0.929 . S
S1466 N1467 1.613 . S
S1466 N1468 1.610 . S
N1467 S1466 1.613 . S
N1467 C1470 1.350 . S
N1468 S1466 1.610 . S
N1468 C1469 1.351 . S
C1469 C1463 1.428 . S
C1469 N1468 1.351 . S
C1469 C1470 1.434 . S
C1470 C1461 1.429 . S
C1470 N1467 1.350 . S
C1470 C1469 1.434 . S
C1471 C1472 1.369 . S
C1471 C1473 1.419 . S
C1471 H1475 0.930 . S
C1472 C1471 1.369 . S
C1472 C1481 1.429 . S
C1473 C1471 1.419 . S
C1473 C1474 1.363 . S
C1473 H1476 0.929 . S
C1474 C1473 1.363 . S
C1474 C1480 1.428 . S
H1475 C1471 0.930 . S
H1476 C1473 0.929 . S
S1477 N1478 1.613 . S
S1477 N1479 1.610 . S
N1478 S1477 1.613 . S
N1478 C1481 1.350 . S
N1479 S1477 1.610 . S
N1479 C1480 1.351 . S
C1480 C1474 1.428 . S
C1480 N1479 1.351 . S
C1480 C1481 1.434 . S
C1481 C1472 1.429 . S
C1481 N1478 1.350 . S
C1481 C1480 1.434 . S
C1482 C1483 1.369 . S
C1482 C1484 1.419 . S
C1482 H1486 0.930 . S
C1483 C1482 1.369 . S
C1483 C1492 1.429 . S
C1484 C1482 1.419 . S
C1484 C1485 1.363 . S
C1484 H1487 0.929 . S
C1485 C1484 1.363 . S
C1485 C1491 1.428 . S
H1486 C1482 0.930 . S
H1487 C1484 0.929 . S
S1488 N1489 1.613 . S
S1488 N1490 1.610 . S
N1489 S1488 1.613 . S
N1489 C1492 1.350 . S
N1490 S1488 1.610 . S
N1490 C1491 1.351 . S
C1491 C1485 1.428 . S
C1491 N1490 1.351 . S
C1491 C1492 1.434 . S
C1492 C1483 1.429 . S
C1492 N1489 1.350 . S
C1492 C1491 1.434 . S
C1493 C1494 1.369 . S
C1493 C1495 1.419 . S
C1493 H1497 0.930 . S
C1494 C1493 1.369 . S
C1494 C1503 1.429 . S
C1495 C1493 1.419 . S
C1495 C1496 1.363 . S
C1495 H1498 0.929 . S
C1496 C1495 1.363 . S
C1496 C1502 1.428 . S
H1497 C1493 0.930 . S
H1498 C1495 0.929 . S
S1499 N1500 1.613 . S
S1499 N1501 1.610 . S
N1500 S1499 1.613 . S
N1500 C1503 1.350 . S
N1501 S1499 1.610 . S
N1501 C1502 1.351 . S
C1502 C1496 1.428 . S
C1502 N1501 1.351 . S
C1502 C1503 1.434 . S
C1503 C1494 1.429 . S
C1503 N1500 1.350 . S
C1503 C1502 1.434 . S
C1504 C1505 1.369 . S
C1504 C1506 1.419 . S
C1504 H1508 0.930 . S
C1505 C1504 1.369 . S
C1505 C1514 1.429 . S
C1506 C1504 1.419 . S
C1506 C1507 1.363 . S
C1506 H1509 0.929 . S
C1507 C1506 1.363 . S
C1507 C1513 1.428 . S
H1508 C1504 0.930 . S
H1509 C1506 0.929 . S
S1510 N1511 1.613 . S
S1510 N1512 1.610 . S
N1511 S1510 1.613 . S
N1511 C1514 1.350 . S
N1512 S1510 1.610 . S
N1512 C1513 1.351 . S
C1513 C1507 1.428 . S
C1513 N1512 1.351 . S
C1513 C1514 1.434 . S
C1514 C1505 1.429 . S
C1514 N1511 1.350 . S
C1514 C1513 1.434 . S
C1515 C1516 1.369 1_545 S
C1515 C1517 1.419 . S
C1515 H1519 0.930 . S
C1516 C1515 1.369 1_565 S
C1516 C1525 1.429 1_455 S
C1517 C1515 1.419 . S
C1517 C1518 1.363 1_455 S
C1517 H1520 0.929 . S
C1518 C1517 1.363 1_655 S
C1518 C1524 1.428 1_545 S
H1519 C1515 0.930 . S
H1520 C1517 0.929 . S
S1521 N1522 1.613 . S
S1521 N1523 1.610 . S
N1522 S1521 1.613 . S
N1522 C1525 1.350 . S
N1523 S1521 1.610 . S
N1523 C1524 1.351 . S
C1524 C1518 1.428 1_565 S
C1524 N1523 1.351 . S
C1524 C1525 1.434 . S
C1525 C1516 1.429 1_655 S
C1525 N1522 1.350 . S
C1525 C1524 1.434 . S
C1526 C1527 1.369 . S
C1526 C1528 1.419 . S
C1526 H1530 0.930 . S
C1527 C1526 1.369 . S
C1527 C1536 1.429 . S
C1528 C1526 1.419 . S
C1528 C1529 1.363 . S
C1528 H1531 0.929 . S
C1529 C1528 1.363 . S
C1529 C1535 1.428 . S
H1530 C1526 0.930 . S
H1531 C1528 0.929 . S
S1532 N1533 1.613 . S
S1532 N1534 1.610 . S
N1533 S1532 1.613 . S
N1533 C1536 1.350 . S
N1534 S1532 1.610 . S
N1534 C1535 1.351 . S
C1535 C1529 1.428 . S
C1535 N1534 1.351 . S
C1535 C1536 1.434 . S
C1536 C1527 1.429 . S
C1536 N1533 1.350 . S
C1536 C1535 1.434 . S
C1537 C1538 1.369 . S
C1537 C1539 1.419 1_554 S
C1537 H1541 0.930 . S
C1538 C1537 1.369 . S
C1538 C1547 1.429 1_545 S
C1539 C1537 1.419 1_556 S
C1539 C1540 1.363 1_545 S
C1539 H1542 0.929 . S
C1540 C1539 1.363 1_565 S
C1540 C1546 1.428 . S
H1541 C1537 0.930 . S
H1542 C1539 0.929 . S
S1543 N1544 1.613 . S
S1543 N1545 1.610 1_554 S
N1544 S1543 1.613 . S
N1544 C1547 1.350 . S
N1545 S1543 1.610 1_556 S
N1545 C1546 1.351 . S
C1546 C1540 1.428 . S
C1546 N1545 1.351 . S
C1546 C1547 1.434 1_556 S
C1547 C1538 1.429 1_565 S
C1547 N1544 1.350 . S
C1547 C1546 1.434 1_554 S
C1548 C1549 1.369 . S
C1548 C1550 1.419 . S
C1548 H1552 0.930 . S
C1549 C1548 1.369 . S
C1549 C1558 1.429 . S
C1550 C1548 1.419 . S
C1550 C1551 1.363 . S
C1550 H1553 0.929 . S
C1551 C1550 1.363 . S
C1551 C1557 1.428 . S
H1552 C1548 0.930 . S
H1553 C1550 0.929 . S
S1554 N1555 1.613 . S
S1554 N1556 1.610 . S
N1555 S1554 1.613 . S
N1555 C1558 1.350 . S
N1556 S1554 1.610 . S
N1556 C1557 1.351 . S
C1557 C1551 1.428 . S
C1557 N1556 1.351 . S
C1557 C1558 1.434 . S
C1558 C1549 1.429 . S
C1558 N1555 1.350 . S
C1558 C1557 1.434 . S
C1559 C1560 1.369 1_545 S
C1559 C1561 1.419 . S
C1559 H1563 0.930 . S
C1560 C1559 1.369 1_565 S
C1560 C1569 1.429 . S
C1561 C1559 1.419 . S
C1561 C1562 1.363 . S
C1561 H1564 0.929 . S
C1562 C1561 1.363 . S
C1562 C1568 1.428 1_545 S
H1563 C1559 0.930 . S
H1564 C1561 0.929 . S
S1565 N1566 1.613 . S
S1565 N1567 1.610 . S
N1566 S1565 1.613 . S
N1566 C1569 1.350 . S
N1567 S1565 1.610 . S
N1567 C1568 1.351 . S
C1568 C1562 1.428 1_565 S
C1568 N1567 1.351 . S
C1568 C1569 1.434 . S
C1569 C1560 1.429 . S
C1569 N1566 1.350 . S
C1569 C1568 1.434 . S
C1570 C1571 1.369 . S
C1570 C1572 1.419 . S
C1570 H1574 0.930 . S
C1571 C1570 1.369 . S
C1571 C1580 1.429 . S
C1572 C1570 1.419 . S
C1572 C1573 1.363 . S
C1572 H1575 0.929 . S
C1573 C1572 1.363 . S
C1573 C1579 1.428 . S
H1574 C1570 0.930 . S
H1575 C1572 0.929 . S
S1576 N1577 1.613 . S
S1576 N1578 1.610 . S
N1577 S1576 1.613 . S
N1577 C1580 1.350 . S
N1578 S1576 1.610 . S
N1578 C1579 1.351 . S
C1579 C1573 1.428 . S
C1579 N1578 1.351 . S
C1579 C1580 1.434 . S
C1580 C1571 1.429 . S
C1580 N1577 1.350 . S
C1580 C1579 1.434 . S
C1581 C1582 1.369 . S
C1581 C1583 1.419 1_556 S
C1581 H1585 0.930 . S
C1582 C1581 1.369 . S
C1582 C1591 1.429 1_455 S
C1583 C1581 1.419 1_554 S
C1583 C1584 1.362 1_445 S
C1583 H1586 0.929 1_545 S
C1584 C1583 1.362 1_665 S
C1584 C1590 1.428 . S
H1585 C1581 0.930 . S
H1586 C1583 0.929 1_565 S
S1587 N1588 1.613 . S
S1587 N1589 1.610 1_546 S
N1588 S1587 1.613 . S
N1588 C1591 1.350 . S
N1589 S1587 1.610 1_564 S
N1589 C1590 1.351 . S
C1590 C1584 1.428 . S
C1590 N1589 1.351 . S
C1590 C1591 1.434 1_564 S
C1591 C1582 1.429 1_655 S
C1591 N1588 1.350 . S
C1591 C1590 1.434 1_546 S
C1592 C1593 1.369 . S
C1592 C1594 1.419 . S
C1592 H1596 0.930 . S
C1593 C1592 1.369 . S
C1593 C1602 1.429 . S
C1594 C1592 1.419 . S
C1594 C1595 1.363 . S
C1594 H1597 0.929 . S
C1595 C1594 1.363 . S
C1595 C1601 1.428 . S
H1596 C1592 0.930 . S
H1597 C1594 0.929 . S
S1598 N1599 1.613 . S
S1598 N1600 1.610 . S
N1599 S1598 1.613 . S
N1599 C1602 1.350 . S
N1600 S1598 1.610 . S
N1600 C1601 1.351 . S
C1601 C1595 1.428 . S
C1601 N1600 1.351 . S
C1601 C1602 1.434 . S
C1602 C1593 1.429 . S
C1602 N1599 1.350 . S
C1602 C1601 1.434 . S
C1603 C1604 1.369 . S
C1603 C1605 1.419 . S
C1603 H1607 0.930 . S
C1604 C1603 1.369 . S
C1604 C1613 1.429 . S
C1605 C1603 1.419 . S
C1605 C1606 1.363 . S
C1605 H1608 0.929 . S
C1606 C1605 1.363 . S
C1606 C1612 1.428 . S
H1607 C1603 0.930 . S
H1608 C1605 0.929 . S
S1609 N1610 1.613 . S
S1609 N1611 1.610 . S
N1610 S1609 1.613 . S
N1610 C1613 1.350 . S
N1611 S1609 1.610 . S
N1611 C1612 1.351 . S
C1612 C1606 1.428 . S
C1612 N1611 1.351 . S
C1612 C1613 1.434 . S
C1613 C1604 1.429 . S
C1613 N1610 1.350 . S
C1613 C1612 1.434 . S
C1614 C1615 1.369 . S
C1614 C1616 1.419 . S
C1614 H1618 0.930 . S
C1615 C1614 1.369 . S
C1615 C1624 1.429 . S
C1616 C1614 1.419 . S
C1616 C1617 1.363 . S
C1616 H1619 0.929 . S
C1617 C1616 1.363 . S
C1617 C1623 1.428 . S
H1618 C1614 0.930 . S
H1619 C1616 0.929 . S
S1620 N1621 1.613 . S
S1620 N1622 1.610 . S
N1621 S1620 1.613 . S
N1621 C1624 1.350 . S
N1622 S1620 1.610 . S
N1622 C1623 1.351 . S
C1623 C1617 1.428 . S
C1623 N1622 1.351 . S
C1623 C1624 1.434 . S
C1624 C1615 1.429 . S
C1624 N1621 1.350 . S
C1624 C1623 1.434 . S
C1625 C1626 1.369 . S
C1625 C1627 1.419 . S
C1625 H1629 0.930 . S
C1626 C1625 1.369 . S
C1626 C1635 1.429 . S
C1627 C1625 1.419 . S
C1627 C1628 1.363 . S
C1627 H1630 0.929 . S
C1628 C1627 1.363 . S
C1628 C1634 1.428 . S
H1629 C1625 0.930 . S
H1630 C1627 0.929 . S
S1631 N1632 1.613 . S
S1631 N1633 1.610 . S
N1632 S1631 1.613 . S
N1632 C1635 1.350 . S
N1633 S1631 1.610 . S
N1633 C1634 1.351 . S
C1634 C1628 1.428 . S
C1634 N1633 1.351 . S
C1634 C1635 1.434 . S
C1635 C1626 1.429 . S
C1635 N1632 1.350 . S
C1635 C1634 1.434 . S
C1636 C1637 1.369 . S
C1636 C1638 1.419 1_554 S
C1636 H1640 0.930 . S
C1637 C1636 1.369 . S
C1637 C1646 1.429 . S
C1638 C1636 1.419 1_556 S
C1638 C1639 1.363 . S
C1638 H1641 0.929 . S
C1639 C1638 1.363 . S
C1639 C1645 1.428 . S
H1640 C1636 0.930 . S
H1641 C1638 0.929 . S
S1642 N1643 1.613 . S
S1642 N1644 1.610 1_554 S
N1643 S1642 1.613 . S
N1643 C1646 1.350 . S
N1644 S1642 1.610 1_556 S
N1644 C1645 1.351 . S
C1645 C1639 1.428 . S
C1645 N1644 1.351 . S
C1645 C1646 1.434 1_556 S
C1646 C1637 1.429 . S
C1646 N1643 1.350 . S
C1646 C1645 1.434 1_554 S
C1647 C1648 1.369 1_655 S
C1647 C1649 1.419 . S
C1647 H1651 0.930 . S
C1648 C1647 1.369 1_455 S
C1648 C1657 1.429 . S
C1649 C1647 1.419 . S
C1649 C1650 1.363 . S
C1649 H1652 0.929 . S
C1650 C1649 1.363 . S
C1650 C1656 1.428 1_655 S
H1651 C1647 0.930 . S
H1652 C1649 0.929 . S
S1653 N1654 1.613 . S
S1653 N1655 1.610 . S
N1654 S1653 1.613 . S
N1654 C1657 1.350 . S
N1655 S1653 1.610 . S
N1655 C1656 1.351 . S
C1656 C1650 1.428 1_455 S
C1656 N1655 1.351 . S
C1656 C1657 1.434 . S
C1657 C1648 1.429 . S
C1657 N1654 1.350 . S
C1657 C1656 1.434 . S
C1658 C1659 1.369 . S
C1658 C1660 1.419 1_554 S
C1658 H1662 0.930 . S
C1659 C1658 1.369 . S
C1659 C1668 1.429 1_455 S
C1660 C1658 1.419 1_556 S
C1660 C1661 1.363 1_455 S
C1660 H1663 0.929 . S
C1661 C1660 1.363 1_655 S
C1661 C1667 1.428 . S
H1662 C1658 0.930 . S
H1663 C1660 0.929 . S
S1664 N1665 1.613 . S
S1664 N1666 1.610 1_554 S
N1665 S1664 1.613 . S
N1665 C1668 1.350 . S
N1666 S1664 1.610 1_556 S
N1666 C1667 1.351 . S
C1667 C1661 1.428 . S
C1667 N1666 1.351 . S
C1667 C1668 1.434 1_556 S
C1668 C1659 1.429 1_655 S
C1668 N1665 1.350 . S
C1668 C1667 1.434 1_554 S
C1669 C1670 1.369 . S
C1669 C1671 1.419 . S
C1669 H1673 0.930 . S
C1670 C1669 1.369 . S
C1670 C1679 1.429 . S
C1671 C1669 1.419 . S
C1671 C1672 1.363 . S
C1671 H1674 0.929 . S
C1672 C1671 1.363 . S
C1672 C1678 1.428 . S
H1673 C1669 0.930 . S
H1674 C1671 0.929 . S
S1675 N1676 1.613 . S
S1675 N1677 1.610 . S
N1676 S1675 1.613 . S
N1676 C1679 1.350 . S
N1677 S1675 1.610 . S
N1677 C1678 1.351 . S
C1678 C1672 1.428 . S
C1678 N1677 1.351 . S
C1678 C1679 1.434 . S
C1679 C1670 1.429 . S
C1679 N1676 1.350 . S
C1679 C1678 1.434 . S
C1680 C1681 1.369 . S
C1680 C1682 1.419 . S
C1680 H1684 0.930 . S
C1681 C1680 1.369 . S
C1681 C1690 1.429 . S
C1682 C1680 1.419 . S
C1682 C1683 1.363 . S
C1682 H1685 0.929 . S
C1683 C1682 1.363 . S
C1683 C1689 1.428 . S
H1684 C1680 0.930 . S
H1685 C1682 0.929 . S
S1686 N1687 1.613 . S
S1686 N1688 1.610 . S
N1687 S1686 1.613 . S
N1687 C1690 1.350 . S
N1688 S1686 1.610 . S
N1688 C1689 1.351 . S
C1689 C1683 1.428 . S
C1689 N1688 1.351 . S
C1689 C1690 1.434 . S
C1690 C1681 1.429 . S
C1690 N1687 1.350 . S
C1690 C1689 1.434 . S
C1691 C1692 1.369 . S
C1691 C1693 1.419 . S
C1691 H1695 0.930 . S
C1692 C1691 1.369 . S
C1692 C1701 1.429 . S
C1693 C1691 1.419 . S
C1693 C1694 1.363 . S
C1693 H1696 0.929 . S
C1694 C1693 1.363 . S
C1694 C1700 1.428 . S
H1695 C1691 0.930 . S
H1696 C1693 0.929 . S
S1697 N1698 1.613 . S
S1697 N1699 1.610 . S
N1698 S1697 1.613 . S
N1698 C1701 1.350 . S
N1699 S1697 1.610 . S
N1699 C1700 1.351 . S
C1700 C1694 1.428 . S
C1700 N1699 1.351 . S
C1700 C1701 1.434 . S
C1701 C1692 1.429 . S
C1701 N1698 1.350 . S
C1701 C1700 1.434 . S
C1702 C1703 1.369 . S
C1702 C1704 1.419 . S
C1702 H1706 0.930 . S
C1703 C1702 1.369 . S
C1703 C1712 1.429 . S
C1704 C1702 1.419 . S
C1704 C1705 1.363 . S
C1704 H1707 0.929 . S
C1705 C1704 1.363 . S
C1705 C1711 1.428 . S
H1706 C1702 0.930 . S
H1707 C1704 0.929 . S
S1708 N1709 1.613 . S
S1708 N1710 1.610 . S
N1709 S1708 1.613 . S
N1709 C1712 1.350 . S
N1710 S1708 1.610 . S
N1710 C1711 1.351 . S
C1711 C1705 1.428 . S
C1711 N1710 1.351 . S
C1711 C1712 1.434 . S
C1712 C1703 1.429 . S
C1712 N1709 1.350 . S
C1712 C1711 1.434 . S
C1713 C1714 1.369 . S
C1713 C1715 1.419 . S
C1713 H1717 0.930 . S
C1714 C1713 1.369 . S
C1714 C1723 1.429 . S
C1715 C1713 1.419 . S
C1715 C1716 1.363 . S
C1715 H1718 0.929 . S
C1716 C1715 1.363 . S
C1716 C1722 1.428 . S
H1717 C1713 0.930 . S
H1718 C1715 0.929 . S
S1719 N1720 1.613 . S
S1719 N1721 1.610 . S
N1720 S1719 1.613 . S
N1720 C1723 1.350 . S
N1721 S1719 1.610 . S
N1721 C1722 1.351 . S
C1722 C1716 1.428 . S
C1722 N1721 1.351 . S
C1722 C1723 1.434 . S
C1723 C1714 1.429 . S
C1723 N1720 1.350 . S
C1723 C1722 1.434 . S
C1724 C1725 1.369 . S
C1724 C1726 1.419 . S
C1724 H1728 0.930 . S
C1725 C1724 1.369 . S
C1725 C1734 1.429 . S
C1726 C1724 1.419 . S
C1726 C1727 1.363 . S
C1726 H1729 0.929 . S
C1727 C1726 1.363 . S
C1727 C1733 1.428 . S
H1728 C1724 0.930 . S
H1729 C1726 0.929 . S
S1730 N1731 1.613 . S
S1730 N1732 1.610 . S
N1731 S1730 1.613 . S
N1731 C1734 1.350 . S
N1732 S1730 1.610 . S
N1732 C1733 1.351 . S
C1733 C1727 1.428 . S
C1733 N1732 1.351 . S
C1733 C1734 1.434 . S
C1734 C1725 1.429 . S
C1734 N1731 1.350 . S
C1734 C1733 1.434 . S
C1735 C1736 1.369 . S
C1735 C1737 1.419 . S
C1735 H1739 0.930 . S
C1736 C1735 1.369 . S
C1736 C1745 1.429 . S
C1737 C1735 1.419 . S
C1737 C1738 1.363 . S
C1737 H1740 0.929 . S
C1738 C1737 1.363 . S
C1738 C1744 1.428 . S
H1739 C1735 0.930 . S
H1740 C1737 0.929 . S
S1741 N1742 1.613 . S
S1741 N1743 1.610 . S
N1742 S1741 1.613 . S
N1742 C1745 1.350 . S
N1743 S1741 1.610 . S
N1743 C1744 1.351 . S
C1744 C1738 1.428 . S
C1744 N1743 1.351 . S
C1744 C1745 1.434 . S
C1745 C1736 1.429 . S
C1745 N1742 1.350 . S
C1745 C1744 1.434 . S
C1746 C1747 1.369 . S
C1746 C1748 1.419 . S
C1746 H1750 0.930 . S
C1747 C1746 1.369 . S
C1747 C1756 1.429 . S
C1748 C1746 1.419 . S
C1748 C1749 1.363 . S
C1748 H1751 0.929 . S
C1749 C1748 1.363 . S
C1749 C1755 1.428 . S
H1750 C1746 0.930 . S
H1751 C1748 0.929 . S
S1752 N1753 1.613 . S
S1752 N1754 1.610 . S
N1753 S1752 1.613 . S
N1753 C1756 1.350 . S
N1754 S1752 1.610 . S
N1754 C1755 1.351 . S
C1755 C1749 1.428 . S
C1755 N1754 1.351 . S
C1755 C1756 1.434 . S
C1756 C1747 1.429 . S
C1756 N1753 1.350 . S
C1756 C1755 1.434 . S
C1757 C1758 1.369 . S
C1757 C1759 1.419 . S
C1757 H1761 0.930 . S
C1758 C1757 1.369 . S
C1758 C1767 1.429 . S
C1759 C1757 1.419 . S
C1759 C1760 1.363 . S
C1759 H1762 0.929 . S
C1760 C1759 1.363 . S
C1760 C1766 1.428 . S
H1761 C1757 0.930 . S
H1762 C1759 0.929 . S
S1763 N1764 1.613 . S
S1763 N1765 1.610 . S
N1764 S1763 1.613 . S
N1764 C1767 1.350 . S
N1765 S1763 1.610 . S
N1765 C1766 1.351 . S
C1766 C1760 1.428 . S
C1766 N1765 1.351 . S
C1766 C1767 1.434 . S
C1767 C1758 1.429 . S
C1767 N1764 1.350 . S
C1767 C1766 1.434 . S
C1768 C1769 1.369 . S
C1768 C1770 1.419 . S
C1768 H1772 0.930 . S
C1769 C1768 1.369 . S
C1769 C1778 1.429 . S
C1770 C1768 1.419 . S
C1770 C1771 1.363 . S
C1770 H1773 0.929 . S
C1771 C1770 1.363 . S
C1771 C1777 1.428 . S
H1772 C1768 0.930 . S
H1773 C1770 0.929 . S
S1774 N1775 1.613 . S
S1774 N1776 1.610 . S
N1775 S1774 1.613 . S
N1775 C1778 1.350 . S
N1776 S1774 1.610 . S
N1776 C1777 1.351 . S
C1777 C1771 1.428 . S
C1777 N1776 1.351 . S
C1777 C1778 1.434 . S
C1778 C1769 1.429 . S
C1778 N1775 1.350 . S
C1778 C1777 1.434 . S
C1779 C1780 1.369 . S
C1779 C1781 1.419 . S
C1779 H1783 0.930 . S
C1780 C1779 1.369 . S
C1780 C1789 1.429 . S
C1781 C1779 1.419 . S
C1781 C1782 1.363 . S
C1781 H1784 0.929 . S
C1782 C1781 1.363 . S
C1782 C1788 1.428 . S
H1783 C1779 0.930 . S
H1784 C1781 0.929 . S
S1785 N1786 1.613 . S
S1785 N1787 1.610 . S
N1786 S1785 1.613 . S
N1786 C1789 1.350 . S
N1787 S1785 1.610 . S
N1787 C1788 1.351 . S
C1788 C1782 1.428 . S
C1788 N1787 1.351 . S
C1788 C1789 1.434 . S
C1789 C1780 1.429 . S
C1789 N1786 1.350 . S
C1789 C1788 1.434 . S
C1790 C1791 1.369 . S
C1790 C1792 1.419 . S
C1790 H1794 0.930 . S
C1791 C1790 1.369 . S
C1791 C1800 1.429 . S
C1792 C1790 1.419 . S
C1792 C1793 1.363 . S
C1792 H1795 0.929 . S
C1793 C1792 1.363 . S
C1793 C1799 1.428 . S
H1794 C1790 0.930 . S
H1795 C1792 0.929 . S
S1796 N1797 1.613 . S
S1796 N1798 1.610 . S
N1797 S1796 1.613 . S
N1797 C1800 1.350 . S
N1798 S1796 1.610 . S
N1798 C1799 1.351 . S
C1799 C1793 1.428 . S
C1799 N1798 1.351 . S
C1799 C1800 1.434 . S
C1800 C1791 1.429 . S
C1800 N1797 1.350 . S
C1800 C1799 1.434 . S
C1801 C1802 1.369 . S
C1801 C1803 1.419 . S
C1801 H1805 0.930 . S
C1802 C1801 1.369 . S
C1802 C1811 1.429 . S
C1803 C1801 1.419 . S
C1803 C1804 1.363 . S
C1803 H1806 0.929 . S
C1804 C1803 1.363 . S
C1804 C1810 1.428 . S
H1805 C1801 0.930 . S
H1806 C1803 0.929 . S
S1807 N1808 1.613 . S
S1807 N1809 1.610 . S
N1808 S1807 1.613 . S
N1808 C1811 1.350 . S
N1809 S1807 1.610 . S
N1809 C1810 1.351 . S
C1810 C1804 1.428 . S
C1810 N1809 1.351 . S
C1810 C1811 1.434 . S
C1811 C1802 1.429 . S
C1811 N1808 1.350 . S
C1811 C1810 1.434 . S
C1812 C1813 1.369 . S
C1812 C1814 1.419 . S
C1812 H1816 0.930 . S
C1813 C1812 1.369 . S
C1813 C1822 1.429 . S
C1814 C1812 1.419 . S
C1814 C1815 1.363 . S
C1814 H1817 0.929 . S
C1815 C1814 1.363 . S
C1815 C1821 1.428 . S
H1816 C1812 0.930 . S
H1817 C1814 0.929 . S
S1818 N1819 1.613 . S
S1818 N1820 1.610 . S
N1819 S1818 1.613 . S
N1819 C1822 1.350 . S
N1820 S1818 1.610 . S
N1820 C1821 1.351 . S
C1821 C1815 1.428 . S
C1821 N1820 1.351 . S
C1821 C1822 1.434 . S
C1822 C1813 1.429 . S
C1822 N1819 1.350 . S
C1822 C1821 1.434 . S
C1823 C1824 1.369 . S
C1823 C1825 1.419 . S
C1823 H1827 0.930 . S
C1824 C1823 1.369 . S
C1824 C1833 1.429 . S
C1825 C1823 1.419 . S
C1825 C1826 1.363 . S
C1825 H1828 0.929 . S
C1826 C1825 1.363 . S
C1826 C1832 1.428 . S
H1827 C1823 0.930 . S
H1828 C1825 0.929 . S
S1829 N1830 1.613 . S
S1829 N1831 1.610 . S
N1830 S1829 1.613 . S
N1830 C1833 1.350 . S
N1831 S1829 1.610 . S
N1831 C1832 1.351 . S
C1832 C1826 1.428 . S
C1832 N1831 1.351 . S
C1832 C1833 1.434 . S
C1833 C1824 1.429 . S
C1833 N1830 1.350 . S
C1833 C1832 1.434 . S
C1834 C1835 1.369 . S
C1834 C1836 1.419 . S
C1834 H1838 0.930 . S
C1835 C1834 1.369 . S
C1835 C1844 1.429 . S
C1836 C1834 1.419 . S
C1836 C1837 1.363 . S
C1836 H1839 0.929 . S
C1837 C1836 1.363 . S
C1837 C1843 1.428 . S
H1838 C1834 0.930 . S
H1839 C1836 0.929 . S
S1840 N1841 1.613 . S
S1840 N1842 1.610 . S
N1841 S1840 1.613 . S
N1841 C1844 1.350 . S
N1842 S1840 1.610 . S
N1842 C1843 1.351 . S
C1843 C1837 1.428 . S
C1843 N1842 1.351 . S
C1843 C1844 1.434 . S
C1844 C1835 1.429 . S
C1844 N1841 1.350 . S
C1844 C1843 1.434 . S
C1845 C1846 1.369 . S
C1845 C1847 1.419 . S
C1845 H1849 0.930 . S
C1846 C1845 1.369 . S
C1846 C1855 1.429 . S
C1847 C1845 1.419 . S
C1847 C1848 1.363 . S
C1847 H1850 0.929 . S
C1848 C1847 1.363 . S
C1848 C1854 1.428 . S
H1849 C1845 0.930 . S
H1850 C1847 0.929 . S
S1851 N1852 1.613 . S
S1851 N1853 1.610 . S
N1852 S1851 1.613 . S
N1852 C1855 1.350 . S
N1853 S1851 1.610 . S
N1853 C1854 1.351 . S
C1854 C1848 1.428 . S
C1854 N1853 1.351 . S
C1854 C1855 1.434 . S
C1855 C1846 1.429 . S
C1855 N1852 1.350 . S
C1855 C1854 1.434 . S
C1153 C974 1.394 . S
C1155 C4 1.358 . S
C1164 C40 1.359 . S
C1166 C290 1.395 . S
C1175 C902 1.399 . S
C1177 C76 1.359 . S
C1186 C112 1.362 . S
C1188 C362 1.397 . S
C1197 C148 1.352 . S
C1199 C1046 1.396 . S
C1208 C184 1.361 . S
C1210 C506 1.398 . S
C1219 C220 1.352 . S
C1221 C1118 1.397 . S
C1230 C256 1.352 . S
C1232 C434 1.397 . S
C1241 C686 1.353 . S
C1243 C291 1.349 . S
C1252 C2 1.353 . S
C1254 C327 1.349 . S
C1263 C614 1.351 . S
C1265 C363 1.345 . S
C1274 C399 1.344 . S
C1276 C74 1.352 . S
C1285 C758 1.353 . S
C1287 C435 1.346 . S
C1296 C218 1.350 . S
C1298 C471 1.346 . S
C1307 C507 1.348 . S
C1309 C830 1.352 . S
C1318 C146 1.352 . S
C1320 C543 1.348 . S
C1329 C580 1.362 . S
C1331 C398 1.397 . S
C1340 C616 1.361 . S
C1342 C866 1.398 . S
C1351 C326 1.398 . S
C1353 C652 1.360 . S
C1362 C938 1.394 . S
C1364 C688 1.358 . S
C1373 C470 1.395 . S
C1375 C724 1.354 . S
C1384 C1082 1.399 . S
C1386 C760 1.356 . S
C1395 C542 1.395 . S
C1397 C796 1.360 . S
C1406 C832 1.360 . S
C1408 C1010 1.398 . S
C1417 C110 1.350 . S
C1419 C867 1.346 . S
C1428 C903 1.344 . S
C1430 C578 1.352 . S
C1439 C939 1.347 . S
C1441 C38 1.351 . S
C1450 C975 1.344 . S
C1452 C650 1.351 . S
C1461 C1011 1.346 . S
C1463 C182 1.353 . S
C1472 C1047 1.347 . S
C1474 C794 1.354 . S
C1483 C1083 1.349 . S
C1485 C254 1.352 . S
C1494 C1119 1.345 . S
C1496 C722 1.352 . S
C1505 C878 1.494 . S
C1507 C14 1.432 . S
C1516 C50 1.430 . S
C1518 C338 1.496 . S
C1527 C950 1.493 . S
C1529 C86 1.435 . S
C1538 C122 1.437 . S
C1540 C410 1.495 . S
C1549 C1022 1.500 . S
C1551 C158 1.439 . S
C1560 C194 1.431 . S
C1562 C482 1.497 . S
C1571 C1094 1.499 . S
C1573 C230 1.439 . S
C1582 C266 1.431 . S
C1584 C554 1.494 . S
C1593 C302 1.497 . S
C1595 C590 1.440 . S
C1604 C374 1.500 . S
C1606 C662 1.436 . S
C1615 C446 1.493 . S
C1617 C734 1.433 . S
C1626 C518 1.494 . S
C1628 C806 1.432 . S
C1637 C626 1.440 . S
C1639 C914 1.496 . S
C1648 C986 1.495 . S
C1650 C698 1.438 . S
C1659 C1058 1.499 . S
C1661 C770 1.435 . S
C1670 C842 1.439 . S
C1672 C1130 1.499 . S
C1681 C3 1.490 . S
C1683 C183 1.490 . S
C1692 C39 1.491 . S
C1694 C219 1.490 . S
C1703 C75 1.490 . S
C1705 C255 1.490 . S
C1714 C147 1.490 . S
C1716 C111 1.492 . S
C1725 C292 1.392 . S
C1727 C472 1.389 . S
C1736 C328 1.392 . S
C1738 C508 1.390 . S
C1747 C364 1.392 . S
C1749 C544 1.390 . S
C1758 C400 1.392 . S
C1760 C436 1.388 . S
C1769 C579 1.490 . S
C1771 C759 1.491 . S
C1780 C795 1.492 . S
C1782 C615 1.490 . S
C1791 C651 1.492 . S
C1793 C831 1.490 . S
C1802 C687 1.491 . S
C1804 C723 1.491 . S
C1813 C1048 1.387 . S
C1815 C868 1.390 . S
C1824 C904 1.392 . S
C1826 C1084 1.389 . S
C1835 C1120 1.392 . S
C1837 C940 1.389 . S
C1846 C976 1.392 . S
C1848 C1012 1.390 . S
