# Generated by pormake.
# Topology smu, (6)-cn, num edge types: 1
# Building blocks:
#     Node 0, Type 0, BuildingBlock: NUHQIS_clean_sbu_0, # of connection points: 6
#     Node 1, Type 0, BuildingBlock: NUHQIS_clean_sbu_0, # of connection points: 6
#     Node 2, Type 0, BuildingBlock: NUHQIS_clean_sbu_0, # of connection points: 6
#     Node 3, Type 0, BuildingBlock: NUHQIS_clean_sbu_0, # of connection points: 6
#     Node 4, Type 0, BuildingBlock: NUHQIS_clean_sbu_0, # of connection points: 6
#     Node 5, Type 0, BuildingBlock: NUHQIS_clean_sbu_0, # of connection points: 6
#     Edge 6, Type (0, 0), BuildingBlock: FUNLAD_clean_linker_0, # of connection points: 2
#     Edge 7, Type (0, 0), BuildingBlock: FUNLAD_clean_linker_0, # of connection points: 2
#     Edge 8, Type (0, 0), BuildingBlock: FUNLAD_clean_linker_0, # of connection points: 2
#     Edge 9, Type (0, 0), BuildingBlock: FUNLAD_clean_linker_0, # of connection points: 2
#     Edge 10, Type (0, 0), BuildingBlock: FUNLAD_clean_linker_0, # of connection points: 2
#     Edge 11, Type (0, 0), BuildingBlock: FUNLAD_clean_linker_0, # of connection points: 2
#     Edge 12, Type (0, 0), BuildingBlock: FUNLAD_clean_linker_0, # of connection points: 2
#     Edge 13, Type (0, 0), BuildingBlock: FUNLAD_clean_linker_0, # of connection points: 2
#     Edge 14, Type (0, 0), BuildingBlock: FUNLAD_clean_linker_0, # of connection points: 2
#     Edge 15, Type (0, 0), BuildingBlock: FUNLAD_clean_linker_0, # of connection points: 2
#     Edge 16, Type (0, 0), BuildingBlock: FUNLAD_clean_linker_0, # of connection points: 2
#     Edge 17, Type (0, 0), BuildingBlock: FUNLAD_clean_linker_0, # of connection points: 2
#     Edge 18, Type (0, 0), BuildingBlock: FUNLAD_clean_linker_0, # of connection points: 2
#     Edge 19, Type (0, 0), BuildingBlock: FUNLAD_clean_linker_0, # of connection points: 2
#     Edge 20, Type (0, 0), BuildingBlock: FUNLAD_clean_linker_0, # of connection points: 2
#     Edge 21, Type (0, 0), BuildingBlock: FUNLAD_clean_linker_0, # of connection points: 2
#     Edge 22, Type (0, 0), BuildingBlock: FUNLAD_clean_linker_0, # of connection points: 2
#     Edge 23, Type (0, 0), BuildingBlock: FUNLAD_clean_linker_0, # of connection points: 2
# Relax obj value: 0.216
# Max RMSD: 0.305
# Mean RMSD: 0.305
data_MOF--net-smu--node1-NUHQIS_clean_sbu_0--edge1-FUNLAD_clean_linker_0
_symmetry_space_group_name_H-M    P1
_symmetry_Int_Tables_number       1
_symmetry_cell_setting            triclinic
loop_
_symmetry_equiv_pos_as_xyz
'x, y, z'
_cell_length_a     44.383237
_cell_length_b     44.256701
_cell_length_c     32.296144
_cell_angle_alpha  89.429237
_cell_angle_beta   89.776141
_cell_angle_gamma 119.94045
loop_
_atom_site_label
_atom_site_type_symbol
_atom_site_fract_x
_atom_site_fract_y
_atom_site_fract_z
_atom_type_partial_charge
Tb0 Tb 0.32199 0.11732 0.26525 0.0
Eu1 Eu 0.38001 0.09144 0.26809 0.0
C2 C 0.33804 0.09124 0.35067 0.0
C3 C 0.40102 0.17033 0.26524 0.0
C4 C 0.25256 0.14627 0.26729 0.0
C5 C 0.22371 0.17034 0.3085 0.0
C6 C 0.24994 0.16177 0.30389 0.0
C7 C 0.22766 0.13815 0.23634 0.0
C8 C 0.20162 0.14675 0.24085 0.0
C9 C 0.19984 0.16377 0.27651 0.0
C10 C 0.28397 0.14437 0.257 0.0
O11 O 0.31758 0.09137 0.20688 0.0
O12 O 0.37349 0.1027 0.2016 0.0
O13 O 0.32719 0.04294 0.25939 0.0
O14 O 0.29125 0.06321 0.28348 0.0
C15 C 0.34307 0.09252 0.18497 0.0
O16 O 0.41528 0.07912 0.23429 0.0
O17 O 0.41248 0.07522 0.30105 0.0
O18 O 0.35561 0.07899 0.33117 0.0
O19 O 0.32676 0.1104 0.33198 0.0
O20 O 0.37235 0.15886 0.24426 0.0
O21 O 0.40787 0.14831 0.28429 0.0
C22 C 0.29677 0.03776 0.2728 0.0
O23 O 0.30935 0.15523 0.28346 0.0
O24 O 0.2802 0.11779 0.23589 0.0
C25 C 0.46754 0.09305 0.26944 0.0
C26 C 0.54078 0.12419 0.27275 0.0
C27 C 0.523 0.10992 0.2357 0.0
C28 C 0.48679 0.09443 0.23413 0.0
C29 C 0.48535 0.10789 0.30631 0.0
C30 C 0.52153 0.1233 0.30791 0.0
C31 C 0.42906 0.0749 0.26784 0.0
H32 H 0.22273 0.18303 0.33656 0.0
H33 H 0.26898 0.16867 0.32813 0.0
H34 H 0.2295 0.12691 0.20743 0.0
H35 H 0.1841 0.14181 0.21529 0.0
H36 H 0.53695 0.10979 0.20817 0.0
H37 H 0.47376 0.083 0.20538 0.0
H38 H 0.47139 0.10733 0.33415 0.0
H39 H 0.53444 0.13446 0.33679 0.0
Tb40 Tb 0.81544 0.71285 0.26498 0.0
Eu41 Eu 0.73322 0.65155 0.25714 0.0
C42 C 0.76528 0.68791 0.34426 0.0
C43 C 0.79416 0.63446 0.26151 0.0
C44 C 0.9166 0.77965 0.2732 0.0
C45 C 0.96888 0.80728 0.31446 0.0
C46 C 0.93288 0.78605 0.31174 0.0
C47 C 0.93661 0.79524 0.23744 0.0
C48 C 0.97272 0.81597 0.24 0.0
C49 C 0.98938 0.82191 0.27852 0.0
C50 C 0.87922 0.75498 0.27003 0.0
O51 O 0.79994 0.71837 0.20263 0.0
O52 O 0.7577 0.66174 0.19378 0.0
O53 O 0.73587 0.70359 0.24509 0.0
O54 O 0.78726 0.73971 0.27873 0.0
C55 C 0.77834 0.69309 0.17865 0.0
O56 O 0.69021 0.61493 0.21866 0.0
O57 O 0.68201 0.61702 0.28423 0.0
O58 O 0.7377 0.67188 0.32105 0.0
O59 O 0.79714 0.701 0.3294 0.0
O60 O 0.81304 0.66522 0.24409 0.0
O61 O 0.76334 0.62527 0.2768 0.0
C62 C 0.75804 0.73377 0.26162 0.0
O63 O 0.86324 0.72713 0.29347 0.0
O64 O 0.8593 0.75941 0.24405 0.0
C65 C 0.65009 0.56157 0.25262 0.0
C66 C 0.61142 0.48784 0.25706 0.0
C67 C 0.62384 0.50522 0.21877 0.0
C68 C 0.64284 0.54167 0.21656 0.0
C69 C 0.6378 0.54416 0.29095 0.0
C70 C 0.61877 0.50775 0.29313 0.0
C71 C 0.66911 0.60022 0.25004 0.0
H72 H 0.98061 0.812 0.34477 0.0
H73 H 0.91778 0.77442 0.33975 0.0
H74 H 0.92448 0.79033 0.20733 0.0
H75 H 0.98759 0.82638 0.2116 0.0
H76 H 0.61821 0.49068 0.19033 0.0
H77 H 0.65152 0.55426 0.1865 0.0
H78 H 0.64267 0.55864 0.31934 0.0
H79 H 0.6099 0.49517 0.32317 0.0
Tb80 Tb 0.91207 0.21448 0.26967 0.0
Eu81 Eu 0.94019 0.29909 0.26718 0.0
C82 C 0.93453 0.25926 0.3508 0.0
C83 C 0.86102 0.24296 0.26672 0.0
C84 C 0.87982 0.11505 0.26596 0.0
C85 C 0.87044 0.05927 0.29208 0.0
C86 C 0.8806 0.09419 0.29846 0.0
C87 C 0.87036 0.10081 0.22623 0.0
C88 C 0.86032 0.06574 0.21975 0.0
C89 C 0.85917 0.04434 0.25298 0.0
C90 C 0.88319 0.14895 0.27652 0.0
O91 O 0.92185 0.22821 0.20318 0.0
O92 O 0.95723 0.28785 0.20727 0.0
O93 O 0.98783 0.29336 0.2784 0.0
O94 O 0.96679 0.2365 0.25629 0.0
C95 C 0.94439 0.25878 0.18645 0.0
O96 O 0.95306 0.34659 0.23255 0.0
O97 O 0.9559 0.34807 0.29932 0.0
O98 O 0.92562 0.28037 0.33306 0.0
O99 O 0.93551 0.2346 0.32962 0.0
O100 O 0.87068 0.22424 0.28839 0.0
O101 O 0.88436 0.27109 0.24742 0.0
C102 C 0.99243 0.26724 0.2671 0.0
O103 O 0.90958 0.17052 0.29863 0.0
O104 O 0.87378 0.16495 0.24982 0.0
C105 C 0.93737 0.38446 0.26616 0.0
C106 C 0.90298 0.42395 0.26706 0.0
C107 C 0.905 0.40798 0.23054 0.0
C108 C 0.92201 0.38856 0.23006 0.0
C109 C 0.9353 0.40033 0.30271 0.0
C110 C 0.91824 0.41976 0.30319 0.0
C111 C 0.95635 0.3647 0.26551 0.0
H112 H 0.87043 0.04366 0.31814 0.0
H113 H 0.88745 0.10444 0.32947 0.0
H114 H 0.86924 0.11622 0.20066 0.0
H115 H 0.85172 0.05494 0.18928 0.0
H116 H 0.89404 0.41107 0.20199 0.0
H117 H 0.92336 0.37703 0.20118 0.0
H118 H 0.94699 0.39785 0.33097 0.0
H119 H 0.91686 0.43134 0.332 0.0
Tb120 Tb 0.12346 0.31721 0.76391 0.0
Eu121 Eu 0.09718 0.37472 0.7621 0.0
C122 C 0.09607 0.33336 0.6817 0.0
C123 C 0.17581 0.39615 0.75758 0.0
C124 C 0.15372 0.24953 0.77551 0.0
C125 C 0.1472 0.19287 0.76059 0.0
C126 C 0.13871 0.21872 0.75252 0.0
C127 C 0.17612 0.25325 0.80815 0.0
C128 C 0.18459 0.22731 0.81628 0.0
C129 C 0.17102 0.19733 0.79175 0.0
C130 C 0.15128 0.27965 0.75989 0.0
O131 O 0.11744 0.32457 0.83012 0.0
O132 O 0.08588 0.35319 0.82644 0.0
O133 O 0.04852 0.32113 0.75787 0.0
O134 O 0.06998 0.28654 0.7837 0.0
C135 C 0.0986 0.33668 0.84744 0.0
O136 O 0.0821 0.40882 0.79307 0.0
O137 O 0.08381 0.40849 0.72627 0.0
O138 O 0.10511 0.36436 0.69595 0.0
O139 O 0.09664 0.30944 0.70543 0.0
O140 O 0.16341 0.36664 0.73818 0.0
O141 O 0.15439 0.40349 0.77687 0.0
C142 C 0.04404 0.29127 0.77308 0.0
O143 O 0.12339 0.27346 0.7398 0.0
O144 O 0.16339 0.30769 0.7823 0.0
C145 C 0.09893 0.46255 0.75784 0.0
C146 C 0.12985 0.53605 0.75579 0.0
C147 C 0.12702 0.51828 0.79322 0.0
C148 C 0.11165 0.48194 0.79427 0.0
C149 C 0.10235 0.48039 0.72033 0.0
C150 C 0.11772 0.5167 0.71929 0.0
C151 C 0.08074 0.42391 0.75887 0.0
H152 H 0.1366 0.17031 0.74079 0.0
H153 H 0.12194 0.2154 0.72662 0.0
H154 H 0.18843 0.27687 0.82612 0.0
H155 H 0.20263 0.23122 0.84091 0.0
H156 H 0.13569 0.53235 0.82198 0.0
H157 H 0.10923 0.46905 0.82379 0.0
H158 H 0.09271 0.46622 0.69178 0.0
H159 H 0.1199 0.52962 0.68986 0.0
Tb160 Tb 0.21876 0.90534 0.77076 0.0
Eu161 Eu 0.30374 0.93568 0.77526 0.0
C162 C 0.26701 0.93807 0.68955 0.0
C163 C 0.24976 0.85596 0.77042 0.0
C164 C 0.12058 0.87403 0.75997 0.0
C165 C 0.0655 0.84564 0.72352 0.0
C166 C 0.09991 0.85312 0.72755 0.0
C167 C 0.1067 0.88884 0.78692 0.0
C168 C 0.07232 0.8813 0.78298 0.0
C169 C 0.05096 0.8587 0.75205 0.0
C170 C 0.15302 0.87416 0.77067 0.0
O171 O 0.23359 0.92877 0.83141 0.0
O172 O 0.28178 0.92348 0.84026 0.0
O173 O 0.29651 0.98236 0.78494 0.0
O174 O 0.23976 0.96075 0.76213 0.0
C175 C 0.2583 0.93035 0.85496 0.0
O176 O 0.34651 0.94066 0.81326 0.0
O177 O 0.35687 0.96097 0.75052 0.0
O178 O 0.29564 0.94815 0.71059 0.0
O179 O 0.23556 0.9193 0.7059 0.0
O180 O 0.22926 0.8644 0.78998 0.0
O181 O 0.2789 0.88025 0.75405 0.0
C182 C 0.27 0.98639 0.77429 0.0
O183 O 0.17156 0.87089 0.74147 0.0
O184 O 0.17229 0.89498 0.79966 0.0
C185 C 0.39091 0.93726 0.77708 0.0
C186 C 0.43229 0.90561 0.76778 0.0
C187 C 0.43162 0.921 0.80541 0.0
C188 C 0.41121 0.93669 0.80993 0.0
C189 C 0.39123 0.92165 0.7395 0.0
C190 C 0.41182 0.90609 0.73487 0.0
C191 C 0.36928 0.95365 0.78324 0.0
H192 H 0.0499 0.82861 0.69894 0.0
H193 H 0.1097 0.84096 0.70662 0.0
H194 H 0.12167 0.9046 0.81269 0.0
H195 H 0.06193 0.89152 0.8058 0.0
H196 H 0.44737 0.92149 0.83121 0.0
H197 H 0.41131 0.94847 0.83922 0.0
H198 H 0.37554 0.92136 0.71374 0.0
H199 H 0.41144 0.89412 0.70565 0.0
Tb200 Tb 0.70973 0.813 0.76229 0.0
Eu201 Eu 0.65617 0.72813 0.76249 0.0
C202 C 0.69582 0.7701 0.68095 0.0
C203 C 0.63018 0.78215 0.76152 0.0
C204 C 0.77394 0.91285 0.76488 0.0
C205 C 0.81303 0.97133 0.73878 0.0
C206 C 0.78778 0.93684 0.73191 0.0
C207 C 0.78674 0.92345 0.80494 0.0
C208 C 0.8124 0.95814 0.81188 0.0
C209 C 0.8253 0.98268 0.77892 0.0
C210 C 0.74375 0.87861 0.75612 0.0
O211 O 0.70329 0.79885 0.82848 0.0
O212 O 0.67972 0.73911 0.82528 0.0
O213 O 0.7107 0.7358 0.75555 0.0
O214 O 0.74355 0.79275 0.77854 0.0
C215 C 0.69437 0.76833 0.84594 0.0
O216 O 0.62398 0.67821 0.79437 0.0
O217 O 0.62294 0.68096 0.7277 0.0
O218 O 0.66524 0.74721 0.69614 0.0
O219 O 0.71899 0.79491 0.70403 0.0
O220 O 0.65888 0.80138 0.74062 0.0
O221 O 0.62567 0.75407 0.78067 0.0
C222 C 0.74027 0.76249 0.76833 0.0
O223 O 0.7483 0.85794 0.7318 0.0
O224 O 0.72052 0.86178 0.78505 0.0
C225 C 0.5696 0.64178 0.76234 0.0
C226 C 0.4959 0.60224 0.7657 0.0
C227 C 0.51566 0.60779 0.80169 0.0
C228 C 0.55202 0.62721 0.8 0.0
C229 C 0.54987 0.63625 0.72633 0.0
C230 C 0.51351 0.61682 0.72801 0.0
C231 C 0.60824 0.66206 0.7608 0.0
H232 H 0.8217 0.9894 0.71273 0.0
H233 H 0.77794 0.92922 0.70082 0.0
H234 H 0.77634 0.90529 0.83087 0.0
H235 H 0.82167 0.96587 0.8431 0.0
H236 H 0.50308 0.59656 0.83113 0.0
H237 H 0.5664 0.63064 0.82826 0.0
H238 H 0.56248 0.64692 0.69673 0.0
H239 H 0.49919 0.61348 0.69975 0.0
C240 C 0.29217 0.95271 0.92055 0.0
C241 C 0.26244 0.94467 0.89726 0.0
C242 C 0.2983 0.97029 0.95809 0.0
C243 C 0.27482 0.98031 0.97321 0.0
C244 C 0.24443 0.97099 0.9508 0.0
C245 C 0.23838 0.95359 0.91316 0.0
C246 C 0.2808 0.99982 1.01249 0.0
C247 C 0.31281 0.02174 0.02728 0.0
C248 C 0.31987 0.04149 0.06671 0.0
C249 C 0.35393 0.05814 0.08214 0.0
C250 C 0.36182 0.07582 0.11974 0.0
C251 C 0.33582 0.07747 0.14286 0.0
H252 H 0.26765 0.03267 0.07845 0.0
C253 C 0.30197 0.06187 0.12684 0.0
C254 C 0.29406 0.04416 0.08925 0.0
H255 H 0.28125 0.06263 0.14379 0.0
H256 H 0.31124 0.94619 0.90936 0.0
H257 H 0.3214 0.97584 0.97514 0.0
H258 H 0.22568 0.97798 0.96191 0.0
H259 H 0.2152 0.94786 0.8961 0.0
H260 H 0.25787 0.99641 0.02869 0.0
H261 H 0.33536 0.02537 1.00981 0.0
H262 H 0.37449 0.05688 0.06546 0.0
H263 H 0.38817 0.08748 0.13109 0.0
C264 C 0.68451 0.73578 0.61574 0.0
C265 C 0.70625 0.76545 0.63885 0.0
C266 C 0.69604 0.72956 0.5781 0.0
C267 C 0.72971 0.75284 0.56278 0.0
C268 C 0.75086 0.78316 0.58509 0.0
C269 C 0.73939 0.78933 0.62278 0.0
C270 C 0.74322 0.74673 0.52331 0.0
C271 C 0.73203 0.71463 0.50812 0.0
C272 C 0.74306 0.70783 0.46736 0.0
C273 C 0.72009 0.67698 0.44706 0.0
C274 C 0.72805 0.67006 0.40772 0.0
C275 C 0.75958 0.6935 0.38799 0.0
H276 H 0.79409 0.75446 0.46345 0.0
C277 C 0.78351 0.72364 0.40896 0.0
C278 C 0.77527 0.73087 0.44829 0.0
H279 H 0.80795 0.74225 0.39437 0.0
H280 H 0.65879 0.71691 0.62707 0.0
H281 H 0.67835 0.70657 0.56111 0.0
H282 H 0.7767 0.80179 0.5738 0.0
H283 H 0.75686 0.81253 0.63969 0.0
H284 H 0.76305 0.76946 0.50661 0.0
H285 H 0.71249 0.69202 0.52527 0.0
H286 H 0.6953 0.65859 0.46113 0.0
H287 H 0.70914 0.64654 0.3924 0.0
C288 C 0.98575 0.29428 0.13 0.0
C289 C 0.95975 0.26136 0.14458 0.0
C290 C 1.00341 0.29793 0.093 0.0
C291 C 0.99508 0.26888 0.06822 0.0
C292 C 0.96906 0.23578 0.08255 0.0
C293 C 0.95153 0.23201 0.1204 0.0
C294 C 1.01409 0.27274 0.0283 0.0
C295 C 0.03014 0.30331 1.00693 0.0
C296 C 0.05111 0.31098 0.968 0.0
C297 C 0.06535 0.34482 0.95117 0.0
C298 C 0.0831 0.35362 0.91341 0.0
C299 C 0.08746 0.32896 0.8913 0.0
H300 H 0.04671 0.26026 0.95883 0.0
C301 C 0.07503 0.29553 0.9088 0.0
C302 C 0.05689 0.28652 0.94691 0.0
H303 H 0.07749 0.27582 0.89195 0.0
H304 H 0.99347 0.31763 0.14775 0.0
H305 H 0.0243 0.32372 0.08483 0.0
H306 H 0.96236 0.2128 0.06451 0.0
H307 H 0.93204 0.20619 0.13093 0.0
H308 H 1.01436 0.25002 1.01651 0.0
H309 H 0.02723 0.32476 1.01808 0.0
H310 H 0.06181 0.36445 0.96667 0.0
H311 H 0.09223 0.37953 0.9006 0.0
C312 C 0.34682 0.06743 0.41695 0.0
C313 C 0.32754 0.07901 0.39409 0.0
C314 C 0.33472 0.05055 0.45518 0.0
C315 C 0.30257 0.04418 0.47149 0.0
C316 C 0.28413 0.05741 0.44973 0.0
C317 C 0.29643 0.0746 0.41132 0.0
C318 C 0.28825 0.02438 0.5113 0.0
C319 C 0.29651 1.00057 0.5253 0.0
C320 C 0.28634 0.98277 0.56658 0.0
C321 C 0.30808 0.97166 0.58423 0.0
C322 C 0.30094 0.95608 0.62349 0.0
C323 C 0.27136 0.9504 0.64593 0.0
H324 H 0.23837 0.98391 0.57547 0.0
C325 C 0.2486 0.96007 0.62776 0.0
C326 C 0.25614 0.9764 0.58848 0.0
H327 H 0.22574 0.95625 0.64451 0.0
H328 H 0.37114 0.0708 0.40486 0.0
H329 H 0.35077 0.04252 0.47169 0.0
H330 H 0.2596 0.05346 0.46182 0.0
H331 H 0.28084 0.083 0.39435 0.0
H332 H 0.27082 0.02979 0.52931 0.0
H333 H 0.31333 0.99484 0.50652 0.0
H334 H 0.33135 0.97595 0.56804 0.0
H335 H 0.31898 0.94891 0.6366 0.0
C336 C 0.68852 0.73387 0.91003 0.0
C337 C 0.70437 0.7663 0.8892 0.0
C338 C 0.70092 0.72985 0.94809 0.0
C339 C 0.72987 0.75814 0.96627 0.0
C340 C 0.74458 0.79106 0.94665 0.0
C341 C 0.73205 0.79513 0.90835 0.0
C342 C 0.74473 0.75393 1.0058 0.0
C343 C 0.74266 0.72348 1.01724 0.0
C344 C 0.75471 0.7169 0.05758 0.0
C345 C 0.74096 0.68217 0.0711 0.0
C346 C 0.74981 0.67437 0.10961 0.0
C347 C 0.77302 0.70116 0.13551 0.0
H348 H 0.79106 0.7708 0.07308 0.0
C349 C 0.78811 0.73592 0.12125 0.0
C350 C 0.77903 0.74375 0.08274 0.0
H351 H 0.80615 0.75722 0.14036 0.0
H352 H 0.6668 0.71119 0.89648 0.0
H353 H 0.68771 0.70443 0.96302 0.0
H354 H 0.76653 0.81344 0.9603 0.0
H355 H 0.74494 0.82043 0.89304 0.0
H356 H 0.7577 0.77654 0.02545 0.0
H357 H 0.73029 0.70143 0.9966 0.0
H358 H 0.72243 0.66089 0.05229 0.0
H359 H 0.73768 0.64731 0.1195 0.0
C360 C 0.96342 0.24759 0.41059 0.0
C361 C 0.94904 0.26679 0.39323 0.0
C362 C 0.981 0.25726 0.44829 0.0
C363 C 0.9848 0.28661 0.46957 0.0
C364 C 0.9693 0.30496 0.45287 0.0
C365 C 0.95174 0.29529 0.41517 0.0
C366 C 1.00444 0.29907 0.50907 0.0
C367 C 0.02629 0.28873 0.52404 0.0
C368 C 0.04555 0.30164 0.56354 0.0
C369 C 0.05479 0.28011 0.58579 0.0
C370 C 0.0721 0.29083 0.62352 0.0
C371 C 0.08108 0.32365 0.63967 0.0
H372 H 0.0499 0.35279 0.56212 0.0
C373 C 0.07302 0.34578 0.61665 0.0
C374 C 0.05546 0.33493 0.57901 0.0
H375 H 0.07959 0.37125 0.62809 0.0
H376 H 0.96184 0.22545 0.3946 0.0
H377 H 0.99147 0.24156 0.46024 0.0
H378 H 0.97142 0.32744 0.46861 0.0
H379 H 0.94107 0.31076 0.40277 0.0
H380 H 1.00083 0.31797 0.52633 0.0
H381 H 0.02981 0.26941 0.50777 0.0
H382 H 0.04787 0.25452 0.57442 0.0
H383 H 0.0779 0.27308 0.64035 0.0
C384 C 0.60123 0.15885 0.24246 0.0
C385 C 0.57905 0.13874 0.27519 0.0
C386 C 0.63709 0.17155 0.24442 0.0
C387 C 0.65164 0.16456 0.2794 0.0
C388 C 0.62936 0.14446 0.31202 0.0
C389 C 0.5936 0.13177 0.31002 0.0
C390 C 0.6894 0.17625 0.28279 0.0
C391 C 0.71458 0.20059 0.25803 0.0
C392 C 0.75208 0.21119 0.26153 0.0
C393 C 0.77724 0.24309 0.24371 0.0
C394 C 0.81265 0.25366 0.24556 0.0
C395 C 0.82369 0.23246 0.26523 0.0
H396 H 0.7449 0.16447 0.29362 0.0
C397 C 0.79856 0.20045 0.28282 0.0
C398 C 0.76322 0.18981 0.2808 0.0
H399 H 0.8061 0.18322 0.29771 0.0
H400 H 0.59089 0.16484 0.21525 0.0
H401 H 0.65291 0.18619 0.21807 0.0
H402 H 0.63962 0.13828 0.33918 0.0
H403 H 0.57725 0.11582 0.33547 0.0
H404 H 0.69661 0.16471 0.30787 0.0
H405 H 0.70802 0.21431 0.23502 0.0
H406 H 0.76948 0.25995 0.22829 0.0
H407 H 0.83133 0.27841 0.23151 0.0
C408 C 0.56062 0.43269 0.28514 0.0
C409 C 0.5902 0.44913 0.25927 0.0
C410 C 0.54025 0.39635 0.28676 0.0
C411 C 0.54891 0.37555 0.26236 0.0
C412 C 0.57885 0.39193 0.23718 0.0
C413 C 0.59915 0.42832 0.23541 0.0
C414 C 0.5275 0.33682 0.26284 0.0
C415 C 0.49296 0.31981 0.27018 0.0
C416 C 0.47059 0.28129 0.26859 0.0
C417 C 0.43547 0.26743 0.25858 0.0
C418 C 0.41323 0.23146 0.25708 0.0
C419 C 0.42542 0.20836 0.26636 0.0
H420 H 0.50971 0.26803 0.28686 0.0
C421 C 0.46046 0.22206 0.27713 0.0
C422 C 0.48296 0.25825 0.27802 0.0
H423 H 0.47052 0.20487 0.28467 0.0
H424 H 0.55289 0.44794 0.30379 0.0
H425 H 0.51795 0.38471 0.30747 0.0
H426 H 0.58631 0.37654 0.21837 0.0
H427 H 0.62205 0.44014 0.21561 0.0
H428 H 0.54014 0.32218 0.25412 0.0
H429 H 0.47989 0.33474 0.2748 0.0
H430 H 0.42516 0.28452 0.25159 0.0
H431 H 0.38626 0.22177 0.24919 0.0
C432 C 0.89994 0.47681 0.28912 0.0
C433 C 0.8856 0.4454 0.2672 0.0
C434 C 0.88407 0.49733 0.28862 0.0
C435 C 0.85348 0.48703 0.26595 0.0
C436 C 0.8388 0.45535 0.2447 0.0
C437 C 0.85473 0.43487 0.2451 0.0
C438 C 0.8359 0.50828 0.26448 0.0
C439 C 0.85304 0.54317 0.2692 0.0
C440 C 0.83645 0.56526 0.26649 0.0
C441 C 0.85759 0.6008 0.25674 0.0
C442 C 0.84364 0.62292 0.2547 0.0
C443 C 0.80816 0.61021 0.26299 0.0
H444 H 0.78383 0.52531 0.28345 0.0
C445 C 0.78689 0.57468 0.27319 0.0
C446 C 0.80084 0.55236 0.27482 0.0
H447 H 0.75949 0.5641 0.27994 0.0
H448 H 0.92377 0.48586 0.3063 0.0
H449 H 0.89571 0.521 0.30646 0.0
H450 H 0.81508 0.44655 0.22734 0.0
H451 H 0.84263 0.41058 0.22838 0.0
H452 H 0.80848 0.49494 0.25684 0.0
H453 H 0.88106 0.55676 0.27296 0.0
H454 H 0.88511 0.61158 0.25054 0.0
H455 H 0.86092 0.65019 0.24714 0.0
C456 C 0.17294 0.59683 0.77869 0.0
C457 C 0.14383 0.5744 0.75507 0.0
C458 C 0.18515 0.63275 0.77887 0.0
C459 C 0.16842 0.64696 0.7554 0.0
C460 C 0.13935 0.62451 0.73194 0.0
C461 C 0.1273 0.58872 0.73158 0.0
C462 C 0.17909 0.68457 0.75633 0.0
C463 C 0.21144 0.71023 0.76529 0.0
C464 C 0.22094 0.74755 0.76647 0.0
C465 C 0.25523 0.77362 0.75715 0.0
C466 C 0.26476 0.80894 0.75801 0.0
C467 C 0.24026 0.81882 0.76904 0.0
H468 H 0.17018 0.73833 0.78649 0.0
C469 C 0.20613 0.79273 0.77907 0.0
C470 C 0.19656 0.75755 0.77783 0.0
H471 H 0.18661 0.79943 0.78779 0.0
H472 H 0.18628 0.58661 0.7971 0.0
H473 H 0.20708 0.64905 0.79821 0.0
H474 H 0.12572 0.63466 0.71394 0.0
H475 H 0.10444 0.57216 0.71364 0.0
H476 H 0.15959 0.69139 0.74757 0.0
H477 H 0.23202 0.7041 0.77007 0.0
H478 H 0.27461 0.76664 0.74877 0.0
H479 H 0.29132 0.82845 0.75042 0.0
C480 C 0.45797 0.86995 0.79499 0.0
C481 C 0.45484 0.88979 0.76277 0.0
C482 C 0.48033 0.85637 0.79096 0.0
C483 C 0.49997 0.86213 0.75437 0.0
C484 C 0.49661 0.8818 0.72216 0.0
C485 C 0.47428 0.89537 0.7262 0.0
C486 C 0.52546 0.84977 0.74908 0.0
C487 C 0.52643 0.82513 0.77312 0.0
C488 C 0.55301 0.81413 0.76833 0.0
C489 C 0.54636 0.78213 0.78582 0.0
C490 C 0.5711 0.77137 0.78321 0.0
C491 C 0.60317 0.7925 0.76311 0.0
H492 H 0.59222 0.86074 0.73581 0.0
C493 C 0.6099 0.82454 0.7457 0.0
C494 C 0.58528 0.83535 0.74845 0.0
H495 H 0.63455 0.84174 0.73051 0.0
H496 H 0.44318 0.86496 0.82348 0.0
H497 H 0.48255 0.84213 0.81704 0.0
H498 H 0.5116 0.88703 0.69377 0.0
H499 H 0.47292 0.91098 0.70103 0.0
H500 H 0.54368 0.86114 0.72336 0.0
H501 H 0.50652 0.81156 0.79666 0.0
H502 H 0.52193 0.76538 0.8017 0.0
H503 H 0.56516 0.74663 0.79718 0.0
C504 C 0.22872 0.45355 0.77541 0.0
C505 C 0.21389 0.42079 0.75649 0.0
C506 C 0.26492 0.47595 0.77478 0.0
C507 C 0.28704 0.46586 0.75539 0.0
C508 C 0.27195 0.43316 0.73645 0.0
C509 C 0.23601 0.41096 0.737 0.0
C510 C 0.32573 0.48827 0.75303 0.0
C511 C 0.34475 0.5181 0.77397 0.0
C512 C 0.38351 0.53942 0.77087 0.0
C513 C 0.40188 0.56293 0.80255 0.0
C514 C 0.4382 0.58332 0.80092 0.0
C515 C 0.45715 0.58088 0.76734 0.0
H516 H 0.38958 0.52069 0.71101 0.0
C517 C 0.43875 0.55775 0.73532 0.0
C518 C 0.40247 0.53746 0.73688 0.0
H519 H 0.45241 0.55498 0.70908 0.0
H520 H 0.2124 0.4619 0.7907 0.0
H521 H 0.27512 0.50106 0.78921 0.0
H522 H 0.28807 0.42454 0.72115 0.0
H523 H 0.22563 0.38588 0.72223 0.0
H524 H 0.33916 0.47867 0.73381 0.0
H525 H 0.33198 0.52679 0.79557 0.0
H526 H 0.38809 0.56542 0.82887 0.0
H527 H 0.45138 0.60128 0.8258 0.0
C528 C 0.18538 0.21049 0.29313 0.0
C529 C 0.17488 0.17688 0.27842 0.0
C530 C 0.16318 0.22437 0.2906 0.0
C531 C 0.12987 0.20479 0.27339 0.0
C532 C 0.11915 0.17087 0.2598 0.0
C533 C 0.14128 0.15705 0.26235 0.0
C534 C 0.10578 0.21866 0.26723 0.0
C535 C 0.11033 0.24909 0.28197 0.0
C536 C 0.08413 0.26006 0.2747 0.0
C537 C 0.07682 0.27756 0.3058 0.0
C538 C 0.04841 0.283 0.30202 0.0
C539 C 0.02722 0.27105 0.26699 0.0
H540 H 0.07076 0.23938 0.21252 0.0
C541 C 0.03645 0.25651 0.23436 0.0
C542 C 0.06485 0.2514 0.23794 0.0
H543 H 0.02062 0.2475 0.20683 0.0
H544 H 0.21131 0.22668 0.30508 0.0
H545 H 0.17282 0.25071 0.30105 0.0
H546 H 0.09366 0.15508 0.24648 0.0
H547 H 0.13221 0.13094 0.25113 0.0
H548 H 0.08225 0.20212 0.25012 0.0
H549 H 0.13191 0.265 0.30206 0.0
H550 H 0.09169 0.285 0.33411 0.0
H551 H 0.04152 0.29406 0.32765 0.0
C552 C 0.04754 0.87112 0.25461 0.0
C553 C 0.02796 0.84234 0.28116 0.0
C554 C 0.08378 0.89003 0.25706 0.0
C555 C 0.1012 0.88069 0.28632 0.0
C556 C 0.08175 0.85229 0.31306 0.0
C557 C 0.04559 0.83305 0.31022 0.0
C558 C 0.13927 0.9018 0.29187 0.0
C559 C 0.16149 0.91935 0.26057 0.0
C560 C 0.19866 0.94521 0.26715 0.0
C561 C 0.2224 0.95447 0.23399 0.0
C562 C 0.25614 0.9829 0.23713 0.0
C563 C 0.26622 1.00274 0.27324 0.0
H564 H 0.19223 0.95828 0.33019 0.0
C565 C 0.24326 0.99245 0.30714 0.0
C566 C 0.20984 0.96389 0.30427 0.0
H567 H 0.25051 1.00782 0.33507 0.0
H568 H 0.0349 0.87955 0.23247 0.0
H569 H 0.09794 0.91259 0.23692 0.0
H570 H 0.09458 0.84483 0.33612 0.0
H571 H 0.03155 0.8107 0.33069 0.0
H572 H 0.14913 0.90279 0.32284 0.0
H573 H 0.15196 0.91552 0.22901 0.0
H574 H 0.21432 0.94072 0.20496 0.0
H575 H 0.27329 0.99098 0.2103 0.0
C576 C 0.82093 0.9828 0.27788 0.0
C577 C 0.84415 1.00615 0.2479 0.0
C578 C 0.80667 0.94684 0.27372 0.0
C579 C 0.81511 0.93322 0.23918 0.0
C580 C 0.83841 0.95663 0.20926 0.0
C581 C 0.85261 0.99267 0.21339 0.0
C582 C 0.80184 0.89516 0.23435 0.0
C583 C 0.77423 0.86985 0.25536 0.0
C584 C 0.76448 0.83251 0.2539 0.0
C585 C 0.75103 0.81183 0.2899 0.0
C586 C 0.74606 0.77806 0.29155 0.0
C587 C 0.75333 0.76406 0.25674 0.0
H588 H 0.77932 0.8325 0.18969 0.0
C589 C 0.76428 0.78362 0.21977 0.0
C590 C 0.76986 0.81764 0.2183 0.0
H591 H 0.77067 0.77343 0.19284 0.0
H592 H 0.8136 0.99233 0.30465 0.0
H593 H 0.78972 0.93016 0.29823 0.0
H594 H 0.84578 0.947 0.1826 0.0
H595 H 0.87066 1.01001 0.18997 0.0
H596 H 0.81628 0.88789 0.21338 0.0
H597 H 0.7597 0.87655 0.2768 0.0
H598 H 0.7464 0.82257 0.31763 0.0
H599 H 0.73831 0.76356 0.32059 0.0
C600 C 0.21902 0.18372 0.80194 0.0
C601 C 0.18347 0.17201 0.79636 0.0
C602 C 0.23116 0.16004 0.80338 0.0
C603 C 0.20792 0.12414 0.79907 0.0
C604 C 0.17235 0.11246 0.79439 0.0
C605 C 0.16024 0.13608 0.79291 0.0
C606 C 0.21928 0.09783 0.80038 0.0
C607 C 0.252 0.10472 0.79251 0.0
C608 C 0.2608 0.07648 0.79221 0.0
C609 C 0.28592 0.07812 0.76415 0.0
C610 C 0.29093 0.04944 0.75965 0.0
C611 C 0.27094 0.01912 0.78341 0.0
H612 H 0.22467 0.04542 0.84148 0.0
C613 C 0.24779 0.01846 0.81346 0.0
C614 C 0.24305 0.047 0.81822 0.0
H615 H 0.23242 0.9953 0.83236 0.0
H616 H 0.23764 0.21129 0.80428 0.0
H617 H 0.25863 0.17002 0.80813 0.0
H618 H 0.15382 0.0849 0.79141 0.0
H619 H 0.13267 0.12621 0.78901 0.0
H620 H 0.19898 0.07097 0.8058 0.0
H621 H 0.27195 0.1307 0.78284 0.0
H622 H 0.30031 0.10081 0.74423 0.0
H623 H 0.30888 0.05024 0.73626 0.0
C624 C 0.98864 0.81134 0.74521 0.0
C625 C 1.01309 0.84663 0.75191 0.0
C626 C 0.95296 0.79921 0.7488 0.0
C627 C 0.94092 0.82223 0.75903 0.0
C628 C 0.96539 0.85757 0.76498 0.0
C629 C 1.00099 0.86966 0.76139 0.0
C630 C 0.90349 0.81063 0.7658 0.0
C631 C 0.87664 0.7794 0.75489 0.0
C632 C 0.83994 0.77031 0.76217 0.0
C633 C 0.81413 0.7492 0.73387 0.0
C634 C 0.78043 0.7442 0.73738 0.0
C635 C 0.77225 0.76025 0.76933 0.0
H636 H 0.84932 0.79858 0.81972 0.0
C637 C 0.79724 0.77892 0.79945 0.0
C638 C 0.83062 0.78364 0.79617 0.0
H639 H 0.79131 0.79103 0.82481 0.0
H640 H 0.99706 0.79272 0.73871 0.0
H641 H 0.93523 0.77167 0.74478 0.0
H642 H 0.95697 0.87595 0.77295 0.0
H643 H 0.01905 0.89705 0.76644 0.0
H644 H 0.89784 0.8296 0.77954 0.0
H645 H 0.88121 0.76108 0.73778 0.0
H646 H 0.82052 0.73813 0.7078 0.0
H647 H 0.76158 0.72978 0.7137 0.0
C648 C 1.00146 0.23791 0.81061 0.0
C649 C 1.00921 0.26041 0.77637 0.0
C650 C 0.97309 0.20417 0.80995 0.0
C651 C 0.95182 0.19215 0.7748 0.0
C652 C 0.95839 0.21554 0.74158 0.0
C653 C 0.98678 0.24957 0.74245 0.0
C654 C 0.92578 0.1546 0.76972 0.0
C655 C 0.91269 0.1315 0.8015 0.0
C656 C 0.891 0.09335 0.79548 0.0
C657 C 0.86664 0.07279 0.82613 0.0
C658 C 0.84593 0.03675 0.82139 0.0
C659 C 0.84962 0.02039 0.78615 0.0
H660 H 0.91514 0.09177 0.73752 0.0
C661 C 0.87519 0.0409 0.75639 0.0
C662 C 0.89555 0.07694 0.76089 0.0
H663 H 0.87947 0.02913 0.72941 0.0
H664 H 0.01867 0.24574 0.83698 0.0
H665 H 0.96965 0.1871 0.83591 0.0
H666 H 0.94259 0.20694 0.71403 0.0
H667 H 0.9927 0.26632 0.71538 0.0
H668 H 0.91795 0.14553 0.73833 0.0
H669 H 0.91747 0.14055 0.83317 0.0
H670 H 0.86308 0.08476 0.85342 0.0
H671 H 0.82635 0.02194 0.84477 0.0
loop_
_geom_bond_atom_site_label_1
_geom_bond_atom_site_label_2
_geom_bond_distance
_geom_bond_site_symmetry_2
_ccdc_geom_bond_type
Tb0 C10 2.825 . S
Tb0 O11 2.347 . S
Tb0 O14 2.366 . S
Tb0 O19 2.418 . S
Tb0 O20 2.384 . S
Tb0 O23 2.479 . S
Tb0 O24 2.471 . S
Eu1 O12 2.418 . S
Eu1 O13 2.384 . S
Eu1 O16 2.479 . S
Eu1 O17 2.471 . S
Eu1 O18 2.347 . S
Eu1 O21 2.366 . S
Eu1 C31 2.825 . S
C2 O18 1.259 . S
C2 O19 1.265 . S
C3 O20 1.255 . S
C3 O21 1.265 . S
C4 C6 1.380 . S
C4 C7 1.374 . S
C4 C10 1.507 . S
C5 C6 1.384 . S
C5 C9 1.387 . S
C5 H32 0.930 . S
C6 C4 1.380 . S
C6 C5 1.384 . S
C6 H33 0.931 . S
C7 C4 1.374 . S
C7 C8 1.390 . S
C7 H34 0.930 . S
C8 C7 1.390 . S
C8 C9 1.391 . S
C8 H35 0.930 . S
C9 C5 1.387 . S
C9 C8 1.391 . S
C10 Tb0 2.825 . S
C10 C4 1.507 . S
C10 O23 1.238 . S
C10 O24 1.247 . S
O11 Tb0 2.347 . S
O11 C15 1.259 . S
O12 Eu1 2.418 . S
O12 C15 1.265 . S
O13 Eu1 2.384 . S
O13 C22 1.255 . S
O14 Tb0 2.366 . S
O14 C22 1.265 . S
C15 O11 1.259 . S
C15 O12 1.265 . S
O16 Eu1 2.479 . S
O16 C31 1.238 . S
O17 Eu1 2.471 . S
O17 C31 1.247 . S
O18 Eu1 2.347 . S
O18 C2 1.259 . S
O19 Tb0 2.418 . S
O19 C2 1.265 . S
O20 Tb0 2.384 . S
O20 C3 1.255 . S
O21 Eu1 2.366 . S
O21 C3 1.265 . S
C22 O13 1.255 . S
C22 O14 1.265 . S
O23 Tb0 2.479 . S
O23 C10 1.238 . S
O24 Tb0 2.471 . S
O24 C10 1.247 . S
C25 C28 1.380 . S
C25 C29 1.374 . S
C25 C31 1.507 . S
C26 C27 1.387 . S
C26 C30 1.391 . S
C27 C26 1.387 . S
C27 C28 1.384 . S
C27 H36 0.930 . S
C28 C25 1.380 . S
C28 C27 1.384 . S
C28 H37 0.931 . S
C29 C25 1.374 . S
C29 C30 1.390 . S
C29 H38 0.930 . S
C30 C26 1.391 . S
C30 C29 1.390 . S
C30 H39 0.930 . S
C31 Eu1 2.825 . S
C31 O16 1.238 . S
C31 O17 1.247 . S
C31 C25 1.507 . S
H32 C5 0.930 . S
H33 C6 0.931 . S
H34 C7 0.930 . S
H35 C8 0.930 . S
H36 C27 0.930 . S
H37 C28 0.931 . S
H38 C29 0.930 . S
H39 C30 0.930 . S
Tb40 C50 2.825 . S
Tb40 O51 2.347 . S
Tb40 O54 2.366 . S
Tb40 O59 2.418 . S
Tb40 O60 2.384 . S
Tb40 O63 2.479 . S
Tb40 O64 2.471 . S
Eu41 O52 2.418 . S
Eu41 O53 2.384 . S
Eu41 O56 2.479 . S
Eu41 O57 2.471 . S
Eu41 O58 2.347 . S
Eu41 O61 2.366 . S
Eu41 C71 2.825 . S
C42 O58 1.259 . S
C42 O59 1.265 . S
C43 O60 1.255 . S
C43 O61 1.265 . S
C44 C46 1.380 . S
C44 C47 1.374 . S
C44 C50 1.507 . S
C45 C46 1.384 . S
C45 C49 1.387 . S
C45 H72 0.930 . S
C46 C44 1.380 . S
C46 C45 1.384 . S
C46 H73 0.931 . S
C47 C44 1.374 . S
C47 C48 1.390 . S
C47 H74 0.930 . S
C48 C47 1.390 . S
C48 C49 1.391 . S
C48 H75 0.930 . S
C49 C45 1.387 . S
C49 C48 1.391 . S
C50 Tb40 2.825 . S
C50 C44 1.507 . S
C50 O63 1.238 . S
C50 O64 1.247 . S
O51 Tb40 2.347 . S
O51 C55 1.259 . S
O52 Eu41 2.418 . S
O52 C55 1.265 . S
O53 Eu41 2.384 . S
O53 C62 1.255 . S
O54 Tb40 2.366 . S
O54 C62 1.265 . S
C55 O51 1.259 . S
C55 O52 1.265 . S
O56 Eu41 2.479 . S
O56 C71 1.238 . S
O57 Eu41 2.471 . S
O57 C71 1.247 . S
O58 Eu41 2.347 . S
O58 C42 1.259 . S
O59 Tb40 2.418 . S
O59 C42 1.265 . S
O60 Tb40 2.384 . S
O60 C43 1.255 . S
O61 Eu41 2.366 . S
O61 C43 1.265 . S
C62 O53 1.255 . S
C62 O54 1.265 . S
O63 Tb40 2.479 . S
O63 C50 1.238 . S
O64 Tb40 2.471 . S
O64 C50 1.247 . S
C65 C68 1.380 . S
C65 C69 1.374 . S
C65 C71 1.507 . S
C66 C67 1.387 . S
C66 C70 1.391 . S
C67 C66 1.387 . S
C67 C68 1.384 . S
C67 H76 0.930 . S
C68 C65 1.380 . S
C68 C67 1.384 . S
C68 H77 0.931 . S
C69 C65 1.374 . S
C69 C70 1.390 . S
C69 H78 0.930 . S
C70 C66 1.391 . S
C70 C69 1.390 . S
C70 H79 0.930 . S
C71 Eu41 2.825 . S
C71 O56 1.238 . S
C71 O57 1.247 . S
C71 C65 1.507 . S
H72 C45 0.930 . S
H73 C46 0.931 . S
H74 C47 0.930 . S
H75 C48 0.930 . S
H76 C67 0.930 . S
H77 C68 0.931 . S
H78 C69 0.930 . S
H79 C70 0.930 . S
Tb80 C90 2.825 . S
Tb80 O91 2.347 . S
Tb80 O94 2.366 . S
Tb80 O99 2.418 . S
Tb80 O100 2.384 . S
Tb80 O103 2.479 . S
Tb80 O104 2.471 . S
Eu81 O92 2.418 . S
Eu81 O93 2.384 . S
Eu81 O96 2.479 . S
Eu81 O97 2.471 . S
Eu81 O98 2.347 . S
Eu81 O101 2.366 . S
Eu81 C111 2.825 . S
C82 O98 1.259 . S
C82 O99 1.265 . S
C83 O100 1.255 . S
C83 O101 1.265 . S
C84 C86 1.380 . S
C84 C87 1.374 . S
C84 C90 1.507 . S
C85 C86 1.384 . S
C85 C89 1.387 . S
C85 H112 0.930 . S
C86 C84 1.380 . S
C86 C85 1.384 . S
C86 H113 0.931 . S
C87 C84 1.374 . S
C87 C88 1.390 . S
C87 H114 0.930 . S
C88 C87 1.390 . S
C88 C89 1.391 . S
C88 H115 0.930 . S
C89 C85 1.387 . S
C89 C88 1.391 . S
C90 Tb80 2.825 . S
C90 C84 1.507 . S
C90 O103 1.238 . S
C90 O104 1.247 . S
O91 Tb80 2.347 . S
O91 C95 1.259 . S
O92 Eu81 2.418 . S
O92 C95 1.265 . S
O93 Eu81 2.384 . S
O93 C102 1.255 . S
O94 Tb80 2.366 . S
O94 C102 1.265 . S
C95 O91 1.259 . S
C95 O92 1.265 . S
O96 Eu81 2.479 . S
O96 C111 1.238 . S
O97 Eu81 2.471 . S
O97 C111 1.247 . S
O98 Eu81 2.347 . S
O98 C82 1.259 . S
O99 Tb80 2.418 . S
O99 C82 1.265 . S
O100 Tb80 2.384 . S
O100 C83 1.255 . S
O101 Eu81 2.366 . S
O101 C83 1.265 . S
C102 O93 1.255 . S
C102 O94 1.265 . S
O103 Tb80 2.479 . S
O103 C90 1.238 . S
O104 Tb80 2.471 . S
O104 C90 1.247 . S
C105 C108 1.380 . S
C105 C109 1.374 . S
C105 C111 1.507 . S
C106 C107 1.387 . S
C106 C110 1.391 . S
C107 C106 1.387 . S
C107 C108 1.384 . S
C107 H116 0.930 . S
C108 C105 1.380 . S
C108 C107 1.384 . S
C108 H117 0.931 . S
C109 C105 1.374 . S
C109 C110 1.390 . S
C109 H118 0.930 . S
C110 C106 1.391 . S
C110 C109 1.390 . S
C110 H119 0.930 . S
C111 Eu81 2.825 . S
C111 O96 1.238 . S
C111 O97 1.247 . S
C111 C105 1.507 . S
H112 C85 0.930 . S
H113 C86 0.931 . S
H114 C87 0.930 . S
H115 C88 0.930 . S
H116 C107 0.930 . S
H117 C108 0.931 . S
H118 C109 0.930 . S
H119 C110 0.930 . S
Tb120 C130 2.825 . S
Tb120 O131 2.347 . S
Tb120 O134 2.366 . S
Tb120 O139 2.418 . S
Tb120 O140 2.384 . S
Tb120 O143 2.479 . S
Tb120 O144 2.471 . S
Eu121 O132 2.418 . S
Eu121 O133 2.384 . S
Eu121 O136 2.479 . S
Eu121 O137 2.471 . S
Eu121 O138 2.347 . S
Eu121 O141 2.366 . S
Eu121 C151 2.825 . S
C122 O138 1.259 . S
C122 O139 1.265 . S
C123 O140 1.255 . S
C123 O141 1.265 . S
C124 C126 1.380 . S
C124 C127 1.374 . S
C124 C130 1.507 . S
C125 C126 1.384 . S
C125 C129 1.387 . S
C125 H152 0.930 . S
C126 C124 1.380 . S
C126 C125 1.384 . S
C126 H153 0.931 . S
C127 C124 1.374 . S
C127 C128 1.390 . S
C127 H154 0.930 . S
C128 C127 1.390 . S
C128 C129 1.391 . S
C128 H155 0.930 . S
C129 C125 1.387 . S
C129 C128 1.391 . S
C130 Tb120 2.825 . S
C130 C124 1.507 . S
C130 O143 1.238 . S
C130 O144 1.247 . S
O131 Tb120 2.347 . S
O131 C135 1.259 . S
O132 Eu121 2.418 . S
O132 C135 1.265 . S
O133 Eu121 2.384 . S
O133 C142 1.255 . S
O134 Tb120 2.366 . S
O134 C142 1.265 . S
C135 O131 1.259 . S
C135 O132 1.265 . S
O136 Eu121 2.479 . S
O136 C151 1.238 . S
O137 Eu121 2.471 . S
O137 C151 1.247 . S
O138 Eu121 2.347 . S
O138 C122 1.259 . S
O139 Tb120 2.418 . S
O139 C122 1.265 . S
O140 Tb120 2.384 . S
O140 C123 1.255 . S
O141 Eu121 2.366 . S
O141 C123 1.265 . S
C142 O133 1.255 . S
C142 O134 1.265 . S
O143 Tb120 2.479 . S
O143 C130 1.238 . S
O144 Tb120 2.471 . S
O144 C130 1.247 . S
C145 C148 1.380 . S
C145 C149 1.374 . S
C145 C151 1.507 . S
C146 C147 1.387 . S
C146 C150 1.391 . S
C147 C146 1.387 . S
C147 C148 1.384 . S
C147 H156 0.930 . S
C148 C145 1.380 . S
C148 C147 1.384 . S
C148 H157 0.931 . S
C149 C145 1.374 . S
C149 C150 1.390 . S
C149 H158 0.930 . S
C150 C146 1.391 . S
C150 C149 1.390 . S
C150 H159 0.930 . S
C151 Eu121 2.825 . S
C151 O136 1.238 . S
C151 O137 1.247 . S
C151 C145 1.507 . S
H152 C125 0.930 . S
H153 C126 0.931 . S
H154 C127 0.930 . S
H155 C128 0.930 . S
H156 C147 0.930 . S
H157 C148 0.931 . S
H158 C149 0.930 . S
H159 C150 0.930 . S
Tb160 C170 2.825 . S
Tb160 O171 2.347 . S
Tb160 O174 2.366 . S
Tb160 O179 2.418 . S
Tb160 O180 2.384 . S
Tb160 O183 2.479 . S
Tb160 O184 2.471 . S
Eu161 O172 2.418 . S
Eu161 O173 2.384 . S
Eu161 O176 2.479 . S
Eu161 O177 2.471 . S
Eu161 O178 2.347 . S
Eu161 O181 2.366 . S
Eu161 C191 2.825 . S
C162 O178 1.259 . S
C162 O179 1.265 . S
C163 O180 1.255 . S
C163 O181 1.265 . S
C164 C166 1.380 . S
C164 C167 1.374 . S
C164 C170 1.507 . S
C165 C166 1.384 . S
C165 C169 1.387 . S
C165 H192 0.930 . S
C166 C164 1.380 . S
C166 C165 1.384 . S
C166 H193 0.931 . S
C167 C164 1.374 . S
C167 C168 1.390 . S
C167 H194 0.930 . S
C168 C167 1.390 . S
C168 C169 1.391 . S
C168 H195 0.930 . S
C169 C165 1.387 . S
C169 C168 1.391 . S
C170 Tb160 2.825 . S
C170 C164 1.507 . S
C170 O183 1.238 . S
C170 O184 1.247 . S
O171 Tb160 2.347 . S
O171 C175 1.259 . S
O172 Eu161 2.418 . S
O172 C175 1.265 . S
O173 Eu161 2.384 . S
O173 C182 1.255 . S
O174 Tb160 2.366 . S
O174 C182 1.265 . S
C175 O171 1.259 . S
C175 O172 1.265 . S
O176 Eu161 2.479 . S
O176 C191 1.238 . S
O177 Eu161 2.471 . S
O177 C191 1.247 . S
O178 Eu161 2.347 . S
O178 C162 1.259 . S
O179 Tb160 2.418 . S
O179 C162 1.265 . S
O180 Tb160 2.384 . S
O180 C163 1.255 . S
O181 Eu161 2.366 . S
O181 C163 1.265 . S
C182 O173 1.255 . S
C182 O174 1.265 . S
O183 Tb160 2.479 . S
O183 C170 1.238 . S
O184 Tb160 2.471 . S
O184 C170 1.247 . S
C185 C188 1.380 . S
C185 C189 1.374 . S
C185 C191 1.507 . S
C186 C187 1.387 . S
C186 C190 1.391 . S
C187 C186 1.387 . S
C187 C188 1.384 . S
C187 H196 0.930 . S
C188 C185 1.380 . S
C188 C187 1.384 . S
C188 H197 0.931 . S
C189 C185 1.374 . S
C189 C190 1.390 . S
C189 H198 0.930 . S
C190 C186 1.391 . S
C190 C189 1.390 . S
C190 H199 0.930 . S
C191 Eu161 2.825 . S
C191 O176 1.238 . S
C191 O177 1.247 . S
C191 C185 1.507 . S
H192 C165 0.930 . S
H193 C166 0.931 . S
H194 C167 0.930 . S
H195 C168 0.930 . S
H196 C187 0.930 . S
H197 C188 0.931 . S
H198 C189 0.930 . S
H199 C190 0.930 . S
Tb200 C210 2.825 . S
Tb200 O211 2.347 . S
Tb200 O214 2.366 . S
Tb200 O219 2.418 . S
Tb200 O220 2.384 . S
Tb200 O223 2.479 . S
Tb200 O224 2.471 . S
Eu201 O212 2.418 . S
Eu201 O213 2.384 . S
Eu201 O216 2.479 . S
Eu201 O217 2.471 . S
Eu201 O218 2.347 . S
Eu201 O221 2.366 . S
Eu201 C231 2.825 . S
C202 O218 1.259 . S
C202 O219 1.265 . S
C203 O220 1.255 . S
C203 O221 1.265 . S
C204 C206 1.380 . S
C204 C207 1.374 . S
C204 C210 1.507 . S
C205 C206 1.384 . S
C205 C209 1.387 . S
C205 H232 0.930 . S
C206 C204 1.380 . S
C206 C205 1.384 . S
C206 H233 0.931 . S
C207 C204 1.374 . S
C207 C208 1.390 . S
C207 H234 0.930 . S
C208 C207 1.390 . S
C208 C209 1.391 . S
C208 H235 0.930 . S
C209 C205 1.387 . S
C209 C208 1.391 . S
C210 Tb200 2.825 . S
C210 C204 1.507 . S
C210 O223 1.238 . S
C210 O224 1.247 . S
O211 Tb200 2.347 . S
O211 C215 1.259 . S
O212 Eu201 2.418 . S
O212 C215 1.265 . S
O213 Eu201 2.384 . S
O213 C222 1.255 . S
O214 Tb200 2.366 . S
O214 C222 1.265 . S
C215 O211 1.259 . S
C215 O212 1.265 . S
O216 Eu201 2.479 . S
O216 C231 1.238 . S
O217 Eu201 2.471 . S
O217 C231 1.247 . S
O218 Eu201 2.347 . S
O218 C202 1.259 . S
O219 Tb200 2.418 . S
O219 C202 1.265 . S
O220 Tb200 2.384 . S
O220 C203 1.255 . S
O221 Eu201 2.366 . S
O221 C203 1.265 . S
C222 O213 1.255 . S
C222 O214 1.265 . S
O223 Tb200 2.479 . S
O223 C210 1.238 . S
O224 Tb200 2.471 . S
O224 C210 1.247 . S
C225 C228 1.380 . S
C225 C229 1.374 . S
C225 C231 1.507 . S
C226 C227 1.387 . S
C226 C230 1.391 . S
C227 C226 1.387 . S
C227 C228 1.384 . S
C227 H236 0.930 . S
C228 C225 1.380 . S
C228 C227 1.384 . S
C228 H237 0.931 . S
C229 C225 1.374 . S
C229 C230 1.390 . S
C229 H238 0.930 . S
C230 C226 1.391 . S
C230 C229 1.390 . S
C230 H239 0.930 . S
C231 Eu201 2.825 . S
C231 O216 1.238 . S
C231 O217 1.247 . S
C231 C225 1.507 . S
H232 C205 0.930 . S
H233 C206 0.931 . S
H234 C207 0.930 . S
H235 C208 0.930 . S
H236 C227 0.930 . S
H237 C228 0.931 . S
H238 C229 0.930 . S
H239 C230 0.930 . S
C240 C241 1.386 . S
C240 C242 1.383 . S
C240 H256 0.951 . S
C241 C240 1.386 . S
C241 C245 1.383 . S
C242 C240 1.383 . S
C242 C243 1.402 . S
C242 H257 0.951 . S
C243 C242 1.402 . S
C243 C244 1.375 . S
C243 C246 1.481 1_565 S
C244 C243 1.375 . S
C244 C245 1.367 . S
C244 H258 0.951 . S
C245 C241 1.383 . S
C245 C244 1.367 . S
C245 H259 0.950 . S
C246 C243 1.481 1_545 S
C246 C247 1.302 . S
C246 H260 0.950 . S
C247 C246 1.302 . S
C247 C248 1.472 1_556 S
C247 H261 0.954 . S
C248 C247 1.472 1_554 S
C248 C249 1.375 . S
C248 C254 1.404 . S
C249 C248 1.375 . S
C249 C250 1.369 . S
C249 H262 0.950 . S
C250 C249 1.369 . S
C250 C251 1.392 . S
C250 H263 0.951 . S
C251 C250 1.392 . S
C251 C253 1.384 . S
H252 C254 0.949 . S
C253 C251 1.384 . S
C253 C254 1.385 . S
C253 H255 0.950 . S
C254 C248 1.404 . S
C254 H252 0.949 . S
C254 C253 1.385 . S
H255 C253 0.950 . S
H256 C240 0.951 . S
H257 C242 0.951 . S
H258 C244 0.951 . S
H259 C245 0.950 . S
H260 C246 0.950 . S
H261 C247 0.954 . S
H262 C249 0.950 . S
H263 C250 0.951 . S
C264 C265 1.386 . S
C264 C266 1.383 . S
C264 H280 0.951 . S
C265 C264 1.386 . S
C265 C269 1.383 . S
C266 C264 1.383 . S
C266 C267 1.402 . S
C266 H281 0.951 . S
C267 C266 1.402 . S
C267 C268 1.375 . S
C267 C270 1.481 . S
C268 C267 1.375 . S
C268 C269 1.367 . S
C268 H282 0.951 . S
C269 C265 1.383 . S
C269 C268 1.367 . S
C269 H283 0.950 . S
C270 C267 1.481 . S
C270 C271 1.297 . S
C270 H284 0.950 . S
C271 C270 1.297 . S
C271 C272 1.479 . S
C271 H285 0.950 . S
C272 C271 1.479 . S
C272 C273 1.375 . S
C272 C278 1.404 . S
C273 C272 1.375 . S
C273 C274 1.369 . S
C273 H286 0.950 . S
C274 C273 1.369 . S
C274 C275 1.392 . S
C274 H287 0.951 . S
C275 C274 1.392 . S
C275 C277 1.384 . S
H276 C278 0.949 . S
C277 C275 1.384 . S
C277 C278 1.385 . S
C277 H279 0.950 . S
C278 C272 1.404 . S
C278 H276 0.949 . S
C278 C277 1.385 . S
H279 C277 0.950 . S
H280 C264 0.951 . S
H281 C266 0.951 . S
H282 C268 0.951 . S
H283 C269 0.950 . S
H284 C270 0.950 . S
H285 C271 0.950 . S
H286 C273 0.950 . S
H287 C274 0.951 . S
C288 C289 1.386 . S
C288 C290 1.383 . S
C288 H304 0.951 . S
C289 C288 1.386 . S
C289 C293 1.383 . S
C290 C288 1.383 . S
C290 C291 1.402 . S
C290 H305 0.942 1_655 S
C291 C290 1.402 . S
C291 C292 1.375 . S
C291 C294 1.481 . S
C292 C291 1.375 . S
C292 C293 1.367 . S
C292 H306 0.951 . S
C293 C289 1.383 . S
C293 C292 1.367 . S
C293 H307 0.950 . S
C294 C291 1.481 . S
C294 C295 1.298 1_655 S
C294 H308 0.950 1_554 S
C295 C294 1.298 1_455 S
C295 C296 1.468 1_554 S
C295 H309 0.962 . S
C296 C295 1.468 1_556 S
C296 C297 1.375 . S
C296 C302 1.404 . S
C297 C296 1.375 . S
C297 C298 1.369 . S
C297 H310 0.950 . S
C298 C297 1.369 . S
C298 C299 1.392 . S
C298 H311 0.951 . S
C299 C298 1.392 . S
C299 C301 1.384 . S
H300 C302 0.949 . S
C301 C299 1.384 . S
C301 C302 1.385 . S
C301 H303 0.950 . S
C302 C296 1.404 . S
C302 H300 0.949 . S
C302 C301 1.385 . S
H303 C301 0.950 . S
H304 C288 0.951 . S
H305 C290 0.942 1_455 S
H306 C292 0.951 . S
H307 C293 0.950 . S
H308 C294 0.950 1_556 S
H309 C295 0.962 . S
H310 C297 0.950 . S
H311 C298 0.951 . S
C312 C313 1.386 . S
C312 C314 1.383 . S
C312 H328 0.951 . S
C313 C312 1.386 . S
C313 C317 1.383 . S
C314 C312 1.383 . S
C314 C315 1.402 . S
C314 H329 0.951 . S
C315 C314 1.402 . S
C315 C316 1.375 . S
C315 C318 1.481 . S
C316 C315 1.375 . S
C316 C317 1.367 . S
C316 H330 0.951 . S
C317 C313 1.383 . S
C317 C316 1.367 . S
C317 H331 0.950 . S
C318 C315 1.481 . S
C318 C319 1.297 . S
C318 H332 0.950 1_545 S
C319 C318 1.297 . S
C319 C320 1.479 1_545 S
C319 H333 0.950 . S
C320 C319 1.479 1_565 S
C320 C321 1.375 . S
C320 C326 1.404 . S
C321 C320 1.375 . S
C321 C322 1.369 . S
C321 H334 0.950 . S
C322 C321 1.369 . S
C322 C323 1.392 . S
C322 H335 0.951 . S
C323 C322 1.392 . S
C323 C325 1.384 . S
H324 C326 0.949 . S
C325 C323 1.384 . S
C325 C326 1.385 . S
C325 H327 0.950 . S
C326 C320 1.404 . S
C326 H324 0.949 . S
C326 C325 1.385 . S
H327 C325 0.950 . S
H328 C312 0.951 . S
H329 C314 0.951 . S
H330 C316 0.951 . S
H331 C317 0.950 . S
H332 C318 0.950 1_565 S
H333 C319 0.950 . S
H334 C321 0.950 . S
H335 C322 0.951 . S
C336 C337 1.386 . S
C336 C338 1.383 . S
C336 H352 0.951 . S
C337 C336 1.386 . S
C337 C341 1.383 . S
C338 C336 1.383 . S
C338 C339 1.402 . S
C338 H353 0.951 . S
C339 C338 1.402 . S
C339 C340 1.375 . S
C339 C342 1.481 . S
C340 C339 1.375 . S
C340 C341 1.367 . S
C340 H354 0.951 . S
C341 C337 1.383 . S
C341 C340 1.367 . S
C341 H355 0.950 . S
C342 C339 1.481 . S
C342 C343 1.297 . S
C342 H356 0.950 1_556 S
C343 C342 1.297 . S
C343 C344 1.479 1_556 S
C343 H357 0.950 . S
C344 C343 1.479 1_554 S
C344 C345 1.375 . S
C344 C350 1.404 . S
C345 C344 1.375 . S
C345 C346 1.369 . S
C345 H358 0.950 . S
C346 C345 1.369 . S
C346 C347 1.392 . S
C346 H359 0.951 . S
C347 C346 1.392 . S
C347 C349 1.384 . S
H348 C350 0.949 . S
C349 C347 1.384 . S
C349 C350 1.385 . S
C349 H351 0.950 . S
C350 C344 1.404 . S
C350 H348 0.949 . S
C350 C349 1.385 . S
H351 C349 0.950 . S
H352 C336 0.951 . S
H353 C338 0.951 . S
H354 C340 0.951 . S
H355 C341 0.950 . S
H356 C342 0.950 1_554 S
H357 C343 0.950 . S
H358 C345 0.950 . S
H359 C346 0.951 . S
C360 C361 1.386 . S
C360 C362 1.383 . S
C360 H376 0.951 . S
C361 C360 1.386 . S
C361 C365 1.383 . S
C362 C360 1.383 . S
C362 C363 1.402 . S
C362 H377 0.951 . S
C363 C362 1.402 . S
C363 C364 1.375 . S
C363 C366 1.481 1_655 S
C364 C363 1.375 . S
C364 C365 1.367 . S
C364 H378 0.951 . S
C365 C361 1.383 . S
C365 C364 1.367 . S
C365 H379 0.950 . S
C366 C363 1.481 1_455 S
C366 C367 1.297 . S
C366 H380 0.950 . S
C367 C366 1.297 . S
C367 C368 1.479 . S
C367 H381 0.950 . S
C368 C367 1.479 . S
C368 C369 1.375 . S
C368 C374 1.404 . S
C369 C368 1.375 . S
C369 C370 1.369 . S
C369 H382 0.950 . S
C370 C369 1.369 . S
C370 C371 1.392 . S
C370 H383 0.951 . S
C371 C370 1.392 . S
C371 C373 1.384 . S
H372 C374 0.949 . S
C373 C371 1.384 . S
C373 C374 1.385 . S
C373 H375 0.950 . S
C374 C368 1.404 . S
C374 H372 0.949 . S
C374 C373 1.385 . S
H375 C373 0.950 . S
H376 C360 0.951 . S
H377 C362 0.951 . S
H378 C364 0.951 . S
H379 C365 0.950 . S
H380 C366 0.950 . S
H381 C367 0.950 . S
H382 C369 0.950 . S
H383 C370 0.951 . S
C384 C385 1.386 . S
C384 C386 1.383 . S
C384 H400 0.951 . S
C385 C384 1.386 . S
C385 C389 1.383 . S
C386 C384 1.383 . S
C386 C387 1.402 . S
C386 H401 0.951 . S
C387 C386 1.402 . S
C387 C388 1.375 . S
C387 C390 1.481 . S
C388 C387 1.375 . S
C388 C389 1.367 . S
C388 H402 0.951 . S
C389 C385 1.383 . S
C389 C388 1.367 . S
C389 H403 0.950 . S
C390 C387 1.481 . S
C390 C391 1.297 . S
C390 H404 0.950 . S
C391 C390 1.297 . S
C391 C392 1.479 . S
C391 H405 0.950 . S
C392 C391 1.479 . S
C392 C393 1.375 . S
C392 C398 1.404 . S
C393 C392 1.375 . S
C393 C394 1.369 . S
C393 H406 0.950 . S
C394 C393 1.369 . S
C394 C395 1.392 . S
C394 H407 0.951 . S
C395 C394 1.392 . S
C395 C397 1.384 . S
H396 C398 0.949 . S
C397 C395 1.384 . S
C397 C398 1.385 . S
C397 H399 0.950 . S
C398 C392 1.404 . S
C398 H396 0.949 . S
C398 C397 1.385 . S
H399 C397 0.950 . S
H400 C384 0.951 . S
H401 C386 0.951 . S
H402 C388 0.951 . S
H403 C389 0.950 . S
H404 C390 0.950 . S
H405 C391 0.950 . S
H406 C393 0.950 . S
H407 C394 0.951 . S
C408 C409 1.386 . S
C408 C410 1.383 . S
C408 H424 0.951 . S
C409 C408 1.386 . S
C409 C413 1.383 . S
C410 C408 1.383 . S
C410 C411 1.402 . S
C410 H425 0.951 . S
C411 C410 1.402 . S
C411 C412 1.375 . S
C411 C414 1.481 . S
C412 C411 1.375 . S
C412 C413 1.367 . S
C412 H426 0.951 . S
C413 C409 1.383 . S
C413 C412 1.367 . S
C413 H427 0.950 . S
C414 C411 1.481 . S
C414 C415 1.297 . S
C414 H428 0.950 . S
C415 C414 1.297 . S
C415 C416 1.479 . S
C415 H429 0.950 . S
C416 C415 1.479 . S
C416 C417 1.375 . S
C416 C422 1.404 . S
C417 C416 1.375 . S
C417 C418 1.369 . S
C417 H430 0.950 . S
C418 C417 1.369 . S
C418 C419 1.392 . S
C418 H431 0.951 . S
C419 C418 1.392 . S
C419 C421 1.384 . S
H420 C422 0.949 . S
C421 C419 1.384 . S
C421 C422 1.385 . S
C421 H423 0.950 . S
C422 C416 1.404 . S
C422 H420 0.949 . S
C422 C421 1.385 . S
H423 C421 0.950 . S
H424 C408 0.951 . S
H425 C410 0.951 . S
H426 C412 0.951 . S
H427 C413 0.950 . S
H428 C414 0.950 . S
H429 C415 0.950 . S
H430 C417 0.950 . S
H431 C418 0.951 . S
C432 C433 1.386 . S
C432 C434 1.383 . S
C432 H448 0.951 . S
C433 C432 1.386 . S
C433 C437 1.383 . S
C434 C432 1.383 . S
C434 C435 1.402 . S
C434 H449 0.951 . S
C435 C434 1.402 . S
C435 C436 1.375 . S
C435 C438 1.481 . S
C436 C435 1.375 . S
C436 C437 1.367 . S
C436 H450 0.951 . S
C437 C433 1.383 . S
C437 C436 1.367 . S
C437 H451 0.950 . S
C438 C435 1.481 . S
C438 C439 1.297 . S
C438 H452 0.950 . S
C439 C438 1.297 . S
C439 C440 1.479 . S
C439 H453 0.950 . S
C440 C439 1.479 . S
C440 C441 1.375 . S
C440 C446 1.404 . S
C441 C440 1.375 . S
C441 C442 1.369 . S
C441 H454 0.950 . S
C442 C441 1.369 . S
C442 C443 1.392 . S
C442 H455 0.951 . S
C443 C442 1.392 . S
C443 C445 1.384 . S
H444 C446 0.949 . S
C445 C443 1.384 . S
C445 C446 1.385 . S
C445 H447 0.950 . S
C446 C440 1.404 . S
C446 H444 0.949 . S
C446 C445 1.385 . S
H447 C445 0.950 . S
H448 C432 0.951 . S
H449 C434 0.951 . S
H450 C436 0.951 . S
H451 C437 0.950 . S
H452 C438 0.950 . S
H453 C439 0.950 . S
H454 C441 0.950 . S
H455 C442 0.951 . S
C456 C457 1.386 . S
C456 C458 1.383 . S
C456 H472 0.951 . S
C457 C456 1.386 . S
C457 C461 1.383 . S
C458 C456 1.383 . S
C458 C459 1.402 . S
C458 H473 0.951 . S
C459 C458 1.402 . S
C459 C460 1.375 . S
C459 C462 1.481 . S
C460 C459 1.375 . S
C460 C461 1.367 . S
C460 H474 0.951 . S
C461 C457 1.383 . S
C461 C460 1.367 . S
C461 H475 0.950 . S
C462 C459 1.481 . S
C462 C463 1.297 . S
C462 H476 0.950 . S
C463 C462 1.297 . S
C463 C464 1.479 . S
C463 H477 0.950 . S
C464 C463 1.479 . S
C464 C465 1.375 . S
C464 C470 1.404 . S
C465 C464 1.375 . S
C465 C466 1.369 . S
C465 H478 0.950 . S
C466 C465 1.369 . S
C466 C467 1.392 . S
C466 H479 0.951 . S
C467 C466 1.392 . S
C467 C469 1.384 . S
H468 C470 0.949 . S
C469 C467 1.384 . S
C469 C470 1.385 . S
C469 H471 0.950 . S
C470 C464 1.404 . S
C470 H468 0.949 . S
C470 C469 1.385 . S
H471 C469 0.950 . S
H472 C456 0.951 . S
H473 C458 0.951 . S
H474 C460 0.951 . S
H475 C461 0.950 . S
H476 C462 0.950 . S
H477 C463 0.950 . S
H478 C465 0.950 . S
H479 C466 0.951 . S
C480 C481 1.386 . S
C480 C482 1.383 . S
C480 H496 0.951 . S
C481 C480 1.386 . S
C481 C485 1.383 . S
C482 C480 1.383 . S
C482 C483 1.402 . S
C482 H497 0.951 . S
C483 C482 1.402 . S
C483 C484 1.375 . S
C483 C486 1.481 . S
C484 C483 1.375 . S
C484 C485 1.367 . S
C484 H498 0.951 . S
C485 C481 1.383 . S
C485 C484 1.367 . S
C485 H499 0.950 . S
C486 C483 1.481 . S
C486 C487 1.297 . S
C486 H500 0.950 . S
C487 C486 1.297 . S
C487 C488 1.479 . S
C487 H501 0.950 . S
C488 C487 1.479 . S
C488 C489 1.375 . S
C488 C494 1.404 . S
C489 C488 1.375 . S
C489 C490 1.369 . S
C489 H502 0.950 . S
C490 C489 1.369 . S
C490 C491 1.392 . S
C490 H503 0.951 . S
C491 C490 1.392 . S
C491 C493 1.384 . S
H492 C494 0.949 . S
C493 C491 1.384 . S
C493 C494 1.385 . S
C493 H495 0.950 . S
C494 C488 1.404 . S
C494 H492 0.949 . S
C494 C493 1.385 . S
H495 C493 0.950 . S
H496 C480 0.951 . S
H497 C482 0.951 . S
H498 C484 0.951 . S
H499 C485 0.950 . S
H500 C486 0.950 . S
H501 C487 0.950 . S
H502 C489 0.950 . S
H503 C490 0.951 . S
C504 C505 1.386 . S
C504 C506 1.383 . S
C504 H520 0.951 . S
C505 C504 1.386 . S
C505 C509 1.383 . S
C506 C504 1.383 . S
C506 C507 1.402 . S
C506 H521 0.951 . S
C507 C506 1.402 . S
C507 C508 1.375 . S
C507 C510 1.481 . S
C508 C507 1.375 . S
C508 C509 1.367 . S
C508 H522 0.951 . S
C509 C505 1.383 . S
C509 C508 1.367 . S
C509 H523 0.950 . S
C510 C507 1.481 . S
C510 C511 1.297 . S
C510 H524 0.950 . S
C511 C510 1.297 . S
C511 C512 1.479 . S
C511 H525 0.950 . S
C512 C511 1.479 . S
C512 C513 1.375 . S
C512 C518 1.404 . S
C513 C512 1.375 . S
C513 C514 1.369 . S
C513 H526 0.950 . S
C514 C513 1.369 . S
C514 C515 1.392 . S
C514 H527 0.951 . S
C515 C514 1.392 . S
C515 C517 1.384 . S
H516 C518 0.949 . S
C517 C515 1.384 . S
C517 C518 1.385 . S
C517 H519 0.950 . S
C518 C512 1.404 . S
C518 H516 0.949 . S
C518 C517 1.385 . S
H519 C517 0.950 . S
H520 C504 0.951 . S
H521 C506 0.951 . S
H522 C508 0.951 . S
H523 C509 0.950 . S
H524 C510 0.950 . S
H525 C511 0.950 . S
H526 C513 0.950 . S
H527 C514 0.951 . S
C528 C529 1.386 . S
C528 C530 1.383 . S
C528 H544 0.951 . S
C529 C528 1.386 . S
C529 C533 1.383 . S
C530 C528 1.383 . S
C530 C531 1.402 . S
C530 H545 0.951 . S
C531 C530 1.402 . S
C531 C532 1.375 . S
C531 C534 1.481 . S
C532 C531 1.375 . S
C532 C533 1.367 . S
C532 H546 0.951 . S
C533 C529 1.383 . S
C533 C532 1.367 . S
C533 H547 0.950 . S
C534 C531 1.481 . S
C534 C535 1.297 . S
C534 H548 0.950 . S
C535 C534 1.297 . S
C535 C536 1.479 . S
C535 H549 0.950 . S
C536 C535 1.479 . S
C536 C537 1.375 . S
C536 C542 1.404 1_455 S
C537 C536 1.375 . S
C537 C538 1.369 . S
C537 H550 0.950 . S
C538 C537 1.369 . S
C538 C539 1.392 1_455 S
C538 H551 0.951 . S
C539 C538 1.392 1_655 S
C539 C541 1.384 . S
H540 C542 0.949 . S
C541 C539 1.384 . S
C541 C542 1.385 . S
C541 H543 0.950 . S
C542 C536 1.404 1_655 S
C542 H540 0.949 . S
C542 C541 1.385 . S
H543 C541 0.950 . S
H544 C528 0.951 . S
H545 C530 0.951 . S
H546 C532 0.951 . S
H547 C533 0.950 . S
H548 C534 0.950 . S
H549 C535 0.950 . S
H550 C537 0.950 . S
H551 C538 0.951 . S
C552 C553 1.386 1_455 S
C552 C554 1.383 . S
C552 H568 0.951 . S
C553 C552 1.386 1_655 S
C553 C557 1.383 1_655 S
C554 C552 1.383 . S
C554 C555 1.402 . S
C554 H569 0.951 . S
C555 C554 1.402 . S
C555 C556 1.375 . S
C555 C558 1.481 . S
C556 C555 1.375 . S
C556 C557 1.367 . S
C556 H570 0.951 . S
C557 C553 1.383 1_455 S
C557 C556 1.367 . S
C557 H571 0.950 1_455 S
C558 C555 1.481 . S
C558 C559 1.297 . S
C558 H572 0.950 . S
C559 C558 1.297 . S
C559 C560 1.479 . S
C559 H573 0.950 . S
C560 C559 1.479 . S
C560 C561 1.375 1_565 S
C560 C566 1.404 . S
C561 C560 1.375 1_545 S
C561 C562 1.369 . S
C561 H574 0.950 . S
C562 C561 1.369 . S
C562 C563 1.392 . S
C562 H575 0.951 . S
C563 C562 1.392 . S
C563 C565 1.384 1_545 S
H564 C566 0.949 . S
C565 C563 1.384 1_565 S
C565 C566 1.385 . S
C565 H567 0.950 . S
C566 C560 1.404 . S
C566 H564 0.949 . S
C566 C565 1.385 . S
H567 C565 0.950 . S
H568 C552 0.951 . S
H569 C554 0.951 . S
H570 C556 0.951 . S
H571 C557 0.950 1_655 S
H572 C558 0.950 . S
H573 C559 0.950 . S
H574 C561 0.950 . S
H575 C562 0.951 . S
C576 C577 1.386 1_565 S
C576 C578 1.383 . S
C576 H592 0.951 . S
C577 C576 1.386 1_545 S
C577 C581 1.383 1_545 S
C578 C576 1.383 . S
C578 C579 1.402 . S
C578 H593 0.951 . S
C579 C578 1.402 . S
C579 C580 1.375 . S
C579 C582 1.481 . S
C580 C579 1.375 . S
C580 C581 1.367 . S
C580 H594 0.951 . S
C581 C577 1.383 1_565 S
C581 C580 1.367 . S
C581 H595 0.950 1_565 S
C582 C579 1.481 . S
C582 C583 1.297 . S
C582 H596 0.950 . S
C583 C582 1.297 . S
C583 C584 1.479 . S
C583 H597 0.950 . S
C584 C583 1.479 . S
C584 C585 1.375 . S
C584 C590 1.404 . S
C585 C584 1.375 . S
C585 C586 1.369 . S
C585 H598 0.950 . S
C586 C585 1.369 . S
C586 C587 1.392 . S
C586 H599 0.951 . S
C587 C586 1.392 . S
C587 C589 1.384 . S
H588 C590 0.949 . S
C589 C587 1.384 . S
C589 C590 1.385 . S
C589 H591 0.950 . S
C590 C584 1.404 . S
C590 H588 0.949 . S
C590 C589 1.385 . S
H591 C589 0.950 . S
H592 C576 0.951 . S
H593 C578 0.951 . S
H594 C580 0.951 . S
H595 C581 0.950 1_545 S
H596 C582 0.950 . S
H597 C583 0.950 . S
H598 C585 0.950 . S
H599 C586 0.951 . S
C600 C601 1.386 . S
C600 C602 1.383 . S
C600 H616 0.951 . S
C601 C600 1.386 . S
C601 C605 1.383 . S
C602 C600 1.383 . S
C602 C603 1.402 . S
C602 H617 0.951 . S
C603 C602 1.402 . S
C603 C604 1.375 . S
C603 C606 1.481 . S
C604 C603 1.375 . S
C604 C605 1.367 . S
C604 H618 0.951 . S
C605 C601 1.383 . S
C605 C604 1.367 . S
C605 H619 0.950 . S
C606 C603 1.481 . S
C606 C607 1.297 . S
C606 H620 0.950 . S
C607 C606 1.297 . S
C607 C608 1.479 . S
C607 H621 0.950 . S
C608 C607 1.479 . S
C608 C609 1.375 . S
C608 C614 1.404 1_545 S
C609 C608 1.375 . S
C609 C610 1.369 . S
C609 H622 0.950 . S
C610 C609 1.369 . S
C610 C611 1.392 1_545 S
C610 H623 0.951 . S
C611 C610 1.392 1_565 S
C611 C613 1.384 . S
H612 C614 0.949 . S
C613 C611 1.384 . S
C613 C614 1.385 . S
C613 H615 0.950 . S
C614 C608 1.404 1_565 S
C614 H612 0.949 . S
C614 C613 1.385 . S
H615 C613 0.950 . S
H616 C600 0.951 . S
H617 C602 0.951 . S
H618 C604 0.951 . S
H619 C605 0.950 . S
H620 C606 0.950 . S
H621 C607 0.950 . S
H622 C609 0.950 . S
H623 C610 0.951 . S
C624 C625 1.386 1_655 S
C624 C626 1.383 . S
C624 H640 0.951 . S
C625 C624 1.386 1_455 S
C625 C629 1.383 1_455 S
C626 C624 1.383 . S
C626 C627 1.402 . S
C626 H641 0.951 . S
C627 C626 1.402 . S
C627 C628 1.375 . S
C627 C630 1.481 . S
C628 C627 1.375 . S
C628 C629 1.367 . S
C628 H642 0.951 . S
C629 C625 1.383 1_655 S
C629 C628 1.367 . S
C629 H643 0.950 1_655 S
C630 C627 1.481 . S
C630 C631 1.297 . S
C630 H644 0.950 . S
C631 C630 1.297 . S
C631 C632 1.479 . S
C631 H645 0.950 . S
C632 C631 1.479 . S
C632 C633 1.375 . S
C632 C638 1.404 . S
C633 C632 1.375 . S
C633 C634 1.369 . S
C633 H646 0.950 . S
C634 C633 1.369 . S
C634 C635 1.392 . S
C634 H647 0.951 . S
C635 C634 1.392 . S
C635 C637 1.384 . S
H636 C638 0.949 . S
C637 C635 1.384 . S
C637 C638 1.385 . S
C637 H639 0.950 . S
C638 C632 1.404 . S
C638 H636 0.949 . S
C638 C637 1.385 . S
H639 C637 0.950 . S
H640 C624 0.951 . S
H641 C626 0.951 . S
H642 C628 0.951 . S
H643 C629 0.950 1_455 S
H644 C630 0.950 . S
H645 C631 0.950 . S
H646 C633 0.950 . S
H647 C634 0.951 . S
C648 C649 1.386 1_655 S
C648 C650 1.383 . S
C648 H664 0.951 . S
C649 C648 1.386 1_455 S
C649 C653 1.383 . S
C650 C648 1.383 . S
C650 C651 1.402 . S
C650 H665 0.951 . S
C651 C650 1.402 . S
C651 C652 1.375 1_655 S
C651 C654 1.481 . S
C652 C651 1.375 1_455 S
C652 C653 1.367 . S
C652 H666 0.951 . S
C653 C649 1.383 . S
C653 C652 1.367 . S
C653 H667 0.950 . S
C654 C651 1.481 . S
C654 C655 1.297 . S
C654 H668 0.950 . S
C655 C654 1.297 . S
C655 C656 1.479 . S
C655 H669 0.950 . S
C656 C655 1.479 . S
C656 C657 1.375 . S
C656 C662 1.404 . S
C657 C656 1.375 . S
C657 C658 1.369 . S
C657 H670 0.950 . S
C658 C657 1.369 . S
C658 C659 1.392 1_545 S
C658 H671 0.951 . S
C659 C658 1.392 1_565 S
C659 C661 1.384 1_565 S
H660 C662 0.949 . S
C661 C659 1.384 1_545 S
C661 C662 1.385 . S
C661 H663 0.950 1_545 S
C662 C656 1.404 . S
C662 H660 0.949 . S
C662 C661 1.385 . S
H663 C661 0.950 1_565 S
H664 C648 0.951 . S
H665 C650 0.951 . S
H666 C652 0.951 . S
H667 C653 0.950 . S
H668 C654 0.950 . S
H669 C655 0.950 . S
H670 C657 0.950 . S
H671 C658 0.951 . S
C241 C175 2.383 . S
C251 C15 2.417 . S
C265 C202 2.426 . S
C275 C42 2.398 . S
C289 C95 2.412 . S
C299 C135 2.424 . S
C313 C2 2.422 . S
C323 C162 2.393 . S
C337 C215 2.408 . S
C347 C55 2.427 . S
C361 C82 2.428 . S
C371 C122 2.430 . S
C385 C26 1.916 . S
C395 C83 1.882 . S
C409 C66 1.896 . S
C419 C3 1.837 . S
C433 C106 1.896 . S
C443 C43 1.838 . S
C457 C146 1.917 . S
C467 C163 1.875 . S
C481 C186 1.915 . S
C491 C203 1.885 . S
C505 C123 1.845 . S
C515 C226 1.896 . S
C529 C9 1.098 . S
C539 C102 1.149 . S
C553 C49 1.051 . S
C563 C22 1.100 . S
C577 C89 1.116 . S
C587 C62 1.130 . S
C601 C129 1.128 . S
C611 C182 1.103 . S
C625 C169 1.122 . S
C635 C222 1.120 . S
C649 C142 1.128 . S
C659 C209 0.996 . S
