# Generated by pormake.
# Topology wfx, (7)-cn, num edge types: 1
# Building blocks:
#     Node 0, Type 0, BuildingBlock: HICVOG_clean_sbu_0, # of connection points: 7
#     Node 1, Type 0, BuildingBlock: HICVOG_clean_sbu_0, # of connection points: 7
#     Node 2, Type 0, BuildingBlock: HICVOG_clean_sbu_0, # of connection points: 7
#     Node 3, Type 0, BuildingBlock: HICVOG_clean_sbu_0, # of connection points: 7
#     Node 4, Type 0, BuildingBlock: HICVOG_clean_sbu_0, # of connection points: 7
#     Node 5, Type 0, BuildingBlock: HICVOG_clean_sbu_0, # of connection points: 7
#     Node 6, Type 0, BuildingBlock: HICVOG_clean_sbu_0, # of connection points: 7
#     Node 7, Type 0, BuildingBlock: HICVOG_clean_sbu_0, # of connection points: 7
#     Node 8, Type 0, BuildingBlock: HICVOG_clean_sbu_0, # of connection points: 7
#     Node 9, Type 0, BuildingBlock: HICVOG_clean_sbu_0, # of connection points: 7
#     Node 10, Type 0, BuildingBlock: HICVOG_clean_sbu_0, # of connection points: 7
#     Node 11, Type 0, BuildingBlock: HICVOG_clean_sbu_0, # of connection points: 7
#     Node 12, Type 0, BuildingBlock: HICVOG_clean_sbu_0, # of connection points: 7
#     Node 13, Type 0, BuildingBlock: HICVOG_clean_sbu_0, # of connection points: 7
#     Node 14, Type 0, BuildingBlock: HICVOG_clean_sbu_0, # of connection points: 7
#     Node 15, Type 0, BuildingBlock: HICVOG_clean_sbu_0, # of connection points: 7
#     Edge 16, Type (0, 0), BuildingBlock: UVAHIK_clean_linker_0, # of connection points: 2
#     Edge 17, Type (0, 0), BuildingBlock: UVAHIK_clean_linker_0, # of connection points: 2
#     Edge 18, Type (0, 0), BuildingBlock: UVAHIK_clean_linker_0, # of connection points: 2
#     Edge 19, Type (0, 0), BuildingBlock: UVAHIK_clean_linker_0, # of connection points: 2
#     Edge 20, Type (0, 0), BuildingBlock: UVAHIK_clean_linker_0, # of connection points: 2
#     Edge 21, Type (0, 0), BuildingBlock: UVAHIK_clean_linker_0, # of connection points: 2
#     Edge 22, Type (0, 0), BuildingBlock: UVAHIK_clean_linker_0, # of connection points: 2
#     Edge 23, Type (0, 0), BuildingBlock: UVAHIK_clean_linker_0, # of connection points: 2
#     Edge 24, Type (0, 0), BuildingBlock: UVAHIK_clean_linker_0, # of connection points: 2
#     Edge 25, Type (0, 0), BuildingBlock: UVAHIK_clean_linker_0, # of connection points: 2
#     Edge 26, Type (0, 0), BuildingBlock: UVAHIK_clean_linker_0, # of connection points: 2
#     Edge 27, Type (0, 0), BuildingBlock: UVAHIK_clean_linker_0, # of connection points: 2
#     Edge 28, Type (0, 0), BuildingBlock: UVAHIK_clean_linker_0, # of connection points: 2
#     Edge 29, Type (0, 0), BuildingBlock: UVAHIK_clean_linker_0, # of connection points: 2
#     Edge 30, Type (0, 0), BuildingBlock: UVAHIK_clean_linker_0, # of connection points: 2
#     Edge 31, Type (0, 0), BuildingBlock: UVAHIK_clean_linker_0, # of connection points: 2
#     Edge 32, Type (0, 0), BuildingBlock: UVAHIK_clean_linker_0, # of connection points: 2
#     Edge 33, Type (0, 0), BuildingBlock: UVAHIK_clean_linker_0, # of connection points: 2
#     Edge 34, Type (0, 0), BuildingBlock: UVAHIK_clean_linker_0, # of connection points: 2
#     Edge 35, Type (0, 0), BuildingBlock: UVAHIK_clean_linker_0, # of connection points: 2
#     Edge 36, Type (0, 0), BuildingBlock: UVAHIK_clean_linker_0, # of connection points: 2
#     Edge 37, Type (0, 0), BuildingBlock: UVAHIK_clean_linker_0, # of connection points: 2
#     Edge 38, Type (0, 0), BuildingBlock: UVAHIK_clean_linker_0, # of connection points: 2
#     Edge 39, Type (0, 0), BuildingBlock: UVAHIK_clean_linker_0, # of connection points: 2
#     Edge 40, Type (0, 0), BuildingBlock: UVAHIK_clean_linker_0, # of connection points: 2
#     Edge 41, Type (0, 0), BuildingBlock: UVAHIK_clean_linker_0, # of connection points: 2
#     Edge 42, Type (0, 0), BuildingBlock: UVAHIK_clean_linker_0, # of connection points: 2
#     Edge 43, Type (0, 0), BuildingBlock: UVAHIK_clean_linker_0, # of connection points: 2
#     Edge 44, Type (0, 0), BuildingBlock: UVAHIK_clean_linker_0, # of connection points: 2
#     Edge 45, Type (0, 0), BuildingBlock: UVAHIK_clean_linker_0, # of connection points: 2
#     Edge 46, Type (0, 0), BuildingBlock: UVAHIK_clean_linker_0, # of connection points: 2
#     Edge 47, Type (0, 0), BuildingBlock: UVAHIK_clean_linker_0, # of connection points: 2
#     Edge 48, Type (0, 0), BuildingBlock: UVAHIK_clean_linker_0, # of connection points: 2
#     Edge 49, Type (0, 0), BuildingBlock: UVAHIK_clean_linker_0, # of connection points: 2
#     Edge 50, Type (0, 0), BuildingBlock: UVAHIK_clean_linker_0, # of connection points: 2
#     Edge 51, Type (0, 0), BuildingBlock: UVAHIK_clean_linker_0, # of connection points: 2
#     Edge 52, Type (0, 0), BuildingBlock: UVAHIK_clean_linker_0, # of connection points: 2
#     Edge 53, Type (0, 0), BuildingBlock: UVAHIK_clean_linker_0, # of connection points: 2
#     Edge 54, Type (0, 0), BuildingBlock: UVAHIK_clean_linker_0, # of connection points: 2
#     Edge 55, Type (0, 0), BuildingBlock: UVAHIK_clean_linker_0, # of connection points: 2
#     Edge 56, Type (0, 0), BuildingBlock: UVAHIK_clean_linker_0, # of connection points: 2
#     Edge 57, Type (0, 0), BuildingBlock: UVAHIK_clean_linker_0, # of connection points: 2
#     Edge 58, Type (0, 0), BuildingBlock: UVAHIK_clean_linker_0, # of connection points: 2
#     Edge 59, Type (0, 0), BuildingBlock: UVAHIK_clean_linker_0, # of connection points: 2
#     Edge 60, Type (0, 0), BuildingBlock: UVAHIK_clean_linker_0, # of connection points: 2
#     Edge 61, Type (0, 0), BuildingBlock: UVAHIK_clean_linker_0, # of connection points: 2
#     Edge 62, Type (0, 0), BuildingBlock: UVAHIK_clean_linker_0, # of connection points: 2
#     Edge 63, Type (0, 0), BuildingBlock: UVAHIK_clean_linker_0, # of connection points: 2
#     Edge 64, Type (0, 0), BuildingBlock: UVAHIK_clean_linker_0, # of connection points: 2
#     Edge 65, Type (0, 0), BuildingBlock: UVAHIK_clean_linker_0, # of connection points: 2
#     Edge 66, Type (0, 0), BuildingBlock: UVAHIK_clean_linker_0, # of connection points: 2
#     Edge 67, Type (0, 0), BuildingBlock: UVAHIK_clean_linker_0, # of connection points: 2
#     Edge 68, Type (0, 0), BuildingBlock: UVAHIK_clean_linker_0, # of connection points: 2
#     Edge 69, Type (0, 0), BuildingBlock: UVAHIK_clean_linker_0, # of connection points: 2
#     Edge 70, Type (0, 0), BuildingBlock: UVAHIK_clean_linker_0, # of connection points: 2
#     Edge 71, Type (0, 0), BuildingBlock: UVAHIK_clean_linker_0, # of connection points: 2
# Relax obj value: 0.351
# Max RMSD: 0.264
# Mean RMSD: 0.264
data_MOF--net-wfx--node1-HICVOG_clean_sbu_0--edge1-UVAHIK_clean_linker_0
_symmetry_space_group_name_H-M    P1
_symmetry_Int_Tables_number       1
_symmetry_cell_setting            triclinic
loop_
_symmetry_equiv_pos_as_xyz
'x, y, z'
_cell_length_a     42.332206
_cell_length_b     42.340123
_cell_length_c     80.435233
_cell_angle_alpha  89.992998
_cell_angle_beta   89.962503
_cell_angle_gamma 90.068519
loop_
_atom_site_label
_atom_site_type_symbol
_atom_site_fract_x
_atom_site_fract_y
_atom_site_fract_z
_atom_type_partial_charge
Zn0 Zn 0.6501 0.08561 0.0774 0.0
C1 C 0.61798 1.0119 0.10294 0.0
N2 N 0.60164 1.00647 0.08888 0.0
C3 C 0.60731 0.03252 0.07989 0.0
N4 N 0.62671 0.05277 0.08799 0.0
N5 N 0.63354 0.0399 0.10258 0.0
C6 C 0.70511 1.01216 0.12156 0.0
O7 O 0.69614 1.00846 0.10607 0.0
O8 O 0.62183 0.11058 0.06276 0.0
Zn9 Zn 0.65576 0.06029 0.12141 0.0
N10 N 0.68357 0.064 0.06632 0.0
C11 C 0.73072 0.03485 0.07084 0.0
C12 C 0.7074 0.05518 0.07661 0.0
C13 C 0.68227 0.05395 0.05028 0.0
N14 N 0.72947 0.02459 0.0549 0.0
C15 C 0.70597 0.03365 0.04438 0.0
O16 O 0.67693 0.10403 0.11785 0.0
C17 C 0.68032 0.12446 0.10632 0.0
O18 O 0.67031 0.11905 0.09173 0.0
H19 H 0.70758 0.06308 0.08939 0.0
H20 H 0.66274 0.06102 0.04245 0.0
C21 C 0.62777 0.0685 0.15448 0.0
C22 C 0.60185 0.07337 0.16516 0.0
C23 C 0.56786 0.07658 0.1418 0.0
C24 C 0.5935 0.07211 0.13126 0.0
N25 N 0.62282 0.0675 0.13774 0.0
N26 N 0.57259 0.07698 0.15844 0.0
H27 H 0.65135 0.06514 0.15935 0.0
C28 C 0.60137 0.12534 0.07136 0.0
O29 O 0.59901 0.11899 0.08731 0.0
O30 O 0.69049 0.0319 0.13068 0.0
H31 H 0.58995 0.07214 0.11797 0.0
H32 H 0.74958 0.02718 0.07896 0.0
H33 H 0.54437 0.07981 0.1368 0.0
Zn34 Zn 0.45373 0.65358 0.07592 0.0
C35 C 0.5231 0.61937 0.10397 0.0
N36 N 0.52903 0.60227 0.0902 0.0
C37 C 0.50423 0.60886 0.08047 0.0
N38 N 0.48437 0.62961 0.08782 0.0
N39 N 0.49592 0.6362 0.10274 0.0
C40 C 0.52278 0.70866 0.12116 0.0
O41 O 0.52802 0.69787 0.10613 0.0
O42 O 0.42905 0.62484 0.06136 0.0
Zn43 Zn 0.47417 0.6597 0.1209 0.0
N44 N 0.47742 0.68536 0.06458 0.0
C45 C 0.50856 0.7314 0.06875 0.0
C46 C 0.48724 0.7091 0.07468 0.0
C47 C 0.48718 0.68337 0.04851 0.0
N48 N 0.51853 0.72946 0.05277 0.0
C49 C 0.50832 0.70619 0.04238 0.0
O50 O 0.43063 0.68059 0.11595 0.0
C51 C 0.41252 0.68527 0.10351 0.0
O52 O 0.42031 0.67573 0.08913 0.0
H53 H 0.47909 0.71007 0.08741 0.0
H54 H 0.47905 0.66408 0.04078 0.0
C55 C 0.4601 0.63491 0.15419 0.0
C56 C 0.45078 0.61053 0.16514 0.0
C57 C 0.4524 0.5741 0.14269 0.0
C58 C 0.46106 0.59825 0.13192 0.0
N59 N 0.46498 0.62811 0.1378 0.0
N60 N 0.44734 0.5808 0.15893 0.0
H61 H 0.46239 0.65905 0.15842 0.0
C62 C 0.41469 0.60394 0.06986 0.0
O63 O 0.42019 0.6021 0.08591 0.0
O64 O 0.50187 0.69527 0.13011 0.0
H65 H 0.46408 0.59324 0.11885 0.0
H66 H 0.51705 0.75013 0.07673 0.0
H67 H 0.44925 0.55026 0.13815 0.0
Zn68 Zn 0.87874 0.48374 0.12205 0.0
C69 C 0.92522 0.51171 0.07986 0.0
N70 N 0.93122 0.5378 0.08875 0.0
C71 C 0.91492 0.53271 0.10287 0.0
N72 N 0.89932 0.50465 0.10273 0.0
N73 N 0.90604 0.49156 0.08817 0.0
C74 C 0.93379 0.41603 0.07393 0.0
O75 O 0.93525 0.42319 0.08981 0.0
O76 O 0.84323 0.51125 0.13129 0.0
Zn77 Zn 0.88469 0.45682 0.07812 0.0
N78 N 0.91283 0.47792 0.13799 0.0
C79 C 0.96857 0.47384 0.1413 0.0
C80 C 0.94228 0.47745 0.13119 0.0
C81 C 0.90858 0.47349 0.15465 0.0
N82 N 0.96446 0.46987 0.15785 0.0
C83 C 0.93524 0.46926 0.16492 0.0
O84 O 0.86455 0.4243 0.09293 0.0
C85 C 0.85481 0.4189 0.10756 0.0
O86 O 0.85821 0.43945 0.11902 0.0
H87 H 0.94553 0.47968 0.11794 0.0
H88 H 0.88493 0.47343 0.15976 0.0
C89 C 0.85542 0.4864 0.04983 0.0
C90 C 0.83074 0.50321 0.04221 0.0
C91 C 0.79977 0.49707 0.06669 0.0
C92 C 0.82407 0.48011 0.07405 0.0
N93 N 0.85135 0.47531 0.06553 0.0
N94 N 0.80362 0.50807 0.051 0.0
H95 H 0.87773 0.48254 0.0436 0.0
C96 C 0.82552 0.52579 0.12105 0.0
O97 O 0.83218 0.5244 0.10513 0.0
O98 O 0.91446 0.43098 0.06474 0.0
H99 H 0.82164 0.47149 0.08664 0.0
H100 H 0.9921 0.47384 0.13604 0.0
H101 H 0.778 0.50147 0.07335 0.0
Zn102 Zn 0.05892 0.889 0.12467 0.0
C103 C 0.03041 0.94703 0.08713 0.0
N104 N 1.00555 0.95184 0.09717 0.0
C105 C 1.01165 0.93258 0.11009 0.0
N106 N 0.03863 0.91601 0.10797 0.0
N107 N 0.0504 0.92526 0.09351 0.0
C108 C 0.13023 0.9443 0.08075 0.0
O109 O 0.12573 0.93974 0.09674 0.0
O110 O 0.02829 0.85445 0.13209 0.0
Zn111 Zn 0.07936 0.90245 0.08002 0.0
N112 N 0.0712 0.9175 0.14247 0.0
C113 C 0.08783 0.96989 0.14873 0.0
C114 C 0.07701 0.94762 0.13741 0.0
C115 C 0.0762 0.9086 0.15854 0.0
N116 N 0.093 0.96109 0.16467 0.0
C117 C 0.08765 0.93106 0.17004 0.0
O118 O 0.10742 0.86929 0.09071 0.0
C119 C 0.11507 0.85819 0.10486 0.0
O120 O 0.09953 0.86546 0.11789 0.0
H121 H 0.07387 0.95429 0.12456 0.0
H122 H 0.07229 0.88427 0.16211 0.0
C123 C 0.06432 0.8819 0.04707 0.0
C124 C 0.04389 0.87072 0.03464 0.0
C125 C 1.0027 0.86664 0.05457 0.0
C126 C 0.02332 0.8767 0.06692 0.0
N127 N 0.05358 0.8844 0.0629 0.0
N128 N 1.01348 0.86366 0.03878 0.0
H129 H 0.08843 0.88859 0.0443 0.0
C130 C 0.02061 0.83564 0.12041 0.0
O131 O 0.03149 0.84134 0.1054 0.0
O132 O 0.1109 0.93215 0.07048 0.0
H133 H 1.015 0.87919 0.07955 0.0
H134 H 0.09253 0.9939 0.14484 0.0
H135 H 0.97842 0.86091 0.0575 0.0
Zn136 Zn 0.15754 0.97981 0.38827 0.0
C137 C 0.10979 1.00847 0.42989 0.0
N138 N 0.10428 0.03455 0.42092 0.0
C139 C 0.12022 0.02888 0.40675 0.0
N140 N 0.13529 1.00062 0.40699 0.0
N141 N 0.12864 0.98793 0.42165 0.0
C142 C 0.10274 0.91577 0.4379 0.0
O143 O 0.10101 0.92237 0.42196 0.0
O144 O 0.19156 1.00863 0.3785 0.0
Zn145 Zn 0.15193 0.95531 0.43244 0.0
N146 N 0.12466 0.96963 0.37228 0.0
C147 C 0.07035 0.95672 0.36868 0.0
C148 C 0.09512 0.96652 0.37876 0.0
C149 C 0.13056 0.96263 0.35602 0.0
N150 N 0.07616 0.94955 0.35257 0.0
C151 C 0.10558 0.95201 0.34584 0.0
O152 O 0.17315 0.92208 0.41843 0.0
C153 C 0.18372 0.91682 0.40393 0.0
O154 O 0.18013 0.93705 0.39233 0.0
H155 H 0.09079 0.97107 0.39176 0.0
H156 H 0.15449 0.9641 0.35136 0.0
C157 C 0.18305 0.9871 0.45991 0.0
C158 C 0.20602 1.00816 0.46594 0.0
C159 C 0.23067 1.00866 0.43942 0.0
C160 C 0.20807 0.98764 0.43353 0.0
N161 N 0.18465 0.97758 0.4438 0.0
N162 N 0.22912 1.01841 0.45544 0.0
H163 H 0.16379 0.9791 0.46771 0.0
C164 C 0.20553 0.02915 0.38746 0.0
O165 O 0.19596 0.03349 0.40281 0.0
O166 O 0.12315 0.9301 0.44674 0.0
H167 H 0.20843 0.98017 0.42068 0.0
H168 H 0.04675 0.95426 0.37369 0.0
H169 H 0.24919 1.0173 0.43133 0.0
Zn170 Zn 0.55823 0.15536 0.38613 0.0
C171 C 0.53179 0.1026 0.42638 0.0
N172 N 0.5061 0.09703 0.41707 0.0
C173 C 0.51156 0.11464 0.40343 0.0
N174 N 0.53907 0.13081 0.40436 0.0
N175 N 0.55179 0.12304 0.41882 0.0
C176 C 0.6245 0.09841 0.43577 0.0
O177 O 0.61942 0.09666 0.41968 0.0
O178 O 0.52775 0.19036 0.37939 0.0
Zn179 Zn 0.58336 0.14668 0.43 0.0
N180 N 0.56472 0.12433 0.36866 0.0
C181 C 0.5738 0.06969 0.36352 0.0
C182 C 0.57008 0.09466 0.37453 0.0
C183 C 0.56445 0.1303 0.35199 0.0
N184 N 0.57291 0.07541 0.34698 0.0
C185 C 0.56865 0.10502 0.34081 0.0
O186 O 0.6163 0.16923 0.41623 0.0
C187 C 0.62184 0.18002 0.40179 0.0
O188 O 0.60183 0.17658 0.39008 0.0
H189 H 0.57132 0.09027 0.38774 0.0
H190 H 0.56067 0.15412 0.34754 0.0
C191 C 0.55212 0.17452 0.45811 0.0
C192 C 0.53194 0.19689 0.46551 0.0
C193 C 0.52772 0.22329 0.43946 0.0
C194 C 0.54811 0.20146 0.43235 0.0
N195 N 0.55995 0.17774 0.44183 0.0
N196 N 0.52035 0.22061 0.4558 0.0
H197 H 0.56119 0.15449 0.46491 0.0
C198 C 0.53791 0.21416 0.3713 0.0
O199 O 0.56743 0.21429 0.36625 0.0
O200 O 0.60876 0.1182 0.4443 0.0
H201 H 0.55395 0.20282 0.41927 0.0
H202 H 0.57756 0.04594 0.36806 0.0
H203 H 0.51787 0.24226 0.4321 0.0
Zn204 Zn 0.39347 0.58601 0.42939 0.0
C205 C 0.42138 0.51054 0.40377 0.0
N206 N 0.43798 0.50472 0.41769 0.0
C207 C 0.43333 0.53092 0.42671 0.0
N208 N 0.41446 0.55175 0.41869 0.0
N209 N 0.40669 0.53899 0.40418 0.0
C210 C 0.33242 0.51384 0.38718 0.0
O211 O 0.34115 0.51305 0.40283 0.0
O212 O 0.42338 0.61187 0.44275 0.0
Zn213 Zn 0.38362 0.55944 0.38551 0.0
N214 N 0.36101 0.56643 0.44218 0.0
C215 C 0.31105 0.5411 0.4408 0.0
C216 C 0.33478 0.55881 0.43335 0.0
C217 C 0.36457 0.55751 0.4583 0.0
N218 N 0.31428 0.53243 0.45692 0.0
C219 C 0.34029 0.54021 0.46603 0.0
O220 O 0.36243 0.60305 0.38943 0.0
C221 C 0.36034 0.62372 0.40091 0.0
O222 O 0.37195 0.61863 0.41519 0.0
H223 H 0.33276 0.56589 0.42048 0.0
H224 H 0.38611 0.56354 0.4648 0.0
C225 C 0.40856 0.57451 0.35233 0.0
C226 C 0.43322 0.58335 0.34145 0.0
C227 C 0.47018 0.57622 0.36331 0.0
C228 C 0.4458 0.56821 0.37408 0.0
N229 N 0.41549 0.56727 0.36846 0.0
N230 N 0.46333 0.5838 0.34737 0.0
H231 H 0.3842 0.57462 0.34826 0.0
C232 C 0.44234 0.6278 0.43377 0.0
O233 O 0.44361 0.62183 0.41774 0.0
O234 O 0.34796 0.53098 0.37704 0.0
H235 H 0.45111 0.56348 0.38695 0.0
H236 H 0.29015 0.53446 0.43389 0.0
H237 H 0.49435 0.57702 0.36765 0.0
Zn238 Zn 0.95197 0.39345 0.42856 0.0
C239 C 0.02412 0.42551 0.40213 0.0
N240 N 0.0286 0.44396 0.41555 0.0
C241 C 1.0027 0.43826 0.42469 0.0
N242 N 0.98352 0.41695 0.41727 0.0
N243 N 0.99693 0.4087 0.40305 0.0
C244 C 0.99875 0.32298 0.37126 0.0
O245 O 0.96996 0.32416 0.36521 0.0
O246 O 0.92668 0.422 0.443 0.0
Zn247 Zn 0.9786 0.38234 0.38526 0.0
N248 N 0.97541 0.36209 0.44014 0.0
C249 C 1.00895 0.31761 0.43717 0.0
C250 C 0.98856 0.33966 0.43027 0.0
C251 C 0.98186 0.36377 0.45664 0.0
N252 N 1.01496 0.31873 0.45371 0.0
C253 C 1.00199 0.3411 0.46381 0.0
O254 O 0.93443 0.36204 0.38906 0.0
C255 C 0.9138 0.35969 0.40057 0.0
O256 O 0.91889 0.37121 0.41489 0.0
H257 H 0.98372 0.33949 0.41706 0.0
H258 H 0.97175 0.38282 0.46381 0.0
C259 C 0.97353 0.40283 0.35038 0.0
C260 C 0.97019 0.42637 0.33815 0.0
C261 C 0.96635 0.46531 0.35921 0.0
C262 C 0.96918 0.44202 0.37129 0.0
N263 N 0.97349 0.41136 0.36672 0.0
N264 N 0.96702 0.45699 0.34297 0.0
H265 H 0.97646 0.37831 0.34695 0.0
C266 C 0.91176 0.44269 0.43465 0.0
O267 O 0.91762 0.44534 0.41866 0.0
O268 O 1.00876 0.34618 0.37987 0.0
H269 H 0.96806 0.4485 0.38425 0.0
H270 H 0.01983 0.29967 0.4295 0.0
H271 H 0.96344 0.4898 0.3627 0.0
Zn272 Zn 0.39195 0.95089 0.93081 0.0
C273 C 0.41909 0.02545 0.90409 0.0
N274 N 0.43703 0.03095 0.9176 0.0
C275 C 0.43198 1.00515 0.92688 0.0
N276 N 0.41173 0.9849 0.91941 0.0
N277 N 0.4033 0.99763 0.90503 0.0
C278 C 0.31897 0.99799 0.87276 0.0
O279 O 0.31787 0.9681 0.86843 0.0
O280 O 0.42519 0.92604 0.94245 0.0
Zn281 Zn 0.37861 0.97775 0.887 0.0
N282 N 0.36318 0.97161 0.9454 0.0
C283 C 0.31933 1.00639 0.94653 0.0
C284 C 0.33964 0.98728 0.93747 0.0
C285 C 0.36751 0.97416 0.96209 0.0
N286 N 0.32325 1.00873 0.9632 0.0
C287 C 0.34672 0.99312 0.97138 0.0
O288 O 0.35731 0.93418 0.89162 0.0
C289 C 0.35501 0.9138 0.90327 0.0
O290 O 0.36747 0.91875 0.9174 0.0
H291 H 0.33729 0.98547 0.9241 0.0
H292 H 0.3872 0.96212 0.96783 0.0
C293 C 0.40271 0.96851 0.85273 0.0
C294 C 0.42759 0.96289 0.84139 0.0
C295 C 0.46385 0.96137 0.86389 0.0
C296 C 0.43931 0.96642 0.87501 0.0
N297 N 0.40932 0.97049 0.86932 0.0
N298 N 0.45745 0.95975 0.84744 0.0
H299 H 0.37864 0.97146 0.84849 0.0
C300 C 0.44273 0.91058 0.93252 0.0
O301 O 0.43819 0.91348 0.91643 0.0
O302 O 0.34353 1.00825 0.88015 0.0
H303 H 0.44426 0.96696 0.88817 0.0
H304 H 0.30057 0.01925 0.94042 0.0
H305 H 0.48782 0.95846 0.86829 0.0
Zn306 Zn 0.55703 0.38232 0.88623 0.0
C307 C 0.53255 0.43911 0.92539 0.0
N308 N 0.50725 0.44532 0.91591 0.0
C309 C 0.51182 0.42645 0.90265 0.0
N310 N 0.53856 0.4091 0.90391 0.0
N311 N 0.55155 0.41731 0.91825 0.0
C312 C 0.62358 0.44319 0.93478 0.0
O313 O 0.61749 0.44461 0.91878 0.0
O314 O 0.5261 0.34667 0.88047 0.0
Zn315 Zn 0.58267 0.39411 0.92992 0.0
N316 N 0.56471 0.41096 0.86763 0.0
C317 C 0.57501 0.46432 0.85991 0.0
C318 C 0.56691 0.44203 0.87184 0.0
C319 C 0.57095 0.40123 0.85178 0.0
N320 N 0.58156 0.45469 0.84426 0.0
C321 C 0.57998 0.42375 0.83974 0.0
O322 O 0.61537 0.37063 0.91661 0.0
C323 C 0.62069 0.3587 0.90241 0.0
O324 O 0.60051 0.36118 0.89071 0.0
H325 H 0.56327 0.4496 0.88449 0.0
H326 H 0.57018 0.37632 0.84882 0.0
C327 C 0.55265 0.36689 0.95868 0.0
C328 C 0.53199 0.34525 0.96635 0.0
C329 C 0.52368 0.32047 0.94013 0.0
C330 C 0.5446 0.34149 0.93275 0.0
N331 N 0.55868 0.36407 0.94217 0.0
N332 N 0.5181 0.32271 0.95668 0.0
H333 H 0.56353 0.38604 0.96547 0.0
C334 C 0.53634 0.32194 0.87322 0.0
O335 O 0.56607 0.32113 0.86854 0.0
O336 O 0.60852 0.42338 0.94367 0.0
H337 H 0.54913 0.34043 0.91952 0.0
H338 H 0.57678 0.48906 0.86315 0.0
H339 H 0.51206 0.30243 0.93283 0.0
Zn340 Zn 0.15319 0.57452 0.93065 0.0
C341 C 0.10607 0.51426 0.9023 0.0
N342 N 0.08728 0.5113 0.91574 0.0
C343 C 0.09855 0.53358 0.92602 0.0
N344 N 0.12317 0.54929 0.91917 0.0
N345 N 0.12784 0.53744 0.90416 0.0
C346 C 0.21367 0.53478 0.87243 0.0
O347 O 0.21388 0.56436 0.86748 0.0
O348 O 0.13132 0.59934 0.9482 0.0
Zn349 Zn 0.15459 0.55546 0.88638 0.0
N350 N 0.18377 0.54474 0.93828 0.0
C351 C 0.21828 0.50322 0.93035 0.0
C352 C 0.19864 0.52822 0.92612 0.0
C353 C 0.18768 0.5375 0.95458 0.0
N354 N 0.22246 0.49599 0.94662 0.0
C355 C 0.20775 0.51233 0.959 0.0
O356 O 0.1759 0.5991 0.89058 0.0
C357 C 0.18221 0.61707 0.90288 0.0
O358 O 0.17461 0.60911 0.91757 0.0
H359 H 0.19464 0.53412 0.91322 0.0
H360 H 0.17545 0.55154 0.96376 0.0
C361 C 0.13322 0.56173 0.85175 0.0
C362 C 0.10951 0.56672 0.83978 0.0
C363 C 0.0718 0.57362 0.86125 0.0
C364 C 0.09531 0.56925 0.87307 0.0
N365 N 0.12536 0.56255 0.86817 0.0
N366 N 0.07939 0.57217 0.84493 0.0
H367 H 0.15735 0.55701 0.84807 0.0
C368 C 0.10998 0.61612 0.94144 0.0
O369 O 0.10266 0.61087 0.9258 0.0
O370 O 0.1896 0.52449 0.88025 0.0
H371 H 0.08952 0.57117 0.88611 0.0
H372 H 0.23017 0.48968 0.92081 0.0
H373 H 0.04773 0.5784 0.86501 0.0
Zn374 Zn 0.97763 0.15735 0.88824 0.0
C375 C 1.0076 0.10992 0.92959 0.0
N376 N 0.03356 0.10519 0.92037 0.0
C377 C 0.02702 0.12121 0.90634 0.0
N378 N 0.99846 0.13557 0.9069 0.0
N379 N 0.98621 0.1281 0.92155 0.0
C380 C 0.91025 0.09798 0.93439 0.0
O381 O 0.91322 0.10225 0.91829 0.0
O382 O 1.00725 0.19205 0.87991 0.0
Zn383 Zn 0.9516 0.14792 0.93245 0.0
N384 N 0.97027 0.12426 0.8719 0.0
C385 C 0.96278 0.06889 0.86849 0.0
C386 C 0.96748 0.09492 0.87867 0.0
C387 C 0.96718 0.12877 0.85518 0.0
N388 N 0.96017 0.07321 0.85189 0.0
C389 C 0.96193 0.10238 0.84482 0.0
O390 O 0.91975 0.17168 0.91864 0.0
C391 C 0.91434 0.18256 0.90421 0.0
O392 O 0.93421 0.17878 0.89244 0.0
H393 H 0.96884 0.09159 0.89195 0.0
H394 H 0.96902 0.15234 0.85007 0.0
C395 C 0.97654 0.17279 0.96321 0.0
C396 C 0.9955 0.19424 0.97209 0.0
C397 C 1.00454 0.22306 0.94714 0.0
C398 C 0.98542 0.20209 0.9385 0.0
N399 N 0.97183 0.17754 0.94669 0.0
N400 N 1.00897 0.21874 0.96366 0.0
H401 H 0.9662 0.15228 0.96911 0.0
C402 C 0.99594 0.21533 0.87184 0.0
O403 O 0.96596 0.21473 0.86766 0.0
O404 O 0.92611 0.11533 0.94425 0.0
H405 H 0.98206 0.20468 0.92524 0.0
H406 H 0.96094 0.04543 0.87372 0.0
H407 H 1.01578 0.24263 0.94081 0.0
Zn408 Zn 0.88193 0.05538 0.62388 0.0
C409 C 0.93868 0.03307 0.58443 0.0
N410 N 0.94641 1.00824 0.59395 0.0
C411 C 0.9276 1.01196 0.60732 0.0
N412 N 0.90893 0.03781 0.60609 0.0
N413 N 0.91607 0.05099 0.59165 0.0
C414 C 0.93841 0.12274 0.57365 0.0
O415 O 0.94098 0.11791 0.58973 0.0
O416 O 0.84603 0.02448 0.62882 0.0
Zn417 Zn 0.89094 0.08109 0.58034 0.0
N418 N 0.91033 0.06046 0.64272 0.0
C419 C 0.96404 0.0668 0.65092 0.0
C420 C 0.9413 0.06411 0.63856 0.0
C421 C 0.90097 0.06111 0.65895 0.0
N422 N 0.95489 0.06676 0.66705 0.0
C423 C 0.92397 0.06436 0.67147 0.0
O424 O 0.86837 0.11405 0.59399 0.0
C425 C 0.8578 0.11954 0.60848 0.0
O426 O 0.86132 0.09943 0.62016 0.0
H427 H 0.94848 0.06493 0.62569 0.0
H428 H 0.8762 0.05883 0.66205 0.0
C429 C 0.86204 0.04991 0.55257 0.0
C430 C 0.83992 0.02918 0.54536 0.0
C431 C 0.81673 0.02131 0.57203 0.0
C432 C 0.8382 0.04235 0.57895 0.0
N433 N 0.86019 0.05626 0.56908 0.0
N434 N 0.81795 1.01547 0.55547 0.0
H435 H 0.88078 0.06072 0.54544 0.0
C436 C 0.82146 0.03427 0.63638 0.0
O437 O 0.82091 0.06355 0.64178 0.0
O438 O 0.91834 0.10666 0.56546 0.0
H439 H 0.83789 0.04716 0.59216 0.0
H440 H 0.98876 0.06916 0.64775 0.0
H441 H 0.79912 1.00984 0.5797 0.0
Zn442 Zn 0.47629 0.88073 0.62188 0.0
C443 C 0.50501 0.92916 0.58032 0.0
N444 N 0.53175 0.93268 0.58904 0.0
C445 C 0.52562 0.91653 0.60308 0.0
N446 N 0.49644 0.90329 0.60304 0.0
N447 N 0.48353 0.91142 0.58864 0.0
C448 C 0.40827 0.94529 0.57655 0.0
O449 O 0.41152 0.94136 0.59266 0.0
O450 O 0.50538 0.84514 0.62975 0.0
Zn451 Zn 0.44698 0.89331 0.57848 0.0
N452 N 0.46933 0.9126 0.63903 0.0
C453 C 0.46306 0.9675 0.6445 0.0
C454 C 0.47001 0.94304 0.63361 0.0
C455 C 0.4613 0.90562 0.65506 0.0
N456 N 0.4549 0.96063 0.66036 0.0
C457 C 0.45359 0.9304 0.66609 0.0
O458 O 0.41471 0.87163 0.59303 0.0
C459 C 0.41082 0.85882 0.60716 0.0
O460 O 0.43252 0.85974 0.61816 0.0
H461 H 0.47531 0.94846 0.6208 0.0
H462 H 0.45983 0.88117 0.6589 0.0
C463 C 0.47298 0.86633 0.54829 0.0
C464 C 0.48908 0.84215 0.53984 0.0
C465 C 0.48487 0.80947 0.56377 0.0
C466 C 0.46871 0.8333 0.57201 0.0
N467 N 0.46341 0.86124 0.56421 0.0
N468 N 0.49459 0.81443 0.54795 0.0
H469 H 0.46873 0.88902 0.54253 0.0
C470 C 0.51816 0.82852 0.61839 0.0
O471 O 0.51363 0.83669 0.60283 0.0
O472 O 0.42295 0.92692 0.5667 0.0
H473 H 0.46122 0.82998 0.58474 0.0
H474 H 0.46361 0.99178 0.64032 0.0
H475 H 0.48972 0.78724 0.56988 0.0
Zn476 Zn 0.65452 0.47621 0.62244 0.0
C477 C 0.60764 0.50362 0.58011 0.0
N478 N 0.60112 0.52939 0.58914 0.0
C479 C 0.6169 0.5241 0.60337 0.0
N480 N 0.63265 0.49618 0.60322 0.0
N481 N 0.62671 0.48341 0.58847 0.0
C482 C 0.59855 0.40855 0.57365 0.0
O483 O 0.59674 0.41484 0.58962 0.0
O484 O 0.6898 0.50515 0.63077 0.0
Zn485 Zn 0.64843 0.44854 0.57859 0.0
N486 N 0.62198 0.46935 0.63925 0.0
C487 C 0.5669 0.46363 0.64458 0.0
C488 C 0.59154 0.47117 0.63387 0.0
C489 C 0.62872 0.45974 0.65505 0.0
N490 N 0.57356 0.45367 0.66017 0.0
C491 C 0.60377 0.45132 0.66581 0.0
O492 O 0.66791 0.4158 0.59355 0.0
C493 C 0.67843 0.41113 0.60811 0.0
O494 O 0.6758 0.43229 0.61932 0.0
H495 H 0.58623 0.47756 0.62121 0.0
H496 H 0.6531 0.45739 0.65889 0.0
C497 C 0.67877 0.47949 0.55089 0.0
C498 C 0.70427 0.49552 0.54351 0.0
C499 C 0.73561 0.4847 0.56735 0.0
C500 C 0.7105 0.46844 0.57445 0.0
N501 N 0.68258 0.46651 0.56621 0.0
N502 N 0.73194 0.49771 0.55209 0.0
H503 H 0.65613 0.47763 0.54475 0.0
C504 C 0.70767 0.51668 0.61956 0.0
O505 O 0.70062 0.51124 0.60394 0.0
O506 O 0.61885 0.42318 0.56488 0.0
H507 H 0.71291 0.45822 0.5867 0.0
H508 H 0.54264 0.46498 0.64042 0.0
H509 H 0.75785 0.48693 0.57386 0.0
Zn510 Zn 0.05567 0.65376 0.62184 0.0
C511 C 0.03088 0.60264 0.58081 0.0
N512 N 1.00634 0.59403 0.59032 0.0
C513 C 1.01058 0.61146 0.60415 0.0
N514 N 0.03653 0.63015 0.6032 0.0
N515 N 0.04924 0.62434 0.58848 0.0
C516 C 0.12165 0.60163 0.57144 0.0
O517 O 0.11529 0.59867 0.58736 0.0
O518 O 0.02561 0.6889 0.62908 0.0
Zn519 Zn 0.08022 0.64924 0.57764 0.0
N520 N 0.06215 0.62175 0.63886 0.0
C521 C 0.06995 0.5667 0.64335 0.0
C522 C 0.06603 0.59208 0.63264 0.0
C523 C 0.06376 0.62725 0.65555 0.0
N524 N 0.07099 0.57199 0.65991 0.0
C525 C 0.06837 0.60154 0.66642 0.0
O526 O 0.11291 0.67095 0.59174 0.0
C527 C 0.11896 0.67997 0.60644 0.0
O528 O 0.09944 0.67497 0.61824 0.0
H529 H 0.06623 0.58799 0.61941 0.0
H530 H 0.06134 0.65107 0.66025 0.0
C531 C 0.04867 0.67846 0.5501 0.0
C532 C 0.02812 0.70095 0.5431 0.0
C533 C 0.0234 0.72555 0.56961 0.0
C534 C 0.04413 0.70361 0.57633 0.0
N535 N 0.05638 0.68074 0.56643 0.0
N536 N 1.01612 0.72382 0.55323 0.0
H537 H 0.05817 0.65905 0.54298 0.0
C538 C 0.03626 0.71244 0.63721 0.0
O539 O 0.06589 0.71209 0.64204 0.0
O540 O 0.10636 0.62188 0.56298 0.0
H541 H 0.04991 0.7042 0.58943 0.0
H542 H 0.07254 0.54298 0.63854 0.0
H543 H 1.01322 0.74387 0.5773 0.0
C544 C 0.43578 0.02308 0.95636 0.0
C545 C 0.44545 1.00211 0.94384 0.0
C546 C 0.45294 0.02584 0.97122 0.0
C547 C 0.51651 0.98836 0.99694 0.0
H548 H 0.52766 0.07354 0.01367 0.0
C549 C 0.60455 1.01458 0.05038 0.0
C550 C 0.5949 0.03593 0.06273 0.0
C551 C 0.5877 1.01179 0.03542 0.0
C552 C 0.52463 0.04953 0.00932 0.0
H553 H 0.48091 0.96786 0.93695 0.0
H554 H 0.51073 0.97212 0.96293 0.0
H555 H 0.49427 0.0643 0.98949 0.0
H556 H 0.55967 0.07069 0.06923 0.0
H557 H 0.53041 0.06635 0.04312 0.0
H558 H 0.5468 0.97357 0.0168 0.0
C559 C 0.48948 0.98606 0.96152 0.0
C560 C 0.50529 0.04417 0.99541 0.0
C561 C 0.47225 0.98336 0.94664 0.0
C562 C 0.56844 0.055 0.05965 0.0
C563 C 0.55149 0.05221 0.04469 0.0
C564 C 0.53582 0.99371 0.01088 0.0
C565 C 0.48059 1.008 0.97387 0.0
C566 C 0.50085 1.01349 0.98899 0.0
C567 C 0.56033 0.02992 0.0325 0.0
C568 C 0.54024 0.0244 0.01731 0.0
H569 H 0.41552 0.03824 0.95439 0.0
H570 H 0.44488 0.04255 0.98048 0.0
H571 H 0.51348 0.96436 0.99257 0.0
H572 H 0.62446 0.99908 0.05259 0.0
H573 H 0.59572 0.99477 0.0263 0.0
C574 C 0.48339 0.5691 0.06022 0.0
C575 C 0.50173 0.59611 0.06333 0.0
C576 C 0.48633 0.55253 0.04516 0.0
C577 C 0.52 0.55716 1.00202 0.0
H578 H 0.5186 0.46578 0.00496 0.0
C579 C 0.55412 0.4791 0.94537 0.0
C580 C 0.5356 0.45215 0.94244 0.0
C581 C 0.55163 0.49577 0.96043 0.0
C582 C 0.51879 0.49126 1.00381 0.0
H583 H 0.53784 0.62671 0.05323 0.0
H584 H 0.54296 0.59816 0.02692 0.0
H585 H 0.50889 0.49741 0.02975 0.0
H586 H 0.49984 0.42158 0.9529 0.0
H587 H 0.49549 0.45025 0.97919 0.0
H588 H 0.52985 0.55101 0.97607 0.0
C589 C 0.52569 0.58999 0.03588 0.0
C590 C 0.51309 0.50952 0.01809 0.0
C591 C 0.52273 0.6065 0.05096 0.0
C592 C 0.51502 0.44181 0.95502 0.0
C593 C 0.51252 0.45838 0.97009 0.0
C594 C 0.52569 0.53891 0.98773 0.0
C595 C 0.50808 0.56226 0.03288 0.0
C596 C 0.51353 0.5428 0.01745 0.0
C597 C 0.53022 0.48612 0.97291 0.0
C598 C 0.52516 0.50562 0.98836 0.0
H599 H 0.46783 0.55991 0.06976 0.0
H600 H 0.47202 0.53161 0.04332 0.0
H601 H 0.5202 0.58265 1.00088 0.0
H602 H 0.5695 0.48814 0.9357 0.0
H603 H 0.56603 0.51666 0.96214 0.0
C604 C 0.05807 0.55412 0.94575 0.0
C605 C 0.08618 0.53728 0.94315 0.0
C606 C 0.04174 0.55184 0.96089 0.0
C607 C 0.03002 0.49683 0.99629 0.0
H608 H 0.98633 0.56772 0.01619 0.0
C609 C 0.96466 0.48825 0.0602 0.0
C610 C 0.9382 0.50755 0.06287 0.0
C611 C 0.98208 0.49039 0.04534 0.0
C612 C 0.99787 0.54744 0.0107 0.0
H613 H 0.11932 0.50479 0.9543 0.0
H614 H 0.09108 0.50094 0.98091 0.0
H615 H 0.01933 0.57605 0.99179 0.0
H616 H 0.90904 0.54402 0.05207 0.0
H617 H 0.93827 0.54691 0.02592 0.0
H618 H 1.00827 0.46812 0.01507 0.0
C619 C 0.08159 0.51607 0.97128 0.0
C620 C 1.01705 0.55232 0.99668 0.0
C621 C 0.09808 0.51862 0.95614 0.0
C622 C 0.92897 0.52838 0.0502 0.0
C623 C 0.94615 0.53038 0.03531 0.0
C624 C 1.01067 0.49189 0.01027 0.0
C625 C 0.05277 0.5321 0.97375 0.0
C626 C 0.03339 0.5271 0.98921 0.0
C627 C 0.97362 0.51215 0.03281 0.0
C628 C 0.99413 0.51711 0.0177 0.0
H629 H 0.04795 0.56798 0.93576 0.0
H630 H 0.01955 0.56431 0.96218 0.0
H631 H 0.04176 0.47668 0.99077 0.0
H632 H 0.97307 0.47292 0.07002 0.0
H633 H 1.00319 0.47618 0.04411 0.0
C634 C 1.0053 0.95513 0.05939 0.0
C635 C 0.03128 0.95992 0.06996 0.0
C636 C 1.00326 0.97072 0.04406 0.0
C637 C 0.02966 0.04344 0.0229 0.0
H638 H 0.999 1.00201 0.98309 0.0
C639 C 0.02834 0.10611 0.95854 0.0
C640 C 1.00514 0.09782 0.94686 0.0
C641 C 0.03038 0.09042 0.97387 0.0
C642 C 1.00704 1.01424 0.99412 0.0
H643 H 0.07513 0.98547 0.07295 0.0
H644 H 0.07178 1.01283 0.04607 0.0
H645 H 1.00648 0.97149 0.00846 0.0
H646 H 0.96657 0.06578 0.94185 0.0
H647 H 0.96863 0.03955 0.96891 0.0
H648 H 0.02964 0.08632 0.00876 0.0
C649 C 0.05312 0.9966 0.04955 0.0
C650 C 1.01157 0.99656 0.0087 0.0
C651 C 0.05536 0.98056 0.06482 0.0
C652 C 0.98371 0.07371 0.95091 0.0
C653 C 0.98554 0.0581 0.9663 0.0
C654 C 0.02484 0.06121 0.00837 0.0
C655 C 0.02681 0.9922 0.03904 0.0
C656 C 0.02301 1.01087 0.0233 0.0
C657 C 1.0094 0.06568 0.97791 0.0
C658 C 1.0135 0.04693 0.99369 0.0
H659 H 0.9861 0.9398 0.06319 0.0
H660 H 0.9825 0.96693 0.03645 0.0
H661 H 0.03796 0.05542 0.03396 0.0
H662 H 0.0457 0.12407 0.95556 0.0
H663 H 0.04941 0.09682 0.9822 0.0
C664 C 0.10701 0.02605 0.45948 0.0
C665 C 0.09729 1.00494 0.44703 0.0
C666 C 0.09032 0.02839 0.47453 0.0
C667 C 1.00994 1.01431 0.49191 0.0
H668 H 0.05051 0.03142 0.53413 0.0
C669 C 0.94108 1.01622 0.55471 0.0
C670 C 0.95137 0.03666 0.56735 0.0
C671 C 0.95779 1.01383 0.53967 0.0
C672 C 0.03865 0.02717 0.52242 0.0
H673 H 0.06205 0.97018 0.44042 0.0
H674 H 0.0334 0.97333 0.46683 0.0
H675 H 0.08269 0.02204 0.50949 0.0
H676 H 0.98723 0.07058 0.5742 0.0
H677 H 1.01591 0.06741 0.5478 0.0
H678 H 0.9659 0.01955 0.50481 0.0
C679 C 0.054 0.98814 0.46507 0.0
C680 C 0.05723 0.02162 0.50823 0.0
C681 C 0.07082 0.98577 0.45005 0.0
C682 C 0.97828 0.05527 0.56449 0.0
C683 C 0.99504 0.05295 0.54945 0.0
C684 C 0.99136 0.01992 0.50609 0.0
C685 C 0.06302 1.01006 0.47741 0.0
C686 C 0.04321 1.01507 0.49273 0.0
C687 C 0.98557 0.03155 0.53695 0.0
C688 C 1.00537 0.02646 0.5216 0.0
H689 H 0.12679 0.04177 0.45728 0.0
H690 H 0.09792 0.0458 0.48354 0.0
H691 H 0.99812 1.01 0.4802 0.0
H692 H 0.9209 1.00095 0.55678 0.0
H693 H 0.94979 0.99683 0.53054 0.0
C694 C 0.55416 0.06416 0.44694 0.0
C695 C 0.5345 0.09004 0.44355 0.0
C696 C 0.55133 0.04741 0.46198 0.0
C697 C 0.49242 0.03105 0.49559 0.0
H698 H 0.56366 0.99208 0.5177 0.0
C699 C 0.48241 0.96856 0.56024 0.0
C700 C 0.50184 0.94233 0.56329 0.0
C701 C 0.48495 0.98561 0.54528 0.0
C702 C 0.54336 1.00238 0.51159 0.0
H703 H 0.49658 0.11881 0.45323 0.0
H704 H 0.49217 0.09046 0.47963 0.0
H705 H 0.57251 0.025 0.4933 0.0
H706 H 0.53917 0.91342 0.55309 0.0
H707 H 0.54315 0.94239 0.52688 0.0
H708 H 0.46329 1.00844 0.51393 0.0
C709 C 0.50965 0.08268 0.4707 0.0
C710 C 0.54849 0.02144 0.49753 0.0
C711 C 0.51247 0.09931 0.45566 0.0
C712 C 0.52343 0.93317 0.55094 0.0
C713 C 0.526 0.95012 0.536 0.0
C714 C 0.48729 1.01201 0.50966 0.0
C715 C 0.52844 0.05591 0.47394 0.0
C716 C 0.52312 0.03611 0.48927 0.0
C717 C 0.50741 0.97715 0.53309 0.0
C718 C 0.51266 0.99726 0.51788 0.0
H719 H 0.57047 0.05572 0.43757 0.0
H720 H 0.56601 0.02679 0.4638 0.0
H721 H 0.47211 0.04131 0.48946 0.0
H722 H 0.46663 0.97708 0.56984 0.0
H723 H 0.47045 1.00644 0.54368 0.0
C724 C 0.60436 0.5225 0.55081 0.0
C725 C 0.59554 0.50018 0.56288 0.0
C726 C 0.58754 0.52528 0.53584 0.0
C727 C 0.52645 0.48628 0.50898 0.0
H728 H 0.51162 0.5718 0.4936 0.0
C729 C 0.43758 0.51128 0.45586 0.0
C730 C 0.44605 0.53386 0.44385 0.0
C731 C 0.4546 0.50846 0.47076 0.0
C732 C 0.5157 0.54771 0.49757 0.0
H733 H 0.56144 0.46393 0.5689 0.0
H734 H 0.53234 0.46812 0.54271 0.0
H735 H 0.545 0.56272 0.51781 0.0
H736 H 0.47941 0.57085 0.43795 0.0
H737 H 0.50901 0.56642 0.46398 0.0
H738 H 0.4972 0.47126 0.48874 0.0
C739 C 0.55287 0.483 0.54452 0.0
C740 C 0.53503 0.54244 0.5115 0.0
C741 C 0.5698 0.48024 0.5595 0.0
C742 C 0.4715 0.55413 0.44726 0.0
C743 C 0.48867 0.55129 0.46217 0.0
C744 C 0.50714 0.49155 0.49504 0.0
C745 C 0.56093 0.50618 0.53263 0.0
C746 C 0.54077 0.51163 0.51746 0.0
C747 C 0.48103 0.5278 0.47398 0.0
C748 C 0.50136 0.52236 0.4891 0.0
H749 H 0.62361 0.53874 0.55325 0.0
H750 H 0.59495 0.54303 0.52697 0.0
H751 H 0.5305 0.4622 0.51297 0.0
H752 H 0.41842 0.49493 0.45343 0.0
H753 H 0.44743 0.49053 0.47958 0.0
C754 C 1.01374 0.60244 0.55115 0.0
C755 C 0.03423 0.59115 0.5635 0.0
C756 C 1.01093 0.58672 0.53585 0.0
C757 C 0.04746 0.52418 0.50897 0.0
H758 H 0.96249 0.51668 0.49141 0.0
C759 C 0.01978 0.43946 0.45435 0.0
C760 C 0.99957 0.45065 0.44184 0.0
C761 C 0.02265 0.45559 0.46952 0.0
C762 C 0.98644 0.51871 0.49601 0.0
H763 H 0.06763 0.55442 0.56965 0.0
H764 H 0.06311 0.52698 0.54299 0.0
H765 H 0.97197 0.54822 0.51626 0.0
H766 H 0.96669 0.48762 0.43531 0.0
H767 H 0.97123 0.51572 0.46181 0.0
H768 H 0.0619 0.4946 0.48874 0.0
C769 C 0.04966 0.54843 0.54483 0.0
C770 C 0.99195 0.53699 0.5103 0.0
C771 C 0.05246 0.56424 0.56012 0.0
C772 C 0.98164 0.47789 0.44495 0.0
C773 C 0.98447 0.49409 0.46014 0.0
C774 C 0.04194 0.50588 0.4947 0.0
C775 C 0.02819 0.55891 0.53261 0.0
C776 C 0.02256 0.54005 0.51703 0.0
C777 C 1.00568 0.48367 0.4725 0.0
C778 C 1.01133 0.50278 0.48798 0.0
H779 H 0.99888 0.62273 0.5536 0.0
H780 H 0.99459 0.59595 0.52673 0.0
H781 H 0.07141 0.5262 0.51356 0.0
H782 H 0.03435 0.41886 0.45213 0.0
H783 H 0.03879 0.44642 0.47877 0.0
C784 C 0.63959 0.96047 0.11128 0.0
C785 C 0.62118 0.98681 0.11548 0.0
C786 C 0.63393 0.93111 0.11861 0.0
C787 C 0.56561 0.88786 0.1353 0.0
H788 H 0.62593 0.81908 0.13656 0.0
C789 C 0.5256 0.75711 0.13926 0.0
C790 C 0.53862 0.73817 0.12664 0.0
C791 C 0.53837 0.78697 0.14276 0.0
C792 C 0.6088 0.83806 0.13634 0.0
H793 H 0.58323 1.00347 0.13117 0.0
H794 H 0.5739 0.95236 0.14455 0.0
H795 H 0.64484 0.87355 0.13553 0.0
H796 H 0.57627 0.73501 0.10843 0.0
H797 H 0.59872 0.78668 0.11467 0.0
H798 H 0.52962 0.85225 0.13571 0.0
C799 C 0.59272 0.9543 0.13549 0.0
C800 C 0.61961 0.86932 0.13573 0.0
C801 C 0.59847 0.98379 0.12809 0.0
C802 C 0.56561 0.74904 0.1182 0.0
C803 C 0.57862 0.77861 0.12185 0.0
C804 C 0.55482 0.85661 0.1361 0.0
C805 C 0.60931 0.92721 0.1302 0.0
C806 C 0.59817 0.89465 0.13456 0.0
C807 C 0.56474 0.79827 0.13389 0.0
C808 C 0.57628 0.83131 0.13604 0.0
H809 H 0.65624 0.96177 0.10107 0.0
H810 H 0.64695 0.91098 0.11395 0.0
H811 H 0.54826 0.9065 0.13419 0.0
H812 H 0.50475 0.74945 0.14596 0.0
H813 H 0.52725 0.8015 0.15217 0.0
C814 C 0.78388 0.56672 0.11679 0.0
C815 C 0.79645 0.54225 0.12655 0.0
C816 C 0.7546 0.58006 0.12068 0.0
C817 C 0.67881 0.55885 0.13783 0.0
H818 H 0.6617 0.64864 0.13527 0.0
C819 C 0.55124 0.60126 0.1294 0.0
C820 C 0.54804 0.6234 0.11654 0.0
C821 C 0.58084 0.59604 0.13681 0.0
C822 C 0.66594 0.62346 0.136 0.0
H823 H 0.78852 0.51303 0.14827 0.0
H824 H 0.7366 0.5358 0.15479 0.0
H825 H 0.71623 0.62997 0.13579 0.0
H826 H 0.57298 0.65776 0.10158 0.0
H827 H 0.62375 0.64947 0.11444 0.0
H828 H 0.62885 0.55192 0.13672 0.0
C829 C 0.74976 0.54489 0.14427 0.0
C830 C 0.69724 0.61282 0.13638 0.0
C831 C 0.7795 0.532 0.14059 0.0
C832 C 0.57431 0.64173 0.11206 0.0
C833 C 0.60374 0.63658 0.11937 0.0
C834 C 0.64748 0.56943 0.13717 0.0
C835 C 0.73686 0.56882 0.13422 0.0
C836 C 0.70401 0.58036 0.1368 0.0
C837 C 0.60786 0.61254 0.13126 0.0
C838 C 0.64057 0.60187 0.13565 0.0
H839 H 0.79642 0.57513 0.10591 0.0
H840 H 0.74516 0.59823 0.11261 0.0
H841 H 0.6833 0.53366 0.13805 0.0
H842 H 0.53161 0.58608 0.13271 0.0
H843 H 0.58289 0.57768 0.14611 0.0
C844 C 0.9909 0.78874 0.10986 0.0
C845 C 1.00176 0.80653 0.12346 0.0
C846 C 0.9754 0.75996 0.11225 0.0
C847 C 0.96751 0.69416 0.14195 0.0
H848 H 0.90207 0.66866 0.11107 0.0
C849 C 0.89009 0.57851 0.1169 0.0
C850 C 0.91498 0.55673 0.11613 0.0
C851 C 0.895 0.60887 0.12336 0.0
C852 C 0.91979 0.67532 0.12012 0.0
H853 H 1.00412 0.8082 0.15036 0.0
H854 H 0.9768 0.75763 0.15459 0.0
H855 H 0.92035 0.72288 0.11118 0.0
H856 H 0.96398 0.54893 0.12238 0.0
H857 H 0.97287 0.60164 0.13344 0.0
H858 H 0.96708 0.64635 0.15078 0.0
C859 C 0.98055 0.76603 0.14202 0.0
C860 C 0.93067 0.70651 0.11997 0.0
C861 C 0.996 0.7951 0.13961 0.0
C862 C 0.94411 0.56497 0.12326 0.0
C863 C 0.94921 0.59541 0.12952 0.0
C864 C 0.95651 0.66285 0.14215 0.0
C865 C 0.97024 0.74798 0.12834 0.0
C866 C 0.95541 0.71614 0.13048 0.0
C867 C 0.92523 0.6184 0.12876 0.0
C868 C 0.93311 0.65272 0.13088 0.0
H869 H 0.99487 0.79674 0.09723 0.0
H870 H 0.96834 0.74661 0.10139 0.0
H871 H 0.9866 0.70068 0.15023 0.0
H872 H 0.86785 0.5735 0.11085 0.0
H873 H 0.8757 0.6256 0.12288 0.0
C874 C 0.75129 1.00841 0.1411 0.0
C875 C 0.73427 0.99636 0.12749 0.0
C876 C 0.78106 0.99618 0.14515 0.0
C877 C 0.8357 0.92893 0.13862 0.0
H878 H 0.90105 0.99302 0.13911 0.0
C879 C 0.96344 0.90459 0.11858 0.0
C880 C 0.98716 0.92641 0.1226 0.0
C881 C 0.93294 0.90803 0.12503 0.0
C882 C 0.88333 0.9746 0.13954 0.0
H883 H 0.73429 0.96075 0.10812 0.0
H884 H 0.78591 0.93912 0.11536 0.0
H885 H 0.84605 1.0087 0.13928 0.0
H886 H 0.99888 0.96679 0.13779 0.0
H887 H 0.94638 0.97153 0.15015 0.0
H888 H 0.87292 0.89474 0.1387 0.0
C889 C 0.77636 0.95811 0.12285 0.0
C890 C 0.85161 0.98374 0.13953 0.0
C891 C 0.74686 0.97065 0.11864 0.0
C892 C 0.98103 0.94939 0.1347 0.0
C893 C 0.95067 0.9525 0.14145 0.0
C894 C 0.86751 0.91971 0.13891 0.0
C895 C 0.79418 0.97127 0.13586 0.0
C896 C 0.82744 0.96108 0.13855 0.0
C897 C 0.92563 0.93328 0.13579 0.0
C898 C 0.89188 0.94244 0.13881 0.0
H899 H 0.74228 0.02824 0.14816 0.0
H900 H 0.79418 1.00669 0.1553 0.0
H901 H 0.81755 0.91091 0.13807 0.0
H902 H 0.96747 0.88713 0.10895 0.0
H903 H 0.91461 0.89271 0.12024 0.0
C904 C 1.00636 0.26869 0.35951 0.0
C905 C 1.01772 0.29365 0.36938 0.0
C906 C 0.02224 0.23977 0.35893 0.0
C907 C 0.09782 0.19927 0.36937 0.0
H908 H 0.04366 0.12595 0.37416 0.0
C909 C 0.13838 0.08134 0.39774 0.0
C910 C 0.12219 0.05338 0.39381 0.0
C911 C 0.13061 0.10982 0.38997 0.0
C912 C 0.05929 0.14594 0.37239 0.0
H913 H 0.05552 0.30805 0.38591 0.0
H914 H 0.08314 0.25739 0.38504 0.0
H915 H 0.02026 0.17766 0.37033 0.0
H916 H 0.08625 0.03296 0.37804 0.0
H917 H 0.07341 0.08238 0.36389 0.0
H918 H 0.13688 0.16743 0.37189 0.0
C919 C 0.06203 0.26032 0.3776 0.0
C920 C 0.04577 0.17578 0.37026 0.0
C921 C 0.04611 0.28935 0.37816 0.0
C922 C 0.09984 0.0539 0.38095 0.0
C923 C 0.09202 0.08245 0.37312 0.0
C924 C 0.11139 0.16931 0.37144 0.0
C925 C 0.04993 0.23492 0.36823 0.0
C926 C 0.06479 0.20295 0.36903 0.0
C927 C 0.10609 0.11109 0.37819 0.0
C928 C 0.09228 0.14227 0.37332 0.0
H929 H 0.98472 0.27121 0.35245 0.0
H930 H 1.01253 0.22099 0.35134 0.0
H931 H 0.11321 0.2196 0.3682 0.0
H932 H 0.1549 0.08183 0.40803 0.0
H933 H 0.14183 0.13123 0.39439 0.0
C934 C 0.24646 0.07156 0.39013 0.0
C935 C 0.23486 0.04493 0.38166 0.0
C936 C 0.27623 0.08402 0.38633 0.0
C937 C 0.3531 0.05763 0.37226 0.0
H938 H 0.37384 0.14682 0.37153 0.0
C939 C 0.48194 0.09423 0.37917 0.0
C940 C 0.48695 0.11849 0.39072 0.0
C941 C 0.4521 0.08988 0.372 0.0
C942 C 0.36858 0.1218 0.37178 0.0
H943 H 0.24492 1.01125 0.36207 0.0
H944 H 0.29729 0.0327 0.35564 0.0
H945 H 0.31857 0.13017 0.37107 0.0
H946 H 0.46571 0.15844 0.40308 0.0
H947 H 0.41366 0.15073 0.39107 0.0
H948 H 0.40252 0.04891 0.37419 0.0
C949 C 0.28318 0.04401 0.36517 0.0
C950 C 0.33685 0.1123 0.37143 0.0
C951 C 0.25314 0.03184 0.36879 0.0
C952 C 0.46255 0.14 0.39388 0.0
C953 C 0.43255 0.13537 0.387 0.0
C954 C 0.38475 0.06709 0.37287 0.0
C955 C 0.29531 0.06986 0.37413 0.0
C956 C 0.32875 0.08011 0.37204 0.0
C957 C 0.42641 0.10914 0.37669 0.0
C958 C 0.39304 0.09936 0.37306 0.0
H959 H 0.23292 0.08225 0.40008 0.0
H960 H 0.28498 0.10376 0.39356 0.0
H961 H 0.34767 0.03266 0.37295 0.0
H962 H 0.50028 0.07699 0.37678 0.0
H963 H 0.4487 0.07004 0.36371 0.0
C964 C 0.44505 0.48118 0.38031 0.0
C965 C 0.41896 0.48626 0.39074 0.0
C966 C 0.45062 0.45129 0.37342 0.0
C967 C 0.43648 0.36924 0.38588 0.0
H968 H 0.48223 0.34902 0.34554 0.0
C969 C 0.48716 0.24424 0.37552 0.0
C970 C 0.51815 0.24293 0.36924 0.0
C971 C 0.46996 0.27251 0.37504 0.0
C972 C 0.46958 0.35427 0.35691 0.0
H973 H 0.37762 0.46436 0.40158 0.0
H974 H 0.38611 0.41295 0.38886 0.0
H975 H 0.46 0.40183 0.34917 0.0
H976 H 0.5548 0.27017 0.35696 0.0
H977 H 0.52525 0.31929 0.35642 0.0
H978 H 0.44706 0.32239 0.39399 0.0
C979 C 0.40252 0.43187 0.38606 0.0
C980 C 0.45673 0.38456 0.35895 0.0
C981 C 0.39713 0.46166 0.39301 0.0
C982 C 0.53101 0.27024 0.36192 0.0
C983 C 0.5139 0.29848 0.36149 0.0
C984 C 0.44939 0.33909 0.38387 0.0
C985 C 0.4303 0.4258 0.37699 0.0
C986 C 0.44044 0.39261 0.37359 0.0
C987 C 0.48334 0.30023 0.36832 0.0
C988 C 0.46664 0.33129 0.3695 0.0
H989 H 0.46286 0.49938 0.37887 0.0
H990 H 0.47237 0.44753 0.36661 0.0
H991 H 0.42473 0.37465 0.39749 0.0
H992 H 0.47643 0.22362 0.38117 0.0
H993 H 0.44631 0.27275 0.38017 0.0
C994 C 0.07416 0.40033 0.39402 0.0
C995 C 0.0497 0.42123 0.38995 0.0
C996 C 0.10471 0.40515 0.38782 0.0
C997 C 0.15292 0.47317 0.37311 0.0
H998 H 0.21996 0.41093 0.37412 0.0
C999 C 0.28491 0.5086 0.36859 0.0
C1000 C 0.30286 0.49761 0.3821 0.0
C1001 C 0.25484 0.49602 0.36538 0.0
C1002 C 0.20145 0.42855 0.3737 0.0
H1003 H 0.03712 0.46187 0.37515 0.0
H1004 H 0.08963 0.4689 0.36318 0.0
H1005 H 0.16492 0.39357 0.37424 0.0
H1006 H 0.30413 0.4636 0.40223 0.0
H1007 H 0.25211 0.44119 0.39638 0.0
H1008 H 0.18963 0.50805 0.3726 0.0
C1009 C 0.08585 0.44948 0.3717 0.0
C1010 C 0.16981 0.41866 0.37387 0.0
C1011 C 0.05544 0.44501 0.37821 0.0
C1012 C 0.29084 0.47264 0.39175 0.0
C1013 C 0.26111 0.45967 0.38835 0.0
C1014 C 0.1845 0.48298 0.37264 0.0
C1015 C 0.11141 0.43091 0.37726 0.0
C1016 C 0.14498 0.44085 0.3741 0.0
C1017 C 0.24241 0.47174 0.3754 0.0
C1018 C 0.20913 0.46086 0.3734 0.0
H1019 H 0.07048 0.38233 0.40341 0.0
H1020 H 0.12342 0.3903 0.39258 0.0
H1021 H 0.13489 0.49123 0.37362 0.0
H1022 H 0.29344 0.5279 0.36096 0.0
H1023 H 0.241 0.50571 0.35527 0.0
C1024 C 0.52908 0.2656 0.86438 0.0
C1025 C 0.51631 0.29319 0.87142 0.0
C1026 C 0.51163 0.23754 0.86386 0.0
C1027 C 0.44492 0.19728 0.88494 0.0
H1028 H 0.45814 0.13503 0.85026 0.0
C1029 C 0.39355 0.07283 0.89226 0.0
C1030 C 0.4168 0.04937 0.89088 0.0
C1031 C 0.39878 0.10305 0.88565 0.0
C1032 C 0.45406 0.15218 0.86002 0.0
H1033 H 0.47449 0.31301 0.88295 0.0
H1034 H 0.44373 0.26411 0.8818 0.0
H1035 H 0.48049 0.1879 0.84725 0.0
H1036 H 0.4625 0.03818 0.88048 0.0
H1037 H 0.47132 0.09032 0.86848 0.0
H1038 H 0.41912 0.16138 0.89787 0.0
C1039 C 0.46757 0.26405 0.87692 0.0
C1040 C 0.46704 0.18251 0.85835 0.0
C1041 C 0.48513 0.2922 0.87748 0.0
C1042 C 0.44384 0.0556 0.88132 0.0
C1043 C 0.44898 0.08568 0.87459 0.0
C1044 C 0.43178 0.16704 0.88655 0.0
C1045 C 0.48074 0.23615 0.87031 0.0
C1046 C 0.46341 0.20527 0.871 0.0
C1047 C 0.42736 0.1103 0.8775 0.0
C1048 C 0.43683 0.14381 0.87431 0.0
H1049 H 0.55301 0.26536 0.85961 0.0
H1050 H 0.52292 0.21661 0.85893 0.0
H1051 H 0.44186 0.21385 0.89506 0.0
H1052 H 0.37287 0.06884 0.89992 0.0
H1053 H 0.38141 0.12131 0.88791 0.0
C1054 C 0.4655 0.39905 0.89063 0.0
C1055 C 0.48752 0.42378 0.88968 0.0
C1056 C 0.4352 0.40271 0.88386 0.0
C1057 C 0.38385 0.45522 0.85822 0.0
H1058 H 0.32297 0.44219 0.8936 0.0
C1059 C 0.26955 0.52795 0.86284 0.0
C1060 C 0.24243 0.51505 0.87033 0.0
C1061 C 0.29773 0.51083 0.86212 0.0
C1062 C 0.3393 0.44539 0.88337 0.0
H1063 H 0.49635 0.47049 0.87991 0.0
H1064 H 0.44411 0.47656 0.86757 0.0
H1065 H 0.37606 0.42104 0.89635 0.0
H1066 H 0.22345 0.47336 0.88241 0.0
H1067 H 0.27252 0.44311 0.88085 0.0
H1068 H 0.34731 0.48018 0.84538 0.0
C1069 C 0.44992 0.45433 0.87348 0.0
C1070 C 0.36987 0.43319 0.88496 0.0
C1071 C 0.47998 0.45082 0.88044 0.0
C1072 C 0.24392 0.48407 0.87659 0.0
C1073 C 0.27216 0.4668 0.87579 0.0
C1074 C 0.35316 0.46718 0.85655 0.0
C1075 C 0.4266 0.43108 0.87594 0.0
C1076 C 0.39281 0.43875 0.87263 0.0
C1077 C 0.29964 0.48014 0.86878 0.0
C1078 C 0.33073 0.46333 0.86935 0.0
H1079 H 0.47056 0.37829 0.89805 0.0
H1080 H 0.41787 0.38424 0.88582 0.0
H1081 H 0.40086 0.45965 0.84843 0.0
H1082 H 0.26937 0.55177 0.85793 0.0
H1083 H 0.31835 0.52226 0.8569 0.0
C1084 C 0.04677 0.24636 0.87384 0.0
C1085 C 1.01487 0.2445 0.86906 0.0
C1086 C 0.06332 0.27505 0.87271 0.0
C1087 C 0.0577 0.35758 0.85544 0.0
H1088 H 0.11112 0.37824 0.89301 0.0
C1089 C 0.07655 0.48254 0.8817 0.0
C1090 C 0.10558 0.49021 0.88908 0.0
C1091 C 0.07193 0.45296 0.87436 0.0
C1092 C 0.09684 0.37271 0.88222 0.0
H1093 H 0.97573 0.27125 0.85887 0.0
H1094 H 1.00397 0.32095 0.85735 0.0
H1095 H 0.09053 0.32491 0.89011 0.0
H1096 H 0.15315 0.47393 0.89375 0.0
H1097 H 0.14515 0.42198 0.88093 0.0
H1098 H 0.06256 0.40616 0.84823 0.0
C1099 C 1.01668 0.30033 0.86163 0.0
C1100 C 0.08497 0.34199 0.88053 0.0
C1101 C 1.00029 0.2717 0.86262 0.0
C1102 C 0.13078 0.46885 0.88778 0.0
C1103 C 0.12602 0.43894 0.88069 0.0
C1104 C 0.06928 0.38841 0.85725 0.0
C1105 C 0.04831 0.30264 0.86689 0.0
C1106 C 0.06451 0.33413 0.86736 0.0
C1107 C 0.09609 0.43018 0.87459 0.0
C1108 C 0.08839 0.39653 0.87088 0.0
H1109 H 0.0588 0.22584 0.87878 0.0
H1110 H 0.08777 0.27564 0.87663 0.0
H1111 H 0.04271 0.35238 0.84489 0.0
H1112 H 0.05662 0.49843 0.88285 0.0
H1113 H 0.04855 0.44697 0.86988 0.0
C1114 C 0.26247 1.00538 0.86421 0.0
C1115 C 0.29053 1.01827 0.87067 0.0
C1116 C 0.23466 0.02317 0.86368 0.0
C1117 C 0.19674 0.09176 0.88413 0.0
H1118 H 0.13188 0.07695 0.851 0.0
C1119 C 0.07391 0.14515 0.89307 0.0
C1120 C 0.05004 0.12215 0.89265 0.0
C1121 C 0.10345 0.13913 0.88585 0.0
C1122 C 0.14978 0.08148 0.86031 0.0
H1123 H 0.31155 0.06068 0.88098 0.0
H1124 H 0.26315 0.092 0.87976 0.0
H1125 H 0.18421 0.0537 0.84739 0.0
H1126 H 0.03734 0.07595 0.8834 0.0
H1127 H 0.08832 0.06567 0.87039 0.0
H1128 H 0.16217 0.11888 0.89724 0.0
C1129 C 0.26247 0.06781 0.8754 0.0
C1130 C 0.1798 0.068 0.85831 0.0
C1131 C 0.29034 0.04991 0.87601 0.0
C1132 C 0.05507 0.09443 0.88348 0.0
C1133 C 0.08448 0.08846 0.87616 0.0
C1134 C 0.16684 0.10539 0.88607 0.0
C1135 C 0.23406 0.05451 0.8695 0.0
C1136 C 0.20347 0.07223 0.87042 0.0
C1137 C 0.10961 0.10994 0.87809 0.0
C1138 C 0.1427 0.0998 0.87441 0.0
H1139 H 0.26165 0.98109 0.86 0.0
H1140 H 0.21332 1.01181 0.85928 0.0
H1141 H 0.21403 0.09529 0.89387 0.0
H1142 H 0.07084 0.16638 0.90041 0.0
H1143 H 0.12213 0.1564 0.88735 0.0
C1144 C 0.03066 0.76858 0.64663 0.0
C1145 C 1.01696 0.74146 0.63956 0.0
C1146 C 1.01396 0.79703 0.64742 0.0
C1147 C 0.94761 0.83889 0.62699 0.0
H1148 H 0.96501 0.90138 0.66104 0.0
C1149 C 0.90129 0.96541 0.61991 0.0
C1150 C 0.92609 0.98742 0.62025 0.0
C1151 C 0.90547 0.93514 0.62665 0.0
C1152 C 0.95972 0.88412 0.65149 0.0
H1153 H 0.97425 0.72277 0.6284 0.0
H1154 H 0.94477 0.77227 0.63011 0.0
H1155 H 0.98525 0.84774 0.66415 0.0
H1156 H 0.9736 0.9962 0.62891 0.0
H1157 H 0.98059 0.94406 0.64123 0.0
H1158 H 0.92261 0.87548 0.6142 0.0
C1159 C 0.96877 0.77173 0.63474 0.0
C1160 C 0.97151 0.85337 0.6532 0.0
C1161 C 0.9856 0.74323 0.63386 0.0
C1162 C 0.95388 0.97985 0.62885 0.0
C1163 C 0.95792 0.94985 0.6358 0.0
C1164 C 0.93557 0.86953 0.62538 0.0
C1165 C 0.98292 0.79923 0.64127 0.0
C1166 C 0.96649 0.83055 0.64071 0.0
C1167 C 0.93444 0.92656 0.63397 0.0
C1168 C 0.94223 0.89279 0.63737 0.0
H1169 H 0.05478 0.76821 0.65111 0.0
H1170 H 0.02601 0.81762 0.65227 0.0
H1171 H 0.94348 0.82228 0.61699 0.0
H1172 H 0.87993 0.97046 0.61298 0.0
H1173 H 0.88682 0.91783 0.62519 0.0
C1174 C 0.79179 0.98345 0.63127 0.0
C1175 C 0.79268 1.01424 0.63782 0.0
C1176 C 0.76367 0.96585 0.63152 0.0
C1177 C 0.682 0.96397 0.64982 0.0
H1178 H 0.66162 0.9189 0.60931 0.0
C1179 C 0.55536 0.94033 0.62631 0.0
C1180 C 0.54979 0.914 0.61614 0.0
C1181 C 0.5853 0.94558 0.63318 0.0
C1182 C 0.66707 0.93073 0.6209 0.0
H1183 H 0.76478 0.05023 0.65017 0.0
H1184 H 0.71601 0.02006 0.6503 0.0
H1185 H 0.71384 0.94175 0.61269 0.0
H1186 H 0.57056 0.87164 0.60588 0.0
H1187 H 0.62254 0.88009 0.61829 0.0
H1188 H 0.63452 0.95407 0.65763 0.0
C1189 C 0.73701 1.0091 0.64523 0.0
C1190 C 0.69717 0.94393 0.62283 0.0
C1191 C 0.76506 0.02659 0.64503 0.0
C1192 C 0.5739 0.8916 0.61412 0.0
C1193 C 0.60389 0.89683 0.62095 0.0
C1194 C 0.65179 0.95089 0.64784 0.0
C1195 C 0.73572 0.97863 0.63827 0.0
C1196 C 0.7049 0.96136 0.63716 0.0
C1197 C 0.61042 0.92478 0.62979 0.0
C1198 C 0.64372 0.93462 0.6332 0.0
H1199 H 0.81265 0.97313 0.62568 0.0
H1200 H 0.76378 0.94232 0.62626 0.0
H1201 H 0.68721 0.97665 0.66119 0.0
H1202 H 0.53755 0.95853 0.62755 0.0
H1203 H 0.58944 0.96747 0.6398 0.0
C1204 C 0.53783 0.78685 0.63842 0.0
C1205 C 0.5359 0.79909 0.62219 0.0
C1206 C 0.55254 0.75764 0.64141 0.0
C1207 C 0.60581 0.69807 0.62144 0.0
H1208 H 0.56328 0.63816 0.6502 0.0
C1209 C 0.64204 0.56884 0.61828 0.0
C1210 C 0.61649 0.54796 0.6167 0.0
C1211 C 0.63759 0.59916 0.62487 0.0
C1212 C 0.57554 0.65455 0.64212 0.0
H1213 H 0.54866 0.79043 0.59645 0.0
H1214 H 0.5736 0.73996 0.60155 0.0
H1215 H 0.5451 0.69275 0.64911 0.0
H1216 H 0.56672 0.54162 0.62166 0.0
H1217 H 0.55861 0.59424 0.63283 0.0
H1218 H 0.6347 0.6598 0.61345 0.0
C1219 C 0.56433 0.75288 0.61209 0.0
C1220 C 0.5653 0.68606 0.64165 0.0
C1221 C 0.54972 0.78187 0.60913 0.0
C1222 C 0.58703 0.55697 0.62315 0.0
C1223 C 0.5824 0.58739 0.6295 0.0
C1224 C 0.61583 0.66663 0.62179 0.0
C1225 C 0.56577 0.74012 0.62823 0.0
C1226 C 0.57964 0.70801 0.63086 0.0
C1227 C 0.60722 0.60958 0.62956 0.0
C1228 C 0.60027 0.64408 0.63175 0.0
H1229 H 0.52743 0.7995 0.64876 0.0
H1230 H 0.55341 0.74872 0.65401 0.0
H1231 H 0.61796 0.7144 0.61327 0.0
H1232 H 0.66462 0.5632 0.61275 0.0
H1233 H 0.65752 0.61521 0.62506 0.0
C1234 C 0.75439 0.54871 0.61079 0.0
C1235 C 0.73672 0.53481 0.62366 0.0
C1236 C 0.78309 0.5637 0.61408 0.0
C1237 C 0.8488 0.56402 0.64397 0.0
H1238 H 0.87645 0.63381 0.61637 0.0
C1239 C 0.97664 0.58139 0.62337 0.0
C1240 C 0.98691 0.6109 0.61757 0.0
C1241 C 0.9466 0.57786 0.63033 0.0
C1242 C 0.86917 0.61483 0.62453 0.0
H1243 H 0.73509 0.52662 0.65025 0.0
H1244 H 0.78549 0.55305 0.65605 0.0
H1245 H 0.82138 0.61795 0.61607 0.0
H1246 H 0.97501 0.66039 0.61569 0.0
H1247 H 0.92292 0.65471 0.62853 0.0
H1248 H 0.89677 0.56067 0.65227 0.0
C1249 C 0.77708 0.55207 0.64335 0.0
C1250 C 0.83751 0.60537 0.62415 0.0
C1251 C 0.74812 0.53707 0.64005 0.0
C1252 C 0.968 0.63752 0.62046 0.0
C1253 C 0.93782 0.63405 0.62747 0.0
C1254 C 0.88051 0.57361 0.64444 0.0
C1255 C 0.79509 0.56532 0.63036 0.0
C1256 C 0.82716 0.57901 0.63331 0.0
C1257 C 0.92601 0.60384 0.63156 0.0
C1258 C 0.89142 0.59834 0.6342 0.0
H1259 H 0.74643 0.54743 0.59801 0.0
H1260 H 0.79644 0.57304 0.60369 0.0
H1261 H 0.84173 0.54366 0.65124 0.0
H1262 H 0.99066 0.56044 0.62103 0.0
H1263 H 0.93857 0.55419 0.63318 0.0
C1264 C 0.54934 0.35645 0.99584 0.0
C1265 C 0.52716 0.34377 0.98463 0.0
C1266 C 0.5501 0.346 0.01231 0.0
C1267 C 0.51581 0.28332 0.04038 0.0
H1268 H 0.6033 0.25641 0.04085 0.0
C1269 C 0.56543 0.17169 0.0747 0.0
C1270 C 0.58521 0.15325 0.06451 0.0
C1271 C 0.55469 0.20112 0.06925 0.0
C1272 C 0.57882 0.26386 0.04099 0.0
H1273 H 0.48469 0.31515 0.98288 0.0
H1274 H 0.48725 0.2956 0.01095 0.0
H1275 H 0.58897 0.30365 0.0259 0.0
H1276 H 0.60734 0.15007 0.04023 0.0
H1277 H 0.58842 0.20122 0.03073 0.0
H1278 H 0.50584 0.24142 0.05448 0.0
C1279 C 0.50408 0.31357 0.00728 0.0
C1280 C 0.57055 0.29138 0.03265 0.0
C1281 C 0.50292 0.32446 0.99096 0.0
C1282 C 0.5924 0.16383 0.04842 0.0
C1283 C 0.58182 0.19322 0.04305 0.0
C1284 C 0.52417 0.25557 0.04872 0.0
C1285 C 0.52934 0.32212 0.01768 0.0
C1286 C 0.53866 0.30045 0.03136 0.0
C1287 C 0.56375 0.21253 0.05361 0.0
C1288 C 0.55549 0.24478 0.04822 0.0
H1289 H 0.56808 0.37198 0.99177 0.0
H1290 H 0.56911 0.35407 0.02026 0.0
H1291 H 0.49115 0.29003 0.03994 0.0
H1292 H 0.55934 0.16405 0.08714 0.0
H1293 H 0.54052 0.2155 0.07753 0.0
C1294 C 0.24471 0.49006 0.98002 0.0
C1295 C 0.21597 0.5053 0.97656 0.0
C1296 C 0.25669 0.48954 0.99612 0.0
C1297 C 0.28102 0.49405 0.03109 0.0
H1298 H 0.28093 0.58353 0.04134 0.0
C1299 C 0.37559 0.55981 0.07143 0.0
C1300 C 0.38911 0.58502 0.0625 0.0
C1301 C 0.34881 0.54433 0.06536 0.0
C1302 C 0.28082 0.55837 0.03885 0.0
H1303 H 0.17442 0.52642 0.98801 0.0
H1304 H 0.19603 0.52649 0.01603 0.0
H1305 H 0.2395 0.56181 0.02392 0.0
H1306 H 0.38595 0.61313 0.04002 0.0
H1307 H 0.33914 0.58624 0.0295 0.0
H1308 H 0.3241 0.49155 0.04507 0.0
C1309 C 0.20961 0.51574 0.00612 0.0
C1310 C 0.25686 0.54577 0.02905 0.0
C1311 C 0.1975 0.51615 0.98997 0.0
C1312 C 0.37606 0.59382 0.04717 0.0
C1313 C 0.34911 0.57869 0.04125 0.0
C1314 C 0.30499 0.50671 0.04101 0.0
C1315 C 0.24018 0.50421 0.00914 0.0
C1316 C 0.25785 0.5139 0.02418 0.0
C1317 C 0.33497 0.55425 0.05044 0.0
C1318 C 0.30598 0.5393 0.04407 0.0
H1319 H 0.25936 0.48076 0.97013 0.0
H1320 H 0.28034 0.48045 0.99796 0.0
H1321 H 0.28209 0.46931 0.02771 0.0
H1322 H 0.38531 0.55246 0.08327 0.0
H1323 H 0.3384 0.52531 0.07253 0.0
C1324 C 0.02411 0.20996 0.99775 0.0
C1325 C 0.99905 0.19326 0.99041 0.0
C1326 C 0.02213 0.21981 0.01423 0.0
C1327 C 0.95476 0.24658 0.03762 0.0
H1328 H 0.02075 0.2913 0.06138 0.0
C1329 C 0.94241 0.37598 0.05171 0.0
C1330 C 0.94854 0.38665 0.0679 0.0
C1331 C 0.95092 0.34551 0.047 0.0
C1332 C 1.00199 0.27864 0.05509 0.0
H1333 H 0.95526 0.16823 0.99565 0.0
H1334 H 0.95256 0.18429 0.02454 0.0
H1335 H 0.03297 0.24142 0.04744 0.0
H1336 H 0.97055 0.37466 0.09146 0.0
H1337 H 0.98585 0.3213 0.08301 0.0
H1338 H 0.92417 0.28432 0.04469 0.0
C1339 C 0.97307 0.19113 0.01732 0.0
C1340 C 1.00895 0.25014 0.04708 0.0
C1341 C 0.97477 0.18167 1.00069 0.0
C1342 C 0.96536 0.36702 0.07891 0.0
C1343 C 0.97405 0.33648 0.07413 0.0
C1344 C 0.94787 0.27482 0.04564 0.0
C1345 C 0.99508 0.21291 0.02371 0.0
C1346 C 0.98589 0.23493 0.03729 0.0
C1347 C 0.96585 0.32516 0.05834 0.0
C1348 C 0.97185 0.29206 0.05352 0.0
H1349 H 0.04376 0.21832 0.9903 0.0
H1350 H 0.03996 0.23608 0.01868 0.0
H1351 H 0.9362 0.23584 0.03029 0.0
H1352 H 0.92977 0.39059 0.04289 0.0
H1353 H 0.94513 0.33756 0.03457 0.0
C1354 C 0.35739 0.96898 0.99944 0.0
C1355 C 0.34751 0.99484 0.98978 0.0
C1356 C 0.34873 0.96696 0.01618 0.0
C1357 C 0.29419 0.95306 0.03838 0.0
H1358 H 0.26168 0.02151 0.06547 0.0
C1359 C 0.16722 0.95707 0.05764 0.0
C1360 C 0.16047 0.95736 0.07472 0.0
C1361 C 0.19763 0.96353 0.05202 0.0
C1362 C 0.27106 1.00205 0.05826 0.0
H1363 H 0.32569 0.04112 0.99076 0.0
H1364 H 0.30945 0.03701 0.01946 0.0
H1365 H 0.30949 0.0297 0.04876 0.0
H1366 H 0.17968 0.96714 0.09923 0.0
H1367 H 0.23312 0.97914 0.08917 0.0
H1368 H 0.25477 0.92614 0.04706 0.0
C1369 C 0.32392 1.01827 0.01438 0.0
C1370 C 0.29829 1.00669 0.04867 0.0
C1371 C 0.33286 0.02045 0.99775 0.0
C1372 C 0.18424 0.96656 0.08598 0.0
C1373 C 0.21476 0.97337 0.08029 0.0
C1374 C 0.26714 0.94852 0.04789 0.0
C1375 C 0.32959 0.99041 0.0234 0.0
C1376 C 0.309 0.98282 0.03783 0.0
C1377 C 0.22181 0.97074 0.06333 0.0
C1378 C 0.25441 0.9735 0.05713 0.0
H1379 H 0.36901 0.94887 0.99384 0.0
H1380 H 0.35431 0.94558 0.02296 0.0
H1381 H 0.3014 0.93409 0.0302 0.0
H1382 H 0.14943 0.95035 0.04863 0.0
H1383 H 0.20256 0.96193 0.03882 0.0
C1384 C 0.04085 0.68796 0.51308 0.0
C1385 C 0.02141 0.70279 0.52497 0.0
C1386 C 0.04045 0.69799 0.49654 0.0
C1387 C 1.00856 0.76306 0.46929 0.0
H1388 H 0.09783 0.78264 0.46603 0.0
C1389 C 0.06412 0.87157 0.4344 0.0
C1390 C 0.08541 0.88835 0.44455 0.0
C1391 C 0.05173 0.84263 0.43965 0.0
C1392 C 0.07284 0.77717 0.46663 0.0
H1393 H 0.98199 0.73513 0.52794 0.0
H1394 H 0.98277 0.75381 0.4997 0.0
H1395 H 0.08123 0.73651 0.48134 0.0
H1396 H 0.1088 0.88905 0.46854 0.0
H1397 H 0.08714 0.83868 0.47767 0.0
H1398 H 1.00066 0.80587 0.45561 0.0
C1399 C 0.99833 0.73449 0.50292 0.0
C1400 C 0.06319 0.75033 0.47519 0.0
C1401 C 0.99828 0.72408 0.51934 0.0
C1402 C 0.09266 0.8766 0.46039 0.0
C1403 C 0.08051 0.84765 0.46555 0.0
C1404 C 1.01832 0.79012 0.46071 0.0
C1405 C 0.02132 0.72351 0.49172 0.0
C1406 C 0.03085 0.74405 0.47759 0.0
C1407 C 0.06072 0.83002 0.45503 0.0
C1408 C 0.05044 0.79825 0.46025 0.0
H1409 H 0.05847 0.67077 0.51656 0.0
H1410 H 0.05757 0.68808 0.488 0.0
H1411 H 0.9835 0.75848 0.47056 0.0
H1412 H 0.05795 0.88018 0.42214 0.0
H1413 H 0.03624 0.82954 0.43143 0.0
C1414 C 0.81701 1.00036 0.52116 0.0
C1415 C 0.83746 0.024 0.5271 0.0
C1416 C 0.80622 1.00105 0.50481 0.0
C1417 C 0.77827 1.01106 0.47091 0.0
H1418 H 0.75347 0.09904 0.46834 0.0
C1419 C 0.671 0.06234 0.43325 0.0
C1420 C 0.65183 0.08203 0.4431 0.0
C1421 C 0.69979 0.05112 0.43937 0.0
C1422 C 0.76042 0.07442 0.46875 0.0
H1423 H 0.86726 0.06338 0.51929 0.0
H1424 H 0.84934 0.06363 0.49083 0.0
H1425 H 0.79926 0.08459 0.48452 0.0
H1426 H 0.64668 0.10361 0.46742 0.0
H1427 H 0.69679 0.08406 0.47803 0.0
H1428 H 0.7373 1.00119 0.45604 0.0
C1429 C 0.84048 0.04543 0.49909 0.0
C1430 C 0.78706 0.06607 0.47782 0.0
C1431 C 0.8509 0.04514 0.51555 0.0
C1432 C 0.66102 0.08875 0.45948 0.0
C1433 C 0.6898 0.07778 0.4655 0.0
C1434 C 0.75144 0.01952 0.46179 0.0
C1435 C 0.81598 0.02521 0.49398 0.0
C1436 C 0.79526 0.0341 0.47984 0.0
C1437 C 0.70982 0.05971 0.45533 0.0
C1438 C 0.74144 0.05109 0.46148 0.0
H1439 H 0.80697 0.98293 0.52949 0.0
H1440 H 0.78763 0.98475 0.50135 0.0
H1441 H 0.78433 0.9863 0.47195 0.0
H1442 H 0.66441 0.0566 0.4206 0.0
H1443 H 0.71478 0.03697 0.43139 0.0
C1444 C 0.47537 0.67639 0.42997 0.0
C1445 C 0.45707 0.6568 0.44036 0.0
C1446 C 0.4844 0.70656 0.43524 0.0
C1447 C 0.45647 0.76837 0.46279 0.0
H1448 H 0.54288 0.79767 0.46681 0.0
C1449 C 0.47745 0.85822 0.51048 0.0
C1450 C 0.49789 0.84426 0.5221 0.0
C1451 C 0.47933 0.84966 0.49371 0.0
C1452 C 0.51854 0.79017 0.46548 0.0
H1453 H 0.43573 0.65265 0.46481 0.0
H1454 H 0.45143 0.70514 0.47394 0.0
H1455 H 0.53153 0.74906 0.45141 0.0
H1456 H 0.53987 0.81561 0.52499 0.0
H1457 H 0.54253 0.79991 0.49619 0.0
H1458 H 0.44329 0.80728 0.47789 0.0
C1459 C 0.45833 0.69733 0.46163 0.0
C1460 C 0.51211 0.7624 0.45665 0.0
C1461 C 0.4496 0.66719 0.45646 0.0
C1462 C 0.52325 0.82599 0.51633 0.0
C1463 C 0.52497 0.81727 0.49967 0.0
C1464 C 0.46281 0.79596 0.47157 0.0
C1465 C 0.47493 0.7176 0.4509 0.0
C1466 C 0.48123 0.75037 0.45619 0.0
C1467 C 0.50124 0.82669 0.48849 0.0
C1468 C 0.49417 0.80604 0.474 0.0
H1469 H 0.48162 0.66895 0.41751 0.0
H1470 H 0.4975 0.72173 0.42686 0.0
H1471 H 0.43234 0.75984 0.46223 0.0
H1472 H 0.45787 0.87278 0.51448 0.0
H1473 H 0.46135 0.85822 0.48526 0.0
C1474 C 0.72481 0.53133 0.5216 0.0
C1475 C 0.70349 0.50747 0.52622 0.0
C1476 C 0.7336 0.535 0.50502 0.0
C1477 C 0.75951 0.53152 0.47046 0.0
H1478 H 0.77841 0.4432 0.46266 0.0
C1479 C 0.8671 0.48115 0.43243 0.0
C1480 C 0.88427 0.45905 0.44189 0.0
C1481 C 0.83814 0.49269 0.43819 0.0
C1482 C 0.77306 0.46798 0.46449 0.0
H1483 H 0.67005 0.47292 0.51676 0.0
H1484 H 0.68472 0.48002 0.4878 0.0
H1485 H 0.73277 0.45714 0.47911 0.0
H1486 H 0.88553 0.43321 0.46517 0.0
H1487 H 0.8351 0.45327 0.47513 0.0
H1488 H 0.80199 0.54169 0.45685 0.0
C1489 C 0.69558 0.49511 0.49705 0.0
C1490 C 0.74653 0.47614 0.47373 0.0
C1491 C 0.687 0.49118 0.51371 0.0
C1492 C 0.87282 0.45004 0.45755 0.0
C1493 C 0.84384 0.46128 0.46319 0.0
C1494 C 0.78622 0.52327 0.46117 0.0
C1495 C 0.72114 0.51482 0.49278 0.0
C1496 C 0.74063 0.50791 0.47783 0.0
C1497 C 0.82587 0.48197 0.45335 0.0
C1498 C 0.79414 0.49135 0.45907 0.0
H1499 H 0.73722 0.54495 0.53095 0.0
H1500 H 0.75303 0.55082 0.5023 0.0
H1501 H 0.75523 0.55624 0.47307 0.0
H1502 H 0.87546 0.48866 0.42033 0.0
H1503 H 0.82478 0.5089 0.43051 0.0
C1504 C 0.47849 0.86437 0.92824 0.0
C1505 C 0.46564 0.88738 0.93889 0.0
C1506 C 0.49686 0.83983 0.93465 0.0
C1507 C 0.50669 0.77941 0.95472 0.0
H1508 H 0.55854 0.79072 0.99392 0.0
C1509 C 0.49408 0.7062 0.01238 0.0
C1510 C 0.51737 0.70794 0.02473 0.0
C1511 C 0.49983 0.71894 0.99665 0.0
C1512 C 0.54496 0.78667 0.98272 0.0
H1513 H 0.46378 0.90414 0.96433 0.0
H1514 H 0.4956 0.86136 0.97553 0.0
H1515 H 0.54758 0.83554 0.97618 0.0
H1516 H 0.56628 0.71945 0.02975 0.0
H1517 H 0.57681 0.74051 1.00207 0.0
H1518 H 0.5029 0.73074 0.96168 0.0
C1519 C 0.49166 0.86222 0.96223 0.0
C1520 C 0.53835 0.81262 0.97266 0.0
C1521 C 0.47313 0.88657 0.95586 0.0
C1522 C 0.54779 0.71836 0.02045 0.0
C1523 C 0.55373 0.73055 0.00464 0.0
C1524 C 0.51346 0.75332 0.96475 0.0
C1525 C 0.50298 0.83811 0.95177 0.0
C1526 C 0.51755 0.80963 0.95919 0.0
C1527 C 0.52907 0.73333 0.99303 0.0
C1528 C 0.53098 0.7571 0.97946 0.0
H1529 H 0.47325 0.8645 0.91507 0.0
H1530 H 0.50544 0.82168 0.9263 0.0
H1531 H 0.4907 0.77631 0.94434 0.0
H1532 H 0.47037 0.69836 0.01536 0.0
H1533 H 0.48017 0.72057 0.98809 0.0
C1534 C 0.66868 0.48094 0.93146 0.0
C1535 C 0.65138 0.45983 0.9415 0.0
C1536 C 0.69785 0.49267 0.93681 0.0
C1537 C 0.76296 0.46959 0.96342 0.0
H1538 H 0.78151 0.5583 0.9702 0.0
C1539 C 0.81089 0.53709 0.01929 0.0
C1540 C 0.83169 0.51333 0.02459 0.0
C1541 C 0.80248 0.53947 1.0026 0.0
C1542 C 0.77703 0.53343 0.9681 0.0
H1543 H 0.65014 0.43597 0.96536 0.0
H1544 H 0.70095 0.45633 0.97462 0.0
H1545 H 0.73469 0.54286 0.95427 0.0
H1546 H 0.86474 0.47754 0.01605 0.0
H1547 H 0.85085 0.48251 0.98692 0.0
H1548 H 0.80303 0.45956 0.97829 0.0
C1549 C 0.69214 0.46342 0.96254 0.0
C1550 C 0.75029 0.52466 0.95896 0.0
C1551 C 0.66294 0.45201 0.95731 0.0
C1552 C 0.84812 0.49575 0.01253 0.0
C1553 C 0.83999 0.49845 0.99576 0.0
C1554 C 0.7895 0.47825 0.97251 0.0
C1555 C 0.7102 0.4831 0.95216 0.0
C1556 C 0.74209 0.49267 0.95754 0.0
C1557 C 0.81486 0.51814 0.9909 0.0
C1558 C 0.79561 0.51026 0.976 0.0
H1559 H 0.66024 0.48753 0.91924 0.0
H1560 H 0.7113 0.5081 0.92871 0.0
H1561 H 0.75739 0.44472 0.9621 0.0
H1562 H 0.79859 0.55175 0.02823 0.0
H1563 H 0.78339 0.55534 0.99942 0.0
C1564 C 0.07353 0.662 0.94237 0.0
C1565 C 0.09942 0.64572 0.94914 0.0
C1566 C 0.06719 0.69299 0.94716 0.0
C1567 C 0.10648 0.7629 0.96407 0.0
H1568 H 0.02336 0.78688 0.97974 0.0
C1569 C 0.08532 0.84937 0.01565 0.0
C1570 C 0.0552 0.8626 0.01782 0.0
C1571 C 0.09232 0.83245 1.00128 0.0
C1572 C 0.04651 0.78114 0.97488 0.0
H1573 H 0.13812 0.64842 0.96675 0.0
H1574 H 0.12677 0.70257 0.97526 0.0
H1575 H 0.03105 0.73519 0.96739 0.0
H1576 H 1.01059 0.87271 0.00573 0.0
H1577 H 0.02306 0.84346 0.98045 0.0
H1578 H 0.12223 0.80843 0.9721 0.0
C1579 C 0.11176 0.69146 0.96605 0.0
C1580 C 0.05091 0.75131 0.96796 0.0
C1581 C 0.11791 0.66035 0.96139 0.0
C1582 C 0.03379 0.86217 0.00449 0.0
C1583 C 0.0409 0.84541 0.99004 0.0
C1584 C 0.10203 0.79289 0.97084 0.0
C1585 C 0.08683 0.70824 0.95867 0.0
C1586 C 0.0812 0.74146 0.96324 0.0
C1587 C 0.06934 0.82849 0.98884 0.0
C1588 C 0.07232 0.8017 0.9771 0.0
H1589 H 0.0589 0.6512 0.93289 0.0
H1590 H 0.04767 0.7054 0.94142 0.0
H1591 H 0.12994 0.75599 0.96009 0.0
H1592 H 0.10237 0.84904 0.02567 0.0
H1593 H 0.11446 0.81969 1.00085 0.0
C1594 C 0.70601 0.04673 0.01423 0.0
C1595 C 0.70805 0.02397 0.02684 0.0
C1596 C 0.71875 0.04052 0.99856 0.0
C1597 C 0.78681 0.99554 0.98499 0.0
H1598 H 0.77601 0.04874 0.94623 0.0
C1599 C 0.86411 0.06196 0.93024 0.0
C1600 C 0.88698 0.07516 0.94086 0.0
C1601 C 0.83968 0.04343 0.93669 0.0
C1602 C 0.77924 0.03304 0.95672 0.0
H1603 H 0.72014 0.97546 0.03242 0.0
H1604 H 0.74116 0.96406 0.00484 0.0
H1605 H 0.73053 0.03643 0.96365 0.0
H1606 H 0.90355 0.07757 0.96632 0.0
H1607 H 0.86094 0.04551 0.97759 0.0
H1608 H 0.83571 0.99328 0.97845 0.0
C1609 C 0.73099 0.98711 0.00715 0.0
C1610 C 0.7532 0.02621 0.96679 0.0
C1611 C 0.71883 0.99354 0.02291 0.0
C1612 C 0.8861 0.06795 0.95787 0.0
C1613 C 0.86185 0.04927 0.96428 0.0
C1614 C 0.81271 1.00217 0.97487 0.0
C1615 C 0.73343 1.01132 0.99525 0.0
C1616 C 0.75714 1.00916 0.98165 0.0
C1617 C 0.83792 0.0375 0.95383 0.0
C1618 C 0.80956 0.02266 0.96128 0.0
H1619 H 0.69786 0.07042 0.01696 0.0
H1620 H 0.72012 0.05984 0.98977 0.0
H1621 H 0.791 0.9823 0.99628 0.0
H1622 H 0.8643 0.06699 0.91704 0.0
H1623 H 0.82166 0.03453 0.92835 0.0
C1624 C 0.97396 0.16979 0.57557 0.0
C1625 C 0.95412 0.15021 0.56601 0.0
C1626 C 0.98445 0.19872 0.56926 0.0
C1627 C 0.95898 0.25859 0.53985 0.0
H1628 H 0.04638 0.28538 0.53684 0.0
C1629 C 0.98568 0.35101 0.49359 0.0
C1630 C 1.00734 0.33861 0.48202 0.0
C1631 C 0.98562 0.3402 0.50999 0.0
C1632 C 0.0218 0.27849 0.53782 0.0
H1633 H 0.93161 0.14447 0.54198 0.0
H1634 H 0.94997 0.19481 0.53099 0.0
H1635 H 0.03283 0.23769 0.55256 0.0
H1636 H 0.04937 0.30965 0.47946 0.0
H1637 H 0.04805 0.28958 0.5075 0.0
H1638 H 0.94772 0.29732 0.52422 0.0
C1639 C 0.95688 0.18805 0.54347 0.0
C1640 C 1.01411 0.25128 0.54683 0.0
C1641 C 0.94659 0.15913 0.5497 0.0
C1642 C 0.03161 0.31887 0.48786 0.0
C1643 C 0.03118 0.30768 0.50414 0.0
C1644 C 0.96658 0.2856 0.53088 0.0
C1645 C 0.97503 0.20849 0.55337 0.0
C1646 C 0.98283 0.24028 0.5471 0.0
C1647 C 1.00661 0.31629 0.51498 0.0
C1648 C 0.99829 0.29491 0.52895 0.0
H1649 H 0.98033 0.16341 0.58817 0.0
H1650 H 0.99868 0.21402 0.57704 0.0
H1651 H 0.93455 0.25092 0.54026 0.0
H1652 H 0.96686 0.3667 0.48985 0.0
H1653 H 0.96707 0.34819 0.51826 0.0
C1654 C 0.21774 0.04821 0.48761 0.0
C1655 C 0.20773 1.01757 0.48353 0.0
C1656 C 0.22958 0.05471 0.50343 0.0
C1657 C 0.25192 1.01587 0.54376 0.0
H1658 H 0.33411 0.05025 0.5324 0.0
C1659 C 0.38473 0.97566 0.55307 0.0
C1660 C 0.38544 0.96847 0.57008 0.0
C1661 C 0.36057 0.99432 0.54661 0.0
C1662 C 0.31118 0.04099 0.53591 0.0
H1663 H 0.19853 0.97072 0.4932 0.0
H1664 H 0.22017 0.9815 0.5205 0.0
H1665 H 0.28949 0.06047 0.51441 0.0
H1666 H 0.36266 0.97676 0.59388 0.0
H1667 H 0.32013 1.00914 0.58247 0.0
H1668 H 0.27475 0.99379 0.56443 0.0
C1669 C 0.21845 1.00089 0.51178 0.0
C1670 C 0.28535 0.04716 0.5257 0.0
C1671 C 0.20608 0.99457 0.49604 0.0
C1672 C 0.3626 0.98179 0.58067 0.0
C1673 C 0.33823 1.00026 0.57417 0.0
C1674 C 0.27789 1.00955 0.55395 0.0
C1675 C 0.2324 0.03041 0.51524 0.0
C1676 C 0.25584 0.033 0.52893 0.0
C1677 C 0.33656 1.00604 0.55702 0.0
C1678 C 0.30812 0.02048 0.5495 0.0
H1679 H 0.21873 0.06647 0.47819 0.0
H1680 H 0.23921 0.07797 0.50586 0.0
H1681 H 0.22938 1.00521 0.5468 0.0
H1682 H 0.40218 0.96595 0.54465 0.0
H1683 H 0.35974 0.998 0.53329 0.0
C1684 C 0.58835 0.37065 0.55061 0.0
C1685 C 0.58173 0.38097 0.56681 0.0
C1686 C 0.57709 0.34159 0.54511 0.0
C1687 C 0.51813 0.28109 0.54932 0.0
H1688 H 0.5834 0.23148 0.52791 0.0
C1689 C 0.50123 0.21772 0.48954 0.0
C1690 C 0.52514 0.19761 0.48364 0.0
C1691 C 0.50084 0.22729 0.50611 0.0
C1692 C 0.56475 0.24413 0.53426 0.0
H1693 H 0.55614 0.37009 0.58953 0.0
H1694 H 0.53591 0.31921 0.57962 0.0
H1695 H 0.59792 0.2773 0.54403 0.0
H1696 H 0.5636 0.16687 0.49152 0.0
H1697 H 0.56192 0.18257 0.52037 0.0
H1698 H 0.48474 0.24871 0.53881 0.0
C1699 C 0.55026 0.33355 0.5714 0.0
C1700 C 0.57319 0.27079 0.54331 0.0
C1701 C 0.5618 0.36263 0.577 0.0
C1702 C 0.54522 0.18304 0.49529 0.0
C1703 C 0.54441 0.1922 0.51197 0.0
C1704 C 0.50958 0.25422 0.54023 0.0
C1705 C 0.55879 0.32241 0.55562 0.0
C1706 C 0.54988 0.2905 0.55 0.0
C1707 C 0.52419 0.21663 0.51717 0.0
C1708 C 0.53272 0.23667 0.53167 0.0
H1709 H 0.60339 0.38431 0.54241 0.0
H1710 H 0.58332 0.33372 0.53271 0.0
H1711 H 0.4998 0.29581 0.55464 0.0
H1712 H 0.48455 0.22855 0.48107 0.0
H1713 H 0.48451 0.24579 0.50959 0.0
C1714 C 0.16113 0.59494 0.54871 0.0
C1715 C 0.15007 0.58641 0.56453 0.0
C1716 C 0.19077 0.58496 0.54334 0.0
C1717 C 0.2527 0.52654 0.5482 0.0
H1718 H 0.30149 0.59215 0.52647 0.0
C1719 C 0.3536 0.5539 0.49562 0.0
C1720 C 0.34008 0.533 0.48405 0.0
C1721 C 0.34347 0.55357 0.51216 0.0
C1722 C 0.28901 0.57348 0.53292 0.0
H1723 H 0.16041 0.55893 0.58667 0.0
H1724 H 0.21224 0.5411 0.57706 0.0
H1725 H 0.25424 0.60606 0.5416 0.0
H1726 H 0.31031 0.49163 0.48134 0.0
H1727 H 0.29168 0.49194 0.50968 0.0
H1728 H 0.28689 0.49374 0.53889 0.0
C1729 C 0.19805 0.55587 0.56899 0.0
C1730 C 0.26149 0.58152 0.54136 0.0
C1731 C 0.1684 0.56605 0.57444 0.0
C1732 C 0.32038 0.50869 0.48987 0.0
C1733 C 0.30997 0.50864 0.5063 0.0
C1734 C 0.28043 0.51842 0.53975 0.0
C1735 C 0.20986 0.56611 0.55363 0.0
C1736 C 0.24216 0.55796 0.54819 0.0
C1737 C 0.31923 0.53287 0.51721 0.0
C1738 C 0.2978 0.54162 0.53111 0.0
H1739 H 0.14752 0.61041 0.54074 0.0
H1740 H 0.19906 0.59249 0.53122 0.0
H1741 H 0.23837 0.508 0.55363 0.0
H1742 H 0.36924 0.57271 0.4917 0.0
H1743 H 0.35197 0.57183 0.52047 0.0
C1744 C 0.59 0.13065 0.315 0.0
C1745 C 0.56938 0.10901 0.3226 0.0
C1746 C 0.59585 0.1289 0.29784 0.0
C1747 C 0.59214 0.06957 0.26408 0.0
H1748 H 0.60457 0.14067 0.23441 0.0
C1749 C 0.58219 0.05988 0.19335 0.0
C1750 C 0.605 0.07486 0.18343 0.0
C1751 C 0.58207 0.06406 0.21053 0.0
C1752 C 0.60162 0.12062 0.24264 0.0
H1753 H 0.53699 0.0703 0.31828 0.0
H1754 H 0.54595 0.06811 0.28844 0.0
H1755 H 0.59374 0.15011 0.26394 0.0
H1756 H 0.64572 0.10591 0.18365 0.0
H1757 H 0.64523 0.11368 0.21396 0.0
H1758 H 0.59895 0.04014 0.24275 0.0
C1759 C 0.55859 0.08566 0.29563 0.0
C1760 C 0.59536 0.12601 0.25952 0.0
C1761 C 0.55312 0.08715 0.31269 0.0
C1762 C 0.62817 0.09373 0.19107 0.0
C1763 C 0.62769 0.09842 0.20833 0.0
C1764 C 0.5981 0.06424 0.24726 0.0
C1765 C 0.581 0.10559 0.28809 0.0
C1766 C 0.58981 0.1005 0.27036 0.0
C1767 C 0.60444 0.08378 0.21818 0.0
C1768 C 0.60229 0.08968 0.23631 0.0
H1769 H 0.60314 0.14746 0.32244 0.0
H1770 H 0.61322 0.14463 0.29243 0.0
H1771 H 0.58903 0.04931 0.27214 0.0
H1772 H 0.56399 0.04535 0.18775 0.0
H1773 H 0.56372 0.05272 0.21779 0.0
C1774 C 0.40625 0.57756 0.31361 0.0
C1775 C 0.42793 0.59318 0.32398 0.0
C1776 C 0.40511 0.58452 0.29656 0.0
C1777 C 0.45655 0.61711 0.26346 0.0
H1778 H 0.38041 0.61438 0.23679 0.0
C1779 C 0.46045 0.63821 0.19255 0.0
C1780 C 0.44386 0.6158 0.18304 0.0
C1781 C 0.45573 0.64012 0.20978 0.0
C1782 C 0.4019 0.61517 0.24408 0.0
H1783 H 0.46382 0.62971 0.32486 0.0
H1784 H 0.46124 0.64237 0.29544 0.0
H1785 H 0.37671 0.6087 0.26697 0.0
H1786 H 0.40834 0.57886 0.18411 0.0
H1787 H 0.40035 0.58208 0.21396 0.0
H1788 H 0.4818 0.62303 0.24063 0.0
C1789 C 0.44582 0.62408 0.30024 0.0
C1790 C 0.39978 0.61181 0.26137 0.0
C1791 C 0.44716 0.61694 0.31714 0.0
C1792 C 0.42166 0.59628 0.19106 0.0
C1793 C 0.41683 0.59831 0.20819 0.0
C1794 C 0.45865 0.62055 0.24622 0.0
C1795 C 0.42548 0.60736 0.2896 0.0
C1796 C 0.42713 0.61245 0.27127 0.0
C1797 C 0.43421 0.61981 0.21783 0.0
C1798 C 0.43142 0.61925 0.23628 0.0
H1799 H 0.39135 0.55891 0.31847 0.0
H1800 H 0.3893 0.571 0.28872 0.0
H1801 H 0.47822 0.6171 0.27061 0.0
H1802 H 0.47796 0.6534 0.18685 0.0
H1803 H 0.46933 0.65713 0.21685 0.0
C1804 C 0.94723 0.39821 0.31355 0.0
C1805 C 0.96948 0.41934 0.32022 0.0
C1806 C 0.94246 0.39676 0.29632 0.0
C1807 C 0.97843 0.41772 0.25603 0.0
H1808 H 0.89318 0.43591 0.24116 0.0
C1809 C 0.95735 0.47506 0.1933 0.0
C1810 C 0.93321 0.4634 0.18303 0.0
C1811 C 0.95947 0.46573 0.20985 0.0
C1812 C 0.91699 0.43029 0.24507 0.0
H1813 H 1.00507 0.45432 0.31434 0.0
H1814 H 0.99759 0.4511 0.28435 0.0
H1815 H 0.90291 0.4232 0.27045 0.0
H1816 H 0.89151 0.43363 0.18228 0.0
H1817 H 0.89517 0.41729 0.2115 0.0
H1818 H 0.9928 0.42544 0.2309 0.0
C1819 C 0.9837 0.43577 0.2923 0.0
C1820 C 0.92255 0.42293 0.26181 0.0
C1821 C 0.98799 0.43766 0.30944 0.0
C1822 C 0.91018 0.44331 0.18994 0.0
C1823 C 0.91239 0.43381 0.20662 0.0
C1824 C 0.9729 0.4249 0.23937 0.0
C1825 C 0.96035 0.41595 0.28557 0.0
C1826 C 0.95349 0.4176 0.26752 0.0
C1827 C 0.93766 0.44423 0.21659 0.0
C1828 C 0.94232 0.4324 0.23381 0.0
H1829 H 0.93234 0.38424 0.32168 0.0
H1830 H 0.92434 0.38127 0.29142 0.0
H1831 H 1.00244 0.41326 0.26005 0.0
H1832 H 0.97524 0.49084 0.18839 0.0
H1833 H 0.97867 0.47497 0.21732 0.0
C1834 C 0.09035 0.91888 0.32153 0.0
C1835 C 0.10998 0.94247 0.32824 0.0
C1836 C 0.09145 0.91154 0.30465 0.0
C1837 C 0.13803 0.92157 0.26594 0.0
H1838 H 0.05592 0.91453 0.24486 0.0
C1839 C 0.11825 0.94075 0.19598 0.0
C1840 C 0.09463 0.92352 0.18767 0.0
C1841 C 0.12294 0.93719 0.21303 0.0
C1842 C 0.07908 0.91575 0.25055 0.0
H1843 H 0.14684 0.97634 0.32242 0.0
H1844 H 0.14861 0.96368 0.29278 0.0
H1845 H 0.05928 0.91996 0.27488 0.0
H1846 H 0.05801 0.88811 0.1908 0.0
H1847 H 0.06651 0.88155 0.22067 0.0
H1848 H 0.15772 0.91812 0.24147 0.0
C1849 C 0.13266 0.95052 0.30072 0.0
C1850 C 0.08102 0.91895 0.26779 0.0
C1851 C 0.13166 0.95779 0.31772 0.0
C1852 C 0.07661 0.90155 0.19675 0.0
C1853 C 0.08125 0.89805 0.2139 0.0
C1854 C 0.13608 0.91832 0.24866 0.0
C1855 C 0.11205 0.92777 0.29395 0.0
C1856 C 0.11048 0.92232 0.27569 0.0
C1857 C 0.10406 0.91633 0.22228 0.0
C1858 C 0.10654 0.91588 0.24073 0.0
H1859 H 0.07367 0.9063 0.32933 0.0
H1860 H 0.07575 0.89344 0.29992 0.0
H1861 H 0.16109 0.92364 0.27166 0.0
H1862 H 0.1327 0.95773 0.18935 0.0
H1863 H 0.14044 0.95192 0.21906 0.0
C1864 C 0.42312 0.94727 0.69109 0.0
C1865 C 0.44349 0.92524 0.68359 0.0
C1866 C 0.41624 0.94566 0.70803 0.0
C1867 C 0.45199 0.91833 0.74684 0.0
H1868 H 0.37296 0.94734 0.76593 0.0
C1869 C 0.44768 0.96866 0.8125 0.0
C1870 C 0.42302 0.95952 0.82317 0.0
C1871 C 0.44667 0.9615 0.79561 0.0
C1872 C 0.39505 0.93885 0.76083 0.0
H1873 H 0.47168 0.88334 0.68806 0.0
H1874 H 0.45934 0.88029 0.71774 0.0
H1875 H 0.37635 0.9368 0.73609 0.0
H1876 H 0.37728 0.93647 0.82426 0.0
H1877 H 0.37538 0.9241 0.79448 0.0
H1878 H 0.47078 0.92056 0.77147 0.0
C1879 C 0.44888 0.89903 0.71042 0.0
C1880 C 0.39709 0.93303 0.74371 0.0
C1881 C 0.45571 0.90057 0.69336 0.0
C1882 C 0.3965 0.94421 0.81636 0.0
C1883 C 0.39551 0.93696 0.79932 0.0
C1884 C 0.44994 0.92415 0.7639 0.0
C1885 C 0.42961 0.92201 0.71802 0.0
C1886 C 0.42583 0.92346 0.73644 0.0
C1887 C 0.42103 0.94481 0.78886 0.0
C1888 C 0.42173 0.93533 0.77103 0.0
H1889 H 0.41307 0.96645 0.68392 0.0
H1890 H 0.40165 0.96399 0.71342 0.0
H1891 H 0.47455 0.91124 0.74172 0.0
H1892 H 0.4683 0.98082 0.81729 0.0
H1893 H 0.4663 0.96874 0.78784 0.0
C1894 C 0.61221 0.43319 0.81434 0.0
C1895 C 0.58877 0.41537 0.82245 0.0
C1896 C 0.61816 0.42908 0.79744 0.0
C1897 C 0.57676 0.40633 0.75965 0.0
H1898 H 0.6594 0.41575 0.73935 0.0
C1899 C 0.58873 0.41532 0.68893 0.0
C1900 C 0.60886 0.43905 0.68284 0.0
C1901 C 0.58993 0.40613 0.70557 0.0
C1902 C 0.63615 0.41325 0.74482 0.0
H1903 H 0.55398 0.37826 0.81926 0.0
H1904 H 0.5644 0.371 0.78953 0.0
H1905 H 0.655 0.40953 0.76947 0.0
H1906 H 0.6469 0.47104 0.68928 0.0
H1907 H 0.64862 0.45552 0.71857 0.0
H1908 H 0.55769 0.41128 0.73524 0.0
C1909 C 0.57813 0.38825 0.79636 0.0
C1910 C 0.63364 0.40955 0.76207 0.0
C1911 C 0.57234 0.3922 0.81341 0.0
C1912 C 0.63129 0.45247 0.69359 0.0
C1913 C 0.63226 0.44352 0.71038 0.0
C1914 C 0.57925 0.41014 0.74246 0.0
C1915 C 0.60064 0.40718 0.78812 0.0
C1916 C 0.60385 0.4066 0.76971 0.0
C1917 C 0.61099 0.4208 0.71665 0.0
C1918 C 0.60893 0.41414 0.73482 0.0
H1919 H 0.62542 0.45111 0.821 0.0
H1920 H 0.63539 0.44428 0.7915 0.0
H1921 H 0.55344 0.40472 0.76514 0.0
H1922 H 0.57147 0.40425 0.68087 0.0
H1923 H 0.57377 0.38801 0.70983 0.0
C1924 C 0.09618 0.54936 0.81128 0.0
C1925 C 0.11587 0.56695 0.82179 0.0
C1926 C 0.0974 0.55369 0.79413 0.0
C1927 C 0.11157 0.61446 0.76354 0.0
H1928 H 0.10467 0.54466 0.73257 0.0
C1929 C 0.09221 0.62741 0.6916 0.0
C1930 C 0.07168 0.60496 0.68459 0.0
C1931 C 0.10067 0.62531 0.70844 0.0
C1932 C 0.10638 0.56444 0.74107 0.0
H1933 H 0.15269 0.60243 0.8228 0.0
H1934 H 0.15453 0.61047 0.79251 0.0
H1935 H 0.11737 0.53421 0.76157 0.0
H1936 H 0.04203 0.56443 0.6898 0.0
H1937 H 0.05589 0.56135 0.71907 0.0
H1938 H 0.09938 0.64458 0.74305 0.0
C1939 C 0.13847 0.59305 0.79761 0.0
C1940 C 0.11388 0.55843 0.75763 0.0
C1941 C 0.13767 0.58823 0.81486 0.0
C1942 C 0.0581 0.58188 0.69487 0.0
C1943 C 0.06632 0.57992 0.71159 0.0
C1944 C 0.10389 0.62049 0.74689 0.0
C1945 C 0.11791 0.57617 0.78714 0.0
C1946 C 0.11567 0.58325 0.76914 0.0
C1947 C 0.08866 0.60076 0.71842 0.0
C1948 C 0.10023 0.5954 0.73562 0.0
H1949 H 0.07896 0.53308 0.81641 0.0
H1950 H 0.08103 0.5406 0.78639 0.0
H1951 H 0.1126 0.63402 0.7722 0.0
H1952 H 0.1033 0.64521 0.68388 0.0
H1953 H 0.11786 0.64178 0.71338 0.0
C1954 C 0.96877 0.08 0.81658 0.0
C1955 C 0.95748 0.10465 0.82661 0.0
C1956 C 0.96019 0.07797 0.79991 0.0
C1957 C 0.92775 0.12063 0.76402 0.0
H1958 H 0.90705 0.03551 0.74975 0.0
C1959 C 0.89617 0.08948 0.69557 0.0
C1960 C 0.91613 0.06583 0.68929 0.0
C1961 C 0.89451 0.09496 0.71275 0.0
C1962 C 0.91257 0.05943 0.75357 0.0
H1963 H 0.92942 0.14745 0.82683 0.0
H1964 H 0.91438 0.14396 0.79739 0.0
H1965 H 0.91897 0.04567 0.77888 0.0
H1966 H 0.94881 0.02858 0.69579 0.0
H1967 H 0.94518 0.03733 0.72567 0.0
H1968 H 0.92201 0.13407 0.73846 0.0
C1969 C 0.93 0.12624 0.80254 0.0
C1970 C 0.91959 0.06525 0.77022 0.0
C1971 C 0.93875 0.12835 0.81935 0.0
C1972 C 0.93299 0.04671 0.70039 0.0
C1973 C 0.93089 0.05174 0.71747 0.0
C1974 C 0.92059 0.11479 0.74728 0.0
C1975 C 0.93984 0.10041 0.79283 0.0
C1976 C 0.92836 0.09567 0.77554 0.0
C1977 C 0.91233 0.07645 0.72383 0.0
C1978 C 0.91393 0.08391 0.74183 0.0
H1979 H 0.98353 0.06158 0.82178 0.0
H1980 H 0.96897 0.05831 0.79264 0.0
H1981 H 0.93436 0.14431 0.76776 0.0
H1982 H 0.88339 0.10486 0.68718 0.0
H1983 H 0.87999 0.11411 0.71735 0.0
C1984 C 0.84566 0.36155 0.10092 0.0
C1985 C 0.83851 0.38809 0.1108 0.0
C1986 C 0.82911 0.33303 0.10281 0.0
C1987 C 0.75225 0.30086 0.11534 0.0
H1988 H 0.79532 0.22003 0.11574 0.0
C1989 C 0.69066 0.18156 0.09935 0.0
C1990 C 0.69687 0.15518 0.10952 0.0
C1991 C 0.70717 0.21005 0.10147 0.0
C1992 C 0.78289 0.24238 0.11576 0.0
H1993 H 0.80817 0.40505 0.13055 0.0
H1994 H 0.77855 0.35533 0.13355 0.0
H1995 H 0.82609 0.26912 0.11598 0.0
H1996 H 0.72553 0.13848 0.13001 0.0
H1997 H 0.75507 0.18811 0.13341 0.0
H1998 H 0.70908 0.27411 0.1145 0.0
C1999 C 0.79735 0.35666 0.12444 0.0
C2000 C 0.80055 0.27055 0.1158 0.0
C2001 C 0.81447 0.3851 0.1228 0.0
C2002 C 0.71998 0.15829 0.122 0.0
C2003 C 0.73705 0.18669 0.12388 0.0
C2004 C 0.73461 0.27268 0.11496 0.0
C2005 C 0.80438 0.33025 0.11441 0.0
C2006 C 0.7855 0.30022 0.11549 0.0
C2007 C 0.73091 0.21296 0.11361 0.0
C2008 C 0.74967 0.24301 0.11506 0.0
H2009 H 0.86403 0.36288 0.09156 0.0
H2010 H 0.83507 0.31337 0.09479 0.0
H2011 H 0.73984 0.3232 0.11497 0.0
H2012 H 0.67302 0.18016 0.08963 0.0
H2013 H 0.70193 0.22962 0.09325 0.0
C2014 C 0.36327 0.70881 0.0911 0.0
C2015 C 0.38157 0.70228 0.10533 0.0
C2016 C 0.33418 0.72437 0.0923 0.0
C2017 C 0.28463 0.77499 0.12011 0.0
H2018 H 0.21877 0.75097 0.0891 0.0
C2019 C 0.15745 0.83002 0.1216 0.0
C2020 C 0.14401 0.83786 0.10611 0.0
C2021 C 0.18568 0.8125 0.12254 0.0
C2022 C 0.23692 0.75825 0.09778 0.0
H2023 H 0.38302 0.70755 0.13211 0.0
H2024 H 0.33184 0.73447 0.13426 0.0
H2025 H 0.26863 0.72254 0.08913 0.0
H2026 H 0.15008 0.83281 0.07945 0.0
H2027 H 0.19869 0.80236 0.0811 0.0
H2028 H 0.25251 0.8107 0.12877 0.0
C2029 C 0.34036 0.72773 0.12208 0.0
C2030 C 0.26573 0.7419 0.09779 0.0
C2031 C 0.36973 0.71211 0.12087 0.0
C2032 C 0.15946 0.82725 0.09163 0.0
C2033 C 0.18742 0.80956 0.09257 0.0
C2034 C 0.25562 0.79129 0.12016 0.0
C2035 C 0.32198 0.73394 0.10779 0.0
C2036 C 0.29036 0.75028 0.10875 0.0
C2037 C 0.20113 0.802 0.10802 0.0
C2038 C 0.23147 0.78348 0.10881 0.0
H2039 H 0.37144 0.70198 0.07886 0.0
H2040 H 0.32141 0.72923 0.08093 0.0
H2041 H 0.30291 0.78245 0.12866 0.0
H2042 H 0.14643 0.83782 0.13303 0.0
H2043 H 0.19527 0.80697 0.13467 0.0
C2044 C 0.35104 0.68093 0.40786 0.0
C2045 C 0.34345 0.65434 0.3981 0.0
C2046 C 0.33423 0.70932 0.40625 0.0
C2047 C 0.25661 0.74107 0.39483 0.0
H2048 H 0.29945 0.8221 0.39372 0.0
C2049 C 0.19513 0.86007 0.41117 0.0
C2050 C 0.20077 0.88636 0.40084 0.0
C2051 C 0.21178 0.83172 0.409 0.0
C2052 C 0.28708 0.7997 0.39391 0.0
H2053 H 0.31203 0.63716 0.37888 0.0
H2054 H 0.28201 0.68664 0.37638 0.0
H2055 H 0.33032 0.77316 0.39316 0.0
H2056 H 0.22864 0.90306 0.38002 0.0
H2057 H 0.25846 0.8537 0.37652 0.0
H2058 H 0.21343 0.76761 0.39617 0.0
C2059 C 0.30133 0.68545 0.38518 0.0
C2060 C 0.3048 0.7716 0.39369 0.0
C2061 C 0.31866 0.65714 0.38653 0.0
C2062 C 0.22355 0.88334 0.38817 0.0
C2063 C 0.24077 0.85508 0.38622 0.0
C2064 C 0.23893 0.76916 0.39539 0.0
C2065 C 0.30884 0.71193 0.39507 0.0
C2066 C 0.28985 0.74186 0.39424 0.0
C2067 C 0.23512 0.82886 0.39663 0.0
C2068 C 0.2539 0.79891 0.39503 0.0
H2069 H 0.36999 0.67977 0.41689 0.0
H2070 H 0.34058 0.72904 0.41416 0.0
H2071 H 0.24428 0.71867 0.39539 0.0
H2072 H 0.17774 0.86138 0.42104 0.0
H2073 H 0.20693 0.8122 0.41733 0.0
C2074 C 0.85668 0.34952 0.40759 0.0
C2075 C 0.88329 0.34254 0.39772 0.0
C2076 C 0.82843 0.33244 0.40589 0.0
C2077 C 0.79725 0.25484 0.39383 0.0
H2078 H 0.71587 0.29685 0.39299 0.0
C2079 C 0.67848 0.19159 0.4093 0.0
C2080 C 0.65228 0.19733 0.39893 0.0
C2081 C 0.70675 0.20859 0.40738 0.0
C2082 C 0.73837 0.28472 0.39311 0.0
H2083 H 0.90065 0.31185 0.37821 0.0
H2084 H 0.85142 0.28136 0.37555 0.0
H2085 H 0.76457 0.32824 0.39278 0.0
H2086 H 0.63565 0.22574 0.37833 0.0
H2087 H 0.68484 0.25612 0.37527 0.0
H2088 H 0.77104 0.21135 0.39474 0.0
C2089 C 0.85249 0.30042 0.38451 0.0
C2090 C 0.76633 0.30273 0.39309 0.0
C2091 C 0.88065 0.31804 0.38596 0.0
C2092 C 0.65531 0.22055 0.38649 0.0
C2093 C 0.68346 0.2381 0.3848 0.0
C2094 C 0.76929 0.23685 0.39419 0.0
C2095 C 0.82598 0.30735 0.3945 0.0
C2096 C 0.79619 0.28807 0.39353 0.0
C2097 C 0.70959 0.23237 0.39525 0.0
C2098 C 0.73942 0.25151 0.39392 0.0
H2099 H 0.85773 0.36822 0.41677 0.0
H2100 H 0.80868 0.33833 0.41388 0.0
H2101 H 0.81975 0.24273 0.3943 0.0
H2102 H 0.67715 0.17389 0.419 0.0
H2103 H 0.7262 0.20366 0.41573 0.0
C2104 C 0.34563 0.85643 0.9101 0.0
C2105 C 0.33765 0.88328 0.90063 0.0
C2106 C 0.32897 0.82792 0.90835 0.0
C2107 C 0.25153 0.79519 0.89747 0.0
H2108 H 0.29561 0.71527 0.89338 0.0
C2109 C 0.1938 0.67294 0.91185 0.0
C2110 C 0.19853 0.6482 0.9004 0.0
C2111 C 0.20979 0.70187 0.91021 0.0
C2112 C 0.2829 0.73737 0.89442 0.0
H2113 H 0.30551 0.90081 0.88185 0.0
H2114 H 0.27563 0.85116 0.87919 0.0
H2115 H 0.32561 0.76489 0.89358 0.0
H2116 H 0.22413 0.63486 0.87817 0.0
H2117 H 0.25295 0.68514 0.87561 0.0
H2118 H 0.20893 0.76759 0.89897 0.0
C2119 C 0.29521 0.85223 0.88783 0.0
C2120 C 0.30012 0.76583 0.89463 0.0
C2121 C 0.31244 0.88066 0.88929 0.0
C2122 C 0.21976 0.65336 0.88717 0.0
C2123 C 0.23641 0.68213 0.88577 0.0
C2124 C 0.23437 0.76668 0.89765 0.0
C2125 C 0.30327 0.82543 0.89734 0.0
C2126 C 0.28472 0.79518 0.89621 0.0
C2127 C 0.23163 0.70682 0.89728 0.0
C2128 C 0.2498 0.73732 0.89619 0.0
H2129 H 0.36492 0.85742 0.91893 0.0
H2130 H 0.33575 0.80793 0.91596 0.0
H2131 H 0.23888 0.81726 0.89882 0.0
H2132 H 0.1776 0.66997 0.92217 0.0
H2133 H 0.20563 0.72016 0.91936 0.0
C2134 C 0.85765 0.19376 0.91166 0.0
C2135 C 0.88391 0.19979 0.90136 0.0
C2136 C 0.82925 0.21039 0.90966 0.0
C2137 C 0.79685 0.28597 0.89537 0.0
H2138 H 0.71606 0.24262 0.89618 0.0
C2139 C 0.67757 0.34861 0.90985 0.0
C2140 C 0.65123 0.34152 0.8998 0.0
C2141 C 0.70602 0.33191 0.90818 0.0
C2142 C 0.7384 0.25511 0.89582 0.0
H2143 H 0.90052 0.22835 0.88078 0.0
H2144 H 0.85105 0.25816 0.8776 0.0
H2145 H 0.76521 0.21205 0.89666 0.0
H2146 H 0.63454 0.31104 0.88004 0.0
H2147 H 0.68409 0.28115 0.87746 0.0
H2148 H 0.77004 0.32906 0.89513 0.0
C2149 C 0.85251 0.24017 0.88714 0.0
C2150 C 0.7666 0.23758 0.8962 0.0
C2151 C 0.88082 0.22296 0.8889 0.0
C2152 C 0.6543 0.31726 0.88794 0.0
C2153 C 0.68266 0.30001 0.88653 0.0
C2154 C 0.76864 0.30351 0.89534 0.0
C2155 C 0.82631 0.23409 0.89751 0.0
C2156 C 0.79626 0.25275 0.89608 0.0
C2157 C 0.70893 0.30711 0.89665 0.0
C2158 C 0.73899 0.28835 0.89565 0.0
H2159 H 0.85902 0.17604 0.92136 0.0
H2160 H 0.80975 0.20521 0.91795 0.0
H2161 H 0.81919 0.29847 0.89538 0.0
H2162 H 0.67622 0.36717 0.91909 0.0
H2163 H 0.72557 0.33792 0.91627 0.0
C2164 C 0.6881 0.35364 0.60189 0.0
C2165 C 0.69519 0.38061 0.61147 0.0
C2166 C 0.70511 0.32544 0.60386 0.0
C2167 C 0.78284 0.29485 0.6161 0.0
H2168 H 0.74097 0.21333 0.61731 0.0
C2169 C 0.84638 0.17622 0.60103 0.0
C2170 C 0.84059 0.15 0.61139 0.0
C2171 C 0.82936 0.20445 0.60292 0.0
C2172 C 0.75308 0.23587 0.6171 0.0
H2173 H 0.72596 0.39863 0.63077 0.0
H2174 H 0.75632 0.34949 0.63392 0.0
H2175 H 0.70949 0.26189 0.61731 0.0
H2176 H 0.81206 0.13331 0.63197 0.0
H2177 H 0.78166 0.18243 0.63497 0.0
H2178 H 0.82639 0.26882 0.61529 0.0
C2179 C 0.73722 0.35023 0.62497 0.0
C2180 C 0.735 0.26376 0.617 0.0
C2181 C 0.71967 0.37835 0.62326 0.0
C2182 C 0.81731 0.15299 0.62381 0.0
C2183 C 0.79974 0.18111 0.62547 0.0
C2184 C 0.80089 0.26696 0.61586 0.0
C2185 C 0.73025 0.32339 0.61524 0.0
C2186 C 0.74959 0.29368 0.61641 0.0
C2187 C 0.8055 0.20725 0.61501 0.0
C2188 C 0.78629 0.23703 0.61626 0.0
H2189 H 0.66943 0.3544 0.59269 0.0
H2190 H 0.69916 0.30545 0.59606 0.0
H2191 H 0.79492 0.31739 0.61551 0.0
H2192 H 0.86412 0.17493 0.59134 0.0
H2193 H 0.83434 0.22389 0.59455 0.0
C2194 C 0.17534 0.69201 0.59873 0.0
C2195 C 0.14952 0.69687 0.6095 0.0
C2196 C 0.20369 0.70877 0.60076 0.0
C2197 C 0.23587 0.78354 0.61644 0.0
H2198 H 0.31711 0.74175 0.6129 0.0
C2199 C 0.35315 0.8495 0.60123 0.0
C2200 C 0.38047 0.84158 0.61031 0.0
C2201 C 0.32498 0.83236 0.60315 0.0
C2202 C 0.29466 0.7538 0.61404 0.0
H2203 H 0.13366 0.72339 0.63095 0.0
H2204 H 0.18305 0.7534 0.63424 0.0
H2205 H 0.26841 0.71041 0.61259 0.0
H2206 H 0.3992 0.80921 0.62866 0.0
H2207 H 0.35011 0.77867 0.63171 0.0
H2208 H 0.26209 0.82702 0.61731 0.0
C2209 C 0.18129 0.73624 0.62429 0.0
C2210 C 0.2667 0.73583 0.61375 0.0
C2211 C 0.15304 0.7189 0.62248 0.0
C2212 C 0.37865 0.81612 0.62153 0.0
C2213 C 0.35055 0.79848 0.6232 0.0
C2214 C 0.26382 0.80156 0.6164 0.0
C2215 C 0.207 0.73143 0.61343 0.0
C2216 C 0.23687 0.75045 0.61484 0.0
C2217 C 0.32334 0.80632 0.61397 0.0
C2218 C 0.29363 0.78697 0.6151 0.0
H2219 H 0.17362 0.6752 0.58861 0.0
H2220 H 0.2228 0.70458 0.59208 0.0
H2221 H 0.21339 0.79564 0.61718 0.0
H2222 H 0.35356 0.86896 0.59248 0.0
H2223 H 0.30467 0.83897 0.59575 0.0
loop_
_geom_bond_atom_site_label_1
_geom_bond_atom_site_label_2
_geom_bond_distance
_geom_bond_site_symmetry_2
_ccdc_geom_bond_type
Zn0 N4 2.020 . S
Zn0 O8 2.019 . S
Zn0 N10 2.119 . S
Zn0 O18 1.975 . S
C1 N2 1.334 . S
C1 N5 1.336 . S
N2 C1 1.334 . S
N2 C3 1.334 . S
C3 N2 1.334 . S
C3 N4 1.336 . S
N4 Zn0 2.020 . S
N4 C3 1.336 . S
N4 N5 1.354 . S
N5 C1 1.336 . S
N5 N4 1.354 . S
N5 Zn9 2.020 . S
C6 O7 1.244 . S
C6 O30 1.257 . S
O7 C6 1.244 . S
O8 Zn0 2.019 . S
O8 C28 1.257 . S
Zn9 N5 2.020 . S
Zn9 O16 1.975 . S
Zn9 N25 2.119 . S
Zn9 O30 2.019 . S
N10 Zn0 2.119 . S
N10 C12 1.334 . S
N10 C13 1.328 . S
C11 C12 1.391 . S
C11 N14 1.329 . S
C11 H32 0.930 . S
C12 N10 1.334 . S
C12 C11 1.391 . S
C12 H19 0.930 . S
C13 N10 1.328 . S
C13 C15 1.392 . S
C13 H20 0.930 . S
N14 C11 1.329 . S
N14 C15 1.331 . S
C15 C13 1.392 . S
C15 N14 1.331 . S
O16 Zn9 1.975 . S
O16 C17 1.252 . S
C17 O16 1.252 . S
C17 O18 1.252 . S
O18 Zn0 1.975 . S
O18 C17 1.252 . S
H19 C12 0.930 . S
H20 C13 0.930 . S
C21 C22 1.392 . S
C21 N25 1.328 . S
C21 H27 0.930 . S
C22 C21 1.392 . S
C22 N26 1.331 . S
C23 C24 1.391 . S
C23 N26 1.329 . S
C23 H33 0.930 . S
C24 C23 1.391 . S
C24 N25 1.334 . S
C24 H31 0.930 . S
N25 Zn9 2.119 . S
N25 C21 1.328 . S
N25 C24 1.334 . S
N26 C22 1.331 . S
N26 C23 1.329 . S
H27 C21 0.930 . S
C28 O8 1.257 . S
C28 O29 1.244 . S
O29 C28 1.244 . S
O30 C6 1.257 . S
O30 Zn9 2.019 . S
H31 C24 0.930 . S
H32 C11 0.930 . S
H33 C23 0.930 . S
Zn34 N38 2.020 . S
Zn34 O42 2.019 . S
Zn34 N44 2.119 . S
Zn34 O52 1.975 . S
C35 N36 1.334 . S
C35 N39 1.336 . S
N36 C35 1.334 . S
N36 C37 1.334 . S
C37 N36 1.334 . S
C37 N38 1.336 . S
N38 Zn34 2.020 . S
N38 C37 1.336 . S
N38 N39 1.354 . S
N39 C35 1.336 . S
N39 N38 1.354 . S
N39 Zn43 2.020 . S
C40 O41 1.244 . S
C40 O64 1.257 . S
O41 C40 1.244 . S
O42 Zn34 2.019 . S
O42 C62 1.257 . S
Zn43 N39 2.020 . S
Zn43 O50 1.975 . S
Zn43 N59 2.119 . S
Zn43 O64 2.019 . S
N44 Zn34 2.119 . S
N44 C46 1.334 . S
N44 C47 1.328 . S
C45 C46 1.391 . S
C45 N48 1.329 . S
C45 H66 0.930 . S
C46 N44 1.334 . S
C46 C45 1.391 . S
C46 H53 0.930 . S
C47 N44 1.328 . S
C47 C49 1.392 . S
C47 H54 0.930 . S
N48 C45 1.329 . S
N48 C49 1.331 . S
C49 C47 1.392 . S
C49 N48 1.331 . S
O50 Zn43 1.975 . S
O50 C51 1.252 . S
C51 O50 1.252 . S
C51 O52 1.252 . S
O52 Zn34 1.975 . S
O52 C51 1.252 . S
H53 C46 0.930 . S
H54 C47 0.930 . S
C55 C56 1.392 . S
C55 N59 1.328 . S
C55 H61 0.930 . S
C56 C55 1.392 . S
C56 N60 1.331 . S
C57 C58 1.391 . S
C57 N60 1.329 . S
C57 H67 0.930 . S
C58 C57 1.391 . S
C58 N59 1.334 . S
C58 H65 0.930 . S
N59 Zn43 2.119 . S
N59 C55 1.328 . S
N59 C58 1.334 . S
N60 C56 1.331 . S
N60 C57 1.329 . S
H61 C55 0.930 . S
C62 O42 1.257 . S
C62 O63 1.244 . S
O63 C62 1.244 . S
O64 C40 1.257 . S
O64 Zn43 2.019 . S
H65 C58 0.930 . S
H66 C45 0.930 . S
H67 C57 0.930 . S
Zn68 N72 2.020 . S
Zn68 O76 2.019 . S
Zn68 N78 2.119 . S
Zn68 O86 1.975 . S
C69 N70 1.334 . S
C69 N73 1.336 . S
N70 C69 1.334 . S
N70 C71 1.334 . S
C71 N70 1.334 . S
C71 N72 1.336 . S
N72 Zn68 2.020 . S
N72 C71 1.336 . S
N72 N73 1.354 . S
N73 C69 1.336 . S
N73 N72 1.354 . S
N73 Zn77 2.020 . S
C74 O75 1.244 . S
C74 O98 1.257 . S
O75 C74 1.244 . S
O76 Zn68 2.019 . S
O76 C96 1.257 . S
Zn77 N73 2.020 . S
Zn77 O84 1.975 . S
Zn77 N93 2.119 . S
Zn77 O98 2.019 . S
N78 Zn68 2.119 . S
N78 C80 1.334 . S
N78 C81 1.328 . S
C79 C80 1.391 . S
C79 N82 1.329 . S
C79 H100 0.930 . S
C80 N78 1.334 . S
C80 C79 1.391 . S
C80 H87 0.930 . S
C81 N78 1.328 . S
C81 C83 1.392 . S
C81 H88 0.930 . S
N82 C79 1.329 . S
N82 C83 1.331 . S
C83 C81 1.392 . S
C83 N82 1.331 . S
O84 Zn77 1.975 . S
O84 C85 1.252 . S
C85 O84 1.252 . S
C85 O86 1.252 . S
O86 Zn68 1.975 . S
O86 C85 1.252 . S
H87 C80 0.930 . S
H88 C81 0.930 . S
C89 C90 1.392 . S
C89 N93 1.328 . S
C89 H95 0.930 . S
C90 C89 1.392 . S
C90 N94 1.331 . S
C91 C92 1.391 . S
C91 N94 1.329 . S
C91 H101 0.930 . S
C92 C91 1.391 . S
C92 N93 1.334 . S
C92 H99 0.930 . S
N93 Zn77 2.119 . S
N93 C89 1.328 . S
N93 C92 1.334 . S
N94 C90 1.331 . S
N94 C91 1.329 . S
H95 C89 0.930 . S
C96 O76 1.257 . S
C96 O97 1.244 . S
O97 C96 1.244 . S
O98 C74 1.257 . S
O98 Zn77 2.019 . S
H99 C92 0.930 . S
H100 C79 0.930 . S
H101 C91 0.930 . S
Zn102 N106 2.020 . S
Zn102 O110 2.019 . S
Zn102 N112 2.119 . S
Zn102 O120 1.975 . S
C103 N104 1.334 . S
C103 N107 1.336 . S
N104 C103 1.334 . S
N104 C105 1.334 . S
C105 N104 1.334 . S
C105 N106 1.336 . S
N106 Zn102 2.020 . S
N106 C105 1.336 . S
N106 N107 1.354 . S
N107 C103 1.336 . S
N107 N106 1.354 . S
N107 Zn111 2.020 . S
C108 O109 1.244 . S
C108 O132 1.257 . S
O109 C108 1.244 . S
O110 Zn102 2.019 . S
O110 C130 1.257 . S
Zn111 N107 2.020 . S
Zn111 O118 1.975 . S
Zn111 N127 2.119 . S
Zn111 O132 2.019 . S
N112 Zn102 2.119 . S
N112 C114 1.334 . S
N112 C115 1.328 . S
C113 C114 1.391 . S
C113 N116 1.329 . S
C113 H134 0.930 . S
C114 N112 1.334 . S
C114 C113 1.391 . S
C114 H121 0.930 . S
C115 N112 1.328 . S
C115 C117 1.392 . S
C115 H122 0.930 . S
N116 C113 1.329 . S
N116 C117 1.331 . S
C117 C115 1.392 . S
C117 N116 1.331 . S
O118 Zn111 1.975 . S
O118 C119 1.252 . S
C119 O118 1.252 . S
C119 O120 1.252 . S
O120 Zn102 1.975 . S
O120 C119 1.252 . S
H121 C114 0.930 . S
H122 C115 0.930 . S
C123 C124 1.392 . S
C123 N127 1.328 . S
C123 H129 0.930 . S
C124 C123 1.392 . S
C124 N128 1.331 . S
C125 C126 1.391 . S
C125 N128 1.329 . S
C125 H135 0.930 . S
C126 C125 1.391 . S
C126 N127 1.334 . S
C126 H133 0.930 . S
N127 Zn111 2.119 . S
N127 C123 1.328 . S
N127 C126 1.334 . S
N128 C124 1.331 . S
N128 C125 1.329 . S
H129 C123 0.930 . S
C130 O110 1.257 . S
C130 O131 1.244 . S
O131 C130 1.244 . S
O132 C108 1.257 . S
O132 Zn111 2.019 . S
H133 C126 0.930 . S
H134 C113 0.930 . S
H135 C125 0.930 . S
Zn136 N140 2.020 . S
Zn136 O144 2.019 . S
Zn136 N146 2.119 . S
Zn136 O154 1.975 . S
C137 N138 1.334 . S
C137 N141 1.336 . S
N138 C137 1.334 . S
N138 C139 1.334 . S
C139 N138 1.334 . S
C139 N140 1.336 . S
N140 Zn136 2.020 . S
N140 C139 1.336 . S
N140 N141 1.354 . S
N141 C137 1.336 . S
N141 N140 1.354 . S
N141 Zn145 2.020 . S
C142 O143 1.244 . S
C142 O166 1.257 . S
O143 C142 1.244 . S
O144 Zn136 2.019 . S
O144 C164 1.257 . S
Zn145 N141 2.020 . S
Zn145 O152 1.975 . S
Zn145 N161 2.119 . S
Zn145 O166 2.019 . S
N146 Zn136 2.119 . S
N146 C148 1.334 . S
N146 C149 1.328 . S
C147 C148 1.391 . S
C147 N150 1.329 . S
C147 H168 0.930 . S
C148 N146 1.334 . S
C148 C147 1.391 . S
C148 H155 0.930 . S
C149 N146 1.328 . S
C149 C151 1.392 . S
C149 H156 0.930 . S
N150 C147 1.329 . S
N150 C151 1.331 . S
C151 C149 1.392 . S
C151 N150 1.331 . S
O152 Zn145 1.975 . S
O152 C153 1.252 . S
C153 O152 1.252 . S
C153 O154 1.252 . S
O154 Zn136 1.975 . S
O154 C153 1.252 . S
H155 C148 0.930 . S
H156 C149 0.930 . S
C157 C158 1.392 . S
C157 N161 1.328 . S
C157 H163 0.930 . S
C158 C157 1.392 . S
C158 N162 1.331 . S
C159 C160 1.391 . S
C159 N162 1.329 . S
C159 H169 0.930 . S
C160 C159 1.391 . S
C160 N161 1.334 . S
C160 H167 0.930 . S
N161 Zn145 2.119 . S
N161 C157 1.328 . S
N161 C160 1.334 . S
N162 C158 1.331 . S
N162 C159 1.329 . S
H163 C157 0.930 . S
C164 O144 1.257 . S
C164 O165 1.244 . S
O165 C164 1.244 . S
O166 C142 1.257 . S
O166 Zn145 2.019 . S
H167 C160 0.930 . S
H168 C147 0.930 . S
H169 C159 0.930 . S
Zn170 N174 2.020 . S
Zn170 O178 2.019 . S
Zn170 N180 2.119 . S
Zn170 O188 1.975 . S
C171 N172 1.334 . S
C171 N175 1.336 . S
N172 C171 1.334 . S
N172 C173 1.334 . S
C173 N172 1.334 . S
C173 N174 1.336 . S
N174 Zn170 2.020 . S
N174 C173 1.336 . S
N174 N175 1.354 . S
N175 C171 1.336 . S
N175 N174 1.354 . S
N175 Zn179 2.020 . S
C176 O177 1.244 . S
C176 O200 1.257 . S
O177 C176 1.244 . S
O178 Zn170 2.019 . S
O178 C198 1.257 . S
Zn179 N175 2.020 . S
Zn179 O186 1.975 . S
Zn179 N195 2.119 . S
Zn179 O200 2.019 . S
N180 Zn170 2.119 . S
N180 C182 1.334 . S
N180 C183 1.328 . S
C181 C182 1.391 . S
C181 N184 1.329 . S
C181 H202 0.930 . S
C182 N180 1.334 . S
C182 C181 1.391 . S
C182 H189 0.930 . S
C183 N180 1.328 . S
C183 C185 1.392 . S
C183 H190 0.930 . S
N184 C181 1.329 . S
N184 C185 1.331 . S
C185 C183 1.392 . S
C185 N184 1.331 . S
O186 Zn179 1.975 . S
O186 C187 1.252 . S
C187 O186 1.252 . S
C187 O188 1.252 . S
O188 Zn170 1.975 . S
O188 C187 1.252 . S
H189 C182 0.930 . S
H190 C183 0.930 . S
C191 C192 1.392 . S
C191 N195 1.328 . S
C191 H197 0.930 . S
C192 C191 1.392 . S
C192 N196 1.331 . S
C193 C194 1.391 . S
C193 N196 1.329 . S
C193 H203 0.930 . S
C194 C193 1.391 . S
C194 N195 1.334 . S
C194 H201 0.930 . S
N195 Zn179 2.119 . S
N195 C191 1.328 . S
N195 C194 1.334 . S
N196 C192 1.331 . S
N196 C193 1.329 . S
H197 C191 0.930 . S
C198 O178 1.257 . S
C198 O199 1.244 . S
O199 C198 1.244 . S
O200 C176 1.257 . S
O200 Zn179 2.019 . S
H201 C194 0.930 . S
H202 C181 0.930 . S
H203 C193 0.930 . S
Zn204 N208 2.020 . S
Zn204 O212 2.019 . S
Zn204 N214 2.119 . S
Zn204 O222 1.975 . S
C205 N206 1.334 . S
C205 N209 1.336 . S
N206 C205 1.334 . S
N206 C207 1.334 . S
C207 N206 1.334 . S
C207 N208 1.336 . S
N208 Zn204 2.020 . S
N208 C207 1.336 . S
N208 N209 1.354 . S
N209 C205 1.336 . S
N209 N208 1.354 . S
N209 Zn213 2.020 . S
C210 O211 1.244 . S
C210 O234 1.257 . S
O211 C210 1.244 . S
O212 Zn204 2.019 . S
O212 C232 1.257 . S
Zn213 N209 2.020 . S
Zn213 O220 1.975 . S
Zn213 N229 2.119 . S
Zn213 O234 2.019 . S
N214 Zn204 2.119 . S
N214 C216 1.334 . S
N214 C217 1.328 . S
C215 C216 1.391 . S
C215 N218 1.329 . S
C215 H236 0.930 . S
C216 N214 1.334 . S
C216 C215 1.391 . S
C216 H223 0.930 . S
C217 N214 1.328 . S
C217 C219 1.392 . S
C217 H224 0.930 . S
N218 C215 1.329 . S
N218 C219 1.331 . S
C219 C217 1.392 . S
C219 N218 1.331 . S
O220 Zn213 1.975 . S
O220 C221 1.252 . S
C221 O220 1.252 . S
C221 O222 1.252 . S
O222 Zn204 1.975 . S
O222 C221 1.252 . S
H223 C216 0.930 . S
H224 C217 0.930 . S
C225 C226 1.392 . S
C225 N229 1.328 . S
C225 H231 0.930 . S
C226 C225 1.392 . S
C226 N230 1.331 . S
C227 C228 1.391 . S
C227 N230 1.329 . S
C227 H237 0.930 . S
C228 C227 1.391 . S
C228 N229 1.334 . S
C228 H235 0.930 . S
N229 Zn213 2.119 . S
N229 C225 1.328 . S
N229 C228 1.334 . S
N230 C226 1.331 . S
N230 C227 1.329 . S
H231 C225 0.930 . S
C232 O212 1.257 . S
C232 O233 1.244 . S
O233 C232 1.244 . S
O234 C210 1.257 . S
O234 Zn213 2.019 . S
H235 C228 0.930 . S
H236 C215 0.930 . S
H237 C227 0.930 . S
Zn238 N242 2.020 . S
Zn238 O246 2.019 . S
Zn238 N248 2.119 . S
Zn238 O256 1.975 . S
C239 N240 1.334 . S
C239 N243 1.336 . S
N240 C239 1.334 . S
N240 C241 1.334 . S
C241 N240 1.334 . S
C241 N242 1.336 . S
N242 Zn238 2.020 . S
N242 C241 1.336 . S
N242 N243 1.354 . S
N243 C239 1.336 . S
N243 N242 1.354 . S
N243 Zn247 2.020 . S
C244 O245 1.244 . S
C244 O268 1.257 . S
O245 C244 1.244 . S
O246 Zn238 2.019 . S
O246 C266 1.257 . S
Zn247 N243 2.020 . S
Zn247 O254 1.975 . S
Zn247 N263 2.119 . S
Zn247 O268 2.019 . S
N248 Zn238 2.119 . S
N248 C250 1.334 . S
N248 C251 1.328 . S
C249 C250 1.391 . S
C249 N252 1.329 . S
C249 H270 0.930 . S
C250 N248 1.334 . S
C250 C249 1.391 . S
C250 H257 0.930 . S
C251 N248 1.328 . S
C251 C253 1.392 . S
C251 H258 0.930 . S
N252 C249 1.329 . S
N252 C253 1.331 . S
C253 C251 1.392 . S
C253 N252 1.331 . S
O254 Zn247 1.975 . S
O254 C255 1.252 . S
C255 O254 1.252 . S
C255 O256 1.252 . S
O256 Zn238 1.975 . S
O256 C255 1.252 . S
H257 C250 0.930 . S
H258 C251 0.930 . S
C259 C260 1.392 . S
C259 N263 1.328 . S
C259 H265 0.930 . S
C260 C259 1.392 . S
C260 N264 1.331 . S
C261 C262 1.391 . S
C261 N264 1.329 . S
C261 H271 0.930 . S
C262 C261 1.391 . S
C262 N263 1.334 . S
C262 H269 0.930 . S
N263 Zn247 2.119 . S
N263 C259 1.328 . S
N263 C262 1.334 . S
N264 C260 1.331 . S
N264 C261 1.329 . S
H265 C259 0.930 . S
C266 O246 1.257 . S
C266 O267 1.244 . S
O267 C266 1.244 . S
O268 C244 1.257 . S
O268 Zn247 2.019 . S
H269 C262 0.930 . S
H270 C249 0.930 . S
H271 C261 0.930 . S
Zn272 N276 2.020 . S
Zn272 O280 2.019 . S
Zn272 N282 2.119 . S
Zn272 O290 1.975 . S
C273 N274 1.334 . S
C273 N277 1.336 . S
N274 C273 1.334 . S
N274 C275 1.334 . S
C275 N274 1.334 . S
C275 N276 1.336 . S
N276 Zn272 2.020 . S
N276 C275 1.336 . S
N276 N277 1.354 . S
N277 C273 1.336 . S
N277 N276 1.354 . S
N277 Zn281 2.020 . S
C278 O279 1.244 . S
C278 O302 1.257 . S
O279 C278 1.244 . S
O280 Zn272 2.019 . S
O280 C300 1.257 . S
Zn281 N277 2.020 . S
Zn281 O288 1.975 . S
Zn281 N297 2.119 . S
Zn281 O302 2.019 . S
N282 Zn272 2.119 . S
N282 C284 1.334 . S
N282 C285 1.328 . S
C283 C284 1.391 . S
C283 N286 1.329 . S
C283 H304 0.930 . S
C284 N282 1.334 . S
C284 C283 1.391 . S
C284 H291 0.930 . S
C285 N282 1.328 . S
C285 C287 1.392 . S
C285 H292 0.930 . S
N286 C283 1.329 . S
N286 C287 1.331 . S
C287 C285 1.392 . S
C287 N286 1.331 . S
O288 Zn281 1.975 . S
O288 C289 1.252 . S
C289 O288 1.252 . S
C289 O290 1.252 . S
O290 Zn272 1.975 . S
O290 C289 1.252 . S
H291 C284 0.930 . S
H292 C285 0.930 . S
C293 C294 1.392 . S
C293 N297 1.328 . S
C293 H299 0.930 . S
C294 C293 1.392 . S
C294 N298 1.331 . S
C295 C296 1.391 . S
C295 N298 1.329 . S
C295 H305 0.930 . S
C296 C295 1.391 . S
C296 N297 1.334 . S
C296 H303 0.930 . S
N297 Zn281 2.119 . S
N297 C293 1.328 . S
N297 C296 1.334 . S
N298 C294 1.331 . S
N298 C295 1.329 . S
H299 C293 0.930 . S
C300 O280 1.257 . S
C300 O301 1.244 . S
O301 C300 1.244 . S
O302 C278 1.257 . S
O302 Zn281 2.019 . S
H303 C296 0.930 . S
H304 C283 0.930 . S
H305 C295 0.930 . S
Zn306 N310 2.020 . S
Zn306 O314 2.019 . S
Zn306 N316 2.119 . S
Zn306 O324 1.975 . S
C307 N308 1.334 . S
C307 N311 1.336 . S
N308 C307 1.334 . S
N308 C309 1.334 . S
C309 N308 1.334 . S
C309 N310 1.336 . S
N310 Zn306 2.020 . S
N310 C309 1.336 . S
N310 N311 1.354 . S
N311 C307 1.336 . S
N311 N310 1.354 . S
N311 Zn315 2.020 . S
C312 O313 1.244 . S
C312 O336 1.257 . S
O313 C312 1.244 . S
O314 Zn306 2.019 . S
O314 C334 1.257 . S
Zn315 N311 2.020 . S
Zn315 O322 1.975 . S
Zn315 N331 2.119 . S
Zn315 O336 2.019 . S
N316 Zn306 2.119 . S
N316 C318 1.334 . S
N316 C319 1.328 . S
C317 C318 1.391 . S
C317 N320 1.329 . S
C317 H338 0.930 . S
C318 N316 1.334 . S
C318 C317 1.391 . S
C318 H325 0.930 . S
C319 N316 1.328 . S
C319 C321 1.392 . S
C319 H326 0.930 . S
N320 C317 1.329 . S
N320 C321 1.331 . S
C321 C319 1.392 . S
C321 N320 1.331 . S
O322 Zn315 1.975 . S
O322 C323 1.252 . S
C323 O322 1.252 . S
C323 O324 1.252 . S
O324 Zn306 1.975 . S
O324 C323 1.252 . S
H325 C318 0.930 . S
H326 C319 0.930 . S
C327 C328 1.392 . S
C327 N331 1.328 . S
C327 H333 0.930 . S
C328 C327 1.392 . S
C328 N332 1.331 . S
C329 C330 1.391 . S
C329 N332 1.329 . S
C329 H339 0.930 . S
C330 C329 1.391 . S
C330 N331 1.334 . S
C330 H337 0.930 . S
N331 Zn315 2.119 . S
N331 C327 1.328 . S
N331 C330 1.334 . S
N332 C328 1.331 . S
N332 C329 1.329 . S
H333 C327 0.930 . S
C334 O314 1.257 . S
C334 O335 1.244 . S
O335 C334 1.244 . S
O336 C312 1.257 . S
O336 Zn315 2.019 . S
H337 C330 0.930 . S
H338 C317 0.930 . S
H339 C329 0.930 . S
Zn340 N344 2.020 . S
Zn340 O348 2.019 . S
Zn340 N350 2.119 . S
Zn340 O358 1.975 . S
C341 N342 1.334 . S
C341 N345 1.336 . S
N342 C341 1.334 . S
N342 C343 1.334 . S
C343 N342 1.334 . S
C343 N344 1.336 . S
N344 Zn340 2.020 . S
N344 C343 1.336 . S
N344 N345 1.354 . S
N345 C341 1.336 . S
N345 N344 1.354 . S
N345 Zn349 2.020 . S
C346 O347 1.244 . S
C346 O370 1.257 . S
O347 C346 1.244 . S
O348 Zn340 2.019 . S
O348 C368 1.257 . S
Zn349 N345 2.020 . S
Zn349 O356 1.975 . S
Zn349 N365 2.119 . S
Zn349 O370 2.019 . S
N350 Zn340 2.119 . S
N350 C352 1.334 . S
N350 C353 1.328 . S
C351 C352 1.391 . S
C351 N354 1.329 . S
C351 H372 0.930 . S
C352 N350 1.334 . S
C352 C351 1.391 . S
C352 H359 0.930 . S
C353 N350 1.328 . S
C353 C355 1.392 . S
C353 H360 0.930 . S
N354 C351 1.329 . S
N354 C355 1.331 . S
C355 C353 1.392 . S
C355 N354 1.331 . S
O356 Zn349 1.975 . S
O356 C357 1.252 . S
C357 O356 1.252 . S
C357 O358 1.252 . S
O358 Zn340 1.975 . S
O358 C357 1.252 . S
H359 C352 0.930 . S
H360 C353 0.930 . S
C361 C362 1.392 . S
C361 N365 1.328 . S
C361 H367 0.930 . S
C362 C361 1.392 . S
C362 N366 1.331 . S
C363 C364 1.391 . S
C363 N366 1.329 . S
C363 H373 0.930 . S
C364 C363 1.391 . S
C364 N365 1.334 . S
C364 H371 0.930 . S
N365 Zn349 2.119 . S
N365 C361 1.328 . S
N365 C364 1.334 . S
N366 C362 1.331 . S
N366 C363 1.329 . S
H367 C361 0.930 . S
C368 O348 1.257 . S
C368 O369 1.244 . S
O369 C368 1.244 . S
O370 C346 1.257 . S
O370 Zn349 2.019 . S
H371 C364 0.930 . S
H372 C351 0.930 . S
H373 C363 0.930 . S
Zn374 N378 2.020 . S
Zn374 O382 2.019 . S
Zn374 N384 2.119 . S
Zn374 O392 1.975 . S
C375 N376 1.334 . S
C375 N379 1.336 . S
N376 C375 1.334 . S
N376 C377 1.334 . S
C377 N376 1.334 . S
C377 N378 1.336 . S
N378 Zn374 2.020 . S
N378 C377 1.336 . S
N378 N379 1.354 . S
N379 C375 1.336 . S
N379 N378 1.354 . S
N379 Zn383 2.020 . S
C380 O381 1.244 . S
C380 O404 1.257 . S
O381 C380 1.244 . S
O382 Zn374 2.019 . S
O382 C402 1.257 . S
Zn383 N379 2.020 . S
Zn383 O390 1.975 . S
Zn383 N399 2.119 . S
Zn383 O404 2.019 . S
N384 Zn374 2.119 . S
N384 C386 1.334 . S
N384 C387 1.328 . S
C385 C386 1.391 . S
C385 N388 1.329 . S
C385 H406 0.930 . S
C386 N384 1.334 . S
C386 C385 1.391 . S
C386 H393 0.930 . S
C387 N384 1.328 . S
C387 C389 1.392 . S
C387 H394 0.930 . S
N388 C385 1.329 . S
N388 C389 1.331 . S
C389 C387 1.392 . S
C389 N388 1.331 . S
O390 Zn383 1.975 . S
O390 C391 1.252 . S
C391 O390 1.252 . S
C391 O392 1.252 . S
O392 Zn374 1.975 . S
O392 C391 1.252 . S
H393 C386 0.930 . S
H394 C387 0.930 . S
C395 C396 1.392 . S
C395 N399 1.328 . S
C395 H401 0.930 . S
C396 C395 1.392 . S
C396 N400 1.331 . S
C397 C398 1.391 . S
C397 N400 1.329 . S
C397 H407 0.930 . S
C398 C397 1.391 . S
C398 N399 1.334 . S
C398 H405 0.930 . S
N399 Zn383 2.119 . S
N399 C395 1.328 . S
N399 C398 1.334 . S
N400 C396 1.331 . S
N400 C397 1.329 . S
H401 C395 0.930 . S
C402 O382 1.257 . S
C402 O403 1.244 . S
O403 C402 1.244 . S
O404 C380 1.257 . S
O404 Zn383 2.019 . S
H405 C398 0.930 . S
H406 C385 0.930 . S
H407 C397 0.930 . S
Zn408 N412 2.020 . S
Zn408 O416 2.019 . S
Zn408 N418 2.119 . S
Zn408 O426 1.975 . S
C409 N410 1.334 . S
C409 N413 1.336 . S
N410 C409 1.334 . S
N410 C411 1.334 . S
C411 N410 1.334 . S
C411 N412 1.336 . S
N412 Zn408 2.020 . S
N412 C411 1.336 . S
N412 N413 1.354 . S
N413 C409 1.336 . S
N413 N412 1.354 . S
N413 Zn417 2.020 . S
C414 O415 1.244 . S
C414 O438 1.257 . S
O415 C414 1.244 . S
O416 Zn408 2.019 . S
O416 C436 1.257 . S
Zn417 N413 2.020 . S
Zn417 O424 1.975 . S
Zn417 N433 2.119 . S
Zn417 O438 2.019 . S
N418 Zn408 2.119 . S
N418 C420 1.334 . S
N418 C421 1.328 . S
C419 C420 1.391 . S
C419 N422 1.329 . S
C419 H440 0.930 . S
C420 N418 1.334 . S
C420 C419 1.391 . S
C420 H427 0.930 . S
C421 N418 1.328 . S
C421 C423 1.392 . S
C421 H428 0.930 . S
N422 C419 1.329 . S
N422 C423 1.331 . S
C423 C421 1.392 . S
C423 N422 1.331 . S
O424 Zn417 1.975 . S
O424 C425 1.252 . S
C425 O424 1.252 . S
C425 O426 1.252 . S
O426 Zn408 1.975 . S
O426 C425 1.252 . S
H427 C420 0.930 . S
H428 C421 0.930 . S
C429 C430 1.392 . S
C429 N433 1.328 . S
C429 H435 0.930 . S
C430 C429 1.392 . S
C430 N434 1.331 . S
C431 C432 1.391 . S
C431 N434 1.329 . S
C431 H441 0.930 . S
C432 C431 1.391 . S
C432 N433 1.334 . S
C432 H439 0.930 . S
N433 Zn417 2.119 . S
N433 C429 1.328 . S
N433 C432 1.334 . S
N434 C430 1.331 . S
N434 C431 1.329 . S
H435 C429 0.930 . S
C436 O416 1.257 . S
C436 O437 1.244 . S
O437 C436 1.244 . S
O438 C414 1.257 . S
O438 Zn417 2.019 . S
H439 C432 0.930 . S
H440 C419 0.930 . S
H441 C431 0.930 . S
Zn442 N446 2.020 . S
Zn442 O450 2.019 . S
Zn442 N452 2.119 . S
Zn442 O460 1.975 . S
C443 N444 1.334 . S
C443 N447 1.336 . S
N444 C443 1.334 . S
N444 C445 1.334 . S
C445 N444 1.334 . S
C445 N446 1.336 . S
N446 Zn442 2.020 . S
N446 C445 1.336 . S
N446 N447 1.354 . S
N447 C443 1.336 . S
N447 N446 1.354 . S
N447 Zn451 2.020 . S
C448 O449 1.244 . S
C448 O472 1.257 . S
O449 C448 1.244 . S
O450 Zn442 2.019 . S
O450 C470 1.257 . S
Zn451 N447 2.020 . S
Zn451 O458 1.975 . S
Zn451 N467 2.119 . S
Zn451 O472 2.019 . S
N452 Zn442 2.119 . S
N452 C454 1.334 . S
N452 C455 1.328 . S
C453 C454 1.391 . S
C453 N456 1.329 . S
C453 H474 0.930 . S
C454 N452 1.334 . S
C454 C453 1.391 . S
C454 H461 0.930 . S
C455 N452 1.328 . S
C455 C457 1.392 . S
C455 H462 0.930 . S
N456 C453 1.329 . S
N456 C457 1.331 . S
C457 C455 1.392 . S
C457 N456 1.331 . S
O458 Zn451 1.975 . S
O458 C459 1.252 . S
C459 O458 1.252 . S
C459 O460 1.252 . S
O460 Zn442 1.975 . S
O460 C459 1.252 . S
H461 C454 0.930 . S
H462 C455 0.930 . S
C463 C464 1.392 . S
C463 N467 1.328 . S
C463 H469 0.930 . S
C464 C463 1.392 . S
C464 N468 1.331 . S
C465 C466 1.391 . S
C465 N468 1.329 . S
C465 H475 0.930 . S
C466 C465 1.391 . S
C466 N467 1.334 . S
C466 H473 0.930 . S
N467 Zn451 2.119 . S
N467 C463 1.328 . S
N467 C466 1.334 . S
N468 C464 1.331 . S
N468 C465 1.329 . S
H469 C463 0.930 . S
C470 O450 1.257 . S
C470 O471 1.244 . S
O471 C470 1.244 . S
O472 C448 1.257 . S
O472 Zn451 2.019 . S
H473 C466 0.930 . S
H474 C453 0.930 . S
H475 C465 0.930 . S
Zn476 N480 2.020 . S
Zn476 O484 2.019 . S
Zn476 N486 2.119 . S
Zn476 O494 1.975 . S
C477 N478 1.334 . S
C477 N481 1.336 . S
N478 C477 1.334 . S
N478 C479 1.334 . S
C479 N478 1.334 . S
C479 N480 1.336 . S
N480 Zn476 2.020 . S
N480 C479 1.336 . S
N480 N481 1.354 . S
N481 C477 1.336 . S
N481 N480 1.354 . S
N481 Zn485 2.020 . S
C482 O483 1.244 . S
C482 O506 1.257 . S
O483 C482 1.244 . S
O484 Zn476 2.019 . S
O484 C504 1.257 . S
Zn485 N481 2.020 . S
Zn485 O492 1.975 . S
Zn485 N501 2.119 . S
Zn485 O506 2.019 . S
N486 Zn476 2.119 . S
N486 C488 1.334 . S
N486 C489 1.328 . S
C487 C488 1.391 . S
C487 N490 1.329 . S
C487 H508 0.930 . S
C488 N486 1.334 . S
C488 C487 1.391 . S
C488 H495 0.930 . S
C489 N486 1.328 . S
C489 C491 1.392 . S
C489 H496 0.930 . S
N490 C487 1.329 . S
N490 C491 1.331 . S
C491 C489 1.392 . S
C491 N490 1.331 . S
O492 Zn485 1.975 . S
O492 C493 1.252 . S
C493 O492 1.252 . S
C493 O494 1.252 . S
O494 Zn476 1.975 . S
O494 C493 1.252 . S
H495 C488 0.930 . S
H496 C489 0.930 . S
C497 C498 1.392 . S
C497 N501 1.328 . S
C497 H503 0.930 . S
C498 C497 1.392 . S
C498 N502 1.331 . S
C499 C500 1.391 . S
C499 N502 1.329 . S
C499 H509 0.930 . S
C500 C499 1.391 . S
C500 N501 1.334 . S
C500 H507 0.930 . S
N501 Zn485 2.119 . S
N501 C497 1.328 . S
N501 C500 1.334 . S
N502 C498 1.331 . S
N502 C499 1.329 . S
H503 C497 0.930 . S
C504 O484 1.257 . S
C504 O505 1.244 . S
O505 C504 1.244 . S
O506 C482 1.257 . S
O506 Zn485 2.019 . S
H507 C500 0.930 . S
H508 C487 0.930 . S
H509 C499 0.930 . S
Zn510 N514 2.020 . S
Zn510 O518 2.019 . S
Zn510 N520 2.119 . S
Zn510 O528 1.975 . S
C511 N512 1.334 . S
C511 N515 1.336 . S
N512 C511 1.334 . S
N512 C513 1.334 . S
C513 N512 1.334 . S
C513 N514 1.336 . S
N514 Zn510 2.020 . S
N514 C513 1.336 . S
N514 N515 1.354 . S
N515 C511 1.336 . S
N515 N514 1.354 . S
N515 Zn519 2.020 . S
C516 O517 1.244 . S
C516 O540 1.257 . S
O517 C516 1.244 . S
O518 Zn510 2.019 . S
O518 C538 1.257 . S
Zn519 N515 2.020 . S
Zn519 O526 1.975 . S
Zn519 N535 2.119 . S
Zn519 O540 2.019 . S
N520 Zn510 2.119 . S
N520 C522 1.334 . S
N520 C523 1.328 . S
C521 C522 1.391 . S
C521 N524 1.329 . S
C521 H542 0.930 . S
C522 N520 1.334 . S
C522 C521 1.391 . S
C522 H529 0.930 . S
C523 N520 1.328 . S
C523 C525 1.392 . S
C523 H530 0.930 . S
N524 C521 1.329 . S
N524 C525 1.331 . S
C525 C523 1.392 . S
C525 N524 1.331 . S
O526 Zn519 1.975 . S
O526 C527 1.252 . S
C527 O526 1.252 . S
C527 O528 1.252 . S
O528 Zn510 1.975 . S
O528 C527 1.252 . S
H529 C522 0.930 . S
H530 C523 0.930 . S
C531 C532 1.392 . S
C531 N535 1.328 . S
C531 H537 0.930 . S
C532 C531 1.392 . S
C532 N536 1.331 . S
C533 C534 1.391 . S
C533 N536 1.329 . S
C533 H543 0.930 . S
C534 C533 1.391 . S
C534 N535 1.334 . S
C534 H541 0.930 . S
N535 Zn519 2.119 . S
N535 C531 1.328 . S
N535 C534 1.334 . S
N536 C532 1.331 . S
N536 C533 1.329 . S
H537 C531 0.930 . S
C538 O518 1.257 . S
C538 O539 1.244 . S
O539 C538 1.244 . S
O540 C516 1.257 . S
O540 Zn519 2.019 . S
H541 C534 0.930 . S
H542 C521 0.930 . S
H543 C533 0.930 . S
C544 C545 1.349 . S
C544 C546 1.320 1_565 S
C544 H569 0.950 1_565 S
C545 C544 1.349 . S
C545 C561 1.349 . S
C546 C544 1.320 1_545 S
C546 C565 1.414 1_545 S
C546 H570 0.974 . S
C547 C564 1.574 1_556 S
C547 C566 1.368 . S
C547 H571 0.949 . S
H548 C552 0.949 . S
C549 C550 1.349 . S
C549 C551 1.320 1_545 S
C549 H572 0.950 1_545 S
C550 C549 1.349 . S
C550 C562 1.349 . S
C551 C549 1.320 1_565 S
C551 C567 1.414 1_565 S
C551 H573 0.974 . S
C552 H548 0.949 . S
C552 C560 1.574 1_554 S
C552 C568 1.368 . S
H553 C561 0.950 . S
H554 C559 0.950 . S
H555 C560 0.949 . S
H556 C562 0.950 . S
H557 C563 0.950 . S
H558 C564 0.949 . S
C559 H554 0.950 . S
C559 C561 1.327 . S
C559 C565 1.429 . S
C560 C552 1.574 1_556 S
C560 H555 0.949 . S
C560 C566 1.368 1_545 S
C561 C545 1.349 . S
C561 H553 0.950 . S
C561 C559 1.327 . S
C562 C550 1.349 . S
C562 H556 0.950 . S
C562 C563 1.327 . S
C563 H557 0.950 . S
C563 C562 1.327 . S
C563 C567 1.429 . S
C564 C547 1.574 1_554 S
C564 H558 0.949 . S
C564 C568 1.368 1_565 S
C565 C546 1.414 1_565 S
C565 C559 1.429 . S
C565 C566 1.523 . S
C566 C547 1.368 . S
C566 C560 1.368 1_565 S
C566 C565 1.523 . S
C567 C551 1.414 1_545 S
C567 C563 1.429 . S
C567 C568 1.523 . S
C568 C552 1.368 . S
C568 C564 1.368 1_545 S
C568 C567 1.523 . S
H569 C544 0.950 1_545 S
H570 C546 0.974 . S
H571 C547 0.949 . S
H572 C549 0.950 1_565 S
H573 C551 0.974 . S
C574 C575 1.349 . S
C574 C576 1.327 . S
C574 H599 0.950 . S
C575 C574 1.349 . S
C575 C591 1.349 . S
C576 C574 1.327 . S
C576 C595 1.429 . S
C576 H600 0.950 . S
C577 C594 1.574 1_554 S
C577 C596 1.368 . S
C577 H601 0.949 . S
H578 C582 0.949 . S
C579 C580 1.349 . S
C579 C581 1.327 . S
C579 H602 0.950 . S
C580 C579 1.349 . S
C580 C592 1.349 . S
C581 C579 1.327 . S
C581 C597 1.429 . S
C581 H603 0.950 . S
C582 H578 0.949 . S
C582 C590 1.574 1_556 S
C582 C598 1.368 . S
H583 C591 0.950 . S
H584 C589 0.950 . S
H585 C590 0.949 . S
H586 C592 0.950 . S
H587 C593 0.950 . S
H588 C594 0.949 . S
C589 H584 0.950 . S
C589 C591 1.327 . S
C589 C595 1.429 . S
C590 C582 1.574 1_554 S
C590 H585 0.949 . S
C590 C596 1.368 . S
C591 C575 1.349 . S
C591 H583 0.950 . S
C591 C589 1.327 . S
C592 C580 1.349 . S
C592 H586 0.950 . S
C592 C593 1.327 . S
C593 H587 0.950 . S
C593 C592 1.327 . S
C593 C597 1.429 . S
C594 C577 1.574 1_556 S
C594 H588 0.949 . S
C594 C598 1.368 . S
C595 C576 1.429 . S
C595 C589 1.429 . S
C595 C596 1.523 . S
C596 C577 1.368 . S
C596 C590 1.368 . S
C596 C595 1.523 . S
C597 C581 1.429 . S
C597 C593 1.429 . S
C597 C598 1.523 . S
C598 C582 1.368 . S
C598 C594 1.368 . S
C598 C597 1.523 . S
H599 C574 0.950 . S
H600 C576 0.950 . S
H601 C577 0.949 . S
H602 C579 0.950 . S
H603 C581 0.950 . S
C604 C605 1.349 . S
C604 C606 1.327 . S
C604 H629 0.950 . S
C605 C604 1.349 . S
C605 C621 1.349 . S
C606 C604 1.327 . S
C606 C625 1.429 . S
C606 H630 0.950 . S
C607 C624 1.574 1_556 S
C607 C626 1.368 . S
C607 H631 0.949 . S
H608 C612 0.949 . S
C609 C610 1.349 . S
C609 C611 1.327 . S
C609 H632 0.950 . S
C610 C609 1.349 . S
C610 C622 1.349 . S
C611 C609 1.327 . S
C611 C627 1.429 . S
C611 H633 0.950 . S
C612 H608 0.949 . S
C612 C620 1.574 1_554 S
C612 C628 1.368 . S
H613 C621 0.950 . S
H614 C619 0.950 . S
H615 C620 0.949 . S
H616 C622 0.950 . S
H617 C623 0.950 . S
H618 C624 0.949 . S
C619 H614 0.950 . S
C619 C621 1.327 . S
C619 C625 1.429 . S
C620 C612 1.574 1_556 S
C620 H615 0.949 . S
C620 C626 1.368 1_655 S
C621 C605 1.349 . S
C621 H613 0.950 . S
C621 C619 1.327 . S
C622 C610 1.349 . S
C622 H616 0.950 . S
C622 C623 1.327 . S
C623 H617 0.950 . S
C623 C622 1.327 . S
C623 C627 1.429 . S
C624 C607 1.574 1_554 S
C624 H618 0.949 . S
C624 C628 1.368 1_455 S
C625 C606 1.429 . S
C625 C619 1.429 . S
C625 C626 1.523 . S
C626 C607 1.368 . S
C626 C620 1.368 1_455 S
C626 C625 1.523 . S
C627 C611 1.429 . S
C627 C623 1.429 . S
C627 C628 1.523 . S
C628 C612 1.368 . S
C628 C624 1.368 1_655 S
C628 C627 1.523 . S
H629 C604 0.950 . S
H630 C606 0.950 . S
H631 C607 0.949 . S
H632 C609 0.950 . S
H633 C611 0.950 . S
C634 C635 1.349 . S
C634 C636 1.320 1_455 S
C634 H659 0.950 1_455 S
C635 C634 1.349 . S
C635 C651 1.349 . S
C636 C634 1.320 1_655 S
C636 C655 1.414 1_655 S
C636 H660 0.973 . S
C637 C654 1.574 1_554 S
C637 C656 1.368 1_545 S
C637 H661 0.949 . S
H638 C642 0.949 . S
C639 C640 1.349 . S
C639 C641 1.320 1_655 S
C639 H662 0.950 1_655 S
C640 C639 1.349 . S
C640 C652 1.349 . S
C641 C639 1.320 1_455 S
C641 C657 1.414 1_455 S
C641 H663 0.973 . S
C642 H638 0.949 . S
C642 C650 1.574 1_556 S
C642 C658 1.368 1_565 S
H643 C651 0.950 . S
H644 C649 0.950 . S
H645 C650 0.949 . S
H646 C652 0.950 . S
H647 C653 0.950 . S
H648 C654 0.949 . S
C649 H644 0.950 . S
C649 C651 1.327 . S
C649 C655 1.429 . S
C650 C642 1.574 1_554 S
C650 H645 0.949 . S
C650 C656 1.368 1_655 S
C651 C635 1.349 . S
C651 H643 0.950 . S
C651 C649 1.327 . S
C652 C640 1.349 . S
C652 H646 0.950 . S
C652 C653 1.327 . S
C653 H647 0.950 . S
C653 C652 1.327 . S
C653 C657 1.429 . S
C654 C637 1.574 1_556 S
C654 H648 0.949 . S
C654 C658 1.368 1_455 S
C655 C636 1.414 1_455 S
C655 C649 1.429 . S
C655 C656 1.523 . S
C656 C637 1.368 1_565 S
C656 C650 1.368 1_455 S
C656 C655 1.523 . S
C657 C641 1.414 1_655 S
C657 C653 1.429 . S
C657 C658 1.523 . S
C658 C642 1.368 1_545 S
C658 C654 1.368 1_655 S
C658 C657 1.523 . S
H659 C634 0.950 1_655 S
H660 C636 0.973 . S
H661 C637 0.949 . S
H662 C639 0.950 1_455 S
H663 C641 0.973 . S
C664 C665 1.349 . S
C664 C666 1.327 . S
C664 H689 0.950 . S
C665 C664 1.349 . S
C665 C681 1.349 . S
C666 C664 1.327 . S
C666 C685 1.429 . S
C666 H690 0.950 . S
C667 C684 1.574 . S
C667 C686 1.368 1_645 S
C667 H691 0.949 . S
H668 C672 0.949 . S
C669 C670 1.349 . S
C669 C671 1.327 . S
C669 H692 0.950 . S
C670 C669 1.349 . S
C670 C682 1.349 . S
C671 C669 1.327 . S
C671 C687 1.429 . S
C671 H693 0.950 . S
C672 H668 0.949 . S
C672 C680 1.574 . S
C672 C688 1.368 1_465 S
H673 C681 0.950 1_545 S
H674 C679 0.947 . S
H675 C680 0.949 . S
H676 C682 0.950 1_565 S
H677 C683 0.947 . S
H678 C684 0.949 . S
C679 H674 0.947 . S
C679 C681 1.328 1_545 S
C679 C685 1.430 1_545 S
C680 C672 1.574 . S
C680 H675 0.949 . S
C680 C686 1.368 . S
C681 C665 1.349 . S
C681 H673 0.950 1_565 S
C681 C679 1.328 1_565 S
C682 C670 1.349 . S
C682 H676 0.950 1_545 S
C682 C683 1.328 1_545 S
C683 H677 0.947 . S
C683 C682 1.328 1_565 S
C683 C687 1.430 1_565 S
C684 C667 1.574 . S
C684 H678 0.949 . S
C684 C688 1.368 . S
C685 C666 1.429 . S
C685 C679 1.430 1_565 S
C685 C686 1.523 . S
C686 C667 1.368 1_465 S
C686 C680 1.368 . S
C686 C685 1.523 . S
C687 C671 1.429 . S
C687 C683 1.430 1_545 S
C687 C688 1.523 . S
C688 C672 1.368 1_645 S
C688 C684 1.368 . S
C688 C687 1.523 . S
H689 C664 0.950 . S
H690 C666 0.950 . S
H691 C667 0.949 . S
H692 C669 0.950 . S
H693 C671 0.950 . S
C694 C695 1.349 . S
C694 C696 1.327 . S
C694 H719 0.950 . S
C695 C694 1.349 . S
C695 C711 1.349 . S
C696 C694 1.327 . S
C696 C715 1.429 . S
C696 H720 0.950 . S
C697 C714 1.574 . S
C697 C716 1.368 . S
C697 H721 0.949 . S
H698 C702 0.949 . S
C699 C700 1.349 . S
C699 C701 1.327 . S
C699 H722 0.950 . S
C700 C699 1.349 . S
C700 C712 1.349 . S
C701 C699 1.327 . S
C701 C717 1.429 . S
C701 H723 0.950 . S
C702 H698 0.949 . S
C702 C710 1.574 . S
C702 C718 1.368 . S
H703 C711 0.950 . S
H704 C709 0.950 . S
H705 C710 0.949 . S
H706 C712 0.950 . S
H707 C713 0.950 . S
H708 C714 0.949 . S
C709 H704 0.950 . S
C709 C711 1.327 . S
C709 C715 1.429 . S
C710 C702 1.574 . S
C710 H705 0.949 . S
C710 C716 1.368 1_565 S
C711 C695 1.349 . S
C711 H703 0.950 . S
C711 C709 1.327 . S
C712 C700 1.349 . S
C712 H706 0.950 . S
C712 C713 1.327 . S
C713 H707 0.950 . S
C713 C712 1.327 . S
C713 C717 1.429 . S
C714 C697 1.574 . S
C714 H708 0.949 . S
C714 C718 1.368 1_545 S
C715 C696 1.429 . S
C715 C709 1.429 . S
C715 C716 1.523 . S
C716 C697 1.368 . S
C716 C710 1.368 1_545 S
C716 C715 1.523 . S
C717 C701 1.429 . S
C717 C713 1.429 . S
C717 C718 1.523 . S
C718 C702 1.368 . S
C718 C714 1.368 1_565 S
C718 C717 1.523 . S
H719 C694 0.950 . S
H720 C696 0.950 . S
H721 C697 0.949 . S
H722 C699 0.950 . S
H723 C701 0.950 . S
C724 C725 1.349 . S
C724 C726 1.327 . S
C724 H749 0.950 . S
C725 C724 1.349 . S
C725 C741 1.349 . S
C726 C724 1.327 . S
C726 C745 1.429 . S
C726 H750 0.950 . S
C727 C744 1.574 . S
C727 C746 1.368 . S
C727 H751 0.949 . S
H728 C732 0.949 . S
C729 C730 1.349 . S
C729 C731 1.327 . S
C729 H752 0.950 . S
C730 C729 1.349 . S
C730 C742 1.349 . S
C731 C729 1.327 . S
C731 C747 1.429 . S
C731 H753 0.950 . S
C732 H728 0.949 . S
C732 C740 1.574 . S
C732 C748 1.368 . S
H733 C741 0.950 . S
H734 C739 0.950 . S
H735 C740 0.949 . S
H736 C742 0.950 . S
H737 C743 0.950 . S
H738 C744 0.949 . S
C739 H734 0.950 . S
C739 C741 1.327 . S
C739 C745 1.429 . S
C740 C732 1.574 . S
C740 H735 0.949 . S
C740 C746 1.368 . S
C741 C725 1.349 . S
C741 H733 0.950 . S
C741 C739 1.327 . S
C742 C730 1.349 . S
C742 H736 0.950 . S
C742 C743 1.327 . S
C743 H737 0.950 . S
C743 C742 1.327 . S
C743 C747 1.429 . S
C744 C727 1.574 . S
C744 H738 0.949 . S
C744 C748 1.368 . S
C745 C726 1.429 . S
C745 C739 1.429 . S
C745 C746 1.523 . S
C746 C727 1.368 . S
C746 C740 1.368 . S
C746 C745 1.523 . S
C747 C731 1.429 . S
C747 C743 1.429 . S
C747 C748 1.523 . S
C748 C732 1.368 . S
C748 C744 1.368 . S
C748 C747 1.523 . S
H749 C724 0.950 . S
H750 C726 0.950 . S
H751 C727 0.949 . S
H752 C729 0.950 . S
H753 C731 0.950 . S
C754 C755 1.349 1_655 S
C754 C756 1.327 . S
C754 H779 0.950 . S
C755 C754 1.349 1_455 S
C755 C771 1.349 . S
C756 C754 1.327 . S
C756 C775 1.429 1_655 S
C756 H780 0.950 . S
C757 C774 1.574 . S
C757 C776 1.368 . S
C757 H781 0.949 . S
H758 C762 0.949 . S
C759 C760 1.349 1_455 S
C759 C761 1.327 . S
C759 H782 0.950 . S
C760 C759 1.349 1_655 S
C760 C772 1.349 . S
C761 C759 1.327 . S
C761 C777 1.429 1_455 S
C761 H783 0.950 . S
C762 H758 0.949 . S
C762 C770 1.574 . S
C762 C778 1.368 . S
H763 C771 0.950 . S
H764 C769 0.950 . S
H765 C770 0.949 . S
H766 C772 0.950 . S
H767 C773 0.950 . S
H768 C774 0.949 . S
C769 H764 0.950 . S
C769 C771 1.327 . S
C769 C775 1.429 . S
C770 C762 1.574 . S
C770 H765 0.949 . S
C770 C776 1.368 1_655 S
C771 C755 1.349 . S
C771 H763 0.950 . S
C771 C769 1.327 . S
C772 C760 1.349 . S
C772 H766 0.950 . S
C772 C773 1.327 . S
C773 H767 0.950 . S
C773 C772 1.327 . S
C773 C777 1.429 . S
C774 C757 1.574 . S
C774 H768 0.949 . S
C774 C778 1.368 1_455 S
C775 C756 1.429 1_455 S
C775 C769 1.429 . S
C775 C776 1.523 . S
C776 C757 1.368 . S
C776 C770 1.368 1_455 S
C776 C775 1.523 . S
C777 C761 1.429 1_655 S
C777 C773 1.429 . S
C777 C778 1.523 . S
C778 C762 1.368 . S
C778 C774 1.368 1_655 S
C778 C777 1.523 . S
H779 C754 0.950 . S
H780 C756 0.950 . S
H781 C757 0.949 . S
H782 C759 0.950 . S
H783 C761 0.950 . S
C784 C785 1.349 . S
C784 C786 1.327 . S
C784 H809 0.950 . S
C785 C784 1.349 . S
C785 C801 1.349 . S
C786 C784 1.327 . S
C786 C805 1.429 . S
C786 H810 0.950 . S
C787 C804 1.574 . S
C787 C806 1.368 . S
C787 H811 0.949 . S
H788 C792 0.949 . S
C789 C790 1.349 . S
C789 C791 1.327 . S
C789 H812 0.950 . S
C790 C789 1.349 . S
C790 C802 1.349 . S
C791 C789 1.327 . S
C791 C807 1.429 . S
C791 H813 0.950 . S
C792 H788 0.949 . S
C792 C800 1.574 . S
C792 C808 1.368 . S
H793 C801 0.950 . S
H794 C799 0.950 . S
H795 C800 0.949 . S
H796 C802 0.950 . S
H797 C803 0.950 . S
H798 C804 0.949 . S
C799 H794 0.950 . S
C799 C801 1.327 . S
C799 C805 1.429 . S
C800 C792 1.574 . S
C800 H795 0.949 . S
C800 C806 1.368 . S
C801 C785 1.349 . S
C801 H793 0.950 . S
C801 C799 1.327 . S
C802 C790 1.349 . S
C802 H796 0.950 . S
C802 C803 1.327 . S
C803 H797 0.950 . S
C803 C802 1.327 . S
C803 C807 1.429 . S
C804 C787 1.574 . S
C804 H798 0.949 . S
C804 C808 1.368 . S
C805 C786 1.429 . S
C805 C799 1.429 . S
C805 C806 1.523 . S
C806 C787 1.368 . S
C806 C800 1.368 . S
C806 C805 1.523 . S
C807 C791 1.429 . S
C807 C803 1.429 . S
C807 C808 1.523 . S
C808 C792 1.368 . S
C808 C804 1.368 . S
C808 C807 1.523 . S
H809 C784 0.950 . S
H810 C786 0.950 . S
H811 C787 0.949 . S
H812 C789 0.950 . S
H813 C791 0.950 . S
C814 C815 1.349 . S
C814 C816 1.327 . S
C814 H839 0.950 . S
C815 C814 1.349 . S
C815 C831 1.349 . S
C816 C814 1.327 . S
C816 C835 1.429 . S
C816 H840 0.950 . S
C817 C834 1.574 . S
C817 C836 1.368 . S
C817 H841 0.949 . S
H818 C822 0.949 . S
C819 C820 1.349 . S
C819 C821 1.327 . S
C819 H842 0.950 . S
C820 C819 1.349 . S
C820 C832 1.349 . S
C821 C819 1.327 . S
C821 C837 1.429 . S
C821 H843 0.950 . S
C822 H818 0.949 . S
C822 C830 1.574 . S
C822 C838 1.368 . S
H823 C831 0.950 . S
H824 C829 0.950 . S
H825 C830 0.949 . S
H826 C832 0.950 . S
H827 C833 0.950 . S
H828 C834 0.949 . S
C829 H824 0.950 . S
C829 C831 1.327 . S
C829 C835 1.429 . S
C830 C822 1.574 . S
C830 H825 0.949 . S
C830 C836 1.368 . S
C831 C815 1.349 . S
C831 H823 0.950 . S
C831 C829 1.327 . S
C832 C820 1.349 . S
C832 H826 0.950 . S
C832 C833 1.327 . S
C833 H827 0.950 . S
C833 C832 1.327 . S
C833 C837 1.429 . S
C834 C817 1.574 . S
C834 H828 0.949 . S
C834 C838 1.368 . S
C835 C816 1.429 . S
C835 C829 1.429 . S
C835 C836 1.523 . S
C836 C817 1.368 . S
C836 C830 1.368 . S
C836 C835 1.523 . S
C837 C821 1.429 . S
C837 C833 1.429 . S
C837 C838 1.523 . S
C838 C822 1.368 . S
C838 C834 1.368 . S
C838 C837 1.523 . S
H839 C814 0.950 . S
H840 C816 0.950 . S
H841 C817 0.949 . S
H842 C819 0.950 . S
H843 C821 0.950 . S
C844 C845 1.353 . S
C844 C846 1.335 . S
C844 H869 0.938 1_655 S
C845 C844 1.353 . S
C845 C861 1.349 . S
C846 C844 1.335 . S
C846 C865 1.429 . S
C846 H870 0.950 . S
C847 C864 1.574 . S
C847 C866 1.368 . S
C847 H871 0.949 . S
H848 C852 0.949 . S
C849 C850 1.349 . S
C849 C851 1.327 . S
C849 H872 0.950 . S
C850 C849 1.349 . S
C850 C862 1.349 . S
C851 C849 1.327 . S
C851 C867 1.429 . S
C851 H873 0.950 . S
C852 H848 0.949 . S
C852 C860 1.574 . S
C852 C868 1.368 . S
H853 C861 0.950 . S
H854 C859 0.950 . S
H855 C860 0.949 . S
H856 C862 0.950 . S
H857 C863 0.950 . S
H858 C864 0.949 . S
C859 H854 0.950 . S
C859 C861 1.327 . S
C859 C865 1.429 . S
C860 C852 1.574 . S
C860 H855 0.949 . S
C860 C866 1.368 . S
C861 C845 1.349 . S
C861 H853 0.950 . S
C861 C859 1.327 . S
C862 C850 1.349 . S
C862 H856 0.950 . S
C862 C863 1.327 . S
C863 H857 0.950 . S
C863 C862 1.327 . S
C863 C867 1.429 . S
C864 C847 1.574 . S
C864 H858 0.949 . S
C864 C868 1.368 . S
C865 C846 1.429 . S
C865 C859 1.429 . S
C865 C866 1.523 . S
C866 C847 1.368 . S
C866 C860 1.368 . S
C866 C865 1.523 . S
C867 C851 1.429 . S
C867 C863 1.429 . S
C867 C868 1.523 . S
C868 C852 1.368 . S
C868 C864 1.368 . S
C868 C867 1.523 . S
H869 C844 0.938 1_455 S
H870 C846 0.950 . S
H871 C847 0.949 . S
H872 C849 0.950 . S
H873 C851 0.950 . S
C874 C875 1.349 1_545 S
C874 C876 1.327 1_545 S
C874 H899 0.950 . S
C875 C874 1.349 1_565 S
C875 C891 1.349 . S
C876 C874 1.327 1_565 S
C876 C895 1.429 . S
C876 H900 0.950 1_565 S
C877 C894 1.574 . S
C877 C896 1.368 . S
C877 H901 0.949 . S
H878 C882 0.949 . S
C879 C880 1.349 . S
C879 C881 1.327 . S
C879 H902 0.950 . S
C880 C879 1.349 . S
C880 C892 1.349 . S
C881 C879 1.327 . S
C881 C897 1.429 . S
C881 H903 0.950 . S
C882 H878 0.949 . S
C882 C890 1.574 . S
C882 C898 1.368 . S
H883 C891 0.950 . S
H884 C889 0.950 . S
H885 C890 0.949 . S
H886 C892 0.950 . S
H887 C893 0.950 . S
H888 C894 0.949 . S
C889 H884 0.950 . S
C889 C891 1.327 . S
C889 C895 1.429 . S
C890 C882 1.574 . S
C890 H885 0.949 . S
C890 C896 1.368 . S
C891 C875 1.349 . S
C891 H883 0.950 . S
C891 C889 1.327 . S
C892 C880 1.349 . S
C892 H886 0.950 . S
C892 C893 1.327 . S
C893 H887 0.950 . S
C893 C892 1.327 . S
C893 C897 1.429 . S
C894 C877 1.574 . S
C894 H888 0.949 . S
C894 C898 1.368 . S
C895 C876 1.429 . S
C895 C889 1.429 . S
C895 C896 1.523 . S
C896 C877 1.368 . S
C896 C890 1.368 . S
C896 C895 1.523 . S
C897 C881 1.429 . S
C897 C893 1.429 . S
C897 C898 1.523 . S
C898 C882 1.368 . S
C898 C894 1.368 . S
C898 C897 1.523 . S
H899 C874 0.950 . S
H900 C876 0.950 1_545 S
H901 C877 0.949 . S
H902 C879 0.950 . S
H903 C881 0.950 . S
C904 C905 1.349 1_655 S
C904 C906 1.327 1_655 S
C904 H929 0.950 . S
C905 C904 1.349 1_455 S
C905 C921 1.349 . S
C906 C904 1.327 1_455 S
C906 C925 1.429 . S
C906 H930 0.950 1_455 S
C907 C924 1.574 . S
C907 C926 1.368 . S
C907 H931 0.949 . S
H908 C912 0.949 . S
C909 C910 1.349 . S
C909 C911 1.327 . S
C909 H932 0.950 . S
C910 C909 1.349 . S
C910 C922 1.349 . S
C911 C909 1.327 . S
C911 C927 1.429 . S
C911 H933 0.950 . S
C912 H908 0.949 . S
C912 C920 1.574 . S
C912 C928 1.368 . S
H913 C921 0.950 . S
H914 C919 0.950 . S
H915 C920 0.949 . S
H916 C922 0.950 . S
H917 C923 0.950 . S
H918 C924 0.949 . S
C919 H914 0.950 . S
C919 C921 1.327 . S
C919 C925 1.429 . S
C920 C912 1.574 . S
C920 H915 0.949 . S
C920 C926 1.368 . S
C921 C905 1.349 . S
C921 H913 0.950 . S
C921 C919 1.327 . S
C922 C910 1.349 . S
C922 H916 0.950 . S
C922 C923 1.327 . S
C923 H917 0.950 . S
C923 C922 1.327 . S
C923 C927 1.429 . S
C924 C907 1.574 . S
C924 H918 0.949 . S
C924 C928 1.368 . S
C925 C906 1.429 . S
C925 C919 1.429 . S
C925 C926 1.523 . S
C926 C907 1.368 . S
C926 C920 1.368 . S
C926 C925 1.523 . S
C927 C911 1.429 . S
C927 C923 1.429 . S
C927 C928 1.523 . S
C928 C912 1.368 . S
C928 C924 1.368 . S
C928 C927 1.523 . S
H929 C904 0.950 . S
H930 C906 0.950 1_655 S
H931 C907 0.949 . S
H932 C909 0.950 . S
H933 C911 0.950 . S
C934 C935 1.349 . S
C934 C936 1.327 . S
C934 H959 0.950 . S
C935 C934 1.349 . S
C935 C951 1.349 1_545 S
C936 C934 1.327 . S
C936 C955 1.429 . S
C936 H960 0.950 . S
C937 C954 1.574 . S
C937 C956 1.368 . S
C937 H961 0.949 . S
H938 C942 0.949 . S
C939 C940 1.349 . S
C939 C941 1.327 . S
C939 H962 0.950 . S
C940 C939 1.349 . S
C940 C952 1.349 . S
C941 C939 1.327 . S
C941 C957 1.429 . S
C941 H963 0.950 . S
C942 H938 0.949 . S
C942 C950 1.574 . S
C942 C958 1.368 . S
H943 C951 0.950 . S
H944 C949 0.950 1_565 S
H945 C950 0.949 . S
H946 C952 0.950 . S
H947 C953 0.950 . S
H948 C954 0.949 . S
C949 H944 0.950 1_545 S
C949 C951 1.327 1_545 S
C949 C955 1.429 . S
C950 C942 1.574 . S
C950 H945 0.949 . S
C950 C956 1.368 . S
C951 C935 1.349 1_565 S
C951 H943 0.950 . S
C951 C949 1.327 1_565 S
C952 C940 1.349 . S
C952 H946 0.950 . S
C952 C953 1.327 . S
C953 H947 0.950 . S
C953 C952 1.327 . S
C953 C957 1.429 . S
C954 C937 1.574 . S
C954 H948 0.949 . S
C954 C958 1.368 . S
C955 C936 1.429 . S
C955 C949 1.429 . S
C955 C956 1.523 . S
C956 C937 1.368 . S
C956 C950 1.368 . S
C956 C955 1.523 . S
C957 C941 1.429 . S
C957 C953 1.429 . S
C957 C958 1.523 . S
C958 C942 1.368 . S
C958 C954 1.368 . S
C958 C957 1.523 . S
H959 C934 0.950 . S
H960 C936 0.950 . S
H961 C937 0.949 . S
H962 C939 0.950 . S
H963 C941 0.950 . S
C964 C965 1.349 . S
C964 C966 1.327 . S
C964 H989 0.950 . S
C965 C964 1.349 . S
C965 C981 1.349 . S
C966 C964 1.327 . S
C966 C985 1.429 . S
C966 H990 0.950 . S
C967 C984 1.574 . S
C967 C986 1.368 . S
C967 H991 0.949 . S
H968 C972 0.949 . S
C969 C970 1.349 . S
C969 C971 1.327 . S
C969 H992 0.950 . S
C970 C969 1.349 . S
C970 C982 1.349 . S
C971 C969 1.327 . S
C971 C987 1.429 . S
C971 H993 0.950 . S
C972 H968 0.949 . S
C972 C980 1.574 . S
C972 C988 1.368 . S
H973 C981 0.950 . S
H974 C979 0.950 . S
H975 C980 0.949 . S
H976 C982 0.950 . S
H977 C983 0.950 . S
H978 C984 0.949 . S
C979 H974 0.950 . S
C979 C981 1.327 . S
C979 C985 1.429 . S
C980 C972 1.574 . S
C980 H975 0.949 . S
C980 C986 1.368 . S
C981 C965 1.349 . S
C981 H973 0.950 . S
C981 C979 1.327 . S
C982 C970 1.349 . S
C982 H976 0.950 . S
C982 C983 1.327 . S
C983 H977 0.950 . S
C983 C982 1.327 . S
C983 C987 1.429 . S
C984 C967 1.574 . S
C984 H978 0.949 . S
C984 C988 1.368 . S
C985 C966 1.429 . S
C985 C979 1.429 . S
C985 C986 1.523 . S
C986 C967 1.368 . S
C986 C980 1.368 . S
C986 C985 1.523 . S
C987 C971 1.429 . S
C987 C983 1.429 . S
C987 C988 1.523 . S
C988 C972 1.368 . S
C988 C984 1.368 . S
C988 C987 1.523 . S
H989 C964 0.950 . S
H990 C966 0.950 . S
H991 C967 0.949 . S
H992 C969 0.950 . S
H993 C971 0.950 . S
C994 C995 1.349 . S
C994 C996 1.327 . S
C994 H1019 0.950 . S
C995 C994 1.349 . S
C995 C1011 1.349 . S
C996 C994 1.327 . S
C996 C1015 1.429 . S
C996 H1020 0.950 . S
C997 C1014 1.574 . S
C997 C1016 1.368 . S
C997 H1021 0.949 . S
H998 C1002 0.949 . S
C999 C1000 1.349 . S
C999 C1001 1.327 . S
C999 H1022 0.950 . S
C1000 C999 1.349 . S
C1000 C1012 1.349 . S
C1001 C999 1.327 . S
C1001 C1017 1.429 . S
C1001 H1023 0.950 . S
C1002 H998 0.949 . S
C1002 C1010 1.574 . S
C1002 C1018 1.368 . S
H1003 C1011 0.950 . S
H1004 C1009 0.950 . S
H1005 C1010 0.949 . S
H1006 C1012 0.950 . S
H1007 C1013 0.950 . S
H1008 C1014 0.949 . S
C1009 H1004 0.950 . S
C1009 C1011 1.327 . S
C1009 C1015 1.429 . S
C1010 C1002 1.574 . S
C1010 H1005 0.949 . S
C1010 C1016 1.368 . S
C1011 C995 1.349 . S
C1011 H1003 0.950 . S
C1011 C1009 1.327 . S
C1012 C1000 1.349 . S
C1012 H1006 0.950 . S
C1012 C1013 1.327 . S
C1013 H1007 0.950 . S
C1013 C1012 1.327 . S
C1013 C1017 1.429 . S
C1014 C997 1.574 . S
C1014 H1008 0.949 . S
C1014 C1018 1.368 . S
C1015 C996 1.429 . S
C1015 C1009 1.429 . S
C1015 C1016 1.523 . S
C1016 C997 1.368 . S
C1016 C1010 1.368 . S
C1016 C1015 1.523 . S
C1017 C1001 1.429 . S
C1017 C1013 1.429 . S
C1017 C1018 1.523 . S
C1018 C1002 1.368 . S
C1018 C1014 1.368 . S
C1018 C1017 1.523 . S
H1019 C994 0.950 . S
H1020 C996 0.950 . S
H1021 C997 0.949 . S
H1022 C999 0.950 . S
H1023 C1001 0.950 . S
C1024 C1025 1.349 . S
C1024 C1026 1.327 . S
C1024 H1049 0.950 . S
C1025 C1024 1.349 . S
C1025 C1041 1.349 . S
C1026 C1024 1.327 . S
C1026 C1045 1.429 . S
C1026 H1050 0.950 . S
C1027 C1044 1.574 . S
C1027 C1046 1.368 . S
C1027 H1051 0.949 . S
H1028 C1032 0.949 . S
C1029 C1030 1.349 . S
C1029 C1031 1.327 . S
C1029 H1052 0.950 . S
C1030 C1029 1.349 . S
C1030 C1042 1.349 . S
C1031 C1029 1.327 . S
C1031 C1047 1.429 . S
C1031 H1053 0.950 . S
C1032 H1028 0.949 . S
C1032 C1040 1.574 . S
C1032 C1048 1.368 . S
H1033 C1041 0.950 . S
H1034 C1039 0.950 . S
H1035 C1040 0.949 . S
H1036 C1042 0.950 . S
H1037 C1043 0.950 . S
H1038 C1044 0.949 . S
C1039 H1034 0.950 . S
C1039 C1041 1.327 . S
C1039 C1045 1.429 . S
C1040 C1032 1.574 . S
C1040 H1035 0.949 . S
C1040 C1046 1.368 . S
C1041 C1025 1.349 . S
C1041 H1033 0.950 . S
C1041 C1039 1.327 . S
C1042 C1030 1.349 . S
C1042 H1036 0.950 . S
C1042 C1043 1.327 . S
C1043 H1037 0.950 . S
C1043 C1042 1.327 . S
C1043 C1047 1.429 . S
C1044 C1027 1.574 . S
C1044 H1038 0.949 . S
C1044 C1048 1.368 . S
C1045 C1026 1.429 . S
C1045 C1039 1.429 . S
C1045 C1046 1.523 . S
C1046 C1027 1.368 . S
C1046 C1040 1.368 . S
C1046 C1045 1.523 . S
C1047 C1031 1.429 . S
C1047 C1043 1.429 . S
C1047 C1048 1.523 . S
C1048 C1032 1.368 . S
C1048 C1044 1.368 . S
C1048 C1047 1.523 . S
H1049 C1024 0.950 . S
H1050 C1026 0.950 . S
H1051 C1027 0.949 . S
H1052 C1029 0.950 . S
H1053 C1031 0.950 . S
C1054 C1055 1.349 . S
C1054 C1056 1.327 . S
C1054 H1079 0.950 . S
C1055 C1054 1.349 . S
C1055 C1071 1.349 . S
C1056 C1054 1.327 . S
C1056 C1075 1.429 . S
C1056 H1080 0.950 . S
C1057 C1074 1.574 . S
C1057 C1076 1.368 . S
C1057 H1081 0.949 . S
H1058 C1062 0.949 . S
C1059 C1060 1.349 . S
C1059 C1061 1.327 . S
C1059 H1082 0.950 . S
C1060 C1059 1.349 . S
C1060 C1072 1.349 . S
C1061 C1059 1.327 . S
C1061 C1077 1.429 . S
C1061 H1083 0.950 . S
C1062 H1058 0.949 . S
C1062 C1070 1.574 . S
C1062 C1078 1.368 . S
H1063 C1071 0.950 . S
H1064 C1069 0.950 . S
H1065 C1070 0.949 . S
H1066 C1072 0.950 . S
H1067 C1073 0.950 . S
H1068 C1074 0.949 . S
C1069 H1064 0.950 . S
C1069 C1071 1.327 . S
C1069 C1075 1.429 . S
C1070 C1062 1.574 . S
C1070 H1065 0.949 . S
C1070 C1076 1.368 . S
C1071 C1055 1.349 . S
C1071 H1063 0.950 . S
C1071 C1069 1.327 . S
C1072 C1060 1.349 . S
C1072 H1066 0.950 . S
C1072 C1073 1.327 . S
C1073 H1067 0.950 . S
C1073 C1072 1.327 . S
C1073 C1077 1.429 . S
C1074 C1057 1.574 . S
C1074 H1068 0.949 . S
C1074 C1078 1.368 . S
C1075 C1056 1.429 . S
C1075 C1069 1.429 . S
C1075 C1076 1.523 . S
C1076 C1057 1.368 . S
C1076 C1070 1.368 . S
C1076 C1075 1.523 . S
C1077 C1061 1.429 . S
C1077 C1073 1.429 . S
C1077 C1078 1.523 . S
C1078 C1062 1.368 . S
C1078 C1074 1.368 . S
C1078 C1077 1.523 . S
H1079 C1054 0.950 . S
H1080 C1056 0.950 . S
H1081 C1057 0.949 . S
H1082 C1059 0.950 . S
H1083 C1061 0.950 . S
C1084 C1085 1.349 . S
C1084 C1086 1.327 . S
C1084 H1109 0.950 . S
C1085 C1084 1.349 . S
C1085 C1101 1.349 . S
C1086 C1084 1.327 . S
C1086 C1105 1.429 . S
C1086 H1110 0.950 . S
C1087 C1104 1.574 . S
C1087 C1106 1.368 . S
C1087 H1111 0.949 . S
H1088 C1092 0.949 . S
C1089 C1090 1.349 . S
C1089 C1091 1.327 . S
C1089 H1112 0.950 . S
C1090 C1089 1.349 . S
C1090 C1102 1.349 . S
C1091 C1089 1.327 . S
C1091 C1107 1.429 . S
C1091 H1113 0.950 . S
C1092 H1088 0.949 . S
C1092 C1100 1.574 . S
C1092 C1108 1.368 . S
H1093 C1101 0.950 1_655 S
H1094 C1099 0.950 . S
H1095 C1100 0.949 . S
H1096 C1102 0.950 . S
H1097 C1103 0.950 . S
H1098 C1104 0.949 . S
C1099 H1094 0.950 . S
C1099 C1101 1.327 . S
C1099 C1105 1.429 . S
C1100 C1092 1.574 . S
C1100 H1095 0.949 . S
C1100 C1106 1.368 . S
C1101 C1085 1.349 . S
C1101 H1093 0.950 1_455 S
C1101 C1099 1.327 . S
C1102 C1090 1.349 . S
C1102 H1096 0.950 . S
C1102 C1103 1.327 . S
C1103 H1097 0.950 . S
C1103 C1102 1.327 . S
C1103 C1107 1.429 . S
C1104 C1087 1.574 . S
C1104 H1098 0.949 . S
C1104 C1108 1.368 . S
C1105 C1086 1.429 . S
C1105 C1099 1.429 . S
C1105 C1106 1.523 . S
C1106 C1087 1.368 . S
C1106 C1100 1.368 . S
C1106 C1105 1.523 . S
C1107 C1091 1.429 . S
C1107 C1103 1.429 . S
C1107 C1108 1.523 . S
C1108 C1092 1.368 . S
C1108 C1104 1.368 . S
C1108 C1107 1.523 . S
H1109 C1084 0.950 . S
H1110 C1086 0.950 . S
H1111 C1087 0.949 . S
H1112 C1089 0.950 . S
H1113 C1091 0.950 . S
C1114 C1115 1.349 . S
C1114 C1116 1.327 . S
C1114 H1139 0.950 1_545 S
C1115 C1114 1.349 . S
C1115 C1131 1.349 . S
C1116 C1114 1.327 . S
C1116 C1135 1.429 . S
C1116 H1140 0.950 . S
C1117 C1134 1.574 . S
C1117 C1136 1.368 . S
C1117 H1141 0.949 . S
H1118 C1122 0.949 . S
C1119 C1120 1.349 . S
C1119 C1121 1.327 . S
C1119 H1142 0.950 . S
C1120 C1119 1.349 . S
C1120 C1132 1.349 . S
C1121 C1119 1.327 . S
C1121 C1137 1.429 . S
C1121 H1143 0.950 . S
C1122 H1118 0.949 . S
C1122 C1130 1.574 . S
C1122 C1138 1.368 . S
H1123 C1131 0.950 . S
H1124 C1129 0.950 . S
H1125 C1130 0.949 . S
H1126 C1132 0.950 . S
H1127 C1133 0.950 . S
H1128 C1134 0.949 . S
C1129 H1124 0.950 . S
C1129 C1131 1.327 . S
C1129 C1135 1.429 . S
C1130 C1122 1.574 . S
C1130 H1125 0.949 . S
C1130 C1136 1.368 . S
C1131 C1115 1.349 . S
C1131 H1123 0.950 . S
C1131 C1129 1.327 . S
C1132 C1120 1.349 . S
C1132 H1126 0.950 . S
C1132 C1133 1.327 . S
C1133 H1127 0.950 . S
C1133 C1132 1.327 . S
C1133 C1137 1.429 . S
C1134 C1117 1.574 . S
C1134 H1128 0.949 . S
C1134 C1138 1.368 . S
C1135 C1116 1.429 . S
C1135 C1129 1.429 . S
C1135 C1136 1.523 . S
C1136 C1117 1.368 . S
C1136 C1130 1.368 . S
C1136 C1135 1.523 . S
C1137 C1121 1.429 . S
C1137 C1133 1.429 . S
C1137 C1138 1.523 . S
C1138 C1122 1.368 . S
C1138 C1134 1.368 . S
C1138 C1137 1.523 . S
H1139 C1114 0.950 1_565 S
H1140 C1116 0.950 . S
H1141 C1117 0.949 . S
H1142 C1119 0.950 . S
H1143 C1121 0.950 . S
C1144 C1145 1.349 . S
C1144 C1146 1.327 . S
C1144 H1169 0.950 1_655 S
C1145 C1144 1.349 . S
C1145 C1161 1.349 . S
C1146 C1144 1.327 . S
C1146 C1165 1.429 . S
C1146 H1170 0.950 . S
C1147 C1164 1.574 . S
C1147 C1166 1.368 . S
C1147 H1171 0.949 . S
H1148 C1152 0.949 . S
C1149 C1150 1.349 . S
C1149 C1151 1.327 . S
C1149 H1172 0.950 . S
C1150 C1149 1.349 . S
C1150 C1162 1.349 . S
C1151 C1149 1.327 . S
C1151 C1167 1.429 . S
C1151 H1173 0.950 . S
C1152 H1148 0.949 . S
C1152 C1160 1.574 . S
C1152 C1168 1.368 . S
H1153 C1161 0.950 . S
H1154 C1159 0.950 . S
H1155 C1160 0.949 . S
H1156 C1162 0.950 . S
H1157 C1163 0.950 . S
H1158 C1164 0.949 . S
C1159 H1154 0.950 . S
C1159 C1161 1.327 . S
C1159 C1165 1.429 . S
C1160 C1152 1.574 . S
C1160 H1155 0.949 . S
C1160 C1166 1.368 . S
C1161 C1145 1.349 . S
C1161 H1153 0.950 . S
C1161 C1159 1.327 . S
C1162 C1150 1.349 . S
C1162 H1156 0.950 . S
C1162 C1163 1.327 . S
C1163 H1157 0.950 . S
C1163 C1162 1.327 . S
C1163 C1167 1.429 . S
C1164 C1147 1.574 . S
C1164 H1158 0.949 . S
C1164 C1168 1.368 . S
C1165 C1146 1.429 . S
C1165 C1159 1.429 . S
C1165 C1166 1.523 . S
C1166 C1147 1.368 . S
C1166 C1160 1.368 . S
C1166 C1165 1.523 . S
C1167 C1151 1.429 . S
C1167 C1163 1.429 . S
C1167 C1168 1.523 . S
C1168 C1152 1.368 . S
C1168 C1164 1.368 . S
C1168 C1167 1.523 . S
H1169 C1144 0.950 1_455 S
H1170 C1146 0.950 . S
H1171 C1147 0.949 . S
H1172 C1149 0.950 . S
H1173 C1151 0.950 . S
C1174 C1175 1.349 . S
C1174 C1176 1.327 . S
C1174 H1199 0.950 . S
C1175 C1174 1.349 . S
C1175 C1191 1.349 . S
C1176 C1174 1.327 . S
C1176 C1195 1.429 . S
C1176 H1200 0.950 . S
C1177 C1194 1.574 . S
C1177 C1196 1.368 . S
C1177 H1201 0.949 . S
H1178 C1182 0.949 . S
C1179 C1180 1.349 . S
C1179 C1181 1.327 . S
C1179 H1202 0.950 . S
C1180 C1179 1.349 . S
C1180 C1192 1.349 . S
C1181 C1179 1.327 . S
C1181 C1197 1.429 . S
C1181 H1203 0.950 . S
C1182 H1178 0.949 . S
C1182 C1190 1.574 . S
C1182 C1198 1.368 . S
H1183 C1191 0.950 1_545 S
H1184 C1189 0.950 . S
H1185 C1190 0.949 . S
H1186 C1192 0.950 . S
H1187 C1193 0.950 . S
H1188 C1194 0.949 . S
C1189 H1184 0.950 . S
C1189 C1191 1.327 . S
C1189 C1195 1.429 . S
C1190 C1182 1.574 . S
C1190 H1185 0.949 . S
C1190 C1196 1.368 . S
C1191 C1175 1.349 . S
C1191 H1183 0.950 1_565 S
C1191 C1189 1.327 . S
C1192 C1180 1.349 . S
C1192 H1186 0.950 . S
C1192 C1193 1.327 . S
C1193 H1187 0.950 . S
C1193 C1192 1.327 . S
C1193 C1197 1.429 . S
C1194 C1177 1.574 . S
C1194 H1188 0.949 . S
C1194 C1198 1.368 . S
C1195 C1176 1.429 . S
C1195 C1189 1.429 . S
C1195 C1196 1.523 . S
C1196 C1177 1.368 . S
C1196 C1190 1.368 . S
C1196 C1195 1.523 . S
C1197 C1181 1.429 . S
C1197 C1193 1.429 . S
C1197 C1198 1.523 . S
C1198 C1182 1.368 . S
C1198 C1194 1.368 . S
C1198 C1197 1.523 . S
H1199 C1174 0.950 . S
H1200 C1176 0.950 . S
H1201 C1177 0.949 . S
H1202 C1179 0.950 . S
H1203 C1181 0.950 . S
C1204 C1205 1.349 . S
C1204 C1206 1.327 . S
C1204 H1229 0.950 . S
C1205 C1204 1.349 . S
C1205 C1221 1.349 . S
C1206 C1204 1.327 . S
C1206 C1225 1.429 . S
C1206 H1230 0.950 . S
C1207 C1224 1.574 . S
C1207 C1226 1.368 . S
C1207 H1231 0.949 . S
H1208 C1212 0.949 . S
C1209 C1210 1.349 . S
C1209 C1211 1.327 . S
C1209 H1232 0.950 . S
C1210 C1209 1.349 . S
C1210 C1222 1.349 . S
C1211 C1209 1.327 . S
C1211 C1227 1.429 . S
C1211 H1233 0.950 . S
C1212 H1208 0.949 . S
C1212 C1220 1.574 . S
C1212 C1228 1.368 . S
H1213 C1221 0.950 . S
H1214 C1219 0.950 . S
H1215 C1220 0.949 . S
H1216 C1222 0.950 . S
H1217 C1223 0.950 . S
H1218 C1224 0.949 . S
C1219 H1214 0.950 . S
C1219 C1221 1.327 . S
C1219 C1225 1.429 . S
C1220 C1212 1.574 . S
C1220 H1215 0.949 . S
C1220 C1226 1.368 . S
C1221 C1205 1.349 . S
C1221 H1213 0.950 . S
C1221 C1219 1.327 . S
C1222 C1210 1.349 . S
C1222 H1216 0.950 . S
C1222 C1223 1.327 . S
C1223 H1217 0.950 . S
C1223 C1222 1.327 . S
C1223 C1227 1.429 . S
C1224 C1207 1.574 . S
C1224 H1218 0.949 . S
C1224 C1228 1.368 . S
C1225 C1206 1.429 . S
C1225 C1219 1.429 . S
C1225 C1226 1.523 . S
C1226 C1207 1.368 . S
C1226 C1220 1.368 . S
C1226 C1225 1.523 . S
C1227 C1211 1.429 . S
C1227 C1223 1.429 . S
C1227 C1228 1.523 . S
C1228 C1212 1.368 . S
C1228 C1224 1.368 . S
C1228 C1227 1.523 . S
H1229 C1204 0.950 . S
H1230 C1206 0.950 . S
H1231 C1207 0.949 . S
H1232 C1209 0.950 . S
H1233 C1211 0.950 . S
C1234 C1235 1.349 . S
C1234 C1236 1.327 . S
C1234 H1259 0.950 . S
C1235 C1234 1.349 . S
C1235 C1251 1.349 . S
C1236 C1234 1.327 . S
C1236 C1255 1.429 . S
C1236 H1260 0.950 . S
C1237 C1254 1.574 . S
C1237 C1256 1.368 . S
C1237 H1261 0.949 . S
H1238 C1242 0.949 . S
C1239 C1240 1.349 . S
C1239 C1241 1.327 . S
C1239 H1262 0.950 . S
C1240 C1239 1.349 . S
C1240 C1252 1.349 . S
C1241 C1239 1.327 . S
C1241 C1257 1.429 . S
C1241 H1263 0.950 . S
C1242 H1238 0.949 . S
C1242 C1250 1.574 . S
C1242 C1258 1.368 . S
H1243 C1251 0.950 . S
H1244 C1249 0.950 . S
H1245 C1250 0.949 . S
H1246 C1252 0.950 . S
H1247 C1253 0.950 . S
H1248 C1254 0.949 . S
C1249 H1244 0.950 . S
C1249 C1251 1.327 . S
C1249 C1255 1.429 . S
C1250 C1242 1.574 . S
C1250 H1245 0.949 . S
C1250 C1256 1.368 . S
C1251 C1235 1.349 . S
C1251 H1243 0.950 . S
C1251 C1249 1.327 . S
C1252 C1240 1.349 . S
C1252 H1246 0.950 . S
C1252 C1253 1.327 . S
C1253 H1247 0.950 . S
C1253 C1252 1.327 . S
C1253 C1257 1.429 . S
C1254 C1237 1.574 . S
C1254 H1248 0.949 . S
C1254 C1258 1.368 . S
C1255 C1236 1.429 . S
C1255 C1249 1.429 . S
C1255 C1256 1.523 . S
C1256 C1237 1.368 . S
C1256 C1250 1.368 . S
C1256 C1255 1.523 . S
C1257 C1241 1.429 . S
C1257 C1253 1.429 . S
C1257 C1258 1.523 . S
C1258 C1242 1.368 . S
C1258 C1254 1.368 . S
C1258 C1257 1.523 . S
H1259 C1234 0.950 . S
H1260 C1236 0.950 . S
H1261 C1237 0.949 . S
H1262 C1239 0.950 . S
H1263 C1241 0.950 . S
C1264 C1265 1.349 . S
C1264 C1266 1.327 . S
C1264 H1289 0.950 . S
C1265 C1264 1.349 . S
C1265 C1281 1.349 . S
C1266 C1264 1.327 . S
C1266 C1285 1.429 . S
C1266 H1290 0.950 . S
C1267 C1284 1.574 . S
C1267 C1286 1.368 . S
C1267 H1291 0.949 . S
H1268 C1272 0.949 . S
C1269 C1270 1.349 . S
C1269 C1271 1.327 . S
C1269 H1292 0.950 . S
C1270 C1269 1.349 . S
C1270 C1282 1.349 . S
C1271 C1269 1.327 . S
C1271 C1287 1.429 . S
C1271 H1293 0.950 . S
C1272 H1268 0.949 . S
C1272 C1280 1.574 . S
C1272 C1288 1.368 . S
H1273 C1281 0.950 . S
H1274 C1279 0.950 1_554 S
H1275 C1280 0.949 1_556 S
H1276 C1282 0.950 . S
H1277 C1283 0.950 . S
H1278 C1284 0.949 . S
C1279 H1274 0.950 1_556 S
C1279 C1281 1.327 . S
C1279 C1285 1.429 . S
C1280 C1272 1.574 . S
C1280 H1275 0.949 1_554 S
C1280 C1286 1.368 . S
C1281 C1265 1.349 . S
C1281 H1273 0.950 . S
C1281 C1279 1.327 . S
C1282 C1270 1.349 . S
C1282 H1276 0.950 . S
C1282 C1283 1.327 . S
C1283 H1277 0.950 . S
C1283 C1282 1.327 . S
C1283 C1287 1.429 . S
C1284 C1267 1.574 . S
C1284 H1278 0.949 . S
C1284 C1288 1.368 . S
C1285 C1266 1.429 . S
C1285 C1279 1.429 . S
C1285 C1286 1.523 1_556 S
C1286 C1267 1.368 . S
C1286 C1280 1.368 . S
C1286 C1285 1.523 1_554 S
C1287 C1271 1.429 . S
C1287 C1283 1.429 . S
C1287 C1288 1.523 . S
C1288 C1272 1.368 . S
C1288 C1284 1.368 . S
C1288 C1287 1.523 . S
H1289 C1264 0.950 . S
H1290 C1266 0.950 . S
H1291 C1267 0.949 . S
H1292 C1269 0.950 . S
H1293 C1271 0.950 . S
C1294 C1295 1.349 . S
C1294 C1296 1.327 . S
C1294 H1319 0.950 . S
C1295 C1294 1.349 . S
C1295 C1311 1.349 . S
C1296 C1294 1.327 . S
C1296 C1315 1.429 . S
C1296 H1320 0.950 . S
C1297 C1314 1.574 . S
C1297 C1316 1.368 . S
C1297 H1321 0.949 . S
H1298 C1302 0.949 . S
C1299 C1300 1.349 . S
C1299 C1301 1.327 . S
C1299 H1322 0.950 . S
C1300 C1299 1.349 . S
C1300 C1312 1.349 . S
C1301 C1299 1.327 . S
C1301 C1317 1.429 . S
C1301 H1323 0.950 . S
C1302 H1298 0.949 . S
C1302 C1310 1.574 . S
C1302 C1318 1.368 . S
H1303 C1311 0.950 . S
H1304 C1309 0.950 . S
H1305 C1310 0.949 1_556 S
H1306 C1312 0.950 . S
H1307 C1313 0.950 . S
H1308 C1314 0.949 . S
C1309 H1304 0.950 . S
C1309 C1311 1.327 . S
C1309 C1315 1.429 . S
C1310 C1302 1.574 . S
C1310 H1305 0.949 1_554 S
C1310 C1316 1.368 . S
C1311 C1295 1.349 . S
C1311 H1303 0.950 . S
C1311 C1309 1.327 . S
C1312 C1300 1.349 . S
C1312 H1306 0.950 . S
C1312 C1313 1.327 . S
C1313 H1307 0.950 . S
C1313 C1312 1.327 . S
C1313 C1317 1.429 . S
C1314 C1297 1.574 . S
C1314 H1308 0.949 . S
C1314 C1318 1.368 . S
C1315 C1296 1.429 . S
C1315 C1309 1.429 . S
C1315 C1316 1.523 1_556 S
C1316 C1297 1.368 . S
C1316 C1310 1.368 . S
C1316 C1315 1.523 1_554 S
C1317 C1301 1.429 . S
C1317 C1313 1.429 . S
C1317 C1318 1.523 . S
C1318 C1302 1.368 . S
C1318 C1314 1.368 . S
C1318 C1317 1.523 . S
H1319 C1294 0.950 . S
H1320 C1296 0.950 . S
H1321 C1297 0.949 . S
H1322 C1299 0.950 . S
H1323 C1301 0.950 . S
C1324 C1325 1.349 . S
C1324 C1326 1.327 . S
C1324 H1349 0.950 . S
C1325 C1324 1.349 . S
C1325 C1341 1.349 . S
C1326 C1324 1.327 . S
C1326 C1345 1.429 . S
C1326 H1350 0.950 . S
C1327 C1344 1.574 . S
C1327 C1346 1.368 . S
C1327 H1351 0.949 1_554 S
H1328 C1332 0.949 . S
C1329 C1330 1.349 . S
C1329 C1331 1.327 . S
C1329 H1352 0.950 . S
C1330 C1329 1.349 . S
C1330 C1342 1.349 . S
C1331 C1329 1.327 . S
C1331 C1347 1.429 . S
C1331 H1353 0.950 . S
C1332 H1328 0.949 . S
C1332 C1340 1.574 . S
C1332 C1348 1.368 . S
H1333 C1341 0.950 . S
H1334 C1339 0.950 . S
H1335 C1340 0.949 . S
H1336 C1342 0.950 . S
H1337 C1343 0.950 . S
H1338 C1344 0.949 . S
C1339 H1334 0.950 . S
C1339 C1341 1.327 . S
C1339 C1345 1.429 . S
C1340 C1332 1.574 . S
C1340 H1335 0.949 . S
C1340 C1346 1.368 . S
C1341 C1325 1.349 . S
C1341 H1333 0.950 . S
C1341 C1339 1.327 . S
C1342 C1330 1.349 . S
C1342 H1336 0.950 . S
C1342 C1343 1.327 . S
C1343 H1337 0.950 . S
C1343 C1342 1.327 . S
C1343 C1347 1.429 . S
C1344 C1327 1.574 . S
C1344 H1338 0.949 . S
C1344 C1348 1.368 . S
C1345 C1326 1.429 . S
C1345 C1339 1.429 . S
C1345 C1346 1.523 1_556 S
C1346 C1327 1.368 . S
C1346 C1340 1.368 . S
C1346 C1345 1.523 1_554 S
C1347 C1331 1.429 . S
C1347 C1343 1.429 . S
C1347 C1348 1.523 . S
C1348 C1332 1.368 . S
C1348 C1344 1.368 . S
C1348 C1347 1.523 . S
H1349 C1324 0.950 . S
H1350 C1326 0.950 . S
H1351 C1327 0.949 1_556 S
H1352 C1329 0.950 . S
H1353 C1331 0.950 . S
C1354 C1355 1.349 . S
C1354 C1356 1.327 . S
C1354 H1379 0.950 . S
C1355 C1354 1.349 . S
C1355 C1371 1.349 . S
C1356 C1354 1.327 . S
C1356 C1375 1.429 . S
C1356 H1380 0.950 . S
C1357 C1374 1.574 . S
C1357 C1376 1.368 . S
C1357 H1381 0.949 1_554 S
H1358 C1362 0.949 . S
C1359 C1360 1.349 . S
C1359 C1361 1.327 . S
C1359 H1382 0.950 . S
C1360 C1359 1.349 . S
C1360 C1372 1.349 . S
C1361 C1359 1.327 . S
C1361 C1377 1.429 . S
C1361 H1383 0.950 . S
C1362 H1358 0.949 . S
C1362 C1370 1.574 . S
C1362 C1378 1.368 . S
H1363 C1371 0.950 . S
H1364 C1369 0.950 . S
H1365 C1370 0.949 . S
H1366 C1372 0.950 . S
H1367 C1373 0.950 . S
H1368 C1374 0.949 . S
C1369 H1364 0.950 . S
C1369 C1371 1.327 . S
C1369 C1375 1.429 . S
C1370 C1362 1.574 . S
C1370 H1365 0.949 . S
C1370 C1376 1.368 . S
C1371 C1355 1.349 . S
C1371 H1363 0.950 . S
C1371 C1369 1.327 . S
C1372 C1360 1.349 . S
C1372 H1366 0.950 . S
C1372 C1373 1.327 . S
C1373 H1367 0.950 . S
C1373 C1372 1.327 . S
C1373 C1377 1.429 . S
C1374 C1357 1.574 . S
C1374 H1368 0.949 . S
C1374 C1378 1.368 . S
C1375 C1356 1.429 . S
C1375 C1369 1.429 . S
C1375 C1376 1.523 1_556 S
C1376 C1357 1.368 . S
C1376 C1370 1.368 . S
C1376 C1375 1.523 1_554 S
C1377 C1361 1.429 . S
C1377 C1373 1.429 . S
C1377 C1378 1.523 . S
C1378 C1362 1.368 . S
C1378 C1374 1.368 . S
C1378 C1377 1.523 . S
H1379 C1354 0.950 . S
H1380 C1356 0.950 . S
H1381 C1357 0.949 1_556 S
H1382 C1359 0.950 . S
H1383 C1361 0.950 . S
C1384 C1385 1.349 . S
C1384 C1386 1.327 . S
C1384 H1409 0.950 . S
C1385 C1384 1.349 . S
C1385 C1401 1.349 . S
C1386 C1384 1.327 . S
C1386 C1405 1.429 . S
C1386 H1410 0.950 . S
C1387 C1404 1.574 . S
C1387 C1406 1.368 . S
C1387 H1411 0.949 . S
H1388 C1392 0.949 . S
C1389 C1390 1.349 . S
C1389 C1391 1.327 . S
C1389 H1412 0.950 . S
C1390 C1389 1.349 . S
C1390 C1402 1.349 . S
C1391 C1389 1.327 . S
C1391 C1407 1.429 . S
C1391 H1413 0.950 . S
C1392 H1388 0.949 . S
C1392 C1400 1.574 . S
C1392 C1408 1.368 . S
H1393 C1401 0.950 . S
H1394 C1399 0.950 . S
H1395 C1400 0.949 . S
H1396 C1402 0.950 . S
H1397 C1403 0.950 . S
H1398 C1404 0.949 . S
C1399 H1394 0.950 . S
C1399 C1401 1.327 . S
C1399 C1405 1.429 . S
C1400 C1392 1.574 . S
C1400 H1395 0.949 . S
C1400 C1406 1.368 . S
C1401 C1385 1.349 . S
C1401 H1393 0.950 . S
C1401 C1399 1.327 . S
C1402 C1390 1.349 . S
C1402 H1396 0.950 . S
C1402 C1403 1.327 . S
C1403 H1397 0.950 . S
C1403 C1402 1.327 . S
C1403 C1407 1.429 . S
C1404 C1387 1.574 . S
C1404 H1398 0.949 . S
C1404 C1408 1.368 . S
C1405 C1386 1.429 . S
C1405 C1399 1.429 . S
C1405 C1406 1.523 . S
C1406 C1387 1.368 . S
C1406 C1400 1.368 . S
C1406 C1405 1.523 . S
C1407 C1391 1.429 . S
C1407 C1403 1.429 . S
C1407 C1408 1.523 . S
C1408 C1392 1.368 . S
C1408 C1404 1.368 . S
C1408 C1407 1.523 . S
H1409 C1384 0.950 . S
H1410 C1386 0.950 . S
H1411 C1387 0.949 . S
H1412 C1389 0.950 . S
H1413 C1391 0.950 . S
C1414 C1415 1.349 . S
C1414 C1416 1.327 . S
C1414 H1439 0.950 . S
C1415 C1414 1.349 . S
C1415 C1431 1.349 . S
C1416 C1414 1.327 . S
C1416 C1435 1.429 . S
C1416 H1440 0.950 . S
C1417 C1434 1.574 . S
C1417 C1436 1.368 . S
C1417 H1441 0.949 . S
H1418 C1422 0.949 . S
C1419 C1420 1.349 . S
C1419 C1421 1.327 . S
C1419 H1442 0.950 . S
C1420 C1419 1.349 . S
C1420 C1432 1.349 . S
C1421 C1419 1.327 . S
C1421 C1437 1.429 . S
C1421 H1443 0.950 . S
C1422 H1418 0.949 . S
C1422 C1430 1.574 . S
C1422 C1438 1.368 . S
H1423 C1431 0.950 . S
H1424 C1429 0.950 . S
H1425 C1430 0.949 . S
H1426 C1432 0.950 . S
H1427 C1433 0.950 . S
H1428 C1434 0.949 . S
C1429 H1424 0.950 . S
C1429 C1431 1.327 . S
C1429 C1435 1.429 . S
C1430 C1422 1.574 . S
C1430 H1425 0.949 . S
C1430 C1436 1.368 . S
C1431 C1415 1.349 . S
C1431 H1423 0.950 . S
C1431 C1429 1.327 . S
C1432 C1420 1.349 . S
C1432 H1426 0.950 . S
C1432 C1433 1.327 . S
C1433 H1427 0.950 . S
C1433 C1432 1.327 . S
C1433 C1437 1.429 . S
C1434 C1417 1.574 . S
C1434 H1428 0.949 . S
C1434 C1438 1.368 . S
C1435 C1416 1.429 . S
C1435 C1429 1.429 . S
C1435 C1436 1.523 . S
C1436 C1417 1.368 . S
C1436 C1430 1.368 . S
C1436 C1435 1.523 . S
C1437 C1421 1.429 . S
C1437 C1433 1.429 . S
C1437 C1438 1.523 . S
C1438 C1422 1.368 . S
C1438 C1434 1.368 . S
C1438 C1437 1.523 . S
H1439 C1414 0.950 . S
H1440 C1416 0.950 . S
H1441 C1417 0.949 . S
H1442 C1419 0.950 . S
H1443 C1421 0.950 . S
C1444 C1445 1.349 . S
C1444 C1446 1.327 . S
C1444 H1469 0.950 . S
C1445 C1444 1.349 . S
C1445 C1461 1.349 . S
C1446 C1444 1.327 . S
C1446 C1465 1.429 . S
C1446 H1470 0.950 . S
C1447 C1464 1.574 . S
C1447 C1466 1.368 . S
C1447 H1471 0.949 . S
H1448 C1452 0.949 . S
C1449 C1450 1.349 . S
C1449 C1451 1.327 . S
C1449 H1472 0.950 . S
C1450 C1449 1.349 . S
C1450 C1462 1.349 . S
C1451 C1449 1.327 . S
C1451 C1467 1.429 . S
C1451 H1473 0.950 . S
C1452 H1448 0.949 . S
C1452 C1460 1.574 . S
C1452 C1468 1.368 . S
H1453 C1461 0.950 . S
H1454 C1459 0.950 . S
H1455 C1460 0.949 . S
H1456 C1462 0.950 . S
H1457 C1463 0.950 . S
H1458 C1464 0.949 . S
C1459 H1454 0.950 . S
C1459 C1461 1.327 . S
C1459 C1465 1.429 . S
C1460 C1452 1.574 . S
C1460 H1455 0.949 . S
C1460 C1466 1.368 . S
C1461 C1445 1.349 . S
C1461 H1453 0.950 . S
C1461 C1459 1.327 . S
C1462 C1450 1.349 . S
C1462 H1456 0.950 . S
C1462 C1463 1.327 . S
C1463 H1457 0.950 . S
C1463 C1462 1.327 . S
C1463 C1467 1.429 . S
C1464 C1447 1.574 . S
C1464 H1458 0.949 . S
C1464 C1468 1.368 . S
C1465 C1446 1.429 . S
C1465 C1459 1.429 . S
C1465 C1466 1.523 . S
C1466 C1447 1.368 . S
C1466 C1460 1.368 . S
C1466 C1465 1.523 . S
C1467 C1451 1.429 . S
C1467 C1463 1.429 . S
C1467 C1468 1.523 . S
C1468 C1452 1.368 . S
C1468 C1464 1.368 . S
C1468 C1467 1.523 . S
H1469 C1444 0.950 . S
H1470 C1446 0.950 . S
H1471 C1447 0.949 . S
H1472 C1449 0.950 . S
H1473 C1451 0.950 . S
C1474 C1475 1.349 . S
C1474 C1476 1.327 . S
C1474 H1499 0.950 . S
C1475 C1474 1.349 . S
C1475 C1491 1.349 . S
C1476 C1474 1.327 . S
C1476 C1495 1.429 . S
C1476 H1500 0.950 . S
C1477 C1494 1.574 . S
C1477 C1496 1.368 . S
C1477 H1501 0.949 . S
H1478 C1482 0.949 . S
C1479 C1480 1.349 . S
C1479 C1481 1.327 . S
C1479 H1502 0.950 . S
C1480 C1479 1.349 . S
C1480 C1492 1.349 . S
C1481 C1479 1.327 . S
C1481 C1497 1.429 . S
C1481 H1503 0.950 . S
C1482 H1478 0.949 . S
C1482 C1490 1.574 . S
C1482 C1498 1.368 . S
H1483 C1491 0.950 . S
H1484 C1489 0.950 . S
H1485 C1490 0.949 . S
H1486 C1492 0.950 . S
H1487 C1493 0.950 . S
H1488 C1494 0.949 . S
C1489 H1484 0.950 . S
C1489 C1491 1.327 . S
C1489 C1495 1.429 . S
C1490 C1482 1.574 . S
C1490 H1485 0.949 . S
C1490 C1496 1.368 . S
C1491 C1475 1.349 . S
C1491 H1483 0.950 . S
C1491 C1489 1.327 . S
C1492 C1480 1.349 . S
C1492 H1486 0.950 . S
C1492 C1493 1.327 . S
C1493 H1487 0.950 . S
C1493 C1492 1.327 . S
C1493 C1497 1.429 . S
C1494 C1477 1.574 . S
C1494 H1488 0.949 . S
C1494 C1498 1.368 . S
C1495 C1476 1.429 . S
C1495 C1489 1.429 . S
C1495 C1496 1.523 . S
C1496 C1477 1.368 . S
C1496 C1490 1.368 . S
C1496 C1495 1.523 . S
C1497 C1481 1.429 . S
C1497 C1493 1.429 . S
C1497 C1498 1.523 . S
C1498 C1482 1.368 . S
C1498 C1494 1.368 . S
C1498 C1497 1.523 . S
H1499 C1474 0.950 . S
H1500 C1476 0.950 . S
H1501 C1477 0.949 . S
H1502 C1479 0.950 . S
H1503 C1481 0.950 . S
C1504 C1505 1.349 . S
C1504 C1506 1.327 . S
C1504 H1529 0.950 . S
C1505 C1504 1.349 . S
C1505 C1521 1.349 . S
C1506 C1504 1.327 . S
C1506 C1525 1.429 . S
C1506 H1530 0.950 . S
C1507 C1524 1.574 . S
C1507 C1526 1.368 . S
C1507 H1531 0.949 . S
H1508 C1512 0.949 . S
C1509 C1510 1.349 . S
C1509 C1511 1.327 . S
C1509 H1532 0.950 . S
C1510 C1509 1.349 . S
C1510 C1522 1.349 . S
C1511 C1509 1.327 . S
C1511 C1527 1.429 . S
C1511 H1533 0.950 . S
C1512 H1508 0.949 . S
C1512 C1520 1.574 . S
C1512 C1528 1.368 . S
H1513 C1521 0.950 . S
H1514 C1519 0.950 . S
H1515 C1520 0.949 . S
H1516 C1522 0.950 . S
H1517 C1523 0.950 . S
H1518 C1524 0.949 1_554 S
C1519 H1514 0.950 . S
C1519 C1521 1.327 . S
C1519 C1525 1.429 . S
C1520 C1512 1.574 . S
C1520 H1515 0.949 . S
C1520 C1526 1.368 . S
C1521 C1505 1.349 . S
C1521 H1513 0.950 . S
C1521 C1519 1.327 . S
C1522 C1510 1.349 . S
C1522 H1516 0.950 . S
C1522 C1523 1.327 . S
C1523 H1517 0.950 . S
C1523 C1522 1.327 . S
C1523 C1527 1.429 . S
C1524 C1507 1.574 . S
C1524 H1518 0.949 1_556 S
C1524 C1528 1.368 . S
C1525 C1506 1.429 . S
C1525 C1519 1.429 . S
C1525 C1526 1.523 . S
C1526 C1507 1.368 . S
C1526 C1520 1.368 . S
C1526 C1525 1.523 . S
C1527 C1511 1.429 . S
C1527 C1523 1.429 . S
C1527 C1528 1.523 1_554 S
C1528 C1512 1.368 . S
C1528 C1524 1.368 . S
C1528 C1527 1.523 1_556 S
H1529 C1504 0.950 . S
H1530 C1506 0.950 . S
H1531 C1507 0.949 . S
H1532 C1509 0.950 . S
H1533 C1511 0.950 . S
C1534 C1535 1.349 . S
C1534 C1536 1.327 . S
C1534 H1559 0.950 . S
C1535 C1534 1.349 . S
C1535 C1551 1.349 . S
C1536 C1534 1.327 . S
C1536 C1555 1.429 . S
C1536 H1560 0.950 . S
C1537 C1554 1.574 . S
C1537 C1556 1.368 . S
C1537 H1561 0.949 . S
H1538 C1542 0.949 . S
C1539 C1540 1.349 . S
C1539 C1541 1.327 . S
C1539 H1562 0.950 . S
C1540 C1539 1.349 . S
C1540 C1552 1.349 . S
C1541 C1539 1.327 . S
C1541 C1557 1.429 . S
C1541 H1563 0.950 . S
C1542 H1538 0.949 . S
C1542 C1550 1.574 . S
C1542 C1558 1.368 . S
H1543 C1551 0.950 . S
H1544 C1549 0.950 . S
H1545 C1550 0.949 . S
H1546 C1552 0.950 . S
H1547 C1553 0.950 . S
H1548 C1554 0.949 1_554 S
C1549 H1544 0.950 . S
C1549 C1551 1.327 . S
C1549 C1555 1.429 . S
C1550 C1542 1.574 . S
C1550 H1545 0.949 . S
C1550 C1556 1.368 . S
C1551 C1535 1.349 . S
C1551 H1543 0.950 . S
C1551 C1549 1.327 . S
C1552 C1540 1.349 . S
C1552 H1546 0.950 . S
C1552 C1553 1.327 . S
C1553 H1547 0.950 . S
C1553 C1552 1.327 . S
C1553 C1557 1.429 . S
C1554 C1537 1.574 . S
C1554 H1548 0.949 1_556 S
C1554 C1558 1.368 . S
C1555 C1536 1.429 . S
C1555 C1549 1.429 . S
C1555 C1556 1.523 . S
C1556 C1537 1.368 . S
C1556 C1550 1.368 . S
C1556 C1555 1.523 . S
C1557 C1541 1.429 . S
C1557 C1553 1.429 . S
C1557 C1558 1.523 1_554 S
C1558 C1542 1.368 . S
C1558 C1554 1.368 . S
C1558 C1557 1.523 1_556 S
H1559 C1534 0.950 . S
H1560 C1536 0.950 . S
H1561 C1537 0.949 . S
H1562 C1539 0.950 . S
H1563 C1541 0.950 . S
C1564 C1565 1.349 . S
C1564 C1566 1.327 . S
C1564 H1589 0.950 . S
C1565 C1564 1.349 . S
C1565 C1581 1.349 . S
C1566 C1564 1.327 . S
C1566 C1585 1.429 . S
C1566 H1590 0.950 . S
C1567 C1584 1.574 . S
C1567 C1586 1.368 . S
C1567 H1591 0.949 . S
H1568 C1572 0.949 . S
C1569 C1570 1.349 . S
C1569 C1571 1.327 . S
C1569 H1592 0.950 . S
C1570 C1569 1.349 . S
C1570 C1582 1.349 . S
C1571 C1569 1.327 . S
C1571 C1587 1.429 . S
C1571 H1593 0.950 . S
C1572 H1568 0.949 . S
C1572 C1580 1.574 . S
C1572 C1588 1.368 . S
H1573 C1581 0.950 . S
H1574 C1579 0.950 . S
H1575 C1580 0.949 . S
H1576 C1582 0.950 . S
H1577 C1583 0.950 . S
H1578 C1584 0.949 1_554 S
C1579 H1574 0.950 . S
C1579 C1581 1.327 . S
C1579 C1585 1.429 . S
C1580 C1572 1.574 . S
C1580 H1575 0.949 . S
C1580 C1586 1.368 . S
C1581 C1565 1.349 . S
C1581 H1573 0.950 . S
C1581 C1579 1.327 . S
C1582 C1570 1.349 . S
C1582 H1576 0.950 . S
C1582 C1583 1.327 . S
C1583 H1577 0.950 . S
C1583 C1582 1.327 . S
C1583 C1587 1.429 . S
C1584 C1567 1.574 . S
C1584 H1578 0.949 1_556 S
C1584 C1588 1.368 . S
C1585 C1566 1.429 . S
C1585 C1579 1.429 . S
C1585 C1586 1.523 . S
C1586 C1567 1.368 . S
C1586 C1580 1.368 . S
C1586 C1585 1.523 . S
C1587 C1571 1.429 . S
C1587 C1583 1.429 . S
C1587 C1588 1.523 1_554 S
C1588 C1572 1.368 . S
C1588 C1584 1.368 . S
C1588 C1587 1.523 1_556 S
H1589 C1564 0.950 . S
H1590 C1566 0.950 . S
H1591 C1567 0.949 . S
H1592 C1569 0.950 . S
H1593 C1571 0.950 . S
C1594 C1595 1.349 . S
C1594 C1596 1.327 . S
C1594 H1619 0.950 . S
C1595 C1594 1.349 . S
C1595 C1611 1.349 . S
C1596 C1594 1.327 . S
C1596 C1615 1.429 . S
C1596 H1620 0.950 . S
C1597 C1614 1.574 . S
C1597 C1616 1.368 . S
C1597 H1621 0.949 . S
H1598 C1602 0.949 . S
C1599 C1600 1.349 . S
C1599 C1601 1.327 . S
C1599 H1622 0.950 . S
C1600 C1599 1.349 . S
C1600 C1612 1.349 . S
C1601 C1599 1.327 . S
C1601 C1617 1.429 . S
C1601 H1623 0.950 . S
C1602 H1598 0.949 . S
C1602 C1610 1.574 . S
C1602 C1618 1.368 . S
H1603 C1611 0.950 . S
H1604 C1609 0.950 . S
H1605 C1610 0.949 1_554 S
H1606 C1612 0.950 . S
H1607 C1613 0.950 . S
H1608 C1614 0.949 . S
C1609 H1604 0.950 . S
C1609 C1611 1.327 . S
C1609 C1615 1.429 . S
C1610 C1602 1.574 . S
C1610 H1605 0.949 1_556 S
C1610 C1616 1.368 . S
C1611 C1595 1.349 . S
C1611 H1603 0.950 . S
C1611 C1609 1.327 . S
C1612 C1600 1.349 . S
C1612 H1606 0.950 . S
C1612 C1613 1.327 . S
C1613 H1607 0.950 . S
C1613 C1612 1.327 . S
C1613 C1617 1.429 . S
C1614 C1597 1.574 . S
C1614 H1608 0.949 . S
C1614 C1618 1.368 . S
C1615 C1596 1.429 . S
C1615 C1609 1.429 . S
C1615 C1616 1.523 1_554 S
C1616 C1597 1.368 . S
C1616 C1610 1.368 . S
C1616 C1615 1.523 1_556 S
C1617 C1601 1.429 . S
C1617 C1613 1.429 . S
C1617 C1618 1.523 . S
C1618 C1602 1.368 . S
C1618 C1614 1.368 . S
C1618 C1617 1.523 . S
H1619 C1594 0.950 . S
H1620 C1596 0.950 . S
H1621 C1597 0.949 . S
H1622 C1599 0.950 . S
H1623 C1601 0.950 . S
C1624 C1625 1.349 . S
C1624 C1626 1.327 . S
C1624 H1649 0.950 . S
C1625 C1624 1.349 . S
C1625 C1641 1.349 . S
C1626 C1624 1.327 . S
C1626 C1645 1.429 . S
C1626 H1650 0.950 . S
C1627 C1644 1.574 . S
C1627 C1646 1.368 . S
C1627 H1651 0.949 . S
H1628 C1632 0.949 . S
C1629 C1630 1.349 . S
C1629 C1631 1.327 . S
C1629 H1652 0.950 . S
C1630 C1629 1.349 . S
C1630 C1642 1.349 . S
C1631 C1629 1.327 . S
C1631 C1647 1.429 . S
C1631 H1653 0.950 . S
C1632 H1628 0.949 . S
C1632 C1640 1.574 . S
C1632 C1648 1.368 . S
H1633 C1641 0.950 . S
H1634 C1639 0.950 . S
H1635 C1640 0.949 . S
H1636 C1642 0.950 . S
H1637 C1643 0.950 . S
H1638 C1644 0.949 . S
C1639 H1634 0.950 . S
C1639 C1641 1.327 . S
C1639 C1645 1.429 . S
C1640 C1632 1.574 . S
C1640 H1635 0.949 . S
C1640 C1646 1.368 . S
C1641 C1625 1.349 . S
C1641 H1633 0.950 . S
C1641 C1639 1.327 . S
C1642 C1630 1.349 . S
C1642 H1636 0.950 . S
C1642 C1643 1.327 . S
C1643 H1637 0.950 . S
C1643 C1642 1.327 . S
C1643 C1647 1.429 . S
C1644 C1627 1.574 . S
C1644 H1638 0.949 . S
C1644 C1648 1.368 . S
C1645 C1626 1.429 . S
C1645 C1639 1.429 . S
C1645 C1646 1.523 . S
C1646 C1627 1.368 . S
C1646 C1640 1.368 . S
C1646 C1645 1.523 . S
C1647 C1631 1.429 . S
C1647 C1643 1.429 . S
C1647 C1648 1.523 . S
C1648 C1632 1.368 . S
C1648 C1644 1.368 . S
C1648 C1647 1.523 . S
H1649 C1624 0.950 . S
H1650 C1626 0.950 . S
H1651 C1627 0.949 . S
H1652 C1629 0.950 . S
H1653 C1631 0.950 . S
C1654 C1655 1.349 . S
C1654 C1656 1.327 . S
C1654 H1679 0.950 . S
C1655 C1654 1.349 . S
C1655 C1671 1.349 . S
C1656 C1654 1.327 . S
C1656 C1675 1.429 . S
C1656 H1680 0.950 . S
C1657 C1674 1.574 . S
C1657 C1676 1.368 . S
C1657 H1681 0.949 . S
H1658 C1662 0.949 . S
C1659 C1660 1.349 . S
C1659 C1661 1.327 . S
C1659 H1682 0.950 . S
C1660 C1659 1.349 . S
C1660 C1672 1.349 . S
C1661 C1659 1.327 . S
C1661 C1677 1.429 . S
C1661 H1683 0.950 . S
C1662 H1658 0.949 . S
C1662 C1670 1.574 . S
C1662 C1678 1.368 . S
H1663 C1671 0.950 . S
H1664 C1669 0.950 . S
H1665 C1670 0.949 . S
H1666 C1672 0.950 . S
H1667 C1673 0.950 . S
H1668 C1674 0.949 . S
C1669 H1664 0.950 . S
C1669 C1671 1.327 . S
C1669 C1675 1.429 . S
C1670 C1662 1.574 . S
C1670 H1665 0.949 . S
C1670 C1676 1.368 . S
C1671 C1655 1.349 . S
C1671 H1663 0.950 . S
C1671 C1669 1.327 . S
C1672 C1660 1.349 . S
C1672 H1666 0.950 . S
C1672 C1673 1.327 . S
C1673 H1667 0.950 . S
C1673 C1672 1.327 . S
C1673 C1677 1.429 . S
C1674 C1657 1.574 . S
C1674 H1668 0.949 . S
C1674 C1678 1.368 . S
C1675 C1656 1.429 . S
C1675 C1669 1.429 . S
C1675 C1676 1.523 . S
C1676 C1657 1.368 . S
C1676 C1670 1.368 . S
C1676 C1675 1.523 . S
C1677 C1661 1.429 . S
C1677 C1673 1.429 . S
C1677 C1678 1.523 . S
C1678 C1662 1.368 . S
C1678 C1674 1.368 . S
C1678 C1677 1.523 . S
H1679 C1654 0.950 . S
H1680 C1656 0.950 . S
H1681 C1657 0.949 . S
H1682 C1659 0.950 . S
H1683 C1661 0.950 . S
C1684 C1685 1.349 . S
C1684 C1686 1.327 . S
C1684 H1709 0.950 . S
C1685 C1684 1.349 . S
C1685 C1701 1.349 . S
C1686 C1684 1.327 . S
C1686 C1705 1.429 . S
C1686 H1710 0.950 . S
C1687 C1704 1.574 . S
C1687 C1706 1.368 . S
C1687 H1711 0.949 . S
H1688 C1692 0.949 . S
C1689 C1690 1.349 . S
C1689 C1691 1.327 . S
C1689 H1712 0.950 . S
C1690 C1689 1.349 . S
C1690 C1702 1.349 . S
C1691 C1689 1.327 . S
C1691 C1707 1.429 . S
C1691 H1713 0.950 . S
C1692 H1688 0.949 . S
C1692 C1700 1.574 . S
C1692 C1708 1.368 . S
H1693 C1701 0.950 . S
H1694 C1699 0.950 . S
H1695 C1700 0.949 . S
H1696 C1702 0.950 . S
H1697 C1703 0.950 . S
H1698 C1704 0.949 . S
C1699 H1694 0.950 . S
C1699 C1701 1.327 . S
C1699 C1705 1.429 . S
C1700 C1692 1.574 . S
C1700 H1695 0.949 . S
C1700 C1706 1.368 . S
C1701 C1685 1.349 . S
C1701 H1693 0.950 . S
C1701 C1699 1.327 . S
C1702 C1690 1.349 . S
C1702 H1696 0.950 . S
C1702 C1703 1.327 . S
C1703 H1697 0.950 . S
C1703 C1702 1.327 . S
C1703 C1707 1.429 . S
C1704 C1687 1.574 . S
C1704 H1698 0.949 . S
C1704 C1708 1.368 . S
C1705 C1686 1.429 . S
C1705 C1699 1.429 . S
C1705 C1706 1.523 . S
C1706 C1687 1.368 . S
C1706 C1700 1.368 . S
C1706 C1705 1.523 . S
C1707 C1691 1.429 . S
C1707 C1703 1.429 . S
C1707 C1708 1.523 . S
C1708 C1692 1.368 . S
C1708 C1704 1.368 . S
C1708 C1707 1.523 . S
H1709 C1684 0.950 . S
H1710 C1686 0.950 . S
H1711 C1687 0.949 . S
H1712 C1689 0.950 . S
H1713 C1691 0.950 . S
C1714 C1715 1.349 . S
C1714 C1716 1.327 . S
C1714 H1739 0.950 . S
C1715 C1714 1.349 . S
C1715 C1731 1.349 . S
C1716 C1714 1.327 . S
C1716 C1735 1.429 . S
C1716 H1740 0.950 . S
C1717 C1734 1.574 . S
C1717 C1736 1.368 . S
C1717 H1741 0.949 . S
H1718 C1722 0.949 . S
C1719 C1720 1.349 . S
C1719 C1721 1.327 . S
C1719 H1742 0.950 . S
C1720 C1719 1.349 . S
C1720 C1732 1.349 . S
C1721 C1719 1.327 . S
C1721 C1737 1.429 . S
C1721 H1743 0.950 . S
C1722 H1718 0.949 . S
C1722 C1730 1.574 . S
C1722 C1738 1.368 . S
H1723 C1731 0.950 . S
H1724 C1729 0.950 . S
H1725 C1730 0.949 . S
H1726 C1732 0.950 . S
H1727 C1733 0.950 . S
H1728 C1734 0.949 . S
C1729 H1724 0.950 . S
C1729 C1731 1.327 . S
C1729 C1735 1.429 . S
C1730 C1722 1.574 . S
C1730 H1725 0.949 . S
C1730 C1736 1.368 . S
C1731 C1715 1.349 . S
C1731 H1723 0.950 . S
C1731 C1729 1.327 . S
C1732 C1720 1.349 . S
C1732 H1726 0.950 . S
C1732 C1733 1.327 . S
C1733 H1727 0.950 . S
C1733 C1732 1.327 . S
C1733 C1737 1.429 . S
C1734 C1717 1.574 . S
C1734 H1728 0.949 . S
C1734 C1738 1.368 . S
C1735 C1716 1.429 . S
C1735 C1729 1.429 . S
C1735 C1736 1.523 . S
C1736 C1717 1.368 . S
C1736 C1730 1.368 . S
C1736 C1735 1.523 . S
C1737 C1721 1.429 . S
C1737 C1733 1.429 . S
C1737 C1738 1.523 . S
C1738 C1722 1.368 . S
C1738 C1734 1.368 . S
C1738 C1737 1.523 . S
H1739 C1714 0.950 . S
H1740 C1716 0.950 . S
H1741 C1717 0.949 . S
H1742 C1719 0.950 . S
H1743 C1721 0.950 . S
C1744 C1745 1.349 . S
C1744 C1746 1.327 . S
C1744 H1769 0.950 . S
C1745 C1744 1.349 . S
C1745 C1761 1.349 . S
C1746 C1744 1.327 . S
C1746 C1765 1.429 . S
C1746 H1770 0.950 . S
C1747 C1764 1.574 . S
C1747 C1766 1.368 . S
C1747 H1771 0.949 . S
H1748 C1752 0.949 . S
C1749 C1750 1.349 . S
C1749 C1751 1.327 . S
C1749 H1772 0.950 . S
C1750 C1749 1.349 . S
C1750 C1762 1.349 . S
C1751 C1749 1.327 . S
C1751 C1767 1.429 . S
C1751 H1773 0.950 . S
C1752 H1748 0.949 . S
C1752 C1760 1.574 . S
C1752 C1768 1.368 . S
H1753 C1761 0.950 . S
H1754 C1759 0.950 . S
H1755 C1760 0.949 . S
H1756 C1762 0.950 . S
H1757 C1763 0.950 . S
H1758 C1764 0.949 . S
C1759 H1754 0.950 . S
C1759 C1761 1.327 . S
C1759 C1765 1.429 . S
C1760 C1752 1.574 . S
C1760 H1755 0.949 . S
C1760 C1766 1.368 . S
C1761 C1745 1.349 . S
C1761 H1753 0.950 . S
C1761 C1759 1.327 . S
C1762 C1750 1.349 . S
C1762 H1756 0.950 . S
C1762 C1763 1.327 . S
C1763 H1757 0.950 . S
C1763 C1762 1.327 . S
C1763 C1767 1.429 . S
C1764 C1747 1.574 . S
C1764 H1758 0.949 . S
C1764 C1768 1.368 . S
C1765 C1746 1.429 . S
C1765 C1759 1.429 . S
C1765 C1766 1.523 . S
C1766 C1747 1.368 . S
C1766 C1760 1.368 . S
C1766 C1765 1.523 . S
C1767 C1751 1.429 . S
C1767 C1763 1.429 . S
C1767 C1768 1.523 . S
C1768 C1752 1.368 . S
C1768 C1764 1.368 . S
C1768 C1767 1.523 . S
H1769 C1744 0.950 . S
H1770 C1746 0.950 . S
H1771 C1747 0.949 . S
H1772 C1749 0.950 . S
H1773 C1751 0.950 . S
C1774 C1775 1.349 . S
C1774 C1776 1.327 . S
C1774 H1799 0.950 . S
C1775 C1774 1.349 . S
C1775 C1791 1.349 . S
C1776 C1774 1.327 . S
C1776 C1795 1.429 . S
C1776 H1800 0.950 . S
C1777 C1794 1.574 . S
C1777 C1796 1.368 . S
C1777 H1801 0.949 . S
H1778 C1782 0.949 . S
C1779 C1780 1.349 . S
C1779 C1781 1.327 . S
C1779 H1802 0.950 . S
C1780 C1779 1.349 . S
C1780 C1792 1.349 . S
C1781 C1779 1.327 . S
C1781 C1797 1.429 . S
C1781 H1803 0.950 . S
C1782 H1778 0.949 . S
C1782 C1790 1.574 . S
C1782 C1798 1.368 . S
H1783 C1791 0.950 . S
H1784 C1789 0.950 . S
H1785 C1790 0.949 . S
H1786 C1792 0.950 . S
H1787 C1793 0.950 . S
H1788 C1794 0.949 . S
C1789 H1784 0.950 . S
C1789 C1791 1.327 . S
C1789 C1795 1.429 . S
C1790 C1782 1.574 . S
C1790 H1785 0.949 . S
C1790 C1796 1.368 . S
C1791 C1775 1.349 . S
C1791 H1783 0.950 . S
C1791 C1789 1.327 . S
C1792 C1780 1.349 . S
C1792 H1786 0.950 . S
C1792 C1793 1.327 . S
C1793 H1787 0.950 . S
C1793 C1792 1.327 . S
C1793 C1797 1.429 . S
C1794 C1777 1.574 . S
C1794 H1788 0.949 . S
C1794 C1798 1.368 . S
C1795 C1776 1.429 . S
C1795 C1789 1.429 . S
C1795 C1796 1.523 . S
C1796 C1777 1.368 . S
C1796 C1790 1.368 . S
C1796 C1795 1.523 . S
C1797 C1781 1.429 . S
C1797 C1793 1.429 . S
C1797 C1798 1.523 . S
C1798 C1782 1.368 . S
C1798 C1794 1.368 . S
C1798 C1797 1.523 . S
H1799 C1774 0.950 . S
H1800 C1776 0.950 . S
H1801 C1777 0.949 . S
H1802 C1779 0.950 . S
H1803 C1781 0.950 . S
C1804 C1805 1.349 . S
C1804 C1806 1.327 . S
C1804 H1829 0.950 . S
C1805 C1804 1.349 . S
C1805 C1821 1.349 . S
C1806 C1804 1.327 . S
C1806 C1825 1.429 . S
C1806 H1830 0.950 . S
C1807 C1824 1.574 . S
C1807 C1826 1.368 . S
C1807 H1831 0.949 . S
H1808 C1812 0.949 . S
C1809 C1810 1.349 . S
C1809 C1811 1.327 . S
C1809 H1832 0.950 . S
C1810 C1809 1.349 . S
C1810 C1822 1.349 . S
C1811 C1809 1.327 . S
C1811 C1827 1.429 . S
C1811 H1833 0.950 . S
C1812 H1808 0.949 . S
C1812 C1820 1.574 . S
C1812 C1828 1.368 . S
H1813 C1821 0.950 . S
H1814 C1819 0.950 . S
H1815 C1820 0.949 . S
H1816 C1822 0.950 . S
H1817 C1823 0.950 . S
H1818 C1824 0.949 . S
C1819 H1814 0.950 . S
C1819 C1821 1.327 . S
C1819 C1825 1.429 . S
C1820 C1812 1.574 . S
C1820 H1815 0.949 . S
C1820 C1826 1.368 . S
C1821 C1805 1.349 . S
C1821 H1813 0.950 . S
C1821 C1819 1.327 . S
C1822 C1810 1.349 . S
C1822 H1816 0.950 . S
C1822 C1823 1.327 . S
C1823 H1817 0.950 . S
C1823 C1822 1.327 . S
C1823 C1827 1.429 . S
C1824 C1807 1.574 . S
C1824 H1818 0.949 . S
C1824 C1828 1.368 . S
C1825 C1806 1.429 . S
C1825 C1819 1.429 . S
C1825 C1826 1.523 . S
C1826 C1807 1.368 . S
C1826 C1820 1.368 . S
C1826 C1825 1.523 . S
C1827 C1811 1.429 . S
C1827 C1823 1.429 . S
C1827 C1828 1.523 . S
C1828 C1812 1.368 . S
C1828 C1824 1.368 . S
C1828 C1827 1.523 . S
H1829 C1804 0.950 . S
H1830 C1806 0.950 . S
H1831 C1807 0.949 . S
H1832 C1809 0.950 . S
H1833 C1811 0.950 . S
C1834 C1835 1.349 . S
C1834 C1836 1.327 . S
C1834 H1859 0.950 . S
C1835 C1834 1.349 . S
C1835 C1851 1.349 . S
C1836 C1834 1.327 . S
C1836 C1855 1.429 . S
C1836 H1860 0.950 . S
C1837 C1854 1.574 . S
C1837 C1856 1.368 . S
C1837 H1861 0.949 . S
H1838 C1842 0.949 . S
C1839 C1840 1.349 . S
C1839 C1841 1.327 . S
C1839 H1862 0.950 . S
C1840 C1839 1.349 . S
C1840 C1852 1.349 . S
C1841 C1839 1.327 . S
C1841 C1857 1.429 . S
C1841 H1863 0.950 . S
C1842 H1838 0.949 . S
C1842 C1850 1.574 . S
C1842 C1858 1.368 . S
H1843 C1851 0.950 . S
H1844 C1849 0.950 . S
H1845 C1850 0.949 . S
H1846 C1852 0.950 . S
H1847 C1853 0.950 . S
H1848 C1854 0.949 . S
C1849 H1844 0.950 . S
C1849 C1851 1.327 . S
C1849 C1855 1.429 . S
C1850 C1842 1.574 . S
C1850 H1845 0.949 . S
C1850 C1856 1.368 . S
C1851 C1835 1.349 . S
C1851 H1843 0.950 . S
C1851 C1849 1.327 . S
C1852 C1840 1.349 . S
C1852 H1846 0.950 . S
C1852 C1853 1.327 . S
C1853 H1847 0.950 . S
C1853 C1852 1.327 . S
C1853 C1857 1.429 . S
C1854 C1837 1.574 . S
C1854 H1848 0.949 . S
C1854 C1858 1.368 . S
C1855 C1836 1.429 . S
C1855 C1849 1.429 . S
C1855 C1856 1.523 . S
C1856 C1837 1.368 . S
C1856 C1850 1.368 . S
C1856 C1855 1.523 . S
C1857 C1841 1.429 . S
C1857 C1853 1.429 . S
C1857 C1858 1.523 . S
C1858 C1842 1.368 . S
C1858 C1854 1.368 . S
C1858 C1857 1.523 . S
H1859 C1834 0.950 . S
H1860 C1836 0.950 . S
H1861 C1837 0.949 . S
H1862 C1839 0.950 . S
H1863 C1841 0.950 . S
C1864 C1865 1.349 . S
C1864 C1866 1.327 . S
C1864 H1889 0.950 . S
C1865 C1864 1.349 . S
C1865 C1881 1.349 . S
C1866 C1864 1.327 . S
C1866 C1885 1.429 . S
C1866 H1890 0.950 . S
C1867 C1884 1.574 . S
C1867 C1886 1.368 . S
C1867 H1891 0.949 . S
H1868 C1872 0.949 . S
C1869 C1870 1.349 . S
C1869 C1871 1.327 . S
C1869 H1892 0.950 . S
C1870 C1869 1.349 . S
C1870 C1882 1.349 . S
C1871 C1869 1.327 . S
C1871 C1887 1.429 . S
C1871 H1893 0.950 . S
C1872 H1868 0.949 . S
C1872 C1880 1.574 . S
C1872 C1888 1.368 . S
H1873 C1881 0.950 . S
H1874 C1879 0.950 . S
H1875 C1880 0.949 . S
H1876 C1882 0.950 . S
H1877 C1883 0.950 . S
H1878 C1884 0.949 . S
C1879 H1874 0.950 . S
C1879 C1881 1.327 . S
C1879 C1885 1.429 . S
C1880 C1872 1.574 . S
C1880 H1875 0.949 . S
C1880 C1886 1.368 . S
C1881 C1865 1.349 . S
C1881 H1873 0.950 . S
C1881 C1879 1.327 . S
C1882 C1870 1.349 . S
C1882 H1876 0.950 . S
C1882 C1883 1.327 . S
C1883 H1877 0.950 . S
C1883 C1882 1.327 . S
C1883 C1887 1.429 . S
C1884 C1867 1.574 . S
C1884 H1878 0.949 . S
C1884 C1888 1.368 . S
C1885 C1866 1.429 . S
C1885 C1879 1.429 . S
C1885 C1886 1.523 . S
C1886 C1867 1.368 . S
C1886 C1880 1.368 . S
C1886 C1885 1.523 . S
C1887 C1871 1.429 . S
C1887 C1883 1.429 . S
C1887 C1888 1.523 . S
C1888 C1872 1.368 . S
C1888 C1884 1.368 . S
C1888 C1887 1.523 . S
H1889 C1864 0.950 . S
H1890 C1866 0.950 . S
H1891 C1867 0.949 . S
H1892 C1869 0.950 . S
H1893 C1871 0.950 . S
C1894 C1895 1.349 . S
C1894 C1896 1.327 . S
C1894 H1919 0.950 . S
C1895 C1894 1.349 . S
C1895 C1911 1.349 . S
C1896 C1894 1.327 . S
C1896 C1915 1.429 . S
C1896 H1920 0.950 . S
C1897 C1914 1.574 . S
C1897 C1916 1.368 . S
C1897 H1921 0.949 . S
H1898 C1902 0.949 . S
C1899 C1900 1.349 . S
C1899 C1901 1.327 . S
C1899 H1922 0.950 . S
C1900 C1899 1.349 . S
C1900 C1912 1.349 . S
C1901 C1899 1.327 . S
C1901 C1917 1.429 . S
C1901 H1923 0.950 . S
C1902 H1898 0.949 . S
C1902 C1910 1.574 . S
C1902 C1918 1.368 . S
H1903 C1911 0.950 . S
H1904 C1909 0.950 . S
H1905 C1910 0.949 . S
H1906 C1912 0.950 . S
H1907 C1913 0.950 . S
H1908 C1914 0.949 . S
C1909 H1904 0.950 . S
C1909 C1911 1.327 . S
C1909 C1915 1.429 . S
C1910 C1902 1.574 . S
C1910 H1905 0.949 . S
C1910 C1916 1.368 . S
C1911 C1895 1.349 . S
C1911 H1903 0.950 . S
C1911 C1909 1.327 . S
C1912 C1900 1.349 . S
C1912 H1906 0.950 . S
C1912 C1913 1.327 . S
C1913 H1907 0.950 . S
C1913 C1912 1.327 . S
C1913 C1917 1.429 . S
C1914 C1897 1.574 . S
C1914 H1908 0.949 . S
C1914 C1918 1.368 . S
C1915 C1896 1.429 . S
C1915 C1909 1.429 . S
C1915 C1916 1.523 . S
C1916 C1897 1.368 . S
C1916 C1910 1.368 . S
C1916 C1915 1.523 . S
C1917 C1901 1.429 . S
C1917 C1913 1.429 . S
C1917 C1918 1.523 . S
C1918 C1902 1.368 . S
C1918 C1914 1.368 . S
C1918 C1917 1.523 . S
H1919 C1894 0.950 . S
H1920 C1896 0.950 . S
H1921 C1897 0.949 . S
H1922 C1899 0.950 . S
H1923 C1901 0.950 . S
C1924 C1925 1.349 . S
C1924 C1926 1.327 . S
C1924 H1949 0.950 . S
C1925 C1924 1.349 . S
C1925 C1941 1.349 . S
C1926 C1924 1.327 . S
C1926 C1945 1.429 . S
C1926 H1950 0.950 . S
C1927 C1944 1.574 . S
C1927 C1946 1.368 . S
C1927 H1951 0.949 . S
H1928 C1932 0.949 . S
C1929 C1930 1.349 . S
C1929 C1931 1.327 . S
C1929 H1952 0.950 . S
C1930 C1929 1.349 . S
C1930 C1942 1.349 . S
C1931 C1929 1.327 . S
C1931 C1947 1.429 . S
C1931 H1953 0.950 . S
C1932 H1928 0.949 . S
C1932 C1940 1.574 . S
C1932 C1948 1.368 . S
H1933 C1941 0.950 . S
H1934 C1939 0.950 . S
H1935 C1940 0.949 . S
H1936 C1942 0.950 . S
H1937 C1943 0.950 . S
H1938 C1944 0.949 . S
C1939 H1934 0.950 . S
C1939 C1941 1.327 . S
C1939 C1945 1.429 . S
C1940 C1932 1.574 . S
C1940 H1935 0.949 . S
C1940 C1946 1.368 . S
C1941 C1925 1.349 . S
C1941 H1933 0.950 . S
C1941 C1939 1.327 . S
C1942 C1930 1.349 . S
C1942 H1936 0.950 . S
C1942 C1943 1.327 . S
C1943 H1937 0.950 . S
C1943 C1942 1.327 . S
C1943 C1947 1.429 . S
C1944 C1927 1.574 . S
C1944 H1938 0.949 . S
C1944 C1948 1.368 . S
C1945 C1926 1.429 . S
C1945 C1939 1.429 . S
C1945 C1946 1.523 . S
C1946 C1927 1.368 . S
C1946 C1940 1.368 . S
C1946 C1945 1.523 . S
C1947 C1931 1.429 . S
C1947 C1943 1.429 . S
C1947 C1948 1.523 . S
C1948 C1932 1.368 . S
C1948 C1944 1.368 . S
C1948 C1947 1.523 . S
H1949 C1924 0.950 . S
H1950 C1926 0.950 . S
H1951 C1927 0.949 . S
H1952 C1929 0.950 . S
H1953 C1931 0.950 . S
C1954 C1955 1.349 . S
C1954 C1956 1.327 . S
C1954 H1979 0.950 . S
C1955 C1954 1.349 . S
C1955 C1971 1.349 . S
C1956 C1954 1.327 . S
C1956 C1975 1.429 . S
C1956 H1980 0.950 . S
C1957 C1974 1.574 . S
C1957 C1976 1.368 . S
C1957 H1981 0.949 . S
H1958 C1962 0.949 . S
C1959 C1960 1.349 . S
C1959 C1961 1.327 . S
C1959 H1982 0.950 . S
C1960 C1959 1.349 . S
C1960 C1972 1.349 . S
C1961 C1959 1.327 . S
C1961 C1977 1.429 . S
C1961 H1983 0.950 . S
C1962 H1958 0.949 . S
C1962 C1970 1.574 . S
C1962 C1978 1.368 . S
H1963 C1971 0.950 . S
H1964 C1969 0.950 . S
H1965 C1970 0.949 . S
H1966 C1972 0.950 . S
H1967 C1973 0.950 . S
H1968 C1974 0.949 . S
C1969 H1964 0.950 . S
C1969 C1971 1.327 . S
C1969 C1975 1.429 . S
C1970 C1962 1.574 . S
C1970 H1965 0.949 . S
C1970 C1976 1.368 . S
C1971 C1955 1.349 . S
C1971 H1963 0.950 . S
C1971 C1969 1.327 . S
C1972 C1960 1.349 . S
C1972 H1966 0.950 . S
C1972 C1973 1.327 . S
C1973 H1967 0.950 . S
C1973 C1972 1.327 . S
C1973 C1977 1.429 . S
C1974 C1957 1.574 . S
C1974 H1968 0.949 . S
C1974 C1978 1.368 . S
C1975 C1956 1.429 . S
C1975 C1969 1.429 . S
C1975 C1976 1.523 . S
C1976 C1957 1.368 . S
C1976 C1970 1.368 . S
C1976 C1975 1.523 . S
C1977 C1961 1.429 . S
C1977 C1973 1.429 . S
C1977 C1978 1.523 . S
C1978 C1962 1.368 . S
C1978 C1974 1.368 . S
C1978 C1977 1.523 . S
H1979 C1954 0.950 . S
H1980 C1956 0.950 . S
H1981 C1957 0.949 . S
H1982 C1959 0.950 . S
H1983 C1961 0.950 . S
C1984 C1985 1.349 . S
C1984 C1986 1.327 . S
C1984 H2009 0.950 . S
C1985 C1984 1.349 . S
C1985 C2001 1.349 . S
C1986 C1984 1.327 . S
C1986 C2005 1.429 . S
C1986 H2010 0.950 . S
C1987 C2004 1.574 . S
C1987 C2006 1.368 . S
C1987 H2011 0.949 . S
H1988 C1992 0.949 . S
C1989 C1990 1.349 . S
C1989 C1991 1.327 . S
C1989 H2012 0.950 . S
C1990 C1989 1.349 . S
C1990 C2002 1.349 . S
C1991 C1989 1.327 . S
C1991 C2007 1.429 . S
C1991 H2013 0.950 . S
C1992 H1988 0.949 . S
C1992 C2000 1.574 . S
C1992 C2008 1.368 . S
H1993 C2001 0.950 . S
H1994 C1999 0.950 . S
H1995 C2000 0.949 . S
H1996 C2002 0.950 . S
H1997 C2003 0.950 . S
H1998 C2004 0.949 . S
C1999 H1994 0.950 . S
C1999 C2001 1.327 . S
C1999 C2005 1.429 . S
C2000 C1992 1.574 . S
C2000 H1995 0.949 . S
C2000 C2006 1.368 . S
C2001 C1985 1.349 . S
C2001 H1993 0.950 . S
C2001 C1999 1.327 . S
C2002 C1990 1.349 . S
C2002 H1996 0.950 . S
C2002 C2003 1.327 . S
C2003 H1997 0.950 . S
C2003 C2002 1.327 . S
C2003 C2007 1.429 . S
C2004 C1987 1.574 . S
C2004 H1998 0.949 . S
C2004 C2008 1.368 . S
C2005 C1986 1.429 . S
C2005 C1999 1.429 . S
C2005 C2006 1.523 . S
C2006 C1987 1.368 . S
C2006 C2000 1.368 . S
C2006 C2005 1.523 . S
C2007 C1991 1.429 . S
C2007 C2003 1.429 . S
C2007 C2008 1.523 . S
C2008 C1992 1.368 . S
C2008 C2004 1.368 . S
C2008 C2007 1.523 . S
H2009 C1984 0.950 . S
H2010 C1986 0.950 . S
H2011 C1987 0.949 . S
H2012 C1989 0.950 . S
H2013 C1991 0.950 . S
C2014 C2015 1.349 . S
C2014 C2016 1.327 . S
C2014 H2039 0.950 . S
C2015 C2014 1.349 . S
C2015 C2031 1.349 . S
C2016 C2014 1.327 . S
C2016 C2035 1.429 . S
C2016 H2040 0.950 . S
C2017 C2034 1.574 . S
C2017 C2036 1.368 . S
C2017 H2041 0.949 . S
H2018 C2022 0.949 . S
C2019 C2020 1.349 . S
C2019 C2021 1.327 . S
C2019 H2042 0.950 . S
C2020 C2019 1.349 . S
C2020 C2032 1.349 . S
C2021 C2019 1.327 . S
C2021 C2037 1.429 . S
C2021 H2043 0.950 . S
C2022 H2018 0.949 . S
C2022 C2030 1.574 . S
C2022 C2038 1.368 . S
H2023 C2031 0.950 . S
H2024 C2029 0.950 . S
H2025 C2030 0.949 . S
H2026 C2032 0.950 . S
H2027 C2033 0.950 . S
H2028 C2034 0.949 . S
C2029 H2024 0.950 . S
C2029 C2031 1.327 . S
C2029 C2035 1.429 . S
C2030 C2022 1.574 . S
C2030 H2025 0.949 . S
C2030 C2036 1.368 . S
C2031 C2015 1.349 . S
C2031 H2023 0.950 . S
C2031 C2029 1.327 . S
C2032 C2020 1.349 . S
C2032 H2026 0.950 . S
C2032 C2033 1.327 . S
C2033 H2027 0.950 . S
C2033 C2032 1.327 . S
C2033 C2037 1.429 . S
C2034 C2017 1.574 . S
C2034 H2028 0.949 . S
C2034 C2038 1.368 . S
C2035 C2016 1.429 . S
C2035 C2029 1.429 . S
C2035 C2036 1.523 . S
C2036 C2017 1.368 . S
C2036 C2030 1.368 . S
C2036 C2035 1.523 . S
C2037 C2021 1.429 . S
C2037 C2033 1.429 . S
C2037 C2038 1.523 . S
C2038 C2022 1.368 . S
C2038 C2034 1.368 . S
C2038 C2037 1.523 . S
H2039 C2014 0.950 . S
H2040 C2016 0.950 . S
H2041 C2017 0.949 . S
H2042 C2019 0.950 . S
H2043 C2021 0.950 . S
C2044 C2045 1.349 . S
C2044 C2046 1.327 . S
C2044 H2069 0.950 . S
C2045 C2044 1.349 . S
C2045 C2061 1.349 . S
C2046 C2044 1.327 . S
C2046 C2065 1.429 . S
C2046 H2070 0.950 . S
C2047 C2064 1.574 . S
C2047 C2066 1.368 . S
C2047 H2071 0.949 . S
H2048 C2052 0.949 . S
C2049 C2050 1.349 . S
C2049 C2051 1.327 . S
C2049 H2072 0.950 . S
C2050 C2049 1.349 . S
C2050 C2062 1.349 . S
C2051 C2049 1.327 . S
C2051 C2067 1.429 . S
C2051 H2073 0.950 . S
C2052 H2048 0.949 . S
C2052 C2060 1.574 . S
C2052 C2068 1.368 . S
H2053 C2061 0.950 . S
H2054 C2059 0.950 . S
H2055 C2060 0.949 . S
H2056 C2062 0.950 . S
H2057 C2063 0.950 . S
H2058 C2064 0.949 . S
C2059 H2054 0.950 . S
C2059 C2061 1.327 . S
C2059 C2065 1.429 . S
C2060 C2052 1.574 . S
C2060 H2055 0.949 . S
C2060 C2066 1.368 . S
C2061 C2045 1.349 . S
C2061 H2053 0.950 . S
C2061 C2059 1.327 . S
C2062 C2050 1.349 . S
C2062 H2056 0.950 . S
C2062 C2063 1.327 . S
C2063 H2057 0.950 . S
C2063 C2062 1.327 . S
C2063 C2067 1.429 . S
C2064 C2047 1.574 . S
C2064 H2058 0.949 . S
C2064 C2068 1.368 . S
C2065 C2046 1.429 . S
C2065 C2059 1.429 . S
C2065 C2066 1.523 . S
C2066 C2047 1.368 . S
C2066 C2060 1.368 . S
C2066 C2065 1.523 . S
C2067 C2051 1.429 . S
C2067 C2063 1.429 . S
C2067 C2068 1.523 . S
C2068 C2052 1.368 . S
C2068 C2064 1.368 . S
C2068 C2067 1.523 . S
H2069 C2044 0.950 . S
H2070 C2046 0.950 . S
H2071 C2047 0.949 . S
H2072 C2049 0.950 . S
H2073 C2051 0.950 . S
C2074 C2075 1.349 . S
C2074 C2076 1.327 . S
C2074 H2099 0.950 . S
C2075 C2074 1.349 . S
C2075 C2091 1.349 . S
C2076 C2074 1.327 . S
C2076 C2095 1.429 . S
C2076 H2100 0.950 . S
C2077 C2094 1.574 . S
C2077 C2096 1.368 . S
C2077 H2101 0.949 . S
H2078 C2082 0.949 . S
C2079 C2080 1.349 . S
C2079 C2081 1.327 . S
C2079 H2102 0.950 . S
C2080 C2079 1.349 . S
C2080 C2092 1.349 . S
C2081 C2079 1.327 . S
C2081 C2097 1.429 . S
C2081 H2103 0.950 . S
C2082 H2078 0.949 . S
C2082 C2090 1.574 . S
C2082 C2098 1.368 . S
H2083 C2091 0.950 . S
H2084 C2089 0.950 . S
H2085 C2090 0.949 . S
H2086 C2092 0.950 . S
H2087 C2093 0.950 . S
H2088 C2094 0.949 . S
C2089 H2084 0.950 . S
C2089 C2091 1.327 . S
C2089 C2095 1.429 . S
C2090 C2082 1.574 . S
C2090 H2085 0.949 . S
C2090 C2096 1.368 . S
C2091 C2075 1.349 . S
C2091 H2083 0.950 . S
C2091 C2089 1.327 . S
C2092 C2080 1.349 . S
C2092 H2086 0.950 . S
C2092 C2093 1.327 . S
C2093 H2087 0.950 . S
C2093 C2092 1.327 . S
C2093 C2097 1.429 . S
C2094 C2077 1.574 . S
C2094 H2088 0.949 . S
C2094 C2098 1.368 . S
C2095 C2076 1.429 . S
C2095 C2089 1.429 . S
C2095 C2096 1.523 . S
C2096 C2077 1.368 . S
C2096 C2090 1.368 . S
C2096 C2095 1.523 . S
C2097 C2081 1.429 . S
C2097 C2093 1.429 . S
C2097 C2098 1.523 . S
C2098 C2082 1.368 . S
C2098 C2094 1.368 . S
C2098 C2097 1.523 . S
H2099 C2074 0.950 . S
H2100 C2076 0.950 . S
H2101 C2077 0.949 . S
H2102 C2079 0.950 . S
H2103 C2081 0.950 . S
C2104 C2105 1.349 . S
C2104 C2106 1.327 . S
C2104 H2129 0.950 . S
C2105 C2104 1.349 . S
C2105 C2121 1.349 . S
C2106 C2104 1.327 . S
C2106 C2125 1.429 . S
C2106 H2130 0.950 . S
C2107 C2124 1.574 . S
C2107 C2126 1.368 . S
C2107 H2131 0.949 . S
H2108 C2112 0.949 . S
C2109 C2110 1.349 . S
C2109 C2111 1.327 . S
C2109 H2132 0.950 . S
C2110 C2109 1.349 . S
C2110 C2122 1.349 . S
C2111 C2109 1.327 . S
C2111 C2127 1.429 . S
C2111 H2133 0.950 . S
C2112 H2108 0.949 . S
C2112 C2120 1.574 . S
C2112 C2128 1.368 . S
H2113 C2121 0.950 . S
H2114 C2119 0.950 . S
H2115 C2120 0.949 . S
H2116 C2122 0.950 . S
H2117 C2123 0.950 . S
H2118 C2124 0.949 . S
C2119 H2114 0.950 . S
C2119 C2121 1.327 . S
C2119 C2125 1.429 . S
C2120 C2112 1.574 . S
C2120 H2115 0.949 . S
C2120 C2126 1.368 . S
C2121 C2105 1.349 . S
C2121 H2113 0.950 . S
C2121 C2119 1.327 . S
C2122 C2110 1.349 . S
C2122 H2116 0.950 . S
C2122 C2123 1.327 . S
C2123 H2117 0.950 . S
C2123 C2122 1.327 . S
C2123 C2127 1.429 . S
C2124 C2107 1.574 . S
C2124 H2118 0.949 . S
C2124 C2128 1.368 . S
C2125 C2106 1.429 . S
C2125 C2119 1.429 . S
C2125 C2126 1.523 . S
C2126 C2107 1.368 . S
C2126 C2120 1.368 . S
C2126 C2125 1.523 . S
C2127 C2111 1.429 . S
C2127 C2123 1.429 . S
C2127 C2128 1.523 . S
C2128 C2112 1.368 . S
C2128 C2124 1.368 . S
C2128 C2127 1.523 . S
H2129 C2104 0.950 . S
H2130 C2106 0.950 . S
H2131 C2107 0.949 . S
H2132 C2109 0.950 . S
H2133 C2111 0.950 . S
C2134 C2135 1.349 . S
C2134 C2136 1.327 . S
C2134 H2159 0.950 . S
C2135 C2134 1.349 . S
C2135 C2151 1.349 . S
C2136 C2134 1.327 . S
C2136 C2155 1.429 . S
C2136 H2160 0.950 . S
C2137 C2154 1.574 . S
C2137 C2156 1.368 . S
C2137 H2161 0.949 . S
H2138 C2142 0.949 . S
C2139 C2140 1.349 . S
C2139 C2141 1.327 . S
C2139 H2162 0.950 . S
C2140 C2139 1.349 . S
C2140 C2152 1.349 . S
C2141 C2139 1.327 . S
C2141 C2157 1.429 . S
C2141 H2163 0.950 . S
C2142 H2138 0.949 . S
C2142 C2150 1.574 . S
C2142 C2158 1.368 . S
H2143 C2151 0.950 . S
H2144 C2149 0.950 . S
H2145 C2150 0.949 . S
H2146 C2152 0.950 . S
H2147 C2153 0.950 . S
H2148 C2154 0.949 . S
C2149 H2144 0.950 . S
C2149 C2151 1.327 . S
C2149 C2155 1.429 . S
C2150 C2142 1.574 . S
C2150 H2145 0.949 . S
C2150 C2156 1.368 . S
C2151 C2135 1.349 . S
C2151 H2143 0.950 . S
C2151 C2149 1.327 . S
C2152 C2140 1.349 . S
C2152 H2146 0.950 . S
C2152 C2153 1.327 . S
C2153 H2147 0.950 . S
C2153 C2152 1.327 . S
C2153 C2157 1.429 . S
C2154 C2137 1.574 . S
C2154 H2148 0.949 . S
C2154 C2158 1.368 . S
C2155 C2136 1.429 . S
C2155 C2149 1.429 . S
C2155 C2156 1.523 . S
C2156 C2137 1.368 . S
C2156 C2150 1.368 . S
C2156 C2155 1.523 . S
C2157 C2141 1.429 . S
C2157 C2153 1.429 . S
C2157 C2158 1.523 . S
C2158 C2142 1.368 . S
C2158 C2154 1.368 . S
C2158 C2157 1.523 . S
H2159 C2134 0.950 . S
H2160 C2136 0.950 . S
H2161 C2137 0.949 . S
H2162 C2139 0.950 . S
H2163 C2141 0.950 . S
C2164 C2165 1.349 . S
C2164 C2166 1.327 . S
C2164 H2189 0.950 . S
C2165 C2164 1.349 . S
C2165 C2181 1.349 . S
C2166 C2164 1.327 . S
C2166 C2185 1.429 . S
C2166 H2190 0.950 . S
C2167 C2184 1.574 . S
C2167 C2186 1.368 . S
C2167 H2191 0.949 . S
H2168 C2172 0.949 . S
C2169 C2170 1.349 . S
C2169 C2171 1.327 . S
C2169 H2192 0.950 . S
C2170 C2169 1.349 . S
C2170 C2182 1.349 . S
C2171 C2169 1.327 . S
C2171 C2187 1.429 . S
C2171 H2193 0.950 . S
C2172 H2168 0.949 . S
C2172 C2180 1.574 . S
C2172 C2188 1.368 . S
H2173 C2181 0.950 . S
H2174 C2179 0.950 . S
H2175 C2180 0.949 . S
H2176 C2182 0.950 . S
H2177 C2183 0.950 . S
H2178 C2184 0.949 . S
C2179 H2174 0.950 . S
C2179 C2181 1.327 . S
C2179 C2185 1.429 . S
C2180 C2172 1.574 . S
C2180 H2175 0.949 . S
C2180 C2186 1.368 . S
C2181 C2165 1.349 . S
C2181 H2173 0.950 . S
C2181 C2179 1.327 . S
C2182 C2170 1.349 . S
C2182 H2176 0.950 . S
C2182 C2183 1.327 . S
C2183 H2177 0.950 . S
C2183 C2182 1.327 . S
C2183 C2187 1.429 . S
C2184 C2167 1.574 . S
C2184 H2178 0.949 . S
C2184 C2188 1.368 . S
C2185 C2166 1.429 . S
C2185 C2179 1.429 . S
C2185 C2186 1.523 . S
C2186 C2167 1.368 . S
C2186 C2180 1.368 . S
C2186 C2185 1.523 . S
C2187 C2171 1.429 . S
C2187 C2183 1.429 . S
C2187 C2188 1.523 . S
C2188 C2172 1.368 . S
C2188 C2184 1.368 . S
C2188 C2187 1.523 . S
H2189 C2164 0.950 . S
H2190 C2166 0.950 . S
H2191 C2167 0.949 . S
H2192 C2169 0.950 . S
H2193 C2171 0.950 . S
C2194 C2195 1.349 . S
C2194 C2196 1.327 . S
C2194 H2219 0.950 . S
C2195 C2194 1.349 . S
C2195 C2211 1.349 . S
C2196 C2194 1.327 . S
C2196 C2215 1.429 . S
C2196 H2220 0.950 . S
C2197 C2214 1.574 . S
C2197 C2216 1.368 . S
C2197 H2221 0.949 . S
H2198 C2202 0.949 . S
C2199 C2200 1.349 . S
C2199 C2201 1.327 . S
C2199 H2222 0.950 . S
C2200 C2199 1.349 . S
C2200 C2212 1.349 . S
C2201 C2199 1.327 . S
C2201 C2217 1.429 . S
C2201 H2223 0.950 . S
C2202 H2198 0.949 . S
C2202 C2210 1.574 . S
C2202 C2218 1.368 . S
H2203 C2211 0.950 . S
H2204 C2209 0.950 . S
H2205 C2210 0.949 . S
H2206 C2212 0.950 . S
H2207 C2213 0.950 . S
H2208 C2214 0.949 . S
C2209 H2204 0.950 . S
C2209 C2211 1.327 . S
C2209 C2215 1.429 . S
C2210 C2202 1.574 . S
C2210 H2205 0.949 . S
C2210 C2216 1.368 . S
C2211 C2195 1.349 . S
C2211 H2203 0.950 . S
C2211 C2209 1.327 . S
C2212 C2200 1.349 . S
C2212 H2206 0.950 . S
C2212 C2213 1.327 . S
C2213 H2207 0.950 . S
C2213 C2212 1.327 . S
C2213 C2217 1.429 . S
C2214 C2197 1.574 . S
C2214 H2208 0.949 . S
C2214 C2218 1.368 . S
C2215 C2196 1.429 . S
C2215 C2209 1.429 . S
C2215 C2216 1.523 . S
C2216 C2197 1.368 . S
C2216 C2210 1.368 . S
C2216 C2215 1.523 . S
C2217 C2201 1.429 . S
C2217 C2213 1.429 . S
C2217 C2218 1.523 . S
C2218 C2202 1.368 . S
C2218 C2214 1.368 . S
C2218 C2217 1.523 . S
H2219 C2194 0.950 . S
H2220 C2196 0.950 . S
H2221 C2197 0.949 . S
H2222 C2199 0.950 . S
H2223 C2201 0.950 . S
C545 C275 2.838 . S
C550 C3 2.838 . S
C575 C37 2.839 . S
C580 C307 2.839 . S
C605 C343 2.839 . S
C610 C69 2.839 . S
C635 C103 2.838 . S
C640 C375 2.838 . S
C665 C137 2.838 . S
C670 C409 2.838 . S
C695 C171 2.839 . S
C700 C443 2.839 . S
C725 C477 2.839 . S
C730 C207 2.839 . S
C755 C511 2.838 . S
C760 C241 2.838 . S
C785 C1 1.729 1_565 S
C790 C40 1.735 . S
C815 C96 1.735 . S
C820 C35 1.729 . S
C845 C130 1.735 1_655 S
C850 C71 1.729 . S
C875 C6 1.735 1_565 S
C880 C105 1.729 1_655 S
C905 C244 1.735 1_455 S
C910 C139 1.729 1_545 S
C935 C164 1.735 1_545 S
C940 C173 1.729 . S
C965 C205 1.729 . S
C970 C198 1.735 . S
C995 C239 1.729 1_455 S
C1000 C210 1.735 . S
C1025 C334 1.735 . S
C1030 C273 1.729 1_545 S
C1055 C309 1.729 . S
C1060 C346 1.735 . S
C1085 C402 1.735 1_455 S
C1090 C341 1.729 . S
C1115 C278 1.735 1_545 S
C1120 C377 1.729 1_455 S
C1145 C538 1.735 1_655 S
C1150 C411 1.729 1_565 S
C1175 C436 1.735 1_565 S
C1180 C445 1.729 . S
C1205 C470 1.735 . S
C1210 C479 1.729 . S
C1235 C504 1.735 . S
C1240 C513 1.729 1_655 S
C1265 C328 0.554 . S
C1270 C28 0.526 . S
C1295 C355 0.554 . S
C1300 C62 0.526 . S
C1325 C396 0.554 . S
C1330 C74 0.526 . S
C1355 C287 0.554 . S
C1360 C108 0.526 . S
C1385 C532 0.554 . S
C1390 C142 0.526 . S
C1415 C430 0.554 . S
C1420 C176 0.526 . S
C1445 C232 0.526 . S
C1450 C464 0.554 . S
C1475 C498 0.554 . S
C1480 C266 0.526 . S
C1505 C300 0.526 . S
C1510 C49 0.554 . S
C1535 C312 0.526 . S
C1540 C90 0.554 . S
C1565 C368 0.526 . S
C1570 C124 0.554 . S
C1595 C15 0.554 . S
C1600 C380 0.526 . S
C1625 C414 0.526 . S
C1630 C253 0.554 . S
C1655 C158 0.554 . S
C1660 C448 0.526 . S
C1685 C482 0.526 . S
C1690 C192 0.554 . S
C1715 C516 0.526 . S
C1720 C219 0.554 . S
C1745 C185 1.266 . S
C1750 C22 1.266 . S
C1775 C226 1.266 . S
C1780 C56 1.266 . S
C1805 C260 1.266 . S
C1810 C83 1.266 . S
C1835 C151 1.266 . S
C1840 C117 1.266 . S
C1865 C457 1.266 . S
C1870 C294 1.266 . S
C1895 C321 1.266 . S
C1900 C491 1.266 . S
C1925 C362 1.266 . S
C1930 C525 1.266 . S
C1955 C389 1.266 . S
C1960 C423 1.266 . S
C1985 C85 1.401 . S
C1990 C17 1.401 . S
C2015 C51 1.401 . S
C2020 C119 1.401 . S
C2045 C221 1.401 . S
C2050 C153 1.401 . S
C2075 C255 1.401 . S
C2080 C187 1.401 . S
C2105 C289 1.401 . S
C2110 C357 1.401 . S
C2135 C391 1.401 . S
C2140 C323 1.401 . S
C2165 C493 1.401 . S
C2170 C425 1.401 . S
C2195 C527 1.401 . S
C2200 C459 1.401 . S
