# Generated by pormake.
# Topology fnl, (5)-cn, num edge types: 1
# Building blocks:
#     Node 0, Type 0, BuildingBlock: XOMCOT_clean_sbu_1, # of connection points: 5
#     Node 1, Type 0, BuildingBlock: XOMCOT_clean_sbu_1, # of connection points: 5
#     Node 2, Type 0, BuildingBlock: XOMCOT_clean_sbu_1, # of connection points: 5
#     Node 3, Type 0, BuildingBlock: XOMCOT_clean_sbu_1, # of connection points: 5
#     Node 4, Type 0, BuildingBlock: XOMCOT_clean_sbu_1, # of connection points: 5
#     Node 5, Type 0, BuildingBlock: XOMCOT_clean_sbu_1, # of connection points: 5
#     Node 6, Type 0, BuildingBlock: XOMCOT_clean_sbu_1, # of connection points: 5
#     Node 7, Type 0, BuildingBlock: XOMCOT_clean_sbu_1, # of connection points: 5
#     Node 8, Type 0, BuildingBlock: XOMCOT_clean_sbu_1, # of connection points: 5
#     Node 9, Type 0, BuildingBlock: XOMCOT_clean_sbu_1, # of connection points: 5
#     Node 10, Type 0, BuildingBlock: XOMCOT_clean_sbu_1, # of connection points: 5
#     Node 11, Type 0, BuildingBlock: XOMCOT_clean_sbu_1, # of connection points: 5
#     Node 12, Type 0, BuildingBlock: XOMCOT_clean_sbu_1, # of connection points: 5
#     Node 13, Type 0, BuildingBlock: XOMCOT_clean_sbu_1, # of connection points: 5
#     Node 14, Type 0, BuildingBlock: XOMCOT_clean_sbu_1, # of connection points: 5
#     Node 15, Type 0, BuildingBlock: XOMCOT_clean_sbu_1, # of connection points: 5
#     Edge 16, Type (0, 0), None
#     Edge 17, Type (0, 0), None
#     Edge 18, Type (0, 0), None
#     Edge 19, Type (0, 0), None
#     Edge 20, Type (0, 0), None
#     Edge 21, Type (0, 0), None
#     Edge 22, Type (0, 0), None
#     Edge 23, Type (0, 0), None
#     Edge 24, Type (0, 0), None
#     Edge 25, Type (0, 0), None
#     Edge 26, Type (0, 0), None
#     Edge 27, Type (0, 0), None
#     Edge 28, Type (0, 0), None
#     Edge 29, Type (0, 0), None
#     Edge 30, Type (0, 0), None
#     Edge 31, Type (0, 0), None
#     Edge 32, Type (0, 0), None
#     Edge 33, Type (0, 0), None
#     Edge 34, Type (0, 0), None
#     Edge 35, Type (0, 0), None
#     Edge 36, Type (0, 0), None
#     Edge 37, Type (0, 0), None
#     Edge 38, Type (0, 0), None
#     Edge 39, Type (0, 0), None
#     Edge 40, Type (0, 0), None
#     Edge 41, Type (0, 0), None
#     Edge 42, Type (0, 0), None
#     Edge 43, Type (0, 0), None
#     Edge 44, Type (0, 0), None
#     Edge 45, Type (0, 0), None
#     Edge 46, Type (0, 0), None
#     Edge 47, Type (0, 0), None
#     Edge 48, Type (0, 0), None
#     Edge 49, Type (0, 0), None
#     Edge 50, Type (0, 0), None
#     Edge 51, Type (0, 0), None
#     Edge 52, Type (0, 0), None
#     Edge 53, Type (0, 0), None
#     Edge 54, Type (0, 0), None
#     Edge 55, Type (0, 0), None
# Relax obj value: 0.544
# Max RMSD: 0.274
# Mean RMSD: 0.273
data_MOF--net-fnl--node1-XOMCOT_clean_sbu_1--edge1-none
_symmetry_space_group_name_H-M    P1
_symmetry_Int_Tables_number       1
_symmetry_cell_setting            triclinic
loop_
_symmetry_equiv_pos_as_xyz
'x, y, z'
_cell_length_a     17.989502
_cell_length_b     17.976362
_cell_length_c     44.934431
_cell_angle_alpha  89.999999
_cell_angle_beta   89.999978
_cell_angle_gamma 89.793177
loop_
_atom_site_label
_atom_site_type_symbol
_atom_site_fract_x
_atom_site_fract_y
_atom_site_fract_z
_atom_type_partial_charge
C0 C 0.05432 0.98157 0.04667 0.0
C1 C 0.03625 0.90894 0.04149 0.0
N2 N 0.06025 0.86876 0.06475 0.0
N3 N 0.09093 0.98699 0.0728 0.0
C4 C 0.09398 0.91664 0.0835 0.0
H5 H 0.04139 0.02813 0.03232 0.0
Co6 Co 0.11334 0.0809 0.08689 0.0
C7 C 0.22078 0.04359 0.14113 0.0
O8 O 0.21115 0.10422 0.15697 0.0
N9 N 0.12781 0.18047 0.09914 0.0
C10 C 0.16117 0.29664 0.11071 0.0
C11 C 0.18596 0.22377 0.10682 0.0
C12 C 0.06913 0.22846 0.09815 0.0
N13 N 0.08733 0.2984 0.10555 0.0
O14 O 0.19451 0.0832 0.05938 0.0
H15 H 0.24277 0.20438 0.10861 0.0
H16 H 0.01424 0.21368 0.09065 0.0
O17 O 0.18569 0.0354 0.11638 0.0
C18 C 0.18617 0.11055 0.03353 0.0
O19 O 0.13995 0.16654 0.03019 0.0
N20 N 0.03166 0.0754 0.11157 0.0
C21 C 0.89977 0.04026 0.13912 0.0
C22 C 0.96528 0.04732 0.15588 0.0
C23 C 0.03126 0.06464 0.14151 0.0
C24 C 0.96682 0.07876 0.09588 0.0
C25 C 0.89973 0.06136 0.10927 0.0
H26 H 0.08159 0.06434 0.1542 0.0
H27 H 0.96795 0.09088 0.07232 0.0
H28 H 0.12073 0.90077 0.10413 0.0
H29 H 1.00909 0.88663 0.02196 0.0
H30 H 0.19475 0.34433 0.11649 0.0
H31 H 0.96751 0.03095 0.17907 0.0
H32 H 0.85001 0.05683 0.09579 0.0
C33 C 0.41275 0.81012 0.2996 0.0
C34 C 0.48633 0.79585 0.29448 0.0
N35 N 0.52477 0.82425 0.31736 0.0
N36 N 0.40538 0.84897 0.32514 0.0
C37 C 0.47517 0.85696 0.33566 0.0
H38 H 0.3671 0.7948 0.28525 0.0
Co39 Co 0.31174 0.87315 0.33812 0.0
C40 C 0.35449 0.97926 0.39285 0.0
O41 O 0.30111 0.96818 0.41226 0.0
N42 N 0.21293 0.89044 0.34942 0.0
C43 C 0.09898 0.92537 0.36342 0.0
C44 C 0.17219 0.94831 0.35963 0.0
C45 C 0.16351 0.83388 0.34693 0.0
N46 N 0.09499 0.85297 0.35582 0.0
O47 O 0.31375 0.95567 0.31101 0.0
H48 H 0.19386 1.00338 0.36379 0.0
H49 H 0.17655 0.77985 0.33786 0.0
O50 O 0.35445 0.94453 0.36783 0.0
C51 C 0.28507 0.95631 0.28521 0.0
O52 O 0.21948 0.92609 0.28149 0.0
N53 N 0.31421 0.79025 0.36284 0.0
C54 C 0.34972 0.65688 0.38992 0.0
C55 C 0.34432 0.72242 0.40679 0.0
C56 C 0.32692 0.78905 0.39266 0.0
C57 C 0.3093 0.72551 0.34711 0.0
C58 C 0.32693 0.6578 0.36024 0.0
H59 H 0.32933 0.83916 0.40539 0.0
H60 H 0.29669 0.72714 0.3236 0.0
H61 H 0.48957 0.88758 0.35557 0.0
H62 H 0.51027 0.76936 0.27506 0.0
H63 H 0.05283 0.95882 0.37126 0.0
H64 H 0.36225 0.72407 0.42981 0.0
H65 H 0.33046 0.60822 0.34659 0.0
C66 C 0.57192 0.17798 0.5467 0.0
C67 C 0.59003 0.25059 0.54149 0.0
N68 N 0.56616 0.2908 0.56477 0.0
N69 N 0.53541 0.1726 0.57285 0.0
C70 C 0.53246 0.24296 0.58355 0.0
H71 H 0.58474 0.1314 0.53233 0.0
Co72 Co 0.51295 0.07867 0.58693 0.0
C73 C 0.40558 0.11591 0.6412 0.0
O74 O 0.41489 0.05504 0.65692 0.0
N75 N 0.49848 0.97905 0.59916 0.0
C76 C 0.46526 0.86282 0.61069 0.0
C77 C 0.44038 0.93568 0.60682 0.0
C78 C 0.55721 0.93111 0.59814 0.0
N79 N 0.5391 0.86114 0.60552 0.0
O80 O 0.43169 0.0765 0.55946 0.0
H81 H 0.38356 0.955 0.60863 0.0
H82 H 0.61207 0.94596 0.59062 0.0
O83 O 0.44075 0.12424 0.61647 0.0
C84 C 0.43984 0.04908 0.53361 0.0
O85 O 0.48576 0.99284 0.53028 0.0
N86 N 0.59467 0.08405 0.61158 0.0
C87 C 0.72646 0.11903 0.63921 0.0
C88 C 0.66096 0.11162 0.65595 0.0
C89 C 0.59503 0.09437 0.64153 0.0
C90 C 0.65953 0.08088 0.59589 0.0
C91 C 0.72658 0.09817 0.60932 0.0
H92 H 0.5447 0.09435 0.65423 0.0
H93 H 0.65845 0.06896 0.57232 0.0
H94 H 0.5058 0.25885 0.60419 0.0
H95 H 0.61712 0.27286 0.52195 0.0
H96 H 0.43174 0.8151 0.61648 0.0
H97 H 0.65867 0.1277 0.67917 0.0
H98 H 0.77632 0.1029 0.59586 0.0
C99 C 0.21342 0.3506 0.80008 0.0
C100 C 0.13976 0.3648 0.79513 0.0
N101 N 0.10163 0.33564 0.81795 0.0
N102 N 0.22113 0.3111 0.82544 0.0
C103 C 0.15149 0.30255 0.83602 0.0
H104 H 0.25888 0.36636 0.78571 0.0
Co105 Co 0.31482 0.28667 0.83819 0.0
C106 C 0.27168 0.18064 0.89302 0.0
O107 O 0.32444 0.19173 0.91269 0.0
N108 N 0.41361 0.26911 0.84927 0.0
C109 C 0.52738 0.23448 0.86361 0.0
C110 C 0.45415 0.21153 0.85987 0.0
C111 C 0.46313 0.32547 0.8465 0.0
N112 N 0.53151 0.30658 0.85559 0.0
O113 O 0.31217 0.20412 0.81109 0.0
H114 H 0.4323 0.15674 0.86443 0.0
H115 H 0.45018 0.37926 0.83718 0.0
O116 O 0.27245 0.2154 0.868 0.0
C117 C 0.3409 0.20273 0.7853 0.0
O118 O 0.40723 0.23132 0.78159 0.0
N119 N 0.31293 0.36963 0.86293 0.0
C120 C 0.27738 0.503 0.89002 0.0
C121 C 0.28281 0.43747 0.90689 0.0
C122 C 0.30022 0.37084 0.89276 0.0
C123 C 0.31795 0.43439 0.84722 0.0
C124 C 0.30028 0.5021 0.86035 0.0
H125 H 0.29775 0.32073 0.90548 0.0
H126 H 0.33052 0.43279 0.82371 0.0
H127 H 0.13735 0.27123 0.85578 0.0
H128 H 0.11553 0.39162 0.77584 0.0
H129 H 0.57339 0.20131 0.87177 0.0
H130 H 0.26483 0.4358 0.9299 0.0
H131 H 0.29675 0.55168 0.84671 0.0
C132 C 0.02822 0.18437 0.98253 0.0
C133 C 0.01214 0.25882 0.98299 0.0
N134 N 0.05465 0.29176 0.96238 0.0
N135 N 0.08107 0.17069 0.96188 0.0
C136 C 0.09733 0.23796 0.95028 0.0
H137 H 1.00477 0.14291 0.99716 0.0
Co138 Co 0.11215 0.07461 0.95424 0.0
C139 C 0.21775 0.1193 0.89788 0.0
O140 O 0.20905 0.07002 0.87662 0.0
N141 N 0.13546 0.97426 0.94813 0.0
C142 C 0.14725 0.86433 0.92557 0.0
C143 C 0.1751 0.93614 0.92762 0.0
C144 C 0.08563 0.92419 0.95863 0.0
N145 N 0.09111 0.85759 0.94519 0.0
O146 O 0.19273 0.09031 0.98174 0.0
H147 H 0.21603 0.96029 0.91302 0.0
H148 H 0.0407 0.93881 0.97347 0.0
O149 O 0.18171 0.11308 0.92254 0.0
C150 C 0.20115 0.06232 1.0075 0.0
O151 O 0.19414 0.99012 1.01079 0.0
N152 N 0.03083 0.06279 0.92903 0.0
C153 C 0.90059 0.09887 0.90043 0.0
C154 C 0.96606 0.08846 0.884 0.0
C155 C 0.0313 0.07081 0.89896 0.0
C156 C 0.96509 0.05636 0.94392 0.0
C157 C 0.89862 0.07547 0.93006 0.0
H158 H 0.08185 0.07051 0.88666 0.0
H159 H 0.96502 0.04551 0.96756 0.0
H160 H 0.14086 0.24806 0.93419 0.0
H161 H 0.97619 0.2875 0.99858 0.0
H162 H 0.16281 0.82263 0.90933 0.0
H163 H 0.96954 0.10467 0.86081 0.0
H164 H 0.84858 0.08149 0.94328 0.0
C165 C 0.21139 0.80629 0.23911 0.0
C166 C 0.13786 0.78882 0.24174 0.0
N167 N 0.10153 0.82317 0.21958 0.0
N168 N 0.22092 0.85252 0.21577 0.0
C169 C 0.15231 0.86264 0.20432 0.0
H170 H 0.25539 0.78797 0.25378 0.0
Co171 Co 0.31546 0.87997 0.20533 0.0
C172 C 0.27918 0.989 0.15048 0.0
O173 O 0.34004 0.98344 0.13451 0.0
N174 N 0.41588 0.89876 0.19682 0.0
C175 C 0.53175 0.92579 0.18259 0.0
C176 C 0.45915 0.95253 0.18503 0.0
C177 C 0.46362 0.84137 0.20195 0.0
N178 N 0.53301 0.85534 0.19285 0.0
O179 O 0.3072 0.96035 0.23337 0.0
H180 H 0.43941 1.00672 0.17814 0.0
H181 H 0.44817 0.78969 0.21237 0.0
O182 O 0.27294 0.95212 0.17493 0.0
C183 C 0.33555 0.96232 0.25923 0.0
O184 O 0.40544 0.94288 0.26253 0.0
N185 N 0.31928 0.79923 0.17962 0.0
C186 C 0.28329 0.67062 0.15005 0.0
C187 C 0.29372 0.73686 0.13412 0.0
C188 C 0.31142 0.80129 0.14954 0.0
C189 C 0.32291 0.73279 0.19425 0.0
C190 C 0.30507 0.66716 0.1798 0.0
H191 H 0.3124 0.85252 0.13752 0.0
H192 H 0.33312 0.73146 0.21793 0.0
H193 H 0.13936 0.89928 0.18591 0.0
H194 H 0.11216 0.75702 0.2594 0.0
H195 H 0.57895 0.95481 0.17327 0.0
H196 H 0.2781 0.74146 0.11089 0.0
H197 H 0.29871 0.6165 0.1926 0.0
C198 C 0.5977 0.97526 0.4827 0.0
C199 C 0.61394 0.90085 0.48319 0.0
N200 N 0.57173 0.86781 0.4625 0.0
N201 N 0.54504 0.98882 0.46197 0.0
C202 C 0.52906 0.92152 0.45033 0.0
H203 H 0.62093 0.01679 0.49737 0.0
Co204 Co 0.51403 0.0849 0.45429 0.0
C205 C 0.40824 0.04066 0.39797 0.0
O206 O 0.41669 0.09058 0.37693 0.0
N207 N 0.49087 0.18531 0.44818 0.0
C208 C 0.47878 0.29552 0.42585 0.0
C209 C 0.45086 0.22372 0.42787 0.0
C210 C 0.54099 0.23521 0.45859 0.0
N211 N 0.53535 0.30195 0.44529 0.0
O212 O 0.4335 0.06934 0.48183 0.0
H213 H 0.40948 0.19982 0.41341 0.0
H214 H 0.58608 0.22043 0.47333 0.0
O215 O 0.4443 0.04633 0.42264 0.0
C216 C 0.4251 0.09737 0.50758 0.0
O217 O 0.43229 0.16955 0.51087 0.0
N218 N 0.59527 0.09654 0.42904 0.0
C219 C 0.72537 0.06047 0.40035 0.0
C220 C 0.65986 0.07096 0.38396 0.0
C221 C 0.59468 0.0886 0.39897 0.0
C222 C 0.66107 0.10286 0.4439 0.0
C223 C 0.72748 0.08379 0.42999 0.0
H224 H 0.54408 0.08892 0.3867 0.0
H225 H 0.66125 0.11362 0.46755 0.0
H226 H 0.48574 0.91134 0.43416 0.0
H227 H 0.64979 0.87226 0.49884 0.0
H228 H 0.46288 0.33746 0.40976 0.0
H229 H 0.65627 0.0548 0.36077 0.0
H230 H 0.77756 0.0777 0.44317 0.0
C231 C 0.41477 0.3523 0.73972 0.0
C232 C 0.48825 0.36975 0.7426 0.0
N233 N 0.5249 0.33618 0.72033 0.0
N234 N 0.40558 0.3068 0.71613 0.0
C235 C 0.47434 0.29718 0.70475 0.0
H236 H 0.37055 0.37016 0.75438 0.0
Co237 Co 0.31112 0.27961 0.70543 0.0
C238 C 0.34739 0.17063 0.65065 0.0
O239 O 0.28626 0.17614 0.63484 0.0
N240 N 0.21073 0.26108 0.69666 0.0
C241 C 0.09478 0.23349 0.6827 0.0
C242 C 0.1674 0.20686 0.68524 0.0
C243 C 0.163 0.31867 0.70146 0.0
N244 N 0.09355 0.30434 0.6925 0.0
O245 O 0.31875 0.19916 0.73345 0.0
H246 H 0.18707 0.1523 0.67878 0.0
H247 H 0.17841 0.37064 0.71165 0.0
O248 O 0.35397 0.20751 0.67508 0.0
C249 C 0.29035 0.1978 0.75931 0.0
O250 O 0.22089 0.21878 0.76259 0.0
N251 N 0.3079 0.3604 0.67977 0.0
C252 C 0.34363 0.48908 0.65021 0.0
C253 C 0.33316 0.42285 0.63426 0.0
C254 C 0.31558 0.3584 0.64968 0.0
C255 C 0.30444 0.4268 0.69444 0.0
C256 C 0.32209 0.49247 0.67999 0.0
H257 H 0.31442 0.30717 0.63764 0.0
H258 H 0.29426 0.42806 0.71812 0.0
H259 H 0.48755 0.26124 0.68615 0.0
H260 H 0.51368 0.40108 0.76046 0.0
H261 H 0.04749 0.20402 0.67369 0.0
H262 H 0.3486 0.4183 0.61102 0.0
H263 H 0.32846 0.54312 0.69279 0.0
C264 C 0.7117 0.30717 0.73965 0.0
C265 C 0.63815 0.28999 0.74256 0.0
N266 N 0.60158 0.32392 0.72036 0.0
N267 N 0.72098 0.35276 0.71608 0.0
C268 C 0.65222 0.36272 0.70475 0.0
H269 H 0.7559 0.28909 0.75427 0.0
Co270 Co 0.81547 0.37988 0.7054 0.0
C271 C 0.77921 0.48891 0.65062 0.0
O272 O 0.84027 0.48337 0.63477 0.0
N273 N 0.91588 0.39836 0.69665 0.0
C274 C 0.03183 0.42588 0.68266 0.0
C275 C 0.95922 0.45254 0.68521 0.0
C276 C 0.96359 0.34077 0.70146 0.0
N277 N 0.03303 0.35504 0.69248 0.0
O278 O 0.80786 0.46032 0.73343 0.0
H279 H 0.93956 0.50708 0.67873 0.0
H280 H 0.94817 0.28882 0.71167 0.0
O281 O 0.77271 0.45203 0.67505 0.0
C282 C 0.83614 0.46157 0.75931 0.0
O283 O 0.90555 0.44047 0.7626 0.0
N284 N 0.81869 0.29911 0.67974 0.0
C285 C 0.78299 0.17045 0.65016 0.0
C286 C 0.79343 0.23669 0.63422 0.0
C287 C 0.811 0.30113 0.64965 0.0
C288 C 0.82215 0.2327 0.6944 0.0
C289 C 0.80451 0.16703 0.67994 0.0
H290 H 0.81215 0.35236 0.63762 0.0
H291 H 0.83232 0.23143 0.71808 0.0
H292 H 0.63908 0.39878 0.68618 0.0
H293 H 0.61266 0.25862 0.76039 0.0
H294 H 0.07912 0.45532 0.67365 0.0
H295 H 0.77798 0.24124 0.61098 0.0
H296 H 0.79814 0.11637 0.69275 0.0
C297 C 0.91508 0.85336 0.23904 0.0
C298 C 0.98869 0.87055 0.24171 0.0
N299 N 0.02493 0.83584 0.21961 0.0
N300 N 0.90545 0.80704 0.21572 0.0
C301 C 0.97406 0.79658 0.20432 0.0
H302 H 0.87111 0.87191 0.25368 0.0
Co303 Co 0.81088 0.77967 0.20531 0.0
C304 C 0.84715 0.67059 0.15046 0.0
O305 O 0.78636 0.67619 0.13444 0.0
N306 N 0.71043 0.76095 0.19681 0.0
C307 C 0.59457 0.734 0.18256 0.0
C308 C 0.66716 0.70722 0.185 0.0
C309 C 0.66273 0.81835 0.20195 0.0
N310 N 0.59334 0.80444 0.19282 0.0
O311 O 0.81911 0.6993 0.23335 0.0
H312 H 0.68689 0.65304 0.17809 0.0
H313 H 0.67819 0.87 0.21239 0.0
O314 O 0.85331 0.70748 0.17491 0.0
C315 C 0.79088 0.69743 0.25924 0.0
O316 O 0.72103 0.717 0.26255 0.0
N317 N 0.80708 0.8604 0.17959 0.0
C318 C 0.84303 0.98898 0.15002 0.0
C319 C 0.83262 0.92274 0.13408 0.0
C320 C 0.81494 0.85833 0.14951 0.0
C321 C 0.80345 0.92685 0.19422 0.0
C322 C 0.82128 0.99248 0.17976 0.0
H323 H 0.81395 0.80708 0.1375 0.0
H324 H 0.79324 0.92819 0.2179 0.0
H325 H 0.98694 0.75982 0.18595 0.0
H326 H 0.01446 0.90238 0.25934 0.0
H327 H 0.54736 0.70501 0.17323 0.0
H328 H 0.84824 0.91813 0.11086 0.0
H329 H 0.82765 0.04315 0.19256 0.0
C330 C 0.913 0.30881 0.8002 0.0
C331 C 0.9867 0.29487 0.79522 0.0
N332 N 0.02479 0.32449 0.81794 0.0
N333 N 0.90524 0.34854 0.8255 0.0
C334 C 0.97489 0.35747 0.83602 0.0
H335 H 0.86755 0.29277 0.78587 0.0
Co336 Co 0.81153 0.37296 0.83822 0.0
C337 C 0.85447 0.47917 0.893 0.0
O338 O 0.80166 0.46803 0.91265 0.0
N339 N 0.71271 0.39052 0.84927 0.0
C340 C 0.59894 0.42519 0.86359 0.0
C341 C 0.67217 0.44812 0.85985 0.0
C342 C 0.66319 0.33416 0.8465 0.0
N343 N 0.5948 0.35308 0.85558 0.0
O344 O 0.81419 0.45542 0.81108 0.0
H345 H 0.69403 0.50291 0.86441 0.0
H346 H 0.67612 0.28036 0.8372 0.0
O347 O 0.85382 0.44435 0.868 0.0
C348 C 0.7855 0.45673 0.78528 0.0
O349 O 0.71921 0.42808 0.78154 0.0
N350 N 0.81343 0.29008 0.863 0.0
C351 C 0.84894 0.15674 0.89013 0.0
C352 C 0.84371 0.22232 0.90697 0.0
C353 C 0.82633 0.28894 0.89282 0.0
C354 C 0.80829 0.22528 0.84732 0.0
C355 C 0.82594 0.15758 0.86047 0.0
H356 H 0.82899 0.33908 0.90552 0.0
H357 H 0.79564 0.22683 0.82381 0.0
H358 H 0.989 0.38902 0.85572 0.0
H359 H 0.01096 0.2679 0.77596 0.0
H360 H 0.55293 0.45836 0.87174 0.0
H361 H 0.86182 0.22402 0.92997 0.0
H362 H 0.82935 0.10796 0.84684 0.0
C363 C 0.71377 0.84959 0.29971 0.0
C364 C 0.64015 0.86363 0.29456 0.0
N365 N 0.60174 0.83478 0.31736 0.0
N366 N 0.72118 0.81054 0.3252 0.0
C367 C 0.65138 0.80217 0.33566 0.0
H368 H 0.75942 0.86519 0.2854 0.0
Co369 Co 0.81484 0.78636 0.33815 0.0
C370 C 0.77224 0.6801 0.39285 0.0
O371 O 0.82561 0.69122 0.41225 0.0
N372 N 0.91367 0.76908 0.34941 0.0
C373 C 0.02762 0.73413 0.36343 0.0
C374 C 0.9544 0.7112 0.35963 0.0
C375 C 0.96311 0.82563 0.34692 0.0
N376 N 0.03163 0.80651 0.3558 0.0
O377 O 0.81282 0.70392 0.31101 0.0
H378 H 0.93272 0.65615 0.36381 0.0
H379 H 0.95008 0.87965 0.33785 0.0
O380 O 0.77222 0.71487 0.36784 0.0
C381 C 0.84144 0.70336 0.28519 0.0
O382 O 0.907 0.73362 0.28144 0.0
N383 N 0.81238 0.86919 0.3629 0.0
C384 C 0.77689 1.00253 0.39002 0.0
C385 C 0.78212 0.93695 0.40686 0.0
C386 C 0.7995 0.87034 0.39272 0.0
C387 C 0.81739 0.93397 0.3472 0.0
C388 C 0.79977 1.00167 0.36034 0.0
H389 H 0.79692 0.8202 0.40543 0.0
H390 H 0.83007 0.93239 0.3237 0.0
H391 H 0.63702 0.77133 0.35552 0.0
H392 H 0.61618 0.89025 0.27517 0.0
H393 H 0.07375 0.70068 0.37128 0.0
H394 H 0.76407 0.93527 0.42987 0.0
H395 H 0.79634 0.05129 0.34672 0.0
C396 C 0.55456 0.48148 0.54674 0.0
C397 C 0.53669 0.40882 0.54152 0.0
N398 N 0.56086 0.36864 0.56475 0.0
N399 N 0.59114 0.48693 0.57288 0.0
C400 C 0.59436 0.41656 0.58355 0.0
H401 H 0.54155 0.52805 0.5324 0.0
Co402 Co 0.61356 0.58089 0.58694 0.0
C403 C 0.721 0.54364 0.6412 0.0
O404 O 0.71163 0.60442 0.65697 0.0
N405 N 0.628 0.68051 0.59914 0.0
C406 C 0.66114 0.79669 0.61079 0.0
C407 C 0.68604 0.72384 0.60692 0.0
C408 C 0.5693 0.72847 0.59806 0.0
N409 N 0.58737 0.79842 0.60549 0.0
O410 O 0.69478 0.58306 0.55945 0.0
H411 H 0.74284 0.70449 0.60883 0.0
H412 H 0.51448 0.71363 0.59048 0.0
O413 O 0.68583 0.53539 0.61647 0.0
C414 C 0.68651 0.61037 0.53359 0.0
O415 O 0.64041 0.66645 0.53023 0.0
N416 N 0.53188 0.57551 0.6116 0.0
C417 C 0.40013 0.54055 0.63925 0.0
C418 C 0.46563 0.54793 0.65598 0.0
C419 C 0.53155 0.56517 0.64156 0.0
C420 C 0.467 0.5787 0.59592 0.0
C421 C 0.39996 0.56139 0.60937 0.0
H422 H 0.58189 0.56517 0.65424 0.0
H423 H 0.46806 0.59061 0.57235 0.0
H424 H 0.62113 0.4007 0.60418 0.0
H425 H 0.50956 0.3865 0.52199 0.0
H426 H 0.69462 0.84437 0.61669 0.0
H427 H 0.46794 0.53183 0.67921 0.0
H428 H 0.35021 0.55666 0.59591 0.0
C429 C 0.07212 0.67811 0.04672 0.0
C430 C 0.08995 0.75079 0.04151 0.0
N431 N 0.06565 0.79093 0.06473 0.0
N432 N 0.03545 0.67262 0.07283 0.0
C433 C 0.03212 0.74298 0.08351 0.0
H434 H 0.08524 0.63155 0.03238 0.0
Co435 Co 0.01308 0.57868 0.0869 0.0
C436 C 0.90557 0.61599 0.14114 0.0
O437 O 0.91526 0.55546 0.15703 0.0
N438 N 0.99864 0.4791 0.09913 0.0
C439 C 0.96536 0.36299 0.11081 0.0
C440 C 0.94055 0.43585 0.10692 0.0
C441 C 0.0573 0.4311 0.09807 0.0
N442 N 0.03914 0.36118 0.10552 0.0
O443 O 0.93195 0.57637 0.05937 0.0
H444 H 0.88377 0.45527 0.10882 0.0
H445 H 0.11213 0.44587 0.0905 0.0
O446 O 0.94066 0.6241 0.11638 0.0
C447 C 0.94041 0.54914 0.03351 0.0
O448 O 0.98684 0.49333 0.03015 0.0
N449 N 0.09472 0.58418 0.1116 0.0
C450 C 0.22658 0.61931 0.13916 0.0
C451 C 0.16106 0.61228 0.15591 0.0
C452 C 0.09509 0.59496 0.14153 0.0
C453 C 0.15958 0.5808 0.09591 0.0
C454 C 0.22666 0.5982 0.10931 0.0
H455 H 0.04476 0.5953 0.15422 0.0
H456 H 0.15847 0.56868 0.07236 0.0
H457 H 1.00526 0.75881 0.10412 0.0
H458 H 0.11714 0.77315 0.022 0.0
H459 H 0.93183 0.31535 0.11671 0.0
H460 H 0.15882 0.62867 0.17911 0.0
H461 H 0.2764 0.60275 0.09584 0.0
C462 C 0.52888 0.68442 0.48256 0.0
C463 C 0.51295 0.7589 0.48309 0.0
N464 N 0.55565 0.79183 0.46254 0.0
N465 N 0.58173 0.67073 0.46191 0.0
C466 C 0.59815 0.73802 0.45036 0.0
H467 H 0.50531 0.64293 0.49715 0.0
Co468 Co 0.61259 0.57459 0.45426 0.0
C469 C 0.71854 0.61866 0.39796 0.0
O470 O 0.71009 0.56875 0.37692 0.0
N471 N 0.63558 0.47412 0.44816 0.0
C472 C 0.64729 0.36391 0.42578 0.0
C473 C 0.67542 0.43563 0.42782 0.0
C474 C 0.58537 0.42435 0.4586 0.0
N475 N 0.5907 0.35767 0.44523 0.0
O476 O 0.69311 0.59003 0.48181 0.0
H477 H 0.71683 0.45944 0.41334 0.0
H478 H 0.54042 0.43919 0.47339 0.0
O479 O 0.6824 0.61302 0.42262 0.0
C480 C 0.7014 0.56205 0.50758 0.0
O481 O 0.69422 0.48987 0.51087 0.0
N482 N 0.53137 0.56305 0.42898 0.0
C483 C 0.40129 0.59899 0.40026 0.0
C484 C 0.46685 0.58864 0.38389 0.0
C485 C 0.53201 0.57108 0.39891 0.0
C486 C 0.46554 0.55666 0.44383 0.0
C487 C 0.39914 0.57566 0.4299 0.0
H488 H 0.58263 0.57086 0.38666 0.0
H489 H 0.46533 0.54587 0.46747 0.0
H490 H 0.64167 0.7481 0.43426 0.0
H491 H 0.47699 0.78758 0.49867 0.0
H492 H 0.66306 0.32192 0.40969 0.0
H493 H 0.47046 0.60485 0.3607 0.0
H494 H 0.34902 0.58167 0.44307 0.0
C495 C 0.09812 0.47506 0.98238 0.0
C496 C 0.11388 0.40054 0.98288 0.0
N497 N 0.07086 0.36771 0.96241 0.0
N498 N 0.04505 0.48887 0.96182 0.0
C499 C 0.02834 0.42162 0.95031 0.0
H500 H 0.12193 0.51649 0.99693 0.0
Co501 Co 0.01414 0.58502 0.9542 0.0
C502 C 0.90834 0.54054 0.89788 0.0
O503 O 0.91702 0.58987 0.87663 0.0
N504 N 0.99099 0.68543 0.94811 0.0
C505 C 0.97956 0.79537 0.92551 0.0
C506 C 0.9515 0.72364 0.92758 0.0
C507 C 0.04092 0.73537 0.95863 0.0
N508 N 0.03573 0.80191 0.94513 0.0
O509 O 0.93357 0.56944 0.98173 0.0
H510 H 0.91051 0.6996 0.91298 0.0
H511 H 0.08572 0.72068 0.97352 0.0
O512 O 0.94446 0.54668 0.92252 0.0
C513 C 0.92528 0.59739 1.0075 0.0
O514 O 0.93226 0.66959 1.0108 0.0
N515 N 0.09542 0.59672 0.92896 0.0
C516 C 0.22564 0.5608 0.90033 0.0
C517 C 0.16012 0.57101 0.88392 0.0
C518 C 0.09489 0.58858 0.8989 0.0
C519 C 0.16119 0.60326 0.94383 0.0
C520 C 0.22766 0.58424 0.92996 0.0
H521 H 0.04431 0.5887 0.88662 0.0
H522 H 0.1613 0.61416 0.96747 0.0
H523 H 0.9846 0.41162 0.9343 0.0
H524 H 0.14997 0.37179 0.99839 0.0
H525 H 0.96411 0.83713 0.90928 0.0
H526 H 0.15661 0.55472 0.86074 0.0
H527 H 0.27774 0.57833 0.94315 0.0
loop_
_geom_bond_atom_site_label_1
_geom_bond_atom_site_label_2
_geom_bond_distance
_geom_bond_site_symmetry_2
_ccdc_geom_bond_type
C0 C1 1.351 . S
C0 N3 1.368 . S
C0 H5 0.931 . S
C1 C0 1.351 . S
C1 N2 1.373 . S
C1 H29 0.930 . S
N2 C1 1.373 . S
N2 C4 1.340 . S
N3 C0 1.368 . S
N3 C4 1.321 . S
N3 Co6 2.135 1_565 S
C4 N2 1.340 . S
C4 N3 1.321 . S
C4 H28 0.930 . S
H5 C0 0.931 . S
Co6 N3 2.135 1_545 S
Co6 N9 2.121 . S
Co6 O14 2.055 . S
Co6 O17 2.039 . S
Co6 N20 2.140 . S
C7 O8 1.227 1_545 S
C7 O17 1.265 . S
O8 C7 1.227 1_565 S
N9 Co6 2.121 . S
N9 C11 1.375 . S
N9 C12 1.313 . S
C10 C11 1.338 . S
C10 N13 1.377 . S
C10 H30 0.930 . S
C11 N9 1.375 . S
C11 C10 1.338 . S
C11 H15 0.931 . S
C12 N9 1.313 . S
C12 N13 1.344 . S
C12 H16 0.930 . S
N13 C10 1.377 . S
N13 C12 1.344 . S
O14 Co6 2.055 . S
O14 C18 1.253 . S
H15 C11 0.931 . S
H16 C12 0.930 . S
O17 Co6 2.039 . S
O17 C7 1.265 . S
C18 O14 1.253 . S
C18 O19 1.227 . S
O19 C18 1.227 . S
N20 Co6 2.140 . S
N20 C23 1.346 1_445 S
N20 C24 1.345 1_455 S
C21 C22 1.387 1_545 S
C21 C25 1.391 . S
C22 C21 1.387 1_565 S
C22 C23 1.369 . S
C22 H31 0.929 . S
C23 N20 1.346 1_665 S
C23 C22 1.369 . S
C23 H26 0.928 1_655 S
C24 N20 1.345 1_655 S
C24 C25 1.371 . S
C24 H27 0.931 . S
C25 C21 1.391 . S
C25 C24 1.371 . S
C25 H32 0.930 . S
H26 C23 0.928 1_455 S
H27 C24 0.931 . S
H28 C4 0.930 . S
H29 C1 0.930 . S
H30 C10 0.930 . S
H31 C22 0.929 . S
H32 C25 0.930 . S
C33 C34 1.351 . S
C33 N36 1.368 . S
C33 H38 0.931 . S
C34 C33 1.351 . S
C34 N35 1.373 . S
C34 H62 0.930 . S
N35 C34 1.373 . S
N35 C37 1.340 . S
N36 C33 1.368 . S
N36 C37 1.321 . S
N36 Co39 2.135 . S
C37 N35 1.340 . S
C37 N36 1.321 . S
C37 H61 0.930 . S
H38 C33 0.931 . S
Co39 N36 2.135 . S
Co39 N42 2.121 . S
Co39 O47 2.055 . S
Co39 O50 2.039 . S
Co39 N53 2.140 . S
C40 O41 1.227 . S
C40 O50 1.265 . S
O41 C40 1.227 . S
N42 Co39 2.121 . S
N42 C44 1.375 . S
N42 C45 1.313 . S
C43 C44 1.338 . S
C43 N46 1.377 . S
C43 H63 0.930 . S
C44 N42 1.375 . S
C44 C43 1.338 . S
C44 H48 0.931 . S
C45 N42 1.313 . S
C45 N46 1.344 . S
C45 H49 0.930 . S
N46 C43 1.377 . S
N46 C45 1.344 . S
O47 Co39 2.055 . S
O47 C51 1.253 . S
H48 C44 0.931 . S
H49 C45 0.930 . S
O50 Co39 2.039 . S
O50 C40 1.265 . S
C51 O47 1.253 . S
C51 O52 1.227 . S
O52 C51 1.227 . S
N53 Co39 2.140 . S
N53 C56 1.346 . S
N53 C57 1.345 . S
C54 C55 1.387 . S
C54 C58 1.391 . S
C55 C54 1.387 . S
C55 C56 1.369 . S
C55 H64 0.929 . S
C56 N53 1.346 . S
C56 C55 1.369 . S
C56 H59 0.928 . S
C57 N53 1.345 . S
C57 C58 1.371 . S
C57 H60 0.931 . S
C58 C54 1.391 . S
C58 C57 1.371 . S
C58 H65 0.930 . S
H59 C56 0.928 . S
H60 C57 0.931 . S
H61 C37 0.930 . S
H62 C34 0.930 . S
H63 C43 0.930 . S
H64 C55 0.929 . S
H65 C58 0.930 . S
C66 C67 1.351 . S
C66 N69 1.368 . S
C66 H71 0.931 . S
C67 C66 1.351 . S
C67 N68 1.373 . S
C67 H95 0.930 . S
N68 C67 1.373 . S
N68 C70 1.340 . S
N69 C66 1.368 . S
N69 C70 1.321 . S
N69 Co72 2.135 . S
C70 N68 1.340 . S
C70 N69 1.321 . S
C70 H94 0.930 . S
H71 C66 0.931 . S
Co72 N69 2.135 . S
Co72 N75 2.121 1_545 S
Co72 O80 2.055 . S
Co72 O83 2.039 . S
Co72 N86 2.140 . S
C73 O74 1.227 . S
C73 O83 1.265 . S
O74 C73 1.227 . S
N75 Co72 2.121 1_565 S
N75 C77 1.375 . S
N75 C78 1.313 . S
C76 C77 1.338 . S
C76 N79 1.377 . S
C76 H96 0.930 . S
C77 N75 1.375 . S
C77 C76 1.338 . S
C77 H81 0.931 . S
C78 N75 1.313 . S
C78 N79 1.344 . S
C78 H82 0.930 . S
N79 C76 1.377 . S
N79 C78 1.344 . S
O80 Co72 2.055 . S
O80 C84 1.253 . S
H81 C77 0.931 . S
H82 C78 0.930 . S
O83 Co72 2.039 . S
O83 C73 1.265 . S
C84 O80 1.253 . S
C84 O85 1.227 . S
O85 C84 1.227 . S
N86 Co72 2.140 . S
N86 C89 1.346 . S
N86 C90 1.345 . S
C87 C88 1.387 . S
C87 C91 1.391 . S
C88 C87 1.387 . S
C88 C89 1.369 . S
C88 H97 0.929 . S
C89 N86 1.346 . S
C89 C88 1.369 . S
C89 H92 0.928 . S
C90 N86 1.345 . S
C90 C91 1.371 . S
C90 H93 0.931 . S
C91 C87 1.391 . S
C91 C90 1.371 . S
C91 H98 0.930 . S
H92 C89 0.928 . S
H93 C90 0.931 . S
H94 C70 0.930 . S
H95 C67 0.930 . S
H96 C76 0.930 . S
H97 C88 0.929 . S
H98 C91 0.930 . S
C99 C100 1.351 . S
C99 N102 1.368 . S
C99 H104 0.931 . S
C100 C99 1.351 . S
C100 N101 1.373 . S
C100 H128 0.930 . S
N101 C100 1.373 . S
N101 C103 1.340 . S
N102 C99 1.368 . S
N102 C103 1.321 . S
N102 Co105 2.135 . S
C103 N101 1.340 . S
C103 N102 1.321 . S
C103 H127 0.930 . S
H104 C99 0.931 . S
Co105 N102 2.135 . S
Co105 N108 2.121 . S
Co105 O113 2.055 . S
Co105 O116 2.039 . S
Co105 N119 2.140 . S
C106 O107 1.227 . S
C106 O116 1.265 . S
O107 C106 1.227 . S
N108 Co105 2.121 . S
N108 C110 1.375 . S
N108 C111 1.313 . S
C109 C110 1.338 . S
C109 N112 1.377 . S
C109 H129 0.930 . S
C110 N108 1.375 . S
C110 C109 1.338 . S
C110 H114 0.931 . S
C111 N108 1.313 . S
C111 N112 1.344 . S
C111 H115 0.930 . S
N112 C109 1.377 . S
N112 C111 1.344 . S
O113 Co105 2.055 . S
O113 C117 1.253 . S
H114 C110 0.931 . S
H115 C111 0.930 . S
O116 Co105 2.039 . S
O116 C106 1.265 . S
C117 O113 1.253 . S
C117 O118 1.227 . S
O118 C117 1.227 . S
N119 Co105 2.140 . S
N119 C122 1.346 . S
N119 C123 1.345 . S
C120 C121 1.387 . S
C120 C124 1.391 . S
C121 C120 1.387 . S
C121 C122 1.369 . S
C121 H130 0.929 . S
C122 N119 1.346 . S
C122 C121 1.369 . S
C122 H125 0.928 . S
C123 N119 1.345 . S
C123 C124 1.371 . S
C123 H126 0.931 . S
C124 C120 1.391 . S
C124 C123 1.371 . S
C124 H131 0.930 . S
H125 C122 0.928 . S
H126 C123 0.931 . S
H127 C103 0.930 . S
H128 C100 0.930 . S
H129 C109 0.930 . S
H130 C121 0.929 . S
H131 C124 0.930 . S
C132 C133 1.351 . S
C132 N135 1.368 . S
C132 H137 0.931 . S
C133 C132 1.351 . S
C133 N134 1.373 . S
C133 H161 0.930 . S
N134 C133 1.373 . S
N134 C136 1.340 . S
N135 C132 1.368 . S
N135 C136 1.321 . S
N135 Co138 2.135 . S
C136 N134 1.340 . S
C136 N135 1.321 . S
C136 H160 0.930 . S
H137 C132 0.931 . S
Co138 N135 2.135 . S
Co138 N141 2.121 1_545 S
Co138 O146 2.055 . S
Co138 O149 2.039 . S
Co138 N152 2.140 . S
C139 O140 1.227 . S
C139 O149 1.265 . S
O140 C139 1.227 . S
N141 Co138 2.121 1_565 S
N141 C143 1.375 . S
N141 C144 1.313 . S
C142 C143 1.338 . S
C142 N145 1.377 . S
C142 H162 0.930 . S
C143 N141 1.375 . S
C143 C142 1.338 . S
C143 H147 0.931 . S
C144 N141 1.313 . S
C144 N145 1.344 . S
C144 H148 0.930 . S
N145 C142 1.377 . S
N145 C144 1.344 . S
O146 Co138 2.055 . S
O146 C150 1.253 . S
H147 C143 0.931 . S
H148 C144 0.930 . S
O149 Co138 2.039 . S
O149 C139 1.265 . S
C150 O146 1.253 . S
C150 O151 1.227 . S
O151 C150 1.227 . S
N152 Co138 2.140 . S
N152 C155 1.346 1_455 S
N152 C156 1.345 1_455 S
C153 C154 1.387 . S
C153 C157 1.391 . S
C154 C153 1.387 . S
C154 C155 1.369 . S
C154 H163 0.929 . S
C155 N152 1.346 1_655 S
C155 C154 1.369 . S
C155 H158 0.928 1_655 S
C156 N152 1.345 1_655 S
C156 C157 1.371 . S
C156 H159 0.931 . S
C157 C153 1.391 . S
C157 C156 1.371 . S
C157 H164 0.930 . S
H158 C155 0.928 1_455 S
H159 C156 0.931 . S
H160 C136 0.930 . S
H161 C133 0.930 . S
H162 C142 0.930 . S
H163 C154 0.929 . S
H164 C157 0.930 . S
C165 C166 1.351 . S
C165 N168 1.368 . S
C165 H170 0.931 . S
C166 C165 1.351 . S
C166 N167 1.373 . S
C166 H194 0.930 . S
N167 C166 1.373 . S
N167 C169 1.340 . S
N168 C165 1.368 . S
N168 C169 1.321 . S
N168 Co171 2.135 . S
C169 N167 1.340 . S
C169 N168 1.321 . S
C169 H193 0.930 . S
H170 C165 0.931 . S
Co171 N168 2.135 . S
Co171 N174 2.121 . S
Co171 O179 2.055 . S
Co171 O182 2.039 . S
Co171 N185 2.140 . S
C172 O173 1.227 . S
C172 O182 1.265 . S
O173 C172 1.227 . S
N174 Co171 2.121 . S
N174 C176 1.375 . S
N174 C177 1.313 . S
C175 C176 1.338 . S
C175 N178 1.377 . S
C175 H195 0.930 . S
C176 N174 1.375 . S
C176 C175 1.338 . S
C176 H180 0.931 . S
C177 N174 1.313 . S
C177 N178 1.344 . S
C177 H181 0.930 . S
N178 C175 1.377 . S
N178 C177 1.344 . S
O179 Co171 2.055 . S
O179 C183 1.253 . S
H180 C176 0.931 . S
H181 C177 0.930 . S
O182 Co171 2.039 . S
O182 C172 1.265 . S
C183 O179 1.253 . S
C183 O184 1.227 . S
O184 C183 1.227 . S
N185 Co171 2.140 . S
N185 C188 1.346 . S
N185 C189 1.345 . S
C186 C187 1.387 . S
C186 C190 1.391 . S
C187 C186 1.387 . S
C187 C188 1.369 . S
C187 H196 0.929 . S
C188 N185 1.346 . S
C188 C187 1.369 . S
C188 H191 0.928 . S
C189 N185 1.345 . S
C189 C190 1.371 . S
C189 H192 0.931 . S
C190 C186 1.391 . S
C190 C189 1.371 . S
C190 H197 0.930 . S
H191 C188 0.928 . S
H192 C189 0.931 . S
H193 C169 0.930 . S
H194 C166 0.930 . S
H195 C175 0.930 . S
H196 C187 0.929 . S
H197 C190 0.930 . S
C198 C199 1.351 . S
C198 N201 1.368 . S
C198 H203 0.931 . S
C199 C198 1.351 . S
C199 N200 1.373 . S
C199 H227 0.930 . S
N200 C199 1.373 . S
N200 C202 1.340 . S
N201 C198 1.368 . S
N201 C202 1.321 . S
N201 Co204 2.135 1_565 S
C202 N200 1.340 . S
C202 N201 1.321 . S
C202 H226 0.930 . S
H203 C198 0.931 . S
Co204 N201 2.135 1_545 S
Co204 N207 2.121 . S
Co204 O212 2.055 . S
Co204 O215 2.039 . S
Co204 N218 2.140 . S
C205 O206 1.227 1_545 S
C205 O215 1.265 . S
O206 C205 1.227 1_565 S
N207 Co204 2.121 . S
N207 C209 1.375 . S
N207 C210 1.313 . S
C208 C209 1.338 . S
C208 N211 1.377 . S
C208 H228 0.930 . S
C209 N207 1.375 . S
C209 C208 1.338 . S
C209 H213 0.931 . S
C210 N207 1.313 . S
C210 N211 1.344 . S
C210 H214 0.930 . S
N211 C208 1.377 . S
N211 C210 1.344 . S
O212 Co204 2.055 . S
O212 C216 1.253 . S
H213 C209 0.931 . S
H214 C210 0.930 . S
O215 Co204 2.039 . S
O215 C205 1.265 . S
C216 O212 1.253 . S
C216 O217 1.227 . S
O217 C216 1.227 . S
N218 Co204 2.140 . S
N218 C221 1.346 1_545 S
N218 C222 1.345 . S
C219 C220 1.387 1_545 S
C219 C223 1.391 . S
C220 C219 1.387 1_565 S
C220 C221 1.369 . S
C220 H229 0.929 . S
C221 N218 1.346 1_565 S
C221 C220 1.369 . S
C221 H224 0.928 . S
C222 N218 1.345 . S
C222 C223 1.371 . S
C222 H225 0.931 . S
C223 C219 1.391 . S
C223 C222 1.371 . S
C223 H230 0.930 . S
H224 C221 0.928 . S
H225 C222 0.931 . S
H226 C202 0.930 . S
H227 C199 0.930 . S
H228 C208 0.930 . S
H229 C220 0.929 . S
H230 C223 0.930 . S
C231 C232 1.351 . S
C231 N234 1.368 . S
C231 H236 0.931 . S
C232 C231 1.351 . S
C232 N233 1.373 . S
C232 H260 0.930 . S
N233 C232 1.373 . S
N233 C235 1.340 . S
N234 C231 1.368 . S
N234 C235 1.321 . S
N234 Co237 2.135 . S
C235 N233 1.340 . S
C235 N234 1.321 . S
C235 H259 0.930 . S
H236 C231 0.931 . S
Co237 N234 2.135 . S
Co237 N240 2.121 . S
Co237 O245 2.055 . S
Co237 O248 2.039 . S
Co237 N251 2.140 . S
C238 O239 1.227 . S
C238 O248 1.265 . S
O239 C238 1.227 . S
N240 Co237 2.121 . S
N240 C242 1.375 . S
N240 C243 1.313 . S
C241 C242 1.338 . S
C241 N244 1.377 . S
C241 H261 0.930 . S
C242 N240 1.375 . S
C242 C241 1.338 . S
C242 H246 0.931 . S
C243 N240 1.313 . S
C243 N244 1.344 . S
C243 H247 0.930 . S
N244 C241 1.377 . S
N244 C243 1.344 . S
O245 Co237 2.055 . S
O245 C249 1.253 . S
H246 C242 0.931 . S
H247 C243 0.930 . S
O248 Co237 2.039 . S
O248 C238 1.265 . S
C249 O245 1.253 . S
C249 O250 1.227 . S
O250 C249 1.227 . S
N251 Co237 2.140 . S
N251 C254 1.346 . S
N251 C255 1.345 . S
C252 C253 1.387 . S
C252 C256 1.391 . S
C253 C252 1.387 . S
C253 C254 1.369 . S
C253 H262 0.929 . S
C254 N251 1.346 . S
C254 C253 1.369 . S
C254 H257 0.928 . S
C255 N251 1.345 . S
C255 C256 1.371 . S
C255 H258 0.931 . S
C256 C252 1.391 . S
C256 C255 1.371 . S
C256 H263 0.930 . S
H257 C254 0.928 . S
H258 C255 0.931 . S
H259 C235 0.930 . S
H260 C232 0.930 . S
H261 C241 0.930 . S
H262 C253 0.929 . S
H263 C256 0.930 . S
C264 C265 1.351 . S
C264 N267 1.368 . S
C264 H269 0.931 . S
C265 C264 1.351 . S
C265 N266 1.373 . S
C265 H293 0.930 . S
N266 C265 1.373 . S
N266 C268 1.340 . S
N267 C264 1.368 . S
N267 C268 1.321 . S
N267 Co270 2.135 . S
C268 N266 1.340 . S
C268 N267 1.321 . S
C268 H292 0.930 . S
H269 C264 0.931 . S
Co270 N267 2.135 . S
Co270 N273 2.121 . S
Co270 O278 2.055 . S
Co270 O281 2.039 . S
Co270 N284 2.140 . S
C271 O272 1.227 . S
C271 O281 1.265 . S
O272 C271 1.227 . S
N273 Co270 2.121 . S
N273 C275 1.375 . S
N273 C276 1.313 . S
C274 C275 1.338 . S
C274 N277 1.377 1_655 S
C274 H294 0.930 1_655 S
C275 N273 1.375 . S
C275 C274 1.338 . S
C275 H279 0.931 . S
C276 N273 1.313 . S
C276 N277 1.344 1_655 S
C276 H280 0.930 . S
N277 C274 1.377 1_455 S
N277 C276 1.344 1_455 S
O278 Co270 2.055 . S
O278 C282 1.253 . S
H279 C275 0.931 . S
H280 C276 0.930 . S
O281 Co270 2.039 . S
O281 C271 1.265 . S
C282 O278 1.253 . S
C282 O283 1.227 . S
O283 C282 1.227 . S
N284 Co270 2.140 . S
N284 C287 1.346 . S
N284 C288 1.345 . S
C285 C286 1.387 . S
C285 C289 1.391 . S
C286 C285 1.387 . S
C286 C287 1.369 . S
C286 H295 0.929 . S
C287 N284 1.346 . S
C287 C286 1.369 . S
C287 H290 0.928 . S
C288 N284 1.345 . S
C288 C289 1.371 . S
C288 H291 0.931 . S
C289 C285 1.391 . S
C289 C288 1.371 . S
C289 H296 0.930 . S
H290 C287 0.928 . S
H291 C288 0.931 . S
H292 C268 0.930 . S
H293 C265 0.930 . S
H294 C274 0.930 1_455 S
H295 C286 0.929 . S
H296 C289 0.930 . S
C297 C298 1.351 1_655 S
C297 N300 1.368 . S
C297 H302 0.931 . S
C298 C297 1.351 1_455 S
C298 N299 1.373 . S
C298 H326 0.930 . S
N299 C298 1.373 . S
N299 C301 1.340 1_455 S
N300 C297 1.368 . S
N300 C301 1.321 . S
N300 Co303 2.135 . S
C301 N299 1.340 1_655 S
C301 N300 1.321 . S
C301 H325 0.930 . S
H302 C297 0.931 . S
Co303 N300 2.135 . S
Co303 N306 2.121 . S
Co303 O311 2.055 . S
Co303 O314 2.039 . S
Co303 N317 2.140 . S
C304 O305 1.227 . S
C304 O314 1.265 . S
O305 C304 1.227 . S
N306 Co303 2.121 . S
N306 C308 1.375 . S
N306 C309 1.313 . S
C307 C308 1.338 . S
C307 N310 1.377 . S
C307 H327 0.930 . S
C308 N306 1.375 . S
C308 C307 1.338 . S
C308 H312 0.931 . S
C309 N306 1.313 . S
C309 N310 1.344 . S
C309 H313 0.930 . S
N310 C307 1.377 . S
N310 C309 1.344 . S
O311 Co303 2.055 . S
O311 C315 1.253 . S
H312 C308 0.931 . S
H313 C309 0.930 . S
O314 Co303 2.039 . S
O314 C304 1.265 . S
C315 O311 1.253 . S
C315 O316 1.227 . S
O316 C315 1.227 . S
N317 Co303 2.140 . S
N317 C320 1.346 . S
N317 C321 1.345 . S
C318 C319 1.387 . S
C318 C322 1.391 . S
C319 C318 1.387 . S
C319 C320 1.369 . S
C319 H328 0.929 . S
C320 N317 1.346 . S
C320 C319 1.369 . S
C320 H323 0.928 . S
C321 N317 1.345 . S
C321 C322 1.371 . S
C321 H324 0.931 . S
C322 C318 1.391 . S
C322 C321 1.371 . S
C322 H329 0.930 1_565 S
H323 C320 0.928 . S
H324 C321 0.931 . S
H325 C301 0.930 . S
H326 C298 0.930 . S
H327 C307 0.930 . S
H328 C319 0.929 . S
H329 C322 0.930 1_545 S
C330 C331 1.351 1_655 S
C330 N333 1.368 . S
C330 H335 0.931 . S
C331 C330 1.351 1_455 S
C331 N332 1.373 . S
C331 H359 0.930 . S
N332 C331 1.373 . S
N332 C334 1.340 1_455 S
N333 C330 1.368 . S
N333 C334 1.321 . S
N333 Co336 2.135 . S
C334 N332 1.340 1_655 S
C334 N333 1.321 . S
C334 H358 0.930 . S
H335 C330 0.931 . S
Co336 N333 2.135 . S
Co336 N339 2.121 . S
Co336 O344 2.055 . S
Co336 O347 2.039 . S
Co336 N350 2.140 . S
C337 O338 1.227 . S
C337 O347 1.265 . S
O338 C337 1.227 . S
N339 Co336 2.121 . S
N339 C341 1.375 . S
N339 C342 1.313 . S
C340 C341 1.338 . S
C340 N343 1.377 . S
C340 H360 0.930 . S
C341 N339 1.375 . S
C341 C340 1.338 . S
C341 H345 0.931 . S
C342 N339 1.313 . S
C342 N343 1.344 . S
C342 H346 0.930 . S
N343 C340 1.377 . S
N343 C342 1.344 . S
O344 Co336 2.055 . S
O344 C348 1.253 . S
H345 C341 0.931 . S
H346 C342 0.930 . S
O347 Co336 2.039 . S
O347 C337 1.265 . S
C348 O344 1.253 . S
C348 O349 1.227 . S
O349 C348 1.227 . S
N350 Co336 2.140 . S
N350 C353 1.346 . S
N350 C354 1.345 . S
C351 C352 1.387 . S
C351 C355 1.391 . S
C352 C351 1.387 . S
C352 C353 1.369 . S
C352 H361 0.929 . S
C353 N350 1.346 . S
C353 C352 1.369 . S
C353 H356 0.928 . S
C354 N350 1.345 . S
C354 C355 1.371 . S
C354 H357 0.931 . S
C355 C351 1.391 . S
C355 C354 1.371 . S
C355 H362 0.930 . S
H356 C353 0.928 . S
H357 C354 0.931 . S
H358 C334 0.930 . S
H359 C331 0.930 . S
H360 C340 0.930 . S
H361 C352 0.929 . S
H362 C355 0.930 . S
C363 C364 1.351 . S
C363 N366 1.368 . S
C363 H368 0.931 . S
C364 C363 1.351 . S
C364 N365 1.373 . S
C364 H392 0.930 . S
N365 C364 1.373 . S
N365 C367 1.340 . S
N366 C363 1.368 . S
N366 C367 1.321 . S
N366 Co369 2.135 . S
C367 N365 1.340 . S
C367 N366 1.321 . S
C367 H391 0.930 . S
H368 C363 0.931 . S
Co369 N366 2.135 . S
Co369 N372 2.121 . S
Co369 O377 2.055 . S
Co369 O380 2.039 . S
Co369 N383 2.140 . S
C370 O371 1.227 . S
C370 O380 1.265 . S
O371 C370 1.227 . S
N372 Co369 2.121 . S
N372 C374 1.375 . S
N372 C375 1.313 . S
C373 C374 1.338 . S
C373 N376 1.377 1_655 S
C373 H393 0.930 1_655 S
C374 N372 1.375 . S
C374 C373 1.338 . S
C374 H378 0.931 . S
C375 N372 1.313 . S
C375 N376 1.344 1_655 S
C375 H379 0.930 . S
N376 C373 1.377 1_455 S
N376 C375 1.344 1_455 S
O377 Co369 2.055 . S
O377 C381 1.253 . S
H378 C374 0.931 . S
H379 C375 0.930 . S
O380 Co369 2.039 . S
O380 C370 1.265 . S
C381 O377 1.253 . S
C381 O382 1.227 . S
O382 C381 1.227 . S
N383 Co369 2.140 . S
N383 C386 1.346 . S
N383 C387 1.345 . S
C384 C385 1.387 . S
C384 C388 1.391 . S
C385 C384 1.387 . S
C385 C386 1.369 . S
C385 H394 0.929 . S
C386 N383 1.346 . S
C386 C385 1.369 . S
C386 H389 0.928 . S
C387 N383 1.345 . S
C387 C388 1.371 . S
C387 H390 0.931 . S
C388 C384 1.391 . S
C388 C387 1.371 . S
C388 H395 0.930 1_565 S
H389 C386 0.928 . S
H390 C387 0.931 . S
H391 C367 0.930 . S
H392 C364 0.930 . S
H393 C373 0.930 1_455 S
H394 C385 0.929 . S
H395 C388 0.930 1_545 S
C396 C397 1.351 . S
C396 N399 1.368 . S
C396 H401 0.931 . S
C397 C396 1.351 . S
C397 N398 1.373 . S
C397 H425 0.930 . S
N398 C397 1.373 . S
N398 C400 1.340 . S
N399 C396 1.368 . S
N399 C400 1.321 . S
N399 Co402 2.135 . S
C400 N398 1.340 . S
C400 N399 1.321 . S
C400 H424 0.930 . S
H401 C396 0.931 . S
Co402 N399 2.135 . S
Co402 N405 2.121 . S
Co402 O410 2.055 . S
Co402 O413 2.039 . S
Co402 N416 2.140 . S
C403 O404 1.227 . S
C403 O413 1.265 . S
O404 C403 1.227 . S
N405 Co402 2.121 . S
N405 C407 1.375 . S
N405 C408 1.313 . S
C406 C407 1.338 . S
C406 N409 1.377 . S
C406 H426 0.930 . S
C407 N405 1.375 . S
C407 C406 1.338 . S
C407 H411 0.931 . S
C408 N405 1.313 . S
C408 N409 1.344 . S
C408 H412 0.930 . S
N409 C406 1.377 . S
N409 C408 1.344 . S
O410 Co402 2.055 . S
O410 C414 1.253 . S
H411 C407 0.931 . S
H412 C408 0.930 . S
O413 Co402 2.039 . S
O413 C403 1.265 . S
C414 O410 1.253 . S
C414 O415 1.227 . S
O415 C414 1.227 . S
N416 Co402 2.140 . S
N416 C419 1.346 . S
N416 C420 1.345 . S
C417 C418 1.387 . S
C417 C421 1.391 . S
C418 C417 1.387 . S
C418 C419 1.369 . S
C418 H427 0.929 . S
C419 N416 1.346 . S
C419 C418 1.369 . S
C419 H422 0.928 . S
C420 N416 1.345 . S
C420 C421 1.371 . S
C420 H423 0.931 . S
C421 C417 1.391 . S
C421 C420 1.371 . S
C421 H428 0.930 . S
H422 C419 0.928 . S
H423 C420 0.931 . S
H424 C400 0.930 . S
H425 C397 0.930 . S
H426 C406 0.930 . S
H427 C418 0.929 . S
H428 C421 0.930 . S
C429 C430 1.351 . S
C429 N432 1.368 . S
C429 H434 0.931 . S
C430 C429 1.351 . S
C430 N431 1.373 1_455 S
C430 H458 0.930 . S
N431 C430 1.373 1_655 S
N431 C433 1.340 . S
N432 C429 1.368 . S
N432 C433 1.321 1_455 S
N432 Co435 2.135 1_455 S
C433 N431 1.340 . S
C433 N432 1.321 1_655 S
C433 H457 0.930 . S
H434 C429 0.931 . S
Co435 N432 2.135 1_655 S
Co435 N438 2.121 . S
Co435 O443 2.055 . S
Co435 O446 2.039 . S
Co435 N449 2.140 1_655 S
C436 O437 1.227 . S
C436 O446 1.265 . S
O437 C436 1.227 . S
N438 Co435 2.121 . S
N438 C440 1.375 . S
N438 C441 1.313 1_655 S
C439 C440 1.338 . S
C439 N442 1.377 1_655 S
C439 H459 0.930 . S
C440 N438 1.375 . S
C440 C439 1.338 . S
C440 H444 0.931 . S
C441 N438 1.313 1_455 S
C441 N442 1.344 . S
C441 H445 0.930 . S
N442 C439 1.377 1_455 S
N442 C441 1.344 . S
O443 Co435 2.055 . S
O443 C447 1.253 1_655 S
H444 C440 0.931 . S
H445 C441 0.930 . S
O446 Co435 2.039 . S
O446 C436 1.265 . S
C447 O443 1.253 1_455 S
C447 O448 1.227 . S
O448 C447 1.227 . S
N449 Co435 2.140 1_455 S
N449 C452 1.346 . S
N449 C453 1.345 . S
C450 C451 1.387 . S
C450 C454 1.391 . S
C451 C450 1.387 . S
C451 C452 1.369 . S
C451 H460 0.929 . S
C452 N449 1.346 . S
C452 C451 1.369 . S
C452 H455 0.928 . S
C453 N449 1.345 . S
C453 C454 1.371 . S
C453 H456 0.931 . S
C454 C450 1.391 . S
C454 C453 1.371 . S
C454 H461 0.930 . S
H455 C452 0.928 . S
H456 C453 0.931 . S
H457 C433 0.930 . S
H458 C430 0.930 . S
H459 C439 0.930 . S
H460 C451 0.929 . S
H461 C454 0.930 . S
C462 C463 1.351 . S
C462 N465 1.368 . S
C462 H467 0.931 . S
C463 C462 1.351 . S
C463 N464 1.373 . S
C463 H491 0.930 . S
N464 C463 1.373 . S
N464 C466 1.340 . S
N465 C462 1.368 . S
N465 C466 1.321 . S
N465 Co468 2.135 . S
C466 N464 1.340 . S
C466 N465 1.321 . S
C466 H490 0.930 . S
H467 C462 0.931 . S
Co468 N465 2.135 . S
Co468 N471 2.121 . S
Co468 O476 2.055 . S
Co468 O479 2.039 . S
Co468 N482 2.140 . S
C469 O470 1.227 . S
C469 O479 1.265 . S
O470 C469 1.227 . S
N471 Co468 2.121 . S
N471 C473 1.375 . S
N471 C474 1.313 . S
C472 C473 1.338 . S
C472 N475 1.377 . S
C472 H492 0.930 . S
C473 N471 1.375 . S
C473 C472 1.338 . S
C473 H477 0.931 . S
C474 N471 1.313 . S
C474 N475 1.344 . S
C474 H478 0.930 . S
N475 C472 1.377 . S
N475 C474 1.344 . S
O476 Co468 2.055 . S
O476 C480 1.253 . S
H477 C473 0.931 . S
H478 C474 0.930 . S
O479 Co468 2.039 . S
O479 C469 1.265 . S
C480 O476 1.253 . S
C480 O481 1.227 . S
O481 C480 1.227 . S
N482 Co468 2.140 . S
N482 C485 1.346 . S
N482 C486 1.345 . S
C483 C484 1.387 . S
C483 C487 1.391 . S
C484 C483 1.387 . S
C484 C485 1.369 . S
C484 H493 0.929 . S
C485 N482 1.346 . S
C485 C484 1.369 . S
C485 H488 0.928 . S
C486 N482 1.345 . S
C486 C487 1.371 . S
C486 H489 0.931 . S
C487 C483 1.391 . S
C487 C486 1.371 . S
C487 H494 0.930 . S
H488 C485 0.928 . S
H489 C486 0.931 . S
H490 C466 0.930 . S
H491 C463 0.930 . S
H492 C472 0.930 . S
H493 C484 0.929 . S
H494 C487 0.930 . S
C495 C496 1.351 . S
C495 N498 1.368 . S
C495 H500 0.931 . S
C496 C495 1.351 . S
C496 N497 1.373 1_455 S
C496 H524 0.930 . S
N497 C496 1.373 1_655 S
N497 C499 1.340 . S
N498 C495 1.368 . S
N498 C499 1.321 1_455 S
N498 Co501 2.135 1_455 S
C499 N497 1.340 . S
C499 N498 1.321 1_655 S
C499 H523 0.930 . S
H500 C495 0.931 . S
Co501 N498 2.135 1_655 S
Co501 N504 2.121 . S
Co501 O509 2.055 . S
Co501 O512 2.039 . S
Co501 N515 2.140 1_655 S
C502 O503 1.227 . S
C502 O512 1.265 . S
O503 C502 1.227 . S
N504 Co501 2.121 . S
N504 C506 1.375 . S
N504 C507 1.313 1_655 S
C505 C506 1.338 . S
C505 N508 1.377 1_655 S
C505 H525 0.930 . S
C506 N504 1.375 . S
C506 C505 1.338 . S
C506 H510 0.931 . S
C507 N504 1.313 1_455 S
C507 N508 1.344 . S
C507 H511 0.930 . S
N508 C505 1.377 1_455 S
N508 C507 1.344 . S
O509 Co501 2.055 . S
O509 C513 1.253 1_655 S
H510 C506 0.931 . S
H511 C507 0.930 . S
O512 Co501 2.039 . S
O512 C502 1.265 . S
C513 O509 1.253 1_455 S
C513 O514 1.227 . S
O514 C513 1.227 . S
N515 Co501 2.140 1_455 S
N515 C518 1.346 . S
N515 C519 1.345 . S
C516 C517 1.387 . S
C516 C520 1.391 . S
C517 C516 1.387 . S
C517 C518 1.369 . S
C517 H526 0.929 . S
C518 N515 1.346 . S
C518 C517 1.369 . S
C518 H521 0.928 . S
C519 N515 1.345 . S
C519 C520 1.371 . S
C519 H522 0.931 . S
C520 C516 1.391 . S
C520 C519 1.371 . S
C520 H527 0.930 . S
H521 C518 0.928 . S
H522 C519 0.931 . S
H523 C499 0.930 . S
H524 C496 0.930 . S
H525 C505 0.930 . S
H526 C517 0.929 . S
H527 C520 0.930 . S
N442 N13 2.098 . S
N46 N376 2.100 . S
N79 N409 2.098 . S
N112 N343 2.101 . S
N508 N145 2.101 . S
N178 N310 2.098 . S
N211 N475 2.101 . S
N277 N244 2.098 . S
C18 C150 2.149 1_554 S
C51 C183 2.148 . S
C84 C216 2.148 . S
C249 C117 2.148 . S
C348 C282 2.148 . S
C315 C381 2.148 . S
C480 C414 2.149 . S
C513 C447 2.148 1_556 S
C172 C7 1.480 1_565 S
C40 C205 1.481 1_565 S
C73 C238 1.480 . S
C139 C106 1.480 . S
C153 C351 0.719 . S
C87 C285 0.718 . S
C384 C219 0.719 1_565 S
C318 C21 0.719 1_565 S
C271 C403 1.480 . S
C502 C337 1.480 . S
C436 C304 1.480 . S
C370 C469 1.480 . S
C483 C54 0.718 . S
C186 C450 0.719 . S
C516 C120 0.719 . S
C252 C417 0.719 . S
N2 N431 2.056 1_455 S
N35 N365 2.057 . S
N68 N398 2.056 . S
N101 N332 2.058 . S
N134 N497 2.058 1_455 S
N167 N299 2.056 . S
N464 N200 2.058 . S
N266 N233 2.055 . S
