# Generated by pormake.
# Topology cag, (4)-cn, num edge types: 1
# Building blocks:
#     Node 0, Type 0, BuildingBlock: AZAVOO_clean_sbu_0, # of connection points: 4
#     Node 1, Type 0, BuildingBlock: AZAVOO_clean_sbu_0, # of connection points: 4
#     Node 2, Type 0, BuildingBlock: AZAVOO_clean_sbu_0, # of connection points: 4
#     Node 3, Type 0, BuildingBlock: AZAVOO_clean_sbu_0, # of connection points: 4
#     Node 4, Type 0, BuildingBlock: AZAVOO_clean_sbu_0, # of connection points: 4
#     Node 5, Type 0, BuildingBlock: AZAVOO_clean_sbu_0, # of connection points: 4
#     Node 6, Type 0, BuildingBlock: AZAVOO_clean_sbu_0, # of connection points: 4
#     Node 7, Type 0, BuildingBlock: AZAVOO_clean_sbu_0, # of connection points: 4
#     Node 8, Type 0, BuildingBlock: AZAVOO_clean_sbu_0, # of connection points: 4
#     Node 9, Type 0, BuildingBlock: AZAVOO_clean_sbu_0, # of connection points: 4
#     Node 10, Type 0, BuildingBlock: AZAVOO_clean_sbu_0, # of connection points: 4
#     Node 11, Type 0, BuildingBlock: AZAVOO_clean_sbu_0, # of connection points: 4
#     Node 12, Type 0, BuildingBlock: AZAVOO_clean_sbu_0, # of connection points: 4
#     Node 13, Type 0, BuildingBlock: AZAVOO_clean_sbu_0, # of connection points: 4
#     Node 14, Type 0, BuildingBlock: AZAVOO_clean_sbu_0, # of connection points: 4
#     Node 15, Type 0, BuildingBlock: AZAVOO_clean_sbu_0, # of connection points: 4
#     Edge 16, Type (0, 0), BuildingBlock: KIFKEQ_clean_linker_1, # of connection points: 2
#     Edge 17, Type (0, 0), BuildingBlock: KIFKEQ_clean_linker_1, # of connection points: 2
#     Edge 18, Type (0, 0), BuildingBlock: KIFKEQ_clean_linker_1, # of connection points: 2
#     Edge 19, Type (0, 0), BuildingBlock: KIFKEQ_clean_linker_1, # of connection points: 2
#     Edge 20, Type (0, 0), BuildingBlock: KIFKEQ_clean_linker_1, # of connection points: 2
#     Edge 21, Type (0, 0), BuildingBlock: KIFKEQ_clean_linker_1, # of connection points: 2
#     Edge 22, Type (0, 0), BuildingBlock: KIFKEQ_clean_linker_1, # of connection points: 2
#     Edge 23, Type (0, 0), BuildingBlock: KIFKEQ_clean_linker_1, # of connection points: 2
#     Edge 24, Type (0, 0), BuildingBlock: KIFKEQ_clean_linker_1, # of connection points: 2
#     Edge 25, Type (0, 0), BuildingBlock: KIFKEQ_clean_linker_1, # of connection points: 2
#     Edge 26, Type (0, 0), BuildingBlock: KIFKEQ_clean_linker_1, # of connection points: 2
#     Edge 27, Type (0, 0), BuildingBlock: KIFKEQ_clean_linker_1, # of connection points: 2
#     Edge 28, Type (0, 0), BuildingBlock: KIFKEQ_clean_linker_1, # of connection points: 2
#     Edge 29, Type (0, 0), BuildingBlock: KIFKEQ_clean_linker_1, # of connection points: 2
#     Edge 30, Type (0, 0), BuildingBlock: KIFKEQ_clean_linker_1, # of connection points: 2
#     Edge 31, Type (0, 0), BuildingBlock: KIFKEQ_clean_linker_1, # of connection points: 2
#     Edge 32, Type (0, 0), BuildingBlock: KIFKEQ_clean_linker_1, # of connection points: 2
#     Edge 33, Type (0, 0), BuildingBlock: KIFKEQ_clean_linker_1, # of connection points: 2
#     Edge 34, Type (0, 0), BuildingBlock: KIFKEQ_clean_linker_1, # of connection points: 2
#     Edge 35, Type (0, 0), BuildingBlock: KIFKEQ_clean_linker_1, # of connection points: 2
#     Edge 36, Type (0, 0), BuildingBlock: KIFKEQ_clean_linker_1, # of connection points: 2
#     Edge 37, Type (0, 0), BuildingBlock: KIFKEQ_clean_linker_1, # of connection points: 2
#     Edge 38, Type (0, 0), BuildingBlock: KIFKEQ_clean_linker_1, # of connection points: 2
#     Edge 39, Type (0, 0), BuildingBlock: KIFKEQ_clean_linker_1, # of connection points: 2
#     Edge 40, Type (0, 0), BuildingBlock: KIFKEQ_clean_linker_1, # of connection points: 2
#     Edge 41, Type (0, 0), BuildingBlock: KIFKEQ_clean_linker_1, # of connection points: 2
#     Edge 42, Type (0, 0), BuildingBlock: KIFKEQ_clean_linker_1, # of connection points: 2
#     Edge 43, Type (0, 0), BuildingBlock: KIFKEQ_clean_linker_1, # of connection points: 2
#     Edge 44, Type (0, 0), BuildingBlock: KIFKEQ_clean_linker_1, # of connection points: 2
#     Edge 45, Type (0, 0), BuildingBlock: KIFKEQ_clean_linker_1, # of connection points: 2
#     Edge 46, Type (0, 0), BuildingBlock: KIFKEQ_clean_linker_1, # of connection points: 2
#     Edge 47, Type (0, 0), BuildingBlock: KIFKEQ_clean_linker_1, # of connection points: 2
# Relax obj value: 0.058
# Max RMSD: 0.099
# Mean RMSD: 0.096
data_MOF--net-cag--node1-AZAVOO_clean_sbu_0--edge1-KIFKEQ_clean_linker_1
_symmetry_space_group_name_H-M    P1
_symmetry_Int_Tables_number       1
_symmetry_cell_setting            triclinic
loop_
_symmetry_equiv_pos_as_xyz
'x, y, z'
_cell_length_a     45.19457
_cell_length_b     46.839102
_cell_length_c     44.010611
_cell_angle_alpha  89.990579
_cell_angle_beta   90.010913
_cell_angle_gamma 90.015244
loop_
_atom_site_label
_atom_site_type_symbol
_atom_site_fract_x
_atom_site_fract_y
_atom_site_fract_z
_atom_type_partial_charge
Mg0 Mg 0.34132 0.12097 0.11418 0.0
O1 O 0.3317 0.08564 0.07918 0.0
O2 O 0.28289 0.07783 0.08005 0.0
Mg3 Mg 0.2611 0.10759 0.11423 0.0
C4 C 0.30871 0.07242 0.06979 0.0
C5 C 0.40915 0.12195 0.11656 0.0
O6 O 0.40137 0.11642 0.14471 0.0
O7 O 0.32311 0.15507 0.08123 0.0
O8 O 0.27481 0.14557 0.08523 0.0
O9 O 0.34456 0.08857 0.15201 0.0
O10 O 0.30324 0.10988 0.13839 0.0
C11 C 0.29609 0.16047 0.07464 0.0
C12 C 0.31631 0.09154 0.15544 0.0
O13 O 0.38894 0.1255 0.09676 0.0
Mg14 Mg 0.15677 0.8784 0.6242 0.0
O15 O 0.17071 0.91074 0.58786 0.0
O16 O 0.22027 0.91166 0.5876 0.0
Mg17 Mg 0.23806 0.88307 0.62568 0.0
C18 C 0.19526 0.91984 0.57718 0.0
C19 C 0.08986 0.89224 0.61759 0.0
O20 O 0.09739 0.90914 0.64011 0.0
O21 O 0.1721 0.84154 0.59344 0.0
O22 O 0.2212 0.8437 0.60048 0.0
O23 O 0.1562 0.91301 0.66003 0.0
O24 O 0.19528 0.88727 0.64782 0.0
C25 C 0.19819 0.83156 0.58973 0.0
C26 C 0.18416 0.90799 0.66303 0.0
O27 O 0.10962 0.87676 0.60527 0.0
Mg28 Mg 0.35053 0.87908 0.85855 0.0
O29 O 0.33862 0.9147 0.89248 0.0
O30 O 0.28993 0.92239 0.88789 0.0
Mg31 Mg 0.2706 0.8924 0.85227 0.0
C32 C 0.31498 0.92793 0.9 0.0
C33 C 0.41318 0.85643 0.86547 0.0
O34 O 0.40234 0.84193 0.84245 0.0
O35 O 0.32997 0.84573 0.89046 0.0
O36 O 0.28187 0.85457 0.88307 0.0
O37 O 0.35686 0.91116 0.82089 0.0
O38 O 0.31451 0.89018 0.83236 0.0
C39 C 0.30267 0.84011 0.89533 0.0
C40 C 0.32867 0.90866 0.81652 0.0
O41 O 0.39648 0.87408 0.87911 0.0
Mg42 Mg 0.1694 0.12458 0.37599 0.0
O43 O 0.17993 0.08834 0.40967 0.0
O44 O 0.22916 0.08353 0.41099 0.0
Mg45 Mg 0.2503 0.11516 0.37838 0.0
C46 C 0.20332 0.07631 0.41981 0.0
C47 C 0.10116 0.11877 0.3734 0.0
O48 O 0.10922 0.11062 0.34607 0.0
O49 O 0.18476 0.15844 0.41084 0.0
O50 O 0.2336 0.15116 0.40834 0.0
O51 O 0.16972 0.09327 0.33688 0.0
O52 O 0.20886 0.11679 0.35292 0.0
C53 C 0.21127 0.16466 0.41872 0.0
C54 C 0.19781 0.09822 0.33474 0.0
O55 O 0.1211 0.12607 0.39231 0.0
Mg56 Mg 0.69703 0.84495 0.91672 0.0
O57 O 0.70785 0.88817 0.93921 0.0
O58 O 0.75712 0.89014 0.94331 0.0
Mg59 Mg 0.77753 0.8495 0.92384 0.0
C60 C 0.73153 0.90108 0.94726 0.0
C61 C 0.63151 0.83685 0.90914 0.0
O62 O 0.64255 0.8113 0.91403 0.0
O63 O 0.71205 0.86196 0.87096 0.0
O64 O 0.76131 0.86225 0.87591 0.0
O65 O 0.69556 0.82334 0.96152 0.0
O66 O 0.73596 0.82699 0.93359 0.0
C67 C 0.73789 0.86619 0.86013 0.0
C68 C 0.72361 0.81855 0.95839 0.0
O69 O 0.64911 0.85803 0.90846 0.0
Mg70 Mg 0.81513 0.14489 0.4098 0.0
O71 O 0.80188 0.10354 0.43466 0.0
O72 O 0.75243 0.10286 0.4365 0.0
Mg73 Mg 0.73409 0.1435 0.41496 0.0
C74 C 0.77753 0.09152 0.4421 0.0
C75 C 0.88281 0.14676 0.41272 0.0
O76 O 0.87448 0.17143 0.42405 0.0
O77 O 0.8004 0.12604 0.36434 0.0
O78 O 0.75107 0.12792 0.36861 0.0
O79 O 0.8155 0.1688 0.45356 0.0
O80 O 0.77627 0.16508 0.42401 0.0
C81 C 0.77446 0.12224 0.35344 0.0
C82 C 0.78783 0.17441 0.44881 0.0
O83 O 0.86296 0.12924 0.40413 0.0
Mg84 Mg 0.69456 0.15052 0.07752 0.0
O85 O 0.70631 0.10959 0.05122 0.0
O86 O 0.75549 0.10886 0.04598 0.0
Mg87 Mg 0.77528 0.14823 0.06891 0.0
C88 C 0.73001 0.09779 0.04161 0.0
C89 C 0.62666 0.15142 0.07397 0.0
O90 O 0.63452 0.17521 0.06036 0.0
O91 O 0.71064 0.13017 0.12162 0.0
O92 O 0.7598 0.13132 0.11546 0.0
O93 O 0.69315 0.1759 0.03465 0.0
O94 O 0.73322 0.17081 0.06269 0.0
C95 C 0.73687 0.12562 0.13137 0.0
C96 C 0.72096 0.18124 0.03876 0.0
O97 O 0.64681 0.13505 0.08424 0.0
Mg98 Mg 0.80897 0.84481 0.57868 0.0
O99 O 0.79698 0.88735 0.55594 0.0
O100 O 0.74766 0.88916 0.55262 0.0
Mg101 Mg 0.72841 0.84756 0.57138 0.0
C102 C 0.77317 0.90021 0.54841 0.0
C103 C 0.87427 0.864 0.56603 0.0
O104 O 0.8655 0.85952 0.53797 0.0
O105 O 0.79313 0.86125 0.62443 0.0
O106 O 0.74388 0.86049 0.61944 0.0
O107 O 0.81093 0.82378 0.53356 0.0
O108 O 0.77059 0.82574 0.56183 0.0
C109 C 0.76719 0.86491 0.63523 0.0
C110 C 0.78303 0.81823 0.53675 0.0
O111 O 0.85592 0.86064 0.58763 0.0
Mg112 Mg 0.85232 0.62384 0.12676 0.0
O113 O 0.83835 0.5922 0.08971 0.0
O114 O 0.78895 0.58923 0.09134 0.0
Mg115 Mg 0.7713 0.61745 0.12979 0.0
C116 C 0.81387 0.58217 0.07984 0.0
C117 C 0.92005 0.62088 0.12564 0.0
O118 O 0.9136 0.61365 0.15371 0.0
O119 O 0.83587 0.66098 0.09719 0.0
O120 O 0.78691 0.65754 0.10471 0.0
O121 O 0.85437 0.58855 0.16174 0.0
O122 O 0.81456 0.61389 0.15097 0.0
C123 C 0.80951 0.67039 0.0939 0.0
C124 C 0.82641 0.59317 0.16559 0.0
O125 O 0.89904 0.62661 0.10742 0.0
Mg126 Mg 0.66549 0.3782 0.61061 0.0
O127 O 0.67415 0.41377 0.57549 0.0
O128 O 0.72331 0.41912 0.57321 0.0
Mg129 Mg 0.74592 0.38971 0.60709 0.0
C130 C 0.69725 0.42561 0.56442 0.0
C131 C 0.59971 0.36811 0.61797 0.0
O132 O 0.61139 0.363 0.64478 0.0
O133 O 0.68139 0.34381 0.57653 0.0
O134 O 0.73004 0.35209 0.579 0.0
O135 O 0.66464 0.41014 0.64893 0.0
O136 O 0.70482 0.38822 0.63304 0.0
C137 C 0.70806 0.33776 0.56907 0.0
C138 C 0.69295 0.40651 0.65103 0.0
O139 O 0.61689 0.37483 0.59621 0.0
Mg140 Mg 0.84246 0.38247 0.87329 0.0
O141 O 0.83232 0.42006 0.90547 0.0
O142 O 0.78326 0.42634 0.90543 0.0
Mg143 Mg 0.76175 0.39271 0.87547 0.0
C144 C 0.80915 0.43337 0.91425 0.0
C145 C 0.90651 0.36026 0.88156 0.0
O146 O 0.89352 0.33849 0.86827 0.0
O147 O 0.82731 0.35029 0.90985 0.0
O148 O 0.77854 0.35809 0.90746 0.0
O149 O 0.84237 0.41178 0.83258 0.0
O150 O 0.80297 0.38944 0.84988 0.0
C151 C 0.80081 0.34479 0.91833 0.0
C152 C 0.81423 0.40695 0.83064 0.0
O153 O 0.89095 0.3819 0.88857 0.0
Mg154 Mg 0.65909 0.62695 0.36002 0.0
O155 O 0.66936 0.59184 0.39519 0.0
O156 O 0.71852 0.58564 0.39389 0.0
Mg157 Mg 0.73925 0.61381 0.35745 0.0
C158 C 0.69301 0.57981 0.40476 0.0
C159 C 0.59453 0.64287 0.35814 0.0
O160 O 0.60523 0.6499 0.3314 0.0
O161 O 0.67837 0.66104 0.39223 0.0
O162 O 0.72668 0.65246 0.38615 0.0
O163 O 0.65423 0.59426 0.32271 0.0
O164 O 0.69616 0.61512 0.33576 0.0
C165 C 0.70553 0.66706 0.3975 0.0
C166 C 0.68259 0.59649 0.31957 0.0
O167 O 0.61208 0.63252 0.37785 0.0
Mg168 Mg 0.19309 0.35443 0.91113 0.0
O169 O 0.20697 0.39496 0.93694 0.0
O170 O 0.25618 0.39337 0.9419 0.0
Mg171 Mg 0.27381 0.35249 0.92005 0.0
C172 C 0.23135 0.40576 0.94616 0.0
C173 C 0.13015 0.35747 0.88541 0.0
O174 O 0.14276 0.33727 0.86924 0.0
O175 O 0.21027 0.37398 0.8669 0.0
O176 O 0.25916 0.36895 0.87314 0.0
O177 O 0.19002 0.32957 0.95428 0.0
O178 O 0.2305 0.33262 0.92655 0.0
C179 C 0.23681 0.3762 0.85706 0.0
C180 C 0.21765 0.32316 0.95058 0.0
O181 O 0.14588 0.37113 0.90448 0.0
Mg182 Mg 0.31043 0.65958 0.40869 0.0
O183 O 0.29935 0.6175 0.43318 0.0
O184 O 0.25008 0.61616 0.4376 0.0
Mg185 Mg 0.22991 0.65655 0.41706 0.0
C186 C 0.27559 0.60512 0.44185 0.0
C187 C 0.37497 0.66616 0.39313 0.0
O188 O 0.36339 0.69176 0.39037 0.0
O189 O 0.29454 0.6408 0.36388 0.0
O190 O 0.24538 0.6429 0.36928 0.0
O191 O 0.31265 0.68289 0.45264 0.0
O192 O 0.27194 0.67856 0.42534 0.0
C193 C 0.26841 0.63754 0.35338 0.0
C194 C 0.28457 0.68765 0.44971 0.0
O195 O 0.35809 0.64556 0.40044 0.0
Mg196 Mg 0.20149 0.65657 0.07271 0.0
O197 O 0.21407 0.61456 0.04951 0.0
O198 O 0.2632 0.61417 0.04399 0.0
Mg199 Mg 0.28188 0.65599 0.06316 0.0
C200 C 0.23788 0.60243 0.04075 0.0
C201 C 0.13397 0.65632 0.07308 0.0
O202 O 0.1407 0.68066 0.05995 0.0
O203 O 0.21866 0.63945 0.11772 0.0
O204 O 0.26769 0.64271 0.11156 0.0
O205 O 0.19818 0.6784 0.02794 0.0
O206 O 0.23901 0.67685 0.05543 0.0
C207 C 0.24502 0.63704 0.12789 0.0
C208 C 0.22592 0.68475 0.03085 0.0
O209 O 0.15484 0.63999 0.08165 0.0
Mg210 Mg 0.31298 0.35937 0.58016 0.0
O211 O 0.30144 0.40028 0.55371 0.0
O212 O 0.25227 0.40025 0.54807 0.0
Mg213 Mg 0.23245 0.36024 0.56976 0.0
C214 C 0.27759 0.41176 0.54399 0.0
C215 C 0.37741 0.35355 0.59606 0.0
O216 O 0.36543 0.32827 0.60015 0.0
O217 O 0.29575 0.37943 0.62408 0.0
O218 O 0.24684 0.37576 0.6171 0.0
O219 O 0.31593 0.3341 0.5373 0.0
O220 O 0.27505 0.33885 0.5641 0.0
C221 C 0.26916 0.38223 0.63359 0.0
C222 C 0.28802 0.32865 0.5405 0.0
O223 O 0.36071 0.37407 0.58799 0.0
H224 H 0.33145 0.20525 0.05549 0.0
H225 H 0.24229 0.17203 0.05022 0.0
H226 H 0.31541 0.2481 0.02773 0.0
H227 H 0.22671 0.21414 0.0229 0.0
H228 H 0.19722 0.30227 0.00445 0.0
H229 H 0.21948 0.26502 0.03557 0.0
H230 H 0.29535 0.26288 0.976 0.0
H231 H 0.27326 0.30053 0.94496 0.0
C232 C 0.30862 0.20692 0.04824 0.0
C233 C 0.28813 0.18531 0.0554 0.0
C234 C 0.29944 0.23144 0.03246 0.0
C235 C 0.26965 0.23473 0.02378 0.0
C236 C 0.2496 0.21265 0.03004 0.0
C237 C 0.25868 0.18834 0.04557 0.0
C238 C 0.21887 0.29425 -0.00175 0.0
C239 C 0.23329 0.30411 0.97204 0.0
C240 C 0.23158 0.27282 0.016 0.0
C241 C 0.25892 0.26069 0.00788 0.0
C242 C 0.27429 0.27185 0.98283 0.0
C243 C 0.26156 0.29336 0.96503 0.0
H244 H 0.30658 0.71252 0.50075 0.0
H245 H 0.22517 0.69989 0.45108 0.0
H246 H 0.28101 0.74341 0.53618 0.0
H247 H 0.19905 0.72994 0.48753 0.0
H248 H 0.17748 0.81808 0.53315 0.0
H249 H 0.19517 0.77911 0.50083 0.0
H250 H 0.24685 0.74641 0.5759 0.0
H251 H 0.23047 0.78618 0.60721 0.0
C252 C 0.28304 0.71583 0.49776 0.0
C253 C 0.26796 0.70373 0.47306 0.0
C254 C 0.26823 0.73344 0.51829 0.0
C255 C 0.23782 0.73916 0.51489 0.0
C256 C 0.2225 0.72628 0.49068 0.0
C257 C 0.23744 0.70883 0.46992 0.0
C258 C 0.19208 0.80211 0.54275 0.0
C259 C 0.2029 0.80511 0.57242 0.0
C260 C 0.20223 0.77975 0.52432 0.0
C261 C 0.22298 0.75988 0.53554 0.0
C262 C 0.23165 0.76176 0.56616 0.0
C263 C 0.22205 0.78435 0.58423 0.0
H264 H 0.24733 0.82635 0.91466 0.0
H265 H 0.33842 0.79863 0.92061 0.0
H266 H 0.23202 0.78589 0.9449 0.0
H267 H 0.32272 0.75735 0.95088 0.0
H268 H 0.20601 0.69963 0.9746 0.0
H269 H 0.22745 0.73465 0.94018 0.0
H270 H 0.30149 0.74566 0.00118 0.0
H271 H 0.28036 0.70997 0.03533 0.0
C272 C 0.26417 0.81154 0.92229 0.0
C273 C 0.29416 0.81574 0.91501 0.0
C274 C 0.25529 0.78812 0.93947 0.0
C275 C 0.27606 0.76809 0.94986 0.0
C276 C 0.30619 0.77243 0.94316 0.0
C277 C 0.31516 0.79605 0.92584 0.0
C278 C 0.22712 0.70912 0.98042 0.0
C279 C 0.2413 0.7023 0.00785 0.0
C280 C 0.23933 0.72933 0.96079 0.0
C281 C 0.26588 0.74337 0.96826 0.0
C282 C 0.28105 0.7352 -0.00525 0.0
C283 C 0.26888 0.71481 0.01435 0.0
H284 H 0.30969 0.30417 0.48897 0.0
H285 H 0.23088 0.30926 0.54434 0.0
H286 H 0.28711 0.26609 0.45928 0.0
H287 H 0.20836 0.27092 0.51449 0.0
H288 H 0.17602 0.21127 0.43218 0.0
H289 H 0.19133 0.25453 0.45987 0.0
H290 H 0.27618 0.21594 0.47827 0.0
H291 H 0.26122 0.17331 0.45127 0.0
C292 C 0.28735 0.29756 0.49447 0.0
C293 C 0.27225 0.30949 0.51926 0.0
C294 C 0.27447 0.27568 0.47754 0.0
C295 C 0.2462 0.26527 0.48498 0.0
C296 C 0.23016 0.27856 0.50831 0.0
C297 C 0.24313 0.30047 0.52539 0.0
C298 C 0.19771 0.21195 0.44262 0.0
C299 C 0.21755 0.18905 0.43913 0.0
C300 C 0.20649 0.23669 0.45828 0.0
C301 C 0.23522 0.23879 0.47042 0.0
C302 C 0.25424 0.21525 0.46835 0.0
C303 C 0.24553 0.19073 0.453 0.0
H304 H 0.77599 0.71452 0.1126 0.0
H305 H 0.83032 0.68608 0.038 0.0
H306 H 0.75995 0.75556 0.08301 0.0
H307 H 0.81285 0.72624 0.00724 0.0
H308 H 0.78313 0.80668 0.96005 0.0
H309 H 0.80894 0.7755 -0.00426 0.0
H310 H 0.7266 0.76105 0.04343 0.0
H311 H 0.70146 0.79306 0.00893 0.0
C312 C 0.78466 0.71731 0.08983 0.0
C313 C 0.80415 0.69719 0.07739 0.0
C314 C 0.77528 0.74065 0.07273 0.0
C315 C 0.78445 0.74393 0.04239 0.0
C316 C 0.8054 0.72458 0.03055 0.0
C317 C 0.81538 0.7015 0.04806 0.0
C318 C 0.77075 0.79728 0.97857 0.0
C319 C 0.74024 0.80237 0.98166 0.0
C320 C 0.78549 0.77918 -0.00112 0.0
C321 C 0.76996 0.7656 0.02253 0.0
C322 C 0.73959 0.77148 0.02599 0.0
C323 C 0.72501 0.78976 0.00599 0.0
H324 H 0.73156 0.19536 0.44164 0.0
H325 H 0.80605 0.1957 0.50324 0.0
H326 H 0.70797 0.23308 0.47159 0.0
H327 H 0.78242 0.23311 0.53301 0.0
H328 H 0.7599 0.32709 0.54047 0.0
H329 H 0.77493 0.28424 0.51413 0.0
H330 H 0.68773 0.24844 0.52621 0.0
H331 H 0.67228 0.29197 0.55339 0.0
C332 C 0.74256 0.20294 0.46195 0.0
C333 C 0.77091 0.19287 0.46982 0.0
C334 C 0.72898 0.22446 0.4791 0.0
C335 C 0.74362 0.23627 0.50426 0.0
C336 C 0.77088 0.22465 0.51338 0.0
C337 C 0.78439 0.20319 0.49637 0.0
C338 C 0.7437 0.31025 0.53761 0.0
C339 C 0.71494 0.31285 0.54952 0.0
C340 C 0.75246 0.28558 0.52259 0.0
C341 C 0.73274 0.26277 0.51883 0.0
C342 C 0.70342 0.26571 0.52914 0.0
C343 C 0.69458 0.29059 0.54453 0.0
H344 H 0.75136 0.33786 0.95217 0.0
H345 H 0.83531 0.29783 0.9322 0.0
H346 H 0.73568 0.29563 0.9796 0.0
H347 H 0.81931 0.25506 0.96029 0.0
H348 H 0.77834 0.19987 0.0439 0.0
H349 H 0.80176 0.23859 0.01525 0.0
H350 H 0.72368 0.24574 0.9593 0.0
H351 H 0.70027 0.20726 0.98769 0.0
C352 C 0.76666 0.32012 0.9539 0.0
C353 C 0.79444 0.32105 0.93957 0.0
C354 C 0.75755 0.29585 0.9695 0.0
C355 C 0.77597 0.27184 0.97134 0.0
C356 C 0.80461 0.27327 0.95891 0.0
C357 C 0.81379 0.29774 0.94301 0.0
C358 C 0.76643 0.20928 0.02504 0.0
C359 C 0.73728 0.20073 0.01828 0.0
C360 C 0.77989 0.23141 0.00867 0.0
C361 C 0.76431 0.24542 0.98547 0.0
C362 C 0.73598 0.23559 0.97747 0.0
C363 C 0.72263 0.21346 -0.00635 0.0
H364 H 0.72909 0.79208 0.54192 0.0
H365 H 0.80028 0.80773 0.47858 0.0
H366 H 0.70702 0.75818 0.50627 0.0
H367 H 0.77784 0.77463 0.44272 0.0
H368 H 0.6689 0.7069 0.42477 0.0
H369 H 0.68403 0.74793 0.45588 0.0
H370 H 0.77552 0.72314 0.44548 0.0
H371 H 0.76084 0.68309 0.41459 0.0
C372 C 0.7396 0.78884 0.52008 0.0
C373 C 0.7667 0.80214 0.51324 0.0
C374 C 0.72689 0.7695 0.49962 0.0
C375 C 0.741 0.76329 0.47194 0.0
C376 C 0.76682 0.77841 0.4642 0.0
C377 C 0.77962 0.79748 0.48469 0.0
C378 C 0.69222 0.71033 0.42914 0.0
C379 C 0.71361 0.69171 0.41701 0.0
C380 C 0.70086 0.73378 0.44694 0.0
C381 C 0.73101 0.73906 0.45272 0.0
C382 C 0.75218 0.72022 0.44082 0.0
C383 C 0.74364 0.69698 0.42324 0.0
H384 H 0.35726 0.06023 0.03445 0.0
H385 H 0.26671 0.0347 0.05081 0.0
H386 H 0.36037 0.02577 0.99283 0.0
H387 H 0.27009 1.00007 0.01003 0.0
H388 H 0.27211 0.96637 0.91475 0.0
H389 H 0.27248 1.00121 0.95549 0.0
H390 H 0.36055 0.97449 0.98098 0.0
H391 H 0.36052 0.93982 0.93944 0.0
C392 C 0.33814 0.04713 0.02938 0.0
C393 C 0.31164 0.05045 0.04577 0.0
C394 C 0.33997 0.02732 0.00562 0.0
C395 C 0.31536 0.01044 -0.00213 0.0
C396 C 0.28923 0.01322 0.01491 0.0
C397 C 0.28736 0.03301 0.03845 0.0
C398 C 0.29164 0.96789 0.92893 0.0
C399 C 0.31619 0.95009 0.92397 0.0
C400 C 0.29177 0.98781 0.95244 0.0
C401 C 0.31637 0.99035 0.97179 0.0
C402 C 0.34131 0.97313 0.96638 0.0
C403 C 0.34124 0.95321 0.94266 0.0
H404 H 0.23976 0.93256 0.53768 0.0
H405 H 0.14995 0.95543 0.56081 0.0
H406 H 0.24033 0.96919 0.49861 0.0
H407 H 0.15091 0.99309 0.52255 0.0
H408 H 0.15476 0.04349 0.43332 0.0
H409 H 0.15177 0.00431 0.46984 0.0
H410 H 0.24294 0.0191 0.49523 0.0
H411 H 0.24619 0.05715 0.45807 0.0
C412 C 0.22017 0.94554 0.5345 0.0
C413 C 0.19489 0.94122 0.55247 0.0
C414 C 0.22054 0.9667 0.51221 0.0
C415 C 0.19581 0.98444 0.50765 0.0
C416 C 0.17025 0.97969 0.52519 0.0
C417 C 0.16974 0.95818 0.54724 0.0
C418 C 0.17411 0.0383 0.44675 0.0
C419 C 0.20076 0.05327 0.44264 0.0
C420 C 0.17239 0.01592 0.46777 0.0
C421 C 0.1972 0.0083 0.48535 0.0
C422 C 0.2236 0.02378 0.48158 0.0
C423 C 0.22542 0.0458 0.46036 0.0
H424 H 0.68377 0.93743 0.94921 0.0
H425 H 0.77503 0.92974 0.97738 0.0
H426 H 0.68205 0.9856 0.9705 0.0
H427 H 0.77304 0.97714 -0.00063 0.0
H428 H 0.77272 0.0723 0.00732 0.0
H429 H 0.77148 0.02547 0.98373 0.0
H430 H 0.68255 0.0126 0.01715 0.0
H431 H 0.68344 0.06013 0.03998 0.0
C432 C 0.70336 0.94589 0.96016 0.0
C433 C 0.72961 0.92979 0.96134 0.0
C434 C 0.70235 0.97347 0.97247 0.0
C435 C 0.7275 0.98545 0.98638 0.0
C436 C 0.75346 0.96898 0.98816 0.0
C437 C 0.75454 0.94163 0.97569 0.0
C438 C 0.75282 0.05958 0.00955 0.0
C439 C 0.72827 0.06991 0.02576 0.0
C440 C 0.75217 0.03259 -0.00384 0.0
C441 C 0.72708 0.015 -0.00109 0.0
C442 C 0.70217 0.02562 0.01441 0.0
C443 C 0.70272 0.05283 0.0276 0.0
H444 H 0.73275 0.05284 0.44605 0.0
H445 H 0.8236 0.06655 0.47287 0.0
H446 H 0.73288 0.00694 0.47154 0.0
H447 H 0.82339 0.02093 0.49975 0.0
H448 H 0.8208 0.9246 0.5199 0.0
H449 H 0.82272 0.97063 0.49401 0.0
H450 H 0.732 0.9868 0.52006 0.0
H451 H 0.72976 0.94041 0.54457 0.0
C452 C 0.75271 0.04616 0.45768 0.0
C453 C 0.77812 0.06343 0.45755 0.0
C454 C 0.75273 0.01985 0.47253 0.0
C455 C 0.77803 0.01023 0.4881 0.0
C456 C 0.80359 0.02744 0.48775 0.0
C457 C 0.80369 0.05367 0.47248 0.0
C458 C 0.80131 0.93806 0.5201 0.0
C459 C 0.77503 0.92874 0.53404 0.0
C460 C 0.80244 0.96454 0.50539 0.0
C461 C 0.77744 0.98245 0.50464 0.0
C462 C 0.75147 0.97335 0.51941 0.0
C463 C 0.75022 0.94677 0.53367 0.0
H464 H 0.85593 0.44596 0.9517 0.0
H465 H 0.76851 0.47472 0.92631 0.0
H466 H 0.85802 0.48276 0.99097 0.0
H467 H 0.77098 0.51192 0.96462 0.0
H468 H 0.76807 0.54949 0.05924 0.0
H469 H 0.76853 0.51475 0.01838 0.0
H470 H 0.86078 0.53318 0.00145 0.0
H471 H 0.86059 0.56747 0.0432 0.0
C472 C 0.83737 0.4604 0.95419 0.0
C473 C 0.81192 0.4572 0.93614 0.0
C474 C 0.8386 0.48156 0.97662 0.0
C475 C 0.8145 0.5001 0.98124 0.0
C476 C 0.78963 0.49757 0.96226 0.0
C477 C 0.78828 0.47631 0.94014 0.0
C478 C 0.78847 0.54625 0.0468 0.0
C479 C 0.81428 0.56134 0.0545 0.0
C480 C 0.7887 0.5264 0.02318 0.0
C481 C 0.81464 0.52129 0.00641 0.0
C482 C 0.8405 0.53637 0.01408 0.0
C483 C 0.84034 0.55613 0.03793 0.0
H484 H 0.73856 0.44088 0.52283 0.0
H485 H 0.64915 0.4594 0.55137 0.0
H486 H 0.73539 0.4778 0.48446 0.0
H487 H 0.64632 0.49757 0.51343 0.0
H488 H 0.64543 0.54685 0.42154 0.0
H489 H 0.64461 0.50899 0.45991 0.0
H490 H 0.73561 0.52796 0.48258 0.0
H491 H 0.73672 0.56457 0.44371 0.0
C492 C 0.71825 0.45305 0.52105 0.0
C493 C 0.69423 0.44744 0.54037 0.0
C494 C 0.71648 0.47439 0.49912 0.0
C495 C 0.69081 0.49111 0.4962 0.0
C496 C 0.66639 0.48504 0.51498 0.0
C497 C 0.66803 0.46327 0.53678 0.0
C498 C 0.66516 0.54289 0.43486 0.0
C499 C 0.69127 0.55837 0.42933 0.0
C500 C 0.66468 0.5213 0.45691 0.0
C501 C 0.6902 0.51507 0.47401 0.0
C502 C 0.71582 0.5315 0.46923 0.0
C503 C 0.71642 0.55266 0.44702 0.0
H504 H 0.19039 0.56605 0.03937 0.0
H505 H 0.28144 0.57364 0.01044 0.0
H506 H 0.18816 0.51821 0.01776 0.0
H507 H 0.2789 0.52632 0.98795 0.0
H508 H 0.27606 0.43053 0.97852 0.0
H509 H 0.27679 0.4775 0.0019 0.0
H510 H 0.18734 0.49243 0.97096 0.0
H511 H 0.18626 0.44489 0.94841 0.0
C512 C 0.20987 0.55762 0.02818 0.0
C513 C 0.23615 0.57367 0.02678 0.0
C514 C 0.20853 0.53021 0.01564 0.0
C515 C 0.23338 0.51827 0.0012 0.0
C516 C 0.25951 0.53453 -0.00056 0.0
C517 C 0.26092 0.56181 0.01219 0.0
C518 C 0.25648 0.44376 0.97678 0.0
C519 C 0.23114 0.43395 0.96147 0.0
C520 C 0.25697 0.47083 0.99003 0.0
C521 C 0.23224 0.48896 0.98809 0.0
C522 C 0.20669 0.47897 0.9732 0.0
C523 C 0.20611 0.45173 0.96015 0.0
H524 H 0.32315 0.56868 0.44534 0.0
H525 H 0.23204 0.57795 0.47348 0.0
H526 H 0.32483 0.52156 0.46912 0.0
H527 H 0.23401 0.53161 0.49795 0.0
H528 H 0.23438 0.43656 0.50979 0.0
H529 H 0.23537 0.48267 0.48471 0.0
H530 H 0.32452 0.49662 0.51704 0.0
H531 H 0.32388 0.44976 0.54142 0.0
C532 C 0.30357 0.5608 0.4568 0.0
C533 C 0.27738 0.57701 0.45726 0.0
C534 C 0.30458 0.53383 0.47056 0.0
C535 C 0.27947 0.5226 0.48522 0.0
C536 C 0.25356 0.5392 0.48624 0.0
C537 C 0.25248 0.56593 0.47232 0.0
C538 C 0.25426 0.44937 0.51154 0.0
C539 C 0.27898 0.4395 0.52782 0.0
C540 C 0.25477 0.47596 0.49727 0.0
C541 C 0.27987 0.49362 0.49916 0.0
C542 C 0.30488 0.48353 0.51492 0.0
C543 C 0.30447 0.4567 0.52901 0.0
H544 H 0.5794 0.18137 0.05234 0.0
H545 H 0.60173 0.10642 0.1048 0.0
H546 H 0.52709 0.17238 0.06105 0.0
H547 H 0.54911 0.09714 0.11311 0.0
H548 H 0.45654 0.11358 0.15384 0.0
H549 H 0.50878 0.11866 0.14185 0.0
H550 H 0.48645 0.13999 0.04915 0.0
H551 H 0.43387 0.13534 0.0613 0.0
C552 C 0.57316 0.1628 0.06554 0.0
C553 C 0.59482 0.1447 0.07803 0.0
C554 C 0.54309 0.15754 0.07033 0.0
C555 C 0.53385 0.13407 0.08781 0.0
C556 C 0.55549 0.11562 0.09983 0.0
C557 C 0.58564 0.12084 0.09495 0.0
C558 C 0.46269 0.11927 0.13084 0.0
C559 C 0.44096 0.1242 0.10856 0.0
C560 C 0.49273 0.12196 0.12391 0.0
C561 C 0.50187 0.12969 0.09453 0.0
C562 C 0.48016 0.13429 0.0721 0.0
C563 C 0.45003 0.13152 0.07902 0.0
H564 H 0.89993 0.87293 0.62149 0.0
H565 H 0.91974 0.87016 0.52546 0.0
H566 H 0.95204 0.88107 0.63255 0.0
H567 H 0.97188 0.87881 0.53657 0.0
H568 H 0.06587 0.8585 0.573 0.0
H569 H 0.01368 0.85345 0.55968 0.0
H570 H 0.99081 0.91674 0.62709 0.0
H571 H 0.04276 0.92145 0.64074 0.0
C572 C 0.91534 0.87434 0.6027 0.0
C573 C 0.90565 0.87082 0.57259 0.0
C574 C 0.94523 0.87915 0.60905 0.0
C575 C 0.96614 0.88055 0.58544 0.0
C576 C 0.95639 0.87748 0.55528 0.0
C577 C 0.92646 0.87271 0.54893 0.0
C578 C 0.04972 0.87144 0.58485 0.0
C579 C 0.05849 0.89025 0.60805 0.0
C580 C 0.01982 0.86866 0.57711 0.0
C581 C 0.99806 0.8846 0.59243 0.0
C582 C 0.00695 0.90383 0.61517 0.0
C583 C 0.03679 0.90664 0.62287 0.0
H584 H 0.45273 0.81786 0.84328 0.0
H585 H 0.44519 0.88827 0.90626 0.0
H586 H 0.50519 0.81391 0.85483 0.0
H587 H 0.49795 0.88408 0.91804 0.0
H588 H 0.60013 0.88658 0.90127 0.0
H589 H 0.5469 0.89149 0.89225 0.0
H590 H 0.53702 0.79991 0.89759 0.0
H591 H 0.58988 0.79494 0.90625 0.0
C592 C 0.46221 0.8324 0.85976 0.0
C593 C 0.44475 0.85336 0.87387 0.0
C594 C 0.4923 0.83005 0.86646 0.0
C595 C 0.50571 0.84867 0.88737 0.0
C596 C 0.48827 0.8696 0.90162 0.0
C597 C 0.45804 0.87185 0.89504 0.0
C598 C 0.58655 0.86753 0.90055 0.0
C599 C 0.59928 0.84037 0.9043 0.0
C600 C 0.55607 0.87035 0.89558 0.0
C601 C 0.53781 0.84607 0.89408 0.0
C602 C 0.55055 0.819 0.89821 0.0
C603 C 0.58088 0.81619 0.9033 0.0
H604 H 0.05413 0.10392 0.33784 0.0
H605 H 0.07584 0.13712 0.42669 0.0
H606 H 1.00171 0.10868 0.34918 0.0
H607 H 0.02315 0.14138 0.43828 0.0
H608 H 0.92946 0.1798 0.43025 0.0
H609 H 0.98192 0.17101 0.42256 0.0
H610 H 0.96151 0.09022 0.3801 0.0
H611 H 0.90869 0.0993 0.38732 0.0
C612 C 0.04774 0.11201 0.35994 0.0
C613 C 0.06926 0.12031 0.38129 0.0
C614 C 0.0176 0.11453 0.36652 0.0
C615 C 0.00814 0.12545 0.39463 0.0
C616 C 0.02966 0.13323 0.41625 0.0
C617 C 0.05987 0.13066 0.40967 0.0
C618 C 0.93608 0.16006 0.41939 0.0
C619 C 0.9148 0.14032 0.40926 0.0
C620 C 0.96626 0.15493 0.41519 0.0
C621 C 0.97601 0.1299 0.40071 0.0
C622 C 0.95475 0.10988 0.39102 0.0
C623 C 0.92448 0.11501 0.39529 0.0
H624 H 0.08508 0.68676 0.05674 0.0
H625 H 0.1118 0.60895 0.10184 0.0
H626 H 0.03356 0.67602 0.06777 0.0
H627 H 0.05998 0.59792 0.11241 0.0
H628 H 0.96935 0.61001 0.15949 0.0
H629 H 0.02084 0.61653 0.14499 0.0
H630 H 0.99334 0.64341 0.05542 0.0
H631 H 0.94162 0.63738 0.07012 0.0
C632 C 0.07996 0.66721 0.06879 0.0
C633 C 0.1026 0.64878 0.07857 0.0
C634 C 0.05035 0.66095 0.07491 0.0
C635 C 0.04263 0.63612 0.09098 0.0
C636 C 0.06523 0.6174 0.10029 0.0
C637 C 0.0949 0.62365 0.09412 0.0
C638 C 0.97423 0.61717 0.13663 0.0
C639 C 0.95134 0.62335 0.11602 0.0
C640 C 1.00381 0.62071 0.12825 0.0
C641 C 0.01122 0.63053 0.09907 0.0
C642 C 0.98835 0.63615 0.07822 0.0
C643 C 0.95872 0.63257 0.08659 0.0
H644 H 0.55908 0.34908 0.65883 0.0
H645 H 0.56651 0.38421 0.56835 0.0
H646 H 0.5056 0.34716 0.65349 0.0
H647 H 0.51254 0.38206 0.56296 0.0
H648 H 0.41192 0.39979 0.58046 0.0
H649 H 0.46585 0.40408 0.58494 0.0
H650 H 0.46989 0.31933 0.62333 0.0
H651 H 0.41647 0.31509 0.6191 0.0
C652 C 0.54932 0.35635 0.63772 0.0
C653 C 0.56714 0.36668 0.61396 0.0
C654 C 0.51861 0.35515 0.63464 0.0
C655 C 0.50481 0.36437 0.60778 0.0
C656 C 0.52252 0.37501 0.58404 0.0
C657 C 0.55342 0.37602 0.58704 0.0
C658 C 0.42436 0.38218 0.58999 0.0
C659 C 0.40986 0.35715 0.59953 0.0
C660 C 0.45523 0.38455 0.59233 0.0
C661 C 0.47212 0.36206 0.60455 0.0
C662 C 0.45752 0.33717 0.61416 0.0
C663 C 0.42685 0.33472 0.61162 0.0
H664 H 0.09456 0.38857 0.92378 0.0
H665 H 0.09192 0.3348 0.84409 0.0
H666 H 0.04047 0.38989 0.92453 0.0
H667 H 0.03819 0.3367 0.84436 0.0
H668 H 0.94492 0.31618 0.87267 0.0
H669 H 0.99867 0.31732 0.87405 0.0
H670 H 0.99622 0.40656 0.89876 0.0
H671 H 0.94215 0.4052 0.89813 0.0
C672 C 0.08247 0.37741 0.90615 0.0
C673 C 0.09759 0.36139 0.88401 0.0
C674 C 0.05145 0.37819 0.90655 0.0
C675 C 0.03488 0.36303 0.88478 0.0
C676 C 0.05014 0.34802 0.86196 0.0
C677 C 0.08103 0.34714 0.86164 0.0
C678 C 0.95578 0.33602 0.87863 0.0
C679 C 0.93918 0.36063 0.88512 0.0
C680 C 0.98668 0.33675 0.87917 0.0
C681 C 1.00189 0.36216 0.88603 0.0
C682 C 0.98529 0.38659 0.89349 0.0
C683 C 0.95427 0.38583 0.89308 0.0
H684 H 0.55339 0.66842 0.32211 0.0
H685 H 0.56308 0.62451 0.40791 0.0
H686 H 0.50053 0.67305 0.33097 0.0
H687 H 0.50983 0.62941 0.41688 0.0
H688 H 0.408 0.61775 0.403 0.0
H689 H 0.46136 0.6118 0.39551 0.0
H690 H 0.4678 0.69943 0.36573 0.0
H691 H 0.41483 0.70534 0.3729 0.0
C692 C 0.54427 0.65983 0.34295 0.0
C693 C 0.5625 0.64616 0.36435 0.0
C694 C 0.51394 0.6626 0.34807 0.0
C695 C 0.50101 0.65166 0.37466 0.0
C696 C 0.51915 0.63784 0.39606 0.0
C697 C 0.54965 0.63523 0.39102 0.0
C698 C 0.42084 0.63569 0.39479 0.0
C699 C 0.40714 0.66198 0.38843 0.0
C700 C 0.45139 0.63234 0.39072 0.0
C701 C 0.46875 0.65513 0.37996 0.0
C702 C 0.45499 0.68137 0.37369 0.0
C703 C 0.4246 0.68476 0.37793 0.0
H704 H 0.33858 0.06661 0.20679 0.0
H705 H 0.25658 0.08318 0.15971 0.0
H706 H 0.31067 0.05472 0.25266 0.0
H707 H 0.22901 0.07227 0.20514 0.0
H708 H 0.25688 0.10586 0.32591 0.0
H709 H 0.28644 0.09028 0.28369 0.0
H710 H 0.2117 0.04382 0.24753 0.0
H711 H 0.18158 0.05966 0.29063 0.0
C712 C 0.31463 0.06692 0.2059 0.0
C713 C 0.29984 0.07678 0.17987 0.0
C714 C 0.29864 0.06022 0.23219 0.0
C715 C 0.26763 0.06324 0.2328 0.0
C716 C 0.25282 0.06972 0.20563 0.0
C717 C 0.26877 0.07644 0.17949 0.0
C718 C 0.2468 0.09153 0.30972 0.0
C719 C 0.21671 0.08421 0.31167 0.0
C720 C 0.26398 0.08237 0.28538 0.0
C721 C 0.25148 0.06584 0.26207 0.0
C722 C 0.22191 0.05674 0.26503 0.0
C723 C 0.20467 0.06582 0.28968 0.0
H724 H 0.33964 0.91029 0.7563 0.0
H725 H 0.28103 0.9428 0.82527 0.0
H726 H 0.30402 0.92291 0.71733 0.0
H727 H 0.2459 0.95764 0.78629 0.0
H728 H 0.1748 0.91802 0.72269 0.0
H729 H 0.21228 0.93114 0.75959 0.0
H730 H 0.27366 0.94907 0.68645 0.0
H731 H 0.23635 0.93379 0.64987 0.0
C732 C 0.31969 0.92155 0.76286 0.0
C733 C 0.31273 0.92526 0.79356 0.0
C734 C 0.29912 0.92893 0.74052 0.0
C735 C 0.27143 0.94067 0.74855 0.0
C736 C 0.26639 0.94768 0.77923 0.0
C737 C 0.28662 0.93953 0.80158 0.0
C738 C 0.19603 0.92563 0.71463 0.0
C739 C 0.20304 0.92442 0.68371 0.0
C740 C 0.21767 0.93334 0.73576 0.0
C741 C 0.24656 0.94053 0.72621 0.0
C742 C 0.25214 0.94265 0.69482 0.0
C743 C 0.23074 0.93415 0.67379 0.0
H744 H 0.78628 0.88854 0.83131 0.0
H745 H 0.69677 0.85989 0.81517 0.0
H746 H 0.7934 0.89493 0.77687 0.0
H747 H 0.70424 0.86494 0.76083 0.0
H748 H 0.71841 0.88679 0.6637 0.0
H749 H 0.71115 0.8939 0.71801 0.0
H750 H 0.80069 0.86529 0.73463 0.0
H751 H 0.80827 0.85954 0.68038 0.0
C752 C 0.76806 0.88375 0.81614 0.0
C753 C 0.74105 0.87347 0.82756 0.0
C754 C 0.7722 0.88724 0.78488 0.0
C755 C 0.74956 0.88011 0.76427 0.0
C756 C 0.7221 0.87103 0.77589 0.0
C757 C 0.71784 0.86796 0.80715 0.0
C758 C 0.73666 0.88243 0.67897 0.0
C759 C 0.76383 0.87236 0.66774 0.0
C760 C 0.73246 0.88634 0.71015 0.0
C761 C 0.75518 0.87985 0.7309 0.0
C762 C 0.78276 0.87092 0.71946 0.0
C763 C 0.78709 0.86742 0.68826 0.0
H764 H 0.81431 0.12812 0.30715 0.0
H765 H 0.72636 0.09728 0.32705 0.0
H766 H 0.80492 0.12229 0.25311 0.0
H767 H 0.71732 0.09017 0.27304 0.0
H768 H 0.69733 0.12806 0.17826 0.0
H769 H 0.70737 0.12058 0.23187 0.0
H770 H 0.79636 0.09351 0.21014 0.0
H771 H 0.78659 0.10222 0.15651 0.0
C772 C 0.79327 0.11931 0.30001 0.0
C773 C 0.77093 0.11357 0.32132 0.0
C774 C 0.78786 0.11582 0.26895 0.0
C775 C 0.76014 0.10611 0.25854 0.0
C776 C 0.73862 0.09841 0.28012 0.0
C777 C 0.74388 0.1023 0.31111 0.0
C778 C 0.71886 0.12003 0.18485 0.0
C779 C 0.74127 0.11613 0.16315 0.0
C780 C 0.72464 0.11557 0.21568 0.0
C781 C 0.75285 0.10672 0.22552 0.0
C782 C 0.77462 0.10099 0.20352 0.0
C783 C 0.76896 0.1058 0.17273 0.0
H784 H 0.67186 0.59196 0.25943 0.0
H785 H 0.73145 0.56431 0.32993 0.0
H786 H 0.70759 0.57811 0.2211 0.0
H787 H 0.76674 0.54816 0.29171 0.0
H788 H 0.83685 0.5851 0.22534 0.0
H789 H 0.79991 0.57309 0.26317 0.0
H790 H 0.73817 0.55123 0.19154 0.0
H791 H 0.77489 0.56558 0.15392 0.0
C792 C 0.69212 0.58156 0.26656 0.0
C793 C 0.69928 0.57959 0.2974 0.0
C794 C 0.71276 0.57344 0.24458 0.0
C795 C 0.74072 0.56263 0.25313 0.0
C796 C 0.74605 0.5574 0.28417 0.0
C797 C 0.72575 0.56634 0.30611 0.0
C798 C 0.81569 0.57679 0.21784 0.0
C799 C 0.80839 0.57664 0.18697 0.0
C800 C 0.79434 0.56975 0.23953 0.0
C801 C 0.76545 0.56187 0.23061 0.0
C802 C 0.75967 0.55825 0.1994 0.0
C803 C 0.78077 0.56613 0.17778 0.0
H804 H 0.75323 0.40868 0.65548 0.0
H805 H 0.67342 0.43612 0.70083 0.0
H806 H 0.78205 0.4211 0.69963 0.0
H807 H 0.70269 0.44899 0.74552 0.0
H808 H 0.83154 0.44059 0.78265 0.0
H809 H 0.80164 0.45359 0.73831 0.0
H810 H 0.72523 0.41433 0.77993 0.0
H811 H 0.75462 0.4014 0.82338 0.0
C812 C 0.74184 0.41818 0.67449 0.0
C813 C 0.71087 0.42077 0.67476 0.0
C814 C 0.75855 0.42563 0.69988 0.0
C815 C 0.74465 0.43566 0.72631 0.0
C816 C 0.71398 0.44092 0.72559 0.0
C817 C 0.69723 0.43361 0.69998 0.0
C818 C 0.80817 0.43544 0.7826 0.0
C819 C 0.79559 0.41974 0.80654 0.0
C820 C 0.79106 0.44288 0.75723 0.0
C821 C 0.76106 0.43491 0.75554 0.0
C822 C 0.74809 0.42125 0.78059 0.0
C823 C 0.76515 0.41363 0.80564 0.0
H824 H 0.30874 0.40372 0.67517 0.0
H825 H 0.21726 0.37857 0.66493 0.0
H826 H 0.30084 0.41037 0.72953 0.0
H827 H 0.20978 0.3837 0.71902 0.0
H828 H 0.19767 0.40089 0.8171 0.0
H829 H 0.2056 0.41074 0.76327 0.0
H830 H 0.29552 0.38004 0.77117 0.0
H831 H 0.28806 0.37169 0.82481 0.0
C832 C 0.28691 0.39983 0.68444 0.0
C833 C 0.26377 0.39027 0.66571 0.0
C834 C 0.28239 0.40345 0.71567 0.0
C835 C 0.25476 0.39715 0.72893 0.0
C836 C 0.23127 0.38913 0.70981 0.0
C837 C 0.23566 0.38594 0.67862 0.0
C838 C 0.21925 0.39672 0.80737 0.0
C839 C 0.2421 0.38523 0.82523 0.0
C840 C 0.22379 0.40221 0.77645 0.0
C841 C 0.25114 0.39591 0.7626 0.0
C842 C 0.2743 0.38563 0.7809 0.0
C843 C 0.26991 0.38056 0.81179 0.0
H844 H 0.21806 0.64144 0.31942 0.0
H845 H 0.30994 0.61645 0.31383 0.0
H846 H 0.21305 0.63557 0.26501 0.0
H847 H 0.30458 0.60922 0.25925 0.0
H848 H 0.29503 0.64423 0.16177 0.0
H849 H 0.30055 0.63847 0.21621 0.0
H850 H 0.21103 0.60628 0.22197 0.0
H851 H 0.20509 0.61339 0.16745 0.0
C852 C 0.23706 0.63402 0.30667 0.0
C853 C 0.26452 0.62978 0.32098 0.0
C854 C 0.23412 0.63043 0.27534 0.0
C855 C 0.25846 0.62212 0.2575 0.0
C856 C 0.28551 0.61626 0.27211 0.0
C857 C 0.28856 0.62023 0.30346 0.0
C858 C 0.27662 0.63557 0.17455 0.0
C859 C 0.24948 0.62964 0.16029 0.0
C860 C 0.27986 0.63205 0.20587 0.0
C861 C 0.25616 0.62212 0.22371 0.0
C862 C 0.22955 0.61461 0.20912 0.0
C863 C 0.22617 0.61852 0.17781 0.0
loop_
_geom_bond_atom_site_label_1
_geom_bond_atom_site_label_2
_geom_bond_distance
_geom_bond_site_symmetry_2
_ccdc_geom_bond_type
Mg0 O1 2.028 . S
Mg0 O7 1.986 . S
Mg0 O9 2.114 . S
Mg0 O10 2.251 . S
Mg0 O13 2.010 . S
O1 Mg0 2.028 . S
O1 C4 1.250 . S
O2 Mg3 2.028 . S
O2 C4 1.248 . S
Mg3 O2 2.028 . S
Mg3 O8 2.032 . S
Mg3 O10 2.079 . S
C4 O1 1.250 . S
C4 O2 1.248 . S
C5 O6 1.264 . S
C5 O13 1.249 . S
O6 C5 1.264 . S
O7 Mg0 1.986 . S
O7 C11 1.246 . S
O8 Mg3 2.032 . S
O8 C11 1.259 . S
O9 Mg0 2.114 . S
O9 C12 1.252 . S
O10 Mg0 2.251 . S
O10 Mg3 2.079 . S
O10 C12 1.273 . S
C11 O7 1.246 . S
C11 O8 1.259 . S
C12 O9 1.252 . S
C12 O10 1.273 . S
O13 Mg0 2.010 . S
O13 C5 1.249 . S
Mg14 O15 2.028 . S
Mg14 O21 1.986 . S
Mg14 O23 2.114 . S
Mg14 O24 2.251 . S
Mg14 O27 2.010 . S
O15 Mg14 2.028 . S
O15 C18 1.250 . S
O16 Mg17 2.028 . S
O16 C18 1.248 . S
Mg17 O16 2.028 . S
Mg17 O22 2.032 . S
Mg17 O24 2.079 . S
C18 O15 1.250 . S
C18 O16 1.248 . S
C19 O20 1.264 . S
C19 O27 1.249 . S
O20 C19 1.264 . S
O21 Mg14 1.986 . S
O21 C25 1.246 . S
O22 Mg17 2.032 . S
O22 C25 1.259 . S
O23 Mg14 2.114 . S
O23 C26 1.252 . S
O24 Mg14 2.251 . S
O24 Mg17 2.079 . S
O24 C26 1.273 . S
C25 O21 1.246 . S
C25 O22 1.259 . S
C26 O23 1.252 . S
C26 O24 1.273 . S
O27 Mg14 2.010 . S
O27 C19 1.249 . S
Mg28 O29 2.028 . S
Mg28 O35 1.986 . S
Mg28 O37 2.114 . S
Mg28 O38 2.251 . S
Mg28 O41 2.010 . S
O29 Mg28 2.028 . S
O29 C32 1.250 . S
O30 Mg31 2.028 . S
O30 C32 1.248 . S
Mg31 O30 2.028 . S
Mg31 O36 2.032 . S
Mg31 O38 2.079 . S
C32 O29 1.250 . S
C32 O30 1.248 . S
C33 O34 1.264 . S
C33 O41 1.249 . S
O34 C33 1.264 . S
O35 Mg28 1.986 . S
O35 C39 1.246 . S
O36 Mg31 2.032 . S
O36 C39 1.259 . S
O37 Mg28 2.114 . S
O37 C40 1.252 . S
O38 Mg28 2.251 . S
O38 Mg31 2.079 . S
O38 C40 1.273 . S
C39 O35 1.246 . S
C39 O36 1.259 . S
C40 O37 1.252 . S
C40 O38 1.273 . S
O41 Mg28 2.010 . S
O41 C33 1.249 . S
Mg42 O43 2.028 . S
Mg42 O49 1.986 . S
Mg42 O51 2.114 . S
Mg42 O52 2.251 . S
Mg42 O55 2.010 . S
O43 Mg42 2.028 . S
O43 C46 1.250 . S
O44 Mg45 2.028 . S
O44 C46 1.248 . S
Mg45 O44 2.028 . S
Mg45 O50 2.032 . S
Mg45 O52 2.079 . S
C46 O43 1.250 . S
C46 O44 1.248 . S
C47 O48 1.264 . S
C47 O55 1.249 . S
O48 C47 1.264 . S
O49 Mg42 1.986 . S
O49 C53 1.246 . S
O50 Mg45 2.032 . S
O50 C53 1.259 . S
O51 Mg42 2.114 . S
O51 C54 1.252 . S
O52 Mg42 2.251 . S
O52 Mg45 2.079 . S
O52 C54 1.273 . S
C53 O49 1.246 . S
C53 O50 1.259 . S
C54 O51 1.252 . S
C54 O52 1.273 . S
O55 Mg42 2.010 . S
O55 C47 1.249 . S
Mg56 O57 2.028 . S
Mg56 O63 1.986 . S
Mg56 O65 2.114 . S
Mg56 O66 2.251 . S
Mg56 O69 2.010 . S
O57 Mg56 2.028 . S
O57 C60 1.250 . S
O58 Mg59 2.028 . S
O58 C60 1.248 . S
Mg59 O58 2.028 . S
Mg59 O64 2.032 . S
Mg59 O66 2.079 . S
C60 O57 1.250 . S
C60 O58 1.248 . S
C61 O62 1.264 . S
C61 O69 1.249 . S
O62 C61 1.264 . S
O63 Mg56 1.986 . S
O63 C67 1.246 . S
O64 Mg59 2.032 . S
O64 C67 1.259 . S
O65 Mg56 2.114 . S
O65 C68 1.252 . S
O66 Mg56 2.251 . S
O66 Mg59 2.079 . S
O66 C68 1.273 . S
C67 O63 1.246 . S
C67 O64 1.259 . S
C68 O65 1.252 . S
C68 O66 1.273 . S
O69 Mg56 2.010 . S
O69 C61 1.249 . S
Mg70 O71 2.028 . S
Mg70 O77 1.986 . S
Mg70 O79 2.114 . S
Mg70 O80 2.251 . S
Mg70 O83 2.010 . S
O71 Mg70 2.028 . S
O71 C74 1.250 . S
O72 Mg73 2.028 . S
O72 C74 1.248 . S
Mg73 O72 2.028 . S
Mg73 O78 2.032 . S
Mg73 O80 2.079 . S
C74 O71 1.250 . S
C74 O72 1.248 . S
C75 O76 1.264 . S
C75 O83 1.249 . S
O76 C75 1.264 . S
O77 Mg70 1.986 . S
O77 C81 1.246 . S
O78 Mg73 2.032 . S
O78 C81 1.259 . S
O79 Mg70 2.114 . S
O79 C82 1.252 . S
O80 Mg70 2.251 . S
O80 Mg73 2.079 . S
O80 C82 1.273 . S
C81 O77 1.246 . S
C81 O78 1.259 . S
C82 O79 1.252 . S
C82 O80 1.273 . S
O83 Mg70 2.010 . S
O83 C75 1.249 . S
Mg84 O85 2.028 . S
Mg84 O91 1.986 . S
Mg84 O93 2.114 . S
Mg84 O94 2.251 . S
Mg84 O97 2.010 . S
O85 Mg84 2.028 . S
O85 C88 1.250 . S
O86 Mg87 2.028 . S
O86 C88 1.248 . S
Mg87 O86 2.028 . S
Mg87 O92 2.032 . S
Mg87 O94 2.079 . S
C88 O85 1.250 . S
C88 O86 1.248 . S
C89 O90 1.264 . S
C89 O97 1.249 . S
O90 C89 1.264 . S
O91 Mg84 1.986 . S
O91 C95 1.246 . S
O92 Mg87 2.032 . S
O92 C95 1.259 . S
O93 Mg84 2.114 . S
O93 C96 1.252 . S
O94 Mg84 2.251 . S
O94 Mg87 2.079 . S
O94 C96 1.273 . S
C95 O91 1.246 . S
C95 O92 1.259 . S
C96 O93 1.252 . S
C96 O94 1.273 . S
O97 Mg84 2.010 . S
O97 C89 1.249 . S
Mg98 O99 2.028 . S
Mg98 O105 1.986 . S
Mg98 O107 2.114 . S
Mg98 O108 2.251 . S
Mg98 O111 2.010 . S
O99 Mg98 2.028 . S
O99 C102 1.250 . S
O100 Mg101 2.028 . S
O100 C102 1.248 . S
Mg101 O100 2.028 . S
Mg101 O106 2.032 . S
Mg101 O108 2.079 . S
C102 O99 1.250 . S
C102 O100 1.248 . S
C103 O104 1.264 . S
C103 O111 1.249 . S
O104 C103 1.264 . S
O105 Mg98 1.986 . S
O105 C109 1.246 . S
O106 Mg101 2.032 . S
O106 C109 1.259 . S
O107 Mg98 2.114 . S
O107 C110 1.252 . S
O108 Mg98 2.251 . S
O108 Mg101 2.079 . S
O108 C110 1.273 . S
C109 O105 1.246 . S
C109 O106 1.259 . S
C110 O107 1.252 . S
C110 O108 1.273 . S
O111 Mg98 2.010 . S
O111 C103 1.249 . S
Mg112 O113 2.028 . S
Mg112 O119 1.986 . S
Mg112 O121 2.114 . S
Mg112 O122 2.251 . S
Mg112 O125 2.010 . S
O113 Mg112 2.028 . S
O113 C116 1.250 . S
O114 Mg115 2.028 . S
O114 C116 1.248 . S
Mg115 O114 2.028 . S
Mg115 O120 2.032 . S
Mg115 O122 2.079 . S
C116 O113 1.250 . S
C116 O114 1.248 . S
C117 O118 1.264 . S
C117 O125 1.249 . S
O118 C117 1.264 . S
O119 Mg112 1.986 . S
O119 C123 1.246 . S
O120 Mg115 2.032 . S
O120 C123 1.259 . S
O121 Mg112 2.114 . S
O121 C124 1.252 . S
O122 Mg112 2.251 . S
O122 Mg115 2.079 . S
O122 C124 1.273 . S
C123 O119 1.246 . S
C123 O120 1.259 . S
C124 O121 1.252 . S
C124 O122 1.273 . S
O125 Mg112 2.010 . S
O125 C117 1.249 . S
Mg126 O127 2.028 . S
Mg126 O133 1.986 . S
Mg126 O135 2.114 . S
Mg126 O136 2.251 . S
Mg126 O139 2.010 . S
O127 Mg126 2.028 . S
O127 C130 1.250 . S
O128 Mg129 2.028 . S
O128 C130 1.248 . S
Mg129 O128 2.028 . S
Mg129 O134 2.032 . S
Mg129 O136 2.079 . S
C130 O127 1.250 . S
C130 O128 1.248 . S
C131 O132 1.264 . S
C131 O139 1.249 . S
O132 C131 1.264 . S
O133 Mg126 1.986 . S
O133 C137 1.246 . S
O134 Mg129 2.032 . S
O134 C137 1.259 . S
O135 Mg126 2.114 . S
O135 C138 1.252 . S
O136 Mg126 2.251 . S
O136 Mg129 2.079 . S
O136 C138 1.273 . S
C137 O133 1.246 . S
C137 O134 1.259 . S
C138 O135 1.252 . S
C138 O136 1.273 . S
O139 Mg126 2.010 . S
O139 C131 1.249 . S
Mg140 O141 2.028 . S
Mg140 O147 1.986 . S
Mg140 O149 2.114 . S
Mg140 O150 2.251 . S
Mg140 O153 2.010 . S
O141 Mg140 2.028 . S
O141 C144 1.250 . S
O142 Mg143 2.028 . S
O142 C144 1.248 . S
Mg143 O142 2.028 . S
Mg143 O148 2.032 . S
Mg143 O150 2.079 . S
C144 O141 1.250 . S
C144 O142 1.248 . S
C145 O146 1.264 . S
C145 O153 1.249 . S
O146 C145 1.264 . S
O147 Mg140 1.986 . S
O147 C151 1.246 . S
O148 Mg143 2.032 . S
O148 C151 1.259 . S
O149 Mg140 2.114 . S
O149 C152 1.252 . S
O150 Mg140 2.251 . S
O150 Mg143 2.079 . S
O150 C152 1.273 . S
C151 O147 1.246 . S
C151 O148 1.259 . S
C152 O149 1.252 . S
C152 O150 1.273 . S
O153 Mg140 2.010 . S
O153 C145 1.249 . S
Mg154 O155 2.028 . S
Mg154 O161 1.986 . S
Mg154 O163 2.114 . S
Mg154 O164 2.251 . S
Mg154 O167 2.010 . S
O155 Mg154 2.028 . S
O155 C158 1.250 . S
O156 Mg157 2.028 . S
O156 C158 1.248 . S
Mg157 O156 2.028 . S
Mg157 O162 2.032 . S
Mg157 O164 2.079 . S
C158 O155 1.250 . S
C158 O156 1.248 . S
C159 O160 1.264 . S
C159 O167 1.249 . S
O160 C159 1.264 . S
O161 Mg154 1.986 . S
O161 C165 1.246 . S
O162 Mg157 2.032 . S
O162 C165 1.259 . S
O163 Mg154 2.114 . S
O163 C166 1.252 . S
O164 Mg154 2.251 . S
O164 Mg157 2.079 . S
O164 C166 1.273 . S
C165 O161 1.246 . S
C165 O162 1.259 . S
C166 O163 1.252 . S
C166 O164 1.273 . S
O167 Mg154 2.010 . S
O167 C159 1.249 . S
Mg168 O169 2.028 . S
Mg168 O175 1.986 . S
Mg168 O177 2.114 . S
Mg168 O178 2.251 . S
Mg168 O181 2.010 . S
O169 Mg168 2.028 . S
O169 C172 1.250 . S
O170 Mg171 2.028 . S
O170 C172 1.248 . S
Mg171 O170 2.028 . S
Mg171 O176 2.032 . S
Mg171 O178 2.079 . S
C172 O169 1.250 . S
C172 O170 1.248 . S
C173 O174 1.264 . S
C173 O181 1.249 . S
O174 C173 1.264 . S
O175 Mg168 1.986 . S
O175 C179 1.246 . S
O176 Mg171 2.032 . S
O176 C179 1.259 . S
O177 Mg168 2.114 . S
O177 C180 1.252 . S
O178 Mg168 2.251 . S
O178 Mg171 2.079 . S
O178 C180 1.273 . S
C179 O175 1.246 . S
C179 O176 1.259 . S
C180 O177 1.252 . S
C180 O178 1.273 . S
O181 Mg168 2.010 . S
O181 C173 1.249 . S
Mg182 O183 2.028 . S
Mg182 O189 1.986 . S
Mg182 O191 2.114 . S
Mg182 O192 2.251 . S
Mg182 O195 2.010 . S
O183 Mg182 2.028 . S
O183 C186 1.250 . S
O184 Mg185 2.028 . S
O184 C186 1.248 . S
Mg185 O184 2.028 . S
Mg185 O190 2.032 . S
Mg185 O192 2.079 . S
C186 O183 1.250 . S
C186 O184 1.248 . S
C187 O188 1.264 . S
C187 O195 1.249 . S
O188 C187 1.264 . S
O189 Mg182 1.986 . S
O189 C193 1.246 . S
O190 Mg185 2.032 . S
O190 C193 1.259 . S
O191 Mg182 2.114 . S
O191 C194 1.252 . S
O192 Mg182 2.251 . S
O192 Mg185 2.079 . S
O192 C194 1.273 . S
C193 O189 1.246 . S
C193 O190 1.259 . S
C194 O191 1.252 . S
C194 O192 1.273 . S
O195 Mg182 2.010 . S
O195 C187 1.249 . S
Mg196 O197 2.028 . S
Mg196 O203 1.986 . S
Mg196 O205 2.114 . S
Mg196 O206 2.251 . S
Mg196 O209 2.010 . S
O197 Mg196 2.028 . S
O197 C200 1.250 . S
O198 Mg199 2.028 . S
O198 C200 1.248 . S
Mg199 O198 2.028 . S
Mg199 O204 2.032 . S
Mg199 O206 2.079 . S
C200 O197 1.250 . S
C200 O198 1.248 . S
C201 O202 1.264 . S
C201 O209 1.249 . S
O202 C201 1.264 . S
O203 Mg196 1.986 . S
O203 C207 1.246 . S
O204 Mg199 2.032 . S
O204 C207 1.259 . S
O205 Mg196 2.114 . S
O205 C208 1.252 . S
O206 Mg196 2.251 . S
O206 Mg199 2.079 . S
O206 C208 1.273 . S
C207 O203 1.246 . S
C207 O204 1.259 . S
C208 O205 1.252 . S
C208 O206 1.273 . S
O209 Mg196 2.010 . S
O209 C201 1.249 . S
Mg210 O211 2.028 . S
Mg210 O217 1.986 . S
Mg210 O219 2.114 . S
Mg210 O220 2.251 . S
Mg210 O223 2.010 . S
O211 Mg210 2.028 . S
O211 C214 1.250 . S
O212 Mg213 2.028 . S
O212 C214 1.248 . S
Mg213 O212 2.028 . S
Mg213 O218 2.032 . S
Mg213 O220 2.079 . S
C214 O211 1.250 . S
C214 O212 1.248 . S
C215 O216 1.264 . S
C215 O223 1.249 . S
O216 C215 1.264 . S
O217 Mg210 1.986 . S
O217 C221 1.246 . S
O218 Mg213 2.032 . S
O218 C221 1.259 . S
O219 Mg210 2.114 . S
O219 C222 1.252 . S
O220 Mg210 2.251 . S
O220 Mg213 2.079 . S
O220 C222 1.273 . S
C221 O217 1.246 . S
C221 O218 1.259 . S
C222 O219 1.252 . S
C222 O220 1.273 . S
O223 Mg210 2.010 . S
O223 C215 1.249 . S
H224 C232 0.950 . S
H225 C237 0.950 . S
H226 C234 0.950 . S
H227 C236 0.950 . S
H228 C238 0.950 . S
H229 C240 0.950 . S
H230 C242 0.950 . S
H231 C243 0.950 . S
C232 H224 0.950 . S
C232 C233 1.386 . S
C232 C234 1.391 . S
C233 C232 1.386 . S
C233 C237 1.393 . S
C234 H226 0.950 . S
C234 C232 1.391 . S
C234 C235 1.400 . S
C235 C234 1.400 . S
C235 C236 1.398 . S
C235 C241 1.491 1_554 S
C236 H227 0.950 . S
C236 C235 1.398 . S
C236 C237 1.391 . S
C237 H225 0.950 . S
C237 C233 1.393 . S
C237 C236 1.391 . S
C238 H228 0.950 . S
C238 C239 1.386 . S
C238 C240 1.391 . S
C239 C238 1.386 . S
C239 C243 1.393 . S
C240 H229 0.950 . S
C240 C238 1.391 . S
C240 C241 1.400 . S
C241 C235 1.491 1_556 S
C241 C240 1.400 . S
C241 C242 1.398 . S
C242 H230 0.950 . S
C242 C241 1.398 . S
C242 C243 1.391 . S
C243 H231 0.950 . S
C243 C239 1.393 . S
C243 C242 1.391 . S
H244 C252 0.950 . S
H245 C257 0.950 . S
H246 C254 0.950 . S
H247 C256 0.950 . S
H248 C258 0.950 . S
H249 C260 0.950 . S
H250 C262 0.950 . S
H251 C263 0.950 . S
C252 H244 0.950 . S
C252 C253 1.386 . S
C252 C254 1.391 . S
C253 C252 1.386 . S
C253 C257 1.393 . S
C254 H246 0.950 . S
C254 C252 1.391 . S
C254 C255 1.400 . S
C255 C254 1.400 . S
C255 C256 1.398 . S
C255 C261 1.491 . S
C256 H247 0.950 . S
C256 C255 1.398 . S
C256 C257 1.391 . S
C257 H245 0.950 . S
C257 C253 1.393 . S
C257 C256 1.391 . S
C258 H248 0.950 . S
C258 C259 1.386 . S
C258 C260 1.391 . S
C259 C258 1.386 . S
C259 C263 1.393 . S
C260 H249 0.950 . S
C260 C258 1.391 . S
C260 C261 1.400 . S
C261 C255 1.491 . S
C261 C260 1.400 . S
C261 C262 1.398 . S
C262 H250 0.950 . S
C262 C261 1.398 . S
C262 C263 1.391 . S
C263 H251 0.950 . S
C263 C259 1.393 . S
C263 C262 1.391 . S
H264 C272 0.950 . S
H265 C277 0.950 . S
H266 C274 0.950 . S
H267 C276 0.950 . S
H268 C278 0.950 . S
H269 C280 0.950 . S
H270 C282 0.950 . S
H271 C283 0.950 . S
C272 H264 0.950 . S
C272 C273 1.386 . S
C272 C274 1.391 1_556 S
C273 C272 1.386 . S
C273 C277 1.393 . S
C274 H266 0.950 . S
C274 C272 1.391 1_554 S
C274 C275 1.400 1_554 S
C275 C274 1.400 1_556 S
C275 C276 1.398 . S
C275 C281 1.491 1_556 S
C276 H267 0.950 . S
C276 C275 1.398 . S
C276 C277 1.391 . S
C277 H265 0.950 . S
C277 C273 1.393 . S
C277 C276 1.391 . S
C278 H268 0.950 . S
C278 C279 1.386 . S
C278 C280 1.391 1_554 S
C279 C278 1.386 . S
C279 C283 1.393 . S
C280 H269 0.950 . S
C280 C278 1.391 1_556 S
C280 C281 1.400 1_556 S
C281 C275 1.491 1_554 S
C281 C280 1.400 1_554 S
C281 C282 1.398 . S
C282 H270 0.950 . S
C282 C281 1.398 . S
C282 C283 1.391 . S
C283 H271 0.950 . S
C283 C279 1.393 . S
C283 C282 1.391 . S
H284 C292 0.950 . S
H285 C297 0.950 . S
H286 C294 0.950 . S
H287 C296 0.950 . S
H288 C298 0.950 . S
H289 C300 0.950 . S
H290 C302 0.950 . S
H291 C303 0.950 . S
C292 H284 0.950 . S
C292 C293 1.386 . S
C292 C294 1.391 . S
C293 C292 1.386 . S
C293 C297 1.393 . S
C294 H286 0.950 . S
C294 C292 1.391 . S
C294 C295 1.400 . S
C295 C294 1.400 . S
C295 C296 1.398 . S
C295 C301 1.491 . S
C296 H287 0.950 . S
C296 C295 1.398 . S
C296 C297 1.391 . S
C297 H285 0.950 . S
C297 C293 1.393 . S
C297 C296 1.391 . S
C298 H288 0.950 . S
C298 C299 1.386 . S
C298 C300 1.391 . S
C299 C298 1.386 . S
C299 C303 1.393 . S
C300 H289 0.950 . S
C300 C298 1.391 . S
C300 C301 1.400 . S
C301 C295 1.491 . S
C301 C300 1.400 . S
C301 C302 1.398 . S
C302 H290 0.950 . S
C302 C301 1.398 . S
C302 C303 1.391 . S
C303 H291 0.950 . S
C303 C299 1.393 . S
C303 C302 1.391 . S
H304 C312 0.950 . S
H305 C317 0.950 . S
H306 C314 0.950 . S
H307 C316 0.950 . S
H308 C318 0.950 . S
H309 C320 0.950 . S
H310 C322 0.950 . S
H311 C323 0.950 . S
C312 H304 0.950 . S
C312 C313 1.386 . S
C312 C314 1.391 . S
C313 C312 1.386 . S
C313 C317 1.393 . S
C314 H306 0.950 . S
C314 C312 1.391 . S
C314 C315 1.400 . S
C315 C314 1.400 . S
C315 C316 1.398 1_554 S
C315 C321 1.491 1_554 S
C316 H307 0.950 . S
C316 C315 1.398 1_556 S
C316 C317 1.391 1_556 S
C317 H305 0.950 . S
C317 C313 1.393 . S
C317 C316 1.391 1_554 S
C318 H308 0.950 . S
C318 C319 1.386 . S
C318 C320 1.391 . S
C319 C318 1.386 . S
C319 C323 1.393 . S
C320 H309 0.950 . S
C320 C318 1.391 . S
C320 C321 1.400 . S
C321 C315 1.491 1_556 S
C321 C320 1.400 . S
C321 C322 1.398 1_556 S
C322 H310 0.950 . S
C322 C321 1.398 1_554 S
C322 C323 1.391 1_554 S
C323 H311 0.950 . S
C323 C319 1.393 . S
C323 C322 1.391 1_556 S
H324 C332 0.950 . S
H325 C337 0.950 . S
H326 C334 0.950 . S
H327 C336 0.950 . S
H328 C338 0.950 . S
H329 C340 0.950 . S
H330 C342 0.950 . S
H331 C343 0.950 . S
C332 H324 0.950 . S
C332 C333 1.386 . S
C332 C334 1.391 . S
C333 C332 1.386 . S
C333 C337 1.393 . S
C334 H326 0.950 . S
C334 C332 1.391 . S
C334 C335 1.400 . S
C335 C334 1.400 . S
C335 C336 1.398 . S
C335 C341 1.491 . S
C336 H327 0.950 . S
C336 C335 1.398 . S
C336 C337 1.391 . S
C337 H325 0.950 . S
C337 C333 1.393 . S
C337 C336 1.391 . S
C338 H328 0.950 . S
C338 C339 1.386 . S
C338 C340 1.391 . S
C339 C338 1.386 . S
C339 C343 1.393 . S
C340 H329 0.950 . S
C340 C338 1.391 . S
C340 C341 1.400 . S
C341 C335 1.491 . S
C341 C340 1.400 . S
C341 C342 1.398 . S
C342 H330 0.950 . S
C342 C341 1.398 . S
C342 C343 1.391 . S
C343 H331 0.950 . S
C343 C339 1.393 . S
C343 C342 1.391 . S
H344 C352 0.950 . S
H345 C357 0.950 . S
H346 C354 0.950 . S
H347 C356 0.951 . S
H348 C358 0.950 . S
H349 C360 0.950 . S
H350 C362 0.962 . S
H351 C363 0.950 . S
C352 H344 0.950 . S
C352 C353 1.386 . S
C352 C354 1.391 . S
C353 C352 1.386 . S
C353 C357 1.393 . S
C354 H346 0.950 . S
C354 C352 1.391 . S
C354 C355 1.400 . S
C355 C354 1.400 . S
C355 C356 1.398 . S
C355 C361 1.491 1_556 S
C356 H347 0.951 . S
C356 C355 1.398 . S
C356 C357 1.391 . S
C357 H345 0.950 . S
C357 C353 1.393 . S
C357 C356 1.391 . S
C358 H348 0.950 . S
C358 C359 1.386 . S
C358 C360 1.391 . S
C359 C358 1.386 . S
C359 C363 1.393 . S
C360 H349 0.950 . S
C360 C358 1.391 . S
C360 C361 1.400 . S
C361 C355 1.491 1_554 S
C361 C360 1.400 . S
C361 C362 1.398 . S
C362 H350 0.962 . S
C362 C361 1.398 . S
C362 C363 1.391 . S
C363 H351 0.950 . S
C363 C359 1.393 . S
C363 C362 1.391 . S
H364 C372 0.950 . S
H365 C377 0.950 . S
H366 C374 0.950 . S
H367 C376 0.950 . S
H368 C378 0.950 . S
H369 C380 0.950 . S
H370 C382 0.950 . S
H371 C383 0.950 . S
C372 H364 0.950 . S
C372 C373 1.386 . S
C372 C374 1.391 . S
C373 C372 1.386 . S
C373 C377 1.393 . S
C374 H366 0.950 . S
C374 C372 1.391 . S
C374 C375 1.400 . S
C375 C374 1.400 . S
C375 C376 1.398 . S
C375 C381 1.491 . S
C376 H367 0.950 . S
C376 C375 1.398 . S
C376 C377 1.391 . S
C377 H365 0.950 . S
C377 C373 1.393 . S
C377 C376 1.391 . S
C378 H368 0.950 . S
C378 C379 1.386 . S
C378 C380 1.391 . S
C379 C378 1.386 . S
C379 C383 1.393 . S
C380 H369 0.950 . S
C380 C378 1.391 . S
C380 C381 1.400 . S
C381 C375 1.491 . S
C381 C380 1.400 . S
C381 C382 1.398 . S
C382 H370 0.950 . S
C382 C381 1.398 . S
C382 C383 1.391 . S
C383 H371 0.950 . S
C383 C379 1.393 . S
C383 C382 1.391 . S
H384 C392 0.950 . S
H385 C397 0.950 . S
H386 C394 0.950 1_556 S
H387 C396 0.937 1_565 S
H388 C398 0.950 . S
H389 C400 0.950 1_554 S
H390 C402 0.937 1_545 S
H391 C403 0.950 . S
C392 H384 0.950 . S
C392 C393 1.386 . S
C392 C394 1.391 . S
C393 C392 1.386 . S
C393 C397 1.393 . S
C394 H386 0.950 1_554 S
C394 C392 1.391 . S
C394 C395 1.400 . S
C395 C394 1.400 . S
C395 C396 1.398 . S
C395 C401 1.491 1_544 S
C396 H387 0.937 1_545 S
C396 C395 1.398 . S
C396 C397 1.391 . S
C397 H385 0.950 . S
C397 C393 1.393 . S
C397 C396 1.391 . S
C398 H388 0.950 . S
C398 C399 1.386 . S
C398 C400 1.391 . S
C399 C398 1.386 . S
C399 C403 1.393 . S
C400 H389 0.950 1_556 S
C400 C398 1.391 . S
C400 C401 1.400 . S
C401 C395 1.491 1_566 S
C401 C400 1.400 . S
C401 C402 1.398 . S
C402 H390 0.937 1_565 S
C402 C401 1.398 . S
C402 C403 1.391 . S
C403 H391 0.950 . S
C403 C399 1.393 . S
C403 C402 1.391 . S
H404 C412 0.950 . S
H405 C417 0.950 . S
H406 C414 0.950 1_545 S
H407 C416 0.950 . S
H408 C418 0.950 . S
H409 C420 0.950 1_565 S
H410 C422 0.950 . S
H411 C423 0.950 . S
C412 H404 0.950 . S
C412 C413 1.386 . S
C412 C414 1.391 . S
C413 C412 1.386 . S
C413 C417 1.393 . S
C414 H406 0.950 1_565 S
C414 C412 1.391 . S
C414 C415 1.400 . S
C415 C414 1.400 . S
C415 C416 1.398 . S
C415 C421 1.491 1_565 S
C416 H407 0.950 . S
C416 C415 1.398 . S
C416 C417 1.391 . S
C417 H405 0.950 . S
C417 C413 1.393 . S
C417 C416 1.391 . S
C418 H408 0.950 . S
C418 C419 1.386 . S
C418 C420 1.391 . S
C419 C418 1.386 . S
C419 C423 1.393 . S
C420 H409 0.950 1_545 S
C420 C418 1.391 . S
C420 C421 1.400 . S
C421 C415 1.491 1_545 S
C421 C420 1.400 . S
C421 C422 1.398 . S
C422 H410 0.950 . S
C422 C421 1.398 . S
C422 C423 1.391 . S
C423 H411 0.950 . S
C423 C419 1.393 . S
C423 C422 1.391 . S
H424 C432 0.950 . S
H425 C437 0.950 . S
H426 C434 0.950 1_545 S
H427 C436 0.950 . S
H428 C438 0.950 . S
H429 C440 0.950 1_565 S
H430 C442 0.950 . S
H431 C443 0.950 . S
C432 H424 0.950 . S
C432 C433 1.386 . S
C432 C434 1.391 . S
C433 C432 1.386 . S
C433 C437 1.393 . S
C434 H426 0.950 1_565 S
C434 C432 1.391 . S
C434 C435 1.400 . S
C435 C434 1.400 . S
C435 C436 1.398 1_556 S
C435 C441 1.491 1_566 S
C436 H427 0.950 . S
C436 C435 1.398 1_554 S
C436 C437 1.391 1_554 S
C437 H425 0.950 . S
C437 C433 1.393 . S
C437 C436 1.391 1_556 S
C438 H428 0.950 . S
C438 C439 1.386 . S
C438 C440 1.391 . S
C439 C438 1.386 . S
C439 C443 1.393 . S
C440 H429 0.950 1_545 S
C440 C438 1.391 . S
C440 C441 1.400 . S
C441 C435 1.491 1_544 S
C441 C440 1.400 . S
C441 C442 1.398 1_554 S
C442 H430 0.950 . S
C442 C441 1.398 1_556 S
C442 C443 1.391 1_556 S
C443 H431 0.950 . S
C443 C439 1.393 . S
C443 C442 1.391 1_554 S
H444 C452 0.950 . S
H445 C457 0.950 . S
H446 C454 0.950 1_565 S
H447 C456 0.950 . S
H448 C458 0.950 . S
H449 C460 0.950 1_545 S
H450 C462 0.950 . S
H451 C463 0.950 . S
C452 H444 0.950 . S
C452 C453 1.386 . S
C452 C454 1.391 . S
C453 C452 1.386 . S
C453 C457 1.393 . S
C454 H446 0.950 1_545 S
C454 C452 1.391 . S
C454 C455 1.400 . S
C455 C454 1.400 . S
C455 C456 1.398 . S
C455 C461 1.491 1_545 S
C456 H447 0.950 . S
C456 C455 1.398 . S
C456 C457 1.391 . S
C457 H445 0.950 . S
C457 C453 1.393 . S
C457 C456 1.391 . S
C458 H448 0.950 . S
C458 C459 1.386 . S
C458 C460 1.391 . S
C459 C458 1.386 . S
C459 C463 1.393 . S
C460 H449 0.950 1_565 S
C460 C458 1.391 . S
C460 C461 1.400 . S
C461 C455 1.491 1_565 S
C461 C460 1.400 . S
C461 C462 1.398 . S
C462 H450 0.950 . S
C462 C461 1.398 . S
C462 C463 1.391 . S
C463 H451 0.950 . S
C463 C459 1.393 . S
C463 C462 1.391 . S
H464 C472 0.950 . S
H465 C477 0.950 . S
H466 C474 0.941 1_554 S
H467 C476 0.950 . S
H468 C478 0.950 . S
H469 C480 0.941 1_556 S
H470 C482 0.950 . S
H471 C483 0.950 . S
C472 H464 0.950 . S
C472 C473 1.386 . S
C472 C474 1.391 . S
C473 C472 1.386 . S
C473 C477 1.393 . S
C474 H466 0.941 1_556 S
C474 C472 1.391 . S
C474 C475 1.400 . S
C475 C474 1.400 . S
C475 C476 1.398 . S
C475 C481 1.491 1_556 S
C476 H467 0.950 . S
C476 C475 1.398 . S
C476 C477 1.391 . S
C477 H465 0.950 . S
C477 C473 1.393 . S
C477 C476 1.391 . S
C478 H468 0.950 . S
C478 C479 1.386 . S
C478 C480 1.391 . S
C479 C478 1.386 . S
C479 C483 1.393 . S
C480 H469 0.941 1_554 S
C480 C478 1.391 . S
C480 C481 1.400 . S
C481 C475 1.491 1_554 S
C481 C480 1.400 . S
C481 C482 1.398 . S
C482 H470 0.950 . S
C482 C481 1.398 . S
C482 C483 1.391 . S
C483 H471 0.950 . S
C483 C479 1.393 . S
C483 C482 1.391 . S
H484 C492 0.950 . S
H485 C497 0.950 . S
H486 C494 0.950 . S
H487 C496 0.950 . S
H488 C498 0.950 . S
H489 C500 0.950 . S
H490 C502 0.950 . S
H491 C503 0.950 . S
C492 H484 0.950 . S
C492 C493 1.386 . S
C492 C494 1.391 . S
C493 C492 1.386 . S
C493 C497 1.393 . S
C494 H486 0.950 . S
C494 C492 1.391 . S
C494 C495 1.400 . S
C495 C494 1.400 . S
C495 C496 1.398 . S
C495 C501 1.491 . S
C496 H487 0.950 . S
C496 C495 1.398 . S
C496 C497 1.391 . S
C497 H485 0.950 . S
C497 C493 1.393 . S
C497 C496 1.391 . S
C498 H488 0.950 . S
C498 C499 1.386 . S
C498 C500 1.391 . S
C499 C498 1.386 . S
C499 C503 1.393 . S
C500 H489 0.950 . S
C500 C498 1.391 . S
C500 C501 1.400 . S
C501 C495 1.491 . S
C501 C500 1.400 . S
C501 C502 1.398 . S
C502 H490 0.950 . S
C502 C501 1.398 . S
C502 C503 1.391 . S
C503 H491 0.950 . S
C503 C499 1.393 . S
C503 C502 1.391 . S
H504 C512 0.950 . S
H505 C517 0.950 . S
H506 C514 0.950 . S
H507 C516 0.950 . S
H508 C518 0.950 . S
H509 C520 0.950 . S
H510 C522 0.950 . S
H511 C523 0.950 . S
C512 H504 0.950 . S
C512 C513 1.386 . S
C512 C514 1.391 . S
C513 C512 1.386 . S
C513 C517 1.393 . S
C514 H506 0.950 . S
C514 C512 1.391 . S
C514 C515 1.400 . S
C515 C514 1.400 . S
C515 C516 1.398 1_554 S
C515 C521 1.491 1_554 S
C516 H507 0.950 . S
C516 C515 1.398 1_556 S
C516 C517 1.391 1_556 S
C517 H505 0.950 . S
C517 C513 1.393 . S
C517 C516 1.391 1_554 S
C518 H508 0.950 . S
C518 C519 1.386 . S
C518 C520 1.391 . S
C519 C518 1.386 . S
C519 C523 1.393 . S
C520 H509 0.950 . S
C520 C518 1.391 . S
C520 C521 1.400 . S
C521 C515 1.491 1_556 S
C521 C520 1.400 . S
C521 C522 1.398 1_556 S
C522 H510 0.950 . S
C522 C521 1.398 1_554 S
C522 C523 1.391 1_554 S
C523 H511 0.950 . S
C523 C519 1.393 . S
C523 C522 1.391 1_556 S
H524 C532 0.950 . S
H525 C537 0.950 . S
H526 C534 0.950 . S
H527 C536 0.950 . S
H528 C538 0.950 . S
H529 C540 0.950 . S
H530 C542 0.950 . S
H531 C543 0.950 . S
C532 H524 0.950 . S
C532 C533 1.386 . S
C532 C534 1.391 . S
C533 C532 1.386 . S
C533 C537 1.393 . S
C534 H526 0.950 . S
C534 C532 1.391 . S
C534 C535 1.400 . S
C535 C534 1.400 . S
C535 C536 1.398 . S
C535 C541 1.491 . S
C536 H527 0.950 . S
C536 C535 1.398 . S
C536 C537 1.391 . S
C537 H525 0.950 . S
C537 C533 1.393 . S
C537 C536 1.391 . S
C538 H528 0.950 . S
C538 C539 1.386 . S
C538 C540 1.391 . S
C539 C538 1.386 . S
C539 C543 1.393 . S
C540 H529 0.950 . S
C540 C538 1.391 . S
C540 C541 1.400 . S
C541 C535 1.491 . S
C541 C540 1.400 . S
C541 C542 1.398 . S
C542 H530 0.950 . S
C542 C541 1.398 . S
C542 C543 1.391 . S
C543 H531 0.950 . S
C543 C539 1.393 . S
C543 C542 1.391 . S
H544 C552 0.950 . S
H545 C557 0.950 . S
H546 C554 0.950 . S
H547 C556 0.950 . S
H548 C558 0.950 . S
H549 C560 0.950 . S
H550 C562 0.950 . S
H551 C563 0.950 . S
C552 H544 0.950 . S
C552 C553 1.386 . S
C552 C554 1.391 . S
C553 C552 1.386 . S
C553 C557 1.393 . S
C554 H546 0.950 . S
C554 C552 1.391 . S
C554 C555 1.400 . S
C555 C554 1.400 . S
C555 C556 1.398 . S
C555 C561 1.491 . S
C556 H547 0.950 . S
C556 C555 1.398 . S
C556 C557 1.391 . S
C557 H545 0.950 . S
C557 C553 1.393 . S
C557 C556 1.391 . S
C558 H548 0.950 . S
C558 C559 1.386 . S
C558 C560 1.391 . S
C559 C558 1.386 . S
C559 C563 1.393 . S
C560 H549 0.950 . S
C560 C558 1.391 . S
C560 C561 1.400 . S
C561 C555 1.491 . S
C561 C560 1.400 . S
C561 C562 1.398 . S
C562 H550 0.950 . S
C562 C561 1.398 . S
C562 C563 1.391 . S
C563 H551 0.950 . S
C563 C559 1.393 . S
C563 C562 1.391 . S
H564 C572 0.950 . S
H565 C577 0.950 . S
H566 C574 0.950 . S
H567 C576 0.950 . S
H568 C578 0.950 . S
H569 C580 0.950 . S
H570 C582 0.950 . S
H571 C583 0.950 . S
C572 H564 0.950 . S
C572 C573 1.386 . S
C572 C574 1.391 . S
C573 C572 1.386 . S
C573 C577 1.393 . S
C574 H566 0.950 . S
C574 C572 1.391 . S
C574 C575 1.400 . S
C575 C574 1.400 . S
C575 C576 1.398 . S
C575 C581 1.491 1_655 S
C576 H567 0.950 . S
C576 C575 1.398 . S
C576 C577 1.391 . S
C577 H565 0.950 . S
C577 C573 1.393 . S
C577 C576 1.391 . S
C578 H568 0.950 . S
C578 C579 1.386 . S
C578 C580 1.391 . S
C579 C578 1.386 . S
C579 C583 1.393 . S
C580 H569 0.950 . S
C580 C578 1.391 . S
C580 C581 1.400 . S
C581 C575 1.491 1_455 S
C581 C580 1.400 . S
C581 C582 1.398 . S
C582 H570 0.950 . S
C582 C581 1.398 . S
C582 C583 1.391 . S
C583 H571 0.950 . S
C583 C579 1.393 . S
C583 C582 1.391 . S
H584 C592 0.950 . S
H585 C597 0.950 . S
H586 C594 0.950 . S
H587 C596 0.950 . S
H588 C598 0.950 . S
H589 C600 0.950 . S
H590 C602 0.950 . S
H591 C603 0.950 . S
C592 H584 0.950 . S
C592 C593 1.386 . S
C592 C594 1.391 . S
C593 C592 1.386 . S
C593 C597 1.393 . S
C594 H586 0.950 . S
C594 C592 1.391 . S
C594 C595 1.400 . S
C595 C594 1.400 . S
C595 C596 1.398 . S
C595 C601 1.491 . S
C596 H587 0.950 . S
C596 C595 1.398 . S
C596 C597 1.391 . S
C597 H585 0.950 . S
C597 C593 1.393 . S
C597 C596 1.391 . S
C598 H588 0.950 . S
C598 C599 1.386 . S
C598 C600 1.391 . S
C599 C598 1.386 . S
C599 C603 1.393 . S
C600 H589 0.950 . S
C600 C598 1.391 . S
C600 C601 1.400 . S
C601 C595 1.491 . S
C601 C600 1.400 . S
C601 C602 1.398 . S
C602 H590 0.950 . S
C602 C601 1.398 . S
C602 C603 1.391 . S
C603 H591 0.950 . S
C603 C599 1.393 . S
C603 C602 1.391 . S
H604 C612 0.950 . S
H605 C617 0.950 . S
H606 C614 0.950 . S
H607 C616 0.950 . S
H608 C618 0.950 . S
H609 C620 0.950 . S
H610 C622 0.950 . S
H611 C623 0.950 . S
C612 H604 0.950 . S
C612 C613 1.386 . S
C612 C614 1.391 . S
C613 C612 1.386 . S
C613 C617 1.393 . S
C614 H606 0.950 . S
C614 C612 1.391 . S
C614 C615 1.400 . S
C615 C614 1.400 . S
C615 C616 1.398 . S
C615 C621 1.491 1_455 S
C616 H607 0.950 . S
C616 C615 1.398 . S
C616 C617 1.391 . S
C617 H605 0.950 . S
C617 C613 1.393 . S
C617 C616 1.391 . S
C618 H608 0.950 . S
C618 C619 1.386 . S
C618 C620 1.391 . S
C619 C618 1.386 . S
C619 C623 1.393 . S
C620 H609 0.950 . S
C620 C618 1.391 . S
C620 C621 1.400 . S
C621 C615 1.491 1_655 S
C621 C620 1.400 . S
C621 C622 1.398 . S
C622 H610 0.950 . S
C622 C621 1.398 . S
C622 C623 1.391 . S
C623 H611 0.950 . S
C623 C619 1.393 . S
C623 C622 1.391 . S
H624 C632 0.950 . S
H625 C637 0.950 . S
H626 C634 0.950 . S
H627 C636 0.950 . S
H628 C638 0.950 . S
H629 C640 0.950 . S
H630 C642 0.950 . S
H631 C643 0.950 . S
C632 H624 0.950 . S
C632 C633 1.386 . S
C632 C634 1.391 . S
C633 C632 1.386 . S
C633 C637 1.393 . S
C634 H626 0.950 . S
C634 C632 1.391 . S
C634 C635 1.400 . S
C635 C634 1.400 . S
C635 C636 1.398 . S
C635 C641 1.491 1_455 S
C636 H627 0.950 . S
C636 C635 1.398 . S
C636 C637 1.391 . S
C637 H625 0.950 . S
C637 C633 1.393 . S
C637 C636 1.391 . S
C638 H628 0.950 . S
C638 C639 1.386 . S
C638 C640 1.391 . S
C639 C638 1.386 . S
C639 C643 1.393 . S
C640 H629 0.950 . S
C640 C638 1.391 . S
C640 C641 1.400 . S
C641 C635 1.491 1_655 S
C641 C640 1.400 . S
C641 C642 1.398 . S
C642 H630 0.950 . S
C642 C641 1.398 . S
C642 C643 1.391 . S
C643 H631 0.950 . S
C643 C639 1.393 . S
C643 C642 1.391 . S
H644 C652 0.950 . S
H645 C657 0.950 . S
H646 C654 0.950 . S
H647 C656 0.950 . S
H648 C658 0.950 . S
H649 C660 0.950 . S
H650 C662 0.950 . S
H651 C663 0.950 . S
C652 H644 0.950 . S
C652 C653 1.386 . S
C652 C654 1.391 . S
C653 C652 1.386 . S
C653 C657 1.393 . S
C654 H646 0.950 . S
C654 C652 1.391 . S
C654 C655 1.400 . S
C655 C654 1.400 . S
C655 C656 1.398 . S
C655 C661 1.491 . S
C656 H647 0.950 . S
C656 C655 1.398 . S
C656 C657 1.391 . S
C657 H645 0.950 . S
C657 C653 1.393 . S
C657 C656 1.391 . S
C658 H648 0.950 . S
C658 C659 1.386 . S
C658 C660 1.391 . S
C659 C658 1.386 . S
C659 C663 1.393 . S
C660 H649 0.950 . S
C660 C658 1.391 . S
C660 C661 1.400 . S
C661 C655 1.491 . S
C661 C660 1.400 . S
C661 C662 1.398 . S
C662 H650 0.950 . S
C662 C661 1.398 . S
C662 C663 1.391 . S
C663 H651 0.950 . S
C663 C659 1.393 . S
C663 C662 1.391 . S
H664 C672 0.950 . S
H665 C677 0.950 . S
H666 C674 0.950 . S
H667 C676 0.950 . S
H668 C678 0.950 . S
H669 C680 0.950 . S
H670 C682 0.950 . S
H671 C683 0.950 . S
C672 H664 0.950 . S
C672 C673 1.386 . S
C672 C674 1.391 . S
C673 C672 1.386 . S
C673 C677 1.393 . S
C674 H666 0.950 . S
C674 C672 1.391 . S
C674 C675 1.400 . S
C675 C674 1.400 . S
C675 C676 1.398 . S
C675 C681 1.491 1_455 S
C676 H667 0.950 . S
C676 C675 1.398 . S
C676 C677 1.391 . S
C677 H665 0.950 . S
C677 C673 1.393 . S
C677 C676 1.391 . S
C678 H668 0.950 . S
C678 C679 1.386 . S
C678 C680 1.391 . S
C679 C678 1.386 . S
C679 C683 1.393 . S
C680 H669 0.950 . S
C680 C678 1.391 . S
C680 C681 1.400 . S
C681 C675 1.491 1_655 S
C681 C680 1.400 . S
C681 C682 1.398 . S
C682 H670 0.950 . S
C682 C681 1.398 . S
C682 C683 1.391 . S
C683 H671 0.950 . S
C683 C679 1.393 . S
C683 C682 1.391 . S
H684 C692 0.950 . S
H685 C697 0.950 . S
H686 C694 0.950 . S
H687 C696 0.950 . S
H688 C698 0.950 . S
H689 C700 0.950 . S
H690 C702 0.950 . S
H691 C703 0.950 . S
C692 H684 0.950 . S
C692 C693 1.386 . S
C692 C694 1.391 . S
C693 C692 1.386 . S
C693 C697 1.393 . S
C694 H686 0.950 . S
C694 C692 1.391 . S
C694 C695 1.400 . S
C695 C694 1.400 . S
C695 C696 1.398 . S
C695 C701 1.491 . S
C696 H687 0.950 . S
C696 C695 1.398 . S
C696 C697 1.391 . S
C697 H685 0.950 . S
C697 C693 1.393 . S
C697 C696 1.391 . S
C698 H688 0.950 . S
C698 C699 1.386 . S
C698 C700 1.391 . S
C699 C698 1.386 . S
C699 C703 1.393 . S
C700 H689 0.950 . S
C700 C698 1.391 . S
C700 C701 1.400 . S
C701 C695 1.491 . S
C701 C700 1.400 . S
C701 C702 1.398 . S
C702 H690 0.950 . S
C702 C701 1.398 . S
C702 C703 1.391 . S
C703 H691 0.950 . S
C703 C699 1.393 . S
C703 C702 1.391 . S
H704 C712 0.950 . S
H705 C717 0.950 . S
H706 C714 0.950 . S
H707 C716 0.950 . S
H708 C718 0.950 . S
H709 C720 0.950 . S
H710 C722 0.950 . S
H711 C723 0.950 . S
C712 H704 0.950 . S
C712 C713 1.386 . S
C712 C714 1.391 . S
C713 C712 1.386 . S
C713 C717 1.393 . S
C714 H706 0.950 . S
C714 C712 1.391 . S
C714 C715 1.400 . S
C715 C714 1.400 . S
C715 C716 1.398 . S
C715 C721 1.491 . S
C716 H707 0.950 . S
C716 C715 1.398 . S
C716 C717 1.391 . S
C717 H705 0.950 . S
C717 C713 1.393 . S
C717 C716 1.391 . S
C718 H708 0.950 . S
C718 C719 1.386 . S
C718 C720 1.391 . S
C719 C718 1.386 . S
C719 C723 1.393 . S
C720 H709 0.950 . S
C720 C718 1.391 . S
C720 C721 1.400 . S
C721 C715 1.491 . S
C721 C720 1.400 . S
C721 C722 1.398 . S
C722 H710 0.950 . S
C722 C721 1.398 . S
C722 C723 1.391 . S
C723 H711 0.950 . S
C723 C719 1.393 . S
C723 C722 1.391 . S
H724 C732 0.950 . S
H725 C737 0.950 . S
H726 C734 0.950 . S
H727 C736 0.950 . S
H728 C738 0.950 . S
H729 C740 0.950 . S
H730 C742 0.950 . S
H731 C743 0.950 . S
C732 H724 0.950 . S
C732 C733 1.386 . S
C732 C734 1.391 . S
C733 C732 1.386 . S
C733 C737 1.393 . S
C734 H726 0.950 . S
C734 C732 1.391 . S
C734 C735 1.400 . S
C735 C734 1.400 . S
C735 C736 1.398 . S
C735 C741 1.491 . S
C736 H727 0.950 . S
C736 C735 1.398 . S
C736 C737 1.391 . S
C737 H725 0.950 . S
C737 C733 1.393 . S
C737 C736 1.391 . S
C738 H728 0.950 . S
C738 C739 1.386 . S
C738 C740 1.391 . S
C739 C738 1.386 . S
C739 C743 1.393 . S
C740 H729 0.950 . S
C740 C738 1.391 . S
C740 C741 1.400 . S
C741 C735 1.491 . S
C741 C740 1.400 . S
C741 C742 1.398 . S
C742 H730 0.950 . S
C742 C741 1.398 . S
C742 C743 1.391 . S
C743 H731 0.950 . S
C743 C739 1.393 . S
C743 C742 1.391 . S
H744 C752 0.950 . S
H745 C757 0.950 . S
H746 C754 0.950 . S
H747 C756 0.950 . S
H748 C758 0.950 . S
H749 C760 0.950 . S
H750 C762 0.950 . S
H751 C763 0.950 . S
C752 H744 0.950 . S
C752 C753 1.386 . S
C752 C754 1.391 . S
C753 C752 1.386 . S
C753 C757 1.393 . S
C754 H746 0.950 . S
C754 C752 1.391 . S
C754 C755 1.400 . S
C755 C754 1.400 . S
C755 C756 1.398 . S
C755 C761 1.491 . S
C756 H747 0.950 . S
C756 C755 1.398 . S
C756 C757 1.391 . S
C757 H745 0.950 . S
C757 C753 1.393 . S
C757 C756 1.391 . S
C758 H748 0.950 . S
C758 C759 1.386 . S
C758 C760 1.391 . S
C759 C758 1.386 . S
C759 C763 1.393 . S
C760 H749 0.950 . S
C760 C758 1.391 . S
C760 C761 1.400 . S
C761 C755 1.491 . S
C761 C760 1.400 . S
C761 C762 1.398 . S
C762 H750 0.950 . S
C762 C761 1.398 . S
C762 C763 1.391 . S
C763 H751 0.950 . S
C763 C759 1.393 . S
C763 C762 1.391 . S
H764 C772 0.950 . S
H765 C777 0.950 . S
H766 C774 0.950 . S
H767 C776 0.950 . S
H768 C778 0.950 . S
H769 C780 0.950 . S
H770 C782 0.950 . S
H771 C783 0.950 . S
C772 H764 0.950 . S
C772 C773 1.386 . S
C772 C774 1.391 . S
C773 C772 1.386 . S
C773 C777 1.393 . S
C774 H766 0.950 . S
C774 C772 1.391 . S
C774 C775 1.400 . S
C775 C774 1.400 . S
C775 C776 1.398 . S
C775 C781 1.491 . S
C776 H767 0.950 . S
C776 C775 1.398 . S
C776 C777 1.391 . S
C777 H765 0.950 . S
C777 C773 1.393 . S
C777 C776 1.391 . S
C778 H768 0.950 . S
C778 C779 1.386 . S
C778 C780 1.391 . S
C779 C778 1.386 . S
C779 C783 1.393 . S
C780 H769 0.950 . S
C780 C778 1.391 . S
C780 C781 1.400 . S
C781 C775 1.491 . S
C781 C780 1.400 . S
C781 C782 1.398 . S
C782 H770 0.950 . S
C782 C781 1.398 . S
C782 C783 1.391 . S
C783 H771 0.950 . S
C783 C779 1.393 . S
C783 C782 1.391 . S
H784 C792 0.950 . S
H785 C797 0.950 . S
H786 C794 0.950 . S
H787 C796 0.950 . S
H788 C798 0.950 . S
H789 C800 0.950 . S
H790 C802 0.950 . S
H791 C803 0.950 . S
C792 H784 0.950 . S
C792 C793 1.386 . S
C792 C794 1.391 . S
C793 C792 1.386 . S
C793 C797 1.393 . S
C794 H786 0.950 . S
C794 C792 1.391 . S
C794 C795 1.400 . S
C795 C794 1.400 . S
C795 C796 1.398 . S
C795 C801 1.491 . S
C796 H787 0.950 . S
C796 C795 1.398 . S
C796 C797 1.391 . S
C797 H785 0.950 . S
C797 C793 1.393 . S
C797 C796 1.391 . S
C798 H788 0.950 . S
C798 C799 1.386 . S
C798 C800 1.391 . S
C799 C798 1.386 . S
C799 C803 1.393 . S
C800 H789 0.950 . S
C800 C798 1.391 . S
C800 C801 1.400 . S
C801 C795 1.491 . S
C801 C800 1.400 . S
C801 C802 1.398 . S
C802 H790 0.950 . S
C802 C801 1.398 . S
C802 C803 1.391 . S
C803 H791 0.950 . S
C803 C799 1.393 . S
C803 C802 1.391 . S
H804 C812 0.950 . S
H805 C817 0.950 . S
H806 C814 0.950 . S
H807 C816 0.950 . S
H808 C818 0.950 . S
H809 C820 0.950 . S
H810 C822 0.950 . S
H811 C823 0.950 . S
C812 H804 0.950 . S
C812 C813 1.386 . S
C812 C814 1.391 . S
C813 C812 1.386 . S
C813 C817 1.393 . S
C814 H806 0.950 . S
C814 C812 1.391 . S
C814 C815 1.400 . S
C815 C814 1.400 . S
C815 C816 1.398 . S
C815 C821 1.491 . S
C816 H807 0.950 . S
C816 C815 1.398 . S
C816 C817 1.391 . S
C817 H805 0.950 . S
C817 C813 1.393 . S
C817 C816 1.391 . S
C818 H808 0.950 . S
C818 C819 1.386 . S
C818 C820 1.391 . S
C819 C818 1.386 . S
C819 C823 1.393 . S
C820 H809 0.950 . S
C820 C818 1.391 . S
C820 C821 1.400 . S
C821 C815 1.491 . S
C821 C820 1.400 . S
C821 C822 1.398 . S
C822 H810 0.950 . S
C822 C821 1.398 . S
C822 C823 1.391 . S
C823 H811 0.950 . S
C823 C819 1.393 . S
C823 C822 1.391 . S
H824 C832 0.950 . S
H825 C837 0.950 . S
H826 C834 0.950 . S
H827 C836 0.950 . S
H828 C838 0.950 . S
H829 C840 0.950 . S
H830 C842 0.950 . S
H831 C843 0.950 . S
C832 H824 0.950 . S
C832 C833 1.386 . S
C832 C834 1.391 . S
C833 C832 1.386 . S
C833 C837 1.393 . S
C834 H826 0.950 . S
C834 C832 1.391 . S
C834 C835 1.400 . S
C835 C834 1.400 . S
C835 C836 1.398 . S
C835 C841 1.491 . S
C836 H827 0.950 . S
C836 C835 1.398 . S
C836 C837 1.391 . S
C837 H825 0.950 . S
C837 C833 1.393 . S
C837 C836 1.391 . S
C838 H828 0.950 . S
C838 C839 1.386 . S
C838 C840 1.391 . S
C839 C838 1.386 . S
C839 C843 1.393 . S
C840 H829 0.950 . S
C840 C838 1.391 . S
C840 C841 1.400 . S
C841 C835 1.491 . S
C841 C840 1.400 . S
C841 C842 1.398 . S
C842 H830 0.950 . S
C842 C841 1.398 . S
C842 C843 1.391 . S
C843 H831 0.950 . S
C843 C839 1.393 . S
C843 C842 1.391 . S
H844 C852 0.950 . S
H845 C857 0.950 . S
H846 C854 0.950 . S
H847 C856 0.950 . S
H848 C858 0.950 . S
H849 C860 0.950 . S
H850 C862 0.950 . S
H851 C863 0.950 . S
C852 H844 0.950 . S
C852 C853 1.386 . S
C852 C854 1.391 . S
C853 C852 1.386 . S
C853 C857 1.393 . S
C854 H846 0.950 . S
C854 C852 1.391 . S
C854 C855 1.400 . S
C855 C854 1.400 . S
C855 C856 1.398 . S
C855 C861 1.491 . S
C856 H847 0.950 . S
C856 C855 1.398 . S
C856 C857 1.391 . S
C857 H845 0.950 . S
C857 C853 1.393 . S
C857 C856 1.391 . S
C858 H848 0.950 . S
C858 C859 1.386 . S
C858 C860 1.391 . S
C859 C858 1.386 . S
C859 C863 1.393 . S
C860 H849 0.950 . S
C860 C858 1.391 . S
C860 C861 1.400 . S
C861 C855 1.491 . S
C861 C860 1.400 . S
C861 C862 1.398 . S
C862 H850 0.950 . S
C862 C861 1.398 . S
C862 C863 1.391 . S
C863 H851 0.950 . S
C863 C859 1.393 . S
C863 C862 1.391 . S
C233 C11 1.370 . S
C239 C180 1.389 . S
C253 C194 1.387 . S
C259 C25 1.362 . S
C273 C39 1.362 . S
C279 C208 1.387 . S
C293 C222 1.386 . S
C299 C53 1.365 . S
C313 C123 1.377 . S
C319 C68 1.384 . S
C333 C82 1.389 . S
C339 C137 1.369 . S
C353 C151 1.372 . S
C359 C96 1.384 . S
C373 C110 1.388 . S
C379 C165 1.362 . S
C393 C4 1.464 . S
C399 C32 1.456 . S
C413 C18 1.450 . S
C419 C46 1.461 . S
C433 C60 1.393 . S
C439 C88 1.378 . S
C453 C74 1.394 . S
C459 C102 1.380 . S
C473 C144 1.462 . S
C479 C116 1.458 . S
C493 C130 1.450 . S
C499 C158 1.461 . S
C513 C200 1.392 . S
C519 C172 1.378 . S
C533 C186 1.390 . S
C539 C214 1.379 . S
C553 C89 1.332 . S
C559 C5 1.285 . S
C573 C103 1.292 . S
C579 C19 1.323 . S
C593 C33 1.308 . S
C599 C61 1.307 . S
C613 C47 1.325 . S
C619 C75 1.293 . S
C633 C201 1.330 . S
C639 C117 1.287 . S
C653 C131 1.313 . S
C659 C215 1.301 . S
C673 C173 1.311 . S
C679 C145 1.307 . S
C693 C159 1.322 . S
C699 C187 1.293 . S
C713 C12 1.417 . S
C719 C54 1.420 . S
C733 C40 1.421 . S
C739 C26 1.424 . S
C753 C67 1.313 . S
C759 C109 1.315 . S
C773 C81 1.309 . S
C779 C95 1.307 . S
C793 C166 1.421 . S
C799 C124 1.424 . S
C813 C138 1.424 . S
C819 C152 1.421 . S
C833 C221 1.318 . S
C839 C179 1.316 . S
C853 C193 1.307 . S
C859 C207 1.308 . S
