# Generated by pormake.
# Topology ulh, (4)-cn, num edge types: 1
# Building blocks:
#     Node 0, Type 0, BuildingBlock: CEKHIL_clean_sbu_0, # of connection points: 4
#     Node 1, Type 0, BuildingBlock: CEKHIL_clean_sbu_0, # of connection points: 4
#     Node 2, Type 0, BuildingBlock: CEKHIL_clean_sbu_0, # of connection points: 4
#     Node 3, Type 0, BuildingBlock: CEKHIL_clean_sbu_0, # of connection points: 4
#     Node 4, Type 0, BuildingBlock: CEKHIL_clean_sbu_0, # of connection points: 4
#     Node 5, Type 0, BuildingBlock: CEKHIL_clean_sbu_0, # of connection points: 4
#     Node 6, Type 0, BuildingBlock: CEKHIL_clean_sbu_0, # of connection points: 4
#     Node 7, Type 0, BuildingBlock: CEKHIL_clean_sbu_0, # of connection points: 4
#     Node 8, Type 0, BuildingBlock: CEKHIL_clean_sbu_0, # of connection points: 4
#     Node 9, Type 0, BuildingBlock: CEKHIL_clean_sbu_0, # of connection points: 4
#     Node 10, Type 0, BuildingBlock: CEKHIL_clean_sbu_0, # of connection points: 4
#     Node 11, Type 0, BuildingBlock: CEKHIL_clean_sbu_0, # of connection points: 4
#     Node 12, Type 0, BuildingBlock: CEKHIL_clean_sbu_0, # of connection points: 4
#     Node 13, Type 0, BuildingBlock: CEKHIL_clean_sbu_0, # of connection points: 4
#     Node 14, Type 0, BuildingBlock: CEKHIL_clean_sbu_0, # of connection points: 4
#     Node 15, Type 0, BuildingBlock: CEKHIL_clean_sbu_0, # of connection points: 4
#     Node 16, Type 0, BuildingBlock: CEKHIL_clean_sbu_0, # of connection points: 4
#     Node 17, Type 0, BuildingBlock: CEKHIL_clean_sbu_0, # of connection points: 4
#     Node 18, Type 0, BuildingBlock: CEKHIL_clean_sbu_0, # of connection points: 4
#     Node 19, Type 0, BuildingBlock: CEKHIL_clean_sbu_0, # of connection points: 4
#     Node 20, Type 0, BuildingBlock: CEKHIL_clean_sbu_0, # of connection points: 4
#     Node 21, Type 0, BuildingBlock: CEKHIL_clean_sbu_0, # of connection points: 4
#     Node 22, Type 0, BuildingBlock: CEKHIL_clean_sbu_0, # of connection points: 4
#     Node 23, Type 0, BuildingBlock: CEKHIL_clean_sbu_0, # of connection points: 4
#     Node 24, Type 0, BuildingBlock: CEKHIL_clean_sbu_0, # of connection points: 4
#     Node 25, Type 0, BuildingBlock: CEKHIL_clean_sbu_0, # of connection points: 4
#     Node 26, Type 0, BuildingBlock: CEKHIL_clean_sbu_0, # of connection points: 4
#     Node 27, Type 0, BuildingBlock: CEKHIL_clean_sbu_0, # of connection points: 4
#     Node 28, Type 0, BuildingBlock: CEKHIL_clean_sbu_0, # of connection points: 4
#     Node 29, Type 0, BuildingBlock: CEKHIL_clean_sbu_0, # of connection points: 4
#     Node 30, Type 0, BuildingBlock: CEKHIL_clean_sbu_0, # of connection points: 4
#     Node 31, Type 0, BuildingBlock: CEKHIL_clean_sbu_0, # of connection points: 4
#     Node 32, Type 0, BuildingBlock: CEKHIL_clean_sbu_0, # of connection points: 4
#     Node 33, Type 0, BuildingBlock: CEKHIL_clean_sbu_0, # of connection points: 4
#     Node 34, Type 0, BuildingBlock: CEKHIL_clean_sbu_0, # of connection points: 4
#     Node 35, Type 0, BuildingBlock: CEKHIL_clean_sbu_0, # of connection points: 4
#     Node 36, Type 0, BuildingBlock: CEKHIL_clean_sbu_0, # of connection points: 4
#     Node 37, Type 0, BuildingBlock: CEKHIL_clean_sbu_0, # of connection points: 4
#     Node 38, Type 0, BuildingBlock: CEKHIL_clean_sbu_0, # of connection points: 4
#     Node 39, Type 0, BuildingBlock: CEKHIL_clean_sbu_0, # of connection points: 4
#     Node 40, Type 0, BuildingBlock: CEKHIL_clean_sbu_0, # of connection points: 4
#     Node 41, Type 0, BuildingBlock: CEKHIL_clean_sbu_0, # of connection points: 4
#     Node 42, Type 0, BuildingBlock: CEKHIL_clean_sbu_0, # of connection points: 4
#     Node 43, Type 0, BuildingBlock: CEKHIL_clean_sbu_0, # of connection points: 4
#     Node 44, Type 0, BuildingBlock: CEKHIL_clean_sbu_0, # of connection points: 4
#     Node 45, Type 0, BuildingBlock: CEKHIL_clean_sbu_0, # of connection points: 4
#     Node 46, Type 0, BuildingBlock: CEKHIL_clean_sbu_0, # of connection points: 4
#     Node 47, Type 0, BuildingBlock: CEKHIL_clean_sbu_0, # of connection points: 4
#     Node 48, Type 0, BuildingBlock: CEKHIL_clean_sbu_0, # of connection points: 4
#     Node 49, Type 0, BuildingBlock: CEKHIL_clean_sbu_0, # of connection points: 4
#     Node 50, Type 0, BuildingBlock: CEKHIL_clean_sbu_0, # of connection points: 4
#     Node 51, Type 0, BuildingBlock: CEKHIL_clean_sbu_0, # of connection points: 4
#     Node 52, Type 0, BuildingBlock: CEKHIL_clean_sbu_0, # of connection points: 4
#     Node 53, Type 0, BuildingBlock: CEKHIL_clean_sbu_0, # of connection points: 4
#     Node 54, Type 0, BuildingBlock: CEKHIL_clean_sbu_0, # of connection points: 4
#     Node 55, Type 0, BuildingBlock: CEKHIL_clean_sbu_0, # of connection points: 4
#     Node 56, Type 0, BuildingBlock: CEKHIL_clean_sbu_0, # of connection points: 4
#     Node 57, Type 0, BuildingBlock: CEKHIL_clean_sbu_0, # of connection points: 4
#     Node 58, Type 0, BuildingBlock: CEKHIL_clean_sbu_0, # of connection points: 4
#     Node 59, Type 0, BuildingBlock: CEKHIL_clean_sbu_0, # of connection points: 4
#     Node 60, Type 0, BuildingBlock: CEKHIL_clean_sbu_0, # of connection points: 4
#     Node 61, Type 0, BuildingBlock: CEKHIL_clean_sbu_0, # of connection points: 4
#     Node 62, Type 0, BuildingBlock: CEKHIL_clean_sbu_0, # of connection points: 4
#     Node 63, Type 0, BuildingBlock: CEKHIL_clean_sbu_0, # of connection points: 4
#     Node 64, Type 0, BuildingBlock: CEKHIL_clean_sbu_0, # of connection points: 4
#     Node 65, Type 0, BuildingBlock: CEKHIL_clean_sbu_0, # of connection points: 4
#     Node 66, Type 0, BuildingBlock: CEKHIL_clean_sbu_0, # of connection points: 4
#     Node 67, Type 0, BuildingBlock: CEKHIL_clean_sbu_0, # of connection points: 4
#     Node 68, Type 0, BuildingBlock: CEKHIL_clean_sbu_0, # of connection points: 4
#     Node 69, Type 0, BuildingBlock: CEKHIL_clean_sbu_0, # of connection points: 4
#     Node 70, Type 0, BuildingBlock: CEKHIL_clean_sbu_0, # of connection points: 4
#     Node 71, Type 0, BuildingBlock: CEKHIL_clean_sbu_0, # of connection points: 4
#     Node 72, Type 0, BuildingBlock: CEKHIL_clean_sbu_0, # of connection points: 4
#     Node 73, Type 0, BuildingBlock: CEKHIL_clean_sbu_0, # of connection points: 4
#     Node 74, Type 0, BuildingBlock: CEKHIL_clean_sbu_0, # of connection points: 4
#     Node 75, Type 0, BuildingBlock: CEKHIL_clean_sbu_0, # of connection points: 4
#     Node 76, Type 0, BuildingBlock: CEKHIL_clean_sbu_0, # of connection points: 4
#     Node 77, Type 0, BuildingBlock: CEKHIL_clean_sbu_0, # of connection points: 4
#     Node 78, Type 0, BuildingBlock: CEKHIL_clean_sbu_0, # of connection points: 4
#     Node 79, Type 0, BuildingBlock: CEKHIL_clean_sbu_0, # of connection points: 4
#     Node 80, Type 0, BuildingBlock: CEKHIL_clean_sbu_0, # of connection points: 4
#     Node 81, Type 0, BuildingBlock: CEKHIL_clean_sbu_0, # of connection points: 4
#     Node 82, Type 0, BuildingBlock: CEKHIL_clean_sbu_0, # of connection points: 4
#     Node 83, Type 0, BuildingBlock: CEKHIL_clean_sbu_0, # of connection points: 4
#     Node 84, Type 0, BuildingBlock: CEKHIL_clean_sbu_0, # of connection points: 4
#     Node 85, Type 0, BuildingBlock: CEKHIL_clean_sbu_0, # of connection points: 4
#     Node 86, Type 0, BuildingBlock: CEKHIL_clean_sbu_0, # of connection points: 4
#     Node 87, Type 0, BuildingBlock: CEKHIL_clean_sbu_0, # of connection points: 4
#     Node 88, Type 0, BuildingBlock: CEKHIL_clean_sbu_0, # of connection points: 4
#     Node 89, Type 0, BuildingBlock: CEKHIL_clean_sbu_0, # of connection points: 4
#     Node 90, Type 0, BuildingBlock: CEKHIL_clean_sbu_0, # of connection points: 4
#     Node 91, Type 0, BuildingBlock: CEKHIL_clean_sbu_0, # of connection points: 4
#     Node 92, Type 0, BuildingBlock: CEKHIL_clean_sbu_0, # of connection points: 4
#     Node 93, Type 0, BuildingBlock: CEKHIL_clean_sbu_0, # of connection points: 4
#     Node 94, Type 0, BuildingBlock: CEKHIL_clean_sbu_0, # of connection points: 4
#     Node 95, Type 0, BuildingBlock: CEKHIL_clean_sbu_0, # of connection points: 4
#     Edge 96, Type (0, 0), BuildingBlock: XUDNAN_clean_linker_2, # of connection points: 2
#     Edge 97, Type (0, 0), BuildingBlock: XUDNAN_clean_linker_2, # of connection points: 2
#     Edge 98, Type (0, 0), BuildingBlock: XUDNAN_clean_linker_2, # of connection points: 2
#     Edge 99, Type (0, 0), BuildingBlock: XUDNAN_clean_linker_2, # of connection points: 2
#     Edge 100, Type (0, 0), BuildingBlock: XUDNAN_clean_linker_2, # of connection points: 2
#     Edge 101, Type (0, 0), BuildingBlock: XUDNAN_clean_linker_2, # of connection points: 2
#     Edge 102, Type (0, 0), BuildingBlock: XUDNAN_clean_linker_2, # of connection points: 2
#     Edge 103, Type (0, 0), BuildingBlock: XUDNAN_clean_linker_2, # of connection points: 2
#     Edge 104, Type (0, 0), BuildingBlock: XUDNAN_clean_linker_2, # of connection points: 2
#     Edge 105, Type (0, 0), BuildingBlock: XUDNAN_clean_linker_2, # of connection points: 2
#     Edge 106, Type (0, 0), BuildingBlock: XUDNAN_clean_linker_2, # of connection points: 2
#     Edge 107, Type (0, 0), BuildingBlock: XUDNAN_clean_linker_2, # of connection points: 2
#     Edge 108, Type (0, 0), BuildingBlock: XUDNAN_clean_linker_2, # of connection points: 2
#     Edge 109, Type (0, 0), BuildingBlock: XUDNAN_clean_linker_2, # of connection points: 2
#     Edge 110, Type (0, 0), BuildingBlock: XUDNAN_clean_linker_2, # of connection points: 2
#     Edge 111, Type (0, 0), BuildingBlock: XUDNAN_clean_linker_2, # of connection points: 2
#     Edge 112, Type (0, 0), BuildingBlock: XUDNAN_clean_linker_2, # of connection points: 2
#     Edge 113, Type (0, 0), BuildingBlock: XUDNAN_clean_linker_2, # of connection points: 2
#     Edge 114, Type (0, 0), BuildingBlock: XUDNAN_clean_linker_2, # of connection points: 2
#     Edge 115, Type (0, 0), BuildingBlock: XUDNAN_clean_linker_2, # of connection points: 2
#     Edge 116, Type (0, 0), BuildingBlock: XUDNAN_clean_linker_2, # of connection points: 2
#     Edge 117, Type (0, 0), BuildingBlock: XUDNAN_clean_linker_2, # of connection points: 2
#     Edge 118, Type (0, 0), BuildingBlock: XUDNAN_clean_linker_2, # of connection points: 2
#     Edge 119, Type (0, 0), BuildingBlock: XUDNAN_clean_linker_2, # of connection points: 2
#     Edge 120, Type (0, 0), BuildingBlock: XUDNAN_clean_linker_2, # of connection points: 2
#     Edge 121, Type (0, 0), BuildingBlock: XUDNAN_clean_linker_2, # of connection points: 2
#     Edge 122, Type (0, 0), BuildingBlock: XUDNAN_clean_linker_2, # of connection points: 2
#     Edge 123, Type (0, 0), BuildingBlock: XUDNAN_clean_linker_2, # of connection points: 2
#     Edge 124, Type (0, 0), BuildingBlock: XUDNAN_clean_linker_2, # of connection points: 2
#     Edge 125, Type (0, 0), BuildingBlock: XUDNAN_clean_linker_2, # of connection points: 2
#     Edge 126, Type (0, 0), BuildingBlock: XUDNAN_clean_linker_2, # of connection points: 2
#     Edge 127, Type (0, 0), BuildingBlock: XUDNAN_clean_linker_2, # of connection points: 2
#     Edge 128, Type (0, 0), BuildingBlock: XUDNAN_clean_linker_2, # of connection points: 2
#     Edge 129, Type (0, 0), BuildingBlock: XUDNAN_clean_linker_2, # of connection points: 2
#     Edge 130, Type (0, 0), BuildingBlock: XUDNAN_clean_linker_2, # of connection points: 2
#     Edge 131, Type (0, 0), BuildingBlock: XUDNAN_clean_linker_2, # of connection points: 2
#     Edge 132, Type (0, 0), BuildingBlock: XUDNAN_clean_linker_2, # of connection points: 2
#     Edge 133, Type (0, 0), BuildingBlock: XUDNAN_clean_linker_2, # of connection points: 2
#     Edge 134, Type (0, 0), BuildingBlock: XUDNAN_clean_linker_2, # of connection points: 2
#     Edge 135, Type (0, 0), BuildingBlock: XUDNAN_clean_linker_2, # of connection points: 2
#     Edge 136, Type (0, 0), BuildingBlock: XUDNAN_clean_linker_2, # of connection points: 2
#     Edge 137, Type (0, 0), BuildingBlock: XUDNAN_clean_linker_2, # of connection points: 2
#     Edge 138, Type (0, 0), BuildingBlock: XUDNAN_clean_linker_2, # of connection points: 2
#     Edge 139, Type (0, 0), BuildingBlock: XUDNAN_clean_linker_2, # of connection points: 2
#     Edge 140, Type (0, 0), BuildingBlock: XUDNAN_clean_linker_2, # of connection points: 2
#     Edge 141, Type (0, 0), BuildingBlock: XUDNAN_clean_linker_2, # of connection points: 2
#     Edge 142, Type (0, 0), BuildingBlock: XUDNAN_clean_linker_2, # of connection points: 2
#     Edge 143, Type (0, 0), BuildingBlock: XUDNAN_clean_linker_2, # of connection points: 2
#     Edge 144, Type (0, 0), BuildingBlock: XUDNAN_clean_linker_2, # of connection points: 2
#     Edge 145, Type (0, 0), BuildingBlock: XUDNAN_clean_linker_2, # of connection points: 2
#     Edge 146, Type (0, 0), BuildingBlock: XUDNAN_clean_linker_2, # of connection points: 2
#     Edge 147, Type (0, 0), BuildingBlock: XUDNAN_clean_linker_2, # of connection points: 2
#     Edge 148, Type (0, 0), BuildingBlock: XUDNAN_clean_linker_2, # of connection points: 2
#     Edge 149, Type (0, 0), BuildingBlock: XUDNAN_clean_linker_2, # of connection points: 2
#     Edge 150, Type (0, 0), BuildingBlock: XUDNAN_clean_linker_2, # of connection points: 2
#     Edge 151, Type (0, 0), BuildingBlock: XUDNAN_clean_linker_2, # of connection points: 2
#     Edge 152, Type (0, 0), BuildingBlock: XUDNAN_clean_linker_2, # of connection points: 2
#     Edge 153, Type (0, 0), BuildingBlock: XUDNAN_clean_linker_2, # of connection points: 2
#     Edge 154, Type (0, 0), BuildingBlock: XUDNAN_clean_linker_2, # of connection points: 2
#     Edge 155, Type (0, 0), BuildingBlock: XUDNAN_clean_linker_2, # of connection points: 2
#     Edge 156, Type (0, 0), BuildingBlock: XUDNAN_clean_linker_2, # of connection points: 2
#     Edge 157, Type (0, 0), BuildingBlock: XUDNAN_clean_linker_2, # of connection points: 2
#     Edge 158, Type (0, 0), BuildingBlock: XUDNAN_clean_linker_2, # of connection points: 2
#     Edge 159, Type (0, 0), BuildingBlock: XUDNAN_clean_linker_2, # of connection points: 2
#     Edge 160, Type (0, 0), BuildingBlock: XUDNAN_clean_linker_2, # of connection points: 2
#     Edge 161, Type (0, 0), BuildingBlock: XUDNAN_clean_linker_2, # of connection points: 2
#     Edge 162, Type (0, 0), BuildingBlock: XUDNAN_clean_linker_2, # of connection points: 2
#     Edge 163, Type (0, 0), BuildingBlock: XUDNAN_clean_linker_2, # of connection points: 2
#     Edge 164, Type (0, 0), BuildingBlock: XUDNAN_clean_linker_2, # of connection points: 2
#     Edge 165, Type (0, 0), BuildingBlock: XUDNAN_clean_linker_2, # of connection points: 2
#     Edge 166, Type (0, 0), BuildingBlock: XUDNAN_clean_linker_2, # of connection points: 2
#     Edge 167, Type (0, 0), BuildingBlock: XUDNAN_clean_linker_2, # of connection points: 2
#     Edge 168, Type (0, 0), BuildingBlock: XUDNAN_clean_linker_2, # of connection points: 2
#     Edge 169, Type (0, 0), BuildingBlock: XUDNAN_clean_linker_2, # of connection points: 2
#     Edge 170, Type (0, 0), BuildingBlock: XUDNAN_clean_linker_2, # of connection points: 2
#     Edge 171, Type (0, 0), BuildingBlock: XUDNAN_clean_linker_2, # of connection points: 2
#     Edge 172, Type (0, 0), BuildingBlock: XUDNAN_clean_linker_2, # of connection points: 2
#     Edge 173, Type (0, 0), BuildingBlock: XUDNAN_clean_linker_2, # of connection points: 2
#     Edge 174, Type (0, 0), BuildingBlock: XUDNAN_clean_linker_2, # of connection points: 2
#     Edge 175, Type (0, 0), BuildingBlock: XUDNAN_clean_linker_2, # of connection points: 2
#     Edge 176, Type (0, 0), BuildingBlock: XUDNAN_clean_linker_2, # of connection points: 2
#     Edge 177, Type (0, 0), BuildingBlock: XUDNAN_clean_linker_2, # of connection points: 2
#     Edge 178, Type (0, 0), BuildingBlock: XUDNAN_clean_linker_2, # of connection points: 2
#     Edge 179, Type (0, 0), BuildingBlock: XUDNAN_clean_linker_2, # of connection points: 2
#     Edge 180, Type (0, 0), BuildingBlock: XUDNAN_clean_linker_2, # of connection points: 2
#     Edge 181, Type (0, 0), BuildingBlock: XUDNAN_clean_linker_2, # of connection points: 2
#     Edge 182, Type (0, 0), BuildingBlock: XUDNAN_clean_linker_2, # of connection points: 2
#     Edge 183, Type (0, 0), BuildingBlock: XUDNAN_clean_linker_2, # of connection points: 2
#     Edge 184, Type (0, 0), BuildingBlock: XUDNAN_clean_linker_2, # of connection points: 2
#     Edge 185, Type (0, 0), BuildingBlock: XUDNAN_clean_linker_2, # of connection points: 2
#     Edge 186, Type (0, 0), BuildingBlock: XUDNAN_clean_linker_2, # of connection points: 2
#     Edge 187, Type (0, 0), BuildingBlock: XUDNAN_clean_linker_2, # of connection points: 2
#     Edge 188, Type (0, 0), BuildingBlock: XUDNAN_clean_linker_2, # of connection points: 2
#     Edge 189, Type (0, 0), BuildingBlock: XUDNAN_clean_linker_2, # of connection points: 2
#     Edge 190, Type (0, 0), BuildingBlock: XUDNAN_clean_linker_2, # of connection points: 2
#     Edge 191, Type (0, 0), BuildingBlock: XUDNAN_clean_linker_2, # of connection points: 2
#     Edge 192, Type (0, 0), BuildingBlock: XUDNAN_clean_linker_2, # of connection points: 2
#     Edge 193, Type (0, 0), BuildingBlock: XUDNAN_clean_linker_2, # of connection points: 2
#     Edge 194, Type (0, 0), BuildingBlock: XUDNAN_clean_linker_2, # of connection points: 2
#     Edge 195, Type (0, 0), BuildingBlock: XUDNAN_clean_linker_2, # of connection points: 2
#     Edge 196, Type (0, 0), BuildingBlock: XUDNAN_clean_linker_2, # of connection points: 2
#     Edge 197, Type (0, 0), BuildingBlock: XUDNAN_clean_linker_2, # of connection points: 2
#     Edge 198, Type (0, 0), BuildingBlock: XUDNAN_clean_linker_2, # of connection points: 2
#     Edge 199, Type (0, 0), BuildingBlock: XUDNAN_clean_linker_2, # of connection points: 2
#     Edge 200, Type (0, 0), BuildingBlock: XUDNAN_clean_linker_2, # of connection points: 2
#     Edge 201, Type (0, 0), BuildingBlock: XUDNAN_clean_linker_2, # of connection points: 2
#     Edge 202, Type (0, 0), BuildingBlock: XUDNAN_clean_linker_2, # of connection points: 2
#     Edge 203, Type (0, 0), BuildingBlock: XUDNAN_clean_linker_2, # of connection points: 2
#     Edge 204, Type (0, 0), BuildingBlock: XUDNAN_clean_linker_2, # of connection points: 2
#     Edge 205, Type (0, 0), BuildingBlock: XUDNAN_clean_linker_2, # of connection points: 2
#     Edge 206, Type (0, 0), BuildingBlock: XUDNAN_clean_linker_2, # of connection points: 2
#     Edge 207, Type (0, 0), BuildingBlock: XUDNAN_clean_linker_2, # of connection points: 2
#     Edge 208, Type (0, 0), BuildingBlock: XUDNAN_clean_linker_2, # of connection points: 2
#     Edge 209, Type (0, 0), BuildingBlock: XUDNAN_clean_linker_2, # of connection points: 2
#     Edge 210, Type (0, 0), BuildingBlock: XUDNAN_clean_linker_2, # of connection points: 2
#     Edge 211, Type (0, 0), BuildingBlock: XUDNAN_clean_linker_2, # of connection points: 2
#     Edge 212, Type (0, 0), BuildingBlock: XUDNAN_clean_linker_2, # of connection points: 2
#     Edge 213, Type (0, 0), BuildingBlock: XUDNAN_clean_linker_2, # of connection points: 2
#     Edge 214, Type (0, 0), BuildingBlock: XUDNAN_clean_linker_2, # of connection points: 2
#     Edge 215, Type (0, 0), BuildingBlock: XUDNAN_clean_linker_2, # of connection points: 2
#     Edge 216, Type (0, 0), BuildingBlock: XUDNAN_clean_linker_2, # of connection points: 2
#     Edge 217, Type (0, 0), BuildingBlock: XUDNAN_clean_linker_2, # of connection points: 2
#     Edge 218, Type (0, 0), BuildingBlock: XUDNAN_clean_linker_2, # of connection points: 2
#     Edge 219, Type (0, 0), BuildingBlock: XUDNAN_clean_linker_2, # of connection points: 2
#     Edge 220, Type (0, 0), BuildingBlock: XUDNAN_clean_linker_2, # of connection points: 2
#     Edge 221, Type (0, 0), BuildingBlock: XUDNAN_clean_linker_2, # of connection points: 2
#     Edge 222, Type (0, 0), BuildingBlock: XUDNAN_clean_linker_2, # of connection points: 2
#     Edge 223, Type (0, 0), BuildingBlock: XUDNAN_clean_linker_2, # of connection points: 2
#     Edge 224, Type (0, 0), BuildingBlock: XUDNAN_clean_linker_2, # of connection points: 2
#     Edge 225, Type (0, 0), BuildingBlock: XUDNAN_clean_linker_2, # of connection points: 2
#     Edge 226, Type (0, 0), BuildingBlock: XUDNAN_clean_linker_2, # of connection points: 2
#     Edge 227, Type (0, 0), BuildingBlock: XUDNAN_clean_linker_2, # of connection points: 2
#     Edge 228, Type (0, 0), BuildingBlock: XUDNAN_clean_linker_2, # of connection points: 2
#     Edge 229, Type (0, 0), BuildingBlock: XUDNAN_clean_linker_2, # of connection points: 2
#     Edge 230, Type (0, 0), BuildingBlock: XUDNAN_clean_linker_2, # of connection points: 2
#     Edge 231, Type (0, 0), BuildingBlock: XUDNAN_clean_linker_2, # of connection points: 2
#     Edge 232, Type (0, 0), BuildingBlock: XUDNAN_clean_linker_2, # of connection points: 2
#     Edge 233, Type (0, 0), BuildingBlock: XUDNAN_clean_linker_2, # of connection points: 2
#     Edge 234, Type (0, 0), BuildingBlock: XUDNAN_clean_linker_2, # of connection points: 2
#     Edge 235, Type (0, 0), BuildingBlock: XUDNAN_clean_linker_2, # of connection points: 2
#     Edge 236, Type (0, 0), BuildingBlock: XUDNAN_clean_linker_2, # of connection points: 2
#     Edge 237, Type (0, 0), BuildingBlock: XUDNAN_clean_linker_2, # of connection points: 2
#     Edge 238, Type (0, 0), BuildingBlock: XUDNAN_clean_linker_2, # of connection points: 2
#     Edge 239, Type (0, 0), BuildingBlock: XUDNAN_clean_linker_2, # of connection points: 2
#     Edge 240, Type (0, 0), BuildingBlock: XUDNAN_clean_linker_2, # of connection points: 2
#     Edge 241, Type (0, 0), BuildingBlock: XUDNAN_clean_linker_2, # of connection points: 2
#     Edge 242, Type (0, 0), BuildingBlock: XUDNAN_clean_linker_2, # of connection points: 2
#     Edge 243, Type (0, 0), BuildingBlock: XUDNAN_clean_linker_2, # of connection points: 2
#     Edge 244, Type (0, 0), BuildingBlock: XUDNAN_clean_linker_2, # of connection points: 2
#     Edge 245, Type (0, 0), BuildingBlock: XUDNAN_clean_linker_2, # of connection points: 2
#     Edge 246, Type (0, 0), BuildingBlock: XUDNAN_clean_linker_2, # of connection points: 2
#     Edge 247, Type (0, 0), BuildingBlock: XUDNAN_clean_linker_2, # of connection points: 2
#     Edge 248, Type (0, 0), BuildingBlock: XUDNAN_clean_linker_2, # of connection points: 2
#     Edge 249, Type (0, 0), BuildingBlock: XUDNAN_clean_linker_2, # of connection points: 2
#     Edge 250, Type (0, 0), BuildingBlock: XUDNAN_clean_linker_2, # of connection points: 2
#     Edge 251, Type (0, 0), BuildingBlock: XUDNAN_clean_linker_2, # of connection points: 2
#     Edge 252, Type (0, 0), BuildingBlock: XUDNAN_clean_linker_2, # of connection points: 2
#     Edge 253, Type (0, 0), BuildingBlock: XUDNAN_clean_linker_2, # of connection points: 2
#     Edge 254, Type (0, 0), BuildingBlock: XUDNAN_clean_linker_2, # of connection points: 2
#     Edge 255, Type (0, 0), BuildingBlock: XUDNAN_clean_linker_2, # of connection points: 2
#     Edge 256, Type (0, 0), BuildingBlock: XUDNAN_clean_linker_2, # of connection points: 2
#     Edge 257, Type (0, 0), BuildingBlock: XUDNAN_clean_linker_2, # of connection points: 2
#     Edge 258, Type (0, 0), BuildingBlock: XUDNAN_clean_linker_2, # of connection points: 2
#     Edge 259, Type (0, 0), BuildingBlock: XUDNAN_clean_linker_2, # of connection points: 2
#     Edge 260, Type (0, 0), BuildingBlock: XUDNAN_clean_linker_2, # of connection points: 2
#     Edge 261, Type (0, 0), BuildingBlock: XUDNAN_clean_linker_2, # of connection points: 2
#     Edge 262, Type (0, 0), BuildingBlock: XUDNAN_clean_linker_2, # of connection points: 2
#     Edge 263, Type (0, 0), BuildingBlock: XUDNAN_clean_linker_2, # of connection points: 2
#     Edge 264, Type (0, 0), BuildingBlock: XUDNAN_clean_linker_2, # of connection points: 2
#     Edge 265, Type (0, 0), BuildingBlock: XUDNAN_clean_linker_2, # of connection points: 2
#     Edge 266, Type (0, 0), BuildingBlock: XUDNAN_clean_linker_2, # of connection points: 2
#     Edge 267, Type (0, 0), BuildingBlock: XUDNAN_clean_linker_2, # of connection points: 2
#     Edge 268, Type (0, 0), BuildingBlock: XUDNAN_clean_linker_2, # of connection points: 2
#     Edge 269, Type (0, 0), BuildingBlock: XUDNAN_clean_linker_2, # of connection points: 2
#     Edge 270, Type (0, 0), BuildingBlock: XUDNAN_clean_linker_2, # of connection points: 2
#     Edge 271, Type (0, 0), BuildingBlock: XUDNAN_clean_linker_2, # of connection points: 2
#     Edge 272, Type (0, 0), BuildingBlock: XUDNAN_clean_linker_2, # of connection points: 2
#     Edge 273, Type (0, 0), BuildingBlock: XUDNAN_clean_linker_2, # of connection points: 2
#     Edge 274, Type (0, 0), BuildingBlock: XUDNAN_clean_linker_2, # of connection points: 2
#     Edge 275, Type (0, 0), BuildingBlock: XUDNAN_clean_linker_2, # of connection points: 2
#     Edge 276, Type (0, 0), BuildingBlock: XUDNAN_clean_linker_2, # of connection points: 2
#     Edge 277, Type (0, 0), BuildingBlock: XUDNAN_clean_linker_2, # of connection points: 2
#     Edge 278, Type (0, 0), BuildingBlock: XUDNAN_clean_linker_2, # of connection points: 2
#     Edge 279, Type (0, 0), BuildingBlock: XUDNAN_clean_linker_2, # of connection points: 2
#     Edge 280, Type (0, 0), BuildingBlock: XUDNAN_clean_linker_2, # of connection points: 2
#     Edge 281, Type (0, 0), BuildingBlock: XUDNAN_clean_linker_2, # of connection points: 2
#     Edge 282, Type (0, 0), BuildingBlock: XUDNAN_clean_linker_2, # of connection points: 2
#     Edge 283, Type (0, 0), BuildingBlock: XUDNAN_clean_linker_2, # of connection points: 2
#     Edge 284, Type (0, 0), BuildingBlock: XUDNAN_clean_linker_2, # of connection points: 2
#     Edge 285, Type (0, 0), BuildingBlock: XUDNAN_clean_linker_2, # of connection points: 2
#     Edge 286, Type (0, 0), BuildingBlock: XUDNAN_clean_linker_2, # of connection points: 2
#     Edge 287, Type (0, 0), BuildingBlock: XUDNAN_clean_linker_2, # of connection points: 2
# Relax obj value: 0.198
# Max RMSD: 0.230
# Mean RMSD: 0.230
data_MOF--net-ulh--node1-CEKHIL_clean_sbu_0--edge1-XUDNAN_clean_linker_2
_symmetry_space_group_name_H-M    P1
_symmetry_Int_Tables_number       1
_symmetry_cell_setting            triclinic
loop_
_symmetry_equiv_pos_as_xyz
'x, y, z'
_cell_length_a     80.255421
_cell_length_b     80.260067
_cell_length_c     80.246929
_cell_angle_alpha  90.001082
_cell_angle_beta   89.998552
_cell_angle_gamma 89.995101
loop_
_atom_site_label
_atom_site_type_symbol
_atom_site_fract_x
_atom_site_fract_y
_atom_site_fract_z
_atom_type_partial_charge
Co0 Co 0.03779 0.30906 0.08676 0.0
O1 O 0.0227 0.29273 0.0953 0.0
O2 O 0.04677 0.28696 0.0829 0.0
C3 C 0.03779 0.32548 0.10952 0.0
O4 O 0.05675 0.32277 0.077 0.0
Co5 Co 0.02599 0.34559 0.08157 0.0
O6 O 0.04988 0.34996 0.07728 0.0
C7 C 0.01766 0.32 0.05633 0.0
C8 C 0.03347 0.28169 0.09051 0.0
C9 C 0.0603 0.33825 0.07474 0.0
O10 O 0.0259 0.30891 0.0645 0.0
O11 O 0.01552 0.33493 0.06155 0.0
O12 O 0.04726 0.31242 0.10883 0.0
O13 O 0.0275 0.32736 0.09727 0.0
Co14 Co 0.93149 0.2903 0.33241 0.0
O15 O 0.94357 0.27273 0.3429 0.0
O16 O 0.95417 0.29754 0.33702 0.0
C17 C 0.90881 0.28772 0.34887 0.0
O18 O 0.92216 0.31179 0.32255 0.0
Co19 Co 0.8976 0.28272 0.31492 0.0
O20 O 0.89564 0.30725 0.31452 0.0
C21 C 0.92936 0.27589 0.29731 0.0
C22 C 0.95599 0.28298 0.34392 0.0
C23 C 0.90797 0.31693 0.31706 0.0
O24 O 0.93802 0.28186 0.30946 0.0
O25 O 0.91349 0.27439 0.29767 0.0
O26 O 0.92156 0.29631 0.35387 0.0
O27 O 0.91068 0.28003 0.33488 0.0
Co28 Co 0.95914 0.18737 0.58685 0.0
O29 O 0.97694 0.19926 0.59705 0.0
O30 O 0.95487 0.21118 0.58543 0.0
C31 C 0.95586 0.16917 0.60802 0.0
O32 O 0.93796 0.17848 0.57601 0.0
Co33 Co 0.96395 0.14982 0.57828 0.0
O34 O 0.93928 0.1505 0.57814 0.0
C35 C 0.97738 0.17563 0.55553 0.0
C36 C 0.96848 0.21269 0.59414 0.0
C37 C 0.93125 0.16392 0.57544 0.0
O38 O 0.97106 0.1873 0.56458 0.0
O39 O 0.97671 0.16018 0.55948 0.0
O40 O 0.94917 0.18384 0.60876 0.0
O41 O 0.96553 0.16658 0.5954 0.0
Co42 Co 0.06232 0.20894 0.8359 0.0
O43 O 0.04941 0.22614 0.84584 0.0
O44 O 0.03885 0.20299 0.83504 0.0
C45 C 0.0811 0.20735 0.85673 0.0
O46 O 0.07249 0.18809 0.82556 0.0
Co47 Co 0.09929 0.21683 0.8265 0.0
O48 O 0.10017 0.19245 0.82324 0.0
C49 C 0.07209 0.22741 0.80401 0.0
C50 C 0.03655 0.2167 0.8434 0.0
C51 C 0.08739 0.18308 0.82225 0.0
O52 O 0.06113 0.22021 0.8133 0.0
O53 O 0.08754 0.22839 0.80783 0.0
O54 O 0.06688 0.19981 0.85795 0.0
O55 O 0.08277 0.21695 0.84391 0.0
Co56 Co 0.03915 0.68688 0.91403 0.0
O57 O 0.02185 0.69786 0.90216 0.0
O58 O 0.04345 0.71078 0.9135 0.0
C59 C 0.04324 0.66697 0.89462 0.0
O60 O 0.05981 0.67868 0.92637 0.0
Co61 Co 0.03238 0.65035 0.92547 0.0
O62 O 0.05642 0.65111 0.93084 0.0
C63 C 0.01754 0.67828 0.94419 0.0
C64 C 0.03016 0.71152 0.9042 0.0
C65 C 0.06518 0.66437 0.93133 0.0
O66 O 0.02618 0.6888 0.93566 0.0
O67 O 0.01713 0.66268 0.94089 0.0
O68 O 0.05008 0.6815 0.89299 0.0
O69 O 0.0329 0.66554 0.90688 0.0
Co70 Co 0.56203 0.28975 0.16767 0.0
O71 O 0.54938 0.27329 0.1563 0.0
O72 O 0.53835 0.29529 0.16878 0.0
C73 C 0.58046 0.29267 0.14678 0.0
O74 O 0.57209 0.30972 0.17984 0.0
Co75 Co 0.59897 0.28219 0.17613 0.0
O76 O 0.59992 0.30681 0.17769 0.0
C77 C 0.5721 0.26847 0.19747 0.0
C78 C 0.53633 0.28223 0.15933 0.0
C79 C 0.58703 0.31551 0.18087 0.0
O80 O 0.56098 0.27649 0.18909 0.0
O81 O 0.58757 0.26836 0.19353 0.0
O82 O 0.56657 0.30088 0.14657 0.0
O83 O 0.58233 0.28216 0.15881 0.0
Co84 Co 0.95984 0.81754 0.40769 0.0
O85 O 0.97676 0.80585 0.39579 0.0
O86 O 0.95292 0.79458 0.404 0.0
C87 C 0.96011 0.84018 0.39101 0.0
O88 O 0.93917 0.82649 0.41935 0.0
Co89 Co 0.96881 0.85148 0.42435 0.0
O90 O 0.94432 0.85299 0.42707 0.0
C91 C 0.97971 0.82001 0.43991 0.0
C92 C 0.96693 0.79306 0.39594 0.0
C93 C 0.93446 0.84066 0.42524 0.0
O94 O 0.97052 0.81151 0.42984 0.0
O95 O 0.98195 0.83575 0.43853 0.0
O96 O 0.95158 0.82711 0.38679 0.0
O97 O 0.96922 0.83854 0.40414 0.0
Co98 Co 0.44036 0.20911 0.65968 0.0
O99 O 0.45617 0.22439 0.65064 0.0
O100 O 0.46274 0.20059 0.66315 0.0
C101 C 0.4234 0.20857 0.63737 0.0
O102 O 0.42706 0.19002 0.66978 0.0
Co103 Co 0.40392 0.22103 0.66553 0.0
O104 O 0.39989 0.19707 0.66979 0.0
C105 C 0.43032 0.2312 0.68904 0.0
C106 C 0.46755 0.21394 0.6553 0.0
C107 C 0.41156 0.18652 0.67202 0.0
O108 O 0.44078 0.22144 0.68174 0.0
O109 O 0.41556 0.23376 0.68354 0.0
O110 O 0.43662 0.19931 0.63776 0.0
O111 O 0.42178 0.219 0.64952 0.0
Co112 Co 0.0871 0.03706 0.31508 0.0
O113 O 0.09488 0.01883 0.30202 0.0
O114 O 0.08756 0.04335 0.29162 0.0
C115 C 0.10743 0.03556 0.33439 0.0
O116 O 0.07887 0.05878 0.32548 0.0
Co117 Co 0.07585 0.02966 0.35149 0.0
O118 O 0.07513 0.05423 0.35295 0.0
C119 C 0.05277 0.02281 0.32358 0.0
C120 C 0.09328 0.02836 0.28912 0.0
C121 C 0.07542 0.06387 0.34033 0.0
O122 O 0.06339 0.02863 0.31304 0.0
O123 O 0.0558 0.02134 0.33918 0.0
O124 O 0.10989 0.04351 0.32054 0.0
O125 O 0.09357 0.02744 0.33543 0.0
Co126 Co 0.21067 0.33866 0.56341 0.0
O127 O 0.22739 0.34857 0.54979 0.0
O128 O 0.20409 0.33727 0.54012 0.0
C129 C 0.20928 0.35984 0.58187 0.0
O130 O 0.19015 0.3284 0.57439 0.0
Co131 Co 0.21951 0.33001 0.60025 0.0
O132 O 0.19498 0.32859 0.60203 0.0
C133 C 0.23044 0.30751 0.57325 0.0
C134 C 0.21761 0.34578 0.53725 0.0
C135 C 0.18523 0.32685 0.58961 0.0
O136 O 0.22229 0.31617 0.56241 0.0
O137 O 0.23183 0.31181 0.58855 0.0
O138 O 0.20139 0.36071 0.56781 0.0
O139 O 0.2191 0.34717 0.58347 0.0
Co140 Co 0.91126 0.4581 0.81092 0.0
O141 O 0.90121 0.47494 0.79756 0.0
O142 O 0.91328 0.45226 0.78743 0.0
C143 C 0.88955 0.45602 0.82871 0.0
O144 O 0.92207 0.43768 0.82158 0.0
Co145 Co 0.91852 0.46607 0.84829 0.0
O146 O 0.92333 0.44193 0.84934 0.0
C147 C 0.94168 0.47806 0.82217 0.0
C148 C 0.90452 0.46567 0.78479 0.0
C149 C 0.9253 0.43274 0.83653 0.0
O150 O 0.93346 0.47024 0.81078 0.0
O151 O 0.93684 0.47896 0.83735 0.0
O152 O 0.88935 0.44816 0.81461 0.0
O153 O 0.90202 0.46594 0.83089 0.0
Co154 Co 0.78816 0.16061 0.07052 0.0
O155 O 0.77131 0.15334 0.05537 0.0
O156 O 0.797 0.16065 0.04805 0.0
C157 C 0.78466 0.14026 0.08949 0.0
O158 O 0.80903 0.16797 0.08285 0.0
Co159 Co 0.77883 0.17132 0.10669 0.0
O160 O 0.80324 0.17062 0.11019 0.0
C161 C 0.77206 0.19406 0.07843 0.0
C162 C 0.78238 0.15516 0.04373 0.0
C163 C 0.81352 0.17019 0.09809 0.0
O164 O 0.77998 0.18444 0.06827 0.0
O165 O 0.76926 0.19026 0.09367 0.0
O166 O 0.79365 0.13758 0.07631 0.0
O167 O 0.77682 0.15428 0.08985 0.0
Co168 Co 0.08564 0.95742 0.6911 0.0
O169 O 0.09596 0.97278 0.70601 0.0
O170 O 0.08246 0.94994 0.7139 0.0
C171 C 0.10737 0.95511 0.67341 0.0
O172 O 0.07391 0.93859 0.6787 0.0
Co173 Co 0.07943 0.96856 0.65433 0.0
O174 O 0.07464 0.94457 0.6512 0.0
C175 C 0.05664 0.98001 0.68097 0.0
C176 C 0.09114 0.96303 0.71793 0.0
C177 C 0.07162 0.93474 0.66328 0.0
O178 O 0.0642 0.97078 0.69173 0.0
O179 O 0.06166 0.98172 0.66591 0.0
O180 O 0.10705 0.94652 0.68709 0.0
O181 O 0.09565 0.96603 0.67186 0.0
Co182 Co 0.29261 0.33557 0.93738 0.0
O183 O 0.27481 0.34427 0.9505 0.0
O184 O 0.29815 0.33369 0.9609 0.0
C185 C 0.29359 0.35733 0.91976 0.0
O186 O 0.31381 0.32583 0.92727 0.0
Co187 Co 0.28692 0.32769 0.89996 0.0
O188 O 0.31161 0.32744 0.89934 0.0
C189 C 0.27526 0.30382 0.92569 0.0
C190 C 0.28381 0.34082 0.96344 0.0
C191 C 0.32008 0.32498 0.91252 0.0
O192 O 0.28169 0.31286 0.93729 0.0
O193 O 0.2753 0.30805 0.91029 0.0
O194 O 0.30141 0.35792 0.93387 0.0
O195 O 0.2845 0.3443 0.91721 0.0
Co196 Co 0.91118 0.54096 0.19321 0.0
O197 O 0.89869 0.52666 0.20741 0.0
O198 O 0.91407 0.5478 0.21635 0.0
C199 C 0.89013 0.5452 0.17504 0.0
O200 O 0.925 0.55874 0.18137 0.0
Co201 Co 0.91727 0.52903 0.15664 0.0
O202 O 0.92664 0.5517 0.15413 0.0
C203 C 0.93828 0.51577 0.18384 0.0
C204 C 0.90349 0.53595 0.21968 0.0
C205 C 0.92952 0.56159 0.16621 0.0
O206 O 0.93135 0.52574 0.19438 0.0
O207 O 0.9333 0.51423 0.16876 0.0
O208 O 0.89102 0.55383 0.18866 0.0
O209 O 0.90094 0.53336 0.17366 0.0
Co210 Co 0.70708 0.15803 0.44396 0.0
O211 O 0.72411 0.15102 0.45902 0.0
O212 O 0.69903 0.15987 0.46669 0.0
C213 C 0.70888 0.13605 0.42648 0.0
O214 O 0.68629 0.16571 0.43153 0.0
Co215 Co 0.71684 0.16603 0.40717 0.0
O216 O 0.69244 0.16717 0.40416 0.0
C217 C 0.72288 0.19112 0.43344 0.0
C218 C 0.71351 0.15389 0.47086 0.0
C219 C 0.6821 0.168 0.41619 0.0
O220 O 0.71605 0.18166 0.44446 0.0
O221 O 0.72512 0.18678 0.41825 0.0
O222 O 0.70051 0.13493 0.44025 0.0
O223 O 0.71743 0.1496 0.42471 0.0
Co224 Co 0.30886 0.08913 0.04204 0.0
O225 O 0.29591 0.10018 0.02556 0.0
O226 O 0.28527 0.08734 0.04758 0.0
C227 C 0.32683 0.11049 0.04504 0.0
O228 O 0.31912 0.07712 0.06203 0.0
Co229 Co 0.3462 0.08157 0.03451 0.0
O230 O 0.34705 0.07785 0.05886 0.0
C231 C 0.31986 0.05881 0.02197 0.0
C232 C 0.28298 0.09672 0.03453 0.0
C233 C 0.33407 0.07502 0.06753 0.0
O234 O 0.30835 0.06757 0.02895 0.0
O235 O 0.3353 0.06287 0.02207 0.0
O236 O 0.31284 0.11045 0.05305 0.0
O237 O 0.32907 0.09839 0.03466 0.0
Co238 Co 0.80927 0.91086 0.45505 0.0
O239 O 0.79619 0.90256 0.47304 0.0
O240 O 0.78579 0.91287 0.44954 0.0
C241 C 0.82707 0.88913 0.45404 0.0
O242 O 0.81944 0.92016 0.43372 0.0
Co243 Co 0.84691 0.91858 0.46074 0.0
O244 O 0.84733 0.91795 0.43605 0.0
C245 C 0.82122 0.94238 0.4726 0.0
C246 C 0.78326 0.90601 0.46402 0.0
C247 C 0.83422 0.92056 0.42748 0.0
O248 O 0.80959 0.93376 0.46565 0.0
O249 O 0.83651 0.93776 0.47291 0.0
O250 O 0.81269 0.88821 0.44669 0.0
O251 O 0.82942 0.9023 0.46298 0.0
Co252 Co 0.33579 0.06261 0.70537 0.0
O253 O 0.34657 0.05283 0.72412 0.0
O254 O 0.33627 0.03845 0.70295 0.0
C255 C 0.35561 0.08205 0.70111 0.0
O256 O 0.3246 0.06921 0.68347 0.0
Co257 Co 0.32446 0.09971 0.70759 0.0
O258 O 0.3243 0.09732 0.68303 0.0
C259 C 0.3041 0.07333 0.72353 0.0
C260 C 0.34476 0.03858 0.71679 0.0
C261 C 0.32282 0.08324 0.67586 0.0
O262 O 0.31348 0.06191 0.71723 0.0
O263 O 0.30718 0.08893 0.72203 0.0
O264 O 0.35752 0.06707 0.69538 0.0
O265 O 0.34267 0.08434 0.7104 0.0
Co266 Co 0.18834 0.59163 0.9622 0.0
O267 O 0.20224 0.60194 0.97842 0.0
O268 O 0.21161 0.58941 0.95564 0.0
C269 C 0.1704 0.61323 0.96023 0.0
O270 O 0.17696 0.58048 0.9424 0.0
Co271 Co 0.15132 0.58443 0.9718 0.0
O272 O 0.14939 0.57922 0.94778 0.0
C273 C 0.17791 0.56147 0.98302 0.0
C274 C 0.21471 0.5983 0.96886 0.0
C275 C 0.16184 0.57712 0.93812 0.0
O276 O 0.18892 0.56962 0.97463 0.0
O277 O 0.16277 0.56631 0.98452 0.0
O278 O 0.18429 0.61337 0.952 0.0
O279 O 0.16862 0.60099 0.97051 0.0
Co280 Co 0.16545 0.92826 0.21292 0.0
O281 O 0.1551 0.93973 0.23098 0.0
O282 O 0.16363 0.95189 0.20771 0.0
C283 C 0.14655 0.90747 0.2123 0.0
O284 O 0.1758 0.91992 0.19127 0.0
Co285 Co 0.17875 0.89221 0.21757 0.0
O286 O 0.17646 0.89196 0.19297 0.0
C287 C 0.19946 0.921 0.22822 0.0
C288 C 0.15594 0.95309 0.22195 0.0
C289 C 0.17726 0.90542 0.1846 0.0
O290 O 0.18834 0.93142 0.22313 0.0
O291 O 0.19753 0.90516 0.22772 0.0
O292 O 0.1436 0.9214 0.20466 0.0
O293 O 0.16008 0.90694 0.22098 0.0
Co294 Co 0.6896 0.91401 0.03869 0.0
O295 O 0.70232 0.90335 0.02175 0.0
O296 O 0.71327 0.91575 0.04388 0.0
C297 C 0.67126 0.89297 0.04195 0.0
O298 O 0.67944 0.92541 0.05904 0.0
Co299 Co 0.6524 0.92213 0.03042 0.0
O300 O 0.65172 0.92725 0.05452 0.0
C301 C 0.67901 0.94407 0.0177 0.0
C302 C 0.71541 0.90679 0.03051 0.0
C303 C 0.66449 0.92896 0.06382 0.0
O304 O 0.69003 0.93592 0.02609 0.0
O305 O 0.66376 0.93951 0.01666 0.0
O306 O 0.68566 0.89242 0.04925 0.0
O307 O 0.66926 0.90511 0.03159 0.0
Co308 Co 0.33856 0.44364 0.79498 0.0
O309 O 0.34724 0.45752 0.77776 0.0
O310 O 0.33616 0.46691 0.80131 0.0
C311 C 0.36075 0.42641 0.79568 0.0
O312 O 0.32875 0.43255 0.81571 0.0
Co313 Co 0.33171 0.40618 0.78739 0.0
O314 O 0.32931 0.4047 0.81188 0.0
C315 C 0.30745 0.43189 0.77659 0.0
C316 C 0.34348 0.47006 0.78718 0.0
C317 C 0.32705 0.41749 0.82101 0.0
O318 O 0.31599 0.44346 0.78373 0.0
O319 O 0.31217 0.41666 0.77589 0.0
O320 O 0.36096 0.44029 0.80393 0.0
O321 O 0.34785 0.42396 0.78638 0.0
Co322 Co 0.66371 0.05621 0.29731 0.0
O323 O 0.65509 0.04206 0.28028 0.0
O324 O 0.66663 0.03302 0.30374 0.0
C325 C 0.64142 0.07332 0.29867 0.0
O326 O 0.67343 0.06776 0.3178 0.0
Co327 Co 0.67021 0.09343 0.28834 0.0
O328 O 0.67424 0.09537 0.31258 0.0
C329 C 0.69422 0.06776 0.27748 0.0
C330 C 0.65924 0.02964 0.28969 0.0
C331 C 0.67617 0.08295 0.3223 0.0
O332 O 0.68623 0.05659 0.2858 0.0
O333 O 0.68905 0.08278 0.2759 0.0
O334 O 0.64139 0.0592 0.30652 0.0
O335 O 0.65398 0.07571 0.28888 0.0
Co336 Co 0.03868 0.81414 0.58435 0.0
O337 O 0.02309 0.80133 0.59684 0.0
O338 O 0.04637 0.79112 0.58612 0.0
C339 C 0.03934 0.8354 0.6027 0.0
O340 O 0.058 0.82446 0.57139 0.0
Co341 Co 0.02755 0.84901 0.57124 0.0
O342 O 0.0515 0.8513 0.56596 0.0
C343 C 0.01907 0.81857 0.55209 0.0
C344 C 0.03318 0.78886 0.59532 0.0
C345 C 0.06164 0.83909 0.56587 0.0
O346 O 0.02655 0.80918 0.56274 0.0
O347 O 0.01753 0.83436 0.55373 0.0
O348 O 0.04859 0.82236 0.60497 0.0
O349 O 0.02903 0.83462 0.59038 0.0
Co350 Co 0.93891 0.79234 0.8324 0.0
O351 O 0.95202 0.77453 0.84109 0.0
O352 O 0.96238 0.79784 0.83036 0.0
C353 C 0.9211 0.79394 0.85406 0.0
O354 O 0.92873 0.81351 0.82274 0.0
Co355 Co 0.90141 0.78621 0.82449 0.0
O356 O 0.90085 0.8109 0.82491 0.0
C357 C 0.92719 0.77413 0.80106 0.0
C358 C 0.96495 0.78355 0.83757 0.0
C359 C 0.91388 0.81959 0.82235 0.0
O360 O 0.93866 0.78131 0.80971 0.0
O361 O 0.91185 0.77379 0.80549 0.0
O362 O 0.93555 0.80114 0.85482 0.0
O363 O 0.91869 0.78464 0.84113 0.0
Co364 Co 0.95859 0.68235 0.09076 0.0
O365 O 0.97509 0.6975 0.09889 0.0
O366 O 0.94938 0.70468 0.09158 0.0
C367 C 0.96235 0.66275 0.11057 0.0
O368 O 0.93808 0.66997 0.08242 0.0
Co369 Co 0.96884 0.64684 0.0788 0.0
O370 O 0.9445 0.643 0.07817 0.0
C371 C 0.97376 0.67586 0.05649 0.0
C372 C 0.96384 0.709 0.09748 0.0
C373 C 0.93398 0.65488 0.07884 0.0
O374 O 0.96682 0.68574 0.06708 0.0
O375 O 0.97647 0.66039 0.05932 0.0
O376 O 0.953 0.67561 0.11349 0.0
O377 O 0.97029 0.66296 0.09658 0.0
Co378 Co 0.06252 0.70689 0.33581 0.0
O379 O 0.04935 0.72549 0.34251 0.0
O380 O 0.039 0.70147 0.33356 0.0
C381 C 0.07985 0.7068 0.35796 0.0
O382 O 0.07298 0.68494 0.32831 0.0
Co383 Co 0.10009 0.71385 0.32814 0.0
O384 O 0.10072 0.68931 0.32634 0.0
C385 C 0.07471 0.72237 0.30303 0.0
C386 C 0.0364 0.71644 0.33927 0.0
C387 C 0.08799 0.67982 0.32569 0.0
O388 O 0.06328 0.71579 0.31218 0.0
O389 O 0.08988 0.72388 0.30773 0.0
O390 O 0.06524 0.69999 0.359 0.0
O391 O 0.08254 0.7152 0.34449 0.0
Co392 Co 0.03817 0.18767 0.40911 0.0
O393 O 0.02016 0.20108 0.40138 0.0
O394 O 0.04391 0.21111 0.4114 0.0
C395 C 0.03908 0.17004 0.38721 0.0
O396 O 0.05956 0.17692 0.41767 0.0
Co397 Co 0.03043 0.15032 0.41679 0.0
O398 O 0.0549 0.14922 0.41937 0.0
C399 C 0.02027 0.1761 0.44083 0.0
C400 C 0.02929 0.2139 0.40495 0.0
C401 C 0.06448 0.16185 0.42036 0.0
O402 O 0.02805 0.18726 0.4323 0.0
O403 O 0.0186 0.16102 0.43592 0.0
O404 O 0.0462 0.18453 0.38631 0.0
O405 O 0.02994 0.16774 0.40026 0.0
Co406 Co 0.55951 0.79487 0.66545 0.0
O407 O 0.54887 0.77597 0.65591 0.0
O408 O 0.53539 0.798 0.6656 0.0
C409 C 0.5782 0.79734 0.64455 0.0
O410 O 0.56717 0.81697 0.67551 0.0
Co411 Co 0.59704 0.79251 0.67504 0.0
O412 O 0.59521 0.81709 0.6739 0.0
C413 C 0.57118 0.77894 0.69789 0.0
C414 C 0.53491 0.78384 0.65766 0.0
C415 C 0.58135 0.82449 0.6762 0.0
O416 O 0.55937 0.78414 0.6883 0.0
O417 O 0.58667 0.78027 0.69419 0.0
O418 O 0.56345 0.80374 0.6431 0.0
O419 O 0.58072 0.78873 0.6579 0.0
Co420 Co 0.96033 0.31118 0.90865 0.0
O421 O 0.97673 0.29567 0.90117 0.0
O422 O 0.9519 0.28871 0.91128 0.0
C423 C 0.9614 0.32837 0.88644 0.0
O424 O 0.94011 0.32401 0.91692 0.0
Co425 Co 0.97092 0.3478 0.91593 0.0
O426 O 0.94662 0.35129 0.91826 0.0
C427 C 0.97899 0.32149 0.94029 0.0
C428 C 0.96601 0.28413 0.90477 0.0
C429 C 0.93617 0.33938 0.9193 0.0
O430 O 0.97036 0.3109 0.93186 0.0
O431 O 0.9818 0.33637 0.93525 0.0
O432 O 0.95283 0.31469 0.8858 0.0
O433 O 0.97058 0.33015 0.89957 0.0
Co434 Co 0.43949 0.71274 0.16585 0.0
O435 O 0.45151 0.73069 0.15612 0.0
O436 O 0.46328 0.70802 0.16663 0.0
C437 C 0.42104 0.71046 0.14473 0.0
O438 O 0.43023 0.69132 0.176 0.0
Co439 Co 0.40215 0.71824 0.17498 0.0
O440 O 0.40228 0.69359 0.1745 0.0
C441 C 0.42852 0.7301 0.19797 0.0
C442 C 0.46484 0.72187 0.1583 0.0
C443 C 0.41547 0.68502 0.17665 0.0
O444 O 0.43995 0.72389 0.18853 0.0
O445 O 0.41301 0.72993 0.19417 0.0
O446 O 0.43561 0.70359 0.14368 0.0
O447 O 0.41872 0.71979 0.15766 0.0
Co448 Co 0.08894 0.53654 0.81699 0.0
O449 O 0.09899 0.51981 0.8035 0.0
O450 O 0.08755 0.54295 0.79363 0.0
C451 C 0.1101 0.53815 0.83544 0.0
O452 O 0.07835 0.55691 0.82793 0.0
Co453 Co 0.08021 0.52745 0.85378 0.0
O454 O 0.07663 0.55175 0.85551 0.0
C455 C 0.05742 0.5173 0.82668 0.0
C456 C 0.09607 0.52941 0.79087 0.0
C457 C 0.07521 0.56147 0.84303 0.0
O458 O 0.06653 0.52491 0.81587 0.0
O459 O 0.06143 0.51594 0.84207 0.0
O460 O 0.11087 0.546 0.82136 0.0
O461 O 0.09752 0.52821 0.83713 0.0
Co462 Co 0.21179 0.83669 0.06022 0.0
O463 O 0.22857 0.84789 0.04774 0.0
O464 O 0.20651 0.8356 0.03655 0.0
C465 C 0.20893 0.85753 0.07884 0.0
O466 O 0.19145 0.82474 0.06976 0.0
Co467 Co 0.21846 0.82774 0.09733 0.0
O468 O 0.19396 0.82479 0.09774 0.0
C469 C 0.23249 0.80652 0.07048 0.0
C470 C 0.2197 0.84485 0.03462 0.0
C471 C 0.1855 0.82254 0.0845 0.0
O472 O 0.22469 0.815 0.05928 0.0
O473 O 0.23247 0.81045 0.08596 0.0
O474 O 0.20105 0.85807 0.06477 0.0
O475 O 0.21903 0.84516 0.08079 0.0
Co476 Co 0.90948 0.96298 0.30924 0.0
O477 O 0.89726 0.97633 0.29394 0.0
O478 O 0.91296 0.95481 0.28659 0.0
C479 C 0.88818 0.95964 0.3271 0.0
O480 O 0.92302 0.94604 0.32248 0.0
Co481 Co 0.91466 0.97709 0.34507 0.0
O482 O 0.92334 0.9544 0.34937 0.0
C483 C 0.9367 0.98833 0.31776 0.0
C484 C 0.90247 0.96646 0.28233 0.0
C485 C 0.92668 0.94388 0.33796 0.0
O486 O 0.92959 0.97815 0.30756 0.0
O487 O 0.93159 0.99064 0.3327 0.0
O488 O 0.88952 0.95009 0.31416 0.0
O489 O 0.89864 0.97183 0.32799 0.0
Co490 Co 0.79497 0.66307 0.55998 0.0
O491 O 0.77547 0.65621 0.5483 0.0
O492 O 0.7987 0.66496 0.53611 0.0
C493 C 0.79611 0.64117 0.57754 0.0
O494 O 0.81769 0.67058 0.56867 0.0
Co495 Co 0.79179 0.67107 0.59788 0.0
O496 O 0.81632 0.66884 0.59669 0.0
C497 C 0.77988 0.69551 0.57311 0.0
C498 C 0.78361 0.65918 0.53468 0.0
C499 C 0.82456 0.67044 0.5832 0.0
O500 O 0.78598 0.68665 0.56118 0.0
O501 O 0.77991 0.6908 0.58835 0.0
O502 O 0.802 0.63989 0.56254 0.0
O503 O 0.78809 0.65478 0.58063 0.0
Co504 Co 0.08476 0.45544 0.18638 0.0
O505 O 0.09449 0.47417 0.1972 0.0
O506 O 0.08592 0.4515 0.21034 0.0
C507 C 0.10456 0.45368 0.16648 0.0
O508 O 0.0748 0.43335 0.17842 0.0
Co509 Co 0.07267 0.45929 0.14972 0.0
O510 O 0.07462 0.43472 0.15037 0.0
C511 C 0.05097 0.47063 0.1774 0.0
C512 C 0.09355 0.46582 0.21096 0.0
C513 C 0.07347 0.42654 0.16392 0.0
O514 O 0.06171 0.46563 0.18824 0.0
O515 O 0.05342 0.46987 0.16164 0.0
O516 O 0.10697 0.44716 0.18105 0.0
O517 O 0.09104 0.4623 0.1649 0.0
Co518 Co 0.28536 0.83564 0.4356 0.0
O519 O 0.26817 0.84699 0.44741 0.0
O520 O 0.29101 0.83693 0.45921 0.0
C521 C 0.287 0.85467 0.415 0.0
O522 O 0.30621 0.8242 0.42666 0.0
Co523 Co 0.27804 0.823 0.3997 0.0
O524 O 0.30248 0.81977 0.39917 0.0
C525 C 0.26531 0.80406 0.42863 0.0
C526 C 0.2773 0.84551 0.46062 0.0
C527 C 0.31161 0.81983 0.41217 0.0
O528 O 0.27358 0.81344 0.43874 0.0
O529 O 0.26442 0.80687 0.41294 0.0
O530 O 0.29494 0.85698 0.42888 0.0
O531 O 0.2773 0.84185 0.41456 0.0
Co532 Co 0.9105 0.04181 0.69095 0.0
O533 O 0.90296 0.02542 0.70649 0.0
O534 O 0.91249 0.05045 0.71345 0.0
C535 C 0.88855 0.04011 0.67343 0.0
O536 O 0.91872 0.06207 0.67801 0.0
Co537 Co 0.91824 0.03103 0.65439 0.0
O538 O 0.91997 0.05533 0.65077 0.0
C539 C 0.94272 0.024 0.68098 0.0
C540 C 0.90604 0.0363 0.71802 0.0
C541 C 0.92102 0.0659 0.66258 0.0
O542 O 0.93387 0.0321 0.69168 0.0
O543 O 0.93795 0.02122 0.66601 0.0
O544 O 0.88757 0.04891 0.68695 0.0
O545 O 0.90188 0.03119 0.67198 0.0
Co546 Co 0.71412 0.66264 0.93406 0.0
O547 O 0.73083 0.65092 0.94624 0.0
O548 O 0.7075 0.66078 0.95727 0.0
C549 C 0.71359 0.64417 0.91289 0.0
O550 O 0.69364 0.67456 0.92509 0.0
Co551 Co 0.72082 0.67622 0.89845 0.0
O552 O 0.69616 0.67656 0.89724 0.0
C553 C 0.7311 0.69596 0.92816 0.0
C554 C 0.72111 0.65215 0.95908 0.0
C555 C 0.68757 0.67738 0.91054 0.0
O556 O 0.7255 0.68478 0.93824 0.0
O557 O 0.73082 0.69448 0.91226 0.0
O558 O 0.70495 0.64147 0.92628 0.0
O559 O 0.72295 0.65724 0.91303 0.0
Co560 Co 0.3085 0.58636 0.54113 0.0
O561 O 0.29451 0.59722 0.52533 0.0
O562 O 0.28525 0.58402 0.54776 0.0
C563 C 0.32647 0.60783 0.5438 0.0
O564 O 0.32 0.57466 0.56058 0.0
Co565 Co 0.3454 0.57932 0.53102 0.0
O566 O 0.34754 0.57391 0.55495 0.0
C567 C 0.31877 0.55663 0.51947 0.0
C568 C 0.2821 0.59339 0.53489 0.0
C569 C 0.33523 0.5715 0.56469 0.0
O570 O 0.30779 0.56475 0.52795 0.0
O571 O 0.33398 0.56128 0.51817 0.0
O572 O 0.31257 0.60772 0.55201 0.0
O573 O 0.32823 0.59597 0.53306 0.0
Co574 Co 0.81177 0.41082 0.95753 0.0
O575 O 0.80037 0.39884 0.97446 0.0
O576 O 0.78789 0.41133 0.95321 0.0
C577 C 0.83104 0.39099 0.95283 0.0
O578 O 0.82042 0.42348 0.93727 0.0
Co579 Co 0.84872 0.42078 0.96471 0.0
O580 O 0.84812 0.42696 0.94087 0.0
C581 C 0.8214 0.44012 0.97986 0.0
C582 C 0.78679 0.40171 0.96624 0.0
C583 C 0.83491 0.42814 0.93211 0.0
O584 O 0.81059 0.43208 0.97112 0.0
O585 O 0.83689 0.43631 0.98017 0.0
O586 O 0.81646 0.38995 0.94598 0.0
O587 O 0.83282 0.40285 0.96356 0.0
Co588 Co 0.3395 0.56493 0.2129 0.0
O589 O 0.35068 0.55158 0.22902 0.0
O590 O 0.33799 0.54154 0.20663 0.0
C591 C 0.36037 0.58343 0.21037 0.0
O592 O 0.32766 0.57552 0.19306 0.0
Co593 Co 0.33092 0.60168 0.22165 0.0
O594 O 0.32603 0.60318 0.19753 0.0
C595 C 0.30948 0.57452 0.23433 0.0
C596 C 0.34732 0.5389 0.21964 0.0
C597 C 0.32425 0.59044 0.18821 0.0
O598 O 0.31789 0.56368 0.22595 0.0
O599 O 0.31355 0.58992 0.23516 0.0
O600 O 0.36073 0.56959 0.20208 0.0
O601 O 0.34832 0.58509 0.2209 0.0
Co602 Co 0.18901 0.08985 0.45662 0.0
O603 O 0.20086 0.10293 0.47244 0.0
O604 O 0.21284 0.08859 0.4521 0.0
C605 C 0.16997 0.10974 0.4509 0.0
O606 O 0.17992 0.07565 0.43759 0.0
Co607 Co 0.15191 0.08114 0.46455 0.0
O608 O 0.15199 0.07406 0.44092 0.0
C609 C 0.17902 0.06189 0.48051 0.0
C610 C 0.2143 0.09911 0.46439 0.0
C611 C 0.16524 0.07151 0.43256 0.0
O612 O 0.19002 0.06959 0.47168 0.0
O613 O 0.16353 0.06576 0.48042 0.0
O614 O 0.18439 0.10994 0.44362 0.0
O615 O 0.16819 0.09862 0.46238 0.0
Co616 Co 0.16262 0.43678 0.71207 0.0
O617 O 0.15401 0.45183 0.72834 0.0
O618 O 0.16386 0.45942 0.70361 0.0
C619 C 0.14144 0.41848 0.71357 0.0
O620 O 0.17187 0.42441 0.69195 0.0
Co621 Co 0.17154 0.40047 0.72237 0.0
O622 O 0.17405 0.39711 0.69805 0.0
C623 C 0.19409 0.42821 0.73147 0.0
C624 C 0.15698 0.46358 0.71769 0.0
C625 C 0.17483 0.4092 0.68778 0.0
O626 O 0.18558 0.43845 0.72248 0.0
O627 O 0.1896 0.41311 0.73404 0.0
O628 O 0.14014 0.43166 0.7043 0.0
O629 O 0.15466 0.41757 0.72267 0.0
Co630 Co 0.69323 0.40751 0.53674 0.0
O631 O 0.70838 0.39982 0.52009 0.0
O632 O 0.71601 0.41025 0.54454 0.0
C633 C 0.67637 0.38509 0.53598 0.0
O634 O 0.68063 0.41615 0.55712 0.0
Co635 Co 0.65626 0.41397 0.52693 0.0
O636 O 0.65317 0.41612 0.5513 0.0
C637 C 0.68187 0.43944 0.51941 0.0
C638 C 0.72023 0.40362 0.53035 0.0
C639 C 0.66525 0.41805 0.56142 0.0
O640 O 0.69323 0.43056 0.52645 0.0
O641 O 0.66677 0.43462 0.51764 0.0
O642 O 0.68988 0.38486 0.54481 0.0
O643 O 0.67427 0.39805 0.52668 0.0
Co644 Co 0.34085 0.94143 0.2949 0.0
O645 O 0.35122 0.95595 0.2792 0.0
O646 O 0.33726 0.96445 0.30155 0.0
C647 C 0.36278 0.92407 0.2979 0.0
O648 O 0.32888 0.92947 0.31386 0.0
Co649 Co 0.3353 0.90429 0.28457 0.0
O650 O 0.32911 0.90186 0.30834 0.0
C651 C 0.31254 0.93037 0.27191 0.0
C652 C 0.34602 0.96814 0.2884 0.0
C653 C 0.32602 0.91419 0.31785 0.0
O654 O 0.31959 0.94138 0.28126 0.0
O655 O 0.31797 0.91543 0.27047 0.0
O656 O 0.3622 0.93794 0.30619 0.0
O657 O 0.35117 0.92211 0.28694 0.0
Co658 Co 0.66452 0.56805 0.78455 0.0
O659 O 0.65178 0.55567 0.76885 0.0
O660 O 0.66454 0.54453 0.79066 0.0
C661 C 0.64533 0.58811 0.78776 0.0
O662 O 0.67802 0.57773 0.80381 0.0
Co663 Co 0.67576 0.6039 0.77521 0.0
O664 O 0.68025 0.60542 0.79945 0.0
C665 C 0.6944 0.57507 0.76206 0.0
C666 C 0.65474 0.54264 0.77786 0.0
C667 C 0.68181 0.59256 0.80863 0.0
O668 O 0.68537 0.56506 0.77073 0.0
O669 O 0.69204 0.59083 0.7614 0.0
O670 O 0.64421 0.57437 0.79617 0.0
O671 O 0.65705 0.5888 0.77674 0.0
Co672 Co 0.54846 0.30713 0.58618 0.0
O673 O 0.53086 0.29563 0.59715 0.0
O674 O 0.55259 0.28321 0.58546 0.0
C675 C 0.55192 0.32591 0.6068 0.0
O676 O 0.56942 0.31574 0.57452 0.0
Co677 Co 0.54385 0.34456 0.57687 0.0
O678 O 0.56851 0.34375 0.57643 0.0
C679 C 0.52989 0.31822 0.55492 0.0
C680 C 0.53913 0.28205 0.59447 0.0
C681 C 0.5763 0.33023 0.57354 0.0
O682 O 0.53597 0.30661 0.56422 0.0
O683 O 0.53102 0.33377 0.55839 0.0
O684 O 0.55889 0.31137 0.60778 0.0
O685 O 0.54213 0.32808 0.59422 0.0
Co686 Co 0.43917 0.29502 0.83408 0.0
O687 O 0.45296 0.27756 0.84244 0.0
O688 O 0.46237 0.30175 0.83281 0.0
C689 C 0.42101 0.29451 0.85547 0.0
O690 O 0.42842 0.31609 0.82497 0.0
Co691 Co 0.40215 0.28821 0.82532 0.0
O692 O 0.40065 0.31283 0.82667 0.0
C693 C 0.42872 0.27838 0.80157 0.0
C694 C 0.46549 0.28731 0.8395 0.0
C695 C 0.41349 0.3219 0.82452 0.0
O696 O 0.43998 0.28483 0.81103 0.0
O697 O 0.41325 0.27781 0.80548 0.0
O698 O 0.43476 0.30291 0.85667 0.0
O699 O 0.41921 0.28575 0.8421 0.0
Co700 Co 0.4555 0.19044 0.0897 0.0
O701 O 0.47302 0.20405 0.09835 0.0
O702 O 0.44889 0.21367 0.08879 0.0
C703 C 0.45535 0.17164 0.11068 0.0
O704 O 0.43442 0.17986 0.08039 0.0
Co705 Co 0.46301 0.15353 0.08011 0.0
O706 O 0.43836 0.15205 0.08005 0.0
C707 C 0.47383 0.18079 0.0578 0.0
C708 C 0.46326 0.21665 0.09567 0.0
C709 C 0.42903 0.16484 0.07878 0.0
O710 O 0.46573 0.19153 0.06659 0.0
O711 O 0.47533 0.16546 0.062 0.0
O712 O 0.44765 0.18576 0.11231 0.0
O713 O 0.46427 0.17019 0.09736 0.0
Co714 Co 0.55987 0.20251 0.34132 0.0
O715 O 0.54684 0.2205 0.34971 0.0
O716 O 0.53627 0.19712 0.33943 0.0
C717 C 0.57772 0.20115 0.36297 0.0
O718 O 0.57032 0.1812 0.33202 0.0
Co719 Co 0.59725 0.21015 0.33333 0.0
O720 O 0.59801 0.18582 0.32978 0.0
C721 C 0.57119 0.22055 0.30962 0.0
C722 C 0.53382 0.21162 0.34631 0.0
C723 C 0.5853 0.17633 0.32872 0.0
O724 O 0.55996 0.21313 0.31838 0.0
O725 O 0.58643 0.2218 0.31417 0.0
O726 O 0.56325 0.19402 0.36389 0.0
O727 O 0.58 0.21042 0.35002 0.0
Co728 Co 0.53641 0.68732 0.41047 0.0
O729 O 0.52366 0.70462 0.40035 0.0
O730 O 0.54719 0.70867 0.41437 0.0
C731 C 0.53611 0.67014 0.38825 0.0
O732 O 0.55296 0.67202 0.42217 0.0
Co733 Co 0.51967 0.65256 0.41543 0.0
O734 O 0.5421 0.64609 0.42334 0.0
C735 C 0.51346 0.67955 0.43984 0.0
C736 C 0.53493 0.71483 0.40572 0.0
C737 C 0.55382 0.65646 0.42602 0.0
O738 O 0.52317 0.68952 0.43185 0.0
O739 O 0.50987 0.66484 0.43482 0.0
O740 O 0.54696 0.68209 0.3892 0.0
O741 O 0.52487 0.66999 0.39975 0.0
Co742 Co 0.0602 0.29514 0.66184 0.0
O743 O 0.0467 0.27874 0.65121 0.0
O744 O 0.03691 0.30122 0.66411 0.0
C745 C 0.07855 0.29809 0.64077 0.0
O746 O 0.07083 0.31479 0.67387 0.0
Co747 Co 0.09727 0.28584 0.66972 0.0
O748 O 0.09792 0.30877 0.67877 0.0
C749 C 0.07024 0.27265 0.69087 0.0
C750 C 0.03403 0.28775 0.65557 0.0
C751 C 0.08537 0.31846 0.67955 0.0
O752 O 0.05953 0.282 0.68341 0.0
O753 O 0.08538 0.27122 0.68604 0.0
O754 O 0.06442 0.30593 0.64034 0.0
O755 O 0.08031 0.2876 0.65282 0.0
Co756 Co 0.45486 0.80719 0.91338 0.0
O757 O 0.47075 0.79264 0.90333 0.0
O758 O 0.44841 0.7842 0.91735 0.0
C759 C 0.45181 0.82405 0.89106 0.0
O760 O 0.43562 0.81898 0.925 0.0
Co761 Co 0.4642 0.84461 0.91834 0.0
O762 O 0.44031 0.84671 0.92418 0.0
C763 C 0.4772 0.81927 0.9418 0.0
C764 C 0.46159 0.78047 0.90867 0.0
C765 C 0.43114 0.83419 0.92746 0.0
O766 O 0.46845 0.80784 0.93467 0.0
O767 O 0.47811 0.83424 0.93631 0.0
O768 O 0.44362 0.81013 0.89193 0.0
O769 O 0.46262 0.82642 0.90273 0.0
Co770 Co 0.94441 0.20006 0.16265 0.0
O771 O 0.95514 0.21579 0.14855 0.0
O772 O 0.96827 0.19548 0.16191 0.0
C773 C 0.92362 0.19431 0.14469 0.0
O774 O 0.93639 0.18106 0.17753 0.0
Co775 Co 0.90834 0.20865 0.17464 0.0
O776 O 0.90877 0.18498 0.18159 0.0
C777 C 0.93721 0.2251 0.19034 0.0
C778 C 0.96886 0.2078 0.15134 0.0
C779 C 0.922 0.17629 0.18284 0.0
O780 O 0.94728 0.21524 0.18264 0.0
O781 O 0.92151 0.22548 0.18752 0.0
O782 O 0.93796 0.18702 0.14311 0.0
O783 O 0.92295 0.2059 0.15581 0.0
Co784 Co 0.58961 0.04128 0.81249 0.0
O785 O 0.60147 0.02607 0.79868 0.0
O786 O 0.58734 0.0479 0.78927 0.0
C787 C 0.6105 0.04479 0.83093 0.0
O788 O 0.57681 0.06012 0.82374 0.0
Co789 Co 0.58204 0.03089 0.84915 0.0
O790 O 0.57562 0.0546 0.85127 0.0
C791 C 0.56116 0.0177 0.82184 0.0
C792 C 0.59732 0.03546 0.78623 0.0
C793 C 0.57316 0.0642 0.83885 0.0
O794 O 0.56873 0.02711 0.81125 0.0
O795 O 0.56565 0.01646 0.83711 0.0
O796 O 0.61037 0.05308 0.81706 0.0
O797 O 0.59906 0.03356 0.8324 0.0
Co798 Co 0.70422 0.33616 0.05955 0.0
O799 O 0.72157 0.34507 0.04599 0.0
O800 O 0.69847 0.33327 0.03626 0.0
C801 C 0.70217 0.3582 0.07696 0.0
O802 O 0.68348 0.32608 0.07012 0.0
Co803 Co 0.71087 0.32951 0.09725 0.0
O804 O 0.68621 0.32873 0.09795 0.0
C805 C 0.72386 0.30603 0.07191 0.0
C806 C 0.71251 0.34082 0.03331 0.0
C807 C 0.67755 0.32567 0.085 0.0
O808 O 0.71602 0.31381 0.06024 0.0
O809 O 0.72427 0.31115 0.08703 0.0
O810 O 0.69475 0.35846 0.0626 0.0
O811 O 0.71184 0.34559 0.07946 0.0
Co812 Co 0.41127 0.45992 0.31194 0.0
O813 O 0.40334 0.47596 0.29631 0.0
O814 O 0.41379 0.45125 0.28947 0.0
C815 C 0.38914 0.46107 0.32911 0.0
O816 O 0.42003 0.44008 0.32514 0.0
Co817 Co 0.41842 0.47133 0.34833 0.0
O818 O 0.42081 0.44714 0.35231 0.0
C819 C 0.44317 0.47821 0.32196 0.0
C820 C 0.40702 0.46524 0.28482 0.0
C821 C 0.42225 0.43647 0.34063 0.0
O822 O 0.43427 0.47028 0.31122 0.0
O823 O 0.43852 0.48081 0.337 0.0
O824 O 0.38872 0.4519 0.31583 0.0
O825 O 0.40206 0.47055 0.33068 0.0
Co826 Co 0.29409 0.16276 0.55903 0.0
O827 O 0.27757 0.15433 0.54414 0.0
O828 O 0.30147 0.16581 0.5362 0.0
C829 C 0.29419 0.14027 0.5758 0.0
O830 O 0.31426 0.17236 0.571 0.0
Co831 Co 0.28592 0.16885 0.59627 0.0
O832 O 0.31052 0.16927 0.59859 0.0
C833 C 0.27554 0.19372 0.57087 0.0
C834 C 0.28757 0.15852 0.53217 0.0
C835 C 0.31968 0.17264 0.58608 0.0
O836 O 0.28276 0.18529 0.55926 0.0
O837 O 0.27473 0.18877 0.58604 0.0
O838 O 0.30307 0.14042 0.56231 0.0
O839 O 0.28467 0.15304 0.57817 0.0
Co840 Co 0.59019 0.95978 0.18734 0.0
O841 O 0.60062 0.97638 0.20071 0.0
O842 O 0.5893 0.95328 0.21073 0.0
C843 C 0.61111 0.95833 0.16855 0.0
O844 O 0.57916 0.93953 0.17653 0.0
Co845 Co 0.58111 0.96885 0.1506 0.0
O846 O 0.57703 0.94463 0.14897 0.0
C847 C 0.55835 0.97855 0.178 0.0
C848 C 0.598 0.96673 0.21336 0.0
C849 C 0.57556 0.93501 0.16152 0.0
O850 O 0.56784 0.97153 0.1889 0.0
O851 O 0.56201 0.97958 0.1625 0.0
O852 O 0.61201 0.95022 0.18247 0.0
O853 O 0.59849 0.96824 0.16713 0.0
Co854 Co 0.78471 0.33451 0.42823 0.0
O855 O 0.77146 0.34798 0.4426 0.0
O856 O 0.79435 0.33471 0.45055 0.0
C857 C 0.78542 0.35316 0.40718 0.0
O858 O 0.8018 0.32026 0.41594 0.0
Co859 Co 0.76892 0.32338 0.3944 0.0
O860 O 0.79172 0.31498 0.39018 0.0
C861 C 0.75992 0.30569 0.42539 0.0
C862 C 0.78227 0.34494 0.45417 0.0
C863 C 0.80318 0.31413 0.40116 0.0
O864 O 0.77093 0.31399 0.43366 0.0
O865 O 0.75625 0.30887 0.41019 0.0
O866 O 0.79573 0.35448 0.41957 0.0
O867 O 0.77416 0.34183 0.40879 0.0
Co868 Co 0.41414 0.53674 0.68418 0.0
O869 O 0.40438 0.51982 0.69768 0.0
O870 O 0.41593 0.54287 0.70758 0.0
C871 C 0.39249 0.53842 0.66628 0.0
O872 O 0.42442 0.55734 0.67341 0.0
Co873 Co 0.42193 0.52864 0.647 0.0
O874 O 0.42526 0.55301 0.64566 0.0
C875 C 0.44516 0.51735 0.67333 0.0
C876 C 0.40736 0.52938 0.71034 0.0
C877 C 0.42704 0.56237 0.65837 0.0
O878 O 0.43659 0.52504 0.68455 0.0
O879 O 0.44058 0.51633 0.65807 0.0
O880 O 0.39207 0.5462 0.68042 0.0
O881 O 0.40511 0.52864 0.66414 0.0
Co882 Co 0.20794 0.16077 0.93884 0.0
O883 O 0.22333 0.15198 0.95471 0.0
O884 O 0.19959 0.16466 0.96119 0.0
C885 C 0.20728 0.13807 0.92237 0.0
O886 O 0.18875 0.17073 0.92562 0.0
Co887 Co 0.21915 0.1659 0.90209 0.0
O888 O 0.19525 0.17067 0.89832 0.0
C889 C 0.22926 0.19035 0.92773 0.0
C890 C 0.21291 0.15682 0.96606 0.0
C891 C 0.18499 0.17312 0.9102 0.0
O892 O 0.22022 0.18285 0.9387 0.0
O893 O 0.23139 0.18476 0.91293 0.0
O894 O 0.19811 0.1388 0.93564 0.0
O895 O 0.21764 0.15022 0.9203 0.0
Co896 Co 0.81324 0.08491 0.54201 0.0
O897 O 0.79974 0.09565 0.52575 0.0
O898 O 0.78989 0.08344 0.54849 0.0
C899 C 0.8315 0.10604 0.54386 0.0
O900 O 0.82401 0.07356 0.56204 0.0
Co901 Co 0.8501 0.07669 0.53352 0.0
O902 O 0.85173 0.07246 0.55775 0.0
C903 C 0.82315 0.05463 0.52129 0.0
C904 C 0.78714 0.09252 0.53532 0.0
C905 C 0.83897 0.07056 0.56703 0.0
O906 O 0.81212 0.06306 0.52937 0.0
O907 O 0.83852 0.05887 0.52049 0.0
O908 O 0.81782 0.10635 0.55241 0.0
O909 O 0.83321 0.09378 0.53359 0.0
Co910 Co 0.31351 0.9133 0.95908 0.0
O911 O 0.29805 0.90497 0.9751 0.0
O912 O 0.29107 0.91461 0.95011 0.0
C913 C 0.33164 0.89198 0.96114 0.0
O914 O 0.32637 0.92227 0.93915 0.0
Co915 Co 0.34967 0.92201 0.97008 0.0
O916 O 0.35355 0.92426 0.94581 0.0
C917 C 0.32192 0.94488 0.97834 0.0
C918 C 0.28655 0.90788 0.96415 0.0
C919 C 0.34169 0.92507 0.93528 0.0
O920 O 0.3118 0.93639 0.9692 0.0
O921 O 0.33691 0.94027 0.9813 0.0
O922 O 0.31862 0.8907 0.95164 0.0
O923 O 0.33244 0.90527 0.97015 0.0
Co924 Co 0.83866 0.06135 0.21233 0.0
O925 O 0.84867 0.04441 0.22576 0.0
O926 O 0.83558 0.03976 0.20182 0.0
C927 C 0.86072 0.0788 0.21311 0.0
O928 O 0.82732 0.07589 0.19491 0.0
Co929 Co 0.83264 0.09671 0.2272 0.0
O930 O 0.82551 0.10234 0.20426 0.0
C931 C 0.80879 0.06941 0.2345 0.0
C932 C 0.84408 0.03396 0.21435 0.0
C933 C 0.82343 0.09133 0.19303 0.0
O934 O 0.81687 0.05924 0.22502 0.0
O935 O 0.81378 0.08422 0.23771 0.0
O936 O 0.86025 0.06667 0.20244 0.0
O937 O 0.84869 0.07917 0.22378 0.0
Co938 Co 0.67812 0.58824 0.46605 0.0
O939 O 0.69074 0.59907 0.48304 0.0
O940 O 0.70108 0.59078 0.4588 0.0
C941 C 0.65645 0.60614 0.46691 0.0
O942 O 0.66832 0.57775 0.44516 0.0
Co943 Co 0.64311 0.57354 0.47455 0.0
O944 O 0.64122 0.57215 0.44998 0.0
C945 C 0.6736 0.55535 0.48454 0.0
C946 C 0.70327 0.59857 0.47286 0.0
C947 C 0.6537 0.57333 0.44022 0.0
O948 O 0.68289 0.56548 0.47616 0.0
O949 O 0.65793 0.55756 0.48654 0.0
O950 O 0.6697 0.60987 0.45842 0.0
O951 O 0.65743 0.59274 0.47569 0.0
Co952 Co 0.65725 0.94203 0.70973 0.0
O953 O 0.65008 0.95877 0.725 0.0
O954 O 0.66095 0.96387 0.70004 0.0
C955 C 0.63429 0.92603 0.71149 0.0
O956 O 0.66536 0.9277 0.69049 0.0
Co957 Co 0.66254 0.90575 0.72219 0.0
O958 O 0.66465 0.90071 0.69812 0.0
C959 C 0.68856 0.9311 0.72851 0.0
C960 C 0.65435 0.96951 0.71373 0.0
C961 C 0.66674 0.91206 0.68721 0.0
O962 O 0.68025 0.94197 0.72012 0.0
O963 O 0.68306 0.91644 0.73162 0.0
O964 O 0.63456 0.93894 0.70178 0.0
O965 O 0.64709 0.9242 0.72109 0.0
Co966 Co 0.18298 0.91522 0.53989 0.0
O967 O 0.19714 0.90782 0.52227 0.0
O968 O 0.20596 0.9146 0.54758 0.0
C969 C 0.16371 0.89502 0.53685 0.0
O970 O 0.17157 0.9228 0.56128 0.0
Co971 Co 0.14683 0.92661 0.5315 0.0
O972 O 0.14425 0.92661 0.556 0.0
C973 C 0.17506 0.94956 0.52545 0.0
C974 C 0.2094 0.90915 0.53269 0.0
C975 C 0.15656 0.92594 0.56602 0.0
O976 O 0.1854 0.93912 0.53197 0.0
O977 O 0.15958 0.94637 0.52326 0.0
O978 O 0.1771 0.89226 0.54547 0.0
O979 O 0.16314 0.90912 0.52914 0.0
Co980 Co 0.83776 0.44236 0.28979 0.0
O981 O 0.84838 0.4592 0.27678 0.0
O982 O 0.83327 0.4641 0.29945 0.0
C983 C 0.86003 0.42526 0.29157 0.0
O984 O 0.8255 0.42762 0.30646 0.0
Co985 Co 0.83381 0.40689 0.27415 0.0
O986 O 0.82531 0.40123 0.29659 0.0
C987 C 0.8104 0.43367 0.26461 0.0
C988 C 0.84262 0.4698 0.28749 0.0
C989 C 0.82205 0.412 0.3078 0.0
O990 O 0.81699 0.44363 0.27537 0.0
O991 O 0.81634 0.41922 0.26134 0.0
O992 O 0.85865 0.43794 0.3015 0.0
O993 O 0.84907 0.42452 0.27982 0.0
Co994 Co 0.16157 0.05958 0.79286 0.0
O995 O 0.15192 0.04692 0.77527 0.0
O996 O 0.16288 0.03593 0.79812 0.0
C997 C 0.14013 0.07769 0.79453 0.0
O998 O 0.17177 0.06945 0.814 0.0
Co999 Co 0.16976 0.09709 0.78712 0.0
O1000 O 0.16924 0.09732 0.81179 0.0
C1001 C 0.19303 0.07105 0.77483 0.0
C1002 C 0.15453 0.03385 0.78436 0.0
C1003 C 0.17203 0.08422 0.82032 0.0
O1004 O 0.18414 0.0594 0.78146 0.0
O1005 O 0.18875 0.08644 0.77494 0.0
O1006 O 0.13933 0.06341 0.80202 0.0
O1007 O 0.1531 0.07994 0.78528 0.0
Co1008 Co 0.54146 0.81389 0.08702 0.0
O1009 O 0.52448 0.79921 0.09481 0.0
O1010 O 0.54906 0.79101 0.08508 0.0
C1011 C 0.54079 0.83152 0.1089 0.0
O1012 O 0.56215 0.82592 0.0785 0.0
Co1013 Co 0.53191 0.85064 0.07893 0.0
O1014 O 0.55631 0.85335 0.07694 0.0
C1015 C 0.52372 0.82413 0.05479 0.0
C1016 C 0.53476 0.78716 0.09167 0.0
C1017 C 0.56646 0.84118 0.07596 0.0
O1018 O 0.53149 0.81335 0.0638 0.0
O1019 O 0.52157 0.8393 0.05924 0.0
O1020 O 0.549 0.81764 0.10979 0.0
O1021 O 0.53175 0.83336 0.09567 0.0
Co1022 Co 0.439 0.79309 0.34343 0.0
O1023 O 0.45236 0.77627 0.35363 0.0
O1024 O 0.46236 0.79936 0.34217 0.0
C1025 C 0.42014 0.79457 0.36429 0.0
O1026 O 0.42855 0.81366 0.33283 0.0
Co1027 Co 0.40208 0.78498 0.33427 0.0
O1028 O 0.40089 0.80929 0.33038 0.0
C1029 C 0.42929 0.77317 0.31242 0.0
C1030 C 0.46506 0.78577 0.3506 0.0
C1031 C 0.41369 0.81865 0.32935 0.0
O1032 O 0.44016 0.78137 0.32099 0.0
O1033 O 0.41397 0.77196 0.3167 0.0
O1034 O 0.43419 0.80248 0.36544 0.0
O1035 O 0.41874 0.78485 0.35155 0.0
Co1036 Co 0.45621 0.68786 0.58724 0.0
O1037 O 0.47365 0.70151 0.59581 0.0
O1038 O 0.44956 0.71116 0.58625 0.0
C1039 C 0.45613 0.66924 0.60831 0.0
O1040 O 0.43527 0.67681 0.57797 0.0
Co1041 Co 0.46517 0.65118 0.57781 0.0
O1042 O 0.4408 0.64943 0.5746 0.0
C1043 C 0.47512 0.6786 0.55547 0.0
C1044 C 0.46399 0.71413 0.59305 0.0
C1045 C 0.43084 0.66181 0.57426 0.0
O1046 O 0.46649 0.68901 0.56414 0.0
O1047 O 0.47737 0.66342 0.55987 0.0
O1048 O 0.4483 0.68329 0.60983 0.0
O1049 O 0.46521 0.66783 0.59509 0.0
Co1050 Co 0.56434 0.7125 0.84156 0.0
O1051 O 0.55037 0.72772 0.85321 0.0
O1052 O 0.54124 0.70516 0.84014 0.0
C1053 C 0.58311 0.71071 0.86234 0.0
O1054 O 0.57569 0.69357 0.82903 0.0
Co1055 Co 0.60089 0.72224 0.83326 0.0
O1056 O 0.60334 0.69774 0.83119 0.0
C1057 C 0.5732 0.73404 0.81159 0.0
C1058 C 0.53809 0.71785 0.84975 0.0
C1059 C 0.59086 0.68854 0.82775 0.0
O1060 O 0.56239 0.72584 0.82021 0.0
O1061 O 0.58866 0.73487 0.81551 0.0
O1062 O 0.56986 0.70149 0.86257 0.0
O1063 O 0.58409 0.72137 0.85035 0.0
Co1064 Co 0.53466 0.18652 0.91182 0.0
O1065 O 0.51785 0.19936 0.90108 0.0
O1066 O 0.54075 0.20997 0.91233 0.0
C1067 C 0.53662 0.16732 0.89138 0.0
O1068 O 0.55514 0.17646 0.92305 0.0
Co1069 Co 0.52652 0.14986 0.92188 0.0
O1070 O 0.5508 0.14883 0.92575 0.0
C1071 C 0.51591 0.17758 0.94378 0.0
C1072 C 0.5273 0.21221 0.90353 0.0
C1073 C 0.5601 0.16166 0.92684 0.0
O1074 O 0.52279 0.18834 0.93405 0.0
O1075 O 0.51533 0.16196 0.94061 0.0
O1076 O 0.54436 0.18143 0.89017 0.0
O1077 O 0.52669 0.16591 0.90399 0.0
Co1078 Co 0.06564 0.78347 0.15839 0.0
O1079 O 0.05136 0.7685 0.14678 0.0
O1080 O 0.0425 0.79032 0.16124 0.0
C1081 C 0.08348 0.7864 0.13701 0.0
O1082 O 0.07736 0.80201 0.17123 0.0
Co1083 Co 0.10243 0.77326 0.16496 0.0
O1084 O 0.10504 0.79732 0.16993 0.0
C1085 C 0.07567 0.76082 0.18724 0.0
C1086 C 0.03907 0.77785 0.15143 0.0
C1087 C 0.0926 0.80653 0.17342 0.0
O1088 O 0.06467 0.76933 0.17921 0.0
O1089 O 0.09098 0.75998 0.1828 0.0
O1090 O 0.07007 0.79538 0.13768 0.0
O1091 O 0.08511 0.7752 0.14842 0.0
Co1092 Co 0.45448 0.31174 0.41549 0.0
O1093 O 0.4723 0.30089 0.40424 0.0
O1094 O 0.45068 0.28771 0.41516 0.0
C1095 C 0.45058 0.33141 0.39585 0.0
O1096 O 0.43335 0.3199 0.42718 0.0
Co1097 Co 0.46079 0.34849 0.42672 0.0
O1098 O 0.43663 0.34756 0.43135 0.0
C1099 C 0.47552 0.32088 0.44593 0.0
C1100 C 0.46432 0.28705 0.40636 0.0
C1101 C 0.42784 0.33432 0.43175 0.0
O1102 O 0.46697 0.31025 0.43745 0.0
O1103 O 0.47593 0.33645 0.44245 0.0
O1104 O 0.44405 0.31675 0.3941 0.0
O1105 O 0.4606 0.33307 0.40832 0.0
Co1106 Co 0.9433 0.70294 0.66025 0.0
O1107 O 0.95671 0.7203 0.6511 0.0
O1108 O 0.96676 0.69798 0.66395 0.0
C1109 C 0.92694 0.70005 0.63764 0.0
O1110 O 0.93268 0.68238 0.67089 0.0
Co1111 Co 0.90546 0.70964 0.66556 0.0
O1112 O 0.90476 0.68523 0.66901 0.0
C1113 C 0.92989 0.72298 0.68975 0.0
C1114 C 0.96953 0.71187 0.65604 0.0
C1115 C 0.91773 0.67667 0.67227 0.0
O1116 O 0.9418 0.71544 0.68208 0.0
O1117 O 0.9148 0.72304 0.68451 0.0
O1118 O 0.94121 0.69253 0.63834 0.0
O1119 O 0.92364 0.71006 0.6498 0.0
Co1120 Co 0.58654 0.54303 0.31155 0.0
O1121 O 0.59893 0.52606 0.30052 0.0
O1122 O 0.5864 0.54701 0.28761 0.0
C1123 C 0.60603 0.54779 0.33125 0.0
O1124 O 0.57337 0.56324 0.31951 0.0
Co1125 Co 0.57603 0.53748 0.34865 0.0
O1126 O 0.57189 0.56178 0.34758 0.0
C1127 C 0.55677 0.52156 0.32141 0.0
C1128 C 0.5961 0.53403 0.28678 0.0
C1129 C 0.56995 0.56954 0.33387 0.0
O1130 O 0.56537 0.52931 0.31026 0.0
O1131 O 0.5601 0.52221 0.33701 0.0
O1132 O 0.60733 0.55473 0.31671 0.0
O1133 O 0.59401 0.53724 0.33281 0.0
Co1134 Co 0.70895 0.83714 0.56617 0.0
O1135 O 0.72626 0.84834 0.55451 0.0
O1136 O 0.70472 0.83611 0.54229 0.0
C1137 C 0.70458 0.85758 0.58488 0.0
O1138 O 0.68827 0.82533 0.57508 0.0
Co1139 Co 0.71578 0.82793 0.6034 0.0
O1140 O 0.6917 0.82283 0.6029 0.0
C1141 C 0.73007 0.80715 0.57669 0.0
C1142 C 0.718 0.84536 0.54098 0.0
C1143 C 0.68291 0.82148 0.58974 0.0
O1144 O 0.72194 0.81547 0.56562 0.0
O1145 O 0.73032 0.81113 0.59214 0.0
O1146 O 0.69796 0.85842 0.57018 0.0
O1147 O 0.71504 0.84554 0.58709 0.0
Co1148 Co 0.4153 0.95604 0.81118 0.0
O1149 O 0.40774 0.97472 0.79862 0.0
O1150 O 0.41595 0.95078 0.78752 0.0
C1151 C 0.3942 0.95594 0.82975 0.0
O1152 O 0.42332 0.93394 0.82097 0.0
Co1153 Co 0.42497 0.96225 0.84843 0.0
O1154 O 0.42655 0.9377 0.84869 0.0
C1155 C 0.44846 0.97169 0.82176 0.0
C1156 C 0.4099 0.9657 0.78542 0.0
C1157 C 0.42653 0.92848 0.83575 0.0
O1158 O 0.43893 0.96507 0.81065 0.0
O1159 O 0.44445 0.97289 0.83715 0.0
O1160 O 0.39233 0.94911 0.81523 0.0
O1161 O 0.40785 0.96424 0.83173 0.0
Co1162 Co 0.29447 0.66061 0.06326 0.0
O1163 O 0.27813 0.6524 0.04802 0.0
O1164 O 0.30296 0.66217 0.04066 0.0
C1165 C 0.29317 0.63915 0.0814 0.0
O1166 O 0.31461 0.66957 0.0759 0.0
Co1167 Co 0.28357 0.66929 0.09958 0.0
O1168 O 0.30783 0.67169 0.10308 0.0
C1169 C 0.27663 0.69309 0.07236 0.0
C1170 C 0.28885 0.65546 0.03634 0.0
C1171 C 0.31838 0.67255 0.09124 0.0
O1172 O 0.28447 0.6838 0.06186 0.0
O1173 O 0.27405 0.68892 0.08754 0.0
O1174 O 0.30192 0.63792 0.06788 0.0
O1175 O 0.28404 0.65238 0.08252 0.0
Co1176 Co 0.59271 0.45861 0.68307 0.0
O1177 O 0.60076 0.47642 0.69668 0.0
O1178 O 0.59095 0.45242 0.70636 0.0
C1179 C 0.61424 0.45787 0.66495 0.0
O1180 O 0.58399 0.43727 0.67247 0.0
Co1181 Co 0.58408 0.46624 0.64591 0.0
O1182 O 0.58096 0.44182 0.64489 0.0
C1183 C 0.56052 0.47621 0.67226 0.0
C1184 C 0.59759 0.4669 0.70933 0.0
C1185 C 0.58062 0.43228 0.65759 0.0
O1186 O 0.56945 0.46868 0.68329 0.0
O1187 O 0.56501 0.47779 0.65704 0.0
O1188 O 0.61544 0.45071 0.67939 0.0
O1189 O 0.6011 0.46695 0.66288 0.0
Co1190 Co 0.79226 0.84054 0.93334 0.0
O1191 O 0.77624 0.84998 0.9482 0.0
O1192 O 0.80151 0.84153 0.95569 0.0
C1193 C 0.78947 0.85984 0.91313 0.0
O1194 O 0.81221 0.83082 0.9211 0.0
Co1195 Co 0.78081 0.828 0.89841 0.0
O1196 O 0.80509 0.82589 0.8944 0.0
C1197 C 0.77274 0.80846 0.92857 0.0
C1198 C 0.78734 0.84826 0.95979 0.0
C1199 C 0.81586 0.8266 0.90605 0.0
O1200 O 0.78263 0.81751 0.93743 0.0
O1201 O 0.76919 0.81177 0.91336 0.0
O1202 O 0.79908 0.86273 0.92582 0.0
O1203 O 0.7808 0.84634 0.91391 0.0
Co1204 Co 0.41245 0.03908 0.18612 0.0
O1205 O 0.40198 0.02283 0.1999 0.0
O1206 O 0.41314 0.04628 0.2093 0.0
C1207 C 0.39179 0.03965 0.16719 0.0
O1208 O 0.42325 0.05921 0.17498 0.0
Co1209 Co 0.4221 0.0297 0.14985 0.0
O1210 O 0.42467 0.05413 0.14742 0.0
C1211 C 0.44356 0.0188 0.17781 0.0
C1212 C 0.40456 0.03284 0.21229 0.0
C1213 C 0.42597 0.06393 0.15986 0.0
O1214 O 0.43476 0.02735 0.1882 0.0
O1215 O 0.43967 0.01719 0.16241 0.0
O1216 O 0.39075 0.04849 0.18066 0.0
O1217 O 0.40444 0.02978 0.16616 0.0
Co1218 Co 0.20411 0.65881 0.44411 0.0
O1219 O 0.2197 0.65045 0.46 0.0
O1220 O 0.19524 0.66164 0.46649 0.0
C1221 C 0.20494 0.63645 0.42718 0.0
O1222 O 0.18468 0.66815 0.43062 0.0
Co1223 Co 0.21593 0.66514 0.40772 0.0
O1224 O 0.19183 0.66807 0.40348 0.0
C1225 C 0.22308 0.69021 0.43383 0.0
C1226 C 0.20892 0.6544 0.47134 0.0
C1227 C 0.18119 0.67021 0.41507 0.0
O1228 O 0.21517 0.68153 0.44478 0.0
O1229 O 0.22543 0.68538 0.4188 0.0
O1230 O 0.19547 0.63647 0.44025 0.0
O1231 O 0.21476 0.64911 0.4256 0.0
Co1232 Co 0.80967 0.58438 0.04432 0.0
O1233 O 0.79646 0.59227 0.02626 0.0
O1234 O 0.78621 0.58268 0.05011 0.0
C1235 C 0.82774 0.60586 0.04499 0.0
O1236 O 0.82021 0.5757 0.06577 0.0
Co1237 Co 0.84693 0.57586 0.03673 0.0
O1238 O 0.84787 0.57318 0.06118 0.0
C1239 C 0.82062 0.55212 0.02714 0.0
C1240 C 0.78358 0.5891 0.03545 0.0
C1241 C 0.83517 0.57255 0.07071 0.0
O1242 O 0.80951 0.56116 0.03438 0.0
O1243 O 0.83588 0.55648 0.02567 0.0
O1244 O 0.8133 0.60713 0.05214 0.0
O1245 O 0.82981 0.59268 0.03598 0.0
Co1246 Co 0.30628 0.41212 0.45485 0.0
O1247 O 0.29175 0.40365 0.47164 0.0
O1248 O 0.28329 0.41498 0.44784 0.0
C1249 C 0.32336 0.38975 0.45438 0.0
O1250 O 0.31805 0.42178 0.43453 0.0
Co1251 Co 0.34359 0.41855 0.46315 0.0
O1252 O 0.3457 0.41908 0.43854 0.0
C1253 C 0.31794 0.44305 0.47368 0.0
C1254 C 0.27958 0.40771 0.46185 0.0
C1255 C 0.33321 0.4223 0.42929 0.0
O1256 O 0.30651 0.43469 0.4661 0.0
O1257 O 0.3331 0.43811 0.47474 0.0
O1258 O 0.30952 0.38965 0.44602 0.0
O1259 O 0.32563 0.40259 0.46382 0.0
Co1260 Co 0.84025 0.55808 0.70491 0.0
O1261 O 0.8471 0.54248 0.72146 0.0
O1262 O 0.83893 0.53561 0.69594 0.0
C1263 C 0.86185 0.57571 0.70792 0.0
O1264 O 0.83289 0.57131 0.68461 0.0
Co1265 Co 0.83134 0.59398 0.7166 0.0
O1266 O 0.83043 0.59823 0.69224 0.0
C1267 C 0.80754 0.56675 0.72231 0.0
C1268 C 0.8446 0.53099 0.71042 0.0
C1269 C 0.83031 0.58678 0.68121 0.0
O1270 O 0.81645 0.55698 0.71322 0.0
O1271 O 0.81217 0.5814 0.72661 0.0
O1272 O 0.86331 0.56248 0.69878 0.0
O1273 O 0.84822 0.57684 0.71641 0.0
Co1274 Co 0.68489 0.09226 0.96234 0.0
O1275 O 0.69745 0.1021 0.97985 0.0
O1276 O 0.70849 0.09158 0.95679 0.0
C1277 C 0.66591 0.11295 0.96074 0.0
O1278 O 0.67501 0.08195 0.94132 0.0
Co1279 Co 0.64796 0.08246 0.96987 0.0
O1280 O 0.64735 0.07901 0.94549 0.0
C1281 C 0.67524 0.0599 0.98006 0.0
C1282 C 0.71052 0.09968 0.97071 0.0
C1283 C 0.66023 0.07823 0.93623 0.0
O1284 O 0.68616 0.06955 0.97332 0.0
O1285 O 0.65972 0.06348 0.98094 0.0
O1286 O 0.6802 0.11437 0.95336 0.0
O1287 O 0.6643 0.10003 0.97022 0.0
Co1288 Co 0.66207 0.43788 0.20828 0.0
O1289 O 0.65471 0.45267 0.22537 0.0
O1290 O 0.66288 0.46066 0.20017 0.0
C1291 C 0.64084 0.41966 0.21075 0.0
O1292 O 0.66987 0.42576 0.18734 0.0
Co1293 Co 0.67172 0.40156 0.21784 0.0
O1294 O 0.67275 0.3985 0.19342 0.0
C1295 C 0.69552 0.42891 0.22426 0.0
C1296 C 0.65705 0.46462 0.21478 0.0
C1297 C 0.67272 0.41055 0.18306 0.0
O1298 O 0.68574 0.43939 0.21704 0.0
O1299 O 0.6917 0.41361 0.22669 0.0
O1300 O 0.6391 0.43308 0.20194 0.0
O1301 O 0.6546 0.41843 0.21901 0.0
Co1302 Co 0.18165 0.41168 0.03425 0.0
O1303 O 0.19464 0.40209 0.01689 0.0
O1304 O 0.20514 0.41199 0.04042 0.0
C1305 C 0.16266 0.39099 0.03513 0.0
O1306 O 0.17113 0.4216 0.05523 0.0
Co1307 Co 0.145 0.42171 0.02565 0.0
O1308 O 0.14361 0.42415 0.0501 0.0
C1309 C 0.17262 0.44441 0.01679 0.0
C1310 C 0.20746 0.40399 0.02649 0.0
C1311 C 0.15608 0.42483 0.05991 0.0
O1312 O 0.18328 0.4346 0.02372 0.0
O1313 O 0.15713 0.44088 0.01534 0.0
O1314 O 0.17681 0.38947 0.04272 0.0
O1315 O 0.16121 0.40402 0.02577 0.0
Co1316 Co 0.83534 0.93772 0.78562 0.0
O1317 O 0.84695 0.95202 0.77068 0.0
O1318 O 0.83333 0.96076 0.79308 0.0
C1319 C 0.85643 0.91943 0.78797 0.0
O1320 O 0.82277 0.92589 0.80423 0.0
Co1321 Co 0.8281 0.90123 0.7745 0.0
O1322 O 0.82176 0.89843 0.79817 0.0
C1323 C 0.80569 0.92855 0.76361 0.0
C1324 C 0.84314 0.96415 0.78059 0.0
C1325 C 0.81929 0.91068 0.80795 0.0
O1326 O 0.81415 0.93935 0.77197 0.0
O1327 O 0.80998 0.91323 0.76223 0.0
O1328 O 0.85615 0.93273 0.79709 0.0
O1329 O 0.8449 0.91821 0.77683 0.0
Co1330 Co 0.16406 0.55754 0.29628 0.0
O1331 O 0.15646 0.54565 0.2772 0.0
O1332 O 0.16577 0.53366 0.30029 0.0
C1333 C 0.14212 0.57508 0.2975 0.0
O1334 O 0.17248 0.56659 0.31856 0.0
Co1335 Co 0.17176 0.59544 0.29267 0.0
O1336 O 0.16992 0.59454 0.31727 0.0
C1337 C 0.19637 0.57054 0.28087 0.0
C1338 C 0.15936 0.5321 0.28545 0.0
C1339 C 0.17238 0.58113 0.32541 0.0
O1340 O 0.18737 0.55853 0.28661 0.0
O1341 O 0.19177 0.58583 0.28121 0.0
O1342 O 0.1411 0.56032 0.30398 0.0
O1343 O 0.15559 0.57805 0.28921 0.0
H1344 H 0.01389 0.34153 0.03057 0.0
H1345 H 0.00799 0.28945 0.04371 0.0
H1346 H 0.99796 0.2835 0.01501 0.0
H1347 H 0.97852 0.3457 0.00451 0.0
H1348 H 0.98892 0.35914 0.98983 0.0
H1349 H 0.9954 0.35889 0.01129 0.0
H1350 H 0.02561 0.35198 0.0021 0.0
H1351 H 0.0192 0.35213 0.98059 0.0
H1352 H 0.02938 0.33403 0.98913 0.0
H1353 H 0.98737 0.284 0.98454 0.0
H1354 H 0.97847 0.29062 0.9557 0.0
H1355 H 0.99318 0.34212 0.96332 0.0
C1356 C 0.01036 0.32886 0.0275 0.0
C1357 C 0.01146 0.31598 0.03942 0.0
C1358 C 0.00714 0.29952 0.03476 0.0
C1359 C 0.00145 0.29604 0.01851 0.0
C1360 C 0.0005 0.30912 0.00705 0.0
C1361 C 0.00502 0.32516 0.01139 0.0
C1362 C 0.00333 0.33705 0.99691 0.0
C1363 C 0.99079 0.35101 0.00087 0.0
C1364 C 0.02039 0.34421 0.99189 0.0
C1365 C 0.99671 0.32535 0.98376 0.0
C1366 C 0.99514 0.30927 0.98972 0.0
C1367 C 0.98871 0.29653 0.97975 0.0
C1368 C 0.98368 0.30041 0.96338 0.0
C1369 C 0.98518 0.31688 0.95713 0.0
C1370 C 0.99196 0.32936 0.96753 0.0
H1371 H 0.92266 0.25277 0.20324 0.0
H1372 H 0.96507 0.21998 0.20979 0.0
H1373 H 0.97112 0.23338 0.23693 0.0
H1374 H 0.94032 0.2901 0.22617 0.0
H1375 H 0.92007 0.29478 0.23469 0.0
H1376 H 0.92181 0.2855 0.2143 0.0
H1377 H 0.90236 0.26148 0.2237 0.0
H1378 H 0.9007 0.27052 0.24406 0.0
H1379 H 0.90784 0.24934 0.2418 0.0
H1380 H 0.969 0.24685 0.26583 0.0
H1381 H 0.9589 0.25876 0.29262 0.0
H1382 H 0.91772 0.28187 0.2665 0.0
C1383 C 0.93358 0.24878 0.21009 0.0
C1384 C 0.94339 0.23535 0.2044 0.0
C1385 C 0.95748 0.23039 0.21381 0.0
C1386 C 0.96099 0.23792 0.22927 0.0
C1387 C 0.95046 0.25057 0.23495 0.0
C1388 C 0.93719 0.25611 0.22543 0.0
C1389 C 0.92641 0.26825 0.23494 0.0
C1390 C 0.92721 0.28569 0.22706 0.0
C1391 C 0.90828 0.26201 0.2362 0.0
C1392 C 0.93503 0.26795 0.25164 0.0
C1393 C 0.94914 0.25806 0.25144 0.0
C1394 C 0.95818 0.2549 0.26601 0.0
C1395 C 0.9524 0.26169 0.28115 0.0
C1396 C 0.93754 0.27116 0.28153 0.0
C1397 C 0.92914 0.27468 0.26652 0.0
H1398 H 0.98539 0.15405 0.53056 0.0
H1399 H 0.98577 0.20669 0.54299 0.0
H1400 H 0.99679 0.21307 0.51481 0.0
H1401 H 0.02275 0.15335 0.50612 0.0
H1402 H 0.01442 0.13853 0.49145 0.0
H1403 H 0.00725 0.13848 0.5127 0.0
H1404 H 0.97678 0.1417 0.5024 0.0
H1405 H 0.98387 0.14189 0.48112 0.0
H1406 H 0.97143 0.15888 0.48895 0.0
H1407 H 0.00797 0.21321 0.48452 0.0
H1408 H 0.0177 0.2071 0.45581 0.0
H1409 H 0.00846 0.15447 0.46423 0.0
C1410 C 0.98793 0.16696 0.52754 0.0
C1411 C 0.98483 0.17986 0.53911 0.0
C1412 C 0.98811 0.19657 0.53439 0.0
C1413 C 0.99435 0.20031 0.5184 0.0
C1414 C 0.9971 0.18721 0.50727 0.0
C1415 C 0.99393 0.17088 0.51172 0.0
C1416 C 0.99739 0.15898 0.49757 0.0
C1417 C 0.01128 0.14662 0.50224 0.0
C1418 C 0.98142 0.14983 0.4922 0.0
C1419 C 0.00311 0.17109 0.48438 0.0
C1420 C 0.00295 0.18733 0.49009 0.0
C1421 C 0.00807 0.20052 0.47995 0.0
C1422 C 0.01356 0.19694 0.46366 0.0
C1423 C 0.01377 0.18032 0.45765 0.0
C1424 C 0.00834 0.16735 0.46825 0.0
H1425 H 0.09219 0.23089 0.77715 0.0
H1426 H 0.04103 0.23791 0.79311 0.0
H1427 H 0.03393 0.24872 0.76493 0.0
H1428 H 0.09593 0.26695 0.75274 0.0
H1429 H 0.10863 0.25705 0.73708 0.0
H1430 H 0.10902 0.24953 0.75818 0.0
H1431 H 0.10117 0.21994 0.74776 0.0
H1432 H 0.10063 0.22743 0.72661 0.0
H1433 H 0.08267 0.21715 0.73533 0.0
H1434 H 0.03348 0.2607 0.73489 0.0
H1435 H 0.03954 0.27189 0.70671 0.0
H1436 H 0.09074 0.25503 0.71143 0.0
C1437 C 0.07946 0.23473 0.77482 0.0
C1438 C 0.0672 0.23378 0.78739 0.0
C1439 C 0.05064 0.23862 0.78366 0.0
C1440 C 0.04651 0.24473 0.7677 0.0
C1441 C 0.05903 0.24559 0.75562 0.0
C1442 C 0.07513 0.24054 0.75907 0.0
C1443 C 0.0865 0.24271 0.74426 0.0
C1444 C 0.10086 0.25478 0.74831 0.0
C1445 C 0.09312 0.2258 0.73813 0.0
C1446 C 0.07445 0.2502 0.73194 0.0
C1447 C 0.05863 0.25178 0.73857 0.0
C1448 C 0.04579 0.25932 0.72956 0.0
C1449 C 0.04934 0.26562 0.71355 0.0
C1450 C 0.0656 0.26431 0.70674 0.0
C1451 C 0.07811 0.25615 0.71606 0.0
H1452 H 0.97014 0.65906 0.02767 0.0
H1453 H 0.98748 0.70616 0.0475 0.0
H1454 H 0.99783 0.71404 0.01933 0.0
H1455 H 0.00329 0.6507 0.00246 0.0
H1456 H 0.99135 0.64152 0.9858 0.0
H1457 H 0.98348 0.641 0.00674 0.0
H1458 H 0.95631 0.65558 0.99705 0.0
H1459 H 0.9641 0.65612 0.97599 0.0
H1460 H 0.95754 0.67511 0.98602 0.0
H1461 H 0.00967 0.71454 0.98938 0.0
H1462 H 0.02107 0.70794 0.96143 0.0
H1463 H 0.99454 0.66085 0.96203 0.0
C1464 C 0.97585 0.67118 0.02603 0.0
C1465 C 0.97813 0.68198 0.03969 0.0
C1466 C 0.98557 0.69776 0.03711 0.0
C1467 C 0.99146 0.7023 0.02118 0.0
C1468 C 0.98941 0.69106 0.008 0.0
C1469 C 0.9815 0.67593 0.01032 0.0
C1470 C 0.98162 0.66549 0.99467 0.0
C1471 C 0.99047 0.6487 0.9976 0.0
C1472 C 0.96383 0.66293 0.98804 0.0
C1473 C 0.99157 0.67668 0.98331 0.0
C1474 C 0.99581 0.6915 0.99101 0.0
C1475 C 0.00613 0.70311 0.98316 0.0
C1476 C 0.01253 0.69927 0.96726 0.0
C1477 C 0.00871 0.68387 0.95948 0.0
C1478 C 0.99769 0.67276 0.96753 0.0
H1479 H 0.59243 0.25096 0.21834 0.0
H1480 H 0.54105 0.26689 0.21249 0.0
H1481 H 0.5344 0.25494 0.24019 0.0
H1482 H 0.58408 0.21227 0.24082 0.0
H1483 H 0.60221 0.21483 0.25382 0.0
H1484 H 0.60215 0.22302 0.23292 0.0
H1485 H 0.60954 0.25229 0.24444 0.0
H1486 H 0.60946 0.24426 0.26536 0.0
H1487 H 0.59632 0.26167 0.26001 0.0
H1488 H 0.53412 0.24227 0.26983 0.0
H1489 H 0.54044 0.23081 0.29791 0.0
H1490 H 0.59219 0.22486 0.28349 0.0
C1491 C 0.57967 0.25176 0.22265 0.0
C1492 C 0.56727 0.25986 0.21314 0.0
C1493 C 0.55078 0.26067 0.21948 0.0
C1494 C 0.54689 0.25393 0.23521 0.0
C1495 C 0.5596 0.2464 0.24441 0.0
C1496 C 0.57564 0.24526 0.23824 0.0
C1497 C 0.58739 0.23754 0.25073 0.0
C1498 C 0.59436 0.22093 0.24418 0.0
C1499 C 0.6015 0.24967 0.25541 0.0
C1500 C 0.5756 0.23482 0.26511 0.0
C1501 C 0.55955 0.23973 0.26128 0.0
C1502 C 0.54665 0.23836 0.27289 0.0
C1503 C 0.55034 0.23186 0.28879 0.0
C1504 C 0.56683 0.22712 0.29294 0.0
C1505 C 0.5795 0.22858 0.28083 0.0
H1506 H 0.02973 0.82937 0.5225 0.0
H1507 H 0.9971 0.79291 0.54513 0.0
H1508 H 0.98635 0.78526 0.51703 0.0
H1509 H 0.00249 0.84488 0.49467 0.0
H1510 H 0.01725 0.84808 0.47805 0.0
H1511 H 0.02425 0.84806 0.49927 0.0
H1512 H 0.04544 0.82465 0.49241 0.0
H1513 H 0.03848 0.82461 0.47104 0.0
H1514 H 0.03825 0.80558 0.48297 0.0
H1515 H 0.97612 0.7854 0.48658 0.0
H1516 H 0.96744 0.7935 0.45803 0.0
H1517 H 0.00774 0.82936 0.45615 0.0
C1518 C 0.02064 0.81944 0.52146 0.0
C1519 C 0.0142 0.81168 0.5358 0.0
C1520 C 0.00225 0.79884 0.53416 0.0
C1521 C 0.99613 0.79445 0.51827 0.0
C1522 C 0.00243 0.80278 0.50429 0.0
C1523 C 0.01465 0.81484 0.50583 0.0
C1524 C 0.01836 0.82321 0.4894 0.0
C1525 C 0.01539 0.84216 0.49042 0.0
C1526 C 0.03619 0.81927 0.48361 0.0
C1527 C 0.00564 0.81475 0.47843 0.0
C1528 C 0.99676 0.80273 0.48703 0.0
C1529 C 0.98327 0.79451 0.47967 0.0
C1530 C 0.97846 0.79913 0.46342 0.0
C1531 C 0.98697 0.81202 0.45488 0.0
C1532 C 0.00108 0.81937 0.46232 0.0
H1533 H 0.41029 0.25014 0.70895 0.0
H1534 H 0.46033 0.22977 0.70605 0.0
H1535 H 0.46635 0.24108 0.73416 0.0
H1536 H 0.42063 0.28796 0.73194 0.0
H1537 H 0.40163 0.28704 0.74389 0.0
H1538 H 0.40216 0.27878 0.72302 0.0
H1539 H 0.39164 0.2503 0.73408 0.0
H1540 H 0.39119 0.25841 0.75496 0.0
H1541 H 0.40306 0.2399 0.75039 0.0
H1542 H 0.46606 0.25388 0.76373 0.0
H1543 H 0.45915 0.26584 0.79144 0.0
H1544 H 0.409 0.27621 0.77418 0.0
C1545 C 0.42265 0.24821 0.714 0.0
C1546 C 0.43485 0.23908 0.70518 0.0
C1547 C 0.45077 0.23678 0.7125 0.0
C1548 C 0.45431 0.24317 0.72847 0.0
C1549 C 0.4418 0.25183 0.73692 0.0
C1550 C 0.42631 0.25434 0.72984 0.0
C1551 C 0.41457 0.26312 0.74163 0.0
C1552 C 0.40945 0.28024 0.73471 0.0
C1553 C 0.39922 0.25228 0.74549 0.0
C1554 C 0.4257 0.26488 0.75668 0.0
C1555 C 0.44146 0.25858 0.75375 0.0
C1556 C 0.45376 0.25887 0.76608 0.0
C1557 C 0.44974 0.26568 0.78176 0.0
C1558 C 0.4335 0.2718 0.785 0.0
C1559 C 0.42147 0.27145 0.77219 0.0
H1560 H 0.95645 0.00805 0.33718 0.0
H1561 H 0.95404 0.98549 0.28807 0.0
H1562 H 0.98318 0.99419 0.28284 0.0
H1563 H 0.98476 0.04305 0.32662 0.0
H1564 H 0.99531 0.04128 0.34637 0.0
H1565 H 0.97356 0.03596 0.34476 0.0
H1566 H 0.97995 0.00677 0.35702 0.0
H1567 H 0.00171 0.01185 0.35841 0.0
H1568 H 0.99518 0.99368 0.34693 0.0
H1569 H 0.014 0.00313 0.28441 0.0
H1570 H 0.04277 0.01091 0.29286 0.0
H1571 H 0.02429 0.02554 0.34147 0.0
C1572 C 0.96178 0.00531 0.3251 0.0
C1573 C 0.95282 0.99614 0.31302 0.0
C1574 C 0.96054 0.99263 0.2975 0.0
C1575 C 0.97712 0.99751 0.29442 0.0
C1576 C 0.98579 0.0059 0.30696 0.0
C1577 C 0.97825 0.00985 0.32194 0.0
C1578 C 0.99048 0.01739 0.33411 0.0
C1579 C 0.98574 0.0355 0.3382 0.0
C1580 C 0.99191 0.00678 0.35005 0.0
C1581 C 0.00625 0.0166 0.32389 0.0
C1582 C 0.00335 0.01028 0.30813 0.0
C1583 C 0.01633 0.00818 0.2967 0.0
C1584 C 0.03261 0.01259 0.30159 0.0
C1585 C 0.03575 0.01862 0.31787 0.0
C1586 C 0.02232 0.02074 0.32901 0.0
H1587 H 0.24376 0.28422 0.59405 0.0
H1588 H 0.23328 0.29341 0.54177 0.0
H1589 H 0.24412 0.26526 0.53489 0.0
H1590 H 0.28162 0.26083 0.58859 0.0
H1591 H 0.2769 0.24697 0.60562 0.0
H1592 H 0.2692 0.26804 0.60587 0.0
H1593 H 0.23905 0.25695 0.60948 0.0
H1594 H 0.24663 0.23586 0.60911 0.0
H1595 H 0.23081 0.24234 0.59455 0.0
H1596 H 0.25623 0.23524 0.53428 0.0
H1597 H 0.2674 0.20698 0.54007 0.0
H1598 H 0.26827 0.21846 0.59291 0.0
C1599 C 0.24387 0.28053 0.58108 0.0
C1600 C 0.23774 0.29116 0.56844 0.0
C1601 C 0.23797 0.28554 0.55169 0.0
C1602 C 0.2441 0.26957 0.54767 0.0
C1603 C 0.24985 0.25937 0.56056 0.0
C1604 C 0.24972 0.26472 0.57692 0.0
C1605 C 0.25593 0.25143 0.5887 0.0
C1606 C 0.27186 0.25716 0.59772 0.0
C1607 C 0.24229 0.24635 0.60119 0.0
C1608 C 0.25956 0.23761 0.57649 0.0
C1609 C 0.25615 0.24234 0.56028 0.0
C1610 C 0.25886 0.23147 0.54695 0.0
C1611 C 0.26521 0.21544 0.55035 0.0
C1612 C 0.26858 0.21041 0.56696 0.0
C1613 C 0.26564 0.22175 0.58009 0.0
H1614 H 0.96434 0.49015 0.84434 0.0
H1615 H 0.95724 0.48138 0.79143 0.0
H1616 H 0.98623 0.49088 0.78621 0.0
H1617 H 0.99038 0.52665 0.84116 0.0
H1618 H 0.00297 0.52051 0.85872 0.0
H1619 H 0.98144 0.5143 0.85765 0.0
H1620 H 0.9903 0.48338 0.86093 0.0
H1621 H 0.01186 0.48947 0.8618 0.0
H1622 H 0.00504 0.47454 0.84647 0.0
H1623 H 0.01694 0.50119 0.78743 0.0
H1624 H 0.04549 0.51051 0.79498 0.0
H1625 H 0.03136 0.5104 0.84718 0.0
C1626 C 0.96865 0.49042 0.83156 0.0
C1627 C 0.95837 0.48512 0.81828 0.0
C1628 C 0.96481 0.48548 0.80182 0.0
C1629 C 0.98127 0.49083 0.79875 0.0
C1630 C 0.99113 0.49565 0.81228 0.0
C1631 C 0.98494 0.49544 0.82834 0.0
C1632 C 0.99799 0.50038 0.84095 0.0
C1633 C 0.99289 0.51641 0.85016 0.0
C1634 C 0.0015 0.48609 0.85325 0.0
C1635 C 0.01262 0.50337 0.82956 0.0
C1636 C 0.00853 0.50077 0.81303 0.0
C1637 C 0.02023 0.50317 0.80036 0.0
C1638 C 0.03641 0.50844 0.80475 0.0
C1639 C 0.04077 0.51099 0.82169 0.0
C1640 C 0.02862 0.50831 0.83413 0.0
H1641 H 0.76458 0.22039 0.09817 0.0
H1642 H 0.76629 0.20542 0.04624 0.0
H1643 H 0.75501 0.23314 0.03812 0.0
H1644 H 0.72664 0.24213 0.09648 0.0
H1645 H 0.73321 0.25794 0.11102 0.0
H1646 H 0.742 0.23736 0.11217 0.0
H1647 H 0.77173 0.24981 0.10956 0.0
H1648 H 0.76302 0.27045 0.10841 0.0
H1649 H 0.77665 0.2631 0.09213 0.0
H1650 H 0.74162 0.26275 0.03645 0.0
H1651 H 0.72887 0.29054 0.04135 0.0
H1652 H 0.73731 0.2846 0.09446 0.0
C1653 C 0.76265 0.22283 0.08504 0.0
C1654 C 0.76621 0.21067 0.07285 0.0
C1655 C 0.76367 0.21457 0.05581 0.0
C1656 C 0.75724 0.23026 0.0511 0.0
C1657 C 0.75365 0.24188 0.06359 0.0
C1658 C 0.75645 0.23827 0.08019 0.0
C1659 C 0.75147 0.25246 0.09143 0.0
C1660 C 0.7375 0.24715 0.10348 0.0
C1661 C 0.76662 0.25936 0.10094 0.0
C1662 C 0.74523 0.26471 0.07865 0.0
C1663 C 0.74649 0.25854 0.06263 0.0
C1664 C 0.74075 0.2677 0.04897 0.0
C1665 C 0.73351 0.28346 0.05186 0.0
C1666 C 0.73215 0.28988 0.06828 0.0
C1667 C 0.73826 0.28029 0.08171 0.0
H1668 H 0.03415 0.99403 0.65979 0.0
H1669 H 0.04235 0.98359 0.71223 0.0
H1670 H 0.01434 0.99504 0.71868 0.0
H1671 H 0.01063 0.0323 0.66462 0.0
H1672 H 0.99704 0.02733 0.64744 0.0
H1673 H 0.01817 0.01977 0.64757 0.0
H1674 H 0.00733 0.98952 0.64406 0.0
H1675 H 0.98619 0.99695 0.64405 0.0
H1676 H 0.99256 0.98132 0.65886 0.0
H1677 H 0.98429 0.00717 0.71877 0.0
H1678 H 0.95575 0.01738 0.7123 0.0
H1679 H 0.96828 0.01802 0.65972 0.0
C1680 C 0.0303 0.99437 0.67272 0.0
C1681 C 0.04058 0.98802 0.68551 0.0
C1682 C 0.03475 0.98846 0.70219 0.0
C1683 C 0.01886 0.99496 0.70597 0.0
C1684 C 0.00896 0.00085 0.69292 0.0
C1685 C 0.01455 0.00055 0.67663 0.0
C1686 C 0.00141 0.00656 0.66461 0.0
C1687 C 0.00716 0.02243 0.65553 0.0
C1688 C 0.99659 0.99277 0.65217 0.0
C1689 C 0.9874 0.01021 0.67658 0.0
C1690 C 0.9919 0.00708 0.69291 0.0
C1691 C 0.9807 0.00964 0.70601 0.0
C1692 C 0.96453 0.01543 0.70224 0.0
C1693 C 0.95971 0.01832 0.6855 0.0
C1694 C 0.97143 0.01573 0.67264 0.0
H1695 H 0.24394 0.21209 0.90607 0.0
H1696 H 0.231 0.20628 0.95828 0.0
H1697 H 0.24186 0.23465 0.96394 0.0
H1698 H 0.28188 0.23561 0.91197 0.0
H1699 H 0.27811 0.24848 0.89395 0.0
H1700 H 0.27025 0.22747 0.89455 0.0
H1701 H 0.24043 0.2385 0.88882 0.0
H1702 H 0.24816 0.25954 0.88833 0.0
H1703 H 0.23159 0.25401 0.90245 0.0
H1704 H 0.254 0.26439 0.96339 0.0
H1705 H 0.26554 0.29224 0.95662 0.0
H1706 H 0.26907 0.27788 0.9046 0.0
C1707 C 0.24354 0.21659 0.91878 0.0
C1708 C 0.23669 0.20683 0.93175 0.0
C1709 C 0.23624 0.21346 0.94813 0.0
C1710 C 0.24238 0.22956 0.95146 0.0
C1711 C 0.24884 0.23889 0.93826 0.0
C1712 C 0.24942 0.23257 0.92226 0.0
C1713 C 0.25631 0.24513 0.91004 0.0
C1714 C 0.27261 0.23879 0.90217 0.0
C1715 C 0.24334 0.24956 0.89663 0.0
C1716 C 0.25946 0.25964 0.9216 0.0
C1717 C 0.25525 0.25585 0.93786 0.0
C1718 C 0.25731 0.26744 0.95068 0.0
C1719 C 0.26387 0.28323 0.94672 0.0
C1720 C 0.2681 0.28733 0.93006 0.0
C1721 C 0.2658 0.27528 0.91743 0.0
H1722 H 0.0219 0.46992 0.16006 0.0
H1723 H 0.04272 0.48505 0.20759 0.0
H1724 H 0.01503 0.49599 0.21607 0.0
H1725 H 0.99616 0.50426 0.15358 0.0
H1726 H 0.97948 0.49242 0.14431 0.0
H1727 H 0.00056 0.48502 0.14286 0.0
H1728 H 0.99161 0.45701 0.15631 0.0
H1729 H 0.97048 0.46442 0.15792 0.0
H1730 H 0.98124 0.45712 0.17623 0.0
H1731 H 0.98509 0.50758 0.21792 0.0
H1732 H 0.95661 0.51842 0.21295 0.0
H1733 H 0.95604 0.49393 0.16471 0.0
C1734 C 0.02069 0.47548 0.1723 0.0
C1735 C 0.03451 0.47679 0.18311 0.0
C1736 C 0.03228 0.48394 0.1991 0.0
C1737 C 0.0166 0.49015 0.20402 0.0
C1738 C 0.00325 0.48877 0.19292 0.0
C1739 C 0.00519 0.48144 0.17746 0.0
C1740 C 0.9892 0.48178 0.16753 0.0
C1741 C 0.99149 0.49145 0.15111 0.0
C1742 C 0.98276 0.46403 0.16431 0.0
C1743 C 0.97803 0.49102 0.17952 0.0
C1744 C 0.9862 0.49487 0.19419 0.0
C1745 C 0.97853 0.50439 0.20657 0.0
C1746 C 0.96231 0.51047 0.20366 0.0
C1747 C 0.95397 0.50703 0.18846 0.0
C1748 C 0.96189 0.49675 0.17654 0.0
H1749 H 0.71703 0.21839 0.4148 0.0
H1750 H 0.73855 0.2028 0.46177 0.0
H1751 H 0.74788 0.23192 0.46703 0.0
H1752 H 0.74786 0.24544 0.40259 0.0
H1753 H 0.73402 0.26057 0.39341 0.0
H1754 H 0.72784 0.23909 0.3946 0.0
H1755 H 0.70103 0.24763 0.41052 0.0
H1756 H 0.70718 0.2692 0.40942 0.0
H1757 H 0.70271 0.25981 0.42933 0.0
H1758 H 0.75803 0.26244 0.46472 0.0
H1759 H 0.76695 0.2906 0.45568 0.0
H1760 H 0.73653 0.28556 0.41124 0.0
C1761 C 0.72352 0.22115 0.42631 0.0
C1762 C 0.72723 0.20844 0.43783 0.0
C1763 C 0.73559 0.21247 0.45282 0.0
C1764 C 0.7409 0.22894 0.45589 0.0
C1765 C 0.73729 0.24119 0.44403 0.0
C1766 C 0.72851 0.23744 0.42968 0.0
C1767 C 0.7267 0.25243 0.41847 0.0
C1768 C 0.73458 0.24918 0.40126 0.0
C1769 C 0.70831 0.25757 0.41685 0.0
C1770 C 0.73648 0.26512 0.42831 0.0
C1771 C 0.74244 0.25858 0.44309 0.0
C1772 C 0.75311 0.26776 0.45335 0.0
C1773 C 0.75809 0.28378 0.44813 0.0
C1774 C 0.75242 0.29042 0.43276 0.0
C1775 C 0.74104 0.28105 0.42313 0.0
H1776 H 0.34046 0.96581 0.99756 0.0
H1777 H 0.29188 0.96154 0.97414 0.0
H1778 H 0.28501 0.99015 0.9837 0.0
H1779 H 0.3276 0.99026 0.03343 0.0
H1780 H 0.3466 0.00222 0.03326 0.0
H1781 H 0.34663 0.98103 0.02587 0.0
H1782 H 0.35902 0.99094 0.9977 0.0
H1783 H 0.35887 0.01215 0.00492 0.0
H1784 H 0.34827 0.00674 0.98587 0.0
H1785 H 0.28433 0.02039 0.99552 0.0
H1786 H 0.29032 0.04844 0.00733 0.0
H1787 H 0.33986 0.03177 0.021 0.0
C1788 C 0.32825 0.97068 0.99454 0.0
C1789 C 0.31671 0.96133 0.98509 0.0
C1790 C 0.30093 0.9684 0.98143 0.0
C1791 C 0.29692 0.98465 0.9868 0.0
C1792 C 0.30883 0.99361 0.99581 0.0
C1793 C 0.32415 0.98674 0.99963 0.0
C1794 C 0.33527 0.99892 0.00864 0.0
C1795 C 0.33925 0.99274 0.02635 0.0
C1796 C 0.35129 0.00239 0.99868 0.0
C1797 C 0.32402 0.01395 0.00903 0.0
C1798 C 0.30869 0.01073 0.00186 0.0
C1799 C 0.29632 0.02299 0.00111 0.0
C1800 C 0.29981 0.03886 0.00782 0.0
C1801 C 0.31564 0.04234 0.01481 0.0
C1802 C 0.32775 0.02963 0.01543 0.0
H1803 H 0.84431 0.03053 0.51034 0.0
H1804 H 0.79163 0.04193 0.5149 0.0
H1805 H 0.78482 0.01425 0.50282 0.0
H1806 H 0.84253 0.00839 0.47178 0.0
H1807 H 0.85818 0.99356 0.47807 0.0
H1808 H 0.85843 0.01435 0.48648 0.0
H1809 H 0.85771 0.00223 0.51645 0.0
H1810 H 0.85735 0.98141 0.50813 0.0
H1811 H 0.84123 0.98812 0.52225 0.0
H1812 H 0.78435 0.98459 0.48985 0.0
H1813 H 0.79021 0.95657 0.47813 0.0
H1814 H 0.84324 0.96574 0.48366 0.0
C1815 C 0.83128 0.02741 0.50868 0.0
C1816 C 0.8185 0.03853 0.51343 0.0
C1817 C 0.80165 0.03366 0.51127 0.0
C1818 C 0.79768 0.01797 0.50443 0.0
C1819 C 0.8107 0.00729 0.49999 0.0
C1820 C 0.82715 0.01189 0.50212 0.0
C1821 C 0.839 0.99825 0.49693 0.0
C1822 C 0.85019 0.00398 0.48245 0.0
C1823 C 0.84943 0.99214 0.51183 0.0
C1824 C 0.82671 0.98517 0.49137 0.0
C1825 C 0.81043 0.99049 0.49313 0.0
C1826 C 0.79707 0.98034 0.48849 0.0
C1827 C 0.80052 0.96445 0.48185 0.0
C1828 C 0.81719 0.95885 0.48002 0.0
C1829 C 0.83034 0.96946 0.48496 0.0
H1830 H 0.28161 0.09425 0.73811 0.0
H1831 H 0.29077 0.04182 0.72839 0.0
H1832 H 0.26347 0.0349 0.74113 0.0
H1833 H 0.26053 0.0892 0.77762 0.0
H1834 H 0.24627 0.10602 0.77339 0.0
H1835 H 0.26688 0.10632 0.76453 0.0
H1836 H 0.25408 0.10934 0.73499 0.0
H1837 H 0.23345 0.10891 0.74375 0.0
H1838 H 0.23917 0.09414 0.72783 0.0
H1839 H 0.23398 0.03427 0.75447 0.0
H1840 H 0.20613 0.04009 0.7667 0.0
H1841 H 0.21745 0.09298 0.7663 0.0
C1842 C 0.27807 0.08125 0.73874 0.0
C1843 C 0.28843 0.06859 0.73222 0.0
C1844 C 0.28311 0.05177 0.73334 0.0
C1845 C 0.2676 0.04772 0.74054 0.0
C1846 C 0.2576 0.06063 0.74657 0.0
C1847 C 0.26275 0.07704 0.74575 0.0
C1848 C 0.24972 0.0888 0.75249 0.0
C1849 C 0.25624 0.09813 0.76792 0.0
C1850 C 0.24376 0.10101 0.73896 0.0
C1851 C 0.23626 0.07653 0.75709 0.0
C1852 C 0.24093 0.0603 0.75377 0.0
C1853 C 0.23025 0.04696 0.75711 0.0
C1854 C 0.21445 0.05037 0.76404 0.0
C1855 C 0.20948 0.06699 0.76736 0.0
C1856 C 0.22066 0.08012 0.7638 0.0
H1857 H 0.15307 0.47184 0.01496 0.0
H1858 H 0.20403 0.45544 0.00756 0.0
H1859 H 0.21196 0.48431 0.99955 0.0
H1860 H 0.1507 0.50015 0.98141 0.0
H1861 H 0.13816 0.51493 0.99276 0.0
H1862 H 0.1371 0.49314 0.99786 0.0
H1863 H 0.14451 0.50002 0.02858 0.0
H1864 H 0.14577 0.52184 0.02352 0.0
H1865 H 0.16326 0.51152 0.03311 0.0
H1866 H 0.21338 0.51547 0.99072 0.0
H1867 H 0.20825 0.54487 0.98265 0.0
H1868 H 0.15666 0.53972 0.99811 0.0
C1869 C 0.16591 0.47421 0.01155 0.0
C1870 C 0.17789 0.46133 0.01164 0.0
C1871 C 0.19462 0.46512 0.00747 0.0
C1872 C 0.19923 0.48147 0.00294 0.0
C1873 C 0.187 0.49388 0.00301 0.0
C1874 C 0.17072 0.49034 0.00736 0.0
C1875 C 0.15979 0.50561 0.00664 0.0
C1876 C 0.14561 0.50332 0.99391 0.0
C1877 C 0.15294 0.51 0.024 0.0
C1878 C 0.17231 0.51835 0.00081 0.0
C1879 C 0.18797 0.5115 0.99875 0.0
C1880 C 0.20119 0.52095 0.99251 0.0
C1881 C 0.19818 0.53767 0.988 0.0
C1882 C 0.18208 0.54474 0.98982 0.0
C1883 C 0.16919 0.53491 0.99668 0.0
H1884 H 0.29459 0.91028 0.2512 0.0
H1885 H 0.29366 0.95915 0.27436 0.0
H1886 H 0.26497 0.96343 0.26378 0.0
H1887 H 0.26911 0.92057 0.21437 0.0
H1888 H 0.25907 0.90049 0.21481 0.0
H1889 H 0.28018 0.90263 0.22213 0.0
H1890 H 0.27158 0.88961 0.25042 0.0
H1891 H 0.25044 0.88763 0.24331 0.0
H1892 H 0.25487 0.89892 0.26221 0.0
H1893 H 0.2349 0.96091 0.25242 0.0
H1894 H 0.20727 0.95176 0.24182 0.0
H1895 H 0.22879 0.90423 0.22771 0.0
C1896 C 0.28859 0.92208 0.2538 0.0
C1897 C 0.29647 0.93438 0.26362 0.0
C1898 C 0.28796 0.94955 0.26678 0.0
C1899 C 0.27164 0.95209 0.26083 0.0
C1900 C 0.26404 0.93937 0.25169 0.0
C1901 C 0.27238 0.92473 0.24812 0.0
C1902 C 0.2613 0.91237 0.23927 0.0
C1903 C 0.2678 0.90881 0.2216 0.0
C1904 C 0.25944 0.89619 0.24942 0.0
C1905 C 0.24522 0.9221 0.2388 0.0
C1906 C 0.24697 0.93776 0.24574 0.0
C1907 C 0.23347 0.9487 0.24689 0.0
C1908 C 0.21783 0.94341 0.24087 0.0
C1909 C 0.21583 0.92722 0.23412 0.0
C1910 C 0.22981 0.91661 0.23299 0.0
H1911 H 0.65823 0.96529 0.00125 0.0
H1912 H 0.70946 0.96039 0.01793 0.0
H1913 H 0.71497 0.98941 0.00886 0.0
H1914 H 0.66594 0.9922 0.96531 0.0
H1915 H 0.6471 0.00387 0.96897 0.0
H1916 H 0.6482 0.98224 0.97482 0.0
H1917 H 0.63981 0.99011 0.00503 0.0
H1918 H 0.63894 0.01176 0.99937 0.0
H1919 H 0.65211 0.00514 0.01632 0.0
H1920 H 0.71395 0.02023 0.99913 0.0
H1921 H 0.70636 0.04893 0.99024 0.0
H1922 H 0.65548 0.03261 0.98208 0.0
C1923 C 0.67076 0.97008 0.00275 0.0
C1924 C 0.68342 0.96045 0.01027 0.0
C1925 C 0.69955 0.96745 0.0121 0.0
C1926 C 0.70279 0.98395 0.00701 0.0
C1927 C 0.68977 0.99324 0.00015 0.0
C1928 C 0.6741 0.98642 0.99798 0.0
C1929 C 0.66181 0.99906 0.99146 0.0
C1930 C 0.65539 0.99404 0.97411 0.0
C1931 C 0.64732 0.00167 0.00378 0.0
C1932 C 0.67285 0.01423 0.99056 0.0
C1933 C 0.68901 0.01072 0.99534 0.0
C1934 C 0.70131 0.02305 0.99537 0.0
C1935 C 0.6969 0.03931 0.99035 0.0
C1936 C 0.68029 0.04307 0.98572 0.0
C1937 C 0.66824 0.03027 0.98584 0.0
H1938 H 0.28117 0.4109 0.77431 0.0
H1939 H 0.29599 0.46176 0.76373 0.0
H1940 H 0.26791 0.46732 0.75184 0.0
H1941 H 0.25735 0.4037 0.73828 0.0
H1942 H 0.24176 0.39156 0.74895 0.0
H1943 H 0.26274 0.39217 0.75679 0.0
H1944 H 0.25175 0.40224 0.7855 0.0
H1945 H 0.23072 0.4017 0.77771 0.0
H1946 H 0.23891 0.42063 0.78658 0.0
H1947 H 0.23799 0.46622 0.73954 0.0
H1948 H 0.20979 0.45893 0.72916 0.0
H1949 H 0.21558 0.40915 0.74957 0.0
C1950 C 0.27858 0.42323 0.76946 0.0
C1951 C 0.2908 0.43585 0.76974 0.0
C1952 C 0.28678 0.4519 0.76358 0.0
C1953 C 0.27089 0.45514 0.75682 0.0
C1954 C 0.25915 0.44228 0.75664 0.0
C1955 C 0.26286 0.42671 0.763 0.0
C1956 C 0.24831 0.4149 0.76154 0.0
C1957 C 0.25281 0.3997 0.75074 0.0
C1958 C 0.24206 0.40956 0.77886 0.0
C1959 C 0.23588 0.42605 0.75293 0.0
C1960 C 0.24219 0.44183 0.7502 0.0
C1961 C 0.23292 0.45393 0.74179 0.0
C1962 C 0.2169 0.44969 0.73594 0.0
C1963 C 0.21036 0.43347 0.73856 0.0
C1964 C 0.22003 0.4217 0.74738 0.0
H1965 H 0.7174 0.08958 0.26563 0.0
H1966 H 0.70884 0.03674 0.27334 0.0
H1967 H 0.73723 0.03076 0.26261 0.0
H1968 H 0.74164 0.08624 0.22789 0.0
H1969 H 0.75517 0.1032 0.23371 0.0
H1970 H 0.73394 0.1028 0.24097 0.0
H1971 H 0.74436 0.10511 0.27149 0.0
H1972 H 0.76561 0.10538 0.26434 0.0
H1973 H 0.75902 0.08999 0.27931 0.0
H1974 H 0.76743 0.0311 0.25076 0.0
H1975 H 0.79587 0.03787 0.24043 0.0
H1976 H 0.78366 0.09049 0.24246 0.0
C1977 C 0.7213 0.07669 0.26491 0.0
C1978 C 0.71077 0.06363 0.27023 0.0
C1979 C 0.71664 0.04698 0.26928 0.0
C1980 C 0.73274 0.04347 0.26319 0.0
C1981 C 0.74285 0.05674 0.25822 0.0
C1982 C 0.73726 0.07302 0.2591 0.0
C1983 C 0.75051 0.08524 0.25375 0.0
C1984 C 0.74498 0.09493 0.23816 0.0
C1985 C 0.75514 0.09712 0.26808 0.0
C1986 C 0.76457 0.07339 0.24983 0.0
C1987 C 0.76 0.05697 0.25223 0.0
C1988 C 0.7711 0.04394 0.24895 0.0
C1989 C 0.78722 0.04788 0.24309 0.0
C1990 C 0.79209 0.06471 0.24089 0.0
C1991 C 0.7805 0.07749 0.24432 0.0
H1992 H 0.90578 0.7621 0.77744 0.0
H1993 H 0.95849 0.76883 0.7877 0.0
H1994 H 0.96524 0.75666 0.76015 0.0
H1995 H 0.90922 0.72303 0.75599 0.0
H1996 H 0.893 0.72808 0.7413 0.0
H1997 H 0.89262 0.73697 0.76189 0.0
H1998 H 0.89147 0.76661 0.74906 0.0
H1999 H 0.89194 0.75781 0.72842 0.0
H2000 H 0.90736 0.77296 0.73451 0.0
H2001 H 0.96593 0.74338 0.73106 0.0
H2002 H 0.96048 0.73064 0.70348 0.0
H2003 H 0.90728 0.73372 0.71286 0.0
C2004 C 0.91879 0.76096 0.77403 0.0
C2005 C 0.9316 0.7664 0.78483 0.0
C2006 C 0.94843 0.76476 0.77968 0.0
C2007 C 0.95239 0.75786 0.76405 0.0
C2008 C 0.93938 0.75274 0.7537 0.0
C2009 C 0.92293 0.75425 0.75853 0.0
C2010 C 0.91117 0.74808 0.74518 0.0
C2011 C 0.90091 0.73316 0.75147 0.0
C2012 C 0.89982 0.76221 0.73892 0.0
C2013 C 0.92353 0.74285 0.73199 0.0
C2014 C 0.93976 0.74553 0.73708 0.0
C2015 C 0.95326 0.7413 0.72696 0.0
C2016 C 0.95004 0.73407 0.71131 0.0
C2017 C 0.93345 0.73125 0.70591 0.0
C2018 C 0.92011 0.73584 0.71645 0.0
H2019 H 0.09623 0.72569 0.27704 0.0
H2020 H 0.04393 0.73044 0.28991 0.0
H2021 H 0.03772 0.73904 0.26085 0.0
H2022 H 0.09899 0.76043 0.25038 0.0
H2023 H 0.11302 0.75042 0.23598 0.0
H2024 H 0.11286 0.74426 0.25752 0.0
H2025 H 0.10737 0.71365 0.2487 0.0
H2026 H 0.10738 0.71976 0.22709 0.0
H2027 H 0.0897 0.7089 0.23567 0.0
H2028 H 0.03794 0.74888 0.23032 0.0
H2029 H 0.04449 0.7587 0.2018 0.0
H2030 H 0.09646 0.74581 0.20963 0.0
C2031 C 0.08344 0.72857 0.27383 0.0
C2032 C 0.07058 0.72756 0.28579 0.0
C2033 C 0.05399 0.73117 0.28094 0.0
C2034 C 0.05035 0.73603 0.26447 0.0
C2035 C 0.06341 0.73692 0.253 0.0
C2036 C 0.07959 0.73315 0.25752 0.0
C2037 C 0.09151 0.73515 0.24308 0.0
C2038 C 0.10487 0.74835 0.24698 0.0
C2039 C 0.09945 0.71836 0.23836 0.0
C2040 C 0.07962 0.74107 0.22976 0.0
C2041 C 0.06344 0.74198 0.23559 0.0
C2042 C 0.05055 0.74802 0.2256 0.0
C2043 C 0.05438 0.75354 0.20939 0.0
C2044 C 0.07099 0.75296 0.20335 0.0
C2045 C 0.0836 0.74629 0.21367 0.0
H2046 H 0.59264 0.77382 0.72363 0.0
H2047 H 0.54055 0.7685 0.71009 0.0
H2048 H 0.53456 0.75742 0.73837 0.0
H2049 H 0.59618 0.73701 0.74776 0.0
H2050 H 0.61002 0.74643 0.76272 0.0
H2051 H 0.60969 0.75385 0.74158 0.0
H2052 H 0.60362 0.78377 0.75221 0.0
H2053 H 0.60379 0.77641 0.7734 0.0
H2054 H 0.58587 0.78739 0.76549 0.0
H2055 H 0.53503 0.74581 0.76865 0.0
H2056 H 0.54189 0.73525 0.7969 0.0
H2057 H 0.59343 0.74994 0.78943 0.0
C2058 C 0.57993 0.77028 0.72645 0.0
C2059 C 0.56709 0.77193 0.71453 0.0
C2060 C 0.55062 0.76731 0.71899 0.0
C2061 C 0.54711 0.76103 0.73502 0.0
C2062 C 0.56016 0.75964 0.74647 0.0
C2063 C 0.57622 0.76423 0.74228 0.0
C2064 C 0.58819 0.76166 0.75654 0.0
C2065 C 0.60181 0.74898 0.75187 0.0
C2066 C 0.59581 0.7783 0.76224 0.0
C2067 C 0.57647 0.75471 0.76948 0.0
C2068 C 0.56033 0.75357 0.76359 0.0
C2069 C 0.54762 0.74681 0.77338 0.0
C2070 C 0.55162 0.74088 0.78944 0.0
C2071 C 0.56819 0.74181 0.79553 0.0
C2072 C 0.58059 0.74911 0.78537 0.0
H2073 H 0.40776 0.73471 0.22431 0.0
H2074 H 0.45947 0.74028 0.20953 0.0
H2075 H 0.46618 0.75102 0.2378 0.0
H2076 H 0.40463 0.77106 0.24911 0.0
H2077 H 0.39129 0.76131 0.26432 0.0
H2078 H 0.39109 0.75419 0.24307 0.0
H2079 H 0.3977 0.72417 0.25309 0.0
H2080 H 0.39805 0.73124 0.27438 0.0
H2081 H 0.41584 0.72052 0.26583 0.0
H2082 H 0.46643 0.76241 0.26824 0.0
H2083 H 0.46023 0.77253 0.29683 0.0
H2084 H 0.40863 0.75756 0.29047 0.0
C2085 C 0.42053 0.73826 0.22687 0.0
C2086 C 0.43305 0.73682 0.2146 0.0
C2087 C 0.44963 0.74135 0.21871 0.0
C2088 C 0.45355 0.74744 0.23473 0.0
C2089 C 0.4408 0.74867 0.24653 0.0
C2090 C 0.42464 0.74408 0.2427 0.0
C2091 C 0.41306 0.74636 0.25732 0.0
C2092 C 0.39921 0.75899 0.25321 0.0
C2093 C 0.40574 0.72957 0.26299 0.0
C2094 C 0.42508 0.75322 0.27003 0.0
C2095 C 0.44105 0.75454 0.26373 0.0
C2096 C 0.45397 0.76126 0.27328 0.0
C2097 C 0.45036 0.76696 0.28953 0.0
C2098 C 0.43396 0.76581 0.29604 0.0
C2099 C 0.42136 0.75857 0.2861 0.0
H2100 H 0.27454 0.72024 0.0922 0.0
H2101 H 0.26659 0.70412 0.04126 0.0
H2102 H 0.25623 0.73245 0.03408 0.0
H2103 H 0.23911 0.74486 0.09645 0.0
H2104 H 0.24922 0.76064 0.10884 0.0
H2105 H 0.25682 0.73957 0.10923 0.0
H2106 H 0.2862 0.74994 0.10063 0.0
H2107 H 0.27867 0.77109 0.10018 0.0
H2108 H 0.28857 0.76231 0.08203 0.0
H2109 H 0.24436 0.76252 0.03367 0.0
H2110 H 0.23306 0.79062 0.03981 0.0
H2111 H 0.25056 0.78613 0.09081 0.0
C2112 C 0.27068 0.72263 0.07949 0.0
C2113 C 0.27117 0.70996 0.06732 0.0
C2114 C 0.26627 0.71369 0.05077 0.0
C2115 C 0.26039 0.72972 0.04661 0.0
C2116 C 0.25987 0.74189 0.05908 0.0
C2117 C 0.2651 0.73848 0.07513 0.0
C2118 C 0.26312 0.75335 0.08646 0.0
C2119 C 0.25136 0.74936 0.1011 0.0
C2120 C 0.28015 0.75954 0.09269 0.0
C2121 C 0.25537 0.76561 0.0745 0.0
C2122 C 0.25365 0.75895 0.05871 0.0
C2123 C 0.24589 0.76789 0.04595 0.0
C2124 C 0.23952 0.78386 0.04955 0.0
C2125 C 0.24092 0.79069 0.06579 0.0
C2126 C 0.2493 0.78145 0.07822 0.0
H2127 H 0.77108 0.71943 0.59555 0.0
H2128 H 0.77287 0.70956 0.54238 0.0
H2129 H 0.76111 0.73763 0.53696 0.0
H2130 H 0.73268 0.74139 0.59579 0.0
H2131 H 0.7393 0.75576 0.61173 0.0
H2132 H 0.74797 0.7351 0.61101 0.0
H2133 H 0.77774 0.74762 0.60969 0.0
H2134 H 0.76915 0.76834 0.61032 0.0
H2135 H 0.78282 0.76237 0.59352 0.0
H2136 H 0.74802 0.76707 0.53789 0.0
H2137 H 0.73545 0.79439 0.54506 0.0
H2138 H 0.74359 0.78397 0.59753 0.0
C2139 C 0.76902 0.72306 0.58271 0.0
C2140 C 0.77287 0.71222 0.56939 0.0
C2141 C 0.77004 0.71764 0.55281 0.0
C2142 C 0.76336 0.73356 0.54961 0.0
C2143 C 0.75972 0.74391 0.56313 0.0
C2144 C 0.76253 0.7388 0.57933 0.0
C2145 C 0.75758 0.75198 0.59178 0.0
C2146 C 0.74355 0.74568 0.60325 0.0
C2147 C 0.77273 0.75793 0.60192 0.0
C2148 C 0.75144 0.76539 0.58013 0.0
C2149 C 0.75268 0.76061 0.56363 0.0
C2150 C 0.74713 0.77094 0.55078 0.0
C2151 C 0.74001 0.78644 0.55496 0.0
C2152 C 0.73861 0.79145 0.57185 0.0
C2153 C 0.7446 0.78074 0.58447 0.0
H2154 H 0.22248 0.71694 0.41346 0.0
H2155 H 0.23588 0.70205 0.4636 0.0
H2156 H 0.24633 0.73073 0.46918 0.0
H2157 H 0.25654 0.7422 0.40504 0.0
H2158 H 0.24482 0.75753 0.39355 0.0
H2159 H 0.23767 0.73633 0.39436 0.0
H2160 H 0.20917 0.74634 0.40592 0.0
H2161 H 0.21629 0.76762 0.40518 0.0
H2162 H 0.20859 0.75902 0.42445 0.0
H2163 H 0.25779 0.76103 0.4677 0.0
H2164 H 0.26809 0.78907 0.45969 0.0
H2165 H 0.24508 0.78322 0.41109 0.0
C2166 C 0.22755 0.7197 0.42567 0.0
C2167 C 0.2286 0.70728 0.43804 0.0
C2168 C 0.23503 0.71144 0.45394 0.0
C2169 C 0.24096 0.72767 0.45719 0.0
C2170 C 0.23994 0.73961 0.44453 0.0
C2171 C 0.23314 0.73576 0.42917 0.0
C2172 C 0.23359 0.75043 0.41744 0.0
C2173 C 0.24377 0.74638 0.40168 0.0
C2174 C 0.21586 0.75619 0.41299 0.0
C2175 C 0.24233 0.76306 0.42827 0.0
C2176 C 0.24584 0.75678 0.44392 0.0
C2177 C 0.25485 0.7661 0.45556 0.0
C2178 C 0.26063 0.78205 0.45091 0.0
C2179 C 0.25741 0.78844 0.43475 0.0
C2180 C 0.24777 0.77886 0.42357 0.0
H2181 H 0.72219 0.72594 0.91645 0.0
H2182 H 0.75279 0.70248 0.95417 0.0
H2183 H 0.76453 0.73021 0.96172 0.0
H2184 H 0.75097 0.75303 0.90152 0.0
H2185 H 0.73672 0.77001 0.89792 0.0
H2186 H 0.72921 0.74895 0.89766 0.0
H2187 H 0.70746 0.75626 0.92043 0.0
H2188 H 0.71491 0.77745 0.92073 0.0
H2189 H 0.71429 0.76549 0.93973 0.0
H2190 H 0.77573 0.76047 0.96175 0.0
H2191 H 0.78473 0.78917 0.95453 0.0
H2192 H 0.7455 0.79185 0.91748 0.0
C2193 C 0.73112 0.72669 0.92655 0.0
C2194 C 0.7367 0.71219 0.9347 0.0
C2195 C 0.74833 0.71355 0.94787 0.0
C2196 C 0.75502 0.72922 0.95221 0.0
C2197 C 0.74957 0.74332 0.9435 0.0
C2198 C 0.73763 0.74211 0.93113 0.0
C2199 C 0.73455 0.75863 0.9227 0.0
C2200 C 0.73809 0.75758 0.90385 0.0
C2201 C 0.71675 0.76482 0.92611 0.0
C2202 C 0.74726 0.76926 0.93157 0.0
C2203 C 0.75568 0.76043 0.94374 0.0
C2204 C 0.76896 0.76755 0.95248 0.0
C2205 C 0.77397 0.78387 0.94834 0.0
C2206 C 0.76583 0.79275 0.93543 0.0
C2207 C 0.75199 0.78544 0.92743 0.0
H2208 H 0.34022 0.53254 0.50905 0.0
H2209 H 0.28741 0.54341 0.51337 0.0
H2210 H 0.28093 0.51533 0.50207 0.0
H2211 H 0.33871 0.50908 0.47117 0.0
H2212 H 0.35452 0.49463 0.47796 0.0
H2213 H 0.35454 0.51568 0.48568 0.0
H2214 H 0.35393 0.50453 0.51602 0.0
H2215 H 0.35377 0.48344 0.50839 0.0
H2216 H 0.33757 0.49046 0.52227 0.0
H2217 H 0.28076 0.48538 0.48987 0.0
H2218 H 0.28687 0.45713 0.47889 0.0
H2219 H 0.33982 0.46679 0.48432 0.0
C2220 C 0.32723 0.52921 0.50746 0.0
C2221 C 0.31432 0.54032 0.51192 0.0
C2222 C 0.29753 0.53517 0.50994 0.0
C2223 C 0.29375 0.51924 0.50355 0.0
C2224 C 0.30689 0.50859 0.4994 0.0
C2225 C 0.32328 0.51344 0.50138 0.0
C2226 C 0.33527 0.49973 0.49664 0.0
C2227 C 0.34641 0.5051 0.48199 0.0
C2228 C 0.34575 0.49422 0.51173 0.0
C2229 C 0.32312 0.48634 0.49149 0.0
C2230 C 0.30679 0.49157 0.49307 0.0
C2231 C 0.29353 0.48119 0.48867 0.0
C2232 C 0.29711 0.46516 0.48245 0.0
C2233 C 0.31383 0.45964 0.48082 0.0
C2234 C 0.32688 0.47046 0.48553 0.0
H2235 H 0.84122 0.4603 0.99864 0.0
H2236 H 0.79034 0.45517 0.98097 0.0
H2237 H 0.78358 0.48279 0.99303 0.0
H2238 H 0.8321 0.48306 0.03722 0.0
H2239 H 0.85047 0.49578 0.03498 0.0
H2240 H 0.85032 0.47481 0.02699 0.0
H2241 H 0.85863 0.48596 0.99781 0.0
H2242 H 0.85861 0.50694 0.00563 0.0
H2243 H 0.84584 0.50158 0.98795 0.0
H2244 H 0.78334 0.51249 0.00554 0.0
H2245 H 0.78987 0.5407 0.01655 0.0
H2246 H 0.84119 0.52554 0.02416 0.0
C2247 C 0.82852 0.46471 0.99753 0.0
C2248 C 0.81631 0.45546 0.98887 0.0
C2249 C 0.79991 0.46195 0.98764 0.0
C2250 C 0.79596 0.47764 0.99444 0.0
C2251 C 0.80853 0.48663 0.00244 0.0
C2252 C 0.82445 0.48027 0.00404 0.0
C2253 C 0.83618 0.49266 0.01194 0.0
C2254 C 0.84264 0.48619 0.02879 0.0
C2255 C 0.85066 0.49704 0.00012 0.0
C2256 C 0.82453 0.50721 0.01422 0.0
C2257 C 0.80854 0.50355 0.00897 0.0
C2258 C 0.79582 0.51541 0.00975 0.0
C2259 C 0.79962 0.53138 0.01599 0.0
C2260 C 0.81607 0.53534 0.02103 0.0
C2261 C 0.82854 0.52299 0.02021 0.0
H2262 H 0.28665 0.59496 0.24907 0.0
H2263 H 0.29585 0.54294 0.23741 0.0
H2264 H 0.26807 0.53568 0.24885 0.0
H2265 H 0.2638 0.58864 0.28744 0.0
H2266 H 0.24975 0.60564 0.28318 0.0
H2267 H 0.27074 0.60618 0.27525 0.0
H2268 H 0.25928 0.61027 0.24531 0.0
H2269 H 0.23827 0.60959 0.25311 0.0
H2270 H 0.24469 0.59536 0.23696 0.0
H2271 H 0.23824 0.53464 0.26101 0.0
H2272 H 0.2099 0.54001 0.27217 0.0
H2273 H 0.22115 0.59287 0.27442 0.0
C2274 C 0.28305 0.58196 0.2491 0.0
C2275 C 0.29357 0.56951 0.2424 0.0
C2276 C 0.28809 0.55271 0.24254 0.0
C2277 C 0.27232 0.54847 0.249 0.0
C2278 C 0.26218 0.56118 0.25521 0.0
C2279 C 0.26743 0.57758 0.25529 0.0
C2280 C 0.25412 0.58914 0.26187 0.0
C2281 C 0.25995 0.59791 0.27789 0.0
C2282 C 0.24878 0.60183 0.24851 0.0
C2283 C 0.24042 0.57676 0.26543 0.0
C2284 C 0.24522 0.56066 0.26167 0.0
C2285 C 0.23441 0.54722 0.26399 0.0
C2286 C 0.21833 0.55039 0.27033 0.0
C2287 C 0.21321 0.56688 0.2741 0.0
C2288 C 0.22452 0.58012 0.27157 0.0
H2289 H 0.15657 0.97775 0.52556 0.0
H2290 H 0.20628 0.95957 0.51477 0.0
H2291 H 0.21427 0.98781 0.50481 0.0
H2292 H 0.15179 0.00249 0.49081 0.0
H2293 H 0.14045 0.01876 0.50135 0.0
H2294 H 0.13964 0.99779 0.50912 0.0
H2295 H 0.14995 0.00801 0.538 0.0
H2296 H 0.15083 0.02908 0.53028 0.0
H2297 H 0.16907 0.01971 0.53943 0.0
H2298 H 0.21527 0.0177 0.49289 0.0
H2299 H 0.20939 0.0455 0.48081 0.0
H2300 H 0.15927 0.04333 0.50103 0.0
C2301 C 0.16922 0.9797 0.52128 0.0
C2302 C 0.18078 0.96646 0.52079 0.0
C2303 C 0.19725 0.96958 0.51526 0.0
C2304 C 0.20187 0.98557 0.50961 0.0
C2305 C 0.18996 0.99829 0.50994 0.0
C2306 C 0.17404 0.99548 0.51587 0.0
C2307 C 0.16317 0.01075 0.51428 0.0
C2308 C 0.14788 0.00723 0.50323 0.0
C2309 C 0.15795 0.01727 0.53153 0.0
C2310 C 0.17521 0.02252 0.5059 0.0
C2311 C 0.19067 0.01529 0.50359 0.0
C2312 C 0.20329 0.02355 0.49491 0.0
C2313 C 0.19984 0.03937 0.48811 0.0
C2314 C 0.18386 0.04671 0.48997 0.0
C2315 C 0.17166 0.03825 0.49942 0.0
H2316 H 0.65807 0.53357 0.50527 0.0
H2317 H 0.70445 0.54081 0.47841 0.0
H2318 H 0.71325 0.51223 0.48639 0.0
H2319 H 0.67412 0.50698 0.5389 0.0
H2320 H 0.65543 0.49453 0.5389 0.0
H2321 H 0.65444 0.51624 0.53329 0.0
H2322 H 0.64049 0.50825 0.50525 0.0
H2323 H 0.64163 0.48655 0.51063 0.0
H2324 H 0.65087 0.49384 0.4915 0.0
H2325 H 0.71554 0.48123 0.49592 0.0
H2326 H 0.7106 0.45195 0.50496 0.0
H2327 H 0.66176 0.46604 0.52314 0.0
C2328 C 0.67027 0.5294 0.50127 0.0
C2329 C 0.68057 0.53952 0.4912 0.0
C2330 C 0.69637 0.53337 0.48626 0.0
C2331 C 0.70145 0.51713 0.49071 0.0
C2332 C 0.69058 0.50727 0.50012 0.0
C2333 C 0.67534 0.51333 0.50536 0.0
C2334 C 0.66511 0.50014 0.514 0.0
C2335 C 0.66211 0.50475 0.53236 0.0
C2336 C 0.64856 0.49702 0.50479 0.0
C2337 C 0.67671 0.48546 0.51246 0.0
C2338 C 0.69152 0.48972 0.50476 0.0
C2339 C 0.70398 0.47785 0.50199 0.0
C2340 C 0.7011 0.46128 0.50713 0.0
C2341 C 0.68572 0.45677 0.51451 0.0
C2342 C 0.67354 0.4691 0.51729 0.0
H2343 H 0.72509 0.57428 0.77549 0.0
H2344 H 0.6977 0.56241 0.7306 0.0
H2345 H 0.72418 0.5548 0.71646 0.0
H2346 H 0.7576 0.59434 0.75684 0.0
H2347 H 0.77365 0.58679 0.77065 0.0
H2348 H 0.75252 0.58827 0.77788 0.0
H2349 H 0.75292 0.55698 0.78586 0.0
H2350 H 0.77414 0.55539 0.77864 0.0
H2351 H 0.75841 0.54167 0.77037 0.0
H2352 H 0.75403 0.55098 0.7067 0.0
H2353 H 0.7843 0.55375 0.70134 0.0
H2354 H 0.79189 0.56979 0.7523 0.0
C2355 C 0.72471 0.5696 0.76283 0.0
C2356 C 0.70952 0.56856 0.75413 0.0
C2357 C 0.70931 0.56291 0.73747 0.0
C2358 C 0.72425 0.55855 0.72941 0.0
C2359 C 0.73918 0.5599 0.73828 0.0
C2360 C 0.73947 0.56528 0.75466 0.0
C2361 C 0.75713 0.56731 0.76095 0.0
C2362 C 0.76041 0.58525 0.76691 0.0
C2363 C 0.76087 0.55458 0.77477 0.0
C2364 C 0.76678 0.56326 0.74528 0.0
C2365 C 0.75627 0.55841 0.7325 0.0
C2366 C 0.76236 0.55454 0.71668 0.0
C2367 C 0.77956 0.55606 0.71376 0.0
C2368 C 0.79034 0.56185 0.72647 0.0
C2369 C 0.78388 0.5652 0.74246 0.0
H2370 H 0.52781 0.33786 0.52755 0.0
H2371 H 0.51433 0.28879 0.54575 0.0
H2372 H 0.5004 0.2828 0.51872 0.0
H2373 H 0.49101 0.34675 0.50626 0.0
H2374 H 0.50121 0.35738 0.48931 0.0
H2375 H 0.51073 0.35698 0.50958 0.0
H2376 H 0.53755 0.34424 0.49679 0.0
H2377 H 0.52807 0.34455 0.47644 0.0
H2378 H 0.53616 0.32532 0.48476 0.0
H2379 H 0.48614 0.2835 0.48973 0.0
H2380 H 0.47341 0.29068 0.46249 0.0
H2381 H 0.49769 0.33897 0.46422 0.0
C2382 C 0.52197 0.3258 0.52592 0.0
C2383 C 0.52199 0.31385 0.53881 0.0
C2384 C 0.51443 0.29814 0.53602 0.0
C2385 C 0.50652 0.29465 0.52071 0.0
C2386 C 0.5066 0.30689 0.50831 0.0
C2387 C 0.5143 0.32208 0.5108 0.0
C2388 C 0.51251 0.33339 0.49588 0.0
C2389 C 0.50331 0.34957 0.50054 0.0
C2390 C 0.52959 0.33709 0.488 0.0
C2391 C 0.50207 0.32246 0.4847 0.0
C2392 C 0.49885 0.30715 0.49189 0.0
C2393 C 0.48877 0.2954 0.48395 0.0
C2394 C 0.48162 0.29957 0.46846 0.0
C2395 C 0.48451 0.3154 0.46116 0.0
C2396 C 0.49517 0.32675 0.46935 0.0
H2397 H 0.51843 0.16043 0.97255 0.0
H2398 H 0.4997 0.20682 0.95224 0.0
H2399 H 0.48849 0.21436 0.98018 0.0
H2400 H 0.48543 0.15105 0.99883 0.0
H2401 H 0.49828 0.14282 0.01531 0.0
H2402 H 0.50546 0.14203 0.99412 0.0
H2403 H 0.53234 0.15787 0.00258 0.0
H2404 H 0.5252 0.15874 0.02385 0.0
H2405 H 0.53069 0.17766 0.01306 0.0
H2406 H 0.47727 0.21515 0.01051 0.0
H2407 H 0.46785 0.20938 0.03939 0.0
H2408 H 0.49567 0.16302 0.03888 0.0
C2409 C 0.51199 0.17222 0.97396 0.0
C2410 C 0.50969 0.18296 0.96026 0.0
C2411 C 0.50152 0.19841 0.96264 0.0
C2412 C 0.49516 0.20277 0.97844 0.0
C2413 C 0.49749 0.19171 0.9917 0.0
C2414 C 0.50594 0.17685 0.98956 0.0
C2415 C 0.50673 0.16687 0.00548 0.0
C2416 C 0.49847 0.14969 0.00329 0.0
C2417 C 0.52481 0.16519 0.0116 0.0
C2418 C 0.49671 0.178 0.01684 0.0
C2419 C 0.4916 0.19238 0.00887 0.0
C2420 C 0.48143 0.20402 0.01689 0.0
C2421 C 0.47616 0.20066 0.03332 0.0
C2422 C 0.48098 0.18573 0.04145 0.0
C2423 C 0.49171 0.17455 0.03311 0.0
H2424 H 0.513 0.65942 0.4666 0.0
H2425 H 0.50184 0.70997 0.45128 0.0
H2426 H 0.49204 0.71637 0.48005 0.0
H2427 H 0.47915 0.65284 0.49317 0.0
H2428 H 0.49095 0.64117 0.5083 0.0
H2429 H 0.49733 0.64126 0.48683 0.0
H2430 H 0.52665 0.65176 0.49553 0.0
H2431 H 0.52032 0.65175 0.51707 0.0
H2432 H 0.52849 0.67049 0.50778 0.0
H2433 H 0.48143 0.71591 0.51069 0.0
H2434 H 0.47239 0.70913 0.53948 0.0
H2435 H 0.49275 0.65934 0.53374 0.0
C2436 C 0.50843 0.67185 0.46926 0.0
C2437 C 0.50784 0.68413 0.45674 0.0
C2438 C 0.50224 0.70037 0.46076 0.0
C2439 C 0.4967 0.70408 0.47703 0.0
C2440 C 0.49731 0.69152 0.48911 0.0
C2441 C 0.5033 0.67581 0.48536 0.0
C2442 C 0.50291 0.66439 0.50028 0.0
C2443 C 0.49193 0.64902 0.49694 0.0
C2444 C 0.52065 0.6593 0.50547 0.0
C2445 C 0.49512 0.67585 0.51298 0.0
C2446 C 0.49201 0.69149 0.50648 0.0
C2447 C 0.48403 0.70375 0.51592 0.0
C2448 C 0.47894 0.69979 0.53227 0.0
C2449 C 0.48187 0.6837 0.53898 0.0
C2450 C 0.49035 0.6718 0.52917 0.0
H2451 H 0.49169 0.84161 0.96296 0.0
H2452 H 0.48137 0.7888 0.95744 0.0
H2453 H 0.49335 0.78372 0.98547 0.0
H2454 H 0.53055 0.83775 0.98604 0.0
H2455 H 0.5259 0.85556 0.9989 0.0
H2456 H 0.51796 0.85449 0.97793 0.0
H2457 H 0.48794 0.85867 0.98914 0.0
H2458 H 0.49575 0.85961 0.01013 0.0
H2459 H 0.47993 0.84461 0.00473 0.0
H2460 H 0.5058 0.78498 0.0151 0.0
H2461 H 0.51655 0.79254 0.04311 0.0
H2462 H 0.51707 0.84461 0.02856 0.0
C2463 C 0.49216 0.82889 0.96742 0.0
C2464 C 0.48566 0.81559 0.95787 0.0
C2465 C 0.48633 0.7992 0.96446 0.0
C2466 C 0.49312 0.7962 0.98037 0.0
C2467 C 0.49913 0.80972 0.98954 0.0
C2468 C 0.49868 0.82573 0.98322 0.0
C2469 C 0.50498 0.83833 0.99571 0.0
C2470 C 0.52079 0.84704 0.98926 0.0
C2471 C 0.49133 0.85104 0.00019 0.0
C2472 C 0.50885 0.827 0.01022 0.0
C2473 C 0.50563 0.8105 0.00646 0.0
C2474 C 0.50835 0.79787 0.01813 0.0
C2475 C 0.51445 0.80227 0.03399 0.0
C2476 C 0.51751 0.81918 0.03809 0.0
C2477 C 0.51468 0.83159 0.02594 0.0
H2478 H 0.47534 0.97413 0.84206 0.0
H2479 H 0.45981 0.98226 0.79093 0.0
H2480 H 0.48806 0.99308 0.78426 0.0
H2481 H 0.49927 0.01013 0.84668 0.0
H2482 H 0.51497 0.00026 0.85937 0.0
H2483 H 0.494 0.99237 0.8594 0.0
H2484 H 0.50497 0.96312 0.85108 0.0
H2485 H 0.526 0.97096 0.85096 0.0
H2486 H 0.51767 0.96088 0.83269 0.0
H2487 H 0.5179 0.00538 0.78434 0.0
H2488 H 0.54572 0.01708 0.79095 0.0
H2489 H 0.54081 0.99915 0.84176 0.0
C2490 C 0.47782 0.97812 0.82941 0.0
C2491 C 0.46533 0.97751 0.81705 0.0
C2492 C 0.46921 0.98264 0.8006 0.0
C2493 C 0.48521 0.98878 0.79672 0.0
C2494 C 0.49719 0.98939 0.80935 0.0
C2495 C 0.49363 0.98401 0.82532 0.0
C2496 C 0.50827 0.98621 0.8369 0.0
C2497 C 0.50386 0.99795 0.85143 0.0
C2498 C 0.5146 0.96929 0.84328 0.0
C2499 C 0.52061 0.99413 0.82513 0.0
C2500 C 0.51415 0.99586 0.80926 0.0
C2501 C 0.52313 0.00385 0.79668 0.0
C2502 C 0.53894 0.01045 0.80054 0.0
C2503 C 0.54558 0.00901 0.81686 0.0
C2504 C 0.53631 0.00039 0.8291 0.0
H2505 H 0.53593 0.50424 0.34186 0.0
H2506 H 0.542 0.51931 0.29025 0.0
H2507 H 0.51399 0.50793 0.28385 0.0
H2508 H 0.5116 0.46618 0.33443 0.0
H2509 H 0.49893 0.46985 0.35261 0.0
H2510 H 0.52023 0.4769 0.35218 0.0
H2511 H 0.51031 0.50688 0.35905 0.0
H2512 H 0.489 0.50001 0.35926 0.0
H2513 H 0.4952 0.51681 0.34571 0.0
H2514 H 0.48382 0.49652 0.28402 0.0
H2515 H 0.45518 0.48691 0.29086 0.0
H2516 H 0.46965 0.48146 0.34264 0.0
C2517 C 0.53164 0.5049 0.32908 0.0
C2518 C 0.54127 0.51267 0.31656 0.0
C2519 C 0.53494 0.51332 0.30006 0.0
C2520 C 0.51902 0.5069 0.29632 0.0
C2521 C 0.50965 0.49988 0.3092 0.0
C2522 C 0.51586 0.4988 0.32523 0.0
C2523 C 0.50309 0.49202 0.33725 0.0
C2524 C 0.5088 0.47524 0.34454 0.0
C2525 C 0.49917 0.50469 0.35113 0.0
C2526 C 0.48849 0.4898 0.32564 0.0
C2527 C 0.49246 0.49408 0.30943 0.0
C2528 C 0.48065 0.4931 0.29667 0.0
C2529 C 0.46443 0.48767 0.30065 0.0
C2530 C 0.46016 0.48366 0.31731 0.0
C2531 C 0.47244 0.48468 0.32983 0.0
H2532 H 0.5305 0.97685 0.15927 0.0
H2533 H 0.54812 0.99284 0.20776 0.0
H2534 H 0.51963 0.00314 0.21452 0.0
H2535 H 0.50414 0.01015 0.15076 0.0
H2536 H 0.48841 0.99761 0.14077 0.0
H2537 H 0.50977 0.99089 0.14064 0.0
H2538 H 0.50106 0.96281 0.15407 0.0
H2539 H 0.47963 0.96949 0.15431 0.0
H2540 H 0.48953 0.96287 0.17335 0.0
H2541 H 0.48905 0.01387 0.21439 0.0
H2542 H 0.46035 0.0232 0.2077 0.0
H2543 H 0.46376 0.99827 0.15982 0.0
C2544 C 0.52842 0.98251 0.17135 0.0
C2545 C 0.54153 0.98431 0.18291 0.0
C2546 C 0.53821 0.99143 0.1987 0.0
C2547 C 0.52208 0.99727 0.20263 0.0
C2548 C 0.50944 0.99547 0.19076 0.0
C2549 C 0.5125 0.98803 0.17553 0.0
C2550 C 0.49715 0.98766 0.16469 0.0
C2551 C 0.50005 0.99715 0.14826 0.0
C2552 C 0.49151 0.96963 0.16142 0.0
C2553 C 0.485 0.99667 0.17585 0.0
C2554 C 0.49214 0.00101 0.19091 0.0
C2555 C 0.48332 0.0103 0.20271 0.0
C2556 C 0.467 0.01553 0.19882 0.0
C2557 C 0.45971 0.01149 0.18322 0.0
C2558 C 0.46882 0.00159 0.17188 0.0
H2559 H 0.53546 0.48439 0.65095 0.0
H2560 H 0.54723 0.48188 0.70367 0.0
H2561 H 0.51863 0.49174 0.71032 0.0
H2562 H 0.51045 0.52108 0.65214 0.0
H2563 H 0.49613 0.51347 0.63659 0.0
H2564 H 0.51747 0.50659 0.63647 0.0
H2565 H 0.50755 0.47585 0.63769 0.0
H2566 H 0.48617 0.48264 0.63794 0.0
H2567 H 0.49389 0.46931 0.65428 0.0
H2568 H 0.48811 0.50279 0.7106 0.0
H2569 H 0.4595 0.51293 0.70451 0.0
H2570 H 0.46888 0.50642 0.65163 0.0
C2571 C 0.53218 0.48601 0.66394 0.0
C2572 C 0.54369 0.48249 0.67679 0.0
C2573 C 0.53865 0.48455 0.6936 0.0
C2574 C 0.52243 0.49014 0.69748 0.0
C2575 C 0.5114 0.49342 0.68441 0.0
C2576 C 0.51615 0.49132 0.66799 0.0
C2577 C 0.50215 0.49531 0.65609 0.0
C2578 C 0.50683 0.50998 0.64465 0.0
C2579 C 0.49715 0.47986 0.64591 0.0
C2580 C 0.48869 0.50013 0.66829 0.0
C2581 C 0.49413 0.49908 0.6846 0.0
C2582 C 0.48375 0.50351 0.69786 0.0
C2583 C 0.46751 0.50925 0.6943 0.0
C2584 C 0.46179 0.51035 0.6776 0.0
C2585 C 0.47263 0.50556 0.66457 0.0
H2586 H 0.71261 0.909 0.73764 0.0
H2587 H 0.70386 0.96193 0.7309 0.0
H2588 H 0.73328 0.96761 0.73859 0.0
H2589 H 0.74015 0.91192 0.77263 0.0
H2590 H 0.75297 0.89486 0.76561 0.0
H2591 H 0.73122 0.8955 0.76017 0.0
H2592 H 0.73906 0.89326 0.72888 0.0
H2593 H 0.76084 0.89281 0.73422 0.0
H2594 H 0.75312 0.90831 0.71991 0.0
H2595 H 0.76426 0.96699 0.74799 0.0
H2596 H 0.79303 0.96007 0.75712 0.0
H2597 H 0.78047 0.9075 0.7555 0.0
C2598 C 0.71673 0.92185 0.73792 0.0
C2599 C 0.70584 0.93504 0.73382 0.0
C2600 C 0.71195 0.95161 0.73407 0.0
C2601 C 0.72865 0.95495 0.73841 0.0
C2602 C 0.73908 0.94155 0.74225 0.0
C2603 C 0.73327 0.92534 0.74194 0.0
C2604 C 0.74682 0.91299 0.74611 0.0
C2605 C 0.74253 0.90325 0.76208 0.0
C2606 C 0.75015 0.90115 0.7314 0.0
C2607 C 0.76125 0.92471 0.74889 0.0
C2608 C 0.75665 0.94117 0.74677 0.0
C2609 C 0.76798 0.95412 0.74949 0.0
C2610 C 0.78429 0.95009 0.75465 0.0
C2611 C 0.78914 0.93323 0.75679 0.0
C2612 C 0.77739 0.92051 0.75366 0.0
H2613 H 0.78995 0.41293 0.2472 0.0
H2614 H 0.79349 0.46383 0.26516 0.0
H2615 H 0.76479 0.46919 0.25495 0.0
H2616 H 0.76443 0.42081 0.21032 0.0
H2617 H 0.75279 0.40183 0.21326 0.0
H2618 H 0.77416 0.40303 0.22001 0.0
H2619 H 0.76519 0.39423 0.24977 0.0
H2620 H 0.7438 0.39317 0.24319 0.0
H2621 H 0.74954 0.4062 0.26056 0.0
H2622 H 0.73448 0.46805 0.24374 0.0
H2623 H 0.70609 0.46018 0.23412 0.0
H2624 H 0.72323 0.40965 0.22569 0.0
C2625 C 0.78497 0.42538 0.2487 0.0
C2626 C 0.79414 0.43801 0.25685 0.0
C2627 C 0.7868 0.45397 0.25883 0.0
C2628 C 0.7705 0.45712 0.25306 0.0
C2629 C 0.7617 0.44416 0.24545 0.0
C2630 C 0.76878 0.42861 0.24331 0.0
C2631 C 0.75654 0.41628 0.23611 0.0
C2632 C 0.76233 0.41013 0.2189 0.0
C2633 C 0.75359 0.40161 0.24813 0.0
C2634 C 0.74128 0.42717 0.2347 0.0
C2635 C 0.74444 0.4433 0.23986 0.0
C2636 C 0.73195 0.45545 0.23967 0.0
C2637 C 0.71588 0.45089 0.23419 0.0
C2638 C 0.71244 0.43427 0.22934 0.0
C2639 C 0.7254 0.42241 0.22952 0.0
H2640 H 0.00737 0.26251 0.0825 0.0
H2641 H 0.05311 0.26303 0.11084 0.0
H2642 H 0.04354 0.23845 0.12687 0.0
H2643 H 0.98203 0.25725 0.1129 0.0
H2644 H 0.96719 0.24341 0.10325 0.0
H2645 H 0.97961 0.25689 0.09055 0.0
H2646 H 0.99084 0.23167 0.07386 0.0
H2647 H 0.9781 0.21797 0.08632 0.0
H2648 H 0.00022 0.21439 0.08472 0.0
H2649 H 0.02563 0.21939 0.14461 0.0
H2650 H 0.00213 0.20699 0.16059 0.0
H2651 H 0.9687 0.21878 0.11993 0.0
C2652 C 0.01573 0.25672 0.09137 0.0
C2653 C 0.03102 0.26426 0.09529 0.0
C2654 C 0.04153 0.257 0.1074 0.0
C2655 C 0.03614 0.2431 0.1166 0.0
C2656 C 0.0204 0.2365 0.11319 0.0
C2657 C 0.01057 0.24281 0.10045 0.0
C2658 C 0.99328 0.23543 0.10076 0.0
C2659 C 0.97976 0.24906 0.10196 0.0
C2660 C 0.99045 0.22419 0.08551 0.0
C2661 C 0.99435 0.22525 0.11653 0.0
C2662 C 0.01016 0.22553 0.12337 0.0
C2663 C 0.01335 0.21865 0.13909 0.0
C2664 C -2e-05 0.21168 0.14812 0.0
C2665 C 0.9837 0.21205 0.14144 0.0
C2666 C 0.98108 0.21836 0.12528 0.0
H2667 H 0.95501 0.26429 0.37148 0.0
H2668 H 0.98923 0.29154 0.3399 0.0
H2669 H 0.01303 0.28077 0.35667 0.0
H2670 H 0.97927 0.2687 0.41123 0.0
H2671 H 0.97324 0.24806 0.41769 0.0
H2672 H 0.9593 0.26042 0.40514 0.0
H2673 H 0.95782 0.2367 0.38321 0.0
H2674 H 0.97154 0.2243 0.39572 0.0
H2675 H 0.97688 0.22874 0.37436 0.0
H2676 H 0.03292 0.26274 0.3742 0.0
H2677 H 0.0462 0.23919 0.38927 0.0
H2678 H 0.99823 0.22508 0.40934 0.0
C2679 C 0.96751 0.26826 0.36827 0.0
C2680 C 0.9704 0.27857 0.35438 0.0
C2681 C 0.98684 0.28364 0.35057 0.0
C2682 C 0.00036 0.27764 0.36008 0.0
C2683 C 0.99705 0.26703 0.37353 0.0
C2684 C 0.98092 0.26264 0.37768 0.0
C2685 C 0.98039 0.24985 0.39144 0.0
C2686 C 0.97259 0.25721 0.40732 0.0
C2687 C 0.97113 0.23397 0.38583 0.0
C2688 C 0.99878 0.24679 0.39373 0.0
C2689 C 0.00833 0.25706 0.38367 0.0
C2690 C 0.02558 0.25499 0.38244 0.0
C2691 C 0.03306 0.24167 0.39111 0.0
C2692 C 0.02317 0.23058 0.40056 0.0
C2693 C 0.00603 0.23365 0.40243 0.0
H2694 H 0.98257 0.21407 0.62424 0.0
H2695 H 0.96422 0.24565 0.5845 0.0
H2696 H 0.97421 0.27062 0.60002 0.0
H2697 H 0.97383 0.24359 0.6594 0.0
H2698 H 0.99244 0.23701 0.67011 0.0
H2699 H 0.9811 0.22244 0.6573 0.0
H2700 H 0.0079 0.21635 0.64022 0.0
H2701 H 0.01925 0.23062 0.65309 0.0
H2702 H 0.01902 0.23346 0.63081 0.0
H2703 H 0.99077 0.2912 0.61789 0.0
H2704 H 0.01301 0.30449 0.63476 0.0
H2705 H 0.01923 0.25886 0.66264 0.0
C2706 C 0.98042 0.22627 0.61887 0.0
C2707 C 0.97289 0.22804 0.60313 0.0
C2708 C 0.97005 0.24413 0.59658 0.0
C2709 C 0.97557 0.25832 0.60537 0.0
C2710 C 0.98337 0.25606 0.62082 0.0
C2711 C 0.98556 0.24035 0.62752 0.0
C2712 C 0.99575 0.24071 0.6433 0.0
C2713 C 0.98514 0.23564 0.65842 0.0
C2714 C 0.0114 0.22965 0.64174 0.0
C2715 C 8e-05 0.25897 0.64391 0.0
C2716 C 0.99247 0.26781 0.63118 0.0
C2717 C 0.99637 0.28451 0.62817 0.0
C2718 C 0.0089 0.29202 0.63787 0.0
C2719 C 0.01739 0.28269 0.65016 0.0
C2720 C 0.01244 0.2663 0.65365 0.0
H2721 H 0.99291 0.26633 0.91306 0.0
H2722 H 0.94786 0.26478 0.88368 0.0
H2723 H 0.95939 0.24144 0.8671 0.0
H2724 H 0.0189 0.26435 0.8831 0.0
H2725 H 0.03468 0.25131 0.89236 0.0
H2726 H 0.02109 0.26317 0.90545 0.0
H2727 H 0.01161 0.23645 0.92085 0.0
H2728 H 0.0256 0.22438 0.90805 0.0
H2729 H 0.00383 0.21897 0.90909 0.0
H2730 H 0.97894 0.22431 0.84909 0.0
H2731 H 0.00361 0.21415 0.83322 0.0
H2732 H 0.03538 0.2273 0.87476 0.0
C2733 C 0.98514 0.26028 0.90383 0.0
C2734 C 0.9695 0.26695 0.89975 0.0
C2735 C 0.95972 0.25939 0.88722 0.0
C2736 C 0.96623 0.24621 0.8777 0.0
C2737 C 0.98234 0.24061 0.88121 0.0
C2738 C 0.99145 0.24713 0.89439 0.0
C2739 C 0.00928 0.24118 0.89409 0.0
C2740 C 0.02168 0.25588 0.89371 0.0
C2741 C 0.01278 0.22955 0.9089 0.0
C2742 C 0.00925 0.23167 0.87789 0.0
C2743 C 0.99357 0.23093 0.87079 0.0
C2744 C 0.99116 0.22438 0.85479 0.0
C2745 C 0.00517 0.21872 0.84581 0.0
C2746 C 0.02125 0.22014 0.85282 0.0
C2747 C 0.02314 0.22617 0.86916 0.0
H2748 H 0.01411 0.71065 0.87501 0.0
H2749 H 0.03625 0.74514 0.91016 0.0
H2750 H 0.02637 0.76887 0.89271 0.0
H2751 H 0.02192 0.73548 0.83667 0.0
H2752 H 0.00236 0.72888 0.82781 0.0
H2753 H 0.01365 0.71518 0.84157 0.0
H2754 H 0.98765 0.71269 0.86068 0.0
H2755 H 0.97632 0.7261 0.84689 0.0
H2756 H 0.97808 0.73139 0.86866 0.0
H2757 H 0.00998 0.78844 0.87323 0.0
H2758 H 0.98788 0.80112 0.85568 0.0
H2759 H 0.97765 0.75299 0.83376 0.0
C2760 C 0.0171 0.72319 0.87901 0.0
C2761 C 0.02571 0.72615 0.89401 0.0
C2762 C 0.02958 0.74269 0.89869 0.0
C2763 C 0.02412 0.75617 0.88879 0.0
C2764 C 0.01527 0.75274 0.87415 0.0
C2765 C 0.01197 0.73655 0.86929 0.0
C2766 C 0.00089 0.73577 0.85415 0.0
C2767 C 0.01027 0.72839 0.83916 0.0
C2768 C 0.98479 0.72593 0.85783 0.0
C2769 C 0.9975 0.75406 0.85168 0.0
C2770 C 0.0062 0.7638 0.86298 0.0
C2771 C 0.00347 0.78096 0.86408 0.0
C2772 C 0.99102 0.7881 0.85399 0.0
C2773 C 0.98139 0.77797 0.84327 0.0
C2774 C 0.9852 0.76098 0.84161 0.0
H2775 H 0.53528 0.27032 0.12839 0.0
H2776 H 0.50315 0.28595 0.16882 0.0
H2777 H 0.47852 0.27577 0.15286 0.0
H2778 H 0.50536 0.27816 0.09315 0.0
H2779 H 0.51282 0.25993 0.08237 0.0
H2780 H 0.52682 0.27188 0.09524 0.0
H2781 H 0.53416 0.24528 0.1121 0.0
H2782 H 0.52034 0.23333 0.09927 0.0
H2783 H 0.5176 0.2334 0.12157 0.0
H2784 H 0.45847 0.2591 0.13433 0.0
H2785 H 0.446 0.23677 0.11696 0.0
H2786 H 0.49214 0.23223 0.08956 0.0
C2787 C 0.52301 0.27196 0.13377 0.0
C2788 C 0.52102 0.27875 0.14983 0.0
C2789 C 0.50484 0.28081 0.15646 0.0
C2790 C 0.49085 0.27513 0.14744 0.0
C2791 C 0.49337 0.26786 0.13176 0.0
C2792 C 0.50915 0.26648 0.12499 0.0
C2793 C 0.50925 0.25634 0.10916 0.0
C2794 C 0.51383 0.26724 0.09409 0.0
C2795 C 0.52101 0.2412 0.11064 0.0
C2796 C 0.49122 0.25116 0.10852 0.0
C2797 C 0.48204 0.25831 0.12128 0.0
C2798 C 0.46545 0.25382 0.12408 0.0
C2799 C 0.45842 0.24122 0.1141 0.0
C2800 C 0.46813 0.23314 0.10182 0.0
C2801 C 0.48443 0.23861 0.09862 0.0
H2802 H 0.98619 0.79274 0.36866 0.0
H2803 H 0.95792 0.7601 0.40102 0.0
H2804 H 0.96879 0.73555 0.38547 0.0
H2805 H 0.98269 0.76698 0.32985 0.0
H2806 H 0.00359 0.77251 0.32377 0.0
H2807 H 0.99104 0.78708 0.33539 0.0
H2808 H 0.01414 0.78914 0.35793 0.0
H2809 H 0.02671 0.77477 0.34636 0.0
H2810 H 0.02156 0.77036 0.36777 0.0
H2811 H 0.98685 0.71476 0.36909 0.0
H2812 H 0.01052 0.70058 0.35507 0.0
H2813 H 0.0259 0.74757 0.33364 0.0
C2814 C 0.982 0.78044 0.3723 0.0
C2815 C 0.97135 0.77822 0.38606 0.0
C2816 C 0.96606 0.76199 0.39043 0.0
C2817 C 0.97212 0.74804 0.38162 0.0
C2818 C 0.98306 0.75069 0.3683 0.0
C2819 C 0.98774 0.76659 0.3636 0.0
C2820 C 0.00092 0.76642 0.35021 0.0
C2821 C 0.99414 0.77367 0.33383 0.0
C2822 C 0.01676 0.7757 0.35593 0.0
C2823 C 0.00382 0.74792 0.34874 0.0
C2824 C 0.99316 0.73891 0.35889 0.0
C2825 C 0.99493 0.72168 0.3608 0.0
C2826 C 0.00831 0.71368 0.35272 0.0
C2827 C 0.01979 0.72305 0.34318 0.0
C2828 C 0.01705 0.74016 0.34065 0.0
H2829 H 0.52708 0.28155 0.62542 0.0
H2830 H 0.54062 0.24889 0.58468 0.0
H2831 H 0.52885 0.22481 0.60034 0.0
H2832 H 0.53307 0.25027 0.66032 0.0
H2833 H 0.51547 0.25883 0.67134 0.0
H2834 H 0.52842 0.27218 0.65873 0.0
H2835 H 0.50242 0.28187 0.64212 0.0
H2836 H 0.48951 0.26877 0.65473 0.0
H2837 H 0.48927 0.26647 0.63238 0.0
H2838 H 0.51052 0.20593 0.61813 0.0
H2839 H 0.48672 0.19512 0.63459 0.0
H2840 H 0.4858 0.24063 0.66332 0.0
C2841 C 0.52793 0.26924 0.61995 0.0
C2842 C 0.53456 0.26698 0.60386 0.0
C2843 C 0.53559 0.25078 0.59706 0.0
C2844 C 0.52903 0.23709 0.60592 0.0
C2845 C 0.52198 0.23989 0.62165 0.0
C2846 C 0.52165 0.25563 0.62863 0.0
C2847 C 0.51157 0.25615 0.64449 0.0
C2848 C 0.52281 0.25955 0.65962 0.0
C2849 C 0.49735 0.26905 0.64334 0.0
C2850 C 0.50505 0.23853 0.64477 0.0
C2851 C 0.51161 0.22908 0.63188 0.0
C2852 C 0.50573 0.21304 0.62853 0.0
C2853 C 0.4923 0.20693 0.63801 0.0
C2854 C 0.48485 0.21699 0.65039 0.0
C2855 C 0.49176 0.23258 0.65426 0.0
H2856 H 0.0893 0.99737 0.27768 0.0
H2857 H 0.1114 0.04489 0.26509 0.0
H2858 H 0.12799 0.03119 0.2428 0.0
H2859 H 0.12423 0.97556 0.27677 0.0
H2860 H 0.11574 0.95655 0.26835 0.0
H2861 H 0.10254 0.97051 0.27975 0.0
H2862 H 0.08223 0.9726 0.25472 0.0
H2863 H 0.09516 0.95822 0.24329 0.0
H2864 H 0.09012 0.97824 0.23445 0.0
H2865 H 0.14593 0.01072 0.2254 0.0
H2866 H 0.16199 0.98639 0.21469 0.0
H2867 H 0.12827 0.95315 0.24061 0.0
C2868 C 0.09706 0.00502 0.26969 0.0
C2869 C 0.09898 0.02213 0.27286 0.0
C2870 C 0.10951 0.03177 0.26252 0.0
C2871 C 0.11905 0.02405 0.24994 0.0
C2872 C 0.11764 0.00681 0.24783 0.0
C2873 C 0.10659 0.99752 0.25729 0.0
C2874 C 0.10873 0.97907 0.25447 0.0
C2875 C 0.11308 0.96991 0.2708 0.0
C2876 C 0.09313 0.9716 0.24624 0.0
C2877 C 0.12327 0.97926 0.24261 0.0
C2878 C 0.12812 0.99527 0.23851 0.0
C2879 C 0.14202 0.99816 0.22837 0.0
C2880 C 0.15111 0.98433 0.22241 0.0
C2881 C 0.14645 0.96798 0.22703 0.0
C2882 C 0.13224 0.96554 0.23702 0.0
H2883 H 0.22826 0.37712 0.5351 0.0
H2884 H 0.21343 0.33521 0.50459 0.0
H2885 H 0.22193 0.3509 0.47919 0.0
H2886 H 0.21722 0.41102 0.50398 0.0
H2887 H 0.23496 0.42313 0.51053 0.0
H2888 H 0.22412 0.41016 0.52534 0.0
H2889 H 0.25181 0.39512 0.53264 0.0
H2890 H 0.26264 0.40813 0.51812 0.0
H2891 H 0.26388 0.38579 0.51614 0.0
H2892 H 0.2375 0.36904 0.45834 0.0
H2893 H 0.25952 0.38612 0.44507 0.0
H2894 H 0.26328 0.41605 0.48965 0.0
C2895 C 0.22646 0.37138 0.52301 0.0
C2896 C 0.22042 0.35498 0.52166 0.0
C2897 C 0.21805 0.34783 0.50576 0.0
C2898 C 0.22275 0.35671 0.49134 0.0
C2899 C 0.22924 0.37281 0.49317 0.0
C2900 C 0.23083 0.3801 0.5087 0.0
C2901 C 0.24004 0.39647 0.50792 0.0
C2902 C 0.22838 0.41106 0.51219 0.0
C2903 C 0.2555 0.39634 0.51936 0.0
C2904 C 0.24473 0.3967 0.48972 0.0
C2905 C 0.23791 0.38331 0.48119 0.0
C2906 C 0.24243 0.37982 0.46475 0.0
C2907 C 0.25484 0.38966 0.45723 0.0
C2908 C 0.26266 0.40255 0.46632 0.0
C2909 C 0.25698 0.40659 0.48236 0.0
H2910 H 0.83561 0.51335 0.73716 0.0
H2911 H 0.86687 0.51177 0.69338 0.0
H2912 H 0.88365 0.48921 0.70614 0.0
H2913 H 0.86494 0.51303 0.76425 0.0
H2914 H 0.85541 0.50025 0.78008 0.0
H2915 H 0.84256 0.51145 0.76571 0.0
H2916 H 0.82801 0.48418 0.75649 0.0
H2917 H 0.84053 0.47278 0.77127 0.0
H2918 H 0.84037 0.46672 0.74964 0.0
H2919 H 0.9012 0.47261 0.72682 0.0
H2920 H 0.9161 0.4629 0.75228 0.0
H2921 H 0.87317 0.47622 0.78209 0.0
C2922 C 0.84532 0.50743 0.72988 0.0
C2923 C 0.84981 0.5139 0.71426 0.0
C2924 C 0.86298 0.50653 0.7052 0.0
C2925 C 0.87264 0.4938 0.71243 0.0
C2926 C 0.86868 0.48849 0.72854 0.0
C2927 C 0.85496 0.49481 0.73694 0.0
C2928 C 0.85474 0.48937 0.75495 0.0
C2929 C 0.85441 0.50442 0.76692 0.0
C2930 C 0.84004 0.47755 0.75828 0.0
C2931 C 0.87112 0.4802 0.75578 0.0
C2932 C 0.87887 0.47931 0.74043 0.0
C2933 C 0.89501 0.47286 0.7388 0.0
C2934 C 0.90343 0.46744 0.75326 0.0
C2935 C 0.89575 0.469 0.76903 0.0
C2936 C 0.87931 0.47499 0.77013 0.0
H2937 H 0.75535 0.16411 0.0264 0.0
H2938 H 0.79958 0.1335 0.0239 0.0
H2939 H 0.78778 0.11838 0.99966 0.0
H2940 H 0.72812 0.13471 0.02188 0.0
H2941 H 0.71312 0.14563 0.00922 0.0
H2942 H 0.72687 0.15714 0.02249 0.0
H2943 H 0.73762 0.17425 0.9973 0.0
H2944 H 0.72357 0.16297 0.98386 0.0
H2945 H 0.74553 0.16361 0.97917 0.0
H2946 H 0.76799 0.10232 0.98064 0.0
H2947 H 0.74312 0.0884 0.96834 0.0
H2948 H 0.71258 0.13015 0.98361 0.0
C2949 C 0.76287 0.15482 0.02012 0.0
C2950 C 0.77835 0.15004 0.02668 0.0
C2951 C 0.78781 0.13754 0.01866 0.0
C2952 C 0.78116 0.12887 0.00495 0.0
C2953 C 0.76528 0.13321 0.99931 0.0
C2954 C 0.75648 0.14627 0.00642 0.0
C2955 C 0.73886 0.14713 -5e-05 0.0
C2956 C 0.72601 0.14607 0.01423 0.0
C2957 C 0.73625 0.16293 0.98944 0.0
C2958 C 0.73861 0.13173 0.9892 0.0
C2959 C 0.75399 0.12402 0.9885 0.0
C2960 C 0.75601 0.10852 0.98073 0.0
C2961 C 0.74189 0.10066 0.97383 0.0
C2962 C 0.72606 0.10825 0.97519 0.0
C2963 C 0.72461 0.12412 0.98246 0.0
H2964 H 0.12323 0.03283 0.77347 0.0
H2965 H 0.16458 0.0008 0.78661 0.0
H2966 H 0.14855 0.97624 0.77639 0.0
H2967 H 0.08876 0.00183 0.78223 0.0
H2968 H 0.07694 0.00965 0.7648 0.0
H2969 H 0.0901 0.02353 0.77659 0.0
H2970 H 0.10552 0.03213 0.74949 0.0
H2971 H 0.09235 0.01851 0.73772 0.0
H2972 H 0.11467 0.01618 0.73657 0.0
H2973 H 0.13009 0.95665 0.75949 0.0
H2974 H 0.11266 0.94493 0.73686 0.0
H2975 H 0.08365 0.99023 0.73558 0.0
C2976 C 0.12878 0.02057 0.77455 0.0
C2977 C 0.14511 0.01859 0.78062 0.0
C2978 C 0.15201 0.00246 0.78199 0.0
C2979 C 0.14295 0.98851 0.77631 0.0
C2980 C 0.12693 0.99101 0.76981 0.0
C2981 C 0.1199 0.00672 0.76917 0.0
C2982 C 0.10359 0.0068 0.7598 0.0
C2983 C 0.08898 0.01068 0.77156 0.0
C2984 C 0.10409 0.01911 0.74503 0.0
C2985 C 0.10305 0.98893 0.75404 0.0
C2986 C 0.11628 0.97977 0.76036 0.0
C2987 C 0.11943 0.96354 0.75493 0.0
C2988 C 0.1094 0.9569 0.74218 0.0
C2989 C 0.09663 0.96662 0.73495 0.0
C2990 C 0.09299 0.98244 0.74144 0.0
H2991 H 0.20852 0.37428 0.01162 0.0
H2992 H 0.24054 0.4121 0.03297 0.0
H2993 H 0.26542 0.39592 0.02377 0.0
H2994 H 0.23596 0.33772 0.02069 0.0
H2995 H 0.23002 0.3279 0.00138 0.0
H2996 H 0.21539 0.341 0.01229 0.0
H2997 H 0.21163 0.35915 0.98577 0.0
H2998 H 0.22599 0.34602 0.97482 0.0
H2999 H 0.22975 0.36814 0.97599 0.0
H3000 H 0.28628 0.37751 0.00777 0.0
H3001 H 0.30015 0.36047 0.986 0.0
H3002 H 0.25372 0.33495 0.97638 0.0
C3003 C 0.22078 0.37908 0.0146 0.0
C3004 C 0.22272 0.39449 0.02277 0.0
C3005 C 0.23889 0.40029 0.02667 0.0
C3006 C 0.25302 0.39112 0.02158 0.0
C3007 C 0.2506 0.37605 0.0131 0.0
C3008 C 0.23478 0.37006 0.00987 0.0
C3009 C 0.23508 0.35461 0.99919 0.0
C3010 C 0.22874 0.33941 0.00898 0.0
C3011 C 0.22504 0.35715 0.98299 0.0
C3012 C 0.25351 0.3533 0.99588 0.0
C3013 C 0.26243 0.36544 0.00432 0.0
C3014 C 0.27947 0.36771 0.00151 0.0
C3015 C 0.28731 0.35789 0.98924 0.0
C3016 C 0.27796 0.34625 0.97988 0.0
C3017 C 0.26114 0.34347 0.98378 0.0
H3018 H 0.87081 0.53248 0.22387 0.0
H3019 H 0.91715 0.53434 0.25128 0.0
H3020 H 0.90242 0.52433 0.27661 0.0
H3021 H 0.84126 0.54103 0.26124 0.0
H3022 H 0.82637 0.5266 0.25261 0.0
H3023 H 0.83906 0.53918 0.23897 0.0
H3024 H 0.8494 0.5125 0.22398 0.0
H3025 H 0.83681 0.49999 0.23742 0.0
H3026 H 0.85891 0.49612 0.23608 0.0
H3027 H 0.88467 0.50729 0.29579 0.0
H3028 H 0.86711 0.48403 0.30567 0.0
H3029 H 0.83248 0.49281 0.26548 0.0
C3030 C 0.87767 0.53145 0.23545 0.0
C3031 C 0.89499 0.53418 0.23581 0.0
C3032 C 0.90378 0.53253 0.25094 0.0
C3033 C 0.89546 0.52689 0.26534 0.0
C3034 C 0.87839 0.52336 0.26435 0.0
C3035 C 0.86956 0.52586 0.24975 0.0
C3036 C 0.85229 0.51838 0.25062 0.0
C3037 C 0.83896 0.53212 0.25088 0.0
C3038 C 0.84921 0.50601 0.2362 0.0
C3039 C 0.85329 0.50969 0.26728 0.0
C3040 C 0.8681 0.51335 0.27542 0.0
C3041 C 0.87282 0.50484 0.28984 0.0
C3042 C 0.86272 0.49171 0.29547 0.0
C3043 C 0.84827 0.48711 0.28654 0.0
C3044 C 0.84311 0.49668 0.27283 0.0
H3045 H 0.78504 0.12406 0.52537 0.0
H3046 H 0.75445 0.08168 0.53859 0.0
H3047 H 0.72924 0.09718 0.52923 0.0
H3048 H 0.75308 0.1578 0.53472 0.0
H3049 H 0.76034 0.16976 0.51715 0.0
H3050 H 0.77475 0.15708 0.52884 0.0
H3051 H 0.7835 0.14186 0.50168 0.0
H3052 H 0.76933 0.15452 0.49002 0.0
H3053 H 0.7677 0.13214 0.489 0.0
H3054 H 0.70884 0.11516 0.51291 0.0
H3055 H 0.69632 0.13204 0.4903 0.0
H3056 H 0.74083 0.16221 0.48807 0.0
C3057 C 0.77295 0.11821 0.52672 0.0
C3058 C 0.77155 0.10173 0.53254 0.0
C3059 C 0.75565 0.09438 0.53421 0.0
C3060 C 0.74133 0.10315 0.529 0.0
C3061 C 0.74325 0.11929 0.52264 0.0
C3062 C 0.75875 0.12677 0.52173 0.0
C3063 C 0.75824 0.14302 0.51229 0.0
C3064 C 0.76181 0.15779 0.52395 0.0
C3065 C 0.77038 0.14285 0.49737 0.0
C3066 C 0.74029 0.143 0.50675 0.0
C3067 C 0.73159 0.12959 0.51331 0.0
C3068 C 0.71537 0.12594 0.50814 0.0
C3069 C 0.70829 0.13565 0.49539 0.0
C3070 C 0.7176 0.14855 0.48783 0.0
C3071 C 0.73339 0.15271 0.4941 0.0
H3072 H 0.23866 0.16593 0.98515 0.0
H3073 H 0.19478 0.13485 0.98429 0.0
H3074 H 0.20595 0.11828 0.00779 0.0
H3075 H 0.26568 0.13693 0.98777 0.0
H3076 H 0.28053 0.14654 0.00161 0.0
H3077 H 0.26695 0.15931 0.98941 0.0
H3078 H 0.25581 0.17385 0.01597 0.0
H3079 H 0.26976 0.16135 0.02841 0.0
H3080 H 0.24775 0.16149 0.03291 0.0
H3081 H 0.22547 0.10062 0.02527 0.0
H3082 H 0.25032 0.08536 0.03587 0.0
H3083 H 0.28092 0.12847 0.02525 0.0
C3084 C 0.23099 0.15634 0.99074 0.0
C3085 C 0.21579 0.15183 0.98336 0.0
C3086 C 0.20624 0.13875 0.99025 0.0
C3087 C 0.21256 0.12923 0.00353 0.0
C3088 C 0.22826 0.13324 0.00987 0.0
C3089 C 0.23711 0.14688 0.00399 0.0
C3090 C 0.25468 0.14712 0.0107 0.0
C3091 C 0.26769 0.14747 0.99653 0.0
C3092 C 0.25714 0.16183 0.02272 0.0
C3093 C 0.25488 0.13075 0.01993 0.0
C3094 C 0.23947 0.12305 0.01984 0.0
C3095 C 0.23744 0.10678 0.02587 0.0
C3096 C 0.25157 0.09816 0.03181 0.0
C3097 C 0.26741 0.1058 0.03123 0.0
C3098 C 0.26887 0.1224 0.02578 0.0
H3099 H 0.73444 0.87433 0.53969 0.0
H3100 H 0.71169 0.83707 0.50792 0.0
H3101 H 0.72151 0.8527 0.48295 0.0
H3102 H 0.72665 0.91089 0.51231 0.0
H3103 H 0.74633 0.92005 0.51807 0.0
H3104 H 0.73511 0.90736 0.53282 0.0
H3105 H 0.761 0.88828 0.53638 0.0
H3106 H 0.77228 0.90103 0.52194 0.0
H3107 H 0.77034 0.87897 0.51819 0.0
H3108 H 0.73791 0.87054 0.46193 0.0
H3109 H 0.76007 0.88693 0.44787 0.0
H3110 H 0.77077 0.91222 0.4942 0.0
C3111 C 0.73131 0.86949 0.52748 0.0
C3112 C 0.72253 0.85441 0.52566 0.0
C3113 C 0.71849 0.84861 0.50951 0.0
C3114 C 0.72391 0.85748 0.49533 0.0
C3115 C 0.7329 0.87225 0.49765 0.0
C3116 C 0.73639 0.8782 0.51343 0.0
C3117 C 0.74757 0.89328 0.51304 0.0
C3118 C 0.73836 0.90881 0.51944 0.0
C3119 C 0.76374 0.89019 0.52295 0.0
C3120 C 0.75078 0.89444 0.49458 0.0
C3121 C 0.74193 0.88253 0.48574 0.0
C3122 C 0.74452 0.88016 0.46868 0.0
C3123 C 0.75701 0.8896 0.46075 0.0
C3124 C 0.76677 0.90096 0.47001 0.0
C3125 C 0.76309 0.90389 0.48686 0.0
H3126 H 0.3712 0.03968 0.73729 0.0
H3127 H 0.3401 0.0049 0.71005 0.0
H3128 H 0.35692 0.98137 0.72138 0.0
H3129 H 0.41051 0.01698 0.73212 0.0
H3130 H 0.41755 0.02289 0.75261 0.0
H3131 H 0.40402 0.03655 0.74102 0.0
H3132 H 0.38285 0.03673 0.76549 0.0
H3133 H 0.39643 0.02338 0.7772 0.0
H3134 H 0.37516 0.0172 0.77349 0.0
H3135 H 0.37592 0.96174 0.73868 0.0
H3136 H 0.39322 0.94868 0.7608 0.0
H3137 H 0.41176 0.9973 0.77488 0.0
C3138 C 0.36786 0.02713 0.7336 0.0
C3139 C 0.35422 0.02405 0.72298 0.0
C3140 C 0.35049 0.00747 0.71828 0.0
C3141 C 0.36004 0.9941 0.72456 0.0
C3142 C 0.37345 0.99767 0.73513 0.0
C3143 C 0.37733 0.01387 0.73945 0.0
C3144 C 0.39154 0.01475 0.75169 0.0
C3145 C 0.40681 0.0233 0.74389 0.0
C3146 C 0.38616 0.02352 0.76792 0.0
C3147 C 0.39466 0.99644 0.75435 0.0
C3148 C 0.3844 0.98665 0.74452 0.0
C3149 C 0.38421 0.96931 0.74615 0.0
C3150 C 0.39417 0.96196 0.75862 0.0
C3151 C 0.4039 0.97205 0.76932 0.0
C3152 C 0.40462 0.98934 0.76664 0.0
H3153 H 0.21853 0.62994 0.9779 0.0
H3154 H 0.24664 0.58519 0.96728 0.0
H3155 H 0.27233 0.59902 0.97783 0.0
H3156 H 0.25367 0.66116 0.97019 0.0
H3157 H 0.24619 0.67391 0.98711 0.0
H3158 H 0.23166 0.6622 0.97457 0.0
H3159 H 0.21995 0.64815 0.00123 0.0
H3160 H 0.23428 0.65979 0.01372 0.0
H3161 H 0.23403 0.63736 0.01502 0.0
H3162 H 0.29294 0.61563 0.9952 0.0
H3163 H 0.30529 0.63189 0.01836 0.0
H3164 H 0.2631 0.6653 0.01756 0.0
C3165 C 0.23024 0.62325 0.9773 0.0
C3166 C 0.23076 0.60658 0.97189 0.0
C3167 C 0.24614 0.59807 0.97129 0.0
C3168 C 0.26074 0.60587 0.97719 0.0
C3169 C 0.25965 0.62223 0.9832 0.0
C3170 C 0.24472 0.63085 0.98302 0.0
C3171 C 0.24587 0.64716 0.99234 0.0
C3172 C 0.24426 0.66198 0.98033 0.0
C3173 C 0.23278 0.64814 0.00641 0.0
C3174 C 0.26335 0.64583 0.9991 0.0
C3175 C 0.27142 0.63173 0.99321 0.0
C3176 C 0.28694 0.62694 0.99945 0.0
C3177 C 0.29394 0.63628 0.01252 0.0
C3178 C 0.28521 0.64998 0.01932 0.0
C3179 C 0.27016 0.65517 0.01209 0.0
H3180 H 0.71832 0.87549 0.01998 0.0
H3181 H 0.74763 0.91936 0.03106 0.0
H3182 H 0.77264 0.9055 0.01898 0.0
H3183 H 0.75265 0.84354 0.02567 0.0
H3184 H 0.74448 0.83142 0.00862 0.0
H3185 H 0.73054 0.84319 0.02173 0.0
H3186 H 0.71866 0.85819 0.99567 0.0
H3187 H 0.73245 0.8465 0.98259 0.0
H3188 H 0.73274 0.86895 0.98185 0.0
H3189 H 0.79254 0.88872 0.00055 0.0
H3190 H 0.80428 0.87206 0.97728 0.0
H3191 H 0.76122 0.83976 0.97863 0.0
C3192 C 0.73014 0.882 0.0203 0.0
C3193 C 0.73118 0.89843 0.02633 0.0
C3194 C 0.74673 0.90667 0.02658 0.0
C3195 C 0.76094 0.89885 0.01979 0.0
C3196 C 0.75931 0.88274 0.01326 0.0
C3197 C 0.74424 0.87438 0.01373 0.0
C3198 C 0.74477 0.85829 0.00403 0.0
C3199 C 0.74301 0.84322 0.01572 0.0
C3200 C 0.73138 0.85799 0.99022 0.0
C3201 C 0.76212 0.85933 0.99693 0.0
C3202 C 0.77061 0.87319 0.00275 0.0
C3203 C 0.78618 0.87761 0.99631 0.0
C3204 C 0.79282 0.86805 0.98319 0.0
C3205 C 0.7837 0.85452 0.97655 0.0
C3206 C 0.76855 0.8498 0.98391 0.0
H3207 H 0.336 0.48536 0.75862 0.0
H3208 H 0.36517 0.49039 0.80356 0.0
H3209 H 0.38299 0.51144 0.78969 0.0
H3210 H 0.36659 0.48283 0.73304 0.0
H3211 H 0.35811 0.49432 0.71571 0.0
H3212 H 0.34435 0.48461 0.73034 0.0
H3213 H 0.3299 0.5128 0.73648 0.0
H3214 H 0.34329 0.52266 0.72137 0.0
H3215 H 0.34226 0.53061 0.74235 0.0
H3216 H 0.40168 0.5262 0.76851 0.0
H3217 H 0.41766 0.53409 0.74307 0.0
H3218 H 0.37617 0.51815 0.71248 0.0
C3219 C 0.34546 0.49177 0.76581 0.0
C3220 C 0.34905 0.48669 0.78216 0.0
C3221 C 0.36195 0.49463 0.79115 0.0
C3222 C 0.37221 0.50648 0.78329 0.0
C3223 C 0.36913 0.51036 0.7666 0.0
C3224 C 0.3557 0.50352 0.75813 0.0
C3225 C 0.35643 0.50736 0.73973 0.0
C3226 C 0.35638 0.49133 0.72911 0.0
C3227 C 0.34212 0.51906 0.73469 0.0
C3228 C 0.37299 0.51617 0.73889 0.0
C3229 C 0.38002 0.51832 0.75447 0.0
C3230 C 0.39608 0.52492 0.75632 0.0
C3231 C 0.40511 0.52927 0.74187 0.0
C3232 C 0.39816 0.52647 0.72594 0.0
C3233 C 0.38183 0.52024 0.72457 0.0
H3234 H 0.62876 0.97915 0.21533 0.0
H3235 H 0.58817 0.96149 0.24615 0.0
H3236 H 0.60377 0.97041 0.27147 0.0
H3237 H 0.66359 0.96922 0.24535 0.0
H3238 H 0.67468 0.98772 0.23908 0.0
H3239 H 0.66191 0.97671 0.22423 0.0
H3240 H 0.64539 0.00384 0.21812 0.0
H3241 H 0.65819 0.01485 0.2327 0.0
H3242 H 0.63587 0.01494 0.23519 0.0
H3243 H 0.62168 0.98635 0.2925 0.0
H3244 H 0.63843 0.00842 0.30616 0.0
H3245 H 0.66712 0.01466 0.26104 0.0
C3246 C 0.62328 0.97684 0.22745 0.0
C3247 C 0.60726 0.96984 0.2289 0.0
C3248 C 0.60048 0.96685 0.24488 0.0
C3249 C 0.60931 0.97179 0.25926 0.0
C3250 C 0.625 0.9792 0.25732 0.0
C3251 C 0.63194 0.98146 0.24171 0.0
C3252 C 0.64788 0.99141 0.24243 0.0
C3253 C 0.6629 0.98061 0.23748 0.0
C3254 C 0.64674 0.00718 0.23148 0.0
C3255 C 0.6483 0.99558 0.26075 0.0
C3256 C 0.63535 0.98803 0.26933 0.0
C3257 C 0.63213 0.99188 0.28601 0.0
C3258 C 0.64179 0.00431 0.29375 0.0
C3259 C 0.65425 0.01282 0.28466 0.0
C3260 C 0.658 0.00785 0.26831 0.0
H3261 H 0.01779 0.7879 0.62486 0.0
H3262 H 0.04149 0.75597 0.58838 0.0
H3263 H 0.03251 0.7311 0.60462 0.0
H3264 H 0.02556 0.76099 0.66243 0.0
H3265 H 0.00555 0.76656 0.671 0.0
H3266 H 0.0169 0.78133 0.65844 0.0
H3267 H 0.99143 0.78431 0.63873 0.0
H3268 H 0.98006 0.76978 0.65129 0.0
H3269 H 0.98266 0.7659 0.62931 0.0
H3270 H 0.01617 0.71007 0.62233 0.0
H3271 H 0.99363 0.69586 0.63803 0.0
H3272 H 0.9815 0.7422 0.6626 0.0
C3273 C 0.02143 0.77567 0.62044 0.0
C3274 C 0.03019 0.77376 0.60536 0.0
C3275 C 0.03481 0.75763 0.59999 0.0
C3276 C 0.02981 0.7435 0.60918 0.0
C3277 C 0.02063 0.74585 0.62384 0.0
C3278 C 0.01671 0.76166 0.62947 0.0
C3279 C 0.00512 0.76122 0.64427 0.0
C3280 C 0.01381 0.76792 0.65997 0.0
C3281 C 0.98887 0.77085 0.64066 0.0
C3282 C 0.00215 0.74272 0.64555 0.0
C3283 C 0.01152 0.7339 0.63403 0.0
C3284 C 0.00918 0.7168 0.6317 0.0
C3285 C 0.99647 0.70877 0.64075 0.0
C3286 C 0.98621 0.71797 0.65172 0.0
C3287 C 0.98959 0.73489 0.65464 0.0
H3288 H 0.03335 0.77018 0.11969 0.0
H3289 H 0.00813 0.77814 0.16665 0.0
H3290 H 0.98201 0.76683 0.15438 0.0
H3291 H 0.99549 0.77661 0.09116 0.0
H3292 H 0.00294 0.76035 0.07757 0.0
H3293 H 0.01757 0.77352 0.08842 0.0
H3294 H 0.03177 0.74735 0.10096 0.0
H3295 H 0.01728 0.73422 0.09026 0.0
H3296 H 0.01937 0.73265 0.11258 0.0
H3297 H 0.96114 0.74883 0.13891 0.0
H3298 H 0.9487 0.72546 0.12298 0.0
H3299 H 0.98832 0.72897 0.08671 0.0
C3300 C 0.02211 0.77013 0.12718 0.0
C3301 C 0.02258 0.775 0.14401 0.0
C3302 C 0.00785 0.77464 0.15362 0.0
C3303 C 0.993 0.76827 0.14671 0.0
C3304 C 0.99318 0.76271 0.13016 0.0
C3305 C 0.0074 0.76387 0.12047 0.0
C3306 C 0.00556 0.75474 0.10412 0.0
C3307 C 0.00537 0.76704 0.08945 0.0
C3308 C 0.01929 0.74145 0.10188 0.0
C3309 C 0.98863 0.74698 0.1066 0.0
C3310 C 0.98131 0.7522 0.12136 0.0
C3311 C 0.96651 0.74508 0.12712 0.0
C3312 C 0.95947 0.73189 0.11798 0.0
C3313 C 0.96748 0.72583 0.10352 0.0
C3314 C 0.98181 0.73384 0.09748 0.0
H3315 H 0.49436 0.72721 0.58955 0.0
H3316 H 0.44594 0.737 0.61103 0.0
H3317 H 0.45819 0.7596 0.62829 0.0
H3318 H 0.51553 0.72852 0.62468 0.0
H3319 H 0.53422 0.73812 0.61674 0.0
H3320 H 0.5211 0.72635 0.60301 0.0
H3321 H 0.51799 0.75172 0.58327 0.0
H3322 H 0.53158 0.76353 0.59669 0.0
H3323 H 0.51121 0.77147 0.59154 0.0
H3324 H 0.47752 0.77747 0.64712 0.0
H3325 H 0.50109 0.78905 0.66376 0.0
H3326 H 0.53595 0.76572 0.62973 0.0
C3327 C 0.48621 0.7347 0.59728 0.0
C3328 C 0.46926 0.73066 0.59885 0.0
C3329 C 0.45893 0.74029 0.6094 0.0
C3330 C 0.46583 0.75303 0.61932 0.0
C3331 C 0.48296 0.75602 0.61827 0.0
C3332 C 0.49289 0.74729 0.60716 0.0
C3333 C 0.51112 0.75099 0.60966 0.0
C3334 C 0.52105 0.73505 0.61377 0.0
C3335 C 0.5184 0.75997 0.59438 0.0
C3336 C 0.51009 0.76246 0.62447 0.0
C3337 C 0.49384 0.76563 0.62919 0.0
C3338 C 0.49026 0.77524 0.64332 0.0
C3339 C 0.50366 0.78168 0.65275 0.0
C3340 C 0.52028 0.77803 0.64816 0.0
C3341 C 0.52336 0.76853 0.63373 0.0
H3342 H 0.46447 0.73431 0.12756 0.0
H3343 H 0.49837 0.71843 0.16641 0.0
H3344 H 0.52232 0.72828 0.14922 0.0
H3345 H 0.49253 0.72518 0.09117 0.0
H3346 H 0.48485 0.74325 0.08027 0.0
H3347 H 0.47129 0.73188 0.09411 0.0
H3348 H 0.46519 0.75899 0.11067 0.0
H3349 H 0.47846 0.77036 0.0968 0.0
H3350 H 0.48238 0.77088 0.11892 0.0
H3351 H 0.54156 0.74469 0.12973 0.0
H3352 H 0.55326 0.76694 0.11178 0.0
H3353 H 0.50615 0.77104 0.08603 0.0
C3354 C 0.47697 0.73263 0.13237 0.0
C3355 C 0.47968 0.72587 0.14832 0.0
C3356 C 0.49614 0.72365 0.15416 0.0
C3357 C 0.50974 0.72909 0.14443 0.0
C3358 C 0.50653 0.73621 0.12881 0.0
C3359 C 0.49046 0.73775 0.12282 0.0
C3360 C 0.48975 0.74747 0.10676 0.0
C3361 C 0.48429 0.73627 0.09222 0.0
C3362 C 0.47829 0.76283 0.10841 0.0
C3363 C 0.50781 0.75233 0.10512 0.0
C3364 C 0.5175 0.74533 0.1176 0.0
C3365 C 0.53419 0.74982 0.11967 0.0
C3366 C 0.5408 0.76235 0.10934 0.0
C3367 C 0.53059 0.77034 0.09742 0.0
C3368 C 0.51424 0.7647 0.09479 0.0
H3369 H 0.12759 0.51949 0.78847 0.0
H3370 H 0.08459 0.53172 0.75833 0.0
H3371 H 0.09963 0.52166 0.7331 0.0
H3372 H 0.16063 0.52822 0.7557 0.0
H3373 H 0.17287 0.51093 0.76317 0.0
H3374 H 0.16033 0.52285 0.77752 0.0
H3375 H 0.1455 0.49579 0.78716 0.0
H3376 H 0.15801 0.4839 0.77304 0.0
H3377 H 0.13561 0.48266 0.77184 0.0
H3378 H 0.1173 0.5048 0.7128 0.0
H3379 H 0.13432 0.48214 0.70049 0.0
H3380 H 0.1654 0.48152 0.74443 0.0
C3381 C 0.12151 0.52048 0.77646 0.0
C3382 C 0.105 0.52623 0.7752 0.0
C3383 C 0.09733 0.52741 0.75941 0.0
C3384 C 0.10583 0.5218 0.74507 0.0
C3385 C 0.12203 0.51554 0.74686 0.0
C3386 C 0.12981 0.51512 0.76223 0.0
C3387 C 0.14614 0.50581 0.76165 0.0
C3388 C 0.16086 0.51766 0.76468 0.0
C3389 C 0.14629 0.49118 0.77414 0.0
C3390 C 0.14584 0.49983 0.74384 0.0
C3391 C 0.13218 0.50599 0.73524 0.0
C3392 C 0.12829 0.50035 0.71923 0.0
C3393 C 0.13808 0.48758 0.71226 0.0
C3394 C 0.15131 0.48051 0.72147 0.0
C3395 C 0.15565 0.48721 0.73704 0.0
H3396 H 0.22977 0.87641 0.03326 0.0
H3397 H 0.21798 0.83429 0.00171 0.0
H3398 H 0.22836 0.85007 0.97707 0.0
H3399 H 0.22138 0.91033 0.00142 0.0
H3400 H 0.23854 0.92239 0.00945 0.0
H3401 H 0.2265 0.9094 0.02328 0.0
H3402 H 0.25349 0.89434 0.03278 0.0
H3403 H 0.2655 0.90731 0.0192 0.0
H3404 H 0.26683 0.88496 0.01732 0.0
H3405 H 0.24543 0.86839 0.9575 0.0
H3406 H 0.26821 0.88579 0.946 0.0
H3407 H 0.26821 0.91555 0.99086 0.0
C3408 C 0.22897 0.87066 0.02107 0.0
C3409 C 0.22325 0.85418 0.01926 0.0
C3410 C 0.22229 0.84699 0.00323 0.0
C3411 C 0.22808 0.8559 0.98922 0.0
C3412 C 0.23429 0.87205 0.99157 0.0
C3413 C 0.23451 0.87937 0.00717 0.0
C3414 C 0.24377 0.89573 0.00719 0.0
C3415 C 0.23183 0.91033 0.01053 0.0
C3416 C 0.25825 0.89555 0.01985 0.0
C3417 C 0.24994 0.89599 0.98945 0.0
C3418 C 0.24393 0.88258 0.98037 0.0
C3419 C 0.24977 0.87918 0.96432 0.0
C3420 C 0.26261 0.88919 0.95781 0.0
C3421 C 0.26956 0.90214 0.96751 0.0
C3422 C 0.26263 0.90601 0.9831 0.0
H3423 H 0.86998 0.96856 0.27667 0.0
H3424 H 0.91756 0.96864 0.25148 0.0
H3425 H 0.90386 0.97931 0.22587 0.0
H3426 H 0.84191 0.96186 0.23761 0.0
H3427 H 0.82676 0.97595 0.24636 0.0
H3428 H 0.8388 0.96259 0.25985 0.0
H3429 H 0.84855 0.98842 0.27658 0.0
H3430 H 0.83671 0.00172 0.26323 0.0
H3431 H 0.85875 0.00528 0.26577 0.0
H3432 H 0.88689 0.99698 0.20664 0.0
H3433 H 0.86968 0.02063 0.197 0.0
H3434 H 0.83346 0.01019 0.23536 0.0
C3435 C 0.87731 0.97003 0.26543 0.0
C3436 C 0.89468 0.96767 0.26581 0.0
C3437 C 0.90414 0.97006 0.2512 0.0
C3438 C 0.89641 0.97612 0.23665 0.0
C3439 C 0.87927 0.97943 0.23699 0.0
C3440 C 0.8698 0.9762 0.25104 0.0
C3441 C 0.85261 0.98385 0.24983 0.0
C3442 C 0.83923 0.97025 0.24831 0.0
C3443 C 0.84898 0.99551 0.26471 0.0
C3444 C 0.85436 0.99337 0.23369 0.0
C3445 C 0.86949 0.99005 0.22601 0.0
C3446 C 0.87481 0.99921 0.21221 0.0
C3447 C 0.86492 0.01256 0.20672 0.0
C3448 C 0.85009 0.01676 0.21523 0.0
C3449 C 0.84443 0.00666 0.22834 0.0
H3450 H 0.75179 0.66405 0.5261 0.0
H3451 H 0.79796 0.64262 0.50843 0.0
H3452 H 0.7824 0.62711 0.48666 0.0
H3453 H 0.72988 0.62972 0.52571 0.0
H3454 H 0.71022 0.63833 0.5191 0.0
H3455 H 0.72505 0.65132 0.52961 0.0
H3456 H 0.72507 0.6722 0.50499 0.0
H3457 H 0.70979 0.65952 0.49449 0.0
H3458 H 0.72901 0.66482 0.48414 0.0
H3459 H 0.76072 0.60955 0.47091 0.0
H3460 H 0.73574 0.59325 0.46235 0.0
H3461 H 0.7046 0.62607 0.49181 0.0
C3462 C 0.75868 0.65675 0.51707 0.0
C3463 C 0.77599 0.65462 0.51869 0.0
C3464 C 0.78469 0.64466 0.50705 0.0
C3465 C 0.77592 0.63575 0.49474 0.0
C3466 C 0.75857 0.63724 0.49418 0.0
C3467 C 0.75014 0.64786 0.50486 0.0
C3468 C 0.73151 0.64574 0.50357 0.0
C3469 C 0.72373 0.64098 0.52049 0.0
C3470 C 0.72337 0.66151 0.49636 0.0
C3471 C 0.73071 0.6315 0.49136 0.0
C3472 C 0.74631 0.62695 0.48565 0.0
C3473 C 0.74844 0.61324 0.47508 0.0
C3474 C 0.73426 0.604 0.47036 0.0
C3475 C 0.71836 0.60832 0.47662 0.0
C3476 C 0.71665 0.62238 0.48698 0.0
H3477 H 0.11894 0.48758 0.21026 0.0
H3478 H 0.09056 0.45671 0.24432 0.0
H3479 H 0.10792 0.46718 0.26787 0.0
H3480 H 0.15932 0.48243 0.23062 0.0
H3481 H 0.16535 0.50354 0.22591 0.0
H3482 H 0.15154 0.49246 0.21209 0.0
H3483 H 0.12954 0.51605 0.21474 0.0
H3484 H 0.14339 0.52728 0.22823 0.0
H3485 H 0.12261 0.52234 0.23516 0.0
H3486 H 0.12716 0.48399 0.28786 0.0
H3487 H 0.14432 0.50581 0.3016 0.0
H3488 H 0.16022 0.52357 0.25323 0.0
C3489 C 0.11629 0.48292 0.22265 0.0
C3490 C 0.10325 0.47153 0.22553 0.0
C3491 C 0.10045 0.46556 0.2419 0.0
C3492 C 0.11032 0.47135 0.25527 0.0
C3493 C 0.12313 0.48272 0.25189 0.0
C3494 C 0.12609 0.48827 0.23587 0.0
C3495 C 0.13983 0.50106 0.2352 0.0
C3496 C 0.1549 0.49447 0.22538 0.0
C3497 C 0.13345 0.51765 0.22792 0.0
C3498 C 0.14377 0.50252 0.25349 0.0
C3499 C 0.13428 0.49173 0.26304 0.0
C3500 C 0.13486 0.49221 0.28045 0.0
C3501 C 0.14476 0.50451 0.28817 0.0
C3502 C 0.1537 0.51616 0.2784 0.0
C3503 C 0.15371 0.5146 0.26095 0.0
H3504 H 0.22396 0.91442 0.50317 0.0
H3505 H 0.23095 0.88929 0.55031 0.0
H3506 H 0.25371 0.87239 0.5379 0.0
H3507 H 0.22539 0.88129 0.4795 0.0
H3508 H 0.23622 0.89019 0.46195 0.0
H3509 H 0.22435 0.90338 0.47551 0.0
H3510 H 0.25031 0.92171 0.48122 0.0
H3511 H 0.26229 0.90877 0.46729 0.0
H3512 H 0.26934 0.91213 0.48835 0.0
H3513 H 0.2713 0.85414 0.51821 0.0
H3514 H 0.28215 0.8379 0.49406 0.0
H3515 H 0.26252 0.87533 0.4605 0.0
C3516 C 0.2309 0.90595 0.51107 0.0
C3517 C 0.22598 0.90323 0.52766 0.0
C3518 C 0.23489 0.89177 0.53764 0.0
C3519 C 0.24775 0.88207 0.53065 0.0
C3520 C 0.25164 0.88431 0.51381 0.0
C3521 C 0.24366 0.89632 0.5043 0.0
C3522 C 0.24818 0.89496 0.48611 0.0
C3523 C 0.23262 0.89228 0.47515 0.0
C3524 C 0.25813 0.9103 0.48042 0.0
C3525 C 0.25902 0.87964 0.48659 0.0
C3526 C 0.26133 0.87379 0.50262 0.0
C3527 C 0.26985 0.85886 0.50566 0.0
C3528 C 0.27591 0.84968 0.49193 0.0
C3529 C 0.27299 0.85534 0.47551 0.0
C3530 C 0.26483 0.87066 0.47296 0.0
H3531 H 0.87552 0.96687 0.77432 0.0
H3532 H 0.83127 0.99656 0.78236 0.0
H3533 H 0.84687 0.02189 0.77358 0.0
H3534 H 0.90773 0.00076 0.7846 0.0
H3535 H 0.92113 0.99297 0.76834 0.0
H3536 H 0.90819 0.97878 0.78001 0.0
H3537 H 0.89528 0.96787 0.75247 0.0
H3538 H 0.90814 0.98186 0.74084 0.0
H3539 H 0.88582 0.98249 0.73825 0.0
H3540 H 0.86527 0.04204 0.75779 0.0
H3541 H 0.88288 0.05381 0.73538 0.0
H3542 H 0.91457 0.01036 0.73727 0.0
C3543 C 0.8693 0.97884 0.77479 0.0
C3544 C 0.8523 0.97992 0.77894 0.0
C3545 C 0.84439 0.99563 0.77936 0.0
C3546 C 0.8532 0.01002 0.77445 0.0
C3547 C 0.8699 0.00838 0.76959 0.0
C3548 C 0.87788 0.99311 0.76998 0.0
C3549 C 0.89473 0.99373 0.7616 0.0
C3550 C 0.90877 0.99143 0.77441 0.0
C3551 C 0.89603 0.98074 0.74746 0.0
C3552 C 0.89445 0.01132 0.755 0.0
C3553 C 0.88042 0.01989 0.76032 0.0
C3554 C 0.87652 0.03564 0.754 0.0
C3555 C 0.88664 0.04231 0.74136 0.0
C3556 C 0.9002 0.03304 0.735 0.0
C3557 C 0.90456 0.01781 0.74241 0.0
H3558 H 0.77153 0.58319 0.00504 0.0
H3559 H 0.75985 0.60753 0.05163 0.0
H3560 H 0.73781 0.62397 0.03751 0.0
H3561 H 0.77195 0.61641 0.98218 0.0
H3562 H 0.76298 0.60798 0.9634 0.0
H3563 H 0.7735 0.59445 0.97769 0.0
H3564 H 0.74724 0.57588 0.98041 0.0
H3565 H 0.73666 0.58909 0.96563 0.0
H3566 H 0.72752 0.58521 0.98578 0.0
H3567 H 0.72193 0.64222 0.0167 0.0
H3568 H 0.71329 0.65893 0.99202 0.0
H3569 H 0.73689 0.62277 0.95964 0.0
C3570 C 0.76364 0.59129 0.01241 0.0
C3571 C 0.76706 0.59399 0.02936 0.0
C3572 C 0.75701 0.60504 0.03868 0.0
C3573 C 0.74456 0.61449 0.0307 0.0
C3574 C 0.74227 0.61243 0.01356 0.0
C3575 C 0.75133 0.60074 0.00463 0.0
C3576 C 0.74869 0.60251 0.9861 0.0
C3577 C 0.76526 0.60553 0.97683 0.0
C3578 C 0.73947 0.58727 0.97907 0.0
C3579 C 0.73775 0.61777 0.98584 0.0
C3580 C 0.7337 0.62314 0.0017 0.0
C3581 C 0.72475 0.63789 0.00425 0.0
C3582 C 0.71998 0.64735 0.99023 0.0
C3583 C 0.72464 0.64217 0.97405 0.0
C3584 C 0.7333 0.62707 0.97193 0.0
H3585 H 0.23426 0.66384 0.49078 0.0
H3586 H 0.19163 0.63111 0.48876 0.0
H3587 H 0.20381 0.61374 0.51114 0.0
H3588 H 0.2623 0.63593 0.49108 0.0
H3589 H 0.27712 0.64516 0.50522 0.0
H3590 H 0.26282 0.65819 0.49418 0.0
H3591 H 0.25176 0.67055 0.52185 0.0
H3592 H 0.26645 0.65782 0.53314 0.0
H3593 H 0.24457 0.65682 0.53811 0.0
H3594 H 0.22429 0.59587 0.52721 0.0
H3595 H 0.2499 0.5809 0.53633 0.0
H3596 H 0.27879 0.62555 0.52752 0.0
C3597 C 0.22703 0.65369 0.49596 0.0
C3598 C 0.21192 0.64897 0.4885 0.0
C3599 C 0.20299 0.63518 0.49481 0.0
C3600 C 0.2099 0.62519 0.50744 0.0
C3601 C 0.22556 0.62942 0.51375 0.0
C3602 C 0.23377 0.64372 0.50853 0.0
C3603 C 0.25149 0.64419 0.51486 0.0
C3604 C 0.26415 0.64595 0.50048 0.0
C3605 C 0.25369 0.65817 0.52776 0.0
C3606 C 0.25252 0.62728 0.52301 0.0
C3607 C 0.23739 0.61906 0.52281 0.0
C3608 C 0.23606 0.6024 0.5279 0.0
C3609 C 0.25061 0.59395 0.533 0.0
C3610 C 0.26618 0.60214 0.5325 0.0
C3611 C 0.26695 0.61907 0.52799 0.0
H3612 H 0.78616 0.37215 0.98158 0.0
H3613 H 0.75357 0.40983 0.96079 0.0
H3614 H 0.72898 0.39388 0.97103 0.0
H3615 H 0.75825 0.33547 0.97453 0.0
H3616 H 0.76485 0.32622 0.9939 0.0
H3617 H 0.77914 0.33887 0.98205 0.0
H3618 H 0.78399 0.35779 0.00784 0.0
H3619 H 0.76998 0.34511 0.01971 0.0
H3620 H 0.7663 0.36721 0.01801 0.0
H3621 H 0.70868 0.37597 0.98793 0.0
H3622 H 0.69553 0.35979 0.01076 0.0
H3623 H 0.74215 0.33435 0.01966 0.0
C3624 C 0.77384 0.37698 0.97891 0.0
C3625 C 0.77168 0.39227 0.97061 0.0
C3626 C 0.75541 0.39809 0.96718 0.0
C3627 C 0.74144 0.38905 0.97285 0.0
C3628 C 0.7441 0.37411 0.98146 0.0
C3629 C 0.76 0.36812 0.98429 0.0
C3630 C 0.76003 0.353 0.99544 0.0
C3631 C 0.76591 0.33747 0.9859 0.0
C3632 C 0.77068 0.35598 0.01117 0.0
C3633 C 0.74173 0.35194 0.99947 0.0
C3634 C 0.73256 0.36384 0.99095 0.0
C3635 C 0.71566 0.36634 0.99429 0.0
C3636 C 0.70824 0.35703 0.00716 0.0
C3637 C 0.71788 0.3457 0.01659 0.0
C3638 C 0.73453 0.34265 0.01222 0.0
H3639 H 0.37893 0.53625 0.22938 0.0
H3640 H 0.33578 0.50644 0.21686 0.0
H3641 H 0.35081 0.48102 0.22636 0.0
H3642 H 0.41185 0.50334 0.21995 0.0
H3643 H 0.4242 0.51051 0.23728 0.0
H3644 H 0.41173 0.52509 0.22558 0.0
H3645 H 0.39704 0.53452 0.2528 0.0
H3646 H 0.40953 0.52021 0.26447 0.0
H3647 H 0.38713 0.51911 0.26581 0.0
H3648 H 0.36828 0.4605 0.24294 0.0
H3649 H 0.38487 0.44802 0.26578 0.0
H3650 H 0.41641 0.4916 0.26682 0.0
C3651 C 0.37281 0.52428 0.22821 0.0
C3652 C 0.35625 0.52317 0.22255 0.0
C3653 C 0.34855 0.50742 0.22112 0.0
C3654 C 0.35704 0.49297 0.2264 0.0
C3655 C 0.37329 0.49459 0.23258 0.0
C3656 C 0.38112 0.50993 0.23324 0.0
C3657 C 0.39748 0.50912 0.24249 0.0
C3658 C 0.41218 0.51219 0.23061 0.0
C3659 C 0.39778 0.52144 0.25726 0.0
C3660 C 0.39709 0.49123 0.24824 0.0
C3661 C 0.38339 0.48279 0.24194 0.0
C3662 C 0.37931 0.4668 0.24748 0.0
C3663 C 0.38886 0.45972 0.26035 0.0
C3664 C 0.40207 0.4688 0.26763 0.0
C3665 C 0.4067 0.48429 0.26095 0.0
H3666 H 0.21616 0.13014 0.47635 0.0
H3667 H 0.24709 0.08854 0.46138 0.0
H3668 H 0.2721 0.10363 0.47183 0.0
H3669 H 0.24782 0.16424 0.46877 0.0
H3670 H 0.24045 0.17544 0.48679 0.0
H3671 H 0.22615 0.16313 0.47459 0.0
H3672 H 0.2175 0.14672 0.50108 0.0
H3673 H 0.23155 0.15904 0.51327 0.0
H3674 H 0.23337 0.13664 0.51339 0.0
H3675 H 0.29236 0.12105 0.48898 0.0
H3676 H 0.30481 0.13733 0.51208 0.0
H3677 H 0.26006 0.16704 0.51542 0.0
C3678 C 0.22826 0.12433 0.4749 0.0
C3679 C 0.22979 0.10817 0.46823 0.0
C3680 C 0.24575 0.10098 0.46644 0.0
C3681 C 0.25997 0.10951 0.47225 0.0
C3682 C 0.25791 0.12532 0.47937 0.0
C3683 C 0.24237 0.13267 0.48049 0.0
C3684 C 0.24275 0.14854 0.49057 0.0
C3685 C 0.23908 0.16374 0.47951 0.0
C3686 C 0.2306 0.14766 0.50545 0.0
C3687 C 0.26069 0.14842 0.49614 0.0
C3688 C 0.26948 0.13531 0.48912 0.0
C3689 C 0.28574 0.13162 0.49412 0.0
C3690 C 0.29279 0.14099 0.50715 0.0
C3691 C 0.28342 0.1536 0.51511 0.0
C3692 C 0.26756 0.15779 0.50906 0.0
H3693 H 0.77366 0.37689 0.45718 0.0
H3694 H 0.7875 0.33375 0.48637 0.0
H3695 H 0.77924 0.34874 0.5122 0.0
H3696 H 0.78375 0.4101 0.49018 0.0
H3697 H 0.76594 0.42209 0.48358 0.0
H3698 H 0.77753 0.41 0.4686 0.0
H3699 H 0.75038 0.39485 0.4598 0.0
H3700 H 0.73882 0.40685 0.4746 0.0
H3701 H 0.7381 0.38441 0.47545 0.0
H3702 H 0.7632 0.3658 0.53335 0.0
H3703 H 0.74037 0.38173 0.54667 0.0
H3704 H 0.73705 0.4134 0.50329 0.0
C3705 C 0.77553 0.37085 0.46911 0.0
C3706 C 0.78118 0.35426 0.46993 0.0
C3707 C 0.78337 0.34657 0.4856 0.0
C3708 C 0.77874 0.35504 0.50029 0.0
C3709 C 0.77237 0.37124 0.49897 0.0
C3710 C 0.77105 0.37911 0.48369 0.0
C3711 C 0.76141 0.39524 0.4849 0.0
C3712 C 0.77284 0.41025 0.48163 0.0
C3713 C 0.74629 0.39531 0.47301 0.0
C3714 C 0.75616 0.39459 0.50295 0.0
C3715 C 0.7631 0.38104 0.51112 0.0
C3716 C 0.75817 0.37673 0.52726 0.0
C3717 C 0.74528 0.38591 0.53481 0.0
C3718 C 0.73736 0.39897 0.52605 0.0
C3719 C 0.7434 0.4038 0.51035 0.0
H3720 H 0.37356 0.02121 0.21487 0.0
H3721 H 0.41536 0.03751 0.24479 0.0
H3722 H 0.4005 0.02811 0.27037 0.0
H3723 H 0.33968 0.03027 0.24663 0.0
H3724 H 0.32837 0.012 0.24011 0.0
H3725 H 0.34055 0.02359 0.2252 0.0
H3726 H 0.35679 0.99672 0.21744 0.0
H3727 H 0.34461 0.98515 0.23211 0.0
H3728 H 0.36702 0.98503 0.23368 0.0
H3729 H 0.38352 0.01143 0.29136 0.0
H3730 H 0.36748 0.9887 0.30478 0.0
H3731 H 0.33689 0.98417 0.26074 0.0
C3732 C 0.37941 0.0232 0.22688 0.0
C3733 C 0.39556 0.02993 0.228 0.0
C3734 C 0.4029 0.03242 0.2438 0.0
C3735 C 0.3945 0.02719 0.25833 0.0
C3736 C 0.37869 0.01998 0.25672 0.0
C3737 C 0.37117 0.01826 0.2413 0.0
C3738 C 0.35528 0.00824 0.24227 0.0
C3739 C 0.34007 0.01918 0.23832 0.0
C3740 C 0.35599 0.99288 0.23072 0.0
C3741 C 0.35557 0.00339 0.26043 0.0
C3742 C 0.36883 0.01067 0.26878 0.0
C3743 C 0.37281 0.00614 0.28511 0.0
C3744 C 0.36357 0.99332 0.29271 0.0
C3745 C 0.35073 0.98516 0.28385 0.0
C3746 C 0.34626 0.99076 0.26789 0.0
H3747 H 0.58955 0.49564 0.72429 0.0
H3748 H 0.61862 0.45075 0.73058 0.0
H3749 H 0.63414 0.46401 0.75379 0.0
H3750 H 0.61985 0.52239 0.72708 0.0
H3751 H 0.60925 0.53856 0.73851 0.0
H3752 H 0.59746 0.52421 0.72613 0.0
H3753 H 0.57983 0.5158 0.75185 0.0
H3754 H 0.59139 0.53045 0.76437 0.0
H3755 H 0.59009 0.50892 0.77061 0.0
H3756 H 0.65071 0.48472 0.7714 0.0
H3757 H 0.66509 0.50995 0.78231 0.0
H3758 H 0.62436 0.54049 0.76442 0.0
C3759 C 0.59856 0.48835 0.73122 0.0
C3760 C 0.60277 0.4722 0.72602 0.0
C3761 C 0.61498 0.46305 0.73481 0.0
C3762 C 0.62389 0.47052 0.74793 0.0
C3763 C 0.62007 0.48694 0.75224 0.0
C3764 C 0.60732 0.49556 0.74439 0.0
C3765 C 0.60692 0.51362 0.74957 0.0
C3766 C 0.60848 0.52536 0.73442 0.0
C3767 C 0.59112 0.51742 0.75971 0.0
C3768 C 0.62223 0.51422 0.76044 0.0
C3769 C 0.62952 0.49872 0.76229 0.0
C3770 C 0.64484 0.49682 0.77042 0.0
C3771 C 0.65296 0.51116 0.77654 0.0
C3772 C 0.64581 0.52707 0.77408 0.0
C3773 C 0.63009 0.52843 0.76642 0.0
H3774 H 0.48035 0.25834 0.83271 0.0
H3775 H 0.48643 0.30411 0.86038 0.0
H3776 H 0.50819 0.29075 0.87777 0.0
H3777 H 0.47923 0.23351 0.86414 0.0
H3778 H 0.49044 0.21604 0.85555 0.0
H3779 H 0.48003 0.23029 0.8419 0.0
H3780 H 0.50751 0.23619 0.82606 0.0
H3781 H 0.51807 0.22149 0.83938 0.0
H3782 H 0.52581 0.24248 0.83746 0.0
H3783 H 0.52377 0.27014 0.89637 0.0
H3784 H 0.53237 0.24517 0.9127 0.0
H3785 H 0.515 0.21343 0.87268 0.0
C3786 C 0.48705 0.26578 0.84177 0.0
C3787 C 0.48209 0.28222 0.8451 0.0
C3788 C 0.49051 0.29159 0.85741 0.0
C3789 C 0.50278 0.28404 0.86739 0.0
C3790 C 0.5066 0.26729 0.8646 0.0
C3791 C 0.49925 0.25843 0.85171 0.0
C3792 C 0.50324 0.24009 0.85271 0.0
C3793 C 0.48729 0.22938 0.85365 0.0
C3794 C 0.51432 0.23475 0.83804 0.0
C3795 C 0.51278 0.23973 0.86889 0.0
C3796 C 0.51512 0.25549 0.87542 0.0
C3797 C 0.52234 0.2578 0.89114 0.0
C3798 C 0.5271 0.24362 0.90038 0.0
C3799 C 0.5241 0.2275 0.89396 0.0
C3800 C 0.51726 0.22566 0.87792 0.0
H3801 H 0.5228 0.24271 0.34206 0.0
H3802 H 0.50902 0.19512 0.36321 0.0
H3803 H 0.48624 0.20882 0.37912 0.0
H3804 H 0.52051 0.26438 0.37705 0.0
H3805 H 0.51248 0.28345 0.36832 0.0
H3806 H 0.52439 0.26952 0.35552 0.0
H3807 H 0.50021 0.26758 0.33419 0.0
H3808 H 0.4883 0.28194 0.3467 0.0
H3809 H 0.47962 0.26197 0.34121 0.0
H3810 H 0.46847 0.22931 0.39674 0.0
H3811 H 0.45714 0.25363 0.4124 0.0
H3812 H 0.48413 0.28684 0.37944 0.0
C3813 C 0.51444 0.23507 0.34942 0.0
C3814 C 0.51737 0.21791 0.35128 0.0
C3815 C 0.5066 0.20826 0.36135 0.0
C3816 C 0.49375 0.21598 0.37051 0.0
C3817 C 0.49182 0.23325 0.36918 0.0
C3818 C 0.50172 0.24256 0.35853 0.0
C3819 C 0.49886 0.261 0.36063 0.0
C3820 C 0.51501 0.2701 0.36569 0.0
C3821 C 0.49129 0.26856 0.34474 0.0
C3822 C 0.48641 0.26077 0.37467 0.0
C3823 C 0.48215 0.24477 0.37937 0.0
C3824 C 0.47155 0.24187 0.39293 0.0
C3825 C 0.46524 0.2557 0.40181 0.0
C3826 C 0.46992 0.27207 0.39724 0.0
C3827 C 0.48042 0.27447 0.38338 0.0
H3828 H 0.46886 0.77707 0.38241 0.0
H3829 H 0.49673 0.78577 0.33711 0.0
H3830 H 0.52215 0.77441 0.35071 0.0
H3831 H 0.50525 0.78408 0.41289 0.0
H3832 H 0.49729 0.76785 0.42621 0.0
H3833 H 0.4831 0.78081 0.41456 0.0
H3834 H 0.46974 0.75447 0.4014 0.0
H3835 H 0.48369 0.74159 0.41306 0.0
H3836 H 0.48288 0.73973 0.39068 0.0
H3837 H 0.54179 0.75588 0.3667 0.0
H3838 H 0.55267 0.73166 0.38235 0.0
H3839 H 0.51219 0.73599 0.4175 0.0
C3840 C 0.48051 0.7771 0.37558 0.0
C3841 C 0.48101 0.78219 0.35882 0.0
C3842 C 0.49627 0.78203 0.35007 0.0
C3843 C 0.51072 0.77568 0.35774 0.0
C3844 C 0.50967 0.77006 0.37424 0.0
C3845 C 0.49492 0.77104 0.38311 0.0
C3846 C 0.49604 0.76203 0.39961 0.0
C3847 C 0.49539 0.77444 0.41418 0.0
C3848 C 0.4823 0.74867 0.40125 0.0
C3849 C 0.51317 0.75441 0.39803 0.0
C3850 C 0.52116 0.75964 0.38363 0.0
C3851 C 0.53596 0.7522 0.37829 0.0
C3852 C 0.54217 0.73853 0.38732 0.0
C3853 C 0.53346 0.73246 0.40135 0.0
C3854 C 0.51936 0.74099 0.40721 0.0
H3855 H 0.53498 0.72764 0.88134 0.0
H3856 H 0.5058 0.71351 0.83825 0.0
H3857 H 0.47998 0.72211 0.85313 0.0
H3858 H 0.50234 0.71736 0.91433 0.0
H3859 H 0.5088 0.73512 0.92647 0.0
H3860 H 0.52385 0.7238 0.9142 0.0
H3861 H 0.53229 0.75117 0.89918 0.0
H3862 H 0.51748 0.76245 0.91145 0.0
H3863 H 0.51643 0.76342 0.88902 0.0
H3864 H 0.45883 0.73809 0.8703 0.0
H3865 H 0.44538 0.7606 0.88658 0.0
H3866 H 0.48876 0.76379 0.91825 0.0
C3867 C 0.52308 0.7259 0.87521 0.0
C3868 C 0.52224 0.72005 0.8587 0.0
C3869 C 0.50658 0.7179 0.85098 0.0
C3870 C 0.49191 0.72268 0.8594 0.0
C3871 C 0.49325 0.72911 0.87558 0.0
C3872 C 0.50852 0.73046 0.88344 0.0
C3873 C 0.5073 0.73989 0.89967 0.0
C3874 C 0.51077 0.72835 0.91455 0.0
C3875 C 0.51905 0.75513 0.89981 0.0
C3876 C 0.48921 0.74496 0.89915 0.0
C3877 C 0.48107 0.73815 0.88552 0.0
C3878 C 0.4649 0.74301 0.88129 0.0
C3879 C 0.45728 0.7557 0.89066 0.0
C3880 C 0.46597 0.76345 0.90387 0.0
C3881 C 0.48173 0.7575 0.90859 0.0
H3882 H 0.66548 0.98929 0.73807 0.0
H3883 H 0.63168 0.9875 0.69629 0.0
H3884 H 0.61571 0.01106 0.70807 0.0
H3885 H 0.63864 0.99137 0.76653 0.0
H3886 H 0.64859 0.00554 0.78083 0.0
H3887 H 0.66099 0.99385 0.76651 0.0
H3888 H 0.67385 0.02089 0.75457 0.0
H3889 H 0.66177 0.03285 0.76928 0.0
H3890 H 0.66044 0.03739 0.74732 0.0
H3891 H 0.59884 0.02782 0.72849 0.0
H3892 H 0.58441 0.03718 0.75428 0.0
H3893 H 0.6294 0.02793 0.7825 0.0
C3894 C 0.65543 0.99475 0.7309 0.0
C3895 C 0.64995 0.98702 0.71621 0.0
C3896 C 0.63632 0.99373 0.70733 0.0
C3897 C 0.62713 0.00704 0.71402 0.0
C3898 C 0.63202 0.01361 0.72938 0.0
C3899 C 0.64626 0.008 0.73744 0.0
C3900 C 0.64731 0.01467 0.75501 0.0
C3901 C 0.64895 0.00051 0.76795 0.0
C3902 C 0.6617 0.0272 0.75663 0.0
C3903 C 0.63067 0.02334 0.75622 0.0
C3904 C 0.62219 0.02319 0.74122 0.0
C3905 C 0.60559 0.02852 0.74014 0.0
C3906 C 0.59745 0.03374 0.75479 0.0
C3907 C 0.60587 0.03314 0.77022 0.0
C3908 C 0.62277 0.02849 0.77075 0.0
H3909 H 0.66409 0.48051 0.24319 0.0
H3910 H 0.63666 0.48544 0.19711 0.0
H3911 H 0.62022 0.50857 0.20936 0.0
H3912 H 0.63249 0.48243 0.26825 0.0
H3913 H 0.64187 0.49413 0.28497 0.0
H3914 H 0.65476 0.4821 0.27129 0.0
H3915 H 0.67212 0.50823 0.26373 0.0
H3916 H 0.65954 0.52041 0.27781 0.0
H3917 H 0.66175 0.52675 0.25638 0.0
H3918 H 0.60251 0.52626 0.22915 0.0
H3919 H 0.58696 0.5374 0.25359 0.0
H3920 H 0.62631 0.51994 0.28615 0.0
C3921 C 0.65526 0.48714 0.23542 0.0
C3922 C 0.65174 0.48153 0.21923 0.0
C3923 C 0.63977 0.48996 0.20944 0.0
C3924 C 0.63033 0.50303 0.21635 0.0
C3925 C 0.63333 0.50759 0.23289 0.0
C3926 C 0.64588 0.50013 0.24212 0.0
C3927 C 0.64524 0.50528 0.26019 0.0
C3928 C 0.64347 0.49008 0.27183 0.0
C3929 C 0.66057 0.5158 0.26479 0.0
C3930 C 0.62965 0.51574 0.26003 0.0
C3931 C 0.62309 0.51741 0.2442 0.0
C3932 C 0.60779 0.52536 0.24153 0.0
C3933 C 0.59899 0.53156 0.25542 0.0
C3934 C 0.60541 0.52933 0.27168 0.0
C3935 C 0.62106 0.52171 0.27384 0.0
H3936 H 0.07019 0.36809 0.0615 0.0
H3937 H 0.08829 0.31864 0.07405 0.0
H3938 H 0.11623 0.32634 0.06367 0.0
H3939 H 0.09354 0.37272 0.02344 0.0
H3940 H 0.09749 0.3946 0.02666 0.0
H3941 H 0.07891 0.38521 0.03504 0.0
H3942 H 0.08681 0.39563 0.06461 0.0
H3943 H 0.10537 0.40512 0.05632 0.0
H3944 H 0.1069 0.39034 0.07315 0.0
H3945 H 0.14245 0.34 0.05361 0.0
H3946 H 0.16507 0.35847 0.04383 0.0
H3947 H 0.12925 0.39812 0.03576 0.0
C3948 C 0.08 0.35884 0.06208 0.0
C3949 C 0.07706 0.34275 0.06861 0.0
C3950 C 0.09024 0.33102 0.06906 0.0
C3951 C 0.10614 0.33528 0.06319 0.0
C3952 C 0.10856 0.35122 0.05677 0.0
C3953 C 0.09585 0.3628 0.05611 0.0
C3954 C 0.10173 0.37913 0.04872 0.0
C3955 C 0.09236 0.38314 0.0325 0.0
C3956 C 0.10011 0.39339 0.06146 0.0
C3957 C 0.1198 0.37494 0.04536 0.0
C3958 C 0.12351 0.35884 0.05024 0.0
C3959 C 0.13965 0.35254 0.04952 0.0
C3960 C 0.15238 0.36309 0.04395 0.0
C3961 C 0.14882 0.37961 0.03892 0.0
C3962 C 0.13227 0.38547 0.03928 0.0
H3963 H 0.88594 0.3304 0.29518 0.0
H3964 H 0.92433 0.3437 0.33083 0.0
H3965 H 0.91795 0.3736 0.32635 0.0
H3966 H 0.89269 0.36565 0.26663 0.0
H3967 H 0.87075 0.36756 0.26222 0.0
H3968 H 0.87948 0.34749 0.26723 0.0
H3969 H 0.85807 0.34416 0.29122 0.0
H3970 H 0.84933 0.3642 0.28633 0.0
H3971 H 0.85678 0.36 0.3071 0.0
H3972 H 0.90472 0.40173 0.32042 0.0
H3973 H 0.88706 0.42568 0.31233 0.0
H3974 H 0.85865 0.39353 0.27947 0.0
C3975 C 0.89318 0.33959 0.3019 0.0
C3976 C 0.90558 0.33478 0.3134 0.0
C3977 C 0.91483 0.34717 0.32189 0.0
C3978 C 0.91127 0.36414 0.31944 0.0
C3979 C 0.89868 0.36843 0.30824 0.0
C3980 C 0.88995 0.35647 0.29944 0.0
C3981 C 0.87656 0.36414 0.28865 0.0
C3982 C 0.88009 0.36102 0.27008 0.0
C3983 C 0.85916 0.35774 0.29363 0.0
C3984 C 0.87874 0.38229 0.29308 0.0
C3985 C 0.89155 0.38456 0.30438 0.0
C3986 C 0.8949 0.40013 0.31133 0.0
C3987 C 0.88479 0.41363 0.30669 0.0
C3988 C 0.87159 0.41146 0.29518 0.0
C3989 C 0.86879 0.39564 0.28809 0.0
H3990 H 0.84847 0.11188 0.57236 0.0
H3991 H 0.84412 0.12738 0.52088 0.0
H3992 H 0.86656 0.1482 0.52519 0.0
H3993 H 0.86026 0.15253 0.59078 0.0
H3994 H 0.87522 0.14315 0.60467 0.0
H3995 H 0.85698 0.13164 0.59839 0.0
H3996 H 0.87564 0.10759 0.5875 0.0
H3997 H 0.89382 0.11892 0.59401 0.0
H3998 H 0.8919 0.11215 0.57268 0.0
H3999 H 0.89046 0.16604 0.53473 0.0
H4000 H 0.91707 0.17577 0.54702 0.0
H4001 H 0.90723 0.14663 0.59136 0.0
C4002 C 0.85208 0.11995 0.56216 0.0
C4003 C 0.84458 0.11842 0.5464 0.0
C4004 C 0.84979 0.12863 0.53306 0.0
C4005 C 0.86236 0.14054 0.53546 0.0
C4006 C 0.86964 0.14179 0.55119 0.0
C4007 C 0.86489 0.13154 0.56423 0.0
C4008 C 0.87621 0.13363 0.57914 0.0
C4009 C 0.86658 0.14066 0.59413 0.0
C4010 C 0.88491 0.1171 0.58357 0.0
C4011 C 0.88836 0.1463 0.57229 0.0
C4012 C 0.88404 0.1513 0.55638 0.0
C4013 C 0.89388 0.16237 0.54725 0.0
C4014 C 0.90887 0.16793 0.55433 0.0
C4015 C 0.91391 0.16203 0.57012 0.0
C4016 C 0.90337 0.15148 0.57936 0.0
H4017 H 0.14359 0.11056 0.78706 0.0
H4018 H 0.1099 0.07521 0.81021 0.0
H4019 H 0.09075 0.09831 0.81749 0.0
H4020 H 0.13967 0.14082 0.81806 0.0
H4021 H 0.14136 0.15824 0.80399 0.0
H4022 H 0.1511 0.13874 0.79884 0.0
H4023 H 0.13497 0.13797 0.77081 0.0
H4024 H 0.12515 0.15751 0.77588 0.0
H4025 H 0.11256 0.13959 0.7709 0.0
H4026 H 0.07616 0.12588 0.82363 0.0
H4027 H 0.06869 0.15527 0.82974 0.0
H4028 H 0.11295 0.17171 0.80341 0.0
C4029 C 0.13206 0.1076 0.79341 0.0
C4030 C 0.12814 0.09113 0.79799 0.0
C4031 C 0.11307 0.08781 0.80655 0.0
C4032 C 0.10211 0.10081 0.81067 0.0
C4033 C 0.1065 0.11701 0.80618 0.0
C4034 C 0.12119 0.12039 0.79782 0.0
C4035 C 0.12392 0.13887 0.79576 0.0
C4036 C 0.13995 0.14449 0.8047 0.0
C4037 C 0.12416 0.14377 0.77723 0.0
C4038 C 0.10856 0.14541 0.80439 0.0
C4039 C 0.09849 0.1327 0.81015 0.0
C4040 C 0.0839 0.13594 0.81906 0.0
C4041 C 0.07972 0.15262 0.82243 0.0
C4042 C 0.09027 0.1657 0.81708 0.0
C4043 C 0.10465 0.16196 0.8077 0.0
H4044 H 0.07655 0.6416 0.9535 0.0
H4045 H 0.09274 0.68257 0.92221 0.0
H4046 H 0.12217 0.67575 0.92874 0.0
H4047 H 0.11041 0.64496 0.98524 0.0
H4048 H 0.11144 0.62263 0.98746 0.0
H4049 H 0.09192 0.63252 0.98238 0.0
H4050 H 0.0893 0.61365 0.95627 0.0
H4051 H 0.10885 0.60388 0.96112 0.0
H4052 H 0.10584 0.61354 0.94107 0.0
H4053 H 0.14958 0.66139 0.93509 0.0
H4054 H 0.17257 0.64218 0.94237 0.0
H4055 H 0.13794 0.61131 0.97008 0.0
C4056 C 0.08627 0.64943 0.94835 0.0
C4057 C 0.08244 0.66261 0.93736 0.0
C4058 C 0.09546 0.67253 0.93081 0.0
C4059 C 0.11217 0.6687 0.93441 0.0
C4060 C 0.11552 0.65515 0.94481 0.0
C4061 C 0.10288 0.64588 0.95192 0.0
C4062 C 0.10959 0.6312 0.96163 0.0
C4063 C 0.10561 0.63294 0.98029 0.0
C4064 C 0.10301 0.6146 0.95459 0.0
C4065 C 0.128 0.63323 0.95837 0.0
C4066 C 0.13124 0.64715 0.94873 0.0
C4067 C 0.14722 0.65068 0.94294 0.0
C4068 C 0.16017 0.63966 0.94706 0.0
C4069 C 0.15701 0.62534 0.95688 0.0
C4070 C 0.14077 0.62229 0.96278 0.0
H4071 H 0.60821 0.3376 0.16716 0.0
H4072 H 0.57284 0.33171 0.20742 0.0
H4073 H 0.58176 0.35894 0.21915 0.0
H4074 H 0.64057 0.35504 0.18976 0.0
H4075 H 0.64704 0.36948 0.17382 0.0
H4076 H 0.63685 0.35036 0.16813 0.0
H4077 H 0.6143 0.36713 0.15195 0.0
H4078 H 0.62468 0.38621 0.15759 0.0
H4079 H 0.60295 0.38336 0.16254 0.0
H4080 H 0.5979 0.38473 0.22846 0.0
H4081 H 0.61696 0.40885 0.23237 0.0
H4082 H 0.63945 0.39879 0.18437 0.0
C4083 C 0.60209 0.3423 0.1782 0.0
C4084 C 0.58987 0.33274 0.18641 0.0
C4085 C 0.58211 0.33904 0.2009 0.0
C4086 C 0.58717 0.3544 0.20766 0.0
C4087 C 0.59967 0.36334 0.19949 0.0
C4088 C 0.60671 0.35767 0.18482 0.0
C4089 C 0.62011 0.36933 0.17854 0.0
C4090 C 0.63714 0.36052 0.17751 0.0
C4091 C 0.61521 0.37696 0.16166 0.0
C4092 C 0.61992 0.38223 0.19224 0.0
C4093 C 0.60818 0.37854 0.20431 0.0
C4094 C 0.60685 0.38794 0.2189 0.0
C4095 C 0.61773 0.4015 0.22107 0.0
C4096 C 0.62951 0.40552 0.20863 0.0
C4097 C 0.63047 0.39592 0.19401 0.0
H4098 H 0.85955 0.89211 0.46325 0.0
H4099 H 0.82565 0.86029 0.43567 0.0
H4100 H 0.8494 0.84243 0.42727 0.0
H4101 H 0.89082 0.89208 0.4332 0.0
H4102 H 0.90777 0.89254 0.44792 0.0
H4103 H 0.88791 0.9013 0.45347 0.0
H4104 H 0.8866 0.88221 0.47953 0.0
H4105 H 0.90652 0.87339 0.47409 0.0
H4106 H 0.88875 0.85998 0.47708 0.0
H4107 H 0.87747 0.82923 0.42042 0.0
H4108 H 0.90712 0.82284 0.41466 0.0
H4109 H 0.92192 0.86439 0.44596 0.0
C4110 C 0.85702 0.88123 0.45568 0.0
C4111 C 0.84077 0.87752 0.45017 0.0
C4112 C 0.83804 0.86329 0.44009 0.0
C4113 C 0.85143 0.85308 0.4353 0.0
C4114 C 0.8674 0.85733 0.44068 0.0
C4115 C 0.8702 0.87111 0.45063 0.0
C4116 C 0.88855 0.87396 0.45358 0.0
C4117 C 0.89408 0.89097 0.44662 0.0
C4118 C 0.89286 0.87227 0.47217 0.0
C4119 C 0.89573 0.85975 0.44356 0.0
C4120 C 0.8834 0.85012 0.43638 0.0
C4121 C 0.88721 0.83662 0.4261 0.0
C4122 C 0.90407 0.83306 0.42294 0.0
C4123 C 0.91681 0.84313 0.42984 0.0
C4124 C 0.91248 0.85646 0.44046 0.0
H4125 H 0.34887 0.1154 0.70086 0.0
H4126 H 0.3878 0.07934 0.69062 0.0
H4127 H 0.40694 0.10224 0.68281 0.0
H4128 H 0.35877 0.14183 0.66575 0.0
H4129 H 0.35347 0.16073 0.67665 0.0
H4130 H 0.34321 0.14149 0.68195 0.0
H4131 H 0.3523 0.14516 0.71279 0.0
H4132 H 0.36265 0.16436 0.70755 0.0
H4133 H 0.37407 0.14785 0.71762 0.0
H4134 H 0.42189 0.12932 0.67667 0.0
H4135 H 0.4308 0.1582 0.67061 0.0
H4136 H 0.38133 0.17594 0.68353 0.0
C4137 C 0.36144 0.11233 0.69704 0.0
C4138 C 0.36696 0.09567 0.69646 0.0
C4139 C 0.3834 0.09209 0.69116 0.0
C4140 C 0.39433 0.10498 0.68674 0.0
C4141 C 0.38849 0.12131 0.68744 0.0
C4142 C 0.37235 0.12498 0.69223 0.0
C4143 C 0.36886 0.14345 0.69115 0.0
C4144 C 0.35528 0.14708 0.6781 0.0
C4145 C 0.3642 0.15062 0.7083 0.0
C4146 C 0.38568 0.14966 0.68541 0.0
C4147 C 0.39687 0.13675 0.68336 0.0
C4148 C 0.41322 0.13954 0.67819 0.0
C4149 C 0.41819 0.15598 0.67486 0.0
C4150 C 0.40678 0.16934 0.67661 0.0
C4151 C 0.39037 0.16604 0.68204 0.0
H4152 H 0.03331 0.13686 0.39163 0.0
H4153 H 0.05611 0.17218 0.35769 0.0
H4154 H 0.06661 0.1488 0.34049 0.0
H4155 H 0.06682 0.10908 0.39179 0.0
H4156 H 0.0541 0.09063 0.39338 0.0
H4157 H 0.04665 0.1101 0.40162 0.0
H4158 H 0.02001 0.10781 0.38344 0.0
H4159 H 0.02732 0.08825 0.37521 0.0
H4160 H 0.02199 0.105 0.36123 0.0
H4161 H 0.07581 0.12098 0.32782 0.0
H4162 H 0.08363 0.09165 0.32173 0.0
H4163 H 0.056 0.0756 0.36535 0.0
C4164 C 0.04024 0.13973 0.38044 0.0
C4165 C 0.04381 0.15631 0.37593 0.0
C4166 C 0.05317 0.15952 0.3613 0.0
C4167 C 0.05917 0.14634 0.35146 0.0
C4168 C 0.05578 0.13007 0.35652 0.0
C4169 C 0.04655 0.12678 0.37071 0.0
C4170 C 0.04575 0.10836 0.37434 0.0
C4171 C 0.05381 0.10431 0.39128 0.0
C4172 C 0.0277 0.10198 0.3735 0.0
C4173 C 0.05605 0.10174 0.36006 0.0
C4174 C 0.06159 0.11434 0.34974 0.0
C4175 C 0.07149 0.11102 0.3358 0.0
C4176 C 0.07586 0.09437 0.33243 0.0
C4177 C 0.07054 0.0814 0.34314 0.0
C4178 C 0.06043 0.08524 0.35701 0.0
H4179 H 0.17093 0.3246 0.62027 0.0
H4180 H 0.15955 0.32023 0.56752 0.0
H4181 H 0.13027 0.31331 0.57465 0.0
H4182 H 0.14745 0.29075 0.63406 0.0
H4183 H 0.14082 0.30071 0.65309 0.0
H4184 H 0.16029 0.30651 0.64363 0.0
H4185 H 0.15081 0.33739 0.64282 0.0
H4186 H 0.13126 0.33171 0.65228 0.0
H4187 H 0.13148 0.34275 0.63274 0.0
H4188 H 0.10188 0.307 0.5882 0.0
H4189 H 0.07807 0.29996 0.60677 0.0
H4190 H 0.10989 0.30644 0.64983 0.0
C4191 C 0.16238 0.32224 0.6101 0.0
C4192 C 0.16759 0.32291 0.5933 0.0
C4193 C 0.15584 0.31979 0.58049 0.0
C4194 C 0.1392 0.3159 0.58442 0.0
C4195 C 0.13458 0.31524 0.60119 0.0
C4196 C 0.14591 0.31831 0.61378 0.0
C4197 C 0.13823 0.3163 0.63082 0.0
C4198 C 0.14723 0.30275 0.64099 0.0
C4199 C 0.13793 0.33303 0.64021 0.0
C4200 C 0.12091 0.31095 0.62594 0.0
C4201 C 0.1188 0.31086 0.60883 0.0
C4202 C 0.10347 0.30694 0.60159 0.0
C4203 C 0.09007 0.30297 0.61217 0.0
C4204 C 0.09234 0.30249 0.62964 0.0
C4205 C 0.10792 0.3065 0.63653 0.0
H4206 H 0.94374 0.42221 0.86292 0.0
H4207 H 0.92162 0.40497 0.81669 0.0
H4208 H 0.93094 0.37622 0.82314 0.0
H4209 H 0.98006 0.39451 0.86227 0.0
H4210 H 0.97965 0.3917 0.88456 0.0
H4211 H 0.97236 0.41092 0.87554 0.0
H4212 H 0.94396 0.40725 0.89057 0.0
H4213 H 0.95117 0.38806 0.89962 0.0
H4214 H 0.93227 0.38831 0.88751 0.0
H4215 H 0.9397 0.34896 0.83663 0.0
H4216 H 0.94842 0.32587 0.85511 0.0
H4217 H 0.96641 0.3617 0.89132 0.0
C4218 C 0.94099 0.41244 0.85403 0.0
C4219 C 0.93188 0.41577 0.83933 0.0
C4220 C 0.92864 0.40267 0.82798 0.0
C4221 C 0.93387 0.38633 0.83156 0.0
C4222 C 0.94258 0.38346 0.84635 0.0
C4223 C 0.94628 0.39623 0.85728 0.0
C4224 C 0.95519 0.38991 0.87264 0.0
C4225 C 0.97287 0.39719 0.87381 0.0
C4226 C 0.94504 0.3936 0.88851 0.0
C4227 C 0.95561 0.37148 0.86888 0.0
C4228 C 0.94825 0.36796 0.8537 0.0
C4229 C 0.9458 0.35162 0.84836 0.0
C4230 C 0.95076 0.3386 0.85894 0.0
C4231 C 0.95823 0.34202 0.87456 0.0
C4232 C 0.96102 0.35868 0.87935 0.0
H4233 H 0.82699 0.18638 0.12474 0.0
H4234 H 0.84024 0.15902 0.08001 0.0
H4235 H 0.87011 0.16204 0.0871 0.0
H4236 H 0.86053 0.21597 0.12242 0.0
H4237 H 0.86336 0.21683 0.14468 0.0
H4238 H 0.84313 0.21223 0.13613 0.0
H4239 H 0.84207 0.18486 0.15331 0.0
H4240 H 0.86231 0.18936 0.16188 0.0
H4241 H 0.85871 0.1699 0.15127 0.0
H4242 H 0.89846 0.16714 0.09987 0.0
H4243 H 0.92318 0.17573 0.11619 0.0
H4244 H 0.89099 0.20101 0.15152 0.0
C4245 C 0.83617 0.181 0.11644 0.0
C4246 C 0.83135 0.17241 0.10187 0.0
C4247 C 0.84371 0.16571 0.0912 0.0
C4248 C 0.86067 0.1673 0.09516 0.0
C4249 C 0.86498 0.1758 0.10969 0.0
C4250 C 0.85307 0.18268 0.12005 0.0
C4251 C 0.86092 0.19155 0.1347 0.0
C4252 C 0.85674 0.21025 0.13446 0.0
C4253 C 0.85569 0.18343 0.15127 0.0
C4254 C 0.87912 0.18852 0.13103 0.0
C4255 C 0.88123 0.17928 0.11665 0.0
C4256 C 0.89696 0.1745 0.11107 0.0
C4257 C 0.9109 0.1794 0.12042 0.0
C4258 C 0.90895 0.18911 0.13501 0.0
C4259 C 0.89286 0.19372 0.14032 0.0
H4260 H 0.06734 0.84746 0.61765 0.0
H4261 H 0.01451 0.85677 0.61131 0.0
H4262 H 0.01666 0.88151 0.62961 0.0
H4263 H 0.07152 0.8618 0.66066 0.0
H4264 H 0.09132 0.87173 0.65697 0.0
H4265 H 0.08537 0.85375 0.64491 0.0
H4266 H 0.08976 0.87038 0.61755 0.0
H4267 H 0.09593 0.8883 0.62952 0.0
H4268 H 0.07909 0.88995 0.61474 0.0
H4269 H 0.02464 0.90547 0.64776 0.0
H4270 H 0.0386 0.92944 0.66125 0.0
H4271 H 0.08653 0.9057 0.65421 0.0
C4272 C 0.05621 0.85461 0.62035 0.0
C4273 C 0.0407 0.85019 0.61337 0.0
C4274 C 0.02647 0.86001 0.61667 0.0
C4275 C 0.02755 0.87396 0.62713 0.0
C4276 C 0.04303 0.87799 0.63391 0.0
C4277 C 0.05717 0.86879 0.63042 0.0
C4278 C 0.07257 0.87679 0.63783 0.0
C4279 C 0.08067 0.86533 0.65087 0.0
C4280 C 0.08507 0.88165 0.62409 0.0
C4281 C 0.0649 0.892 0.64593 0.0
C4282 C 0.04779 0.89224 0.64383 0.0
C4283 C 0.03799 0.90534 0.64966 0.0
C4284 C 0.04596 0.9188 0.65738 0.0
C4285 C 0.06347 0.91904 0.65905 0.0
C4286 C 0.07305 0.90543 0.65348 0.0
H4287 H 0.34745 0.34152 0.90114 0.0
H4288 H 0.32977 0.29324 0.91746 0.0
H4289 H 0.3557 0.28017 0.90709 0.0
H4290 H 0.36477 0.33026 0.8648 0.0
H4291 H 0.38331 0.3429 0.86574 0.0
H4292 H 0.36499 0.34927 0.87684 0.0
H4293 H 0.38136 0.35045 0.9044 0.0
H4294 H 0.40003 0.34468 0.8933 0.0
H4295 H 0.39332 0.33263 0.91103 0.0
H4296 H 0.37999 0.27192 0.88958 0.0
H4297 H 0.40375 0.26941 0.87004 0.0
H4298 H 0.40757 0.32318 0.86763 0.0
C4299 C 0.34945 0.32833 0.90314 0.0
C4300 C 0.33691 0.31833 0.91029 0.0
C4301 C 0.33952 0.30105 0.91233 0.0
C4302 C 0.35413 0.29355 0.90641 0.0
C4303 C 0.36611 0.30363 0.8989 0.0
C4304 C 0.3642 0.32073 0.89773 0.0
C4305 C 0.37859 0.32856 0.88836 0.0
C4306 C 0.3725 0.3383 0.87301 0.0
C4307 C 0.38894 0.33974 0.89997 0.0
C4308 C 0.38824 0.31312 0.88341 0.0
C4309 C 0.38085 0.29886 0.88967 0.0
C4310 C 0.38626 0.28299 0.8851 0.0
C4311 C 0.39964 0.28166 0.87394 0.0
C4312 C 0.40758 0.2961 0.86777 0.0
C4313 C 0.40196 0.31199 0.87269 0.0
H4314 H 0.93884 0.65391 0.13372 0.0
H4315 H 0.98511 0.63766 0.11097 0.0
H4316 H 0.9837 0.61139 0.12687 0.0
H4317 H 0.94494 0.63333 0.17517 0.0
H4318 H 0.92327 0.62762 0.17662 0.0
H4319 H 0.92926 0.64633 0.16571 0.0
H4320 H 0.91378 0.63597 0.13932 0.0
H4321 H 0.90774 0.6173 0.15013 0.0
H4322 H 0.91895 0.61587 0.13072 0.0
H4323 H 0.97567 0.58584 0.14193 0.0
H4324 H 0.96083 0.56195 0.1544 0.0
H4325 H 0.91961 0.59417 0.16763 0.0
C4326 C 0.94891 0.64501 0.13249 0.0
C4327 C 0.96221 0.64785 0.1213 0.0
C4328 C 0.97488 0.63573 0.11957 0.0
C4329 C 0.97424 0.62083 0.12862 0.0
C4330 C 0.96082 0.61824 0.13933 0.0
C4331 C 0.94835 0.62996 0.14131 0.0
C4332 C 0.93435 0.62325 0.15209 0.0
C4333 C 0.93287 0.63323 0.16837 0.0
C4334 C 0.91773 0.62308 0.14248 0.0
C4335 C 0.94063 0.60574 0.15538 0.0
C4336 C 0.95608 0.60326 0.14812 0.0
C4337 C 0.96378 0.58772 0.14802 0.0
C4338 C 0.95531 0.57426 0.15513 0.0
C4339 C 0.93937 0.57645 0.16229 0.0
C4340 C 0.93208 0.59242 0.16276 0.0
H4341 H 0.67138 0.18324 0.38792 0.0
H4342 H 0.65373 0.16328 0.43501 0.0
H4343 H 0.62479 0.17072 0.42711 0.0
H4344 H 0.64337 0.21816 0.38614 0.0
H4345 H 0.64087 0.21681 0.36386 0.0
H4346 H 0.66 0.21002 0.37342 0.0
H4347 H 0.65671 0.18096 0.35962 0.0
H4348 H 0.6376 0.18767 0.34998 0.0
H4349 H 0.63779 0.1693 0.36288 0.0
H4350 H 0.59759 0.17878 0.41285 0.0
H4351 H 0.57476 0.18796 0.39421 0.0
H4352 H 0.61116 0.20412 0.35769 0.0
C4353 C 0.66147 0.18039 0.39663 0.0
C4354 C 0.66477 0.17257 0.41204 0.0
C4355 C 0.65145 0.16927 0.42313 0.0
C4356 C 0.63501 0.17343 0.41874 0.0
C4357 C 0.63223 0.18107 0.40336 0.0
C4358 C 0.64515 0.18463 0.39257 0.0
C4359 C 0.63904 0.19284 0.37678 0.0
C4360 C 0.64624 0.21051 0.37495 0.0
C4361 C 0.64302 0.18205 0.36142 0.0
C4362 C 0.62057 0.19329 0.38025 0.0
C4363 C 0.61682 0.18634 0.39557 0.0
C4364 C 0.60042 0.18445 0.40094 0.0
C4365 C 0.58756 0.18968 0.39029 0.0
C4366 C 0.59124 0.19688 0.37461 0.0
C4367 C 0.60796 0.1989 0.3697 0.0
H4368 H 0.35152 0.08947 0.09246 0.0
H4369 H 0.32401 0.04493 0.0795 0.0
H4370 H 0.33459 0.03105 0.10504 0.0
H4371 H 0.38689 0.07083 0.10668 0.0
H4372 H 0.39086 0.08471 0.12389 0.0
H4373 H 0.37951 0.09202 0.10606 0.0
H4374 H 0.35458 0.10075 0.12456 0.0
H4375 H 0.36607 0.09404 0.14265 0.0
H4376 H 0.34555 0.08582 0.1387 0.0
H4377 H 0.35246 0.02073 0.12894 0.0
H4378 H 0.37233 0.01626 0.15225 0.0
H4379 H 0.38581 0.06847 0.15086 0.0
C4380 C 0.34725 0.07703 0.09535 0.0
C4381 C 0.33682 0.06827 0.08428 0.0
C4382 C 0.33173 0.05187 0.08813 0.0
C4383 C 0.33778 0.0439 0.10249 0.0
C4384 C 0.34856 0.05271 0.11292 0.0
C4385 C 0.35286 0.06909 0.10976 0.0
C4386 C 0.36509 0.07565 0.12252 0.0
C4387 C 0.38155 0.08111 0.11429 0.0
C4388 C 0.35736 0.0899 0.13271 0.0
C4389 C 0.3675 0.06023 0.13302 0.0
C4390 C 0.35801 0.04706 0.12722 0.0
C4391 C 0.35956 0.03107 0.13389 0.0
C4392 C 0.37091 0.0286 0.14698 0.0
C4393 C 0.38022 0.04211 0.15334 0.0
C4394 C 0.37845 0.05808 0.14636 0.0
H4395 H 0.88776 0.93144 0.34549 0.0
H4396 H 0.86335 0.97916 0.33924 0.0
H4397 H 0.84373 0.97215 0.3621 0.0
H4398 H 0.85123 0.9067 0.35786 0.0
H4399 H 0.86275 0.89512 0.37329 0.0
H4400 H 0.87318 0.90287 0.35496 0.0
H4401 H 0.89463 0.91831 0.3735 0.0
H4402 H 0.88438 0.91044 0.39181 0.0
H4403 H 0.88732 0.93257 0.38926 0.0
H4404 H 0.82735 0.96013 0.38594 0.0
H4405 H 0.81875 0.94659 0.41229 0.0
H4406 H 0.85584 0.9081 0.40459 0.0
C4407 C 0.87807 0.94024 0.34884 0.0
C4408 C 0.8767 0.95567 0.34064 0.0
C4409 C 0.86435 0.96722 0.34547 0.0
C4410 C 0.85313 0.96328 0.35827 0.0
C4411 C 0.85473 0.94788 0.36619 0.0
C4412 C 0.86711 0.93669 0.36187 0.0
C4413 C 0.86753 0.92197 0.37363 0.0
C4414 C 0.86342 0.9057 0.36438 0.0
C4415 C 0.88446 0.92077 0.38258 0.0
C4416 C 0.85366 0.92679 0.38546 0.0
C4417 C 0.84607 0.94149 0.38064 0.0
C4418 C 0.83314 0.94859 0.38982 0.0
C4419 C 0.82825 0.94078 0.40467 0.0
C4420 C 0.83662 0.92634 0.4103 0.0
C4421 C 0.8492 0.91908 0.4004 0.0
H4422 H 0.34024 0.09571 0.64999 0.0
H4423 H 0.29292 0.07365 0.66341 0.0
H4424 H 0.28092 0.08306 0.63658 0.0
H4425 H 0.32601 0.13109 0.63358 0.0
H4426 H 0.34056 0.13268 0.61654 0.0
H4427 H 0.34619 0.12128 0.63491 0.0
H4428 H 0.35228 0.09522 0.61673 0.0
H4429 H 0.34667 0.10683 0.59833 0.0
H4430 H 0.3364 0.08738 0.60291 0.0
H4431 H 0.27259 0.10089 0.61242 0.0
H4432 H 0.26962 0.12183 0.58992 0.0
H4433 H 0.32289 0.13033 0.59068 0.0
C4434 C 0.32763 0.0921 0.64679 0.0
C4435 C 0.31753 0.08369 0.65842 0.0
C4436 C 0.30089 0.07968 0.65434 0.0
C4437 C 0.29398 0.08508 0.63921 0.0
C4438 C 0.30405 0.09412 0.62827 0.0
C4439 C 0.32069 0.09712 0.63162 0.0
C4440 C 0.32844 0.10833 0.61855 0.0
C4441 C 0.3357 0.12428 0.62639 0.0
C4442 C 0.34173 0.09887 0.60853 0.0
C4443 C 0.3133 0.11208 0.60795 0.0
C4444 C 0.29936 0.10373 0.61372 0.0
C4445 C 0.28351 0.10698 0.60737 0.0
C4446 C 0.2819 0.11894 0.59473 0.0
C4447 C 0.29609 0.12724 0.58845 0.0
C4448 C 0.31197 0.12364 0.59498 0.0
H4449 H 0.10475 0.53534 0.86898 0.0
H4450 H 0.14153 0.5504 0.83239 0.0
H4451 H 0.16023 0.55978 0.855 0.0
H4452 H 0.10968 0.57041 0.89414 0.0
H4453 H 0.10643 0.55966 0.91359 0.0
H4454 H 0.0971 0.55182 0.89477 0.0
H4455 H 0.11136 0.5232 0.89944 0.0
H4456 H 0.12068 0.53092 0.91835 0.0
H4457 H 0.13364 0.52224 0.90219 0.0
H4458 H 0.17411 0.56923 0.88163 0.0
H4459 H 0.18127 0.57931 0.90993 0.0
H4460 H 0.13448 0.5595 0.92851 0.0
C4461 C 0.11689 0.54024 0.86576 0.0
C4462 C 0.12181 0.54201 0.84901 0.0
C4463 C 0.13761 0.54888 0.84522 0.0
C4464 C 0.14832 0.55418 0.85796 0.0
C4465 C 0.14294 0.55267 0.87438 0.0
C4466 C 0.12756 0.54592 0.8783 0.0
C4467 C 0.12399 0.54723 0.89674 0.0
C4468 C 0.10838 0.55792 0.89999 0.0
C4469 C 0.12233 0.52986 0.90464 0.0
C4470 C 0.13966 0.55595 0.90255 0.0
C4471 C 0.15058 0.55876 0.88956 0.0
C4472 C 0.1657 0.56701 0.89193 0.0
C4473 C 0.16967 0.57267 0.90802 0.0
C4474 C 0.15841 0.57027 0.92138 0.0
C4475 C 0.14333 0.56163 0.91854 0.0
H4476 H 0.1651 0.88262 0.16296 0.0
H4477 H 0.19911 0.92437 0.16661 0.0
H4478 H 0.20963 0.91824 0.1382 0.0
H4479 H 0.19117 0.85562 0.14413 0.0
H4480 H 0.17653 0.84607 0.13009 0.0
H4481 H 0.16932 0.85501 0.14934 0.0
H4482 H 0.14875 0.87397 0.13377 0.0
H4483 H 0.15528 0.86533 0.11413 0.0
H4484 H 0.15611 0.88751 0.11744 0.0
H4485 H 0.2196 0.9043 0.11156 0.0
H4486 H 0.22574 0.88571 0.08753 0.0
H4487 H 0.18349 0.85498 0.1006 0.0
C4488 C 0.1744 0.89076 0.15754 0.0
C4489 C 0.18133 0.90396 0.16681 0.0
C4490 C 0.19357 0.91431 0.15952 0.0
C4491 C 0.19963 0.91088 0.14346 0.0
C4492 C 0.19295 0.89736 0.13482 0.0
C4493 C 0.18026 0.88775 0.14146 0.0
C4494 C 0.17578 0.87339 0.13014 0.0
C4495 C 0.17835 0.85654 0.13895 0.0
C4496 C 0.15792 0.87517 0.12349 0.0
C4497 C 0.18838 0.87597 0.11642 0.0
C4498 C 0.19821 0.88982 0.11928 0.0
C4499 C 0.2117 0.89368 0.10899 0.0
C4500 C 0.21514 0.88309 0.09547 0.0
C4501 C 0.20501 0.86903 0.09242 0.0
C4502 C 0.19136 0.86564 0.1028 0.0
H4503 H 0.60675 0.96454 0.13536 0.0
H4504 H 0.64213 0.94476 0.17107 0.0
H4505 H 0.66149 0.93784 0.14811 0.0
H4506 H 0.61232 0.93286 0.10609 0.0
H4507 H 0.6098 0.94611 0.08814 0.0
H4508 H 0.59991 0.95153 0.1075 0.0
H4509 H 0.61455 0.98035 0.10698 0.0
H4510 H 0.62453 0.97498 0.08759 0.0
H4511 H 0.63692 0.98136 0.10521 0.0
H4512 H 0.67614 0.93135 0.1209 0.0
H4513 H 0.68372 0.92407 0.09184 0.0
H4514 H 0.63807 0.94725 0.07444 0.0
C4515 C 0.61871 0.95909 0.13836 0.0
C4516 C 0.62305 0.95532 0.15494 0.0
C4517 C 0.63864 0.94779 0.1584 0.0
C4518 C 0.64973 0.9439 0.14546 0.0
C4519 C 0.64498 0.94754 0.12917 0.0
C4520 C 0.62979 0.95489 0.1256 0.0
C4521 C 0.62689 0.956 0.10704 0.0
C4522 C 0.61131 0.94603 0.1019 0.0
C4523 C 0.62566 0.97426 0.10138 0.0
C4524 C 0.64268 0.94791 0.10072 0.0
C4525 C 0.65312 0.94333 0.11361 0.0
C4526 C 0.66812 0.93501 0.11069 0.0
C4527 C 0.67237 0.93097 0.09418 0.0
C4528 C 0.66148 0.93505 0.08092 0.0
C4529 C 0.64665 0.94392 0.08431 0.0
H4530 H 0.32189 0.36216 0.90215 0.0
H4531 H 0.27136 0.38003 0.90806 0.0
H4532 H 0.27607 0.40088 0.88569 0.0
H4533 H 0.34199 0.40147 0.89091 0.0
H4534 H 0.35504 0.39197 0.87531 0.0
H4535 H 0.34852 0.38009 0.89321 0.0
H4536 H 0.33523 0.35726 0.87419 0.0
H4537 H 0.34306 0.36875 0.85666 0.0
H4538 H 0.32122 0.36361 0.85785 0.0
H4539 H 0.28612 0.41888 0.86184 0.0
H4540 H 0.29889 0.42938 0.83572 0.0
H4541 H 0.34173 0.39768 0.84406 0.0
C4542 C 0.31196 0.37067 0.89884 0.0
C4543 C 0.29638 0.36983 0.9068 0.0
C4544 C 0.28342 0.38074 0.90205 0.0
C4545 C 0.28604 0.39264 0.88949 0.0
C4546 C 0.30159 0.39318 0.88174 0.0
C4547 C 0.31423 0.38225 0.88605 0.0
C4548 C 0.32901 0.38388 0.8745 0.0
C4549 C 0.34455 0.38971 0.88406 0.0
C4550 C 0.33231 0.3674 0.86525 0.0
C4551 C 0.32266 0.39727 0.86285 0.0
C4552 C 0.30702 0.40281 0.86747 0.0
C4553 C 0.29841 0.41474 0.85818 0.0
C4554 C 0.30577 0.42072 0.84346 0.0
C4555 C 0.32131 0.41442 0.8381 0.0
C4556 C 0.32995 0.40283 0.84808 0.0
H4557 H 0.71317 0.1412 0.39306 0.0
H4558 H 0.69786 0.10404 0.42916 0.0
H4559 H 0.6901 0.08496 0.40622 0.0
H4560 H 0.67926 0.13511 0.36674 0.0
H4561 H 0.69058 0.13879 0.34769 0.0
H4562 H 0.6974 0.14834 0.36678 0.0
H4563 H 0.72667 0.13511 0.36317 0.0
H4564 H 0.71997 0.1256 0.34397 0.0
H4565 H 0.72851 0.1129 0.36041 0.0
H4566 H 0.68212 0.07076 0.37911 0.0
H4567 H 0.67344 0.06336 0.35039 0.0
H4568 H 0.69241 0.11084 0.33274 0.0
C4569 C 0.70857 0.12892 0.39616 0.0
C4570 C 0.70625 0.12401 0.41286 0.0
C4571 C 0.69981 0.10797 0.4164 0.0
C4572 C 0.69541 0.09705 0.40347 0.0
C4573 C 0.69738 0.10246 0.38709 0.0
C4574 C 0.70376 0.11805 0.38343 0.0
C4575 C 0.70301 0.12163 0.36496 0.0
C4576 C 0.6919 0.13686 0.36134 0.0
C4577 C 0.72059 0.12394 0.3577 0.0
C4578 C 0.69507 0.1057 0.35881 0.0
C4579 C 0.69212 0.09466 0.37167 0.0
C4580 C 0.68447 0.07927 0.36892 0.0
C4581 C 0.67959 0.07516 0.3526 0.0
C4582 C 0.68216 0.08654 0.33936 0.0
C4583 C 0.69016 0.10189 0.34259 0.0
H4584 H 0.1526 0.87644 0.56311 0.0
H4585 H 0.14212 0.88888 0.51161 0.0
H4586 H 0.1168 0.87135 0.5125 0.0
H4587 H 0.13526 0.83333 0.56318 0.0
H4588 H 0.12627 0.8358 0.58362 0.0
H4589 H 0.14508 0.84683 0.57821 0.0
H4590 H 0.13103 0.87485 0.58604 0.0
H4591 H 0.11228 0.8639 0.59156 0.0
H4592 H 0.11153 0.88044 0.57638 0.0
H4593 H 0.09154 0.8553 0.51957 0.0
H4594 H 0.06637 0.84386 0.53311 0.0
H4595 H 0.0922 0.84253 0.58047 0.0
C4596 C 0.14519 0.87503 0.55192 0.0
C4597 C 0.14936 0.88366 0.53717 0.0
C4598 C 0.13912 0.88217 0.52294 0.0
C4599 C 0.12482 0.87218 0.52331 0.0
C4600 C 0.12087 0.86395 0.53809 0.0
C4601 C 0.13064 0.86539 0.55221 0.0
C4602 C 0.1224 0.85712 0.56708 0.0
C4603 C 0.13288 0.84239 0.57339 0.0
C4604 C 0.11911 0.86984 0.58108 0.0
C4605 C 0.1063 0.85117 0.5592 0.0
C4606 C 0.10588 0.85494 0.54237 0.0
C4607 C 0.09183 0.85196 0.53263 0.0
C4608 C 0.07765 0.84544 0.54038 0.0
C4609 C 0.07765 0.84198 0.55764 0.0
C4610 C 0.09222 0.84453 0.56712 0.0
H4611 H 0.89374 0.8425 0.83681 0.0
H4612 H 0.92726 0.83478 0.7952 0.0
H4613 H 0.91756 0.86119 0.7825 0.0
H4614 H 0.86049 0.85738 0.81552 0.0
H4615 H 0.85425 0.87318 0.83023 0.0
H4616 H 0.8655 0.85515 0.83732 0.0
H4617 H 0.88824 0.87396 0.85034 0.0
H4618 H 0.87684 0.8921 0.84361 0.0
H4619 H 0.89836 0.88951 0.83768 0.0
H4620 H 0.90009 0.8849 0.77193 0.0
H4621 H 0.87963 0.90744 0.76651 0.0
H4622 H 0.85955 0.90129 0.81621 0.0
C4623 C 0.89944 0.84675 0.82533 0.0
C4624 C 0.91128 0.83684 0.81695 0.0
C4625 C 0.91837 0.84246 0.80186 0.0
C4626 C 0.91286 0.85734 0.79454 0.0
C4627 C 0.90064 0.86655 0.80279 0.0
C4628 C 0.89441 0.86176 0.81813 0.0
C4629 C 0.88088 0.87349 0.82408 0.0
C4630 C 0.86431 0.86424 0.82694 0.0
C4631 C 0.88642 0.88282 0.83986 0.0
C4632 C 0.87985 0.8851 0.80928 0.0
C4633 C 0.8913 0.88087 0.7971 0.0
C4634 C 0.89145 0.88868 0.78157 0.0
C4635 C 0.87976 0.90131 0.77853 0.0
C4636 C 0.86838 0.90607 0.79107 0.0
C4637 C 0.86847 0.89799 0.80663 0.0
H4638 H 0.86098 0.6007 0.03979 0.0
H4639 H 0.8258 0.63599 0.06074 0.0
H4640 H 0.84923 0.65337 0.07069 0.0
H4641 H 0.88887 0.60196 0.07345 0.0
H4642 H 0.90733 0.59979 0.06084 0.0
H4643 H 0.88786 0.59122 0.05375 0.0
H4644 H 0.89017 0.60814 0.02631 0.0
H4645 H 0.90973 0.61668 0.03324 0.0
H4646 H 0.893 0.63041 0.02726 0.0
H4647 H 0.87676 0.66625 0.07933 0.0
H4648 H 0.90598 0.67305 0.08657 0.0
H4649 H 0.92249 0.62818 0.06126 0.0
C4650 C 0.85817 0.61221 0.04622 0.0
C4651 C 0.8416 0.61706 0.04942 0.0
C4652 C 0.83845 0.6321 0.0581 0.0
C4653 C 0.85166 0.64204 0.06379 0.0
C4654 C 0.86789 0.63667 0.06078 0.0
C4655 C 0.87116 0.62208 0.05221 0.0
C4656 C 0.88961 0.61841 0.0516 0.0
C4657 C 0.89365 0.60187 0.06044 0.0
C4658 C 0.896 0.61842 0.03353 0.0
C4659 C 0.89624 0.63316 0.06124 0.0
C4660 C 0.88358 0.64368 0.06629 0.0
C4661 C 0.88678 0.65811 0.07541 0.0
C4662 C 0.90339 0.66188 0.07947 0.0
C4663 C 0.91648 0.6511 0.07457 0.0
C4664 C 0.91276 0.6366 0.06533 0.0
H4665 H 0.11317 0.66854 0.30649 0.0
H4666 H 0.07024 0.65169 0.33466 0.0
H4667 H 0.0782 0.62231 0.32884 0.0
H4668 H 0.11225 0.63608 0.27462 0.0
H4669 H 0.13466 0.63506 0.27365 0.0
H4670 H 0.12454 0.65438 0.27894 0.0
H4671 H 0.14176 0.65591 0.30627 0.0
H4672 H 0.15186 0.63659 0.30112 0.0
H4673 H 0.14107 0.63871 0.3207 0.0
H4674 H 0.09311 0.59479 0.32218 0.0
H4675 H 0.1124 0.57203 0.31419 0.0
H4676 H 0.14457 0.60798 0.28983 0.0
C4677 C 0.10529 0.6587 0.31131 0.0
C4678 C 0.09114 0.66231 0.3211 0.0
C4679 C 0.08109 0.64912 0.32706 0.0
C4680 C 0.08555 0.63245 0.32385 0.0
C4681 C 0.09989 0.62936 0.31446 0.0
C4682 C 0.10944 0.64219 0.30813 0.0
C4683 C 0.12462 0.63588 0.29901 0.0
C4684 C 0.12397 0.64063 0.28045 0.0
C4685 C 0.14077 0.64214 0.30728 0.0
C4686 C 0.12241 0.61739 0.30142 0.0
C4687 C 0.1081 0.61378 0.31034 0.0
C4688 C 0.10418 0.59749 0.31496 0.0
C4689 C 0.1152 0.58467 0.31041 0.0
C4690 C 0.12991 0.58826 0.30132 0.0
C4691 C 0.13335 0.60481 0.29662 0.0
H4692 H 0.13685 0.10601 0.45728 0.0
H4693 H 0.17241 0.13854 0.43284 0.0
H4694 H 0.14935 0.15706 0.424 0.0
H4695 H 0.10634 0.10848 0.42564 0.0
H4696 H 0.08897 0.1076 0.43985 0.0
H4697 H 0.10843 0.09793 0.44536 0.0
H4698 H 0.1094 0.11532 0.47261 0.0
H4699 H 0.08995 0.1251 0.46715 0.0
H4700 H 0.10802 0.13771 0.47149 0.0
H4701 H 0.1219 0.17171 0.41741 0.0
H4702 H 0.09254 0.17962 0.41163 0.0
H4703 H 0.07573 0.13643 0.43944 0.0
C4704 C 0.13982 0.11712 0.45024 0.0
C4705 C 0.15637 0.12095 0.44584 0.0
C4706 C 0.15975 0.13544 0.43635 0.0
C4707 C 0.14677 0.14605 0.43135 0.0
C4708 C 0.13052 0.14187 0.43584 0.0
C4709 C 0.12705 0.12765 0.44494 0.0
C4710 C 0.10854 0.12521 0.44718 0.0
C4711 C 0.10274 0.10884 0.43902 0.0
C4712 C 0.1037 0.12588 0.46571 0.0
C4713 C 0.10211 0.14023 0.43785 0.0
C4714 C 0.1149 0.14986 0.43157 0.0
C4715 C 0.11178 0.16426 0.4223 0.0
C4716 C 0.09512 0.1687 0.41914 0.0
C4717 C 0.08194 0.15858 0.42502 0.0
C4718 C 0.08557 0.14435 0.43469 0.0
H4719 H 0.62925 0.90968 0.68258 0.0
H4720 H 0.61328 0.91166 0.73406 0.0
H4721 H 0.59368 0.88826 0.72887 0.0
H4722 H 0.58987 0.89631 0.66324 0.0
H4723 H 0.60024 0.88224 0.64914 0.0
H4724 H 0.6107 0.90084 0.65615 0.0
H4725 H 0.63545 0.88312 0.66697 0.0
H4726 H 0.6252 0.86454 0.65981 0.0
H4727 H 0.63147 0.86629 0.68131 0.0
H4728 H 0.57688 0.86382 0.71814 0.0
H4729 H 0.56839 0.83732 0.70474 0.0
H4730 H 0.59787 0.84984 0.66132 0.0
C4731 C 0.62134 0.90536 0.69263 0.0
C4732 C 0.62237 0.91252 0.70861 0.0
C4733 C 0.61239 0.90632 0.7217 0.0
C4734 C 0.60119 0.89318 0.71881 0.0
C4735 C 0.60046 0.88628 0.70284 0.0
C4736 C 0.61056 0.89197 0.69007 0.0
C4737 C 0.60931 0.88098 0.67482 0.0
C4738 C 0.6021 0.89068 0.65996 0.0
C4739 C 0.62636 0.87328 0.67049 0.0
C4740 C 0.59714 0.86802 0.68106 0.0
C4741 C 0.59174 0.87157 0.69704 0.0
C4742 C 0.5809 0.86099 0.70559 0.0
C4743 C 0.57602 0.84607 0.69786 0.0
C4744 C 0.58233 0.8418 0.68198 0.0
C4745 C 0.59266 0.85307 0.67335 0.0
H4746 H 0.92533 0.36762 0.9347 0.0
H4747 H 0.90796 0.32074 0.91404 0.0
H4748 H 0.87894 0.32857 0.92098 0.0
H4749 H 0.89661 0.36893 0.96916 0.0
H4750 H 0.89405 0.39122 0.96809 0.0
H4751 H 0.91333 0.38183 0.96149 0.0
H4752 H 0.91047 0.39605 0.93261 0.0
H4753 H 0.89118 0.40549 0.93911 0.0
H4754 H 0.89179 0.39286 0.92055 0.0
H4755 H 0.85178 0.34242 0.92874 0.0
H4756 H 0.82866 0.36042 0.93835 0.0
H4757 H 0.86437 0.39724 0.95535 0.0
C4758 C 0.91545 0.35897 0.93162 0.0
C4759 C 0.91886 0.3436 0.92376 0.0
C4760 C 0.90559 0.33256 0.9201 0.0
C4761 C 0.8891 0.33691 0.92396 0.0
C4762 C 0.8862 0.35222 0.93164 0.0
C4763 C 0.89903 0.363 0.93557 0.0
C4764 C 0.89269 0.37865 0.94391 0.0
C4765 C 0.89958 0.38024 0.96172 0.0
C4766 C 0.89678 0.39417 0.93341 0.0
C4767 C 0.87422 0.37508 0.94398 0.0
C4768 C 0.8707 0.35985 0.93673 0.0
C4769 C 0.8544 0.35427 0.93462 0.0
C4770 C 0.84139 0.36456 0.94007 0.0
C4771 C 0.84481 0.38009 0.9477 0.0
C4772 C 0.86143 0.38532 0.94979 0.0
H4773 H 0.3922 0.66419 0.16414 0.0
H4774 H 0.43263 0.66677 0.19986 0.0
H4775 H 0.42408 0.63939 0.21138 0.0
H4776 H 0.36254 0.64858 0.1901 0.0
H4777 H 0.35278 0.63488 0.17522 0.0
H4778 H 0.36355 0.65318 0.16814 0.0
H4779 H 0.38234 0.63519 0.14903 0.0
H4780 H 0.37139 0.6168 0.15583 0.0
H4781 H 0.39374 0.61792 0.15778 0.0
H4782 H 0.40803 0.61436 0.22189 0.0
H4783 H 0.3879 0.5917 0.2282 0.0
H4784 H 0.35905 0.6051 0.18463 0.0
C4785 C 0.39956 0.65872 0.17405 0.0
C4786 C 0.41307 0.66744 0.18114 0.0
C4787 C 0.42237 0.66009 0.19417 0.0
C4788 C 0.41754 0.64464 0.20082 0.0
C4789 C 0.40365 0.63668 0.19401 0.0
C4790 C 0.39505 0.6433 0.18063 0.0
C4791 C 0.38002 0.63285 0.17612 0.0
C4792 C 0.36378 0.64298 0.17749 0.0
C4793 C 0.382 0.62523 0.15865 0.0
C4794 C 0.38106 0.61968 0.1895 0.0
C4795 C 0.39476 0.62204 0.19971 0.0
C4796 C 0.39749 0.61217 0.21376 0.0
C4797 C 0.386 0.59947 0.21733 0.0
C4798 C 0.37213 0.59684 0.20683 0.0
C4799 C 0.36969 0.60693 0.19273 0.0
H4800 H 0.05879 0.57244 0.87058 0.0
H4801 H 0.07942 0.58941 0.82354 0.0
H4802 H 0.07217 0.61848 0.83105 0.0
H4803 H 0.02423 0.60183 0.87233 0.0
H4804 H 0.02586 0.60422 0.89461 0.0
H4805 H 0.0318 0.58485 0.88495 0.0
H4806 H 0.061 0.58698 0.89863 0.0
H4807 H 0.05521 0.60639 0.90825 0.0
H4808 H 0.07346 0.60536 0.8952 0.0
H4809 H 0.06503 0.64581 0.84511 0.0
H4810 H 0.05678 0.66905 0.86358 0.0
H4811 H 0.03984 0.63363 0.90072 0.0
C4812 C 0.06167 0.58222 0.86174 0.0
C4813 C 0.06973 0.57869 0.84648 0.0
C4814 C 0.07318 0.59185 0.83525 0.0
C4815 C 0.06915 0.60837 0.83944 0.0
C4816 C 0.06149 0.61139 0.85476 0.0
C4817 C 0.05762 0.59864 0.86563 0.0
C4818 C 0.04978 0.6051 0.8815 0.0
C4819 C 0.03185 0.59861 0.88345 0.0
C4820 C 0.0605 0.6007 0.89679 0.0
C4821 C 0.05004 0.62358 0.87803 0.0
C4822 C 0.05691 0.62699 0.86258 0.0
C4823 C 0.0594 0.64326 0.8571 0.0
C4824 C 0.05475 0.65636 0.86769 0.0
C4825 C 0.04755 0.65307 0.88347 0.0
C4826 C 0.04505 0.63648 0.8886 0.0
H4827 H 0.1616 0.83594 0.10424 0.0
H4828 H 0.17128 0.79521 0.07019 0.0
H4829 H 0.14437 0.78225 0.07821 0.0
H4830 H 0.14534 0.81402 0.1359 0.0
H4831 H 0.12885 0.82801 0.14191 0.0
H4832 H 0.14717 0.83606 0.13192 0.0
H4833 H 0.13009 0.84945 0.10821 0.0
H4834 H 0.11143 0.84263 0.11864 0.0
H4835 H 0.11496 0.83712 0.09714 0.0
H4836 H 0.11943 0.77145 0.09405 0.0
H4837 H 0.09597 0.76565 0.11337 0.0
H4838 H 0.10127 0.81488 0.13475 0.0
C4839 C 0.15779 0.82459 0.09808 0.0
C4840 C 0.16834 0.81655 0.08657 0.0
C4841 C 0.16315 0.80159 0.07888 0.0
C4842 C 0.14797 0.79416 0.0834 0.0
C4843 C 0.13804 0.80216 0.09524 0.0
C4844 C 0.14252 0.81732 0.10209 0.0
C4845 C 0.13006 0.82304 0.11506 0.0
C4846 C 0.13837 0.8254 0.1322 0.0
C4847 C 0.1211 0.839 0.10942 0.0
C4848 C 0.11833 0.80834 0.11506 0.0
C4849 C 0.12313 0.79639 0.10359 0.0
C4850 C 0.11524 0.78092 0.10268 0.0
C4851 C 0.10205 0.77769 0.11371 0.0
C4852 C 0.09682 0.78999 0.12515 0.0
C4853 C 0.10489 0.80551 0.12573 0.0
H4854 H 0.93555 0.85046 0.36946 0.0
H4855 H 0.98173 0.86611 0.39286 0.0
H4856 H 0.97952 0.89343 0.37899 0.0
H4857 H 0.94108 0.87273 0.32978 0.0
H4858 H 0.91942 0.87852 0.32837 0.0
H4859 H 0.9253 0.85952 0.33881 0.0
H4860 H 0.90976 0.86923 0.36543 0.0
H4861 H 0.90378 0.88818 0.35504 0.0
H4862 H 0.91488 0.88911 0.37453 0.0
H4863 H 0.97146 0.91948 0.36475 0.0
H4864 H 0.95727 0.94343 0.3516 0.0
H4865 H 0.91628 0.91144 0.3371 0.0
C4866 C 0.94532 0.85957 0.3714 0.0
C4867 C 0.9589 0.85618 0.38208 0.0
C4868 C 0.97126 0.86848 0.38467 0.0
C4869 C 0.97016 0.88399 0.37679 0.0
C4870 C 0.95658 0.88702 0.36643 0.0
C4871 C 0.94431 0.87523 0.36376 0.0
C4872 C 0.93038 0.88223 0.35306 0.0
C4873 C 0.92897 0.87268 0.33652 0.0
C4874 C 0.91372 0.88218 0.36259 0.0
C4875 C 0.93668 0.89981 0.3503 0.0
C4876 C 0.9519 0.90222 0.35805 0.0
C4877 C 0.95971 0.9177 0.35837 0.0
C4878 C 0.95161 0.93119 0.35088 0.0
C4879 C 0.93598 0.92904 0.34307 0.0
C4880 C 0.92852 0.91315 0.34253 0.0
H4881 H 0.84485 0.65685 0.60637 0.0
H4882 H 0.8444 0.69129 0.56477 0.0
H4883 H 0.87285 0.70067 0.57234 0.0
H4884 H 0.86228 0.68279 0.63427 0.0
H4885 H 0.87504 0.66777 0.64499 0.0
H4886 H 0.85633 0.66113 0.63464 0.0
H4887 H 0.87272 0.63988 0.617 0.0
H4888 H 0.89166 0.64588 0.62745 0.0
H4889 H 0.8905 0.64663 0.60504 0.0
H4890 H 0.89862 0.71005 0.58798 0.0
H4891 H 0.92093 0.71634 0.60851 0.0
H4892 H 0.90505 0.67451 0.63854 0.0
C4893 C 0.85099 0.66596 0.59851 0.0
C4894 C 0.84256 0.67336 0.58498 0.0
C4895 C 0.85081 0.68535 0.57505 0.0
C4896 C 0.86691 0.69077 0.57932 0.0
C4897 C 0.87458 0.68377 0.59328 0.0
C4898 C 0.86702 0.67131 0.60248 0.0
C4899 C 0.87711 0.66679 0.61773 0.0
C4900 C 0.86709 0.6698 0.63384 0.0
C4901 C 0.88337 0.64872 0.61673 0.0
C4902 C 0.89125 0.67907 0.61607 0.0
C4903 C 0.88964 0.68879 0.60191 0.0
C4904 C 0.90026 0.70222 0.59883 0.0
C4905 C 0.9128 0.70576 0.61053 0.0
C4906 C 0.91455 0.69583 0.62495 0.0
C4907 C 0.90389 0.6822 0.62757 0.0
H4908 H 0.06514 0.34502 0.11012 0.0
H4909 H 0.01823 0.33609 0.13521 0.0
H4910 H 0.02464 0.3588 0.15528 0.0
H4911 H 0.09013 0.35743 0.14604 0.0
H4912 H 0.10072 0.37369 0.13472 0.0
H4913 H 0.09346 0.35539 0.12391 0.0
H4914 H 0.07659 0.37385 0.10347 0.0
H4915 H 0.08401 0.39216 0.11402 0.0
H4916 H 0.06193 0.38877 0.11166 0.0
H4917 H 0.03598 0.38325 0.17184 0.0
H4918 H 0.04862 0.41014 0.18038 0.0
H4919 H 0.08677 0.40407 0.14268 0.0
C4920 C 0.05633 0.34779 0.11996 0.0
C4921 C 0.0413 0.33889 0.12137 0.0
C4922 C 0.02985 0.34287 0.13412 0.0
C4923 C 0.03346 0.3556 0.14558 0.0
C4924 C 0.04846 0.36427 0.14387 0.0
C4925 C 0.05954 0.3607 0.13115 0.0
C4926 C 0.07376 0.37303 0.13068 0.0
C4927 C 0.09051 0.36436 0.13405 0.0
C4928 C 0.07408 0.38251 0.11398 0.0
C4929 C 0.06888 0.38426 0.145 0.0
C4930 C 0.0545 0.37878 0.15277 0.0
C4931 C 0.04731 0.38759 0.16595 0.0
C4932 C 0.05462 0.40273 0.17083 0.0
C4933 C 0.0687 0.40895 0.16228 0.0
C4934 C 0.07613 0.39938 0.14955 0.0
H4935 H 0.32465 0.80003 0.38798 0.0
H4936 H 0.33845 0.8294 0.43121 0.0
H4937 H 0.36828 0.82431 0.425 0.0
H4938 H 0.35859 0.76915 0.39134 0.0
H4939 H 0.36081 0.76782 0.36903 0.0
H4940 H 0.34077 0.7724 0.37806 0.0
H4941 H 0.33891 0.79926 0.36019 0.0
H4942 H 0.35897 0.79487 0.35123 0.0
H4943 H 0.35536 0.81451 0.3615 0.0
H4944 H 0.39656 0.81884 0.41171 0.0
H4945 H 0.42066 0.81185 0.39375 0.0
H4946 H 0.38776 0.78525 0.36012 0.0
C4947 C 0.33393 0.80516 0.39634 0.0
C4948 C 0.32928 0.81512 0.41007 0.0
C4949 C 0.34177 0.82161 0.42071 0.0
C4950 C 0.35872 0.81883 0.41724 0.0
C4951 C 0.36286 0.80931 0.40328 0.0
C4952 C 0.35077 0.80237 0.39317 0.0
C4953 C 0.35832 0.79328 0.37851 0.0
C4954 C 0.35439 0.77455 0.37929 0.0
C4955 C 0.35255 0.80095 0.36188 0.0
C4956 C 0.37658 0.79658 0.38162 0.0
C4957 C 0.37901 0.80581 0.39596 0.0
C4958 C 0.3948 0.81135 0.40063 0.0
C4959 C 0.4084 0.80738 0.39034 0.0
C4960 C 0.40607 0.79793 0.37562 0.0
C4961 C 0.38997 0.79232 0.37139 0.0
H4962 H 0.95812 0.1356 0.60307 0.0
H4963 H 0.94202 0.17271 0.6389 0.0
H4964 H 0.93218 0.15028 0.65767 0.0
H4965 H 0.92258 0.10964 0.60832 0.0
H4966 H 0.93397 0.09053 0.60527 0.0
H4967 H 0.94102 0.10945 0.5955 0.0
H4968 H 0.97 0.106 0.60944 0.0
H4969 H 0.96307 0.08704 0.61922 0.0
H4970 H 0.97132 0.10375 0.63175 0.0
H4971 H 0.92392 0.12339 0.67237 0.0
H4972 H 0.91643 0.09463 0.68083 0.0
H4973 H 0.93626 0.07603 0.63405 0.0
C4974 C 0.9527 0.13903 0.61493 0.0
C4975 C 0.95092 0.15584 0.61962 0.0
C4976 C 0.94353 0.15984 0.63514 0.0
C4977 C 0.93793 0.14721 0.64587 0.0
C4978 C 0.93962 0.13071 0.64073 0.0
C4979 C 0.94669 0.12664 0.62554 0.0
C4980 C 0.94603 0.10812 0.62234 0.0
C4981 C 0.93526 0.10421 0.60695 0.0
C4982 C 0.96365 0.1008 0.62059 0.0
C4983 C 0.93769 0.10235 0.63819 0.0
C4984 C 0.93418 0.11548 0.64874 0.0
C4985 C 0.92658 0.11301 0.66418 0.0
C4986 C 0.9224 0.09666 0.6689 0.0
C4987 C 0.92567 0.08312 0.65807 0.0
C4988 C 0.93344 0.08611 0.64257 0.0
H4989 H 0.59752 0.6813 0.87113 0.0
H4990 H 0.6003 0.73466 0.87865 0.0
H4991 H 0.62526 0.73094 0.89636 0.0
H4992 H 0.61515 0.66808 0.91272 0.0
H4993 H 0.62679 0.65132 0.90334 0.0
H4994 H 0.60716 0.6577 0.89447 0.0
H4995 H 0.62154 0.66195 0.86629 0.0
H4996 H 0.64139 0.65613 0.87472 0.0
H4997 H 0.639 0.676 0.86449 0.0
H4998 H 0.65103 0.72189 0.91087 0.0
H4999 H 0.67792 0.70862 0.91811 0.0
H5000 H 0.66001 0.66151 0.89887 0.0
C5001 C 0.60312 0.69207 0.87702 0.0
C5002 C 0.59694 0.70822 0.87398 0.0
C5003 C 0.60487 0.7222 0.88113 0.0
C5004 C 0.61892 0.72018 0.89126 0.0
C5005 C 0.62497 0.70411 0.89387 0.0
C5006 C 0.61744 0.69029 0.88682 0.0
C5007 C 0.62785 0.67475 0.88945 0.0
C5008 C 0.61869 0.66222 0.90067 0.0
C5009 C 0.63277 0.66677 0.87273 0.0
C5010 C 0.64275 0.68215 0.89832 0.0
C5011 C 0.64052 0.69898 0.90133 0.0
C5012 C 0.65284 0.70869 0.90879 0.0
C5013 C 0.668 0.7011 0.91288 0.0
C5014 C 0.67073 0.68412 0.90917 0.0
C5015 C 0.65794 0.67446 0.90204 0.0
H5016 H 0.36247 0.55351 0.57364 0.0
H5017 H 0.31695 0.57486 0.59354 0.0
H5018 H 0.32561 0.56642 0.62198 0.0
H5019 H 0.36503 0.51797 0.60263 0.0
H5020 H 0.38744 0.51923 0.60369 0.0
H5021 H 0.37672 0.52544 0.58496 0.0
H5022 H 0.39102 0.55438 0.58642 0.0
H5023 H 0.40167 0.54832 0.60518 0.0
H5024 H 0.38889 0.56678 0.60503 0.0
H5025 H 0.34118 0.5589 0.64837 0.0
H5026 H 0.36133 0.55123 0.67039 0.0
H5027 H 0.39589 0.53373 0.63272 0.0
C5028 C 0.35416 0.5562 0.58393 0.0
C5029 C 0.33905 0.56489 0.58143 0.0
C5030 C 0.32852 0.56812 0.5952 0.0
C5031 C 0.33336 0.56341 0.61136 0.0
C5032 C 0.34859 0.55524 0.61341 0.0
C5033 C 0.3587 0.55146 0.6 0.0
C5034 C 0.3748 0.54334 0.60547 0.0
C5035 C 0.37606 0.52543 0.59879 0.0
C5036 C 0.38998 0.55384 0.60021 0.0
C5037 C 0.37245 0.54353 0.62413 0.0
C5038 C 0.35726 0.55043 0.6285 0.0
C5039 C 0.35294 0.55318 0.64508 0.0
C5040 C 0.36448 0.54885 0.65748 0.0
C5041 C 0.38006 0.54176 0.6532 0.0
C5042 C 0.38394 0.53884 0.63634 0.0
H5043 H 0.85805 0.45028 0.92158 0.0
H5044 H 0.81707 0.41972 0.90412 0.0
H5045 H 0.82476 0.4263 0.87493 0.0
H5046 H 0.85638 0.48217 0.88742 0.0
H5047 H 0.87877 0.48388 0.88718 0.0
H5048 H 0.86808 0.47916 0.90636 0.0
H5049 H 0.88629 0.4527 0.90981 0.0
H5050 H 0.89683 0.45714 0.89057 0.0
H5051 H 0.88662 0.43734 0.89342 0.0
H5052 H 0.8401 0.43224 0.84803 0.0
H5053 H 0.86028 0.43882 0.82568 0.0
H5054 H 0.89071 0.46591 0.86119 0.0
C5055 C 0.85038 0.44537 0.91162 0.0
C5056 C 0.83697 0.43452 0.91502 0.0
C5057 C 0.82727 0.42822 0.90172 0.0
C5058 C 0.83159 0.43185 0.88514 0.0
C5059 C 0.84541 0.44202 0.88221 0.0
C5060 C 0.85444 0.44894 0.89513 0.0
C5061 C 0.86957 0.45826 0.88888 0.0
C5062 C 0.8681 0.47698 0.89268 0.0
C5063 C 0.88577 0.45091 0.8961 0.0
C5064 C 0.86811 0.45491 0.87043 0.0
C5065 C 0.85404 0.44565 0.86677 0.0
C5066 C 0.85093 0.43981 0.85071 0.0
C5067 C 0.8625 0.44352 0.83813 0.0
C5068 C 0.87698 0.45295 0.84173 0.0
C5069 C 0.87963 0.45889 0.85803 0.0
H5070 H 0.28832 0.64558 0.11449 0.0
H5071 H 0.30487 0.60726 0.08019 0.0
H5072 H 0.31227 0.58916 0.10406 0.0
H5073 H 0.32194 0.64065 0.14184 0.0
H5074 H 0.31012 0.64515 0.1604 0.0
H5075 H 0.30384 0.6539 0.14074 0.0
H5076 H 0.27444 0.64089 0.14421 0.0
H5077 H 0.28063 0.63212 0.16393 0.0
H5078 H 0.27248 0.6188 0.14779 0.0
H5079 H 0.31946 0.57602 0.13189 0.0
H5080 H 0.32742 0.56976 0.16105 0.0
H5081 H 0.30787 0.61779 0.17645 0.0
C5082 C 0.29316 0.63326 0.11197 0.0
C5083 C 0.29586 0.62772 0.09553 0.0
C5084 C 0.3026 0.61165 0.09275 0.0
C5085 C 0.30681 0.6013 0.10621 0.0
C5086 C 0.30438 0.60732 0.12232 0.0
C5087 C 0.29781 0.62299 0.12522 0.0
C5088 C 0.2981 0.62731 0.14354 0.0
C5089 C 0.30916 0.64265 0.14682 0.0
C5090 C 0.28035 0.62993 0.15026 0.0
C5091 C 0.30585 0.61163 0.15053 0.0
C5092 C 0.30921 0.60014 0.13817 0.0
C5093 C 0.3168 0.58489 0.14169 0.0
C5094 C 0.32124 0.58143 0.15827 0.0
C5095 C 0.31828 0.59328 0.17101 0.0
C5096 C 0.31033 0.60846 0.16701 0.0
H5097 H 0.16034 0.08441 0.40169 0.0
H5098 H 0.16344 0.0382 0.42929 0.0
H5099 H 0.15165 0.02295 0.40525 0.0
H5100 H 0.12249 0.07773 0.38486 0.0
H5101 H 0.12629 0.08676 0.36465 0.0
H5102 H 0.13819 0.0936 0.38234 0.0
H5103 H 0.16573 0.08633 0.36716 0.0
H5104 H 0.15393 0.07978 0.3492 0.0
H5105 H 0.16864 0.06572 0.35871 0.0
H5106 H 0.13404 0.01414 0.3813 0.0
H5107 H 0.11524 0.01151 0.35697 0.0
H5108 H 0.12497 0.06296 0.34386 0.0
C5109 C 0.15936 0.07096 0.40222 0.0
C5110 C 0.1632 0.06229 0.41698 0.0
C5111 C 0.16099 0.04485 0.41779 0.0
C5112 C 0.15422 0.03615 0.40426 0.0
C5113 C 0.14988 0.04511 0.39004 0.0
C5114 C 0.15271 0.06208 0.38875 0.0
C5115 C 0.14543 0.06901 0.37277 0.0
C5116 C 0.13233 0.08257 0.37639 0.0
C5117 C 0.15926 0.07559 0.36128 0.0
C5118 C 0.13745 0.05346 0.36566 0.0
C5119 C 0.14014 0.03982 0.37582 0.0
C5120 C 0.1323 0.02457 0.37293 0.0
C5121 C 0.12157 0.02321 0.35921 0.0
C5122 C 0.11901 0.03693 0.34849 0.0
C5123 C 0.12717 0.05217 0.35166 0.0
H5124 H 0.21343 0.35397 0.61518 0.0
H5125 H 0.19502 0.3906 0.57997 0.0
H5126 H 0.18541 0.40822 0.60337 0.0
H5127 H 0.17856 0.35679 0.64187 0.0
H5128 H 0.1903 0.35345 0.66072 0.0
H5129 H 0.19752 0.34478 0.64133 0.0
H5130 H 0.22592 0.3598 0.64497 0.0
H5131 H 0.21885 0.36844 0.66445 0.0
H5132 H 0.22633 0.38203 0.6482 0.0
H5133 H 0.17704 0.42134 0.6308 0.0
H5134 H 0.16933 0.42822 0.65986 0.0
H5135 H 0.19132 0.38167 0.67651 0.0
C5136 C 0.20762 0.3658 0.61237 0.0
C5137 C 0.20506 0.371 0.5958 0.0
C5138 C 0.19715 0.38646 0.59264 0.0
C5139 C 0.19167 0.39653 0.60582 0.0
C5140 C 0.194 0.39082 0.62205 0.0
C5141 C 0.20168 0.37575 0.62534 0.0
C5142 C 0.2014 0.37174 0.64374 0.0
C5143 C 0.19135 0.35575 0.64711 0.0
C5144 C 0.21918 0.37043 0.65075 0.0
C5145 C 0.19249 0.38697 0.65032 0.0
C5146 C 0.18845 0.39792 0.63767 0.0
C5147 C 0.18015 0.41286 0.64081 0.0
C5148 C 0.17585 0.41667 0.65734 0.0
C5149 C 0.17967 0.40546 0.67042 0.0
C5150 C 0.18812 0.39046 0.66677 0.0
H5151 H 0.63591 0.43137 0.57225 0.0
H5152 H 0.68529 0.4173 0.58931 0.0
H5153 H 0.67802 0.42692 0.61775 0.0
H5154 H 0.63245 0.46869 0.59611 0.0
H5155 H 0.61053 0.466 0.60023 0.0
H5156 H 0.61952 0.45759 0.58147 0.0
H5157 H 0.60844 0.42821 0.58914 0.0
H5158 H 0.59932 0.43654 0.60787 0.0
H5159 H 0.61367 0.41932 0.60909 0.0
H5160 H 0.66452 0.43689 0.64467 0.0
H5161 H 0.64647 0.44743 0.66739 0.0
H5162 H 0.60721 0.45715 0.63158 0.0
C5163 C 0.64524 0.43022 0.58194 0.0
C5164 C 0.66117 0.4235 0.57857 0.0
C5165 C 0.67301 0.4224 0.59161 0.0
C5166 C 0.66899 0.42782 0.60778 0.0
C5167 C 0.65316 0.43447 0.6106 0.0
C5168 C 0.64153 0.43575 0.59799 0.0
C5169 C 0.62547 0.4435 0.60409 0.0
C5170 C 0.62179 0.45992 0.59493 0.0
C5171 C 0.61087 0.43116 0.60245 0.0
C5172 C 0.62987 0.44652 0.62214 0.0
C5173 C 0.6458 0.441 0.62575 0.0
C5174 C 0.65213 0.44145 0.64192 0.0
C5175 C 0.64182 0.44747 0.65472 0.0
C5176 C 0.62552 0.45325 0.6512 0.0
C5177 C 0.61966 0.45305 0.63464 0.0
H5178 H 0.3149 0.8721 0.40625 0.0
H5179 H 0.26414 0.86158 0.39102 0.0
H5180 H 0.26774 0.87973 0.3664 0.0
H5181 H 0.31739 0.91548 0.3909 0.0
H5182 H 0.33847 0.913 0.38356 0.0
H5183 H 0.33128 0.90118 0.40126 0.0
H5184 H 0.33973 0.87369 0.38654 0.0
H5185 H 0.34708 0.88543 0.36892 0.0
H5186 H 0.33172 0.8693 0.36601 0.0
H5187 H 0.27718 0.89732 0.34281 0.0
H5188 H 0.29292 0.91026 0.31972 0.0
H5189 H 0.33814 0.9081 0.34908 0.0
C5190 C 0.30447 0.87393 0.39787 0.0
C5191 C 0.28916 0.86572 0.40056 0.0
C5192 C 0.27593 0.86789 0.38914 0.0
C5193 C 0.27782 0.87826 0.37524 0.0
C5194 C 0.29309 0.88618 0.37287 0.0
C5195 C 0.30629 0.88395 0.38371 0.0
C5196 C 0.32196 0.89226 0.37722 0.0
C5197 C 0.3276 0.90632 0.38894 0.0
C5198 C 0.33594 0.8794 0.37451 0.0
C5199 C 0.3156 0.89918 0.36084 0.0
C5200 C 0.2988 0.89588 0.35882 0.0
C5201 C 0.29026 0.9002 0.34434 0.0
C5202 C 0.29924 0.90761 0.33136 0.0
C5203 C 0.31653 0.91047 0.33294 0.0
C5204 C 0.32479 0.90648 0.34791 0.0
H5205 H 0.66632 0.60016 0.83786 0.0
H5206 H 0.7147 0.5922 0.81531 0.0
H5207 H 0.7284 0.60241 0.841 0.0
H5208 H 0.67548 0.63734 0.85705 0.0
H5209 H 0.66396 0.63382 0.87601 0.0
H5210 H 0.65771 0.62362 0.85709 0.0
H5211 H 0.65987 0.5948 0.87121 0.0
H5212 H 0.66574 0.60484 0.89043 0.0
H5213 H 0.67891 0.58893 0.8816 0.0
H5214 H 0.73646 0.61782 0.86666 0.0
H5215 H 0.73866 0.63455 0.89247 0.0
H5216 H 0.68526 0.63088 0.89953 0.0
C5217 C 0.67979 0.59998 0.83867 0.0
C5218 C 0.68958 0.59507 0.82493 0.0
C5219 C 0.70713 0.59556 0.82599 0.0
C5220 C 0.71497 0.6014 0.84045 0.0
C5221 C 0.70501 0.60657 0.85371 0.0
C5222 C 0.6878 0.60564 0.85311 0.0
C5223 C 0.68003 0.61299 0.86868 0.0
C5224 C 0.66864 0.62783 0.86444 0.0
C5225 C 0.67058 0.59959 0.87857 0.0
C5226 C 0.69551 0.61865 0.87787 0.0
C5227 C 0.70978 0.61489 0.86896 0.0
C5228 C 0.72545 0.62042 0.874 0.0
C5229 C 0.72657 0.62997 0.88857 0.0
C5230 C 0.71218 0.63362 0.89802 0.0
C5231 C 0.69649 0.62777 0.89271 0.0
H5232 H 0.66028 0.38028 0.56511 0.0
H5233 H 0.66192 0.36384 0.51376 0.0
H5234 H 0.63874 0.34409 0.51934 0.0
H5235 H 0.64782 0.34091 0.58482 0.0
H5236 H 0.63377 0.35108 0.59909 0.0
H5237 H 0.65204 0.36187 0.59172 0.0
H5238 H 0.63365 0.38619 0.58103 0.0
H5239 H 0.6154 0.3756 0.58856 0.0
H5240 H 0.61667 0.38178 0.567 0.0
H5241 H 0.61467 0.32699 0.53049 0.0
H5242 H 0.58872 0.31779 0.54453 0.0
H5243 H 0.60141 0.34775 0.58758 0.0
C5244 C 0.6559 0.37226 0.55517 0.0
C5245 C 0.66291 0.37319 0.53912 0.0
C5246 C 0.65668 0.36304 0.52618 0.0
C5247 C 0.64366 0.35176 0.52928 0.0
C5248 C 0.63692 0.35111 0.54531 0.0
C5249 C 0.64264 0.36136 0.55794 0.0
C5250 C 0.63193 0.35997 0.57337 0.0
C5251 C 0.642 0.35304 0.58812 0.0
C5252 C 0.62394 0.37688 0.57773 0.0
C5253 C 0.61911 0.34752 0.56741 0.0
C5254 C 0.62246 0.34215 0.55137 0.0
C5255 C 0.61199 0.331 0.54309 0.0
C5256 C 0.59739 0.32572 0.55117 0.0
C5257 C 0.59333 0.33194 0.56713 0.0
C5258 C 0.60448 0.34264 0.57546 0.0
H5259 H 0.38961 0.34224 0.83684 0.0
H5260 H 0.43087 0.3408 0.80209 0.0
H5261 H 0.42331 0.36902 0.79201 0.0
H5262 H 0.36131 0.36089 0.81173 0.0
H5263 H 0.35174 0.37415 0.82705 0.0
H5264 H 0.36144 0.35497 0.8334 0.0
H5265 H 0.38044 0.37053 0.854 0.0
H5266 H 0.37112 0.3901 0.84831 0.0
H5267 H 0.39334 0.38742 0.84678 0.0
H5268 H 0.40813 0.39535 0.78284 0.0
H5269 H 0.38868 0.41896 0.77782 0.0
H5270 H 0.3598 0.4042 0.82085 0.0
C5271 C 0.39733 0.3481 0.82748 0.0
C5272 C 0.41081 0.3395 0.82026 0.0
C5273 C 0.42057 0.34735 0.80785 0.0
C5274 C 0.41635 0.36331 0.80205 0.0
C5275 C 0.40265 0.37132 0.80916 0.0
C5276 C 0.39359 0.36413 0.82194 0.0
C5277 C 0.37907 0.37491 0.8271 0.0
C5278 C 0.36241 0.36568 0.82468 0.0
C5279 C 0.38112 0.3811 0.84512 0.0
C5280 C 0.38095 0.38902 0.81483 0.0
C5281 C 0.39455 0.38677 0.80449 0.0
C5282 C 0.39771 0.39746 0.79113 0.0
C5283 C 0.38664 0.41075 0.78834 0.0
C5284 C 0.37285 0.4132 0.79899 0.0
C5285 C 0.37021 0.40245 0.81253 0.0
H5286 H 0.4095 0.13952 0.08945 0.0
H5287 H 0.40954 0.1832 0.05767 0.0
H5288 H 0.38179 0.17517 0.04668 0.0
H5289 H 0.39273 0.11214 0.06178 0.0
H5290 H 0.37972 0.10089 0.07619 0.0
H5291 H 0.39834 0.11099 0.08351 0.0
H5292 H 0.38163 0.12769 0.10514 0.0
H5293 H 0.36258 0.11788 0.09844 0.0
H5294 H 0.36418 0.14024 0.09858 0.0
H5295 H 0.35621 0.15975 0.03617 0.0
H5296 H 0.33341 0.13987 0.02945 0.0
H5297 H 0.34957 0.10784 0.06964 0.0
C5298 C 0.40346 0.1476 0.08047 0.0
C5299 C 0.41152 0.16193 0.07434 0.0
C5300 C 0.40338 0.17224 0.06259 0.0
C5301 C 0.3877 0.16774 0.05625 0.0
C5302 C 0.3803 0.15316 0.06215 0.0
C5303 C 0.38777 0.14347 0.0743 0.0
C5304 C 0.37766 0.12807 0.07813 0.0
C5305 C 0.38772 0.11209 0.0747 0.0
C5306 C 0.37113 0.1285 0.09614 0.0
C5307 C 0.36368 0.13019 0.06573 0.0
C5308 C 0.36536 0.14471 0.0566 0.0
C5309 C 0.35459 0.14853 0.04348 0.0
C5310 C 0.3418 0.13721 0.03969 0.0
C5311 C 0.33998 0.12242 0.04904 0.0
C5312 C 0.35085 0.11903 0.06231 0.0
H5313 H 0.61012 0.16615 0.30832 0.0
H5314 H 0.56808 0.14769 0.33681 0.0
H5315 H 0.57647 0.11867 0.33003 0.0
H5316 H 0.60946 0.13383 0.27561 0.0
H5317 H 0.63188 0.13344 0.27434 0.0
H5318 H 0.62128 0.15244 0.2799 0.0
H5319 H 0.63885 0.15426 0.30697 0.0
H5320 H 0.64939 0.13523 0.30159 0.0
H5321 H 0.63879 0.13697 0.32132 0.0
H5322 H 0.59194 0.09184 0.32306 0.0
H5323 H 0.61186 0.06966 0.31521 0.0
H5324 H 0.64301 0.10635 0.29063 0.0
C5325 C 0.60248 0.15603 0.31293 0.0
C5326 C 0.58848 0.1591 0.32314 0.0
C5327 C 0.57878 0.14555 0.32887 0.0
C5328 C 0.58349 0.12908 0.32511 0.0
C5329 C 0.59771 0.12651 0.31539 0.0
C5330 C 0.60689 0.13967 0.30919 0.0
C5331 C 0.62215 0.13381 0.29982 0.0
C5332 C 0.62112 0.13866 0.28132 0.0
C5333 C 0.63824 0.14046 0.30791 0.0
C5334 C 0.62049 0.11522 0.30212 0.0
C5335 C 0.6063 0.1112 0.31107 0.0
C5336 C 0.60289 0.09484 0.31578 0.0
C5337 C 0.6143 0.08236 0.31132 0.0
C5338 C 0.6289 0.0863 0.3022 0.0
C5339 C 0.63184 0.10291 0.29737 0.0
H5340 H 0.5872 0.65874 0.41843 0.0
H5341 H 0.55222 0.64006 0.45513 0.0
H5342 H 0.57537 0.62768 0.4711 0.0
H5343 H 0.6121 0.62262 0.41783 0.0
H5344 H 0.63168 0.63328 0.41518 0.0
H5345 H 0.61273 0.64265 0.40769 0.0
H5346 H 0.6188 0.66908 0.42526 0.0
H5347 H 0.63779 0.65976 0.4328 0.0
H5348 H 0.62234 0.66711 0.44735 0.0
H5349 H 0.60132 0.61546 0.48178 0.0
H5350 H 0.629 0.60305 0.48634 0.0
H5351 H 0.64778 0.62872 0.44257 0.0
C5352 C 0.58458 0.65236 0.43003 0.0
C5353 C 0.56807 0.65042 0.43574 0.0
C5354 C 0.56487 0.64164 0.45068 0.0
C5355 C 0.57791 0.63467 0.45985 0.0
C5356 C 0.59406 0.63648 0.45381 0.0
C5357 C 0.59751 0.64503 0.43925 0.0
C5358 C 0.61584 0.64371 0.43483 0.0
C5359 C 0.61822 0.63505 0.41788 0.0
C5360 C 0.62419 0.66095 0.43508 0.0
C5361 C 0.62202 0.63289 0.44905 0.0
C5362 C 0.60923 0.62905 0.45992 0.0
C5363 C 0.61151 0.61852 0.4735 0.0
C5364 C 0.62726 0.6115 0.47596 0.0
C5365 C 0.64051 0.61501 0.46487 0.0
C5366 C 0.63792 0.62604 0.45139 0.0
H5367 H 0.12414 0.40826 0.68615 0.0
H5368 H 0.13311 0.39687 0.73818 0.0
H5369 H 0.11509 0.372 0.73588 0.0
H5370 H 0.08072 0.39198 0.68316 0.0
H5371 H 0.08431 0.38321 0.6628 0.0
H5372 H 0.09536 0.4017 0.66917 0.0
H5373 H 0.12354 0.38711 0.66293 0.0
H5374 H 0.11257 0.36868 0.65647 0.0
H5375 H 0.12808 0.36738 0.67265 0.0
H5376 H 0.09911 0.3471 0.72739 0.0
H5377 H 0.08812 0.32237 0.71268 0.0
H5378 H 0.09018 0.34906 0.66585 0.0
C5379 C 0.12185 0.40077 0.69715 0.0
C5380 C 0.12966 0.40454 0.71244 0.0
C5381 C 0.12703 0.39419 0.72643 0.0
C5382 C 0.11675 0.38014 0.72526 0.0
C5383 C 0.10937 0.37658 0.70995 0.0
C5384 C 0.11191 0.3865 0.69608 0.0
C5385 C 0.10444 0.37866 0.6806 0.0
C5386 C 0.09037 0.38954 0.67352 0.0
C5387 C 0.11796 0.37525 0.66739 0.0
C5388 C 0.09767 0.36262 0.68786 0.0
C5389 C 0.10036 0.36186 0.70488 0.0
C5390 C 0.09656 0.34769 0.71416 0.0
C5391 C 0.09029 0.33377 0.70576 0.0
C5392 C 0.0879 0.33418 0.68833 0.0
C5393 C 0.09131 0.34882 0.6793 0.0
H5394 H 0.34134 0.87351 0.9343 0.0
H5395 H 0.35379 0.88467 0.98566 0.0
H5396 H 0.37869 0.86667 0.98356 0.0
H5397 H 0.35794 0.82998 0.93298 0.0
H5398 H 0.3661 0.83269 0.91223 0.0
H5399 H 0.34765 0.84383 0.9186 0.0
H5400 H 0.36169 0.8718 0.91061 0.0
H5401 H 0.3801 0.86078 0.90419 0.0
H5402 H 0.38159 0.87707 0.91958 0.0
H5403 H 0.40345 0.85021 0.97522 0.0
H5404 H 0.42783 0.83846 0.96048 0.0
H5405 H 0.40031 0.83908 0.91408 0.0
C5406 C 0.34907 0.87171 0.94522 0.0
C5407 C 0.34559 0.88016 0.96024 0.0
C5408 C 0.35624 0.87812 0.97411 0.0
C5409 C 0.37032 0.86786 0.97306 0.0
C5410 C 0.3736 0.85987 0.95799 0.0
C5411 C 0.36336 0.86178 0.94426 0.0
C5412 C 0.37088 0.8537 0.92893 0.0
C5413 C 0.35999 0.83918 0.92283 0.0
C5414 C 0.37374 0.86661 0.91502 0.0
C5415 C 0.38719 0.84744 0.93606 0.0
C5416 C 0.38829 0.85076 0.95295 0.0
C5417 C 0.40262 0.84724 0.96209 0.0
C5418 C 0.41635 0.84054 0.95367 0.0
C5419 C 0.41562 0.83758 0.93635 0.0
C5420 C 0.40084 0.8408 0.92746 0.0
H5421 H 0.91535 0.147 0.16768 0.0
H5422 H 0.92213 0.1701 0.21589 0.0
H5423 H 0.91017 0.14522 0.22959 0.0
H5424 H 0.87718 0.1318 0.17494 0.0
H5425 H 0.8792 0.11235 0.16388 0.0
H5426 H 0.89184 0.12987 0.15802 0.0
H5427 H 0.9187 0.11249 0.16227 0.0
H5428 H 0.90614 0.09471 0.1678 0.0
H5429 H 0.92213 0.10195 0.18181 0.0
H5430 H 0.89209 0.12126 0.23723 0.0
H5431 H 0.87185 0.09806 0.2387 0.0
H5432 H 0.87754 0.0897 0.18564 0.0
C5433 C 0.91518 0.1463 0.18116 0.0
C5434 C 0.92014 0.16005 0.19087 0.0
C5435 C 0.9189 0.15935 0.2084 0.0
C5436 C 0.91203 0.14533 0.21623 0.0
C5437 C 0.90655 0.13218 0.20629 0.0
C5438 C 0.90837 0.13237 0.18913 0.0
C5439 C 0.89972 0.11759 0.18118 0.0
C5440 C 0.88619 0.12325 0.16878 0.0
C5441 C 0.91243 0.10599 0.17277 0.0
C5442 C 0.89213 0.10949 0.19643 0.0
C5443 C 0.89628 0.11806 0.2108 0.0
C5444 C 0.88917 0.11412 0.22616 0.0
C5445 C 0.87762 0.10105 0.22687 0.0
C5446 C 0.87342 0.092 0.21234 0.0
C5447 C 0.88092 0.09616 0.197 0.0
H5448 H 0.53408 0.13384 0.89726 0.0
H5449 H 0.54777 0.17001 0.85953 0.0
H5450 H 0.55605 0.14718 0.84058 0.0
H5451 H 0.56857 0.10808 0.89073 0.0
H5452 H 0.55769 0.08882 0.89462 0.0
H5453 H 0.55061 0.1078 0.90421 0.0
H5454 H 0.52126 0.10346 0.89139 0.0
H5455 H 0.52826 0.08442 0.88176 0.0
H5456 H 0.51918 0.10067 0.86919 0.0
H5457 H 0.56452 0.12048 0.82646 0.0
H5458 H 0.57421 0.09215 0.81906 0.0
H5459 H 0.55627 0.07386 0.86672 0.0
C5460 C 0.53845 0.13691 0.88487 0.0
C5461 C 0.54013 0.15361 0.87974 0.0
C5462 C 0.54633 0.15722 0.86362 0.0
C5463 C 0.55099 0.14437 0.85276 0.0
C5464 C 0.5495 0.12799 0.8583 0.0
C5465 C 0.54346 0.12424 0.87401 0.0
C5466 C 0.54469 0.10579 0.87759 0.0
C5467 C 0.55607 0.10243 0.89267 0.0
C5468 C 0.52731 0.09814 0.88012 0.0
C5469 C 0.55255 0.0998 0.86154 0.0
C5470 C 0.55499 0.11272 0.85044 0.0
C5471 C 0.56256 0.11022 0.83499 0.0
C5472 C 0.568 0.09411 0.83088 0.0
C5473 C 0.56603 0.08082 0.84231 0.0
C5474 C 0.55799 0.08375 0.85771 0.0
H5475 H 0.59658 0.32155 0.13994 0.0
H5476 H 0.59329 0.2696 0.12574 0.0
H5477 H 0.61498 0.27405 0.10419 0.0
H5478 H 0.60652 0.3393 0.09859 0.0
H5479 H 0.62142 0.35382 0.10706 0.0
H5480 H 0.60381 0.34733 0.1194 0.0
H5481 H 0.62363 0.33775 0.14279 0.0
H5482 H 0.6413 0.34425 0.13078 0.0
H5483 H 0.64002 0.32309 0.13827 0.0
H5484 H 0.63796 0.2838 0.08541 0.0
H5485 H 0.66385 0.29659 0.07448 0.0
H5486 H 0.65372 0.34135 0.10285 0.0
C5487 C 0.60029 0.31125 0.13204 0.0
C5488 C 0.59328 0.29532 0.13414 0.0
C5489 C 0.5986 0.2819 0.12409 0.0
C5490 C 0.61073 0.28437 0.11176 0.0
C5491 C 0.6175 0.30026 0.10993 0.0
C5492 C 0.6127 0.3134 0.12002 0.0
C5493 C 0.6235 0.32858 0.11715 0.0
C5494 C 0.61319 0.34312 0.11013 0.0
C5495 C 0.63268 0.33369 0.1332 0.0
C5496 C 0.6354 0.32179 0.10424 0.0
C5497 C 0.6314 0.30563 0.0998 0.0
C5498 C 0.64113 0.2965 0.08865 0.0
C5499 C 0.65571 0.30385 0.08243 0.0
C5500 C 0.66049 0.31992 0.08777 0.0
C5501 C 0.65005 0.32913 0.09843 0.0
H5502 H 0.45088 0.36474 0.40286 0.0
H5503 H 0.4401 0.32906 0.36372 0.0
H5504 H 0.43229 0.35212 0.34481 0.0
H5505 H 0.41597 0.39145 0.39352 0.0
H5506 H 0.42698 0.4103 0.39874 0.0
H5507 H 0.43239 0.391 0.40884 0.0
H5508 H 0.46309 0.39458 0.3993 0.0
H5509 H 0.45774 0.41386 0.38915 0.0
H5510 H 0.4676 0.3974 0.37747 0.0
H5511 H 0.42599 0.37922 0.33014 0.0
H5512 H 0.42001 0.40818 0.3214 0.0
H5513 H 0.43357 0.4256 0.37082 0.0
C5514 C 0.44701 0.36181 0.39027 0.0
C5515 C 0.44623 0.34521 0.38463 0.0
C5516 C 0.4408 0.34178 0.3682 0.0
C5517 C 0.43637 0.35476 0.35739 0.0
C5518 C 0.4372 0.37104 0.36334 0.0
C5519 C 0.44219 0.37458 0.37946 0.0
C5520 C 0.4412 0.39303 0.38305 0.0
C5521 C 0.42837 0.39665 0.39685 0.0
C5522 C 0.45844 0.40013 0.3875 0.0
C5523 C 0.43522 0.39934 0.36634 0.0
C5524 C 0.43301 0.38651 0.35511 0.0
C5525 C 0.42763 0.38939 0.33884 0.0
C5526 C 0.42432 0.40586 0.33397 0.0
C5527 C 0.42631 0.41916 0.3454 0.0
C5528 C 0.43187 0.41575 0.36176 0.0
H5529 H 0.34108 0.16172 0.61004 0.0
H5530 H 0.33627 0.19733 0.56973 0.0
H5531 H 0.36337 0.20982 0.57755 0.0
H5532 H 0.35902 0.18759 0.63961 0.0
H5533 H 0.37345 0.17245 0.64778 0.0
H5534 H 0.35425 0.16566 0.63843 0.0
H5535 H 0.37059 0.14698 0.61785 0.0
H5536 H 0.38986 0.15356 0.62731 0.0
H5537 H 0.38681 0.15597 0.60518 0.0
H5538 H 0.38876 0.22084 0.59249 0.0
H5539 H 0.41284 0.22697 0.61094 0.0
H5540 H 0.40289 0.18185 0.6388 0.0
C5541 C 0.34595 0.1719 0.60266 0.0
C5542 C 0.33671 0.17859 0.5893 0.0
C5543 C 0.34331 0.19198 0.57993 0.0
C5544 C 0.35862 0.19917 0.58432 0.0
C5545 C 0.3673 0.19248 0.59779 0.0
C5546 C 0.36142 0.17885 0.60655 0.0
C5547 C 0.37314 0.17402 0.62051 0.0
C5548 C 0.36443 0.175 0.63758 0.0
C5549 C 0.38054 0.1566 0.61752 0.0
C5550 C 0.38621 0.18746 0.61862 0.0
C5551 C 0.38256 0.19809 0.60556 0.0
C5552 C 0.392 0.21237 0.60246 0.0
C5553 C 0.40555 0.2158 0.61297 0.0
C5554 C 0.40961 0.2048 0.62609 0.0
C5555 C 0.40001 0.19037 0.62877 0.0
H5556 H 0.536 0.86494 0.10434 0.0
H5557 H 0.55308 0.82852 0.14041 0.0
H5558 H 0.56133 0.85126 0.15949 0.0
H5559 H 0.56959 0.8916 0.10941 0.0
H5560 H 0.55789 0.91056 0.10657 0.0
H5561 H 0.55084 0.89155 0.09704 0.0
H5562 H 0.52219 0.89463 0.11168 0.0
H5563 H 0.52912 0.91375 0.1212 0.0
H5564 H 0.52137 0.89701 0.13401 0.0
H5565 H 0.56987 0.87818 0.17363 0.0
H5566 H 0.57903 0.9068 0.18085 0.0
H5567 H 0.55754 0.92496 0.13465 0.0
C5568 C 0.54107 0.86174 0.11642 0.0
C5569 C 0.54377 0.84501 0.12099 0.0
C5570 C 0.55083 0.84131 0.13673 0.0
C5571 C 0.55551 0.85413 0.14767 0.0
C5572 C 0.55312 0.87055 0.1426 0.0
C5573 C 0.54608 0.87436 0.12732 0.0
C5574 C 0.54648 0.89289 0.12401 0.0
C5575 C 0.55682 0.89688 0.10833 0.0
C5576 C 0.52873 0.89998 0.12265 0.0
C5577 C 0.55508 0.89887 0.13966 0.0
C5578 C 0.5586 0.8859 0.15039 0.0
C5579 C 0.56705 0.88847 0.16539 0.0
C5580 C 0.5722 0.90473 0.16939 0.0
C5581 C 0.56909 0.91807 0.15829 0.0
C5582 C 0.56021 0.91503 0.14339 0.0
H5583 H 0.83546 0.32483 0.4046 0.0
H5584 H 0.80506 0.28438 0.38571 0.0
H5585 H 0.82988 0.27154 0.37295 0.0
H5586 H 0.85885 0.32961 0.36893 0.0
H5587 H 0.87838 0.33436 0.37896 0.0
H5588 H 0.85906 0.33892 0.38937 0.0
H5589 H 0.86827 0.3212 0.41474 0.0
H5590 H 0.88775 0.31672 0.40447 0.0
H5591 H 0.8747 0.2999 0.41163 0.0
H5592 H 0.85638 0.26529 0.35893 0.0
H5593 H 0.88381 0.26531 0.34511 0.0
H5594 H 0.8977 0.30973 0.37264 0.0
C5595 C 0.83425 0.31294 0.39832 0.0
C5596 C 0.8185 0.30538 0.39631 0.0
C5597 C 0.81712 0.2902 0.38747 0.0
C5598 C 0.83112 0.28282 0.38022 0.0
C5599 C 0.84641 0.29083 0.38188 0.0
C5600 C 0.84815 0.30549 0.39079 0.0
C5601 C 0.86567 0.31239 0.38906 0.0
C5602 C 0.86546 0.32985 0.38111 0.0
C5603 C 0.87463 0.31256 0.40598 0.0
C5604 C 0.87327 0.29959 0.37741 0.0
C5605 C 0.86194 0.2872 0.37358 0.0
C5606 C 0.8655 0.27472 0.36207 0.0
C5607 C 0.88105 0.27489 0.35422 0.0
C5608 C 0.89287 0.28743 0.35793 0.0
C5609 C 0.88899 0.29982 0.36982 0.0
H5610 H 0.46067 0.63615 0.60202 0.0
H5611 H 0.44388 0.67068 0.64004 0.0
H5612 H 0.43664 0.64693 0.65837 0.0
H5613 H 0.42763 0.608 0.60744 0.0
H5614 H 0.43996 0.58971 0.60321 0.0
H5615 H 0.44566 0.60939 0.59412 0.0
H5616 H 0.47517 0.60695 0.60709 0.0
H5617 H 0.46956 0.58723 0.61622 0.0
H5618 H 0.4773 0.60382 0.62924 0.0
H5619 H 0.43008 0.61905 0.67197 0.0
H5620 H 0.42307 0.58973 0.67874 0.0
H5621 H 0.44285 0.57423 0.63084 0.0
C5622 C 0.45577 0.63875 0.61431 0.0
C5623 C 0.453 0.65521 0.61971 0.0
C5624 C 0.44619 0.65809 0.63574 0.0
C5625 C 0.44209 0.64471 0.64623 0.0
C5626 C 0.44473 0.62856 0.6404 0.0
C5627 C 0.45131 0.62557 0.62475 0.0
C5628 C 0.45153 0.60719 0.62074 0.0
C5629 C 0.44054 0.60335 0.60548 0.0
C5630 C 0.46946 0.60093 0.61818 0.0
C5631 C 0.44403 0.60028 0.63655 0.0
C5632 C 0.44035 0.61271 0.64787 0.0
C5633 C 0.43298 0.6092 0.66323 0.0
C5634 C 0.42908 0.59254 0.66699 0.0
C5635 C 0.43236 0.57973 0.65531 0.0
C5636 C 0.44011 0.58374 0.64002 0.0
H5637 H 0.11453 0.20881 0.85034 0.0
H5638 H 0.07854 0.19666 0.88877 0.0
H5639 H 0.10145 0.18808 0.90752 0.0
H5640 H 0.13989 0.17345 0.85753 0.0
H5641 H 0.15919 0.18399 0.853 0.0
H5642 H 0.14014 0.19088 0.84337 0.0
H5643 H 0.14495 0.22068 0.855 0.0
H5644 H 0.16404 0.21386 0.86464 0.0
H5645 H 0.14804 0.22356 0.87707 0.0
H5646 H 0.12829 0.18 0.92167 0.0
H5647 H 0.15685 0.17156 0.92958 0.0
H5648 H 0.17476 0.18728 0.88099 0.0
C5649 C 0.1115 0.20462 0.86279 0.0
C5650 C 0.09484 0.20354 0.86822 0.0
C5651 C 0.0913 0.19764 0.88446 0.0
C5652 C 0.1042 0.19278 0.89518 0.0
C5653 C 0.12051 0.19369 0.88934 0.0
C5654 C 0.12418 0.19934 0.87347 0.0
C5655 C 0.14257 0.19781 0.86971 0.0
C5656 C 0.14562 0.18582 0.85504 0.0
C5657 C 0.15036 0.215 0.86642 0.0
C5658 C 0.14868 0.19048 0.88595 0.0
C5659 C 0.13583 0.18834 0.89718 0.0
C5660 C 0.13848 0.18164 0.91299 0.0
C5661 C 0.15473 0.17692 0.91738 0.0
C5662 C 0.16802 0.17875 0.90591 0.0
C5663 C 0.16487 0.18567 0.89003 0.0
H5664 H 0.89384 0.0338 0.6404 0.0
H5665 H 0.8571 0.05303 0.67504 0.0
H5666 H 0.83875 0.06043 0.65138 0.0
H5667 H 0.88991 0.06653 0.61224 0.0
H5668 H 0.89333 0.05401 0.59392 0.0
H5669 H 0.90221 0.04779 0.61353 0.0
H5670 H 0.88759 0.01905 0.61122 0.0
H5671 H 0.8787 0.02515 0.59152 0.0
H5672 H 0.86535 0.01817 0.60818 0.0
H5673 H 0.82534 0.06751 0.62363 0.0
H5674 H 0.81894 0.0752 0.59442 0.0
H5675 H 0.86564 0.05303 0.57856 0.0
C5676 C 0.8818 0.03922 0.64306 0.0
C5677 C 0.87681 0.04272 0.65953 0.0
C5678 C 0.86109 0.05016 0.66246 0.0
C5679 C 0.85058 0.05436 0.64912 0.0
C5680 C 0.85609 0.05118 0.63296 0.0
C5681 C 0.87139 0.04385 0.62992 0.0
C5682 C 0.87529 0.04341 0.6115 0.0
C5683 C 0.89112 0.05354 0.60758 0.0
C5684 C 0.87682 0.02537 0.60524 0.0
C5685 C 0.85988 0.05177 0.60464 0.0
C5686 C 0.8488 0.05594 0.61714 0.0
C5687 C 0.83388 0.0642 0.61373 0.0
C5688 C 0.83033 0.06849 0.59713 0.0
C5689 C 0.8418 0.06474 0.58426 0.0
C5690 C 0.85663 0.05611 0.58813 0.0
H5691 H 0.3701 0.94022 0.92428 0.0
H5692 H 0.32276 0.9204 0.90713 0.0
H5693 H 0.33041 0.92755 0.87812 0.0
H5694 H 0.37193 0.97489 0.8954 0.0
H5695 H 0.39418 0.97328 0.89273 0.0
H5696 H 0.38472 0.967 0.9121 0.0
H5697 H 0.39825 0.93777 0.90932 0.0
H5698 H 0.40776 0.94396 0.88997 0.0
H5699 H 0.39469 0.92572 0.89069 0.0
H5700 H 0.34422 0.93514 0.85085 0.0
H5701 H 0.36264 0.94348 0.82759 0.0
H5702 H 0.40007 0.9596 0.86311 0.0
C5703 C 0.36128 0.9374 0.91446 0.0
C5704 C 0.34585 0.9297 0.91795 0.0
C5705 C 0.33464 0.92635 0.90474 0.0
C5706 C 0.33887 0.93035 0.88824 0.0
C5707 C 0.35425 0.93787 0.88525 0.0
C5708 C 0.36521 0.94147 0.89802 0.0
C5709 C 0.38103 0.9494 0.89156 0.0
C5710 C 0.38308 0.9672 0.89835 0.0
C5711 C 0.39633 0.93856 0.89563 0.0
C5712 C 0.37739 0.94949 0.87309 0.0
C5713 C 0.36191 0.94275 0.86967 0.0
C5714 C 0.35626 0.94063 0.85339 0.0
C5715 C 0.3668 0.94539 0.84029 0.0
C5716 C 0.38271 0.95229 0.84358 0.0
C5717 C 0.3879 0.95457 0.8602 0.0
H5718 H 0.8344 0.09239 0.16064 0.0
H5719 H 0.79178 0.10204 0.19236 0.0
H5720 H 0.7759 0.11238 0.1681 0.0
H5721 H 0.83031 0.12927 0.13718 0.0
H5722 H 0.83691 0.12033 0.11767 0.0
H5723 H 0.84419 0.1116 0.137 0.0
H5724 H 0.83281 0.08266 0.12821 0.0
H5725 H 0.82543 0.09136 0.10886 0.0
H5726 H 0.81119 0.08055 0.12246 0.0
H5727 H 0.76571 0.1241 0.14163 0.0
H5728 H 0.76196 0.13763 0.11429 0.0
H5729 H 0.81106 0.12084 0.09917 0.0
C5730 C 0.82159 0.09634 0.16227 0.0
C5731 C 0.81409 0.09628 0.17816 0.0
C5732 C 0.79755 0.10195 0.18015 0.0
C5733 C 0.78846 0.10775 0.16647 0.0
C5734 C 0.79619 0.1079 0.15094 0.0
C5735 C 0.81239 0.10244 0.14872 0.0
C5736 C 0.81821 0.10553 0.13101 0.0
C5737 C 0.83329 0.11739 0.13071 0.0
C5738 C 0.82214 0.08904 0.12211 0.0
C5739 C 0.80282 0.11375 0.12375 0.0
C5740 C 0.79024 0.11484 0.13547 0.0
C5741 C 0.77533 0.12308 0.13223 0.0
C5742 C 0.77331 0.13073 0.1167 0.0
C5743 C 0.78609 0.13001 0.10461 0.0
C5744 C 0.8009 0.12114 0.10805 0.0
H5745 H 0.60173 0.53908 0.36371 0.0
H5746 H 0.63404 0.5674 0.33091 0.0
H5747 H 0.65129 0.57564 0.35517 0.0
H5748 H 0.60151 0.56839 0.39649 0.0
H5749 H 0.60097 0.55287 0.41271 0.0
H5750 H 0.59217 0.54834 0.3926 0.0
H5751 H 0.6111 0.52224 0.39016 0.0
H5752 H 0.62002 0.52674 0.41026 0.0
H5753 H 0.63335 0.52448 0.39232 0.0
H5754 H 0.66458 0.58113 0.3835 0.0
H5755 H 0.67142 0.58506 0.41336 0.0
H5756 H 0.6294 0.55384 0.4269 0.0
C5757 C 0.6125 0.5469 0.36156 0.0
C5758 C 0.61663 0.55255 0.34546 0.0
C5759 C 0.63072 0.56292 0.3432 0.0
C5760 C 0.6406 0.5676 0.35687 0.0
C5761 C 0.63612 0.56184 0.37264 0.0
C5762 C 0.62233 0.55181 0.37501 0.0
C5763 C 0.61949 0.54804 0.39322 0.0
C5764 C 0.60254 0.55482 0.39909 0.0
C5765 C 0.62109 0.52926 0.39669 0.0
C5766 C 0.63377 0.55764 0.40081 0.0
C5767 C 0.64339 0.56536 0.38879 0.0
C5768 C 0.65716 0.5751 0.393 0.0
C5769 C 0.66098 0.5772 0.40996 0.0
C5770 C 0.65091 0.56978 0.42241 0.0
C5771 C 0.63729 0.55973 0.41767 0.0
H5772 H 0.68036 0.88238 0.67765 0.0
H5773 H 0.66378 0.93015 0.6584 0.0
H5774 H 0.67204 0.92148 0.63001 0.0
H5775 H 0.71644 0.87881 0.65189 0.0
H5776 H 0.71445 0.85661 0.64915 0.0
H5777 H 0.70668 0.86633 0.66782 0.0
H5778 H 0.67744 0.85368 0.66239 0.0
H5779 H 0.68512 0.84386 0.64373 0.0
H5780 H 0.66727 0.85745 0.64273 0.0
H5781 H 0.6813 0.90721 0.60372 0.0
H5782 H 0.69207 0.88881 0.58148 0.0
H5783 H 0.70436 0.85131 0.6184 0.0
C5784 C 0.67837 0.89101 0.66746 0.0
C5785 C 0.67139 0.90693 0.67019 0.0
C5786 C 0.66916 0.91791 0.65657 0.0
C5787 C 0.67377 0.91309 0.64042 0.0
C5788 C 0.68073 0.89734 0.6382 0.0
C5789 C 0.6831 0.8865 0.65136 0.0
C5790 C 0.69117 0.87042 0.64572 0.0
C5791 C 0.7082 0.8679 0.65415 0.0
C5792 C 0.67956 0.85548 0.64883 0.0
C5793 C 0.69305 0.87393 0.62732 0.0
C5794 C 0.68677 0.88943 0.6232 0.0
C5795 C 0.68641 0.89512 0.60681 0.0
C5796 C 0.69253 0.88461 0.5943 0.0
C5797 C 0.69916 0.86877 0.59831 0.0
C5798 C 0.69959 0.86346 0.61504 0.0
H5799 H 0.10399 0.96352 0.64066 0.0
H5800 H 0.13584 0.93638 0.67486 0.0
H5801 H 0.15339 0.92724 0.65117 0.0
H5802 H 0.10366 0.93239 0.60993 0.0
H5803 H 0.1031 0.94674 0.59267 0.0
H5804 H 0.09441 0.9527 0.61246 0.0
H5805 H 0.11343 0.97882 0.61313 0.0
H5806 H 0.12214 0.973 0.59328 0.0
H5807 H 0.13565 0.97637 0.6109 0.0
H5808 H 0.16686 0.92036 0.6232 0.0
H5809 H 0.17385 0.91499 0.59355 0.0
H5810 H 0.13164 0.94517 0.57838 0.0
C5811 C 0.11479 0.95588 0.64324 0.0
C5812 C 0.11865 0.95075 0.65958 0.0
C5813 C 0.13274 0.94051 0.66239 0.0
C5814 C 0.14278 0.93529 0.64904 0.0
C5815 C 0.13841 0.94031 0.63299 0.0
C5816 C 0.12468 0.9503 0.63008 0.0
C5817 C 0.12173 0.95286 0.61168 0.0
C5818 C 0.10472 0.94574 0.60638 0.0
C5819 C 0.12334 0.97136 0.60697 0.0
C5820 C 0.13593 0.94272 0.60464 0.0
C5821 C 0.14559 0.93573 0.61706 0.0
C5822 C 0.15938 0.92578 0.61338 0.0
C5823 C 0.16328 0.92283 0.59655 0.0
C5824 C 0.15322 0.92957 0.58373 0.0
C5825 C 0.13947 0.93971 0.58792 0.0
H5826 H 0.81113 0.37392 0.39841 0.0
H5827 H 0.7636 0.35461 0.38125 0.0
H5828 H 0.7667 0.37032 0.35502 0.0
H5829 H 0.80763 0.4155 0.37926 0.0
H5830 H 0.82938 0.41622 0.37371 0.0
H5831 H 0.8228 0.40473 0.39186 0.0
H5832 H 0.83706 0.37814 0.38033 0.0
H5833 H 0.84373 0.38954 0.36221 0.0
H5834 H 0.83165 0.37076 0.35981 0.0
H5835 H 0.77582 0.38581 0.33 0.0
H5836 H 0.79089 0.39989 0.30713 0.0
H5837 H 0.83237 0.40974 0.34023 0.0
C5838 C 0.80126 0.37322 0.38923 0.0
C5839 C 0.78707 0.36315 0.39186 0.0
C5840 C 0.77455 0.3623 0.37948 0.0
C5841 C 0.77616 0.37123 0.36459 0.0
C5842 C 0.79034 0.38096 0.36231 0.0
C5843 C 0.8027 0.38202 0.37424 0.0
C5844 C 0.81722 0.39246 0.36813 0.0
C5845 C 0.81938 0.40816 0.37888 0.0
C5846 C 0.83336 0.38211 0.36758 0.0
C5847 C 0.81121 0.39682 0.35077 0.0
C5848 C 0.7956 0.39014 0.34777 0.0
C5849 C 0.78789 0.39137 0.33228 0.0
C5850 C 0.79649 0.39937 0.31941 0.0
C5851 C 0.81251 0.40612 0.32217 0.0
C5852 C 0.81989 0.40508 0.33807 0.0
H5853 H 0.15991 0.10724 0.84183 0.0
H5854 H 0.19611 0.06738 0.83764 0.0
H5855 H 0.2082 0.07559 0.86486 0.0
H5856 H 0.18575 0.13708 0.8581 0.0
H5857 H 0.17084 0.14605 0.87231 0.0
H5858 H 0.16375 0.1358 0.8537 0.0
H5859 H 0.14523 0.11604 0.87127 0.0
H5860 H 0.15207 0.12647 0.88995 0.0
H5861 H 0.15441 0.10421 0.88802 0.0
H5862 H 0.21918 0.09141 0.88992 0.0
H5863 H 0.22559 0.11109 0.91296 0.0
H5864 H 0.18066 0.13877 0.90179 0.0
C5865 C 0.17009 0.09997 0.84689 0.0
C5866 C 0.17712 0.08669 0.83776 0.0
C5867 C 0.19048 0.07747 0.84461 0.0
C5868 C 0.19745 0.08211 0.85999 0.0
C5869 C 0.19062 0.09571 0.86841 0.0
C5870 C 0.17694 0.10422 0.86229 0.0
C5871 C 0.1723 0.11877 0.87334 0.0
C5872 C 0.17323 0.1354 0.86379 0.0
C5873 C 0.15497 0.11621 0.88111 0.0
C5874 C 0.18588 0.11752 0.88631 0.0
C5875 C 0.1964 0.10421 0.88325 0.0
C5876 C 0.21078 0.1016 0.89269 0.0
C5877 C 0.21439 0.11282 0.90563 0.0
C5878 C 0.20353 0.12623 0.90903 0.0
C5879 C 0.18905 0.12848 0.89942 0.0
H5880 H 0.57727 0.86868 0.05943 0.0
H5881 H 0.59472 0.82256 0.08167 0.0
H5882 H 0.62377 0.83023 0.0744 0.0
H5883 H 0.60608 0.86911 0.02493 0.0
H5884 H 0.60845 0.89144 0.02542 0.0
H5885 H 0.58921 0.88206 0.03217 0.0
H5886 H 0.5918 0.89709 0.06068 0.0
H5887 H 0.61102 0.90652 0.05402 0.0
H5888 H 0.61044 0.89439 0.07291 0.0
H5889 H 0.65103 0.84426 0.06641 0.0
H5890 H 0.674 0.86251 0.05683 0.0
H5891 H 0.63788 0.89823 0.03841 0.0
C5892 C 0.58717 0.86013 0.06277 0.0
C5893 C 0.58379 0.84506 0.0712 0.0
C5894 C 0.59707 0.83415 0.07517 0.0
C5895 C 0.61357 0.83842 0.07113 0.0
C5896 C 0.61644 0.85349 0.06293 0.0
C5897 C 0.60355 0.86407 0.05866 0.0
C5898 C 0.60979 0.87954 0.04993 0.0
C5899 C 0.60298 0.88059 0.03205 0.0
C5900 C 0.60551 0.89531 0.05999 0.0
C5901 C 0.62828 0.87614 0.05005 0.0
C5902 C 0.63193 0.86113 0.05771 0.0
C5903 C 0.6483 0.85591 0.06018 0.0
C5904 C 0.66123 0.86634 0.05473 0.0
C5905 C 0.65766 0.88166 0.04675 0.0
C5906 C 0.64098 0.88647 0.04423 0.0
H5907 H 0.36023 0.89123 0.28975 0.0
H5908 H 0.39147 0.92647 0.31624 0.0
H5909 H 0.41002 0.90337 0.32494 0.0
H5910 H 0.36137 0.86073 0.32069 0.0
H5911 H 0.36107 0.84339 0.30641 0.0
H5912 H 0.3518 0.86291 0.30048 0.0
H5913 H 0.37049 0.86389 0.27412 0.0
H5914 H 0.37985 0.84434 0.27997 0.0
H5915 H 0.39279 0.86232 0.2763 0.0
H5916 H 0.4243 0.87587 0.33185 0.0
H5917 H 0.43145 0.8465 0.33836 0.0
H5918 H 0.38947 0.82991 0.30864 0.0
C5919 C 0.37112 0.89417 0.29712 0.0
C5920 C 0.37452 0.91062 0.30221 0.0
C5921 C 0.38872 0.91391 0.31215 0.0
C5922 C 0.39935 0.90089 0.31709 0.0
C5923 C 0.39547 0.88472 0.31206 0.0
C5924 C 0.38161 0.88136 0.30239 0.0
C5925 C 0.37914 0.86286 0.29999 0.0
C5926 C 0.36236 0.85714 0.30733 0.0
C5927 C 0.38066 0.85808 0.28149 0.0
C5928 C 0.39366 0.85628 0.30998 0.0
C5929 C 0.40316 0.86902 0.31661 0.0
C5930 C 0.417 0.8658 0.32665 0.0
C5931 C 0.421 0.84913 0.33023 0.0
C5932 C 0.41097 0.83601 0.32403 0.0
C5933 C 0.39732 0.83971 0.31359 0.0
H5934 H 0.35956 0.60504 0.53643 0.0
H5935 H 0.32353 0.63726 0.56057 0.0
H5936 H 0.34621 0.6564 0.56891 0.0
H5937 H 0.38967 0.60816 0.56775 0.0
H5938 H 0.40724 0.60752 0.55377 0.0
H5939 H 0.38798 0.59765 0.54796 0.0
H5940 H 0.38712 0.61512 0.52077 0.0
H5941 H 0.40642 0.62506 0.52651 0.0
H5942 H 0.38828 0.63752 0.52197 0.0
H5943 H 0.37329 0.67122 0.5759 0.0
H5944 H 0.40242 0.67923 0.58247 0.0
H5945 H 0.42017 0.63634 0.55475 0.0
C5946 C 0.3564 0.61628 0.54318 0.0
C5947 C 0.33983 0.61978 0.54774 0.0
C5948 C 0.3362 0.63442 0.55691 0.0
C5949 C 0.34898 0.64538 0.56164 0.0
C5950 C 0.36528 0.64143 0.55717 0.0
C5951 C 0.369 0.62718 0.54821 0.0
C5952 C 0.38757 0.62494 0.54624 0.0
C5953 C 0.39345 0.60861 0.55442 0.0
C5954 C 0.39264 0.62571 0.52777 0.0
C5955 C 0.39374 0.64001 0.55568 0.0
C5956 C 0.38076 0.64956 0.56169 0.0
C5957 C 0.38357 0.66388 0.57117 0.0
C5958 C 0.40011 0.66836 0.57481 0.0
C5959 C 0.4135 0.65836 0.56919 0.0
C5960 C 0.41018 0.64419 0.55931 0.0
H5961 H 0.61409 0.66663 0.83857 0.0
H5962 H 0.57588 0.6736 0.80112 0.0
H5963 H 0.58501 0.64767 0.78702 0.0
H5964 H 0.64541 0.65193 0.81411 0.0
H5965 H 0.65305 0.63598 0.82793 0.0
H5966 H 0.64266 0.65398 0.83632 0.0
H5967 H 0.62149 0.63529 0.85149 0.0
H5968 H 0.63138 0.61684 0.84339 0.0
H5969 H 0.6095 0.62027 0.8399 0.0
H5970 H 0.60121 0.62345 0.77499 0.0
H5971 H 0.62041 0.6001 0.76829 0.0
H5972 H 0.64596 0.60757 0.81521 0.0
C5973 C 0.60739 0.66239 0.82768 0.0
C5974 C 0.59432 0.67194 0.82089 0.0
C5975 C 0.58584 0.66627 0.80653 0.0
C5976 C 0.59099 0.65164 0.79844 0.0
C5977 C 0.60425 0.64269 0.80522 0.0
C5978 C 0.61199 0.64758 0.81983 0.0
C5979 C 0.62595 0.63582 0.82455 0.0
C5980 C 0.64275 0.64498 0.8258 0.0
C5981 C 0.62183 0.62652 0.84079 0.0
C5982 C 0.62552 0.62413 0.80981 0.0
C5983 C 0.61293 0.62826 0.79879 0.0
C5984 C 0.61087 0.61988 0.78369 0.0
C5985 C 0.62185 0.6068 0.77993 0.0
C5986 C 0.63445 0.60223 0.79132 0.0
C5987 C 0.63627 0.61089 0.80643 0.0
H5988 H 0.57132 0.13561 0.94533 0.0
H5989 H 0.58765 0.18151 0.92185 0.0
H5990 H 0.61676 0.17515 0.93005 0.0
H5991 H 0.60064 0.1366 0.98036 0.0
H5992 H 0.60334 0.1143 0.98007 0.0
H5993 H 0.58384 0.12333 0.97357 0.0
H5994 H 0.58615 0.10794 0.94524 0.0
H5995 H 0.60566 0.09894 0.9516 0.0
H5996 H 0.6045 0.11085 0.9326 0.0
H5997 H 0.64431 0.1619 0.93807 0.0
H5998 H 0.66777 0.1438 0.94657 0.0
H5999 H 0.63273 0.10741 0.96576 0.0
C6000 C 0.58096 0.14446 0.94205 0.0
C6001 C 0.57727 0.15902 0.93289 0.0
C6002 C 0.59023 0.17031 0.92894 0.0
C6003 C 0.60677 0.16679 0.93352 0.0
C6004 C 0.60998 0.15209 0.94226 0.0
C6005 C 0.59738 0.14123 0.94665 0.0
C6006 C 0.60404 0.12595 0.95541 0.0
C6007 C 0.59758 0.125 0.97343 0.0
C6008 C 0.59984 0.10999 0.94562 0.0
C6009 C 0.62247 0.12965 0.95493 0.0
C6010 C 0.62569 0.14478 0.94731 0.0
C6011 C 0.64191 0.1502 0.94432 0.0
C6012 C 0.65513 0.13982 0.94913 0.0
C6013 C 0.65201 0.1243 0.95693 0.0
C6014 C 0.63548 0.11933 0.96008 0.0
H6015 H 0.13197 0.89672 0.18351 0.0
H6016 H 0.13834 0.88459 0.23574 0.0
H6017 H 0.12168 0.85894 0.23186 0.0
H6018 H 0.08979 0.87917 0.17779 0.0
H6019 H 0.09459 0.87089 0.15747 0.0
H6020 H 0.10492 0.88946 0.16475 0.0
H6021 H 0.13375 0.87566 0.16 0.0
H6022 H 0.12337 0.8574 0.1522 0.0
H6023 H 0.13804 0.8556 0.16914 0.0
H6024 H 0.10564 0.83422 0.22219 0.0
H6025 H 0.09431 0.8101 0.20668 0.0
H6026 H 0.10023 0.83697 0.16025 0.0
C6027 C 0.12948 0.88881 0.19416 0.0
C6028 C 0.13605 0.89266 0.21 0.0
C6029 C 0.13319 0.88182 0.22357 0.0
C6030 C 0.12369 0.86733 0.2215 0.0
C6031 C 0.11741 0.86377 0.2057 0.0
C6032 C 0.12038 0.87405 0.19219 0.0
C6033 C 0.11388 0.86637 0.1762 0.0
C6034 C 0.09997 0.87711 0.16861 0.0
C6035 C 0.12811 0.86356 0.16365 0.0
C6036 C 0.10708 0.85004 0.18278 0.0
C6037 C 0.10887 0.84901 0.1999 0.0
C6038 C 0.10401 0.83493 0.20882 0.0
C6039 C 0.09753 0.82136 0.19997 0.0
C6040 C 0.09616 0.82197 0.18244 0.0
C6041 C 0.10081 0.83649 0.17373 0.0
H6042 H 0.35526 0.3903 0.46601 0.0
H6043 H 0.32094 0.36067 0.43661 0.0
H6044 H 0.34346 0.34041 0.4308 0.0
H6045 H 0.38864 0.3864 0.43901 0.0
H6046 H 0.40432 0.38579 0.45508 0.0
H6047 H 0.38493 0.39635 0.4588 0.0
H6048 H 0.37998 0.37808 0.48502 0.0
H6049 H 0.39937 0.36736 0.4813 0.0
H6050 H 0.38027 0.35569 0.48313 0.0
H6051 H 0.37071 0.32482 0.42607 0.0
H6052 H 0.40021 0.31685 0.42128 0.0
H6053 H 0.41607 0.35717 0.45355 0.0
C6054 C 0.35237 0.37938 0.45863 0.0
C6055 C 0.33636 0.37698 0.45185 0.0
C6056 C 0.33315 0.36269 0.44199 0.0
C6057 C 0.34583 0.35108 0.4387 0.0
C6058 C 0.36161 0.35395 0.44539 0.0
C6059 C 0.36487 0.3678 0.45513 0.0
C6060 C 0.38313 0.36906 0.45945 0.0
C6061 C 0.39069 0.38535 0.45267 0.0
C6062 C 0.38584 0.36744 0.47835 0.0
C6063 C 0.38975 0.35401 0.45029 0.0
C6064 C 0.37718 0.34522 0.44247 0.0
C6065 C 0.38062 0.33147 0.43234 0.0
C6066 C 0.39737 0.32696 0.42976 0.0
C6067 C 0.41036 0.33637 0.43708 0.0
C6068 C 0.40638 0.34969 0.44785 0.0
H6069 H 0.86668 0.59276 0.67937 0.0
H6070 H 0.88172 0.59063 0.73114 0.0
H6071 H 0.90095 0.61448 0.72651 0.0
H6072 H 0.906 0.60582 0.66118 0.0
H6073 H 0.89628 0.61992 0.64665 0.0
H6074 H 0.88528 0.60162 0.65357 0.0
H6075 H 0.86056 0.61983 0.66372 0.0
H6076 H 0.87135 0.63801 0.65634 0.0
H6077 H 0.86457 0.63694 0.67773 0.0
H6078 H 0.91832 0.63874 0.71593 0.0
H6079 H 0.92854 0.66436 0.70196 0.0
H6080 H 0.8996 0.65193 0.65814 0.0
C6081 C 0.87416 0.59727 0.68966 0.0
C6082 C 0.87303 0.58992 0.70554 0.0
C6083 C 0.88262 0.5962 0.71888 0.0
C6084 C 0.8936 0.6096 0.71631 0.0
C6085 C 0.89449 0.61663 0.70042 0.0
C6086 C 0.88473 0.61089 0.68742 0.0
C6087 C 0.88656 0.62165 0.67207 0.0
C6088 C 0.89397 0.61165 0.65751 0.0
C6089 C 0.86977 0.62958 0.6672 0.0
C6090 C 0.89877 0.63449 0.67847 0.0
C6091 C 0.90358 0.63115 0.69468 0.0
C6092 C 0.91468 0.64145 0.70324 0.0
C6093 C 0.92052 0.65586 0.6952 0.0
C6094 C 0.91493 0.6599 0.679 0.0
C6095 C 0.90418 0.64895 0.67047 0.0
H6096 H 0.56476 0.658 0.37484 0.0
H6097 H 0.5112 0.6512 0.3751 0.0
H6098 H 0.51417 0.62709 0.3561 0.0
H6099 H 0.57314 0.64331 0.33148 0.0
H6100 H 0.59189 0.63264 0.33775 0.0
H6101 H 0.58539 0.65123 0.34857 0.0
H6102 H 0.58585 0.63521 0.37665 0.0
H6103 H 0.59246 0.6167 0.36595 0.0
H6104 H 0.57395 0.61627 0.37867 0.0
H6105 H 0.52308 0.6023 0.33954 0.0
H6106 H 0.53732 0.57668 0.32993 0.0
H6107 H 0.58508 0.59851 0.34212 0.0
C6108 C 0.55365 0.65171 0.37046 0.0
C6109 C 0.53773 0.65655 0.37608 0.0
C6110 C 0.52348 0.6477 0.37072 0.0
C6111 C 0.52505 0.63411 0.35985 0.0
C6112 C 0.54097 0.62948 0.35465 0.0
C6113 C 0.55505 0.6379 0.35995 0.0
C6114 C 0.5708 0.62899 0.35465 0.0
C6115 C 0.5809 0.63968 0.34238 0.0
C6116 C 0.58137 0.62399 0.36988 0.0
C6117 C 0.56341 0.61393 0.34604 0.0
C6118 C 0.54619 0.61472 0.3457 0.0
C6119 C 0.53655 0.60169 0.33943 0.0
C6120 C 0.54469 0.58726 0.33391 0.0
C6121 C 0.56221 0.58599 0.33493 0.0
C6122 C 0.57169 0.59955 0.34073 0.0
H6123 H 0.6716 0.80109 0.61403 0.0
H6124 H 0.65518 0.8299 0.57137 0.0
H6125 H 0.62576 0.82468 0.57935 0.0
H6126 H 0.637 0.77025 0.6141 0.0
H6127 H 0.63658 0.76983 0.63655 0.0
H6128 H 0.6559 0.77364 0.62576 0.0
H6129 H 0.65963 0.80105 0.64246 0.0
H6130 H 0.64023 0.79753 0.65307 0.0
H6131 H 0.64348 0.81665 0.64176 0.0
H6132 H 0.59842 0.81972 0.5947 0.0
H6133 H 0.57568 0.81377 0.61469 0.0
H6134 H 0.61078 0.78823 0.6469 0.0
C6135 C 0.66182 0.80594 0.60608 0.0
C6136 C 0.66559 0.81587 0.59208 0.0
C6137 C 0.6525 0.82208 0.58203 0.0
C6138 C 0.63579 0.81924 0.58653 0.0
C6139 C 0.63254 0.80998 0.60091 0.0
C6140 C 0.64524 0.80319 0.61034 0.0
C6141 C 0.63874 0.79485 0.62591 0.0
C6142 C 0.64226 0.77602 0.62555 0.0
C6143 C 0.64595 0.80302 0.64172 0.0
C6144 C 0.62038 0.79841 0.6241 0.0
C6145 C 0.61696 0.80706 0.60959 0.0
C6146 C 0.60094 0.81269 0.60593 0.0
C6147 C 0.58813 0.80933 0.61738 0.0
C6148 C 0.5915 0.80048 0.63228 0.0
C6149 C 0.6078 0.79487 0.63554 0.0
H6150 H 0.44895 0.91649 0.85767 0.0
H6151 H 0.41323 0.90082 0.82033 0.0
H6152 H 0.41755 0.87133 0.82878 0.0
H6153 H 0.47723 0.88016 0.85404 0.0
H6154 H 0.48134 0.88022 0.87612 0.0
H6155 H 0.47686 0.89948 0.86549 0.0
H6156 H 0.45278 0.90523 0.88626 0.0
H6157 H 0.45702 0.88594 0.89682 0.0
H6158 H 0.43647 0.88997 0.88871 0.0
H6159 H 0.42313 0.8441 0.84441 0.0
H6160 H 0.43086 0.82162 0.86411 0.0
H6161 H 0.46348 0.85587 0.89025 0.0
C6162 C 0.4423 0.90682 0.85101 0.0
C6163 C 0.43076 0.91082 0.83838 0.0
C6164 C 0.42225 0.89791 0.82993 0.0
C6165 C 0.4246 0.88118 0.8347 0.0
C6166 C 0.4357 0.87773 0.84767 0.0
C6167 C 0.44462 0.89022 0.85547 0.0
C6168 C 0.45506 0.88361 0.86966 0.0
C6169 C 0.47373 0.88601 0.86611 0.0
C6170 C 0.45002 0.89166 0.88634 0.0
C6171 C 0.45026 0.86545 0.86907 0.0
C6172 C 0.43914 0.8622 0.8563 0.0
C6173 C 0.43207 0.84646 0.85423 0.0
C6174 C 0.43648 0.8338 0.8655 0.0
C6175 C 0.44784 0.837 0.87863 0.0
C6176 C 0.45492 0.85298 0.88023 0.0
H6177 H 0.3283 0.6879 0.11983 0.0
H6178 H 0.34701 0.66946 0.07251 0.0
H6179 H 0.37548 0.67839 0.0805 0.0
H6180 H 0.35416 0.72428 0.12212 0.0
H6181 H 0.35689 0.72276 0.14436 0.0
H6182 H 0.33815 0.71494 0.13481 0.0
H6183 H 0.34334 0.68592 0.14814 0.0
H6184 H 0.36206 0.69366 0.15778 0.0
H6185 H 0.36293 0.67552 0.14457 0.0
H6186 H 0.40211 0.68781 0.09472 0.0
H6187 H 0.42446 0.69799 0.11335 0.0
H6188 H 0.38743 0.712 0.15014 0.0
C6189 C 0.33834 0.6857 0.11108 0.0
C6190 C 0.33545 0.6779 0.09556 0.0
C6191 C 0.34895 0.67543 0.08446 0.0
C6192 C 0.36513 0.68044 0.0889 0.0
C6193 C 0.36748 0.68808 0.10435 0.0
C6194 C 0.35441 0.69078 0.1152 0.0
C6195 C 0.36011 0.69915 0.13108 0.0
C6196 C 0.35184 0.7163 0.13321 0.0
C6197 C 0.35692 0.68789 0.14628 0.0
C6198 C 0.3785 0.70078 0.12752 0.0
C6199 C 0.38257 0.69416 0.11213 0.0
C6200 C 0.39902 0.69322 0.10668 0.0
C6201 C 0.4116 0.69902 0.11733 0.0
C6202 C 0.40762 0.70586 0.13311 0.0
C6203 C 0.39083 0.70702 0.13808 0.0
H6204 H 0.54433 0.35874 0.6032 0.0
H6205 H 0.56965 0.32397 0.63594 0.0
H6206 H 0.57794 0.34736 0.65429 0.0
H6207 H 0.57506 0.38973 0.60506 0.0
H6208 H 0.56053 0.40683 0.60416 0.0
H6209 H 0.55524 0.38717 0.5948 0.0
H6210 H 0.52824 0.38591 0.61258 0.0
H6211 H 0.53347 0.40558 0.62203 0.0
H6212 H 0.52963 0.38761 0.63493 0.0
H6213 H 0.58437 0.37512 0.66837 0.0
H6214 H 0.58997 0.40465 0.67565 0.0
H6215 H 0.56123 0.42042 0.63265 0.0
C6216 C 0.55143 0.35598 0.61434 0.0
C6217 C 0.55628 0.33958 0.61823 0.0
C6218 C 0.56577 0.3365 0.63279 0.0
C6219 C 0.57047 0.34968 0.6433 0.0
C6220 C 0.56562 0.36579 0.63898 0.0
C6221 C 0.55638 0.36894 0.62478 0.0
C6222 C 0.55378 0.38736 0.62211 0.0
C6223 C 0.56162 0.3931 0.60556 0.0
C6224 C 0.53517 0.39187 0.62297 0.0
C6225 C 0.56316 0.39414 0.63692 0.0
C6226 C 0.56973 0.38159 0.64669 0.0
C6227 C 0.57922 0.38505 0.66085 0.0
C6228 C 0.58228 0.40181 0.66492 0.0
C6229 C 0.57608 0.41475 0.65467 0.0
C6230 C 0.56621 0.41078 0.64068 0.0
H6231 H 0.8268 0.80879 0.87923 0.0
H6232 H 0.84424 0.8345 0.92352 0.0
H6233 H 0.87335 0.8278 0.91581 0.0
H6234 H 0.85694 0.77539 0.88032 0.0
H6235 H 0.859 0.77463 0.85796 0.0
H6236 H 0.83964 0.78122 0.86722 0.0
H6237 H 0.84097 0.80889 0.85051 0.0
H6238 H 0.86029 0.80235 0.84118 0.0
H6239 H 0.85921 0.82189 0.85218 0.0
H6240 H 0.90065 0.81983 0.90198 0.0
H6241 H 0.92372 0.81021 0.88389 0.0
H6242 H 0.8878 0.78836 0.84991 0.0
C6243 C 0.83671 0.813 0.88737 0.0
C6244 C 0.83327 0.82221 0.90196 0.0
C6245 C 0.8466 0.82736 0.91232 0.0
C6246 C 0.86316 0.82364 0.90802 0.0
C6247 C 0.86609 0.8146 0.89348 0.0
C6248 C 0.8532 0.80924 0.8834 0.0
C6249 C 0.85957 0.79984 0.86838 0.0
C6250 C 0.85342 0.78169 0.86849 0.0
C6251 C 0.85472 0.80878 0.85211 0.0
C6252 C 0.8781 0.80083 0.87147 0.0
C6253 C 0.88166 0.80948 0.88594 0.0
C6254 C 0.898 0.81285 0.89076 0.0
C6255 C 0.91099 0.80735 0.88042 0.0
C6256 C 0.90753 0.79847 0.86557 0.0
C6257 C 0.89087 0.79496 0.86126 0.0
H6258 H 0.43984 0.07631 0.13139 0.0
H6259 H 0.42271 0.09114 0.18052 0.0
H6260 H 0.42938 0.12053 0.17382 0.0
H6261 H 0.4743 0.10487 0.12862 0.0
H6262 H 0.47125 0.10866 0.10669 0.0
H6263 H 0.46532 0.08893 0.11558 0.0
H6264 H 0.4353 0.09276 0.10417 0.0
H6265 H 0.44111 0.11252 0.09527 0.0
H6266 H 0.42377 0.11129 0.10948 0.0
H6267 H 0.43595 0.14866 0.16055 0.0
H6268 H 0.44369 0.17264 0.14269 0.0
H6269 H 0.45851 0.1385 0.10352 0.0
C6270 C 0.43755 0.08568 0.14082 0.0
C6271 C 0.43073 0.08142 0.15649 0.0
C6272 C 0.42801 0.09411 0.16846 0.0
C6273 C 0.4317 0.11082 0.16475 0.0
C6274 C 0.43828 0.11457 0.1491 0.0
C6275 C 0.44132 0.1023 0.13741 0.0
C6276 C 0.44832 0.10947 0.12146 0.0
C6277 C 0.46584 0.10257 0.11788 0.0
C6278 C 0.43642 0.10632 0.10673 0.0
C6279 C 0.44888 0.12772 0.12599 0.0
C6280 C 0.4428 0.13051 0.14186 0.0
C6281 C 0.44098 0.14658 0.14821 0.0
C6282 C 0.44539 0.1601 0.138 0.0
C6283 C 0.45182 0.15742 0.12179 0.0
C6284 C 0.45382 0.14099 0.1159 0.0
H6285 H 0.17183 0.68339 0.38518 0.0
H6286 H 0.1524 0.66962 0.43376 0.0
H6287 H 0.12425 0.67871 0.4249 0.0
H6288 H 0.14709 0.72024 0.37972 0.0
H6289 H 0.14436 0.71697 0.35766 0.0
H6290 H 0.16283 0.70938 0.36792 0.0
H6291 H 0.15678 0.67956 0.35702 0.0
H6292 H 0.13833 0.68704 0.34668 0.0
H6293 H 0.13688 0.67008 0.36132 0.0
H6294 H 0.09793 0.68776 0.40981 0.0
H6295 H 0.07594 0.69709 0.39028 0.0
H6296 H 0.11351 0.70673 0.35266 0.0
C6297 C 0.1617 0.68225 0.39402 0.0
C6298 C 0.1643 0.67574 0.41017 0.0
C6299 C 0.15069 0.67461 0.42134 0.0
C6300 C 0.13468 0.67972 0.41641 0.0
C6301 C 0.1326 0.68609 0.40036 0.0
C6302 C 0.14579 0.68745 0.3894 0.0
C6303 C 0.14038 0.69465 0.37285 0.0
C6304 C 0.14919 0.7113 0.36934 0.0
C6305 C 0.14326 0.68208 0.35863 0.0
C6306 C 0.12202 0.69715 0.37616 0.0
C6307 C 0.1177 0.69198 0.39202 0.0
C6308 C 0.10121 0.69206 0.39746 0.0
C6309 C 0.08883 0.69738 0.3863 0.0
C6310 C 0.09307 0.70278 0.37005 0.0
C6311 C 0.10991 0.70293 0.36508 0.0
H6312 H 0.89149 0.53576 0.14245 0.0
H6313 H 0.86189 0.564 0.17775 0.0
H6314 H 0.84232 0.57169 0.15519 0.0
H6315 H 0.88879 0.56497 0.11033 0.0
H6316 H 0.88811 0.54976 0.09381 0.0
H6317 H 0.89837 0.54484 0.11311 0.0
H6318 H 0.87962 0.51871 0.11645 0.0
H6319 H 0.86926 0.52361 0.09714 0.0
H6320 H 0.85728 0.52098 0.11596 0.0
H6321 H 0.82685 0.57753 0.12816 0.0
H6322 H 0.81851 0.58292 0.09885 0.0
H6323 H 0.85922 0.55174 0.08179 0.0
C6324 C 0.88073 0.54331 0.14549 0.0
C6325 C 0.87808 0.54919 0.16181 0.0
C6326 C 0.86408 0.55935 0.16527 0.0
C6327 C 0.85286 0.56369 0.15258 0.0
C6328 C 0.85592 0.55783 0.13653 0.0
C6329 C 0.86959 0.54794 0.13297 0.0
C6330 C 0.87106 0.54455 0.11453 0.0
C6331 C 0.88755 0.55145 0.10754 0.0
C6332 C 0.86919 0.52585 0.11081 0.0
C6333 C 0.85626 0.5543 0.10821 0.0
C6334 C 0.84745 0.56164 0.12104 0.0
C6335 C 0.83359 0.57174 0.11801 0.0
C6336 C 0.8289 0.57469 0.10139 0.0
C6337 C 0.83827 0.56779 0.08815 0.0
C6338 C 0.85186 0.55723 0.0917 0.0
H6339 H 0.35627 0.41071 0.40735 0.0
H6340 H 0.31862 0.44885 0.41402 0.0
H6341 H 0.32821 0.46283 0.38822 0.0
H6342 H 0.38823 0.43588 0.39284 0.0
H6343 H 0.396 0.42147 0.37747 0.0
H6344 H 0.38541 0.41377 0.39566 0.0
H6345 H 0.36427 0.39799 0.37702 0.0
H6346 H 0.37504 0.40543 0.35878 0.0
H6347 H 0.35302 0.40919 0.36112 0.0
H6348 H 0.34493 0.47476 0.36421 0.0
H6349 H 0.36439 0.48111 0.34095 0.0
H6350 H 0.38858 0.43345 0.34832 0.0
C6351 C 0.34981 0.42178 0.40311 0.0
C6352 C 0.33672 0.42874 0.41252 0.0
C6353 C 0.32854 0.44326 0.40677 0.0
C6354 C 0.33399 0.45132 0.39224 0.0
C6355 C 0.34731 0.44442 0.38348 0.0
C6356 C 0.35479 0.4297 0.38844 0.0
C6357 C 0.36889 0.42488 0.3769 0.0
C6358 C 0.38561 0.42395 0.38628 0.0
C6359 C 0.36507 0.4084 0.36792 0.0
C6360 C 0.36851 0.43945 0.36498 0.0
C6361 C 0.35614 0.45072 0.36906 0.0
C6362 C 0.3544 0.46585 0.36065 0.0
C6363 C 0.3655 0.46941 0.34758 0.0
C6364 C 0.37783 0.45773 0.343 0.0
C6365 C 0.37922 0.44255 0.35166 0.0
H6366 H 0.81599 0.61572 0.67079 0.0
H6367 H 0.83592 0.56889 0.65246 0.0
H6368 H 0.82895 0.57737 0.6236 0.0
H6369 H 0.78143 0.6179 0.64335 0.0
H6370 H 0.78262 0.64018 0.64086 0.0
H6371 H 0.78984 0.63064 0.65983 0.0
H6372 H 0.81883 0.6445 0.65596 0.0
H6373 H 0.81168 0.65417 0.63702 0.0
H6374 H 0.83009 0.64132 0.63679 0.0
H6375 H 0.82032 0.59173 0.59656 0.0
H6376 H 0.80996 0.61016 0.57405 0.0
H6377 H 0.79392 0.6461 0.6111 0.0
C6378 C 0.819 0.60724 0.66074 0.0
C6379 C 0.82653 0.59165 0.66386 0.0
C6380 C 0.8301 0.58088 0.65034 0.0
C6381 C 0.82622 0.5856 0.63393 0.0
C6382 C 0.81866 0.60103 0.63134 0.0
C6383 C 0.81505 0.61163 0.64442 0.0
C6384 C 0.80661 0.62738 0.63852 0.0
C6385 C 0.78909 0.62912 0.64609 0.0
C6386 C 0.81745 0.64275 0.6423 0.0
C6387 C 0.80583 0.62395 0.62005 0.0
C6388 C 0.81306 0.60884 0.61605 0.0
C6389 C 0.8145 0.60351 0.59958 0.0
C6390 C 0.80856 0.61402 0.58691 0.0
C6391 C 0.80108 0.62951 0.59085 0.0
C6392 C 0.79947 0.63432 0.60766 0.0
H6393 H 0.63574 0.05779 0.92519 0.0
H6394 H 0.67864 0.08604 0.90836 0.0
H6395 H 0.67185 0.07862 0.87911 0.0
H6396 H 0.63867 0.02432 0.89403 0.0
H6397 H 0.61634 0.0227 0.89225 0.0
H6398 H 0.62562 0.02902 0.91169 0.0
H6399 H 0.60764 0.05589 0.91151 0.0
H6400 H 0.59839 0.04972 0.89205 0.0
H6401 H 0.60859 0.06965 0.89377 0.0
H6402 H 0.65805 0.07096 0.85171 0.0
H6403 H 0.63971 0.06204 0.82858 0.0
H6404 H 0.60689 0.03775 0.86397 0.0
C6405 C 0.64387 0.06225 0.91538 0.0
C6406 C 0.65766 0.07255 0.91896 0.0
C6407 C 0.66805 0.07806 0.90583 0.0
C6408 C 0.66427 0.07393 0.88922 0.0
C6409 C 0.65028 0.06407 0.88613 0.0
C6410 C 0.6404 0.0581 0.8989 0.0
C6411 C 0.62569 0.04832 0.8924 0.0
C6412 C 0.62664 0.03 0.89792 0.0
C6413 C 0.60911 0.05638 0.89775 0.0
C6414 C 0.62851 0.05006 0.87389 0.0
C6415 C 0.64273 0.05918 0.87048 0.0
C6416 C 0.64708 0.06353 0.85424 0.0
C6417 C 0.63657 0.05848 0.84121 0.0
C6418 C 0.62201 0.04909 0.84454 0.0
C6419 C 0.6181 0.04465 0.86105 0.0
H6420 H 0.68862 0.38306 0.17136 0.0
H6421 H 0.66492 0.42882 0.155 0.0
H6422 H 0.67034 0.42093 0.12559 0.0
H6423 H 0.72124 0.38265 0.14109 0.0
H6424 H 0.72082 0.36031 0.13879 0.0
H6425 H 0.71483 0.36967 0.15828 0.0
H6426 H 0.68631 0.35445 0.15693 0.0
H6427 H 0.69222 0.34503 0.13744 0.0
H6428 H 0.67329 0.35703 0.13881 0.0
H6429 H 0.67709 0.40662 0.09772 0.0
H6430 H 0.68619 0.38836 0.07446 0.0
H6431 H 0.7073 0.35377 0.11021 0.0
C6432 C 0.68455 0.39149 0.16164 0.0
C6433 C 0.6763 0.40653 0.16545 0.0
C6434 C 0.67132 0.41725 0.15233 0.0
C6435 C 0.6743 0.41284 0.13562 0.0
C6436 C 0.68242 0.39781 0.13234 0.0
C6437 C 0.68759 0.38742 0.14506 0.0
C6438 C 0.69618 0.37204 0.13847 0.0
C6439 C 0.71434 0.37112 0.14452 0.0
C6440 C 0.68641 0.35621 0.14319 0.0
C6441 C 0.69521 0.3754 0.12001 0.0
C6442 C 0.68699 0.39015 0.11661 0.0
C6443 C 0.68373 0.39516 0.10028 0.0
C6444 C 0.68894 0.38475 0.08717 0.0
C6445 C 0.69754 0.3697 0.09053 0.0
C6446 C 0.70089 0.36521 0.10717 0.0
H6447 H 0.09764 0.45611 0.13324 0.0
H6448 H 0.13668 0.44267 0.16811 0.0
H6449 H 0.15515 0.43521 0.14456 0.0
H6450 H 0.10494 0.42213 0.10589 0.0
H6451 H 0.09999 0.43372 0.0873 0.0
H6452 H 0.09052 0.43932 0.10685 0.0
H6453 H 0.10162 0.46953 0.10371 0.0
H6454 H 0.1111 0.46404 0.08412 0.0
H6455 H 0.12359 0.47295 0.10052 0.0
H6456 H 0.16907 0.4285 0.11681 0.0
H6457 H 0.17646 0.42178 0.08754 0.0
H6458 H 0.12751 0.43866 0.07177 0.0
C6459 C 0.11014 0.45181 0.13593 0.0
C6460 C 0.11581 0.45007 0.15244 0.0
C6461 C 0.13214 0.44411 0.15548 0.0
C6462 C 0.14272 0.43989 0.14221 0.0
C6463 C 0.13667 0.44154 0.12603 0.0
C6464 C 0.1207 0.44724 0.12288 0.0
C6465 C 0.11672 0.4468 0.10451 0.0
C6466 C 0.10219 0.43478 0.10093 0.0
C6467 C 0.11305 0.46438 0.09783 0.0
C6468 C 0.13297 0.44012 0.09778 0.0
C6469 C 0.14441 0.43722 0.11029 0.0
C6470 C 0.16022 0.43076 0.1069 0.0
C6471 C 0.16432 0.42702 0.09026 0.0
C6472 C 0.15258 0.42964 0.07736 0.0
C6473 C 0.13681 0.43642 0.08129 0.0
H6474 H 0.81519 0.879 0.90136 0.0
H6475 H 0.76485 0.8628 0.89022 0.0
H6476 H 0.76599 0.87764 0.86331 0.0
H6477 H 0.81323 0.92021 0.88022 0.0
H6478 H 0.83418 0.91845 0.87232 0.0
H6479 H 0.82866 0.90869 0.89179 0.0
H6480 H 0.83905 0.88023 0.88051 0.0
H6481 H 0.84461 0.88992 0.86108 0.0
H6482 H 0.83066 0.87232 0.86123 0.0
H6483 H 0.77336 0.89133 0.83677 0.0
H6484 H 0.78707 0.90229 0.81145 0.0
H6485 H 0.83285 0.90945 0.83911 0.0
C6486 C 0.80427 0.879 0.89342 0.0
C6487 C 0.78982 0.87002 0.89789 0.0
C6488 C 0.77597 0.86976 0.88701 0.0
C6489 C 0.77647 0.8782 0.87177 0.0
C6490 C 0.79098 0.88674 0.86756 0.0
C6491 C 0.80468 0.88717 0.878 0.0
C6492 C 0.81932 0.89575 0.86967 0.0
C6493 C 0.82413 0.91173 0.87906 0.0
C6494 C 0.83429 0.88384 0.86803 0.0
C6495 C 0.81179 0.89974 0.85281 0.0
C6496 C 0.79535 0.89461 0.85198 0.0
C6497 C 0.78609 0.89573 0.83735 0.0
C6498 C 0.79393 0.90196 0.82308 0.0
C6499 C 0.81076 0.90703 0.82362 0.0
C6500 C 0.81977 0.90615 0.83867 0.0
H6501 H 0.17745 0.63416 0.40794 0.0
H6502 H 0.22623 0.61254 0.41587 0.0
H6503 H 0.22109 0.5925 0.39283 0.0
H6504 H 0.15515 0.59657 0.39492 0.0
H6505 H 0.14354 0.6074 0.37903 0.0
H6506 H 0.15011 0.61831 0.39753 0.0
H6507 H 0.16512 0.64045 0.37943 0.0
H6508 H 0.15839 0.62977 0.36092 0.0
H6509 H 0.18024 0.63379 0.3642 0.0
H6510 H 0.21075 0.57553 0.36829 0.0
H6511 H 0.19854 0.56649 0.34139 0.0
H6512 H 0.1578 0.60123 0.34828 0.0
C6513 C 0.18693 0.62505 0.40489 0.0
C6514 C 0.20213 0.6246 0.41362 0.0
C6515 C 0.21447 0.61286 0.40924 0.0
C6516 C 0.21159 0.60141 0.39632 0.0
C6517 C 0.19641 0.60214 0.38785 0.0
C6518 C 0.18443 0.6139 0.39178 0.0
C6519 C 0.1701 0.61354 0.37956 0.0
C6520 C 0.15376 0.60866 0.38829 0.0
C6521 C 0.16837 0.63038 0.37049 0.0
C6522 C 0.17598 0.59991 0.36795 0.0
C6523 C 0.19093 0.59313 0.37319 0.0
C6524 C 0.199 0.58067 0.36412 0.0
C6525 C 0.19193 0.5755 0.34897 0.0
C6526 C 0.17721 0.58309 0.34296 0.0
C6527 C 0.16896 0.59511 0.35278 0.0
loop_
_geom_bond_atom_site_label_1
_geom_bond_atom_site_label_2
_geom_bond_distance
_geom_bond_site_symmetry_2
_ccdc_geom_bond_type
Co0 O1 2.216 . S
Co0 O2 2.091 . S
Co0 O4 2.004 . S
Co0 O10 2.021 . S
Co0 O12 2.137 . S
Co0 O13 2.244 . S
O1 Co0 2.216 . S
O1 C8 1.247 . S
O2 Co0 2.091 . S
O2 C8 1.261 . S
C3 O12 1.247 . S
C3 O13 1.272 . S
O4 Co0 2.004 . S
O4 C9 1.259 . S
Co5 O6 2.061 . S
Co5 O11 2.052 . S
Co5 O13 2.135 . S
O6 Co5 2.061 . S
O6 C9 1.235 . S
C7 O10 1.238 . S
C7 O11 1.241 . S
C8 O1 1.247 . S
C8 O2 1.261 . S
C9 O4 1.259 . S
C9 O6 1.235 . S
O10 Co0 2.021 . S
O10 C7 1.238 . S
O11 Co5 2.052 . S
O11 C7 1.241 . S
O12 Co0 2.137 . S
O12 C3 1.247 . S
O13 Co0 2.244 . S
O13 C3 1.272 . S
O13 Co5 2.135 . S
Co14 O15 2.216 . S
Co14 O16 2.091 . S
Co14 O18 2.004 . S
Co14 O24 2.021 . S
Co14 O26 2.137 . S
Co14 O27 2.244 . S
O15 Co14 2.216 . S
O15 C22 1.247 . S
O16 Co14 2.091 . S
O16 C22 1.261 . S
C17 O26 1.247 . S
C17 O27 1.272 . S
O18 Co14 2.004 . S
O18 C23 1.259 . S
Co19 O20 2.061 . S
Co19 O25 2.052 . S
Co19 O27 2.135 . S
O20 Co19 2.061 . S
O20 C23 1.235 . S
C21 O24 1.238 . S
C21 O25 1.241 . S
C22 O15 1.247 . S
C22 O16 1.261 . S
C23 O18 1.259 . S
C23 O20 1.235 . S
O24 Co14 2.021 . S
O24 C21 1.238 . S
O25 Co19 2.052 . S
O25 C21 1.241 . S
O26 Co14 2.137 . S
O26 C17 1.247 . S
O27 Co14 2.244 . S
O27 C17 1.272 . S
O27 Co19 2.135 . S
Co28 O29 2.216 . S
Co28 O30 2.091 . S
Co28 O32 2.004 . S
Co28 O38 2.021 . S
Co28 O40 2.137 . S
Co28 O41 2.244 . S
O29 Co28 2.216 . S
O29 C36 1.247 . S
O30 Co28 2.091 . S
O30 C36 1.261 . S
C31 O40 1.247 . S
C31 O41 1.272 . S
O32 Co28 2.004 . S
O32 C37 1.259 . S
Co33 O34 2.061 . S
Co33 O39 2.052 . S
Co33 O41 2.135 . S
O34 Co33 2.061 . S
O34 C37 1.235 . S
C35 O38 1.238 . S
C35 O39 1.241 . S
C36 O29 1.247 . S
C36 O30 1.261 . S
C37 O32 1.259 . S
C37 O34 1.235 . S
O38 Co28 2.021 . S
O38 C35 1.238 . S
O39 Co33 2.052 . S
O39 C35 1.241 . S
O40 Co28 2.137 . S
O40 C31 1.247 . S
O41 Co28 2.244 . S
O41 C31 1.272 . S
O41 Co33 2.135 . S
Co42 O43 2.216 . S
Co42 O44 2.091 . S
Co42 O46 2.004 . S
Co42 O52 2.021 . S
Co42 O54 2.137 . S
Co42 O55 2.244 . S
O43 Co42 2.216 . S
O43 C50 1.247 . S
O44 Co42 2.091 . S
O44 C50 1.261 . S
C45 O54 1.247 . S
C45 O55 1.272 . S
O46 Co42 2.004 . S
O46 C51 1.259 . S
Co47 O48 2.061 . S
Co47 O53 2.052 . S
Co47 O55 2.135 . S
O48 Co47 2.061 . S
O48 C51 1.235 . S
C49 O52 1.238 . S
C49 O53 1.241 . S
C50 O43 1.247 . S
C50 O44 1.261 . S
C51 O46 1.259 . S
C51 O48 1.235 . S
O52 Co42 2.021 . S
O52 C49 1.238 . S
O53 Co47 2.052 . S
O53 C49 1.241 . S
O54 Co42 2.137 . S
O54 C45 1.247 . S
O55 Co42 2.244 . S
O55 C45 1.272 . S
O55 Co47 2.135 . S
Co56 O57 2.216 . S
Co56 O58 2.091 . S
Co56 O60 2.004 . S
Co56 O66 2.021 . S
Co56 O68 2.137 . S
Co56 O69 2.244 . S
O57 Co56 2.216 . S
O57 C64 1.247 . S
O58 Co56 2.091 . S
O58 C64 1.261 . S
C59 O68 1.247 . S
C59 O69 1.272 . S
O60 Co56 2.004 . S
O60 C65 1.259 . S
Co61 O62 2.061 . S
Co61 O67 2.052 . S
Co61 O69 2.135 . S
O62 Co61 2.061 . S
O62 C65 1.235 . S
C63 O66 1.238 . S
C63 O67 1.241 . S
C64 O57 1.247 . S
C64 O58 1.261 . S
C65 O60 1.259 . S
C65 O62 1.235 . S
O66 Co56 2.021 . S
O66 C63 1.238 . S
O67 Co61 2.052 . S
O67 C63 1.241 . S
O68 Co56 2.137 . S
O68 C59 1.247 . S
O69 Co56 2.244 . S
O69 C59 1.272 . S
O69 Co61 2.135 . S
Co70 O71 2.216 . S
Co70 O72 2.091 . S
Co70 O74 2.004 . S
Co70 O80 2.021 . S
Co70 O82 2.137 . S
Co70 O83 2.244 . S
O71 Co70 2.216 . S
O71 C78 1.247 . S
O72 Co70 2.091 . S
O72 C78 1.261 . S
C73 O82 1.247 . S
C73 O83 1.272 . S
O74 Co70 2.004 . S
O74 C79 1.259 . S
Co75 O76 2.061 . S
Co75 O81 2.052 . S
Co75 O83 2.135 . S
O76 Co75 2.061 . S
O76 C79 1.235 . S
C77 O80 1.238 . S
C77 O81 1.241 . S
C78 O71 1.247 . S
C78 O72 1.261 . S
C79 O74 1.259 . S
C79 O76 1.235 . S
O80 Co70 2.021 . S
O80 C77 1.238 . S
O81 Co75 2.052 . S
O81 C77 1.241 . S
O82 Co70 2.137 . S
O82 C73 1.247 . S
O83 Co70 2.244 . S
O83 C73 1.272 . S
O83 Co75 2.135 . S
Co84 O85 2.216 . S
Co84 O86 2.091 . S
Co84 O88 2.004 . S
Co84 O94 2.021 . S
Co84 O96 2.137 . S
Co84 O97 2.244 . S
O85 Co84 2.216 . S
O85 C92 1.247 . S
O86 Co84 2.091 . S
O86 C92 1.261 . S
C87 O96 1.247 . S
C87 O97 1.272 . S
O88 Co84 2.004 . S
O88 C93 1.259 . S
Co89 O90 2.061 . S
Co89 O95 2.052 . S
Co89 O97 2.135 . S
O90 Co89 2.061 . S
O90 C93 1.235 . S
C91 O94 1.238 . S
C91 O95 1.241 . S
C92 O85 1.247 . S
C92 O86 1.261 . S
C93 O88 1.259 . S
C93 O90 1.235 . S
O94 Co84 2.021 . S
O94 C91 1.238 . S
O95 Co89 2.052 . S
O95 C91 1.241 . S
O96 Co84 2.137 . S
O96 C87 1.247 . S
O97 Co84 2.244 . S
O97 C87 1.272 . S
O97 Co89 2.135 . S
Co98 O99 2.216 . S
Co98 O100 2.091 . S
Co98 O102 2.004 . S
Co98 O108 2.021 . S
Co98 O110 2.137 . S
Co98 O111 2.244 . S
O99 Co98 2.216 . S
O99 C106 1.247 . S
O100 Co98 2.091 . S
O100 C106 1.261 . S
C101 O110 1.247 . S
C101 O111 1.272 . S
O102 Co98 2.004 . S
O102 C107 1.259 . S
Co103 O104 2.061 . S
Co103 O109 2.052 . S
Co103 O111 2.135 . S
O104 Co103 2.061 . S
O104 C107 1.235 . S
C105 O108 1.238 . S
C105 O109 1.241 . S
C106 O99 1.247 . S
C106 O100 1.261 . S
C107 O102 1.259 . S
C107 O104 1.235 . S
O108 Co98 2.021 . S
O108 C105 1.238 . S
O109 Co103 2.052 . S
O109 C105 1.241 . S
O110 Co98 2.137 . S
O110 C101 1.247 . S
O111 Co98 2.244 . S
O111 C101 1.272 . S
O111 Co103 2.135 . S
Co112 O113 2.216 . S
Co112 O114 2.091 . S
Co112 O116 2.004 . S
Co112 O122 2.021 . S
Co112 O124 2.137 . S
Co112 O125 2.244 . S
O113 Co112 2.216 . S
O113 C120 1.247 . S
O114 Co112 2.091 . S
O114 C120 1.261 . S
C115 O124 1.247 . S
C115 O125 1.272 . S
O116 Co112 2.004 . S
O116 C121 1.259 . S
Co117 O118 2.061 . S
Co117 O123 2.052 . S
Co117 O125 2.135 . S
O118 Co117 2.061 . S
O118 C121 1.235 . S
C119 O122 1.238 . S
C119 O123 1.241 . S
C120 O113 1.247 . S
C120 O114 1.261 . S
C121 O116 1.259 . S
C121 O118 1.235 . S
O122 Co112 2.021 . S
O122 C119 1.238 . S
O123 Co117 2.052 . S
O123 C119 1.241 . S
O124 Co112 2.137 . S
O124 C115 1.247 . S
O125 Co112 2.244 . S
O125 C115 1.272 . S
O125 Co117 2.135 . S
Co126 O127 2.216 . S
Co126 O128 2.091 . S
Co126 O130 2.004 . S
Co126 O136 2.021 . S
Co126 O138 2.137 . S
Co126 O139 2.244 . S
O127 Co126 2.216 . S
O127 C134 1.247 . S
O128 Co126 2.091 . S
O128 C134 1.261 . S
C129 O138 1.247 . S
C129 O139 1.272 . S
O130 Co126 2.004 . S
O130 C135 1.259 . S
Co131 O132 2.061 . S
Co131 O137 2.052 . S
Co131 O139 2.135 . S
O132 Co131 2.061 . S
O132 C135 1.235 . S
C133 O136 1.238 . S
C133 O137 1.241 . S
C134 O127 1.247 . S
C134 O128 1.261 . S
C135 O130 1.259 . S
C135 O132 1.235 . S
O136 Co126 2.021 . S
O136 C133 1.238 . S
O137 Co131 2.052 . S
O137 C133 1.241 . S
O138 Co126 2.137 . S
O138 C129 1.247 . S
O139 Co126 2.244 . S
O139 C129 1.272 . S
O139 Co131 2.135 . S
Co140 O141 2.216 . S
Co140 O142 2.091 . S
Co140 O144 2.004 . S
Co140 O150 2.021 . S
Co140 O152 2.137 . S
Co140 O153 2.244 . S
O141 Co140 2.216 . S
O141 C148 1.247 . S
O142 Co140 2.091 . S
O142 C148 1.261 . S
C143 O152 1.247 . S
C143 O153 1.272 . S
O144 Co140 2.004 . S
O144 C149 1.259 . S
Co145 O146 2.061 . S
Co145 O151 2.052 . S
Co145 O153 2.135 . S
O146 Co145 2.061 . S
O146 C149 1.235 . S
C147 O150 1.238 . S
C147 O151 1.241 . S
C148 O141 1.247 . S
C148 O142 1.261 . S
C149 O144 1.259 . S
C149 O146 1.235 . S
O150 Co140 2.021 . S
O150 C147 1.238 . S
O151 Co145 2.052 . S
O151 C147 1.241 . S
O152 Co140 2.137 . S
O152 C143 1.247 . S
O153 Co140 2.244 . S
O153 C143 1.272 . S
O153 Co145 2.135 . S
Co154 O155 2.216 . S
Co154 O156 2.091 . S
Co154 O158 2.004 . S
Co154 O164 2.021 . S
Co154 O166 2.137 . S
Co154 O167 2.244 . S
O155 Co154 2.216 . S
O155 C162 1.247 . S
O156 Co154 2.091 . S
O156 C162 1.261 . S
C157 O166 1.247 . S
C157 O167 1.272 . S
O158 Co154 2.004 . S
O158 C163 1.259 . S
Co159 O160 2.061 . S
Co159 O165 2.052 . S
Co159 O167 2.135 . S
O160 Co159 2.061 . S
O160 C163 1.235 . S
C161 O164 1.238 . S
C161 O165 1.241 . S
C162 O155 1.247 . S
C162 O156 1.261 . S
C163 O158 1.259 . S
C163 O160 1.235 . S
O164 Co154 2.021 . S
O164 C161 1.238 . S
O165 Co159 2.052 . S
O165 C161 1.241 . S
O166 Co154 2.137 . S
O166 C157 1.247 . S
O167 Co154 2.244 . S
O167 C157 1.272 . S
O167 Co159 2.135 . S
Co168 O169 2.216 . S
Co168 O170 2.091 . S
Co168 O172 2.004 . S
Co168 O178 2.021 . S
Co168 O180 2.137 . S
Co168 O181 2.244 . S
O169 Co168 2.216 . S
O169 C176 1.247 . S
O170 Co168 2.091 . S
O170 C176 1.261 . S
C171 O180 1.247 . S
C171 O181 1.272 . S
O172 Co168 2.004 . S
O172 C177 1.259 . S
Co173 O174 2.061 . S
Co173 O179 2.052 . S
Co173 O181 2.135 . S
O174 Co173 2.061 . S
O174 C177 1.235 . S
C175 O178 1.238 . S
C175 O179 1.241 . S
C176 O169 1.247 . S
C176 O170 1.261 . S
C177 O172 1.259 . S
C177 O174 1.235 . S
O178 Co168 2.021 . S
O178 C175 1.238 . S
O179 Co173 2.052 . S
O179 C175 1.241 . S
O180 Co168 2.137 . S
O180 C171 1.247 . S
O181 Co168 2.244 . S
O181 C171 1.272 . S
O181 Co173 2.135 . S
Co182 O183 2.216 . S
Co182 O184 2.091 . S
Co182 O186 2.004 . S
Co182 O192 2.021 . S
Co182 O194 2.137 . S
Co182 O195 2.244 . S
O183 Co182 2.216 . S
O183 C190 1.247 . S
O184 Co182 2.091 . S
O184 C190 1.261 . S
C185 O194 1.247 . S
C185 O195 1.272 . S
O186 Co182 2.004 . S
O186 C191 1.259 . S
Co187 O188 2.061 . S
Co187 O193 2.052 . S
Co187 O195 2.135 . S
O188 Co187 2.061 . S
O188 C191 1.235 . S
C189 O192 1.238 . S
C189 O193 1.241 . S
C190 O183 1.247 . S
C190 O184 1.261 . S
C191 O186 1.259 . S
C191 O188 1.235 . S
O192 Co182 2.021 . S
O192 C189 1.238 . S
O193 Co187 2.052 . S
O193 C189 1.241 . S
O194 Co182 2.137 . S
O194 C185 1.247 . S
O195 Co182 2.244 . S
O195 C185 1.272 . S
O195 Co187 2.135 . S
Co196 O197 2.216 . S
Co196 O198 2.091 . S
Co196 O200 2.004 . S
Co196 O206 2.021 . S
Co196 O208 2.137 . S
Co196 O209 2.244 . S
O197 Co196 2.216 . S
O197 C204 1.247 . S
O198 Co196 2.091 . S
O198 C204 1.261 . S
C199 O208 1.247 . S
C199 O209 1.272 . S
O200 Co196 2.004 . S
O200 C205 1.259 . S
Co201 O202 2.061 . S
Co201 O207 2.052 . S
Co201 O209 2.135 . S
O202 Co201 2.061 . S
O202 C205 1.235 . S
C203 O206 1.238 . S
C203 O207 1.241 . S
C204 O197 1.247 . S
C204 O198 1.261 . S
C205 O200 1.259 . S
C205 O202 1.235 . S
O206 Co196 2.021 . S
O206 C203 1.238 . S
O207 Co201 2.052 . S
O207 C203 1.241 . S
O208 Co196 2.137 . S
O208 C199 1.247 . S
O209 Co196 2.244 . S
O209 C199 1.272 . S
O209 Co201 2.135 . S
Co210 O211 2.216 . S
Co210 O212 2.091 . S
Co210 O214 2.004 . S
Co210 O220 2.021 . S
Co210 O222 2.137 . S
Co210 O223 2.244 . S
O211 Co210 2.216 . S
O211 C218 1.247 . S
O212 Co210 2.091 . S
O212 C218 1.261 . S
C213 O222 1.247 . S
C213 O223 1.272 . S
O214 Co210 2.004 . S
O214 C219 1.259 . S
Co215 O216 2.061 . S
Co215 O221 2.052 . S
Co215 O223 2.135 . S
O216 Co215 2.061 . S
O216 C219 1.235 . S
C217 O220 1.238 . S
C217 O221 1.241 . S
C218 O211 1.247 . S
C218 O212 1.261 . S
C219 O214 1.259 . S
C219 O216 1.235 . S
O220 Co210 2.021 . S
O220 C217 1.238 . S
O221 Co215 2.052 . S
O221 C217 1.241 . S
O222 Co210 2.137 . S
O222 C213 1.247 . S
O223 Co210 2.244 . S
O223 C213 1.272 . S
O223 Co215 2.135 . S
Co224 O225 2.216 . S
Co224 O226 2.091 . S
Co224 O228 2.004 . S
Co224 O234 2.021 . S
Co224 O236 2.137 . S
Co224 O237 2.244 . S
O225 Co224 2.216 . S
O225 C232 1.247 . S
O226 Co224 2.091 . S
O226 C232 1.261 . S
C227 O236 1.247 . S
C227 O237 1.272 . S
O228 Co224 2.004 . S
O228 C233 1.259 . S
Co229 O230 2.061 . S
Co229 O235 2.052 . S
Co229 O237 2.135 . S
O230 Co229 2.061 . S
O230 C233 1.235 . S
C231 O234 1.238 . S
C231 O235 1.241 . S
C232 O225 1.247 . S
C232 O226 1.261 . S
C233 O228 1.259 . S
C233 O230 1.235 . S
O234 Co224 2.021 . S
O234 C231 1.238 . S
O235 Co229 2.052 . S
O235 C231 1.241 . S
O236 Co224 2.137 . S
O236 C227 1.247 . S
O237 Co224 2.244 . S
O237 C227 1.272 . S
O237 Co229 2.135 . S
Co238 O239 2.216 . S
Co238 O240 2.091 . S
Co238 O242 2.004 . S
Co238 O248 2.021 . S
Co238 O250 2.137 . S
Co238 O251 2.244 . S
O239 Co238 2.216 . S
O239 C246 1.247 . S
O240 Co238 2.091 . S
O240 C246 1.261 . S
C241 O250 1.247 . S
C241 O251 1.272 . S
O242 Co238 2.004 . S
O242 C247 1.259 . S
Co243 O244 2.061 . S
Co243 O249 2.052 . S
Co243 O251 2.135 . S
O244 Co243 2.061 . S
O244 C247 1.235 . S
C245 O248 1.238 . S
C245 O249 1.241 . S
C246 O239 1.247 . S
C246 O240 1.261 . S
C247 O242 1.259 . S
C247 O244 1.235 . S
O248 Co238 2.021 . S
O248 C245 1.238 . S
O249 Co243 2.052 . S
O249 C245 1.241 . S
O250 Co238 2.137 . S
O250 C241 1.247 . S
O251 Co238 2.244 . S
O251 C241 1.272 . S
O251 Co243 2.135 . S
Co252 O253 2.216 . S
Co252 O254 2.091 . S
Co252 O256 2.004 . S
Co252 O262 2.021 . S
Co252 O264 2.137 . S
Co252 O265 2.244 . S
O253 Co252 2.216 . S
O253 C260 1.247 . S
O254 Co252 2.091 . S
O254 C260 1.261 . S
C255 O264 1.247 . S
C255 O265 1.272 . S
O256 Co252 2.004 . S
O256 C261 1.259 . S
Co257 O258 2.061 . S
Co257 O263 2.052 . S
Co257 O265 2.135 . S
O258 Co257 2.061 . S
O258 C261 1.235 . S
C259 O262 1.238 . S
C259 O263 1.241 . S
C260 O253 1.247 . S
C260 O254 1.261 . S
C261 O256 1.259 . S
C261 O258 1.235 . S
O262 Co252 2.021 . S
O262 C259 1.238 . S
O263 Co257 2.052 . S
O263 C259 1.241 . S
O264 Co252 2.137 . S
O264 C255 1.247 . S
O265 Co252 2.244 . S
O265 C255 1.272 . S
O265 Co257 2.135 . S
Co266 O267 2.216 . S
Co266 O268 2.091 . S
Co266 O270 2.004 . S
Co266 O276 2.021 . S
Co266 O278 2.137 . S
Co266 O279 2.244 . S
O267 Co266 2.216 . S
O267 C274 1.247 . S
O268 Co266 2.091 . S
O268 C274 1.261 . S
C269 O278 1.247 . S
C269 O279 1.272 . S
O270 Co266 2.004 . S
O270 C275 1.259 . S
Co271 O272 2.061 . S
Co271 O277 2.052 . S
Co271 O279 2.135 . S
O272 Co271 2.061 . S
O272 C275 1.235 . S
C273 O276 1.238 . S
C273 O277 1.241 . S
C274 O267 1.247 . S
C274 O268 1.261 . S
C275 O270 1.259 . S
C275 O272 1.235 . S
O276 Co266 2.021 . S
O276 C273 1.238 . S
O277 Co271 2.052 . S
O277 C273 1.241 . S
O278 Co266 2.137 . S
O278 C269 1.247 . S
O279 Co266 2.244 . S
O279 C269 1.272 . S
O279 Co271 2.135 . S
Co280 O281 2.216 . S
Co280 O282 2.091 . S
Co280 O284 2.004 . S
Co280 O290 2.021 . S
Co280 O292 2.137 . S
Co280 O293 2.244 . S
O281 Co280 2.216 . S
O281 C288 1.247 . S
O282 Co280 2.091 . S
O282 C288 1.261 . S
C283 O292 1.247 . S
C283 O293 1.272 . S
O284 Co280 2.004 . S
O284 C289 1.259 . S
Co285 O286 2.061 . S
Co285 O291 2.052 . S
Co285 O293 2.135 . S
O286 Co285 2.061 . S
O286 C289 1.235 . S
C287 O290 1.238 . S
C287 O291 1.241 . S
C288 O281 1.247 . S
C288 O282 1.261 . S
C289 O284 1.259 . S
C289 O286 1.235 . S
O290 Co280 2.021 . S
O290 C287 1.238 . S
O291 Co285 2.052 . S
O291 C287 1.241 . S
O292 Co280 2.137 . S
O292 C283 1.247 . S
O293 Co280 2.244 . S
O293 C283 1.272 . S
O293 Co285 2.135 . S
Co294 O295 2.216 . S
Co294 O296 2.091 . S
Co294 O298 2.004 . S
Co294 O304 2.021 . S
Co294 O306 2.137 . S
Co294 O307 2.244 . S
O295 Co294 2.216 . S
O295 C302 1.247 . S
O296 Co294 2.091 . S
O296 C302 1.261 . S
C297 O306 1.247 . S
C297 O307 1.272 . S
O298 Co294 2.004 . S
O298 C303 1.259 . S
Co299 O300 2.061 . S
Co299 O305 2.052 . S
Co299 O307 2.135 . S
O300 Co299 2.061 . S
O300 C303 1.235 . S
C301 O304 1.238 . S
C301 O305 1.241 . S
C302 O295 1.247 . S
C302 O296 1.261 . S
C303 O298 1.259 . S
C303 O300 1.235 . S
O304 Co294 2.021 . S
O304 C301 1.238 . S
O305 Co299 2.052 . S
O305 C301 1.241 . S
O306 Co294 2.137 . S
O306 C297 1.247 . S
O307 Co294 2.244 . S
O307 C297 1.272 . S
O307 Co299 2.135 . S
Co308 O309 2.216 . S
Co308 O310 2.091 . S
Co308 O312 2.004 . S
Co308 O318 2.021 . S
Co308 O320 2.137 . S
Co308 O321 2.244 . S
O309 Co308 2.216 . S
O309 C316 1.247 . S
O310 Co308 2.091 . S
O310 C316 1.261 . S
C311 O320 1.247 . S
C311 O321 1.272 . S
O312 Co308 2.004 . S
O312 C317 1.259 . S
Co313 O314 2.061 . S
Co313 O319 2.052 . S
Co313 O321 2.135 . S
O314 Co313 2.061 . S
O314 C317 1.235 . S
C315 O318 1.238 . S
C315 O319 1.241 . S
C316 O309 1.247 . S
C316 O310 1.261 . S
C317 O312 1.259 . S
C317 O314 1.235 . S
O318 Co308 2.021 . S
O318 C315 1.238 . S
O319 Co313 2.052 . S
O319 C315 1.241 . S
O320 Co308 2.137 . S
O320 C311 1.247 . S
O321 Co308 2.244 . S
O321 C311 1.272 . S
O321 Co313 2.135 . S
Co322 O323 2.216 . S
Co322 O324 2.091 . S
Co322 O326 2.004 . S
Co322 O332 2.021 . S
Co322 O334 2.137 . S
Co322 O335 2.244 . S
O323 Co322 2.216 . S
O323 C330 1.247 . S
O324 Co322 2.091 . S
O324 C330 1.261 . S
C325 O334 1.247 . S
C325 O335 1.272 . S
O326 Co322 2.004 . S
O326 C331 1.259 . S
Co327 O328 2.061 . S
Co327 O333 2.052 . S
Co327 O335 2.135 . S
O328 Co327 2.061 . S
O328 C331 1.235 . S
C329 O332 1.238 . S
C329 O333 1.241 . S
C330 O323 1.247 . S
C330 O324 1.261 . S
C331 O326 1.259 . S
C331 O328 1.235 . S
O332 Co322 2.021 . S
O332 C329 1.238 . S
O333 Co327 2.052 . S
O333 C329 1.241 . S
O334 Co322 2.137 . S
O334 C325 1.247 . S
O335 Co322 2.244 . S
O335 C325 1.272 . S
O335 Co327 2.135 . S
Co336 O337 2.216 . S
Co336 O338 2.091 . S
Co336 O340 2.004 . S
Co336 O346 2.021 . S
Co336 O348 2.137 . S
Co336 O349 2.244 . S
O337 Co336 2.216 . S
O337 C344 1.247 . S
O338 Co336 2.091 . S
O338 C344 1.261 . S
C339 O348 1.247 . S
C339 O349 1.272 . S
O340 Co336 2.004 . S
O340 C345 1.259 . S
Co341 O342 2.061 . S
Co341 O347 2.052 . S
Co341 O349 2.135 . S
O342 Co341 2.061 . S
O342 C345 1.235 . S
C343 O346 1.238 . S
C343 O347 1.241 . S
C344 O337 1.247 . S
C344 O338 1.261 . S
C345 O340 1.259 . S
C345 O342 1.235 . S
O346 Co336 2.021 . S
O346 C343 1.238 . S
O347 Co341 2.052 . S
O347 C343 1.241 . S
O348 Co336 2.137 . S
O348 C339 1.247 . S
O349 Co336 2.244 . S
O349 C339 1.272 . S
O349 Co341 2.135 . S
Co350 O351 2.216 . S
Co350 O352 2.091 . S
Co350 O354 2.004 . S
Co350 O360 2.021 . S
Co350 O362 2.137 . S
Co350 O363 2.244 . S
O351 Co350 2.216 . S
O351 C358 1.247 . S
O352 Co350 2.091 . S
O352 C358 1.261 . S
C353 O362 1.247 . S
C353 O363 1.272 . S
O354 Co350 2.004 . S
O354 C359 1.259 . S
Co355 O356 2.061 . S
Co355 O361 2.052 . S
Co355 O363 2.135 . S
O356 Co355 2.061 . S
O356 C359 1.235 . S
C357 O360 1.238 . S
C357 O361 1.241 . S
C358 O351 1.247 . S
C358 O352 1.261 . S
C359 O354 1.259 . S
C359 O356 1.235 . S
O360 Co350 2.021 . S
O360 C357 1.238 . S
O361 Co355 2.052 . S
O361 C357 1.241 . S
O362 Co350 2.137 . S
O362 C353 1.247 . S
O363 Co350 2.244 . S
O363 C353 1.272 . S
O363 Co355 2.135 . S
Co364 O365 2.216 . S
Co364 O366 2.091 . S
Co364 O368 2.004 . S
Co364 O374 2.021 . S
Co364 O376 2.137 . S
Co364 O377 2.244 . S
O365 Co364 2.216 . S
O365 C372 1.247 . S
O366 Co364 2.091 . S
O366 C372 1.261 . S
C367 O376 1.247 . S
C367 O377 1.272 . S
O368 Co364 2.004 . S
O368 C373 1.259 . S
Co369 O370 2.061 . S
Co369 O375 2.052 . S
Co369 O377 2.135 . S
O370 Co369 2.061 . S
O370 C373 1.235 . S
C371 O374 1.238 . S
C371 O375 1.241 . S
C372 O365 1.247 . S
C372 O366 1.261 . S
C373 O368 1.259 . S
C373 O370 1.235 . S
O374 Co364 2.021 . S
O374 C371 1.238 . S
O375 Co369 2.052 . S
O375 C371 1.241 . S
O376 Co364 2.137 . S
O376 C367 1.247 . S
O377 Co364 2.244 . S
O377 C367 1.272 . S
O377 Co369 2.135 . S
Co378 O379 2.216 . S
Co378 O380 2.091 . S
Co378 O382 2.004 . S
Co378 O388 2.021 . S
Co378 O390 2.137 . S
Co378 O391 2.244 . S
O379 Co378 2.216 . S
O379 C386 1.247 . S
O380 Co378 2.091 . S
O380 C386 1.261 . S
C381 O390 1.247 . S
C381 O391 1.272 . S
O382 Co378 2.004 . S
O382 C387 1.259 . S
Co383 O384 2.061 . S
Co383 O389 2.052 . S
Co383 O391 2.135 . S
O384 Co383 2.061 . S
O384 C387 1.235 . S
C385 O388 1.238 . S
C385 O389 1.241 . S
C386 O379 1.247 . S
C386 O380 1.261 . S
C387 O382 1.259 . S
C387 O384 1.235 . S
O388 Co378 2.021 . S
O388 C385 1.238 . S
O389 Co383 2.052 . S
O389 C385 1.241 . S
O390 Co378 2.137 . S
O390 C381 1.247 . S
O391 Co378 2.244 . S
O391 C381 1.272 . S
O391 Co383 2.135 . S
Co392 O393 2.216 . S
Co392 O394 2.091 . S
Co392 O396 2.004 . S
Co392 O402 2.021 . S
Co392 O404 2.137 . S
Co392 O405 2.244 . S
O393 Co392 2.216 . S
O393 C400 1.247 . S
O394 Co392 2.091 . S
O394 C400 1.261 . S
C395 O404 1.247 . S
C395 O405 1.272 . S
O396 Co392 2.004 . S
O396 C401 1.259 . S
Co397 O398 2.061 . S
Co397 O403 2.052 . S
Co397 O405 2.135 . S
O398 Co397 2.061 . S
O398 C401 1.235 . S
C399 O402 1.238 . S
C399 O403 1.241 . S
C400 O393 1.247 . S
C400 O394 1.261 . S
C401 O396 1.259 . S
C401 O398 1.235 . S
O402 Co392 2.021 . S
O402 C399 1.238 . S
O403 Co397 2.052 . S
O403 C399 1.241 . S
O404 Co392 2.137 . S
O404 C395 1.247 . S
O405 Co392 2.244 . S
O405 C395 1.272 . S
O405 Co397 2.135 . S
Co406 O407 2.216 . S
Co406 O408 2.091 . S
Co406 O410 2.004 . S
Co406 O416 2.021 . S
Co406 O418 2.137 . S
Co406 O419 2.244 . S
O407 Co406 2.216 . S
O407 C414 1.247 . S
O408 Co406 2.091 . S
O408 C414 1.261 . S
C409 O418 1.247 . S
C409 O419 1.272 . S
O410 Co406 2.004 . S
O410 C415 1.259 . S
Co411 O412 2.061 . S
Co411 O417 2.052 . S
Co411 O419 2.135 . S
O412 Co411 2.061 . S
O412 C415 1.235 . S
C413 O416 1.238 . S
C413 O417 1.241 . S
C414 O407 1.247 . S
C414 O408 1.261 . S
C415 O410 1.259 . S
C415 O412 1.235 . S
O416 Co406 2.021 . S
O416 C413 1.238 . S
O417 Co411 2.052 . S
O417 C413 1.241 . S
O418 Co406 2.137 . S
O418 C409 1.247 . S
O419 Co406 2.244 . S
O419 C409 1.272 . S
O419 Co411 2.135 . S
Co420 O421 2.216 . S
Co420 O422 2.091 . S
Co420 O424 2.004 . S
Co420 O430 2.021 . S
Co420 O432 2.137 . S
Co420 O433 2.244 . S
O421 Co420 2.216 . S
O421 C428 1.247 . S
O422 Co420 2.091 . S
O422 C428 1.261 . S
C423 O432 1.247 . S
C423 O433 1.272 . S
O424 Co420 2.004 . S
O424 C429 1.259 . S
Co425 O426 2.061 . S
Co425 O431 2.052 . S
Co425 O433 2.135 . S
O426 Co425 2.061 . S
O426 C429 1.235 . S
C427 O430 1.238 . S
C427 O431 1.241 . S
C428 O421 1.247 . S
C428 O422 1.261 . S
C429 O424 1.259 . S
C429 O426 1.235 . S
O430 Co420 2.021 . S
O430 C427 1.238 . S
O431 Co425 2.052 . S
O431 C427 1.241 . S
O432 Co420 2.137 . S
O432 C423 1.247 . S
O433 Co420 2.244 . S
O433 C423 1.272 . S
O433 Co425 2.135 . S
Co434 O435 2.216 . S
Co434 O436 2.091 . S
Co434 O438 2.004 . S
Co434 O444 2.021 . S
Co434 O446 2.137 . S
Co434 O447 2.244 . S
O435 Co434 2.216 . S
O435 C442 1.247 . S
O436 Co434 2.091 . S
O436 C442 1.261 . S
C437 O446 1.247 . S
C437 O447 1.272 . S
O438 Co434 2.004 . S
O438 C443 1.259 . S
Co439 O440 2.061 . S
Co439 O445 2.052 . S
Co439 O447 2.135 . S
O440 Co439 2.061 . S
O440 C443 1.235 . S
C441 O444 1.238 . S
C441 O445 1.241 . S
C442 O435 1.247 . S
C442 O436 1.261 . S
C443 O438 1.259 . S
C443 O440 1.235 . S
O444 Co434 2.021 . S
O444 C441 1.238 . S
O445 Co439 2.052 . S
O445 C441 1.241 . S
O446 Co434 2.137 . S
O446 C437 1.247 . S
O447 Co434 2.244 . S
O447 C437 1.272 . S
O447 Co439 2.135 . S
Co448 O449 2.216 . S
Co448 O450 2.091 . S
Co448 O452 2.004 . S
Co448 O458 2.021 . S
Co448 O460 2.137 . S
Co448 O461 2.244 . S
O449 Co448 2.216 . S
O449 C456 1.247 . S
O450 Co448 2.091 . S
O450 C456 1.261 . S
C451 O460 1.247 . S
C451 O461 1.272 . S
O452 Co448 2.004 . S
O452 C457 1.259 . S
Co453 O454 2.061 . S
Co453 O459 2.052 . S
Co453 O461 2.135 . S
O454 Co453 2.061 . S
O454 C457 1.235 . S
C455 O458 1.238 . S
C455 O459 1.241 . S
C456 O449 1.247 . S
C456 O450 1.261 . S
C457 O452 1.259 . S
C457 O454 1.235 . S
O458 Co448 2.021 . S
O458 C455 1.238 . S
O459 Co453 2.052 . S
O459 C455 1.241 . S
O460 Co448 2.137 . S
O460 C451 1.247 . S
O461 Co448 2.244 . S
O461 C451 1.272 . S
O461 Co453 2.135 . S
Co462 O463 2.216 . S
Co462 O464 2.091 . S
Co462 O466 2.004 . S
Co462 O472 2.021 . S
Co462 O474 2.137 . S
Co462 O475 2.244 . S
O463 Co462 2.216 . S
O463 C470 1.247 . S
O464 Co462 2.091 . S
O464 C470 1.261 . S
C465 O474 1.247 . S
C465 O475 1.272 . S
O466 Co462 2.004 . S
O466 C471 1.259 . S
Co467 O468 2.061 . S
Co467 O473 2.052 . S
Co467 O475 2.135 . S
O468 Co467 2.061 . S
O468 C471 1.235 . S
C469 O472 1.238 . S
C469 O473 1.241 . S
C470 O463 1.247 . S
C470 O464 1.261 . S
C471 O466 1.259 . S
C471 O468 1.235 . S
O472 Co462 2.021 . S
O472 C469 1.238 . S
O473 Co467 2.052 . S
O473 C469 1.241 . S
O474 Co462 2.137 . S
O474 C465 1.247 . S
O475 Co462 2.244 . S
O475 C465 1.272 . S
O475 Co467 2.135 . S
Co476 O477 2.216 . S
Co476 O478 2.091 . S
Co476 O480 2.004 . S
Co476 O486 2.021 . S
Co476 O488 2.137 . S
Co476 O489 2.244 . S
O477 Co476 2.216 . S
O477 C484 1.247 . S
O478 Co476 2.091 . S
O478 C484 1.261 . S
C479 O488 1.247 . S
C479 O489 1.272 . S
O480 Co476 2.004 . S
O480 C485 1.259 . S
Co481 O482 2.061 . S
Co481 O487 2.052 . S
Co481 O489 2.135 . S
O482 Co481 2.061 . S
O482 C485 1.235 . S
C483 O486 1.238 . S
C483 O487 1.241 . S
C484 O477 1.247 . S
C484 O478 1.261 . S
C485 O480 1.259 . S
C485 O482 1.235 . S
O486 Co476 2.021 . S
O486 C483 1.238 . S
O487 Co481 2.052 . S
O487 C483 1.241 . S
O488 Co476 2.137 . S
O488 C479 1.247 . S
O489 Co476 2.244 . S
O489 C479 1.272 . S
O489 Co481 2.135 . S
Co490 O491 2.216 . S
Co490 O492 2.091 . S
Co490 O494 2.004 . S
Co490 O500 2.021 . S
Co490 O502 2.137 . S
Co490 O503 2.244 . S
O491 Co490 2.216 . S
O491 C498 1.247 . S
O492 Co490 2.091 . S
O492 C498 1.261 . S
C493 O502 1.247 . S
C493 O503 1.272 . S
O494 Co490 2.004 . S
O494 C499 1.259 . S
Co495 O496 2.061 . S
Co495 O501 2.052 . S
Co495 O503 2.135 . S
O496 Co495 2.061 . S
O496 C499 1.235 . S
C497 O500 1.238 . S
C497 O501 1.241 . S
C498 O491 1.247 . S
C498 O492 1.261 . S
C499 O494 1.259 . S
C499 O496 1.235 . S
O500 Co490 2.021 . S
O500 C497 1.238 . S
O501 Co495 2.052 . S
O501 C497 1.241 . S
O502 Co490 2.137 . S
O502 C493 1.247 . S
O503 Co490 2.244 . S
O503 C493 1.272 . S
O503 Co495 2.135 . S
Co504 O505 2.216 . S
Co504 O506 2.091 . S
Co504 O508 2.004 . S
Co504 O514 2.021 . S
Co504 O516 2.137 . S
Co504 O517 2.244 . S
O505 Co504 2.216 . S
O505 C512 1.247 . S
O506 Co504 2.091 . S
O506 C512 1.261 . S
C507 O516 1.247 . S
C507 O517 1.272 . S
O508 Co504 2.004 . S
O508 C513 1.259 . S
Co509 O510 2.061 . S
Co509 O515 2.052 . S
Co509 O517 2.135 . S
O510 Co509 2.061 . S
O510 C513 1.235 . S
C511 O514 1.238 . S
C511 O515 1.241 . S
C512 O505 1.247 . S
C512 O506 1.261 . S
C513 O508 1.259 . S
C513 O510 1.235 . S
O514 Co504 2.021 . S
O514 C511 1.238 . S
O515 Co509 2.052 . S
O515 C511 1.241 . S
O516 Co504 2.137 . S
O516 C507 1.247 . S
O517 Co504 2.244 . S
O517 C507 1.272 . S
O517 Co509 2.135 . S
Co518 O519 2.216 . S
Co518 O520 2.091 . S
Co518 O522 2.004 . S
Co518 O528 2.021 . S
Co518 O530 2.137 . S
Co518 O531 2.244 . S
O519 Co518 2.216 . S
O519 C526 1.247 . S
O520 Co518 2.091 . S
O520 C526 1.261 . S
C521 O530 1.247 . S
C521 O531 1.272 . S
O522 Co518 2.004 . S
O522 C527 1.259 . S
Co523 O524 2.061 . S
Co523 O529 2.052 . S
Co523 O531 2.135 . S
O524 Co523 2.061 . S
O524 C527 1.235 . S
C525 O528 1.238 . S
C525 O529 1.241 . S
C526 O519 1.247 . S
C526 O520 1.261 . S
C527 O522 1.259 . S
C527 O524 1.235 . S
O528 Co518 2.021 . S
O528 C525 1.238 . S
O529 Co523 2.052 . S
O529 C525 1.241 . S
O530 Co518 2.137 . S
O530 C521 1.247 . S
O531 Co518 2.244 . S
O531 C521 1.272 . S
O531 Co523 2.135 . S
Co532 O533 2.216 . S
Co532 O534 2.091 . S
Co532 O536 2.004 . S
Co532 O542 2.021 . S
Co532 O544 2.137 . S
Co532 O545 2.244 . S
O533 Co532 2.216 . S
O533 C540 1.247 . S
O534 Co532 2.091 . S
O534 C540 1.261 . S
C535 O544 1.247 . S
C535 O545 1.272 . S
O536 Co532 2.004 . S
O536 C541 1.259 . S
Co537 O538 2.061 . S
Co537 O543 2.052 . S
Co537 O545 2.135 . S
O538 Co537 2.061 . S
O538 C541 1.235 . S
C539 O542 1.238 . S
C539 O543 1.241 . S
C540 O533 1.247 . S
C540 O534 1.261 . S
C541 O536 1.259 . S
C541 O538 1.235 . S
O542 Co532 2.021 . S
O542 C539 1.238 . S
O543 Co537 2.052 . S
O543 C539 1.241 . S
O544 Co532 2.137 . S
O544 C535 1.247 . S
O545 Co532 2.244 . S
O545 C535 1.272 . S
O545 Co537 2.135 . S
Co546 O547 2.216 . S
Co546 O548 2.091 . S
Co546 O550 2.004 . S
Co546 O556 2.021 . S
Co546 O558 2.137 . S
Co546 O559 2.244 . S
O547 Co546 2.216 . S
O547 C554 1.247 . S
O548 Co546 2.091 . S
O548 C554 1.261 . S
C549 O558 1.247 . S
C549 O559 1.272 . S
O550 Co546 2.004 . S
O550 C555 1.259 . S
Co551 O552 2.061 . S
Co551 O557 2.052 . S
Co551 O559 2.135 . S
O552 Co551 2.061 . S
O552 C555 1.235 . S
C553 O556 1.238 . S
C553 O557 1.241 . S
C554 O547 1.247 . S
C554 O548 1.261 . S
C555 O550 1.259 . S
C555 O552 1.235 . S
O556 Co546 2.021 . S
O556 C553 1.238 . S
O557 Co551 2.052 . S
O557 C553 1.241 . S
O558 Co546 2.137 . S
O558 C549 1.247 . S
O559 Co546 2.244 . S
O559 C549 1.272 . S
O559 Co551 2.135 . S
Co560 O561 2.216 . S
Co560 O562 2.091 . S
Co560 O564 2.004 . S
Co560 O570 2.021 . S
Co560 O572 2.137 . S
Co560 O573 2.244 . S
O561 Co560 2.216 . S
O561 C568 1.247 . S
O562 Co560 2.091 . S
O562 C568 1.261 . S
C563 O572 1.247 . S
C563 O573 1.272 . S
O564 Co560 2.004 . S
O564 C569 1.259 . S
Co565 O566 2.061 . S
Co565 O571 2.052 . S
Co565 O573 2.135 . S
O566 Co565 2.061 . S
O566 C569 1.235 . S
C567 O570 1.238 . S
C567 O571 1.241 . S
C568 O561 1.247 . S
C568 O562 1.261 . S
C569 O564 1.259 . S
C569 O566 1.235 . S
O570 Co560 2.021 . S
O570 C567 1.238 . S
O571 Co565 2.052 . S
O571 C567 1.241 . S
O572 Co560 2.137 . S
O572 C563 1.247 . S
O573 Co560 2.244 . S
O573 C563 1.272 . S
O573 Co565 2.135 . S
Co574 O575 2.216 . S
Co574 O576 2.091 . S
Co574 O578 2.004 . S
Co574 O584 2.021 . S
Co574 O586 2.137 . S
Co574 O587 2.244 . S
O575 Co574 2.216 . S
O575 C582 1.247 . S
O576 Co574 2.091 . S
O576 C582 1.261 . S
C577 O586 1.247 . S
C577 O587 1.272 . S
O578 Co574 2.004 . S
O578 C583 1.259 . S
Co579 O580 2.061 . S
Co579 O585 2.052 . S
Co579 O587 2.135 . S
O580 Co579 2.061 . S
O580 C583 1.235 . S
C581 O584 1.238 . S
C581 O585 1.241 . S
C582 O575 1.247 . S
C582 O576 1.261 . S
C583 O578 1.259 . S
C583 O580 1.235 . S
O584 Co574 2.021 . S
O584 C581 1.238 . S
O585 Co579 2.052 . S
O585 C581 1.241 . S
O586 Co574 2.137 . S
O586 C577 1.247 . S
O587 Co574 2.244 . S
O587 C577 1.272 . S
O587 Co579 2.135 . S
Co588 O589 2.216 . S
Co588 O590 2.091 . S
Co588 O592 2.004 . S
Co588 O598 2.021 . S
Co588 O600 2.137 . S
Co588 O601 2.244 . S
O589 Co588 2.216 . S
O589 C596 1.247 . S
O590 Co588 2.091 . S
O590 C596 1.261 . S
C591 O600 1.247 . S
C591 O601 1.272 . S
O592 Co588 2.004 . S
O592 C597 1.259 . S
Co593 O594 2.061 . S
Co593 O599 2.052 . S
Co593 O601 2.135 . S
O594 Co593 2.061 . S
O594 C597 1.235 . S
C595 O598 1.238 . S
C595 O599 1.241 . S
C596 O589 1.247 . S
C596 O590 1.261 . S
C597 O592 1.259 . S
C597 O594 1.235 . S
O598 Co588 2.021 . S
O598 C595 1.238 . S
O599 Co593 2.052 . S
O599 C595 1.241 . S
O600 Co588 2.137 . S
O600 C591 1.247 . S
O601 Co588 2.244 . S
O601 C591 1.272 . S
O601 Co593 2.135 . S
Co602 O603 2.216 . S
Co602 O604 2.091 . S
Co602 O606 2.004 . S
Co602 O612 2.021 . S
Co602 O614 2.137 . S
Co602 O615 2.244 . S
O603 Co602 2.216 . S
O603 C610 1.247 . S
O604 Co602 2.091 . S
O604 C610 1.261 . S
C605 O614 1.247 . S
C605 O615 1.272 . S
O606 Co602 2.004 . S
O606 C611 1.259 . S
Co607 O608 2.061 . S
Co607 O613 2.052 . S
Co607 O615 2.135 . S
O608 Co607 2.061 . S
O608 C611 1.235 . S
C609 O612 1.238 . S
C609 O613 1.241 . S
C610 O603 1.247 . S
C610 O604 1.261 . S
C611 O606 1.259 . S
C611 O608 1.235 . S
O612 Co602 2.021 . S
O612 C609 1.238 . S
O613 Co607 2.052 . S
O613 C609 1.241 . S
O614 Co602 2.137 . S
O614 C605 1.247 . S
O615 Co602 2.244 . S
O615 C605 1.272 . S
O615 Co607 2.135 . S
Co616 O617 2.216 . S
Co616 O618 2.091 . S
Co616 O620 2.004 . S
Co616 O626 2.021 . S
Co616 O628 2.137 . S
Co616 O629 2.244 . S
O617 Co616 2.216 . S
O617 C624 1.247 . S
O618 Co616 2.091 . S
O618 C624 1.261 . S
C619 O628 1.247 . S
C619 O629 1.272 . S
O620 Co616 2.004 . S
O620 C625 1.259 . S
Co621 O622 2.061 . S
Co621 O627 2.052 . S
Co621 O629 2.135 . S
O622 Co621 2.061 . S
O622 C625 1.235 . S
C623 O626 1.238 . S
C623 O627 1.241 . S
C624 O617 1.247 . S
C624 O618 1.261 . S
C625 O620 1.259 . S
C625 O622 1.235 . S
O626 Co616 2.021 . S
O626 C623 1.238 . S
O627 Co621 2.052 . S
O627 C623 1.241 . S
O628 Co616 2.137 . S
O628 C619 1.247 . S
O629 Co616 2.244 . S
O629 C619 1.272 . S
O629 Co621 2.135 . S
Co630 O631 2.216 . S
Co630 O632 2.091 . S
Co630 O634 2.004 . S
Co630 O640 2.021 . S
Co630 O642 2.137 . S
Co630 O643 2.244 . S
O631 Co630 2.216 . S
O631 C638 1.247 . S
O632 Co630 2.091 . S
O632 C638 1.261 . S
C633 O642 1.247 . S
C633 O643 1.272 . S
O634 Co630 2.004 . S
O634 C639 1.259 . S
Co635 O636 2.061 . S
Co635 O641 2.052 . S
Co635 O643 2.135 . S
O636 Co635 2.061 . S
O636 C639 1.235 . S
C637 O640 1.238 . S
C637 O641 1.241 . S
C638 O631 1.247 . S
C638 O632 1.261 . S
C639 O634 1.259 . S
C639 O636 1.235 . S
O640 Co630 2.021 . S
O640 C637 1.238 . S
O641 Co635 2.052 . S
O641 C637 1.241 . S
O642 Co630 2.137 . S
O642 C633 1.247 . S
O643 Co630 2.244 . S
O643 C633 1.272 . S
O643 Co635 2.135 . S
Co644 O645 2.216 . S
Co644 O646 2.091 . S
Co644 O648 2.004 . S
Co644 O654 2.021 . S
Co644 O656 2.137 . S
Co644 O657 2.244 . S
O645 Co644 2.216 . S
O645 C652 1.247 . S
O646 Co644 2.091 . S
O646 C652 1.261 . S
C647 O656 1.247 . S
C647 O657 1.272 . S
O648 Co644 2.004 . S
O648 C653 1.259 . S
Co649 O650 2.061 . S
Co649 O655 2.052 . S
Co649 O657 2.135 . S
O650 Co649 2.061 . S
O650 C653 1.235 . S
C651 O654 1.238 . S
C651 O655 1.241 . S
C652 O645 1.247 . S
C652 O646 1.261 . S
C653 O648 1.259 . S
C653 O650 1.235 . S
O654 Co644 2.021 . S
O654 C651 1.238 . S
O655 Co649 2.052 . S
O655 C651 1.241 . S
O656 Co644 2.137 . S
O656 C647 1.247 . S
O657 Co644 2.244 . S
O657 C647 1.272 . S
O657 Co649 2.135 . S
Co658 O659 2.216 . S
Co658 O660 2.091 . S
Co658 O662 2.004 . S
Co658 O668 2.021 . S
Co658 O670 2.137 . S
Co658 O671 2.244 . S
O659 Co658 2.216 . S
O659 C666 1.247 . S
O660 Co658 2.091 . S
O660 C666 1.261 . S
C661 O670 1.247 . S
C661 O671 1.272 . S
O662 Co658 2.004 . S
O662 C667 1.259 . S
Co663 O664 2.061 . S
Co663 O669 2.052 . S
Co663 O671 2.135 . S
O664 Co663 2.061 . S
O664 C667 1.235 . S
C665 O668 1.238 . S
C665 O669 1.241 . S
C666 O659 1.247 . S
C666 O660 1.261 . S
C667 O662 1.259 . S
C667 O664 1.235 . S
O668 Co658 2.021 . S
O668 C665 1.238 . S
O669 Co663 2.052 . S
O669 C665 1.241 . S
O670 Co658 2.137 . S
O670 C661 1.247 . S
O671 Co658 2.244 . S
O671 C661 1.272 . S
O671 Co663 2.135 . S
Co672 O673 2.216 . S
Co672 O674 2.091 . S
Co672 O676 2.004 . S
Co672 O682 2.021 . S
Co672 O684 2.137 . S
Co672 O685 2.244 . S
O673 Co672 2.216 . S
O673 C680 1.247 . S
O674 Co672 2.091 . S
O674 C680 1.261 . S
C675 O684 1.247 . S
C675 O685 1.272 . S
O676 Co672 2.004 . S
O676 C681 1.259 . S
Co677 O678 2.061 . S
Co677 O683 2.052 . S
Co677 O685 2.135 . S
O678 Co677 2.061 . S
O678 C681 1.235 . S
C679 O682 1.238 . S
C679 O683 1.241 . S
C680 O673 1.247 . S
C680 O674 1.261 . S
C681 O676 1.259 . S
C681 O678 1.235 . S
O682 Co672 2.021 . S
O682 C679 1.238 . S
O683 Co677 2.052 . S
O683 C679 1.241 . S
O684 Co672 2.137 . S
O684 C675 1.247 . S
O685 Co672 2.244 . S
O685 C675 1.272 . S
O685 Co677 2.135 . S
Co686 O687 2.216 . S
Co686 O688 2.091 . S
Co686 O690 2.004 . S
Co686 O696 2.021 . S
Co686 O698 2.137 . S
Co686 O699 2.244 . S
O687 Co686 2.216 . S
O687 C694 1.247 . S
O688 Co686 2.091 . S
O688 C694 1.261 . S
C689 O698 1.247 . S
C689 O699 1.272 . S
O690 Co686 2.004 . S
O690 C695 1.259 . S
Co691 O692 2.061 . S
Co691 O697 2.052 . S
Co691 O699 2.135 . S
O692 Co691 2.061 . S
O692 C695 1.235 . S
C693 O696 1.238 . S
C693 O697 1.241 . S
C694 O687 1.247 . S
C694 O688 1.261 . S
C695 O690 1.259 . S
C695 O692 1.235 . S
O696 Co686 2.021 . S
O696 C693 1.238 . S
O697 Co691 2.052 . S
O697 C693 1.241 . S
O698 Co686 2.137 . S
O698 C689 1.247 . S
O699 Co686 2.244 . S
O699 C689 1.272 . S
O699 Co691 2.135 . S
Co700 O701 2.216 . S
Co700 O702 2.091 . S
Co700 O704 2.004 . S
Co700 O710 2.021 . S
Co700 O712 2.137 . S
Co700 O713 2.244 . S
O701 Co700 2.216 . S
O701 C708 1.247 . S
O702 Co700 2.091 . S
O702 C708 1.261 . S
C703 O712 1.247 . S
C703 O713 1.272 . S
O704 Co700 2.004 . S
O704 C709 1.259 . S
Co705 O706 2.061 . S
Co705 O711 2.052 . S
Co705 O713 2.135 . S
O706 Co705 2.061 . S
O706 C709 1.235 . S
C707 O710 1.238 . S
C707 O711 1.241 . S
C708 O701 1.247 . S
C708 O702 1.261 . S
C709 O704 1.259 . S
C709 O706 1.235 . S
O710 Co700 2.021 . S
O710 C707 1.238 . S
O711 Co705 2.052 . S
O711 C707 1.241 . S
O712 Co700 2.137 . S
O712 C703 1.247 . S
O713 Co700 2.244 . S
O713 C703 1.272 . S
O713 Co705 2.135 . S
Co714 O715 2.216 . S
Co714 O716 2.091 . S
Co714 O718 2.004 . S
Co714 O724 2.021 . S
Co714 O726 2.137 . S
Co714 O727 2.244 . S
O715 Co714 2.216 . S
O715 C722 1.247 . S
O716 Co714 2.091 . S
O716 C722 1.261 . S
C717 O726 1.247 . S
C717 O727 1.272 . S
O718 Co714 2.004 . S
O718 C723 1.259 . S
Co719 O720 2.061 . S
Co719 O725 2.052 . S
Co719 O727 2.135 . S
O720 Co719 2.061 . S
O720 C723 1.235 . S
C721 O724 1.238 . S
C721 O725 1.241 . S
C722 O715 1.247 . S
C722 O716 1.261 . S
C723 O718 1.259 . S
C723 O720 1.235 . S
O724 Co714 2.021 . S
O724 C721 1.238 . S
O725 Co719 2.052 . S
O725 C721 1.241 . S
O726 Co714 2.137 . S
O726 C717 1.247 . S
O727 Co714 2.244 . S
O727 C717 1.272 . S
O727 Co719 2.135 . S
Co728 O729 2.216 . S
Co728 O730 2.091 . S
Co728 O732 2.004 . S
Co728 O738 2.021 . S
Co728 O740 2.137 . S
Co728 O741 2.244 . S
O729 Co728 2.216 . S
O729 C736 1.247 . S
O730 Co728 2.091 . S
O730 C736 1.261 . S
C731 O740 1.247 . S
C731 O741 1.272 . S
O732 Co728 2.004 . S
O732 C737 1.259 . S
Co733 O734 2.061 . S
Co733 O739 2.052 . S
Co733 O741 2.135 . S
O734 Co733 2.061 . S
O734 C737 1.235 . S
C735 O738 1.238 . S
C735 O739 1.241 . S
C736 O729 1.247 . S
C736 O730 1.261 . S
C737 O732 1.259 . S
C737 O734 1.235 . S
O738 Co728 2.021 . S
O738 C735 1.238 . S
O739 Co733 2.052 . S
O739 C735 1.241 . S
O740 Co728 2.137 . S
O740 C731 1.247 . S
O741 Co728 2.244 . S
O741 C731 1.272 . S
O741 Co733 2.135 . S
Co742 O743 2.216 . S
Co742 O744 2.091 . S
Co742 O746 2.004 . S
Co742 O752 2.021 . S
Co742 O754 2.137 . S
Co742 O755 2.244 . S
O743 Co742 2.216 . S
O743 C750 1.247 . S
O744 Co742 2.091 . S
O744 C750 1.261 . S
C745 O754 1.247 . S
C745 O755 1.272 . S
O746 Co742 2.004 . S
O746 C751 1.259 . S
Co747 O748 2.061 . S
Co747 O753 2.052 . S
Co747 O755 2.135 . S
O748 Co747 2.061 . S
O748 C751 1.235 . S
C749 O752 1.238 . S
C749 O753 1.241 . S
C750 O743 1.247 . S
C750 O744 1.261 . S
C751 O746 1.259 . S
C751 O748 1.235 . S
O752 Co742 2.021 . S
O752 C749 1.238 . S
O753 Co747 2.052 . S
O753 C749 1.241 . S
O754 Co742 2.137 . S
O754 C745 1.247 . S
O755 Co742 2.244 . S
O755 C745 1.272 . S
O755 Co747 2.135 . S
Co756 O757 2.216 . S
Co756 O758 2.091 . S
Co756 O760 2.004 . S
Co756 O766 2.021 . S
Co756 O768 2.137 . S
Co756 O769 2.244 . S
O757 Co756 2.216 . S
O757 C764 1.247 . S
O758 Co756 2.091 . S
O758 C764 1.261 . S
C759 O768 1.247 . S
C759 O769 1.272 . S
O760 Co756 2.004 . S
O760 C765 1.259 . S
Co761 O762 2.061 . S
Co761 O767 2.052 . S
Co761 O769 2.135 . S
O762 Co761 2.061 . S
O762 C765 1.235 . S
C763 O766 1.238 . S
C763 O767 1.241 . S
C764 O757 1.247 . S
C764 O758 1.261 . S
C765 O760 1.259 . S
C765 O762 1.235 . S
O766 Co756 2.021 . S
O766 C763 1.238 . S
O767 Co761 2.052 . S
O767 C763 1.241 . S
O768 Co756 2.137 . S
O768 C759 1.247 . S
O769 Co756 2.244 . S
O769 C759 1.272 . S
O769 Co761 2.135 . S
Co770 O771 2.216 . S
Co770 O772 2.091 . S
Co770 O774 2.004 . S
Co770 O780 2.021 . S
Co770 O782 2.137 . S
Co770 O783 2.244 . S
O771 Co770 2.216 . S
O771 C778 1.247 . S
O772 Co770 2.091 . S
O772 C778 1.261 . S
C773 O782 1.247 . S
C773 O783 1.272 . S
O774 Co770 2.004 . S
O774 C779 1.259 . S
Co775 O776 2.061 . S
Co775 O781 2.052 . S
Co775 O783 2.135 . S
O776 Co775 2.061 . S
O776 C779 1.235 . S
C777 O780 1.238 . S
C777 O781 1.241 . S
C778 O771 1.247 . S
C778 O772 1.261 . S
C779 O774 1.259 . S
C779 O776 1.235 . S
O780 Co770 2.021 . S
O780 C777 1.238 . S
O781 Co775 2.052 . S
O781 C777 1.241 . S
O782 Co770 2.137 . S
O782 C773 1.247 . S
O783 Co770 2.244 . S
O783 C773 1.272 . S
O783 Co775 2.135 . S
Co784 O785 2.216 . S
Co784 O786 2.091 . S
Co784 O788 2.004 . S
Co784 O794 2.021 . S
Co784 O796 2.137 . S
Co784 O797 2.244 . S
O785 Co784 2.216 . S
O785 C792 1.247 . S
O786 Co784 2.091 . S
O786 C792 1.261 . S
C787 O796 1.247 . S
C787 O797 1.272 . S
O788 Co784 2.004 . S
O788 C793 1.259 . S
Co789 O790 2.061 . S
Co789 O795 2.052 . S
Co789 O797 2.135 . S
O790 Co789 2.061 . S
O790 C793 1.235 . S
C791 O794 1.238 . S
C791 O795 1.241 . S
C792 O785 1.247 . S
C792 O786 1.261 . S
C793 O788 1.259 . S
C793 O790 1.235 . S
O794 Co784 2.021 . S
O794 C791 1.238 . S
O795 Co789 2.052 . S
O795 C791 1.241 . S
O796 Co784 2.137 . S
O796 C787 1.247 . S
O797 Co784 2.244 . S
O797 C787 1.272 . S
O797 Co789 2.135 . S
Co798 O799 2.216 . S
Co798 O800 2.091 . S
Co798 O802 2.004 . S
Co798 O808 2.021 . S
Co798 O810 2.137 . S
Co798 O811 2.244 . S
O799 Co798 2.216 . S
O799 C806 1.247 . S
O800 Co798 2.091 . S
O800 C806 1.261 . S
C801 O810 1.247 . S
C801 O811 1.272 . S
O802 Co798 2.004 . S
O802 C807 1.259 . S
Co803 O804 2.061 . S
Co803 O809 2.052 . S
Co803 O811 2.135 . S
O804 Co803 2.061 . S
O804 C807 1.235 . S
C805 O808 1.238 . S
C805 O809 1.241 . S
C806 O799 1.247 . S
C806 O800 1.261 . S
C807 O802 1.259 . S
C807 O804 1.235 . S
O808 Co798 2.021 . S
O808 C805 1.238 . S
O809 Co803 2.052 . S
O809 C805 1.241 . S
O810 Co798 2.137 . S
O810 C801 1.247 . S
O811 Co798 2.244 . S
O811 C801 1.272 . S
O811 Co803 2.135 . S
Co812 O813 2.216 . S
Co812 O814 2.091 . S
Co812 O816 2.004 . S
Co812 O822 2.021 . S
Co812 O824 2.137 . S
Co812 O825 2.244 . S
O813 Co812 2.216 . S
O813 C820 1.247 . S
O814 Co812 2.091 . S
O814 C820 1.261 . S
C815 O824 1.247 . S
C815 O825 1.272 . S
O816 Co812 2.004 . S
O816 C821 1.259 . S
Co817 O818 2.061 . S
Co817 O823 2.052 . S
Co817 O825 2.135 . S
O818 Co817 2.061 . S
O818 C821 1.235 . S
C819 O822 1.238 . S
C819 O823 1.241 . S
C820 O813 1.247 . S
C820 O814 1.261 . S
C821 O816 1.259 . S
C821 O818 1.235 . S
O822 Co812 2.021 . S
O822 C819 1.238 . S
O823 Co817 2.052 . S
O823 C819 1.241 . S
O824 Co812 2.137 . S
O824 C815 1.247 . S
O825 Co812 2.244 . S
O825 C815 1.272 . S
O825 Co817 2.135 . S
Co826 O827 2.216 . S
Co826 O828 2.091 . S
Co826 O830 2.004 . S
Co826 O836 2.021 . S
Co826 O838 2.137 . S
Co826 O839 2.244 . S
O827 Co826 2.216 . S
O827 C834 1.247 . S
O828 Co826 2.091 . S
O828 C834 1.261 . S
C829 O838 1.247 . S
C829 O839 1.272 . S
O830 Co826 2.004 . S
O830 C835 1.259 . S
Co831 O832 2.061 . S
Co831 O837 2.052 . S
Co831 O839 2.135 . S
O832 Co831 2.061 . S
O832 C835 1.235 . S
C833 O836 1.238 . S
C833 O837 1.241 . S
C834 O827 1.247 . S
C834 O828 1.261 . S
C835 O830 1.259 . S
C835 O832 1.235 . S
O836 Co826 2.021 . S
O836 C833 1.238 . S
O837 Co831 2.052 . S
O837 C833 1.241 . S
O838 Co826 2.137 . S
O838 C829 1.247 . S
O839 Co826 2.244 . S
O839 C829 1.272 . S
O839 Co831 2.135 . S
Co840 O841 2.216 . S
Co840 O842 2.091 . S
Co840 O844 2.004 . S
Co840 O850 2.021 . S
Co840 O852 2.137 . S
Co840 O853 2.244 . S
O841 Co840 2.216 . S
O841 C848 1.247 . S
O842 Co840 2.091 . S
O842 C848 1.261 . S
C843 O852 1.247 . S
C843 O853 1.272 . S
O844 Co840 2.004 . S
O844 C849 1.259 . S
Co845 O846 2.061 . S
Co845 O851 2.052 . S
Co845 O853 2.135 . S
O846 Co845 2.061 . S
O846 C849 1.235 . S
C847 O850 1.238 . S
C847 O851 1.241 . S
C848 O841 1.247 . S
C848 O842 1.261 . S
C849 O844 1.259 . S
C849 O846 1.235 . S
O850 Co840 2.021 . S
O850 C847 1.238 . S
O851 Co845 2.052 . S
O851 C847 1.241 . S
O852 Co840 2.137 . S
O852 C843 1.247 . S
O853 Co840 2.244 . S
O853 C843 1.272 . S
O853 Co845 2.135 . S
Co854 O855 2.216 . S
Co854 O856 2.091 . S
Co854 O858 2.004 . S
Co854 O864 2.021 . S
Co854 O866 2.137 . S
Co854 O867 2.244 . S
O855 Co854 2.216 . S
O855 C862 1.247 . S
O856 Co854 2.091 . S
O856 C862 1.261 . S
C857 O866 1.247 . S
C857 O867 1.272 . S
O858 Co854 2.004 . S
O858 C863 1.259 . S
Co859 O860 2.061 . S
Co859 O865 2.052 . S
Co859 O867 2.135 . S
O860 Co859 2.061 . S
O860 C863 1.235 . S
C861 O864 1.238 . S
C861 O865 1.241 . S
C862 O855 1.247 . S
C862 O856 1.261 . S
C863 O858 1.259 . S
C863 O860 1.235 . S
O864 Co854 2.021 . S
O864 C861 1.238 . S
O865 Co859 2.052 . S
O865 C861 1.241 . S
O866 Co854 2.137 . S
O866 C857 1.247 . S
O867 Co854 2.244 . S
O867 C857 1.272 . S
O867 Co859 2.135 . S
Co868 O869 2.216 . S
Co868 O870 2.091 . S
Co868 O872 2.004 . S
Co868 O878 2.021 . S
Co868 O880 2.137 . S
Co868 O881 2.244 . S
O869 Co868 2.216 . S
O869 C876 1.247 . S
O870 Co868 2.091 . S
O870 C876 1.261 . S
C871 O880 1.247 . S
C871 O881 1.272 . S
O872 Co868 2.004 . S
O872 C877 1.259 . S
Co873 O874 2.061 . S
Co873 O879 2.052 . S
Co873 O881 2.135 . S
O874 Co873 2.061 . S
O874 C877 1.235 . S
C875 O878 1.238 . S
C875 O879 1.241 . S
C876 O869 1.247 . S
C876 O870 1.261 . S
C877 O872 1.259 . S
C877 O874 1.235 . S
O878 Co868 2.021 . S
O878 C875 1.238 . S
O879 Co873 2.052 . S
O879 C875 1.241 . S
O880 Co868 2.137 . S
O880 C871 1.247 . S
O881 Co868 2.244 . S
O881 C871 1.272 . S
O881 Co873 2.135 . S
Co882 O883 2.216 . S
Co882 O884 2.091 . S
Co882 O886 2.004 . S
Co882 O892 2.021 . S
Co882 O894 2.137 . S
Co882 O895 2.244 . S
O883 Co882 2.216 . S
O883 C890 1.247 . S
O884 Co882 2.091 . S
O884 C890 1.261 . S
C885 O894 1.247 . S
C885 O895 1.272 . S
O886 Co882 2.004 . S
O886 C891 1.259 . S
Co887 O888 2.061 . S
Co887 O893 2.052 . S
Co887 O895 2.135 . S
O888 Co887 2.061 . S
O888 C891 1.235 . S
C889 O892 1.238 . S
C889 O893 1.241 . S
C890 O883 1.247 . S
C890 O884 1.261 . S
C891 O886 1.259 . S
C891 O888 1.235 . S
O892 Co882 2.021 . S
O892 C889 1.238 . S
O893 Co887 2.052 . S
O893 C889 1.241 . S
O894 Co882 2.137 . S
O894 C885 1.247 . S
O895 Co882 2.244 . S
O895 C885 1.272 . S
O895 Co887 2.135 . S
Co896 O897 2.216 . S
Co896 O898 2.091 . S
Co896 O900 2.004 . S
Co896 O906 2.021 . S
Co896 O908 2.137 . S
Co896 O909 2.244 . S
O897 Co896 2.216 . S
O897 C904 1.247 . S
O898 Co896 2.091 . S
O898 C904 1.261 . S
C899 O908 1.247 . S
C899 O909 1.272 . S
O900 Co896 2.004 . S
O900 C905 1.259 . S
Co901 O902 2.061 . S
Co901 O907 2.052 . S
Co901 O909 2.135 . S
O902 Co901 2.061 . S
O902 C905 1.235 . S
C903 O906 1.238 . S
C903 O907 1.241 . S
C904 O897 1.247 . S
C904 O898 1.261 . S
C905 O900 1.259 . S
C905 O902 1.235 . S
O906 Co896 2.021 . S
O906 C903 1.238 . S
O907 Co901 2.052 . S
O907 C903 1.241 . S
O908 Co896 2.137 . S
O908 C899 1.247 . S
O909 Co896 2.244 . S
O909 C899 1.272 . S
O909 Co901 2.135 . S
Co910 O911 2.216 . S
Co910 O912 2.091 . S
Co910 O914 2.004 . S
Co910 O920 2.021 . S
Co910 O922 2.137 . S
Co910 O923 2.244 . S
O911 Co910 2.216 . S
O911 C918 1.247 . S
O912 Co910 2.091 . S
O912 C918 1.261 . S
C913 O922 1.247 . S
C913 O923 1.272 . S
O914 Co910 2.004 . S
O914 C919 1.259 . S
Co915 O916 2.061 . S
Co915 O921 2.052 . S
Co915 O923 2.135 . S
O916 Co915 2.061 . S
O916 C919 1.235 . S
C917 O920 1.238 . S
C917 O921 1.241 . S
C918 O911 1.247 . S
C918 O912 1.261 . S
C919 O914 1.259 . S
C919 O916 1.235 . S
O920 Co910 2.021 . S
O920 C917 1.238 . S
O921 Co915 2.052 . S
O921 C917 1.241 . S
O922 Co910 2.137 . S
O922 C913 1.247 . S
O923 Co910 2.244 . S
O923 C913 1.272 . S
O923 Co915 2.135 . S
Co924 O925 2.216 . S
Co924 O926 2.091 . S
Co924 O928 2.004 . S
Co924 O934 2.021 . S
Co924 O936 2.137 . S
Co924 O937 2.244 . S
O925 Co924 2.216 . S
O925 C932 1.247 . S
O926 Co924 2.091 . S
O926 C932 1.261 . S
C927 O936 1.247 . S
C927 O937 1.272 . S
O928 Co924 2.004 . S
O928 C933 1.259 . S
Co929 O930 2.061 . S
Co929 O935 2.052 . S
Co929 O937 2.135 . S
O930 Co929 2.061 . S
O930 C933 1.235 . S
C931 O934 1.238 . S
C931 O935 1.241 . S
C932 O925 1.247 . S
C932 O926 1.261 . S
C933 O928 1.259 . S
C933 O930 1.235 . S
O934 Co924 2.021 . S
O934 C931 1.238 . S
O935 Co929 2.052 . S
O935 C931 1.241 . S
O936 Co924 2.137 . S
O936 C927 1.247 . S
O937 Co924 2.244 . S
O937 C927 1.272 . S
O937 Co929 2.135 . S
Co938 O939 2.216 . S
Co938 O940 2.091 . S
Co938 O942 2.004 . S
Co938 O948 2.021 . S
Co938 O950 2.137 . S
Co938 O951 2.244 . S
O939 Co938 2.216 . S
O939 C946 1.247 . S
O940 Co938 2.091 . S
O940 C946 1.261 . S
C941 O950 1.247 . S
C941 O951 1.272 . S
O942 Co938 2.004 . S
O942 C947 1.259 . S
Co943 O944 2.061 . S
Co943 O949 2.052 . S
Co943 O951 2.135 . S
O944 Co943 2.061 . S
O944 C947 1.235 . S
C945 O948 1.238 . S
C945 O949 1.241 . S
C946 O939 1.247 . S
C946 O940 1.261 . S
C947 O942 1.259 . S
C947 O944 1.235 . S
O948 Co938 2.021 . S
O948 C945 1.238 . S
O949 Co943 2.052 . S
O949 C945 1.241 . S
O950 Co938 2.137 . S
O950 C941 1.247 . S
O951 Co938 2.244 . S
O951 C941 1.272 . S
O951 Co943 2.135 . S
Co952 O953 2.216 . S
Co952 O954 2.091 . S
Co952 O956 2.004 . S
Co952 O962 2.021 . S
Co952 O964 2.137 . S
Co952 O965 2.244 . S
O953 Co952 2.216 . S
O953 C960 1.247 . S
O954 Co952 2.091 . S
O954 C960 1.261 . S
C955 O964 1.247 . S
C955 O965 1.272 . S
O956 Co952 2.004 . S
O956 C961 1.259 . S
Co957 O958 2.061 . S
Co957 O963 2.052 . S
Co957 O965 2.135 . S
O958 Co957 2.061 . S
O958 C961 1.235 . S
C959 O962 1.238 . S
C959 O963 1.241 . S
C960 O953 1.247 . S
C960 O954 1.261 . S
C961 O956 1.259 . S
C961 O958 1.235 . S
O962 Co952 2.021 . S
O962 C959 1.238 . S
O963 Co957 2.052 . S
O963 C959 1.241 . S
O964 Co952 2.137 . S
O964 C955 1.247 . S
O965 Co952 2.244 . S
O965 C955 1.272 . S
O965 Co957 2.135 . S
Co966 O967 2.216 . S
Co966 O968 2.091 . S
Co966 O970 2.004 . S
Co966 O976 2.021 . S
Co966 O978 2.137 . S
Co966 O979 2.244 . S
O967 Co966 2.216 . S
O967 C974 1.247 . S
O968 Co966 2.091 . S
O968 C974 1.261 . S
C969 O978 1.247 . S
C969 O979 1.272 . S
O970 Co966 2.004 . S
O970 C975 1.259 . S
Co971 O972 2.061 . S
Co971 O977 2.052 . S
Co971 O979 2.135 . S
O972 Co971 2.061 . S
O972 C975 1.235 . S
C973 O976 1.238 . S
C973 O977 1.241 . S
C974 O967 1.247 . S
C974 O968 1.261 . S
C975 O970 1.259 . S
C975 O972 1.235 . S
O976 Co966 2.021 . S
O976 C973 1.238 . S
O977 Co971 2.052 . S
O977 C973 1.241 . S
O978 Co966 2.137 . S
O978 C969 1.247 . S
O979 Co966 2.244 . S
O979 C969 1.272 . S
O979 Co971 2.135 . S
Co980 O981 2.216 . S
Co980 O982 2.091 . S
Co980 O984 2.004 . S
Co980 O990 2.021 . S
Co980 O992 2.137 . S
Co980 O993 2.244 . S
O981 Co980 2.216 . S
O981 C988 1.247 . S
O982 Co980 2.091 . S
O982 C988 1.261 . S
C983 O992 1.247 . S
C983 O993 1.272 . S
O984 Co980 2.004 . S
O984 C989 1.259 . S
Co985 O986 2.061 . S
Co985 O991 2.052 . S
Co985 O993 2.135 . S
O986 Co985 2.061 . S
O986 C989 1.235 . S
C987 O990 1.238 . S
C987 O991 1.241 . S
C988 O981 1.247 . S
C988 O982 1.261 . S
C989 O984 1.259 . S
C989 O986 1.235 . S
O990 Co980 2.021 . S
O990 C987 1.238 . S
O991 Co985 2.052 . S
O991 C987 1.241 . S
O992 Co980 2.137 . S
O992 C983 1.247 . S
O993 Co980 2.244 . S
O993 C983 1.272 . S
O993 Co985 2.135 . S
Co994 O995 2.216 . S
Co994 O996 2.091 . S
Co994 O998 2.004 . S
Co994 O1004 2.021 . S
Co994 O1006 2.137 . S
Co994 O1007 2.244 . S
O995 Co994 2.216 . S
O995 C1002 1.247 . S
O996 Co994 2.091 . S
O996 C1002 1.261 . S
C997 O1006 1.247 . S
C997 O1007 1.272 . S
O998 Co994 2.004 . S
O998 C1003 1.259 . S
Co999 O1000 2.061 . S
Co999 O1005 2.052 . S
Co999 O1007 2.135 . S
O1000 Co999 2.061 . S
O1000 C1003 1.235 . S
C1001 O1004 1.238 . S
C1001 O1005 1.241 . S
C1002 O995 1.247 . S
C1002 O996 1.261 . S
C1003 O998 1.259 . S
C1003 O1000 1.235 . S
O1004 Co994 2.021 . S
O1004 C1001 1.238 . S
O1005 Co999 2.052 . S
O1005 C1001 1.241 . S
O1006 Co994 2.137 . S
O1006 C997 1.247 . S
O1007 Co994 2.244 . S
O1007 C997 1.272 . S
O1007 Co999 2.135 . S
Co1008 O1009 2.216 . S
Co1008 O1010 2.091 . S
Co1008 O1012 2.004 . S
Co1008 O1018 2.021 . S
Co1008 O1020 2.137 . S
Co1008 O1021 2.244 . S
O1009 Co1008 2.216 . S
O1009 C1016 1.247 . S
O1010 Co1008 2.091 . S
O1010 C1016 1.261 . S
C1011 O1020 1.247 . S
C1011 O1021 1.272 . S
O1012 Co1008 2.004 . S
O1012 C1017 1.259 . S
Co1013 O1014 2.061 . S
Co1013 O1019 2.052 . S
Co1013 O1021 2.135 . S
O1014 Co1013 2.061 . S
O1014 C1017 1.235 . S
C1015 O1018 1.238 . S
C1015 O1019 1.241 . S
C1016 O1009 1.247 . S
C1016 O1010 1.261 . S
C1017 O1012 1.259 . S
C1017 O1014 1.235 . S
O1018 Co1008 2.021 . S
O1018 C1015 1.238 . S
O1019 Co1013 2.052 . S
O1019 C1015 1.241 . S
O1020 Co1008 2.137 . S
O1020 C1011 1.247 . S
O1021 Co1008 2.244 . S
O1021 C1011 1.272 . S
O1021 Co1013 2.135 . S
Co1022 O1023 2.216 . S
Co1022 O1024 2.091 . S
Co1022 O1026 2.004 . S
Co1022 O1032 2.021 . S
Co1022 O1034 2.137 . S
Co1022 O1035 2.244 . S
O1023 Co1022 2.216 . S
O1023 C1030 1.247 . S
O1024 Co1022 2.091 . S
O1024 C1030 1.261 . S
C1025 O1034 1.247 . S
C1025 O1035 1.272 . S
O1026 Co1022 2.004 . S
O1026 C1031 1.259 . S
Co1027 O1028 2.061 . S
Co1027 O1033 2.052 . S
Co1027 O1035 2.135 . S
O1028 Co1027 2.061 . S
O1028 C1031 1.235 . S
C1029 O1032 1.238 . S
C1029 O1033 1.241 . S
C1030 O1023 1.247 . S
C1030 O1024 1.261 . S
C1031 O1026 1.259 . S
C1031 O1028 1.235 . S
O1032 Co1022 2.021 . S
O1032 C1029 1.238 . S
O1033 Co1027 2.052 . S
O1033 C1029 1.241 . S
O1034 Co1022 2.137 . S
O1034 C1025 1.247 . S
O1035 Co1022 2.244 . S
O1035 C1025 1.272 . S
O1035 Co1027 2.135 . S
Co1036 O1037 2.216 . S
Co1036 O1038 2.091 . S
Co1036 O1040 2.004 . S
Co1036 O1046 2.021 . S
Co1036 O1048 2.137 . S
Co1036 O1049 2.244 . S
O1037 Co1036 2.216 . S
O1037 C1044 1.247 . S
O1038 Co1036 2.091 . S
O1038 C1044 1.261 . S
C1039 O1048 1.247 . S
C1039 O1049 1.272 . S
O1040 Co1036 2.004 . S
O1040 C1045 1.259 . S
Co1041 O1042 2.061 . S
Co1041 O1047 2.052 . S
Co1041 O1049 2.135 . S
O1042 Co1041 2.061 . S
O1042 C1045 1.235 . S
C1043 O1046 1.238 . S
C1043 O1047 1.241 . S
C1044 O1037 1.247 . S
C1044 O1038 1.261 . S
C1045 O1040 1.259 . S
C1045 O1042 1.235 . S
O1046 Co1036 2.021 . S
O1046 C1043 1.238 . S
O1047 Co1041 2.052 . S
O1047 C1043 1.241 . S
O1048 Co1036 2.137 . S
O1048 C1039 1.247 . S
O1049 Co1036 2.244 . S
O1049 C1039 1.272 . S
O1049 Co1041 2.135 . S
Co1050 O1051 2.216 . S
Co1050 O1052 2.091 . S
Co1050 O1054 2.004 . S
Co1050 O1060 2.021 . S
Co1050 O1062 2.137 . S
Co1050 O1063 2.244 . S
O1051 Co1050 2.216 . S
O1051 C1058 1.247 . S
O1052 Co1050 2.091 . S
O1052 C1058 1.261 . S
C1053 O1062 1.247 . S
C1053 O1063 1.272 . S
O1054 Co1050 2.004 . S
O1054 C1059 1.259 . S
Co1055 O1056 2.061 . S
Co1055 O1061 2.052 . S
Co1055 O1063 2.135 . S
O1056 Co1055 2.061 . S
O1056 C1059 1.235 . S
C1057 O1060 1.238 . S
C1057 O1061 1.241 . S
C1058 O1051 1.247 . S
C1058 O1052 1.261 . S
C1059 O1054 1.259 . S
C1059 O1056 1.235 . S
O1060 Co1050 2.021 . S
O1060 C1057 1.238 . S
O1061 Co1055 2.052 . S
O1061 C1057 1.241 . S
O1062 Co1050 2.137 . S
O1062 C1053 1.247 . S
O1063 Co1050 2.244 . S
O1063 C1053 1.272 . S
O1063 Co1055 2.135 . S
Co1064 O1065 2.216 . S
Co1064 O1066 2.091 . S
Co1064 O1068 2.004 . S
Co1064 O1074 2.021 . S
Co1064 O1076 2.137 . S
Co1064 O1077 2.244 . S
O1065 Co1064 2.216 . S
O1065 C1072 1.247 . S
O1066 Co1064 2.091 . S
O1066 C1072 1.261 . S
C1067 O1076 1.247 . S
C1067 O1077 1.272 . S
O1068 Co1064 2.004 . S
O1068 C1073 1.259 . S
Co1069 O1070 2.061 . S
Co1069 O1075 2.052 . S
Co1069 O1077 2.135 . S
O1070 Co1069 2.061 . S
O1070 C1073 1.235 . S
C1071 O1074 1.238 . S
C1071 O1075 1.241 . S
C1072 O1065 1.247 . S
C1072 O1066 1.261 . S
C1073 O1068 1.259 . S
C1073 O1070 1.235 . S
O1074 Co1064 2.021 . S
O1074 C1071 1.238 . S
O1075 Co1069 2.052 . S
O1075 C1071 1.241 . S
O1076 Co1064 2.137 . S
O1076 C1067 1.247 . S
O1077 Co1064 2.244 . S
O1077 C1067 1.272 . S
O1077 Co1069 2.135 . S
Co1078 O1079 2.216 . S
Co1078 O1080 2.091 . S
Co1078 O1082 2.004 . S
Co1078 O1088 2.021 . S
Co1078 O1090 2.137 . S
Co1078 O1091 2.244 . S
O1079 Co1078 2.216 . S
O1079 C1086 1.247 . S
O1080 Co1078 2.091 . S
O1080 C1086 1.261 . S
C1081 O1090 1.247 . S
C1081 O1091 1.272 . S
O1082 Co1078 2.004 . S
O1082 C1087 1.259 . S
Co1083 O1084 2.061 . S
Co1083 O1089 2.052 . S
Co1083 O1091 2.135 . S
O1084 Co1083 2.061 . S
O1084 C1087 1.235 . S
C1085 O1088 1.238 . S
C1085 O1089 1.241 . S
C1086 O1079 1.247 . S
C1086 O1080 1.261 . S
C1087 O1082 1.259 . S
C1087 O1084 1.235 . S
O1088 Co1078 2.021 . S
O1088 C1085 1.238 . S
O1089 Co1083 2.052 . S
O1089 C1085 1.241 . S
O1090 Co1078 2.137 . S
O1090 C1081 1.247 . S
O1091 Co1078 2.244 . S
O1091 C1081 1.272 . S
O1091 Co1083 2.135 . S
Co1092 O1093 2.216 . S
Co1092 O1094 2.091 . S
Co1092 O1096 2.004 . S
Co1092 O1102 2.021 . S
Co1092 O1104 2.137 . S
Co1092 O1105 2.244 . S
O1093 Co1092 2.216 . S
O1093 C1100 1.247 . S
O1094 Co1092 2.091 . S
O1094 C1100 1.261 . S
C1095 O1104 1.247 . S
C1095 O1105 1.272 . S
O1096 Co1092 2.004 . S
O1096 C1101 1.259 . S
Co1097 O1098 2.061 . S
Co1097 O1103 2.052 . S
Co1097 O1105 2.135 . S
O1098 Co1097 2.061 . S
O1098 C1101 1.235 . S
C1099 O1102 1.238 . S
C1099 O1103 1.241 . S
C1100 O1093 1.247 . S
C1100 O1094 1.261 . S
C1101 O1096 1.259 . S
C1101 O1098 1.235 . S
O1102 Co1092 2.021 . S
O1102 C1099 1.238 . S
O1103 Co1097 2.052 . S
O1103 C1099 1.241 . S
O1104 Co1092 2.137 . S
O1104 C1095 1.247 . S
O1105 Co1092 2.244 . S
O1105 C1095 1.272 . S
O1105 Co1097 2.135 . S
Co1106 O1107 2.216 . S
Co1106 O1108 2.091 . S
Co1106 O1110 2.004 . S
Co1106 O1116 2.021 . S
Co1106 O1118 2.137 . S
Co1106 O1119 2.244 . S
O1107 Co1106 2.216 . S
O1107 C1114 1.247 . S
O1108 Co1106 2.091 . S
O1108 C1114 1.261 . S
C1109 O1118 1.247 . S
C1109 O1119 1.272 . S
O1110 Co1106 2.004 . S
O1110 C1115 1.259 . S
Co1111 O1112 2.061 . S
Co1111 O1117 2.052 . S
Co1111 O1119 2.135 . S
O1112 Co1111 2.061 . S
O1112 C1115 1.235 . S
C1113 O1116 1.238 . S
C1113 O1117 1.241 . S
C1114 O1107 1.247 . S
C1114 O1108 1.261 . S
C1115 O1110 1.259 . S
C1115 O1112 1.235 . S
O1116 Co1106 2.021 . S
O1116 C1113 1.238 . S
O1117 Co1111 2.052 . S
O1117 C1113 1.241 . S
O1118 Co1106 2.137 . S
O1118 C1109 1.247 . S
O1119 Co1106 2.244 . S
O1119 C1109 1.272 . S
O1119 Co1111 2.135 . S
Co1120 O1121 2.216 . S
Co1120 O1122 2.091 . S
Co1120 O1124 2.004 . S
Co1120 O1130 2.021 . S
Co1120 O1132 2.137 . S
Co1120 O1133 2.244 . S
O1121 Co1120 2.216 . S
O1121 C1128 1.247 . S
O1122 Co1120 2.091 . S
O1122 C1128 1.261 . S
C1123 O1132 1.247 . S
C1123 O1133 1.272 . S
O1124 Co1120 2.004 . S
O1124 C1129 1.259 . S
Co1125 O1126 2.061 . S
Co1125 O1131 2.052 . S
Co1125 O1133 2.135 . S
O1126 Co1125 2.061 . S
O1126 C1129 1.235 . S
C1127 O1130 1.238 . S
C1127 O1131 1.241 . S
C1128 O1121 1.247 . S
C1128 O1122 1.261 . S
C1129 O1124 1.259 . S
C1129 O1126 1.235 . S
O1130 Co1120 2.021 . S
O1130 C1127 1.238 . S
O1131 Co1125 2.052 . S
O1131 C1127 1.241 . S
O1132 Co1120 2.137 . S
O1132 C1123 1.247 . S
O1133 Co1120 2.244 . S
O1133 C1123 1.272 . S
O1133 Co1125 2.135 . S
Co1134 O1135 2.216 . S
Co1134 O1136 2.091 . S
Co1134 O1138 2.004 . S
Co1134 O1144 2.021 . S
Co1134 O1146 2.137 . S
Co1134 O1147 2.244 . S
O1135 Co1134 2.216 . S
O1135 C1142 1.247 . S
O1136 Co1134 2.091 . S
O1136 C1142 1.261 . S
C1137 O1146 1.247 . S
C1137 O1147 1.272 . S
O1138 Co1134 2.004 . S
O1138 C1143 1.259 . S
Co1139 O1140 2.061 . S
Co1139 O1145 2.052 . S
Co1139 O1147 2.135 . S
O1140 Co1139 2.061 . S
O1140 C1143 1.235 . S
C1141 O1144 1.238 . S
C1141 O1145 1.241 . S
C1142 O1135 1.247 . S
C1142 O1136 1.261 . S
C1143 O1138 1.259 . S
C1143 O1140 1.235 . S
O1144 Co1134 2.021 . S
O1144 C1141 1.238 . S
O1145 Co1139 2.052 . S
O1145 C1141 1.241 . S
O1146 Co1134 2.137 . S
O1146 C1137 1.247 . S
O1147 Co1134 2.244 . S
O1147 C1137 1.272 . S
O1147 Co1139 2.135 . S
Co1148 O1149 2.216 . S
Co1148 O1150 2.091 . S
Co1148 O1152 2.004 . S
Co1148 O1158 2.021 . S
Co1148 O1160 2.137 . S
Co1148 O1161 2.244 . S
O1149 Co1148 2.216 . S
O1149 C1156 1.247 . S
O1150 Co1148 2.091 . S
O1150 C1156 1.261 . S
C1151 O1160 1.247 . S
C1151 O1161 1.272 . S
O1152 Co1148 2.004 . S
O1152 C1157 1.259 . S
Co1153 O1154 2.061 . S
Co1153 O1159 2.052 . S
Co1153 O1161 2.135 . S
O1154 Co1153 2.061 . S
O1154 C1157 1.235 . S
C1155 O1158 1.238 . S
C1155 O1159 1.241 . S
C1156 O1149 1.247 . S
C1156 O1150 1.261 . S
C1157 O1152 1.259 . S
C1157 O1154 1.235 . S
O1158 Co1148 2.021 . S
O1158 C1155 1.238 . S
O1159 Co1153 2.052 . S
O1159 C1155 1.241 . S
O1160 Co1148 2.137 . S
O1160 C1151 1.247 . S
O1161 Co1148 2.244 . S
O1161 C1151 1.272 . S
O1161 Co1153 2.135 . S
Co1162 O1163 2.216 . S
Co1162 O1164 2.091 . S
Co1162 O1166 2.004 . S
Co1162 O1172 2.021 . S
Co1162 O1174 2.137 . S
Co1162 O1175 2.244 . S
O1163 Co1162 2.216 . S
O1163 C1170 1.247 . S
O1164 Co1162 2.091 . S
O1164 C1170 1.261 . S
C1165 O1174 1.247 . S
C1165 O1175 1.272 . S
O1166 Co1162 2.004 . S
O1166 C1171 1.259 . S
Co1167 O1168 2.061 . S
Co1167 O1173 2.052 . S
Co1167 O1175 2.135 . S
O1168 Co1167 2.061 . S
O1168 C1171 1.235 . S
C1169 O1172 1.238 . S
C1169 O1173 1.241 . S
C1170 O1163 1.247 . S
C1170 O1164 1.261 . S
C1171 O1166 1.259 . S
C1171 O1168 1.235 . S
O1172 Co1162 2.021 . S
O1172 C1169 1.238 . S
O1173 Co1167 2.052 . S
O1173 C1169 1.241 . S
O1174 Co1162 2.137 . S
O1174 C1165 1.247 . S
O1175 Co1162 2.244 . S
O1175 C1165 1.272 . S
O1175 Co1167 2.135 . S
Co1176 O1177 2.216 . S
Co1176 O1178 2.091 . S
Co1176 O1180 2.004 . S
Co1176 O1186 2.021 . S
Co1176 O1188 2.137 . S
Co1176 O1189 2.244 . S
O1177 Co1176 2.216 . S
O1177 C1184 1.247 . S
O1178 Co1176 2.091 . S
O1178 C1184 1.261 . S
C1179 O1188 1.247 . S
C1179 O1189 1.272 . S
O1180 Co1176 2.004 . S
O1180 C1185 1.259 . S
Co1181 O1182 2.061 . S
Co1181 O1187 2.052 . S
Co1181 O1189 2.135 . S
O1182 Co1181 2.061 . S
O1182 C1185 1.235 . S
C1183 O1186 1.238 . S
C1183 O1187 1.241 . S
C1184 O1177 1.247 . S
C1184 O1178 1.261 . S
C1185 O1180 1.259 . S
C1185 O1182 1.235 . S
O1186 Co1176 2.021 . S
O1186 C1183 1.238 . S
O1187 Co1181 2.052 . S
O1187 C1183 1.241 . S
O1188 Co1176 2.137 . S
O1188 C1179 1.247 . S
O1189 Co1176 2.244 . S
O1189 C1179 1.272 . S
O1189 Co1181 2.135 . S
Co1190 O1191 2.216 . S
Co1190 O1192 2.091 . S
Co1190 O1194 2.004 . S
Co1190 O1200 2.021 . S
Co1190 O1202 2.137 . S
Co1190 O1203 2.244 . S
O1191 Co1190 2.216 . S
O1191 C1198 1.247 . S
O1192 Co1190 2.091 . S
O1192 C1198 1.261 . S
C1193 O1202 1.247 . S
C1193 O1203 1.272 . S
O1194 Co1190 2.004 . S
O1194 C1199 1.259 . S
Co1195 O1196 2.061 . S
Co1195 O1201 2.052 . S
Co1195 O1203 2.135 . S
O1196 Co1195 2.061 . S
O1196 C1199 1.235 . S
C1197 O1200 1.238 . S
C1197 O1201 1.241 . S
C1198 O1191 1.247 . S
C1198 O1192 1.261 . S
C1199 O1194 1.259 . S
C1199 O1196 1.235 . S
O1200 Co1190 2.021 . S
O1200 C1197 1.238 . S
O1201 Co1195 2.052 . S
O1201 C1197 1.241 . S
O1202 Co1190 2.137 . S
O1202 C1193 1.247 . S
O1203 Co1190 2.244 . S
O1203 C1193 1.272 . S
O1203 Co1195 2.135 . S
Co1204 O1205 2.216 . S
Co1204 O1206 2.091 . S
Co1204 O1208 2.004 . S
Co1204 O1214 2.021 . S
Co1204 O1216 2.137 . S
Co1204 O1217 2.244 . S
O1205 Co1204 2.216 . S
O1205 C1212 1.247 . S
O1206 Co1204 2.091 . S
O1206 C1212 1.261 . S
C1207 O1216 1.247 . S
C1207 O1217 1.272 . S
O1208 Co1204 2.004 . S
O1208 C1213 1.259 . S
Co1209 O1210 2.061 . S
Co1209 O1215 2.052 . S
Co1209 O1217 2.135 . S
O1210 Co1209 2.061 . S
O1210 C1213 1.235 . S
C1211 O1214 1.238 . S
C1211 O1215 1.241 . S
C1212 O1205 1.247 . S
C1212 O1206 1.261 . S
C1213 O1208 1.259 . S
C1213 O1210 1.235 . S
O1214 Co1204 2.021 . S
O1214 C1211 1.238 . S
O1215 Co1209 2.052 . S
O1215 C1211 1.241 . S
O1216 Co1204 2.137 . S
O1216 C1207 1.247 . S
O1217 Co1204 2.244 . S
O1217 C1207 1.272 . S
O1217 Co1209 2.135 . S
Co1218 O1219 2.216 . S
Co1218 O1220 2.091 . S
Co1218 O1222 2.004 . S
Co1218 O1228 2.021 . S
Co1218 O1230 2.137 . S
Co1218 O1231 2.244 . S
O1219 Co1218 2.216 . S
O1219 C1226 1.247 . S
O1220 Co1218 2.091 . S
O1220 C1226 1.261 . S
C1221 O1230 1.247 . S
C1221 O1231 1.272 . S
O1222 Co1218 2.004 . S
O1222 C1227 1.259 . S
Co1223 O1224 2.061 . S
Co1223 O1229 2.052 . S
Co1223 O1231 2.135 . S
O1224 Co1223 2.061 . S
O1224 C1227 1.235 . S
C1225 O1228 1.238 . S
C1225 O1229 1.241 . S
C1226 O1219 1.247 . S
C1226 O1220 1.261 . S
C1227 O1222 1.259 . S
C1227 O1224 1.235 . S
O1228 Co1218 2.021 . S
O1228 C1225 1.238 . S
O1229 Co1223 2.052 . S
O1229 C1225 1.241 . S
O1230 Co1218 2.137 . S
O1230 C1221 1.247 . S
O1231 Co1218 2.244 . S
O1231 C1221 1.272 . S
O1231 Co1223 2.135 . S
Co1232 O1233 2.216 . S
Co1232 O1234 2.091 . S
Co1232 O1236 2.004 . S
Co1232 O1242 2.021 . S
Co1232 O1244 2.137 . S
Co1232 O1245 2.244 . S
O1233 Co1232 2.216 . S
O1233 C1240 1.247 . S
O1234 Co1232 2.091 . S
O1234 C1240 1.261 . S
C1235 O1244 1.247 . S
C1235 O1245 1.272 . S
O1236 Co1232 2.004 . S
O1236 C1241 1.259 . S
Co1237 O1238 2.061 . S
Co1237 O1243 2.052 . S
Co1237 O1245 2.135 . S
O1238 Co1237 2.061 . S
O1238 C1241 1.235 . S
C1239 O1242 1.238 . S
C1239 O1243 1.241 . S
C1240 O1233 1.247 . S
C1240 O1234 1.261 . S
C1241 O1236 1.259 . S
C1241 O1238 1.235 . S
O1242 Co1232 2.021 . S
O1242 C1239 1.238 . S
O1243 Co1237 2.052 . S
O1243 C1239 1.241 . S
O1244 Co1232 2.137 . S
O1244 C1235 1.247 . S
O1245 Co1232 2.244 . S
O1245 C1235 1.272 . S
O1245 Co1237 2.135 . S
Co1246 O1247 2.216 . S
Co1246 O1248 2.091 . S
Co1246 O1250 2.004 . S
Co1246 O1256 2.021 . S
Co1246 O1258 2.137 . S
Co1246 O1259 2.244 . S
O1247 Co1246 2.216 . S
O1247 C1254 1.247 . S
O1248 Co1246 2.091 . S
O1248 C1254 1.261 . S
C1249 O1258 1.247 . S
C1249 O1259 1.272 . S
O1250 Co1246 2.004 . S
O1250 C1255 1.259 . S
Co1251 O1252 2.061 . S
Co1251 O1257 2.052 . S
Co1251 O1259 2.135 . S
O1252 Co1251 2.061 . S
O1252 C1255 1.235 . S
C1253 O1256 1.238 . S
C1253 O1257 1.241 . S
C1254 O1247 1.247 . S
C1254 O1248 1.261 . S
C1255 O1250 1.259 . S
C1255 O1252 1.235 . S
O1256 Co1246 2.021 . S
O1256 C1253 1.238 . S
O1257 Co1251 2.052 . S
O1257 C1253 1.241 . S
O1258 Co1246 2.137 . S
O1258 C1249 1.247 . S
O1259 Co1246 2.244 . S
O1259 C1249 1.272 . S
O1259 Co1251 2.135 . S
Co1260 O1261 2.216 . S
Co1260 O1262 2.091 . S
Co1260 O1264 2.004 . S
Co1260 O1270 2.021 . S
Co1260 O1272 2.137 . S
Co1260 O1273 2.244 . S
O1261 Co1260 2.216 . S
O1261 C1268 1.247 . S
O1262 Co1260 2.091 . S
O1262 C1268 1.261 . S
C1263 O1272 1.247 . S
C1263 O1273 1.272 . S
O1264 Co1260 2.004 . S
O1264 C1269 1.259 . S
Co1265 O1266 2.061 . S
Co1265 O1271 2.052 . S
Co1265 O1273 2.135 . S
O1266 Co1265 2.061 . S
O1266 C1269 1.235 . S
C1267 O1270 1.238 . S
C1267 O1271 1.241 . S
C1268 O1261 1.247 . S
C1268 O1262 1.261 . S
C1269 O1264 1.259 . S
C1269 O1266 1.235 . S
O1270 Co1260 2.021 . S
O1270 C1267 1.238 . S
O1271 Co1265 2.052 . S
O1271 C1267 1.241 . S
O1272 Co1260 2.137 . S
O1272 C1263 1.247 . S
O1273 Co1260 2.244 . S
O1273 C1263 1.272 . S
O1273 Co1265 2.135 . S
Co1274 O1275 2.216 . S
Co1274 O1276 2.091 . S
Co1274 O1278 2.004 . S
Co1274 O1284 2.021 . S
Co1274 O1286 2.137 . S
Co1274 O1287 2.244 . S
O1275 Co1274 2.216 . S
O1275 C1282 1.247 . S
O1276 Co1274 2.091 . S
O1276 C1282 1.261 . S
C1277 O1286 1.247 . S
C1277 O1287 1.272 . S
O1278 Co1274 2.004 . S
O1278 C1283 1.259 . S
Co1279 O1280 2.061 . S
Co1279 O1285 2.052 . S
Co1279 O1287 2.135 . S
O1280 Co1279 2.061 . S
O1280 C1283 1.235 . S
C1281 O1284 1.238 . S
C1281 O1285 1.241 . S
C1282 O1275 1.247 . S
C1282 O1276 1.261 . S
C1283 O1278 1.259 . S
C1283 O1280 1.235 . S
O1284 Co1274 2.021 . S
O1284 C1281 1.238 . S
O1285 Co1279 2.052 . S
O1285 C1281 1.241 . S
O1286 Co1274 2.137 . S
O1286 C1277 1.247 . S
O1287 Co1274 2.244 . S
O1287 C1277 1.272 . S
O1287 Co1279 2.135 . S
Co1288 O1289 2.216 . S
Co1288 O1290 2.091 . S
Co1288 O1292 2.004 . S
Co1288 O1298 2.021 . S
Co1288 O1300 2.137 . S
Co1288 O1301 2.244 . S
O1289 Co1288 2.216 . S
O1289 C1296 1.247 . S
O1290 Co1288 2.091 . S
O1290 C1296 1.261 . S
C1291 O1300 1.247 . S
C1291 O1301 1.272 . S
O1292 Co1288 2.004 . S
O1292 C1297 1.259 . S
Co1293 O1294 2.061 . S
Co1293 O1299 2.052 . S
Co1293 O1301 2.135 . S
O1294 Co1293 2.061 . S
O1294 C1297 1.235 . S
C1295 O1298 1.238 . S
C1295 O1299 1.241 . S
C1296 O1289 1.247 . S
C1296 O1290 1.261 . S
C1297 O1292 1.259 . S
C1297 O1294 1.235 . S
O1298 Co1288 2.021 . S
O1298 C1295 1.238 . S
O1299 Co1293 2.052 . S
O1299 C1295 1.241 . S
O1300 Co1288 2.137 . S
O1300 C1291 1.247 . S
O1301 Co1288 2.244 . S
O1301 C1291 1.272 . S
O1301 Co1293 2.135 . S
Co1302 O1303 2.216 . S
Co1302 O1304 2.091 . S
Co1302 O1306 2.004 . S
Co1302 O1312 2.021 . S
Co1302 O1314 2.137 . S
Co1302 O1315 2.244 . S
O1303 Co1302 2.216 . S
O1303 C1310 1.247 . S
O1304 Co1302 2.091 . S
O1304 C1310 1.261 . S
C1305 O1314 1.247 . S
C1305 O1315 1.272 . S
O1306 Co1302 2.004 . S
O1306 C1311 1.259 . S
Co1307 O1308 2.061 . S
Co1307 O1313 2.052 . S
Co1307 O1315 2.135 . S
O1308 Co1307 2.061 . S
O1308 C1311 1.235 . S
C1309 O1312 1.238 . S
C1309 O1313 1.241 . S
C1310 O1303 1.247 . S
C1310 O1304 1.261 . S
C1311 O1306 1.259 . S
C1311 O1308 1.235 . S
O1312 Co1302 2.021 . S
O1312 C1309 1.238 . S
O1313 Co1307 2.052 . S
O1313 C1309 1.241 . S
O1314 Co1302 2.137 . S
O1314 C1305 1.247 . S
O1315 Co1302 2.244 . S
O1315 C1305 1.272 . S
O1315 Co1307 2.135 . S
Co1316 O1317 2.216 . S
Co1316 O1318 2.091 . S
Co1316 O1320 2.004 . S
Co1316 O1326 2.021 . S
Co1316 O1328 2.137 . S
Co1316 O1329 2.244 . S
O1317 Co1316 2.216 . S
O1317 C1324 1.247 . S
O1318 Co1316 2.091 . S
O1318 C1324 1.261 . S
C1319 O1328 1.247 . S
C1319 O1329 1.272 . S
O1320 Co1316 2.004 . S
O1320 C1325 1.259 . S
Co1321 O1322 2.061 . S
Co1321 O1327 2.052 . S
Co1321 O1329 2.135 . S
O1322 Co1321 2.061 . S
O1322 C1325 1.235 . S
C1323 O1326 1.238 . S
C1323 O1327 1.241 . S
C1324 O1317 1.247 . S
C1324 O1318 1.261 . S
C1325 O1320 1.259 . S
C1325 O1322 1.235 . S
O1326 Co1316 2.021 . S
O1326 C1323 1.238 . S
O1327 Co1321 2.052 . S
O1327 C1323 1.241 . S
O1328 Co1316 2.137 . S
O1328 C1319 1.247 . S
O1329 Co1316 2.244 . S
O1329 C1319 1.272 . S
O1329 Co1321 2.135 . S
Co1330 O1331 2.216 . S
Co1330 O1332 2.091 . S
Co1330 O1334 2.004 . S
Co1330 O1340 2.021 . S
Co1330 O1342 2.137 . S
Co1330 O1343 2.244 . S
O1331 Co1330 2.216 . S
O1331 C1338 1.247 . S
O1332 Co1330 2.091 . S
O1332 C1338 1.261 . S
C1333 O1342 1.247 . S
C1333 O1343 1.272 . S
O1334 Co1330 2.004 . S
O1334 C1339 1.259 . S
Co1335 O1336 2.061 . S
Co1335 O1341 2.052 . S
Co1335 O1343 2.135 . S
O1336 Co1335 2.061 . S
O1336 C1339 1.235 . S
C1337 O1340 1.238 . S
C1337 O1341 1.241 . S
C1338 O1331 1.247 . S
C1338 O1332 1.261 . S
C1339 O1334 1.259 . S
C1339 O1336 1.235 . S
O1340 Co1330 2.021 . S
O1340 C1337 1.238 . S
O1341 Co1335 2.052 . S
O1341 C1337 1.241 . S
O1342 Co1330 2.137 . S
O1342 C1333 1.247 . S
O1343 Co1330 2.244 . S
O1343 C1333 1.272 . S
O1343 Co1335 2.135 . S
H1344 C1356 0.930 . S
H1345 C1358 0.930 . S
H1346 C1359 0.930 1_655 S
H1347 C1363 0.959 . S
H1348 C1363 0.959 . S
H1349 C1363 0.961 . S
H1350 C1364 0.960 1_455 S
H1351 C1364 0.961 1_556 S
H1352 C1364 0.959 . S
H1353 C1367 0.929 . S
H1354 C1368 0.931 . S
H1355 C1370 0.930 . S
C1356 H1344 0.930 . S
C1356 C1357 1.399 . S
C1356 C1361 1.399 . S
C1357 C1356 1.399 . S
C1357 C1358 1.376 . S
C1358 H1345 0.930 . S
C1358 C1357 1.376 . S
C1358 C1359 1.388 . S
C1359 H1346 0.930 1_455 S
C1359 C1358 1.388 . S
C1359 C1360 1.391 . S
C1360 C1359 1.391 . S
C1360 C1361 1.400 . S
C1360 C1366 1.459 1_454 S
C1361 C1356 1.399 . S
C1361 C1360 1.400 . S
C1361 C1362 1.516 1_554 S
C1362 C1361 1.516 1_556 S
C1362 C1363 1.502 . S
C1362 C1364 1.561 1_456 S
C1362 C1365 1.526 1_455 S
C1363 H1347 0.959 . S
C1363 H1348 0.959 . S
C1363 H1349 0.961 . S
C1363 C1362 1.502 . S
C1364 H1350 0.960 1_655 S
C1364 H1351 0.961 1_554 S
C1364 H1352 0.959 . S
C1364 C1362 1.561 1_654 S
C1365 C1362 1.526 1_655 S
C1365 C1366 1.396 . S
C1365 C1370 1.390 . S
C1366 C1360 1.459 1_656 S
C1366 C1365 1.396 . S
C1366 C1367 1.399 . S
C1367 H1353 0.929 . S
C1367 C1366 1.399 . S
C1367 C1368 1.385 . S
C1368 H1354 0.931 . S
C1368 C1367 1.385 . S
C1368 C1369 1.389 . S
C1369 C1368 1.389 . S
C1369 C1370 1.387 . S
C1370 H1355 0.930 . S
C1370 C1365 1.390 . S
C1370 C1369 1.387 . S
H1371 C1383 0.930 . S
H1372 C1385 0.930 . S
H1373 C1386 0.930 . S
H1374 C1390 0.959 . S
H1375 C1390 0.959 . S
H1376 C1390 0.961 . S
H1377 C1391 0.960 . S
H1378 C1391 0.961 . S
H1379 C1391 0.959 . S
H1380 C1394 0.929 . S
H1381 C1395 0.931 . S
H1382 C1397 0.930 . S
C1383 H1371 0.930 . S
C1383 C1384 1.399 . S
C1383 C1388 1.399 . S
C1384 C1383 1.399 . S
C1384 C1385 1.376 . S
C1385 H1372 0.930 . S
C1385 C1384 1.376 . S
C1385 C1386 1.388 . S
C1386 H1373 0.930 . S
C1386 C1385 1.388 . S
C1386 C1387 1.390 . S
C1387 C1386 1.390 . S
C1387 C1388 1.394 . S
C1387 C1393 1.465 . S
C1388 C1383 1.399 . S
C1388 C1387 1.394 . S
C1388 C1389 1.516 . S
C1389 C1388 1.516 . S
C1389 C1390 1.502 . S
C1389 C1391 1.561 . S
C1389 C1392 1.526 . S
C1390 H1374 0.959 . S
C1390 H1375 0.959 . S
C1390 H1376 0.961 . S
C1390 C1389 1.502 . S
C1391 H1377 0.960 . S
C1391 H1378 0.961 . S
C1391 H1379 0.959 . S
C1391 C1389 1.561 . S
C1392 C1389 1.526 . S
C1392 C1393 1.396 . S
C1392 C1397 1.390 . S
C1393 C1387 1.465 . S
C1393 C1392 1.396 . S
C1393 C1394 1.399 . S
C1394 H1380 0.929 . S
C1394 C1393 1.399 . S
C1394 C1395 1.385 . S
C1395 H1381 0.931 . S
C1395 C1394 1.385 . S
C1395 C1396 1.389 . S
C1396 C1395 1.389 . S
C1396 C1397 1.387 . S
C1397 H1382 0.930 . S
C1397 C1392 1.390 . S
C1397 C1396 1.387 . S
H1398 C1410 0.930 . S
H1399 C1412 0.930 . S
H1400 C1413 0.930 1_455 S
H1401 C1417 0.959 1_455 S
H1402 C1417 0.959 . S
H1403 C1417 0.961 . S
H1404 C1418 0.960 . S
H1405 C1418 0.961 . S
H1406 C1418 0.959 . S
H1407 C1421 0.929 . S
H1408 C1422 0.931 . S
H1409 C1424 0.930 . S
C1410 H1398 0.930 . S
C1410 C1411 1.399 . S
C1410 C1415 1.399 . S
C1411 C1410 1.399 . S
C1411 C1412 1.376 . S
C1412 H1399 0.930 . S
C1412 C1411 1.376 . S
C1412 C1413 1.388 . S
C1413 H1400 0.930 1_655 S
C1413 C1412 1.388 . S
C1413 C1414 1.390 . S
C1414 C1413 1.390 . S
C1414 C1415 1.394 . S
C1414 C1420 1.465 1_655 S
C1415 C1410 1.399 . S
C1415 C1414 1.394 . S
C1415 C1416 1.516 . S
C1416 C1415 1.516 . S
C1416 C1417 1.502 . S
C1416 C1418 1.561 . S
C1416 C1419 1.526 1_655 S
C1417 H1401 0.959 1_655 S
C1417 H1402 0.959 . S
C1417 H1403 0.961 . S
C1417 C1416 1.502 . S
C1418 H1404 0.960 . S
C1418 H1405 0.961 . S
C1418 H1406 0.959 . S
C1418 C1416 1.561 . S
C1419 C1416 1.526 1_455 S
C1419 C1420 1.396 . S
C1419 C1424 1.390 . S
C1420 C1414 1.465 1_455 S
C1420 C1419 1.396 . S
C1420 C1421 1.399 . S
C1421 H1407 0.929 . S
C1421 C1420 1.399 . S
C1421 C1422 1.385 . S
C1422 H1408 0.931 . S
C1422 C1421 1.385 . S
C1422 C1423 1.389 . S
C1423 C1422 1.389 . S
C1423 C1424 1.387 . S
C1424 H1409 0.930 . S
C1424 C1419 1.390 . S
C1424 C1423 1.387 . S
H1425 C1437 0.930 . S
H1426 C1439 0.930 . S
H1427 C1440 0.930 . S
H1428 C1444 0.959 . S
H1429 C1444 0.959 . S
H1430 C1444 0.961 . S
H1431 C1445 0.960 . S
H1432 C1445 0.961 . S
H1433 C1445 0.959 . S
H1434 C1448 0.929 . S
H1435 C1449 0.931 . S
H1436 C1451 0.930 . S
C1437 H1425 0.930 . S
C1437 C1438 1.399 . S
C1437 C1442 1.399 . S
C1438 C1437 1.399 . S
C1438 C1439 1.376 . S
C1439 H1426 0.930 . S
C1439 C1438 1.376 . S
C1439 C1440 1.388 . S
C1440 H1427 0.930 . S
C1440 C1439 1.388 . S
C1440 C1441 1.390 . S
C1441 C1440 1.390 . S
C1441 C1442 1.394 . S
C1441 C1447 1.465 . S
C1442 C1437 1.399 . S
C1442 C1441 1.394 . S
C1442 C1443 1.516 . S
C1443 C1442 1.516 . S
C1443 C1444 1.502 . S
C1443 C1445 1.561 . S
C1443 C1446 1.526 . S
C1444 H1428 0.959 . S
C1444 H1429 0.959 . S
C1444 H1430 0.961 . S
C1444 C1443 1.502 . S
C1445 H1431 0.960 . S
C1445 H1432 0.961 . S
C1445 H1433 0.959 . S
C1445 C1443 1.561 . S
C1446 C1443 1.526 . S
C1446 C1447 1.396 . S
C1446 C1451 1.390 . S
C1447 C1441 1.465 . S
C1447 C1446 1.396 . S
C1447 C1448 1.399 . S
C1448 H1434 0.929 . S
C1448 C1447 1.399 . S
C1448 C1449 1.385 . S
C1449 H1435 0.931 . S
C1449 C1448 1.385 . S
C1449 C1450 1.389 . S
C1450 C1449 1.389 . S
C1450 C1451 1.387 . S
C1451 H1436 0.930 . S
C1451 C1446 1.390 . S
C1451 C1450 1.387 . S
H1452 C1464 0.930 . S
H1453 C1466 0.930 . S
H1454 C1467 0.930 1_455 S
H1455 C1471 0.959 . S
H1456 C1471 0.959 . S
H1457 C1471 0.961 . S
H1458 C1472 0.991 . S
H1459 C1472 0.961 1_556 S
H1460 C1472 0.959 . S
H1461 C1475 0.929 . S
H1462 C1476 0.931 . S
H1463 C1478 0.930 . S
C1464 H1452 0.930 . S
C1464 C1465 1.399 . S
C1464 C1469 1.399 . S
C1465 C1464 1.399 . S
C1465 C1466 1.376 . S
C1466 H1453 0.930 . S
C1466 C1465 1.376 . S
C1466 C1467 1.388 . S
C1467 H1454 0.930 1_655 S
C1467 C1466 1.388 . S
C1467 C1468 1.396 . S
C1468 C1467 1.396 . S
C1468 C1469 1.418 . S
C1468 C1474 1.440 1_654 S
C1469 C1464 1.399 . S
C1469 C1468 1.418 . S
C1469 C1470 1.516 1_554 S
C1470 C1469 1.516 1_556 S
C1470 C1471 1.502 . S
C1470 C1472 1.561 1_656 S
C1470 C1473 1.526 1_655 S
C1471 H1455 0.959 . S
C1471 H1456 0.959 . S
C1471 H1457 0.961 . S
C1471 C1470 1.502 . S
C1472 H1458 0.991 . S
C1472 H1459 0.961 1_554 S
C1472 H1460 0.959 . S
C1472 C1470 1.561 1_454 S
C1473 C1470 1.526 1_455 S
C1473 C1474 1.396 . S
C1473 C1478 1.390 . S
C1474 C1468 1.440 1_456 S
C1474 C1473 1.396 . S
C1474 C1475 1.399 . S
C1475 H1461 0.929 . S
C1475 C1474 1.399 . S
C1475 C1476 1.385 . S
C1476 H1462 0.931 . S
C1476 C1475 1.385 . S
C1476 C1477 1.389 . S
C1477 C1476 1.389 . S
C1477 C1478 1.387 . S
C1478 H1463 0.930 . S
C1478 C1473 1.390 . S
C1478 C1477 1.387 . S
H1479 C1491 0.930 . S
H1480 C1493 0.930 . S
H1481 C1494 0.930 . S
H1482 C1498 0.959 . S
H1483 C1498 0.959 . S
H1484 C1498 0.961 . S
H1485 C1499 0.960 . S
H1486 C1499 0.961 . S
H1487 C1499 0.959 . S
H1488 C1502 0.929 . S
H1489 C1503 0.931 . S
H1490 C1505 0.930 . S
C1491 H1479 0.930 . S
C1491 C1492 1.399 . S
C1491 C1496 1.399 . S
C1492 C1491 1.399 . S
C1492 C1493 1.376 . S
C1493 H1480 0.930 . S
C1493 C1492 1.376 . S
C1493 C1494 1.388 . S
C1494 H1481 0.930 . S
C1494 C1493 1.388 . S
C1494 C1495 1.390 . S
C1495 C1494 1.390 . S
C1495 C1496 1.394 . S
C1495 C1501 1.465 . S
C1496 C1491 1.399 . S
C1496 C1495 1.394 . S
C1496 C1497 1.516 . S
C1497 C1496 1.516 . S
C1497 C1498 1.502 . S
C1497 C1499 1.561 . S
C1497 C1500 1.526 . S
C1498 H1482 0.959 . S
C1498 H1483 0.959 . S
C1498 H1484 0.961 . S
C1498 C1497 1.502 . S
C1499 H1485 0.960 . S
C1499 H1486 0.961 . S
C1499 H1487 0.959 . S
C1499 C1497 1.561 . S
C1500 C1497 1.526 . S
C1500 C1501 1.396 . S
C1500 C1505 1.390 . S
C1501 C1495 1.465 . S
C1501 C1500 1.396 . S
C1501 C1502 1.399 . S
C1502 H1488 0.929 . S
C1502 C1501 1.399 . S
C1502 C1503 1.385 . S
C1503 H1489 0.931 . S
C1503 C1502 1.385 . S
C1503 C1504 1.389 . S
C1504 C1503 1.389 . S
C1504 C1505 1.387 . S
C1505 H1490 0.930 . S
C1505 C1500 1.390 . S
C1505 C1504 1.387 . S
H1506 C1518 0.930 . S
H1507 C1520 0.930 . S
H1508 C1521 0.932 . S
H1509 C1525 0.959 . S
H1510 C1525 0.959 . S
H1511 C1525 0.961 . S
H1512 C1526 0.960 1_455 S
H1513 C1526 0.961 . S
H1514 C1526 0.959 . S
H1515 C1529 0.929 . S
H1516 C1530 0.931 . S
H1517 C1532 0.930 . S
C1518 H1506 0.930 . S
C1518 C1519 1.399 . S
C1518 C1523 1.399 . S
C1519 C1518 1.399 . S
C1519 C1520 1.376 . S
C1520 H1507 0.930 . S
C1520 C1519 1.376 . S
C1520 C1521 1.386 1_455 S
C1521 H1508 0.932 . S
C1521 C1520 1.386 1_655 S
C1521 C1522 1.390 . S
C1522 C1521 1.390 . S
C1522 C1523 1.385 1_655 S
C1522 C1528 1.473 . S
C1523 C1518 1.399 . S
C1523 C1522 1.385 1_455 S
C1523 C1524 1.516 . S
C1524 C1523 1.516 . S
C1524 C1525 1.502 . S
C1524 C1526 1.561 1_455 S
C1524 C1527 1.526 1_455 S
C1525 H1509 0.959 . S
C1525 H1510 0.959 . S
C1525 H1511 0.961 . S
C1525 C1524 1.502 . S
C1526 H1512 0.960 1_655 S
C1526 H1513 0.961 . S
C1526 H1514 0.959 . S
C1526 C1524 1.561 1_655 S
C1527 C1524 1.526 1_655 S
C1527 C1528 1.396 . S
C1527 C1532 1.390 . S
C1528 C1522 1.473 . S
C1528 C1527 1.396 . S
C1528 C1529 1.399 . S
C1529 H1515 0.929 . S
C1529 C1528 1.399 . S
C1529 C1530 1.385 . S
C1530 H1516 0.931 . S
C1530 C1529 1.385 . S
C1530 C1531 1.389 . S
C1531 C1530 1.389 . S
C1531 C1532 1.387 . S
C1532 H1517 0.930 . S
C1532 C1527 1.390 . S
C1532 C1531 1.387 . S
H1533 C1545 0.930 . S
H1534 C1547 0.930 . S
H1535 C1548 0.930 . S
H1536 C1552 0.959 . S
H1537 C1552 0.959 . S
H1538 C1552 0.961 . S
H1539 C1553 0.960 . S
H1540 C1553 0.961 . S
H1541 C1553 0.959 . S
H1542 C1556 0.929 . S
H1543 C1557 0.931 . S
H1544 C1559 0.930 . S
C1545 H1533 0.930 . S
C1545 C1546 1.399 . S
C1545 C1550 1.399 . S
C1546 C1545 1.399 . S
C1546 C1547 1.376 . S
C1547 H1534 0.930 . S
C1547 C1546 1.376 . S
C1547 C1548 1.388 . S
C1548 H1535 0.930 . S
C1548 C1547 1.388 . S
C1548 C1549 1.390 . S
C1549 C1548 1.390 . S
C1549 C1550 1.394 . S
C1549 C1555 1.465 . S
C1550 C1545 1.399 . S
C1550 C1549 1.394 . S
C1550 C1551 1.516 . S
C1551 C1550 1.516 . S
C1551 C1552 1.502 . S
C1551 C1553 1.561 . S
C1551 C1554 1.526 . S
C1552 H1536 0.959 . S
C1552 H1537 0.959 . S
C1552 H1538 0.961 . S
C1552 C1551 1.502 . S
C1553 H1539 0.960 . S
C1553 H1540 0.961 . S
C1553 H1541 0.959 . S
C1553 C1551 1.561 . S
C1554 C1551 1.526 . S
C1554 C1555 1.396 . S
C1554 C1559 1.390 . S
C1555 C1549 1.465 . S
C1555 C1554 1.396 . S
C1555 C1556 1.399 . S
C1556 H1542 0.929 . S
C1556 C1555 1.399 . S
C1556 C1557 1.385 . S
C1557 H1543 0.931 . S
C1557 C1556 1.385 . S
C1557 C1558 1.389 . S
C1558 C1557 1.389 . S
C1558 C1559 1.387 . S
C1559 H1544 0.930 . S
C1559 C1554 1.390 . S
C1559 C1558 1.387 . S
H1560 C1572 0.930 . S
H1561 C1574 0.930 . S
H1562 C1575 0.930 . S
H1563 C1579 0.959 . S
H1564 C1579 0.959 1_545 S
H1565 C1579 0.961 1_655 S
H1566 C1580 0.960 . S
H1567 C1580 0.961 . S
H1568 C1580 0.959 . S
H1569 C1583 0.929 . S
H1570 C1584 0.931 . S
H1571 C1586 0.930 . S
C1572 H1560 0.930 . S
C1572 C1573 1.399 . S
C1572 C1577 1.399 . S
C1573 C1572 1.399 . S
C1573 C1574 1.376 . S
C1574 H1561 0.930 . S
C1574 C1573 1.376 . S
C1574 C1575 1.388 . S
C1575 H1562 0.930 . S
C1575 C1574 1.388 . S
C1575 C1576 1.390 . S
C1576 C1575 1.390 . S
C1576 C1577 1.394 . S
C1576 C1582 1.465 1_665 S
C1577 C1572 1.399 . S
C1577 C1576 1.394 . S
C1577 C1578 1.516 1_565 S
C1578 C1577 1.516 1_545 S
C1578 C1579 1.502 1_645 S
C1578 C1580 1.561 . S
C1578 C1581 1.526 1_655 S
C1579 H1563 0.959 . S
C1579 H1564 0.959 1_565 S
C1579 H1565 0.961 1_455 S
C1579 C1578 1.502 1_465 S
C1580 H1566 0.960 . S
C1580 H1567 0.961 . S
C1580 H1568 0.959 . S
C1580 C1578 1.561 . S
C1581 C1578 1.526 1_455 S
C1581 C1582 1.396 . S
C1581 C1586 1.390 . S
C1582 C1576 1.465 1_445 S
C1582 C1581 1.396 . S
C1582 C1583 1.399 . S
C1583 H1569 0.929 . S
C1583 C1582 1.399 . S
C1583 C1584 1.385 . S
C1584 H1570 0.931 . S
C1584 C1583 1.385 . S
C1584 C1585 1.389 . S
C1585 C1584 1.389 . S
C1585 C1586 1.387 . S
C1586 H1571 0.930 . S
C1586 C1581 1.390 . S
C1586 C1585 1.387 . S
H1587 C1599 0.930 . S
H1588 C1601 0.930 . S
H1589 C1602 0.930 . S
H1590 C1606 0.959 . S
H1591 C1606 0.959 . S
H1592 C1606 0.961 . S
H1593 C1607 0.960 . S
H1594 C1607 0.961 . S
H1595 C1607 0.959 . S
H1596 C1610 0.929 . S
H1597 C1611 0.931 . S
H1598 C1613 0.930 . S
C1599 H1587 0.930 . S
C1599 C1600 1.399 . S
C1599 C1604 1.399 . S
C1600 C1599 1.399 . S
C1600 C1601 1.376 . S
C1601 H1588 0.930 . S
C1601 C1600 1.376 . S
C1601 C1602 1.388 . S
C1602 H1589 0.930 . S
C1602 C1601 1.388 . S
C1602 C1603 1.390 . S
C1603 C1602 1.390 . S
C1603 C1604 1.394 . S
C1603 C1609 1.465 . S
C1604 C1599 1.399 . S
C1604 C1603 1.394 . S
C1604 C1605 1.516 . S
C1605 C1604 1.516 . S
C1605 C1606 1.502 . S
C1605 C1607 1.561 . S
C1605 C1608 1.526 . S
C1606 H1590 0.959 . S
C1606 H1591 0.959 . S
C1606 H1592 0.961 . S
C1606 C1605 1.502 . S
C1607 H1593 0.960 . S
C1607 H1594 0.961 . S
C1607 H1595 0.959 . S
C1607 C1605 1.561 . S
C1608 C1605 1.526 . S
C1608 C1609 1.396 . S
C1608 C1613 1.390 . S
C1609 C1603 1.465 . S
C1609 C1608 1.396 . S
C1609 C1610 1.399 . S
C1610 H1596 0.929 . S
C1610 C1609 1.399 . S
C1610 C1611 1.385 . S
C1611 H1597 0.931 . S
C1611 C1610 1.385 . S
C1611 C1612 1.389 . S
C1612 C1611 1.389 . S
C1612 C1613 1.387 . S
C1613 H1598 0.930 . S
C1613 C1608 1.390 . S
C1613 C1612 1.387 . S
H1614 C1626 0.930 . S
H1615 C1628 0.930 . S
H1616 C1629 0.930 . S
H1617 C1633 0.959 . S
H1618 C1633 0.959 . S
H1619 C1633 0.961 . S
H1620 C1634 0.960 1_655 S
H1621 C1634 0.961 . S
H1622 C1634 0.959 . S
H1623 C1637 0.929 . S
H1624 C1638 0.931 . S
H1625 C1640 0.930 . S
C1626 H1614 0.930 . S
C1626 C1627 1.399 . S
C1626 C1631 1.399 . S
C1627 C1626 1.399 . S
C1627 C1628 1.376 . S
C1628 H1615 0.930 . S
C1628 C1627 1.376 . S
C1628 C1629 1.388 . S
C1629 H1616 0.930 . S
C1629 C1628 1.388 . S
C1629 C1630 1.390 . S
C1630 C1629 1.390 . S
C1630 C1631 1.394 . S
C1630 C1636 1.465 1_655 S
C1631 C1626 1.399 . S
C1631 C1630 1.394 . S
C1631 C1632 1.516 . S
C1632 C1631 1.516 . S
C1632 C1633 1.502 . S
C1632 C1634 1.561 1_655 S
C1632 C1635 1.526 1_655 S
C1633 H1617 0.959 . S
C1633 H1618 0.959 . S
C1633 H1619 0.961 . S
C1633 C1632 1.502 . S
C1634 H1620 0.960 1_455 S
C1634 H1621 0.961 . S
C1634 H1622 0.959 . S
C1634 C1632 1.561 1_455 S
C1635 C1632 1.526 1_455 S
C1635 C1636 1.396 . S
C1635 C1640 1.390 . S
C1636 C1630 1.465 1_455 S
C1636 C1635 1.396 . S
C1636 C1637 1.399 . S
C1637 H1623 0.929 . S
C1637 C1636 1.399 . S
C1637 C1638 1.385 . S
C1638 H1624 0.931 . S
C1638 C1637 1.385 . S
C1638 C1639 1.389 . S
C1639 C1638 1.389 . S
C1639 C1640 1.387 . S
C1640 H1625 0.930 . S
C1640 C1635 1.390 . S
C1640 C1639 1.387 . S
H1641 C1653 0.930 . S
H1642 C1655 0.930 . S
H1643 C1656 0.930 . S
H1644 C1660 0.959 . S
H1645 C1660 0.959 . S
H1646 C1660 0.961 . S
H1647 C1661 0.960 . S
H1648 C1661 0.961 . S
H1649 C1661 0.959 . S
H1650 C1664 0.929 . S
H1651 C1665 0.931 . S
H1652 C1667 0.930 . S
C1653 H1641 0.930 . S
C1653 C1654 1.399 . S
C1653 C1658 1.399 . S
C1654 C1653 1.399 . S
C1654 C1655 1.376 . S
C1655 H1642 0.930 . S
C1655 C1654 1.376 . S
C1655 C1656 1.388 . S
C1656 H1643 0.930 . S
C1656 C1655 1.388 . S
C1656 C1657 1.390 . S
C1657 C1656 1.390 . S
C1657 C1658 1.394 . S
C1657 C1663 1.465 . S
C1658 C1653 1.399 . S
C1658 C1657 1.394 . S
C1658 C1659 1.516 . S
C1659 C1658 1.516 . S
C1659 C1660 1.502 . S
C1659 C1661 1.561 . S
C1659 C1662 1.526 . S
C1660 H1644 0.959 . S
C1660 H1645 0.959 . S
C1660 H1646 0.961 . S
C1660 C1659 1.502 . S
C1661 H1647 0.960 . S
C1661 H1648 0.961 . S
C1661 H1649 0.959 . S
C1661 C1659 1.561 . S
C1662 C1659 1.526 . S
C1662 C1663 1.396 . S
C1662 C1667 1.390 . S
C1663 C1657 1.465 . S
C1663 C1662 1.396 . S
C1663 C1664 1.399 . S
C1664 H1650 0.929 . S
C1664 C1663 1.399 . S
C1664 C1665 1.385 . S
C1665 H1651 0.931 . S
C1665 C1664 1.385 . S
C1665 C1666 1.389 . S
C1666 C1665 1.389 . S
C1666 C1667 1.387 . S
C1667 H1652 0.930 . S
C1667 C1662 1.390 . S
C1667 C1666 1.387 . S
H1668 C1680 0.930 . S
H1669 C1682 0.930 . S
H1670 C1683 0.930 . S
H1671 C1687 0.985 . S
H1672 C1687 0.915 1_655 S
H1673 C1687 0.998 1_565 S
H1674 C1688 0.960 . S
H1675 C1688 0.961 . S
H1676 C1688 0.959 . S
H1677 C1691 0.929 . S
H1678 C1692 0.931 . S
H1679 C1694 0.930 . S
C1680 H1668 0.930 . S
C1680 C1681 1.399 . S
C1680 C1685 1.399 . S
C1681 C1680 1.399 . S
C1681 C1682 1.376 . S
C1682 H1669 0.930 . S
C1682 C1681 1.376 . S
C1682 C1683 1.388 . S
C1683 H1670 0.930 . S
C1683 C1682 1.388 . S
C1683 C1684 1.390 . S
C1684 C1683 1.390 . S
C1684 C1685 1.394 . S
C1684 C1690 1.465 1_465 S
C1685 C1680 1.399 . S
C1685 C1684 1.394 . S
C1685 C1686 1.516 1_455 S
C1686 C1685 1.516 1_655 S
C1686 C1687 1.489 1_665 S
C1686 C1688 1.561 . S
C1686 C1689 1.526 1_565 S
C1687 H1671 0.985 . S
C1687 H1672 0.915 1_455 S
C1687 H1673 0.998 1_545 S
C1687 C1686 1.489 1_445 S
C1688 H1674 0.960 . S
C1688 H1675 0.961 . S
C1688 H1676 0.959 . S
C1688 C1686 1.561 . S
C1689 C1686 1.526 1_545 S
C1689 C1690 1.396 . S
C1689 C1694 1.390 . S
C1690 C1684 1.465 1_645 S
C1690 C1689 1.396 . S
C1690 C1691 1.399 . S
C1691 H1677 0.929 . S
C1691 C1690 1.399 . S
C1691 C1692 1.385 . S
C1692 H1678 0.931 . S
C1692 C1691 1.385 . S
C1692 C1693 1.389 . S
C1693 C1692 1.389 . S
C1693 C1694 1.387 . S
C1694 H1679 0.930 . S
C1694 C1689 1.390 . S
C1694 C1693 1.387 . S
H1695 C1707 0.930 . S
H1696 C1709 0.930 . S
H1697 C1710 0.930 . S
H1698 C1714 0.959 . S
H1699 C1714 0.959 . S
H1700 C1714 0.961 . S
H1701 C1715 0.960 . S
H1702 C1715 0.961 . S
H1703 C1715 0.959 . S
H1704 C1718 0.929 . S
H1705 C1719 0.931 . S
H1706 C1721 0.930 . S
C1707 H1695 0.930 . S
C1707 C1708 1.399 . S
C1707 C1712 1.399 . S
C1708 C1707 1.399 . S
C1708 C1709 1.376 . S
C1709 H1696 0.930 . S
C1709 C1708 1.376 . S
C1709 C1710 1.388 . S
C1710 H1697 0.930 . S
C1710 C1709 1.388 . S
C1710 C1711 1.390 . S
C1711 C1710 1.390 . S
C1711 C1712 1.394 . S
C1711 C1717 1.465 . S
C1712 C1707 1.399 . S
C1712 C1711 1.394 . S
C1712 C1713 1.516 . S
C1713 C1712 1.516 . S
C1713 C1714 1.502 . S
C1713 C1715 1.561 . S
C1713 C1716 1.526 . S
C1714 H1698 0.959 . S
C1714 H1699 0.959 . S
C1714 H1700 0.961 . S
C1714 C1713 1.502 . S
C1715 H1701 0.960 . S
C1715 H1702 0.961 . S
C1715 H1703 0.959 . S
C1715 C1713 1.561 . S
C1716 C1713 1.526 . S
C1716 C1717 1.396 . S
C1716 C1721 1.390 . S
C1717 C1711 1.465 . S
C1717 C1716 1.396 . S
C1717 C1718 1.399 . S
C1718 H1704 0.929 . S
C1718 C1717 1.399 . S
C1718 C1719 1.385 . S
C1719 H1705 0.931 . S
C1719 C1718 1.385 . S
C1719 C1720 1.389 . S
C1720 C1719 1.389 . S
C1720 C1721 1.387 . S
C1721 H1706 0.930 . S
C1721 C1716 1.390 . S
C1721 C1720 1.387 . S
H1722 C1734 0.930 . S
H1723 C1736 0.930 . S
H1724 C1737 0.930 . S
H1725 C1741 0.959 . S
H1726 C1741 0.959 . S
H1727 C1741 0.961 1_455 S
H1728 C1742 0.960 . S
H1729 C1742 0.961 . S
H1730 C1742 0.959 . S
H1731 C1745 0.929 . S
H1732 C1746 0.931 . S
H1733 C1748 0.930 . S
C1734 H1722 0.930 . S
C1734 C1735 1.399 . S
C1734 C1739 1.399 . S
C1735 C1734 1.399 . S
C1735 C1736 1.376 . S
C1736 H1723 0.930 . S
C1736 C1735 1.376 . S
C1736 C1737 1.388 . S
C1737 H1724 0.930 . S
C1737 C1736 1.388 . S
C1737 C1738 1.390 . S
C1738 C1737 1.390 . S
C1738 C1739 1.394 . S
C1738 C1744 1.465 1_455 S
C1739 C1734 1.399 . S
C1739 C1738 1.394 . S
C1739 C1740 1.552 . S
C1740 C1739 1.552 . S
C1740 C1741 1.481 1_455 S
C1740 C1742 1.586 . S
C1740 C1743 1.490 1_455 S
C1741 H1725 0.959 . S
C1741 H1726 0.959 . S
C1741 H1727 0.961 1_655 S
C1741 C1740 1.481 1_655 S
C1742 H1728 0.960 . S
C1742 H1729 0.961 . S
C1742 H1730 0.959 . S
C1742 C1740 1.586 . S
C1743 C1740 1.490 1_655 S
C1743 C1744 1.396 . S
C1743 C1748 1.390 . S
C1744 C1738 1.465 1_655 S
C1744 C1743 1.396 . S
C1744 C1745 1.399 . S
C1745 H1731 0.929 . S
C1745 C1744 1.399 . S
C1745 C1746 1.385 . S
C1746 H1732 0.931 . S
C1746 C1745 1.385 . S
C1746 C1747 1.389 . S
C1747 C1746 1.389 . S
C1747 C1748 1.387 . S
C1748 H1733 0.930 . S
C1748 C1743 1.390 . S
C1748 C1747 1.387 . S
H1749 C1761 0.930 . S
H1750 C1763 0.930 . S
H1751 C1764 0.930 . S
H1752 C1768 0.959 . S
H1753 C1768 0.959 . S
H1754 C1768 0.961 . S
H1755 C1769 0.960 . S
H1756 C1769 0.961 . S
H1757 C1769 0.959 . S
H1758 C1772 0.929 . S
H1759 C1773 0.931 . S
H1760 C1775 0.930 . S
C1761 H1749 0.930 . S
C1761 C1762 1.399 . S
C1761 C1766 1.399 . S
C1762 C1761 1.399 . S
C1762 C1763 1.376 . S
C1763 H1750 0.930 . S
C1763 C1762 1.376 . S
C1763 C1764 1.388 . S
C1764 H1751 0.930 . S
C1764 C1763 1.388 . S
C1764 C1765 1.390 . S
C1765 C1764 1.390 . S
C1765 C1766 1.394 . S
C1765 C1771 1.465 . S
C1766 C1761 1.399 . S
C1766 C1765 1.394 . S
C1766 C1767 1.516 . S
C1767 C1766 1.516 . S
C1767 C1768 1.502 . S
C1767 C1769 1.561 . S
C1767 C1770 1.526 . S
C1768 H1752 0.959 . S
C1768 H1753 0.959 . S
C1768 H1754 0.961 . S
C1768 C1767 1.502 . S
C1769 H1755 0.960 . S
C1769 H1756 0.961 . S
C1769 H1757 0.959 . S
C1769 C1767 1.561 . S
C1770 C1767 1.526 . S
C1770 C1771 1.396 . S
C1770 C1775 1.390 . S
C1771 C1765 1.465 . S
C1771 C1770 1.396 . S
C1771 C1772 1.399 . S
C1772 H1758 0.929 . S
C1772 C1771 1.399 . S
C1772 C1773 1.385 . S
C1773 H1759 0.931 . S
C1773 C1772 1.385 . S
C1773 C1774 1.389 . S
C1774 C1773 1.389 . S
C1774 C1775 1.387 . S
C1775 H1760 0.930 . S
C1775 C1770 1.390 . S
C1775 C1774 1.387 . S
H1776 C1788 0.930 . S
H1777 C1790 0.930 . S
H1778 C1791 0.919 1_545 S
H1779 C1795 0.959 . S
H1780 C1795 0.959 . S
H1781 C1795 0.961 . S
H1782 C1796 0.960 . S
H1783 C1796 0.961 . S
H1784 C1796 0.959 . S
H1785 C1799 0.929 . S
H1786 C1800 0.931 . S
H1787 C1802 0.930 . S
C1788 H1776 0.930 . S
C1788 C1789 1.399 . S
C1788 C1793 1.425 . S
C1789 C1788 1.399 . S
C1789 C1790 1.376 . S
C1790 H1777 0.930 . S
C1790 C1789 1.376 . S
C1790 C1791 1.388 . S
C1791 H1778 0.919 1_565 S
C1791 C1790 1.388 . S
C1791 C1792 1.390 . S
C1792 C1791 1.390 . S
C1792 C1793 1.432 . S
C1792 C1798 1.465 1_565 S
C1793 C1788 1.425 . S
C1793 C1792 1.432 . S
C1793 C1794 1.456 1_556 S
C1794 C1793 1.456 1_554 S
C1794 C1795 1.502 . S
C1794 C1796 1.561 . S
C1794 C1797 1.526 1_565 S
C1795 H1779 0.959 . S
C1795 H1780 0.959 . S
C1795 H1781 0.961 . S
C1795 C1794 1.502 . S
C1796 H1782 0.960 . S
C1796 H1783 0.961 . S
C1796 H1784 0.959 . S
C1796 C1794 1.561 . S
C1797 C1794 1.526 1_545 S
C1797 C1798 1.396 1_554 S
C1797 C1802 1.390 . S
C1798 C1792 1.465 1_545 S
C1798 C1797 1.396 1_556 S
C1798 C1799 1.399 . S
C1799 H1785 0.929 . S
C1799 C1798 1.399 . S
C1799 C1800 1.385 1_556 S
C1800 H1786 0.931 . S
C1800 C1799 1.385 1_554 S
C1800 C1801 1.389 . S
C1801 C1800 1.389 . S
C1801 C1802 1.387 . S
C1802 H1787 0.930 . S
C1802 C1797 1.390 . S
C1802 C1801 1.387 . S
H1803 C1815 0.930 . S
H1804 C1817 0.930 . S
H1805 C1818 0.930 . S
H1806 C1822 0.959 . S
H1807 C1822 0.959 . S
H1808 C1822 0.961 . S
H1809 C1823 0.960 . S
H1810 C1823 0.961 . S
H1811 C1823 0.959 . S
H1812 C1826 0.938 . S
H1813 C1827 0.931 . S
H1814 C1829 0.930 . S
C1815 H1803 0.930 . S
C1815 C1816 1.399 . S
C1815 C1820 1.399 . S
C1816 C1815 1.399 . S
C1816 C1817 1.376 . S
C1817 H1804 0.930 . S
C1817 C1816 1.376 . S
C1817 C1818 1.388 . S
C1818 H1805 0.930 . S
C1818 C1817 1.388 . S
C1818 C1819 1.390 . S
C1819 C1818 1.390 . S
C1819 C1820 1.394 . S
C1819 C1825 1.465 1_545 S
C1820 C1815 1.399 . S
C1820 C1819 1.394 . S
C1820 C1821 1.516 1_545 S
C1821 C1820 1.516 1_565 S
C1821 C1822 1.502 . S
C1821 C1823 1.561 . S
C1821 C1824 1.526 . S
C1822 H1806 0.959 . S
C1822 H1807 0.959 . S
C1822 H1808 0.961 . S
C1822 C1821 1.502 . S
C1823 H1809 0.960 . S
C1823 H1810 0.961 . S
C1823 H1811 0.959 . S
C1823 C1821 1.561 . S
C1824 C1821 1.526 . S
C1824 C1825 1.396 . S
C1824 C1829 1.390 . S
C1825 C1819 1.465 1_565 S
C1825 C1824 1.396 . S
C1825 C1826 1.399 . S
C1826 H1812 0.938 . S
C1826 C1825 1.399 . S
C1826 C1827 1.385 . S
C1827 H1813 0.931 . S
C1827 C1826 1.385 . S
C1827 C1828 1.389 . S
C1828 C1827 1.389 . S
C1828 C1829 1.387 . S
C1829 H1814 0.930 . S
C1829 C1824 1.390 . S
C1829 C1828 1.387 . S
H1830 C1842 0.930 . S
H1831 C1844 0.930 . S
H1832 C1845 0.930 . S
H1833 C1849 0.959 . S
H1834 C1849 0.959 . S
H1835 C1849 0.961 . S
H1836 C1850 0.960 . S
H1837 C1850 0.961 . S
H1838 C1850 0.959 . S
H1839 C1853 0.929 . S
H1840 C1854 0.931 . S
H1841 C1856 0.930 . S
C1842 H1830 0.930 . S
C1842 C1843 1.399 . S
C1842 C1847 1.399 . S
C1843 C1842 1.399 . S
C1843 C1844 1.376 . S
C1844 H1831 0.930 . S
C1844 C1843 1.376 . S
C1844 C1845 1.388 . S
C1845 H1832 0.930 . S
C1845 C1844 1.388 . S
C1845 C1846 1.390 . S
C1846 C1845 1.390 . S
C1846 C1847 1.394 . S
C1846 C1852 1.465 . S
C1847 C1842 1.399 . S
C1847 C1846 1.394 . S
C1847 C1848 1.516 . S
C1848 C1847 1.516 . S
C1848 C1849 1.502 . S
C1848 C1850 1.561 . S
C1848 C1851 1.526 . S
C1849 H1833 0.959 . S
C1849 H1834 0.959 . S
C1849 H1835 0.961 . S
C1849 C1848 1.502 . S
C1850 H1836 0.960 . S
C1850 H1837 0.961 . S
C1850 H1838 0.959 . S
C1850 C1848 1.561 . S
C1851 C1848 1.526 . S
C1851 C1852 1.396 . S
C1851 C1856 1.390 . S
C1852 C1846 1.465 . S
C1852 C1851 1.396 . S
C1852 C1853 1.399 . S
C1853 H1839 0.929 . S
C1853 C1852 1.399 . S
C1853 C1854 1.385 . S
C1854 H1840 0.931 . S
C1854 C1853 1.385 . S
C1854 C1855 1.389 . S
C1855 C1854 1.389 . S
C1855 C1856 1.387 . S
C1856 H1841 0.930 . S
C1856 C1851 1.390 . S
C1856 C1855 1.387 . S
H1857 C1869 0.930 . S
H1858 C1871 0.930 . S
H1859 C1872 0.930 . S
H1860 C1876 0.959 . S
H1861 C1876 0.959 . S
H1862 C1876 0.961 . S
H1863 C1877 0.960 . S
H1864 C1877 0.961 . S
H1865 C1877 0.959 . S
H1866 C1880 0.929 . S
H1867 C1881 0.931 . S
H1868 C1883 0.930 . S
C1869 H1857 0.930 . S
C1869 C1870 1.399 . S
C1869 C1874 1.399 . S
C1870 C1869 1.399 . S
C1870 C1871 1.376 . S
C1871 H1858 0.930 . S
C1871 C1870 1.376 . S
C1871 C1872 1.388 1_554 S
C1872 H1859 0.930 . S
C1872 C1871 1.388 1_556 S
C1872 C1873 1.399 . S
C1873 C1872 1.399 . S
C1873 C1874 1.359 1_556 S
C1873 C1879 1.488 . S
C1874 C1869 1.399 . S
C1874 C1873 1.359 1_554 S
C1874 C1875 1.516 . S
C1875 C1874 1.516 . S
C1875 C1876 1.502 . S
C1875 C1877 1.561 . S
C1875 C1878 1.526 1_554 S
C1876 H1860 0.959 . S
C1876 H1861 0.959 . S
C1876 H1862 0.961 . S
C1876 C1875 1.502 . S
C1877 H1863 0.960 . S
C1877 H1864 0.961 . S
C1877 H1865 0.959 . S
C1877 C1875 1.561 . S
C1878 C1875 1.526 1_556 S
C1878 C1879 1.396 . S
C1878 C1883 1.390 . S
C1879 C1873 1.488 . S
C1879 C1878 1.396 . S
C1879 C1880 1.399 . S
C1880 H1866 0.929 . S
C1880 C1879 1.399 . S
C1880 C1881 1.385 . S
C1881 H1867 0.931 . S
C1881 C1880 1.385 . S
C1881 C1882 1.389 . S
C1882 C1881 1.389 . S
C1882 C1883 1.387 . S
C1883 H1868 0.930 . S
C1883 C1878 1.390 . S
C1883 C1882 1.387 . S
H1884 C1896 0.930 . S
H1885 C1898 0.930 . S
H1886 C1899 0.930 . S
H1887 C1903 0.959 . S
H1888 C1903 0.959 . S
H1889 C1903 0.961 . S
H1890 C1904 0.960 . S
H1891 C1904 0.961 . S
H1892 C1904 0.959 . S
H1893 C1907 0.929 . S
H1894 C1908 0.931 . S
H1895 C1910 0.930 . S
C1896 H1884 0.930 . S
C1896 C1897 1.399 . S
C1896 C1901 1.399 . S
C1897 C1896 1.399 . S
C1897 C1898 1.376 . S
C1898 H1885 0.930 . S
C1898 C1897 1.376 . S
C1898 C1899 1.388 . S
C1899 H1886 0.930 . S
C1899 C1898 1.388 . S
C1899 C1900 1.390 . S
C1900 C1899 1.390 . S
C1900 C1901 1.394 . S
C1900 C1906 1.465 . S
C1901 C1896 1.399 . S
C1901 C1900 1.394 . S
C1901 C1902 1.516 . S
C1902 C1901 1.516 . S
C1902 C1903 1.502 . S
C1902 C1904 1.561 . S
C1902 C1905 1.526 . S
C1903 H1887 0.959 . S
C1903 H1888 0.959 . S
C1903 H1889 0.961 . S
C1903 C1902 1.502 . S
C1904 H1890 0.960 . S
C1904 H1891 0.961 . S
C1904 H1892 0.959 . S
C1904 C1902 1.561 . S
C1905 C1902 1.526 . S
C1905 C1906 1.396 . S
C1905 C1910 1.390 . S
C1906 C1900 1.465 . S
C1906 C1905 1.396 . S
C1906 C1907 1.399 . S
C1907 H1893 0.929 . S
C1907 C1906 1.399 . S
C1907 C1908 1.385 . S
C1908 H1894 0.931 . S
C1908 C1907 1.385 . S
C1908 C1909 1.389 . S
C1909 C1908 1.389 . S
C1909 C1910 1.387 . S
C1910 H1895 0.930 . S
C1910 C1905 1.390 . S
C1910 C1909 1.387 . S
H1911 C1923 0.901 1_556 S
H1912 C1925 0.930 . S
H1913 C1926 0.930 1_545 S
H1914 C1930 0.959 . S
H1915 C1930 0.959 . S
H1916 C1930 0.961 . S
H1917 C1931 0.960 . S
H1918 C1931 0.961 . S
H1919 C1931 0.959 . S
H1920 C1934 0.929 . S
H1921 C1935 0.947 . S
H1922 C1937 0.930 . S
C1923 H1911 0.901 1_554 S
C1923 C1924 1.399 . S
C1923 C1928 1.416 . S
C1924 C1923 1.399 . S
C1924 C1925 1.376 . S
C1925 H1912 0.930 . S
C1925 C1924 1.376 . S
C1925 C1926 1.388 . S
C1926 H1913 0.930 1_565 S
C1926 C1925 1.388 . S
C1926 C1927 1.390 . S
C1927 C1926 1.390 . S
C1927 C1928 1.425 . S
C1927 C1933 1.465 1_565 S
C1928 C1923 1.416 . S
C1928 C1927 1.425 . S
C1928 C1929 1.472 1_554 S
C1929 C1928 1.472 1_556 S
C1929 C1930 1.502 . S
C1929 C1931 1.561 . S
C1929 C1932 1.526 1_565 S
C1930 H1914 0.959 . S
C1930 H1915 0.959 . S
C1930 H1916 0.961 . S
C1930 C1929 1.502 . S
C1931 H1917 0.960 . S
C1931 H1918 0.961 . S
C1931 H1919 0.959 . S
C1931 C1929 1.561 . S
C1932 C1929 1.526 1_545 S
C1932 C1933 1.396 1_556 S
C1932 C1937 1.390 . S
C1933 C1927 1.465 1_545 S
C1933 C1932 1.396 1_554 S
C1933 C1934 1.399 . S
C1934 H1920 0.929 . S
C1934 C1933 1.399 . S
C1934 C1935 1.385 1_554 S
C1935 H1921 0.947 . S
C1935 C1934 1.385 1_556 S
C1935 C1936 1.389 . S
C1936 C1935 1.389 . S
C1936 C1937 1.387 . S
C1937 H1922 0.930 . S
C1937 C1932 1.390 . S
C1937 C1936 1.387 . S
H1938 C1950 0.930 . S
H1939 C1952 0.930 . S
H1940 C1953 0.930 . S
H1941 C1957 0.959 . S
H1942 C1957 0.959 . S
H1943 C1957 0.961 . S
H1944 C1958 0.960 . S
H1945 C1958 0.961 . S
H1946 C1958 0.959 . S
H1947 C1961 0.929 . S
H1948 C1962 0.931 . S
H1949 C1964 0.930 . S
C1950 H1938 0.930 . S
C1950 C1951 1.399 . S
C1950 C1955 1.399 . S
C1951 C1950 1.399 . S
C1951 C1952 1.376 . S
C1952 H1939 0.930 . S
C1952 C1951 1.376 . S
C1952 C1953 1.388 . S
C1953 H1940 0.930 . S
C1953 C1952 1.388 . S
C1953 C1954 1.390 . S
C1954 C1953 1.390 . S
C1954 C1955 1.394 . S
C1954 C1960 1.465 . S
C1955 C1950 1.399 . S
C1955 C1954 1.394 . S
C1955 C1956 1.516 . S
C1956 C1955 1.516 . S
C1956 C1957 1.502 . S
C1956 C1958 1.561 . S
C1956 C1959 1.526 . S
C1957 H1941 0.959 . S
C1957 H1942 0.959 . S
C1957 H1943 0.961 . S
C1957 C1956 1.502 . S
C1958 H1944 0.960 . S
C1958 H1945 0.961 . S
C1958 H1946 0.959 . S
C1958 C1956 1.561 . S
C1959 C1956 1.526 . S
C1959 C1960 1.396 . S
C1959 C1964 1.390 . S
C1960 C1954 1.465 . S
C1960 C1959 1.396 . S
C1960 C1961 1.399 . S
C1961 H1947 0.929 . S
C1961 C1960 1.399 . S
C1961 C1962 1.385 . S
C1962 H1948 0.931 . S
C1962 C1961 1.385 . S
C1962 C1963 1.389 . S
C1963 C1962 1.389 . S
C1963 C1964 1.387 . S
C1964 H1949 0.930 . S
C1964 C1959 1.390 . S
C1964 C1963 1.387 . S
H1965 C1977 0.930 . S
H1966 C1979 0.930 . S
H1967 C1980 0.930 . S
H1968 C1984 0.959 . S
H1969 C1984 0.959 . S
H1970 C1984 0.961 . S
H1971 C1985 0.960 . S
H1972 C1985 0.961 . S
H1973 C1985 0.959 . S
H1974 C1988 0.929 . S
H1975 C1989 0.931 . S
H1976 C1991 0.930 . S
C1977 H1965 0.930 . S
C1977 C1978 1.399 . S
C1977 C1982 1.399 . S
C1978 C1977 1.399 . S
C1978 C1979 1.376 . S
C1979 H1966 0.930 . S
C1979 C1978 1.376 . S
C1979 C1980 1.388 . S
C1980 H1967 0.930 . S
C1980 C1979 1.388 . S
C1980 C1981 1.390 . S
C1981 C1980 1.390 . S
C1981 C1982 1.394 . S
C1981 C1987 1.465 . S
C1982 C1977 1.399 . S
C1982 C1981 1.394 . S
C1982 C1983 1.516 . S
C1983 C1982 1.516 . S
C1983 C1984 1.502 . S
C1983 C1985 1.561 . S
C1983 C1986 1.526 . S
C1984 H1968 0.959 . S
C1984 H1969 0.959 . S
C1984 H1970 0.961 . S
C1984 C1983 1.502 . S
C1985 H1971 0.960 . S
C1985 H1972 0.961 . S
C1985 H1973 0.959 . S
C1985 C1983 1.561 . S
C1986 C1983 1.526 . S
C1986 C1987 1.396 . S
C1986 C1991 1.390 . S
C1987 C1981 1.465 . S
C1987 C1986 1.396 . S
C1987 C1988 1.399 . S
C1988 H1974 0.929 . S
C1988 C1987 1.399 . S
C1988 C1989 1.385 . S
C1989 H1975 0.931 . S
C1989 C1988 1.385 . S
C1989 C1990 1.389 . S
C1990 C1989 1.389 . S
C1990 C1991 1.387 . S
C1991 H1976 0.930 . S
C1991 C1986 1.390 . S
C1991 C1990 1.387 . S
H1992 C2004 0.930 . S
H1993 C2006 0.930 . S
H1994 C2007 0.930 . S
H1995 C2011 0.959 . S
H1996 C2011 0.959 . S
H1997 C2011 0.961 . S
H1998 C2012 0.960 . S
H1999 C2012 0.961 . S
H2000 C2012 0.959 . S
H2001 C2015 0.929 . S
H2002 C2016 0.931 . S
H2003 C2018 0.930 . S
C2004 H1992 0.930 . S
C2004 C2005 1.399 . S
C2004 C2009 1.399 . S
C2005 C2004 1.399 . S
C2005 C2006 1.376 . S
C2006 H1993 0.930 . S
C2006 C2005 1.376 . S
C2006 C2007 1.388 . S
C2007 H1994 0.930 . S
C2007 C2006 1.388 . S
C2007 C2008 1.390 . S
C2008 C2007 1.390 . S
C2008 C2009 1.394 . S
C2008 C2014 1.465 . S
C2009 C2004 1.399 . S
C2009 C2008 1.394 . S
C2009 C2010 1.516 . S
C2010 C2009 1.516 . S
C2010 C2011 1.502 . S
C2010 C2012 1.561 . S
C2010 C2013 1.526 . S
C2011 H1995 0.959 . S
C2011 H1996 0.959 . S
C2011 H1997 0.961 . S
C2011 C2010 1.502 . S
C2012 H1998 0.960 . S
C2012 H1999 0.961 . S
C2012 H2000 0.959 . S
C2012 C2010 1.561 . S
C2013 C2010 1.526 . S
C2013 C2014 1.396 . S
C2013 C2018 1.390 . S
C2014 C2008 1.465 . S
C2014 C2013 1.396 . S
C2014 C2015 1.399 . S
C2015 H2001 0.929 . S
C2015 C2014 1.399 . S
C2015 C2016 1.385 . S
C2016 H2002 0.931 . S
C2016 C2015 1.385 . S
C2016 C2017 1.389 . S
C2017 C2016 1.389 . S
C2017 C2018 1.387 . S
C2018 H2003 0.930 . S
C2018 C2013 1.390 . S
C2018 C2017 1.387 . S
H2019 C2031 0.930 . S
H2020 C2033 0.930 . S
H2021 C2034 0.930 . S
H2022 C2038 0.959 . S
H2023 C2038 0.959 . S
H2024 C2038 0.961 . S
H2025 C2039 0.960 . S
H2026 C2039 0.961 . S
H2027 C2039 0.959 . S
H2028 C2042 0.929 . S
H2029 C2043 0.931 . S
H2030 C2045 0.930 . S
C2031 H2019 0.930 . S
C2031 C2032 1.399 . S
C2031 C2036 1.399 . S
C2032 C2031 1.399 . S
C2032 C2033 1.376 . S
C2033 H2020 0.930 . S
C2033 C2032 1.376 . S
C2033 C2034 1.388 . S
C2034 H2021 0.930 . S
C2034 C2033 1.388 . S
C2034 C2035 1.390 . S
C2035 C2034 1.390 . S
C2035 C2036 1.394 . S
C2035 C2041 1.465 . S
C2036 C2031 1.399 . S
C2036 C2035 1.394 . S
C2036 C2037 1.516 . S
C2037 C2036 1.516 . S
C2037 C2038 1.502 . S
C2037 C2039 1.561 . S
C2037 C2040 1.526 . S
C2038 H2022 0.959 . S
C2038 H2023 0.959 . S
C2038 H2024 0.961 . S
C2038 C2037 1.502 . S
C2039 H2025 0.960 . S
C2039 H2026 0.961 . S
C2039 H2027 0.959 . S
C2039 C2037 1.561 . S
C2040 C2037 1.526 . S
C2040 C2041 1.396 . S
C2040 C2045 1.390 . S
C2041 C2035 1.465 . S
C2041 C2040 1.396 . S
C2041 C2042 1.399 . S
C2042 H2028 0.929 . S
C2042 C2041 1.399 . S
C2042 C2043 1.385 . S
C2043 H2029 0.931 . S
C2043 C2042 1.385 . S
C2043 C2044 1.389 . S
C2044 C2043 1.389 . S
C2044 C2045 1.387 . S
C2045 H2030 0.930 . S
C2045 C2040 1.390 . S
C2045 C2044 1.387 . S
H2046 C2058 0.930 . S
H2047 C2060 0.930 . S
H2048 C2061 0.930 . S
H2049 C2065 0.959 . S
H2050 C2065 0.959 . S
H2051 C2065 0.961 . S
H2052 C2066 0.960 . S
H2053 C2066 0.961 . S
H2054 C2066 0.959 . S
H2055 C2069 0.929 . S
H2056 C2070 0.931 . S
H2057 C2072 0.930 . S
C2058 H2046 0.930 . S
C2058 C2059 1.399 . S
C2058 C2063 1.399 . S
C2059 C2058 1.399 . S
C2059 C2060 1.376 . S
C2060 H2047 0.930 . S
C2060 C2059 1.376 . S
C2060 C2061 1.388 . S
C2061 H2048 0.930 . S
C2061 C2060 1.388 . S
C2061 C2062 1.390 . S
C2062 C2061 1.390 . S
C2062 C2063 1.394 . S
C2062 C2068 1.465 . S
C2063 C2058 1.399 . S
C2063 C2062 1.394 . S
C2063 C2064 1.516 . S
C2064 C2063 1.516 . S
C2064 C2065 1.502 . S
C2064 C2066 1.561 . S
C2064 C2067 1.526 . S
C2065 H2049 0.959 . S
C2065 H2050 0.959 . S
C2065 H2051 0.961 . S
C2065 C2064 1.502 . S
C2066 H2052 0.960 . S
C2066 H2053 0.961 . S
C2066 H2054 0.959 . S
C2066 C2064 1.561 . S
C2067 C2064 1.526 . S
C2067 C2068 1.396 . S
C2067 C2072 1.390 . S
C2068 C2062 1.465 . S
C2068 C2067 1.396 . S
C2068 C2069 1.399 . S
C2069 H2055 0.929 . S
C2069 C2068 1.399 . S
C2069 C2070 1.385 . S
C2070 H2056 0.931 . S
C2070 C2069 1.385 . S
C2070 C2071 1.389 . S
C2071 C2070 1.389 . S
C2071 C2072 1.387 . S
C2072 H2057 0.930 . S
C2072 C2067 1.390 . S
C2072 C2071 1.387 . S
H2073 C2085 0.930 . S
H2074 C2087 0.930 . S
H2075 C2088 0.930 . S
H2076 C2092 0.959 . S
H2077 C2092 0.959 . S
H2078 C2092 0.961 . S
H2079 C2093 0.960 . S
H2080 C2093 0.961 . S
H2081 C2093 0.959 . S
H2082 C2096 0.929 . S
H2083 C2097 0.931 . S
H2084 C2099 0.930 . S
C2085 H2073 0.930 . S
C2085 C2086 1.399 . S
C2085 C2090 1.399 . S
C2086 C2085 1.399 . S
C2086 C2087 1.376 . S
C2087 H2074 0.930 . S
C2087 C2086 1.376 . S
C2087 C2088 1.388 . S
C2088 H2075 0.930 . S
C2088 C2087 1.388 . S
C2088 C2089 1.390 . S
C2089 C2088 1.390 . S
C2089 C2090 1.394 . S
C2089 C2095 1.465 . S
C2090 C2085 1.399 . S
C2090 C2089 1.394 . S
C2090 C2091 1.516 . S
C2091 C2090 1.516 . S
C2091 C2092 1.502 . S
C2091 C2093 1.561 . S
C2091 C2094 1.526 . S
C2092 H2076 0.959 . S
C2092 H2077 0.959 . S
C2092 H2078 0.961 . S
C2092 C2091 1.502 . S
C2093 H2079 0.960 . S
C2093 H2080 0.961 . S
C2093 H2081 0.959 . S
C2093 C2091 1.561 . S
C2094 C2091 1.526 . S
C2094 C2095 1.396 . S
C2094 C2099 1.390 . S
C2095 C2089 1.465 . S
C2095 C2094 1.396 . S
C2095 C2096 1.399 . S
C2096 H2082 0.929 . S
C2096 C2095 1.399 . S
C2096 C2097 1.385 . S
C2097 H2083 0.931 . S
C2097 C2096 1.385 . S
C2097 C2098 1.389 . S
C2098 C2097 1.389 . S
C2098 C2099 1.387 . S
C2099 H2084 0.930 . S
C2099 C2094 1.390 . S
C2099 C2098 1.387 . S
H2100 C2112 0.930 . S
H2101 C2114 0.930 . S
H2102 C2115 0.930 . S
H2103 C2119 0.959 . S
H2104 C2119 0.959 . S
H2105 C2119 0.961 . S
H2106 C2120 0.960 . S
H2107 C2120 0.961 . S
H2108 C2120 0.959 . S
H2109 C2123 0.929 . S
H2110 C2124 0.931 . S
H2111 C2126 0.930 . S
C2112 H2100 0.930 . S
C2112 C2113 1.399 . S
C2112 C2117 1.399 . S
C2113 C2112 1.399 . S
C2113 C2114 1.376 . S
C2114 H2101 0.930 . S
C2114 C2113 1.376 . S
C2114 C2115 1.388 . S
C2115 H2102 0.930 . S
C2115 C2114 1.388 . S
C2115 C2116 1.390 . S
C2116 C2115 1.390 . S
C2116 C2117 1.394 . S
C2116 C2122 1.465 . S
C2117 C2112 1.399 . S
C2117 C2116 1.394 . S
C2117 C2118 1.516 . S
C2118 C2117 1.516 . S
C2118 C2119 1.502 . S
C2118 C2120 1.561 . S
C2118 C2121 1.526 . S
C2119 H2103 0.959 . S
C2119 H2104 0.959 . S
C2119 H2105 0.961 . S
C2119 C2118 1.502 . S
C2120 H2106 0.960 . S
C2120 H2107 0.961 . S
C2120 H2108 0.959 . S
C2120 C2118 1.561 . S
C2121 C2118 1.526 . S
C2121 C2122 1.396 . S
C2121 C2126 1.390 . S
C2122 C2116 1.465 . S
C2122 C2121 1.396 . S
C2122 C2123 1.399 . S
C2123 H2109 0.929 . S
C2123 C2122 1.399 . S
C2123 C2124 1.385 . S
C2124 H2110 0.931 . S
C2124 C2123 1.385 . S
C2124 C2125 1.389 . S
C2125 C2124 1.389 . S
C2125 C2126 1.387 . S
C2126 H2111 0.930 . S
C2126 C2121 1.390 . S
C2126 C2125 1.387 . S
H2127 C2139 0.930 . S
H2128 C2141 0.930 . S
H2129 C2142 0.930 . S
H2130 C2146 0.959 . S
H2131 C2146 0.959 . S
H2132 C2146 0.961 . S
H2133 C2147 0.960 . S
H2134 C2147 0.961 . S
H2135 C2147 0.959 . S
H2136 C2150 0.929 . S
H2137 C2151 0.931 . S
H2138 C2153 0.930 . S
C2139 H2127 0.930 . S
C2139 C2140 1.399 . S
C2139 C2144 1.399 . S
C2140 C2139 1.399 . S
C2140 C2141 1.376 . S
C2141 H2128 0.930 . S
C2141 C2140 1.376 . S
C2141 C2142 1.388 . S
C2142 H2129 0.930 . S
C2142 C2141 1.388 . S
C2142 C2143 1.390 . S
C2143 C2142 1.390 . S
C2143 C2144 1.394 . S
C2143 C2149 1.465 . S
C2144 C2139 1.399 . S
C2144 C2143 1.394 . S
C2144 C2145 1.516 . S
C2145 C2144 1.516 . S
C2145 C2146 1.502 . S
C2145 C2147 1.561 . S
C2145 C2148 1.526 . S
C2146 H2130 0.959 . S
C2146 H2131 0.959 . S
C2146 H2132 0.961 . S
C2146 C2145 1.502 . S
C2147 H2133 0.960 . S
C2147 H2134 0.961 . S
C2147 H2135 0.959 . S
C2147 C2145 1.561 . S
C2148 C2145 1.526 . S
C2148 C2149 1.396 . S
C2148 C2153 1.390 . S
C2149 C2143 1.465 . S
C2149 C2148 1.396 . S
C2149 C2150 1.399 . S
C2150 H2136 0.929 . S
C2150 C2149 1.399 . S
C2150 C2151 1.385 . S
C2151 H2137 0.931 . S
C2151 C2150 1.385 . S
C2151 C2152 1.389 . S
C2152 C2151 1.389 . S
C2152 C2153 1.387 . S
C2153 H2138 0.930 . S
C2153 C2148 1.390 . S
C2153 C2152 1.387 . S
H2154 C2166 0.930 . S
H2155 C2168 0.930 . S
H2156 C2169 0.930 . S
H2157 C2173 0.959 . S
H2158 C2173 0.959 . S
H2159 C2173 0.961 . S
H2160 C2174 0.960 . S
H2161 C2174 0.961 . S
H2162 C2174 0.959 . S
H2163 C2177 0.929 . S
H2164 C2178 0.931 . S
H2165 C2180 0.930 . S
C2166 H2154 0.930 . S
C2166 C2167 1.399 . S
C2166 C2171 1.399 . S
C2167 C2166 1.399 . S
C2167 C2168 1.376 . S
C2168 H2155 0.930 . S
C2168 C2167 1.376 . S
C2168 C2169 1.388 . S
C2169 H2156 0.930 . S
C2169 C2168 1.388 . S
C2169 C2170 1.390 . S
C2170 C2169 1.390 . S
C2170 C2171 1.394 . S
C2170 C2176 1.465 . S
C2171 C2166 1.399 . S
C2171 C2170 1.394 . S
C2171 C2172 1.516 . S
C2172 C2171 1.516 . S
C2172 C2173 1.502 . S
C2172 C2174 1.561 . S
C2172 C2175 1.526 . S
C2173 H2157 0.959 . S
C2173 H2158 0.959 . S
C2173 H2159 0.961 . S
C2173 C2172 1.502 . S
C2174 H2160 0.960 . S
C2174 H2161 0.961 . S
C2174 H2162 0.959 . S
C2174 C2172 1.561 . S
C2175 C2172 1.526 . S
C2175 C2176 1.396 . S
C2175 C2180 1.390 . S
C2176 C2170 1.465 . S
C2176 C2175 1.396 . S
C2176 C2177 1.399 . S
C2177 H2163 0.929 . S
C2177 C2176 1.399 . S
C2177 C2178 1.385 . S
C2178 H2164 0.931 . S
C2178 C2177 1.385 . S
C2178 C2179 1.389 . S
C2179 C2178 1.389 . S
C2179 C2180 1.387 . S
C2180 H2165 0.930 . S
C2180 C2175 1.390 . S
C2180 C2179 1.387 . S
H2181 C2193 0.930 . S
H2182 C2195 0.930 . S
H2183 C2196 0.930 . S
H2184 C2200 0.959 . S
H2185 C2200 0.959 . S
H2186 C2200 0.961 . S
H2187 C2201 0.960 . S
H2188 C2201 0.961 . S
H2189 C2201 0.959 . S
H2190 C2204 0.929 . S
H2191 C2205 0.931 . S
H2192 C2207 0.930 . S
C2193 H2181 0.930 . S
C2193 C2194 1.399 . S
C2193 C2198 1.399 . S
C2194 C2193 1.399 . S
C2194 C2195 1.376 . S
C2195 H2182 0.930 . S
C2195 C2194 1.376 . S
C2195 C2196 1.388 . S
C2196 H2183 0.930 . S
C2196 C2195 1.388 . S
C2196 C2197 1.390 . S
C2197 C2196 1.390 . S
C2197 C2198 1.394 . S
C2197 C2203 1.465 . S
C2198 C2193 1.399 . S
C2198 C2197 1.394 . S
C2198 C2199 1.516 . S
C2199 C2198 1.516 . S
C2199 C2200 1.502 . S
C2199 C2201 1.561 . S
C2199 C2202 1.526 . S
C2200 H2184 0.959 . S
C2200 H2185 0.959 . S
C2200 H2186 0.961 . S
C2200 C2199 1.502 . S
C2201 H2187 0.960 . S
C2201 H2188 0.961 . S
C2201 H2189 0.959 . S
C2201 C2199 1.561 . S
C2202 C2199 1.526 . S
C2202 C2203 1.396 . S
C2202 C2207 1.390 . S
C2203 C2197 1.465 . S
C2203 C2202 1.396 . S
C2203 C2204 1.399 . S
C2204 H2190 0.929 . S
C2204 C2203 1.399 . S
C2204 C2205 1.385 . S
C2205 H2191 0.931 . S
C2205 C2204 1.385 . S
C2205 C2206 1.389 . S
C2206 C2205 1.389 . S
C2206 C2207 1.387 . S
C2207 H2192 0.930 . S
C2207 C2202 1.390 . S
C2207 C2206 1.387 . S
H2208 C2220 0.930 . S
H2209 C2222 0.930 . S
H2210 C2223 0.930 . S
H2211 C2227 0.959 . S
H2212 C2227 0.959 . S
H2213 C2227 0.961 . S
H2214 C2228 0.960 . S
H2215 C2228 0.961 . S
H2216 C2228 0.959 . S
H2217 C2231 0.929 . S
H2218 C2232 0.931 . S
H2219 C2234 0.930 . S
C2220 H2208 0.930 . S
C2220 C2221 1.399 . S
C2220 C2225 1.399 . S
C2221 C2220 1.399 . S
C2221 C2222 1.376 . S
C2222 H2209 0.930 . S
C2222 C2221 1.376 . S
C2222 C2223 1.388 . S
C2223 H2210 0.930 . S
C2223 C2222 1.388 . S
C2223 C2224 1.390 . S
C2224 C2223 1.390 . S
C2224 C2225 1.394 . S
C2224 C2230 1.465 . S
C2225 C2220 1.399 . S
C2225 C2224 1.394 . S
C2225 C2226 1.516 . S
C2226 C2225 1.516 . S
C2226 C2227 1.502 . S
C2226 C2228 1.561 . S
C2226 C2229 1.526 . S
C2227 H2211 0.959 . S
C2227 H2212 0.959 . S
C2227 H2213 0.961 . S
C2227 C2226 1.502 . S
C2228 H2214 0.960 . S
C2228 H2215 0.961 . S
C2228 H2216 0.959 . S
C2228 C2226 1.561 . S
C2229 C2226 1.526 . S
C2229 C2230 1.396 . S
C2229 C2234 1.390 . S
C2230 C2224 1.465 . S
C2230 C2229 1.396 . S
C2230 C2231 1.399 . S
C2231 H2217 0.929 . S
C2231 C2230 1.399 . S
C2231 C2232 1.385 . S
C2232 H2218 0.931 . S
C2232 C2231 1.385 . S
C2232 C2233 1.389 . S
C2233 C2232 1.389 . S
C2233 C2234 1.387 . S
C2234 H2219 0.930 . S
C2234 C2229 1.390 . S
C2234 C2233 1.387 . S
H2235 C2247 0.930 . S
H2236 C2249 0.930 . S
H2237 C2250 0.930 . S
H2238 C2254 0.959 . S
H2239 C2254 0.959 . S
H2240 C2254 0.961 . S
H2241 C2255 0.960 . S
H2242 C2255 0.961 . S
H2243 C2255 0.959 . S
H2244 C2258 0.929 . S
H2245 C2259 0.931 . S
H2246 C2261 0.930 . S
C2247 H2235 0.930 . S
C2247 C2248 1.399 . S
C2247 C2252 1.427 . S
C2248 C2247 1.399 . S
C2248 C2249 1.376 . S
C2249 H2236 0.930 . S
C2249 C2248 1.376 . S
C2249 C2250 1.388 . S
C2250 H2237 0.930 . S
C2250 C2249 1.388 . S
C2250 C2251 1.390 . S
C2251 C2250 1.390 . S
C2251 C2252 1.433 . S
C2251 C2257 1.465 . S
C2252 C2247 1.427 . S
C2252 C2251 1.433 . S
C2252 C2253 1.453 1_556 S
C2253 C2252 1.453 1_554 S
C2253 C2254 1.502 . S
C2253 C2255 1.561 . S
C2253 C2256 1.526 . S
C2254 H2238 0.959 . S
C2254 H2239 0.959 . S
C2254 H2240 0.961 . S
C2254 C2253 1.502 . S
C2255 H2241 0.960 . S
C2255 H2242 0.961 . S
C2255 H2243 0.959 . S
C2255 C2253 1.561 . S
C2256 C2253 1.526 . S
C2256 C2257 1.396 1_554 S
C2256 C2261 1.390 . S
C2257 C2251 1.465 . S
C2257 C2256 1.396 1_556 S
C2257 C2258 1.399 . S
C2258 H2244 0.929 . S
C2258 C2257 1.399 . S
C2258 C2259 1.385 1_556 S
C2259 H2245 0.931 . S
C2259 C2258 1.385 1_554 S
C2259 C2260 1.389 . S
C2260 C2259 1.389 . S
C2260 C2261 1.387 . S
C2261 H2246 0.930 . S
C2261 C2256 1.390 . S
C2261 C2260 1.387 . S
H2262 C2274 0.930 . S
H2263 C2276 0.930 . S
H2264 C2277 0.930 . S
H2265 C2281 0.959 . S
H2266 C2281 0.959 . S
H2267 C2281 0.961 . S
H2268 C2282 0.960 . S
H2269 C2282 0.961 . S
H2270 C2282 0.959 . S
H2271 C2285 0.929 . S
H2272 C2286 0.931 . S
H2273 C2288 0.930 . S
C2274 H2262 0.930 . S
C2274 C2275 1.399 . S
C2274 C2279 1.399 . S
C2275 C2274 1.399 . S
C2275 C2276 1.376 . S
C2276 H2263 0.930 . S
C2276 C2275 1.376 . S
C2276 C2277 1.388 . S
C2277 H2264 0.930 . S
C2277 C2276 1.388 . S
C2277 C2278 1.390 . S
C2278 C2277 1.390 . S
C2278 C2279 1.394 . S
C2278 C2284 1.465 . S
C2279 C2274 1.399 . S
C2279 C2278 1.394 . S
C2279 C2280 1.516 . S
C2280 C2279 1.516 . S
C2280 C2281 1.502 . S
C2280 C2282 1.561 . S
C2280 C2283 1.526 . S
C2281 H2265 0.959 . S
C2281 H2266 0.959 . S
C2281 H2267 0.961 . S
C2281 C2280 1.502 . S
C2282 H2268 0.960 . S
C2282 H2269 0.961 . S
C2282 H2270 0.959 . S
C2282 C2280 1.561 . S
C2283 C2280 1.526 . S
C2283 C2284 1.396 . S
C2283 C2288 1.390 . S
C2284 C2278 1.465 . S
C2284 C2283 1.396 . S
C2284 C2285 1.399 . S
C2285 H2271 0.929 . S
C2285 C2284 1.399 . S
C2285 C2286 1.385 . S
C2286 H2272 0.931 . S
C2286 C2285 1.385 . S
C2286 C2287 1.389 . S
C2287 C2286 1.389 . S
C2287 C2288 1.387 . S
C2288 H2273 0.930 . S
C2288 C2283 1.390 . S
C2288 C2287 1.387 . S
H2289 C2301 0.930 . S
H2290 C2303 0.930 . S
H2291 C2304 0.930 . S
H2292 C2308 0.959 . S
H2293 C2308 0.959 . S
H2294 C2308 0.961 . S
H2295 C2309 0.960 . S
H2296 C2309 0.961 . S
H2297 C2309 0.959 . S
H2298 C2312 0.929 1_565 S
H2299 C2313 0.931 . S
H2300 C2315 0.930 . S
C2301 H2289 0.930 . S
C2301 C2302 1.399 . S
C2301 C2306 1.399 . S
C2302 C2301 1.399 . S
C2302 C2303 1.376 . S
C2303 H2290 0.930 . S
C2303 C2302 1.376 . S
C2303 C2304 1.388 . S
C2304 H2291 0.930 . S
C2304 C2303 1.388 . S
C2304 C2305 1.390 . S
C2305 C2304 1.390 . S
C2305 C2306 1.394 . S
C2305 C2311 1.465 1_565 S
C2306 C2301 1.399 . S
C2306 C2305 1.394 . S
C2306 C2307 1.516 1_565 S
C2307 C2306 1.516 1_545 S
C2307 C2308 1.502 . S
C2307 C2309 1.561 . S
C2307 C2310 1.526 . S
C2308 H2292 0.959 . S
C2308 H2293 0.959 . S
C2308 H2294 0.961 . S
C2308 C2307 1.502 . S
C2309 H2295 0.960 . S
C2309 H2296 0.961 . S
C2309 H2297 0.959 . S
C2309 C2307 1.561 . S
C2310 C2307 1.526 . S
C2310 C2311 1.396 . S
C2310 C2315 1.390 . S
C2311 C2305 1.465 1_545 S
C2311 C2310 1.396 . S
C2311 C2312 1.399 . S
C2312 H2298 0.929 1_545 S
C2312 C2311 1.399 . S
C2312 C2313 1.385 . S
C2313 H2299 0.931 . S
C2313 C2312 1.385 . S
C2313 C2314 1.389 . S
C2314 C2313 1.389 . S
C2314 C2315 1.387 . S
C2315 H2300 0.930 . S
C2315 C2310 1.390 . S
C2315 C2314 1.387 . S
H2316 C2328 0.930 . S
H2317 C2330 0.930 . S
H2318 C2331 0.930 . S
H2319 C2335 0.959 . S
H2320 C2335 0.959 . S
H2321 C2335 0.961 . S
H2322 C2336 0.960 . S
H2323 C2336 0.961 . S
H2324 C2336 0.959 . S
H2325 C2339 0.929 . S
H2326 C2340 0.931 . S
H2327 C2342 0.930 . S
C2328 H2316 0.930 . S
C2328 C2329 1.399 . S
C2328 C2333 1.399 . S
C2329 C2328 1.399 . S
C2329 C2330 1.376 . S
C2330 H2317 0.930 . S
C2330 C2329 1.376 . S
C2330 C2331 1.388 . S
C2331 H2318 0.930 . S
C2331 C2330 1.388 . S
C2331 C2332 1.390 . S
C2332 C2331 1.390 . S
C2332 C2333 1.394 . S
C2332 C2338 1.465 . S
C2333 C2328 1.399 . S
C2333 C2332 1.394 . S
C2333 C2334 1.516 . S
C2334 C2333 1.516 . S
C2334 C2335 1.502 . S
C2334 C2336 1.561 . S
C2334 C2337 1.526 . S
C2335 H2319 0.959 . S
C2335 H2320 0.959 . S
C2335 H2321 0.961 . S
C2335 C2334 1.502 . S
C2336 H2322 0.960 . S
C2336 H2323 0.961 . S
C2336 H2324 0.959 . S
C2336 C2334 1.561 . S
C2337 C2334 1.526 . S
C2337 C2338 1.396 . S
C2337 C2342 1.390 . S
C2338 C2332 1.465 . S
C2338 C2337 1.396 . S
C2338 C2339 1.399 . S
C2339 H2325 0.929 . S
C2339 C2338 1.399 . S
C2339 C2340 1.385 . S
C2340 H2326 0.931 . S
C2340 C2339 1.385 . S
C2340 C2341 1.389 . S
C2341 C2340 1.389 . S
C2341 C2342 1.387 . S
C2342 H2327 0.930 . S
C2342 C2337 1.390 . S
C2342 C2341 1.387 . S
H2343 C2355 0.930 . S
H2344 C2357 0.930 . S
H2345 C2358 0.930 . S
H2346 C2362 0.959 . S
H2347 C2362 0.959 . S
H2348 C2362 0.961 . S
H2349 C2363 0.960 . S
H2350 C2363 0.961 . S
H2351 C2363 0.959 . S
H2352 C2366 0.929 . S
H2353 C2367 0.931 . S
H2354 C2369 0.930 . S
C2355 H2343 0.930 . S
C2355 C2356 1.399 . S
C2355 C2360 1.399 . S
C2356 C2355 1.399 . S
C2356 C2357 1.376 . S
C2357 H2344 0.930 . S
C2357 C2356 1.376 . S
C2357 C2358 1.388 . S
C2358 H2345 0.930 . S
C2358 C2357 1.388 . S
C2358 C2359 1.390 . S
C2359 C2358 1.390 . S
C2359 C2360 1.394 . S
C2359 C2365 1.465 . S
C2360 C2355 1.399 . S
C2360 C2359 1.394 . S
C2360 C2361 1.516 . S
C2361 C2360 1.516 . S
C2361 C2362 1.502 . S
C2361 C2363 1.561 . S
C2361 C2364 1.526 . S
C2362 H2346 0.959 . S
C2362 H2347 0.959 . S
C2362 H2348 0.961 . S
C2362 C2361 1.502 . S
C2363 H2349 0.960 . S
C2363 H2350 0.961 . S
C2363 H2351 0.959 . S
C2363 C2361 1.561 . S
C2364 C2361 1.526 . S
C2364 C2365 1.396 . S
C2364 C2369 1.390 . S
C2365 C2359 1.465 . S
C2365 C2364 1.396 . S
C2365 C2366 1.399 . S
C2366 H2352 0.929 . S
C2366 C2365 1.399 . S
C2366 C2367 1.385 . S
C2367 H2353 0.931 . S
C2367 C2366 1.385 . S
C2367 C2368 1.389 . S
C2368 C2367 1.389 . S
C2368 C2369 1.387 . S
C2369 H2354 0.930 . S
C2369 C2364 1.390 . S
C2369 C2368 1.387 . S
H2370 C2382 0.930 . S
H2371 C2384 0.930 . S
H2372 C2385 0.930 . S
H2373 C2389 0.959 . S
H2374 C2389 0.959 . S
H2375 C2389 0.961 . S
H2376 C2390 0.960 . S
H2377 C2390 0.961 . S
H2378 C2390 0.959 . S
H2379 C2393 0.929 . S
H2380 C2394 0.931 . S
H2381 C2396 0.930 . S
C2382 H2370 0.930 . S
C2382 C2383 1.399 . S
C2382 C2387 1.399 . S
C2383 C2382 1.399 . S
C2383 C2384 1.376 . S
C2384 H2371 0.930 . S
C2384 C2383 1.376 . S
C2384 C2385 1.388 . S
C2385 H2372 0.930 . S
C2385 C2384 1.388 . S
C2385 C2386 1.390 . S
C2386 C2385 1.390 . S
C2386 C2387 1.394 . S
C2386 C2392 1.465 . S
C2387 C2382 1.399 . S
C2387 C2386 1.394 . S
C2387 C2388 1.516 . S
C2388 C2387 1.516 . S
C2388 C2389 1.502 . S
C2388 C2390 1.561 . S
C2388 C2391 1.526 . S
C2389 H2373 0.959 . S
C2389 H2374 0.959 . S
C2389 H2375 0.961 . S
C2389 C2388 1.502 . S
C2390 H2376 0.960 . S
C2390 H2377 0.961 . S
C2390 H2378 0.959 . S
C2390 C2388 1.561 . S
C2391 C2388 1.526 . S
C2391 C2392 1.396 . S
C2391 C2396 1.390 . S
C2392 C2386 1.465 . S
C2392 C2391 1.396 . S
C2392 C2393 1.399 . S
C2393 H2379 0.929 . S
C2393 C2392 1.399 . S
C2393 C2394 1.385 . S
C2394 H2380 0.931 . S
C2394 C2393 1.385 . S
C2394 C2395 1.389 . S
C2395 C2394 1.389 . S
C2395 C2396 1.387 . S
C2396 H2381 0.930 . S
C2396 C2391 1.390 . S
C2396 C2395 1.387 . S
H2397 C2409 0.930 . S
H2398 C2411 0.930 . S
H2399 C2412 0.930 . S
H2400 C2416 0.959 . S
H2401 C2416 0.959 . S
H2402 C2416 0.961 . S
H2403 C2417 0.960 . S
H2404 C2417 0.961 1_554 S
H2405 C2417 0.959 . S
H2406 C2420 0.929 . S
H2407 C2421 0.931 . S
H2408 C2423 0.930 . S
C2409 H2397 0.930 . S
C2409 C2410 1.399 . S
C2409 C2414 1.399 . S
C2410 C2409 1.399 . S
C2410 C2411 1.376 . S
C2411 H2398 0.930 . S
C2411 C2410 1.376 . S
C2411 C2412 1.388 . S
C2412 H2399 0.930 . S
C2412 C2411 1.388 . S
C2412 C2413 1.390 . S
C2413 C2412 1.390 . S
C2413 C2414 1.394 . S
C2413 C2419 1.465 1_556 S
C2414 C2409 1.399 . S
C2414 C2413 1.394 . S
C2414 C2415 1.469 1_556 S
C2415 C2414 1.469 1_554 S
C2415 C2416 1.534 . S
C2415 C2417 1.535 1_554 S
C2415 C2418 1.568 . S
C2416 H2400 0.959 . S
C2416 H2401 0.959 . S
C2416 H2402 0.961 . S
C2416 C2415 1.534 . S
C2417 H2403 0.960 . S
C2417 H2404 0.961 1_556 S
C2417 H2405 0.959 . S
C2417 C2415 1.535 1_556 S
C2418 C2415 1.568 . S
C2418 C2419 1.396 . S
C2418 C2423 1.390 . S
C2419 C2413 1.465 1_554 S
C2419 C2418 1.396 . S
C2419 C2420 1.399 . S
C2420 H2406 0.929 . S
C2420 C2419 1.399 . S
C2420 C2421 1.385 . S
C2421 H2407 0.931 . S
C2421 C2420 1.385 . S
C2421 C2422 1.389 . S
C2422 C2421 1.389 . S
C2422 C2423 1.387 . S
C2423 H2408 0.930 . S
C2423 C2418 1.390 . S
C2423 C2422 1.387 . S
H2424 C2436 0.930 . S
H2425 C2438 0.930 . S
H2426 C2439 0.930 . S
H2427 C2443 0.959 . S
H2428 C2443 0.959 . S
H2429 C2443 0.961 . S
H2430 C2444 0.960 . S
H2431 C2444 0.961 . S
H2432 C2444 0.959 . S
H2433 C2447 0.929 . S
H2434 C2448 0.931 . S
H2435 C2450 0.930 . S
C2436 H2424 0.930 . S
C2436 C2437 1.399 . S
C2436 C2441 1.399 . S
C2437 C2436 1.399 . S
C2437 C2438 1.376 . S
C2438 H2425 0.930 . S
C2438 C2437 1.376 . S
C2438 C2439 1.388 . S
C2439 H2426 0.930 . S
C2439 C2438 1.388 . S
C2439 C2440 1.390 . S
C2440 C2439 1.390 . S
C2440 C2441 1.394 . S
C2440 C2446 1.465 . S
C2441 C2436 1.399 . S
C2441 C2440 1.394 . S
C2441 C2442 1.516 . S
C2442 C2441 1.516 . S
C2442 C2443 1.502 . S
C2442 C2444 1.561 . S
C2442 C2445 1.526 . S
C2443 H2427 0.959 . S
C2443 H2428 0.959 . S
C2443 H2429 0.961 . S
C2443 C2442 1.502 . S
C2444 H2430 0.960 . S
C2444 H2431 0.961 . S
C2444 H2432 0.959 . S
C2444 C2442 1.561 . S
C2445 C2442 1.526 . S
C2445 C2446 1.396 . S
C2445 C2450 1.390 . S
C2446 C2440 1.465 . S
C2446 C2445 1.396 . S
C2446 C2447 1.399 . S
C2447 H2433 0.929 . S
C2447 C2446 1.399 . S
C2447 C2448 1.385 . S
C2448 H2434 0.931 . S
C2448 C2447 1.385 . S
C2448 C2449 1.389 . S
C2449 C2448 1.389 . S
C2449 C2450 1.387 . S
C2450 H2435 0.930 . S
C2450 C2445 1.390 . S
C2450 C2449 1.387 . S
H2451 C2463 0.930 . S
H2452 C2465 0.930 . S
H2453 C2466 0.930 . S
H2454 C2470 0.959 . S
H2455 C2470 0.959 . S
H2456 C2470 0.961 . S
H2457 C2471 0.960 1_556 S
H2458 C2471 0.961 . S
H2459 C2471 0.959 . S
H2460 C2474 0.929 . S
H2461 C2475 0.931 . S
H2462 C2477 0.930 . S
C2463 H2451 0.930 . S
C2463 C2464 1.399 . S
C2463 C2468 1.399 . S
C2464 C2463 1.399 . S
C2464 C2465 1.376 . S
C2465 H2452 0.930 . S
C2465 C2464 1.376 . S
C2465 C2466 1.388 . S
C2466 H2453 0.930 . S
C2466 C2465 1.388 . S
C2466 C2467 1.390 . S
C2467 C2466 1.390 . S
C2467 C2468 1.394 . S
C2467 C2473 1.465 1_556 S
C2468 C2463 1.399 . S
C2468 C2467 1.394 . S
C2468 C2469 1.516 . S
C2469 C2468 1.516 . S
C2469 C2470 1.502 . S
C2469 C2471 1.561 1_556 S
C2469 C2472 1.526 1_556 S
C2470 H2454 0.959 . S
C2470 H2455 0.959 . S
C2470 H2456 0.961 . S
C2470 C2469 1.502 . S
C2471 H2457 0.960 1_554 S
C2471 H2458 0.961 . S
C2471 H2459 0.959 . S
C2471 C2469 1.561 1_554 S
C2472 C2469 1.526 1_554 S
C2472 C2473 1.396 . S
C2472 C2477 1.390 . S
C2473 C2467 1.465 1_554 S
C2473 C2472 1.396 . S
C2473 C2474 1.399 . S
C2474 H2460 0.929 . S
C2474 C2473 1.399 . S
C2474 C2475 1.385 . S
C2475 H2461 0.931 . S
C2475 C2474 1.385 . S
C2475 C2476 1.389 . S
C2476 C2475 1.389 . S
C2476 C2477 1.387 . S
C2477 H2462 0.930 . S
C2477 C2472 1.390 . S
C2477 C2476 1.387 . S
H2478 C2490 0.930 . S
H2479 C2492 0.930 . S
H2480 C2493 0.930 . S
H2481 C2497 0.959 . S
H2482 C2497 0.959 . S
H2483 C2497 0.961 . S
H2484 C2498 0.960 . S
H2485 C2498 0.961 . S
H2486 C2498 0.959 . S
H2487 C2501 0.929 . S
H2488 C2502 0.931 . S
H2489 C2504 0.930 . S
C2490 H2478 0.930 . S
C2490 C2491 1.399 . S
C2490 C2495 1.399 . S
C2491 C2490 1.399 . S
C2491 C2492 1.376 . S
C2492 H2479 0.930 . S
C2492 C2491 1.376 . S
C2492 C2493 1.388 1_565 S
C2493 H2480 0.930 . S
C2493 C2492 1.388 1_545 S
C2493 C2494 1.403 . S
C2494 C2493 1.403 . S
C2494 C2495 1.347 1_545 S
C2494 C2500 1.495 . S
C2495 C2490 1.399 . S
C2495 C2494 1.347 1_565 S
C2495 C2496 1.516 . S
C2496 C2495 1.516 . S
C2496 C2497 1.502 . S
C2496 C2498 1.561 . S
C2496 C2499 1.526 1_565 S
C2497 H2481 0.959 . S
C2497 H2482 0.959 . S
C2497 H2483 0.961 . S
C2497 C2496 1.502 . S
C2498 H2484 0.960 . S
C2498 H2485 0.961 . S
C2498 H2486 0.959 . S
C2498 C2496 1.561 . S
C2499 C2496 1.526 1_545 S
C2499 C2500 1.396 . S
C2499 C2504 1.390 . S
C2500 C2494 1.495 . S
C2500 C2499 1.396 . S
C2500 C2501 1.399 . S
C2501 H2487 0.929 . S
C2501 C2500 1.399 . S
C2501 C2502 1.385 . S
C2502 H2488 0.931 . S
C2502 C2501 1.385 . S
C2502 C2503 1.389 . S
C2503 C2502 1.389 . S
C2503 C2504 1.387 . S
C2504 H2489 0.930 . S
C2504 C2499 1.390 . S
C2504 C2503 1.387 . S
H2505 C2517 0.930 . S
H2506 C2519 0.930 . S
H2507 C2520 0.930 . S
H2508 C2524 0.959 . S
H2509 C2524 0.959 . S
H2510 C2524 0.961 . S
H2511 C2525 0.960 . S
H2512 C2525 0.961 . S
H2513 C2525 0.959 . S
H2514 C2528 0.929 . S
H2515 C2529 0.931 . S
H2516 C2531 0.930 . S
C2517 H2505 0.930 . S
C2517 C2518 1.399 . S
C2517 C2522 1.399 . S
C2518 C2517 1.399 . S
C2518 C2519 1.376 . S
C2519 H2506 0.930 . S
C2519 C2518 1.376 . S
C2519 C2520 1.388 . S
C2520 H2507 0.930 . S
C2520 C2519 1.388 . S
C2520 C2521 1.390 . S
C2521 C2520 1.390 . S
C2521 C2522 1.394 . S
C2521 C2527 1.465 . S
C2522 C2517 1.399 . S
C2522 C2521 1.394 . S
C2522 C2523 1.516 . S
C2523 C2522 1.516 . S
C2523 C2524 1.502 . S
C2523 C2525 1.561 . S
C2523 C2526 1.526 . S
C2524 H2508 0.959 . S
C2524 H2509 0.959 . S
C2524 H2510 0.961 . S
C2524 C2523 1.502 . S
C2525 H2511 0.960 . S
C2525 H2512 0.961 . S
C2525 H2513 0.959 . S
C2525 C2523 1.561 . S
C2526 C2523 1.526 . S
C2526 C2527 1.396 . S
C2526 C2531 1.390 . S
C2527 C2521 1.465 . S
C2527 C2526 1.396 . S
C2527 C2528 1.399 . S
C2528 H2514 0.929 . S
C2528 C2527 1.399 . S
C2528 C2529 1.385 . S
C2529 H2515 0.931 . S
C2529 C2528 1.385 . S
C2529 C2530 1.389 . S
C2530 C2529 1.389 . S
C2530 C2531 1.387 . S
C2531 H2516 0.930 . S
C2531 C2526 1.390 . S
C2531 C2530 1.387 . S
H2532 C2544 0.930 . S
H2533 C2546 0.930 . S
H2534 C2547 0.930 1_545 S
H2535 C2551 0.959 . S
H2536 C2551 0.959 . S
H2537 C2551 0.961 . S
H2538 C2552 0.960 . S
H2539 C2552 0.961 . S
H2540 C2552 0.959 . S
H2541 C2555 0.929 . S
H2542 C2556 0.931 . S
H2543 C2558 0.930 . S
C2544 H2532 0.930 . S
C2544 C2545 1.399 . S
C2544 C2549 1.399 . S
C2545 C2544 1.399 . S
C2545 C2546 1.376 . S
C2546 H2533 0.930 . S
C2546 C2545 1.376 . S
C2546 C2547 1.388 . S
C2547 H2534 0.930 1_565 S
C2547 C2546 1.388 . S
C2547 C2548 1.400 . S
C2548 C2547 1.400 . S
C2548 C2549 1.425 . S
C2548 C2554 1.432 1_565 S
C2549 C2544 1.399 . S
C2549 C2548 1.425 . S
C2549 C2550 1.516 . S
C2550 C2549 1.516 . S
C2550 C2551 1.502 . S
C2550 C2552 1.561 1_565 S
C2550 C2553 1.526 1_565 S
C2551 H2535 0.959 . S
C2551 H2536 0.959 . S
C2551 H2537 0.961 . S
C2551 C2550 1.502 . S
C2552 H2538 0.960 . S
C2552 H2539 0.961 . S
C2552 H2540 0.959 . S
C2552 C2550 1.561 1_545 S
C2553 C2550 1.526 1_545 S
C2553 C2554 1.396 . S
C2553 C2558 1.390 . S
C2554 C2548 1.432 1_545 S
C2554 C2553 1.396 . S
C2554 C2555 1.399 . S
C2555 H2541 0.929 . S
C2555 C2554 1.399 . S
C2555 C2556 1.385 . S
C2556 H2542 0.931 . S
C2556 C2555 1.385 . S
C2556 C2557 1.389 . S
C2557 C2556 1.389 . S
C2557 C2558 1.387 . S
C2558 H2543 0.930 . S
C2558 C2553 1.390 . S
C2558 C2557 1.387 . S
H2559 C2571 0.930 . S
H2560 C2573 0.930 . S
H2561 C2574 0.930 . S
H2562 C2578 0.959 . S
H2563 C2578 0.959 . S
H2564 C2578 0.961 . S
H2565 C2579 0.960 . S
H2566 C2579 0.961 . S
H2567 C2579 0.959 . S
H2568 C2582 0.929 . S
H2569 C2583 0.931 . S
H2570 C2585 0.930 . S
C2571 H2559 0.930 . S
C2571 C2572 1.399 . S
C2571 C2576 1.399 . S
C2572 C2571 1.399 . S
C2572 C2573 1.376 . S
C2573 H2560 0.930 . S
C2573 C2572 1.376 . S
C2573 C2574 1.388 . S
C2574 H2561 0.930 . S
C2574 C2573 1.388 . S
C2574 C2575 1.390 . S
C2575 C2574 1.390 . S
C2575 C2576 1.394 . S
C2575 C2581 1.465 . S
C2576 C2571 1.399 . S
C2576 C2575 1.394 . S
C2576 C2577 1.516 . S
C2577 C2576 1.516 . S
C2577 C2578 1.502 . S
C2577 C2579 1.561 . S
C2577 C2580 1.526 . S
C2578 H2562 0.959 . S
C2578 H2563 0.959 . S
C2578 H2564 0.961 . S
C2578 C2577 1.502 . S
C2579 H2565 0.960 . S
C2579 H2566 0.961 . S
C2579 H2567 0.959 . S
C2579 C2577 1.561 . S
C2580 C2577 1.526 . S
C2580 C2581 1.396 . S
C2580 C2585 1.390 . S
C2581 C2575 1.465 . S
C2581 C2580 1.396 . S
C2581 C2582 1.399 . S
C2582 H2568 0.929 . S
C2582 C2581 1.399 . S
C2582 C2583 1.385 . S
C2583 H2569 0.931 . S
C2583 C2582 1.385 . S
C2583 C2584 1.389 . S
C2584 C2583 1.389 . S
C2584 C2585 1.387 . S
C2585 H2570 0.930 . S
C2585 C2580 1.390 . S
C2585 C2584 1.387 . S
H2586 C2598 0.930 . S
H2587 C2600 0.930 . S
H2588 C2601 0.930 . S
H2589 C2605 0.959 . S
H2590 C2605 0.959 . S
H2591 C2605 0.961 . S
H2592 C2606 0.960 . S
H2593 C2606 0.961 . S
H2594 C2606 0.959 . S
H2595 C2609 0.929 . S
H2596 C2610 0.931 . S
H2597 C2612 0.930 . S
C2598 H2586 0.930 . S
C2598 C2599 1.399 . S
C2598 C2603 1.399 . S
C2599 C2598 1.399 . S
C2599 C2600 1.376 . S
C2600 H2587 0.930 . S
C2600 C2599 1.376 . S
C2600 C2601 1.388 . S
C2601 H2588 0.930 . S
C2601 C2600 1.388 . S
C2601 C2602 1.390 . S
C2602 C2601 1.390 . S
C2602 C2603 1.394 . S
C2602 C2608 1.465 . S
C2603 C2598 1.399 . S
C2603 C2602 1.394 . S
C2603 C2604 1.516 . S
C2604 C2603 1.516 . S
C2604 C2605 1.502 . S
C2604 C2606 1.561 . S
C2604 C2607 1.526 . S
C2605 H2589 0.959 . S
C2605 H2590 0.959 . S
C2605 H2591 0.961 . S
C2605 C2604 1.502 . S
C2606 H2592 0.960 . S
C2606 H2593 0.961 . S
C2606 H2594 0.959 . S
C2606 C2604 1.561 . S
C2607 C2604 1.526 . S
C2607 C2608 1.396 . S
C2607 C2612 1.390 . S
C2608 C2602 1.465 . S
C2608 C2607 1.396 . S
C2608 C2609 1.399 . S
C2609 H2595 0.929 . S
C2609 C2608 1.399 . S
C2609 C2610 1.385 . S
C2610 H2596 0.931 . S
C2610 C2609 1.385 . S
C2610 C2611 1.389 . S
C2611 C2610 1.389 . S
C2611 C2612 1.387 . S
C2612 H2597 0.930 . S
C2612 C2607 1.390 . S
C2612 C2611 1.387 . S
H2613 C2625 0.930 . S
H2614 C2627 0.930 . S
H2615 C2628 0.930 . S
H2616 C2632 0.959 . S
H2617 C2632 0.959 . S
H2618 C2632 0.961 . S
H2619 C2633 0.960 . S
H2620 C2633 0.961 . S
H2621 C2633 0.959 . S
H2622 C2636 0.929 . S
H2623 C2637 0.931 . S
H2624 C2639 0.930 . S
C2625 H2613 0.930 . S
C2625 C2626 1.399 . S
C2625 C2630 1.399 . S
C2626 C2625 1.399 . S
C2626 C2627 1.376 . S
C2627 H2614 0.930 . S
C2627 C2626 1.376 . S
C2627 C2628 1.388 . S
C2628 H2615 0.930 . S
C2628 C2627 1.388 . S
C2628 C2629 1.390 . S
C2629 C2628 1.390 . S
C2629 C2630 1.394 . S
C2629 C2635 1.465 . S
C2630 C2625 1.399 . S
C2630 C2629 1.394 . S
C2630 C2631 1.516 . S
C2631 C2630 1.516 . S
C2631 C2632 1.502 . S
C2631 C2633 1.561 . S
C2631 C2634 1.526 . S
C2632 H2616 0.959 . S
C2632 H2617 0.959 . S
C2632 H2618 0.961 . S
C2632 C2631 1.502 . S
C2633 H2619 0.960 . S
C2633 H2620 0.961 . S
C2633 H2621 0.959 . S
C2633 C2631 1.561 . S
C2634 C2631 1.526 . S
C2634 C2635 1.396 . S
C2634 C2639 1.390 . S
C2635 C2629 1.465 . S
C2635 C2634 1.396 . S
C2635 C2636 1.399 . S
C2636 H2622 0.929 . S
C2636 C2635 1.399 . S
C2636 C2637 1.385 . S
C2637 H2623 0.931 . S
C2637 C2636 1.385 . S
C2637 C2638 1.389 . S
C2638 C2637 1.389 . S
C2638 C2639 1.387 . S
C2639 H2624 0.930 . S
C2639 C2634 1.390 . S
C2639 C2638 1.387 . S
H2640 C2652 0.930 . S
H2641 C2654 0.930 . S
H2642 C2655 0.930 . S
H2643 C2659 0.959 . S
H2644 C2659 0.959 . S
H2645 C2659 0.961 . S
H2646 C2660 0.960 . S
H2647 C2660 0.961 . S
H2648 C2660 0.959 . S
H2649 C2663 0.929 . S
H2650 C2664 0.931 . S
H2651 C2666 0.930 . S
C2652 H2640 0.930 . S
C2652 C2653 1.399 . S
C2652 C2657 1.399 . S
C2653 C2652 1.399 . S
C2653 C2654 1.376 . S
C2654 H2641 0.930 . S
C2654 C2653 1.376 . S
C2654 C2655 1.388 . S
C2655 H2642 0.930 . S
C2655 C2654 1.388 . S
C2655 C2656 1.390 . S
C2656 C2655 1.390 . S
C2656 C2657 1.394 . S
C2656 C2662 1.465 1_455 S
C2657 C2652 1.399 . S
C2657 C2656 1.394 . S
C2657 C2658 1.535 . S
C2658 C2657 1.535 . S
C2658 C2659 1.477 1_455 S
C2658 C2660 1.597 . S
C2658 C2661 1.499 1_455 S
C2659 H2643 0.959 . S
C2659 H2644 0.959 . S
C2659 H2645 0.961 . S
C2659 C2658 1.477 1_655 S
C2660 H2646 0.960 . S
C2660 H2647 0.961 . S
C2660 H2648 0.959 . S
C2660 C2658 1.597 . S
C2661 C2658 1.499 1_655 S
C2661 C2662 1.396 . S
C2661 C2666 1.390 . S
C2662 C2656 1.465 1_655 S
C2662 C2661 1.396 . S
C2662 C2663 1.399 . S
C2663 H2649 0.929 . S
C2663 C2662 1.399 . S
C2663 C2664 1.385 . S
C2664 H2650 0.931 . S
C2664 C2663 1.385 . S
C2664 C2665 1.389 . S
C2665 C2664 1.389 . S
C2665 C2666 1.387 . S
C2666 H2651 0.930 . S
C2666 C2661 1.390 . S
C2666 C2665 1.387 . S
H2667 C2679 0.930 . S
H2668 C2681 0.930 . S
H2669 C2682 0.930 . S
H2670 C2686 0.959 . S
H2671 C2686 0.959 . S
H2672 C2686 0.961 . S
H2673 C2687 0.960 . S
H2674 C2687 0.961 . S
H2675 C2687 0.959 . S
H2676 C2690 0.957 . S
H2677 C2691 0.931 . S
H2678 C2693 0.930 . S
C2679 H2667 0.930 . S
C2679 C2680 1.399 . S
C2679 C2684 1.399 . S
C2680 C2679 1.399 . S
C2680 C2681 1.376 . S
C2681 H2668 0.930 . S
C2681 C2680 1.376 . S
C2681 C2682 1.388 . S
C2682 H2669 0.930 . S
C2682 C2681 1.388 . S
C2682 C2683 1.390 . S
C2683 C2682 1.390 . S
C2683 C2684 1.394 . S
C2683 C2689 1.459 1_655 S
C2684 C2679 1.399 . S
C2684 C2683 1.394 . S
C2684 C2685 1.516 . S
C2685 C2684 1.516 . S
C2685 C2686 1.502 1_655 S
C2685 C2687 1.561 . S
C2685 C2688 1.526 1_655 S
C2686 H2670 0.959 . S
C2686 H2671 0.959 . S
C2686 H2672 0.961 . S
C2686 C2685 1.502 1_455 S
C2687 H2673 0.960 . S
C2687 H2674 0.961 . S
C2687 H2675 0.959 . S
C2687 C2685 1.561 . S
C2688 C2685 1.526 1_455 S
C2688 C2689 1.400 . S
C2688 C2693 1.390 . S
C2689 C2683 1.459 1_455 S
C2689 C2688 1.400 . S
C2689 C2690 1.402 . S
C2690 H2676 0.957 . S
C2690 C2689 1.402 . S
C2690 C2691 1.385 . S
C2691 H2677 0.931 . S
C2691 C2690 1.385 . S
C2691 C2692 1.389 . S
C2692 C2691 1.389 . S
C2692 C2693 1.387 . S
C2693 H2678 0.930 . S
C2693 C2688 1.390 . S
C2693 C2692 1.387 . S
H2694 C2706 0.930 . S
H2695 C2708 0.930 . S
H2696 C2709 0.930 . S
H2697 C2713 0.929 1_655 S
H2698 C2713 0.990 . S
H2699 C2713 0.944 1_655 S
H2700 C2714 0.960 . S
H2701 C2714 0.961 . S
H2702 C2714 0.959 . S
H2703 C2717 0.929 . S
H2704 C2718 0.931 . S
H2705 C2720 0.930 . S
C2706 H2694 0.930 . S
C2706 C2707 1.399 . S
C2706 C2711 1.399 . S
C2707 C2706 1.399 . S
C2707 C2708 1.376 . S
C2708 H2695 0.930 . S
C2708 C2707 1.376 . S
C2708 C2709 1.388 . S
C2709 H2696 0.930 . S
C2709 C2708 1.388 . S
C2709 C2710 1.390 . S
C2710 C2709 1.390 . S
C2710 C2711 1.394 . S
C2710 C2716 1.465 1_655 S
C2711 C2706 1.399 . S
C2711 C2710 1.394 . S
C2711 C2712 1.516 1_655 S
C2712 C2711 1.516 1_455 S
C2712 C2713 1.520 . S
C2712 C2714 1.561 . S
C2712 C2715 1.526 . S
C2713 H2697 0.929 1_455 S
C2713 H2698 0.990 . S
C2713 H2699 0.944 1_455 S
C2713 C2712 1.520 . S
C2714 H2700 0.960 . S
C2714 H2701 0.961 . S
C2714 H2702 0.959 . S
C2714 C2712 1.561 . S
C2715 C2712 1.526 . S
C2715 C2716 1.396 . S
C2715 C2720 1.390 . S
C2716 C2710 1.465 1_455 S
C2716 C2715 1.396 . S
C2716 C2717 1.399 . S
C2717 H2703 0.929 . S
C2717 C2716 1.399 . S
C2717 C2718 1.385 . S
C2718 H2704 0.931 . S
C2718 C2717 1.385 . S
C2718 C2719 1.389 . S
C2719 C2718 1.389 . S
C2719 C2720 1.387 . S
C2720 H2705 0.930 . S
C2720 C2715 1.390 . S
C2720 C2719 1.387 . S
H2721 C2733 0.930 . S
H2722 C2735 0.930 . S
H2723 C2736 0.930 . S
H2724 C2740 0.959 . S
H2725 C2740 0.959 . S
H2726 C2740 0.961 . S
H2727 C2741 0.960 . S
H2728 C2741 0.961 1_455 S
H2729 C2741 0.959 . S
H2730 C2744 0.945 . S
H2731 C2745 0.931 . S
H2732 C2747 0.930 . S
C2733 H2721 0.930 . S
C2733 C2734 1.399 . S
C2733 C2738 1.399 . S
C2734 C2733 1.399 . S
C2734 C2735 1.376 . S
C2735 H2722 0.930 . S
C2735 C2734 1.376 . S
C2735 C2736 1.388 . S
C2736 H2723 0.930 . S
C2736 C2735 1.388 . S
C2736 C2737 1.390 . S
C2737 C2736 1.390 . S
C2737 C2738 1.394 . S
C2737 C2743 1.465 1_655 S
C2738 C2733 1.399 . S
C2738 C2737 1.394 . S
C2738 C2739 1.516 1_655 S
C2739 C2738 1.516 1_455 S
C2739 C2740 1.502 . S
C2739 C2741 1.561 1_455 S
C2739 C2742 1.526 . S
C2740 H2724 0.959 . S
C2740 H2725 0.959 . S
C2740 H2726 0.961 . S
C2740 C2739 1.502 . S
C2741 H2727 0.960 . S
C2741 H2728 0.961 1_655 S
C2741 H2729 0.959 . S
C2741 C2739 1.561 1_655 S
C2742 C2739 1.526 . S
C2742 C2743 1.396 . S
C2742 C2747 1.390 . S
C2743 C2737 1.465 1_455 S
C2743 C2742 1.396 . S
C2743 C2744 1.399 . S
C2744 H2730 0.945 . S
C2744 C2743 1.399 . S
C2744 C2745 1.385 . S
C2745 H2731 0.931 . S
C2745 C2744 1.385 . S
C2745 C2746 1.389 . S
C2746 C2745 1.389 . S
C2746 C2747 1.387 . S
C2747 H2732 0.930 . S
C2747 C2742 1.390 . S
C2747 C2746 1.387 . S
H2748 C2760 0.930 . S
H2749 C2762 0.930 . S
H2750 C2763 0.930 . S
H2751 C2767 0.959 . S
H2752 C2767 0.959 . S
H2753 C2767 0.961 . S
H2754 C2768 0.960 . S
H2755 C2768 0.961 . S
H2756 C2768 0.959 . S
H2757 C2771 0.929 1_455 S
H2758 C2772 0.931 . S
H2759 C2774 0.930 . S
C2760 H2748 0.930 . S
C2760 C2761 1.399 . S
C2760 C2765 1.419 . S
C2761 C2760 1.399 . S
C2761 C2762 1.376 . S
C2762 H2749 0.930 . S
C2762 C2761 1.376 . S
C2762 C2763 1.388 . S
C2763 H2750 0.930 . S
C2763 C2762 1.388 . S
C2763 C2764 1.390 . S
C2764 C2763 1.390 . S
C2764 C2765 1.409 . S
C2764 C2770 1.465 1_455 S
C2765 C2760 1.419 . S
C2765 C2764 1.409 . S
C2765 C2766 1.482 1_455 S
C2766 C2765 1.482 1_655 S
C2766 C2767 1.502 . S
C2766 C2768 1.561 . S
C2766 C2769 1.526 . S
C2767 H2751 0.959 . S
C2767 H2752 0.959 . S
C2767 H2753 0.961 . S
C2767 C2766 1.502 . S
C2768 H2754 0.960 . S
C2768 H2755 0.961 . S
C2768 H2756 0.959 . S
C2768 C2766 1.561 . S
C2769 C2766 1.526 . S
C2769 C2770 1.396 . S
C2769 C2774 1.390 . S
C2770 C2764 1.465 1_655 S
C2770 C2769 1.396 . S
C2770 C2771 1.399 . S
C2771 H2757 0.929 1_655 S
C2771 C2770 1.399 . S
C2771 C2772 1.385 . S
C2772 H2758 0.931 . S
C2772 C2771 1.385 . S
C2772 C2773 1.389 . S
C2773 C2772 1.389 . S
C2773 C2774 1.387 . S
C2774 H2759 0.930 . S
C2774 C2769 1.390 . S
C2774 C2773 1.387 . S
H2775 C2787 0.930 . S
H2776 C2789 0.930 . S
H2777 C2790 0.930 . S
H2778 C2794 0.959 . S
H2779 C2794 0.959 . S
H2780 C2794 0.961 . S
H2781 C2795 0.960 . S
H2782 C2795 0.961 . S
H2783 C2795 0.959 . S
H2784 C2798 0.929 . S
H2785 C2799 0.931 . S
H2786 C2801 0.930 . S
C2787 H2775 0.930 . S
C2787 C2788 1.399 . S
C2787 C2792 1.399 . S
C2788 C2787 1.399 . S
C2788 C2789 1.376 . S
C2789 H2776 0.930 . S
C2789 C2788 1.376 . S
C2789 C2790 1.388 . S
C2790 H2777 0.930 . S
C2790 C2789 1.388 . S
C2790 C2791 1.390 . S
C2791 C2790 1.390 . S
C2791 C2792 1.394 . S
C2791 C2797 1.465 . S
C2792 C2787 1.399 . S
C2792 C2791 1.394 . S
C2792 C2793 1.516 . S
C2793 C2792 1.516 . S
C2793 C2794 1.502 . S
C2793 C2795 1.561 . S
C2793 C2796 1.526 . S
C2794 H2778 0.959 . S
C2794 H2779 0.959 . S
C2794 H2780 0.961 . S
C2794 C2793 1.502 . S
C2795 H2781 0.960 . S
C2795 H2782 0.961 . S
C2795 H2783 0.959 . S
C2795 C2793 1.561 . S
C2796 C2793 1.526 . S
C2796 C2797 1.396 . S
C2796 C2801 1.390 . S
C2797 C2791 1.465 . S
C2797 C2796 1.396 . S
C2797 C2798 1.399 . S
C2798 H2784 0.929 . S
C2798 C2797 1.399 . S
C2798 C2799 1.385 . S
C2799 H2785 0.931 . S
C2799 C2798 1.385 . S
C2799 C2800 1.389 . S
C2800 C2799 1.389 . S
C2800 C2801 1.387 . S
C2801 H2786 0.930 . S
C2801 C2796 1.390 . S
C2801 C2800 1.387 . S
H2802 C2814 0.930 . S
H2803 C2816 0.930 . S
H2804 C2817 0.930 . S
H2805 C2821 0.959 . S
H2806 C2821 0.959 . S
H2807 C2821 0.961 . S
H2808 C2822 0.960 . S
H2809 C2822 0.961 . S
H2810 C2822 0.959 . S
H2811 C2825 0.929 . S
H2812 C2826 0.931 . S
H2813 C2828 0.930 . S
C2814 H2802 0.930 . S
C2814 C2815 1.399 . S
C2814 C2819 1.399 . S
C2815 C2814 1.399 . S
C2815 C2816 1.376 . S
C2816 H2803 0.930 . S
C2816 C2815 1.376 . S
C2816 C2817 1.388 . S
C2817 H2804 0.930 . S
C2817 C2816 1.388 . S
C2817 C2818 1.410 . S
C2818 C2817 1.410 . S
C2818 C2819 1.409 . S
C2818 C2824 1.433 1_655 S
C2819 C2814 1.399 . S
C2819 C2818 1.409 . S
C2819 C2820 1.516 1_655 S
C2820 C2819 1.516 1_455 S
C2820 C2821 1.502 1_455 S
C2820 C2822 1.561 . S
C2820 C2823 1.526 . S
C2821 H2805 0.959 . S
C2821 H2806 0.959 . S
C2821 H2807 0.961 . S
C2821 C2820 1.502 1_655 S
C2822 H2808 0.960 . S
C2822 H2809 0.961 . S
C2822 H2810 0.959 . S
C2822 C2820 1.561 . S
C2823 C2820 1.526 . S
C2823 C2824 1.396 . S
C2823 C2828 1.390 . S
C2824 C2818 1.433 1_455 S
C2824 C2823 1.396 . S
C2824 C2825 1.399 . S
C2825 H2811 0.929 . S
C2825 C2824 1.399 . S
C2825 C2826 1.385 . S
C2826 H2812 0.931 . S
C2826 C2825 1.385 . S
C2826 C2827 1.389 . S
C2827 C2826 1.389 . S
C2827 C2828 1.387 . S
C2828 H2813 0.930 . S
C2828 C2823 1.390 . S
C2828 C2827 1.387 . S
H2829 C2841 0.930 . S
H2830 C2843 0.930 . S
H2831 C2844 0.930 . S
H2832 C2848 0.959 . S
H2833 C2848 0.959 . S
H2834 C2848 0.961 . S
H2835 C2849 0.960 . S
H2836 C2849 0.961 . S
H2837 C2849 0.959 . S
H2838 C2852 0.929 . S
H2839 C2853 0.931 . S
H2840 C2855 0.930 . S
C2841 H2829 0.930 . S
C2841 C2842 1.399 . S
C2841 C2846 1.399 . S
C2842 C2841 1.399 . S
C2842 C2843 1.376 . S
C2843 H2830 0.930 . S
C2843 C2842 1.376 . S
C2843 C2844 1.388 . S
C2844 H2831 0.930 . S
C2844 C2843 1.388 . S
C2844 C2845 1.390 . S
C2845 C2844 1.390 . S
C2845 C2846 1.394 . S
C2845 C2851 1.465 . S
C2846 C2841 1.399 . S
C2846 C2845 1.394 . S
C2846 C2847 1.516 . S
C2847 C2846 1.516 . S
C2847 C2848 1.502 . S
C2847 C2849 1.561 . S
C2847 C2850 1.526 . S
C2848 H2832 0.959 . S
C2848 H2833 0.959 . S
C2848 H2834 0.961 . S
C2848 C2847 1.502 . S
C2849 H2835 0.960 . S
C2849 H2836 0.961 . S
C2849 H2837 0.959 . S
C2849 C2847 1.561 . S
C2850 C2847 1.526 . S
C2850 C2851 1.396 . S
C2850 C2855 1.390 . S
C2851 C2845 1.465 . S
C2851 C2850 1.396 . S
C2851 C2852 1.399 . S
C2852 H2838 0.929 . S
C2852 C2851 1.399 . S
C2852 C2853 1.385 . S
C2853 H2839 0.931 . S
C2853 C2852 1.385 . S
C2853 C2854 1.389 . S
C2854 C2853 1.389 . S
C2854 C2855 1.387 . S
C2855 H2840 0.930 . S
C2855 C2850 1.390 . S
C2855 C2854 1.387 . S
H2856 C2868 0.930 . S
H2857 C2870 0.930 . S
H2858 C2871 0.930 . S
H2859 C2875 0.959 . S
H2860 C2875 0.959 . S
H2861 C2875 0.961 . S
H2862 C2876 0.960 . S
H2863 C2876 0.961 . S
H2864 C2876 0.959 . S
H2865 C2879 0.943 . S
H2866 C2880 0.931 . S
H2867 C2882 0.930 . S
C2868 H2856 0.930 . S
C2868 C2869 1.399 . S
C2868 C2873 1.395 1_545 S
C2869 C2868 1.399 . S
C2869 C2870 1.376 . S
C2870 H2857 0.930 . S
C2870 C2869 1.376 . S
C2870 C2871 1.388 . S
C2871 H2858 0.930 . S
C2871 C2870 1.388 . S
C2871 C2872 1.390 . S
C2872 C2871 1.390 . S
C2872 C2873 1.389 1_545 S
C2872 C2878 1.465 1_545 S
C2873 C2868 1.395 1_565 S
C2873 C2872 1.389 1_565 S
C2873 C2874 1.525 . S
C2874 C2873 1.525 . S
C2874 C2875 1.502 . S
C2874 C2876 1.561 . S
C2874 C2877 1.526 . S
C2875 H2859 0.959 . S
C2875 H2860 0.959 . S
C2875 H2861 0.961 . S
C2875 C2874 1.502 . S
C2876 H2862 0.960 . S
C2876 H2863 0.961 . S
C2876 H2864 0.959 . S
C2876 C2874 1.561 . S
C2877 C2874 1.526 . S
C2877 C2878 1.396 . S
C2877 C2882 1.390 . S
C2878 C2872 1.465 1_565 S
C2878 C2877 1.396 . S
C2878 C2879 1.396 1_565 S
C2879 H2865 0.943 . S
C2879 C2878 1.396 1_545 S
C2879 C2880 1.374 1_545 S
C2880 H2866 0.931 . S
C2880 C2879 1.374 1_565 S
C2880 C2881 1.389 . S
C2881 C2880 1.389 . S
C2881 C2882 1.387 . S
C2882 H2867 0.930 . S
C2882 C2877 1.390 . S
C2882 C2881 1.387 . S
H2883 C2895 0.930 . S
H2884 C2897 0.930 . S
H2885 C2898 0.930 . S
H2886 C2902 0.959 . S
H2887 C2902 0.959 . S
H2888 C2902 0.961 . S
H2889 C2903 0.960 . S
H2890 C2903 0.961 . S
H2891 C2903 0.959 . S
H2892 C2906 0.929 . S
H2893 C2907 0.931 . S
H2894 C2909 0.930 . S
C2895 H2883 0.930 . S
C2895 C2896 1.399 . S
C2895 C2900 1.399 . S
C2896 C2895 1.399 . S
C2896 C2897 1.376 . S
C2897 H2884 0.930 . S
C2897 C2896 1.376 . S
C2897 C2898 1.388 . S
C2898 H2885 0.930 . S
C2898 C2897 1.388 . S
C2898 C2899 1.390 . S
C2899 C2898 1.390 . S
C2899 C2900 1.394 . S
C2899 C2905 1.465 . S
C2900 C2895 1.399 . S
C2900 C2899 1.394 . S
C2900 C2901 1.516 . S
C2901 C2900 1.516 . S
C2901 C2902 1.502 . S
C2901 C2903 1.561 . S
C2901 C2904 1.526 . S
C2902 H2886 0.959 . S
C2902 H2887 0.959 . S
C2902 H2888 0.961 . S
C2902 C2901 1.502 . S
C2903 H2889 0.960 . S
C2903 H2890 0.961 . S
C2903 H2891 0.959 . S
C2903 C2901 1.561 . S
C2904 C2901 1.526 . S
C2904 C2905 1.396 . S
C2904 C2909 1.390 . S
C2905 C2899 1.465 . S
C2905 C2904 1.396 . S
C2905 C2906 1.399 . S
C2906 H2892 0.929 . S
C2906 C2905 1.399 . S
C2906 C2907 1.385 . S
C2907 H2893 0.931 . S
C2907 C2906 1.385 . S
C2907 C2908 1.389 . S
C2908 C2907 1.389 . S
C2908 C2909 1.387 . S
C2909 H2894 0.930 . S
C2909 C2904 1.390 . S
C2909 C2908 1.387 . S
H2910 C2922 0.930 . S
H2911 C2924 0.930 . S
H2912 C2925 0.930 . S
H2913 C2929 0.959 . S
H2914 C2929 0.959 . S
H2915 C2929 0.961 . S
H2916 C2930 0.960 . S
H2917 C2930 0.961 . S
H2918 C2930 0.959 . S
H2919 C2933 0.929 . S
H2920 C2934 0.931 . S
H2921 C2936 0.930 . S
C2922 H2910 0.930 . S
C2922 C2923 1.399 . S
C2922 C2927 1.399 . S
C2923 C2922 1.399 . S
C2923 C2924 1.376 . S
C2924 H2911 0.930 . S
C2924 C2923 1.376 . S
C2924 C2925 1.388 . S
C2925 H2912 0.930 . S
C2925 C2924 1.388 . S
C2925 C2926 1.390 . S
C2926 C2925 1.390 . S
C2926 C2927 1.394 . S
C2926 C2932 1.465 . S
C2927 C2922 1.399 . S
C2927 C2926 1.394 . S
C2927 C2928 1.516 . S
C2928 C2927 1.516 . S
C2928 C2929 1.502 . S
C2928 C2930 1.561 . S
C2928 C2931 1.526 . S
C2929 H2913 0.959 . S
C2929 H2914 0.959 . S
C2929 H2915 0.961 . S
C2929 C2928 1.502 . S
C2930 H2916 0.960 . S
C2930 H2917 0.961 . S
C2930 H2918 0.959 . S
C2930 C2928 1.561 . S
C2931 C2928 1.526 . S
C2931 C2932 1.396 . S
C2931 C2936 1.390 . S
C2932 C2926 1.465 . S
C2932 C2931 1.396 . S
C2932 C2933 1.399 . S
C2933 H2919 0.929 . S
C2933 C2932 1.399 . S
C2933 C2934 1.385 . S
C2934 H2920 0.931 . S
C2934 C2933 1.385 . S
C2934 C2935 1.389 . S
C2935 C2934 1.389 . S
C2935 C2936 1.387 . S
C2936 H2921 0.930 . S
C2936 C2931 1.390 . S
C2936 C2935 1.387 . S
H2937 C2949 0.930 . S
H2938 C2951 0.930 . S
H2939 C2952 0.930 . S
H2940 C2956 0.959 . S
H2941 C2956 0.959 . S
H2942 C2956 0.961 . S
H2943 C2957 0.960 . S
H2944 C2957 0.961 . S
H2945 C2957 0.959 . S
H2946 C2960 0.929 . S
H2947 C2961 0.931 . S
H2948 C2963 0.930 . S
C2949 H2937 0.930 . S
C2949 C2950 1.399 . S
C2949 C2954 1.399 . S
C2950 C2949 1.399 . S
C2950 C2951 1.376 . S
C2951 H2938 0.930 . S
C2951 C2950 1.376 . S
C2951 C2952 1.388 . S
C2952 H2939 0.930 . S
C2952 C2951 1.388 . S
C2952 C2953 1.390 . S
C2953 C2952 1.390 . S
C2953 C2954 1.394 . S
C2953 C2959 1.465 . S
C2954 C2949 1.399 . S
C2954 C2953 1.394 . S
C2954 C2955 1.516 1_554 S
C2955 C2954 1.516 1_556 S
C2955 C2956 1.502 . S
C2955 C2957 1.561 . S
C2955 C2958 1.526 . S
C2956 H2940 0.959 . S
C2956 H2941 0.959 . S
C2956 H2942 0.961 . S
C2956 C2955 1.502 . S
C2957 H2943 0.960 . S
C2957 H2944 0.961 . S
C2957 H2945 0.959 . S
C2957 C2955 1.561 . S
C2958 C2955 1.526 . S
C2958 C2959 1.396 1_556 S
C2958 C2963 1.390 . S
C2959 C2953 1.465 . S
C2959 C2958 1.396 1_554 S
C2959 C2960 1.399 . S
C2960 H2946 0.929 . S
C2960 C2959 1.399 . S
C2960 C2961 1.385 1_554 S
C2961 H2947 0.931 . S
C2961 C2960 1.385 1_556 S
C2961 C2962 1.389 . S
C2962 C2961 1.389 . S
C2962 C2963 1.387 . S
C2963 H2948 0.930 . S
C2963 C2958 1.390 . S
C2963 C2962 1.387 . S
H2964 C2976 0.930 . S
H2965 C2978 0.930 . S
H2966 C2979 0.930 . S
H2967 C2983 0.959 1_565 S
H2968 C2983 0.959 1_565 S
H2969 C2983 0.961 . S
H2970 C2984 0.960 . S
H2971 C2984 0.961 . S
H2972 C2984 0.959 . S
H2973 C2987 0.929 . S
H2974 C2988 0.931 . S
H2975 C2990 0.930 . S
C2976 H2964 0.930 . S
C2976 C2977 1.399 . S
C2976 C2981 1.399 . S
C2977 C2976 1.399 . S
C2977 C2978 1.376 . S
C2978 H2965 0.930 . S
C2978 C2977 1.376 . S
C2978 C2979 1.388 . S
C2979 H2966 0.930 . S
C2979 C2978 1.388 . S
C2979 C2980 1.390 . S
C2980 C2979 1.390 . S
C2980 C2981 1.394 . S
C2980 C2986 1.465 1_545 S
C2981 C2976 1.399 . S
C2981 C2980 1.394 . S
C2981 C2982 1.516 . S
C2982 C2981 1.516 . S
C2982 C2983 1.502 . S
C2982 C2984 1.561 . S
C2982 C2985 1.526 1_545 S
C2983 H2967 0.959 1_545 S
C2983 H2968 0.959 1_545 S
C2983 H2969 0.961 . S
C2983 C2982 1.502 . S
C2984 H2970 0.960 . S
C2984 H2971 0.961 . S
C2984 H2972 0.959 . S
C2984 C2982 1.561 . S
C2985 C2982 1.526 1_565 S
C2985 C2986 1.396 . S
C2985 C2990 1.390 . S
C2986 C2980 1.465 1_565 S
C2986 C2985 1.396 . S
C2986 C2987 1.399 . S
C2987 H2973 0.929 . S
C2987 C2986 1.399 . S
C2987 C2988 1.385 . S
C2988 H2974 0.931 . S
C2988 C2987 1.385 . S
C2988 C2989 1.389 . S
C2989 C2988 1.389 . S
C2989 C2990 1.387 . S
C2990 H2975 0.930 . S
C2990 C2985 1.390 . S
C2990 C2989 1.387 . S
H2991 C3003 0.930 . S
H2992 C3005 0.930 . S
H2993 C3006 0.942 . S
H2994 C3010 0.959 . S
H2995 C3010 0.959 . S
H2996 C3010 0.961 . S
H2997 C3011 0.960 . S
H2998 C3011 0.961 . S
H2999 C3011 0.959 . S
H3000 C3014 0.929 . S
H3001 C3015 0.931 . S
H3002 C3017 0.930 . S
C3003 H2991 0.930 . S
C3003 C3004 1.399 . S
C3003 C3008 1.399 . S
C3004 C3003 1.399 . S
C3004 C3005 1.376 . S
C3005 H2992 0.930 . S
C3005 C3004 1.376 . S
C3005 C3006 1.388 . S
C3006 H2993 0.942 . S
C3006 C3005 1.388 . S
C3006 C3007 1.392 1_554 S
C3007 C3006 1.392 1_556 S
C3007 C3008 1.397 1_556 S
C3007 C3013 1.460 . S
C3008 C3003 1.399 . S
C3008 C3007 1.397 1_554 S
C3008 C3009 1.516 1_554 S
C3009 C3008 1.516 1_556 S
C3009 C3010 1.502 1_556 S
C3009 C3011 1.561 . S
C3009 C3012 1.526 . S
C3010 H2994 0.959 . S
C3010 H2995 0.959 . S
C3010 H2996 0.961 . S
C3010 C3009 1.502 1_554 S
C3011 H2997 0.960 . S
C3011 H2998 0.961 . S
C3011 H2999 0.959 . S
C3011 C3009 1.561 . S
C3012 C3009 1.526 . S
C3012 C3013 1.396 . S
C3012 C3017 1.390 . S
C3013 C3007 1.460 . S
C3013 C3012 1.396 . S
C3013 C3014 1.399 . S
C3014 H3000 0.929 . S
C3014 C3013 1.399 . S
C3014 C3015 1.385 . S
C3015 H3001 0.931 . S
C3015 C3014 1.385 . S
C3015 C3016 1.389 . S
C3016 C3015 1.389 . S
C3016 C3017 1.387 . S
C3017 H3002 0.930 . S
C3017 C3012 1.390 . S
C3017 C3016 1.387 . S
H3018 C3030 0.930 . S
H3019 C3032 0.930 . S
H3020 C3033 0.930 . S
H3021 C3037 0.959 . S
H3022 C3037 0.959 . S
H3023 C3037 0.961 . S
H3024 C3038 0.960 . S
H3025 C3038 0.961 . S
H3026 C3038 0.959 . S
H3027 C3041 0.929 . S
H3028 C3042 0.931 . S
H3029 C3044 0.930 . S
C3030 H3018 0.930 . S
C3030 C3031 1.399 . S
C3030 C3035 1.399 . S
C3031 C3030 1.399 . S
C3031 C3032 1.376 . S
C3032 H3019 0.930 . S
C3032 C3031 1.376 . S
C3032 C3033 1.388 . S
C3033 H3020 0.930 . S
C3033 C3032 1.388 . S
C3033 C3034 1.390 . S
C3034 C3033 1.390 . S
C3034 C3035 1.394 . S
C3034 C3040 1.465 . S
C3035 C3030 1.399 . S
C3035 C3034 1.394 . S
C3035 C3036 1.516 . S
C3036 C3035 1.516 . S
C3036 C3037 1.502 . S
C3036 C3038 1.561 . S
C3036 C3039 1.526 . S
C3037 H3021 0.959 . S
C3037 H3022 0.959 . S
C3037 H3023 0.961 . S
C3037 C3036 1.502 . S
C3038 H3024 0.960 . S
C3038 H3025 0.961 . S
C3038 H3026 0.959 . S
C3038 C3036 1.561 . S
C3039 C3036 1.526 . S
C3039 C3040 1.396 . S
C3039 C3044 1.390 . S
C3040 C3034 1.465 . S
C3040 C3039 1.396 . S
C3040 C3041 1.399 . S
C3041 H3027 0.929 . S
C3041 C3040 1.399 . S
C3041 C3042 1.385 . S
C3042 H3028 0.931 . S
C3042 C3041 1.385 . S
C3042 C3043 1.389 . S
C3043 C3042 1.389 . S
C3043 C3044 1.387 . S
C3044 H3029 0.930 . S
C3044 C3039 1.390 . S
C3044 C3043 1.387 . S
H3045 C3057 0.930 . S
H3046 C3059 0.930 . S
H3047 C3060 0.930 . S
H3048 C3064 0.959 . S
H3049 C3064 0.959 . S
H3050 C3064 0.961 . S
H3051 C3065 0.960 . S
H3052 C3065 0.961 . S
H3053 C3065 0.959 . S
H3054 C3068 0.929 . S
H3055 C3069 0.931 . S
H3056 C3071 0.930 . S
C3057 H3045 0.930 . S
C3057 C3058 1.399 . S
C3057 C3062 1.399 . S
C3058 C3057 1.399 . S
C3058 C3059 1.376 . S
C3059 H3046 0.930 . S
C3059 C3058 1.376 . S
C3059 C3060 1.388 . S
C3060 H3047 0.930 . S
C3060 C3059 1.388 . S
C3060 C3061 1.390 . S
C3061 C3060 1.390 . S
C3061 C3062 1.394 . S
C3061 C3067 1.465 . S
C3062 C3057 1.399 . S
C3062 C3061 1.394 . S
C3062 C3063 1.516 . S
C3063 C3062 1.516 . S
C3063 C3064 1.502 . S
C3063 C3065 1.561 . S
C3063 C3066 1.526 . S
C3064 H3048 0.959 . S
C3064 H3049 0.959 . S
C3064 H3050 0.961 . S
C3064 C3063 1.502 . S
C3065 H3051 0.960 . S
C3065 H3052 0.961 . S
C3065 H3053 0.959 . S
C3065 C3063 1.561 . S
C3066 C3063 1.526 . S
C3066 C3067 1.396 . S
C3066 C3071 1.390 . S
C3067 C3061 1.465 . S
C3067 C3066 1.396 . S
C3067 C3068 1.399 . S
C3068 H3054 0.929 . S
C3068 C3067 1.399 . S
C3068 C3069 1.385 . S
C3069 H3055 0.931 . S
C3069 C3068 1.385 . S
C3069 C3070 1.389 . S
C3070 C3069 1.389 . S
C3070 C3071 1.387 . S
C3071 H3056 0.930 . S
C3071 C3066 1.390 . S
C3071 C3070 1.387 . S
H3072 C3084 0.930 . S
H3073 C3086 0.930 . S
H3074 C3087 0.930 . S
H3075 C3091 0.959 . S
H3076 C3091 0.959 1_554 S
H3077 C3091 0.961 . S
H3078 C3092 0.960 . S
H3079 C3092 0.961 . S
H3080 C3092 0.959 . S
H3081 C3095 0.919 1_556 S
H3082 C3096 0.931 . S
H3083 C3098 0.930 . S
C3084 H3072 0.930 . S
C3084 C3085 1.399 . S
C3084 C3089 1.399 . S
C3085 C3084 1.399 . S
C3085 C3086 1.376 . S
C3086 H3073 0.930 . S
C3086 C3085 1.376 . S
C3086 C3087 1.388 . S
C3087 H3074 0.930 . S
C3087 C3086 1.388 . S
C3087 C3088 1.390 . S
C3088 C3087 1.390 . S
C3088 C3089 1.394 . S
C3088 C3094 1.465 1_556 S
C3089 C3084 1.399 . S
C3089 C3088 1.394 . S
C3089 C3090 1.516 1_556 S
C3090 C3089 1.516 1_554 S
C3090 C3091 1.502 1_554 S
C3090 C3092 1.561 . S
C3090 C3093 1.526 . S
C3091 H3075 0.959 . S
C3091 H3076 0.959 1_556 S
C3091 H3077 0.961 . S
C3091 C3090 1.502 1_556 S
C3092 H3078 0.960 . S
C3092 H3079 0.961 . S
C3092 H3080 0.959 . S
C3092 C3090 1.561 . S
C3093 C3090 1.526 . S
C3093 C3094 1.396 . S
C3093 C3098 1.390 . S
C3094 C3088 1.465 1_554 S
C3094 C3093 1.396 . S
C3094 C3095 1.399 . S
C3095 H3081 0.919 1_554 S
C3095 C3094 1.399 . S
C3095 C3096 1.385 . S
C3096 H3082 0.931 . S
C3096 C3095 1.385 . S
C3096 C3097 1.389 . S
C3097 C3096 1.389 . S
C3097 C3098 1.387 . S
C3098 H3083 0.930 . S
C3098 C3093 1.390 . S
C3098 C3097 1.387 . S
H3099 C3111 0.930 . S
H3100 C3113 0.930 . S
H3101 C3114 0.930 . S
H3102 C3118 0.959 . S
H3103 C3118 0.959 . S
H3104 C3118 0.961 . S
H3105 C3119 0.960 . S
H3106 C3119 0.961 . S
H3107 C3119 0.959 . S
H3108 C3122 0.929 . S
H3109 C3123 0.931 . S
H3110 C3125 0.930 . S
C3111 H3099 0.930 . S
C3111 C3112 1.399 . S
C3111 C3116 1.399 . S
C3112 C3111 1.399 . S
C3112 C3113 1.376 . S
C3113 H3100 0.930 . S
C3113 C3112 1.376 . S
C3113 C3114 1.388 . S
C3114 H3101 0.930 . S
C3114 C3113 1.388 . S
C3114 C3115 1.390 . S
C3115 C3114 1.390 . S
C3115 C3116 1.394 . S
C3115 C3121 1.465 . S
C3116 C3111 1.399 . S
C3116 C3115 1.394 . S
C3116 C3117 1.516 . S
C3117 C3116 1.516 . S
C3117 C3118 1.502 . S
C3117 C3119 1.561 . S
C3117 C3120 1.526 . S
C3118 H3102 0.959 . S
C3118 H3103 0.959 . S
C3118 H3104 0.961 . S
C3118 C3117 1.502 . S
C3119 H3105 0.960 . S
C3119 H3106 0.961 . S
C3119 H3107 0.959 . S
C3119 C3117 1.561 . S
C3120 C3117 1.526 . S
C3120 C3121 1.396 . S
C3120 C3125 1.390 . S
C3121 C3115 1.465 . S
C3121 C3120 1.396 . S
C3121 C3122 1.399 . S
C3122 H3108 0.929 . S
C3122 C3121 1.399 . S
C3122 C3123 1.385 . S
C3123 H3109 0.931 . S
C3123 C3122 1.385 . S
C3123 C3124 1.389 . S
C3124 C3123 1.389 . S
C3124 C3125 1.387 . S
C3125 H3110 0.930 . S
C3125 C3120 1.390 . S
C3125 C3124 1.387 . S
H3126 C3138 0.930 . S
H3127 C3140 0.930 . S
H3128 C3141 0.930 1_565 S
H3129 C3145 0.959 . S
H3130 C3145 0.959 . S
H3131 C3145 0.961 . S
H3132 C3146 0.960 . S
H3133 C3146 0.961 . S
H3134 C3146 0.959 . S
H3135 C3149 0.929 . S
H3136 C3150 0.931 . S
H3137 C3152 0.930 . S
C3138 H3126 0.930 . S
C3138 C3139 1.399 . S
C3138 C3143 1.399 . S
C3139 C3138 1.399 . S
C3139 C3140 1.376 . S
C3140 H3127 0.930 . S
C3140 C3139 1.376 . S
C3140 C3141 1.388 . S
C3141 H3128 0.930 1_545 S
C3141 C3140 1.388 . S
C3141 C3142 1.390 . S
C3142 C3141 1.390 . S
C3142 C3143 1.394 . S
C3142 C3148 1.465 1_545 S
C3143 C3138 1.399 . S
C3143 C3142 1.394 . S
C3143 C3144 1.516 . S
C3144 C3143 1.516 . S
C3144 C3145 1.502 . S
C3144 C3146 1.561 . S
C3144 C3147 1.487 1_545 S
C3145 H3129 0.959 . S
C3145 H3130 0.959 . S
C3145 H3131 0.961 . S
C3145 C3144 1.502 . S
C3146 H3132 0.960 . S
C3146 H3133 0.961 . S
C3146 H3134 0.959 . S
C3146 C3144 1.561 . S
C3147 C3144 1.487 1_565 S
C3147 C3148 1.413 . S
C3147 C3152 1.412 . S
C3148 C3142 1.465 1_565 S
C3148 C3147 1.413 . S
C3148 C3149 1.399 . S
C3149 H3135 0.929 . S
C3149 C3148 1.399 . S
C3149 C3150 1.385 . S
C3150 H3136 0.931 . S
C3150 C3149 1.385 . S
C3150 C3151 1.389 . S
C3151 C3150 1.389 . S
C3151 C3152 1.387 . S
C3152 H3137 0.930 . S
C3152 C3147 1.412 . S
C3152 C3151 1.387 . S
H3153 C3165 0.930 . S
H3154 C3167 0.930 . S
H3155 C3168 0.930 . S
H3156 C3172 0.959 . S
H3157 C3172 0.959 . S
H3158 C3172 0.961 . S
H3159 C3173 0.931 1_556 S
H3160 C3173 0.969 . S
H3161 C3173 0.995 . S
H3162 C3176 0.929 . S
H3163 C3177 0.931 . S
H3164 C3179 0.930 . S
C3165 H3153 0.930 . S
C3165 C3166 1.399 . S
C3165 C3170 1.399 . S
C3166 C3165 1.399 . S
C3166 C3167 1.376 . S
C3167 H3154 0.930 . S
C3167 C3166 1.376 . S
C3167 C3168 1.388 1_556 S
C3168 H3155 0.930 . S
C3168 C3167 1.388 1_554 S
C3168 C3169 1.390 . S
C3169 C3168 1.390 . S
C3169 C3170 1.394 1_554 S
C3169 C3175 1.465 . S
C3170 C3165 1.399 . S
C3170 C3169 1.394 1_556 S
C3170 C3171 1.516 . S
C3171 C3170 1.516 . S
C3171 C3172 1.502 . S
C3171 C3173 1.548 1_556 S
C3171 C3174 1.526 1_556 S
C3172 H3156 0.959 . S
C3172 H3157 0.959 . S
C3172 H3158 0.961 . S
C3172 C3171 1.502 . S
C3173 H3159 0.931 1_554 S
C3173 H3160 0.969 . S
C3173 H3161 0.995 . S
C3173 C3171 1.548 1_554 S
C3174 C3171 1.526 1_554 S
C3174 C3175 1.396 . S
C3174 C3179 1.390 . S
C3175 C3169 1.465 . S
C3175 C3174 1.396 . S
C3175 C3176 1.399 . S
C3176 H3162 0.929 . S
C3176 C3175 1.399 . S
C3176 C3177 1.385 . S
C3177 H3163 0.931 . S
C3177 C3176 1.385 . S
C3177 C3178 1.389 . S
C3178 C3177 1.389 . S
C3178 C3179 1.387 . S
C3179 H3164 0.930 . S
C3179 C3174 1.390 . S
C3179 C3178 1.387 . S
H3180 C3192 0.930 . S
H3181 C3194 0.930 . S
H3182 C3195 0.930 . S
H3183 C3199 0.959 . S
H3184 C3199 0.959 . S
H3185 C3199 0.961 . S
H3186 C3200 0.960 . S
H3187 C3200 0.961 . S
H3188 C3200 0.959 . S
H3189 C3203 0.929 . S
H3190 C3204 0.931 . S
H3191 C3206 0.930 . S
C3192 H3180 0.930 . S
C3192 C3193 1.399 . S
C3192 C3197 1.399 . S
C3193 C3192 1.399 . S
C3193 C3194 1.376 . S
C3194 H3181 0.930 . S
C3194 C3193 1.376 . S
C3194 C3195 1.388 1_554 S
C3195 H3182 0.930 . S
C3195 C3194 1.388 1_556 S
C3195 C3196 1.390 . S
C3196 C3195 1.390 . S
C3196 C3197 1.394 1_556 S
C3196 C3202 1.465 . S
C3197 C3192 1.399 . S
C3197 C3196 1.394 1_554 S
C3197 C3198 1.516 . S
C3198 C3197 1.516 . S
C3198 C3199 1.502 . S
C3198 C3200 1.561 . S
C3198 C3201 1.526 1_554 S
C3199 H3183 0.959 . S
C3199 H3184 0.959 . S
C3199 H3185 0.961 . S
C3199 C3198 1.502 . S
C3200 H3186 0.960 . S
C3200 H3187 0.961 . S
C3200 H3188 0.959 . S
C3200 C3198 1.561 . S
C3201 C3198 1.526 1_556 S
C3201 C3202 1.396 . S
C3201 C3206 1.390 . S
C3202 C3196 1.465 . S
C3202 C3201 1.396 . S
C3202 C3203 1.399 . S
C3203 H3189 0.929 . S
C3203 C3202 1.399 . S
C3203 C3204 1.385 . S
C3204 H3190 0.931 . S
C3204 C3203 1.385 . S
C3204 C3205 1.389 . S
C3205 C3204 1.389 . S
C3205 C3206 1.387 . S
C3206 H3191 0.930 . S
C3206 C3201 1.390 . S
C3206 C3205 1.387 . S
H3207 C3219 0.930 . S
H3208 C3221 0.930 . S
H3209 C3222 0.930 . S
H3210 C3226 0.959 . S
H3211 C3226 0.959 . S
H3212 C3226 0.961 . S
H3213 C3227 0.960 . S
H3214 C3227 0.961 . S
H3215 C3227 0.959 . S
H3216 C3230 0.929 . S
H3217 C3231 0.931 . S
H3218 C3233 0.930 . S
C3219 H3207 0.930 . S
C3219 C3220 1.399 . S
C3219 C3224 1.399 . S
C3220 C3219 1.399 . S
C3220 C3221 1.376 . S
C3221 H3208 0.930 . S
C3221 C3220 1.376 . S
C3221 C3222 1.388 . S
C3222 H3209 0.930 . S
C3222 C3221 1.388 . S
C3222 C3223 1.390 . S
C3223 C3222 1.390 . S
C3223 C3224 1.394 . S
C3223 C3229 1.465 . S
C3224 C3219 1.399 . S
C3224 C3223 1.394 . S
C3224 C3225 1.516 . S
C3225 C3224 1.516 . S
C3225 C3226 1.502 . S
C3225 C3227 1.561 . S
C3225 C3228 1.526 . S
C3226 H3210 0.959 . S
C3226 H3211 0.959 . S
C3226 H3212 0.961 . S
C3226 C3225 1.502 . S
C3227 H3213 0.960 . S
C3227 H3214 0.961 . S
C3227 H3215 0.959 . S
C3227 C3225 1.561 . S
C3228 C3225 1.526 . S
C3228 C3229 1.396 . S
C3228 C3233 1.390 . S
C3229 C3223 1.465 . S
C3229 C3228 1.396 . S
C3229 C3230 1.399 . S
C3230 H3216 0.929 . S
C3230 C3229 1.399 . S
C3230 C3231 1.385 . S
C3231 H3217 0.931 . S
C3231 C3230 1.385 . S
C3231 C3232 1.389 . S
C3232 C3231 1.389 . S
C3232 C3233 1.387 . S
C3233 H3218 0.930 . S
C3233 C3228 1.390 . S
C3233 C3232 1.387 . S
H3234 C3246 0.930 . S
H3235 C3248 0.930 . S
H3236 C3249 0.930 . S
H3237 C3253 0.959 . S
H3238 C3253 0.959 . S
H3239 C3253 0.961 . S
H3240 C3254 0.960 . S
H3241 C3254 0.961 . S
H3242 C3254 0.959 1_545 S
H3243 C3257 0.929 . S
H3244 C3258 0.931 . S
H3245 C3260 0.930 . S
C3246 H3234 0.930 . S
C3246 C3247 1.399 . S
C3246 C3251 1.399 . S
C3247 C3246 1.399 . S
C3247 C3248 1.376 . S
C3248 H3235 0.930 . S
C3248 C3247 1.376 . S
C3248 C3249 1.388 1_565 S
C3249 H3236 0.930 . S
C3249 C3248 1.388 1_545 S
C3249 C3250 1.390 . S
C3250 C3249 1.390 . S
C3250 C3251 1.394 1_545 S
C3250 C3256 1.465 . S
C3251 C3246 1.399 . S
C3251 C3250 1.394 1_565 S
C3251 C3252 1.516 . S
C3252 C3251 1.516 . S
C3252 C3253 1.502 . S
C3252 C3254 1.561 . S
C3252 C3255 1.526 1_565 S
C3253 H3237 0.959 . S
C3253 H3238 0.959 . S
C3253 H3239 0.961 . S
C3253 C3252 1.502 . S
C3254 H3240 0.960 . S
C3254 H3241 0.961 . S
C3254 H3242 0.959 1_565 S
C3254 C3252 1.561 . S
C3255 C3252 1.526 1_545 S
C3255 C3256 1.396 . S
C3255 C3260 1.390 . S
C3256 C3250 1.465 . S
C3256 C3255 1.396 . S
C3256 C3257 1.399 . S
C3257 H3243 0.929 . S
C3257 C3256 1.399 . S
C3257 C3258 1.385 . S
C3258 H3244 0.931 . S
C3258 C3257 1.385 . S
C3258 C3259 1.389 . S
C3259 C3258 1.389 . S
C3259 C3260 1.387 . S
C3260 H3245 0.930 . S
C3260 C3255 1.390 . S
C3260 C3259 1.387 . S
H3261 C3273 0.930 . S
H3262 C3275 0.930 . S
H3263 C3276 0.930 . S
H3264 C3280 0.959 . S
H3265 C3280 0.959 . S
H3266 C3280 0.961 . S
H3267 C3281 0.960 . S
H3268 C3281 0.961 . S
H3269 C3281 0.959 . S
H3270 C3284 0.929 1_455 S
H3271 C3285 0.931 . S
H3272 C3287 0.930 . S
C3273 H3261 0.930 . S
C3273 C3274 1.399 . S
C3273 C3278 1.399 . S
C3274 C3273 1.399 . S
C3274 C3275 1.376 . S
C3275 H3262 0.930 . S
C3275 C3274 1.376 . S
C3275 C3276 1.388 . S
C3276 H3263 0.930 . S
C3276 C3275 1.388 . S
C3276 C3277 1.390 . S
C3277 C3276 1.390 . S
C3277 C3278 1.394 . S
C3277 C3283 1.465 1_455 S
C3278 C3273 1.399 . S
C3278 C3277 1.394 . S
C3278 C3279 1.516 1_455 S
C3279 C3278 1.516 1_655 S
C3279 C3280 1.502 . S
C3279 C3281 1.561 . S
C3279 C3282 1.526 . S
C3280 H3264 0.959 . S
C3280 H3265 0.959 . S
C3280 H3266 0.961 . S
C3280 C3279 1.502 . S
C3281 H3267 0.960 . S
C3281 H3268 0.961 . S
C3281 H3269 0.959 . S
C3281 C3279 1.561 . S
C3282 C3279 1.526 . S
C3282 C3283 1.396 . S
C3282 C3287 1.390 . S
C3283 C3277 1.465 1_655 S
C3283 C3282 1.396 . S
C3283 C3284 1.399 . S
C3284 H3270 0.929 1_655 S
C3284 C3283 1.399 . S
C3284 C3285 1.385 . S
C3285 H3271 0.931 . S
C3285 C3284 1.385 . S
C3285 C3286 1.389 . S
C3286 C3285 1.389 . S
C3286 C3287 1.387 . S
C3287 H3272 0.930 . S
C3287 C3282 1.390 . S
C3287 C3286 1.387 . S
H3288 C3300 0.930 . S
H3289 C3302 0.930 . S
H3290 C3303 0.930 . S
H3291 C3307 0.959 . S
H3292 C3307 0.959 . S
H3293 C3307 0.961 . S
H3294 C3308 0.960 . S
H3295 C3308 0.961 . S
H3296 C3308 0.959 . S
H3297 C3311 0.916 1_455 S
H3298 C3312 0.931 . S
H3299 C3314 0.930 . S
C3300 H3288 0.930 . S
C3300 C3301 1.399 . S
C3300 C3305 1.399 . S
C3301 C3300 1.399 . S
C3301 C3302 1.376 . S
C3302 H3289 0.930 . S
C3302 C3301 1.376 . S
C3302 C3303 1.388 . S
C3303 H3290 0.930 . S
C3303 C3302 1.388 . S
C3303 C3304 1.390 . S
C3304 C3303 1.390 . S
C3304 C3305 1.394 . S
C3304 C3310 1.467 . S
C3305 C3300 1.399 . S
C3305 C3304 1.394 . S
C3305 C3306 1.534 . S
C3306 C3305 1.534 . S
C3306 C3307 1.480 1_455 S
C3306 C3308 1.580 . S
C3306 C3309 1.514 1_455 S
C3307 H3291 0.959 . S
C3307 H3292 0.959 . S
C3307 H3293 0.961 . S
C3307 C3306 1.480 1_655 S
C3308 H3294 0.960 . S
C3308 H3295 0.961 . S
C3308 H3296 0.959 . S
C3308 C3306 1.580 . S
C3309 C3306 1.514 1_655 S
C3309 C3310 1.395 1_655 S
C3309 C3314 1.390 . S
C3310 C3304 1.467 . S
C3310 C3309 1.395 1_455 S
C3310 C3311 1.398 1_455 S
C3311 H3297 0.916 1_655 S
C3311 C3310 1.398 1_655 S
C3311 C3312 1.385 . S
C3312 H3298 0.931 . S
C3312 C3311 1.385 . S
C3312 C3313 1.389 . S
C3313 C3312 1.389 . S
C3313 C3314 1.387 . S
C3314 H3299 0.930 . S
C3314 C3309 1.390 . S
C3314 C3313 1.387 . S
H3315 C3327 0.930 . S
H3316 C3329 0.930 . S
H3317 C3330 0.930 . S
H3318 C3334 0.959 . S
H3319 C3334 0.959 . S
H3320 C3334 0.961 . S
H3321 C3335 0.960 . S
H3322 C3335 0.961 . S
H3323 C3335 0.959 . S
H3324 C3338 0.929 . S
H3325 C3339 0.931 . S
H3326 C3341 0.930 . S
C3327 H3315 0.930 . S
C3327 C3328 1.399 . S
C3327 C3332 1.399 . S
C3328 C3327 1.399 . S
C3328 C3329 1.376 . S
C3329 H3316 0.930 . S
C3329 C3328 1.376 . S
C3329 C3330 1.388 . S
C3330 H3317 0.930 . S
C3330 C3329 1.388 . S
C3330 C3331 1.390 . S
C3331 C3330 1.390 . S
C3331 C3332 1.394 . S
C3331 C3337 1.465 . S
C3332 C3327 1.399 . S
C3332 C3331 1.394 . S
C3332 C3333 1.516 . S
C3333 C3332 1.516 . S
C3333 C3334 1.502 . S
C3333 C3335 1.561 . S
C3333 C3336 1.526 . S
C3334 H3318 0.959 . S
C3334 H3319 0.959 . S
C3334 H3320 0.961 . S
C3334 C3333 1.502 . S
C3335 H3321 0.960 . S
C3335 H3322 0.961 . S
C3335 H3323 0.959 . S
C3335 C3333 1.561 . S
C3336 C3333 1.526 . S
C3336 C3337 1.396 . S
C3336 C3341 1.390 . S
C3337 C3331 1.465 . S
C3337 C3336 1.396 . S
C3337 C3338 1.399 . S
C3338 H3324 0.929 . S
C3338 C3337 1.399 . S
C3338 C3339 1.385 . S
C3339 H3325 0.931 . S
C3339 C3338 1.385 . S
C3339 C3340 1.389 . S
C3340 C3339 1.389 . S
C3340 C3341 1.387 . S
C3341 H3326 0.930 . S
C3341 C3336 1.390 . S
C3341 C3340 1.387 . S
H3342 C3354 0.930 . S
H3343 C3356 0.930 . S
H3344 C3357 0.930 . S
H3345 C3361 0.959 . S
H3346 C3361 0.959 . S
H3347 C3361 0.961 . S
H3348 C3362 0.960 . S
H3349 C3362 0.961 . S
H3350 C3362 0.959 . S
H3351 C3365 0.929 . S
H3352 C3366 0.931 . S
H3353 C3368 0.930 . S
C3354 H3342 0.930 . S
C3354 C3355 1.399 . S
C3354 C3359 1.399 . S
C3355 C3354 1.399 . S
C3355 C3356 1.376 . S
C3356 H3343 0.930 . S
C3356 C3355 1.376 . S
C3356 C3357 1.388 . S
C3357 H3344 0.930 . S
C3357 C3356 1.388 . S
C3357 C3358 1.390 . S
C3358 C3357 1.390 . S
C3358 C3359 1.394 . S
C3358 C3364 1.465 . S
C3359 C3354 1.399 . S
C3359 C3358 1.394 . S
C3359 C3360 1.516 . S
C3360 C3359 1.516 . S
C3360 C3361 1.502 . S
C3360 C3362 1.561 . S
C3360 C3363 1.526 . S
C3361 H3345 0.959 . S
C3361 H3346 0.959 . S
C3361 H3347 0.961 . S
C3361 C3360 1.502 . S
C3362 H3348 0.960 . S
C3362 H3349 0.961 . S
C3362 H3350 0.959 . S
C3362 C3360 1.561 . S
C3363 C3360 1.526 . S
C3363 C3364 1.396 . S
C3363 C3368 1.390 . S
C3364 C3358 1.465 . S
C3364 C3363 1.396 . S
C3364 C3365 1.399 . S
C3365 H3351 0.929 . S
C3365 C3364 1.399 . S
C3365 C3366 1.385 . S
C3366 H3352 0.931 . S
C3366 C3365 1.385 . S
C3366 C3367 1.389 . S
C3367 C3366 1.389 . S
C3367 C3368 1.387 . S
C3368 H3353 0.930 . S
C3368 C3363 1.390 . S
C3368 C3367 1.387 . S
H3369 C3381 0.930 . S
H3370 C3383 0.930 . S
H3371 C3384 0.930 . S
H3372 C3388 0.959 . S
H3373 C3388 0.959 . S
H3374 C3388 0.961 . S
H3375 C3389 0.960 . S
H3376 C3389 0.961 . S
H3377 C3389 0.959 . S
H3378 C3392 0.929 . S
H3379 C3393 0.931 . S
H3380 C3395 0.930 . S
C3381 H3369 0.930 . S
C3381 C3382 1.399 . S
C3381 C3386 1.399 . S
C3382 C3381 1.399 . S
C3382 C3383 1.376 . S
C3383 H3370 0.930 . S
C3383 C3382 1.376 . S
C3383 C3384 1.388 . S
C3384 H3371 0.930 . S
C3384 C3383 1.388 . S
C3384 C3385 1.390 . S
C3385 C3384 1.390 . S
C3385 C3386 1.394 . S
C3385 C3391 1.465 . S
C3386 C3381 1.399 . S
C3386 C3385 1.394 . S
C3386 C3387 1.516 . S
C3387 C3386 1.516 . S
C3387 C3388 1.502 . S
C3387 C3389 1.561 . S
C3387 C3390 1.526 . S
C3388 H3372 0.959 . S
C3388 H3373 0.959 . S
C3388 H3374 0.961 . S
C3388 C3387 1.502 . S
C3389 H3375 0.960 . S
C3389 H3376 0.961 . S
C3389 H3377 0.959 . S
C3389 C3387 1.561 . S
C3390 C3387 1.526 . S
C3390 C3391 1.396 . S
C3390 C3395 1.390 . S
C3391 C3385 1.465 . S
C3391 C3390 1.396 . S
C3391 C3392 1.399 . S
C3392 H3378 0.929 . S
C3392 C3391 1.399 . S
C3392 C3393 1.385 . S
C3393 H3379 0.931 . S
C3393 C3392 1.385 . S
C3393 C3394 1.389 . S
C3394 C3393 1.389 . S
C3394 C3395 1.387 . S
C3395 H3380 0.930 . S
C3395 C3390 1.390 . S
C3395 C3394 1.387 . S
H3396 C3408 0.930 . S
H3397 C3410 0.930 . S
H3398 C3411 0.930 . S
H3399 C3415 0.959 1_556 S
H3400 C3415 0.959 . S
H3401 C3415 0.961 . S
H3402 C3416 0.960 . S
H3403 C3416 0.961 . S
H3404 C3416 0.959 . S
H3405 C3419 0.929 . S
H3406 C3420 0.931 . S
H3407 C3422 0.930 . S
C3408 H3396 0.930 . S
C3408 C3409 1.399 . S
C3408 C3413 1.399 . S
C3409 C3408 1.399 . S
C3409 C3410 1.376 . S
C3410 H3397 0.930 . S
C3410 C3409 1.376 . S
C3410 C3411 1.388 . S
C3411 H3398 0.930 . S
C3411 C3410 1.388 . S
C3411 C3412 1.390 . S
C3412 C3411 1.390 . S
C3412 C3413 1.394 . S
C3412 C3418 1.465 1_554 S
C3413 C3408 1.399 . S
C3413 C3412 1.394 . S
C3413 C3414 1.516 . S
C3414 C3413 1.516 . S
C3414 C3415 1.502 . S
C3414 C3416 1.561 . S
C3414 C3417 1.526 1_554 S
C3415 H3399 0.959 1_554 S
C3415 H3400 0.959 . S
C3415 H3401 0.961 . S
C3415 C3414 1.502 . S
C3416 H3402 0.960 . S
C3416 H3403 0.961 . S
C3416 H3404 0.959 . S
C3416 C3414 1.561 . S
C3417 C3414 1.526 1_556 S
C3417 C3418 1.396 . S
C3417 C3422 1.390 . S
C3418 C3412 1.465 1_556 S
C3418 C3417 1.396 . S
C3418 C3419 1.399 . S
C3419 H3405 0.929 . S
C3419 C3418 1.399 . S
C3419 C3420 1.385 . S
C3420 H3406 0.931 . S
C3420 C3419 1.385 . S
C3420 C3421 1.389 . S
C3421 C3420 1.389 . S
C3421 C3422 1.387 . S
C3422 H3407 0.930 . S
C3422 C3417 1.390 . S
C3422 C3421 1.387 . S
H3423 C3435 0.930 . S
H3424 C3437 0.930 . S
H3425 C3438 0.930 . S
H3426 C3442 0.959 . S
H3427 C3442 0.959 . S
H3428 C3442 0.961 . S
H3429 C3443 0.960 . S
H3430 C3443 0.961 . S
H3431 C3443 0.959 . S
H3432 C3446 0.929 . S
H3433 C3447 0.931 . S
H3434 C3449 0.930 . S
C3435 H3423 0.930 . S
C3435 C3436 1.399 . S
C3435 C3440 1.399 . S
C3436 C3435 1.399 . S
C3436 C3437 1.376 . S
C3437 H3424 0.930 . S
C3437 C3436 1.376 . S
C3437 C3438 1.388 1_565 S
C3438 H3425 0.930 . S
C3438 C3437 1.388 1_545 S
C3438 C3439 1.390 . S
C3439 C3438 1.390 . S
C3439 C3440 1.394 1_545 S
C3439 C3445 1.465 . S
C3440 C3435 1.399 . S
C3440 C3439 1.394 1_565 S
C3440 C3441 1.516 . S
C3441 C3440 1.516 . S
C3441 C3442 1.502 . S
C3441 C3443 1.561 . S
C3441 C3444 1.526 1_565 S
C3442 H3426 0.959 . S
C3442 H3427 0.959 . S
C3442 H3428 0.961 . S
C3442 C3441 1.502 . S
C3443 H3429 0.960 . S
C3443 H3430 0.961 . S
C3443 H3431 0.959 . S
C3443 C3441 1.561 . S
C3444 C3441 1.526 1_545 S
C3444 C3445 1.396 . S
C3444 C3449 1.390 . S
C3445 C3439 1.465 . S
C3445 C3444 1.396 . S
C3445 C3446 1.399 . S
C3446 H3432 0.929 . S
C3446 C3445 1.399 . S
C3446 C3447 1.385 . S
C3447 H3433 0.931 . S
C3447 C3446 1.385 . S
C3447 C3448 1.389 . S
C3448 C3447 1.389 . S
C3448 C3449 1.387 . S
C3449 H3434 0.930 . S
C3449 C3444 1.390 . S
C3449 C3448 1.387 . S
H3450 C3462 0.930 . S
H3451 C3464 0.930 . S
H3452 C3465 0.930 . S
H3453 C3469 0.959 . S
H3454 C3469 0.959 . S
H3455 C3469 0.961 . S
H3456 C3470 0.960 . S
H3457 C3470 0.961 . S
H3458 C3470 0.959 . S
H3459 C3473 0.929 . S
H3460 C3474 0.931 . S
H3461 C3476 0.930 . S
C3462 H3450 0.930 . S
C3462 C3463 1.399 . S
C3462 C3467 1.399 . S
C3463 C3462 1.399 . S
C3463 C3464 1.376 . S
C3464 H3451 0.930 . S
C3464 C3463 1.376 . S
C3464 C3465 1.388 . S
C3465 H3452 0.930 . S
C3465 C3464 1.388 . S
C3465 C3466 1.390 . S
C3466 C3465 1.390 . S
C3466 C3467 1.394 . S
C3466 C3472 1.465 . S
C3467 C3462 1.399 . S
C3467 C3466 1.394 . S
C3467 C3468 1.516 . S
C3468 C3467 1.516 . S
C3468 C3469 1.502 . S
C3468 C3470 1.561 . S
C3468 C3471 1.526 . S
C3469 H3453 0.959 . S
C3469 H3454 0.959 . S
C3469 H3455 0.961 . S
C3469 C3468 1.502 . S
C3470 H3456 0.960 . S
C3470 H3457 0.961 . S
C3470 H3458 0.959 . S
C3470 C3468 1.561 . S
C3471 C3468 1.526 . S
C3471 C3472 1.396 . S
C3471 C3476 1.390 . S
C3472 C3466 1.465 . S
C3472 C3471 1.396 . S
C3472 C3473 1.399 . S
C3473 H3459 0.929 . S
C3473 C3472 1.399 . S
C3473 C3474 1.385 . S
C3474 H3460 0.931 . S
C3474 C3473 1.385 . S
C3474 C3475 1.389 . S
C3475 C3474 1.389 . S
C3475 C3476 1.387 . S
C3476 H3461 0.930 . S
C3476 C3471 1.390 . S
C3476 C3475 1.387 . S
H3477 C3489 0.930 . S
H3478 C3491 0.930 . S
H3479 C3492 0.930 . S
H3480 C3496 0.959 . S
H3481 C3496 0.959 . S
H3482 C3496 0.961 . S
H3483 C3497 0.960 . S
H3484 C3497 0.961 . S
H3485 C3497 0.959 . S
H3486 C3500 0.929 . S
H3487 C3501 0.931 . S
H3488 C3503 0.930 . S
C3489 H3477 0.930 . S
C3489 C3490 1.399 . S
C3489 C3494 1.399 . S
C3490 C3489 1.399 . S
C3490 C3491 1.376 . S
C3491 H3478 0.930 . S
C3491 C3490 1.376 . S
C3491 C3492 1.388 . S
C3492 H3479 0.930 . S
C3492 C3491 1.388 . S
C3492 C3493 1.390 . S
C3493 C3492 1.390 . S
C3493 C3494 1.394 . S
C3493 C3499 1.465 . S
C3494 C3489 1.399 . S
C3494 C3493 1.394 . S
C3494 C3495 1.516 . S
C3495 C3494 1.516 . S
C3495 C3496 1.502 . S
C3495 C3497 1.561 . S
C3495 C3498 1.526 . S
C3496 H3480 0.959 . S
C3496 H3481 0.959 . S
C3496 H3482 0.961 . S
C3496 C3495 1.502 . S
C3497 H3483 0.960 . S
C3497 H3484 0.961 . S
C3497 H3485 0.959 . S
C3497 C3495 1.561 . S
C3498 C3495 1.526 . S
C3498 C3499 1.396 . S
C3498 C3503 1.390 . S
C3499 C3493 1.465 . S
C3499 C3498 1.396 . S
C3499 C3500 1.399 . S
C3500 H3486 0.929 . S
C3500 C3499 1.399 . S
C3500 C3501 1.385 . S
C3501 H3487 0.931 . S
C3501 C3500 1.385 . S
C3501 C3502 1.389 . S
C3502 C3501 1.389 . S
C3502 C3503 1.387 . S
C3503 H3488 0.930 . S
C3503 C3498 1.390 . S
C3503 C3502 1.387 . S
H3504 C3516 0.930 . S
H3505 C3518 0.930 . S
H3506 C3519 0.930 . S
H3507 C3523 0.959 . S
H3508 C3523 0.959 . S
H3509 C3523 0.961 . S
H3510 C3524 0.960 . S
H3511 C3524 0.961 . S
H3512 C3524 0.959 . S
H3513 C3527 0.929 . S
H3514 C3528 0.931 . S
H3515 C3530 0.930 . S
C3516 H3504 0.930 . S
C3516 C3517 1.399 . S
C3516 C3521 1.399 . S
C3517 C3516 1.399 . S
C3517 C3518 1.376 . S
C3518 H3505 0.930 . S
C3518 C3517 1.376 . S
C3518 C3519 1.388 . S
C3519 H3506 0.930 . S
C3519 C3518 1.388 . S
C3519 C3520 1.390 . S
C3520 C3519 1.390 . S
C3520 C3521 1.394 . S
C3520 C3526 1.465 . S
C3521 C3516 1.399 . S
C3521 C3520 1.394 . S
C3521 C3522 1.516 . S
C3522 C3521 1.516 . S
C3522 C3523 1.502 . S
C3522 C3524 1.561 . S
C3522 C3525 1.526 . S
C3523 H3507 0.959 . S
C3523 H3508 0.959 . S
C3523 H3509 0.961 . S
C3523 C3522 1.502 . S
C3524 H3510 0.960 . S
C3524 H3511 0.961 . S
C3524 H3512 0.959 . S
C3524 C3522 1.561 . S
C3525 C3522 1.526 . S
C3525 C3526 1.396 . S
C3525 C3530 1.390 . S
C3526 C3520 1.465 . S
C3526 C3525 1.396 . S
C3526 C3527 1.399 . S
C3527 H3513 0.929 . S
C3527 C3526 1.399 . S
C3527 C3528 1.385 . S
C3528 H3514 0.931 . S
C3528 C3527 1.385 . S
C3528 C3529 1.389 . S
C3529 C3528 1.389 . S
C3529 C3530 1.387 . S
C3530 H3515 0.930 . S
C3530 C3525 1.390 . S
C3530 C3529 1.387 . S
H3531 C3543 0.930 . S
H3532 C3545 0.930 . S
H3533 C3546 0.930 . S
H3534 C3550 0.959 . S
H3535 C3550 0.959 . S
H3536 C3550 0.961 . S
H3537 C3551 0.960 . S
H3538 C3551 0.961 . S
H3539 C3551 0.959 . S
H3540 C3554 0.929 . S
H3541 C3555 0.931 . S
H3542 C3557 0.930 . S
C3543 H3531 0.930 . S
C3543 C3544 1.399 . S
C3543 C3548 1.399 . S
C3544 C3543 1.399 . S
C3544 C3545 1.376 . S
C3545 H3532 0.930 . S
C3545 C3544 1.376 . S
C3545 C3546 1.388 1_565 S
C3546 H3533 0.930 . S
C3546 C3545 1.388 1_545 S
C3546 C3547 1.390 1_545 S
C3547 C3546 1.390 1_565 S
C3547 C3548 1.394 . S
C3547 C3553 1.465 1_565 S
C3548 C3543 1.399 . S
C3548 C3547 1.394 . S
C3548 C3549 1.516 . S
C3549 C3548 1.516 . S
C3549 C3550 1.502 . S
C3549 C3551 1.561 . S
C3549 C3552 1.530 . S
C3550 H3534 0.959 . S
C3550 H3535 0.959 . S
C3550 H3536 0.961 . S
C3550 C3549 1.502 . S
C3551 H3537 0.960 . S
C3551 H3538 0.961 . S
C3551 H3539 0.959 . S
C3551 C3549 1.561 . S
C3552 C3549 1.530 . S
C3552 C3553 1.394 1_565 S
C3552 C3557 1.388 1_565 S
C3553 C3547 1.465 1_545 S
C3553 C3552 1.394 1_545 S
C3553 C3554 1.399 . S
C3554 H3540 0.929 . S
C3554 C3553 1.399 . S
C3554 C3555 1.385 . S
C3555 H3541 0.931 . S
C3555 C3554 1.385 . S
C3555 C3556 1.389 . S
C3556 C3555 1.389 . S
C3556 C3557 1.387 . S
C3557 H3542 0.930 . S
C3557 C3552 1.388 1_545 S
C3557 C3556 1.387 . S
H3558 C3570 0.930 . S
H3559 C3572 0.930 . S
H3560 C3573 0.930 . S
H3561 C3577 0.959 . S
H3562 C3577 0.959 . S
H3563 C3577 0.961 . S
H3564 C3578 0.960 . S
H3565 C3578 0.961 . S
H3566 C3578 0.959 . S
H3567 C3581 0.929 . S
H3568 C3582 0.931 . S
H3569 C3584 0.930 . S
C3570 H3558 0.930 . S
C3570 C3571 1.399 . S
C3570 C3575 1.389 1_554 S
C3571 C3570 1.399 . S
C3571 C3572 1.376 . S
C3572 H3559 0.930 . S
C3572 C3571 1.376 . S
C3572 C3573 1.388 . S
C3573 H3560 0.930 . S
C3573 C3572 1.388 . S
C3573 C3574 1.390 . S
C3574 C3573 1.390 . S
C3574 C3575 1.382 1_554 S
C3574 C3580 1.465 1_554 S
C3575 C3570 1.389 1_556 S
C3575 C3574 1.382 1_556 S
C3575 C3576 1.537 . S
C3576 C3575 1.537 . S
C3576 C3577 1.502 . S
C3576 C3578 1.561 . S
C3576 C3579 1.526 . S
C3577 H3561 0.959 . S
C3577 H3562 0.959 . S
C3577 H3563 0.961 . S
C3577 C3576 1.502 . S
C3578 H3564 0.960 . S
C3578 H3565 0.961 . S
C3578 H3566 0.959 . S
C3578 C3576 1.561 . S
C3579 C3576 1.526 . S
C3579 C3580 1.396 . S
C3579 C3584 1.390 . S
C3580 C3574 1.465 1_556 S
C3580 C3579 1.396 . S
C3580 C3581 1.399 1_556 S
C3581 H3567 0.929 . S
C3581 C3580 1.399 1_554 S
C3581 C3582 1.385 1_554 S
C3582 H3568 0.931 . S
C3582 C3581 1.385 1_556 S
C3582 C3583 1.389 . S
C3583 C3582 1.389 . S
C3583 C3584 1.387 . S
C3584 H3569 0.930 . S
C3584 C3579 1.390 . S
C3584 C3583 1.387 . S
H3585 C3597 0.930 . S
H3586 C3599 0.930 . S
H3587 C3600 0.930 . S
H3588 C3604 0.959 . S
H3589 C3604 0.959 . S
H3590 C3604 0.961 . S
H3591 C3605 0.960 . S
H3592 C3605 0.961 . S
H3593 C3605 0.959 . S
H3594 C3608 0.929 . S
H3595 C3609 0.931 . S
H3596 C3611 0.930 . S
C3597 H3585 0.930 . S
C3597 C3598 1.399 . S
C3597 C3602 1.399 . S
C3598 C3597 1.399 . S
C3598 C3599 1.376 . S
C3599 H3586 0.930 . S
C3599 C3598 1.376 . S
C3599 C3600 1.388 . S
C3600 H3587 0.930 . S
C3600 C3599 1.388 . S
C3600 C3601 1.390 . S
C3601 C3600 1.390 . S
C3601 C3602 1.394 . S
C3601 C3607 1.465 . S
C3602 C3597 1.399 . S
C3602 C3601 1.394 . S
C3602 C3603 1.516 . S
C3603 C3602 1.516 . S
C3603 C3604 1.502 . S
C3603 C3605 1.561 . S
C3603 C3606 1.526 . S
C3604 H3588 0.959 . S
C3604 H3589 0.959 . S
C3604 H3590 0.961 . S
C3604 C3603 1.502 . S
C3605 H3591 0.960 . S
C3605 H3592 0.961 . S
C3605 H3593 0.959 . S
C3605 C3603 1.561 . S
C3606 C3603 1.526 . S
C3606 C3607 1.396 . S
C3606 C3611 1.390 . S
C3607 C3601 1.465 . S
C3607 C3606 1.396 . S
C3607 C3608 1.399 . S
C3608 H3594 0.929 . S
C3608 C3607 1.399 . S
C3608 C3609 1.385 . S
C3609 H3595 0.931 . S
C3609 C3608 1.385 . S
C3609 C3610 1.389 . S
C3610 C3609 1.389 . S
C3610 C3611 1.387 . S
C3611 H3596 0.930 . S
C3611 C3606 1.390 . S
C3611 C3610 1.387 . S
H3612 C3624 0.930 . S
H3613 C3626 0.930 . S
H3614 C3627 0.930 . S
H3615 C3631 0.959 . S
H3616 C3631 0.959 . S
H3617 C3631 0.961 . S
H3618 C3632 0.960 . S
H3619 C3632 0.961 . S
H3620 C3632 0.959 . S
H3621 C3635 0.929 1_556 S
H3622 C3636 0.931 . S
H3623 C3638 0.930 . S
C3624 H3612 0.930 . S
C3624 C3625 1.399 . S
C3624 C3629 1.399 . S
C3625 C3624 1.399 . S
C3625 C3626 1.376 . S
C3626 H3613 0.930 . S
C3626 C3625 1.376 . S
C3626 C3627 1.388 . S
C3627 H3614 0.930 . S
C3627 C3626 1.388 . S
C3627 C3628 1.390 . S
C3628 C3627 1.390 . S
C3628 C3629 1.394 . S
C3628 C3634 1.465 1_556 S
C3629 C3624 1.399 . S
C3629 C3628 1.394 . S
C3629 C3630 1.516 1_556 S
C3630 C3629 1.516 1_554 S
C3630 C3631 1.502 . S
C3630 C3632 1.561 . S
C3630 C3633 1.526 . S
C3631 H3615 0.959 . S
C3631 H3616 0.959 . S
C3631 H3617 0.961 . S
C3631 C3630 1.502 . S
C3632 H3618 0.960 . S
C3632 H3619 0.961 . S
C3632 H3620 0.959 . S
C3632 C3630 1.561 . S
C3633 C3630 1.526 . S
C3633 C3634 1.396 . S
C3633 C3638 1.390 . S
C3634 C3628 1.465 1_554 S
C3634 C3633 1.396 . S
C3634 C3635 1.399 . S
C3635 H3621 0.929 1_554 S
C3635 C3634 1.399 . S
C3635 C3636 1.385 . S
C3636 H3622 0.931 . S
C3636 C3635 1.385 . S
C3636 C3637 1.389 . S
C3637 C3636 1.389 . S
C3637 C3638 1.387 . S
C3638 H3623 0.930 . S
C3638 C3633 1.390 . S
C3638 C3637 1.387 . S
H3639 C3651 0.930 . S
H3640 C3653 0.930 . S
H3641 C3654 0.930 . S
H3642 C3658 0.959 . S
H3643 C3658 0.959 . S
H3644 C3658 0.961 . S
H3645 C3659 0.960 . S
H3646 C3659 0.961 . S
H3647 C3659 0.959 . S
H3648 C3662 0.929 . S
H3649 C3663 0.931 . S
H3650 C3665 0.930 . S
C3651 H3639 0.930 . S
C3651 C3652 1.399 . S
C3651 C3656 1.399 . S
C3652 C3651 1.399 . S
C3652 C3653 1.376 . S
C3653 H3640 0.930 . S
C3653 C3652 1.376 . S
C3653 C3654 1.388 . S
C3654 H3641 0.930 . S
C3654 C3653 1.388 . S
C3654 C3655 1.390 . S
C3655 C3654 1.390 . S
C3655 C3656 1.394 . S
C3655 C3661 1.465 . S
C3656 C3651 1.399 . S
C3656 C3655 1.394 . S
C3656 C3657 1.516 . S
C3657 C3656 1.516 . S
C3657 C3658 1.502 . S
C3657 C3659 1.561 . S
C3657 C3660 1.526 . S
C3658 H3642 0.959 . S
C3658 H3643 0.959 . S
C3658 H3644 0.961 . S
C3658 C3657 1.502 . S
C3659 H3645 0.960 . S
C3659 H3646 0.961 . S
C3659 H3647 0.959 . S
C3659 C3657 1.561 . S
C3660 C3657 1.526 . S
C3660 C3661 1.396 . S
C3660 C3665 1.390 . S
C3661 C3655 1.465 . S
C3661 C3660 1.396 . S
C3661 C3662 1.399 . S
C3662 H3648 0.929 . S
C3662 C3661 1.399 . S
C3662 C3663 1.385 . S
C3663 H3649 0.931 . S
C3663 C3662 1.385 . S
C3663 C3664 1.389 . S
C3664 C3663 1.389 . S
C3664 C3665 1.387 . S
C3665 H3650 0.930 . S
C3665 C3660 1.390 . S
C3665 C3664 1.387 . S
H3666 C3678 0.930 . S
H3667 C3680 0.930 . S
H3668 C3681 0.930 . S
H3669 C3685 0.959 . S
H3670 C3685 0.959 . S
H3671 C3685 0.961 . S
H3672 C3686 0.960 . S
H3673 C3686 0.961 . S
H3674 C3686 0.959 . S
H3675 C3689 0.929 . S
H3676 C3690 0.931 . S
H3677 C3692 0.930 . S
C3678 H3666 0.930 . S
C3678 C3679 1.399 . S
C3678 C3683 1.399 . S
C3679 C3678 1.399 . S
C3679 C3680 1.376 . S
C3680 H3667 0.930 . S
C3680 C3679 1.376 . S
C3680 C3681 1.388 . S
C3681 H3668 0.930 . S
C3681 C3680 1.388 . S
C3681 C3682 1.390 . S
C3682 C3681 1.390 . S
C3682 C3683 1.394 . S
C3682 C3688 1.465 . S
C3683 C3678 1.399 . S
C3683 C3682 1.394 . S
C3683 C3684 1.516 . S
C3684 C3683 1.516 . S
C3684 C3685 1.502 . S
C3684 C3686 1.561 . S
C3684 C3687 1.526 . S
C3685 H3669 0.959 . S
C3685 H3670 0.959 . S
C3685 H3671 0.961 . S
C3685 C3684 1.502 . S
C3686 H3672 0.960 . S
C3686 H3673 0.961 . S
C3686 H3674 0.959 . S
C3686 C3684 1.561 . S
C3687 C3684 1.526 . S
C3687 C3688 1.396 . S
C3687 C3692 1.390 . S
C3688 C3682 1.465 . S
C3688 C3687 1.396 . S
C3688 C3689 1.399 . S
C3689 H3675 0.929 . S
C3689 C3688 1.399 . S
C3689 C3690 1.385 . S
C3690 H3676 0.931 . S
C3690 C3689 1.385 . S
C3690 C3691 1.389 . S
C3691 C3690 1.389 . S
C3691 C3692 1.387 . S
C3692 H3677 0.930 . S
C3692 C3687 1.390 . S
C3692 C3691 1.387 . S
H3693 C3705 0.930 . S
H3694 C3707 0.930 . S
H3695 C3708 0.930 . S
H3696 C3712 0.959 . S
H3697 C3712 0.959 . S
H3698 C3712 0.961 . S
H3699 C3713 0.960 . S
H3700 C3713 0.961 . S
H3701 C3713 0.959 . S
H3702 C3716 0.929 . S
H3703 C3717 0.931 . S
H3704 C3719 0.930 . S
C3705 H3693 0.930 . S
C3705 C3706 1.399 . S
C3705 C3710 1.399 . S
C3706 C3705 1.399 . S
C3706 C3707 1.376 . S
C3707 H3694 0.930 . S
C3707 C3706 1.376 . S
C3707 C3708 1.388 . S
C3708 H3695 0.930 . S
C3708 C3707 1.388 . S
C3708 C3709 1.390 . S
C3709 C3708 1.390 . S
C3709 C3710 1.394 . S
C3709 C3715 1.465 . S
C3710 C3705 1.399 . S
C3710 C3709 1.394 . S
C3710 C3711 1.516 . S
C3711 C3710 1.516 . S
C3711 C3712 1.502 . S
C3711 C3713 1.561 . S
C3711 C3714 1.526 . S
C3712 H3696 0.959 . S
C3712 H3697 0.959 . S
C3712 H3698 0.961 . S
C3712 C3711 1.502 . S
C3713 H3699 0.960 . S
C3713 H3700 0.961 . S
C3713 H3701 0.959 . S
C3713 C3711 1.561 . S
C3714 C3711 1.526 . S
C3714 C3715 1.396 . S
C3714 C3719 1.390 . S
C3715 C3709 1.465 . S
C3715 C3714 1.396 . S
C3715 C3716 1.399 . S
C3716 H3702 0.929 . S
C3716 C3715 1.399 . S
C3716 C3717 1.385 . S
C3717 H3703 0.931 . S
C3717 C3716 1.385 . S
C3717 C3718 1.389 . S
C3718 C3717 1.389 . S
C3718 C3719 1.387 . S
C3719 H3704 0.930 . S
C3719 C3714 1.390 . S
C3719 C3718 1.387 . S
H3720 C3732 0.930 . S
H3721 C3734 0.930 . S
H3722 C3735 0.930 . S
H3723 C3739 0.959 1_545 S
H3724 C3739 0.959 . S
H3725 C3739 0.961 1_545 S
H3726 C3740 0.960 . S
H3727 C3740 0.961 . S
H3728 C3740 0.959 . S
H3729 C3743 0.929 . S
H3730 C3744 0.931 . S
H3731 C3746 0.930 . S
C3732 H3720 0.930 . S
C3732 C3733 1.399 . S
C3732 C3737 1.399 . S
C3733 C3732 1.399 . S
C3733 C3734 1.376 . S
C3734 H3721 0.930 . S
C3734 C3733 1.376 . S
C3734 C3735 1.388 . S
C3735 H3722 0.930 . S
C3735 C3734 1.388 . S
C3735 C3736 1.390 . S
C3736 C3735 1.390 . S
C3736 C3737 1.394 . S
C3736 C3742 1.465 1_545 S
C3737 C3732 1.399 . S
C3737 C3736 1.394 . S
C3737 C3738 1.516 1_545 S
C3738 C3737 1.516 1_565 S
C3738 C3739 1.502 . S
C3738 C3740 1.561 . S
C3738 C3741 1.526 . S
C3739 H3723 0.959 1_565 S
C3739 H3724 0.959 . S
C3739 H3725 0.961 1_565 S
C3739 C3738 1.502 . S
C3740 H3726 0.960 . S
C3740 H3727 0.961 . S
C3740 H3728 0.959 . S
C3740 C3738 1.561 . S
C3741 C3738 1.526 . S
C3741 C3742 1.396 . S
C3741 C3746 1.390 . S
C3742 C3736 1.465 1_565 S
C3742 C3741 1.396 . S
C3742 C3743 1.399 . S
C3743 H3729 0.929 . S
C3743 C3742 1.399 . S
C3743 C3744 1.385 . S
C3744 H3730 0.931 . S
C3744 C3743 1.385 . S
C3744 C3745 1.389 . S
C3745 C3744 1.389 . S
C3745 C3746 1.387 . S
C3746 H3731 0.930 . S
C3746 C3741 1.390 . S
C3746 C3745 1.387 . S
H3747 C3759 0.930 . S
H3748 C3761 0.930 . S
H3749 C3762 0.930 . S
H3750 C3766 0.959 . S
H3751 C3766 0.959 . S
H3752 C3766 0.961 . S
H3753 C3767 0.960 . S
H3754 C3767 0.961 . S
H3755 C3767 0.959 . S
H3756 C3770 0.929 . S
H3757 C3771 0.931 . S
H3758 C3773 0.930 . S
C3759 H3747 0.930 . S
C3759 C3760 1.399 . S
C3759 C3764 1.399 . S
C3760 C3759 1.399 . S
C3760 C3761 1.376 . S
C3761 H3748 0.930 . S
C3761 C3760 1.376 . S
C3761 C3762 1.388 . S
C3762 H3749 0.930 . S
C3762 C3761 1.388 . S
C3762 C3763 1.390 . S
C3763 C3762 1.390 . S
C3763 C3764 1.394 . S
C3763 C3769 1.465 . S
C3764 C3759 1.399 . S
C3764 C3763 1.394 . S
C3764 C3765 1.516 . S
C3765 C3764 1.516 . S
C3765 C3766 1.502 . S
C3765 C3767 1.561 . S
C3765 C3768 1.526 . S
C3766 H3750 0.959 . S
C3766 H3751 0.959 . S
C3766 H3752 0.961 . S
C3766 C3765 1.502 . S
C3767 H3753 0.960 . S
C3767 H3754 0.961 . S
C3767 H3755 0.959 . S
C3767 C3765 1.561 . S
C3768 C3765 1.526 . S
C3768 C3769 1.396 . S
C3768 C3773 1.390 . S
C3769 C3763 1.465 . S
C3769 C3768 1.396 . S
C3769 C3770 1.399 . S
C3770 H3756 0.929 . S
C3770 C3769 1.399 . S
C3770 C3771 1.385 . S
C3771 H3757 0.931 . S
C3771 C3770 1.385 . S
C3771 C3772 1.389 . S
C3772 C3771 1.389 . S
C3772 C3773 1.387 . S
C3773 H3758 0.930 . S
C3773 C3768 1.390 . S
C3773 C3772 1.387 . S
H3774 C3786 0.930 . S
H3775 C3788 0.930 . S
H3776 C3789 0.930 . S
H3777 C3793 0.959 . S
H3778 C3793 0.959 . S
H3779 C3793 0.961 . S
H3780 C3794 0.960 . S
H3781 C3794 0.961 . S
H3782 C3794 0.959 . S
H3783 C3797 0.929 . S
H3784 C3798 0.931 . S
H3785 C3800 0.930 . S
C3786 H3774 0.930 . S
C3786 C3787 1.399 . S
C3786 C3791 1.399 . S
C3787 C3786 1.399 . S
C3787 C3788 1.376 . S
C3788 H3775 0.930 . S
C3788 C3787 1.376 . S
C3788 C3789 1.388 . S
C3789 H3776 0.930 . S
C3789 C3788 1.388 . S
C3789 C3790 1.390 . S
C3790 C3789 1.390 . S
C3790 C3791 1.394 . S
C3790 C3796 1.465 . S
C3791 C3786 1.399 . S
C3791 C3790 1.394 . S
C3791 C3792 1.516 . S
C3792 C3791 1.516 . S
C3792 C3793 1.502 . S
C3792 C3794 1.561 . S
C3792 C3795 1.526 . S
C3793 H3777 0.959 . S
C3793 H3778 0.959 . S
C3793 H3779 0.961 . S
C3793 C3792 1.502 . S
C3794 H3780 0.960 . S
C3794 H3781 0.961 . S
C3794 H3782 0.959 . S
C3794 C3792 1.561 . S
C3795 C3792 1.526 . S
C3795 C3796 1.396 . S
C3795 C3800 1.390 . S
C3796 C3790 1.465 . S
C3796 C3795 1.396 . S
C3796 C3797 1.399 . S
C3797 H3783 0.929 . S
C3797 C3796 1.399 . S
C3797 C3798 1.385 . S
C3798 H3784 0.931 . S
C3798 C3797 1.385 . S
C3798 C3799 1.389 . S
C3799 C3798 1.389 . S
C3799 C3800 1.387 . S
C3800 H3785 0.930 . S
C3800 C3795 1.390 . S
C3800 C3799 1.387 . S
H3801 C3813 0.930 . S
H3802 C3815 0.930 . S
H3803 C3816 0.930 . S
H3804 C3820 0.959 . S
H3805 C3820 0.959 . S
H3806 C3820 0.961 . S
H3807 C3821 0.960 . S
H3808 C3821 0.961 . S
H3809 C3821 0.959 . S
H3810 C3824 0.929 . S
H3811 C3825 0.931 . S
H3812 C3827 0.930 . S
C3813 H3801 0.930 . S
C3813 C3814 1.399 . S
C3813 C3818 1.399 . S
C3814 C3813 1.399 . S
C3814 C3815 1.376 . S
C3815 H3802 0.930 . S
C3815 C3814 1.376 . S
C3815 C3816 1.388 . S
C3816 H3803 0.930 . S
C3816 C3815 1.388 . S
C3816 C3817 1.390 . S
C3817 C3816 1.390 . S
C3817 C3818 1.394 . S
C3817 C3823 1.465 . S
C3818 C3813 1.399 . S
C3818 C3817 1.394 . S
C3818 C3819 1.516 . S
C3819 C3818 1.516 . S
C3819 C3820 1.502 . S
C3819 C3821 1.561 . S
C3819 C3822 1.526 . S
C3820 H3804 0.959 . S
C3820 H3805 0.959 . S
C3820 H3806 0.961 . S
C3820 C3819 1.502 . S
C3821 H3807 0.960 . S
C3821 H3808 0.961 . S
C3821 H3809 0.959 . S
C3821 C3819 1.561 . S
C3822 C3819 1.526 . S
C3822 C3823 1.396 . S
C3822 C3827 1.390 . S
C3823 C3817 1.465 . S
C3823 C3822 1.396 . S
C3823 C3824 1.399 . S
C3824 H3810 0.929 . S
C3824 C3823 1.399 . S
C3824 C3825 1.385 . S
C3825 H3811 0.931 . S
C3825 C3824 1.385 . S
C3825 C3826 1.389 . S
C3826 C3825 1.389 . S
C3826 C3827 1.387 . S
C3827 H3812 0.930 . S
C3827 C3822 1.390 . S
C3827 C3826 1.387 . S
H3828 C3840 0.930 . S
H3829 C3842 0.930 . S
H3830 C3843 0.930 . S
H3831 C3847 0.959 . S
H3832 C3847 0.959 . S
H3833 C3847 0.961 . S
H3834 C3848 0.960 . S
H3835 C3848 0.961 . S
H3836 C3848 0.959 . S
H3837 C3851 0.929 . S
H3838 C3852 0.931 . S
H3839 C3854 0.930 . S
C3840 H3828 0.930 . S
C3840 C3841 1.399 . S
C3840 C3845 1.399 . S
C3841 C3840 1.399 . S
C3841 C3842 1.376 . S
C3842 H3829 0.930 . S
C3842 C3841 1.376 . S
C3842 C3843 1.388 . S
C3843 H3830 0.930 . S
C3843 C3842 1.388 . S
C3843 C3844 1.390 . S
C3844 C3843 1.390 . S
C3844 C3845 1.394 . S
C3844 C3850 1.465 . S
C3845 C3840 1.399 . S
C3845 C3844 1.394 . S
C3845 C3846 1.516 . S
C3846 C3845 1.516 . S
C3846 C3847 1.502 . S
C3846 C3848 1.561 . S
C3846 C3849 1.526 . S
C3847 H3831 0.959 . S
C3847 H3832 0.959 . S
C3847 H3833 0.961 . S
C3847 C3846 1.502 . S
C3848 H3834 0.960 . S
C3848 H3835 0.961 . S
C3848 H3836 0.959 . S
C3848 C3846 1.561 . S
C3849 C3846 1.526 . S
C3849 C3850 1.396 . S
C3849 C3854 1.390 . S
C3850 C3844 1.465 . S
C3850 C3849 1.396 . S
C3850 C3851 1.399 . S
C3851 H3837 0.929 . S
C3851 C3850 1.399 . S
C3851 C3852 1.385 . S
C3852 H3838 0.931 . S
C3852 C3851 1.385 . S
C3852 C3853 1.389 . S
C3853 C3852 1.389 . S
C3853 C3854 1.387 . S
C3854 H3839 0.930 . S
C3854 C3849 1.390 . S
C3854 C3853 1.387 . S
H3855 C3867 0.930 . S
H3856 C3869 0.930 . S
H3857 C3870 0.930 . S
H3858 C3874 0.959 . S
H3859 C3874 0.959 . S
H3860 C3874 0.961 . S
H3861 C3875 0.960 . S
H3862 C3875 0.961 . S
H3863 C3875 0.959 . S
H3864 C3878 0.929 . S
H3865 C3879 0.931 . S
H3866 C3881 0.930 . S
C3867 H3855 0.930 . S
C3867 C3868 1.399 . S
C3867 C3872 1.399 . S
C3868 C3867 1.399 . S
C3868 C3869 1.376 . S
C3869 H3856 0.930 . S
C3869 C3868 1.376 . S
C3869 C3870 1.388 . S
C3870 H3857 0.930 . S
C3870 C3869 1.388 . S
C3870 C3871 1.390 . S
C3871 C3870 1.390 . S
C3871 C3872 1.394 . S
C3871 C3877 1.465 . S
C3872 C3867 1.399 . S
C3872 C3871 1.394 . S
C3872 C3873 1.516 . S
C3873 C3872 1.516 . S
C3873 C3874 1.502 . S
C3873 C3875 1.561 . S
C3873 C3876 1.526 . S
C3874 H3858 0.959 . S
C3874 H3859 0.959 . S
C3874 H3860 0.961 . S
C3874 C3873 1.502 . S
C3875 H3861 0.960 . S
C3875 H3862 0.961 . S
C3875 H3863 0.959 . S
C3875 C3873 1.561 . S
C3876 C3873 1.526 . S
C3876 C3877 1.396 . S
C3876 C3881 1.390 . S
C3877 C3871 1.465 . S
C3877 C3876 1.396 . S
C3877 C3878 1.399 . S
C3878 H3864 0.929 . S
C3878 C3877 1.399 . S
C3878 C3879 1.385 . S
C3879 H3865 0.931 . S
C3879 C3878 1.385 . S
C3879 C3880 1.389 . S
C3880 C3879 1.389 . S
C3880 C3881 1.387 . S
C3881 H3866 0.930 . S
C3881 C3876 1.390 . S
C3881 C3880 1.387 . S
H3882 C3894 0.930 . S
H3883 C3896 0.930 . S
H3884 C3897 0.930 . S
H3885 C3901 0.959 . S
H3886 C3901 0.959 . S
H3887 C3901 0.961 . S
H3888 C3902 0.935 1_565 S
H3889 C3902 0.961 . S
H3890 C3902 0.959 . S
H3891 C3905 0.929 . S
H3892 C3906 0.931 . S
H3893 C3908 0.930 . S
C3894 H3882 0.930 . S
C3894 C3895 1.399 . S
C3894 C3899 1.399 . S
C3895 C3894 1.399 . S
C3895 C3896 1.376 . S
C3896 H3883 0.930 . S
C3896 C3895 1.376 . S
C3896 C3897 1.388 . S
C3897 H3884 0.930 . S
C3897 C3896 1.388 . S
C3897 C3898 1.390 . S
C3898 C3897 1.390 . S
C3898 C3899 1.394 . S
C3898 C3904 1.465 1_565 S
C3899 C3894 1.399 . S
C3899 C3898 1.394 . S
C3899 C3900 1.516 . S
C3900 C3899 1.516 . S
C3900 C3901 1.502 . S
C3900 C3902 1.561 1_565 S
C3900 C3903 1.526 1_565 S
C3901 H3885 0.959 . S
C3901 H3886 0.959 . S
C3901 H3887 0.961 . S
C3901 C3900 1.502 . S
C3902 H3888 0.935 1_545 S
C3902 H3889 0.961 . S
C3902 H3890 0.959 . S
C3902 C3900 1.561 1_545 S
C3903 C3900 1.526 1_545 S
C3903 C3904 1.396 . S
C3903 C3908 1.390 . S
C3904 C3898 1.465 1_545 S
C3904 C3903 1.396 . S
C3904 C3905 1.399 . S
C3905 H3891 0.929 . S
C3905 C3904 1.399 . S
C3905 C3906 1.385 . S
C3906 H3892 0.931 . S
C3906 C3905 1.385 . S
C3906 C3907 1.389 . S
C3907 C3906 1.389 . S
C3907 C3908 1.387 . S
C3908 H3893 0.930 . S
C3908 C3903 1.390 . S
C3908 C3907 1.387 . S
H3909 C3921 0.930 . S
H3910 C3923 0.930 . S
H3911 C3924 0.930 . S
H3912 C3928 0.959 . S
H3913 C3928 0.959 . S
H3914 C3928 0.961 . S
H3915 C3929 0.960 . S
H3916 C3929 0.961 . S
H3917 C3929 0.959 . S
H3918 C3932 0.929 . S
H3919 C3933 0.931 . S
H3920 C3935 0.930 . S
C3921 H3909 0.930 . S
C3921 C3922 1.399 . S
C3921 C3926 1.399 . S
C3922 C3921 1.399 . S
C3922 C3923 1.376 . S
C3923 H3910 0.930 . S
C3923 C3922 1.376 . S
C3923 C3924 1.388 . S
C3924 H3911 0.930 . S
C3924 C3923 1.388 . S
C3924 C3925 1.390 . S
C3925 C3924 1.390 . S
C3925 C3926 1.394 . S
C3925 C3931 1.465 . S
C3926 C3921 1.399 . S
C3926 C3925 1.394 . S
C3926 C3927 1.516 . S
C3927 C3926 1.516 . S
C3927 C3928 1.502 . S
C3927 C3929 1.561 . S
C3927 C3930 1.526 . S
C3928 H3912 0.959 . S
C3928 H3913 0.959 . S
C3928 H3914 0.961 . S
C3928 C3927 1.502 . S
C3929 H3915 0.960 . S
C3929 H3916 0.961 . S
C3929 H3917 0.959 . S
C3929 C3927 1.561 . S
C3930 C3927 1.526 . S
C3930 C3931 1.396 . S
C3930 C3935 1.390 . S
C3931 C3925 1.465 . S
C3931 C3930 1.396 . S
C3931 C3932 1.399 . S
C3932 H3918 0.929 . S
C3932 C3931 1.399 . S
C3932 C3933 1.385 . S
C3933 H3919 0.931 . S
C3933 C3932 1.385 . S
C3933 C3934 1.389 . S
C3934 C3933 1.389 . S
C3934 C3935 1.387 . S
C3935 H3920 0.930 . S
C3935 C3930 1.390 . S
C3935 C3934 1.387 . S
H3936 C3948 0.930 . S
H3937 C3950 0.930 . S
H3938 C3951 0.930 . S
H3939 C3955 0.959 . S
H3940 C3955 0.959 . S
H3941 C3955 0.961 . S
H3942 C3956 0.960 . S
H3943 C3956 0.961 . S
H3944 C3956 0.959 . S
H3945 C3959 0.929 . S
H3946 C3960 0.931 . S
H3947 C3962 0.930 . S
C3948 H3936 0.930 . S
C3948 C3949 1.399 . S
C3948 C3953 1.399 . S
C3949 C3948 1.399 . S
C3949 C3950 1.376 . S
C3950 H3937 0.930 . S
C3950 C3949 1.376 . S
C3950 C3951 1.388 . S
C3951 H3938 0.930 . S
C3951 C3950 1.388 . S
C3951 C3952 1.390 . S
C3952 C3951 1.390 . S
C3952 C3953 1.394 . S
C3952 C3958 1.465 . S
C3953 C3948 1.399 . S
C3953 C3952 1.394 . S
C3953 C3954 1.516 . S
C3954 C3953 1.516 . S
C3954 C3955 1.502 . S
C3954 C3956 1.561 . S
C3954 C3957 1.526 . S
C3955 H3939 0.959 . S
C3955 H3940 0.959 . S
C3955 H3941 0.961 . S
C3955 C3954 1.502 . S
C3956 H3942 0.960 . S
C3956 H3943 0.961 . S
C3956 H3944 0.959 . S
C3956 C3954 1.561 . S
C3957 C3954 1.526 . S
C3957 C3958 1.396 . S
C3957 C3962 1.390 . S
C3958 C3952 1.465 . S
C3958 C3957 1.396 . S
C3958 C3959 1.399 . S
C3959 H3945 0.929 . S
C3959 C3958 1.399 . S
C3959 C3960 1.385 . S
C3960 H3946 0.931 . S
C3960 C3959 1.385 . S
C3960 C3961 1.389 . S
C3961 C3960 1.389 . S
C3961 C3962 1.387 . S
C3962 H3947 0.930 . S
C3962 C3957 1.390 . S
C3962 C3961 1.387 . S
H3963 C3975 0.930 . S
H3964 C3977 0.930 . S
H3965 C3978 0.930 . S
H3966 C3982 0.959 . S
H3967 C3982 0.959 . S
H3968 C3982 0.961 . S
H3969 C3983 0.960 . S
H3970 C3983 0.961 . S
H3971 C3983 0.959 . S
H3972 C3986 0.929 . S
H3973 C3987 0.931 . S
H3974 C3989 0.930 . S
C3975 H3963 0.930 . S
C3975 C3976 1.399 . S
C3975 C3980 1.399 . S
C3976 C3975 1.399 . S
C3976 C3977 1.376 . S
C3977 H3964 0.930 . S
C3977 C3976 1.376 . S
C3977 C3978 1.388 . S
C3978 H3965 0.930 . S
C3978 C3977 1.388 . S
C3978 C3979 1.390 . S
C3979 C3978 1.390 . S
C3979 C3980 1.394 . S
C3979 C3985 1.465 . S
C3980 C3975 1.399 . S
C3980 C3979 1.394 . S
C3980 C3981 1.516 . S
C3981 C3980 1.516 . S
C3981 C3982 1.502 . S
C3981 C3983 1.561 . S
C3981 C3984 1.526 . S
C3982 H3966 0.959 . S
C3982 H3967 0.959 . S
C3982 H3968 0.961 . S
C3982 C3981 1.502 . S
C3983 H3969 0.960 . S
C3983 H3970 0.961 . S
C3983 H3971 0.959 . S
C3983 C3981 1.561 . S
C3984 C3981 1.526 . S
C3984 C3985 1.396 . S
C3984 C3989 1.390 . S
C3985 C3979 1.465 . S
C3985 C3984 1.396 . S
C3985 C3986 1.399 . S
C3986 H3972 0.929 . S
C3986 C3985 1.399 . S
C3986 C3987 1.385 . S
C3987 H3973 0.931 . S
C3987 C3986 1.385 . S
C3987 C3988 1.389 . S
C3988 C3987 1.389 . S
C3988 C3989 1.387 . S
C3989 H3974 0.930 . S
C3989 C3984 1.390 . S
C3989 C3988 1.387 . S
H3990 C4002 0.930 . S
H3991 C4004 0.930 . S
H3992 C4005 0.930 . S
H3993 C4009 0.959 . S
H3994 C4009 0.959 . S
H3995 C4009 0.961 . S
H3996 C4010 0.960 . S
H3997 C4010 0.961 . S
H3998 C4010 0.959 . S
H3999 C4013 0.929 . S
H4000 C4014 0.931 . S
H4001 C4016 0.930 . S
C4002 H3990 0.930 . S
C4002 C4003 1.399 . S
C4002 C4007 1.399 . S
C4003 C4002 1.399 . S
C4003 C4004 1.376 . S
C4004 H3991 0.930 . S
C4004 C4003 1.376 . S
C4004 C4005 1.388 . S
C4005 H3992 0.930 . S
C4005 C4004 1.388 . S
C4005 C4006 1.390 . S
C4006 C4005 1.390 . S
C4006 C4007 1.394 . S
C4006 C4012 1.465 . S
C4007 C4002 1.399 . S
C4007 C4006 1.394 . S
C4007 C4008 1.516 . S
C4008 C4007 1.516 . S
C4008 C4009 1.502 . S
C4008 C4010 1.561 . S
C4008 C4011 1.526 . S
C4009 H3993 0.959 . S
C4009 H3994 0.959 . S
C4009 H3995 0.961 . S
C4009 C4008 1.502 . S
C4010 H3996 0.960 . S
C4010 H3997 0.961 . S
C4010 H3998 0.959 . S
C4010 C4008 1.561 . S
C4011 C4008 1.526 . S
C4011 C4012 1.396 . S
C4011 C4016 1.390 . S
C4012 C4006 1.465 . S
C4012 C4011 1.396 . S
C4012 C4013 1.399 . S
C4013 H3999 0.929 . S
C4013 C4012 1.399 . S
C4013 C4014 1.385 . S
C4014 H4000 0.931 . S
C4014 C4013 1.385 . S
C4014 C4015 1.389 . S
C4015 C4014 1.389 . S
C4015 C4016 1.387 . S
C4016 H4001 0.930 . S
C4016 C4011 1.390 . S
C4016 C4015 1.387 . S
H4017 C4029 0.930 . S
H4018 C4031 0.930 . S
H4019 C4032 0.930 . S
H4020 C4036 0.959 . S
H4021 C4036 0.959 . S
H4022 C4036 0.961 . S
H4023 C4037 0.960 . S
H4024 C4037 0.961 . S
H4025 C4037 0.959 . S
H4026 C4040 0.929 . S
H4027 C4041 0.931 . S
H4028 C4043 0.930 . S
C4029 H4017 0.930 . S
C4029 C4030 1.399 . S
C4029 C4034 1.399 . S
C4030 C4029 1.399 . S
C4030 C4031 1.376 . S
C4031 H4018 0.930 . S
C4031 C4030 1.376 . S
C4031 C4032 1.388 . S
C4032 H4019 0.930 . S
C4032 C4031 1.388 . S
C4032 C4033 1.390 . S
C4033 C4032 1.390 . S
C4033 C4034 1.394 . S
C4033 C4039 1.465 . S
C4034 C4029 1.399 . S
C4034 C4033 1.394 . S
C4034 C4035 1.516 . S
C4035 C4034 1.516 . S
C4035 C4036 1.502 . S
C4035 C4037 1.561 . S
C4035 C4038 1.526 . S
C4036 H4020 0.959 . S
C4036 H4021 0.959 . S
C4036 H4022 0.961 . S
C4036 C4035 1.502 . S
C4037 H4023 0.960 . S
C4037 H4024 0.961 . S
C4037 H4025 0.959 . S
C4037 C4035 1.561 . S
C4038 C4035 1.526 . S
C4038 C4039 1.396 . S
C4038 C4043 1.390 . S
C4039 C4033 1.465 . S
C4039 C4038 1.396 . S
C4039 C4040 1.399 . S
C4040 H4026 0.929 . S
C4040 C4039 1.399 . S
C4040 C4041 1.385 . S
C4041 H4027 0.931 . S
C4041 C4040 1.385 . S
C4041 C4042 1.389 . S
C4042 C4041 1.389 . S
C4042 C4043 1.387 . S
C4043 H4028 0.930 . S
C4043 C4038 1.390 . S
C4043 C4042 1.387 . S
H4044 C4056 0.930 . S
H4045 C4058 0.930 . S
H4046 C4059 0.930 . S
H4047 C4063 0.959 . S
H4048 C4063 0.959 . S
H4049 C4063 0.961 . S
H4050 C4064 0.960 . S
H4051 C4064 0.961 . S
H4052 C4064 0.959 . S
H4053 C4067 0.929 . S
H4054 C4068 0.931 . S
H4055 C4070 0.930 . S
C4056 H4044 0.930 . S
C4056 C4057 1.399 . S
C4056 C4061 1.399 . S
C4057 C4056 1.399 . S
C4057 C4058 1.376 . S
C4058 H4045 0.930 . S
C4058 C4057 1.376 . S
C4058 C4059 1.388 . S
C4059 H4046 0.930 . S
C4059 C4058 1.388 . S
C4059 C4060 1.390 . S
C4060 C4059 1.390 . S
C4060 C4061 1.394 . S
C4060 C4066 1.465 . S
C4061 C4056 1.399 . S
C4061 C4060 1.394 . S
C4061 C4062 1.516 . S
C4062 C4061 1.516 . S
C4062 C4063 1.502 . S
C4062 C4064 1.561 . S
C4062 C4065 1.526 . S
C4063 H4047 0.959 . S
C4063 H4048 0.959 . S
C4063 H4049 0.961 . S
C4063 C4062 1.502 . S
C4064 H4050 0.960 . S
C4064 H4051 0.961 . S
C4064 H4052 0.959 . S
C4064 C4062 1.561 . S
C4065 C4062 1.526 . S
C4065 C4066 1.396 . S
C4065 C4070 1.390 . S
C4066 C4060 1.465 . S
C4066 C4065 1.396 . S
C4066 C4067 1.399 . S
C4067 H4053 0.929 . S
C4067 C4066 1.399 . S
C4067 C4068 1.385 . S
C4068 H4054 0.931 . S
C4068 C4067 1.385 . S
C4068 C4069 1.389 . S
C4069 C4068 1.389 . S
C4069 C4070 1.387 . S
C4070 H4055 0.930 . S
C4070 C4065 1.390 . S
C4070 C4069 1.387 . S
H4071 C4083 0.930 . S
H4072 C4085 0.930 . S
H4073 C4086 0.930 . S
H4074 C4090 0.959 . S
H4075 C4090 0.959 . S
H4076 C4090 0.961 . S
H4077 C4091 0.960 . S
H4078 C4091 0.961 . S
H4079 C4091 0.959 . S
H4080 C4094 0.929 . S
H4081 C4095 0.931 . S
H4082 C4097 0.930 . S
C4083 H4071 0.930 . S
C4083 C4084 1.399 . S
C4083 C4088 1.399 . S
C4084 C4083 1.399 . S
C4084 C4085 1.376 . S
C4085 H4072 0.930 . S
C4085 C4084 1.376 . S
C4085 C4086 1.388 . S
C4086 H4073 0.930 . S
C4086 C4085 1.388 . S
C4086 C4087 1.390 . S
C4087 C4086 1.390 . S
C4087 C4088 1.394 . S
C4087 C4093 1.465 . S
C4088 C4083 1.399 . S
C4088 C4087 1.394 . S
C4088 C4089 1.516 . S
C4089 C4088 1.516 . S
C4089 C4090 1.502 . S
C4089 C4091 1.561 . S
C4089 C4092 1.526 . S
C4090 H4074 0.959 . S
C4090 H4075 0.959 . S
C4090 H4076 0.961 . S
C4090 C4089 1.502 . S
C4091 H4077 0.960 . S
C4091 H4078 0.961 . S
C4091 H4079 0.959 . S
C4091 C4089 1.561 . S
C4092 C4089 1.526 . S
C4092 C4093 1.396 . S
C4092 C4097 1.390 . S
C4093 C4087 1.465 . S
C4093 C4092 1.396 . S
C4093 C4094 1.399 . S
C4094 H4080 0.929 . S
C4094 C4093 1.399 . S
C4094 C4095 1.385 . S
C4095 H4081 0.931 . S
C4095 C4094 1.385 . S
C4095 C4096 1.389 . S
C4096 C4095 1.389 . S
C4096 C4097 1.387 . S
C4097 H4082 0.930 . S
C4097 C4092 1.390 . S
C4097 C4096 1.387 . S
H4098 C4110 0.930 . S
H4099 C4112 0.930 . S
H4100 C4113 0.930 . S
H4101 C4117 0.959 . S
H4102 C4117 0.959 . S
H4103 C4117 0.961 . S
H4104 C4118 0.960 . S
H4105 C4118 0.961 . S
H4106 C4118 0.959 . S
H4107 C4121 0.929 . S
H4108 C4122 0.931 . S
H4109 C4124 0.930 . S
C4110 H4098 0.930 . S
C4110 C4111 1.399 . S
C4110 C4115 1.399 . S
C4111 C4110 1.399 . S
C4111 C4112 1.376 . S
C4112 H4099 0.930 . S
C4112 C4111 1.376 . S
C4112 C4113 1.388 . S
C4113 H4100 0.930 . S
C4113 C4112 1.388 . S
C4113 C4114 1.390 . S
C4114 C4113 1.390 . S
C4114 C4115 1.394 . S
C4114 C4120 1.465 . S
C4115 C4110 1.399 . S
C4115 C4114 1.394 . S
C4115 C4116 1.516 . S
C4116 C4115 1.516 . S
C4116 C4117 1.502 . S
C4116 C4118 1.561 . S
C4116 C4119 1.526 . S
C4117 H4101 0.959 . S
C4117 H4102 0.959 . S
C4117 H4103 0.961 . S
C4117 C4116 1.502 . S
C4118 H4104 0.960 . S
C4118 H4105 0.961 . S
C4118 H4106 0.959 . S
C4118 C4116 1.561 . S
C4119 C4116 1.526 . S
C4119 C4120 1.396 . S
C4119 C4124 1.390 . S
C4120 C4114 1.465 . S
C4120 C4119 1.396 . S
C4120 C4121 1.399 . S
C4121 H4107 0.929 . S
C4121 C4120 1.399 . S
C4121 C4122 1.385 . S
C4122 H4108 0.931 . S
C4122 C4121 1.385 . S
C4122 C4123 1.389 . S
C4123 C4122 1.389 . S
C4123 C4124 1.387 . S
C4124 H4109 0.930 . S
C4124 C4119 1.390 . S
C4124 C4123 1.387 . S
H4125 C4137 0.930 . S
H4126 C4139 0.930 . S
H4127 C4140 0.930 . S
H4128 C4144 0.959 . S
H4129 C4144 0.959 . S
H4130 C4144 0.961 . S
H4131 C4145 0.960 . S
H4132 C4145 0.961 . S
H4133 C4145 0.959 . S
H4134 C4148 0.929 . S
H4135 C4149 0.931 . S
H4136 C4151 0.930 . S
C4137 H4125 0.930 . S
C4137 C4138 1.399 . S
C4137 C4142 1.399 . S
C4138 C4137 1.399 . S
C4138 C4139 1.376 . S
C4139 H4126 0.930 . S
C4139 C4138 1.376 . S
C4139 C4140 1.388 . S
C4140 H4127 0.930 . S
C4140 C4139 1.388 . S
C4140 C4141 1.390 . S
C4141 C4140 1.390 . S
C4141 C4142 1.394 . S
C4141 C4147 1.465 . S
C4142 C4137 1.399 . S
C4142 C4141 1.394 . S
C4142 C4143 1.516 . S
C4143 C4142 1.516 . S
C4143 C4144 1.502 . S
C4143 C4145 1.561 . S
C4143 C4146 1.526 . S
C4144 H4128 0.959 . S
C4144 H4129 0.959 . S
C4144 H4130 0.961 . S
C4144 C4143 1.502 . S
C4145 H4131 0.960 . S
C4145 H4132 0.961 . S
C4145 H4133 0.959 . S
C4145 C4143 1.561 . S
C4146 C4143 1.526 . S
C4146 C4147 1.396 . S
C4146 C4151 1.390 . S
C4147 C4141 1.465 . S
C4147 C4146 1.396 . S
C4147 C4148 1.399 . S
C4148 H4134 0.929 . S
C4148 C4147 1.399 . S
C4148 C4149 1.385 . S
C4149 H4135 0.931 . S
C4149 C4148 1.385 . S
C4149 C4150 1.389 . S
C4150 C4149 1.389 . S
C4150 C4151 1.387 . S
C4151 H4136 0.930 . S
C4151 C4146 1.390 . S
C4151 C4150 1.387 . S
H4152 C4164 0.930 . S
H4153 C4166 0.930 . S
H4154 C4167 0.930 . S
H4155 C4171 0.959 . S
H4156 C4171 0.959 . S
H4157 C4171 0.961 . S
H4158 C4172 0.960 . S
H4159 C4172 0.961 . S
H4160 C4172 0.959 . S
H4161 C4175 0.929 . S
H4162 C4176 0.931 . S
H4163 C4178 0.930 . S
C4164 H4152 0.930 . S
C4164 C4165 1.399 . S
C4164 C4169 1.399 . S
C4165 C4164 1.399 . S
C4165 C4166 1.376 . S
C4166 H4153 0.930 . S
C4166 C4165 1.376 . S
C4166 C4167 1.388 . S
C4167 H4154 0.930 . S
C4167 C4166 1.388 . S
C4167 C4168 1.390 . S
C4168 C4167 1.390 . S
C4168 C4169 1.394 . S
C4168 C4174 1.465 . S
C4169 C4164 1.399 . S
C4169 C4168 1.394 . S
C4169 C4170 1.516 . S
C4170 C4169 1.516 . S
C4170 C4171 1.502 . S
C4170 C4172 1.561 . S
C4170 C4173 1.526 . S
C4171 H4155 0.959 . S
C4171 H4156 0.959 . S
C4171 H4157 0.961 . S
C4171 C4170 1.502 . S
C4172 H4158 0.960 . S
C4172 H4159 0.961 . S
C4172 H4160 0.959 . S
C4172 C4170 1.561 . S
C4173 C4170 1.526 . S
C4173 C4174 1.396 . S
C4173 C4178 1.390 . S
C4174 C4168 1.465 . S
C4174 C4173 1.396 . S
C4174 C4175 1.399 . S
C4175 H4161 0.929 . S
C4175 C4174 1.399 . S
C4175 C4176 1.385 . S
C4176 H4162 0.931 . S
C4176 C4175 1.385 . S
C4176 C4177 1.389 . S
C4177 C4176 1.389 . S
C4177 C4178 1.387 . S
C4178 H4163 0.930 . S
C4178 C4173 1.390 . S
C4178 C4177 1.387 . S
H4179 C4191 0.930 . S
H4180 C4193 0.930 . S
H4181 C4194 0.930 . S
H4182 C4198 0.959 . S
H4183 C4198 0.959 . S
H4184 C4198 0.961 . S
H4185 C4199 0.960 . S
H4186 C4199 0.961 . S
H4187 C4199 0.959 . S
H4188 C4202 0.929 . S
H4189 C4203 0.931 . S
H4190 C4205 0.930 . S
C4191 H4179 0.930 . S
C4191 C4192 1.399 . S
C4191 C4196 1.399 . S
C4192 C4191 1.399 . S
C4192 C4193 1.376 . S
C4193 H4180 0.930 . S
C4193 C4192 1.376 . S
C4193 C4194 1.388 . S
C4194 H4181 0.930 . S
C4194 C4193 1.388 . S
C4194 C4195 1.390 . S
C4195 C4194 1.390 . S
C4195 C4196 1.394 . S
C4195 C4201 1.465 . S
C4196 C4191 1.399 . S
C4196 C4195 1.394 . S
C4196 C4197 1.516 . S
C4197 C4196 1.516 . S
C4197 C4198 1.502 . S
C4197 C4199 1.561 . S
C4197 C4200 1.526 . S
C4198 H4182 0.959 . S
C4198 H4183 0.959 . S
C4198 H4184 0.961 . S
C4198 C4197 1.502 . S
C4199 H4185 0.960 . S
C4199 H4186 0.961 . S
C4199 H4187 0.959 . S
C4199 C4197 1.561 . S
C4200 C4197 1.526 . S
C4200 C4201 1.396 . S
C4200 C4205 1.390 . S
C4201 C4195 1.465 . S
C4201 C4200 1.396 . S
C4201 C4202 1.399 . S
C4202 H4188 0.929 . S
C4202 C4201 1.399 . S
C4202 C4203 1.385 . S
C4203 H4189 0.931 . S
C4203 C4202 1.385 . S
C4203 C4204 1.389 . S
C4204 C4203 1.389 . S
C4204 C4205 1.387 . S
C4205 H4190 0.930 . S
C4205 C4200 1.390 . S
C4205 C4204 1.387 . S
H4206 C4218 0.930 . S
H4207 C4220 0.930 . S
H4208 C4221 0.930 . S
H4209 C4225 0.959 . S
H4210 C4225 0.959 . S
H4211 C4225 0.961 . S
H4212 C4226 0.960 . S
H4213 C4226 0.961 . S
H4214 C4226 0.959 . S
H4215 C4229 0.929 . S
H4216 C4230 0.931 . S
H4217 C4232 0.930 . S
C4218 H4206 0.930 . S
C4218 C4219 1.399 . S
C4218 C4223 1.399 . S
C4219 C4218 1.399 . S
C4219 C4220 1.376 . S
C4220 H4207 0.930 . S
C4220 C4219 1.376 . S
C4220 C4221 1.388 . S
C4221 H4208 0.930 . S
C4221 C4220 1.388 . S
C4221 C4222 1.390 . S
C4222 C4221 1.390 . S
C4222 C4223 1.394 . S
C4222 C4228 1.465 . S
C4223 C4218 1.399 . S
C4223 C4222 1.394 . S
C4223 C4224 1.516 . S
C4224 C4223 1.516 . S
C4224 C4225 1.502 . S
C4224 C4226 1.561 . S
C4224 C4227 1.526 . S
C4225 H4209 0.959 . S
C4225 H4210 0.959 . S
C4225 H4211 0.961 . S
C4225 C4224 1.502 . S
C4226 H4212 0.960 . S
C4226 H4213 0.961 . S
C4226 H4214 0.959 . S
C4226 C4224 1.561 . S
C4227 C4224 1.526 . S
C4227 C4228 1.396 . S
C4227 C4232 1.390 . S
C4228 C4222 1.465 . S
C4228 C4227 1.396 . S
C4228 C4229 1.399 . S
C4229 H4215 0.929 . S
C4229 C4228 1.399 . S
C4229 C4230 1.385 . S
C4230 H4216 0.931 . S
C4230 C4229 1.385 . S
C4230 C4231 1.389 . S
C4231 C4230 1.389 . S
C4231 C4232 1.387 . S
C4232 H4217 0.930 . S
C4232 C4227 1.390 . S
C4232 C4231 1.387 . S
H4233 C4245 0.930 . S
H4234 C4247 0.930 . S
H4235 C4248 0.930 . S
H4236 C4252 0.959 . S
H4237 C4252 0.959 . S
H4238 C4252 0.961 . S
H4239 C4253 0.960 . S
H4240 C4253 0.961 . S
H4241 C4253 0.959 . S
H4242 C4256 0.929 . S
H4243 C4257 0.931 . S
H4244 C4259 0.930 . S
C4245 H4233 0.930 . S
C4245 C4246 1.399 . S
C4245 C4250 1.399 . S
C4246 C4245 1.399 . S
C4246 C4247 1.376 . S
C4247 H4234 0.930 . S
C4247 C4246 1.376 . S
C4247 C4248 1.388 . S
C4248 H4235 0.930 . S
C4248 C4247 1.388 . S
C4248 C4249 1.390 . S
C4249 C4248 1.390 . S
C4249 C4250 1.394 . S
C4249 C4255 1.465 . S
C4250 C4245 1.399 . S
C4250 C4249 1.394 . S
C4250 C4251 1.516 . S
C4251 C4250 1.516 . S
C4251 C4252 1.502 . S
C4251 C4253 1.561 . S
C4251 C4254 1.526 . S
C4252 H4236 0.959 . S
C4252 H4237 0.959 . S
C4252 H4238 0.961 . S
C4252 C4251 1.502 . S
C4253 H4239 0.960 . S
C4253 H4240 0.961 . S
C4253 H4241 0.959 . S
C4253 C4251 1.561 . S
C4254 C4251 1.526 . S
C4254 C4255 1.396 . S
C4254 C4259 1.390 . S
C4255 C4249 1.465 . S
C4255 C4254 1.396 . S
C4255 C4256 1.399 . S
C4256 H4242 0.929 . S
C4256 C4255 1.399 . S
C4256 C4257 1.385 . S
C4257 H4243 0.931 . S
C4257 C4256 1.385 . S
C4257 C4258 1.389 . S
C4258 C4257 1.389 . S
C4258 C4259 1.387 . S
C4259 H4244 0.930 . S
C4259 C4254 1.390 . S
C4259 C4258 1.387 . S
H4260 C4272 0.930 . S
H4261 C4274 0.930 . S
H4262 C4275 0.930 . S
H4263 C4279 0.959 . S
H4264 C4279 0.959 . S
H4265 C4279 0.961 . S
H4266 C4280 0.960 . S
H4267 C4280 0.961 . S
H4268 C4280 0.959 . S
H4269 C4283 0.929 . S
H4270 C4284 0.931 . S
H4271 C4286 0.930 . S
C4272 H4260 0.930 . S
C4272 C4273 1.399 . S
C4272 C4277 1.399 . S
C4273 C4272 1.399 . S
C4273 C4274 1.376 . S
C4274 H4261 0.930 . S
C4274 C4273 1.376 . S
C4274 C4275 1.388 . S
C4275 H4262 0.930 . S
C4275 C4274 1.388 . S
C4275 C4276 1.390 . S
C4276 C4275 1.390 . S
C4276 C4277 1.394 . S
C4276 C4282 1.465 . S
C4277 C4272 1.399 . S
C4277 C4276 1.394 . S
C4277 C4278 1.516 . S
C4278 C4277 1.516 . S
C4278 C4279 1.502 . S
C4278 C4280 1.561 . S
C4278 C4281 1.526 . S
C4279 H4263 0.959 . S
C4279 H4264 0.959 . S
C4279 H4265 0.961 . S
C4279 C4278 1.502 . S
C4280 H4266 0.960 . S
C4280 H4267 0.961 . S
C4280 H4268 0.959 . S
C4280 C4278 1.561 . S
C4281 C4278 1.526 . S
C4281 C4282 1.396 . S
C4281 C4286 1.390 . S
C4282 C4276 1.465 . S
C4282 C4281 1.396 . S
C4282 C4283 1.399 . S
C4283 H4269 0.929 . S
C4283 C4282 1.399 . S
C4283 C4284 1.385 . S
C4284 H4270 0.931 . S
C4284 C4283 1.385 . S
C4284 C4285 1.389 . S
C4285 C4284 1.389 . S
C4285 C4286 1.387 . S
C4286 H4271 0.930 . S
C4286 C4281 1.390 . S
C4286 C4285 1.387 . S
H4287 C4299 0.930 . S
H4288 C4301 0.930 . S
H4289 C4302 0.930 . S
H4290 C4306 0.959 . S
H4291 C4306 0.959 . S
H4292 C4306 0.961 . S
H4293 C4307 0.960 . S
H4294 C4307 0.961 . S
H4295 C4307 0.959 . S
H4296 C4310 0.929 . S
H4297 C4311 0.931 . S
H4298 C4313 0.930 . S
C4299 H4287 0.930 . S
C4299 C4300 1.399 . S
C4299 C4304 1.399 . S
C4300 C4299 1.399 . S
C4300 C4301 1.376 . S
C4301 H4288 0.930 . S
C4301 C4300 1.376 . S
C4301 C4302 1.388 . S
C4302 H4289 0.930 . S
C4302 C4301 1.388 . S
C4302 C4303 1.390 . S
C4303 C4302 1.390 . S
C4303 C4304 1.394 . S
C4303 C4309 1.465 . S
C4304 C4299 1.399 . S
C4304 C4303 1.394 . S
C4304 C4305 1.516 . S
C4305 C4304 1.516 . S
C4305 C4306 1.502 . S
C4305 C4307 1.561 . S
C4305 C4308 1.526 . S
C4306 H4290 0.959 . S
C4306 H4291 0.959 . S
C4306 H4292 0.961 . S
C4306 C4305 1.502 . S
C4307 H4293 0.960 . S
C4307 H4294 0.961 . S
C4307 H4295 0.959 . S
C4307 C4305 1.561 . S
C4308 C4305 1.526 . S
C4308 C4309 1.396 . S
C4308 C4313 1.390 . S
C4309 C4303 1.465 . S
C4309 C4308 1.396 . S
C4309 C4310 1.399 . S
C4310 H4296 0.929 . S
C4310 C4309 1.399 . S
C4310 C4311 1.385 . S
C4311 H4297 0.931 . S
C4311 C4310 1.385 . S
C4311 C4312 1.389 . S
C4312 C4311 1.389 . S
C4312 C4313 1.387 . S
C4313 H4298 0.930 . S
C4313 C4308 1.390 . S
C4313 C4312 1.387 . S
H4314 C4326 0.930 . S
H4315 C4328 0.930 . S
H4316 C4329 0.930 . S
H4317 C4333 0.959 . S
H4318 C4333 0.959 . S
H4319 C4333 0.961 . S
H4320 C4334 0.960 . S
H4321 C4334 0.961 . S
H4322 C4334 0.959 . S
H4323 C4337 0.929 . S
H4324 C4338 0.931 . S
H4325 C4340 0.930 . S
C4326 H4314 0.930 . S
C4326 C4327 1.399 . S
C4326 C4331 1.399 . S
C4327 C4326 1.399 . S
C4327 C4328 1.376 . S
C4328 H4315 0.930 . S
C4328 C4327 1.376 . S
C4328 C4329 1.388 . S
C4329 H4316 0.930 . S
C4329 C4328 1.388 . S
C4329 C4330 1.390 . S
C4330 C4329 1.390 . S
C4330 C4331 1.394 . S
C4330 C4336 1.465 . S
C4331 C4326 1.399 . S
C4331 C4330 1.394 . S
C4331 C4332 1.516 . S
C4332 C4331 1.516 . S
C4332 C4333 1.502 . S
C4332 C4334 1.561 . S
C4332 C4335 1.526 . S
C4333 H4317 0.959 . S
C4333 H4318 0.959 . S
C4333 H4319 0.961 . S
C4333 C4332 1.502 . S
C4334 H4320 0.960 . S
C4334 H4321 0.961 . S
C4334 H4322 0.959 . S
C4334 C4332 1.561 . S
C4335 C4332 1.526 . S
C4335 C4336 1.396 . S
C4335 C4340 1.390 . S
C4336 C4330 1.465 . S
C4336 C4335 1.396 . S
C4336 C4337 1.399 . S
C4337 H4323 0.929 . S
C4337 C4336 1.399 . S
C4337 C4338 1.385 . S
C4338 H4324 0.931 . S
C4338 C4337 1.385 . S
C4338 C4339 1.389 . S
C4339 C4338 1.389 . S
C4339 C4340 1.387 . S
C4340 H4325 0.930 . S
C4340 C4335 1.390 . S
C4340 C4339 1.387 . S
H4341 C4353 0.930 . S
H4342 C4355 0.930 . S
H4343 C4356 0.930 . S
H4344 C4360 0.959 . S
H4345 C4360 0.959 . S
H4346 C4360 0.961 . S
H4347 C4361 0.960 . S
H4348 C4361 0.961 . S
H4349 C4361 0.959 . S
H4350 C4364 0.929 . S
H4351 C4365 0.931 . S
H4352 C4367 0.930 . S
C4353 H4341 0.930 . S
C4353 C4354 1.399 . S
C4353 C4358 1.399 . S
C4354 C4353 1.399 . S
C4354 C4355 1.376 . S
C4355 H4342 0.930 . S
C4355 C4354 1.376 . S
C4355 C4356 1.388 . S
C4356 H4343 0.930 . S
C4356 C4355 1.388 . S
C4356 C4357 1.390 . S
C4357 C4356 1.390 . S
C4357 C4358 1.394 . S
C4357 C4363 1.465 . S
C4358 C4353 1.399 . S
C4358 C4357 1.394 . S
C4358 C4359 1.516 . S
C4359 C4358 1.516 . S
C4359 C4360 1.502 . S
C4359 C4361 1.561 . S
C4359 C4362 1.526 . S
C4360 H4344 0.959 . S
C4360 H4345 0.959 . S
C4360 H4346 0.961 . S
C4360 C4359 1.502 . S
C4361 H4347 0.960 . S
C4361 H4348 0.961 . S
C4361 H4349 0.959 . S
C4361 C4359 1.561 . S
C4362 C4359 1.526 . S
C4362 C4363 1.396 . S
C4362 C4367 1.390 . S
C4363 C4357 1.465 . S
C4363 C4362 1.396 . S
C4363 C4364 1.399 . S
C4364 H4350 0.929 . S
C4364 C4363 1.399 . S
C4364 C4365 1.385 . S
C4365 H4351 0.931 . S
C4365 C4364 1.385 . S
C4365 C4366 1.389 . S
C4366 C4365 1.389 . S
C4366 C4367 1.387 . S
C4367 H4352 0.930 . S
C4367 C4362 1.390 . S
C4367 C4366 1.387 . S
H4368 C4380 0.930 . S
H4369 C4382 0.930 . S
H4370 C4383 0.930 . S
H4371 C4387 0.959 . S
H4372 C4387 0.959 . S
H4373 C4387 0.961 . S
H4374 C4388 0.960 . S
H4375 C4388 0.961 . S
H4376 C4388 0.959 . S
H4377 C4391 0.929 . S
H4378 C4392 0.931 . S
H4379 C4394 0.930 . S
C4380 H4368 0.930 . S
C4380 C4381 1.399 . S
C4380 C4385 1.399 . S
C4381 C4380 1.399 . S
C4381 C4382 1.376 . S
C4382 H4369 0.930 . S
C4382 C4381 1.376 . S
C4382 C4383 1.388 . S
C4383 H4370 0.930 . S
C4383 C4382 1.388 . S
C4383 C4384 1.390 . S
C4384 C4383 1.390 . S
C4384 C4385 1.394 . S
C4384 C4390 1.465 . S
C4385 C4380 1.399 . S
C4385 C4384 1.394 . S
C4385 C4386 1.516 . S
C4386 C4385 1.516 . S
C4386 C4387 1.502 . S
C4386 C4388 1.561 . S
C4386 C4389 1.526 . S
C4387 H4371 0.959 . S
C4387 H4372 0.959 . S
C4387 H4373 0.961 . S
C4387 C4386 1.502 . S
C4388 H4374 0.960 . S
C4388 H4375 0.961 . S
C4388 H4376 0.959 . S
C4388 C4386 1.561 . S
C4389 C4386 1.526 . S
C4389 C4390 1.396 . S
C4389 C4394 1.390 . S
C4390 C4384 1.465 . S
C4390 C4389 1.396 . S
C4390 C4391 1.399 . S
C4391 H4377 0.929 . S
C4391 C4390 1.399 . S
C4391 C4392 1.385 . S
C4392 H4378 0.931 . S
C4392 C4391 1.385 . S
C4392 C4393 1.389 . S
C4393 C4392 1.389 . S
C4393 C4394 1.387 . S
C4394 H4379 0.930 . S
C4394 C4389 1.390 . S
C4394 C4393 1.387 . S
H4395 C4407 0.930 . S
H4396 C4409 0.930 . S
H4397 C4410 0.930 . S
H4398 C4414 0.959 . S
H4399 C4414 0.959 . S
H4400 C4414 0.961 . S
H4401 C4415 0.960 . S
H4402 C4415 0.961 . S
H4403 C4415 0.959 . S
H4404 C4418 0.929 . S
H4405 C4419 0.931 . S
H4406 C4421 0.930 . S
C4407 H4395 0.930 . S
C4407 C4408 1.399 . S
C4407 C4412 1.399 . S
C4408 C4407 1.399 . S
C4408 C4409 1.376 . S
C4409 H4396 0.930 . S
C4409 C4408 1.376 . S
C4409 C4410 1.388 . S
C4410 H4397 0.930 . S
C4410 C4409 1.388 . S
C4410 C4411 1.390 . S
C4411 C4410 1.390 . S
C4411 C4412 1.394 . S
C4411 C4417 1.465 . S
C4412 C4407 1.399 . S
C4412 C4411 1.394 . S
C4412 C4413 1.516 . S
C4413 C4412 1.516 . S
C4413 C4414 1.502 . S
C4413 C4415 1.561 . S
C4413 C4416 1.526 . S
C4414 H4398 0.959 . S
C4414 H4399 0.959 . S
C4414 H4400 0.961 . S
C4414 C4413 1.502 . S
C4415 H4401 0.960 . S
C4415 H4402 0.961 . S
C4415 H4403 0.959 . S
C4415 C4413 1.561 . S
C4416 C4413 1.526 . S
C4416 C4417 1.396 . S
C4416 C4421 1.390 . S
C4417 C4411 1.465 . S
C4417 C4416 1.396 . S
C4417 C4418 1.399 . S
C4418 H4404 0.929 . S
C4418 C4417 1.399 . S
C4418 C4419 1.385 . S
C4419 H4405 0.931 . S
C4419 C4418 1.385 . S
C4419 C4420 1.389 . S
C4420 C4419 1.389 . S
C4420 C4421 1.387 . S
C4421 H4406 0.930 . S
C4421 C4416 1.390 . S
C4421 C4420 1.387 . S
H4422 C4434 0.930 . S
H4423 C4436 0.930 . S
H4424 C4437 0.930 . S
H4425 C4441 0.959 . S
H4426 C4441 0.959 . S
H4427 C4441 0.961 . S
H4428 C4442 0.960 . S
H4429 C4442 0.961 . S
H4430 C4442 0.959 . S
H4431 C4445 0.929 . S
H4432 C4446 0.931 . S
H4433 C4448 0.930 . S
C4434 H4422 0.930 . S
C4434 C4435 1.399 . S
C4434 C4439 1.399 . S
C4435 C4434 1.399 . S
C4435 C4436 1.376 . S
C4436 H4423 0.930 . S
C4436 C4435 1.376 . S
C4436 C4437 1.388 . S
C4437 H4424 0.930 . S
C4437 C4436 1.388 . S
C4437 C4438 1.390 . S
C4438 C4437 1.390 . S
C4438 C4439 1.394 . S
C4438 C4444 1.465 . S
C4439 C4434 1.399 . S
C4439 C4438 1.394 . S
C4439 C4440 1.516 . S
C4440 C4439 1.516 . S
C4440 C4441 1.502 . S
C4440 C4442 1.561 . S
C4440 C4443 1.526 . S
C4441 H4425 0.959 . S
C4441 H4426 0.959 . S
C4441 H4427 0.961 . S
C4441 C4440 1.502 . S
C4442 H4428 0.960 . S
C4442 H4429 0.961 . S
C4442 H4430 0.959 . S
C4442 C4440 1.561 . S
C4443 C4440 1.526 . S
C4443 C4444 1.396 . S
C4443 C4448 1.390 . S
C4444 C4438 1.465 . S
C4444 C4443 1.396 . S
C4444 C4445 1.399 . S
C4445 H4431 0.929 . S
C4445 C4444 1.399 . S
C4445 C4446 1.385 . S
C4446 H4432 0.931 . S
C4446 C4445 1.385 . S
C4446 C4447 1.389 . S
C4447 C4446 1.389 . S
C4447 C4448 1.387 . S
C4448 H4433 0.930 . S
C4448 C4443 1.390 . S
C4448 C4447 1.387 . S
H4449 C4461 0.930 . S
H4450 C4463 0.930 . S
H4451 C4464 0.930 . S
H4452 C4468 0.959 . S
H4453 C4468 0.959 . S
H4454 C4468 0.961 . S
H4455 C4469 0.960 . S
H4456 C4469 0.961 . S
H4457 C4469 0.959 . S
H4458 C4472 0.929 . S
H4459 C4473 0.931 . S
H4460 C4475 0.930 . S
C4461 H4449 0.930 . S
C4461 C4462 1.399 . S
C4461 C4466 1.399 . S
C4462 C4461 1.399 . S
C4462 C4463 1.376 . S
C4463 H4450 0.930 . S
C4463 C4462 1.376 . S
C4463 C4464 1.388 . S
C4464 H4451 0.930 . S
C4464 C4463 1.388 . S
C4464 C4465 1.390 . S
C4465 C4464 1.390 . S
C4465 C4466 1.394 . S
C4465 C4471 1.465 . S
C4466 C4461 1.399 . S
C4466 C4465 1.394 . S
C4466 C4467 1.516 . S
C4467 C4466 1.516 . S
C4467 C4468 1.502 . S
C4467 C4469 1.561 . S
C4467 C4470 1.526 . S
C4468 H4452 0.959 . S
C4468 H4453 0.959 . S
C4468 H4454 0.961 . S
C4468 C4467 1.502 . S
C4469 H4455 0.960 . S
C4469 H4456 0.961 . S
C4469 H4457 0.959 . S
C4469 C4467 1.561 . S
C4470 C4467 1.526 . S
C4470 C4471 1.396 . S
C4470 C4475 1.390 . S
C4471 C4465 1.465 . S
C4471 C4470 1.396 . S
C4471 C4472 1.399 . S
C4472 H4458 0.929 . S
C4472 C4471 1.399 . S
C4472 C4473 1.385 . S
C4473 H4459 0.931 . S
C4473 C4472 1.385 . S
C4473 C4474 1.389 . S
C4474 C4473 1.389 . S
C4474 C4475 1.387 . S
C4475 H4460 0.930 . S
C4475 C4470 1.390 . S
C4475 C4474 1.387 . S
H4476 C4488 0.930 . S
H4477 C4490 0.930 . S
H4478 C4491 0.930 . S
H4479 C4495 0.959 . S
H4480 C4495 0.959 . S
H4481 C4495 0.961 . S
H4482 C4496 0.960 . S
H4483 C4496 0.961 . S
H4484 C4496 0.959 . S
H4485 C4499 0.929 . S
H4486 C4500 0.931 . S
H4487 C4502 0.930 . S
C4488 H4476 0.930 . S
C4488 C4489 1.399 . S
C4488 C4493 1.399 . S
C4489 C4488 1.399 . S
C4489 C4490 1.376 . S
C4490 H4477 0.930 . S
C4490 C4489 1.376 . S
C4490 C4491 1.388 . S
C4491 H4478 0.930 . S
C4491 C4490 1.388 . S
C4491 C4492 1.390 . S
C4492 C4491 1.390 . S
C4492 C4493 1.394 . S
C4492 C4498 1.465 . S
C4493 C4488 1.399 . S
C4493 C4492 1.394 . S
C4493 C4494 1.516 . S
C4494 C4493 1.516 . S
C4494 C4495 1.502 . S
C4494 C4496 1.561 . S
C4494 C4497 1.526 . S
C4495 H4479 0.959 . S
C4495 H4480 0.959 . S
C4495 H4481 0.961 . S
C4495 C4494 1.502 . S
C4496 H4482 0.960 . S
C4496 H4483 0.961 . S
C4496 H4484 0.959 . S
C4496 C4494 1.561 . S
C4497 C4494 1.526 . S
C4497 C4498 1.396 . S
C4497 C4502 1.390 . S
C4498 C4492 1.465 . S
C4498 C4497 1.396 . S
C4498 C4499 1.399 . S
C4499 H4485 0.929 . S
C4499 C4498 1.399 . S
C4499 C4500 1.385 . S
C4500 H4486 0.931 . S
C4500 C4499 1.385 . S
C4500 C4501 1.389 . S
C4501 C4500 1.389 . S
C4501 C4502 1.387 . S
C4502 H4487 0.930 . S
C4502 C4497 1.390 . S
C4502 C4501 1.387 . S
H4503 C4515 0.930 . S
H4504 C4517 0.930 . S
H4505 C4518 0.930 . S
H4506 C4522 0.959 . S
H4507 C4522 0.959 . S
H4508 C4522 0.961 . S
H4509 C4523 0.960 . S
H4510 C4523 0.961 . S
H4511 C4523 0.959 . S
H4512 C4526 0.929 . S
H4513 C4527 0.931 . S
H4514 C4529 0.930 . S
C4515 H4503 0.930 . S
C4515 C4516 1.399 . S
C4515 C4520 1.399 . S
C4516 C4515 1.399 . S
C4516 C4517 1.376 . S
C4517 H4504 0.930 . S
C4517 C4516 1.376 . S
C4517 C4518 1.388 . S
C4518 H4505 0.930 . S
C4518 C4517 1.388 . S
C4518 C4519 1.390 . S
C4519 C4518 1.390 . S
C4519 C4520 1.394 . S
C4519 C4525 1.465 . S
C4520 C4515 1.399 . S
C4520 C4519 1.394 . S
C4520 C4521 1.516 . S
C4521 C4520 1.516 . S
C4521 C4522 1.502 . S
C4521 C4523 1.561 . S
C4521 C4524 1.526 . S
C4522 H4506 0.959 . S
C4522 H4507 0.959 . S
C4522 H4508 0.961 . S
C4522 C4521 1.502 . S
C4523 H4509 0.960 . S
C4523 H4510 0.961 . S
C4523 H4511 0.959 . S
C4523 C4521 1.561 . S
C4524 C4521 1.526 . S
C4524 C4525 1.396 . S
C4524 C4529 1.390 . S
C4525 C4519 1.465 . S
C4525 C4524 1.396 . S
C4525 C4526 1.399 . S
C4526 H4512 0.929 . S
C4526 C4525 1.399 . S
C4526 C4527 1.385 . S
C4527 H4513 0.931 . S
C4527 C4526 1.385 . S
C4527 C4528 1.389 . S
C4528 C4527 1.389 . S
C4528 C4529 1.387 . S
C4529 H4514 0.930 . S
C4529 C4524 1.390 . S
C4529 C4528 1.387 . S
H4530 C4542 0.930 . S
H4531 C4544 0.930 . S
H4532 C4545 0.930 . S
H4533 C4549 0.959 . S
H4534 C4549 0.959 . S
H4535 C4549 0.961 . S
H4536 C4550 0.960 . S
H4537 C4550 0.961 . S
H4538 C4550 0.959 . S
H4539 C4553 0.929 . S
H4540 C4554 0.931 . S
H4541 C4556 0.930 . S
C4542 H4530 0.930 . S
C4542 C4543 1.399 . S
C4542 C4547 1.399 . S
C4543 C4542 1.399 . S
C4543 C4544 1.376 . S
C4544 H4531 0.930 . S
C4544 C4543 1.376 . S
C4544 C4545 1.388 . S
C4545 H4532 0.930 . S
C4545 C4544 1.388 . S
C4545 C4546 1.390 . S
C4546 C4545 1.390 . S
C4546 C4547 1.394 . S
C4546 C4552 1.465 . S
C4547 C4542 1.399 . S
C4547 C4546 1.394 . S
C4547 C4548 1.516 . S
C4548 C4547 1.516 . S
C4548 C4549 1.502 . S
C4548 C4550 1.561 . S
C4548 C4551 1.526 . S
C4549 H4533 0.959 . S
C4549 H4534 0.959 . S
C4549 H4535 0.961 . S
C4549 C4548 1.502 . S
C4550 H4536 0.960 . S
C4550 H4537 0.961 . S
C4550 H4538 0.959 . S
C4550 C4548 1.561 . S
C4551 C4548 1.526 . S
C4551 C4552 1.396 . S
C4551 C4556 1.390 . S
C4552 C4546 1.465 . S
C4552 C4551 1.396 . S
C4552 C4553 1.399 . S
C4553 H4539 0.929 . S
C4553 C4552 1.399 . S
C4553 C4554 1.385 . S
C4554 H4540 0.931 . S
C4554 C4553 1.385 . S
C4554 C4555 1.389 . S
C4555 C4554 1.389 . S
C4555 C4556 1.387 . S
C4556 H4541 0.930 . S
C4556 C4551 1.390 . S
C4556 C4555 1.387 . S
H4557 C4569 0.930 . S
H4558 C4571 0.930 . S
H4559 C4572 0.930 . S
H4560 C4576 0.959 . S
H4561 C4576 0.959 . S
H4562 C4576 0.961 . S
H4563 C4577 0.960 . S
H4564 C4577 0.961 . S
H4565 C4577 0.959 . S
H4566 C4580 0.929 . S
H4567 C4581 0.931 . S
H4568 C4583 0.930 . S
C4569 H4557 0.930 . S
C4569 C4570 1.399 . S
C4569 C4574 1.399 . S
C4570 C4569 1.399 . S
C4570 C4571 1.376 . S
C4571 H4558 0.930 . S
C4571 C4570 1.376 . S
C4571 C4572 1.388 . S
C4572 H4559 0.930 . S
C4572 C4571 1.388 . S
C4572 C4573 1.390 . S
C4573 C4572 1.390 . S
C4573 C4574 1.394 . S
C4573 C4579 1.465 . S
C4574 C4569 1.399 . S
C4574 C4573 1.394 . S
C4574 C4575 1.516 . S
C4575 C4574 1.516 . S
C4575 C4576 1.502 . S
C4575 C4577 1.561 . S
C4575 C4578 1.526 . S
C4576 H4560 0.959 . S
C4576 H4561 0.959 . S
C4576 H4562 0.961 . S
C4576 C4575 1.502 . S
C4577 H4563 0.960 . S
C4577 H4564 0.961 . S
C4577 H4565 0.959 . S
C4577 C4575 1.561 . S
C4578 C4575 1.526 . S
C4578 C4579 1.396 . S
C4578 C4583 1.390 . S
C4579 C4573 1.465 . S
C4579 C4578 1.396 . S
C4579 C4580 1.399 . S
C4580 H4566 0.929 . S
C4580 C4579 1.399 . S
C4580 C4581 1.385 . S
C4581 H4567 0.931 . S
C4581 C4580 1.385 . S
C4581 C4582 1.389 . S
C4582 C4581 1.389 . S
C4582 C4583 1.387 . S
C4583 H4568 0.930 . S
C4583 C4578 1.390 . S
C4583 C4582 1.387 . S
H4584 C4596 0.930 . S
H4585 C4598 0.930 . S
H4586 C4599 0.930 . S
H4587 C4603 0.959 . S
H4588 C4603 0.959 . S
H4589 C4603 0.961 . S
H4590 C4604 0.960 . S
H4591 C4604 0.961 . S
H4592 C4604 0.959 . S
H4593 C4607 0.929 . S
H4594 C4608 0.931 . S
H4595 C4610 0.930 . S
C4596 H4584 0.930 . S
C4596 C4597 1.399 . S
C4596 C4601 1.399 . S
C4597 C4596 1.399 . S
C4597 C4598 1.376 . S
C4598 H4585 0.930 . S
C4598 C4597 1.376 . S
C4598 C4599 1.388 . S
C4599 H4586 0.930 . S
C4599 C4598 1.388 . S
C4599 C4600 1.390 . S
C4600 C4599 1.390 . S
C4600 C4601 1.394 . S
C4600 C4606 1.465 . S
C4601 C4596 1.399 . S
C4601 C4600 1.394 . S
C4601 C4602 1.516 . S
C4602 C4601 1.516 . S
C4602 C4603 1.502 . S
C4602 C4604 1.561 . S
C4602 C4605 1.526 . S
C4603 H4587 0.959 . S
C4603 H4588 0.959 . S
C4603 H4589 0.961 . S
C4603 C4602 1.502 . S
C4604 H4590 0.960 . S
C4604 H4591 0.961 . S
C4604 H4592 0.959 . S
C4604 C4602 1.561 . S
C4605 C4602 1.526 . S
C4605 C4606 1.396 . S
C4605 C4610 1.390 . S
C4606 C4600 1.465 . S
C4606 C4605 1.396 . S
C4606 C4607 1.399 . S
C4607 H4593 0.929 . S
C4607 C4606 1.399 . S
C4607 C4608 1.385 . S
C4608 H4594 0.931 . S
C4608 C4607 1.385 . S
C4608 C4609 1.389 . S
C4609 C4608 1.389 . S
C4609 C4610 1.387 . S
C4610 H4595 0.930 . S
C4610 C4605 1.390 . S
C4610 C4609 1.387 . S
H4611 C4623 0.930 . S
H4612 C4625 0.930 . S
H4613 C4626 0.930 . S
H4614 C4630 0.959 . S
H4615 C4630 0.959 . S
H4616 C4630 0.961 . S
H4617 C4631 0.960 . S
H4618 C4631 0.961 . S
H4619 C4631 0.959 . S
H4620 C4634 0.929 . S
H4621 C4635 0.931 . S
H4622 C4637 0.930 . S
C4623 H4611 0.930 . S
C4623 C4624 1.399 . S
C4623 C4628 1.399 . S
C4624 C4623 1.399 . S
C4624 C4625 1.376 . S
C4625 H4612 0.930 . S
C4625 C4624 1.376 . S
C4625 C4626 1.388 . S
C4626 H4613 0.930 . S
C4626 C4625 1.388 . S
C4626 C4627 1.390 . S
C4627 C4626 1.390 . S
C4627 C4628 1.394 . S
C4627 C4633 1.465 . S
C4628 C4623 1.399 . S
C4628 C4627 1.394 . S
C4628 C4629 1.516 . S
C4629 C4628 1.516 . S
C4629 C4630 1.502 . S
C4629 C4631 1.561 . S
C4629 C4632 1.526 . S
C4630 H4614 0.959 . S
C4630 H4615 0.959 . S
C4630 H4616 0.961 . S
C4630 C4629 1.502 . S
C4631 H4617 0.960 . S
C4631 H4618 0.961 . S
C4631 H4619 0.959 . S
C4631 C4629 1.561 . S
C4632 C4629 1.526 . S
C4632 C4633 1.396 . S
C4632 C4637 1.390 . S
C4633 C4627 1.465 . S
C4633 C4632 1.396 . S
C4633 C4634 1.399 . S
C4634 H4620 0.929 . S
C4634 C4633 1.399 . S
C4634 C4635 1.385 . S
C4635 H4621 0.931 . S
C4635 C4634 1.385 . S
C4635 C4636 1.389 . S
C4636 C4635 1.389 . S
C4636 C4637 1.387 . S
C4637 H4622 0.930 . S
C4637 C4632 1.390 . S
C4637 C4636 1.387 . S
H4638 C4650 0.930 . S
H4639 C4652 0.930 . S
H4640 C4653 0.930 . S
H4641 C4657 0.959 . S
H4642 C4657 0.959 . S
H4643 C4657 0.961 . S
H4644 C4658 0.960 . S
H4645 C4658 0.961 . S
H4646 C4658 0.959 . S
H4647 C4661 0.929 . S
H4648 C4662 0.931 . S
H4649 C4664 0.930 . S
C4650 H4638 0.930 . S
C4650 C4651 1.399 . S
C4650 C4655 1.399 . S
C4651 C4650 1.399 . S
C4651 C4652 1.376 . S
C4652 H4639 0.930 . S
C4652 C4651 1.376 . S
C4652 C4653 1.388 . S
C4653 H4640 0.930 . S
C4653 C4652 1.388 . S
C4653 C4654 1.390 . S
C4654 C4653 1.390 . S
C4654 C4655 1.394 . S
C4654 C4660 1.465 . S
C4655 C4650 1.399 . S
C4655 C4654 1.394 . S
C4655 C4656 1.516 . S
C4656 C4655 1.516 . S
C4656 C4657 1.502 . S
C4656 C4658 1.561 . S
C4656 C4659 1.526 . S
C4657 H4641 0.959 . S
C4657 H4642 0.959 . S
C4657 H4643 0.961 . S
C4657 C4656 1.502 . S
C4658 H4644 0.960 . S
C4658 H4645 0.961 . S
C4658 H4646 0.959 . S
C4658 C4656 1.561 . S
C4659 C4656 1.526 . S
C4659 C4660 1.396 . S
C4659 C4664 1.390 . S
C4660 C4654 1.465 . S
C4660 C4659 1.396 . S
C4660 C4661 1.399 . S
C4661 H4647 0.929 . S
C4661 C4660 1.399 . S
C4661 C4662 1.385 . S
C4662 H4648 0.931 . S
C4662 C4661 1.385 . S
C4662 C4663 1.389 . S
C4663 C4662 1.389 . S
C4663 C4664 1.387 . S
C4664 H4649 0.930 . S
C4664 C4659 1.390 . S
C4664 C4663 1.387 . S
H4665 C4677 0.930 . S
H4666 C4679 0.930 . S
H4667 C4680 0.930 . S
H4668 C4684 0.959 . S
H4669 C4684 0.959 . S
H4670 C4684 0.961 . S
H4671 C4685 0.960 . S
H4672 C4685 0.961 . S
H4673 C4685 0.959 . S
H4674 C4688 0.929 . S
H4675 C4689 0.931 . S
H4676 C4691 0.930 . S
C4677 H4665 0.930 . S
C4677 C4678 1.399 . S
C4677 C4682 1.399 . S
C4678 C4677 1.399 . S
C4678 C4679 1.376 . S
C4679 H4666 0.930 . S
C4679 C4678 1.376 . S
C4679 C4680 1.388 . S
C4680 H4667 0.930 . S
C4680 C4679 1.388 . S
C4680 C4681 1.390 . S
C4681 C4680 1.390 . S
C4681 C4682 1.394 . S
C4681 C4687 1.465 . S
C4682 C4677 1.399 . S
C4682 C4681 1.394 . S
C4682 C4683 1.516 . S
C4683 C4682 1.516 . S
C4683 C4684 1.502 . S
C4683 C4685 1.561 . S
C4683 C4686 1.526 . S
C4684 H4668 0.959 . S
C4684 H4669 0.959 . S
C4684 H4670 0.961 . S
C4684 C4683 1.502 . S
C4685 H4671 0.960 . S
C4685 H4672 0.961 . S
C4685 H4673 0.959 . S
C4685 C4683 1.561 . S
C4686 C4683 1.526 . S
C4686 C4687 1.396 . S
C4686 C4691 1.390 . S
C4687 C4681 1.465 . S
C4687 C4686 1.396 . S
C4687 C4688 1.399 . S
C4688 H4674 0.929 . S
C4688 C4687 1.399 . S
C4688 C4689 1.385 . S
C4689 H4675 0.931 . S
C4689 C4688 1.385 . S
C4689 C4690 1.389 . S
C4690 C4689 1.389 . S
C4690 C4691 1.387 . S
C4691 H4676 0.930 . S
C4691 C4686 1.390 . S
C4691 C4690 1.387 . S
H4692 C4704 0.930 . S
H4693 C4706 0.930 . S
H4694 C4707 0.930 . S
H4695 C4711 0.959 . S
H4696 C4711 0.959 . S
H4697 C4711 0.961 . S
H4698 C4712 0.960 . S
H4699 C4712 0.961 . S
H4700 C4712 0.959 . S
H4701 C4715 0.929 . S
H4702 C4716 0.931 . S
H4703 C4718 0.930 . S
C4704 H4692 0.930 . S
C4704 C4705 1.399 . S
C4704 C4709 1.399 . S
C4705 C4704 1.399 . S
C4705 C4706 1.376 . S
C4706 H4693 0.930 . S
C4706 C4705 1.376 . S
C4706 C4707 1.388 . S
C4707 H4694 0.930 . S
C4707 C4706 1.388 . S
C4707 C4708 1.390 . S
C4708 C4707 1.390 . S
C4708 C4709 1.394 . S
C4708 C4714 1.465 . S
C4709 C4704 1.399 . S
C4709 C4708 1.394 . S
C4709 C4710 1.516 . S
C4710 C4709 1.516 . S
C4710 C4711 1.502 . S
C4710 C4712 1.561 . S
C4710 C4713 1.526 . S
C4711 H4695 0.959 . S
C4711 H4696 0.959 . S
C4711 H4697 0.961 . S
C4711 C4710 1.502 . S
C4712 H4698 0.960 . S
C4712 H4699 0.961 . S
C4712 H4700 0.959 . S
C4712 C4710 1.561 . S
C4713 C4710 1.526 . S
C4713 C4714 1.396 . S
C4713 C4718 1.390 . S
C4714 C4708 1.465 . S
C4714 C4713 1.396 . S
C4714 C4715 1.399 . S
C4715 H4701 0.929 . S
C4715 C4714 1.399 . S
C4715 C4716 1.385 . S
C4716 H4702 0.931 . S
C4716 C4715 1.385 . S
C4716 C4717 1.389 . S
C4717 C4716 1.389 . S
C4717 C4718 1.387 . S
C4718 H4703 0.930 . S
C4718 C4713 1.390 . S
C4718 C4717 1.387 . S
H4719 C4731 0.930 . S
H4720 C4733 0.930 . S
H4721 C4734 0.930 . S
H4722 C4738 0.959 . S
H4723 C4738 0.959 . S
H4724 C4738 0.961 . S
H4725 C4739 0.960 . S
H4726 C4739 0.961 . S
H4727 C4739 0.959 . S
H4728 C4742 0.929 . S
H4729 C4743 0.931 . S
H4730 C4745 0.930 . S
C4731 H4719 0.930 . S
C4731 C4732 1.399 . S
C4731 C4736 1.399 . S
C4732 C4731 1.399 . S
C4732 C4733 1.376 . S
C4733 H4720 0.930 . S
C4733 C4732 1.376 . S
C4733 C4734 1.388 . S
C4734 H4721 0.930 . S
C4734 C4733 1.388 . S
C4734 C4735 1.390 . S
C4735 C4734 1.390 . S
C4735 C4736 1.394 . S
C4735 C4741 1.465 . S
C4736 C4731 1.399 . S
C4736 C4735 1.394 . S
C4736 C4737 1.516 . S
C4737 C4736 1.516 . S
C4737 C4738 1.502 . S
C4737 C4739 1.561 . S
C4737 C4740 1.526 . S
C4738 H4722 0.959 . S
C4738 H4723 0.959 . S
C4738 H4724 0.961 . S
C4738 C4737 1.502 . S
C4739 H4725 0.960 . S
C4739 H4726 0.961 . S
C4739 H4727 0.959 . S
C4739 C4737 1.561 . S
C4740 C4737 1.526 . S
C4740 C4741 1.396 . S
C4740 C4745 1.390 . S
C4741 C4735 1.465 . S
C4741 C4740 1.396 . S
C4741 C4742 1.399 . S
C4742 H4728 0.929 . S
C4742 C4741 1.399 . S
C4742 C4743 1.385 . S
C4743 H4729 0.931 . S
C4743 C4742 1.385 . S
C4743 C4744 1.389 . S
C4744 C4743 1.389 . S
C4744 C4745 1.387 . S
C4745 H4730 0.930 . S
C4745 C4740 1.390 . S
C4745 C4744 1.387 . S
H4746 C4758 0.930 . S
H4747 C4760 0.930 . S
H4748 C4761 0.930 . S
H4749 C4765 0.959 . S
H4750 C4765 0.959 . S
H4751 C4765 0.961 . S
H4752 C4766 0.960 . S
H4753 C4766 0.961 . S
H4754 C4766 0.959 . S
H4755 C4769 0.929 . S
H4756 C4770 0.931 . S
H4757 C4772 0.930 . S
C4758 H4746 0.930 . S
C4758 C4759 1.399 . S
C4758 C4763 1.399 . S
C4759 C4758 1.399 . S
C4759 C4760 1.376 . S
C4760 H4747 0.930 . S
C4760 C4759 1.376 . S
C4760 C4761 1.388 . S
C4761 H4748 0.930 . S
C4761 C4760 1.388 . S
C4761 C4762 1.390 . S
C4762 C4761 1.390 . S
C4762 C4763 1.394 . S
C4762 C4768 1.465 . S
C4763 C4758 1.399 . S
C4763 C4762 1.394 . S
C4763 C4764 1.516 . S
C4764 C4763 1.516 . S
C4764 C4765 1.502 . S
C4764 C4766 1.561 . S
C4764 C4767 1.526 . S
C4765 H4749 0.959 . S
C4765 H4750 0.959 . S
C4765 H4751 0.961 . S
C4765 C4764 1.502 . S
C4766 H4752 0.960 . S
C4766 H4753 0.961 . S
C4766 H4754 0.959 . S
C4766 C4764 1.561 . S
C4767 C4764 1.526 . S
C4767 C4768 1.396 . S
C4767 C4772 1.390 . S
C4768 C4762 1.465 . S
C4768 C4767 1.396 . S
C4768 C4769 1.399 . S
C4769 H4755 0.929 . S
C4769 C4768 1.399 . S
C4769 C4770 1.385 . S
C4770 H4756 0.931 . S
C4770 C4769 1.385 . S
C4770 C4771 1.389 . S
C4771 C4770 1.389 . S
C4771 C4772 1.387 . S
C4772 H4757 0.930 . S
C4772 C4767 1.390 . S
C4772 C4771 1.387 . S
H4773 C4785 0.930 . S
H4774 C4787 0.930 . S
H4775 C4788 0.930 . S
H4776 C4792 0.959 . S
H4777 C4792 0.959 . S
H4778 C4792 0.961 . S
H4779 C4793 0.960 . S
H4780 C4793 0.961 . S
H4781 C4793 0.959 . S
H4782 C4796 0.929 . S
H4783 C4797 0.931 . S
H4784 C4799 0.930 . S
C4785 H4773 0.930 . S
C4785 C4786 1.399 . S
C4785 C4790 1.399 . S
C4786 C4785 1.399 . S
C4786 C4787 1.376 . S
C4787 H4774 0.930 . S
C4787 C4786 1.376 . S
C4787 C4788 1.388 . S
C4788 H4775 0.930 . S
C4788 C4787 1.388 . S
C4788 C4789 1.390 . S
C4789 C4788 1.390 . S
C4789 C4790 1.394 . S
C4789 C4795 1.465 . S
C4790 C4785 1.399 . S
C4790 C4789 1.394 . S
C4790 C4791 1.516 . S
C4791 C4790 1.516 . S
C4791 C4792 1.502 . S
C4791 C4793 1.561 . S
C4791 C4794 1.526 . S
C4792 H4776 0.959 . S
C4792 H4777 0.959 . S
C4792 H4778 0.961 . S
C4792 C4791 1.502 . S
C4793 H4779 0.960 . S
C4793 H4780 0.961 . S
C4793 H4781 0.959 . S
C4793 C4791 1.561 . S
C4794 C4791 1.526 . S
C4794 C4795 1.396 . S
C4794 C4799 1.390 . S
C4795 C4789 1.465 . S
C4795 C4794 1.396 . S
C4795 C4796 1.399 . S
C4796 H4782 0.929 . S
C4796 C4795 1.399 . S
C4796 C4797 1.385 . S
C4797 H4783 0.931 . S
C4797 C4796 1.385 . S
C4797 C4798 1.389 . S
C4798 C4797 1.389 . S
C4798 C4799 1.387 . S
C4799 H4784 0.930 . S
C4799 C4794 1.390 . S
C4799 C4798 1.387 . S
H4800 C4812 0.930 . S
H4801 C4814 0.930 . S
H4802 C4815 0.930 . S
H4803 C4819 0.959 . S
H4804 C4819 0.959 . S
H4805 C4819 0.961 . S
H4806 C4820 0.960 . S
H4807 C4820 0.961 . S
H4808 C4820 0.959 . S
H4809 C4823 0.929 . S
H4810 C4824 0.931 . S
H4811 C4826 0.930 . S
C4812 H4800 0.930 . S
C4812 C4813 1.399 . S
C4812 C4817 1.399 . S
C4813 C4812 1.399 . S
C4813 C4814 1.376 . S
C4814 H4801 0.930 . S
C4814 C4813 1.376 . S
C4814 C4815 1.388 . S
C4815 H4802 0.930 . S
C4815 C4814 1.388 . S
C4815 C4816 1.390 . S
C4816 C4815 1.390 . S
C4816 C4817 1.394 . S
C4816 C4822 1.465 . S
C4817 C4812 1.399 . S
C4817 C4816 1.394 . S
C4817 C4818 1.516 . S
C4818 C4817 1.516 . S
C4818 C4819 1.502 . S
C4818 C4820 1.561 . S
C4818 C4821 1.526 . S
C4819 H4803 0.959 . S
C4819 H4804 0.959 . S
C4819 H4805 0.961 . S
C4819 C4818 1.502 . S
C4820 H4806 0.960 . S
C4820 H4807 0.961 . S
C4820 H4808 0.959 . S
C4820 C4818 1.561 . S
C4821 C4818 1.526 . S
C4821 C4822 1.396 . S
C4821 C4826 1.390 . S
C4822 C4816 1.465 . S
C4822 C4821 1.396 . S
C4822 C4823 1.399 . S
C4823 H4809 0.929 . S
C4823 C4822 1.399 . S
C4823 C4824 1.385 . S
C4824 H4810 0.931 . S
C4824 C4823 1.385 . S
C4824 C4825 1.389 . S
C4825 C4824 1.389 . S
C4825 C4826 1.387 . S
C4826 H4811 0.930 . S
C4826 C4821 1.390 . S
C4826 C4825 1.387 . S
H4827 C4839 0.930 . S
H4828 C4841 0.930 . S
H4829 C4842 0.930 . S
H4830 C4846 0.959 . S
H4831 C4846 0.959 . S
H4832 C4846 0.961 . S
H4833 C4847 0.960 . S
H4834 C4847 0.961 . S
H4835 C4847 0.959 . S
H4836 C4850 0.929 . S
H4837 C4851 0.931 . S
H4838 C4853 0.930 . S
C4839 H4827 0.930 . S
C4839 C4840 1.399 . S
C4839 C4844 1.399 . S
C4840 C4839 1.399 . S
C4840 C4841 1.376 . S
C4841 H4828 0.930 . S
C4841 C4840 1.376 . S
C4841 C4842 1.388 . S
C4842 H4829 0.930 . S
C4842 C4841 1.388 . S
C4842 C4843 1.390 . S
C4843 C4842 1.390 . S
C4843 C4844 1.394 . S
C4843 C4849 1.465 . S
C4844 C4839 1.399 . S
C4844 C4843 1.394 . S
C4844 C4845 1.516 . S
C4845 C4844 1.516 . S
C4845 C4846 1.502 . S
C4845 C4847 1.561 . S
C4845 C4848 1.526 . S
C4846 H4830 0.959 . S
C4846 H4831 0.959 . S
C4846 H4832 0.961 . S
C4846 C4845 1.502 . S
C4847 H4833 0.960 . S
C4847 H4834 0.961 . S
C4847 H4835 0.959 . S
C4847 C4845 1.561 . S
C4848 C4845 1.526 . S
C4848 C4849 1.396 . S
C4848 C4853 1.390 . S
C4849 C4843 1.465 . S
C4849 C4848 1.396 . S
C4849 C4850 1.399 . S
C4850 H4836 0.929 . S
C4850 C4849 1.399 . S
C4850 C4851 1.385 . S
C4851 H4837 0.931 . S
C4851 C4850 1.385 . S
C4851 C4852 1.389 . S
C4852 C4851 1.389 . S
C4852 C4853 1.387 . S
C4853 H4838 0.930 . S
C4853 C4848 1.390 . S
C4853 C4852 1.387 . S
H4854 C4866 0.930 . S
H4855 C4868 0.930 . S
H4856 C4869 0.930 . S
H4857 C4873 0.959 . S
H4858 C4873 0.959 . S
H4859 C4873 0.961 . S
H4860 C4874 0.960 . S
H4861 C4874 0.961 . S
H4862 C4874 0.959 . S
H4863 C4877 0.929 . S
H4864 C4878 0.931 . S
H4865 C4880 0.930 . S
C4866 H4854 0.930 . S
C4866 C4867 1.399 . S
C4866 C4871 1.399 . S
C4867 C4866 1.399 . S
C4867 C4868 1.376 . S
C4868 H4855 0.930 . S
C4868 C4867 1.376 . S
C4868 C4869 1.388 . S
C4869 H4856 0.930 . S
C4869 C4868 1.388 . S
C4869 C4870 1.390 . S
C4870 C4869 1.390 . S
C4870 C4871 1.394 . S
C4870 C4876 1.465 . S
C4871 C4866 1.399 . S
C4871 C4870 1.394 . S
C4871 C4872 1.516 . S
C4872 C4871 1.516 . S
C4872 C4873 1.502 . S
C4872 C4874 1.561 . S
C4872 C4875 1.526 . S
C4873 H4857 0.959 . S
C4873 H4858 0.959 . S
C4873 H4859 0.961 . S
C4873 C4872 1.502 . S
C4874 H4860 0.960 . S
C4874 H4861 0.961 . S
C4874 H4862 0.959 . S
C4874 C4872 1.561 . S
C4875 C4872 1.526 . S
C4875 C4876 1.396 . S
C4875 C4880 1.390 . S
C4876 C4870 1.465 . S
C4876 C4875 1.396 . S
C4876 C4877 1.399 . S
C4877 H4863 0.929 . S
C4877 C4876 1.399 . S
C4877 C4878 1.385 . S
C4878 H4864 0.931 . S
C4878 C4877 1.385 . S
C4878 C4879 1.389 . S
C4879 C4878 1.389 . S
C4879 C4880 1.387 . S
C4880 H4865 0.930 . S
C4880 C4875 1.390 . S
C4880 C4879 1.387 . S
H4881 C4893 0.930 . S
H4882 C4895 0.930 . S
H4883 C4896 0.930 . S
H4884 C4900 0.959 . S
H4885 C4900 0.959 . S
H4886 C4900 0.961 . S
H4887 C4901 0.960 . S
H4888 C4901 0.961 . S
H4889 C4901 0.959 . S
H4890 C4904 0.929 . S
H4891 C4905 0.931 . S
H4892 C4907 0.930 . S
C4893 H4881 0.930 . S
C4893 C4894 1.399 . S
C4893 C4898 1.399 . S
C4894 C4893 1.399 . S
C4894 C4895 1.376 . S
C4895 H4882 0.930 . S
C4895 C4894 1.376 . S
C4895 C4896 1.388 . S
C4896 H4883 0.930 . S
C4896 C4895 1.388 . S
C4896 C4897 1.390 . S
C4897 C4896 1.390 . S
C4897 C4898 1.394 . S
C4897 C4903 1.465 . S
C4898 C4893 1.399 . S
C4898 C4897 1.394 . S
C4898 C4899 1.516 . S
C4899 C4898 1.516 . S
C4899 C4900 1.502 . S
C4899 C4901 1.561 . S
C4899 C4902 1.526 . S
C4900 H4884 0.959 . S
C4900 H4885 0.959 . S
C4900 H4886 0.961 . S
C4900 C4899 1.502 . S
C4901 H4887 0.960 . S
C4901 H4888 0.961 . S
C4901 H4889 0.959 . S
C4901 C4899 1.561 . S
C4902 C4899 1.526 . S
C4902 C4903 1.396 . S
C4902 C4907 1.390 . S
C4903 C4897 1.465 . S
C4903 C4902 1.396 . S
C4903 C4904 1.399 . S
C4904 H4890 0.929 . S
C4904 C4903 1.399 . S
C4904 C4905 1.385 . S
C4905 H4891 0.931 . S
C4905 C4904 1.385 . S
C4905 C4906 1.389 . S
C4906 C4905 1.389 . S
C4906 C4907 1.387 . S
C4907 H4892 0.930 . S
C4907 C4902 1.390 . S
C4907 C4906 1.387 . S
H4908 C4920 0.930 . S
H4909 C4922 0.930 . S
H4910 C4923 0.930 . S
H4911 C4927 0.959 . S
H4912 C4927 0.959 . S
H4913 C4927 0.961 . S
H4914 C4928 0.960 . S
H4915 C4928 0.961 . S
H4916 C4928 0.959 . S
H4917 C4931 0.929 . S
H4918 C4932 0.931 . S
H4919 C4934 0.930 . S
C4920 H4908 0.930 . S
C4920 C4921 1.399 . S
C4920 C4925 1.399 . S
C4921 C4920 1.399 . S
C4921 C4922 1.376 . S
C4922 H4909 0.930 . S
C4922 C4921 1.376 . S
C4922 C4923 1.388 . S
C4923 H4910 0.930 . S
C4923 C4922 1.388 . S
C4923 C4924 1.390 . S
C4924 C4923 1.390 . S
C4924 C4925 1.394 . S
C4924 C4930 1.465 . S
C4925 C4920 1.399 . S
C4925 C4924 1.394 . S
C4925 C4926 1.516 . S
C4926 C4925 1.516 . S
C4926 C4927 1.502 . S
C4926 C4928 1.561 . S
C4926 C4929 1.526 . S
C4927 H4911 0.959 . S
C4927 H4912 0.959 . S
C4927 H4913 0.961 . S
C4927 C4926 1.502 . S
C4928 H4914 0.960 . S
C4928 H4915 0.961 . S
C4928 H4916 0.959 . S
C4928 C4926 1.561 . S
C4929 C4926 1.526 . S
C4929 C4930 1.396 . S
C4929 C4934 1.390 . S
C4930 C4924 1.465 . S
C4930 C4929 1.396 . S
C4930 C4931 1.399 . S
C4931 H4917 0.929 . S
C4931 C4930 1.399 . S
C4931 C4932 1.385 . S
C4932 H4918 0.931 . S
C4932 C4931 1.385 . S
C4932 C4933 1.389 . S
C4933 C4932 1.389 . S
C4933 C4934 1.387 . S
C4934 H4919 0.930 . S
C4934 C4929 1.390 . S
C4934 C4933 1.387 . S
H4935 C4947 0.930 . S
H4936 C4949 0.930 . S
H4937 C4950 0.930 . S
H4938 C4954 0.959 . S
H4939 C4954 0.959 . S
H4940 C4954 0.961 . S
H4941 C4955 0.960 . S
H4942 C4955 0.961 . S
H4943 C4955 0.959 . S
H4944 C4958 0.929 . S
H4945 C4959 0.931 . S
H4946 C4961 0.930 . S
C4947 H4935 0.930 . S
C4947 C4948 1.399 . S
C4947 C4952 1.399 . S
C4948 C4947 1.399 . S
C4948 C4949 1.376 . S
C4949 H4936 0.930 . S
C4949 C4948 1.376 . S
C4949 C4950 1.388 . S
C4950 H4937 0.930 . S
C4950 C4949 1.388 . S
C4950 C4951 1.390 . S
C4951 C4950 1.390 . S
C4951 C4952 1.394 . S
C4951 C4957 1.465 . S
C4952 C4947 1.399 . S
C4952 C4951 1.394 . S
C4952 C4953 1.516 . S
C4953 C4952 1.516 . S
C4953 C4954 1.502 . S
C4953 C4955 1.561 . S
C4953 C4956 1.526 . S
C4954 H4938 0.959 . S
C4954 H4939 0.959 . S
C4954 H4940 0.961 . S
C4954 C4953 1.502 . S
C4955 H4941 0.960 . S
C4955 H4942 0.961 . S
C4955 H4943 0.959 . S
C4955 C4953 1.561 . S
C4956 C4953 1.526 . S
C4956 C4957 1.396 . S
C4956 C4961 1.390 . S
C4957 C4951 1.465 . S
C4957 C4956 1.396 . S
C4957 C4958 1.399 . S
C4958 H4944 0.929 . S
C4958 C4957 1.399 . S
C4958 C4959 1.385 . S
C4959 H4945 0.931 . S
C4959 C4958 1.385 . S
C4959 C4960 1.389 . S
C4960 C4959 1.389 . S
C4960 C4961 1.387 . S
C4961 H4946 0.930 . S
C4961 C4956 1.390 . S
C4961 C4960 1.387 . S
H4962 C4974 0.930 . S
H4963 C4976 0.930 . S
H4964 C4977 0.930 . S
H4965 C4981 0.959 . S
H4966 C4981 0.959 . S
H4967 C4981 0.961 . S
H4968 C4982 0.960 . S
H4969 C4982 0.961 . S
H4970 C4982 0.959 . S
H4971 C4985 0.929 . S
H4972 C4986 0.931 . S
H4973 C4988 0.930 . S
C4974 H4962 0.930 . S
C4974 C4975 1.399 . S
C4974 C4979 1.399 . S
C4975 C4974 1.399 . S
C4975 C4976 1.376 . S
C4976 H4963 0.930 . S
C4976 C4975 1.376 . S
C4976 C4977 1.388 . S
C4977 H4964 0.930 . S
C4977 C4976 1.388 . S
C4977 C4978 1.390 . S
C4978 C4977 1.390 . S
C4978 C4979 1.394 . S
C4978 C4984 1.465 . S
C4979 C4974 1.399 . S
C4979 C4978 1.394 . S
C4979 C4980 1.516 . S
C4980 C4979 1.516 . S
C4980 C4981 1.502 . S
C4980 C4982 1.561 . S
C4980 C4983 1.526 . S
C4981 H4965 0.959 . S
C4981 H4966 0.959 . S
C4981 H4967 0.961 . S
C4981 C4980 1.502 . S
C4982 H4968 0.960 . S
C4982 H4969 0.961 . S
C4982 H4970 0.959 . S
C4982 C4980 1.561 . S
C4983 C4980 1.526 . S
C4983 C4984 1.396 . S
C4983 C4988 1.390 . S
C4984 C4978 1.465 . S
C4984 C4983 1.396 . S
C4984 C4985 1.399 . S
C4985 H4971 0.929 . S
C4985 C4984 1.399 . S
C4985 C4986 1.385 . S
C4986 H4972 0.931 . S
C4986 C4985 1.385 . S
C4986 C4987 1.389 . S
C4987 C4986 1.389 . S
C4987 C4988 1.387 . S
C4988 H4973 0.930 . S
C4988 C4983 1.390 . S
C4988 C4987 1.387 . S
H4989 C5001 0.930 . S
H4990 C5003 0.930 . S
H4991 C5004 0.930 . S
H4992 C5008 0.959 . S
H4993 C5008 0.959 . S
H4994 C5008 0.961 . S
H4995 C5009 0.960 . S
H4996 C5009 0.961 . S
H4997 C5009 0.959 . S
H4998 C5012 0.929 . S
H4999 C5013 0.931 . S
H5000 C5015 0.930 . S
C5001 H4989 0.930 . S
C5001 C5002 1.399 . S
C5001 C5006 1.399 . S
C5002 C5001 1.399 . S
C5002 C5003 1.376 . S
C5003 H4990 0.930 . S
C5003 C5002 1.376 . S
C5003 C5004 1.388 . S
C5004 H4991 0.930 . S
C5004 C5003 1.388 . S
C5004 C5005 1.390 . S
C5005 C5004 1.390 . S
C5005 C5006 1.394 . S
C5005 C5011 1.465 . S
C5006 C5001 1.399 . S
C5006 C5005 1.394 . S
C5006 C5007 1.516 . S
C5007 C5006 1.516 . S
C5007 C5008 1.502 . S
C5007 C5009 1.561 . S
C5007 C5010 1.526 . S
C5008 H4992 0.959 . S
C5008 H4993 0.959 . S
C5008 H4994 0.961 . S
C5008 C5007 1.502 . S
C5009 H4995 0.960 . S
C5009 H4996 0.961 . S
C5009 H4997 0.959 . S
C5009 C5007 1.561 . S
C5010 C5007 1.526 . S
C5010 C5011 1.396 . S
C5010 C5015 1.390 . S
C5011 C5005 1.465 . S
C5011 C5010 1.396 . S
C5011 C5012 1.399 . S
C5012 H4998 0.929 . S
C5012 C5011 1.399 . S
C5012 C5013 1.385 . S
C5013 H4999 0.931 . S
C5013 C5012 1.385 . S
C5013 C5014 1.389 . S
C5014 C5013 1.389 . S
C5014 C5015 1.387 . S
C5015 H5000 0.930 . S
C5015 C5010 1.390 . S
C5015 C5014 1.387 . S
H5016 C5028 0.930 . S
H5017 C5030 0.930 . S
H5018 C5031 0.930 . S
H5019 C5035 0.959 . S
H5020 C5035 0.959 . S
H5021 C5035 0.961 . S
H5022 C5036 0.960 . S
H5023 C5036 0.961 . S
H5024 C5036 0.959 . S
H5025 C5039 0.929 . S
H5026 C5040 0.931 . S
H5027 C5042 0.930 . S
C5028 H5016 0.930 . S
C5028 C5029 1.399 . S
C5028 C5033 1.399 . S
C5029 C5028 1.399 . S
C5029 C5030 1.376 . S
C5030 H5017 0.930 . S
C5030 C5029 1.376 . S
C5030 C5031 1.388 . S
C5031 H5018 0.930 . S
C5031 C5030 1.388 . S
C5031 C5032 1.390 . S
C5032 C5031 1.390 . S
C5032 C5033 1.394 . S
C5032 C5038 1.465 . S
C5033 C5028 1.399 . S
C5033 C5032 1.394 . S
C5033 C5034 1.516 . S
C5034 C5033 1.516 . S
C5034 C5035 1.502 . S
C5034 C5036 1.561 . S
C5034 C5037 1.526 . S
C5035 H5019 0.959 . S
C5035 H5020 0.959 . S
C5035 H5021 0.961 . S
C5035 C5034 1.502 . S
C5036 H5022 0.960 . S
C5036 H5023 0.961 . S
C5036 H5024 0.959 . S
C5036 C5034 1.561 . S
C5037 C5034 1.526 . S
C5037 C5038 1.396 . S
C5037 C5042 1.390 . S
C5038 C5032 1.465 . S
C5038 C5037 1.396 . S
C5038 C5039 1.399 . S
C5039 H5025 0.929 . S
C5039 C5038 1.399 . S
C5039 C5040 1.385 . S
C5040 H5026 0.931 . S
C5040 C5039 1.385 . S
C5040 C5041 1.389 . S
C5041 C5040 1.389 . S
C5041 C5042 1.387 . S
C5042 H5027 0.930 . S
C5042 C5037 1.390 . S
C5042 C5041 1.387 . S
H5043 C5055 0.930 . S
H5044 C5057 0.930 . S
H5045 C5058 0.930 . S
H5046 C5062 0.959 . S
H5047 C5062 0.959 . S
H5048 C5062 0.961 . S
H5049 C5063 0.960 . S
H5050 C5063 0.961 . S
H5051 C5063 0.959 . S
H5052 C5066 0.929 . S
H5053 C5067 0.931 . S
H5054 C5069 0.930 . S
C5055 H5043 0.930 . S
C5055 C5056 1.399 . S
C5055 C5060 1.399 . S
C5056 C5055 1.399 . S
C5056 C5057 1.376 . S
C5057 H5044 0.930 . S
C5057 C5056 1.376 . S
C5057 C5058 1.388 . S
C5058 H5045 0.930 . S
C5058 C5057 1.388 . S
C5058 C5059 1.390 . S
C5059 C5058 1.390 . S
C5059 C5060 1.394 . S
C5059 C5065 1.465 . S
C5060 C5055 1.399 . S
C5060 C5059 1.394 . S
C5060 C5061 1.516 . S
C5061 C5060 1.516 . S
C5061 C5062 1.502 . S
C5061 C5063 1.561 . S
C5061 C5064 1.526 . S
C5062 H5046 0.959 . S
C5062 H5047 0.959 . S
C5062 H5048 0.961 . S
C5062 C5061 1.502 . S
C5063 H5049 0.960 . S
C5063 H5050 0.961 . S
C5063 H5051 0.959 . S
C5063 C5061 1.561 . S
C5064 C5061 1.526 . S
C5064 C5065 1.396 . S
C5064 C5069 1.390 . S
C5065 C5059 1.465 . S
C5065 C5064 1.396 . S
C5065 C5066 1.399 . S
C5066 H5052 0.929 . S
C5066 C5065 1.399 . S
C5066 C5067 1.385 . S
C5067 H5053 0.931 . S
C5067 C5066 1.385 . S
C5067 C5068 1.389 . S
C5068 C5067 1.389 . S
C5068 C5069 1.387 . S
C5069 H5054 0.930 . S
C5069 C5064 1.390 . S
C5069 C5068 1.387 . S
H5070 C5082 0.930 . S
H5071 C5084 0.930 . S
H5072 C5085 0.930 . S
H5073 C5089 0.959 . S
H5074 C5089 0.959 . S
H5075 C5089 0.961 . S
H5076 C5090 0.960 . S
H5077 C5090 0.961 . S
H5078 C5090 0.959 . S
H5079 C5093 0.929 . S
H5080 C5094 0.931 . S
H5081 C5096 0.930 . S
C5082 H5070 0.930 . S
C5082 C5083 1.399 . S
C5082 C5087 1.399 . S
C5083 C5082 1.399 . S
C5083 C5084 1.376 . S
C5084 H5071 0.930 . S
C5084 C5083 1.376 . S
C5084 C5085 1.388 . S
C5085 H5072 0.930 . S
C5085 C5084 1.388 . S
C5085 C5086 1.390 . S
C5086 C5085 1.390 . S
C5086 C5087 1.394 . S
C5086 C5092 1.465 . S
C5087 C5082 1.399 . S
C5087 C5086 1.394 . S
C5087 C5088 1.516 . S
C5088 C5087 1.516 . S
C5088 C5089 1.502 . S
C5088 C5090 1.561 . S
C5088 C5091 1.526 . S
C5089 H5073 0.959 . S
C5089 H5074 0.959 . S
C5089 H5075 0.961 . S
C5089 C5088 1.502 . S
C5090 H5076 0.960 . S
C5090 H5077 0.961 . S
C5090 H5078 0.959 . S
C5090 C5088 1.561 . S
C5091 C5088 1.526 . S
C5091 C5092 1.396 . S
C5091 C5096 1.390 . S
C5092 C5086 1.465 . S
C5092 C5091 1.396 . S
C5092 C5093 1.399 . S
C5093 H5079 0.929 . S
C5093 C5092 1.399 . S
C5093 C5094 1.385 . S
C5094 H5080 0.931 . S
C5094 C5093 1.385 . S
C5094 C5095 1.389 . S
C5095 C5094 1.389 . S
C5095 C5096 1.387 . S
C5096 H5081 0.930 . S
C5096 C5091 1.390 . S
C5096 C5095 1.387 . S
H5097 C5109 0.930 . S
H5098 C5111 0.930 . S
H5099 C5112 0.930 . S
H5100 C5116 0.959 . S
H5101 C5116 0.959 . S
H5102 C5116 0.961 . S
H5103 C5117 0.960 . S
H5104 C5117 0.961 . S
H5105 C5117 0.959 . S
H5106 C5120 0.929 . S
H5107 C5121 0.931 . S
H5108 C5123 0.930 . S
C5109 H5097 0.930 . S
C5109 C5110 1.399 . S
C5109 C5114 1.399 . S
C5110 C5109 1.399 . S
C5110 C5111 1.376 . S
C5111 H5098 0.930 . S
C5111 C5110 1.376 . S
C5111 C5112 1.388 . S
C5112 H5099 0.930 . S
C5112 C5111 1.388 . S
C5112 C5113 1.390 . S
C5113 C5112 1.390 . S
C5113 C5114 1.394 . S
C5113 C5119 1.465 . S
C5114 C5109 1.399 . S
C5114 C5113 1.394 . S
C5114 C5115 1.516 . S
C5115 C5114 1.516 . S
C5115 C5116 1.502 . S
C5115 C5117 1.561 . S
C5115 C5118 1.526 . S
C5116 H5100 0.959 . S
C5116 H5101 0.959 . S
C5116 H5102 0.961 . S
C5116 C5115 1.502 . S
C5117 H5103 0.960 . S
C5117 H5104 0.961 . S
C5117 H5105 0.959 . S
C5117 C5115 1.561 . S
C5118 C5115 1.526 . S
C5118 C5119 1.396 . S
C5118 C5123 1.390 . S
C5119 C5113 1.465 . S
C5119 C5118 1.396 . S
C5119 C5120 1.399 . S
C5120 H5106 0.929 . S
C5120 C5119 1.399 . S
C5120 C5121 1.385 . S
C5121 H5107 0.931 . S
C5121 C5120 1.385 . S
C5121 C5122 1.389 . S
C5122 C5121 1.389 . S
C5122 C5123 1.387 . S
C5123 H5108 0.930 . S
C5123 C5118 1.390 . S
C5123 C5122 1.387 . S
H5124 C5136 0.930 . S
H5125 C5138 0.930 . S
H5126 C5139 0.930 . S
H5127 C5143 0.959 . S
H5128 C5143 0.959 . S
H5129 C5143 0.961 . S
H5130 C5144 0.960 . S
H5131 C5144 0.961 . S
H5132 C5144 0.959 . S
H5133 C5147 0.929 . S
H5134 C5148 0.931 . S
H5135 C5150 0.930 . S
C5136 H5124 0.930 . S
C5136 C5137 1.399 . S
C5136 C5141 1.399 . S
C5137 C5136 1.399 . S
C5137 C5138 1.376 . S
C5138 H5125 0.930 . S
C5138 C5137 1.376 . S
C5138 C5139 1.388 . S
C5139 H5126 0.930 . S
C5139 C5138 1.388 . S
C5139 C5140 1.390 . S
C5140 C5139 1.390 . S
C5140 C5141 1.394 . S
C5140 C5146 1.465 . S
C5141 C5136 1.399 . S
C5141 C5140 1.394 . S
C5141 C5142 1.516 . S
C5142 C5141 1.516 . S
C5142 C5143 1.502 . S
C5142 C5144 1.561 . S
C5142 C5145 1.526 . S
C5143 H5127 0.959 . S
C5143 H5128 0.959 . S
C5143 H5129 0.961 . S
C5143 C5142 1.502 . S
C5144 H5130 0.960 . S
C5144 H5131 0.961 . S
C5144 H5132 0.959 . S
C5144 C5142 1.561 . S
C5145 C5142 1.526 . S
C5145 C5146 1.396 . S
C5145 C5150 1.390 . S
C5146 C5140 1.465 . S
C5146 C5145 1.396 . S
C5146 C5147 1.399 . S
C5147 H5133 0.929 . S
C5147 C5146 1.399 . S
C5147 C5148 1.385 . S
C5148 H5134 0.931 . S
C5148 C5147 1.385 . S
C5148 C5149 1.389 . S
C5149 C5148 1.389 . S
C5149 C5150 1.387 . S
C5150 H5135 0.930 . S
C5150 C5145 1.390 . S
C5150 C5149 1.387 . S
H5151 C5163 0.930 . S
H5152 C5165 0.930 . S
H5153 C5166 0.930 . S
H5154 C5170 0.959 . S
H5155 C5170 0.959 . S
H5156 C5170 0.961 . S
H5157 C5171 0.960 . S
H5158 C5171 0.961 . S
H5159 C5171 0.959 . S
H5160 C5174 0.929 . S
H5161 C5175 0.931 . S
H5162 C5177 0.930 . S
C5163 H5151 0.930 . S
C5163 C5164 1.399 . S
C5163 C5168 1.399 . S
C5164 C5163 1.399 . S
C5164 C5165 1.376 . S
C5165 H5152 0.930 . S
C5165 C5164 1.376 . S
C5165 C5166 1.388 . S
C5166 H5153 0.930 . S
C5166 C5165 1.388 . S
C5166 C5167 1.390 . S
C5167 C5166 1.390 . S
C5167 C5168 1.394 . S
C5167 C5173 1.465 . S
C5168 C5163 1.399 . S
C5168 C5167 1.394 . S
C5168 C5169 1.516 . S
C5169 C5168 1.516 . S
C5169 C5170 1.502 . S
C5169 C5171 1.561 . S
C5169 C5172 1.526 . S
C5170 H5154 0.959 . S
C5170 H5155 0.959 . S
C5170 H5156 0.961 . S
C5170 C5169 1.502 . S
C5171 H5157 0.960 . S
C5171 H5158 0.961 . S
C5171 H5159 0.959 . S
C5171 C5169 1.561 . S
C5172 C5169 1.526 . S
C5172 C5173 1.396 . S
C5172 C5177 1.390 . S
C5173 C5167 1.465 . S
C5173 C5172 1.396 . S
C5173 C5174 1.399 . S
C5174 H5160 0.929 . S
C5174 C5173 1.399 . S
C5174 C5175 1.385 . S
C5175 H5161 0.931 . S
C5175 C5174 1.385 . S
C5175 C5176 1.389 . S
C5176 C5175 1.389 . S
C5176 C5177 1.387 . S
C5177 H5162 0.930 . S
C5177 C5172 1.390 . S
C5177 C5176 1.387 . S
H5178 C5190 0.930 . S
H5179 C5192 0.930 . S
H5180 C5193 0.930 . S
H5181 C5197 0.959 . S
H5182 C5197 0.959 . S
H5183 C5197 0.961 . S
H5184 C5198 0.960 . S
H5185 C5198 0.961 . S
H5186 C5198 0.959 . S
H5187 C5201 0.929 . S
H5188 C5202 0.931 . S
H5189 C5204 0.930 . S
C5190 H5178 0.930 . S
C5190 C5191 1.399 . S
C5190 C5195 1.399 . S
C5191 C5190 1.399 . S
C5191 C5192 1.376 . S
C5192 H5179 0.930 . S
C5192 C5191 1.376 . S
C5192 C5193 1.388 . S
C5193 H5180 0.930 . S
C5193 C5192 1.388 . S
C5193 C5194 1.390 . S
C5194 C5193 1.390 . S
C5194 C5195 1.394 . S
C5194 C5200 1.465 . S
C5195 C5190 1.399 . S
C5195 C5194 1.394 . S
C5195 C5196 1.516 . S
C5196 C5195 1.516 . S
C5196 C5197 1.502 . S
C5196 C5198 1.561 . S
C5196 C5199 1.526 . S
C5197 H5181 0.959 . S
C5197 H5182 0.959 . S
C5197 H5183 0.961 . S
C5197 C5196 1.502 . S
C5198 H5184 0.960 . S
C5198 H5185 0.961 . S
C5198 H5186 0.959 . S
C5198 C5196 1.561 . S
C5199 C5196 1.526 . S
C5199 C5200 1.396 . S
C5199 C5204 1.390 . S
C5200 C5194 1.465 . S
C5200 C5199 1.396 . S
C5200 C5201 1.399 . S
C5201 H5187 0.929 . S
C5201 C5200 1.399 . S
C5201 C5202 1.385 . S
C5202 H5188 0.931 . S
C5202 C5201 1.385 . S
C5202 C5203 1.389 . S
C5203 C5202 1.389 . S
C5203 C5204 1.387 . S
C5204 H5189 0.930 . S
C5204 C5199 1.390 . S
C5204 C5203 1.387 . S
H5205 C5217 0.930 . S
H5206 C5219 0.930 . S
H5207 C5220 0.930 . S
H5208 C5224 0.959 . S
H5209 C5224 0.959 . S
H5210 C5224 0.961 . S
H5211 C5225 0.960 . S
H5212 C5225 0.961 . S
H5213 C5225 0.959 . S
H5214 C5228 0.929 . S
H5215 C5229 0.931 . S
H5216 C5231 0.930 . S
C5217 H5205 0.930 . S
C5217 C5218 1.399 . S
C5217 C5222 1.399 . S
C5218 C5217 1.399 . S
C5218 C5219 1.376 . S
C5219 H5206 0.930 . S
C5219 C5218 1.376 . S
C5219 C5220 1.388 . S
C5220 H5207 0.930 . S
C5220 C5219 1.388 . S
C5220 C5221 1.390 . S
C5221 C5220 1.390 . S
C5221 C5222 1.394 . S
C5221 C5227 1.465 . S
C5222 C5217 1.399 . S
C5222 C5221 1.394 . S
C5222 C5223 1.516 . S
C5223 C5222 1.516 . S
C5223 C5224 1.502 . S
C5223 C5225 1.561 . S
C5223 C5226 1.526 . S
C5224 H5208 0.959 . S
C5224 H5209 0.959 . S
C5224 H5210 0.961 . S
C5224 C5223 1.502 . S
C5225 H5211 0.960 . S
C5225 H5212 0.961 . S
C5225 H5213 0.959 . S
C5225 C5223 1.561 . S
C5226 C5223 1.526 . S
C5226 C5227 1.396 . S
C5226 C5231 1.390 . S
C5227 C5221 1.465 . S
C5227 C5226 1.396 . S
C5227 C5228 1.399 . S
C5228 H5214 0.929 . S
C5228 C5227 1.399 . S
C5228 C5229 1.385 . S
C5229 H5215 0.931 . S
C5229 C5228 1.385 . S
C5229 C5230 1.389 . S
C5230 C5229 1.389 . S
C5230 C5231 1.387 . S
C5231 H5216 0.930 . S
C5231 C5226 1.390 . S
C5231 C5230 1.387 . S
H5232 C5244 0.930 . S
H5233 C5246 0.930 . S
H5234 C5247 0.930 . S
H5235 C5251 0.959 . S
H5236 C5251 0.959 . S
H5237 C5251 0.961 . S
H5238 C5252 0.960 . S
H5239 C5252 0.961 . S
H5240 C5252 0.959 . S
H5241 C5255 0.929 . S
H5242 C5256 0.931 . S
H5243 C5258 0.930 . S
C5244 H5232 0.930 . S
C5244 C5245 1.399 . S
C5244 C5249 1.399 . S
C5245 C5244 1.399 . S
C5245 C5246 1.376 . S
C5246 H5233 0.930 . S
C5246 C5245 1.376 . S
C5246 C5247 1.388 . S
C5247 H5234 0.930 . S
C5247 C5246 1.388 . S
C5247 C5248 1.390 . S
C5248 C5247 1.390 . S
C5248 C5249 1.394 . S
C5248 C5254 1.465 . S
C5249 C5244 1.399 . S
C5249 C5248 1.394 . S
C5249 C5250 1.516 . S
C5250 C5249 1.516 . S
C5250 C5251 1.502 . S
C5250 C5252 1.561 . S
C5250 C5253 1.526 . S
C5251 H5235 0.959 . S
C5251 H5236 0.959 . S
C5251 H5237 0.961 . S
C5251 C5250 1.502 . S
C5252 H5238 0.960 . S
C5252 H5239 0.961 . S
C5252 H5240 0.959 . S
C5252 C5250 1.561 . S
C5253 C5250 1.526 . S
C5253 C5254 1.396 . S
C5253 C5258 1.390 . S
C5254 C5248 1.465 . S
C5254 C5253 1.396 . S
C5254 C5255 1.399 . S
C5255 H5241 0.929 . S
C5255 C5254 1.399 . S
C5255 C5256 1.385 . S
C5256 H5242 0.931 . S
C5256 C5255 1.385 . S
C5256 C5257 1.389 . S
C5257 C5256 1.389 . S
C5257 C5258 1.387 . S
C5258 H5243 0.930 . S
C5258 C5253 1.390 . S
C5258 C5257 1.387 . S
H5259 C5271 0.930 . S
H5260 C5273 0.930 . S
H5261 C5274 0.930 . S
H5262 C5278 0.959 . S
H5263 C5278 0.959 . S
H5264 C5278 0.961 . S
H5265 C5279 0.960 . S
H5266 C5279 0.961 . S
H5267 C5279 0.959 . S
H5268 C5282 0.929 . S
H5269 C5283 0.931 . S
H5270 C5285 0.930 . S
C5271 H5259 0.930 . S
C5271 C5272 1.399 . S
C5271 C5276 1.399 . S
C5272 C5271 1.399 . S
C5272 C5273 1.376 . S
C5273 H5260 0.930 . S
C5273 C5272 1.376 . S
C5273 C5274 1.388 . S
C5274 H5261 0.930 . S
C5274 C5273 1.388 . S
C5274 C5275 1.390 . S
C5275 C5274 1.390 . S
C5275 C5276 1.394 . S
C5275 C5281 1.465 . S
C5276 C5271 1.399 . S
C5276 C5275 1.394 . S
C5276 C5277 1.516 . S
C5277 C5276 1.516 . S
C5277 C5278 1.502 . S
C5277 C5279 1.561 . S
C5277 C5280 1.526 . S
C5278 H5262 0.959 . S
C5278 H5263 0.959 . S
C5278 H5264 0.961 . S
C5278 C5277 1.502 . S
C5279 H5265 0.960 . S
C5279 H5266 0.961 . S
C5279 H5267 0.959 . S
C5279 C5277 1.561 . S
C5280 C5277 1.526 . S
C5280 C5281 1.396 . S
C5280 C5285 1.390 . S
C5281 C5275 1.465 . S
C5281 C5280 1.396 . S
C5281 C5282 1.399 . S
C5282 H5268 0.929 . S
C5282 C5281 1.399 . S
C5282 C5283 1.385 . S
C5283 H5269 0.931 . S
C5283 C5282 1.385 . S
C5283 C5284 1.389 . S
C5284 C5283 1.389 . S
C5284 C5285 1.387 . S
C5285 H5270 0.930 . S
C5285 C5280 1.390 . S
C5285 C5284 1.387 . S
H5286 C5298 0.930 . S
H5287 C5300 0.930 . S
H5288 C5301 0.930 . S
H5289 C5305 0.959 . S
H5290 C5305 0.959 . S
H5291 C5305 0.961 . S
H5292 C5306 0.960 . S
H5293 C5306 0.961 . S
H5294 C5306 0.959 . S
H5295 C5309 0.929 . S
H5296 C5310 0.931 . S
H5297 C5312 0.930 . S
C5298 H5286 0.930 . S
C5298 C5299 1.399 . S
C5298 C5303 1.399 . S
C5299 C5298 1.399 . S
C5299 C5300 1.376 . S
C5300 H5287 0.930 . S
C5300 C5299 1.376 . S
C5300 C5301 1.388 . S
C5301 H5288 0.930 . S
C5301 C5300 1.388 . S
C5301 C5302 1.390 . S
C5302 C5301 1.390 . S
C5302 C5303 1.394 . S
C5302 C5308 1.465 . S
C5303 C5298 1.399 . S
C5303 C5302 1.394 . S
C5303 C5304 1.516 . S
C5304 C5303 1.516 . S
C5304 C5305 1.502 . S
C5304 C5306 1.561 . S
C5304 C5307 1.526 . S
C5305 H5289 0.959 . S
C5305 H5290 0.959 . S
C5305 H5291 0.961 . S
C5305 C5304 1.502 . S
C5306 H5292 0.960 . S
C5306 H5293 0.961 . S
C5306 H5294 0.959 . S
C5306 C5304 1.561 . S
C5307 C5304 1.526 . S
C5307 C5308 1.396 . S
C5307 C5312 1.390 . S
C5308 C5302 1.465 . S
C5308 C5307 1.396 . S
C5308 C5309 1.399 . S
C5309 H5295 0.929 . S
C5309 C5308 1.399 . S
C5309 C5310 1.385 . S
C5310 H5296 0.931 . S
C5310 C5309 1.385 . S
C5310 C5311 1.389 . S
C5311 C5310 1.389 . S
C5311 C5312 1.387 . S
C5312 H5297 0.930 . S
C5312 C5307 1.390 . S
C5312 C5311 1.387 . S
H5313 C5325 0.930 . S
H5314 C5327 0.930 . S
H5315 C5328 0.930 . S
H5316 C5332 0.959 . S
H5317 C5332 0.959 . S
H5318 C5332 0.961 . S
H5319 C5333 0.960 . S
H5320 C5333 0.961 . S
H5321 C5333 0.959 . S
H5322 C5336 0.929 . S
H5323 C5337 0.931 . S
H5324 C5339 0.930 . S
C5325 H5313 0.930 . S
C5325 C5326 1.399 . S
C5325 C5330 1.399 . S
C5326 C5325 1.399 . S
C5326 C5327 1.376 . S
C5327 H5314 0.930 . S
C5327 C5326 1.376 . S
C5327 C5328 1.388 . S
C5328 H5315 0.930 . S
C5328 C5327 1.388 . S
C5328 C5329 1.390 . S
C5329 C5328 1.390 . S
C5329 C5330 1.394 . S
C5329 C5335 1.465 . S
C5330 C5325 1.399 . S
C5330 C5329 1.394 . S
C5330 C5331 1.516 . S
C5331 C5330 1.516 . S
C5331 C5332 1.502 . S
C5331 C5333 1.561 . S
C5331 C5334 1.526 . S
C5332 H5316 0.959 . S
C5332 H5317 0.959 . S
C5332 H5318 0.961 . S
C5332 C5331 1.502 . S
C5333 H5319 0.960 . S
C5333 H5320 0.961 . S
C5333 H5321 0.959 . S
C5333 C5331 1.561 . S
C5334 C5331 1.526 . S
C5334 C5335 1.396 . S
C5334 C5339 1.390 . S
C5335 C5329 1.465 . S
C5335 C5334 1.396 . S
C5335 C5336 1.399 . S
C5336 H5322 0.929 . S
C5336 C5335 1.399 . S
C5336 C5337 1.385 . S
C5337 H5323 0.931 . S
C5337 C5336 1.385 . S
C5337 C5338 1.389 . S
C5338 C5337 1.389 . S
C5338 C5339 1.387 . S
C5339 H5324 0.930 . S
C5339 C5334 1.390 . S
C5339 C5338 1.387 . S
H5340 C5352 0.930 . S
H5341 C5354 0.930 . S
H5342 C5355 0.930 . S
H5343 C5359 0.959 . S
H5344 C5359 0.959 . S
H5345 C5359 0.961 . S
H5346 C5360 0.960 . S
H5347 C5360 0.961 . S
H5348 C5360 0.959 . S
H5349 C5363 0.929 . S
H5350 C5364 0.931 . S
H5351 C5366 0.930 . S
C5352 H5340 0.930 . S
C5352 C5353 1.399 . S
C5352 C5357 1.399 . S
C5353 C5352 1.399 . S
C5353 C5354 1.376 . S
C5354 H5341 0.930 . S
C5354 C5353 1.376 . S
C5354 C5355 1.388 . S
C5355 H5342 0.930 . S
C5355 C5354 1.388 . S
C5355 C5356 1.390 . S
C5356 C5355 1.390 . S
C5356 C5357 1.394 . S
C5356 C5362 1.465 . S
C5357 C5352 1.399 . S
C5357 C5356 1.394 . S
C5357 C5358 1.516 . S
C5358 C5357 1.516 . S
C5358 C5359 1.502 . S
C5358 C5360 1.561 . S
C5358 C5361 1.526 . S
C5359 H5343 0.959 . S
C5359 H5344 0.959 . S
C5359 H5345 0.961 . S
C5359 C5358 1.502 . S
C5360 H5346 0.960 . S
C5360 H5347 0.961 . S
C5360 H5348 0.959 . S
C5360 C5358 1.561 . S
C5361 C5358 1.526 . S
C5361 C5362 1.396 . S
C5361 C5366 1.390 . S
C5362 C5356 1.465 . S
C5362 C5361 1.396 . S
C5362 C5363 1.399 . S
C5363 H5349 0.929 . S
C5363 C5362 1.399 . S
C5363 C5364 1.385 . S
C5364 H5350 0.931 . S
C5364 C5363 1.385 . S
C5364 C5365 1.389 . S
C5365 C5364 1.389 . S
C5365 C5366 1.387 . S
C5366 H5351 0.930 . S
C5366 C5361 1.390 . S
C5366 C5365 1.387 . S
H5367 C5379 0.930 . S
H5368 C5381 0.930 . S
H5369 C5382 0.930 . S
H5370 C5386 0.959 . S
H5371 C5386 0.959 . S
H5372 C5386 0.961 . S
H5373 C5387 0.960 . S
H5374 C5387 0.961 . S
H5375 C5387 0.959 . S
H5376 C5390 0.929 . S
H5377 C5391 0.931 . S
H5378 C5393 0.930 . S
C5379 H5367 0.930 . S
C5379 C5380 1.399 . S
C5379 C5384 1.399 . S
C5380 C5379 1.399 . S
C5380 C5381 1.376 . S
C5381 H5368 0.930 . S
C5381 C5380 1.376 . S
C5381 C5382 1.388 . S
C5382 H5369 0.930 . S
C5382 C5381 1.388 . S
C5382 C5383 1.390 . S
C5383 C5382 1.390 . S
C5383 C5384 1.394 . S
C5383 C5389 1.465 . S
C5384 C5379 1.399 . S
C5384 C5383 1.394 . S
C5384 C5385 1.516 . S
C5385 C5384 1.516 . S
C5385 C5386 1.502 . S
C5385 C5387 1.561 . S
C5385 C5388 1.526 . S
C5386 H5370 0.959 . S
C5386 H5371 0.959 . S
C5386 H5372 0.961 . S
C5386 C5385 1.502 . S
C5387 H5373 0.960 . S
C5387 H5374 0.961 . S
C5387 H5375 0.959 . S
C5387 C5385 1.561 . S
C5388 C5385 1.526 . S
C5388 C5389 1.396 . S
C5388 C5393 1.390 . S
C5389 C5383 1.465 . S
C5389 C5388 1.396 . S
C5389 C5390 1.399 . S
C5390 H5376 0.929 . S
C5390 C5389 1.399 . S
C5390 C5391 1.385 . S
C5391 H5377 0.931 . S
C5391 C5390 1.385 . S
C5391 C5392 1.389 . S
C5392 C5391 1.389 . S
C5392 C5393 1.387 . S
C5393 H5378 0.930 . S
C5393 C5388 1.390 . S
C5393 C5392 1.387 . S
H5394 C5406 0.930 . S
H5395 C5408 0.930 . S
H5396 C5409 0.930 . S
H5397 C5413 0.959 . S
H5398 C5413 0.959 . S
H5399 C5413 0.961 . S
H5400 C5414 0.960 . S
H5401 C5414 0.961 . S
H5402 C5414 0.959 . S
H5403 C5417 0.929 . S
H5404 C5418 0.931 . S
H5405 C5420 0.930 . S
C5406 H5394 0.930 . S
C5406 C5407 1.399 . S
C5406 C5411 1.399 . S
C5407 C5406 1.399 . S
C5407 C5408 1.376 . S
C5408 H5395 0.930 . S
C5408 C5407 1.376 . S
C5408 C5409 1.388 . S
C5409 H5396 0.930 . S
C5409 C5408 1.388 . S
C5409 C5410 1.390 . S
C5410 C5409 1.390 . S
C5410 C5411 1.394 . S
C5410 C5416 1.465 . S
C5411 C5406 1.399 . S
C5411 C5410 1.394 . S
C5411 C5412 1.516 . S
C5412 C5411 1.516 . S
C5412 C5413 1.502 . S
C5412 C5414 1.561 . S
C5412 C5415 1.526 . S
C5413 H5397 0.959 . S
C5413 H5398 0.959 . S
C5413 H5399 0.961 . S
C5413 C5412 1.502 . S
C5414 H5400 0.960 . S
C5414 H5401 0.961 . S
C5414 H5402 0.959 . S
C5414 C5412 1.561 . S
C5415 C5412 1.526 . S
C5415 C5416 1.396 . S
C5415 C5420 1.390 . S
C5416 C5410 1.465 . S
C5416 C5415 1.396 . S
C5416 C5417 1.399 . S
C5417 H5403 0.929 . S
C5417 C5416 1.399 . S
C5417 C5418 1.385 . S
C5418 H5404 0.931 . S
C5418 C5417 1.385 . S
C5418 C5419 1.389 . S
C5419 C5418 1.389 . S
C5419 C5420 1.387 . S
C5420 H5405 0.930 . S
C5420 C5415 1.390 . S
C5420 C5419 1.387 . S
H5421 C5433 0.930 . S
H5422 C5435 0.930 . S
H5423 C5436 0.930 . S
H5424 C5440 0.959 . S
H5425 C5440 0.959 . S
H5426 C5440 0.961 . S
H5427 C5441 0.960 . S
H5428 C5441 0.961 . S
H5429 C5441 0.959 . S
H5430 C5444 0.929 . S
H5431 C5445 0.931 . S
H5432 C5447 0.930 . S
C5433 H5421 0.930 . S
C5433 C5434 1.399 . S
C5433 C5438 1.399 . S
C5434 C5433 1.399 . S
C5434 C5435 1.376 . S
C5435 H5422 0.930 . S
C5435 C5434 1.376 . S
C5435 C5436 1.388 . S
C5436 H5423 0.930 . S
C5436 C5435 1.388 . S
C5436 C5437 1.390 . S
C5437 C5436 1.390 . S
C5437 C5438 1.394 . S
C5437 C5443 1.465 . S
C5438 C5433 1.399 . S
C5438 C5437 1.394 . S
C5438 C5439 1.516 . S
C5439 C5438 1.516 . S
C5439 C5440 1.502 . S
C5439 C5441 1.561 . S
C5439 C5442 1.526 . S
C5440 H5424 0.959 . S
C5440 H5425 0.959 . S
C5440 H5426 0.961 . S
C5440 C5439 1.502 . S
C5441 H5427 0.960 . S
C5441 H5428 0.961 . S
C5441 H5429 0.959 . S
C5441 C5439 1.561 . S
C5442 C5439 1.526 . S
C5442 C5443 1.396 . S
C5442 C5447 1.390 . S
C5443 C5437 1.465 . S
C5443 C5442 1.396 . S
C5443 C5444 1.399 . S
C5444 H5430 0.929 . S
C5444 C5443 1.399 . S
C5444 C5445 1.385 . S
C5445 H5431 0.931 . S
C5445 C5444 1.385 . S
C5445 C5446 1.389 . S
C5446 C5445 1.389 . S
C5446 C5447 1.387 . S
C5447 H5432 0.930 . S
C5447 C5442 1.390 . S
C5447 C5446 1.387 . S
H5448 C5460 0.930 . S
H5449 C5462 0.930 . S
H5450 C5463 0.930 . S
H5451 C5467 0.959 . S
H5452 C5467 0.959 . S
H5453 C5467 0.961 . S
H5454 C5468 0.960 . S
H5455 C5468 0.961 . S
H5456 C5468 0.959 . S
H5457 C5471 0.929 . S
H5458 C5472 0.931 . S
H5459 C5474 0.930 . S
C5460 H5448 0.930 . S
C5460 C5461 1.399 . S
C5460 C5465 1.399 . S
C5461 C5460 1.399 . S
C5461 C5462 1.376 . S
C5462 H5449 0.930 . S
C5462 C5461 1.376 . S
C5462 C5463 1.388 . S
C5463 H5450 0.930 . S
C5463 C5462 1.388 . S
C5463 C5464 1.390 . S
C5464 C5463 1.390 . S
C5464 C5465 1.394 . S
C5464 C5470 1.465 . S
C5465 C5460 1.399 . S
C5465 C5464 1.394 . S
C5465 C5466 1.516 . S
C5466 C5465 1.516 . S
C5466 C5467 1.502 . S
C5466 C5468 1.561 . S
C5466 C5469 1.526 . S
C5467 H5451 0.959 . S
C5467 H5452 0.959 . S
C5467 H5453 0.961 . S
C5467 C5466 1.502 . S
C5468 H5454 0.960 . S
C5468 H5455 0.961 . S
C5468 H5456 0.959 . S
C5468 C5466 1.561 . S
C5469 C5466 1.526 . S
C5469 C5470 1.396 . S
C5469 C5474 1.390 . S
C5470 C5464 1.465 . S
C5470 C5469 1.396 . S
C5470 C5471 1.399 . S
C5471 H5457 0.929 . S
C5471 C5470 1.399 . S
C5471 C5472 1.385 . S
C5472 H5458 0.931 . S
C5472 C5471 1.385 . S
C5472 C5473 1.389 . S
C5473 C5472 1.389 . S
C5473 C5474 1.387 . S
C5474 H5459 0.930 . S
C5474 C5469 1.390 . S
C5474 C5473 1.387 . S
H5475 C5487 0.930 . S
H5476 C5489 0.930 . S
H5477 C5490 0.930 . S
H5478 C5494 0.959 . S
H5479 C5494 0.959 . S
H5480 C5494 0.961 . S
H5481 C5495 0.960 . S
H5482 C5495 0.961 . S
H5483 C5495 0.959 . S
H5484 C5498 0.929 . S
H5485 C5499 0.931 . S
H5486 C5501 0.930 . S
C5487 H5475 0.930 . S
C5487 C5488 1.399 . S
C5487 C5492 1.399 . S
C5488 C5487 1.399 . S
C5488 C5489 1.376 . S
C5489 H5476 0.930 . S
C5489 C5488 1.376 . S
C5489 C5490 1.388 . S
C5490 H5477 0.930 . S
C5490 C5489 1.388 . S
C5490 C5491 1.390 . S
C5491 C5490 1.390 . S
C5491 C5492 1.394 . S
C5491 C5497 1.465 . S
C5492 C5487 1.399 . S
C5492 C5491 1.394 . S
C5492 C5493 1.516 . S
C5493 C5492 1.516 . S
C5493 C5494 1.502 . S
C5493 C5495 1.561 . S
C5493 C5496 1.526 . S
C5494 H5478 0.959 . S
C5494 H5479 0.959 . S
C5494 H5480 0.961 . S
C5494 C5493 1.502 . S
C5495 H5481 0.960 . S
C5495 H5482 0.961 . S
C5495 H5483 0.959 . S
C5495 C5493 1.561 . S
C5496 C5493 1.526 . S
C5496 C5497 1.396 . S
C5496 C5501 1.390 . S
C5497 C5491 1.465 . S
C5497 C5496 1.396 . S
C5497 C5498 1.399 . S
C5498 H5484 0.929 . S
C5498 C5497 1.399 . S
C5498 C5499 1.385 . S
C5499 H5485 0.931 . S
C5499 C5498 1.385 . S
C5499 C5500 1.389 . S
C5500 C5499 1.389 . S
C5500 C5501 1.387 . S
C5501 H5486 0.930 . S
C5501 C5496 1.390 . S
C5501 C5500 1.387 . S
H5502 C5514 0.930 . S
H5503 C5516 0.930 . S
H5504 C5517 0.930 . S
H5505 C5521 0.959 . S
H5506 C5521 0.959 . S
H5507 C5521 0.961 . S
H5508 C5522 0.960 . S
H5509 C5522 0.961 . S
H5510 C5522 0.959 . S
H5511 C5525 0.929 . S
H5512 C5526 0.931 . S
H5513 C5528 0.930 . S
C5514 H5502 0.930 . S
C5514 C5515 1.399 . S
C5514 C5519 1.399 . S
C5515 C5514 1.399 . S
C5515 C5516 1.376 . S
C5516 H5503 0.930 . S
C5516 C5515 1.376 . S
C5516 C5517 1.388 . S
C5517 H5504 0.930 . S
C5517 C5516 1.388 . S
C5517 C5518 1.390 . S
C5518 C5517 1.390 . S
C5518 C5519 1.394 . S
C5518 C5524 1.465 . S
C5519 C5514 1.399 . S
C5519 C5518 1.394 . S
C5519 C5520 1.516 . S
C5520 C5519 1.516 . S
C5520 C5521 1.502 . S
C5520 C5522 1.561 . S
C5520 C5523 1.526 . S
C5521 H5505 0.959 . S
C5521 H5506 0.959 . S
C5521 H5507 0.961 . S
C5521 C5520 1.502 . S
C5522 H5508 0.960 . S
C5522 H5509 0.961 . S
C5522 H5510 0.959 . S
C5522 C5520 1.561 . S
C5523 C5520 1.526 . S
C5523 C5524 1.396 . S
C5523 C5528 1.390 . S
C5524 C5518 1.465 . S
C5524 C5523 1.396 . S
C5524 C5525 1.399 . S
C5525 H5511 0.929 . S
C5525 C5524 1.399 . S
C5525 C5526 1.385 . S
C5526 H5512 0.931 . S
C5526 C5525 1.385 . S
C5526 C5527 1.389 . S
C5527 C5526 1.389 . S
C5527 C5528 1.387 . S
C5528 H5513 0.930 . S
C5528 C5523 1.390 . S
C5528 C5527 1.387 . S
H5529 C5541 0.930 . S
H5530 C5543 0.930 . S
H5531 C5544 0.930 . S
H5532 C5548 0.959 . S
H5533 C5548 0.959 . S
H5534 C5548 0.961 . S
H5535 C5549 0.960 . S
H5536 C5549 0.961 . S
H5537 C5549 0.959 . S
H5538 C5552 0.929 . S
H5539 C5553 0.931 . S
H5540 C5555 0.930 . S
C5541 H5529 0.930 . S
C5541 C5542 1.399 . S
C5541 C5546 1.399 . S
C5542 C5541 1.399 . S
C5542 C5543 1.376 . S
C5543 H5530 0.930 . S
C5543 C5542 1.376 . S
C5543 C5544 1.388 . S
C5544 H5531 0.930 . S
C5544 C5543 1.388 . S
C5544 C5545 1.390 . S
C5545 C5544 1.390 . S
C5545 C5546 1.394 . S
C5545 C5551 1.465 . S
C5546 C5541 1.399 . S
C5546 C5545 1.394 . S
C5546 C5547 1.516 . S
C5547 C5546 1.516 . S
C5547 C5548 1.502 . S
C5547 C5549 1.561 . S
C5547 C5550 1.526 . S
C5548 H5532 0.959 . S
C5548 H5533 0.959 . S
C5548 H5534 0.961 . S
C5548 C5547 1.502 . S
C5549 H5535 0.960 . S
C5549 H5536 0.961 . S
C5549 H5537 0.959 . S
C5549 C5547 1.561 . S
C5550 C5547 1.526 . S
C5550 C5551 1.396 . S
C5550 C5555 1.390 . S
C5551 C5545 1.465 . S
C5551 C5550 1.396 . S
C5551 C5552 1.399 . S
C5552 H5538 0.929 . S
C5552 C5551 1.399 . S
C5552 C5553 1.385 . S
C5553 H5539 0.931 . S
C5553 C5552 1.385 . S
C5553 C5554 1.389 . S
C5554 C5553 1.389 . S
C5554 C5555 1.387 . S
C5555 H5540 0.930 . S
C5555 C5550 1.390 . S
C5555 C5554 1.387 . S
H5556 C5568 0.930 . S
H5557 C5570 0.930 . S
H5558 C5571 0.930 . S
H5559 C5575 0.959 . S
H5560 C5575 0.959 . S
H5561 C5575 0.961 . S
H5562 C5576 0.960 . S
H5563 C5576 0.961 . S
H5564 C5576 0.959 . S
H5565 C5579 0.929 . S
H5566 C5580 0.931 . S
H5567 C5582 0.930 . S
C5568 H5556 0.930 . S
C5568 C5569 1.399 . S
C5568 C5573 1.399 . S
C5569 C5568 1.399 . S
C5569 C5570 1.376 . S
C5570 H5557 0.930 . S
C5570 C5569 1.376 . S
C5570 C5571 1.388 . S
C5571 H5558 0.930 . S
C5571 C5570 1.388 . S
C5571 C5572 1.390 . S
C5572 C5571 1.390 . S
C5572 C5573 1.394 . S
C5572 C5578 1.465 . S
C5573 C5568 1.399 . S
C5573 C5572 1.394 . S
C5573 C5574 1.516 . S
C5574 C5573 1.516 . S
C5574 C5575 1.502 . S
C5574 C5576 1.561 . S
C5574 C5577 1.526 . S
C5575 H5559 0.959 . S
C5575 H5560 0.959 . S
C5575 H5561 0.961 . S
C5575 C5574 1.502 . S
C5576 H5562 0.960 . S
C5576 H5563 0.961 . S
C5576 H5564 0.959 . S
C5576 C5574 1.561 . S
C5577 C5574 1.526 . S
C5577 C5578 1.396 . S
C5577 C5582 1.390 . S
C5578 C5572 1.465 . S
C5578 C5577 1.396 . S
C5578 C5579 1.399 . S
C5579 H5565 0.929 . S
C5579 C5578 1.399 . S
C5579 C5580 1.385 . S
C5580 H5566 0.931 . S
C5580 C5579 1.385 . S
C5580 C5581 1.389 . S
C5581 C5580 1.389 . S
C5581 C5582 1.387 . S
C5582 H5567 0.930 . S
C5582 C5577 1.390 . S
C5582 C5581 1.387 . S
H5583 C5595 0.930 . S
H5584 C5597 0.930 . S
H5585 C5598 0.930 . S
H5586 C5602 0.959 . S
H5587 C5602 0.959 . S
H5588 C5602 0.961 . S
H5589 C5603 0.960 . S
H5590 C5603 0.961 . S
H5591 C5603 0.959 . S
H5592 C5606 0.929 . S
H5593 C5607 0.931 . S
H5594 C5609 0.930 . S
C5595 H5583 0.930 . S
C5595 C5596 1.399 . S
C5595 C5600 1.399 . S
C5596 C5595 1.399 . S
C5596 C5597 1.376 . S
C5597 H5584 0.930 . S
C5597 C5596 1.376 . S
C5597 C5598 1.388 . S
C5598 H5585 0.930 . S
C5598 C5597 1.388 . S
C5598 C5599 1.390 . S
C5599 C5598 1.390 . S
C5599 C5600 1.394 . S
C5599 C5605 1.465 . S
C5600 C5595 1.399 . S
C5600 C5599 1.394 . S
C5600 C5601 1.516 . S
C5601 C5600 1.516 . S
C5601 C5602 1.502 . S
C5601 C5603 1.561 . S
C5601 C5604 1.526 . S
C5602 H5586 0.959 . S
C5602 H5587 0.959 . S
C5602 H5588 0.961 . S
C5602 C5601 1.502 . S
C5603 H5589 0.960 . S
C5603 H5590 0.961 . S
C5603 H5591 0.959 . S
C5603 C5601 1.561 . S
C5604 C5601 1.526 . S
C5604 C5605 1.396 . S
C5604 C5609 1.390 . S
C5605 C5599 1.465 . S
C5605 C5604 1.396 . S
C5605 C5606 1.399 . S
C5606 H5592 0.929 . S
C5606 C5605 1.399 . S
C5606 C5607 1.385 . S
C5607 H5593 0.931 . S
C5607 C5606 1.385 . S
C5607 C5608 1.389 . S
C5608 C5607 1.389 . S
C5608 C5609 1.387 . S
C5609 H5594 0.930 . S
C5609 C5604 1.390 . S
C5609 C5608 1.387 . S
H5610 C5622 0.930 . S
H5611 C5624 0.930 . S
H5612 C5625 0.930 . S
H5613 C5629 0.959 . S
H5614 C5629 0.959 . S
H5615 C5629 0.961 . S
H5616 C5630 0.960 . S
H5617 C5630 0.961 . S
H5618 C5630 0.959 . S
H5619 C5633 0.929 . S
H5620 C5634 0.931 . S
H5621 C5636 0.930 . S
C5622 H5610 0.930 . S
C5622 C5623 1.399 . S
C5622 C5627 1.399 . S
C5623 C5622 1.399 . S
C5623 C5624 1.376 . S
C5624 H5611 0.930 . S
C5624 C5623 1.376 . S
C5624 C5625 1.388 . S
C5625 H5612 0.930 . S
C5625 C5624 1.388 . S
C5625 C5626 1.390 . S
C5626 C5625 1.390 . S
C5626 C5627 1.394 . S
C5626 C5632 1.465 . S
C5627 C5622 1.399 . S
C5627 C5626 1.394 . S
C5627 C5628 1.516 . S
C5628 C5627 1.516 . S
C5628 C5629 1.502 . S
C5628 C5630 1.561 . S
C5628 C5631 1.526 . S
C5629 H5613 0.959 . S
C5629 H5614 0.959 . S
C5629 H5615 0.961 . S
C5629 C5628 1.502 . S
C5630 H5616 0.960 . S
C5630 H5617 0.961 . S
C5630 H5618 0.959 . S
C5630 C5628 1.561 . S
C5631 C5628 1.526 . S
C5631 C5632 1.396 . S
C5631 C5636 1.390 . S
C5632 C5626 1.465 . S
C5632 C5631 1.396 . S
C5632 C5633 1.399 . S
C5633 H5619 0.929 . S
C5633 C5632 1.399 . S
C5633 C5634 1.385 . S
C5634 H5620 0.931 . S
C5634 C5633 1.385 . S
C5634 C5635 1.389 . S
C5635 C5634 1.389 . S
C5635 C5636 1.387 . S
C5636 H5621 0.930 . S
C5636 C5631 1.390 . S
C5636 C5635 1.387 . S
H5637 C5649 0.930 . S
H5638 C5651 0.930 . S
H5639 C5652 0.930 . S
H5640 C5656 0.959 . S
H5641 C5656 0.959 . S
H5642 C5656 0.961 . S
H5643 C5657 0.960 . S
H5644 C5657 0.961 . S
H5645 C5657 0.959 . S
H5646 C5660 0.929 . S
H5647 C5661 0.931 . S
H5648 C5663 0.930 . S
C5649 H5637 0.930 . S
C5649 C5650 1.399 . S
C5649 C5654 1.399 . S
C5650 C5649 1.399 . S
C5650 C5651 1.376 . S
C5651 H5638 0.930 . S
C5651 C5650 1.376 . S
C5651 C5652 1.388 . S
C5652 H5639 0.930 . S
C5652 C5651 1.388 . S
C5652 C5653 1.390 . S
C5653 C5652 1.390 . S
C5653 C5654 1.394 . S
C5653 C5659 1.465 . S
C5654 C5649 1.399 . S
C5654 C5653 1.394 . S
C5654 C5655 1.516 . S
C5655 C5654 1.516 . S
C5655 C5656 1.502 . S
C5655 C5657 1.561 . S
C5655 C5658 1.526 . S
C5656 H5640 0.959 . S
C5656 H5641 0.959 . S
C5656 H5642 0.961 . S
C5656 C5655 1.502 . S
C5657 H5643 0.960 . S
C5657 H5644 0.961 . S
C5657 H5645 0.959 . S
C5657 C5655 1.561 . S
C5658 C5655 1.526 . S
C5658 C5659 1.396 . S
C5658 C5663 1.390 . S
C5659 C5653 1.465 . S
C5659 C5658 1.396 . S
C5659 C5660 1.399 . S
C5660 H5646 0.929 . S
C5660 C5659 1.399 . S
C5660 C5661 1.385 . S
C5661 H5647 0.931 . S
C5661 C5660 1.385 . S
C5661 C5662 1.389 . S
C5662 C5661 1.389 . S
C5662 C5663 1.387 . S
C5663 H5648 0.930 . S
C5663 C5658 1.390 . S
C5663 C5662 1.387 . S
H5664 C5676 0.930 . S
H5665 C5678 0.930 . S
H5666 C5679 0.930 . S
H5667 C5683 0.959 . S
H5668 C5683 0.959 . S
H5669 C5683 0.961 . S
H5670 C5684 0.960 . S
H5671 C5684 0.961 . S
H5672 C5684 0.959 . S
H5673 C5687 0.929 . S
H5674 C5688 0.931 . S
H5675 C5690 0.930 . S
C5676 H5664 0.930 . S
C5676 C5677 1.399 . S
C5676 C5681 1.399 . S
C5677 C5676 1.399 . S
C5677 C5678 1.376 . S
C5678 H5665 0.930 . S
C5678 C5677 1.376 . S
C5678 C5679 1.388 . S
C5679 H5666 0.930 . S
C5679 C5678 1.388 . S
C5679 C5680 1.390 . S
C5680 C5679 1.390 . S
C5680 C5681 1.394 . S
C5680 C5686 1.465 . S
C5681 C5676 1.399 . S
C5681 C5680 1.394 . S
C5681 C5682 1.516 . S
C5682 C5681 1.516 . S
C5682 C5683 1.502 . S
C5682 C5684 1.561 . S
C5682 C5685 1.526 . S
C5683 H5667 0.959 . S
C5683 H5668 0.959 . S
C5683 H5669 0.961 . S
C5683 C5682 1.502 . S
C5684 H5670 0.960 . S
C5684 H5671 0.961 . S
C5684 H5672 0.959 . S
C5684 C5682 1.561 . S
C5685 C5682 1.526 . S
C5685 C5686 1.396 . S
C5685 C5690 1.390 . S
C5686 C5680 1.465 . S
C5686 C5685 1.396 . S
C5686 C5687 1.399 . S
C5687 H5673 0.929 . S
C5687 C5686 1.399 . S
C5687 C5688 1.385 . S
C5688 H5674 0.931 . S
C5688 C5687 1.385 . S
C5688 C5689 1.389 . S
C5689 C5688 1.389 . S
C5689 C5690 1.387 . S
C5690 H5675 0.930 . S
C5690 C5685 1.390 . S
C5690 C5689 1.387 . S
H5691 C5703 0.930 . S
H5692 C5705 0.930 . S
H5693 C5706 0.930 . S
H5694 C5710 0.959 . S
H5695 C5710 0.959 . S
H5696 C5710 0.961 . S
H5697 C5711 0.960 . S
H5698 C5711 0.961 . S
H5699 C5711 0.959 . S
H5700 C5714 0.929 . S
H5701 C5715 0.931 . S
H5702 C5717 0.930 . S
C5703 H5691 0.930 . S
C5703 C5704 1.399 . S
C5703 C5708 1.399 . S
C5704 C5703 1.399 . S
C5704 C5705 1.376 . S
C5705 H5692 0.930 . S
C5705 C5704 1.376 . S
C5705 C5706 1.388 . S
C5706 H5693 0.930 . S
C5706 C5705 1.388 . S
C5706 C5707 1.390 . S
C5707 C5706 1.390 . S
C5707 C5708 1.394 . S
C5707 C5713 1.465 . S
C5708 C5703 1.399 . S
C5708 C5707 1.394 . S
C5708 C5709 1.516 . S
C5709 C5708 1.516 . S
C5709 C5710 1.502 . S
C5709 C5711 1.561 . S
C5709 C5712 1.526 . S
C5710 H5694 0.959 . S
C5710 H5695 0.959 . S
C5710 H5696 0.961 . S
C5710 C5709 1.502 . S
C5711 H5697 0.960 . S
C5711 H5698 0.961 . S
C5711 H5699 0.959 . S
C5711 C5709 1.561 . S
C5712 C5709 1.526 . S
C5712 C5713 1.396 . S
C5712 C5717 1.390 . S
C5713 C5707 1.465 . S
C5713 C5712 1.396 . S
C5713 C5714 1.399 . S
C5714 H5700 0.929 . S
C5714 C5713 1.399 . S
C5714 C5715 1.385 . S
C5715 H5701 0.931 . S
C5715 C5714 1.385 . S
C5715 C5716 1.389 . S
C5716 C5715 1.389 . S
C5716 C5717 1.387 . S
C5717 H5702 0.930 . S
C5717 C5712 1.390 . S
C5717 C5716 1.387 . S
H5718 C5730 0.930 . S
H5719 C5732 0.930 . S
H5720 C5733 0.930 . S
H5721 C5737 0.959 . S
H5722 C5737 0.959 . S
H5723 C5737 0.961 . S
H5724 C5738 0.960 . S
H5725 C5738 0.961 . S
H5726 C5738 0.959 . S
H5727 C5741 0.929 . S
H5728 C5742 0.931 . S
H5729 C5744 0.930 . S
C5730 H5718 0.930 . S
C5730 C5731 1.399 . S
C5730 C5735 1.399 . S
C5731 C5730 1.399 . S
C5731 C5732 1.376 . S
C5732 H5719 0.930 . S
C5732 C5731 1.376 . S
C5732 C5733 1.388 . S
C5733 H5720 0.930 . S
C5733 C5732 1.388 . S
C5733 C5734 1.390 . S
C5734 C5733 1.390 . S
C5734 C5735 1.394 . S
C5734 C5740 1.465 . S
C5735 C5730 1.399 . S
C5735 C5734 1.394 . S
C5735 C5736 1.516 . S
C5736 C5735 1.516 . S
C5736 C5737 1.502 . S
C5736 C5738 1.561 . S
C5736 C5739 1.526 . S
C5737 H5721 0.959 . S
C5737 H5722 0.959 . S
C5737 H5723 0.961 . S
C5737 C5736 1.502 . S
C5738 H5724 0.960 . S
C5738 H5725 0.961 . S
C5738 H5726 0.959 . S
C5738 C5736 1.561 . S
C5739 C5736 1.526 . S
C5739 C5740 1.396 . S
C5739 C5744 1.390 . S
C5740 C5734 1.465 . S
C5740 C5739 1.396 . S
C5740 C5741 1.399 . S
C5741 H5727 0.929 . S
C5741 C5740 1.399 . S
C5741 C5742 1.385 . S
C5742 H5728 0.931 . S
C5742 C5741 1.385 . S
C5742 C5743 1.389 . S
C5743 C5742 1.389 . S
C5743 C5744 1.387 . S
C5744 H5729 0.930 . S
C5744 C5739 1.390 . S
C5744 C5743 1.387 . S
H5745 C5757 0.930 . S
H5746 C5759 0.930 . S
H5747 C5760 0.930 . S
H5748 C5764 0.959 . S
H5749 C5764 0.959 . S
H5750 C5764 0.961 . S
H5751 C5765 0.960 . S
H5752 C5765 0.961 . S
H5753 C5765 0.959 . S
H5754 C5768 0.929 . S
H5755 C5769 0.931 . S
H5756 C5771 0.930 . S
C5757 H5745 0.930 . S
C5757 C5758 1.399 . S
C5757 C5762 1.399 . S
C5758 C5757 1.399 . S
C5758 C5759 1.376 . S
C5759 H5746 0.930 . S
C5759 C5758 1.376 . S
C5759 C5760 1.388 . S
C5760 H5747 0.930 . S
C5760 C5759 1.388 . S
C5760 C5761 1.390 . S
C5761 C5760 1.390 . S
C5761 C5762 1.394 . S
C5761 C5767 1.465 . S
C5762 C5757 1.399 . S
C5762 C5761 1.394 . S
C5762 C5763 1.516 . S
C5763 C5762 1.516 . S
C5763 C5764 1.502 . S
C5763 C5765 1.561 . S
C5763 C5766 1.526 . S
C5764 H5748 0.959 . S
C5764 H5749 0.959 . S
C5764 H5750 0.961 . S
C5764 C5763 1.502 . S
C5765 H5751 0.960 . S
C5765 H5752 0.961 . S
C5765 H5753 0.959 . S
C5765 C5763 1.561 . S
C5766 C5763 1.526 . S
C5766 C5767 1.396 . S
C5766 C5771 1.390 . S
C5767 C5761 1.465 . S
C5767 C5766 1.396 . S
C5767 C5768 1.399 . S
C5768 H5754 0.929 . S
C5768 C5767 1.399 . S
C5768 C5769 1.385 . S
C5769 H5755 0.931 . S
C5769 C5768 1.385 . S
C5769 C5770 1.389 . S
C5770 C5769 1.389 . S
C5770 C5771 1.387 . S
C5771 H5756 0.930 . S
C5771 C5766 1.390 . S
C5771 C5770 1.387 . S
H5772 C5784 0.930 . S
H5773 C5786 0.930 . S
H5774 C5787 0.930 . S
H5775 C5791 0.959 . S
H5776 C5791 0.959 . S
H5777 C5791 0.961 . S
H5778 C5792 0.960 . S
H5779 C5792 0.961 . S
H5780 C5792 0.959 . S
H5781 C5795 0.929 . S
H5782 C5796 0.931 . S
H5783 C5798 0.930 . S
C5784 H5772 0.930 . S
C5784 C5785 1.399 . S
C5784 C5789 1.399 . S
C5785 C5784 1.399 . S
C5785 C5786 1.376 . S
C5786 H5773 0.930 . S
C5786 C5785 1.376 . S
C5786 C5787 1.388 . S
C5787 H5774 0.930 . S
C5787 C5786 1.388 . S
C5787 C5788 1.390 . S
C5788 C5787 1.390 . S
C5788 C5789 1.394 . S
C5788 C5794 1.465 . S
C5789 C5784 1.399 . S
C5789 C5788 1.394 . S
C5789 C5790 1.516 . S
C5790 C5789 1.516 . S
C5790 C5791 1.502 . S
C5790 C5792 1.561 . S
C5790 C5793 1.526 . S
C5791 H5775 0.959 . S
C5791 H5776 0.959 . S
C5791 H5777 0.961 . S
C5791 C5790 1.502 . S
C5792 H5778 0.960 . S
C5792 H5779 0.961 . S
C5792 H5780 0.959 . S
C5792 C5790 1.561 . S
C5793 C5790 1.526 . S
C5793 C5794 1.396 . S
C5793 C5798 1.390 . S
C5794 C5788 1.465 . S
C5794 C5793 1.396 . S
C5794 C5795 1.399 . S
C5795 H5781 0.929 . S
C5795 C5794 1.399 . S
C5795 C5796 1.385 . S
C5796 H5782 0.931 . S
C5796 C5795 1.385 . S
C5796 C5797 1.389 . S
C5797 C5796 1.389 . S
C5797 C5798 1.387 . S
C5798 H5783 0.930 . S
C5798 C5793 1.390 . S
C5798 C5797 1.387 . S
H5799 C5811 0.930 . S
H5800 C5813 0.930 . S
H5801 C5814 0.930 . S
H5802 C5818 0.959 . S
H5803 C5818 0.959 . S
H5804 C5818 0.961 . S
H5805 C5819 0.960 . S
H5806 C5819 0.961 . S
H5807 C5819 0.959 . S
H5808 C5822 0.929 . S
H5809 C5823 0.931 . S
H5810 C5825 0.930 . S
C5811 H5799 0.930 . S
C5811 C5812 1.399 . S
C5811 C5816 1.399 . S
C5812 C5811 1.399 . S
C5812 C5813 1.376 . S
C5813 H5800 0.930 . S
C5813 C5812 1.376 . S
C5813 C5814 1.388 . S
C5814 H5801 0.930 . S
C5814 C5813 1.388 . S
C5814 C5815 1.390 . S
C5815 C5814 1.390 . S
C5815 C5816 1.394 . S
C5815 C5821 1.465 . S
C5816 C5811 1.399 . S
C5816 C5815 1.394 . S
C5816 C5817 1.516 . S
C5817 C5816 1.516 . S
C5817 C5818 1.502 . S
C5817 C5819 1.561 . S
C5817 C5820 1.526 . S
C5818 H5802 0.959 . S
C5818 H5803 0.959 . S
C5818 H5804 0.961 . S
C5818 C5817 1.502 . S
C5819 H5805 0.960 . S
C5819 H5806 0.961 . S
C5819 H5807 0.959 . S
C5819 C5817 1.561 . S
C5820 C5817 1.526 . S
C5820 C5821 1.396 . S
C5820 C5825 1.390 . S
C5821 C5815 1.465 . S
C5821 C5820 1.396 . S
C5821 C5822 1.399 . S
C5822 H5808 0.929 . S
C5822 C5821 1.399 . S
C5822 C5823 1.385 . S
C5823 H5809 0.931 . S
C5823 C5822 1.385 . S
C5823 C5824 1.389 . S
C5824 C5823 1.389 . S
C5824 C5825 1.387 . S
C5825 H5810 0.930 . S
C5825 C5820 1.390 . S
C5825 C5824 1.387 . S
H5826 C5838 0.930 . S
H5827 C5840 0.930 . S
H5828 C5841 0.930 . S
H5829 C5845 0.959 . S
H5830 C5845 0.959 . S
H5831 C5845 0.961 . S
H5832 C5846 0.960 . S
H5833 C5846 0.961 . S
H5834 C5846 0.959 . S
H5835 C5849 0.929 . S
H5836 C5850 0.931 . S
H5837 C5852 0.930 . S
C5838 H5826 0.930 . S
C5838 C5839 1.399 . S
C5838 C5843 1.399 . S
C5839 C5838 1.399 . S
C5839 C5840 1.376 . S
C5840 H5827 0.930 . S
C5840 C5839 1.376 . S
C5840 C5841 1.388 . S
C5841 H5828 0.930 . S
C5841 C5840 1.388 . S
C5841 C5842 1.390 . S
C5842 C5841 1.390 . S
C5842 C5843 1.394 . S
C5842 C5848 1.465 . S
C5843 C5838 1.399 . S
C5843 C5842 1.394 . S
C5843 C5844 1.516 . S
C5844 C5843 1.516 . S
C5844 C5845 1.502 . S
C5844 C5846 1.561 . S
C5844 C5847 1.526 . S
C5845 H5829 0.959 . S
C5845 H5830 0.959 . S
C5845 H5831 0.961 . S
C5845 C5844 1.502 . S
C5846 H5832 0.960 . S
C5846 H5833 0.961 . S
C5846 H5834 0.959 . S
C5846 C5844 1.561 . S
C5847 C5844 1.526 . S
C5847 C5848 1.396 . S
C5847 C5852 1.390 . S
C5848 C5842 1.465 . S
C5848 C5847 1.396 . S
C5848 C5849 1.399 . S
C5849 H5835 0.929 . S
C5849 C5848 1.399 . S
C5849 C5850 1.385 . S
C5850 H5836 0.931 . S
C5850 C5849 1.385 . S
C5850 C5851 1.389 . S
C5851 C5850 1.389 . S
C5851 C5852 1.387 . S
C5852 H5837 0.930 . S
C5852 C5847 1.390 . S
C5852 C5851 1.387 . S
H5853 C5865 0.930 . S
H5854 C5867 0.930 . S
H5855 C5868 0.930 . S
H5856 C5872 0.959 . S
H5857 C5872 0.959 . S
H5858 C5872 0.961 . S
H5859 C5873 0.960 . S
H5860 C5873 0.961 . S
H5861 C5873 0.959 . S
H5862 C5876 0.929 . S
H5863 C5877 0.931 . S
H5864 C5879 0.930 . S
C5865 H5853 0.930 . S
C5865 C5866 1.399 . S
C5865 C5870 1.399 . S
C5866 C5865 1.399 . S
C5866 C5867 1.376 . S
C5867 H5854 0.930 . S
C5867 C5866 1.376 . S
C5867 C5868 1.388 . S
C5868 H5855 0.930 . S
C5868 C5867 1.388 . S
C5868 C5869 1.390 . S
C5869 C5868 1.390 . S
C5869 C5870 1.394 . S
C5869 C5875 1.465 . S
C5870 C5865 1.399 . S
C5870 C5869 1.394 . S
C5870 C5871 1.516 . S
C5871 C5870 1.516 . S
C5871 C5872 1.502 . S
C5871 C5873 1.561 . S
C5871 C5874 1.526 . S
C5872 H5856 0.959 . S
C5872 H5857 0.959 . S
C5872 H5858 0.961 . S
C5872 C5871 1.502 . S
C5873 H5859 0.960 . S
C5873 H5860 0.961 . S
C5873 H5861 0.959 . S
C5873 C5871 1.561 . S
C5874 C5871 1.526 . S
C5874 C5875 1.396 . S
C5874 C5879 1.390 . S
C5875 C5869 1.465 . S
C5875 C5874 1.396 . S
C5875 C5876 1.399 . S
C5876 H5862 0.929 . S
C5876 C5875 1.399 . S
C5876 C5877 1.385 . S
C5877 H5863 0.931 . S
C5877 C5876 1.385 . S
C5877 C5878 1.389 . S
C5878 C5877 1.389 . S
C5878 C5879 1.387 . S
C5879 H5864 0.930 . S
C5879 C5874 1.390 . S
C5879 C5878 1.387 . S
H5880 C5892 0.930 . S
H5881 C5894 0.930 . S
H5882 C5895 0.930 . S
H5883 C5899 0.959 . S
H5884 C5899 0.959 . S
H5885 C5899 0.961 . S
H5886 C5900 0.960 . S
H5887 C5900 0.961 . S
H5888 C5900 0.959 . S
H5889 C5903 0.929 . S
H5890 C5904 0.931 . S
H5891 C5906 0.930 . S
C5892 H5880 0.930 . S
C5892 C5893 1.399 . S
C5892 C5897 1.399 . S
C5893 C5892 1.399 . S
C5893 C5894 1.376 . S
C5894 H5881 0.930 . S
C5894 C5893 1.376 . S
C5894 C5895 1.388 . S
C5895 H5882 0.930 . S
C5895 C5894 1.388 . S
C5895 C5896 1.390 . S
C5896 C5895 1.390 . S
C5896 C5897 1.394 . S
C5896 C5902 1.465 . S
C5897 C5892 1.399 . S
C5897 C5896 1.394 . S
C5897 C5898 1.516 . S
C5898 C5897 1.516 . S
C5898 C5899 1.502 . S
C5898 C5900 1.561 . S
C5898 C5901 1.526 . S
C5899 H5883 0.959 . S
C5899 H5884 0.959 . S
C5899 H5885 0.961 . S
C5899 C5898 1.502 . S
C5900 H5886 0.960 . S
C5900 H5887 0.961 . S
C5900 H5888 0.959 . S
C5900 C5898 1.561 . S
C5901 C5898 1.526 . S
C5901 C5902 1.396 . S
C5901 C5906 1.390 . S
C5902 C5896 1.465 . S
C5902 C5901 1.396 . S
C5902 C5903 1.399 . S
C5903 H5889 0.929 . S
C5903 C5902 1.399 . S
C5903 C5904 1.385 . S
C5904 H5890 0.931 . S
C5904 C5903 1.385 . S
C5904 C5905 1.389 . S
C5905 C5904 1.389 . S
C5905 C5906 1.387 . S
C5906 H5891 0.930 . S
C5906 C5901 1.390 . S
C5906 C5905 1.387 . S
H5907 C5919 0.930 . S
H5908 C5921 0.930 . S
H5909 C5922 0.930 . S
H5910 C5926 0.959 . S
H5911 C5926 0.959 . S
H5912 C5926 0.961 . S
H5913 C5927 0.960 . S
H5914 C5927 0.961 . S
H5915 C5927 0.959 . S
H5916 C5930 0.929 . S
H5917 C5931 0.931 . S
H5918 C5933 0.930 . S
C5919 H5907 0.930 . S
C5919 C5920 1.399 . S
C5919 C5924 1.399 . S
C5920 C5919 1.399 . S
C5920 C5921 1.376 . S
C5921 H5908 0.930 . S
C5921 C5920 1.376 . S
C5921 C5922 1.388 . S
C5922 H5909 0.930 . S
C5922 C5921 1.388 . S
C5922 C5923 1.390 . S
C5923 C5922 1.390 . S
C5923 C5924 1.394 . S
C5923 C5929 1.465 . S
C5924 C5919 1.399 . S
C5924 C5923 1.394 . S
C5924 C5925 1.516 . S
C5925 C5924 1.516 . S
C5925 C5926 1.502 . S
C5925 C5927 1.561 . S
C5925 C5928 1.526 . S
C5926 H5910 0.959 . S
C5926 H5911 0.959 . S
C5926 H5912 0.961 . S
C5926 C5925 1.502 . S
C5927 H5913 0.960 . S
C5927 H5914 0.961 . S
C5927 H5915 0.959 . S
C5927 C5925 1.561 . S
C5928 C5925 1.526 . S
C5928 C5929 1.396 . S
C5928 C5933 1.390 . S
C5929 C5923 1.465 . S
C5929 C5928 1.396 . S
C5929 C5930 1.399 . S
C5930 H5916 0.929 . S
C5930 C5929 1.399 . S
C5930 C5931 1.385 . S
C5931 H5917 0.931 . S
C5931 C5930 1.385 . S
C5931 C5932 1.389 . S
C5932 C5931 1.389 . S
C5932 C5933 1.387 . S
C5933 H5918 0.930 . S
C5933 C5928 1.390 . S
C5933 C5932 1.387 . S
H5934 C5946 0.930 . S
H5935 C5948 0.930 . S
H5936 C5949 0.930 . S
H5937 C5953 0.959 . S
H5938 C5953 0.959 . S
H5939 C5953 0.961 . S
H5940 C5954 0.960 . S
H5941 C5954 0.961 . S
H5942 C5954 0.959 . S
H5943 C5957 0.929 . S
H5944 C5958 0.931 . S
H5945 C5960 0.930 . S
C5946 H5934 0.930 . S
C5946 C5947 1.399 . S
C5946 C5951 1.399 . S
C5947 C5946 1.399 . S
C5947 C5948 1.376 . S
C5948 H5935 0.930 . S
C5948 C5947 1.376 . S
C5948 C5949 1.388 . S
C5949 H5936 0.930 . S
C5949 C5948 1.388 . S
C5949 C5950 1.390 . S
C5950 C5949 1.390 . S
C5950 C5951 1.394 . S
C5950 C5956 1.465 . S
C5951 C5946 1.399 . S
C5951 C5950 1.394 . S
C5951 C5952 1.516 . S
C5952 C5951 1.516 . S
C5952 C5953 1.502 . S
C5952 C5954 1.561 . S
C5952 C5955 1.526 . S
C5953 H5937 0.959 . S
C5953 H5938 0.959 . S
C5953 H5939 0.961 . S
C5953 C5952 1.502 . S
C5954 H5940 0.960 . S
C5954 H5941 0.961 . S
C5954 H5942 0.959 . S
C5954 C5952 1.561 . S
C5955 C5952 1.526 . S
C5955 C5956 1.396 . S
C5955 C5960 1.390 . S
C5956 C5950 1.465 . S
C5956 C5955 1.396 . S
C5956 C5957 1.399 . S
C5957 H5943 0.929 . S
C5957 C5956 1.399 . S
C5957 C5958 1.385 . S
C5958 H5944 0.931 . S
C5958 C5957 1.385 . S
C5958 C5959 1.389 . S
C5959 C5958 1.389 . S
C5959 C5960 1.387 . S
C5960 H5945 0.930 . S
C5960 C5955 1.390 . S
C5960 C5959 1.387 . S
H5961 C5973 0.930 . S
H5962 C5975 0.930 . S
H5963 C5976 0.930 . S
H5964 C5980 0.959 . S
H5965 C5980 0.959 . S
H5966 C5980 0.961 . S
H5967 C5981 0.960 . S
H5968 C5981 0.961 . S
H5969 C5981 0.959 . S
H5970 C5984 0.929 . S
H5971 C5985 0.931 . S
H5972 C5987 0.930 . S
C5973 H5961 0.930 . S
C5973 C5974 1.399 . S
C5973 C5978 1.399 . S
C5974 C5973 1.399 . S
C5974 C5975 1.376 . S
C5975 H5962 0.930 . S
C5975 C5974 1.376 . S
C5975 C5976 1.388 . S
C5976 H5963 0.930 . S
C5976 C5975 1.388 . S
C5976 C5977 1.390 . S
C5977 C5976 1.390 . S
C5977 C5978 1.394 . S
C5977 C5983 1.465 . S
C5978 C5973 1.399 . S
C5978 C5977 1.394 . S
C5978 C5979 1.516 . S
C5979 C5978 1.516 . S
C5979 C5980 1.502 . S
C5979 C5981 1.561 . S
C5979 C5982 1.526 . S
C5980 H5964 0.959 . S
C5980 H5965 0.959 . S
C5980 H5966 0.961 . S
C5980 C5979 1.502 . S
C5981 H5967 0.960 . S
C5981 H5968 0.961 . S
C5981 H5969 0.959 . S
C5981 C5979 1.561 . S
C5982 C5979 1.526 . S
C5982 C5983 1.396 . S
C5982 C5987 1.390 . S
C5983 C5977 1.465 . S
C5983 C5982 1.396 . S
C5983 C5984 1.399 . S
C5984 H5970 0.929 . S
C5984 C5983 1.399 . S
C5984 C5985 1.385 . S
C5985 H5971 0.931 . S
C5985 C5984 1.385 . S
C5985 C5986 1.389 . S
C5986 C5985 1.389 . S
C5986 C5987 1.387 . S
C5987 H5972 0.930 . S
C5987 C5982 1.390 . S
C5987 C5986 1.387 . S
H5988 C6000 0.930 . S
H5989 C6002 0.930 . S
H5990 C6003 0.930 . S
H5991 C6007 0.959 . S
H5992 C6007 0.959 . S
H5993 C6007 0.961 . S
H5994 C6008 0.960 . S
H5995 C6008 0.961 . S
H5996 C6008 0.959 . S
H5997 C6011 0.929 . S
H5998 C6012 0.931 . S
H5999 C6014 0.930 . S
C6000 H5988 0.930 . S
C6000 C6001 1.399 . S
C6000 C6005 1.399 . S
C6001 C6000 1.399 . S
C6001 C6002 1.376 . S
C6002 H5989 0.930 . S
C6002 C6001 1.376 . S
C6002 C6003 1.388 . S
C6003 H5990 0.930 . S
C6003 C6002 1.388 . S
C6003 C6004 1.390 . S
C6004 C6003 1.390 . S
C6004 C6005 1.394 . S
C6004 C6010 1.465 . S
C6005 C6000 1.399 . S
C6005 C6004 1.394 . S
C6005 C6006 1.516 . S
C6006 C6005 1.516 . S
C6006 C6007 1.502 . S
C6006 C6008 1.561 . S
C6006 C6009 1.526 . S
C6007 H5991 0.959 . S
C6007 H5992 0.959 . S
C6007 H5993 0.961 . S
C6007 C6006 1.502 . S
C6008 H5994 0.960 . S
C6008 H5995 0.961 . S
C6008 H5996 0.959 . S
C6008 C6006 1.561 . S
C6009 C6006 1.526 . S
C6009 C6010 1.396 . S
C6009 C6014 1.390 . S
C6010 C6004 1.465 . S
C6010 C6009 1.396 . S
C6010 C6011 1.399 . S
C6011 H5997 0.929 . S
C6011 C6010 1.399 . S
C6011 C6012 1.385 . S
C6012 H5998 0.931 . S
C6012 C6011 1.385 . S
C6012 C6013 1.389 . S
C6013 C6012 1.389 . S
C6013 C6014 1.387 . S
C6014 H5999 0.930 . S
C6014 C6009 1.390 . S
C6014 C6013 1.387 . S
H6015 C6027 0.930 . S
H6016 C6029 0.930 . S
H6017 C6030 0.930 . S
H6018 C6034 0.959 . S
H6019 C6034 0.959 . S
H6020 C6034 0.961 . S
H6021 C6035 0.960 . S
H6022 C6035 0.961 . S
H6023 C6035 0.959 . S
H6024 C6038 0.929 . S
H6025 C6039 0.931 . S
H6026 C6041 0.930 . S
C6027 H6015 0.930 . S
C6027 C6028 1.399 . S
C6027 C6032 1.399 . S
C6028 C6027 1.399 . S
C6028 C6029 1.376 . S
C6029 H6016 0.930 . S
C6029 C6028 1.376 . S
C6029 C6030 1.388 . S
C6030 H6017 0.930 . S
C6030 C6029 1.388 . S
C6030 C6031 1.390 . S
C6031 C6030 1.390 . S
C6031 C6032 1.394 . S
C6031 C6037 1.465 . S
C6032 C6027 1.399 . S
C6032 C6031 1.394 . S
C6032 C6033 1.516 . S
C6033 C6032 1.516 . S
C6033 C6034 1.502 . S
C6033 C6035 1.561 . S
C6033 C6036 1.526 . S
C6034 H6018 0.959 . S
C6034 H6019 0.959 . S
C6034 H6020 0.961 . S
C6034 C6033 1.502 . S
C6035 H6021 0.960 . S
C6035 H6022 0.961 . S
C6035 H6023 0.959 . S
C6035 C6033 1.561 . S
C6036 C6033 1.526 . S
C6036 C6037 1.396 . S
C6036 C6041 1.390 . S
C6037 C6031 1.465 . S
C6037 C6036 1.396 . S
C6037 C6038 1.399 . S
C6038 H6024 0.929 . S
C6038 C6037 1.399 . S
C6038 C6039 1.385 . S
C6039 H6025 0.931 . S
C6039 C6038 1.385 . S
C6039 C6040 1.389 . S
C6040 C6039 1.389 . S
C6040 C6041 1.387 . S
C6041 H6026 0.930 . S
C6041 C6036 1.390 . S
C6041 C6040 1.387 . S
H6042 C6054 0.930 . S
H6043 C6056 0.930 . S
H6044 C6057 0.930 . S
H6045 C6061 0.959 . S
H6046 C6061 0.959 . S
H6047 C6061 0.961 . S
H6048 C6062 0.960 . S
H6049 C6062 0.961 . S
H6050 C6062 0.959 . S
H6051 C6065 0.929 . S
H6052 C6066 0.931 . S
H6053 C6068 0.930 . S
C6054 H6042 0.930 . S
C6054 C6055 1.399 . S
C6054 C6059 1.399 . S
C6055 C6054 1.399 . S
C6055 C6056 1.376 . S
C6056 H6043 0.930 . S
C6056 C6055 1.376 . S
C6056 C6057 1.388 . S
C6057 H6044 0.930 . S
C6057 C6056 1.388 . S
C6057 C6058 1.390 . S
C6058 C6057 1.390 . S
C6058 C6059 1.394 . S
C6058 C6064 1.465 . S
C6059 C6054 1.399 . S
C6059 C6058 1.394 . S
C6059 C6060 1.516 . S
C6060 C6059 1.516 . S
C6060 C6061 1.502 . S
C6060 C6062 1.561 . S
C6060 C6063 1.526 . S
C6061 H6045 0.959 . S
C6061 H6046 0.959 . S
C6061 H6047 0.961 . S
C6061 C6060 1.502 . S
C6062 H6048 0.960 . S
C6062 H6049 0.961 . S
C6062 H6050 0.959 . S
C6062 C6060 1.561 . S
C6063 C6060 1.526 . S
C6063 C6064 1.396 . S
C6063 C6068 1.390 . S
C6064 C6058 1.465 . S
C6064 C6063 1.396 . S
C6064 C6065 1.399 . S
C6065 H6051 0.929 . S
C6065 C6064 1.399 . S
C6065 C6066 1.385 . S
C6066 H6052 0.931 . S
C6066 C6065 1.385 . S
C6066 C6067 1.389 . S
C6067 C6066 1.389 . S
C6067 C6068 1.387 . S
C6068 H6053 0.930 . S
C6068 C6063 1.390 . S
C6068 C6067 1.387 . S
H6069 C6081 0.930 . S
H6070 C6083 0.930 . S
H6071 C6084 0.930 . S
H6072 C6088 0.959 . S
H6073 C6088 0.959 . S
H6074 C6088 0.961 . S
H6075 C6089 0.960 . S
H6076 C6089 0.961 . S
H6077 C6089 0.959 . S
H6078 C6092 0.929 . S
H6079 C6093 0.931 . S
H6080 C6095 0.930 . S
C6081 H6069 0.930 . S
C6081 C6082 1.399 . S
C6081 C6086 1.399 . S
C6082 C6081 1.399 . S
C6082 C6083 1.376 . S
C6083 H6070 0.930 . S
C6083 C6082 1.376 . S
C6083 C6084 1.388 . S
C6084 H6071 0.930 . S
C6084 C6083 1.388 . S
C6084 C6085 1.390 . S
C6085 C6084 1.390 . S
C6085 C6086 1.394 . S
C6085 C6091 1.465 . S
C6086 C6081 1.399 . S
C6086 C6085 1.394 . S
C6086 C6087 1.516 . S
C6087 C6086 1.516 . S
C6087 C6088 1.502 . S
C6087 C6089 1.561 . S
C6087 C6090 1.526 . S
C6088 H6072 0.959 . S
C6088 H6073 0.959 . S
C6088 H6074 0.961 . S
C6088 C6087 1.502 . S
C6089 H6075 0.960 . S
C6089 H6076 0.961 . S
C6089 H6077 0.959 . S
C6089 C6087 1.561 . S
C6090 C6087 1.526 . S
C6090 C6091 1.396 . S
C6090 C6095 1.390 . S
C6091 C6085 1.465 . S
C6091 C6090 1.396 . S
C6091 C6092 1.399 . S
C6092 H6078 0.929 . S
C6092 C6091 1.399 . S
C6092 C6093 1.385 . S
C6093 H6079 0.931 . S
C6093 C6092 1.385 . S
C6093 C6094 1.389 . S
C6094 C6093 1.389 . S
C6094 C6095 1.387 . S
C6095 H6080 0.930 . S
C6095 C6090 1.390 . S
C6095 C6094 1.387 . S
H6096 C6108 0.930 . S
H6097 C6110 0.930 . S
H6098 C6111 0.930 . S
H6099 C6115 0.959 . S
H6100 C6115 0.959 . S
H6101 C6115 0.961 . S
H6102 C6116 0.960 . S
H6103 C6116 0.961 . S
H6104 C6116 0.959 . S
H6105 C6119 0.929 . S
H6106 C6120 0.931 . S
H6107 C6122 0.930 . S
C6108 H6096 0.930 . S
C6108 C6109 1.399 . S
C6108 C6113 1.399 . S
C6109 C6108 1.399 . S
C6109 C6110 1.376 . S
C6110 H6097 0.930 . S
C6110 C6109 1.376 . S
C6110 C6111 1.388 . S
C6111 H6098 0.930 . S
C6111 C6110 1.388 . S
C6111 C6112 1.390 . S
C6112 C6111 1.390 . S
C6112 C6113 1.394 . S
C6112 C6118 1.465 . S
C6113 C6108 1.399 . S
C6113 C6112 1.394 . S
C6113 C6114 1.516 . S
C6114 C6113 1.516 . S
C6114 C6115 1.502 . S
C6114 C6116 1.561 . S
C6114 C6117 1.526 . S
C6115 H6099 0.959 . S
C6115 H6100 0.959 . S
C6115 H6101 0.961 . S
C6115 C6114 1.502 . S
C6116 H6102 0.960 . S
C6116 H6103 0.961 . S
C6116 H6104 0.959 . S
C6116 C6114 1.561 . S
C6117 C6114 1.526 . S
C6117 C6118 1.396 . S
C6117 C6122 1.390 . S
C6118 C6112 1.465 . S
C6118 C6117 1.396 . S
C6118 C6119 1.399 . S
C6119 H6105 0.929 . S
C6119 C6118 1.399 . S
C6119 C6120 1.385 . S
C6120 H6106 0.931 . S
C6120 C6119 1.385 . S
C6120 C6121 1.389 . S
C6121 C6120 1.389 . S
C6121 C6122 1.387 . S
C6122 H6107 0.930 . S
C6122 C6117 1.390 . S
C6122 C6121 1.387 . S
H6123 C6135 0.930 . S
H6124 C6137 0.930 . S
H6125 C6138 0.930 . S
H6126 C6142 0.959 . S
H6127 C6142 0.959 . S
H6128 C6142 0.961 . S
H6129 C6143 0.960 . S
H6130 C6143 0.961 . S
H6131 C6143 0.959 . S
H6132 C6146 0.929 . S
H6133 C6147 0.931 . S
H6134 C6149 0.930 . S
C6135 H6123 0.930 . S
C6135 C6136 1.399 . S
C6135 C6140 1.399 . S
C6136 C6135 1.399 . S
C6136 C6137 1.376 . S
C6137 H6124 0.930 . S
C6137 C6136 1.376 . S
C6137 C6138 1.388 . S
C6138 H6125 0.930 . S
C6138 C6137 1.388 . S
C6138 C6139 1.390 . S
C6139 C6138 1.390 . S
C6139 C6140 1.394 . S
C6139 C6145 1.465 . S
C6140 C6135 1.399 . S
C6140 C6139 1.394 . S
C6140 C6141 1.516 . S
C6141 C6140 1.516 . S
C6141 C6142 1.502 . S
C6141 C6143 1.561 . S
C6141 C6144 1.526 . S
C6142 H6126 0.959 . S
C6142 H6127 0.959 . S
C6142 H6128 0.961 . S
C6142 C6141 1.502 . S
C6143 H6129 0.960 . S
C6143 H6130 0.961 . S
C6143 H6131 0.959 . S
C6143 C6141 1.561 . S
C6144 C6141 1.526 . S
C6144 C6145 1.396 . S
C6144 C6149 1.390 . S
C6145 C6139 1.465 . S
C6145 C6144 1.396 . S
C6145 C6146 1.399 . S
C6146 H6132 0.929 . S
C6146 C6145 1.399 . S
C6146 C6147 1.385 . S
C6147 H6133 0.931 . S
C6147 C6146 1.385 . S
C6147 C6148 1.389 . S
C6148 C6147 1.389 . S
C6148 C6149 1.387 . S
C6149 H6134 0.930 . S
C6149 C6144 1.390 . S
C6149 C6148 1.387 . S
H6150 C6162 0.930 . S
H6151 C6164 0.930 . S
H6152 C6165 0.930 . S
H6153 C6169 0.959 . S
H6154 C6169 0.959 . S
H6155 C6169 0.961 . S
H6156 C6170 0.960 . S
H6157 C6170 0.961 . S
H6158 C6170 0.959 . S
H6159 C6173 0.929 . S
H6160 C6174 0.931 . S
H6161 C6176 0.930 . S
C6162 H6150 0.930 . S
C6162 C6163 1.399 . S
C6162 C6167 1.399 . S
C6163 C6162 1.399 . S
C6163 C6164 1.376 . S
C6164 H6151 0.930 . S
C6164 C6163 1.376 . S
C6164 C6165 1.388 . S
C6165 H6152 0.930 . S
C6165 C6164 1.388 . S
C6165 C6166 1.390 . S
C6166 C6165 1.390 . S
C6166 C6167 1.394 . S
C6166 C6172 1.465 . S
C6167 C6162 1.399 . S
C6167 C6166 1.394 . S
C6167 C6168 1.516 . S
C6168 C6167 1.516 . S
C6168 C6169 1.502 . S
C6168 C6170 1.561 . S
C6168 C6171 1.526 . S
C6169 H6153 0.959 . S
C6169 H6154 0.959 . S
C6169 H6155 0.961 . S
C6169 C6168 1.502 . S
C6170 H6156 0.960 . S
C6170 H6157 0.961 . S
C6170 H6158 0.959 . S
C6170 C6168 1.561 . S
C6171 C6168 1.526 . S
C6171 C6172 1.396 . S
C6171 C6176 1.390 . S
C6172 C6166 1.465 . S
C6172 C6171 1.396 . S
C6172 C6173 1.399 . S
C6173 H6159 0.929 . S
C6173 C6172 1.399 . S
C6173 C6174 1.385 . S
C6174 H6160 0.931 . S
C6174 C6173 1.385 . S
C6174 C6175 1.389 . S
C6175 C6174 1.389 . S
C6175 C6176 1.387 . S
C6176 H6161 0.930 . S
C6176 C6171 1.390 . S
C6176 C6175 1.387 . S
H6177 C6189 0.930 . S
H6178 C6191 0.930 . S
H6179 C6192 0.930 . S
H6180 C6196 0.959 . S
H6181 C6196 0.959 . S
H6182 C6196 0.961 . S
H6183 C6197 0.960 . S
H6184 C6197 0.961 . S
H6185 C6197 0.959 . S
H6186 C6200 0.929 . S
H6187 C6201 0.931 . S
H6188 C6203 0.930 . S
C6189 H6177 0.930 . S
C6189 C6190 1.399 . S
C6189 C6194 1.399 . S
C6190 C6189 1.399 . S
C6190 C6191 1.376 . S
C6191 H6178 0.930 . S
C6191 C6190 1.376 . S
C6191 C6192 1.388 . S
C6192 H6179 0.930 . S
C6192 C6191 1.388 . S
C6192 C6193 1.390 . S
C6193 C6192 1.390 . S
C6193 C6194 1.394 . S
C6193 C6199 1.465 . S
C6194 C6189 1.399 . S
C6194 C6193 1.394 . S
C6194 C6195 1.516 . S
C6195 C6194 1.516 . S
C6195 C6196 1.502 . S
C6195 C6197 1.561 . S
C6195 C6198 1.526 . S
C6196 H6180 0.959 . S
C6196 H6181 0.959 . S
C6196 H6182 0.961 . S
C6196 C6195 1.502 . S
C6197 H6183 0.960 . S
C6197 H6184 0.961 . S
C6197 H6185 0.959 . S
C6197 C6195 1.561 . S
C6198 C6195 1.526 . S
C6198 C6199 1.396 . S
C6198 C6203 1.390 . S
C6199 C6193 1.465 . S
C6199 C6198 1.396 . S
C6199 C6200 1.399 . S
C6200 H6186 0.929 . S
C6200 C6199 1.399 . S
C6200 C6201 1.385 . S
C6201 H6187 0.931 . S
C6201 C6200 1.385 . S
C6201 C6202 1.389 . S
C6202 C6201 1.389 . S
C6202 C6203 1.387 . S
C6203 H6188 0.930 . S
C6203 C6198 1.390 . S
C6203 C6202 1.387 . S
H6204 C6216 0.930 . S
H6205 C6218 0.930 . S
H6206 C6219 0.930 . S
H6207 C6223 0.959 . S
H6208 C6223 0.959 . S
H6209 C6223 0.961 . S
H6210 C6224 0.960 . S
H6211 C6224 0.961 . S
H6212 C6224 0.959 . S
H6213 C6227 0.929 . S
H6214 C6228 0.931 . S
H6215 C6230 0.930 . S
C6216 H6204 0.930 . S
C6216 C6217 1.399 . S
C6216 C6221 1.399 . S
C6217 C6216 1.399 . S
C6217 C6218 1.376 . S
C6218 H6205 0.930 . S
C6218 C6217 1.376 . S
C6218 C6219 1.388 . S
C6219 H6206 0.930 . S
C6219 C6218 1.388 . S
C6219 C6220 1.390 . S
C6220 C6219 1.390 . S
C6220 C6221 1.394 . S
C6220 C6226 1.465 . S
C6221 C6216 1.399 . S
C6221 C6220 1.394 . S
C6221 C6222 1.516 . S
C6222 C6221 1.516 . S
C6222 C6223 1.502 . S
C6222 C6224 1.561 . S
C6222 C6225 1.526 . S
C6223 H6207 0.959 . S
C6223 H6208 0.959 . S
C6223 H6209 0.961 . S
C6223 C6222 1.502 . S
C6224 H6210 0.960 . S
C6224 H6211 0.961 . S
C6224 H6212 0.959 . S
C6224 C6222 1.561 . S
C6225 C6222 1.526 . S
C6225 C6226 1.396 . S
C6225 C6230 1.390 . S
C6226 C6220 1.465 . S
C6226 C6225 1.396 . S
C6226 C6227 1.399 . S
C6227 H6213 0.929 . S
C6227 C6226 1.399 . S
C6227 C6228 1.385 . S
C6228 H6214 0.931 . S
C6228 C6227 1.385 . S
C6228 C6229 1.389 . S
C6229 C6228 1.389 . S
C6229 C6230 1.387 . S
C6230 H6215 0.930 . S
C6230 C6225 1.390 . S
C6230 C6229 1.387 . S
H6231 C6243 0.930 . S
H6232 C6245 0.930 . S
H6233 C6246 0.930 . S
H6234 C6250 0.959 . S
H6235 C6250 0.959 . S
H6236 C6250 0.961 . S
H6237 C6251 0.960 . S
H6238 C6251 0.961 . S
H6239 C6251 0.959 . S
H6240 C6254 0.929 . S
H6241 C6255 0.931 . S
H6242 C6257 0.930 . S
C6243 H6231 0.930 . S
C6243 C6244 1.399 . S
C6243 C6248 1.399 . S
C6244 C6243 1.399 . S
C6244 C6245 1.376 . S
C6245 H6232 0.930 . S
C6245 C6244 1.376 . S
C6245 C6246 1.388 . S
C6246 H6233 0.930 . S
C6246 C6245 1.388 . S
C6246 C6247 1.390 . S
C6247 C6246 1.390 . S
C6247 C6248 1.394 . S
C6247 C6253 1.465 . S
C6248 C6243 1.399 . S
C6248 C6247 1.394 . S
C6248 C6249 1.516 . S
C6249 C6248 1.516 . S
C6249 C6250 1.502 . S
C6249 C6251 1.561 . S
C6249 C6252 1.526 . S
C6250 H6234 0.959 . S
C6250 H6235 0.959 . S
C6250 H6236 0.961 . S
C6250 C6249 1.502 . S
C6251 H6237 0.960 . S
C6251 H6238 0.961 . S
C6251 H6239 0.959 . S
C6251 C6249 1.561 . S
C6252 C6249 1.526 . S
C6252 C6253 1.396 . S
C6252 C6257 1.390 . S
C6253 C6247 1.465 . S
C6253 C6252 1.396 . S
C6253 C6254 1.399 . S
C6254 H6240 0.929 . S
C6254 C6253 1.399 . S
C6254 C6255 1.385 . S
C6255 H6241 0.931 . S
C6255 C6254 1.385 . S
C6255 C6256 1.389 . S
C6256 C6255 1.389 . S
C6256 C6257 1.387 . S
C6257 H6242 0.930 . S
C6257 C6252 1.390 . S
C6257 C6256 1.387 . S
H6258 C6270 0.930 . S
H6259 C6272 0.930 . S
H6260 C6273 0.930 . S
H6261 C6277 0.959 . S
H6262 C6277 0.959 . S
H6263 C6277 0.961 . S
H6264 C6278 0.960 . S
H6265 C6278 0.961 . S
H6266 C6278 0.959 . S
H6267 C6281 0.929 . S
H6268 C6282 0.931 . S
H6269 C6284 0.930 . S
C6270 H6258 0.930 . S
C6270 C6271 1.399 . S
C6270 C6275 1.399 . S
C6271 C6270 1.399 . S
C6271 C6272 1.376 . S
C6272 H6259 0.930 . S
C6272 C6271 1.376 . S
C6272 C6273 1.388 . S
C6273 H6260 0.930 . S
C6273 C6272 1.388 . S
C6273 C6274 1.390 . S
C6274 C6273 1.390 . S
C6274 C6275 1.394 . S
C6274 C6280 1.465 . S
C6275 C6270 1.399 . S
C6275 C6274 1.394 . S
C6275 C6276 1.516 . S
C6276 C6275 1.516 . S
C6276 C6277 1.502 . S
C6276 C6278 1.561 . S
C6276 C6279 1.526 . S
C6277 H6261 0.959 . S
C6277 H6262 0.959 . S
C6277 H6263 0.961 . S
C6277 C6276 1.502 . S
C6278 H6264 0.960 . S
C6278 H6265 0.961 . S
C6278 H6266 0.959 . S
C6278 C6276 1.561 . S
C6279 C6276 1.526 . S
C6279 C6280 1.396 . S
C6279 C6284 1.390 . S
C6280 C6274 1.465 . S
C6280 C6279 1.396 . S
C6280 C6281 1.399 . S
C6281 H6267 0.929 . S
C6281 C6280 1.399 . S
C6281 C6282 1.385 . S
C6282 H6268 0.931 . S
C6282 C6281 1.385 . S
C6282 C6283 1.389 . S
C6283 C6282 1.389 . S
C6283 C6284 1.387 . S
C6284 H6269 0.930 . S
C6284 C6279 1.390 . S
C6284 C6283 1.387 . S
H6285 C6297 0.930 . S
H6286 C6299 0.930 . S
H6287 C6300 0.930 . S
H6288 C6304 0.959 . S
H6289 C6304 0.959 . S
H6290 C6304 0.961 . S
H6291 C6305 0.960 . S
H6292 C6305 0.961 . S
H6293 C6305 0.959 . S
H6294 C6308 0.929 . S
H6295 C6309 0.931 . S
H6296 C6311 0.930 . S
C6297 H6285 0.930 . S
C6297 C6298 1.399 . S
C6297 C6302 1.399 . S
C6298 C6297 1.399 . S
C6298 C6299 1.376 . S
C6299 H6286 0.930 . S
C6299 C6298 1.376 . S
C6299 C6300 1.388 . S
C6300 H6287 0.930 . S
C6300 C6299 1.388 . S
C6300 C6301 1.390 . S
C6301 C6300 1.390 . S
C6301 C6302 1.394 . S
C6301 C6307 1.465 . S
C6302 C6297 1.399 . S
C6302 C6301 1.394 . S
C6302 C6303 1.516 . S
C6303 C6302 1.516 . S
C6303 C6304 1.502 . S
C6303 C6305 1.561 . S
C6303 C6306 1.526 . S
C6304 H6288 0.959 . S
C6304 H6289 0.959 . S
C6304 H6290 0.961 . S
C6304 C6303 1.502 . S
C6305 H6291 0.960 . S
C6305 H6292 0.961 . S
C6305 H6293 0.959 . S
C6305 C6303 1.561 . S
C6306 C6303 1.526 . S
C6306 C6307 1.396 . S
C6306 C6311 1.390 . S
C6307 C6301 1.465 . S
C6307 C6306 1.396 . S
C6307 C6308 1.399 . S
C6308 H6294 0.929 . S
C6308 C6307 1.399 . S
C6308 C6309 1.385 . S
C6309 H6295 0.931 . S
C6309 C6308 1.385 . S
C6309 C6310 1.389 . S
C6310 C6309 1.389 . S
C6310 C6311 1.387 . S
C6311 H6296 0.930 . S
C6311 C6306 1.390 . S
C6311 C6310 1.387 . S
H6312 C6324 0.930 . S
H6313 C6326 0.930 . S
H6314 C6327 0.930 . S
H6315 C6331 0.959 . S
H6316 C6331 0.959 . S
H6317 C6331 0.961 . S
H6318 C6332 0.960 . S
H6319 C6332 0.961 . S
H6320 C6332 0.959 . S
H6321 C6335 0.929 . S
H6322 C6336 0.931 . S
H6323 C6338 0.930 . S
C6324 H6312 0.930 . S
C6324 C6325 1.399 . S
C6324 C6329 1.399 . S
C6325 C6324 1.399 . S
C6325 C6326 1.376 . S
C6326 H6313 0.930 . S
C6326 C6325 1.376 . S
C6326 C6327 1.388 . S
C6327 H6314 0.930 . S
C6327 C6326 1.388 . S
C6327 C6328 1.390 . S
C6328 C6327 1.390 . S
C6328 C6329 1.394 . S
C6328 C6334 1.465 . S
C6329 C6324 1.399 . S
C6329 C6328 1.394 . S
C6329 C6330 1.516 . S
C6330 C6329 1.516 . S
C6330 C6331 1.502 . S
C6330 C6332 1.561 . S
C6330 C6333 1.526 . S
C6331 H6315 0.959 . S
C6331 H6316 0.959 . S
C6331 H6317 0.961 . S
C6331 C6330 1.502 . S
C6332 H6318 0.960 . S
C6332 H6319 0.961 . S
C6332 H6320 0.959 . S
C6332 C6330 1.561 . S
C6333 C6330 1.526 . S
C6333 C6334 1.396 . S
C6333 C6338 1.390 . S
C6334 C6328 1.465 . S
C6334 C6333 1.396 . S
C6334 C6335 1.399 . S
C6335 H6321 0.929 . S
C6335 C6334 1.399 . S
C6335 C6336 1.385 . S
C6336 H6322 0.931 . S
C6336 C6335 1.385 . S
C6336 C6337 1.389 . S
C6337 C6336 1.389 . S
C6337 C6338 1.387 . S
C6338 H6323 0.930 . S
C6338 C6333 1.390 . S
C6338 C6337 1.387 . S
H6339 C6351 0.930 . S
H6340 C6353 0.930 . S
H6341 C6354 0.930 . S
H6342 C6358 0.959 . S
H6343 C6358 0.959 . S
H6344 C6358 0.961 . S
H6345 C6359 0.960 . S
H6346 C6359 0.961 . S
H6347 C6359 0.959 . S
H6348 C6362 0.929 . S
H6349 C6363 0.931 . S
H6350 C6365 0.930 . S
C6351 H6339 0.930 . S
C6351 C6352 1.399 . S
C6351 C6356 1.399 . S
C6352 C6351 1.399 . S
C6352 C6353 1.376 . S
C6353 H6340 0.930 . S
C6353 C6352 1.376 . S
C6353 C6354 1.388 . S
C6354 H6341 0.930 . S
C6354 C6353 1.388 . S
C6354 C6355 1.390 . S
C6355 C6354 1.390 . S
C6355 C6356 1.394 . S
C6355 C6361 1.465 . S
C6356 C6351 1.399 . S
C6356 C6355 1.394 . S
C6356 C6357 1.516 . S
C6357 C6356 1.516 . S
C6357 C6358 1.502 . S
C6357 C6359 1.561 . S
C6357 C6360 1.526 . S
C6358 H6342 0.959 . S
C6358 H6343 0.959 . S
C6358 H6344 0.961 . S
C6358 C6357 1.502 . S
C6359 H6345 0.960 . S
C6359 H6346 0.961 . S
C6359 H6347 0.959 . S
C6359 C6357 1.561 . S
C6360 C6357 1.526 . S
C6360 C6361 1.396 . S
C6360 C6365 1.390 . S
C6361 C6355 1.465 . S
C6361 C6360 1.396 . S
C6361 C6362 1.399 . S
C6362 H6348 0.929 . S
C6362 C6361 1.399 . S
C6362 C6363 1.385 . S
C6363 H6349 0.931 . S
C6363 C6362 1.385 . S
C6363 C6364 1.389 . S
C6364 C6363 1.389 . S
C6364 C6365 1.387 . S
C6365 H6350 0.930 . S
C6365 C6360 1.390 . S
C6365 C6364 1.387 . S
H6366 C6378 0.930 . S
H6367 C6380 0.930 . S
H6368 C6381 0.930 . S
H6369 C6385 0.959 . S
H6370 C6385 0.959 . S
H6371 C6385 0.961 . S
H6372 C6386 0.960 . S
H6373 C6386 0.961 . S
H6374 C6386 0.959 . S
H6375 C6389 0.929 . S
H6376 C6390 0.931 . S
H6377 C6392 0.930 . S
C6378 H6366 0.930 . S
C6378 C6379 1.399 . S
C6378 C6383 1.399 . S
C6379 C6378 1.399 . S
C6379 C6380 1.376 . S
C6380 H6367 0.930 . S
C6380 C6379 1.376 . S
C6380 C6381 1.388 . S
C6381 H6368 0.930 . S
C6381 C6380 1.388 . S
C6381 C6382 1.390 . S
C6382 C6381 1.390 . S
C6382 C6383 1.394 . S
C6382 C6388 1.465 . S
C6383 C6378 1.399 . S
C6383 C6382 1.394 . S
C6383 C6384 1.516 . S
C6384 C6383 1.516 . S
C6384 C6385 1.502 . S
C6384 C6386 1.561 . S
C6384 C6387 1.526 . S
C6385 H6369 0.959 . S
C6385 H6370 0.959 . S
C6385 H6371 0.961 . S
C6385 C6384 1.502 . S
C6386 H6372 0.960 . S
C6386 H6373 0.961 . S
C6386 H6374 0.959 . S
C6386 C6384 1.561 . S
C6387 C6384 1.526 . S
C6387 C6388 1.396 . S
C6387 C6392 1.390 . S
C6388 C6382 1.465 . S
C6388 C6387 1.396 . S
C6388 C6389 1.399 . S
C6389 H6375 0.929 . S
C6389 C6388 1.399 . S
C6389 C6390 1.385 . S
C6390 H6376 0.931 . S
C6390 C6389 1.385 . S
C6390 C6391 1.389 . S
C6391 C6390 1.389 . S
C6391 C6392 1.387 . S
C6392 H6377 0.930 . S
C6392 C6387 1.390 . S
C6392 C6391 1.387 . S
H6393 C6405 0.930 . S
H6394 C6407 0.930 . S
H6395 C6408 0.930 . S
H6396 C6412 0.959 . S
H6397 C6412 0.959 . S
H6398 C6412 0.961 . S
H6399 C6413 0.960 . S
H6400 C6413 0.961 . S
H6401 C6413 0.959 . S
H6402 C6416 0.929 . S
H6403 C6417 0.931 . S
H6404 C6419 0.930 . S
C6405 H6393 0.930 . S
C6405 C6406 1.399 . S
C6405 C6410 1.399 . S
C6406 C6405 1.399 . S
C6406 C6407 1.376 . S
C6407 H6394 0.930 . S
C6407 C6406 1.376 . S
C6407 C6408 1.388 . S
C6408 H6395 0.930 . S
C6408 C6407 1.388 . S
C6408 C6409 1.390 . S
C6409 C6408 1.390 . S
C6409 C6410 1.394 . S
C6409 C6415 1.465 . S
C6410 C6405 1.399 . S
C6410 C6409 1.394 . S
C6410 C6411 1.516 . S
C6411 C6410 1.516 . S
C6411 C6412 1.502 . S
C6411 C6413 1.561 . S
C6411 C6414 1.526 . S
C6412 H6396 0.959 . S
C6412 H6397 0.959 . S
C6412 H6398 0.961 . S
C6412 C6411 1.502 . S
C6413 H6399 0.960 . S
C6413 H6400 0.961 . S
C6413 H6401 0.959 . S
C6413 C6411 1.561 . S
C6414 C6411 1.526 . S
C6414 C6415 1.396 . S
C6414 C6419 1.390 . S
C6415 C6409 1.465 . S
C6415 C6414 1.396 . S
C6415 C6416 1.399 . S
C6416 H6402 0.929 . S
C6416 C6415 1.399 . S
C6416 C6417 1.385 . S
C6417 H6403 0.931 . S
C6417 C6416 1.385 . S
C6417 C6418 1.389 . S
C6418 C6417 1.389 . S
C6418 C6419 1.387 . S
C6419 H6404 0.930 . S
C6419 C6414 1.390 . S
C6419 C6418 1.387 . S
H6420 C6432 0.930 . S
H6421 C6434 0.930 . S
H6422 C6435 0.930 . S
H6423 C6439 0.959 . S
H6424 C6439 0.959 . S
H6425 C6439 0.961 . S
H6426 C6440 0.960 . S
H6427 C6440 0.961 . S
H6428 C6440 0.959 . S
H6429 C6443 0.929 . S
H6430 C6444 0.931 . S
H6431 C6446 0.930 . S
C6432 H6420 0.930 . S
C6432 C6433 1.399 . S
C6432 C6437 1.399 . S
C6433 C6432 1.399 . S
C6433 C6434 1.376 . S
C6434 H6421 0.930 . S
C6434 C6433 1.376 . S
C6434 C6435 1.388 . S
C6435 H6422 0.930 . S
C6435 C6434 1.388 . S
C6435 C6436 1.390 . S
C6436 C6435 1.390 . S
C6436 C6437 1.394 . S
C6436 C6442 1.465 . S
C6437 C6432 1.399 . S
C6437 C6436 1.394 . S
C6437 C6438 1.516 . S
C6438 C6437 1.516 . S
C6438 C6439 1.502 . S
C6438 C6440 1.561 . S
C6438 C6441 1.526 . S
C6439 H6423 0.959 . S
C6439 H6424 0.959 . S
C6439 H6425 0.961 . S
C6439 C6438 1.502 . S
C6440 H6426 0.960 . S
C6440 H6427 0.961 . S
C6440 H6428 0.959 . S
C6440 C6438 1.561 . S
C6441 C6438 1.526 . S
C6441 C6442 1.396 . S
C6441 C6446 1.390 . S
C6442 C6436 1.465 . S
C6442 C6441 1.396 . S
C6442 C6443 1.399 . S
C6443 H6429 0.929 . S
C6443 C6442 1.399 . S
C6443 C6444 1.385 . S
C6444 H6430 0.931 . S
C6444 C6443 1.385 . S
C6444 C6445 1.389 . S
C6445 C6444 1.389 . S
C6445 C6446 1.387 . S
C6446 H6431 0.930 . S
C6446 C6441 1.390 . S
C6446 C6445 1.387 . S
H6447 C6459 0.930 . S
H6448 C6461 0.930 . S
H6449 C6462 0.930 . S
H6450 C6466 0.959 . S
H6451 C6466 0.959 . S
H6452 C6466 0.961 . S
H6453 C6467 0.960 . S
H6454 C6467 0.961 . S
H6455 C6467 0.959 . S
H6456 C6470 0.929 . S
H6457 C6471 0.931 . S
H6458 C6473 0.930 . S
C6459 H6447 0.930 . S
C6459 C6460 1.399 . S
C6459 C6464 1.399 . S
C6460 C6459 1.399 . S
C6460 C6461 1.376 . S
C6461 H6448 0.930 . S
C6461 C6460 1.376 . S
C6461 C6462 1.388 . S
C6462 H6449 0.930 . S
C6462 C6461 1.388 . S
C6462 C6463 1.390 . S
C6463 C6462 1.390 . S
C6463 C6464 1.394 . S
C6463 C6469 1.465 . S
C6464 C6459 1.399 . S
C6464 C6463 1.394 . S
C6464 C6465 1.516 . S
C6465 C6464 1.516 . S
C6465 C6466 1.502 . S
C6465 C6467 1.561 . S
C6465 C6468 1.526 . S
C6466 H6450 0.959 . S
C6466 H6451 0.959 . S
C6466 H6452 0.961 . S
C6466 C6465 1.502 . S
C6467 H6453 0.960 . S
C6467 H6454 0.961 . S
C6467 H6455 0.959 . S
C6467 C6465 1.561 . S
C6468 C6465 1.526 . S
C6468 C6469 1.396 . S
C6468 C6473 1.390 . S
C6469 C6463 1.465 . S
C6469 C6468 1.396 . S
C6469 C6470 1.399 . S
C6470 H6456 0.929 . S
C6470 C6469 1.399 . S
C6470 C6471 1.385 . S
C6471 H6457 0.931 . S
C6471 C6470 1.385 . S
C6471 C6472 1.389 . S
C6472 C6471 1.389 . S
C6472 C6473 1.387 . S
C6473 H6458 0.930 . S
C6473 C6468 1.390 . S
C6473 C6472 1.387 . S
H6474 C6486 0.930 . S
H6475 C6488 0.930 . S
H6476 C6489 0.930 . S
H6477 C6493 0.959 . S
H6478 C6493 0.959 . S
H6479 C6493 0.961 . S
H6480 C6494 0.960 . S
H6481 C6494 0.961 . S
H6482 C6494 0.959 . S
H6483 C6497 0.929 . S
H6484 C6498 0.931 . S
H6485 C6500 0.930 . S
C6486 H6474 0.930 . S
C6486 C6487 1.399 . S
C6486 C6491 1.399 . S
C6487 C6486 1.399 . S
C6487 C6488 1.376 . S
C6488 H6475 0.930 . S
C6488 C6487 1.376 . S
C6488 C6489 1.388 . S
C6489 H6476 0.930 . S
C6489 C6488 1.388 . S
C6489 C6490 1.390 . S
C6490 C6489 1.390 . S
C6490 C6491 1.394 . S
C6490 C6496 1.465 . S
C6491 C6486 1.399 . S
C6491 C6490 1.394 . S
C6491 C6492 1.516 . S
C6492 C6491 1.516 . S
C6492 C6493 1.502 . S
C6492 C6494 1.561 . S
C6492 C6495 1.526 . S
C6493 H6477 0.959 . S
C6493 H6478 0.959 . S
C6493 H6479 0.961 . S
C6493 C6492 1.502 . S
C6494 H6480 0.960 . S
C6494 H6481 0.961 . S
C6494 H6482 0.959 . S
C6494 C6492 1.561 . S
C6495 C6492 1.526 . S
C6495 C6496 1.396 . S
C6495 C6500 1.390 . S
C6496 C6490 1.465 . S
C6496 C6495 1.396 . S
C6496 C6497 1.399 . S
C6497 H6483 0.929 . S
C6497 C6496 1.399 . S
C6497 C6498 1.385 . S
C6498 H6484 0.931 . S
C6498 C6497 1.385 . S
C6498 C6499 1.389 . S
C6499 C6498 1.389 . S
C6499 C6500 1.387 . S
C6500 H6485 0.930 . S
C6500 C6495 1.390 . S
C6500 C6499 1.387 . S
H6501 C6513 0.930 . S
H6502 C6515 0.930 . S
H6503 C6516 0.930 . S
H6504 C6520 0.959 . S
H6505 C6520 0.959 . S
H6506 C6520 0.961 . S
H6507 C6521 0.960 . S
H6508 C6521 0.961 . S
H6509 C6521 0.959 . S
H6510 C6524 0.929 . S
H6511 C6525 0.931 . S
H6512 C6527 0.930 . S
C6513 H6501 0.930 . S
C6513 C6514 1.399 . S
C6513 C6518 1.399 . S
C6514 C6513 1.399 . S
C6514 C6515 1.376 . S
C6515 H6502 0.930 . S
C6515 C6514 1.376 . S
C6515 C6516 1.388 . S
C6516 H6503 0.930 . S
C6516 C6515 1.388 . S
C6516 C6517 1.390 . S
C6517 C6516 1.390 . S
C6517 C6518 1.394 . S
C6517 C6523 1.465 . S
C6518 C6513 1.399 . S
C6518 C6517 1.394 . S
C6518 C6519 1.516 . S
C6519 C6518 1.516 . S
C6519 C6520 1.502 . S
C6519 C6521 1.561 . S
C6519 C6522 1.526 . S
C6520 H6504 0.959 . S
C6520 H6505 0.959 . S
C6520 H6506 0.961 . S
C6520 C6519 1.502 . S
C6521 H6507 0.960 . S
C6521 H6508 0.961 . S
C6521 H6509 0.959 . S
C6521 C6519 1.561 . S
C6522 C6519 1.526 . S
C6522 C6523 1.396 . S
C6522 C6527 1.390 . S
C6523 C6517 1.465 . S
C6523 C6522 1.396 . S
C6523 C6524 1.399 . S
C6524 H6510 0.929 . S
C6524 C6523 1.399 . S
C6524 C6525 1.385 . S
C6525 H6511 0.931 . S
C6525 C6524 1.385 . S
C6525 C6526 1.389 . S
C6526 C6525 1.389 . S
C6526 C6527 1.387 . S
C6527 H6512 0.930 . S
C6527 C6522 1.390 . S
C6527 C6526 1.387 . S
C1357 C7 1.335 . S
C1369 C427 1.317 . S
C1384 C777 1.326 . S
C1396 C21 1.354 . S
C1411 C35 1.381 . S
C1423 C399 1.373 . S
C1438 C49 1.381 . S
C1450 C749 1.372 . S
C1465 C371 1.333 . S
C1477 C63 1.316 . S
C1492 C77 1.315 . S
C1504 C721 1.330 . S
C1519 C343 1.338 . S
C1531 C91 1.318 . S
C1546 C105 1.315 . S
C1558 C693 1.326 . S
C1573 C483 1.319 . S
C1585 C119 1.318 . S
C1600 C133 1.364 . S
C1612 C833 1.380 . S
C1627 C147 1.366 . S
C1639 C455 1.381 . S
C1654 C161 1.368 . S
C1666 C805 1.381 . S
C1681 C175 1.378 . S
C1693 C539 1.378 . S
C1708 C889 1.356 . S
C1720 C189 1.378 . S
C1735 C511 1.324 . S
C1747 C203 1.316 . S
C1762 C217 1.330 . S
C1774 C861 1.316 . S
C1789 C917 1.317 . S
C1801 C231 1.339 . S
C1816 C903 1.380 . S
C1828 C245 1.361 . S
C1843 C259 1.362 . S
C1855 C1001 1.380 . S
C1870 C1309 1.380 . S
C1882 C273 1.360 . S
C1897 C651 1.318 . S
C1909 C287 1.319 . S
C1924 C301 1.324 . S
C1936 C1281 1.351 . S
C1951 C315 1.381 . S
C1963 C623 1.372 . S
C1978 C329 1.363 . S
C1990 C931 1.380 . S
C2005 C357 1.343 . S
C2017 C1113 1.370 . S
C2032 C385 1.362 . S
C2044 C1085 1.333 . S
C2059 C413 1.380 . S
C2071 C1057 1.362 . S
C2086 C441 1.381 . S
C2098 C1029 1.373 . S
C2113 C1169 1.334 . S
C2125 C469 1.316 . S
C2140 C497 1.372 . S
C2152 C1141 1.381 . S
C2167 C1225 1.331 . S
C2179 C525 1.316 . S
C2194 C553 1.356 . S
C2206 C1197 1.328 . S
C2221 C567 1.378 . S
C2233 C1253 1.356 . S
C2248 C581 1.317 . S
C2260 C1239 1.338 . S
C2275 C595 1.366 . S
C2287 C1337 1.381 . S
C2302 C973 1.374 . S
C2314 C609 1.348 . S
C2329 C945 1.316 . S
C2341 C637 1.338 . S
C2356 C665 1.325 . S
C2368 C1267 1.316 . S
C2383 C679 1.354 . S
C2395 C1099 1.326 . S
C2410 C1071 1.328 . S
C2422 C707 1.315 . S
C2437 C735 1.332 . S
C2449 C1043 1.316 . S
C2464 C763 1.363 . S
C2476 C1015 1.380 . S
C2491 C1155 1.379 . S
C2503 C791 1.359 . S
C2518 C1127 1.361 . S
C2530 C819 1.380 . S
C2545 C847 1.332 . S
C2557 C1211 1.316 . S
C2572 C1183 1.366 . S
C2584 C875 1.381 . S
C2599 C959 1.348 . S
C2611 C1323 1.374 . S
C2626 C987 1.345 . S
C2638 C1295 1.371 . S
C2653 C8 1.351 . S
C2665 C778 1.360 . S
C2680 C22 1.349 . S
C2692 C400 1.344 . S
C2707 C36 1.372 . S
C2719 C750 1.364 . S
C2734 C428 1.361 . S
C2746 C50 1.370 . S
C2761 C64 1.378 . S
C2773 C358 1.374 . S
C2788 C78 1.378 . S
C2800 C708 1.372 . S
C2815 C92 1.367 . S
C2827 C386 1.359 . S
C2842 C680 1.354 . S
C2854 C106 1.347 . S
C2869 C120 1.379 . S
C2881 C288 1.377 . S
C2896 C134 1.349 . S
C2908 C1254 1.344 . S
C2923 C1268 1.373 . S
C2935 C148 1.378 . S
C2950 C162 1.343 . S
C2962 C1282 1.345 . S
C2977 C1002 1.356 . S
C2989 C176 1.349 . S
C3004 C1310 1.365 . S
C3016 C190 1.356 . S
C3031 C204 1.372 . S
C3043 C988 1.364 . S
C3058 C904 1.349 . S
C3070 C218 1.344 . S
C3085 C890 1.363 . S
C3097 C232 1.372 . S
C3112 C1142 1.378 . S
C3124 C246 1.372 . S
C3139 C260 1.368 . S
C3151 C1156 1.359 . S
C3166 C274 1.357 . S
C3178 C1170 1.349 . S
C3193 C302 1.349 . S
C3205 C1198 1.344 . S
C3220 C316 1.353 . S
C3232 C876 1.363 . S
C3247 C848 1.354 . S
C3259 C330 1.347 . S
C3274 C344 1.378 . S
C3286 C1114 1.372 . S
C3301 C1086 1.349 . S
C3313 C372 1.344 . S
C3328 C1044 1.379 . S
C3340 C414 1.375 . S
C3355 C442 1.368 . S
C3367 C1016 1.359 . S
C3382 C456 1.373 . S
C3394 C624 1.365 . S
C3409 C470 1.361 . S
C3421 C918 1.353 . S
C3436 C484 1.343 . S
C3448 C932 1.345 . S
C3463 C498 1.356 . S
C3475 C946 1.366 . S
C3490 C512 1.378 . S
C3502 C1338 1.374 . S
C3517 C974 1.372 . S
C3529 C526 1.377 . S
C3544 C1324 1.376 . S
C3556 C540 1.369 . S
C3571 C1240 1.378 . S
C3583 C554 1.378 . S
C3598 C1226 1.361 . S
C3610 C568 1.370 . S
C3625 C582 1.378 . S
C3637 C806 1.372 . S
C3652 C596 1.378 . S
C3664 C820 1.374 . S
C3679 C610 1.356 . S
C3691 C834 1.349 . S
C3706 C862 1.358 . S
C3718 C638 1.350 . S
C3733 C1212 1.373 . S
C3745 C652 1.365 . S
C3760 C1184 1.343 . S
C3772 C666 1.345 . S
C3787 C694 1.368 . S
C3799 C1072 1.375 . S
C3814 C722 1.375 . S
C3826 C1100 1.379 . S
C3841 C1030 1.348 . S
C3853 C736 1.344 . S
C3868 C1058 1.348 . S
C3880 C764 1.344 . S
C3895 C960 1.374 . S
C3907 C792 1.378 . S
C3922 C1296 1.378 . S
C3934 C1128 1.378 . S
C3949 C9 1.154 . S
C3961 C1305 1.167 . S
C3976 C23 1.027 . S
C3988 C983 1.156 . S
C4003 C899 1.201 . S
C4015 C37 1.066 . S
C4030 C997 1.156 . S
C4042 C51 1.132 . S
C4057 C65 1.052 . S
C4069 C269 1.151 . S
C4084 C79 1.127 . S
C4096 C1291 1.198 . S
C4111 C241 1.149 . S
C4123 C93 1.082 . S
C4138 C255 1.155 . S
C4150 C107 1.130 . S
C4165 C395 1.167 . S
C4177 C121 1.008 . S
C4192 C135 1.159 . S
C4204 C745 1.174 . S
C4219 C149 1.111 . S
C4231 C423 1.152 . S
C4246 C163 1.009 . S
C4258 C773 1.165 . S
C4273 C339 1.187 . S
C4285 C177 1.015 . S
C4300 C191 1.134 . S
C4312 C689 1.197 . S
C4327 C367 1.178 . S
C4339 C205 1.006 . S
C4354 C219 1.157 . S
C4366 C717 1.184 . S
C4381 C233 1.154 . S
C4393 C1207 1.188 . S
C4408 C479 1.201 . S
C4420 C247 1.067 . S
C4435 C261 1.047 . S
C4447 C829 1.198 . S
C4462 C451 1.152 . S
C4474 C275 1.114 . S
C4489 C289 1.159 . S
C4501 C465 1.174 . S
C4516 C843 1.159 . S
C4528 C303 1.141 . S
C4543 C185 1.201 . S
C4555 C317 1.073 . S
C4570 C213 1.188 . S
C4582 C331 1.153 . S
C4597 C969 1.195 . S
C4609 C345 1.035 . S
C4624 C359 1.140 . S
C4636 C1319 1.195 . S
C4651 C1235 1.149 . S
C4663 C373 1.087 . S
C4678 C387 1.010 . S
C4690 C1333 1.164 . S
C4705 C605 1.182 . S
C4717 C401 1.158 . S
C4732 C955 1.199 . S
C4744 C415 1.055 . S
C4759 C429 1.007 . S
C4771 C577 1.168 . S
C4786 C443 1.147 . S
C4798 C591 1.192 . S
C4813 C457 1.041 . S
C4825 C59 1.153 . S
C4840 C471 1.138 . S
C4852 C1081 1.195 . S
C4867 C87 1.191 . S
C4879 C485 1.023 . S
C4894 C499 1.156 . S
C4906 C1109 1.186 . S
C4921 C3 1.193 . S
C4933 C513 1.145 . S
C4948 C527 1.046 . S
C4960 C1025 1.152 . S
C4975 C31 1.190 . S
C4987 C541 1.149 . S
C5002 C1053 1.201 . S
C5014 C555 1.067 . S
C5029 C569 1.156 . S
C5041 C871 1.168 . S
C5056 C583 1.022 . S
C5068 C143 1.158 . S
C5083 C1165 1.188 . S
C5095 C597 1.153 . S
C5110 C611 1.128 . S
C5122 C115 1.198 . S
C5137 C129 1.184 . S
C5149 C625 1.156 . S
C5164 C639 1.148 . S
C5176 C1179 1.191 . S
C5191 C521 1.187 . S
C5203 C653 1.015 . S
C5218 C667 1.091 . S
C5230 C549 1.202 . S
C5245 C633 1.201 . S
C5257 C681 1.069 . S
C5272 C695 1.147 . S
C5284 C311 1.192 . S
C5299 C709 1.158 . S
C5311 C227 1.184 . S
C5326 C723 1.004 . S
C5338 C325 1.174 . S
C5353 C737 1.033 . S
C5365 C941 1.195 . S
C5380 C619 1.177 . S
C5392 C751 1.006 . S
C5407 C913 1.202 . S
C5419 C765 1.076 . S
C5434 C779 1.037 . S
C5446 C927 1.196 . S
C5461 C1067 1.168 . S
C5473 C793 1.154 . S
C5488 C73 1.200 . S
C5500 C807 1.058 . S
C5515 C1095 1.181 . S
C5527 C821 1.158 . S
C5542 C835 1.138 . S
C5554 C101 1.196 . S
C5569 C1011 1.186 . S
C5581 C849 1.155 . S
C5596 C863 1.026 . S
C5608 C17 1.192 . S
C5623 C1039 1.168 . S
C5635 C877 1.155 . S
C5650 C45 1.149 . S
C5662 C891 1.064 . S
C5677 C535 1.150 . S
C5689 C905 1.101 . S
C5704 C919 1.007 . S
C5716 C1151 1.167 . S
C5731 C933 1.048 . S
C5743 C157 1.198 . S
C5758 C1123 1.167 . S
C5770 C947 1.009 . S
C5785 C961 1.071 . S
C5797 C1137 1.150 . S
C5812 C171 1.152 . S
C5824 C975 1.114 . S
C5839 C857 1.170 . S
C5851 C989 1.006 . S
C5866 C1003 1.159 . S
C5878 C885 1.181 . S
C5893 C1017 1.158 . S
C5905 C297 1.172 . S
C5920 C647 1.170 . S
C5932 C1031 1.006 . S
C5947 C563 1.150 . S
C5959 C1045 1.103 . S
C5974 C1059 1.147 . S
C5986 C661 1.192 . S
C6001 C1073 1.077 . S
C6013 C1277 1.150 . S
C6028 C283 1.199 . S
C6040 C1087 1.051 . S
C6055 C1249 1.150 . S
C6067 C1101 1.102 . S
C6082 C1263 1.201 . S
C6094 C1115 1.071 . S
C6109 C731 1.183 . S
C6121 C1129 1.010 . S
C6136 C1143 1.008 . S
C6148 C409 1.166 . S
C6163 C1157 1.015 . S
C6175 C759 1.188 . S
C6190 C1171 1.048 . S
C6202 C437 1.152 . S
C6217 C675 1.163 . S
C6229 C1185 1.013 . S
C6244 C1199 1.040 . S
C6256 C353 1.153 . S
C6271 C1213 1.118 . S
C6283 C703 1.153 . S
C6298 C1227 1.157 . S
C6310 C381 1.185 . S
C6325 C199 1.153 . S
C6337 C1241 1.121 . S
C6352 C1255 1.136 . S
C6364 C815 1.196 . S
C6379 C1269 1.101 . S
C6391 C493 1.151 . S
C6406 C1283 1.030 . S
C6418 C787 1.156 . S
C6433 C1297 1.156 . S
C6445 C801 1.168 . S
C6460 C507 1.188 . S
C6472 C1311 1.152 . S
C6487 C1193 1.173 . S
C6499 C1325 1.005 . S
C6514 C1221 1.202 . S
C6526 C1339 1.077 . S
