# Generated by pormake.
# Topology ung, (4)-cn, num edge types: 1
# Building blocks:
#     Node 0, Type 0, BuildingBlock: QUQFOY_clean_sbu_1, # of connection points: 4
#     Node 1, Type 0, BuildingBlock: QUQFOY_clean_sbu_1, # of connection points: 4
#     Node 2, Type 0, BuildingBlock: QUQFOY_clean_sbu_1, # of connection points: 4
#     Node 3, Type 0, BuildingBlock: QUQFOY_clean_sbu_1, # of connection points: 4
#     Node 4, Type 0, BuildingBlock: QUQFOY_clean_sbu_1, # of connection points: 4
#     Node 5, Type 0, BuildingBlock: QUQFOY_clean_sbu_1, # of connection points: 4
#     Node 6, Type 0, BuildingBlock: QUQFOY_clean_sbu_1, # of connection points: 4
#     Node 7, Type 0, BuildingBlock: QUQFOY_clean_sbu_1, # of connection points: 4
#     Node 8, Type 0, BuildingBlock: QUQFOY_clean_sbu_1, # of connection points: 4
#     Node 9, Type 0, BuildingBlock: QUQFOY_clean_sbu_1, # of connection points: 4
#     Node 10, Type 0, BuildingBlock: QUQFOY_clean_sbu_1, # of connection points: 4
#     Node 11, Type 0, BuildingBlock: QUQFOY_clean_sbu_1, # of connection points: 4
#     Node 12, Type 0, BuildingBlock: QUQFOY_clean_sbu_1, # of connection points: 4
#     Node 13, Type 0, BuildingBlock: QUQFOY_clean_sbu_1, # of connection points: 4
#     Node 14, Type 0, BuildingBlock: QUQFOY_clean_sbu_1, # of connection points: 4
#     Node 15, Type 0, BuildingBlock: QUQFOY_clean_sbu_1, # of connection points: 4
#     Node 16, Type 0, BuildingBlock: QUQFOY_clean_sbu_1, # of connection points: 4
#     Node 17, Type 0, BuildingBlock: QUQFOY_clean_sbu_1, # of connection points: 4
#     Edge 18, Type (0, 0), BuildingBlock: OJICUG_clean_linker_0, # of connection points: 2
#     Edge 19, Type (0, 0), BuildingBlock: OJICUG_clean_linker_0, # of connection points: 2
#     Edge 20, Type (0, 0), BuildingBlock: OJICUG_clean_linker_0, # of connection points: 2
#     Edge 21, Type (0, 0), BuildingBlock: OJICUG_clean_linker_0, # of connection points: 2
#     Edge 22, Type (0, 0), BuildingBlock: OJICUG_clean_linker_0, # of connection points: 2
#     Edge 23, Type (0, 0), BuildingBlock: OJICUG_clean_linker_0, # of connection points: 2
#     Edge 24, Type (0, 0), BuildingBlock: OJICUG_clean_linker_0, # of connection points: 2
#     Edge 25, Type (0, 0), BuildingBlock: OJICUG_clean_linker_0, # of connection points: 2
#     Edge 26, Type (0, 0), BuildingBlock: OJICUG_clean_linker_0, # of connection points: 2
#     Edge 27, Type (0, 0), BuildingBlock: OJICUG_clean_linker_0, # of connection points: 2
#     Edge 28, Type (0, 0), BuildingBlock: OJICUG_clean_linker_0, # of connection points: 2
#     Edge 29, Type (0, 0), BuildingBlock: OJICUG_clean_linker_0, # of connection points: 2
#     Edge 30, Type (0, 0), BuildingBlock: OJICUG_clean_linker_0, # of connection points: 2
#     Edge 31, Type (0, 0), BuildingBlock: OJICUG_clean_linker_0, # of connection points: 2
#     Edge 32, Type (0, 0), BuildingBlock: OJICUG_clean_linker_0, # of connection points: 2
#     Edge 33, Type (0, 0), BuildingBlock: OJICUG_clean_linker_0, # of connection points: 2
#     Edge 34, Type (0, 0), BuildingBlock: OJICUG_clean_linker_0, # of connection points: 2
#     Edge 35, Type (0, 0), BuildingBlock: OJICUG_clean_linker_0, # of connection points: 2
#     Edge 36, Type (0, 0), BuildingBlock: OJICUG_clean_linker_0, # of connection points: 2
#     Edge 37, Type (0, 0), BuildingBlock: OJICUG_clean_linker_0, # of connection points: 2
#     Edge 38, Type (0, 0), BuildingBlock: OJICUG_clean_linker_0, # of connection points: 2
#     Edge 39, Type (0, 0), BuildingBlock: OJICUG_clean_linker_0, # of connection points: 2
#     Edge 40, Type (0, 0), BuildingBlock: OJICUG_clean_linker_0, # of connection points: 2
#     Edge 41, Type (0, 0), BuildingBlock: OJICUG_clean_linker_0, # of connection points: 2
#     Edge 42, Type (0, 0), BuildingBlock: OJICUG_clean_linker_0, # of connection points: 2
#     Edge 43, Type (0, 0), BuildingBlock: OJICUG_clean_linker_0, # of connection points: 2
#     Edge 44, Type (0, 0), BuildingBlock: OJICUG_clean_linker_0, # of connection points: 2
#     Edge 45, Type (0, 0), BuildingBlock: OJICUG_clean_linker_0, # of connection points: 2
#     Edge 46, Type (0, 0), BuildingBlock: OJICUG_clean_linker_0, # of connection points: 2
#     Edge 47, Type (0, 0), BuildingBlock: OJICUG_clean_linker_0, # of connection points: 2
#     Edge 48, Type (0, 0), BuildingBlock: OJICUG_clean_linker_0, # of connection points: 2
#     Edge 49, Type (0, 0), BuildingBlock: OJICUG_clean_linker_0, # of connection points: 2
#     Edge 50, Type (0, 0), BuildingBlock: OJICUG_clean_linker_0, # of connection points: 2
#     Edge 51, Type (0, 0), BuildingBlock: OJICUG_clean_linker_0, # of connection points: 2
#     Edge 52, Type (0, 0), BuildingBlock: OJICUG_clean_linker_0, # of connection points: 2
#     Edge 53, Type (0, 0), BuildingBlock: OJICUG_clean_linker_0, # of connection points: 2
# Relax obj value: 0.077
# Max RMSD: 0.179
# Mean RMSD: 0.148
data_MOF--net-ung--node1-QUQFOY_clean_sbu_1--edge1-OJICUG_clean_linker_0
_symmetry_space_group_name_H-M    P1
_symmetry_Int_Tables_number       1
_symmetry_cell_setting            triclinic
loop_
_symmetry_equiv_pos_as_xyz
'x, y, z'
_cell_length_a     52.81812
_cell_length_b     60.520728
_cell_length_c     16.173089
_cell_angle_alpha  90.451189
_cell_angle_beta   93.822689
_cell_angle_gamma 124.00625
loop_
_atom_site_label
_atom_site_type_symbol
_atom_site_fract_x
_atom_site_fract_y
_atom_site_fract_z
_atom_type_partial_charge
O0 O 0.07014 0.58966 0.35967 0.0
Cd1 Cd 0.06903 0.61113 0.26384 0.0
Cd2 Cd 0.01955 0.59994 0.33179 0.0
O3 O 0.02106 0.5685 0.37924 0.0
O4 O 0.0906 0.60684 0.17337 0.0
O5 O 0.04049 0.58746 0.16712 0.0
C6 C 0.06379 0.59019 0.13566 0.0
C7 C 0.98154 0.59777 0.23985 0.0
C8 C 0.04672 0.57104 0.39223 0.0
C9 C 0.07568 0.6555 0.36037 0.0
O10 O 0.0514 0.63689 0.38999 0.0
O11 O 0.08502 0.65074 0.29616 0.0
O12 O 0.97802 0.59485 0.31828 0.0
O13 O 0.00567 0.60058 0.21398 0.0
O14 O 0.44085 0.50178 0.33993 0.0
Cd15 Cd 0.41638 0.48099 0.23387 0.0
Cd16 Cd 0.43318 0.44754 0.27899 0.0
O17 O 0.46492 0.48146 0.35576 0.0
O18 O 0.42755 0.50683 0.14397 0.0
O19 O 0.44272 0.47937 0.15666 0.0
C20 C 0.44492 0.49937 0.12164 0.0
C21 C 0.44204 0.4186 0.20698 0.0
C22 C 0.46137 0.49991 0.37734 0.0
C23 C 0.36797 0.43131 0.29906 0.0
O24 O 0.38953 0.42809 0.3153 0.0
O25 O 0.37206 0.45038 0.25559 0.0
O26 O 0.44282 0.41968 0.2869 0.0
O27 O 0.43861 0.43535 0.16812 0.0
O28 O 0.56938 0.03448 0.20149 0.0
Cd29 Cd 0.59165 0.03995 0.31264 0.0
Cd30 Cd 0.5885 0.99725 0.25808 0.0
O31 O 0.55383 0.99273 0.17341 0.0
O32 O 0.57513 0.05407 0.38973 0.0
O33 O 0.56564 0.01347 0.3926 0.0
C34 C 0.55983 0.03035 0.41769 0.0
C35 C 0.59074 0.96721 0.34487 0.0
C36 C 0.55401 0.01335 0.15512 0.0
C37 C 0.64709 0.052 0.24699 0.0
O38 O 0.63034 0.02735 0.22458 0.0
O39 O 0.63804 0.06195 0.29757 0.0
O40 O 0.59089 0.96512 0.26532 0.0
O41 O 0.58671 0.98481 0.37398 0.0
O42 O 0.07201 0.51709 0.85783 0.0
Cd43 Cd 0.07077 0.49445 0.7606 0.0
Cd44 Cd 0.0228 0.45706 0.83184 0.0
O45 O 0.02331 0.4895 0.88004 0.0
O46 O 0.09132 0.51965 0.66985 0.0
O47 O 0.04139 0.48952 0.66536 0.0
C48 C 0.06426 0.50965 0.63337 0.0
C49 C 0.98494 0.42153 0.74085 0.0
C50 C 0.0486 0.51238 0.892 0.0
C51 C 0.0798 0.45778 0.85481 0.0
O52 O 0.05581 0.45244 0.88718 0.0
O53 O 0.08803 0.47129 0.79012 0.0
O54 O 0.98186 0.42112 0.81961 0.0
O55 O 0.00854 0.44249 0.71428 0.0
O56 O 0.54825 0.5656 0.70567 0.0
Cd57 Cd 0.57483 0.58389 0.81084 0.0
Cd58 Cd 0.57042 0.62282 0.75678 0.0
O59 O 0.53225 0.59196 0.68283 0.0
O60 O 0.56078 0.55489 0.89072 0.0
O61 O 0.5522 0.58676 0.89861 0.0
C62 C 0.54669 0.56433 0.92315 0.0
C63 C 0.57651 0.65697 0.84508 0.0
C64 C 0.53106 0.57076 0.66476 0.0
C65 C 0.62748 0.62381 0.7302 0.0
O66 O 0.61028 0.63186 0.71148 0.0
O67 O 0.62013 0.60625 0.78371 0.0
O68 O 0.57394 0.65784 0.7653 0.0
O69 O 0.57315 0.63581 0.87426 0.0
O70 O 0.46549 0.99603 0.83653 0.0
Cd71 Cd 0.43592 0.99019 0.74102 0.0
Cd72 Cd 0.45687 0.04183 0.7833 0.0
O73 O 0.49248 0.04026 0.84218 0.0
O74 O 0.44255 0.97279 0.64599 0.0
O75 O 0.45827 0.01528 0.65595 0.0
C76 C 0.45902 0.99669 0.61953 0.0
C77 C 0.45784 0.0749 0.70347 0.0
C78 C 0.48865 0.0184 0.86496 0.0
C79 C 0.39546 0.99648 0.83674 0.0
O80 O 0.41825 0.02064 0.84472 0.0
O81 O 0.39481 0.98008 0.785 0.0
O82 O 0.46528 0.07888 0.78252 0.0
O83 O 0.45239 0.0533 0.6688 0.0
O84 O 0.73361 0.92022 0.69132 0.0
Cd85 Cd 0.73345 0.94227 0.59609 0.0
Cd86 Cd 0.68506 0.93319 0.66601 0.0
O87 O 0.68482 0.90077 0.7118 0.0
O88 O 0.75363 0.93684 0.50383 0.0
O89 O 0.70387 0.91892 0.5002 0.0
C90 C 0.72646 0.92079 0.46719 0.0
C91 C 0.64818 0.93254 0.57361 0.0
C92 C 0.70983 0.90213 0.72398 0.0
C93 C 0.74273 0.98773 0.69407 0.0
O94 O 0.71821 0.96973 0.72431 0.0
O95 O 0.75126 0.98232 0.6293 0.0
O96 O 0.6443 0.92955 0.65187 0.0
O97 O 0.67204 0.93471 0.54836 0.0
O98 O 0.12838 0.84029 0.67416 0.0
Cd99 Cd 0.10006 0.81682 0.5769 0.0
Cd100 Cd 0.12258 0.78741 0.61936 0.0
O101 O 0.15707 0.8241 0.67996 0.0
O102 O 0.10608 0.84071 0.48375 0.0
O103 O 0.12393 0.81514 0.49198 0.0
C104 C 0.12374 0.83412 0.45704 0.0
C105 C 0.12495 0.75571 0.54001 0.0
C106 C 0.15201 0.84151 0.70319 0.0
C107 C 0.06009 0.77059 0.67001 0.0
O108 O 0.08362 0.76981 0.67943 0.0
O109 O 0.05893 0.78589 0.61821 0.0
O110 O 0.13233 0.75948 0.61908 0.0
O111 O 0.11901 0.77151 0.5049 0.0
O112 O 0.17908 0.29891 0.64714 0.0
Cd113 Cd 0.21125 0.30496 0.57183 0.0
Cd114 Cd 0.25063 0.34946 0.64725 0.0
O115 O 0.20763 0.34279 0.66749 0.0
O116 O 0.19836 0.29515 0.44844 0.0
O117 O 0.21673 0.33511 0.5055 0.0
C118 C 0.20631 0.31945 0.44004 0.0
C119 C 0.28388 0.37401 0.54354 0.0
C120 C 0.18239 0.3202 0.67434 0.0
C121 C 0.25938 0.30963 0.6998 0.0
O122 O 0.26286 0.3309 0.72814 0.0
O123 O 0.24418 0.2988 0.62953 0.0
O124 O 0.2819 0.38612 0.60649 0.0
O125 O 0.26834 0.34838 0.54154 0.0
O126 O 0.72938 0.84537 0.1871 0.0
Cd127 Cd 0.72763 0.8222 0.09103 0.0
Cd128 Cd 0.67804 0.78604 0.15876 0.0
O129 O 0.68024 0.81942 0.20675 0.0
O130 O 0.7495 0.84714 1.0009 0.0
O131 O 0.69926 0.81808 0.9944 0.0
C132 C 0.72277 0.83788 0.96329 0.0
C133 C 0.63955 0.75056 0.06816 0.0
C134 C 0.70622 0.8417 0.22003 0.0
C135 C 0.73372 0.78471 0.18844 0.0
O136 O 0.70948 0.78007 0.21745 0.0
O137 O 0.74325 0.7981 0.12386 0.0
O138 O 0.63636 0.75072 0.14673 0.0
O139 O 0.6636 0.77102 0.04126 0.0
O140 O 0.23132 0.90682 0.04017 0.0
Cd141 Cd 0.25425 0.92438 0.15012 0.0
Cd142 Cd 0.24935 0.96244 0.09408 0.0
O143 O 0.21438 0.93221 1.01155 0.0
O144 O 0.23954 0.89451 0.22668 0.0
O145 O 0.22829 0.92469 0.23313 0.0
C146 C 0.22363 0.90246 0.25678 0.0
C147 C 0.25208 0.99537 0.18 0.0
C148 C 0.21517 0.91196 0.99396 0.0
C149 C 0.30841 0.96596 0.07953 0.0
O150 O 0.29093 0.97344 0.05747 0.0
O151 O 0.30038 0.94794 0.13177 0.0
O152 O 0.25126 0.99666 0.10021 0.0
O153 O 0.2485 0.97421 0.2101 0.0
O154 O 0.13864 0.32845 0.1284 0.0
Cd155 Cd 0.10368 0.32479 0.05532 0.0
Cd156 Cd 0.13198 0.37603 0.11215 0.0
O157 O 0.16769 0.37218 0.15402 0.0
O158 O 0.09433 0.29848 0.96218 0.0
O159 O 0.11541 0.3416 0.94766 0.0
C160 C 0.10793 0.31884 0.91648 0.0
C161 C 0.13182 0.40792 0.02979 0.0
C162 C 0.16318 0.3492 0.16065 0.0
C163 C 0.07241 0.33378 0.18129 0.0
O164 O 0.09642 0.35739 0.18676 0.0
O165 O 0.06803 0.31711 0.12387 0.0
O166 O 0.14274 0.41374 0.10663 0.0
O167 O 0.12348 0.38496 0.99841 0.0
O168 O 0.40477 0.25822 0.02066 0.0
Cd169 Cd 0.40398 0.28021 0.92592 0.0
Cd170 Cd 0.35463 0.2681 0.98957 0.0
O171 O 0.35492 0.23549 0.03045 0.0
O172 O 0.42416 0.27589 0.83144 0.0
O173 O 0.3741 0.25606 0.83201 0.0
C174 C 0.39686 0.25896 0.79675 0.0
C175 C 0.31871 0.27014 0.90205 0.0
C176 C 0.38068 0.23848 0.04755 0.0
C177 C 0.40888 0.32286 0.0269 0.0
O178 O 0.38549 0.30323 0.0564 0.0
O179 O 0.41819 0.31941 0.96024 0.0
O180 O 0.31409 0.26452 0.97889 0.0
O181 O 0.34244 0.27273 0.87406 0.0
O182 O 0.80567 0.17548 1.00896 0.0
Cd183 Cd 0.7763 0.15198 0.9132 0.0
Cd184 Cd 0.79726 0.1216 0.95572 0.0
O185 O 0.83317 0.15816 1.01439 0.0
O186 O 0.78201 0.1759 0.82057 0.0
O187 O 0.79892 0.14959 0.82581 0.0
C188 C 0.79895 0.1688 0.79183 0.0
C189 C 0.79702 0.08873 0.87466 0.0
C190 C 0.82907 0.1762 0.03723 0.0
C191 C 0.73591 0.10693 1.00942 0.0
O192 O 0.75897 0.10546 1.01847 0.0
O193 O 0.73504 0.1221 0.95652 0.0
O194 O 0.80516 0.09248 0.95337 0.0
O195 O 0.79177 0.10511 0.84075 0.0
O196 O 0.89398 0.69393 0.87284 0.0
Cd197 Cd 0.91785 0.7004 0.98192 0.0
Cd198 Cd 0.91537 0.65817 0.92604 0.0
O199 O 0.8791 0.65236 0.84513 0.0
O200 O 0.90173 0.71458 0.06016 0.0
O201 O 0.89321 0.67435 0.06466 0.0
C202 C 0.88713 0.69107 0.08962 0.0
C203 C 0.92006 0.62943 1.01336 0.0
C204 C 0.87837 0.67259 0.82752 0.0
C205 C 0.97261 0.71343 0.90952 0.0
O206 O 0.95615 0.68869 0.88812 0.0
O207 O 0.96387 0.72316 0.96197 0.0
O208 O 0.9192 0.62679 0.93361 0.0
O209 O 0.91567 0.6468 0.04262 0.0
O210 O 0.40095 0.18457 0.51517 0.0
Cd211 Cd 0.39979 0.16116 0.42059 0.0
Cd212 Cd 0.35081 0.12476 0.49134 0.0
O213 O 0.35222 0.15778 0.5383 0.0
O214 O 0.42157 0.18588 0.32985 0.0
O215 O 0.37149 0.1561 0.3222 0.0
C216 C 0.39489 0.17598 0.29099 0.0
C217 C 0.31255 0.08896 0.40162 0.0
C218 C 0.37781 0.18046 0.54943 0.0
C219 C 0.4073 0.12463 0.52012 0.0
O220 O 0.38298 0.11961 0.54958 0.0
O221 O 0.4164 0.13789 0.45516 0.0
O222 O 0.30952 0.08911 0.48029 0.0
O223 O 0.3363 0.10959 0.37423 0.0
O224 O 0.90927 0.24203 0.37345 0.0
Cd225 Cd 0.93029 0.25915 0.48577 0.0
Cd226 Cd 0.92619 0.29759 0.42898 0.0
O227 O 0.89262 0.26755 0.34319 0.0
O228 O 0.91486 0.22905 0.56185 0.0
O229 O 0.90278 0.25871 0.56503 0.0
C230 C 0.89832 0.23665 0.58973 0.0
C231 C 0.92676 0.3294 0.51468 0.0
C232 C 0.89364 0.24741 0.32582 0.0
C233 C 0.9862 0.30238 0.42513 0.0
O234 O 0.96892 0.3097 0.39915 0.0
O235 O 0.97696 0.2837 0.47537 0.0
O236 O 0.92714 0.33134 0.43516 0.0
O237 O 0.92311 0.30815 0.54419 0.0
O238 O 0.78854 0.65404 0.50815 0.0
Cd239 Cd 0.76053 0.64875 0.40888 0.0
Cd240 Cd 0.78021 0.69999 0.45192 0.0
O241 O 0.81498 0.69824 0.51589 0.0
O242 O 0.76892 0.63229 0.31496 0.0
O243 O 0.78438 0.67467 0.32687 0.0
C244 C 0.78572 0.65641 0.29041 0.0
C245 C 0.78251 0.73375 0.37299 0.0
C246 C 0.81112 0.67638 0.53881 0.0
C247 C 0.71752 0.65406 0.49573 0.0
O248 O 0.74012 0.67822 0.50674 0.0
O249 O 0.71824 0.638 0.44579 0.0
O250 O 0.78855 0.73698 0.45259 0.0
O251 O 0.77791 0.71257 0.33748 0.0
C252 C 0.0262 0.5303 0.98235 0.0
C253 C 0.05173 0.53345 0.94825 0.0
H254 H 0.00992 0.54613 0.06694 0.0
C255 C 0.08094 0.5568 0.97058 0.0
H256 H 0.0034 0.51269 0.96606 0.0
C257 C 0.08472 0.57589 0.02856 0.0
C258 C 0.05937 0.57228 0.065 0.0
H259 H 0.10115 0.56002 0.94527 0.0
H260 H 0.10765 0.5931 0.0466 0.0
C261 C 0.02997 0.54959 0.03977 0.0
C262 C 0.51378 0.52285 0.9994 0.0
C263 C 0.52172 0.54828 0.9778 0.0
H264 H 0.48292 0.48723 0.06002 0.0
C265 C 0.50332 0.557 1.00092 0.0
H266 H 0.52718 0.51535 0.98166 0.0
C267 C 0.47757 0.54067 0.04452 0.0
C268 C 0.4697 0.51529 0.0664 0.0
H269 H 0.50852 0.57635 0.98438 0.0
H270 H 0.46418 0.54817 0.06236 0.0
C271 C 0.48812 0.50658 0.04338 0.0
C272 C 0.52017 0.9921 0.02269 0.0
C273 C 0.53831 0.01443 0.07777 0.0
H274 H 0.49078 0.97609 0.91046 0.0
C275 C 0.54244 0.03885 0.05755 0.0
H276 H 0.51695 0.9732 0.0358 0.0
C277 C 0.52784 0.04067 0.98563 0.0
C278 C 0.50861 0.01809 0.93246 0.0
H279 H 0.55671 0.05669 0.09792 0.0
H280 H 0.53063 0.05948 0.97363 0.0
C281 C 0.50542 0.9939 0.95068 0.0
C282 C 0.52552 0.03916 0.48991 0.0
C283 C 0.53402 0.0217 0.46964 0.0
H284 H 0.49458 0.04468 0.55068 0.0
C285 C 0.51595 0.99513 0.49333 0.0
H286 H 0.53859 0.0596 0.47151 0.0
C287 C 0.49035 0.98641 0.53783 0.0
C288 C 0.48228 1.00406 0.55969 0.0
H289 H 0.52159 0.98103 0.47767 0.0
H290 H 0.47751 0.96609 0.55735 0.0
C291 C 0.49998 0.03045 0.53437 0.0
C292 C 0.02516 0.53158 0.48264 0.0
C293 C 0.05034 0.55336 0.44783 0.0
H294 H 0.00975 0.50026 0.56732 0.0
C295 C 0.07976 0.55891 0.46891 0.0
H296 H 0.00221 0.52662 0.4674 0.0
C297 C 0.08411 0.54393 0.52624 0.0
C298 C 0.05915 0.52281 0.56342 0.0
H299 H 0.09973 0.57542 0.44304 0.0
H300 H 0.1072 0.54941 0.54317 0.0
C301 C 0.02951 0.51638 0.53953 0.0
C302 C 0.49447 0.55765 0.53737 0.0
C303 C 0.51191 0.55246 0.59249 0.0
H304 H 0.46501 0.54519 0.42513 0.0
C305 C 0.51288 0.53004 0.57538 0.0
H306 H 0.49345 0.5748 0.54841 0.0
C307 C 0.49713 0.5134 0.50462 0.0
C308 C 0.4797 0.51852 0.44948 0.0
H309 H 0.52614 0.52534 0.61634 0.0
H310 H 0.49832 0.49632 0.49384 0.0
C311 C 0.47841 0.54076 0.46656 0.0
C312 C 0.6858 0.861 0.31263 0.0
C313 C 0.71058 0.8632 0.27689 0.0
H314 H 0.67133 0.87783 0.39957 0.0
C315 C 0.74033 0.88596 0.29862 0.0
H316 H 0.66261 0.84387 0.29695 0.0
C317 C 0.74538 0.90533 0.35757 0.0
C318 C 0.72078 0.90262 0.39573 0.0
H319 H 0.76003 0.88849 0.27208 0.0
H320 H 0.76868 0.92202 0.37501 0.0
C321 C 0.69083 0.88058 0.37113 0.0
C322 C 0.15355 0.87551 0.37764 0.0
C323 C 0.14704 0.85044 0.39839 0.0
H324 H 0.18325 0.91187 0.31851 0.0
C325 C 0.16615 0.84277 0.37268 0.0
H326 H 0.13961 0.88221 0.39748 0.0
C327 C 0.19141 0.8599 0.3286 0.0
C328 C 0.19828 0.88517 0.30912 0.0
H329 H 0.162 0.82369 0.38819 0.0
H330 H 0.20553 0.85327 0.30969 0.0
C331 C 0.17889 0.89269 0.33354 0.0
C332 C 0.2099 0.35551 0.35604 0.0
C333 C 0.20197 0.32911 0.36007 0.0
H334 H 0.20437 0.38303 0.28811 0.0
C335 C 0.18735 0.3117 0.28956 0.0
H336 H 0.22183 0.36967 0.40887 0.0
C337 C 0.17789 0.31959 0.21977 0.0
C338 C 0.1826 0.34495 0.2195 0.0
H339 H 0.18147 0.29145 0.29009 0.0
H340 H 0.16471 0.30501 0.16855 0.0
C341 C 0.20026 0.36337 0.28637 0.0
C342 C 0.14111 0.34142 0.80091 0.0
C343 C 0.12042 0.31761 0.83854 0.0
H344 H 0.17707 0.36096 0.71959 0.0
C345 C 0.11679 0.29387 0.81081 0.0
H346 H 0.14437 0.36008 0.82034 0.0
C347 C 0.1355 0.29438 0.75244 0.0
C348 C 0.15838 0.3187 0.72139 0.0
H349 H 0.10102 0.27519 0.83829 0.0
H350 H 0.13342 0.27601 0.73612 0.0
C351 C 0.16004 0.34199 0.74341 0.0
C352 C 0.68964 0.84628 0.86887 0.0
C353 C 0.71876 0.85166 0.89336 0.0
H354 H 0.66386 0.85809 0.79688 0.0
C355 C 0.74435 0.87244 0.85717 0.0
H356 H 0.66942 0.83046 0.8959 0.0
C357 C 0.74112 0.88815 0.80031 0.0
C358 C 0.71225 0.88369 0.77881 0.0
H359 H 0.76707 0.87712 0.87462 0.0
H360 H 0.76155 0.9044 0.77526 0.0
C361 C 0.68643 0.86222 0.81252 0.0
C362 C 0.20461 0.8749 0.89748 0.0
C363 C 0.19964 0.8949 0.91711 0.0
H364 H 0.19413 0.84278 0.81372 0.0
C365 C 0.18111 0.89869 0.86151 0.0
H366 H 0.21918 0.8716 0.9383 0.0
C367 C 0.16692 0.88213 0.78937 0.0
C368 C 0.17112 0.86156 0.77148 0.0
H369 H 0.17723 0.91413 0.87417 0.0
H370 H 0.15202 0.88504 0.74861 0.0
C371 C 0.19061 0.8585 0.8254 0.0
C372 C 0.36163 0.2184 0.70181 0.0
C373 C 0.39136 0.24098 0.72495 0.0
H374 H 0.33392 0.18143 0.62881 0.0
C375 C 0.41601 0.2444 0.68504 0.0
H376 H 0.34209 0.21509 0.73156 0.0
C377 C 0.41127 0.22518 0.62593 0.0
C378 C 0.38179 0.20188 0.60585 0.0
H379 H 0.43915 0.26153 0.70131 0.0
H380 H 0.43101 0.22823 0.5981 0.0
C381 C 0.35691 0.19899 0.6432 0.0
C382 C 0.84076 0.17703 0.70568 0.0
C383 C 0.82188 0.18486 0.73206 0.0
H384 H 0.87992 0.18733 0.64191 0.0
C385 C 0.82837 0.2099 0.71098 0.0
H386 H 0.8366 0.15795 0.72133 0.0
C387 C 0.85355 0.22694 0.66621 0.0
C388 C 0.87281 0.21932 0.64154 0.0
H389 H 0.81458 0.21672 0.73123 0.0
H390 H 0.85797 0.24614 0.65118 0.0
C391 C 0.86589 0.19403 0.66104 0.0
C392 C 0.8432 0.65059 0.69735 0.0
C393 C 0.86155 0.67311 0.75166 0.0
H394 H 0.81326 0.63416 0.58607 0.0
C395 C 0.86499 0.69728 0.73171 0.0
H396 H 0.84042 0.63186 0.71035 0.0
C397 C 0.84986 0.69878 0.66039 0.0
C398 C 0.83073 0.6761 0.60752 0.0
H399 H 0.87931 0.71525 0.77155 0.0
H400 H 0.8524 0.71747 0.64827 0.0
C401 C 0.82787 0.65206 0.62598 0.0
C402 C 0.82734 0.69076 0.20791 0.0
C403 C 0.80957 0.66424 0.23212 0.0
H404 H 0.866 0.72017 0.14573 0.0
C405 C 0.81782 0.64674 0.20989 0.0
H406 H 0.82181 0.70488 0.2246 0.0
C407 C 0.84354 0.65569 0.16567 0.0
C408 C 0.86153 0.68232 0.14252 0.0
H409 H 0.80495 0.62634 0.22858 0.0
H410 H 0.84923 0.64166 0.1494 0.0
C411 C 0.85297 0.69967 0.16362 0.0
C412 C 0.36134 0.18267 0.19182 0.0
C413 C 0.39073 0.18915 0.21937 0.0
H414 H 0.33498 0.19319 0.11641 0.0
C415 C 0.41628 0.21046 0.18459 0.0
H416 H 0.34113 0.16638 0.21756 0.0
C417 C 0.41273 0.22573 0.12656 0.0
C418 C 0.38353 0.22023 0.1023 0.0
H419 H 0.43921 0.21598 0.20428 0.0
H420 H 0.43312 0.24246 0.10292 0.0
C421 C 0.35778 0.19812 0.13414 0.0
C422 C 0.86023 0.23449 0.1924 0.0
C423 C 0.87836 0.23042 0.24866 0.0
H424 H 0.83105 0.22086 0.07976 0.0
C425 C 0.88269 0.20996 0.23001 0.0
H426 H 0.85684 0.25026 0.20425 0.0
C427 C 0.86823 0.19327 0.15851 0.0
C428 C 0.84899 0.19655 0.10423 0.0
H429 H 0.89695 0.20646 0.2714 0.0
H430 H 0.87111 0.17713 0.14773 0.0
C431 C 0.84568 0.21771 0.12086 0.0
C432 C 0.10412 0.70558 0.36171 0.0
C433 C 0.09321 0.68217 0.4044 0.0
H434 H 0.12274 0.74754 0.37156 0.0
C435 C 0.09671 0.68399 0.4916 0.0
H436 H 0.10161 0.70469 0.29452 0.0
C437 C 0.10958 0.70846 0.53556 0.0
C438 C 0.11843 0.7316 0.49332 0.0
H439 H 0.08865 0.66623 0.52601 0.0
H440 H 0.11069 0.70887 0.60273 0.0
C441 C 0.11622 0.73005 0.40585 0.0
C442 C 0.32835 0.38847 0.35478 0.0
C443 C 0.34074 0.41564 0.34583 0.0
H444 H 0.30066 0.35411 0.42378 0.0
C445 C 0.33249 0.42878 0.39858 0.0
H446 H 0.33483 0.37804 0.31589 0.0
C447 C 0.31371 0.41532 0.46272 0.0
C448 C 0.30255 0.38842 0.47407 0.0
H449 H 0.34239 0.44993 0.39423 0.0
H450 H 0.30859 0.42611 0.50456 0.0
C451 C 0.30917 0.37493 0.41746 0.0
C452 C 0.61076 0.94532 0.5438 0.0
C453 C 0.62798 0.93609 0.51505 0.0
H454 H 0.58531 0.96238 0.51228 0.0
C455 C 0.62883 0.93352 0.4289 0.0
H456 H 0.6097 0.94758 0.60973 0.0
C457 C 0.6145 0.94162 0.37298 0.0
C458 C 0.59941 0.9529 0.40197 0.0
H459 H 0.64175 0.92633 0.4047 0.0
H460 H 0.61698 0.94062 0.30737 0.0
C461 C 0.59683 0.95384 0.48786 0.0
C462 C 0.68966 0.05884 0.1701 0.0
C463 C 0.67332 0.06898 0.19797 0.0
H464 H 0.72139 0.0624 0.08721 0.0
C465 C 0.67713 0.09165 0.16197 0.0
H466 H 0.6866 0.04104 0.19538 0.0
C467 C 0.69644 0.1035 0.09761 0.0
C468 C 0.71241 0.093 0.06912 0.0
H469 H 0.66404 0.09936 0.18059 0.0
H470 H 0.69913 0.12099 0.07094 0.0
C471 C 0.70909 0.07077 0.10697 0.0
C472 C 0.9459 0.60548 0.0403 0.0
C473 C 0.93008 0.61598 0.07008 0.0
H474 H 0.9746 0.59153 0.07074 0.0
C475 C 0.92789 0.61693 0.15618 0.0
H476 H 0.94813 0.60453 0.9745 0.0
C477 C 0.94277 0.60911 0.21147 0.0
C478 C 0.96059 0.60063 0.1819 0.0
H479 H 0.91584 0.62487 0.18121 0.0
H480 H 0.94188 0.61133 0.27754 0.0
C481 C 0.9612 0.59813 0.09559 0.0
C482 C 0.4326 0.37235 0.02944 0.0
C483 C 0.4241 0.34927 0.07154 0.0
H484 H 0.44501 0.41272 0.03964 0.0
C485 C 0.42609 0.35061 0.15874 0.0
H486 H 0.43108 0.37177 0.96225 0.0
C487 C 0.4345 0.37399 0.20301 0.0
C488 C 0.44047 0.39645 0.16103 0.0
H489 H 0.41979 0.33311 0.19275 0.0
H490 H 0.4343 0.37381 0.26994 0.0
C491 C 0.44046 0.39571 0.07384 0.0
C492 C 0.93315 0.34957 0.65742 0.0
C493 C 0.93517 0.35242 0.57132 0.0
H494 H 0.94678 0.36925 0.77883 0.0
C495 C 0.94982 0.3782 0.54159 0.0
H496 H 0.92198 0.32998 0.6824 0.0
C497 C 0.96439 0.40067 0.59691 0.0
C498 C 0.96423 0.39789 0.68318 0.0
H499 H 0.95187 0.38117 0.4758 0.0
H500 H 0.97705 0.4203 0.57208 0.0
C501 C 0.94733 0.37208 0.71277 0.0
C502 C 0.65897 0.61354 0.64926 0.0
C503 C 0.65276 0.63197 0.67735 0.0
H504 H 0.68355 0.60562 0.5663 0.0
C505 C 0.66675 0.65685 0.64181 0.0
H506 H 0.64784 0.59393 0.67406 0.0
C507 C 0.68656 0.66329 0.5799 0.0
C508 C 0.69263 0.6449 0.5509 0.0
H509 H 0.66199 0.67128 0.66116 0.0
H510 H 0.69736 0.68287 0.55491 0.0
C511 C 0.67865 0.6199 0.58604 0.0
C512 C 0.42833 0.11778 0.65245 0.0
C513 C 0.42513 0.11572 0.5652 0.0
H514 H 0.44234 0.10742 0.7645 0.0
C515 C 0.43664 0.10313 0.5235 0.0
H516 H 0.41981 0.12755 0.68612 0.0
C517 C 0.44903 0.09105 0.5686 0.0
C518 C 0.45092 0.09208 0.65607 0.0
H519 H 0.43439 0.10124 0.45632 0.0
H520 H 0.45605 0.08004 0.53503 0.0
C521 C 0.44147 0.10643 0.69737 0.0
C522 C 0.33847 0.95551 0.99366 0.0
C523 C 0.33421 0.97445 0.02866 0.0
H524 H 0.36035 0.94724 0.90232 0.0
C525 C 0.34952 1.00011 0.99832 0.0
H526 H 0.32615 0.93531 1.0142 0.0
C527 C 0.3684 1.00671 0.93389 0.0
C528 C 0.3722 0.98772 0.89719 0.0
H529 H 0.34608 0.01488 0.02282 0.0
H530 H 0.37996 0.02678 0.91236 0.0
C531 C 0.35723 0.96206 0.92803 0.0
C532 C 0.10479 0.45288 0.98274 0.0
C533 C 0.09826 0.44891 0.89615 0.0
H534 H 0.12171 0.44393 0.09246 0.0
C535 C 0.10661 0.43412 0.85238 0.0
H536 H 0.0986 0.46425 1.01788 0.0
C537 C 0.11924 0.42189 0.89542 0.0
C538 C 0.12453 0.42493 0.98264 0.0
H539 H 0.10163 0.43065 0.78569 0.0
H540 H 0.12375 0.40923 0.8608 0.0
C541 C 0.11821 0.44138 0.02539 0.0
C542 C 0.60254 0.70635 0.87043 0.0
C543 C 0.58709 0.68069 0.9013 0.0
H544 H 0.6313 0.74857 0.89908 0.0
C545 C 0.58572 0.67835 0.9877 0.0
H546 H 0.60417 0.70892 0.80436 0.0
C547 C 0.60092 0.70114 0.04209 0.0
C548 C 0.61832 0.72677 1.01132 0.0
H549 H 0.574 0.65887 1.01354 0.0
H550 H 0.60061 0.69863 0.10834 0.0
C551 C 0.61821 0.72911 0.92482 0.0
C552 C 0.77289 0.03794 0.69547 0.0
C553 C 0.76144 0.01444 0.738 0.0
H554 H 0.79313 0.08019 0.70575 0.0
C555 C 0.76553 0.01626 0.82516 0.0
H556 H 0.76993 0.03705 0.62834 0.0
C557 C 0.77955 0.04088 0.86929 0.0
C558 C 0.78902 0.06419 0.82734 0.0
H559 H 0.75704 0.99843 0.85946 0.0
H560 H 0.78113 0.04133 0.93648 0.0
C561 C 0.78616 0.06258 0.73984 0.0
C562 C 0.02066 0.76603 0.76071 0.0
C563 C 0.03642 0.75578 0.72865 0.0
H564 H 0.98892 0.76123 0.84723 0.0
C565 C 0.03311 0.73313 0.76297 0.0
H566 H 0.02339 0.78385 0.73684 0.0
C567 C 0.01408 0.72063 0.82652 0.0
C568 C 0.99809 0.73061 0.85836 0.0
H569 H 0.04529 0.72496 0.74043 0.0
H570 H 0.01118 0.70262 0.84939 0.0
C571 C 0.00173 0.7536 0.8255 0.0
C572 C 0.28404 0.28414 0.71332 0.0
C573 C 0.27221 0.29722 0.75037 0.0
H574 H 0.30843 0.26547 0.73267 0.0
C575 C 0.27328 0.299 0.83746 0.0
H576 H 0.28346 0.28244 0.64639 0.0
C577 C 0.28656 0.28852 0.88665 0.0
C578 C 0.29986 0.2767 0.84988 0.0
H579 H 0.26404 0.30874 0.86772 0.0
H580 H 0.28777 0.29089 0.95356 0.0
C581 C 0.29822 0.27437 0.76268 0.0
C582 C 0.03088 0.33777 0.35634 0.0
C583 C 0.01298 0.31115 0.37845 0.0
H584 H 0.06343 0.36567 0.27617 0.0
C585 C 0.01527 0.29195 0.33669 0.0
H586 H 0.0289 0.35277 0.38615 0.0
C587 C 0.03406 0.29908 0.27114 0.0
C588 C 0.05127 0.32561 0.24744 0.0
H589 H 0.00095 0.27113 0.35087 0.0
H590 H 0.03502 0.28385 0.23884 0.0
C591 C 0.05013 0.34499 0.2923 0.0
C592 C 0.76638 0.76544 0.36648 0.0
C593 C 0.77604 0.7512 0.32548 0.0
H594 H 0.745 0.78678 0.35465 0.0
C595 C 0.77478 0.75057 0.23807 0.0
H596 H 0.76679 0.76616 0.43353 0.0
C597 C 0.76277 0.76292 0.19267 0.0
C598 C 0.75105 0.77539 0.23398 0.0
H599 H 0.78197 0.73966 0.2047 0.0
H600 H 0.761 0.76133 0.12549 0.0
C601 C 0.75366 0.77707 0.32123 0.0
C602 C 0.27633 0.04448 0.20455 0.0
C603 C 0.26148 0.01888 0.23574 0.0
H604 H 0.30414 0.08673 0.23267 0.0
C605 C 0.25995 0.01658 0.32211 0.0
H606 H 0.27804 0.04703 0.1385 0.0
C607 C 0.27461 0.03942 0.37623 0.0
C608 C 0.29157 0.06503 0.34515 0.0
H609 H 0.24867 0.99715 0.34821 0.0
H610 H 0.27432 0.03699 0.44251 0.0
C611 C 0.29142 0.06728 0.25864 0.0
loop_
_geom_bond_atom_site_label_1
_geom_bond_atom_site_label_2
_geom_bond_distance
_geom_bond_site_symmetry_2
_ccdc_geom_bond_type
O0 Cd1 2.223 . S
O0 C8 1.315 . S
Cd1 O0 2.223 . S
Cd1 O4 2.297 . S
Cd1 O5 2.439 . S
Cd1 O11 2.240 . S
Cd2 O3 2.214 1_655 S
Cd2 O10 2.211 1_655 S
Cd2 O12 2.320 . S
Cd2 O13 2.441 1_655 S
O3 Cd2 2.214 1_455 S
O3 C8 1.279 . S
O4 Cd1 2.297 . S
O4 C6 1.247 . S
O5 Cd1 2.439 . S
O5 C6 1.208 . S
C6 O4 1.247 . S
C6 O5 1.208 . S
C7 O12 1.247 . S
C7 O13 1.208 1_655 S
C8 O0 1.315 . S
C8 O3 1.279 . S
C9 O10 1.315 . S
C9 O11 1.279 . S
O10 Cd2 2.211 1_455 S
O10 C9 1.315 . S
O11 Cd1 2.240 . S
O11 C9 1.279 . S
O12 Cd2 2.320 . S
O12 C7 1.247 . S
O13 Cd2 2.441 1_455 S
O13 C7 1.208 1_455 S
O14 Cd15 2.223 . S
O14 C22 1.315 . S
Cd15 O14 2.223 . S
Cd15 O18 2.297 . S
Cd15 O19 2.439 . S
Cd15 O25 2.240 . S
Cd16 O17 2.240 . S
Cd16 O24 2.223 . S
Cd16 O26 2.297 . S
Cd16 O27 2.439 . S
O17 Cd16 2.240 . S
O17 C22 1.279 . S
O18 Cd15 2.297 . S
O18 C20 1.247 . S
O19 Cd15 2.439 . S
O19 C20 1.208 . S
C20 O18 1.247 . S
C20 O19 1.208 . S
C21 O26 1.247 . S
C21 O27 1.208 . S
C22 O14 1.315 . S
C22 O17 1.279 . S
C23 O24 1.315 . S
C23 O25 1.279 . S
O24 Cd16 2.223 . S
O24 C23 1.315 . S
O25 Cd15 2.240 . S
O25 C23 1.279 . S
O26 Cd16 2.297 . S
O26 C21 1.247 . S
O27 Cd16 2.439 . S
O27 C21 1.208 . S
O28 Cd29 2.223 . S
O28 C36 1.315 . S
Cd29 O28 2.223 . S
Cd29 O32 2.297 . S
Cd29 O33 2.439 . S
Cd29 O39 2.240 . S
Cd30 O31 2.240 . S
Cd30 O38 2.223 1_565 S
Cd30 O40 2.297 . S
Cd30 O41 2.439 . S
O31 Cd30 2.240 . S
O31 C36 1.279 1_565 S
O32 Cd29 2.297 . S
O32 C34 1.247 . S
O33 Cd29 2.439 . S
O33 C34 1.208 . S
C34 O32 1.247 . S
C34 O33 1.208 . S
C35 O40 1.247 . S
C35 O41 1.208 . S
C36 O28 1.315 . S
C36 O31 1.279 1_545 S
C37 O38 1.315 . S
C37 O39 1.279 . S
O38 Cd30 2.223 1_545 S
O38 C37 1.315 . S
O39 Cd29 2.240 . S
O39 C37 1.279 . S
O40 Cd30 2.297 . S
O40 C35 1.247 . S
O41 Cd30 2.439 . S
O41 C35 1.208 . S
O42 Cd43 2.223 . S
O42 C50 1.315 . S
Cd43 O42 2.223 . S
Cd43 O46 2.297 . S
Cd43 O47 2.439 . S
Cd43 O53 2.240 . S
Cd44 O45 2.240 . S
Cd44 O52 2.223 1_655 S
Cd44 O54 2.297 . S
Cd44 O55 2.439 . S
O45 Cd44 2.240 . S
O45 C50 1.279 1_655 S
O46 Cd43 2.297 . S
O46 C48 1.247 . S
O47 Cd43 2.439 . S
O47 C48 1.208 . S
C48 O46 1.247 . S
C48 O47 1.208 . S
C49 O54 1.247 . S
C49 O55 1.208 . S
C50 O42 1.315 . S
C50 O45 1.279 1_455 S
C51 O52 1.315 . S
C51 O53 1.279 . S
O52 Cd44 2.223 1_455 S
O52 C51 1.315 . S
O53 Cd43 2.240 . S
O53 C51 1.279 . S
O54 Cd44 2.297 . S
O54 C49 1.247 . S
O55 Cd44 2.439 . S
O55 C49 1.208 . S
O56 Cd57 2.223 . S
O56 C64 1.315 . S
Cd57 O56 2.223 . S
Cd57 O60 2.297 . S
Cd57 O61 2.439 . S
Cd57 O67 2.240 . S
Cd58 O59 2.240 . S
Cd58 O66 2.223 . S
Cd58 O68 2.297 . S
Cd58 O69 2.439 . S
O59 Cd58 2.240 . S
O59 C64 1.279 . S
O60 Cd57 2.297 . S
O60 C62 1.247 . S
O61 Cd57 2.439 . S
O61 C62 1.208 . S
C62 O60 1.247 . S
C62 O61 1.208 . S
C63 O68 1.247 . S
C63 O69 1.208 . S
C64 O56 1.315 . S
C64 O59 1.279 . S
C65 O66 1.315 . S
C65 O67 1.279 . S
O66 Cd58 2.223 . S
O66 C65 1.315 . S
O67 Cd57 2.240 . S
O67 C65 1.279 . S
O68 Cd58 2.297 . S
O68 C63 1.247 . S
O69 Cd58 2.439 . S
O69 C63 1.208 . S
O70 Cd71 2.223 . S
O70 C78 1.315 . S
Cd71 O70 2.223 . S
Cd71 O74 2.297 . S
Cd71 O75 2.439 . S
Cd71 O81 2.240 . S
Cd72 O73 2.240 . S
Cd72 O80 2.223 . S
Cd72 O82 2.297 . S
Cd72 O83 2.439 . S
O73 Cd72 2.240 . S
O73 C78 1.279 . S
O74 Cd71 2.297 . S
O74 C76 1.247 . S
O75 Cd71 2.439 . S
O75 C76 1.208 . S
C76 O74 1.247 . S
C76 O75 1.208 . S
C77 O82 1.247 . S
C77 O83 1.208 . S
C78 O70 1.315 . S
C78 O73 1.279 . S
C79 O80 1.315 . S
C79 O81 1.279 . S
O80 Cd72 2.223 . S
O80 C79 1.315 . S
O81 Cd71 2.240 . S
O81 C79 1.279 . S
O82 Cd72 2.297 . S
O82 C77 1.247 . S
O83 Cd72 2.439 . S
O83 C77 1.208 . S
O84 Cd85 2.223 . S
O84 C92 1.315 . S
Cd85 O84 2.223 . S
Cd85 O88 2.297 . S
Cd85 O89 2.439 . S
Cd85 O95 2.240 . S
Cd86 O87 2.240 . S
Cd86 O94 2.223 . S
Cd86 O96 2.297 . S
Cd86 O97 2.439 . S
O87 Cd86 2.240 . S
O87 C92 1.279 . S
O88 Cd85 2.297 . S
O88 C90 1.247 . S
O89 Cd85 2.439 . S
O89 C90 1.208 . S
C90 O88 1.247 . S
C90 O89 1.208 . S
C91 O96 1.247 . S
C91 O97 1.208 . S
C92 O84 1.315 . S
C92 O87 1.279 . S
C93 O94 1.315 . S
C93 O95 1.279 . S
O94 Cd86 2.223 . S
O94 C93 1.315 . S
O95 Cd85 2.240 . S
O95 C93 1.279 . S
O96 Cd86 2.297 . S
O96 C91 1.247 . S
O97 Cd86 2.439 . S
O97 C91 1.208 . S
O98 Cd99 2.223 . S
O98 C106 1.315 . S
Cd99 O98 2.223 . S
Cd99 O102 2.297 . S
Cd99 O103 2.439 . S
Cd99 O109 2.240 . S
Cd100 O101 2.240 . S
Cd100 O108 2.223 . S
Cd100 O110 2.297 . S
Cd100 O111 2.439 . S
O101 Cd100 2.240 . S
O101 C106 1.279 . S
O102 Cd99 2.297 . S
O102 C104 1.247 . S
O103 Cd99 2.439 . S
O103 C104 1.208 . S
C104 O102 1.247 . S
C104 O103 1.208 . S
C105 O110 1.247 . S
C105 O111 1.208 . S
C106 O98 1.315 . S
C106 O101 1.279 . S
C107 O108 1.315 . S
C107 O109 1.279 . S
O108 Cd100 2.223 . S
O108 C107 1.315 . S
O109 Cd99 2.240 . S
O109 C107 1.279 . S
O110 Cd100 2.297 . S
O110 C105 1.247 . S
O111 Cd100 2.439 . S
O111 C105 1.208 . S
O112 Cd113 2.223 . S
O112 C120 1.315 . S
Cd113 O112 2.223 . S
Cd113 O116 2.297 . S
Cd113 O117 2.439 . S
Cd113 O123 2.240 . S
Cd114 O115 2.240 . S
Cd114 O122 2.223 . S
Cd114 O124 2.297 . S
Cd114 O125 2.439 . S
O115 Cd114 2.240 . S
O115 C120 1.279 . S
O116 Cd113 2.297 . S
O116 C118 1.247 . S
O117 Cd113 2.439 . S
O117 C118 1.208 . S
C118 O116 1.247 . S
C118 O117 1.208 . S
C119 O124 1.247 . S
C119 O125 1.208 . S
C120 O112 1.315 . S
C120 O115 1.279 . S
C121 O122 1.315 . S
C121 O123 1.279 . S
O122 Cd114 2.223 . S
O122 C121 1.315 . S
O123 Cd113 2.240 . S
O123 C121 1.279 . S
O124 Cd114 2.297 . S
O124 C119 1.247 . S
O125 Cd114 2.439 . S
O125 C119 1.208 . S
O126 Cd127 2.223 . S
O126 C134 1.315 . S
Cd127 O126 2.223 . S
Cd127 O130 2.297 . S
Cd127 O131 2.439 1_554 S
Cd127 O137 2.240 . S
Cd128 O129 2.240 . S
Cd128 O136 2.223 . S
Cd128 O138 2.297 . S
Cd128 O139 2.439 1_554 S
O129 Cd128 2.240 . S
O129 C134 1.279 . S
O130 Cd127 2.297 . S
O130 C132 1.248 1_554 S
O131 Cd127 2.439 1_556 S
O131 C132 1.208 . S
C132 O130 1.248 1_556 S
C132 O131 1.208 . S
C133 O138 1.249 . S
C133 O139 1.208 1_554 S
C134 O126 1.315 . S
C134 O129 1.279 . S
C135 O136 1.315 . S
C135 O137 1.279 . S
O136 Cd128 2.223 . S
O136 C135 1.315 . S
O137 Cd127 2.240 . S
O137 C135 1.279 . S
O138 Cd128 2.297 . S
O138 C133 1.249 . S
O139 Cd128 2.439 1_556 S
O139 C133 1.208 1_556 S
O140 Cd141 2.223 1_556 S
O140 C148 1.315 . S
Cd141 O140 2.223 1_554 S
Cd141 O144 2.297 . S
Cd141 O145 2.439 . S
Cd141 O151 2.240 . S
Cd142 O143 2.240 . S
Cd142 O150 2.223 1_554 S
Cd142 O152 2.297 . S
Cd142 O153 2.439 . S
O143 Cd142 2.240 . S
O143 C148 1.279 1_554 S
O144 Cd141 2.297 . S
O144 C146 1.247 . S
O145 Cd141 2.439 . S
O145 C146 1.208 . S
C146 O144 1.247 . S
C146 O145 1.208 . S
C147 O152 1.247 . S
C147 O153 1.208 . S
C148 O140 1.315 . S
C148 O143 1.279 1_556 S
C149 O150 1.315 . S
C149 O151 1.279 1_556 S
O150 Cd142 2.223 1_556 S
O150 C149 1.315 . S
O151 Cd141 2.240 . S
O151 C149 1.279 1_554 S
O152 Cd142 2.297 . S
O152 C147 1.247 . S
O153 Cd142 2.439 . S
O153 C147 1.208 . S
O154 Cd155 2.223 . S
O154 C162 1.315 . S
Cd155 O154 2.223 . S
Cd155 O158 2.297 1_554 S
Cd155 O159 2.439 1_554 S
Cd155 O165 2.240 . S
Cd156 O157 2.240 . S
Cd156 O164 2.223 . S
Cd156 O166 2.297 . S
Cd156 O167 2.439 1_554 S
O157 Cd156 2.240 . S
O157 C162 1.279 . S
O158 Cd155 2.297 1_556 S
O158 C160 1.247 . S
O159 Cd155 2.439 1_556 S
O159 C160 1.208 . S
C160 O158 1.247 . S
C160 O159 1.208 . S
C161 O166 1.247 . S
C161 O167 1.208 1_554 S
C162 O154 1.315 . S
C162 O157 1.279 . S
C163 O164 1.315 . S
C163 O165 1.279 . S
O164 Cd156 2.223 . S
O164 C163 1.315 . S
O165 Cd155 2.240 . S
O165 C163 1.279 . S
O166 Cd156 2.297 . S
O166 C161 1.247 . S
O167 Cd156 2.439 1_556 S
O167 C161 1.208 1_556 S
O168 Cd169 2.223 1_554 S
O168 C176 1.315 . S
Cd169 O168 2.223 1_556 S
Cd169 O172 2.297 . S
Cd169 O173 2.439 . S
Cd169 O179 2.240 . S
Cd170 O171 2.240 . S
Cd170 O178 2.223 1_556 S
Cd170 O180 2.297 . S
Cd170 O181 2.439 . S
O171 Cd170 2.240 . S
O171 C176 1.279 1_556 S
O172 Cd169 2.297 . S
O172 C174 1.247 . S
O173 Cd169 2.439 . S
O173 C174 1.208 . S
C174 O172 1.247 . S
C174 O173 1.208 . S
C175 O180 1.247 . S
C175 O181 1.208 . S
C176 O168 1.315 . S
C176 O171 1.279 1_554 S
C177 O178 1.315 . S
C177 O179 1.279 1_554 S
O178 Cd170 2.223 1_554 S
O178 C177 1.315 . S
O179 Cd169 2.240 . S
O179 C177 1.279 1_556 S
O180 Cd170 2.297 . S
O180 C175 1.247 . S
O181 Cd170 2.439 . S
O181 C175 1.208 . S
O182 Cd183 2.223 1_554 S
O182 C190 1.315 . S
Cd183 O182 2.223 1_556 S
Cd183 O186 2.297 . S
Cd183 O187 2.439 . S
Cd183 O193 2.240 . S
Cd184 O185 2.240 . S
Cd184 O192 2.223 1_556 S
Cd184 O194 2.297 . S
Cd184 O195 2.439 . S
O185 Cd184 2.240 . S
O185 C190 1.279 1_556 S
O186 Cd183 2.297 . S
O186 C188 1.247 . S
O187 Cd183 2.439 . S
O187 C188 1.208 . S
C188 O186 1.247 . S
C188 O187 1.208 . S
C189 O194 1.247 . S
C189 O195 1.208 . S
C190 O182 1.315 . S
C190 O185 1.279 1_554 S
C191 O192 1.315 . S
C191 O193 1.279 1_554 S
O192 Cd184 2.223 1_554 S
O192 C191 1.315 . S
O193 Cd183 2.240 . S
O193 C191 1.279 1_556 S
O194 Cd184 2.297 . S
O194 C189 1.247 . S
O195 Cd184 2.439 . S
O195 C189 1.208 . S
O196 Cd197 2.223 . S
O196 C204 1.315 . S
Cd197 O196 2.223 . S
Cd197 O200 2.297 . S
Cd197 O201 2.439 1_556 S
Cd197 O207 2.240 . S
Cd198 O199 2.240 . S
Cd198 O206 2.223 . S
Cd198 O208 2.297 . S
Cd198 O209 2.439 . S
O199 Cd198 2.240 . S
O199 C204 1.279 . S
O200 Cd197 2.297 . S
O200 C202 1.247 1_556 S
O201 Cd197 2.439 1_554 S
O201 C202 1.208 . S
C202 O200 1.247 1_554 S
C202 O201 1.208 . S
C203 O208 1.247 . S
C203 O209 1.208 . S
C204 O196 1.315 . S
C204 O199 1.279 . S
C205 O206 1.315 . S
C205 O207 1.279 . S
O206 Cd198 2.223 . S
O206 C205 1.315 . S
O207 Cd197 2.240 . S
O207 C205 1.279 . S
O208 Cd198 2.297 . S
O208 C203 1.247 . S
O209 Cd198 2.439 . S
O209 C203 1.208 . S
O210 Cd211 2.223 . S
O210 C218 1.315 . S
Cd211 O210 2.223 . S
Cd211 O214 2.297 . S
Cd211 O215 2.439 . S
Cd211 O221 2.240 . S
Cd212 O213 2.240 . S
Cd212 O220 2.223 . S
Cd212 O222 2.297 . S
Cd212 O223 2.439 . S
O213 Cd212 2.240 . S
O213 C218 1.279 . S
O214 Cd211 2.297 . S
O214 C216 1.247 . S
O215 Cd211 2.439 . S
O215 C216 1.208 . S
C216 O214 1.247 . S
C216 O215 1.208 . S
C217 O222 1.247 . S
C217 O223 1.208 . S
C218 O210 1.315 . S
C218 O213 1.279 . S
C219 O220 1.315 . S
C219 O221 1.279 . S
O220 Cd212 2.223 . S
O220 C219 1.315 . S
O221 Cd211 2.240 . S
O221 C219 1.279 . S
O222 Cd212 2.297 . S
O222 C217 1.247 . S
O223 Cd212 2.439 . S
O223 C217 1.208 . S
O224 Cd225 2.223 . S
O224 C232 1.315 . S
Cd225 O224 2.223 . S
Cd225 O228 2.297 . S
Cd225 O229 2.439 . S
Cd225 O235 2.240 . S
Cd226 O227 2.240 . S
Cd226 O234 2.223 . S
Cd226 O236 2.297 . S
Cd226 O237 2.439 . S
O227 Cd226 2.240 . S
O227 C232 1.279 . S
O228 Cd225 2.297 . S
O228 C230 1.247 . S
O229 Cd225 2.439 . S
O229 C230 1.208 . S
C230 O228 1.247 . S
C230 O229 1.208 . S
C231 O236 1.247 . S
C231 O237 1.208 . S
C232 O224 1.315 . S
C232 O227 1.279 . S
C233 O234 1.315 . S
C233 O235 1.279 . S
O234 Cd226 2.223 . S
O234 C233 1.315 . S
O235 Cd225 2.240 . S
O235 C233 1.279 . S
O236 Cd226 2.297 . S
O236 C231 1.247 . S
O237 Cd226 2.439 . S
O237 C231 1.208 . S
O238 Cd239 2.223 . S
O238 C246 1.315 . S
Cd239 O238 2.223 . S
Cd239 O242 2.297 . S
Cd239 O243 2.439 . S
Cd239 O249 2.240 . S
Cd240 O241 2.240 . S
Cd240 O248 2.223 . S
Cd240 O250 2.297 . S
Cd240 O251 2.439 . S
O241 Cd240 2.240 . S
O241 C246 1.279 . S
O242 Cd239 2.297 . S
O242 C244 1.247 . S
O243 Cd239 2.439 . S
O243 C244 1.208 . S
C244 O242 1.247 . S
C244 O243 1.208 . S
C245 O250 1.247 . S
C245 O251 1.208 . S
C246 O238 1.315 . S
C246 O241 1.279 . S
C247 O248 1.315 . S
C247 O249 1.279 . S
O248 Cd240 2.223 . S
O248 C247 1.315 . S
O249 Cd239 2.240 . S
O249 C247 1.279 . S
O250 Cd240 2.297 . S
O250 C245 1.247 . S
O251 Cd240 2.439 . S
O251 C245 1.208 . S
C252 C253 1.387 1_655 S
C252 H256 0.950 . S
C252 C261 1.390 1_656 S
C253 C252 1.387 1_455 S
C253 C255 1.387 . S
H254 C261 0.950 1_655 S
C255 C253 1.387 . S
C255 C257 1.390 . S
C255 H259 0.950 . S
H256 C252 0.950 . S
C257 C255 1.390 . S
C257 C258 1.387 1_556 S
C257 H260 0.950 . S
C258 C257 1.387 1_554 S
C258 C261 1.387 . S
H259 C255 0.950 . S
H260 C257 0.950 . S
C261 C252 1.390 1_454 S
C261 H254 0.950 1_455 S
C261 C258 1.387 . S
C262 C263 1.387 . S
C262 H266 0.950 . S
C262 C271 1.390 1_556 S
C263 C262 1.387 . S
C263 C265 1.387 . S
H264 C271 0.950 . S
C265 C263 1.387 . S
C265 C267 1.390 1_556 S
C265 H269 0.950 . S
H266 C262 0.950 . S
C267 C265 1.390 1_554 S
C267 C268 1.387 . S
C267 H270 0.950 . S
C268 C267 1.387 . S
C268 C271 1.387 . S
H269 C265 0.950 . S
H270 C267 0.950 . S
C271 C262 1.390 1_554 S
C271 H264 0.950 . S
C271 C268 1.387 . S
C272 C273 1.387 1_556 S
C272 H276 0.950 . S
C272 C281 1.390 . S
C273 C272 1.387 1_554 S
C273 C275 1.387 . S
H274 C281 0.950 . S
C275 C273 1.387 . S
C275 C277 1.390 . S
C275 H279 0.950 . S
H276 C272 0.950 . S
C277 C275 1.390 . S
C277 C278 1.387 1_554 S
C277 H280 0.950 . S
C278 C277 1.387 1_556 S
C278 C281 1.387 . S
H279 C275 0.950 . S
H280 C277 0.950 . S
C281 C272 1.390 . S
C281 H274 0.950 . S
C281 C278 1.387 . S
C282 C283 1.387 . S
C282 H286 0.950 . S
C282 C291 1.390 . S
C283 C282 1.387 . S
C283 C285 1.387 . S
H284 C291 0.950 . S
C285 C283 1.387 . S
C285 C287 1.390 . S
C285 H289 0.950 . S
H286 C282 0.950 . S
C287 C285 1.390 . S
C287 C288 1.387 . S
C287 H290 0.950 . S
C288 C287 1.387 . S
C288 C291 1.387 . S
H289 C285 0.950 . S
H290 C287 0.950 . S
C291 C282 1.390 . S
C291 H284 0.950 . S
C291 C288 1.387 . S
C292 C293 1.377 1_655 S
C292 H296 0.969 . S
C292 C301 1.380 1_655 S
C293 C292 1.377 1_455 S
C293 C295 1.387 . S
H294 C301 0.946 1_655 S
C295 C293 1.387 . S
C295 C297 1.390 . S
C295 H299 0.950 . S
H296 C292 0.969 . S
C297 C295 1.390 . S
C297 C298 1.387 . S
C297 H300 0.950 . S
C298 C297 1.387 . S
C298 C301 1.394 . S
H299 C295 0.950 . S
H300 C297 0.950 . S
C301 C292 1.380 1_455 S
C301 H294 0.946 1_455 S
C301 C298 1.394 . S
C302 C303 1.387 . S
C302 H306 0.950 . S
C302 C311 1.390 . S
C303 C302 1.387 . S
C303 C305 1.387 . S
H304 C311 0.950 . S
C305 C303 1.387 . S
C305 C307 1.390 . S
C305 H309 0.950 . S
H306 C302 0.950 . S
C307 C305 1.390 . S
C307 C308 1.387 . S
C307 H310 0.950 . S
C308 C307 1.387 . S
C308 C311 1.387 . S
H309 C305 0.950 . S
H310 C307 0.950 . S
C311 C302 1.390 . S
C311 H304 0.950 . S
C311 C308 1.387 . S
C312 C313 1.387 . S
C312 H316 0.950 . S
C312 C321 1.390 . S
C313 C312 1.387 . S
C313 C315 1.387 . S
H314 C321 0.950 . S
C315 C313 1.387 . S
C315 C317 1.390 . S
C315 H319 0.950 . S
H316 C312 0.950 . S
C317 C315 1.390 . S
C317 C318 1.387 . S
C317 H320 0.950 . S
C318 C317 1.387 . S
C318 C321 1.387 . S
H319 C315 0.950 . S
H320 C317 0.950 . S
C321 C312 1.390 . S
C321 H314 0.950 . S
C321 C318 1.387 . S
C322 C323 1.387 . S
C322 H326 0.950 . S
C322 C331 1.390 . S
C323 C322 1.387 . S
C323 C325 1.387 . S
H324 C331 0.950 . S
C325 C323 1.387 . S
C325 C327 1.390 . S
C325 H329 0.950 . S
H326 C322 0.950 . S
C327 C325 1.390 . S
C327 C328 1.387 . S
C327 H330 0.950 . S
C328 C327 1.387 . S
C328 C331 1.387 . S
H329 C325 0.950 . S
H330 C327 0.950 . S
C331 C322 1.390 . S
C331 H324 0.950 . S
C331 C328 1.387 . S
C332 C333 1.387 . S
C332 H336 0.950 . S
C332 C341 1.390 . S
C333 C332 1.387 . S
C333 C335 1.387 . S
H334 C341 0.950 . S
C335 C333 1.387 . S
C335 C337 1.390 . S
C335 H339 0.950 . S
H336 C332 0.950 . S
C337 C335 1.390 . S
C337 C338 1.387 . S
C337 H340 0.950 . S
C338 C337 1.387 . S
C338 C341 1.387 . S
H339 C335 0.950 . S
H340 C337 0.950 . S
C341 C332 1.390 . S
C341 H334 0.950 . S
C341 C338 1.387 . S
C342 C343 1.387 . S
C342 H346 0.950 . S
C342 C351 1.390 . S
C343 C342 1.387 . S
C343 C345 1.387 . S
H344 C351 0.950 . S
C345 C343 1.387 . S
C345 C347 1.390 . S
C345 H349 0.950 . S
H346 C342 0.950 . S
C347 C345 1.390 . S
C347 C348 1.387 . S
C347 H350 0.950 . S
C348 C347 1.387 . S
C348 C351 1.387 . S
H349 C345 0.950 . S
H350 C347 0.950 . S
C351 C342 1.390 . S
C351 H344 0.950 . S
C351 C348 1.387 . S
C352 C353 1.387 . S
C352 H356 0.950 . S
C352 C361 1.390 . S
C353 C352 1.387 . S
C353 C355 1.387 . S
H354 C361 0.950 . S
C355 C353 1.387 . S
C355 C357 1.390 . S
C355 H359 0.950 . S
H356 C352 0.950 . S
C357 C355 1.390 . S
C357 C358 1.387 . S
C357 H360 0.950 . S
C358 C357 1.387 . S
C358 C361 1.387 . S
H359 C355 0.950 . S
H360 C357 0.950 . S
C361 C352 1.390 . S
C361 H354 0.950 . S
C361 C358 1.387 . S
C362 C363 1.387 . S
C362 H366 0.950 . S
C362 C371 1.390 . S
C363 C362 1.387 . S
C363 C365 1.387 . S
H364 C371 0.950 . S
C365 C363 1.387 . S
C365 C367 1.390 . S
C365 H369 0.950 . S
H366 C362 0.950 . S
C367 C365 1.390 . S
C367 C368 1.387 . S
C367 H370 0.950 . S
C368 C367 1.387 . S
C368 C371 1.387 . S
H369 C365 0.950 . S
H370 C367 0.950 . S
C371 C362 1.390 . S
C371 H364 0.950 . S
C371 C368 1.387 . S
C372 C373 1.387 . S
C372 H376 0.950 . S
C372 C381 1.390 . S
C373 C372 1.387 . S
C373 C375 1.387 . S
H374 C381 0.950 . S
C375 C373 1.387 . S
C375 C377 1.390 . S
C375 H379 0.950 . S
H376 C372 0.950 . S
C377 C375 1.390 . S
C377 C378 1.387 . S
C377 H380 0.950 . S
C378 C377 1.387 . S
C378 C381 1.387 . S
H379 C375 0.950 . S
H380 C377 0.950 . S
C381 C372 1.390 . S
C381 H374 0.950 . S
C381 C378 1.387 . S
C382 C383 1.387 . S
C382 H386 0.950 . S
C382 C391 1.390 . S
C383 C382 1.387 . S
C383 C385 1.387 . S
H384 C391 0.950 . S
C385 C383 1.387 . S
C385 C387 1.390 . S
C385 H389 0.950 . S
H386 C382 0.950 . S
C387 C385 1.390 . S
C387 C388 1.387 . S
C387 H390 0.950 . S
C388 C387 1.387 . S
C388 C391 1.387 . S
H389 C385 0.950 . S
H390 C387 0.950 . S
C391 C382 1.390 . S
C391 H384 0.950 . S
C391 C388 1.387 . S
C392 C393 1.387 . S
C392 H396 0.950 . S
C392 C401 1.390 . S
C393 C392 1.387 . S
C393 C395 1.387 . S
H394 C401 0.950 . S
C395 C393 1.387 . S
C395 C397 1.390 . S
C395 H399 0.950 . S
H396 C392 0.950 . S
C397 C395 1.390 . S
C397 C398 1.387 . S
C397 H400 0.950 . S
C398 C397 1.387 . S
C398 C401 1.387 . S
H399 C395 0.950 . S
H400 C397 0.950 . S
C401 C392 1.390 . S
C401 H394 0.950 . S
C401 C398 1.387 . S
C402 C403 1.387 . S
C402 H406 0.950 . S
C402 C411 1.390 . S
C403 C402 1.387 . S
C403 C405 1.387 . S
H404 C411 0.950 . S
C405 C403 1.387 . S
C405 C407 1.390 . S
C405 H409 0.950 . S
H406 C402 0.950 . S
C407 C405 1.390 . S
C407 C408 1.387 . S
C407 H410 0.950 . S
C408 C407 1.387 . S
C408 C411 1.387 . S
H409 C405 0.950 . S
H410 C407 0.950 . S
C411 C402 1.390 . S
C411 H404 0.950 . S
C411 C408 1.387 . S
C412 C413 1.387 . S
C412 H416 0.950 . S
C412 C421 1.390 . S
C413 C412 1.387 . S
C413 C415 1.387 . S
H414 C421 0.950 . S
C415 C413 1.387 . S
C415 C417 1.390 . S
C415 H419 0.950 . S
H416 C412 0.950 . S
C417 C415 1.390 . S
C417 C418 1.387 . S
C417 H420 0.950 . S
C418 C417 1.387 . S
C418 C421 1.387 . S
H419 C415 0.950 . S
H420 C417 0.950 . S
C421 C412 1.390 . S
C421 H414 0.950 . S
C421 C418 1.387 . S
C422 C423 1.387 . S
C422 H426 0.950 . S
C422 C431 1.390 . S
C423 C422 1.387 . S
C423 C425 1.387 . S
H424 C431 0.950 . S
C425 C423 1.387 . S
C425 C427 1.390 . S
C425 H429 0.950 . S
H426 C422 0.950 . S
C427 C425 1.390 . S
C427 C428 1.387 . S
C427 H430 0.950 . S
C428 C427 1.387 . S
C428 C431 1.387 . S
H429 C425 0.950 . S
H430 C427 0.950 . S
C431 C422 1.390 . S
C431 H424 0.950 . S
C431 C428 1.387 . S
C432 C433 1.387 . S
C432 H436 0.950 . S
C432 C441 1.390 . S
C433 C432 1.387 . S
C433 C435 1.387 . S
H434 C441 0.950 . S
C435 C433 1.387 . S
C435 C437 1.390 . S
C435 H439 0.950 . S
H436 C432 0.950 . S
C437 C435 1.390 . S
C437 C438 1.387 . S
C437 H440 0.950 . S
C438 C437 1.387 . S
C438 C441 1.387 . S
H439 C435 0.950 . S
H440 C437 0.950 . S
C441 C432 1.390 . S
C441 H434 0.950 . S
C441 C438 1.387 . S
C442 C443 1.387 . S
C442 H446 0.950 . S
C442 C451 1.390 . S
C443 C442 1.387 . S
C443 C445 1.387 . S
H444 C451 0.950 . S
C445 C443 1.387 . S
C445 C447 1.390 . S
C445 H449 0.950 . S
H446 C442 0.950 . S
C447 C445 1.390 . S
C447 C448 1.387 . S
C447 H450 0.950 . S
C448 C447 1.387 . S
C448 C451 1.387 . S
H449 C445 0.950 . S
H450 C447 0.950 . S
C451 C442 1.390 . S
C451 H444 0.950 . S
C451 C448 1.387 . S
C452 C453 1.387 . S
C452 H456 0.950 . S
C452 C461 1.390 . S
C453 C452 1.387 . S
C453 C455 1.387 . S
H454 C461 0.950 . S
C455 C453 1.387 . S
C455 C457 1.390 . S
C455 H459 0.950 . S
H456 C452 0.950 . S
C457 C455 1.390 . S
C457 C458 1.387 . S
C457 H460 0.950 . S
C458 C457 1.387 . S
C458 C461 1.387 . S
H459 C455 0.950 . S
H460 C457 0.950 . S
C461 C452 1.390 . S
C461 H454 0.950 . S
C461 C458 1.387 . S
C462 C463 1.387 . S
C462 H466 0.950 . S
C462 C471 1.390 . S
C463 C462 1.387 . S
C463 C465 1.387 . S
H464 C471 0.950 . S
C465 C463 1.387 . S
C465 C467 1.390 . S
C465 H469 0.950 . S
H466 C462 0.950 . S
C467 C465 1.390 . S
C467 C468 1.387 . S
C467 H470 0.950 . S
C468 C467 1.387 . S
C468 C471 1.387 . S
H469 C465 0.950 . S
H470 C467 0.950 . S
C471 C462 1.390 . S
C471 H464 0.950 . S
C471 C468 1.387 . S
C472 C473 1.387 . S
C472 H476 0.942 1_654 S
C472 C481 1.390 1_655 S
C473 C472 1.387 . S
C473 C475 1.387 . S
H474 C481 0.950 . S
C475 C473 1.387 . S
C475 C477 1.390 . S
C475 H479 0.950 . S
H476 C472 0.942 1_456 S
C477 C475 1.390 . S
C477 C478 1.387 . S
C477 H480 0.950 . S
C478 C477 1.387 . S
C478 C481 1.387 1_655 S
H479 C475 0.950 . S
H480 C477 0.950 . S
C481 C472 1.390 1_455 S
C481 H474 0.950 . S
C481 C478 1.387 1_455 S
C482 C483 1.387 . S
C482 H486 0.950 1_554 S
C482 C491 1.390 . S
C483 C482 1.387 . S
C483 C485 1.387 . S
H484 C491 0.950 . S
C485 C483 1.387 . S
C485 C487 1.390 . S
C485 H489 0.950 . S
H486 C482 0.950 1_556 S
C487 C485 1.390 . S
C487 C488 1.387 . S
C487 H490 0.950 . S
C488 C487 1.387 . S
C488 C491 1.387 . S
H489 C485 0.950 . S
H490 C487 0.950 . S
C491 C482 1.390 . S
C491 H484 0.950 . S
C491 C488 1.387 . S
C492 C493 1.387 . S
C492 H496 0.950 . S
C492 C501 1.390 . S
C493 C492 1.387 . S
C493 C495 1.387 . S
H494 C501 0.950 . S
C495 C493 1.387 . S
C495 C497 1.390 . S
C495 H499 0.950 . S
H496 C492 0.950 . S
C497 C495 1.390 . S
C497 C498 1.387 . S
C497 H500 0.950 . S
C498 C497 1.387 . S
C498 C501 1.387 . S
H499 C495 0.950 . S
H500 C497 0.950 . S
C501 C492 1.390 . S
C501 H494 0.950 . S
C501 C498 1.387 . S
C502 C503 1.387 . S
C502 H506 0.950 . S
C502 C511 1.390 . S
C503 C502 1.387 . S
C503 C505 1.387 . S
H504 C511 0.950 . S
C505 C503 1.387 . S
C505 C507 1.390 . S
C505 H509 0.950 . S
H506 C502 0.950 . S
C507 C505 1.390 . S
C507 C508 1.387 . S
C507 H510 0.950 . S
C508 C507 1.387 . S
C508 C511 1.387 . S
H509 C505 0.950 . S
H510 C507 0.950 . S
C511 C502 1.390 . S
C511 H504 0.950 . S
C511 C508 1.387 . S
C512 C513 1.387 . S
C512 H516 0.950 . S
C512 C521 1.390 . S
C513 C512 1.387 . S
C513 C515 1.387 . S
H514 C521 0.950 . S
C515 C513 1.387 . S
C515 C517 1.390 . S
C515 H519 0.950 . S
H516 C512 0.950 . S
C517 C515 1.390 . S
C517 C518 1.387 . S
C517 H520 0.950 . S
C518 C517 1.387 . S
C518 C521 1.387 . S
H519 C515 0.950 . S
H520 C517 0.950 . S
C521 C512 1.390 . S
C521 H514 0.950 . S
C521 C518 1.387 . S
C522 C523 1.387 . S
C522 H526 0.950 . S
C522 C531 1.390 . S
C523 C522 1.387 . S
C523 C525 1.387 . S
H524 C531 0.950 . S
C525 C523 1.387 . S
C525 C527 1.390 1_565 S
C525 H529 0.950 1_556 S
H526 C522 0.950 . S
C527 C525 1.390 1_545 S
C527 C528 1.387 . S
C527 H530 0.950 1_556 S
C528 C527 1.387 . S
C528 C531 1.387 1_545 S
H529 C525 0.950 1_554 S
H530 C527 0.950 1_554 S
C531 C522 1.390 . S
C531 H524 0.950 . S
C531 C528 1.387 1_565 S
C532 C533 1.387 . S
C532 H536 0.950 . S
C532 C541 1.390 . S
C533 C532 1.387 . S
C533 C535 1.387 . S
H534 C541 0.950 1_554 S
C535 C533 1.387 . S
C535 C537 1.390 . S
C535 H539 0.950 . S
H536 C532 0.950 . S
C537 C535 1.390 . S
C537 C538 1.387 . S
C537 H540 0.950 . S
C538 C537 1.387 . S
C538 C541 1.387 . S
H539 C535 0.950 . S
H540 C537 0.950 . S
C541 C532 1.390 . S
C541 H534 0.950 1_556 S
C541 C538 1.387 . S
C542 C543 1.387 . S
C542 H546 0.950 . S
C542 C551 1.390 . S
C543 C542 1.387 . S
C543 C545 1.387 . S
H544 C551 0.950 . S
C545 C543 1.387 . S
C545 C547 1.390 . S
C545 H549 0.950 . S
H546 C542 0.950 . S
C547 C545 1.390 . S
C547 C548 1.387 . S
C547 H550 0.950 1_556 S
C548 C547 1.387 . S
C548 C551 1.387 . S
H549 C545 0.950 . S
H550 C547 0.950 1_554 S
C551 C542 1.390 . S
C551 H544 0.950 . S
C551 C548 1.387 . S
C552 C553 1.387 . S
C552 H556 0.950 . S
C552 C561 1.390 . S
C553 C552 1.387 . S
C553 C555 1.387 . S
H554 C561 0.950 . S
C555 C553 1.387 . S
C555 C557 1.390 . S
C555 H559 0.950 . S
H556 C552 0.950 . S
C557 C555 1.390 . S
C557 C558 1.387 1_565 S
C557 H560 0.950 1_565 S
C558 C557 1.387 1_545 S
C558 C561 1.387 1_545 S
H559 C555 0.950 . S
H560 C557 0.950 1_545 S
C561 C552 1.390 . S
C561 H554 0.950 . S
C561 C558 1.387 1_565 S
C562 C563 1.387 . S
C562 H566 0.950 . S
C562 C571 1.390 . S
C563 C562 1.387 . S
C563 C565 1.387 . S
H564 C571 0.950 . S
C565 C563 1.387 . S
C565 C567 1.390 . S
C565 H569 0.950 . S
H566 C562 0.950 . S
C567 C565 1.390 . S
C567 C568 1.387 . S
C567 H570 0.950 1_455 S
C568 C567 1.387 . S
C568 C571 1.387 . S
H569 C565 0.950 . S
H570 C567 0.950 1_655 S
C571 C562 1.390 . S
C571 H564 0.950 . S
C571 C568 1.387 . S
C572 C573 1.387 . S
C572 H576 0.950 . S
C572 C581 1.390 . S
C573 C572 1.387 . S
C573 C575 1.387 . S
H574 C581 0.950 . S
C575 C573 1.387 . S
C575 C577 1.390 . S
C575 H579 0.950 . S
H576 C572 0.950 . S
C577 C575 1.390 . S
C577 C578 1.387 . S
C577 H580 0.950 . S
C578 C577 1.387 . S
C578 C581 1.387 . S
H579 C575 0.950 . S
H580 C577 0.950 . S
C581 C572 1.390 . S
C581 H574 0.950 . S
C581 C578 1.387 . S
C582 C583 1.387 1_455 S
C582 H586 0.950 1_455 S
C582 C591 1.390 . S
C583 C582 1.387 1_655 S
C583 C585 1.387 . S
H584 C591 0.950 . S
C585 C583 1.387 . S
C585 C587 1.390 1_655 S
C585 H589 0.950 . S
H586 C582 0.950 1_655 S
C587 C585 1.390 1_455 S
C587 C588 1.387 . S
C587 H590 0.950 . S
C588 C587 1.387 . S
C588 C591 1.387 . S
H589 C585 0.950 . S
H590 C587 0.950 . S
C591 C582 1.390 . S
C591 H584 0.950 . S
C591 C588 1.387 . S
C592 C593 1.387 . S
C592 H596 0.950 . S
C592 C601 1.390 . S
C593 C592 1.387 . S
C593 C595 1.387 . S
H594 C601 0.950 . S
C595 C593 1.387 . S
C595 C597 1.390 . S
C595 H599 0.950 . S
H596 C592 0.950 . S
C597 C595 1.390 . S
C597 C598 1.387 . S
C597 H600 0.950 . S
C598 C597 1.387 . S
C598 C601 1.387 . S
H599 C595 0.950 . S
H600 C597 0.950 . S
C601 C592 1.390 . S
C601 H594 0.950 . S
C601 C598 1.387 . S
C602 C603 1.387 1_545 S
C602 H606 0.950 . S
C602 C611 1.390 . S
C603 C602 1.387 1_565 S
C603 C605 1.387 . S
H604 C611 0.950 . S
C605 C603 1.387 . S
C605 C607 1.390 1_565 S
C605 H609 0.950 . S
H606 C602 0.950 . S
C607 C605 1.390 1_545 S
C607 C608 1.387 . S
C607 H610 0.950 . S
C608 C607 1.387 . S
C608 C611 1.387 . S
H609 C605 0.950 . S
H610 C607 0.950 . S
C611 C602 1.390 . S
C611 H604 0.950 . S
C611 C608 1.387 . S
C253 C50 1.387 . S
C258 C6 1.484 . S
C263 C62 1.524 . S
C268 C20 1.503 . S
C273 C36 1.604 . S
C278 C78 1.575 . S
C283 C34 1.454 . S
C288 C76 1.443 . S
C293 C8 1.388 . S
C298 C48 1.425 . S
C303 C64 1.595 . S
C308 C22 1.524 . S
C313 C134 1.319 . S
C318 C90 1.377 . S
C323 C104 1.428 . S
C328 C146 1.437 . S
C333 C118 1.439 . S
C338 C162 1.365 . S
C343 C160 1.560 . S
C348 C120 1.496 . S
C353 C132 1.487 . S
C358 C92 1.414 . S
C363 C148 1.630 . S
C368 C106 1.604 . S
C373 C174 1.509 . S
C378 C218 1.460 . S
C383 C188 1.476 . S
C388 C230 1.483 . S
C393 C204 1.576 . S
C398 C246 1.545 . S
C403 C244 1.430 . S
C408 C202 1.438 . S
C413 C216 1.439 . S
C418 C176 1.352 . S
C423 C232 1.526 . S
C428 C190 1.507 . S
C433 C9 1.447 . S
C438 C105 1.515 . S
C443 C23 1.475 . S
C448 C119 1.473 . S
C453 C91 1.278 . S
C458 C35 1.280 . S
C463 C37 1.595 . S
C468 C191 1.648 . S
C473 C203 1.206 1_554 S
C478 C7 1.205 . S
C483 C177 1.602 . S
C488 C21 1.565 . S
C493 C231 1.248 . S
C498 C49 1.245 . S
C503 C65 1.547 . S
C508 C247 1.616 . S
C513 C219 1.450 . S
C518 C77 1.487 . S
C523 C149 1.587 . S
C528 C79 1.634 . S
C533 C51 1.320 . S
C538 C161 1.380 1_556 S
C543 C63 1.189 . S
C548 C133 1.187 1_556 S
C553 C93 1.368 . S
C558 C189 1.409 . S
C563 C107 1.597 . S
C568 C205 1.538 1_455 S
C573 C121 1.332 . S
C578 C175 1.346 . S
C583 C233 1.531 . S
C588 C163 1.557 . S
C593 C245 1.487 . S
C598 C135 1.437 . S
C603 C147 1.278 . S
C608 C217 1.278 . S
