# Generated by pormake.
# Topology unm, (4)-cn, num edge types: 1
# Building blocks:
#     Node 0, Type 0, BuildingBlock: NAHDIM_clean_sbu_0, # of connection points: 4
#     Node 1, Type 0, BuildingBlock: NAHDIM_clean_sbu_0, # of connection points: 4
#     Node 2, Type 0, BuildingBlock: NAHDIM_clean_sbu_0, # of connection points: 4
#     Node 3, Type 0, BuildingBlock: NAHDIM_clean_sbu_0, # of connection points: 4
#     Node 4, Type 0, BuildingBlock: NAHDIM_clean_sbu_0, # of connection points: 4
#     Node 5, Type 0, BuildingBlock: NAHDIM_clean_sbu_0, # of connection points: 4
#     Node 6, Type 0, BuildingBlock: NAHDIM_clean_sbu_0, # of connection points: 4
#     Node 7, Type 0, BuildingBlock: NAHDIM_clean_sbu_0, # of connection points: 4
#     Edge 8, Type (0, 0), BuildingBlock: AJUNOK_clean_linker_0, # of connection points: 2
#     Edge 9, Type (0, 0), BuildingBlock: AJUNOK_clean_linker_0, # of connection points: 2
#     Edge 10, Type (0, 0), BuildingBlock: AJUNOK_clean_linker_0, # of connection points: 2
#     Edge 11, Type (0, 0), BuildingBlock: AJUNOK_clean_linker_0, # of connection points: 2
#     Edge 12, Type (0, 0), BuildingBlock: AJUNOK_clean_linker_0, # of connection points: 2
#     Edge 13, Type (0, 0), BuildingBlock: AJUNOK_clean_linker_0, # of connection points: 2
#     Edge 14, Type (0, 0), BuildingBlock: AJUNOK_clean_linker_0, # of connection points: 2
#     Edge 15, Type (0, 0), BuildingBlock: AJUNOK_clean_linker_0, # of connection points: 2
#     Edge 16, Type (0, 0), BuildingBlock: AJUNOK_clean_linker_0, # of connection points: 2
#     Edge 17, Type (0, 0), BuildingBlock: AJUNOK_clean_linker_0, # of connection points: 2
#     Edge 18, Type (0, 0), BuildingBlock: AJUNOK_clean_linker_0, # of connection points: 2
#     Edge 19, Type (0, 0), BuildingBlock: AJUNOK_clean_linker_0, # of connection points: 2
#     Edge 20, Type (0, 0), BuildingBlock: AJUNOK_clean_linker_0, # of connection points: 2
#     Edge 21, Type (0, 0), BuildingBlock: AJUNOK_clean_linker_0, # of connection points: 2
#     Edge 22, Type (0, 0), BuildingBlock: AJUNOK_clean_linker_0, # of connection points: 2
#     Edge 23, Type (0, 0), BuildingBlock: AJUNOK_clean_linker_0, # of connection points: 2
# Relax obj value: 0.223
# Max RMSD: 0.178
# Mean RMSD: 0.178
data_MOF--net-unm--node1-NAHDIM_clean_sbu_0--edge1-AJUNOK_clean_linker_0
_symmetry_space_group_name_H-M    P1
_symmetry_Int_Tables_number       1
_symmetry_cell_setting            triclinic
loop_
_symmetry_equiv_pos_as_xyz
'x, y, z'
_cell_length_a     19.657015
_cell_length_b     19.624014
_cell_length_c     30.764756
_cell_angle_alpha  90.068809
_cell_angle_beta   90.215552
_cell_angle_gamma 89.845461
loop_
_atom_site_label
_atom_site_type_symbol
_atom_site_fract_x
_atom_site_fract_y
_atom_site_fract_z
_atom_type_partial_charge
C0 C 0.25731 0.26991 0.1874 0.0
O1 O 0.25455 0.2884 0.1464 0.0
O2 O 0.0443 0.19736 0.20812 0.0
Zn3 Zn 0.11957 0.23105 0.16959 0.0
O4 O 0.13643 0.17319 0.11638 0.0
C5 C 0.02905 0.34083 0.14692 0.0
O6 O 0.98291 0.29342 0.15229 0.0
O7 O 0.20555 0.24204 0.20446 0.0
C8 C 0.10019 0.18021 0.08234 0.0
O9 O 0.0485 0.22266 0.08309 0.0
C10 C -0.00399 0.15873 0.19613 0.0
O11 O -0.00081 0.12951 0.15775 0.0
O12 O 0.09155 0.32528 0.15123 0.0
C13 C 0.21202 0.76116 0.68548 0.0
O14 O 0.19392 0.75991 0.64434 0.0
O15 O 0.27988 0.5453 0.70613 0.0
Zn16 Zn 0.24494 0.62115 0.66792 0.0
O17 O 0.29945 0.63541 0.61315 0.0
C18 C 0.1327 0.53289 0.64843 0.0
O19 O 0.17915 0.48571 0.65464 0.0
O20 O 0.23746 0.70782 0.70253 0.0
C21 C 0.28967 0.59749 0.58013 0.0
O22 O 0.24726 0.54627 0.58331 0.0
C23 C 0.31894 0.49726 0.69409 0.0
O24 O 0.34729 0.50053 0.65556 0.0
O25 O 0.14947 0.59523 0.65153 0.0
C26 C 0.75787 0.68298 0.21726 0.0
O27 O 0.80559 0.63843 0.22692 0.0
O28 O 0.93436 0.77041 0.21148 0.0
Zn29 Zn 0.86577 0.74021 0.16653 0.0
O30 O 0.86139 0.80113 0.11369 0.0
C31 C 0.95384 0.62611 0.14726 0.0
O32 O 0.00208 0.67059 0.15517 0.0
O33 O 0.77245 0.73309 0.19285 0.0
C34 C 0.89751 0.78999 0.08019 0.0
O35 O 0.9417 0.73976 0.08082 0.0
C36 C 0.98793 0.8028 0.20147 0.0
O37 O -0.00487 0.82443 0.16136 0.0
O38 O 0.89212 0.64529 0.1487 0.0
C39 C 0.77828 0.23686 0.6932 0.0
O40 O 0.79089 0.23668 0.65129 0.0
O41 O 0.70328 0.45113 0.70956 0.0
Zn42 Zn 0.73741 0.37273 0.67329 0.0
O43 O 0.68187 0.34907 0.62035 0.0
C44 C 0.84787 0.46048 0.64753 0.0
O45 O 0.80211 0.50891 0.6516 0.0
O46 O 0.75164 0.28954 0.71031 0.0
C47 C 0.68612 0.38336 0.58544 0.0
O48 O 0.72119 0.4402 0.5856 0.0
C49 C 0.66624 0.50021 0.69655 0.0
O50 O 0.63832 0.4968 0.65776 0.0
O51 O 0.83069 0.39899 0.65395 0.0
C52 C 0.72862 0.19057 0.27407 0.0
O53 O 0.67928 0.14914 0.26265 0.0
O54 O 0.55252 0.28038 0.28325 0.0
Zn55 Zn 0.62192 0.24512 0.32601 0.0
O56 O 0.62341 0.29673 0.38286 0.0
C57 C 0.53819 0.13224 0.35507 0.0
O58 O 0.49476 0.17966 0.36685 0.0
O59 O 0.71562 0.23929 0.3001 0.0
C60 C 0.63761 0.26206 0.41661 0.0
O61 O 0.65328 0.19735 0.41225 0.0
C62 C 0.49639 0.3045 0.29675 0.0
O63 O 0.48893 0.316 0.33854 0.0
O64 O 0.59414 0.14913 0.33777 0.0
C65 C 0.29975 0.23052 0.77549 0.0
O66 O 0.34362 0.18254 0.76524 0.0
O67 O 0.21196 0.05357 0.78451 0.0
Zn68 Zn 0.24623 0.12293 0.82788 0.0
O69 O 0.19099 0.12749 0.88306 0.0
C70 C 0.36327 0.03623 0.84295 0.0
O71 O 0.31975 0.98703 0.83526 0.0
O72 O 0.25095 0.2162 0.80092 0.0
C73 C 0.20589 0.09114 0.91599 0.0
O74 O 0.25535 0.04641 0.91286 0.0
C75 C 0.18244 -0.00083 0.79634 0.0
O76 O 0.1668 0.99142 0.83751 0.0
O77 O 0.34254 0.09755 0.84274 0.0
C78 C 0.22763 0.76626 0.31015 0.0
O79 O 0.22757 0.7741 0.35257 0.0
O80 O 0.4439 0.70342 0.28657 0.0
Zn81 Zn 0.36947 0.73931 0.32535 0.0
O82 O 0.35436 0.68318 0.37943 0.0
C83 C 0.46024 0.84862 0.34599 0.0
O84 O 0.50562 0.80034 0.34027 0.0
O85 O 0.28257 0.7493 0.29129 0.0
C86 C 0.38874 0.6941 0.41385 0.0
O87 O 0.43734 0.73978 0.41313 0.0
C88 C 0.49198 0.66443 0.29877 0.0
O89 O 0.48933 0.63712 0.3377 0.0
O90 O 0.3975 0.83406 0.34245 0.0
C91 C 0.69931 0.76848 0.77446 0.0
O92 O 0.65685 0.81801 0.76468 0.0
O93 O 0.79546 0.94308 0.78463 0.0
Zn94 Zn 0.76037 0.87322 0.82715 0.0
O95 O 0.81722 0.86326 0.88163 0.0
C96 C 0.64952 0.96591 0.84545 0.0
O97 O 0.69625 0.01247 0.83933 0.0
O98 O 0.74981 0.781 0.79917 0.0
C99 C 0.8071 0.89975 0.91521 0.0
O100 O 0.76187 0.94895 0.9133 0.0
C101 C 0.82832 -0.00486 0.79736 0.0
O102 O 0.84998 -0.00254 0.83776 0.0
O103 O 0.66605 0.90334 0.84335 0.0
C104 C 0.09462 0.17435 0.00136 0.0
C105 C 0.1215 0.14905 0.04064 0.0
C106 C 0.12028 0.1531 0.96119 0.0
C107 C 0.17354 0.10526 0.95858 0.0
H108 H 0.05531 0.21314 0.00149 0.0
H109 H 0.0995 0.17613 0.93202 0.0
S110 S 0.25505 0.01612 0.05183 0.0
N111 N 0.19958 0.06845 0.0744 0.0
N112 N 0.24761 0.02794 -0.00109 0.0
C113 C 0.19791 0.0762 -0.00245 0.0
C114 C 0.172 0.09827 0.03855 0.0
C115 C 0.36764 0.66855 0.53507 0.0
C116 C 0.32008 0.61529 0.53759 0.0
C117 C 0.39173 0.69156 0.49494 0.0
C118 C 0.36879 0.6627 0.45564 0.0
H119 H 0.38527 0.69402 0.56425 0.0
H120 H 0.42672 0.73411 0.49483 0.0
S121 S 0.24995 0.5171 0.44429 0.0
N122 N 0.25513 0.53045 0.49718 0.0
N123 N 0.30009 0.57432 0.42181 0.0
C124 C 0.32369 0.60733 0.45767 0.0
C125 C 0.29948 0.58345 0.49861 0.0
C126 C 0.90397 0.7969 -0.00066 0.0
C127 C 0.88266 0.82586 0.03889 0.0
C128 C 0.88208 0.82337 0.95943 0.0
C129 C 0.8383 0.88015 0.95741 0.0
H130 H 0.93523 0.75136 -0.00096 0.0
H131 H 0.89758 0.79726 0.93003 0.0
S132 S 0.7774 0.98181 0.05164 0.0
N133 N 0.82217 0.91936 0.07359 0.0
N134 N 0.78134 0.96967 -0.0014 0.0
C135 C 0.82076 0.91273 -0.00332 0.0
C136 C 0.84278 0.88541 0.03739 0.0
C137 C 0.65519 0.36389 0.46429 0.0
C138 C 0.64044 0.29418 0.46006 0.0
C139 C 0.66654 0.39317 0.50527 0.0
C140 C 0.66271 0.35399 0.54354 0.0
H141 H 0.66109 0.39545 0.43568 0.0
H142 H 0.68068 0.44644 0.50675 0.0
S143 S 0.61555 0.17105 0.55005 0.0
N144 N 0.6155 0.18819 0.49755 0.0
N145 N 0.63599 0.24306 0.57452 0.0
C146 C 0.64338 0.28517 0.5398 0.0
C147 C 0.6326 0.25528 0.49806 0.0
C148 C 0.31354 0.28602 0.2596 0.0
C149 C 0.31883 0.28336 0.21404 0.0
C150 C 0.37084 0.29668 0.28589 0.0
C151 C 0.43602 0.30399 0.26775 0.0
H152 H 0.26472 0.27936 0.27523 0.0
H153 H 0.36411 0.2965 0.32082 0.0
S154 S 0.47721 0.30453 0.15014 0.0
N155 N 0.39419 0.29223 0.15173 0.0
N156 N 0.50217 0.311 0.20128 0.0
C157 C 0.44191 0.30325 0.22219 0.0
C158 C 0.38328 0.29329 0.19532 0.0
C159 C 0.19464 0.81629 0.7578 0.0
C160 C 0.20027 0.82271 0.71242 0.0
C161 C 0.18509 0.87344 0.7844 0.0
C162 C 0.18199 0.93952 0.76678 0.0
H163 H 0.19797 0.76665 0.77305 0.0
H164 H 0.18279 0.86578 0.81923 0.0
S165 S 0.19086 0.98401 0.64975 0.0
N166 N 0.19896 0.90024 0.65076 0.0
N167 N 0.18243 0.00793 0.70094 0.0
C168 C 0.18592 0.94664 0.72136 0.0
C169 C 0.19466 0.88821 0.69415 0.0
C170 C 0.61293 0.62634 0.29003 0.0
C171 C 0.55669 0.66311 0.27388 0.0
C172 C 0.67733 0.63196 0.27093 0.0
C173 C 0.68833 0.67503 0.23511 0.0
H174 H 0.60783 0.59433 0.31849 0.0
H175 H 0.7192 0.60375 0.28525 0.0
S176 S 0.55689 0.77692 0.17729 0.0
N177 N 0.51545 0.73999 0.21738 0.0
N178 N 0.63647 0.75089 0.18196 0.0
C179 C 0.63209 0.70991 0.21744 0.0
C180 C 0.56633 0.70376 0.23662 0.0
C181 C 0.80035 0.11182 0.7007 0.0
C182 C 0.79583 0.17668 0.72004 0.0
C183 C 0.81386 0.05357 0.7257 0.0
C184 C 0.82484 0.05811 0.77084 0.0
H185 H 0.79129 0.10562 0.66617 0.0
H186 H 0.81429 0.0044 0.70964 0.0
S187 S 0.82386 0.21702 0.83662 0.0
N188 N 0.80692 0.24261 0.78665 0.0
N189 N 0.83348 0.13359 0.8335 0.0
C190 C 0.82339 0.12313 0.79027 0.0
C191 C 0.80844 0.18226 0.76493 0.0
C192 C 0.80846 0.1364 0.22105 0.0
C193 C 0.79827 0.17978 0.25692 0.0
C194 C 0.87317 0.12719 0.20296 0.0
C195 C 0.93053 0.16066 0.22014 0.0
H196 H 0.76583 0.11054 0.20598 0.0
H197 H 0.87769 0.09511 0.17443 0.0
S198 S 0.93246 0.27373 0.31725 0.0
N199 N 0.85185 0.25232 0.31122 0.0
N200 N 0.97348 0.23474 0.27764 0.0
C201 C 0.92155 0.20163 0.25742 0.0
C202 C 0.85548 0.21138 0.27562 0.0
C203 C 0.35596 0.37572 0.7025 0.0
C204 C 0.31977 0.43217 0.71879 0.0
C205 C 0.35008 0.31114 0.72153 0.0
C206 C 0.30739 0.30016 0.75746 0.0
H207 H 0.38774 0.38081 0.674 0.0
H208 H 0.37794 0.26915 0.70714 0.0
S209 S 0.20694 0.43209 0.81557 0.0
N210 N 0.24372 0.47361 0.77545 0.0
N211 N 0.23239 0.35225 0.81079 0.0
C212 C 0.27301 0.35659 0.77523 0.0
C213 C 0.27939 0.42253 0.75609 0.0
C214 C 0.1711 0.79679 0.23999 0.0
C215 C 0.16537 0.77953 0.28419 0.0
C216 C 0.11335 0.80791 0.21415 0.0
C217 C 0.04741 0.80112 0.23125 0.0
H218 H 0.22069 0.80142 0.22506 0.0
H219 H 0.1207 0.81943 0.18006 0.0
S220 S 0.00451 0.75963 0.34562 0.0
N221 N 0.08849 0.75896 0.34451 0.0
N222 N 0.97978 0.77874 0.29574 0.0
C223 C 0.04089 0.78557 0.27571 0.0
C224 C 0.09986 0.77508 0.30221 0.0
C225 C 0.63623 0.62412 0.70252 0.0
C226 C 0.66825 0.56622 0.72035 0.0
C227 C 0.64558 0.68903 0.72069 0.0
C228 C 0.68779 0.69882 0.7572 0.0
H229 H 0.60521 0.61981 0.67348 0.0
H230 H 0.62097 0.73211 0.70518 0.0
S231 S 0.77725 0.56338 0.81942 0.0
N232 N 0.73932 0.52254 0.77921 0.0
N233 N 0.75731 0.64444 0.81283 0.0
C234 C 0.71783 0.64113 0.7765 0.0
C235 C 0.70783 0.57492 0.75829 0.0
C236 C 0.03999 0.53306 0.14232 0.0
C237 C 0.97132 0.55337 0.14121 0.0
C238 C 0.05823 0.46418 0.14216 0.0
C239 C 0.00853 0.41279 0.14096 0.0
H240 H 0.08022 0.5705 0.14475 0.0
H241 H 0.11175 0.45135 0.14456 0.0
S242 S 0.82168 0.43889 0.13237 0.0
N243 N 0.85346 0.51654 0.13484 0.0
N244 N 0.88776 0.38695 0.13453 0.0
C245 C 0.93976 0.43232 0.13733 0.0
C246 C 0.92115 0.50262 0.13745 0.0
C247 C 0.9408 0.5465 0.64481 0.0
C248 C 0.92023 0.4781 0.64141 0.0
C249 C 0.00969 0.56402 0.64517 0.0
C250 C 0.06066 0.51381 0.64217 0.0
H251 H 0.90365 0.58683 0.64894 0.0
H252 H 0.02289 0.61716 0.64951 0.0
S253 S 0.03347 0.3282 0.62624 0.0
N254 N 0.95617 0.36053 0.63025 0.0
N255 N 0.08574 0.39347 0.63097 0.0
C256 C 0.04077 0.44561 0.63607 0.0
C257 C 0.97054 0.42776 0.63567 0.0
C258 C 0.45134 0.04028 0.35985 0.0
C259 C 0.52004 0.05958 0.35805 0.0
C260 C 0.43254 0.97167 0.35735 0.0
C261 C 0.48181 0.91987 0.35325 0.0
H262 H 0.41154 0.07849 0.36146 0.0
H263 H 0.37883 0.95947 0.35742 0.0
S264 S 0.66932 0.94368 0.35278 0.0
N265 N 0.63789 0.02155 0.35599 0.0
N266 N 0.60283 0.89257 0.35149 0.0
C267 C 0.55097 0.93841 0.35382 0.0
C268 C 0.57001 0.00829 0.35614 0.0
C269 C 0.4578 0.95188 0.84851 0.0
C270 C 0.43632 0.02029 0.84856 0.0
C271 C 0.52684 0.93485 0.8493 0.0
C272 C 0.57726 0.98556 0.85006 0.0
H273 H 0.42114 0.91085 0.8467 0.0
H274 H 0.54058 0.8814 0.84789 0.0
S275 S 0.54795 0.1725 0.8549 0.0
N276 N 0.47101 0.13923 0.85272 0.0
N277 N 0.60095 0.10717 0.85421 0.0
C278 C 0.55658 0.05421 0.85221 0.0
C279 C 0.48608 0.0716 0.85147 0.0
loop_
_geom_bond_atom_site_label_1
_geom_bond_atom_site_label_2
_geom_bond_distance
_geom_bond_site_symmetry_2
_ccdc_geom_bond_type
C0 O1 1.160 . S
C0 O7 1.185 . S
O1 C0 1.160 . S
O2 Zn3 1.899 . S
O2 C10 1.296 . S
Zn3 O2 1.899 . S
Zn3 O4 2.032 . S
Zn3 O7 2.086 . S
Zn3 O12 1.977 . S
O4 Zn3 2.032 . S
O4 C8 1.278 . S
C5 O6 1.203 1_455 S
C5 O12 1.267 . S
O6 C5 1.203 1_655 S
O7 C0 1.185 . S
O7 Zn3 2.086 . S
C8 O4 1.278 . S
C8 O9 1.211 . S
O9 C8 1.211 . S
C10 O2 1.296 . S
C10 O11 1.271 1_455 S
O11 C10 1.271 1_655 S
O12 Zn3 1.977 . S
O12 C5 1.267 . S
C13 O14 1.160 . S
C13 O20 1.185 . S
O14 C13 1.160 . S
O15 Zn16 1.899 . S
O15 C23 1.284 . S
Zn16 O15 1.899 . S
Zn16 O17 2.032 . S
Zn16 O20 2.086 . S
Zn16 O25 1.977 . S
O17 Zn16 2.032 . S
O17 C21 1.278 . S
C18 O19 1.203 . S
C18 O25 1.267 . S
O19 C18 1.203 . S
O20 C13 1.185 . S
O20 Zn16 2.086 . S
C21 O17 1.278 . S
C21 O22 1.211 . S
O22 C21 1.211 . S
C23 O15 1.284 . S
C23 O24 1.273 . S
O24 C23 1.273 . S
O25 Zn16 1.977 . S
O25 C18 1.267 . S
C26 O27 1.160 . S
C26 O33 1.185 . S
O27 C26 1.160 . S
O28 Zn29 1.899 . S
O28 C36 1.296 . S
Zn29 O28 1.899 . S
Zn29 O30 2.032 . S
Zn29 O33 2.086 . S
Zn29 O38 1.977 . S
O30 Zn29 2.032 . S
O30 C34 1.278 . S
C31 O32 1.203 1_655 S
C31 O38 1.267 . S
O32 C31 1.203 1_455 S
O33 C26 1.185 . S
O33 Zn29 2.086 . S
C34 O30 1.278 . S
C34 O35 1.211 . S
O35 C34 1.211 . S
C36 O28 1.296 . S
C36 O37 1.271 1_655 S
O37 C36 1.271 1_455 S
O38 Zn29 1.977 . S
O38 C31 1.267 . S
C39 O40 1.160 . S
C39 O46 1.185 . S
O40 C39 1.160 . S
O41 Zn42 1.899 . S
O41 C49 1.284 . S
Zn42 O41 1.899 . S
Zn42 O43 2.032 . S
Zn42 O46 2.086 . S
Zn42 O51 1.977 . S
O43 Zn42 2.032 . S
O43 C47 1.278 . S
C44 O45 1.203 . S
C44 O51 1.267 . S
O45 C44 1.203 . S
O46 C39 1.185 . S
O46 Zn42 2.086 . S
C47 O43 1.278 . S
C47 O48 1.211 . S
O48 C47 1.211 . S
C49 O41 1.284 . S
C49 O50 1.273 . S
O50 C49 1.273 . S
O51 Zn42 1.977 . S
O51 C44 1.267 . S
C52 O53 1.160 . S
C52 O59 1.185 . S
O53 C52 1.160 . S
O54 Zn55 1.899 . S
O54 C62 1.284 . S
Zn55 O54 1.899 . S
Zn55 O56 2.032 . S
Zn55 O59 2.086 . S
Zn55 O64 1.977 . S
O56 Zn55 2.032 . S
O56 C60 1.278 . S
C57 O58 1.203 . S
C57 O64 1.267 . S
O58 C57 1.203 . S
O59 C52 1.185 . S
O59 Zn55 2.086 . S
C60 O56 1.278 . S
C60 O61 1.211 . S
O61 C60 1.211 . S
C62 O54 1.284 . S
C62 O63 1.273 . S
O63 C62 1.273 . S
O64 Zn55 1.977 . S
O64 C57 1.267 . S
C65 O66 1.160 . S
C65 O72 1.185 . S
O66 C65 1.160 . S
O67 Zn68 1.899 . S
O67 C75 1.296 . S
Zn68 O67 1.899 . S
Zn68 O69 2.032 . S
Zn68 O72 2.086 . S
Zn68 O77 1.977 . S
O69 Zn68 2.032 . S
O69 C73 1.278 . S
C70 O71 1.203 1_545 S
C70 O77 1.267 . S
O71 C70 1.203 1_565 S
O72 C65 1.185 . S
O72 Zn68 2.086 . S
C73 O69 1.278 . S
C73 O74 1.211 . S
O74 C73 1.211 . S
C75 O67 1.296 . S
C75 O76 1.271 1_545 S
O76 C75 1.271 1_565 S
O77 Zn68 1.977 . S
O77 C70 1.267 . S
C78 O79 1.160 . S
C78 O85 1.185 . S
O79 C78 1.160 . S
O80 Zn81 1.899 . S
O80 C88 1.284 . S
Zn81 O80 1.899 . S
Zn81 O82 2.032 . S
Zn81 O85 2.086 . S
Zn81 O90 1.977 . S
O82 Zn81 2.032 . S
O82 C86 1.278 . S
C83 O84 1.203 . S
C83 O90 1.267 . S
O84 C83 1.203 . S
O85 C78 1.185 . S
O85 Zn81 2.086 . S
C86 O82 1.278 . S
C86 O87 1.211 . S
O87 C86 1.211 . S
C88 O80 1.284 . S
C88 O89 1.273 . S
O89 C88 1.273 . S
O90 Zn81 1.977 . S
O90 C83 1.267 . S
C91 O92 1.160 . S
C91 O98 1.185 . S
O92 C91 1.160 . S
O93 Zn94 1.899 . S
O93 C101 1.296 . S
Zn94 O93 1.899 . S
Zn94 O95 2.032 . S
Zn94 O98 2.086 . S
Zn94 O103 1.977 . S
O95 Zn94 2.032 . S
O95 C99 1.278 . S
C96 O97 1.203 1_565 S
C96 O103 1.267 . S
O97 C96 1.203 1_545 S
O98 C91 1.185 . S
O98 Zn94 2.086 . S
C99 O95 1.278 . S
C99 O100 1.211 . S
O100 C99 1.211 . S
C101 O93 1.296 . S
C101 O102 1.271 1_565 S
O102 C101 1.271 1_545 S
O103 Zn94 1.977 . S
O103 C96 1.267 . S
C104 C105 1.369 . S
C104 C106 1.419 1_554 S
C104 H108 0.930 . S
C105 C104 1.369 . S
C105 C114 1.429 . S
C106 C104 1.419 1_556 S
C106 C107 1.363 . S
C106 H109 0.929 . S
C107 C106 1.363 . S
C107 C113 1.428 . S
H108 C104 0.930 . S
H109 C106 0.929 . S
S110 N111 1.613 . S
S110 N112 1.610 1_554 S
N111 S110 1.613 . S
N111 C114 1.350 . S
N112 S110 1.610 1_556 S
N112 C113 1.351 . S
C113 C107 1.428 . S
C113 N112 1.351 . S
C113 C114 1.434 1_556 S
C114 C105 1.429 . S
C114 N111 1.350 . S
C114 C113 1.434 1_554 S
C115 C116 1.369 . S
C115 C117 1.419 . S
C115 H119 0.930 . S
C116 C115 1.369 . S
C116 C125 1.429 . S
C117 C115 1.419 . S
C117 C118 1.363 . S
C117 H120 0.929 . S
C118 C117 1.363 . S
C118 C124 1.428 . S
H119 C115 0.930 . S
H120 C117 0.929 . S
S121 N122 1.613 . S
S121 N123 1.610 . S
N122 S121 1.613 . S
N122 C125 1.350 . S
N123 S121 1.610 . S
N123 C124 1.351 . S
C124 C118 1.428 . S
C124 N123 1.351 . S
C124 C125 1.434 . S
C125 C116 1.429 . S
C125 N122 1.350 . S
C125 C124 1.434 . S
C126 C127 1.369 . S
C126 C128 1.419 1_554 S
C126 H130 0.930 . S
C127 C126 1.369 . S
C127 C136 1.429 . S
C128 C126 1.419 1_556 S
C128 C129 1.363 . S
C128 H131 0.929 . S
C129 C128 1.363 . S
C129 C135 1.428 . S
H130 C126 0.930 . S
H131 C128 0.929 . S
S132 N133 1.613 . S
S132 N134 1.610 1_554 S
N133 S132 1.613 . S
N133 C136 1.350 . S
N134 S132 1.610 1_556 S
N134 C135 1.351 . S
C135 C129 1.428 . S
C135 N134 1.351 . S
C135 C136 1.434 1_556 S
C136 C127 1.429 . S
C136 N133 1.350 . S
C136 C135 1.434 1_554 S
C137 C138 1.369 . S
C137 C139 1.419 . S
C137 H141 0.930 . S
C138 C137 1.369 . S
C138 C147 1.429 . S
C139 C137 1.419 . S
C139 C140 1.363 . S
C139 H142 0.929 . S
C140 C139 1.363 . S
C140 C146 1.428 . S
H141 C137 0.930 . S
H142 C139 0.929 . S
S143 N144 1.613 . S
S143 N145 1.610 . S
N144 S143 1.613 . S
N144 C147 1.350 . S
N145 S143 1.610 . S
N145 C146 1.351 . S
C146 C140 1.428 . S
C146 N145 1.351 . S
C146 C147 1.434 . S
C147 C138 1.429 . S
C147 N144 1.350 . S
C147 C146 1.434 . S
C148 C149 1.369 . S
C148 C150 1.419 . S
C148 H152 0.930 . S
C149 C148 1.369 . S
C149 C158 1.429 . S
C150 C148 1.419 . S
C150 C151 1.363 . S
C150 H153 0.929 . S
C151 C150 1.363 . S
C151 C157 1.428 . S
H152 C148 0.930 . S
H153 C150 0.929 . S
S154 N155 1.613 . S
S154 N156 1.610 . S
N155 S154 1.613 . S
N155 C158 1.350 . S
N156 S154 1.610 . S
N156 C157 1.351 . S
C157 C151 1.428 . S
C157 N156 1.351 . S
C157 C158 1.434 . S
C158 C149 1.429 . S
C158 N155 1.350 . S
C158 C157 1.434 . S
C159 C160 1.369 . S
C159 C161 1.419 . S
C159 H163 0.930 . S
C160 C159 1.369 . S
C160 C169 1.429 . S
C161 C159 1.419 . S
C161 C162 1.363 . S
C161 H164 0.929 . S
C162 C161 1.363 . S
C162 C168 1.428 . S
H163 C159 0.930 . S
H164 C161 0.929 . S
S165 N166 1.613 . S
S165 N167 1.610 . S
N166 S165 1.613 . S
N166 C169 1.350 . S
N167 S165 1.610 . S
N167 C168 1.351 . S
C168 C162 1.428 . S
C168 N167 1.351 . S
C168 C169 1.434 . S
C169 C160 1.429 . S
C169 N166 1.350 . S
C169 C168 1.434 . S
C170 C171 1.369 . S
C170 C172 1.419 . S
C170 H174 0.930 . S
C171 C170 1.369 . S
C171 C180 1.429 . S
C172 C170 1.419 . S
C172 C173 1.363 . S
C172 H175 0.929 . S
C173 C172 1.363 . S
C173 C179 1.428 . S
H174 C170 0.930 . S
H175 C172 0.929 . S
S176 N177 1.613 . S
S176 N178 1.610 . S
N177 S176 1.613 . S
N177 C180 1.350 . S
N178 S176 1.610 . S
N178 C179 1.351 . S
C179 C173 1.428 . S
C179 N178 1.351 . S
C179 C180 1.434 . S
C180 C171 1.429 . S
C180 N177 1.350 . S
C180 C179 1.434 . S
C181 C182 1.369 . S
C181 C183 1.419 . S
C181 H185 0.930 . S
C182 C181 1.369 . S
C182 C191 1.429 . S
C183 C181 1.419 . S
C183 C184 1.363 . S
C183 H186 0.929 . S
C184 C183 1.363 . S
C184 C190 1.428 . S
H185 C181 0.930 . S
H186 C183 0.929 . S
S187 N188 1.613 . S
S187 N189 1.610 . S
N188 S187 1.613 . S
N188 C191 1.350 . S
N189 S187 1.610 . S
N189 C190 1.351 . S
C190 C184 1.428 . S
C190 N189 1.351 . S
C190 C191 1.434 . S
C191 C182 1.429 . S
C191 N188 1.350 . S
C191 C190 1.434 . S
C192 C193 1.369 . S
C192 C194 1.419 . S
C192 H196 0.930 . S
C193 C192 1.369 . S
C193 C202 1.429 . S
C194 C192 1.419 . S
C194 C195 1.363 . S
C194 H197 0.929 . S
C195 C194 1.363 . S
C195 C201 1.428 . S
H196 C192 0.930 . S
H197 C194 0.929 . S
S198 N199 1.613 . S
S198 N200 1.610 . S
N199 S198 1.613 . S
N199 C202 1.350 . S
N200 S198 1.610 . S
N200 C201 1.351 . S
C201 C195 1.428 . S
C201 N200 1.351 . S
C201 C202 1.434 . S
C202 C193 1.429 . S
C202 N199 1.350 . S
C202 C201 1.434 . S
C203 C204 1.369 . S
C203 C205 1.419 . S
C203 H207 0.930 . S
C204 C203 1.369 . S
C204 C213 1.429 . S
C205 C203 1.419 . S
C205 C206 1.363 . S
C205 H208 0.929 . S
C206 C205 1.363 . S
C206 C212 1.428 . S
H207 C203 0.930 . S
H208 C205 0.929 . S
S209 N210 1.613 . S
S209 N211 1.610 . S
N210 S209 1.613 . S
N210 C213 1.350 . S
N211 S209 1.610 . S
N211 C212 1.351 . S
C212 C206 1.428 . S
C212 N211 1.351 . S
C212 C213 1.434 . S
C213 C204 1.429 . S
C213 N210 1.350 . S
C213 C212 1.434 . S
C214 C215 1.369 . S
C214 C216 1.419 . S
C214 H218 0.930 . S
C215 C214 1.369 . S
C215 C224 1.429 . S
C216 C214 1.419 . S
C216 C217 1.363 . S
C216 H219 0.929 . S
C217 C216 1.363 . S
C217 C223 1.428 . S
H218 C214 0.930 . S
H219 C216 0.929 . S
S220 N221 1.613 . S
S220 N222 1.610 . S
N221 S220 1.613 . S
N221 C224 1.350 . S
N222 S220 1.610 . S
N222 C223 1.351 . S
C223 C217 1.428 . S
C223 N222 1.351 . S
C223 C224 1.434 . S
C224 C215 1.429 . S
C224 N221 1.350 . S
C224 C223 1.434 . S
C225 C226 1.369 . S
C225 C227 1.419 . S
C225 H229 0.930 . S
C226 C225 1.369 . S
C226 C235 1.429 . S
C227 C225 1.419 . S
C227 C228 1.363 . S
C227 H230 0.929 . S
C228 C227 1.363 . S
C228 C234 1.428 . S
H229 C225 0.930 . S
H230 C227 0.929 . S
S231 N232 1.613 . S
S231 N233 1.610 . S
N232 S231 1.613 . S
N232 C235 1.350 . S
N233 S231 1.610 . S
N233 C234 1.351 . S
C234 C228 1.428 . S
C234 N233 1.351 . S
C234 C235 1.434 . S
C235 C226 1.429 . S
C235 N232 1.350 . S
C235 C234 1.434 . S
C236 C237 1.369 . S
C236 C238 1.419 1_655 S
C236 H240 0.930 . S
C237 C236 1.369 . S
C237 C246 1.429 . S
C238 C236 1.419 1_455 S
C238 C239 1.363 . S
C238 H241 0.929 . S
C239 C238 1.363 . S
C239 C245 1.428 . S
H240 C236 0.930 . S
H241 C238 0.929 . S
S242 N243 1.613 1_455 S
S242 N244 1.610 . S
N243 S242 1.613 1_655 S
N243 C246 1.350 . S
N244 S242 1.610 . S
N244 C245 1.351 . S
C245 C239 1.428 . S
C245 N244 1.351 . S
C245 C246 1.434 1_455 S
C246 C237 1.429 . S
C246 N243 1.350 . S
C246 C245 1.434 1_655 S
C247 C248 1.369 . S
C247 C249 1.419 . S
C247 H251 0.930 . S
C248 C247 1.369 . S
C248 C257 1.429 1_655 S
C249 C247 1.419 . S
C249 C250 1.363 1_655 S
C249 H252 0.929 . S
C250 C249 1.363 1_455 S
C250 C256 1.428 . S
H251 C247 0.930 . S
H252 C249 0.929 . S
S253 N254 1.613 . S
S253 N255 1.610 . S
N254 S253 1.613 . S
N254 C257 1.350 . S
N255 S253 1.610 . S
N255 C256 1.351 . S
C256 C250 1.428 . S
C256 N255 1.351 . S
C256 C257 1.434 . S
C257 C248 1.429 1_455 S
C257 N254 1.350 . S
C257 C256 1.434 . S
C258 C259 1.369 . S
C258 C260 1.419 . S
C258 H262 0.930 . S
C259 C258 1.369 . S
C259 C268 1.429 1_545 S
C260 C258 1.419 . S
C260 C261 1.363 1_545 S
C260 H263 0.929 . S
C261 C260 1.363 1_565 S
C261 C267 1.428 . S
H262 C258 0.930 . S
H263 C260 0.929 . S
S264 N265 1.613 . S
S264 N266 1.610 . S
N265 S264 1.613 . S
N265 C268 1.350 . S
N266 S264 1.610 . S
N266 C267 1.351 . S
C267 C261 1.428 . S
C267 N266 1.351 . S
C267 C268 1.434 . S
C268 C259 1.429 1_565 S
C268 N265 1.350 . S
C268 C267 1.434 . S
C269 C270 1.369 1_565 S
C269 C271 1.419 . S
C269 H273 0.930 . S
C270 C269 1.369 1_545 S
C270 C279 1.429 . S
C271 C269 1.419 . S
C271 C272 1.363 . S
C271 H274 0.929 . S
C272 C271 1.363 . S
C272 C278 1.428 1_565 S
H273 C269 0.930 . S
H274 C271 0.929 . S
S275 N276 1.613 . S
S275 N277 1.610 . S
N276 S275 1.613 . S
N276 C279 1.350 . S
N277 S275 1.610 . S
N277 C278 1.351 . S
C278 C272 1.428 1_545 S
C278 N277 1.351 . S
C278 C279 1.434 . S
C279 C270 1.429 . S
C279 N276 1.350 . S
C279 C278 1.434 . S
C105 C8 1.329 . S
C107 C73 1.323 . S
C116 C21 1.323 . S
C118 C86 1.329 . S
C127 C34 1.325 . S
C129 C99 1.323 . S
C138 C60 1.322 . S
C140 C47 1.326 . S
C149 C0 1.636 . S
C151 C62 1.591 . S
C160 C13 1.637 . S
C162 C75 1.580 1_565 S
C171 C88 1.599 . S
C173 C26 1.633 . S
C182 C39 1.632 . S
C184 C101 1.584 1_545 S
C193 C52 1.637 . S
C195 C10 1.580 1_655 S
C204 C23 1.597 . S
C206 C65 1.635 . S
C215 C78 1.635 . S
C217 C36 1.577 1_455 S
C226 C49 1.597 . S
C228 C91 1.635 . S
C237 C31 0.823 . S
C239 C5 0.832 . S
C248 C44 0.840 . S
C250 C18 0.821 . S
C259 C57 0.840 . S
C261 C83 0.821 . S
C270 C70 0.840 . S
C272 C96 0.821 . S
