# Generated by pormake.
# Topology noo, (5)-cn, num edge types: 1
# Building blocks:
#     Node 0, Type 0, BuildingBlock: BEQFEK_clean_sbu_0, # of connection points: 5
#     Node 1, Type 0, BuildingBlock: BEQFEK_clean_sbu_0, # of connection points: 5
#     Node 2, Type 0, BuildingBlock: BEQFEK_clean_sbu_0, # of connection points: 5
#     Node 3, Type 0, BuildingBlock: BEQFEK_clean_sbu_0, # of connection points: 5
#     Node 4, Type 0, BuildingBlock: BEQFEK_clean_sbu_0, # of connection points: 5
#     Node 5, Type 0, BuildingBlock: BEQFEK_clean_sbu_0, # of connection points: 5
#     Node 6, Type 0, BuildingBlock: BEQFEK_clean_sbu_0, # of connection points: 5
#     Node 7, Type 0, BuildingBlock: BEQFEK_clean_sbu_0, # of connection points: 5
#     Edge 8, Type (0, 0), BuildingBlock: ZUJKAS_clean_linker_0, # of connection points: 2
#     Edge 9, Type (0, 0), BuildingBlock: ZUJKAS_clean_linker_0, # of connection points: 2
#     Edge 10, Type (0, 0), BuildingBlock: ZUJKAS_clean_linker_0, # of connection points: 2
#     Edge 11, Type (0, 0), BuildingBlock: ZUJKAS_clean_linker_0, # of connection points: 2
#     Edge 12, Type (0, 0), BuildingBlock: ZUJKAS_clean_linker_0, # of connection points: 2
#     Edge 13, Type (0, 0), BuildingBlock: ZUJKAS_clean_linker_0, # of connection points: 2
#     Edge 14, Type (0, 0), BuildingBlock: ZUJKAS_clean_linker_0, # of connection points: 2
#     Edge 15, Type (0, 0), BuildingBlock: ZUJKAS_clean_linker_0, # of connection points: 2
#     Edge 16, Type (0, 0), BuildingBlock: ZUJKAS_clean_linker_0, # of connection points: 2
#     Edge 17, Type (0, 0), BuildingBlock: ZUJKAS_clean_linker_0, # of connection points: 2
#     Edge 18, Type (0, 0), BuildingBlock: ZUJKAS_clean_linker_0, # of connection points: 2
#     Edge 19, Type (0, 0), BuildingBlock: ZUJKAS_clean_linker_0, # of connection points: 2
#     Edge 20, Type (0, 0), BuildingBlock: ZUJKAS_clean_linker_0, # of connection points: 2
#     Edge 21, Type (0, 0), BuildingBlock: ZUJKAS_clean_linker_0, # of connection points: 2
#     Edge 22, Type (0, 0), BuildingBlock: ZUJKAS_clean_linker_0, # of connection points: 2
#     Edge 23, Type (0, 0), BuildingBlock: ZUJKAS_clean_linker_0, # of connection points: 2
#     Edge 24, Type (0, 0), BuildingBlock: ZUJKAS_clean_linker_0, # of connection points: 2
#     Edge 25, Type (0, 0), BuildingBlock: ZUJKAS_clean_linker_0, # of connection points: 2
#     Edge 26, Type (0, 0), BuildingBlock: ZUJKAS_clean_linker_0, # of connection points: 2
#     Edge 27, Type (0, 0), BuildingBlock: ZUJKAS_clean_linker_0, # of connection points: 2
# Relax obj value: 0.142
# Max RMSD: 0.147
# Mean RMSD: 0.147
data_MOF--net-noo--node1-BEQFEK_clean_sbu_0--edge1-ZUJKAS_clean_linker_0
_symmetry_space_group_name_H-M    P1
_symmetry_Int_Tables_number       1
_symmetry_cell_setting            triclinic
loop_
_symmetry_equiv_pos_as_xyz
'x, y, z'
_cell_length_a     50.461561
_cell_length_b     50.350404
_cell_length_c     37.835555
_cell_angle_alpha  89.881129
_cell_angle_beta   90.004773
_cell_angle_gamma 90.010989
loop_
_atom_site_label
_atom_site_type_symbol
_atom_site_fract_x
_atom_site_fract_y
_atom_site_fract_z
_atom_type_partial_charge
Co0 Co 0.38014 0.25765 0.04376 0.0
Co1 Co 0.4024 0.19985 0.05102 0.0
C2 C 0.37209 0.21595 0.98689 0.0
O3 O 0.36921 0.23947 0.99891 0.0
O4 O 0.3844 0.1982 1.0045 0.0
C5 C 0.34113 0.2994 0.03347 0.0
O6 O 0.32626 0.28073 0.01953 0.0
C7 C 0.41675 0.14268 0.04835 0.0
C8 C 0.44355 0.14035 0.09448 0.0
C9 C 0.43335 0.12554 0.06686 0.0
N10 N 0.41729 0.16651 0.06436 0.0
N11 N 0.43339 0.16492 0.09183 0.0
C12 C 0.40026 0.13657 0.01656 0.0
H13 H 0.3809 0.14689 0.01856 0.0
H14 H 0.39686 0.11489 0.01391 0.0
H15 H 0.41055 0.144 0.99258 0.0
C16 C 0.3558 0.2429 0.11307 0.0
N17 N 0.37029 0.23716 0.08412 0.0
N18 N 0.37869 0.21246 0.08639 0.0
C19 C 0.36913 0.20146 0.11633 0.0
C20 C 0.35447 0.22044 0.13441 0.0
C21 C 0.34339 0.26938 0.11987 0.0
H22 H 0.328 0.27316 0.09955 0.0
H23 H 0.33406 0.27031 0.14638 0.0
H24 H 0.35863 0.28517 0.1174 0.0
O25 O 0.41886 0.26417 0.04344 0.0
O26 O 0.43389 0.22304 0.04742 0.0
H27 H 0.39505 0.17377 0.14145 0.0
H28 H 0.36064 0.16649 0.14792 0.0
C29 C 0.37534 0.17384 0.1285 0.0
H30 H 0.37583 0.16015 0.10561 0.0
H31 H 0.43789 0.18087 0.10835 0.0
O32 O 0.36386 0.29344 0.04554 0.0
C33 C 0.43805 0.24785 0.04485 0.0
Co34 Co 0.74833 0.38057 0.04197 0.0
Co35 Co 0.80573 0.40332 0.04885 0.0
C36 C 0.79054 0.37224 0.98546 0.0
O37 O 0.76701 0.36943 0.99738 0.0
O38 O 0.80815 0.38472 1.003 0.0
C39 C 0.70824 0.33924 0.03709 0.0
O40 O 0.72799 0.32318 0.0297 0.0
C41 C 0.86204 0.4203 0.04625 0.0
C42 C 0.86322 0.44606 0.09347 0.0
C43 C 0.87832 0.43741 0.06521 0.0
N44 N 0.8384 0.41911 0.06262 0.0
N45 N 0.83931 0.43455 0.09078 0.0
C46 C 0.86871 0.40501 0.01361 0.0
H47 H 0.85959 0.38499 0.01498 0.0
H48 H 0.89046 0.40294 1.01037 0.0
H49 H 0.8604 0.41546 0.99026 0.0
C50 C 0.76273 0.35804 0.1129 0.0
N51 N 0.76851 0.37156 0.083 0.0
N52 N 0.7931 0.38019 0.08488 0.0
C53 C 0.80395 0.37179 0.11548 0.0
C54 C 0.78501 0.35782 0.13457 0.0
C55 C 0.73581 0.34745 0.12167 0.0
H56 H 0.72034 0.36122 0.11176 0.0
H57 H 0.73313 0.32799 0.10846 0.0
H58 H 0.73335 0.34468 0.15058 0.0
O59 O 0.74122 0.41931 0.04083 0.0
O60 O 0.78227 0.43448 0.04388 0.0
H61 H 0.83421 0.39505 0.14003 0.0
H62 H 0.8392 0.35982 0.14353 0.0
C63 C 0.8323 0.37595 0.12572 0.0
H64 H 0.84507 0.3765 0.10189 0.0
H65 H 0.82328 0.43779 0.10766 0.0
O66 O 0.71296 0.36357 0.0433 0.0
C67 C 0.7575 0.43857 0.04142 0.0
Co68 Co 0.62546 0.74957 0.04261 0.0
Co69 Co 0.60009 0.80611 0.04861 0.0
C70 C 0.6326 0.79191 0.9859 0.0
O71 O 0.63637 0.76855 0.99818 0.0
O72 O 0.61906 0.80903 1.00293 0.0
C73 C 0.66706 0.70956 0.03601 0.0
O74 O 0.68242 0.72894 0.02496 0.0
C75 C 0.58144 0.86217 0.04603 0.0
C76 C 0.55501 0.8621 0.09263 0.0
C77 C 0.56368 0.87784 0.06491 0.0
N78 N 0.58296 0.83829 0.06197 0.0
N79 N 0.5671 0.83846 0.08974 0.0
C80 C 0.59713 0.86971 0.01402 0.0
H81 H 0.58693 0.8621 0.99011 0.0
H82 H 0.61707 0.86049 0.01531 0.0
H83 H 0.59924 0.89159 0.01185 0.0
C84 C 0.64701 0.76521 0.11319 0.0
N85 N 0.6332 0.7703 0.08338 0.0
N86 N 0.62336 0.79447 0.08513 0.0
C87 C 0.63119 0.80577 0.11567 0.0
C88 C 0.64612 0.78754 0.13476 0.0
C89 C 0.65907 0.73884 0.12178 0.0
H90 H 0.64565 0.72266 0.11314 0.0
H91 H 0.67802 0.7368 0.10717 0.0
H92 H 0.66301 0.73676 0.15049 0.0
O93 O 0.58721 0.74101 0.04094 0.0
O94 O 0.56997 0.78134 0.04326 0.0
H95 H 0.60632 0.83495 0.1397 0.0
H96 H 0.64117 0.84162 0.14385 0.0
C97 C 0.62563 0.83395 0.12579 0.0
H98 H 0.62477 0.84671 0.10191 0.0
H99 H 0.56408 0.82214 0.1063 0.0
O100 O 0.64331 0.7146 0.04486 0.0
C101 C 0.5672 0.75632 0.04099 0.0
Co102 Co 0.25439 0.62781 0.04344 0.0
Co103 Co 0.19815 0.60184 0.04815 0.0
C104 C 0.21267 0.63493 0.98604 0.0
O105 O 0.23571 0.63903 0.99891 0.0
O106 O 0.19562 0.62091 1.00253 0.0
C107 C 0.30167 0.65333 0.01957 0.0
O108 O 0.29182 0.64789 0.98826 0.0
C109 C 0.14188 0.58484 0.045 0.0
C110 C 0.14104 0.5567 0.08993 0.0
C111 C 0.1256 0.56717 0.06307 0.0
N112 N 0.16587 0.58465 0.06052 0.0
N113 N 0.16519 0.56775 0.08726 0.0
C114 C 0.13472 0.60225 0.01439 0.0
H115 H 0.14479 0.62174 0.01689 0.0
H116 H 0.11299 0.60537 0.01288 0.0
H117 H 0.14159 0.59275 0.98959 0.0
C118 C 0.23781 0.64845 0.114 0.0
N119 N 0.23313 0.63492 0.08389 0.0
N120 N 0.20903 0.62497 0.08503 0.0
C121 C 0.19737 0.63241 0.11548 0.0
C122 C 0.21528 0.64724 0.13518 0.0
C123 C 0.26404 0.66047 0.12315 0.0
H124 H 0.28019 0.64657 0.11588 0.0
H125 H 0.26678 0.67896 0.10756 0.0
H126 H 0.26549 0.66517 0.15171 0.0
O127 O 0.26351 0.58946 0.04128 0.0
O128 O 0.22328 0.57204 0.04326 0.0
H129 H 0.16813 0.6067 0.13789 0.0
H130 H 0.16127 0.64149 0.14361 0.0
C131 C 0.16918 0.62646 0.12497 0.0
H132 H 0.15668 0.62621 0.10088 0.0
H133 H 0.18139 0.56353 0.10348 0.0
O134 O 0.28853 0.6471 0.04701 0.0
C135 C 0.24826 0.56934 0.04115 0.0
Co136 Co 0.87751 0.25003 0.5801 0.0
Co137 Co 0.90327 0.30635 0.57261 0.0
C138 C 0.87078 0.2925 0.63604 0.0
O139 O 0.86641 0.26922 0.62399 0.0
O140 O 0.88476 0.30923 0.61883 0.0
C141 C 0.83616 0.20962 0.58695 0.0
O142 O 0.82043 0.22888 0.5973 0.0
C143 C 0.92179 0.36245 0.57494 0.0
C144 C 0.94794 0.36265 0.52807 0.0
C145 C 0.93943 0.37823 0.55595 0.0
N146 N 0.92018 0.33865 0.55894 0.0
N147 N 0.93588 0.33898 0.531 0.0
C148 C 0.90633 0.36979 0.60719 0.0
H149 H 0.8864 0.36053 0.60617 0.0
H150 H 0.90419 0.39165 0.60946 0.0
H151 H 0.91674 0.3621 0.63094 0.0
C152 C 0.85575 0.26524 0.50931 0.0
N153 N 0.86976 0.27048 0.53888 0.0
N154 N 0.87966 0.29462 0.53659 0.0
C155 C 0.87171 0.30571 0.50591 0.0
C156 C 0.85659 0.2874 0.48731 0.0
C157 C 0.84348 0.23887 0.50134 0.0
H158 H 0.85688 0.22268 0.51006 0.0
H159 H 0.82463 0.23702 0.51625 0.0
H160 H 0.8393 0.23662 0.47272 0.0
O161 O 0.91579 0.2416 0.58249 0.0
O162 O 0.93347 0.28158 0.57705 0.0
H163 H 0.8966 0.33456 0.48105 0.0
H164 H 0.86177 0.34137 0.4771 0.0
C165 C 0.87737 0.33378 0.49517 0.0
H166 H 0.87842 0.34674 0.51878 0.0
H167 H 0.93885 0.32273 0.51439 0.0
O168 O 0.85993 0.2149 0.57839 0.0
C169 C 0.93599 0.25663 0.58073 0.0
Co170 Co 0.75449 0.88002 0.57963 0.0
Co171 Co 0.69761 0.90436 0.57337 0.0
C172 C 0.71231 0.87216 0.63625 0.0
O173 O 0.73566 0.86877 0.62404 0.0
O174 O 0.69503 0.8854 0.6191 0.0
C175 C 0.80157 0.85401 0.6042 0.0
O176 O 0.791 0.85801 0.63546 0.0
C177 C 0.64107 0.92022 0.57586 0.0
C178 C 0.63974 0.94792 0.53047 0.0
C179 C 0.6245 0.93746 0.55754 0.0
N180 N 0.66502 0.92064 0.56029 0.0
N181 N 0.66405 0.93726 0.53326 0.0
C182 C 0.63424 0.90304 0.60684 0.0
H183 H 0.64422 0.88351 0.6043 0.0
H184 H 0.61252 0.89996 0.60889 0.0
H185 H 0.64148 0.91267 0.63136 0.0
C186 C 0.73928 0.85836 0.5091 0.0
N187 N 0.73383 0.87201 0.53889 0.0
N188 N 0.70953 0.88137 0.53696 0.0
C189 C 0.69854 0.87349 0.50625 0.0
C190 C 0.71708 0.85893 0.48729 0.0
C191 C 0.76591 0.84688 0.50083 0.0
H192 H 0.78157 0.86154 0.50739 0.0
H193 H 0.76917 0.82904 0.51756 0.0
H194 H 0.76765 0.84127 0.4726 0.0
O195 O 0.76261 0.91861 0.58138 0.0
O196 O 0.72191 0.93483 0.57844 0.0
H197 H 0.66933 0.89854 0.48252 0.0
H198 H 0.66319 0.8636 0.47696 0.0
C199 C 0.67046 0.87889 0.49572 0.0
H200 H 0.65748 0.87906 0.51935 0.0
H201 H 0.68019 0.94165 0.51701 0.0
O202 O 0.78905 0.8614 0.57675 0.0
C203 C 0.74678 0.93828 0.58098 0.0
Co204 Co 0.12538 0.75798 0.58083 0.0
Co205 Co 0.10022 0.7013 0.57429 0.0
C206 C 0.13246 0.71588 0.63748 0.0
O207 O 0.1366 0.73918 0.62523 0.0
O208 O 0.11871 0.69894 0.6204 0.0
C209 C 0.16494 0.79956 0.59111 0.0
O210 O 0.17933 0.78125 0.60677 0.0
C211 C 0.08466 0.64432 0.57636 0.0
C212 C 0.05616 0.64357 0.53199 0.0
C213 C 0.06717 0.62789 0.55824 0.0
N214 N 0.08386 0.66858 0.56141 0.0
N215 N 0.06673 0.66794 0.53501 0.0
C216 C 0.10228 0.6371 0.60666 0.0
H217 H 0.1213 0.64805 0.60466 0.0
H218 H 0.10625 0.61542 0.60723 0.0
H219 H 0.09248 0.64291 0.63173 0.0
C220 C 0.14811 0.7423 0.51112 0.0
N221 N 0.13359 0.73723 0.5403 0.0
N222 N 0.12387 0.71301 0.53819 0.0
C223 C 0.13248 0.70167 0.50802 0.0
C224 C 0.14798 0.71991 0.48972 0.0
C225 C 0.16201 0.76804 0.50429 0.0
H226 H 0.17692 0.77139 0.52535 0.0
H227 H 0.17213 0.76816 0.47826 0.0
H228 H 0.14748 0.78456 0.50549 0.0
O229 O 0.08694 0.766 0.5825 0.0
O230 O 0.06981 0.72567 0.5789 0.0
H231 H 0.13808 0.66678 0.47526 0.0
H232 H 0.12457 0.66055 0.51867 0.0
C233 C 0.12462 0.67449 0.49595 0.0
H234 H 0.10436 0.67537 0.48468 0.0
H235 H 0.06195 0.68435 0.51936 0.0
O236 O 0.14257 0.79333 0.57816 0.0
C237 C 0.06696 0.75064 0.58171 0.0
Co238 Co 0.24902 0.12893 0.58191 0.0
Co239 Co 0.30517 0.10302 0.57562 0.0
C240 C 0.29164 0.13541 0.63839 0.0
O241 O 0.26834 0.13938 0.62623 0.0
O242 O 0.30858 0.12177 0.62124 0.0
C243 C 0.19599 0.14062 0.59908 0.0
O244 O 0.19969 0.11987 0.61962 0.0
C245 C 0.3609 0.08409 0.5775 0.0
C246 C 0.36034 0.05709 0.53149 0.0
C247 C 0.3763 0.06606 0.55873 0.0
N248 N 0.33694 0.08548 0.562 0.0
N249 N 0.33681 0.06929 0.53457 0.0
C250 C 0.36878 0.10018 0.60897 0.0
H251 H 0.35958 0.12016 0.60743 0.0
H252 H 0.39063 0.10231 0.61061 0.0
H253 H 0.36145 0.09024 0.63328 0.0
C254 C 0.26472 0.15029 0.5112 0.0
N255 N 0.26977 0.13652 0.5411 0.0
N256 N 0.29381 0.1265 0.53928 0.0
C257 C 0.30508 0.13414 0.50861 0.0
C258 C 0.28695 0.14914 0.48947 0.0
C259 C 0.23843 0.16248 0.50279 0.0
H260 H 0.22231 0.14866 0.51053 0.0
H261 H 0.23606 0.18094 0.51844 0.0
H262 H 0.2366 0.1673 0.47427 0.0
O263 O 0.23978 0.09052 0.58326 0.0
O264 O 0.28004 0.07328 0.58107 0.0
H265 H 0.33389 0.10876 0.48475 0.0
H266 H 0.34087 0.14361 0.48001 0.0
C267 C 0.33311 0.12823 0.49836 0.0
H268 H 0.34591 0.12741 0.52215 0.0
H269 H 0.32037 0.06617 0.51836 0.0
O270 O 0.21512 0.14889 0.58016 0.0
C271 C 0.25508 0.07046 0.58329 0.0
H272 H 0.55142 0.89965 1.00008 0.0
H273 H 0.52805 0.9416 0.98917 0.0
H274 H 0.52648 0.95706 0.10116 0.0
H275 H 0.55022 0.91558 0.11225 0.0
H276 H 0.47449 0.95638 0.05978 0.0
H277 H 0.55345 0.02253 1.00575 0.0
H278 H 0.55086 0.9887 0.9905 0.0
H279 H 0.56139 0.99517 0.03486 0.0
C280 C 0.54699 0.91244 0.02225 0.0
C281 C 0.55308 0.90457 0.05702 0.0
C282 C 0.5334 0.93625 0.01598 0.0
C283 C 0.52569 0.95235 0.04438 0.0
C284 C 0.53236 0.94487 0.07893 0.0
H285 H 0.44212 0.08586 0.11355 0.0
H286 H 0.46146 0.04231 0.10196 0.0
C287 C 0.54592 0.92121 0.0852 0.0
C288 C 0.50899 0.97607 0.03888 0.0
H289 H 0.51198 0.04187 0.01774 0.0
C290 C 0.48252 0.97501 0.05008 0.0
C291 C 0.51951 1.00013 0.02582 0.0
C292 C 0.54787 1.00199 0.01353 0.0
C293 C 0.46656 0.99778 0.05006 0.0
C294 C 0.47759 0.0223 0.03926 0.0
C295 C 0.50362 0.02304 0.02611 0.0
C296 C 0.46357 0.04772 0.04525 0.0
C297 C 0.43821 0.9955 0.06238 0.0
C298 C 0.45855 0.06533 0.01723 0.0
C299 C 0.44748 0.09033 0.02385 0.0
C300 C 0.44147 0.09807 0.05862 0.0
C301 C 0.44625 0.08025 0.08647 0.0
C302 C 0.45715 0.05532 0.07985 0.0
H303 H 0.4304 0.9751 0.05828 0.0
H304 H 0.43727 0.99983 0.09109 0.0
H305 H 0.4252 0.00982 0.0483 0.0
H306 H 0.46375 0.05996 0.9904 0.0
H307 H 0.44485 0.10398 1.002 0.0
H308 H 0.89852 0.45098 1.00007 0.0
H309 H 0.9403 0.47426 0.98828 0.0
H310 H 0.9587 0.47285 0.09952 0.0
H311 H 0.91734 0.44918 0.11146 0.0
H312 H 0.95692 0.52609 0.05979 0.0
H313 H 0.02148 0.44792 1.00083 0.0
H314 H 0.98729 0.45074 0.98733 0.0
H315 H 0.99505 0.43942 0.03103 0.0
C316 C 0.91192 0.45471 0.02182 0.0
C317 C 0.90493 0.44781 0.05665 0.0
C318 C 0.93563 0.46825 0.01507 0.0
C319 C 0.95249 0.47511 0.04305 0.0
C320 C 0.9459 0.4676 0.07762 0.0
H321 H 0.08716 0.55661 0.11071 0.0
H322 H 0.0435 0.53746 0.09968 0.0
C323 C 0.92233 0.45409 0.08437 0.0
C324 C 0.97605 0.49189 0.0372 0.0
H325 H 0.04122 0.48913 0.01376 0.0
C326 C 0.97528 0.5182 0.04921 0.0
C327 C 0.99973 0.48153 0.02298 0.0
C328 C 1.00122 0.45334 1.00977 0.0
C329 C 0.99804 0.53413 0.04892 0.0
C330 C 0.02222 0.52322 0.03698 0.0
C331 C 0.02263 0.4974 0.02299 0.0
C332 C 0.04772 0.53701 0.04274 0.0
C333 C 0.99614 0.56228 0.06225 0.0
C334 C 0.06468 0.54287 0.01438 0.0
C335 C 0.08973 0.55384 0.02067 0.0
C336 C 0.09815 0.55887 0.05543 0.0
C337 C 0.08101 0.5532 0.08365 0.0
C338 C 0.05602 0.54242 0.07737 0.0
H339 H 0.97572 0.57023 0.05923 0.0
H340 H 1.00116 0.56265 0.0908 0.0
H341 H 0.01012 0.57557 0.04804 0.0
H342 H 0.05874 0.53845 0.98751 0.0
H343 H 0.10286 0.55722 0.9985 0.0
H344 H 0.95212 0.39961 0.62076 0.0
H345 H 0.97538 0.44156 0.63174 0.0
H346 H 0.97616 0.45786 0.51984 0.0
H347 H 0.95258 0.41632 0.50871 0.0
H348 H 0.02782 0.45825 0.55807 0.0
H349 H 0.94965 0.52156 0.6192 0.0
H350 H 0.95377 0.4879 0.63454 0.0
H351 H 0.9414 0.49393 0.59087 0.0
C352 C 0.95636 0.41257 0.59864 0.0
C353 C 0.95007 0.40493 0.56389 0.0
C354 C 0.96987 0.4364 0.60494 0.0
C355 C 0.97732 0.45277 0.57659 0.0
C356 C 0.9705 0.44547 0.54205 0.0
H357 H 0.05652 0.59 0.50986 0.0
H358 H 0.03792 0.54591 0.52009 0.0
C359 C 0.95702 0.42179 0.53575 0.0
C360 C 0.99381 0.47666 0.58213 0.0
H361 H 0.99078 0.54162 0.60719 0.0
C362 C 0.01988 0.4764 0.56925 0.0
C363 C 0.98345 0.50011 0.59715 0.0
C364 C 0.95551 0.50118 0.61121 0.0
C365 C 0.03553 0.49939 0.56959 0.0
C366 C 0.02461 0.52333 0.5825 0.0
C367 C 0.99906 0.52322 0.59723 0.0
C368 C 0.03811 0.54913 0.57714 0.0
C369 C 0.06343 0.49799 0.55539 0.0
C370 C 0.04418 0.56568 0.60583 0.0
C371 C 0.05486 0.591 0.6 0.0
C372 C 0.05937 0.60012 0.56537 0.0
C373 C 0.05352 0.58335 0.53682 0.0
C374 C 0.04304 0.55811 0.54264 0.0
H375 H 0.0716 0.47756 0.55761 0.0
H376 H 0.06332 0.5035 0.52697 0.0
H377 H 0.07678 0.51189 0.56959 0.0
H378 H 0.04015 0.55923 0.63262 0.0
H379 H 0.05838 0.6038 0.62246 0.0
H380 H 0.60225 0.94806 0.62219 0.0
H381 H 0.55811 0.96664 0.63344 0.0
H382 H 0.54186 0.96609 0.52152 0.0
H383 H 0.58557 0.94711 0.51024 0.0
H384 H 0.54011 0.0155 0.60629 0.0
H385 H 0.47466 0.93338 0.5639 0.0
H386 H 0.50919 0.92841 0.57466 0.0
H387 H 0.49977 0.94074 0.53177 0.0
C388 C 0.5889 0.95105 0.60015 0.0
C389 C 0.59705 0.94562 0.56538 0.0
C390 C 0.56384 0.96192 0.60659 0.0
C391 C 0.5466 0.96729 0.57837 0.0
C392 C 0.55462 0.9615 0.54374 0.0
H393 H 0.41363 0.05222 0.51106 0.0
H394 H 0.45521 0.02875 0.52204 0.0
C395 C 0.57963 0.95081 0.53731 0.0
C396 C 0.52108 0.981 0.58424 0.0
H397 H 0.45552 0.97731 0.56301 0.0
C398 C 0.52146 0.00699 0.59765 0.0
C399 C 0.49683 0.96975 0.57306 0.0
C400 C 0.49499 0.94143 0.56038 0.0
C401 C 0.49846 0.02269 0.59781 0.0
C402 C 0.47466 0.01196 0.58441 0.0
C403 C 0.47395 0.9855 0.57296 0.0
C404 C 0.45084 0.02844 0.57889 0.0
C405 C 0.49996 0.05106 0.61033 0.0
C406 C 0.43491 0.03632 0.60737 0.0
C407 C 0.41107 0.04976 0.60116 0.0
C408 C 0.403 0.05553 0.56639 0.0
C409 C 0.41944 0.04817 0.53811 0.0
C410 C 0.44314 0.03477 0.54431 0.0
H411 H 0.52043 0.05695 0.61773 0.0
H412 H 0.4927 0.06465 0.58929 0.0
H413 H 0.48691 0.05365 0.63369 0.0
H414 H 0.44043 0.03121 0.6342 0.0
H415 H 0.39842 0.05434 0.62341 0.0
H416 H 0.22132 0.52297 0.03118 0.0
H417 H 0.23919 0.47796 0.02928 0.0
H418 H 0.3181 0.50868 0.04445 0.0
H419 H 0.30043 0.55406 0.0463 0.0
H420 H 0.28166 0.45803 0.98112 0.0
H421 H 0.30528 0.45094 0.12465 0.0
H422 H 0.28175 0.4747 0.10739 0.0
H423 H 0.31659 0.47997 0.1012 0.0
C424 C 0.2425 0.52026 0.03409 0.0
C425 C 0.25944 0.54217 0.03902 0.0
C426 C 0.25265 0.4945 0.03293 0.0
C427 C 0.27987 0.49006 0.03703 0.0
C428 C 0.29696 0.51177 0.04158 0.0
H429 H 0.36925 0.3431 0.054 0.0
H430 H 0.35482 0.38938 0.05372 0.0
C431 C 0.28684 0.53766 0.04249 0.0
C432 C 0.29017 0.46257 0.03649 0.0
H433 H 0.31542 0.41382 0.08944 0.0
C434 C 0.28913 0.44832 1.00472 0.0
C435 C 0.29992 0.45012 0.06735 0.0
C436 C 0.3009 0.46454 0.10224 0.0
C437 C 0.29775 0.42185 1.00292 0.0
C438 C 0.30695 0.40912 0.03399 0.0
C439 C 0.30825 0.42355 0.06569 0.0
C440 C 0.31542 0.3809 0.0342 0.0
C441 C 0.29736 0.40797 0.96761 0.0
C442 C 0.29791 0.36066 0.02388 0.0
C443 C 0.30616 0.33413 0.02375 0.0
C444 C 0.33198 0.32734 0.03441 0.0
C445 C 0.34924 0.34762 0.04554 0.0
C446 C 0.34104 0.37411 0.04541 0.0
H447 H 0.29731 0.42239 0.94534 0.0
H448 H 0.31473 0.39462 0.96461 0.0
H449 H 0.27909 0.39581 0.96557 0.0
H450 H 0.27781 0.36536 0.01602 0.0
H451 H 0.2923 0.31898 0.01534 0.0
H452 H 0.48348 0.21835 0.04282 0.0
H453 H 0.52917 0.23431 0.04167 0.0
H454 H 0.50136 0.31525 0.04297 0.0
H455 H 0.45543 0.29953 0.04424 0.0
H456 H 0.55316 0.26921 0.99017 0.0
H457 H 0.55505 0.3105 0.12637 0.0
H458 H 0.53019 0.28711 0.11192 0.0
H459 H 0.52809 0.32133 0.09882 0.0
C460 C 0.487 0.23957 0.04293 0.0
C461 C 0.46574 0.25767 0.04375 0.0
C462 C 0.51315 0.24862 0.04222 0.0
C463 C 0.5186 0.27591 0.04264 0.0
C464 C 0.49752 0.29408 0.04316 0.0
H465 H 0.66308 0.36835 0.04578 0.0
H466 H 0.61739 0.35248 0.04625 0.0
C467 C 0.4713 0.28505 0.04372 0.0
C468 C 0.5464 0.28526 0.04206 0.0
H469 H 0.59294 0.31786 0.09098 0.0
C470 C 0.56194 0.2798 0.0122 0.0
C471 C 0.55767 0.29907 0.07086 0.0
C472 C 0.54203 0.30473 0.10398 0.0
C473 C 0.58842 0.28821 1.01008 0.0
C474 C 0.59979 0.30188 0.039 0.0
C475 C 0.58421 0.30732 0.06887 0.0
C476 C 0.62769 0.31118 0.0386 0.0
C477 C 0.60372 0.28298 0.97654 0.0
C478 C 0.64872 0.29317 0.0346 0.0
C479 C 0.67495 0.3022 0.03409 0.0
C480 C 0.68059 0.32939 0.03799 0.0
C481 C 0.65947 0.34728 0.04263 0.0
C482 C 0.63331 0.33825 0.04294 0.0
H483 H 0.59031 0.27901 0.95386 0.0
H484 H 0.61667 0.30006 0.96972 0.0
H485 H 0.61643 0.26523 0.98035 0.0
H486 H 0.64488 0.2721 0.03208 0.0
H487 H 0.69077 0.28789 0.03077 0.0
H488 H 0.7172 0.69122 0.02218 0.0
H489 H 0.73243 0.64495 0.02282 0.0
H490 H 0.65424 0.61906 0.05323 0.0
H491 H 0.63883 0.66502 0.05273 0.0
H492 H 0.72886 0.60688 0.08237 0.0
H493 H 0.67323 0.57496 0.96286 0.0
H494 H 0.68022 0.60942 0.97228 0.0
H495 H 0.6544 0.5924 0.99582 0.0
C496 C 0.70325 0.67568 0.02901 0.0
C497 C 0.67677 0.68182 0.03723 0.0
C498 C 0.71199 0.6493 0.02937 0.0
C499 C 0.69433 0.62865 0.03759 0.0
C500 C 0.66804 0.63472 0.04628 0.0
H501 H 0.70615 0.45636 0.04596 0.0
H502 H 0.69082 0.50253 0.04586 0.0
C503 C 0.65933 0.66103 0.04613 0.0
C504 C 0.7034 0.60071 0.03754 0.0
H505 H 0.69519 0.54139 0.9954 0.0
C506 C 0.72164 0.59254 0.06329 0.0
C507 C 0.69368 0.5821 0.01279 0.0
C508 C 0.67444 0.59008 0.98415 0.0
C509 C 0.7302 0.56605 0.06529 0.0
C510 C 0.72075 0.54745 0.04024 0.0
C511 C 0.70242 0.55566 0.01455 0.0
C512 C 0.72998 0.51949 0.03991 0.0
C513 C 0.74878 0.55814 0.09476 0.0
C514 C 0.75699 0.51371 0.03586 0.0
C515 C 0.76582 0.48744 0.03614 0.0
C516 C 0.74776 0.46633 0.03996 0.0
C517 C 0.72059 0.47213 0.04304 0.0
C518 C 0.71179 0.4985 0.043 0.0
H519 H 0.74777 0.57227 0.11724 0.0
H520 H 0.74419 0.53789 0.10472 0.0
H521 H 0.76943 0.5582 0.08468 0.0
H522 H 0.7713 0.52955 0.03244 0.0
H523 H 0.78686 0.48372 0.03332 0.0
H524 H 0.33257 0.67418 0.9671 0.0
H525 H 0.37777 0.6912 0.97212 0.0
H526 H 0.37708 0.67478 0.08406 0.0
H527 H 0.33156 0.65849 0.07948 0.0
H528 H 0.3988 0.72202 0.07075 0.0
H529 H 0.44383 0.6471 0.9823 0.0
H530 H 0.41778 0.66536 0.96107 0.0
H531 H 0.41027 0.64434 0.99831 0.0
C532 C 0.34202 0.67423 0.99281 0.0
C533 C 0.32855 0.66481 0.02284 0.0
C534 C 0.36794 0.68376 0.99558 0.0
C535 C 0.38106 0.68364 0.0283 0.0
C536 C 0.36743 0.67485 0.05849 0.0
H537 H 0.55201 0.7045 0.05032 0.0
H538 H 0.50692 0.68656 0.04907 0.0
C539 C 0.3414 0.66556 0.05582 0.0
C540 C 0.40885 0.69303 0.03118 0.0
H541 H 0.471 0.68417 0.99751 0.0
C542 C 0.41462 0.71364 0.05489 0.0
C543 C 0.4296 0.68172 1.01102 0.0
C544 C 0.42515 0.65822 0.98703 0.0
C545 C 0.44042 0.72369 0.05837 0.0
C546 C 0.46088 0.71338 0.03676 0.0
C547 C 0.45525 0.69232 0.01371 0.0
C548 C 0.4882 0.72427 0.03748 0.0
C549 C 0.44553 0.74496 0.0856 0.0
C550 C 0.49271 0.75131 0.03075 0.0
C551 C 0.51836 0.76166 0.03184 0.0
C552 C 0.54014 0.74506 0.03899 0.0
C553 C 0.53567 0.71782 0.04475 0.0
C554 C 0.50992 0.70754 0.04407 0.0
H555 H 0.43045 0.74447 0.10699 0.0
H556 H 0.46547 0.74273 0.09768 0.0
H557 H 0.44442 0.76474 0.07272 0.0
H558 H 0.47637 0.76446 0.02453 0.0
H559 H 0.52112 0.78267 0.02686 0.0
H560 H 0.71827 0.98404 0.58785 0.0
H561 H 0.7348 0.02955 0.5894 0.0
H562 H 0.81498 1.00084 0.58019 0.0
H563 H 0.79864 0.95497 0.57858 0.0
H564 H 0.77315 0.05216 0.63868 0.0
H565 H 0.8055 0.05623 0.49813 0.0
H566 H 0.78249 0.03156 0.51431 0.0
H567 H 0.81718 0.02853 0.5239 0.0
C568 C 0.73945 0.98729 0.58616 0.0
C569 C 0.75713 0.9658 0.58293 0.0
C570 C 0.74883 0.01335 0.58711 0.0
C571 C 0.77604 0.01852 0.58454 0.0
C572 C 0.79385 0.99721 0.58177 0.0
H573 H 0.86531 0.16527 0.57262 0.0
H574 H 0.8506 0.11913 0.57306 0.0
C575 C 0.78449 0.97104 0.58101 0.0
C576 C 0.78558 0.04631 0.58486 0.0
H577 H 0.81376 0.0941 0.53299 0.0
C578 C 0.78206 0.06139 0.61563 0.0
C579 C 0.79717 0.05816 0.55471 0.0
C580 C 0.80071 0.04294 0.52073 0.0
C581 C 0.79014 0.08804 0.61722 0.0
C582 C 0.8014 0.10007 0.58688 0.0
C583 C 0.80504 0.08488 0.55616 0.0
C584 C 0.80996 0.12826 0.58657 0.0
C585 C 0.78707 0.10286 0.65161 0.0
C586 C 0.79189 0.14883 0.59349 0.0
C587 C 0.80028 0.17533 0.5935 0.0
C588 C 0.82684 0.18173 0.58615 0.0
C589 C 0.84472 0.16108 0.57847 0.0
C590 C 0.83636 0.13465 0.57869 0.0
H591 H 0.78519 0.08906 0.67442 0.0
H592 H 0.80419 0.11624 0.65635 0.0
H593 H 0.76883 0.11513 0.65049 0.0
H594 H 0.77126 0.1444 0.59877 0.0
H595 H 0.78597 0.19076 0.59922 0.0
H596 H 0.05161 0.80268 0.5751 0.0
H597 H 0.00655 0.82048 0.5781 0.0
H598 H 0.97612 0.74171 0.59744 0.0
H599 H 0.02087 0.72367 0.59339 0.0
H600 H 0.94692 0.76705 0.54935 0.0
H601 H 0.96222 0.83281 0.66495 0.0
H602 H 0.98447 0.8397 0.6291 0.0
H603 H 0.98627 0.80827 0.65171 0.0
C604 C 0.03533 0.78917 0.58015 0.0
C605 C 0.03986 0.76177 0.58413 0.0
C606 C 0.0096 0.7994 0.58206 0.0
C607 C 0.988 0.78249 0.58862 0.0
C608 C 0.99249 0.75514 0.59247 0.0
H609 H 0.83114 0.83072 0.65622 0.0
H610 H 0.87592 0.81258 0.65139 0.0
C611 C 0.01811 0.74487 0.59018 0.0
C612 C 0.96058 0.79304 0.59068 0.0
H613 H 0.92125 0.83717 0.63458 0.0
C614 C 0.94128 0.78234 0.56805 0.0
C615 C 0.95317 0.81272 0.61543 0.0
C616 C 0.97254 0.82387 0.64192 0.0
C617 C 0.91482 0.79084 0.56936 0.0
C618 C 0.9076 0.81115 0.59329 0.0
C619 C 0.92686 0.82176 0.61605 0.0
C620 C 0.88009 0.82143 0.59565 0.0
C621 C 0.89478 0.77748 0.5457 0.0
C622 C 0.86756 0.83249 0.56595 0.0
C623 C 0.84183 0.84258 0.56853 0.0
C624 C 0.82833 0.84224 0.60105 0.0
C625 C 0.84098 0.83128 0.6308 0.0
C626 C 0.8666 0.82095 0.62809 0.0
H627 H 0.90168 0.75756 0.53707 0.0
H628 H 0.87539 0.77518 0.55925 0.0
H629 H 0.89177 0.78978 0.52167 0.0
H630 H 0.8778 0.83369 0.54085 0.0
H631 H 0.83273 0.8511 0.54519 0.0
H632 H 0.28229 0.02425 0.59339 0.0
H633 H 0.26471 0.97913 0.5953 0.0
H634 H 0.18562 0.00932 0.5799 0.0
H635 H 0.203 0.05486 0.5781 0.0
H636 H 0.22117 0.9591 0.64366 0.0
H637 H 0.20037 0.95156 0.49939 0.0
H638 H 0.22391 0.97511 0.51704 0.0
H639 H 0.18906 0.98073 0.5224 0.0
C640 C 0.26112 0.02142 0.59044 0.0
C641 C 0.24404 0.04322 0.58545 0.0
C642 C 0.25115 0.99559 0.59161 0.0
C643 C 0.22396 0.99096 0.58748 0.0
C644 C 0.20673 0.01257 0.58286 0.0
H645 H 0.13707 0.84273 0.56803 0.0
H646 H 0.15092 0.88917 0.56826 0.0
C647 C 0.21667 0.03854 0.58196 0.0
C648 C 0.21388 0.96339 0.58793 0.0
H649 H 0.19065 0.91416 0.53442 0.0
C650 C 0.21439 0.94923 0.61987 0.0
C651 C 0.20503 0.95075 0.55681 0.0
C652 C 0.2046 0.96514 0.52181 0.0
C653 C 0.20612 0.92263 0.62157 0.0
C654 C 0.19789 0.90969 0.59023 0.0
C655 C 0.1971 0.92404 0.55836 0.0
C656 C 0.18983 0.88133 0.58994 0.0
C657 C 0.20583 0.90886 0.65703 0.0
C658 C 0.20728 0.86137 0.60146 0.0
C659 C 0.19934 0.83473 0.60164 0.0
C660 C 0.17392 0.82756 0.58982 0.0
C661 C 0.15678 0.84755 0.5774 0.0
C662 C 0.16465 0.87414 0.5775 0.0
H663 H 0.20505 0.92335 0.67912 0.0
H664 H 0.18864 0.8952 0.65938 0.0
H665 H 0.22426 0.89705 0.66005 0.0
H666 H 0.22707 0.86637 0.61027 0.0
H667 H 0.2131 0.81981 0.61106 0.0
H668 H 0.94991 0.2058 0.59899 0.0
H669 H 0.99459 0.18709 0.6026 0.0
H670 H 0.02752 0.26212 0.56923 0.0
H671 H 0.98311 0.28117 0.56648 0.0
H672 H 0.03176 0.18082 0.55178 0.0
H673 H 0.07084 0.24709 0.65644 0.0
H674 H 0.03603 0.24522 0.64587 0.0
H675 H 0.05804 0.26485 0.61902 0.0
C676 C 0.96667 0.21836 0.5926 0.0
C677 C 0.96293 0.24504 0.58273 0.0
C678 C 0.99218 0.20764 0.59466 0.0
C679 C 0.01443 0.22335 0.58684 0.0
C680 C 0.01072 0.24983 0.57635 0.0
H681 H 0.18232 0.18651 0.56443 0.0
H682 H 0.13823 0.2069 0.56081 0.0
C683 C 0.98527 0.26064 0.57459 0.0
C684 C 0.04145 0.21182 0.58876 0.0
H685 H 0.10232 0.21973 0.62698 0.0
C686 C 0.04713 0.18926 0.56836 0.0
C687 C 0.0615 0.22286 0.61044 0.0
C688 C 0.05628 0.24618 0.63445 0.0
C689 C 0.07239 0.17762 0.56877 0.0
C690 C 0.09241 0.18883 0.59011 0.0
C691 C 0.08686 0.21139 0.61044 0.0
C692 C 0.11902 0.17678 0.59255 0.0
C693 C 0.07769 0.15351 0.54626 0.0
C694 C 0.12268 0.15332 0.61192 0.0
C695 C 0.14777 0.14176 0.61429 0.0
C696 C 0.16963 0.15341 0.59716 0.0
C697 C 0.16588 0.17704 0.57788 0.0
C698 C 0.14076 0.18871 0.57578 0.0
H699 H 0.06128 0.1495 0.52744 0.0
H700 H 0.09638 0.15613 0.53114 0.0
H701 H 0.08016 0.13587 0.5636 0.0
H702 H 0.10609 0.14396 0.62519 0.0
H703 H 0.14994 0.12355 0.62931 0.0
H704 H 0.36826 0.24861 0.19282 0.0
H705 H 0.35352 0.24107 0.2539 0.0
H706 H 0.30149 0.17869 0.21808 0.0
H707 H 0.31583 0.18662 0.15692 0.0
H708 H 0.27893 0.21197 0.27116 0.0
H709 H 0.37885 0.17464 0.3082 0.0
H710 H 0.37826 0.20737 0.2892 0.0
H711 H 0.36882 0.17928 0.26283 0.0
C712 C 0.35334 0.23362 0.19804 0.0
C713 C 0.3433 0.218 0.17043 0.0
C714 C 0.34509 0.2292 0.23287 0.0
C715 C 0.32674 0.20901 0.24059 0.0
C716 C 0.31575 0.19428 0.21274 0.0
H717 H 0.30357 0.12098 0.43261 0.0
H718 H 0.31179 0.13711 0.37262 0.0
C719 C 0.324 0.19872 0.17792 0.0
C720 C 0.32015 0.20215 0.27775 0.0
H721 H 0.34702 0.17709 0.35365 0.0
C722 C 0.2938 0.20447 0.28931 0.0
C723 C 0.33955 0.19204 0.30119 0.0
C724 C 0.36792 0.18792 0.28979 0.0
C725 C 0.28635 0.19692 0.32374 0.0
C726 C 0.30582 0.18704 0.34724 0.0
C727 C 0.33216 0.18485 0.33567 0.0
C728 C 0.29924 0.17739 0.38331 0.0
C729 C 0.2576 0.19879 0.33435 0.0
C730 C 0.2893 0.19465 0.4093 0.0
C731 C 0.28466 0.18543 0.44375 0.0
C732 C 0.29007 0.15889 0.4527 0.0
C733 C 0.29957 0.14162 0.42651 0.0
C734 C 0.30418 0.15079 0.39222 0.0
H735 H 0.24439 0.20139 0.3111 0.0
H736 H 0.25136 0.18072 0.34904 0.0
H737 H 0.25488 0.21613 0.35203 0.0
H738 H 0.28576 0.21537 0.40317 0.0
H739 H 0.27755 0.19916 0.4636 0.0
H740 H 0.7727 0.3084 0.16021 0.0
H741 H 0.77912 0.29184 0.22091 0.0
H742 H 0.80993 0.36828 0.2517 0.0
H743 H 0.80315 0.38488 0.19162 0.0
H744 H 0.82748 0.28934 0.25839 0.0
H745 H 0.75473 0.35246 0.32854 0.0
H746 H 0.75402 0.34775 0.28123 0.0
H747 H 0.77668 0.37114 0.30063 0.0
C748 C 0.7805 0.32168 0.18016 0.0
C749 C 0.78752 0.34786 0.17132 0.0
C750 C 0.78424 0.31222 0.21469 0.0
C751 C 0.79468 0.32894 0.24094 0.0
C752 C 0.80141 0.35516 0.23209 0.0
H753 H 0.88354 0.30391 0.42918 0.0
H754 H 0.86641 0.3109 0.36941 0.0
C755 C 0.7978 0.36454 0.19767 0.0
C756 C 0.80002 0.31884 0.27716 0.0
H757 H 0.78838 0.33206 0.36433 0.0
C758 C 0.81864 0.29839 0.28155 0.0
C759 C 0.78825 0.33043 0.30738 0.0
C760 C 0.76711 0.35149 0.30429 0.0
C761 C 0.82681 0.29019 0.31537 0.0
C762 C 0.81628 0.30298 0.34554 0.0
C763 C 0.79664 0.32244 0.34119 0.0
C764 C 0.82663 0.29768 0.38163 0.0
C765 C 0.84691 0.26814 0.31848 0.0
C766 C 0.80985 0.28838 0.4086 0.0
C767 C 0.81961 0.28454 0.44293 0.0
C768 C 0.8462 0.29028 0.45085 0.0
C769 C 0.86291 0.29952 0.42382 0.0
C770 C 0.85322 0.30324 0.38959 0.0
H771 H 0.84697 0.25535 0.29459 0.0
H772 H 0.86698 0.27691 0.32129 0.0
H773 H 0.84297 0.25555 0.34204 0.0
H774 H 0.7892 0.28419 0.40309 0.0
H775 H 0.8063 0.2776 0.46342 0.0
H776 H 0.7274 0.80893 0.46253 0.0
H777 H 0.72082 0.79236 0.402 0.0
H778 H 0.69318 0.86977 0.36977 0.0
H779 H 0.70022 0.88639 0.42972 0.0
H780 H 0.67329 0.79101 0.36399 0.0
H781 H 0.74795 0.852 0.29376 0.0
H782 H 0.7481 0.84777 0.34118 0.0
H783 H 0.72618 0.87147 0.32083 0.0
C784 C 0.72029 0.82241 0.4423 0.0
C785 C 0.71432 0.84891 0.45067 0.0
C786 C 0.71645 0.81295 0.40785 0.0
C787 C 0.70687 0.82993 0.38124 0.0
C788 C 0.70107 0.85644 0.38966 0.0
H789 H 0.61889 0.80476 0.19219 0.0
H790 H 0.63561 0.81208 0.25203 0.0
C791 C 0.70483 0.86584 0.42399 0.0
C792 C 0.70148 0.81984 0.34509 0.0
H793 H 0.71407 0.83218 0.25786 0.0
C794 C 0.68248 0.79973 0.3408 0.0
C795 C 0.71372 0.83097 0.31483 0.0
C796 C 0.73532 0.85156 0.31781 0.0
C797 C 0.67444 0.79142 0.30702 0.0
C798 C 0.68545 0.80378 0.27677 0.0
C799 C 0.70543 0.82291 0.28106 0.0
C800 C 0.67535 0.79836 0.24063 0.0
C801 C 0.65398 0.76969 0.30404 0.0
C802 C 0.69225 0.7887 0.21409 0.0
C803 C 0.68273 0.7847 0.17969 0.0
C804 C 0.65626 0.79063 0.17129 0.0
C805 C 0.63942 0.80023 0.19791 0.0
C806 C 0.64888 0.80414 0.23219 0.0
H807 H 0.65358 0.75704 0.32813 0.0
H808 H 0.63408 0.77878 0.30091 0.0
H809 H 0.65783 0.7569 0.28073 0.0
H810 H 0.7128 0.78434 0.21997 0.0
H811 H 0.69613 0.77748 0.15953 0.0
H812 H 0.136 0.74911 0.43134 0.0
H813 H 0.1505 0.74106 0.37029 0.0
H814 H 0.19863 0.67554 0.40612 0.0
H815 H 0.18449 0.6839 0.46721 0.0
H816 H 0.22338 0.70836 0.35361 0.0
H817 H 0.12198 0.67625 0.31511 0.0
H818 H 0.12416 0.70867 0.33465 0.0
H819 H 0.13198 0.67983 0.36064 0.0
C820 C 0.15 0.73328 0.42611 0.0
C821 C 0.15899 0.71693 0.4537 0.0
C822 C 0.15812 0.72859 0.39131 0.0
C823 C 0.1753 0.70743 0.38362 0.0
C824 C 0.18527 0.69189 0.41145 0.0
H825 H 0.19703 0.61939 0.19167 0.0
H826 H 0.18854 0.63558 0.2515 0.0
C827 C 0.17714 0.69658 0.44623 0.0
C828 C 0.18179 0.70052 0.34649 0.0
H829 H 0.15427 0.6772 0.27013 0.0
C830 C 0.20829 0.70169 0.33524 0.0
C831 C 0.16208 0.6915 0.32276 0.0
C832 C 0.13347 0.68872 0.33383 0.0
C833 C 0.2156 0.69404 0.30085 0.0
C834 C 0.19584 0.68521 0.27708 0.0
C835 C 0.16935 0.68416 0.28833 0.0
C836 C 0.20224 0.67555 0.24102 0.0
C837 C 0.24446 0.69467 0.29052 0.0
C838 C 0.21281 0.69264 0.21521 0.0
C839 C 0.21755 0.68341 0.18085 0.0
C840 C 0.21165 0.65702 0.1718 0.0
C841 C 0.20141 0.63992 0.19781 0.0
C842 C 0.19667 0.64912 0.23201 0.0
H843 H 0.25765 0.69677 0.31387 0.0
H844 H 0.24999 0.67632 0.27605 0.0
H845 H 0.24801 0.71184 0.27269 0.0
H846 H 0.21687 0.71323 0.22143 0.0
H847 H 0.22521 0.69703 0.16115 0.0
H848 H 0.63006 0.84008 0.95221 0.0
H849 H 0.6458 0.85126 0.89296 0.0
H850 H 0.67536 0.77155 0.88008 0.0
H851 H 0.65957 0.76003 0.93934 0.0
H852 H 0.69789 0.84815 0.86391 0.0
H853 H 0.62626 0.78305 0.79356 0.0
H854 H 0.62226 0.79211 0.8394 0.0
H855 H 0.6459 0.76713 0.82711 0.0
C856 C 0.63996 0.82488 0.9369 0.0
C857 C 0.64337 0.79907 0.95057 0.0
C858 C 0.64898 0.83135 0.90302 0.0
C859 C 0.66142 0.81215 0.88195 0.0
C860 C 0.66542 0.78655 0.8957 0.0
H861 H 0.74476 0.84651 0.68361 0.0
H862 H 0.73346 0.83073 0.74298 0.0
C863 C 0.65648 0.78005 0.92967 0.0
C864 C 0.66995 0.819 0.8455 0.0
H865 H 0.65762 0.80583 0.75847 0.0
C866 C 0.68921 0.83883 0.84084 0.0
C867 C 0.65836 0.80698 0.81547 0.0
C868 C 0.63689 0.78628 0.81891 0.0
C869 C 0.69718 0.84698 0.80691 0.0
C870 C 0.68574 0.83481 0.77688 0.0
C871 C 0.66651 0.81497 0.78155 0.0
C872 C 0.69253 0.84334 0.7404 0.0
C873 C 0.71721 0.86909 0.80344 0.0
C874 C 0.67309 0.85502 0.7189 0.0
C875 C 0.67943 0.86401 0.68495 0.0
C876 C 0.70535 0.86135 0.67165 0.0
C877 C 0.72464 0.849 0.69299 0.0
C878 C 0.71827 0.84008 0.72703 0.0
H879 H 0.71994 0.88 0.82868 0.0
H880 H 0.73663 0.86057 0.79566 0.0
H881 H 0.7111 0.88343 0.78265 0.0
H882 H 0.65307 0.85762 0.72865 0.0
H883 H 0.66403 0.8733 0.66931 0.0
H884 H 0.16677 0.74419 0.67937 0.0
H885 H 0.18379 0.73188 0.73778 0.0
H886 H 0.13898 0.65901 0.73413 0.0
H887 H 0.12239 0.67078 0.67565 0.0
H888 H 0.1571 0.7229 0.79912 0.0
H889 H 0.21139 0.63178 0.76107 0.0
H890 H 0.19945 0.65541 0.72887 0.0
H891 H 0.17737 0.63099 0.74743 0.0
C892 C 0.16069 0.72544 0.69087 0.0
C893 C 0.14332 0.70841 0.67263 0.0
C894 C 0.17043 0.71844 0.72429 0.0
C895 C 0.16306 0.69429 0.74011 0.0
C896 C 0.14554 0.6774 0.72211 0.0
H897 H 0.16662 0.62804 0.94882 0.0
H898 H 0.15611 0.64425 0.8895 0.0
C899 C 0.13593 0.68427 0.68867 0.0
C900 C 0.17279 0.68712 0.77599 0.0
H901 H 0.20313 0.63765 0.82298 0.0
C902 C 0.16744 0.70441 0.80424 0.0
C903 C 0.18647 0.66306 0.7827 0.0
C904 C 0.19426 0.64438 0.75335 0.0
C905 C 0.17452 0.69778 0.83909 0.0
C906 C 0.18718 0.6733 0.84581 0.0
C907 C 0.19322 0.65634 0.81762 0.0
C908 C 0.19345 0.66453 0.88219 0.0
C909 C 0.16803 0.71661 0.86877 0.0
C910 C 0.21793 0.67072 0.89765 0.0
C911 C 0.22408 0.66148 0.93162 0.0
C912 C 0.20582 0.64585 0.95067 0.0
C913 C 0.18116 0.64003 0.93506 0.0
C914 C 0.17508 0.64924 0.90113 0.0
H915 H 0.15863 0.73521 0.85913 0.0
H916 H 0.15439 0.70675 0.88773 0.0
H917 H 0.18641 0.72173 0.8834 0.0
H918 H 0.23234 0.6825 0.8833 0.0
H919 H 0.24323 0.66637 0.94277 0.0
H920 H 0.26108 0.16523 0.6834 0.0
H921 H 0.27312 0.182 0.74192 0.0
H922 H 0.35053 0.14658 0.73194 0.0
H923 H 0.33888 0.13001 0.67339 0.0
H924 H 0.28828 0.1529 0.80126 0.0
H925 H 0.36786 0.22273 0.76129 0.0
H926 H 0.34445 0.20906 0.73014 0.0
H927 H 0.37236 0.18968 0.74463 0.0
C928 C 0.28075 0.16116 0.69349 0.0
C929 C 0.29903 0.14633 0.67351 0.0
C930 C 0.28758 0.17075 0.72699 0.0
C931 C 0.31285 0.16588 0.7411 0.0
C932 C 0.33111 0.15108 0.72129 0.0
H933 H 0.36942 0.16695 0.95576 0.0
H934 H 0.35328 0.15605 0.89668 0.0
C935 C 0.32433 0.14149 0.68783 0.0
C936 C 0.31982 0.17532 0.7771 0.0
H937 H 0.36486 0.21253 0.82282 0.0
C938 C 0.30489 0.1661 0.80595 0.0
C939 C 0.34132 0.19279 0.78318 0.0
C940 C 0.35728 0.20437 0.75316 0.0
C941 C 0.31143 0.17319 0.84078 0.0
C942 C 0.3336 0.18973 0.84691 0.0
C943 C 0.34801 0.19966 0.81804 0.0
C944 C 0.34258 0.1964 0.88317 0.0
C945 C 0.29459 0.16295 0.87079 0.0
C946 C 0.34217 0.22278 0.89505 0.0
C947 C 0.35134 0.22912 0.92894 0.0
C948 C 0.36142 0.20921 0.95141 0.0
C949 C 0.36179 0.1828 0.93928 0.0
C950 C 0.35244 0.17648 0.90554 0.0
H951 H 0.27495 0.15588 0.86141 0.0
H952 H 0.30486 0.14603 0.8837 0.0
H953 H 0.29149 0.17862 0.89099 0.0
H954 H 0.33475 0.23846 0.87809 0.0
H955 H 0.35084 0.24967 0.93731 0.0
H956 H 0.87739 0.33947 0.67152 0.0
H957 H 0.86164 0.3509 0.73063 0.0
H958 H 0.82405 0.27429 0.73965 0.0
H959 H 0.83995 0.26249 0.68064 0.0
H960 H 0.80987 0.35319 0.75787 0.0
H961 H 0.87084 0.27797 0.82842 0.0
H962 H 0.87679 0.28708 0.78293 0.0
H963 H 0.85001 0.26506 0.79397 0.0
C964 C 0.86573 0.32502 0.68596 0.0
C965 C 0.86012 0.29996 0.6713 0.0
C966 C 0.85672 0.33162 0.71978 0.0
C967 C 0.84202 0.31331 0.73977 0.0
C968 C 0.83581 0.28854 0.72497 0.0
H969 H 0.75723 0.35049 0.93589 0.0
H970 H 0.76862 0.33521 0.87634 0.0
C971 C 0.84482 0.28189 0.69112 0.0
C972 C 0.83334 0.32022 0.77614 0.0
H973 H 0.841 0.3031 0.86304 0.0
C974 C 0.81657 0.34218 0.78086 0.0
C975 C 0.84233 0.30598 0.80614 0.0
C976 C 0.86117 0.28284 0.80282 0.0
C977 C 0.80853 0.35027 0.81474 0.0
C978 C 0.81734 0.33588 0.84467 0.0
C979 C 0.8341 0.31394 0.83999 0.0
C980 C 0.8104 0.34414 0.88115 0.0
C981 C 0.79126 0.37456 0.81841 0.0
C982 C 0.8302 0.35365 0.90384 0.0
C983 C 0.82379 0.36243 0.93781 0.0
C984 C 0.79743 0.36165 0.94998 0.0
C985 C 0.77771 0.35144 0.92742 0.0
C986 C 0.78415 0.34281 0.89331 0.0
H987 H 0.79018 0.38617 0.79345 0.0
H988 H 0.77087 0.36833 0.82567 0.0
H989 H 0.79882 0.38766 0.83972 0.0
H990 H 0.85059 0.35474 0.895 0.0
H991 H 0.83952 0.37004 0.95441 0.0
loop_
_geom_bond_atom_site_label_1
_geom_bond_atom_site_label_2
_geom_bond_distance
_geom_bond_site_symmetry_2
_ccdc_geom_bond_type
Co0 O3 1.970 1_554 S
Co0 N17 1.989 . S
Co0 O25 1.967 . S
Co0 O32 1.920 . S
Co1 O4 1.966 1_554 S
Co1 N10 2.022 . S
Co1 N18 1.993 . S
Co1 O26 1.941 . S
C2 O3 1.258 . S
C2 O4 1.263 . S
O3 Co0 1.970 1_556 S
O3 C2 1.258 . S
O4 Co1 1.966 1_556 S
O4 C2 1.263 . S
C5 O6 1.235 . S
C5 O32 1.289 . S
O6 C5 1.235 . S
C7 C9 1.400 . S
C7 N10 1.351 . S
C7 C12 1.501 1_554 S
C8 C9 1.387 . S
C8 N11 1.341 . S
C9 C7 1.400 . S
C9 C8 1.387 . S
N10 Co1 2.022 . S
N10 C7 1.351 . S
N10 N11 1.365 . S
N11 C8 1.341 . S
N11 N10 1.365 . S
N11 H31 0.862 . S
C12 C7 1.501 1_556 S
C12 H13 0.961 . S
C12 H14 0.963 . S
C12 H15 0.960 . S
H13 C12 0.961 . S
H14 C12 0.963 . S
H15 C12 0.960 . S
C16 N17 1.342 . S
C16 C20 1.401 . S
C16 C21 1.499 . S
N17 Co0 1.989 . S
N17 C16 1.342 . S
N17 N18 1.388 . S
N18 Co1 1.993 . S
N18 N17 1.388 . S
N18 C19 1.346 . S
C19 N18 1.346 . S
C19 C20 1.396 . S
C19 C29 1.510 . S
C20 C16 1.401 . S
C20 C19 1.396 . S
C21 C16 1.499 . S
C21 H22 0.959 . S
C21 H23 0.960 . S
C21 H24 0.961 . S
H22 C21 0.959 . S
H23 C21 0.960 . S
H24 C21 0.961 . S
O25 Co0 1.967 . S
O25 C33 1.258 . S
O26 Co1 1.941 . S
O26 C33 1.266 . S
H27 C29 0.959 . S
H28 C29 0.961 . S
C29 C19 1.510 . S
C29 H27 0.959 . S
C29 H28 0.961 . S
C29 H30 0.960 . S
H30 C29 0.960 . S
H31 N11 0.862 . S
O32 Co0 1.920 . S
O32 C5 1.289 . S
C33 O25 1.258 . S
C33 O26 1.266 . S
Co34 O37 1.970 1_554 S
Co34 N51 1.989 . S
Co34 O59 1.967 . S
Co34 O66 1.920 . S
Co35 O38 1.966 1_554 S
Co35 N44 2.022 . S
Co35 N52 1.993 . S
Co35 O60 1.941 . S
C36 O37 1.258 . S
C36 O38 1.263 . S
O37 Co34 1.970 1_556 S
O37 C36 1.258 . S
O38 Co35 1.966 1_556 S
O38 C36 1.263 . S
C39 O40 1.235 . S
C39 O66 1.289 . S
O40 C39 1.235 . S
C41 C43 1.400 . S
C41 N44 1.351 . S
C41 C46 1.501 1_554 S
C42 C43 1.387 . S
C42 N45 1.341 . S
C43 C41 1.400 . S
C43 C42 1.387 . S
N44 Co35 2.022 . S
N44 C41 1.351 . S
N44 N45 1.365 . S
N45 C42 1.341 . S
N45 N44 1.365 . S
N45 H65 0.862 . S
C46 C41 1.501 1_556 S
C46 H47 0.961 . S
C46 H48 0.963 . S
C46 H49 0.960 . S
H47 C46 0.961 . S
H48 C46 0.963 . S
H49 C46 0.960 . S
C50 N51 1.342 . S
C50 C54 1.401 . S
C50 C55 1.499 . S
N51 Co34 1.989 . S
N51 C50 1.342 . S
N51 N52 1.388 . S
N52 Co35 1.993 . S
N52 N51 1.388 . S
N52 C53 1.346 . S
C53 N52 1.346 . S
C53 C54 1.396 . S
C53 C63 1.510 . S
C54 C50 1.401 . S
C54 C53 1.396 . S
C55 C50 1.499 . S
C55 H56 0.959 . S
C55 H57 0.960 . S
C55 H58 0.961 . S
H56 C55 0.959 . S
H57 C55 0.960 . S
H58 C55 0.961 . S
O59 Co34 1.967 . S
O59 C67 1.258 . S
O60 Co35 1.941 . S
O60 C67 1.266 . S
H61 C63 0.959 . S
H62 C63 0.961 . S
C63 C53 1.510 . S
C63 H61 0.959 . S
C63 H62 0.961 . S
C63 H64 0.960 . S
H64 C63 0.960 . S
H65 N45 0.862 . S
O66 Co34 1.920 . S
O66 C39 1.289 . S
C67 O59 1.258 . S
C67 O60 1.266 . S
Co68 O71 1.970 1_554 S
Co68 N85 1.989 . S
Co68 O93 1.967 . S
Co68 O100 1.920 . S
Co69 O72 1.966 1_554 S
Co69 N78 2.022 . S
Co69 N86 1.993 . S
Co69 O94 1.941 . S
C70 O71 1.258 . S
C70 O72 1.263 . S
O71 Co68 1.970 1_556 S
O71 C70 1.258 . S
O72 Co69 1.966 1_556 S
O72 C70 1.263 . S
C73 O74 1.235 . S
C73 O100 1.289 . S
O74 C73 1.235 . S
C75 C77 1.400 . S
C75 N78 1.351 . S
C75 C80 1.501 1_554 S
C76 C77 1.387 . S
C76 N79 1.341 . S
C77 C75 1.400 . S
C77 C76 1.387 . S
N78 Co69 2.022 . S
N78 C75 1.351 . S
N78 N79 1.365 . S
N79 C76 1.341 . S
N79 N78 1.365 . S
N79 H99 0.862 . S
C80 C75 1.501 1_556 S
C80 H81 0.961 . S
C80 H82 0.963 . S
C80 H83 0.960 . S
H81 C80 0.961 . S
H82 C80 0.963 . S
H83 C80 0.960 . S
C84 N85 1.342 . S
C84 C88 1.401 . S
C84 C89 1.499 . S
N85 Co68 1.989 . S
N85 C84 1.342 . S
N85 N86 1.388 . S
N86 Co69 1.993 . S
N86 N85 1.388 . S
N86 C87 1.346 . S
C87 N86 1.346 . S
C87 C88 1.396 . S
C87 C97 1.510 . S
C88 C84 1.401 . S
C88 C87 1.396 . S
C89 C84 1.499 . S
C89 H90 0.959 . S
C89 H91 0.960 . S
C89 H92 0.961 . S
H90 C89 0.959 . S
H91 C89 0.960 . S
H92 C89 0.961 . S
O93 Co68 1.967 . S
O93 C101 1.258 . S
O94 Co69 1.941 . S
O94 C101 1.266 . S
H95 C97 0.959 . S
H96 C97 0.961 . S
C97 C87 1.510 . S
C97 H95 0.959 . S
C97 H96 0.961 . S
C97 H98 0.960 . S
H98 C97 0.960 . S
H99 N79 0.862 . S
O100 Co68 1.920 . S
O100 C73 1.289 . S
C101 O93 1.258 . S
C101 O94 1.266 . S
Co102 O105 1.970 1_554 S
Co102 N119 1.989 . S
Co102 O127 1.967 . S
Co102 O134 1.920 . S
Co103 O106 1.966 1_554 S
Co103 N112 2.022 . S
Co103 N120 1.993 . S
Co103 O128 1.941 . S
C104 O105 1.258 . S
C104 O106 1.263 . S
O105 Co102 1.970 1_556 S
O105 C104 1.258 . S
O106 Co103 1.966 1_556 S
O106 C104 1.263 . S
C107 O108 1.235 . S
C107 O134 1.289 . S
O108 C107 1.235 . S
C109 C111 1.400 . S
C109 N112 1.351 . S
C109 C114 1.501 1_554 S
C110 C111 1.387 . S
C110 N113 1.341 . S
C111 C109 1.400 . S
C111 C110 1.387 . S
N112 Co103 2.022 . S
N112 C109 1.351 . S
N112 N113 1.365 . S
N113 C110 1.341 . S
N113 N112 1.365 . S
N113 H133 0.862 . S
C114 C109 1.501 1_556 S
C114 H115 0.961 . S
C114 H116 0.963 . S
C114 H117 0.960 . S
H115 C114 0.961 . S
H116 C114 0.963 . S
H117 C114 0.960 . S
C118 N119 1.342 . S
C118 C122 1.401 . S
C118 C123 1.499 . S
N119 Co102 1.989 . S
N119 C118 1.342 . S
N119 N120 1.388 . S
N120 Co103 1.993 . S
N120 N119 1.388 . S
N120 C121 1.346 . S
C121 N120 1.346 . S
C121 C122 1.396 . S
C121 C131 1.510 . S
C122 C118 1.401 . S
C122 C121 1.396 . S
C123 C118 1.499 . S
C123 H124 0.959 . S
C123 H125 0.960 . S
C123 H126 0.961 . S
H124 C123 0.959 . S
H125 C123 0.960 . S
H126 C123 0.961 . S
O127 Co102 1.967 . S
O127 C135 1.258 . S
O128 Co103 1.941 . S
O128 C135 1.266 . S
H129 C131 0.959 . S
H130 C131 0.961 . S
C131 C121 1.510 . S
C131 H129 0.959 . S
C131 H130 0.961 . S
C131 H132 0.960 . S
H132 C131 0.960 . S
H133 N113 0.862 . S
O134 Co102 1.920 . S
O134 C107 1.289 . S
C135 O127 1.258 . S
C135 O128 1.266 . S
Co136 O139 1.970 . S
Co136 N153 1.989 . S
Co136 O161 1.967 . S
Co136 O168 1.920 . S
Co137 O140 1.966 . S
Co137 N146 2.022 . S
Co137 N154 1.993 . S
Co137 O162 1.941 . S
C138 O139 1.258 . S
C138 O140 1.263 . S
O139 Co136 1.970 . S
O139 C138 1.258 . S
O140 Co137 1.966 . S
O140 C138 1.263 . S
C141 O142 1.235 . S
C141 O168 1.289 . S
O142 C141 1.235 . S
C143 C145 1.400 . S
C143 N146 1.351 . S
C143 C148 1.501 . S
C144 C145 1.387 . S
C144 N147 1.341 . S
C145 C143 1.400 . S
C145 C144 1.387 . S
N146 Co137 2.022 . S
N146 C143 1.351 . S
N146 N147 1.365 . S
N147 C144 1.341 . S
N147 N146 1.365 . S
N147 H167 0.862 . S
C148 C143 1.501 . S
C148 H149 0.961 . S
C148 H150 0.961 . S
C148 H151 0.960 . S
H149 C148 0.961 . S
H150 C148 0.961 . S
H151 C148 0.960 . S
C152 N153 1.342 . S
C152 C156 1.401 . S
C152 C157 1.499 . S
N153 Co136 1.989 . S
N153 C152 1.342 . S
N153 N154 1.388 . S
N154 Co137 1.993 . S
N154 N153 1.388 . S
N154 C155 1.346 . S
C155 N154 1.346 . S
C155 C156 1.396 . S
C155 C165 1.510 . S
C156 C152 1.401 . S
C156 C155 1.396 . S
C157 C152 1.499 . S
C157 H158 0.959 . S
C157 H159 0.960 . S
C157 H160 0.961 . S
H158 C157 0.959 . S
H159 C157 0.960 . S
H160 C157 0.961 . S
O161 Co136 1.967 . S
O161 C169 1.258 . S
O162 Co137 1.941 . S
O162 C169 1.266 . S
H163 C165 0.959 . S
H164 C165 0.961 . S
C165 C155 1.510 . S
C165 H163 0.959 . S
C165 H164 0.961 . S
C165 H166 0.960 . S
H166 C165 0.960 . S
H167 N147 0.862 . S
O168 Co136 1.920 . S
O168 C141 1.289 . S
C169 O161 1.258 . S
C169 O162 1.266 . S
Co170 O173 1.970 . S
Co170 N187 1.989 . S
Co170 O195 1.967 . S
Co170 O202 1.920 . S
Co171 O174 1.966 . S
Co171 N180 2.022 . S
Co171 N188 1.993 . S
Co171 O196 1.941 . S
C172 O173 1.258 . S
C172 O174 1.263 . S
O173 Co170 1.970 . S
O173 C172 1.258 . S
O174 Co171 1.966 . S
O174 C172 1.263 . S
C175 O176 1.235 . S
C175 O202 1.289 . S
O176 C175 1.235 . S
C177 C179 1.400 . S
C177 N180 1.351 . S
C177 C182 1.501 . S
C178 C179 1.387 . S
C178 N181 1.341 . S
C179 C177 1.400 . S
C179 C178 1.387 . S
N180 Co171 2.022 . S
N180 C177 1.351 . S
N180 N181 1.365 . S
N181 C178 1.341 . S
N181 N180 1.365 . S
N181 H201 0.862 . S
C182 C177 1.501 . S
C182 H183 0.961 . S
C182 H184 0.961 . S
C182 H185 0.960 . S
H183 C182 0.961 . S
H184 C182 0.961 . S
H185 C182 0.960 . S
C186 N187 1.342 . S
C186 C190 1.401 . S
C186 C191 1.499 . S
N187 Co170 1.989 . S
N187 C186 1.342 . S
N187 N188 1.388 . S
N188 Co171 1.993 . S
N188 N187 1.388 . S
N188 C189 1.346 . S
C189 N188 1.346 . S
C189 C190 1.396 . S
C189 C199 1.510 . S
C190 C186 1.401 . S
C190 C189 1.396 . S
C191 C186 1.499 . S
C191 H192 0.959 . S
C191 H193 0.960 . S
C191 H194 0.961 . S
H192 C191 0.959 . S
H193 C191 0.960 . S
H194 C191 0.961 . S
O195 Co170 1.967 . S
O195 C203 1.258 . S
O196 Co171 1.941 . S
O196 C203 1.266 . S
H197 C199 0.959 . S
H198 C199 0.961 . S
C199 C189 1.510 . S
C199 H197 0.959 . S
C199 H198 0.961 . S
C199 H200 0.960 . S
H200 C199 0.960 . S
H201 N181 0.862 . S
O202 Co170 1.920 . S
O202 C175 1.289 . S
C203 O195 1.258 . S
C203 O196 1.266 . S
Co204 O207 1.970 . S
Co204 N221 1.989 . S
Co204 O229 1.967 . S
Co204 O236 1.920 . S
Co205 O208 1.966 . S
Co205 N214 2.022 . S
Co205 N222 1.993 . S
Co205 O230 1.941 . S
C206 O207 1.258 . S
C206 O208 1.263 . S
O207 Co204 1.970 . S
O207 C206 1.258 . S
O208 Co205 1.966 . S
O208 C206 1.263 . S
C209 O210 1.235 . S
C209 O236 1.289 . S
O210 C209 1.235 . S
C211 C213 1.400 . S
C211 N214 1.351 . S
C211 C216 1.501 . S
C212 C213 1.387 . S
C212 N215 1.341 . S
C213 C211 1.400 . S
C213 C212 1.387 . S
N214 Co205 2.022 . S
N214 C211 1.351 . S
N214 N215 1.365 . S
N215 C212 1.341 . S
N215 N214 1.365 . S
N215 H235 0.862 . S
C216 C211 1.501 . S
C216 H217 0.961 . S
C216 H218 0.961 . S
C216 H219 0.960 . S
H217 C216 0.961 . S
H218 C216 0.961 . S
H219 C216 0.960 . S
C220 N221 1.342 . S
C220 C224 1.401 . S
C220 C225 1.499 . S
N221 Co204 1.989 . S
N221 C220 1.342 . S
N221 N222 1.388 . S
N222 Co205 1.993 . S
N222 N221 1.388 . S
N222 C223 1.346 . S
C223 N222 1.346 . S
C223 C224 1.396 . S
C223 C233 1.510 . S
C224 C220 1.401 . S
C224 C223 1.396 . S
C225 C220 1.499 . S
C225 H226 0.959 . S
C225 H227 0.960 . S
C225 H228 0.961 . S
H226 C225 0.959 . S
H227 C225 0.960 . S
H228 C225 0.961 . S
O229 Co204 1.967 . S
O229 C237 1.258 . S
O230 Co205 1.941 . S
O230 C237 1.266 . S
H231 C233 0.959 . S
H232 C233 0.961 . S
C233 C223 1.510 . S
C233 H231 0.959 . S
C233 H232 0.961 . S
C233 H234 0.960 . S
H234 C233 0.960 . S
H235 N215 0.862 . S
O236 Co204 1.920 . S
O236 C209 1.289 . S
C237 O229 1.258 . S
C237 O230 1.266 . S
Co238 O241 1.970 . S
Co238 N255 1.989 . S
Co238 O263 1.967 . S
Co238 O270 1.920 . S
Co239 O242 1.966 . S
Co239 N248 2.022 . S
Co239 N256 1.993 . S
Co239 O264 1.941 . S
C240 O241 1.258 . S
C240 O242 1.263 . S
O241 Co238 1.970 . S
O241 C240 1.258 . S
O242 Co239 1.966 . S
O242 C240 1.263 . S
C243 O244 1.235 . S
C243 O270 1.289 . S
O244 C243 1.235 . S
C245 C247 1.400 . S
C245 N248 1.351 . S
C245 C250 1.501 . S
C246 C247 1.387 . S
C246 N249 1.341 . S
C247 C245 1.400 . S
C247 C246 1.387 . S
N248 Co239 2.022 . S
N248 C245 1.351 . S
N248 N249 1.365 . S
N249 C246 1.341 . S
N249 N248 1.365 . S
N249 H269 0.862 . S
C250 C245 1.501 . S
C250 H251 0.961 . S
C250 H252 0.961 . S
C250 H253 0.960 . S
H251 C250 0.961 . S
H252 C250 0.961 . S
H253 C250 0.960 . S
C254 N255 1.342 . S
C254 C258 1.401 . S
C254 C259 1.499 . S
N255 Co238 1.989 . S
N255 C254 1.342 . S
N255 N256 1.388 . S
N256 Co239 1.993 . S
N256 N255 1.388 . S
N256 C257 1.346 . S
C257 N256 1.346 . S
C257 C258 1.396 . S
C257 C267 1.510 . S
C258 C254 1.401 . S
C258 C257 1.396 . S
C259 C254 1.499 . S
C259 H260 0.959 . S
C259 H261 0.960 . S
C259 H262 0.961 . S
H260 C259 0.959 . S
H261 C259 0.960 . S
H262 C259 0.961 . S
O263 Co238 1.967 . S
O263 C271 1.258 . S
O264 Co239 1.941 . S
O264 C271 1.266 . S
H265 C267 0.959 . S
H266 C267 0.961 . S
C267 C257 1.510 . S
C267 H265 0.959 . S
C267 H266 0.961 . S
C267 H268 0.960 . S
H268 C267 0.960 . S
H269 N249 0.862 . S
O270 Co238 1.920 . S
O270 C243 1.289 . S
C271 O263 1.258 . S
C271 O264 1.266 . S
H272 C280 0.929 . S
H273 C282 0.930 . S
H274 C284 0.930 . S
H275 C287 0.929 . S
H276 C290 0.930 . S
H277 C292 0.960 . S
H278 C292 0.960 1_566 S
H279 C292 0.960 1_565 S
C280 H272 0.929 . S
C280 C281 1.377 . S
C280 C282 1.384 . S
C281 C280 1.377 . S
C281 C287 1.390 . S
C282 H273 0.930 . S
C282 C280 1.384 . S
C282 C283 1.372 . S
C283 C282 1.372 . S
C283 C284 1.400 . S
C283 C288 1.490 . S
C284 H274 0.930 . S
C284 C283 1.400 . S
C284 C287 1.386 . S
H285 C301 0.930 . S
H286 C302 0.931 . S
C287 H275 0.929 . S
C287 C281 1.390 . S
C287 C284 1.386 . S
C288 C283 1.490 . S
C288 C290 1.395 . S
C288 C291 1.372 1_565 S
H289 C295 0.930 . S
C290 H276 0.930 . S
C290 C288 1.395 . S
C290 C293 1.403 . S
C291 C288 1.372 1_545 S
C291 C292 1.529 . S
C291 C295 1.428 . S
C292 H277 0.960 . S
C292 H278 0.960 1_544 S
C292 H279 0.960 1_545 S
C292 C291 1.529 . S
C293 C290 1.403 . S
C293 C294 1.392 1_565 S
C293 C297 1.495 . S
C294 C293 1.392 1_545 S
C294 C295 1.385 . S
C294 C296 1.478 . S
C295 H289 0.930 . S
C295 C291 1.428 . S
C295 C294 1.385 . S
C296 C294 1.478 . S
C296 C298 1.381 . S
C296 C302 1.383 . S
C297 C293 1.495 . S
C297 H303 0.959 . S
C297 H304 0.961 1_565 S
C297 H305 0.960 . S
C298 C296 1.381 . S
C298 C299 1.394 . S
C298 H306 0.930 . S
C299 C298 1.394 . S
C299 C300 1.383 . S
C299 H307 0.930 . S
C300 C299 1.383 . S
C300 C301 1.377 . S
C301 H285 0.930 . S
C301 C300 1.377 . S
C301 C302 1.379 . S
C302 H286 0.931 . S
C302 C296 1.383 . S
C302 C301 1.379 . S
H303 C297 0.959 . S
H304 C297 0.961 1_545 S
H305 C297 0.960 . S
H306 C298 0.930 . S
H307 C299 0.930 . S
H308 C316 0.929 1_556 S
H309 C318 0.930 1_556 S
H310 C320 0.930 . S
H311 C323 0.929 . S
H312 C326 0.930 . S
H313 C328 0.960 . S
H314 C328 0.960 1_655 S
H315 C328 0.960 1_655 S
C316 H308 0.929 1_554 S
C316 C317 1.377 . S
C316 C318 1.384 . S
C317 C316 1.377 . S
C317 C323 1.390 . S
C318 H309 0.930 1_554 S
C318 C316 1.384 . S
C318 C319 1.372 . S
C319 C318 1.372 . S
C319 C320 1.400 . S
C319 C324 1.490 . S
C320 H310 0.930 . S
C320 C319 1.400 . S
C320 C323 1.386 . S
H321 C337 0.930 . S
H322 C338 0.931 . S
C323 H311 0.929 . S
C323 C317 1.390 . S
C323 C320 1.386 . S
C324 C319 1.490 . S
C324 C326 1.395 . S
C324 C327 1.403 1_655 S
H325 C331 0.930 . S
C326 H312 0.930 . S
C326 C324 1.395 . S
C326 C329 1.403 . S
C327 C324 1.403 1_455 S
C327 C328 1.524 . S
C327 C331 1.400 . S
C328 H313 0.960 . S
C328 H314 0.960 1_455 S
C328 H315 0.960 1_455 S
C328 C327 1.524 . S
C329 C326 1.403 . S
C329 C330 1.392 1_655 S
C329 C333 1.495 . S
C330 C329 1.392 1_455 S
C330 C331 1.385 . S
C330 C332 1.478 . S
C331 H325 0.930 . S
C331 C327 1.400 . S
C331 C330 1.385 . S
C332 C330 1.478 . S
C332 C334 1.381 . S
C332 C338 1.383 . S
C333 C329 1.495 . S
C333 H339 0.959 . S
C333 H340 0.954 1_655 S
C333 H341 0.960 . S
C334 C332 1.381 . S
C334 C335 1.394 . S
C334 H342 0.930 1_554 S
C335 C334 1.394 . S
C335 C336 1.383 . S
C335 H343 0.929 1_554 S
C336 C335 1.383 . S
C336 C337 1.377 . S
C337 H321 0.930 . S
C337 C336 1.377 . S
C337 C338 1.379 . S
C338 H322 0.931 . S
C338 C332 1.383 . S
C338 C337 1.379 . S
H339 C333 0.959 . S
H340 C333 0.954 1_455 S
H341 C333 0.960 . S
H342 C334 0.930 1_556 S
H343 C335 0.929 1_556 S
H344 C352 0.929 . S
H345 C354 0.930 . S
H346 C356 0.930 . S
H347 C359 0.929 . S
H348 C362 0.930 . S
H349 C364 0.960 . S
H350 C364 0.960 . S
H351 C364 0.960 . S
C352 H344 0.929 . S
C352 C353 1.377 . S
C352 C354 1.384 . S
C353 C352 1.377 . S
C353 C359 1.390 . S
C354 H345 0.930 . S
C354 C352 1.384 . S
C354 C355 1.372 . S
C355 C354 1.372 . S
C355 C356 1.400 . S
C355 C360 1.490 . S
C356 H346 0.930 . S
C356 C355 1.400 . S
C356 C359 1.386 . S
H357 C373 0.930 . S
H358 C374 0.931 . S
C359 H347 0.929 . S
C359 C353 1.390 . S
C359 C356 1.386 . S
C360 C355 1.490 . S
C360 C362 1.395 1_655 S
C360 C363 1.403 . S
H361 C367 0.930 . S
C362 H348 0.930 . S
C362 C360 1.395 1_455 S
C362 C365 1.403 . S
C363 C360 1.403 . S
C363 C364 1.524 . S
C363 C367 1.400 . S
C364 H349 0.960 . S
C364 H350 0.960 . S
C364 H351 0.960 . S
C364 C363 1.524 . S
C365 C362 1.403 . S
C365 C366 1.392 . S
C365 C369 1.495 . S
C366 C365 1.392 . S
C366 C367 1.385 1_455 S
C366 C368 1.478 . S
C367 H361 0.930 . S
C367 C363 1.400 . S
C367 C366 1.385 1_655 S
C368 C366 1.478 . S
C368 C370 1.381 . S
C368 C374 1.383 . S
C369 C365 1.495 . S
C369 H375 0.959 . S
C369 H376 0.961 . S
C369 H377 0.960 . S
C370 C368 1.381 . S
C370 C371 1.394 . S
C370 H378 0.930 . S
C371 C370 1.394 . S
C371 C372 1.383 . S
C371 H379 0.929 . S
C372 C371 1.383 . S
C372 C373 1.377 . S
C373 H357 0.930 . S
C373 C372 1.377 . S
C373 C374 1.379 . S
C374 H358 0.931 . S
C374 C368 1.383 . S
C374 C373 1.379 . S
H375 C369 0.959 . S
H376 C369 0.961 . S
H377 C369 0.960 . S
H378 C370 0.930 . S
H379 C371 0.929 . S
H380 C388 0.929 . S
H381 C390 0.930 . S
H382 C392 0.930 . S
H383 C395 0.929 . S
H384 C398 0.930 . S
H385 C400 0.960 . S
H386 C400 0.960 . S
H387 C400 0.960 . S
C388 H380 0.929 . S
C388 C389 1.377 . S
C388 C390 1.384 . S
C389 C388 1.377 . S
C389 C395 1.390 . S
C390 H381 0.930 . S
C390 C388 1.384 . S
C390 C391 1.372 . S
C391 C390 1.372 . S
C391 C392 1.400 . S
C391 C396 1.490 . S
C392 H382 0.930 . S
C392 C391 1.400 . S
C392 C395 1.386 . S
H393 C409 0.930 . S
H394 C410 0.931 . S
C395 H383 0.929 . S
C395 C389 1.390 . S
C395 C392 1.386 . S
C396 C391 1.490 . S
C396 C398 1.395 1_565 S
C396 C399 1.403 . S
H397 C403 0.930 . S
C398 H384 0.930 . S
C398 C396 1.395 1_545 S
C398 C401 1.403 . S
C399 C396 1.403 . S
C399 C400 1.524 . S
C399 C403 1.400 . S
C400 H385 0.960 . S
C400 H386 0.960 . S
C400 H387 0.960 . S
C400 C399 1.524 . S
C401 C398 1.403 . S
C401 C402 1.392 . S
C401 C405 1.495 . S
C402 C401 1.392 . S
C402 C403 1.385 1_545 S
C402 C404 1.478 . S
C403 H397 0.930 . S
C403 C399 1.400 . S
C403 C402 1.385 1_565 S
C404 C402 1.478 . S
C404 C406 1.381 . S
C404 C410 1.383 . S
C405 C401 1.495 . S
C405 H411 0.959 . S
C405 H412 0.961 . S
C405 H413 0.960 . S
C406 C404 1.381 . S
C406 C407 1.394 . S
C406 H414 0.930 . S
C407 C406 1.394 . S
C407 C408 1.383 . S
C407 H415 0.929 . S
C408 C407 1.383 . S
C408 C409 1.377 . S
C409 H393 0.930 . S
C409 C408 1.377 . S
C409 C410 1.379 . S
C410 H394 0.931 . S
C410 C404 1.383 . S
C410 C409 1.379 . S
H411 C405 0.959 . S
H412 C405 0.961 . S
H413 C405 0.960 . S
H414 C406 0.930 . S
H415 C407 0.929 . S
H416 C424 0.929 . S
H417 C426 0.930 . S
H418 C428 0.930 . S
H419 C431 0.929 . S
H420 C434 0.930 . S
H421 C436 0.960 . S
H422 C436 0.960 . S
H423 C436 0.960 . S
C424 H416 0.929 . S
C424 C425 1.377 . S
C424 C426 1.384 . S
C425 C424 1.377 . S
C425 C431 1.390 . S
C426 H417 0.930 . S
C426 C424 1.384 . S
C426 C427 1.372 . S
C427 C426 1.372 . S
C427 C428 1.400 . S
C427 C432 1.490 . S
C428 H418 0.930 . S
C428 C427 1.400 . S
C428 C431 1.386 . S
H429 C445 0.930 . S
H430 C446 0.931 . S
C431 H419 0.929 . S
C431 C425 1.390 . S
C431 C428 1.386 . S
C432 C427 1.490 . S
C432 C434 1.395 1_554 S
C432 C435 1.403 . S
H433 C439 0.930 . S
C434 H420 0.930 . S
C434 C432 1.395 1_556 S
C434 C437 1.403 . S
C435 C432 1.403 . S
C435 C436 1.524 . S
C435 C439 1.400 . S
C436 H421 0.960 . S
C436 H422 0.960 . S
C436 H423 0.960 . S
C436 C435 1.524 . S
C437 C434 1.403 . S
C437 C438 1.392 1_556 S
C437 C441 1.495 . S
C438 C437 1.392 1_554 S
C438 C439 1.385 . S
C438 C440 1.478 . S
C439 H433 0.930 . S
C439 C435 1.400 . S
C439 C438 1.385 . S
C440 C438 1.478 . S
C440 C442 1.381 . S
C440 C446 1.383 . S
C441 C437 1.495 . S
C441 H447 0.959 . S
C441 H448 0.961 . S
C441 H449 0.960 . S
C442 C440 1.381 . S
C442 C443 1.394 . S
C442 H450 0.930 . S
C443 C442 1.394 . S
C443 C444 1.383 . S
C443 H451 0.929 . S
C444 C443 1.383 . S
C444 C445 1.377 . S
C445 H429 0.930 . S
C445 C444 1.377 . S
C445 C446 1.379 . S
C446 H430 0.931 . S
C446 C440 1.383 . S
C446 C445 1.379 . S
H447 C441 0.959 . S
H448 C441 0.961 . S
H449 C441 0.960 . S
H450 C442 0.930 . S
H451 C443 0.929 . S
H452 C460 0.929 . S
H453 C462 0.930 . S
H454 C464 0.930 . S
H455 C467 0.929 . S
H456 C470 0.930 . S
H457 C472 0.960 . S
H458 C472 0.960 . S
H459 C472 0.960 . S
C460 H452 0.929 . S
C460 C461 1.377 . S
C460 C462 1.384 . S
C461 C460 1.377 . S
C461 C467 1.390 1_554 S
C462 H453 0.930 . S
C462 C460 1.384 . S
C462 C463 1.372 . S
C463 C462 1.372 . S
C463 C464 1.400 1_554 S
C463 C468 1.490 . S
C464 H454 0.930 . S
C464 C463 1.400 1_556 S
C464 C467 1.386 . S
H465 C481 0.930 1_556 S
H466 C482 0.931 1_556 S
C467 H455 0.929 . S
C467 C461 1.390 1_556 S
C467 C464 1.386 . S
C468 C463 1.490 . S
C468 C470 1.395 . S
C468 C471 1.403 . S
H469 C475 0.930 . S
C470 H456 0.930 . S
C470 C468 1.395 . S
C470 C473 1.403 . S
C471 C468 1.403 . S
C471 C472 1.524 . S
C471 C475 1.400 . S
C472 H457 0.960 . S
C472 H458 0.960 . S
C472 H459 0.960 . S
C472 C471 1.524 . S
C473 C470 1.403 . S
C473 C474 1.392 . S
C473 C477 1.495 . S
C474 C473 1.392 . S
C474 C475 1.385 . S
C474 C476 1.478 . S
C475 H469 0.930 . S
C475 C471 1.400 . S
C475 C474 1.385 . S
C476 C474 1.478 . S
C476 C478 1.381 . S
C476 C482 1.383 . S
C477 C473 1.495 . S
C477 H483 0.959 . S
C477 H484 0.961 . S
C477 H485 0.960 . S
C478 C476 1.381 . S
C478 C479 1.394 . S
C478 H486 0.930 . S
C479 C478 1.394 . S
C479 C480 1.383 . S
C479 H487 0.929 . S
C480 C479 1.383 . S
C480 C481 1.377 . S
C481 H465 0.930 1_554 S
C481 C480 1.377 . S
C481 C482 1.379 . S
C482 H466 0.931 1_554 S
C482 C476 1.383 . S
C482 C481 1.379 . S
H483 C477 0.959 . S
H484 C477 0.961 . S
H485 C477 0.960 . S
H486 C478 0.930 . S
H487 C479 0.929 . S
H488 C496 0.929 . S
H489 C498 0.930 . S
H490 C500 0.930 . S
H491 C503 0.929 . S
H492 C506 0.930 . S
H493 C508 0.960 . S
H494 C508 0.960 . S
H495 C508 0.960 1_554 S
C496 H488 0.929 . S
C496 C497 1.377 . S
C496 C498 1.384 . S
C497 C496 1.377 . S
C497 C503 1.390 . S
C498 H489 0.930 . S
C498 C496 1.384 . S
C498 C499 1.372 . S
C499 C498 1.372 . S
C499 C500 1.400 . S
C499 C504 1.490 . S
C500 H490 0.930 . S
C500 C499 1.400 . S
C500 C503 1.386 . S
H501 C517 0.930 . S
H502 C518 0.931 . S
C503 H491 0.929 . S
C503 C497 1.390 . S
C503 C500 1.386 . S
C504 C499 1.490 . S
C504 C506 1.395 . S
C504 C507 1.403 . S
H505 C511 0.930 . S
C506 H492 0.930 . S
C506 C504 1.395 . S
C506 C509 1.403 . S
C507 C504 1.403 . S
C507 C508 1.524 1_554 S
C507 C511 1.400 . S
C508 H493 0.960 . S
C508 H494 0.960 . S
C508 H495 0.960 1_556 S
C508 C507 1.524 1_556 S
C509 C506 1.403 . S
C509 C510 1.392 . S
C509 C513 1.495 . S
C510 C509 1.392 . S
C510 C511 1.385 . S
C510 C512 1.478 . S
C511 H505 0.930 . S
C511 C507 1.400 . S
C511 C510 1.385 . S
C512 C510 1.478 . S
C512 C514 1.381 . S
C512 C518 1.383 . S
C513 C509 1.495 . S
C513 H519 0.959 . S
C513 H520 0.961 . S
C513 H521 0.960 . S
C514 C512 1.381 . S
C514 C515 1.394 . S
C514 H522 0.930 1_554 S
C515 C514 1.394 . S
C515 C516 1.383 . S
C515 H523 0.929 1_554 S
C516 C515 1.383 . S
C516 C517 1.377 . S
C517 H501 0.930 . S
C517 C516 1.377 . S
C517 C518 1.379 . S
C518 H502 0.931 . S
C518 C512 1.383 . S
C518 C517 1.379 . S
H519 C513 0.959 . S
H520 C513 0.961 . S
H521 C513 0.960 . S
H522 C514 0.930 1_556 S
H523 C515 0.929 1_556 S
H524 C532 0.929 1_556 S
H525 C534 0.930 1_556 S
H526 C536 0.930 . S
H527 C539 0.929 . S
H528 C542 0.930 . S
H529 C544 0.960 . S
H530 C544 0.960 . S
H531 C544 0.960 . S
C532 H524 0.929 1_554 S
C532 C533 1.377 . S
C532 C534 1.384 . S
C533 C532 1.377 . S
C533 C539 1.390 . S
C534 H525 0.930 1_554 S
C534 C532 1.384 . S
C534 C535 1.372 . S
C535 C534 1.372 . S
C535 C536 1.400 . S
C535 C540 1.490 . S
C536 H526 0.930 . S
C536 C535 1.400 . S
C536 C539 1.386 . S
H537 C553 0.930 . S
H538 C554 0.931 . S
C539 H527 0.929 . S
C539 C533 1.390 . S
C539 C536 1.386 . S
C540 C535 1.490 . S
C540 C542 1.395 . S
C540 C543 1.403 . S
H541 C547 0.930 . S
C542 H528 0.930 . S
C542 C540 1.395 . S
C542 C545 1.403 . S
C543 C540 1.403 . S
C543 C544 1.524 . S
C543 C547 1.400 . S
C544 H529 0.960 . S
C544 H530 0.960 . S
C544 H531 0.960 . S
C544 C543 1.524 . S
C545 C542 1.403 . S
C545 C546 1.392 . S
C545 C549 1.495 . S
C546 C545 1.392 . S
C546 C547 1.385 . S
C546 C548 1.478 . S
C547 H541 0.930 . S
C547 C543 1.400 . S
C547 C546 1.385 . S
C548 C546 1.478 . S
C548 C550 1.381 1_554 S
C548 C554 1.383 . S
C549 C545 1.495 . S
C549 H555 0.959 1_554 S
C549 H556 0.961 . S
C549 H557 0.960 1_554 S
C550 C548 1.381 1_556 S
C550 C551 1.394 . S
C550 H558 0.930 . S
C551 C550 1.394 . S
C551 C552 1.383 1_556 S
C551 H559 0.929 . S
C552 C551 1.383 1_554 S
C552 C553 1.377 . S
C553 H537 0.930 . S
C553 C552 1.377 . S
C553 C554 1.379 . S
C554 H538 0.931 . S
C554 C548 1.383 . S
C554 C553 1.379 . S
H555 C549 0.959 1_556 S
H556 C549 0.961 . S
H557 C549 0.960 1_556 S
H558 C550 0.930 . S
H559 C551 0.929 . S
H560 C568 0.929 . S
H561 C570 0.930 . S
H562 C572 0.930 . S
H563 C575 0.929 . S
H564 C578 0.930 . S
H565 C580 0.960 . S
H566 C580 0.960 . S
H567 C580 0.960 . S
C568 H560 0.929 . S
C568 C569 1.377 . S
C568 C570 1.384 1_565 S
C569 C568 1.377 . S
C569 C575 1.390 . S
C570 H561 0.930 . S
C570 C568 1.384 1_545 S
C570 C571 1.372 . S
C571 C570 1.372 . S
C571 C572 1.400 . S
C571 C576 1.490 . S
C572 H562 0.930 . S
C572 C571 1.400 . S
C572 C575 1.386 1_545 S
H573 C589 0.930 . S
H574 C590 0.931 . S
C575 H563 0.929 . S
C575 C569 1.390 . S
C575 C572 1.386 1_565 S
C576 C571 1.490 . S
C576 C578 1.395 . S
C576 C579 1.403 . S
H577 C583 0.930 . S
C578 H564 0.930 . S
C578 C576 1.395 . S
C578 C581 1.403 . S
C579 C576 1.403 . S
C579 C580 1.524 . S
C579 C583 1.400 . S
C580 H565 0.960 . S
C580 H566 0.960 . S
C580 H567 0.960 . S
C580 C579 1.524 . S
C581 C578 1.403 . S
C581 C582 1.392 . S
C581 C585 1.495 . S
C582 C581 1.392 . S
C582 C583 1.385 . S
C582 C584 1.478 . S
C583 H577 0.930 . S
C583 C579 1.400 . S
C583 C582 1.385 . S
C584 C582 1.478 . S
C584 C586 1.381 . S
C584 C590 1.383 . S
C585 C581 1.495 . S
C585 H591 0.959 . S
C585 H592 0.961 . S
C585 H593 0.960 . S
C586 C584 1.381 . S
C586 C587 1.394 . S
C586 H594 0.930 . S
C587 C586 1.394 . S
C587 C588 1.383 . S
C587 H595 0.929 . S
C588 C587 1.383 . S
C588 C589 1.377 . S
C589 H573 0.930 . S
C589 C588 1.377 . S
C589 C590 1.379 . S
C590 H574 0.931 . S
C590 C584 1.383 . S
C590 C589 1.379 . S
H591 C585 0.959 . S
H592 C585 0.961 . S
H593 C585 0.960 . S
H594 C586 0.930 . S
H595 C587 0.929 . S
H596 C604 0.929 . S
H597 C606 0.930 . S
H598 C608 0.930 . S
H599 C611 0.929 . S
H600 C614 0.930 . S
H601 C616 0.960 . S
H602 C616 0.960 . S
H603 C616 0.960 . S
C604 H596 0.929 . S
C604 C605 1.377 . S
C604 C606 1.384 1_455 S
C605 C604 1.377 . S
C605 C611 1.390 . S
C606 H597 0.930 . S
C606 C604 1.384 1_655 S
C606 C607 1.372 . S
C607 C606 1.372 . S
C607 C608 1.400 . S
C607 C612 1.490 . S
C608 H598 0.930 . S
C608 C607 1.400 . S
C608 C611 1.386 1_655 S
H609 C625 0.930 . S
H610 C626 0.931 . S
C611 H599 0.929 . S
C611 C605 1.390 . S
C611 C608 1.386 1_455 S
C612 C607 1.490 . S
C612 C614 1.395 . S
C612 C615 1.403 . S
H613 C619 0.930 . S
C614 H600 0.930 . S
C614 C612 1.395 . S
C614 C617 1.403 . S
C615 C612 1.403 . S
C615 C616 1.524 . S
C615 C619 1.400 . S
C616 H601 0.960 . S
C616 H602 0.960 . S
C616 H603 0.960 . S
C616 C615 1.524 . S
C617 C614 1.403 . S
C617 C618 1.392 . S
C617 C621 1.495 . S
C618 C617 1.392 . S
C618 C619 1.385 . S
C618 C620 1.478 . S
C619 H613 0.930 . S
C619 C615 1.400 . S
C619 C618 1.385 . S
C620 C618 1.478 . S
C620 C622 1.381 . S
C620 C626 1.383 . S
C621 C617 1.495 . S
C621 H627 0.959 . S
C621 H628 0.961 . S
C621 H629 0.960 . S
C622 C620 1.381 . S
C622 C623 1.394 . S
C622 H630 0.930 . S
C623 C622 1.394 . S
C623 C624 1.383 . S
C623 H631 0.929 . S
C624 C623 1.383 . S
C624 C625 1.377 . S
C625 H609 0.930 . S
C625 C624 1.377 . S
C625 C626 1.379 . S
C626 H610 0.931 . S
C626 C620 1.383 . S
C626 C625 1.379 . S
H627 C621 0.959 . S
H628 C621 0.961 . S
H629 C621 0.960 . S
H630 C622 0.930 . S
H631 C623 0.929 . S
H632 C640 0.929 . S
H633 C642 0.930 . S
H634 C644 0.930 . S
H635 C647 0.929 . S
H636 C650 0.930 . S
H637 C652 0.960 . S
H638 C652 0.960 . S
H639 C652 0.960 . S
C640 H632 0.929 . S
C640 C641 1.377 . S
C640 C642 1.384 1_545 S
C641 C640 1.377 . S
C641 C647 1.390 . S
C642 H633 0.930 . S
C642 C640 1.384 1_565 S
C642 C643 1.372 . S
C643 C642 1.372 . S
C643 C644 1.400 . S
C643 C648 1.490 . S
C644 H634 0.930 . S
C644 C643 1.400 . S
C644 C647 1.386 1_565 S
H645 C661 0.930 . S
H646 C662 0.931 . S
C647 H635 0.929 . S
C647 C641 1.390 . S
C647 C644 1.386 1_545 S
C648 C643 1.490 . S
C648 C650 1.395 . S
C648 C651 1.403 . S
H649 C655 0.930 . S
C650 H636 0.930 . S
C650 C648 1.395 . S
C650 C653 1.403 . S
C651 C648 1.403 . S
C651 C652 1.524 . S
C651 C655 1.400 . S
C652 H637 0.960 . S
C652 H638 0.960 . S
C652 H639 0.960 . S
C652 C651 1.524 . S
C653 C650 1.403 . S
C653 C654 1.392 . S
C653 C657 1.495 . S
C654 C653 1.392 . S
C654 C655 1.385 . S
C654 C656 1.478 . S
C655 H649 0.930 . S
C655 C651 1.400 . S
C655 C654 1.385 . S
C656 C654 1.478 . S
C656 C658 1.381 . S
C656 C662 1.383 . S
C657 C653 1.495 . S
C657 H663 0.959 . S
C657 H664 0.961 . S
C657 H665 0.960 . S
C658 C656 1.381 . S
C658 C659 1.394 . S
C658 H666 0.930 . S
C659 C658 1.394 . S
C659 C660 1.383 . S
C659 H667 0.929 . S
C660 C659 1.383 . S
C660 C661 1.377 . S
C661 H645 0.930 . S
C661 C660 1.377 . S
C661 C662 1.379 . S
C662 H646 0.931 . S
C662 C656 1.383 . S
C662 C661 1.379 . S
H663 C657 0.959 . S
H664 C657 0.961 . S
H665 C657 0.960 . S
H666 C658 0.930 . S
H667 C659 0.929 . S
H668 C676 0.929 . S
H669 C678 0.930 . S
H670 C680 0.930 . S
H671 C683 0.929 . S
H672 C686 0.930 . S
H673 C688 0.960 . S
H674 C688 0.960 . S
H675 C688 0.960 . S
C676 H668 0.929 . S
C676 C677 1.377 . S
C676 C678 1.384 1_655 S
C677 C676 1.377 . S
C677 C683 1.390 . S
C678 H669 0.930 . S
C678 C676 1.384 1_455 S
C678 C679 1.372 . S
C679 C678 1.372 . S
C679 C680 1.400 . S
C679 C684 1.490 . S
C680 H670 0.930 . S
C680 C679 1.400 . S
C680 C683 1.386 1_455 S
H681 C697 0.930 . S
H682 C698 0.931 . S
C683 H671 0.929 . S
C683 C677 1.390 . S
C683 C680 1.386 1_655 S
C684 C679 1.490 . S
C684 C686 1.395 . S
C684 C687 1.403 . S
H685 C691 0.930 . S
C686 H672 0.930 . S
C686 C684 1.395 . S
C686 C689 1.403 . S
C687 C684 1.403 . S
C687 C688 1.524 . S
C687 C691 1.400 . S
C688 H673 0.960 . S
C688 H674 0.960 . S
C688 H675 0.960 . S
C688 C687 1.524 . S
C689 C686 1.403 . S
C689 C690 1.392 . S
C689 C693 1.495 . S
C690 C689 1.392 . S
C690 C691 1.385 . S
C690 C692 1.478 . S
C691 H685 0.930 . S
C691 C687 1.400 . S
C691 C690 1.385 . S
C692 C690 1.478 . S
C692 C694 1.381 . S
C692 C698 1.383 . S
C693 C689 1.495 . S
C693 H699 0.959 . S
C693 H700 0.961 . S
C693 H701 0.960 . S
C694 C692 1.381 . S
C694 C695 1.394 . S
C694 H702 0.930 . S
C695 C694 1.394 . S
C695 C696 1.383 . S
C695 H703 0.929 . S
C696 C695 1.383 . S
C696 C697 1.377 . S
C697 H681 0.930 . S
C697 C696 1.377 . S
C697 C698 1.379 . S
C698 H682 0.931 . S
C698 C692 1.383 . S
C698 C697 1.379 . S
H699 C693 0.959 . S
H700 C693 0.961 . S
H701 C693 0.960 . S
H702 C694 0.930 . S
H703 C695 0.929 . S
H704 C712 0.929 . S
H705 C714 0.930 . S
H706 C716 0.930 . S
H707 C719 0.929 . S
H708 C722 0.930 . S
H709 C724 0.960 . S
H710 C724 0.960 . S
H711 C724 0.960 . S
C712 H704 0.929 . S
C712 C713 1.377 . S
C712 C714 1.384 . S
C713 C712 1.377 . S
C713 C719 1.390 . S
C714 H705 0.930 . S
C714 C712 1.384 . S
C714 C715 1.372 . S
C715 C714 1.372 . S
C715 C716 1.400 . S
C715 C720 1.490 . S
C716 H706 0.930 . S
C716 C715 1.400 . S
C716 C719 1.386 . S
H717 C733 0.930 . S
H718 C734 0.931 . S
C719 H707 0.929 . S
C719 C713 1.390 . S
C719 C716 1.386 . S
C720 C715 1.490 . S
C720 C722 1.395 . S
C720 C723 1.403 . S
H721 C727 0.930 . S
C722 H708 0.930 . S
C722 C720 1.395 . S
C722 C725 1.403 . S
C723 C720 1.403 . S
C723 C724 1.524 . S
C723 C727 1.400 . S
C724 H709 0.960 . S
C724 H710 0.960 . S
C724 H711 0.960 . S
C724 C723 1.524 . S
C725 C722 1.403 . S
C725 C726 1.392 . S
C725 C729 1.495 . S
C726 C725 1.392 . S
C726 C727 1.385 . S
C726 C728 1.478 . S
C727 H721 0.930 . S
C727 C723 1.400 . S
C727 C726 1.385 . S
C728 C726 1.478 . S
C728 C730 1.381 . S
C728 C734 1.383 . S
C729 C725 1.495 . S
C729 H735 0.959 . S
C729 H736 0.961 . S
C729 H737 0.960 . S
C730 C728 1.381 . S
C730 C731 1.394 . S
C730 H738 0.930 . S
C731 C730 1.394 . S
C731 C732 1.383 . S
C731 H739 0.929 . S
C732 C731 1.383 . S
C732 C733 1.377 . S
C733 H717 0.930 . S
C733 C732 1.377 . S
C733 C734 1.379 . S
C734 H718 0.931 . S
C734 C728 1.383 . S
C734 C733 1.379 . S
H735 C729 0.959 . S
H736 C729 0.961 . S
H737 C729 0.960 . S
H738 C730 0.930 . S
H739 C731 0.929 . S
H740 C748 0.929 . S
H741 C750 0.930 . S
H742 C752 0.930 . S
H743 C755 0.929 . S
H744 C758 0.930 . S
H745 C760 0.960 . S
H746 C760 0.960 . S
H747 C760 0.960 . S
C748 H740 0.929 . S
C748 C749 1.377 . S
C748 C750 1.384 . S
C749 C748 1.377 . S
C749 C755 1.390 . S
C750 H741 0.930 . S
C750 C748 1.384 . S
C750 C751 1.372 . S
C751 C750 1.372 . S
C751 C752 1.400 . S
C751 C756 1.490 . S
C752 H742 0.930 . S
C752 C751 1.400 . S
C752 C755 1.386 . S
H753 C769 0.930 . S
H754 C770 0.931 . S
C755 H743 0.929 . S
C755 C749 1.390 . S
C755 C752 1.386 . S
C756 C751 1.490 . S
C756 C758 1.395 . S
C756 C759 1.403 . S
H757 C763 0.930 . S
C758 H744 0.930 . S
C758 C756 1.395 . S
C758 C761 1.403 . S
C759 C756 1.403 . S
C759 C760 1.524 . S
C759 C763 1.400 . S
C760 H745 0.960 . S
C760 H746 0.960 . S
C760 H747 0.960 . S
C760 C759 1.524 . S
C761 C758 1.403 . S
C761 C762 1.392 . S
C761 C765 1.495 . S
C762 C761 1.392 . S
C762 C763 1.385 . S
C762 C764 1.478 . S
C763 H757 0.930 . S
C763 C759 1.400 . S
C763 C762 1.385 . S
C764 C762 1.478 . S
C764 C766 1.381 . S
C764 C770 1.383 . S
C765 C761 1.495 . S
C765 H771 0.959 . S
C765 H772 0.961 . S
C765 H773 0.960 . S
C766 C764 1.381 . S
C766 C767 1.394 . S
C766 H774 0.930 . S
C767 C766 1.394 . S
C767 C768 1.383 . S
C767 H775 0.929 . S
C768 C767 1.383 . S
C768 C769 1.377 . S
C769 H753 0.930 . S
C769 C768 1.377 . S
C769 C770 1.379 . S
C770 H754 0.931 . S
C770 C764 1.383 . S
C770 C769 1.379 . S
H771 C765 0.959 . S
H772 C765 0.961 . S
H773 C765 0.960 . S
H774 C766 0.930 . S
H775 C767 0.929 . S
H776 C784 0.929 . S
H777 C786 0.930 . S
H778 C788 0.930 . S
H779 C791 0.929 . S
H780 C794 0.930 . S
H781 C796 0.960 . S
H782 C796 0.960 . S
H783 C796 0.960 . S
C784 H776 0.929 . S
C784 C785 1.377 . S
C784 C786 1.384 . S
C785 C784 1.377 . S
C785 C791 1.390 . S
C786 H777 0.930 . S
C786 C784 1.384 . S
C786 C787 1.372 . S
C787 C786 1.372 . S
C787 C788 1.400 . S
C787 C792 1.490 . S
C788 H778 0.930 . S
C788 C787 1.400 . S
C788 C791 1.386 . S
H789 C805 0.930 . S
H790 C806 0.931 . S
C791 H779 0.929 . S
C791 C785 1.390 . S
C791 C788 1.386 . S
C792 C787 1.490 . S
C792 C794 1.395 . S
C792 C795 1.403 . S
H793 C799 0.930 . S
C794 H780 0.930 . S
C794 C792 1.395 . S
C794 C797 1.403 . S
C795 C792 1.403 . S
C795 C796 1.524 . S
C795 C799 1.400 . S
C796 H781 0.960 . S
C796 H782 0.960 . S
C796 H783 0.960 . S
C796 C795 1.524 . S
C797 C794 1.403 . S
C797 C798 1.392 . S
C797 C801 1.495 . S
C798 C797 1.392 . S
C798 C799 1.385 . S
C798 C800 1.478 . S
C799 H793 0.930 . S
C799 C795 1.400 . S
C799 C798 1.385 . S
C800 C798 1.478 . S
C800 C802 1.381 . S
C800 C806 1.383 . S
C801 C797 1.495 . S
C801 H807 0.959 . S
C801 H808 0.961 . S
C801 H809 0.960 . S
C802 C800 1.381 . S
C802 C803 1.394 . S
C802 H810 0.930 . S
C803 C802 1.394 . S
C803 C804 1.383 . S
C803 H811 0.929 . S
C804 C803 1.383 . S
C804 C805 1.377 . S
C805 H789 0.930 . S
C805 C804 1.377 . S
C805 C806 1.379 . S
C806 H790 0.931 . S
C806 C800 1.383 . S
C806 C805 1.379 . S
H807 C801 0.959 . S
H808 C801 0.961 . S
H809 C801 0.960 . S
H810 C802 0.930 . S
H811 C803 0.929 . S
H812 C820 0.929 . S
H813 C822 0.930 . S
H814 C824 0.930 . S
H815 C827 0.929 . S
H816 C830 0.930 . S
H817 C832 0.960 . S
H818 C832 0.960 . S
H819 C832 0.960 . S
C820 H812 0.929 . S
C820 C821 1.377 . S
C820 C822 1.384 . S
C821 C820 1.377 . S
C821 C827 1.390 . S
C822 H813 0.930 . S
C822 C820 1.384 . S
C822 C823 1.372 . S
C823 C822 1.372 . S
C823 C824 1.400 . S
C823 C828 1.490 . S
C824 H814 0.930 . S
C824 C823 1.400 . S
C824 C827 1.386 . S
H825 C841 0.930 . S
H826 C842 0.931 . S
C827 H815 0.929 . S
C827 C821 1.390 . S
C827 C824 1.386 . S
C828 C823 1.490 . S
C828 C830 1.395 . S
C828 C831 1.403 . S
H829 C835 0.930 . S
C830 H816 0.930 . S
C830 C828 1.395 . S
C830 C833 1.403 . S
C831 C828 1.403 . S
C831 C832 1.524 . S
C831 C835 1.400 . S
C832 H817 0.960 . S
C832 H818 0.960 . S
C832 H819 0.960 . S
C832 C831 1.524 . S
C833 C830 1.403 . S
C833 C834 1.392 . S
C833 C837 1.495 . S
C834 C833 1.392 . S
C834 C835 1.385 . S
C834 C836 1.478 . S
C835 H829 0.930 . S
C835 C831 1.400 . S
C835 C834 1.385 . S
C836 C834 1.478 . S
C836 C838 1.381 . S
C836 C842 1.383 . S
C837 C833 1.495 . S
C837 H843 0.959 . S
C837 H844 0.961 . S
C837 H845 0.960 . S
C838 C836 1.381 . S
C838 C839 1.394 . S
C838 H846 0.930 . S
C839 C838 1.394 . S
C839 C840 1.383 . S
C839 H847 0.929 . S
C840 C839 1.383 . S
C840 C841 1.377 . S
C841 H825 0.930 . S
C841 C840 1.377 . S
C841 C842 1.379 . S
C842 H826 0.931 . S
C842 C836 1.383 . S
C842 C841 1.379 . S
H843 C837 0.959 . S
H844 C837 0.961 . S
H845 C837 0.960 . S
H846 C838 0.930 . S
H847 C839 0.929 . S
H848 C856 0.929 . S
H849 C858 0.930 . S
H850 C860 0.930 . S
H851 C863 0.929 . S
H852 C866 0.930 . S
H853 C868 0.960 . S
H854 C868 0.960 . S
H855 C868 0.960 . S
C856 H848 0.929 . S
C856 C857 1.377 . S
C856 C858 1.384 . S
C857 C856 1.377 . S
C857 C863 1.390 . S
C858 H849 0.930 . S
C858 C856 1.384 . S
C858 C859 1.372 . S
C859 C858 1.372 . S
C859 C860 1.400 . S
C859 C864 1.490 . S
C860 H850 0.930 . S
C860 C859 1.400 . S
C860 C863 1.386 . S
H861 C877 0.930 . S
H862 C878 0.931 . S
C863 H851 0.929 . S
C863 C857 1.390 . S
C863 C860 1.386 . S
C864 C859 1.490 . S
C864 C866 1.395 . S
C864 C867 1.403 . S
H865 C871 0.930 . S
C866 H852 0.930 . S
C866 C864 1.395 . S
C866 C869 1.403 . S
C867 C864 1.403 . S
C867 C868 1.524 . S
C867 C871 1.400 . S
C868 H853 0.960 . S
C868 H854 0.960 . S
C868 H855 0.960 . S
C868 C867 1.524 . S
C869 C866 1.403 . S
C869 C870 1.392 . S
C869 C873 1.495 . S
C870 C869 1.392 . S
C870 C871 1.385 . S
C870 C872 1.478 . S
C871 H865 0.930 . S
C871 C867 1.400 . S
C871 C870 1.385 . S
C872 C870 1.478 . S
C872 C874 1.381 . S
C872 C878 1.383 . S
C873 C869 1.495 . S
C873 H879 0.959 . S
C873 H880 0.961 . S
C873 H881 0.960 . S
C874 C872 1.381 . S
C874 C875 1.394 . S
C874 H882 0.930 . S
C875 C874 1.394 . S
C875 C876 1.383 . S
C875 H883 0.929 . S
C876 C875 1.383 . S
C876 C877 1.377 . S
C877 H861 0.930 . S
C877 C876 1.377 . S
C877 C878 1.379 . S
C878 H862 0.931 . S
C878 C872 1.383 . S
C878 C877 1.379 . S
H879 C873 0.959 . S
H880 C873 0.961 . S
H881 C873 0.960 . S
H882 C874 0.930 . S
H883 C875 0.929 . S
H884 C892 0.929 . S
H885 C894 0.930 . S
H886 C896 0.930 . S
H887 C899 0.929 . S
H888 C902 0.930 . S
H889 C904 0.960 . S
H890 C904 0.960 . S
H891 C904 0.960 . S
C892 H884 0.929 . S
C892 C893 1.377 . S
C892 C894 1.384 . S
C893 C892 1.377 . S
C893 C899 1.390 . S
C894 H885 0.930 . S
C894 C892 1.384 . S
C894 C895 1.372 . S
C895 C894 1.372 . S
C895 C896 1.400 . S
C895 C900 1.490 . S
C896 H886 0.930 . S
C896 C895 1.400 . S
C896 C899 1.386 . S
H897 C913 0.930 . S
H898 C914 0.931 . S
C899 H887 0.929 . S
C899 C893 1.390 . S
C899 C896 1.386 . S
C900 C895 1.490 . S
C900 C902 1.395 . S
C900 C903 1.403 . S
H901 C907 0.930 . S
C902 H888 0.930 . S
C902 C900 1.395 . S
C902 C905 1.403 . S
C903 C900 1.403 . S
C903 C904 1.524 . S
C903 C907 1.400 . S
C904 H889 0.960 . S
C904 H890 0.960 . S
C904 H891 0.960 . S
C904 C903 1.524 . S
C905 C902 1.403 . S
C905 C906 1.392 . S
C905 C909 1.495 . S
C906 C905 1.392 . S
C906 C907 1.385 . S
C906 C908 1.478 . S
C907 H901 0.930 . S
C907 C903 1.400 . S
C907 C906 1.385 . S
C908 C906 1.478 . S
C908 C910 1.381 . S
C908 C914 1.383 . S
C909 C905 1.495 . S
C909 H915 0.959 . S
C909 H916 0.961 . S
C909 H917 0.960 . S
C910 C908 1.381 . S
C910 C911 1.394 . S
C910 H918 0.930 . S
C911 C910 1.394 . S
C911 C912 1.383 . S
C911 H919 0.929 . S
C912 C911 1.383 . S
C912 C913 1.377 . S
C913 H897 0.930 . S
C913 C912 1.377 . S
C913 C914 1.379 . S
C914 H898 0.931 . S
C914 C908 1.383 . S
C914 C913 1.379 . S
H915 C909 0.959 . S
H916 C909 0.961 . S
H917 C909 0.960 . S
H918 C910 0.930 . S
H919 C911 0.929 . S
H920 C928 0.929 . S
H921 C930 0.930 . S
H922 C932 0.930 . S
H923 C935 0.929 . S
H924 C938 0.930 . S
H925 C940 0.960 . S
H926 C940 0.960 . S
H927 C940 0.960 . S
C928 H920 0.929 . S
C928 C929 1.377 . S
C928 C930 1.384 . S
C929 C928 1.377 . S
C929 C935 1.390 . S
C930 H921 0.930 . S
C930 C928 1.384 . S
C930 C931 1.372 . S
C931 C930 1.372 . S
C931 C932 1.400 . S
C931 C936 1.490 . S
C932 H922 0.930 . S
C932 C931 1.400 . S
C932 C935 1.386 . S
H933 C949 0.930 . S
H934 C950 0.931 . S
C935 H923 0.929 . S
C935 C929 1.390 . S
C935 C932 1.386 . S
C936 C931 1.490 . S
C936 C938 1.395 . S
C936 C939 1.403 . S
H937 C943 0.930 . S
C938 H924 0.930 . S
C938 C936 1.395 . S
C938 C941 1.403 . S
C939 C936 1.403 . S
C939 C940 1.524 . S
C939 C943 1.400 . S
C940 H925 0.960 . S
C940 H926 0.960 . S
C940 H927 0.960 . S
C940 C939 1.524 . S
C941 C938 1.403 . S
C941 C942 1.392 . S
C941 C945 1.495 . S
C942 C941 1.392 . S
C942 C943 1.385 . S
C942 C944 1.478 . S
C943 H937 0.930 . S
C943 C939 1.400 . S
C943 C942 1.385 . S
C944 C942 1.478 . S
C944 C946 1.381 . S
C944 C950 1.383 . S
C945 C941 1.495 . S
C945 H951 0.959 . S
C945 H952 0.961 . S
C945 H953 0.960 . S
C946 C944 1.381 . S
C946 C947 1.394 . S
C946 H954 0.930 . S
C947 C946 1.394 . S
C947 C948 1.383 . S
C947 H955 0.929 . S
C948 C947 1.383 . S
C948 C949 1.377 . S
C949 H933 0.930 . S
C949 C948 1.377 . S
C949 C950 1.379 . S
C950 H934 0.931 . S
C950 C944 1.383 . S
C950 C949 1.379 . S
H951 C945 0.959 . S
H952 C945 0.961 . S
H953 C945 0.960 . S
H954 C946 0.930 . S
H955 C947 0.929 . S
H956 C964 0.929 . S
H957 C966 0.930 . S
H958 C968 0.930 . S
H959 C971 0.929 . S
H960 C974 0.930 . S
H961 C976 0.960 . S
H962 C976 0.960 . S
H963 C976 0.960 . S
C964 H956 0.929 . S
C964 C965 1.377 . S
C964 C966 1.384 . S
C965 C964 1.377 . S
C965 C971 1.390 . S
C966 H957 0.930 . S
C966 C964 1.384 . S
C966 C967 1.372 . S
C967 C966 1.372 . S
C967 C968 1.400 . S
C967 C972 1.490 . S
C968 H958 0.930 . S
C968 C967 1.400 . S
C968 C971 1.386 . S
H969 C985 0.930 . S
H970 C986 0.931 . S
C971 H959 0.929 . S
C971 C965 1.390 . S
C971 C968 1.386 . S
C972 C967 1.490 . S
C972 C974 1.395 . S
C972 C975 1.403 . S
H973 C979 0.930 . S
C974 H960 0.930 . S
C974 C972 1.395 . S
C974 C977 1.403 . S
C975 C972 1.403 . S
C975 C976 1.524 . S
C975 C979 1.400 . S
C976 H961 0.960 . S
C976 H962 0.960 . S
C976 H963 0.960 . S
C976 C975 1.524 . S
C977 C974 1.403 . S
C977 C978 1.392 . S
C977 C981 1.495 . S
C978 C977 1.392 . S
C978 C979 1.385 . S
C978 C980 1.478 . S
C979 H973 0.930 . S
C979 C975 1.400 . S
C979 C978 1.385 . S
C980 C978 1.478 . S
C980 C982 1.381 . S
C980 C986 1.383 . S
C981 C977 1.495 . S
C981 H987 0.959 . S
C981 H988 0.961 . S
C981 H989 0.960 . S
C982 C980 1.381 . S
C982 C983 1.394 . S
C982 H990 0.930 . S
C983 C982 1.394 . S
C983 C984 1.383 . S
C983 H991 0.929 . S
C984 C983 1.383 . S
C984 C985 1.377 . S
C985 H969 0.930 . S
C985 C984 1.377 . S
C985 C986 1.379 . S
C986 H970 0.931 . S
C986 C980 1.383 . S
C986 C985 1.379 . S
H987 C981 0.959 . S
H988 C981 0.961 . S
H989 C981 0.960 . S
H990 C982 0.930 . S
H991 C983 0.929 . S
C281 C77 0.856 . S
C300 C9 0.901 . S
C317 C43 0.858 . S
C336 C111 0.906 . S
C353 C145 0.855 . S
C372 C213 0.898 . S
C389 C179 0.861 . S
C408 C247 0.912 . S
C425 C135 1.651 . S
C444 C5 1.659 . S
C461 C33 1.654 . S
C480 C39 1.661 . S
C497 C73 1.666 . S
C516 C67 1.637 . S
C533 C107 1.667 . S
C552 C101 1.641 . S
C569 C203 1.651 . S
C588 C141 1.659 . S
C605 C237 1.655 . S
C624 C175 1.664 . S
C641 C271 1.651 . S
C660 C209 1.659 . S
C677 C169 1.653 . S
C696 C243 1.665 . S
C713 C20 1.755 . S
C732 C258 1.752 . S
C749 C54 1.755 . S
C768 C156 1.756 . S
C785 C190 1.755 . S
C804 C88 1.755 . S
C821 C224 1.755 . S
C840 C122 1.754 . S
C857 C70 1.903 . S
C876 C172 1.908 . S
C893 C206 1.902 . S
C912 C104 1.902 . S
C929 C240 1.902 . S
C948 C2 1.895 . S
C965 C138 1.905 . S
C984 C36 1.908 . S
