# Generated by pormake.
# Topology uku, (4)-cn, num edge types: 1
# Building blocks:
#     Node 0, Type 0, BuildingBlock: KUFVIS_clean_sbu_0, # of connection points: 4
#     Node 1, Type 0, BuildingBlock: KUFVIS_clean_sbu_0, # of connection points: 4
#     Node 2, Type 0, BuildingBlock: KUFVIS_clean_sbu_0, # of connection points: 4
#     Node 3, Type 0, BuildingBlock: KUFVIS_clean_sbu_0, # of connection points: 4
#     Node 4, Type 0, BuildingBlock: KUFVIS_clean_sbu_0, # of connection points: 4
#     Node 5, Type 0, BuildingBlock: KUFVIS_clean_sbu_0, # of connection points: 4
#     Node 6, Type 0, BuildingBlock: KUFVIS_clean_sbu_0, # of connection points: 4
#     Node 7, Type 0, BuildingBlock: KUFVIS_clean_sbu_0, # of connection points: 4
#     Node 8, Type 0, BuildingBlock: KUFVIS_clean_sbu_0, # of connection points: 4
#     Node 9, Type 0, BuildingBlock: KUFVIS_clean_sbu_0, # of connection points: 4
#     Node 10, Type 0, BuildingBlock: KUFVIS_clean_sbu_0, # of connection points: 4
#     Node 11, Type 0, BuildingBlock: KUFVIS_clean_sbu_0, # of connection points: 4
#     Edge 12, Type (0, 0), BuildingBlock: OJICUG_clean_linker_0, # of connection points: 2
#     Edge 13, Type (0, 0), BuildingBlock: OJICUG_clean_linker_0, # of connection points: 2
#     Edge 14, Type (0, 0), BuildingBlock: OJICUG_clean_linker_0, # of connection points: 2
#     Edge 15, Type (0, 0), BuildingBlock: OJICUG_clean_linker_0, # of connection points: 2
#     Edge 16, Type (0, 0), BuildingBlock: OJICUG_clean_linker_0, # of connection points: 2
#     Edge 17, Type (0, 0), BuildingBlock: OJICUG_clean_linker_0, # of connection points: 2
#     Edge 18, Type (0, 0), BuildingBlock: OJICUG_clean_linker_0, # of connection points: 2
#     Edge 19, Type (0, 0), BuildingBlock: OJICUG_clean_linker_0, # of connection points: 2
#     Edge 20, Type (0, 0), BuildingBlock: OJICUG_clean_linker_0, # of connection points: 2
#     Edge 21, Type (0, 0), BuildingBlock: OJICUG_clean_linker_0, # of connection points: 2
#     Edge 22, Type (0, 0), BuildingBlock: OJICUG_clean_linker_0, # of connection points: 2
#     Edge 23, Type (0, 0), BuildingBlock: OJICUG_clean_linker_0, # of connection points: 2
#     Edge 24, Type (0, 0), BuildingBlock: OJICUG_clean_linker_0, # of connection points: 2
#     Edge 25, Type (0, 0), BuildingBlock: OJICUG_clean_linker_0, # of connection points: 2
#     Edge 26, Type (0, 0), BuildingBlock: OJICUG_clean_linker_0, # of connection points: 2
#     Edge 27, Type (0, 0), BuildingBlock: OJICUG_clean_linker_0, # of connection points: 2
#     Edge 28, Type (0, 0), BuildingBlock: OJICUG_clean_linker_0, # of connection points: 2
#     Edge 29, Type (0, 0), BuildingBlock: OJICUG_clean_linker_0, # of connection points: 2
#     Edge 30, Type (0, 0), BuildingBlock: OJICUG_clean_linker_0, # of connection points: 2
#     Edge 31, Type (0, 0), BuildingBlock: OJICUG_clean_linker_0, # of connection points: 2
#     Edge 32, Type (0, 0), BuildingBlock: OJICUG_clean_linker_0, # of connection points: 2
#     Edge 33, Type (0, 0), BuildingBlock: OJICUG_clean_linker_0, # of connection points: 2
#     Edge 34, Type (0, 0), BuildingBlock: OJICUG_clean_linker_0, # of connection points: 2
#     Edge 35, Type (0, 0), BuildingBlock: OJICUG_clean_linker_0, # of connection points: 2
# Relax obj value: 0.400
# Max RMSD: 0.284
# Mean RMSD: 0.284
data_MOF--net-uku--node1-KUFVIS_clean_sbu_0--edge1-OJICUG_clean_linker_0
_symmetry_space_group_name_H-M    P1
_symmetry_Int_Tables_number       1
_symmetry_cell_setting            triclinic
loop_
_symmetry_equiv_pos_as_xyz
'x, y, z'
_cell_length_a     29.98181
_cell_length_b     29.976209
_cell_length_c     29.983956
_cell_angle_alpha  90.001846
_cell_angle_beta   90.013774
_cell_angle_gamma 89.996814
loop_
_atom_site_label
_atom_site_type_symbol
_atom_site_fract_x
_atom_site_fract_y
_atom_site_fract_z
_atom_type_partial_charge
Mn0 Mn 0.07888 0.15912 0.65387 0.0
Mn1 Mn 0.97209 0.18109 0.67895 0.0
C2 C 0.06201 0.22308 0.69235 0.0
C3 C 0.1415 0.1193 0.67416 0.0
C4 C 0.01231 0.19301 0.5866 0.0
O5 O 0.04779 0.10106 0.64318 0.0
O6 O 0.97891 0.11521 0.66944 0.0
C7 C 0.96215 0.13476 0.76564 0.0
N8 N 0.96134 0.17316 0.74134 0.0
C9 C 0.94068 0.21614 0.80594 0.0
C10 C 0.94121 0.17704 0.8316 0.0
C11 C 0.95192 0.13617 0.81133 0.0
C12 C 0.95046 0.21257 0.76038 0.0
H13 H 0.97048 0.10326 0.75029 0.0
C14 C 0.00905 0.08857 0.65464 0.0
O15 O 0.13621 0.13203 0.63297 0.0
O16 O 0.11178 0.13156 0.70293 0.0
N17 N 0.96247 0.24327 0.69007 0.0
C18 C 0.96562 0.2782 0.66117 0.0
C19 C 0.95747 0.32168 0.67659 0.0
C20 C 0.94615 0.32879 0.72149 0.0
C21 C 0.9431 0.29233 0.75062 0.0
C22 C 0.95137 0.24974 0.73331 0.0
H23 H 0.97456 0.27297 0.6267 0.0
O24 O 0.09978 0.21929 0.67149 0.0
O25 O 0.03576 0.18854 0.69035 0.0
O26 O 0.0526 0.18417 0.59686 0.0
O27 O 0.9799 0.19101 0.61426 0.0
C28 C 0.93288 0.29668 0.7963 0.0
C29 C 0.93155 0.2586 0.82392 0.0
H30 H 0.9337 0.17804 0.86694 0.0
H31 H 0.95241 0.10584 0.83091 0.0
H32 H 0.96005 0.34967 0.65395 0.0
H33 H 0.94016 0.36241 0.73329 0.0
H34 H 0.92634 0.32921 0.81062 0.0
H35 H 0.92397 0.26241 0.85905 0.0
Mn36 Mn 0.90814 0.82787 0.65507 0.0
Mn37 Mn 0.01494 0.80676 0.68109 0.0
C38 C 0.92524 0.76439 0.69422 0.0
C39 C 0.84494 0.86714 0.6746 0.0
C40 C 0.9754 0.79356 0.58863 0.0
O41 O 0.93884 0.88613 0.64424 0.0
O42 O 0.00781 0.87243 0.67058 0.0
C43 C 0.02416 0.8544 0.76715 0.0
N44 N 0.02525 0.81564 0.74343 0.0
C45 C 0.04574 0.77373 0.80878 0.0
C46 C 0.04489 0.8132 0.83386 0.0
C47 C 0.03413 0.85372 0.81292 0.0
C48 C 0.03621 0.77658 0.76312 0.0
H49 H 0.0158 0.88564 0.75128 0.0
C50 C 0.97757 0.89884 0.65555 0.0
O51 O 0.85069 0.85423 0.63354 0.0
O52 O 0.87462 0.85548 0.70367 0.0
N53 N 0.02484 0.7448 0.69317 0.0
C54 C 0.02206 0.70943 0.66476 0.0
C55 C 0.03032 0.66623 0.68087 0.0
C56 C 0.04137 0.65983 0.72595 0.0
C57 C 0.04405 0.69672 0.75457 0.0
C58 C 0.03568 0.73902 0.73658 0.0
H59 H 0.01331 0.71411 0.63015 0.0
O60 O 0.88762 0.76767 0.67297 0.0
O61 O 0.95124 0.7991 0.69213 0.0
O62 O 0.93504 0.80259 0.59845 0.0
O63 O 0.00761 0.79584 0.61651 0.0
C64 C 0.05399 0.69309 0.80037 0.0
C65 C 0.05496 0.73158 0.82744 0.0
H66 H 0.05221 0.81276 0.86925 0.0
H67 H 0.03341 0.88433 0.83204 0.0
H68 H 0.02803 0.63789 0.65862 0.0
H69 H 0.04745 0.62641 0.73828 0.0
H70 H 0.06059 0.66081 0.81522 0.0
H71 H 0.06234 0.72833 0.86267 0.0
Mn72 Mn 0.08175 0.82769 0.33534 0.0
Mn73 Mn 0.97501 0.80457 0.311 0.0
C74 C 0.06532 0.76405 0.29606 0.0
C75 C 0.14358 0.86865 0.31483 0.0
C76 C 0.01635 0.79232 0.40287 0.0
O77 O 0.0499 0.88516 0.34715 0.0
O78 O 0.98109 0.87041 0.32095 0.0
C79 C 0.96342 0.85141 0.2248 0.0
N80 N 0.96344 0.81281 0.2488 0.0
C81 C 0.94264 0.77005 0.1841 0.0
C82 C 0.94233 0.80935 0.15874 0.0
C83 C 0.95269 0.85021 0.17921 0.0
C84 C 0.95287 0.77341 0.22958 0.0
H85 H 0.97149 0.88291 0.2403 0.0
C86 C 0.01094 0.89727 0.33595 0.0
O87 O 0.13897 0.85531 0.3559 0.0
O88 O 0.11366 0.8564 0.28627 0.0
N89 N 0.96614 0.74234 0.29951 0.0
C90 C 0.97014 0.70724 0.32809 0.0
C91 C 0.96245 0.66377 0.31243 0.0
C92 C 0.95072 0.65684 0.2676 0.0
C93 C 0.94679 0.69347 0.23879 0.0
C94 C 0.95463 0.73605 0.25635 0.0
H95 H 0.97942 0.71232 0.36251 0.0
O96 O 0.10328 0.76803 0.31656 0.0
O97 O 0.03863 0.79817 0.29894 0.0
O98 O 0.05648 0.80155 0.39233 0.0
O99 O 0.98368 0.79428 0.3755 0.0
C100 C 0.93613 0.68933 0.19319 0.0
C101 C 0.93394 0.7276 0.16589 0.0
H102 H 0.93444 0.80851 0.12348 0.0
H103 H 0.95253 0.88069 0.15987 0.0
H104 H 0.96571 0.63564 0.33481 0.0
H105 H 0.94509 0.62322 0.25559 0.0
H106 H 0.92992 0.65682 0.17868 0.0
H107 H 0.92605 0.72394 0.13081 0.0
Mn108 Mn 0.90685 0.15671 0.33283 0.0
Mn109 Mn 0.01391 0.17889 0.30894 0.0
C110 C 0.92408 0.22024 0.29382 0.0
C111 C 0.84444 0.11674 0.3121 0.0
C112 C 0.97239 0.19188 0.40055 0.0
O113 O 0.93796 0.09884 0.34456 0.0
O114 O 0.00729 0.1132 0.31959 0.0
C115 C 0.02529 0.13104 0.22325 0.0
N116 N 0.02555 0.16989 0.24686 0.0
C117 C 0.04689 0.21179 0.18179 0.0
C118 C 0.04691 0.17223 0.15683 0.0
C119 C 0.03613 0.13168 0.17769 0.0
C120 C 0.0365 0.209 0.22726 0.0
H121 H 0.01691 0.09978 0.23906 0.0
C122 C 0.97707 0.08653 0.33418 0.0
O123 O 0.84924 0.12984 0.35323 0.0
O124 O 0.87462 0.12855 0.28363 0.0
N125 N 0.02341 0.2409 0.29684 0.0
C126 C 0.01973 0.27633 0.32507 0.0
C127 C 0.02789 0.31956 0.30899 0.0
C128 C 0.03977 0.32592 0.26412 0.0
C129 C 0.04338 0.28896 0.23569 0.0
C130 C 0.03506 0.24664 0.25364 0.0
H131 H 0.01034 0.27167 0.35951 0.0
O132 O 0.88605 0.21663 0.31424 0.0
O133 O 0.95039 0.18581 0.29657 0.0
O134 O 0.93232 0.18244 0.38996 0.0
O135 O 0.00513 0.18993 0.37328 0.0
C136 C 0.05418 0.29253 0.19008 0.0
C137 C 0.05606 0.25397 0.16317 0.0
H138 H 0.05491 0.17263 0.12159 0.0
H139 H 0.03607 0.101 0.15866 0.0
H140 H 0.02488 0.34794 0.33109 0.0
H141 H 0.04577 0.35935 0.2518 0.0
H142 H 0.06076 0.32483 0.17527 0.0
H143 H 0.0641 0.25718 0.12809 0.0
Mn144 Mn 0.6538 0.07973 0.15643 0.0
Mn145 Mn 0.67754 0.97268 0.17892 0.0
C146 C 0.69268 0.06265 0.22007 0.0
C147 C 0.6746 0.1419 0.11613 0.0
C148 C 0.58597 0.01442 0.19169 0.0
O149 O 0.64198 0.04842 0.09872 0.0
O150 O 0.66714 0.97917 0.11318 0.0
C151 C 0.76338 0.96107 0.13142 0.0
N152 N 0.73964 0.96091 0.17017 0.0
C153 C 0.80453 0.93948 0.21233 0.0
C154 C 0.82962 0.93935 0.17287 0.0
C155 C 0.80892 0.95012 0.13224 0.0
C156 C 0.75909 0.94996 0.20936 0.0
H157 H 0.74769 0.96944 0.1001 0.0
C158 C 0.65251 0.00933 0.08646 0.0
O159 O 0.63347 0.13724 0.12929 0.0
O160 O 0.70305 0.11175 0.12812 0.0
N161 N 0.68942 0.96329 0.24098 0.0
C162 C 0.66108 0.9671 0.27629 0.0
C163 C 0.67701 0.95898 0.31958 0.0
C164 C 0.72183 0.947 0.32612 0.0
C165 C 0.75037 0.94325 0.28928 0.0
C166 C 0.73257 0.95153 0.24689 0.0
H167 H 0.62667 0.97657 0.2715 0.0
O168 O 0.67241 0.10075 0.21625 0.0
O169 O 0.68997 0.03622 0.18573 0.0
O170 O 0.59665 0.05448 0.18227 0.0
O171 O 0.61317 0.9816 0.18972 0.0
C172 C 0.79595 0.93234 0.29303 0.0
C173 C 0.82298 0.93033 0.25458 0.0
H174 H 0.86484 0.93127 0.17341 0.0
H175 H 0.82805 0.95009 0.10164 0.0
H176 H 0.65482 0.9621 0.34787 0.0
H177 H 0.73403 0.94103 0.3596 0.0
H178 H 0.81064 0.92578 0.32538 0.0
H179 H 0.85804 0.92222 0.25793 0.0
Mn180 Mn 0.33233 0.90888 0.15896 0.0
Mn181 Mn 0.30763 0.0158 0.1809 0.0
C182 C 0.29389 0.9259 0.22286 0.0
C183 C 0.3119 0.84634 0.11907 0.0
C184 C 0.3998 0.97517 0.19303 0.0
O185 O 0.34325 0.93994 0.10097 0.0
O186 O 0.31734 0.00898 0.11507 0.0
C187 C 0.22111 0.02609 0.13431 0.0
N188 N 0.2453 0.0268 0.17278 0.0
C189 C 0.18067 0.04776 0.21553 0.0
C190 C 0.15511 0.04734 0.17636 0.0
C191 C 0.17546 0.03652 0.13557 0.0
C192 C 0.22619 0.03777 0.21212 0.0
H193 H 0.23652 0.01767 0.10287 0.0
C194 C 0.33208 0.97877 0.08847 0.0
O195 O 0.35308 0.85149 0.13188 0.0
O196 O 0.2832 0.87616 0.13129 0.0
N197 N 0.29637 0.02547 0.24303 0.0
C198 C 0.32516 0.02223 0.27805 0.0
C199 C 0.30966 0.03048 0.32146 0.0
C200 C 0.26478 0.04199 0.32842 0.0
C201 C 0.23576 0.04515 0.29188 0.0
C202 C 0.25315 0.03676 0.24936 0.0
H203 H 0.35962 0.01313 0.27293 0.0
O204 O 0.31458 0.88801 0.21906 0.0
O205 O 0.29597 0.95216 0.18833 0.0
O206 O 0.3894 0.93492 0.18412 0.0
O207 O 0.37226 0.00771 0.19103 0.0
C208 C 0.19011 0.05558 0.29608 0.0
C209 C 0.1626 0.057 0.25792 0.0
H210 H 0.11981 0.05501 0.17725 0.0
H211 H 0.15597 0.03611 0.10519 0.0
H212 H 0.33221 0.02782 0.34951 0.0
H213 H 0.2529 0.04807 0.362 0.0
H214 H 0.17572 0.06221 0.32855 0.0
H215 H 0.12749 0.06475 0.26161 0.0
Mn216 Mn 0.65225 0.90538 0.82724 0.0
Mn217 Mn 0.67688 0.0122 0.80471 0.0
C218 C 0.69155 0.92206 0.76372 0.0
C219 C 0.67254 0.84317 0.86776 0.0
C220 C 0.58491 0.97123 0.79216 0.0
O221 O 0.6406 0.9369 0.8849 0.0
O222 O 0.66672 0.00581 0.87047 0.0
C223 C 0.76298 0.02333 0.85187 0.0
N224 N 0.7391 0.02355 0.81321 0.0
C225 C 0.80396 0.04443 0.77077 0.0
C226 C 0.82921 0.04449 0.81014 0.0
C227 C 0.80859 0.03397 0.85087 0.0
C228 C 0.75846 0.03427 0.77393 0.0
H229 H 0.74736 0.01516 0.88328 0.0
C230 C 0.65173 0.97582 0.89718 0.0
O231 O 0.63147 0.84805 0.85448 0.0
O232 O 0.70122 0.87306 0.8557 0.0
N233 N 0.68857 0.02137 0.74258 0.0
C234 C 0.66007 0.01766 0.70738 0.0
C235 C 0.67588 0.02556 0.66402 0.0
C236 C 0.72076 0.03721 0.65729 0.0
C237 C 0.74947 0.04084 0.69402 0.0
C238 C 0.73179 0.0328 0.73649 0.0
H239 H 0.62562 0.00845 0.71232 0.0
O240 O 0.67089 0.88416 0.76745 0.0
O241 O 0.68878 0.94856 0.79799 0.0
O242 O 0.59531 0.93103 0.80129 0.0
O243 O 0.61239 0.0038 0.7942 0.0
C244 C 0.79511 0.05142 0.69008 0.0
C245 C 0.82231 0.05333 0.72844 0.0
H246 H 0.86448 0.05233 0.80946 0.0
H247 H 0.82784 0.03396 0.88141 0.0
H248 H 0.65356 0.02253 0.63581 0.0
H249 H 0.73287 0.04301 0.62375 0.0
H250 H 0.80973 0.05779 0.65766 0.0
H251 H 0.85742 0.06118 0.72494 0.0
Mn252 Mn 0.33261 0.07966 0.8278 0.0
Mn253 Mn 0.30679 0.97279 0.80676 0.0
C254 C 0.29342 0.06245 0.76436 0.0
C255 C 0.31295 0.14288 0.86702 0.0
C256 C 0.39917 0.01248 0.79354 0.0
O257 O 0.34352 0.04902 0.88608 0.0
O258 O 0.31729 0.98 0.8724 0.0
C259 C 0.22078 0.96339 0.85443 0.0
N260 N 0.24447 0.96234 0.81567 0.0
C261 C 0.17916 0.94161 0.77381 0.0
C262 C 0.1541 0.94241 0.81329 0.0
C263 C 0.17504 0.95327 0.85377 0.0
C264 C 0.2248 0.95128 0.77663 0.0
H265 H 0.23664 0.97181 0.88565 0.0
C266 C 0.33226 0.01028 0.8988 0.0
O267 O 0.35402 0.1372 0.85411 0.0
O268 O 0.28395 0.11312 0.85539 0.0
N269 N 0.2947 0.96282 0.74483 0.0
C270 C 0.32308 0.96563 0.70946 0.0
C271 C 0.30698 0.95727 0.66628 0.0
C272 C 0.26193 0.94609 0.65991 0.0
C273 C 0.23333 0.94338 0.69681 0.0
C274 C 0.25131 0.95185 0.73908 0.0
H275 H 0.35767 0.97448 0.71412 0.0
O276 O 0.31461 0.10011 0.7676 0.0
O277 O 0.29561 0.03647 0.79908 0.0
O278 O 0.38929 0.05284 0.80254 0.0
O279 O 0.37134 0.98024 0.79583 0.0
C280 C 0.18755 0.9333 0.6932 0.0
C281 C 0.16051 0.93229 0.73169 0.0
H282 H 0.11874 0.93497 0.81286 0.0
H283 H 0.15594 0.95395 0.88439 0.0
H284 H 0.32921 0.95959 0.63795 0.0
H285 H 0.24959 0.93993 0.62651 0.0
H286 H 0.17271 0.92661 0.66094 0.0
H287 H 0.1253 0.92479 0.72846 0.0
Mn288 Mn 0.15859 0.65505 0.07922 0.0
Mn289 Mn 0.17941 0.68093 0.97234 0.0
C290 C 0.22189 0.69438 0.06192 0.0
C291 C 0.11953 0.67462 0.14254 0.0
C292 C 0.19308 0.58859 0.012 0.0
O293 O 0.10026 0.64403 0.04871 0.0
O294 O 0.11385 0.66996 0.97958 0.0
C295 C 0.13113 0.76665 0.96306 0.0
N296 N 0.17006 0.74321 0.96195 0.0
C297 C 0.21145 0.80883 0.94128 0.0
C298 C 0.1718 0.83363 0.94214 0.0
C299 C 0.13146 0.81241 0.953 0.0
C300 C 0.20895 0.76316 0.9509 0.0
H301 H 0.10003 0.75057 0.97149 0.0
C302 C 0.08751 0.65501 0.0099 0.0
O303 O 0.13249 0.63356 0.1368 0.0
O304 O 0.13099 0.70365 0.11275 0.0
N305 N 0.24125 0.69344 0.96232 0.0
C306 C 0.27681 0.66528 0.96506 0.0
C307 C 0.31987 0.68168 0.95668 0.0
C308 C 0.32593 0.7268 0.94555 0.0
C309 C 0.28883 0.75515 0.94291 0.0
C310 C 0.24669 0.73689 0.95141 0.0
H311 H 0.2724 0.63064 0.97387 0.0
O312 O 0.21879 0.67314 0.09955 0.0
O313 O 0.18713 0.69215 0.036 0.0
O314 O 0.18392 0.59842 0.05233 0.0
O315 O 0.19079 0.61644 0.97977 0.0
C316 C 0.2921 0.80098 0.93288 0.0
C317 C 0.25343 0.82778 0.93194 0.0
H318 H 0.17197 0.86901 0.93474 0.0
H319 H 0.10072 0.83131 0.95373 0.0
H320 H 0.34837 0.65963 0.95894 0.0
H321 H 0.35923 0.73936 0.93937 0.0
H322 H 0.32426 0.81604 0.92618 0.0
H323 H 0.25641 0.86302 0.92448 0.0
Mn324 Mn 0.15983 0.33528 0.90517 0.0
Mn325 Mn 0.18251 0.31082 0.01196 0.0
C326 C 0.22349 0.29615 0.92185 0.0
C327 C 0.11929 0.31477 0.84305 0.0
C328 C 0.19477 0.4028 0.97089 0.0
O329 O 0.10216 0.34684 0.9367 0.0
O330 O 0.1167 0.32074 0.00558 0.0
C331 C 0.13565 0.22455 0.02315 0.0
N332 N 0.17424 0.24857 0.02337 0.0
C333 C 0.21692 0.18385 0.04428 0.0
C334 C 0.17764 0.15846 0.04435 0.0
C335 C 0.13683 0.17894 0.03381 0.0
C336 C 0.21359 0.22935 0.0341 0.0
H337 H 0.10419 0.24006 0.01496 0.0
C338 C 0.08992 0.33565 0.97561 0.0
O339 O 0.13246 0.35588 0.84784 0.0
O340 O 0.13148 0.28618 0.87298 0.0
N341 N 0.24468 0.29933 0.02113 0.0
C342 C 0.27978 0.32795 0.01739 0.0
C343 C 0.32321 0.31229 0.0253 0.0
C344 C 0.3301 0.26744 0.03698 0.0
C345 C 0.29347 0.2386 0.04064 0.0
C346 C 0.25094 0.25614 0.03259 0.0
H347 H 0.27472 0.36239 0.00816 0.0
O348 O 0.21966 0.31676 0.88393 0.0
O349 O 0.18924 0.29887 0.94836 0.0
O350 O 0.18565 0.39233 0.93071 0.0
O351 O 0.19279 0.37535 0.00349 0.0
C352 C 0.29758 0.19297 0.05125 0.0
C353 C 0.25932 0.16564 0.05318 0.0
H354 H 0.17845 0.12319 0.0522 0.0
H355 H 0.10636 0.15958 0.0338 0.0
H356 H 0.35134 0.33471 0.02225 0.0
H357 H 0.36369 0.25544 0.04279 0.0
H358 H 0.33006 0.17847 0.05763 0.0
H359 H 0.26295 0.13054 0.06105 0.0
Mn360 Mn 0.82759 0.65345 0.90795 0.0
Mn361 Mn 0.80533 0.67811 0.01477 0.0
C362 C 0.76372 0.69208 0.92475 0.0
C363 C 0.86776 0.67389 0.84564 0.0
C364 C 0.7933 0.58596 0.97402 0.0
O365 O 0.88547 0.64236 0.93925 0.0
O366 O 0.87119 0.66848 0.00816 0.0
C367 C 0.85179 0.76467 0.02531 0.0
N368 N 0.81334 0.74044 0.02585 0.0
C369 C 0.77043 0.80505 0.04665 0.0
C370 C 0.80958 0.83064 0.0464 0.0
C371 C 0.85044 0.81033 0.03574 0.0
C372 C 0.77394 0.75952 0.03666 0.0
H373 H 0.88328 0.74929 0.01702 0.0
C374 C 0.89788 0.65367 0.97807 0.0
O375 O 0.85485 0.63272 0.85065 0.0
O376 O 0.85549 0.70258 0.87544 0.0
N377 N 0.74315 0.68931 0.0242 0.0
C378 C 0.70817 0.66049 0.02079 0.0
C379 C 0.66471 0.67597 0.02886 0.0
C380 C 0.65765 0.72084 0.04036 0.0
C381 C 0.69415 0.74989 0.04368 0.0
C382 C 0.73673 0.73253 0.03548 0.0
H383 H 0.71336 0.62604 0.0117 0.0
O384 O 0.76759 0.67141 0.88688 0.0
O385 O 0.79814 0.68983 0.95114 0.0
O386 O 0.80223 0.5964 0.93381 0.0
O387 O 0.79531 0.61345 0.00659 0.0
C388 C 0.68986 0.79554 0.0541 0.0
C389 C 0.72799 0.82308 0.0557 0.0
H390 H 0.80863 0.86595 0.05407 0.0
H391 H 0.8808 0.82985 0.03547 0.0
H392 H 0.63668 0.65339 0.02607 0.0
H393 H 0.62404 0.73269 0.04629 0.0
H394 H 0.65735 0.8099 0.06059 0.0
H395 H 0.72423 0.85819 0.06344 0.0
Mn396 Mn 0.83019 0.33203 0.07881 0.0
Mn397 Mn 0.80836 0.3082 0.97164 0.0
C398 C 0.76665 0.2932 0.06131 0.0
C399 C 0.86987 0.31135 0.14142 0.0
C400 C 0.79508 0.39977 0.0132 0.0
O401 O 0.88818 0.34369 0.04798 0.0
O402 O 0.87399 0.31905 0.9785 0.0
C403 C 0.85652 0.22265 0.96041 0.0
N404 N 0.81761 0.24614 0.95999 0.0
C405 C 0.77604 0.18097 0.93825 0.0
C406 C 0.81567 0.15613 0.93839 0.0
C407 C 0.85609 0.1771 0.94945 0.0
C408 C 0.77863 0.22643 0.94878 0.0
H409 H 0.88768 0.23854 0.96899 0.0
C410 C 0.90058 0.33352 0.00885 0.0
O411 O 0.85684 0.35249 0.1365 0.0
O412 O 0.85817 0.28283 0.11122 0.0
N413 N 0.74644 0.29591 0.96184 0.0
C414 C 0.71092 0.32404 0.96534 0.0
C415 C 0.66779 0.30784 0.95688 0.0
C416 C 0.66164 0.26296 0.94487 0.0
C417 C 0.6987 0.23464 0.94143 0.0
C418 C 0.7409 0.2527 0.95006 0.0
H419 H 0.71542 0.35849 0.97482 0.0
O420 O 0.7702 0.31359 0.09937 0.0
O421 O 0.80119 0.29577 0.03514 0.0
O422 O 0.80461 0.38917 0.05325 0.0
O423 O 0.79706 0.37252 0.98043 0.0
C424 C 0.69533 0.18903 0.93048 0.0
C425 C 0.73398 0.16224 0.92877 0.0
H426 H 0.81543 0.1209 0.93029 0.0
H427 H 0.88682 0.15817 0.94963 0.0
H428 H 0.63933 0.32986 0.95975 0.0
H429 H 0.62829 0.25055 0.93863 0.0
H430 H 0.66313 0.17414 0.92365 0.0
H431 H 0.73093 0.12716 0.9206 0.0
C432 C 0.02665 0.20453 0.46239 0.0
C433 C 0.98223 0.20134 0.44777 0.0
H434 H 0.07109 0.20478 0.51796 0.0
C435 C 0.94765 0.20252 0.47937 0.0
H436 H 0.0541 0.20442 0.43891 0.0
C437 C 0.95743 0.20288 0.52478 0.0
C438 C 0.00195 0.20186 0.53939 0.0
H439 H 0.91302 0.20087 0.46919 0.0
H440 H 0.93003 0.2014 0.54828 0.0
C441 C 0.03642 0.20469 0.50779 0.0
C442 C 0.04073 0.78276 0.48195 0.0
C443 C 0.00633 0.7833 0.45013 0.0
H444 H 0.05795 0.78503 0.55095 0.0
C445 C 0.96184 0.78005 0.46453 0.0
H446 H 0.07541 0.78447 0.47196 0.0
C447 C 0.95181 0.78054 0.50986 0.0
C448 C 0.98609 0.78405 0.54162 0.0
H449 H 0.93452 0.77967 0.44089 0.0
H450 H 0.91709 0.78039 0.51983 0.0
C451 C 0.0307 0.78303 0.5273 0.0
C452 C 0.46182 0.02981 0.20299 0.0
C453 C 0.44705 0.98533 0.2019 0.0
H454 H 0.51755 0.07402 0.20097 0.0
C455 C 0.47855 0.95073 0.20458 0.0
H456 H 0.4384 0.0573 0.20163 0.0
C457 C 0.52398 0.96034 0.20434 0.0
C458 C 0.53874 0.00472 0.20121 0.0
H459 H 0.46825 0.91609 0.20461 0.0
H460 H 0.54737 0.9328 0.2041 0.0
C461 C 0.50726 0.03942 0.20255 0.0
C462 C 0.52333 0.02598 0.78035 0.0
C463 C 0.53767 0.98144 0.78316 0.0
H464 H 0.46809 0.07084 0.78107 0.0
C465 C 0.5058 0.94709 0.78225 0.0
H466 H 0.54702 0.05327 0.78028 0.0
C467 C 0.46046 0.9572 0.78257 0.0
C468 C 0.4462 0.00183 0.78401 0.0
H469 H 0.51573 0.91237 0.78362 0.0
H470 H 0.43678 0.92996 0.78424 0.0
C471 C 0.47801 0.03609 0.78087 0.0
C472 C 0.20445 0.48193 0.94667 0.0
C473 C 0.20369 0.45008 0.98103 0.0
H474 H 0.20227 0.55095 0.92949 0.0
C475 C 0.20661 0.46446 0.02555 0.0
H476 H 0.20299 0.47196 0.91197 0.0
C477 C 0.20604 0.50979 0.03562 0.0
C478 C 0.20274 0.54158 0.00135 0.0
H479 H 0.20682 0.44079 0.05285 0.0
H480 H 0.20592 0.51974 0.07035 0.0
C481 C 0.20408 0.52729 0.95674 0.0
C482 C 0.78324 0.52389 0.02857 0.0
C483 C 0.78447 0.53867 0.98412 0.0
H484 H 0.78528 0.46814 0.07276 0.0
C485 C 0.78201 0.50718 0.9495 0.0
H486 H 0.78442 0.54729 0.05607 0.0
C487 C 0.78238 0.46173 0.95909 0.0
C488 C 0.7854 0.44697 0.00347 0.0
H489 H 0.78209 0.51749 0.91488 0.0
H490 H 0.78281 0.43835 0.93155 0.0
C491 C 0.7838 0.47843 0.03816 0.0
C492 C 0.17541 0.06931 0.72979 0.0
C493 C 0.17957 0.09263 0.68943 0.0
H494 H 0.20913 0.04212 0.7858 0.0
C495 C 0.22136 0.09538 0.66862 0.0
H496 H 0.14337 0.06613 0.74622 0.0
C497 C 0.25932 0.07978 0.69091 0.0
C498 C 0.25544 0.06113 0.73375 0.0
H499 H 0.22523 0.11307 0.63736 0.0
H500 H 0.29191 0.08602 0.67662 0.0
C501 C 0.21306 0.05434 0.75206 0.0
C502 C 0.77184 0.93121 0.75173 0.0
C503 C 0.72966 0.92353 0.73329 0.0
H504 H 0.84177 0.9208 0.74624 0.0
C505 C 0.7263 0.90444 0.69059 0.0
H506 H 0.7754 0.94377 0.78539 0.0
C507 C 0.76464 0.88944 0.66855 0.0
C508 C 0.8063 0.89321 0.68948 0.0
H509 H 0.69388 0.89747 0.67623 0.0
H510 H 0.76123 0.87143 0.63742 0.0
C511 C 0.80986 0.91687 0.7297 0.0
C512 C 0.21382 0.9346 0.2366 0.0
C513 C 0.25649 0.9275 0.25415 0.0
H514 H 0.14421 0.92281 0.24343 0.0
C515 C 0.26101 0.90856 0.29681 0.0
H516 H 0.20939 0.9471 0.20303 0.0
C517 C 0.22339 0.89283 0.31956 0.0
C518 C 0.18129 0.89575 0.2994 0.0
H519 H 0.29382 0.9021 0.31051 0.0
H520 H 0.22776 0.87482 0.35057 0.0
C521 C 0.1765 0.91949 0.25935 0.0
C522 C 0.72619 0.07942 0.29391 0.0
C523 C 0.73025 0.06064 0.25114 0.0
H524 H 0.76021 0.11205 0.34788 0.0
C525 C 0.77272 0.05293 0.23341 0.0
H526 H 0.69354 0.08636 0.30774 0.0
C527 C 0.81038 0.06712 0.25619 0.0
C528 C 0.80616 0.09057 0.29647 0.0
H529 H 0.77681 0.04052 0.19975 0.0
H530 H 0.84257 0.06329 0.24018 0.0
C531 C 0.76416 0.09422 0.31671 0.0
C532 C 0.66994 0.222 0.09295 0.0
C533 C 0.69022 0.17998 0.08967 0.0
H534 H 0.67887 0.29256 0.08461 0.0
C535 C 0.73049 0.17558 0.06623 0.0
H536 H 0.63876 0.22606 0.11073 0.0
C537 C 0.75326 0.21315 0.05175 0.0
C538 C 0.73553 0.25568 0.05922 0.0
H539 H 0.74651 0.14336 0.06265 0.0
H540 H 0.78692 0.20897 0.03941 0.0
C541 C 0.69272 0.25986 0.07788 0.0
C542 C 0.23397 0.77481 0.05402 0.0
C543 C 0.25241 0.73244 0.06061 0.0
H544 H 0.23963 0.84448 0.0661 0.0
C545 C 0.29531 0.7286 0.07917 0.0
H546 H 0.20021 0.77869 0.04183 0.0
C547 C 0.31752 0.76656 0.09489 0.0
C548 C 0.29658 0.80831 0.09236 0.0
H549 H 0.3097 0.69601 0.08526 0.0
H550 H 0.34883 0.76269 0.11249 0.0
C551 C 0.25616 0.81246 0.06913 0.0
C552 C 0.75042 0.77223 0.93345 0.0
C553 C 0.73264 0.72968 0.92623 0.0
H554 H 0.74397 0.84193 0.92187 0.0
C555 C 0.69 0.72544 0.90718 0.0
H556 H 0.78399 0.77645 0.94604 0.0
C557 C 0.66746 0.76324 0.89153 0.0
C558 C 0.68782 0.80523 0.89463 0.0
H559 H 0.67613 0.69272 0.90061 0.0
H560 H 0.63644 0.7591 0.87348 0.0
C561 C 0.72789 0.80973 0.91842 0.0
C562 C 0.31882 0.22322 0.88924 0.0
C563 C 0.298 0.18151 0.89306 0.0
H564 H 0.31098 0.29399 0.89722 0.0
C565 C 0.2578 0.17789 0.91673 0.0
H566 H 0.34993 0.22669 0.87122 0.0
C567 C 0.23568 0.21588 0.93107 0.0
C568 C 0.25402 0.2581 0.92334 0.0
H569 H 0.24135 0.14594 0.9207 0.0
H570 H 0.20205 0.21225 0.94364 0.0
C571 C 0.2967 0.26154 0.90422 0.0
C572 C 0.083 0.69089 0.26136 0.0
C573 C 0.06382 0.73356 0.258 0.0
H574 H 0.11585 0.63765 0.22636 0.0
C575 C 0.05586 0.75189 0.21583 0.0
H576 H 0.09019 0.67662 0.29377 0.0
C577 C 0.06997 0.72976 0.17778 0.0
C578 C 0.09368 0.68955 0.18129 0.0
H579 H 0.04324 0.78553 0.21227 0.0
H580 H 0.06581 0.74621 0.14586 0.0
C581 C 0.09777 0.66876 0.22298 0.0
C582 C 0.07957 0.29691 0.7255 0.0
C583 C 0.06064 0.25423 0.7299 0.0
H584 H 0.11324 0.35064 0.75891 0.0
C585 C 0.05362 0.23654 0.7725 0.0
H586 H 0.08599 0.31072 0.69273 0.0
C587 C 0.0687 0.2592 0.80989 0.0
C588 C 0.09235 0.29933 0.80523 0.0
H589 H 0.04115 0.20293 0.77684 0.0
H590 H 0.06538 0.2432 0.84213 0.0
C591 C 0.09529 0.31958 0.76318 0.0
C592 C 0.91794 0.72958 0.8121 0.0
C593 C 0.89462 0.68923 0.80774 0.0
H594 H 0.94533 0.78564 0.77862 0.0
C595 C 0.89205 0.66849 0.7659 0.0
H596 H 0.92099 0.74595 0.84419 0.0
C597 C 0.90784 0.69084 0.72807 0.0
C598 C 0.92648 0.73369 0.73212 0.0
H599 H 0.87437 0.63724 0.76188 0.0
H600 H 0.90173 0.67662 0.69542 0.0
C601 C 0.93311 0.75191 0.77457 0.0
C602 C 0.9335 0.2329 0.21366 0.0
C603 C 0.92597 0.25101 0.25601 0.0
H604 H 0.92295 0.23913 0.14379 0.0
C605 C 0.90729 0.29386 0.25978 0.0
H606 H 0.94583 0.19919 0.2098 0.0
C607 C 0.89243 0.31639 0.22167 0.0
C608 C 0.89592 0.29581 0.17982 0.0
H609 H 0.90048 0.30798 0.29234 0.0
H610 H 0.87472 0.34766 0.22541 0.0
C611 C 0.91923 0.25541 0.17586 0.0
C612 C 0.03676 0.01006 0.65363 0.0
C613 C 0.00054 0.04013 0.6535 0.0
H614 H 0.05803 0.94185 0.65478 0.0
C615 C 0.95699 0.02331 0.65367 0.0
H616 H 0.07087 0.022 0.65415 0.0
C617 C 0.94979 0.97734 0.65351 0.0
C618 C 0.98602 0.94728 0.65391 0.0
H619 H 0.92852 0.04558 0.65385 0.0
H620 H 0.91568 0.9654 0.65393 0.0
C621 C 0.02956 0.96411 0.65419 0.0
C622 C 0.95028 0.00772 0.33652 0.0
C623 C 0.98612 0.03823 0.3364 0.0
H624 H 0.92989 0.93923 0.33609 0.0
C625 C 0.02987 0.02196 0.33689 0.0
H626 H 0.91603 0.01922 0.33556 0.0
C627 C 0.03766 0.97611 0.33773 0.0
C628 C 0.00183 0.94559 0.33738 0.0
H629 H 0.05806 0.04458 0.33658 0.0
H630 H 0.07193 0.96462 0.33768 0.0
C631 C 0.95807 0.96186 0.33664 0.0
C632 C 0.64981 0.9489 0.97594 0.0
C633 C 0.65012 0.9848 0.94551 0.0
H634 H 0.65073 0.92836 0.04436 0.0
C635 C 0.65055 0.02853 0.96186 0.0
H636 H 0.65009 0.91465 0.96437 0.0
C637 C 0.6504 0.03623 0.00772 0.0
C638 C 0.65054 0.00033 0.03815 0.0
H639 H 0.65105 0.05676 0.9393 0.0
H640 H 0.65113 0.07047 0.01927 0.0
C641 C 0.65038 0.95659 0.0218 0.0
C642 C 0.33343 0.9511 0.01 0.0
C643 C 0.33353 0.98732 0.04006 0.0
H644 H 0.33259 0.92982 0.94181 0.0
C645 C 0.33369 0.03088 0.02325 0.0
H646 H 0.33268 0.91698 0.02191 0.0
C647 C 0.33417 0.03808 0.97729 0.0
C648 C 0.33376 0.00185 0.94724 0.0
H649 H 0.33351 0.05934 0.04552 0.0
H650 H 0.33397 0.0722 0.96535 0.0
C651 C 0.33319 0.9583 0.96406 0.0
C652 C 0.97641 0.65247 0.95054 0.0
C653 C 0.94629 0.65244 0.9867 0.0
H654 H 0.04463 0.6537 0.92939 0.0
C655 C 0.96304 0.65274 0.03028 0.0
H656 H 0.96454 0.65288 0.91641 0.0
C657 C 0.00899 0.65269 0.03757 0.0
C658 C 0.0391 0.65308 0.0014 0.0
H659 H 0.94072 0.65299 0.0587 0.0
H660 H 0.02088 0.65326 0.07169 0.0
C661 C 0.02234 0.65314 0.95783 0.0
C662 C 0.02517 0.3362 0.02824 0.0
C663 C 0.04157 0.337 0.98455 0.0
H664 H 0.96771 0.33496 0.0701 0.0
C665 C 0.01117 0.33733 0.94862 0.0
H666 H 0.04771 0.33566 0.0565 0.0
C667 C 0.9653 0.3364 0.95625 0.0
C668 C 0.9489 0.33583 -5e-05 0.0
H669 H 0.02276 0.33733 0.91439 0.0
H670 H 0.94277 0.33607 0.92799 0.0
C671 C 0.9793 0.33598 0.03588 0.0
loop_
_geom_bond_atom_site_label_1
_geom_bond_atom_site_label_2
_geom_bond_distance
_geom_bond_site_symmetry_2
_ccdc_geom_bond_type
Mn0 O5 2.095 . S
Mn0 O15 2.162 . S
Mn0 O16 2.297 . S
Mn0 O24 2.385 . S
Mn0 O25 2.209 . S
Mn0 O26 2.094 . S
Mn1 O6 2.121 . S
Mn1 N8 2.257 . S
Mn1 N17 2.282 . S
Mn1 O25 2.215 1_655 S
Mn1 O27 2.117 1_655 S
C2 O24 1.234 . S
C2 O25 1.283 . S
C3 O15 1.281 . S
C3 O16 1.236 . S
C4 O26 1.240 . S
C4 O27 1.264 . S
O5 Mn0 2.095 . S
O5 C14 1.250 . S
O6 Mn1 2.121 . S
O6 C14 1.258 1_655 S
C7 N8 1.326 . S
C7 C11 1.460 . S
C7 H13 0.929 . S
N8 Mn1 2.257 . S
N8 C7 1.326 . S
N8 C12 1.362 . S
C9 C10 1.258 . S
C9 C12 1.431 . S
C9 C29 1.449 . S
C10 C9 1.258 . S
C10 C11 1.477 . S
C10 H30 0.931 . S
C11 C7 1.460 . S
C11 C10 1.477 . S
C11 H31 0.930 . S
C12 N8 1.362 . S
C12 C9 1.431 . S
C12 C22 1.476 . S
H13 C7 0.929 . S
C14 O5 1.250 . S
C14 O6 1.258 1_455 S
O15 Mn0 2.162 . S
O15 C3 1.281 . S
O16 Mn0 2.297 . S
O16 C3 1.236 . S
N17 Mn1 2.282 . S
N17 C18 1.328 . S
N17 C22 1.318 . S
C18 N17 1.328 . S
C18 C19 1.457 . S
C18 H23 0.929 1_655 S
C19 C18 1.457 . S
C19 C20 1.291 . S
C19 H32 0.931 . S
C20 C19 1.291 . S
C20 C21 1.373 . S
C20 H33 0.929 . S
C21 C20 1.373 . S
C21 C22 1.396 . S
C21 C28 1.403 . S
C22 C12 1.476 . S
C22 N17 1.318 . S
C22 C21 1.396 . S
H23 C18 0.929 1_455 S
O24 Mn0 2.385 . S
O24 C2 1.234 . S
O25 Mn0 2.209 . S
O25 Mn1 2.215 1_455 S
O25 C2 1.283 . S
O26 Mn0 2.094 . S
O26 C4 1.240 . S
O27 Mn1 2.117 1_455 S
O27 C4 1.264 . S
C28 C21 1.403 . S
C28 C29 1.399 . S
C28 H34 0.929 . S
C29 C9 1.449 . S
C29 C28 1.399 . S
C29 H35 0.930 . S
H30 C10 0.931 . S
H31 C11 0.930 . S
H32 C19 0.931 . S
H33 C20 0.929 . S
H34 C28 0.929 . S
H35 C29 0.930 . S
Mn36 O41 2.095 . S
Mn36 O51 2.162 . S
Mn36 O52 2.297 . S
Mn36 O60 2.385 . S
Mn36 O61 2.209 . S
Mn36 O62 2.094 . S
Mn37 O42 2.121 . S
Mn37 N44 2.257 . S
Mn37 N53 2.282 . S
Mn37 O61 2.215 1_455 S
Mn37 O63 2.117 1_455 S
C38 O60 1.234 . S
C38 O61 1.283 . S
C39 O51 1.281 . S
C39 O52 1.236 . S
C40 O62 1.240 . S
C40 O63 1.264 . S
O41 Mn36 2.095 . S
O41 C50 1.250 . S
O42 Mn37 2.121 . S
O42 C50 1.258 1_455 S
C43 N44 1.326 . S
C43 C47 1.460 . S
C43 H49 0.929 . S
N44 Mn37 2.257 . S
N44 C43 1.326 . S
N44 C48 1.362 . S
C45 C46 1.258 . S
C45 C48 1.431 . S
C45 C65 1.449 . S
C46 C45 1.258 . S
C46 C47 1.477 . S
C46 H66 0.931 . S
C47 C43 1.460 . S
C47 C46 1.477 . S
C47 H67 0.930 . S
C48 N44 1.362 . S
C48 C45 1.431 . S
C48 C58 1.476 . S
H49 C43 0.929 . S
C50 O41 1.250 . S
C50 O42 1.258 1_655 S
O51 Mn36 2.162 . S
O51 C39 1.281 . S
O52 Mn36 2.297 . S
O52 C39 1.236 . S
N53 Mn37 2.282 . S
N53 C54 1.328 . S
N53 C58 1.318 . S
C54 N53 1.328 . S
C54 C55 1.457 . S
C54 H59 0.929 1_455 S
C55 C54 1.457 . S
C55 C56 1.291 . S
C55 H68 0.931 . S
C56 C55 1.291 . S
C56 C57 1.373 . S
C56 H69 0.929 . S
C57 C56 1.373 . S
C57 C58 1.396 . S
C57 C64 1.403 . S
C58 C48 1.476 . S
C58 N53 1.318 . S
C58 C57 1.396 . S
H59 C54 0.929 1_655 S
O60 Mn36 2.385 . S
O60 C38 1.234 . S
O61 Mn36 2.209 . S
O61 Mn37 2.215 1_655 S
O61 C38 1.283 . S
O62 Mn36 2.094 . S
O62 C40 1.240 . S
O63 Mn37 2.117 1_655 S
O63 C40 1.264 . S
C64 C57 1.403 . S
C64 C65 1.399 . S
C64 H70 0.929 . S
C65 C45 1.449 . S
C65 C64 1.399 . S
C65 H71 0.930 . S
H66 C46 0.931 . S
H67 C47 0.930 . S
H68 C55 0.931 . S
H69 C56 0.929 . S
H70 C64 0.929 . S
H71 C65 0.930 . S
Mn72 O77 2.095 . S
Mn72 O87 2.162 . S
Mn72 O88 2.297 . S
Mn72 O96 2.385 . S
Mn72 O97 2.209 . S
Mn72 O98 2.094 . S
Mn73 O78 2.121 . S
Mn73 N80 2.257 . S
Mn73 N89 2.282 . S
Mn73 O97 2.215 1_655 S
Mn73 O99 2.117 1_655 S
C74 O96 1.234 . S
C74 O97 1.283 . S
C75 O87 1.281 . S
C75 O88 1.236 . S
C76 O98 1.240 . S
C76 O99 1.264 . S
O77 Mn72 2.095 . S
O77 C86 1.250 . S
O78 Mn73 2.121 . S
O78 C86 1.258 1_655 S
C79 N80 1.326 . S
C79 C83 1.460 . S
C79 H85 0.929 . S
N80 Mn73 2.257 . S
N80 C79 1.326 . S
N80 C84 1.362 . S
C81 C82 1.258 . S
C81 C84 1.431 . S
C81 C101 1.449 . S
C82 C81 1.258 . S
C82 C83 1.477 . S
C82 H102 0.931 . S
C83 C79 1.460 . S
C83 C82 1.477 . S
C83 H103 0.930 . S
C84 N80 1.362 . S
C84 C81 1.431 . S
C84 C94 1.476 . S
H85 C79 0.929 . S
C86 O77 1.250 . S
C86 O78 1.258 1_455 S
O87 Mn72 2.162 . S
O87 C75 1.281 . S
O88 Mn72 2.297 . S
O88 C75 1.236 . S
N89 Mn73 2.282 . S
N89 C90 1.328 . S
N89 C94 1.318 . S
C90 N89 1.328 . S
C90 C91 1.457 . S
C90 H95 0.929 1_655 S
C91 C90 1.457 . S
C91 C92 1.291 . S
C91 H104 0.931 . S
C92 C91 1.291 . S
C92 C93 1.373 . S
C92 H105 0.929 . S
C93 C92 1.373 . S
C93 C94 1.396 . S
C93 C100 1.403 . S
C94 C84 1.476 . S
C94 N89 1.318 . S
C94 C93 1.396 . S
H95 C90 0.929 1_455 S
O96 Mn72 2.385 . S
O96 C74 1.234 . S
O97 Mn72 2.209 . S
O97 Mn73 2.215 1_455 S
O97 C74 1.283 . S
O98 Mn72 2.094 . S
O98 C76 1.240 . S
O99 Mn73 2.117 1_455 S
O99 C76 1.264 . S
C100 C93 1.403 . S
C100 C101 1.399 . S
C100 H106 0.929 . S
C101 C81 1.449 . S
C101 C100 1.399 . S
C101 H107 0.930 . S
H102 C82 0.931 . S
H103 C83 0.930 . S
H104 C91 0.931 . S
H105 C92 0.929 . S
H106 C100 0.929 . S
H107 C101 0.930 . S
Mn108 O113 2.095 . S
Mn108 O123 2.162 . S
Mn108 O124 2.297 . S
Mn108 O132 2.385 . S
Mn108 O133 2.209 . S
Mn108 O134 2.094 . S
Mn109 O114 2.121 . S
Mn109 N116 2.257 . S
Mn109 N125 2.282 . S
Mn109 O133 2.215 1_455 S
Mn109 O135 2.117 1_455 S
C110 O132 1.234 . S
C110 O133 1.283 . S
C111 O123 1.281 . S
C111 O124 1.236 . S
C112 O134 1.240 . S
C112 O135 1.264 . S
O113 Mn108 2.095 . S
O113 C122 1.250 . S
O114 Mn109 2.121 . S
O114 C122 1.258 1_455 S
C115 N116 1.326 . S
C115 C119 1.460 . S
C115 H121 0.929 . S
N116 Mn109 2.257 . S
N116 C115 1.326 . S
N116 C120 1.362 . S
C117 C118 1.258 . S
C117 C120 1.431 . S
C117 C137 1.449 . S
C118 C117 1.258 . S
C118 C119 1.477 . S
C118 H138 0.931 . S
C119 C115 1.460 . S
C119 C118 1.477 . S
C119 H139 0.930 . S
C120 N116 1.362 . S
C120 C117 1.431 . S
C120 C130 1.476 . S
H121 C115 0.929 . S
C122 O113 1.250 . S
C122 O114 1.258 1_655 S
O123 Mn108 2.162 . S
O123 C111 1.281 . S
O124 Mn108 2.297 . S
O124 C111 1.236 . S
N125 Mn109 2.282 . S
N125 C126 1.328 . S
N125 C130 1.318 . S
C126 N125 1.328 . S
C126 C127 1.457 . S
C126 H131 0.929 1_455 S
C127 C126 1.457 . S
C127 C128 1.291 . S
C127 H140 0.931 . S
C128 C127 1.291 . S
C128 C129 1.373 . S
C128 H141 0.929 . S
C129 C128 1.373 . S
C129 C130 1.396 . S
C129 C136 1.403 . S
C130 C120 1.476 . S
C130 N125 1.318 . S
C130 C129 1.396 . S
H131 C126 0.929 1_655 S
O132 Mn108 2.385 . S
O132 C110 1.234 . S
O133 Mn108 2.209 . S
O133 Mn109 2.215 1_655 S
O133 C110 1.283 . S
O134 Mn108 2.094 . S
O134 C112 1.240 . S
O135 Mn109 2.117 1_655 S
O135 C112 1.264 . S
C136 C129 1.403 . S
C136 C137 1.399 . S
C136 H142 0.929 . S
C137 C117 1.449 . S
C137 C136 1.399 . S
C137 H143 0.930 . S
H138 C118 0.931 . S
H139 C119 0.930 . S
H140 C127 0.931 . S
H141 C128 0.929 . S
H142 C136 0.929 . S
H143 C137 0.930 . S
Mn144 O149 2.095 . S
Mn144 O159 2.162 . S
Mn144 O160 2.297 . S
Mn144 O168 2.385 . S
Mn144 O169 2.209 . S
Mn144 O170 2.094 . S
Mn145 O150 2.121 . S
Mn145 N152 2.257 . S
Mn145 N161 2.282 . S
Mn145 O169 2.215 1_565 S
Mn145 O171 2.117 1_565 S
C146 O168 1.234 . S
C146 O169 1.283 . S
C147 O159 1.281 . S
C147 O160 1.236 . S
C148 O170 1.240 . S
C148 O171 1.264 . S
O149 Mn144 2.095 . S
O149 C158 1.250 . S
O150 Mn145 2.121 . S
O150 C158 1.258 1_565 S
C151 N152 1.326 . S
C151 C155 1.460 . S
C151 H157 0.929 . S
N152 Mn145 2.257 . S
N152 C151 1.326 . S
N152 C156 1.362 . S
C153 C154 1.258 . S
C153 C156 1.431 . S
C153 C173 1.449 . S
C154 C153 1.258 . S
C154 C155 1.477 . S
C154 H174 0.931 . S
C155 C151 1.460 . S
C155 C154 1.477 . S
C155 H175 0.930 . S
C156 N152 1.362 . S
C156 C153 1.431 . S
C156 C166 1.476 . S
H157 C151 0.929 . S
C158 O149 1.250 . S
C158 O150 1.258 1_545 S
O159 Mn144 2.162 . S
O159 C147 1.281 . S
O160 Mn144 2.297 . S
O160 C147 1.236 . S
N161 Mn145 2.282 . S
N161 C162 1.328 . S
N161 C166 1.318 . S
C162 N161 1.328 . S
C162 C163 1.457 . S
C162 H167 0.929 1_565 S
C163 C162 1.457 . S
C163 C164 1.291 . S
C163 H176 0.931 . S
C164 C163 1.291 . S
C164 C165 1.373 . S
C164 H177 0.929 . S
C165 C164 1.373 . S
C165 C166 1.396 . S
C165 C172 1.403 . S
C166 C156 1.476 . S
C166 N161 1.318 . S
C166 C165 1.396 . S
H167 C162 0.929 1_545 S
O168 Mn144 2.385 . S
O168 C146 1.234 . S
O169 Mn144 2.209 . S
O169 Mn145 2.215 1_545 S
O169 C146 1.283 . S
O170 Mn144 2.094 . S
O170 C148 1.240 . S
O171 Mn145 2.117 1_545 S
O171 C148 1.264 . S
C172 C165 1.403 . S
C172 C173 1.399 . S
C172 H178 0.929 . S
C173 C153 1.449 . S
C173 C172 1.399 . S
C173 H179 0.930 . S
H174 C154 0.931 . S
H175 C155 0.930 . S
H176 C163 0.931 . S
H177 C164 0.929 . S
H178 C172 0.929 . S
H179 C173 0.930 . S
Mn180 O185 2.095 . S
Mn180 O195 2.162 . S
Mn180 O196 2.297 . S
Mn180 O204 2.385 . S
Mn180 O205 2.209 . S
Mn180 O206 2.094 . S
Mn181 O186 2.121 . S
Mn181 N188 2.257 . S
Mn181 N197 2.282 . S
Mn181 O205 2.215 1_545 S
Mn181 O207 2.117 1_545 S
C182 O204 1.234 . S
C182 O205 1.283 . S
C183 O195 1.281 . S
C183 O196 1.236 . S
C184 O206 1.240 . S
C184 O207 1.264 . S
O185 Mn180 2.095 . S
O185 C194 1.250 . S
O186 Mn181 2.121 . S
O186 C194 1.258 1_545 S
C187 N188 1.326 . S
C187 C191 1.460 . S
C187 H193 0.929 . S
N188 Mn181 2.257 . S
N188 C187 1.326 . S
N188 C192 1.362 . S
C189 C190 1.258 . S
C189 C192 1.431 . S
C189 C209 1.449 . S
C190 C189 1.258 . S
C190 C191 1.477 . S
C190 H210 0.931 . S
C191 C187 1.460 . S
C191 C190 1.477 . S
C191 H211 0.930 . S
C192 N188 1.362 . S
C192 C189 1.431 . S
C192 C202 1.476 . S
H193 C187 0.929 . S
C194 O185 1.250 . S
C194 O186 1.258 1_565 S
O195 Mn180 2.162 . S
O195 C183 1.281 . S
O196 Mn180 2.297 . S
O196 C183 1.236 . S
N197 Mn181 2.282 . S
N197 C198 1.328 . S
N197 C202 1.318 . S
C198 N197 1.328 . S
C198 C199 1.457 . S
C198 H203 0.929 1_545 S
C199 C198 1.457 . S
C199 C200 1.291 . S
C199 H212 0.931 . S
C200 C199 1.291 . S
C200 C201 1.373 . S
C200 H213 0.929 . S
C201 C200 1.373 . S
C201 C202 1.396 . S
C201 C208 1.403 . S
C202 C192 1.476 . S
C202 N197 1.318 . S
C202 C201 1.396 . S
H203 C198 0.929 1_565 S
O204 Mn180 2.385 . S
O204 C182 1.234 . S
O205 Mn180 2.209 . S
O205 Mn181 2.215 1_565 S
O205 C182 1.283 . S
O206 Mn180 2.094 . S
O206 C184 1.240 . S
O207 Mn181 2.117 1_565 S
O207 C184 1.264 . S
C208 C201 1.403 . S
C208 C209 1.399 . S
C208 H214 0.929 . S
C209 C189 1.449 . S
C209 C208 1.399 . S
C209 H215 0.930 . S
H210 C190 0.931 . S
H211 C191 0.930 . S
H212 C199 0.931 . S
H213 C200 0.929 . S
H214 C208 0.929 . S
H215 C209 0.930 . S
Mn216 O221 2.095 . S
Mn216 O231 2.162 . S
Mn216 O232 2.297 . S
Mn216 O240 2.385 . S
Mn216 O241 2.209 . S
Mn216 O242 2.094 . S
Mn217 O222 2.121 . S
Mn217 N224 2.257 . S
Mn217 N233 2.282 . S
Mn217 O241 2.215 1_545 S
Mn217 O243 2.117 1_545 S
C218 O240 1.234 . S
C218 O241 1.283 . S
C219 O231 1.281 . S
C219 O232 1.236 . S
C220 O242 1.240 . S
C220 O243 1.264 . S
O221 Mn216 2.095 . S
O221 C230 1.250 . S
O222 Mn217 2.121 . S
O222 C230 1.258 1_545 S
C223 N224 1.326 . S
C223 C227 1.460 . S
C223 H229 0.929 . S
N224 Mn217 2.257 . S
N224 C223 1.326 . S
N224 C228 1.362 . S
C225 C226 1.258 . S
C225 C228 1.431 . S
C225 C245 1.449 . S
C226 C225 1.258 . S
C226 C227 1.477 . S
C226 H246 0.931 . S
C227 C223 1.460 . S
C227 C226 1.477 . S
C227 H247 0.930 . S
C228 N224 1.362 . S
C228 C225 1.431 . S
C228 C238 1.476 . S
H229 C223 0.929 . S
C230 O221 1.250 . S
C230 O222 1.258 1_565 S
O231 Mn216 2.162 . S
O231 C219 1.281 . S
O232 Mn216 2.297 . S
O232 C219 1.236 . S
N233 Mn217 2.282 . S
N233 C234 1.328 . S
N233 C238 1.318 . S
C234 N233 1.328 . S
C234 C235 1.457 . S
C234 H239 0.929 1_545 S
C235 C234 1.457 . S
C235 C236 1.291 . S
C235 H248 0.931 . S
C236 C235 1.291 . S
C236 C237 1.373 . S
C236 H249 0.929 . S
C237 C236 1.373 . S
C237 C238 1.396 . S
C237 C244 1.403 . S
C238 C228 1.476 . S
C238 N233 1.318 . S
C238 C237 1.396 . S
H239 C234 0.929 1_565 S
O240 Mn216 2.385 . S
O240 C218 1.234 . S
O241 Mn216 2.209 . S
O241 Mn217 2.215 1_565 S
O241 C218 1.283 . S
O242 Mn216 2.094 . S
O242 C220 1.240 . S
O243 Mn217 2.117 1_565 S
O243 C220 1.264 . S
C244 C237 1.403 . S
C244 C245 1.399 . S
C244 H250 0.929 . S
C245 C225 1.449 . S
C245 C244 1.399 . S
C245 H251 0.930 . S
H246 C226 0.931 . S
H247 C227 0.930 . S
H248 C235 0.931 . S
H249 C236 0.929 . S
H250 C244 0.929 . S
H251 C245 0.930 . S
Mn252 O257 2.095 . S
Mn252 O267 2.162 . S
Mn252 O268 2.297 . S
Mn252 O276 2.385 . S
Mn252 O277 2.209 . S
Mn252 O278 2.094 . S
Mn253 O258 2.121 . S
Mn253 N260 2.257 . S
Mn253 N269 2.282 . S
Mn253 O277 2.215 1_565 S
Mn253 O279 2.117 1_565 S
C254 O276 1.234 . S
C254 O277 1.283 . S
C255 O267 1.281 . S
C255 O268 1.236 . S
C256 O278 1.240 . S
C256 O279 1.264 . S
O257 Mn252 2.095 . S
O257 C266 1.250 . S
O258 Mn253 2.121 . S
O258 C266 1.258 1_565 S
C259 N260 1.326 . S
C259 C263 1.460 . S
C259 H265 0.929 . S
N260 Mn253 2.257 . S
N260 C259 1.326 . S
N260 C264 1.362 . S
C261 C262 1.258 . S
C261 C264 1.431 . S
C261 C281 1.449 . S
C262 C261 1.258 . S
C262 C263 1.477 . S
C262 H282 0.931 . S
C263 C259 1.460 . S
C263 C262 1.477 . S
C263 H283 0.930 . S
C264 N260 1.362 . S
C264 C261 1.431 . S
C264 C274 1.476 . S
H265 C259 0.929 . S
C266 O257 1.250 . S
C266 O258 1.258 1_545 S
O267 Mn252 2.162 . S
O267 C255 1.281 . S
O268 Mn252 2.297 . S
O268 C255 1.236 . S
N269 Mn253 2.282 . S
N269 C270 1.328 . S
N269 C274 1.318 . S
C270 N269 1.328 . S
C270 C271 1.457 . S
C270 H275 0.929 1_565 S
C271 C270 1.457 . S
C271 C272 1.291 . S
C271 H284 0.931 . S
C272 C271 1.291 . S
C272 C273 1.373 . S
C272 H285 0.929 . S
C273 C272 1.373 . S
C273 C274 1.396 . S
C273 C280 1.403 . S
C274 C264 1.476 . S
C274 N269 1.318 . S
C274 C273 1.396 . S
H275 C270 0.929 1_545 S
O276 Mn252 2.385 . S
O276 C254 1.234 . S
O277 Mn252 2.209 . S
O277 Mn253 2.215 1_545 S
O277 C254 1.283 . S
O278 Mn252 2.094 . S
O278 C256 1.240 . S
O279 Mn253 2.117 1_545 S
O279 C256 1.264 . S
C280 C273 1.403 . S
C280 C281 1.399 . S
C280 H286 0.929 . S
C281 C261 1.449 . S
C281 C280 1.399 . S
C281 H287 0.930 . S
H282 C262 0.931 . S
H283 C263 0.930 . S
H284 C271 0.931 . S
H285 C272 0.929 . S
H286 C280 0.929 . S
H287 C281 0.930 . S
Mn288 O293 2.095 . S
Mn288 O303 2.162 . S
Mn288 O304 2.297 . S
Mn288 O312 2.385 . S
Mn288 O313 2.209 . S
Mn288 O314 2.094 . S
Mn289 O294 2.121 . S
Mn289 N296 2.257 . S
Mn289 N305 2.282 . S
Mn289 O313 2.215 1_556 S
Mn289 O315 2.117 1_556 S
C290 O312 1.234 . S
C290 O313 1.283 . S
C291 O303 1.281 . S
C291 O304 1.236 . S
C292 O314 1.240 . S
C292 O315 1.264 . S
O293 Mn288 2.095 . S
O293 C302 1.250 . S
O294 Mn289 2.121 . S
O294 C302 1.258 1_556 S
C295 N296 1.326 . S
C295 C299 1.460 . S
C295 H301 0.929 . S
N296 Mn289 2.257 . S
N296 C295 1.326 . S
N296 C300 1.362 . S
C297 C298 1.258 . S
C297 C300 1.431 . S
C297 C317 1.449 . S
C298 C297 1.258 . S
C298 C299 1.477 . S
C298 H318 0.931 . S
C299 C295 1.460 . S
C299 C298 1.477 . S
C299 H319 0.930 . S
C300 N296 1.362 . S
C300 C297 1.431 . S
C300 C310 1.476 . S
H301 C295 0.929 . S
C302 O293 1.250 . S
C302 O294 1.258 1_554 S
O303 Mn288 2.162 . S
O303 C291 1.281 . S
O304 Mn288 2.297 . S
O304 C291 1.236 . S
N305 Mn289 2.282 . S
N305 C306 1.328 . S
N305 C310 1.318 . S
C306 N305 1.328 . S
C306 C307 1.457 . S
C306 H311 0.929 1_556 S
C307 C306 1.457 . S
C307 C308 1.291 . S
C307 H320 0.931 . S
C308 C307 1.291 . S
C308 C309 1.373 . S
C308 H321 0.929 . S
C309 C308 1.373 . S
C309 C310 1.396 . S
C309 C316 1.403 . S
C310 C300 1.476 . S
C310 N305 1.318 . S
C310 C309 1.396 . S
H311 C306 0.929 1_554 S
O312 Mn288 2.385 . S
O312 C290 1.234 . S
O313 Mn288 2.209 . S
O313 Mn289 2.215 1_554 S
O313 C290 1.283 . S
O314 Mn288 2.094 . S
O314 C292 1.240 . S
O315 Mn289 2.117 1_554 S
O315 C292 1.264 . S
C316 C309 1.403 . S
C316 C317 1.399 . S
C316 H322 0.929 . S
C317 C297 1.449 . S
C317 C316 1.399 . S
C317 H323 0.930 . S
H318 C298 0.931 . S
H319 C299 0.930 . S
H320 C307 0.931 . S
H321 C308 0.929 . S
H322 C316 0.929 . S
H323 C317 0.930 . S
Mn324 O329 2.095 . S
Mn324 O339 2.162 . S
Mn324 O340 2.297 . S
Mn324 O348 2.385 . S
Mn324 O349 2.209 . S
Mn324 O350 2.094 . S
Mn325 O330 2.121 . S
Mn325 N332 2.257 . S
Mn325 N341 2.282 . S
Mn325 O349 2.215 1_554 S
Mn325 O351 2.117 1_554 S
C326 O348 1.234 . S
C326 O349 1.283 . S
C327 O339 1.281 . S
C327 O340 1.236 . S
C328 O350 1.240 . S
C328 O351 1.264 . S
O329 Mn324 2.095 . S
O329 C338 1.250 . S
O330 Mn325 2.121 . S
O330 C338 1.258 1_554 S
C331 N332 1.326 . S
C331 C335 1.460 . S
C331 H337 0.929 . S
N332 Mn325 2.257 . S
N332 C331 1.326 . S
N332 C336 1.362 . S
C333 C334 1.258 . S
C333 C336 1.431 . S
C333 C353 1.449 . S
C334 C333 1.258 . S
C334 C335 1.477 . S
C334 H354 0.931 . S
C335 C331 1.460 . S
C335 C334 1.477 . S
C335 H355 0.930 . S
C336 N332 1.362 . S
C336 C333 1.431 . S
C336 C346 1.476 . S
H337 C331 0.929 . S
C338 O329 1.250 . S
C338 O330 1.258 1_556 S
O339 Mn324 2.162 . S
O339 C327 1.281 . S
O340 Mn324 2.297 . S
O340 C327 1.236 . S
N341 Mn325 2.282 . S
N341 C342 1.328 . S
N341 C346 1.318 . S
C342 N341 1.328 . S
C342 C343 1.457 . S
C342 H347 0.929 1_554 S
C343 C342 1.457 . S
C343 C344 1.291 . S
C343 H356 0.931 . S
C344 C343 1.291 . S
C344 C345 1.373 . S
C344 H357 0.929 . S
C345 C344 1.373 . S
C345 C346 1.396 . S
C345 C352 1.403 . S
C346 C336 1.476 . S
C346 N341 1.318 . S
C346 C345 1.396 . S
H347 C342 0.929 1_556 S
O348 Mn324 2.385 . S
O348 C326 1.234 . S
O349 Mn324 2.209 . S
O349 Mn325 2.215 1_556 S
O349 C326 1.283 . S
O350 Mn324 2.094 . S
O350 C328 1.240 . S
O351 Mn325 2.117 1_556 S
O351 C328 1.264 . S
C352 C345 1.403 . S
C352 C353 1.399 . S
C352 H358 0.929 . S
C353 C333 1.449 . S
C353 C352 1.399 . S
C353 H359 0.930 . S
H354 C334 0.931 . S
H355 C335 0.930 . S
H356 C343 0.931 . S
H357 C344 0.929 . S
H358 C352 0.929 . S
H359 C353 0.930 . S
Mn360 O365 2.095 . S
Mn360 O375 2.162 . S
Mn360 O376 2.297 . S
Mn360 O384 2.385 . S
Mn360 O385 2.209 . S
Mn360 O386 2.094 . S
Mn361 O366 2.121 . S
Mn361 N368 2.257 . S
Mn361 N377 2.282 . S
Mn361 O385 2.215 1_554 S
Mn361 O387 2.117 1_554 S
C362 O384 1.234 . S
C362 O385 1.283 . S
C363 O375 1.281 . S
C363 O376 1.236 . S
C364 O386 1.240 . S
C364 O387 1.264 . S
O365 Mn360 2.095 . S
O365 C374 1.250 . S
O366 Mn361 2.121 . S
O366 C374 1.258 1_554 S
C367 N368 1.326 . S
C367 C371 1.460 . S
C367 H373 0.929 . S
N368 Mn361 2.257 . S
N368 C367 1.326 . S
N368 C372 1.362 . S
C369 C370 1.258 . S
C369 C372 1.431 . S
C369 C389 1.449 . S
C370 C369 1.258 . S
C370 C371 1.477 . S
C370 H390 0.931 . S
C371 C367 1.460 . S
C371 C370 1.477 . S
C371 H391 0.930 . S
C372 N368 1.362 . S
C372 C369 1.431 . S
C372 C382 1.476 . S
H373 C367 0.929 . S
C374 O365 1.250 . S
C374 O366 1.258 1_556 S
O375 Mn360 2.162 . S
O375 C363 1.281 . S
O376 Mn360 2.297 . S
O376 C363 1.236 . S
N377 Mn361 2.282 . S
N377 C378 1.328 . S
N377 C382 1.318 . S
C378 N377 1.328 . S
C378 C379 1.457 . S
C378 H383 0.929 1_554 S
C379 C378 1.457 . S
C379 C380 1.291 . S
C379 H392 0.931 . S
C380 C379 1.291 . S
C380 C381 1.373 . S
C380 H393 0.929 . S
C381 C380 1.373 . S
C381 C382 1.396 . S
C381 C388 1.403 . S
C382 C372 1.476 . S
C382 N377 1.318 . S
C382 C381 1.396 . S
H383 C378 0.929 1_556 S
O384 Mn360 2.385 . S
O384 C362 1.234 . S
O385 Mn360 2.209 . S
O385 Mn361 2.215 1_556 S
O385 C362 1.283 . S
O386 Mn360 2.094 . S
O386 C364 1.240 . S
O387 Mn361 2.117 1_556 S
O387 C364 1.264 . S
C388 C381 1.403 . S
C388 C389 1.399 . S
C388 H394 0.929 . S
C389 C369 1.449 . S
C389 C388 1.399 . S
C389 H395 0.930 . S
H390 C370 0.931 . S
H391 C371 0.930 . S
H392 C379 0.931 . S
H393 C380 0.929 . S
H394 C388 0.929 . S
H395 C389 0.930 . S
Mn396 O401 2.095 . S
Mn396 O411 2.162 . S
Mn396 O412 2.297 . S
Mn396 O420 2.385 . S
Mn396 O421 2.209 . S
Mn396 O422 2.094 . S
Mn397 O402 2.121 . S
Mn397 N404 2.257 . S
Mn397 N413 2.282 . S
Mn397 O421 2.215 1_556 S
Mn397 O423 2.117 1_556 S
C398 O420 1.234 . S
C398 O421 1.283 . S
C399 O411 1.281 . S
C399 O412 1.236 . S
C400 O422 1.240 . S
C400 O423 1.264 . S
O401 Mn396 2.095 . S
O401 C410 1.250 . S
O402 Mn397 2.121 . S
O402 C410 1.258 1_556 S
C403 N404 1.326 . S
C403 C407 1.460 . S
C403 H409 0.929 . S
N404 Mn397 2.257 . S
N404 C403 1.326 . S
N404 C408 1.362 . S
C405 C406 1.258 . S
C405 C408 1.431 . S
C405 C425 1.449 . S
C406 C405 1.258 . S
C406 C407 1.477 . S
C406 H426 0.931 . S
C407 C403 1.460 . S
C407 C406 1.477 . S
C407 H427 0.930 . S
C408 N404 1.362 . S
C408 C405 1.431 . S
C408 C418 1.476 . S
H409 C403 0.929 . S
C410 O401 1.250 . S
C410 O402 1.258 1_554 S
O411 Mn396 2.162 . S
O411 C399 1.281 . S
O412 Mn396 2.297 . S
O412 C399 1.236 . S
N413 Mn397 2.282 . S
N413 C414 1.328 . S
N413 C418 1.318 . S
C414 N413 1.328 . S
C414 C415 1.457 . S
C414 H419 0.929 1_556 S
C415 C414 1.457 . S
C415 C416 1.291 . S
C415 H428 0.931 . S
C416 C415 1.291 . S
C416 C417 1.373 . S
C416 H429 0.929 . S
C417 C416 1.373 . S
C417 C418 1.396 . S
C417 C424 1.403 . S
C418 C408 1.476 . S
C418 N413 1.318 . S
C418 C417 1.396 . S
H419 C414 0.929 1_554 S
O420 Mn396 2.385 . S
O420 C398 1.234 . S
O421 Mn396 2.209 . S
O421 Mn397 2.215 1_554 S
O421 C398 1.283 . S
O422 Mn396 2.094 . S
O422 C400 1.240 . S
O423 Mn397 2.117 1_554 S
O423 C400 1.264 . S
C424 C417 1.403 . S
C424 C425 1.399 . S
C424 H430 0.929 . S
C425 C405 1.449 . S
C425 C424 1.399 . S
C425 H431 0.930 . S
H426 C406 0.931 . S
H427 C407 0.930 . S
H428 C415 0.931 . S
H429 C416 0.929 . S
H430 C424 0.929 . S
H431 C425 0.930 . S
C432 C433 1.387 . S
C432 H436 0.950 . S
C432 C441 1.390 1_655 S
C433 C432 1.387 . S
C433 C435 1.387 . S
H434 C441 0.950 . S
C435 C433 1.387 . S
C435 C437 1.390 1_655 S
C435 H439 0.950 . S
H436 C432 0.950 . S
C437 C435 1.390 1_455 S
C437 C438 1.387 . S
C437 H440 0.950 . S
C438 C437 1.387 . S
C438 C441 1.387 . S
H439 C435 0.950 . S
H440 C437 0.950 . S
C441 C432 1.390 1_455 S
C441 H434 0.950 . S
C441 C438 1.387 . S
C442 C443 1.387 . S
C442 H446 0.950 . S
C442 C451 1.390 1_455 S
C443 C442 1.387 . S
C443 C445 1.387 . S
H444 C451 0.950 . S
C445 C443 1.387 . S
C445 C447 1.390 1_455 S
C445 H449 0.950 . S
H446 C442 0.950 . S
C447 C445 1.390 1_655 S
C447 C448 1.387 . S
C447 H450 0.950 . S
C448 C447 1.387 . S
C448 C451 1.387 . S
H449 C445 0.950 . S
H450 C447 0.950 . S
C451 C442 1.390 1_655 S
C451 H444 0.950 . S
C451 C448 1.387 . S
C452 C453 1.387 . S
C452 H456 0.950 . S
C452 C461 1.390 1_565 S
C453 C452 1.387 . S
C453 C455 1.387 . S
H454 C461 0.950 . S
C455 C453 1.387 . S
C455 C457 1.390 1_565 S
C455 H459 0.950 . S
H456 C452 0.950 . S
C457 C455 1.390 1_545 S
C457 C458 1.387 . S
C457 H460 0.950 . S
C458 C457 1.387 . S
C458 C461 1.387 . S
H459 C455 0.950 . S
H460 C457 0.950 . S
C461 C452 1.390 1_545 S
C461 H454 0.950 . S
C461 C458 1.387 . S
C462 C463 1.387 . S
C462 H466 0.950 . S
C462 C471 1.390 1_565 S
C463 C462 1.387 . S
C463 C465 1.387 . S
H464 C471 0.950 . S
C465 C463 1.387 . S
C465 C467 1.390 1_565 S
C465 H469 0.950 . S
H466 C462 0.950 . S
C467 C465 1.390 1_545 S
C467 C468 1.387 . S
C467 H470 0.950 . S
C468 C467 1.387 . S
C468 C471 1.387 . S
H469 C465 0.950 . S
H470 C467 0.950 . S
C471 C462 1.390 1_545 S
C471 H464 0.950 . S
C471 C468 1.387 . S
C472 C473 1.387 . S
C472 H476 0.950 . S
C472 C481 1.390 1_556 S
C473 C472 1.387 . S
C473 C475 1.387 . S
H474 C481 0.950 . S
C475 C473 1.387 . S
C475 C477 1.390 1_556 S
C475 H479 0.950 . S
H476 C472 0.950 . S
C477 C475 1.390 1_554 S
C477 C478 1.387 . S
C477 H480 0.950 . S
C478 C477 1.387 . S
C478 C481 1.387 . S
H479 C475 0.950 . S
H480 C477 0.950 . S
C481 C472 1.390 1_554 S
C481 H474 0.950 . S
C481 C478 1.387 . S
C482 C483 1.387 . S
C482 H486 0.950 . S
C482 C491 1.390 1_556 S
C483 C482 1.387 . S
C483 C485 1.387 . S
H484 C491 0.950 . S
C485 C483 1.387 . S
C485 C487 1.390 1_556 S
C485 H489 0.950 . S
H486 C482 0.950 . S
C487 C485 1.390 1_554 S
C487 C488 1.387 . S
C487 H490 0.950 . S
C488 C487 1.387 . S
C488 C491 1.387 . S
H489 C485 0.950 . S
H490 C487 0.950 . S
C491 C482 1.390 1_554 S
C491 H484 0.950 . S
C491 C488 1.387 . S
C492 C493 1.387 . S
C492 H496 0.950 . S
C492 C501 1.390 . S
C493 C492 1.387 . S
C493 C495 1.387 . S
H494 C501 0.950 . S
C495 C493 1.387 . S
C495 C497 1.390 . S
C495 H499 0.950 . S
H496 C492 0.950 . S
C497 C495 1.390 . S
C497 C498 1.387 . S
C497 H500 0.950 . S
C498 C497 1.387 . S
C498 C501 1.387 . S
H499 C495 0.950 . S
H500 C497 0.950 . S
C501 C492 1.390 . S
C501 H494 0.950 . S
C501 C498 1.387 . S
C502 C503 1.387 . S
C502 H506 0.950 . S
C502 C511 1.390 . S
C503 C502 1.387 . S
C503 C505 1.387 . S
H504 C511 0.950 . S
C505 C503 1.387 . S
C505 C507 1.390 . S
C505 H509 0.950 . S
H506 C502 0.950 . S
C507 C505 1.390 . S
C507 C508 1.387 . S
C507 H510 0.950 . S
C508 C507 1.387 . S
C508 C511 1.387 . S
H509 C505 0.950 . S
H510 C507 0.950 . S
C511 C502 1.390 . S
C511 H504 0.950 . S
C511 C508 1.387 . S
C512 C513 1.387 . S
C512 H516 0.950 . S
C512 C521 1.390 . S
C513 C512 1.387 . S
C513 C515 1.387 . S
H514 C521 0.950 . S
C515 C513 1.387 . S
C515 C517 1.390 . S
C515 H519 0.950 . S
H516 C512 0.950 . S
C517 C515 1.390 . S
C517 C518 1.387 . S
C517 H520 0.950 . S
C518 C517 1.387 . S
C518 C521 1.387 . S
H519 C515 0.950 . S
H520 C517 0.950 . S
C521 C512 1.390 . S
C521 H514 0.950 . S
C521 C518 1.387 . S
C522 C523 1.387 . S
C522 H526 0.950 . S
C522 C531 1.390 . S
C523 C522 1.387 . S
C523 C525 1.387 . S
H524 C531 0.950 . S
C525 C523 1.387 . S
C525 C527 1.390 . S
C525 H529 0.950 . S
H526 C522 0.950 . S
C527 C525 1.390 . S
C527 C528 1.387 . S
C527 H530 0.950 . S
C528 C527 1.387 . S
C528 C531 1.387 . S
H529 C525 0.950 . S
H530 C527 0.950 . S
C531 C522 1.390 . S
C531 H524 0.950 . S
C531 C528 1.387 . S
C532 C533 1.387 . S
C532 H536 0.950 . S
C532 C541 1.390 . S
C533 C532 1.387 . S
C533 C535 1.387 . S
H534 C541 0.950 . S
C535 C533 1.387 . S
C535 C537 1.390 . S
C535 H539 0.950 . S
H536 C532 0.950 . S
C537 C535 1.390 . S
C537 C538 1.387 . S
C537 H540 0.950 . S
C538 C537 1.387 . S
C538 C541 1.387 . S
H539 C535 0.950 . S
H540 C537 0.950 . S
C541 C532 1.390 . S
C541 H534 0.950 . S
C541 C538 1.387 . S
C542 C543 1.387 . S
C542 H546 0.950 . S
C542 C551 1.390 . S
C543 C542 1.387 . S
C543 C545 1.387 . S
H544 C551 0.950 . S
C545 C543 1.387 . S
C545 C547 1.390 . S
C545 H549 0.950 . S
H546 C542 0.950 . S
C547 C545 1.390 . S
C547 C548 1.387 . S
C547 H550 0.950 . S
C548 C547 1.387 . S
C548 C551 1.387 . S
H549 C545 0.950 . S
H550 C547 0.950 . S
C551 C542 1.390 . S
C551 H544 0.950 . S
C551 C548 1.387 . S
C552 C553 1.387 . S
C552 H556 0.950 . S
C552 C561 1.390 . S
C553 C552 1.387 . S
C553 C555 1.387 . S
H554 C561 0.950 . S
C555 C553 1.387 . S
C555 C557 1.390 . S
C555 H559 0.950 . S
H556 C552 0.950 . S
C557 C555 1.390 . S
C557 C558 1.387 . S
C557 H560 0.950 . S
C558 C557 1.387 . S
C558 C561 1.387 . S
H559 C555 0.950 . S
H560 C557 0.950 . S
C561 C552 1.390 . S
C561 H554 0.950 . S
C561 C558 1.387 . S
C562 C563 1.387 . S
C562 H566 0.950 . S
C562 C571 1.390 . S
C563 C562 1.387 . S
C563 C565 1.387 . S
H564 C571 0.950 . S
C565 C563 1.387 . S
C565 C567 1.390 . S
C565 H569 0.950 . S
H566 C562 0.950 . S
C567 C565 1.390 . S
C567 C568 1.387 . S
C567 H570 0.950 . S
C568 C567 1.387 . S
C568 C571 1.387 . S
H569 C565 0.950 . S
H570 C567 0.950 . S
C571 C562 1.390 . S
C571 H564 0.950 . S
C571 C568 1.387 . S
C572 C573 1.387 . S
C572 H576 0.950 . S
C572 C581 1.390 . S
C573 C572 1.387 . S
C573 C575 1.387 . S
H574 C581 0.950 . S
C575 C573 1.387 . S
C575 C577 1.390 . S
C575 H579 0.950 . S
H576 C572 0.950 . S
C577 C575 1.390 . S
C577 C578 1.387 . S
C577 H580 0.950 . S
C578 C577 1.387 . S
C578 C581 1.387 . S
H579 C575 0.950 . S
H580 C577 0.950 . S
C581 C572 1.390 . S
C581 H574 0.950 . S
C581 C578 1.387 . S
C582 C583 1.387 . S
C582 H586 0.950 . S
C582 C591 1.390 . S
C583 C582 1.387 . S
C583 C585 1.387 . S
H584 C591 0.950 . S
C585 C583 1.387 . S
C585 C587 1.390 . S
C585 H589 0.950 . S
H586 C582 0.950 . S
C587 C585 1.390 . S
C587 C588 1.387 . S
C587 H590 0.950 . S
C588 C587 1.387 . S
C588 C591 1.387 . S
H589 C585 0.950 . S
H590 C587 0.950 . S
C591 C582 1.390 . S
C591 H584 0.950 . S
C591 C588 1.387 . S
C592 C593 1.387 . S
C592 H596 0.950 . S
C592 C601 1.390 . S
C593 C592 1.387 . S
C593 C595 1.387 . S
H594 C601 0.950 . S
C595 C593 1.387 . S
C595 C597 1.390 . S
C595 H599 0.950 . S
H596 C592 0.950 . S
C597 C595 1.390 . S
C597 C598 1.387 . S
C597 H600 0.950 . S
C598 C597 1.387 . S
C598 C601 1.387 . S
H599 C595 0.950 . S
H600 C597 0.950 . S
C601 C592 1.390 . S
C601 H594 0.950 . S
C601 C598 1.387 . S
C602 C603 1.387 . S
C602 H606 0.950 . S
C602 C611 1.390 . S
C603 C602 1.387 . S
C603 C605 1.387 . S
H604 C611 0.950 . S
C605 C603 1.387 . S
C605 C607 1.390 . S
C605 H609 0.950 . S
H606 C602 0.950 . S
C607 C605 1.390 . S
C607 C608 1.387 . S
C607 H610 0.950 . S
C608 C607 1.387 . S
C608 C611 1.387 . S
H609 C605 0.950 . S
H610 C607 0.950 . S
C611 C602 1.390 . S
C611 H604 0.950 . S
C611 C608 1.387 . S
C612 C613 1.387 . S
C612 H616 0.950 . S
C612 C621 1.390 1_445 S
C613 C612 1.387 . S
C613 C615 1.387 . S
H614 C621 0.950 . S
C615 C613 1.387 . S
C615 C617 1.390 1_445 S
C615 H619 0.950 . S
H616 C612 0.950 . S
C617 C615 1.390 1_665 S
C617 C618 1.387 . S
C617 H620 0.950 . S
C618 C617 1.387 . S
C618 C621 1.387 . S
H619 C615 0.950 . S
H620 C617 0.950 . S
C621 C612 1.390 1_665 S
C621 H614 0.950 . S
C621 C618 1.387 . S
C622 C623 1.387 . S
C622 H626 0.950 . S
C622 C631 1.390 1_645 S
C623 C622 1.387 . S
C623 C625 1.387 . S
H624 C631 0.950 . S
C625 C623 1.387 . S
C625 C627 1.390 1_645 S
C625 H629 0.950 . S
H626 C622 0.950 . S
C627 C625 1.390 1_465 S
C627 C628 1.387 . S
C627 H630 0.950 . S
C628 C627 1.387 . S
C628 C631 1.387 . S
H629 C625 0.950 . S
H630 C627 0.950 . S
C631 C622 1.390 1_465 S
C631 H624 0.950 . S
C631 C628 1.387 . S
C632 C633 1.387 . S
C632 H636 0.950 . S
C632 C641 1.390 1_566 S
C633 C632 1.387 . S
C633 C635 1.387 . S
H634 C641 0.950 . S
C635 C633 1.387 . S
C635 C637 1.390 1_566 S
C635 H639 0.950 . S
H636 C632 0.950 . S
C637 C635 1.390 1_544 S
C637 C638 1.387 . S
C637 H640 0.950 . S
C638 C637 1.387 . S
C638 C641 1.387 . S
H639 C635 0.950 . S
H640 C637 0.950 . S
C641 C632 1.390 1_544 S
C641 H634 0.950 . S
C641 C638 1.387 . S
C642 C643 1.387 . S
C642 H646 0.950 . S
C642 C651 1.390 1_564 S
C643 C642 1.387 . S
C643 C645 1.387 . S
H644 C651 0.950 . S
C645 C643 1.387 . S
C645 C647 1.390 1_564 S
C645 H649 0.950 . S
H646 C642 0.950 . S
C647 C645 1.390 1_546 S
C647 C648 1.387 . S
C647 H650 0.950 . S
C648 C647 1.387 . S
C648 C651 1.387 . S
H649 C645 0.950 . S
H650 C647 0.950 . S
C651 C642 1.390 1_546 S
C651 H644 0.950 . S
C651 C648 1.387 . S
C652 C653 1.387 . S
C652 H656 0.950 . S
C652 C661 1.390 1_656 S
C653 C652 1.387 . S
C653 C655 1.387 . S
H654 C661 0.950 . S
C655 C653 1.387 . S
C655 C657 1.390 1_656 S
C655 H659 0.950 . S
H656 C652 0.950 . S
C657 C655 1.390 1_454 S
C657 C658 1.387 . S
C657 H660 0.950 . S
C658 C657 1.387 . S
C658 C661 1.387 . S
H659 C655 0.950 . S
H660 C657 0.950 . S
C661 C652 1.390 1_454 S
C661 H654 0.950 . S
C661 C658 1.387 . S
C662 C663 1.387 . S
C662 H666 0.950 . S
C662 C671 1.390 1_456 S
C663 C662 1.387 . S
C663 C665 1.387 . S
H664 C671 0.950 . S
C665 C663 1.387 . S
C665 C667 1.390 1_456 S
C665 H669 0.950 . S
H666 C662 0.950 . S
C667 C665 1.390 1_654 S
C667 C668 1.387 . S
C667 H670 0.950 . S
C668 C667 1.387 . S
C668 C671 1.387 . S
H669 C665 0.950 . S
H670 C667 0.950 . S
C671 C662 1.390 1_654 S
C671 H664 0.950 . S
C671 C668 1.387 . S
C433 C112 1.188 . S
C438 C4 1.188 . S
C443 C76 1.188 . S
C448 C40 1.188 . S
C453 C184 1.184 . S
C458 C148 1.184 . S
C463 C220 1.184 . S
C468 C256 1.184 . S
C473 C328 1.188 . S
C478 C292 1.188 . S
C483 C364 1.184 . S
C488 C400 1.184 . S
C493 C3 1.145 . S
C498 C254 1.092 . S
C503 C218 1.092 . S
C508 C39 1.145 . S
C513 C182 1.093 . S
C518 C75 1.145 . S
C523 C146 1.089 . S
C528 C111 1.143 . S
C533 C147 1.144 . S
C538 C398 1.089 . S
C543 C290 1.091 . S
C548 C183 1.145 . S
C553 C362 1.091 . S
C558 C219 1.143 . S
C563 C255 1.145 . S
C568 C326 1.091 . S
C573 C74 1.089 . S
C578 C291 1.144 . S
C583 C2 1.088 . S
C588 C327 1.143 . S
C593 C363 1.145 . S
C598 C38 1.093 . S
C603 C110 1.093 . S
C608 C399 1.144 . S
C613 C14 1.240 . S
C618 C50 1.240 . S
C623 C122 1.238 . S
C628 C86 1.238 . S
C633 C230 1.240 . S
C638 C158 1.240 . S
C643 C194 1.240 . S
C648 C266 1.240 . S
C653 C374 1.240 . S
C658 C302 1.240 . S
C663 C338 1.238 . S
C668 C410 1.238 . S
