# Generated by pormake.
# Topology ums, (4)-cn, num edge types: 1
# Building blocks:
#     Node 0, Type 0, BuildingBlock: KUFVIS_clean_sbu_0, # of connection points: 4
#     Node 1, Type 0, BuildingBlock: KUFVIS_clean_sbu_0, # of connection points: 4
#     Node 2, Type 0, BuildingBlock: KUFVIS_clean_sbu_0, # of connection points: 4
#     Node 3, Type 0, BuildingBlock: KUFVIS_clean_sbu_0, # of connection points: 4
#     Node 4, Type 0, BuildingBlock: KUFVIS_clean_sbu_0, # of connection points: 4
#     Node 5, Type 0, BuildingBlock: KUFVIS_clean_sbu_0, # of connection points: 4
#     Node 6, Type 0, BuildingBlock: KUFVIS_clean_sbu_0, # of connection points: 4
#     Node 7, Type 0, BuildingBlock: KUFVIS_clean_sbu_0, # of connection points: 4
#     Node 8, Type 0, BuildingBlock: KUFVIS_clean_sbu_0, # of connection points: 4
#     Node 9, Type 0, BuildingBlock: KUFVIS_clean_sbu_0, # of connection points: 4
#     Node 10, Type 0, BuildingBlock: KUFVIS_clean_sbu_0, # of connection points: 4
#     Node 11, Type 0, BuildingBlock: KUFVIS_clean_sbu_0, # of connection points: 4
#     Node 12, Type 0, BuildingBlock: KUFVIS_clean_sbu_0, # of connection points: 4
#     Node 13, Type 0, BuildingBlock: KUFVIS_clean_sbu_0, # of connection points: 4
#     Node 14, Type 0, BuildingBlock: KUFVIS_clean_sbu_0, # of connection points: 4
#     Node 15, Type 0, BuildingBlock: KUFVIS_clean_sbu_0, # of connection points: 4
#     Node 16, Type 0, BuildingBlock: KUFVIS_clean_sbu_0, # of connection points: 4
#     Node 17, Type 0, BuildingBlock: KUFVIS_clean_sbu_0, # of connection points: 4
#     Node 18, Type 0, BuildingBlock: KUFVIS_clean_sbu_0, # of connection points: 4
#     Node 19, Type 0, BuildingBlock: KUFVIS_clean_sbu_0, # of connection points: 4
#     Node 20, Type 0, BuildingBlock: KUFVIS_clean_sbu_0, # of connection points: 4
#     Node 21, Type 0, BuildingBlock: KUFVIS_clean_sbu_0, # of connection points: 4
#     Node 22, Type 0, BuildingBlock: KUFVIS_clean_sbu_0, # of connection points: 4
#     Node 23, Type 0, BuildingBlock: KUFVIS_clean_sbu_0, # of connection points: 4
#     Node 24, Type 0, BuildingBlock: KUFVIS_clean_sbu_0, # of connection points: 4
#     Node 25, Type 0, BuildingBlock: KUFVIS_clean_sbu_0, # of connection points: 4
#     Node 26, Type 0, BuildingBlock: KUFVIS_clean_sbu_0, # of connection points: 4
#     Node 27, Type 0, BuildingBlock: KUFVIS_clean_sbu_0, # of connection points: 4
#     Node 28, Type 0, BuildingBlock: KUFVIS_clean_sbu_0, # of connection points: 4
#     Node 29, Type 0, BuildingBlock: KUFVIS_clean_sbu_0, # of connection points: 4
#     Node 30, Type 0, BuildingBlock: KUFVIS_clean_sbu_0, # of connection points: 4
#     Node 31, Type 0, BuildingBlock: KUFVIS_clean_sbu_0, # of connection points: 4
#     Node 32, Type 0, BuildingBlock: KUFVIS_clean_sbu_0, # of connection points: 4
#     Node 33, Type 0, BuildingBlock: KUFVIS_clean_sbu_0, # of connection points: 4
#     Node 34, Type 0, BuildingBlock: KUFVIS_clean_sbu_0, # of connection points: 4
#     Node 35, Type 0, BuildingBlock: KUFVIS_clean_sbu_0, # of connection points: 4
#     Edge 36, Type (0, 0), BuildingBlock: XIVTED_clean_linker_0, # of connection points: 2
#     Edge 37, Type (0, 0), BuildingBlock: XIVTED_clean_linker_0, # of connection points: 2
#     Edge 38, Type (0, 0), BuildingBlock: XIVTED_clean_linker_0, # of connection points: 2
#     Edge 39, Type (0, 0), BuildingBlock: XIVTED_clean_linker_0, # of connection points: 2
#     Edge 40, Type (0, 0), BuildingBlock: XIVTED_clean_linker_0, # of connection points: 2
#     Edge 41, Type (0, 0), BuildingBlock: XIVTED_clean_linker_0, # of connection points: 2
#     Edge 42, Type (0, 0), BuildingBlock: XIVTED_clean_linker_0, # of connection points: 2
#     Edge 43, Type (0, 0), BuildingBlock: XIVTED_clean_linker_0, # of connection points: 2
#     Edge 44, Type (0, 0), BuildingBlock: XIVTED_clean_linker_0, # of connection points: 2
#     Edge 45, Type (0, 0), BuildingBlock: XIVTED_clean_linker_0, # of connection points: 2
#     Edge 46, Type (0, 0), BuildingBlock: XIVTED_clean_linker_0, # of connection points: 2
#     Edge 47, Type (0, 0), BuildingBlock: XIVTED_clean_linker_0, # of connection points: 2
#     Edge 48, Type (0, 0), BuildingBlock: XIVTED_clean_linker_0, # of connection points: 2
#     Edge 49, Type (0, 0), BuildingBlock: XIVTED_clean_linker_0, # of connection points: 2
#     Edge 50, Type (0, 0), BuildingBlock: XIVTED_clean_linker_0, # of connection points: 2
#     Edge 51, Type (0, 0), BuildingBlock: XIVTED_clean_linker_0, # of connection points: 2
#     Edge 52, Type (0, 0), BuildingBlock: XIVTED_clean_linker_0, # of connection points: 2
#     Edge 53, Type (0, 0), BuildingBlock: XIVTED_clean_linker_0, # of connection points: 2
#     Edge 54, Type (0, 0), BuildingBlock: XIVTED_clean_linker_0, # of connection points: 2
#     Edge 55, Type (0, 0), BuildingBlock: XIVTED_clean_linker_0, # of connection points: 2
#     Edge 56, Type (0, 0), BuildingBlock: XIVTED_clean_linker_0, # of connection points: 2
#     Edge 57, Type (0, 0), BuildingBlock: XIVTED_clean_linker_0, # of connection points: 2
#     Edge 58, Type (0, 0), BuildingBlock: XIVTED_clean_linker_0, # of connection points: 2
#     Edge 59, Type (0, 0), BuildingBlock: XIVTED_clean_linker_0, # of connection points: 2
#     Edge 60, Type (0, 0), BuildingBlock: XIVTED_clean_linker_0, # of connection points: 2
#     Edge 61, Type (0, 0), BuildingBlock: XIVTED_clean_linker_0, # of connection points: 2
#     Edge 62, Type (0, 0), BuildingBlock: XIVTED_clean_linker_0, # of connection points: 2
#     Edge 63, Type (0, 0), BuildingBlock: XIVTED_clean_linker_0, # of connection points: 2
#     Edge 64, Type (0, 0), BuildingBlock: XIVTED_clean_linker_0, # of connection points: 2
#     Edge 65, Type (0, 0), BuildingBlock: XIVTED_clean_linker_0, # of connection points: 2
#     Edge 66, Type (0, 0), BuildingBlock: XIVTED_clean_linker_0, # of connection points: 2
#     Edge 67, Type (0, 0), BuildingBlock: XIVTED_clean_linker_0, # of connection points: 2
#     Edge 68, Type (0, 0), BuildingBlock: XIVTED_clean_linker_0, # of connection points: 2
#     Edge 69, Type (0, 0), BuildingBlock: XIVTED_clean_linker_0, # of connection points: 2
#     Edge 70, Type (0, 0), BuildingBlock: XIVTED_clean_linker_0, # of connection points: 2
#     Edge 71, Type (0, 0), BuildingBlock: XIVTED_clean_linker_0, # of connection points: 2
#     Edge 72, Type (0, 0), BuildingBlock: XIVTED_clean_linker_0, # of connection points: 2
#     Edge 73, Type (0, 0), BuildingBlock: XIVTED_clean_linker_0, # of connection points: 2
#     Edge 74, Type (0, 0), BuildingBlock: XIVTED_clean_linker_0, # of connection points: 2
#     Edge 75, Type (0, 0), BuildingBlock: XIVTED_clean_linker_0, # of connection points: 2
#     Edge 76, Type (0, 0), BuildingBlock: XIVTED_clean_linker_0, # of connection points: 2
#     Edge 77, Type (0, 0), BuildingBlock: XIVTED_clean_linker_0, # of connection points: 2
#     Edge 78, Type (0, 0), BuildingBlock: XIVTED_clean_linker_0, # of connection points: 2
#     Edge 79, Type (0, 0), BuildingBlock: XIVTED_clean_linker_0, # of connection points: 2
#     Edge 80, Type (0, 0), BuildingBlock: XIVTED_clean_linker_0, # of connection points: 2
#     Edge 81, Type (0, 0), BuildingBlock: XIVTED_clean_linker_0, # of connection points: 2
#     Edge 82, Type (0, 0), BuildingBlock: XIVTED_clean_linker_0, # of connection points: 2
#     Edge 83, Type (0, 0), BuildingBlock: XIVTED_clean_linker_0, # of connection points: 2
#     Edge 84, Type (0, 0), BuildingBlock: XIVTED_clean_linker_0, # of connection points: 2
#     Edge 85, Type (0, 0), BuildingBlock: XIVTED_clean_linker_0, # of connection points: 2
#     Edge 86, Type (0, 0), BuildingBlock: XIVTED_clean_linker_0, # of connection points: 2
#     Edge 87, Type (0, 0), BuildingBlock: XIVTED_clean_linker_0, # of connection points: 2
#     Edge 88, Type (0, 0), BuildingBlock: XIVTED_clean_linker_0, # of connection points: 2
#     Edge 89, Type (0, 0), BuildingBlock: XIVTED_clean_linker_0, # of connection points: 2
#     Edge 90, Type (0, 0), BuildingBlock: XIVTED_clean_linker_0, # of connection points: 2
#     Edge 91, Type (0, 0), BuildingBlock: XIVTED_clean_linker_0, # of connection points: 2
#     Edge 92, Type (0, 0), BuildingBlock: XIVTED_clean_linker_0, # of connection points: 2
#     Edge 93, Type (0, 0), BuildingBlock: XIVTED_clean_linker_0, # of connection points: 2
#     Edge 94, Type (0, 0), BuildingBlock: XIVTED_clean_linker_0, # of connection points: 2
#     Edge 95, Type (0, 0), BuildingBlock: XIVTED_clean_linker_0, # of connection points: 2
#     Edge 96, Type (0, 0), BuildingBlock: XIVTED_clean_linker_0, # of connection points: 2
#     Edge 97, Type (0, 0), BuildingBlock: XIVTED_clean_linker_0, # of connection points: 2
#     Edge 98, Type (0, 0), BuildingBlock: XIVTED_clean_linker_0, # of connection points: 2
#     Edge 99, Type (0, 0), BuildingBlock: XIVTED_clean_linker_0, # of connection points: 2
#     Edge 100, Type (0, 0), BuildingBlock: XIVTED_clean_linker_0, # of connection points: 2
#     Edge 101, Type (0, 0), BuildingBlock: XIVTED_clean_linker_0, # of connection points: 2
#     Edge 102, Type (0, 0), BuildingBlock: XIVTED_clean_linker_0, # of connection points: 2
#     Edge 103, Type (0, 0), BuildingBlock: XIVTED_clean_linker_0, # of connection points: 2
#     Edge 104, Type (0, 0), BuildingBlock: XIVTED_clean_linker_0, # of connection points: 2
#     Edge 105, Type (0, 0), BuildingBlock: XIVTED_clean_linker_0, # of connection points: 2
#     Edge 106, Type (0, 0), BuildingBlock: XIVTED_clean_linker_0, # of connection points: 2
#     Edge 107, Type (0, 0), BuildingBlock: XIVTED_clean_linker_0, # of connection points: 2
# Relax obj value: 0.169
# Max RMSD: 0.134
# Mean RMSD: 0.132
data_MOF--net-ums--node1-KUFVIS_clean_sbu_0--edge1-XIVTED_clean_linker_0
_symmetry_space_group_name_H-M    P1
_symmetry_Int_Tables_number       1
_symmetry_cell_setting            triclinic
loop_
_symmetry_equiv_pos_as_xyz
'x, y, z'
_cell_length_a     100.48125
_cell_length_b     100.47971
_cell_length_c     24.094765
_cell_angle_alpha  89.995789
_cell_angle_beta   90.003772
_cell_angle_gamma 120.02099
loop_
_atom_site_label
_atom_site_type_symbol
_atom_site_fract_x
_atom_site_fract_y
_atom_site_fract_z
_atom_type_partial_charge
Mn0 Mn 0.16988 0.25571 0.18472 0.0
Mn1 Mn 0.19537 0.28035 0.2781 0.0
C2 C 0.19047 0.27903 0.15645 0.0
C3 C 0.14762 0.24697 0.1314 0.0
C4 C 0.19502 0.25147 0.23956 0.0
O5 O 0.1582 0.24791 0.25849 0.0
O6 O 0.17592 0.26581 0.31576 0.0
C7 C 0.17906 0.29705 0.30766 0.0
N8 N 0.19183 0.29721 0.28786 0.0
C9 C 0.20469 0.32458 0.27356 0.0
C10 C 0.19171 0.32472 0.29415 0.0
C11 C 0.17883 0.31089 0.3112 0.0
C12 C 0.20427 0.31045 0.27125 0.0
H13 H 0.1691 0.28644 0.32048 0.0
C14 C 0.16276 0.25393 0.30663 0.0
O15 O 0.15355 0.23828 0.14072 0.0
O16 O 0.15408 0.26026 0.15569 0.0
N17 N 0.21466 0.29514 0.2464 0.0
C18 C 0.22605 0.29295 0.22587 0.0
C19 C 0.2397 0.30563 0.20653 0.0
C20 C 0.2415 0.32042 0.20865 0.0
C21 C 0.22967 0.32241 0.23044 0.0
C22 C 0.21641 0.30937 0.24974 0.0
H23 H 0.22471 0.28161 0.22405 0.0
O24 O 0.18376 0.26776 0.12157 0.0
O25 O 0.18499 0.27623 0.20647 0.0
O26 O 0.184 0.24717 0.20494 0.0
O27 O 0.20002 0.26353 0.26955 0.0
C28 C 0.23042 0.33678 0.23298 0.0
C29 C 0.21793 0.33785 0.25439 0.0
H30 H 0.19146 0.33535 0.29666 0.0
H31 H 0.16874 0.3109 0.32686 0.0
H32 H 0.24877 0.304 0.18975 0.0
H33 H 0.25197 0.33015 0.19311 0.0
H34 H 0.24049 0.34705 0.21799 0.0
H35 H 0.21857 0.34894 0.25553 0.0
Mn36 Mn 0.74341 0.91249 0.18211 0.0
Mn37 Mn 0.71831 0.9131 0.27382 0.0
C38 C 0.72011 0.90941 0.15229 0.0
C39 C 0.75255 0.89906 0.13057 0.0
C40 C 0.74702 0.94181 0.23521 0.0
O41 O 0.75113 0.90892 0.2565 0.0
O42 O 0.73301 0.90863 0.31277 0.0
C43 C 0.70205 0.88014 0.30439 0.0
N44 N 0.70168 0.89258 0.28384 0.0
C45 C 0.67436 0.87762 0.26893 0.0
C46 C 0.67444 0.86467 0.29027 0.0
C47 C 0.68835 0.86594 0.308 0.0
C48 C 0.68836 0.89147 0.26654 0.0
H49 H 0.71273 0.88104 0.31774 0.0
C50 C 0.74502 0.90752 0.30438 0.0
O51 O 0.76108 0.91373 0.13937 0.0
O52 O 0.73918 0.89215 0.15426 0.0
N53 N 0.70334 0.91716 0.24107 0.0
C54 C 0.70531 0.93062 0.22007 0.0
C55 C 0.69251 0.93127 0.20008 0.0
C56 C 0.67784 0.91811 0.20209 0.0
C57 C 0.67608 0.90444 0.22445 0.0
C58 C 0.68922 0.90453 0.24436 0.0
H59 H 0.71656 0.94076 0.21836 0.0
O60 O 0.73151 0.91402 0.11799 0.0
O61 O 0.72274 0.90683 0.20272 0.0
O62 O 0.7516 0.93514 0.20147 0.0
O63 O 0.7349 0.93468 0.26484 0.0
C64 C 0.66184 0.89066 0.22707 0.0
C65 C 0.66099 0.87725 0.24913 0.0
H66 H 0.66392 0.85368 0.29288 0.0
H67 H 0.68852 0.85598 0.32425 0.0
H68 H 0.69397 0.94187 0.18288 0.0
H69 H 0.66803 0.91861 0.18606 0.0
H70 H 0.65149 0.89022 0.2117 0.0
H71 H 0.65 0.86669 0.25035 0.0
Mn72 Mn 0.08698 0.83131 0.18384 0.0
Mn73 Mn 0.0862 0.80566 0.27625 0.0
C74 C 0.08963 0.81079 0.15454 0.0
C75 C 0.10051 0.85368 0.1312 0.0
C76 C 0.05762 0.80596 0.23813 0.0
O77 O 0.09086 0.84284 0.25787 0.0
O78 O 0.09102 0.82501 0.31454 0.0
C79 C 0.11923 0.82209 0.30581 0.0
N80 N 0.10665 0.8093 0.28582 0.0
C81 C 0.12128 0.79661 0.27096 0.0
C82 C 0.13437 0.8096 0.29174 0.0
C83 C 0.13334 0.8224 0.30916 0.0
C84 C 0.10752 0.79694 0.26883 0.0
H85 H 0.11852 0.83199 0.31892 0.0
C86 C 0.0923 0.83818 0.30584 0.0
O87 O 0.08589 0.84775 0.14055 0.0
O88 O 0.10734 0.84717 0.15509 0.0
N89 N 0.08181 0.78645 0.24412 0.0
C90 C 0.06822 0.775 0.2237 0.0
C91 C 0.06733 0.76142 0.20408 0.0
C92 C 0.08037 0.75971 0.20587 0.0
C93 C 0.09418 0.77158 0.22764 0.0
C94 C 0.09433 0.78478 0.24721 0.0
H95 H 0.05817 0.77626 0.22216 0.0
O96 O 0.08509 0.81761 0.12014 0.0
O97 O 0.09241 0.81615 0.20476 0.0
O98 O 0.06432 0.81711 0.20402 0.0
O99 O 0.06469 0.80091 0.26775 0.0
C100 C 0.10785 0.77092 0.22999 0.0
C101 C 0.1214 0.78344 0.25149 0.0
H102 H 0.14529 0.80991 0.29413 0.0
H103 H 0.14341 0.8325 0.32497 0.0
H104 H 0.05663 0.75231 0.18735 0.0
H105 H 0.07969 0.74929 0.19012 0.0
H106 H 0.10811 0.7609 0.21485 0.0
H107 H 0.13187 0.78286 0.25252 0.0
Mn108 Mn 0.25688 0.16902 0.32195 0.0
Mn109 Mn 0.28181 0.19506 0.23064 0.0
C110 C 0.28004 0.18947 0.35198 0.0
C111 C 0.24811 0.14647 0.37342 0.0
C112 C 0.25277 0.19444 0.26893 0.0
O113 O 0.24933 0.15778 0.24739 0.0
O114 O 0.26737 0.17583 0.19142 0.0
C115 C 0.29858 0.17889 0.19997 0.0
N116 N 0.29869 0.19155 0.22075 0.0
C117 C 0.32599 0.20426 0.23648 0.0
C118 C 0.32618 0.19139 0.21491 0.0
C119 C 0.31242 0.17865 0.19664 0.0
C120 C 0.31186 0.20386 0.23851 0.0
H121 H 0.28801 0.16903 0.18624 0.0
C122 C 0.25546 0.16262 0.19959 0.0
O123 O 0.23937 0.15237 0.36472 0.0
O124 O 0.26146 0.15313 0.34957 0.0
N125 N 0.29651 0.21415 0.26382 0.0
C126 C 0.29426 0.22544 0.28508 0.0
C127 C 0.30688 0.23894 0.30565 0.0
C128 C 0.32166 0.24071 0.304 0.0
C129 C 0.3237 0.229 0.28142 0.0
C130 C 0.31073 0.21588 0.26088 0.0
H131 H 0.28292 0.22412 0.28658 0.0
O132 O 0.26864 0.18251 0.38621 0.0
O133 O 0.27747 0.1843 0.30152 0.0
O134 O 0.24835 0.18321 0.30269 0.0
O135 O 0.26495 0.19965 0.23948 0.0
C136 C 0.33806 0.22972 0.27923 0.0
C137 C 0.3392 0.21734 0.2569 0.0
H138 H 0.33681 0.19113 0.21256 0.0
H139 H 0.31247 0.16865 0.18021 0.0
H140 H 0.30521 0.24793 0.32303 0.0
H141 H 0.33133 0.25107 0.3205 0.0
H142 H 0.34828 0.23967 0.29516 0.0
H143 H 0.35027 0.21796 0.256 0.0
Mn144 Mn 0.83026 0.08591 0.31651 0.0
Mn145 Mn 0.80477 0.08557 0.22431 0.0
C146 C 0.81 0.08904 0.34582 0.0
C147 C 0.85263 0.09903 0.36956 0.0
C148 C 0.80456 0.05674 0.26232 0.0
O149 O 0.84176 0.08971 0.24243 0.0
O150 O 0.82397 0.08998 0.18581 0.0
C151 C 0.82172 0.11857 0.1943 0.0
N152 N 0.80882 0.10616 0.21454 0.0
C153 C 0.79662 0.12125 0.2295 0.0
C154 C 0.80973 0.13417 0.20848 0.0
C155 C 0.82234 0.13283 0.19088 0.0
C156 C 0.79664 0.10733 0.2317 0.0
H157 H 0.83147 0.11761 0.18106 0.0
C158 C 0.83709 0.09112 0.19445 0.0
O159 O 0.84649 0.08442 0.3596 0.0
O160 O 0.84634 0.10611 0.34583 0.0
N161 N 0.78573 0.0816 0.25677 0.0
C162 C 0.77417 0.06816 0.27767 0.0
C163 C 0.76077 0.0676 0.29769 0.0
C164 C 0.75938 0.08083 0.29583 0.0
C165 C 0.77136 0.09448 0.27357 0.0
C166 C 0.78436 0.0943 0.25364 0.0
H167 H 0.7752 0.05797 0.27931 0.0
O168 O 0.81661 0.08424 0.38019 0.0
O169 O 0.81536 0.0917 0.29562 0.0
O170 O 0.8158 0.06334 0.2961 0.0
O171 O 0.7996 0.06393 0.23294 0.0
C172 C 0.771 0.10831 0.27108 0.0
C173 C 0.78364 0.12169 0.2492 0.0
H174 H 0.8103 0.14521 0.20605 0.0
H175 H 0.83253 0.14277 0.17489 0.0
H176 H 0.75157 0.05702 0.31478 0.0
H177 H 0.74909 0.08039 0.31185 0.0
H178 H 0.76114 0.10882 0.28646 0.0
H179 H 0.78331 0.1323 0.24814 0.0
Mn180 Mn 0.91321 0.74335 0.31793 0.0
Mn181 Mn 0.9143 0.71865 0.22559 0.0
C182 C 0.9104 0.72009 0.34706 0.0
C183 C 0.89948 0.7521 0.36975 0.0
C184 C 0.94273 0.74757 0.26467 0.0
O185 O 0.90957 0.7511 0.24371 0.0
O186 O 0.90946 0.73315 0.187 0.0
C187 C 0.88135 0.7019 0.19483 0.0
N188 N 0.89391 0.70177 0.21543 0.0
C189 C 0.87933 0.67445 0.2306 0.0
C190 C 0.86626 0.67427 0.2092 0.0
C191 C 0.86728 0.68806 0.19129 0.0
C192 C 0.89306 0.68857 0.23282 0.0
H193 H 0.88206 0.71248 0.18139 0.0
C194 C 0.90819 0.74505 0.19571 0.0
O195 O 0.91414 0.7608 0.36122 0.0
O196 O 0.89274 0.73879 0.34563 0.0
N197 N 0.9187 0.70391 0.25823 0.0
C198 C 0.93223 0.70614 0.27951 0.0
C199 C 0.93312 0.6935 0.2998 0.0
C200 C 0.92011 0.67871 0.29788 0.0
C201 C 0.90635 0.67669 0.27533 0.0
C202 C 0.90622 0.68968 0.25507 0.0
H203 H 0.94225 0.71748 0.28123 0.0
O204 O 0.91485 0.7314 0.38169 0.0
O205 O 0.90784 0.72281 0.29674 0.0
O206 O 0.93592 0.75188 0.2988 0.0
O207 O 0.93576 0.73551 0.23465 0.0
C208 C 0.89271 0.66233 0.27294 0.0
C209 C 0.8792 0.66121 0.2507 0.0
H210 H 0.85536 0.66364 0.20671 0.0
H211 H 0.85723 0.68803 0.175 0.0
H212 H 0.94377 0.69516 0.31718 0.0
H213 H 0.92079 0.66902 0.31418 0.0
H214 H 0.89244 0.65209 0.28866 0.0
H215 H 0.86874 0.65014 0.24966 0.0
Mn216 Mn 0.83087 0.7436 0.81817 0.0
Mn217 Mn 0.80502 0.71867 0.72645 0.0
C218 C 0.8105 0.72034 0.84783 0.0
C219 C 0.85341 0.75247 0.86976 0.0
C220 C 0.80542 0.7476 0.76493 0.0
O221 O 0.84217 0.75126 0.74375 0.0
O222 O 0.82428 0.73316 0.68749 0.0
C223 C 0.82129 0.70199 0.696 0.0
N224 N 0.80859 0.70183 0.71658 0.0
C225 C 0.79592 0.67453 0.73204 0.0
C226 C 0.80882 0.67438 0.71067 0.0
C227 C 0.82157 0.68818 0.69264 0.0
C228 C 0.79627 0.68863 0.73413 0.0
H229 H 0.83115 0.71258 0.68245 0.0
C230 C 0.83745 0.74511 0.6959 0.0
O231 O 0.84741 0.76113 0.86114 0.0
O232 O 0.84683 0.73913 0.84583 0.0
N233 N 0.78592 0.70392 0.75947 0.0
C234 C 0.77462 0.70613 0.78088 0.0
C235 C 0.76114 0.69348 0.80147 0.0
C236 C 0.7594 0.67872 0.79968 0.0
C237 C 0.77112 0.67672 0.77694 0.0
C238 C 0.78422 0.68971 0.75645 0.0
H239 H 0.77591 0.71746 0.78249 0.0
O240 O 0.81736 0.73171 0.88223 0.0
O241 O 0.81572 0.72301 0.79743 0.0
O242 O 0.8166 0.75202 0.79891 0.0
O243 O 0.80033 0.73548 0.7352 0.0
C244 C 0.77042 0.66237 0.77456 0.0
C245 C 0.78283 0.66128 0.75225 0.0
H246 H 0.80912 0.66377 0.7083 0.0
H247 H 0.8316 0.68817 0.67638 0.0
H248 H 0.75214 0.69513 0.81895 0.0
H249 H 0.74906 0.66903 0.81617 0.0
H250 H 0.76048 0.65213 0.79036 0.0
H251 H 0.78224 0.65022 0.75129 0.0
Mn252 Mn 0.25725 0.087 0.82265 0.0
Mn253 Mn 0.28224 0.08618 0.73104 0.0
C254 C 0.28056 0.09006 0.85239 0.0
C255 C 0.24815 0.10042 0.87444 0.0
C256 C 0.25343 0.05759 0.76976 0.0
O257 O 0.24956 0.09058 0.74818 0.0
O258 O 0.26767 0.0908 0.69196 0.0
C259 C 0.29876 0.11912 0.70016 0.0
N260 N 0.299 0.10664 0.721 0.0
C261 C 0.32629 0.12146 0.7367 0.0
C262 C 0.32634 0.13445 0.71506 0.0
C263 C 0.31251 0.13327 0.69677 0.0
C264 C 0.31224 0.10765 0.73876 0.0
H265 H 0.28814 0.11829 0.68643 0.0
C266 C 0.2557 0.09199 0.70031 0.0
O267 O 0.2396 0.08577 0.86541 0.0
O268 O 0.26151 0.10735 0.85061 0.0
N269 N 0.29708 0.08199 0.7642 0.0
C270 C 0.29497 0.06852 0.78569 0.0
C271 C 0.30766 0.06779 0.80637 0.0
C272 C 0.32238 0.08089 0.80462 0.0
C273 C 0.32428 0.09458 0.78185 0.0
C274 C 0.31124 0.09456 0.76121 0.0
H275 H 0.28367 0.05843 0.7873 0.0
O276 O 0.26917 0.08546 0.88674 0.0
O277 O 0.27788 0.09258 0.80196 0.0
O278 O 0.24897 0.06435 0.80349 0.0
O279 O 0.26554 0.06463 0.73998 0.0
C280 C 0.33857 0.10831 0.77963 0.0
C281 C 0.33957 0.12175 0.75718 0.0
H282 H 0.33691 0.14541 0.71269 0.0
H283 H 0.31245 0.14326 0.6803 0.0
H284 H 0.30609 0.05719 0.82392 0.0
H285 H 0.33211 0.08034 0.82121 0.0
H286 H 0.34884 0.10871 0.79564 0.0
H287 H 0.35058 0.13228 0.75627 0.0
Mn288 Mn 0.91328 0.16847 0.81609 0.0
Mn289 Mn 0.91428 0.19357 0.72065 0.0
C290 C 0.91003 0.18887 0.84229 0.0
C291 C 0.89982 0.1463 0.86985 0.0
C292 C 0.94282 0.19382 0.76278 0.0
O293 O 0.90987 0.15665 0.743 0.0
O294 O 0.90985 0.17412 0.68399 0.0
C295 C 0.88148 0.17681 0.68795 0.0
N296 N 0.89384 0.1897 0.70847 0.0
C297 C 0.8789 0.2022 0.71993 0.0
C298 C 0.86603 0.18909 0.69858 0.0
C299 C 0.86733 0.17634 0.68257 0.0
C300 C 0.89272 0.20204 0.72398 0.0
H301 H 0.88239 0.16694 0.67596 0.0
C302 C 0.90858 0.16101 0.69428 0.0
O303 O 0.9145 0.15243 0.86141 0.0
O304 O 0.89289 0.1525 0.84444 0.0
N305 N 0.91826 0.21278 0.75148 0.0
C306 C 0.93156 0.22425 0.77358 0.0
C307 C 0.93211 0.23772 0.79265 0.0
C308 C 0.91901 0.23928 0.78872 0.0
C309 C 0.90549 0.22738 0.76538 0.0
C310 C 0.90568 0.2143 0.74646 0.0
H311 H 0.94165 0.22309 0.77693 0.0
O312 O 0.91461 0.1824 0.87817 0.0
O313 O 0.90766 0.18329 0.79242 0.0
O314 O 0.93598 0.18279 0.79724 0.0
O315 O 0.93582 0.19861 0.7315 0.0
C316 C 0.89176 0.22787 0.76103 0.0
C317 C 0.87847 0.21529 0.73838 0.0
H318 H 0.85507 0.18864 0.69472 0.0
H319 H 0.85743 0.16616 0.66634 0.0
H320 H 0.94259 0.24685 0.81065 0.0
H321 H 0.91942 0.24961 0.80407 0.0
H322 H 0.89124 0.2378 0.77562 0.0
H323 H 0.86793 0.21572 0.7359 0.0
Mn324 Mn 0.74471 0.83112 0.68413 0.0
Mn325 Mn 0.72045 0.80625 0.77984 0.0
C326 C 0.72106 0.81072 0.658 0.0
C327 C 0.75346 0.8532 0.6299 0.0
C328 C 0.7486 0.80566 0.73841 0.0
O329 O 0.75318 0.84307 0.75688 0.0
O330 O 0.73578 0.8256 0.81625 0.0
C331 C 0.70497 0.82361 0.81163 0.0
N332 N 0.70415 0.81054 0.79162 0.0
C333 C 0.67676 0.79853 0.77979 0.0
C334 C 0.67729 0.81182 0.80061 0.0
C335 C 0.69147 0.82442 0.81654 0.0
C336 C 0.69058 0.79836 0.7761 0.0
H337 H 0.71586 0.83336 0.82353 0.0
C338 C 0.74767 0.83864 0.80568 0.0
O339 O 0.762 0.84707 0.63855 0.0
O340 O 0.74033 0.84705 0.65528 0.0
N341 N 0.70494 0.78707 0.74966 0.0
C342 C 0.70647 0.77528 0.72897 0.0
C343 C 0.69337 0.76183 0.71073 0.0
C344 C 0.67884 0.76063 0.71412 0.0
C345 C 0.67754 0.77285 0.73613 0.0
C346 C 0.69098 0.78588 0.75434 0.0
H347 H 0.71761 0.77617 0.72614 0.0
O348 O 0.73214 0.81712 0.62221 0.0
O349 O 0.72422 0.81639 0.70777 0.0
O350 O 0.75299 0.81674 0.70397 0.0
O351 O 0.7367 0.80088 0.7691 0.0
C352 C 0.66348 0.77269 0.73998 0.0
C353 C 0.66309 0.78554 0.76168 0.0
H354 H 0.66691 0.81253 0.80418 0.0
H355 H 0.69198 0.83475 0.83237 0.0
H356 H 0.69446 0.75245 0.6938 0.0
H357 H 0.66879 0.75031 0.69939 0.0
H358 H 0.65291 0.76282 0.72585 0.0
H359 H 0.65223 0.78535 0.76389 0.0
Mn360 Mn 0.16973 0.91338 0.68416 0.0
Mn361 Mn 0.19559 0.91423 0.77573 0.0
C362 C 0.19001 0.91038 0.65435 0.0
C363 C 0.14716 0.89985 0.63264 0.0
C364 C 0.19544 0.94282 0.7367 0.0
O365 O 0.15849 0.90985 0.75866 0.0
O366 O 0.17643 0.90973 0.81484 0.0
C367 C 0.17902 0.88131 0.80689 0.0
N368 N 0.19178 0.89375 0.78601 0.0
C369 C 0.20415 0.87883 0.77068 0.0
C370 C 0.19118 0.86588 0.79236 0.0
C371 C 0.17856 0.86714 0.81048 0.0
C372 C 0.20398 0.89267 0.76839 0.0
H373 H 0.16925 0.8822 0.8205 0.0
C374 C 0.16327 0.90854 0.80654 0.0
O375 O 0.15326 0.91452 0.64131 0.0
O376 O 0.15364 0.89299 0.65655 0.0
N377 N 0.2146 0.91833 0.74272 0.0
C378 C 0.22603 0.93178 0.72137 0.0
C379 C 0.23944 0.93244 0.70096 0.0
C380 C 0.24098 0.9193 0.70285 0.0
C381 C 0.22913 0.90563 0.72553 0.0
C382 C 0.21612 0.90572 0.74591 0.0
H383 H 0.22489 0.9419 0.71969 0.0
O384 O 0.18316 0.91491 0.62001 0.0
O385 O 0.18482 0.90783 0.7048 0.0
O386 O 0.18416 0.93607 0.70316 0.0
O387 O 0.2005 0.93578 0.76644 0.0
C388 C 0.22962 0.89187 0.72797 0.0
C389 C 0.21712 0.87847 0.75041 0.0
H390 H 0.19073 0.85491 0.79491 0.0
H391 H 0.16847 0.85718 0.82699 0.0
H392 H 0.24854 0.94303 0.68351 0.0
H393 H 0.25126 0.91981 0.68646 0.0
H394 H 0.23948 0.89143 0.71216 0.0
H395 H 0.21756 0.86792 0.75151 0.0
Mn396 Mn 0.08748 0.25642 0.68532 0.0
Mn397 Mn 0.0861 0.28084 0.77835 0.0
C398 C 0.09054 0.27986 0.65708 0.0
C399 C 0.10113 0.24764 0.63322 0.0
C400 C 0.05777 0.25219 0.73714 0.0
O401 O 0.09087 0.2484 0.75947 0.0
O402 O 0.09062 0.2661 0.81666 0.0
C403 C 0.1189 0.29727 0.81116 0.0
N404 N 0.10648 0.29759 0.79008 0.0
C405 C 0.12124 0.32499 0.77712 0.0
C406 C 0.13416 0.32497 0.79902 0.0
C407 C 0.13298 0.31105 0.81604 0.0
C408 C 0.10749 0.31092 0.77347 0.0
H409 H 0.11807 0.28659 0.82397 0.0
C410 C 0.09199 0.25426 0.8077 0.0
O411 O 0.08646 0.23903 0.64151 0.0
O412 O 0.10795 0.26088 0.65789 0.0
N413 N 0.08199 0.29583 0.74606 0.0
C414 C 0.0686 0.29379 0.72407 0.0
C415 C 0.06789 0.30658 0.70441 0.0
C416 C 0.08092 0.32132 0.70774 0.0
C417 C 0.09452 0.32315 0.73108 0.0
C418 C 0.09449 0.31 0.75057 0.0
H419 H 0.05856 0.28249 0.72129 0.0
O420 O 0.08613 0.26867 0.62194 0.0
O421 O 0.09287 0.27692 0.70738 0.0
O422 O 0.06473 0.24794 0.70351 0.0
O423 O 0.06462 0.26414 0.76774 0.0
C424 C 0.10817 0.33747 0.73503 0.0
C425 C 0.12153 0.33838 0.7579 0.0
H426 H 0.14507 0.33556 0.80258 0.0
H427 H 0.14293 0.31093 0.83271 0.0
H428 H 0.05735 0.30508 0.68647 0.0
H429 H 0.08038 0.33114 0.69199 0.0
H430 H 0.10857 0.34782 0.72002 0.0
H431 H 0.132 0.34943 0.76008 0.0
Mn432 Mn 0.83589 0.59071 0.53107 0.0
Mn433 Mn 0.86235 0.61534 0.62189 0.0
C434 C 0.85632 0.61388 0.50097 0.0
C435 C 0.81323 0.58207 0.48036 0.0
C436 C 0.86137 0.58629 0.58171 0.0
O437 O 0.82485 0.58313 0.60602 0.0
O438 O 0.84323 0.60093 0.66172 0.0
C439 C 0.84652 0.63225 0.65515 0.0
N440 N 0.85904 0.6323 0.63327 0.0
C441 C 0.87186 0.65964 0.61838 0.0
C442 C 0.85914 0.65989 0.64108 0.0
C443 C 0.84641 0.64613 0.65948 0.0
C444 C 0.87134 0.64547 0.61537 0.0
H445 H 0.83667 0.62169 0.669 0.0
C446 C 0.8299 0.58916 0.65383 0.0
O447 O 0.81911 0.57329 0.48856 0.0
O448 O 0.81996 0.59539 0.50444 0.0
N449 N 0.88134 0.63002 0.58801 0.0
C450 C 0.89245 0.62772 0.56535 0.0
C451 C 0.90589 0.64031 0.54426 0.0
C452 C 0.90778 0.65513 0.54684 0.0
C453 C 0.89626 0.65724 0.57086 0.0
C454 C 0.8832 0.64428 0.59179 0.0
H455 H 0.89104 0.61634 0.56311 0.0
O456 O 0.84923 0.60254 0.46659 0.0
O457 O 0.85131 0.61123 0.55165 0.0
O458 O 0.85 0.58202 0.54881 0.0
O459 O 0.8668 0.59841 0.61155 0.0
C460 C 0.89712 0.67165 0.57412 0.0
C461 C 0.88491 0.67284 0.59774 0.0
H462 H 0.85897 0.67056 0.6442 0.0
H463 H 0.83651 0.64623 0.67677 0.0
H464 H 0.91473 0.63859 0.52579 0.0
H465 H 0.91809 0.66479 0.52997 0.0
H466 H 0.90703 0.68186 0.55801 0.0
H467 H 0.88562 0.68395 0.59939 0.0
Mn468 Mn 0.40983 0.24654 0.53468 0.0
Mn469 Mn 0.38487 0.2475 0.62621 0.0
C470 C 0.38631 0.24299 0.50519 0.0
C471 C 0.41904 0.23305 0.48383 0.0
C472 C 0.41327 0.27609 0.58502 0.0
O473 O 0.41783 0.24351 0.6094 0.0
O474 O 0.39982 0.24349 0.66561 0.0
C475 C 0.36899 0.21478 0.65996 0.0
N476 N 0.36841 0.22698 0.63812 0.0
C477 C 0.34108 0.21166 0.6242 0.0
C478 C 0.34137 0.19896 0.64688 0.0
C479 C 0.3554 0.20052 0.66476 0.0
C480 C 0.35498 0.22559 0.6207 0.0
H481 H 0.37976 0.2159 0.67343 0.0
C482 C 0.41184 0.24239 0.65737 0.0
O483 O 0.42745 0.24777 0.49173 0.0
O484 O 0.40577 0.22612 0.50826 0.0
N485 N 0.36966 0.25111 0.59286 0.0
C486 C 0.37143 0.26434 0.57032 0.0
C487 C 0.35851 0.26466 0.54979 0.0
C488 C 0.34392 0.25141 0.55283 0.0
C489 C 0.34236 0.23798 0.57677 0.0
C490 C 0.35563 0.23841 0.59714 0.0
H491 H 0.38262 0.27454 0.56775 0.0
O492 O 0.39762 0.24751 0.47051 0.0
O493 O 0.38917 0.24079 0.5558 0.0
O494 O 0.41785 0.26926 0.55211 0.0
O495 O 0.40125 0.26908 0.61527 0.0
C496 C 0.32822 0.22414 0.58051 0.0
C497 C 0.32758 0.21098 0.60409 0.0
H498 H 0.33093 0.18792 0.65037 0.0
H499 H 0.35573 0.19075 0.68204 0.0
H500 H 0.3598 0.27507 0.5314 0.0
H501 H 0.33401 0.25165 0.5364 0.0
H502 H 0.31778 0.22344 0.56481 0.0
H503 H 0.31666 0.20036 0.60613 0.0
Mn504 Mn 0.7543 0.16287 0.52609 0.0
Mn505 Mn 0.75175 0.13627 0.61778 0.0
C506 C 0.75648 0.14204 0.49683 0.0
C507 C 0.7688 0.18535 0.47474 0.0
C508 C 0.7241 0.138 0.57723 0.0
O509 O 0.75801 0.1741 0.60082 0.0
O510 O 0.75704 0.15563 0.65705 0.0
C511 C 0.78448 0.15135 0.65093 0.0
N512 N 0.7718 0.139 0.62921 0.0
C513 C 0.78566 0.12551 0.61457 0.0
C514 C 0.79885 0.13804 0.63711 0.0
C515 C 0.79825 0.15102 0.65531 0.0
C516 C 0.77224 0.12646 0.61155 0.0
H517 H 0.78411 0.16139 0.66461 0.0
C518 C 0.75891 0.16907 0.64879 0.0
O519 O 0.75419 0.17983 0.48286 0.0
O520 O 0.77509 0.17839 0.4993 0.0
N521 N 0.74686 0.11707 0.58433 0.0
C522 C 0.7333 0.10619 0.56181 0.0
C523 C 0.73201 0.09253 0.54103 0.0
C524 C 0.74466 0.0902 0.54372 0.0
C525 C 0.75847 0.10151 0.5675 0.0
C526 C 0.759 0.11479 0.58818 0.0
H527 H 0.72355 0.10795 0.55947 0.0
O528 O 0.75248 0.14925 0.46208 0.0
O529 O 0.75889 0.14715 0.54735 0.0
O530 O 0.7314 0.14922 0.54383 0.0
O531 O 0.73058 0.13242 0.60744 0.0
C532 C 0.77178 0.10023 0.57068 0.0
C533 C 0.78538 0.11223 0.59409 0.0
H534 H 0.80952 0.13787 0.64024 0.0
H535 H 0.80841 0.16076 0.67248 0.0
H536 H 0.72132 0.08387 0.52269 0.0
H537 H 0.74368 0.07973 0.52706 0.0
H538 H 0.77174 0.09013 0.55468 0.0
H539 H 0.79559 0.11119 0.59573 0.0
Mn540 Mn 0.92132 0.50163 0.65804 0.0
Mn541 Mn 0.94547 0.52708 0.56346 0.0
C542 C 0.94497 0.52195 0.68478 0.0
C543 C 0.91264 0.47924 0.71058 0.0
C544 C 0.91719 0.5272 0.60633 0.0
O545 O 0.91289 0.49006 0.58442 0.0
O546 O 0.9304 0.5078 0.52614 0.0
C547 C 0.96141 0.51031 0.52978 0.0
N548 N 0.962 0.52318 0.55072 0.0
C549 C 0.98945 0.53562 0.56168 0.0
C550 C 0.98916 0.52254 0.53991 0.0
C551 C 0.97507 0.50982 0.52397 0.0
C552 C 0.97548 0.53547 0.56633 0.0
H553 H 0.9506 0.50047 0.51778 0.0
C554 C 0.91853 0.49467 0.53584 0.0
O555 O 0.90407 0.48538 0.70293 0.0
O556 O 0.92577 0.48558 0.68514 0.0
N557 N 0.96077 0.54621 0.59468 0.0
C558 C 0.95901 0.55773 0.61662 0.0
C559 C 0.972 0.57124 0.63521 0.0
C560 C 0.98664 0.57278 0.63085 0.0
C561 C 0.98818 0.56083 0.60757 0.0
C562 C 0.97485 0.54771 0.58918 0.0
H563 H 0.94777 0.5566 0.62014 0.0
O564 O 0.93394 0.51533 0.72064 0.0
O565 O 0.94175 0.51656 0.63469 0.0
O566 O 0.91295 0.51603 0.64025 0.0
O567 O 0.929 0.53211 0.57511 0.0
C568 C 0.0024 0.56133 0.60259 0.0
C569 C 0.00303 0.54872 0.57982 0.0
H570 H 0.99965 0.52208 0.53561 0.0
H571 H 0.97474 0.49965 0.50739 0.0
H572 H 0.97071 0.58041 0.6531 0.0
H573 H 0.99661 0.58314 0.64576 0.0
H574 H 0.0129 0.57128 0.61672 0.0
H575 H 0.014 0.54916 0.57684 0.0
Mn576 Mn 0.49691 0.42055 0.65064 0.0
Mn577 Mn 0.47137 0.41999 0.55816 0.0
C578 C 0.4769 0.42412 0.67943 0.0
C579 C 0.51938 0.43364 0.70307 0.0
C580 C 0.47084 0.3912 0.59874 0.0
O581 O 0.50824 0.42383 0.57648 0.0
O582 O 0.49041 0.4239 0.51955 0.0
C583 C 0.48862 0.45277 0.52536 0.0
N584 N 0.47569 0.4406 0.54658 0.0
C585 C 0.46386 0.4561 0.56006 0.0
C586 C 0.47702 0.46877 0.53803 0.0
C587 C 0.48945 0.4671 0.52068 0.0
C588 C 0.46367 0.44209 0.5635 0.0
H589 H 0.49824 0.45157 0.51229 0.0
C590 C 0.5035 0.42499 0.52831 0.0
O591 O 0.51305 0.41898 0.69391 0.0
O592 O 0.51323 0.44078 0.67879 0.0
N593 N 0.4525 0.41649 0.59068 0.0
C594 C 0.44086 0.40326 0.61257 0.0
C595 C 0.42761 0.40303 0.63245 0.0
C596 C 0.42644 0.41637 0.62944 0.0
C597 C 0.43849 0.4298 0.60617 0.0
C598 C 0.45134 0.42929 0.58644 0.0
H599 H 0.44172 0.39299 0.6151 0.0
O600 O 0.48347 0.41938 0.71423 0.0
O601 O 0.48216 0.42647 0.62909 0.0
O602 O 0.48222 0.39793 0.63184 0.0
O603 O 0.46591 0.3983 0.56869 0.0
C604 C 0.43835 0.44372 0.60248 0.0
C605 C 0.45105 0.45687 0.57958 0.0
H606 H 0.47774 0.47987 0.53461 0.0
H607 H 0.49967 0.47686 0.50389 0.0
H608 H 0.41835 0.39262 0.65032 0.0
H609 H 0.41627 0.4162 0.64536 0.0
H610 H 0.42862 0.44449 0.6177 0.0
H611 H 0.45088 0.46756 0.57756 0.0
Mn612 Mn 0.57925 0.07722 0.65429 0.0
Mn613 Mn 0.5811 0.05354 0.559 0.0
C614 C 0.57636 0.05369 0.68033 0.0
C615 C 0.56528 0.0854 0.70768 0.0
C616 C 0.6092 0.08207 0.60217 0.0
O617 O 0.57578 0.08554 0.58103 0.0
O618 O 0.5766 0.06846 0.52199 0.0
C619 C 0.54843 0.03715 0.52457 0.0
N620 N 0.56082 0.03679 0.54577 0.0
C621 C 0.54614 0.00931 0.55657 0.0
C622 C 0.53326 0.00938 0.53452 0.0
C623 C 0.53441 0.02336 0.51851 0.0
C624 C 0.55983 0.0234 0.5613 0.0
H625 H 0.54924 0.04788 0.51257 0.0
C626 C 0.57497 0.08009 0.53225 0.0
O627 O 0.57995 0.09422 0.69982 0.0
O628 O 0.55865 0.07232 0.68191 0.0
N629 N 0.58522 0.03843 0.59013 0.0
C630 C 0.59851 0.04043 0.6129 0.0
C631 C 0.5992 0.02759 0.63204 0.0
C632 C 0.58624 0.01283 0.62747 0.0
C633 C 0.57273 0.01105 0.60344 0.0
C634 C 0.57278 0.02425 0.58449 0.0
H635 H 0.60848 0.05175 0.61674 0.0
O636 O 0.58068 0.06467 0.71638 0.0
O637 O 0.57408 0.05692 0.63037 0.0
O638 O 0.6021 0.08608 0.63617 0.0
O639 O 0.60248 0.07024 0.57096 0.0
C640 C 0.55913 0.99672 0.59842 0.0
C641 C 0.54584 0.99585 0.57507 0.0
H642 H 0.52239 0.99878 0.53013 0.0
H643 H 0.5245 0.02352 0.50173 0.0
H644 H 0.60966 0.02906 0.65057 0.0
H645 H 0.58675 0.00297 0.64287 0.0
H646 H 0.55872 0.98632 0.61301 0.0
H647 H 0.53541 0.9848 0.57207 0.0
Mn648 Mn 0.4956 0.07597 0.15571 0.0
Mn649 Mn 0.46982 0.05194 0.06172 0.0
C650 C 0.4749 0.05264 0.18314 0.0
C651 C 0.51792 0.08429 0.20833 0.0
C652 C 0.4706 0.08081 0.10307 0.0
O653 O 0.50722 0.08396 0.0819 0.0
O654 O 0.48931 0.06644 0.02413 0.0
C655 C 0.48569 0.03498 0.02956 0.0
N656 N 0.47304 0.03494 0.05018 0.0
C657 C 0.45983 0.00749 0.06254 0.0
C658 C 0.47268 0.00723 0.04111 0.0
C659 C 0.48566 0.02104 0.02463 0.0
C660 C 0.4605 0.02172 0.06628 0.0
H661 H 0.49573 0.04558 0.01715 0.0
C662 C 0.50259 0.07815 0.03353 0.0
O663 O 0.51212 0.09313 0.20009 0.0
O664 O 0.5113 0.07108 0.18341 0.0
N665 N 0.4505 0.03719 0.09331 0.0
C666 C 0.43926 0.03949 0.11482 0.0
C667 C 0.42554 0.02683 0.1338 0.0
C668 C 0.42349 0.01196 0.13028 0.0
C669 C 0.43515 0.00988 0.1075 0.0
C670 C 0.44851 0.0229 0.08868 0.0
H671 H 0.44078 0.05089 0.11769 0.0
O672 O 0.48175 0.06373 0.21862 0.0
O673 O 0.4803 0.05561 0.13303 0.0
O674 O 0.48166 0.08483 0.13728 0.0
O675 O 0.46546 0.06892 0.07211 0.0
C676 C 0.43415 0.99541 0.10345 0.0
C677 C 0.4465 0.99423 0.08115 0.0
H678 H 0.47273 0.99652 0.03749 0.0
H679 H 0.49565 0.02094 0.00831 0.0
H680 H 0.41659 0.02854 0.15135 0.0
H681 H 0.41296 0.00225 0.14552 0.0
H682 H 0.424 0.98514 0.11791 0.0
H683 H 0.44566 0.98306 0.07887 0.0
Mn684 Mn 0.92137 0.41973 0.15776 0.0
Mn685 Mn 0.94575 0.41933 0.06211 0.0
C686 C 0.94535 0.42378 0.18363 0.0
C687 C 0.91211 0.43267 0.21163 0.0
C688 C 0.91805 0.39043 0.10509 0.0
O689 O 0.91264 0.42275 0.08475 0.0
O690 O 0.93011 0.42283 0.0254 0.0
C691 C 0.96064 0.45198 0.02804 0.0
N692 N 0.96176 0.43999 0.04894 0.0
C693 C 0.98917 0.45582 0.05934 0.0
C694 C 0.98832 0.46831 0.03758 0.0
C695 C 0.97399 0.46639 0.02193 0.0
C696 C 0.97549 0.44172 0.06416 0.0
H697 H 0.94964 0.45059 0.01631 0.0
C698 C 0.91812 0.4238 0.03589 0.0
O699 O 0.90391 0.41795 0.20327 0.0
O700 O 0.9252 0.43993 0.18609 0.0
N701 N 0.96156 0.4162 0.09277 0.0
C702 C 0.96032 0.40317 0.11509 0.0
C703 C 0.97359 0.40323 0.13374 0.0
C704 C 0.98799 0.41667 0.12911 0.0
C705 C 0.989 0.42989 0.10549 0.0
C706 C 0.9754 0.42909 0.08703 0.0
H707 H 0.94927 0.39283 0.11894 0.0
O708 O 0.93432 0.41892 0.21967 0.0
O709 O 0.94194 0.42591 0.13374 0.0
O710 O 0.91355 0.39709 0.13909 0.0
O711 O 0.92984 0.39761 0.07396 0.0
C712 C 0.00293 0.44391 0.10037 0.0
C713 C 0.00301 0.45687 0.0774 0.0
H714 H 0.99857 0.47947 0.03314 0.0
H715 H 0.97323 0.476 0.00539 0.0
H716 H 0.97272 0.39298 0.15194 0.0
H717 H 0.99818 0.41672 0.14413 0.0
H718 H 0.01361 0.44491 0.11461 0.0
H719 H 0.01376 0.46764 0.07431 0.0
Mn720 Mn 0.5795 0.50241 0.15114 0.0
Mn721 Mn 0.5804 0.52766 0.05651 0.0
C722 C 0.57641 0.52282 0.17831 0.0
C723 C 0.56607 0.48012 0.20425 0.0
C724 C 0.60897 0.52783 0.09776 0.0
O725 O 0.57605 0.49072 0.07775 0.0
O726 O 0.57587 0.50824 0.01946 0.0
C727 C 0.5475 0.51092 0.02508 0.0
N728 N 0.55993 0.52381 0.04519 0.0
C729 C 0.54508 0.53638 0.05726 0.0
C730 C 0.53214 0.52327 0.03633 0.0
C731 C 0.53335 0.51048 0.02025 0.0
C732 C 0.55888 0.53617 0.0609 0.0
H733 H 0.54835 0.50102 0.01298 0.0
C734 C 0.57468 0.49514 0.02926 0.0
O735 O 0.58074 0.48626 0.19566 0.0
O736 O 0.55913 0.4864 0.1794 0.0
N737 N 0.5845 0.54691 0.08737 0.0
C738 C 0.59795 0.55849 0.10813 0.0
C739 C 0.59865 0.57209 0.12652 0.0
C740 C 0.58554 0.57367 0.12316 0.0
C741 C 0.57188 0.56166 0.10107 0.0
C742 C 0.57193 0.54846 0.08277 0.0
H743 H 0.60805 0.55733 0.11087 0.0
O744 O 0.58091 0.5162 0.2138 0.0
O745 O 0.57392 0.51733 0.12828 0.0
O746 O 0.60218 0.51677 0.13213 0.0
O747 O 0.60194 0.53265 0.06673 0.0
C748 C 0.55817 0.5622 0.09718 0.0
C749 C 0.54477 0.54955 0.07544 0.0
H750 H 0.52119 0.52285 0.0328 0.0
H751 H 0.5234 0.50029 0.00433 0.0
H752 H 0.60923 0.5813 0.14351 0.0
H753 H 0.58608 0.5841 0.13797 0.0
H754 H 0.55776 0.57222 0.11132 0.0
H755 H 0.53425 0.55003 0.07322 0.0
Mn756 Mn 0.41032 0.16508 0.03427 0.0
Mn757 Mn 0.38549 0.13933 0.12658 0.0
C758 C 0.38691 0.14482 0.00521 0.0
C759 C 0.41936 0.18758 0.98231 0.0
C760 C 0.41408 0.13934 0.08647 0.0
O761 O 0.41823 0.1764 0.10853 0.0
O762 O 0.40031 0.1585 0.16525 0.0
C763 C 0.36935 0.15604 0.15866 0.0
N764 N 0.3689 0.14323 0.13766 0.0
C765 C 0.34156 0.13092 0.12364 0.0
C766 C 0.34172 0.14394 0.14545 0.0
C767 C 0.35568 0.15656 0.16297 0.0
C768 C 0.35553 0.13104 0.12059 0.0
H769 H 0.38007 0.1658 0.17183 0.0
C770 C 0.41226 0.17166 0.15661 0.0
O771 O 0.42789 0.18145 0.99098 0.0
O772 O 0.40606 0.1812 0.00657 0.0
N773 N 0.37041 0.12032 0.09399 0.0
C774 C 0.3723 0.10885 0.07232 0.0
C775 C 0.35945 0.09545 0.05228 0.0
C776 C 0.3448 0.09397 0.05491 0.0
C777 C 0.34311 0.10585 0.07797 0.0
C778 C 0.35631 0.11885 0.09788 0.0
H779 H 0.38354 0.10994 0.07007 0.0
O780 O 0.39822 0.15158 0.97051 0.0
O781 O 0.38971 0.15006 0.05559 0.0
O782 O 0.41856 0.15063 0.05302 0.0
O783 O 0.40202 0.1343 0.11653 0.0
C784 C 0.32889 0.10541 0.08125 0.0
C785 C 0.32812 0.11795 0.10395 0.0
H786 H 0.33121 0.14443 0.14856 0.0
H787 H 0.35591 0.16668 0.17958 0.0
H788 H 0.36084 0.08632 0.03458 0.0
H789 H 0.33494 0.08369 0.03886 0.0
H790 H 0.31851 0.09555 0.06586 0.0
H791 H 0.31715 0.11754 0.10565 0.0
Mn792 Mn 0.83722 0.24571 0.0246 0.0
Mn793 Mn 0.86374 0.24741 0.11481 0.0
C794 C 0.8576 0.24294 0.99403 0.0
C795 C 0.8146 0.23181 0.97354 0.0
C796 C 0.86258 0.27553 0.07614 0.0
O797 O 0.82622 0.24204 0.09982 0.0
O798 O 0.84454 0.24229 0.155 0.0
C799 C 0.84834 0.21458 0.1469 0.0
N800 N 0.86073 0.22722 0.12511 0.0
C801 C 0.87384 0.21306 0.1087 0.0
C802 C 0.86127 0.19992 0.13128 0.0
C803 C 0.84846 0.20069 0.1504 0.0
C804 C 0.87311 0.22661 0.10662 0.0
H805 H 0.83843 0.21509 0.16128 0.0
C806 C 0.8312 0.24074 0.14739 0.0
O807 O 0.82045 0.24644 0.98241 0.0
O808 O 0.8213 0.22515 0.99736 0.0
N809 N 0.88273 0.25208 0.08013 0.0
C810 C 0.89358 0.26556 0.05699 0.0
C811 C 0.90701 0.26663 0.03481 0.0
C812 C 0.90915 0.25385 0.03669 0.0
C813 C 0.89787 0.24013 0.06103 0.0
C814 C 0.88481 0.2398 0.08307 0.0
H815 H 0.89197 0.2754 0.05519 0.0
O816 O 0.85058 0.24733 0.95992 0.0
O817 O 0.85262 0.24058 0.04472 0.0
O818 O 0.85131 0.2685 0.04279 0.0
O819 O 0.86794 0.26875 0.10582 0.0
C820 C 0.89894 0.22668 0.06338 0.0
C821 C 0.88693 0.21315 0.08712 0.0
H822 H 0.86126 0.18915 0.13368 0.0
H823 H 0.83867 0.19057 0.1676 0.0
H824 H 0.91565 0.27725 0.01601 0.0
H825 H 0.91944 0.25467 0.01896 0.0
H826 H 0.90886 0.22657 0.04638 0.0
H827 H 0.88779 0.20283 0.08801 0.0
Mn828 Mn 0.75375 0.59085 0.03074 0.0
Mn829 Mn 0.75232 0.61549 0.12256 0.0
C830 C 0.75656 0.61409 1.00136 0.0
C831 C 0.76748 0.58208 0.97902 0.0
C832 C 0.72403 0.58661 0.08248 0.0
O833 O 0.7573 0.58313 0.10524 0.0
O834 O 0.75699 0.60095 0.16161 0.0
C835 C 0.78515 0.63217 0.15499 0.0
N836 N 0.77268 0.63234 0.13363 0.0
C837 C 0.78735 0.65968 0.11899 0.0
C838 C 0.80032 0.65981 0.14115 0.0
C839 C 0.79921 0.64599 0.15917 0.0
C840 C 0.77362 0.64557 0.11613 0.0
H841 H 0.78437 0.62156 0.16854 0.0
C842 C 0.75843 0.58913 0.15323 0.0
O843 O 0.75284 0.57338 0.98774 0.0
O844 O 0.77424 0.59539 0.00319 0.0
N845 N 0.74807 0.6303 0.08951 0.0
C846 C 0.73462 0.62812 0.0676 0.0
C847 C 0.73383 0.6408 0.04716 0.0
C848 C 0.74684 0.65557 0.04959 0.0
C849 C 0.76051 0.65754 0.07282 0.0
C850 C 0.76056 0.64451 0.09318 0.0
H851 H 0.7246 0.61679 0.06548 0.0
O852 O 0.75218 0.60278 0.96677 0.0
O853 O 0.75904 0.61139 0.05181 0.0
O854 O 0.73101 0.58229 0.0492 0.0
O855 O 0.73087 0.59868 0.11253 0.0
C856 C 0.77415 0.67189 0.07581 0.0
C857 C 0.78757 0.67295 0.09877 0.0
H858 H 0.81121 0.67044 0.14416 0.0
H859 H 0.80919 0.64599 0.17607 0.0
H860 H 0.72324 0.63918 0.02928 0.0
H861 H 0.74624 0.66529 0.0332 0.0
H862 H 0.7745 0.68215 0.06004 0.0
H863 H 0.79803 0.68402 0.1003 0.0
Mn864 Mn 0.50349 0.92261 0.85058 0.0
Mn865 Mn 0.52915 0.94668 0.94469 0.0
C866 C 0.5238 0.94624 0.82353 0.0
C867 C 0.48106 0.91395 0.79844 0.0
C868 C 0.52884 0.91816 0.90196 0.0
O869 O 0.49204 0.91432 0.92446 0.0
O870 O 0.50978 0.93192 0.98253 0.0
C871 C 0.51301 0.96322 0.97882 0.0
N872 N 0.52567 0.96349 0.95729 0.0
C873 C 0.53847 0.99092 0.9451 0.0
C874 C 0.52561 0.99095 0.96746 0.0
C875 C 0.51282 0.97704 0.98434 0.0
C876 C 0.53805 0.97681 0.94095 0.0
H877 H 0.50311 0.95254 0.99149 0.0
C878 C 0.49659 0.9201 0.97294 0.0
O879 O 0.48717 0.90536 0.80607 0.0
O880 O 0.48744 0.9271 0.82376 0.0
N881 N 0.54828 0.96165 0.91248 0.0
C882 C 0.55946 0.95955 0.88932 0.0
C883 C 0.57292 0.97231 0.86924 0.0
C884 C 0.57475 0.98708 0.87324 0.0
C885 C 0.56313 0.98897 0.89761 0.0
C886 C 0.55005 0.97585 0.9175 0.0
H887 H 0.55808 0.94821 0.88589 0.0
O888 O 0.51713 0.93518 0.78777 0.0
O889 O 0.51849 0.94301 0.87374 0.0
O890 O 0.51777 0.91411 0.86786 0.0
O891 O 0.53382 0.92993 0.93344 0.0
C892 C 0.5639 0.00332 0.90204 0.0
C893 C 0.55157 0.00429 0.9257 0.0
H894 H 0.52536 0.00157 0.97142 0.0
H895 H 0.50281 0.97696 1.00136 0.0
H896 H 0.58183 0.97075 0.85042 0.0
H897 H 0.58508 0.99687 0.85713 0.0
H898 H 0.57383 0.01366 0.88672 0.0
H899 H 0.55221 0.01536 0.92822 0.0
Mn900 Mn 0.07666 0.58019 0.84761 0.0
Mn901 Mn 0.05238 0.58126 0.94208 0.0
C902 C 0.05309 0.57701 0.82055 0.0
C903 C 0.08535 0.56653 0.79496 0.0
C904 C 0.08085 0.60975 0.90063 0.0
O905 O 0.08493 0.57684 0.92118 0.0
O906 O 0.06723 0.57672 0.97933 0.0
C907 C 0.0361 0.54839 0.97399 0.0
N908 N 0.0357 0.56083 0.9536 0.0
C909 C 0.00827 0.54603 0.94129 0.0
C910 C 0.00838 0.53309 0.9625 0.0
C911 C 0.02236 0.53427 0.97884 0.0
C912 C 0.02232 0.55981 0.93765 0.0
H913 H 0.04683 0.54923 0.98626 0.0
C914 C 0.07914 0.57553 0.96964 0.0
O915 O 0.09395 0.58122 0.80295 0.0
O916 O 0.07217 0.55973 0.82002 0.0
N917 N 0.03729 0.58538 0.91084 0.0
C918 C 0.03923 0.59881 0.88958 0.0
C919 C 0.02637 0.59953 0.87082 0.0
C920 C 0.01166 0.58647 0.87427 0.0
C921 C 0.00993 0.57282 0.89679 0.0
C922 C 0.02314 0.57285 0.91546 0.0
H923 H 0.05052 0.60888 0.88675 0.0
O924 O 0.06417 0.58147 0.78491 0.0
O925 O 0.0562 0.57468 0.87059 0.0
O926 O 0.08507 0.60293 0.86615 0.0
O927 O 0.06901 0.60275 0.93167 0.0
C928 C 0.99564 0.55913 0.90067 0.0
C929 C 0.99482 0.54573 0.92276 0.0
H930 H 0.99782 0.52215 0.96603 0.0
H931 H 0.02254 0.52432 0.99498 0.0
H932 H 0.0278 0.6101 0.85347 0.0
H933 H 0.00179 0.58701 0.85917 0.0
H934 H 0.98524 0.55873 0.8862 0.0
H935 H 0.9838 0.53523 0.92494 0.0
Mn936 Mn 0.42131 0.49857 0.85679 0.0
Mn937 Mn 0.41958 0.47246 0.94906 0.0
C938 C 0.42406 0.47807 0.82784 0.0
C939 C 0.43542 0.52113 0.80561 0.0
C940 C 0.39142 0.47317 0.90803 0.0
O941 O 0.42469 0.50982 0.93118 0.0
O942 O 0.42424 0.4917 0.98791 0.0
C943 C 0.45236 0.48854 0.98205 0.0
N944 N 0.43989 0.4759 0.96069 0.0
C945 C 0.4545 0.46315 0.94679 0.0
C946 C 0.46747 0.47599 0.96898 0.0
C947 C 0.46639 0.48874 0.98663 0.0
C948 C 0.4408 0.46358 0.94352 0.0
H949 H 0.45161 0.49841 0.9953 0.0
C950 C 0.4257 0.50496 0.97929 0.0
O951 O 0.42074 0.51527 0.81335 0.0
O952 O 0.44195 0.51442 0.83024 0.0
N953 N 0.4153 0.45336 0.9163 0.0
C954 C 0.40186 0.44209 0.89429 0.0
C955 C 0.40104 0.42858 0.87421 0.0
C956 C 0.41401 0.42677 0.87711 0.0
C957 C 0.42767 0.43846 0.90045 0.0
C958 C 0.42775 0.45158 0.92045 0.0
H959 H 0.39187 0.44344 0.89182 0.0
O960 O 0.41984 0.48507 0.79295 0.0
O961 O 0.42643 0.48323 0.87831 0.0
O962 O 0.39847 0.48443 0.87459 0.0
O963 O 0.39819 0.46792 0.93836 0.0
C964 C 0.44127 0.4377 0.90389 0.0
C965 C 0.45469 0.45005 0.92692 0.0
H966 H 0.47834 0.47622 0.97229 0.0
H967 H 0.47637 0.49873 0.00352 0.0
H968 H 0.39046 0.41961 0.85623 0.0
H969 H 0.41338 0.41641 0.86098 0.0
H970 H 0.44159 0.42774 0.88839 0.0
H971 H 0.46512 0.4494 0.92877 0.0
Mn972 Mn 0.59028 0.83474 0.97378 0.0
Mn973 Mn 0.61471 0.8609 0.88162 0.0
C974 C 0.61351 0.85523 0.00289 0.0
C975 C 0.5817 0.81219 0.02514 0.0
C976 C 0.58595 0.86029 0.92303 0.0
O977 O 0.58241 0.8235 0.89938 0.0
O978 O 0.6 0.84172 0.84272 0.0
C979 C 0.63119 0.84465 0.84807 0.0
N980 N 0.63148 0.85732 0.86958 0.0
C981 C 0.65887 0.86997 0.88278 0.0
C982 C 0.65888 0.85709 0.86043 0.0
C983 C 0.64497 0.84437 0.84307 0.0
C984 C 0.64479 0.86961 0.88653 0.0
H985 H 0.62051 0.83481 0.835 0.0
C986 C 0.58823 0.82844 0.85126 0.0
O987 O 0.57293 0.81809 0.01698 0.0
O988 O 0.59496 0.81884 1.00065 0.0
N989 N 0.62967 0.87997 0.91423 0.0
C990 C 0.62763 0.89132 0.93615 0.0
C991 C 0.64042 0.90483 0.95585 0.0
C992 C 0.65516 0.90654 0.95261 0.0
C993 C 0.65699 0.89478 0.92928 0.0
C994 C 0.64385 0.88166 0.9097 0.0
H995 H 0.61633 0.89005 0.93882 0.0
O996 O 0.60227 0.84821 0.03768 0.0
O997 O 0.61078 0.85008 0.95237 0.0
O998 O 0.58164 0.84891 0.95597 0.0
O999 O 0.59798 0.86559 0.89276 0.0
C1000 C 0.67131 0.89546 0.92537 0.0
C1001 C 0.67224 0.88305 0.90228 0.0
H1002 H 0.66947 0.85679 0.85676 0.0
H1003 H 0.64488 0.83435 0.82604 0.0
H1004 H 0.63891 0.91386 0.97378 0.0
H1005 H 0.66496 0.9169 0.96843 0.0
H1006 H 0.68166 0.90541 0.94051 0.0
H1007 H 0.6833 0.88364 0.90003 0.0
Mn1008 Mn 0.16273 0.75444 0.97294 0.0
Mn1009 Mn 0.13648 0.75302 0.88198 0.0
C1010 C 0.1423 0.75712 0.00322 0.0
C1011 C 0.18539 0.76831 0.02376 0.0
C1012 C 0.13727 0.72475 0.921 0.0
O1013 O 0.17383 0.75802 0.89814 0.0
O1014 O 0.15568 0.75787 0.84245 0.0
C1015 C 0.15244 0.78591 0.85046 0.0
N1016 N 0.13985 0.77334 0.8716 0.0
C1017 C 0.12698 0.7878 0.88677 0.0
C1018 C 0.13977 0.80087 0.86483 0.0
C1019 C 0.15256 0.79992 0.84667 0.0
C1020 C 0.1275 0.77414 0.8893 0.0
H1021 H 0.16233 0.78525 0.83678 0.0
C1022 C 0.16893 0.75926 0.8504 0.0
O1023 O 0.17946 0.75365 0.01528 0.0
O1024 O 0.17868 0.77498 1.00006 0.0
N1025 N 0.1174 0.74858 0.91542 0.0
C1026 C 0.10619 0.73505 0.93707 0.0
C1027 C 0.09266 0.7341 0.95761 0.0
C1028 C 0.09077 0.74703 0.95549 0.0
C1029 C 0.1024 0.76078 0.93249 0.0
C1030 C 0.11555 0.76099 0.91206 0.0
H1031 H 0.10759 0.72508 0.93889 0.0
O1032 O 0.14936 0.7528 0.03744 0.0
O1033 O 0.14737 0.75965 0.95262 0.0
O1034 O 0.14855 0.73169 0.95442 0.0
O1035 O 0.13199 0.7316 0.89129 0.0
C1036 C 0.10156 0.77434 0.92974 0.0
C1037 C 0.11386 0.78785 0.90705 0.0
H1038 H 0.13995 0.81171 0.86209 0.0
H1039 H 0.1625 0.80997 0.82995 0.0
H1040 H 0.08374 0.72344 0.97531 0.0
H1041 H 0.0804 0.7463 0.97195 0.0
H1042 H 0.09157 0.77455 0.94551 0.0
H1043 H 0.11314 0.79826 0.90575 0.0
Mn1044 Mn 0.24675 0.41012 0.98959 0.0
Mn1045 Mn 0.24836 0.38639 0.89401 0.0
C1046 C 0.24403 0.38665 0.01561 0.0
C1047 C 0.2328 0.4183 0.04309 0.0
C1048 C 0.27652 0.41516 0.93576 0.0
O1049 O 0.24309 0.41835 0.91646 0.0
O1050 O 0.24325 0.40095 0.85746 0.0
C1051 C 0.21548 0.36943 0.86237 0.0
N1052 N 0.22812 0.36938 0.88248 0.0
C1053 C 0.2139 0.34192 0.89444 0.0
C1054 C 0.20076 0.34167 0.87352 0.0
C1055 C 0.20155 0.35549 0.85748 0.0
C1056 C 0.22748 0.35615 0.8981 0.0
H1057 H 0.216 0.38004 0.85034 0.0
C1058 C 0.24173 0.41264 0.86779 0.0
O1059 O 0.24745 0.42715 0.03496 0.0
O1060 O 0.22619 0.40516 0.01769 0.0
N1061 N 0.253 0.37161 0.92479 0.0
C1062 C 0.26653 0.37391 0.94629 0.0
C1063 C 0.2676 0.36125 0.96514 0.0
C1064 C 0.25478 0.34638 0.96158 0.0
C1065 C 0.24102 0.34429 0.93885 0.0
C1066 C 0.24068 0.35732 0.92014 0.0
H1067 H 0.27641 0.38531 0.94929 0.0
O1068 O 0.24835 0.39764 0.05164 0.0
O1069 O 0.24163 0.38985 0.9658 0.0
O1070 O 0.26953 0.41902 0.97078 0.0
O1071 O 0.26972 0.40339 0.90426 0.0
C1072 C 0.22755 0.32982 0.93485 0.0
C1073 C 0.21399 0.32864 0.91278 0.0
H1074 H 0.18997 0.33096 0.87001 0.0
H1075 H 0.19143 0.3554 0.84158 0.0
H1076 H 0.27826 0.36295 0.98266 0.0
H1077 H 0.2556 0.33666 0.97674 0.0
H1078 H 0.22744 0.31955 0.94925 0.0
H1079 H 0.20366 0.31748 0.91058 0.0
Mn1080 Mn 0.16365 0.41084 0.48836 0.0
Mn1081 Mn 0.13858 0.38673 0.3928 0.0
C1082 C 0.14299 0.38734 0.51457 0.0
C1083 C 0.18561 0.41938 0.5433 0.0
C1084 C 0.13854 0.41522 0.43348 0.0
O1085 O 0.17573 0.41901 0.41559 0.0
O1086 O 0.15807 0.40176 0.35635 0.0
C1087 C 0.15542 0.37068 0.36152 0.0
N1088 N 0.14248 0.37016 0.38144 0.0
C1089 C 0.13001 0.34274 0.39373 0.0
C1090 C 0.14317 0.34297 0.37299 0.0
C1091 C 0.15593 0.357 0.35688 0.0
C1092 C 0.13015 0.35672 0.39712 0.0
H1093 H 0.1653 0.38145 0.34946 0.0
C1094 C 0.17125 0.41347 0.36683 0.0
O1095 O 0.17972 0.42809 0.53371 0.0
O1096 O 0.17932 0.4062 0.51824 0.0
N1097 N 0.11929 0.37151 0.4232 0.0
C1098 C 0.10769 0.37334 0.44396 0.0
C1099 C 0.09412 0.36041 0.46244 0.0
C1100 C 0.09261 0.34575 0.45925 0.0
C1101 C 0.10465 0.34414 0.43724 0.0
C1102 C 0.11781 0.35742 0.4188 0.0
H1103 H 0.10882 0.38458 0.44665 0.0
O1104 O 0.14945 0.39845 0.55023 0.0
O1105 O 0.14871 0.39043 0.46488 0.0
O1106 O 0.14961 0.41946 0.46787 0.0
O1107 O 0.13357 0.40326 0.403 0.0
C1108 C 0.10419 0.32992 0.43365 0.0
C1109 C 0.11688 0.32923 0.41202 0.0
H1110 H 0.14364 0.33246 0.36964 0.0
H1111 H 0.16615 0.35729 0.34111 0.0
H1112 H 0.08489 0.36174 0.4794 0.0
H1113 H 0.0822 0.33583 0.47415 0.0
H1114 H 0.09421 0.31948 0.44796 0.0
H1115 H 0.11646 0.31825 0.41004 0.0
Mn1116 Mn 0.59122 0.75395 0.47455 0.0
Mn1117 Mn 0.61718 0.7536 0.38656 0.0
C1118 C 0.61451 0.75745 0.50691 0.0
C1119 C 0.58149 0.76697 0.52543 0.0
C1120 C 0.58874 0.72465 0.42475 0.0
O1121 O 0.58394 0.75753 0.39946 0.0
O1122 O 0.60188 0.75677 0.34527 0.0
C1123 C 0.632 0.78622 0.35179 0.0
N1124 N 0.63309 0.77438 0.37451 0.0
C1125 C 0.66028 0.79064 0.38932 0.0
C1126 C 0.65946 0.80297 0.36578 0.0
C1127 C 0.64525 0.80075 0.34701 0.0
C1128 C 0.6467 0.77641 0.39286 0.0
H1129 H 0.6211 0.7846 0.33758 0.0
C1130 C 0.58998 0.75818 0.35201 0.0
O1131 O 0.57316 0.75233 0.51569 0.0
O1132 O 0.59499 0.77412 0.5027 0.0
N1133 N 0.63281 0.75088 0.42129 0.0
C1134 C 0.63158 0.73792 0.44429 0.0
C1135 C 0.64478 0.73822 0.46522 0.0
C1136 C 0.65908 0.75181 0.4622 0.0
C1137 C 0.66008 0.76497 0.43796 0.0
C1138 C 0.64658 0.76392 0.41711 0.0
H1139 H 0.62061 0.72748 0.44708 0.0
O1140 O 0.60279 0.75246 0.53993 0.0
O1141 O 0.61216 0.76001 0.4561 0.0
O1142 O 0.58331 0.73138 0.45431 0.0
O1143 O 0.60144 0.73181 0.39827 0.0
C1144 C 0.67392 0.77913 0.43425 0.0
C1145 C 0.67401 0.79197 0.41011 0.0
H1146 H 0.66964 0.81421 0.36222 0.0
H1147 H 0.64451 0.81023 0.32902 0.0
H1148 H 0.64391 0.72802 0.48394 0.0
H1149 H 0.66921 0.75203 0.47882 0.0
H1150 H 0.68452 0.78031 0.45036 0.0
H1151 H 0.68468 0.80283 0.40804 0.0
Mn1152 Mn 0.2453 0.83618 0.4724 0.0
Mn1153 Mn 0.24758 0.86265 0.38072 0.0
C1154 C 0.24257 0.85667 0.50156 0.0
C1155 C 0.23107 0.81356 0.523 0.0
C1156 C 0.27543 0.86152 0.4227 0.0
O1157 O 0.24202 0.8251 0.39768 0.0
O1158 O 0.24279 0.84344 0.34129 0.0
C1159 C 0.21493 0.84703 0.34611 0.0
N1160 N 0.2274 0.8595 0.36833 0.0
C1161 C 0.21302 0.8725 0.38208 0.0
C1162 C 0.20005 0.85983 0.35903 0.0
C1163 C 0.20102 0.84704 0.34102 0.0
C1164 C 0.2266 0.87186 0.38583 0.0
H1165 H 0.21559 0.83713 0.33256 0.0
C1166 C 0.24112 0.83009 0.34964 0.0
O1167 O 0.24575 0.81939 0.51543 0.0
O1168 O 0.22459 0.82032 0.49835 0.0
N1169 N 0.25195 0.88169 0.41426 0.0
C1170 C 0.26533 0.89272 0.43744 0.0
C1171 C 0.26622 0.9062 0.45829 0.0
C1172 C 0.25338 0.90821 0.45497 0.0
C1173 C 0.23978 0.89677 0.43045 0.0
C1174 C 0.23963 0.88366 0.40979 0.0
H1175 H 0.27522 0.89121 0.44028 0.0
O1176 O 0.24666 0.84957 0.53647 0.0
O1177 O 0.24037 0.85164 0.45093 0.0
O1178 O 0.26817 0.8502 0.45565 0.0
O1179 O 0.26888 0.86695 0.39206 0.0
C1180 C 0.22631 0.89774 0.42646 0.0
C1181 C 0.21293 0.8856 0.4024 0.0
H1182 H 0.18927 0.85976 0.35534 0.0
H1183 H 0.19103 0.83719 0.32345 0.0
H1184 H 0.27676 0.91498 0.47717 0.0
H1185 H 0.25406 0.91854 0.47166 0.0
H1186 H 0.22605 0.9077 0.44234 0.0
H1187 H 0.20258 0.8864 0.40019 0.0
Mn1188 Mn 0.07713 0.49818 0.34888 0.0
Mn1189 Mn 0.05305 0.47314 0.44455 0.0
C1190 C 0.05328 0.47801 0.3231 0.0
C1191 C 0.08597 0.52043 0.29551 0.0
C1192 C 0.08107 0.47257 0.40138 0.0
O1193 O 0.08578 0.50995 0.42193 0.0
O1194 O 0.06844 0.49241 0.48131 0.0
C1195 C 0.0376 0.49035 0.47876 0.0
N1196 N 0.03676 0.47736 0.45778 0.0
C1197 C 0.00932 0.46531 0.44723 0.0
C1198 C 0.00988 0.47852 0.46907 0.0
C1199 C 0.02408 0.49109 0.48484 0.0
C1200 C 0.02315 0.4652 0.44245 0.0
H1201 H 0.0485 0.50008 0.49056 0.0
C1202 C 0.08032 0.50547 0.47078 0.0
O1203 O 0.09439 0.51414 0.30328 0.0
O1204 O 0.07289 0.51432 0.32122 0.0
N1205 N 0.0375 0.45408 0.41374 0.0
C1206 C 0.03903 0.44248 0.39121 0.0
C1207 C 0.02591 0.42914 0.37237 0.0
C1208 C 0.01137 0.42785 0.377 0.0
C1209 C 0.01007 0.43989 0.40081 0.0
C1210 C 0.02353 0.45283 0.41946 0.0
H1211 H 0.05018 0.44344 0.38733 0.0
O1212 O 0.06427 0.48436 0.28695 0.0
O1213 O 0.05668 0.48353 0.37302 0.0
O1214 O 0.08534 0.48367 0.36718 0.0
O1215 O 0.06927 0.46778 0.43263 0.0
C1216 C 0.99599 0.43967 0.40589 0.0
C1217 C 0.99562 0.45238 0.42901 0.0
H1218 H 0.9995 0.47918 0.47349 0.0
H1219 H 0.02462 0.50136 0.50144 0.0
H1220 H 0.027 0.4199 0.35401 0.0
H1221 H 0.0013 0.41762 0.36183 0.0
H1222 H 0.98541 0.42986 0.39151 0.0
H1223 H 0.98475 0.45215 0.43205 0.0
Mn1224 Mn 0.50348 0.58005 0.3558 0.0
Mn1225 Mn 0.52962 0.58053 0.44511 0.0
C1226 C 0.52356 0.57692 0.32431 0.0
C1227 C 0.48089 0.5669 0.3041 0.0
C1228 C 0.52995 0.60939 0.40691 0.0
O1229 O 0.49234 0.57623 0.43035 0.0
O1230 O 0.51088 0.57699 0.48544 0.0
C1231 C 0.51202 0.54781 0.47869 0.0
N1232 N 0.52497 0.55981 0.45677 0.0
C1233 C 0.53633 0.54391 0.44279 0.0
C1234 C 0.52315 0.53141 0.46552 0.0
C1235 C 0.51094 0.53337 0.48347 0.0
C1236 C 0.53677 0.55803 0.43921 0.0
H1237 H 0.50256 0.54922 0.49229 0.0
C1238 C 0.49754 0.57546 0.47805 0.0
O1239 O 0.48705 0.58152 0.314 0.0
O1240 O 0.48731 0.55985 0.32699 0.0
N1241 N 0.54823 0.58361 0.41144 0.0
C1242 C 0.55997 0.5967 0.38921 0.0
C1243 C 0.57308 0.59668 0.36923 0.0
C1244 C 0.57401 0.58321 0.3724 0.0
C1245 C 0.56184 0.5699 0.39582 0.0
C1246 C 0.54915 0.57068 0.41575 0.0
H1247 H 0.55928 0.60705 0.38631 0.0
O1248 O 0.51683 0.58182 0.29099 0.0
O1249 O 0.51849 0.57419 0.3749 0.0
O1250 O 0.51793 0.60263 0.37665 0.0
O1251 O 0.53546 0.60228 0.43383 0.0
C1252 C 0.56172 0.55585 0.39956 0.0
C1253 C 0.54896 0.54285 0.42286 0.0
H1254 H 0.52225 0.52024 0.46909 0.0
H1255 H 0.50071 0.52376 0.50083 0.0
H1256 H 0.58241 0.60698 0.35109 0.0
H1257 H 0.58408 0.58319 0.35642 0.0
H1258 H 0.57133 0.55488 0.38416 0.0
H1259 H 0.54893 0.53207 0.425 0.0
Mn1260 Mn 0.42015 0.92184 0.35058 0.0
Mn1261 Mn 0.41857 0.94612 0.44387 0.0
C1262 C 0.42257 0.94501 0.32229 0.0
C1263 C 0.43394 0.91334 0.2976 0.0
C1264 C 0.39039 0.91722 0.40343 0.0
O1265 O 0.42401 0.91409 0.42446 0.0
O1266 O 0.42347 0.9316 0.48175 0.0
C1267 C 0.45146 0.96294 0.4754 0.0
N1268 N 0.43888 0.96305 0.45497 0.0
C1269 C 0.45326 0.99048 0.44223 0.0
C1270 C 0.46634 0.99067 0.46346 0.0
C1271 C 0.46544 0.97683 0.48004 0.0
C1272 C 0.43963 0.97629 0.43875 0.0
H1273 H 0.45084 0.95233 0.48791 0.0
C1274 C 0.42511 0.91993 0.4727 0.0
O1275 O 0.41934 0.90452 0.30696 0.0
O1276 O 0.44063 0.92665 0.32189 0.0
N1277 N 0.41408 0.96092 0.41223 0.0
C1278 C 0.40052 0.9587 0.39131 0.0
C1279 C 0.39951 0.9714 0.37251 0.0
C1280 C 0.41241 0.98623 0.37565 0.0
C1281 C 0.42619 0.98824 0.39792 0.0
C1282 C 0.42646 0.97518 0.4166 0.0
H1283 H 0.39057 0.94733 0.38878 0.0
O1284 O 0.41826 0.93379 0.28732 0.0
O1285 O 0.42523 0.94228 0.37246 0.0
O1286 O 0.39741 0.91303 0.36983 0.0
O1287 O 0.39717 0.92923 0.43378 0.0
C1288 C 0.43972 0.00267 0.40167 0.0
C1289 C 0.45325 0.00378 0.42363 0.0
H1290 H 0.47717 0.00135 0.46688 0.0
H1291 H 0.47551 0.97688 0.49622 0.0
H1292 H 0.38883 0.96975 0.35539 0.0
H1293 H 0.41163 0.99597 0.36055 0.0
H1294 H 0.43988 0.01296 0.38726 0.0
H1295 H 0.46363 0.01491 0.42572 0.0
H1296 H 0.24921 0.20837 0.17741 0.0
H1297 H 0.20854 0.2476 0.33172 0.0
H1298 H 0.23522 0.19778 0.34857 0.0
H1299 H 0.1989 0.23436 0.15959 0.0
H1300 H 0.22179 0.23276 0.33917 0.0
H1301 H 0.23418 0.22142 0.17003 0.0
C1302 C 0.24298 0.2088 0.21341 0.0
C1303 C 0.24343 0.20198 0.26368 0.0
C1304 C 0.21669 0.23306 0.29992 0.0
C1305 C 0.2265 0.21706 0.25568 0.0
C1306 C 0.20922 0.24156 0.29553 0.0
C1307 C 0.20261 0.24218 0.24495 0.0
C1308 C 0.21793 0.22547 0.25305 0.0
C1309 C 0.20376 0.2341 0.19941 0.0
C1310 C 0.23436 0.21616 0.20906 0.0
C1311 C 0.23509 0.20281 0.30899 0.0
N1312 N 0.21145 0.22622 0.20433 0.0
N1313 N 0.2271 0.21039 0.30413 0.0
H1314 H 0.79029 0.03922 0.17102 0.0
H1315 H 0.75051 0.95937 0.32651 0.0
H1316 H 0.80081 0.03579 0.34223 0.0
H1317 H 0.76406 0.96271 0.15484 0.0
H1318 H 0.76523 0.9875 0.33327 0.0
H1319 H 0.77686 0.01109 0.16405 0.0
C1320 C 0.78976 0.03254 0.20712 0.0
C1321 C 0.79669 0.03982 0.25727 0.0
C1322 C 0.765 0.98203 0.29425 0.0
C1323 C 0.78118 0.00777 0.24975 0.0
C1324 C 0.75657 0.96603 0.29026 0.0
C1325 C 0.75611 0.95873 0.24006 0.0
C1326 C 0.77267 0.99078 0.24734 0.0
C1327 C 0.76421 0.9679 0.1944 0.0
C1328 C 0.78218 0.01654 0.203 0.0
C1329 C 0.79571 0.03063 0.30272 0.0
N1330 N 0.77203 0.98348 0.19893 0.0
N1331 N 0.78793 0.01505 0.29809 0.0
H1332 H 0.96041 0.75142 0.17335 0.0
H1333 H 0.04009 0.79197 0.3296 0.0
H1334 H 0.96348 0.76483 0.34509 0.0
H1335 H 0.03671 0.8022 0.15798 0.0
H1336 H 0.01196 0.77846 0.33634 0.0
H1337 H 0.98852 0.76654 0.16669 0.0
C1338 C 0.96701 0.75754 0.20963 0.0
C1339 C 0.95963 0.75691 0.25984 0.0
C1340 C 0.01742 0.78374 0.29736 0.0
C1341 C 0.99168 0.77394 0.25266 0.0
C1342 C 0.03342 0.79137 0.29338 0.0
C1343 C 0.04071 0.79822 0.24317 0.0
C1344 C 0.00866 0.78261 0.25042 0.0
C1345 C 0.03154 0.79716 0.19755 0.0
C1346 C 0.983 0.7662 0.20569 0.0
C1347 C 0.96872 0.7651 0.30553 0.0
N1348 N 0.01595 0.78933 0.20205 0.0
N1349 N 0.9843 0.77315 0.30105 0.0
H1350 H 0.79127 0.75105 0.67374 0.0
H1351 H 0.75246 0.79194 0.82996 0.0
H1352 H 0.80207 0.76507 0.8448 0.0
H1353 H 0.76526 0.80144 0.65743 0.0
H1354 H 0.76711 0.77848 0.83652 0.0
H1355 H 0.77812 0.76601 0.66685 0.0
C1356 C 0.79086 0.75727 0.70982 0.0
C1357 C 0.79778 0.75686 0.75991 0.0
C1358 C 0.76674 0.78358 0.79736 0.0
C1359 C 0.78259 0.7737 0.75248 0.0
C1360 C 0.75834 0.79118 0.79347 0.0
C1361 C 0.75768 0.79782 0.74306 0.0
C1362 C 0.77418 0.78228 0.75017 0.0
C1363 C 0.76557 0.79656 0.69713 0.0
C1364 C 0.78344 0.76584 0.70575 0.0
C1365 C 0.79697 0.76517 0.80533 0.0
N1366 N 0.77336 0.78877 0.70158 0.0
N1367 N 0.78935 0.77312 0.80074 0.0
H1368 H 0.23626 0.03698 0.85051 0.0
H1369 H 0.1991 0.96348 0.65575 0.0
H1370 H 0.24973 0.03975 0.67895 0.0
H1371 H 0.20961 0.96062 0.82746 0.0
H1372 H 0.21293 0.99163 0.66344 0.0
H1373 H 0.2216 0.00885 0.84265 0.0
C1374 C 0.23604 0.03167 0.81113 0.0
C1375 C 0.24424 0.04067 0.76532 0.0
C1376 C 0.21214 0.98479 0.69935 0.0
C1377 C 0.22737 0.00867 0.75598 0.0
C1378 C 0.20421 0.96878 0.69513 0.0
C1379 C 0.20326 0.95975 0.74103 0.0
C1380 C 0.21881 0.99176 0.75017 0.0
C1381 C 0.21017 0.96718 0.791 0.0
C1382 C 0.22776 0.01567 0.80681 0.0
C1383 C 0.24364 0.03321 0.71534 0.0
N1384 N 0.21756 0.98277 0.79441 0.0
N1385 N 0.23524 0.01763 0.71182 0.0
H1386 H 0.03759 0.23509 0.65511 0.0
H1387 H 0.96314 0.19773 0.84538 0.0
H1388 H 0.03942 0.24825 0.82664 0.0
H1389 H 0.96103 0.20786 0.67264 0.0
H1390 H 0.99131 0.21163 0.83944 0.0
H1391 H 0.00943 0.22035 0.66106 0.0
C1392 C 0.03207 0.23478 0.69409 0.0
C1393 C 0.04082 0.24292 0.74044 0.0
C1394 C 0.98463 0.21075 0.80291 0.0
C1395 C 0.00877 0.22596 0.7476 0.0
C1396 C 0.9686 0.20278 0.80614 0.0
C1397 C 0.95977 0.20169 0.75944 0.0
C1398 C 0.99183 0.21734 0.75231 0.0
C1399 C 0.96743 0.20852 0.70969 0.0
C1400 C 0.01605 0.22646 0.69732 0.0
C1401 C 0.03309 0.24222 0.78985 0.0
N1402 N 0.98303 0.21596 0.70729 0.0
N1403 N 0.01749 0.23378 0.79229 0.0
H1404 H 0.86384 0.56873 0.5001 0.0
H1405 H 0.90097 0.53122 0.68948 0.0
H1406 H 0.87592 0.58239 0.67087 0.0
H1407 H 0.91285 0.54114 0.5164 0.0
H1408 H 0.8868 0.54524 0.68395 0.0
H1409 H 0.87697 0.55372 0.50599 0.0
C1410 C 0.86915 0.56847 0.5389 0.0
C1411 C 0.86885 0.57684 0.58504 0.0
C1412 C 0.89249 0.54428 0.64727 0.0
C1413 C 0.8836 0.55957 0.59216 0.0
C1414 C 0.90049 0.53624 0.65026 0.0
C1415 C 0.90811 0.53507 0.60334 0.0
C1416 C 0.89182 0.55084 0.59668 0.0
C1417 C 0.90721 0.54187 0.55362 0.0
C1418 C 0.87668 0.55999 0.5421 0.0
C1419 C 0.87599 0.57618 0.63424 0.0
N1420 N 0.89911 0.54937 0.55145 0.0
N1421 N 0.88299 0.56759 0.63667 0.0
H1422 H 0.41684 0.29441 0.6741 0.0
H1423 H 0.45596 0.37294 0.50952 0.0
H1424 H 0.42982 0.29631 0.50233 0.0
H1425 H 0.4672 0.37092 0.68102 0.0
H1426 H 0.44234 0.34474 0.50582 0.0
H1427 H 0.43138 0.32259 0.67752 0.0
C1428 C 0.42273 0.30076 0.63713 0.0
C1429 C 0.42219 0.29305 0.58789 0.0
C1430 C 0.44784 0.35052 0.54412 0.0
C1431 C 0.43852 0.32515 0.59134 0.0
C1432 C 0.45553 0.36656 0.54637 0.0
C1433 C 0.46275 0.37424 0.59561 0.0
C1434 C 0.44701 0.34214 0.59185 0.0
C1435 C 0.46189 0.36543 0.64213 0.0
C1436 C 0.43105 0.3168 0.63922 0.0
C1437 C 0.43006 0.30183 0.54121 0.0
N1438 N 0.45401 0.34982 0.63931 0.0
N1439 N 0.43778 0.31745 0.54388 0.0
H1440 H 0.70414 0.13574 0.49553 0.0
H1441 H 0.62938 0.0986 0.68516 0.0
H1442 H 0.70562 0.12396 0.66676 0.0
H1443 H 0.62753 0.08676 0.51209 0.0
H1444 H 0.65757 0.11309 0.67954 0.0
H1445 H 0.676 0.12284 0.50146 0.0
C1446 C 0.69856 0.13056 0.53446 0.0
C1447 C 0.7072 0.13086 0.58068 0.0
C1448 C 0.65094 0.10735 0.64286 0.0
C1449 C 0.67517 0.11635 0.58784 0.0
C1450 C 0.6349 0.09917 0.64591 0.0
C1451 C 0.62614 0.09143 0.59905 0.0
C1452 C 0.65821 0.1081 0.59227 0.0
C1453 C 0.63387 0.09247 0.54928 0.0
C1454 C 0.68254 0.12316 0.53768 0.0
C1455 C 0.69937 0.12388 0.63004 0.0
N1456 N 0.64948 0.10073 0.54707 0.0
N1457 N 0.68379 0.117 0.63247 0.0
H1458 H 0.45682 0.0853 0.01288 0.0
H1459 H 0.41748 0.12461 0.17607 0.0
H1460 H 0.46708 0.09752 0.18558 0.0
H1461 H 0.4311 0.13596 0.00491 0.0
H1462 H 0.43208 0.11104 0.18042 0.0
H1463 H 0.44372 0.10034 0.00876 0.0
C1464 C 0.45631 0.09115 0.04989 0.0
C1465 C 0.46307 0.09021 0.09963 0.0
C1466 C 0.4319 0.11657 0.14206 0.0
C1467 C 0.44791 0.10714 0.09535 0.0
C1468 C 0.42354 0.12424 0.13944 0.0
C1469 C 0.42312 0.13144 0.09008 0.0
C1470 C 0.43954 0.11576 0.09459 0.0
C1471 C 0.43122 0.13065 0.04388 0.0
C1472 C 0.44892 0.09976 0.04741 0.0
C1473 C 0.46212 0.09805 0.14633 0.0
N1474 N 0.43896 0.12279 0.04704 0.0
N1475 N 0.45451 0.10605 0.14325 0.0
H1476 H 0.86525 0.29582 0.99523 0.0
H1477 H 0.90188 0.36987 0.18752 0.0
H1478 H 0.8769 0.2937 0.16612 0.0
H1479 H 0.91419 0.37242 0.0147 0.0
H1480 H 0.88785 0.3417 0.18092 0.0
H1481 H 0.87843 0.32396 1.00219 0.0
C1482 C 0.87047 0.30127 0.03429 0.0
C1483 C 0.87003 0.29244 0.08015 0.0
C1484 C 0.89362 0.34847 0.14454 0.0
C1485 C 0.88485 0.32447 0.08847 0.0
C1486 C 0.90154 0.3645 0.14816 0.0
C1487 C 0.90923 0.37346 0.10161 0.0
C1488 C 0.89307 0.3414 0.0937 0.0
C1489 C 0.9085 0.36593 0.05166 0.0
C1490 C 0.87804 0.31728 0.03809 0.0
C1491 C 0.87707 0.30009 0.12969 0.0
N1492 N 0.90045 0.35032 0.04887 0.0
N1493 N 0.8841 0.31568 0.13271 0.0
H1494 H 0.62714 0.542 0.00767 0.0
H1495 H 0.70569 0.58289 0.17173 0.0
H1496 H 0.62933 0.53191 0.18041 0.0
H1497 H 0.70388 0.56939 1.00064 0.0
H1498 H 0.67753 0.56782 0.17566 0.0
H1499 H 0.65532 0.55575 0.00381 0.0
C1500 C 0.63356 0.54268 0.04474 0.0
C1501 C 0.62592 0.53578 0.09441 0.0
C1502 C 0.68334 0.56813 0.13741 0.0
C1503 C 0.65802 0.55167 0.09044 0.0
C1504 C 0.69936 0.57676 0.13503 0.0
C1505 C 0.7071 0.57733 0.08582 0.0
C1506 C 0.67501 0.56038 0.08985 0.0
C1507 C 0.69835 0.56915 0.0395 0.0
C1508 C 0.64959 0.55045 0.04241 0.0
C1509 C 0.63478 0.53697 0.1412 0.0
N1510 N 0.68274 0.56113 0.04244 0.0
N1511 N 0.65039 0.54493 0.13827 0.0
H1512 H 0.53231 0.90167 0.81861 0.0
H1513 H 0.56893 0.86323 0.00568 0.0
H1514 H 0.54288 0.91363 0.99136 0.0
H1515 H 0.58203 0.87493 0.83429 0.0
H1516 H 0.55447 0.87696 1.00092 0.0
H1517 H 0.54579 0.88699 0.82346 0.0
C1518 C 0.53737 0.90111 0.85762 0.0
C1519 C 0.53653 0.9089 0.90465 0.0
C1520 C 0.56049 0.87645 0.96442 0.0
C1521 C 0.55169 0.892 0.91054 0.0
C1522 C 0.56865 0.86857 0.96697 0.0
C1523 C 0.5767 0.86799 0.92032 0.0
C1524 C 0.56008 0.88344 0.91452 0.0
C1525 C 0.57606 0.8752 0.87128 0.0
C1526 C 0.5451 0.89281 0.86023 0.0
C1527 C 0.54336 0.90787 0.95408 0.0
N1528 N 0.56779 0.88253 0.86951 0.0
N1529 N 0.55056 0.89947 0.95588 0.0
H1530 H 0.08507 0.62767 0.99151 0.0
H1531 H 0.1228 0.70671 0.83097 0.0
H1532 H 0.09723 0.63032 0.81849 0.0
H1533 H 0.13443 0.70432 1.00167 0.0
H1534 H 0.1098 0.67857 0.82562 0.0
H1535 H 0.09964 0.65582 0.99652 0.0
C1536 C 0.09081 0.63419 0.95461 0.0
C1537 C 0.08998 0.62668 0.90451 0.0
C1538 C 0.11527 0.68425 0.86409 0.0
C1539 C 0.10638 0.65877 0.90983 0.0
C1540 C 0.12261 0.70026 0.86729 0.0
C1541 C 0.12971 0.70783 0.91683 0.0
C1542 C 0.11469 0.67576 0.91116 0.0
C1543 C 0.12917 0.69893 0.9626 0.0
C1544 C 0.09916 0.6502 0.9576 0.0
C1545 C 0.09767 0.63567 0.85798 0.0
N1546 N 0.12163 0.68333 0.95888 0.0
N1547 N 0.10541 0.65127 0.86157 0.0
H1548 H 0.29683 0.43193 0.01796 0.0
H1549 H 0.37114 0.4701 0.8263 0.0
H1550 H 0.29471 0.41987 0.84501 0.0
H1551 H 0.37321 0.4589 0.99781 0.0
H1552 H 0.34296 0.4565 0.83264 0.0
H1553 H 0.32497 0.44679 0.01136 0.0
C1554 C 0.30228 0.43252 0.97853 0.0
C1555 C 0.29345 0.42463 0.93198 0.0
C1556 C 0.34964 0.45709 0.86881 0.0
C1557 C 0.32549 0.44172 0.9241 0.0
C1558 C 0.36567 0.4649 0.86536 0.0
C1559 C 0.37449 0.46557 0.91157 0.0
C1560 C 0.34243 0.45028 0.91918 0.0
C1561 C 0.36682 0.45855 0.96111 0.0
C1562 C 0.3183 0.44091 0.97492 0.0
C1563 C 0.3011 0.4257 0.88197 0.0
N1564 N 0.35123 0.45128 0.96375 0.0
N1565 N 0.31669 0.43418 0.87921 0.0
H1566 H 0.0978 0.46875 0.3196 0.0
H1567 H 0.13503 0.43234 0.51435 0.0
H1568 H 0.08513 0.45866 0.49204 0.0
H1569 H 0.12458 0.41909 0.34251 0.0
H1570 H 0.12142 0.44686 0.50656 0.0
H1571 H 0.1124 0.45521 0.327 0.0
C1572 C 0.09817 0.46378 0.35905 0.0
C1573 C 0.09021 0.46477 0.40524 0.0
C1574 C 0.12217 0.44079 0.47063 0.0
C1575 C 0.10702 0.44956 0.41408 0.0
C1576 C 0.12998 0.43259 0.47492 0.0
C1577 C 0.13088 0.42448 0.42903 0.0
C1578 C 0.11555 0.44117 0.41978 0.0
C1579 C 0.12405 0.42511 0.37898 0.0
C1580 C 0.10643 0.45601 0.36312 0.0
C1581 C 0.09101 0.45805 0.45532 0.0
N1582 N 0.11676 0.43341 0.37554 0.0
N1583 N 0.09937 0.45083 0.45856 0.0
H1584 H 0.51866 0.62878 0.38614 0.0
H1585 H 0.59961 0.70529 0.39885 0.0
H1586 H 0.56 0.62881 0.43529 0.0
H1587 H 0.55792 0.70524 0.44266 0.0
H1588 H 0.5851 0.67721 0.39534 0.0
H1589 H 0.53277 0.65697 0.39076 0.0
C1590 C 0.53069 0.63469 0.39771 0.0
C1591 C 0.53816 0.6264 0.41019 0.0
C1592 C 0.57916 0.68338 0.40579 0.0
C1593 C 0.55433 0.65854 0.41466 0.0
C1594 C 0.58741 0.6994 0.40764 0.0
C1595 C 0.57999 0.70765 0.42148 0.0
C1596 C 0.56332 0.67553 0.41653 0.0
C1597 C 0.56412 0.69935 0.43228 0.0
C1598 C 0.53869 0.65074 0.40055 0.0
C1599 C 0.55375 0.63468 0.42528 0.0
N1600 N 0.55627 0.68373 0.42917 0.0
N1601 N 0.56135 0.65029 0.42656 0.0
H1602 H 0.3704 0.90049 0.32052 0.0
H1603 H 0.29506 0.86414 0.50603 0.0
H1604 H 0.37186 0.91311 0.49252 0.0
H1605 H 0.29427 0.87581 0.33418 0.0
H1606 H 0.32323 0.87717 0.50183 0.0
H1607 H 0.34221 0.88631 0.32495 0.0
C1608 C 0.36479 0.90015 0.35932 0.0
C1609 C 0.37345 0.908 0.40623 0.0
C1610 C 0.31684 0.87682 0.46512 0.0
C1611 C 0.34136 0.89171 0.41161 0.0
C1612 C 0.30081 0.86934 0.46735 0.0
C1613 C 0.29236 0.86895 0.42039 0.0
C1614 C 0.32441 0.88358 0.41522 0.0
C1615 C 0.30038 0.87595 0.3714 0.0
C1616 C 0.34875 0.89216 0.36167 0.0
C1617 C 0.3656 0.90729 0.45535 0.0
N1618 N 0.31597 0.88289 0.36993 0.0
N1619 N 0.34998 0.89919 0.45691 0.0
H1620 H 0.08513 0.25605 0.91539 0.0
H1621 H 0.14037 0.22772 0.04161 0.0
H1622 H 0.10795 0.2384 0.81246 0.0
H1623 H 0.12776 0.25788 0.12424 0.0
H1624 H 0.12367 0.22557 0.96332 0.0
H1625 H 0.09545 0.25036 0.99748 0.0
C1626 C 0.09218 0.25078 0.91003 0.0
C1627 C 0.09589 0.24795 0.85678 0.0
C1628 C 0.12438 0.23243 0.99907 0.0
C1629 C 0.10792 0.2415 0.95128 0.0
C1630 C 0.13379 0.23357 0.04391 0.0
C1631 C 0.13548 0.24305 0.08935 0.0
C1632 C 0.11647 0.24065 1.00027 0.0
C1633 C 0.12686 0.25051 0.08993 0.0
C1634 C 0.09809 0.24755 0.95706 0.0
C1635 C 0.10486 0.24084 0.85267 0.0
N1636 N 0.1178 0.24921 0.04604 0.0
N1637 N 0.11078 0.23806 0.89937 0.0
H1638 H 0.74181 0.86834 0.12524 0.0
H1639 H 0.75199 0.83076 0.90866 0.0
H1640 H 0.77209 0.91088 0.04146 0.0
H1641 H 0.75859 0.86981 0.81264 0.0
H1642 H 0.75763 0.84602 0.99311 0.0
H1643 H 0.74471 0.85422 0.04878 0.0
C1644 C 0.74942 0.87472 0.09129 0.0
C1645 C 0.75676 0.89079 0.08981 0.0
C1646 C 0.75785 0.85131 0.95372 0.0
C1647 C 0.76023 0.87467 1.00147 0.0
C1648 C 0.75482 0.84266 0.90541 0.0
C1649 C 0.75459 0.84898 0.85378 0.0
C1650 C 0.7603 0.86632 0.9507 0.0
C1651 C 0.75859 0.8645 0.85175 0.0
C1652 C 0.75118 0.86665 0.04761 0.0
C1653 C 0.76635 0.89848 0.04442 0.0
N1654 N 0.76103 0.87261 0.89978 0.0
N1655 N 0.76757 0.89033 1.00142 0.0
H1656 H 0.08855 0.86102 0.04154 0.0
H1657 H 0.17222 0.91514 0.91406 0.0
H1658 H 0.13128 0.87355 0.12435 0.0
H1659 H 0.13147 0.89313 0.81218 0.0
H1660 H 0.15631 0.90517 0.99654 0.0
H1661 H 0.10315 0.87762 0.96311 0.0
C1662 C 0.10098 0.86757 0.04386 0.0
C1663 C 0.10875 0.86587 0.08935 0.0
C1664 C 0.15078 0.90262 0.95628 0.0
C1665 C 0.12542 0.88474 1.0001 0.0
C1666 C 0.15987 0.90833 0.90902 0.0
C1667 C 0.1532 0.90474 0.85595 0.0
C1668 C 0.13483 0.89311 0.9509 0.0
C1669 C 0.13709 0.8961 0.85225 0.0
C1670 C 0.10928 0.87692 0.99893 0.0
C1671 C 0.12484 0.87446 0.08998 0.0
N1672 N 0.12844 0.89036 0.89916 0.0
N1673 N 0.13262 0.88344 0.04597 0.0
H1674 H 0.23857 0.10663 0.69573 0.0
H1675 H 0.25859 0.12625 0.3769 0.0
H1676 H 0.25894 0.08656 0.59213 0.0
H1677 H 0.2295 0.13927 0.46499 0.0
H1678 H 0.25651 0.10967 0.45414 0.0
H1679 H 0.23274 0.11675 0.61181 0.0
C1680 C 0.24153 0.10409 0.65542 0.0
C1681 C 0.24949 0.09596 0.65107 0.0
C1682 C 0.25034 0.11593 0.45649 0.0
C1683 C 0.24299 0.10755 0.55529 0.0
C1684 C 0.25151 0.12537 0.4122 0.0
C1685 C 0.24425 0.13416 0.41464 0.0
C1686 C 0.24214 0.1155 0.5044 0.0
C1687 C 0.23523 0.13261 0.46143 0.0
C1688 C 0.23825 0.10991 0.60757 0.0
C1689 C 0.25307 0.09302 0.59773 0.0
N1690 N 0.23466 0.12368 0.50502 0.0
N1691 N 0.24997 0.09895 0.55225 0.0
H1692 H 0.86162 0.08621 0.45179 0.0
H1693 H 0.89354 0.12923 0.69415 0.0
H1694 H 0.87089 0.12987 0.38508 0.0
H1695 H 0.91366 0.16853 0.58491 0.0
H1696 H 0.88251 0.11247 0.61312 0.0
H1697 H 0.87822 0.09964 0.53121 0.0
C1698 C 0.86735 0.09864 0.45343 0.0
C1699 C 0.86474 0.10693 0.41205 0.0
C1700 C 0.8897 0.12471 0.60663 0.0
C1701 C 0.88341 0.12236 0.50342 0.0
C1702 C 0.89599 0.1343 0.65308 0.0
C1703 C 0.90437 0.15033 0.64646 0.0
C1704 C 0.89188 0.13127 0.55332 0.0
C1705 C 0.90707 0.15626 0.59224 0.0
C1706 C 0.87665 0.1063 0.49925 0.0
C1707 C 0.87243 0.123 0.41626 0.0
N1708 N 0.90068 0.14678 0.5481 0.0
N1709 N 0.88133 0.13014 0.46118 0.0
H1710 H 0.86924 0.76201 0.69158 0.0
H1711 H 0.86879 0.74168 0.37323 0.0
H1712 H 0.82883 0.74196 0.5877 0.0
H1713 H 0.91095 0.77076 0.46117 0.0
H1714 H 0.85433 0.74393 0.45024 0.0
H1715 H 0.88522 0.7677 0.6078 0.0
C1716 C 0.86376 0.7591 0.65124 0.0
C1717 C 0.84766 0.75126 0.64676 0.0
C1718 C 0.86676 0.75006 0.4526 0.0
C1719 C 0.86577 0.75758 0.55115 0.0
C1720 C 0.87501 0.74879 0.40845 0.0
C1721 C 0.89106 0.756 0.41093 0.0
C1722 C 0.87456 0.75831 0.50039 0.0
C1723 C 0.89856 0.76506 0.4576 0.0
C1724 C 0.87286 0.76229 0.60346 0.0
C1725 C 0.84117 0.74774 0.59338 0.0
N1726 N 0.89023 0.76574 0.50106 0.0
N1727 N 0.8502 0.75075 0.54798 0.0
H1728 H 0.87388 0.74232 0.87273 0.0
H1729 H 0.89324 0.76189 0.19182 0.0
H1730 H 0.86041 0.77094 0.96164 0.0
H1731 H 0.91382 0.74217 0.08744 0.0
H1732 H 0.88304 0.76774 0.10816 0.0
H1733 H 0.89056 0.74451 0.94981 0.0
C1734 C 0.87468 0.74932 0.90818 0.0
C1735 C 0.86574 0.75642 0.91091 0.0
C1736 C 0.89002 0.76237 0.10369 0.0
C1737 C 0.8845 0.75864 1.00046 0.0
C1738 C 0.89587 0.75908 0.1514 0.0
C1739 C 0.90417 0.75129 0.14673 0.0
C1740 C 0.89249 0.75781 0.05125 0.0
C1741 C 0.90722 0.7479 0.09326 0.0
C1742 C 0.88418 0.75055 0.95237 0.0
C1743 C 0.86719 0.76534 0.95787 0.0
N1744 N 0.90126 0.75101 0.04792 0.0
N1745 N 0.87617 0.76597 1.00137 0.0
H1746 H 0.22872 0.08828 0.96359 0.0
H1747 H 0.25775 0.17168 0.09227 0.0
H1748 H 0.25888 0.13116 0.88151 0.0
H1749 H 0.23926 0.13083 0.19351 0.0
H1750 H 0.2519 0.15589 0.00953 0.0
H1751 H 0.22653 0.10272 0.04209 0.0
C1752 C 0.23455 0.10071 0.96144 0.0
C1753 C 0.24407 0.10857 0.91615 0.0
C1754 C 0.24895 0.15031 0.04971 0.0
C1755 C 0.24165 0.12506 0.00549 0.0
C1756 C 0.25228 0.15933 0.09712 0.0
C1757 C 0.24925 0.1526 0.15007 0.0
C1758 C 0.24261 0.13437 0.05484 0.0
C1759 C 0.24187 0.1365 0.15353 0.0
C1760 C 0.23339 0.10892 0.0064 0.0
C1761 C 0.2515 0.12466 0.91573 0.0
N1762 N 0.239 0.12791 0.10647 0.0
N1763 N 0.2502 0.13235 0.95979 0.0
H1764 H 0.8283 0.08428 0.08694 0.0
H1765 H 0.91185 0.13925 0.96003 0.0
H1766 H 0.8689 0.10691 0.18932 0.0
H1767 H 0.86904 0.12637 0.87706 0.0
H1768 H 0.89733 0.12264 0.0385 0.0
H1769 H 0.84424 0.09446 0.00462 0.0
C1770 C 0.84063 0.09126 0.09212 0.0
C1771 C 0.84725 0.09496 0.14527 0.0
C1772 C 0.89116 0.12328 1.00266 0.0
C1773 C 0.86564 0.10685 0.05054 0.0
C1774 C 0.89942 0.13264 0.95772 0.0
C1775 C 0.89161 0.13423 0.91212 0.0
C1776 C 0.87502 0.11532 1.00142 0.0
C1777 C 0.87552 0.12555 0.9115 0.0
C1778 C 0.84974 0.0971 0.04496 0.0
C1779 C 0.86333 0.10384 0.14917 0.0
N1780 N 0.86778 0.11655 0.95552 0.0
N1781 N 0.872 0.10969 0.10236 0.0
H1782 H 0.74284 0.91424 0.41187 0.0
H1783 H 0.77227 0.86001 0.53898 0.0
H1784 H 0.76135 0.89207 0.3098 0.0
H1785 H 0.74282 0.87328 0.62313 0.0
H1786 H 0.77412 0.87643 0.4602 0.0
H1787 H 0.74889 0.90436 0.49431 0.0
C1788 C 0.74836 0.90741 0.40678 0.0
C1789 C 0.75135 0.90376 0.35369 0.0
C1790 C 0.76749 0.87593 0.49637 0.0
C1791 C 0.7582 0.89222 0.44857 0.0
C1792 C 0.76652 0.86667 0.54148 0.0
C1793 C 0.7573 0.86523 0.58749 0.0
C1794 C 0.75933 0.88392 0.49783 0.0
C1795 C 0.74997 0.87398 0.58835 0.0
C1796 C 0.7518 0.90175 0.45401 0.0
C1797 C 0.75877 0.89509 0.3499 0.0
N1798 N 0.75108 0.88286 0.54415 0.0
N1799 N 0.76175 0.8894 0.39679 0.0
H1800 H 0.10756 0.86999 0.30999 0.0
H1801 H 0.12654 0.86924 0.62907 0.0
H1802 H 0.08639 0.82961 0.41394 0.0
H1803 H 0.14032 0.91153 0.54101 0.0
H1804 H 0.10986 0.85493 0.55175 0.0
H1805 H 0.1178 0.88595 0.39388 0.0
C1806 C 0.1048 0.86452 0.35036 0.0
C1807 C 0.09633 0.84843 0.35487 0.0
C1808 C 0.11631 0.86736 0.54943 0.0
C1809 C 0.10806 0.86651 0.45058 0.0
C1810 C 0.12582 0.87553 0.59376 0.0
C1811 C 0.13484 0.89157 0.59135 0.0
C1812 C 0.11607 0.87523 0.50151 0.0
C1813 C 0.13348 0.89915 0.54454 0.0
C1814 C 0.11069 0.87361 0.3982 0.0
C1815 C 0.09312 0.84194 0.40826 0.0
N1816 N 0.12449 0.8909 0.5009 0.0
N1817 N 0.09912 0.85096 0.45372 0.0
H1818 H 0.13183 0.25799 0.62872 0.0
H1819 H 0.13093 0.23788 0.31028 0.0
H1820 H 0.08943 0.22901 0.54187 0.0
H1821 H 0.17117 0.25608 0.41469 0.0
H1822 H 0.11496 0.23242 0.39405 0.0
H1823 H 0.14606 0.25551 0.55135 0.0
C1824 C 0.1255 0.25087 0.59367 0.0
C1825 C 0.10945 0.24373 0.59163 0.0
C1826 C 0.12727 0.23735 0.39848 0.0
C1827 C 0.12569 0.24115 0.50179 0.0
C1828 C 0.13636 0.24042 0.35072 0.0
C1829 C 0.15243 0.24769 0.35541 0.0
C1830 C 0.13435 0.24165 0.45095 0.0
C1831 C 0.15886 0.25075 0.40889 0.0
C1832 C 0.13363 0.24946 0.54933 0.0
C1833 C 0.10183 0.23465 0.54512 0.0
N1834 N 0.14986 0.24791 0.45427 0.0
N1835 N 0.11003 0.23384 0.50148 0.0
H1836 H 0.79338 0.59301 0.47604 0.0
H1837 H 0.77332 0.57223 0.15817 0.0
H1838 H 0.80566 0.56312 0.38968 0.0
H1839 H 0.75287 0.59232 0.26135 0.0
H1840 H 0.78355 0.56661 0.24224 0.0
H1841 H 0.77675 0.59085 0.39879 0.0
C1842 C 0.79234 0.58575 0.44114 0.0
C1843 C 0.80093 0.57827 0.43918 0.0
C1844 C 0.7766 0.57201 0.24636 0.0
C1845 C 0.78221 0.57606 0.34946 0.0
C1846 C 0.77072 0.57517 0.19841 0.0
C1847 C 0.76244 0.58299 0.20258 0.0
C1848 C 0.77419 0.57676 0.29854 0.0
C1849 C 0.75944 0.58655 0.25586 0.0
C1850 C 0.78286 0.58453 0.39686 0.0
C1851 C 0.79916 0.56902 0.39288 0.0
N1852 N 0.76545 0.58359 0.30143 0.0
N1853 N 0.79022 0.56839 0.34929 0.0
H1854 H 0.42894 0.20345 0.16122 0.0
H1855 H 0.4091 0.20244 0.48024 0.0
H1856 H 0.40967 0.16296 0.26459 0.0
H1857 H 0.43761 0.24477 0.39237 0.0
H1858 H 0.41154 0.18818 0.40289 0.0
H1859 H 0.43468 0.21932 0.24531 0.0
C1860 C 0.42622 0.19793 0.20151 0.0
C1861 C 0.41857 0.18183 0.20578 0.0
C1862 C 0.41751 0.2006 0.40064 0.0
C1863 C 0.42494 0.19982 0.30176 0.0
C1864 C 0.41613 0.20875 0.44498 0.0
C1865 C 0.42312 0.22478 0.44262 0.0
C1866 C 0.42563 0.20851 0.35277 0.0
C1867 C 0.43209 0.23239 0.39588 0.0
C1868 C 0.42944 0.20697 0.24947 0.0
C1869 C 0.41529 0.17529 0.2591 0.0
N1870 N 0.43286 0.22416 0.35224 0.0
N1871 N 0.41831 0.18426 0.30469 0.0
H1872 H 0.79942 0.22635 0.1531 0.0
H1873 H 0.79979 0.20424 0.46936 0.0
H1874 H 0.84007 0.24507 0.2556 0.0
H1875 H 0.75782 0.1936 0.38457 0.0
H1876 H 0.81449 0.22075 0.39218 0.0
H1877 H 0.78358 0.21576 0.23706 0.0
C1878 C 0.805 0.22849 0.19317 0.0
C1879 C 0.82111 0.23641 0.19709 0.0
C1880 C 0.80206 0.21502 0.39058 0.0
C1881 C 0.80314 0.22425 0.29295 0.0
C1882 C 0.79367 0.20561 0.43482 0.0
C1883 C 0.77757 0.19752 0.43334 0.0
C1884 C 0.79434 0.21614 0.34368 0.0
C1885 C 0.77023 0.1997 0.38744 0.0
C1886 C 0.79597 0.2224 0.24106 0.0
C1887 C 0.82771 0.2388 0.25022 0.0
N1888 N 0.77867 0.2086 0.34391 0.0
N1889 N 0.81874 0.23262 0.29569 0.0
H1890 H 0.92396 0.45972 0.7163 0.0
H1891 H 0.91417 0.41186 0.93251 0.0
H1892 H 0.89327 0.47138 0.80032 0.0
H1893 H 0.90682 0.44373 0.02905 0.0
H1894 H 0.90864 0.42159 0.84813 0.0
H1895 H 0.92135 0.44281 0.79281 0.0
C1896 C 0.91634 0.4584 0.75033 0.0
C1897 C 0.90877 0.46691 0.7518 0.0
C1898 C 0.90823 0.42651 0.88761 0.0
C1899 C 0.90563 0.44742 0.84019 0.0
C1900 C 0.91118 0.42081 0.9359 0.0
C1901 C 0.91117 0.42717 0.9877 0.0
C1902 C 0.90559 0.43895 0.89083 0.0
C1903 C 0.907 0.43856 0.98984 0.0
C1904 C 0.91475 0.44862 0.79404 0.0
C1905 C 0.89918 0.46489 0.79733 0.0
N1906 N 0.90462 0.4443 0.94187 0.0
N1907 N 0.89811 0.45557 0.8403 0.0
H1908 H 0.55988 0.46338 0.02819 0.0
H1909 H 0.52841 0.42079 0.785 0.0
H1910 H 0.57976 0.50294 0.92014 0.0
H1911 H 0.53761 0.46448 0.71887 0.0
H1912 H 0.5449 0.43415 0.86465 0.0
H1913 H 0.5491 0.44679 0.94668 0.0
C1914 C 0.56233 0.46854 0.98728 0.0
C1915 C 0.57056 0.48459 0.98113 0.0
C1916 C 0.54334 0.44083 0.83278 0.0
C1917 C 0.55836 0.46572 0.88743 0.0
C1918 C 0.5341 0.43322 0.78681 0.0
C1919 C 0.53149 0.44153 0.74554 0.0
C1920 C 0.55003 0.45687 0.83725 0.0
C1921 C 0.53915 0.45759 0.74997 0.0
C1922 C 0.55618 0.45905 0.94054 0.0
C1923 C 0.57327 0.49065 0.92709 0.0
N1924 N 0.54797 0.4647 0.79508 0.0
N1925 N 0.56702 0.48126 0.88267 0.0
H1926 H 0.53447 0.07446 0.71203 0.0
H1927 H 0.53443 0.0943 0.03058 0.0
H1928 H 0.57657 0.10378 0.79992 0.0
H1929 H 0.49439 0.07575 0.92501 0.0
H1930 H 0.55058 0.09978 0.94735 0.0
H1931 H 0.51993 0.07648 0.78931 0.0
C1932 C 0.54066 0.08155 0.74731 0.0
C1933 C 0.55673 0.08893 0.7496 0.0
C1934 C 0.53828 0.09476 0.94255 0.0
C1935 C 0.54014 0.09101 0.83934 0.0
C1936 C 0.52907 0.09169 0.99001 0.0
C1937 C 0.51301 0.08433 0.98488 0.0
C1938 C 0.53132 0.09038 0.88991 0.0
C1939 C 0.50669 0.08116 0.9312 0.0
C1940 C 0.53236 0.0827 0.79159 0.0
C1941 C 0.56418 0.09796 0.79643 0.0
N1942 N 0.51581 0.08402 0.88613 0.0
N1943 N 0.55581 0.09853 0.83997 0.0
H1944 H 0.53691 0.07235 0.21484 0.0
H1945 H 0.58618 0.08349 0.42783 0.0
H1946 H 0.52629 0.10402 0.29713 0.0
H1947 H 0.55467 0.09099 0.52608 0.0
H1948 H 0.57579 0.0884 0.34389 0.0
H1949 H 0.55398 0.07505 0.29098 0.0
C1950 C 0.53848 0.08018 0.2484 0.0
C1951 C 0.53024 0.08804 0.24947 0.0
C1952 C 0.57111 0.08898 0.38367 0.0
C1953 C 0.5499 0.09127 0.33737 0.0
C1954 C 0.57716 0.08636 0.4317 0.0
C1955 C 0.5711 0.0866 0.48391 0.0
C1956 C 0.55863 0.09154 0.38756 0.0
C1957 C 0.55962 0.09064 0.48657 0.0
C1958 C 0.54834 0.08182 0.29187 0.0
C1959 C 0.53258 0.09789 0.29443 0.0
N1960 N 0.55355 0.09272 0.43887 0.0
N1961 N 0.54198 0.09902 0.33718 0.0
H1962 H 0.89324 0.42017 0.30204 0.0
H1963 H 0.91905 0.50314 0.42867 0.0
H1964 H 0.92198 0.46327 0.21882 0.0
H1965 H 0.90342 0.46288 0.53151 0.0
H1966 H 0.91338 0.48717 0.3464 0.0
H1967 H 0.89061 0.43432 0.38059 0.0
C1968 C 0.89867 0.43257 0.29969 0.0
C1969 C 0.90791 0.44059 0.254 0.0
C1970 C 0.91099 0.48175 0.38685 0.0
C1971 C 0.90495 0.45675 0.34337 0.0
C1972 C 0.91419 0.49086 0.43396 0.0
C1973 C 0.91195 0.48438 0.48716 0.0
C1974 C 0.90557 0.46597 0.39255 0.0
C1975 C 0.90538 0.46836 0.49129 0.0
C1976 C 0.89726 0.44062 0.34467 0.0
C1977 C 0.91482 0.45664 0.25333 0.0
N1978 N 0.90264 0.4597 0.44451 0.0
N1979 N 0.91326 0.46417 0.29739 0.0
H1980 H 0.49464 0.41787 0.42092 0.0
H1981 H 0.57813 0.47289 0.29383 0.0
H1982 H 0.53529 0.44063 0.52302 0.0
H1983 H 0.5353 0.46011 0.21123 0.0
H1984 H 0.56364 0.45614 0.37202 0.0
H1985 H 0.51056 0.42793 0.33846 0.0
C1986 C 0.50698 0.42484 0.42601 0.0
C1987 C 0.51361 0.42863 0.47911 0.0
C1988 C 0.55746 0.45682 0.3363 0.0
C1989 C 0.53197 0.44037 0.38425 0.0
C1990 C 0.5657 0.46627 0.29152 0.0
C1991 C 0.55787 0.46794 0.24615 0.0
C1992 C 0.54132 0.44886 0.33512 0.0
C1993 C 0.54179 0.45923 0.24552 0.0
C1994 C 0.51606 0.43061 0.37878 0.0
C1995 C 0.5297 0.43749 0.48291 0.0
N1996 N 0.53407 0.45015 0.28939 0.0
N1997 N 0.53835 0.44328 0.43603 0.0
H1998 H 0.40962 0.24927 0.76469 0.0
H1999 H 0.43883 0.19501 0.89316 0.0
H2000 H 0.42831 0.22709 0.66355 0.0
H2001 H 0.40852 0.20752 0.97529 0.0
H2002 H 0.44103 0.21171 0.81488 0.0
H2003 H 0.4155 0.23936 0.84748 0.0
C2004 C 0.41516 0.24245 0.75988 0.0
C2005 C 0.41823 0.23879 0.70693 0.0
C2006 C 0.43413 0.21099 0.85052 0.0
C2007 C 0.42489 0.22722 0.8022 0.0
C2008 C 0.43296 0.20157 0.89537 0.0
C2009 C 0.4234 0.19983 0.94062 0.0
C2010 C 0.42584 0.21883 0.85149 0.0
C2011 C 0.41594 0.20845 0.9411 0.0
C2012 C 0.4185 0.23677 0.80731 0.0
C2013 C 0.42568 0.23013 0.70351 0.0
N2014 N 0.41725 0.21749 0.89715 0.0
N2015 N 0.42855 0.22442 0.75057 0.0
H2016 H 0.75265 0.16009 0.7565 0.0
H2017 H 0.80673 0.24364 0.88495 0.0
H2018 H 0.77468 0.2009 0.65484 0.0
H2019 H 0.79524 0.20091 0.96579 0.0
H2020 H 0.79013 0.22904 0.8066 0.0
H2021 H 0.763 0.17591 0.83894 0.0
C2022 C 0.75955 0.17244 0.75146 0.0
C2023 C 0.76302 0.17914 0.6984 0.0
C2024 C 0.79106 0.2229 0.84197 0.0
C2025 C 0.77504 0.19741 0.79343 0.0
C2026 C 0.80041 0.2312 0.88687 0.0
C2027 C 0.8024 0.22345 0.93182 0.0
C2028 C 0.78351 0.20677 0.84259 0.0
C2029 C 0.7941 0.20735 0.93189 0.0
C2030 C 0.76547 0.18147 0.79874 0.0
C2031 C 0.77179 0.19524 0.69485 0.0
N2032 N 0.7851 0.19957 0.88792 0.0
N2033 N 0.77769 0.20384 0.74178 0.0
H2034 H 0.75557 0.56239 0.89041 0.0
H2035 H 0.83906 0.59199 0.76134 0.0
H2036 H 0.79835 0.59346 0.97134 0.0
H2037 H 0.7981 0.57279 0.6604 0.0
H2038 H 0.82331 0.58641 0.84407 0.0
H2039 H 0.77012 0.5603 0.81212 0.0
C2040 C 0.76801 0.56846 0.89236 0.0
C2041 C 0.77579 0.57818 0.93729 0.0
C2042 C 0.81771 0.58326 0.80396 0.0
C2043 C 0.79241 0.57587 0.84813 0.0
C2044 C 0.8267 0.58642 0.75654 0.0
C2045 C 0.81992 0.5831 0.70361 0.0
C2046 C 0.80175 0.57676 0.7989 0.0
C2047 C 0.80381 0.57562 0.70032 0.0
C2048 C 0.77628 0.56735 0.84749 0.0
C2049 C 0.79189 0.58591 0.93742 0.0
N2050 N 0.79525 0.57289 0.74736 0.0
N2051 N 0.79965 0.58464 0.89347 0.0
H2052 H 0.44085 0.90385 0.47638 0.0
H2053 H 0.46088 0.92451 0.79417 0.0
H2054 H 0.41921 0.92242 0.58101 0.0
H2055 H 0.47389 0.89526 0.70718 0.0
H2056 H 0.44407 0.92205 0.71714 0.0
H2057 H 0.45154 0.89856 0.55993 0.0
C2058 C 0.43808 0.90651 0.51682 0.0
C2059 C 0.42933 0.91383 0.52158 0.0
C2060 C 0.45039 0.91594 0.71503 0.0
C2061 C 0.44161 0.90799 0.61693 0.0
C2062 C 0.45998 0.91734 0.75916 0.0
C2063 C 0.46881 0.91012 0.75699 0.0
C2064 C 0.44986 0.90754 0.66756 0.0
C2065 C 0.46721 0.90097 0.71055 0.0
C2066 C 0.44422 0.90354 0.56447 0.0
C2067 C 0.42613 0.91705 0.57511 0.0
N2068 N 0.45814 0.90015 0.66712 0.0
N2069 N 0.43241 0.9143 0.62037 0.0
H2070 H 0.07411 0.53571 0.78952 0.0
H2071 H 0.08426 0.49761 0.57442 0.0
H2072 H 0.1048 0.57806 0.70542 0.0
H2073 H 0.09146 0.53668 0.47719 0.0
H2074 H 0.0897 0.51295 0.65856 0.0
H2075 H 0.07683 0.52139 0.71334 0.0
C2076 C 0.08175 0.542 0.75554 0.0
C2077 C 0.08928 0.55809 0.75394 0.0
C2078 C 0.09009 0.51822 0.61897 0.0
C2079 C 0.09256 0.54173 0.66594 0.0
C2080 C 0.08718 0.50952 0.57083 0.0
C2081 C 0.08718 0.51583 0.51891 0.0
C2082 C 0.09266 0.53328 0.61548 0.0
C2083 C 0.09129 0.53138 0.51651 0.0
C2084 C 0.08341 0.53381 0.71203 0.0
C2085 C 0.09891 0.56565 0.7085 0.0
N2086 N 0.09362 0.53954 0.56434 0.0
N2087 N 0.10004 0.55739 0.6657 0.0
H2088 H 0.46628 0.54076 0.80184 0.0
H2089 H 0.46586 0.56167 0.4843 0.0
H2090 H 0.42432 0.52897 0.71474 0.0
H2091 H 0.50661 0.58016 0.58618 0.0
H2092 H 0.45009 0.55165 0.56853 0.0
H2093 H 0.48098 0.55733 0.72481 0.0
C2094 C 0.46016 0.5419 0.76682 0.0
C2095 C 0.44408 0.53344 0.76457 0.0
C2096 C 0.46249 0.55812 0.57236 0.0
C2097 C 0.46085 0.55212 0.67511 0.0
C2098 C 0.47149 0.56388 0.52431 0.0
C2099 C 0.4876 0.57156 0.52798 0.0
C2100 C 0.46968 0.56005 0.62423 0.0
C2101 C 0.49425 0.57408 0.58102 0.0
C2102 C 0.46855 0.55134 0.72266 0.0
C2103 C 0.43672 0.53535 0.71816 0.0
N2104 N 0.4853 0.5682 0.62673 0.0
N2105 N 0.44517 0.54427 0.67471 0.0
H2106 H 0.56182 0.80392 0.11334 0.0
H2107 H 0.59388 0.75237 0.24475 0.0
H2108 H 0.5936 0.79315 0.03277 0.0
H2109 H 0.57244 0.7723 0.34348 0.0
H2110 H 0.588 0.76203 0.16129 0.0
H2111 H 0.56005 0.78741 0.19161 0.0
C2112 C 0.56811 0.79778 0.11146 0.0
C2113 C 0.57795 0.79997 0.06667 0.0
C2114 C 0.58442 0.76418 0.20107 0.0
C2115 C 0.57603 0.7812 0.15587 0.0
C2116 C 0.58776 0.75864 0.24892 0.0
C2117 C 0.58389 0.76175 0.30147 0.0
C2118 C 0.5772 0.773 0.20535 0.0
C2119 C 0.57572 0.76972 0.3039 0.0
C2120 C 0.56718 0.78847 0.15631 0.0
C2121 C 0.58596 0.79187 0.0666 0.0
N2122 N 0.57283 0.77527 0.2565 0.0
N2123 N 0.58489 0.78294 0.1106 0.0
H2124 H 0.22606 0.7983 0.34478 0.0
H2125 H 0.20542 0.79908 0.02777 0.0
H2126 H 0.24664 0.83882 0.24141 0.0
H2127 H 0.19303 0.75685 0.11402 0.0
H2128 H 0.2223 0.8135 0.10453 0.0
H2129 H 0.21559 0.78244 0.26088 0.0
C2130 C 0.22864 0.80384 0.30453 0.0
C2131 C 0.23702 0.81994 0.30028 0.0
C2132 C 0.21612 0.80107 0.10652 0.0
C2133 C 0.225 0.80194 0.20449 0.0
C2134 C 0.20649 0.79284 0.06253 0.0
C2135 C 0.19779 0.77677 0.06462 0.0
C2136 C 0.21682 0.79322 0.15378 0.0
C2137 C 0.1996 0.76925 0.11073 0.0
C2138 C 0.22263 0.79479 0.25667 0.0
C2139 C 0.23999 0.82648 0.24697 0.0
N2140 N 0.2087 0.77755 0.15406 0.0
N2141 N 0.23385 0.81751 0.20149 0.0
H2142 H 0.20188 0.40643 0.04928 0.0
H2143 H 0.16358 0.41711 0.26256 0.0
H2144 H 0.24413 0.4378 0.13256 0.0
H2145 H 0.20245 0.42433 0.36109 0.0
H2146 H 0.17898 0.42223 0.1788 0.0
H2147 H 0.18745 0.40898 0.1255 0.0
C2148 C 0.20812 0.41416 0.0831 0.0
C2149 C 0.22422 0.42197 0.08442 0.0
C2150 C 0.1842 0.4227 0.2186 0.0
C2151 C 0.20773 0.42506 0.1724 0.0
C2152 C 0.17546 0.41996 0.26652 0.0
C2153 C 0.18169 0.42006 0.31872 0.0
C2154 C 0.19923 0.42523 0.22259 0.0
C2155 C 0.19721 0.42408 0.32155 0.0
C2156 C 0.19987 0.41573 0.12661 0.0
C2157 C 0.23171 0.43171 0.12969 0.0
N2158 N 0.20542 0.42627 0.27393 0.0
N2159 N 0.2234 0.43276 0.17247 0.0
H2160 H 0.22674 0.42943 0.86827 0.0
H2161 H 0.19475 0.44096 0.62649 0.0
H2162 H 0.24608 0.40967 0.75812 0.0
H2163 H 0.20321 0.40609 0.55924 0.0
H2164 H 0.21115 0.44368 0.70603 0.0
H2165 H 0.21546 0.43506 0.78776 0.0
C2166 C 0.22895 0.42665 0.82711 0.0
C2167 C 0.23722 0.41889 0.82011 0.0
C2168 C 0.20943 0.43544 0.67396 0.0
C2169 C 0.22443 0.42536 0.72757 0.0
C2170 C 0.20024 0.43404 0.62807 0.0
C2171 C 0.19749 0.42316 0.58642 0.0
C2172 C 0.21594 0.42591 0.67793 0.0
C2173 C 0.20488 0.41451 0.59059 0.0
C2174 C 0.22252 0.42989 0.78096 0.0
C2175 C 0.2396 0.41544 0.76577 0.0
N2176 N 0.21368 0.41603 0.63555 0.0
N2177 N 0.23308 0.41849 0.72195 0.0
H2178 H 0.5898 0.83749 0.74417 0.0
H2179 H 0.5621 0.75444 0.61449 0.0
H2180 H 0.57243 0.79665 0.84503 0.0
H2181 H 0.59144 0.79756 0.53238 0.0
H2182 H 0.55961 0.76862 0.69327 0.0
H2183 H 0.5839 0.82176 0.66119 0.0
C2184 C 0.58455 0.82515 0.74889 0.0
C2185 C 0.58186 0.81841 0.80178 0.0
C2186 C 0.56634 0.77492 0.6575 0.0
C2187 C 0.57518 0.80027 0.70628 0.0
C2188 C 0.56766 0.76685 0.61236 0.0
C2189 C 0.57706 0.77487 0.56701 0.0
C2190 C 0.57431 0.79107 0.65668 0.0
C2191 C 0.58416 0.79094 0.56664 0.0
C2192 C 0.5812 0.81617 0.70135 0.0
C2193 C 0.57477 0.80233 0.8051 0.0
N2194 N 0.58271 0.79849 0.61087 0.0
N2195 N 0.57188 0.79379 0.7579 0.0
H2196 H 0.20069 0.77362 0.84498 0.0
H2197 H 0.20019 0.79401 0.52716 0.0
H2198 H 0.16004 0.75417 0.74233 0.0
H2199 H 0.24223 0.80577 0.6137 0.0
H2200 H 0.18556 0.7775 0.60442 0.0
H2201 H 0.21652 0.78368 0.7608 0.0
C2202 C 0.19511 0.77121 0.80483 0.0
C2203 C 0.179 0.76327 0.80086 0.0
C2204 C 0.19799 0.78347 0.60638 0.0
C2205 C 0.19696 0.7748 0.70477 0.0
C2206 C 0.20634 0.79288 0.56209 0.0
C2207 C 0.22242 0.8013 0.56413 0.0
C2208 C 0.20574 0.78271 0.65384 0.0
C2209 C 0.22982 0.79941 0.61046 0.0
C2210 C 0.20414 0.77699 0.75682 0.0
C2211 C 0.17239 0.76049 0.74768 0.0
N2212 N 0.22141 0.79053 0.65404 0.0
N2213 N 0.18136 0.76639 0.70205 0.0
H2214 H 0.09511 0.5597 0.97244 0.0
H2215 H 0.07619 0.54122 0.29191 0.0
H2216 H 0.07756 0.58215 0.07777 0.0
H2217 H 0.10409 0.52685 0.20292 0.0
H2218 H 0.07867 0.55796 0.21462 0.0
H2219 H 0.1008 0.54928 0.05587 0.0
C2220 C 0.09278 0.56272 0.01301 0.0
C2221 C 0.08561 0.57159 0.01809 0.0
C2222 C 0.08449 0.55136 0.2121 0.0
C2223 C 0.0919 0.55963 0.11327 0.0
C2224 C 0.08308 0.54181 0.25638 0.0
C2225 C 0.0899 0.53262 0.25373 0.0
C2226 C 0.09248 0.55148 0.164 0.0
C2227 C 0.09869 0.53382 0.20664 0.0
C2228 C 0.09597 0.55672 0.06059 0.0
C2229 C 0.08281 0.57511 0.07172 0.0
N2230 N 0.0995 0.54286 0.16308 0.0
N2231 N 0.08577 0.56898 0.11693 0.0
H2232 H 0.41847 0.49604 0.08659 0.0
H2233 H 0.47391 0.57928 0.21487 0.0
H2234 H 0.4417 0.53675 0.98497 0.0
H2235 H 0.46043 0.53627 0.29726 0.0
H2236 H 0.45717 0.56498 0.13633 0.0
H2237 H 0.42848 0.51187 0.16925 0.0
C2238 C 0.42555 0.50838 0.08164 0.0
C2239 C 0.42948 0.51505 0.02862 0.0
C2240 C 0.45769 0.55873 0.17211 0.0
C2241 C 0.44114 0.53331 0.12374 0.0
C2242 C 0.46711 0.56686 0.2171 0.0
C2243 C 0.46859 0.55891 0.26247 0.0
C2244 C 0.44956 0.54258 0.17311 0.0
C2245 C 0.4597 0.54284 0.26297 0.0
C2246 C 0.43128 0.51741 0.12899 0.0
C2247 C 0.43846 0.53113 0.02501 0.0
N2248 N 0.45065 0.53523 0.21891 0.0
N2249 N 0.44421 0.53973 0.07202 0.0
H2250 H 0.46485 0.90256 0.97404 0.0
H2251 H 0.4218 0.89113 0.21652 0.0
H2252 H 0.50433 0.92374 0.08237 0.0
H2253 H 0.46488 0.92722 0.28115 0.0
H2254 H 0.43558 0.88835 0.13749 0.0
H2255 H 0.44814 0.89688 0.05513 0.0
C2256 C 0.46999 0.90565 0.01494 0.0
C2257 C 0.48603 0.91381 0.0212 0.0
C2258 C 0.44203 0.89687 0.16888 0.0
C2259 C 0.46701 0.90729 0.11445 0.0
C2260 C 0.43419 0.89831 0.2145 0.0
C2261 C 0.44219 0.90955 0.25521 0.0
C2262 C 0.458 0.90673 0.1642 0.0
C2263 C 0.45822 0.91852 0.2505 0.0
C2264 C 0.46042 0.90237 0.06144 0.0
C2265 C 0.49204 0.91764 0.07525 0.0
N2266 N 0.46555 0.91696 0.20577 0.0
N2267 N 0.48257 0.91455 0.11942 0.0
H2268 H 0.21444 0.3648 0.00369 0.0
H2269 H 0.21768 0.29229 0.09858 0.0
H2270 H 0.2573 0.37264 0.07312 0.0
H2271 H 0.18303 0.30118 0.16467 0.0
H2272 H 0.23194 0.3191 0.06413 0.0
H2273 H 0.20188 0.33828 0.03784 0.0
C2274 C 0.22121 0.36083 0.02567 0.0
C2275 C 0.23693 0.37068 0.0348 0.0
C2276 C 0.22125 0.31509 0.0865 0.0
C2277 C 0.22275 0.34056 0.07335 0.0
C2278 C 0.21316 0.29992 0.10585 0.0
C2279 C 0.19947 0.29483 0.13564 0.0
C2280 C 0.21514 0.32479 0.0951 0.0
C2281 C 0.19376 0.30489 0.143 0.0
C2282 C 0.21405 0.3458 0.04521 0.0
C2283 C 0.24518 0.3652 0.06469 0.0
N2284 N 0.20158 0.31938 0.12253 0.0
N2285 N 0.23801 0.35033 0.08241 0.0
H2286 H 0.70756 0.92371 0.09284 0.0
H2287 H 0.62565 0.88193 0.063 0.0
H2288 H 0.69755 0.87988 0.15972 0.0
H2289 H 0.63658 0.84906 0.99329 0.0
H2290 H 0.65225 0.89684 0.09861 0.0
H2291 H 0.681 0.91159 0.05643 0.0
C2292 C 0.69972 0.91159 0.09997 0.0
C2293 C 0.70441 0.9028 0.13064 0.0
C2294 C 0.64876 0.88643 0.07505 0.0
C2295 C 0.67469 0.88898 0.0881 0.0
C2296 C 0.6337 0.87796 0.05505 0.0
C2297 C 0.62924 0.86462 0.02386 0.0
C2298 C 0.65903 0.88104 0.06553 0.0
C2299 C 0.63982 0.85957 0.01587 0.0
C2300 C 0.68469 0.90475 0.07952 0.0
C2301 C 0.69412 0.88707 0.13757 0.0
N2302 N 0.65423 0.86773 0.03701 0.0
N2303 N 0.67974 0.8806 0.11607 0.0
H2304 H 0.11565 0.74273 0.06383 0.0
H2305 H 0.07487 0.78378 0.09614 0.0
H2306 H 0.14888 0.7865 0.99472 0.0
H2307 H 0.11905 0.81739 0.16125 0.0
H2308 H 0.08658 0.76897 0.05978 0.0
H2309 H 0.10109 0.75468 0.10042 0.0
C2310 C 0.11977 0.7548 0.05624 0.0
C2311 C 0.13312 0.76361 0.02495 0.0
C2312 C 0.09359 0.77953 0.0825 0.0
C2313 C 0.11709 0.77726 0.06764 0.0
C2314 C 0.08698 0.78794 0.10291 0.0
C2315 C 0.09599 0.80147 0.13304 0.0
C2316 C 0.10935 0.78515 0.09055 0.0
C2317 C 0.1117 0.80674 0.13952 0.0
C2318 C 0.1115 0.76154 0.07678 0.0
C2319 C 0.13837 0.77929 0.01739 0.0
N2320 N 0.11794 0.79862 0.11803 0.0
N2321 N 0.13039 0.78567 0.039 0.0
H2322 H 0.29264 0.21626 0.41201 0.0
H2323 H 0.36435 0.21335 0.51609 0.0
H2324 H 0.30253 0.18247 0.34406 0.0
H2325 H 0.37288 0.25619 0.44418 0.0
H2326 H 0.33818 0.20077 0.47812 0.0
H2327 H 0.31913 0.23046 0.44926 0.0
C2328 C 0.30043 0.21192 0.40486 0.0
C2329 C 0.29572 0.19851 0.37379 0.0
C2330 C 0.34579 0.21294 0.47108 0.0
C2331 C 0.32531 0.21409 0.41755 0.0
C2332 C 0.3606 0.22011 0.49279 0.0
C2333 C 0.37052 0.23584 0.48408 0.0
C2334 C 0.34085 0.22164 0.44124 0.0
C2335 C 0.36537 0.24408 0.45238 0.0
C2336 C 0.31542 0.21998 0.42582 0.0
C2337 C 0.30596 0.19302 0.36667 0.0
N2338 N 0.3507 0.23691 0.4326 0.0
N2339 N 0.32028 0.20078 0.38876 0.0
H2340 H 0.74259 0.11542 0.43553 0.0
H2341 H 0.81785 0.11877 0.338 0.0
H2342 H 0.7858 0.14874 0.50806 0.0
H2343 H 0.78295 0.07541 0.40467 0.0
H2344 H 0.80405 0.13109 0.37599 0.0
H2345 H 0.75503 0.10123 0.39964 0.0
C2346 C 0.75463 0.11965 0.44399 0.0
C2347 C 0.76317 0.13295 0.47584 0.0
C2348 C 0.7994 0.11887 0.38194 0.0
C2349 C 0.77737 0.11738 0.43366 0.0
C2350 C 0.80718 0.11185 0.36021 0.0
C2351 C 0.80127 0.09605 0.36738 0.0
C2352 C 0.78553 0.10997 0.41025 0.0
C2353 C 0.78764 0.08759 0.39768 0.0
C2354 C 0.76165 0.11159 0.42381 0.0
C2355 C 0.77881 0.1383 0.48472 0.0
N2356 N 0.78002 0.09463 0.41747 0.0
N2357 N 0.78547 0.13056 0.46333 0.0
H2358 H 0.92433 0.70715 0.40668 0.0
H2359 H 0.84929 0.63629 0.51168 0.0
H2360 H 0.88084 0.69776 0.33837 0.0
H2361 H 0.88286 0.62675 0.43927 0.0
H2362 H 0.86324 0.66236 0.47307 0.0
H2363 H 0.91176 0.68061 0.44363 0.0
C2364 C 0.91219 0.69946 0.39934 0.0
C2365 C 0.90361 0.70433 0.36835 0.0
C2366 C 0.86757 0.65456 0.46604 0.0
C2367 C 0.88929 0.67469 0.41179 0.0
C2368 C 0.85972 0.6398 0.48812 0.0
C2369 C 0.8652 0.62961 0.47945 0.0
C2370 C 0.88109 0.65919 0.43584 0.0
C2371 C 0.8785 0.63447 0.44743 0.0
C2372 C 0.9051 0.68443 0.42014 0.0
C2373 C 0.88786 0.6942 0.36097 0.0
N2374 N 0.88621 0.64909 0.42727 0.0
N2375 N 0.88114 0.67987 0.38295 0.0
H2376 H 0.81798 0.69821 0.83917 0.0
H2377 H 0.74269 0.62692 0.94075 0.0
H2378 H 0.78362 0.7072 0.9076 0.0
H2379 H 0.78605 0.63653 0.01106 0.0
H2380 H 0.75525 0.65348 0.90399 0.0
H2381 H 0.80409 0.67214 0.87775 0.0
C2382 C 0.8074 0.69458 0.86186 0.0
C2383 C 0.80167 0.70461 0.86939 0.0
C2384 C 0.76188 0.6497 0.92787 0.0
C2385 C 0.78585 0.67503 0.91297 0.0
C2386 C 0.7548 0.63467 0.94855 0.0
C2387 C 0.76334 0.62984 0.98005 0.0
C2388 C 0.77765 0.65951 0.93686 0.0
C2389 C 0.77905 0.64003 0.98805 0.0
C2390 C 0.79957 0.67982 0.88393 0.0
C2391 C 0.78817 0.69961 0.90032 0.0
N2392 N 0.78577 0.65438 0.96618 0.0
N2393 N 0.7805 0.68498 0.92046 0.0
H2394 H 0.36465 0.15212 0.01467 0.0
H2395 H 0.29366 0.0764 0.91272 0.0
H2396 H 0.3738 0.11794 0.94557 0.0
H2397 H 0.30267 0.11971 0.84383 0.0
H2398 H 0.32019 0.08921 0.9498 0.0
H2399 H 0.3385 0.13806 0.97672 0.0
C2400 C 0.36104 0.14154 0.99198 0.0
C2401 C 0.37113 0.13591 0.98408 0.0
C2402 C 0.31628 0.09578 0.92619 0.0
C2403 C 0.34148 0.1199 0.94124 0.0
C2404 C 0.30126 0.08855 0.90531 0.0
C2405 C 0.29629 0.09701 0.87406 0.0
C2406 C 0.32592 0.1116 0.91762 0.0
C2407 C 0.3063 0.11278 0.86661 0.0
C2408 C 0.34624 0.13362 0.97027 0.0
C2409 C 0.36616 0.12242 0.95315 0.0
N2410 N 0.32064 0.11963 0.88862 0.0
N2411 N 0.35149 0.11466 0.93337 0.0
H2412 H 0.88056 0.18148 0.82843 0.0
H2413 H 0.84995 0.2134 0.0068 0.0
H2414 H 0.9231 0.21566 0.90265 0.0
H2415 H 0.88376 0.25567 0.92985 0.0
H2416 H 0.86305 0.20046 0.96823 0.0
H2417 H 0.8679 0.19512 0.8647 0.0
C2418 C 0.88725 0.19198 0.85185 0.0
C2419 C 0.90291 0.1977 0.86181 0.0
C2420 C 0.86761 0.21258 0.96 0.0
C2421 C 0.88856 0.21316 0.90349 0.0
C2422 C 0.86024 0.21996 0.98213 0.0
C2423 C 0.86603 0.23563 0.97219 0.0
C2424 C 0.88088 0.22096 0.92792 0.0
C2425 C 0.87914 0.24359 0.93886 0.0
C2426 C 0.88003 0.19966 0.87266 0.0
C2427 C 0.91103 0.21109 0.89363 0.0
N2428 N 0.88634 0.23619 0.91833 0.0
N2429 N 0.90378 0.21856 0.91298 0.0
H2430 H 0.70759 0.78343 0.60111 0.0
H2431 H 0.63638 0.78721 0.49863 0.0
H2432 H 0.69891 0.8182 0.66746 0.0
H2433 H 0.62757 0.7442 0.56985 0.0
H2434 H 0.66238 0.79971 0.53799 0.0
H2435 H 0.68082 0.76931 0.56668 0.0
C2436 C 0.7 0.78799 0.60856 0.0
C2437 C 0.70515 0.80168 0.63832 0.0
C2438 C 0.65474 0.78753 0.54479 0.0
C2439 C 0.67522 0.78617 0.5976 0.0
C2440 C 0.64002 0.78041 0.52226 0.0
C2441 C 0.63009 0.76465 0.53017 0.0
C2442 C 0.65959 0.77876 0.57458 0.0
C2443 C 0.63509 0.75635 0.56226 0.0
C2444 C 0.68484 0.77997 0.58919 0.0
C2445 C 0.69515 0.80745 0.64584 0.0
N2446 N 0.6497 0.76347 0.58268 0.0
N2447 N 0.68066 0.79972 0.62517 0.0
H2448 H 0.21681 0.92443 0.59438 0.0
H2449 H 0.21319 0.84969 0.489 0.0
H2450 H 0.18285 0.88083 0.66246 0.0
H2451 H 0.25603 0.88319 0.56343 0.0
H2452 H 0.20092 0.86358 0.52676 0.0
H2453 H 0.23086 0.91199 0.5571 0.0
C2454 C 0.21241 0.9123 0.60157 0.0
C2455 C 0.19898 0.90365 0.63267 0.0
C2456 C 0.21303 0.86791 0.53436 0.0
C2457 C 0.21439 0.88948 0.58885 0.0
C2458 C 0.22002 0.86009 0.51278 0.0
C2459 C 0.23566 0.86557 0.52233 0.0
C2460 C 0.22181 0.88138 0.56496 0.0
C2461 C 0.24399 0.87883 0.55461 0.0
C2462 C 0.22038 0.90528 0.58058 0.0
C2463 C 0.1934 0.8879 0.63983 0.0
N2464 N 0.23699 0.8865 0.57431 0.0
N2465 N 0.20107 0.88126 0.61769 0.0
H2466 H 0.11569 0.37361 0.57184 0.0
H2467 H 0.12009 0.30201 0.668 0.0
H2468 H 0.1507 0.3654 0.50484 0.0
H2469 H 0.07701 0.2933 0.59776 0.0
H2470 H 0.13234 0.32837 0.63216 0.0
H2471 H 0.10171 0.34674 0.6056 0.0
C2472 C 0.12034 0.36611 0.56415 0.0
C2473 C 0.13406 0.37142 0.5344 0.0
C2474 C 0.12019 0.32069 0.62493 0.0
C2475 C 0.11871 0.34138 0.57422 0.0
C2476 C 0.11321 0.30575 0.64544 0.0
C2477 C 0.09751 0.29572 0.63667 0.0
C2478 C 0.11134 0.32564 0.59623 0.0
C2479 C 0.08912 0.30089 0.60598 0.0
C2480 C 0.1124 0.3509 0.58312 0.0
C2481 C 0.13993 0.36152 0.52651 0.0
N2482 N 0.09611 0.31568 0.58742 0.0
N2483 N 0.13228 0.34698 0.5467 0.0
H2484 H 0.0393 0.59044 0.76289 0.0
H2485 H 0.96683 0.51422 0.67267 0.0
H2486 H 0.03118 0.54736 0.83112 0.0
H2487 H 0.95895 0.54914 0.74278 0.0
H2488 H 0.99343 0.52831 0.70625 0.0
H2489 H 0.0123 0.57751 0.73047 0.0
C2490 C 0.0318 0.57831 0.77105 0.0
C2491 C 0.03716 0.56996 0.80086 0.0
C2492 C 0.98587 0.5329 0.71395 0.0
C2493 C 0.00699 0.55523 0.76258 0.0
C2494 C 0.9708 0.52495 0.69474 0.0
C2495 C 0.96093 0.53078 0.70411 0.0
C2496 C 0.99111 0.54685 0.74192 0.0
C2497 C 0.9664 0.54449 0.73412 0.0
C2498 C 0.01652 0.57102 0.75284 0.0
C2499 C 0.02727 0.55421 0.80939 0.0
N2500 N 0.98131 0.55228 0.75139 0.0
N2501 N 0.01265 0.5473 0.78998 0.0
H2502 H 0.41005 0.4513 0.76768 0.0
H2503 H 0.48493 0.45387 0.66939 0.0
H2504 H 0.45347 0.48491 0.83807 0.0
H2505 H 0.45002 0.41098 0.73913 0.0
H2506 H 0.47137 0.46655 0.70651 0.0
H2507 H 0.42239 0.43699 0.73209 0.0
C2508 C 0.42213 0.45557 0.77572 0.0
C2509 C 0.43074 0.46897 0.80699 0.0
C2510 C 0.46667 0.45435 0.71331 0.0
C2511 C 0.44482 0.45327 0.7651 0.0
C2512 C 0.47431 0.44713 0.69208 0.0
C2513 C 0.46832 0.43135 0.70038 0.0
C2514 C 0.45287 0.44567 0.74224 0.0
C2515 C 0.45477 0.42313 0.73127 0.0
C2516 C 0.42909 0.44745 0.7557 0.0
C2517 C 0.44642 0.47438 0.81527 0.0
N2518 N 0.44728 0.43036 0.75054 0.0
N2519 N 0.45302 0.46656 0.79405 0.0
H2520 H 0.51601 0.96795 0.83901 0.0
H2521 H 0.547 0.0315 0.66514 0.0
H2522 H 0.55034 0.96038 0.7616 0.0
H2523 H 0.58936 0.03999 0.74129 0.0
H2524 H 0.53439 0.00507 0.70028 0.0
H2525 H 0.52923 0.99434 0.80351 0.0
C2526 C 0.52645 0.97195 0.81496 0.0
C2527 C 0.53234 0.96221 0.80394 0.0
C2528 C 0.54646 0.01273 0.70897 0.0
C2529 C 0.54731 0.99213 0.76317 0.0
C2530 C 0.55366 0.02769 0.6888 0.0
C2531 C 0.56926 0.03771 0.69957 0.0
C2532 C 0.55496 0.00775 0.73995 0.0
C2533 C 0.57734 0.03244 0.73165 0.0
C2534 C 0.53388 0.9869 0.79459 0.0
C2535 C 0.54564 0.96772 0.77142 0.0
N2536 N 0.57012 0.01765 0.75032 0.0
N2537 N 0.55288 0.9825 0.75257 0.0
H2538 H 0.4478 0.03947 0.24152 0.0
H2539 H 0.40779 0.95732 0.26425 0.0
H2540 H 0.48192 0.03023 0.1725 0.0
H2541 H 0.45184 0.968 0.33098 0.0
H2542 H 0.41935 0.98412 0.23068 0.0
H2543 H 0.43325 0.01254 0.27435 0.0
C2544 C 0.45213 0.03173 0.23319 0.0
C2545 C 0.46574 0.03676 0.20303 0.0
C2546 C 0.42636 0.98052 0.25306 0.0
C2547 C 0.44971 0.00661 0.24145 0.0
C2548 C 0.41984 0.96535 0.27187 0.0
C2549 C 0.42885 0.96077 0.30171 0.0
C2550 C 0.44204 0.99077 0.26241 0.0
C2551 C 0.44449 0.97132 0.30939 0.0
C2552 C 0.44386 0.01648 0.25157 0.0
C2553 C 0.47123 0.02656 0.19441 0.0
N2554 N 0.45064 0.98584 0.28947 0.0
N2555 N 0.46325 0.01197 0.21396 0.0
H2556 H 0.03168 0.48602 0.3378 0.0
H2557 H 0.9668 0.45349 0.1695 0.0
H2558 H 0.0389 0.45118 0.26302 0.0
H2559 H 0.95985 0.41142 0.24346 0.0
H2560 H 0.99331 0.46674 0.20394 0.0
H2561 H 0.00516 0.47263 0.30349 0.0
C2562 C 0.02758 0.47545 0.31454 0.0
C2563 C 0.03725 0.46945 0.30402 0.0
C2564 C 0.98597 0.4546 0.21243 0.0
C2565 C 0.00719 0.45427 0.26453 0.0
C2566 C 0.97096 0.44705 0.19261 0.0
C2567 C 0.96136 0.43133 0.20285 0.0
C2568 C 0.99142 0.44636 0.24247 0.0
C2569 C 0.96707 0.42352 0.23421 0.0
C2570 C 0.01256 0.46792 0.29479 0.0
C2571 C 0.03161 0.45597 0.27249 0.0
N2572 N 0.98191 0.43109 0.25241 0.0
N2573 N 0.01677 0.44863 0.25435 0.0
H2574 H 0.59079 0.55001 0.23559 0.0
H2575 H 0.55003 0.59105 0.26253 0.0
H2576 H 0.54696 0.51604 0.16912 0.0
H2577 H 0.51657 0.54738 0.33169 0.0
H2578 H 0.56445 0.57894 0.22614 0.0
H2579 H 0.57884 0.56486 0.2691 0.0
C2580 C 0.57871 0.54578 0.22792 0.0
C2581 C 0.56988 0.53214 0.19823 0.0
C2582 C 0.55399 0.57213 0.24961 0.0
C2583 C 0.55623 0.54852 0.23749 0.0
C2584 C 0.54579 0.57896 0.27002 0.0
C2585 C 0.53246 0.57024 0.30149 0.0
C2586 C 0.54836 0.55641 0.25908 0.0
C2587 C 0.52708 0.55453 0.30893 0.0
C2588 C 0.57196 0.55422 0.2467 0.0
C2589 C 0.55418 0.52678 0.19055 0.0
N2590 N 0.53501 0.54806 0.28756 0.0
N2591 N 0.54779 0.53493 0.21051 0.0
loop_
_geom_bond_atom_site_label_1
_geom_bond_atom_site_label_2
_geom_bond_distance
_geom_bond_site_symmetry_2
_ccdc_geom_bond_type
Mn0 O5 2.095 . S
Mn0 O15 2.162 . S
Mn0 O16 2.297 . S
Mn0 O24 2.385 . S
Mn0 O25 2.209 . S
Mn0 O26 2.094 . S
Mn1 O6 2.121 . S
Mn1 N8 2.257 . S
Mn1 N17 2.282 . S
Mn1 O25 2.215 . S
Mn1 O27 2.117 . S
C2 O24 1.234 . S
C2 O25 1.283 . S
C3 O15 1.281 . S
C3 O16 1.236 . S
C4 O26 1.240 . S
C4 O27 1.264 . S
O5 Mn0 2.095 . S
O5 C14 1.250 . S
O6 Mn1 2.121 . S
O6 C14 1.258 . S
C7 N8 1.326 . S
C7 C11 1.460 . S
C7 H13 0.929 . S
N8 Mn1 2.257 . S
N8 C7 1.326 . S
N8 C12 1.362 . S
C9 C10 1.258 . S
C9 C12 1.431 . S
C9 C29 1.449 . S
C10 C9 1.258 . S
C10 C11 1.477 . S
C10 H30 0.931 . S
C11 C7 1.460 . S
C11 C10 1.477 . S
C11 H31 0.930 . S
C12 N8 1.362 . S
C12 C9 1.431 . S
C12 C22 1.476 . S
H13 C7 0.929 . S
C14 O5 1.250 . S
C14 O6 1.258 . S
O15 Mn0 2.162 . S
O15 C3 1.281 . S
O16 Mn0 2.297 . S
O16 C3 1.236 . S
N17 Mn1 2.282 . S
N17 C18 1.328 . S
N17 C22 1.318 . S
C18 N17 1.328 . S
C18 C19 1.457 . S
C18 H23 0.929 . S
C19 C18 1.457 . S
C19 C20 1.291 . S
C19 H32 0.931 . S
C20 C19 1.291 . S
C20 C21 1.373 . S
C20 H33 0.929 . S
C21 C20 1.373 . S
C21 C22 1.396 . S
C21 C28 1.403 . S
C22 C12 1.476 . S
C22 N17 1.318 . S
C22 C21 1.396 . S
H23 C18 0.929 . S
O24 Mn0 2.385 . S
O24 C2 1.234 . S
O25 Mn0 2.209 . S
O25 Mn1 2.215 . S
O25 C2 1.283 . S
O26 Mn0 2.094 . S
O26 C4 1.240 . S
O27 Mn1 2.117 . S
O27 C4 1.264 . S
C28 C21 1.403 . S
C28 C29 1.399 . S
C28 H34 0.929 . S
C29 C9 1.449 . S
C29 C28 1.399 . S
C29 H35 0.930 . S
H30 C10 0.931 . S
H31 C11 0.930 . S
H32 C19 0.931 . S
H33 C20 0.929 . S
H34 C28 0.929 . S
H35 C29 0.930 . S
Mn36 O41 2.095 . S
Mn36 O51 2.162 . S
Mn36 O52 2.297 . S
Mn36 O60 2.385 . S
Mn36 O61 2.209 . S
Mn36 O62 2.094 . S
Mn37 O42 2.121 . S
Mn37 N44 2.257 . S
Mn37 N53 2.282 . S
Mn37 O61 2.215 . S
Mn37 O63 2.117 . S
C38 O60 1.234 . S
C38 O61 1.283 . S
C39 O51 1.281 . S
C39 O52 1.236 . S
C40 O62 1.240 . S
C40 O63 1.264 . S
O41 Mn36 2.095 . S
O41 C50 1.250 . S
O42 Mn37 2.121 . S
O42 C50 1.258 . S
C43 N44 1.326 . S
C43 C47 1.460 . S
C43 H49 0.929 . S
N44 Mn37 2.257 . S
N44 C43 1.326 . S
N44 C48 1.362 . S
C45 C46 1.258 . S
C45 C48 1.431 . S
C45 C65 1.449 . S
C46 C45 1.258 . S
C46 C47 1.477 . S
C46 H66 0.931 . S
C47 C43 1.460 . S
C47 C46 1.477 . S
C47 H67 0.930 . S
C48 N44 1.362 . S
C48 C45 1.431 . S
C48 C58 1.476 . S
H49 C43 0.929 . S
C50 O41 1.250 . S
C50 O42 1.258 . S
O51 Mn36 2.162 . S
O51 C39 1.281 . S
O52 Mn36 2.297 . S
O52 C39 1.236 . S
N53 Mn37 2.282 . S
N53 C54 1.328 . S
N53 C58 1.318 . S
C54 N53 1.328 . S
C54 C55 1.457 . S
C54 H59 0.929 . S
C55 C54 1.457 . S
C55 C56 1.291 . S
C55 H68 0.931 . S
C56 C55 1.291 . S
C56 C57 1.373 . S
C56 H69 0.929 . S
C57 C56 1.373 . S
C57 C58 1.396 . S
C57 C64 1.403 . S
C58 C48 1.476 . S
C58 N53 1.318 . S
C58 C57 1.396 . S
H59 C54 0.929 . S
O60 Mn36 2.385 . S
O60 C38 1.234 . S
O61 Mn36 2.209 . S
O61 Mn37 2.215 . S
O61 C38 1.283 . S
O62 Mn36 2.094 . S
O62 C40 1.240 . S
O63 Mn37 2.117 . S
O63 C40 1.264 . S
C64 C57 1.403 . S
C64 C65 1.399 . S
C64 H70 0.929 . S
C65 C45 1.449 . S
C65 C64 1.399 . S
C65 H71 0.930 . S
H66 C46 0.931 . S
H67 C47 0.930 . S
H68 C55 0.931 . S
H69 C56 0.929 . S
H70 C64 0.929 . S
H71 C65 0.930 . S
Mn72 O77 2.095 . S
Mn72 O87 2.162 . S
Mn72 O88 2.297 . S
Mn72 O96 2.385 . S
Mn72 O97 2.209 . S
Mn72 O98 2.094 . S
Mn73 O78 2.121 . S
Mn73 N80 2.257 . S
Mn73 N89 2.282 . S
Mn73 O97 2.215 . S
Mn73 O99 2.117 . S
C74 O96 1.234 . S
C74 O97 1.283 . S
C75 O87 1.281 . S
C75 O88 1.236 . S
C76 O98 1.240 . S
C76 O99 1.264 . S
O77 Mn72 2.095 . S
O77 C86 1.250 . S
O78 Mn73 2.121 . S
O78 C86 1.258 . S
C79 N80 1.326 . S
C79 C83 1.460 . S
C79 H85 0.929 . S
N80 Mn73 2.257 . S
N80 C79 1.326 . S
N80 C84 1.362 . S
C81 C82 1.258 . S
C81 C84 1.431 . S
C81 C101 1.449 . S
C82 C81 1.258 . S
C82 C83 1.477 . S
C82 H102 0.931 . S
C83 C79 1.460 . S
C83 C82 1.477 . S
C83 H103 0.930 . S
C84 N80 1.362 . S
C84 C81 1.431 . S
C84 C94 1.476 . S
H85 C79 0.929 . S
C86 O77 1.250 . S
C86 O78 1.258 . S
O87 Mn72 2.162 . S
O87 C75 1.281 . S
O88 Mn72 2.297 . S
O88 C75 1.236 . S
N89 Mn73 2.282 . S
N89 C90 1.328 . S
N89 C94 1.318 . S
C90 N89 1.328 . S
C90 C91 1.457 . S
C90 H95 0.929 . S
C91 C90 1.457 . S
C91 C92 1.291 . S
C91 H104 0.931 . S
C92 C91 1.291 . S
C92 C93 1.373 . S
C92 H105 0.929 . S
C93 C92 1.373 . S
C93 C94 1.396 . S
C93 C100 1.403 . S
C94 C84 1.476 . S
C94 N89 1.318 . S
C94 C93 1.396 . S
H95 C90 0.929 . S
O96 Mn72 2.385 . S
O96 C74 1.234 . S
O97 Mn72 2.209 . S
O97 Mn73 2.215 . S
O97 C74 1.283 . S
O98 Mn72 2.094 . S
O98 C76 1.240 . S
O99 Mn73 2.117 . S
O99 C76 1.264 . S
C100 C93 1.403 . S
C100 C101 1.399 . S
C100 H106 0.929 . S
C101 C81 1.449 . S
C101 C100 1.399 . S
C101 H107 0.930 . S
H102 C82 0.931 . S
H103 C83 0.930 . S
H104 C91 0.931 . S
H105 C92 0.929 . S
H106 C100 0.929 . S
H107 C101 0.930 . S
Mn108 O113 2.095 . S
Mn108 O123 2.162 . S
Mn108 O124 2.297 . S
Mn108 O132 2.385 . S
Mn108 O133 2.209 . S
Mn108 O134 2.094 . S
Mn109 O114 2.121 . S
Mn109 N116 2.257 . S
Mn109 N125 2.282 . S
Mn109 O133 2.215 . S
Mn109 O135 2.117 . S
C110 O132 1.234 . S
C110 O133 1.283 . S
C111 O123 1.281 . S
C111 O124 1.236 . S
C112 O134 1.240 . S
C112 O135 1.264 . S
O113 Mn108 2.095 . S
O113 C122 1.250 . S
O114 Mn109 2.121 . S
O114 C122 1.258 . S
C115 N116 1.326 . S
C115 C119 1.460 . S
C115 H121 0.929 . S
N116 Mn109 2.257 . S
N116 C115 1.326 . S
N116 C120 1.362 . S
C117 C118 1.258 . S
C117 C120 1.431 . S
C117 C137 1.449 . S
C118 C117 1.258 . S
C118 C119 1.477 . S
C118 H138 0.931 . S
C119 C115 1.460 . S
C119 C118 1.477 . S
C119 H139 0.930 . S
C120 N116 1.362 . S
C120 C117 1.431 . S
C120 C130 1.476 . S
H121 C115 0.929 . S
C122 O113 1.250 . S
C122 O114 1.258 . S
O123 Mn108 2.162 . S
O123 C111 1.281 . S
O124 Mn108 2.297 . S
O124 C111 1.236 . S
N125 Mn109 2.282 . S
N125 C126 1.328 . S
N125 C130 1.318 . S
C126 N125 1.328 . S
C126 C127 1.457 . S
C126 H131 0.929 . S
C127 C126 1.457 . S
C127 C128 1.291 . S
C127 H140 0.931 . S
C128 C127 1.291 . S
C128 C129 1.373 . S
C128 H141 0.929 . S
C129 C128 1.373 . S
C129 C130 1.396 . S
C129 C136 1.403 . S
C130 C120 1.476 . S
C130 N125 1.318 . S
C130 C129 1.396 . S
H131 C126 0.929 . S
O132 Mn108 2.385 . S
O132 C110 1.234 . S
O133 Mn108 2.209 . S
O133 Mn109 2.215 . S
O133 C110 1.283 . S
O134 Mn108 2.094 . S
O134 C112 1.240 . S
O135 Mn109 2.117 . S
O135 C112 1.264 . S
C136 C129 1.403 . S
C136 C137 1.399 . S
C136 H142 0.929 . S
C137 C117 1.449 . S
C137 C136 1.399 . S
C137 H143 0.930 . S
H138 C118 0.931 . S
H139 C119 0.930 . S
H140 C127 0.931 . S
H141 C128 0.929 . S
H142 C136 0.929 . S
H143 C137 0.930 . S
Mn144 O149 2.095 . S
Mn144 O159 2.162 . S
Mn144 O160 2.297 . S
Mn144 O168 2.385 . S
Mn144 O169 2.209 . S
Mn144 O170 2.094 . S
Mn145 O150 2.121 . S
Mn145 N152 2.257 . S
Mn145 N161 2.282 . S
Mn145 O169 2.215 . S
Mn145 O171 2.117 . S
C146 O168 1.234 . S
C146 O169 1.283 . S
C147 O159 1.281 . S
C147 O160 1.236 . S
C148 O170 1.240 . S
C148 O171 1.264 . S
O149 Mn144 2.095 . S
O149 C158 1.250 . S
O150 Mn145 2.121 . S
O150 C158 1.258 . S
C151 N152 1.326 . S
C151 C155 1.460 . S
C151 H157 0.929 . S
N152 Mn145 2.257 . S
N152 C151 1.326 . S
N152 C156 1.362 . S
C153 C154 1.258 . S
C153 C156 1.431 . S
C153 C173 1.449 . S
C154 C153 1.258 . S
C154 C155 1.477 . S
C154 H174 0.931 . S
C155 C151 1.460 . S
C155 C154 1.477 . S
C155 H175 0.930 . S
C156 N152 1.362 . S
C156 C153 1.431 . S
C156 C166 1.476 . S
H157 C151 0.929 . S
C158 O149 1.250 . S
C158 O150 1.258 . S
O159 Mn144 2.162 . S
O159 C147 1.281 . S
O160 Mn144 2.297 . S
O160 C147 1.236 . S
N161 Mn145 2.282 . S
N161 C162 1.328 . S
N161 C166 1.318 . S
C162 N161 1.328 . S
C162 C163 1.457 . S
C162 H167 0.929 . S
C163 C162 1.457 . S
C163 C164 1.291 . S
C163 H176 0.931 . S
C164 C163 1.291 . S
C164 C165 1.373 . S
C164 H177 0.929 . S
C165 C164 1.373 . S
C165 C166 1.396 . S
C165 C172 1.403 . S
C166 C156 1.476 . S
C166 N161 1.318 . S
C166 C165 1.396 . S
H167 C162 0.929 . S
O168 Mn144 2.385 . S
O168 C146 1.234 . S
O169 Mn144 2.209 . S
O169 Mn145 2.215 . S
O169 C146 1.283 . S
O170 Mn144 2.094 . S
O170 C148 1.240 . S
O171 Mn145 2.117 . S
O171 C148 1.264 . S
C172 C165 1.403 . S
C172 C173 1.399 . S
C172 H178 0.929 . S
C173 C153 1.449 . S
C173 C172 1.399 . S
C173 H179 0.930 . S
H174 C154 0.931 . S
H175 C155 0.930 . S
H176 C163 0.931 . S
H177 C164 0.929 . S
H178 C172 0.929 . S
H179 C173 0.930 . S
Mn180 O185 2.095 . S
Mn180 O195 2.162 . S
Mn180 O196 2.297 . S
Mn180 O204 2.385 . S
Mn180 O205 2.209 . S
Mn180 O206 2.094 . S
Mn181 O186 2.121 . S
Mn181 N188 2.257 . S
Mn181 N197 2.282 . S
Mn181 O205 2.215 . S
Mn181 O207 2.117 . S
C182 O204 1.234 . S
C182 O205 1.283 . S
C183 O195 1.281 . S
C183 O196 1.236 . S
C184 O206 1.240 . S
C184 O207 1.264 . S
O185 Mn180 2.095 . S
O185 C194 1.250 . S
O186 Mn181 2.121 . S
O186 C194 1.258 . S
C187 N188 1.326 . S
C187 C191 1.460 . S
C187 H193 0.929 . S
N188 Mn181 2.257 . S
N188 C187 1.326 . S
N188 C192 1.362 . S
C189 C190 1.258 . S
C189 C192 1.431 . S
C189 C209 1.449 . S
C190 C189 1.258 . S
C190 C191 1.477 . S
C190 H210 0.931 . S
C191 C187 1.460 . S
C191 C190 1.477 . S
C191 H211 0.930 . S
C192 N188 1.362 . S
C192 C189 1.431 . S
C192 C202 1.476 . S
H193 C187 0.929 . S
C194 O185 1.250 . S
C194 O186 1.258 . S
O195 Mn180 2.162 . S
O195 C183 1.281 . S
O196 Mn180 2.297 . S
O196 C183 1.236 . S
N197 Mn181 2.282 . S
N197 C198 1.328 . S
N197 C202 1.318 . S
C198 N197 1.328 . S
C198 C199 1.457 . S
C198 H203 0.929 . S
C199 C198 1.457 . S
C199 C200 1.291 . S
C199 H212 0.931 . S
C200 C199 1.291 . S
C200 C201 1.373 . S
C200 H213 0.929 . S
C201 C200 1.373 . S
C201 C202 1.396 . S
C201 C208 1.403 . S
C202 C192 1.476 . S
C202 N197 1.318 . S
C202 C201 1.396 . S
H203 C198 0.929 . S
O204 Mn180 2.385 . S
O204 C182 1.234 . S
O205 Mn180 2.209 . S
O205 Mn181 2.215 . S
O205 C182 1.283 . S
O206 Mn180 2.094 . S
O206 C184 1.240 . S
O207 Mn181 2.117 . S
O207 C184 1.264 . S
C208 C201 1.403 . S
C208 C209 1.399 . S
C208 H214 0.929 . S
C209 C189 1.449 . S
C209 C208 1.399 . S
C209 H215 0.930 . S
H210 C190 0.931 . S
H211 C191 0.930 . S
H212 C199 0.931 . S
H213 C200 0.929 . S
H214 C208 0.929 . S
H215 C209 0.930 . S
Mn216 O221 2.095 . S
Mn216 O231 2.162 . S
Mn216 O232 2.297 . S
Mn216 O240 2.385 . S
Mn216 O241 2.209 . S
Mn216 O242 2.094 . S
Mn217 O222 2.121 . S
Mn217 N224 2.257 . S
Mn217 N233 2.282 . S
Mn217 O241 2.215 . S
Mn217 O243 2.117 . S
C218 O240 1.234 . S
C218 O241 1.283 . S
C219 O231 1.281 . S
C219 O232 1.236 . S
C220 O242 1.240 . S
C220 O243 1.264 . S
O221 Mn216 2.095 . S
O221 C230 1.250 . S
O222 Mn217 2.121 . S
O222 C230 1.258 . S
C223 N224 1.326 . S
C223 C227 1.460 . S
C223 H229 0.929 . S
N224 Mn217 2.257 . S
N224 C223 1.326 . S
N224 C228 1.362 . S
C225 C226 1.258 . S
C225 C228 1.431 . S
C225 C245 1.449 . S
C226 C225 1.258 . S
C226 C227 1.477 . S
C226 H246 0.931 . S
C227 C223 1.460 . S
C227 C226 1.477 . S
C227 H247 0.930 . S
C228 N224 1.362 . S
C228 C225 1.431 . S
C228 C238 1.476 . S
H229 C223 0.929 . S
C230 O221 1.250 . S
C230 O222 1.258 . S
O231 Mn216 2.162 . S
O231 C219 1.281 . S
O232 Mn216 2.297 . S
O232 C219 1.236 . S
N233 Mn217 2.282 . S
N233 C234 1.328 . S
N233 C238 1.318 . S
C234 N233 1.328 . S
C234 C235 1.457 . S
C234 H239 0.929 . S
C235 C234 1.457 . S
C235 C236 1.291 . S
C235 H248 0.931 . S
C236 C235 1.291 . S
C236 C237 1.373 . S
C236 H249 0.929 . S
C237 C236 1.373 . S
C237 C238 1.396 . S
C237 C244 1.403 . S
C238 C228 1.476 . S
C238 N233 1.318 . S
C238 C237 1.396 . S
H239 C234 0.929 . S
O240 Mn216 2.385 . S
O240 C218 1.234 . S
O241 Mn216 2.209 . S
O241 Mn217 2.215 . S
O241 C218 1.283 . S
O242 Mn216 2.094 . S
O242 C220 1.240 . S
O243 Mn217 2.117 . S
O243 C220 1.264 . S
C244 C237 1.403 . S
C244 C245 1.399 . S
C244 H250 0.929 . S
C245 C225 1.449 . S
C245 C244 1.399 . S
C245 H251 0.930 . S
H246 C226 0.931 . S
H247 C227 0.930 . S
H248 C235 0.931 . S
H249 C236 0.929 . S
H250 C244 0.929 . S
H251 C245 0.930 . S
Mn252 O257 2.095 . S
Mn252 O267 2.162 . S
Mn252 O268 2.297 . S
Mn252 O276 2.385 . S
Mn252 O277 2.209 . S
Mn252 O278 2.094 . S
Mn253 O258 2.121 . S
Mn253 N260 2.257 . S
Mn253 N269 2.282 . S
Mn253 O277 2.215 . S
Mn253 O279 2.117 . S
C254 O276 1.234 . S
C254 O277 1.283 . S
C255 O267 1.281 . S
C255 O268 1.236 . S
C256 O278 1.240 . S
C256 O279 1.264 . S
O257 Mn252 2.095 . S
O257 C266 1.250 . S
O258 Mn253 2.121 . S
O258 C266 1.258 . S
C259 N260 1.326 . S
C259 C263 1.460 . S
C259 H265 0.929 . S
N260 Mn253 2.257 . S
N260 C259 1.326 . S
N260 C264 1.362 . S
C261 C262 1.258 . S
C261 C264 1.431 . S
C261 C281 1.449 . S
C262 C261 1.258 . S
C262 C263 1.477 . S
C262 H282 0.931 . S
C263 C259 1.460 . S
C263 C262 1.477 . S
C263 H283 0.930 . S
C264 N260 1.362 . S
C264 C261 1.431 . S
C264 C274 1.476 . S
H265 C259 0.929 . S
C266 O257 1.250 . S
C266 O258 1.258 . S
O267 Mn252 2.162 . S
O267 C255 1.281 . S
O268 Mn252 2.297 . S
O268 C255 1.236 . S
N269 Mn253 2.282 . S
N269 C270 1.328 . S
N269 C274 1.318 . S
C270 N269 1.328 . S
C270 C271 1.457 . S
C270 H275 0.929 . S
C271 C270 1.457 . S
C271 C272 1.291 . S
C271 H284 0.931 . S
C272 C271 1.291 . S
C272 C273 1.373 . S
C272 H285 0.929 . S
C273 C272 1.373 . S
C273 C274 1.396 . S
C273 C280 1.403 . S
C274 C264 1.476 . S
C274 N269 1.318 . S
C274 C273 1.396 . S
H275 C270 0.929 . S
O276 Mn252 2.385 . S
O276 C254 1.234 . S
O277 Mn252 2.209 . S
O277 Mn253 2.215 . S
O277 C254 1.283 . S
O278 Mn252 2.094 . S
O278 C256 1.240 . S
O279 Mn253 2.117 . S
O279 C256 1.264 . S
C280 C273 1.403 . S
C280 C281 1.399 . S
C280 H286 0.929 . S
C281 C261 1.449 . S
C281 C280 1.399 . S
C281 H287 0.930 . S
H282 C262 0.931 . S
H283 C263 0.930 . S
H284 C271 0.931 . S
H285 C272 0.929 . S
H286 C280 0.929 . S
H287 C281 0.930 . S
Mn288 O293 2.095 . S
Mn288 O303 2.162 . S
Mn288 O304 2.297 . S
Mn288 O312 2.385 . S
Mn288 O313 2.209 . S
Mn288 O314 2.094 . S
Mn289 O294 2.121 . S
Mn289 N296 2.257 . S
Mn289 N305 2.282 . S
Mn289 O313 2.215 . S
Mn289 O315 2.117 . S
C290 O312 1.234 . S
C290 O313 1.283 . S
C291 O303 1.281 . S
C291 O304 1.236 . S
C292 O314 1.240 . S
C292 O315 1.264 . S
O293 Mn288 2.095 . S
O293 C302 1.250 . S
O294 Mn289 2.121 . S
O294 C302 1.258 . S
C295 N296 1.326 . S
C295 C299 1.460 . S
C295 H301 0.929 . S
N296 Mn289 2.257 . S
N296 C295 1.326 . S
N296 C300 1.362 . S
C297 C298 1.258 . S
C297 C300 1.431 . S
C297 C317 1.449 . S
C298 C297 1.258 . S
C298 C299 1.477 . S
C298 H318 0.931 . S
C299 C295 1.460 . S
C299 C298 1.477 . S
C299 H319 0.930 . S
C300 N296 1.362 . S
C300 C297 1.431 . S
C300 C310 1.476 . S
H301 C295 0.929 . S
C302 O293 1.250 . S
C302 O294 1.258 . S
O303 Mn288 2.162 . S
O303 C291 1.281 . S
O304 Mn288 2.297 . S
O304 C291 1.236 . S
N305 Mn289 2.282 . S
N305 C306 1.328 . S
N305 C310 1.318 . S
C306 N305 1.328 . S
C306 C307 1.457 . S
C306 H311 0.929 . S
C307 C306 1.457 . S
C307 C308 1.291 . S
C307 H320 0.931 . S
C308 C307 1.291 . S
C308 C309 1.373 . S
C308 H321 0.929 . S
C309 C308 1.373 . S
C309 C310 1.396 . S
C309 C316 1.403 . S
C310 C300 1.476 . S
C310 N305 1.318 . S
C310 C309 1.396 . S
H311 C306 0.929 . S
O312 Mn288 2.385 . S
O312 C290 1.234 . S
O313 Mn288 2.209 . S
O313 Mn289 2.215 . S
O313 C290 1.283 . S
O314 Mn288 2.094 . S
O314 C292 1.240 . S
O315 Mn289 2.117 . S
O315 C292 1.264 . S
C316 C309 1.403 . S
C316 C317 1.399 . S
C316 H322 0.929 . S
C317 C297 1.449 . S
C317 C316 1.399 . S
C317 H323 0.930 . S
H318 C298 0.931 . S
H319 C299 0.930 . S
H320 C307 0.931 . S
H321 C308 0.929 . S
H322 C316 0.929 . S
H323 C317 0.930 . S
Mn324 O329 2.095 . S
Mn324 O339 2.162 . S
Mn324 O340 2.297 . S
Mn324 O348 2.385 . S
Mn324 O349 2.209 . S
Mn324 O350 2.094 . S
Mn325 O330 2.121 . S
Mn325 N332 2.257 . S
Mn325 N341 2.282 . S
Mn325 O349 2.215 . S
Mn325 O351 2.117 . S
C326 O348 1.234 . S
C326 O349 1.283 . S
C327 O339 1.281 . S
C327 O340 1.236 . S
C328 O350 1.240 . S
C328 O351 1.264 . S
O329 Mn324 2.095 . S
O329 C338 1.250 . S
O330 Mn325 2.121 . S
O330 C338 1.258 . S
C331 N332 1.326 . S
C331 C335 1.460 . S
C331 H337 0.929 . S
N332 Mn325 2.257 . S
N332 C331 1.326 . S
N332 C336 1.362 . S
C333 C334 1.258 . S
C333 C336 1.431 . S
C333 C353 1.449 . S
C334 C333 1.258 . S
C334 C335 1.477 . S
C334 H354 0.931 . S
C335 C331 1.460 . S
C335 C334 1.477 . S
C335 H355 0.930 . S
C336 N332 1.362 . S
C336 C333 1.431 . S
C336 C346 1.476 . S
H337 C331 0.929 . S
C338 O329 1.250 . S
C338 O330 1.258 . S
O339 Mn324 2.162 . S
O339 C327 1.281 . S
O340 Mn324 2.297 . S
O340 C327 1.236 . S
N341 Mn325 2.282 . S
N341 C342 1.328 . S
N341 C346 1.318 . S
C342 N341 1.328 . S
C342 C343 1.457 . S
C342 H347 0.929 . S
C343 C342 1.457 . S
C343 C344 1.291 . S
C343 H356 0.931 . S
C344 C343 1.291 . S
C344 C345 1.373 . S
C344 H357 0.929 . S
C345 C344 1.373 . S
C345 C346 1.396 . S
C345 C352 1.403 . S
C346 C336 1.476 . S
C346 N341 1.318 . S
C346 C345 1.396 . S
H347 C342 0.929 . S
O348 Mn324 2.385 . S
O348 C326 1.234 . S
O349 Mn324 2.209 . S
O349 Mn325 2.215 . S
O349 C326 1.283 . S
O350 Mn324 2.094 . S
O350 C328 1.240 . S
O351 Mn325 2.117 . S
O351 C328 1.264 . S
C352 C345 1.403 . S
C352 C353 1.399 . S
C352 H358 0.929 . S
C353 C333 1.449 . S
C353 C352 1.399 . S
C353 H359 0.930 . S
H354 C334 0.931 . S
H355 C335 0.930 . S
H356 C343 0.931 . S
H357 C344 0.929 . S
H358 C352 0.929 . S
H359 C353 0.930 . S
Mn360 O365 2.095 . S
Mn360 O375 2.162 . S
Mn360 O376 2.297 . S
Mn360 O384 2.385 . S
Mn360 O385 2.209 . S
Mn360 O386 2.094 . S
Mn361 O366 2.121 . S
Mn361 N368 2.257 . S
Mn361 N377 2.282 . S
Mn361 O385 2.215 . S
Mn361 O387 2.117 . S
C362 O384 1.234 . S
C362 O385 1.283 . S
C363 O375 1.281 . S
C363 O376 1.236 . S
C364 O386 1.240 . S
C364 O387 1.264 . S
O365 Mn360 2.095 . S
O365 C374 1.250 . S
O366 Mn361 2.121 . S
O366 C374 1.258 . S
C367 N368 1.326 . S
C367 C371 1.460 . S
C367 H373 0.929 . S
N368 Mn361 2.257 . S
N368 C367 1.326 . S
N368 C372 1.362 . S
C369 C370 1.258 . S
C369 C372 1.431 . S
C369 C389 1.449 . S
C370 C369 1.258 . S
C370 C371 1.477 . S
C370 H390 0.931 . S
C371 C367 1.460 . S
C371 C370 1.477 . S
C371 H391 0.930 . S
C372 N368 1.362 . S
C372 C369 1.431 . S
C372 C382 1.476 . S
H373 C367 0.929 . S
C374 O365 1.250 . S
C374 O366 1.258 . S
O375 Mn360 2.162 . S
O375 C363 1.281 . S
O376 Mn360 2.297 . S
O376 C363 1.236 . S
N377 Mn361 2.282 . S
N377 C378 1.328 . S
N377 C382 1.318 . S
C378 N377 1.328 . S
C378 C379 1.457 . S
C378 H383 0.929 . S
C379 C378 1.457 . S
C379 C380 1.291 . S
C379 H392 0.931 . S
C380 C379 1.291 . S
C380 C381 1.373 . S
C380 H393 0.929 . S
C381 C380 1.373 . S
C381 C382 1.396 . S
C381 C388 1.403 . S
C382 C372 1.476 . S
C382 N377 1.318 . S
C382 C381 1.396 . S
H383 C378 0.929 . S
O384 Mn360 2.385 . S
O384 C362 1.234 . S
O385 Mn360 2.209 . S
O385 Mn361 2.215 . S
O385 C362 1.283 . S
O386 Mn360 2.094 . S
O386 C364 1.240 . S
O387 Mn361 2.117 . S
O387 C364 1.264 . S
C388 C381 1.403 . S
C388 C389 1.399 . S
C388 H394 0.929 . S
C389 C369 1.449 . S
C389 C388 1.399 . S
C389 H395 0.930 . S
H390 C370 0.931 . S
H391 C371 0.930 . S
H392 C379 0.931 . S
H393 C380 0.929 . S
H394 C388 0.929 . S
H395 C389 0.930 . S
Mn396 O401 2.095 . S
Mn396 O411 2.162 . S
Mn396 O412 2.297 . S
Mn396 O420 2.385 . S
Mn396 O421 2.209 . S
Mn396 O422 2.094 . S
Mn397 O402 2.121 . S
Mn397 N404 2.257 . S
Mn397 N413 2.282 . S
Mn397 O421 2.215 . S
Mn397 O423 2.117 . S
C398 O420 1.234 . S
C398 O421 1.283 . S
C399 O411 1.281 . S
C399 O412 1.236 . S
C400 O422 1.240 . S
C400 O423 1.264 . S
O401 Mn396 2.095 . S
O401 C410 1.250 . S
O402 Mn397 2.121 . S
O402 C410 1.258 . S
C403 N404 1.326 . S
C403 C407 1.460 . S
C403 H409 0.929 . S
N404 Mn397 2.257 . S
N404 C403 1.326 . S
N404 C408 1.362 . S
C405 C406 1.258 . S
C405 C408 1.431 . S
C405 C425 1.449 . S
C406 C405 1.258 . S
C406 C407 1.477 . S
C406 H426 0.931 . S
C407 C403 1.460 . S
C407 C406 1.477 . S
C407 H427 0.930 . S
C408 N404 1.362 . S
C408 C405 1.431 . S
C408 C418 1.476 . S
H409 C403 0.929 . S
C410 O401 1.250 . S
C410 O402 1.258 . S
O411 Mn396 2.162 . S
O411 C399 1.281 . S
O412 Mn396 2.297 . S
O412 C399 1.236 . S
N413 Mn397 2.282 . S
N413 C414 1.328 . S
N413 C418 1.318 . S
C414 N413 1.328 . S
C414 C415 1.457 . S
C414 H419 0.929 . S
C415 C414 1.457 . S
C415 C416 1.291 . S
C415 H428 0.931 . S
C416 C415 1.291 . S
C416 C417 1.373 . S
C416 H429 0.929 . S
C417 C416 1.373 . S
C417 C418 1.396 . S
C417 C424 1.403 . S
C418 C408 1.476 . S
C418 N413 1.318 . S
C418 C417 1.396 . S
H419 C414 0.929 . S
O420 Mn396 2.385 . S
O420 C398 1.234 . S
O421 Mn396 2.209 . S
O421 Mn397 2.215 . S
O421 C398 1.283 . S
O422 Mn396 2.094 . S
O422 C400 1.240 . S
O423 Mn397 2.117 . S
O423 C400 1.264 . S
C424 C417 1.403 . S
C424 C425 1.399 . S
C424 H430 0.929 . S
C425 C405 1.449 . S
C425 C424 1.399 . S
C425 H431 0.930 . S
H426 C406 0.931 . S
H427 C407 0.930 . S
H428 C415 0.931 . S
H429 C416 0.929 . S
H430 C424 0.929 . S
H431 C425 0.930 . S
Mn432 O437 2.095 . S
Mn432 O447 2.162 . S
Mn432 O448 2.297 . S
Mn432 O456 2.385 . S
Mn432 O457 2.209 . S
Mn432 O458 2.094 . S
Mn433 O438 2.121 . S
Mn433 N440 2.257 . S
Mn433 N449 2.282 . S
Mn433 O457 2.215 . S
Mn433 O459 2.117 . S
C434 O456 1.234 . S
C434 O457 1.283 . S
C435 O447 1.281 . S
C435 O448 1.236 . S
C436 O458 1.240 . S
C436 O459 1.264 . S
O437 Mn432 2.095 . S
O437 C446 1.250 . S
O438 Mn433 2.121 . S
O438 C446 1.258 . S
C439 N440 1.326 . S
C439 C443 1.460 . S
C439 H445 0.929 . S
N440 Mn433 2.257 . S
N440 C439 1.326 . S
N440 C444 1.362 . S
C441 C442 1.258 . S
C441 C444 1.431 . S
C441 C461 1.449 . S
C442 C441 1.258 . S
C442 C443 1.477 . S
C442 H462 0.931 . S
C443 C439 1.460 . S
C443 C442 1.477 . S
C443 H463 0.930 . S
C444 N440 1.362 . S
C444 C441 1.431 . S
C444 C454 1.476 . S
H445 C439 0.929 . S
C446 O437 1.250 . S
C446 O438 1.258 . S
O447 Mn432 2.162 . S
O447 C435 1.281 . S
O448 Mn432 2.297 . S
O448 C435 1.236 . S
N449 Mn433 2.282 . S
N449 C450 1.328 . S
N449 C454 1.318 . S
C450 N449 1.328 . S
C450 C451 1.457 . S
C450 H455 0.929 . S
C451 C450 1.457 . S
C451 C452 1.291 . S
C451 H464 0.931 . S
C452 C451 1.291 . S
C452 C453 1.373 . S
C452 H465 0.929 . S
C453 C452 1.373 . S
C453 C454 1.396 . S
C453 C460 1.403 . S
C454 C444 1.476 . S
C454 N449 1.318 . S
C454 C453 1.396 . S
H455 C450 0.929 . S
O456 Mn432 2.385 . S
O456 C434 1.234 . S
O457 Mn432 2.209 . S
O457 Mn433 2.215 . S
O457 C434 1.283 . S
O458 Mn432 2.094 . S
O458 C436 1.240 . S
O459 Mn433 2.117 . S
O459 C436 1.264 . S
C460 C453 1.403 . S
C460 C461 1.399 . S
C460 H466 0.929 . S
C461 C441 1.449 . S
C461 C460 1.399 . S
C461 H467 0.930 . S
H462 C442 0.931 . S
H463 C443 0.930 . S
H464 C451 0.931 . S
H465 C452 0.929 . S
H466 C460 0.929 . S
H467 C461 0.930 . S
Mn468 O473 2.095 . S
Mn468 O483 2.162 . S
Mn468 O484 2.297 . S
Mn468 O492 2.385 . S
Mn468 O493 2.209 . S
Mn468 O494 2.094 . S
Mn469 O474 2.121 . S
Mn469 N476 2.257 . S
Mn469 N485 2.282 . S
Mn469 O493 2.215 . S
Mn469 O495 2.117 . S
C470 O492 1.234 . S
C470 O493 1.283 . S
C471 O483 1.281 . S
C471 O484 1.236 . S
C472 O494 1.240 . S
C472 O495 1.264 . S
O473 Mn468 2.095 . S
O473 C482 1.250 . S
O474 Mn469 2.121 . S
O474 C482 1.258 . S
C475 N476 1.326 . S
C475 C479 1.460 . S
C475 H481 0.929 . S
N476 Mn469 2.257 . S
N476 C475 1.326 . S
N476 C480 1.362 . S
C477 C478 1.258 . S
C477 C480 1.431 . S
C477 C497 1.449 . S
C478 C477 1.258 . S
C478 C479 1.477 . S
C478 H498 0.931 . S
C479 C475 1.460 . S
C479 C478 1.477 . S
C479 H499 0.930 . S
C480 N476 1.362 . S
C480 C477 1.431 . S
C480 C490 1.476 . S
H481 C475 0.929 . S
C482 O473 1.250 . S
C482 O474 1.258 . S
O483 Mn468 2.162 . S
O483 C471 1.281 . S
O484 Mn468 2.297 . S
O484 C471 1.236 . S
N485 Mn469 2.282 . S
N485 C486 1.328 . S
N485 C490 1.318 . S
C486 N485 1.328 . S
C486 C487 1.457 . S
C486 H491 0.929 . S
C487 C486 1.457 . S
C487 C488 1.291 . S
C487 H500 0.931 . S
C488 C487 1.291 . S
C488 C489 1.373 . S
C488 H501 0.929 . S
C489 C488 1.373 . S
C489 C490 1.396 . S
C489 C496 1.403 . S
C490 C480 1.476 . S
C490 N485 1.318 . S
C490 C489 1.396 . S
H491 C486 0.929 . S
O492 Mn468 2.385 . S
O492 C470 1.234 . S
O493 Mn468 2.209 . S
O493 Mn469 2.215 . S
O493 C470 1.283 . S
O494 Mn468 2.094 . S
O494 C472 1.240 . S
O495 Mn469 2.117 . S
O495 C472 1.264 . S
C496 C489 1.403 . S
C496 C497 1.399 . S
C496 H502 0.929 . S
C497 C477 1.449 . S
C497 C496 1.399 . S
C497 H503 0.930 . S
H498 C478 0.931 . S
H499 C479 0.930 . S
H500 C487 0.931 . S
H501 C488 0.929 . S
H502 C496 0.929 . S
H503 C497 0.930 . S
Mn504 O509 2.095 . S
Mn504 O519 2.162 . S
Mn504 O520 2.297 . S
Mn504 O528 2.385 . S
Mn504 O529 2.209 . S
Mn504 O530 2.094 . S
Mn505 O510 2.121 . S
Mn505 N512 2.257 . S
Mn505 N521 2.282 . S
Mn505 O529 2.215 . S
Mn505 O531 2.117 . S
C506 O528 1.234 . S
C506 O529 1.283 . S
C507 O519 1.281 . S
C507 O520 1.236 . S
C508 O530 1.240 . S
C508 O531 1.264 . S
O509 Mn504 2.095 . S
O509 C518 1.250 . S
O510 Mn505 2.121 . S
O510 C518 1.258 . S
C511 N512 1.326 . S
C511 C515 1.460 . S
C511 H517 0.929 . S
N512 Mn505 2.257 . S
N512 C511 1.326 . S
N512 C516 1.362 . S
C513 C514 1.258 . S
C513 C516 1.431 . S
C513 C533 1.449 . S
C514 C513 1.258 . S
C514 C515 1.477 . S
C514 H534 0.931 . S
C515 C511 1.460 . S
C515 C514 1.477 . S
C515 H535 0.930 . S
C516 N512 1.362 . S
C516 C513 1.431 . S
C516 C526 1.476 . S
H517 C511 0.929 . S
C518 O509 1.250 . S
C518 O510 1.258 . S
O519 Mn504 2.162 . S
O519 C507 1.281 . S
O520 Mn504 2.297 . S
O520 C507 1.236 . S
N521 Mn505 2.282 . S
N521 C522 1.328 . S
N521 C526 1.318 . S
C522 N521 1.328 . S
C522 C523 1.457 . S
C522 H527 0.929 . S
C523 C522 1.457 . S
C523 C524 1.291 . S
C523 H536 0.931 . S
C524 C523 1.291 . S
C524 C525 1.373 . S
C524 H537 0.929 . S
C525 C524 1.373 . S
C525 C526 1.396 . S
C525 C532 1.403 . S
C526 C516 1.476 . S
C526 N521 1.318 . S
C526 C525 1.396 . S
H527 C522 0.929 . S
O528 Mn504 2.385 . S
O528 C506 1.234 . S
O529 Mn504 2.209 . S
O529 Mn505 2.215 . S
O529 C506 1.283 . S
O530 Mn504 2.094 . S
O530 C508 1.240 . S
O531 Mn505 2.117 . S
O531 C508 1.264 . S
C532 C525 1.403 . S
C532 C533 1.399 . S
C532 H538 0.929 . S
C533 C513 1.449 . S
C533 C532 1.399 . S
C533 H539 0.930 . S
H534 C514 0.931 . S
H535 C515 0.930 . S
H536 C523 0.931 . S
H537 C524 0.929 . S
H538 C532 0.929 . S
H539 C533 0.930 . S
Mn540 O545 2.095 . S
Mn540 O555 2.162 . S
Mn540 O556 2.297 . S
Mn540 O564 2.385 . S
Mn540 O565 2.209 . S
Mn540 O566 2.094 . S
Mn541 O546 2.121 . S
Mn541 N548 2.257 . S
Mn541 N557 2.282 . S
Mn541 O565 2.215 . S
Mn541 O567 2.117 . S
C542 O564 1.234 . S
C542 O565 1.283 . S
C543 O555 1.281 . S
C543 O556 1.236 . S
C544 O566 1.240 . S
C544 O567 1.264 . S
O545 Mn540 2.095 . S
O545 C554 1.250 . S
O546 Mn541 2.121 . S
O546 C554 1.258 . S
C547 N548 1.326 . S
C547 C551 1.460 . S
C547 H553 0.929 . S
N548 Mn541 2.257 . S
N548 C547 1.326 . S
N548 C552 1.362 . S
C549 C550 1.258 . S
C549 C552 1.431 . S
C549 C569 1.449 . S
C550 C549 1.258 . S
C550 C551 1.477 . S
C550 H570 0.952 . S
C551 C547 1.460 . S
C551 C550 1.477 . S
C551 H571 0.930 . S
C552 N548 1.362 . S
C552 C549 1.431 . S
C552 C562 1.476 . S
H553 C547 0.929 . S
C554 O545 1.250 . S
C554 O546 1.258 . S
O555 Mn540 2.162 . S
O555 C543 1.281 . S
O556 Mn540 2.297 . S
O556 C543 1.236 . S
N557 Mn541 2.282 . S
N557 C558 1.328 . S
N557 C562 1.318 . S
C558 N557 1.328 . S
C558 C559 1.457 . S
C558 H563 0.929 . S
C559 C558 1.457 . S
C559 C560 1.291 . S
C559 H572 0.931 . S
C560 C559 1.291 . S
C560 C561 1.373 . S
C560 H573 0.929 . S
C561 C560 1.373 . S
C561 C562 1.396 . S
C561 C568 1.403 . S
C562 C552 1.476 . S
C562 N557 1.318 . S
C562 C561 1.396 . S
H563 C558 0.929 . S
O564 Mn540 2.385 . S
O564 C542 1.234 . S
O565 Mn540 2.209 . S
O565 Mn541 2.215 . S
O565 C542 1.283 . S
O566 Mn540 2.094 . S
O566 C544 1.240 . S
O567 Mn541 2.117 . S
O567 C544 1.264 . S
C568 C561 1.403 . S
C568 C569 1.399 . S
C568 H574 0.929 1_655 S
C569 C549 1.449 . S
C569 C568 1.399 . S
C569 H575 0.930 1_655 S
H570 C550 0.952 . S
H571 C551 0.930 . S
H572 C559 0.931 . S
H573 C560 0.929 . S
H574 C568 0.929 1_455 S
H575 C569 0.930 1_455 S
Mn576 O581 2.095 . S
Mn576 O591 2.162 . S
Mn576 O592 2.297 . S
Mn576 O600 2.385 . S
Mn576 O601 2.209 . S
Mn576 O602 2.094 . S
Mn577 O582 2.121 . S
Mn577 N584 2.257 . S
Mn577 N593 2.282 . S
Mn577 O601 2.215 . S
Mn577 O603 2.117 . S
C578 O600 1.234 . S
C578 O601 1.283 . S
C579 O591 1.281 . S
C579 O592 1.236 . S
C580 O602 1.240 . S
C580 O603 1.264 . S
O581 Mn576 2.095 . S
O581 C590 1.250 . S
O582 Mn577 2.121 . S
O582 C590 1.258 . S
C583 N584 1.326 . S
C583 C587 1.460 . S
C583 H589 0.929 . S
N584 Mn577 2.257 . S
N584 C583 1.326 . S
N584 C588 1.362 . S
C585 C586 1.258 . S
C585 C588 1.431 . S
C585 C605 1.449 . S
C586 C585 1.258 . S
C586 C587 1.477 . S
C586 H606 0.931 . S
C587 C583 1.460 . S
C587 C586 1.477 . S
C587 H607 0.930 . S
C588 N584 1.362 . S
C588 C585 1.431 . S
C588 C598 1.476 . S
H589 C583 0.929 . S
C590 O581 1.250 . S
C590 O582 1.258 . S
O591 Mn576 2.162 . S
O591 C579 1.281 . S
O592 Mn576 2.297 . S
O592 C579 1.236 . S
N593 Mn577 2.282 . S
N593 C594 1.328 . S
N593 C598 1.318 . S
C594 N593 1.328 . S
C594 C595 1.457 . S
C594 H599 0.929 . S
C595 C594 1.457 . S
C595 C596 1.291 . S
C595 H608 0.931 . S
C596 C595 1.291 . S
C596 C597 1.373 . S
C596 H609 0.929 . S
C597 C596 1.373 . S
C597 C598 1.396 . S
C597 C604 1.403 . S
C598 C588 1.476 . S
C598 N593 1.318 . S
C598 C597 1.396 . S
H599 C594 0.929 . S
O600 Mn576 2.385 . S
O600 C578 1.234 . S
O601 Mn576 2.209 . S
O601 Mn577 2.215 . S
O601 C578 1.283 . S
O602 Mn576 2.094 . S
O602 C580 1.240 . S
O603 Mn577 2.117 . S
O603 C580 1.264 . S
C604 C597 1.403 . S
C604 C605 1.399 . S
C604 H610 0.929 . S
C605 C585 1.449 . S
C605 C604 1.399 . S
C605 H611 0.930 . S
H606 C586 0.931 . S
H607 C587 0.930 . S
H608 C595 0.931 . S
H609 C596 0.929 . S
H610 C604 0.929 . S
H611 C605 0.930 . S
Mn612 O617 2.095 . S
Mn612 O627 2.162 . S
Mn612 O628 2.297 . S
Mn612 O636 2.385 . S
Mn612 O637 2.209 . S
Mn612 O638 2.094 . S
Mn613 O618 2.121 . S
Mn613 N620 2.257 . S
Mn613 N629 2.282 . S
Mn613 O637 2.215 . S
Mn613 O639 2.117 . S
C614 O636 1.234 . S
C614 O637 1.283 . S
C615 O627 1.281 . S
C615 O628 1.236 . S
C616 O638 1.240 . S
C616 O639 1.264 . S
O617 Mn612 2.095 . S
O617 C626 1.250 . S
O618 Mn613 2.121 . S
O618 C626 1.258 . S
C619 N620 1.326 . S
C619 C623 1.460 . S
C619 H625 0.929 . S
N620 Mn613 2.257 . S
N620 C619 1.326 . S
N620 C624 1.362 . S
C621 C622 1.258 . S
C621 C624 1.431 . S
C621 C641 1.449 . S
C622 C621 1.258 . S
C622 C623 1.477 . S
C622 H642 0.949 . S
C623 C619 1.460 . S
C623 C622 1.477 . S
C623 H643 0.930 . S
C624 N620 1.362 . S
C624 C621 1.431 . S
C624 C634 1.476 . S
H625 C619 0.929 . S
C626 O617 1.250 . S
C626 O618 1.258 . S
O627 Mn612 2.162 . S
O627 C615 1.281 . S
O628 Mn612 2.297 . S
O628 C615 1.236 . S
N629 Mn613 2.282 . S
N629 C630 1.328 . S
N629 C634 1.318 . S
C630 N629 1.328 . S
C630 C631 1.457 . S
C630 H635 0.929 . S
C631 C630 1.457 . S
C631 C632 1.291 . S
C631 H644 0.931 . S
C632 C631 1.291 . S
C632 C633 1.373 . S
C632 H645 0.929 . S
C633 C632 1.373 . S
C633 C634 1.396 . S
C633 C640 1.403 . S
C634 C624 1.476 . S
C634 N629 1.318 . S
C634 C633 1.396 . S
H635 C630 0.929 . S
O636 Mn612 2.385 . S
O636 C614 1.234 . S
O637 Mn612 2.209 . S
O637 Mn613 2.215 . S
O637 C614 1.283 . S
O638 Mn612 2.094 . S
O638 C616 1.240 . S
O639 Mn613 2.117 . S
O639 C616 1.264 . S
C640 C633 1.403 . S
C640 C641 1.399 . S
C640 H646 0.929 1_545 S
C641 C621 1.449 . S
C641 C640 1.399 . S
C641 H647 0.930 1_545 S
H642 C622 0.949 . S
H643 C623 0.930 . S
H644 C631 0.931 . S
H645 C632 0.929 . S
H646 C640 0.929 1_565 S
H647 C641 0.930 1_565 S
Mn648 O653 2.095 . S
Mn648 O663 2.162 . S
Mn648 O664 2.297 . S
Mn648 O672 2.385 . S
Mn648 O673 2.209 . S
Mn648 O674 2.094 . S
Mn649 O654 2.121 . S
Mn649 N656 2.257 . S
Mn649 N665 2.282 . S
Mn649 O673 2.215 . S
Mn649 O675 2.117 . S
C650 O672 1.234 . S
C650 O673 1.283 . S
C651 O663 1.281 . S
C651 O664 1.236 . S
C652 O674 1.240 . S
C652 O675 1.264 . S
O653 Mn648 2.095 . S
O653 C662 1.250 . S
O654 Mn649 2.121 . S
O654 C662 1.258 . S
C655 N656 1.326 . S
C655 C659 1.460 . S
C655 H661 0.929 . S
N656 Mn649 2.257 . S
N656 C655 1.326 . S
N656 C660 1.362 . S
C657 C658 1.258 . S
C657 C660 1.431 . S
C657 C677 1.449 . S
C658 C657 1.258 . S
C658 C659 1.477 . S
C658 H678 0.944 1_554 S
C659 C655 1.460 . S
C659 C658 1.477 . S
C659 H679 0.930 1_554 S
C660 N656 1.362 . S
C660 C657 1.431 . S
C660 C670 1.476 . S
H661 C655 0.929 . S
C662 O653 1.250 . S
C662 O654 1.258 . S
O663 Mn648 2.162 . S
O663 C651 1.281 . S
O664 Mn648 2.297 . S
O664 C651 1.236 . S
N665 Mn649 2.282 . S
N665 C666 1.328 . S
N665 C670 1.318 . S
C666 N665 1.328 . S
C666 C667 1.457 . S
C666 H671 0.929 . S
C667 C666 1.457 . S
C667 C668 1.291 . S
C667 H680 0.931 . S
C668 C667 1.291 . S
C668 C669 1.373 . S
C668 H681 0.929 . S
C669 C668 1.373 . S
C669 C670 1.396 . S
C669 C676 1.403 . S
C670 C660 1.476 . S
C670 N665 1.318 . S
C670 C669 1.396 . S
H671 C666 0.929 . S
O672 Mn648 2.385 . S
O672 C650 1.234 . S
O673 Mn648 2.209 . S
O673 Mn649 2.215 . S
O673 C650 1.283 . S
O674 Mn648 2.094 . S
O674 C652 1.240 . S
O675 Mn649 2.117 . S
O675 C652 1.264 . S
C676 C669 1.403 . S
C676 C677 1.399 . S
C676 H682 0.929 1_545 S
C677 C657 1.449 . S
C677 C676 1.399 . S
C677 H683 0.930 1_545 S
H678 C658 0.944 1_556 S
H679 C659 0.930 1_556 S
H680 C667 0.931 . S
H681 C668 0.929 . S
H682 C676 0.929 1_565 S
H683 C677 0.930 1_565 S
Mn684 O689 2.095 . S
Mn684 O699 2.162 . S
Mn684 O700 2.297 . S
Mn684 O708 2.385 . S
Mn684 O709 2.209 . S
Mn684 O710 2.094 . S
Mn685 O690 2.121 . S
Mn685 N692 2.257 . S
Mn685 N701 2.282 . S
Mn685 O709 2.215 . S
Mn685 O711 2.117 . S
C686 O708 1.234 . S
C686 O709 1.283 . S
C687 O699 1.281 . S
C687 O700 1.236 . S
C688 O710 1.240 . S
C688 O711 1.264 . S
O689 Mn684 2.095 . S
O689 C698 1.250 . S
O690 Mn685 2.121 . S
O690 C698 1.258 . S
C691 N692 1.326 . S
C691 C695 1.460 . S
C691 H697 0.929 . S
N692 Mn685 2.257 . S
N692 C691 1.326 . S
N692 C696 1.362 . S
C693 C694 1.258 . S
C693 C696 1.431 . S
C693 C713 1.449 . S
C694 C693 1.258 . S
C694 C695 1.477 . S
C694 H714 0.942 1_554 S
C695 C691 1.460 . S
C695 C694 1.477 . S
C695 H715 0.930 1_554 S
C696 N692 1.362 . S
C696 C693 1.431 . S
C696 C706 1.476 . S
H697 C691 0.929 . S
C698 O689 1.250 . S
C698 O690 1.258 . S
O699 Mn684 2.162 . S
O699 C687 1.281 . S
O700 Mn684 2.297 . S
O700 C687 1.236 . S
N701 Mn685 2.282 . S
N701 C702 1.328 . S
N701 C706 1.318 . S
C702 N701 1.328 . S
C702 C703 1.457 . S
C702 H707 0.929 . S
C703 C702 1.457 . S
C703 C704 1.291 . S
C703 H716 0.931 . S
C704 C703 1.291 . S
C704 C705 1.373 . S
C704 H717 0.929 . S
C705 C704 1.373 . S
C705 C706 1.396 . S
C705 C712 1.403 . S
C706 C696 1.476 . S
C706 N701 1.318 . S
C706 C705 1.396 . S
H707 C702 0.929 . S
O708 Mn684 2.385 . S
O708 C686 1.234 . S
O709 Mn684 2.209 . S
O709 Mn685 2.215 . S
O709 C686 1.283 . S
O710 Mn684 2.094 . S
O710 C688 1.240 . S
O711 Mn685 2.117 . S
O711 C688 1.264 . S
C712 C705 1.403 . S
C712 C713 1.399 . S
C712 H718 0.929 1_655 S
C713 C693 1.449 . S
C713 C712 1.399 . S
C713 H719 0.930 1_655 S
H714 C694 0.942 1_556 S
H715 C695 0.930 1_556 S
H716 C703 0.931 . S
H717 C704 0.929 . S
H718 C712 0.929 1_455 S
H719 C713 0.930 1_455 S
Mn720 O725 2.095 . S
Mn720 O735 2.162 . S
Mn720 O736 2.297 . S
Mn720 O744 2.385 . S
Mn720 O745 2.209 . S
Mn720 O746 2.094 . S
Mn721 O726 2.121 . S
Mn721 N728 2.257 . S
Mn721 N737 2.282 . S
Mn721 O745 2.215 . S
Mn721 O747 2.117 . S
C722 O744 1.234 . S
C722 O745 1.283 . S
C723 O735 1.281 . S
C723 O736 1.236 . S
C724 O746 1.240 . S
C724 O747 1.264 . S
O725 Mn720 2.095 . S
O725 C734 1.250 . S
O726 Mn721 2.121 . S
O726 C734 1.258 . S
C727 N728 1.326 . S
C727 C731 1.460 . S
C727 H733 0.929 . S
N728 Mn721 2.257 . S
N728 C727 1.326 . S
N728 C732 1.362 . S
C729 C730 1.258 . S
C729 C732 1.431 . S
C729 C749 1.449 . S
C730 C729 1.258 . S
C730 C731 1.477 . S
C730 H750 0.924 1_554 S
C731 C727 1.460 . S
C731 C730 1.477 . S
C731 H751 0.930 1_554 S
C732 N728 1.362 . S
C732 C729 1.431 . S
C732 C742 1.476 . S
H733 C727 0.929 . S
C734 O725 1.250 . S
C734 O726 1.258 . S
O735 Mn720 2.162 . S
O735 C723 1.281 . S
O736 Mn720 2.297 . S
O736 C723 1.236 . S
N737 Mn721 2.282 . S
N737 C738 1.328 . S
N737 C742 1.318 . S
C738 N737 1.328 . S
C738 C739 1.457 . S
C738 H743 0.929 . S
C739 C738 1.457 . S
C739 C740 1.291 . S
C739 H752 0.931 . S
C740 C739 1.291 . S
C740 C741 1.373 . S
C740 H753 0.929 . S
C741 C740 1.373 . S
C741 C742 1.396 . S
C741 C748 1.403 . S
C742 C732 1.476 . S
C742 N737 1.318 . S
C742 C741 1.396 . S
H743 C738 0.929 . S
O744 Mn720 2.385 . S
O744 C722 1.234 . S
O745 Mn720 2.209 . S
O745 Mn721 2.215 . S
O745 C722 1.283 . S
O746 Mn720 2.094 . S
O746 C724 1.240 . S
O747 Mn721 2.117 . S
O747 C724 1.264 . S
C748 C741 1.403 . S
C748 C749 1.399 . S
C748 H754 0.929 . S
C749 C729 1.449 . S
C749 C748 1.399 . S
C749 H755 0.930 . S
H750 C730 0.924 1_556 S
H751 C731 0.930 1_556 S
H752 C739 0.931 . S
H753 C740 0.929 . S
H754 C748 0.929 . S
H755 C749 0.930 . S
Mn756 O761 2.095 1_556 S
Mn756 O771 2.162 . S
Mn756 O772 2.297 . S
Mn756 O780 2.385 . S
Mn756 O781 2.209 1_556 S
Mn756 O782 2.094 . S
Mn757 O762 2.121 . S
Mn757 N764 2.257 . S
Mn757 N773 2.282 . S
Mn757 O781 2.215 . S
Mn757 O783 2.117 . S
C758 O780 1.234 . S
C758 O781 1.283 1_556 S
C759 O771 1.281 . S
C759 O772 1.236 . S
C760 O782 1.240 1_554 S
C760 O783 1.264 . S
O761 Mn756 2.095 1_554 S
O761 C770 1.250 . S
O762 Mn757 2.121 . S
O762 C770 1.258 . S
C763 N764 1.326 . S
C763 C767 1.460 . S
C763 H769 0.929 . S
N764 Mn757 2.257 . S
N764 C763 1.326 . S
N764 C768 1.362 . S
C765 C766 1.258 . S
C765 C768 1.431 . S
C765 C785 1.449 . S
C766 C765 1.258 . S
C766 C767 1.477 . S
C766 H786 0.931 . S
C767 C763 1.460 . S
C767 C766 1.477 . S
C767 H787 0.930 . S
C768 N764 1.362 . S
C768 C765 1.431 . S
C768 C778 1.476 . S
H769 C763 0.929 . S
C770 O761 1.250 . S
C770 O762 1.258 . S
O771 Mn756 2.162 . S
O771 C759 1.281 . S
O772 Mn756 2.297 . S
O772 C759 1.236 . S
N773 Mn757 2.282 . S
N773 C774 1.328 . S
N773 C778 1.318 . S
C774 N773 1.328 . S
C774 C775 1.457 . S
C774 H779 0.929 . S
C775 C774 1.457 . S
C775 C776 1.291 . S
C775 H788 0.931 . S
C776 C775 1.291 . S
C776 C777 1.373 . S
C776 H789 0.929 . S
C777 C776 1.373 . S
C777 C778 1.396 . S
C777 C784 1.403 . S
C778 C768 1.476 . S
C778 N773 1.318 . S
C778 C777 1.396 . S
H779 C774 0.929 . S
O780 Mn756 2.385 . S
O780 C758 1.234 . S
O781 Mn756 2.209 1_554 S
O781 Mn757 2.215 . S
O781 C758 1.283 1_554 S
O782 Mn756 2.094 . S
O782 C760 1.240 1_556 S
O783 Mn757 2.117 . S
O783 C760 1.264 . S
C784 C777 1.403 . S
C784 C785 1.399 . S
C784 H790 0.929 . S
C785 C765 1.449 . S
C785 C784 1.399 . S
C785 H791 0.930 . S
H786 C766 0.931 . S
H787 C767 0.930 . S
H788 C775 0.931 . S
H789 C776 0.929 . S
H790 C784 0.929 . S
H791 C785 0.930 . S
Mn792 O797 2.095 1_556 S
Mn792 O807 2.162 . S
Mn792 O808 2.297 . S
Mn792 O816 2.385 . S
Mn792 O817 2.209 1_556 S
Mn792 O818 2.094 . S
Mn793 O798 2.121 . S
Mn793 N800 2.257 . S
Mn793 N809 2.282 . S
Mn793 O817 2.215 . S
Mn793 O819 2.117 . S
C794 O816 1.234 . S
C794 O817 1.283 1_556 S
C795 O807 1.281 . S
C795 O808 1.236 . S
C796 O818 1.240 1_554 S
C796 O819 1.264 . S
O797 Mn792 2.095 1_554 S
O797 C806 1.250 . S
O798 Mn793 2.121 . S
O798 C806 1.258 . S
C799 N800 1.326 . S
C799 C803 1.460 . S
C799 H805 0.929 . S
N800 Mn793 2.257 . S
N800 C799 1.326 . S
N800 C804 1.362 . S
C801 C802 1.258 . S
C801 C804 1.431 . S
C801 C821 1.449 . S
C802 C801 1.258 . S
C802 C803 1.477 . S
C802 H822 0.931 . S
C803 C799 1.460 . S
C803 C802 1.477 . S
C803 H823 0.930 . S
C804 N800 1.362 . S
C804 C801 1.431 . S
C804 C814 1.476 . S
H805 C799 0.929 . S
C806 O797 1.250 . S
C806 O798 1.258 . S
O807 Mn792 2.162 . S
O807 C795 1.281 . S
O808 Mn792 2.297 . S
O808 C795 1.236 . S
N809 Mn793 2.282 . S
N809 C810 1.328 . S
N809 C814 1.318 . S
C810 N809 1.328 . S
C810 C811 1.457 . S
C810 H815 0.929 . S
C811 C810 1.457 . S
C811 C812 1.291 . S
C811 H824 0.931 . S
C812 C811 1.291 . S
C812 C813 1.373 . S
C812 H825 0.929 . S
C813 C812 1.373 . S
C813 C814 1.396 . S
C813 C820 1.403 . S
C814 C804 1.476 . S
C814 N809 1.318 . S
C814 C813 1.396 . S
H815 C810 0.929 . S
O816 Mn792 2.385 . S
O816 C794 1.234 . S
O817 Mn792 2.209 1_554 S
O817 Mn793 2.215 . S
O817 C794 1.283 1_554 S
O818 Mn792 2.094 . S
O818 C796 1.240 1_556 S
O819 Mn793 2.117 . S
O819 C796 1.264 . S
C820 C813 1.403 . S
C820 C821 1.399 . S
C820 H826 0.929 . S
C821 C801 1.449 . S
C821 C820 1.399 . S
C821 H827 0.930 . S
H822 C802 0.931 . S
H823 C803 0.930 . S
H824 C811 0.931 . S
H825 C812 0.929 . S
H826 C820 0.929 . S
H827 C821 0.930 . S
Mn828 O833 2.095 1_556 S
Mn828 O843 2.162 . S
Mn828 O844 2.297 . S
Mn828 O852 2.385 . S
Mn828 O853 2.209 1_556 S
Mn828 O854 2.094 . S
Mn829 O834 2.121 . S
Mn829 N836 2.257 . S
Mn829 N845 2.282 . S
Mn829 O853 2.215 . S
Mn829 O855 2.117 . S
C830 O852 1.234 . S
C830 O853 1.283 1_556 S
C831 O843 1.281 . S
C831 O844 1.236 . S
C832 O854 1.240 1_554 S
C832 O855 1.264 . S
O833 Mn828 2.095 1_554 S
O833 C842 1.250 . S
O834 Mn829 2.121 . S
O834 C842 1.258 . S
C835 N836 1.326 . S
C835 C839 1.460 . S
C835 H841 0.929 . S
N836 Mn829 2.257 . S
N836 C835 1.326 . S
N836 C840 1.362 . S
C837 C838 1.258 . S
C837 C840 1.431 . S
C837 C857 1.449 . S
C838 C837 1.258 . S
C838 C839 1.477 . S
C838 H858 0.931 . S
C839 C835 1.460 . S
C839 C838 1.477 . S
C839 H859 0.930 . S
C840 N836 1.362 . S
C840 C837 1.431 . S
C840 C850 1.476 . S
H841 C835 0.929 . S
C842 O833 1.250 . S
C842 O834 1.258 . S
O843 Mn828 2.162 . S
O843 C831 1.281 . S
O844 Mn828 2.297 . S
O844 C831 1.236 . S
N845 Mn829 2.282 . S
N845 C846 1.328 . S
N845 C850 1.318 . S
C846 N845 1.328 . S
C846 C847 1.457 . S
C846 H851 0.929 . S
C847 C846 1.457 . S
C847 C848 1.291 . S
C847 H860 0.931 . S
C848 C847 1.291 . S
C848 C849 1.373 . S
C848 H861 0.929 . S
C849 C848 1.373 . S
C849 C850 1.396 . S
C849 C856 1.403 . S
C850 C840 1.476 . S
C850 N845 1.318 . S
C850 C849 1.396 . S
H851 C846 0.929 . S
O852 Mn828 2.385 . S
O852 C830 1.234 . S
O853 Mn828 2.209 1_554 S
O853 Mn829 2.215 . S
O853 C830 1.283 1_554 S
O854 Mn828 2.094 . S
O854 C832 1.240 1_556 S
O855 Mn829 2.117 . S
O855 C832 1.264 . S
C856 C849 1.403 . S
C856 C857 1.399 . S
C856 H862 0.929 . S
C857 C837 1.449 . S
C857 C856 1.399 . S
C857 H863 0.930 . S
H858 C838 0.931 . S
H859 C839 0.930 . S
H860 C847 0.931 . S
H861 C848 0.929 . S
H862 C856 0.929 . S
H863 C857 0.930 . S
Mn864 O869 2.095 . S
Mn864 O879 2.162 . S
Mn864 O880 2.297 . S
Mn864 O888 2.385 . S
Mn864 O889 2.209 . S
Mn864 O890 2.094 . S
Mn865 O870 2.121 . S
Mn865 N872 2.257 . S
Mn865 N881 2.282 . S
Mn865 O889 2.215 . S
Mn865 O891 2.117 . S
C866 O888 1.234 . S
C866 O889 1.283 . S
C867 O879 1.281 . S
C867 O880 1.236 . S
C868 O890 1.240 . S
C868 O891 1.264 . S
O869 Mn864 2.095 . S
O869 C878 1.250 . S
O870 Mn865 2.121 . S
O870 C878 1.258 . S
C871 N872 1.326 . S
C871 C875 1.460 . S
C871 H877 0.929 . S
N872 Mn865 2.257 . S
N872 C871 1.326 . S
N872 C876 1.362 . S
C873 C874 1.258 . S
C873 C876 1.431 . S
C873 C893 1.449 . S
C874 C873 1.258 . S
C874 C875 1.477 . S
C874 H894 0.944 1_556 S
C875 C871 1.460 . S
C875 C874 1.477 . S
C875 H895 0.930 1_556 S
C876 N872 1.362 . S
C876 C873 1.431 . S
C876 C886 1.476 . S
H877 C871 0.929 . S
C878 O869 1.250 . S
C878 O870 1.258 . S
O879 Mn864 2.162 . S
O879 C867 1.281 . S
O880 Mn864 2.297 . S
O880 C867 1.236 . S
N881 Mn865 2.282 . S
N881 C882 1.328 . S
N881 C886 1.318 . S
C882 N881 1.328 . S
C882 C883 1.457 . S
C882 H887 0.929 . S
C883 C882 1.457 . S
C883 C884 1.291 . S
C883 H896 0.931 . S
C884 C883 1.291 . S
C884 C885 1.373 . S
C884 H897 0.929 . S
C885 C884 1.373 . S
C885 C886 1.396 . S
C885 C892 1.403 . S
C886 C876 1.476 . S
C886 N881 1.318 . S
C886 C885 1.396 . S
H887 C882 0.929 . S
O888 Mn864 2.385 . S
O888 C866 1.234 . S
O889 Mn864 2.209 . S
O889 Mn865 2.215 . S
O889 C866 1.283 . S
O890 Mn864 2.094 . S
O890 C868 1.240 . S
O891 Mn865 2.117 . S
O891 C868 1.264 . S
C892 C885 1.403 . S
C892 C893 1.399 . S
C892 H898 0.929 1_565 S
C893 C873 1.449 . S
C893 C892 1.399 . S
C893 H899 0.930 1_565 S
H894 C874 0.944 1_554 S
H895 C875 0.930 1_554 S
H896 C883 0.931 . S
H897 C884 0.929 . S
H898 C892 0.929 1_545 S
H899 C893 0.930 1_545 S
Mn900 O905 2.095 . S
Mn900 O915 2.162 . S
Mn900 O916 2.297 . S
Mn900 O924 2.385 . S
Mn900 O925 2.209 . S
Mn900 O926 2.094 . S
Mn901 O906 2.121 . S
Mn901 N908 2.257 . S
Mn901 N917 2.282 . S
Mn901 O925 2.215 . S
Mn901 O927 2.117 . S
C902 O924 1.234 . S
C902 O925 1.283 . S
C903 O915 1.281 . S
C903 O916 1.236 . S
C904 O926 1.240 . S
C904 O927 1.264 . S
O905 Mn900 2.095 . S
O905 C914 1.250 . S
O906 Mn901 2.121 . S
O906 C914 1.258 . S
C907 N908 1.326 . S
C907 C911 1.460 . S
C907 H913 0.929 . S
N908 Mn901 2.257 . S
N908 C907 1.326 . S
N908 C912 1.362 . S
C909 C910 1.258 . S
C909 C912 1.431 . S
C909 C929 1.449 . S
C910 C909 1.258 . S
C910 C911 1.477 . S
C910 H930 0.942 1_556 S
C911 C907 1.460 . S
C911 C910 1.477 . S
C911 H931 0.930 1_556 S
C912 N908 1.362 . S
C912 C909 1.431 . S
C912 C922 1.476 . S
H913 C907 0.929 . S
C914 O905 1.250 . S
C914 O906 1.258 . S
O915 Mn900 2.162 . S
O915 C903 1.281 . S
O916 Mn900 2.297 . S
O916 C903 1.236 . S
N917 Mn901 2.282 . S
N917 C918 1.328 . S
N917 C922 1.318 . S
C918 N917 1.328 . S
C918 C919 1.457 . S
C918 H923 0.929 . S
C919 C918 1.457 . S
C919 C920 1.291 . S
C919 H932 0.931 . S
C920 C919 1.291 . S
C920 C921 1.373 . S
C920 H933 0.929 . S
C921 C920 1.373 . S
C921 C922 1.396 . S
C921 C928 1.403 . S
C922 C912 1.476 . S
C922 N917 1.318 . S
C922 C921 1.396 . S
H923 C918 0.929 . S
O924 Mn900 2.385 . S
O924 C902 1.234 . S
O925 Mn900 2.209 . S
O925 Mn901 2.215 . S
O925 C902 1.283 . S
O926 Mn900 2.094 . S
O926 C904 1.240 . S
O927 Mn901 2.117 . S
O927 C904 1.264 . S
C928 C921 1.403 . S
C928 C929 1.399 . S
C928 H934 0.929 1_455 S
C929 C909 1.449 . S
C929 C928 1.399 . S
C929 H935 0.930 1_455 S
H930 C910 0.942 1_554 S
H931 C911 0.930 1_554 S
H932 C919 0.931 . S
H933 C920 0.929 . S
H934 C928 0.929 1_655 S
H935 C929 0.930 1_655 S
Mn936 O941 2.095 . S
Mn936 O951 2.162 . S
Mn936 O952 2.297 . S
Mn936 O960 2.385 . S
Mn936 O961 2.209 . S
Mn936 O962 2.094 . S
Mn937 O942 2.121 . S
Mn937 N944 2.257 . S
Mn937 N953 2.282 . S
Mn937 O961 2.215 . S
Mn937 O963 2.117 . S
C938 O960 1.234 . S
C938 O961 1.283 . S
C939 O951 1.281 . S
C939 O952 1.236 . S
C940 O962 1.240 . S
C940 O963 1.264 . S
O941 Mn936 2.095 . S
O941 C950 1.250 . S
O942 Mn937 2.121 . S
O942 C950 1.258 . S
C943 N944 1.326 . S
C943 C947 1.460 . S
C943 H949 0.929 . S
N944 Mn937 2.257 . S
N944 C943 1.326 . S
N944 C948 1.362 . S
C945 C946 1.258 . S
C945 C948 1.431 . S
C945 C965 1.449 . S
C946 C945 1.258 . S
C946 C947 1.477 . S
C946 H966 0.924 1_556 S
C947 C943 1.460 . S
C947 C946 1.477 . S
C947 H967 0.930 1_556 S
C948 N944 1.362 . S
C948 C945 1.431 . S
C948 C958 1.476 . S
H949 C943 0.929 . S
C950 O941 1.250 . S
C950 O942 1.258 . S
O951 Mn936 2.162 . S
O951 C939 1.281 . S
O952 Mn936 2.297 . S
O952 C939 1.236 . S
N953 Mn937 2.282 . S
N953 C954 1.328 . S
N953 C958 1.318 . S
C954 N953 1.328 . S
C954 C955 1.457 . S
C954 H959 0.929 . S
C955 C954 1.457 . S
C955 C956 1.291 . S
C955 H968 0.931 . S
C956 C955 1.291 . S
C956 C957 1.373 . S
C956 H969 0.929 . S
C957 C956 1.373 . S
C957 C958 1.396 . S
C957 C964 1.403 . S
C958 C948 1.476 . S
C958 N953 1.318 . S
C958 C957 1.396 . S
H959 C954 0.929 . S
O960 Mn936 2.385 . S
O960 C938 1.234 . S
O961 Mn936 2.209 . S
O961 Mn937 2.215 . S
O961 C938 1.283 . S
O962 Mn936 2.094 . S
O962 C940 1.240 . S
O963 Mn937 2.117 . S
O963 C940 1.264 . S
C964 C957 1.403 . S
C964 C965 1.399 . S
C964 H970 0.929 . S
C965 C945 1.449 . S
C965 C964 1.399 . S
C965 H971 0.930 . S
H966 C946 0.924 1_554 S
H967 C947 0.930 1_554 S
H968 C955 0.931 . S
H969 C956 0.929 . S
H970 C964 0.929 . S
H971 C965 0.930 . S
Mn972 O977 2.095 1_554 S
Mn972 O987 2.162 . S
Mn972 O988 2.297 . S
Mn972 O996 2.385 . S
Mn972 O997 2.209 1_554 S
Mn972 O998 2.094 . S
Mn973 O978 2.121 . S
Mn973 N980 2.257 . S
Mn973 N989 2.282 . S
Mn973 O997 2.215 . S
Mn973 O999 2.117 . S
C974 O996 1.234 . S
C974 O997 1.283 1_554 S
C975 O987 1.281 . S
C975 O988 1.236 . S
C976 O998 1.240 1_556 S
C976 O999 1.264 . S
O977 Mn972 2.095 1_556 S
O977 C986 1.250 . S
O978 Mn973 2.121 . S
O978 C986 1.258 . S
C979 N980 1.326 . S
C979 C983 1.460 . S
C979 H985 0.929 . S
N980 Mn973 2.257 . S
N980 C979 1.326 . S
N980 C984 1.362 . S
C981 C982 1.258 . S
C981 C984 1.431 . S
C981 C1001 1.449 . S
C982 C981 1.258 . S
C982 C983 1.477 . S
C982 H1002 0.931 . S
C983 C979 1.460 . S
C983 C982 1.477 . S
C983 H1003 0.930 . S
C984 N980 1.362 . S
C984 C981 1.431 . S
C984 C994 1.476 . S
H985 C979 0.929 . S
C986 O977 1.250 . S
C986 O978 1.258 . S
O987 Mn972 2.162 . S
O987 C975 1.281 . S
O988 Mn972 2.297 . S
O988 C975 1.236 . S
N989 Mn973 2.282 . S
N989 C990 1.328 . S
N989 C994 1.318 . S
C990 N989 1.328 . S
C990 C991 1.457 . S
C990 H995 0.929 . S
C991 C990 1.457 . S
C991 C992 1.291 . S
C991 H1004 0.931 . S
C992 C991 1.291 . S
C992 C993 1.373 . S
C992 H1005 0.929 . S
C993 C992 1.373 . S
C993 C994 1.396 . S
C993 C1000 1.403 . S
C994 C984 1.476 . S
C994 N989 1.318 . S
C994 C993 1.396 . S
H995 C990 0.929 . S
O996 Mn972 2.385 . S
O996 C974 1.234 . S
O997 Mn972 2.209 1_556 S
O997 Mn973 2.215 . S
O997 C974 1.283 1_556 S
O998 Mn972 2.094 . S
O998 C976 1.240 1_554 S
O999 Mn973 2.117 . S
O999 C976 1.264 . S
C1000 C993 1.403 . S
C1000 C1001 1.399 . S
C1000 H1006 0.929 . S
C1001 C981 1.449 . S
C1001 C1000 1.399 . S
C1001 H1007 0.930 . S
H1002 C982 0.931 . S
H1003 C983 0.930 . S
H1004 C991 0.931 . S
H1005 C992 0.929 . S
H1006 C1000 0.929 . S
H1007 C1001 0.930 . S
Mn1008 O1013 2.095 1_554 S
Mn1008 O1023 2.162 . S
Mn1008 O1024 2.297 . S
Mn1008 O1032 2.385 . S
Mn1008 O1033 2.209 1_554 S
Mn1008 O1034 2.094 . S
Mn1009 O1014 2.121 . S
Mn1009 N1016 2.257 . S
Mn1009 N1025 2.282 . S
Mn1009 O1033 2.215 . S
Mn1009 O1035 2.117 . S
C1010 O1032 1.234 . S
C1010 O1033 1.283 1_554 S
C1011 O1023 1.281 . S
C1011 O1024 1.236 . S
C1012 O1034 1.240 1_556 S
C1012 O1035 1.264 . S
O1013 Mn1008 2.095 1_556 S
O1013 C1022 1.250 . S
O1014 Mn1009 2.121 . S
O1014 C1022 1.258 . S
C1015 N1016 1.326 . S
C1015 C1019 1.460 . S
C1015 H1021 0.929 . S
N1016 Mn1009 2.257 . S
N1016 C1015 1.326 . S
N1016 C1020 1.362 . S
C1017 C1018 1.258 . S
C1017 C1020 1.431 . S
C1017 C1037 1.449 . S
C1018 C1017 1.258 . S
C1018 C1019 1.477 . S
C1018 H1038 0.931 . S
C1019 C1015 1.460 . S
C1019 C1018 1.477 . S
C1019 H1039 0.930 . S
C1020 N1016 1.362 . S
C1020 C1017 1.431 . S
C1020 C1030 1.476 . S
H1021 C1015 0.929 . S
C1022 O1013 1.250 . S
C1022 O1014 1.258 . S
O1023 Mn1008 2.162 . S
O1023 C1011 1.281 . S
O1024 Mn1008 2.297 . S
O1024 C1011 1.236 . S
N1025 Mn1009 2.282 . S
N1025 C1026 1.328 . S
N1025 C1030 1.318 . S
C1026 N1025 1.328 . S
C1026 C1027 1.457 . S
C1026 H1031 0.929 . S
C1027 C1026 1.457 . S
C1027 C1028 1.291 . S
C1027 H1040 0.931 . S
C1028 C1027 1.291 . S
C1028 C1029 1.373 . S
C1028 H1041 0.929 . S
C1029 C1028 1.373 . S
C1029 C1030 1.396 . S
C1029 C1036 1.403 . S
C1030 C1020 1.476 . S
C1030 N1025 1.318 . S
C1030 C1029 1.396 . S
H1031 C1026 0.929 . S
O1032 Mn1008 2.385 . S
O1032 C1010 1.234 . S
O1033 Mn1008 2.209 1_556 S
O1033 Mn1009 2.215 . S
O1033 C1010 1.283 1_556 S
O1034 Mn1008 2.094 . S
O1034 C1012 1.240 1_554 S
O1035 Mn1009 2.117 . S
O1035 C1012 1.264 . S
C1036 C1029 1.403 . S
C1036 C1037 1.399 . S
C1036 H1042 0.929 . S
C1037 C1017 1.449 . S
C1037 C1036 1.399 . S
C1037 H1043 0.930 . S
H1038 C1018 0.931 . S
H1039 C1019 0.930 . S
H1040 C1027 0.931 . S
H1041 C1028 0.929 . S
H1042 C1036 0.929 . S
H1043 C1037 0.930 . S
Mn1044 O1049 2.095 1_554 S
Mn1044 O1059 2.162 . S
Mn1044 O1060 2.297 . S
Mn1044 O1068 2.385 . S
Mn1044 O1069 2.209 1_554 S
Mn1044 O1070 2.094 . S
Mn1045 O1050 2.121 . S
Mn1045 N1052 2.257 . S
Mn1045 N1061 2.282 . S
Mn1045 O1069 2.215 . S
Mn1045 O1071 2.117 . S
C1046 O1068 1.234 . S
C1046 O1069 1.283 1_554 S
C1047 O1059 1.281 . S
C1047 O1060 1.236 . S
C1048 O1070 1.240 1_556 S
C1048 O1071 1.264 . S
O1049 Mn1044 2.095 1_556 S
O1049 C1058 1.250 . S
O1050 Mn1045 2.121 . S
O1050 C1058 1.258 . S
C1051 N1052 1.326 . S
C1051 C1055 1.460 . S
C1051 H1057 0.929 . S
N1052 Mn1045 2.257 . S
N1052 C1051 1.326 . S
N1052 C1056 1.362 . S
C1053 C1054 1.258 . S
C1053 C1056 1.431 . S
C1053 C1073 1.449 . S
C1054 C1053 1.258 . S
C1054 C1055 1.477 . S
C1054 H1074 0.931 . S
C1055 C1051 1.460 . S
C1055 C1054 1.477 . S
C1055 H1075 0.930 . S
C1056 N1052 1.362 . S
C1056 C1053 1.431 . S
C1056 C1066 1.476 . S
H1057 C1051 0.929 . S
C1058 O1049 1.250 . S
C1058 O1050 1.258 . S
O1059 Mn1044 2.162 . S
O1059 C1047 1.281 . S
O1060 Mn1044 2.297 . S
O1060 C1047 1.236 . S
N1061 Mn1045 2.282 . S
N1061 C1062 1.328 . S
N1061 C1066 1.318 . S
C1062 N1061 1.328 . S
C1062 C1063 1.457 . S
C1062 H1067 0.929 . S
C1063 C1062 1.457 . S
C1063 C1064 1.291 . S
C1063 H1076 0.931 . S
C1064 C1063 1.291 . S
C1064 C1065 1.373 . S
C1064 H1077 0.929 . S
C1065 C1064 1.373 . S
C1065 C1066 1.396 . S
C1065 C1072 1.403 . S
C1066 C1056 1.476 . S
C1066 N1061 1.318 . S
C1066 C1065 1.396 . S
H1067 C1062 0.929 . S
O1068 Mn1044 2.385 . S
O1068 C1046 1.234 . S
O1069 Mn1044 2.209 1_556 S
O1069 Mn1045 2.215 . S
O1069 C1046 1.283 1_556 S
O1070 Mn1044 2.094 . S
O1070 C1048 1.240 1_554 S
O1071 Mn1045 2.117 . S
O1071 C1048 1.264 . S
C1072 C1065 1.403 . S
C1072 C1073 1.399 . S
C1072 H1078 0.929 . S
C1073 C1053 1.449 . S
C1073 C1072 1.399 . S
C1073 H1079 0.930 . S
H1074 C1054 0.931 . S
H1075 C1055 0.930 . S
H1076 C1063 0.931 . S
H1077 C1064 0.929 . S
H1078 C1072 0.929 . S
H1079 C1073 0.930 . S
Mn1080 O1085 2.095 . S
Mn1080 O1095 2.162 . S
Mn1080 O1096 2.297 . S
Mn1080 O1104 2.385 . S
Mn1080 O1105 2.209 . S
Mn1080 O1106 2.094 . S
Mn1081 O1086 2.121 . S
Mn1081 N1088 2.257 . S
Mn1081 N1097 2.282 . S
Mn1081 O1105 2.215 . S
Mn1081 O1107 2.117 . S
C1082 O1104 1.234 . S
C1082 O1105 1.283 . S
C1083 O1095 1.281 . S
C1083 O1096 1.236 . S
C1084 O1106 1.240 . S
C1084 O1107 1.264 . S
O1085 Mn1080 2.095 . S
O1085 C1094 1.250 . S
O1086 Mn1081 2.121 . S
O1086 C1094 1.258 . S
C1087 N1088 1.326 . S
C1087 C1091 1.460 . S
C1087 H1093 0.929 . S
N1088 Mn1081 2.257 . S
N1088 C1087 1.326 . S
N1088 C1092 1.362 . S
C1089 C1090 1.258 . S
C1089 C1092 1.431 . S
C1089 C1109 1.449 . S
C1090 C1089 1.258 . S
C1090 C1091 1.477 . S
C1090 H1110 0.931 . S
C1091 C1087 1.460 . S
C1091 C1090 1.477 . S
C1091 H1111 0.930 . S
C1092 N1088 1.362 . S
C1092 C1089 1.431 . S
C1092 C1102 1.476 . S
H1093 C1087 0.929 . S
C1094 O1085 1.250 . S
C1094 O1086 1.258 . S
O1095 Mn1080 2.162 . S
O1095 C1083 1.281 . S
O1096 Mn1080 2.297 . S
O1096 C1083 1.236 . S
N1097 Mn1081 2.282 . S
N1097 C1098 1.328 . S
N1097 C1102 1.318 . S
C1098 N1097 1.328 . S
C1098 C1099 1.457 . S
C1098 H1103 0.929 . S
C1099 C1098 1.457 . S
C1099 C1100 1.291 . S
C1099 H1112 0.931 . S
C1100 C1099 1.291 . S
C1100 C1101 1.373 . S
C1100 H1113 0.929 . S
C1101 C1100 1.373 . S
C1101 C1102 1.396 . S
C1101 C1108 1.403 . S
C1102 C1092 1.476 . S
C1102 N1097 1.318 . S
C1102 C1101 1.396 . S
H1103 C1098 0.929 . S
O1104 Mn1080 2.385 . S
O1104 C1082 1.234 . S
O1105 Mn1080 2.209 . S
O1105 Mn1081 2.215 . S
O1105 C1082 1.283 . S
O1106 Mn1080 2.094 . S
O1106 C1084 1.240 . S
O1107 Mn1081 2.117 . S
O1107 C1084 1.264 . S
C1108 C1101 1.403 . S
C1108 C1109 1.399 . S
C1108 H1114 0.929 . S
C1109 C1089 1.449 . S
C1109 C1108 1.399 . S
C1109 H1115 0.930 . S
H1110 C1090 0.931 . S
H1111 C1091 0.930 . S
H1112 C1099 0.931 . S
H1113 C1100 0.929 . S
H1114 C1108 0.929 . S
H1115 C1109 0.930 . S
Mn1116 O1121 2.095 . S
Mn1116 O1131 2.162 . S
Mn1116 O1132 2.297 . S
Mn1116 O1140 2.385 . S
Mn1116 O1141 2.209 . S
Mn1116 O1142 2.094 . S
Mn1117 O1122 2.121 . S
Mn1117 N1124 2.257 . S
Mn1117 N1133 2.282 . S
Mn1117 O1141 2.215 . S
Mn1117 O1143 2.117 . S
C1118 O1140 1.234 . S
C1118 O1141 1.283 . S
C1119 O1131 1.281 . S
C1119 O1132 1.236 . S
C1120 O1142 1.240 . S
C1120 O1143 1.264 . S
O1121 Mn1116 2.095 . S
O1121 C1130 1.250 . S
O1122 Mn1117 2.121 . S
O1122 C1130 1.258 . S
C1123 N1124 1.326 . S
C1123 C1127 1.460 . S
C1123 H1129 0.929 . S
N1124 Mn1117 2.257 . S
N1124 C1123 1.326 . S
N1124 C1128 1.362 . S
C1125 C1126 1.258 . S
C1125 C1128 1.431 . S
C1125 C1145 1.449 . S
C1126 C1125 1.258 . S
C1126 C1127 1.477 . S
C1126 H1146 0.931 . S
C1127 C1123 1.460 . S
C1127 C1126 1.477 . S
C1127 H1147 0.930 . S
C1128 N1124 1.362 . S
C1128 C1125 1.431 . S
C1128 C1138 1.476 . S
H1129 C1123 0.929 . S
C1130 O1121 1.250 . S
C1130 O1122 1.258 . S
O1131 Mn1116 2.162 . S
O1131 C1119 1.281 . S
O1132 Mn1116 2.297 . S
O1132 C1119 1.236 . S
N1133 Mn1117 2.282 . S
N1133 C1134 1.328 . S
N1133 C1138 1.318 . S
C1134 N1133 1.328 . S
C1134 C1135 1.457 . S
C1134 H1139 0.929 . S
C1135 C1134 1.457 . S
C1135 C1136 1.291 . S
C1135 H1148 0.931 . S
C1136 C1135 1.291 . S
C1136 C1137 1.373 . S
C1136 H1149 0.929 . S
C1137 C1136 1.373 . S
C1137 C1138 1.396 . S
C1137 C1144 1.403 . S
C1138 C1128 1.476 . S
C1138 N1133 1.318 . S
C1138 C1137 1.396 . S
H1139 C1134 0.929 . S
O1140 Mn1116 2.385 . S
O1140 C1118 1.234 . S
O1141 Mn1116 2.209 . S
O1141 Mn1117 2.215 . S
O1141 C1118 1.283 . S
O1142 Mn1116 2.094 . S
O1142 C1120 1.240 . S
O1143 Mn1117 2.117 . S
O1143 C1120 1.264 . S
C1144 C1137 1.403 . S
C1144 C1145 1.399 . S
C1144 H1150 0.929 . S
C1145 C1125 1.449 . S
C1145 C1144 1.399 . S
C1145 H1151 0.930 . S
H1146 C1126 0.931 . S
H1147 C1127 0.930 . S
H1148 C1135 0.931 . S
H1149 C1136 0.929 . S
H1150 C1144 0.929 . S
H1151 C1145 0.930 . S
Mn1152 O1157 2.095 . S
Mn1152 O1167 2.162 . S
Mn1152 O1168 2.297 . S
Mn1152 O1176 2.385 . S
Mn1152 O1177 2.209 . S
Mn1152 O1178 2.094 . S
Mn1153 O1158 2.121 . S
Mn1153 N1160 2.257 . S
Mn1153 N1169 2.282 . S
Mn1153 O1177 2.215 . S
Mn1153 O1179 2.117 . S
C1154 O1176 1.234 . S
C1154 O1177 1.283 . S
C1155 O1167 1.281 . S
C1155 O1168 1.236 . S
C1156 O1178 1.240 . S
C1156 O1179 1.264 . S
O1157 Mn1152 2.095 . S
O1157 C1166 1.250 . S
O1158 Mn1153 2.121 . S
O1158 C1166 1.258 . S
C1159 N1160 1.326 . S
C1159 C1163 1.460 . S
C1159 H1165 0.929 . S
N1160 Mn1153 2.257 . S
N1160 C1159 1.326 . S
N1160 C1164 1.362 . S
C1161 C1162 1.258 . S
C1161 C1164 1.431 . S
C1161 C1181 1.449 . S
C1162 C1161 1.258 . S
C1162 C1163 1.477 . S
C1162 H1182 0.931 . S
C1163 C1159 1.460 . S
C1163 C1162 1.477 . S
C1163 H1183 0.930 . S
C1164 N1160 1.362 . S
C1164 C1161 1.431 . S
C1164 C1174 1.476 . S
H1165 C1159 0.929 . S
C1166 O1157 1.250 . S
C1166 O1158 1.258 . S
O1167 Mn1152 2.162 . S
O1167 C1155 1.281 . S
O1168 Mn1152 2.297 . S
O1168 C1155 1.236 . S
N1169 Mn1153 2.282 . S
N1169 C1170 1.328 . S
N1169 C1174 1.318 . S
C1170 N1169 1.328 . S
C1170 C1171 1.457 . S
C1170 H1175 0.929 . S
C1171 C1170 1.457 . S
C1171 C1172 1.291 . S
C1171 H1184 0.931 . S
C1172 C1171 1.291 . S
C1172 C1173 1.373 . S
C1172 H1185 0.929 . S
C1173 C1172 1.373 . S
C1173 C1174 1.396 . S
C1173 C1180 1.403 . S
C1174 C1164 1.476 . S
C1174 N1169 1.318 . S
C1174 C1173 1.396 . S
H1175 C1170 0.929 . S
O1176 Mn1152 2.385 . S
O1176 C1154 1.234 . S
O1177 Mn1152 2.209 . S
O1177 Mn1153 2.215 . S
O1177 C1154 1.283 . S
O1178 Mn1152 2.094 . S
O1178 C1156 1.240 . S
O1179 Mn1153 2.117 . S
O1179 C1156 1.264 . S
C1180 C1173 1.403 . S
C1180 C1181 1.399 . S
C1180 H1186 0.929 . S
C1181 C1161 1.449 . S
C1181 C1180 1.399 . S
C1181 H1187 0.930 . S
H1182 C1162 0.931 . S
H1183 C1163 0.930 . S
H1184 C1171 0.931 . S
H1185 C1172 0.929 . S
H1186 C1180 0.929 . S
H1187 C1181 0.930 . S
Mn1188 O1193 2.095 . S
Mn1188 O1203 2.162 . S
Mn1188 O1204 2.297 . S
Mn1188 O1212 2.385 . S
Mn1188 O1213 2.209 . S
Mn1188 O1214 2.094 . S
Mn1189 O1194 2.121 . S
Mn1189 N1196 2.257 . S
Mn1189 N1205 2.282 . S
Mn1189 O1213 2.215 . S
Mn1189 O1215 2.117 . S
C1190 O1212 1.234 . S
C1190 O1213 1.283 . S
C1191 O1203 1.281 . S
C1191 O1204 1.236 . S
C1192 O1214 1.240 . S
C1192 O1215 1.264 . S
O1193 Mn1188 2.095 . S
O1193 C1202 1.250 . S
O1194 Mn1189 2.121 . S
O1194 C1202 1.258 . S
C1195 N1196 1.326 . S
C1195 C1199 1.460 . S
C1195 H1201 0.929 . S
N1196 Mn1189 2.257 . S
N1196 C1195 1.326 . S
N1196 C1200 1.362 . S
C1197 C1198 1.258 . S
C1197 C1200 1.431 . S
C1197 C1217 1.449 . S
C1198 C1197 1.258 . S
C1198 C1199 1.477 . S
C1198 H1218 0.951 . S
C1199 C1195 1.460 . S
C1199 C1198 1.477 . S
C1199 H1219 0.930 . S
C1200 N1196 1.362 . S
C1200 C1197 1.431 . S
C1200 C1210 1.476 . S
H1201 C1195 0.929 . S
C1202 O1193 1.250 . S
C1202 O1194 1.258 . S
O1203 Mn1188 2.162 . S
O1203 C1191 1.281 . S
O1204 Mn1188 2.297 . S
O1204 C1191 1.236 . S
N1205 Mn1189 2.282 . S
N1205 C1206 1.328 . S
N1205 C1210 1.318 . S
C1206 N1205 1.328 . S
C1206 C1207 1.457 . S
C1206 H1211 0.929 . S
C1207 C1206 1.457 . S
C1207 C1208 1.291 . S
C1207 H1220 0.931 . S
C1208 C1207 1.291 . S
C1208 C1209 1.373 . S
C1208 H1221 0.929 . S
C1209 C1208 1.373 . S
C1209 C1210 1.396 . S
C1209 C1216 1.403 . S
C1210 C1200 1.476 . S
C1210 N1205 1.318 . S
C1210 C1209 1.396 . S
H1211 C1206 0.929 . S
O1212 Mn1188 2.385 . S
O1212 C1190 1.234 . S
O1213 Mn1188 2.209 . S
O1213 Mn1189 2.215 . S
O1213 C1190 1.283 . S
O1214 Mn1188 2.094 . S
O1214 C1192 1.240 . S
O1215 Mn1189 2.117 . S
O1215 C1192 1.264 . S
C1216 C1209 1.403 . S
C1216 C1217 1.399 . S
C1216 H1222 0.929 1_455 S
C1217 C1197 1.449 . S
C1217 C1216 1.399 . S
C1217 H1223 0.930 1_455 S
H1218 C1198 0.951 . S
H1219 C1199 0.930 . S
H1220 C1207 0.931 . S
H1221 C1208 0.929 . S
H1222 C1216 0.929 1_655 S
H1223 C1217 0.930 1_655 S
Mn1224 O1229 2.095 . S
Mn1224 O1239 2.162 . S
Mn1224 O1240 2.297 . S
Mn1224 O1248 2.385 . S
Mn1224 O1249 2.209 . S
Mn1224 O1250 2.094 . S
Mn1225 O1230 2.121 . S
Mn1225 N1232 2.257 . S
Mn1225 N1241 2.282 . S
Mn1225 O1249 2.215 . S
Mn1225 O1251 2.117 . S
C1226 O1248 1.234 . S
C1226 O1249 1.283 . S
C1227 O1239 1.281 . S
C1227 O1240 1.236 . S
C1228 O1250 1.240 . S
C1228 O1251 1.264 . S
O1229 Mn1224 2.095 . S
O1229 C1238 1.250 . S
O1230 Mn1225 2.121 . S
O1230 C1238 1.258 . S
C1231 N1232 1.326 . S
C1231 C1235 1.460 . S
C1231 H1237 0.929 . S
N1232 Mn1225 2.257 . S
N1232 C1231 1.326 . S
N1232 C1236 1.362 . S
C1233 C1234 1.258 . S
C1233 C1236 1.431 . S
C1233 C1253 1.449 . S
C1234 C1233 1.258 . S
C1234 C1235 1.477 . S
C1234 H1254 0.931 . S
C1235 C1231 1.460 . S
C1235 C1234 1.477 . S
C1235 H1255 0.930 . S
C1236 N1232 1.362 . S
C1236 C1233 1.431 . S
C1236 C1246 1.476 . S
H1237 C1231 0.929 . S
C1238 O1229 1.250 . S
C1238 O1230 1.258 . S
O1239 Mn1224 2.162 . S
O1239 C1227 1.281 . S
O1240 Mn1224 2.297 . S
O1240 C1227 1.236 . S
N1241 Mn1225 2.282 . S
N1241 C1242 1.328 . S
N1241 C1246 1.318 . S
C1242 N1241 1.328 . S
C1242 C1243 1.457 . S
C1242 H1247 0.929 . S
C1243 C1242 1.457 . S
C1243 C1244 1.291 . S
C1243 H1256 0.931 . S
C1244 C1243 1.291 . S
C1244 C1245 1.373 . S
C1244 H1257 0.929 . S
C1245 C1244 1.373 . S
C1245 C1246 1.396 . S
C1245 C1252 1.403 . S
C1246 C1236 1.476 . S
C1246 N1241 1.318 . S
C1246 C1245 1.396 . S
H1247 C1242 0.929 . S
O1248 Mn1224 2.385 . S
O1248 C1226 1.234 . S
O1249 Mn1224 2.209 . S
O1249 Mn1225 2.215 . S
O1249 C1226 1.283 . S
O1250 Mn1224 2.094 . S
O1250 C1228 1.240 . S
O1251 Mn1225 2.117 . S
O1251 C1228 1.264 . S
C1252 C1245 1.403 . S
C1252 C1253 1.399 . S
C1252 H1258 0.929 . S
C1253 C1233 1.449 . S
C1253 C1252 1.399 . S
C1253 H1259 0.930 . S
H1254 C1234 0.931 . S
H1255 C1235 0.930 . S
H1256 C1243 0.931 . S
H1257 C1244 0.929 . S
H1258 C1252 0.929 . S
H1259 C1253 0.930 . S
Mn1260 O1265 2.095 . S
Mn1260 O1275 2.162 . S
Mn1260 O1276 2.297 . S
Mn1260 O1284 2.385 . S
Mn1260 O1285 2.209 . S
Mn1260 O1286 2.094 . S
Mn1261 O1266 2.121 . S
Mn1261 N1268 2.257 . S
Mn1261 N1277 2.282 . S
Mn1261 O1285 2.215 . S
Mn1261 O1287 2.117 . S
C1262 O1284 1.234 . S
C1262 O1285 1.283 . S
C1263 O1275 1.281 . S
C1263 O1276 1.236 . S
C1264 O1286 1.240 . S
C1264 O1287 1.264 . S
O1265 Mn1260 2.095 . S
O1265 C1274 1.250 . S
O1266 Mn1261 2.121 . S
O1266 C1274 1.258 . S
C1267 N1268 1.326 . S
C1267 C1271 1.460 . S
C1267 H1273 0.929 . S
N1268 Mn1261 2.257 . S
N1268 C1267 1.326 . S
N1268 C1272 1.362 . S
C1269 C1270 1.258 . S
C1269 C1272 1.431 . S
C1269 C1289 1.449 . S
C1270 C1269 1.258 . S
C1270 C1271 1.477 . S
C1270 H1290 0.949 . S
C1271 C1267 1.460 . S
C1271 C1270 1.477 . S
C1271 H1291 0.930 . S
C1272 N1268 1.362 . S
C1272 C1269 1.431 . S
C1272 C1282 1.476 . S
H1273 C1267 0.929 . S
C1274 O1265 1.250 . S
C1274 O1266 1.258 . S
O1275 Mn1260 2.162 . S
O1275 C1263 1.281 . S
O1276 Mn1260 2.297 . S
O1276 C1263 1.236 . S
N1277 Mn1261 2.282 . S
N1277 C1278 1.328 . S
N1277 C1282 1.318 . S
C1278 N1277 1.328 . S
C1278 C1279 1.457 . S
C1278 H1283 0.929 . S
C1279 C1278 1.457 . S
C1279 C1280 1.291 . S
C1279 H1292 0.931 . S
C1280 C1279 1.291 . S
C1280 C1281 1.373 . S
C1280 H1293 0.929 . S
C1281 C1280 1.373 . S
C1281 C1282 1.396 . S
C1281 C1288 1.403 . S
C1282 C1272 1.476 . S
C1282 N1277 1.318 . S
C1282 C1281 1.396 . S
H1283 C1278 0.929 . S
O1284 Mn1260 2.385 . S
O1284 C1262 1.234 . S
O1285 Mn1260 2.209 . S
O1285 Mn1261 2.215 . S
O1285 C1262 1.283 . S
O1286 Mn1260 2.094 . S
O1286 C1264 1.240 . S
O1287 Mn1261 2.117 . S
O1287 C1264 1.264 . S
C1288 C1281 1.403 . S
C1288 C1289 1.399 . S
C1288 H1294 0.929 1_565 S
C1289 C1269 1.449 . S
C1289 C1288 1.399 . S
C1289 H1295 0.930 1_565 S
H1290 C1270 0.949 . S
H1291 C1271 0.930 . S
H1292 C1279 0.931 . S
H1293 C1280 0.929 . S
H1294 C1288 0.929 1_545 S
H1295 C1289 0.930 1_545 S
H1296 C1302 0.930 . S
H1297 C1306 0.930 . S
H1298 C1311 0.929 . S
H1299 C1309 0.929 . S
H1300 C1304 0.929 . S
H1301 C1310 0.929 . S
C1302 H1296 0.930 . S
C1302 C1303 1.367 . S
C1302 C1310 1.378 . S
C1303 C1302 1.367 . S
C1303 C1311 1.433 . S
C1304 H1300 0.929 . S
C1304 C1306 1.378 . S
C1304 C1308 1.350 . S
C1305 C1308 1.463 . S
C1305 C1310 1.350 . S
C1305 N1313 1.427 . S
C1306 H1297 0.930 . S
C1306 C1304 1.378 . S
C1306 C1307 1.367 . S
C1307 C1306 1.367 . S
C1307 C1309 1.433 . S
C1308 C1304 1.350 . S
C1308 C1305 1.463 . S
C1308 N1312 1.427 . S
C1309 H1299 0.929 . S
C1309 C1307 1.433 . S
C1309 N1312 1.384 . S
C1310 H1301 0.929 . S
C1310 C1302 1.378 . S
C1310 C1305 1.350 . S
C1311 H1298 0.929 . S
C1311 C1303 1.433 . S
C1311 N1313 1.384 . S
N1312 C1308 1.427 . S
N1312 C1309 1.384 . S
N1313 C1305 1.427 . S
N1313 C1311 1.384 . S
H1314 C1320 0.930 . S
H1315 C1324 0.930 . S
H1316 C1329 0.929 . S
H1317 C1327 0.929 . S
H1318 C1322 0.929 . S
H1319 C1328 0.929 . S
C1320 H1314 0.930 . S
C1320 C1321 1.367 . S
C1320 C1328 1.378 . S
C1321 C1320 1.367 . S
C1321 C1329 1.433 . S
C1322 H1318 0.929 . S
C1322 C1324 1.378 . S
C1322 C1326 1.350 . S
C1323 C1326 1.463 1_545 S
C1323 C1328 1.350 . S
C1323 N1331 1.427 . S
C1324 H1315 0.930 . S
C1324 C1322 1.378 . S
C1324 C1325 1.367 . S
C1325 C1324 1.367 . S
C1325 C1327 1.433 . S
C1326 C1322 1.350 . S
C1326 C1323 1.463 1_565 S
C1326 N1330 1.427 . S
C1327 H1317 0.929 . S
C1327 C1325 1.433 . S
C1327 N1330 1.384 . S
C1328 H1319 0.929 . S
C1328 C1320 1.378 . S
C1328 C1323 1.350 . S
C1329 H1316 0.929 . S
C1329 C1321 1.433 . S
C1329 N1331 1.384 . S
N1330 C1326 1.427 . S
N1330 C1327 1.384 . S
N1331 C1323 1.427 . S
N1331 C1329 1.384 . S
H1332 C1338 0.930 . S
H1333 C1342 0.930 . S
H1334 C1347 0.929 . S
H1335 C1345 0.929 . S
H1336 C1340 0.929 . S
H1337 C1346 0.929 . S
C1338 H1332 0.930 . S
C1338 C1339 1.367 . S
C1338 C1346 1.378 . S
C1339 C1338 1.367 . S
C1339 C1347 1.433 . S
C1340 H1336 0.929 . S
C1340 C1342 1.378 . S
C1340 C1344 1.350 . S
C1341 C1344 1.463 1_655 S
C1341 C1346 1.350 . S
C1341 N1349 1.427 . S
C1342 H1333 0.930 . S
C1342 C1340 1.378 . S
C1342 C1343 1.367 . S
C1343 C1342 1.367 . S
C1343 C1345 1.433 . S
C1344 C1340 1.350 . S
C1344 C1341 1.463 1_455 S
C1344 N1348 1.427 . S
C1345 H1335 0.929 . S
C1345 C1343 1.433 . S
C1345 N1348 1.384 . S
C1346 H1337 0.929 . S
C1346 C1338 1.378 . S
C1346 C1341 1.350 . S
C1347 H1334 0.929 . S
C1347 C1339 1.433 . S
C1347 N1349 1.384 . S
N1348 C1344 1.427 . S
N1348 C1345 1.384 . S
N1349 C1341 1.427 . S
N1349 C1347 1.384 . S
H1350 C1356 0.930 . S
H1351 C1360 0.930 . S
H1352 C1365 0.929 . S
H1353 C1363 0.929 . S
H1354 C1358 0.929 . S
H1355 C1364 0.929 . S
C1356 H1350 0.930 . S
C1356 C1357 1.367 . S
C1356 C1364 1.378 . S
C1357 C1356 1.367 . S
C1357 C1365 1.433 . S
C1358 H1354 0.929 . S
C1358 C1360 1.378 . S
C1358 C1362 1.350 . S
C1359 C1362 1.463 . S
C1359 C1364 1.350 . S
C1359 N1367 1.427 . S
C1360 H1351 0.930 . S
C1360 C1358 1.378 . S
C1360 C1361 1.367 . S
C1361 C1360 1.367 . S
C1361 C1363 1.433 . S
C1362 C1358 1.350 . S
C1362 C1359 1.463 . S
C1362 N1366 1.427 . S
C1363 H1353 0.929 . S
C1363 C1361 1.433 . S
C1363 N1366 1.384 . S
C1364 H1355 0.929 . S
C1364 C1356 1.378 . S
C1364 C1359 1.350 . S
C1365 H1352 0.929 . S
C1365 C1357 1.433 . S
C1365 N1367 1.384 . S
N1366 C1362 1.427 . S
N1366 C1363 1.384 . S
N1367 C1359 1.427 . S
N1367 C1365 1.384 . S
H1368 C1374 0.930 . S
H1369 C1378 0.930 . S
H1370 C1383 0.929 . S
H1371 C1381 0.929 . S
H1372 C1376 0.929 . S
H1373 C1382 0.929 . S
C1374 H1368 0.930 . S
C1374 C1375 1.367 . S
C1374 C1382 1.378 . S
C1375 C1374 1.367 . S
C1375 C1383 1.433 . S
C1376 H1372 0.929 . S
C1376 C1378 1.378 . S
C1376 C1380 1.350 . S
C1377 C1380 1.463 1_545 S
C1377 C1382 1.350 . S
C1377 N1385 1.427 . S
C1378 H1369 0.930 . S
C1378 C1376 1.378 . S
C1378 C1379 1.367 . S
C1379 C1378 1.367 . S
C1379 C1381 1.433 . S
C1380 C1376 1.350 . S
C1380 C1377 1.463 1_565 S
C1380 N1384 1.427 . S
C1381 H1371 0.929 . S
C1381 C1379 1.433 . S
C1381 N1384 1.384 . S
C1382 H1373 0.929 . S
C1382 C1374 1.378 . S
C1382 C1377 1.350 . S
C1383 H1370 0.929 . S
C1383 C1375 1.433 . S
C1383 N1385 1.384 . S
N1384 C1380 1.427 . S
N1384 C1381 1.384 . S
N1385 C1377 1.427 . S
N1385 C1383 1.384 . S
H1386 C1392 0.930 . S
H1387 C1396 0.930 . S
H1388 C1401 0.929 . S
H1389 C1399 0.929 . S
H1390 C1394 0.929 . S
H1391 C1400 0.929 . S
C1392 H1386 0.930 . S
C1392 C1393 1.367 . S
C1392 C1400 1.378 . S
C1393 C1392 1.367 . S
C1393 C1401 1.433 . S
C1394 H1390 0.929 . S
C1394 C1396 1.378 . S
C1394 C1398 1.350 . S
C1395 C1398 1.463 1_455 S
C1395 C1400 1.350 . S
C1395 N1403 1.427 . S
C1396 H1387 0.930 . S
C1396 C1394 1.378 . S
C1396 C1397 1.367 . S
C1397 C1396 1.367 . S
C1397 C1399 1.433 . S
C1398 C1394 1.350 . S
C1398 C1395 1.463 1_655 S
C1398 N1402 1.427 . S
C1399 H1389 0.929 . S
C1399 C1397 1.433 . S
C1399 N1402 1.384 . S
C1400 H1391 0.929 . S
C1400 C1392 1.378 . S
C1400 C1395 1.350 . S
C1401 H1388 0.929 . S
C1401 C1393 1.433 . S
C1401 N1403 1.384 . S
N1402 C1398 1.427 . S
N1402 C1399 1.384 . S
N1403 C1395 1.427 . S
N1403 C1401 1.384 . S
H1404 C1410 0.930 . S
H1405 C1414 0.930 . S
H1406 C1419 0.929 . S
H1407 C1417 0.929 . S
H1408 C1412 0.929 . S
H1409 C1418 0.929 . S
C1410 H1404 0.930 . S
C1410 C1411 1.367 . S
C1410 C1418 1.378 . S
C1411 C1410 1.367 . S
C1411 C1419 1.433 . S
C1412 H1408 0.929 . S
C1412 C1414 1.378 . S
C1412 C1416 1.350 . S
C1413 C1416 1.463 . S
C1413 C1418 1.350 . S
C1413 N1421 1.427 . S
C1414 H1405 0.930 . S
C1414 C1412 1.378 . S
C1414 C1415 1.367 . S
C1415 C1414 1.367 . S
C1415 C1417 1.433 . S
C1416 C1412 1.350 . S
C1416 C1413 1.463 . S
C1416 N1420 1.427 . S
C1417 H1407 0.929 . S
C1417 C1415 1.433 . S
C1417 N1420 1.384 . S
C1418 H1409 0.929 . S
C1418 C1410 1.378 . S
C1418 C1413 1.350 . S
C1419 H1406 0.929 . S
C1419 C1411 1.433 . S
C1419 N1421 1.384 . S
N1420 C1416 1.427 . S
N1420 C1417 1.384 . S
N1421 C1413 1.427 . S
N1421 C1419 1.384 . S
H1422 C1428 0.930 . S
H1423 C1432 0.930 . S
H1424 C1437 0.929 . S
H1425 C1435 0.929 . S
H1426 C1430 0.929 . S
H1427 C1436 0.929 . S
C1428 H1422 0.930 . S
C1428 C1429 1.367 . S
C1428 C1436 1.378 . S
C1429 C1428 1.367 . S
C1429 C1437 1.433 . S
C1430 H1426 0.929 . S
C1430 C1432 1.378 . S
C1430 C1434 1.350 . S
C1431 C1434 1.463 . S
C1431 C1436 1.350 . S
C1431 N1439 1.427 . S
C1432 H1423 0.930 . S
C1432 C1430 1.378 . S
C1432 C1433 1.367 . S
C1433 C1432 1.367 . S
C1433 C1435 1.433 . S
C1434 C1430 1.350 . S
C1434 C1431 1.463 . S
C1434 N1438 1.427 . S
C1435 H1425 0.929 . S
C1435 C1433 1.433 . S
C1435 N1438 1.384 . S
C1436 H1427 0.929 . S
C1436 C1428 1.378 . S
C1436 C1431 1.350 . S
C1437 H1424 0.929 . S
C1437 C1429 1.433 . S
C1437 N1439 1.384 . S
N1438 C1434 1.427 . S
N1438 C1435 1.384 . S
N1439 C1431 1.427 . S
N1439 C1437 1.384 . S
H1440 C1446 0.930 . S
H1441 C1450 0.930 . S
H1442 C1455 0.929 . S
H1443 C1453 0.929 . S
H1444 C1448 0.929 . S
H1445 C1454 0.929 . S
C1446 H1440 0.930 . S
C1446 C1447 1.367 . S
C1446 C1454 1.378 . S
C1447 C1446 1.367 . S
C1447 C1455 1.433 . S
C1448 H1444 0.929 . S
C1448 C1450 1.378 . S
C1448 C1452 1.350 . S
C1449 C1452 1.463 . S
C1449 C1454 1.350 . S
C1449 N1457 1.427 . S
C1450 H1441 0.930 . S
C1450 C1448 1.378 . S
C1450 C1451 1.367 . S
C1451 C1450 1.367 . S
C1451 C1453 1.433 . S
C1452 C1448 1.350 . S
C1452 C1449 1.463 . S
C1452 N1456 1.427 . S
C1453 H1443 0.929 . S
C1453 C1451 1.433 . S
C1453 N1456 1.384 . S
C1454 H1445 0.929 . S
C1454 C1446 1.378 . S
C1454 C1449 1.350 . S
C1455 H1442 0.929 . S
C1455 C1447 1.433 . S
C1455 N1457 1.384 . S
N1456 C1452 1.427 . S
N1456 C1453 1.384 . S
N1457 C1449 1.427 . S
N1457 C1455 1.384 . S
H1458 C1464 0.930 . S
H1459 C1468 0.930 . S
H1460 C1473 0.929 . S
H1461 C1471 0.929 . S
H1462 C1466 0.929 . S
H1463 C1472 0.929 . S
C1464 H1458 0.930 . S
C1464 C1465 1.367 . S
C1464 C1472 1.378 . S
C1465 C1464 1.367 . S
C1465 C1473 1.433 . S
C1466 H1462 0.929 . S
C1466 C1468 1.378 . S
C1466 C1470 1.350 . S
C1467 C1470 1.463 . S
C1467 C1472 1.350 . S
C1467 N1475 1.427 . S
C1468 H1459 0.930 . S
C1468 C1466 1.378 . S
C1468 C1469 1.367 . S
C1469 C1468 1.367 . S
C1469 C1471 1.433 . S
C1470 C1466 1.350 . S
C1470 C1467 1.463 . S
C1470 N1474 1.427 . S
C1471 H1461 0.929 . S
C1471 C1469 1.433 . S
C1471 N1474 1.384 . S
C1472 H1463 0.929 . S
C1472 C1464 1.378 . S
C1472 C1467 1.350 . S
C1473 H1460 0.929 . S
C1473 C1465 1.433 . S
C1473 N1475 1.384 . S
N1474 C1470 1.427 . S
N1474 C1471 1.384 . S
N1475 C1467 1.427 . S
N1475 C1473 1.384 . S
H1476 C1482 0.930 1_556 S
H1477 C1486 0.930 . S
H1478 C1491 0.929 . S
H1479 C1489 0.929 . S
H1480 C1484 0.929 . S
H1481 C1490 0.929 . S
C1482 H1476 0.930 1_554 S
C1482 C1483 1.367 . S
C1482 C1490 1.378 . S
C1483 C1482 1.367 . S
C1483 C1491 1.433 . S
C1484 H1480 0.929 . S
C1484 C1486 1.378 . S
C1484 C1488 1.350 . S
C1485 C1488 1.463 . S
C1485 C1490 1.350 . S
C1485 N1493 1.427 . S
C1486 H1477 0.930 . S
C1486 C1484 1.378 . S
C1486 C1487 1.367 . S
C1487 C1486 1.367 . S
C1487 C1489 1.433 . S
C1488 C1484 1.350 . S
C1488 C1485 1.463 . S
C1488 N1492 1.427 . S
C1489 H1479 0.929 . S
C1489 C1487 1.433 . S
C1489 N1492 1.384 . S
C1490 H1481 0.929 . S
C1490 C1482 1.378 . S
C1490 C1485 1.350 . S
C1491 H1478 0.929 . S
C1491 C1483 1.433 . S
C1491 N1493 1.384 . S
N1492 C1488 1.427 . S
N1492 C1489 1.384 . S
N1493 C1485 1.427 . S
N1493 C1491 1.384 . S
H1494 C1500 0.930 . S
H1495 C1504 0.930 . S
H1496 C1509 0.929 . S
H1497 C1507 0.929 1_556 S
H1498 C1502 0.929 . S
H1499 C1508 0.929 . S
C1500 H1494 0.930 . S
C1500 C1501 1.367 . S
C1500 C1508 1.378 . S
C1501 C1500 1.367 . S
C1501 C1509 1.433 . S
C1502 H1498 0.929 . S
C1502 C1504 1.378 . S
C1502 C1506 1.350 . S
C1503 C1506 1.463 . S
C1503 C1508 1.350 . S
C1503 N1511 1.427 . S
C1504 H1495 0.930 . S
C1504 C1502 1.378 . S
C1504 C1505 1.367 . S
C1505 C1504 1.367 . S
C1505 C1507 1.433 . S
C1506 C1502 1.350 . S
C1506 C1503 1.463 . S
C1506 N1510 1.427 . S
C1507 H1497 0.929 1_554 S
C1507 C1505 1.433 . S
C1507 N1510 1.384 . S
C1508 H1499 0.929 . S
C1508 C1500 1.378 . S
C1508 C1503 1.350 . S
C1509 H1496 0.929 . S
C1509 C1501 1.433 . S
C1509 N1511 1.384 . S
N1510 C1506 1.427 . S
N1510 C1507 1.384 . S
N1511 C1503 1.427 . S
N1511 C1509 1.384 . S
H1512 C1518 0.930 . S
H1513 C1522 0.930 1_554 S
H1514 C1527 0.929 . S
H1515 C1525 0.929 . S
H1516 C1520 0.929 . S
H1517 C1526 0.929 . S
C1518 H1512 0.930 . S
C1518 C1519 1.367 . S
C1518 C1526 1.378 . S
C1519 C1518 1.367 . S
C1519 C1527 1.433 . S
C1520 H1516 0.929 . S
C1520 C1522 1.378 . S
C1520 C1524 1.350 . S
C1521 C1524 1.463 . S
C1521 C1526 1.350 . S
C1521 N1529 1.427 . S
C1522 H1513 0.930 1_556 S
C1522 C1520 1.378 . S
C1522 C1523 1.367 . S
C1523 C1522 1.367 . S
C1523 C1525 1.433 . S
C1524 C1520 1.350 . S
C1524 C1521 1.463 . S
C1524 N1528 1.427 . S
C1525 H1515 0.929 . S
C1525 C1523 1.433 . S
C1525 N1528 1.384 . S
C1526 H1517 0.929 . S
C1526 C1518 1.378 . S
C1526 C1521 1.350 . S
C1527 H1514 0.929 . S
C1527 C1519 1.433 . S
C1527 N1529 1.384 . S
N1528 C1524 1.427 . S
N1528 C1525 1.384 . S
N1529 C1521 1.427 . S
N1529 C1527 1.384 . S
H1530 C1536 0.930 . S
H1531 C1540 0.930 . S
H1532 C1545 0.929 . S
H1533 C1543 0.929 1_554 S
H1534 C1538 0.929 . S
H1535 C1544 0.929 . S
C1536 H1530 0.930 . S
C1536 C1537 1.367 . S
C1536 C1544 1.378 . S
C1537 C1536 1.367 . S
C1537 C1545 1.433 . S
C1538 H1534 0.929 . S
C1538 C1540 1.378 . S
C1538 C1542 1.350 . S
C1539 C1542 1.463 . S
C1539 C1544 1.350 . S
C1539 N1547 1.427 . S
C1540 H1531 0.930 . S
C1540 C1538 1.378 . S
C1540 C1541 1.367 . S
C1541 C1540 1.367 . S
C1541 C1543 1.433 . S
C1542 C1538 1.350 . S
C1542 C1539 1.463 . S
C1542 N1546 1.427 . S
C1543 H1533 0.929 1_556 S
C1543 C1541 1.433 . S
C1543 N1546 1.384 . S
C1544 H1535 0.929 . S
C1544 C1536 1.378 . S
C1544 C1539 1.350 . S
C1545 H1532 0.929 . S
C1545 C1537 1.433 . S
C1545 N1547 1.384 . S
N1546 C1542 1.427 . S
N1546 C1543 1.384 . S
N1547 C1539 1.427 . S
N1547 C1545 1.384 . S
H1548 C1554 0.930 1_554 S
H1549 C1558 0.930 . S
H1550 C1563 0.929 . S
H1551 C1561 0.929 . S
H1552 C1556 0.929 . S
H1553 C1562 0.929 . S
C1554 H1548 0.930 1_556 S
C1554 C1555 1.367 . S
C1554 C1562 1.378 . S
C1555 C1554 1.367 . S
C1555 C1563 1.433 . S
C1556 H1552 0.929 . S
C1556 C1558 1.378 . S
C1556 C1560 1.350 . S
C1557 C1560 1.463 . S
C1557 C1562 1.350 . S
C1557 N1565 1.427 . S
C1558 H1549 0.930 . S
C1558 C1556 1.378 . S
C1558 C1559 1.367 . S
C1559 C1558 1.367 . S
C1559 C1561 1.433 . S
C1560 C1556 1.350 . S
C1560 C1557 1.463 . S
C1560 N1564 1.427 . S
C1561 H1551 0.929 . S
C1561 C1559 1.433 . S
C1561 N1564 1.384 . S
C1562 H1553 0.929 . S
C1562 C1554 1.378 . S
C1562 C1557 1.350 . S
C1563 H1550 0.929 . S
C1563 C1555 1.433 . S
C1563 N1565 1.384 . S
N1564 C1560 1.427 . S
N1564 C1561 1.384 . S
N1565 C1557 1.427 . S
N1565 C1563 1.384 . S
H1566 C1572 0.930 . S
H1567 C1576 0.930 . S
H1568 C1581 0.929 . S
H1569 C1579 0.929 . S
H1570 C1574 0.929 . S
H1571 C1580 0.929 . S
C1572 H1566 0.930 . S
C1572 C1573 1.367 . S
C1572 C1580 1.378 . S
C1573 C1572 1.367 . S
C1573 C1581 1.433 . S
C1574 H1570 0.929 . S
C1574 C1576 1.378 . S
C1574 C1578 1.350 . S
C1575 C1578 1.463 . S
C1575 C1580 1.350 . S
C1575 N1583 1.427 . S
C1576 H1567 0.930 . S
C1576 C1574 1.378 . S
C1576 C1577 1.367 . S
C1577 C1576 1.367 . S
C1577 C1579 1.433 . S
C1578 C1574 1.350 . S
C1578 C1575 1.463 . S
C1578 N1582 1.427 . S
C1579 H1569 0.929 . S
C1579 C1577 1.433 . S
C1579 N1582 1.384 . S
C1580 H1571 0.929 . S
C1580 C1572 1.378 . S
C1580 C1575 1.350 . S
C1581 H1568 0.929 . S
C1581 C1573 1.433 . S
C1581 N1583 1.384 . S
N1582 C1578 1.427 . S
N1582 C1579 1.384 . S
N1583 C1575 1.427 . S
N1583 C1581 1.384 . S
H1584 C1590 0.930 . S
H1585 C1594 0.930 . S
H1586 C1599 0.929 . S
H1587 C1597 0.929 . S
H1588 C1592 0.929 . S
H1589 C1598 0.929 . S
C1590 H1584 0.930 . S
C1590 C1591 1.367 . S
C1590 C1598 1.378 . S
C1591 C1590 1.367 . S
C1591 C1599 1.433 . S
C1592 H1588 0.929 . S
C1592 C1594 1.378 . S
C1592 C1596 1.350 . S
C1593 C1596 1.463 . S
C1593 C1598 1.350 . S
C1593 N1601 1.427 . S
C1594 H1585 0.930 . S
C1594 C1592 1.378 . S
C1594 C1595 1.367 . S
C1595 C1594 1.367 . S
C1595 C1597 1.433 . S
C1596 C1592 1.350 . S
C1596 C1593 1.463 . S
C1596 N1600 1.427 . S
C1597 H1587 0.929 . S
C1597 C1595 1.433 . S
C1597 N1600 1.384 . S
C1598 H1589 0.929 . S
C1598 C1590 1.378 . S
C1598 C1593 1.350 . S
C1599 H1586 0.929 . S
C1599 C1591 1.433 . S
C1599 N1601 1.384 . S
N1600 C1596 1.427 . S
N1600 C1597 1.384 . S
N1601 C1593 1.427 . S
N1601 C1599 1.384 . S
H1602 C1608 0.930 . S
H1603 C1612 0.930 . S
H1604 C1617 0.929 . S
H1605 C1615 0.929 . S
H1606 C1610 0.929 . S
H1607 C1616 0.929 . S
C1608 H1602 0.930 . S
C1608 C1609 1.367 . S
C1608 C1616 1.378 . S
C1609 C1608 1.367 . S
C1609 C1617 1.433 . S
C1610 H1606 0.929 . S
C1610 C1612 1.378 . S
C1610 C1614 1.350 . S
C1611 C1614 1.463 . S
C1611 C1616 1.350 . S
C1611 N1619 1.427 . S
C1612 H1603 0.930 . S
C1612 C1610 1.378 . S
C1612 C1613 1.367 . S
C1613 C1612 1.367 . S
C1613 C1615 1.433 . S
C1614 C1610 1.350 . S
C1614 C1611 1.463 . S
C1614 N1618 1.427 . S
C1615 H1605 0.929 . S
C1615 C1613 1.433 . S
C1615 N1618 1.384 . S
C1616 H1607 0.929 . S
C1616 C1608 1.378 . S
C1616 C1611 1.350 . S
C1617 H1604 0.929 . S
C1617 C1609 1.433 . S
C1617 N1619 1.384 . S
N1618 C1614 1.427 . S
N1618 C1615 1.384 . S
N1619 C1611 1.427 . S
N1619 C1617 1.384 . S
H1620 C1626 0.930 . S
H1621 C1630 0.930 . S
H1622 C1635 0.929 . S
H1623 C1633 0.929 . S
H1624 C1628 0.929 . S
H1625 C1634 0.929 . S
C1626 H1620 0.930 . S
C1626 C1627 1.367 . S
C1626 C1634 1.378 . S
C1627 C1626 1.367 . S
C1627 C1635 1.433 . S
C1628 H1624 0.929 . S
C1628 C1630 1.378 . S
C1628 C1632 1.350 . S
C1629 C1632 1.463 . S
C1629 C1634 1.350 . S
C1629 N1637 1.427 . S
C1630 H1621 0.930 . S
C1630 C1628 1.378 . S
C1630 C1631 1.367 1_556 S
C1631 C1630 1.367 1_554 S
C1631 C1633 1.433 . S
C1632 C1628 1.350 . S
C1632 C1629 1.463 . S
C1632 N1636 1.427 . S
C1633 H1623 0.929 . S
C1633 C1631 1.433 . S
C1633 N1636 1.384 1_554 S
C1634 H1625 0.929 . S
C1634 C1626 1.378 . S
C1634 C1629 1.350 . S
C1635 H1622 0.929 . S
C1635 C1627 1.433 . S
C1635 N1637 1.384 . S
N1636 C1632 1.427 . S
N1636 C1633 1.384 1_556 S
N1637 C1629 1.427 . S
N1637 C1635 1.384 . S
H1638 C1644 0.930 1_554 S
H1639 C1648 0.930 . S
H1640 C1653 0.929 . S
H1641 C1651 0.929 . S
H1642 C1646 0.929 . S
H1643 C1652 0.929 . S
C1644 H1638 0.930 1_556 S
C1644 C1645 1.367 1_556 S
C1644 C1652 1.378 . S
C1645 C1644 1.367 1_554 S
C1645 C1653 1.433 1_554 S
C1646 H1642 0.929 . S
C1646 C1648 1.378 . S
C1646 C1650 1.350 . S
C1647 C1650 1.463 . S
C1647 C1652 1.350 . S
C1647 N1655 1.427 . S
C1648 H1639 0.930 . S
C1648 C1646 1.378 . S
C1648 C1649 1.367 . S
C1649 C1648 1.367 . S
C1649 C1651 1.433 . S
C1650 C1646 1.350 . S
C1650 C1647 1.463 . S
C1650 N1654 1.427 . S
C1651 H1641 0.929 . S
C1651 C1649 1.433 . S
C1651 N1654 1.384 . S
C1652 H1643 0.929 . S
C1652 C1644 1.378 . S
C1652 C1647 1.350 . S
C1653 H1640 0.929 . S
C1653 C1645 1.433 1_556 S
C1653 N1655 1.384 . S
N1654 C1650 1.427 . S
N1654 C1651 1.384 . S
N1655 C1647 1.427 . S
N1655 C1653 1.384 . S
H1656 C1662 0.930 . S
H1657 C1666 0.930 . S
H1658 C1671 0.929 . S
H1659 C1669 0.929 . S
H1660 C1664 0.929 . S
H1661 C1670 0.929 . S
C1662 H1656 0.930 . S
C1662 C1663 1.367 1_556 S
C1662 C1670 1.378 . S
C1663 C1662 1.367 1_554 S
C1663 C1671 1.433 . S
C1664 H1660 0.929 . S
C1664 C1666 1.378 . S
C1664 C1668 1.350 . S
C1665 C1668 1.463 . S
C1665 C1670 1.350 . S
C1665 N1673 1.427 . S
C1666 H1657 0.930 . S
C1666 C1664 1.378 . S
C1666 C1667 1.367 . S
C1667 C1666 1.367 . S
C1667 C1669 1.433 . S
C1668 C1664 1.350 . S
C1668 C1665 1.463 . S
C1668 N1672 1.427 . S
C1669 H1659 0.929 . S
C1669 C1667 1.433 . S
C1669 N1672 1.384 . S
C1670 H1661 0.929 . S
C1670 C1662 1.378 . S
C1670 C1665 1.350 . S
C1671 H1658 0.929 . S
C1671 C1663 1.433 . S
C1671 N1673 1.384 1_554 S
N1672 C1668 1.427 . S
N1672 C1669 1.384 . S
N1673 C1665 1.427 . S
N1673 C1671 1.384 1_556 S
H1674 C1680 0.930 . S
H1675 C1684 0.930 . S
H1676 C1689 0.929 . S
H1677 C1687 0.929 . S
H1678 C1682 0.929 . S
H1679 C1688 0.929 . S
C1680 H1674 0.930 . S
C1680 C1681 1.367 . S
C1680 C1688 1.378 . S
C1681 C1680 1.367 . S
C1681 C1689 1.433 . S
C1682 H1678 0.929 . S
C1682 C1684 1.378 . S
C1682 C1686 1.350 . S
C1683 C1686 1.463 . S
C1683 C1688 1.350 . S
C1683 N1691 1.427 . S
C1684 H1675 0.930 . S
C1684 C1682 1.378 . S
C1684 C1685 1.367 . S
C1685 C1684 1.367 . S
C1685 C1687 1.433 . S
C1686 C1682 1.350 . S
C1686 C1683 1.463 . S
C1686 N1690 1.427 . S
C1687 H1677 0.929 . S
C1687 C1685 1.433 . S
C1687 N1690 1.384 . S
C1688 H1679 0.929 . S
C1688 C1680 1.378 . S
C1688 C1683 1.350 . S
C1689 H1676 0.929 . S
C1689 C1681 1.433 . S
C1689 N1691 1.384 . S
N1690 C1686 1.427 . S
N1690 C1687 1.384 . S
N1691 C1683 1.427 . S
N1691 C1689 1.384 . S
H1692 C1698 0.930 . S
H1693 C1702 0.930 . S
H1694 C1707 0.929 . S
H1695 C1705 0.929 . S
H1696 C1700 0.929 . S
H1697 C1706 0.929 . S
C1698 H1692 0.930 . S
C1698 C1699 1.367 . S
C1698 C1706 1.378 . S
C1699 C1698 1.367 . S
C1699 C1707 1.433 . S
C1700 H1696 0.929 . S
C1700 C1702 1.378 . S
C1700 C1704 1.350 . S
C1701 C1704 1.463 . S
C1701 C1706 1.350 . S
C1701 N1709 1.427 . S
C1702 H1693 0.930 . S
C1702 C1700 1.378 . S
C1702 C1703 1.367 . S
C1703 C1702 1.367 . S
C1703 C1705 1.433 . S
C1704 C1700 1.350 . S
C1704 C1701 1.463 . S
C1704 N1708 1.427 . S
C1705 H1695 0.929 . S
C1705 C1703 1.433 . S
C1705 N1708 1.384 . S
C1706 H1697 0.929 . S
C1706 C1698 1.378 . S
C1706 C1701 1.350 . S
C1707 H1694 0.929 . S
C1707 C1699 1.433 . S
C1707 N1709 1.384 . S
N1708 C1704 1.427 . S
N1708 C1705 1.384 . S
N1709 C1701 1.427 . S
N1709 C1707 1.384 . S
H1710 C1716 0.930 . S
H1711 C1720 0.930 . S
H1712 C1725 0.929 . S
H1713 C1723 0.929 . S
H1714 C1718 0.929 . S
H1715 C1724 0.929 . S
C1716 H1710 0.930 . S
C1716 C1717 1.367 . S
C1716 C1724 1.378 . S
C1717 C1716 1.367 . S
C1717 C1725 1.433 . S
C1718 H1714 0.929 . S
C1718 C1720 1.378 . S
C1718 C1722 1.350 . S
C1719 C1722 1.463 . S
C1719 C1724 1.350 . S
C1719 N1727 1.427 . S
C1720 H1711 0.930 . S
C1720 C1718 1.378 . S
C1720 C1721 1.367 . S
C1721 C1720 1.367 . S
C1721 C1723 1.433 . S
C1722 C1718 1.350 . S
C1722 C1719 1.463 . S
C1722 N1726 1.427 . S
C1723 H1713 0.929 . S
C1723 C1721 1.433 . S
C1723 N1726 1.384 . S
C1724 H1715 0.929 . S
C1724 C1716 1.378 . S
C1724 C1719 1.350 . S
C1725 H1712 0.929 . S
C1725 C1717 1.433 . S
C1725 N1727 1.384 . S
N1726 C1722 1.427 . S
N1726 C1723 1.384 . S
N1727 C1719 1.427 . S
N1727 C1725 1.384 . S
H1728 C1734 0.930 . S
H1729 C1738 0.930 . S
H1730 C1743 0.929 . S
H1731 C1741 0.929 . S
H1732 C1736 0.929 . S
H1733 C1742 0.929 . S
C1734 H1728 0.930 . S
C1734 C1735 1.367 . S
C1734 C1742 1.378 1_556 S
C1735 C1734 1.367 . S
C1735 C1743 1.433 1_556 S
C1736 H1732 0.929 . S
C1736 C1738 1.378 . S
C1736 C1740 1.350 . S
C1737 C1740 1.463 . S
C1737 C1742 1.350 . S
C1737 N1745 1.427 . S
C1738 H1729 0.930 . S
C1738 C1736 1.378 . S
C1738 C1739 1.367 . S
C1739 C1738 1.367 . S
C1739 C1741 1.433 . S
C1740 C1736 1.350 . S
C1740 C1737 1.463 . S
C1740 N1744 1.427 . S
C1741 H1731 0.929 . S
C1741 C1739 1.433 . S
C1741 N1744 1.384 . S
C1742 H1733 0.929 . S
C1742 C1734 1.378 1_554 S
C1742 C1737 1.350 . S
C1743 H1730 0.929 . S
C1743 C1735 1.433 1_554 S
C1743 N1745 1.384 . S
N1744 C1740 1.427 . S
N1744 C1741 1.384 . S
N1745 C1737 1.427 . S
N1745 C1743 1.384 . S
H1746 C1752 0.930 . S
H1747 C1756 0.930 . S
H1748 C1761 0.929 . S
H1749 C1759 0.929 . S
H1750 C1754 0.929 . S
H1751 C1760 0.929 . S
C1752 H1746 0.930 . S
C1752 C1753 1.367 1_554 S
C1752 C1760 1.378 . S
C1753 C1752 1.367 1_556 S
C1753 C1761 1.433 . S
C1754 H1750 0.929 . S
C1754 C1756 1.378 . S
C1754 C1758 1.350 . S
C1755 C1758 1.463 . S
C1755 C1760 1.350 . S
C1755 N1763 1.427 . S
C1756 H1747 0.930 . S
C1756 C1754 1.378 . S
C1756 C1757 1.367 . S
C1757 C1756 1.367 . S
C1757 C1759 1.433 . S
C1758 C1754 1.350 . S
C1758 C1755 1.463 . S
C1758 N1762 1.427 . S
C1759 H1749 0.929 . S
C1759 C1757 1.433 . S
C1759 N1762 1.384 . S
C1760 H1751 0.929 . S
C1760 C1752 1.378 . S
C1760 C1755 1.350 . S
C1761 H1748 0.929 . S
C1761 C1753 1.433 . S
C1761 N1763 1.384 1_556 S
N1762 C1758 1.427 . S
N1762 C1759 1.384 . S
N1763 C1755 1.427 . S
N1763 C1761 1.384 1_554 S
H1764 C1770 0.930 . S
H1765 C1774 0.930 . S
H1766 C1779 0.929 . S
H1767 C1777 0.929 . S
H1768 C1772 0.929 . S
H1769 C1778 0.929 . S
C1770 H1764 0.930 . S
C1770 C1771 1.367 . S
C1770 C1778 1.378 . S
C1771 C1770 1.367 . S
C1771 C1779 1.433 . S
C1772 H1768 0.929 . S
C1772 C1774 1.378 . S
C1772 C1776 1.350 . S
C1773 C1776 1.463 . S
C1773 C1778 1.350 . S
C1773 N1781 1.427 . S
C1774 H1765 0.930 . S
C1774 C1772 1.378 . S
C1774 C1775 1.367 1_554 S
C1775 C1774 1.367 1_556 S
C1775 C1777 1.433 . S
C1776 C1772 1.350 . S
C1776 C1773 1.463 . S
C1776 N1780 1.427 . S
C1777 H1767 0.929 . S
C1777 C1775 1.433 . S
C1777 N1780 1.384 1_556 S
C1778 H1769 0.929 . S
C1778 C1770 1.378 . S
C1778 C1773 1.350 . S
C1779 H1766 0.929 . S
C1779 C1771 1.433 . S
C1779 N1781 1.384 . S
N1780 C1776 1.427 . S
N1780 C1777 1.384 1_554 S
N1781 C1773 1.427 . S
N1781 C1779 1.384 . S
H1782 C1788 0.930 . S
H1783 C1792 0.930 . S
H1784 C1797 0.929 . S
H1785 C1795 0.929 . S
H1786 C1790 0.929 . S
H1787 C1796 0.929 . S
C1788 H1782 0.930 . S
C1788 C1789 1.367 . S
C1788 C1796 1.378 . S
C1789 C1788 1.367 . S
C1789 C1797 1.433 . S
C1790 H1786 0.929 . S
C1790 C1792 1.378 . S
C1790 C1794 1.350 . S
C1791 C1794 1.463 . S
C1791 C1796 1.350 . S
C1791 N1799 1.427 . S
C1792 H1783 0.930 . S
C1792 C1790 1.378 . S
C1792 C1793 1.367 . S
C1793 C1792 1.367 . S
C1793 C1795 1.433 . S
C1794 C1790 1.350 . S
C1794 C1791 1.463 . S
C1794 N1798 1.427 . S
C1795 H1785 0.929 . S
C1795 C1793 1.433 . S
C1795 N1798 1.384 . S
C1796 H1787 0.929 . S
C1796 C1788 1.378 . S
C1796 C1791 1.350 . S
C1797 H1784 0.929 . S
C1797 C1789 1.433 . S
C1797 N1799 1.384 . S
N1798 C1794 1.427 . S
N1798 C1795 1.384 . S
N1799 C1791 1.427 . S
N1799 C1797 1.384 . S
H1800 C1806 0.930 . S
H1801 C1810 0.930 . S
H1802 C1815 0.929 . S
H1803 C1813 0.929 . S
H1804 C1808 0.929 . S
H1805 C1814 0.929 . S
C1806 H1800 0.930 . S
C1806 C1807 1.367 . S
C1806 C1814 1.378 . S
C1807 C1806 1.367 . S
C1807 C1815 1.433 . S
C1808 H1804 0.929 . S
C1808 C1810 1.378 . S
C1808 C1812 1.350 . S
C1809 C1812 1.463 . S
C1809 C1814 1.350 . S
C1809 N1817 1.427 . S
C1810 H1801 0.930 . S
C1810 C1808 1.378 . S
C1810 C1811 1.367 . S
C1811 C1810 1.367 . S
C1811 C1813 1.433 . S
C1812 C1808 1.350 . S
C1812 C1809 1.463 . S
C1812 N1816 1.427 . S
C1813 H1803 0.929 . S
C1813 C1811 1.433 . S
C1813 N1816 1.384 . S
C1814 H1805 0.929 . S
C1814 C1806 1.378 . S
C1814 C1809 1.350 . S
C1815 H1802 0.929 . S
C1815 C1807 1.433 . S
C1815 N1817 1.384 . S
N1816 C1812 1.427 . S
N1816 C1813 1.384 . S
N1817 C1809 1.427 . S
N1817 C1815 1.384 . S
H1818 C1824 0.930 . S
H1819 C1828 0.930 . S
H1820 C1833 0.929 . S
H1821 C1831 0.929 . S
H1822 C1826 0.929 . S
H1823 C1832 0.929 . S
C1824 H1818 0.930 . S
C1824 C1825 1.367 . S
C1824 C1832 1.378 . S
C1825 C1824 1.367 . S
C1825 C1833 1.433 . S
C1826 H1822 0.929 . S
C1826 C1828 1.378 . S
C1826 C1830 1.350 . S
C1827 C1830 1.463 . S
C1827 C1832 1.350 . S
C1827 N1835 1.427 . S
C1828 H1819 0.930 . S
C1828 C1826 1.378 . S
C1828 C1829 1.367 . S
C1829 C1828 1.367 . S
C1829 C1831 1.433 . S
C1830 C1826 1.350 . S
C1830 C1827 1.463 . S
C1830 N1834 1.427 . S
C1831 H1821 0.929 . S
C1831 C1829 1.433 . S
C1831 N1834 1.384 . S
C1832 H1823 0.929 . S
C1832 C1824 1.378 . S
C1832 C1827 1.350 . S
C1833 H1820 0.929 . S
C1833 C1825 1.433 . S
C1833 N1835 1.384 . S
N1834 C1830 1.427 . S
N1834 C1831 1.384 . S
N1835 C1827 1.427 . S
N1835 C1833 1.384 . S
H1836 C1842 0.930 . S
H1837 C1846 0.930 . S
H1838 C1851 0.929 . S
H1839 C1849 0.929 . S
H1840 C1844 0.929 . S
H1841 C1850 0.929 . S
C1842 H1836 0.930 . S
C1842 C1843 1.367 . S
C1842 C1850 1.378 . S
C1843 C1842 1.367 . S
C1843 C1851 1.433 . S
C1844 H1840 0.929 . S
C1844 C1846 1.378 . S
C1844 C1848 1.350 . S
C1845 C1848 1.463 . S
C1845 C1850 1.350 . S
C1845 N1853 1.427 . S
C1846 H1837 0.930 . S
C1846 C1844 1.378 . S
C1846 C1847 1.367 . S
C1847 C1846 1.367 . S
C1847 C1849 1.433 . S
C1848 C1844 1.350 . S
C1848 C1845 1.463 . S
C1848 N1852 1.427 . S
C1849 H1839 0.929 . S
C1849 C1847 1.433 . S
C1849 N1852 1.384 . S
C1850 H1841 0.929 . S
C1850 C1842 1.378 . S
C1850 C1845 1.350 . S
C1851 H1838 0.929 . S
C1851 C1843 1.433 . S
C1851 N1853 1.384 . S
N1852 C1848 1.427 . S
N1852 C1849 1.384 . S
N1853 C1845 1.427 . S
N1853 C1851 1.384 . S
H1854 C1860 0.930 . S
H1855 C1864 0.930 . S
H1856 C1869 0.929 . S
H1857 C1867 0.929 . S
H1858 C1862 0.929 . S
H1859 C1868 0.929 . S
C1860 H1854 0.930 . S
C1860 C1861 1.367 . S
C1860 C1868 1.378 . S
C1861 C1860 1.367 . S
C1861 C1869 1.433 . S
C1862 H1858 0.929 . S
C1862 C1864 1.378 . S
C1862 C1866 1.350 . S
C1863 C1866 1.463 . S
C1863 C1868 1.350 . S
C1863 N1871 1.427 . S
C1864 H1855 0.930 . S
C1864 C1862 1.378 . S
C1864 C1865 1.367 . S
C1865 C1864 1.367 . S
C1865 C1867 1.433 . S
C1866 C1862 1.350 . S
C1866 C1863 1.463 . S
C1866 N1870 1.427 . S
C1867 H1857 0.929 . S
C1867 C1865 1.433 . S
C1867 N1870 1.384 . S
C1868 H1859 0.929 . S
C1868 C1860 1.378 . S
C1868 C1863 1.350 . S
C1869 H1856 0.929 . S
C1869 C1861 1.433 . S
C1869 N1871 1.384 . S
N1870 C1866 1.427 . S
N1870 C1867 1.384 . S
N1871 C1863 1.427 . S
N1871 C1869 1.384 . S
H1872 C1878 0.930 . S
H1873 C1882 0.930 . S
H1874 C1887 0.929 . S
H1875 C1885 0.929 . S
H1876 C1880 0.929 . S
H1877 C1886 0.929 . S
C1878 H1872 0.930 . S
C1878 C1879 1.367 . S
C1878 C1886 1.378 . S
C1879 C1878 1.367 . S
C1879 C1887 1.433 . S
C1880 H1876 0.929 . S
C1880 C1882 1.378 . S
C1880 C1884 1.350 . S
C1881 C1884 1.463 . S
C1881 C1886 1.350 . S
C1881 N1889 1.427 . S
C1882 H1873 0.930 . S
C1882 C1880 1.378 . S
C1882 C1883 1.367 . S
C1883 C1882 1.367 . S
C1883 C1885 1.433 . S
C1884 C1880 1.350 . S
C1884 C1881 1.463 . S
C1884 N1888 1.427 . S
C1885 H1875 0.929 . S
C1885 C1883 1.433 . S
C1885 N1888 1.384 . S
C1886 H1877 0.929 . S
C1886 C1878 1.378 . S
C1886 C1881 1.350 . S
C1887 H1874 0.929 . S
C1887 C1879 1.433 . S
C1887 N1889 1.384 . S
N1888 C1884 1.427 . S
N1888 C1885 1.384 . S
N1889 C1881 1.427 . S
N1889 C1887 1.384 . S
H1890 C1896 0.930 . S
H1891 C1900 0.930 . S
H1892 C1905 0.929 . S
H1893 C1903 0.929 . S
H1894 C1898 0.929 . S
H1895 C1904 0.929 . S
C1896 H1890 0.930 . S
C1896 C1897 1.367 . S
C1896 C1904 1.378 . S
C1897 C1896 1.367 . S
C1897 C1905 1.433 . S
C1898 H1894 0.929 . S
C1898 C1900 1.378 1_556 S
C1898 C1902 1.350 . S
C1899 C1902 1.463 . S
C1899 C1904 1.350 . S
C1899 N1907 1.427 . S
C1900 H1891 0.930 . S
C1900 C1898 1.378 1_554 S
C1900 C1901 1.367 . S
C1901 C1900 1.367 . S
C1901 C1903 1.433 . S
C1902 C1898 1.350 . S
C1902 C1899 1.463 . S
C1902 N1906 1.427 1_556 S
C1903 H1893 0.929 . S
C1903 C1901 1.433 . S
C1903 N1906 1.384 . S
C1904 H1895 0.929 . S
C1904 C1896 1.378 . S
C1904 C1899 1.350 . S
C1905 H1892 0.929 . S
C1905 C1897 1.433 . S
C1905 N1907 1.384 . S
N1906 C1902 1.427 1_554 S
N1906 C1903 1.384 . S
N1907 C1899 1.427 . S
N1907 C1905 1.384 . S
H1908 C1914 0.930 . S
H1909 C1918 0.930 . S
H1910 C1923 0.929 . S
H1911 C1921 0.929 . S
H1912 C1916 0.929 . S
H1913 C1922 0.929 . S
C1914 H1908 0.930 . S
C1914 C1915 1.367 . S
C1914 C1922 1.378 1_554 S
C1915 C1914 1.367 . S
C1915 C1923 1.433 . S
C1916 H1912 0.929 . S
C1916 C1918 1.378 . S
C1916 C1920 1.350 . S
C1917 C1920 1.463 . S
C1917 C1922 1.350 . S
C1917 N1925 1.427 . S
C1918 H1909 0.930 . S
C1918 C1916 1.378 . S
C1918 C1919 1.367 . S
C1919 C1918 1.367 . S
C1919 C1921 1.433 . S
C1920 C1916 1.350 . S
C1920 C1917 1.463 . S
C1920 N1924 1.427 . S
C1921 H1911 0.929 . S
C1921 C1919 1.433 . S
C1921 N1924 1.384 . S
C1922 H1913 0.929 . S
C1922 C1914 1.378 1_556 S
C1922 C1917 1.350 . S
C1923 H1910 0.929 . S
C1923 C1915 1.433 . S
C1923 N1925 1.384 1_554 S
N1924 C1920 1.427 . S
N1924 C1921 1.384 . S
N1925 C1917 1.427 . S
N1925 C1923 1.384 1_556 S
H1926 C1932 0.930 . S
H1927 C1936 0.930 . S
H1928 C1941 0.929 . S
H1929 C1939 0.929 . S
H1930 C1934 0.929 . S
H1931 C1940 0.929 . S
C1932 H1926 0.930 . S
C1932 C1933 1.367 . S
C1932 C1940 1.378 . S
C1933 C1932 1.367 . S
C1933 C1941 1.433 . S
C1934 H1930 0.929 . S
C1934 C1936 1.378 1_556 S
C1934 C1938 1.350 . S
C1935 C1938 1.463 . S
C1935 C1940 1.350 . S
C1935 N1943 1.427 . S
C1936 H1927 0.930 . S
C1936 C1934 1.378 1_554 S
C1936 C1937 1.367 . S
C1937 C1936 1.367 . S
C1937 C1939 1.433 . S
C1938 C1934 1.350 . S
C1938 C1935 1.463 . S
C1938 N1942 1.427 . S
C1939 H1929 0.929 . S
C1939 C1937 1.433 . S
C1939 N1942 1.384 1_554 S
C1940 H1931 0.929 . S
C1940 C1932 1.378 . S
C1940 C1935 1.350 . S
C1941 H1928 0.929 . S
C1941 C1933 1.433 . S
C1941 N1943 1.384 . S
N1942 C1938 1.427 . S
N1942 C1939 1.384 1_556 S
N1943 C1935 1.427 . S
N1943 C1941 1.384 . S
H1944 C1950 0.930 . S
H1945 C1954 0.930 . S
H1946 C1959 0.929 . S
H1947 C1957 0.929 . S
H1948 C1952 0.929 . S
H1949 C1958 0.929 . S
C1950 H1944 0.930 . S
C1950 C1951 1.367 . S
C1950 C1958 1.378 . S
C1951 C1950 1.367 . S
C1951 C1959 1.433 . S
C1952 H1948 0.929 . S
C1952 C1954 1.378 . S
C1952 C1956 1.350 . S
C1953 C1956 1.463 . S
C1953 C1958 1.350 . S
C1953 N1961 1.427 . S
C1954 H1945 0.930 . S
C1954 C1952 1.378 . S
C1954 C1955 1.367 . S
C1955 C1954 1.367 . S
C1955 C1957 1.433 . S
C1956 C1952 1.350 . S
C1956 C1953 1.463 . S
C1956 N1960 1.427 . S
C1957 H1947 0.929 . S
C1957 C1955 1.433 . S
C1957 N1960 1.384 . S
C1958 H1949 0.929 . S
C1958 C1950 1.378 . S
C1958 C1953 1.350 . S
C1959 H1946 0.929 . S
C1959 C1951 1.433 . S
C1959 N1961 1.384 . S
N1960 C1956 1.427 . S
N1960 C1957 1.384 . S
N1961 C1953 1.427 . S
N1961 C1959 1.384 . S
H1962 C1968 0.930 . S
H1963 C1972 0.930 . S
H1964 C1977 0.929 . S
H1965 C1975 0.929 . S
H1966 C1970 0.929 . S
H1967 C1976 0.929 . S
C1968 H1962 0.930 . S
C1968 C1969 1.367 . S
C1968 C1976 1.378 . S
C1969 C1968 1.367 . S
C1969 C1977 1.433 . S
C1970 H1966 0.929 . S
C1970 C1972 1.378 . S
C1970 C1974 1.350 . S
C1971 C1974 1.463 . S
C1971 C1976 1.350 . S
C1971 N1979 1.427 . S
C1972 H1963 0.930 . S
C1972 C1970 1.378 . S
C1972 C1973 1.367 . S
C1973 C1972 1.367 . S
C1973 C1975 1.433 . S
C1974 C1970 1.350 . S
C1974 C1971 1.463 . S
C1974 N1978 1.427 . S
C1975 H1965 0.929 . S
C1975 C1973 1.433 . S
C1975 N1978 1.384 . S
C1976 H1967 0.929 . S
C1976 C1968 1.378 . S
C1976 C1971 1.350 . S
C1977 H1964 0.929 . S
C1977 C1969 1.433 . S
C1977 N1979 1.384 . S
N1978 C1974 1.427 . S
N1978 C1975 1.384 . S
N1979 C1971 1.427 . S
N1979 C1977 1.384 . S
H1980 C1986 0.930 . S
H1981 C1990 0.930 . S
H1982 C1995 0.929 . S
H1983 C1993 0.929 . S
H1984 C1988 0.929 . S
H1985 C1994 0.929 . S
C1986 H1980 0.930 . S
C1986 C1987 1.367 . S
C1986 C1994 1.378 . S
C1987 C1986 1.367 . S
C1987 C1995 1.433 . S
C1988 H1984 0.929 . S
C1988 C1990 1.378 . S
C1988 C1992 1.350 . S
C1989 C1992 1.463 . S
C1989 C1994 1.350 . S
C1989 N1997 1.427 . S
C1990 H1981 0.930 . S
C1990 C1988 1.378 . S
C1990 C1991 1.367 . S
C1991 C1990 1.367 . S
C1991 C1993 1.433 . S
C1992 C1988 1.350 . S
C1992 C1989 1.463 . S
C1992 N1996 1.427 . S
C1993 H1983 0.929 . S
C1993 C1991 1.433 . S
C1993 N1996 1.384 . S
C1994 H1985 0.929 . S
C1994 C1986 1.378 . S
C1994 C1989 1.350 . S
C1995 H1982 0.929 . S
C1995 C1987 1.433 . S
C1995 N1997 1.384 . S
N1996 C1992 1.427 . S
N1996 C1993 1.384 . S
N1997 C1989 1.427 . S
N1997 C1995 1.384 . S
H1998 C2004 0.930 . S
H1999 C2008 0.930 . S
H2000 C2013 0.929 . S
H2001 C2011 0.929 . S
H2002 C2006 0.929 . S
H2003 C2012 0.929 . S
C2004 H1998 0.930 . S
C2004 C2005 1.367 . S
C2004 C2012 1.378 . S
C2005 C2004 1.367 . S
C2005 C2013 1.433 . S
C2006 H2002 0.929 . S
C2006 C2008 1.378 . S
C2006 C2010 1.350 . S
C2007 C2010 1.463 . S
C2007 C2012 1.350 . S
C2007 N2015 1.427 . S
C2008 H1999 0.930 . S
C2008 C2006 1.378 . S
C2008 C2009 1.367 . S
C2009 C2008 1.367 . S
C2009 C2011 1.433 . S
C2010 C2006 1.350 . S
C2010 C2007 1.463 . S
C2010 N2014 1.427 . S
C2011 H2001 0.929 . S
C2011 C2009 1.433 . S
C2011 N2014 1.384 . S
C2012 H2003 0.929 . S
C2012 C2004 1.378 . S
C2012 C2007 1.350 . S
C2013 H2000 0.929 . S
C2013 C2005 1.433 . S
C2013 N2015 1.384 . S
N2014 C2010 1.427 . S
N2014 C2011 1.384 . S
N2015 C2007 1.427 . S
N2015 C2013 1.384 . S
H2016 C2022 0.930 . S
H2017 C2026 0.930 . S
H2018 C2031 0.929 . S
H2019 C2029 0.929 . S
H2020 C2024 0.929 . S
H2021 C2030 0.929 . S
C2022 H2016 0.930 . S
C2022 C2023 1.367 . S
C2022 C2030 1.378 . S
C2023 C2022 1.367 . S
C2023 C2031 1.433 . S
C2024 H2020 0.929 . S
C2024 C2026 1.378 . S
C2024 C2028 1.350 . S
C2025 C2028 1.463 . S
C2025 C2030 1.350 . S
C2025 N2033 1.427 . S
C2026 H2017 0.930 . S
C2026 C2024 1.378 . S
C2026 C2027 1.367 . S
C2027 C2026 1.367 . S
C2027 C2029 1.433 . S
C2028 C2024 1.350 . S
C2028 C2025 1.463 . S
C2028 N2032 1.427 . S
C2029 H2019 0.929 . S
C2029 C2027 1.433 . S
C2029 N2032 1.384 . S
C2030 H2021 0.929 . S
C2030 C2022 1.378 . S
C2030 C2025 1.350 . S
C2031 H2018 0.929 . S
C2031 C2023 1.433 . S
C2031 N2033 1.384 . S
N2032 C2028 1.427 . S
N2032 C2029 1.384 . S
N2033 C2025 1.427 . S
N2033 C2031 1.384 . S
H2034 C2040 0.930 . S
H2035 C2044 0.930 . S
H2036 C2049 0.929 . S
H2037 C2047 0.929 . S
H2038 C2042 0.929 . S
H2039 C2048 0.929 . S
C2040 H2034 0.930 . S
C2040 C2041 1.367 . S
C2040 C2048 1.378 . S
C2041 C2040 1.367 . S
C2041 C2049 1.433 . S
C2042 H2038 0.929 . S
C2042 C2044 1.378 . S
C2042 C2046 1.350 . S
C2043 C2046 1.463 . S
C2043 C2048 1.350 . S
C2043 N2051 1.427 . S
C2044 H2035 0.930 . S
C2044 C2042 1.378 . S
C2044 C2045 1.367 . S
C2045 C2044 1.367 . S
C2045 C2047 1.433 . S
C2046 C2042 1.350 . S
C2046 C2043 1.463 . S
C2046 N2050 1.427 . S
C2047 H2037 0.929 . S
C2047 C2045 1.433 . S
C2047 N2050 1.384 . S
C2048 H2039 0.929 . S
C2048 C2040 1.378 . S
C2048 C2043 1.350 . S
C2049 H2036 0.929 . S
C2049 C2041 1.433 . S
C2049 N2051 1.384 . S
N2050 C2046 1.427 . S
N2050 C2047 1.384 . S
N2051 C2043 1.427 . S
N2051 C2049 1.384 . S
H2052 C2058 0.930 . S
H2053 C2062 0.930 . S
H2054 C2067 0.929 . S
H2055 C2065 0.929 . S
H2056 C2060 0.929 . S
H2057 C2066 0.929 . S
C2058 H2052 0.930 . S
C2058 C2059 1.367 . S
C2058 C2066 1.378 . S
C2059 C2058 1.367 . S
C2059 C2067 1.433 . S
C2060 H2056 0.929 . S
C2060 C2062 1.378 . S
C2060 C2064 1.350 . S
C2061 C2064 1.463 . S
C2061 C2066 1.350 . S
C2061 N2069 1.427 . S
C2062 H2053 0.930 . S
C2062 C2060 1.378 . S
C2062 C2063 1.367 . S
C2063 C2062 1.367 . S
C2063 C2065 1.433 . S
C2064 C2060 1.350 . S
C2064 C2061 1.463 . S
C2064 N2068 1.427 . S
C2065 H2055 0.929 . S
C2065 C2063 1.433 . S
C2065 N2068 1.384 . S
C2066 H2057 0.929 . S
C2066 C2058 1.378 . S
C2066 C2061 1.350 . S
C2067 H2054 0.929 . S
C2067 C2059 1.433 . S
C2067 N2069 1.384 . S
N2068 C2064 1.427 . S
N2068 C2065 1.384 . S
N2069 C2061 1.427 . S
N2069 C2067 1.384 . S
H2070 C2076 0.930 . S
H2071 C2080 0.930 . S
H2072 C2085 0.929 . S
H2073 C2083 0.929 . S
H2074 C2078 0.929 . S
H2075 C2084 0.929 . S
C2076 H2070 0.930 . S
C2076 C2077 1.367 . S
C2076 C2084 1.378 . S
C2077 C2076 1.367 . S
C2077 C2085 1.433 . S
C2078 H2074 0.929 . S
C2078 C2080 1.378 . S
C2078 C2082 1.350 . S
C2079 C2082 1.463 . S
C2079 C2084 1.350 . S
C2079 N2087 1.427 . S
C2080 H2071 0.930 . S
C2080 C2078 1.378 . S
C2080 C2081 1.367 . S
C2081 C2080 1.367 . S
C2081 C2083 1.433 . S
C2082 C2078 1.350 . S
C2082 C2079 1.463 . S
C2082 N2086 1.427 . S
C2083 H2073 0.929 . S
C2083 C2081 1.433 . S
C2083 N2086 1.384 . S
C2084 H2075 0.929 . S
C2084 C2076 1.378 . S
C2084 C2079 1.350 . S
C2085 H2072 0.929 . S
C2085 C2077 1.433 . S
C2085 N2087 1.384 . S
N2086 C2082 1.427 . S
N2086 C2083 1.384 . S
N2087 C2079 1.427 . S
N2087 C2085 1.384 . S
H2088 C2094 0.930 . S
H2089 C2098 0.930 . S
H2090 C2103 0.929 . S
H2091 C2101 0.929 . S
H2092 C2096 0.929 . S
H2093 C2102 0.929 . S
C2094 H2088 0.930 . S
C2094 C2095 1.367 . S
C2094 C2102 1.378 . S
C2095 C2094 1.367 . S
C2095 C2103 1.433 . S
C2096 H2092 0.929 . S
C2096 C2098 1.378 . S
C2096 C2100 1.350 . S
C2097 C2100 1.463 . S
C2097 C2102 1.350 . S
C2097 N2105 1.427 . S
C2098 H2089 0.930 . S
C2098 C2096 1.378 . S
C2098 C2099 1.367 . S
C2099 C2098 1.367 . S
C2099 C2101 1.433 . S
C2100 C2096 1.350 . S
C2100 C2097 1.463 . S
C2100 N2104 1.427 . S
C2101 H2091 0.929 . S
C2101 C2099 1.433 . S
C2101 N2104 1.384 . S
C2102 H2093 0.929 . S
C2102 C2094 1.378 . S
C2102 C2097 1.350 . S
C2103 H2090 0.929 . S
C2103 C2095 1.433 . S
C2103 N2105 1.384 . S
N2104 C2100 1.427 . S
N2104 C2101 1.384 . S
N2105 C2097 1.427 . S
N2105 C2103 1.384 . S
H2106 C2112 0.930 . S
H2107 C2116 0.930 . S
H2108 C2121 0.929 . S
H2109 C2119 0.929 . S
H2110 C2114 0.929 . S
H2111 C2120 0.929 . S
C2112 H2106 0.930 . S
C2112 C2113 1.367 . S
C2112 C2120 1.378 . S
C2113 C2112 1.367 . S
C2113 C2121 1.433 . S
C2114 H2110 0.929 . S
C2114 C2116 1.378 . S
C2114 C2118 1.350 . S
C2115 C2118 1.463 . S
C2115 C2120 1.350 . S
C2115 N2123 1.427 . S
C2116 H2107 0.930 . S
C2116 C2114 1.378 . S
C2116 C2117 1.367 . S
C2117 C2116 1.367 . S
C2117 C2119 1.433 . S
C2118 C2114 1.350 . S
C2118 C2115 1.463 . S
C2118 N2122 1.427 . S
C2119 H2109 0.929 . S
C2119 C2117 1.433 . S
C2119 N2122 1.384 . S
C2120 H2111 0.929 . S
C2120 C2112 1.378 . S
C2120 C2115 1.350 . S
C2121 H2108 0.929 . S
C2121 C2113 1.433 . S
C2121 N2123 1.384 . S
N2122 C2118 1.427 . S
N2122 C2119 1.384 . S
N2123 C2115 1.427 . S
N2123 C2121 1.384 . S
H2124 C2130 0.930 . S
H2125 C2134 0.930 . S
H2126 C2139 0.929 . S
H2127 C2137 0.929 . S
H2128 C2132 0.929 . S
H2129 C2138 0.929 . S
C2130 H2124 0.930 . S
C2130 C2131 1.367 . S
C2130 C2138 1.378 . S
C2131 C2130 1.367 . S
C2131 C2139 1.433 . S
C2132 H2128 0.929 . S
C2132 C2134 1.378 . S
C2132 C2136 1.350 . S
C2133 C2136 1.463 . S
C2133 C2138 1.350 . S
C2133 N2141 1.427 . S
C2134 H2125 0.930 . S
C2134 C2132 1.378 . S
C2134 C2135 1.367 . S
C2135 C2134 1.367 . S
C2135 C2137 1.433 . S
C2136 C2132 1.350 . S
C2136 C2133 1.463 . S
C2136 N2140 1.427 . S
C2137 H2127 0.929 . S
C2137 C2135 1.433 . S
C2137 N2140 1.384 . S
C2138 H2129 0.929 . S
C2138 C2130 1.378 . S
C2138 C2133 1.350 . S
C2139 H2126 0.929 . S
C2139 C2131 1.433 . S
C2139 N2141 1.384 . S
N2140 C2136 1.427 . S
N2140 C2137 1.384 . S
N2141 C2133 1.427 . S
N2141 C2139 1.384 . S
H2142 C2148 0.930 . S
H2143 C2152 0.930 . S
H2144 C2157 0.929 . S
H2145 C2155 0.929 . S
H2146 C2150 0.929 . S
H2147 C2156 0.929 . S
C2148 H2142 0.930 . S
C2148 C2149 1.367 . S
C2148 C2156 1.378 . S
C2149 C2148 1.367 . S
C2149 C2157 1.433 . S
C2150 H2146 0.929 . S
C2150 C2152 1.378 . S
C2150 C2154 1.350 . S
C2151 C2154 1.463 . S
C2151 C2156 1.350 . S
C2151 N2159 1.427 . S
C2152 H2143 0.930 . S
C2152 C2150 1.378 . S
C2152 C2153 1.367 . S
C2153 C2152 1.367 . S
C2153 C2155 1.433 . S
C2154 C2150 1.350 . S
C2154 C2151 1.463 . S
C2154 N2158 1.427 . S
C2155 H2145 0.929 . S
C2155 C2153 1.433 . S
C2155 N2158 1.384 . S
C2156 H2147 0.929 . S
C2156 C2148 1.378 . S
C2156 C2151 1.350 . S
C2157 H2144 0.929 . S
C2157 C2149 1.433 . S
C2157 N2159 1.384 . S
N2158 C2154 1.427 . S
N2158 C2155 1.384 . S
N2159 C2151 1.427 . S
N2159 C2157 1.384 . S
H2160 C2166 0.930 . S
H2161 C2170 0.930 . S
H2162 C2175 0.929 . S
H2163 C2173 0.929 . S
H2164 C2168 0.929 . S
H2165 C2174 0.929 . S
C2166 H2160 0.930 . S
C2166 C2167 1.367 . S
C2166 C2174 1.378 . S
C2167 C2166 1.367 . S
C2167 C2175 1.433 . S
C2168 H2164 0.929 . S
C2168 C2170 1.378 . S
C2168 C2172 1.350 . S
C2169 C2172 1.463 . S
C2169 C2174 1.350 . S
C2169 N2177 1.427 . S
C2170 H2161 0.930 . S
C2170 C2168 1.378 . S
C2170 C2171 1.367 . S
C2171 C2170 1.367 . S
C2171 C2173 1.433 . S
C2172 C2168 1.350 . S
C2172 C2169 1.463 . S
C2172 N2176 1.427 . S
C2173 H2163 0.929 . S
C2173 C2171 1.433 . S
C2173 N2176 1.384 . S
C2174 H2165 0.929 . S
C2174 C2166 1.378 . S
C2174 C2169 1.350 . S
C2175 H2162 0.929 . S
C2175 C2167 1.433 . S
C2175 N2177 1.384 . S
N2176 C2172 1.427 . S
N2176 C2173 1.384 . S
N2177 C2169 1.427 . S
N2177 C2175 1.384 . S
H2178 C2184 0.930 . S
H2179 C2188 0.930 . S
H2180 C2193 0.929 . S
H2181 C2191 0.929 . S
H2182 C2186 0.929 . S
H2183 C2192 0.929 . S
C2184 H2178 0.930 . S
C2184 C2185 1.367 . S
C2184 C2192 1.378 . S
C2185 C2184 1.367 . S
C2185 C2193 1.433 . S
C2186 H2182 0.929 . S
C2186 C2188 1.378 . S
C2186 C2190 1.350 . S
C2187 C2190 1.463 . S
C2187 C2192 1.350 . S
C2187 N2195 1.427 . S
C2188 H2179 0.930 . S
C2188 C2186 1.378 . S
C2188 C2189 1.367 . S
C2189 C2188 1.367 . S
C2189 C2191 1.433 . S
C2190 C2186 1.350 . S
C2190 C2187 1.463 . S
C2190 N2194 1.427 . S
C2191 H2181 0.929 . S
C2191 C2189 1.433 . S
C2191 N2194 1.384 . S
C2192 H2183 0.929 . S
C2192 C2184 1.378 . S
C2192 C2187 1.350 . S
C2193 H2180 0.929 . S
C2193 C2185 1.433 . S
C2193 N2195 1.384 . S
N2194 C2190 1.427 . S
N2194 C2191 1.384 . S
N2195 C2187 1.427 . S
N2195 C2193 1.384 . S
H2196 C2202 0.930 . S
H2197 C2206 0.930 . S
H2198 C2211 0.929 . S
H2199 C2209 0.929 . S
H2200 C2204 0.929 . S
H2201 C2210 0.929 . S
C2202 H2196 0.930 . S
C2202 C2203 1.367 . S
C2202 C2210 1.378 . S
C2203 C2202 1.367 . S
C2203 C2211 1.433 . S
C2204 H2200 0.929 . S
C2204 C2206 1.378 . S
C2204 C2208 1.350 . S
C2205 C2208 1.463 . S
C2205 C2210 1.350 . S
C2205 N2213 1.427 . S
C2206 H2197 0.930 . S
C2206 C2204 1.378 . S
C2206 C2207 1.367 . S
C2207 C2206 1.367 . S
C2207 C2209 1.433 . S
C2208 C2204 1.350 . S
C2208 C2205 1.463 . S
C2208 N2212 1.427 . S
C2209 H2199 0.929 . S
C2209 C2207 1.433 . S
C2209 N2212 1.384 . S
C2210 H2201 0.929 . S
C2210 C2202 1.378 . S
C2210 C2205 1.350 . S
C2211 H2198 0.929 . S
C2211 C2203 1.433 . S
C2211 N2213 1.384 . S
N2212 C2208 1.427 . S
N2212 C2209 1.384 . S
N2213 C2205 1.427 . S
N2213 C2211 1.384 . S
H2214 C2220 0.930 . S
H2215 C2224 0.930 . S
H2216 C2229 0.929 1_554 S
H2217 C2227 0.929 . S
H2218 C2222 0.929 . S
H2219 C2228 0.929 . S
C2220 H2214 0.930 . S
C2220 C2221 1.367 . S
C2220 C2228 1.378 . S
C2221 C2220 1.367 . S
C2221 C2229 1.433 . S
C2222 H2218 0.929 . S
C2222 C2224 1.378 . S
C2222 C2226 1.350 . S
C2223 C2226 1.463 . S
C2223 C2228 1.350 1_554 S
C2223 N2231 1.427 . S
C2224 H2215 0.930 . S
C2224 C2222 1.378 . S
C2224 C2225 1.367 . S
C2225 C2224 1.367 . S
C2225 C2227 1.433 . S
C2226 C2222 1.350 . S
C2226 C2223 1.463 . S
C2226 N2230 1.427 . S
C2227 H2217 0.929 . S
C2227 C2225 1.433 . S
C2227 N2230 1.384 . S
C2228 H2219 0.929 . S
C2228 C2220 1.378 . S
C2228 C2223 1.350 1_556 S
C2229 H2216 0.929 1_556 S
C2229 C2221 1.433 . S
C2229 N2231 1.384 1_556 S
N2230 C2226 1.427 . S
N2230 C2227 1.384 . S
N2231 C2223 1.427 . S
N2231 C2229 1.384 1_554 S
H2232 C2238 0.930 . S
H2233 C2242 0.930 . S
H2234 C2247 0.929 . S
H2235 C2245 0.929 . S
H2236 C2240 0.929 . S
H2237 C2246 0.929 . S
C2238 H2232 0.930 . S
C2238 C2239 1.367 . S
C2238 C2246 1.378 1_556 S
C2239 C2238 1.367 . S
C2239 C2247 1.433 . S
C2240 H2236 0.929 . S
C2240 C2242 1.378 . S
C2240 C2244 1.350 . S
C2241 C2244 1.463 . S
C2241 C2246 1.350 . S
C2241 N2249 1.427 . S
C2242 H2233 0.930 . S
C2242 C2240 1.378 . S
C2242 C2243 1.367 . S
C2243 C2242 1.367 . S
C2243 C2245 1.433 . S
C2244 C2240 1.350 . S
C2244 C2241 1.463 . S
C2244 N2248 1.427 . S
C2245 H2235 0.929 . S
C2245 C2243 1.433 . S
C2245 N2248 1.384 . S
C2246 H2237 0.929 . S
C2246 C2238 1.378 1_554 S
C2246 C2241 1.350 . S
C2247 H2234 0.929 . S
C2247 C2239 1.433 . S
C2247 N2249 1.384 1_556 S
N2248 C2244 1.427 . S
N2248 C2245 1.384 . S
N2249 C2241 1.427 . S
N2249 C2247 1.384 1_554 S
H2250 C2256 0.930 . S
H2251 C2260 0.930 . S
H2252 C2265 0.929 . S
H2253 C2263 0.929 . S
H2254 C2258 0.929 . S
H2255 C2264 0.929 . S
C2256 H2250 0.930 . S
C2256 C2257 1.367 . S
C2256 C2264 1.378 . S
C2257 C2256 1.367 . S
C2257 C2265 1.433 . S
C2258 H2254 0.929 . S
C2258 C2260 1.378 . S
C2258 C2262 1.350 . S
C2259 C2262 1.463 . S
C2259 C2264 1.350 1_554 S
C2259 N2267 1.427 . S
C2260 H2251 0.930 . S
C2260 C2258 1.378 . S
C2260 C2261 1.367 . S
C2261 C2260 1.367 . S
C2261 C2263 1.433 . S
C2262 C2258 1.350 . S
C2262 C2259 1.463 . S
C2262 N2266 1.427 . S
C2263 H2253 0.929 . S
C2263 C2261 1.433 . S
C2263 N2266 1.384 . S
C2264 H2255 0.929 . S
C2264 C2256 1.378 . S
C2264 C2259 1.350 1_556 S
C2265 H2252 0.929 . S
C2265 C2257 1.433 . S
C2265 N2267 1.384 1_556 S
N2266 C2262 1.427 . S
N2266 C2263 1.384 . S
N2267 C2259 1.427 . S
N2267 C2265 1.384 1_554 S
H2268 C2274 0.930 . S
H2269 C2278 0.930 . S
H2270 C2283 0.929 . S
H2271 C2281 0.929 . S
H2272 C2276 0.929 . S
H2273 C2282 0.929 . S
C2274 H2268 0.930 . S
C2274 C2275 1.367 . S
C2274 C2282 1.378 . S
C2275 C2274 1.367 . S
C2275 C2283 1.433 . S
C2276 H2272 0.929 . S
C2276 C2278 1.378 . S
C2276 C2280 1.350 . S
C2277 C2280 1.463 . S
C2277 C2282 1.350 . S
C2277 N2285 1.427 . S
C2278 H2269 0.930 . S
C2278 C2276 1.378 . S
C2278 C2279 1.367 . S
C2279 C2278 1.367 . S
C2279 C2281 1.433 . S
C2280 C2276 1.350 . S
C2280 C2277 1.463 . S
C2280 N2284 1.427 . S
C2281 H2271 0.929 . S
C2281 C2279 1.433 . S
C2281 N2284 1.384 . S
C2282 H2273 0.929 . S
C2282 C2274 1.378 . S
C2282 C2277 1.350 . S
C2283 H2270 0.929 . S
C2283 C2275 1.433 . S
C2283 N2285 1.384 . S
N2284 C2280 1.427 . S
N2284 C2281 1.384 . S
N2285 C2277 1.427 . S
N2285 C2283 1.384 . S
H2286 C2292 0.930 . S
H2287 C2296 0.930 . S
H2288 C2301 0.929 . S
H2289 C2299 0.929 . S
H2290 C2294 0.929 . S
H2291 C2300 0.929 . S
C2292 H2286 0.930 . S
C2292 C2293 1.367 . S
C2292 C2300 1.378 . S
C2293 C2292 1.367 . S
C2293 C2301 1.433 . S
C2294 H2290 0.929 . S
C2294 C2296 1.378 . S
C2294 C2298 1.350 . S
C2295 C2298 1.463 . S
C2295 C2300 1.350 . S
C2295 N2303 1.427 . S
C2296 H2287 0.930 . S
C2296 C2294 1.378 . S
C2296 C2297 1.367 . S
C2297 C2296 1.367 . S
C2297 C2299 1.433 1_554 S
C2298 C2294 1.350 . S
C2298 C2295 1.463 . S
C2298 N2302 1.427 . S
C2299 H2289 0.929 . S
C2299 C2297 1.433 1_556 S
C2299 N2302 1.384 1_556 S
C2300 H2291 0.929 . S
C2300 C2292 1.378 . S
C2300 C2295 1.350 . S
C2301 H2288 0.929 . S
C2301 C2293 1.433 . S
C2301 N2303 1.384 . S
N2302 C2298 1.427 . S
N2302 C2299 1.384 1_554 S
N2303 C2295 1.427 . S
N2303 C2301 1.384 . S
H2304 C2310 0.930 . S
H2305 C2314 0.930 . S
H2306 C2319 0.929 1_556 S
H2307 C2317 0.929 . S
H2308 C2312 0.929 . S
H2309 C2318 0.929 . S
C2310 H2304 0.930 . S
C2310 C2311 1.367 . S
C2310 C2318 1.378 . S
C2311 C2310 1.367 . S
C2311 C2319 1.433 . S
C2312 H2308 0.929 . S
C2312 C2314 1.378 . S
C2312 C2316 1.350 . S
C2313 C2316 1.463 . S
C2313 C2318 1.350 . S
C2313 N2321 1.427 . S
C2314 H2305 0.930 . S
C2314 C2312 1.378 . S
C2314 C2315 1.367 . S
C2315 C2314 1.367 . S
C2315 C2317 1.433 . S
C2316 C2312 1.350 . S
C2316 C2313 1.463 . S
C2316 N2320 1.427 . S
C2317 H2307 0.929 . S
C2317 C2315 1.433 . S
C2317 N2320 1.384 . S
C2318 H2309 0.929 . S
C2318 C2310 1.378 . S
C2318 C2313 1.350 . S
C2319 H2306 0.929 1_554 S
C2319 C2311 1.433 . S
C2319 N2321 1.384 . S
N2320 C2316 1.427 . S
N2320 C2317 1.384 . S
N2321 C2313 1.427 . S
N2321 C2319 1.384 . S
H2322 C2328 0.930 . S
H2323 C2332 0.930 . S
H2324 C2337 0.929 . S
H2325 C2335 0.929 . S
H2326 C2330 0.929 . S
H2327 C2336 0.929 . S
C2328 H2322 0.930 . S
C2328 C2329 1.367 . S
C2328 C2336 1.378 . S
C2329 C2328 1.367 . S
C2329 C2337 1.433 . S
C2330 H2326 0.929 . S
C2330 C2332 1.378 . S
C2330 C2334 1.350 . S
C2331 C2334 1.463 . S
C2331 C2336 1.350 . S
C2331 N2339 1.427 . S
C2332 H2323 0.930 . S
C2332 C2330 1.378 . S
C2332 C2333 1.367 . S
C2333 C2332 1.367 . S
C2333 C2335 1.433 . S
C2334 C2330 1.350 . S
C2334 C2331 1.463 . S
C2334 N2338 1.427 . S
C2335 H2325 0.929 . S
C2335 C2333 1.433 . S
C2335 N2338 1.384 . S
C2336 H2327 0.929 . S
C2336 C2328 1.378 . S
C2336 C2331 1.350 . S
C2337 H2324 0.929 . S
C2337 C2329 1.433 . S
C2337 N2339 1.384 . S
N2338 C2334 1.427 . S
N2338 C2335 1.384 . S
N2339 C2331 1.427 . S
N2339 C2337 1.384 . S
H2340 C2346 0.930 . S
H2341 C2350 0.930 . S
H2342 C2355 0.929 . S
H2343 C2353 0.929 . S
H2344 C2348 0.929 . S
H2345 C2354 0.929 . S
C2346 H2340 0.930 . S
C2346 C2347 1.367 . S
C2346 C2354 1.378 . S
C2347 C2346 1.367 . S
C2347 C2355 1.433 . S
C2348 H2344 0.929 . S
C2348 C2350 1.378 . S
C2348 C2352 1.350 . S
C2349 C2352 1.463 . S
C2349 C2354 1.350 . S
C2349 N2357 1.427 . S
C2350 H2341 0.930 . S
C2350 C2348 1.378 . S
C2350 C2351 1.367 . S
C2351 C2350 1.367 . S
C2351 C2353 1.433 . S
C2352 C2348 1.350 . S
C2352 C2349 1.463 . S
C2352 N2356 1.427 . S
C2353 H2343 0.929 . S
C2353 C2351 1.433 . S
C2353 N2356 1.384 . S
C2354 H2345 0.929 . S
C2354 C2346 1.378 . S
C2354 C2349 1.350 . S
C2355 H2342 0.929 . S
C2355 C2347 1.433 . S
C2355 N2357 1.384 . S
N2356 C2352 1.427 . S
N2356 C2353 1.384 . S
N2357 C2349 1.427 . S
N2357 C2355 1.384 . S
H2358 C2364 0.930 . S
H2359 C2368 0.930 . S
H2360 C2373 0.929 . S
H2361 C2371 0.929 . S
H2362 C2366 0.929 . S
H2363 C2372 0.929 . S
C2364 H2358 0.930 . S
C2364 C2365 1.367 . S
C2364 C2372 1.378 . S
C2365 C2364 1.367 . S
C2365 C2373 1.433 . S
C2366 H2362 0.929 . S
C2366 C2368 1.378 . S
C2366 C2370 1.350 . S
C2367 C2370 1.463 . S
C2367 C2372 1.350 . S
C2367 N2375 1.427 . S
C2368 H2359 0.930 . S
C2368 C2366 1.378 . S
C2368 C2369 1.367 . S
C2369 C2368 1.367 . S
C2369 C2371 1.433 . S
C2370 C2366 1.350 . S
C2370 C2367 1.463 . S
C2370 N2374 1.427 . S
C2371 H2361 0.929 . S
C2371 C2369 1.433 . S
C2371 N2374 1.384 . S
C2372 H2363 0.929 . S
C2372 C2364 1.378 . S
C2372 C2367 1.350 . S
C2373 H2360 0.929 . S
C2373 C2365 1.433 . S
C2373 N2375 1.384 . S
N2374 C2370 1.427 . S
N2374 C2371 1.384 . S
N2375 C2367 1.427 . S
N2375 C2373 1.384 . S
H2376 C2382 0.930 . S
H2377 C2386 0.930 . S
H2378 C2391 0.929 . S
H2379 C2389 0.929 1_554 S
H2380 C2384 0.929 . S
H2381 C2390 0.929 . S
C2382 H2376 0.930 . S
C2382 C2383 1.367 . S
C2382 C2390 1.378 . S
C2383 C2382 1.367 . S
C2383 C2391 1.433 . S
C2384 H2380 0.929 . S
C2384 C2386 1.378 . S
C2384 C2388 1.350 . S
C2385 C2388 1.463 . S
C2385 C2390 1.350 . S
C2385 N2393 1.427 . S
C2386 H2377 0.930 . S
C2386 C2384 1.378 . S
C2386 C2387 1.367 . S
C2387 C2386 1.367 . S
C2387 C2389 1.433 . S
C2388 C2384 1.350 . S
C2388 C2385 1.463 . S
C2388 N2392 1.427 . S
C2389 H2379 0.929 1_556 S
C2389 C2387 1.433 . S
C2389 N2392 1.384 . S
C2390 H2381 0.929 . S
C2390 C2382 1.378 . S
C2390 C2385 1.350 . S
C2391 H2378 0.929 . S
C2391 C2383 1.433 . S
C2391 N2393 1.384 . S
N2392 C2388 1.427 . S
N2392 C2389 1.384 . S
N2393 C2385 1.427 . S
N2393 C2391 1.384 . S
H2394 C2400 0.930 1_554 S
H2395 C2404 0.930 . S
H2396 C2409 0.929 . S
H2397 C2407 0.929 . S
H2398 C2402 0.929 . S
H2399 C2408 0.929 1_554 S
C2400 H2394 0.930 1_556 S
C2400 C2401 1.367 . S
C2400 C2408 1.378 . S
C2401 C2400 1.367 . S
C2401 C2409 1.433 . S
C2402 H2398 0.929 . S
C2402 C2404 1.378 . S
C2402 C2406 1.350 . S
C2403 C2406 1.463 . S
C2403 C2408 1.350 . S
C2403 N2411 1.427 . S
C2404 H2395 0.930 . S
C2404 C2402 1.378 . S
C2404 C2405 1.367 . S
C2405 C2404 1.367 . S
C2405 C2407 1.433 . S
C2406 C2402 1.350 . S
C2406 C2403 1.463 . S
C2406 N2410 1.427 . S
C2407 H2397 0.929 . S
C2407 C2405 1.433 . S
C2407 N2410 1.384 . S
C2408 H2399 0.929 1_556 S
C2408 C2400 1.378 . S
C2408 C2403 1.350 . S
C2409 H2396 0.929 . S
C2409 C2401 1.433 . S
C2409 N2411 1.384 . S
N2410 C2406 1.427 . S
N2410 C2407 1.384 . S
N2411 C2403 1.427 . S
N2411 C2409 1.384 . S
H2412 C2418 0.930 . S
H2413 C2422 0.930 1_554 S
H2414 C2427 0.929 . S
H2415 C2425 0.929 . S
H2416 C2420 0.929 1_554 S
H2417 C2426 0.929 . S
C2418 H2412 0.930 . S
C2418 C2419 1.367 . S
C2418 C2426 1.378 . S
C2419 C2418 1.367 . S
C2419 C2427 1.433 . S
C2420 H2416 0.929 1_556 S
C2420 C2422 1.378 . S
C2420 C2424 1.350 . S
C2421 C2424 1.463 . S
C2421 C2426 1.350 . S
C2421 N2429 1.427 . S
C2422 H2413 0.930 1_556 S
C2422 C2420 1.378 . S
C2422 C2423 1.367 . S
C2423 C2422 1.367 . S
C2423 C2425 1.433 . S
C2424 C2420 1.350 . S
C2424 C2421 1.463 . S
C2424 N2428 1.427 . S
C2425 H2415 0.929 . S
C2425 C2423 1.433 . S
C2425 N2428 1.384 . S
C2426 H2417 0.929 . S
C2426 C2418 1.378 . S
C2426 C2421 1.350 . S
C2427 H2414 0.929 . S
C2427 C2419 1.433 . S
C2427 N2429 1.384 . S
N2428 C2424 1.427 . S
N2428 C2425 1.384 . S
N2429 C2421 1.427 . S
N2429 C2427 1.384 . S
H2430 C2436 0.930 . S
H2431 C2440 0.930 . S
H2432 C2445 0.929 . S
H2433 C2443 0.929 . S
H2434 C2438 0.929 . S
H2435 C2444 0.929 . S
C2436 H2430 0.930 . S
C2436 C2437 1.367 . S
C2436 C2444 1.378 . S
C2437 C2436 1.367 . S
C2437 C2445 1.433 . S
C2438 H2434 0.929 . S
C2438 C2440 1.378 . S
C2438 C2442 1.350 . S
C2439 C2442 1.463 . S
C2439 C2444 1.350 . S
C2439 N2447 1.427 . S
C2440 H2431 0.930 . S
C2440 C2438 1.378 . S
C2440 C2441 1.367 . S
C2441 C2440 1.367 . S
C2441 C2443 1.433 . S
C2442 C2438 1.350 . S
C2442 C2439 1.463 . S
C2442 N2446 1.427 . S
C2443 H2433 0.929 . S
C2443 C2441 1.433 . S
C2443 N2446 1.384 . S
C2444 H2435 0.929 . S
C2444 C2436 1.378 . S
C2444 C2439 1.350 . S
C2445 H2432 0.929 . S
C2445 C2437 1.433 . S
C2445 N2447 1.384 . S
N2446 C2442 1.427 . S
N2446 C2443 1.384 . S
N2447 C2439 1.427 . S
N2447 C2445 1.384 . S
H2448 C2454 0.930 . S
H2449 C2458 0.930 . S
H2450 C2463 0.929 . S
H2451 C2461 0.929 . S
H2452 C2456 0.929 . S
H2453 C2462 0.929 . S
C2454 H2448 0.930 . S
C2454 C2455 1.367 . S
C2454 C2462 1.378 . S
C2455 C2454 1.367 . S
C2455 C2463 1.433 . S
C2456 H2452 0.929 . S
C2456 C2458 1.378 . S
C2456 C2460 1.350 . S
C2457 C2460 1.463 . S
C2457 C2462 1.350 . S
C2457 N2465 1.427 . S
C2458 H2449 0.930 . S
C2458 C2456 1.378 . S
C2458 C2459 1.367 . S
C2459 C2458 1.367 . S
C2459 C2461 1.433 . S
C2460 C2456 1.350 . S
C2460 C2457 1.463 . S
C2460 N2464 1.427 . S
C2461 H2451 0.929 . S
C2461 C2459 1.433 . S
C2461 N2464 1.384 . S
C2462 H2453 0.929 . S
C2462 C2454 1.378 . S
C2462 C2457 1.350 . S
C2463 H2450 0.929 . S
C2463 C2455 1.433 . S
C2463 N2465 1.384 . S
N2464 C2460 1.427 . S
N2464 C2461 1.384 . S
N2465 C2457 1.427 . S
N2465 C2463 1.384 . S
H2466 C2472 0.930 . S
H2467 C2476 0.930 . S
H2468 C2481 0.929 . S
H2469 C2479 0.929 . S
H2470 C2474 0.929 . S
H2471 C2480 0.929 . S
C2472 H2466 0.930 . S
C2472 C2473 1.367 . S
C2472 C2480 1.378 . S
C2473 C2472 1.367 . S
C2473 C2481 1.433 . S
C2474 H2470 0.929 . S
C2474 C2476 1.378 . S
C2474 C2478 1.350 . S
C2475 C2478 1.463 . S
C2475 C2480 1.350 . S
C2475 N2483 1.427 . S
C2476 H2467 0.930 . S
C2476 C2474 1.378 . S
C2476 C2477 1.367 . S
C2477 C2476 1.367 . S
C2477 C2479 1.433 . S
C2478 C2474 1.350 . S
C2478 C2475 1.463 . S
C2478 N2482 1.427 . S
C2479 H2469 0.929 . S
C2479 C2477 1.433 . S
C2479 N2482 1.384 . S
C2480 H2471 0.929 . S
C2480 C2472 1.378 . S
C2480 C2475 1.350 . S
C2481 H2468 0.929 . S
C2481 C2473 1.433 . S
C2481 N2483 1.384 . S
N2482 C2478 1.427 . S
N2482 C2479 1.384 . S
N2483 C2475 1.427 . S
N2483 C2481 1.384 . S
H2484 C2490 0.930 . S
H2485 C2494 0.930 . S
H2486 C2499 0.929 . S
H2487 C2497 0.929 . S
H2488 C2492 0.929 . S
H2489 C2498 0.929 . S
C2490 H2484 0.930 . S
C2490 C2491 1.367 . S
C2490 C2498 1.378 . S
C2491 C2490 1.367 . S
C2491 C2499 1.433 . S
C2492 H2488 0.929 . S
C2492 C2494 1.378 . S
C2492 C2496 1.350 . S
C2493 C2496 1.463 1_455 S
C2493 C2498 1.350 . S
C2493 N2501 1.427 . S
C2494 H2485 0.930 . S
C2494 C2492 1.378 . S
C2494 C2495 1.367 . S
C2495 C2494 1.367 . S
C2495 C2497 1.433 . S
C2496 C2492 1.350 . S
C2496 C2493 1.463 1_655 S
C2496 N2500 1.427 . S
C2497 H2487 0.929 . S
C2497 C2495 1.433 . S
C2497 N2500 1.384 . S
C2498 H2489 0.929 . S
C2498 C2490 1.378 . S
C2498 C2493 1.350 . S
C2499 H2486 0.929 . S
C2499 C2491 1.433 . S
C2499 N2501 1.384 . S
N2500 C2496 1.427 . S
N2500 C2497 1.384 . S
N2501 C2493 1.427 . S
N2501 C2499 1.384 . S
H2502 C2508 0.930 . S
H2503 C2512 0.930 . S
H2504 C2517 0.929 . S
H2505 C2515 0.929 . S
H2506 C2510 0.929 . S
H2507 C2516 0.929 . S
C2508 H2502 0.930 . S
C2508 C2509 1.367 . S
C2508 C2516 1.378 . S
C2509 C2508 1.367 . S
C2509 C2517 1.433 . S
C2510 H2506 0.929 . S
C2510 C2512 1.378 . S
C2510 C2514 1.350 . S
C2511 C2514 1.463 . S
C2511 C2516 1.350 . S
C2511 N2519 1.427 . S
C2512 H2503 0.930 . S
C2512 C2510 1.378 . S
C2512 C2513 1.367 . S
C2513 C2512 1.367 . S
C2513 C2515 1.433 . S
C2514 C2510 1.350 . S
C2514 C2511 1.463 . S
C2514 N2518 1.427 . S
C2515 H2505 0.929 . S
C2515 C2513 1.433 . S
C2515 N2518 1.384 . S
C2516 H2507 0.929 . S
C2516 C2508 1.378 . S
C2516 C2511 1.350 . S
C2517 H2504 0.929 . S
C2517 C2509 1.433 . S
C2517 N2519 1.384 . S
N2518 C2514 1.427 . S
N2518 C2515 1.384 . S
N2519 C2511 1.427 . S
N2519 C2517 1.384 . S
H2520 C2526 0.930 . S
H2521 C2530 0.930 . S
H2522 C2535 0.929 . S
H2523 C2533 0.929 . S
H2524 C2528 0.929 . S
H2525 C2534 0.929 . S
C2526 H2520 0.930 . S
C2526 C2527 1.367 . S
C2526 C2534 1.378 . S
C2527 C2526 1.367 . S
C2527 C2535 1.433 . S
C2528 H2524 0.929 . S
C2528 C2530 1.378 . S
C2528 C2532 1.350 . S
C2529 C2532 1.463 1_565 S
C2529 C2534 1.350 . S
C2529 N2537 1.427 . S
C2530 H2521 0.930 . S
C2530 C2528 1.378 . S
C2530 C2531 1.367 . S
C2531 C2530 1.367 . S
C2531 C2533 1.433 . S
C2532 C2528 1.350 . S
C2532 C2529 1.463 1_545 S
C2532 N2536 1.427 . S
C2533 H2523 0.929 . S
C2533 C2531 1.433 . S
C2533 N2536 1.384 . S
C2534 H2525 0.929 . S
C2534 C2526 1.378 . S
C2534 C2529 1.350 . S
C2535 H2522 0.929 . S
C2535 C2527 1.433 . S
C2535 N2537 1.384 . S
N2536 C2532 1.427 . S
N2536 C2533 1.384 . S
N2537 C2529 1.427 . S
N2537 C2535 1.384 . S
H2538 C2544 0.930 . S
H2539 C2548 0.930 . S
H2540 C2553 0.929 . S
H2541 C2551 0.929 . S
H2542 C2546 0.929 . S
H2543 C2552 0.929 . S
C2544 H2538 0.930 . S
C2544 C2545 1.367 . S
C2544 C2552 1.378 . S
C2545 C2544 1.367 . S
C2545 C2553 1.433 . S
C2546 H2542 0.929 . S
C2546 C2548 1.378 . S
C2546 C2550 1.350 . S
C2547 C2550 1.463 1_545 S
C2547 C2552 1.350 . S
C2547 N2555 1.427 . S
C2548 H2539 0.930 . S
C2548 C2546 1.378 . S
C2548 C2549 1.367 . S
C2549 C2548 1.367 . S
C2549 C2551 1.433 . S
C2550 C2546 1.350 . S
C2550 C2547 1.463 1_565 S
C2550 N2554 1.427 . S
C2551 H2541 0.929 . S
C2551 C2549 1.433 . S
C2551 N2554 1.384 . S
C2552 H2543 0.929 . S
C2552 C2544 1.378 . S
C2552 C2547 1.350 . S
C2553 H2540 0.929 . S
C2553 C2545 1.433 . S
C2553 N2555 1.384 . S
N2554 C2550 1.427 . S
N2554 C2551 1.384 . S
N2555 C2547 1.427 . S
N2555 C2553 1.384 . S
H2556 C2562 0.930 . S
H2557 C2566 0.930 . S
H2558 C2571 0.929 . S
H2559 C2569 0.929 . S
H2560 C2564 0.929 . S
H2561 C2570 0.929 . S
C2562 H2556 0.930 . S
C2562 C2563 1.367 . S
C2562 C2570 1.378 . S
C2563 C2562 1.367 . S
C2563 C2571 1.433 . S
C2564 H2560 0.929 . S
C2564 C2566 1.378 . S
C2564 C2568 1.350 . S
C2565 C2568 1.463 1_455 S
C2565 C2570 1.350 . S
C2565 N2573 1.427 . S
C2566 H2557 0.930 . S
C2566 C2564 1.378 . S
C2566 C2567 1.367 . S
C2567 C2566 1.367 . S
C2567 C2569 1.433 . S
C2568 C2564 1.350 . S
C2568 C2565 1.463 1_655 S
C2568 N2572 1.427 . S
C2569 H2559 0.929 . S
C2569 C2567 1.433 . S
C2569 N2572 1.384 . S
C2570 H2561 0.929 . S
C2570 C2562 1.378 . S
C2570 C2565 1.350 . S
C2571 H2558 0.929 . S
C2571 C2563 1.433 . S
C2571 N2573 1.384 . S
N2572 C2568 1.427 . S
N2572 C2569 1.384 . S
N2573 C2565 1.427 . S
N2573 C2571 1.384 . S
H2574 C2580 0.930 . S
H2575 C2584 0.930 . S
H2576 C2589 0.929 . S
H2577 C2587 0.929 . S
H2578 C2582 0.929 . S
H2579 C2588 0.929 . S
C2580 H2574 0.930 . S
C2580 C2581 1.367 . S
C2580 C2588 1.378 . S
C2581 C2580 1.367 . S
C2581 C2589 1.433 . S
C2582 H2578 0.929 . S
C2582 C2584 1.378 . S
C2582 C2586 1.350 . S
C2583 C2586 1.463 . S
C2583 C2588 1.350 . S
C2583 N2591 1.427 . S
C2584 H2575 0.930 . S
C2584 C2582 1.378 . S
C2584 C2585 1.367 . S
C2585 C2584 1.367 . S
C2585 C2587 1.433 . S
C2586 C2582 1.350 . S
C2586 C2583 1.463 . S
C2586 N2590 1.427 . S
C2587 H2577 0.929 . S
C2587 C2585 1.433 . S
C2587 N2590 1.384 . S
C2588 H2579 0.929 . S
C2588 C2580 1.378 . S
C2588 C2583 1.350 . S
C2589 H2576 0.929 . S
C2589 C2581 1.433 . S
C2589 N2591 1.384 . S
N2590 C2586 1.427 . S
N2590 C2587 1.384 . S
N2591 C2583 1.427 . S
N2591 C2589 1.384 . S
C1303 C112 1.150 . S
C1307 C4 1.148 . S
C1321 C148 1.152 . S
C1325 C40 1.148 . S
C1339 C184 1.147 . S
C1343 C76 1.150 . S
C1357 C220 1.149 . S
C1361 C328 1.152 . S
C1375 C256 1.156 . S
C1379 C364 1.154 . S
C1393 C400 1.155 . S
C1397 C292 1.151 . S
C1411 C436 1.141 . S
C1415 C544 1.137 . S
C1429 C472 1.133 . S
C1433 C580 1.131 . S
C1447 C508 1.139 . S
C1451 C616 1.137 . S
C1465 C652 1.129 . S
C1469 C760 1.133 . S
C1483 C796 1.136 . S
C1487 C688 1.132 . S
C1501 C724 1.128 . S
C1505 C832 1.128 . S
C1519 C868 1.136 . S
C1523 C976 1.137 . S
C1537 C904 1.131 . S
C1541 C1012 1.128 . S
C1555 C1048 1.134 . S
C1559 C940 1.135 . S
C1573 C1192 1.140 . S
C1577 C1084 1.141 . S
C1591 C1228 1.137 . S
C1595 C1120 1.134 . S
C1609 C1264 1.136 . S
C1613 C1156 1.139 . S
C1627 C410 1.420 . S
C1631 C3 1.485 . S
C1645 C39 1.482 . S
C1649 C338 1.433 . S
C1663 C75 1.484 . S
C1667 C374 1.421 . S
C1681 C266 1.444 . S
C1685 C111 1.495 . S
C1699 C147 1.497 . S
C1703 C302 1.444 . S
C1717 C230 1.446 . S
C1721 C183 1.495 . S
C1735 C219 1.483 . S
C1739 C194 1.435 . S
C1753 C255 1.486 . S
C1757 C122 1.420 . S
C1771 C158 1.421 . S
C1775 C291 1.484 . S
C1789 C50 1.433 . S
C1793 C327 1.499 . S
C1807 C86 1.448 . S
C1811 C363 1.496 . S
C1825 C399 1.496 . S
C1829 C14 1.449 . S
C1843 C435 1.444 . S
C1847 C842 1.397 . S
C1861 C770 1.399 . S
C1865 C471 1.441 . S
C1879 C806 1.396 . S
C1883 C507 1.440 . S
C1897 C543 1.483 . S
C1901 C698 1.423 . S
C1915 C734 1.419 . S
C1919 C579 1.485 . S
C1933 C615 1.482 . S
C1937 C662 1.431 . S
C1951 C651 1.476 . S
C1955 C626 1.424 . S
C1969 C687 1.477 . S
C1973 C554 1.413 . S
C1987 C590 1.409 . S
C1991 C723 1.478 . S
C2005 C482 1.450 . S
C2009 C759 1.518 . S
C2023 C518 1.450 . S
C2027 C795 1.519 . S
C2041 C831 1.518 . S
C2045 C446 1.452 . S
C2059 C1274 1.425 . S
C2063 C867 1.476 . S
C2077 C903 1.476 . S
C2081 C1202 1.424 . S
C2095 C939 1.477 . S
C2099 C1238 1.424 . S
C2113 C975 1.516 . S
C2117 C1130 1.453 . S
C2131 C1166 1.464 . S
C2135 C1011 1.516 . S
C2149 C1047 1.515 . S
C2153 C1094 1.462 . S
C2167 C1058 1.387 . S
C2171 C1083 1.444 . S
C2185 C986 1.383 . S
C2189 C1119 1.444 . S
C2203 C1022 1.397 . S
C2207 C1155 1.440 . S
C2221 C914 1.431 . S
C2225 C1191 1.483 . S
C2239 C950 1.416 . S
C2243 C1227 1.485 . S
C2257 C878 1.425 . S
C2261 C1263 1.485 . S
C2275 C1046 1.338 . S
C2279 C2 1.343 . S
C2293 C38 1.339 . S
C2297 C974 1.339 . S
C2311 C1010 1.339 . S
C2315 C74 1.338 . S
C2329 C110 1.347 . S
C2333 C470 1.343 . S
C2347 C506 1.344 . S
C2351 C146 1.339 . S
C2365 C182 1.343 . S
C2369 C434 1.339 . S
C2383 C218 1.338 . S
C2387 C830 1.342 . S
C2401 C758 1.342 . S
C2405 C254 1.345 . S
C2419 C290 1.344 . S
C2423 C794 1.342 . S
C2437 C326 1.345 . S
C2441 C1118 1.340 . S
C2455 C362 1.344 . S
C2459 C1154 1.339 . S
C2473 C1082 1.346 . S
C2477 C398 1.341 . S
C2491 C902 1.346 . S
C2495 C542 1.340 . S
C2509 C938 1.346 . S
C2513 C578 1.342 . S
C2527 C866 1.345 . S
C2531 C614 1.344 . S
C2545 C650 1.342 . S
C2549 C1262 1.340 . S
C2563 C1190 1.345 . S
C2567 C686 1.344 . S
C2581 C722 1.341 . S
C2585 C1226 1.340 . S
