# Generated by pormake.
# Topology wiv, (6)-cn, num edge types: 1
# Building blocks:
#     Node 0, Type 0, BuildingBlock: BETGAK_clean_sbu_0, # of connection points: 6
#     Node 1, Type 0, BuildingBlock: BETGAK_clean_sbu_0, # of connection points: 6
#     Node 2, Type 0, BuildingBlock: BETGAK_clean_sbu_0, # of connection points: 6
#     Node 3, Type 0, BuildingBlock: BETGAK_clean_sbu_0, # of connection points: 6
#     Node 4, Type 0, BuildingBlock: BETGAK_clean_sbu_0, # of connection points: 6
#     Node 5, Type 0, BuildingBlock: BETGAK_clean_sbu_0, # of connection points: 6
#     Node 6, Type 0, BuildingBlock: BETGAK_clean_sbu_0, # of connection points: 6
#     Node 7, Type 0, BuildingBlock: BETGAK_clean_sbu_0, # of connection points: 6
#     Node 8, Type 0, BuildingBlock: BETGAK_clean_sbu_0, # of connection points: 6
#     Node 9, Type 0, BuildingBlock: BETGAK_clean_sbu_0, # of connection points: 6
#     Node 10, Type 0, BuildingBlock: BETGAK_clean_sbu_0, # of connection points: 6
#     Node 11, Type 0, BuildingBlock: BETGAK_clean_sbu_0, # of connection points: 6
#     Node 12, Type 0, BuildingBlock: BETGAK_clean_sbu_0, # of connection points: 6
#     Node 13, Type 0, BuildingBlock: BETGAK_clean_sbu_0, # of connection points: 6
#     Node 14, Type 0, BuildingBlock: BETGAK_clean_sbu_0, # of connection points: 6
#     Node 15, Type 0, BuildingBlock: BETGAK_clean_sbu_0, # of connection points: 6
#     Edge 16, Type (0, 0), BuildingBlock: CIFDUS_clean_linker_0, # of connection points: 2
#     Edge 17, Type (0, 0), BuildingBlock: CIFDUS_clean_linker_0, # of connection points: 2
#     Edge 18, Type (0, 0), BuildingBlock: CIFDUS_clean_linker_0, # of connection points: 2
#     Edge 19, Type (0, 0), BuildingBlock: CIFDUS_clean_linker_0, # of connection points: 2
#     Edge 20, Type (0, 0), BuildingBlock: CIFDUS_clean_linker_0, # of connection points: 2
#     Edge 21, Type (0, 0), BuildingBlock: CIFDUS_clean_linker_0, # of connection points: 2
#     Edge 22, Type (0, 0), BuildingBlock: CIFDUS_clean_linker_0, # of connection points: 2
#     Edge 23, Type (0, 0), BuildingBlock: CIFDUS_clean_linker_0, # of connection points: 2
#     Edge 24, Type (0, 0), BuildingBlock: CIFDUS_clean_linker_0, # of connection points: 2
#     Edge 25, Type (0, 0), BuildingBlock: CIFDUS_clean_linker_0, # of connection points: 2
#     Edge 26, Type (0, 0), BuildingBlock: CIFDUS_clean_linker_0, # of connection points: 2
#     Edge 27, Type (0, 0), BuildingBlock: CIFDUS_clean_linker_0, # of connection points: 2
#     Edge 28, Type (0, 0), BuildingBlock: CIFDUS_clean_linker_0, # of connection points: 2
#     Edge 29, Type (0, 0), BuildingBlock: CIFDUS_clean_linker_0, # of connection points: 2
#     Edge 30, Type (0, 0), BuildingBlock: CIFDUS_clean_linker_0, # of connection points: 2
#     Edge 31, Type (0, 0), BuildingBlock: CIFDUS_clean_linker_0, # of connection points: 2
#     Edge 32, Type (0, 0), BuildingBlock: CIFDUS_clean_linker_0, # of connection points: 2
#     Edge 33, Type (0, 0), BuildingBlock: CIFDUS_clean_linker_0, # of connection points: 2
#     Edge 34, Type (0, 0), BuildingBlock: CIFDUS_clean_linker_0, # of connection points: 2
#     Edge 35, Type (0, 0), BuildingBlock: CIFDUS_clean_linker_0, # of connection points: 2
#     Edge 36, Type (0, 0), BuildingBlock: CIFDUS_clean_linker_0, # of connection points: 2
#     Edge 37, Type (0, 0), BuildingBlock: CIFDUS_clean_linker_0, # of connection points: 2
#     Edge 38, Type (0, 0), BuildingBlock: CIFDUS_clean_linker_0, # of connection points: 2
#     Edge 39, Type (0, 0), BuildingBlock: CIFDUS_clean_linker_0, # of connection points: 2
#     Edge 40, Type (0, 0), BuildingBlock: CIFDUS_clean_linker_0, # of connection points: 2
#     Edge 41, Type (0, 0), BuildingBlock: CIFDUS_clean_linker_0, # of connection points: 2
#     Edge 42, Type (0, 0), BuildingBlock: CIFDUS_clean_linker_0, # of connection points: 2
#     Edge 43, Type (0, 0), BuildingBlock: CIFDUS_clean_linker_0, # of connection points: 2
#     Edge 44, Type (0, 0), BuildingBlock: CIFDUS_clean_linker_0, # of connection points: 2
#     Edge 45, Type (0, 0), BuildingBlock: CIFDUS_clean_linker_0, # of connection points: 2
#     Edge 46, Type (0, 0), BuildingBlock: CIFDUS_clean_linker_0, # of connection points: 2
#     Edge 47, Type (0, 0), BuildingBlock: CIFDUS_clean_linker_0, # of connection points: 2
#     Edge 48, Type (0, 0), BuildingBlock: CIFDUS_clean_linker_0, # of connection points: 2
#     Edge 49, Type (0, 0), BuildingBlock: CIFDUS_clean_linker_0, # of connection points: 2
#     Edge 50, Type (0, 0), BuildingBlock: CIFDUS_clean_linker_0, # of connection points: 2
#     Edge 51, Type (0, 0), BuildingBlock: CIFDUS_clean_linker_0, # of connection points: 2
#     Edge 52, Type (0, 0), BuildingBlock: CIFDUS_clean_linker_0, # of connection points: 2
#     Edge 53, Type (0, 0), BuildingBlock: CIFDUS_clean_linker_0, # of connection points: 2
#     Edge 54, Type (0, 0), BuildingBlock: CIFDUS_clean_linker_0, # of connection points: 2
#     Edge 55, Type (0, 0), BuildingBlock: CIFDUS_clean_linker_0, # of connection points: 2
#     Edge 56, Type (0, 0), BuildingBlock: CIFDUS_clean_linker_0, # of connection points: 2
#     Edge 57, Type (0, 0), BuildingBlock: CIFDUS_clean_linker_0, # of connection points: 2
#     Edge 58, Type (0, 0), BuildingBlock: CIFDUS_clean_linker_0, # of connection points: 2
#     Edge 59, Type (0, 0), BuildingBlock: CIFDUS_clean_linker_0, # of connection points: 2
#     Edge 60, Type (0, 0), BuildingBlock: CIFDUS_clean_linker_0, # of connection points: 2
#     Edge 61, Type (0, 0), BuildingBlock: CIFDUS_clean_linker_0, # of connection points: 2
#     Edge 62, Type (0, 0), BuildingBlock: CIFDUS_clean_linker_0, # of connection points: 2
#     Edge 63, Type (0, 0), BuildingBlock: CIFDUS_clean_linker_0, # of connection points: 2
# Relax obj value: 0.149
# Max RMSD: 0.197
# Mean RMSD: 0.197
data_MOF--net-wiv--node1-BETGAK_clean_sbu_0--edge1-CIFDUS_clean_linker_0
_symmetry_space_group_name_H-M    P1
_symmetry_Int_Tables_number       1
_symmetry_cell_setting            triclinic
loop_
_symmetry_equiv_pos_as_xyz
'x, y, z'
_cell_length_a     43.695838
_cell_length_b     43.805648
_cell_length_c     22.686502
_cell_angle_alpha  89.882808
_cell_angle_beta   89.680029
_cell_angle_gamma 89.869503
loop_
_atom_site_label
_atom_site_type_symbol
_atom_site_fract_x
_atom_site_fract_y
_atom_site_fract_z
_atom_type_partial_charge
La0 La 0.33836 0.11151 0.19296 0.0
La1 La 0.38233 0.10943 0.09898 0.0
C2 C 0.31231 0.10221 0.2912 0.0
C3 C 0.3199 0.10686 0.35428 0.0
C4 C 0.30201 0.12685 0.38844 0.0
C5 C 0.30707 0.1298 0.449 0.0
C6 C 0.33005 0.11263 0.47707 0.0
C7 C 0.34868 0.09339 0.44245 0.0
C8 C 0.3437 0.09056 0.38177 0.0
C9 C 0.34816 0.16644 0.14803 0.0
C10 C 0.41161 0.12069 0.21967 0.0
C11 C 0.40691 0.11187 0.99848 0.0
C12 C 0.39481 0.11133 0.93741 0.0
C13 C 0.3999 0.08546 0.90214 0.0
C14 C 0.39101 0.08523 0.84309 0.0
C15 C 0.37667 0.11078 0.81807 0.0
C16 C 0.36991 0.13605 0.85383 0.0
C17 C 0.37897 0.13638 0.91306 0.0
C18 C 0.37523 0.05705 0.15527 0.0
C19 C 0.31145 0.10692 0.06611 0.0
O20 O 0.30799 0.12668 0.25932 0.0
O21 O 0.32786 0.08147 0.26242 0.0
O22 O 0.32169 0.15567 0.16346 0.0
O23 O 0.36816 0.14597 0.15667 0.0
O24 O 0.38339 0.11463 0.23925 0.0
O25 O 0.41699 0.12302 0.1624 0.0
O26 O 0.40368 0.08664 1.02863 0.0
O27 O 0.40133 0.13606 1.03072 0.0
O28 O 0.40123 0.06785 0.13792 0.0
O29 O 0.35394 0.07494 0.13969 0.0
O30 O 0.33916 0.11593 0.05137 0.0
O31 O 0.30563 0.09966 0.12198 0.0
H32 H 0.28364 0.13983 0.36845 0.0
H33 H 0.29272 0.14533 0.47395 0.0
H34 H 0.36647 0.07966 0.46249 0.0
H35 H 0.35806 0.07504 0.35683 0.0
H36 H 0.41164 0.06566 0.91975 0.0
H37 H 0.39626 0.06542 0.8163 0.0
H38 H 0.3589 0.15604 0.8353 0.0
H39 H 0.37421 0.1565 0.93923 0.0
La40 La 0.11009 0.63704 0.98796 0.0
La41 La 0.11836 0.67894 0.89123 0.0
C42 C 0.10823 0.61316 0.08852 0.0
C43 C 0.11201 0.62574 0.14846 0.0
C44 C 0.08625 0.62919 0.18502 0.0
C45 C 0.08923 0.64062 0.24198 0.0
C46 C 0.11818 0.64833 0.2643 0.0
C47 C 0.14388 0.64584 0.22699 0.0
C48 C 0.14081 0.63479 0.16954 0.0
C49 C 0.06124 0.64209 0.92001 0.0
C50 C 0.11124 0.70772 1.01706 0.0
C51 C 0.11632 0.70641 0.7932 0.0
C52 C 0.11455 0.69741 0.73048 0.0
C53 C 0.14132 0.69549 0.69597 0.0
C54 C 0.13986 0.68686 0.63682 0.0
C55 C 0.11156 0.68007 0.61086 0.0
C56 C 0.08477 0.68246 0.64514 0.0
C57 C 0.08623 0.69124 0.70413 0.0
C58 C 0.17014 0.66896 0.94845 0.0
C59 C 0.12651 0.60529 0.87256 0.0
O60 O 0.08392 0.62249 0.06029 0.0
O61 O 0.1325 0.6123 0.05437 0.0
O62 O 0.07013 0.61712 0.945 0.0
O63 O 0.07855 0.66375 0.93589 0.0
O64 O 0.1177 0.67983 1.03416 0.0
O65 O 0.10675 0.71332 0.96012 0.0
O66 O 0.14161 0.69945 0.82042 0.0
O67 O 0.0923 0.70133 0.82641 0.0
O68 O 0.16043 0.69543 0.93105 0.0
O69 O 0.14974 0.64961 0.93624 0.0
O70 O 0.12023 0.63244 0.84808 0.0
O71 O 0.12737 0.60231 0.9303 0.0
H72 H 0.0637 0.62289 0.16964 0.0
H73 H 0.06878 0.64315 0.2687 0.0
H74 H 0.16651 0.6516 0.24255 0.0
H75 H 0.16107 0.63297 0.14207 0.0
H76 H 0.16348 0.70056 0.71473 0.0
H77 H 0.16095 0.68508 0.61174 0.0
H78 H 0.06253 0.67801 0.62616 0.0
H79 H 0.06511 0.69335 0.7289 0.0
La80 La 0.67748 0.90521 0.19515 0.0
La81 La 0.63535 0.90643 0.09283 0.0
C82 C 0.70047 0.92307 0.29036 0.0
C83 C 0.69717 0.91545 0.3534 0.0
C84 C 0.70662 0.88738 0.3775 0.0
C85 C 0.70175 0.88121 0.43753 0.0
C86 C 0.68726 0.90293 0.47394 0.0
C87 C 0.67738 0.9306 0.44907 0.0
C88 C 0.68257 0.93687 0.38986 0.0
C89 C 0.66711 0.84772 0.16962 0.0
C90 C 0.605 0.88916 0.2101 0.0
C91 C 0.61302 0.89994 0.99215 0.0
C92 C 0.62668 0.90277 0.93262 0.0
C93 C 0.62219 0.92962 0.89991 0.0
C94 C 0.63455 0.93254 0.84343 0.0
C95 C 0.6517 0.90867 0.81831 0.0
C96 C 0.65692 0.88208 0.85155 0.0
C97 C 0.64452 0.87914 0.90816 0.0
C98 C 0.6376 0.95821 0.15373 0.0
C99 C 0.70671 0.91121 0.0658 0.0
O100 O 0.71457 0.90393 0.25494 0.0
O101 O 0.67548 0.9339 0.26709 0.0
O102 O 0.68529 0.85706 0.21036 0.0
O103 O 0.65629 0.87081 0.14285 0.0
O104 O 0.63074 0.89912 0.23499 0.0
O105 O 0.60284 0.88643 0.15254 0.0
O106 O 0.61075 0.92523 1.02246 0.0
O107 O 0.62243 0.87705 1.02459 0.0
O108 O 0.61327 0.94663 0.1303 0.0
O109 O 0.66036 0.9412 0.14068 0.0
O110 O 0.67851 0.91038 0.04643 0.0
O111 O 0.71262 0.91058 0.12358 0.0
H112 H 0.71766 0.8703 0.35021 0.0
H113 H 0.70965 0.8597 0.45556 0.0
H114 H 0.66538 0.94748 0.47534 0.0
H115 H 0.67472 0.95851 0.37224 0.0
H116 H 0.60878 0.94831 0.91771 0.0
H117 H 0.62987 0.95323 0.81883 0.0
H118 H 0.67052 0.86353 0.83377 0.0
H119 H 0.6488 0.85828 0.9325 0.0
La120 La 0.90844 0.38159 0.98775 0.0
La121 La 0.901 0.33927 0.89077 0.0
C122 C 0.90532 0.40481 0.08838 0.0
C123 C 0.90492 0.39068 0.1476 0.0
C124 C 0.92859 0.39728 0.18699 0.0
C125 C 0.92869 0.38447 0.24333 0.0
C126 C 0.9051 0.36477 0.26145 0.0
C127 C 0.88202 0.35712 0.22132 0.0
C128 C 0.8819 0.36997 0.16482 0.0
C129 C 0.95872 0.3746 0.9238 0.0
C130 C 0.90763 0.31058 1.0185 0.0
C131 C 0.90409 0.3118 0.79259 0.0
C132 C 0.90458 0.32008 0.72915 0.0
C133 C 0.88019 0.31139 0.69262 0.0
C134 C 0.88008 0.31946 0.63284 0.0
C135 C 0.90412 0.33679 0.60887 0.0
C136 C 0.92867 0.34503 0.64505 0.0
C137 C 0.92914 0.33626 0.70417 0.0
C138 C 0.84875 0.35025 0.9456 0.0
C139 C 0.89599 0.41372 0.87099 0.0
O140 O 0.93099 0.40195 0.05895 0.0
O141 O 0.88132 0.40033 0.05513 0.0
O142 O 0.95043 0.39982 0.94879 0.0
O143 O 0.94007 0.35358 0.93811 0.0
O144 O 0.90504 0.33893 1.03588 0.0
O145 O 0.90913 0.3041 0.9611 0.0
O146 O 0.87862 0.31747 0.82073 0.0
O147 O 0.92796 0.31877 0.82443 0.0
O148 O 0.85823 0.32356 0.92898 0.0
O149 O 0.86958 0.36948 0.93398 0.0
O150 O 0.89958 0.38592 0.84722 0.0
O151 O 0.89517 0.41729 0.92854 0.0
H152 H 0.94693 0.41259 0.17431 0.0
H153 H 0.94709 0.39027 0.27309 0.0
H154 H 0.86356 0.342 0.23422 0.0
H155 H 0.86363 0.36389 0.13501 0.0
H156 H 0.86118 0.29841 0.71038 0.0
H157 H 0.86094 0.31271 0.60568 0.0
H158 H 0.94781 0.35786 0.6273 0.0
H159 H 0.94895 0.34186 0.72986 0.0
La160 La 0.33847 0.40471 0.13494 0.0
La161 La 0.37977 0.40846 0.23627 0.0
C162 C 0.31587 0.42347 1.03971 0.0
C163 C 0.32074 0.41854 0.97612 0.0
C164 C 0.31329 0.39119 0.94722 0.0
C165 C 0.32067 0.38745 0.88734 0.0
C166 C 0.33591 0.41082 0.85634 0.0
C167 C 0.34254 0.43824 0.88525 0.0
C168 C 0.33495 0.44208 0.94418 0.0
C169 C 0.34725 0.3477 0.16349 0.0
C170 C 0.41206 0.39354 0.12075 0.0
C171 C 0.40212 0.4056 0.33737 0.0
C172 C 0.38737 0.40435 0.39587 0.0
C173 C 0.39194 0.4285 0.43512 0.0
C174 C 0.37866 0.42787 0.49098 0.0
C175 C 0.361 0.40274 0.50928 0.0
C176 C 0.35496 0.37931 0.46884 0.0
C177 C 0.36794 0.38016 0.4124 0.0
C178 C 0.37354 0.45991 0.17463 0.0
C179 C 0.30869 0.41008 0.26384 0.0
O180 O 0.30277 0.40228 0.07205 0.0
O181 O 0.33967 0.43514 0.06562 0.0
O182 O 0.33048 0.35729 0.12068 0.0
O183 O 0.35934 0.37026 0.19057 0.0
O184 O 0.38528 0.39961 0.09544 0.0
O185 O 0.41498 0.39255 0.17821 0.0
O186 O 0.39836 0.43123 0.30875 0.0
O187 O 0.39905 0.38169 0.30329 0.0
O188 O 0.39909 0.44989 0.196 0.0
O189 O 0.35259 0.44127 0.18897 0.0
O190 O 0.3368 0.40861 0.2832 0.0
O191 O 0.30287 0.41015 0.20596 0.0
H192 H 0.30234 0.37266 0.97087 0.0
H193 H 0.31528 0.3661 0.86578 0.0
H194 H 0.35375 0.45686 0.86224 0.0
H195 H 0.34083 0.46344 0.96529 0.0
H196 H 0.40608 0.4478 0.42277 0.0
H197 H 0.38287 0.44681 0.52044 0.0
H198 H 0.34126 0.35977 0.48149 0.0
H199 H 0.36321 0.36163 0.38229 0.0
La200 La 0.40583 0.6386 0.85158 0.0
La201 La 0.40734 0.68238 0.94279 0.0
C202 C 0.40169 0.61341 0.75191 0.0
C203 C 0.40476 0.62479 0.69019 0.0
C204 C 0.43204 0.61985 0.65856 0.0
C205 C 0.43509 0.62964 0.60007 0.0
C206 C 0.41107 0.64514 0.57126 0.0
C207 C 0.38384 0.65036 0.60352 0.0
C208 C 0.3807 0.64025 0.66194 0.0
C209 C 0.45995 0.64381 0.90405 0.0
C210 C 0.4123 0.7085 0.8157 0.0
C211 C 0.41618 0.70836 1.04078 0.0
C212 C 0.41142 0.69971 0.10367 0.0
C213 C 0.38729 0.71286 0.13619 0.0
C214 C 0.3831 0.70581 0.19594 0.0
C215 C 0.40302 0.68551 0.22489 0.0
C216 C 0.4269 0.67198 0.19208 0.0
C217 C 0.43105 0.67897 0.13226 0.0
C218 C 0.3513 0.67685 0.90029 0.0
C219 C 0.39519 0.61028 0.97195 0.0
O220 O 0.42659 0.61343 0.78344 0.0
O221 O 0.37801 0.62266 0.78268 0.0
O222 O 0.44694 0.61828 0.89079 0.0
O223 O 0.44276 0.66552 0.88813 0.0
O224 O 0.40159 0.68139 0.80244 0.0
O225 O 0.42055 0.71418 0.87089 0.0
O226 O 0.3916 0.71213 1.0092 0.0
O227 O 0.43749 0.69391 1.01125 0.0
O228 O 0.36547 0.70222 0.91009 0.0
O229 O 0.36994 0.65512 0.90997 0.0
O230 O 0.40551 0.63733 0.98967 0.0
O231 O 0.38903 0.60577 0.91584 0.0
H232 H 0.45104 0.60794 0.6788 0.0
H233 H 0.45621 0.62417 0.57735 0.0
H234 H 0.36484 0.66261 0.58427 0.0
H235 H 0.35938 0.64469 0.68496 0.0
H236 H 0.3718 0.72894 0.11554 0.0
H237 H 0.36464 0.71689 0.21977 0.0
H238 H 0.44236 0.65584 0.21256 0.0
H239 H 0.44978 0.66823 0.10863 0.0
La240 La 0.67966 0.61392 0.13496 0.0
La241 La 0.6331 0.60697 0.23739 0.0
C242 C 0.70882 0.6014 0.04204 0.0
C243 C 0.70199 0.60633 0.97862 0.0
C244 C 0.70546 0.63513 0.95178 0.0
C245 C 0.69899 0.6392 0.89185 0.0
C246 C 0.68908 0.61454 0.85714 0.0
C247 C 0.68533 0.58586 0.88441 0.0
C248 C 0.69163 0.58187 0.94423 0.0
C249 C 0.66349 0.66856 0.17125 0.0
C250 C 0.60589 0.62377 0.11632 0.0
C251 C 0.61 0.61402 0.33765 0.0
C252 C 0.62274 0.61193 0.39799 0.0
C253 C 0.62736 0.58343 0.42516 0.0
C254 C 0.6372 0.5817 0.48349 0.0
C255 C 0.6426 0.60838 0.51608 0.0
C256 C 0.63983 0.63683 0.48792 0.0
C257 C 0.62986 0.63859 0.4295 0.0
C258 C 0.6386 0.55932 0.16739 0.0
C259 C 0.70411 0.60525 0.26824 0.0
O260 O 0.7144 0.6255 0.07423 0.0
O261 O 0.6913 0.58193 0.06988 0.0
O262 O 0.68217 0.66358 0.128 0.0
O263 O 0.65472 0.64305 0.1912 0.0
O264 O 0.63343 0.61793 0.09228 0.0
O265 O 0.60132 0.62467 0.17394 0.0
O266 O 0.60801 0.58847 0.30777 0.0
O267 O 0.61975 0.63681 0.305 0.0
O268 O 0.6137 0.56642 0.19591 0.0
O269 O 0.66015 0.577 0.18348 0.0
O270 O 0.67566 0.59896 0.28286 0.0
O271 O 0.71211 0.61119 0.21212 0.0
H272 H 0.7132 0.65459 0.97697 0.0
H273 H 0.70162 0.66175 0.87291 0.0
H274 H 0.67824 0.56613 0.85937 0.0
H275 H 0.68871 0.55941 0.96348 0.0
H276 H 0.62267 0.56238 0.40199 0.0
H277 H 0.6398 0.55941 0.50368 0.0
H278 H 0.64393 0.65779 0.51184 0.0
H279 H 0.62699 0.66088 0.40947 0.0
La280 La 0.60989 0.37922 0.84598 0.0
La281 La 0.61247 0.33718 0.94466 0.0
C282 C 0.61105 0.40369 0.74529 0.0
C283 C 0.61201 0.39275 0.68329 0.0
C284 C 0.58652 0.39807 0.64714 0.0
C285 C 0.58722 0.39025 0.58748 0.0
C286 C 0.61334 0.37671 0.56249 0.0
C287 C 0.63834 0.36983 0.59898 0.0
C288 C 0.63776 0.37791 0.65893 0.0
C289 C 0.55856 0.37489 0.90858 0.0
C290 C 0.60847 0.30815 0.81618 0.0
C291 C 0.60238 0.30674 1.0366 0.0
C292 C 0.60722 0.31428 0.0999 0.0
C293 C 0.62691 0.29642 0.13446 0.0
C294 C 0.63064 0.30262 0.1946 0.0
C295 C 0.6145 0.32668 0.22203 0.0
C296 C 0.59561 0.34524 0.1868 0.0
C297 C 0.59213 0.33923 0.12658 0.0
C298 C 0.6673 0.35908 0.91537 0.0
C299 C 0.62024 0.40871 0.96707 0.0
O300 O 0.58596 0.39742 0.77433 0.0
O301 O 0.63547 0.40032 0.77812 0.0
O302 O 0.57 0.40026 0.88953 0.0
O303 O 0.57571 0.35319 0.89279 0.0
O304 O 0.60725 0.33658 0.7977 0.0
O305 O 0.61052 0.30191 0.87366 0.0
O306 O 0.62688 0.30276 1.00376 0.0
O307 O 0.58135 0.32269 1.00931 0.0
O308 O 0.65692 0.35511 0.96814 0.0
O309 O 0.64647 0.35066 0.88013 0.0
O310 O 0.609 0.38245 0.98695 0.0
O311 O 0.62701 0.412 0.91047 0.0
H312 H 0.56621 0.40905 0.66475 0.0
H313 H 0.56752 0.39541 0.56038 0.0
H314 H 0.6587 0.35927 0.58065 0.0
H315 H 0.65761 0.37306 0.68574 0.0
H316 H 0.63921 0.2774 0.11507 0.0
H317 H 0.64606 0.2883 0.21967 0.0
H318 H 0.58265 0.36387 0.20595 0.0
H319 H 0.57711 0.35388 0.10127 0.0
La320 La 0.8383 0.61321 0.68723 0.0
La321 La 0.88515 0.61081 0.59635 0.0
C322 C 0.81206 0.60611 0.78634 0.0
C323 C 0.82232 0.60719 0.84912 0.0
C324 C 0.81271 0.63102 0.88653 0.0
C325 C 0.82174 0.63187 0.94592 0.0
C326 C 0.84051 0.60877 0.96976 0.0
C327 C 0.85001 0.58494 0.93206 0.0
C328 C 0.84124 0.58425 0.87275 0.0
C329 C 0.84944 0.66763 0.64013 0.0
C330 C 0.91158 0.62167 0.71799 0.0
C331 C 0.90939 0.61666 0.49621 0.0
C332 C 0.89573 0.61699 0.43604 0.0
C333 C 0.90145 0.59267 0.39727 0.0
C334 C 0.88922 0.59264 0.34032 0.0
C335 C 0.87108 0.61711 0.32009 0.0
C336 C 0.86444 0.641 0.35968 0.0
C337 C 0.87654 0.64092 0.41691 0.0
C338 C 0.87774 0.55891 0.65471 0.0
C339 C 0.81504 0.60597 0.55726 0.0
O340 O 0.81219 0.63181 0.75715 0.0
O341 O 0.82215 0.58361 0.75368 0.0
O342 O 0.82253 0.65693 0.65283 0.0
O343 O 0.86871 0.647 0.65229 0.0
O344 O 0.88314 0.61469 0.73539 0.0
O345 O 0.91801 0.6251 0.66146 0.0
O346 O 0.90826 0.59065 0.52464 0.0
O347 O 0.90309 0.6398 0.53082 0.0
O348 O 0.90388 0.56942 0.63676 0.0
O349 O 0.85653 0.57646 0.63704 0.0
O350 O 0.84336 0.61358 0.54491 0.0
O351 O 0.80657 0.60171 0.6133 0.0
H352 H 0.79815 0.64907 0.86982 0.0
H353 H 0.81425 0.65086 0.97288 0.0
H354 H 0.86393 0.56634 0.94844 0.0
H355 H 0.84915 0.56548 0.84561 0.0
H356 H 0.9156 0.57362 0.41093 0.0
H357 H 0.89414 0.57336 0.31201 0.0
H358 H 0.85061 0.66026 0.34601 0.0
H359 H 0.8711 0.65983 0.44584 0.0
La360 La 0.61243 0.13367 0.48666 0.0
La361 La 0.61795 0.17724 0.39121 0.0
C362 C 0.61637 0.10948 0.5867 0.0
C363 C 0.61404 0.12185 0.64739 0.0
C364 C 0.58735 0.11681 0.68061 0.0
C365 C 0.58553 0.12613 0.73927 0.0
C366 C 0.61053 0.14038 0.76653 0.0
C367 C 0.63656 0.14725 0.73234 0.0
C368 C 0.63832 0.13807 0.67329 0.0
C369 C 0.56196 0.13921 0.42261 0.0
C370 C 0.60843 0.20442 0.51893 0.0
C371 C 0.61301 0.205 0.29376 0.0
C372 C 0.61552 0.19761 0.23016 0.0
C373 C 0.6412 0.20748 0.19787 0.0
C374 C 0.64334 0.20224 0.13723 0.0
C375 C 0.61969 0.18721 0.10724 0.0
C376 C 0.59417 0.17693 0.1398 0.0
C377 C 0.59208 0.18214 0.20047 0.0
C378 C 0.67064 0.16865 0.44639 0.0
C379 C 0.62868 0.10415 0.36866 0.0
O380 O 0.5912 0.10956 0.55567 0.0
O381 O 0.6402 0.11771 0.5553 0.0
O382 O 0.57178 0.11392 0.44538 0.0
O383 O 0.57948 0.16077 0.43854 0.0
O384 O 0.61246 0.17613 0.53611 0.0
O385 O 0.60686 0.211 0.46164 0.0
O386 O 0.63826 0.20337 0.32397 0.0
O387 O 0.58974 0.19399 0.32338 0.0
O388 O 0.66021 0.19466 0.42795 0.0
O389 O 0.65094 0.14852 0.43401 0.0
O390 O 0.62203 0.13158 0.34612 0.0
O391 O 0.63007 0.10009 0.42614 0.0
H392 H 0.56806 0.10492 0.66168 0.0
H393 H 0.56478 0.12134 0.76389 0.0
H394 H 0.65614 0.15839 0.75186 0.0
H395 H 0.65903 0.14292 0.6486 0.0
H396 H 0.65956 0.21963 0.21943 0.0
H397 H 0.66354 0.21005 0.11388 0.0
H398 H 0.57528 0.16566 0.1182 0.0
H399 H 0.57176 0.17467 0.22364 0.0
La400 La 0.18178 0.40455 0.69282 0.0
La401 La 0.13755 0.40738 0.60053 0.0
C402 C 0.209 0.40918 0.79062 0.0
C403 C 0.19911 0.40955 0.85341 0.0
C404 C 0.20109 0.38296 0.88809 0.0
C405 C 0.19177 0.38319 0.94725 0.0
C406 C 0.18047 0.41012 0.97339 0.0
C407 C 0.17884 0.43673 0.93864 0.0
C408 C 0.18804 0.43641 0.87959 0.0
C409 C 0.17536 0.35163 0.63989 0.0
C410 C 0.10915 0.39441 0.72088 0.0
C411 C 0.11352 0.40583 0.49997 0.0
C412 C 0.12641 0.40339 0.43934 0.0
C413 C 0.12837 0.42953 0.4035 0.0
C414 C 0.13959 0.42759 0.3458 0.0
C415 C 0.14872 0.39935 0.32186 0.0
C416 C 0.14772 0.37335 0.35844 0.0
C417 C 0.13681 0.37537 0.41652 0.0
C418 C 0.14081 0.45858 0.6621 0.0
C419 C 0.20812 0.41104 0.56574 0.0
O420 O 0.20533 0.38353 0.76259 0.0
O421 O 0.20145 0.43252 0.75771 0.0
O422 O 0.20124 0.36356 0.65474 0.0
O423 O 0.15381 0.3697 0.65342 0.0
O424 O 0.13691 0.40208 0.73982 0.0
O425 O 0.10381 0.39157 0.66393 0.0
O426 O 0.11974 0.43106 0.52798 0.0
O427 O 0.11557 0.3819 0.53455 0.0
O428 O 0.11608 0.44724 0.64036 0.0
O429 O 0.16353 0.44245 0.64566 0.0
O430 O 0.18048 0.402 0.55173 0.0
O431 O 0.21428 0.41756 0.62159 0.0
H432 H 0.2098 0.3619 0.86946 0.0
H433 H 0.1931 0.36212 0.97213 0.0
H434 H 0.17101 0.45813 0.95721 0.0
H435 H 0.18684 0.4574 0.85472 0.0
H436 H 0.12097 0.45157 0.41992 0.0
H437 H 0.14089 0.44833 0.31985 0.0
H438 H 0.15455 0.3512 0.34186 0.0
H439 H 0.13612 0.35484 0.44315 0.0
La440 La 0.4076 0.88108 0.48893 0.0
La441 La 0.40173 0.84042 0.39201 0.0
C442 C 0.40305 0.90399 0.58954 0.0
C443 C 0.40279 0.88993 0.64852 0.0
C444 C 0.42353 0.90019 0.69081 0.0
C445 C 0.42279 0.88834 0.74784 0.0
C446 C 0.40135 0.8658 0.76359 0.0
C447 C 0.38175 0.85422 0.72016 0.0
C448 C 0.38244 0.86618 0.66307 0.0
C449 C 0.45815 0.87801 0.4243 0.0
C450 C 0.41136 0.81026 0.51689 0.0
C451 C 0.40469 0.8135 0.29376 0.0
C452 C 0.40632 0.82195 0.23103 0.0
C453 C 0.38649 0.80763 0.19142 0.0
C454 C 0.38828 0.81402 0.13125 0.0
C455 C 0.41004 0.83486 0.10954 0.0
C456 C 0.42916 0.85001 0.14962 0.0
C457 C 0.42724 0.8437 0.20987 0.0
C458 C 0.3491 0.84768 0.44877 0.0
C459 C 0.3938 0.9139 0.37392 0.0
O460 O 0.42897 0.90221 0.56071 0.0
O461 O 0.37946 0.89836 0.55599 0.0
O462 O 0.44806 0.90222 0.45064 0.0
O463 O 0.44125 0.85545 0.43814 0.0
O464 O 0.40803 0.83817 0.53611 0.0
O465 O 0.41176 0.80471 0.45928 0.0
O466 O 0.37914 0.82027 0.32055 0.0
O467 O 0.4285 0.81922 0.32652 0.0
O468 O 0.36012 0.82192 0.43051 0.0
O469 O 0.3686 0.86817 0.43692 0.0
O470 O 0.39994 0.8869 0.34908 0.0
O471 O 0.39183 0.91633 0.43148 0.0
H472 H 0.43984 0.91798 0.68009 0.0
H473 H 0.43818 0.89786 0.78017 0.0
H474 H 0.36555 0.83629 0.73053 0.0
H475 H 0.36676 0.85711 0.63074 0.0
H476 H 0.36991 0.79106 0.20699 0.0
H477 H 0.37327 0.80187 0.10163 0.0
H478 H 0.44567 0.86672 0.13443 0.0
H479 H 0.44221 0.85572 0.23959 0.0
La480 La 0.83754 0.90206 0.64041 0.0
La481 La 0.8812 0.90595 0.73394 0.0
C482 C 0.81078 0.90863 0.54244 0.0
C483 C 0.81871 0.90508 0.47907 0.0
C484 C 0.80314 0.8834 0.445 0.0
C485 C 0.80838 0.8814 0.38422 0.0
C486 C 0.82951 0.90086 0.35634 0.0
C487 C 0.84591 0.92178 0.39059 0.0
C488 C 0.84035 0.92405 0.45116 0.0
C489 C 0.84584 0.848 0.69122 0.0
C490 C 0.91076 0.89069 0.61524 0.0
C491 C 0.90546 0.906 0.83431 0.0
C492 C 0.89335 0.90522 0.89561 0.0
C493 C 0.89386 0.93195 0.92987 0.0
C494 C 0.88506 0.93127 0.98916 0.0
C495 C 0.87546 0.9039 1.01529 0.0
C496 C 0.87332 0.87748 0.98074 0.0
C497 C 0.88219 0.8781 0.92127 0.0
C498 C 0.87617 0.95698 0.67134 0.0
C499 C 0.81055 0.90873 0.76726 0.0
O500 O 0.80956 0.88372 0.57396 0.0
O501 O 0.82372 0.93089 0.57125 0.0
O502 O 0.81969 0.86005 0.67749 0.0
O503 O 0.86622 0.86789 0.68034 0.0
O504 O 0.88269 0.89599 0.59453 0.0
O505 O 0.91597 0.89056 0.67249 0.0
O506 O 0.8994 0.93076 0.80435 0.0
O507 O 0.90268 0.88136 0.80206 0.0
O508 O 0.90156 0.94585 0.69085 0.0
O509 O 0.85436 0.93989 0.68813 0.0
O510 O 0.83819 0.89991 0.78212 0.0
O511 O 0.80471 0.91506 0.71111 0.0
H512 H 0.78633 0.86847 0.46517 0.0
H513 H 0.79561 0.86489 0.35881 0.0
H514 H 0.86212 0.93726 0.37014 0.0
H515 H 0.85238 0.9413 0.47548 0.0
H516 H 0.902 0.95326 0.91129 0.0
H517 H 0.8868 0.95188 1.01525 0.0
H518 H 0.86596 0.85613 1.00035 0.0
H519 H 0.88108 0.85719 0.89601 0.0
La520 La 0.90839 0.136 0.34994 0.0
La521 La 0.90249 0.18103 0.44228 0.0
C522 C 0.90689 0.11164 0.24979 0.0
C523 C 0.90464 0.12479 0.18945 0.0
C524 C 0.92994 0.12336 0.15098 0.0
C525 C 0.92775 0.13414 0.09299 0.0
C526 C 0.90012 0.14643 0.07198 0.0
C527 C 0.87532 0.14937 0.11139 0.0
C528 C 0.87755 0.13876 0.16947 0.0
C529 C 0.95863 0.14292 0.41395 0.0
C530 C 0.91149 0.2064 0.31404 0.0
C531 C 0.90694 0.20758 0.54087 0.0
C532 C 0.90737 0.19791 0.60383 0.0
C533 C 0.88123 0.20175 0.63962 0.0
C534 C 0.88222 0.19523 0.70011 0.0
C535 C 0.90946 0.18496 0.72634 0.0
C536 C 0.93522 0.17995 0.6901 0.0
C537 C 0.93421 0.18635 0.62968 0.0
C538 C 0.85055 0.17215 0.38608 0.0
C539 C 0.8943 0.10787 0.4701 0.0
O540 O 0.93228 0.11719 0.27799 0.0
O541 O 0.88283 0.1141 0.28427 0.0
O542 O 0.94908 0.11721 0.39287 0.0
O543 O 0.94112 0.16408 0.39598 0.0
O544 O 0.90464 0.17832 0.29914 0.0
O545 O 0.91538 0.21349 0.37057 0.0
O546 O 0.88121 0.20436 0.51263 0.0
O547 O 0.93036 0.19991 0.50799 0.0
O548 O 0.86079 0.19848 0.40283 0.0
O549 O 0.8696 0.15175 0.4011 0.0
O550 O 0.89997 0.13609 0.4892 0.0
O551 O 0.89332 0.10201 0.4131 0.0
H552 H 0.95127 0.11322 0.16535 0.0
H553 H 0.94731 0.13155 0.06388 0.0
H554 H 0.85394 0.15939 0.09694 0.0
H555 H 0.85782 0.14101 0.19825 0.0
H556 H 0.86018 0.21057 0.62114 0.0
H557 H 0.86197 0.19939 0.72669 0.0
H558 H 0.95637 0.17143 0.70866 0.0
H559 H 0.95474 0.18283 0.60356 0.0
La560 La 0.18224 0.11225 0.6365 0.0
La561 La 0.13703 0.11059 0.73713 0.0
C562 C 0.2091 0.09657 0.54259 0.0
C563 C 0.20235 0.10252 0.47947 0.0
C564 C 0.20724 0.13134 0.4535 0.0
C565 C 0.20027 0.13639 0.39401 0.0
C566 C 0.1882 0.11278 0.35919 0.0
C567 C 0.18292 0.08417 0.38559 0.0
C568 C 0.19005 0.07909 0.44476 0.0
C569 C 0.17134 0.16968 0.6635 0.0
C570 C 0.10915 0.12555 0.61678 0.0
C571 C 0.11426 0.11592 0.83848 0.0
C572 C 0.12798 0.11328 0.89819 0.0
C573 C 0.12655 0.08546 0.92907 0.0
C574 C 0.13873 0.08281 0.98568 0.0
C575 C 0.1527 0.1079 1.01311 0.0
C576 C 0.15491 0.13554 0.98167 0.0
C577 C 0.14269 0.13821 0.92489 0.0
C578 C 0.14118 0.05974 0.67353 0.0
C579 C 0.20858 0.1059 0.76721 0.0
O580 O 0.21788 0.11958 0.57498 0.0
O581 O 0.18939 0.0795 0.57061 0.0
O582 O 0.18993 0.16004 0.6234 0.0
O583 O 0.15942 0.14663 0.68923 0.0
O584 O 0.13614 0.11662 0.59461 0.0
O585 O 0.10487 0.12905 0.67404 0.0
O586 O 0.11293 0.09075 0.80762 0.0
O587 O 0.1226 0.13932 0.80606 0.0
O588 O 0.11602 0.07037 0.69616 0.0
O589 O 0.16305 0.07704 0.68903 0.0
O590 O 0.17989 0.10572 0.78501 0.0
O591 O 0.2157 0.10748 0.70995 0.0
H592 H 0.21653 0.15001 0.47896 0.0
H593 H 0.20483 0.15864 0.37508 0.0
H594 H 0.17304 0.06564 0.36062 0.0
H595 H 0.1858 0.05673 0.46351 0.0
H596 H 0.11559 0.06573 0.90982 0.0
H597 H 0.13633 0.06123 1.00861 0.0
H598 H 0.16601 0.15517 1.00099 0.0
H599 H 0.14459 0.15989 0.90218 0.0
La600 La 0.11245 0.88116 0.35087 0.0
La601 La 0.11799 0.83589 0.44319 0.0
C602 C 0.11591 0.90578 0.2512 0.0
C603 C 0.11661 0.89227 0.19141 0.0
C604 C 0.09471 0.90123 0.15022 0.0
C605 C 0.09508 0.88932 0.09317 0.0
C606 C 0.11718 0.86745 0.07527 0.0
C607 C 0.13812 0.85732 0.11861 0.0
C608 C 0.13801 0.86975 0.17544 0.0
C609 C 0.06215 0.87537 0.41519 0.0
C610 C 0.10911 0.81017 0.3156 0.0
C611 C 0.11324 0.80838 0.54076 0.0
C612 C 0.11187 0.818 0.60321 0.0
C613 C 0.13149 0.80451 0.64435 0.0
C614 C 0.12994 0.81262 0.70395 0.0
C615 C 0.10915 0.83516 0.72412 0.0
C616 C 0.09056 0.84959 0.6814 0.0
C617 C 0.09158 0.84075 0.6223 0.0
C618 C 0.16987 0.84447 0.38547 0.0
C619 C 0.12658 0.90869 0.47148 0.0
O620 O 0.09014 0.90264 0.28018 0.0
O621 O 0.13977 0.90089 0.28472 0.0
O622 O 0.07231 0.90088 0.39402 0.0
O623 O 0.07941 0.85371 0.398 0.0
O624 O 0.11261 0.83882 0.29974 0.0
O625 O 0.10793 0.80269 0.37241 0.0
O626 O 0.13923 0.81317 0.51377 0.0
O627 O 0.08987 0.81532 0.50737 0.0
O628 O 0.15938 0.81822 0.40234 0.0
O629 O 0.15104 0.86498 0.40116 0.0
O630 O 0.12136 0.88036 0.49063 0.0
O631 O 0.12729 0.91481 0.41447 0.0
H632 H 0.07742 0.91796 0.16192 0.0
H633 H 0.07814 0.89847 0.06369 0.0
H634 H 0.15486 0.83978 0.10984 0.0
H635 H 0.15468 0.86153 0.20692 0.0
H636 H 0.14772 0.78717 0.63053 0.0
H637 H 0.14475 0.80032 0.73363 0.0
H638 H 0.07505 0.86792 0.69254 0.0
H639 H 0.07642 0.85181 0.59155 0.0
H640 H 0.37948 0.92176 0.25548 0.0
H641 H 0.39871 0.97162 0.41506 0.0
H642 H 0.39221 0.01969 0.36355 0.0
H643 H 0.38388 0.04847 0.2719 0.0
H644 H 0.36265 1.0004 0.11229 0.0
H645 H 0.36712 0.95131 0.16429 0.0
C646 C 0.38228 0.94314 0.2788 0.0
C647 C 0.38983 0.94271 0.33918 0.0
C648 C 0.37803 0.97131 0.24882 0.0
C649 C 0.39297 0.97087 0.3687 0.0
C650 C 0.38925 0.99862 0.33925 0.0
C651 C 0.37936 0.02725 0.24903 0.0
C652 C 0.37219 0.02805 0.18876 0.0
C653 C 0.38198 0.9992 0.27928 0.0
C654 C 0.36744 1.00036 0.15908 0.0
C655 C 0.37031 0.97228 0.18874 0.0
H656 H 0.97228 0.63634 0.70001 0.0
H657 H 0.90673 0.61658 0.83791 0.0
H658 H 0.94646 0.62279 0.91202 0.0
H659 H 1.0005 0.63245 0.93856 0.0
H660 H 0.06633 0.65036 0.80138 0.0
H661 H 0.02623 0.64658 0.72671 0.0
C662 C 0.96659 0.63349 0.74627 0.0
C663 C 0.93626 0.62596 0.76293 0.0
C664 C 0.98974 0.63713 0.78915 0.0
C665 C 0.92965 0.62234 0.82333 0.0
C666 C 0.95246 0.62593 0.86599 0.0
C667 C 1.00585 0.63618 0.89237 0.0
C668 C 0.03616 0.64327 0.87579 0.0
C669 C 0.98261 0.63325 0.84956 0.0
C670 C 0.04297 0.64679 0.81561 0.0
C671 C 0.02005 0.64402 0.77279 0.0
H672 H 0.67583 0.98419 0.24046 0.0
H673 H 0.59986 1.00513 0.12716 0.0
H674 H 0.59247 0.05361 0.17814 0.0
H675 H 0.60354 0.08789 0.26232 0.0
H676 H 0.6706 0.05971 0.39004 0.0
H677 H 0.68326 0.01492 0.3306 0.0
C678 C 0.6566 0.99812 0.22853 0.0
C679 C 0.63748 0.98954 0.18134 0.0
C680 C 0.65035 0.02475 0.26201 0.0
C681 C 0.61468 0.01044 0.16383 0.0
C682 C 0.61023 0.03824 0.19333 0.0
C683 C 0.62115 0.07211 0.27669 0.0
C684 C 0.63653 0.07764 0.33002 0.0
C685 C 0.62729 0.04532 0.24364 0.0
C686 C 0.65866 0.05635 0.34883 0.0
C687 C 0.66597 0.03065 0.31473 0.0
H688 H 0.02025 0.37615 0.9412 0.0
H689 H 0.95254 0.3751 0.80508 0.0
H690 H 0.99255 0.37941 0.72921 0.0
H691 H 0.0473 0.38575 0.7019 0.0
H692 H 0.11449 0.39106 0.84032 0.0
H693 H 0.07469 0.38306 0.91425 0.0
C694 C 0.0144 0.37603 0.89481 0.0
C695 C 0.98349 0.37325 0.87845 0.0
C696 C 0.03765 0.37977 0.8517 0.0
C697 C 0.9762 0.37491 0.8184 0.0
C698 C 0.99912 0.37805 0.77514 0.0
C699 C 0.05329 0.38497 0.7482 0.0
C700 C 0.08413 0.38898 0.76509 0.0
C701 C 0.03002 0.38064 0.7912 0.0
C702 C 0.09115 0.38812 0.82556 0.0
C703 C 0.06831 0.38346 0.86816 0.0
H704 H 0.41607 0.50433 0.15823 0.0
H705 H 0.32343 0.48209 0.11148 0.0
H706 H 0.32355 0.52275 1.03704 0.0
H707 H 0.35053 0.56593 0.98542 0.0
H708 H 0.43605 0.59699 0.05723 0.0
H709 H 0.43793 0.5528 0.12258 0.0
C710 C 0.39576 0.50839 0.13207 0.0
C711 C 0.37073 0.48824 0.13718 0.0
C712 C 0.39472 0.534 0.09408 0.0
C713 C 0.34405 0.49535 0.10525 0.0
C714 C 0.34387 0.51913 0.06335 0.0
C715 C 0.3695 0.56299 1.01552 0.0
C716 C 0.39379 0.58429 1.01472 0.0
C717 C 0.36928 0.53857 0.05688 0.0
C718 C 0.41762 0.5806 0.05542 0.0
C719 C 0.41861 0.55534 0.09322 0.0
H720 H 0.59186 0.66033 1.01966 0.0
H721 H 0.5555 0.59008 0.13337 0.0
H722 H 0.50745 0.59049 0.07929 0.0
H723 H 0.47627 0.60892 0.99677 0.0
H724 H 0.50826 0.68359 0.89001 0.0
H725 H 0.55737 0.68314 0.94281 0.0
C726 C 0.57349 0.64495 1.03196 0.0
C727 C 0.57766 0.62459 0.0796 0.0
C728 C 0.5451 0.64605 1.00165 0.0
C729 C 0.55318 0.60556 0.09631 0.0
C730 C 0.52559 0.60582 0.06548 0.0
C731 C 0.49375 0.62545 0.98581 0.0
C732 C 0.48857 0.64618 0.93948 0.0
C733 C 0.52134 0.62573 1.01778 0.0
C734 C 0.51158 0.66744 0.92562 0.0
C735 C 0.53974 0.66706 0.95571 0.0
H736 H 0.63644 0.49819 0.18492 0.0
H737 H 0.63821 0.56542 0.04654 0.0
H738 H 0.63524 0.52539 0.97221 0.0
H739 H 0.62946 0.47046 0.94594 0.0
H740 H 0.62204 0.40416 0.08632 0.0
H741 H 0.6293 0.44404 0.15924 0.0
C742 C 0.63687 0.50398 0.13842 0.0
C743 C 0.63976 0.5348 0.1216 0.0
C744 C 0.63349 0.48073 0.09575 0.0
C745 C 0.63841 0.54195 0.06112 0.0
C746 C 0.636 0.51893 1.01833 0.0
C747 C 0.62962 0.46473 0.99245 0.0
C748 C 0.62523 0.43408 1.01018 0.0
C749 C 0.63335 0.48813 1.03501 0.0
C750 C 0.62521 0.42736 0.07091 0.0
C751 C 0.62947 0.45025 0.11297 0.0
H752 H 0.42809 0.35572 1.02838 0.0
H753 H 0.46125 0.42915 0.13661 0.0
H754 H 0.50958 0.42966 0.08198 0.0
H755 H 0.54205 0.41058 1.00078 0.0
H756 H 0.51218 0.33344 0.89912 0.0
H757 H 0.46332 0.33281 0.95338 0.0
C758 C 0.44588 0.37189 1.03949 0.0
C759 C 0.44082 0.39288 0.08549 0.0
C760 C 0.47428 0.37136 1.00901 0.0
C761 C 0.46443 0.41309 0.10078 0.0
C762 C 0.49212 0.41337 0.06964 0.0
C763 C 0.52485 0.39356 0.99077 0.0
C764 C 0.53044 0.37239 0.94542 0.0
C765 C 0.49724 0.39283 1.02329 0.0
C766 C 0.50831 0.35003 0.93373 0.0
C767 C 0.48032 0.34978 0.96459 0.0
H768 H 0.86621 0.42529 0.76477 0.0
H769 H 0.92207 0.46745 0.89781 0.0
H770 H 0.92001 0.51595 0.84546 0.0
H771 H 0.90421 0.54663 0.75972 0.0
H772 H 0.84484 0.50721 0.62994 0.0
H773 H 0.84625 0.458 0.68245 0.0
C774 C 0.87813 0.44503 0.7818 0.0
C775 C 0.89481 0.44235 0.83476 0.0
C776 C 0.87612 0.47361 0.75201 0.0
C777 C 0.90936 0.46857 0.85697 0.0
C778 C 0.90816 0.49648 0.82708 0.0
C779 C 0.89126 0.52733 0.74337 0.0
C780 C 0.87446 0.53058 0.69092 0.0
C781 C 0.89181 0.49931 0.77438 0.0
C782 C 0.8577 0.50542 0.67048 0.0
C783 C 0.85874 0.47717 0.70032 0.0
H784 H 0.49997 0.14136 0.43898 0.0
H785 H 0.56872 0.13612 0.30301 0.0
H786 H 0.52911 0.131 0.22797 0.0
H787 H 0.47423 0.12574 0.20073 0.0
H788 H 0.40573 0.12852 0.33845 0.0
H789 H 0.44531 0.1369 0.4118 0.0
C790 C 0.50621 0.13979 0.39276 0.0
C791 C 0.53744 0.14038 0.37667 0.0
C792 C 0.48307 0.13604 0.34971 0.0
C793 C 0.54503 0.13706 0.3167 0.0
C794 C 0.52224 0.13372 0.27364 0.0
C795 C 0.46791 0.1283 0.24674 0.0
C796 C 0.4367 0.12633 0.26353 0.0
C797 C 0.49109 0.1329 0.28953 0.0
C798 C 0.42932 0.12967 0.32369 0.0
C799 C 0.45206 0.13457 0.366 0.0
H800 H 0.11341 0.59244 0.75563 0.0
H801 H 0.15716 0.55504 0.90995 0.0
H802 H 0.16811 0.50804 0.85785 0.0
H803 H 0.16265 0.47534 0.7698 0.0
H804 H 0.11714 0.51078 0.61685 0.0
H805 H 0.1097 0.56002 0.666 0.0
C806 C 0.12566 0.57413 0.77749 0.0
C807 C 0.13432 0.5776 0.83687 0.0
C808 C 0.13173 0.54643 0.74715 0.0
C809 C 0.14991 0.55327 0.8645 0.0
C810 C 0.15635 0.52614 0.83457 0.0
C811 C 0.15219 0.49417 0.74662 0.0
C812 C 0.14149 0.48962 0.68898 0.0
C813 C 0.14718 0.52223 0.77601 0.0
C814 C 0.12627 0.51387 0.66073 0.0
C815 C 0.12179 0.54201 0.68904 0.0
H816 H 0.59166 0.90416 0.32556 0.0
H817 H 0.55495 0.857 0.17495 0.0
H818 H 0.50781 0.84653 0.22896 0.0
H819 H 0.47545 0.8527 0.31818 0.0
H820 H 0.51024 0.90323 0.4655 0.0
H821 H 0.55939 0.90965 0.41493 0.0
C822 C 0.57353 0.89126 0.30483 0.0
C823 C 0.57722 0.88138 0.24612 0.0
C824 C 0.54591 0.88564 0.33602 0.0
C825 C 0.55305 0.86502 0.21997 0.0
C826 C 0.52591 0.8589 0.25094 0.0
C827 C 0.49392 0.86456 0.33954 0.0
C828 C 0.48914 0.87702 0.39603 0.0
C829 C 0.52189 0.86928 0.30894 0.0
C830 C 0.51331 0.89307 0.42237 0.0
C831 C 0.54144 0.89693 0.39326 0.0
H832 H 0.8719 0.01856 0.68842 0.0
H833 H 0.88313 0.95088 0.55344 0.0
H834 H 0.88737 0.99082 0.47808 0.0
H835 H 0.89085 0.04566 0.45118 0.0
H836 H 0.88541 0.11331 0.58891 0.0
H837 H 0.87662 0.0733 0.66193 0.0
C838 C 0.8745 0.01265 0.64227 0.0
C839 C 0.87512 0.98163 0.6259 0.0
C840 C 0.87869 0.03601 0.59962 0.0
C841 C 0.88039 0.97442 0.56646 0.0
C842 C 0.88349 0.99737 0.52355 0.0
C843 C 0.88757 0.05172 0.4971 0.0
C844 C 0.88871 0.08277 0.51405 0.0
C845 C 0.88295 0.02835 0.53958 0.0
C846 C 0.88469 0.08983 0.57411 0.0
C847 C 0.87957 0.06686 0.61616 0.0
H848 H 0.07246 0.17373 0.58043 0.0
H849 H 0.08233 0.07607 0.56983 0.0
H850 H 0.0374 0.07288 0.50713 0.0
H851 H 0.99509 0.09742 0.45449 0.0
H852 H 0.9846 0.19515 0.4609 0.0
H853 H 0.02906 0.19876 0.5263 0.0
C854 C 0.06483 0.15186 0.56386 0.0
C855 C 0.08158 0.1252 0.5781 0.0
C856 C 0.03848 0.15018 0.52743 0.0
C857 C 0.07089 0.09699 0.55748 0.0
C858 C 0.04483 0.09512 0.52214 0.0
C859 C 1.00251 0.1196 0.46996 0.0
C860 C 0.98612 0.14595 0.45296 0.0
C861 C 0.02854 0.12152 0.50641 0.0
C862 C 0.99631 0.17441 0.47372 0.0
C863 C 0.02196 0.17648 0.51095 0.0
H864 H 0.12761 0.97097 0.453 0.0
H865 H 0.13624 0.90305 0.58994 0.0
H866 H 0.14367 0.94311 0.66305 0.0
H867 H 0.14642 0.99801 0.68977 0.0
H868 H 0.13405 0.06537 0.55351 0.0
H869 H 0.12975 0.02565 0.47979 0.0
C870 C 0.13131 0.96485 0.49876 0.0
C871 C 0.13152 0.93375 0.51545 0.0
C872 C 0.13516 0.9882 0.54125 0.0
C873 C 0.13599 0.92661 0.57534 0.0
C874 C 0.14029 0.94961 0.61744 0.0
C875 C 0.14336 1.00397 0.64377 0.0
C876 C 0.14183 0.03506 0.62756 0.0
C877 C 0.13987 0.98056 0.60113 0.0
C878 C 0.13647 0.04205 0.56787 0.0
C879 C 0.1337 0.01911 0.52524 0.0
H880 H 1.00271 0.85602 0.40696 0.0
H881 H 0.06702 0.89607 0.52695 0.0
H882 H 0.02695 0.90195 0.60135 0.0
H883 H 0.97235 0.89944 0.63024 0.0
H884 H 0.90656 0.86552 0.5057 0.0
H885 H 0.94776 0.85389 0.43575 0.0
C886 C 1.00799 0.86531 0.44998 0.0
C887 C 0.03826 0.87425 0.46231 0.0
C888 C 0.98417 0.87038 0.49158 0.0
C889 C 0.04434 0.88777 0.51709 0.0
C890 C 0.02123 0.89156 0.55953 0.0
C891 C 0.96705 0.88932 0.58792 0.0
C892 C 0.93626 0.8834 0.57337 0.0
C893 C 0.9909 0.88346 0.547 0.0
C894 C 0.92992 0.87056 0.51801 0.0
C895 C 0.95356 0.86378 0.47796 0.0
H896 H 0.30669 0.21204 0.15728 0.0
H897 H 0.40394 0.19562 0.1549 0.0
H898 H 0.41337 0.25037 0.16975 0.0
H899 H 0.39327 0.30417 0.1755 0.0
H900 H 0.29558 0.31782 0.18323 0.0
H901 H 0.28713 0.26325 0.17487 0.0
C902 C 0.33001 0.22035 0.15987 0.0
C903 C 0.35454 0.19975 0.15363 0.0
C904 C 0.3352 0.25158 0.17003 0.0
C905 C 0.38458 0.21104 0.15806 0.0
C906 C 0.38998 0.24236 0.16715 0.0
C907 C 0.37028 0.29499 0.17811 0.0
C908 C 0.34509 0.31515 0.18119 0.0
C909 C 0.36542 0.26304 0.17267 0.0
C910 C 0.31537 0.30285 0.18233 0.0
C911 C 0.31045 0.2716 0.17657 0.0
H912 H 0.3047 0.6404 0.85748 0.0
H913 H 0.32448 0.70973 0.98663 0.0
H914 H 0.27107 0.71164 1.01599 0.0
H915 H 0.2177 0.69683 1.00093 0.0
H916 H 0.19633 0.6272 0.87413 0.0
H917 H 0.25062 0.62239 0.84784 0.0
C918 C 0.29723 0.65571 0.89222 0.0
C919 C 0.31859 0.67532 0.91881 0.0
C920 C 0.26597 0.65682 0.90932 0.0
C921 C 0.30855 0.69487 0.96423 0.0
C922 C 0.27791 0.69594 0.98144 0.0
C923 C 0.22509 0.6801 0.9686 0.0
C924 C 0.20315 0.66209 0.94041 0.0
C925 C 0.25631 0.67749 0.9537 0.0
C926 C 0.2129 0.64086 0.89765 0.0
C927 C 0.24396 0.63831 0.88212 0.0
H928 H 0.68353 0.80277 0.24301 0.0
H929 H 0.63148 0.81924 0.08509 0.0
H930 H 0.62088 0.76415 0.07756 0.0
H931 H 0.63144 0.71094 0.11116 0.0
H932 H 0.68291 0.69612 0.27003 0.0
H933 H 0.68855 0.75128 0.28263 0.0
C934 C 0.66965 0.79447 0.20696 0.0
C935 C 0.65872 0.81504 0.16396 0.0
C936 C 0.66339 0.76315 0.20369 0.0
C937 C 0.64048 0.80385 0.11818 0.0
C938 C 0.63437 0.77241 0.11413 0.0
C939 C 0.64257 0.71998 0.15001 0.0
C940 C 0.65592 0.69964 0.19082 0.0
C941 C 0.64615 0.7518 0.15618 0.0
C942 C 0.6714 0.71137 0.23964 0.0
C943 C 0.67513 0.74287 0.24606 0.0
H944 H 0.80125 0.31047 0.94404 0.0
H945 H 0.82185 0.4065 0.93168 0.0
H946 H 0.76777 0.41773 0.91294 0.0
H947 H 0.71377 0.4002 0.90485 0.0
H948 H 0.69437 0.30397 0.91385 0.0
H949 H 0.74865 0.2928 0.92858 0.0
C950 C 0.79391 0.33392 0.93771 0.0
C951 C 0.81558 0.35766 0.9405 0.0
C952 C 0.76294 0.3401 0.9255 0.0
C953 C 0.80563 0.38784 0.93124 0.0
C954 C 0.77472 0.39424 0.91986 0.0
C955 C 0.72171 0.37678 0.90791 0.0
C956 C 0.70026 0.35285 0.9065 0.0
C957 C 0.75309 0.37056 0.91706 0.0
C958 C 0.71061 0.32263 0.91266 0.0
C959 C 0.74158 0.3163 0.92209 0.0
H960 H 0.84143 0.71806 0.57137 0.0
H961 H 0.86984 0.68943 0.74428 0.0
H962 H 0.873 0.74274 0.77616 0.0
H963 H 0.86395 0.79803 0.75663 0.0
H964 H 0.83764 0.8261 0.58194 0.0
H965 H 0.83788 0.77313 0.5489 0.0
C966 C 0.84886 0.72363 0.6156 0.0
C967 C 0.85556 0.69995 0.65526 0.0
C968 C 0.85086 0.75441 0.63351 0.0
C969 C 0.86492 0.70737 0.71273 0.0
C970 C 0.86655 0.73786 0.7311 0.0
C971 C 0.85874 0.79246 0.71124 0.0
C972 C 0.85041 0.81591 0.672 0.0
C973 C 0.85908 0.76167 0.69221 0.0
C974 C 0.84379 0.80839 0.61315 0.0
C975 C 0.84389 0.77808 0.59416 0.0
H976 H 0.81347 0.14334 0.46649 0.0
H977 H 0.81252 0.1927 0.30206 0.0
H978 H 0.75655 0.19438 0.30468 0.0
H979 H 0.70818 0.18591 0.35766 0.0
H980 H 0.70786 0.13776 0.52331 0.0
H981 H 0.76382 0.13156 0.51688 0.0
C982 C 0.80085 0.1537 0.43057 0.0
C983 C 0.81701 0.16742 0.38338 0.0
C984 C 0.7685 0.15534 0.43336 0.0
C985 C 0.80053 0.18162 0.33813 0.0
C986 C 0.76855 0.18279 0.33994 0.0
C987 C 0.72037 0.17391 0.39225 0.0
C988 C 0.70403 0.16261 0.44135 0.0
C989 C 0.75235 0.17043 0.38797 0.0
C990 C 0.72 0.14673 0.48531 0.0
C991 C 0.75197 0.14324 0.48154 0.0
H992 H 0.13827 0.31089 0.70153 0.0
H993 H 0.20887 0.3173 0.56827 0.0
H994 H 0.21361 0.26202 0.56628 0.0
H995 H 0.20004 0.21292 0.6036 0.0
H996 H 0.13019 0.20213 0.73701 0.0
H997 H 0.12302 0.25827 0.7387 0.0
C998 C 0.15404 0.29995 0.67112 0.0
C999 C 0.17284 0.3181 0.6339 0.0
C1000 C 0.15718 0.26765 0.67118 0.0
C1001 C 0.1939 0.30382 0.59628 0.0
C1002 C 0.19679 0.27223 0.59554 0.0
C1003 C 0.18301 0.22247 0.63329 0.0
C1004 C 0.16568 0.20312 0.6702 0.0
C1005 C 0.17893 0.25409 0.63317 0.0
C1006 C 0.14395 0.21639 0.70827 0.0
C1007 C 0.1398 0.24848 0.70888 0.0
H1008 H 0.31207 0.82699 0.36284 0.0
H1009 H 0.31144 0.88151 0.52059 0.0
H1010 H 0.25569 0.88839 0.51194 0.0
H1011 H 0.20647 0.87577 0.46209 0.0
H1012 H 0.2084 0.82039 0.30537 0.0
H1013 H 0.26426 0.81755 0.30992 0.0
C1014 C 0.29972 0.84043 0.39535 0.0
C1015 C 0.31571 0.85333 0.44295 0.0
C1016 C 0.26791 0.84442 0.38963 0.0
C1017 C 0.29955 0.87119 0.48392 0.0
C1018 C 0.26771 0.87512 0.47884 0.0
C1019 C 0.2193 0.86386 0.42812 0.0
C1020 C 0.20345 0.84874 0.38263 0.0
C1021 C 0.25154 0.86158 0.43214 0.0
C1022 C 0.22018 0.83255 0.34003 0.0
C1023 C 0.25208 0.8307 0.34301 0.0
H1024 H 0.20324 0.08416 0.88089 0.0
H1025 H 0.26705 0.1298 0.76514 0.0
H1026 H 0.30283 0.13542 0.84745 0.0
H1027 H 0.31653 0.12714 0.95179 0.0
H1028 H 0.25296 0.08158 0.06828 0.0
H1029 H 0.21703 0.0759 0.98593 0.0
C1030 C 0.22523 0.0949 0.87307 0.0
C1031 C 0.23246 0.10594 0.81553 0.0
C1032 C 0.2459 0.09802 0.92097 0.0
C1033 C 0.261 0.12017 0.8076 0.0
C1034 C 0.28144 0.12361 0.85505 0.0
C1035 C 0.29485 0.1159 0.95969 0.0
C1036 C 0.2879 0.10474 1.01718 0.0
C1037 C 0.27424 0.11257 0.91189 0.0
C1038 C 0.25928 0.09055 1.02541 0.0
C1039 C 0.23867 0.08721 0.97804 0.0
H1040 H 0.12548 0.70088 0.13332 0.0
H1041 H 0.09295 0.76893 1.01076 0.0
H1042 H 0.08815 0.80565 0.09231 0.0
H1043 H 0.09345 0.81843 0.19921 0.0
H1044 H 0.12536 0.74926 0.32 0.0
H1045 H 0.12982 0.71317 0.2376 0.0
C1046 C 0.11733 0.72374 0.12375 0.0
C1047 C 0.10956 0.73176 0.06496 0.0
C1048 C 0.11443 0.74465 0.17095 0.0
C1049 C 0.09925 0.76179 0.05479 0.0
C1050 C 0.09646 0.78285 0.10173 0.0
C1051 C 0.10128 0.79538 0.20791 0.0
C1052 C 0.10886 0.78677 0.26666 0.0
C1053 C 0.10393 0.77452 0.16015 0.0
C1054 C 0.11885 0.75665 0.27624 0.0
C1055 C 0.1217 0.73602 0.22901 0.0
H1056 H 0.70072 0.92931 0.95076 0.0
H1057 H 0.7672 0.89188 0.07087 0.0
H1058 H 0.80394 0.88686 0.9887 0.0
H1059 H 0.81733 0.89327 0.88372 0.0
H1060 H 0.75032 0.92945 0.76297 0.0
H1061 H 0.71386 0.93501 0.84511 0.0
C1062 C 0.72343 0.92046 0.95968 0.0
C1063 C 0.73117 0.91159 1.0182 0.0
C1064 C 0.74439 0.91746 0.91204 0.0
C1065 C 0.7607 0.89983 1.02752 0.0
C1066 C 0.78165 0.89673 0.98027 0.0
C1067 C 0.79475 0.90238 0.87481 0.0
C1068 C 0.78696 0.91106 0.81627 0.0
C1069 C 0.77379 0.9055 0.92241 0.0
C1070 C 0.7573 0.92258 0.80678 0.0
C1071 C 0.73638 0.9258 0.85399 0.0
H1072 H 0.94865 0.26818 0.06819 0.0
H1073 H 0.85728 0.3043 0.08483 0.0
H1074 H 0.85139 0.27977 0.18076 0.0
H1075 H 0.87175 0.24759 0.26207 0.0
H1076 H 0.96237 0.21002 0.24585 0.0
H1077 H 0.96872 0.23464 0.14943 0.0
C1078 C 0.92706 0.26973 0.09174 0.0
C1079 C 0.90299 0.28741 0.06729 0.0
C1080 C 0.92384 0.25563 0.14852 0.0
C1081 C 0.8758 0.29005 0.10075 0.0
C1082 C 0.87254 0.27634 0.15649 0.0
C1083 C 0.89326 0.24561 0.23833 0.0
C1084 C 0.91715 0.22804 0.26326 0.0
C1085 C 0.89646 0.25932 0.18146 0.0
C1086 C 0.94415 0.22454 0.22964 0.0
C1087 C 0.94759 0.23827 0.17367 0.0
H1088 H 0.31417 0.43348 0.37481 0.0
H1089 H 0.24973 0.38656 0.26386 0.0
H1090 H 0.21488 0.38132 0.34934 0.0
H1091 H 0.20229 0.38984 0.45308 0.0
H1092 H 0.26643 0.43669 0.56481 0.0
H1093 H 0.3017 0.44201 0.48055 0.0
C1094 C 0.29221 0.42251 0.36852 0.0
C1095 C 0.28455 0.4109 0.31181 0.0
C1096 C 0.27221 0.41948 0.41767 0.0
C1097 C 0.25607 0.3965 0.30569 0.0
C1098 C 0.23623 0.39326 0.3546 0.0
C1099 C 0.22395 0.40134 0.45951 0.0
C1100 C 0.23134 0.413 0.5161 0.0
C1101 C 0.24399 0.40462 0.4106 0.0
C1102 C 0.25984 0.42746 0.5225 0.0
C1103 C 0.28 0.43064 0.47399 0.0
H1104 H 0.3959 0.70103 0.70026 0.0
H1105 H 0.43384 0.76818 0.81794 0.0
H1106 H 0.43839 0.80418 0.73523 0.0
H1107 H 0.43134 0.8167 0.62973 0.0
H1108 H 0.39345 0.74955 0.51212 0.0
H1109 H 0.38943 0.71346 0.59456 0.0
C1110 C 0.4053 0.72348 0.70825 0.0
C1111 C 0.41464 0.73155 0.76614 0.0
C1112 C 0.4081 0.74399 0.66016 0.0
C1113 C 0.42649 0.76103 0.77461 0.0
C1114 C 0.42916 0.78165 0.72703 0.0
C1115 C 0.4225 0.79399 0.62169 0.0
C1116 C 0.41294 0.78596 0.56394 0.0
C1117 C 0.42014 0.77334 0.66961 0.0
C1118 C 0.40155 0.75638 0.55516 0.0
C1119 C 0.39902 0.73575 0.6027 0.0
H1120 H 0.76433 0.58407 0.29574 0.0
H1121 H 0.68867 0.63645 0.36494 0.0
H1122 H 0.71238 0.63824 0.4613 0.0
H1123 H 0.7553 0.62577 0.52903 0.0
H1124 H 0.83213 0.57524 0.45989 0.0
H1125 H 0.80812 0.57255 0.36346 0.0
C1126 C 0.75334 0.59643 0.3314 0.0
C1127 C 0.72436 0.61009 0.32179 0.0
C1128 C 0.76741 0.59758 0.38845 0.0
C1129 C 0.71078 0.62555 0.37005 0.0
C1130 C 0.72433 0.62655 0.42593 0.0
C1131 C 0.76642 0.61345 0.49345 0.0
C1132 C 0.79547 0.60014 0.50328 0.0
C1133 C 0.75257 0.61242 0.43637 0.0
C1134 C 0.80961 0.58529 0.45488 0.0
C1135 C 0.79593 0.58391 0.39893 0.0
H1136 H 0.60011 0.19514 0.6379 0.0
H1137 H 0.61494 0.26728 0.51127 0.0
H1138 H 0.61691 0.30444 0.59266 0.0
H1139 H 0.61491 0.31661 0.69747 0.0
H1140 H 0.60053 0.24494 0.82542 0.0
H1141 H 0.59777 0.20753 0.74475 0.0
C1142 C 0.60365 0.21903 0.62746 0.0
C1143 C 0.6072 0.22817 0.56743 0.0
C1144 C 0.60494 0.24036 0.67448 0.0
C1145 C 0.61172 0.25938 0.55605 0.0
C1146 C 0.61304 0.28063 0.60261 0.0
C1147 C 0.61119 0.29281 0.70841 0.0
C1148 C 0.60787 0.28396 0.76847 0.0
C1149 C 0.60976 0.27141 0.66181 0.0
C1150 C 0.6033 0.25275 0.78039 0.0
C1151 C 0.60171 0.23129 0.73401 0.0
H1152 H 0.3831 0.11222 0.54044 0.0
H1153 H 0.28488 0.11532 0.56109 0.0
H1154 H 0.29029 0.11632 0.66796 0.0
H1155 H 0.3232 0.11483 0.75655 0.0
H1156 H 0.42099 0.10949 0.7353 0.0
H1157 H 0.41559 0.11047 0.6281 0.0
C1158 C 0.36284 0.11294 0.56824 0.0
C1159 C 0.33364 0.11386 0.54242 0.0
C1160 C 0.36608 0.11305 0.62986 0.0
C1161 C 0.3077 0.11517 0.57947 0.0
C1162 C 0.31074 0.11553 0.6408 0.0
C1163 C 0.34318 0.1142 0.72828 0.0
C1164 C 0.37242 0.11219 0.75345 0.0
C1165 C 0.33983 0.1144 0.66657 0.0
C1166 C 0.39827 0.11091 0.71658 0.0
C1167 C 0.39519 0.1115 0.6554 0.0
H1168 H 0.14387 0.70268 0.51727 0.0
H1169 H 0.07546 0.6357 0.56397 0.0
H1170 H 0.07126 0.62065 0.46106 0.0
H1171 H 0.08739 0.62579 0.35878 0.0
H1172 H 0.15763 0.69082 0.31178 0.0
H1173 H 0.16126 0.70671 0.41425 0.0
C1174 C 0.1283 0.68454 0.50506 0.0
C1175 C 0.10985 0.67051 0.54829 0.0
C1176 C 0.12634 0.6756 0.44587 0.0
C1177 C 0.08951 0.64731 0.53151 0.0
C1178 C 0.08724 0.63851 0.47273 0.0
C1179 C 0.10317 0.64382 0.37054 0.0
C1180 C 0.12143 0.65771 0.32692 0.0
C1181 C 0.10547 0.65256 0.42961 0.0
C1182 C 0.14276 0.68004 0.34385 0.0
C1183 C 0.14494 0.68914 0.40264 0.0
H1184 H 0.69489 0.94354 0.56216 0.0
H1185 H 0.6691 0.85009 0.52932 0.0
H1186 H 0.65778 0.84299 0.63427 0.0
H1187 H 0.65168 0.86468 0.73367 0.0
H1188 H 0.67667 0.95862 0.76456 0.0
H1189 H 0.69081 0.96447 0.66116 0.0
C1190 C 0.6866 0.92163 0.57778 0.0
C1191 C 0.68252 0.89749 0.53788 0.0
C1192 C 0.67961 0.91795 0.63756 0.0
C1193 C 0.67259 0.86901 0.55917 0.0
C1194 C 0.6659 0.86502 0.61905 0.0
C1195 C 0.66078 0.88626 0.71804 0.0
C1196 C 0.66296 0.91122 0.75676 0.0
C1197 C 0.66892 0.88949 0.65846 0.0
C1198 C 0.67432 0.93918 0.73553 0.0
C1199 C 0.68257 0.94251 0.6765 0.0
H1200 H 0.91204 0.39891 0.35897 0.0
H1201 H 0.89438 0.30678 0.30225 0.0
H1202 H 0.89161 0.28985 0.40529 0.0
H1203 H 0.89485 0.3016 0.51182 0.0
H1204 H 0.91295 0.39402 0.56662 0.0
H1205 H 0.91494 0.41062 0.46386 0.0
C1206 C 0.90785 0.37507 0.36919 0.0
C1207 C 0.90363 0.35406 0.32332 0.0
C1208 C 0.90623 0.36567 0.4281 0.0
C1209 C 0.89759 0.32335 0.33702 0.0
C1210 C 0.89606 0.3137 0.39581 0.0
C1211 C 0.89897 0.32538 0.50102 0.0
C1212 C 0.90382 0.3466 0.54646 0.0
C1213 C 0.90031 0.33471 0.44175 0.0
C1214 C 0.90943 0.3773 0.53221 0.0
C1215 C 0.91053 0.38678 0.47359 0.0
H1216 H 0.39457 0.41685 0.60423 0.0
H1217 H 0.30639 0.38133 0.55473 0.0
H1218 H 0.29124 0.37863 0.6588 0.0
H1219 H 0.3026 0.38911 0.76393 0.0
H1220 H 0.39135 0.42473 0.81004 0.0
H1221 H 0.40654 0.4252 0.70677 0.0
C1222 C 0.37182 0.40893 0.61596 0.0
C1223 C 0.35134 0.40013 0.57177 0.0
C1224 C 0.3634 0.40749 0.67527 0.0
C1225 C 0.32246 0.38864 0.58796 0.0
C1226 C 0.31381 0.38708 0.64741 0.0
C1227 C 0.3254 0.39645 0.75124 0.0
C1228 C 0.34573 0.40715 0.79433 0.0
C1229 C 0.33405 0.39673 0.69147 0.0
C1230 C 0.37517 0.41681 0.77748 0.0
C1231 C 0.3839 0.41704 0.71854 0.0
H1232 H 0.44767 0.67947 0.30786 0.0
H1233 H 0.3496 0.67701 0.28709 0.0
H1234 H 0.34336 0.66567 0.3919 0.0
H1235 H 0.3658 0.65338 0.48778 0.0
H1236 H 0.46391 0.65995 0.50969 0.0
H1237 H 0.46984 0.67105 0.40563 0.0
C1238 C 0.42491 0.67615 0.32602 0.0
C1239 C 0.3992 0.6788 0.28914 0.0
C1240 C 0.42143 0.66971 0.38649 0.0
C1241 C 0.36986 0.67523 0.31416 0.0
C1242 C 0.36626 0.66857 0.37417 0.0
C1243 C 0.38854 0.65785 0.47077 0.0
C1244 C 0.41432 0.65496 0.50781 0.0
C1245 C 0.39191 0.66548 0.4107 0.0
C1246 C 0.44348 0.66065 0.48305 0.0
C1247 C 0.447 0.66747 0.42318 0.0
H1248 H 0.64571 0.58634 0.79037 0.0
H1249 H 0.71971 0.65129 0.77778 0.0
H1250 H 0.71144 0.65594 0.6719 0.0
H1251 H 0.68443 0.63991 0.5816 0.0
H1252 H 0.61256 0.57279 0.59526 0.0
H1253 H 0.61982 0.56966 0.70138 0.0
C1254 C 0.66043 0.60121 0.76465 0.0
C1255 C 0.68339 0.61831 0.79261 0.0
C1256 C 0.65626 0.60306 0.70349 0.0
C1257 C 0.70151 0.63812 0.7581 0.0
C1258 C 0.69703 0.64059 0.69723 0.0
C1259 C 0.67034 0.6247 0.60796 0.0
C1260 C 0.64816 0.60643 0.58046 0.0
C1261 C 0.67462 0.62297 0.66933 0.0
C1262 C 0.63018 0.58668 0.61512 0.0
C1263 C 0.63412 0.58506 0.67593 0.0
H1264 H 0.62043 0.32342 0.50132 0.0
H1265 H 0.60972 0.42036 0.47834 0.0
H1266 H 0.61032 0.41404 0.37112 0.0
H1267 H 0.61302 0.38071 0.28398 0.0
H1268 H 0.61906 0.28302 0.30825 0.0
H1269 H 0.62139 0.28983 0.41436 0.0
C1270 C 0.61825 0.34306 0.47292 0.0
C1271 C 0.61499 0.37226 0.49769 0.0
C1272 C 0.61779 0.33911 0.41137 0.0
C1273 C 0.61215 0.39762 0.46013 0.0
C1274 C 0.61248 0.39401 0.39889 0.0
C1275 C 0.61458 0.36083 0.31233 0.0
C1276 C 0.61622 0.33137 0.28736 0.0
C1277 C 0.61504 0.3648 0.37394 0.0
C1278 C 0.61857 0.30605 0.32548 0.0
C1279 C 0.61959 0.30988 0.38657 0.0
H1280 H 0.80869 0.62937 0.06797 0.0
H1281 H 0.89538 0.58986 1.01544 0.0
H1282 H 0.91141 0.58811 0.11764 0.0
H1283 H 0.90193 0.59847 0.22169 0.0
H1284 H 0.81606 0.63852 0.27646 0.0
H1285 H 0.79943 0.6406 0.1737 0.0
C1286 C 0.83126 0.62071 0.07856 0.0
C1287 C 0.85049 0.60938 1.03314 0.0
C1288 C 0.84077 0.62018 0.13805 0.0
C1289 C 0.87955 0.59802 0.04876 0.0
C1290 C 0.88897 0.59725 0.10748 0.0
C1291 C 0.87935 0.60725 0.21158 0.0
C1292 C 0.86032 0.61811 0.25739 0.0
C1293 C 0.86979 0.60815 0.15247 0.0
C1294 C 0.83145 0.6302 0.24249 0.0
C1295 C 0.8218 0.63124 0.18357 0.0
H1296 H 0.63196 0.18966 0.82866 0.0
H1297 H 0.58922 0.10153 0.85052 0.0
H1298 H 0.58865 0.10807 0.95683 0.0
H1299 H 0.60083 0.13806 0.04389 0.0
H1300 H 0.64177 0.2271 1.02373 0.0
H1301 H 0.64333 0.22049 0.91691 0.0
C1302 C 0.62251 0.17192 0.85669 0.0
C1303 C 0.61022 0.14534 0.83135 0.0
C1304 C 0.62228 0.17577 0.91828 0.0
C1305 C 0.59816 0.12256 0.86854 0.0
C1306 C 0.59806 0.12612 0.92951 0.0
C1307 C 0.60979 0.15623 1.01626 0.0
C1308 C 0.62117 0.183 0.04213 0.0
C1309 C 0.61001 0.1526 0.95486 0.0
C1310 C 0.6333 0.20598 1.00532 0.0
C1311 C 0.63396 0.20235 0.94407 0.0
H1312 H 0.12505 0.43032 0.22833 0.0
H1313 H 0.19222 0.36137 0.27093 0.0
H1314 H 0.20887 0.35989 0.16871 0.0
H1315 H 0.20478 0.37846 0.06677 0.0
H1316 H 0.13338 0.44293 1.02281 0.0
H1317 H 0.11859 0.44617 0.12604 0.0
C1318 C 0.14368 0.41527 0.21571 0.0
C1319 C 0.15819 0.39708 0.25857 0.0
C1320 C 0.15244 0.41364 0.15619 0.0
C1321 C 0.18121 0.37658 0.2401 0.0
C1322 C 0.19066 0.37548 0.18118 0.0
C1323 C 0.18566 0.39289 0.07935 0.0
C1324 C 0.17059 0.41072 1.03653 0.0
C1325 C 0.17647 0.39396 0.13882 0.0
C1326 C 0.14609 0.42953 0.05452 0.0
C1327 C 0.13735 0.43123 0.11367 0.0
H1328 H 0.36484 0.83972 1.0278 0.0
H1329 H 0.46311 0.84108 0.04669 0.0
H1330 H 0.46911 0.84907 0.94091 0.0
H1331 H 0.44657 0.85572 0.84329 0.0
H1332 H 0.3483 0.85529 0.82453 0.0
H1333 H 0.34231 0.8451 0.92962 0.0
C1334 C 0.38758 0.8414 1.00873 0.0
C1335 C 0.41346 0.83996 0.04522 0.0
C1336 C 0.39092 0.8456 0.94777 0.0
C1337 C 0.44276 0.84268 1.01981 0.0
C1338 C 0.44625 0.84694 0.95924 0.0
C1339 C 0.42383 0.85351 0.86219 0.0
C1340 C 0.39797 0.85638 0.82607 0.0
C1341 C 0.4205 0.84851 0.92287 0.0
C1342 C 0.36866 0.85277 0.8511 0.0
C1343 C 0.36518 0.84731 0.91135 0.0
H1344 H 0.88242 0.89859 0.29261 0.0
H1345 H 0.78434 0.90334 0.27464 0.0
H1346 H 0.78956 0.9049 0.16739 0.0
H1347 H 0.82237 0.90564 0.07833 0.0
H1348 H 0.92012 0.89939 0.09599 0.0
H1349 H 0.91497 0.89788 0.20357 0.0
C1350 C 0.86225 0.89989 0.26504 0.0
C1351 C 0.83304 0.90068 0.29131 0.0
C1352 C 0.86543 0.90049 0.20338 0.0
C1353 C 0.80704 0.90227 0.25526 0.0
C1354 C 0.81002 0.9033 0.19396 0.0
C1355 C 0.84235 0.90346 0.10585 0.0
C1356 C 0.8715 0.90227 0.07981 0.0
C1357 C 0.83909 0.90238 0.16749 0.0
C1358 C 0.89747 0.90022 0.11562 0.0
C1359 C 0.89451 0.89937 0.17692 0.0
H1360 H 0.94012 0.17618 0.99857 0.0
H1361 H 0.85182 0.13235 1.00169 0.0
H1362 H 0.84645 0.14083 0.89594 0.0
H1363 H 0.8677 0.15881 0.80133 0.0
H1364 H 0.95601 0.20266 0.79816 0.0
H1365 H 0.96064 0.19568 0.90446 0.0
C1366 C 0.91971 0.16851 0.97607 0.0
C1367 C 0.89639 0.15372 1.00821 0.0
C1368 C 0.91686 0.1732 0.91493 0.0
C1369 C 0.86994 0.14421 0.97836 0.0
C1370 C 0.86693 0.14882 0.91768 0.0
C1371 C 0.88785 0.16704 0.82396 0.0
C1372 C 0.91163 0.18091 0.79149 0.0
C1373 C 0.89034 0.16307 0.88537 0.0
C1374 C 0.93765 0.19129 0.82169 0.0
C1375 C 0.94024 0.18751 0.88265 0.0
H1376 H 0.14767 0.15016 0.10117 0.0
H1377 H 0.18204 0.05956 0.06503 0.0
H1378 H 0.19644 0.05358 0.16792 0.0
H1379 H 0.19825 0.07332 0.26857 0.0
H1380 H 0.16303 0.16337 0.30616 0.0
H1381 H 0.15087 0.17058 0.20202 0.0
C1382 C 0.15878 0.12929 0.1155 0.0
C1383 C 0.16368 0.10536 0.07506 0.0
C1384 C 0.16689 0.12587 0.17509 0.0
C1385 C 0.17765 0.07829 0.09499 0.0
C1386 C 0.18599 0.07484 0.15393 0.0
C1387 C 0.18766 0.09445 0.25423 0.0
C1388 C 0.18141 0.11765 0.29548 0.0
C1389 C 0.18037 0.09831 0.19448 0.0
C1390 C 0.16835 0.14517 0.27552 0.0
C1391 C 0.16121 0.14926 0.21595 0.0
H1392 H 0.14976 0.82329 0.81597 0.0
H1393 H 0.06121 0.86473 0.78245 0.0
H1394 H 0.05672 0.87793 0.88466 0.0
H1395 H 0.07547 0.87566 0.98365 0.0
H1396 H 0.16321 0.83289 1.0191 0.0
H1397 H 0.16764 0.81921 0.91703 0.0
C1398 C 0.12895 0.83453 0.83004 0.0
C1399 C 0.10619 0.84296 0.7888 0.0
C1400 C 0.12545 0.84101 0.89047 0.0
C1401 C 0.08004 0.85844 0.81055 0.0
C1402 C 0.07698 0.86568 0.87012 0.0
C1403 C 0.09621 0.86412 0.97049 0.0
C1404 C 0.11917 0.85656 1.01188 0.0
C1405 C 0.09945 0.85696 0.91049 0.0
C1406 C 0.14468 0.83972 0.99082 0.0
C1407 C 0.14762 0.83193 0.93127 0.0
loop_
_geom_bond_atom_site_label_1
_geom_bond_atom_site_label_2
_geom_bond_distance
_geom_bond_site_symmetry_2
_ccdc_geom_bond_type
La0 C2 2.928 . S
La0 O20 2.521 . S
La0 O21 2.628 . S
La0 O22 2.554 . S
La0 O23 2.757 . S
La0 O24 2.470 . S
La0 O29 2.482 . S
La0 O31 2.503 . S
La1 C11 2.928 1_554 S
La1 O23 2.482 . S
La1 O25 2.503 . S
La1 O26 2.521 1_554 S
La1 O27 2.628 1_554 S
La1 O28 2.554 . S
La1 O29 2.757 . S
La1 O30 2.470 . S
C2 La0 2.928 . S
C2 C3 1.503 . S
C2 O20 1.261 . S
C2 O21 1.243 . S
C3 C2 1.503 . S
C3 C4 1.394 . S
C3 C8 1.373 . S
C4 C3 1.394 . S
C4 C5 1.380 . S
C4 H32 0.930 . S
C5 C4 1.380 . S
C5 C6 1.376 . S
C5 H33 0.930 . S
C6 C5 1.376 . S
C6 C7 1.370 . S
C7 C6 1.370 . S
C7 C8 1.396 . S
C7 H34 0.929 . S
C8 C3 1.373 . S
C8 C7 1.396 . S
C8 H35 0.929 . S
C9 O22 1.240 . S
C9 O23 1.289 . S
C10 O24 1.258 . S
C10 O25 1.256 . S
C11 La1 2.928 1_556 S
C11 C12 1.503 . S
C11 O26 1.261 . S
C11 O27 1.243 . S
C12 C11 1.503 . S
C12 C13 1.394 . S
C12 C17 1.373 . S
C13 C12 1.394 . S
C13 C14 1.380 . S
C13 H36 0.930 . S
C14 C13 1.380 . S
C14 C15 1.376 . S
C14 H37 0.930 . S
C15 C14 1.376 . S
C15 C16 1.370 . S
C16 C15 1.370 . S
C16 C17 1.396 . S
C16 H38 0.929 . S
C17 C12 1.373 . S
C17 C16 1.396 . S
C17 H39 0.929 . S
C18 O28 1.240 . S
C18 O29 1.289 . S
C19 O30 1.258 . S
C19 O31 1.256 . S
O20 La0 2.521 . S
O20 C2 1.261 . S
O21 La0 2.628 . S
O21 C2 1.243 . S
O22 La0 2.554 . S
O22 C9 1.240 . S
O23 La0 2.757 . S
O23 La1 2.482 . S
O23 C9 1.289 . S
O24 La0 2.470 . S
O24 C10 1.258 . S
O25 La1 2.503 . S
O25 C10 1.256 . S
O26 La1 2.521 1_556 S
O26 C11 1.261 . S
O27 La1 2.628 1_556 S
O27 C11 1.243 . S
O28 La1 2.554 . S
O28 C18 1.240 . S
O29 La0 2.482 . S
O29 La1 2.757 . S
O29 C18 1.289 . S
O30 La1 2.470 . S
O30 C19 1.258 . S
O31 La0 2.503 . S
O31 C19 1.256 . S
H32 C4 0.930 . S
H33 C5 0.930 . S
H34 C7 0.929 . S
H35 C8 0.929 . S
H36 C13 0.930 . S
H37 C14 0.930 . S
H38 C16 0.929 . S
H39 C17 0.929 . S
La40 C42 2.928 1_556 S
La40 O60 2.521 1_556 S
La40 O61 2.628 1_556 S
La40 O62 2.554 . S
La40 O63 2.757 . S
La40 O64 2.470 . S
La40 O69 2.482 . S
La40 O71 2.503 . S
La41 C51 2.928 . S
La41 O63 2.482 . S
La41 O65 2.503 . S
La41 O66 2.521 . S
La41 O67 2.628 . S
La41 O68 2.554 . S
La41 O69 2.757 . S
La41 O70 2.470 . S
C42 La40 2.928 1_554 S
C42 C43 1.503 . S
C42 O60 1.261 . S
C42 O61 1.243 . S
C43 C42 1.503 . S
C43 C44 1.394 . S
C43 C48 1.373 . S
C44 C43 1.394 . S
C44 C45 1.380 . S
C44 H72 0.930 . S
C45 C44 1.380 . S
C45 C46 1.376 . S
C45 H73 0.930 . S
C46 C45 1.376 . S
C46 C47 1.370 . S
C47 C46 1.370 . S
C47 C48 1.396 . S
C47 H74 0.929 . S
C48 C43 1.373 . S
C48 C47 1.396 . S
C48 H75 0.929 . S
C49 O62 1.240 . S
C49 O63 1.289 . S
C50 O64 1.258 . S
C50 O65 1.256 . S
C51 La41 2.928 . S
C51 C52 1.503 . S
C51 O66 1.261 . S
C51 O67 1.243 . S
C52 C51 1.503 . S
C52 C53 1.394 . S
C52 C57 1.373 . S
C53 C52 1.394 . S
C53 C54 1.380 . S
C53 H76 0.930 . S
C54 C53 1.380 . S
C54 C55 1.376 . S
C54 H77 0.930 . S
C55 C54 1.376 . S
C55 C56 1.370 . S
C56 C55 1.370 . S
C56 C57 1.396 . S
C56 H78 0.929 . S
C57 C52 1.373 . S
C57 C56 1.396 . S
C57 H79 0.929 . S
C58 O68 1.240 . S
C58 O69 1.289 . S
C59 O70 1.258 . S
C59 O71 1.256 . S
O60 La40 2.521 1_554 S
O60 C42 1.261 . S
O61 La40 2.628 1_554 S
O61 C42 1.243 . S
O62 La40 2.554 . S
O62 C49 1.240 . S
O63 La40 2.757 . S
O63 La41 2.482 . S
O63 C49 1.289 . S
O64 La40 2.470 . S
O64 C50 1.258 . S
O65 La41 2.503 . S
O65 C50 1.256 . S
O66 La41 2.521 . S
O66 C51 1.261 . S
O67 La41 2.628 . S
O67 C51 1.243 . S
O68 La41 2.554 . S
O68 C58 1.240 . S
O69 La40 2.482 . S
O69 La41 2.757 . S
O69 C58 1.289 . S
O70 La41 2.470 . S
O70 C59 1.258 . S
O71 La40 2.503 . S
O71 C59 1.256 . S
H72 C44 0.930 . S
H73 C45 0.930 . S
H74 C47 0.929 . S
H75 C48 0.929 . S
H76 C53 0.930 . S
H77 C54 0.930 . S
H78 C56 0.929 . S
H79 C57 0.929 . S
La80 C82 2.928 . S
La80 O100 2.521 . S
La80 O101 2.628 . S
La80 O102 2.554 . S
La80 O103 2.757 . S
La80 O104 2.470 . S
La80 O109 2.482 . S
La80 O111 2.503 . S
La81 C91 2.928 1_554 S
La81 O103 2.482 . S
La81 O105 2.503 . S
La81 O106 2.521 1_554 S
La81 O107 2.628 1_554 S
La81 O108 2.554 . S
La81 O109 2.757 . S
La81 O110 2.470 . S
C82 La80 2.928 . S
C82 C83 1.503 . S
C82 O100 1.261 . S
C82 O101 1.243 . S
C83 C82 1.503 . S
C83 C84 1.394 . S
C83 C88 1.373 . S
C84 C83 1.394 . S
C84 C85 1.380 . S
C84 H112 0.930 . S
C85 C84 1.380 . S
C85 C86 1.376 . S
C85 H113 0.930 . S
C86 C85 1.376 . S
C86 C87 1.370 . S
C87 C86 1.370 . S
C87 C88 1.396 . S
C87 H114 0.929 . S
C88 C83 1.373 . S
C88 C87 1.396 . S
C88 H115 0.929 . S
C89 O102 1.240 . S
C89 O103 1.289 . S
C90 O104 1.258 . S
C90 O105 1.256 . S
C91 La81 2.928 1_556 S
C91 C92 1.503 . S
C91 O106 1.261 . S
C91 O107 1.243 . S
C92 C91 1.503 . S
C92 C93 1.394 . S
C92 C97 1.373 . S
C93 C92 1.394 . S
C93 C94 1.380 . S
C93 H116 0.930 . S
C94 C93 1.380 . S
C94 C95 1.376 . S
C94 H117 0.930 . S
C95 C94 1.376 . S
C95 C96 1.370 . S
C96 C95 1.370 . S
C96 C97 1.396 . S
C96 H118 0.929 . S
C97 C92 1.373 . S
C97 C96 1.396 . S
C97 H119 0.929 . S
C98 O108 1.240 . S
C98 O109 1.289 . S
C99 O110 1.258 . S
C99 O111 1.256 . S
O100 La80 2.521 . S
O100 C82 1.261 . S
O101 La80 2.628 . S
O101 C82 1.243 . S
O102 La80 2.554 . S
O102 C89 1.240 . S
O103 La80 2.757 . S
O103 La81 2.482 . S
O103 C89 1.289 . S
O104 La80 2.470 . S
O104 C90 1.258 . S
O105 La81 2.503 . S
O105 C90 1.256 . S
O106 La81 2.521 1_556 S
O106 C91 1.261 . S
O107 La81 2.628 1_556 S
O107 C91 1.243 . S
O108 La81 2.554 . S
O108 C98 1.240 . S
O109 La80 2.482 . S
O109 La81 2.757 . S
O109 C98 1.289 . S
O110 La81 2.470 . S
O110 C99 1.258 . S
O111 La80 2.503 . S
O111 C99 1.256 . S
H112 C84 0.930 . S
H113 C85 0.930 . S
H114 C87 0.929 . S
H115 C88 0.929 . S
H116 C93 0.930 . S
H117 C94 0.930 . S
H118 C96 0.929 . S
H119 C97 0.929 . S
La120 C122 2.928 1_556 S
La120 O140 2.521 1_556 S
La120 O141 2.628 1_556 S
La120 O142 2.554 . S
La120 O143 2.757 . S
La120 O144 2.470 . S
La120 O149 2.482 . S
La120 O151 2.503 . S
La121 C131 2.928 . S
La121 O143 2.482 . S
La121 O145 2.503 . S
La121 O146 2.521 . S
La121 O147 2.628 . S
La121 O148 2.554 . S
La121 O149 2.757 . S
La121 O150 2.470 . S
C122 La120 2.928 1_554 S
C122 C123 1.503 . S
C122 O140 1.261 . S
C122 O141 1.243 . S
C123 C122 1.503 . S
C123 C124 1.394 . S
C123 C128 1.373 . S
C124 C123 1.394 . S
C124 C125 1.380 . S
C124 H152 0.930 . S
C125 C124 1.380 . S
C125 C126 1.376 . S
C125 H153 0.930 . S
C126 C125 1.376 . S
C126 C127 1.370 . S
C127 C126 1.370 . S
C127 C128 1.396 . S
C127 H154 0.929 . S
C128 C123 1.373 . S
C128 C127 1.396 . S
C128 H155 0.929 . S
C129 O142 1.240 . S
C129 O143 1.289 . S
C130 O144 1.258 . S
C130 O145 1.256 . S
C131 La121 2.928 . S
C131 C132 1.503 . S
C131 O146 1.261 . S
C131 O147 1.243 . S
C132 C131 1.503 . S
C132 C133 1.394 . S
C132 C137 1.373 . S
C133 C132 1.394 . S
C133 C134 1.380 . S
C133 H156 0.930 . S
C134 C133 1.380 . S
C134 C135 1.376 . S
C134 H157 0.930 . S
C135 C134 1.376 . S
C135 C136 1.370 . S
C136 C135 1.370 . S
C136 C137 1.396 . S
C136 H158 0.929 . S
C137 C132 1.373 . S
C137 C136 1.396 . S
C137 H159 0.929 . S
C138 O148 1.240 . S
C138 O149 1.289 . S
C139 O150 1.258 . S
C139 O151 1.256 . S
O140 La120 2.521 1_554 S
O140 C122 1.261 . S
O141 La120 2.628 1_554 S
O141 C122 1.243 . S
O142 La120 2.554 . S
O142 C129 1.240 . S
O143 La120 2.757 . S
O143 La121 2.482 . S
O143 C129 1.289 . S
O144 La120 2.470 . S
O144 C130 1.258 . S
O145 La121 2.503 . S
O145 C130 1.256 . S
O146 La121 2.521 . S
O146 C131 1.261 . S
O147 La121 2.628 . S
O147 C131 1.243 . S
O148 La121 2.554 . S
O148 C138 1.240 . S
O149 La120 2.482 . S
O149 La121 2.757 . S
O149 C138 1.289 . S
O150 La121 2.470 . S
O150 C139 1.258 . S
O151 La120 2.503 . S
O151 C139 1.256 . S
H152 C124 0.930 . S
H153 C125 0.930 . S
H154 C127 0.929 . S
H155 C128 0.929 . S
H156 C133 0.930 . S
H157 C134 0.930 . S
H158 C136 0.929 . S
H159 C137 0.929 . S
La160 C162 2.928 1_554 S
La160 O180 2.521 1_554 S
La160 O181 2.628 1_554 S
La160 O182 2.554 . S
La160 O183 2.757 . S
La160 O184 2.470 . S
La160 O189 2.482 . S
La160 O191 2.503 . S
La161 C171 2.928 . S
La161 O183 2.482 . S
La161 O185 2.503 . S
La161 O186 2.521 . S
La161 O187 2.628 . S
La161 O188 2.554 . S
La161 O189 2.757 . S
La161 O190 2.470 . S
C162 La160 2.928 1_556 S
C162 C163 1.503 . S
C162 O180 1.261 . S
C162 O181 1.243 . S
C163 C162 1.503 . S
C163 C164 1.394 . S
C163 C168 1.373 . S
C164 C163 1.394 . S
C164 C165 1.380 . S
C164 H192 0.930 . S
C165 C164 1.380 . S
C165 C166 1.376 . S
C165 H193 0.930 . S
C166 C165 1.376 . S
C166 C167 1.370 . S
C167 C166 1.370 . S
C167 C168 1.396 . S
C167 H194 0.929 . S
C168 C163 1.373 . S
C168 C167 1.396 . S
C168 H195 0.929 . S
C169 O182 1.240 . S
C169 O183 1.289 . S
C170 O184 1.258 . S
C170 O185 1.256 . S
C171 La161 2.928 . S
C171 C172 1.503 . S
C171 O186 1.261 . S
C171 O187 1.243 . S
C172 C171 1.503 . S
C172 C173 1.394 . S
C172 C177 1.373 . S
C173 C172 1.394 . S
C173 C174 1.380 . S
C173 H196 0.930 . S
C174 C173 1.380 . S
C174 C175 1.376 . S
C174 H197 0.930 . S
C175 C174 1.376 . S
C175 C176 1.370 . S
C176 C175 1.370 . S
C176 C177 1.396 . S
C176 H198 0.929 . S
C177 C172 1.373 . S
C177 C176 1.396 . S
C177 H199 0.929 . S
C178 O188 1.240 . S
C178 O189 1.289 . S
C179 O190 1.258 . S
C179 O191 1.256 . S
O180 La160 2.521 1_556 S
O180 C162 1.261 . S
O181 La160 2.628 1_556 S
O181 C162 1.243 . S
O182 La160 2.554 . S
O182 C169 1.240 . S
O183 La160 2.757 . S
O183 La161 2.482 . S
O183 C169 1.289 . S
O184 La160 2.470 . S
O184 C170 1.258 . S
O185 La161 2.503 . S
O185 C170 1.256 . S
O186 La161 2.521 . S
O186 C171 1.261 . S
O187 La161 2.628 . S
O187 C171 1.243 . S
O188 La161 2.554 . S
O188 C178 1.240 . S
O189 La160 2.482 . S
O189 La161 2.757 . S
O189 C178 1.289 . S
O190 La161 2.470 . S
O190 C179 1.258 . S
O191 La160 2.503 . S
O191 C179 1.256 . S
H192 C164 0.930 . S
H193 C165 0.930 . S
H194 C167 0.929 . S
H195 C168 0.929 . S
H196 C173 0.930 . S
H197 C174 0.930 . S
H198 C176 0.929 . S
H199 C177 0.929 . S
La200 C202 2.928 . S
La200 O220 2.521 . S
La200 O221 2.628 . S
La200 O222 2.554 . S
La200 O223 2.757 . S
La200 O224 2.470 . S
La200 O229 2.482 . S
La200 O231 2.503 . S
La201 C211 2.928 1_556 S
La201 O223 2.482 . S
La201 O225 2.503 . S
La201 O226 2.521 1_556 S
La201 O227 2.628 1_556 S
La201 O228 2.554 . S
La201 O229 2.757 . S
La201 O230 2.470 . S
C202 La200 2.928 . S
C202 C203 1.503 . S
C202 O220 1.261 . S
C202 O221 1.243 . S
C203 C202 1.503 . S
C203 C204 1.394 . S
C203 C208 1.373 . S
C204 C203 1.394 . S
C204 C205 1.380 . S
C204 H232 0.930 . S
C205 C204 1.380 . S
C205 C206 1.376 . S
C205 H233 0.930 . S
C206 C205 1.376 . S
C206 C207 1.370 . S
C207 C206 1.370 . S
C207 C208 1.396 . S
C207 H234 0.929 . S
C208 C203 1.373 . S
C208 C207 1.396 . S
C208 H235 0.929 . S
C209 O222 1.240 . S
C209 O223 1.289 . S
C210 O224 1.258 . S
C210 O225 1.256 . S
C211 La201 2.928 1_554 S
C211 C212 1.503 . S
C211 O226 1.261 . S
C211 O227 1.243 . S
C212 C211 1.503 . S
C212 C213 1.394 . S
C212 C217 1.373 . S
C213 C212 1.394 . S
C213 C214 1.380 . S
C213 H236 0.930 . S
C214 C213 1.380 . S
C214 C215 1.376 . S
C214 H237 0.930 . S
C215 C214 1.376 . S
C215 C216 1.370 . S
C216 C215 1.370 . S
C216 C217 1.396 . S
C216 H238 0.929 . S
C217 C212 1.373 . S
C217 C216 1.396 . S
C217 H239 0.929 . S
C218 O228 1.240 . S
C218 O229 1.289 . S
C219 O230 1.258 . S
C219 O231 1.256 . S
O220 La200 2.521 . S
O220 C202 1.261 . S
O221 La200 2.628 . S
O221 C202 1.243 . S
O222 La200 2.554 . S
O222 C209 1.240 . S
O223 La200 2.757 . S
O223 La201 2.482 . S
O223 C209 1.289 . S
O224 La200 2.470 . S
O224 C210 1.258 . S
O225 La201 2.503 . S
O225 C210 1.256 . S
O226 La201 2.521 1_554 S
O226 C211 1.261 . S
O227 La201 2.628 1_554 S
O227 C211 1.243 . S
O228 La201 2.554 . S
O228 C218 1.240 . S
O229 La200 2.482 . S
O229 La201 2.757 . S
O229 C218 1.289 . S
O230 La201 2.470 . S
O230 C219 1.258 . S
O231 La200 2.503 . S
O231 C219 1.256 . S
H232 C204 0.930 . S
H233 C205 0.930 . S
H234 C207 0.929 . S
H235 C208 0.929 . S
H236 C213 0.930 . S
H237 C214 0.930 . S
H238 C216 0.929 . S
H239 C217 0.929 . S
La240 C242 2.928 1_554 S
La240 O260 2.521 1_554 S
La240 O261 2.628 1_554 S
La240 O262 2.554 . S
La240 O263 2.757 . S
La240 O264 2.470 . S
La240 O269 2.482 . S
La240 O271 2.503 . S
La241 C251 2.928 . S
La241 O263 2.482 . S
La241 O265 2.503 . S
La241 O266 2.521 . S
La241 O267 2.628 . S
La241 O268 2.554 . S
La241 O269 2.757 . S
La241 O270 2.470 . S
C242 La240 2.928 1_556 S
C242 C243 1.503 . S
C242 O260 1.261 . S
C242 O261 1.243 . S
C243 C242 1.503 . S
C243 C244 1.394 . S
C243 C248 1.373 . S
C244 C243 1.394 . S
C244 C245 1.380 . S
C244 H272 0.930 . S
C245 C244 1.380 . S
C245 C246 1.376 . S
C245 H273 0.930 . S
C246 C245 1.376 . S
C246 C247 1.370 . S
C247 C246 1.370 . S
C247 C248 1.396 . S
C247 H274 0.929 . S
C248 C243 1.373 . S
C248 C247 1.396 . S
C248 H275 0.929 . S
C249 O262 1.240 . S
C249 O263 1.289 . S
C250 O264 1.258 . S
C250 O265 1.256 . S
C251 La241 2.928 . S
C251 C252 1.503 . S
C251 O266 1.261 . S
C251 O267 1.243 . S
C252 C251 1.503 . S
C252 C253 1.394 . S
C252 C257 1.373 . S
C253 C252 1.394 . S
C253 C254 1.380 . S
C253 H276 0.930 . S
C254 C253 1.380 . S
C254 C255 1.376 . S
C254 H277 0.930 . S
C255 C254 1.376 . S
C255 C256 1.370 . S
C256 C255 1.370 . S
C256 C257 1.396 . S
C256 H278 0.929 . S
C257 C252 1.373 . S
C257 C256 1.396 . S
C257 H279 0.929 . S
C258 O268 1.240 . S
C258 O269 1.289 . S
C259 O270 1.258 . S
C259 O271 1.256 . S
O260 La240 2.521 1_556 S
O260 C242 1.261 . S
O261 La240 2.628 1_556 S
O261 C242 1.243 . S
O262 La240 2.554 . S
O262 C249 1.240 . S
O263 La240 2.757 . S
O263 La241 2.482 . S
O263 C249 1.289 . S
O264 La240 2.470 . S
O264 C250 1.258 . S
O265 La241 2.503 . S
O265 C250 1.256 . S
O266 La241 2.521 . S
O266 C251 1.261 . S
O267 La241 2.628 . S
O267 C251 1.243 . S
O268 La241 2.554 . S
O268 C258 1.240 . S
O269 La240 2.482 . S
O269 La241 2.757 . S
O269 C258 1.289 . S
O270 La241 2.470 . S
O270 C259 1.258 . S
O271 La240 2.503 . S
O271 C259 1.256 . S
H272 C244 0.930 . S
H273 C245 0.930 . S
H274 C247 0.929 . S
H275 C248 0.929 . S
H276 C253 0.930 . S
H277 C254 0.930 . S
H278 C256 0.929 . S
H279 C257 0.929 . S
La280 C282 2.928 . S
La280 O300 2.521 . S
La280 O301 2.628 . S
La280 O302 2.554 . S
La280 O303 2.757 . S
La280 O304 2.470 . S
La280 O309 2.482 . S
La280 O311 2.503 . S
La281 C291 2.928 1_556 S
La281 O303 2.482 . S
La281 O305 2.503 . S
La281 O306 2.521 1_556 S
La281 O307 2.628 1_556 S
La281 O308 2.554 . S
La281 O309 2.757 . S
La281 O310 2.470 . S
C282 La280 2.928 . S
C282 C283 1.503 . S
C282 O300 1.261 . S
C282 O301 1.243 . S
C283 C282 1.503 . S
C283 C284 1.394 . S
C283 C288 1.373 . S
C284 C283 1.394 . S
C284 C285 1.380 . S
C284 H312 0.930 . S
C285 C284 1.380 . S
C285 C286 1.376 . S
C285 H313 0.930 . S
C286 C285 1.376 . S
C286 C287 1.370 . S
C287 C286 1.370 . S
C287 C288 1.396 . S
C287 H314 0.929 . S
C288 C283 1.373 . S
C288 C287 1.396 . S
C288 H315 0.929 . S
C289 O302 1.240 . S
C289 O303 1.289 . S
C290 O304 1.258 . S
C290 O305 1.256 . S
C291 La281 2.928 1_554 S
C291 C292 1.503 . S
C291 O306 1.261 . S
C291 O307 1.243 . S
C292 C291 1.503 . S
C292 C293 1.394 . S
C292 C297 1.373 . S
C293 C292 1.394 . S
C293 C294 1.380 . S
C293 H316 0.930 . S
C294 C293 1.380 . S
C294 C295 1.376 . S
C294 H317 0.930 . S
C295 C294 1.376 . S
C295 C296 1.370 . S
C296 C295 1.370 . S
C296 C297 1.396 . S
C296 H318 0.929 . S
C297 C292 1.373 . S
C297 C296 1.396 . S
C297 H319 0.929 . S
C298 O308 1.240 . S
C298 O309 1.289 . S
C299 O310 1.258 . S
C299 O311 1.256 . S
O300 La280 2.521 . S
O300 C282 1.261 . S
O301 La280 2.628 . S
O301 C282 1.243 . S
O302 La280 2.554 . S
O302 C289 1.240 . S
O303 La280 2.757 . S
O303 La281 2.482 . S
O303 C289 1.289 . S
O304 La280 2.470 . S
O304 C290 1.258 . S
O305 La281 2.503 . S
O305 C290 1.256 . S
O306 La281 2.521 1_554 S
O306 C291 1.261 . S
O307 La281 2.628 1_554 S
O307 C291 1.243 . S
O308 La281 2.554 . S
O308 C298 1.240 . S
O309 La280 2.482 . S
O309 La281 2.757 . S
O309 C298 1.289 . S
O310 La281 2.470 . S
O310 C299 1.258 . S
O311 La280 2.503 . S
O311 C299 1.256 . S
H312 C284 0.930 . S
H313 C285 0.930 . S
H314 C287 0.929 . S
H315 C288 0.929 . S
H316 C293 0.930 . S
H317 C294 0.930 . S
H318 C296 0.929 . S
H319 C297 0.929 . S
La320 C322 2.928 . S
La320 O340 2.521 . S
La320 O341 2.628 . S
La320 O342 2.554 . S
La320 O343 2.757 . S
La320 O344 2.470 . S
La320 O349 2.482 . S
La320 O351 2.503 . S
La321 C331 2.928 . S
La321 O343 2.482 . S
La321 O345 2.503 . S
La321 O346 2.521 . S
La321 O347 2.628 . S
La321 O348 2.554 . S
La321 O349 2.757 . S
La321 O350 2.470 . S
C322 La320 2.928 . S
C322 C323 1.503 . S
C322 O340 1.261 . S
C322 O341 1.243 . S
C323 C322 1.503 . S
C323 C324 1.394 . S
C323 C328 1.373 . S
C324 C323 1.394 . S
C324 C325 1.380 . S
C324 H352 0.930 . S
C325 C324 1.380 . S
C325 C326 1.376 . S
C325 H353 0.930 . S
C326 C325 1.376 . S
C326 C327 1.370 . S
C327 C326 1.370 . S
C327 C328 1.396 . S
C327 H354 0.929 . S
C328 C323 1.373 . S
C328 C327 1.396 . S
C328 H355 0.929 . S
C329 O342 1.240 . S
C329 O343 1.289 . S
C330 O344 1.258 . S
C330 O345 1.256 . S
C331 La321 2.928 . S
C331 C332 1.503 . S
C331 O346 1.261 . S
C331 O347 1.243 . S
C332 C331 1.503 . S
C332 C333 1.394 . S
C332 C337 1.373 . S
C333 C332 1.394 . S
C333 C334 1.380 . S
C333 H356 0.930 . S
C334 C333 1.380 . S
C334 C335 1.376 . S
C334 H357 0.930 . S
C335 C334 1.376 . S
C335 C336 1.370 . S
C336 C335 1.370 . S
C336 C337 1.396 . S
C336 H358 0.929 . S
C337 C332 1.373 . S
C337 C336 1.396 . S
C337 H359 0.929 . S
C338 O348 1.240 . S
C338 O349 1.289 . S
C339 O350 1.258 . S
C339 O351 1.256 . S
O340 La320 2.521 . S
O340 C322 1.261 . S
O341 La320 2.628 . S
O341 C322 1.243 . S
O342 La320 2.554 . S
O342 C329 1.240 . S
O343 La320 2.757 . S
O343 La321 2.482 . S
O343 C329 1.289 . S
O344 La320 2.470 . S
O344 C330 1.258 . S
O345 La321 2.503 . S
O345 C330 1.256 . S
O346 La321 2.521 . S
O346 C331 1.261 . S
O347 La321 2.628 . S
O347 C331 1.243 . S
O348 La321 2.554 . S
O348 C338 1.240 . S
O349 La320 2.482 . S
O349 La321 2.757 . S
O349 C338 1.289 . S
O350 La321 2.470 . S
O350 C339 1.258 . S
O351 La320 2.503 . S
O351 C339 1.256 . S
H352 C324 0.930 . S
H353 C325 0.930 . S
H354 C327 0.929 . S
H355 C328 0.929 . S
H356 C333 0.930 . S
H357 C334 0.930 . S
H358 C336 0.929 . S
H359 C337 0.929 . S
La360 C362 2.928 . S
La360 O380 2.521 . S
La360 O381 2.628 . S
La360 O382 2.554 . S
La360 O383 2.757 . S
La360 O384 2.470 . S
La360 O389 2.482 . S
La360 O391 2.503 . S
La361 C371 2.928 . S
La361 O383 2.482 . S
La361 O385 2.503 . S
La361 O386 2.521 . S
La361 O387 2.628 . S
La361 O388 2.554 . S
La361 O389 2.757 . S
La361 O390 2.470 . S
C362 La360 2.928 . S
C362 C363 1.503 . S
C362 O380 1.261 . S
C362 O381 1.243 . S
C363 C362 1.503 . S
C363 C364 1.394 . S
C363 C368 1.373 . S
C364 C363 1.394 . S
C364 C365 1.380 . S
C364 H392 0.930 . S
C365 C364 1.380 . S
C365 C366 1.376 . S
C365 H393 0.930 . S
C366 C365 1.376 . S
C366 C367 1.370 . S
C367 C366 1.370 . S
C367 C368 1.396 . S
C367 H394 0.929 . S
C368 C363 1.373 . S
C368 C367 1.396 . S
C368 H395 0.929 . S
C369 O382 1.240 . S
C369 O383 1.289 . S
C370 O384 1.258 . S
C370 O385 1.256 . S
C371 La361 2.928 . S
C371 C372 1.503 . S
C371 O386 1.261 . S
C371 O387 1.243 . S
C372 C371 1.503 . S
C372 C373 1.394 . S
C372 C377 1.373 . S
C373 C372 1.394 . S
C373 C374 1.380 . S
C373 H396 0.930 . S
C374 C373 1.380 . S
C374 C375 1.376 . S
C374 H397 0.930 . S
C375 C374 1.376 . S
C375 C376 1.370 . S
C376 C375 1.370 . S
C376 C377 1.396 . S
C376 H398 0.929 . S
C377 C372 1.373 . S
C377 C376 1.396 . S
C377 H399 0.929 . S
C378 O388 1.240 . S
C378 O389 1.289 . S
C379 O390 1.258 . S
C379 O391 1.256 . S
O380 La360 2.521 . S
O380 C362 1.261 . S
O381 La360 2.628 . S
O381 C362 1.243 . S
O382 La360 2.554 . S
O382 C369 1.240 . S
O383 La360 2.757 . S
O383 La361 2.482 . S
O383 C369 1.289 . S
O384 La360 2.470 . S
O384 C370 1.258 . S
O385 La361 2.503 . S
O385 C370 1.256 . S
O386 La361 2.521 . S
O386 C371 1.261 . S
O387 La361 2.628 . S
O387 C371 1.243 . S
O388 La361 2.554 . S
O388 C378 1.240 . S
O389 La360 2.482 . S
O389 La361 2.757 . S
O389 C378 1.289 . S
O390 La361 2.470 . S
O390 C379 1.258 . S
O391 La360 2.503 . S
O391 C379 1.256 . S
H392 C364 0.930 . S
H393 C365 0.930 . S
H394 C367 0.929 . S
H395 C368 0.929 . S
H396 C373 0.930 . S
H397 C374 0.930 . S
H398 C376 0.929 . S
H399 C377 0.929 . S
La400 C402 2.928 . S
La400 O420 2.521 . S
La400 O421 2.628 . S
La400 O422 2.554 . S
La400 O423 2.757 . S
La400 O424 2.470 . S
La400 O429 2.482 . S
La400 O431 2.503 . S
La401 C411 2.928 . S
La401 O423 2.482 . S
La401 O425 2.503 . S
La401 O426 2.521 . S
La401 O427 2.628 . S
La401 O428 2.554 . S
La401 O429 2.757 . S
La401 O430 2.470 . S
C402 La400 2.928 . S
C402 C403 1.503 . S
C402 O420 1.261 . S
C402 O421 1.243 . S
C403 C402 1.503 . S
C403 C404 1.394 . S
C403 C408 1.373 . S
C404 C403 1.394 . S
C404 C405 1.380 . S
C404 H432 0.930 . S
C405 C404 1.380 . S
C405 C406 1.376 . S
C405 H433 0.930 . S
C406 C405 1.376 . S
C406 C407 1.370 . S
C407 C406 1.370 . S
C407 C408 1.396 . S
C407 H434 0.929 . S
C408 C403 1.373 . S
C408 C407 1.396 . S
C408 H435 0.929 . S
C409 O422 1.240 . S
C409 O423 1.289 . S
C410 O424 1.258 . S
C410 O425 1.256 . S
C411 La401 2.928 . S
C411 C412 1.503 . S
C411 O426 1.261 . S
C411 O427 1.243 . S
C412 C411 1.503 . S
C412 C413 1.394 . S
C412 C417 1.373 . S
C413 C412 1.394 . S
C413 C414 1.380 . S
C413 H436 0.930 . S
C414 C413 1.380 . S
C414 C415 1.376 . S
C414 H437 0.930 . S
C415 C414 1.376 . S
C415 C416 1.370 . S
C416 C415 1.370 . S
C416 C417 1.396 . S
C416 H438 0.929 . S
C417 C412 1.373 . S
C417 C416 1.396 . S
C417 H439 0.929 . S
C418 O428 1.240 . S
C418 O429 1.289 . S
C419 O430 1.258 . S
C419 O431 1.256 . S
O420 La400 2.521 . S
O420 C402 1.261 . S
O421 La400 2.628 . S
O421 C402 1.243 . S
O422 La400 2.554 . S
O422 C409 1.240 . S
O423 La400 2.757 . S
O423 La401 2.482 . S
O423 C409 1.289 . S
O424 La400 2.470 . S
O424 C410 1.258 . S
O425 La401 2.503 . S
O425 C410 1.256 . S
O426 La401 2.521 . S
O426 C411 1.261 . S
O427 La401 2.628 . S
O427 C411 1.243 . S
O428 La401 2.554 . S
O428 C418 1.240 . S
O429 La400 2.482 . S
O429 La401 2.757 . S
O429 C418 1.289 . S
O430 La401 2.470 . S
O430 C419 1.258 . S
O431 La400 2.503 . S
O431 C419 1.256 . S
H432 C404 0.930 . S
H433 C405 0.930 . S
H434 C407 0.929 . S
H435 C408 0.929 . S
H436 C413 0.930 . S
H437 C414 0.930 . S
H438 C416 0.929 . S
H439 C417 0.929 . S
La440 C442 2.928 . S
La440 O460 2.521 . S
La440 O461 2.628 . S
La440 O462 2.554 . S
La440 O463 2.757 . S
La440 O464 2.470 . S
La440 O469 2.482 . S
La440 O471 2.503 . S
La441 C451 2.928 . S
La441 O463 2.482 . S
La441 O465 2.503 . S
La441 O466 2.521 . S
La441 O467 2.628 . S
La441 O468 2.554 . S
La441 O469 2.757 . S
La441 O470 2.470 . S
C442 La440 2.928 . S
C442 C443 1.503 . S
C442 O460 1.261 . S
C442 O461 1.243 . S
C443 C442 1.503 . S
C443 C444 1.394 . S
C443 C448 1.373 . S
C444 C443 1.394 . S
C444 C445 1.380 . S
C444 H472 0.930 . S
C445 C444 1.380 . S
C445 C446 1.376 . S
C445 H473 0.930 . S
C446 C445 1.376 . S
C446 C447 1.370 . S
C447 C446 1.370 . S
C447 C448 1.396 . S
C447 H474 0.929 . S
C448 C443 1.373 . S
C448 C447 1.396 . S
C448 H475 0.929 . S
C449 O462 1.240 . S
C449 O463 1.289 . S
C450 O464 1.258 . S
C450 O465 1.256 . S
C451 La441 2.928 . S
C451 C452 1.503 . S
C451 O466 1.261 . S
C451 O467 1.243 . S
C452 C451 1.503 . S
C452 C453 1.394 . S
C452 C457 1.373 . S
C453 C452 1.394 . S
C453 C454 1.380 . S
C453 H476 0.930 . S
C454 C453 1.380 . S
C454 C455 1.376 . S
C454 H477 0.930 . S
C455 C454 1.376 . S
C455 C456 1.370 . S
C456 C455 1.370 . S
C456 C457 1.396 . S
C456 H478 0.929 . S
C457 C452 1.373 . S
C457 C456 1.396 . S
C457 H479 0.929 . S
C458 O468 1.240 . S
C458 O469 1.289 . S
C459 O470 1.258 . S
C459 O471 1.256 . S
O460 La440 2.521 . S
O460 C442 1.261 . S
O461 La440 2.628 . S
O461 C442 1.243 . S
O462 La440 2.554 . S
O462 C449 1.240 . S
O463 La440 2.757 . S
O463 La441 2.482 . S
O463 C449 1.289 . S
O464 La440 2.470 . S
O464 C450 1.258 . S
O465 La441 2.503 . S
O465 C450 1.256 . S
O466 La441 2.521 . S
O466 C451 1.261 . S
O467 La441 2.628 . S
O467 C451 1.243 . S
O468 La441 2.554 . S
O468 C458 1.240 . S
O469 La440 2.482 . S
O469 La441 2.757 . S
O469 C458 1.289 . S
O470 La441 2.470 . S
O470 C459 1.258 . S
O471 La440 2.503 . S
O471 C459 1.256 . S
H472 C444 0.930 . S
H473 C445 0.930 . S
H474 C447 0.929 . S
H475 C448 0.929 . S
H476 C453 0.930 . S
H477 C454 0.930 . S
H478 C456 0.929 . S
H479 C457 0.929 . S
La480 C482 2.928 . S
La480 O500 2.521 . S
La480 O501 2.628 . S
La480 O502 2.554 . S
La480 O503 2.757 . S
La480 O504 2.470 . S
La480 O509 2.482 . S
La480 O511 2.503 . S
La481 C491 2.928 . S
La481 O503 2.482 . S
La481 O505 2.503 . S
La481 O506 2.521 . S
La481 O507 2.628 . S
La481 O508 2.554 . S
La481 O509 2.757 . S
La481 O510 2.470 . S
C482 La480 2.928 . S
C482 C483 1.503 . S
C482 O500 1.261 . S
C482 O501 1.243 . S
C483 C482 1.503 . S
C483 C484 1.394 . S
C483 C488 1.373 . S
C484 C483 1.394 . S
C484 C485 1.380 . S
C484 H512 0.930 . S
C485 C484 1.380 . S
C485 C486 1.376 . S
C485 H513 0.930 . S
C486 C485 1.376 . S
C486 C487 1.370 . S
C487 C486 1.370 . S
C487 C488 1.396 . S
C487 H514 0.929 . S
C488 C483 1.373 . S
C488 C487 1.396 . S
C488 H515 0.929 . S
C489 O502 1.240 . S
C489 O503 1.289 . S
C490 O504 1.258 . S
C490 O505 1.256 . S
C491 La481 2.928 . S
C491 C492 1.503 . S
C491 O506 1.261 . S
C491 O507 1.243 . S
C492 C491 1.503 . S
C492 C493 1.394 . S
C492 C497 1.373 . S
C493 C492 1.394 . S
C493 C494 1.380 . S
C493 H516 0.930 . S
C494 C493 1.380 . S
C494 C495 1.376 . S
C494 H517 0.930 . S
C495 C494 1.376 . S
C495 C496 1.370 . S
C496 C495 1.370 . S
C496 C497 1.396 . S
C496 H518 0.929 . S
C497 C492 1.373 . S
C497 C496 1.396 . S
C497 H519 0.929 . S
C498 O508 1.240 . S
C498 O509 1.289 . S
C499 O510 1.258 . S
C499 O511 1.256 . S
O500 La480 2.521 . S
O500 C482 1.261 . S
O501 La480 2.628 . S
O501 C482 1.243 . S
O502 La480 2.554 . S
O502 C489 1.240 . S
O503 La480 2.757 . S
O503 La481 2.482 . S
O503 C489 1.289 . S
O504 La480 2.470 . S
O504 C490 1.258 . S
O505 La481 2.503 . S
O505 C490 1.256 . S
O506 La481 2.521 . S
O506 C491 1.261 . S
O507 La481 2.628 . S
O507 C491 1.243 . S
O508 La481 2.554 . S
O508 C498 1.240 . S
O509 La480 2.482 . S
O509 La481 2.757 . S
O509 C498 1.289 . S
O510 La481 2.470 . S
O510 C499 1.258 . S
O511 La480 2.503 . S
O511 C499 1.256 . S
H512 C484 0.930 . S
H513 C485 0.930 . S
H514 C487 0.929 . S
H515 C488 0.929 . S
H516 C493 0.930 . S
H517 C494 0.930 . S
H518 C496 0.929 . S
H519 C497 0.929 . S
La520 C522 2.928 . S
La520 O540 2.521 . S
La520 O541 2.628 . S
La520 O542 2.554 . S
La520 O543 2.757 . S
La520 O544 2.470 . S
La520 O549 2.482 . S
La520 O551 2.503 . S
La521 C531 2.928 . S
La521 O543 2.482 . S
La521 O545 2.503 . S
La521 O546 2.521 . S
La521 O547 2.628 . S
La521 O548 2.554 . S
La521 O549 2.757 . S
La521 O550 2.470 . S
C522 La520 2.928 . S
C522 C523 1.503 . S
C522 O540 1.261 . S
C522 O541 1.243 . S
C523 C522 1.503 . S
C523 C524 1.394 . S
C523 C528 1.373 . S
C524 C523 1.394 . S
C524 C525 1.380 . S
C524 H552 0.930 . S
C525 C524 1.380 . S
C525 C526 1.376 . S
C525 H553 0.930 . S
C526 C525 1.376 . S
C526 C527 1.370 . S
C527 C526 1.370 . S
C527 C528 1.396 . S
C527 H554 0.929 . S
C528 C523 1.373 . S
C528 C527 1.396 . S
C528 H555 0.929 . S
C529 O542 1.240 . S
C529 O543 1.289 . S
C530 O544 1.258 . S
C530 O545 1.256 . S
C531 La521 2.928 . S
C531 C532 1.503 . S
C531 O546 1.261 . S
C531 O547 1.243 . S
C532 C531 1.503 . S
C532 C533 1.394 . S
C532 C537 1.373 . S
C533 C532 1.394 . S
C533 C534 1.380 . S
C533 H556 0.930 . S
C534 C533 1.380 . S
C534 C535 1.376 . S
C534 H557 0.930 . S
C535 C534 1.376 . S
C535 C536 1.370 . S
C536 C535 1.370 . S
C536 C537 1.396 . S
C536 H558 0.929 . S
C537 C532 1.373 . S
C537 C536 1.396 . S
C537 H559 0.929 . S
C538 O548 1.240 . S
C538 O549 1.289 . S
C539 O550 1.258 . S
C539 O551 1.256 . S
O540 La520 2.521 . S
O540 C522 1.261 . S
O541 La520 2.628 . S
O541 C522 1.243 . S
O542 La520 2.554 . S
O542 C529 1.240 . S
O543 La520 2.757 . S
O543 La521 2.482 . S
O543 C529 1.289 . S
O544 La520 2.470 . S
O544 C530 1.258 . S
O545 La521 2.503 . S
O545 C530 1.256 . S
O546 La521 2.521 . S
O546 C531 1.261 . S
O547 La521 2.628 . S
O547 C531 1.243 . S
O548 La521 2.554 . S
O548 C538 1.240 . S
O549 La520 2.482 . S
O549 La521 2.757 . S
O549 C538 1.289 . S
O550 La521 2.470 . S
O550 C539 1.258 . S
O551 La520 2.503 . S
O551 C539 1.256 . S
H552 C524 0.930 . S
H553 C525 0.930 . S
H554 C527 0.929 . S
H555 C528 0.929 . S
H556 C533 0.930 . S
H557 C534 0.930 . S
H558 C536 0.929 . S
H559 C537 0.929 . S
La560 C562 2.928 . S
La560 O580 2.521 . S
La560 O581 2.628 . S
La560 O582 2.554 . S
La560 O583 2.757 . S
La560 O584 2.470 . S
La560 O589 2.482 . S
La560 O591 2.503 . S
La561 C571 2.928 . S
La561 O583 2.482 . S
La561 O585 2.503 . S
La561 O586 2.521 . S
La561 O587 2.628 . S
La561 O588 2.554 . S
La561 O589 2.757 . S
La561 O590 2.470 . S
C562 La560 2.928 . S
C562 C563 1.503 . S
C562 O580 1.261 . S
C562 O581 1.243 . S
C563 C562 1.503 . S
C563 C564 1.394 . S
C563 C568 1.373 . S
C564 C563 1.394 . S
C564 C565 1.380 . S
C564 H592 0.930 . S
C565 C564 1.380 . S
C565 C566 1.376 . S
C565 H593 0.930 . S
C566 C565 1.376 . S
C566 C567 1.370 . S
C567 C566 1.370 . S
C567 C568 1.396 . S
C567 H594 0.929 . S
C568 C563 1.373 . S
C568 C567 1.396 . S
C568 H595 0.929 . S
C569 O582 1.240 . S
C569 O583 1.289 . S
C570 O584 1.258 . S
C570 O585 1.256 . S
C571 La561 2.928 . S
C571 C572 1.503 . S
C571 O586 1.261 . S
C571 O587 1.243 . S
C572 C571 1.503 . S
C572 C573 1.394 . S
C572 C577 1.373 . S
C573 C572 1.394 . S
C573 C574 1.380 . S
C573 H596 0.930 . S
C574 C573 1.380 . S
C574 C575 1.376 . S
C574 H597 0.930 . S
C575 C574 1.376 . S
C575 C576 1.370 . S
C576 C575 1.370 . S
C576 C577 1.396 . S
C576 H598 0.929 . S
C577 C572 1.373 . S
C577 C576 1.396 . S
C577 H599 0.929 . S
C578 O588 1.240 . S
C578 O589 1.289 . S
C579 O590 1.258 . S
C579 O591 1.256 . S
O580 La560 2.521 . S
O580 C562 1.261 . S
O581 La560 2.628 . S
O581 C562 1.243 . S
O582 La560 2.554 . S
O582 C569 1.240 . S
O583 La560 2.757 . S
O583 La561 2.482 . S
O583 C569 1.289 . S
O584 La560 2.470 . S
O584 C570 1.258 . S
O585 La561 2.503 . S
O585 C570 1.256 . S
O586 La561 2.521 . S
O586 C571 1.261 . S
O587 La561 2.628 . S
O587 C571 1.243 . S
O588 La561 2.554 . S
O588 C578 1.240 . S
O589 La560 2.482 . S
O589 La561 2.757 . S
O589 C578 1.289 . S
O590 La561 2.470 . S
O590 C579 1.258 . S
O591 La560 2.503 . S
O591 C579 1.256 . S
H592 C564 0.930 . S
H593 C565 0.930 . S
H594 C567 0.929 . S
H595 C568 0.929 . S
H596 C573 0.930 . S
H597 C574 0.930 . S
H598 C576 0.929 . S
H599 C577 0.929 . S
La600 C602 2.928 . S
La600 O620 2.521 . S
La600 O621 2.628 . S
La600 O622 2.554 . S
La600 O623 2.757 . S
La600 O624 2.470 . S
La600 O629 2.482 . S
La600 O631 2.503 . S
La601 C611 2.928 . S
La601 O623 2.482 . S
La601 O625 2.503 . S
La601 O626 2.521 . S
La601 O627 2.628 . S
La601 O628 2.554 . S
La601 O629 2.757 . S
La601 O630 2.470 . S
C602 La600 2.928 . S
C602 C603 1.503 . S
C602 O620 1.261 . S
C602 O621 1.243 . S
C603 C602 1.503 . S
C603 C604 1.394 . S
C603 C608 1.373 . S
C604 C603 1.394 . S
C604 C605 1.380 . S
C604 H632 0.930 . S
C605 C604 1.380 . S
C605 C606 1.376 . S
C605 H633 0.930 . S
C606 C605 1.376 . S
C606 C607 1.370 . S
C607 C606 1.370 . S
C607 C608 1.396 . S
C607 H634 0.929 . S
C608 C603 1.373 . S
C608 C607 1.396 . S
C608 H635 0.929 . S
C609 O622 1.240 . S
C609 O623 1.289 . S
C610 O624 1.258 . S
C610 O625 1.256 . S
C611 La601 2.928 . S
C611 C612 1.503 . S
C611 O626 1.261 . S
C611 O627 1.243 . S
C612 C611 1.503 . S
C612 C613 1.394 . S
C612 C617 1.373 . S
C613 C612 1.394 . S
C613 C614 1.380 . S
C613 H636 0.930 . S
C614 C613 1.380 . S
C614 C615 1.376 . S
C614 H637 0.930 . S
C615 C614 1.376 . S
C615 C616 1.370 . S
C616 C615 1.370 . S
C616 C617 1.396 . S
C616 H638 0.929 . S
C617 C612 1.373 . S
C617 C616 1.396 . S
C617 H639 0.929 . S
C618 O628 1.240 . S
C618 O629 1.289 . S
C619 O630 1.258 . S
C619 O631 1.256 . S
O620 La600 2.521 . S
O620 C602 1.261 . S
O621 La600 2.628 . S
O621 C602 1.243 . S
O622 La600 2.554 . S
O622 C609 1.240 . S
O623 La600 2.757 . S
O623 La601 2.482 . S
O623 C609 1.289 . S
O624 La600 2.470 . S
O624 C610 1.258 . S
O625 La601 2.503 . S
O625 C610 1.256 . S
O626 La601 2.521 . S
O626 C611 1.261 . S
O627 La601 2.628 . S
O627 C611 1.243 . S
O628 La601 2.554 . S
O628 C618 1.240 . S
O629 La600 2.482 . S
O629 La601 2.757 . S
O629 C618 1.289 . S
O630 La601 2.470 . S
O630 C619 1.258 . S
O631 La600 2.503 . S
O631 C619 1.256 . S
H632 C604 0.930 . S
H633 C605 0.930 . S
H634 C607 0.929 . S
H635 C608 0.929 . S
H636 C613 0.930 . S
H637 C614 0.930 . S
H638 C616 0.929 . S
H639 C617 0.929 . S
H640 C646 0.930 . S
H641 C649 0.930 . S
H642 C650 0.930 . S
H643 C651 0.930 . S
H644 C654 0.930 . S
H645 C655 0.930 . S
C646 H640 0.930 . S
C646 C647 1.355 . S
C646 C648 1.415 . S
C647 C646 1.355 . S
C647 C649 1.419 . S
C648 C646 1.415 . S
C648 C653 1.425 . S
C648 C655 1.409 . S
C649 H641 0.930 . S
C649 C647 1.419 . S
C649 C650 1.362 . S
C650 H642 0.930 . S
C650 C649 1.362 . S
C650 C653 1.409 . S
C651 H643 0.930 . S
C651 C652 1.355 . S
C651 C653 1.415 1_545 S
C652 C651 1.355 . S
C652 C654 1.419 1_545 S
C653 C648 1.425 . S
C653 C650 1.409 . S
C653 C651 1.415 1_565 S
C654 H644 0.930 . S
C654 C652 1.419 1_565 S
C654 C655 1.362 . S
C655 H645 0.930 . S
C655 C648 1.409 . S
C655 C654 1.362 . S
H656 C662 0.930 . S
H657 C665 0.930 . S
H658 C666 0.930 . S
H659 C667 0.930 . S
H660 C670 0.930 . S
H661 C671 0.930 1_455 S
C662 H656 0.930 . S
C662 C663 1.355 . S
C662 C664 1.415 . S
C663 C662 1.355 . S
C663 C665 1.419 . S
C664 C662 1.415 . S
C664 C669 1.425 . S
C664 C671 1.409 . S
C665 H657 0.930 . S
C665 C663 1.419 . S
C665 C666 1.362 . S
C666 H658 0.930 . S
C666 C665 1.362 . S
C666 C669 1.409 . S
C667 H659 0.930 . S
C667 C668 1.355 1_655 S
C667 C669 1.415 . S
C668 C667 1.355 1_455 S
C668 C670 1.419 . S
C669 C664 1.425 . S
C669 C666 1.409 . S
C669 C667 1.415 . S
C670 H660 0.930 . S
C670 C668 1.419 . S
C670 C671 1.362 1_455 S
C671 H661 0.930 1_655 S
C671 C664 1.409 . S
C671 C670 1.362 1_655 S
H672 C678 0.930 . S
H673 C681 0.920 1_565 S
H674 C682 0.930 . S
H675 C683 0.930 . S
H676 C686 0.930 . S
H677 C687 0.930 . S
C678 H672 0.930 . S
C678 C679 1.355 . S
C678 C680 1.415 1_565 S
C679 C678 1.355 . S
C679 C681 1.403 1_565 S
C680 C678 1.415 1_545 S
C680 C685 1.425 . S
C680 C687 1.409 . S
C681 H673 0.920 1_545 S
C681 C679 1.403 1_545 S
C681 C682 1.389 . S
C682 H674 0.930 . S
C682 C681 1.389 . S
C682 C685 1.409 . S
C683 H675 0.930 . S
C683 C684 1.355 . S
C683 C685 1.415 . S
C684 C683 1.355 . S
C684 C686 1.419 . S
C685 C680 1.425 . S
C685 C682 1.409 . S
C685 C683 1.415 . S
C686 H676 0.930 . S
C686 C684 1.419 . S
C686 C687 1.362 . S
C687 H677 0.930 . S
C687 C680 1.409 . S
C687 C686 1.362 . S
H688 C694 0.930 . S
H689 C697 0.930 . S
H690 C698 0.936 . S
H691 C699 0.930 . S
H692 C702 0.930 . S
H693 C703 0.930 . S
C694 H688 0.930 . S
C694 C695 1.355 1_455 S
C694 C696 1.415 . S
C695 C694 1.355 1_655 S
C695 C697 1.419 . S
C696 C694 1.415 . S
C696 C701 1.425 . S
C696 C703 1.409 . S
C697 H689 0.930 . S
C697 C695 1.419 . S
C697 C698 1.386 . S
C698 H690 0.936 . S
C698 C697 1.386 . S
C698 C701 1.380 1_655 S
C699 H691 0.930 . S
C699 C700 1.355 . S
C699 C701 1.415 . S
C700 C699 1.355 . S
C700 C702 1.419 . S
C701 C696 1.425 . S
C701 C698 1.380 1_455 S
C701 C699 1.415 . S
C702 H692 0.930 . S
C702 C700 1.419 . S
C702 C703 1.362 . S
C703 H693 0.930 . S
C703 C696 1.409 . S
C703 C702 1.362 . S
H704 C710 0.930 . S
H705 C713 0.930 . S
H706 C714 0.930 . S
H707 C715 0.930 . S
H708 C718 0.930 . S
H709 C719 0.930 . S
C710 H704 0.930 . S
C710 C711 1.355 . S
C710 C712 1.415 . S
C711 C710 1.355 . S
C711 C713 1.419 . S
C712 C710 1.415 . S
C712 C717 1.425 . S
C712 C719 1.409 . S
C713 H705 0.930 . S
C713 C711 1.419 . S
C713 C714 1.362 1_554 S
C714 H706 0.930 . S
C714 C713 1.362 1_556 S
C714 C717 1.409 1_556 S
C715 H707 0.930 . S
C715 C716 1.355 . S
C715 C717 1.415 1_556 S
C716 C715 1.355 . S
C716 C718 1.419 1_556 S
C717 C712 1.425 . S
C717 C714 1.409 1_554 S
C717 C715 1.415 1_554 S
C718 H708 0.930 . S
C718 C716 1.419 1_554 S
C718 C719 1.362 . S
C719 H709 0.930 . S
C719 C712 1.409 . S
C719 C718 1.362 . S
H720 C726 0.930 . S
H721 C729 0.930 . S
H722 C730 0.930 . S
H723 C731 0.930 . S
H724 C734 0.930 . S
H725 C735 0.930 . S
C726 H720 0.930 . S
C726 C727 1.355 1_556 S
C726 C728 1.415 . S
C727 C726 1.355 1_554 S
C727 C729 1.419 . S
C728 C726 1.415 . S
C728 C733 1.425 . S
C728 C735 1.409 . S
C729 H721 0.930 . S
C729 C727 1.419 . S
C729 C730 1.362 . S
C730 H722 0.930 . S
C730 C729 1.362 . S
C730 C733 1.409 1_554 S
C731 H723 0.930 . S
C731 C732 1.355 . S
C731 C733 1.415 . S
C732 C731 1.355 . S
C732 C734 1.419 . S
C733 C728 1.425 . S
C733 C730 1.409 1_556 S
C733 C731 1.415 . S
C734 H724 0.930 . S
C734 C732 1.419 . S
C734 C735 1.362 . S
C735 H725 0.930 . S
C735 C728 1.409 . S
C735 C734 1.362 . S
H736 C742 0.930 . S
H737 C745 0.930 . S
H738 C746 0.930 . S
H739 C747 0.930 . S
H740 C750 0.930 . S
H741 C751 0.930 . S
C742 H736 0.930 . S
C742 C743 1.355 . S
C742 C744 1.415 . S
C743 C742 1.355 . S
C743 C745 1.419 . S
C744 C742 1.415 . S
C744 C749 1.425 . S
C744 C751 1.409 . S
C745 H737 0.930 . S
C745 C743 1.419 . S
C745 C746 1.362 1_554 S
C746 H738 0.930 . S
C746 C745 1.362 1_556 S
C746 C749 1.409 1_556 S
C747 H739 0.930 . S
C747 C748 1.355 . S
C747 C749 1.415 1_556 S
C748 C747 1.355 . S
C748 C750 1.419 1_556 S
C749 C744 1.425 . S
C749 C746 1.409 1_554 S
C749 C747 1.415 1_554 S
C750 H740 0.930 . S
C750 C748 1.419 1_554 S
C750 C751 1.362 . S
C751 H741 0.930 . S
C751 C744 1.409 . S
C751 C750 1.362 . S
H752 C758 0.930 . S
H753 C761 0.930 . S
H754 C762 0.930 . S
H755 C763 0.930 . S
H756 C766 0.930 . S
H757 C767 0.930 . S
C758 H752 0.930 . S
C758 C759 1.355 1_556 S
C758 C760 1.415 . S
C759 C758 1.355 1_554 S
C759 C761 1.419 . S
C760 C758 1.415 . S
C760 C765 1.425 . S
C760 C767 1.409 . S
C761 H753 0.930 . S
C761 C759 1.419 . S
C761 C762 1.362 . S
C762 H754 0.930 . S
C762 C761 1.362 . S
C762 C765 1.409 1_554 S
C763 H755 0.930 . S
C763 C764 1.355 . S
C763 C765 1.415 . S
C764 C763 1.355 . S
C764 C766 1.419 . S
C765 C760 1.425 . S
C765 C762 1.409 1_556 S
C765 C763 1.415 . S
C766 H756 0.930 . S
C766 C764 1.419 . S
C766 C767 1.362 . S
C767 H757 0.930 . S
C767 C760 1.409 . S
C767 C766 1.362 . S
H768 C774 0.930 . S
H769 C777 0.930 . S
H770 C778 0.930 . S
H771 C779 0.930 . S
H772 C782 0.930 . S
H773 C783 0.930 . S
C774 H768 0.930 . S
C774 C775 1.355 . S
C774 C776 1.415 . S
C775 C774 1.355 . S
C775 C777 1.419 . S
C776 C774 1.415 . S
C776 C781 1.425 . S
C776 C783 1.409 . S
C777 H769 0.930 . S
C777 C775 1.419 . S
C777 C778 1.362 . S
C778 H770 0.930 . S
C778 C777 1.362 . S
C778 C781 1.409 . S
C779 H771 0.930 . S
C779 C780 1.355 . S
C779 C781 1.415 . S
C780 C779 1.355 . S
C780 C782 1.419 . S
C781 C776 1.425 . S
C781 C778 1.409 . S
C781 C779 1.415 . S
C782 H772 0.930 . S
C782 C780 1.419 . S
C782 C783 1.362 . S
C783 H773 0.930 . S
C783 C776 1.409 . S
C783 C782 1.362 . S
H784 C790 0.930 . S
H785 C793 0.930 . S
H786 C794 0.930 . S
H787 C795 0.930 . S
H788 C798 0.930 . S
H789 C799 0.930 . S
C790 H784 0.930 . S
C790 C791 1.355 . S
C790 C792 1.415 . S
C791 C790 1.355 . S
C791 C793 1.419 . S
C792 C790 1.415 . S
C792 C797 1.425 . S
C792 C799 1.409 . S
C793 H785 0.930 . S
C793 C791 1.419 . S
C793 C794 1.362 . S
C794 H786 0.930 . S
C794 C793 1.362 . S
C794 C797 1.409 . S
C795 H787 0.930 . S
C795 C796 1.355 . S
C795 C797 1.415 . S
C796 C795 1.355 . S
C796 C798 1.419 . S
C797 C792 1.425 . S
C797 C794 1.409 . S
C797 C795 1.415 . S
C798 H788 0.930 . S
C798 C796 1.419 . S
C798 C799 1.362 . S
C799 H789 0.930 . S
C799 C792 1.409 . S
C799 C798 1.362 . S
H800 C806 0.930 . S
H801 C809 0.930 . S
H802 C810 0.930 . S
H803 C811 0.930 . S
H804 C814 0.930 . S
H805 C815 0.930 . S
C806 H800 0.930 . S
C806 C807 1.355 . S
C806 C808 1.415 . S
C807 C806 1.355 . S
C807 C809 1.419 . S
C808 C806 1.415 . S
C808 C813 1.425 . S
C808 C815 1.409 . S
C809 H801 0.930 . S
C809 C807 1.419 . S
C809 C810 1.362 . S
C810 H802 0.930 . S
C810 C809 1.362 . S
C810 C813 1.409 . S
C811 H803 0.930 . S
C811 C812 1.355 . S
C811 C813 1.415 . S
C812 C811 1.355 . S
C812 C814 1.419 . S
C813 C808 1.425 . S
C813 C810 1.409 . S
C813 C811 1.415 . S
C814 H804 0.930 . S
C814 C812 1.419 . S
C814 C815 1.362 . S
C815 H805 0.930 . S
C815 C808 1.409 . S
C815 C814 1.362 . S
H816 C822 0.930 . S
H817 C825 0.930 . S
H818 C826 0.930 . S
H819 C827 0.930 . S
H820 C830 0.930 . S
H821 C831 0.930 . S
C822 H816 0.930 . S
C822 C823 1.355 . S
C822 C824 1.415 . S
C823 C822 1.355 . S
C823 C825 1.419 . S
C824 C822 1.415 . S
C824 C829 1.425 . S
C824 C831 1.409 . S
C825 H817 0.930 . S
C825 C823 1.419 . S
C825 C826 1.362 . S
C826 H818 0.930 . S
C826 C825 1.362 . S
C826 C829 1.409 . S
C827 H819 0.930 . S
C827 C828 1.355 . S
C827 C829 1.415 . S
C828 C827 1.355 . S
C828 C830 1.419 . S
C829 C824 1.425 . S
C829 C826 1.409 . S
C829 C827 1.415 . S
C830 H820 0.930 . S
C830 C828 1.419 . S
C830 C831 1.362 . S
C831 H821 0.930 . S
C831 C824 1.409 . S
C831 C830 1.362 . S
H832 C838 0.930 . S
H833 C841 0.930 . S
H834 C842 0.936 . S
H835 C843 0.930 . S
H836 C846 0.930 . S
H837 C847 0.930 . S
C838 H832 0.930 . S
C838 C839 1.355 1_545 S
C838 C840 1.415 . S
C839 C838 1.355 1_565 S
C839 C841 1.419 . S
C840 C838 1.415 . S
C840 C845 1.425 . S
C840 C847 1.409 . S
C841 H833 0.930 . S
C841 C839 1.419 . S
C841 C842 1.386 . S
C842 H834 0.936 . S
C842 C841 1.386 . S
C842 C845 1.380 1_565 S
C843 H835 0.930 . S
C843 C844 1.355 . S
C843 C845 1.415 . S
C844 C843 1.355 . S
C844 C846 1.419 . S
C845 C840 1.425 . S
C845 C842 1.380 1_545 S
C845 C843 1.415 . S
C846 H836 0.930 . S
C846 C844 1.419 . S
C846 C847 1.362 . S
C847 H837 0.930 . S
C847 C840 1.409 . S
C847 C846 1.362 . S
H848 C854 0.930 . S
H849 C857 0.930 . S
H850 C858 0.930 . S
H851 C859 0.930 . S
H852 C862 0.943 . S
H853 C863 0.930 . S
C854 H848 0.930 . S
C854 C855 1.355 . S
C854 C856 1.415 . S
C855 C854 1.355 . S
C855 C857 1.419 . S
C856 C854 1.415 . S
C856 C861 1.425 . S
C856 C863 1.409 . S
C857 H849 0.930 . S
C857 C855 1.419 . S
C857 C858 1.362 . S
C858 H850 0.930 . S
C858 C857 1.362 . S
C858 C861 1.409 . S
C859 H851 0.930 . S
C859 C860 1.355 . S
C859 C861 1.415 1_655 S
C860 C859 1.355 . S
C860 C862 1.435 . S
C861 C856 1.425 . S
C861 C858 1.409 . S
C861 C859 1.415 1_455 S
C862 H852 0.943 . S
C862 C860 1.435 . S
C862 C863 1.334 1_655 S
C863 H853 0.930 . S
C863 C856 1.409 . S
C863 C862 1.334 1_455 S
H864 C870 0.930 . S
H865 C873 0.930 . S
H866 C874 0.930 . S
H867 C875 0.930 . S
H868 C878 0.930 . S
H869 C879 0.930 . S
C870 H864 0.930 . S
C870 C871 1.355 . S
C870 C872 1.415 . S
C871 C870 1.355 . S
C871 C873 1.419 . S
C872 C870 1.415 . S
C872 C877 1.425 . S
C872 C879 1.409 1_565 S
C873 H865 0.930 . S
C873 C871 1.419 . S
C873 C874 1.362 . S
C874 H866 0.930 . S
C874 C873 1.362 . S
C874 C877 1.409 . S
C875 H867 0.930 . S
C875 C876 1.355 1_565 S
C875 C877 1.415 . S
C876 C875 1.355 1_545 S
C876 C878 1.419 . S
C877 C872 1.425 . S
C877 C874 1.409 . S
C877 C875 1.415 . S
C878 H868 0.930 . S
C878 C876 1.419 . S
C878 C879 1.362 . S
C879 H869 0.930 . S
C879 C872 1.409 1_545 S
C879 C878 1.362 . S
H880 C886 0.930 . S
H881 C889 0.930 . S
H882 C890 0.930 . S
H883 C891 0.930 . S
H884 C894 0.930 . S
H885 C895 0.930 . S
C886 H880 0.930 . S
C886 C887 1.355 1_655 S
C886 C888 1.415 . S
C887 C886 1.355 1_455 S
C887 C889 1.419 . S
C888 C886 1.415 . S
C888 C893 1.425 . S
C888 C895 1.409 . S
C889 H881 0.930 . S
C889 C887 1.419 . S
C889 C890 1.362 . S
C890 H882 0.930 . S
C890 C889 1.362 . S
C890 C893 1.409 1_455 S
C891 H883 0.930 . S
C891 C892 1.355 . S
C891 C893 1.415 . S
C892 C891 1.355 . S
C892 C894 1.419 . S
C893 C888 1.425 . S
C893 C890 1.409 1_655 S
C893 C891 1.415 . S
C894 H884 0.930 . S
C894 C892 1.419 . S
C894 C895 1.362 . S
C895 H885 0.930 . S
C895 C888 1.409 . S
C895 C894 1.362 . S
H896 C902 0.930 . S
H897 C905 0.930 . S
H898 C906 0.930 . S
H899 C907 0.930 . S
H900 C910 0.930 . S
H901 C911 0.930 . S
C902 H896 0.930 . S
C902 C903 1.355 . S
C902 C904 1.415 . S
C903 C902 1.355 . S
C903 C905 1.419 . S
C904 C902 1.415 . S
C904 C909 1.425 . S
C904 C911 1.409 . S
C905 H897 0.930 . S
C905 C903 1.419 . S
C905 C906 1.362 . S
C906 H898 0.930 . S
C906 C905 1.362 . S
C906 C909 1.409 . S
C907 H899 0.930 . S
C907 C908 1.355 . S
C907 C909 1.415 . S
C908 C907 1.355 . S
C908 C910 1.419 . S
C909 C904 1.425 . S
C909 C906 1.409 . S
C909 C907 1.415 . S
C910 H900 0.930 . S
C910 C908 1.419 . S
C910 C911 1.362 . S
C911 H901 0.930 . S
C911 C904 1.409 . S
C911 C910 1.362 . S
H912 C918 0.930 . S
H913 C921 0.930 . S
H914 C922 0.930 . S
H915 C923 0.930 . S
H916 C926 0.930 . S
H917 C927 0.930 . S
C918 H912 0.930 . S
C918 C919 1.355 . S
C918 C920 1.415 . S
C919 C918 1.355 . S
C919 C921 1.419 . S
C920 C918 1.415 . S
C920 C925 1.425 . S
C920 C927 1.409 . S
C921 H913 0.930 . S
C921 C919 1.419 . S
C921 C922 1.362 . S
C922 H914 0.930 . S
C922 C921 1.362 . S
C922 C925 1.409 . S
C923 H915 0.930 . S
C923 C924 1.355 . S
C923 C925 1.415 . S
C924 C923 1.355 . S
C924 C926 1.419 . S
C925 C920 1.425 . S
C925 C922 1.409 . S
C925 C923 1.415 . S
C926 H916 0.930 . S
C926 C924 1.419 . S
C926 C927 1.362 . S
C927 H917 0.930 . S
C927 C920 1.409 . S
C927 C926 1.362 . S
H928 C934 0.930 . S
H929 C937 0.930 . S
H930 C938 0.930 . S
H931 C939 0.930 . S
H932 C942 0.930 . S
H933 C943 0.930 . S
C934 H928 0.930 . S
C934 C935 1.355 . S
C934 C936 1.415 . S
C935 C934 1.355 . S
C935 C937 1.419 . S
C936 C934 1.415 . S
C936 C941 1.425 . S
C936 C943 1.409 . S
C937 H929 0.930 . S
C937 C935 1.419 . S
C937 C938 1.362 . S
C938 H930 0.930 . S
C938 C937 1.362 . S
C938 C941 1.409 . S
C939 H931 0.930 . S
C939 C940 1.355 . S
C939 C941 1.415 . S
C940 C939 1.355 . S
C940 C942 1.419 . S
C941 C936 1.425 . S
C941 C938 1.409 . S
C941 C939 1.415 . S
C942 H932 0.930 . S
C942 C940 1.419 . S
C942 C943 1.362 . S
C943 H933 0.930 . S
C943 C936 1.409 . S
C943 C942 1.362 . S
H944 C950 0.930 . S
H945 C953 0.930 . S
H946 C954 0.930 . S
H947 C955 0.930 . S
H948 C958 0.930 . S
H949 C959 0.930 . S
C950 H944 0.930 . S
C950 C951 1.355 . S
C950 C952 1.415 . S
C951 C950 1.355 . S
C951 C953 1.419 . S
C952 C950 1.415 . S
C952 C957 1.425 . S
C952 C959 1.409 . S
C953 H945 0.930 . S
C953 C951 1.419 . S
C953 C954 1.362 . S
C954 H946 0.930 . S
C954 C953 1.362 . S
C954 C957 1.409 . S
C955 H947 0.930 . S
C955 C956 1.355 . S
C955 C957 1.415 . S
C956 C955 1.355 . S
C956 C958 1.419 . S
C957 C952 1.425 . S
C957 C954 1.409 . S
C957 C955 1.415 . S
C958 H948 0.930 . S
C958 C956 1.419 . S
C958 C959 1.362 . S
C959 H949 0.930 . S
C959 C952 1.409 . S
C959 C958 1.362 . S
H960 C966 0.930 . S
H961 C969 0.930 . S
H962 C970 0.930 . S
H963 C971 0.930 . S
H964 C974 0.930 . S
H965 C975 0.930 . S
C966 H960 0.930 . S
C966 C967 1.355 . S
C966 C968 1.415 . S
C967 C966 1.355 . S
C967 C969 1.419 . S
C968 C966 1.415 . S
C968 C973 1.425 . S
C968 C975 1.409 . S
C969 H961 0.930 . S
C969 C967 1.419 . S
C969 C970 1.362 . S
C970 H962 0.930 . S
C970 C969 1.362 . S
C970 C973 1.409 . S
C971 H963 0.930 . S
C971 C972 1.355 . S
C971 C973 1.415 . S
C972 C971 1.355 . S
C972 C974 1.419 . S
C973 C968 1.425 . S
C973 C970 1.409 . S
C973 C971 1.415 . S
C974 H964 0.930 . S
C974 C972 1.419 . S
C974 C975 1.362 . S
C975 H965 0.930 . S
C975 C968 1.409 . S
C975 C974 1.362 . S
H976 C982 0.930 . S
H977 C985 0.930 . S
H978 C986 0.930 . S
H979 C987 0.930 . S
H980 C990 0.930 . S
H981 C991 0.930 . S
C982 H976 0.930 . S
C982 C983 1.355 . S
C982 C984 1.415 . S
C983 C982 1.355 . S
C983 C985 1.419 . S
C984 C982 1.415 . S
C984 C989 1.425 . S
C984 C991 1.409 . S
C985 H977 0.930 . S
C985 C983 1.419 . S
C985 C986 1.362 . S
C986 H978 0.930 . S
C986 C985 1.362 . S
C986 C989 1.409 . S
C987 H979 0.930 . S
C987 C988 1.355 . S
C987 C989 1.415 . S
C988 C987 1.355 . S
C988 C990 1.419 . S
C989 C984 1.425 . S
C989 C986 1.409 . S
C989 C987 1.415 . S
C990 H980 0.930 . S
C990 C988 1.419 . S
C990 C991 1.362 . S
C991 H981 0.930 . S
C991 C984 1.409 . S
C991 C990 1.362 . S
H992 C998 0.930 . S
H993 C1001 0.930 . S
H994 C1002 0.930 . S
H995 C1003 0.930 . S
H996 C1006 0.930 . S
H997 C1007 0.930 . S
C998 H992 0.930 . S
C998 C999 1.355 . S
C998 C1000 1.415 . S
C999 C998 1.355 . S
C999 C1001 1.419 . S
C1000 C998 1.415 . S
C1000 C1005 1.425 . S
C1000 C1007 1.409 . S
C1001 H993 0.930 . S
C1001 C999 1.419 . S
C1001 C1002 1.362 . S
C1002 H994 0.930 . S
C1002 C1001 1.362 . S
C1002 C1005 1.409 . S
C1003 H995 0.930 . S
C1003 C1004 1.355 . S
C1003 C1005 1.415 . S
C1004 C1003 1.355 . S
C1004 C1006 1.419 . S
C1005 C1000 1.425 . S
C1005 C1002 1.409 . S
C1005 C1003 1.415 . S
C1006 H996 0.930 . S
C1006 C1004 1.419 . S
C1006 C1007 1.362 . S
C1007 H997 0.930 . S
C1007 C1000 1.409 . S
C1007 C1006 1.362 . S
H1008 C1014 0.930 . S
H1009 C1017 0.930 . S
H1010 C1018 0.930 . S
H1011 C1019 0.930 . S
H1012 C1022 0.930 . S
H1013 C1023 0.930 . S
C1014 H1008 0.930 . S
C1014 C1015 1.355 . S
C1014 C1016 1.415 . S
C1015 C1014 1.355 . S
C1015 C1017 1.419 . S
C1016 C1014 1.415 . S
C1016 C1021 1.425 . S
C1016 C1023 1.409 . S
C1017 H1009 0.930 . S
C1017 C1015 1.419 . S
C1017 C1018 1.362 . S
C1018 H1010 0.930 . S
C1018 C1017 1.362 . S
C1018 C1021 1.409 . S
C1019 H1011 0.930 . S
C1019 C1020 1.355 . S
C1019 C1021 1.415 . S
C1020 C1019 1.355 . S
C1020 C1022 1.419 . S
C1021 C1016 1.425 . S
C1021 C1018 1.409 . S
C1021 C1019 1.415 . S
C1022 H1012 0.930 . S
C1022 C1020 1.419 . S
C1022 C1023 1.362 . S
C1023 H1013 0.930 . S
C1023 C1016 1.409 . S
C1023 C1022 1.362 . S
H1024 C1030 0.930 . S
H1025 C1033 0.930 . S
H1026 C1034 0.930 . S
H1027 C1035 0.930 . S
H1028 C1038 0.930 . S
H1029 C1039 0.930 . S
C1030 H1024 0.930 . S
C1030 C1031 1.355 . S
C1030 C1032 1.415 . S
C1031 C1030 1.355 . S
C1031 C1033 1.419 . S
C1032 C1030 1.415 . S
C1032 C1037 1.425 . S
C1032 C1039 1.409 . S
C1033 H1025 0.930 . S
C1033 C1031 1.419 . S
C1033 C1034 1.362 . S
C1034 H1026 0.930 . S
C1034 C1033 1.362 . S
C1034 C1037 1.409 . S
C1035 H1027 0.930 . S
C1035 C1036 1.355 . S
C1035 C1037 1.415 . S
C1036 C1035 1.355 . S
C1036 C1038 1.419 . S
C1037 C1032 1.425 . S
C1037 C1034 1.409 . S
C1037 C1035 1.415 . S
C1038 H1028 0.930 . S
C1038 C1036 1.419 . S
C1038 C1039 1.362 . S
C1039 H1029 0.930 . S
C1039 C1032 1.409 . S
C1039 C1038 1.362 . S
H1040 C1046 0.930 . S
H1041 C1049 0.941 . S
H1042 C1050 0.930 . S
H1043 C1051 0.930 . S
H1044 C1054 0.930 . S
H1045 C1055 0.930 . S
C1046 H1040 0.930 . S
C1046 C1047 1.355 . S
C1046 C1048 1.415 . S
C1047 C1046 1.355 . S
C1047 C1049 1.419 . S
C1048 C1046 1.415 . S
C1048 C1053 1.425 . S
C1048 C1055 1.409 . S
C1049 H1041 0.941 . S
C1049 C1047 1.419 . S
C1049 C1050 1.362 . S
C1050 H1042 0.930 . S
C1050 C1049 1.362 . S
C1050 C1053 1.409 . S
C1051 H1043 0.930 . S
C1051 C1052 1.355 . S
C1051 C1053 1.415 . S
C1052 C1051 1.355 . S
C1052 C1054 1.419 . S
C1053 C1048 1.425 . S
C1053 C1050 1.409 . S
C1053 C1051 1.415 . S
C1054 H1044 0.930 . S
C1054 C1052 1.419 . S
C1054 C1055 1.362 . S
C1055 H1045 0.930 . S
C1055 C1048 1.409 . S
C1055 C1054 1.362 . S
H1056 C1062 0.930 . S
H1057 C1065 0.930 1_554 S
H1058 C1066 0.930 . S
H1059 C1067 0.930 . S
H1060 C1070 0.930 . S
H1061 C1071 0.930 . S
C1062 H1056 0.930 . S
C1062 C1063 1.355 . S
C1062 C1064 1.415 . S
C1063 C1062 1.355 . S
C1063 C1065 1.419 . S
C1064 C1062 1.415 . S
C1064 C1069 1.425 . S
C1064 C1071 1.409 . S
C1065 H1057 0.930 1_556 S
C1065 C1063 1.419 . S
C1065 C1066 1.362 . S
C1066 H1058 0.930 . S
C1066 C1065 1.362 . S
C1066 C1069 1.409 . S
C1067 H1059 0.930 . S
C1067 C1068 1.355 . S
C1067 C1069 1.415 . S
C1068 C1067 1.355 . S
C1068 C1070 1.419 . S
C1069 C1064 1.425 . S
C1069 C1066 1.409 . S
C1069 C1067 1.415 . S
C1070 H1060 0.930 . S
C1070 C1068 1.419 . S
C1070 C1071 1.362 . S
C1071 H1061 0.930 . S
C1071 C1064 1.409 . S
C1071 C1070 1.362 . S
H1072 C1078 0.930 . S
H1073 C1081 0.930 . S
H1074 C1082 0.930 . S
H1075 C1083 0.930 . S
H1076 C1086 0.930 . S
H1077 C1087 0.930 . S
C1078 H1072 0.930 . S
C1078 C1079 1.355 . S
C1078 C1080 1.415 . S
C1079 C1078 1.355 . S
C1079 C1081 1.419 . S
C1080 C1078 1.415 . S
C1080 C1085 1.425 . S
C1080 C1087 1.409 . S
C1081 H1073 0.930 . S
C1081 C1079 1.419 . S
C1081 C1082 1.362 . S
C1082 H1074 0.930 . S
C1082 C1081 1.362 . S
C1082 C1085 1.409 . S
C1083 H1075 0.930 . S
C1083 C1084 1.355 . S
C1083 C1085 1.415 . S
C1084 C1083 1.355 . S
C1084 C1086 1.419 . S
C1085 C1080 1.425 . S
C1085 C1082 1.409 . S
C1085 C1083 1.415 . S
C1086 H1076 0.930 . S
C1086 C1084 1.419 . S
C1086 C1087 1.362 . S
C1087 H1077 0.930 . S
C1087 C1080 1.409 . S
C1087 C1086 1.362 . S
H1088 C1094 0.930 . S
H1089 C1097 0.930 . S
H1090 C1098 0.930 . S
H1091 C1099 0.930 . S
H1092 C1102 0.930 . S
H1093 C1103 0.930 . S
C1094 H1088 0.930 . S
C1094 C1095 1.355 . S
C1094 C1096 1.415 . S
C1095 C1094 1.355 . S
C1095 C1097 1.419 . S
C1096 C1094 1.415 . S
C1096 C1101 1.425 . S
C1096 C1103 1.409 . S
C1097 H1089 0.930 . S
C1097 C1095 1.419 . S
C1097 C1098 1.362 . S
C1098 H1090 0.930 . S
C1098 C1097 1.362 . S
C1098 C1101 1.409 . S
C1099 H1091 0.930 . S
C1099 C1100 1.355 . S
C1099 C1101 1.415 . S
C1100 C1099 1.355 . S
C1100 C1102 1.419 . S
C1101 C1096 1.425 . S
C1101 C1098 1.409 . S
C1101 C1099 1.415 . S
C1102 H1092 0.930 . S
C1102 C1100 1.419 . S
C1102 C1103 1.362 . S
C1103 H1093 0.930 . S
C1103 C1096 1.409 . S
C1103 C1102 1.362 . S
H1104 C1110 0.930 . S
H1105 C1113 0.930 . S
H1106 C1114 0.930 . S
H1107 C1115 0.930 . S
H1108 C1118 0.930 . S
H1109 C1119 0.930 . S
C1110 H1104 0.930 . S
C1110 C1111 1.355 . S
C1110 C1112 1.415 . S
C1111 C1110 1.355 . S
C1111 C1113 1.419 . S
C1112 C1110 1.415 . S
C1112 C1117 1.425 . S
C1112 C1119 1.409 . S
C1113 H1105 0.930 . S
C1113 C1111 1.419 . S
C1113 C1114 1.362 . S
C1114 H1106 0.930 . S
C1114 C1113 1.362 . S
C1114 C1117 1.409 . S
C1115 H1107 0.930 . S
C1115 C1116 1.355 . S
C1115 C1117 1.415 . S
C1116 C1115 1.355 . S
C1116 C1118 1.419 . S
C1117 C1112 1.425 . S
C1117 C1114 1.409 . S
C1117 C1115 1.415 . S
C1118 H1108 0.930 . S
C1118 C1116 1.419 . S
C1118 C1119 1.362 . S
C1119 H1109 0.930 . S
C1119 C1112 1.409 . S
C1119 C1118 1.362 . S
H1120 C1126 0.930 . S
H1121 C1129 0.930 . S
H1122 C1130 0.930 . S
H1123 C1131 0.930 . S
H1124 C1134 0.930 . S
H1125 C1135 0.930 . S
C1126 H1120 0.930 . S
C1126 C1127 1.355 . S
C1126 C1128 1.415 . S
C1127 C1126 1.355 . S
C1127 C1129 1.419 . S
C1128 C1126 1.415 . S
C1128 C1133 1.425 . S
C1128 C1135 1.409 . S
C1129 H1121 0.930 . S
C1129 C1127 1.419 . S
C1129 C1130 1.362 . S
C1130 H1122 0.930 . S
C1130 C1129 1.362 . S
C1130 C1133 1.409 . S
C1131 H1123 0.930 . S
C1131 C1132 1.355 . S
C1131 C1133 1.415 . S
C1132 C1131 1.355 . S
C1132 C1134 1.419 . S
C1133 C1128 1.425 . S
C1133 C1130 1.409 . S
C1133 C1131 1.415 . S
C1134 H1124 0.930 . S
C1134 C1132 1.419 . S
C1134 C1135 1.362 . S
C1135 H1125 0.930 . S
C1135 C1128 1.409 . S
C1135 C1134 1.362 . S
H1136 C1142 0.930 . S
H1137 C1145 0.930 . S
H1138 C1146 0.930 . S
H1139 C1147 0.930 . S
H1140 C1150 0.930 . S
H1141 C1151 0.930 . S
C1142 H1136 0.930 . S
C1142 C1143 1.355 . S
C1142 C1144 1.415 . S
C1143 C1142 1.355 . S
C1143 C1145 1.419 . S
C1144 C1142 1.415 . S
C1144 C1149 1.425 . S
C1144 C1151 1.409 . S
C1145 H1137 0.930 . S
C1145 C1143 1.419 . S
C1145 C1146 1.362 . S
C1146 H1138 0.930 . S
C1146 C1145 1.362 . S
C1146 C1149 1.409 . S
C1147 H1139 0.930 . S
C1147 C1148 1.355 . S
C1147 C1149 1.415 . S
C1148 C1147 1.355 . S
C1148 C1150 1.419 . S
C1149 C1144 1.425 . S
C1149 C1146 1.409 . S
C1149 C1147 1.415 . S
C1150 H1140 0.930 . S
C1150 C1148 1.419 . S
C1150 C1151 1.362 . S
C1151 H1141 0.930 . S
C1151 C1144 1.409 . S
C1151 C1150 1.362 . S
H1152 C1158 0.930 . S
H1153 C1161 0.930 . S
H1154 C1162 0.930 . S
H1155 C1163 0.930 . S
H1156 C1166 0.930 . S
H1157 C1167 0.930 . S
C1158 H1152 0.930 . S
C1158 C1159 1.355 . S
C1158 C1160 1.415 . S
C1159 C1158 1.355 . S
C1159 C1161 1.419 . S
C1160 C1158 1.415 . S
C1160 C1165 1.425 . S
C1160 C1167 1.409 . S
C1161 H1153 0.930 . S
C1161 C1159 1.419 . S
C1161 C1162 1.362 . S
C1162 H1154 0.930 . S
C1162 C1161 1.362 . S
C1162 C1165 1.409 . S
C1163 H1155 0.930 . S
C1163 C1164 1.355 . S
C1163 C1165 1.415 . S
C1164 C1163 1.355 . S
C1164 C1166 1.419 . S
C1165 C1160 1.425 . S
C1165 C1162 1.409 . S
C1165 C1163 1.415 . S
C1166 H1156 0.930 . S
C1166 C1164 1.419 . S
C1166 C1167 1.362 . S
C1167 H1157 0.930 . S
C1167 C1160 1.409 . S
C1167 C1166 1.362 . S
H1168 C1174 0.930 . S
H1169 C1177 0.930 . S
H1170 C1178 0.930 . S
H1171 C1179 0.930 . S
H1172 C1182 0.930 . S
H1173 C1183 0.930 . S
C1174 H1168 0.930 . S
C1174 C1175 1.355 . S
C1174 C1176 1.415 . S
C1175 C1174 1.355 . S
C1175 C1177 1.419 . S
C1176 C1174 1.415 . S
C1176 C1181 1.425 . S
C1176 C1183 1.409 . S
C1177 H1169 0.930 . S
C1177 C1175 1.419 . S
C1177 C1178 1.362 . S
C1178 H1170 0.930 . S
C1178 C1177 1.362 . S
C1178 C1181 1.409 . S
C1179 H1171 0.930 . S
C1179 C1180 1.355 . S
C1179 C1181 1.415 . S
C1180 C1179 1.355 . S
C1180 C1182 1.419 . S
C1181 C1176 1.425 . S
C1181 C1178 1.409 . S
C1181 C1179 1.415 . S
C1182 H1172 0.930 . S
C1182 C1180 1.419 . S
C1182 C1183 1.362 . S
C1183 H1173 0.930 . S
C1183 C1176 1.409 . S
C1183 C1182 1.362 . S
H1184 C1190 0.930 . S
H1185 C1193 0.930 . S
H1186 C1194 0.930 . S
H1187 C1195 0.930 . S
H1188 C1198 0.930 . S
H1189 C1199 0.930 . S
C1190 H1184 0.930 . S
C1190 C1191 1.355 . S
C1190 C1192 1.415 . S
C1191 C1190 1.355 . S
C1191 C1193 1.419 . S
C1192 C1190 1.415 . S
C1192 C1197 1.425 . S
C1192 C1199 1.409 . S
C1193 H1185 0.930 . S
C1193 C1191 1.419 . S
C1193 C1194 1.362 . S
C1194 H1186 0.930 . S
C1194 C1193 1.362 . S
C1194 C1197 1.409 . S
C1195 H1187 0.930 . S
C1195 C1196 1.355 . S
C1195 C1197 1.415 . S
C1196 C1195 1.355 . S
C1196 C1198 1.419 . S
C1197 C1192 1.425 . S
C1197 C1194 1.409 . S
C1197 C1195 1.415 . S
C1198 H1188 0.930 . S
C1198 C1196 1.419 . S
C1198 C1199 1.362 . S
C1199 H1189 0.930 . S
C1199 C1192 1.409 . S
C1199 C1198 1.362 . S
H1200 C1206 0.930 . S
H1201 C1209 0.930 . S
H1202 C1210 0.930 . S
H1203 C1211 0.930 . S
H1204 C1214 0.930 . S
H1205 C1215 0.930 . S
C1206 H1200 0.930 . S
C1206 C1207 1.355 . S
C1206 C1208 1.415 . S
C1207 C1206 1.355 . S
C1207 C1209 1.419 . S
C1208 C1206 1.415 . S
C1208 C1213 1.425 . S
C1208 C1215 1.409 . S
C1209 H1201 0.930 . S
C1209 C1207 1.419 . S
C1209 C1210 1.362 . S
C1210 H1202 0.930 . S
C1210 C1209 1.362 . S
C1210 C1213 1.409 . S
C1211 H1203 0.930 . S
C1211 C1212 1.355 . S
C1211 C1213 1.415 . S
C1212 C1211 1.355 . S
C1212 C1214 1.419 . S
C1213 C1208 1.425 . S
C1213 C1210 1.409 . S
C1213 C1211 1.415 . S
C1214 H1204 0.930 . S
C1214 C1212 1.419 . S
C1214 C1215 1.362 . S
C1215 H1205 0.930 . S
C1215 C1208 1.409 . S
C1215 C1214 1.362 . S
H1216 C1222 0.930 . S
H1217 C1225 0.930 . S
H1218 C1226 0.930 . S
H1219 C1227 0.930 . S
H1220 C1230 0.930 . S
H1221 C1231 0.930 . S
C1222 H1216 0.930 . S
C1222 C1223 1.355 . S
C1222 C1224 1.415 . S
C1223 C1222 1.355 . S
C1223 C1225 1.419 . S
C1224 C1222 1.415 . S
C1224 C1229 1.425 . S
C1224 C1231 1.409 . S
C1225 H1217 0.930 . S
C1225 C1223 1.419 . S
C1225 C1226 1.362 . S
C1226 H1218 0.930 . S
C1226 C1225 1.362 . S
C1226 C1229 1.409 . S
C1227 H1219 0.930 . S
C1227 C1228 1.355 . S
C1227 C1229 1.415 . S
C1228 C1227 1.355 . S
C1228 C1230 1.419 . S
C1229 C1224 1.425 . S
C1229 C1226 1.409 . S
C1229 C1227 1.415 . S
C1230 H1220 0.930 . S
C1230 C1228 1.419 . S
C1230 C1231 1.362 . S
C1231 H1221 0.930 . S
C1231 C1224 1.409 . S
C1231 C1230 1.362 . S
H1232 C1238 0.930 . S
H1233 C1241 0.930 . S
H1234 C1242 0.930 . S
H1235 C1243 0.930 . S
H1236 C1246 0.930 . S
H1237 C1247 0.930 . S
C1238 H1232 0.930 . S
C1238 C1239 1.355 . S
C1238 C1240 1.415 . S
C1239 C1238 1.355 . S
C1239 C1241 1.419 . S
C1240 C1238 1.415 . S
C1240 C1245 1.425 . S
C1240 C1247 1.409 . S
C1241 H1233 0.930 . S
C1241 C1239 1.419 . S
C1241 C1242 1.362 . S
C1242 H1234 0.930 . S
C1242 C1241 1.362 . S
C1242 C1245 1.409 . S
C1243 H1235 0.930 . S
C1243 C1244 1.355 . S
C1243 C1245 1.415 . S
C1244 C1243 1.355 . S
C1244 C1246 1.419 . S
C1245 C1240 1.425 . S
C1245 C1242 1.409 . S
C1245 C1243 1.415 . S
C1246 H1236 0.930 . S
C1246 C1244 1.419 . S
C1246 C1247 1.362 . S
C1247 H1237 0.930 . S
C1247 C1240 1.409 . S
C1247 C1246 1.362 . S
H1248 C1254 0.930 . S
H1249 C1257 0.930 . S
H1250 C1258 0.930 . S
H1251 C1259 0.930 . S
H1252 C1262 0.930 . S
H1253 C1263 0.930 . S
C1254 H1248 0.930 . S
C1254 C1255 1.355 . S
C1254 C1256 1.415 . S
C1255 C1254 1.355 . S
C1255 C1257 1.419 . S
C1256 C1254 1.415 . S
C1256 C1261 1.425 . S
C1256 C1263 1.409 . S
C1257 H1249 0.930 . S
C1257 C1255 1.419 . S
C1257 C1258 1.362 . S
C1258 H1250 0.930 . S
C1258 C1257 1.362 . S
C1258 C1261 1.409 . S
C1259 H1251 0.930 . S
C1259 C1260 1.355 . S
C1259 C1261 1.415 . S
C1260 C1259 1.355 . S
C1260 C1262 1.419 . S
C1261 C1256 1.425 . S
C1261 C1258 1.409 . S
C1261 C1259 1.415 . S
C1262 H1252 0.930 . S
C1262 C1260 1.419 . S
C1262 C1263 1.362 . S
C1263 H1253 0.930 . S
C1263 C1256 1.409 . S
C1263 C1262 1.362 . S
H1264 C1270 0.930 . S
H1265 C1273 0.930 . S
H1266 C1274 0.930 . S
H1267 C1275 0.930 . S
H1268 C1278 0.930 . S
H1269 C1279 0.930 . S
C1270 H1264 0.930 . S
C1270 C1271 1.355 . S
C1270 C1272 1.415 . S
C1271 C1270 1.355 . S
C1271 C1273 1.419 . S
C1272 C1270 1.415 . S
C1272 C1277 1.425 . S
C1272 C1279 1.409 . S
C1273 H1265 0.930 . S
C1273 C1271 1.419 . S
C1273 C1274 1.362 . S
C1274 H1266 0.930 . S
C1274 C1273 1.362 . S
C1274 C1277 1.409 . S
C1275 H1267 0.930 . S
C1275 C1276 1.355 . S
C1275 C1277 1.415 . S
C1276 C1275 1.355 . S
C1276 C1278 1.419 . S
C1277 C1272 1.425 . S
C1277 C1274 1.409 . S
C1277 C1275 1.415 . S
C1278 H1268 0.930 . S
C1278 C1276 1.419 . S
C1278 C1279 1.362 . S
C1279 H1269 0.930 . S
C1279 C1272 1.409 . S
C1279 C1278 1.362 . S
H1280 C1286 0.930 . S
H1281 C1289 0.930 . S
H1282 C1290 0.930 . S
H1283 C1291 0.930 . S
H1284 C1294 0.930 . S
H1285 C1295 0.930 . S
C1286 H1280 0.930 . S
C1286 C1287 1.355 . S
C1286 C1288 1.415 . S
C1287 C1286 1.355 . S
C1287 C1289 1.419 . S
C1288 C1286 1.415 . S
C1288 C1293 1.425 . S
C1288 C1295 1.409 . S
C1289 H1281 0.930 . S
C1289 C1287 1.419 . S
C1289 C1290 1.362 . S
C1290 H1282 0.930 . S
C1290 C1289 1.362 . S
C1290 C1293 1.409 . S
C1291 H1283 0.930 . S
C1291 C1292 1.355 . S
C1291 C1293 1.415 . S
C1292 C1291 1.355 . S
C1292 C1294 1.419 . S
C1293 C1288 1.425 . S
C1293 C1290 1.409 . S
C1293 C1291 1.415 . S
C1294 H1284 0.930 . S
C1294 C1292 1.419 . S
C1294 C1295 1.362 . S
C1295 H1285 0.930 . S
C1295 C1288 1.409 . S
C1295 C1294 1.362 . S
H1296 C1302 0.930 . S
H1297 C1305 0.930 . S
H1298 C1306 0.930 . S
H1299 C1307 0.930 . S
H1300 C1310 0.930 . S
H1301 C1311 0.930 . S
C1302 H1296 0.930 . S
C1302 C1303 1.355 . S
C1302 C1304 1.415 . S
C1303 C1302 1.355 . S
C1303 C1305 1.419 . S
C1304 C1302 1.415 . S
C1304 C1309 1.425 . S
C1304 C1311 1.409 . S
C1305 H1297 0.930 . S
C1305 C1303 1.419 . S
C1305 C1306 1.362 . S
C1306 H1298 0.930 . S
C1306 C1305 1.362 . S
C1306 C1309 1.409 . S
C1307 H1299 0.930 . S
C1307 C1308 1.355 . S
C1307 C1309 1.415 . S
C1308 C1307 1.355 . S
C1308 C1310 1.419 . S
C1309 C1304 1.425 . S
C1309 C1306 1.409 . S
C1309 C1307 1.415 . S
C1310 H1300 0.930 . S
C1310 C1308 1.419 . S
C1310 C1311 1.362 . S
C1311 H1301 0.930 . S
C1311 C1304 1.409 . S
C1311 C1310 1.362 . S
H1312 C1318 0.930 . S
H1313 C1321 0.930 . S
H1314 C1322 0.930 . S
H1315 C1323 0.930 . S
H1316 C1326 0.939 . S
H1317 C1327 0.930 . S
C1318 H1312 0.930 . S
C1318 C1319 1.355 . S
C1318 C1320 1.415 . S
C1319 C1318 1.355 . S
C1319 C1321 1.419 . S
C1320 C1318 1.415 . S
C1320 C1325 1.425 . S
C1320 C1327 1.409 . S
C1321 H1313 0.930 . S
C1321 C1319 1.419 . S
C1321 C1322 1.362 . S
C1322 H1314 0.930 . S
C1322 C1321 1.362 . S
C1322 C1325 1.409 . S
C1323 H1315 0.930 . S
C1323 C1324 1.355 . S
C1323 C1325 1.415 . S
C1324 C1323 1.355 . S
C1324 C1326 1.419 . S
C1325 C1320 1.425 . S
C1325 C1322 1.409 . S
C1325 C1323 1.415 . S
C1326 H1316 0.939 . S
C1326 C1324 1.419 . S
C1326 C1327 1.362 . S
C1327 H1317 0.930 . S
C1327 C1320 1.409 . S
C1327 C1326 1.362 . S
H1328 C1334 0.930 . S
H1329 C1337 0.930 . S
H1330 C1338 0.930 . S
H1331 C1339 0.930 . S
H1332 C1342 0.930 . S
H1333 C1343 0.930 . S
C1334 H1328 0.930 . S
C1334 C1335 1.355 . S
C1334 C1336 1.415 . S
C1335 C1334 1.355 . S
C1335 C1337 1.419 . S
C1336 C1334 1.415 . S
C1336 C1341 1.425 . S
C1336 C1343 1.409 . S
C1337 H1329 0.930 . S
C1337 C1335 1.419 . S
C1337 C1338 1.362 . S
C1338 H1330 0.930 . S
C1338 C1337 1.362 . S
C1338 C1341 1.409 . S
C1339 H1331 0.930 . S
C1339 C1340 1.355 . S
C1339 C1341 1.415 . S
C1340 C1339 1.355 . S
C1340 C1342 1.419 . S
C1341 C1336 1.425 . S
C1341 C1338 1.409 . S
C1341 C1339 1.415 . S
C1342 H1332 0.930 . S
C1342 C1340 1.419 . S
C1342 C1343 1.362 . S
C1343 H1333 0.930 . S
C1343 C1336 1.409 . S
C1343 C1342 1.362 . S
H1344 C1350 0.930 . S
H1345 C1353 0.930 . S
H1346 C1354 0.930 . S
H1347 C1355 0.930 . S
H1348 C1358 0.930 . S
H1349 C1359 0.930 . S
C1350 H1344 0.930 . S
C1350 C1351 1.355 . S
C1350 C1352 1.415 . S
C1351 C1350 1.355 . S
C1351 C1353 1.419 . S
C1352 C1350 1.415 . S
C1352 C1357 1.425 . S
C1352 C1359 1.409 . S
C1353 H1345 0.930 . S
C1353 C1351 1.419 . S
C1353 C1354 1.362 . S
C1354 H1346 0.930 . S
C1354 C1353 1.362 . S
C1354 C1357 1.409 . S
C1355 H1347 0.930 . S
C1355 C1356 1.355 . S
C1355 C1357 1.415 . S
C1356 C1355 1.355 . S
C1356 C1358 1.419 . S
C1357 C1352 1.425 . S
C1357 C1354 1.409 . S
C1357 C1355 1.415 . S
C1358 H1348 0.930 . S
C1358 C1356 1.419 . S
C1358 C1359 1.362 . S
C1359 H1349 0.930 . S
C1359 C1352 1.409 . S
C1359 C1358 1.362 . S
H1360 C1366 0.930 . S
H1361 C1369 0.930 . S
H1362 C1370 0.930 . S
H1363 C1371 0.930 . S
H1364 C1374 0.930 . S
H1365 C1375 0.930 . S
C1366 H1360 0.930 . S
C1366 C1367 1.355 . S
C1366 C1368 1.415 . S
C1367 C1366 1.355 . S
C1367 C1369 1.419 . S
C1368 C1366 1.415 . S
C1368 C1373 1.425 . S
C1368 C1375 1.409 . S
C1369 H1361 0.930 . S
C1369 C1367 1.419 . S
C1369 C1370 1.362 . S
C1370 H1362 0.930 . S
C1370 C1369 1.362 . S
C1370 C1373 1.409 . S
C1371 H1363 0.930 . S
C1371 C1372 1.355 . S
C1371 C1373 1.415 . S
C1372 C1371 1.355 . S
C1372 C1374 1.419 . S
C1373 C1368 1.425 . S
C1373 C1370 1.409 . S
C1373 C1371 1.415 . S
C1374 H1364 0.930 . S
C1374 C1372 1.419 . S
C1374 C1375 1.362 . S
C1375 H1365 0.930 . S
C1375 C1368 1.409 . S
C1375 C1374 1.362 . S
H1376 C1382 0.930 . S
H1377 C1385 0.930 . S
H1378 C1386 0.930 . S
H1379 C1387 0.930 . S
H1380 C1390 0.930 . S
H1381 C1391 0.930 . S
C1382 H1376 0.930 . S
C1382 C1383 1.355 . S
C1382 C1384 1.415 . S
C1383 C1382 1.355 . S
C1383 C1385 1.419 . S
C1384 C1382 1.415 . S
C1384 C1389 1.425 . S
C1384 C1391 1.409 . S
C1385 H1377 0.930 . S
C1385 C1383 1.419 . S
C1385 C1386 1.362 . S
C1386 H1378 0.930 . S
C1386 C1385 1.362 . S
C1386 C1389 1.409 . S
C1387 H1379 0.930 . S
C1387 C1388 1.355 . S
C1387 C1389 1.415 . S
C1388 C1387 1.355 . S
C1388 C1390 1.419 . S
C1389 C1384 1.425 . S
C1389 C1386 1.409 . S
C1389 C1387 1.415 . S
C1390 H1380 0.930 . S
C1390 C1388 1.419 . S
C1390 C1391 1.362 . S
C1391 H1381 0.930 . S
C1391 C1384 1.409 . S
C1391 C1390 1.362 . S
H1392 C1398 0.930 . S
H1393 C1401 0.930 . S
H1394 C1402 0.930 . S
H1395 C1403 0.930 . S
H1396 C1406 0.930 1_554 S
H1397 C1407 0.930 . S
C1398 H1392 0.930 . S
C1398 C1399 1.355 . S
C1398 C1400 1.415 . S
C1399 C1398 1.355 . S
C1399 C1401 1.419 . S
C1400 C1398 1.415 . S
C1400 C1405 1.425 . S
C1400 C1407 1.409 . S
C1401 H1393 0.930 . S
C1401 C1399 1.419 . S
C1401 C1402 1.362 . S
C1402 H1394 0.930 . S
C1402 C1401 1.362 . S
C1402 C1405 1.409 . S
C1403 H1395 0.930 . S
C1403 C1404 1.355 . S
C1403 C1405 1.415 . S
C1404 C1403 1.355 . S
C1404 C1406 1.419 . S
C1405 C1400 1.425 . S
C1405 C1402 1.409 . S
C1405 C1403 1.415 . S
C1406 H1396 0.930 1_556 S
C1406 C1404 1.419 . S
C1406 C1407 1.362 . S
C1407 H1397 0.930 . S
C1407 C1400 1.409 . S
C1407 C1406 1.362 . S
C647 C459 1.714 . S
C652 C18 1.732 . S
C663 C330 1.746 . S
C668 C49 1.740 . S
C679 C98 1.699 . S
C684 C379 1.691 . S
C695 C129 1.719 . S
C700 C410 1.729 . S
C711 C178 1.744 . S
C716 C219 1.747 . S
C727 C250 1.710 . S
C732 C209 1.728 . S
C743 C258 1.741 . S
C748 C299 1.746 . S
C759 C170 1.713 . S
C764 C289 1.732 . S
C775 C139 1.724 . S
C780 C338 1.741 . S
C791 C369 1.714 . S
C796 C10 1.724 . S
C807 C59 1.697 . S
C812 C418 1.713 . S
C823 C90 1.691 . S
C828 C449 1.699 . S
C839 C498 1.735 . S
C844 C539 1.743 . S
C855 C570 1.734 . S
C860 C529 1.747 . S
C871 C619 1.729 . S
C876 C578 1.718 . S
C887 C609 1.703 . S
C892 C490 1.711 . S
C903 C9 1.169 . S
C908 C169 1.135 . S
C919 C218 1.132 . S
C924 C58 1.163 . S
C935 C89 1.240 . S
C940 C249 1.220 . S
C951 C138 1.148 . S
C956 C298 1.126 . S
C967 C329 1.148 . S
C972 C489 1.126 . S
C983 C538 1.236 . S
C988 C378 1.239 . S
C999 C409 1.190 . S
C1004 C569 1.226 . S
C1015 C458 1.236 . S
C1020 C618 1.208 . S
C1031 C579 2.408 . S
C1036 C19 2.396 1_556 S
C1047 C50 2.401 1_554 S
C1052 C610 2.412 . S
C1063 C99 2.414 1_556 S
C1068 C499 2.405 . S
C1079 C130 2.384 1_554 S
C1084 C530 2.376 . S
C1095 C179 2.410 . S
C1100 C419 2.398 . S
C1111 C210 2.402 . S
C1116 C450 2.412 . S
C1127 C259 2.375 . S
C1132 C339 2.379 . S
C1143 C370 2.411 . S
C1148 C290 2.415 . S
C1159 C6 1.103 . S
C1164 C15 1.103 . S
C1175 C55 1.073 . S
C1180 C46 1.073 . S
C1191 C86 1.121 . S
C1196 C95 1.121 . S
C1207 C126 1.088 . S
C1212 C135 1.088 . S
C1223 C175 1.072 . S
C1228 C166 1.072 . S
C1239 C215 1.120 . S
C1244 C206 1.120 . S
C1255 C246 1.126 . S
C1260 C255 1.126 . S
C1271 C286 1.107 . S
C1276 C295 1.107 . S
C1287 C326 1.080 1_554 S
C1292 C335 1.080 . S
C1303 C366 1.117 . S
C1308 C375 1.117 1_556 S
C1319 C415 1.073 . S
C1324 C406 1.073 1_554 S
C1335 C455 1.082 1_556 S
C1340 C446 1.082 . S
C1351 C486 1.103 . S
C1356 C495 1.103 1_554 S
C1367 C526 1.085 1_556 S
C1372 C535 1.085 . S
C1383 C575 1.100 1_554 S
C1388 C566 1.100 . S
C1399 C615 1.075 . S
C1404 C606 1.075 1_556 S
