# Generated by pormake.
# Topology yfb, (5)-cn, num edge types: 1
# Building blocks:
#     Node 0, Type 0, BuildingBlock: XOMCOT_clean_sbu_1, # of connection points: 5
#     Node 1, Type 0, BuildingBlock: XOMCOT_clean_sbu_1, # of connection points: 5
#     Node 2, Type 0, BuildingBlock: XOMCOT_clean_sbu_1, # of connection points: 5
#     Node 3, Type 0, BuildingBlock: XOMCOT_clean_sbu_1, # of connection points: 5
#     Node 4, Type 0, BuildingBlock: XOMCOT_clean_sbu_1, # of connection points: 5
#     Node 5, Type 0, BuildingBlock: XOMCOT_clean_sbu_1, # of connection points: 5
#     Node 6, Type 0, BuildingBlock: XOMCOT_clean_sbu_1, # of connection points: 5
#     Node 7, Type 0, BuildingBlock: XOMCOT_clean_sbu_1, # of connection points: 5
#     Node 8, Type 0, BuildingBlock: XOMCOT_clean_sbu_1, # of connection points: 5
#     Node 9, Type 0, BuildingBlock: XOMCOT_clean_sbu_1, # of connection points: 5
#     Node 10, Type 0, BuildingBlock: XOMCOT_clean_sbu_1, # of connection points: 5
#     Node 11, Type 0, BuildingBlock: XOMCOT_clean_sbu_1, # of connection points: 5
#     Node 12, Type 0, BuildingBlock: XOMCOT_clean_sbu_1, # of connection points: 5
#     Node 13, Type 0, BuildingBlock: XOMCOT_clean_sbu_1, # of connection points: 5
#     Node 14, Type 0, BuildingBlock: XOMCOT_clean_sbu_1, # of connection points: 5
#     Node 15, Type 0, BuildingBlock: XOMCOT_clean_sbu_1, # of connection points: 5
#     Edge 16, Type (0, 0), BuildingBlock: ZUJKAS_clean_linker_0, # of connection points: 2
#     Edge 17, Type (0, 0), BuildingBlock: ZUJKAS_clean_linker_0, # of connection points: 2
#     Edge 18, Type (0, 0), BuildingBlock: ZUJKAS_clean_linker_0, # of connection points: 2
#     Edge 19, Type (0, 0), BuildingBlock: ZUJKAS_clean_linker_0, # of connection points: 2
#     Edge 20, Type (0, 0), BuildingBlock: ZUJKAS_clean_linker_0, # of connection points: 2
#     Edge 21, Type (0, 0), BuildingBlock: ZUJKAS_clean_linker_0, # of connection points: 2
#     Edge 22, Type (0, 0), BuildingBlock: ZUJKAS_clean_linker_0, # of connection points: 2
#     Edge 23, Type (0, 0), BuildingBlock: ZUJKAS_clean_linker_0, # of connection points: 2
#     Edge 24, Type (0, 0), BuildingBlock: ZUJKAS_clean_linker_0, # of connection points: 2
#     Edge 25, Type (0, 0), BuildingBlock: ZUJKAS_clean_linker_0, # of connection points: 2
#     Edge 26, Type (0, 0), BuildingBlock: ZUJKAS_clean_linker_0, # of connection points: 2
#     Edge 27, Type (0, 0), BuildingBlock: ZUJKAS_clean_linker_0, # of connection points: 2
#     Edge 28, Type (0, 0), BuildingBlock: ZUJKAS_clean_linker_0, # of connection points: 2
#     Edge 29, Type (0, 0), BuildingBlock: ZUJKAS_clean_linker_0, # of connection points: 2
#     Edge 30, Type (0, 0), BuildingBlock: ZUJKAS_clean_linker_0, # of connection points: 2
#     Edge 31, Type (0, 0), BuildingBlock: ZUJKAS_clean_linker_0, # of connection points: 2
#     Edge 32, Type (0, 0), BuildingBlock: ZUJKAS_clean_linker_0, # of connection points: 2
#     Edge 33, Type (0, 0), BuildingBlock: ZUJKAS_clean_linker_0, # of connection points: 2
#     Edge 34, Type (0, 0), BuildingBlock: ZUJKAS_clean_linker_0, # of connection points: 2
#     Edge 35, Type (0, 0), BuildingBlock: ZUJKAS_clean_linker_0, # of connection points: 2
#     Edge 36, Type (0, 0), BuildingBlock: ZUJKAS_clean_linker_0, # of connection points: 2
#     Edge 37, Type (0, 0), BuildingBlock: ZUJKAS_clean_linker_0, # of connection points: 2
#     Edge 38, Type (0, 0), BuildingBlock: ZUJKAS_clean_linker_0, # of connection points: 2
#     Edge 39, Type (0, 0), BuildingBlock: ZUJKAS_clean_linker_0, # of connection points: 2
#     Edge 40, Type (0, 0), BuildingBlock: ZUJKAS_clean_linker_0, # of connection points: 2
#     Edge 41, Type (0, 0), BuildingBlock: ZUJKAS_clean_linker_0, # of connection points: 2
#     Edge 42, Type (0, 0), BuildingBlock: ZUJKAS_clean_linker_0, # of connection points: 2
#     Edge 43, Type (0, 0), BuildingBlock: ZUJKAS_clean_linker_0, # of connection points: 2
#     Edge 44, Type (0, 0), BuildingBlock: ZUJKAS_clean_linker_0, # of connection points: 2
#     Edge 45, Type (0, 0), BuildingBlock: ZUJKAS_clean_linker_0, # of connection points: 2
#     Edge 46, Type (0, 0), BuildingBlock: ZUJKAS_clean_linker_0, # of connection points: 2
#     Edge 47, Type (0, 0), BuildingBlock: ZUJKAS_clean_linker_0, # of connection points: 2
#     Edge 48, Type (0, 0), BuildingBlock: ZUJKAS_clean_linker_0, # of connection points: 2
#     Edge 49, Type (0, 0), BuildingBlock: ZUJKAS_clean_linker_0, # of connection points: 2
#     Edge 50, Type (0, 0), BuildingBlock: ZUJKAS_clean_linker_0, # of connection points: 2
#     Edge 51, Type (0, 0), BuildingBlock: ZUJKAS_clean_linker_0, # of connection points: 2
#     Edge 52, Type (0, 0), BuildingBlock: ZUJKAS_clean_linker_0, # of connection points: 2
#     Edge 53, Type (0, 0), BuildingBlock: ZUJKAS_clean_linker_0, # of connection points: 2
#     Edge 54, Type (0, 0), BuildingBlock: ZUJKAS_clean_linker_0, # of connection points: 2
#     Edge 55, Type (0, 0), BuildingBlock: ZUJKAS_clean_linker_0, # of connection points: 2
# Relax obj value: 0.746
# Max RMSD: 0.274
# Mean RMSD: 0.274
data_MOF--net-yfb--node1-XOMCOT_clean_sbu_1--edge1-ZUJKAS_clean_linker_0
_symmetry_space_group_name_H-M    P1
_symmetry_Int_Tables_number       1
_symmetry_cell_setting            triclinic
loop_
_symmetry_equiv_pos_as_xyz
'x, y, z'
_cell_length_a     52.749629
_cell_length_b     52.673936
_cell_length_c     56.136524
_cell_angle_alpha  90.141555
_cell_angle_beta   90.068387
_cell_angle_gamma 89.941653
loop_
_atom_site_label
_atom_site_type_symbol
_atom_site_fract_x
_atom_site_fract_y
_atom_site_fract_z
_atom_type_partial_charge
C0 C 0.63914 0.02156 0.11869 0.0
C1 C 0.61771 0.0104 0.10932 0.0
N2 N 0.60684 0.02671 0.09386 0.0
N3 N 0.64193 0.04493 0.10937 0.0
C4 C 0.62171 0.04765 0.09463 0.0
H5 H 0.65252 0.01256 0.13056 0.0
Co6 Co 0.67108 0.06535 0.112 0.0
C7 C 0.65501 0.11697 0.09749 0.0
O8 O 0.67649 0.11952 0.08588 0.0
N9 N 0.70066 0.08577 0.11508 0.0
C10 C 0.7382 0.10456 0.11088 0.0
C11 C 0.72388 0.08356 0.10514 0.0
C12 C 0.70206 0.10756 0.12791 0.0
N13 N 0.72423 0.11994 0.12487 0.0
O14 O 0.66762 0.06742 0.14613 0.0
H15 H 0.73005 0.06831 0.09369 0.0
H16 H 0.68633 0.11502 0.13812 0.0
O17 O 0.64997 0.09604 0.10805 0.0
C18 C 0.68289 0.05186 0.15608 0.0
O19 O 0.69488 0.03547 0.14246 0.0
N20 N 0.67631 0.06119 0.07892 0.0
C21 C 0.69371 0.05291 0.03267 0.0
C22 C 0.67339 0.0695 0.037 0.0
C23 C 0.66473 0.07315 0.06025 0.0
C24 C 0.69352 0.04247 0.07459 0.0
C25 C 0.70293 0.03834 0.05169 0.0
H26 H 0.6491 0.08598 0.06294 0.0
H27 H 0.70133 0.03186 0.08937 0.0
H28 H 0.61877 0.06409 0.08354 0.0
H29 H 0.61124 0.99135 0.11307 0.0
H30 H 0.75683 0.10888 0.10394 0.0
H31 H 0.66482 0.08024 0.02267 0.0
H32 H 0.7184 0.02505 0.04931 0.0
C33 C 0.47921 0.62764 0.10997 0.0
C34 C 0.49024 0.60581 0.1011 0.0
N35 N 0.47448 0.59532 0.08487 0.0
N36 N 0.45645 0.63105 0.09957 0.0
C37 C 0.45396 0.61084 0.08468 0.0
H38 H 0.48792 0.64092 0.1222 0.0
Co39 Co 0.43675 0.66095 0.10056 0.0
C40 C 0.38508 0.64469 0.08593 0.0
O41 O 0.38239 0.66541 0.07315 0.0
N42 N 0.41703 0.69126 0.1017 0.0
C43 C 0.40125 0.72994 0.09557 0.0
C44 C 0.42154 0.71406 0.09159 0.0
C45 C 0.39448 0.69447 0.11294 0.0
N46 N 0.38399 0.71745 0.10872 0.0
O47 O 0.43343 0.65923 0.13481 0.0
H48 H 0.43822 0.71905 0.08157 0.0
H49 H 0.38512 0.67953 0.12277 0.0
O50 O 0.40596 0.64036 0.09681 0.0
C51 C 0.44789 0.67533 0.14509 0.0
O52 O 0.46471 0.6873 0.13205 0.0
N53 N 0.44201 0.66458 0.0675 0.0
C54 C 0.45188 0.68145 0.02145 0.0
C55 C 0.43404 0.66218 0.02549 0.0
C56 C 0.4296 0.65372 0.04868 0.0
C57 C 0.46192 0.68041 0.06345 0.0
C58 C 0.46691 0.68953 0.04064 0.0
H59 H 0.41582 0.63894 0.05122 0.0
H60 H 0.47273 0.68761 0.0784 0.0
H61 H 0.43808 0.60843 0.07276 0.0
H62 H 0.50889 0.59882 0.10572 0.0
H63 H 0.39916 0.74904 0.08878 0.0
H64 H 0.42285 0.65445 0.011 0.0
H65 H 0.48113 0.70416 0.03851 0.0
C66 C 0.86686 0.48127 0.10994 0.0
C67 C 0.88845 0.49227 0.1009 0.0
N68 N 0.89933 0.4759 0.08548 0.0
N69 N 0.86399 0.45793 0.10046 0.0
C70 C 0.88429 0.45508 0.08589 0.0
H71 H 0.85352 0.49032 0.12183 0.0
Co72 Co 0.835 0.4374 0.10322 0.0
C73 C 0.85188 0.38521 0.09112 0.0
O74 O 0.83065 0.38146 0.07932 0.0
N75 N 0.80551 0.41698 0.10651 0.0
C76 C 0.76751 0.39893 0.10308 0.0
C77 C 0.78225 0.41934 0.09665 0.0
C78 C 0.80377 0.39567 0.11992 0.0
N79 N 0.78125 0.38378 0.11743 0.0
O80 O 0.83818 0.43652 0.13725 0.0
H81 H 0.77625 0.43443 0.085 0.0
H82 H 0.81936 0.38829 0.13037 0.0
O83 O 0.8564 0.40687 0.10061 0.0
C84 C 0.82315 0.45248 0.14693 0.0
O85 O 0.81107 0.46858 0.13312 0.0
N86 N 0.83016 0.44019 0.07002 0.0
C87 C 0.81281 0.44627 0.02346 0.0
C88 C 0.83296 0.4297 0.0285 0.0
C89 C 0.84161 0.42715 0.0519 0.0
C90 C 0.81315 0.45887 0.0649 0.0
C91 C 0.80379 0.46193 0.04185 0.0
H92 H 0.85711 0.41433 0.05516 0.0
H93 H 0.80543 0.47026 0.07923 0.0
H94 H 0.88724 0.43861 0.07476 0.0
H95 H 0.8951 0.51122 0.10492 0.0
H96 H 0.74863 0.39487 0.09654 0.0
H97 H 0.84137 0.41811 0.01463 0.0
H98 H 0.78845 0.47523 0.0389 0.0
C99 C 0.03094 0.87475 0.11259 0.0
C100 C 0.02048 0.89684 0.10387 0.0
N101 N 0.03466 0.90495 0.08542 0.0
N102 N 0.05175 0.86881 0.09984 0.0
C103 C 0.0537 0.88778 0.08365 0.0
H104 H 0.02304 0.8632 0.12661 0.0
Co105 Co 0.07004 0.83811 0.10073 0.0
C106 C 0.12217 0.85153 0.08483 0.0
O107 O 0.12415 0.83007 0.07297 0.0
N108 N 0.08833 0.80704 0.10189 0.0
C109 C 0.10326 0.76817 0.09499 0.0
C110 C 0.08347 0.78469 0.09098 0.0
C111 C 0.11052 0.80298 0.11352 0.0
N112 N 0.12052 0.77986 0.1089 0.0
O113 O 0.07491 0.84082 0.13451 0.0
H114 H 0.0671 0.78062 0.08011 0.0
H115 H 0.12023 0.81759 0.12357 0.0
O116 O 0.10149 0.85714 0.09549 0.0
C117 C 0.05875 0.82712 0.14542 0.0
O118 O 0.04016 0.81702 0.133 0.0
N119 N 0.06307 0.83364 0.06811 0.0
C120 C 0.04934 0.81484 0.0236 0.0
C121 C 0.06966 0.83187 0.02589 0.0
C122 C 0.07599 0.84146 0.04837 0.0
C123 C 0.04125 0.8201 0.06563 0.0
C124 C 0.03411 0.81028 0.04357 0.0
H125 H 0.09156 0.85455 0.04965 0.0
H126 H 0.03039 0.81523 0.08131 0.0
H127 H 0.06795 0.88817 0.06986 0.0
H128 H 0.00327 0.90574 0.11024 0.0
H129 H 0.10514 0.7493 0.08752 0.0
H130 H 0.08157 0.83647 0.01081 0.0
H131 H 0.01776 0.79792 0.04246 0.0
C132 C 0.63068 0.4851 0.39444 0.0
C133 C 0.60803 0.49468 0.40271 0.0
N134 N 0.59959 0.47959 0.42037 0.0
N135 N 0.63663 0.46396 0.4067 0.0
C136 C 0.61711 0.46089 0.4221 0.0
H137 H 0.64265 0.49388 0.38121 0.0
Co138 Co 0.66795 0.44703 0.40643 0.0
C139 C 0.65571 0.39235 0.41539 0.0
O140 O 0.67701 0.38893 0.42714 0.0
N141 N 0.6998 0.43057 0.40586 0.0
C142 C 0.73911 0.41763 0.41362 0.0
C143 C 0.7209 0.43559 0.41865 0.0
C144 C 0.70627 0.41032 0.39224 0.0
N145 N 0.72968 0.40143 0.39728 0.0
O146 O 0.66787 0.44523 0.37227 0.0
H147 H 0.72288 0.45072 0.43151 0.0
H148 H 0.69329 0.40121 0.37998 0.0
O149 O 0.6499 0.4144 0.40753 0.0
C150 C 0.68208 0.46188 0.3627 0.0
O151 O 0.69122 0.48008 0.37628 0.0
N152 N 0.66951 0.45047 0.43989 0.0
C153 C 0.6832 0.45876 0.48729 0.0
C154 C 0.66867 0.43752 0.4808 0.0
C155 C 0.66155 0.434 0.45708 0.0
C156 C 0.6808 0.47271 0.44627 0.0
C157 C 0.68784 0.47728 0.46986 0.0
H158 H 0.65001 0.41782 0.45289 0.0
H159 H 0.68587 0.48625 0.43262 0.0
H160 H 0.61659 0.44619 0.43547 0.0
H161 H 0.59902 0.51199 0.39672 0.0
H162 H 0.7572 0.41568 0.42255 0.0
H163 H 0.66396 0.42288 0.49354 0.0
H164 H 0.69797 0.49458 0.47409 0.0
C165 C 0.03195 0.63044 0.39109 0.0
C166 C 0.02155 0.60896 0.40115 0.0
N167 N 0.03693 0.60097 0.41883 0.0
N168 N 0.0539 0.63598 0.40225 0.0
C169 C 0.05646 0.61757 0.41889 0.0
H170 H 0.02343 0.64179 0.37721 0.0
Co171 Co 0.07459 0.66484 0.39922 0.0
C172 C 0.11078 0.62384 0.38833 0.0
O173 O 0.09526 0.61346 0.3728 0.0
N174 N 0.09524 0.6934 0.39664 0.0
C175 C 0.11111 0.73218 0.40102 0.0
C176 C 0.09012 0.71706 0.40448 0.0
C177 C 0.11909 0.69471 0.38798 0.0
N178 N 0.12932 0.71801 0.39066 0.0
O179 O 0.0735 0.66339 0.36514 0.0
H180 H 0.07251 0.72276 0.41278 0.0
H181 H 0.1292 0.67862 0.38065 0.0
O182 O 0.10418 0.64369 0.39973 0.0
C183 C 0.05728 0.67886 0.35661 0.0
O184 O 0.04098 0.68944 0.37129 0.0
N185 N 0.07488 0.66849 0.43226 0.0
C186 C 0.07363 0.68577 0.4792 0.0
C187 C 0.09466 0.67217 0.47052 0.0
C188 C 0.09511 0.66404 0.44684 0.0
C189 C 0.05354 0.67979 0.4408 0.0
C190 C 0.05252 0.68871 0.46419 0.0
H191 H 0.1122 0.65533 0.44014 0.0
H192 H 0.03785 0.68342 0.42884 0.0
H193 H 0.07218 0.61678 0.43124 0.0
H194 H 0.00344 0.60066 0.39652 0.0
H195 H 0.11294 0.75194 0.40606 0.0
H196 H 0.11119 0.66892 0.48155 0.0
H197 H 0.03599 0.69934 0.46979 0.0
C198 C 0.87269 0.03368 0.39816 0.0
C199 C 0.89301 0.0187 0.40496 0.0
N200 N 0.9077 0.03218 0.42007 0.0
N201 N 0.87463 0.0565 0.40896 0.0
C202 C 0.89615 0.05497 0.42196 0.0
H203 H 0.85664 0.02763 0.38757 0.0
Co204 Co 0.85098 0.08248 0.41387 0.0
C205 C 0.88548 0.11941 0.41486 0.0
O206 O 0.88371 0.11293 0.43739 0.0
N207 N 0.82823 0.10874 0.41996 0.0
C208 C 0.80576 0.13701 0.44026 0.0
C209 C 0.81859 0.11436 0.44154 0.0
C210 C 0.82121 0.12829 0.40584 0.0
N211 N 0.80753 0.14591 0.41782 0.0
O212 O 0.83422 0.07636 0.38347 0.0
H213 H 0.82178 0.10334 0.45749 0.0
H214 H 0.82699 0.13003 0.38744 0.0
O215 O 0.87311 0.10663 0.39953 0.0
C216 C 0.84173 0.07607 0.36188 0.0
O217 O 0.86595 0.0788 0.35713 0.0
N218 N 0.82938 0.05965 0.42931 0.0
C219 C 0.7954 0.03816 0.46145 0.0
C220 C 0.82143 0.03916 0.46664 0.0
C221 C 0.83804 0.05034 0.45044 0.0
C222 C 0.8046 0.05661 0.42291 0.0
C223 C 0.7873 0.04593 0.43875 0.0
H224 H 0.85752 0.05341 0.45565 0.0
H225 H 0.79745 0.06471 0.40659 0.0
H226 H 0.90191 0.0694 0.43452 0.0
H227 H 0.896 0.99903 0.40008 0.0
H228 H 0.79719 0.14688 0.45514 0.0
H229 H 0.82868 0.03304 0.48374 0.0
H230 H 0.76741 0.04601 0.43396 0.0
C231 C 0.47981 0.87111 0.39849 0.0
C232 C 0.48737 0.89385 0.40854 0.0
N233 N 0.46848 0.90261 0.42249 0.0
N234 N 0.45616 0.86556 0.40588 0.0
C235 C 0.44969 0.88534 0.42014 0.0
H236 H 0.49153 0.85861 0.38788 0.0
Co237 Co 0.43956 0.83408 0.40325 0.0
C238 C 0.38569 0.84554 0.41539 0.0
O239 O 0.38365 0.82409 0.42717 0.0
N240 N 0.42299 0.80225 0.40042 0.0
C241 C 0.40955 0.76254 0.40521 0.0
C242 C 0.42839 0.77966 0.41061 0.0
C243 C 0.40166 0.7977 0.38764 0.0
N244 N 0.39247 0.77407 0.39104 0.0
O245 O 0.43774 0.83654 0.36905 0.0
H246 H 0.44449 0.77571 0.42184 0.0
H247 H 0.39184 0.81222 0.37761 0.0
O248 O 0.40683 0.85168 0.40587 0.0
C249 C 0.45467 0.82309 0.35876 0.0
O250 O 0.47313 0.81379 0.37184 0.0
N251 N 0.44322 0.8301 0.4365 0.0
C252 C 0.45141 0.81438 0.48329 0.0
C253 C 0.4327 0.83249 0.47801 0.0
C254 C 0.42898 0.84023 0.4545 0.0
C255 C 0.4638 0.81555 0.44183 0.0
C256 C 0.46794 0.80692 0.46499 0.0
H257 H 0.41436 0.854 0.45109 0.0
H258 H 0.476 0.80902 0.42759 0.0
H259 H 0.43194 0.88652 0.42962 0.0
H260 H 0.50602 0.90225 0.40707 0.0
H261 H 0.40807 0.74337 0.41195 0.0
H262 H 0.42034 0.83992 0.49176 0.0
H263 H 0.4829 0.79323 0.46804 0.0
C264 C 0.3766 0.97855 0.89872 0.0
C265 C 0.39842 0.9894 0.9076 0.0
N266 N 0.40897 0.9733 0.92343 0.0
N267 N 0.37323 0.95558 0.90873 0.0
C268 C 0.39354 0.95276 0.92336 0.0
H269 H 0.36336 0.9876 0.88676 0.0
Co270 Co 0.34338 0.93596 0.90734 0.0
C271 C 0.35907 0.88356 0.9198 0.0
O272 O 0.33833 0.88083 0.9325 0.0
N273 N 0.31307 0.91649 0.90556 0.0
C274 C 0.27465 0.89995 0.91089 0.0
C275 C 0.29038 0.92003 0.91621 0.0
C276 C 0.30996 0.89482 0.89279 0.0
N277 N 0.28717 0.88383 0.89645 0.0
O278 O 0.34479 0.93415 0.87314 0.0
H279 H 0.28545 0.93571 0.92769 0.0
H280 H 0.32479 0.88654 0.88196 0.0
O281 O 0.36385 0.90479 0.90971 0.0
C282 C 0.32974 0.95043 0.86399 0.0
O283 O 0.31946 0.96748 0.87814 0.0
N284 N 0.34012 0.93977 0.94063 0.0
C285 C 0.32469 0.94792 0.98751 0.0
C286 C 0.34402 0.93043 0.98227 0.0
C287 C 0.35164 0.92676 0.9587 0.0
C288 C 0.32413 0.95931 0.94581 0.0
C289 C 0.31569 0.9634 0.96902 0.0
H290 H 0.36641 0.91314 0.95527 0.0
H291 H 0.31637 0.97058 0.93145 0.0
H292 H 0.39613 0.93664 0.93493 0.0
H293 H 0.40534 0.00816 0.90333 0.0
H294 H 0.25596 0.89681 0.91825 0.0
H295 H 0.35248 0.91892 0.99614 0.0
H296 H 0.30096 0.97736 0.97201 0.0
C297 C 0.52337 0.36268 0.89072 0.0
C298 C 0.51279 0.38452 0.89999 0.0
N299 N 0.52908 0.39476 0.91588 0.0
N300 N 0.5464 0.35896 0.90049 0.0
C301 C 0.54949 0.37908 0.91542 0.0
H302 H 0.51414 0.34968 0.8786 0.0
Co303 Co 0.5658 0.32878 0.89841 0.0
C304 C 0.61817 0.34398 0.91161 0.0
O305 O 0.62081 0.32296 0.92397 0.0
N306 N 0.58505 0.29827 0.89602 0.0
C307 C 0.60136 0.25967 0.90119 0.0
C308 C 0.58109 0.27531 0.906 0.0
C309 C 0.60707 0.29533 0.88385 0.0
N310 N 0.618 0.27248 0.88759 0.0
O311 O 0.5677 0.33087 0.86405 0.0
H312 H 0.56496 0.27009 0.91667 0.0
H313 H 0.616 0.31054 0.87403 0.0
O314 O 0.59705 0.34897 0.90137 0.0
C315 C 0.55164 0.31598 0.85425 0.0
O316 O 0.53432 0.30548 0.86784 0.0
N317 N 0.56201 0.32474 0.93169 0.0
C318 C 0.55452 0.30815 0.97834 0.0
C319 C 0.57159 0.32789 0.97339 0.0
C320 C 0.57496 0.33605 0.94995 0.0
C321 C 0.54275 0.30841 0.93666 0.0
C322 C 0.53906 0.29932 0.95971 0.0
H323 H 0.58833 0.35107 0.94679 0.0
H324 H 0.5314 0.30088 0.92221 0.0
H325 H 0.5658 0.38141 0.92681 0.0
H326 H 0.49408 0.39169 0.89585 0.0
H327 H 0.60401 0.24062 0.90793 0.0
H328 H 0.58296 0.33639 0.98736 0.0
H329 H 0.52534 0.28435 0.96244 0.0
C330 C 0.13435 0.52407 0.89691 0.0
C331 C 0.11236 0.51311 0.90514 0.0
N332 N 0.10095 0.52943 0.92026 0.0
N333 N 0.13694 0.54734 0.90661 0.0
C334 C 0.11605 0.55021 0.92043 0.0
H335 H 0.14821 0.51496 0.88561 0.0
Co336 Co 0.16645 0.56729 0.90557 0.0
C337 C 0.15124 0.6179 0.92315 0.0
O338 O 0.17202 0.61853 0.93611 0.0
N339 N 0.19639 0.58737 0.90401 0.0
C340 C 0.2344 0.60515 0.90876 0.0
C341 C 0.2197 0.58416 0.91358 0.0
C342 C 0.19804 0.60988 0.89246 0.0
N343 N 0.22055 0.62154 0.89576 0.0
O344 O 0.16338 0.57147 0.87179 0.0
H345 H 0.22578 0.5681 0.92399 0.0
H346 H 0.18241 0.61815 0.88267 0.0
O347 O 0.14611 0.59815 0.91072 0.0
C348 C 0.17787 0.55587 0.86096 0.0
O349 O 0.18924 0.53817 0.87351 0.0
N350 N 0.1711 0.56103 0.93837 0.0
C351 C 0.18726 0.54918 0.98433 0.0
C352 C 0.16683 0.56583 0.9807 0.0
C353 C 0.15877 0.57126 0.95754 0.0
C354 C 0.1884 0.54219 0.94176 0.0
C355 C 0.19722 0.53633 0.96451 0.0
H356 H 0.14311 0.58415 0.95534 0.0
H357 H 0.19664 0.53279 0.92645 0.0
H358 H 0.11277 0.5666 0.93158 0.0
H359 H 0.10589 0.49414 0.90092 0.0
H360 H 0.25334 0.6086 0.91544 0.0
H361 H 0.15772 0.57529 0.99555 0.0
H362 H 0.2128 0.52307 0.96625 0.0
C363 C 0.97848 0.13535 0.89284 0.0
C364 C 0.9895 0.11346 0.90136 0.0
N365 N 0.9744 0.10357 0.91834 0.0
N366 N 0.95637 0.13943 0.90422 0.0
C367 C 0.95425 0.11951 0.91935 0.0
H368 H 0.98681 0.14805 0.87996 0.0
Co369 Co 0.9366 0.16925 0.90298 0.0
C370 C 0.88451 0.15334 0.9164 0.0
O371 O 0.88142 0.17449 0.92854 0.0
N372 N 0.91693 0.19948 0.90132 0.0
C373 C 0.90002 0.2377 0.90739 0.0
C374 C 0.92034 0.22213 0.91221 0.0
C375 C 0.89513 0.20252 0.8888 0.0
N376 N 0.88391 0.22517 0.89294 0.0
O377 O 0.93392 0.16718 0.86889 0.0
H378 H 0.93611 0.22713 0.9235 0.0
H379 H 0.88656 0.18748 0.87839 0.0
O380 O 0.90575 0.14859 0.90631 0.0
C381 C 0.94999 0.18194 0.85911 0.0
O382 O 0.96729 0.19264 0.87267 0.0
N383 N 0.94119 0.17312 0.93613 0.0
C384 C 0.95013 0.18982 0.98253 0.0
C385 C 0.9323 0.17064 0.97794 0.0
C386 C 0.92825 0.16236 0.95459 0.0
C387 C 0.96101 0.18895 0.94071 0.0
C388 C 0.96552 0.19799 0.96369 0.0
H389 H 0.91443 0.14768 0.95167 0.0
H390 H 0.97212 0.1962 0.92604 0.0
H391 H 0.93889 0.11747 0.93187 0.0
H392 H 0.00769 0.10596 0.89589 0.0
H393 H 0.89699 0.25651 0.91464 0.0
H394 H 0.92085 0.16279 0.99213 0.0
H395 H 0.97972 0.21258 0.96623 0.0
C396 C 0.36774 0.52757 0.61277 0.0
C397 C 0.38947 0.51654 0.60393 0.0
N398 N 0.3999 0.5324 0.58787 0.0
N399 N 0.36435 0.55042 0.60251 0.0
C400 C 0.38445 0.55295 0.5877 0.0
H401 H 0.35473 0.51885 0.62513 0.0
Co402 Co 0.33534 0.57102 0.60482 0.0
C403 C 0.35268 0.6234 0.59412 0.0
O404 O 0.33159 0.62772 0.5823 0.0
N405 N 0.30592 0.59155 0.60762 0.0
C406 C 0.26895 0.61129 0.6027 0.0
C407 C 0.28338 0.5906 0.5962 0.0
C408 C 0.30399 0.61222 0.6219 0.0
N409 N 0.28218 0.62518 0.61859 0.0
O410 O 0.33765 0.5717 0.63895 0.0
H411 H 0.27788 0.57651 0.58323 0.0
H412 H 0.31921 0.61861 0.63337 0.0
O413 O 0.35695 0.60143 0.60299 0.0
C414 C 0.32222 0.55584 0.64805 0.0
O415 O 0.3109 0.5396 0.63376 0.0
N416 N 0.33125 0.56844 0.57152 0.0
C417 C 0.31505 0.56184 0.52463 0.0
C418 C 0.33422 0.57934 0.53014 0.0
C419 C 0.34235 0.58212 0.5537 0.0
C420 C 0.31489 0.54931 0.56603 0.0
C421 C 0.3062 0.5459 0.54278 0.0
H422 H 0.35731 0.59546 0.55729 0.0
H423 H 0.30721 0.53773 0.58018 0.0
H424 H 0.38699 0.56899 0.57603 0.0
H425 H 0.39651 0.4979 0.60855 0.0
H426 H 0.25085 0.61655 0.59506 0.0
H427 H 0.34238 0.59129 0.51648 0.0
H428 H 0.29152 0.53198 0.53943 0.0
C429 C 0.95395 0.392 0.62206 0.0
C430 C 0.9673 0.41233 0.61306 0.0
N431 N 0.96929 0.40942 0.58932 0.0
N432 N 0.94747 0.37602 0.60417 0.0
C433 C 0.95761 0.38716 0.58453 0.0
H434 H 0.94815 0.38997 0.64041 0.0
Co435 Co 0.92496 0.34739 0.60647 0.0
C436 C 0.89079 0.39129 0.59725 0.0
O437 O 0.90685 0.40078 0.58185 0.0
N438 N 0.90322 0.31966 0.60891 0.0
C439 C 0.88725 0.28078 0.60621 0.0
C440 C 0.90859 0.29546 0.60296 0.0
C441 C 0.87879 0.31919 0.61611 0.0
N442 N 0.86848 0.29581 0.61446 0.0
O443 O 0.92686 0.34764 0.64051 0.0
H444 H 0.92672 0.28904 0.59628 0.0
H445 H 0.86844 0.33579 0.62183 0.0
O446 O 0.8959 0.3704 0.60771 0.0
C447 C 0.94449 0.33355 0.64866 0.0
O448 O 0.96166 0.32491 0.63375 0.0
N449 N 0.92356 0.34395 0.57332 0.0
C450 C 0.92431 0.32643 0.5263 0.0
C451 C 0.90228 0.33738 0.53598 0.0
C452 C 0.9022 0.3458 0.55965 0.0
C453 C 0.94498 0.33316 0.5643 0.0
C454 C 0.94605 0.32509 0.5407 0.0
H455 H 0.88452 0.35208 0.56732 0.0
H456 H 0.9613 0.33055 0.57574 0.0
H457 H 0.95499 0.38027 0.56664 0.0
H458 H 0.97355 0.42876 0.62308 0.0
H459 H 0.88568 0.26064 0.60262 0.0
H460 H 0.88476 0.33798 0.52593 0.0
H461 H 0.96358 0.31702 0.53412 0.0
C462 C 0.135 0.9815 0.61258 0.0
C463 C 0.11275 0.99038 0.60273 0.0
N464 N 0.10228 0.97164 0.58963 0.0
N465 N 0.1386 0.95718 0.60592 0.0
C466 C 0.11812 0.95162 0.59227 0.0
H467 H 0.14852 0.9927 0.62254 0.0
Co468 Co 0.16903 0.939 0.60933 0.0
C469 C 0.15732 0.88628 0.59489 0.0
O470 O 0.17887 0.88557 0.58315 0.0
N471 N 0.19993 0.92084 0.6133 0.0
C472 C 0.23881 0.90444 0.61089 0.0
C473 C 0.22344 0.92443 0.60436 0.0
C474 C 0.20215 0.89935 0.62636 0.0
N475 N 0.22518 0.88839 0.62439 0.0
O476 O 0.16494 0.9371 0.64328 0.0
H477 H 0.22921 0.93994 0.59314 0.0
H478 H 0.1865 0.89102 0.63599 0.0
O479 O 0.15049 0.90672 0.60551 0.0
C480 C 0.17845 0.95369 0.65396 0.0
O481 O 0.18888 0.9717 0.64112 0.0
N482 N 0.17452 0.94277 0.57626 0.0
C483 C 0.19185 0.94942 0.52984 0.0
C484 C 0.17147 0.93311 0.53458 0.0
C485 C 0.16284 0.93029 0.55791 0.0
C486 C 0.1915 0.96151 0.57142 0.0
C487 C 0.20094 0.96478 0.54842 0.0
H488 H 0.14736 0.91742 0.56098 0.0
H489 H 0.1991 0.9728 0.58588 0.0
H490 H 0.11541 0.93357 0.58347 0.0
H491 H 0.10591 0.00973 0.6037 0.0
H492 H 0.25802 0.90121 0.60482 0.0
H493 H 0.16294 0.92182 0.52056 0.0
H494 H 0.21636 0.978 0.54566 0.0
C495 C 0.50468 0.1549 0.58637 0.0
C496 C 0.48742 0.13648 0.58018 0.0
N497 N 0.49828 0.11353 0.58313 0.0
N498 N 0.52673 0.1439 0.59288 0.0
C499 C 0.52131 0.11872 0.59267 0.0
H500 H 0.50185 0.17504 0.58411 0.0
Co501 Co 0.55873 0.16103 0.59246 0.0
C502 C 0.57664 0.10864 0.5746 0.0
O503 O 0.55769 0.10457 0.55982 0.0
N504 N 0.59025 0.17779 0.59164 0.0
C505 C 0.62933 0.18706 0.57972 0.0
C506 C 0.60919 0.17117 0.57665 0.0
C507 C 0.59974 0.19776 0.60411 0.0
N508 N 0.62348 0.2038 0.59692 0.0
O509 O 0.56209 0.15767 0.6266 0.0
H510 H 0.6088 0.15548 0.5643 0.0
H511 H 0.5895 0.20774 0.61796 0.0
O512 O 0.57735 0.12897 0.58716 0.0
C513 C 0.54866 0.17454 0.63711 0.0
O514 O 0.53308 0.18826 0.62419 0.0
N515 N 0.55463 0.16816 0.55968 0.0
C516 C 0.54929 0.192 0.51548 0.0
C517 C 0.56157 0.16846 0.51734 0.0
C518 C 0.56436 0.15699 0.53964 0.0
C519 C 0.54252 0.19094 0.55801 0.0
C520 C 0.53931 0.203 0.53618 0.0
H521 H 0.57609 0.14041 0.54049 0.0
H522 H 0.53635 0.20047 0.57407 0.0
H523 H 0.53477 0.10421 0.59749 0.0
H524 H 0.46909 0.13993 0.57214 0.0
H525 H 0.64729 0.18603 0.57042 0.0
H526 H 0.57007 0.15957 0.50187 0.0
H527 H 0.53054 0.2216 0.53584 0.0
H528 H 0.70664 0.01659 0.18317 0.0
H529 H 0.72845 0.02295 0.22093 0.0
H530 H 0.70149 0.10022 0.22362 0.0
H531 H 0.67981 0.09404 0.1852 0.0
H532 H 0.75235 0.09741 0.231 0.0
H533 H 0.70558 0.02725 0.28909 0.0
H534 H 0.71635 0.01286 0.26196 0.0
H535 H 0.69216 0.03701 0.26097 0.0
C536 C 0.7048 0.03481 0.19202 0.0
C537 C 0.69135 0.05477 0.18119 0.0
C538 C 0.71723 0.03837 0.21375 0.0
C539 C 0.71644 0.06196 0.2254 0.0
C540 C 0.70226 0.08177 0.21508 0.0
H541 H 0.78992 0.07875 0.365 0.0
H542 H 0.75894 0.07717 0.33264 0.0
C543 C 0.68967 0.07817 0.19323 0.0
C544 C 0.73231 0.06625 0.24708 0.0
H545 H 0.74732 0.04073 0.30125 0.0
C546 C 0.75099 0.08524 0.24651 0.0
C547 C 0.73049 0.05061 0.2675 0.0
C548 C 0.70987 0.03098 0.27005 0.0
C549 C 0.76847 0.08831 0.26527 0.0
C550 C 0.76768 0.07157 0.28498 0.0
C551 C 0.74831 0.05331 0.28601 0.0
C552 C 0.78676 0.07258 0.30466 0.0
C553 C 0.78754 0.10958 0.26378 0.0
C554 C 0.81282 0.07011 0.2999 0.0
C555 C 0.83066 0.07107 0.31843 0.0
C556 C 0.82283 0.07418 0.34221 0.0
C557 C 0.79669 0.07617 0.34696 0.0
C558 C 0.7789 0.07535 0.32842 0.0
H559 H 0.7808 0.12503 0.25191 0.0
H560 H 0.79157 0.11774 0.28164 0.0
H561 H 0.80552 0.1021 0.25628 0.0
H562 H 0.8194 0.06725 0.28183 0.0
H563 H 0.85058 0.06931 0.31409 0.0
H564 H 0.49089 0.80389 0.32949 0.0
H565 H 0.48491 0.77986 0.29266 0.0
H566 H 0.40438 0.79326 0.29624 0.0
H567 H 0.41027 0.81754 0.33333 0.0
H568 H 0.41903 0.7406 0.28926 0.0
H569 H 0.46661 0.8045 0.22497 0.0
H570 H 0.48498 0.79789 0.25121 0.0
H571 H 0.45574 0.81524 0.25379 0.0
C572 C 0.47194 0.80224 0.32219 0.0
C573 C 0.4511 0.81285 0.33427 0.0
C574 C 0.46855 0.78845 0.30111 0.0
C575 C 0.44422 0.78481 0.29157 0.0
C576 C 0.42335 0.79589 0.30322 0.0
H577 H 0.42176 0.71872 0.15099 0.0
H578 H 0.41751 0.74402 0.1873 0.0
C579 C 0.42677 0.80999 0.32429 0.0
C580 C 0.44077 0.76842 0.27009 0.0
H581 H 0.45871 0.76222 0.2119 0.0
C582 C 0.42748 0.74541 0.27227 0.0
C583 C 0.45172 0.77471 0.24789 0.0
C584 C 0.46538 0.79953 0.24416 0.0
C585 C 0.42545 0.72827 0.25301 0.0
C586 C 0.43717 0.73419 0.23104 0.0
C587 C 0.44988 0.75751 0.22875 0.0
C588 C 0.43643 0.71679 0.21 0.0
C589 C 0.41065 0.70406 0.25627 0.0
C590 C 0.44793 0.69264 0.21064 0.0
C591 C 0.45011 0.67794 0.18977 0.0
C592 C 0.44074 0.68715 0.16803 0.0
C593 C 0.42851 0.71085 0.16763 0.0
C594 C 0.4263 0.72545 0.18836 0.0
H595 H 0.39775 0.70519 0.27187 0.0
H596 H 0.39927 0.69964 0.24013 0.0
H597 H 0.42406 0.68814 0.25926 0.0
H598 H 0.45637 0.68572 0.22697 0.0
H599 H 0.46026 0.66006 0.19038 0.0
H600 H 0.68589 0.41768 0.33666 0.0
H601 H 0.71204 0.41083 0.30101 0.0
H602 H 0.72939 0.49077 0.29901 0.0
H603 H 0.70394 0.49761 0.33472 0.0
H604 H 0.71254 0.43015 0.25493 0.0
H605 H 0.7995 0.45903 0.30297 0.0
H606 H 0.77007 0.45249 0.31813 0.0
H607 H 0.77532 0.48293 0.30446 0.0
C608 C 0.69491 0.43385 0.32834 0.0
C609 C 0.69306 0.45817 0.33864 0.0
C610 C 0.70997 0.42988 0.30806 0.0
C611 C 0.72334 0.45016 0.29778 0.0
C612 C 0.71995 0.47469 0.30707 0.0
H613 H 0.80555 0.49015 0.17529 0.0
H614 H 0.78368 0.48579 0.21343 0.0
C615 C 0.70516 0.47862 0.32736 0.0
C616 C 0.74134 0.44594 0.27775 0.0
H617 H 0.80216 0.45831 0.2602 0.0
C618 C 0.73224 0.43585 0.2562 0.0
C619 C 0.76719 0.45308 0.27948 0.0
C620 C 0.77867 0.46222 0.30259 0.0
C621 C 0.74791 0.43422 0.23597 0.0
C622 C 0.77326 0.44282 0.23739 0.0
C623 C 0.78268 0.45182 0.25917 0.0
C624 C 0.78928 0.44523 0.21582 0.0
C625 C 0.73704 0.42447 0.21284 0.0
C626 C 0.80052 0.42394 0.205 0.0
C627 C 0.81346 0.42645 0.18328 0.0
C628 C 0.815 0.45024 0.17204 0.0
C629 C 0.80472 0.4716 0.18357 0.0
C630 C 0.79215 0.46914 0.2053 0.0
H631 H 0.71666 0.41943 0.21442 0.0
H632 H 0.73918 0.43905 0.19873 0.0
H633 H 0.74771 0.40736 0.20704 0.0
H634 H 0.79856 0.40532 0.21294 0.0
H635 H 0.8209 0.4096 0.17466 0.0
H636 H 0.10041 0.68223 0.32937 0.0
H637 H 0.10632 0.70899 0.29398 0.0
H638 H 0.02668 0.72748 0.29451 0.0
H639 H 0.02079 0.70133 0.32992 0.0
H640 H 0.08489 0.71124 0.24812 0.0
H641 H 0.06011 0.79701 0.30023 0.0
H642 H 0.06684 0.76685 0.31408 0.0
H643 H 0.03595 0.77314 0.30175 0.0
C644 C 0.08408 0.69151 0.32156 0.0
C645 C 0.06014 0.68979 0.33248 0.0
C646 C 0.08751 0.70695 0.30146 0.0
C647 C 0.06708 0.72084 0.29202 0.0
C648 C 0.04287 0.71756 0.30188 0.0
H649 H 0.02288 0.8128 0.177 0.0
H650 H 0.02908 0.78911 0.21392 0.0
C651 C 0.03947 0.70239 0.32199 0.0
C652 C 0.07088 0.73953 0.2725 0.0
H653 H 0.05935 0.80141 0.25768 0.0
C654 C 0.07976 0.73105 0.25029 0.0
C655 C 0.06447 0.76549 0.27542 0.0
C656 C 0.05657 0.77624 0.29923 0.0
C657 C 0.08085 0.7475 0.23057 0.0
C658 C 0.07303 0.77307 0.23323 0.0
C659 C 0.06527 0.78179 0.25568 0.0
C660 C 0.07002 0.79014 0.21241 0.0
C661 C 0.08912 0.7372 0.20672 0.0
C662 C 0.09103 0.79949 0.19981 0.0
C663 C 0.08751 0.81348 0.17879 0.0
C664 C 0.06293 0.818 0.17002 0.0
C665 C 0.04202 0.80967 0.18336 0.0
C666 C 0.04553 0.79605 0.20441 0.0
H667 H 0.09232 0.71635 0.20713 0.0
H668 H 0.07462 0.74152 0.19296 0.0
H669 H 0.10704 0.74656 0.20128 0.0
H670 H 0.11009 0.7953 0.20582 0.0
H671 H 0.10397 0.8194 0.16872 0.0
H672 H 0.31118 0.98762 0.83577 0.0
H673 H 0.28454 0.98269 0.80048 0.0
H674 H 0.29558 0.90162 0.8027 0.0
H675 H 0.32291 0.90654 0.83798 0.0
H676 H 0.29448 0.92158 0.75582 0.0
H677 H 0.21241 0.95581 0.80814 0.0
H678 H 0.2384 0.97774 0.80877 0.0
H679 H 0.24203 0.94677 0.82185 0.0
C680 C 0.30844 0.96878 0.82844 0.0
C681 C 0.31906 0.94748 0.83971 0.0
C682 C 0.29298 0.96596 0.80839 0.0
C683 C 0.28739 0.94173 0.79937 0.0
C684 C 0.2994 0.92049 0.80952 0.0
H685 H 0.18334 0.90887 0.67871 0.0
H686 H 0.208 0.90229 0.7154 0.0
C687 C 0.31517 0.92333 0.82956 0.0
C688 C 0.26809 0.9389 0.78013 0.0
H689 H 0.20728 0.9555 0.76567 0.0
C690 C 0.27529 0.92857 0.75806 0.0
C691 C 0.2429 0.94775 0.78314 0.0
C692 C 0.23337 0.95739 0.80683 0.0
C693 C 0.25844 0.92831 0.73856 0.0
C694 C 0.23375 0.9385 0.74127 0.0
C695 C 0.22623 0.94779 0.7636 0.0
C696 C 0.21648 0.9421 0.7206 0.0
C697 C 0.26747 0.91832 0.71484 0.0
C698 C 0.2122 0.96669 0.71196 0.0
C699 C 0.19824 0.97047 0.6911 0.0
C700 C 0.18794 0.94977 0.67856 0.0
C701 C 0.19084 0.92523 0.68805 0.0
C702 C 0.20516 0.92141 0.70886 0.0
H703 H 0.28797 0.91346 0.71505 0.0
H704 H 0.2566 0.90099 0.71011 0.0
H705 H 0.26401 0.9326 0.70067 0.0
H706 H 0.22062 0.98293 0.72082 0.0
H707 H 0.19638 0.98959 0.68424 0.0
H708 H 0.51485 0.29841 0.82488 0.0
H709 H 0.52 0.27313 0.78872 0.0
H710 H 0.60099 0.28324 0.79247 0.0
H711 H 0.59584 0.30924 0.82868 0.0
H712 H 0.5823 0.28439 0.74543 0.0
H713 H 0.54526 0.20031 0.79271 0.0
H714 H 0.52367 0.22659 0.79403 0.0
H715 H 0.55427 0.22904 0.8081 0.0
C716 C 0.53375 0.29574 0.81775 0.0
C717 C 0.55492 0.30583 0.8297 0.0
C718 C 0.5367 0.28102 0.79718 0.0
C719 C 0.56093 0.27554 0.78821 0.0
C720 C 0.5821 0.28694 0.79917 0.0
H721 H 0.59366 0.17773 0.66196 0.0
H722 H 0.6005 0.20032 0.69997 0.0
C723 C 0.57913 0.30199 0.81976 0.0
C724 C 0.56381 0.25717 0.76801 0.0
H725 H 0.54625 0.19755 0.75003 0.0
C726 C 0.57484 0.26526 0.74655 0.0
C727 C 0.55435 0.23201 0.76947 0.0
C728 C 0.54398 0.22136 0.7924 0.0
C729 C 0.5752 0.24946 0.7262 0.0
C730 C 0.56442 0.22486 0.72736 0.0
C731 C 0.55443 0.21641 0.74908 0.0
C732 C 0.5608 0.20879 0.70568 0.0
C733 C 0.58594 0.25959 0.70323 0.0
C734 C 0.53622 0.20513 0.69675 0.0
C735 C 0.53232 0.19232 0.67522 0.0
C736 C 0.55286 0.18241 0.66222 0.0
C737 C 0.57742 0.18472 0.6718 0.0
C738 C 0.58137 0.19794 0.69332 0.0
H739 H 0.59104 0.28 0.70456 0.0
H740 H 0.60324 0.2487 0.69847 0.0
H741 H 0.57204 0.25711 0.68853 0.0
H742 H 0.52005 0.2132 0.70596 0.0
H743 H 0.51322 0.19104 0.6682 0.0
H744 H 0.3007 0.5195 0.67533 0.0
H745 H 0.27525 0.52564 0.71116 0.0
H746 H 0.29387 0.60533 0.71137 0.0
H747 H 0.32001 0.59915 0.67556 0.0
H748 H 0.29194 0.58355 0.75751 0.0
H749 H 0.20586 0.55992 0.70562 0.0
H750 H 0.22961 0.5356 0.70357 0.0
H751 H 0.23593 0.56667 0.69168 0.0
C752 C 0.29985 0.53825 0.68328 0.0
C753 C 0.31219 0.55887 0.67252 0.0
C754 C 0.28509 0.54178 0.70363 0.0
C755 C 0.28198 0.56608 0.71349 0.0
C756 C 0.29575 0.58646 0.70386 0.0
H757 H 0.183 0.60114 0.83722 0.0
H758 H 0.20649 0.60795 0.79989 0.0
C759 C 0.31082 0.58287 0.68351 0.0
C760 C 0.26347 0.57 0.73313 0.0
H761 H 0.20178 0.55839 0.74824 0.0
C762 C 0.27213 0.57854 0.7554 0.0
C763 C 0.2375 0.56377 0.73028 0.0
C764 C 0.22659 0.55624 0.70643 0.0
C765 C 0.25584 0.57939 0.77525 0.0
C766 C 0.23032 0.5716 0.77266 0.0
C767 C 0.22138 0.56428 0.75017 0.0
C768 C 0.21359 0.56803 0.7936 0.0
C769 C 0.26626 0.5873 0.79917 0.0
C770 C 0.20904 0.54336 0.80184 0.0
C771 C 0.1958 0.53946 0.82302 0.0
C772 C 0.1865 0.56014 0.83625 0.0
C773 C 0.18966 0.58483 0.82723 0.0
C774 C 0.20328 0.58876 0.80608 0.0
H775 H 0.2869 0.5914 0.7985 0.0
H776 H 0.25622 0.60459 0.80544 0.0
H777 H 0.26288 0.57211 0.81247 0.0
H778 H 0.21675 0.52712 0.79241 0.0
H779 H 0.19372 0.52025 0.82959 0.0
H780 H 0.90567 0.18954 0.83433 0.0
H781 H 0.90053 0.21552 0.79839 0.0
H782 H 0.98176 0.22311 0.79319 0.0
H783 H 0.98686 0.19796 0.82934 0.0
H784 H 0.95874 0.26858 0.79275 0.0
H785 H 0.911 0.20492 0.72767 0.0
H786 H 0.8952 0.20778 0.75587 0.0
H787 H 0.92594 0.19313 0.75439 0.0
C788 C 0.92241 0.19606 0.82504 0.0
C789 C 0.94669 0.19164 0.83457 0.0
C790 C 0.91947 0.21098 0.8045 0.0
C791 C 0.94078 0.2213 0.79297 0.0
C792 C 0.96503 0.2155 0.80176 0.0
H793 H 0.98294 0.31288 0.67439 0.0
H794 H 0.97971 0.28783 0.71086 0.0
C795 C 0.96794 0.20096 0.82235 0.0
C796 C 0.93815 0.23998 0.77319 0.0
H797 H 0.91639 0.24784 0.71625 0.0
C798 C 0.94941 0.26399 0.77605 0.0
C799 C 0.92577 0.23419 0.75145 0.0
C800 C 0.91395 0.20855 0.74698 0.0
C801 C 0.94915 0.28206 0.7577 0.0
C802 C 0.93739 0.27604 0.7358 0.0
C803 C 0.92534 0.25242 0.73312 0.0
C804 C 0.93928 0.29316 0.71487 0.0
C805 C 0.96168 0.30744 0.76176 0.0
C806 C 0.91765 0.30481 0.70517 0.0
C807 C 0.91951 0.31951 0.68442 0.0
C808 C 0.94298 0.32237 0.67283 0.0
C809 C 0.96464 0.31119 0.68298 0.0
C810 C 0.96282 0.29682 0.70381 0.0
H811 H 0.96444 0.31147 0.78103 0.0
H812 H 0.98057 0.30742 0.75307 0.0
H813 H 0.95026 0.32298 0.75379 0.0
H814 H 0.89929 0.30213 0.7134 0.0
H815 H 0.90241 0.32753 0.67683 0.0
H816 H 0.43855 0.93912 0.94711 0.0
H817 H 0.47181 0.94832 0.97638 0.0
H818 H 0.46055 0.02853 0.96574 0.0
H819 H 0.42693 0.01963 0.93714 0.0
H820 H 0.51729 0.97532 0.97186 0.0
H821 H 0.45447 0.02208 0.03791 0.0
H822 H 0.44232 0.00344 0.01341 0.0
H823 H 0.45267 0.03554 0.0086 0.0
C824 C 0.44298 0.95873 0.95107 0.0
C825 C 0.42977 0.97856 0.93968 0.0
C826 C 0.46213 0.96396 0.96777 0.0
C827 C 0.46842 0.98914 0.97365 0.0
C828 C 0.45574 0.00895 0.96193 0.0
H829 H 0.57693 0.06095 0.07054 0.0
H830 H 0.54383 0.05184 0.04113 0.0
C831 C 0.43665 0.00376 0.94524 0.0
C832 C 0.48837 0.99475 0.99184 0.0
H833 H 0.49875 0.0249 0.04506 0.0
C834 C 0.51319 0.98603 0.98793 0.0
C835 C 0.48312 0.00884 0.01281 0.0
C836 C 0.45667 0.01784 0.01862 0.0
C837 C 0.53293 0.9914 0.0041 0.0
C838 C 0.52768 0.00546 0.02509 0.0
C839 C 0.50285 0.01419 0.029 0.0
C840 C 0.54761 0.01101 0.04333 0.0
C841 C 0.55939 0.98247 0.99823 0.0
C842 C 0.56048 0.99117 0.05482 0.0
C843 C 0.57952 0.9963 0.07156 0.0
C844 C 0.58614 0.02148 0.07746 0.0
C845 C 0.57273 0.04135 0.06632 0.0
C846 C 0.55365 0.03616 0.04953 0.0
H847 H 0.56161 0.9785 0.97889 0.0
H848 H 0.57375 0.99678 1.00362 0.0
H849 H 0.56335 0.96463 0.00801 0.0
H850 H 0.55584 0.9716 0.05079 0.0
H851 H 0.58937 0.9804 0.07946 0.0
H852 H 0.4832 0.41464 0.9287 0.0
H853 H 0.47492 0.44881 0.95692 0.0
H854 H 0.55506 0.45644 0.96998 0.0
H855 H 0.56369 0.42274 0.94103 0.0
H856 H 0.48518 0.45141 0.00443 0.0
H857 H 0.53515 0.52963 0.95822 0.0
H858 H 0.52817 0.49977 0.94381 0.0
H859 H 0.55469 0.50237 0.96383 0.0
C860 C 0.49923 0.42377 0.93712 0.0
C861 C 0.52423 0.41576 0.9322 0.0
C862 C 0.49438 0.4433 0.95353 0.0
C863 C 0.51431 0.4556 0.96549 0.0
C864 C 0.53929 0.4477 0.96071 0.0
H865 H 0.52078 0.57585 0.07287 0.0
H866 H 0.52986 0.54153 0.04493 0.0
C867 C 0.5442 0.42813 0.94425 0.0
C868 C 0.50873 0.47604 0.98341 0.0
H869 H 0.52021 0.53836 0.99722 0.0
C870 C 0.49278 0.47044 1.00277 0.0
C871 C 0.51862 0.50096 0.98142 0.0
C872 C 0.53492 0.50869 0.9606 0.0
C873 C 0.48681 0.48879 0.02024 0.0
C874 C 0.49662 0.51373 0.01821 0.0
C875 C 0.51264 0.51931 0.99889 0.0
C876 C 0.49067 0.53427 0.03592 0.0
C877 C 0.47051 0.48105 0.04105 0.0
C878 C 0.46554 0.54192 0.04033 0.0
C879 C 0.46019 0.56155 0.05659 0.0
C880 C 0.47984 0.57423 0.06881 0.0
C881 C 0.505 0.56647 0.06429 0.0
C882 C 0.5103 0.54687 0.04805 0.0
H883 H 0.47052 0.46013 0.04358 0.0
H884 H 0.47707 0.49018 0.0578 0.0
H885 H 0.45067 0.48709 0.03769 0.0
H886 H 0.45 0.53295 0.03093 0.0
H887 H 0.4406 0.56674 0.05953 0.0
H888 H 0.08295 0.4832 0.93389 0.0
H889 H 0.04821 0.47451 0.9612 0.0
H890 H 0.03602 0.55482 0.9706 0.0
H891 H 0.0703 0.56379 0.94255 0.0
H892 H 0.04409 0.48782 0.00838 0.0
H893 H 0.96461 0.52966 0.95689 0.0
H894 H 0.99521 0.52334 0.94381 0.0
H895 H 0.9905 0.5511 0.96198 0.0
C896 C 0.07266 0.49912 0.94128 0.0
C897 C 0.07952 0.52428 0.93571 0.0
C898 C 0.05285 0.49406 0.95715 0.0
C899 C 0.03922 0.51396 0.96781 0.0
C900 C 0.0459 0.5391 0.96231 0.0
H901 H 0.91716 0.522 0.07133 0.0
H902 H 0.95167 0.53047 0.04369 0.0
C903 C 0.06574 0.5442 0.9464 0.0
C904 C 0.0187 0.50828 0.98529 0.0
H905 H 0.95557 0.51699 0.99651 0.0
C906 C 0.02471 0.49411 0.00572 0.0
C907 C 0.99338 0.51647 0.98189 0.0
C908 C 0.9854 0.53079 0.95986 0.0
C909 C 0.00628 0.48833 0.023 0.0
C910 C 0.98096 0.49653 0.0196 0.0
C911 C 0.97495 0.51069 0.99916 0.0
C912 C 0.96047 0.49097 0.03715 0.0
C913 C 0.01425 0.47403 0.04503 0.0
C914 C 0.95374 0.46587 0.04277 0.0
C915 C 0.93403 0.46089 0.05886 0.0
C916 C 0.92045 0.48091 0.06962 0.0
C917 C 0.92731 0.50602 0.06388 0.0
C918 C 0.94699 0.51095 0.04783 0.0
H919 H 0.03506 0.47507 0.04795 0.0
H920 H 0.00452 0.48155 0.06109 0.0
H921 H 0.00906 0.45373 0.04297 0.0
H922 H 0.96351 0.45009 0.03446 0.0
H923 H 0.92947 0.44134 0.06284 0.0
H924 H 0.94135 0.07601 0.94531 0.0
H925 H 0.95176 0.04264 0.97396 0.0
H926 H 0.03084 0.04932 0.95591 0.0
H927 H 0.02087 0.08319 0.92801 0.0
H928 H 0.97482 0.99594 0.96807 0.0
H929 H 0.03309 0.05623 0.02782 0.0
H930 H 0.01297 0.06936 0.00493 0.0
H931 H 0.04357 0.05653 0.99742 0.0
C932 C 0.961 0.07061 0.94753 0.0
C933 C 0.98021 0.08266 0.93429 0.0
C934 C 0.96691 0.05136 0.96388 0.0
C935 C 0.99217 0.04375 0.96751 0.0
C936 C 0.01128 0.05521 0.95389 0.0
H937 H 0.06747 0.93072 0.05686 0.0
H938 H 0.05704 0.96397 0.02798 0.0
C939 C 0.00543 0.07445 0.9376 0.0
C940 C 0.99854 0.02368 0.98532 0.0
H941 H 0.03419 0.0118 0.03507 0.0
C942 C 0.98769 0.99947 0.98279 0.0
C943 C 0.01539 0.02818 0.00456 0.0
C944 C 0.02676 0.05404 0.00904 0.0
C945 C 0.99356 0.9796 0.99863 0.0
C946 C 0.01047 0.9841 0.01781 0.0
C947 C 0.02132 0.00829 0.02035 0.0
C948 C 0.01685 0.96404 0.0356 0.0
C949 C 0.98204 0.95379 0.99435 0.0
C950 C 0.99786 0.95328 0.04986 0.0
C951 C 0.00374 0.93424 0.06634 0.0
C952 C 0.02884 0.92548 0.0691 0.0
C953 C 0.04792 0.93667 0.05508 0.0
C954 C 0.042 0.9558 0.03861 0.0
H955 H 0.97512 0.95166 0.97575 0.0
H956 H 0.99596 0.93846 0.99806 0.0
H957 H 0.96563 0.95123 0.00645 0.0
H958 H 0.9784 0.95961 0.04823 0.0
H959 H 0.98844 0.92606 0.07656 0.0
H960 H 0.42852 0.56652 0.5632 0.0
H961 H 0.46204 0.55718 0.53441 0.0
H962 H 0.45356 0.47716 0.54803 0.0
H963 H 0.41949 0.48612 0.57602 0.0
H964 H 0.50802 0.53285 0.53959 0.0
H965 H 0.4475 0.47952 0.47607 0.0
H966 H 0.43447 0.49848 0.49992 0.0
H967 H 0.44661 0.46718 0.50582 0.0
C968 C 0.43355 0.5469 0.55997 0.0
C969 C 0.42093 0.52713 0.57196 0.0
C970 C 0.45288 0.5416 0.54355 0.0
C971 C 0.46002 0.51642 0.53864 0.0
C972 C 0.44802 0.49671 0.55105 0.0
H973 H 0.57337 0.44525 0.44681 0.0
H974 H 0.53977 0.45419 0.47579 0.0
C975 C 0.42868 0.50195 0.56739 0.0
C976 C 0.48013 0.51075 0.52074 0.0
H977 H 0.49191 0.47815 0.46911 0.0
C978 C 0.50445 0.52101 0.52412 0.0
C979 C 0.47553 0.49524 0.50052 0.0
C980 C 0.44956 0.48465 0.49518 0.0
C981 C 0.52434 0.51583 0.50813 0.0
C982 C 0.51974 0.50027 0.48797 0.0
C983 C 0.49546 0.48999 0.48459 0.0
C984 C 0.53981 0.49477 0.47002 0.0
C985 C 0.55026 0.52665 0.51321 0.0
C986 C 0.55067 0.51451 0.45677 0.0
C987 C 0.56988 0.50948 0.44023 0.0
C988 C 0.57868 0.48453 0.43646 0.0
C989 C 0.56734 0.4647 0.44942 0.0
C990 C 0.54804 0.46977 0.46594 0.0
H991 H 0.55227 0.53254 0.53214 0.0
H992 H 0.56535 0.51264 0.50897 0.0
H993 H 0.55328 0.54365 0.50193 0.0
H994 H 0.54434 0.5339 0.45928 0.0
H995 H 0.5782 0.52531 0.43084 0.0
H996 H 0.00454 0.44636 0.59648 0.0
H997 H 0.01839 0.47863 0.56793 0.0
H998 H 0.96839 0.44701 0.51485 0.0
H999 H 0.95431 0.41504 0.54313 0.0
H1000 H 0.01668 0.45789 0.49715 0.0
H1001 H 0.97703 0.54038 0.54648 0.0
H1002 H 0.99822 0.52071 0.56342 0.0
H1003 H 0.96847 0.50804 0.55332 0.0
C1004 C 0.9964 0.44633 0.57878 0.0
C1005 C 0.97831 0.42794 0.57224 0.0
C1006 C 0.00432 0.46483 0.56246 0.0
C1007 C 0.9942 0.46548 0.53929 0.0
C1008 C 0.9765 0.44692 0.53259 0.0
H1009 H 0.00712 0.55937 0.41243 0.0
H1010 H 0.99767 0.52626 0.44154 0.0
C1011 C 0.96857 0.42846 0.54884 0.0
C1012 C 1.00192 0.4854 0.52194 0.0
H1013 H 1.00092 0.54942 0.51196 0.0
C1014 C 0.01324 0.47791 0.50039 0.0
C1015 C 0.99744 0.51154 0.52614 0.0
C1016 C 0.98443 0.52074 0.54848 0.0
C1017 C 0.02039 0.4958 0.48307 0.0
C1018 C 0.01566 0.52192 0.48715 0.0
C1019 C 0.00456 0.52943 0.5088 0.0
C1020 C 0.02181 0.54177 0.46916 0.0
C1021 C 0.03336 0.48656 0.46072 0.0
C1022 C 0.0381 0.5619 0.47505 0.0
C1023 C 0.04333 0.58105 0.4585 0.0
C1024 C 0.03226 0.58065 0.43564 0.0
C1025 C 0.01592 0.56043 0.42982 0.0
C1026 C 0.01071 0.54128 0.4464 0.0
H1027 H 0.04198 0.4675 0.46325 0.0
H1028 H 0.01918 0.48508 0.44617 0.0
H1029 H 0.04839 0.49997 0.45502 0.0
H1030 H 0.04674 0.56285 0.49255 0.0
H1031 H 0.05562 0.59645 0.4639 0.0
H1032 H 0.91684 0.98399 0.43552 0.0
H1033 H 0.95011 0.97039 0.46324 0.0
H1034 H 0.97895 0.04688 0.46601 0.0
H1035 H 0.94616 0.06046 0.43796 0.0
H1036 H 0.01721 0.01021 0.46248 0.0
H1037 H 0.94949 0.98697 0.53493 0.0
H1038 H 0.94367 0.97121 0.50703 0.0
H1039 H 0.9404 0.0051 0.50904 0.0
C1040 C 0.93048 0.99784 0.44172 0.0
C1041 C 0.92865 0.0234 0.4346 0.0
C1042 C 0.94934 0.99009 0.45782 0.0
C1043 C 0.96678 0.0077 0.46711 0.0
C1044 C 0.96561 0.03297 0.45929 0.0
H1045 H 0.06224 0.00391 0.59279 0.0
H1046 H 0.02931 0.01121 0.56277 0.0
C1047 C 0.94675 0.04074 0.44331 0.0
C1048 C 0.98605 1.00009 0.48523 0.0
H1049 H 0.99278 0.97851 0.54236 0.0
C1050 C 0.01187 0.00315 0.47989 0.0
C1051 C 0.9791 0.99121 0.50812 0.0
C1052 C 0.95168 0.98859 0.51531 0.0
C1053 C 0.03088 0.99753 0.49671 0.0
C1054 C 0.02394 0.98832 0.51948 0.0
C1055 C 0.99812 0.98533 0.52485 0.0
C1056 C 0.04321 0.9827 0.53823 0.0
C1057 C 0.05822 1.00223 0.49021 0.0
C1058 C 0.06166 0.96381 0.53477 0.0
C1059 C 0.08056 0.95961 0.55191 0.0
C1060 C 0.08141 0.97421 0.57298 0.0
C1061 C 0.06237 0.99254 0.5767 0.0
C1062 C 0.04345 0.99666 0.55959 0.0
H1063 H 0.05999 0.01465 0.47433 0.0
H1064 H 0.0686 0.01114 0.50527 0.0
H1065 H 0.06751 0.98383 0.48606 0.0
H1066 H 0.06166 0.95251 0.51863 0.0
H1067 H 0.09495 0.9455 0.54824 0.0
H1068 H 0.49598 0.946 0.41866 0.0
H1069 H 0.4997 0.98019 0.44811 0.0
H1070 H 0.44836 0.94042 0.49462 0.0
H1071 H 0.44429 0.90648 0.46515 0.0
H1072 H 0.43704 0.98923 0.49429 0.0
H1073 H 0.54045 0.98028 0.50838 0.0
H1074 H 0.53269 0.98608 0.47777 0.0
H1075 H 0.52248 0.95711 0.49176 0.0
C1076 C 0.48554 0.94451 0.43518 0.0
C1077 C 0.46984 0.92342 0.43943 0.0
C1078 C 0.4878 0.96403 0.45213 0.0
C1079 C 0.47477 0.96275 0.47395 0.0
C1080 C 0.45873 0.94192 0.47803 0.0
H1081 H 0.5129 0.06502 0.5934 0.0
H1082 H 0.50588 0.02704 0.56885 0.0
C1083 C 0.45629 0.92252 0.46103 0.0
C1084 C 0.47739 0.98329 0.49232 0.0
H1085 H 0.52083 0.01748 0.5244 0.0
C1086 C 0.45539 0.99525 0.50096 0.0
C1087 C 0.50122 0.99094 0.50157 0.0
C1088 C 0.52552 0.97775 0.4946 0.0
C1089 C 0.45658 0.01499 0.5179 0.0
C1090 C 0.48051 0.02364 0.5261 0.0
C1091 C 0.50247 0.01116 0.51803 0.0
C1092 C 0.48326 0.04622 0.54218 0.0
C1093 C 0.43207 0.02612 0.52703 0.0
C1094 C 0.47288 0.06973 0.53559 0.0
C1095 C 0.47668 0.09136 0.54967 0.0
C1096 C 0.49134 0.09032 0.57068 0.0
C1097 C 0.50149 0.06664 0.57745 0.0
C1098 C 0.49752 0.04489 0.56335 0.0
H1099 H 0.41632 0.01219 0.52575 0.0
H1100 H 0.43383 0.0324 0.54585 0.0
H1101 H 0.42684 0.04277 0.51598 0.0
H1102 H 0.46251 0.07163 0.51904 0.0
H1103 H 0.46909 0.10916 0.54328 0.0
H1104 H 0.51497 0.28543 1.00264 0.0
H1105 H 0.51858 0.25579 0.03603 0.0
H1106 H 0.59877 0.2708 0.04028 0.0
H1107 H 0.5957 0.2994 0.00674 0.0
H1108 H 0.54862 0.21293 0.03153 0.0
H1109 H 0.57923 0.26725 0.11041 0.0
H1110 H 0.56323 0.28193 0.08547 0.0
H1111 H 0.59698 0.27657 0.08466 0.0
C1112 C 0.53333 0.28272 0.0109 0.0
C1113 C 0.55508 0.29474 1.00171 0.0
C1114 C 0.53526 0.26596 0.03015 0.0
C1115 C 0.55887 0.26134 0.04085 0.0
C1116 C 0.58022 0.27457 0.03276 0.0
H1117 H 0.66457 0.16601 0.08666 0.0
H1118 H 0.63412 0.1998 0.0796 0.0
C1119 C 0.57839 0.29104 0.01344 0.0
C1120 C 0.56257 0.23976 0.05736 0.0
H1121 H 0.59642 0.22399 0.10693 0.0
C1122 C 0.55823 0.21521 0.04849 0.0
C1123 C 0.5749 0.24281 0.07954 0.0
C1124 C 0.5786 0.26861 0.09067 0.0
C1125 C 0.56867 0.19383 0.05972 0.0
C1126 C 0.5834 0.19719 0.08058 0.0
C1127 C 0.58528 0.22146 0.09084 0.0
C1128 C 0.60125 0.17726 0.08869 0.0
C1129 C 0.56605 0.16821 0.04784 0.0
C1130 C 0.59295 0.15348 0.09687 0.0
C1131 C 0.61047 0.13388 0.1008 0.0
C1132 C 0.63643 0.13791 0.09654 0.0
C1133 C 0.64467 0.16217 0.08972 0.0
C1134 C 0.62728 0.18161 0.08587 0.0
H1135 H 0.5559 0.16936 0.03052 0.0
H1136 H 0.58503 0.15971 0.0447 0.0
H1137 H 0.55531 0.15525 0.05965 0.0
H1138 H 0.57294 0.14987 0.09945 0.0
H1139 H 0.60364 0.11538 0.10619 0.0
H1140 H 0.20997 0.50788 0.00582 0.0
H1141 H 0.24064 0.50928 0.03857 0.0
H1142 H 0.22558 0.58918 0.04792 0.0
H1143 H 0.19552 0.58808 0.01541 0.0
H1144 H 0.28226 0.53673 0.03331 0.0
H1145 H 0.23686 0.56922 0.1158 0.0
H1146 H 0.21889 0.55513 0.09172 0.0
H1147 H 0.22584 0.58869 0.09184 0.0
C1148 C 0.21273 0.52559 0.01529 0.0
C1149 C 0.20046 0.54794 0.00773 0.0
C1150 C 0.23011 0.52629 0.03414 0.0
C1151 C 0.23527 0.54926 0.04591 0.0
C1152 C 0.22146 0.57104 0.03966 0.0
H1153 H 0.33584 0.65385 0.07544 0.0
H1154 H 0.30126 0.62342 0.07319 0.0
C1155 C 0.20421 0.57039 0.02086 0.0
C1156 C 0.25831 0.55225 0.06081 0.0
H1157 H 0.27954 0.58772 0.1076 0.0
C1158 C 0.28179 0.54692 0.05012 0.0
C1159 C 0.25776 0.56527 0.08285 0.0
C1160 C 0.23341 0.56961 0.09627 0.0
C1161 C 0.30433 0.55729 0.05914 0.0
C1162 C 0.30324 0.57312 0.07949 0.0
C1163 C 0.28026 0.57581 0.09182 0.0
C1164 C 0.32384 0.59134 0.0846 0.0
C1165 C 0.32863 0.55357 0.04539 0.0
C1166 C 0.34792 0.58345 0.09228 0.0
C1167 C 0.36791 0.60092 0.09352 0.0
C1168 C 0.36398 0.62638 0.08691 0.0
C1169 C 0.33956 0.6343 0.08028 0.0
C1170 C 0.3197 0.61698 0.07921 0.0
H1171 H 0.32594 0.54153 0.0293 0.0
H1172 H 0.3363 0.57223 0.03975 0.0
H1173 H 0.34299 0.54439 0.05698 0.0
H1174 H 0.3514 0.56373 0.09663 0.0
H1175 H 0.38655 0.59436 0.0988 0.0
H1176 H 0.90924 0.20206 0.00985 0.0
H1177 H 0.90748 0.23252 0.04224 0.0
H1178 H 0.98871 0.24113 0.03974 0.0
H1179 H 0.9908 0.21004 0.00719 0.0
H1180 H 0.93078 0.24007 0.08799 0.0
H1181 H 0.96087 0.31133 0.02017 0.0
H1182 H 0.95172 0.27964 0.01154 0.0
H1183 H 0.98139 0.28488 0.02643 0.0
C1184 C 0.92693 0.20958 0.01665 0.0
C1185 C 0.95015 0.20378 0.00561 0.0
C1186 C 0.92585 0.22715 0.0352 0.0
C1187 C 0.9479 0.23939 0.0431 0.0
C1188 C 0.97142 0.23216 0.0336 0.0
H1189 H 0.90337 0.3885 0.09801 0.0
H1190 H 0.93429 0.35366 0.09459 0.0
C1191 C 0.97255 0.21447 0.01496 0.0
C1192 C 0.94511 0.26198 0.0586 0.0
H1193 H 0.93924 0.32622 0.05347 0.0
C1194 C 0.93338 0.25901 0.08085 0.0
C1195 C 0.9488 0.2867 0.04939 0.0
C1196 C 0.9613 0.29105 0.02556 0.0
C1197 C 0.92297 0.27988 0.09294 0.0
C1198 C 0.92399 0.30415 0.08228 0.0
C1199 C 0.93833 0.30753 0.06151 0.0
C1200 C 0.90598 0.32453 0.08896 0.0
C1201 C 0.90948 0.27549 0.11623 0.0
C1202 C 0.87992 0.31967 0.08701 0.0
C1203 C 0.86243 0.33939 0.08861 0.0
C1204 C 0.8706 0.36446 0.09222 0.0
C1205 C 0.8966 0.3693 0.09531 0.0
C1206 C 0.91423 0.34946 0.09342 0.0
H1207 H 0.91867 0.25991 0.12639 0.0
H1208 H 0.90923 0.29292 0.12741 0.0
H1209 H 0.88963 0.26969 0.11259 0.0
H1210 H 0.87309 0.30076 0.0829 0.0
H1211 H 0.84251 0.33505 0.0863 0.0
H1212 H 0.30369 0.98788 0.01268 0.0
H1213 H 0.27257 0.98456 0.04486 0.0
H1214 H 0.28404 0.90352 0.04687 0.0
H1215 H 0.31438 0.90648 0.0148 0.0
H1216 H 0.22971 0.959 0.03658 0.0
H1217 H 0.27344 0.91773 0.11639 0.0
H1218 H 0.29197 0.93348 0.09374 0.0
H1219 H 0.28395 0.90031 0.09081 0.0
C1220 C 0.30002 0.96943 0.02039 0.0
C1221 C 0.31136 0.94741 0.01086 0.0
C1222 C 0.2824 0.96762 0.03893 0.0
C1223 C 0.27613 0.94383 0.04847 0.0
C1224 C 0.28902 0.92219 0.04034 0.0
H1225 H 0.17062 0.84097 0.0721 0.0
H1226 H 0.20644 0.86995 0.07049 0.0
C1227 C 0.30646 0.92394 0.02181 0.0
C1228 C 0.25289 0.94039 0.06291 0.0
H1229 H 0.23009 0.90207 0.10677 0.0
C1230 C 0.22969 0.94744 0.05254 0.0
C1231 C 0.25284 0.92553 0.08384 0.0
C1232 C 0.27697 0.91911 0.09693 0.0
C1233 C 0.20673 0.93724 0.06066 0.0
C1234 C 0.2071 0.91984 0.07978 0.0
C1235 C 0.22992 0.9152 0.09191 0.0
C1236 C 0.1856 0.9024 0.08381 0.0
C1237 C 0.18264 0.94302 0.04716 0.0
C1238 C 0.16205 0.91101 0.09221 0.0
C1239 C 0.14133 0.8944 0.09306 0.0
C1240 C 0.14397 0.86907 0.08539 0.0
C1241 C 0.16784 0.86044 0.07781 0.0
C1242 C 0.18842 0.87692 0.07708 0.0
H1243 H 0.18592 0.95592 0.03184 0.0
H1244 H 0.17406 0.92516 0.04039 0.0
H1245 H 0.16875 0.95214 0.05929 0.0
H1246 H 0.15959 0.9306 0.09761 0.0
H1247 H 0.12318 0.90151 0.09912 0.0
H1248 H 0.60462 0.39453 0.40585 0.0
H1249 H 0.57403 0.35955 0.40918 0.0
H1250 H 0.63507 0.30792 0.42564 0.0
H1251 H 0.66555 0.34237 0.42205 0.0
H1252 H 0.5961 0.28684 0.39538 0.0
H1253 H 0.55844 0.33396 0.47724 0.0
H1254 H 0.55802 0.35132 0.44969 0.0
H1255 H 0.58773 0.34404 0.46371 0.0
C1256 C 0.61151 0.3756 0.40972 0.0
C1257 C 0.63741 0.37122 0.41411 0.0
C1258 C 0.59403 0.3557 0.41167 0.0
C1259 C 0.60231 0.33126 0.41794 0.0
C1260 C 0.6283 0.32664 0.42079 0.0
H1261 H 0.58937 0.19747 0.48538 0.0
H1262 H 0.59447 0.22936 0.45463 0.0
C1263 C 0.64568 0.34641 0.41893 0.0
C1264 C 0.5843 0.31091 0.4244 0.0
H1265 H 0.54913 0.29121 0.47173 0.0
C1266 C 0.58521 0.28792 0.41173 0.0
C1267 C 0.56991 0.31247 0.44559 0.0
C1268 C 0.5684 0.33668 0.46 0.0
C1269 C 0.57375 0.2659 0.42072 0.0
C1270 C 0.56158 0.26689 0.44313 0.0
C1271 C 0.55858 0.29043 0.45459 0.0
C1272 C 0.55605 0.2437 0.4571 0.0
C1273 C 0.57581 0.24158 0.40664 0.0
C1274 C 0.5326 0.24073 0.46855 0.0
C1275 C 0.52967 0.22247 0.48638 0.0
C1276 C 0.5502 0.20698 0.49313 0.0
C1277 C 0.57304 0.20876 0.48039 0.0
C1278 C 0.57596 0.22701 0.46265 0.0
H1279 H 0.57561 0.2455 0.3872 0.0
H1280 H 0.59412 0.2322 0.41085 0.0
H1281 H 0.56014 0.22829 0.4109 0.0
H1282 H 0.51703 0.25349 0.46466 0.0
H1283 H 0.51176 0.22136 0.49574 0.0
H1284 H 0.12755 0.57576 0.37748 0.0
H1285 H 0.1679 0.55627 0.38969 0.0
H1286 H 0.19034 0.62659 0.42303 0.0
H1287 H 0.15049 0.64609 0.41101 0.0
H1288 H 0.22985 0.59961 0.39481 0.0
H1289 H 0.18011 0.54026 0.46241 0.0
H1290 H 0.16942 0.53946 0.43194 0.0
H1291 H 0.16509 0.56771 0.44934 0.0
C1292 C 0.14125 0.5871 0.38715 0.0
C1293 C 0.13572 0.61235 0.39354 0.0
C1294 C 0.16422 0.57595 0.39412 0.0
C1295 C 0.18194 0.59 0.40736 0.0
C1296 C 0.17689 0.61547 0.4128 0.0
H1297 H 0.30194 0.60332 0.49858 0.0
H1298 H 0.2739 0.60492 0.4643 0.0
C1299 C 0.154 0.62652 0.40604 0.0
C1300 C 0.20494 0.57813 0.41746 0.0
H1301 H 0.22407 0.54391 0.46568 0.0
C1302 C 0.22873 0.5869 0.40995 0.0
C1303 C 0.20337 0.56141 0.43704 0.0
C1304 C 0.17819 0.55161 0.44585 0.0
C1305 C 0.25088 0.58065 0.4225 0.0
C1306 C 0.24903 0.56579 0.44339 0.0
C1307 C 0.22549 0.55536 0.44971 0.0
C1308 C 0.27 0.56414 0.46094 0.0
C1309 C 0.2759 0.5908 0.41373 0.0
C1310 C 0.27736 0.54065 0.47053 0.0
C1311 C 0.29339 0.53968 0.49038 0.0
C1312 C 0.30223 0.5622 0.50106 0.0
C1313 C 0.29592 0.58559 0.49058 0.0
C1314 C 0.27988 0.58654 0.47084 0.0
H1315 H 0.27594 0.59237 0.394 0.0
H1316 H 0.27889 0.61014 0.42109 0.0
H1317 H 0.29197 0.57853 0.4193 0.0
H1318 H 0.26982 0.52314 0.46327 0.0
H1319 H 0.29809 0.52136 0.49791 0.0
H1320 H 0.92332 0.14335 0.4381 0.0
H1321 H 0.93228 0.18862 0.43729 0.0
H1322 H 0.88021 0.19801 0.37861 0.0
H1323 H 0.8711 0.15226 0.37942 0.0
H1324 H 0.94727 0.2268 0.4045 0.0
H1325 H 0.84637 0.23757 0.43302 0.0
H1326 H 0.86076 0.20653 0.43135 0.0
H1327 H 0.85365 0.22365 0.40457 0.0
C1328 C 0.9144 0.15489 0.4245 0.0
C1329 C 0.89623 0.14444 0.40911 0.0
C1330 C 0.91957 0.18078 0.424 0.0
C1331 C 0.90652 0.19677 0.40822 0.0
C1332 C 0.89021 0.18604 0.39116 0.0
H1333 H 0.89859 0.34083 0.48553 0.0
H1334 H 0.89468 0.31671 0.4482 0.0
C1335 C 0.88516 0.15991 0.39153 0.0
C1336 C 0.90749 0.22446 0.41281 0.0
H1337 H 0.87516 0.26829 0.44576 0.0
C1338 C 0.93129 0.23636 0.41272 0.0
C1339 C 0.88654 0.23718 0.42319 0.0
C1340 C 0.86033 0.22571 0.4232 0.0
C1341 C 0.93534 0.25903 0.42532 0.0
C1342 C 0.91519 0.26971 0.43856 0.0
C1343 C 0.89068 0.2598 0.43588 0.0
C1344 C 0.92005 0.28664 0.45918 0.0
C1345 C 0.96162 0.27021 0.42589 0.0
C1346 C 0.93537 0.27761 0.47775 0.0
C1347 C 0.93723 0.29094 0.49911 0.0
C1348 C 0.92389 0.3138 0.50251 0.0
C1349 C 0.90901 0.32323 0.48362 0.0
C1350 C 0.90694 0.30963 0.46219 0.0
H1351 H 0.97151 0.26693 0.40869 0.0
H1352 H 0.96113 0.29091 0.42965 0.0
H1353 H 0.97287 0.26072 0.44003 0.0
H1354 H 0.94491 0.25945 0.47622 0.0
H1355 H 0.94823 0.28253 0.51334 0.0
H1356 H 0.33632 0.83435 0.42353 0.0
H1357 H 0.30132 0.86395 0.42883 0.0
H1358 H 0.35091 0.92667 0.41274 0.0
H1359 H 0.38635 0.89691 0.40745 0.0
H1360 H 0.32671 0.93138 0.45573 0.0
H1361 H 0.25609 0.90754 0.38693 0.0
H1362 H 0.26764 0.87927 0.40099 0.0
H1363 H 0.28915 0.89888 0.38423 0.0
C1364 C 0.33972 0.8544 0.42067 0.0
C1365 C 0.3641 0.86335 0.41529 0.0
C1366 C 0.31959 0.87129 0.42339 0.0
C1367 C 0.32339 0.89749 0.42077 0.0
C1368 C 0.34752 0.90648 0.4145 0.0
H1369 H 0.21419 0.98799 0.50406 0.0
H1370 H 0.24439 0.98302 0.47115 0.0
C1371 C 0.36772 0.88949 0.41154 0.0
C1372 C 0.30308 0.91512 0.42843 0.0
H1373 H 0.2389 0.92218 0.42528 0.0
C1374 C 0.30762 0.93019 0.44861 0.0
C1375 C 0.27827 0.91365 0.41898 0.0
C1376 C 0.27258 0.89915 0.39642 0.0
C1377 C 0.28757 0.94135 0.46127 0.0
C1378 C 0.2624 0.93768 0.45315 0.0
C1379 C 0.25818 0.92484 0.43156 0.0
C1380 C 0.24055 0.94218 0.46914 0.0
C1381 C 0.29329 0.95477 0.48446 0.0
C1382 C 0.22739 0.92108 0.47792 0.0
C1383 C 0.21024 0.92382 0.49658 0.0
C1384 C 0.2058 0.94778 0.50688 0.0
C1385 C 0.21754 0.96922 0.49681 0.0
C1386 C 0.23475 0.96644 0.478 0.0
H1387 H 0.31365 0.95355 0.4894 0.0
H1388 H 0.28817 0.97513 0.48288 0.0
H1389 H 0.28188 0.94651 0.49914 0.0
H1390 H 0.23164 0.90217 0.47139 0.0
H1391 H 0.20187 0.90682 0.50399 0.0
H1392 H 0.49287 0.7015 0.9974 0.0
H1393 H 0.49126 0.73349 0.96574 0.0
H1394 H 0.4099 0.72619 0.96286 0.0
H1395 H 0.41124 0.69466 0.99424 0.0
H1396 H 0.43219 0.73531 0.91786 0.0
H1397 H 0.46578 0.80331 0.98755 0.0
H1398 H 0.48576 0.77686 0.97989 0.0
H1399 H 0.45633 0.77146 0.99509 0.0
C1400 C 0.4747 0.70638 0.98967 0.0
C1401 C 0.45215 0.69577 0.99865 0.0
C1402 C 0.47384 0.72462 0.97158 0.0
C1403 C 0.45042 0.73256 0.96232 0.0
C1404 C 0.4282 0.72034 0.96975 0.0
H1405 H 0.3478 0.83387 0.92493 0.0
H1406 H 0.37699 0.79825 0.92694 0.0
C1407 C 0.42902 0.70216 0.98771 0.0
C1408 C 0.44796 0.75576 0.94766 0.0
H1409 H 0.44458 0.82001 0.95482 0.0
C1410 C 0.43564 0.75391 0.92555 0.0
C1411 C 0.45271 0.78005 0.95759 0.0
C1412 C 0.46578 0.78326 0.98136 0.0
C1413 C 0.4257 0.7755 0.91431 0.0
C1414 C 0.42792 0.79938 0.92565 0.0
C1415 C 0.4428 0.80161 0.94626 0.0
C1416 C 0.41057 0.82061 0.9199 0.0
C1417 C 0.41139 0.77233 0.89124 0.0
C1418 C 0.41973 0.84516 0.91534 0.0
C1419 C 0.4029 0.86576 0.91415 0.0
C1420 C 0.37686 0.86203 0.9181 0.0
C1421 C 0.36778 0.83734 0.92192 0.0
C1422 C 0.38444 0.81687 0.92276 0.0
H1423 H 0.41937 0.75644 0.88056 0.0
H1424 H 0.39132 0.76767 0.8952 0.0
H1425 H 0.41187 0.78996 0.88044 0.0
H1426 H 0.43989 0.84848 0.91348 0.0
H1427 H 0.41036 0.88465 0.91127 0.0
H1428 H 0.79139 0.48516 0.99737 0.0
H1429 H 0.761 0.48068 0.96452 0.0
H1430 H 0.77226 0.39959 0.96503 0.0
H1431 H 0.8022 0.40376 0.99765 0.0
H1432 H 0.7649 0.4201 0.91862 0.0
H1433 H 0.69143 0.45222 0.98362 0.0
H1434 H 0.71725 0.47331 0.97705 0.0
H1435 H 0.72317 0.44444 0.99307 0.0
C1436 C 0.78769 0.46643 0.99019 0.0
C1437 C 0.799 0.44479 1.0004 0.0
C1438 C 0.77038 0.46393 0.9714 0.0
C1439 C 0.76408 0.43976 0.96266 0.0
C1440 C 0.77689 0.41843 0.97149 0.0
H1441 H 0.66783 0.33304 0.91759 0.0
H1442 H 0.70279 0.3627 0.92197 0.0
C1443 C 0.79414 0.42089 0.99016 0.0
C1444 C 0.74198 0.43568 0.94683 0.0
H1445 H 0.67766 0.43023 0.95009 0.0
C1446 C 0.74575 0.42297 0.92512 0.0
C1447 C 0.71698 0.43967 0.95522 0.0
C1448 C 0.71176 0.45305 0.97853 0.0
C1449 C 0.72534 0.41218 0.91266 0.0
C1450 C 0.70069 0.41385 0.92241 0.0
C1451 C 0.69661 0.42887 0.94272 0.0
C1452 C 0.68019 0.39627 0.9151 0.0
C1453 C 0.73057 0.39785 0.8899 0.0
C1454 C 0.65571 0.40521 0.90981 0.0
C1455 C 0.63549 0.38814 0.90743 0.0
C1456 C 0.63949 0.36201 0.9108 0.0
C1457 C 0.66416 0.35311 0.91511 0.0
C1458 C 0.68427 0.37005 0.91726 0.0
H1459 H 0.74666 0.4065 0.8801 0.0
H1460 H 0.73597 0.37802 0.89426 0.0
H1461 H 0.71367 0.39744 0.87809 0.0
H1462 H 0.6521 0.4254 0.90841 0.0
H1463 H 0.61661 0.39546 0.90415 0.0
H1464 H 0.05334 0.82885 0.97638 0.0
H1465 H 0.05753 0.80014 0.9421 0.0
H1466 H 0.04571 0.73601 0.98852 0.0
H1467 H 0.04087 0.76421 0.0221 0.0
H1468 H 0.09388 0.77018 0.93637 0.0
H1469 H 0.01138 0.70818 0.93254 0.0
H1470 H 0.01037 0.73784 0.94876 0.0
H1471 H 0.02032 0.70883 0.96325 0.0
C1472 C 0.05084 0.80864 0.979 0.0
C1473 C 0.04671 0.79882 1.00195 0.0
C1474 C 0.05313 0.79226 0.95941 0.0
C1475 C 0.0515 0.76581 0.96249 0.0
C1476 C 0.04603 0.75625 0.98524 0.0
H1477 H 0.15585 0.6603 0.95021 0.0
H1478 H 0.12922 0.69774 0.95022 0.0
C1479 C 0.04344 0.77252 0.00464 0.0
C1480 C 0.06046 0.74789 0.9438 0.0
H1481 H 0.05381 0.68539 0.92918 0.0
C1482 C 0.0846 0.75199 0.934 0.0
C1483 C 0.04824 0.72436 0.93957 0.0
C1484 C 0.021 0.7198 0.9464 0.0
C1485 C 0.09823 0.73206 0.92352 0.0
C1486 C 0.08779 0.70733 0.92365 0.0
C1487 C 0.06226 0.70414 0.92995 0.0
C1488 C 0.10427 0.68458 0.92211 0.0
C1489 C 0.12441 0.73736 0.91398 0.0
C1490 C 0.09849 0.66404 0.90703 0.0
C1491 C 0.11361 0.64212 0.9073 0.0
C1492 C 0.13456 0.64044 0.92277 0.0
C1493 C 0.14002 0.66097 0.93793 0.0
C1494 C 0.12495 0.68262 0.93773 0.0
H1495 H 0.12508 0.75638 0.9055 0.0
H1496 H 0.13819 0.73751 0.92894 0.0
H1497 H 0.13041 0.72285 0.90074 0.0
H1498 H 0.08234 0.66498 0.89514 0.0
H1499 H 0.10894 0.62657 0.89543 0.0
H1500 H 0.71555 0.0129 0.00827 0.0
H1501 H 0.74552 0.01592 0.97501 0.0
H1502 H 0.73311 0.09678 0.97194 0.0
H1503 H 0.70361 0.09406 0.00496 0.0
H1504 H 0.74008 0.07367 0.92642 0.0
H1505 H 0.81495 0.04644 0.99202 0.0
H1506 H 0.78932 0.02468 0.98665 0.0
H1507 H 0.78325 0.0543 1.00148 0.0
C1508 C 0.71892 0.03125 1.00023 0.0
C1509 C 0.7074 0.05328 0.00953 0.0
C1510 C 0.73599 0.03291 0.98121 0.0
C1511 C 0.74182 0.05663 0.97131 0.0
C1512 C 0.72882 0.07826 0.97929 0.0
H1513 H 0.83458 0.16306 0.92205 0.0
H1514 H 0.80052 0.13257 0.92739 0.0
C1515 C 0.71183 0.07664 0.99819 0.0
C1516 C 0.76364 0.06013 0.95509 0.0
H1517 H 0.82784 0.06718 0.95761 0.0
C1518 C 0.75936 0.07156 0.93287 0.0
C1519 C 0.78881 0.0571 0.96341 0.0
C1520 C 0.79456 0.04507 0.98721 0.0
C1521 C 0.77939 0.08214 0.91983 0.0
C1522 C 0.80416 0.08159 0.92948 0.0
C1523 C 0.80879 0.0677 0.95033 0.0
C1524 C 0.82407 0.09944 0.92147 0.0
C1525 C 0.77362 0.09516 0.89656 0.0
C1526 C 0.84877 0.09101 0.91636 0.0
C1527 C 0.86846 0.10857 0.9134 0.0
C1528 C 0.86371 0.13469 0.91603 0.0
C1529 C 0.83882 0.14302 0.92013 0.0
C1530 C 0.81923 0.12559 0.92283 0.0
H1531 H 0.75769 0.08559 0.8872 0.0
H1532 H 0.76773 0.11504 0.90015 0.0
H1533 H 0.79041 0.0954 0.88465 0.0
H1534 H 0.85296 0.07089 0.91558 0.0
H1535 H 0.88754 0.10168 0.91032 0.0
H1536 H 0.49226 0.79588 0.50896 0.0
H1537 H 0.49055 0.76569 0.54213 0.0
H1538 H 0.40908 0.77198 0.54324 0.0
H1539 H 0.4104 0.80128 0.51011 0.0
H1540 H 0.43308 0.76723 0.58998 0.0
H1541 H 0.46373 0.69388 0.52398 0.0
H1542 H 0.48343 0.7212 0.52922 0.0
H1543 H 0.45354 0.72489 0.51434 0.0
C1544 C 0.474 0.7911 0.51649 0.0
C1545 C 0.45145 0.80082 0.50654 0.0
C1546 C 0.47311 0.77396 0.53552 0.0
C1547 C 0.44967 0.76642 0.54489 0.0
C1548 C 0.42738 0.77766 0.53632 0.0
H1549 H 0.3441 0.67378 0.59027 0.0
H1550 H 0.37522 0.70747 0.5869 0.0
C1551 C 0.42822 0.79459 0.51734 0.0
C1552 C 0.44728 0.7444 0.56103 0.0
H1553 H 0.44125 0.6801 0.55719 0.0
C1554 C 0.43566 0.74808 0.58325 0.0
C1555 C 0.45099 0.71942 0.55238 0.0
C1556 C 0.46355 0.71438 0.52867 0.0
C1557 C 0.42525 0.7276 0.59581 0.0
C1558 C 0.42607 0.70304 0.58558 0.0
C1559 C 0.44043 0.69899 0.5649 0.0
C1560 C 0.40777 0.68306 0.5925 0.0
C1561 C 0.41196 0.73272 0.61909 0.0
C1562 C 0.41562 0.65795 0.59672 0.0
C1563 C 0.39766 0.63844 0.59852 0.0
C1564 C 0.37173 0.6438 0.59562 0.0
C1565 C 0.36397 0.66905 0.59241 0.0
C1566 C 0.38177 0.68844 0.59084 0.0
H1567 H 0.42164 0.74816 0.62907 0.0
H1568 H 0.39228 0.73912 0.61545 0.0
H1569 H 0.41125 0.71549 0.63043 0.0
H1570 H 0.43561 0.65334 0.59769 0.0
H1571 H 0.40413 0.61909 0.60093 0.0
H1572 H 0.66644 0.44098 0.53095 0.0
H1573 H 0.69235 0.43414 0.5666 0.0
H1574 H 0.75511 0.47201 0.53282 0.0
H1575 H 0.7302 0.47789 0.49712 0.0
H1576 H 0.73619 0.40487 0.56316 0.0
H1577 H 0.76011 0.49827 0.60115 0.0
H1578 H 0.73242 0.49323 0.5827 0.0
H1579 H 0.76295 0.49886 0.56933 0.0
C1580 C 0.68565 0.4482 0.53121 0.0
C1581 C 0.6962 0.45978 0.51089 0.0
C1582 C 0.70031 0.44449 0.55173 0.0
C1583 C 0.72553 0.45286 0.55248 0.0
C1584 C 0.73547 0.466 0.53292 0.0
H1585 H 0.87174 0.43078 0.57177 0.0
H1586 H 0.82814 0.44549 0.57034 0.0
C1587 C 0.72105 0.46938 0.51238 0.0
C1588 C 0.74319 0.44419 0.5713 0.0
H1589 H 0.79399 0.46606 0.6027 0.0
C1590 C 0.74834 0.41809 0.57264 0.0
C1591 C 0.75875 0.46146 0.58384 0.0
C1592 C 0.75307 0.4895 0.58438 0.0
C1593 C 0.77059 0.40911 0.58347 0.0
C1594 C 0.78779 0.4268 0.59349 0.0
C1595 C 0.78097 0.45255 0.59473 0.0
C1596 C 0.81467 0.41998 0.59772 0.0
C1597 C 0.77673 0.38114 0.58186 0.0
C1598 C 0.82183 0.40127 0.61418 0.0
C1599 C 0.84692 0.39256 0.61489 0.0
C1600 C 0.86517 0.40255 0.59921 0.0
C1601 C 0.85819 0.42246 0.58394 0.0
C1602 C 0.83322 0.43101 0.58317 0.0
H1603 H 0.76238 0.37042 0.57139 0.0
H1604 H 0.79557 0.37827 0.57347 0.0
H1605 H 0.77743 0.37293 0.60003 0.0
H1606 H 0.80791 0.39288 0.62593 0.0
H1607 H 0.85182 0.3776 0.62723 0.0
H1608 H 0.03528 0.69573 0.51149 0.0
H1609 H 0.03681 0.72572 0.54499 0.0
H1610 H 0.11655 0.73738 0.53261 0.0
H1611 H 0.11517 0.70866 0.49885 0.0
H1612 H 0.09794 0.73296 0.58449 0.0
H1613 H 0.04884 0.80392 0.52686 0.0
H1614 H 0.03603 0.77246 0.53061 0.0
H1615 H 0.06444 0.77684 0.51363 0.0
C1616 C 0.0532 0.7045 0.51603 0.0
C1617 C 0.07506 0.69982 0.50223 0.0
C1618 C 0.05403 0.72146 0.53528 0.0
C1619 C 0.07677 0.73374 0.54113 0.0
C1620 C 0.09886 0.72789 0.52844 0.0
H1621 H 0.17219 0.83817 0.5856 0.0
H1622 H 0.14583 0.80079 0.5811 0.0
C1623 C 0.09803 0.71125 0.50916 0.0
C1624 C 0.07768 0.75494 0.55836 0.0
H1625 H 0.07392 0.81951 0.5581 0.0
C1626 C 0.09192 0.75184 0.57926 0.0
C1627 C 0.06948 0.77946 0.55166 0.0
C1628 C 0.05382 0.78361 0.52949 0.0
C1629 C 0.10037 0.77296 0.59229 0.0
C1630 C 0.095 0.79763 0.58375 0.0
C1631 C 0.07823 0.80059 0.56452 0.0
C1632 C 0.11078 0.81972 0.59063 0.0
C1633 C 0.1164 0.76864 0.61416 0.0
C1634 C 0.09988 0.84305 0.59726 0.0
C1635 C 0.11507 0.86475 0.5997 0.0
C1636 C 0.14122 0.8634 0.59505 0.0
C1637 C 0.15208 0.83987 0.58916 0.0
C1638 C 0.13704 0.81833 0.58693 0.0
H1639 H 0.11004 0.7514 0.62381 0.0
H1640 H 0.13638 0.76547 0.60871 0.0
H1641 H 0.11567 0.78514 0.6265 0.0
H1642 H 0.07959 0.84461 0.59982 0.0
H1643 H 0.10623 0.8827 0.60421 0.0
H1644 H 0.58306 0.06608 0.54738 0.0
H1645 H 0.62295 0.04501 0.53805 0.0
H1646 H 0.66182 0.09292 0.58865 0.0
H1647 H 0.622 0.11457 0.59778 0.0
H1648 H 0.68039 0.09707 0.54422 0.0
H1649 H 0.67283 0.99516 0.56655 0.0
H1650 H 0.6462 0.00619 0.54958 0.0
H1651 H 0.6518 0.01885 0.57894 0.0
C1652 C 0.59995 0.07173 0.55703 0.0
C1653 C 0.59941 0.0923 0.57304 0.0
C1654 C 0.62274 0.05943 0.55183 0.0
C1655 C 0.64536 0.06724 0.56277 0.0
C1656 C 0.64455 0.08651 0.58009 0.0
H1657 H 0.7986 0.05215 0.5084 0.0
H1658 H 0.7642 0.05423 0.53708 0.0
C1659 C 0.62176 0.09889 0.58526 0.0
C1660 C 0.67002 0.05869 0.55301 0.0
H1661 H 0.70414 0.00622 0.53683 0.0
C1662 C 0.68585 0.07724 0.54308 0.0
C1663 C 0.67692 0.03279 0.55124 0.0
C1664 C 0.66113 0.01213 0.56236 0.0
C1665 C 0.70778 0.0706 0.53053 0.0
C1666 C 0.71443 0.04467 0.52827 0.0
C1667 C 0.69901 0.02607 0.53869 0.0
C1668 C 0.73651 0.03691 0.51377 0.0
C1669 C 0.72298 0.0914 0.51878 0.0
C1670 C 0.73275 0.02472 0.49182 0.0
C1671 C 0.75261 0.02296 0.4754 0.0
C1672 C 0.77646 0.0336 0.48064 0.0
C1673 C 0.78065 0.04358 0.50363 0.0
C1674 C 0.7609 0.04504 0.52007 0.0
H1675 H 0.71238 0.10962 0.51803 0.0
H1676 H 0.74064 0.09468 0.52909 0.0
H1677 H 0.72837 0.08591 0.50035 0.0
H1678 H 0.71406 0.01813 0.48672 0.0
H1679 H 0.74885 0.0146 0.45812 0.0
H1680 H 0.81397 0.34459 0.12444 0.0
H1681 H 0.8031 0.30007 0.13075 0.0
H1682 H 0.72373 0.31964 0.13203 0.0
H1683 H 0.73448 0.36432 0.12558 0.0
H1684 H 0.77606 0.2738 0.16576 0.0
H1685 H 0.72776 0.26784 0.07796 0.0
H1686 H 0.74742 0.29441 0.08633 0.0
H1687 H 0.71551 0.29207 0.09734 0.0
C1688 C 0.79421 0.33958 0.12651 0.0
C1689 C 0.77506 0.35808 0.12428 0.0
C1690 C 0.78802 0.31403 0.13001 0.0
C1691 C 0.76258 0.30642 0.13137 0.0
C1692 C 0.74347 0.32498 0.13045 0.0
H1693 H 0.69019 0.1582 0.13087 0.0
H1694 H 0.69939 0.20329 0.13549 0.0
C1695 C 0.74964 0.35053 0.12682 0.0
C1696 C 0.75608 0.27897 0.13266 0.0
H1697 H 0.72567 0.23154 0.10243 0.0
C1698 C 0.76503 0.26454 0.15194 0.0
C1699 C 0.74178 0.26687 0.11454 0.0
C1700 C 0.73273 0.28099 0.09275 0.0
C1701 C 0.75977 0.23842 0.15373 0.0
C1702 C 0.74551 0.22635 0.13559 0.0
C1703 C 0.73648 0.24083 0.1164 0.0
C1704 C 0.74014 0.19863 0.13568 0.0
C1705 C 0.76922 0.22404 0.17519 0.0
C1706 C 0.75998 0.18086 0.13453 0.0
C1707 C 0.75477 0.15492 0.13203 0.0
C1708 C 0.7296 0.1462 0.13052 0.0
C1709 C 0.70978 0.16403 0.13239 0.0
C1710 C 0.71501 0.18993 0.13484 0.0
H1711 H 0.77358 0.23699 0.1903 0.0
H1712 H 0.75505 0.20984 0.18116 0.0
H1713 H 0.78689 0.2138 0.17041 0.0
H1714 H 0.77952 0.18712 0.1347 0.0
H1715 H 0.77045 0.14173 0.13073 0.0
H1716 H 0.15052 0.79304 0.14635 0.0
H1717 H 0.19535 0.78209 0.15203 0.0
H1718 H 0.19387 0.73798 0.08722 0.0
H1719 H 0.14929 0.74851 0.08166 0.0
H1720 H 0.22003 0.71377 0.12135 0.0
H1721 H 0.25301 0.81363 0.11539 0.0
H1722 H 0.23068 0.80792 0.13886 0.0
H1723 H 0.22096 0.80443 0.10831 0.0
C1724 C 0.15976 0.78095 0.13337 0.0
C1725 C 0.14625 0.77172 0.11353 0.0
C1726 C 0.18543 0.77479 0.13657 0.0
C1727 C 0.1982 0.75958 0.11981 0.0
C1728 C 0.18452 0.74974 0.10041 0.0
H1729 H 0.35509 0.7493 0.08225 0.0
H1730 H 0.31043 0.75941 0.08785 0.0
C1731 C 0.15889 0.75571 0.09731 0.0
C1732 C 0.22589 0.7542 0.12191 0.0
H1733 H 0.28421 0.78247 0.12254 0.0
C1734 C 0.23407 0.72879 0.12177 0.0
C1735 C 0.24426 0.7738 0.12214 0.0
C1736 C 0.23688 0.80147 0.12097 0.0
C1737 C 0.25999 0.72244 0.12139 0.0
C1738 C 0.27836 0.74204 0.12184 0.0
C1739 C 0.27017 0.76744 0.12244 0.0
C1740 C 0.30605 0.73673 0.11967 0.0
C1741 C 0.26736 0.69482 0.11941 0.0
C1742 C 0.31882 0.72102 0.13598 0.0
C1743 C 0.34453 0.7151 0.13275 0.0
C1744 C 0.3581 0.72508 0.11334 0.0
C1745 C 0.34544 0.74153 0.09758 0.0
C1746 C 0.31978 0.74725 0.1007 0.0
H1747 H 0.25125 0.68283 0.11338 0.0
H1748 H 0.28334 0.69223 0.10677 0.0
H1749 H 0.2735 0.68785 0.13714 0.0
H1750 H 0.30887 0.71318 0.15113 0.0
H1751 H 0.35378 0.70266 0.14539 0.0
H1752 H 0.70313 0.35859 0.38721 0.0
H1753 H 0.71999 0.31563 0.38396 0.0
H1754 H 0.79603 0.34463 0.39118 0.0
H1755 H 0.7792 0.3879 0.3946 0.0
H1756 H 0.75516 0.2904 0.35457 0.0
H1757 H 0.78873 0.2972 0.44839 0.0
H1758 H 0.76792 0.32054 0.43535 0.0
H1759 H 0.80119 0.32073 0.4285 0.0
C1760 C 0.72348 0.35602 0.3875 0.0
C1761 C 0.73983 0.37673 0.39139 0.0
C1762 C 0.7331 0.33135 0.38573 0.0
C1763 C 0.75922 0.32686 0.38778 0.0
C1764 C 0.77575 0.34762 0.39006 0.0
H1765 H 0.82744 0.17402 0.38162 0.0
H1766 H 0.81643 0.2178 0.3713 0.0
C1767 C 0.76613 0.37232 0.39197 0.0
C1768 C 0.76872 0.30038 0.38955 0.0
H1769 H 0.79546 0.25849 0.42858 0.0
C1770 C 0.7642 0.28344 0.37064 0.0
C1771 C 0.78026 0.2913 0.41067 0.0
C1772 C 0.78467 0.30827 0.43199 0.0
C1773 C 0.77056 0.25756 0.37246 0.0
C1774 C 0.78181 0.24852 0.39367 0.0
C1775 C 0.78686 0.26556 0.41232 0.0
C1776 C 0.78687 0.2212 0.39779 0.0
C1777 C 0.76436 0.23987 0.35212 0.0
C1778 C 0.77368 0.2085 0.41584 0.0
C1779 C 0.77977 0.18349 0.42166 0.0
C1780 C 0.79944 0.17066 0.40975 0.0
C1781 C 0.81206 0.18315 0.39104 0.0
C1782 C 0.8058 0.20822 0.38511 0.0
H1783 H 0.75228 0.24912 0.33843 0.0
H1784 H 0.78221 0.23356 0.34349 0.0
H1785 H 0.75446 0.22271 0.35881 0.0
H1786 H 0.75889 0.21815 0.42575 0.0
H1787 H 0.76931 0.17436 0.4358 0.0
H1788 H 0.36345 0.74243 0.41735 0.0
H1789 H 0.31901 0.7321 0.41099 0.0
H1790 H 0.31878 0.77641 0.34648 0.0
H1791 H 0.3635 0.78719 0.35302 0.0
H1792 H 0.27923 0.78821 0.37351 0.0
H1793 H 0.28414 0.68375 0.36685 0.0
H1794 H 0.299 0.69469 0.39369 0.0
H1795 H 0.31204 0.70347 0.36521 0.0
C1796 C 0.35422 0.74945 0.40145 0.0
C1797 C 0.36714 0.7655 0.38558 0.0
C1798 C 0.32871 0.74349 0.39782 0.0
C1799 C 0.31557 0.75306 0.37801 0.0
C1800 C 0.32853 0.76868 0.36183 0.0
H1801 H 0.15963 0.70011 0.3555 0.0
H1802 H 0.20448 0.71005 0.34919 0.0
C1803 C 0.35407 0.77484 0.36557 0.0
C1804 C 0.28791 0.74827 0.37537 0.0
H1805 H 0.24337 0.70131 0.37728 0.0
C1806 C 0.27141 0.76917 0.37397 0.0
C1807 C 0.27761 0.72346 0.37554 0.0
C1808 C 0.29417 0.70009 0.37514 0.0
C1809 C 0.24496 0.766 0.37383 0.0
C1810 C 0.23467 0.74127 0.37583 0.0
C1811 C 0.25117 0.72032 0.37611 0.0
C1812 C 0.20698 0.73667 0.37854 0.0
C1813 C 0.22838 0.78922 0.3715 0.0
C1814 C 0.19337 0.74828 0.39712 0.0
C1815 C 0.16771 0.74279 0.4006 0.0
C1816 C 0.1552 0.72518 0.38587 0.0
C1817 C 0.1688 0.71363 0.36722 0.0
C1818 C 0.1944 0.71935 0.36358 0.0
H1819 H 0.23841 0.80473 0.362 0.0
H1820 H 0.21055 0.78488 0.3618 0.0
H1821 H 0.22348 0.79636 0.38954 0.0
H1822 H 0.20275 0.76109 0.40939 0.0
H1823 H 0.15792 0.75161 0.4154 0.0
H1824 H 0.23938 0.86568 0.89104 0.0
H1825 H 0.22685 0.8212 0.88629 0.0
H1826 H 0.30551 0.79901 0.88426 0.0
H1827 H 0.31816 0.84333 0.88881 0.0
H1828 H 0.27593 0.77252 0.85142 0.0
H1829 H 0.2319 0.77099 0.9412 0.0
H1830 H 0.21936 0.79492 0.92176 0.0
H1831 H 0.25185 0.79668 0.93134 0.0
C1832 C 0.254 0.85135 0.88944 0.0
C1833 C 0.27977 0.85814 0.89055 0.0
C1834 C 0.24682 0.82592 0.8868 0.0
C1835 C 0.26523 0.80668 0.88546 0.0
C1836 C 0.29095 0.81349 0.88537 0.0
H1837 H 0.26734 0.64169 0.88901 0.0
H1838 H 0.2779 0.68668 0.88446 0.0
C1839 C 0.29816 0.83893 0.88788 0.0
C1840 C 0.25778 0.77944 0.88515 0.0
H1841 H 0.22727 0.73405 0.91769 0.0
C1842 C 0.26529 0.76409 0.86589 0.0
C1843 C 0.24399 0.7684 0.90411 0.0
C1844 C 0.23648 0.78349 0.92589 0.0
C1845 C 0.25908 0.73812 0.86495 0.0
C1846 C 0.24532 0.72713 0.88393 0.0
C1847 C 0.23772 0.74251 0.9031 0.0
C1848 C 0.23895 0.69962 0.88466 0.0
C1849 C 0.26696 0.72277 0.84348 0.0
C1850 C 0.21357 0.69188 0.88648 0.0
C1851 C 0.2075 0.66622 0.88926 0.0
C1852 C 0.22672 0.64767 0.89048 0.0
C1853 C 0.25211 0.65545 0.88821 0.0
C1854 C 0.25816 0.68115 0.88537 0.0
H1855 H 0.27111 0.73509 0.82793 0.0
H1856 H 0.28443 0.71197 0.84781 0.0
H1857 H 0.25199 0.70896 0.83838 0.0
H1858 H 0.19843 0.7058 0.88622 0.0
H1859 H 0.18778 0.66109 0.89141 0.0
H1860 H 0.85259 0.25485 0.91926 0.0
H1861 H 0.80769 0.26283 0.91239 0.0
H1862 H 0.81094 0.21901 0.84746 0.0
H1863 H 0.8561 0.21062 0.85448 0.0
H1864 H 0.78112 0.28551 0.87773 0.0
H1865 H 0.75439 0.1837 0.88247 0.0
H1866 H 0.78558 0.19488 0.89039 0.0
H1867 H 0.77698 0.19093 0.8596 0.0
C1868 C 0.84395 0.24721 0.9033 0.0
C1869 C 0.85801 0.232 0.88745 0.0
C1870 C 0.81816 0.2517 0.89945 0.0
C1871 C 0.80573 0.24115 0.87965 0.0
C1872 C 0.81991 0.22682 0.86321 0.0
H1873 H 0.64767 0.28852 0.85102 0.0
H1874 H 0.69316 0.28053 0.84587 0.0
C1875 C 0.84575 0.22212 0.86717 0.0
C1876 C 0.77785 0.24479 0.87682 0.0
H1877 H 0.72151 0.21285 0.87463 0.0
C1878 C 0.76808 0.26962 0.87688 0.0
C1879 C 0.76079 0.22405 0.87605 0.0
C1880 C 0.76987 0.19688 0.87734 0.0
C1881 C 0.74182 0.27431 0.87667 0.0
C1882 C 0.72477 0.25356 0.87567 0.0
C1883 C 0.73456 0.22874 0.87513 0.0
C1884 C 0.69678 0.25707 0.8773 0.0
C1885 C 0.73263 0.30139 0.87869 0.0
C1886 C 0.68339 0.24566 0.89602 0.0
C1887 C 0.65741 0.24993 0.89881 0.0
C1888 C 0.64412 0.26577 0.88295 0.0
C1889 C 0.65738 0.2765 0.86371 0.0
C1890 C 0.68342 0.27204 0.86082 0.0
H1891 H 0.7478 0.31435 0.88508 0.0
H1892 H 0.7264 0.3081 0.8609 0.0
H1893 H 0.71628 0.30284 0.89105 0.0
H1894 H 0.69321 0.23402 0.90898 0.0
H1895 H 0.64801 0.24162 0.91403 0.0
H1896 H 0.31635 0.66203 0.62949 0.0
H1897 H 0.30757 0.70675 0.63695 0.0
H1898 H 0.2274 0.69248 0.6304 0.0
H1899 H 0.236 0.64737 0.62345 0.0
H1900 H 0.28337 0.73789 0.60414 0.0
H1901 H 0.23131 0.73772 0.68996 0.0
H1902 H 0.2502 0.71111 0.68001 0.0
H1903 H 0.21897 0.71609 0.66805 0.0
C1904 C 0.29678 0.66812 0.6303 0.0
C1905 C 0.27684 0.65096 0.6259 0.0
C1906 C 0.29182 0.69383 0.63442 0.0
C1907 C 0.26683 0.70295 0.63446 0.0
C1908 C 0.24681 0.6858 0.63086 0.0
H1909 H 0.19315 0.84831 0.62863 0.0
H1910 H 0.2047 0.80383 0.63334 0.0
C1911 C 0.25177 0.66005 0.62666 0.0
C1912 C 0.26193 0.73068 0.63601 0.0
H1913 H 0.23039 0.77624 0.66772 0.0
C1914 C 0.27202 0.74634 0.61819 0.0
C1915 C 0.247 0.74161 0.65426 0.0
C1916 C 0.2364 0.72583 0.6743 0.0
C1917 C 0.26697 0.77251 0.61769 0.0
C1918 C 0.25189 0.78347 0.63587 0.0
C1919 C 0.24204 0.76785 0.65388 0.0
C1920 C 0.24503 0.81084 0.63565 0.0
C1921 C 0.27701 0.78797 0.59716 0.0
C1922 C 0.26379 0.82975 0.63619 0.0
C1923 C 0.25724 0.85534 0.63342 0.0
C1924 C 0.23176 0.86254 0.63036 0.0
C1925 C 0.21293 0.84361 0.63116 0.0
C1926 C 0.21951 0.81807 0.63376 0.0
H1927 H 0.28283 0.77578 0.58193 0.0
H1928 H 0.26256 0.80172 0.59079 0.0
H1929 H 0.29389 0.7988 0.60314 0.0
H1930 H 0.28357 0.82466 0.63821 0.0
H1931 H 0.27212 0.86947 0.63324 0.0
H1932 H 0.84196 0.25764 0.59366 0.0
H1933 H 0.79716 0.24773 0.59911 0.0
H1934 H 0.79053 0.30856 0.65028 0.0
H1935 H 0.83543 0.31867 0.64485 0.0
H1936 H 0.77036 0.23374 0.6388 0.0
H1937 H 0.73416 0.3254 0.60329 0.0
H1938 H 0.76675 0.31567 0.59993 0.0
H1939 H 0.7557 0.32775 0.628 0.0
C1940 C 0.83111 0.26876 0.60627 0.0
C1941 C 0.84234 0.28905 0.61871 0.0
C1942 C 0.80542 0.26314 0.6093 0.0
C1943 C 0.79035 0.27765 0.62483 0.0
C1944 C 0.80161 0.29748 0.63779 0.0
H1945 H 0.63678 0.21268 0.64288 0.0
H1946 H 0.67521 0.2356 0.65571 0.0
C1947 C 0.82732 0.30321 0.63468 0.0
C1948 C 0.76287 0.27185 0.62708 0.0
H1949 H 0.70382 0.29506 0.61455 0.0
C1950 C 0.75574 0.24724 0.63383 0.0
C1951 C 0.74386 0.28952 0.62053 0.0
C1952 C 0.75038 0.31601 0.61234 0.0
C1953 C 0.73032 0.23937 0.63311 0.0
C1954 C 0.71132 0.25681 0.62597 0.0
C1955 C 0.71833 0.28182 0.62031 0.0
C1956 C 0.68514 0.24824 0.62022 0.0
C1957 C 0.72429 0.21194 0.63844 0.0
C1958 C 0.67696 0.24941 0.59647 0.0
C1959 C 0.65505 0.23673 0.58933 0.0
C1960 C 0.64078 0.22268 0.60574 0.0
C1961 C 0.64745 0.22353 0.62996 0.0
C1962 C 0.66955 0.2363 0.63718 0.0
H1963 H 0.74166 0.20008 0.63984 0.0
H1964 H 0.71403 0.21076 0.65564 0.0
H1965 H 0.71194 0.20376 0.62435 0.0
H1966 H 0.68851 0.25857 0.58307 0.0
H1967 H 0.65018 0.23634 0.57058 0.0
loop_
_geom_bond_atom_site_label_1
_geom_bond_atom_site_label_2
_geom_bond_distance
_geom_bond_site_symmetry_2
_ccdc_geom_bond_type
C0 C1 1.351 . S
C0 N3 1.368 . S
C0 H5 0.931 . S
C1 C0 1.351 . S
C1 N2 1.373 . S
C1 H29 0.957 . S
N2 C1 1.373 . S
N2 C4 1.340 . S
N3 C0 1.368 . S
N3 C4 1.321 . S
N3 Co6 2.135 . S
C4 N2 1.340 . S
C4 N3 1.321 . S
C4 H28 0.930 . S
H5 C0 0.931 . S
Co6 N3 2.135 . S
Co6 N9 2.121 . S
Co6 O14 2.055 . S
Co6 O17 2.039 . S
Co6 N20 2.140 . S
C7 O8 1.227 . S
C7 O17 1.265 . S
O8 C7 1.227 . S
N9 Co6 2.121 . S
N9 C11 1.375 . S
N9 C12 1.313 . S
C10 C11 1.338 . S
C10 N13 1.377 . S
C10 H30 0.930 . S
C11 N9 1.375 . S
C11 C10 1.338 . S
C11 H15 0.931 . S
C12 N9 1.313 . S
C12 N13 1.344 . S
C12 H16 0.930 . S
N13 C10 1.377 . S
N13 C12 1.344 . S
O14 Co6 2.055 . S
O14 C18 1.253 . S
H15 C11 0.931 . S
H16 C12 0.930 . S
O17 Co6 2.039 . S
O17 C7 1.265 . S
C18 O14 1.253 . S
C18 O19 1.227 . S
O19 C18 1.227 . S
N20 Co6 2.140 . S
N20 C23 1.346 . S
N20 C24 1.345 . S
C21 C22 1.387 . S
C21 C25 1.391 . S
C22 C21 1.387 . S
C22 C23 1.369 . S
C22 H31 0.929 . S
C23 N20 1.346 . S
C23 C22 1.369 . S
C23 H26 0.928 . S
C24 N20 1.345 . S
C24 C25 1.371 . S
C24 H27 0.931 . S
C25 C21 1.391 . S
C25 C24 1.371 . S
C25 H32 0.930 . S
H26 C23 0.928 . S
H27 C24 0.931 . S
H28 C4 0.930 . S
H29 C1 0.957 . S
H30 C10 0.930 . S
H31 C22 0.929 . S
H32 C25 0.930 . S
C33 C34 1.351 . S
C33 N36 1.368 . S
C33 H38 0.931 . S
C34 C33 1.351 . S
C34 N35 1.373 . S
C34 H62 0.930 . S
N35 C34 1.373 . S
N35 C37 1.340 . S
N36 C33 1.368 . S
N36 C37 1.321 . S
N36 Co39 2.135 . S
C37 N35 1.340 . S
C37 N36 1.321 . S
C37 H61 0.930 . S
H38 C33 0.931 . S
Co39 N36 2.135 . S
Co39 N42 2.121 . S
Co39 O47 2.055 . S
Co39 O50 2.039 . S
Co39 N53 2.140 . S
C40 O41 1.227 . S
C40 O50 1.265 . S
O41 C40 1.227 . S
N42 Co39 2.121 . S
N42 C44 1.375 . S
N42 C45 1.313 . S
C43 C44 1.338 . S
C43 N46 1.377 . S
C43 H63 0.930 . S
C44 N42 1.375 . S
C44 C43 1.338 . S
C44 H48 0.931 . S
C45 N42 1.313 . S
C45 N46 1.344 . S
C45 H49 0.930 . S
N46 C43 1.377 . S
N46 C45 1.344 . S
O47 Co39 2.055 . S
O47 C51 1.253 . S
H48 C44 0.931 . S
H49 C45 0.930 . S
O50 Co39 2.039 . S
O50 C40 1.265 . S
C51 O47 1.253 . S
C51 O52 1.227 . S
O52 C51 1.227 . S
N53 Co39 2.140 . S
N53 C56 1.346 . S
N53 C57 1.345 . S
C54 C55 1.387 . S
C54 C58 1.391 . S
C55 C54 1.387 . S
C55 C56 1.369 . S
C55 H64 0.929 . S
C56 N53 1.346 . S
C56 C55 1.369 . S
C56 H59 0.928 . S
C57 N53 1.345 . S
C57 C58 1.371 . S
C57 H60 0.931 . S
C58 C54 1.391 . S
C58 C57 1.371 . S
C58 H65 0.930 . S
H59 C56 0.928 . S
H60 C57 0.931 . S
H61 C37 0.930 . S
H62 C34 0.930 . S
H63 C43 0.930 . S
H64 C55 0.929 . S
H65 C58 0.930 . S
C66 C67 1.351 . S
C66 N69 1.368 . S
C66 H71 0.931 . S
C67 C66 1.351 . S
C67 N68 1.373 . S
C67 H95 0.930 . S
N68 C67 1.373 . S
N68 C70 1.340 . S
N69 C66 1.368 . S
N69 C70 1.321 . S
N69 Co72 2.135 . S
C70 N68 1.340 . S
C70 N69 1.321 . S
C70 H94 0.930 . S
H71 C66 0.931 . S
Co72 N69 2.135 . S
Co72 N75 2.121 . S
Co72 O80 2.055 . S
Co72 O83 2.039 . S
Co72 N86 2.140 . S
C73 O74 1.227 . S
C73 O83 1.265 . S
O74 C73 1.227 . S
N75 Co72 2.121 . S
N75 C77 1.375 . S
N75 C78 1.313 . S
C76 C77 1.338 . S
C76 N79 1.377 . S
C76 H96 0.930 . S
C77 N75 1.375 . S
C77 C76 1.338 . S
C77 H81 0.931 . S
C78 N75 1.313 . S
C78 N79 1.344 . S
C78 H82 0.930 . S
N79 C76 1.377 . S
N79 C78 1.344 . S
O80 Co72 2.055 . S
O80 C84 1.253 . S
H81 C77 0.931 . S
H82 C78 0.930 . S
O83 Co72 2.039 . S
O83 C73 1.265 . S
C84 O80 1.253 . S
C84 O85 1.227 . S
O85 C84 1.227 . S
N86 Co72 2.140 . S
N86 C89 1.346 . S
N86 C90 1.345 . S
C87 C88 1.387 . S
C87 C91 1.391 . S
C88 C87 1.387 . S
C88 C89 1.369 . S
C88 H97 0.929 . S
C89 N86 1.346 . S
C89 C88 1.369 . S
C89 H92 0.928 . S
C90 N86 1.345 . S
C90 C91 1.371 . S
C90 H93 0.931 . S
C91 C87 1.391 . S
C91 C90 1.371 . S
C91 H98 0.930 . S
H92 C89 0.928 . S
H93 C90 0.931 . S
H94 C70 0.930 . S
H95 C67 0.930 . S
H96 C76 0.930 . S
H97 C88 0.929 . S
H98 C91 0.930 . S
C99 C100 1.351 . S
C99 N102 1.368 . S
C99 H104 0.931 . S
C100 C99 1.351 . S
C100 N101 1.373 . S
C100 H128 0.957 . S
N101 C100 1.373 . S
N101 C103 1.340 . S
N102 C99 1.368 . S
N102 C103 1.321 . S
N102 Co105 2.135 . S
C103 N101 1.340 . S
C103 N102 1.321 . S
C103 H127 0.930 . S
H104 C99 0.931 . S
Co105 N102 2.135 . S
Co105 N108 2.121 . S
Co105 O113 2.055 . S
Co105 O116 2.039 . S
Co105 N119 2.140 . S
C106 O107 1.227 . S
C106 O116 1.265 . S
O107 C106 1.227 . S
N108 Co105 2.121 . S
N108 C110 1.375 . S
N108 C111 1.313 . S
C109 C110 1.338 . S
C109 N112 1.377 . S
C109 H129 0.930 . S
C110 N108 1.375 . S
C110 C109 1.338 . S
C110 H114 0.931 . S
C111 N108 1.313 . S
C111 N112 1.344 . S
C111 H115 0.930 . S
N112 C109 1.377 . S
N112 C111 1.344 . S
O113 Co105 2.055 . S
O113 C117 1.253 . S
H114 C110 0.931 . S
H115 C111 0.930 . S
O116 Co105 2.039 . S
O116 C106 1.265 . S
C117 O113 1.253 . S
C117 O118 1.227 . S
O118 C117 1.227 . S
N119 Co105 2.140 . S
N119 C122 1.346 . S
N119 C123 1.345 . S
C120 C121 1.387 . S
C120 C124 1.391 . S
C121 C120 1.387 . S
C121 C122 1.369 . S
C121 H130 0.929 . S
C122 N119 1.346 . S
C122 C121 1.369 . S
C122 H125 0.928 . S
C123 N119 1.345 . S
C123 C124 1.371 . S
C123 H126 0.931 . S
C124 C120 1.391 . S
C124 C123 1.371 . S
C124 H131 0.930 . S
H125 C122 0.928 . S
H126 C123 0.931 . S
H127 C103 0.930 . S
H128 C100 0.957 . S
H129 C109 0.930 . S
H130 C121 0.929 . S
H131 C124 0.930 . S
C132 C133 1.351 . S
C132 N135 1.368 . S
C132 H137 0.931 . S
C133 C132 1.351 . S
C133 N134 1.373 . S
C133 H161 0.930 . S
N134 C133 1.373 . S
N134 C136 1.340 . S
N135 C132 1.368 . S
N135 C136 1.321 . S
N135 Co138 2.135 . S
C136 N134 1.340 . S
C136 N135 1.321 . S
C136 H160 0.930 . S
H137 C132 0.931 . S
Co138 N135 2.135 . S
Co138 N141 2.121 . S
Co138 O146 2.055 . S
Co138 O149 2.039 . S
Co138 N152 2.140 . S
C139 O140 1.227 . S
C139 O149 1.265 . S
O140 C139 1.227 . S
N141 Co138 2.121 . S
N141 C143 1.375 . S
N141 C144 1.313 . S
C142 C143 1.338 . S
C142 N145 1.377 . S
C142 H162 0.930 . S
C143 N141 1.375 . S
C143 C142 1.338 . S
C143 H147 0.931 . S
C144 N141 1.313 . S
C144 N145 1.344 . S
C144 H148 0.930 . S
N145 C142 1.377 . S
N145 C144 1.344 . S
O146 Co138 2.055 . S
O146 C150 1.253 . S
H147 C143 0.931 . S
H148 C144 0.930 . S
O149 Co138 2.039 . S
O149 C139 1.265 . S
C150 O146 1.253 . S
C150 O151 1.227 . S
O151 C150 1.227 . S
N152 Co138 2.140 . S
N152 C155 1.346 . S
N152 C156 1.345 . S
C153 C154 1.387 . S
C153 C157 1.391 . S
C154 C153 1.387 . S
C154 C155 1.369 . S
C154 H163 0.929 . S
C155 N152 1.346 . S
C155 C154 1.369 . S
C155 H158 0.928 . S
C156 N152 1.345 . S
C156 C157 1.371 . S
C156 H159 0.931 . S
C157 C153 1.391 . S
C157 C156 1.371 . S
C157 H164 0.930 . S
H158 C155 0.928 . S
H159 C156 0.931 . S
H160 C136 0.930 . S
H161 C133 0.930 . S
H162 C142 0.930 . S
H163 C154 0.929 . S
H164 C157 0.930 . S
C165 C166 1.351 . S
C165 N168 1.368 . S
C165 H170 0.931 . S
C166 C165 1.351 . S
C166 N167 1.373 . S
C166 H194 0.957 . S
N167 C166 1.373 . S
N167 C169 1.340 . S
N168 C165 1.368 . S
N168 C169 1.321 . S
N168 Co171 2.135 . S
C169 N167 1.340 . S
C169 N168 1.321 . S
C169 H193 0.930 . S
H170 C165 0.931 . S
Co171 N168 2.135 . S
Co171 N174 2.121 . S
Co171 O179 2.055 . S
Co171 O182 2.039 . S
Co171 N185 2.140 . S
C172 O173 1.227 . S
C172 O182 1.265 . S
O173 C172 1.227 . S
N174 Co171 2.121 . S
N174 C176 1.375 . S
N174 C177 1.313 . S
C175 C176 1.338 . S
C175 N178 1.377 . S
C175 H195 0.930 . S
C176 N174 1.375 . S
C176 C175 1.338 . S
C176 H180 0.931 . S
C177 N174 1.313 . S
C177 N178 1.344 . S
C177 H181 0.930 . S
N178 C175 1.377 . S
N178 C177 1.344 . S
O179 Co171 2.055 . S
O179 C183 1.253 . S
H180 C176 0.931 . S
H181 C177 0.930 . S
O182 Co171 2.039 . S
O182 C172 1.265 . S
C183 O179 1.253 . S
C183 O184 1.227 . S
O184 C183 1.227 . S
N185 Co171 2.140 . S
N185 C188 1.346 . S
N185 C189 1.345 . S
C186 C187 1.387 . S
C186 C190 1.391 . S
C187 C186 1.387 . S
C187 C188 1.369 . S
C187 H196 0.929 . S
C188 N185 1.346 . S
C188 C187 1.369 . S
C188 H191 0.928 . S
C189 N185 1.345 . S
C189 C190 1.371 . S
C189 H192 0.931 . S
C190 C186 1.391 . S
C190 C189 1.371 . S
C190 H197 0.930 . S
H191 C188 0.928 . S
H192 C189 0.931 . S
H193 C169 0.930 . S
H194 C166 0.957 . S
H195 C175 0.930 . S
H196 C187 0.929 . S
H197 C190 0.930 . S
C198 C199 1.351 . S
C198 N201 1.368 . S
C198 H203 0.931 . S
C199 C198 1.351 . S
C199 N200 1.373 . S
C199 H227 0.957 . S
N200 C199 1.373 . S
N200 C202 1.340 . S
N201 C198 1.368 . S
N201 C202 1.321 . S
N201 Co204 2.135 . S
C202 N200 1.340 . S
C202 N201 1.321 . S
C202 H226 0.930 . S
H203 C198 0.931 . S
Co204 N201 2.135 . S
Co204 N207 2.121 . S
Co204 O212 2.055 . S
Co204 O215 2.039 . S
Co204 N218 2.140 . S
C205 O206 1.227 . S
C205 O215 1.265 . S
O206 C205 1.227 . S
N207 Co204 2.121 . S
N207 C209 1.375 . S
N207 C210 1.313 . S
C208 C209 1.338 . S
C208 N211 1.377 . S
C208 H228 0.930 . S
C209 N207 1.375 . S
C209 C208 1.338 . S
C209 H213 0.931 . S
C210 N207 1.313 . S
C210 N211 1.344 . S
C210 H214 0.930 . S
N211 C208 1.377 . S
N211 C210 1.344 . S
O212 Co204 2.055 . S
O212 C216 1.253 . S
H213 C209 0.931 . S
H214 C210 0.930 . S
O215 Co204 2.039 . S
O215 C205 1.265 . S
C216 O212 1.253 . S
C216 O217 1.227 . S
O217 C216 1.227 . S
N218 Co204 2.140 . S
N218 C221 1.346 . S
N218 C222 1.345 . S
C219 C220 1.387 . S
C219 C223 1.391 . S
C220 C219 1.387 . S
C220 C221 1.369 . S
C220 H229 0.929 . S
C221 N218 1.346 . S
C221 C220 1.369 . S
C221 H224 0.928 . S
C222 N218 1.345 . S
C222 C223 1.371 . S
C222 H225 0.931 . S
C223 C219 1.391 . S
C223 C222 1.371 . S
C223 H230 0.930 . S
H224 C221 0.928 . S
H225 C222 0.931 . S
H226 C202 0.930 . S
H227 C199 0.957 . S
H228 C208 0.930 . S
H229 C220 0.929 . S
H230 C223 0.930 . S
C231 C232 1.351 . S
C231 N234 1.368 . S
C231 H236 0.931 . S
C232 C231 1.351 . S
C232 N233 1.373 . S
C232 H260 0.930 . S
N233 C232 1.373 . S
N233 C235 1.340 . S
N234 C231 1.368 . S
N234 C235 1.321 . S
N234 Co237 2.135 . S
C235 N233 1.340 . S
C235 N234 1.321 . S
C235 H259 0.930 . S
H236 C231 0.931 . S
Co237 N234 2.135 . S
Co237 N240 2.121 . S
Co237 O245 2.055 . S
Co237 O248 2.039 . S
Co237 N251 2.140 . S
C238 O239 1.227 . S
C238 O248 1.265 . S
O239 C238 1.227 . S
N240 Co237 2.121 . S
N240 C242 1.375 . S
N240 C243 1.313 . S
C241 C242 1.338 . S
C241 N244 1.377 . S
C241 H261 0.930 . S
C242 N240 1.375 . S
C242 C241 1.338 . S
C242 H246 0.931 . S
C243 N240 1.313 . S
C243 N244 1.344 . S
C243 H247 0.930 . S
N244 C241 1.377 . S
N244 C243 1.344 . S
O245 Co237 2.055 . S
O245 C249 1.253 . S
H246 C242 0.931 . S
H247 C243 0.930 . S
O248 Co237 2.039 . S
O248 C238 1.265 . S
C249 O245 1.253 . S
C249 O250 1.227 . S
O250 C249 1.227 . S
N251 Co237 2.140 . S
N251 C254 1.346 . S
N251 C255 1.345 . S
C252 C253 1.387 . S
C252 C256 1.391 . S
C253 C252 1.387 . S
C253 C254 1.369 . S
C253 H262 0.929 . S
C254 N251 1.346 . S
C254 C253 1.369 . S
C254 H257 0.928 . S
C255 N251 1.345 . S
C255 C256 1.371 . S
C255 H258 0.931 . S
C256 C252 1.391 . S
C256 C255 1.371 . S
C256 H263 0.930 . S
H257 C254 0.928 . S
H258 C255 0.931 . S
H259 C235 0.930 . S
H260 C232 0.930 . S
H261 C241 0.930 . S
H262 C253 0.929 . S
H263 C256 0.930 . S
C264 C265 1.351 . S
C264 N267 1.368 . S
C264 H269 0.931 . S
C265 C264 1.351 . S
C265 N266 1.373 . S
C265 H293 0.957 . S
N266 C265 1.373 . S
N266 C268 1.340 . S
N267 C264 1.368 . S
N267 C268 1.321 . S
N267 Co270 2.135 . S
C268 N266 1.340 . S
C268 N267 1.321 . S
C268 H292 0.930 . S
H269 C264 0.931 . S
Co270 N267 2.135 . S
Co270 N273 2.121 . S
Co270 O278 2.055 . S
Co270 O281 2.039 . S
Co270 N284 2.140 . S
C271 O272 1.227 . S
C271 O281 1.265 . S
O272 C271 1.227 . S
N273 Co270 2.121 . S
N273 C275 1.375 . S
N273 C276 1.313 . S
C274 C275 1.338 . S
C274 N277 1.377 . S
C274 H294 0.930 . S
C275 N273 1.375 . S
C275 C274 1.338 . S
C275 H279 0.931 . S
C276 N273 1.313 . S
C276 N277 1.344 . S
C276 H280 0.930 . S
N277 C274 1.377 . S
N277 C276 1.344 . S
O278 Co270 2.055 . S
O278 C282 1.253 . S
H279 C275 0.931 . S
H280 C276 0.930 . S
O281 Co270 2.039 . S
O281 C271 1.265 . S
C282 O278 1.253 . S
C282 O283 1.227 . S
O283 C282 1.227 . S
N284 Co270 2.140 . S
N284 C287 1.346 . S
N284 C288 1.345 . S
C285 C286 1.387 . S
C285 C289 1.391 . S
C286 C285 1.387 . S
C286 C287 1.369 . S
C286 H295 0.929 . S
C287 N284 1.346 . S
C287 C286 1.369 . S
C287 H290 0.928 . S
C288 N284 1.345 . S
C288 C289 1.371 . S
C288 H291 0.931 . S
C289 C285 1.391 . S
C289 C288 1.371 . S
C289 H296 0.930 . S
H290 C287 0.928 . S
H291 C288 0.931 . S
H292 C268 0.930 . S
H293 C265 0.957 . S
H294 C274 0.930 . S
H295 C286 0.929 . S
H296 C289 0.930 . S
C297 C298 1.351 . S
C297 N300 1.368 . S
C297 H302 0.931 . S
C298 C297 1.351 . S
C298 N299 1.373 . S
C298 H326 0.930 . S
N299 C298 1.373 . S
N299 C301 1.340 . S
N300 C297 1.368 . S
N300 C301 1.321 . S
N300 Co303 2.135 . S
C301 N299 1.340 . S
C301 N300 1.321 . S
C301 H325 0.930 . S
H302 C297 0.931 . S
Co303 N300 2.135 . S
Co303 N306 2.121 . S
Co303 O311 2.055 . S
Co303 O314 2.039 . S
Co303 N317 2.140 . S
C304 O305 1.227 . S
C304 O314 1.265 . S
O305 C304 1.227 . S
N306 Co303 2.121 . S
N306 C308 1.375 . S
N306 C309 1.313 . S
C307 C308 1.338 . S
C307 N310 1.377 . S
C307 H327 0.930 . S
C308 N306 1.375 . S
C308 C307 1.338 . S
C308 H312 0.931 . S
C309 N306 1.313 . S
C309 N310 1.344 . S
C309 H313 0.930 . S
N310 C307 1.377 . S
N310 C309 1.344 . S
O311 Co303 2.055 . S
O311 C315 1.253 . S
H312 C308 0.931 . S
H313 C309 0.930 . S
O314 Co303 2.039 . S
O314 C304 1.265 . S
C315 O311 1.253 . S
C315 O316 1.227 . S
O316 C315 1.227 . S
N317 Co303 2.140 . S
N317 C320 1.346 . S
N317 C321 1.345 . S
C318 C319 1.387 . S
C318 C322 1.391 . S
C319 C318 1.387 . S
C319 C320 1.369 . S
C319 H328 0.929 . S
C320 N317 1.346 . S
C320 C319 1.369 . S
C320 H323 0.928 . S
C321 N317 1.345 . S
C321 C322 1.371 . S
C321 H324 0.931 . S
C322 C318 1.391 . S
C322 C321 1.371 . S
C322 H329 0.930 . S
H323 C320 0.928 . S
H324 C321 0.931 . S
H325 C301 0.930 . S
H326 C298 0.930 . S
H327 C307 0.930 . S
H328 C319 0.929 . S
H329 C322 0.930 . S
C330 C331 1.351 . S
C330 N333 1.368 . S
C330 H335 0.931 . S
C331 C330 1.351 . S
C331 N332 1.373 . S
C331 H359 0.930 . S
N332 C331 1.373 . S
N332 C334 1.340 . S
N333 C330 1.368 . S
N333 C334 1.321 . S
N333 Co336 2.135 . S
C334 N332 1.340 . S
C334 N333 1.321 . S
C334 H358 0.930 . S
H335 C330 0.931 . S
Co336 N333 2.135 . S
Co336 N339 2.121 . S
Co336 O344 2.055 . S
Co336 O347 2.039 . S
Co336 N350 2.140 . S
C337 O338 1.227 . S
C337 O347 1.265 . S
O338 C337 1.227 . S
N339 Co336 2.121 . S
N339 C341 1.375 . S
N339 C342 1.313 . S
C340 C341 1.338 . S
C340 N343 1.377 . S
C340 H360 0.930 . S
C341 N339 1.375 . S
C341 C340 1.338 . S
C341 H345 0.931 . S
C342 N339 1.313 . S
C342 N343 1.344 . S
C342 H346 0.930 . S
N343 C340 1.377 . S
N343 C342 1.344 . S
O344 Co336 2.055 . S
O344 C348 1.253 . S
H345 C341 0.931 . S
H346 C342 0.930 . S
O347 Co336 2.039 . S
O347 C337 1.265 . S
C348 O344 1.253 . S
C348 O349 1.227 . S
O349 C348 1.227 . S
N350 Co336 2.140 . S
N350 C353 1.346 . S
N350 C354 1.345 . S
C351 C352 1.387 . S
C351 C355 1.391 . S
C352 C351 1.387 . S
C352 C353 1.369 . S
C352 H361 0.929 . S
C353 N350 1.346 . S
C353 C352 1.369 . S
C353 H356 0.928 . S
C354 N350 1.345 . S
C354 C355 1.371 . S
C354 H357 0.931 . S
C355 C351 1.391 . S
C355 C354 1.371 . S
C355 H362 0.930 . S
H356 C353 0.928 . S
H357 C354 0.931 . S
H358 C334 0.930 . S
H359 C331 0.930 . S
H360 C340 0.930 . S
H361 C352 0.929 . S
H362 C355 0.930 . S
C363 C364 1.351 . S
C363 N366 1.368 . S
C363 H368 0.931 . S
C364 C363 1.351 . S
C364 N365 1.373 . S
C364 H392 0.957 . S
N365 C364 1.373 . S
N365 C367 1.340 . S
N366 C363 1.368 . S
N366 C367 1.321 . S
N366 Co369 2.135 . S
C367 N365 1.340 . S
C367 N366 1.321 . S
C367 H391 0.930 . S
H368 C363 0.931 . S
Co369 N366 2.135 . S
Co369 N372 2.121 . S
Co369 O377 2.055 . S
Co369 O380 2.039 . S
Co369 N383 2.140 . S
C370 O371 1.227 . S
C370 O380 1.265 . S
O371 C370 1.227 . S
N372 Co369 2.121 . S
N372 C374 1.375 . S
N372 C375 1.313 . S
C373 C374 1.338 . S
C373 N376 1.377 . S
C373 H393 0.930 . S
C374 N372 1.375 . S
C374 C373 1.338 . S
C374 H378 0.931 . S
C375 N372 1.313 . S
C375 N376 1.344 . S
C375 H379 0.930 . S
N376 C373 1.377 . S
N376 C375 1.344 . S
O377 Co369 2.055 . S
O377 C381 1.253 . S
H378 C374 0.931 . S
H379 C375 0.930 . S
O380 Co369 2.039 . S
O380 C370 1.265 . S
C381 O377 1.253 . S
C381 O382 1.227 . S
O382 C381 1.227 . S
N383 Co369 2.140 . S
N383 C386 1.346 . S
N383 C387 1.345 . S
C384 C385 1.387 . S
C384 C388 1.391 . S
C385 C384 1.387 . S
C385 C386 1.369 . S
C385 H394 0.929 . S
C386 N383 1.346 . S
C386 C385 1.369 . S
C386 H389 0.928 . S
C387 N383 1.345 . S
C387 C388 1.371 . S
C387 H390 0.931 . S
C388 C384 1.391 . S
C388 C387 1.371 . S
C388 H395 0.930 . S
H389 C386 0.928 . S
H390 C387 0.931 . S
H391 C367 0.930 . S
H392 C364 0.957 . S
H393 C373 0.930 . S
H394 C385 0.929 . S
H395 C388 0.930 . S
C396 C397 1.351 . S
C396 N399 1.368 . S
C396 H401 0.931 . S
C397 C396 1.351 . S
C397 N398 1.373 . S
C397 H425 0.930 . S
N398 C397 1.373 . S
N398 C400 1.340 . S
N399 C396 1.368 . S
N399 C400 1.321 . S
N399 Co402 2.135 . S
C400 N398 1.340 . S
C400 N399 1.321 . S
C400 H424 0.930 . S
H401 C396 0.931 . S
Co402 N399 2.135 . S
Co402 N405 2.121 . S
Co402 O410 2.055 . S
Co402 O413 2.039 . S
Co402 N416 2.140 . S
C403 O404 1.227 . S
C403 O413 1.265 . S
O404 C403 1.227 . S
N405 Co402 2.121 . S
N405 C407 1.375 . S
N405 C408 1.313 . S
C406 C407 1.338 . S
C406 N409 1.377 . S
C406 H426 0.930 . S
C407 N405 1.375 . S
C407 C406 1.338 . S
C407 H411 0.931 . S
C408 N405 1.313 . S
C408 N409 1.344 . S
C408 H412 0.930 . S
N409 C406 1.377 . S
N409 C408 1.344 . S
O410 Co402 2.055 . S
O410 C414 1.253 . S
H411 C407 0.931 . S
H412 C408 0.930 . S
O413 Co402 2.039 . S
O413 C403 1.265 . S
C414 O410 1.253 . S
C414 O415 1.227 . S
O415 C414 1.227 . S
N416 Co402 2.140 . S
N416 C419 1.346 . S
N416 C420 1.345 . S
C417 C418 1.387 . S
C417 C421 1.391 . S
C418 C417 1.387 . S
C418 C419 1.369 . S
C418 H427 0.929 . S
C419 N416 1.346 . S
C419 C418 1.369 . S
C419 H422 0.928 . S
C420 N416 1.345 . S
C420 C421 1.371 . S
C420 H423 0.931 . S
C421 C417 1.391 . S
C421 C420 1.371 . S
C421 H428 0.930 . S
H422 C419 0.928 . S
H423 C420 0.931 . S
H424 C400 0.930 . S
H425 C397 0.930 . S
H426 C406 0.930 . S
H427 C418 0.929 . S
H428 C421 0.930 . S
C429 C430 1.351 . S
C429 N432 1.368 . S
C429 H434 0.931 . S
C430 C429 1.351 . S
C430 N431 1.373 . S
C430 H458 0.957 . S
N431 C430 1.373 . S
N431 C433 1.340 . S
N432 C429 1.368 . S
N432 C433 1.321 . S
N432 Co435 2.135 . S
C433 N431 1.340 . S
C433 N432 1.321 . S
C433 H457 0.930 . S
H434 C429 0.931 . S
Co435 N432 2.135 . S
Co435 N438 2.121 . S
Co435 O443 2.055 . S
Co435 O446 2.039 . S
Co435 N449 2.140 . S
C436 O437 1.227 . S
C436 O446 1.265 . S
O437 C436 1.227 . S
N438 Co435 2.121 . S
N438 C440 1.375 . S
N438 C441 1.313 . S
C439 C440 1.338 . S
C439 N442 1.377 . S
C439 H459 0.930 . S
C440 N438 1.375 . S
C440 C439 1.338 . S
C440 H444 0.931 . S
C441 N438 1.313 . S
C441 N442 1.344 . S
C441 H445 0.930 . S
N442 C439 1.377 . S
N442 C441 1.344 . S
O443 Co435 2.055 . S
O443 C447 1.253 . S
H444 C440 0.931 . S
H445 C441 0.930 . S
O446 Co435 2.039 . S
O446 C436 1.265 . S
C447 O443 1.253 . S
C447 O448 1.227 . S
O448 C447 1.227 . S
N449 Co435 2.140 . S
N449 C452 1.346 . S
N449 C453 1.345 . S
C450 C451 1.387 . S
C450 C454 1.391 . S
C451 C450 1.387 . S
C451 C452 1.369 . S
C451 H460 0.929 . S
C452 N449 1.346 . S
C452 C451 1.369 . S
C452 H455 0.928 . S
C453 N449 1.345 . S
C453 C454 1.371 . S
C453 H456 0.931 . S
C454 C450 1.391 . S
C454 C453 1.371 . S
C454 H461 0.930 . S
H455 C452 0.928 . S
H456 C453 0.931 . S
H457 C433 0.930 . S
H458 C430 0.957 . S
H459 C439 0.930 . S
H460 C451 0.929 . S
H461 C454 0.930 . S
C462 C463 1.351 . S
C462 N465 1.368 . S
C462 H467 0.931 . S
C463 C462 1.351 . S
C463 N464 1.373 . S
C463 H491 0.957 . S
N464 C463 1.373 . S
N464 C466 1.340 . S
N465 C462 1.368 . S
N465 C466 1.321 . S
N465 Co468 2.135 . S
C466 N464 1.340 . S
C466 N465 1.321 . S
C466 H490 0.930 . S
H467 C462 0.931 . S
Co468 N465 2.135 . S
Co468 N471 2.121 . S
Co468 O476 2.055 . S
Co468 O479 2.039 . S
Co468 N482 2.140 . S
C469 O470 1.227 . S
C469 O479 1.265 . S
O470 C469 1.227 . S
N471 Co468 2.121 . S
N471 C473 1.375 . S
N471 C474 1.313 . S
C472 C473 1.338 . S
C472 N475 1.377 . S
C472 H492 0.930 . S
C473 N471 1.375 . S
C473 C472 1.338 . S
C473 H477 0.931 . S
C474 N471 1.313 . S
C474 N475 1.344 . S
C474 H478 0.930 . S
N475 C472 1.377 . S
N475 C474 1.344 . S
O476 Co468 2.055 . S
O476 C480 1.253 . S
H477 C473 0.931 . S
H478 C474 0.930 . S
O479 Co468 2.039 . S
O479 C469 1.265 . S
C480 O476 1.253 . S
C480 O481 1.227 . S
O481 C480 1.227 . S
N482 Co468 2.140 . S
N482 C485 1.346 . S
N482 C486 1.345 . S
C483 C484 1.387 . S
C483 C487 1.391 . S
C484 C483 1.387 . S
C484 C485 1.369 . S
C484 H493 0.929 . S
C485 N482 1.346 . S
C485 C484 1.369 . S
C485 H488 0.928 . S
C486 N482 1.345 . S
C486 C487 1.371 . S
C486 H489 0.931 . S
C487 C483 1.391 . S
C487 C486 1.371 . S
C487 H494 0.930 . S
H488 C485 0.928 . S
H489 C486 0.931 . S
H490 C466 0.930 . S
H491 C463 0.957 . S
H492 C472 0.930 . S
H493 C484 0.929 . S
H494 C487 0.930 . S
C495 C496 1.351 . S
C495 N498 1.368 . S
C495 H500 0.931 . S
C496 C495 1.351 . S
C496 N497 1.373 . S
C496 H524 0.930 . S
N497 C496 1.373 . S
N497 C499 1.340 . S
N498 C495 1.368 . S
N498 C499 1.321 . S
N498 Co501 2.135 . S
C499 N497 1.340 . S
C499 N498 1.321 . S
C499 H523 0.930 . S
H500 C495 0.931 . S
Co501 N498 2.135 . S
Co501 N504 2.121 . S
Co501 O509 2.055 . S
Co501 O512 2.039 . S
Co501 N515 2.140 . S
C502 O503 1.227 . S
C502 O512 1.265 . S
O503 C502 1.227 . S
N504 Co501 2.121 . S
N504 C506 1.375 . S
N504 C507 1.313 . S
C505 C506 1.338 . S
C505 N508 1.377 . S
C505 H525 0.930 . S
C506 N504 1.375 . S
C506 C505 1.338 . S
C506 H510 0.931 . S
C507 N504 1.313 . S
C507 N508 1.344 . S
C507 H511 0.930 . S
N508 C505 1.377 . S
N508 C507 1.344 . S
O509 Co501 2.055 . S
O509 C513 1.253 . S
H510 C506 0.931 . S
H511 C507 0.930 . S
O512 Co501 2.039 . S
O512 C502 1.265 . S
C513 O509 1.253 . S
C513 O514 1.227 . S
O514 C513 1.227 . S
N515 Co501 2.140 . S
N515 C518 1.346 . S
N515 C519 1.345 . S
C516 C517 1.387 . S
C516 C520 1.391 . S
C517 C516 1.387 . S
C517 C518 1.369 . S
C517 H526 0.929 . S
C518 N515 1.346 . S
C518 C517 1.369 . S
C518 H521 0.928 . S
C519 N515 1.345 . S
C519 C520 1.371 . S
C519 H522 0.931 . S
C520 C516 1.391 . S
C520 C519 1.371 . S
C520 H527 0.930 . S
H521 C518 0.928 . S
H522 C519 0.931 . S
H523 C499 0.930 . S
H524 C496 0.930 . S
H525 C505 0.930 . S
H526 C517 0.929 . S
H527 C520 0.930 . S
H528 C536 0.929 . S
H529 C538 0.930 . S
H530 C540 0.930 . S
H531 C543 0.929 . S
H532 C546 0.930 . S
H533 C548 0.960 . S
H534 C548 0.960 . S
H535 C548 0.960 . S
C536 H528 0.929 . S
C536 C537 1.377 . S
C536 C538 1.384 . S
C537 C536 1.377 . S
C537 C543 1.390 . S
C538 H529 0.930 . S
C538 C536 1.384 . S
C538 C539 1.372 . S
C539 C538 1.372 . S
C539 C540 1.400 . S
C539 C544 1.490 . S
C540 H530 0.930 . S
C540 C539 1.400 . S
C540 C543 1.386 . S
H541 C557 0.930 . S
H542 C558 0.931 . S
C543 H531 0.929 . S
C543 C537 1.390 . S
C543 C540 1.386 . S
C544 C539 1.490 . S
C544 C546 1.395 . S
C544 C547 1.403 . S
H545 C551 0.930 . S
C546 H532 0.930 . S
C546 C544 1.395 . S
C546 C549 1.403 . S
C547 C544 1.403 . S
C547 C548 1.524 . S
C547 C551 1.400 . S
C548 H533 0.960 . S
C548 H534 0.960 . S
C548 H535 0.960 . S
C548 C547 1.524 . S
C549 C546 1.403 . S
C549 C550 1.392 . S
C549 C553 1.495 . S
C550 C549 1.392 . S
C550 C551 1.385 . S
C550 C552 1.478 . S
C551 H545 0.930 . S
C551 C547 1.400 . S
C551 C550 1.385 . S
C552 C550 1.478 . S
C552 C554 1.381 . S
C552 C558 1.383 . S
C553 C549 1.495 . S
C553 H559 0.959 . S
C553 H560 0.961 . S
C553 H561 0.960 . S
C554 C552 1.381 . S
C554 C555 1.394 . S
C554 H562 0.930 . S
C555 C554 1.394 . S
C555 C556 1.383 . S
C555 H563 0.929 . S
C556 C555 1.383 . S
C556 C557 1.377 . S
C557 H541 0.930 . S
C557 C556 1.377 . S
C557 C558 1.379 . S
C558 H542 0.931 . S
C558 C552 1.383 . S
C558 C557 1.379 . S
H559 C553 0.959 . S
H560 C553 0.961 . S
H561 C553 0.960 . S
H562 C554 0.930 . S
H563 C555 0.929 . S
H564 C572 0.929 . S
H565 C574 0.930 . S
H566 C576 0.930 . S
H567 C579 0.929 . S
H568 C582 0.930 . S
H569 C584 0.960 . S
H570 C584 0.960 . S
H571 C584 0.960 . S
C572 H564 0.929 . S
C572 C573 1.377 . S
C572 C574 1.384 . S
C573 C572 1.377 . S
C573 C579 1.390 . S
C574 H565 0.930 . S
C574 C572 1.384 . S
C574 C575 1.372 . S
C575 C574 1.372 . S
C575 C576 1.400 . S
C575 C580 1.490 . S
C576 H566 0.930 . S
C576 C575 1.400 . S
C576 C579 1.386 . S
H577 C593 0.930 . S
H578 C594 0.931 . S
C579 H567 0.929 . S
C579 C573 1.390 . S
C579 C576 1.386 . S
C580 C575 1.490 . S
C580 C582 1.395 . S
C580 C583 1.403 . S
H581 C587 0.930 . S
C582 H568 0.930 . S
C582 C580 1.395 . S
C582 C585 1.403 . S
C583 C580 1.403 . S
C583 C584 1.524 . S
C583 C587 1.400 . S
C584 H569 0.960 . S
C584 H570 0.960 . S
C584 H571 0.960 . S
C584 C583 1.524 . S
C585 C582 1.403 . S
C585 C586 1.392 . S
C585 C589 1.495 . S
C586 C585 1.392 . S
C586 C587 1.385 . S
C586 C588 1.478 . S
C587 H581 0.930 . S
C587 C583 1.400 . S
C587 C586 1.385 . S
C588 C586 1.478 . S
C588 C590 1.381 . S
C588 C594 1.383 . S
C589 C585 1.495 . S
C589 H595 0.959 . S
C589 H596 0.961 . S
C589 H597 0.960 . S
C590 C588 1.381 . S
C590 C591 1.394 . S
C590 H598 0.930 . S
C591 C590 1.394 . S
C591 C592 1.383 . S
C591 H599 0.929 . S
C592 C591 1.383 . S
C592 C593 1.377 . S
C593 H577 0.930 . S
C593 C592 1.377 . S
C593 C594 1.379 . S
C594 H578 0.931 . S
C594 C588 1.383 . S
C594 C593 1.379 . S
H595 C589 0.959 . S
H596 C589 0.961 . S
H597 C589 0.960 . S
H598 C590 0.930 . S
H599 C591 0.929 . S
H600 C608 0.929 . S
H601 C610 0.930 . S
H602 C612 0.930 . S
H603 C615 0.929 . S
H604 C618 0.930 . S
H605 C620 0.960 . S
H606 C620 0.960 . S
H607 C620 0.960 . S
C608 H600 0.929 . S
C608 C609 1.377 . S
C608 C610 1.384 . S
C609 C608 1.377 . S
C609 C615 1.390 . S
C610 H601 0.930 . S
C610 C608 1.384 . S
C610 C611 1.372 . S
C611 C610 1.372 . S
C611 C612 1.400 . S
C611 C616 1.490 . S
C612 H602 0.930 . S
C612 C611 1.400 . S
C612 C615 1.386 . S
H613 C629 0.930 . S
H614 C630 0.931 . S
C615 H603 0.929 . S
C615 C609 1.390 . S
C615 C612 1.386 . S
C616 C611 1.490 . S
C616 C618 1.395 . S
C616 C619 1.403 . S
H617 C623 0.930 . S
C618 H604 0.930 . S
C618 C616 1.395 . S
C618 C621 1.403 . S
C619 C616 1.403 . S
C619 C620 1.524 . S
C619 C623 1.400 . S
C620 H605 0.960 . S
C620 H606 0.960 . S
C620 H607 0.960 . S
C620 C619 1.524 . S
C621 C618 1.403 . S
C621 C622 1.392 . S
C621 C625 1.495 . S
C622 C621 1.392 . S
C622 C623 1.385 . S
C622 C624 1.478 . S
C623 H617 0.930 . S
C623 C619 1.400 . S
C623 C622 1.385 . S
C624 C622 1.478 . S
C624 C626 1.381 . S
C624 C630 1.383 . S
C625 C621 1.495 . S
C625 H631 0.959 . S
C625 H632 0.961 . S
C625 H633 0.960 . S
C626 C624 1.381 . S
C626 C627 1.394 . S
C626 H634 0.930 . S
C627 C626 1.394 . S
C627 C628 1.383 . S
C627 H635 0.929 . S
C628 C627 1.383 . S
C628 C629 1.377 . S
C629 H613 0.930 . S
C629 C628 1.377 . S
C629 C630 1.379 . S
C630 H614 0.931 . S
C630 C624 1.383 . S
C630 C629 1.379 . S
H631 C625 0.959 . S
H632 C625 0.961 . S
H633 C625 0.960 . S
H634 C626 0.930 . S
H635 C627 0.929 . S
H636 C644 0.929 . S
H637 C646 0.930 . S
H638 C648 0.930 . S
H639 C651 0.929 . S
H640 C654 0.930 . S
H641 C656 0.960 . S
H642 C656 0.960 . S
H643 C656 0.960 . S
C644 H636 0.929 . S
C644 C645 1.377 . S
C644 C646 1.384 . S
C645 C644 1.377 . S
C645 C651 1.390 . S
C646 H637 0.930 . S
C646 C644 1.384 . S
C646 C647 1.372 . S
C647 C646 1.372 . S
C647 C648 1.400 . S
C647 C652 1.490 . S
C648 H638 0.930 . S
C648 C647 1.400 . S
C648 C651 1.386 . S
H649 C665 0.930 . S
H650 C666 0.931 . S
C651 H639 0.929 . S
C651 C645 1.390 . S
C651 C648 1.386 . S
C652 C647 1.490 . S
C652 C654 1.395 . S
C652 C655 1.403 . S
H653 C659 0.930 . S
C654 H640 0.930 . S
C654 C652 1.395 . S
C654 C657 1.403 . S
C655 C652 1.403 . S
C655 C656 1.524 . S
C655 C659 1.400 . S
C656 H641 0.960 . S
C656 H642 0.960 . S
C656 H643 0.960 . S
C656 C655 1.524 . S
C657 C654 1.403 . S
C657 C658 1.392 . S
C657 C661 1.495 . S
C658 C657 1.392 . S
C658 C659 1.385 . S
C658 C660 1.478 . S
C659 H653 0.930 . S
C659 C655 1.400 . S
C659 C658 1.385 . S
C660 C658 1.478 . S
C660 C662 1.381 . S
C660 C666 1.383 . S
C661 C657 1.495 . S
C661 H667 0.959 . S
C661 H668 0.961 . S
C661 H669 0.960 . S
C662 C660 1.381 . S
C662 C663 1.394 . S
C662 H670 0.930 . S
C663 C662 1.394 . S
C663 C664 1.383 . S
C663 H671 0.929 . S
C664 C663 1.383 . S
C664 C665 1.377 . S
C665 H649 0.930 . S
C665 C664 1.377 . S
C665 C666 1.379 . S
C666 H650 0.931 . S
C666 C660 1.383 . S
C666 C665 1.379 . S
H667 C661 0.959 . S
H668 C661 0.961 . S
H669 C661 0.960 . S
H670 C662 0.930 . S
H671 C663 0.929 . S
H672 C680 0.929 . S
H673 C682 0.930 . S
H674 C684 0.930 . S
H675 C687 0.929 . S
H676 C690 0.930 . S
H677 C692 0.960 . S
H678 C692 0.960 . S
H679 C692 0.960 . S
C680 H672 0.929 . S
C680 C681 1.377 . S
C680 C682 1.384 . S
C681 C680 1.377 . S
C681 C687 1.390 . S
C682 H673 0.930 . S
C682 C680 1.384 . S
C682 C683 1.372 . S
C683 C682 1.372 . S
C683 C684 1.400 . S
C683 C688 1.490 . S
C684 H674 0.930 . S
C684 C683 1.400 . S
C684 C687 1.386 . S
H685 C701 0.930 . S
H686 C702 0.931 . S
C687 H675 0.929 . S
C687 C681 1.390 . S
C687 C684 1.386 . S
C688 C683 1.490 . S
C688 C690 1.395 . S
C688 C691 1.403 . S
H689 C695 0.930 . S
C690 H676 0.930 . S
C690 C688 1.395 . S
C690 C693 1.403 . S
C691 C688 1.403 . S
C691 C692 1.524 . S
C691 C695 1.400 . S
C692 H677 0.960 . S
C692 H678 0.960 . S
C692 H679 0.960 . S
C692 C691 1.524 . S
C693 C690 1.403 . S
C693 C694 1.392 . S
C693 C697 1.495 . S
C694 C693 1.392 . S
C694 C695 1.385 . S
C694 C696 1.478 . S
C695 H689 0.930 . S
C695 C691 1.400 . S
C695 C694 1.385 . S
C696 C694 1.478 . S
C696 C698 1.381 . S
C696 C702 1.383 . S
C697 C693 1.495 . S
C697 H703 0.959 . S
C697 H704 0.961 . S
C697 H705 0.960 . S
C698 C696 1.381 . S
C698 C699 1.394 . S
C698 H706 0.930 . S
C699 C698 1.394 . S
C699 C700 1.383 . S
C699 H707 0.929 . S
C700 C699 1.383 . S
C700 C701 1.377 . S
C701 H685 0.930 . S
C701 C700 1.377 . S
C701 C702 1.379 . S
C702 H686 0.931 . S
C702 C696 1.383 . S
C702 C701 1.379 . S
H703 C697 0.959 . S
H704 C697 0.961 . S
H705 C697 0.960 . S
H706 C698 0.930 . S
H707 C699 0.929 . S
H708 C716 0.929 . S
H709 C718 0.930 . S
H710 C720 0.930 . S
H711 C723 0.929 . S
H712 C726 0.930 . S
H713 C728 0.960 . S
H714 C728 0.960 . S
H715 C728 0.960 . S
C716 H708 0.929 . S
C716 C717 1.377 . S
C716 C718 1.384 . S
C717 C716 1.377 . S
C717 C723 1.390 . S
C718 H709 0.930 . S
C718 C716 1.384 . S
C718 C719 1.372 . S
C719 C718 1.372 . S
C719 C720 1.400 . S
C719 C724 1.490 . S
C720 H710 0.930 . S
C720 C719 1.400 . S
C720 C723 1.386 . S
H721 C737 0.930 . S
H722 C738 0.931 . S
C723 H711 0.929 . S
C723 C717 1.390 . S
C723 C720 1.386 . S
C724 C719 1.490 . S
C724 C726 1.395 . S
C724 C727 1.403 . S
H725 C731 0.930 . S
C726 H712 0.930 . S
C726 C724 1.395 . S
C726 C729 1.403 . S
C727 C724 1.403 . S
C727 C728 1.524 . S
C727 C731 1.400 . S
C728 H713 0.960 . S
C728 H714 0.960 . S
C728 H715 0.960 . S
C728 C727 1.524 . S
C729 C726 1.403 . S
C729 C730 1.392 . S
C729 C733 1.495 . S
C730 C729 1.392 . S
C730 C731 1.385 . S
C730 C732 1.478 . S
C731 H725 0.930 . S
C731 C727 1.400 . S
C731 C730 1.385 . S
C732 C730 1.478 . S
C732 C734 1.381 . S
C732 C738 1.383 . S
C733 C729 1.495 . S
C733 H739 0.959 . S
C733 H740 0.961 . S
C733 H741 0.960 . S
C734 C732 1.381 . S
C734 C735 1.394 . S
C734 H742 0.930 . S
C735 C734 1.394 . S
C735 C736 1.383 . S
C735 H743 0.929 . S
C736 C735 1.383 . S
C736 C737 1.377 . S
C737 H721 0.930 . S
C737 C736 1.377 . S
C737 C738 1.379 . S
C738 H722 0.931 . S
C738 C732 1.383 . S
C738 C737 1.379 . S
H739 C733 0.959 . S
H740 C733 0.961 . S
H741 C733 0.960 . S
H742 C734 0.930 . S
H743 C735 0.929 . S
H744 C752 0.929 . S
H745 C754 0.930 . S
H746 C756 0.930 . S
H747 C759 0.929 . S
H748 C762 0.930 . S
H749 C764 0.960 . S
H750 C764 0.960 . S
H751 C764 0.960 . S
C752 H744 0.929 . S
C752 C753 1.377 . S
C752 C754 1.384 . S
C753 C752 1.377 . S
C753 C759 1.390 . S
C754 H745 0.930 . S
C754 C752 1.384 . S
C754 C755 1.372 . S
C755 C754 1.372 . S
C755 C756 1.400 . S
C755 C760 1.490 . S
C756 H746 0.930 . S
C756 C755 1.400 . S
C756 C759 1.386 . S
H757 C773 0.930 . S
H758 C774 0.931 . S
C759 H747 0.929 . S
C759 C753 1.390 . S
C759 C756 1.386 . S
C760 C755 1.490 . S
C760 C762 1.395 . S
C760 C763 1.403 . S
H761 C767 0.930 . S
C762 H748 0.930 . S
C762 C760 1.395 . S
C762 C765 1.403 . S
C763 C760 1.403 . S
C763 C764 1.524 . S
C763 C767 1.400 . S
C764 H749 0.960 . S
C764 H750 0.960 . S
C764 H751 0.960 . S
C764 C763 1.524 . S
C765 C762 1.403 . S
C765 C766 1.392 . S
C765 C769 1.495 . S
C766 C765 1.392 . S
C766 C767 1.385 . S
C766 C768 1.478 . S
C767 H761 0.930 . S
C767 C763 1.400 . S
C767 C766 1.385 . S
C768 C766 1.478 . S
C768 C770 1.381 . S
C768 C774 1.383 . S
C769 C765 1.495 . S
C769 H775 0.959 . S
C769 H776 0.961 . S
C769 H777 0.960 . S
C770 C768 1.381 . S
C770 C771 1.394 . S
C770 H778 0.930 . S
C771 C770 1.394 . S
C771 C772 1.383 . S
C771 H779 0.929 . S
C772 C771 1.383 . S
C772 C773 1.377 . S
C773 H757 0.930 . S
C773 C772 1.377 . S
C773 C774 1.379 . S
C774 H758 0.931 . S
C774 C768 1.383 . S
C774 C773 1.379 . S
H775 C769 0.959 . S
H776 C769 0.961 . S
H777 C769 0.960 . S
H778 C770 0.930 . S
H779 C771 0.929 . S
H780 C788 0.929 . S
H781 C790 0.930 . S
H782 C792 0.930 . S
H783 C795 0.929 . S
H784 C798 0.930 . S
H785 C800 0.960 . S
H786 C800 0.960 . S
H787 C800 0.960 . S
C788 H780 0.929 . S
C788 C789 1.377 . S
C788 C790 1.384 . S
C789 C788 1.377 . S
C789 C795 1.390 . S
C790 H781 0.930 . S
C790 C788 1.384 . S
C790 C791 1.372 . S
C791 C790 1.372 . S
C791 C792 1.400 . S
C791 C796 1.490 . S
C792 H782 0.930 . S
C792 C791 1.400 . S
C792 C795 1.386 . S
H793 C809 0.930 . S
H794 C810 0.931 . S
C795 H783 0.929 . S
C795 C789 1.390 . S
C795 C792 1.386 . S
C796 C791 1.490 . S
C796 C798 1.395 . S
C796 C799 1.403 . S
H797 C803 0.930 . S
C798 H784 0.930 . S
C798 C796 1.395 . S
C798 C801 1.403 . S
C799 C796 1.403 . S
C799 C800 1.524 . S
C799 C803 1.400 . S
C800 H785 0.960 . S
C800 H786 0.960 . S
C800 H787 0.960 . S
C800 C799 1.524 . S
C801 C798 1.403 . S
C801 C802 1.392 . S
C801 C805 1.495 . S
C802 C801 1.392 . S
C802 C803 1.385 . S
C802 C804 1.478 . S
C803 H797 0.930 . S
C803 C799 1.400 . S
C803 C802 1.385 . S
C804 C802 1.478 . S
C804 C806 1.381 . S
C804 C810 1.383 . S
C805 C801 1.495 . S
C805 H811 0.959 . S
C805 H812 0.961 . S
C805 H813 0.960 . S
C806 C804 1.381 . S
C806 C807 1.394 . S
C806 H814 0.930 . S
C807 C806 1.394 . S
C807 C808 1.383 . S
C807 H815 0.929 . S
C808 C807 1.383 . S
C808 C809 1.377 . S
C809 H793 0.930 . S
C809 C808 1.377 . S
C809 C810 1.379 . S
C810 H794 0.931 . S
C810 C804 1.383 . S
C810 C809 1.379 . S
H811 C805 0.959 . S
H812 C805 0.961 . S
H813 C805 0.960 . S
H814 C806 0.930 . S
H815 C807 0.929 . S
H816 C824 0.929 . S
H817 C826 0.930 . S
H818 C828 0.930 . S
H819 C831 0.929 1_545 S
H820 C834 0.930 . S
H821 C836 0.960 . S
H822 C836 0.960 . S
H823 C836 0.960 . S
C824 H816 0.929 . S
C824 C825 1.377 . S
C824 C826 1.384 . S
C825 C824 1.377 . S
C825 C831 1.390 . S
C826 H817 0.930 . S
C826 C824 1.384 . S
C826 C827 1.372 . S
C827 C826 1.372 . S
C827 C828 1.400 1_565 S
C827 C832 1.490 . S
C828 H818 0.930 . S
C828 C827 1.400 1_545 S
C828 C831 1.386 1_545 S
H829 C845 0.930 . S
H830 C846 0.931 . S
C831 H819 0.929 1_565 S
C831 C825 1.390 . S
C831 C828 1.386 1_565 S
C832 C827 1.490 . S
C832 C834 1.395 1_565 S
C832 C835 1.403 1_556 S
H833 C839 0.930 . S
C834 H820 0.930 . S
C834 C832 1.395 1_545 S
C834 C837 1.403 . S
C835 C832 1.403 1_554 S
C835 C836 1.524 . S
C835 C839 1.400 . S
C836 H821 0.960 . S
C836 H822 0.960 . S
C836 H823 0.960 . S
C836 C835 1.524 . S
C837 C834 1.403 . S
C837 C838 1.392 1_556 S
C837 C841 1.495 . S
C838 C837 1.392 1_554 S
C838 C839 1.385 1_545 S
C838 C840 1.478 . S
C839 H833 0.930 . S
C839 C835 1.400 . S
C839 C838 1.385 1_565 S
C840 C838 1.478 . S
C840 C842 1.381 1_545 S
C840 C846 1.383 . S
C841 C837 1.495 . S
C841 H847 0.959 . S
C841 H848 0.961 . S
C841 H849 0.960 . S
C842 C840 1.381 1_565 S
C842 C843 1.391 1_565 S
C842 H850 0.930 . S
C843 C842 1.391 1_545 S
C843 C844 1.402 . S
C843 H851 0.914 1_545 S
C844 C843 1.402 . S
C844 C845 1.377 . S
C845 H829 0.930 . S
C845 C844 1.377 . S
C845 C846 1.379 . S
C846 H830 0.931 . S
C846 C840 1.383 . S
C846 C845 1.379 . S
H847 C841 0.959 . S
H848 C841 0.961 . S
H849 C841 0.960 . S
H850 C842 0.930 . S
H851 C843 0.914 1_565 S
H852 C860 0.929 . S
H853 C862 0.930 . S
H854 C864 0.930 . S
H855 C867 0.929 . S
H856 C870 0.930 . S
H857 C872 0.960 . S
H858 C872 0.960 . S
H859 C872 0.960 . S
C860 H852 0.929 . S
C860 C861 1.377 . S
C860 C862 1.384 . S
C861 C860 1.377 . S
C861 C867 1.390 . S
C862 H853 0.930 . S
C862 C860 1.384 . S
C862 C863 1.372 . S
C863 C862 1.372 . S
C863 C864 1.400 . S
C863 C868 1.490 . S
C864 H854 0.930 . S
C864 C863 1.400 . S
C864 C867 1.386 . S
H865 C881 0.930 . S
H866 C882 0.931 . S
C867 H855 0.929 . S
C867 C861 1.390 . S
C867 C864 1.386 . S
C868 C863 1.490 . S
C868 C870 1.395 1_556 S
C868 C871 1.403 . S
H869 C875 0.930 . S
C870 H856 0.930 . S
C870 C868 1.395 1_554 S
C870 C873 1.403 . S
C871 C868 1.403 . S
C871 C872 1.524 . S
C871 C875 1.400 . S
C872 H857 0.960 . S
C872 H858 0.960 . S
C872 H859 0.960 . S
C872 C871 1.524 . S
C873 C870 1.403 . S
C873 C874 1.392 . S
C873 C877 1.495 . S
C874 C873 1.392 . S
C874 C875 1.385 1_554 S
C874 C876 1.478 . S
C875 H869 0.930 . S
C875 C871 1.400 . S
C875 C874 1.385 1_556 S
C876 C874 1.478 . S
C876 C878 1.381 . S
C876 C882 1.383 . S
C877 C873 1.495 . S
C877 H883 0.959 . S
C877 H884 0.961 . S
C877 H885 0.960 . S
C878 C876 1.381 . S
C878 C879 1.394 . S
C878 H886 0.930 . S
C879 C878 1.394 . S
C879 C880 1.383 . S
C879 H887 0.929 . S
C880 C879 1.383 . S
C880 C881 1.377 . S
C881 H865 0.930 . S
C881 C880 1.377 . S
C881 C882 1.379 . S
C882 H866 0.931 . S
C882 C876 1.383 . S
C882 C881 1.379 . S
H883 C877 0.959 . S
H884 C877 0.961 . S
H885 C877 0.960 . S
H886 C878 0.930 . S
H887 C879 0.929 . S
H888 C896 0.929 . S
H889 C898 0.930 . S
H890 C900 0.930 . S
H891 C903 0.929 . S
H892 C906 0.930 . S
H893 C908 0.960 . S
H894 C908 0.960 . S
H895 C908 0.960 . S
C896 H888 0.929 . S
C896 C897 1.377 . S
C896 C898 1.384 . S
C897 C896 1.377 . S
C897 C903 1.390 . S
C898 H889 0.930 . S
C898 C896 1.384 . S
C898 C899 1.372 . S
C899 C898 1.372 . S
C899 C900 1.400 . S
C899 C904 1.490 . S
C900 H890 0.930 . S
C900 C899 1.400 . S
C900 C903 1.386 . S
H901 C917 0.930 . S
H902 C918 0.931 . S
C903 H891 0.929 . S
C903 C897 1.390 . S
C903 C900 1.386 . S
C904 C899 1.490 . S
C904 C906 1.395 1_556 S
C904 C907 1.403 1_455 S
H905 C911 0.930 . S
C906 H892 0.930 . S
C906 C904 1.395 1_554 S
C906 C909 1.403 . S
C907 C904 1.403 1_655 S
C907 C908 1.524 . S
C907 C911 1.400 . S
C908 H893 0.960 . S
C908 H894 0.960 . S
C908 H895 0.960 . S
C908 C907 1.524 . S
C909 C906 1.403 . S
C909 C910 1.392 1_455 S
C909 C913 1.495 . S
C910 C909 1.392 1_655 S
C910 C911 1.385 1_554 S
C910 C912 1.478 . S
C911 H905 0.930 . S
C911 C907 1.400 . S
C911 C910 1.385 1_556 S
C912 C910 1.478 . S
C912 C914 1.381 . S
C912 C918 1.383 . S
C913 C909 1.495 . S
C913 H919 0.959 . S
C913 H920 0.961 . S
C913 H921 0.960 . S
C914 C912 1.381 . S
C914 C915 1.394 . S
C914 H922 0.930 . S
C915 C914 1.394 . S
C915 C916 1.383 . S
C915 H923 0.929 . S
C916 C915 1.383 . S
C916 C917 1.377 . S
C917 H901 0.930 . S
C917 C916 1.377 . S
C917 C918 1.379 . S
C918 H902 0.931 . S
C918 C912 1.383 . S
C918 C917 1.379 . S
H919 C913 0.959 . S
H920 C913 0.961 . S
H921 C913 0.960 . S
H922 C914 0.930 . S
H923 C915 0.929 . S
H924 C932 0.929 . S
H925 C934 0.930 . S
H926 C936 0.930 . S
H927 C939 0.929 . S
H928 C942 0.930 . S
H929 C944 0.960 . S
H930 C944 0.960 1_655 S
H931 C944 0.960 . S
C932 H924 0.929 . S
C932 C933 1.377 . S
C932 C934 1.384 . S
C933 C932 1.377 . S
C933 C939 1.390 1_655 S
C934 H925 0.930 . S
C934 C932 1.384 . S
C934 C935 1.372 . S
C935 C934 1.372 . S
C935 C936 1.400 1_655 S
C935 C940 1.490 . S
C936 H926 0.930 . S
C936 C935 1.400 1_455 S
C936 C939 1.386 . S
H937 C953 0.930 . S
H938 C954 0.931 . S
C939 H927 0.929 . S
C939 C933 1.390 1_455 S
C939 C936 1.386 . S
C940 C935 1.490 . S
C940 C942 1.395 1_545 S
C940 C943 1.403 1_656 S
H941 C947 0.931 1_545 S
C942 H928 0.930 . S
C942 C940 1.395 1_565 S
C942 C945 1.403 . S
C943 C940 1.403 1_454 S
C943 C944 1.524 . S
C943 C947 1.403 1_545 S
C944 H929 0.960 . S
C944 H930 0.960 1_455 S
C944 H931 0.960 . S
C944 C943 1.524 . S
C945 C942 1.403 . S
C945 C946 1.392 1_656 S
C945 C949 1.495 . S
C946 C945 1.392 1_454 S
C946 C947 1.382 . S
C946 C948 1.478 . S
C947 H941 0.931 1_565 S
C947 C943 1.403 1_565 S
C947 C946 1.382 . S
C948 C946 1.478 . S
C948 C950 1.381 1_455 S
C948 C954 1.383 . S
C949 C945 1.495 . S
C949 H955 0.959 . S
C949 H956 0.961 1_655 S
C949 H957 0.960 . S
C950 C948 1.381 1_655 S
C950 C951 1.394 . S
C950 H958 0.930 . S
C951 C950 1.394 . S
C951 C952 1.383 1_655 S
C951 H959 0.929 . S
C952 C951 1.383 1_455 S
C952 C953 1.377 . S
C953 H937 0.930 . S
C953 C952 1.377 . S
C953 C954 1.379 . S
C954 H938 0.931 . S
C954 C948 1.383 . S
C954 C953 1.379 . S
H955 C949 0.959 . S
H956 C949 0.961 1_455 S
H957 C949 0.960 . S
H958 C950 0.930 . S
H959 C951 0.929 . S
H960 C968 0.929 . S
H961 C970 0.930 . S
H962 C972 0.930 . S
H963 C975 0.929 . S
H964 C978 0.930 . S
H965 C980 0.960 . S
H966 C980 0.960 . S
H967 C980 0.960 . S
C968 H960 0.929 . S
C968 C969 1.377 . S
C968 C970 1.384 . S
C969 C968 1.377 . S
C969 C975 1.390 . S
C970 H961 0.930 . S
C970 C968 1.384 . S
C970 C971 1.372 . S
C971 C970 1.372 . S
C971 C972 1.400 . S
C971 C976 1.490 . S
C972 H962 0.930 . S
C972 C971 1.400 . S
C972 C975 1.386 . S
H973 C989 0.930 . S
H974 C990 0.931 . S
C975 H963 0.929 . S
C975 C969 1.390 . S
C975 C972 1.386 . S
C976 C971 1.490 . S
C976 C978 1.395 . S
C976 C979 1.403 . S
H977 C983 0.930 . S
C978 H964 0.930 . S
C978 C976 1.395 . S
C978 C981 1.403 . S
C979 C976 1.403 . S
C979 C980 1.524 . S
C979 C983 1.400 . S
C980 H965 0.960 . S
C980 H966 0.960 . S
C980 H967 0.960 . S
C980 C979 1.524 . S
C981 C978 1.403 . S
C981 C982 1.392 . S
C981 C985 1.495 . S
C982 C981 1.392 . S
C982 C983 1.385 . S
C982 C984 1.478 . S
C983 H977 0.930 . S
C983 C979 1.400 . S
C983 C982 1.385 . S
C984 C982 1.478 . S
C984 C986 1.381 . S
C984 C990 1.383 . S
C985 C981 1.495 . S
C985 H991 0.959 . S
C985 H992 0.961 . S
C985 H993 0.960 . S
C986 C984 1.381 . S
C986 C987 1.394 . S
C986 H994 0.930 . S
C987 C986 1.394 . S
C987 C988 1.383 . S
C987 H995 0.929 . S
C988 C987 1.383 . S
C988 C989 1.377 . S
C989 H973 0.930 . S
C989 C988 1.377 . S
C989 C990 1.379 . S
C990 H974 0.931 . S
C990 C984 1.383 . S
C990 C989 1.379 . S
H991 C985 0.959 . S
H992 C985 0.961 . S
H993 C985 0.960 . S
H994 C986 0.930 . S
H995 C987 0.929 . S
H996 C1004 0.929 . S
H997 C1006 0.930 . S
H998 C1008 0.930 . S
H999 C1011 0.929 . S
H1000 C1014 0.930 . S
H1001 C1016 0.960 . S
H1002 C1016 0.960 . S
H1003 C1016 0.960 . S
C1004 H996 0.929 . S
C1004 C1005 1.377 . S
C1004 C1006 1.384 . S
C1005 C1004 1.377 . S
C1005 C1011 1.390 . S
C1006 H997 0.930 . S
C1006 C1004 1.384 . S
C1006 C1007 1.372 . S
C1007 C1006 1.372 . S
C1007 C1008 1.400 . S
C1007 C1012 1.490 . S
C1008 H998 0.930 . S
C1008 C1007 1.400 . S
C1008 C1011 1.386 . S
H1009 C1025 0.930 . S
H1010 C1026 0.931 1_655 S
C1011 H999 0.929 . S
C1011 C1005 1.390 . S
C1011 C1008 1.386 . S
C1012 C1007 1.490 . S
C1012 C1014 1.395 . S
C1012 C1015 1.403 1_655 S
H1013 C1019 0.930 . S
C1014 H1000 0.930 . S
C1014 C1012 1.395 . S
C1014 C1017 1.403 . S
C1015 C1012 1.403 1_455 S
C1015 C1016 1.524 . S
C1015 C1019 1.400 . S
C1016 H1001 0.960 . S
C1016 H1002 0.960 . S
C1016 H1003 0.960 . S
C1016 C1015 1.524 . S
C1017 C1014 1.403 . S
C1017 C1018 1.392 1_655 S
C1017 C1021 1.495 . S
C1018 C1017 1.392 1_455 S
C1018 C1019 1.385 . S
C1018 C1020 1.478 . S
C1019 H1013 0.930 . S
C1019 C1015 1.400 . S
C1019 C1018 1.385 . S
C1020 C1018 1.478 . S
C1020 C1022 1.381 . S
C1020 C1026 1.383 . S
C1021 C1017 1.495 . S
C1021 H1027 0.959 . S
C1021 H1028 0.961 . S
C1021 H1029 0.960 . S
C1022 C1020 1.381 . S
C1022 C1023 1.394 . S
C1022 H1030 0.930 . S
C1023 C1022 1.394 . S
C1023 C1024 1.383 . S
C1023 H1031 0.929 . S
C1024 C1023 1.383 . S
C1024 C1025 1.377 . S
C1025 H1009 0.930 . S
C1025 C1024 1.377 . S
C1025 C1026 1.379 . S
C1026 H1010 0.931 1_455 S
C1026 C1020 1.383 . S
C1026 C1025 1.379 . S
H1027 C1021 0.959 . S
H1028 C1021 0.961 . S
H1029 C1021 0.960 . S
H1030 C1022 0.930 . S
H1031 C1023 0.929 . S
H1032 C1040 0.929 . S
H1033 C1042 0.930 . S
H1034 C1044 0.930 . S
H1035 C1047 0.929 . S
H1036 C1050 0.930 . S
H1037 C1052 0.960 . S
H1038 C1052 0.960 1_565 S
H1039 C1052 0.960 . S
C1040 H1032 0.929 . S
C1040 C1041 1.377 1_565 S
C1040 C1042 1.384 . S
C1041 C1040 1.377 1_545 S
C1041 C1047 1.390 . S
C1042 H1033 0.930 . S
C1042 C1040 1.384 . S
C1042 C1043 1.372 1_565 S
C1043 C1042 1.372 1_545 S
C1043 C1044 1.400 . S
C1043 C1048 1.490 . S
C1044 H1034 0.930 . S
C1044 C1043 1.400 . S
C1044 C1047 1.386 . S
H1045 C1061 0.930 . S
H1046 C1062 0.931 . S
C1047 H1035 0.929 . S
C1047 C1041 1.390 . S
C1047 C1044 1.386 . S
C1048 C1043 1.490 . S
C1048 C1050 1.395 1_645 S
C1048 C1051 1.403 . S
H1049 C1055 0.929 1_655 S
C1050 H1036 0.930 . S
C1050 C1048 1.395 1_465 S
C1050 C1053 1.403 . S
C1051 C1048 1.403 . S
C1051 C1052 1.524 . S
C1051 C1055 1.374 1_645 S
C1052 H1037 0.960 . S
C1052 H1038 0.960 1_545 S
C1052 H1039 0.960 . S
C1052 C1051 1.524 . S
C1053 C1050 1.403 . S
C1053 C1054 1.392 . S
C1053 C1057 1.495 . S
C1054 C1053 1.392 . S
C1054 C1055 1.414 . S
C1054 C1056 1.478 . S
C1055 H1049 0.929 1_455 S
C1055 C1051 1.374 1_465 S
C1055 C1054 1.414 . S
C1056 C1054 1.478 . S
C1056 C1058 1.381 . S
C1056 C1062 1.383 1_565 S
C1057 C1053 1.495 . S
C1057 H1063 0.959 . S
C1057 H1064 0.959 1_565 S
C1057 H1065 0.960 . S
C1058 C1056 1.381 . S
C1058 C1059 1.394 . S
C1058 H1066 0.930 . S
C1059 C1058 1.394 . S
C1059 C1060 1.383 . S
C1059 H1067 0.929 . S
C1060 C1059 1.383 . S
C1060 C1061 1.377 1_565 S
C1061 H1045 0.930 . S
C1061 C1060 1.377 1_545 S
C1061 C1062 1.379 . S
C1062 H1046 0.931 . S
C1062 C1056 1.383 1_545 S
C1062 C1061 1.379 . S
H1063 C1057 0.959 . S
H1064 C1057 0.959 1_545 S
H1065 C1057 0.960 . S
H1066 C1058 0.930 . S
H1067 C1059 0.929 . S
H1068 C1076 0.929 . S
H1069 C1078 0.930 . S
H1070 C1080 0.930 . S
H1071 C1083 0.929 . S
H1072 C1086 0.930 . S
H1073 C1088 0.960 . S
H1074 C1088 0.960 . S
H1075 C1088 0.960 . S
C1076 H1068 0.929 . S
C1076 C1077 1.377 . S
C1076 C1078 1.384 . S
C1077 C1076 1.377 . S
C1077 C1083 1.390 . S
C1078 H1069 0.930 . S
C1078 C1076 1.384 . S
C1078 C1079 1.372 . S
C1079 C1078 1.372 . S
C1079 C1080 1.400 . S
C1079 C1084 1.490 . S
C1080 H1070 0.930 . S
C1080 C1079 1.400 . S
C1080 C1083 1.386 . S
H1081 C1097 0.930 . S
H1082 C1098 0.931 . S
C1083 H1071 0.929 . S
C1083 C1077 1.390 . S
C1083 C1080 1.386 . S
C1084 C1079 1.490 . S
C1084 C1086 1.395 1_565 S
C1084 C1087 1.403 . S
H1085 C1091 0.930 . S
C1086 H1072 0.930 . S
C1086 C1084 1.395 1_545 S
C1086 C1089 1.403 . S
C1087 C1084 1.403 . S
C1087 C1088 1.524 . S
C1087 C1091 1.400 1_565 S
C1088 H1073 0.960 . S
C1088 H1074 0.960 . S
C1088 H1075 0.960 . S
C1088 C1087 1.524 . S
C1089 C1086 1.403 . S
C1089 C1090 1.392 . S
C1089 C1093 1.495 . S
C1090 C1089 1.392 . S
C1090 C1091 1.385 . S
C1090 C1092 1.478 . S
C1091 H1085 0.930 . S
C1091 C1087 1.400 1_545 S
C1091 C1090 1.385 . S
C1092 C1090 1.478 . S
C1092 C1094 1.381 . S
C1092 C1098 1.383 . S
C1093 C1089 1.495 . S
C1093 H1099 0.959 . S
C1093 H1100 0.961 . S
C1093 H1101 0.960 . S
C1094 C1092 1.381 . S
C1094 C1095 1.394 . S
C1094 H1102 0.930 . S
C1095 C1094 1.394 . S
C1095 C1096 1.383 . S
C1095 H1103 0.929 . S
C1096 C1095 1.383 . S
C1096 C1097 1.377 . S
C1097 H1081 0.930 . S
C1097 C1096 1.377 . S
C1097 C1098 1.379 . S
C1098 H1082 0.931 . S
C1098 C1092 1.383 . S
C1098 C1097 1.379 . S
H1099 C1093 0.959 . S
H1100 C1093 0.961 . S
H1101 C1093 0.960 . S
H1102 C1094 0.930 . S
H1103 C1095 0.929 . S
H1104 C1112 0.929 . S
H1105 C1114 0.930 . S
H1106 C1116 0.930 . S
H1107 C1119 0.929 . S
H1108 C1122 0.930 . S
H1109 C1124 0.960 . S
H1110 C1124 0.960 . S
H1111 C1124 0.960 . S
C1112 H1104 0.929 . S
C1112 C1113 1.377 . S
C1112 C1114 1.384 . S
C1113 C1112 1.377 . S
C1113 C1119 1.390 . S
C1114 H1105 0.930 . S
C1114 C1112 1.384 . S
C1114 C1115 1.372 . S
C1115 C1114 1.372 . S
C1115 C1116 1.400 . S
C1115 C1120 1.490 . S
C1116 H1106 0.930 . S
C1116 C1115 1.400 . S
C1116 C1119 1.386 . S
H1117 C1133 0.930 . S
H1118 C1134 0.931 . S
C1119 H1107 0.929 . S
C1119 C1113 1.390 . S
C1119 C1116 1.386 . S
C1120 C1115 1.490 . S
C1120 C1122 1.395 . S
C1120 C1123 1.403 1_556 S
H1121 C1127 0.930 . S
C1122 H1108 0.930 . S
C1122 C1120 1.395 . S
C1122 C1125 1.403 1_556 S
C1123 C1120 1.403 1_554 S
C1123 C1124 1.524 . S
C1123 C1127 1.400 . S
C1124 H1109 0.960 . S
C1124 H1110 0.960 . S
C1124 H1111 0.960 . S
C1124 C1123 1.524 . S
C1125 C1122 1.403 1_554 S
C1125 C1126 1.392 . S
C1125 C1129 1.495 1_554 S
C1126 C1125 1.392 . S
C1126 C1127 1.385 . S
C1126 C1128 1.478 . S
C1127 H1121 0.930 . S
C1127 C1123 1.400 . S
C1127 C1126 1.385 . S
C1128 C1126 1.478 . S
C1128 C1130 1.381 . S
C1128 C1134 1.383 . S
C1129 C1125 1.495 1_556 S
C1129 H1135 0.959 . S
C1129 H1136 0.961 . S
C1129 H1137 0.952 1_556 S
C1130 C1128 1.381 . S
C1130 C1131 1.394 . S
C1130 H1138 0.930 . S
C1131 C1130 1.394 . S
C1131 C1132 1.383 . S
C1131 H1139 0.929 . S
C1132 C1131 1.383 . S
C1132 C1133 1.377 . S
C1133 H1117 0.930 . S
C1133 C1132 1.377 . S
C1133 C1134 1.379 . S
C1134 H1118 0.931 . S
C1134 C1128 1.383 . S
C1134 C1133 1.379 . S
H1135 C1129 0.959 . S
H1136 C1129 0.961 . S
H1137 C1129 0.952 1_554 S
H1138 C1130 0.930 . S
H1139 C1131 0.929 . S
H1140 C1148 0.929 . S
H1141 C1150 0.930 . S
H1142 C1152 0.930 . S
H1143 C1155 0.929 . S
H1144 C1158 0.930 . S
H1145 C1160 0.960 . S
H1146 C1160 0.960 . S
H1147 C1160 0.960 . S
C1148 H1140 0.929 . S
C1148 C1149 1.377 . S
C1148 C1150 1.384 . S
C1149 C1148 1.377 . S
C1149 C1155 1.390 . S
C1150 H1141 0.930 . S
C1150 C1148 1.384 . S
C1150 C1151 1.372 . S
C1151 C1150 1.372 . S
C1151 C1152 1.400 . S
C1151 C1156 1.490 . S
C1152 H1142 0.930 . S
C1152 C1151 1.400 . S
C1152 C1155 1.386 . S
H1153 C1169 0.930 . S
H1154 C1170 0.931 . S
C1155 H1143 0.929 . S
C1155 C1149 1.390 . S
C1155 C1152 1.386 . S
C1156 C1151 1.490 . S
C1156 C1158 1.395 . S
C1156 C1159 1.403 1_556 S
H1157 C1163 0.930 . S
C1158 H1144 0.930 . S
C1158 C1156 1.395 . S
C1158 C1161 1.381 1_556 S
C1159 C1156 1.403 1_554 S
C1159 C1160 1.524 . S
C1159 C1163 1.400 . S
C1160 H1145 0.960 . S
C1160 H1146 0.960 . S
C1160 H1147 0.960 . S
C1160 C1159 1.524 . S
C1161 C1158 1.381 1_554 S
C1161 C1162 1.434 . S
C1161 C1165 1.477 1_554 S
C1162 C1161 1.434 . S
C1162 C1163 1.385 . S
C1162 C1164 1.478 . S
C1163 H1157 0.930 . S
C1163 C1159 1.400 . S
C1163 C1162 1.385 . S
C1164 C1162 1.478 . S
C1164 C1166 1.381 . S
C1164 C1170 1.383 . S
C1165 C1161 1.477 1_556 S
C1165 H1171 0.959 . S
C1165 H1172 0.961 . S
C1165 H1173 0.960 . S
C1166 C1164 1.381 . S
C1166 C1167 1.394 . S
C1166 H1174 0.930 . S
C1167 C1166 1.394 . S
C1167 C1168 1.383 . S
C1167 H1175 0.929 . S
C1168 C1167 1.383 . S
C1168 C1169 1.377 . S
C1169 H1153 0.930 . S
C1169 C1168 1.377 . S
C1169 C1170 1.379 . S
C1170 H1154 0.931 . S
C1170 C1164 1.383 . S
C1170 C1169 1.379 . S
H1171 C1165 0.959 . S
H1172 C1165 0.961 . S
H1173 C1165 0.960 . S
H1174 C1166 0.930 . S
H1175 C1167 0.929 . S
H1176 C1184 0.929 . S
H1177 C1186 0.930 . S
H1178 C1188 0.930 . S
H1179 C1191 0.929 . S
H1180 C1194 0.930 . S
H1181 C1196 0.960 . S
H1182 C1196 0.960 . S
H1183 C1196 0.960 . S
C1184 H1176 0.929 . S
C1184 C1185 1.377 . S
C1184 C1186 1.384 . S
C1185 C1184 1.377 . S
C1185 C1191 1.390 . S
C1186 H1177 0.930 . S
C1186 C1184 1.384 . S
C1186 C1187 1.372 . S
C1187 C1186 1.372 . S
C1187 C1188 1.400 . S
C1187 C1192 1.490 . S
C1188 H1178 0.930 . S
C1188 C1187 1.400 . S
C1188 C1191 1.386 . S
H1189 C1205 0.930 . S
H1190 C1206 0.931 . S
C1191 H1179 0.929 . S
C1191 C1185 1.390 . S
C1191 C1188 1.386 . S
C1192 C1187 1.490 . S
C1192 C1194 1.395 1_556 S
C1192 C1195 1.403 . S
H1193 C1199 0.930 . S
C1194 H1180 0.930 . S
C1194 C1192 1.395 1_554 S
C1194 C1197 1.403 . S
C1195 C1192 1.403 . S
C1195 C1196 1.524 . S
C1195 C1199 1.400 1_556 S
C1196 H1181 0.960 . S
C1196 H1182 0.960 . S
C1196 H1183 0.960 . S
C1196 C1195 1.524 . S
C1197 C1194 1.403 . S
C1197 C1198 1.392 . S
C1197 C1201 1.495 . S
C1198 C1197 1.392 . S
C1198 C1199 1.385 . S
C1198 C1200 1.478 . S
C1199 H1193 0.930 . S
C1199 C1195 1.400 1_554 S
C1199 C1198 1.385 . S
C1200 C1198 1.478 . S
C1200 C1202 1.381 . S
C1200 C1206 1.383 . S
C1201 C1197 1.495 . S
C1201 H1207 0.959 . S
C1201 H1208 0.961 . S
C1201 H1209 0.960 . S
C1202 C1200 1.381 . S
C1202 C1203 1.394 . S
C1202 H1210 0.930 . S
C1203 C1202 1.394 . S
C1203 C1204 1.383 . S
C1203 H1211 0.929 . S
C1204 C1203 1.383 . S
C1204 C1205 1.377 . S
C1205 H1189 0.930 . S
C1205 C1204 1.377 . S
C1205 C1206 1.379 . S
C1206 H1190 0.931 . S
C1206 C1200 1.383 . S
C1206 C1205 1.379 . S
H1207 C1201 0.959 . S
H1208 C1201 0.961 . S
H1209 C1201 0.960 . S
H1210 C1202 0.930 . S
H1211 C1203 0.929 . S
H1212 C1220 0.929 . S
H1213 C1222 0.930 . S
H1214 C1224 0.930 . S
H1215 C1227 0.929 . S
H1216 C1230 0.930 . S
H1217 C1232 0.960 . S
H1218 C1232 0.960 . S
H1219 C1232 0.960 . S
C1220 H1212 0.929 . S
C1220 C1221 1.377 . S
C1220 C1222 1.384 . S
C1221 C1220 1.377 . S
C1221 C1227 1.390 . S
C1222 H1213 0.930 . S
C1222 C1220 1.384 . S
C1222 C1223 1.372 . S
C1223 C1222 1.372 . S
C1223 C1224 1.400 . S
C1223 C1228 1.490 . S
C1224 H1214 0.930 . S
C1224 C1223 1.400 . S
C1224 C1227 1.386 . S
H1225 C1241 0.930 . S
H1226 C1242 0.931 . S
C1227 H1215 0.929 . S
C1227 C1221 1.390 . S
C1227 C1224 1.386 . S
C1228 C1223 1.490 . S
C1228 C1230 1.395 . S
C1228 C1231 1.403 1_556 S
H1229 C1235 0.930 . S
C1230 H1216 0.930 . S
C1230 C1228 1.395 . S
C1230 C1233 1.403 1_556 S
C1231 C1228 1.403 1_554 S
C1231 C1232 1.524 . S
C1231 C1235 1.400 . S
C1232 H1217 0.960 . S
C1232 H1218 0.960 . S
C1232 H1219 0.960 . S
C1232 C1231 1.524 . S
C1233 C1230 1.403 1_554 S
C1233 C1234 1.392 . S
C1233 C1237 1.495 1_554 S
C1234 C1233 1.392 . S
C1234 C1235 1.385 . S
C1234 C1236 1.478 . S
C1235 H1229 0.930 . S
C1235 C1231 1.400 . S
C1235 C1234 1.385 . S
C1236 C1234 1.478 . S
C1236 C1238 1.381 . S
C1236 C1242 1.383 . S
C1237 C1233 1.495 1_556 S
C1237 H1243 0.959 . S
C1237 H1244 0.961 . S
C1237 H1245 0.960 . S
C1238 C1236 1.381 . S
C1238 C1239 1.394 . S
C1238 H1246 0.930 . S
C1239 C1238 1.394 . S
C1239 C1240 1.383 . S
C1239 H1247 0.929 . S
C1240 C1239 1.383 . S
C1240 C1241 1.377 . S
C1241 H1225 0.930 . S
C1241 C1240 1.377 . S
C1241 C1242 1.379 . S
C1242 H1226 0.931 . S
C1242 C1236 1.383 . S
C1242 C1241 1.379 . S
H1243 C1237 0.959 . S
H1244 C1237 0.961 . S
H1245 C1237 0.960 . S
H1246 C1238 0.930 . S
H1247 C1239 0.929 . S
H1248 C1256 0.929 . S
H1249 C1258 0.930 . S
H1250 C1260 0.930 . S
H1251 C1263 0.929 . S
H1252 C1266 0.930 . S
H1253 C1268 0.960 . S
H1254 C1268 0.960 . S
H1255 C1268 0.960 . S
C1256 H1248 0.929 . S
C1256 C1257 1.377 . S
C1256 C1258 1.384 . S
C1257 C1256 1.377 . S
C1257 C1263 1.390 . S
C1258 H1249 0.930 . S
C1258 C1256 1.384 . S
C1258 C1259 1.372 . S
C1259 C1258 1.372 . S
C1259 C1260 1.400 . S
C1259 C1264 1.490 . S
C1260 H1250 0.930 . S
C1260 C1259 1.400 . S
C1260 C1263 1.386 . S
H1261 C1277 0.930 . S
H1262 C1278 0.931 . S
C1263 H1251 0.929 . S
C1263 C1257 1.390 . S
C1263 C1260 1.386 . S
C1264 C1259 1.490 . S
C1264 C1266 1.395 . S
C1264 C1267 1.403 . S
H1265 C1271 0.930 . S
C1266 H1252 0.930 . S
C1266 C1264 1.395 . S
C1266 C1269 1.403 . S
C1267 C1264 1.403 . S
C1267 C1268 1.524 . S
C1267 C1271 1.400 . S
C1268 H1253 0.960 . S
C1268 H1254 0.960 . S
C1268 H1255 0.960 . S
C1268 C1267 1.524 . S
C1269 C1266 1.403 . S
C1269 C1270 1.392 . S
C1269 C1273 1.495 . S
C1270 C1269 1.392 . S
C1270 C1271 1.385 . S
C1270 C1272 1.478 . S
C1271 H1265 0.930 . S
C1271 C1267 1.400 . S
C1271 C1270 1.385 . S
C1272 C1270 1.478 . S
C1272 C1274 1.381 . S
C1272 C1278 1.383 . S
C1273 C1269 1.495 . S
C1273 H1279 0.959 . S
C1273 H1280 0.961 . S
C1273 H1281 0.960 . S
C1274 C1272 1.381 . S
C1274 C1275 1.394 . S
C1274 H1282 0.930 . S
C1275 C1274 1.394 . S
C1275 C1276 1.383 . S
C1275 H1283 0.929 . S
C1276 C1275 1.383 . S
C1276 C1277 1.377 . S
C1277 H1261 0.930 . S
C1277 C1276 1.377 . S
C1277 C1278 1.379 . S
C1278 H1262 0.931 . S
C1278 C1272 1.383 . S
C1278 C1277 1.379 . S
H1279 C1273 0.959 . S
H1280 C1273 0.961 . S
H1281 C1273 0.960 . S
H1282 C1274 0.930 . S
H1283 C1275 0.929 . S
H1284 C1292 0.929 . S
H1285 C1294 0.930 . S
H1286 C1296 0.930 . S
H1287 C1299 0.929 . S
H1288 C1302 0.930 . S
H1289 C1304 0.960 . S
H1290 C1304 0.960 . S
H1291 C1304 0.960 . S
C1292 H1284 0.929 . S
C1292 C1293 1.377 . S
C1292 C1294 1.384 . S
C1293 C1292 1.377 . S
C1293 C1299 1.390 . S
C1294 H1285 0.930 . S
C1294 C1292 1.384 . S
C1294 C1295 1.372 . S
C1295 C1294 1.372 . S
C1295 C1296 1.400 . S
C1295 C1300 1.490 . S
C1296 H1286 0.930 . S
C1296 C1295 1.400 . S
C1296 C1299 1.386 . S
H1297 C1313 0.930 . S
H1298 C1314 0.931 . S
C1299 H1287 0.929 . S
C1299 C1293 1.390 . S
C1299 C1296 1.386 . S
C1300 C1295 1.490 . S
C1300 C1302 1.395 . S
C1300 C1303 1.403 . S
H1301 C1307 0.930 . S
C1302 H1288 0.930 . S
C1302 C1300 1.395 . S
C1302 C1305 1.403 . S
C1303 C1300 1.403 . S
C1303 C1304 1.524 . S
C1303 C1307 1.400 . S
C1304 H1289 0.960 . S
C1304 H1290 0.960 . S
C1304 H1291 0.960 . S
C1304 C1303 1.524 . S
C1305 C1302 1.403 . S
C1305 C1306 1.392 . S
C1305 C1309 1.495 . S
C1306 C1305 1.392 . S
C1306 C1307 1.385 . S
C1306 C1308 1.478 . S
C1307 H1301 0.930 . S
C1307 C1303 1.400 . S
C1307 C1306 1.385 . S
C1308 C1306 1.478 . S
C1308 C1310 1.381 . S
C1308 C1314 1.383 . S
C1309 C1305 1.495 . S
C1309 H1315 0.959 . S
C1309 H1316 0.961 . S
C1309 H1317 0.960 . S
C1310 C1308 1.381 . S
C1310 C1311 1.394 . S
C1310 H1318 0.930 . S
C1311 C1310 1.394 . S
C1311 C1312 1.383 . S
C1311 H1319 0.929 . S
C1312 C1311 1.383 . S
C1312 C1313 1.377 . S
C1313 H1297 0.930 . S
C1313 C1312 1.377 . S
C1313 C1314 1.379 . S
C1314 H1298 0.931 . S
C1314 C1308 1.383 . S
C1314 C1313 1.379 . S
H1315 C1309 0.959 . S
H1316 C1309 0.961 . S
H1317 C1309 0.960 . S
H1318 C1310 0.930 . S
H1319 C1311 0.929 . S
H1320 C1328 0.929 . S
H1321 C1330 0.930 . S
H1322 C1332 0.930 . S
H1323 C1335 0.929 . S
H1324 C1338 0.930 . S
H1325 C1340 0.960 . S
H1326 C1340 0.960 . S
H1327 C1340 0.960 . S
C1328 H1320 0.929 . S
C1328 C1329 1.377 . S
C1328 C1330 1.384 . S
C1329 C1328 1.377 . S
C1329 C1335 1.390 . S
C1330 H1321 0.930 . S
C1330 C1328 1.384 . S
C1330 C1331 1.372 . S
C1331 C1330 1.372 . S
C1331 C1332 1.400 . S
C1331 C1336 1.490 . S
C1332 H1322 0.930 . S
C1332 C1331 1.400 . S
C1332 C1335 1.386 . S
H1333 C1349 0.930 . S
H1334 C1350 0.931 . S
C1335 H1323 0.929 . S
C1335 C1329 1.390 . S
C1335 C1332 1.386 . S
C1336 C1331 1.490 . S
C1336 C1338 1.395 . S
C1336 C1339 1.403 . S
H1337 C1343 0.930 . S
C1338 H1324 0.930 . S
C1338 C1336 1.395 . S
C1338 C1341 1.403 . S
C1339 C1336 1.403 . S
C1339 C1340 1.524 . S
C1339 C1343 1.400 . S
C1340 H1325 0.960 . S
C1340 H1326 0.960 . S
C1340 H1327 0.960 . S
C1340 C1339 1.524 . S
C1341 C1338 1.403 . S
C1341 C1342 1.392 . S
C1341 C1345 1.495 . S
C1342 C1341 1.392 . S
C1342 C1343 1.385 . S
C1342 C1344 1.478 . S
C1343 H1337 0.930 . S
C1343 C1339 1.400 . S
C1343 C1342 1.385 . S
C1344 C1342 1.478 . S
C1344 C1346 1.381 . S
C1344 C1350 1.383 . S
C1345 C1341 1.495 . S
C1345 H1351 0.959 . S
C1345 H1352 0.961 . S
C1345 H1353 0.960 . S
C1346 C1344 1.381 . S
C1346 C1347 1.394 . S
C1346 H1354 0.930 . S
C1347 C1346 1.394 . S
C1347 C1348 1.383 . S
C1347 H1355 0.929 . S
C1348 C1347 1.383 . S
C1348 C1349 1.377 . S
C1349 H1333 0.930 . S
C1349 C1348 1.377 . S
C1349 C1350 1.379 . S
C1350 H1334 0.931 . S
C1350 C1344 1.383 . S
C1350 C1349 1.379 . S
H1351 C1345 0.959 . S
H1352 C1345 0.961 . S
H1353 C1345 0.960 . S
H1354 C1346 0.930 . S
H1355 C1347 0.929 . S
H1356 C1364 0.929 . S
H1357 C1366 0.930 . S
H1358 C1368 0.930 . S
H1359 C1371 0.929 . S
H1360 C1374 0.930 . S
H1361 C1376 0.960 . S
H1362 C1376 0.960 . S
H1363 C1376 0.960 . S
C1364 H1356 0.929 . S
C1364 C1365 1.377 . S
C1364 C1366 1.384 . S
C1365 C1364 1.377 . S
C1365 C1371 1.390 . S
C1366 H1357 0.930 . S
C1366 C1364 1.384 . S
C1366 C1367 1.372 . S
C1367 C1366 1.372 . S
C1367 C1368 1.400 . S
C1367 C1372 1.490 . S
C1368 H1358 0.930 . S
C1368 C1367 1.400 . S
C1368 C1371 1.386 . S
H1369 C1385 0.930 . S
H1370 C1386 0.931 . S
C1371 H1359 0.929 . S
C1371 C1365 1.390 . S
C1371 C1368 1.386 . S
C1372 C1367 1.490 . S
C1372 C1374 1.395 . S
C1372 C1375 1.403 . S
H1373 C1379 0.930 . S
C1374 H1360 0.930 . S
C1374 C1372 1.395 . S
C1374 C1377 1.403 . S
C1375 C1372 1.403 . S
C1375 C1376 1.524 . S
C1375 C1379 1.400 . S
C1376 H1361 0.960 . S
C1376 H1362 0.960 . S
C1376 H1363 0.960 . S
C1376 C1375 1.524 . S
C1377 C1374 1.403 . S
C1377 C1378 1.392 . S
C1377 C1381 1.495 . S
C1378 C1377 1.392 . S
C1378 C1379 1.385 . S
C1378 C1380 1.478 . S
C1379 H1373 0.930 . S
C1379 C1375 1.400 . S
C1379 C1378 1.385 . S
C1380 C1378 1.478 . S
C1380 C1382 1.381 . S
C1380 C1386 1.383 . S
C1381 C1377 1.495 . S
C1381 H1387 0.959 . S
C1381 H1388 0.961 . S
C1381 H1389 0.960 . S
C1382 C1380 1.381 . S
C1382 C1383 1.394 . S
C1382 H1390 0.930 . S
C1383 C1382 1.394 . S
C1383 C1384 1.383 . S
C1383 H1391 0.929 . S
C1384 C1383 1.383 . S
C1384 C1385 1.377 . S
C1385 H1369 0.930 . S
C1385 C1384 1.377 . S
C1385 C1386 1.379 . S
C1386 H1370 0.931 . S
C1386 C1380 1.383 . S
C1386 C1385 1.379 . S
H1387 C1381 0.959 . S
H1388 C1381 0.961 . S
H1389 C1381 0.960 . S
H1390 C1382 0.930 . S
H1391 C1383 0.929 . S
H1392 C1400 0.929 . S
H1393 C1402 0.930 . S
H1394 C1404 0.930 . S
H1395 C1407 0.929 . S
H1396 C1410 0.930 . S
H1397 C1412 0.960 . S
H1398 C1412 0.960 . S
H1399 C1412 0.960 . S
C1400 H1392 0.929 . S
C1400 C1401 1.377 . S
C1400 C1402 1.384 . S
C1401 C1400 1.377 . S
C1401 C1407 1.390 . S
C1402 H1393 0.930 . S
C1402 C1400 1.384 . S
C1402 C1403 1.372 . S
C1403 C1402 1.372 . S
C1403 C1404 1.400 . S
C1403 C1408 1.490 . S
C1404 H1394 0.930 . S
C1404 C1403 1.400 . S
C1404 C1407 1.386 . S
H1405 C1421 0.930 . S
H1406 C1422 0.931 . S
C1407 H1395 0.929 . S
C1407 C1401 1.390 . S
C1407 C1404 1.386 . S
C1408 C1403 1.490 . S
C1408 C1410 1.395 1_554 S
C1408 C1411 1.403 . S
H1409 C1415 0.930 . S
C1410 H1396 0.930 . S
C1410 C1408 1.395 1_556 S
C1410 C1413 1.403 . S
C1411 C1408 1.403 . S
C1411 C1412 1.524 . S
C1411 C1415 1.400 1_554 S
C1412 H1397 0.960 . S
C1412 H1398 0.960 . S
C1412 H1399 0.960 . S
C1412 C1411 1.524 . S
C1413 C1410 1.403 . S
C1413 C1414 1.392 . S
C1413 C1417 1.495 . S
C1414 C1413 1.392 . S
C1414 C1415 1.385 . S
C1414 C1416 1.478 . S
C1415 H1409 0.930 . S
C1415 C1411 1.400 1_556 S
C1415 C1414 1.385 . S
C1416 C1414 1.478 . S
C1416 C1418 1.381 . S
C1416 C1422 1.383 . S
C1417 C1413 1.495 . S
C1417 H1423 0.959 . S
C1417 H1424 0.961 . S
C1417 H1425 0.960 . S
C1418 C1416 1.381 . S
C1418 C1419 1.394 . S
C1418 H1426 0.930 . S
C1419 C1418 1.394 . S
C1419 C1420 1.383 . S
C1419 H1427 0.929 . S
C1420 C1419 1.383 . S
C1420 C1421 1.377 . S
C1421 H1405 0.930 . S
C1421 C1420 1.377 . S
C1421 C1422 1.379 . S
C1422 H1406 0.931 . S
C1422 C1416 1.383 . S
C1422 C1421 1.379 . S
H1423 C1417 0.959 . S
H1424 C1417 0.961 . S
H1425 C1417 0.960 . S
H1426 C1418 0.930 . S
H1427 C1419 0.929 . S
H1428 C1436 0.929 . S
H1429 C1438 0.930 . S
H1430 C1440 0.930 . S
H1431 C1443 0.929 . S
H1432 C1446 0.930 . S
H1433 C1448 0.960 . S
H1434 C1448 0.960 . S
H1435 C1448 0.960 . S
C1436 H1428 0.929 . S
C1436 C1437 1.377 . S
C1436 C1438 1.384 . S
C1437 C1436 1.377 . S
C1437 C1443 1.390 . S
C1438 H1429 0.930 . S
C1438 C1436 1.384 . S
C1438 C1439 1.372 . S
C1439 C1438 1.372 . S
C1439 C1440 1.400 . S
C1439 C1444 1.490 . S
C1440 H1430 0.930 . S
C1440 C1439 1.400 . S
C1440 C1443 1.386 . S
H1441 C1457 0.930 . S
H1442 C1458 0.931 . S
C1443 H1431 0.929 . S
C1443 C1437 1.390 . S
C1443 C1440 1.386 . S
C1444 C1439 1.490 . S
C1444 C1446 1.395 1_554 S
C1444 C1447 1.403 . S
H1445 C1451 0.930 . S
C1446 H1432 0.930 . S
C1446 C1444 1.395 1_556 S
C1446 C1449 1.403 . S
C1447 C1444 1.403 . S
C1447 C1448 1.524 . S
C1447 C1451 1.400 1_554 S
C1448 H1433 0.960 . S
C1448 H1434 0.960 . S
C1448 H1435 0.960 . S
C1448 C1447 1.524 . S
C1449 C1446 1.403 . S
C1449 C1450 1.392 . S
C1449 C1453 1.495 . S
C1450 C1449 1.392 . S
C1450 C1451 1.385 . S
C1450 C1452 1.478 . S
C1451 H1445 0.930 . S
C1451 C1447 1.400 1_556 S
C1451 C1450 1.385 . S
C1452 C1450 1.478 . S
C1452 C1454 1.381 . S
C1452 C1458 1.383 . S
C1453 C1449 1.495 . S
C1453 H1459 0.959 . S
C1453 H1460 0.961 . S
C1453 H1461 0.960 . S
C1454 C1452 1.381 . S
C1454 C1455 1.394 . S
C1454 H1462 0.930 . S
C1455 C1454 1.394 . S
C1455 C1456 1.383 . S
C1455 H1463 0.929 . S
C1456 C1455 1.383 . S
C1456 C1457 1.377 . S
C1457 H1441 0.930 . S
C1457 C1456 1.377 . S
C1457 C1458 1.379 . S
C1458 H1442 0.931 . S
C1458 C1452 1.383 . S
C1458 C1457 1.379 . S
H1459 C1453 0.959 . S
H1460 C1453 0.961 . S
H1461 C1453 0.960 . S
H1462 C1454 0.930 . S
H1463 C1455 0.929 . S
H1464 C1472 0.929 . S
H1465 C1474 0.930 1_556 S
H1466 C1476 0.930 . S
H1467 C1479 0.929 . S
H1468 C1482 0.947 . S
H1469 C1484 0.960 . S
H1470 C1484 0.960 . S
H1471 C1484 0.960 1_554 S
C1472 H1464 0.929 . S
C1472 C1473 1.377 . S
C1472 C1474 1.384 . S
C1473 C1472 1.377 . S
C1473 C1479 1.390 . S
C1474 H1465 0.930 1_554 S
C1474 C1472 1.384 . S
C1474 C1475 1.372 . S
C1475 C1474 1.372 . S
C1475 C1476 1.400 . S
C1475 C1480 1.513 . S
C1476 H1466 0.930 . S
C1476 C1475 1.400 . S
C1476 C1479 1.386 . S
H1477 C1493 0.930 . S
H1478 C1494 0.931 . S
C1479 H1467 0.929 . S
C1479 C1473 1.390 . S
C1479 C1476 1.386 . S
C1480 C1475 1.513 . S
C1480 C1482 1.384 1_554 S
C1480 C1483 1.391 1_554 S
H1481 C1487 0.930 . S
C1482 H1468 0.947 . S
C1482 C1480 1.384 1_556 S
C1482 C1485 1.403 . S
C1483 C1480 1.391 1_556 S
C1483 C1484 1.524 . S
C1483 C1487 1.400 . S
C1484 H1469 0.960 . S
C1484 H1470 0.960 . S
C1484 H1471 0.960 1_556 S
C1484 C1483 1.524 . S
C1485 C1482 1.403 . S
C1485 C1486 1.392 . S
C1485 C1489 1.495 . S
C1486 C1485 1.392 . S
C1486 C1487 1.385 . S
C1486 C1488 1.478 . S
C1487 H1481 0.930 . S
C1487 C1483 1.400 . S
C1487 C1486 1.385 . S
C1488 C1486 1.478 . S
C1488 C1490 1.381 . S
C1488 C1494 1.383 . S
C1489 C1485 1.495 . S
C1489 H1495 0.959 . S
C1489 H1496 0.961 . S
C1489 H1497 0.960 . S
C1490 C1488 1.381 . S
C1490 C1491 1.394 . S
C1490 H1498 0.930 . S
C1491 C1490 1.394 . S
C1491 C1492 1.383 . S
C1491 H1499 0.929 . S
C1492 C1491 1.383 . S
C1492 C1493 1.377 . S
C1493 H1477 0.930 . S
C1493 C1492 1.377 . S
C1493 C1494 1.379 . S
C1494 H1478 0.931 . S
C1494 C1488 1.383 . S
C1494 C1493 1.379 . S
H1495 C1489 0.959 . S
H1496 C1489 0.961 . S
H1497 C1489 0.960 . S
H1498 C1490 0.930 . S
H1499 C1491 0.929 . S
H1500 C1508 0.929 . S
H1501 C1510 0.930 . S
H1502 C1512 0.930 . S
H1503 C1515 0.929 . S
H1504 C1518 0.930 . S
H1505 C1520 0.960 . S
H1506 C1520 0.960 . S
H1507 C1520 0.960 . S
C1508 H1500 0.929 . S
C1508 C1509 1.377 . S
C1508 C1510 1.384 . S
C1509 C1508 1.377 . S
C1509 C1515 1.390 . S
C1510 H1501 0.930 . S
C1510 C1508 1.384 . S
C1510 C1511 1.372 . S
C1511 C1510 1.372 . S
C1511 C1512 1.400 . S
C1511 C1516 1.490 . S
C1512 H1502 0.930 . S
C1512 C1511 1.400 . S
C1512 C1515 1.386 . S
H1513 C1529 0.930 . S
H1514 C1530 0.931 . S
C1515 H1503 0.929 . S
C1515 C1509 1.390 . S
C1515 C1512 1.386 . S
C1516 C1511 1.490 . S
C1516 C1518 1.395 1_554 S
C1516 C1519 1.403 . S
H1517 C1523 0.930 . S
C1518 H1504 0.930 . S
C1518 C1516 1.395 1_556 S
C1518 C1521 1.403 . S
C1519 C1516 1.403 . S
C1519 C1520 1.524 . S
C1519 C1523 1.400 1_554 S
C1520 H1505 0.960 . S
C1520 H1506 0.960 . S
C1520 H1507 0.960 . S
C1520 C1519 1.524 . S
C1521 C1518 1.403 . S
C1521 C1522 1.392 . S
C1521 C1525 1.495 . S
C1522 C1521 1.392 . S
C1522 C1523 1.385 . S
C1522 C1524 1.478 . S
C1523 H1517 0.930 . S
C1523 C1519 1.400 1_556 S
C1523 C1522 1.385 . S
C1524 C1522 1.478 . S
C1524 C1526 1.381 . S
C1524 C1530 1.383 . S
C1525 C1521 1.495 . S
C1525 H1531 0.959 . S
C1525 H1532 0.961 . S
C1525 H1533 0.960 . S
C1526 C1524 1.381 . S
C1526 C1527 1.394 . S
C1526 H1534 0.930 . S
C1527 C1526 1.394 . S
C1527 C1528 1.383 . S
C1527 H1535 0.929 . S
C1528 C1527 1.383 . S
C1528 C1529 1.377 . S
C1529 H1513 0.930 . S
C1529 C1528 1.377 . S
C1529 C1530 1.379 . S
C1530 H1514 0.931 . S
C1530 C1524 1.383 . S
C1530 C1529 1.379 . S
H1531 C1525 0.959 . S
H1532 C1525 0.961 . S
H1533 C1525 0.960 . S
H1534 C1526 0.930 . S
H1535 C1527 0.929 . S
H1536 C1544 0.929 . S
H1537 C1546 0.930 . S
H1538 C1548 0.930 . S
H1539 C1551 0.929 . S
H1540 C1554 0.930 . S
H1541 C1556 0.960 . S
H1542 C1556 0.960 . S
H1543 C1556 0.960 . S
C1544 H1536 0.929 . S
C1544 C1545 1.377 . S
C1544 C1546 1.384 . S
C1545 C1544 1.377 . S
C1545 C1551 1.390 . S
C1546 H1537 0.930 . S
C1546 C1544 1.384 . S
C1546 C1547 1.372 . S
C1547 C1546 1.372 . S
C1547 C1548 1.400 . S
C1547 C1552 1.490 . S
C1548 H1538 0.930 . S
C1548 C1547 1.400 . S
C1548 C1551 1.386 . S
H1549 C1565 0.930 . S
H1550 C1566 0.931 . S
C1551 H1539 0.929 . S
C1551 C1545 1.390 . S
C1551 C1548 1.386 . S
C1552 C1547 1.490 . S
C1552 C1554 1.395 . S
C1552 C1555 1.403 . S
H1553 C1559 0.930 . S
C1554 H1540 0.930 . S
C1554 C1552 1.395 . S
C1554 C1557 1.403 . S
C1555 C1552 1.403 . S
C1555 C1556 1.524 . S
C1555 C1559 1.400 . S
C1556 H1541 0.960 . S
C1556 H1542 0.960 . S
C1556 H1543 0.960 . S
C1556 C1555 1.524 . S
C1557 C1554 1.403 . S
C1557 C1558 1.392 . S
C1557 C1561 1.495 . S
C1558 C1557 1.392 . S
C1558 C1559 1.385 . S
C1558 C1560 1.478 . S
C1559 H1553 0.930 . S
C1559 C1555 1.400 . S
C1559 C1558 1.385 . S
C1560 C1558 1.478 . S
C1560 C1562 1.381 . S
C1560 C1566 1.383 . S
C1561 C1557 1.495 . S
C1561 H1567 0.959 . S
C1561 H1568 0.961 . S
C1561 H1569 0.960 . S
C1562 C1560 1.381 . S
C1562 C1563 1.394 . S
C1562 H1570 0.930 . S
C1563 C1562 1.394 . S
C1563 C1564 1.383 . S
C1563 H1571 0.929 . S
C1564 C1563 1.383 . S
C1564 C1565 1.377 . S
C1565 H1549 0.930 . S
C1565 C1564 1.377 . S
C1565 C1566 1.379 . S
C1566 H1550 0.931 . S
C1566 C1560 1.383 . S
C1566 C1565 1.379 . S
H1567 C1561 0.959 . S
H1568 C1561 0.961 . S
H1569 C1561 0.960 . S
H1570 C1562 0.930 . S
H1571 C1563 0.929 . S
H1572 C1580 0.929 . S
H1573 C1582 0.930 . S
H1574 C1584 0.930 . S
H1575 C1587 0.929 . S
H1576 C1590 0.930 . S
H1577 C1592 0.960 . S
H1578 C1592 0.960 . S
H1579 C1592 0.960 . S
C1580 H1572 0.929 . S
C1580 C1581 1.377 . S
C1580 C1582 1.384 . S
C1581 C1580 1.377 . S
C1581 C1587 1.390 . S
C1582 H1573 0.930 . S
C1582 C1580 1.384 . S
C1582 C1583 1.372 . S
C1583 C1582 1.372 . S
C1583 C1584 1.400 . S
C1583 C1588 1.490 . S
C1584 H1574 0.930 . S
C1584 C1583 1.400 . S
C1584 C1587 1.386 . S
H1585 C1601 0.930 . S
H1586 C1602 0.931 . S
C1587 H1575 0.929 . S
C1587 C1581 1.390 . S
C1587 C1584 1.386 . S
C1588 C1583 1.490 . S
C1588 C1590 1.395 . S
C1588 C1591 1.403 . S
H1589 C1595 0.930 . S
C1590 H1576 0.930 . S
C1590 C1588 1.395 . S
C1590 C1593 1.403 . S
C1591 C1588 1.403 . S
C1591 C1592 1.524 . S
C1591 C1595 1.400 . S
C1592 H1577 0.960 . S
C1592 H1578 0.960 . S
C1592 H1579 0.960 . S
C1592 C1591 1.524 . S
C1593 C1590 1.403 . S
C1593 C1594 1.392 . S
C1593 C1597 1.495 . S
C1594 C1593 1.392 . S
C1594 C1595 1.385 . S
C1594 C1596 1.478 . S
C1595 H1589 0.930 . S
C1595 C1591 1.400 . S
C1595 C1594 1.385 . S
C1596 C1594 1.478 . S
C1596 C1598 1.381 . S
C1596 C1602 1.383 . S
C1597 C1593 1.495 . S
C1597 H1603 0.959 . S
C1597 H1604 0.961 . S
C1597 H1605 0.960 . S
C1598 C1596 1.381 . S
C1598 C1599 1.394 . S
C1598 H1606 0.930 . S
C1599 C1598 1.394 . S
C1599 C1600 1.383 . S
C1599 H1607 0.929 . S
C1600 C1599 1.383 . S
C1600 C1601 1.377 . S
C1601 H1585 0.930 . S
C1601 C1600 1.377 . S
C1601 C1602 1.379 . S
C1602 H1586 0.931 . S
C1602 C1596 1.383 . S
C1602 C1601 1.379 . S
H1603 C1597 0.959 . S
H1604 C1597 0.961 . S
H1605 C1597 0.960 . S
H1606 C1598 0.930 . S
H1607 C1599 0.929 . S
H1608 C1616 0.929 . S
H1609 C1618 0.930 . S
H1610 C1620 0.930 . S
H1611 C1623 0.929 . S
H1612 C1626 0.930 . S
H1613 C1628 0.960 . S
H1614 C1628 0.960 . S
H1615 C1628 0.960 . S
C1616 H1608 0.929 . S
C1616 C1617 1.377 . S
C1616 C1618 1.384 . S
C1617 C1616 1.377 . S
C1617 C1623 1.390 . S
C1618 H1609 0.930 . S
C1618 C1616 1.384 . S
C1618 C1619 1.372 . S
C1619 C1618 1.372 . S
C1619 C1620 1.400 . S
C1619 C1624 1.490 . S
C1620 H1610 0.930 . S
C1620 C1619 1.400 . S
C1620 C1623 1.386 . S
H1621 C1637 0.930 . S
H1622 C1638 0.931 . S
C1623 H1611 0.929 . S
C1623 C1617 1.390 . S
C1623 C1620 1.386 . S
C1624 C1619 1.490 . S
C1624 C1626 1.395 . S
C1624 C1627 1.403 . S
H1625 C1631 0.930 . S
C1626 H1612 0.930 . S
C1626 C1624 1.395 . S
C1626 C1629 1.403 . S
C1627 C1624 1.403 . S
C1627 C1628 1.524 . S
C1627 C1631 1.400 . S
C1628 H1613 0.960 . S
C1628 H1614 0.960 . S
C1628 H1615 0.960 . S
C1628 C1627 1.524 . S
C1629 C1626 1.403 . S
C1629 C1630 1.392 . S
C1629 C1633 1.495 . S
C1630 C1629 1.392 . S
C1630 C1631 1.385 . S
C1630 C1632 1.478 . S
C1631 H1625 0.930 . S
C1631 C1627 1.400 . S
C1631 C1630 1.385 . S
C1632 C1630 1.478 . S
C1632 C1634 1.381 . S
C1632 C1638 1.383 . S
C1633 C1629 1.495 . S
C1633 H1639 0.959 . S
C1633 H1640 0.961 . S
C1633 H1641 0.960 . S
C1634 C1632 1.381 . S
C1634 C1635 1.394 . S
C1634 H1642 0.930 . S
C1635 C1634 1.394 . S
C1635 C1636 1.383 . S
C1635 H1643 0.929 . S
C1636 C1635 1.383 . S
C1636 C1637 1.377 . S
C1637 H1621 0.930 . S
C1637 C1636 1.377 . S
C1637 C1638 1.379 . S
C1638 H1622 0.931 . S
C1638 C1632 1.383 . S
C1638 C1637 1.379 . S
H1639 C1633 0.959 . S
H1640 C1633 0.961 . S
H1641 C1633 0.960 . S
H1642 C1634 0.930 . S
H1643 C1635 0.929 . S
H1644 C1652 0.929 . S
H1645 C1654 0.930 . S
H1646 C1656 0.930 . S
H1647 C1659 0.929 . S
H1648 C1662 0.930 . S
H1649 C1664 0.960 . S
H1650 C1664 0.960 . S
H1651 C1664 0.960 . S
C1652 H1644 0.929 . S
C1652 C1653 1.377 . S
C1652 C1654 1.384 . S
C1653 C1652 1.377 . S
C1653 C1659 1.390 . S
C1654 H1645 0.930 . S
C1654 C1652 1.384 . S
C1654 C1655 1.372 . S
C1655 C1654 1.372 . S
C1655 C1656 1.400 . S
C1655 C1660 1.490 . S
C1656 H1646 0.930 . S
C1656 C1655 1.400 . S
C1656 C1659 1.386 . S
H1657 C1673 0.930 . S
H1658 C1674 0.931 . S
C1659 H1647 0.929 . S
C1659 C1653 1.390 . S
C1659 C1656 1.386 . S
C1660 C1655 1.490 . S
C1660 C1662 1.395 . S
C1660 C1663 1.403 . S
H1661 C1667 0.930 . S
C1662 H1648 0.930 . S
C1662 C1660 1.395 . S
C1662 C1665 1.403 . S
C1663 C1660 1.403 . S
C1663 C1664 1.524 . S
C1663 C1667 1.400 . S
C1664 H1649 0.960 . S
C1664 H1650 0.960 . S
C1664 H1651 0.960 . S
C1664 C1663 1.524 . S
C1665 C1662 1.403 . S
C1665 C1666 1.392 . S
C1665 C1669 1.495 . S
C1666 C1665 1.392 . S
C1666 C1667 1.385 . S
C1666 C1668 1.478 . S
C1667 H1661 0.930 . S
C1667 C1663 1.400 . S
C1667 C1666 1.385 . S
C1668 C1666 1.478 . S
C1668 C1670 1.381 . S
C1668 C1674 1.383 . S
C1669 C1665 1.495 . S
C1669 H1675 0.959 . S
C1669 H1676 0.961 . S
C1669 H1677 0.960 . S
C1670 C1668 1.381 . S
C1670 C1671 1.394 . S
C1670 H1678 0.930 . S
C1671 C1670 1.394 . S
C1671 C1672 1.383 . S
C1671 H1679 0.929 . S
C1672 C1671 1.383 . S
C1672 C1673 1.377 . S
C1673 H1657 0.930 . S
C1673 C1672 1.377 . S
C1673 C1674 1.379 . S
C1674 H1658 0.931 . S
C1674 C1668 1.383 . S
C1674 C1673 1.379 . S
H1675 C1669 0.959 . S
H1676 C1669 0.961 . S
H1677 C1669 0.960 . S
H1678 C1670 0.930 . S
H1679 C1671 0.929 . S
H1680 C1688 0.929 . S
H1681 C1690 0.930 . S
H1682 C1692 0.930 . S
H1683 C1695 0.929 . S
H1684 C1698 0.930 . S
H1685 C1700 0.960 . S
H1686 C1700 0.960 . S
H1687 C1700 0.960 . S
C1688 H1680 0.929 . S
C1688 C1689 1.377 . S
C1688 C1690 1.384 . S
C1689 C1688 1.377 . S
C1689 C1695 1.390 . S
C1690 H1681 0.930 . S
C1690 C1688 1.384 . S
C1690 C1691 1.372 . S
C1691 C1690 1.372 . S
C1691 C1692 1.400 . S
C1691 C1696 1.490 . S
C1692 H1682 0.930 . S
C1692 C1691 1.400 . S
C1692 C1695 1.386 . S
H1693 C1709 0.930 . S
H1694 C1710 0.931 . S
C1695 H1683 0.929 . S
C1695 C1689 1.390 . S
C1695 C1692 1.386 . S
C1696 C1691 1.490 . S
C1696 C1698 1.395 . S
C1696 C1699 1.403 . S
H1697 C1703 0.930 . S
C1698 H1684 0.930 . S
C1698 C1696 1.395 . S
C1698 C1701 1.403 . S
C1699 C1696 1.403 . S
C1699 C1700 1.524 . S
C1699 C1703 1.400 . S
C1700 H1685 0.960 . S
C1700 H1686 0.960 . S
C1700 H1687 0.960 . S
C1700 C1699 1.524 . S
C1701 C1698 1.403 . S
C1701 C1702 1.392 . S
C1701 C1705 1.495 . S
C1702 C1701 1.392 . S
C1702 C1703 1.385 . S
C1702 C1704 1.478 . S
C1703 H1697 0.930 . S
C1703 C1699 1.400 . S
C1703 C1702 1.385 . S
C1704 C1702 1.478 . S
C1704 C1706 1.381 . S
C1704 C1710 1.383 . S
C1705 C1701 1.495 . S
C1705 H1711 0.959 . S
C1705 H1712 0.961 . S
C1705 H1713 0.960 . S
C1706 C1704 1.381 . S
C1706 C1707 1.394 . S
C1706 H1714 0.930 . S
C1707 C1706 1.394 . S
C1707 C1708 1.383 . S
C1707 H1715 0.929 . S
C1708 C1707 1.383 . S
C1708 C1709 1.377 . S
C1709 H1693 0.930 . S
C1709 C1708 1.377 . S
C1709 C1710 1.379 . S
C1710 H1694 0.931 . S
C1710 C1704 1.383 . S
C1710 C1709 1.379 . S
H1711 C1705 0.959 . S
H1712 C1705 0.961 . S
H1713 C1705 0.960 . S
H1714 C1706 0.930 . S
H1715 C1707 0.929 . S
H1716 C1724 0.929 . S
H1717 C1726 0.930 . S
H1718 C1728 0.930 . S
H1719 C1731 0.929 . S
H1720 C1734 0.930 . S
H1721 C1736 0.960 . S
H1722 C1736 0.960 . S
H1723 C1736 0.960 . S
C1724 H1716 0.929 . S
C1724 C1725 1.377 . S
C1724 C1726 1.384 . S
C1725 C1724 1.377 . S
C1725 C1731 1.390 . S
C1726 H1717 0.930 . S
C1726 C1724 1.384 . S
C1726 C1727 1.372 . S
C1727 C1726 1.372 . S
C1727 C1728 1.400 . S
C1727 C1732 1.490 . S
C1728 H1718 0.930 . S
C1728 C1727 1.400 . S
C1728 C1731 1.386 . S
H1729 C1745 0.930 . S
H1730 C1746 0.931 . S
C1731 H1719 0.929 . S
C1731 C1725 1.390 . S
C1731 C1728 1.386 . S
C1732 C1727 1.490 . S
C1732 C1734 1.395 . S
C1732 C1735 1.403 . S
H1733 C1739 0.930 . S
C1734 H1720 0.930 . S
C1734 C1732 1.395 . S
C1734 C1737 1.403 . S
C1735 C1732 1.403 . S
C1735 C1736 1.524 . S
C1735 C1739 1.400 . S
C1736 H1721 0.960 . S
C1736 H1722 0.960 . S
C1736 H1723 0.960 . S
C1736 C1735 1.524 . S
C1737 C1734 1.403 . S
C1737 C1738 1.392 . S
C1737 C1741 1.495 . S
C1738 C1737 1.392 . S
C1738 C1739 1.385 . S
C1738 C1740 1.478 . S
C1739 H1733 0.930 . S
C1739 C1735 1.400 . S
C1739 C1738 1.385 . S
C1740 C1738 1.478 . S
C1740 C1742 1.381 . S
C1740 C1746 1.383 . S
C1741 C1737 1.495 . S
C1741 H1747 0.959 . S
C1741 H1748 0.961 . S
C1741 H1749 0.960 . S
C1742 C1740 1.381 . S
C1742 C1743 1.394 . S
C1742 H1750 0.930 . S
C1743 C1742 1.394 . S
C1743 C1744 1.383 . S
C1743 H1751 0.929 . S
C1744 C1743 1.383 . S
C1744 C1745 1.377 . S
C1745 H1729 0.930 . S
C1745 C1744 1.377 . S
C1745 C1746 1.379 . S
C1746 H1730 0.931 . S
C1746 C1740 1.383 . S
C1746 C1745 1.379 . S
H1747 C1741 0.959 . S
H1748 C1741 0.961 . S
H1749 C1741 0.960 . S
H1750 C1742 0.930 . S
H1751 C1743 0.929 . S
H1752 C1760 0.929 . S
H1753 C1762 0.930 . S
H1754 C1764 0.930 . S
H1755 C1767 0.929 . S
H1756 C1770 0.930 . S
H1757 C1772 0.960 . S
H1758 C1772 0.960 . S
H1759 C1772 0.960 . S
C1760 H1752 0.929 . S
C1760 C1761 1.377 . S
C1760 C1762 1.384 . S
C1761 C1760 1.377 . S
C1761 C1767 1.390 . S
C1762 H1753 0.930 . S
C1762 C1760 1.384 . S
C1762 C1763 1.372 . S
C1763 C1762 1.372 . S
C1763 C1764 1.400 . S
C1763 C1768 1.490 . S
C1764 H1754 0.930 . S
C1764 C1763 1.400 . S
C1764 C1767 1.386 . S
H1765 C1781 0.930 . S
H1766 C1782 0.931 . S
C1767 H1755 0.929 . S
C1767 C1761 1.390 . S
C1767 C1764 1.386 . S
C1768 C1763 1.490 . S
C1768 C1770 1.395 . S
C1768 C1771 1.403 . S
H1769 C1775 0.930 . S
C1770 H1756 0.930 . S
C1770 C1768 1.395 . S
C1770 C1773 1.403 . S
C1771 C1768 1.403 . S
C1771 C1772 1.524 . S
C1771 C1775 1.400 . S
C1772 H1757 0.960 . S
C1772 H1758 0.960 . S
C1772 H1759 0.960 . S
C1772 C1771 1.524 . S
C1773 C1770 1.403 . S
C1773 C1774 1.392 . S
C1773 C1777 1.495 . S
C1774 C1773 1.392 . S
C1774 C1775 1.385 . S
C1774 C1776 1.478 . S
C1775 H1769 0.930 . S
C1775 C1771 1.400 . S
C1775 C1774 1.385 . S
C1776 C1774 1.478 . S
C1776 C1778 1.381 . S
C1776 C1782 1.383 . S
C1777 C1773 1.495 . S
C1777 H1783 0.959 . S
C1777 H1784 0.961 . S
C1777 H1785 0.960 . S
C1778 C1776 1.381 . S
C1778 C1779 1.394 . S
C1778 H1786 0.930 . S
C1779 C1778 1.394 . S
C1779 C1780 1.383 . S
C1779 H1787 0.929 . S
C1780 C1779 1.383 . S
C1780 C1781 1.377 . S
C1781 H1765 0.930 . S
C1781 C1780 1.377 . S
C1781 C1782 1.379 . S
C1782 H1766 0.931 . S
C1782 C1776 1.383 . S
C1782 C1781 1.379 . S
H1783 C1777 0.959 . S
H1784 C1777 0.961 . S
H1785 C1777 0.960 . S
H1786 C1778 0.930 . S
H1787 C1779 0.929 . S
H1788 C1796 0.929 . S
H1789 C1798 0.930 . S
H1790 C1800 0.930 . S
H1791 C1803 0.929 . S
H1792 C1806 0.930 . S
H1793 C1808 0.960 . S
H1794 C1808 0.960 . S
H1795 C1808 0.960 . S
C1796 H1788 0.929 . S
C1796 C1797 1.377 . S
C1796 C1798 1.384 . S
C1797 C1796 1.377 . S
C1797 C1803 1.390 . S
C1798 H1789 0.930 . S
C1798 C1796 1.384 . S
C1798 C1799 1.372 . S
C1799 C1798 1.372 . S
C1799 C1800 1.400 . S
C1799 C1804 1.490 . S
C1800 H1790 0.930 . S
C1800 C1799 1.400 . S
C1800 C1803 1.386 . S
H1801 C1817 0.930 . S
H1802 C1818 0.931 . S
C1803 H1791 0.929 . S
C1803 C1797 1.390 . S
C1803 C1800 1.386 . S
C1804 C1799 1.490 . S
C1804 C1806 1.395 . S
C1804 C1807 1.403 . S
H1805 C1811 0.930 . S
C1806 H1792 0.930 . S
C1806 C1804 1.395 . S
C1806 C1809 1.403 . S
C1807 C1804 1.403 . S
C1807 C1808 1.524 . S
C1807 C1811 1.400 . S
C1808 H1793 0.960 . S
C1808 H1794 0.960 . S
C1808 H1795 0.960 . S
C1808 C1807 1.524 . S
C1809 C1806 1.403 . S
C1809 C1810 1.392 . S
C1809 C1813 1.495 . S
C1810 C1809 1.392 . S
C1810 C1811 1.385 . S
C1810 C1812 1.478 . S
C1811 H1805 0.930 . S
C1811 C1807 1.400 . S
C1811 C1810 1.385 . S
C1812 C1810 1.478 . S
C1812 C1814 1.381 . S
C1812 C1818 1.383 . S
C1813 C1809 1.495 . S
C1813 H1819 0.959 . S
C1813 H1820 0.961 . S
C1813 H1821 0.960 . S
C1814 C1812 1.381 . S
C1814 C1815 1.394 . S
C1814 H1822 0.930 . S
C1815 C1814 1.394 . S
C1815 C1816 1.383 . S
C1815 H1823 0.929 . S
C1816 C1815 1.383 . S
C1816 C1817 1.377 . S
C1817 H1801 0.930 . S
C1817 C1816 1.377 . S
C1817 C1818 1.379 . S
C1818 H1802 0.931 . S
C1818 C1812 1.383 . S
C1818 C1817 1.379 . S
H1819 C1813 0.959 . S
H1820 C1813 0.961 . S
H1821 C1813 0.960 . S
H1822 C1814 0.930 . S
H1823 C1815 0.929 . S
H1824 C1832 0.929 . S
H1825 C1834 0.930 . S
H1826 C1836 0.930 . S
H1827 C1839 0.929 . S
H1828 C1842 0.930 . S
H1829 C1844 0.960 . S
H1830 C1844 0.960 . S
H1831 C1844 0.960 . S
C1832 H1824 0.929 . S
C1832 C1833 1.377 . S
C1832 C1834 1.384 . S
C1833 C1832 1.377 . S
C1833 C1839 1.390 . S
C1834 H1825 0.930 . S
C1834 C1832 1.384 . S
C1834 C1835 1.372 . S
C1835 C1834 1.372 . S
C1835 C1836 1.400 . S
C1835 C1840 1.490 . S
C1836 H1826 0.930 . S
C1836 C1835 1.400 . S
C1836 C1839 1.386 . S
H1837 C1853 0.930 . S
H1838 C1854 0.931 . S
C1839 H1827 0.929 . S
C1839 C1833 1.390 . S
C1839 C1836 1.386 . S
C1840 C1835 1.490 . S
C1840 C1842 1.395 . S
C1840 C1843 1.403 . S
H1841 C1847 0.930 . S
C1842 H1828 0.930 . S
C1842 C1840 1.395 . S
C1842 C1845 1.403 . S
C1843 C1840 1.403 . S
C1843 C1844 1.524 . S
C1843 C1847 1.400 . S
C1844 H1829 0.960 . S
C1844 H1830 0.960 . S
C1844 H1831 0.960 . S
C1844 C1843 1.524 . S
C1845 C1842 1.403 . S
C1845 C1846 1.392 . S
C1845 C1849 1.495 . S
C1846 C1845 1.392 . S
C1846 C1847 1.385 . S
C1846 C1848 1.478 . S
C1847 H1841 0.930 . S
C1847 C1843 1.400 . S
C1847 C1846 1.385 . S
C1848 C1846 1.478 . S
C1848 C1850 1.381 . S
C1848 C1854 1.383 . S
C1849 C1845 1.495 . S
C1849 H1855 0.959 . S
C1849 H1856 0.961 . S
C1849 H1857 0.960 . S
C1850 C1848 1.381 . S
C1850 C1851 1.394 . S
C1850 H1858 0.930 . S
C1851 C1850 1.394 . S
C1851 C1852 1.383 . S
C1851 H1859 0.929 . S
C1852 C1851 1.383 . S
C1852 C1853 1.377 . S
C1853 H1837 0.930 . S
C1853 C1852 1.377 . S
C1853 C1854 1.379 . S
C1854 H1838 0.931 . S
C1854 C1848 1.383 . S
C1854 C1853 1.379 . S
H1855 C1849 0.959 . S
H1856 C1849 0.961 . S
H1857 C1849 0.960 . S
H1858 C1850 0.930 . S
H1859 C1851 0.929 . S
H1860 C1868 0.929 . S
H1861 C1870 0.930 . S
H1862 C1872 0.930 . S
H1863 C1875 0.929 . S
H1864 C1878 0.930 . S
H1865 C1880 0.960 . S
H1866 C1880 0.960 . S
H1867 C1880 0.960 . S
C1868 H1860 0.929 . S
C1868 C1869 1.377 . S
C1868 C1870 1.384 . S
C1869 C1868 1.377 . S
C1869 C1875 1.390 . S
C1870 H1861 0.930 . S
C1870 C1868 1.384 . S
C1870 C1871 1.372 . S
C1871 C1870 1.372 . S
C1871 C1872 1.400 . S
C1871 C1876 1.490 . S
C1872 H1862 0.930 . S
C1872 C1871 1.400 . S
C1872 C1875 1.386 . S
H1873 C1889 0.930 . S
H1874 C1890 0.931 . S
C1875 H1863 0.929 . S
C1875 C1869 1.390 . S
C1875 C1872 1.386 . S
C1876 C1871 1.490 . S
C1876 C1878 1.395 . S
C1876 C1879 1.403 . S
H1877 C1883 0.930 . S
C1878 H1864 0.930 . S
C1878 C1876 1.395 . S
C1878 C1881 1.403 . S
C1879 C1876 1.403 . S
C1879 C1880 1.524 . S
C1879 C1883 1.400 . S
C1880 H1865 0.960 . S
C1880 H1866 0.960 . S
C1880 H1867 0.960 . S
C1880 C1879 1.524 . S
C1881 C1878 1.403 . S
C1881 C1882 1.392 . S
C1881 C1885 1.495 . S
C1882 C1881 1.392 . S
C1882 C1883 1.385 . S
C1882 C1884 1.478 . S
C1883 H1877 0.930 . S
C1883 C1879 1.400 . S
C1883 C1882 1.385 . S
C1884 C1882 1.478 . S
C1884 C1886 1.381 . S
C1884 C1890 1.383 . S
C1885 C1881 1.495 . S
C1885 H1891 0.959 . S
C1885 H1892 0.961 . S
C1885 H1893 0.960 . S
C1886 C1884 1.381 . S
C1886 C1887 1.394 . S
C1886 H1894 0.930 . S
C1887 C1886 1.394 . S
C1887 C1888 1.383 . S
C1887 H1895 0.929 . S
C1888 C1887 1.383 . S
C1888 C1889 1.377 . S
C1889 H1873 0.930 . S
C1889 C1888 1.377 . S
C1889 C1890 1.379 . S
C1890 H1874 0.931 . S
C1890 C1884 1.383 . S
C1890 C1889 1.379 . S
H1891 C1885 0.959 . S
H1892 C1885 0.961 . S
H1893 C1885 0.960 . S
H1894 C1886 0.930 . S
H1895 C1887 0.929 . S
H1896 C1904 0.929 . S
H1897 C1906 0.930 . S
H1898 C1908 0.930 . S
H1899 C1911 0.929 . S
H1900 C1914 0.930 . S
H1901 C1916 0.960 . S
H1902 C1916 0.960 . S
H1903 C1916 0.960 . S
C1904 H1896 0.929 . S
C1904 C1905 1.377 . S
C1904 C1906 1.384 . S
C1905 C1904 1.377 . S
C1905 C1911 1.390 . S
C1906 H1897 0.930 . S
C1906 C1904 1.384 . S
C1906 C1907 1.372 . S
C1907 C1906 1.372 . S
C1907 C1908 1.400 . S
C1907 C1912 1.490 . S
C1908 H1898 0.930 . S
C1908 C1907 1.400 . S
C1908 C1911 1.386 . S
H1909 C1925 0.930 . S
H1910 C1926 0.931 . S
C1911 H1899 0.929 . S
C1911 C1905 1.390 . S
C1911 C1908 1.386 . S
C1912 C1907 1.490 . S
C1912 C1914 1.395 . S
C1912 C1915 1.403 . S
H1913 C1919 0.930 . S
C1914 H1900 0.930 . S
C1914 C1912 1.395 . S
C1914 C1917 1.403 . S
C1915 C1912 1.403 . S
C1915 C1916 1.524 . S
C1915 C1919 1.400 . S
C1916 H1901 0.960 . S
C1916 H1902 0.960 . S
C1916 H1903 0.960 . S
C1916 C1915 1.524 . S
C1917 C1914 1.403 . S
C1917 C1918 1.392 . S
C1917 C1921 1.495 . S
C1918 C1917 1.392 . S
C1918 C1919 1.385 . S
C1918 C1920 1.478 . S
C1919 H1913 0.930 . S
C1919 C1915 1.400 . S
C1919 C1918 1.385 . S
C1920 C1918 1.478 . S
C1920 C1922 1.381 . S
C1920 C1926 1.383 . S
C1921 C1917 1.495 . S
C1921 H1927 0.959 . S
C1921 H1928 0.961 . S
C1921 H1929 0.960 . S
C1922 C1920 1.381 . S
C1922 C1923 1.394 . S
C1922 H1930 0.930 . S
C1923 C1922 1.394 . S
C1923 C1924 1.383 . S
C1923 H1931 0.929 . S
C1924 C1923 1.383 . S
C1924 C1925 1.377 . S
C1925 H1909 0.930 . S
C1925 C1924 1.377 . S
C1925 C1926 1.379 . S
C1926 H1910 0.931 . S
C1926 C1920 1.383 . S
C1926 C1925 1.379 . S
H1927 C1921 0.959 . S
H1928 C1921 0.961 . S
H1929 C1921 0.960 . S
H1930 C1922 0.930 . S
H1931 C1923 0.929 . S
H1932 C1940 0.929 . S
H1933 C1942 0.930 . S
H1934 C1944 0.930 . S
H1935 C1947 0.929 . S
H1936 C1950 0.930 . S
H1937 C1952 0.960 . S
H1938 C1952 0.960 . S
H1939 C1952 0.960 . S
C1940 H1932 0.929 . S
C1940 C1941 1.377 . S
C1940 C1942 1.384 . S
C1941 C1940 1.377 . S
C1941 C1947 1.390 . S
C1942 H1933 0.930 . S
C1942 C1940 1.384 . S
C1942 C1943 1.372 . S
C1943 C1942 1.372 . S
C1943 C1944 1.400 . S
C1943 C1948 1.490 . S
C1944 H1934 0.930 . S
C1944 C1943 1.400 . S
C1944 C1947 1.386 . S
H1945 C1961 0.930 . S
H1946 C1962 0.931 . S
C1947 H1935 0.929 . S
C1947 C1941 1.390 . S
C1947 C1944 1.386 . S
C1948 C1943 1.490 . S
C1948 C1950 1.395 . S
C1948 C1951 1.403 . S
H1949 C1955 0.930 . S
C1950 H1936 0.930 . S
C1950 C1948 1.395 . S
C1950 C1953 1.403 . S
C1951 C1948 1.403 . S
C1951 C1952 1.524 . S
C1951 C1955 1.400 . S
C1952 H1937 0.960 . S
C1952 H1938 0.960 . S
C1952 H1939 0.960 . S
C1952 C1951 1.524 . S
C1953 C1950 1.403 . S
C1953 C1954 1.392 . S
C1953 C1957 1.495 . S
C1954 C1953 1.392 . S
C1954 C1955 1.385 . S
C1954 C1956 1.478 . S
C1955 H1949 0.930 . S
C1955 C1951 1.400 . S
C1955 C1954 1.385 . S
C1956 C1954 1.478 . S
C1956 C1958 1.381 . S
C1956 C1962 1.383 . S
C1957 C1953 1.495 . S
C1957 H1963 0.959 . S
C1957 H1964 0.961 . S
C1957 H1965 0.960 . S
C1958 C1956 1.381 . S
C1958 C1959 1.394 . S
C1958 H1966 0.930 . S
C1959 C1958 1.394 . S
C1959 C1960 1.383 . S
C1959 H1967 0.929 . S
C1960 C1959 1.383 . S
C1960 C1961 1.377 . S
C1961 H1945 0.930 . S
C1961 C1960 1.377 . S
C1961 C1962 1.379 . S
C1962 H1946 0.931 . S
C1962 C1956 1.383 . S
C1962 C1961 1.379 . S
H1963 C1957 0.959 . S
H1964 C1957 0.961 . S
H1965 C1957 0.960 . S
H1966 C1958 0.930 . S
H1967 C1959 0.929 . S
C537 C18 1.484 . S
C556 C216 1.500 . S
C573 C249 1.478 . S
C592 C51 1.470 . S
C609 C150 1.475 . S
C628 C84 1.444 . S
C645 C183 1.476 . S
C664 C117 1.460 . S
C681 C282 1.488 . S
C700 C480 1.452 . S
C717 C315 1.482 . S
C736 C513 1.445 . S
C753 C414 1.484 . S
C772 C348 1.444 . S
C789 C381 1.480 . S
C808 C447 1.514 . S
C825 N266 2.200 . S
C844 N2 2.197 . S
C861 N299 2.203 . S
C880 N35 2.193 . S
C897 N332 2.203 . S
C916 N68 2.191 . S
C933 N365 2.201 . S
C952 N101 2.204 . S
C969 N398 2.199 . S
C988 N134 2.196 . S
C1005 N431 2.204 . S
C1024 N167 2.203 . S
C1041 N200 2.204 . S
C1060 N464 2.201 . S
C1077 N233 2.203 . S
C1096 N497 2.208 . S
C1113 C318 0.483 . S
C1132 C7 0.307 . S
C1149 C351 0.485 . S
C1168 C40 0.269 . S
C1185 C384 0.445 . S
C1204 C73 0.406 . S
C1221 C285 0.485 . S
C1240 C106 0.260 . S
C1257 C139 0.340 . S
C1276 C516 0.538 . S
C1293 C172 0.351 . S
C1312 C417 0.494 . S
C1329 C205 0.325 . S
C1348 C450 0.527 . S
C1365 C238 0.362 . S
C1384 C483 0.365 . S
C1401 C54 0.468 . S
C1420 C271 0.442 . S
C1437 C87 0.474 . S
C1456 C304 0.435 . S
C1473 C120 0.478 . S
C1492 C337 0.275 . S
C1509 C21 0.462 . S
C1528 C370 0.441 . S
C1545 C252 0.476 . S
C1564 C403 0.430 . S
C1581 C153 0.485 . S
C1600 C436 0.353 . S
C1617 C186 0.484 . S
C1636 C469 0.387 . S
C1653 C502 0.357 . S
C1672 C219 0.395 . S
C1689 N79 0.572 . S
C1708 N13 0.685 . S
C1725 N112 0.599 . S
C1744 N46 0.552 . S
C1761 N145 0.572 . S
C1780 N211 0.685 . S
C1797 N244 0.590 . S
C1816 N178 0.613 . S
C1833 N277 0.596 . S
C1852 N343 0.683 . S
C1869 N376 0.571 . S
C1888 N310 0.528 . S
C1905 N409 0.609 . S
C1924 N475 0.620 . S
C1941 N442 0.570 . S
C1960 N508 0.531 . S
