# Generated by pormake.
# Topology neb, (4)-cn, num edge types: 1
# Building blocks:
#     Node 0, Type 0, BuildingBlock: GALJAG_clean_sbu_0, # of connection points: 4
#     Node 1, Type 0, BuildingBlock: GALJAG_clean_sbu_0, # of connection points: 4
#     Node 2, Type 0, BuildingBlock: GALJAG_clean_sbu_0, # of connection points: 4
#     Node 3, Type 0, BuildingBlock: GALJAG_clean_sbu_0, # of connection points: 4
#     Node 4, Type 0, BuildingBlock: GALJAG_clean_sbu_0, # of connection points: 4
#     Node 5, Type 0, BuildingBlock: GALJAG_clean_sbu_0, # of connection points: 4
#     Node 6, Type 0, BuildingBlock: GALJAG_clean_sbu_0, # of connection points: 4
#     Node 7, Type 0, BuildingBlock: GALJAG_clean_sbu_0, # of connection points: 4
#     Node 8, Type 0, BuildingBlock: GALJAG_clean_sbu_0, # of connection points: 4
#     Node 9, Type 0, BuildingBlock: GALJAG_clean_sbu_0, # of connection points: 4
#     Node 10, Type 0, BuildingBlock: GALJAG_clean_sbu_0, # of connection points: 4
#     Node 11, Type 0, BuildingBlock: GALJAG_clean_sbu_0, # of connection points: 4
#     Node 12, Type 0, BuildingBlock: GALJAG_clean_sbu_0, # of connection points: 4
#     Node 13, Type 0, BuildingBlock: GALJAG_clean_sbu_0, # of connection points: 4
#     Node 14, Type 0, BuildingBlock: GALJAG_clean_sbu_0, # of connection points: 4
#     Node 15, Type 0, BuildingBlock: GALJAG_clean_sbu_0, # of connection points: 4
#     Edge 16, Type (0, 0), BuildingBlock: OJICUG_clean_linker_0, # of connection points: 2
#     Edge 17, Type (0, 0), BuildingBlock: OJICUG_clean_linker_0, # of connection points: 2
#     Edge 18, Type (0, 0), BuildingBlock: OJICUG_clean_linker_0, # of connection points: 2
#     Edge 19, Type (0, 0), BuildingBlock: OJICUG_clean_linker_0, # of connection points: 2
#     Edge 20, Type (0, 0), BuildingBlock: OJICUG_clean_linker_0, # of connection points: 2
#     Edge 21, Type (0, 0), BuildingBlock: OJICUG_clean_linker_0, # of connection points: 2
#     Edge 22, Type (0, 0), BuildingBlock: OJICUG_clean_linker_0, # of connection points: 2
#     Edge 23, Type (0, 0), BuildingBlock: OJICUG_clean_linker_0, # of connection points: 2
#     Edge 24, Type (0, 0), BuildingBlock: OJICUG_clean_linker_0, # of connection points: 2
#     Edge 25, Type (0, 0), BuildingBlock: OJICUG_clean_linker_0, # of connection points: 2
#     Edge 26, Type (0, 0), BuildingBlock: OJICUG_clean_linker_0, # of connection points: 2
#     Edge 27, Type (0, 0), BuildingBlock: OJICUG_clean_linker_0, # of connection points: 2
#     Edge 28, Type (0, 0), BuildingBlock: OJICUG_clean_linker_0, # of connection points: 2
#     Edge 29, Type (0, 0), BuildingBlock: OJICUG_clean_linker_0, # of connection points: 2
#     Edge 30, Type (0, 0), BuildingBlock: OJICUG_clean_linker_0, # of connection points: 2
#     Edge 31, Type (0, 0), BuildingBlock: OJICUG_clean_linker_0, # of connection points: 2
#     Edge 32, Type (0, 0), BuildingBlock: OJICUG_clean_linker_0, # of connection points: 2
#     Edge 33, Type (0, 0), BuildingBlock: OJICUG_clean_linker_0, # of connection points: 2
#     Edge 34, Type (0, 0), BuildingBlock: OJICUG_clean_linker_0, # of connection points: 2
#     Edge 35, Type (0, 0), BuildingBlock: OJICUG_clean_linker_0, # of connection points: 2
#     Edge 36, Type (0, 0), BuildingBlock: OJICUG_clean_linker_0, # of connection points: 2
#     Edge 37, Type (0, 0), BuildingBlock: OJICUG_clean_linker_0, # of connection points: 2
#     Edge 38, Type (0, 0), BuildingBlock: OJICUG_clean_linker_0, # of connection points: 2
#     Edge 39, Type (0, 0), BuildingBlock: OJICUG_clean_linker_0, # of connection points: 2
#     Edge 40, Type (0, 0), BuildingBlock: OJICUG_clean_linker_0, # of connection points: 2
#     Edge 41, Type (0, 0), BuildingBlock: OJICUG_clean_linker_0, # of connection points: 2
#     Edge 42, Type (0, 0), BuildingBlock: OJICUG_clean_linker_0, # of connection points: 2
#     Edge 43, Type (0, 0), BuildingBlock: OJICUG_clean_linker_0, # of connection points: 2
#     Edge 44, Type (0, 0), BuildingBlock: OJICUG_clean_linker_0, # of connection points: 2
#     Edge 45, Type (0, 0), BuildingBlock: OJICUG_clean_linker_0, # of connection points: 2
#     Edge 46, Type (0, 0), BuildingBlock: OJICUG_clean_linker_0, # of connection points: 2
#     Edge 47, Type (0, 0), BuildingBlock: OJICUG_clean_linker_0, # of connection points: 2
# Relax obj value: 0.003
# Max RMSD: 0.033
# Mean RMSD: 0.033
data_MOF--net-neb--node1-GALJAG_clean_sbu_0--edge1-OJICUG_clean_linker_0
_symmetry_space_group_name_H-M    P1
_symmetry_Int_Tables_number       1
_symmetry_cell_setting            triclinic
loop_
_symmetry_equiv_pos_as_xyz
'x, y, z'
_cell_length_a     30.710073
_cell_length_b     17.781931
_cell_length_c     54.076764
_cell_angle_alpha  90.013152
_cell_angle_beta   90.395072
_cell_angle_gamma 90.009216
loop_
_atom_site_label
_atom_site_type_symbol
_atom_site_fract_x
_atom_site_fract_y
_atom_site_fract_z
_atom_type_partial_charge
In0 In 0.128 0.13912 0.41557 0.0
O1 O 0.16584 0.04312 0.3971 0.0
O2 O 0.0991 0.05782 0.38765 0.0
C3 C 0.18773 0.19641 0.44713 0.0
C4 C 0.06834 0.08409 0.44714 0.0
C5 C 0.12269 0.25594 0.38381 0.0
O6 O 0.19553 0.14025 0.43353 0.0
O7 O 0.14956 0.22216 0.44523 0.0
O8 O 0.09052 0.23503 0.39651 0.0
O9 O 0.15663 0.21708 0.38679 0.0
C10 C 0.13342 0.02008 0.38475 0.0
O11 O 0.06023 0.1383 0.43271 0.0
O12 O 0.10676 0.05917 0.44603 0.0
In13 In 0.12841 0.14003 0.79082 0.0
O14 O 0.09071 0.04399 0.80937 0.0
O15 O 0.15737 0.05934 0.81889 0.0
C16 C 0.06859 0.19698 0.75926 0.0
C17 C 0.18798 0.08474 0.75925 0.0
C18 C 0.13384 0.25722 0.82244 0.0
O19 O 0.0608 0.14101 0.77295 0.0
O20 O 0.10678 0.22269 0.76108 0.0
O21 O 0.16602 0.23595 0.8098 0.0
O22 O 0.09982 0.21854 0.81946 0.0
C23 C 0.12314 0.02135 0.82179 0.0
O24 O 0.19609 0.13926 0.77356 0.0
O25 O 0.14961 0.05964 0.76046 0.0
In26 In 0.87819 0.89282 0.54088 0.0
O27 O 0.84046 0.98905 0.55931 0.0
O28 O 0.90698 0.9733 0.56909 0.0
C29 C 0.8185 0.83567 0.50927 0.0
C30 C 0.93786 0.9482 0.50938 0.0
C31 C 0.88351 0.77558 0.57247 0.0
O32 O 0.81059 0.8915 0.523 0.0
O33 O 0.85675 0.81021 0.51107 0.0
O34 O 0.91573 0.7969 0.55988 0.0
O35 O 0.84949 0.81424 0.56946 0.0
C36 C 0.87279 1.01148 0.57186 0.0
O37 O 0.94594 0.89377 0.52372 0.0
O38 O 0.89946 0.97318 0.51053 0.0
In39 In 0.87873 0.89292 0.16553 0.0
O40 O 0.81097 0.89362 0.18268 0.0
O41 O 0.85743 0.97302 0.19595 0.0
C42 C 0.87344 0.77571 0.13392 0.0
C43 C 0.88413 1.01159 0.13457 0.0
C44 C 0.93839 0.83592 0.19717 0.0
O45 O 0.84117 0.79715 0.14644 0.0
O46 O 0.9075 0.81423 0.137 0.0
O47 O 0.94622 0.89204 0.18356 0.0
O48 O 0.90025 0.81007 0.19523 0.0
C49 C 0.81904 0.94795 0.19708 0.0
O50 O 0.91653 0.9889 0.147 0.0
O51 O 0.84987 0.97368 0.13745 0.0
In52 In 0.12842 0.64011 0.91548 0.0
O53 O 0.16613 0.54418 0.89687 0.0
O54 O 0.09942 0.55932 0.88743 0.0
C55 C 0.18823 0.69706 0.94706 0.0
C56 C 0.0689 0.58478 0.94708 0.0
C57 C 0.12297 0.75725 0.88386 0.0
O58 O 0.19601 0.64109 0.93337 0.0
O59 O 0.15004 0.7228 0.94522 0.0
O60 O 0.09077 0.73587 0.89645 0.0
O61 O 0.15703 0.71871 0.88688 0.0
C62 C 0.13367 0.52143 0.8845 0.0
O63 O 0.0608 0.63941 0.93282 0.0
O64 O 0.10724 0.55958 0.94579 0.0
In65 In 0.12879 0.63905 0.29093 0.0
O66 O 0.09091 0.54313 0.30942 0.0
O67 O 0.1577 0.55768 0.3188 0.0
C68 C 0.06912 0.69634 0.25934 0.0
C69 C 0.18845 0.58413 0.25934 0.0
C70 C 0.13408 0.75588 0.3227 0.0
O71 O 0.06133 0.64004 0.27288 0.0
O72 O 0.10725 0.72224 0.26133 0.0
O73 O 0.16627 0.73496 0.31 0.0
O74 O 0.10013 0.71702 0.3197 0.0
C75 C 0.12335 0.52001 0.32173 0.0
O76 O 0.19659 0.63822 0.27382 0.0
O77 O 0.15001 0.55928 0.2604 0.0
In78 In 0.87908 0.39287 0.04088 0.0
O79 O 0.84142 0.48915 0.05931 0.0
O80 O 0.90792 0.47325 0.06911 0.0
C81 C 0.81928 0.33588 0.0093 0.0
C82 C 0.93863 0.44846 0.00936 0.0
C83 C 0.88447 0.2756 0.07246 0.0
O84 O 0.81133 0.3913 0.0232 0.0
O85 O 0.85762 0.31075 0.01092 0.0
O86 O 0.9167 0.297 0.05988 0.0
O87 O 0.85043 0.31417 0.06943 0.0
C88 C 0.87375 0.5115 0.07187 0.0
O89 O 0.94672 0.39373 0.02358 0.0
O90 O 0.90029 0.47363 0.01065 0.0
In91 In 0.87782 0.3929 0.66553 0.0
O92 O 0.81024 0.39326 0.68292 0.0
O93 O 0.85649 0.47363 0.69576 0.0
C94 C 0.87247 0.27566 0.63393 0.0
C95 C 0.88315 0.51146 0.63453 0.0
C96 C 0.93759 0.33614 0.69717 0.0
O97 O 0.84017 0.29729 0.6464 0.0
O98 O 0.90658 0.31401 0.63707 0.0
O99 O 0.94539 0.39206 0.68346 0.0
O100 O 0.89941 0.31038 0.69533 0.0
C101 C 0.81823 0.44813 0.69711 0.0
O102 O 0.91556 0.48883 0.64696 0.0
O103 O 0.84889 0.47353 0.63743 0.0
In104 In 0.62852 0.13974 0.91558 0.0
O105 O 0.66604 0.04329 0.89714 0.0
O106 O 0.59977 0.0603 0.88704 0.0
C107 C 0.68834 0.19631 0.94722 0.0
C108 C 0.56893 0.08397 0.94705 0.0
C109 C 0.6231 0.25753 0.88422 0.0
O110 O 0.69633 0.14121 0.9332 0.0
O111 O 0.64995 0.2213 0.9457 0.0
O112 O 0.59077 0.23542 0.89657 0.0
O113 O 0.65729 0.21942 0.88735 0.0
C114 C 0.6338 0.02162 0.88437 0.0
O115 O 0.56098 0.13914 0.93299 0.0
O116 O 0.60716 0.0584 0.94562 0.0
In117 In 0.62872 0.13872 0.29082 0.0
O118 O 0.69653 0.13778 0.27373 0.0
O119 O 0.65004 0.05849 0.26043 0.0
C120 C 0.634 0.25598 0.32242 0.0
C121 C 0.62328 0.01999 0.32175 0.0
C122 C 0.56903 0.19584 0.25921 0.0
O123 O 0.66622 0.23476 0.3098 0.0
O124 O 0.60002 0.21721 0.31942 0.0
O125 O 0.56106 0.14022 0.27301 0.0
O126 O 0.60733 0.22111 0.26094 0.0
C127 C 0.68846 0.08345 0.25934 0.0
O128 O 0.59101 0.04227 0.30913 0.0
O129 O 0.65744 0.05833 0.31906 0.0
In130 In 0.37893 0.89287 0.0409 0.0
O131 O 0.44649 0.89316 0.02349 0.0
O132 O 0.40026 0.97361 0.0107 0.0
C133 C 0.38426 0.77564 0.0725 0.0
C134 C 0.3736 1.01141 0.07193 0.0
C135 C 0.31918 0.83613 0.00924 0.0
O136 O 0.4166 0.79741 0.06009 0.0
O137 O 0.35012 0.81383 0.0693 0.0
O138 O 0.31139 0.89208 0.02294 0.0
O139 O 0.35734 0.81033 0.0111 0.0
C140 C 0.43851 0.94806 0.00932 0.0
O141 O 0.34117 0.98869 0.05953 0.0
O142 O 0.40787 0.97358 0.06899 0.0
In143 In 0.37801 0.893 0.66553 0.0
O144 O 0.31031 0.8939 0.68275 0.0
O145 O 0.35676 0.9736 0.69582 0.0
C146 C 0.37265 0.77569 0.63396 0.0
C147 C 0.38338 1.01158 0.63453 0.0
C148 C 0.43773 0.83595 0.69713 0.0
O149 O 0.34041 0.79712 0.64651 0.0
O150 O 0.4067 0.81427 0.63699 0.0
O151 O 0.44566 0.89161 0.68334 0.0
O152 O 0.39944 0.81062 0.6954 0.0
C153 C 0.31839 0.94851 0.69703 0.0
O154 O 0.41571 0.98925 0.64709 0.0
O155 O 0.34921 0.97334 0.63729 0.0
In156 In 0.62812 0.6388 0.41546 0.0
O157 O 0.66592 0.54285 0.39692 0.0
O158 O 0.59926 0.55802 0.38736 0.0
C159 C 0.68776 0.6958 0.44713 0.0
C160 C 0.56848 0.58362 0.44701 0.0
C161 C 0.62284 0.75593 0.38383 0.0
O162 O 0.69566 0.63991 0.43342 0.0
O163 O 0.64955 0.7214 0.44528 0.0
O164 O 0.5905 0.73427 0.39625 0.0
O165 O 0.65696 0.71767 0.38702 0.0
C166 C 0.63353 0.52014 0.38449 0.0
O167 O 0.56049 0.63837 0.43278 0.0
O168 O 0.60676 0.55821 0.44571 0.0
In169 In 0.62826 0.63967 0.79092 0.0
O170 O 0.69578 0.63918 0.77347 0.0
O171 O 0.6496 0.55837 0.76085 0.0
C172 C 0.63366 0.75742 0.82231 0.0
C173 C 0.62296 0.5216 0.82213 0.0
C174 C 0.56853 0.69629 0.75924 0.0
O175 O 0.66604 0.73516 0.81003 0.0
O176 O 0.59943 0.71946 0.81909 0.0
O177 O 0.56057 0.64088 0.77314 0.0
O178 O 0.60685 0.72156 0.76091 0.0
C179 C 0.68783 0.584 0.75941 0.0
O180 O 0.59066 0.54348 0.80946 0.0
O181 O 0.65706 0.56004 0.81936 0.0
In182 In 0.37833 0.39293 0.54088 0.0
O183 O 0.34059 0.48894 0.55941 0.0
O184 O 0.4072 0.4735 0.56903 0.0
C185 C 0.3186 0.33605 0.50923 0.0
C186 C 0.43797 0.44815 0.50933 0.0
C187 C 0.38366 0.27569 0.57246 0.0
O188 O 0.31076 0.39195 0.52294 0.0
O189 O 0.3568 0.31038 0.51107 0.0
O190 O 0.41596 0.29732 0.55999 0.0
O191 O 0.34956 0.31403 0.56933 0.0
C192 C 0.37297 0.51151 0.57189 0.0
O193 O 0.44596 0.3934 0.52356 0.0
O194 O 0.39968 0.47355 0.51063 0.0
In195 In 0.37859 0.39296 0.16556 0.0
O196 O 0.3108 0.39404 0.18267 0.0
O197 O 0.35733 0.4733 0.19593 0.0
C198 C 0.37326 0.27559 0.134 0.0
C199 C 0.38397 0.51158 0.13458 0.0
C200 C 0.43829 0.33587 0.19715 0.0
O201 O 0.34106 0.29686 0.14662 0.0
O202 O 0.40725 0.31436 0.13697 0.0
O203 O 0.44627 0.39144 0.18333 0.0
O204 O 0.39998 0.31065 0.19545 0.0
C205 C 0.31891 0.4484 0.19704 0.0
O206 O 0.41626 0.48938 0.1472 0.0
O207 O 0.34984 0.4732 0.13728 0.0
C208 C 0.2955 0.23751 0.47881 0.0
C209 C 0.28526 0.30113 0.49307 0.0
H210 H 0.27262 0.15421 0.45321 0.0
C211 C 0.24262 0.32958 0.49228 0.0
H212 H 0.32807 0.21414 0.47911 0.0
C213 C 0.21084 0.29508 0.47751 0.0
C214 C 0.22107 0.23143 0.46327 0.0
H215 H 0.23372 0.37836 0.50313 0.0
H216 H 0.17826 0.31844 0.47722 0.0
C217 C 0.26372 0.203 0.46406 0.0
C218 C 0.9605 0.0438 0.47803 0.0
C219 C 0.97112 0.98224 0.49322 0.0
H220 H 0.98298 0.12457 0.45163 0.0
C221 C 0.01404 0.95498 0.49332 0.0
H222 H 0.9277 0.06621 0.47761 0.0
C223 C 0.04571 0.9886 0.47852 0.0
C224 C 0.03509 0.05014 0.46332 0.0
H225 H 0.02323 0.90782 0.50491 0.0
H226 H 0.0785 0.96618 0.47894 0.0
C227 C 0.99217 0.07741 0.46322 0.0
C228 C 0.29574 0.0445 0.72826 0.0
C229 C 0.28515 0.98263 0.71319 0.0
H230 H 0.27326 0.1256 0.75455 0.0
C231 C 0.24227 0.95514 0.71319 0.0
H232 H 0.3285 0.0671 0.72859 0.0
C233 C 0.21062 0.98884 0.72799 0.0
C234 C 0.22121 0.05069 0.74307 0.0
H235 H 0.2331 0.90773 0.7017 0.0
H236 H 0.17786 0.96623 0.72766 0.0
C237 C 0.26408 0.07819 0.74306 0.0
C238 C 0.99257 0.20332 0.74235 0.0
C239 C 0.0352 0.23186 0.74313 0.0
H240 H 0.92821 0.21425 0.7273 0.0
C241 C 0.04539 0.29549 0.72887 0.0
H242 H 0.98372 0.15453 0.7532 0.0
C243 C 0.01358 0.32988 0.71411 0.0
C244 C 0.97096 0.30132 0.71332 0.0
H245 H 0.07795 0.31894 0.72915 0.0
H246 H 0.02244 0.37866 0.70325 0.0
C247 C 0.96077 0.2377 0.72759 0.0
C248 C 0.79552 0.73721 0.47879 0.0
C249 C 0.78518 0.80062 0.49312 0.0
H250 H 0.77276 0.65403 0.4531 0.0
C251 C 0.74247 0.82877 0.4924 0.0
H252 H 0.82815 0.71407 0.47902 0.0
C253 C 0.71072 0.7942 0.47764 0.0
C254 C 0.72107 0.73079 0.4633 0.0
H255 H 0.73349 0.87737 0.50332 0.0
H256 H 0.6781 0.81734 0.4774 0.0
C257 C 0.76378 0.70263 0.46402 0.0
C258 C 0.7647 0.07664 0.24338 0.0
C259 C 0.72175 0.04951 0.24318 0.0
H260 H 0.82921 0.06544 0.22906 0.0
C261 C 0.71112 0.98817 0.22788 0.0
H262 H 0.7739 0.12363 0.25505 0.0
C263 C 0.74281 0.95465 0.21307 0.0
C264 C 0.78576 0.98181 0.21326 0.0
H265 H 0.6783 0.96586 0.22739 0.0
H266 H 0.73361 0.90767 0.2014 0.0
C267 C 0.79639 0.04313 0.22857 0.0
C268 C 0.01427 0.82977 0.2143 0.0
C269 C 0.9717 0.80099 0.21334 0.0
H270 H 0.07852 0.81891 0.22951 0.0
C271 C 0.9615 0.73705 0.22745 0.0
H272 H 0.02313 0.8788 0.20357 0.0
C273 C 0.99325 0.70257 0.24223 0.0
C274 C 0.03582 0.73134 0.24319 0.0
H275 H 0.92899 0.71342 0.22703 0.0
H276 H 0.98439 0.65354 0.25296 0.0
C277 C 0.04601 0.79529 0.22909 0.0
C278 C 0.24322 0.82994 -0.00775 0.0
C279 C 0.28582 0.80134 -0.00694 0.0
H280 H 0.17887 0.81906 0.97716 0.0
C281 C 0.29601 0.7377 -0.0212 0.0
H282 H 0.23436 0.87874 0.00311 0.0
C283 C 0.26421 0.70334 0.96402 0.0
C284 C 0.2216 0.73193 0.96321 0.0
H285 H 0.32855 0.71421 -0.02089 0.0
H286 H 0.27307 0.65454 0.95316 0.0
C287 C 0.21142 0.79558 0.97747 0.0
C288 C 0.04628 0.4886 -0.02177 0.0
C289 C 0.03571 0.55071 0.96328 0.0
H290 H 0.0238 0.40727 0.00444 0.0
C291 C 0.9929 0.57845 0.96342 0.0
H292 H 0.07898 0.4658 -0.02155 0.0
C293 C 0.96128 0.54475 -0.02176 0.0
C294 C 0.97184 0.48262 -0.00681 0.0
H295 H 0.98375 0.62606 0.95203 0.0
H296 H 0.92857 0.56754 0.97802 0.0
C297 C 0.01465 0.45489 -0.00695 0.0
C298 C 0.24268 0.45541 0.213 0.0
C299 C 0.28565 0.48243 0.21321 0.0
H300 H 0.17818 0.46675 0.22733 0.0
C301 C 0.29633 0.54373 0.22851 0.0
H302 H 0.23343 0.40846 0.20133 0.0
C303 C 0.26467 0.5773 0.24333 0.0
C304 C 0.2217 0.55025 0.24314 0.0
H305 H 0.32917 0.56596 0.229 0.0
H306 H 0.27391 0.62425 0.25501 0.0
C307 C 0.21102 0.48898 0.22782 0.0
C308 C 0.76464 0.20395 0.96367 0.0
C309 C 0.72171 0.23118 0.96338 0.0
H310 H 0.82922 0.21607 -0.02169 0.0
C311 C 0.7112 0.2936 0.97814 0.0
H312 H 0.77375 0.15614 0.95242 0.0
C313 C 0.74298 0.32812 -0.00712 0.0
C314 C 0.78591 0.30091 -0.00683 0.0
H315 H 0.6784 0.316 -0.02175 0.0
H316 H 0.73387 0.37594 0.00413 0.0
C317 C 0.79642 0.23847 -0.02158 0.0
C318 C 0.76375 0.57821 0.74294 0.0
C319 C 0.72106 0.54992 0.74324 0.0
H320 H 0.82802 0.56786 0.72822 0.0
C321 C 0.71065 0.48736 0.72844 0.0
H322 H 0.77278 0.62618 0.75421 0.0
C323 C 0.74231 0.45379 0.71361 0.0
C324 C 0.785 0.48209 0.71331 0.0
H325 H 0.67804 0.46414 0.72834 0.0
H326 H 0.73329 0.40583 0.70233 0.0
C327 C 0.79541 0.54463 0.72812 0.0
C328 C 0.54609 0.98731 0.978 0.0
C329 C 0.53569 0.04986 0.9632 0.0
H330 H 0.52345 0.90577 0.00409 0.0
C331 C 0.493 0.07813 0.9635 0.0
H332 H 0.5787 0.9641 0.9781 0.0
C333 C 0.46134 0.04453 -0.02168 0.0
C334 C 0.47174 0.98201 -0.00688 0.0
H335 H 0.48397 0.12608 0.95223 0.0
H336 H 0.42873 0.06775 -0.02178 0.0
C337 C 0.51443 0.95372 -0.00718 0.0
C338 C 0.46112 0.23794 0.22783 0.0
C339 C 0.47161 0.30083 0.21329 0.0
H340 H 0.48377 0.15514 0.25366 0.0
C341 C 0.51446 0.3284 0.21379 0.0
H342 H 0.42838 0.21526 0.22778 0.0
C343 C 0.5462 0.29378 0.22853 0.0
C344 C 0.53571 0.23089 0.24307 0.0
H345 H 0.52355 0.37658 0.2027 0.0
H346 H 0.57894 0.31646 0.22859 0.0
C347 C 0.49286 0.20332 0.24258 0.0
C348 C 0.46065 0.73788 0.72775 0.0
C349 C 0.47106 0.80095 0.71327 0.0
H350 H 0.48338 0.65504 0.75354 0.0
C351 C 0.51386 0.82876 0.71383 0.0
H352 H 0.42796 0.71501 0.72764 0.0
C353 C 0.54561 0.79423 0.72858 0.0
C354 C 0.5352 0.73119 0.74307 0.0
H355 H 0.52289 0.87708 0.7028 0.0
H356 H 0.5783 0.81712 0.72869 0.0
C357 C 0.49241 0.70335 0.74251 0.0
C358 C 0.46079 0.54427 0.4782 0.0
C359 C 0.47123 0.48206 0.49314 0.0
H360 H 0.48342 0.62545 0.45198 0.0
C361 C 0.51398 0.45402 0.49297 0.0
H362 H 0.42814 0.56729 0.478 0.0
C363 C 0.54565 0.48751 0.47814 0.0
C364 C 0.53522 0.54972 0.4632 0.0
H365 H 0.52303 0.40633 0.50435 0.0
H366 H 0.57831 0.46449 0.47834 0.0
C367 C 0.49247 0.57776 0.46337 0.0
C368 C 0.0954 0.85404 0.34689 0.0
C369 C 0.13484 0.82276 0.33888 0.0
H370 H 0.06421 0.94138 0.36733 0.0
C371 C 0.17424 0.85686 0.34606 0.0
H372 H 0.06451 0.82924 0.34156 0.0
C373 C 0.17408 0.9209 0.36118 0.0
C374 C 0.13449 0.95253 0.3689 0.0
H375 H 0.2051 0.83383 0.34012 0.0
H376 H 0.20481 0.94608 0.36661 0.0
C377 C 0.09522 0.91853 0.36155 0.0
C378 C 0.08253 0.35691 0.36047 0.0
C379 C 0.12193 0.32279 0.36762 0.0
H380 H 0.05196 0.44613 0.33994 0.0
C381 C 0.16136 0.354 0.35957 0.0
H382 H 0.05167 0.33394 0.36644 0.0
C383 C 0.16154 0.41845 0.3449 0.0
C384 C 0.12228 0.45248 0.33759 0.0
H385 H 0.19225 0.32917 0.36487 0.0
H386 H 0.19255 0.44124 0.3391 0.0
C387 C 0.08269 0.42093 0.34534 0.0
C388 C 0.09534 0.35594 0.84648 0.0
C389 C 0.13471 0.32422 0.83857 0.0
H390 H 0.0643 0.44359 0.86685 0.0
C391 C 0.17419 0.35792 0.84583 0.0
H392 H 0.06439 0.33145 0.84109 0.0
C393 C 0.17415 0.42197 0.86095 0.0
C394 C 0.13462 0.45399 0.86859 0.0
H395 H 0.20501 0.33454 0.83996 0.0
H396 H 0.20493 0.4468 0.86645 0.0
C397 C 0.09528 0.42043 0.86114 0.0
C398 C 0.16148 0.85611 0.85988 0.0
C399 C 0.1221 0.82422 0.86772 0.0
H400 H 0.19251 0.94386 0.83957 0.0
C401 C 0.08262 0.85772 0.86039 0.0
H402 H 0.19243 0.83177 0.86534 0.0
C403 C 0.08266 0.92175 0.84527 0.0
C404 C 0.12219 0.95393 0.8377 0.0
H405 H 0.0518 0.83421 0.8662 0.0
H406 H 0.05187 0.94642 0.8397 0.0
C407 C 0.16153 0.92057 0.84522 0.0
C408 C 0.91105 0.17637 0.61018 0.0
C409 C 0.87164 0.20864 0.61781 0.0
H410 H 0.94212 0.08832 0.59003 0.0
C411 C 0.83217 0.17548 0.61028 0.0
H412 H 0.94198 0.20043 0.6158 0.0
C413 C 0.83225 0.11144 0.59515 0.0
C414 C 0.8718 0.07889 0.58779 0.0
H415 H 0.80133 0.19929 0.61592 0.0
H416 H 0.80147 0.08705 0.58942 0.0
C417 C 0.91113 0.1119 0.59552 0.0
C418 C 0.92369 0.61095 0.61103 0.0
C419 C 0.88413 0.57885 0.6186 0.0
H420 H 0.95462 0.69842 0.59011 0.0
C421 C 0.84482 0.61229 0.61108 0.0
H422 H 0.95446 0.58621 0.6166 0.0
C423 C 0.84492 0.67677 0.59642 0.0
C424 C 0.88433 0.70858 0.58858 0.0
H425 H 0.81383 0.58907 0.61673 0.0
H426 H 0.81399 0.70117 0.59097 0.0
C427 C 0.92378 0.67498 0.59591 0.0
C428 C 0.83323 0.61137 0.0952 0.0
C429 C 0.87278 0.57892 0.08779 0.0
H430 H 0.80232 0.69915 0.116 0.0
C431 C 0.91211 0.61203 0.09547 0.0
H432 H 0.80245 0.58689 0.08951 0.0
C433 C 0.91202 0.67654 0.11012 0.0
C434 C 0.87262 0.7087 0.1178 0.0
H435 H 0.9431 0.58853 0.08994 0.0
H436 H 0.94296 0.70069 0.1157 0.0
C437 C 0.83315 0.67542 0.11032 0.0
C438 C 0.92469 0.11111 0.11109 0.0
C439 C 0.88513 0.07898 0.11864 0.0
H440 H 0.95561 0.19858 0.09015 0.0
C441 C 0.84582 0.11235 0.11109 0.0
H442 H 0.95546 0.08642 0.11668 0.0
C443 C 0.84591 0.17678 0.09641 0.0
C444 C 0.88532 0.20862 0.08859 0.0
H445 H 0.81482 0.0891 0.11672 0.0
H446 H 0.81498 0.20113 0.09093 0.0
C447 C 0.92477 0.1751 0.09595 0.0
C448 C 0.59525 0.85791 0.84558 0.0
C449 C 0.6346 0.82462 0.83834 0.0
H450 H 0.56434 0.94675 0.86545 0.0
C451 C 0.67412 0.85682 0.84622 0.0
H452 H 0.56428 0.83461 0.83968 0.0
C453 C 0.67415 0.92087 0.86134 0.0
C454 C 0.63467 0.95438 0.86836 0.0
H455 H 0.70492 0.8322 0.84087 0.0
H456 H 0.70497 0.94445 0.86737 0.0
C457 C 0.59529 0.9224 0.86024 0.0
C458 C 0.58263 0.35727 0.86048 0.0
C459 C 0.62216 0.3247 0.86818 0.0
H460 H 0.55178 0.44515 0.83947 0.0
C461 C 0.66151 0.3576 0.86075 0.0
H462 H 0.55183 0.33296 0.86598 0.0
C463 C 0.66147 0.42205 0.84608 0.0
C464 C 0.62209 0.45439 0.83815 0.0
H465 H 0.69248 0.33401 0.8665 0.0
H466 H 0.69242 0.44608 0.84072 0.0
C467 C 0.5826 0.42128 0.84535 0.0
C468 C 0.59538 0.35458 0.34644 0.0
C469 C 0.6348 0.32297 0.33854 0.0
H470 H 0.56425 0.44213 0.36681 0.0
C471 C 0.67423 0.35677 0.34582 0.0
H472 H 0.56446 0.33001 0.34104 0.0
C473 C 0.67412 0.42081 0.36095 0.0
C474 C 0.63455 0.45271 0.36857 0.0
H475 H 0.70508 0.33348 0.33996 0.0
H476 H 0.70488 0.44572 0.36646 0.0
C477 C 0.59525 0.41906 0.36111 0.0
C478 C 0.58259 0.85583 0.36005 0.0
C479 C 0.62204 0.82291 0.3677 0.0
H480 H 0.55193 0.94405 0.3391 0.0
C481 C 0.66147 0.85537 0.36019 0.0
H482 H 0.55174 0.83186 0.36561 0.0
C483 C 0.66158 0.91981 0.34552 0.0
C484 C 0.62227 0.95259 0.33767 0.0
H485 H 0.69239 0.83149 0.3659 0.0
H486 H 0.69258 0.94355 0.34012 0.0
C487 C 0.5827 0.91984 0.34492 0.0
C488 C 0.41183 0.1769 0.10999 0.0
C489 C 0.37243 0.20856 0.11789 0.0
H490 H 0.44292 0.08932 0.08961 0.0
C491 C 0.33298 0.17479 0.11063 0.0
H492 H 0.44276 0.20145 0.11538 0.0
C493 C 0.33306 0.11074 0.09551 0.0
C494 C 0.37262 0.07881 0.08787 0.0
H495 H 0.30215 0.19811 0.11649 0.0
H496 H 0.30229 0.08586 0.09 0.0
C497 C 0.41193 0.11242 0.09532 0.0
C498 C 0.4245 0.6118 0.11141 0.0
C499 C 0.38495 0.57895 0.11864 0.0
H500 H 0.45541 0.69986 0.09073 0.0
C501 C 0.34562 0.61162 0.11078 0.0
H502 H 0.45528 0.58767 0.11724 0.0
C503 C 0.34569 0.67607 0.09611 0.0
C504 C 0.3851 0.70864 0.08861 0.0
H505 H 0.31463 0.5878 0.11616 0.0
H506 H 0.31475 0.69987 0.09039 0.0
C507 C 0.42457 0.67581 0.09627 0.0
C508 C 0.41122 0.67667 0.61009 0.0
C509 C 0.37182 0.70866 0.61785 0.0
H510 H 0.4423 0.58883 0.58984 0.0
C511 C 0.33236 0.67521 0.61044 0.0
H512 H 0.44216 0.70095 0.6156 0.0
C513 C 0.33243 0.61117 0.59531 0.0
C514 C 0.37199 0.5789 0.58782 0.0
H515 H 0.30152 0.6988 0.61618 0.0
H516 H 0.30166 0.58656 0.58969 0.0
C517 C 0.41131 0.61219 0.59543 0.0
C518 C 0.3451 0.17638 0.5962 0.0
C519 C 0.3845 0.20867 0.58857 0.0
H520 H 0.31403 0.08831 0.61635 0.0
C521 C 0.42397 0.17556 0.5961 0.0
H522 H 0.31415 0.20041 0.59059 0.0
C523 C 0.4239 0.11153 0.61123 0.0
C524 C 0.38436 0.07896 0.61859 0.0
H525 H 0.4548 0.19939 0.59046 0.0
H526 H 0.45468 0.08718 0.61696 0.0
C527 C 0.34502 0.11192 0.61086 0.0
loop_
_geom_bond_atom_site_label_1
_geom_bond_atom_site_label_2
_geom_bond_distance
_geom_bond_site_symmetry_2
_ccdc_geom_bond_type
In0 O1 2.294 . S
In0 O2 2.326 . S
In0 O6 2.266 . S
In0 O7 2.326 . S
In0 O8 2.266 . S
In0 O9 2.326 . S
In0 O11 2.294 . S
In0 O12 2.326 . S
O1 In0 2.294 . S
O1 C10 1.240 . S
O2 In0 2.326 . S
O2 C10 1.252 . S
C3 O6 1.252 . S
C3 O7 1.260 . S
C4 O11 1.240 . S
C4 O12 1.252 . S
C5 O8 1.252 . S
C5 O9 1.260 . S
O6 In0 2.266 . S
O6 C3 1.252 . S
O7 In0 2.326 . S
O7 C3 1.260 . S
O8 In0 2.266 . S
O8 C5 1.252 . S
O9 In0 2.326 . S
O9 C5 1.260 . S
C10 O1 1.240 . S
C10 O2 1.252 . S
O11 In0 2.294 . S
O11 C4 1.240 . S
O12 In0 2.326 . S
O12 C4 1.252 . S
In13 O14 2.294 . S
In13 O15 2.326 . S
In13 O19 2.266 . S
In13 O20 2.326 . S
In13 O21 2.266 . S
In13 O22 2.326 . S
In13 O24 2.294 . S
In13 O25 2.326 . S
O14 In13 2.294 . S
O14 C23 1.240 . S
O15 In13 2.326 . S
O15 C23 1.252 . S
C16 O19 1.252 . S
C16 O20 1.260 . S
C17 O24 1.240 . S
C17 O25 1.252 . S
C18 O21 1.252 . S
C18 O22 1.260 . S
O19 In13 2.266 . S
O19 C16 1.252 . S
O20 In13 2.326 . S
O20 C16 1.260 . S
O21 In13 2.266 . S
O21 C18 1.252 . S
O22 In13 2.326 . S
O22 C18 1.260 . S
C23 O14 1.240 . S
C23 O15 1.252 . S
O24 In13 2.294 . S
O24 C17 1.240 . S
O25 In13 2.326 . S
O25 C17 1.252 . S
In26 O27 2.294 . S
In26 O28 2.326 . S
In26 O32 2.266 . S
In26 O33 2.326 . S
In26 O34 2.266 . S
In26 O35 2.326 . S
In26 O37 2.294 . S
In26 O38 2.326 . S
O27 In26 2.294 . S
O27 C36 1.240 . S
O28 In26 2.326 . S
O28 C36 1.252 . S
C29 O32 1.252 . S
C29 O33 1.260 . S
C30 O37 1.240 . S
C30 O38 1.252 . S
C31 O34 1.252 . S
C31 O35 1.260 . S
O32 In26 2.266 . S
O32 C29 1.252 . S
O33 In26 2.326 . S
O33 C29 1.260 . S
O34 In26 2.266 . S
O34 C31 1.252 . S
O35 In26 2.326 . S
O35 C31 1.260 . S
C36 O27 1.240 . S
C36 O28 1.252 . S
O37 In26 2.294 . S
O37 C30 1.240 . S
O38 In26 2.326 . S
O38 C30 1.252 . S
In39 O40 2.294 . S
In39 O41 2.326 . S
In39 O45 2.266 . S
In39 O46 2.326 . S
In39 O47 2.266 . S
In39 O48 2.326 . S
In39 O50 2.294 . S
In39 O51 2.326 . S
O40 In39 2.294 . S
O40 C49 1.240 . S
O41 In39 2.326 . S
O41 C49 1.252 . S
C42 O45 1.252 . S
C42 O46 1.260 . S
C43 O50 1.240 . S
C43 O51 1.252 . S
C44 O47 1.252 . S
C44 O48 1.260 . S
O45 In39 2.266 . S
O45 C42 1.252 . S
O46 In39 2.326 . S
O46 C42 1.260 . S
O47 In39 2.266 . S
O47 C44 1.252 . S
O48 In39 2.326 . S
O48 C44 1.260 . S
C49 O40 1.240 . S
C49 O41 1.252 . S
O50 In39 2.294 . S
O50 C43 1.240 . S
O51 In39 2.326 . S
O51 C43 1.252 . S
In52 O53 2.294 . S
In52 O54 2.326 . S
In52 O58 2.266 . S
In52 O59 2.326 . S
In52 O60 2.266 . S
In52 O61 2.326 . S
In52 O63 2.294 . S
In52 O64 2.326 . S
O53 In52 2.294 . S
O53 C62 1.240 . S
O54 In52 2.326 . S
O54 C62 1.252 . S
C55 O58 1.252 . S
C55 O59 1.260 . S
C56 O63 1.240 . S
C56 O64 1.252 . S
C57 O60 1.252 . S
C57 O61 1.260 . S
O58 In52 2.266 . S
O58 C55 1.252 . S
O59 In52 2.326 . S
O59 C55 1.260 . S
O60 In52 2.266 . S
O60 C57 1.252 . S
O61 In52 2.326 . S
O61 C57 1.260 . S
C62 O53 1.240 . S
C62 O54 1.252 . S
O63 In52 2.294 . S
O63 C56 1.240 . S
O64 In52 2.326 . S
O64 C56 1.252 . S
In65 O66 2.294 . S
In65 O67 2.326 . S
In65 O71 2.266 . S
In65 O72 2.326 . S
In65 O73 2.266 . S
In65 O74 2.326 . S
In65 O76 2.294 . S
In65 O77 2.326 . S
O66 In65 2.294 . S
O66 C75 1.240 . S
O67 In65 2.326 . S
O67 C75 1.252 . S
C68 O71 1.252 . S
C68 O72 1.260 . S
C69 O76 1.240 . S
C69 O77 1.252 . S
C70 O73 1.252 . S
C70 O74 1.260 . S
O71 In65 2.266 . S
O71 C68 1.252 . S
O72 In65 2.326 . S
O72 C68 1.260 . S
O73 In65 2.266 . S
O73 C70 1.252 . S
O74 In65 2.326 . S
O74 C70 1.260 . S
C75 O66 1.240 . S
C75 O67 1.252 . S
O76 In65 2.294 . S
O76 C69 1.240 . S
O77 In65 2.326 . S
O77 C69 1.252 . S
In78 O79 2.294 . S
In78 O80 2.326 . S
In78 O84 2.266 . S
In78 O85 2.326 . S
In78 O86 2.266 . S
In78 O87 2.326 . S
In78 O89 2.294 . S
In78 O90 2.326 . S
O79 In78 2.294 . S
O79 C88 1.240 . S
O80 In78 2.326 . S
O80 C88 1.252 . S
C81 O84 1.252 . S
C81 O85 1.260 . S
C82 O89 1.240 . S
C82 O90 1.252 . S
C83 O86 1.252 . S
C83 O87 1.260 . S
O84 In78 2.266 . S
O84 C81 1.252 . S
O85 In78 2.326 . S
O85 C81 1.260 . S
O86 In78 2.266 . S
O86 C83 1.252 . S
O87 In78 2.326 . S
O87 C83 1.260 . S
C88 O79 1.240 . S
C88 O80 1.252 . S
O89 In78 2.294 . S
O89 C82 1.240 . S
O90 In78 2.326 . S
O90 C82 1.252 . S
In91 O92 2.294 . S
In91 O93 2.326 . S
In91 O97 2.266 . S
In91 O98 2.326 . S
In91 O99 2.266 . S
In91 O100 2.326 . S
In91 O102 2.294 . S
In91 O103 2.326 . S
O92 In91 2.294 . S
O92 C101 1.240 . S
O93 In91 2.326 . S
O93 C101 1.252 . S
C94 O97 1.252 . S
C94 O98 1.260 . S
C95 O102 1.240 . S
C95 O103 1.252 . S
C96 O99 1.252 . S
C96 O100 1.260 . S
O97 In91 2.266 . S
O97 C94 1.252 . S
O98 In91 2.326 . S
O98 C94 1.260 . S
O99 In91 2.266 . S
O99 C96 1.252 . S
O100 In91 2.326 . S
O100 C96 1.260 . S
C101 O92 1.240 . S
C101 O93 1.252 . S
O102 In91 2.294 . S
O102 C95 1.240 . S
O103 In91 2.326 . S
O103 C95 1.252 . S
In104 O105 2.294 . S
In104 O106 2.326 . S
In104 O110 2.266 . S
In104 O111 2.326 . S
In104 O112 2.266 . S
In104 O113 2.326 . S
In104 O115 2.294 . S
In104 O116 2.326 . S
O105 In104 2.294 . S
O105 C114 1.240 . S
O106 In104 2.326 . S
O106 C114 1.252 . S
C107 O110 1.252 . S
C107 O111 1.260 . S
C108 O115 1.240 . S
C108 O116 1.252 . S
C109 O112 1.252 . S
C109 O113 1.260 . S
O110 In104 2.266 . S
O110 C107 1.252 . S
O111 In104 2.326 . S
O111 C107 1.260 . S
O112 In104 2.266 . S
O112 C109 1.252 . S
O113 In104 2.326 . S
O113 C109 1.260 . S
C114 O105 1.240 . S
C114 O106 1.252 . S
O115 In104 2.294 . S
O115 C108 1.240 . S
O116 In104 2.326 . S
O116 C108 1.252 . S
In117 O118 2.294 . S
In117 O119 2.326 . S
In117 O123 2.266 . S
In117 O124 2.326 . S
In117 O125 2.266 . S
In117 O126 2.326 . S
In117 O128 2.294 . S
In117 O129 2.326 . S
O118 In117 2.294 . S
O118 C127 1.240 . S
O119 In117 2.326 . S
O119 C127 1.252 . S
C120 O123 1.252 . S
C120 O124 1.260 . S
C121 O128 1.240 . S
C121 O129 1.252 . S
C122 O125 1.252 . S
C122 O126 1.260 . S
O123 In117 2.266 . S
O123 C120 1.252 . S
O124 In117 2.326 . S
O124 C120 1.260 . S
O125 In117 2.266 . S
O125 C122 1.252 . S
O126 In117 2.326 . S
O126 C122 1.260 . S
C127 O118 1.240 . S
C127 O119 1.252 . S
O128 In117 2.294 . S
O128 C121 1.240 . S
O129 In117 2.326 . S
O129 C121 1.252 . S
In130 O131 2.294 . S
In130 O132 2.326 . S
In130 O136 2.266 . S
In130 O137 2.326 . S
In130 O138 2.266 . S
In130 O139 2.326 . S
In130 O141 2.294 . S
In130 O142 2.326 . S
O131 In130 2.294 . S
O131 C140 1.240 . S
O132 In130 2.326 . S
O132 C140 1.252 . S
C133 O136 1.252 . S
C133 O137 1.260 . S
C134 O141 1.240 . S
C134 O142 1.252 . S
C135 O138 1.252 . S
C135 O139 1.260 . S
O136 In130 2.266 . S
O136 C133 1.252 . S
O137 In130 2.326 . S
O137 C133 1.260 . S
O138 In130 2.266 . S
O138 C135 1.252 . S
O139 In130 2.326 . S
O139 C135 1.260 . S
C140 O131 1.240 . S
C140 O132 1.252 . S
O141 In130 2.294 . S
O141 C134 1.240 . S
O142 In130 2.326 . S
O142 C134 1.252 . S
In143 O144 2.294 . S
In143 O145 2.326 . S
In143 O149 2.266 . S
In143 O150 2.326 . S
In143 O151 2.266 . S
In143 O152 2.326 . S
In143 O154 2.294 . S
In143 O155 2.326 . S
O144 In143 2.294 . S
O144 C153 1.240 . S
O145 In143 2.326 . S
O145 C153 1.252 . S
C146 O149 1.252 . S
C146 O150 1.260 . S
C147 O154 1.240 . S
C147 O155 1.252 . S
C148 O151 1.252 . S
C148 O152 1.260 . S
O149 In143 2.266 . S
O149 C146 1.252 . S
O150 In143 2.326 . S
O150 C146 1.260 . S
O151 In143 2.266 . S
O151 C148 1.252 . S
O152 In143 2.326 . S
O152 C148 1.260 . S
C153 O144 1.240 . S
C153 O145 1.252 . S
O154 In143 2.294 . S
O154 C147 1.240 . S
O155 In143 2.326 . S
O155 C147 1.252 . S
In156 O157 2.294 . S
In156 O158 2.326 . S
In156 O162 2.266 . S
In156 O163 2.326 . S
In156 O164 2.266 . S
In156 O165 2.326 . S
In156 O167 2.294 . S
In156 O168 2.326 . S
O157 In156 2.294 . S
O157 C166 1.240 . S
O158 In156 2.326 . S
O158 C166 1.252 . S
C159 O162 1.252 . S
C159 O163 1.260 . S
C160 O167 1.240 . S
C160 O168 1.252 . S
C161 O164 1.252 . S
C161 O165 1.260 . S
O162 In156 2.266 . S
O162 C159 1.252 . S
O163 In156 2.326 . S
O163 C159 1.260 . S
O164 In156 2.266 . S
O164 C161 1.252 . S
O165 In156 2.326 . S
O165 C161 1.260 . S
C166 O157 1.240 . S
C166 O158 1.252 . S
O167 In156 2.294 . S
O167 C160 1.240 . S
O168 In156 2.326 . S
O168 C160 1.252 . S
In169 O170 2.294 . S
In169 O171 2.326 . S
In169 O175 2.266 . S
In169 O176 2.326 . S
In169 O177 2.266 . S
In169 O178 2.326 . S
In169 O180 2.294 . S
In169 O181 2.326 . S
O170 In169 2.294 . S
O170 C179 1.240 . S
O171 In169 2.326 . S
O171 C179 1.252 . S
C172 O175 1.252 . S
C172 O176 1.260 . S
C173 O180 1.240 . S
C173 O181 1.252 . S
C174 O177 1.252 . S
C174 O178 1.260 . S
O175 In169 2.266 . S
O175 C172 1.252 . S
O176 In169 2.326 . S
O176 C172 1.260 . S
O177 In169 2.266 . S
O177 C174 1.252 . S
O178 In169 2.326 . S
O178 C174 1.260 . S
C179 O170 1.240 . S
C179 O171 1.252 . S
O180 In169 2.294 . S
O180 C173 1.240 . S
O181 In169 2.326 . S
O181 C173 1.252 . S
In182 O183 2.294 . S
In182 O184 2.326 . S
In182 O188 2.266 . S
In182 O189 2.326 . S
In182 O190 2.266 . S
In182 O191 2.326 . S
In182 O193 2.294 . S
In182 O194 2.326 . S
O183 In182 2.294 . S
O183 C192 1.240 . S
O184 In182 2.326 . S
O184 C192 1.252 . S
C185 O188 1.252 . S
C185 O189 1.260 . S
C186 O193 1.240 . S
C186 O194 1.252 . S
C187 O190 1.252 . S
C187 O191 1.260 . S
O188 In182 2.266 . S
O188 C185 1.252 . S
O189 In182 2.326 . S
O189 C185 1.260 . S
O190 In182 2.266 . S
O190 C187 1.252 . S
O191 In182 2.326 . S
O191 C187 1.260 . S
C192 O183 1.240 . S
C192 O184 1.252 . S
O193 In182 2.294 . S
O193 C186 1.240 . S
O194 In182 2.326 . S
O194 C186 1.252 . S
In195 O196 2.294 . S
In195 O197 2.326 . S
In195 O201 2.266 . S
In195 O202 2.326 . S
In195 O203 2.266 . S
In195 O204 2.326 . S
In195 O206 2.294 . S
In195 O207 2.326 . S
O196 In195 2.294 . S
O196 C205 1.240 . S
O197 In195 2.326 . S
O197 C205 1.252 . S
C198 O201 1.252 . S
C198 O202 1.260 . S
C199 O206 1.240 . S
C199 O207 1.252 . S
C200 O203 1.252 . S
C200 O204 1.260 . S
O201 In195 2.266 . S
O201 C198 1.252 . S
O202 In195 2.326 . S
O202 C198 1.260 . S
O203 In195 2.266 . S
O203 C200 1.252 . S
O204 In195 2.326 . S
O204 C200 1.260 . S
C205 O196 1.240 . S
C205 O197 1.252 . S
O206 In195 2.294 . S
O206 C199 1.240 . S
O207 In195 2.326 . S
O207 C199 1.252 . S
C208 C209 1.387 . S
C208 H212 0.950 . S
C208 C217 1.390 . S
C209 C208 1.387 . S
C209 C211 1.387 . S
H210 C217 0.950 . S
C211 C209 1.387 . S
C211 C213 1.390 . S
C211 H215 0.950 . S
H212 C208 0.950 . S
C213 C211 1.390 . S
C213 C214 1.387 . S
C213 H216 0.950 . S
C214 C213 1.387 . S
C214 C217 1.387 . S
H215 C211 0.950 . S
H216 C213 0.950 . S
C217 C208 1.390 . S
C217 H210 0.950 . S
C217 C214 1.387 . S
C218 C219 1.387 1_545 S
C218 H222 0.950 . S
C218 C227 1.390 . S
C219 C218 1.387 1_565 S
C219 C221 1.387 1_655 S
H220 C227 0.950 . S
C221 C219 1.387 1_455 S
C221 C223 1.390 . S
C221 H225 0.950 . S
H222 C218 0.950 . S
C223 C221 1.390 . S
C223 C224 1.387 1_565 S
C223 H226 0.950 . S
C224 C223 1.387 1_545 S
C224 C227 1.387 1_455 S
H225 C221 0.950 . S
H226 C223 0.950 . S
C227 C218 1.390 . S
C227 H220 0.950 . S
C227 C224 1.387 1_655 S
C228 C229 1.387 1_545 S
C228 H232 0.950 . S
C228 C237 1.390 . S
C229 C228 1.387 1_565 S
C229 C231 1.387 . S
H230 C237 0.950 . S
C231 C229 1.387 . S
C231 C233 1.390 . S
C231 H235 0.950 . S
H232 C228 0.950 . S
C233 C231 1.390 . S
C233 C234 1.387 1_565 S
C233 H236 0.950 . S
C234 C233 1.387 1_545 S
C234 C237 1.387 . S
H235 C231 0.950 . S
H236 C233 0.950 . S
C237 C228 1.390 . S
C237 H230 0.950 . S
C237 C234 1.387 . S
C238 C239 1.387 . S
C238 H242 0.950 . S
C238 C247 1.390 1_455 S
C239 C238 1.387 . S
C239 C241 1.387 . S
H240 C247 0.950 . S
C241 C239 1.387 . S
C241 C243 1.390 1_455 S
C241 H245 0.950 . S
H242 C238 0.950 . S
C243 C241 1.390 1_655 S
C243 C244 1.387 . S
C243 H246 0.950 . S
C244 C243 1.387 . S
C244 C247 1.387 . S
H245 C241 0.950 . S
H246 C243 0.950 . S
C247 C238 1.390 1_655 S
C247 H240 0.950 . S
C247 C244 1.387 . S
C248 C249 1.387 . S
C248 H252 0.950 . S
C248 C257 1.390 . S
C249 C248 1.387 . S
C249 C251 1.387 . S
H250 C257 0.950 . S
C251 C249 1.387 . S
C251 C253 1.390 . S
C251 H255 0.950 . S
H252 C248 0.950 . S
C253 C251 1.390 . S
C253 C254 1.387 . S
C253 H256 0.950 . S
C254 C253 1.387 . S
C254 C257 1.387 . S
H255 C251 0.950 . S
H256 C253 0.950 . S
C257 C248 1.390 . S
C257 H250 0.950 . S
C257 C254 1.387 . S
C258 C259 1.387 1_565 S
C258 H262 0.950 . S
C258 C267 1.390 . S
C259 C258 1.387 1_545 S
C259 C261 1.387 . S
H260 C267 0.950 . S
C261 C259 1.387 . S
C261 C263 1.390 . S
C261 H265 0.950 . S
H262 C258 0.950 . S
C263 C261 1.390 . S
C263 C264 1.387 1_545 S
C263 H266 0.950 . S
C264 C263 1.387 1_565 S
C264 C267 1.387 . S
H265 C261 0.950 . S
H266 C263 0.950 . S
C267 C258 1.390 . S
C267 H260 0.950 . S
C267 C264 1.387 . S
C268 C269 1.387 . S
C268 H272 0.950 . S
C268 C277 1.390 1_655 S
C269 C268 1.387 . S
C269 C271 1.387 . S
H270 C277 0.950 . S
C271 C269 1.387 . S
C271 C273 1.390 1_655 S
C271 H275 0.950 . S
H272 C268 0.950 . S
C273 C271 1.390 1_455 S
C273 C274 1.387 . S
C273 H276 0.950 . S
C274 C273 1.387 . S
C274 C277 1.387 . S
H275 C271 0.950 . S
H276 C273 0.950 . S
C277 C268 1.390 1_455 S
C277 H270 0.950 . S
C277 C274 1.387 . S
C278 C279 1.387 1_556 S
C278 H282 0.950 . S
C278 C287 1.390 . S
C279 C278 1.387 1_554 S
C279 C281 1.387 . S
H280 C287 0.950 . S
C281 C279 1.387 . S
C281 C283 1.390 . S
C281 H285 0.950 . S
H282 C278 0.950 . S
C283 C281 1.390 . S
C283 C284 1.387 1_554 S
C283 H286 0.950 . S
C284 C283 1.387 1_556 S
C284 C287 1.387 . S
H285 C281 0.950 . S
H286 C283 0.950 . S
C287 C278 1.390 . S
C287 H280 0.950 . S
C287 C284 1.387 . S
C288 C289 1.387 . S
C288 H292 0.950 . S
C288 C297 1.390 1_455 S
C289 C288 1.387 . S
C289 C291 1.387 1_556 S
H290 C297 0.950 . S
C291 C289 1.387 1_554 S
C291 C293 1.390 1_455 S
C291 H295 0.950 . S
H292 C288 0.950 . S
C293 C291 1.390 1_655 S
C293 C294 1.387 . S
C293 H296 0.950 . S
C294 C293 1.387 . S
C294 C297 1.387 1_554 S
H295 C291 0.950 . S
H296 C293 0.950 . S
C297 C288 1.390 1_655 S
C297 H290 0.950 . S
C297 C294 1.387 1_556 S
C298 C299 1.387 . S
C298 H302 0.950 . S
C298 C307 1.390 . S
C299 C298 1.387 . S
C299 C301 1.387 . S
H300 C307 0.950 . S
C301 C299 1.387 . S
C301 C303 1.390 . S
C301 H305 0.950 . S
H302 C298 0.950 . S
C303 C301 1.390 . S
C303 C304 1.387 . S
C303 H306 0.950 . S
C304 C303 1.387 . S
C304 C307 1.387 . S
H305 C301 0.950 . S
H306 C303 0.950 . S
C307 C298 1.390 . S
C307 H300 0.950 . S
C307 C304 1.387 . S
C308 C309 1.387 . S
C308 H312 0.950 . S
C308 C317 1.390 . S
C309 C308 1.387 . S
C309 C311 1.387 1_556 S
H310 C317 0.950 . S
C311 C309 1.387 1_554 S
C311 C313 1.390 . S
C311 H315 0.950 . S
H312 C308 0.950 . S
C313 C311 1.390 . S
C313 C314 1.387 . S
C313 H316 0.950 . S
C314 C313 1.387 . S
C314 C317 1.387 1_554 S
H315 C311 0.950 . S
H316 C313 0.950 . S
C317 C308 1.390 . S
C317 H310 0.950 . S
C317 C314 1.387 1_556 S
C318 C319 1.387 . S
C318 H322 0.950 . S
C318 C327 1.390 . S
C319 C318 1.387 . S
C319 C321 1.387 . S
H320 C327 0.950 . S
C321 C319 1.387 . S
C321 C323 1.390 . S
C321 H325 0.950 . S
H322 C318 0.950 . S
C323 C321 1.390 . S
C323 C324 1.387 . S
C323 H326 0.950 . S
C324 C323 1.387 . S
C324 C327 1.387 . S
H325 C321 0.950 . S
H326 C323 0.950 . S
C327 C318 1.390 . S
C327 H320 0.950 . S
C327 C324 1.387 . S
C328 C329 1.387 1_565 S
C328 H332 0.950 . S
C328 C337 1.399 . S
C329 C328 1.387 1_545 S
C329 C331 1.379 1_556 S
H330 C337 0.950 . S
C331 C329 1.379 1_554 S
C331 C333 1.399 . S
C331 H335 0.950 . S
H332 C328 0.950 . S
C333 C331 1.399 . S
C333 C334 1.387 1_545 S
C333 H336 0.950 . S
C334 C333 1.387 1_565 S
C334 C337 1.379 1_554 S
H335 C331 0.950 . S
H336 C333 0.950 . S
C337 C328 1.399 . S
C337 H330 0.950 . S
C337 C334 1.379 1_556 S
C338 C339 1.387 . S
C338 H342 0.950 . S
C338 C347 1.390 . S
C339 C338 1.387 . S
C339 C341 1.387 . S
H340 C347 0.950 . S
C341 C339 1.387 . S
C341 C343 1.390 . S
C341 H345 0.950 . S
H342 C338 0.950 . S
C343 C341 1.390 . S
C343 C344 1.387 . S
C343 H346 0.950 . S
C344 C343 1.387 . S
C344 C347 1.387 . S
H345 C341 0.950 . S
H346 C343 0.950 . S
C347 C338 1.390 . S
C347 H340 0.950 . S
C347 C344 1.387 . S
C348 C349 1.387 . S
C348 H352 0.950 . S
C348 C357 1.390 . S
C349 C348 1.387 . S
C349 C351 1.387 . S
H350 C357 0.950 . S
C351 C349 1.387 . S
C351 C353 1.390 . S
C351 H355 0.950 . S
H352 C348 0.950 . S
C353 C351 1.390 . S
C353 C354 1.387 . S
C353 H356 0.950 . S
C354 C353 1.387 . S
C354 C357 1.387 . S
H355 C351 0.950 . S
H356 C353 0.950 . S
C357 C348 1.390 . S
C357 H350 0.950 . S
C357 C354 1.387 . S
C358 C359 1.387 . S
C358 H362 0.950 . S
C358 C367 1.390 . S
C359 C358 1.387 . S
C359 C361 1.387 . S
H360 C367 0.950 . S
C361 C359 1.387 . S
C361 C363 1.390 . S
C361 H365 0.950 . S
H362 C358 0.950 . S
C363 C361 1.390 . S
C363 C364 1.387 . S
C363 H366 0.950 . S
C364 C363 1.387 . S
C364 C367 1.387 . S
H365 C361 0.950 . S
H366 C363 0.950 . S
C367 C358 1.390 . S
C367 H360 0.950 . S
C367 C364 1.387 . S
C368 C369 1.387 . S
C368 H372 0.950 . S
C368 C377 1.390 . S
C369 C368 1.387 . S
C369 C371 1.387 . S
H370 C377 0.950 . S
C371 C369 1.387 . S
C371 C373 1.390 . S
C371 H375 0.950 . S
H372 C368 0.950 . S
C373 C371 1.390 . S
C373 C374 1.387 . S
C373 H376 0.950 . S
C374 C373 1.387 . S
C374 C377 1.387 . S
H375 C371 0.950 . S
H376 C373 0.950 . S
C377 C368 1.390 . S
C377 H370 0.950 . S
C377 C374 1.387 . S
C378 C379 1.387 . S
C378 H382 0.950 . S
C378 C387 1.390 . S
C379 C378 1.387 . S
C379 C381 1.387 . S
H380 C387 0.950 . S
C381 C379 1.387 . S
C381 C383 1.390 . S
C381 H385 0.950 . S
H382 C378 0.950 . S
C383 C381 1.390 . S
C383 C384 1.387 . S
C383 H386 0.950 . S
C384 C383 1.387 . S
C384 C387 1.387 . S
H385 C381 0.950 . S
H386 C383 0.950 . S
C387 C378 1.390 . S
C387 H380 0.950 . S
C387 C384 1.387 . S
C388 C389 1.387 . S
C388 H392 0.950 . S
C388 C397 1.390 . S
C389 C388 1.387 . S
C389 C391 1.387 . S
H390 C397 0.950 . S
C391 C389 1.387 . S
C391 C393 1.390 . S
C391 H395 0.950 . S
H392 C388 0.950 . S
C393 C391 1.390 . S
C393 C394 1.387 . S
C393 H396 0.950 . S
C394 C393 1.387 . S
C394 C397 1.387 . S
H395 C391 0.950 . S
H396 C393 0.950 . S
C397 C388 1.390 . S
C397 H390 0.950 . S
C397 C394 1.387 . S
C398 C399 1.387 . S
C398 H402 0.950 . S
C398 C407 1.390 . S
C399 C398 1.387 . S
C399 C401 1.387 . S
H400 C407 0.950 . S
C401 C399 1.387 . S
C401 C403 1.390 . S
C401 H405 0.950 . S
H402 C398 0.950 . S
C403 C401 1.390 . S
C403 C404 1.387 . S
C403 H406 0.950 . S
C404 C403 1.387 . S
C404 C407 1.387 . S
H405 C401 0.950 . S
H406 C403 0.950 . S
C407 C398 1.390 . S
C407 H400 0.950 . S
C407 C404 1.387 . S
C408 C409 1.387 . S
C408 H412 0.950 . S
C408 C417 1.390 . S
C409 C408 1.387 . S
C409 C411 1.387 . S
H410 C417 0.950 . S
C411 C409 1.387 . S
C411 C413 1.390 . S
C411 H415 0.950 . S
H412 C408 0.950 . S
C413 C411 1.390 . S
C413 C414 1.387 . S
C413 H416 0.950 . S
C414 C413 1.387 . S
C414 C417 1.387 . S
H415 C411 0.950 . S
H416 C413 0.950 . S
C417 C408 1.390 . S
C417 H410 0.950 . S
C417 C414 1.387 . S
C418 C419 1.387 . S
C418 H422 0.950 . S
C418 C427 1.390 . S
C419 C418 1.387 . S
C419 C421 1.387 . S
H420 C427 0.950 . S
C421 C419 1.387 . S
C421 C423 1.390 . S
C421 H425 0.950 . S
H422 C418 0.950 . S
C423 C421 1.390 . S
C423 C424 1.387 . S
C423 H426 0.950 . S
C424 C423 1.387 . S
C424 C427 1.387 . S
H425 C421 0.950 . S
H426 C423 0.950 . S
C427 C418 1.390 . S
C427 H420 0.950 . S
C427 C424 1.387 . S
C428 C429 1.387 . S
C428 H432 0.950 . S
C428 C437 1.390 . S
C429 C428 1.387 . S
C429 C431 1.387 . S
H430 C437 0.950 . S
C431 C429 1.387 . S
C431 C433 1.390 . S
C431 H435 0.950 . S
H432 C428 0.950 . S
C433 C431 1.390 . S
C433 C434 1.387 . S
C433 H436 0.950 . S
C434 C433 1.387 . S
C434 C437 1.387 . S
H435 C431 0.950 . S
H436 C433 0.950 . S
C437 C428 1.390 . S
C437 H430 0.950 . S
C437 C434 1.387 . S
C438 C439 1.387 . S
C438 H442 0.950 . S
C438 C447 1.390 . S
C439 C438 1.387 . S
C439 C441 1.387 . S
H440 C447 0.950 . S
C441 C439 1.387 . S
C441 C443 1.390 . S
C441 H445 0.950 . S
H442 C438 0.950 . S
C443 C441 1.390 . S
C443 C444 1.387 . S
C443 H446 0.950 . S
C444 C443 1.387 . S
C444 C447 1.387 . S
H445 C441 0.950 . S
H446 C443 0.950 . S
C447 C438 1.390 . S
C447 H440 0.950 . S
C447 C444 1.387 . S
C448 C449 1.387 . S
C448 H452 0.950 . S
C448 C457 1.390 . S
C449 C448 1.387 . S
C449 C451 1.387 . S
H450 C457 0.950 . S
C451 C449 1.387 . S
C451 C453 1.390 . S
C451 H455 0.950 . S
H452 C448 0.950 . S
C453 C451 1.390 . S
C453 C454 1.387 . S
C453 H456 0.950 . S
C454 C453 1.387 . S
C454 C457 1.387 . S
H455 C451 0.950 . S
H456 C453 0.950 . S
C457 C448 1.390 . S
C457 H450 0.950 . S
C457 C454 1.387 . S
C458 C459 1.387 . S
C458 H462 0.950 . S
C458 C467 1.390 . S
C459 C458 1.387 . S
C459 C461 1.387 . S
H460 C467 0.950 . S
C461 C459 1.387 . S
C461 C463 1.390 . S
C461 H465 0.950 . S
H462 C458 0.950 . S
C463 C461 1.390 . S
C463 C464 1.387 . S
C463 H466 0.950 . S
C464 C463 1.387 . S
C464 C467 1.387 . S
H465 C461 0.950 . S
H466 C463 0.950 . S
C467 C458 1.390 . S
C467 H460 0.950 . S
C467 C464 1.387 . S
C468 C469 1.387 . S
C468 H472 0.950 . S
C468 C477 1.390 . S
C469 C468 1.387 . S
C469 C471 1.387 . S
H470 C477 0.950 . S
C471 C469 1.387 . S
C471 C473 1.390 . S
C471 H475 0.950 . S
H472 C468 0.950 . S
C473 C471 1.390 . S
C473 C474 1.387 . S
C473 H476 0.950 . S
C474 C473 1.387 . S
C474 C477 1.387 . S
H475 C471 0.950 . S
H476 C473 0.950 . S
C477 C468 1.390 . S
C477 H470 0.950 . S
C477 C474 1.387 . S
C478 C479 1.387 . S
C478 H482 0.950 . S
C478 C487 1.390 . S
C479 C478 1.387 . S
C479 C481 1.387 . S
H480 C487 0.950 . S
C481 C479 1.387 . S
C481 C483 1.390 . S
C481 H485 0.950 . S
H482 C478 0.950 . S
C483 C481 1.390 . S
C483 C484 1.387 . S
C483 H486 0.950 . S
C484 C483 1.387 . S
C484 C487 1.387 . S
H485 C481 0.950 . S
H486 C483 0.950 . S
C487 C478 1.390 . S
C487 H480 0.950 . S
C487 C484 1.387 . S
C488 C489 1.387 . S
C488 H492 0.950 . S
C488 C497 1.390 . S
C489 C488 1.387 . S
C489 C491 1.387 . S
H490 C497 0.950 . S
C491 C489 1.387 . S
C491 C493 1.390 . S
C491 H495 0.950 . S
H492 C488 0.950 . S
C493 C491 1.390 . S
C493 C494 1.387 . S
C493 H496 0.950 . S
C494 C493 1.387 . S
C494 C497 1.387 . S
H495 C491 0.950 . S
H496 C493 0.950 . S
C497 C488 1.390 . S
C497 H490 0.950 . S
C497 C494 1.387 . S
C498 C499 1.387 . S
C498 H502 0.950 . S
C498 C507 1.390 . S
C499 C498 1.387 . S
C499 C501 1.387 . S
H500 C507 0.950 . S
C501 C499 1.387 . S
C501 C503 1.390 . S
C501 H505 0.950 . S
H502 C498 0.950 . S
C503 C501 1.390 . S
C503 C504 1.387 . S
C503 H506 0.950 . S
C504 C503 1.387 . S
C504 C507 1.387 . S
H505 C501 0.950 . S
H506 C503 0.950 . S
C507 C498 1.390 . S
C507 H500 0.950 . S
C507 C504 1.387 . S
C508 C509 1.387 . S
C508 H512 0.950 . S
C508 C517 1.390 . S
C509 C508 1.387 . S
C509 C511 1.387 . S
H510 C517 0.950 . S
C511 C509 1.387 . S
C511 C513 1.390 . S
C511 H515 0.950 . S
H512 C508 0.950 . S
C513 C511 1.390 . S
C513 C514 1.387 . S
C513 H516 0.950 . S
C514 C513 1.387 . S
C514 C517 1.387 . S
H515 C511 0.950 . S
H516 C513 0.950 . S
C517 C508 1.390 . S
C517 H510 0.950 . S
C517 C514 1.387 . S
C518 C519 1.387 . S
C518 H522 0.950 . S
C518 C527 1.390 . S
C519 C518 1.387 . S
C519 C521 1.387 . S
H520 C527 0.950 . S
C521 C519 1.387 . S
C521 C523 1.390 . S
C521 H525 0.950 . S
H522 C518 0.950 . S
C523 C521 1.390 . S
C523 C524 1.387 . S
C523 H526 0.950 . S
C524 C523 1.387 . S
C524 C527 1.387 . S
H525 C521 0.950 . S
H526 C523 0.950 . S
C527 C518 1.390 . S
C527 H520 0.950 . S
C527 C524 1.387 . S
C209 C185 1.507 . S
C214 C3 1.507 . S
C219 C30 1.507 . S
C224 C4 1.507 . S
C229 C153 1.507 . S
C234 C17 1.507 . S
C239 C16 1.507 . S
C244 C96 1.507 . S
C249 C29 1.507 . S
C254 C159 1.507 . S
C259 C127 1.507 . S
C264 C49 1.507 . S
C269 C44 1.507 . S
C274 C68 1.507 . S
C279 C135 1.507 . S
C284 C55 1.507 . S
C289 C56 1.507 . S
C294 C82 1.507 . S
C299 C205 1.507 . S
C304 C69 1.507 . S
C309 C107 1.507 . S
C314 C81 1.507 . S
C319 C179 1.507 . S
C324 C101 1.507 . S
C329 C108 1.507 . S
C334 C140 1.507 . S
C339 C200 1.507 . S
C344 C122 1.507 . S
C349 C148 1.507 . S
C354 C174 1.507 . S
C359 C186 1.507 . S
C364 C160 1.507 . S
C369 C70 1.556 . S
C374 C10 1.555 1_565 S
C379 C5 1.556 . S
C384 C75 1.555 . S
C389 C18 1.556 . S
C394 C62 1.555 . S
C399 C57 1.556 . S
C404 C23 1.555 1_565 S
C409 C94 1.556 . S
C414 C36 1.555 1_545 S
C419 C95 1.555 . S
C424 C31 1.556 . S
C429 C88 1.555 . S
C434 C42 1.556 . S
C439 C43 1.555 1_545 S
C444 C83 1.556 . S
C449 C172 1.556 . S
C454 C114 1.555 1_565 S
C459 C109 1.556 . S
C464 C173 1.555 . S
C469 C120 1.556 . S
C474 C166 1.555 . S
C479 C161 1.556 . S
C484 C121 1.555 1_565 S
C489 C198 1.556 . S
C494 C134 1.555 1_545 S
C499 C199 1.555 . S
C504 C133 1.556 . S
C509 C146 1.556 . S
C514 C192 1.555 . S
C519 C187 1.556 . S
C524 C147 1.555 1_545 S
