# Generated by pormake.
# Topology lhb, (8)-cn, num edge types: 1
# Building blocks:
#     Node 0, Type 0, BuildingBlock: LIZSOE_clean_sbu_0, # of connection points: 8
#     Node 1, Type 0, BuildingBlock: LIZSOE_clean_sbu_0, # of connection points: 8
#     Node 2, Type 0, BuildingBlock: LIZSOE_clean_sbu_0, # of connection points: 8
#     Node 3, Type 0, BuildingBlock: LIZSOE_clean_sbu_0, # of connection points: 8
#     Node 4, Type 0, BuildingBlock: LIZSOE_clean_sbu_0, # of connection points: 8
#     Node 5, Type 0, BuildingBlock: LIZSOE_clean_sbu_0, # of connection points: 8
#     Node 6, Type 0, BuildingBlock: LIZSOE_clean_sbu_0, # of connection points: 8
#     Node 7, Type 0, BuildingBlock: LIZSOE_clean_sbu_0, # of connection points: 8
#     Edge 8, Type (0, 0), BuildingBlock: EZIPEK_clean_linker_0, # of connection points: 2
#     Edge 9, Type (0, 0), BuildingBlock: EZIPEK_clean_linker_0, # of connection points: 2
#     Edge 10, Type (0, 0), BuildingBlock: EZIPEK_clean_linker_0, # of connection points: 2
#     Edge 11, Type (0, 0), BuildingBlock: EZIPEK_clean_linker_0, # of connection points: 2
#     Edge 12, Type (0, 0), BuildingBlock: EZIPEK_clean_linker_0, # of connection points: 2
#     Edge 13, Type (0, 0), BuildingBlock: EZIPEK_clean_linker_0, # of connection points: 2
#     Edge 14, Type (0, 0), BuildingBlock: EZIPEK_clean_linker_0, # of connection points: 2
#     Edge 15, Type (0, 0), BuildingBlock: EZIPEK_clean_linker_0, # of connection points: 2
#     Edge 16, Type (0, 0), BuildingBlock: EZIPEK_clean_linker_0, # of connection points: 2
#     Edge 17, Type (0, 0), BuildingBlock: EZIPEK_clean_linker_0, # of connection points: 2
#     Edge 18, Type (0, 0), BuildingBlock: EZIPEK_clean_linker_0, # of connection points: 2
#     Edge 19, Type (0, 0), BuildingBlock: EZIPEK_clean_linker_0, # of connection points: 2
#     Edge 20, Type (0, 0), BuildingBlock: EZIPEK_clean_linker_0, # of connection points: 2
#     Edge 21, Type (0, 0), BuildingBlock: EZIPEK_clean_linker_0, # of connection points: 2
#     Edge 22, Type (0, 0), BuildingBlock: EZIPEK_clean_linker_0, # of connection points: 2
#     Edge 23, Type (0, 0), BuildingBlock: EZIPEK_clean_linker_0, # of connection points: 2
#     Edge 24, Type (0, 0), BuildingBlock: EZIPEK_clean_linker_0, # of connection points: 2
#     Edge 25, Type (0, 0), BuildingBlock: EZIPEK_clean_linker_0, # of connection points: 2
#     Edge 26, Type (0, 0), BuildingBlock: EZIPEK_clean_linker_0, # of connection points: 2
#     Edge 27, Type (0, 0), BuildingBlock: EZIPEK_clean_linker_0, # of connection points: 2
#     Edge 28, Type (0, 0), BuildingBlock: EZIPEK_clean_linker_0, # of connection points: 2
#     Edge 29, Type (0, 0), BuildingBlock: EZIPEK_clean_linker_0, # of connection points: 2
#     Edge 30, Type (0, 0), BuildingBlock: EZIPEK_clean_linker_0, # of connection points: 2
#     Edge 31, Type (0, 0), BuildingBlock: EZIPEK_clean_linker_0, # of connection points: 2
#     Edge 32, Type (0, 0), BuildingBlock: EZIPEK_clean_linker_0, # of connection points: 2
#     Edge 33, Type (0, 0), BuildingBlock: EZIPEK_clean_linker_0, # of connection points: 2
#     Edge 34, Type (0, 0), BuildingBlock: EZIPEK_clean_linker_0, # of connection points: 2
#     Edge 35, Type (0, 0), BuildingBlock: EZIPEK_clean_linker_0, # of connection points: 2
#     Edge 36, Type (0, 0), BuildingBlock: EZIPEK_clean_linker_0, # of connection points: 2
#     Edge 37, Type (0, 0), BuildingBlock: EZIPEK_clean_linker_0, # of connection points: 2
#     Edge 38, Type (0, 0), BuildingBlock: EZIPEK_clean_linker_0, # of connection points: 2
#     Edge 39, Type (0, 0), BuildingBlock: EZIPEK_clean_linker_0, # of connection points: 2
# Relax obj value: 0.176
# Max RMSD: 0.225
# Mean RMSD: 0.225
data_MOF--net-lhb--node1-LIZSOE_clean_sbu_0--edge1-EZIPEK_clean_linker_0
_symmetry_space_group_name_H-M    P1
_symmetry_Int_Tables_number       1
_symmetry_cell_setting            triclinic
loop_
_symmetry_equiv_pos_as_xyz
'x, y, z'
_cell_length_a     34.673632
_cell_length_b     11.554797
_cell_length_c     31.460611
_cell_angle_alpha  89.7704
_cell_angle_beta   90.528689
_cell_angle_gamma 89.867667
loop_
_atom_site_label
_atom_site_type_symbol
_atom_site_fract_x
_atom_site_fract_y
_atom_site_fract_z
_atom_type_partial_charge
Co0 Co 0.09515 0.18303 1.01419 0.0
N1 N 0.14678 0.17956 0.99491 0.0
C2 C 0.15721 0.17555 0.95333 0.0
N3 N 0.21064 0.18754 0.98857 0.0
C4 C 0.18078 0.2029 1.01494 0.0
C5 C 0.19604 0.17262 0.94974 0.0
Co6 Co 0.96336 0.8522 1.01786 0.0
N7 N 0.91724 0.79034 1.00403 0.0
N8 N 0.85598 0.769 0.98515 0.0
C9 C 0.87743 0.72617 0.95363 0.0
C10 C 0.91531 0.73912 0.96555 0.0
C11 C 0.88041 0.80296 1.01596 0.0
Co12 Co 0.02983 0.05606 0.03791 0.0
C13 C 1.01029 0.7867 0.04962 0.0
H14 H 0.94006 0.72252 0.94578 0.0
O15 O 0.04478 0.22674 0.03445 0.0
O16 O 0.98613 0.07554 0.08574 0.0
O17 O 0.07277 1.03292 0.08749 0.0
O18 O 0.06981 1.00069 0.99364 0.0
O19 O 0.0784 0.15497 0.95593 0.0
O20 O 0.94497 0.93313 0.06626 0.0
O21 O 1.01218 0.88927 0.03087 0.0
O22 O 0.94866 0.97937 0.98112 0.0
O23 O 0.11109 0.18367 0.07084 0.0
O24 O 0.09553 0.32911 1.00895 0.0
O25 O 0.9915 0.11558 0.99083 0.0
O26 O 0.97655 0.74001 0.05248 0.0
C27 C 0.10173 0.10402 0.0969 0.0
C28 C 0.86766 0.85175 0.05732 0.0
H29 H 0.88733 0.82312 0.08326 0.0
H30 H 0.86732 0.94677 0.05414 0.0
H31 H 0.83806 0.82374 0.06542 0.0
C32 C 0.95485 1.01204 0.09242 0.0
C33 C 0.08196 1.04469 0.95898 0.0
H34 H 0.13839 0.17973 0.92593 0.0
H35 H 0.15759 0.32413 0.06208 0.0
H36 H 0.20485 0.35377 0.04494 0.0
H37 H 0.19888 0.23675 0.0793 0.0
C38 C 0.18484 0.28229 0.05265 0.0
C39 C 0.06215 0.3267 0.02591 0.0
C40 C 0.96018 0.08069 0.97286 0.0
H41 H 0.21227 0.16654 0.92071 0.0
H42 H 0.86653 0.69708 0.92315 0.0
Co43 Co 0.20745 0.50273 0.26388 0.0
N44 N 0.16093 0.53625 0.24387 0.0
C45 C 0.15376 0.50991 0.2029 0.0
N46 N 0.09817 0.5359 0.23335 0.0
C47 C 0.1266 0.55874 0.26122 0.0
C48 C 0.11496 0.5062 0.19668 0.0
Co49 Co 0.34265 0.12333 0.27814 0.0
N50 N 0.38894 0.06031 0.273 0.0
N51 N 0.44589 0.9774 0.28057 0.0
C52 C 0.43761 0.98295 0.23879 0.0
C53 C 0.40217 1.03209 0.23427 0.0
C54 C 0.41544 1.02026 0.30094 0.0
Co55 Co 0.27791 0.32858 0.28751 0.0
C56 C 0.29688 0.06665 0.30907 0.0
H57 H 0.38734 1.0491 0.2045 0.0
O58 O 0.25773 0.49231 0.28425 0.0
O59 O 0.31654 0.35389 0.3401 0.0
O60 O 0.23066 0.30727 0.33231 0.0
O61 O 0.24619 0.27193 0.23423 0.0
O62 O 0.19249 0.34637 0.25099 0.0
O63 O 0.36199 0.22939 0.31865 0.0
O64 O 0.29408 0.1601 0.28461 0.0
O65 O 0.35548 0.22874 0.2314 0.0
O66 O 0.1918 0.46455 0.31866 0.0
O67 O 0.21729 0.64354 0.27619 0.0
O68 O 0.32141 0.38427 0.24574 0.0
O69 O 0.33067 1.0368 0.32209 0.0
C70 C 0.20158 0.37874 0.34239 0.0
C71 C 0.41124 1.0131 0.34846 0.0
H72 H 0.39136 0.07822 0.36121 0.0
H73 H 0.43968 1.02133 0.3646 0.0
H74 H 0.39969 0.92646 0.3567 0.0
C75 C 0.35033 0.30272 0.34561 0.0
C76 C 0.20956 0.27087 0.23008 0.0
H77 H 0.17537 0.48108 0.1807 0.0
H78 H 0.09562 0.6583 0.30722 0.0
H79 H 0.11323 0.52197 0.32598 0.0
H80 H 0.14659 0.64044 0.31899 0.0
C81 C 0.12044 0.5976 0.30602 0.0
C82 C 0.25134 0.60597 0.28468 0.0
C83 C 0.34897 0.33573 0.22486 0.0
H84 H 0.1004 0.47322 0.16884 0.0
H85 H 0.45735 0.96218 0.21342 0.0
Co86 Co 0.71257 0.93695 0.26422 0.0
N87 N 0.66016 0.9382 0.24941 0.0
C88 C 0.64398 0.92701 0.21008 0.0
N89 N 0.59683 0.96327 0.25235 0.0
C90 C 0.63028 0.97464 0.27343 0.0
C91 C 0.60488 0.93508 0.21239 0.0
Co92 Co 0.84064 0.59166 0.26799 0.0
N93 N 0.88378 0.51637 0.25569 0.0
N94 N 0.94135 0.4443 0.24191 0.0
C95 C 0.91715 0.40621 0.2116 0.0
C96 C 0.8815 0.45044 0.22045 0.0
C97 C 0.92029 0.50647 0.26925 0.0
Co98 Co 0.77814 0.80471 0.28557 0.0
C99 C 0.79376 0.53733 0.2996 0.0
H100 H 0.85583 0.44197 0.20092 0.0
O101 O 0.76433 0.9765 0.28124 0.0
O102 O 0.82209 0.82206 0.33353 0.0
O103 O 0.73568 0.78235 0.33486 0.0
O104 O 0.73754 0.75089 0.24144 0.0
O105 O 0.72412 0.90517 0.20505 0.0
O106 O 0.86186 0.67549 0.31491 0.0
O107 O 0.7934 0.63762 0.27938 0.0
O108 O 0.85699 0.7125 0.22845 0.0
O109 O 0.70075 0.94258 0.32179 0.0
O110 O 0.71318 0.08189 0.25705 0.0
O111 O 0.81739 0.85794 0.2389 0.0
O112 O 0.82683 0.4883 0.30532 0.0
C113 C 0.70824 0.85646 0.34578 0.0
C114 C 0.93637 0.5621 0.30832 0.0
H115 H 0.91644 0.54871 0.3352 0.0
H116 H 0.94002 0.65536 0.30182 0.0
H117 H 0.96487 0.52544 0.31737 0.0
C118 C 0.85289 0.75634 0.34062 0.0
C119 C 0.72247 0.7947 0.20795 0.0
H120 H 0.65907 0.91832 0.18048 0.0
H121 H 0.60929 0.11855 0.31175 0.0
H122 H 0.63408 1.01184 0.34065 0.0
H123 H 0.66026 0.11161 0.30799 0.0
C124 C 0.63395 0.05806 0.31024 0.0
C125 C 0.74728 0.07744 0.27267 0.0
C126 C 0.84761 0.81692 0.2206 0.0
H127 H 0.58404 0.92492 0.18683 0.0
H128 H 0.92553 0.36131 0.18297 0.0
Co129 Co 0.08769 0.77558 0.52219 0.0
N130 N 0.13224 0.84816 0.51089 0.0
C131 C 0.13767 0.87208 0.4695 0.0
N132 N 0.1931 0.90063 0.50158 0.0
C133 C 0.16552 0.87727 0.53041 0.0
C134 C 0.17507 0.90158 0.46355 0.0
Co135 Co 0.97131 0.34205 0.52107 0.0
N136 N 0.92741 0.2651 0.501 0.0
N137 N 0.86734 0.21943 0.48256 0.0
C138 C 0.89051 0.17272 0.45352 0.0
C139 C 0.92754 0.19962 0.46522 0.0
C140 C 0.88991 0.27086 0.51169 0.0
Co141 Co 0.02727 0.5585 0.5383 0.0
C142 C 1.00807 0.29933 0.51545 0.0
H143 H 0.95272 0.17718 0.44704 0.0
O144 O 0.04006 0.72916 0.53271 0.0
O145 O 0.98125 0.56931 0.58441 0.0
O146 O 0.06981 0.54245 0.58756 0.0
O147 O 0.06773 0.50778 0.49337 0.0
O148 O 0.1023 0.66128 0.47933 0.0
O149 O 0.94781 0.40174 0.57056 0.0
O150 O 1.01591 0.38995 0.54019 0.0
O151 O 0.94791 0.47151 0.48881 0.0
O152 O 0.11059 0.68241 0.56657 0.0
O153 O 0.07425 0.87132 0.56255 0.0
O154 O 0.99011 0.60743 0.48964 0.0
O155 O 0.99862 0.31066 0.47547 0.0
C156 C 0.10197 0.6019 0.59273 0.0
C157 C 0.87444 0.32682 0.55091 0.0
H158 H 0.8894 0.29121 0.5794 0.0
H159 H 0.87899 0.42077 0.54848 0.0
H160 H 0.84315 0.31223 0.55516 0.0
C161 C 0.95327 0.49306 0.59316 0.0
C162 C 0.09479 0.55573 0.47211 0.0
H163 H 0.11641 0.85828 0.44466 0.0
H164 H 0.17423 0.97889 0.58585 0.0
H165 H 0.19822 0.84316 0.58809 0.0
H166 H 0.1463 0.85108 0.5954 0.0
C167 C 0.17113 0.88606 0.57768 0.0
C168 C 0.0408 0.82628 0.55492 0.0
C169 C 0.95781 0.57057 0.476 0.0
H170 H 0.18878 0.9121 0.43311 0.0
H171 H 0.88113 0.12894 0.42488 0.0
Co172 Co 0.21006 1.02016 0.75311 0.0
N173 N 0.16548 0.06845 0.72968 0.0
C174 C 0.15823 0.05671 0.68771 0.0
N175 N 0.10363 0.10405 0.71756 0.0
C176 C 0.1324 0.10559 0.74647 0.0
C177 C 0.11985 0.0777 0.68012 0.0
Co178 Co 0.34031 0.62326 0.76932 0.0
N179 N 0.38415 0.55383 0.75777 0.0
N180 N 0.44002 0.46588 0.74983 0.0
C181 C 0.41786 0.43746 0.71638 0.0
C182 C 0.38328 0.49155 0.72157 0.0
C183 C 0.41877 0.53322 0.77516 0.0
Co184 Co 0.27673 0.82909 0.78296 0.0
C185 C 0.29659 0.56617 0.80459 0.0
H186 H 0.35932 0.49006 0.6994 0.0
O187 O 0.25816 0.99563 0.77846 0.0
O188 O 0.31518 0.84238 0.83665 0.0
O189 O 0.2265 0.8136 0.82468 0.0
O190 O 0.24563 0.77068 0.73003 0.0
O191 O 0.19383 0.87155 0.73346 0.0
O192 O 0.3623 0.72706 0.81085 0.0
O193 O 0.292 0.65981 0.78033 0.0
O194 O 0.35223 0.73041 0.72248 0.0
O195 O 0.18979 0.97181 0.80543 0.0
O196 O 0.22126 0.15473 0.77045 0.0
O197 O 0.32169 0.88592 0.74324 0.0
O198 O 0.3313 0.53466 0.81348 0.0
C199 C 0.19677 0.88691 0.83091 0.0
C200 C 0.43256 0.58055 0.8166 0.0
H201 H 0.40913 0.57571 0.84023 0.0
H202 H 0.44125 0.67159 0.81151 0.0
H203 H 0.45789 0.53173 0.82897 0.0
C204 C 0.34885 0.78809 0.84126 0.0
C205 C 0.2099 0.78163 0.72067 0.0
H206 H 0.17868 1.02296 0.66514 0.0
H207 H 0.11768 0.2413 0.78938 0.0
H208 H 0.10579 0.10105 0.80781 0.0
H209 H 0.15547 0.15067 0.80918 0.0
C210 C 0.1281 0.15062 0.79093 0.0
C211 C 0.25415 0.11036 0.77991 0.0
C212 C 0.34787 0.83947 0.7199 0.0
H213 H 0.10418 0.0584 0.65106 0.0
H214 H 0.4274 0.39101 0.68853 0.0
Co215 Co 0.84257 0.0918 0.77414 0.0
N216 N 0.88877 1.02834 0.76325 0.0
C217 C 0.89527 1.00846 0.72178 0.0
N218 N 0.95133 1.00136 0.75397 0.0
C219 C 0.92321 1.01529 0.7828 0.0
C220 C 0.93375 0.99475 0.71583 0.0
Co221 Co 0.71307 0.42913 0.76098 0.0
N222 N 0.66213 0.43275 0.74087 0.0
N223 N 0.59892 0.45925 0.7356 0.0
C224 C 0.61134 0.43344 0.69684 0.0
C225 C 0.65029 0.42412 0.69962 0.0
C226 C 0.62993 0.4693 0.76091 0.0
Co227 Co 0.77738 0.30111 0.78845 0.0
C228 C 0.74746 0.57128 0.77198 0.0
H229 H 0.6683 0.41406 0.67213 0.0
O230 O 0.79416 0.13248 0.78475 0.0
O231 O 0.73499 0.28799 0.83796 0.0
O232 O 0.82184 0.32815 0.83546 0.0
O233 O 0.81443 0.35184 0.73956 0.0
O234 O 0.85679 0.21284 0.73439 0.0
O235 O 0.69718 0.43829 0.81733 0.0
O236 O 0.76342 0.4704 0.7823 0.0
O237 O 0.72889 0.3872 0.7038 0.0
O238 O 0.86204 0.18081 0.81987 0.0
O239 O 0.82927 0.98704 0.81167 0.0
O240 O 0.73614 0.24122 0.74628 0.0
O241 O 0.71512 0.57544 0.75226 0.0
C242 C 0.85305 0.26531 0.84366 0.0
C243 C 0.62966 0.55166 0.7979 0.0
H244 H 0.65658 0.60277 0.8 0.0
H245 H 0.62516 0.50401 0.82747 0.0
H246 H 0.60532 0.6137 0.79525 0.0
C247 C 0.70602 0.36108 0.84495 0.0
C248 C 0.8454 0.31219 0.72285 0.0
H249 H 0.87362 1.01588 0.69692 0.0
H250 H 0.93457 0.908 0.8366 0.0
H251 H 0.9549 1.04805 0.84112 0.0
H252 H 0.90324 1.0267 0.84813 0.0
C253 C 0.92898 1.00093 0.82992 0.0
C254 C 0.79551 1.0322 0.80515 0.0
C255 C 0.7241 0.27824 0.71034 0.0
H256 H 0.94813 0.98918 0.68553 0.0
H257 H 0.59362 0.42479 0.66862 0.0
Co258 Co 0.60126 0.25501 0.51597 0.0
N259 N 0.64722 0.3 0.49667 0.0
C260 C 0.65287 0.28863 0.45462 0.0
N261 N 0.70963 0.31317 0.48393 0.0
C262 C 0.68205 0.32325 0.51354 0.0
C263 C 0.69128 0.29171 0.44701 0.0
Co264 Co 0.46013 0.87927 0.51438 0.0
N265 N 0.4127 0.83159 0.49986 0.0
N266 N 0.35079 0.81146 0.4846 0.0
C267 C 0.37043 0.77445 0.45078 0.0
C268 C 0.40877 0.78677 0.46043 0.0
C269 C 0.37672 0.84143 0.51448 0.0
Co270 Co 0.53059 0.06688 0.53518 0.0
C271 C 0.50279 0.80292 0.549 0.0
H272 H 0.43246 0.77165 0.43902 0.0
O273 O 0.55272 0.23066 0.53629 0.0
O274 O 0.49133 0.08483 0.5871 0.0
O275 O 0.57861 1.0348 0.57977 0.0
O276 O 0.56314 1.00758 0.48344 0.0
O277 O 0.61363 0.11258 0.48962 0.0
O278 O 0.44292 0.97337 0.56129 0.0
O279 O 0.51021 0.90059 0.52786 0.0
O280 O 0.45099 1.00146 0.47382 0.0
O281 O 0.61968 0.18705 0.56626 0.0
O282 O 0.59228 0.38521 0.53932 0.0
O283 O 0.48909 0.14152 0.49384 0.0
O284 O 0.46722 0.77237 0.55241 0.0
C285 C 0.60993 0.09955 0.58896 0.0
C286 C 0.36648 0.88099 0.55806 0.0
H287 H 0.38861 0.85189 0.58139 0.0
H288 H 0.36411 0.97615 0.5572 0.0
H289 H 0.33826 0.84706 0.56843 0.0
C290 C 0.45702 1.03533 0.59128 0.0
C291 C 0.59861 1.02366 0.4744 0.0
H292 H 0.63072 0.26426 0.43192 0.0
H293 H 0.70662 0.4337 0.56074 0.0
H294 H 0.70722 0.2844 0.57423 0.0
H295 H 0.66232 0.36454 0.57693 0.0
C296 C 0.68949 0.35278 0.55917 0.0
C297 C 0.5578 0.3446 0.54048 0.0
C298 C 0.46029 0.10664 0.47114 0.0
H299 H 0.70453 0.26603 0.4177 0.0
H300 H 0.35786 0.74752 0.42078 0.0
Co301 Co 0.59235 0.78443 1.01282 0.0
N302 N 0.63741 0.85185 0.99848 0.0
C303 C 0.64273 0.86868 0.95657 0.0
N304 N 0.69907 0.89282 0.98726 0.0
C305 C 0.67152 0.87771 1.01682 0.0
C306 C 0.68064 0.89132 0.9495 0.0
Co307 Co 0.4728 0.35818 1.02165 0.0
N308 N 0.42901 0.27539 1.00569 0.0
N309 N 0.37112 0.19566 0.99769 0.0
C310 C 0.39384 0.15067 0.96788 0.0
C311 C 0.42951 0.19855 0.97317 0.0
C312 C 0.39276 0.26894 1.02073 0.0
Co313 Co 0.52957 0.5739 0.03441 0.0
C314 C 0.50984 0.31588 1.01335 0.0
H315 H 0.45398 0.17916 0.95344 0.0
O316 O 0.54397 0.74334 0.02641 0.0
O317 O 0.48533 0.58671 0.08304 0.0
O318 O 0.57451 0.55977 0.08178 0.0
O319 O 0.56777 0.51608 0.98827 0.0
O320 O 0.60601 0.6607 0.97344 0.0
O321 O 0.45173 0.41743 0.07204 0.0
O322 O 0.51777 0.40667 0.03802 0.0
O323 O 0.44688 0.48671 0.99003 0.0
O324 O 0.6152 0.69782 0.05845 0.0
O325 O 0.58024 0.88869 0.05068 0.0
O326 O 0.48963 0.62134 0.98722 0.0
O327 O 0.4978 0.32727 0.97425 0.0
C328 C 0.60707 0.61889 0.08536 0.0
C329 C 0.37755 0.33481 0.058 0.0
H330 H 0.39312 0.30693 0.08725 0.0
H331 H 0.38183 0.42827 0.05265 0.0
H332 H 0.3464 0.31949 0.06326 0.0
C333 C 0.45805 0.50955 0.09386 0.0
C334 C 0.59635 0.55632 0.96736 0.0
H335 H 0.62104 0.85308 0.93234 0.0
H336 H 0.70158 0.82458 0.07311 0.0
H337 H 0.65219 0.87049 0.08231 0.0
H338 H 0.6897 0.97356 0.07106 0.0
C339 C 0.67864 0.88581 0.06369 0.0
C340 C 0.54635 0.84297 0.04708 0.0
C341 C 0.45632 0.58513 0.97575 0.0
H342 H 0.69426 0.89341 0.91876 0.0
H343 H 0.38463 0.09273 0.9428 0.0
C344 C 0.1165 0.14154 0.17704 0.0
C345 C 0.12846 0.09975 0.13694 0.0
C346 C 0.19688 0.14068 0.1608 0.0
C347 C 0.1844 0.1922 0.19962 0.0
N348 N 0.13458 0.16493 0.251 0.0
N349 N 0.1831 1.0245 0.09894 0.0
C350 C 0.14467 0.17099 0.20949 0.0
C351 C 0.16933 0.08701 0.13197 0.0
N352 N 0.07814 0.1554 0.18447 0.0
N353 N 0.23498 0.14084 0.15052 0.0
H354 H 0.16523 0.98101 0.07745 0.0
H355 H 0.16523 0.98101 0.07745 0.0
H356 H 0.25631 0.17635 0.16984 0.0
H357 H 0.24503 0.10503 0.12227 0.0
H358 H 0.06779 0.1941 0.21196 0.0
H359 H 0.05709 0.13239 0.16217 0.0
H360 H 0.10808 0.13181 0.26054 0.0
H361 H 0.15516 0.17344 0.27505 0.0
C362 C 0.94328 0.9509 0.17119 0.0
C363 C 0.92988 1.00844 0.13378 0.0
C364 C 0.86221 0.96575 0.15813 0.0
C365 C 0.87546 0.89414 0.19269 0.0
N366 N 0.93034 0.84016 0.23607 0.0
N367 N 0.87675 0.11456 0.10477 0.0
C368 C 0.91657 0.89471 0.20047 0.0
C369 C 0.88931 1.02936 0.13162 0.0
N370 N 0.98178 0.95665 0.18005 0.0
N371 N 0.82378 0.96769 0.14844 0.0
H372 H 0.89616 0.16318 0.08689 0.0
H373 H 0.84835 0.14398 0.1035 0.0
H374 H 0.80339 0.92237 0.16597 0.0
H375 H 0.81251 1.00677 0.12113 0.0
H376 H 0.99374 0.9377 0.20966 0.0
H377 H 1.0012 0.99453 0.15909 0.0
H378 H 0.95937 0.82561 0.24268 0.0
H379 H 0.91225 0.80882 0.25965 0.0
C380 C 0.16313 0.485 0.45021 0.0
C381 C 0.12243 0.48501 0.44263 0.0
C382 C 0.13729 0.35203 0.38216 0.0
C383 C 0.17766 0.3771 0.38384 0.0
N384 N 0.22848 0.4678 0.42338 0.0
N385 N 0.07118 0.40936 0.39889 0.0
C386 C 0.19024 0.4425 0.41934 0.0
C387 C 0.10962 0.41434 0.40816 0.0
N388 N 0.1763 0.51705 0.48894 0.0
N389 N 0.12564 0.26309 0.35712 0.0
H390 H 0.0506 0.45287 0.4168 0.0
H391 H 0.06022 0.36906 0.37179 0.0
H392 H 0.14588 0.21251 0.34145 0.0
H393 H 0.09771 0.23013 0.35737 0.0
H394 H 0.20341 0.49058 0.49965 0.0
H395 H 0.15822 0.55278 0.51156 0.0
H396 H 0.23913 0.52647 0.44569 0.0
H397 H 0.24907 0.43235 0.40322 0.0
C398 C 0.91932 0.76256 0.37884 0.0
C399 C 0.87842 0.75385 0.38195 0.0
C400 C 0.8901 0.65548 0.4524 0.0
C401 C 0.9309 0.64344 0.44499 0.0
N402 N 0.98294 0.68565 0.3969 0.0
N403 N 0.82616 0.72616 0.42957 0.0
C404 C 0.94511 0.69942 0.40746 0.0
C405 C 0.86428 0.70975 0.42114 0.0
N406 N 0.93363 0.83581 0.34885 0.0
N407 N 0.87578 0.61335 0.48955 0.0
H408 H 0.80727 0.76337 0.40745 0.0
H409 H 0.81406 0.71478 0.45938 0.0
H410 H 0.8938 0.58691 0.51431 0.0
H411 H 0.84661 0.60397 0.49604 0.0
H412 H 0.96274 0.85672 0.34654 0.0
H413 H 0.91532 0.88485 0.32929 0.0
H414 H 0.99419 0.71261 0.36793 0.0
H415 H 1.00245 0.638 0.41528 0.0
C416 C 0.11931 0.61774 0.6743 0.0
C417 C 0.13039 0.59499 0.63169 0.0
C418 C 0.19772 0.65411 0.65227 0.0
C419 C 0.18545 0.69709 0.69229 0.0
N420 N 0.14024 0.65748 0.7476 0.0
N421 N 0.18542 0.5269 0.59346 0.0
C422 C 0.14766 0.66029 0.70518 0.0
C423 C 0.17103 0.59429 0.62465 0.0
N424 N 0.08225 0.59427 0.68558 0.0
N425 N 0.23518 0.66613 0.64042 0.0
H426 H 0.16815 0.46982 0.57613 0.0
H427 H 0.16815 0.46982 0.57613 0.0
H428 H 0.25568 0.70961 0.65865 0.0
H429 H 0.24558 0.6315 0.61225 0.0
H430 H 0.07147 0.6032 0.71608 0.0
H431 H 0.06224 0.56056 0.66408 0.0
H432 H 0.11494 0.62563 0.76068 0.0
H433 H 0.16172 0.67597 0.77002 0.0
C434 C 0.91275 0.3926 0.70195 0.0
C435 C 0.87226 0.38566 0.69309 0.0
C436 C 0.88664 0.51132 0.62969 0.0
C437 C 0.92738 0.49273 0.63339 0.0
N438 N 0.97818 0.40995 0.67578 0.0
N439 N 0.82129 0.4442 0.6451 0.0
C440 C 0.93989 0.43304 0.6706 0.0
C441 C 0.85934 0.44834 0.65622 0.0
N442 N 0.92562 0.36836 0.74189 0.0
N443 N 0.87407 0.59233 0.60123 0.0
H444 H 0.80105 0.39948 0.66306 0.0
H445 H 0.81054 0.47744 0.61651 0.0
H446 H 0.89364 0.64201 0.58398 0.0
H447 H 0.84536 0.61814 0.59835 0.0
H448 H 0.95275 0.39533 0.75223 0.0
H449 H 0.90758 0.33781 0.76566 0.0
H450 H 0.98828 0.3515 0.69856 0.0
H451 H 0.99911 0.44418 0.65572 0.0
C452 C 0.17478 0.89149 0.91123 0.0
C453 C 0.16576 0.88313 0.86705 0.0
C454 C 0.09899 0.95664 0.88499 0.0
C455 C 0.1088 0.97262 0.92851 0.0
N456 N 0.15233 0.90752 0.98431 0.0
N457 N 0.11342 0.8691 0.81685 0.0
C458 C 0.14525 0.92308 0.94199 0.0
C459 C 0.12596 0.90348 0.85586 0.0
N460 N 0.21211 0.87585 0.92398 0.0
N461 N 0.06348 0.99243 0.87105 0.0
H462 H 0.13215 0.83713 0.79415 0.0
H463 H 0.08433 0.86198 0.80895 0.0
H464 H 0.04241 1.02259 0.89169 0.0
H465 H 0.05514 0.9953 0.83919 0.0
H466 H 0.22193 0.89387 0.95459 0.0
H467 H 0.23366 0.8506 0.90304 0.0
H468 H 0.1758 0.86017 0.99586 0.0
H469 H 0.13298 0.9323 1.00765 0.0
C470 C 0.8669 0.23241 0.92437 0.0
C471 C 0.87957 0.27129 0.88401 0.0
C472 C 0.94712 0.22179 0.90788 0.0
C473 C 0.93365 0.16138 0.94466 0.0
N474 N 0.88013 0.13318 0.99185 0.0
N475 N 0.93312 0.35891 0.85015 0.0
C476 C 0.89335 0.17545 0.95414 0.0
C477 C 0.92028 0.28175 0.87953 0.0
N478 N 0.82999 0.25792 0.93541 0.0
N479 N 0.98544 0.21831 0.8987 0.0
H480 H 0.91375 0.40864 0.83217 0.0
H481 H 0.96175 0.38512 0.84816 0.0
H482 H 1.0057 0.17884 0.91862 0.0
H483 H 0.99693 0.24997 0.87054 0.0
H484 H 0.81971 0.25086 0.96625 0.0
H485 H 0.81097 0.29871 0.91426 0.0
H486 H 0.85113 0.12871 0.99989 0.0
H487 H 0.89861 0.10081 1.01532 0.0
C488 C 0.65729 0.17155 0.6982 0.0
C489 C 0.69521 0.2017 0.6836 0.0
C490 C 0.67817 0.07714 0.62154 0.0
C491 C 0.63758 0.08869 0.6282 0.0
N492 N 0.58964 0.14342 0.67866 0.0
N493 N 0.74349 0.15194 0.63265 0.0
C494 C 0.62758 0.13369 0.66855 0.0
C495 C 0.7061 0.14543 0.64538 0.0
N496 N 0.64953 0.17459 0.74043 0.0
N497 N 0.69015 0.98836 0.59685 0.0
H498 H 0.76449 0.1966 0.64995 0.0
H499 H 0.75309 0.11645 0.60431 0.0
H500 H 0.67031 0.92733 0.58596 0.0
H501 H 0.719 0.96396 0.59463 0.0
H502 H 0.62503 0.13488 0.75266 0.0
H503 H 0.66948 0.20277 0.76303 0.0
H504 H 0.58046 0.1848 0.70612 0.0
H505 H 0.56776 0.11357 0.65853 0.0
C506 C 0.39251 0.05277 0.63274 0.0
C507 C 0.43276 1.02492 0.63336 0.0
C508 C 0.41814 0.90678 0.6991 0.0
C509 C 0.37701 0.91328 0.69212 0.0
N510 N 0.32625 0.99771 0.64956 0.0
N511 N 0.48429 0.93875 0.67346 0.0
C512 C 0.36471 0.98977 0.65866 0.0
C513 C 0.44555 0.95643 0.66878 0.0
N514 N 0.38081 0.14224 0.60732 0.0
N515 N 0.43107 0.85572 0.73576 0.0
H516 H 0.50432 0.97557 0.65299 0.0
H517 H 0.49699 0.89044 0.69768 0.0
H518 H 0.41241 0.82088 0.75815 0.0
H519 H 0.45967 0.85513 0.74592 0.0
H520 H 0.35294 0.17607 0.60746 0.0
H521 H 0.40041 0.18901 0.58904 0.0
H522 H 0.31528 1.04088 0.62294 0.0
H523 H 0.30544 0.95372 0.66703 0.0
C524 C 0.61124 0.41046 0.90465 0.0
C525 C 0.62344 0.477 0.94036 0.0
C526 C 0.69137 0.42159 0.9224 0.0
C527 C 0.67978 0.36487 0.88461 0.0
N528 N 0.62744 0.26073 0.85295 0.0
N529 N 0.67262 0.47309 0.99355 0.0
C530 C 0.63923 0.34465 0.88021 0.0
C531 C 0.66296 0.46241 0.9521 0.0
N532 N 0.57339 0.4131 0.89266 0.0
N533 N 0.72962 0.43853 0.93023 0.0
H534 H 0.65274 0.50349 1.01545 0.0
H535 H 0.69774 0.43525 1.00573 0.0
H536 H 0.75085 0.40708 0.91 0.0
H537 H 0.7396 0.48687 0.95594 0.0
H538 H 0.56325 0.37541 0.86469 0.0
H539 H 0.55272 0.45915 0.90961 0.0
H540 H 0.59926 0.22973 0.85252 0.0
H541 H 0.64721 0.21296 0.8353 0.0
C542 C 0.38658 0.65821 0.95093 0.0
C543 C 0.42787 0.65654 0.94499 0.0
C544 C 0.41444 0.78976 0.88252 0.0
C545 C 0.37344 0.77322 0.88352 0.0
N546 N 0.32131 0.6857 0.92142 0.0
N547 N 0.47922 0.72516 0.89983 0.0
C548 C 0.35995 0.70635 0.91884 0.0
C549 C 0.441 0.72493 0.90971 0.0
N550 N 0.37252 0.61931 0.98869 0.0
N551 N 0.42962 0.86518 0.85394 0.0
H552 H 0.4995 0.67248 0.91503 0.0
H553 H 0.49013 0.773 0.87443 0.0
H554 H 0.41279 0.91671 0.83365 0.0
H555 H 0.41279 0.91671 0.83365 0.0
H556 H 0.34375 0.62636 0.99748 0.0
H557 H 0.39058 0.59291 1.01345 0.0
H558 H 0.30905 0.63011 0.94352 0.0
H559 H 0.30139 0.722 0.90021 0.0
C560 C 0.67701 0.6091 0.11511 0.0
C561 C 0.63656 0.61443 0.12332 0.0
C562 C 0.65751 0.68013 0.19524 0.0
C563 C 0.69421 0.71994 0.18016 0.0
N564 N 0.74123 0.69087 0.12576 0.0
N565 N 0.58972 0.64611 0.17782 0.0
C566 C 0.70456 0.67563 0.13983 0.0
C567 C 0.62726 0.64608 0.16559 0.0
N568 N 0.68968 0.52405 0.08916 0.0
N569 N 0.65173 0.66935 0.23771 0.0
H570 H 0.56743 0.61921 0.15773 0.0
H571 H 0.58112 0.67669 0.20733 0.0
H572 H 0.67209 0.69519 0.26026 0.0
H573 H 0.62895 0.62027 0.24941 0.0
H574 H 0.71885 0.50434 0.08583 0.0
H575 H 0.67061 0.46017 0.07884 0.0
H576 H 0.74977 0.66522 0.09561 0.0
H577 H 0.76227 0.73372 0.14362 0.0
C578 C 0.36506 0.47787 0.16071 0.0
C579 C 0.37754 0.4053 0.19541 0.0
C580 C 0.44555 0.44195 0.1707 0.0
C581 C 0.43325 0.50952 0.13505 0.0
N582 N 0.38111 0.61664 0.10408 0.0
N583 N 0.4329 0.33581 0.2353 0.0
C584 C 0.39286 0.53524 0.13291 0.0
C585 C 0.41859 0.39373 0.20078 0.0
N586 N 0.3265 0.48587 0.15215 0.0
N587 N 0.48382 0.42139 0.17714 0.0
H588 H 0.41566 0.30415 0.2596 0.0
H589 H 0.46241 0.32428 0.2402 0.0
H590 H 0.50544 0.45574 0.15798 0.0
H591 H 0.50544 0.45574 0.15798 0.0
H592 H 0.31511 0.52565 0.12508 0.0
H593 H 0.30583 0.44477 0.1707 0.0
H594 H 0.35311 0.64898 0.1021 0.0
H595 H 0.40089 0.65967 0.08483 0.0
C596 C 0.61329 0.8813 0.40894 0.0
C597 C 0.62508 0.94463 0.44582 0.0
C598 C 0.69359 0.90456 0.42427 0.0
C599 C 0.68224 0.85083 0.38585 0.0
N600 N 0.63111 0.74401 0.35312 0.0
N601 N 0.67629 0.94195 0.49707 0.0
C602 C 0.64196 0.82466 0.38212 0.0
C603 C 0.66533 0.93518 0.45579 0.0
N604 N 0.57522 0.87831 0.398 0.0
N605 N 0.73161 0.92811 0.43104 0.0
H606 H 0.6564 0.96032 0.52062 0.0
H607 H 0.70282 0.90954 0.50744 0.0
H608 H 0.75291 0.90386 0.40958 0.0
H609 H 0.74134 0.97491 0.45718 0.0
H610 H 0.56517 0.84134 0.36995 0.0
H611 H 0.5539 0.91782 0.41597 0.0
H612 H 0.60376 0.70697 0.35305 0.0
H613 H 0.65123 0.70391 0.33353 0.0
C614 C 0.44553 0.25315 0.40841 0.0
C615 C 0.4329 0.18963 0.44467 0.0
C616 C 0.36532 0.25925 0.42581 0.0
C617 C 0.37739 0.30458 0.38589 0.0
N618 N 0.43252 0.37498 0.34754 0.0
N619 N 0.37992 0.15129 0.49143 0.0
C620 C 0.41835 0.31169 0.38034 0.0
C621 C 0.39248 0.19968 0.45443 0.0
N622 N 0.48385 0.25561 0.3993 0.0
N623 N 0.32797 0.27764 0.43713 0.0
H624 H 0.39888 0.11622 0.51391 0.0
H625 H 0.35117 0.14498 0.50014 0.0
H626 H 0.30861 0.32144 0.41725 0.0
H627 H 0.31701 0.25952 0.46704 0.0
H628 H 0.4949 0.30472 0.37435 0.0
H629 H 0.50436 0.20938 0.41695 0.0
H630 H 0.41502 0.42289 0.32674 0.0
H631 H 0.41502 0.42289 0.32674 0.0
C632 C 0.04505 0.6176 0.07844 0.0
C633 C 0.03861 0.69068 0.04289 0.0
C634 C 0.04101 0.51835 0.99658 0.0
C635 C 0.0452 0.44472 0.03276 0.0
N636 N 0.04522 0.42313 0.10856 0.0
N637 N 0.04045 0.71369 0.96709 0.0
C638 C 0.04587 0.49425 0.07385 0.0
C639 C 0.03997 0.64161 1.00156 0.0
N640 N 0.05112 0.66819 0.11684 0.0
N641 N 0.0363 0.4689 0.95745 0.0
H642 H 0.04094 0.80329 0.97012 0.0
H643 H 0.04425 0.6862 0.93597 0.0
H644 H 0.0355 0.37933 0.95331 0.0
H645 H 0.02976 0.51476 0.92979 0.0
H646 H 0.06103 0.62205 0.14305 0.0
H647 H 0.05051 0.75806 0.12052 0.0
H648 H 0.03958 0.45272 0.13911 0.0
H649 H 0.04606 0.33316 0.10605 0.0
C650 C 0.27148 0.76014 0.33279 0.0
C651 C 0.27832 0.70308 0.2939 0.0
C652 C 0.28902 0.89476 0.26009 0.0
C653 C 0.27804 0.95263 0.29837 0.0
N654 N 0.25388 0.93781 0.36919 0.0
N655 N 0.29532 0.71394 0.22068 0.0
C656 C 0.26752 0.88363 0.33396 0.0
C657 C 0.28855 0.77051 0.25793 0.0
N658 N 0.26797 0.69386 0.36849 0.0
N659 N 0.30104 0.95844 0.22605 0.0
H660 H 0.29689 0.62371 0.21959 0.0
H661 H 0.29818 0.75433 0.19127 0.0
H662 H 0.29725 1.04753 0.22386 0.0
H663 H 0.31499 0.92352 0.19991 0.0
H664 H 0.26547 0.72696 0.39907 0.0
H665 H 0.27134 0.60412 0.36714 0.0
H666 H 0.24406 0.89399 0.39583 0.0
H667 H 0.24976 1.02737 0.37012 0.0
C668 C 0.76094 0.24393 0.32156 0.0
C669 C 0.76408 0.19481 0.28049 0.0
C670 C 0.76671 0.39213 0.24955 0.0
C671 C 0.76607 0.44114 0.2909 0.0
N672 N 0.75443 0.41851 0.36452 0.0
N673 N 0.77464 0.22015 0.20577 0.0
C674 C 0.75991 0.36746 0.32617 0.0
C675 C 0.76818 0.26897 0.24459 0.0
N676 N 0.76024 0.17182 0.35606 0.0
N677 N 0.76586 0.46421 0.21509 0.0
H678 H 0.77691 0.1307 0.20184 0.0
H679 H 0.78101 0.2668 0.1784 0.0
H680 H 0.76339 0.5535 0.21818 0.0
H681 H 0.76375 0.43642 0.18375 0.0
H682 H 0.76183 0.19951 0.38741 0.0
H683 H 0.76165 0.08204 0.35311 0.0
H684 H 0.74984 0.37301 0.3922 0.0
H685 H 0.75271 0.50842 0.36767 0.0
C686 C 1.00783 1.00625 0.57857 0.0
C687 C 1.01471 0.92713 0.54486 0.0
C688 C 1.02637 0.09263 0.49767 0.0
C689 C 1.0164 0.17414 0.52967 0.0
N690 N 0.99622 0.20208 0.60255 0.0
N691 N 1.01542 0.90171 0.46909 0.0
C692 C 1.00635 0.12909 0.57064 0.0
C693 C 1.01808 0.97312 0.50331 0.0
N694 N 1.00617 0.96352 0.61904 0.0
N695 N 0.04654 0.12785 0.46287 0.0
H696 H 1.00802 0.81495 0.47229 0.0
H697 H 1.01566 0.93236 0.43785 0.0
H698 H 0.05749 0.21158 0.46002 0.0
H699 H 0.05693 0.07026 0.44021 0.0
H700 H 1.00769 1.01509 0.64607 0.0
H701 H 1.00535 0.87459 0.62515 0.0
H702 H 0.98265 0.17447 0.6302 0.0
H703 H 1.00193 0.28999 0.60174 0.0
C704 C 0.27484 0.25794 0.83018 0.0
C705 C 0.28216 0.20281 0.79108 0.0
C706 C 0.28505 0.39604 0.75679 0.0
C707 C 0.27688 0.45218 0.79598 0.0
N708 N 0.25654 0.43291 0.86798 0.0
N709 N 0.30583 0.22041 0.72057 0.0
C710 C 0.26973 0.3813 0.83209 0.0
C711 C 0.2917 0.27338 0.7558 0.0
N712 N 0.27317 0.19043 0.86567 0.0
N713 N 0.28483 0.45954 0.72015 0.0
H714 H 0.31006 0.13089 0.72009 0.0
H715 H 0.3164 0.26481 0.69427 0.0
H716 H 0.27755 0.54701 0.71957 0.0
H717 H 0.28755 0.42342 0.69006 0.0
H718 H 0.27268 0.22396 0.89628 0.0
H719 H 0.2763 0.10055 0.86392 0.0
H720 H 0.24539 0.38608 0.89326 0.0
H721 H 0.25269 0.52247 0.86986 0.0
C722 C 0.77199 0.76341 0.7484 0.0
C723 C 0.76357 0.68796 0.78283 0.0
C724 C 0.76035 0.85826 0.82999 0.0
C725 C 0.76867 0.93369 0.79554 0.0
N726 N 0.77057 0.95875 0.71963 0.0
N727 N 0.74513 0.66493 0.85581 0.0
C728 C 0.77041 0.88618 0.75395 0.0
C729 C 0.75635 0.73611 0.82348 0.0
N730 N 0.78234 0.7167 0.71031 0.0
N731 N 0.75872 0.90384 0.86973 0.0
H732 H 0.74631 0.57519 0.85333 0.0
H733 H 0.73393 0.69405 0.88445 0.0
H734 H 0.75911 0.9931 0.87489 0.0
H735 H 0.75833 0.85302 0.89695 0.0
H736 H 0.79245 0.76541 0.68484 0.0
H737 H 0.78445 0.62743 0.70575 0.0
H738 H 0.76864 0.93042 0.68832 0.0
H739 H 0.76802 1.04802 0.72262 0.0
C740 C 0.53245 0.62726 0.5814 0.0
C741 C 0.52468 0.691 0.54368 0.0
C742 C 0.52273 0.50347 0.50486 0.0
C743 C 0.52899 0.44055 0.54333 0.0
N744 N 0.52992 0.44255 0.61897 0.0
N745 N 0.50903 0.68592 0.46883 0.0
C746 C 0.53025 0.50328 0.58178 0.0
C747 C 0.51914 0.62756 0.50511 0.0
N748 N 0.54303 0.68618 0.61697 0.0
N749 N 0.52285 0.44369 0.46753 0.0
H750 H 0.50929 0.77589 0.46673 0.0
H751 H 0.49931 0.64573 0.4412 0.0
H752 H 0.52392 0.35346 0.46715 0.0
H753 H 0.52355 0.48221 0.43759 0.0
H754 H 0.55444 0.6445 0.64356 0.0
H755 H 0.54477 0.77645 0.61746 0.0
H756 H 0.5271 0.48165 0.64851 0.0
H757 H 0.5288 0.35213 0.6193 0.0
C758 C 0.52176 0.99185 0.99795 0.0
C759 C 0.51922 0.94254 0.03905 0.0
C760 C 0.51029 0.14205 0.06709 0.0
C761 C 0.51949 0.19065 0.02641 0.0
N762 N 0.54823 0.15151 0.95832 0.0
N763 N 0.51053 0.97174 0.11355 0.0
C764 C 0.52923 0.11217 0.99335 0.0
C765 C 0.51231 1.01848 0.07368 0.0
N766 N 0.51952 0.92232 0.96319 0.0
N767 N 0.50051 0.21261 0.09985 0.0
H768 H 0.51044 0.88219 0.11836 0.0
H769 H 0.51062 1.02031 0.14136 0.0
H770 H 0.50588 0.3008 0.09951 0.0
H771 H 0.48764 0.18307 0.12762 0.0
H772 H 0.51905 0.95473 0.93219 0.0
H773 H 0.51348 0.83445 0.96593 0.0
H774 H 0.55854 0.09662 0.93475 0.0
H775 H 0.55821 0.23643 0.95597 0.0
C776 C 0.31092 0.10229 1.01719 0.0
C777 C 0.33034 0.19347 0.99683 0.0
C778 C 0.27034 0.29496 0.98308 0.0
C779 C 0.25058 0.19678 0.99779 0.0
N780 N 0.25018 1.00376 0.0266 0.0
N781 N 0.32987 0.36844 0.95496 0.0
C782 C 0.27032 0.0997 1.01481 0.0
C783 C 0.31047 0.28826 0.97847 0.0
N784 N 0.33148 1.0197 0.03881 0.0
N785 N 0.25051 0.394 0.97362 0.0
H786 H 0.35965 0.36598 0.95079 0.0
H787 H 0.31592 0.43033 0.93622 0.0
H788 H 0.2205 0.39904 0.97501 0.0
H789 H 0.264 0.47246 0.96707 0.0
H790 H 0.31885 0.9564 0.05774 0.0
H791 H 0.36158 1.0196 0.03994 0.0
H792 H 0.26305 0.92567 0.03539 0.0
H793 H 0.22022 1.00053 1.0249 0.0
C794 C 0.79031 0.72252 1.00408 0.0
C795 C 0.81607 0.79637 0.98343 0.0
C796 C 0.76609 0.94293 0.97417 0.0
C797 C 0.73921 0.86502 0.99126 0.0
N798 N 0.72429 0.66951 1.0129 0.0
N799 N 0.82828 0.96498 0.94088 0.0
C800 C 0.75087 0.752 1.00408 0.0
C801 C 0.80402 0.90376 0.96627 0.0
N802 N 0.80388 0.62357 1.02307 0.0
N803 N 0.75472 0.05319 0.96466 0.0
H804 H 0.85672 0.93992 0.93553 0.0
H805 H 0.81898 1.03377 0.92197 0.0
H806 H 0.72701 0.08356 0.97113 0.0
H807 H 0.77312 0.11588 0.9528 0.0
H808 H 0.78765 0.57139 0.04312 0.0
H809 H 0.83261 0.59722 1.02096 0.0
H810 H 0.73216 0.58563 1.02058 0.0
H811 H 0.6948 0.68059 1.00882 0.0
C812 C 0.03259 0.59834 0.22446 0.0
C813 C 0.05863 0.51871 0.24199 0.0
C814 C 1.00667 0.38676 0.25982 0.0
C815 C 0.98147 0.46022 0.23705 0.0
N816 N 0.96991 0.62821 0.19273 0.0
N817 N 0.07265 0.33938 0.27802 0.0
C818 C 0.9943 0.56391 0.21771 0.0
C819 C 0.04632 0.41361 0.26061 0.0
N820 N 0.04496 0.7073 0.21498 0.0
N821 N 0.99209 0.2934 0.28105 0.0
H822 H 0.10206 0.35676 0.27885 0.0
H823 H 0.06563 0.25873 0.29034 0.0
H824 H 0.96302 0.27053 0.279 0.0
H825 H 1.00791 0.2417 0.30202 0.0
H826 H 0.02687 0.77244 0.20382 0.0
H827 H 0.07331 0.73374 0.22073 0.0
H828 H 0.9791 0.69729 0.17406 0.0
H829 H 0.94099 0.60755 0.18801 0.0
C830 C 0.28902 0.75256 0.51183 0.0
C831 C 0.31053 0.82982 0.48725 0.0
C832 C 0.25739 0.96665 0.48458 0.0
C833 C 0.23395 0.88423 0.50503 0.0
N834 N 0.22668 0.68868 0.53253 0.0
N835 N 0.3149 1.00004 0.44359 0.0
C836 C 0.24957 0.77498 0.51783 0.0
C837 C 0.29469 0.93421 0.47167 0.0
N838 N 0.30675 0.65742 0.52929 0.0
N839 N 0.24337 0.07551 0.4773 0.0
H840 H 0.34296 0.98025 0.43449 0.0
H841 H 0.30242 0.06766 0.42637 0.0
H842 H 0.21609 0.101 0.48757 0.0
H843 H 0.25973 0.14231 0.46451 0.0
H844 H 0.29476 0.60679 0.55319 0.0
H845 H 0.33502 0.63391 0.52209 0.0
H846 H 0.23696 0.60611 0.53918 0.0
H847 H 0.19716 0.69463 0.53567 0.0
C848 C 0.81298 0.34094 0.46215 0.0
C849 C 0.8269 0.23547 0.47929 0.0
C850 C 0.76363 0.18809 0.50607 0.0
C851 C 0.74994 0.29547 0.49009 0.0
N852 N 0.76182 0.48451 0.46257 0.0
N853 N 0.81906 0.06675 0.52267 0.0
C854 C 0.77499 0.37565 0.47144 0.0
C855 C 0.80314 0.16104 0.50273 0.0
N856 N 0.83618 0.40649 0.43689 0.0
N857 N 0.73865 0.11032 0.52287 0.0
H858 H 0.84781 1.04264 0.51851 0.0
H859 H 0.80487 1.01648 0.54512 0.0
H860 H 0.70929 0.12581 0.52568 0.0
H861 H 0.74698 1.0279 0.53243 0.0
H862 H 0.82638 0.47801 0.4197 0.0
H863 H 0.86462 0.38351 0.43039 0.0
H864 H 0.77889 0.54965 0.45008 0.0
H865 H 0.73385 0.51076 0.47003 0.0
C866 C 1.01606 0.93109 0.74376 0.0
C867 C 0.9918 1.01995 0.75808 0.0
C868 C 0.04148 0.16443 0.74448 0.0
C869 C 0.06514 0.07603 0.72889 0.0
N870 N 0.07999 0.87215 0.72467 0.0
N871 N 0.98501 0.21497 0.784 0.0
C872 C 0.05395 0.95827 0.73158 0.0
C873 C 1.00578 0.1346 0.76263 0.0
N874 N 1.00178 0.82148 0.73995 0.0
N875 N 0.05306 0.27703 0.74068 0.0
H876 H 0.95738 0.20049 0.79502 0.0
H877 H 0.99666 0.29346 0.79376 0.0
H878 H 0.07873 0.3 0.72577 0.0
H879 H 0.03663 0.34803 0.74978 0.0
H880 H 1.01585 0.75534 0.72382 0.0
H881 H 0.97467 0.79886 0.75153 0.0
H882 H 0.07447 0.78718 0.73318 0.0
H883 H 0.10849 0.88591 0.71618 0.0
C884 C 0.54115 0.37539 0.76657 0.0
C885 C 0.55985 0.47026 0.74719 0.0
C886 C 0.49942 0.56131 0.72986 0.0
C887 C 0.48058 0.46694 0.74931 0.0
N888 N 0.48126 0.29619 0.79284 0.0
N889 N 0.55899 0.66674 0.72282 0.0
C890 C 0.50083 0.37764 0.77007 0.0
C891 C 0.53959 0.56805 0.73303 0.0
N892 N 0.562 0.28183 0.77969 0.0
N893 N 0.47913 0.64009 0.70621 0.0
H894 H 0.58904 0.67154 0.72378 0.0
H895 H 0.54514 0.74498 0.71625 0.0
H896 H 0.44918 0.64049 0.70376 0.0
H897 H 0.49249 0.69805 0.68574 0.0
H898 H 0.5499 0.2039 0.78947 0.0
H899 H 0.5919 0.2818 0.77908 0.0
H900 H 0.49467 0.23432 0.81209 0.0
H901 H 0.4512 0.29563 0.79453 0.0
C902 C 0.54184 0.86863 0.28527 0.0
C903 C 0.55973 0.97053 0.27011 0.0
C904 C 0.5046 0.08351 0.2899 0.0
C905 C 0.48428 0.97916 0.29564 0.0
N906 N 0.48371 0.77519 0.30795 0.0
N907 N 0.5578 0.17394 0.25386 0.0
C908 C 0.50336 0.873 0.29741 0.0
C909 C 0.54131 0.07864 0.27192 0.0
N910 N 0.56039 0.76543 0.28638 0.0
N911 N 0.48771 0.18626 0.29944 0.0
H912 H 0.58489 0.17117 0.23969 0.0
H913 H 0.54356 0.25295 0.25034 0.0
H914 H 0.46018 0.19059 0.31207 0.0
H915 H 0.50246 0.2647 0.29889 0.0
H916 H 0.58921 0.75616 0.27816 0.0
H917 H 0.58921 0.75616 0.27816 0.0
H918 H 0.49664 0.69346 0.30837 0.0
H919 H 0.45479 0.77834 0.31695 0.0
loop_
_geom_bond_atom_site_label_1
_geom_bond_atom_site_label_2
_geom_bond_distance
_geom_bond_site_symmetry_2
_ccdc_geom_bond_type
Co0 N1 2.034 . S
Co0 O15 2.262 . S
Co0 O19 1.958 . S
Co0 O23 1.950 1_556 S
Co0 O24 2.057 . S
N1 Co0 2.034 . S
N1 C2 1.366 . S
N1 C4 1.332 1_556 S
C2 N1 1.366 . S
C2 C5 1.377 . S
C2 H34 0.931 . S
N3 C4 1.346 . S
N3 C5 1.337 1_554 S
C4 N1 1.332 1_554 S
C4 N3 1.346 . S
C4 C38 1.361 . S
C5 C2 1.377 . S
C5 N3 1.337 1_556 S
C5 H41 0.930 . S
Co6 N7 2.034 . S
Co6 O20 1.950 1_556 S
Co6 O21 2.262 . S
Co6 O22 1.958 . S
Co6 O26 2.057 . S
N7 Co6 2.034 . S
N7 C10 1.366 . S
N7 C11 1.332 1_556 S
N8 C9 1.337 1_554 S
N8 C11 1.346 . S
C9 N8 1.337 1_556 S
C9 C10 1.377 . S
C9 H42 0.930 . S
C10 N7 1.366 . S
C10 C9 1.377 . S
C10 H14 0.931 . S
C11 N7 1.332 1_554 S
C11 N8 1.346 . S
C11 C28 1.361 . S
Co12 O15 2.097 . S
Co12 O16 2.065 1_456 S
Co12 O17 2.065 1_546 S
Co12 O18 2.042 1_545 S
Co12 O21 2.097 1_445 S
Co12 O25 2.042 1_455 S
C13 O21 1.253 . S
C13 O26 1.263 . S
H14 C10 0.931 . S
O15 Co0 2.262 . S
O15 Co12 2.097 . S
O15 C39 1.253 . S
O16 Co12 2.065 1_654 S
O16 C32 1.221 . S
O17 Co12 2.065 1_564 S
O17 C27 1.221 . S
O18 Co12 2.042 1_565 S
O18 C33 1.237 . S
O19 Co0 1.958 . S
O19 C33 1.278 1_545 S
O20 Co6 1.950 1_554 S
O20 C32 1.277 1_565 S
O21 Co6 2.262 . S
O21 Co12 2.097 1_665 S
O21 C13 1.253 . S
O22 Co6 1.958 . S
O22 C40 1.278 1_565 S
O23 Co0 1.950 1_554 S
O23 C27 1.277 1_545 S
O24 Co0 2.057 . S
O24 C39 1.263 . S
O25 Co12 2.042 1_655 S
O25 C40 1.237 . S
O26 Co6 2.057 . S
O26 C13 1.263 . S
C27 O17 1.221 . S
C27 O23 1.277 1_565 S
C28 C11 1.361 . S
C28 H29 0.960 . S
C28 H30 0.961 . S
C28 H31 0.961 . S
H29 C28 0.960 . S
H30 C28 0.961 . S
H31 C28 0.961 . S
C32 O16 1.221 . S
C32 O20 1.277 1_545 S
C33 O18 1.237 . S
C33 O19 1.278 1_565 S
H34 C2 0.931 . S
H35 C38 0.961 . S
H36 C38 0.961 . S
H37 C38 0.960 . S
C38 C4 1.361 . S
C38 H35 0.961 . S
C38 H36 0.961 . S
C38 H37 0.960 . S
C39 O15 1.253 . S
C39 O24 1.263 . S
C40 O22 1.278 1_545 S
C40 O25 1.237 . S
H41 C5 0.930 . S
H42 C9 0.930 . S
Co43 N44 2.034 . S
Co43 O58 2.262 . S
Co43 O62 1.958 . S
Co43 O66 1.950 . S
Co43 O67 2.057 . S
N44 Co43 2.034 . S
N44 C45 1.366 . S
N44 C47 1.332 . S
C45 N44 1.366 . S
C45 C48 1.377 . S
C45 H77 0.931 . S
N46 C47 1.346 . S
N46 C48 1.337 . S
C47 N44 1.332 . S
C47 N46 1.346 . S
C47 C81 1.361 . S
C48 C45 1.377 . S
C48 N46 1.337 . S
C48 H84 0.930 . S
Co49 N50 2.034 . S
Co49 O63 1.950 . S
Co49 O64 2.262 . S
Co49 O65 1.958 . S
Co49 O69 2.057 1_545 S
N50 Co49 2.034 . S
N50 C53 1.366 . S
N50 C54 1.332 1_545 S
N51 C52 1.337 . S
N51 C54 1.346 . S
C52 N51 1.337 . S
C52 C53 1.377 1_565 S
C52 H85 0.930 . S
C53 N50 1.366 . S
C53 C52 1.377 1_545 S
C53 H57 0.931 . S
C54 N50 1.332 1_565 S
C54 N51 1.346 . S
C54 C71 1.361 . S
Co55 O58 2.097 . S
Co55 O59 2.065 . S
Co55 O60 2.065 . S
Co55 O61 2.042 . S
Co55 O64 2.097 . S
Co55 O68 2.042 . S
C56 O64 1.253 1_565 S
C56 O69 1.263 . S
H57 C53 0.931 . S
O58 Co43 2.262 . S
O58 Co55 2.097 . S
O58 C82 1.253 . S
O59 Co55 2.065 . S
O59 C75 1.221 . S
O60 Co55 2.065 . S
O60 C70 1.221 . S
O61 Co55 2.042 . S
O61 C76 1.237 . S
O62 Co43 1.958 . S
O62 C76 1.278 . S
O63 Co49 1.950 . S
O63 C75 1.277 . S
O64 Co49 2.262 . S
O64 Co55 2.097 . S
O64 C56 1.253 1_545 S
O65 Co49 1.958 . S
O65 C83 1.278 . S
O66 Co43 1.950 . S
O66 C70 1.277 . S
O67 Co43 2.057 . S
O67 C82 1.263 . S
O68 Co55 2.042 . S
O68 C83 1.237 . S
O69 Co49 2.057 1_565 S
O69 C56 1.263 . S
C70 O60 1.221 . S
C70 O66 1.277 . S
C71 C54 1.361 . S
C71 H72 0.960 . S
C71 H73 0.961 . S
C71 H74 0.961 . S
H72 C71 0.960 . S
H73 C71 0.961 . S
H74 C71 0.961 . S
C75 O59 1.221 . S
C75 O63 1.277 . S
C76 O61 1.237 . S
C76 O62 1.278 . S
H77 C45 0.931 . S
H78 C81 0.961 . S
H79 C81 0.961 . S
H80 C81 0.960 . S
C81 C47 1.361 . S
C81 H78 0.961 . S
C81 H79 0.961 . S
C81 H80 0.960 . S
C82 O58 1.253 . S
C82 O67 1.263 . S
C83 O65 1.278 . S
C83 O68 1.237 . S
H84 C48 0.930 . S
H85 C52 0.930 . S
Co86 N87 2.034 . S
Co86 O101 2.262 . S
Co86 O105 1.958 . S
Co86 O109 1.950 . S
Co86 O110 2.057 1_565 S
N87 Co86 2.034 . S
N87 C88 1.366 . S
N87 C90 1.332 1_565 S
C88 N87 1.366 . S
C88 C91 1.377 1_565 S
C88 H120 0.931 . S
N89 C90 1.346 . S
N89 C91 1.337 . S
C90 N87 1.332 1_545 S
C90 N89 1.346 . S
C90 C124 1.361 . S
C91 C88 1.377 1_545 S
C91 N89 1.337 . S
C91 H127 0.930 . S
Co92 N93 2.034 . S
Co92 O106 1.950 . S
Co92 O107 2.262 . S
Co92 O108 1.958 . S
Co92 O112 2.057 . S
N93 Co92 2.034 . S
N93 C96 1.366 . S
N93 C97 1.332 . S
N94 C95 1.337 . S
N94 C97 1.346 . S
C95 N94 1.337 . S
C95 C96 1.377 . S
C95 H128 0.930 . S
C96 N93 1.366 . S
C96 C95 1.377 . S
C96 H100 0.931 . S
C97 N93 1.332 . S
C97 N94 1.346 . S
C97 C114 1.361 . S
Co98 O101 2.097 . S
Co98 O102 2.065 . S
Co98 O103 2.065 . S
Co98 O104 2.042 . S
Co98 O107 2.097 . S
Co98 O111 2.042 . S
C99 O107 1.253 . S
C99 O112 1.263 . S
H100 C96 0.931 . S
O101 Co86 2.262 . S
O101 Co98 2.097 . S
O101 C125 1.253 1_565 S
O102 Co98 2.065 . S
O102 C118 1.221 . S
O103 Co98 2.065 . S
O103 C113 1.221 . S
O104 Co98 2.042 . S
O104 C119 1.237 . S
O105 Co86 1.958 . S
O105 C119 1.278 . S
O106 Co92 1.950 . S
O106 C118 1.277 . S
O107 Co92 2.262 . S
O107 Co98 2.097 . S
O107 C99 1.253 . S
O108 Co92 1.958 . S
O108 C126 1.278 . S
O109 Co86 1.950 . S
O109 C113 1.277 . S
O110 Co86 2.057 1_545 S
O110 C125 1.263 . S
O111 Co98 2.042 . S
O111 C126 1.237 . S
O112 Co92 2.057 . S
O112 C99 1.263 . S
C113 O103 1.221 . S
C113 O109 1.277 . S
C114 C97 1.361 . S
C114 H115 0.960 . S
C114 H116 0.961 . S
C114 H117 0.961 . S
H115 C114 0.960 . S
H116 C114 0.961 . S
H117 C114 0.961 . S
C118 O102 1.221 . S
C118 O106 1.277 . S
C119 O104 1.237 . S
C119 O105 1.278 . S
H120 C88 0.931 . S
H121 C124 0.961 . S
H122 C124 0.961 . S
H123 C124 0.960 . S
C124 C90 1.361 . S
C124 H121 0.961 . S
C124 H122 0.961 . S
C124 H123 0.960 . S
C125 O101 1.253 1_545 S
C125 O110 1.263 . S
C126 O108 1.278 . S
C126 O111 1.237 . S
H127 C91 0.930 . S
H128 C95 0.930 . S
Co129 N130 2.034 . S
Co129 O144 2.262 . S
Co129 O148 1.958 . S
Co129 O152 1.950 . S
Co129 O153 2.057 . S
N130 Co129 2.034 . S
N130 C131 1.366 . S
N130 C133 1.332 . S
C131 N130 1.366 . S
C131 C134 1.377 . S
C131 H163 0.931 . S
N132 C133 1.346 . S
N132 C134 1.337 . S
C133 N130 1.332 . S
C133 N132 1.346 . S
C133 C167 1.361 . S
C134 C131 1.377 . S
C134 N132 1.337 . S
C134 H170 0.930 . S
Co135 N136 2.034 . S
Co135 O149 1.950 . S
Co135 O150 2.262 . S
Co135 O151 1.958 . S
Co135 O155 2.057 . S
N136 Co135 2.034 . S
N136 C139 1.366 . S
N136 C140 1.332 . S
N137 C138 1.337 . S
N137 C140 1.346 . S
C138 N137 1.337 . S
C138 C139 1.377 . S
C138 H171 0.930 . S
C139 N136 1.366 . S
C139 C138 1.377 . S
C139 H143 0.931 . S
C140 N136 1.332 . S
C140 N137 1.346 . S
C140 C157 1.361 . S
Co141 O144 2.097 . S
Co141 O145 2.065 1_455 S
Co141 O146 2.065 . S
Co141 O147 2.042 . S
Co141 O150 2.097 1_455 S
Co141 O154 2.042 1_455 S
C142 O150 1.253 . S
C142 O155 1.263 . S
H143 C139 0.931 . S
O144 Co129 2.262 . S
O144 Co141 2.097 . S
O144 C168 1.253 . S
O145 Co141 2.065 1_655 S
O145 C161 1.221 . S
O146 Co141 2.065 . S
O146 C156 1.221 . S
O147 Co141 2.042 . S
O147 C162 1.237 . S
O148 Co129 1.958 . S
O148 C162 1.278 . S
O149 Co135 1.950 . S
O149 C161 1.277 . S
O150 Co135 2.262 . S
O150 Co141 2.097 1_655 S
O150 C142 1.253 . S
O151 Co135 1.958 . S
O151 C169 1.278 . S
O152 Co129 1.950 . S
O152 C156 1.277 . S
O153 Co129 2.057 . S
O153 C168 1.263 . S
O154 Co141 2.042 1_655 S
O154 C169 1.237 . S
O155 Co135 2.057 . S
O155 C142 1.263 . S
C156 O146 1.221 . S
C156 O152 1.277 . S
C157 C140 1.361 . S
C157 H158 0.960 . S
C157 H159 0.961 . S
C157 H160 0.961 . S
H158 C157 0.960 . S
H159 C157 0.961 . S
H160 C157 0.961 . S
C161 O145 1.221 . S
C161 O149 1.277 . S
C162 O147 1.237 . S
C162 O148 1.278 . S
H163 C131 0.931 . S
H164 C167 0.961 . S
H165 C167 0.961 . S
H166 C167 0.960 . S
C167 C133 1.361 . S
C167 H164 0.961 . S
C167 H165 0.961 . S
C167 H166 0.960 . S
C168 O144 1.253 . S
C168 O153 1.263 . S
C169 O151 1.278 . S
C169 O154 1.237 . S
H170 C134 0.930 . S
H171 C138 0.930 . S
Co172 N173 2.034 . S
Co172 O187 2.262 . S
Co172 O191 1.958 . S
Co172 O195 1.950 . S
Co172 O196 2.057 1_565 S
N173 Co172 2.034 . S
N173 C174 1.366 . S
N173 C176 1.332 1_565 S
C174 N173 1.366 . S
C174 C177 1.377 1_565 S
C174 H206 0.931 . S
N175 C176 1.346 . S
N175 C177 1.337 . S
C176 N173 1.332 1_545 S
C176 N175 1.346 . S
C176 C210 1.361 . S
C177 C174 1.377 1_545 S
C177 N175 1.337 . S
C177 H213 0.930 . S
Co178 N179 2.034 . S
Co178 O192 1.950 . S
Co178 O193 2.262 . S
Co178 O194 1.958 . S
Co178 O198 2.057 . S
N179 Co178 2.034 . S
N179 C182 1.366 . S
N179 C183 1.332 . S
N180 C181 1.337 . S
N180 C183 1.346 . S
C181 N180 1.337 . S
C181 C182 1.377 . S
C181 H214 0.930 . S
C182 N179 1.366 . S
C182 C181 1.377 . S
C182 H186 0.931 . S
C183 N179 1.332 . S
C183 N180 1.346 . S
C183 C200 1.361 . S
Co184 O187 2.097 . S
Co184 O188 2.065 . S
Co184 O189 2.065 . S
Co184 O190 2.042 . S
Co184 O193 2.097 . S
Co184 O197 2.042 . S
C185 O193 1.253 . S
C185 O198 1.263 . S
H186 C182 0.931 . S
O187 Co172 2.262 . S
O187 Co184 2.097 . S
O187 C211 1.253 1_565 S
O188 Co184 2.065 . S
O188 C204 1.221 . S
O189 Co184 2.065 . S
O189 C199 1.221 . S
O190 Co184 2.042 . S
O190 C205 1.237 . S
O191 Co172 1.958 . S
O191 C205 1.278 . S
O192 Co178 1.950 . S
O192 C204 1.277 . S
O193 Co178 2.262 . S
O193 Co184 2.097 . S
O193 C185 1.253 . S
O194 Co178 1.958 . S
O194 C212 1.278 . S
O195 Co172 1.950 . S
O195 C199 1.277 . S
O196 Co172 2.057 1_545 S
O196 C211 1.263 . S
O197 Co184 2.042 . S
O197 C212 1.237 . S
O198 Co178 2.057 . S
O198 C185 1.263 . S
C199 O189 1.221 . S
C199 O195 1.277 . S
C200 C183 1.361 . S
C200 H201 0.960 . S
C200 H202 0.961 . S
C200 H203 0.961 . S
H201 C200 0.960 . S
H202 C200 0.961 . S
H203 C200 0.961 . S
C204 O188 1.221 . S
C204 O192 1.277 . S
C205 O190 1.237 . S
C205 O191 1.278 . S
H206 C174 0.931 . S
H207 C210 0.961 . S
H208 C210 0.961 . S
H209 C210 0.960 . S
C210 C176 1.361 . S
C210 H207 0.961 . S
C210 H208 0.961 . S
C210 H209 0.960 . S
C211 O187 1.253 1_545 S
C211 O196 1.263 . S
C212 O194 1.278 . S
C212 O197 1.237 . S
H213 C177 0.930 . S
H214 C181 0.930 . S
Co215 N216 2.034 . S
Co215 O230 2.262 . S
Co215 O234 1.958 . S
Co215 O238 1.950 . S
Co215 O239 2.057 1_545 S
N216 Co215 2.034 . S
N216 C217 1.366 . S
N216 C219 1.332 1_545 S
C217 N216 1.366 . S
C217 C220 1.377 1_545 S
C217 H249 0.931 . S
N218 C219 1.346 . S
N218 C220 1.337 . S
C219 N216 1.332 1_565 S
C219 N218 1.346 . S
C219 C253 1.361 . S
C220 C217 1.377 1_565 S
C220 N218 1.337 . S
C220 H256 0.930 . S
Co221 N222 2.034 . S
Co221 O235 1.950 . S
Co221 O236 2.262 . S
Co221 O237 1.958 . S
Co221 O241 2.057 . S
N222 Co221 2.034 . S
N222 C225 1.366 . S
N222 C226 1.332 . S
N223 C224 1.337 . S
N223 C226 1.346 . S
C224 N223 1.337 . S
C224 C225 1.377 . S
C224 H257 0.930 . S
C225 N222 1.366 . S
C225 C224 1.377 . S
C225 H229 0.931 . S
C226 N222 1.332 . S
C226 N223 1.346 . S
C226 C243 1.361 . S
Co227 O230 2.097 . S
Co227 O231 2.065 . S
Co227 O232 2.065 . S
Co227 O233 2.042 . S
Co227 O236 2.097 . S
Co227 O240 2.042 . S
C228 O236 1.253 . S
C228 O241 1.263 . S
H229 C225 0.931 . S
O230 Co215 2.262 . S
O230 Co227 2.097 . S
O230 C254 1.253 1_545 S
O231 Co227 2.065 . S
O231 C247 1.221 . S
O232 Co227 2.065 . S
O232 C242 1.221 . S
O233 Co227 2.042 . S
O233 C248 1.237 . S
O234 Co215 1.958 . S
O234 C248 1.278 . S
O235 Co221 1.950 . S
O235 C247 1.277 . S
O236 Co221 2.262 . S
O236 Co227 2.097 . S
O236 C228 1.253 . S
O237 Co221 1.958 . S
O237 C255 1.278 . S
O238 Co215 1.950 . S
O238 C242 1.277 . S
O239 Co215 2.057 1_565 S
O239 C254 1.263 . S
O240 Co227 2.042 . S
O240 C255 1.237 . S
O241 Co221 2.057 . S
O241 C228 1.263 . S
C242 O232 1.221 . S
C242 O238 1.277 . S
C243 C226 1.361 . S
C243 H244 0.960 . S
C243 H245 0.961 . S
C243 H246 0.961 . S
H244 C243 0.960 . S
H245 C243 0.961 . S
H246 C243 0.961 . S
C247 O231 1.221 . S
C247 O235 1.277 . S
C248 O233 1.237 . S
C248 O234 1.278 . S
H249 C217 0.931 . S
H250 C253 0.961 . S
H251 C253 0.961 . S
H252 C253 0.960 . S
C253 C219 1.361 . S
C253 H250 0.961 . S
C253 H251 0.961 . S
C253 H252 0.960 . S
C254 O230 1.253 1_565 S
C254 O239 1.263 . S
C255 O237 1.278 . S
C255 O240 1.237 . S
H256 C220 0.930 . S
H257 C224 0.930 . S
Co258 N259 2.034 . S
Co258 O273 2.262 . S
Co258 O277 1.958 . S
Co258 O281 1.950 . S
Co258 O282 2.057 . S
N259 Co258 2.034 . S
N259 C260 1.366 . S
N259 C262 1.332 . S
C260 N259 1.366 . S
C260 C263 1.377 . S
C260 H292 0.931 . S
N261 C262 1.346 . S
N261 C263 1.337 . S
C262 N259 1.332 . S
C262 N261 1.346 . S
C262 C296 1.361 . S
C263 C260 1.377 . S
C263 N261 1.337 . S
C263 H299 0.930 . S
Co264 N265 2.034 . S
Co264 O278 1.950 . S
Co264 O279 2.262 . S
Co264 O280 1.958 . S
Co264 O284 2.057 . S
N265 Co264 2.034 . S
N265 C268 1.366 . S
N265 C269 1.332 . S
N266 C267 1.337 . S
N266 C269 1.346 . S
C267 N266 1.337 . S
C267 C268 1.377 . S
C267 H300 0.930 . S
C268 N265 1.366 . S
C268 C267 1.377 . S
C268 H272 0.931 . S
C269 N265 1.332 . S
C269 N266 1.346 . S
C269 C286 1.361 . S
Co270 O273 2.097 . S
Co270 O274 2.065 . S
Co270 O275 2.065 1_545 S
Co270 O276 2.042 1_545 S
Co270 O279 2.097 1_545 S
Co270 O283 2.042 . S
C271 O279 1.253 . S
C271 O284 1.263 . S
H272 C268 0.931 . S
O273 Co258 2.262 . S
O273 Co270 2.097 . S
O273 C297 1.253 . S
O274 Co270 2.065 . S
O274 C290 1.221 . S
O275 Co270 2.065 1_565 S
O275 C285 1.221 . S
O276 Co270 2.042 1_565 S
O276 C291 1.237 . S
O277 Co258 1.958 . S
O277 C291 1.278 1_545 S
O278 Co264 1.950 . S
O278 C290 1.277 1_565 S
O279 Co264 2.262 . S
O279 Co270 2.097 1_565 S
O279 C271 1.253 . S
O280 Co264 1.958 . S
O280 C298 1.278 1_565 S
O281 Co258 1.950 . S
O281 C285 1.277 1_545 S
O282 Co258 2.057 . S
O282 C297 1.263 . S
O283 Co270 2.042 . S
O283 C298 1.237 . S
O284 Co264 2.057 . S
O284 C271 1.263 . S
C285 O275 1.221 . S
C285 O281 1.277 1_565 S
C286 C269 1.361 . S
C286 H287 0.960 . S
C286 H288 0.961 . S
C286 H289 0.961 . S
H287 C286 0.960 . S
H288 C286 0.961 . S
H289 C286 0.961 . S
C290 O274 1.221 . S
C290 O278 1.277 1_545 S
C291 O276 1.237 . S
C291 O277 1.278 1_565 S
H292 C260 0.931 . S
H293 C296 0.961 . S
H294 C296 0.961 . S
H295 C296 0.960 . S
C296 C262 1.361 . S
C296 H293 0.961 . S
C296 H294 0.961 . S
C296 H295 0.960 . S
C297 O273 1.253 . S
C297 O282 1.263 . S
C298 O280 1.278 1_545 S
C298 O283 1.237 . S
H299 C263 0.930 . S
H300 C267 0.930 . S
Co301 N302 2.034 . S
Co301 O316 2.262 . S
Co301 O320 1.958 . S
Co301 O324 1.950 1_556 S
Co301 O325 2.057 . S
N302 Co301 2.034 . S
N302 C303 1.366 . S
N302 C305 1.332 1_556 S
C303 N302 1.366 . S
C303 C306 1.377 . S
C303 H335 0.931 . S
N304 C305 1.346 . S
N304 C306 1.337 1_554 S
C305 N302 1.332 1_554 S
C305 N304 1.346 . S
C305 C339 1.361 . S
C306 C303 1.377 . S
C306 N304 1.337 1_556 S
C306 H342 0.930 . S
Co307 N308 2.034 . S
Co307 O321 1.950 1_556 S
Co307 O322 2.262 . S
Co307 O323 1.958 . S
Co307 O327 2.057 . S
N308 Co307 2.034 . S
N308 C311 1.366 . S
N308 C312 1.332 1_556 S
N309 C310 1.337 1_554 S
N309 C312 1.346 . S
C310 N309 1.337 1_556 S
C310 C311 1.377 . S
C310 H343 0.930 . S
C311 N308 1.366 . S
C311 C310 1.377 . S
C311 H315 0.931 . S
C312 N308 1.332 1_554 S
C312 N309 1.346 . S
C312 C329 1.361 . S
Co313 O316 2.097 . S
Co313 O317 2.065 1_556 S
Co313 O318 2.065 1_556 S
Co313 O319 2.042 . S
Co313 O322 2.097 . S
Co313 O326 2.042 . S
C314 O322 1.253 . S
C314 O327 1.263 . S
H315 C311 0.931 . S
O316 Co301 2.262 . S
O316 Co313 2.097 . S
O316 C340 1.253 . S
O317 Co313 2.065 1_554 S
O317 C333 1.221 . S
O318 Co313 2.065 1_554 S
O318 C328 1.221 . S
O319 Co313 2.042 . S
O319 C334 1.237 . S
O320 Co301 1.958 . S
O320 C334 1.278 . S
O321 Co307 1.950 1_554 S
O321 C333 1.277 . S
O322 Co307 2.262 . S
O322 Co313 2.097 . S
O322 C314 1.253 . S
O323 Co307 1.958 . S
O323 C341 1.278 . S
O324 Co301 1.950 1_554 S
O324 C328 1.277 . S
O325 Co301 2.057 . S
O325 C340 1.263 . S
O326 Co313 2.042 . S
O326 C341 1.237 . S
O327 Co307 2.057 . S
O327 C314 1.263 . S
C328 O318 1.221 . S
C328 O324 1.277 . S
C329 C312 1.361 . S
C329 H330 0.960 . S
C329 H331 0.961 . S
C329 H332 0.961 . S
H330 C329 0.960 . S
H331 C329 0.961 . S
H332 C329 0.961 . S
C333 O317 1.221 . S
C333 O321 1.277 . S
C334 O319 1.237 . S
C334 O320 1.278 . S
H335 C303 0.931 . S
H336 C339 0.961 . S
H337 C339 0.961 . S
H338 C339 0.960 . S
C339 C305 1.361 . S
C339 H336 0.961 . S
C339 H337 0.961 . S
C339 H338 0.960 . S
C340 O316 1.253 . S
C340 O325 1.263 . S
C341 O323 1.278 . S
C341 O326 1.237 . S
H342 C306 0.930 . S
H343 C310 0.930 . S
C344 C345 1.363 . S
C344 C350 1.379 . S
C344 N352 1.356 1_545 S
C345 C344 1.363 . S
C345 C351 1.363 . S
C346 C347 1.363 . S
C346 C351 1.379 . S
C346 N353 1.356 . S
C347 C346 1.363 . S
C347 C350 1.363 . S
N348 C350 1.356 . S
N348 H360 0.984 . S
N348 H361 0.985 . S
N349 C351 1.356 . S
N349 H354 0.984 . S
N349 H355 0.985 . S
C350 C344 1.379 . S
C350 C347 1.363 . S
C350 N348 1.356 . S
C351 C345 1.363 . S
C351 C346 1.379 . S
C351 N349 1.356 . S
N352 C344 1.356 1_565 S
N352 H358 0.984 . S
N352 H359 0.984 . S
N353 C346 1.356 . S
N353 H356 0.984 . S
N353 H357 0.985 . S
H354 N349 0.984 . S
H355 N349 0.985 . S
H356 N353 0.984 . S
H357 N353 0.985 . S
H358 N352 0.984 . S
H359 N352 0.984 . S
H360 N348 0.984 . S
H361 N348 0.985 . S
C362 C363 1.363 . S
C362 C368 1.379 . S
C362 N370 1.356 . S
C363 C362 1.363 . S
C363 C369 1.363 . S
C364 C365 1.363 . S
C364 C369 1.379 . S
C364 N371 1.356 . S
C365 C364 1.363 . S
C365 C368 1.363 . S
N366 C368 1.356 . S
N366 H378 0.984 . S
N366 H379 0.985 . S
N367 C369 1.356 . S
N367 H372 0.984 1_565 S
N367 H373 0.985 . S
C368 C362 1.379 . S
C368 C365 1.363 . S
C368 N366 1.356 . S
C369 C363 1.363 . S
C369 C364 1.379 . S
C369 N367 1.356 . S
N370 C362 1.356 . S
N370 H376 0.984 . S
N370 H377 0.984 1_565 S
N371 C364 1.356 . S
N371 H374 0.984 . S
N371 H375 0.985 . S
H372 N367 0.984 1_545 S
H373 N367 0.985 . S
H374 N371 0.984 . S
H375 N371 0.985 . S
H376 N370 0.984 . S
H377 N370 0.984 1_545 S
H378 N366 0.984 . S
H379 N366 0.985 . S
C380 C381 1.363 . S
C380 C386 1.379 . S
C380 N388 1.356 . S
C381 C380 1.363 . S
C381 C387 1.363 . S
C382 C383 1.363 . S
C382 C387 1.379 . S
C382 N389 1.356 . S
C383 C382 1.363 . S
C383 C386 1.363 . S
N384 C386 1.356 . S
N384 H396 0.984 . S
N384 H397 0.985 . S
N385 C387 1.356 . S
N385 H390 0.984 . S
N385 H391 0.985 . S
C386 C380 1.379 . S
C386 C383 1.363 . S
C386 N384 1.356 . S
C387 C381 1.363 . S
C387 C382 1.379 . S
C387 N385 1.356 . S
N388 C380 1.356 . S
N388 H394 0.984 . S
N388 H395 0.984 . S
N389 C382 1.356 . S
N389 H392 0.984 . S
N389 H393 0.985 . S
H390 N385 0.984 . S
H391 N385 0.985 . S
H392 N389 0.984 . S
H393 N389 0.985 . S
H394 N388 0.984 . S
H395 N388 0.984 . S
H396 N384 0.984 . S
H397 N384 0.985 . S
C398 C399 1.363 . S
C398 C404 1.379 . S
C398 N406 1.356 . S
C399 C398 1.363 . S
C399 C405 1.363 . S
C400 C401 1.363 . S
C400 C405 1.379 . S
C400 N407 1.356 . S
C401 C400 1.363 . S
C401 C404 1.363 . S
N402 C404 1.356 . S
N402 H414 0.984 . S
N402 H415 0.985 . S
N403 C405 1.356 . S
N403 H408 0.984 . S
N403 H409 0.985 . S
C404 C398 1.379 . S
C404 C401 1.363 . S
C404 N402 1.356 . S
C405 C399 1.363 . S
C405 C400 1.379 . S
C405 N403 1.356 . S
N406 C398 1.356 . S
N406 H412 0.984 . S
N406 H413 0.984 . S
N407 C400 1.356 . S
N407 H410 0.984 . S
N407 H411 0.985 . S
H408 N403 0.984 . S
H409 N403 0.985 . S
H410 N407 0.984 . S
H411 N407 0.985 . S
H412 N406 0.984 . S
H413 N406 0.984 . S
H414 N402 0.984 . S
H415 N402 0.985 . S
C416 C417 1.363 . S
C416 C422 1.379 . S
C416 N424 1.356 . S
C417 C416 1.363 . S
C417 C423 1.363 . S
C418 C419 1.363 . S
C418 C423 1.379 . S
C418 N425 1.356 . S
C419 C418 1.363 . S
C419 C422 1.363 . S
N420 C422 1.356 . S
N420 H432 0.984 . S
N420 H433 0.985 . S
N421 C423 1.356 . S
N421 H426 0.984 . S
N421 H427 0.985 . S
C422 C416 1.379 . S
C422 C419 1.363 . S
C422 N420 1.356 . S
C423 C417 1.363 . S
C423 C418 1.379 . S
C423 N421 1.356 . S
N424 C416 1.356 . S
N424 H430 0.984 . S
N424 H431 0.984 . S
N425 C418 1.356 . S
N425 H428 0.984 . S
N425 H429 0.985 . S
H426 N421 0.984 . S
H427 N421 0.985 . S
H428 N425 0.984 . S
H429 N425 0.985 . S
H430 N424 0.984 . S
H431 N424 0.984 . S
H432 N420 0.984 . S
H433 N420 0.985 . S
C434 C435 1.363 . S
C434 C440 1.379 . S
C434 N442 1.356 . S
C435 C434 1.363 . S
C435 C441 1.363 . S
C436 C437 1.363 . S
C436 C441 1.379 . S
C436 N443 1.356 . S
C437 C436 1.363 . S
C437 C440 1.363 . S
N438 C440 1.356 . S
N438 H450 0.984 . S
N438 H451 0.985 . S
N439 C441 1.356 . S
N439 H444 0.984 . S
N439 H445 0.985 . S
C440 C434 1.379 . S
C440 C437 1.363 . S
C440 N438 1.356 . S
C441 C435 1.363 . S
C441 C436 1.379 . S
C441 N439 1.356 . S
N442 C434 1.356 . S
N442 H448 0.984 . S
N442 H449 0.984 . S
N443 C436 1.356 . S
N443 H446 0.984 . S
N443 H447 0.985 . S
H444 N439 0.984 . S
H445 N439 0.985 . S
H446 N443 0.984 . S
H447 N443 0.985 . S
H448 N442 0.984 . S
H449 N442 0.984 . S
H450 N438 0.984 . S
H451 N438 0.985 . S
C452 C453 1.363 . S
C452 C458 1.379 . S
C452 N460 1.356 . S
C453 C452 1.363 . S
C453 C459 1.363 . S
C454 C455 1.363 . S
C454 C459 1.379 . S
C454 N461 1.356 . S
C455 C454 1.363 . S
C455 C458 1.363 . S
N456 C458 1.356 . S
N456 H468 0.984 . S
N456 H469 0.985 . S
N457 C459 1.356 . S
N457 H462 0.984 . S
N457 H463 0.985 . S
C458 C452 1.379 . S
C458 C455 1.363 . S
C458 N456 1.356 . S
C459 C453 1.363 . S
C459 C454 1.379 . S
C459 N457 1.356 . S
N460 C452 1.356 . S
N460 H466 0.984 . S
N460 H467 0.984 . S
N461 C454 1.356 . S
N461 H464 0.984 . S
N461 H465 0.985 . S
H462 N457 0.984 . S
H463 N457 0.985 . S
H464 N461 0.984 . S
H465 N461 0.985 . S
H466 N460 0.984 . S
H467 N460 0.984 . S
H468 N456 0.984 . S
H469 N456 0.985 . S
C470 C471 1.363 . S
C470 C476 1.379 . S
C470 N478 1.356 . S
C471 C470 1.363 . S
C471 C477 1.363 . S
C472 C473 1.363 . S
C472 C477 1.379 . S
C472 N479 1.356 . S
C473 C472 1.363 . S
C473 C476 1.363 . S
N474 C476 1.356 . S
N474 H486 0.984 . S
N474 H487 0.985 1_545 S
N475 C477 1.356 . S
N475 H480 0.984 . S
N475 H481 0.985 . S
C476 C470 1.379 . S
C476 C473 1.363 . S
C476 N474 1.356 . S
C477 C471 1.363 . S
C477 C472 1.379 . S
C477 N475 1.356 . S
N478 C470 1.356 . S
N478 H484 0.984 . S
N478 H485 0.984 . S
N479 C472 1.356 . S
N479 H482 0.984 . S
N479 H483 0.985 . S
H480 N475 0.984 . S
H481 N475 0.985 . S
H482 N479 0.984 . S
H483 N479 0.985 . S
H484 N478 0.984 . S
H485 N478 0.984 . S
H486 N474 0.984 . S
H487 N474 0.985 1_565 S
C488 C489 1.363 . S
C488 C494 1.379 . S
C488 N496 1.356 . S
C489 C488 1.363 . S
C489 C495 1.363 . S
C490 C491 1.363 . S
C490 C495 1.379 . S
C490 N497 1.356 1_545 S
C491 C490 1.363 . S
C491 C494 1.363 . S
N492 C494 1.356 . S
N492 H504 0.984 . S
N492 H505 0.985 . S
N493 C495 1.356 . S
N493 H498 0.984 . S
N493 H499 0.985 . S
C494 C488 1.379 . S
C494 C491 1.363 . S
C494 N492 1.356 . S
C495 C489 1.363 . S
C495 C490 1.379 . S
C495 N493 1.356 . S
N496 C488 1.356 . S
N496 H502 0.984 . S
N496 H503 0.984 . S
N497 C490 1.356 1_565 S
N497 H500 0.984 . S
N497 H501 0.985 . S
H498 N493 0.984 . S
H499 N493 0.985 . S
H500 N497 0.984 . S
H501 N497 0.985 . S
H502 N496 0.984 . S
H503 N496 0.984 . S
H504 N492 0.984 . S
H505 N492 0.985 . S
C506 C507 1.363 . S
C506 C512 1.379 . S
C506 N514 1.356 1_565 S
C507 C506 1.363 . S
C507 C513 1.363 . S
C508 C509 1.363 . S
C508 C513 1.379 . S
C508 N515 1.356 . S
C509 C508 1.363 . S
C509 C512 1.363 . S
N510 C512 1.356 . S
N510 H522 0.984 . S
N510 H523 0.985 . S
N511 C513 1.356 . S
N511 H516 0.984 . S
N511 H517 0.985 . S
C512 C506 1.379 . S
C512 C509 1.363 . S
C512 N510 1.356 . S
C513 C507 1.363 . S
C513 C508 1.379 . S
C513 N511 1.356 . S
N514 C506 1.356 1_545 S
N514 H520 0.984 . S
N514 H521 0.984 . S
N515 C508 1.356 . S
N515 H518 0.984 . S
N515 H519 0.985 . S
H516 N511 0.984 . S
H517 N511 0.985 . S
H518 N515 0.984 . S
H519 N515 0.985 . S
H520 N514 0.984 . S
H521 N514 0.984 . S
H522 N510 0.984 . S
H523 N510 0.985 . S
C524 C525 1.363 . S
C524 C530 1.379 . S
C524 N532 1.356 . S
C525 C524 1.363 . S
C525 C531 1.363 . S
C526 C527 1.363 . S
C526 C531 1.379 . S
C526 N533 1.356 . S
C527 C526 1.363 . S
C527 C530 1.363 . S
N528 C530 1.356 . S
N528 H540 0.984 . S
N528 H541 0.985 . S
N529 C531 1.356 . S
N529 H534 0.984 . S
N529 H535 0.985 . S
C530 C524 1.379 . S
C530 C527 1.363 . S
C530 N528 1.356 . S
C531 C525 1.363 . S
C531 C526 1.379 . S
C531 N529 1.356 . S
N532 C524 1.356 . S
N532 H538 0.984 . S
N532 H539 0.984 . S
N533 C526 1.356 . S
N533 H536 0.984 . S
N533 H537 0.985 . S
H534 N529 0.984 . S
H535 N529 0.985 . S
H536 N533 0.984 . S
H537 N533 0.985 . S
H538 N532 0.984 . S
H539 N532 0.984 . S
H540 N528 0.984 . S
H541 N528 0.985 . S
C542 C543 1.363 . S
C542 C548 1.379 . S
C542 N550 1.356 . S
C543 C542 1.363 . S
C543 C549 1.363 . S
C544 C545 1.363 . S
C544 C549 1.379 . S
C544 N551 1.356 . S
C545 C544 1.363 . S
C545 C548 1.363 . S
N546 C548 1.356 . S
N546 H558 0.984 . S
N546 H559 0.985 . S
N547 C549 1.356 . S
N547 H552 0.984 . S
N547 H553 0.985 . S
C548 C542 1.379 . S
C548 C545 1.363 . S
C548 N546 1.356 . S
C549 C543 1.363 . S
C549 C544 1.379 . S
C549 N547 1.356 . S
N550 C542 1.356 . S
N550 H556 0.984 . S
N550 H557 0.984 . S
N551 C544 1.356 . S
N551 H554 0.984 . S
N551 H555 0.985 . S
H552 N547 0.984 . S
H553 N547 0.985 . S
H554 N551 0.984 . S
H555 N551 0.985 . S
H556 N550 0.984 . S
H557 N550 0.984 . S
H558 N546 0.984 . S
H559 N546 0.985 . S
C560 C561 1.363 . S
C560 C566 1.379 . S
C560 N568 1.356 . S
C561 C560 1.363 . S
C561 C567 1.363 . S
C562 C563 1.363 . S
C562 C567 1.379 . S
C562 N569 1.356 . S
C563 C562 1.363 . S
C563 C566 1.363 . S
N564 C566 1.356 . S
N564 H576 0.984 . S
N564 H577 0.985 . S
N565 C567 1.356 . S
N565 H570 0.984 . S
N565 H571 0.985 . S
C566 C560 1.379 . S
C566 C563 1.363 . S
C566 N564 1.356 . S
C567 C561 1.363 . S
C567 C562 1.379 . S
C567 N565 1.356 . S
N568 C560 1.356 . S
N568 H574 0.984 . S
N568 H575 0.984 . S
N569 C562 1.356 . S
N569 H572 0.984 . S
N569 H573 0.985 . S
H570 N565 0.984 . S
H571 N565 0.985 . S
H572 N569 0.984 . S
H573 N569 0.985 . S
H574 N568 0.984 . S
H575 N568 0.984 . S
H576 N564 0.984 . S
H577 N564 0.985 . S
C578 C579 1.363 . S
C578 C584 1.379 . S
C578 N586 1.356 . S
C579 C578 1.363 . S
C579 C585 1.363 . S
C580 C581 1.363 . S
C580 C585 1.379 . S
C580 N587 1.356 . S
C581 C580 1.363 . S
C581 C584 1.363 . S
N582 C584 1.356 . S
N582 H594 0.984 . S
N582 H595 0.985 . S
N583 C585 1.356 . S
N583 H588 0.984 . S
N583 H589 0.985 . S
C584 C578 1.379 . S
C584 C581 1.363 . S
C584 N582 1.356 . S
C585 C579 1.363 . S
C585 C580 1.379 . S
C585 N583 1.356 . S
N586 C578 1.356 . S
N586 H592 0.984 . S
N586 H593 0.984 . S
N587 C580 1.356 . S
N587 H590 0.984 . S
N587 H591 0.985 . S
H588 N583 0.984 . S
H589 N583 0.985 . S
H590 N587 0.984 . S
H591 N587 0.985 . S
H592 N586 0.984 . S
H593 N586 0.984 . S
H594 N582 0.984 . S
H595 N582 0.985 . S
C596 C597 1.363 . S
C596 C602 1.379 . S
C596 N604 1.356 . S
C597 C596 1.363 . S
C597 C603 1.363 . S
C598 C599 1.363 . S
C598 C603 1.379 . S
C598 N605 1.356 . S
C599 C598 1.363 . S
C599 C602 1.363 . S
N600 C602 1.356 . S
N600 H612 0.984 . S
N600 H613 0.985 . S
N601 C603 1.356 . S
N601 H606 0.984 . S
N601 H607 0.985 . S
C602 C596 1.379 . S
C602 C599 1.363 . S
C602 N600 1.356 . S
C603 C597 1.363 . S
C603 C598 1.379 . S
C603 N601 1.356 . S
N604 C596 1.356 . S
N604 H610 0.984 . S
N604 H611 0.984 . S
N605 C598 1.356 . S
N605 H608 0.984 . S
N605 H609 0.985 . S
H606 N601 0.984 . S
H607 N601 0.985 . S
H608 N605 0.984 . S
H609 N605 0.985 . S
H610 N604 0.984 . S
H611 N604 0.984 . S
H612 N600 0.984 . S
H613 N600 0.985 . S
C614 C615 1.363 . S
C614 C620 1.379 . S
C614 N622 1.356 . S
C615 C614 1.363 . S
C615 C621 1.363 . S
C616 C617 1.363 . S
C616 C621 1.379 . S
C616 N623 1.356 . S
C617 C616 1.363 . S
C617 C620 1.363 . S
N618 C620 1.356 . S
N618 H630 0.984 . S
N618 H631 0.985 . S
N619 C621 1.356 . S
N619 H624 0.984 . S
N619 H625 0.985 . S
C620 C614 1.379 . S
C620 C617 1.363 . S
C620 N618 1.356 . S
C621 C615 1.363 . S
C621 C616 1.379 . S
C621 N619 1.356 . S
N622 C614 1.356 . S
N622 H628 0.984 . S
N622 H629 0.984 . S
N623 C616 1.356 . S
N623 H626 0.984 . S
N623 H627 0.985 . S
H624 N619 0.984 . S
H625 N619 0.985 . S
H626 N623 0.984 . S
H627 N623 0.985 . S
H628 N622 0.984 . S
H629 N622 0.984 . S
H630 N618 0.984 . S
H631 N618 0.985 . S
C632 C633 1.363 1_454 S
C632 C638 1.379 . S
C632 N640 1.356 . S
C633 C632 1.363 1_656 S
C633 C639 1.363 . S
C634 C635 1.363 1_655 S
C634 C639 1.379 . S
C634 N641 1.356 . S
C635 C634 1.363 1_455 S
C635 C638 1.363 1_556 S
N636 C638 1.356 . S
N636 H648 0.984 . S
N636 H649 0.985 . S
N637 C639 1.356 . S
N637 H642 0.984 . S
N637 H643 0.985 . S
C638 C632 1.379 . S
C638 C635 1.363 1_554 S
C638 N636 1.356 . S
C639 C633 1.363 . S
C639 C634 1.379 . S
C639 N637 1.356 . S
N640 C632 1.356 . S
N640 H646 0.984 . S
N640 H647 0.984 . S
N641 C634 1.356 . S
N641 H644 0.984 . S
N641 H645 0.985 . S
H642 N637 0.984 . S
H643 N637 0.985 . S
H644 N641 0.984 . S
H645 N641 0.985 . S
H646 N640 0.984 . S
H647 N640 0.984 . S
H648 N636 0.984 . S
H649 N636 0.985 . S
C650 C651 1.363 . S
C650 C656 1.379 . S
C650 N658 1.356 . S
C651 C650 1.363 . S
C651 C657 1.363 . S
C652 C653 1.363 . S
C652 C657 1.379 . S
C652 N659 1.356 . S
C653 C652 1.363 . S
C653 C656 1.363 . S
N654 C656 1.356 . S
N654 H666 0.984 . S
N654 H667 0.985 . S
N655 C657 1.356 . S
N655 H660 0.984 . S
N655 H661 0.985 . S
C656 C650 1.379 . S
C656 C653 1.363 . S
C656 N654 1.356 . S
C657 C651 1.363 . S
C657 C652 1.379 . S
C657 N655 1.356 . S
N658 C650 1.356 . S
N658 H664 0.984 . S
N658 H665 0.984 . S
N659 C652 1.356 . S
N659 H662 0.984 . S
N659 H663 0.985 . S
H660 N655 0.984 . S
H661 N655 0.985 . S
H662 N659 0.984 . S
H663 N659 0.985 . S
H664 N658 0.984 . S
H665 N658 0.984 . S
H666 N654 0.984 . S
H667 N654 0.985 . S
C668 C669 1.363 . S
C668 C674 1.379 . S
C668 N676 1.356 . S
C669 C668 1.363 . S
C669 C675 1.363 . S
C670 C671 1.363 . S
C670 C675 1.379 . S
C670 N677 1.356 . S
C671 C670 1.363 . S
C671 C674 1.363 . S
N672 C674 1.356 . S
N672 H684 0.984 . S
N672 H685 0.985 . S
N673 C675 1.356 . S
N673 H678 0.984 . S
N673 H679 0.985 . S
C674 C668 1.379 . S
C674 C671 1.363 . S
C674 N672 1.356 . S
C675 C669 1.363 . S
C675 C670 1.379 . S
C675 N673 1.356 . S
N676 C668 1.356 . S
N676 H682 0.984 . S
N676 H683 0.984 . S
N677 C670 1.356 . S
N677 H680 0.984 . S
N677 H681 0.985 . S
H678 N673 0.984 . S
H679 N673 0.985 . S
H680 N677 0.984 . S
H681 N677 0.985 . S
H682 N676 0.984 . S
H683 N676 0.984 . S
H684 N672 0.984 . S
H685 N672 0.985 . S
C686 C687 1.363 1_655 S
C686 C692 1.379 1_565 S
C686 N694 1.356 . S
C687 C686 1.363 1_455 S
C687 C693 1.363 . S
C688 C689 1.363 1_455 S
C688 C693 1.379 1_545 S
C688 N695 1.356 . S
C689 C688 1.363 1_655 S
C689 C692 1.363 . S
N690 C692 1.356 . S
N690 H702 0.984 . S
N690 H703 0.985 . S
N691 C693 1.356 . S
N691 H696 0.984 . S
N691 H697 0.985 . S
C692 C686 1.379 1_545 S
C692 C689 1.363 . S
C692 N690 1.356 . S
C693 C687 1.363 . S
C693 C688 1.379 1_565 S
C693 N691 1.356 . S
N694 C686 1.356 . S
N694 H700 0.984 . S
N694 H701 0.984 . S
N695 C688 1.356 . S
N695 H698 0.984 . S
N695 H699 0.985 . S
H696 N691 0.984 . S
H697 N691 0.985 . S
H698 N695 0.984 . S
H699 N695 0.985 . S
H700 N694 0.984 . S
H701 N694 0.984 . S
H702 N690 0.984 . S
H703 N690 0.985 . S
C704 C705 1.363 . S
C704 C710 1.379 . S
C704 N712 1.356 . S
C705 C704 1.363 . S
C705 C711 1.363 . S
C706 C707 1.363 . S
C706 C711 1.379 . S
C706 N713 1.356 . S
C707 C706 1.363 . S
C707 C710 1.363 . S
N708 C710 1.356 . S
N708 H720 0.984 . S
N708 H721 0.985 . S
N709 C711 1.356 . S
N709 H714 0.984 . S
N709 H715 0.985 . S
C710 C704 1.379 . S
C710 C707 1.363 . S
C710 N708 1.356 . S
C711 C705 1.363 . S
C711 C706 1.379 . S
C711 N709 1.356 . S
N712 C704 1.356 . S
N712 H718 0.984 . S
N712 H719 0.984 . S
N713 C706 1.356 . S
N713 H716 0.984 . S
N713 H717 0.985 . S
H714 N709 0.984 . S
H715 N709 0.985 . S
H716 N713 0.984 . S
H717 N713 0.985 . S
H718 N712 0.984 . S
H719 N712 0.984 . S
H720 N708 0.984 . S
H721 N708 0.985 . S
C722 C723 1.363 . S
C722 C728 1.379 . S
C722 N730 1.356 . S
C723 C722 1.363 . S
C723 C729 1.363 . S
C724 C725 1.363 . S
C724 C729 1.379 . S
C724 N731 1.356 . S
C725 C724 1.363 . S
C725 C728 1.363 . S
N726 C728 1.356 . S
N726 H738 0.984 . S
N726 H739 0.985 . S
N727 C729 1.356 . S
N727 H732 0.984 . S
N727 H733 0.985 . S
C728 C722 1.379 . S
C728 C725 1.363 . S
C728 N726 1.356 . S
C729 C723 1.363 . S
C729 C724 1.379 . S
C729 N727 1.356 . S
N730 C722 1.356 . S
N730 H736 0.984 . S
N730 H737 0.984 . S
N731 C724 1.356 . S
N731 H734 0.984 . S
N731 H735 0.985 . S
H732 N727 0.984 . S
H733 N727 0.985 . S
H734 N731 0.984 . S
H735 N731 0.985 . S
H736 N730 0.984 . S
H737 N730 0.984 . S
H738 N726 0.984 . S
H739 N726 0.985 . S
C740 C741 1.363 . S
C740 C746 1.379 . S
C740 N748 1.356 . S
C741 C740 1.363 . S
C741 C747 1.363 . S
C742 C743 1.363 . S
C742 C747 1.379 . S
C742 N749 1.356 . S
C743 C742 1.363 . S
C743 C746 1.363 . S
N744 C746 1.356 . S
N744 H756 0.984 . S
N744 H757 0.985 . S
N745 C747 1.356 . S
N745 H750 0.984 . S
N745 H751 0.985 . S
C746 C740 1.379 . S
C746 C743 1.363 . S
C746 N744 1.356 . S
C747 C741 1.363 . S
C747 C742 1.379 . S
C747 N745 1.356 . S
N748 C740 1.356 . S
N748 H754 0.984 . S
N748 H755 0.984 . S
N749 C742 1.356 . S
N749 H752 0.984 . S
N749 H753 0.985 . S
H750 N745 0.984 . S
H751 N745 0.985 . S
H752 N749 0.984 . S
H753 N749 0.985 . S
H754 N748 0.984 . S
H755 N748 0.984 . S
H756 N744 0.984 . S
H757 N744 0.985 . S
C758 C759 1.363 . S
C758 C764 1.379 1_565 S
C758 N766 1.356 . S
C759 C758 1.363 . S
C759 C765 1.363 1_556 S
C760 C761 1.363 1_554 S
C760 C765 1.379 1_545 S
C760 N767 1.356 . S
C761 C760 1.363 1_556 S
C761 C764 1.363 . S
N762 C764 1.356 . S
N762 H774 0.984 . S
N762 H775 0.985 . S
N763 C765 1.356 . S
N763 H768 0.984 . S
N763 H769 0.985 . S
C764 C758 1.379 1_545 S
C764 C761 1.363 . S
C764 N762 1.356 . S
C765 C759 1.363 1_554 S
C765 C760 1.379 1_565 S
C765 N763 1.356 . S
N766 C758 1.356 . S
N766 H772 0.984 . S
N766 H773 0.984 . S
N767 C760 1.356 . S
N767 H770 0.984 . S
N767 H771 0.985 . S
H768 N763 0.984 . S
H769 N763 0.985 . S
H770 N767 0.984 . S
H771 N767 0.985 . S
H772 N766 0.984 . S
H773 N766 0.984 . S
H774 N762 0.984 . S
H775 N762 0.985 . S
C776 C777 1.363 . S
C776 C782 1.379 . S
C776 N784 1.356 . S
C777 C776 1.363 . S
C777 C783 1.363 1_554 S
C778 C779 1.363 1_556 S
C778 C783 1.379 . S
C778 N785 1.356 . S
C779 C778 1.363 1_554 S
C779 C782 1.363 . S
N780 C782 1.356 . S
N780 H792 0.984 . S
N780 H793 0.985 . S
N781 C783 1.356 . S
N781 H786 0.984 . S
N781 H787 0.985 . S
C782 C776 1.379 . S
C782 C779 1.363 . S
C782 N780 1.356 . S
C783 C777 1.363 1_556 S
C783 C778 1.379 . S
C783 N781 1.356 . S
N784 C776 1.356 . S
N784 H790 0.984 . S
N784 H791 0.984 . S
N785 C778 1.356 . S
N785 H788 0.984 . S
N785 H789 0.985 . S
H786 N781 0.984 . S
H787 N781 0.985 . S
H788 N785 0.984 . S
H789 N785 0.985 . S
H790 N784 0.984 . S
H791 N784 0.984 . S
H792 N780 0.984 . S
H793 N780 0.985 . S
C794 C795 1.363 . S
C794 C800 1.379 . S
C794 N802 1.356 . S
C795 C794 1.363 . S
C795 C801 1.363 1_554 S
C796 C797 1.363 1_556 S
C796 C801 1.379 . S
C796 N803 1.356 . S
C797 C796 1.363 1_554 S
C797 C800 1.363 . S
N798 C800 1.356 . S
N798 H810 0.984 . S
N798 H811 0.985 . S
N799 C801 1.356 . S
N799 H804 0.984 . S
N799 H805 0.985 . S
C800 C794 1.379 . S
C800 C797 1.363 . S
C800 N798 1.356 . S
C801 C795 1.363 1_556 S
C801 C796 1.379 . S
C801 N799 1.356 . S
N802 C794 1.356 . S
N802 H808 0.984 . S
N802 H809 0.984 . S
N803 C796 1.356 . S
N803 H806 0.984 . S
N803 H807 0.985 . S
H804 N799 0.984 . S
H805 N799 0.985 . S
H806 N803 0.984 . S
H807 N803 0.985 . S
H808 N802 0.984 . S
H809 N802 0.984 . S
H810 N798 0.984 . S
H811 N798 0.985 . S
C812 C813 1.363 . S
C812 C818 1.379 1_455 S
C812 N820 1.356 . S
C813 C812 1.363 . S
C813 C819 1.363 . S
C814 C815 1.363 . S
C814 C819 1.379 1_655 S
C814 N821 1.356 . S
C815 C814 1.363 . S
C815 C818 1.363 . S
N816 C818 1.356 . S
N816 H828 0.984 . S
N816 H829 0.985 . S
N817 C819 1.356 . S
N817 H822 0.984 . S
N817 H823 0.985 . S
C818 C812 1.379 1_655 S
C818 C815 1.363 . S
C818 N816 1.356 . S
C819 C813 1.363 . S
C819 C814 1.379 1_455 S
C819 N817 1.356 . S
N820 C812 1.356 . S
N820 H826 0.984 . S
N820 H827 0.984 . S
N821 C814 1.356 . S
N821 H824 0.984 . S
N821 H825 0.985 . S
H822 N817 0.984 . S
H823 N817 0.985 . S
H824 N821 0.984 . S
H825 N821 0.985 . S
H826 N820 0.984 . S
H827 N820 0.984 . S
H828 N816 0.984 . S
H829 N816 0.985 . S
C830 C831 1.363 . S
C830 C836 1.379 . S
C830 N838 1.356 . S
C831 C830 1.363 . S
C831 C837 1.363 . S
C832 C833 1.363 . S
C832 C837 1.379 . S
C832 N839 1.356 . S
C833 C832 1.363 . S
C833 C836 1.363 . S
N834 C836 1.356 . S
N834 H846 0.984 . S
N834 H847 0.985 . S
N835 C837 1.356 . S
N835 H840 0.984 . S
N835 H841 0.985 . S
C836 C830 1.379 . S
C836 C833 1.363 . S
C836 N834 1.356 . S
C837 C831 1.363 . S
C837 C832 1.379 . S
C837 N835 1.356 . S
N838 C830 1.356 . S
N838 H844 0.984 . S
N838 H845 0.984 . S
N839 C832 1.356 . S
N839 H842 0.984 . S
N839 H843 0.985 . S
H840 N835 0.984 . S
H841 N835 0.985 . S
H842 N839 0.984 . S
H843 N839 0.985 . S
H844 N838 0.984 . S
H845 N838 0.984 . S
H846 N834 0.984 . S
H847 N834 0.985 . S
C848 C849 1.363 . S
C848 C854 1.379 . S
C848 N856 1.356 . S
C849 C848 1.363 . S
C849 C855 1.363 . S
C850 C851 1.363 . S
C850 C855 1.379 . S
C850 N857 1.356 . S
C851 C850 1.363 . S
C851 C854 1.363 . S
N852 C854 1.356 . S
N852 H864 0.984 . S
N852 H865 0.985 . S
N853 C855 1.356 . S
N853 H858 0.984 . S
N853 H859 0.985 . S
C854 C848 1.379 . S
C854 C851 1.363 . S
C854 N852 1.356 . S
C855 C849 1.363 . S
C855 C850 1.379 . S
C855 N853 1.356 . S
N856 C848 1.356 . S
N856 H862 0.984 . S
N856 H863 0.984 . S
N857 C850 1.356 . S
N857 H860 0.984 . S
N857 H861 0.985 . S
H858 N853 0.984 . S
H859 N853 0.985 . S
H860 N857 0.984 . S
H861 N857 0.985 . S
H862 N856 0.984 . S
H863 N856 0.984 . S
H864 N852 0.984 . S
H865 N852 0.985 . S
C866 C867 1.363 . S
C866 C872 1.379 1_655 S
C866 N874 1.356 . S
C867 C866 1.363 . S
C867 C873 1.363 1_565 S
C868 C869 1.363 . S
C868 C873 1.379 1_455 S
C868 N875 1.356 . S
C869 C868 1.363 . S
C869 C872 1.363 1_545 S
N870 C872 1.356 . S
N870 H882 0.984 . S
N870 H883 0.985 1_565 S
N871 C873 1.356 . S
N871 H876 0.984 1_545 S
N871 H877 0.985 . S
C872 C866 1.379 1_455 S
C872 C869 1.363 1_565 S
C872 N870 1.356 . S
C873 C867 1.363 1_545 S
C873 C868 1.379 1_655 S
C873 N871 1.356 . S
N874 C866 1.356 . S
N874 H880 0.984 . S
N874 H881 0.984 . S
N875 C868 1.356 . S
N875 H878 0.984 . S
N875 H879 0.985 . S
H876 N871 0.984 1_565 S
H877 N871 0.985 . S
H878 N875 0.984 . S
H879 N875 0.985 . S
H880 N874 0.984 . S
H881 N874 0.984 . S
H882 N870 0.984 . S
H883 N870 0.985 1_545 S
C884 C885 1.363 . S
C884 C890 1.379 . S
C884 N892 1.356 . S
C885 C884 1.363 . S
C885 C891 1.363 . S
C886 C887 1.363 . S
C886 C891 1.379 . S
C886 N893 1.356 . S
C887 C886 1.363 . S
C887 C890 1.363 . S
N888 C890 1.356 . S
N888 H900 0.984 . S
N888 H901 0.985 . S
N889 C891 1.356 . S
N889 H894 0.984 . S
N889 H895 0.985 . S
C890 C884 1.379 . S
C890 C887 1.363 . S
C890 N888 1.356 . S
C891 C885 1.363 . S
C891 C886 1.379 . S
C891 N889 1.356 . S
N892 C884 1.356 . S
N892 H898 0.984 . S
N892 H899 0.984 . S
N893 C886 1.356 . S
N893 H896 0.984 . S
N893 H897 0.985 . S
H894 N889 0.984 . S
H895 N889 0.985 . S
H896 N893 0.984 . S
H897 N893 0.985 . S
H898 N892 0.984 . S
H899 N892 0.984 . S
H900 N888 0.984 . S
H901 N888 0.985 . S
C902 C903 1.363 1_565 S
C902 C908 1.379 . S
C902 N910 1.356 . S
C903 C902 1.363 1_545 S
C903 C909 1.363 . S
C904 C905 1.363 1_545 S
C904 C909 1.379 . S
C904 N911 1.356 . S
C905 C904 1.363 1_565 S
C905 C908 1.363 . S
N906 C908 1.356 . S
N906 H918 0.984 . S
N906 H919 0.985 . S
N907 C909 1.356 . S
N907 H912 0.984 . S
N907 H913 0.985 . S
C908 C902 1.379 . S
C908 C905 1.363 . S
C908 N906 1.356 . S
C909 C903 1.363 . S
C909 C904 1.379 . S
C909 N907 1.356 . S
N910 C902 1.356 . S
N910 H916 0.984 . S
N910 H917 0.984 1_565 S
N911 C904 1.356 . S
N911 H914 0.984 1_545 S
N911 H915 0.985 . S
H912 N907 0.984 . S
H913 N907 0.985 . S
H914 N911 0.984 1_565 S
H915 N911 0.985 . S
H916 N910 0.984 . S
H917 N910 0.984 1_545 S
H918 N906 0.984 . S
H919 N906 0.985 . S
C345 C27 1.936 1_545 S
C347 C76 2.176 . S
C363 C32 1.937 1_565 S
C365 C126 2.177 . S
C381 C162 2.178 . S
C383 C70 1.936 . S
C399 C118 1.936 . S
C401 C169 2.178 . S
C417 C156 1.937 . S
C419 C205 2.178 . S
C435 C248 2.178 . S
C437 C161 1.936 . S
C453 C199 1.937 . S
C455 C33 2.180 . S
C471 C242 1.936 . S
C473 C40 2.180 . S
C489 C255 2.178 . S
C491 C285 1.936 1_545 S
C507 C290 1.937 1_565 S
C509 C212 2.179 . S
C525 C334 2.179 . S
C527 C247 1.939 . S
C543 C341 2.178 . S
C545 C204 1.938 . S
C561 C328 1.936 . S
C563 C119 2.176 . S
C579 C83 2.178 . S
C581 C333 1.934 . S
C597 C291 2.178 . S
C599 C113 1.937 . S
C615 C298 2.178 . S
C617 C75 1.936 . S
C633 C13 1.899 . S
C635 C39 1.899 . S
C651 C82 1.899 . S
C653 C56 1.899 . S
C669 C125 1.899 . S
C671 C99 1.899 . S
C687 C168 1.899 . S
C689 C142 1.899 . S
C705 C211 1.899 . S
C707 C185 1.899 . S
C723 C228 1.899 . S
C725 C254 1.899 . S
C741 C271 1.899 . S
C743 C297 1.899 . S
C759 C340 1.899 . S
C761 C314 1.899 . S
C777 N309 1.259 . S
C779 N3 1.259 . S
C795 N8 1.259 . S
C797 N304 1.259 . S
C813 N46 1.259 . S
C815 N94 1.259 . S
C831 N266 1.259 . S
C833 N132 1.259 . S
C849 N137 1.259 . S
C851 N261 1.259 . S
C867 N218 1.259 . S
C869 N175 1.259 . S
C885 N223 1.259 . S
C887 N180 1.259 . S
C903 N89 1.259 . S
C905 N51 1.259 . S
