# Generated by pormake.
# Topology gsi, (4)-cn, num edge types: 1
# Building blocks:
#     Node 0, Type 0, BuildingBlock: TATPOV_clean_sbu_0, # of connection points: 4
#     Node 1, Type 0, BuildingBlock: TATPOV_clean_sbu_0, # of connection points: 4
#     Node 2, Type 0, BuildingBlock: TATPOV_clean_sbu_0, # of connection points: 4
#     Node 3, Type 0, BuildingBlock: TATPOV_clean_sbu_0, # of connection points: 4
#     Node 4, Type 0, BuildingBlock: TATPOV_clean_sbu_0, # of connection points: 4
#     Node 5, Type 0, BuildingBlock: TATPOV_clean_sbu_0, # of connection points: 4
#     Node 6, Type 0, BuildingBlock: TATPOV_clean_sbu_0, # of connection points: 4
#     Node 7, Type 0, BuildingBlock: TATPOV_clean_sbu_0, # of connection points: 4
#     Node 8, Type 0, BuildingBlock: TATPOV_clean_sbu_0, # of connection points: 4
#     Node 9, Type 0, BuildingBlock: TATPOV_clean_sbu_0, # of connection points: 4
#     Node 10, Type 0, BuildingBlock: TATPOV_clean_sbu_0, # of connection points: 4
#     Node 11, Type 0, BuildingBlock: TATPOV_clean_sbu_0, # of connection points: 4
#     Node 12, Type 0, BuildingBlock: TATPOV_clean_sbu_0, # of connection points: 4
#     Node 13, Type 0, BuildingBlock: TATPOV_clean_sbu_0, # of connection points: 4
#     Node 14, Type 0, BuildingBlock: TATPOV_clean_sbu_0, # of connection points: 4
#     Node 15, Type 0, BuildingBlock: TATPOV_clean_sbu_0, # of connection points: 4
#     Edge 16, Type (0, 0), BuildingBlock: ZUJKAS_clean_linker_0, # of connection points: 2
#     Edge 17, Type (0, 0), BuildingBlock: ZUJKAS_clean_linker_0, # of connection points: 2
#     Edge 18, Type (0, 0), BuildingBlock: ZUJKAS_clean_linker_0, # of connection points: 2
#     Edge 19, Type (0, 0), BuildingBlock: ZUJKAS_clean_linker_0, # of connection points: 2
#     Edge 20, Type (0, 0), BuildingBlock: ZUJKAS_clean_linker_0, # of connection points: 2
#     Edge 21, Type (0, 0), BuildingBlock: ZUJKAS_clean_linker_0, # of connection points: 2
#     Edge 22, Type (0, 0), BuildingBlock: ZUJKAS_clean_linker_0, # of connection points: 2
#     Edge 23, Type (0, 0), BuildingBlock: ZUJKAS_clean_linker_0, # of connection points: 2
#     Edge 24, Type (0, 0), BuildingBlock: ZUJKAS_clean_linker_0, # of connection points: 2
#     Edge 25, Type (0, 0), BuildingBlock: ZUJKAS_clean_linker_0, # of connection points: 2
#     Edge 26, Type (0, 0), BuildingBlock: ZUJKAS_clean_linker_0, # of connection points: 2
#     Edge 27, Type (0, 0), BuildingBlock: ZUJKAS_clean_linker_0, # of connection points: 2
#     Edge 28, Type (0, 0), BuildingBlock: ZUJKAS_clean_linker_0, # of connection points: 2
#     Edge 29, Type (0, 0), BuildingBlock: ZUJKAS_clean_linker_0, # of connection points: 2
#     Edge 30, Type (0, 0), BuildingBlock: ZUJKAS_clean_linker_0, # of connection points: 2
#     Edge 31, Type (0, 0), BuildingBlock: ZUJKAS_clean_linker_0, # of connection points: 2
#     Edge 32, Type (0, 0), BuildingBlock: ZUJKAS_clean_linker_0, # of connection points: 2
#     Edge 33, Type (0, 0), BuildingBlock: ZUJKAS_clean_linker_0, # of connection points: 2
#     Edge 34, Type (0, 0), BuildingBlock: ZUJKAS_clean_linker_0, # of connection points: 2
#     Edge 35, Type (0, 0), BuildingBlock: ZUJKAS_clean_linker_0, # of connection points: 2
#     Edge 36, Type (0, 0), BuildingBlock: ZUJKAS_clean_linker_0, # of connection points: 2
#     Edge 37, Type (0, 0), BuildingBlock: ZUJKAS_clean_linker_0, # of connection points: 2
#     Edge 38, Type (0, 0), BuildingBlock: ZUJKAS_clean_linker_0, # of connection points: 2
#     Edge 39, Type (0, 0), BuildingBlock: ZUJKAS_clean_linker_0, # of connection points: 2
#     Edge 40, Type (0, 0), BuildingBlock: ZUJKAS_clean_linker_0, # of connection points: 2
#     Edge 41, Type (0, 0), BuildingBlock: ZUJKAS_clean_linker_0, # of connection points: 2
#     Edge 42, Type (0, 0), BuildingBlock: ZUJKAS_clean_linker_0, # of connection points: 2
#     Edge 43, Type (0, 0), BuildingBlock: ZUJKAS_clean_linker_0, # of connection points: 2
#     Edge 44, Type (0, 0), BuildingBlock: ZUJKAS_clean_linker_0, # of connection points: 2
#     Edge 45, Type (0, 0), BuildingBlock: ZUJKAS_clean_linker_0, # of connection points: 2
#     Edge 46, Type (0, 0), BuildingBlock: ZUJKAS_clean_linker_0, # of connection points: 2
#     Edge 47, Type (0, 0), BuildingBlock: ZUJKAS_clean_linker_0, # of connection points: 2
# Relax obj value: 0.045
# Max RMSD: 0.070
# Mean RMSD: 0.054
data_MOF--net-gsi--node1-TATPOV_clean_sbu_0--edge1-ZUJKAS_clean_linker_0
_symmetry_space_group_name_H-M    P1
_symmetry_Int_Tables_number       1
_symmetry_cell_setting            triclinic
loop_
_symmetry_equiv_pos_as_xyz
'x, y, z'
_cell_length_a     54.085966
_cell_length_b     54.234021
_cell_length_c     55.906309
_cell_angle_alpha  90.826881
_cell_angle_beta   90.418878
_cell_angle_gamma 92.493749
loop_
_atom_site_label
_atom_site_type_symbol
_atom_site_fract_x
_atom_site_fract_y
_atom_site_fract_z
_atom_type_partial_charge
Zn0 Zn 0.10614 0.1482 0.18956 0.0
Zn1 Zn 0.13939 0.14214 0.15493 0.0
O2 O 0.1328 0.10662 0.16774 0.0
O3 O 0.10382 0.11171 0.19468 0.0
O4 O 0.16477 0.13848 0.12858 0.0
O5 O 0.08335 0.16333 0.16629 0.0
O6 O 0.11032 0.15859 0.1375 0.0
C7 C 0.11791 0.09771 0.18336 0.0
C8 C 0.15223 0.17396 0.19997 0.0
O9 O 0.15781 0.16471 0.17974 0.0
O10 O 0.13088 0.16971 0.20853 0.0
C11 C 0.1785 0.15705 0.12269 0.0
O12 O 0.17588 0.17825 0.13384 0.0
C13 C 0.08946 0.16587 0.14463 0.0
Zn14 Zn 0.90648 0.34159 0.18614 0.0
Zn15 Zn 0.87997 0.35679 0.14949 0.0
O16 O 0.88931 0.3901 0.16677 0.0
O17 O 0.90929 0.37664 0.19813 0.0
O18 O 0.85792 0.36481 0.12137 0.0
O19 O 0.93196 0.32907 0.16418 0.0
O20 O 0.90907 0.33882 0.13332 0.0
C21 C 0.90075 0.39434 0.18658 0.0
C22 C 0.85815 0.32074 0.18731 0.0
O23 O 0.85609 0.33497 0.16955 0.0
O24 O 0.87888 0.31871 0.19752 0.0
C25 C 0.83527 0.36942 0.12448 0.0
O26 O 0.82678 0.37085 0.14639 0.0
C27 C 0.92845 0.3294 0.1418 0.0
Zn28 Zn 0.21177 0.87742 0.35868 0.0
Zn29 Zn 0.16766 0.85483 0.36482 0.0
O30 O 0.18057 0.86161 0.39979 0.0
O31 O 0.21512 0.88373 0.39395 0.0
O32 O 0.13379 0.83748 0.36803 0.0
O33 O 0.1971 0.9025 0.33762 0.0
O34 O 0.16021 0.88517 0.34389 0.0
C35 C 0.19945 0.87401 0.40804 0.0
C36 C 0.20939 0.82842 0.33917 0.0
O37 O 0.18705 0.82913 0.34617 0.0
O38 O 0.22438 0.8466 0.3433 0.0
C39 C 0.12901 0.82034 0.38282 0.0
O40 O 0.14647 0.81388 0.39765 0.0
C41 C 0.17395 0.90182 0.33405 0.0
Zn42 Zn 0.8175 0.61493 0.36126 0.0
Zn43 Zn 0.85752 0.64367 0.36908 0.0
O44 O 0.8416 0.63888 0.40305 0.0
O45 O 0.80888 0.61426 0.39575 0.0
O46 O 0.88906 0.66461 0.37566 0.0
O47 O 0.83708 0.58807 0.34733 0.0
O48 O 0.87024 0.61296 0.35076 0.0
C49 C 0.8225 0.6266 0.41045 0.0
C50 C 0.81663 0.66075 0.33595 0.0
O51 O 0.83738 0.66496 0.3465 0.0
O52 O 0.80437 0.64071 0.33946 0.0
C53 C 0.89949 0.67667 0.35886 0.0
O54 O 0.88954 0.67535 0.33734 0.0
C55 C 0.85989 0.59247 0.34379 0.0
Zn56 Zn 0.40975 0.85133 0.68992 0.0
Zn57 Zn 0.38168 0.86255 0.6528 0.0
O58 O 0.38932 0.89712 0.66861 0.0
O59 O 0.41239 0.88703 0.69928 0.0
O60 O 0.35959 0.86821 0.62417 0.0
O61 O 0.43496 0.83724 0.66837 0.0
O62 O 0.41135 0.8451 0.63743 0.0
C63 C 0.40183 0.90332 0.68741 0.0
C64 C 0.36167 0.82865 0.69293 0.0
O65 O 0.35893 0.84033 0.67353 0.0
O66 O 0.38238 0.8297 0.70366 0.0
C67 C 0.33786 0.87608 0.62615 0.0
O68 O 0.32982 0.88227 0.64744 0.0
C69 C 0.43103 0.83643 0.64604 0.0
Zn70 Zn 0.88845 0.84674 0.83457 0.0
Zn71 Zn 0.86007 0.85463 0.87154 0.0
O72 O 0.89119 0.83832 0.8862 0.0
O73 O 0.91448 0.83273 0.85462 0.0
O74 O 0.83785 0.85923 0.90043 0.0
O75 O 0.891 0.88242 0.82715 0.0
O76 O 0.8652 0.88978 0.85649 0.0
C77 C 0.91112 0.83093 0.87688 0.0
C78 C 0.84182 0.82094 0.8295 0.0
O79 O 0.83843 0.8311 0.84986 0.0
O80 O 0.86216 0.82465 0.81881 0.0
C81 C 0.83024 0.83978 0.91111 0.0
O82 O 0.83744 0.81833 0.9032 0.0
C83 C 0.8785 0.89741 0.83903 0.0
Zn84 Zn 0.10916 0.67232 0.80168 0.0
Zn85 Zn 0.13795 0.65917 0.83796 0.0
O86 O 0.10727 0.67299 0.85501 0.0
O87 O 0.0835 0.68292 0.82486 0.0
O88 O 0.15991 0.64955 0.86542 0.0
O89 O 0.10835 0.63765 0.78852 0.0
O90 O 0.13264 0.62684 0.81801 0.0
C91 C 0.08722 0.68161 0.84718 0.0
C92 C 0.15642 0.69814 0.80202 0.0
O93 O 0.15973 0.68499 0.82038 0.0
O94 O 0.13596 0.69654 0.79083 0.0
C95 C 0.1692 0.66624 0.87942 0.0
O96 O 0.16408 0.68934 0.87572 0.0
C97 C 0.12057 0.62141 0.7988 0.0
Zn98 Zn 0.78838 0.09803 0.64425 0.0
Zn99 Zn 0.83134 0.12376 0.63895 0.0
O100 O 0.84097 0.09345 0.65869 0.0
O101 O 0.80597 0.07134 0.6612 0.0
O102 O 0.86383 0.14239 0.63237 0.0
O103 O 0.78197 0.09639 0.60881 0.0
O104 O 0.81648 0.11885 0.60476 0.0
C105 C 0.82879 0.0744 0.66612 0.0
C106 C 0.79032 0.14592 0.66823 0.0
O107 O 0.81213 0.14759 0.65973 0.0
O108 O 0.7765 0.12688 0.66389 0.0
C109 C 0.87847 0.15007 0.64902 0.0
O110 O 0.87256 0.14548 0.67133 0.0
C111 C 0.79725 0.1079 0.59555 0.0
Zn112 Zn 0.11457 0.33574 0.69142 0.0
Zn113 Zn 0.13857 0.34123 0.65116 0.0
O114 O 0.10645 0.31986 0.64137 0.0
O115 O 0.0869 0.31654 0.6757 0.0
O116 O 0.15762 0.34603 0.62012 0.0
O117 O 0.11163 0.37177 0.69602 0.0
O118 O 0.13364 0.37739 0.66338 0.0
C119 C 0.0878 0.31203 0.65349 0.0
C120 C 0.16235 0.31587 0.69398 0.0
O121 O 0.16334 0.32317 0.67241 0.0
O122 O 0.14308 0.31897 0.70618 0.0
C123 C 0.1682 0.32802 0.61028 0.0
O124 O 0.16587 0.30616 0.62004 0.0
C125 C 0.12222 0.38614 0.68133 0.0
Zn126 Zn 0.60857 0.16326 0.30251 0.0
Zn127 Zn 0.63853 0.15504 0.33967 0.0
O128 O 0.60769 0.1692 0.35594 0.0
O129 O 0.5839 0.17713 0.32515 0.0
O130 O 0.66091 0.14744 0.36765 0.0
O131 O 0.60685 0.12743 0.29338 0.0
O132 O 0.63425 0.12126 0.32175 0.0
C133 C 0.58773 0.17745 0.34753 0.0
C134 C 0.65539 0.18994 0.29975 0.0
O135 O 0.65881 0.18052 0.32019 0.0
O136 O 0.6356 0.18502 0.28809 0.0
C137 C 0.67728 0.16287 0.376 0.0
O138 O 0.67981 0.18479 0.36639 0.0
C139 C 0.62099 0.11317 0.30409 0.0
Zn140 Zn 0.60809 0.65153 0.69013 0.0
Zn141 Zn 0.64038 0.64596 0.65486 0.0
O142 O 0.63471 0.61003 0.66704 0.0
O143 O 0.60647 0.61499 0.69474 0.0
O144 O 0.66453 0.64406 0.62741 0.0
O145 O 0.58402 0.66653 0.66804 0.0
O146 O 0.61047 0.66225 0.63873 0.0
C147 C 0.62023 0.60104 0.68296 0.0
C148 C 0.65445 0.67734 0.69968 0.0
O149 O 0.65962 0.66829 0.67924 0.0
O150 O 0.63327 0.67301 0.70858 0.0
C151 C 0.68391 0.63159 0.62732 0.0
O152 O 0.6888 0.61791 0.64582 0.0
C153 C 0.58965 0.66922 0.64629 0.0
Zn154 Zn 0.71426 0.37846 0.85513 0.0
Zn155 Zn 0.67011 0.35558 0.86141 0.0
O156 O 0.68325 0.36195 0.8964 0.0
O157 O 0.7188 0.38228 0.89049 0.0
O158 O 0.63613 0.3384 0.86457 0.0
O159 O 0.69911 0.40517 0.8364 0.0
O160 O 0.66266 0.38624 0.84102 0.0
C161 C 0.70289 0.37309 0.90466 0.0
C162 C 0.71134 0.32989 0.83432 0.0
O163 O 0.68936 0.33003 0.84238 0.0
O164 O 0.72607 0.34842 0.83777 0.0
C165 C 0.63095 0.3215 0.87952 0.0
O166 O 0.64812 0.31502 0.89464 0.0
C167 C 0.67602 0.40395 0.83248 0.0
Zn168 Zn 0.31316 0.12541 0.86094 0.0
Zn169 Zn 0.35387 0.15379 0.86772 0.0
O170 O 0.33878 0.14909 0.902 0.0
O171 O 0.30561 0.1248 0.89573 0.0
O172 O 0.38599 0.17404 0.87373 0.0
O173 O 0.33207 0.09841 0.84614 0.0
O174 O 0.36547 0.12308 0.84874 0.0
C175 C 0.31978 0.13708 0.90999 0.0
C176 C 0.31231 0.17172 0.83607 0.0
O177 O 0.33346 0.17558 0.84596 0.0
O178 O 0.29992 0.1518 0.83981 0.0
C179 C 0.39611 0.18644 0.85699 0.0
O180 O 0.38543 0.18607 0.83579 0.0
C181 C 0.35476 0.10272 0.84189 0.0
Zn182 Zn 0.38764 0.34209 0.33091 0.0
Zn183 Zn 0.36065 0.35268 0.36777 0.0
O184 O 0.39188 0.33685 0.38271 0.0
O185 O 0.41489 0.33052 0.3511 0.0
O186 O 0.3388 0.35856 0.39668 0.0
O187 O 0.3886 0.37682 0.32036 0.0
O188 O 0.36624 0.38716 0.35137 0.0
C189 C 0.41186 0.32954 0.37346 0.0
C190 C 0.34142 0.31617 0.32803 0.0
O191 O 0.33824 0.32843 0.34733 0.0
O192 O 0.36189 0.31816 0.3173 0.0
C193 C 0.33195 0.33951 0.40839 0.0
O194 O 0.33983 0.31798 0.40149 0.0
C195 C 0.37779 0.39311 0.33225 0.0
Zn196 Zn 0.28587 0.59954 0.14566 0.0
Zn197 Zn 0.32796 0.62644 0.13925 0.0
O198 O 0.33835 0.59697 0.15987 0.0
O199 O 0.30437 0.5732 0.16209 0.0
O200 O 0.36036 0.64544 0.13236 0.0
O201 O 0.27873 0.59766 0.11047 0.0
O202 O 0.31282 0.62046 0.10515 0.0
C203 C 0.32701 0.5774 0.1672 0.0
C204 C 0.28661 0.64769 0.16893 0.0
O205 O 0.30799 0.65003 0.15959 0.0
O206 O 0.27347 0.62799 0.16557 0.0
C207 C 0.36936 0.66213 0.14654 0.0
O208 O 0.35768 0.66688 0.16649 0.0
C209 C 0.29349 0.60905 0.09661 0.0
Zn210 Zn 0.61797 0.82538 0.19668 0.0
Zn211 Zn 0.64078 0.83363 0.15652 0.0
O212 O 0.60757 0.81438 0.14606 0.0
O213 O 0.58906 0.80868 0.18062 0.0
O214 O 0.6592 0.84 0.12537 0.0
O215 O 0.61682 0.86106 0.20452 0.0
O216 O 0.63727 0.86898 0.17139 0.0
C217 C 0.58903 0.80619 0.15812 0.0
C218 C 0.66478 0.80399 0.19658 0.0
O219 O 0.6656 0.81333 0.17577 0.0
O220 O 0.64576 0.80622 0.20933 0.0
C221 C 0.66807 0.8221 0.11377 0.0
O222 O 0.66436 0.79961 0.12184 0.0
C223 C 0.62705 0.87645 0.19057 0.0
H224 H 0.14605 0.19722 0.24311 0.0
H225 H 0.17672 0.22228 0.26608 0.0
H226 H 0.23101 0.21024 0.21152 0.0
H227 H 0.20039 0.18546 0.18818 0.0
H228 H 0.22188 0.20866 0.28438 0.0
H229 H 0.23463 0.28517 0.22026 0.0
H230 H 0.209 0.26276 0.21817 0.0
H231 H 0.23897 0.25526 0.20719 0.0
C232 C 0.16447 0.2 0.23589 0.0
C233 C 0.17073 0.18941 0.21373 0.0
C234 C 0.18197 0.2143 0.24908 0.0
C235 C 0.206 0.21839 0.24035 0.0
C236 C 0.2124 0.20773 0.21834 0.0
H237 H 0.343 0.28779 0.28751 0.0
H238 H 0.30911 0.26394 0.2681 0.0
C239 C 0.1949 0.19346 0.20509 0.0
C240 C 0.22458 0.23328 0.25454 0.0
H241 H 0.26401 0.28402 0.25214 0.0
C242 C 0.23096 0.22527 0.27746 0.0
C243 C 0.23625 0.255 0.24548 0.0
C244 C 0.22923 0.26523 0.22152 0.0
C245 C 0.24939 0.23794 0.29123 0.0
C246 C 0.26147 0.25928 0.28188 0.0
C247 C 0.25473 0.26757 0.25919 0.0
C248 C 0.282 0.27271 0.29478 0.0
C249 C 0.25639 0.228 0.3153 0.0
C250 C 0.27796 0.28543 0.31635 0.0
C251 C 0.29738 0.29916 0.3276 0.0
C252 C 0.32107 0.30043 0.31733 0.0
C253 C 0.32501 0.28727 0.29592 0.0
C254 C 0.30566 0.27364 0.28475 0.0
H255 H 0.24859 0.20895 0.31796 0.0
H256 H 0.27683 0.22797 0.31735 0.0
H257 H 0.2492 0.24006 0.32961 0.0
H258 H 0.2597 0.28518 0.3242 0.0
H259 H 0.29371 0.30914 0.34402 0.0
H260 H 0.81244 0.33875 0.19273 0.0
H261 H 0.7772 0.31933 0.21354 0.0
H262 H 0.81856 0.25382 0.22337 0.0
H263 H 0.85444 0.27408 0.20436 0.0
H264 H 0.74797 0.28312 0.20656 0.0
H265 H 0.79813 0.26312 0.28976 0.0
H266 H 0.81216 0.28143 0.26647 0.0
H267 H 0.81235 0.24816 0.26501 0.0
C268 C 0.81391 0.32019 0.19938 0.0
C269 C 0.83611 0.30792 0.19723 0.0
C270 C 0.79381 0.30911 0.21129 0.0
C271 C 0.7954 0.28534 0.22076 0.0
C272 C 0.81718 0.27256 0.21726 0.0
H273 H 0.66823 0.19082 0.25311 0.0
H274 H 0.70171 0.21526 0.23481 0.0
C275 C 0.83756 0.28398 0.20611 0.0
C276 C 0.77417 0.2738 0.23389 0.0
H277 H 0.75928 0.24064 0.28355 0.0
C278 C 0.75044 0.27413 0.22357 0.0
C279 C 0.77707 0.26267 0.25647 0.0
C280 C 0.80127 0.2641 0.27016 0.0
C281 C 0.72976 0.263 0.23474 0.0
C282 C 0.7331 0.24987 0.25618 0.0
C283 C 0.75667 0.25026 0.2669 0.0
C284 C 0.71266 0.23505 0.26743 0.0
C285 C 0.70459 0.266 0.22358 0.0
C286 C 0.70841 0.2369 0.29218 0.0
C287 C 0.68991 0.22207 0.30287 0.0
C288 C 0.67501 0.20561 0.28887 0.0
C289 C 0.6792 0.20377 0.26419 0.0
C290 C 0.69817 0.21795 0.25367 0.0
H291 H 0.704 0.28364 0.21377 0.0
H292 H 0.70066 0.25082 0.2104 0.0
H293 H 0.68975 0.26568 0.2372 0.0
H294 H 0.71942 0.2498 0.30327 0.0
H295 H 0.68702 0.22373 0.32198 0.0
H296 H 0.24109 0.64972 0.18957 0.0
H297 H 0.2272 0.68037 0.21833 0.0
H298 H 0.29789 0.71998 0.21412 0.0
H299 H 0.31184 0.68966 0.18499 0.0
H300 H 0.24769 0.6916 0.2626 0.0
H301 H 0.24944 0.77454 0.2056 0.0
H302 H 0.25085 0.74366 0.19335 0.0
H303 H 0.27812 0.7591 0.20597 0.0
C304 C 0.25361 0.66511 0.19452 0.0
C305 C 0.27758 0.66726 0.18493 0.0
C306 C 0.24564 0.68257 0.211 0.0
C307 C 0.26141 0.70256 0.21816 0.0
C308 C 0.28524 0.70495 0.20846 0.0
H309 H 0.25542 0.82176 0.32111 0.0
H310 H 0.26768 0.78979 0.29301 0.0
C311 C 0.29322 0.68754 0.19188 0.0
C312 C 0.25331 0.72023 0.23663 0.0
H313 H 0.24449 0.78129 0.2474 0.0
C314 C 0.24681 0.7112 0.25926 0.0
C315 C 0.25219 0.74575 0.23217 0.0
C316 C 0.25779 0.75636 0.20789 0.0
C317 C 0.23974 0.72712 0.27775 0.0
C318 C 0.23895 0.75266 0.27335 0.0
C319 C 0.24525 0.76167 0.2507 0.0
C320 C 0.23183 0.77051 0.29203 0.0
C321 C 0.23375 0.71664 0.30198 0.0
C322 C 0.20767 0.77001 0.30101 0.0
C323 C 0.20054 0.78829 0.31714 0.0
C324 C 0.21747 0.80741 0.32442 0.0
C325 C 0.24188 0.80734 0.31589 0.0
C326 C 0.24894 0.78912 0.29978 0.0
H327 H 0.24033 0.69764 0.30388 0.0
H328 H 0.24219 0.72855 0.31645 0.0
H329 H 0.21339 0.71593 0.30444 0.0
H330 H 0.19411 0.75596 0.29497 0.0
H331 H 0.18158 0.78786 0.32329 0.0
H332 H 0.77298 0.65702 0.31134 0.0
H333 H 0.75732 0.68528 0.2821 0.0
H334 H 0.82265 0.73299 0.29157 0.0
H335 H 0.83858 0.70468 0.32132 0.0
H336 H 0.77951 0.75805 0.29288 0.0
H337 H 0.77848 0.69662 0.21335 0.0
H338 H 0.76354 0.68155 0.23802 0.0
H339 H 0.79601 0.69037 0.24006 0.0
C340 C 0.78416 0.67344 0.30722 0.0
C341 C 0.80709 0.67854 0.31867 0.0
C342 C 0.77527 0.68946 0.29026 0.0
C343 C 0.78912 0.71087 0.28418 0.0
C344 C 0.81186 0.71633 0.29577 0.0
H345 H 0.71003 0.79629 0.1759 0.0
H346 H 0.7457 0.77711 0.19448 0.0
C347 C 0.82086 0.70022 0.31283 0.0
C348 C 0.77858 0.72818 0.26701 0.0
H349 H 0.74814 0.72871 0.21334 0.0
C350 C 0.77324 0.7519 0.27522 0.0
C351 C 0.77087 0.72041 0.24374 0.0
C352 C 0.77779 0.69593 0.23319 0.0
C353 C 0.75831 0.76707 0.26171 0.0
C354 C 0.74822 0.75807 0.23969 0.0
C355 C 0.75556 0.7354 0.23042 0.0
C356 C 0.7273 0.77003 0.22809 0.0
C357 C 0.75246 0.79212 0.27168 0.0
C358 C 0.70508 0.7717 0.2406 0.0
C359 C 0.68482 0.78235 0.2301 0.0
C360 C 0.68623 0.79155 0.20674 0.0
C361 C 0.70838 0.78943 0.19395 0.0
C362 C 0.72877 0.77859 0.20453 0.0
H363 H 0.76758 0.79962 0.28362 0.0
H364 H 0.74948 0.80545 0.25715 0.0
H365 H 0.73532 0.79042 0.28243 0.0
H366 H 0.70335 0.76458 0.25855 0.0
H367 H 0.66807 0.78349 0.24048 0.0
H368 H 0.31361 0.82499 0.67688 0.0
H369 H 0.27828 0.80397 0.69622 0.0
H370 H 0.32636 0.77987 0.75229 0.0
H371 H 0.36168 0.80096 0.73334 0.0
H372 H 0.27114 0.75373 0.70791 0.0
H373 H 0.27166 0.8141 0.789 0.0
H374 H 0.28831 0.82242 0.76222 0.0
H375 H 0.30082 0.80087 0.7827 0.0
C376 C 0.31669 0.81517 0.69329 0.0
C377 C 0.34045 0.81479 0.70365 0.0
C378 C 0.29648 0.80321 0.70432 0.0
C379 C 0.29968 0.79081 0.7259 0.0
C380 C 0.32344 0.78984 0.73593 0.0
H381 H 0.2042 0.70329 0.81871 0.0
H382 H 0.23881 0.72653 0.80039 0.0
C383 C 0.34362 0.80178 0.72496 0.0
C384 C 0.27825 0.77854 0.7378 0.0
H385 H 0.24509 0.77804 0.78956 0.0
C386 C 0.26532 0.75912 0.72569 0.0
C387 C 0.27082 0.78563 0.76103 0.0
C388 C 0.28346 0.80704 0.77446 0.0
C389 C 0.24538 0.74622 0.7364 0.0
C390 C 0.23799 0.75327 0.75964 0.0
C391 C 0.25088 0.77271 0.77175 0.0
C392 C 0.21681 0.74064 0.77159 0.0
C393 C 0.23272 0.72482 0.72296 0.0
C394 C 0.19294 0.74156 0.76184 0.0
C395 C 0.17318 0.72835 0.7722 0.0
C396 C 0.17692 0.71406 0.79261 0.0
C397 C 0.20071 0.71403 0.80295 0.0
C398 C 0.2205 0.72727 0.79252 0.0
H399 H 0.24426 0.71808 0.70807 0.0
H400 H 0.22839 0.70924 0.73512 0.0
H401 H 0.21506 0.73083 0.71522 0.0
H402 H 0.18967 0.75221 0.74596 0.0
H403 H 0.15507 0.72897 0.76389 0.0
H404 H 0.7023 0.68937 0.68704 0.0
H405 H 0.73352 0.71335 0.7105 0.0
H406 H 0.68064 0.72315 0.76682 0.0
H407 H 0.64923 0.69949 0.74348 0.0
H408 H 0.7075 0.76664 0.75479 0.0
H409 H 0.7694 0.68933 0.77033 0.0
H410 H 0.76186 0.69407 0.73944 0.0
H411 H 0.73789 0.6845 0.75983 0.0
C412 C 0.69728 0.69663 0.70441 0.0
C413 C 0.67329 0.6924 0.71342 0.0
C414 C 0.71519 0.7102 0.71784 0.0
C415 C 0.70946 0.71964 0.74054 0.0
C416 C 0.68544 0.71586 0.74939 0.0
H417 H 0.79503 0.80961 0.84602 0.0
H418 H 0.76213 0.78467 0.82564 0.0
C419 C 0.66753 0.70232 0.73601 0.0
C420 C 0.72842 0.73377 0.75497 0.0
H421 H 0.78494 0.72945 0.78175 0.0
C422 C 0.72437 0.75851 0.76084 0.0
C423 C 0.75032 0.72302 0.76289 0.0
C424 C 0.75511 0.69621 0.75802 0.0
C425 C 0.74203 0.77304 0.77384 0.0
C426 C 0.76409 0.76237 0.78147 0.0
C427 C 0.76798 0.73754 0.77587 0.0
C428 C 0.78393 0.77696 0.79431 0.0
C429 C 0.73732 0.79988 0.77864 0.0
C430 C 0.80721 0.7803 0.78371 0.0
C431 C 0.82601 0.79435 0.7953 0.0
C432 C 0.82196 0.80531 0.81783 0.0
C433 C 0.79872 0.80155 0.82864 0.0
C434 C 0.77987 0.78743 0.81698 0.0
H435 H 0.72215 0.80648 0.7672 0.0
H436 H 0.73193 0.80232 0.79761 0.0
H437 H 0.75429 0.81163 0.77555 0.0
H438 H 0.81073 0.77227 0.76627 0.0
H439 H 0.84368 0.79679 0.78646 0.0
H440 H 0.68375 0.28893 0.81904 0.0
H441 H 0.69677 0.25604 0.79203 0.0
H442 H 0.76989 0.29079 0.78891 0.0
H443 H 0.75726 0.32345 0.81597 0.0
H444 H 0.71456 0.26293 0.74541 0.0
H445 H 0.78398 0.21879 0.80229 0.0
H446 H 0.76142 0.23908 0.81435 0.0
H447 H 0.78884 0.25164 0.80019 0.0
C448 C 0.7027 0.28937 0.81289 0.0
C449 C 0.71946 0.30882 0.81968 0.0
C450 C 0.71008 0.27061 0.79743 0.0
C451 C 0.73436 0.27087 0.78872 0.0
C452 C 0.75121 0.28999 0.7958 0.0
H453 H 0.81609 0.18721 0.6853 0.0
H454 H 0.80173 0.21804 0.71384 0.0
C455 C 0.74388 0.30874 0.81118 0.0
C456 C 0.74178 0.25208 0.77105 0.0
H457 H 0.7839 0.20816 0.76076 0.0
C458 C 0.72956 0.25077 0.74881 0.0
C459 C 0.76145 0.2364 0.77555 0.0
C460 C 0.77455 0.23633 0.79946 0.0
C461 C 0.73689 0.23456 0.73068 0.0
C462 C 0.75672 0.21906 0.7351 0.0
C463 C 0.76881 0.22022 0.75741 0.0
C464 C 0.76495 0.20114 0.71697 0.0
C465 C 0.72379 0.23457 0.70676 0.0
C466 C 0.74898 0.1815 0.70934 0.0
C467 C 0.75708 0.16391 0.69307 0.0
C468 C 0.78137 0.16556 0.6842 0.0
C469 C 0.79725 0.18545 0.69169 0.0
C470 C 0.78912 0.20304 0.70804 0.0
H471 H 0.71337 0.25158 0.70431 0.0
H472 H 0.73714 0.23296 0.69188 0.0
H473 H 0.7104 0.2185 0.70557 0.0
H474 H 0.73039 0.1795 0.71635 0.0
H475 H 0.74438 0.14879 0.68776 0.0
H476 H 0.16593 0.30062 0.73995 0.0
H477 H 0.20045 0.28153 0.75923 0.0
H478 H 0.2419 0.28562 0.6937 0.0
H479 H 0.20698 0.30476 0.67389 0.0
H480 H 0.24214 0.23967 0.71472 0.0
H481 H 0.26664 0.31209 0.78212 0.0
H482 H 0.23405 0.30452 0.78232 0.0
H483 H 0.24795 0.31785 0.75603 0.0
C484 C 0.18238 0.29766 0.72954 0.0
C485 C 0.18368 0.30429 0.70534 0.0
C486 C 0.20224 0.28694 0.74072 0.0
C487 C 0.22396 0.28273 0.72808 0.0
C488 C 0.22539 0.28907 0.70385 0.0
H489 H 0.33487 0.2148 0.82011 0.0
H490 H 0.31854 0.24326 0.79072 0.0
C491 C 0.20542 0.29992 0.69257 0.0
C492 C 0.24413 0.26996 0.74012 0.0
H493 H 0.27635 0.27015 0.79283 0.0
C494 C 0.25014 0.24658 0.73149 0.0
C495 C 0.255 0.27918 0.76173 0.0
C496 C 0.25078 0.30492 0.77094 0.0
C497 C 0.26493 0.23129 0.74502 0.0
C498 C 0.27347 0.23948 0.7679 0.0
C499 C 0.26939 0.26371 0.77549 0.0
C500 C 0.28395 0.2223 0.78523 0.0
C501 C 0.27048 0.20614 0.73509 0.0
C502 C 0.26964 0.20154 0.7923 0.0
C503 C 0.27879 0.18541 0.80903 0.0
C504 C 0.30243 0.18978 0.81926 0.0
C505 C 0.3166 0.21091 0.81255 0.0
C506 C 0.30736 0.22711 0.79571 0.0
H507 H 0.27053 0.20607 0.71521 0.0
H508 H 0.28865 0.20008 0.74161 0.0
H509 H 0.25588 0.19253 0.74083 0.0
H510 H 0.25122 0.19789 0.78499 0.0
H511 H 0.26727 0.16945 0.81388 0.0
H512 H 0.19941 0.93652 0.3082 0.0
H513 H 0.18334 0.96449 0.27882 0.0
H514 H 0.10916 0.93569 0.29157 0.0
H515 H 0.12514 0.90717 0.32121 0.0
H516 H 0.15045 0.94893 0.23562 0.0
H517 H 0.11097 0.01472 0.30116 0.0
H518 H 0.13545 0.99484 0.30951 0.0
H519 H 0.10472 0.98204 0.30454 0.0
C520 C 0.17963 0.93607 0.30494 0.0
C521 C 0.16355 0.91959 0.31718 0.0
C522 C 0.17053 0.95203 0.28801 0.0
C523 C 0.14514 0.95206 0.28302 0.0
C524 C 0.12886 0.93588 0.29525 0.0
H525 H 0.08049 0.06948 0.20239 0.0
H526 H 0.08386 0.03024 0.22277 0.0
C527 C 0.138 0.91968 0.31219 0.0
C528 C 0.13609 0.96953 0.26524 0.0
H529 H 0.11144 0.02604 0.26092 0.0
C530 C 0.14156 0.96566 0.24101 0.0
C531 C 0.12448 0.99119 0.2724 0.0
C532 C 0.11854 0.99619 0.2983 0.0
C533 C 0.1362 0.98327 0.22374 0.0
C534 C 0.12575 0.0056 0.23107 0.0
C535 C 0.11945 0.00895 0.25524 0.0
C536 C 0.12257 0.0265 0.21458 0.0
C537 C 0.14187 0.97776 0.19788 0.0
C538 C 0.14296 0.03706 0.20234 0.0
C539 C 0.14095 0.05935 0.19027 0.0
C540 C 0.11867 0.07169 0.19073 0.0
C541 C 0.09794 0.0604 0.20182 0.0
C542 C 0.09985 0.038 0.21352 0.0
H543 H 0.14111 0.95756 0.19417 0.0
H544 H 0.12874 0.98657 0.18564 0.0
H545 H 0.1609 0.98493 0.19389 0.0
H546 H 0.16086 0.02892 0.20333 0.0
H547 H 0.1573 0.06777 0.18214 0.0
H548 H 0.92364 0.40797 0.22848 0.0
H549 H 0.9222 0.44712 0.2498 0.0
H550 H 0.88199 0.47749 0.19101 0.0
H551 H 0.88251 0.43762 0.16966 0.0
H552 H 0.93722 0.49423 0.24275 0.0
H553 H 0.83431 0.4856 0.24522 0.0
H554 H 0.85272 0.46095 0.23442 0.0
H555 H 0.84756 0.48711 0.21591 0.0
C556 C 0.91461 0.42295 0.21986 0.0
C557 C 0.90276 0.41945 0.19749 0.0
C558 C 0.91395 0.44545 0.23209 0.0
C559 C 0.90157 0.46513 0.22227 0.0
C560 C 0.89114 0.46235 0.1992 0.0
H561 H 0.89468 0.60228 0.30953 0.0
H562 H 0.90775 0.5734 0.27833 0.0
C563 C 0.89158 0.43961 0.18696 0.0
C564 C 0.89802 0.48744 0.23738 0.0
H565 H 0.85354 0.51819 0.26701 0.0
C566 C 0.91893 0.49971 0.24787 0.0
C567 C 0.87412 0.49439 0.24421 0.0
C568 C 0.85086 0.48126 0.23456 0.0
C569 C 0.91659 0.51796 0.26575 0.0
C570 C 0.89269 0.52444 0.27292 0.0
C571 C 0.87185 0.51306 0.26156 0.0
C572 C 0.88845 0.54148 0.29336 0.0
C573 C 0.93963 0.52916 0.27766 0.0
C574 C 0.87376 0.53307 0.31243 0.0
C575 C 0.86605 0.54952 0.32994 0.0
C576 C 0.87312 0.57469 0.32895 0.0
C577 C 0.8893 0.58288 0.31089 0.0
C578 C 0.89673 0.5664 0.29304 0.0
H579 H 0.95615 0.51834 0.27379 0.0
H580 H 0.9432 0.54812 0.27093 0.0
H581 H 0.93727 0.53042 0.29734 0.0
H582 H 0.86728 0.51391 0.31315 0.0
H583 H 0.85355 0.54274 0.34367 0.0
H584 H 0.33186 0.17351 0.9434 0.0
H585 H 0.31425 0.17784 0.98363 0.0
H586 H 0.27377 0.10811 0.97395 0.0
H587 H 0.2911 0.10369 0.9341 0.0
H588 H 0.26205 0.17895 0.99125 0.0
H589 H 0.30261 0.10336 0.04194 0.0
H590 H 0.31625 0.11546 0.01488 0.0
H591 H 0.29023 0.09367 0.01327 0.0
C592 C 0.3197 0.15885 0.95013 0.0
C593 C 0.31283 0.1383 0.93556 0.0
C594 C 0.30958 0.16138 0.97305 0.0
C595 C 0.29288 0.14317 0.98187 0.0
C596 C 0.28693 0.12218 0.96772 0.0
H597 H 0.18513 0.11805 0.09189 0.0
H598 H 0.21451 0.11601 0.05885 0.0
C599 C 0.29676 0.11977 0.94485 0.0
C600 C 0.27949 0.14697 1.00463 0.0
H601 H 0.26559 0.11974 0.05788 0.0
C602 C 0.26313 0.1663 0.00604 0.0
C603 C 0.28073 0.13026 0.02375 0.0
C604 C 0.29857 0.10964 0.02355 0.0
C605 C 0.24713 0.16872 0.02555 0.0
C606 C 0.24796 0.15167 0.04447 0.0
C607 C 0.26488 0.13275 0.04337 0.0
C608 C 0.23087 0.15268 0.06515 0.0
C609 C 0.22867 0.18881 0.02513 0.0
C610 C 0.2306 0.17378 0.07997 0.0
C611 C 0.2137 0.17507 0.09871 0.0
C612 C 0.19691 0.15516 0.10326 0.0
C613 C 0.19773 0.13374 0.08885 0.0
C614 C 0.21455 0.13253 0.06998 0.0
H615 H 0.2261 0.19607 0.00684 0.0
H616 H 0.2104 0.18199 0.03186 0.0
H617 H 0.23548 0.20438 0.03684 0.0
H618 H 0.2434 0.18931 0.07698 0.0
H619 H 0.21379 0.19175 0.10962 0.0
H620 H 0.78546 0.37647 0.12519 0.0
H621 H 0.75669 0.37601 0.09119 0.0
H622 H 0.81722 0.36531 0.04291 0.0
H623 H 0.84609 0.36541 0.07679 0.0
H624 H 0.75491 0.40592 0.05192 0.0
H625 H 0.76809 0.30921 0.02353 0.0
H626 H 0.77864 0.32144 0.05221 0.0
H627 H 0.79674 0.32709 0.02581 0.0
C628 C 0.7927 0.37407 0.10734 0.0
C629 C 0.8181 0.37083 0.10375 0.0
C630 C 0.77619 0.37377 0.08793 0.0
C631 C 0.78471 0.3701 0.06456 0.0
C632 C 0.81014 0.36754 0.06085 0.0
H633 H 0.73427 0.40603 0.92754 0.0
H634 H 0.74904 0.40504 0.96867 0.0
C635 C 0.82666 0.36782 0.08023 0.0
C636 C 0.76717 0.36946 0.04395 0.0
H637 H 0.74878 0.33491 0.99491 0.0
C638 C 0.75331 0.39026 0.03963 0.0
C639 C 0.76459 0.34881 0.02821 0.0
C640 C 0.7776 0.32527 0.03278 0.0
C641 C 0.73814 0.39153 0.01922 0.0
C642 C 0.73706 0.37163 1.00253 0.0
C643 C 0.74974 0.35025 0.0076 0.0
C644 C 0.72538 0.37369 0.97856 0.0
C645 C 0.72371 0.41437 0.0155 0.0
C646 C 0.70705 0.35637 0.9703 0.0
C647 C 0.69846 0.35688 0.94655 0.0
C648 C 0.70847 0.37445 0.93065 0.0
C649 C 0.72619 0.39221 0.93929 0.0
C650 C 0.73455 0.39181 0.96292 0.0
H651 H 0.71963 0.42357 0.03282 0.0
H652 H 0.73491 0.42768 1.0047 0.0
H653 H 0.70601 0.40996 0.00586 0.0
H654 H 0.69987 0.34209 0.98204 0.0
H655 H 0.68494 0.34286 0.94036 0.0
H656 H 0.34473 0.85554 0.58189 0.0
H657 H 0.31699 0.85577 0.54726 0.0
H658 H 0.26589 0.89872 0.58741 0.0
H659 H 0.29324 0.89786 0.62249 0.0
H660 H 0.24162 0.86278 0.56159 0.0
H661 H 0.30864 0.9127 0.50341 0.0
H662 H 0.32072 0.88488 0.51475 0.0
H663 H 0.3138 0.90965 0.5351 0.0
C664 C 0.32767 0.86517 0.58335 0.0
C665 C 0.32134 0.8769 0.60491 0.0
C666 C 0.31184 0.86536 0.56347 0.0
C667 C 0.28956 0.87769 0.56453 0.0
C668 C 0.28303 0.88918 0.58611 0.0
H669 H 0.21617 0.91469 0.43264 0.0
H670 H 0.23394 0.91649 0.47293 0.0
C671 C 0.29874 0.88876 0.60612 0.0
C672 C 0.27317 0.87861 0.54309 0.0
H673 H 0.27309 0.89395 0.48414 0.0
C674 C 0.24841 0.86979 0.54468 0.0
C675 C 0.28186 0.88812 0.52112 0.0
C676 C 0.30762 0.89961 0.51852 0.0
C677 C 0.2323 0.86974 0.52477 0.0
C678 C 0.24139 0.87818 0.50251 0.0
C679 C 0.26604 0.88734 0.50111 0.0
C680 C 0.22602 0.87785 0.48025 0.0
C681 C 0.20567 0.86105 0.52794 0.0
C682 C 0.21456 0.8558 0.47121 0.0
C683 C 0.20371 0.85495 0.44832 0.0
C684 C 0.20476 0.87598 0.43394 0.0
C685 C 0.21508 0.89824 0.44343 0.0
C686 C 0.22536 0.89923 0.46641 0.0
H687 H 0.19983 0.86302 0.54686 0.0
H688 H 0.19307 0.87149 0.51649 0.0
H689 H 0.20357 0.84121 0.5229 0.0
H690 H 0.21528 0.8389 0.4812 0.0
H691 H 0.19624 0.83747 0.44121 0.0
H692 H 0.72289 0.60244 0.61763 0.0
H693 H 0.7503 0.6043 0.58302 0.0
H694 H 0.71154 0.66612 0.55613 0.0
H695 H 0.68362 0.66388 0.59023 0.0
H696 H 0.71721 0.6332 0.52202 0.0
H697 H 0.80781 0.65041 0.56721 0.0
H698 H 0.7916 0.62329 0.57799 0.0
H699 H 0.77882 0.65308 0.58263 0.0
C700 C 0.7203 0.61653 0.60442 0.0
C701 C 0.70102 0.63298 0.60669 0.0
C702 C 0.73617 0.61773 0.58474 0.0
C703 C 0.73335 0.63567 0.56714 0.0
C704 C 0.71421 0.6522 0.56951 0.0
H705 H 0.83118 0.66365 0.44413 0.0
H706 H 0.81124 0.66704 0.48346 0.0
C707 C 0.6982 0.65086 0.58902 0.0
C708 C 0.74908 0.63611 0.54539 0.0
H709 H 0.80898 0.63762 0.52593 0.0
C710 C 0.73727 0.63441 0.52295 0.0
C711 C 0.77529 0.63805 0.54646 0.0
C712 C 0.78913 0.64158 0.56986 0.0
C713 C 0.75082 0.63385 0.50168 0.0
C714 C 0.777 0.63435 0.50279 0.0
C715 C 0.78892 0.63689 0.52513 0.0
C716 C 0.79194 0.63127 0.48085 0.0
C717 C 0.73691 0.63278 0.47814 0.0
C718 C 0.78861 0.60965 0.46696 0.0
C719 C 0.79973 0.60778 0.44464 0.0
C720 C 0.81479 0.62734 0.43581 0.0
C721 C 0.81969 0.64828 0.45049 0.0
C722 C 0.80826 0.65026 0.47289 0.0
H723 H 0.71799 0.63974 0.48002 0.0
H724 H 0.7469 0.64375 0.46434 0.0
H725 H 0.73504 0.61332 0.47173 0.0
H726 H 0.77659 0.59453 0.47301 0.0
H727 H 0.79586 0.59125 0.4339 0.0
H728 H 0.92333 0.31416 0.09447 0.0
H729 H 0.95178 0.28835 0.07201 0.0
H730 H 1.00215 0.29118 0.13234 0.0
H731 H 0.97475 0.31726 0.15411 0.0
H732 H 0.02703 0.29216 0.0907 0.0
H733 H 0.95404 0.21619 0.08763 0.0
H734 H 0.94874 0.24451 0.07247 0.0
H735 H 0.94946 0.24409 0.1046 0.0
C736 C 0.94076 0.30966 0.10262 0.0
C737 C 0.94656 0.31735 0.12624 0.0
C738 C 0.9569 0.29477 0.08986 0.0
C739 C 0.9789 0.28736 0.10065 0.0
C740 C 0.98532 0.29655 0.12355 0.0
H741 H 0.04257 0.17852 0.15406 0.0
H742 H 0.01694 0.20539 0.1315 0.0
C743 C 0.96945 0.31137 0.13612 0.0
C744 C 0.99442 0.26803 0.09019 0.0
H745 H 0.99507 0.20519 0.08807 0.0
C746 C 0.02009 0.27312 0.08927 0.0
C747 C 0.98526 0.24326 0.08779 0.0
C748 C 0.95791 0.23648 0.08818 0.0
C749 C 0.03687 0.25409 0.09015 0.0
C750 C 0.02759 0.22931 0.09104 0.0
C751 C 1.00207 0.22423 0.08781 0.0
C752 C 0.04237 0.20983 0.10195 0.0
C753 C 0.0641 0.26087 0.09307 0.0
C754 C 0.06506 0.20259 0.09261 0.0
C755 C 0.08019 0.18728 0.10587 0.0
C756 C 0.07266 0.1789 0.12852 0.0
C757 C 0.04918 0.18485 0.13687 0.0
C758 C 0.03433 0.20014 0.12383 0.0
H759 H 0.06793 0.28116 0.09369 0.0
H760 H 0.07135 0.25297 0.10981 0.0
H761 H 0.07441 0.25314 0.07783 0.0
H762 H 0.07144 0.20938 0.07552 0.0
H763 H 0.09808 0.18283 0.09884 0.0
H764 H 0.92282 0.70862 0.32818 0.0
H765 H 0.96116 0.73339 0.33495 0.0
H766 H 0.96702 0.70425 0.40599 0.0
H767 H 0.92852 0.67937 0.39943 0.0
H768 H 0.97183 0.76962 0.37448 0.0
H769 H 0.03491 0.69121 0.37227 0.0
H770 H 0.00411 0.68888 0.35949 0.0
H771 H 0.0083 0.68829 0.39133 0.0
C772 C 0.93222 0.70742 0.34527 0.0
C773 C 0.92261 0.69191 0.36324 0.0
C774 C 0.95412 0.72165 0.34911 0.0
C775 C 0.96703 0.72049 0.37087 0.0
C776 C 0.95746 0.7052 0.38896 0.0
H777 H 0.1112 0.78584 0.4144 0.0
H778 H 0.07132 0.76274 0.41297 0.0
C779 C 0.93542 0.69107 0.3852 0.0
C780 C 0.99047 0.73538 0.37454 0.0
H781 H 0.05307 0.73086 0.37958 0.0
C782 C 0.98961 0.76119 0.37566 0.0
C783 C 0.01358 0.7243 0.37621 0.0
C784 C 0.01551 0.69666 0.37463 0.0
C785 C 0.01129 0.77626 0.37848 0.0
C786 C 0.03454 0.76523 0.37952 0.0
C787 C 0.0353 0.73935 0.37874 0.0
C788 C 0.05833 0.78012 0.38091 0.0
C789 C 0.00896 0.80382 0.38072 0.0
C790 C 0.06445 0.79754 0.3633 0.0
C791 C 0.08716 0.81094 0.36419 0.0
C792 C 0.10445 0.80695 0.38251 0.0
C793 C 0.09833 0.78943 0.40006 0.0
C794 C 0.07553 0.77617 0.39926 0.0
H795 H 0.99036 0.80853 0.38724 0.0
H796 H 0.02317 0.81224 0.39313 0.0
H797 H 0.01152 0.8122 0.36287 0.0
H798 H 0.05184 0.80047 0.34858 0.0
H799 H 0.09133 0.82409 0.35024 0.0
H800 H 0.54159 0.67803 0.65501 0.0
H801 H 0.51509 0.705 0.63355 0.0
H802 H 0.5714 0.71675 0.58011 0.0
H803 H 0.59871 0.6899 0.60224 0.0
H804 H 0.55714 0.75902 0.59554 0.0
H805 H 0.47173 0.70478 0.57639 0.0
H806 H 0.47936 0.69902 0.60692 0.0
H807 H 0.5002 0.69011 0.58349 0.0
C808 C 0.54826 0.68586 0.63842 0.0
C809 C 0.57239 0.682 0.63049 0.0
C810 C 0.53284 0.70107 0.62589 0.0
C811 C 0.54094 0.71262 0.60486 0.0
C812 C 0.56461 0.70783 0.59613 0.0
H813 H 0.42417 0.8174 0.60032 0.0
H814 H 0.45238 0.79093 0.57843 0.0
C815 C 0.58019 0.69249 0.60878 0.0
C816 C 0.5261 0.7326 0.59498 0.0
H817 H 0.4657 0.74781 0.59261 0.0
C818 C 0.5372 0.75645 0.59393 0.0
C819 C 0.50016 0.72952 0.59174 0.0
C820 C 0.48733 0.70436 0.5894 0.0
C821 C 0.52275 0.77732 0.59361 0.0
C822 C 0.4967 0.77418 0.59519 0.0
C823 C 0.48569 0.75038 0.59229 0.0
C824 C 0.48145 0.79389 0.60529 0.0
C825 C 0.53564 0.80253 0.59336 0.0
C826 C 0.48847 0.8046 0.62745 0.0
C827 C 0.47254 0.81954 0.63987 0.0
C828 C 0.44897 0.824 0.63061 0.0
C829 C 0.44227 0.81436 0.60786 0.0
C830 C 0.45835 0.79923 0.59536 0.0
H831 H 0.55191 0.80245 0.58135 0.0
H832 H 0.52307 0.81691 0.58736 0.0
H833 H 0.54262 0.80741 0.61161 0.0
H834 H 0.50575 0.80022 0.63598 0.0
H835 H 0.47835 0.82673 0.6573 0.0
H836 H 0.86986 0.08277 0.69469 0.0
H837 H 0.88388 0.05661 0.72721 0.0
H838 H 0.82663 0.00172 0.70872 0.0
H839 H 0.81248 0.02761 0.67644 0.0
H840 H 0.8508 0.03867 0.76669 0.0
H841 H 0.89235 0.96363 0.71401 0.0
H842 H 0.8882 0.99399 0.70211 0.0
H843 H 0.86236 0.97215 0.70377 0.0
C844 C 0.86063 0.06488 0.69723 0.0
C845 C 0.84009 0.05722 0.68295 0.0
C846 C 0.86852 0.05009 0.71593 0.0
C847 C 0.85626 0.02727 0.72032 0.0
C848 C 0.83642 0.0192 0.70552 0.0
H849 H 0.83876 0.92698 0.83672 0.0
H850 H 0.83539 0.96284 0.81079 0.0
C851 C 0.82838 0.03402 0.68706 0.0
C852 C 0.86328 0.01213 0.74094 0.0
H853 H 0.88366 0.95547 0.75482 0.0
C854 C 0.85832 0.0206 0.76421 0.0
C855 C 0.87314 0.98867 0.73759 0.0
C856 C 0.87955 0.97907 0.71305 0.0
C857 C 0.86218 0.00575 0.78422 0.0
C858 C 0.87104 0.98182 0.78075 0.0
C859 C 0.87678 0.97379 0.7575 0.0
C860 C 0.87399 0.96427 0.80062 0.0
C861 C 0.85668 0.01571 0.80883 0.0
C862 C 0.89691 0.9537 0.80416 0.0
C863 C 0.89877 0.9332 0.81874 0.0
C864 C 0.87778 0.92289 0.83017 0.0
C865 C 0.85529 0.93477 0.82839 0.0
C866 C 0.85336 0.95525 0.81353 0.0
H867 H 0.85673 0.0362 0.80914 0.0
H868 H 0.83805 0.00862 0.81431 0.0
H869 H 0.87037 0.00963 0.82217 0.0
H870 H 0.91306 0.96036 0.79444 0.0
H871 H 0.91635 0.92441 0.81982 0.0
H872 H 0.09143 0.60205 0.76267 0.0
H873 H 0.09533 0.56293 0.74133 0.0
H874 H 0.15725 0.54617 0.78642 0.0
H875 H 0.15314 0.58525 0.80834 0.0
H876 H 0.13459 0.54686 0.71544 0.0
H877 H 0.11299 0.48402 0.7909 0.0
H878 H 0.10747 0.51656 0.79239 0.0
H879 H 0.13827 0.50601 0.79629 0.0
C880 C 0.10575 0.58997 0.76826 0.0
C881 C 0.12191 0.59673 0.78731 0.0
C882 C 0.10803 0.56766 0.75594 0.0
C883 C 0.12649 0.55158 0.76232 0.0
C884 C 0.14261 0.55813 0.78143 0.0
H885 H 0.15953 0.42105 0.67379 0.0
H886 H 0.16272 0.4628 0.69164 0.0
C887 C 0.14023 0.58046 0.79394 0.0
C888 C 0.12867 0.52809 0.74875 0.0
H889 H 0.12315 0.46554 0.75413 0.0
C890 C 0.13222 0.52904 0.72388 0.0
C891 C 0.12547 0.50491 0.75981 0.0
C892 C 0.12063 0.50268 0.78627 0.0
C893 C 0.13205 0.50742 0.70969 0.0
C894 C 0.12861 0.48429 0.72076 0.0
C895 C 0.12578 0.48334 0.7457 0.0
C896 C 0.126 0.46078 0.70691 0.0
C897 C 0.13456 0.50954 0.68294 0.0
C898 C 0.1042 0.44608 0.70913 0.0
C899 C 0.10248 0.42236 0.69923 0.0
C900 C 0.12247 0.41285 0.68673 0.0
C901 C 0.14375 0.42809 0.68309 0.0
C902 C 0.14559 0.45189 0.69331 0.0
H903 H 0.13195 0.52867 0.67683 0.0
H904 H 0.15335 0.50423 0.67763 0.0
H905 H 0.12089 0.4969 0.67354 0.0
H906 H 0.08881 0.45262 0.71939 0.0
H907 H 0.08583 0.41102 0.70224 0.0
H908 H 0.68204 0.86633 0.09326 0.0
H909 H 0.70783 0.87289 0.05778 0.0
H910 H 0.7145 0.79428 0.04988 0.0
H911 H 0.68868 0.78754 0.08499 0.0
H912 H 0.75659 0.85903 0.04989 0.0
H913 H 0.69257 0.8142 0.98308 0.0
H914 H 0.68271 0.82313 0.01263 0.0
H915 H 0.6985 0.79492 0.00812 0.0
C916 C 0.68883 0.85043 0.08386 0.0
C917 C 0.68314 0.82639 0.09194 0.0
C918 C 0.70362 0.85422 0.06361 0.0
C919 C 0.7128 0.83406 0.05093 0.0
C920 C 0.70721 0.8101 0.05904 0.0
H921 H 0.8105 0.80114 0.93638 0.0
H922 H 0.78202 0.80228 0.96996 0.0
C923 C 0.69252 0.80629 0.07924 0.0
C924 C 0.72885 0.8379 0.02966 0.0
H925 H 0.73451 0.82124 0.97084 0.0
C926 C 0.75165 0.85107 0.03251 0.0
C927 C 0.72235 0.82756 0.00696 0.0
C928 C 0.69759 0.81437 1.00239 0.0
C929 C 0.7686 0.85318 0.01357 0.0
C930 C 0.76242 0.84212 0.9911 0.0
C931 C 0.7393 0.8296 0.98809 0.0
C932 C 0.78014 0.84203 0.97085 0.0
C933 C 0.79341 0.86631 0.01803 0.0
C934 C 0.78854 0.86404 0.96002 0.0
C935 C 0.80494 0.86347 0.94069 0.0
C936 C 0.81317 0.84086 0.9318 0.0
C937 C 0.80464 0.8189 0.94273 0.0
C938 C 0.78828 0.8195 0.96195 0.0
H939 H 0.79724 0.86939 0.03742 0.0
H940 H 0.80851 0.85562 0.01024 0.0
H941 H 0.79368 0.88457 0.0093 0.0
H942 H 0.7822 0.88163 0.96632 0.0
H943 H 0.81104 0.88071 0.93264 0.0
H944 H 0.18539 0.62068 0.89113 0.0
H945 H 0.21048 0.61013 0.9259 0.0
H946 H 0.2144 0.6865 0.94859 0.0
H947 H 0.18935 0.69727 0.91399 0.0
H948 H 0.25995 0.6307 0.94214 0.0
H949 H 0.1834 0.64668 0.0057 0.0
H950 H 0.17819 0.64221 0.97396 0.0
H951 H 0.19067 0.6713 0.98537 0.0
C952 C 0.19166 0.63526 0.90346 0.0
C953 C 0.18518 0.6598 0.89987 0.0
C954 C 0.20608 0.6292 0.92324 0.0
C955 C 0.21411 0.64752 0.93985 0.0
C956 C 0.20818 0.67208 0.93605 0.0
H957 H 0.31345 0.6407 0.06316 0.0
H958 H 0.29645 0.64883 0.02338 0.0
C959 C 0.19387 0.67818 0.91625 0.0
C960 C 0.22772 0.64082 0.96175 0.0
H961 H 0.22206 0.63758 0.02237 0.0
C962 C 0.25174 0.63218 0.95971 0.0
C963 C 0.21682 0.64261 0.98457 0.0
C964 C 0.19078 0.65102 0.98767 0.0
C965 C 0.26524 0.62548 0.98005 0.0
C966 C 0.2544 0.62756 1.00288 0.0
C967 C 0.23035 0.63608 1.00483 0.0
C968 C 0.26718 0.62043 0.02514 0.0
C969 C 0.29077 0.61583 0.97699 0.0
C970 C 0.25664 0.60152 0.0391 0.0
C971 C 0.2662 0.5969 0.06175 0.0
C972 C 0.28649 0.61119 0.07104 0.0
C973 C 0.29789 0.62928 0.05651 0.0
C974 C 0.28823 0.63393 0.03375 0.0
H975 H 0.2945 0.61079 0.95807 0.0
H976 H 0.30476 0.63029 0.98283 0.0
H977 H 0.29314 0.5994 0.98827 0.0
H978 H 0.2404 0.59089 0.03278 0.0
H979 H 0.25703 0.58273 0.07237 0.0
H980 H 0.71659 0.18986 0.39533 0.0
H981 H 0.74251 0.17937 0.4294 0.0
H982 H 0.69966 0.11109 0.43742 0.0
H983 H 0.67402 0.12115 0.40304 0.0
H984 H 0.7289 0.17241 0.47501 0.0
H985 H 0.76916 0.08705 0.44025 0.0
H986 H 0.75326 0.10792 0.42121 0.0
H987 H 0.73599 0.08564 0.43874 0.0
C988 C 0.71279 0.1725 0.40421 0.0
C989 C 0.69326 0.15631 0.39641 0.0
C990 C 0.72766 0.16653 0.42367 0.0
C991 C 0.72335 0.14424 0.43572 0.0
C992 C 0.7038 0.12808 0.42802 0.0
H993 H 0.76157 0.08232 0.56942 0.0
H994 H 0.74705 0.09121 0.52912 0.0
C995 C 0.68901 0.13396 0.40847 0.0
C996 C 0.73825 0.13862 0.45724 0.0
H997 H 0.77252 0.09427 0.48266 0.0
C998 C 0.73875 0.1555 0.47654 0.0
C999 C 0.75116 0.11656 0.45922 0.0
C1000 C 0.75261 0.09838 0.43865 0.0
C1001 C 0.7509 0.15047 0.49808 0.0
C1002 C 0.76309 0.12807 0.50031 0.0
C1003 C 0.76314 0.11143 0.48086 0.0
C1004 C 0.77423 0.1209 0.52333 0.0
C1005 C 0.74978 0.1687 0.51867 0.0
C1006 C 0.79491 0.1341 0.53308 0.0
C1007 C 0.80337 0.129 0.55615 0.0
C1008 C 0.79117 0.11069 0.56985 0.0
C1009 C 0.77129 0.09666 0.55944 0.0
C1010 C 0.76297 0.10167 0.53638 0.0
H1011 H 0.73633 0.18319 0.5153 0.0
H1012 H 0.74456 0.15907 0.53541 0.0
H1013 H 0.76833 0.17788 0.52151 0.0
H1014 H 0.804 0.14885 0.52313 0.0
H1015 H 0.81874 0.14013 0.56361 0.0
H1016 H 0.19242 0.29308 0.58502 0.0
H1017 H 0.21895 0.29891 0.55021 0.0
H1018 H 0.20571 0.37673 0.55137 0.0
H1019 H 0.17924 0.37113 0.58647 0.0
H1020 H 0.20713 0.31758 0.50517 0.0
H1021 H 0.28169 0.37542 0.5501 0.0
H1022 H 0.25859 0.35786 0.56662 0.0
H1023 H 0.2509 0.38628 0.55288 0.0
C1024 C 0.19512 0.31148 0.57794 0.0
C1025 C 0.18373 0.33165 0.58865 0.0
C1026 C 0.21031 0.31477 0.55799 0.0
C1027 C 0.21462 0.3383 0.54835 0.0
C1028 C 0.20304 0.35847 0.55876 0.0
H1029 H 0.3105 0.38057 0.42736 0.0
H1030 H 0.28106 0.38202 0.46057 0.0
C1031 C 0.18777 0.3552 0.57874 0.0
C1032 C 0.23097 0.3414 0.5272 0.0
H1033 H 0.28626 0.36737 0.50882 0.0
C1034 C 0.22438 0.32855 0.50595 0.0
C1035 C 0.25341 0.35585 0.52815 0.0
C1036 C 0.26177 0.36953 0.55068 0.0
C1037 C 0.2397 0.32952 0.48577 0.0
C1038 C 0.26252 0.34332 0.48696 0.0
C1039 C 0.2688 0.35677 0.50795 0.0
C1040 C 0.28066 0.34278 0.46708 0.0
C1041 C 0.23129 0.31574 0.46331 0.0
C1042 C 0.29062 0.32037 0.46005 0.0
C1043 C 0.30737 0.31948 0.44118 0.0
C1044 C 0.31474 0.34104 0.42894 0.0
C1045 C 0.30516 0.36362 0.43633 0.0
C1046 C 0.28834 0.36448 0.45531 0.0
H1047 H 0.21087 0.31242 0.46286 0.0
H1048 H 0.23695 0.32601 0.44707 0.0
H1049 H 0.23985 0.29752 0.46272 0.0
H1050 H 0.28542 0.30347 0.4692 0.0
H1051 H 0.31446 0.30178 0.43615 0.0
H1052 H 0.04178 0.69709 0.83529 0.0
H1053 H 0.01278 0.71794 0.86042 0.0
H1054 H 0.06023 0.70926 0.92183 0.0
H1055 H 0.0902 0.68869 0.89626 0.0
H1056 H 0.98644 0.7053 0.90022 0.0
H1057 H 0.05388 0.78356 0.92096 0.0
H1058 H 0.06048 0.76057 0.89857 0.0
H1059 H 0.06122 0.75293 0.9297 0.0
C1060 C 0.04615 0.69938 0.85416 0.0
C1061 C 0.06856 0.6915 0.86366 0.0
C1062 C 0.02938 0.71123 0.8686 0.0
C1063 C 0.03439 0.71549 0.89299 0.0
C1064 C 0.05615 0.70657 0.90296 0.0
H1065 H 0.90568 0.80489 0.91883 0.0
H1066 H 0.93595 0.77718 0.93583 0.0
C1067 C 0.07318 0.69469 0.88836 0.0
C1068 C 0.01725 0.73095 0.9067 0.0
H1069 H 0.01195 0.7911 0.92384 0.0
C1070 C 0.99196 0.72388 0.90617 0.0
C1071 C 0.02459 0.75501 0.91484 0.0
C1072 C 0.05147 0.76367 0.91608 0.0
C1073 C 0.97374 0.74114 0.91007 0.0
C1074 C 0.98113 0.76601 0.91542 0.0
C1075 C 0.00636 0.77211 0.91949 0.0
C1076 C 0.96453 0.78644 0.91009 0.0
C1077 C 0.94699 0.73318 0.90565 0.0
C1078 C 0.97114 0.80215 0.89126 0.0
C1079 C 0.9542 0.81804 0.88188 0.0
C1080 C 0.93012 0.81863 0.89102 0.0
C1081 C 0.92409 0.80467 0.91134 0.0
C1082 C 0.94127 0.78866 0.92089 0.0
H1083 H 0.94472 0.71353 0.89984 0.0
H1084 H 0.93633 0.73555 0.92234 0.0
H1085 H 0.93882 0.74474 0.89166 0.0
H1086 H 0.98894 0.80096 0.88263 0.0
H1087 H 0.95957 0.82886 0.86647 0.0
H1088 H 0.03997 0.31267 0.66646 0.0
H1089 H 0.00637 0.28354 0.65496 0.0
H1090 H 0.05432 0.24816 0.60495 0.0
H1091 H 0.08849 0.27764 0.61662 0.0
H1092 H 0.98293 0.26942 0.61094 0.0
H1093 H 0.0331 0.1933 0.65296 0.0
H1094 H 0.04256 0.22531 0.6578 0.0
H1095 H 0.04847 0.21048 0.62966 0.0
C1096 C 0.04332 0.29898 0.65269 0.0
C1097 C 0.06691 0.29725 0.6426 0.0
C1098 C 0.02404 0.28237 0.64608 0.0
C1099 C 0.02791 0.26346 0.62938 0.0
C1100 C 0.05105 0.26248 0.61811 0.0
H1101 H 0.89602 0.16347 0.60489 0.0
H1102 H 0.93329 0.18891 0.59605 0.0
C1103 C 0.07046 0.2794 0.62461 0.0
C1104 C 0.00806 0.24394 0.6258 0.0
H1105 H 0.9914 0.18535 0.64292 0.0
C1106 C 0.98486 0.25083 0.61739 0.0
C1107 C 0.0106 0.21983 0.63457 0.0
C1108 C 0.03493 0.21164 0.6444 0.0
C1109 C 0.96387 0.23468 0.6186 0.0
C1110 C 0.96624 0.21089 0.62821 0.0
C1111 C 0.98967 0.20358 0.63553 0.0
C1112 C 0.9443 0.19433 0.63309 0.0
C1113 C 0.93907 0.24375 0.61098 0.0
C1114 C 0.93845 0.18838 0.6568 0.0
C1115 C 0.91726 0.17378 0.66193 0.0
C1116 C 0.90147 0.16473 0.64342 0.0
C1117 C 0.90768 0.17026 0.6196 0.0
C1118 C 0.92893 0.18488 0.6145 0.0
H1119 H 0.93976 0.26397 0.60794 0.0
H1120 H 0.93312 0.2343 0.59403 0.0
H1121 H 0.92485 0.2394 0.62469 0.0
H1122 H 0.95008 0.19545 0.67144 0.0
H1123 H 0.91313 0.16985 0.68045 0.0
H1124 H 0.54296 0.1939 0.33453 0.0
H1125 H 0.51423 0.21634 0.35866 0.0
H1126 H 0.56091 0.20885 0.42082 0.0
H1127 H 0.59056 0.18663 0.39629 0.0
H1128 H 0.48747 0.20502 0.39884 0.0
H1129 H 0.55547 0.28336 0.41736 0.0
H1130 H 0.56184 0.25962 0.39563 0.0
H1131 H 0.56263 0.25296 0.42698 0.0
C1132 C 0.54721 0.1968 0.35335 0.0
C1133 C 0.56928 0.1887 0.36337 0.0
C1134 C 0.53061 0.20957 0.36721 0.0
C1135 C 0.53549 0.21456 0.39152 0.0
C1136 C 0.55695 0.20558 0.402 0.0
H1137 H 0.40715 0.30482 0.41618 0.0
H1138 H 0.43776 0.27772 0.4335 0.0
C1139 C 0.57379 0.19277 0.388 0.0
C1140 C 0.51845 0.23063 0.40464 0.0
H1141 H 0.5136 0.29123 0.42036 0.0
C1142 C 0.49313 0.2237 0.40431 0.0
C1143 C 0.52598 0.25485 0.41213 0.0
C1144 C 0.55291 0.26334 0.41306 0.0
C1145 C 0.47504 0.24116 0.40792 0.0
C1146 C 0.48259 0.2661 0.41273 0.0
C1147 C 0.50788 0.27217 0.41645 0.0
C1148 C 0.46598 0.28647 0.40726 0.0
C1149 C 0.44822 0.23323 0.4038 0.0
C1150 C 0.47232 0.30178 0.38805 0.0
C1151 C 0.45518 0.31735 0.37848 0.0
C1152 C 0.43118 0.31799 0.38782 0.0
C1153 C 0.42548 0.30455 0.40854 0.0
C1154 C 0.44286 0.28888 0.41827 0.0
H1155 H 0.44584 0.21351 0.39827 0.0
H1156 H 0.43771 0.23589 0.42053 0.0
H1157 H 0.43998 0.24461 0.3897 0.0
H1158 H 0.49001 0.30045 0.37925 0.0
H1159 H 0.46029 0.32779 0.36275 0.0
H1160 H 0.65895 0.57018 0.67959 0.0
H1161 H 0.66287 0.53128 0.70084 0.0
H1162 H 0.58727 0.53452 0.72429 0.0
H1163 H 0.5834 0.57343 0.70355 0.0
H1164 H 0.61999 0.53278 0.76129 0.0
H1165 H 0.63821 0.45906 0.6948 0.0
H1166 H 0.65775 0.48641 0.69154 0.0
H1167 H 0.62495 0.4878 0.68663 0.0
C1168 C 0.64294 0.56212 0.68858 0.0
C1169 C 0.62096 0.57494 0.69011 0.0
C1170 C 0.64517 0.53986 0.70069 0.0
C1171 C 0.62533 0.52998 0.71416 0.0
C1172 C 0.6028 0.54181 0.71406 0.0
H1173 H 0.63143 0.40102 0.8084 0.0
H1174 H 0.61616 0.43057 0.77936 0.0
C1175 C 0.60064 0.56406 0.70218 0.0
C1176 C 0.62907 0.50969 0.73116 0.0
H1177 H 0.64812 0.4507 0.73578 0.0
C1178 C 0.62577 0.51471 0.75563 0.0
C1179 C 0.63653 0.48611 0.7238 0.0
C1180 C 0.63935 0.47938 0.69774 0.0
C1181 C 0.63064 0.49713 0.77298 0.0
C1182 C 0.63914 0.47399 0.7657 0.0
C1183 C 0.64159 0.46854 0.74124 0.0
C1184 C 0.64768 0.45624 0.78345 0.0
C1185 C 0.62724 0.50356 0.79906 0.0
C1186 C 0.67025 0.46113 0.79537 0.0
C1187 C 0.67901 0.44442 0.81178 0.0
C1188 C 0.66528 0.42247 0.81671 0.0
C1189 C 0.64233 0.41784 0.80511 0.0
C1190 C 0.63367 0.43456 0.78843 0.0
H1191 H 0.6161 0.52014 0.8015 0.0
H1192 H 0.61806 0.48785 0.80853 0.0
H1193 H 0.64565 0.5074 0.80754 0.0
H1194 H 0.68129 0.4778 0.79171 0.0
H1195 H 0.69672 0.44858 0.82041 0.0
H1196 H 0.34862 0.05293 0.84167 0.0
H1197 H 0.36227 0.02412 0.81106 0.0
H1198 H 0.40082 0.08408 0.77507 0.0
H1199 H 0.38808 0.11284 0.80646 0.0
H1200 H 0.34834 0.02564 0.76586 0.0
H1201 H 0.45105 0.03205 0.77007 0.0
H1202 H 0.43211 0.04453 0.79334 0.0
H1203 H 0.4368 0.06099 0.76594 0.0
C1204 C 0.36067 0.05981 0.82763 0.0
C1205 C 0.36743 0.08504 0.82647 0.0
C1206 C 0.36831 0.04339 0.81005 0.0
C1207 C 0.38255 0.05188 0.79068 0.0
C1208 C 0.39026 0.07696 0.79002 0.0
H1209 H 0.37897 0.94406 0.66997 0.0
H1210 H 0.37619 0.98442 0.69009 0.0
C1211 C 0.38299 0.09338 0.80798 0.0
C1212 C 0.38726 0.03463 0.77047 0.0
H1213 H 0.43281 0.00706 0.73927 0.0
C1214 C 0.36682 0.02164 0.75997 0.0
C1215 C 0.41136 0.02961 0.76264 0.0
C1216 C 0.43412 0.04235 0.77368 0.0
C1217 C 0.36979 0.00279 0.74292 0.0
C1218 C 0.39392 0.99739 0.73537 0.0
C1219 C 0.41432 0.01132 0.74492 0.0
C1220 C 0.39861 0.97505 0.72065 0.0
C1221 C 0.34711 0.98785 0.73441 0.0
C1222 C 0.41339 0.95702 0.7303 0.0
C1223 C 0.41542 0.93434 0.71868 0.0
C1224 C 0.40251 0.92893 0.69715 0.0
C1225 C 0.38891 0.94753 0.68665 0.0
C1226 C 0.38715 0.97052 0.69823 0.0
H1227 H 0.33072 0.99115 0.74569 0.0
H1228 H 0.34252 0.99308 0.71584 0.0
H1229 H 0.35046 0.9678 0.73448 0.0
H1230 H 0.42251 0.96003 0.74749 0.0
H1231 H 0.42631 0.92063 0.72725 0.0
H1232 H 0.42673 0.18673 0.89644 0.0
H1233 H 0.46608 0.21035 0.90243 0.0
H1234 H 0.4583 0.24245 0.83285 0.0
H1235 H 0.41913 0.21897 0.82664 0.0
H1236 H 0.50953 0.20925 0.87104 0.0
H1237 H 0.47153 0.30246 0.87979 0.0
H1238 H 0.45291 0.27443 0.88417 0.0
H1239 H 0.46042 0.28428 0.85447 0.0
C1240 C 0.43333 0.19891 0.88246 0.0
C1241 C 0.41972 0.20098 0.86107 0.0
C1242 C 0.45583 0.21235 0.88591 0.0
C1243 C 0.46496 0.22835 0.8682 0.0
C1244 C 0.45142 0.23048 0.84689 0.0
H1245 H 0.59335 0.32606 0.84697 0.0
H1246 H 0.55344 0.30311 0.84525 0.0
C1247 C 0.42906 0.21693 0.84334 0.0
C1248 C 0.48899 0.24233 0.87159 0.0
H1249 H 0.51506 0.30073 0.87614 0.0
C1250 C 0.51078 0.22924 0.87237 0.0
C1251 C 0.49053 0.26839 0.87315 0.0
C1252 C 0.46763 0.2833 0.87305 0.0
C1253 C 0.53418 0.24157 0.87397 0.0
C1254 C 0.53577 0.2677 0.87548 0.0
C1255 C 0.51388 0.28074 0.87499 0.0
C1256 C 0.55995 0.28191 0.87701 0.0
C1257 C 0.55696 0.22647 0.87314 0.0
C1258 C 0.57679 0.27802 0.89568 0.0
C1259 C 0.59975 0.291 0.89662 0.0
C1260 C 0.60622 0.30842 0.87908 0.0
C1261 C 0.58903 0.31277 0.86076 0.0
C1262 C 0.56616 0.29965 0.85975 0.0
H1263 H 0.55284 0.20777 0.86533 0.0
H1264 H 0.57179 0.23576 0.86248 0.0
H1265 H 0.56406 0.22417 0.89161 0.0
H1266 H 0.5722 0.26492 0.90957 0.0
H1267 H 0.61243 0.28734 0.9111 0.0
H1268 H 0.31878 0.52796 0.17198 0.0
H1269 H 0.33138 0.5027 0.20539 0.0
H1270 H 0.37229 0.56547 0.23644 0.0
H1271 H 0.36073 0.59052 0.20225 0.0
H1272 H 0.39609 0.52573 0.24469 0.0
H1273 H 0.29878 0.5059 0.26879 0.0
H1274 H 0.30382 0.49558 0.23873 0.0
H1275 H 0.30751 0.52801 0.24625 0.0
C1276 C 0.33089 0.53621 0.18569 0.0
C1277 C 0.3387 0.5612 0.1846 0.0
C1278 C 0.33778 0.52188 0.20497 0.0
C1279 C 0.35191 0.53243 0.22399 0.0
C1280 C 0.36105 0.557 0.22219 0.0
H1281 H 0.35103 0.43285 0.34714 0.0
H1282 H 0.34705 0.47203 0.32611 0.0
C1283 C 0.3546 0.57125 0.20257 0.0
C1284 C 0.35672 0.51777 0.24571 0.0
H1285 H 0.32826 0.47778 0.28443 0.0
C1286 C 0.38121 0.51556 0.25362 0.0
C1287 C 0.33732 0.50528 0.2582 0.0
C1288 C 0.31039 0.50908 0.25272 0.0
C1289 C 0.38691 0.49969 0.27234 0.0
C1290 C 0.36773 0.48491 0.2828 0.0
C1291 C 0.34311 0.48865 0.27619 0.0
C1292 C 0.37286 0.46339 0.29805 0.0
C1293 C 0.41352 0.4988 0.28045 0.0
C1294 C 0.38887 0.44566 0.28957 0.0
C1295 C 0.39137 0.42363 0.30163 0.0
C1296 C 0.37749 0.41833 0.32227 0.0
C1297 C 0.36203 0.43637 0.33135 0.0
C1298 C 0.35971 0.45872 0.31929 0.0
H1299 H 0.42307 0.51728 0.27911 0.0
H1300 H 0.41505 0.49248 0.29918 0.0
H1301 H 0.42338 0.486 0.26856 0.0
H1302 H 0.3986 0.44823 0.27287 0.0
H1303 H 0.4035 0.41026 0.29402 0.0
H1304 H 0.65857 0.08174 0.31205 0.0
H1305 H 0.66531 0.04259 0.291 0.0
H1306 H 0.59621 0.04865 0.25299 0.0
H1307 H 0.58962 0.08777 0.27342 0.0
H1308 H 0.63917 -0.00098 0.2886 0.0
H1309 H 0.64356 0.03906 0.19837 0.0
H1310 H 0.64498 0.05788 0.22529 0.0
H1311 H 0.61556 0.04658 0.21325 0.0
C1312 C 0.64472 0.07458 0.29937 0.0
C1313 C 0.62367 0.08796 0.29424 0.0
C1314 C 0.64868 0.05232 0.28725 0.0
C1315 C 0.63165 0.04314 0.26986 0.0
C1316 C 0.61004 0.05583 0.26569 0.0
H1317 H 0.59528 0.89898 0.21997 0.0
H1318 H 0.59989 0.9401 0.23785 0.0
C1319 C 0.60617 0.07808 0.2776 0.0
C1320 C 0.63592 0.01997 0.25638 0.0
H1321 H 0.63492 0.99499 0.19988 0.0
C1322 C 0.63864 -0.00179 0.2692 0.0
C1323 C 0.63587 0.01896 0.23103 0.0
C1324 C 0.63512 0.04194 0.2162 0.0
C1325 C 0.63963 0.97528 0.2574 0.0
C1326 C 0.63727 0.97405 0.23217 0.0
C1327 C 0.63626 0.99594 0.21924 0.0
C1328 C 0.63372 0.95009 0.21927 0.0
C1329 C 0.64273 0.95251 0.27214 0.0
C1330 C 0.65041 0.94262 0.2017 0.0
C1331 C 0.64761 0.91904 0.19108 0.0
C1332 C 0.62811 0.90275 0.19799 0.0
C1333 C 0.61071 0.91097 0.21452 0.0
C1334 C 0.6134 0.93441 0.22491 0.0
H1335 H 0.65222 0.95711 0.28943 0.0
H1336 H 0.62422 0.94405 0.2762 0.0
H1337 H 0.65349 0.93865 0.26237 0.0
H1338 H 0.66603 0.95465 0.19686 0.0
H1339 H 0.66131 0.91317 0.17841 0.0
H1340 H 0.54234 0.80569 0.17463 0.0
H1341 H 0.50662 0.78086 0.16044 0.0
H1342 H 0.54938 0.75313 0.10187 0.0
H1343 H 0.58582 0.77824 0.11628 0.0
H1344 H 0.48088 0.77829 0.11573 0.0
H1345 H 0.52483 0.69044 0.13877 0.0
H1346 H 0.53728 0.71993 0.14969 0.0
H1347 H 0.54077 0.7114 0.11883 0.0
C1348 C 0.54419 0.79453 0.15856 0.0
C1349 C 0.56699 0.7937 0.14671 0.0
C1350 C 0.52367 0.7804 0.15041 0.0
C1351 C 0.52538 0.7649 0.1303 0.0
C1352 C 0.54777 0.76478 0.11763 0.0
H1353 H 0.40166 0.65392 0.10977 0.0
H1354 H 0.43969 0.67813 0.1003 0.0
C1355 C 0.56848 0.77924 0.12573 0.0
C1356 C 0.50381 0.74808 0.12416 0.0
H1357 H 0.48199 0.68868 0.13203 0.0
C1358 C 0.48122 0.75858 0.11868 0.0
C1359 C 0.50427 0.72236 0.12803 0.0
C1360 C 0.528 0.7102 0.13425 0.0
C1361 C 0.4589 0.74437 0.11849 0.0
C1362 C 0.45914 0.71907 0.12418 0.0
C1363 C 0.48189 0.70813 0.12782 0.0
C1364 C 0.43595 0.70452 0.12927 0.0
C1365 C 0.43509 0.75676 0.11316 0.0
C1366 C 0.42151 0.71112 0.1489 0.0
C1367 C 0.39999 0.69728 0.15448 0.0
C1368 C 0.39239 0.67652 0.14051 0.0
C1369 C 0.40694 0.66986 0.12084 0.0
C1370 C 0.42866 0.68365 0.11539 0.0
H1371 H 0.43843 0.77364 0.10241 0.0
H1372 H 0.4218 0.74403 0.10336 0.0
H1373 H 0.42646 0.76232 0.13024 0.0
H1374 H 0.42704 0.72689 0.16011 0.0
H1375 H 0.3893 0.70294 0.16975 0.0
loop_
_geom_bond_atom_site_label_1
_geom_bond_atom_site_label_2
_geom_bond_distance
_geom_bond_site_symmetry_2
_ccdc_geom_bond_type
Zn0 O3 2.031 . S
Zn0 O5 2.049 . S
Zn0 O10 2.067 . S
Zn1 O2 1.962 . S
Zn1 O4 1.986 . S
Zn1 O6 1.996 . S
Zn1 O9 1.943 . S
O2 Zn1 1.962 . S
O2 C7 1.254 . S
O3 Zn0 2.031 . S
O3 C7 1.269 . S
O4 Zn1 1.986 . S
O4 C11 1.262 . S
O5 Zn0 2.049 . S
O5 C13 1.260 . S
O6 Zn1 1.996 . S
O6 C13 1.257 . S
C7 O2 1.254 . S
C7 O3 1.269 . S
C8 O9 1.249 . S
C8 O10 1.270 . S
O9 Zn1 1.943 . S
O9 C8 1.249 . S
O10 Zn0 2.067 . S
O10 C8 1.270 . S
C11 O4 1.262 . S
C11 O12 1.232 . S
O12 C11 1.232 . S
C13 O5 1.260 . S
C13 O6 1.257 . S
Zn14 O17 2.031 . S
Zn14 O19 2.049 . S
Zn14 O24 2.067 . S
Zn15 O16 1.962 . S
Zn15 O18 1.986 . S
Zn15 O20 1.996 . S
Zn15 O23 1.943 . S
O16 Zn15 1.962 . S
O16 C21 1.254 . S
O17 Zn14 2.031 . S
O17 C21 1.269 . S
O18 Zn15 1.986 . S
O18 C25 1.262 . S
O19 Zn14 2.049 . S
O19 C27 1.260 . S
O20 Zn15 1.996 . S
O20 C27 1.257 . S
C21 O16 1.254 . S
C21 O17 1.269 . S
C22 O23 1.249 . S
C22 O24 1.270 . S
O23 Zn15 1.943 . S
O23 C22 1.249 . S
O24 Zn14 2.067 . S
O24 C22 1.270 . S
C25 O18 1.262 . S
C25 O26 1.232 . S
O26 C25 1.232 . S
C27 O19 1.260 . S
C27 O20 1.257 . S
Zn28 O31 2.031 . S
Zn28 O33 2.049 . S
Zn28 O38 2.067 . S
Zn29 O30 1.962 . S
Zn29 O32 1.986 . S
Zn29 O34 1.996 . S
Zn29 O37 1.943 . S
O30 Zn29 1.962 . S
O30 C35 1.254 . S
O31 Zn28 2.031 . S
O31 C35 1.269 . S
O32 Zn29 1.986 . S
O32 C39 1.262 . S
O33 Zn28 2.049 . S
O33 C41 1.260 . S
O34 Zn29 1.996 . S
O34 C41 1.257 . S
C35 O30 1.254 . S
C35 O31 1.269 . S
C36 O37 1.249 . S
C36 O38 1.270 . S
O37 Zn29 1.943 . S
O37 C36 1.249 . S
O38 Zn28 2.067 . S
O38 C36 1.270 . S
C39 O32 1.262 . S
C39 O40 1.232 . S
O40 C39 1.232 . S
C41 O33 1.260 . S
C41 O34 1.257 . S
Zn42 O45 2.031 . S
Zn42 O47 2.049 . S
Zn42 O52 2.067 . S
Zn43 O44 1.962 . S
Zn43 O46 1.986 . S
Zn43 O48 1.996 . S
Zn43 O51 1.943 . S
O44 Zn43 1.962 . S
O44 C49 1.254 . S
O45 Zn42 2.031 . S
O45 C49 1.269 . S
O46 Zn43 1.986 . S
O46 C53 1.262 . S
O47 Zn42 2.049 . S
O47 C55 1.260 . S
O48 Zn43 1.996 . S
O48 C55 1.257 . S
C49 O44 1.254 . S
C49 O45 1.269 . S
C50 O51 1.249 . S
C50 O52 1.270 . S
O51 Zn43 1.943 . S
O51 C50 1.249 . S
O52 Zn42 2.067 . S
O52 C50 1.270 . S
C53 O46 1.262 . S
C53 O54 1.232 . S
O54 C53 1.232 . S
C55 O47 1.260 . S
C55 O48 1.257 . S
Zn56 O59 2.031 . S
Zn56 O61 2.049 . S
Zn56 O66 2.067 . S
Zn57 O58 1.962 . S
Zn57 O60 1.986 . S
Zn57 O62 1.996 . S
Zn57 O65 1.943 . S
O58 Zn57 1.962 . S
O58 C63 1.254 . S
O59 Zn56 2.031 . S
O59 C63 1.269 . S
O60 Zn57 1.986 . S
O60 C67 1.262 . S
O61 Zn56 2.049 . S
O61 C69 1.260 . S
O62 Zn57 1.996 . S
O62 C69 1.257 . S
C63 O58 1.254 . S
C63 O59 1.269 . S
C64 O65 1.249 . S
C64 O66 1.270 . S
O65 Zn57 1.943 . S
O65 C64 1.249 . S
O66 Zn56 2.067 . S
O66 C64 1.270 . S
C67 O60 1.262 . S
C67 O68 1.232 . S
O68 C67 1.232 . S
C69 O61 1.260 . S
C69 O62 1.257 . S
Zn70 O73 2.031 . S
Zn70 O75 2.049 . S
Zn70 O80 2.067 . S
Zn71 O72 1.962 . S
Zn71 O74 1.986 . S
Zn71 O76 1.996 . S
Zn71 O79 1.943 . S
O72 Zn71 1.962 . S
O72 C77 1.254 . S
O73 Zn70 2.031 . S
O73 C77 1.269 . S
O74 Zn71 1.986 . S
O74 C81 1.262 . S
O75 Zn70 2.049 . S
O75 C83 1.260 . S
O76 Zn71 1.996 . S
O76 C83 1.257 . S
C77 O72 1.254 . S
C77 O73 1.269 . S
C78 O79 1.249 . S
C78 O80 1.270 . S
O79 Zn71 1.943 . S
O79 C78 1.249 . S
O80 Zn70 2.067 . S
O80 C78 1.270 . S
C81 O74 1.262 . S
C81 O82 1.232 . S
O82 C81 1.232 . S
C83 O75 1.260 . S
C83 O76 1.257 . S
Zn84 O87 2.031 . S
Zn84 O89 2.049 . S
Zn84 O94 2.067 . S
Zn85 O86 1.962 . S
Zn85 O88 1.986 . S
Zn85 O90 1.996 . S
Zn85 O93 1.943 . S
O86 Zn85 1.962 . S
O86 C91 1.254 . S
O87 Zn84 2.031 . S
O87 C91 1.269 . S
O88 Zn85 1.986 . S
O88 C95 1.262 . S
O89 Zn84 2.049 . S
O89 C97 1.260 . S
O90 Zn85 1.996 . S
O90 C97 1.257 . S
C91 O86 1.254 . S
C91 O87 1.269 . S
C92 O93 1.249 . S
C92 O94 1.270 . S
O93 Zn85 1.943 . S
O93 C92 1.249 . S
O94 Zn84 2.067 . S
O94 C92 1.270 . S
C95 O88 1.262 . S
C95 O96 1.232 . S
O96 C95 1.232 . S
C97 O89 1.260 . S
C97 O90 1.257 . S
Zn98 O101 2.031 . S
Zn98 O103 2.049 . S
Zn98 O108 2.067 . S
Zn99 O100 1.962 . S
Zn99 O102 1.986 . S
Zn99 O104 1.996 . S
Zn99 O107 1.943 . S
O100 Zn99 1.962 . S
O100 C105 1.254 . S
O101 Zn98 2.031 . S
O101 C105 1.269 . S
O102 Zn99 1.986 . S
O102 C109 1.262 . S
O103 Zn98 2.049 . S
O103 C111 1.260 . S
O104 Zn99 1.996 . S
O104 C111 1.257 . S
C105 O100 1.254 . S
C105 O101 1.269 . S
C106 O107 1.249 . S
C106 O108 1.270 . S
O107 Zn99 1.943 . S
O107 C106 1.249 . S
O108 Zn98 2.067 . S
O108 C106 1.270 . S
C109 O102 1.262 . S
C109 O110 1.232 . S
O110 C109 1.232 . S
C111 O103 1.260 . S
C111 O104 1.257 . S
Zn112 O115 2.031 . S
Zn112 O117 2.049 . S
Zn112 O122 2.067 . S
Zn113 O114 1.962 . S
Zn113 O116 1.986 . S
Zn113 O118 1.996 . S
Zn113 O121 1.943 . S
O114 Zn113 1.962 . S
O114 C119 1.254 . S
O115 Zn112 2.031 . S
O115 C119 1.269 . S
O116 Zn113 1.986 . S
O116 C123 1.262 . S
O117 Zn112 2.049 . S
O117 C125 1.260 . S
O118 Zn113 1.996 . S
O118 C125 1.257 . S
C119 O114 1.254 . S
C119 O115 1.269 . S
C120 O121 1.249 . S
C120 O122 1.270 . S
O121 Zn113 1.943 . S
O121 C120 1.249 . S
O122 Zn112 2.067 . S
O122 C120 1.270 . S
C123 O116 1.262 . S
C123 O124 1.232 . S
O124 C123 1.232 . S
C125 O117 1.260 . S
C125 O118 1.257 . S
Zn126 O129 2.031 . S
Zn126 O131 2.049 . S
Zn126 O136 2.067 . S
Zn127 O128 1.962 . S
Zn127 O130 1.986 . S
Zn127 O132 1.996 . S
Zn127 O135 1.943 . S
O128 Zn127 1.962 . S
O128 C133 1.254 . S
O129 Zn126 2.031 . S
O129 C133 1.269 . S
O130 Zn127 1.986 . S
O130 C137 1.262 . S
O131 Zn126 2.049 . S
O131 C139 1.260 . S
O132 Zn127 1.996 . S
O132 C139 1.257 . S
C133 O128 1.254 . S
C133 O129 1.269 . S
C134 O135 1.249 . S
C134 O136 1.270 . S
O135 Zn127 1.943 . S
O135 C134 1.249 . S
O136 Zn126 2.067 . S
O136 C134 1.270 . S
C137 O130 1.262 . S
C137 O138 1.232 . S
O138 C137 1.232 . S
C139 O131 1.260 . S
C139 O132 1.257 . S
Zn140 O143 2.031 . S
Zn140 O145 2.049 . S
Zn140 O150 2.067 . S
Zn141 O142 1.962 . S
Zn141 O144 1.986 . S
Zn141 O146 1.996 . S
Zn141 O149 1.943 . S
O142 Zn141 1.962 . S
O142 C147 1.254 . S
O143 Zn140 2.031 . S
O143 C147 1.269 . S
O144 Zn141 1.986 . S
O144 C151 1.262 . S
O145 Zn140 2.049 . S
O145 C153 1.260 . S
O146 Zn141 1.996 . S
O146 C153 1.257 . S
C147 O142 1.254 . S
C147 O143 1.269 . S
C148 O149 1.249 . S
C148 O150 1.270 . S
O149 Zn141 1.943 . S
O149 C148 1.249 . S
O150 Zn140 2.067 . S
O150 C148 1.270 . S
C151 O144 1.262 . S
C151 O152 1.232 . S
O152 C151 1.232 . S
C153 O145 1.260 . S
C153 O146 1.257 . S
Zn154 O157 2.031 . S
Zn154 O159 2.049 . S
Zn154 O164 2.067 . S
Zn155 O156 1.962 . S
Zn155 O158 1.986 . S
Zn155 O160 1.996 . S
Zn155 O163 1.943 . S
O156 Zn155 1.962 . S
O156 C161 1.254 . S
O157 Zn154 2.031 . S
O157 C161 1.269 . S
O158 Zn155 1.986 . S
O158 C165 1.262 . S
O159 Zn154 2.049 . S
O159 C167 1.260 . S
O160 Zn155 1.996 . S
O160 C167 1.257 . S
C161 O156 1.254 . S
C161 O157 1.269 . S
C162 O163 1.249 . S
C162 O164 1.270 . S
O163 Zn155 1.943 . S
O163 C162 1.249 . S
O164 Zn154 2.067 . S
O164 C162 1.270 . S
C165 O158 1.262 . S
C165 O166 1.232 . S
O166 C165 1.232 . S
C167 O159 1.260 . S
C167 O160 1.257 . S
Zn168 O171 2.031 . S
Zn168 O173 2.049 . S
Zn168 O178 2.067 . S
Zn169 O170 1.962 . S
Zn169 O172 1.986 . S
Zn169 O174 1.996 . S
Zn169 O177 1.943 . S
O170 Zn169 1.962 . S
O170 C175 1.254 . S
O171 Zn168 2.031 . S
O171 C175 1.269 . S
O172 Zn169 1.986 . S
O172 C179 1.262 . S
O173 Zn168 2.049 . S
O173 C181 1.260 . S
O174 Zn169 1.996 . S
O174 C181 1.257 . S
C175 O170 1.254 . S
C175 O171 1.269 . S
C176 O177 1.249 . S
C176 O178 1.270 . S
O177 Zn169 1.943 . S
O177 C176 1.249 . S
O178 Zn168 2.067 . S
O178 C176 1.270 . S
C179 O172 1.262 . S
C179 O180 1.232 . S
O180 C179 1.232 . S
C181 O173 1.260 . S
C181 O174 1.257 . S
Zn182 O185 2.031 . S
Zn182 O187 2.049 . S
Zn182 O192 2.067 . S
Zn183 O184 1.962 . S
Zn183 O186 1.986 . S
Zn183 O188 1.996 . S
Zn183 O191 1.943 . S
O184 Zn183 1.962 . S
O184 C189 1.254 . S
O185 Zn182 2.031 . S
O185 C189 1.269 . S
O186 Zn183 1.986 . S
O186 C193 1.262 . S
O187 Zn182 2.049 . S
O187 C195 1.260 . S
O188 Zn183 1.996 . S
O188 C195 1.257 . S
C189 O184 1.254 . S
C189 O185 1.269 . S
C190 O191 1.249 . S
C190 O192 1.270 . S
O191 Zn183 1.943 . S
O191 C190 1.249 . S
O192 Zn182 2.067 . S
O192 C190 1.270 . S
C193 O186 1.262 . S
C193 O194 1.232 . S
O194 C193 1.232 . S
C195 O187 1.260 . S
C195 O188 1.257 . S
Zn196 O199 2.031 . S
Zn196 O201 2.049 . S
Zn196 O206 2.067 . S
Zn197 O198 1.962 . S
Zn197 O200 1.986 . S
Zn197 O202 1.996 . S
Zn197 O205 1.943 . S
O198 Zn197 1.962 . S
O198 C203 1.254 . S
O199 Zn196 2.031 . S
O199 C203 1.269 . S
O200 Zn197 1.986 . S
O200 C207 1.262 . S
O201 Zn196 2.049 . S
O201 C209 1.260 . S
O202 Zn197 1.996 . S
O202 C209 1.257 . S
C203 O198 1.254 . S
C203 O199 1.269 . S
C204 O205 1.249 . S
C204 O206 1.270 . S
O205 Zn197 1.943 . S
O205 C204 1.249 . S
O206 Zn196 2.067 . S
O206 C204 1.270 . S
C207 O200 1.262 . S
C207 O208 1.232 . S
O208 C207 1.232 . S
C209 O201 1.260 . S
C209 O202 1.257 . S
Zn210 O213 2.031 . S
Zn210 O215 2.049 . S
Zn210 O220 2.067 . S
Zn211 O212 1.962 . S
Zn211 O214 1.986 . S
Zn211 O216 1.996 . S
Zn211 O219 1.943 . S
O212 Zn211 1.962 . S
O212 C217 1.254 . S
O213 Zn210 2.031 . S
O213 C217 1.269 . S
O214 Zn211 1.986 . S
O214 C221 1.262 . S
O215 Zn210 2.049 . S
O215 C223 1.260 . S
O216 Zn211 1.996 . S
O216 C223 1.257 . S
C217 O212 1.254 . S
C217 O213 1.269 . S
C218 O219 1.249 . S
C218 O220 1.270 . S
O219 Zn211 1.943 . S
O219 C218 1.249 . S
O220 Zn210 2.067 . S
O220 C218 1.270 . S
C221 O214 1.262 . S
C221 O222 1.232 . S
O222 C221 1.232 . S
C223 O215 1.260 . S
C223 O216 1.257 . S
H224 C232 0.929 . S
H225 C234 0.930 . S
H226 C236 0.930 . S
H227 C239 0.929 . S
H228 C242 0.930 . S
H229 C244 0.960 . S
H230 C244 0.960 . S
H231 C244 0.960 . S
C232 H224 0.929 . S
C232 C233 1.377 . S
C232 C234 1.384 . S
C233 C232 1.377 . S
C233 C239 1.390 . S
C234 H225 0.930 . S
C234 C232 1.384 . S
C234 C235 1.372 . S
C235 C234 1.372 . S
C235 C236 1.400 . S
C235 C240 1.490 . S
C236 H226 0.930 . S
C236 C235 1.400 . S
C236 C239 1.386 . S
H237 C253 0.930 . S
H238 C254 0.931 . S
C239 H227 0.929 . S
C239 C233 1.390 . S
C239 C236 1.386 . S
C240 C235 1.490 . S
C240 C242 1.395 . S
C240 C243 1.403 . S
H241 C247 0.930 . S
C242 H228 0.930 . S
C242 C240 1.395 . S
C242 C245 1.403 . S
C243 C240 1.403 . S
C243 C244 1.524 . S
C243 C247 1.400 . S
C244 H229 0.960 . S
C244 H230 0.960 . S
C244 H231 0.960 . S
C244 C243 1.524 . S
C245 C242 1.403 . S
C245 C246 1.392 . S
C245 C249 1.495 . S
C246 C245 1.392 . S
C246 C247 1.385 . S
C246 C248 1.478 . S
C247 H241 0.930 . S
C247 C243 1.400 . S
C247 C246 1.385 . S
C248 C246 1.478 . S
C248 C250 1.381 . S
C248 C254 1.383 . S
C249 C245 1.495 . S
C249 H255 0.959 . S
C249 H256 0.961 . S
C249 H257 0.960 . S
C250 C248 1.381 . S
C250 C251 1.394 . S
C250 H258 0.930 . S
C251 C250 1.394 . S
C251 C252 1.383 . S
C251 H259 0.929 . S
C252 C251 1.383 . S
C252 C253 1.377 . S
C253 H237 0.930 . S
C253 C252 1.377 . S
C253 C254 1.379 . S
C254 H238 0.931 . S
C254 C248 1.383 . S
C254 C253 1.379 . S
H255 C249 0.959 . S
H256 C249 0.961 . S
H257 C249 0.960 . S
H258 C250 0.930 . S
H259 C251 0.929 . S
H260 C268 0.929 . S
H261 C270 0.930 . S
H262 C272 0.930 . S
H263 C275 0.929 . S
H264 C278 0.930 . S
H265 C280 0.960 . S
H266 C280 0.960 . S
H267 C280 0.960 . S
C268 H260 0.929 . S
C268 C269 1.377 . S
C268 C270 1.384 . S
C269 C268 1.377 . S
C269 C275 1.390 . S
C270 H261 0.930 . S
C270 C268 1.384 . S
C270 C271 1.372 . S
C271 C270 1.372 . S
C271 C272 1.400 . S
C271 C276 1.490 . S
C272 H262 0.930 . S
C272 C271 1.400 . S
C272 C275 1.386 . S
H273 C289 0.930 . S
H274 C290 0.931 . S
C275 H263 0.929 . S
C275 C269 1.390 . S
C275 C272 1.386 . S
C276 C271 1.490 . S
C276 C278 1.395 . S
C276 C279 1.403 . S
H277 C283 0.930 . S
C278 H264 0.930 . S
C278 C276 1.395 . S
C278 C281 1.403 . S
C279 C276 1.403 . S
C279 C280 1.524 . S
C279 C283 1.400 . S
C280 H265 0.960 . S
C280 H266 0.960 . S
C280 H267 0.960 . S
C280 C279 1.524 . S
C281 C278 1.403 . S
C281 C282 1.392 . S
C281 C285 1.495 . S
C282 C281 1.392 . S
C282 C283 1.385 . S
C282 C284 1.478 . S
C283 H277 0.930 . S
C283 C279 1.400 . S
C283 C282 1.385 . S
C284 C282 1.478 . S
C284 C286 1.381 . S
C284 C290 1.383 . S
C285 C281 1.495 . S
C285 H291 0.959 . S
C285 H292 0.961 . S
C285 H293 0.960 . S
C286 C284 1.381 . S
C286 C287 1.394 . S
C286 H294 0.930 . S
C287 C286 1.394 . S
C287 C288 1.383 . S
C287 H295 0.929 . S
C288 C287 1.383 . S
C288 C289 1.377 . S
C289 H273 0.930 . S
C289 C288 1.377 . S
C289 C290 1.379 . S
C290 H274 0.931 . S
C290 C284 1.383 . S
C290 C289 1.379 . S
H291 C285 0.959 . S
H292 C285 0.961 . S
H293 C285 0.960 . S
H294 C286 0.930 . S
H295 C287 0.929 . S
H296 C304 0.929 . S
H297 C306 0.930 . S
H298 C308 0.930 . S
H299 C311 0.929 . S
H300 C314 0.930 . S
H301 C316 0.960 . S
H302 C316 0.960 . S
H303 C316 0.960 . S
C304 H296 0.929 . S
C304 C305 1.377 . S
C304 C306 1.384 . S
C305 C304 1.377 . S
C305 C311 1.390 . S
C306 H297 0.930 . S
C306 C304 1.384 . S
C306 C307 1.372 . S
C307 C306 1.372 . S
C307 C308 1.400 . S
C307 C312 1.490 . S
C308 H298 0.930 . S
C308 C307 1.400 . S
C308 C311 1.386 . S
H309 C325 0.930 . S
H310 C326 0.931 . S
C311 H299 0.929 . S
C311 C305 1.390 . S
C311 C308 1.386 . S
C312 C307 1.490 . S
C312 C314 1.395 . S
C312 C315 1.403 . S
H313 C319 0.930 . S
C314 H300 0.930 . S
C314 C312 1.395 . S
C314 C317 1.403 . S
C315 C312 1.403 . S
C315 C316 1.524 . S
C315 C319 1.400 . S
C316 H301 0.960 . S
C316 H302 0.960 . S
C316 H303 0.960 . S
C316 C315 1.524 . S
C317 C314 1.403 . S
C317 C318 1.392 . S
C317 C321 1.495 . S
C318 C317 1.392 . S
C318 C319 1.385 . S
C318 C320 1.478 . S
C319 H313 0.930 . S
C319 C315 1.400 . S
C319 C318 1.385 . S
C320 C318 1.478 . S
C320 C322 1.381 . S
C320 C326 1.383 . S
C321 C317 1.495 . S
C321 H327 0.959 . S
C321 H328 0.961 . S
C321 H329 0.960 . S
C322 C320 1.381 . S
C322 C323 1.394 . S
C322 H330 0.930 . S
C323 C322 1.394 . S
C323 C324 1.383 . S
C323 H331 0.929 . S
C324 C323 1.383 . S
C324 C325 1.377 . S
C325 H309 0.930 . S
C325 C324 1.377 . S
C325 C326 1.379 . S
C326 H310 0.931 . S
C326 C320 1.383 . S
C326 C325 1.379 . S
H327 C321 0.959 . S
H328 C321 0.961 . S
H329 C321 0.960 . S
H330 C322 0.930 . S
H331 C323 0.929 . S
H332 C340 0.929 . S
H333 C342 0.930 . S
H334 C344 0.930 . S
H335 C347 0.929 . S
H336 C350 0.930 . S
H337 C352 0.960 . S
H338 C352 0.960 . S
H339 C352 0.960 . S
C340 H332 0.929 . S
C340 C341 1.377 . S
C340 C342 1.384 . S
C341 C340 1.377 . S
C341 C347 1.390 . S
C342 H333 0.930 . S
C342 C340 1.384 . S
C342 C343 1.372 . S
C343 C342 1.372 . S
C343 C344 1.400 . S
C343 C348 1.490 . S
C344 H334 0.930 . S
C344 C343 1.400 . S
C344 C347 1.386 . S
H345 C361 0.930 . S
H346 C362 0.931 . S
C347 H335 0.929 . S
C347 C341 1.390 . S
C347 C344 1.386 . S
C348 C343 1.490 . S
C348 C350 1.395 . S
C348 C351 1.403 . S
H349 C355 0.930 . S
C350 H336 0.930 . S
C350 C348 1.395 . S
C350 C353 1.403 . S
C351 C348 1.403 . S
C351 C352 1.524 . S
C351 C355 1.400 . S
C352 H337 0.960 . S
C352 H338 0.960 . S
C352 H339 0.960 . S
C352 C351 1.524 . S
C353 C350 1.403 . S
C353 C354 1.392 . S
C353 C357 1.495 . S
C354 C353 1.392 . S
C354 C355 1.385 . S
C354 C356 1.478 . S
C355 H349 0.930 . S
C355 C351 1.400 . S
C355 C354 1.385 . S
C356 C354 1.478 . S
C356 C358 1.381 . S
C356 C362 1.383 . S
C357 C353 1.495 . S
C357 H363 0.959 . S
C357 H364 0.961 . S
C357 H365 0.960 . S
C358 C356 1.381 . S
C358 C359 1.394 . S
C358 H366 0.930 . S
C359 C358 1.394 . S
C359 C360 1.383 . S
C359 H367 0.929 . S
C360 C359 1.383 . S
C360 C361 1.377 . S
C361 H345 0.930 . S
C361 C360 1.377 . S
C361 C362 1.379 . S
C362 H346 0.931 . S
C362 C356 1.383 . S
C362 C361 1.379 . S
H363 C357 0.959 . S
H364 C357 0.961 . S
H365 C357 0.960 . S
H366 C358 0.930 . S
H367 C359 0.929 . S
H368 C376 0.929 . S
H369 C378 0.930 . S
H370 C380 0.930 . S
H371 C383 0.929 . S
H372 C386 0.930 . S
H373 C388 0.960 . S
H374 C388 0.960 . S
H375 C388 0.960 . S
C376 H368 0.929 . S
C376 C377 1.377 . S
C376 C378 1.384 . S
C377 C376 1.377 . S
C377 C383 1.390 . S
C378 H369 0.930 . S
C378 C376 1.384 . S
C378 C379 1.372 . S
C379 C378 1.372 . S
C379 C380 1.400 . S
C379 C384 1.490 . S
C380 H370 0.930 . S
C380 C379 1.400 . S
C380 C383 1.386 . S
H381 C397 0.930 . S
H382 C398 0.931 . S
C383 H371 0.929 . S
C383 C377 1.390 . S
C383 C380 1.386 . S
C384 C379 1.490 . S
C384 C386 1.395 . S
C384 C387 1.403 . S
H385 C391 0.930 . S
C386 H372 0.930 . S
C386 C384 1.395 . S
C386 C389 1.403 . S
C387 C384 1.403 . S
C387 C388 1.524 . S
C387 C391 1.400 . S
C388 H373 0.960 . S
C388 H374 0.960 . S
C388 H375 0.960 . S
C388 C387 1.524 . S
C389 C386 1.403 . S
C389 C390 1.392 . S
C389 C393 1.495 . S
C390 C389 1.392 . S
C390 C391 1.385 . S
C390 C392 1.478 . S
C391 H385 0.930 . S
C391 C387 1.400 . S
C391 C390 1.385 . S
C392 C390 1.478 . S
C392 C394 1.381 . S
C392 C398 1.383 . S
C393 C389 1.495 . S
C393 H399 0.959 . S
C393 H400 0.961 . S
C393 H401 0.960 . S
C394 C392 1.381 . S
C394 C395 1.394 . S
C394 H402 0.930 . S
C395 C394 1.394 . S
C395 C396 1.383 . S
C395 H403 0.929 . S
C396 C395 1.383 . S
C396 C397 1.377 . S
C397 H381 0.930 . S
C397 C396 1.377 . S
C397 C398 1.379 . S
C398 H382 0.931 . S
C398 C392 1.383 . S
C398 C397 1.379 . S
H399 C393 0.959 . S
H400 C393 0.961 . S
H401 C393 0.960 . S
H402 C394 0.930 . S
H403 C395 0.929 . S
H404 C412 0.929 . S
H405 C414 0.930 . S
H406 C416 0.930 . S
H407 C419 0.929 . S
H408 C422 0.930 . S
H409 C424 0.960 . S
H410 C424 0.960 . S
H411 C424 0.960 . S
C412 H404 0.929 . S
C412 C413 1.377 . S
C412 C414 1.384 . S
C413 C412 1.377 . S
C413 C419 1.390 . S
C414 H405 0.930 . S
C414 C412 1.384 . S
C414 C415 1.372 . S
C415 C414 1.372 . S
C415 C416 1.400 . S
C415 C420 1.490 . S
C416 H406 0.930 . S
C416 C415 1.400 . S
C416 C419 1.386 . S
H417 C433 0.930 . S
H418 C434 0.931 . S
C419 H407 0.929 . S
C419 C413 1.390 . S
C419 C416 1.386 . S
C420 C415 1.490 . S
C420 C422 1.395 . S
C420 C423 1.403 . S
H421 C427 0.930 . S
C422 H408 0.930 . S
C422 C420 1.395 . S
C422 C425 1.403 . S
C423 C420 1.403 . S
C423 C424 1.524 . S
C423 C427 1.400 . S
C424 H409 0.960 . S
C424 H410 0.960 . S
C424 H411 0.960 . S
C424 C423 1.524 . S
C425 C422 1.403 . S
C425 C426 1.392 . S
C425 C429 1.495 . S
C426 C425 1.392 . S
C426 C427 1.385 . S
C426 C428 1.478 . S
C427 H421 0.930 . S
C427 C423 1.400 . S
C427 C426 1.385 . S
C428 C426 1.478 . S
C428 C430 1.381 . S
C428 C434 1.383 . S
C429 C425 1.495 . S
C429 H435 0.959 . S
C429 H436 0.961 . S
C429 H437 0.960 . S
C430 C428 1.381 . S
C430 C431 1.394 . S
C430 H438 0.930 . S
C431 C430 1.394 . S
C431 C432 1.383 . S
C431 H439 0.929 . S
C432 C431 1.383 . S
C432 C433 1.377 . S
C433 H417 0.930 . S
C433 C432 1.377 . S
C433 C434 1.379 . S
C434 H418 0.931 . S
C434 C428 1.383 . S
C434 C433 1.379 . S
H435 C429 0.959 . S
H436 C429 0.961 . S
H437 C429 0.960 . S
H438 C430 0.930 . S
H439 C431 0.929 . S
H440 C448 0.929 . S
H441 C450 0.930 . S
H442 C452 0.930 . S
H443 C455 0.929 . S
H444 C458 0.930 . S
H445 C460 0.960 . S
H446 C460 0.960 . S
H447 C460 0.960 . S
C448 H440 0.929 . S
C448 C449 1.377 . S
C448 C450 1.384 . S
C449 C448 1.377 . S
C449 C455 1.390 . S
C450 H441 0.930 . S
C450 C448 1.384 . S
C450 C451 1.372 . S
C451 C450 1.372 . S
C451 C452 1.400 . S
C451 C456 1.490 . S
C452 H442 0.930 . S
C452 C451 1.400 . S
C452 C455 1.386 . S
H453 C469 0.930 . S
H454 C470 0.931 . S
C455 H443 0.929 . S
C455 C449 1.390 . S
C455 C452 1.386 . S
C456 C451 1.490 . S
C456 C458 1.395 . S
C456 C459 1.403 . S
H457 C463 0.930 . S
C458 H444 0.930 . S
C458 C456 1.395 . S
C458 C461 1.403 . S
C459 C456 1.403 . S
C459 C460 1.524 . S
C459 C463 1.400 . S
C460 H445 0.960 . S
C460 H446 0.960 . S
C460 H447 0.960 . S
C460 C459 1.524 . S
C461 C458 1.403 . S
C461 C462 1.392 . S
C461 C465 1.495 . S
C462 C461 1.392 . S
C462 C463 1.385 . S
C462 C464 1.478 . S
C463 H457 0.930 . S
C463 C459 1.400 . S
C463 C462 1.385 . S
C464 C462 1.478 . S
C464 C466 1.381 . S
C464 C470 1.383 . S
C465 C461 1.495 . S
C465 H471 0.959 . S
C465 H472 0.961 . S
C465 H473 0.960 . S
C466 C464 1.381 . S
C466 C467 1.394 . S
C466 H474 0.930 . S
C467 C466 1.394 . S
C467 C468 1.383 . S
C467 H475 0.929 . S
C468 C467 1.383 . S
C468 C469 1.377 . S
C469 H453 0.930 . S
C469 C468 1.377 . S
C469 C470 1.379 . S
C470 H454 0.931 . S
C470 C464 1.383 . S
C470 C469 1.379 . S
H471 C465 0.959 . S
H472 C465 0.961 . S
H473 C465 0.960 . S
H474 C466 0.930 . S
H475 C467 0.929 . S
H476 C484 0.929 . S
H477 C486 0.930 . S
H478 C488 0.930 . S
H479 C491 0.929 . S
H480 C494 0.930 . S
H481 C496 0.960 . S
H482 C496 0.960 . S
H483 C496 0.960 . S
C484 H476 0.929 . S
C484 C485 1.377 . S
C484 C486 1.384 . S
C485 C484 1.377 . S
C485 C491 1.390 . S
C486 H477 0.930 . S
C486 C484 1.384 . S
C486 C487 1.372 . S
C487 C486 1.372 . S
C487 C488 1.400 . S
C487 C492 1.490 . S
C488 H478 0.930 . S
C488 C487 1.400 . S
C488 C491 1.386 . S
H489 C505 0.930 . S
H490 C506 0.931 . S
C491 H479 0.929 . S
C491 C485 1.390 . S
C491 C488 1.386 . S
C492 C487 1.490 . S
C492 C494 1.395 . S
C492 C495 1.403 . S
H493 C499 0.930 . S
C494 H480 0.930 . S
C494 C492 1.395 . S
C494 C497 1.403 . S
C495 C492 1.403 . S
C495 C496 1.524 . S
C495 C499 1.400 . S
C496 H481 0.960 . S
C496 H482 0.960 . S
C496 H483 0.960 . S
C496 C495 1.524 . S
C497 C494 1.403 . S
C497 C498 1.392 . S
C497 C501 1.495 . S
C498 C497 1.392 . S
C498 C499 1.385 . S
C498 C500 1.478 . S
C499 H493 0.930 . S
C499 C495 1.400 . S
C499 C498 1.385 . S
C500 C498 1.478 . S
C500 C502 1.381 . S
C500 C506 1.383 . S
C501 C497 1.495 . S
C501 H507 0.959 . S
C501 H508 0.961 . S
C501 H509 0.960 . S
C502 C500 1.381 . S
C502 C503 1.394 . S
C502 H510 0.930 . S
C503 C502 1.394 . S
C503 C504 1.383 . S
C503 H511 0.929 . S
C504 C503 1.383 . S
C504 C505 1.377 . S
C505 H489 0.930 . S
C505 C504 1.377 . S
C505 C506 1.379 . S
C506 H490 0.931 . S
C506 C500 1.383 . S
C506 C505 1.379 . S
H507 C501 0.959 . S
H508 C501 0.961 . S
H509 C501 0.960 . S
H510 C502 0.930 . S
H511 C503 0.929 . S
H512 C520 0.929 . S
H513 C522 0.930 . S
H514 C524 0.930 . S
H515 C527 0.929 . S
H516 C530 0.930 . S
H517 C532 0.975 . S
H518 C532 0.958 1_565 S
H519 C532 0.949 1_565 S
C520 H512 0.929 . S
C520 C521 1.377 . S
C520 C522 1.384 . S
C521 C520 1.377 . S
C521 C527 1.390 . S
C522 H513 0.930 . S
C522 C520 1.384 . S
C522 C523 1.372 . S
C523 C522 1.372 . S
C523 C524 1.400 . S
C523 C528 1.490 . S
C524 H514 0.930 . S
C524 C523 1.400 . S
C524 C527 1.386 . S
H525 C541 0.930 . S
H526 C542 0.931 . S
C527 H515 0.929 . S
C527 C521 1.390 . S
C527 C524 1.386 . S
C528 C523 1.490 . S
C528 C530 1.395 . S
C528 C531 1.403 . S
H529 C535 0.930 . S
C530 H516 0.930 . S
C530 C528 1.395 . S
C530 C533 1.403 . S
C531 C528 1.403 . S
C531 C532 1.522 1_565 S
C531 C535 1.400 1_565 S
C532 H517 0.975 . S
C532 H518 0.958 1_545 S
C532 H519 0.949 1_545 S
C532 C531 1.522 1_545 S
C533 C530 1.403 . S
C533 C534 1.392 1_565 S
C533 C537 1.495 . S
C534 C533 1.392 1_545 S
C534 C535 1.385 . S
C534 C536 1.478 . S
C535 H529 0.930 . S
C535 C531 1.400 1_545 S
C535 C534 1.385 . S
C536 C534 1.478 . S
C536 C538 1.381 . S
C536 C542 1.383 . S
C537 C533 1.495 . S
C537 H543 0.959 . S
C537 H544 0.961 . S
C537 H545 0.960 1_565 S
C538 C536 1.381 . S
C538 C539 1.394 . S
C538 H546 0.930 . S
C539 C538 1.394 . S
C539 C540 1.383 . S
C539 H547 0.929 . S
C540 C539 1.383 . S
C540 C541 1.377 . S
C541 H525 0.930 . S
C541 C540 1.377 . S
C541 C542 1.379 . S
C542 H526 0.931 . S
C542 C536 1.383 . S
C542 C541 1.379 . S
H543 C537 0.959 . S
H544 C537 0.961 . S
H545 C537 0.960 1_545 S
H546 C538 0.930 . S
H547 C539 0.929 . S
H548 C556 0.929 . S
H549 C558 0.930 . S
H550 C560 0.930 . S
H551 C563 0.929 . S
H552 C566 0.930 . S
H553 C568 0.960 . S
H554 C568 0.960 . S
H555 C568 0.960 . S
C556 H548 0.929 . S
C556 C557 1.377 . S
C556 C558 1.384 . S
C557 C556 1.377 . S
C557 C563 1.390 . S
C558 H549 0.930 . S
C558 C556 1.384 . S
C558 C559 1.372 . S
C559 C558 1.372 . S
C559 C560 1.400 . S
C559 C564 1.490 . S
C560 H550 0.930 . S
C560 C559 1.400 . S
C560 C563 1.386 . S
H561 C577 0.930 . S
H562 C578 0.931 . S
C563 H551 0.929 . S
C563 C557 1.390 . S
C563 C560 1.386 . S
C564 C559 1.490 . S
C564 C566 1.395 . S
C564 C567 1.403 . S
H565 C571 0.930 . S
C566 H552 0.930 . S
C566 C564 1.395 . S
C566 C569 1.403 . S
C567 C564 1.403 . S
C567 C568 1.524 . S
C567 C571 1.400 . S
C568 H553 0.960 . S
C568 H554 0.960 . S
C568 H555 0.960 . S
C568 C567 1.524 . S
C569 C566 1.403 . S
C569 C570 1.392 . S
C569 C573 1.495 . S
C570 C569 1.392 . S
C570 C571 1.385 . S
C570 C572 1.478 . S
C571 H565 0.930 . S
C571 C567 1.400 . S
C571 C570 1.385 . S
C572 C570 1.478 . S
C572 C574 1.381 . S
C572 C578 1.383 . S
C573 C569 1.495 . S
C573 H579 0.959 . S
C573 H580 0.961 . S
C573 H581 0.960 . S
C574 C572 1.381 . S
C574 C575 1.394 . S
C574 H582 0.930 . S
C575 C574 1.394 . S
C575 C576 1.383 . S
C575 H583 0.929 . S
C576 C575 1.383 . S
C576 C577 1.377 . S
C577 H561 0.930 . S
C577 C576 1.377 . S
C577 C578 1.379 . S
C578 H562 0.931 . S
C578 C572 1.383 . S
C578 C577 1.379 . S
H579 C573 0.959 . S
H580 C573 0.961 . S
H581 C573 0.960 . S
H582 C574 0.930 . S
H583 C575 0.929 . S
H584 C592 0.929 . S
H585 C594 0.930 . S
H586 C596 0.930 . S
H587 C599 0.929 . S
H588 C602 0.930 . S
H589 C604 0.960 . S
H590 C604 0.960 . S
H591 C604 0.960 . S
C592 H584 0.929 . S
C592 C593 1.377 . S
C592 C594 1.384 . S
C593 C592 1.377 . S
C593 C599 1.390 . S
C594 H585 0.930 . S
C594 C592 1.384 . S
C594 C595 1.372 . S
C595 C594 1.372 . S
C595 C596 1.400 . S
C595 C600 1.490 . S
C596 H586 0.930 . S
C596 C595 1.400 . S
C596 C599 1.386 . S
H597 C613 0.930 . S
H598 C614 0.931 . S
C599 H587 0.929 . S
C599 C593 1.390 . S
C599 C596 1.386 . S
C600 C595 1.490 . S
C600 C602 1.395 . S
C600 C603 1.403 . S
H601 C607 0.930 . S
C602 H588 0.930 . S
C602 C600 1.395 . S
C602 C605 1.403 . S
C603 C600 1.403 . S
C603 C604 1.524 . S
C603 C607 1.400 1_556 S
C604 H589 0.960 . S
C604 H590 0.960 . S
C604 H591 0.960 . S
C604 C603 1.524 . S
C605 C602 1.403 . S
C605 C606 1.392 1_556 S
C605 C609 1.495 1_556 S
C606 C605 1.392 1_554 S
C606 C607 1.385 . S
C606 C608 1.478 . S
C607 H601 0.930 . S
C607 C603 1.400 1_554 S
C607 C606 1.385 . S
C608 C606 1.478 . S
C608 C610 1.381 . S
C608 C614 1.383 . S
C609 C605 1.495 1_554 S
C609 H615 0.959 1_554 S
C609 H616 0.961 . S
C609 H617 0.960 . S
C610 C608 1.381 . S
C610 C611 1.394 . S
C610 H618 0.930 . S
C611 C610 1.394 . S
C611 C612 1.383 . S
C611 H619 0.929 . S
C612 C611 1.383 . S
C612 C613 1.377 . S
C613 H597 0.930 . S
C613 C612 1.377 . S
C613 C614 1.379 . S
C614 H598 0.931 . S
C614 C608 1.383 . S
C614 C613 1.379 . S
H615 C609 0.959 1_556 S
H616 C609 0.961 . S
H617 C609 0.960 . S
H618 C610 0.930 . S
H619 C611 0.929 . S
H620 C628 0.929 . S
H621 C630 0.930 . S
H622 C632 0.930 . S
H623 C635 0.929 . S
H624 C638 0.930 . S
H625 C640 0.960 . S
H626 C640 0.960 . S
H627 C640 0.960 . S
C628 H620 0.929 . S
C628 C629 1.377 . S
C628 C630 1.384 . S
C629 C628 1.377 . S
C629 C635 1.390 . S
C630 H621 0.930 . S
C630 C628 1.384 . S
C630 C631 1.372 . S
C631 C630 1.372 . S
C631 C632 1.400 . S
C631 C636 1.490 . S
C632 H622 0.930 . S
C632 C631 1.400 . S
C632 C635 1.386 . S
H633 C649 0.930 . S
H634 C650 0.931 . S
C635 H623 0.929 . S
C635 C629 1.390 . S
C635 C632 1.386 . S
C636 C631 1.490 . S
C636 C638 1.395 . S
C636 C639 1.403 1_554 S
H637 C643 0.930 . S
C638 H624 0.930 . S
C638 C636 1.395 . S
C638 C641 1.403 1_554 S
C639 C636 1.403 1_556 S
C639 C640 1.524 . S
C639 C643 1.400 . S
C640 H625 0.960 . S
C640 H626 0.960 . S
C640 H627 0.960 . S
C640 C639 1.524 . S
C641 C638 1.403 1_556 S
C641 C642 1.392 . S
C641 C645 1.495 . S
C642 C641 1.392 . S
C642 C643 1.385 . S
C642 C644 1.478 . S
C643 H637 0.930 . S
C643 C639 1.400 . S
C643 C642 1.385 . S
C644 C642 1.478 . S
C644 C646 1.381 . S
C644 C650 1.383 . S
C645 C641 1.495 . S
C645 H651 0.959 1_556 S
C645 H652 0.961 . S
C645 H653 0.960 . S
C646 C644 1.381 . S
C646 C647 1.394 . S
C646 H654 0.930 . S
C647 C646 1.394 . S
C647 C648 1.383 . S
C647 H655 0.929 . S
C648 C647 1.383 . S
C648 C649 1.377 . S
C649 H633 0.930 . S
C649 C648 1.377 . S
C649 C650 1.379 . S
C650 H634 0.931 . S
C650 C644 1.383 . S
C650 C649 1.379 . S
H651 C645 0.959 1_554 S
H652 C645 0.961 . S
H653 C645 0.960 . S
H654 C646 0.930 . S
H655 C647 0.929 . S
H656 C664 0.929 . S
H657 C666 0.930 . S
H658 C668 0.930 . S
H659 C671 0.929 . S
H660 C674 0.930 . S
H661 C676 0.960 . S
H662 C676 0.960 . S
H663 C676 0.960 . S
C664 H656 0.929 . S
C664 C665 1.377 . S
C664 C666 1.384 . S
C665 C664 1.377 . S
C665 C671 1.390 . S
C666 H657 0.930 . S
C666 C664 1.384 . S
C666 C667 1.372 . S
C667 C666 1.372 . S
C667 C668 1.400 . S
C667 C672 1.490 . S
C668 H658 0.930 . S
C668 C667 1.400 . S
C668 C671 1.386 . S
H669 C685 0.930 . S
H670 C686 0.931 . S
C671 H659 0.929 . S
C671 C665 1.390 . S
C671 C668 1.386 . S
C672 C667 1.490 . S
C672 C674 1.395 . S
C672 C675 1.403 . S
H673 C679 0.930 . S
C674 H660 0.930 . S
C674 C672 1.395 . S
C674 C677 1.403 . S
C675 C672 1.403 . S
C675 C676 1.524 . S
C675 C679 1.400 . S
C676 H661 0.960 . S
C676 H662 0.960 . S
C676 H663 0.960 . S
C676 C675 1.524 . S
C677 C674 1.403 . S
C677 C678 1.392 . S
C677 C681 1.495 . S
C678 C677 1.392 . S
C678 C679 1.385 . S
C678 C680 1.478 . S
C679 H673 0.930 . S
C679 C675 1.400 . S
C679 C678 1.385 . S
C680 C678 1.478 . S
C680 C682 1.381 . S
C680 C686 1.383 . S
C681 C677 1.495 . S
C681 H687 0.959 . S
C681 H688 0.961 . S
C681 H689 0.960 . S
C682 C680 1.381 . S
C682 C683 1.394 . S
C682 H690 0.930 . S
C683 C682 1.394 . S
C683 C684 1.383 . S
C683 H691 0.929 . S
C684 C683 1.383 . S
C684 C685 1.377 . S
C685 H669 0.930 . S
C685 C684 1.377 . S
C685 C686 1.379 . S
C686 H670 0.931 . S
C686 C680 1.383 . S
C686 C685 1.379 . S
H687 C681 0.959 . S
H688 C681 0.961 . S
H689 C681 0.960 . S
H690 C682 0.930 . S
H691 C683 0.929 . S
H692 C700 0.929 . S
H693 C702 0.930 . S
H694 C704 0.930 . S
H695 C707 0.929 . S
H696 C710 0.930 . S
H697 C712 0.960 . S
H698 C712 0.960 . S
H699 C712 0.960 . S
C700 H692 0.929 . S
C700 C701 1.377 . S
C700 C702 1.384 . S
C701 C700 1.377 . S
C701 C707 1.390 . S
C702 H693 0.930 . S
C702 C700 1.384 . S
C702 C703 1.372 . S
C703 C702 1.372 . S
C703 C704 1.400 . S
C703 C708 1.490 . S
C704 H694 0.930 . S
C704 C703 1.400 . S
C704 C707 1.386 . S
H705 C721 0.930 . S
H706 C722 0.931 . S
C707 H695 0.929 . S
C707 C701 1.390 . S
C707 C704 1.386 . S
C708 C703 1.490 . S
C708 C710 1.395 . S
C708 C711 1.403 . S
H709 C715 0.930 . S
C710 H696 0.930 . S
C710 C708 1.395 . S
C710 C713 1.403 . S
C711 C708 1.403 . S
C711 C712 1.524 . S
C711 C715 1.400 . S
C712 H697 0.960 . S
C712 H698 0.960 . S
C712 H699 0.960 . S
C712 C711 1.524 . S
C713 C710 1.403 . S
C713 C714 1.392 . S
C713 C717 1.495 . S
C714 C713 1.392 . S
C714 C715 1.385 . S
C714 C716 1.478 . S
C715 H709 0.930 . S
C715 C711 1.400 . S
C715 C714 1.385 . S
C716 C714 1.478 . S
C716 C718 1.381 . S
C716 C722 1.383 . S
C717 C713 1.495 . S
C717 H723 0.959 . S
C717 H724 0.961 . S
C717 H725 0.960 . S
C718 C716 1.381 . S
C718 C719 1.394 . S
C718 H726 0.930 . S
C719 C718 1.394 . S
C719 C720 1.383 . S
C719 H727 0.929 . S
C720 C719 1.383 . S
C720 C721 1.377 . S
C721 H705 0.930 . S
C721 C720 1.377 . S
C721 C722 1.379 . S
C722 H706 0.931 . S
C722 C716 1.383 . S
C722 C721 1.379 . S
H723 C717 0.959 . S
H724 C717 0.961 . S
H725 C717 0.960 . S
H726 C718 0.930 . S
H727 C719 0.929 . S
H728 C736 0.929 . S
H729 C738 0.930 . S
H730 C740 0.930 . S
H731 C743 0.929 . S
H732 C746 0.930 . S
H733 C748 0.960 . S
H734 C748 0.960 . S
H735 C748 0.960 . S
C736 H728 0.929 . S
C736 C737 1.377 . S
C736 C738 1.384 . S
C737 C736 1.377 . S
C737 C743 1.390 . S
C738 H729 0.930 . S
C738 C736 1.384 . S
C738 C739 1.372 . S
C739 C738 1.372 . S
C739 C740 1.400 . S
C739 C744 1.490 . S
C740 H730 0.930 . S
C740 C739 1.400 . S
C740 C743 1.386 . S
H741 C757 0.930 . S
H742 C758 0.931 . S
C743 H731 0.929 . S
C743 C737 1.390 . S
C743 C740 1.386 . S
C744 C739 1.490 . S
C744 C746 1.395 . S
C744 C747 1.403 . S
H745 C751 0.930 . S
C746 H732 0.930 . S
C746 C744 1.395 . S
C746 C749 1.403 1_655 S
C747 C744 1.403 . S
C747 C748 1.524 . S
C747 C751 1.400 1_655 S
C748 H733 0.960 . S
C748 H734 0.960 . S
C748 H735 0.960 . S
C748 C747 1.524 . S
C749 C746 1.403 1_455 S
C749 C750 1.392 . S
C749 C753 1.495 . S
C750 C749 1.392 . S
C750 C751 1.385 . S
C750 C752 1.478 . S
C751 H745 0.930 . S
C751 C747 1.400 1_455 S
C751 C750 1.385 . S
C752 C750 1.478 . S
C752 C754 1.381 . S
C752 C758 1.383 . S
C753 C749 1.495 . S
C753 H759 0.959 . S
C753 H760 0.961 . S
C753 H761 0.960 . S
C754 C752 1.381 . S
C754 C755 1.394 . S
C754 H762 0.930 . S
C755 C754 1.394 . S
C755 C756 1.383 . S
C755 H763 0.929 . S
C756 C755 1.383 . S
C756 C757 1.377 . S
C757 H741 0.930 . S
C757 C756 1.377 . S
C757 C758 1.379 . S
C758 H742 0.931 . S
C758 C752 1.383 . S
C758 C757 1.379 . S
H759 C753 0.959 . S
H760 C753 0.961 . S
H761 C753 0.960 . S
H762 C754 0.930 . S
H763 C755 0.929 . S
H764 C772 0.929 . S
H765 C774 0.930 . S
H766 C776 0.930 . S
H767 C779 0.929 . S
H768 C782 0.930 . S
H769 C784 0.929 1_455 S
H770 C784 0.970 . S
H771 C784 0.977 . S
C772 H764 0.929 . S
C772 C773 1.377 . S
C772 C774 1.384 . S
C773 C772 1.377 . S
C773 C779 1.390 . S
C774 H765 0.930 . S
C774 C772 1.384 . S
C774 C775 1.372 . S
C775 C774 1.372 . S
C775 C776 1.400 . S
C775 C780 1.490 . S
C776 H766 0.930 . S
C776 C775 1.400 . S
C776 C779 1.386 . S
H777 C793 0.930 . S
H778 C794 0.931 . S
C779 H767 0.929 . S
C779 C773 1.390 . S
C779 C776 1.386 . S
C780 C775 1.490 . S
C780 C782 1.395 . S
C780 C783 1.403 . S
H781 C787 0.930 . S
C782 H768 0.930 . S
C782 C780 1.395 . S
C782 C785 1.403 . S
C783 C780 1.403 . S
C783 C784 1.530 . S
C783 C787 1.400 1_655 S
C784 H769 0.929 1_655 S
C784 H770 0.970 . S
C784 H771 0.977 . S
C784 C783 1.530 . S
C785 C782 1.403 . S
C785 C786 1.392 1_655 S
C785 C789 1.495 . S
C786 C785 1.392 1_455 S
C786 C787 1.385 . S
C786 C788 1.478 . S
C787 H781 0.930 . S
C787 C783 1.400 1_455 S
C787 C786 1.385 . S
C788 C786 1.478 . S
C788 C790 1.381 . S
C788 C794 1.383 . S
C789 C785 1.495 . S
C789 H795 0.959 . S
C789 H796 0.961 . S
C789 H797 0.960 . S
C790 C788 1.381 . S
C790 C791 1.394 . S
C790 H798 0.930 . S
C791 C790 1.394 . S
C791 C792 1.383 . S
C791 H799 0.929 . S
C792 C791 1.383 . S
C792 C793 1.377 . S
C793 H777 0.930 . S
C793 C792 1.377 . S
C793 C794 1.379 . S
C794 H778 0.931 . S
C794 C788 1.383 . S
C794 C793 1.379 . S
H795 C789 0.959 . S
H796 C789 0.961 . S
H797 C789 0.960 . S
H798 C790 0.930 . S
H799 C791 0.929 . S
H800 C808 0.929 . S
H801 C810 0.930 . S
H802 C812 0.930 . S
H803 C815 0.929 . S
H804 C818 0.930 . S
H805 C820 0.960 . S
H806 C820 0.960 . S
H807 C820 0.960 . S
C808 H800 0.929 . S
C808 C809 1.377 . S
C808 C810 1.384 . S
C809 C808 1.377 . S
C809 C815 1.390 . S
C810 H801 0.930 . S
C810 C808 1.384 . S
C810 C811 1.372 . S
C811 C810 1.372 . S
C811 C812 1.400 . S
C811 C816 1.490 . S
C812 H802 0.930 . S
C812 C811 1.400 . S
C812 C815 1.386 . S
H813 C829 0.930 . S
H814 C830 0.931 . S
C815 H803 0.929 . S
C815 C809 1.390 . S
C815 C812 1.386 . S
C816 C811 1.490 . S
C816 C818 1.395 . S
C816 C819 1.403 . S
H817 C823 0.930 . S
C818 H804 0.930 . S
C818 C816 1.395 . S
C818 C821 1.403 . S
C819 C816 1.403 . S
C819 C820 1.524 . S
C819 C823 1.400 . S
C820 H805 0.960 . S
C820 H806 0.960 . S
C820 H807 0.960 . S
C820 C819 1.524 . S
C821 C818 1.403 . S
C821 C822 1.392 . S
C821 C825 1.495 . S
C822 C821 1.392 . S
C822 C823 1.385 . S
C822 C824 1.478 . S
C823 H817 0.930 . S
C823 C819 1.400 . S
C823 C822 1.385 . S
C824 C822 1.478 . S
C824 C826 1.381 . S
C824 C830 1.383 . S
C825 C821 1.495 . S
C825 H831 0.959 . S
C825 H832 0.961 . S
C825 H833 0.960 . S
C826 C824 1.381 . S
C826 C827 1.394 . S
C826 H834 0.930 . S
C827 C826 1.394 . S
C827 C828 1.383 . S
C827 H835 0.929 . S
C828 C827 1.383 . S
C828 C829 1.377 . S
C829 H813 0.930 . S
C829 C828 1.377 . S
C829 C830 1.379 . S
C830 H814 0.931 . S
C830 C824 1.383 . S
C830 C829 1.379 . S
H831 C825 0.959 . S
H832 C825 0.961 . S
H833 C825 0.960 . S
H834 C826 0.930 . S
H835 C827 0.929 . S
H836 C844 0.929 . S
H837 C846 0.930 . S
H838 C848 0.930 . S
H839 C851 0.929 . S
H840 C854 0.930 . S
H841 C856 0.960 1_565 S
H842 C856 0.960 . S
H843 C856 0.960 . S
C844 H836 0.929 . S
C844 C845 1.377 . S
C844 C846 1.384 . S
C845 C844 1.377 . S
C845 C851 1.390 . S
C846 H837 0.930 . S
C846 C844 1.384 . S
C846 C847 1.372 . S
C847 C846 1.372 . S
C847 C848 1.400 . S
C847 C852 1.490 . S
C848 H838 0.930 . S
C848 C847 1.400 . S
C848 C851 1.386 . S
H849 C865 0.930 . S
H850 C866 0.931 . S
C851 H839 0.929 . S
C851 C845 1.390 . S
C851 C848 1.386 . S
C852 C847 1.490 . S
C852 C854 1.395 . S
C852 C855 1.403 . S
H853 C859 0.930 . S
C854 H840 0.930 . S
C854 C852 1.395 . S
C854 C857 1.403 . S
C855 C852 1.403 . S
C855 C856 1.524 . S
C855 C859 1.400 1_545 S
C856 H841 0.960 1_545 S
C856 H842 0.960 . S
C856 H843 0.960 . S
C856 C855 1.524 . S
C857 C854 1.403 . S
C857 C858 1.392 1_545 S
C857 C861 1.492 1_545 S
C858 C857 1.392 1_565 S
C858 C859 1.385 . S
C858 C860 1.478 . S
C859 H853 0.930 . S
C859 C855 1.400 1_565 S
C859 C858 1.385 . S
C860 C858 1.478 . S
C860 C862 1.381 . S
C860 C866 1.383 . S
C861 C857 1.492 1_565 S
C861 H867 0.928 1_565 S
C861 H868 0.994 . S
C861 H869 0.962 . S
C862 C860 1.381 . S
C862 C863 1.394 . S
C862 H870 0.930 . S
C863 C862 1.394 . S
C863 C864 1.383 . S
C863 H871 0.929 . S
C864 C863 1.383 . S
C864 C865 1.377 . S
C865 H849 0.930 . S
C865 C864 1.377 . S
C865 C866 1.379 . S
C866 H850 0.931 . S
C866 C860 1.383 . S
C866 C865 1.379 . S
H867 C861 0.928 1_545 S
H868 C861 0.994 . S
H869 C861 0.962 . S
H870 C862 0.930 . S
H871 C863 0.929 . S
H872 C880 0.929 . S
H873 C882 0.930 . S
H874 C884 0.930 . S
H875 C887 0.929 . S
H876 C890 0.930 . S
H877 C892 0.960 . S
H878 C892 0.960 . S
H879 C892 0.960 . S
C880 H872 0.929 . S
C880 C881 1.377 . S
C880 C882 1.384 . S
C881 C880 1.377 . S
C881 C887 1.390 . S
C882 H873 0.930 . S
C882 C880 1.384 . S
C882 C883 1.372 . S
C883 C882 1.372 . S
C883 C884 1.400 . S
C883 C888 1.490 . S
C884 H874 0.930 . S
C884 C883 1.400 . S
C884 C887 1.386 . S
H885 C901 0.930 . S
H886 C902 0.931 . S
C887 H875 0.929 . S
C887 C881 1.390 . S
C887 C884 1.386 . S
C888 C883 1.490 . S
C888 C890 1.395 . S
C888 C891 1.403 . S
H889 C895 0.930 . S
C890 H876 0.930 . S
C890 C888 1.395 . S
C890 C893 1.403 . S
C891 C888 1.403 . S
C891 C892 1.524 . S
C891 C895 1.400 . S
C892 H877 0.960 . S
C892 H878 0.960 . S
C892 H879 0.960 . S
C892 C891 1.524 . S
C893 C890 1.403 . S
C893 C894 1.392 . S
C893 C897 1.495 . S
C894 C893 1.392 . S
C894 C895 1.385 . S
C894 C896 1.478 . S
C895 H889 0.930 . S
C895 C891 1.400 . S
C895 C894 1.385 . S
C896 C894 1.478 . S
C896 C898 1.381 . S
C896 C902 1.383 . S
C897 C893 1.495 . S
C897 H903 0.959 . S
C897 H904 0.961 . S
C897 H905 0.960 . S
C898 C896 1.381 . S
C898 C899 1.394 . S
C898 H906 0.930 . S
C899 C898 1.394 . S
C899 C900 1.383 . S
C899 H907 0.929 . S
C900 C899 1.383 . S
C900 C901 1.377 . S
C901 H885 0.930 . S
C901 C900 1.377 . S
C901 C902 1.379 . S
C902 H886 0.931 . S
C902 C896 1.383 . S
C902 C901 1.379 . S
H903 C897 0.959 . S
H904 C897 0.961 . S
H905 C897 0.960 . S
H906 C898 0.930 . S
H907 C899 0.929 . S
H908 C916 0.929 . S
H909 C918 0.930 . S
H910 C920 0.930 . S
H911 C923 0.929 . S
H912 C926 0.930 . S
H913 C928 0.960 1_556 S
H914 C928 0.960 . S
H915 C928 0.960 . S
C916 H908 0.929 . S
C916 C917 1.377 . S
C916 C918 1.384 . S
C917 C916 1.377 . S
C917 C923 1.390 . S
C918 H909 0.930 . S
C918 C916 1.384 . S
C918 C919 1.372 . S
C919 C918 1.372 . S
C919 C920 1.400 . S
C919 C924 1.490 . S
C920 H910 0.930 . S
C920 C919 1.400 . S
C920 C923 1.386 . S
H921 C937 0.930 . S
H922 C938 0.931 . S
C923 H911 0.929 . S
C923 C917 1.390 . S
C923 C920 1.386 . S
C924 C919 1.490 . S
C924 C926 1.395 . S
C924 C927 1.403 . S
H925 C931 0.930 . S
C926 H912 0.930 . S
C926 C924 1.395 . S
C926 C929 1.403 . S
C927 C924 1.403 . S
C927 C928 1.524 . S
C927 C931 1.400 1_554 S
C928 H913 0.960 1_554 S
C928 H914 0.960 . S
C928 H915 0.960 . S
C928 C927 1.524 . S
C929 C926 1.403 . S
C929 C930 1.392 1_554 S
C929 C933 1.495 . S
C930 C929 1.392 1_556 S
C930 C931 1.385 . S
C930 C932 1.478 . S
C931 H925 0.930 . S
C931 C927 1.400 1_556 S
C931 C930 1.385 . S
C932 C930 1.478 . S
C932 C934 1.381 . S
C932 C938 1.383 . S
C933 C929 1.495 . S
C933 H939 0.959 . S
C933 H940 0.961 . S
C933 H941 0.960 1_554 S
C934 C932 1.381 . S
C934 C935 1.394 . S
C934 H942 0.930 . S
C935 C934 1.394 . S
C935 C936 1.383 . S
C935 H943 0.929 . S
C936 C935 1.383 . S
C936 C937 1.377 . S
C937 H921 0.930 . S
C937 C936 1.377 . S
C937 C938 1.379 . S
C938 H922 0.931 . S
C938 C932 1.383 . S
C938 C937 1.379 . S
H939 C933 0.959 . S
H940 C933 0.961 . S
H941 C933 0.960 1_556 S
H942 C934 0.930 . S
H943 C935 0.929 . S
H944 C952 0.929 . S
H945 C954 0.930 . S
H946 C956 0.930 . S
H947 C959 0.929 . S
H948 C962 0.930 . S
H949 C964 0.960 . S
H950 C964 0.960 . S
H951 C964 0.960 . S
C952 H944 0.929 . S
C952 C953 1.377 . S
C952 C954 1.384 . S
C953 C952 1.377 . S
C953 C959 1.390 . S
C954 H945 0.930 . S
C954 C952 1.384 . S
C954 C955 1.372 . S
C955 C954 1.372 . S
C955 C956 1.400 . S
C955 C960 1.490 . S
C956 H946 0.930 . S
C956 C955 1.400 . S
C956 C959 1.386 . S
H957 C973 0.930 . S
H958 C974 0.931 . S
C959 H947 0.929 . S
C959 C953 1.390 . S
C959 C956 1.386 . S
C960 C955 1.490 . S
C960 C962 1.395 . S
C960 C963 1.403 1_556 S
H961 C967 0.930 . S
C962 H948 0.930 . S
C962 C960 1.395 . S
C962 C965 1.403 1_556 S
C963 C960 1.403 1_554 S
C963 C964 1.524 . S
C963 C967 1.400 . S
C964 H949 0.960 . S
C964 H950 0.960 . S
C964 H951 0.960 . S
C964 C963 1.524 . S
C965 C962 1.403 1_554 S
C965 C966 1.392 . S
C965 C969 1.495 . S
C966 C965 1.392 . S
C966 C967 1.385 . S
C966 C968 1.478 . S
C967 H961 0.930 . S
C967 C963 1.400 . S
C967 C966 1.385 . S
C968 C966 1.478 . S
C968 C970 1.381 . S
C968 C974 1.383 . S
C969 C965 1.495 . S
C969 H975 0.959 1_554 S
C969 H976 0.961 . S
C969 H977 0.960 . S
C970 C968 1.381 . S
C970 C971 1.394 . S
C970 H978 0.930 . S
C971 C970 1.394 . S
C971 C972 1.383 . S
C971 H979 0.929 . S
C972 C971 1.383 . S
C972 C973 1.377 . S
C973 H957 0.930 . S
C973 C972 1.377 . S
C973 C974 1.379 . S
C974 H958 0.931 . S
C974 C968 1.383 . S
C974 C973 1.379 . S
H975 C969 0.959 1_556 S
H976 C969 0.961 . S
H977 C969 0.960 . S
H978 C970 0.930 . S
H979 C971 0.929 . S
H980 C988 0.929 . S
H981 C990 0.930 . S
H982 C992 0.930 . S
H983 C995 0.929 . S
H984 C998 0.930 . S
H985 C1000 0.960 . S
H986 C1000 0.960 . S
H987 C1000 0.960 . S
C988 H980 0.929 . S
C988 C989 1.377 . S
C988 C990 1.384 . S
C989 C988 1.377 . S
C989 C995 1.390 . S
C990 H981 0.930 . S
C990 C988 1.384 . S
C990 C991 1.372 . S
C991 C990 1.372 . S
C991 C992 1.400 . S
C991 C996 1.490 . S
C992 H982 0.930 . S
C992 C991 1.400 . S
C992 C995 1.386 . S
H993 C1009 0.930 . S
H994 C1010 0.931 . S
C995 H983 0.929 . S
C995 C989 1.390 . S
C995 C992 1.386 . S
C996 C991 1.490 . S
C996 C998 1.395 . S
C996 C999 1.403 . S
H997 C1003 0.930 . S
C998 H984 0.930 . S
C998 C996 1.395 . S
C998 C1001 1.403 . S
C999 C996 1.403 . S
C999 C1000 1.524 . S
C999 C1003 1.400 . S
C1000 H985 0.960 . S
C1000 H986 0.960 . S
C1000 H987 0.960 . S
C1000 C999 1.524 . S
C1001 C998 1.403 . S
C1001 C1002 1.392 . S
C1001 C1005 1.495 . S
C1002 C1001 1.392 . S
C1002 C1003 1.385 . S
C1002 C1004 1.478 . S
C1003 H997 0.930 . S
C1003 C999 1.400 . S
C1003 C1002 1.385 . S
C1004 C1002 1.478 . S
C1004 C1006 1.381 . S
C1004 C1010 1.383 . S
C1005 C1001 1.495 . S
C1005 H1011 0.959 . S
C1005 H1012 0.961 . S
C1005 H1013 0.960 . S
C1006 C1004 1.381 . S
C1006 C1007 1.394 . S
C1006 H1014 0.930 . S
C1007 C1006 1.394 . S
C1007 C1008 1.383 . S
C1007 H1015 0.929 . S
C1008 C1007 1.383 . S
C1008 C1009 1.377 . S
C1009 H993 0.930 . S
C1009 C1008 1.377 . S
C1009 C1010 1.379 . S
C1010 H994 0.931 . S
C1010 C1004 1.383 . S
C1010 C1009 1.379 . S
H1011 C1005 0.959 . S
H1012 C1005 0.961 . S
H1013 C1005 0.960 . S
H1014 C1006 0.930 . S
H1015 C1007 0.929 . S
H1016 C1024 0.929 . S
H1017 C1026 0.930 . S
H1018 C1028 0.930 . S
H1019 C1031 0.929 . S
H1020 C1034 0.930 . S
H1021 C1036 0.960 . S
H1022 C1036 0.960 . S
H1023 C1036 0.960 . S
C1024 H1016 0.929 . S
C1024 C1025 1.377 . S
C1024 C1026 1.384 . S
C1025 C1024 1.377 . S
C1025 C1031 1.390 . S
C1026 H1017 0.930 . S
C1026 C1024 1.384 . S
C1026 C1027 1.372 . S
C1027 C1026 1.372 . S
C1027 C1028 1.400 . S
C1027 C1032 1.490 . S
C1028 H1018 0.930 . S
C1028 C1027 1.400 . S
C1028 C1031 1.386 . S
H1029 C1045 0.930 . S
H1030 C1046 0.931 . S
C1031 H1019 0.929 . S
C1031 C1025 1.390 . S
C1031 C1028 1.386 . S
C1032 C1027 1.490 . S
C1032 C1034 1.395 . S
C1032 C1035 1.403 . S
H1033 C1039 0.930 . S
C1034 H1020 0.930 . S
C1034 C1032 1.395 . S
C1034 C1037 1.403 . S
C1035 C1032 1.403 . S
C1035 C1036 1.524 . S
C1035 C1039 1.400 . S
C1036 H1021 0.960 . S
C1036 H1022 0.960 . S
C1036 H1023 0.960 . S
C1036 C1035 1.524 . S
C1037 C1034 1.403 . S
C1037 C1038 1.392 . S
C1037 C1041 1.495 . S
C1038 C1037 1.392 . S
C1038 C1039 1.385 . S
C1038 C1040 1.478 . S
C1039 H1033 0.930 . S
C1039 C1035 1.400 . S
C1039 C1038 1.385 . S
C1040 C1038 1.478 . S
C1040 C1042 1.381 . S
C1040 C1046 1.383 . S
C1041 C1037 1.495 . S
C1041 H1047 0.959 . S
C1041 H1048 0.961 . S
C1041 H1049 0.960 . S
C1042 C1040 1.381 . S
C1042 C1043 1.394 . S
C1042 H1050 0.930 . S
C1043 C1042 1.394 . S
C1043 C1044 1.383 . S
C1043 H1051 0.929 . S
C1044 C1043 1.383 . S
C1044 C1045 1.377 . S
C1045 H1029 0.930 . S
C1045 C1044 1.377 . S
C1045 C1046 1.379 . S
C1046 H1030 0.931 . S
C1046 C1040 1.383 . S
C1046 C1045 1.379 . S
H1047 C1041 0.959 . S
H1048 C1041 0.961 . S
H1049 C1041 0.960 . S
H1050 C1042 0.930 . S
H1051 C1043 0.929 . S
H1052 C1060 0.929 . S
H1053 C1062 0.930 . S
H1054 C1064 0.930 . S
H1055 C1067 0.929 . S
H1056 C1070 0.930 . S
H1057 C1072 0.960 . S
H1058 C1072 0.960 . S
H1059 C1072 0.960 . S
C1060 H1052 0.929 . S
C1060 C1061 1.377 . S
C1060 C1062 1.384 . S
C1061 C1060 1.377 . S
C1061 C1067 1.390 . S
C1062 H1053 0.930 . S
C1062 C1060 1.384 . S
C1062 C1063 1.372 . S
C1063 C1062 1.372 . S
C1063 C1064 1.400 . S
C1063 C1068 1.490 . S
C1064 H1054 0.930 . S
C1064 C1063 1.400 . S
C1064 C1067 1.386 . S
H1065 C1081 0.930 . S
H1066 C1082 0.931 . S
C1067 H1055 0.929 . S
C1067 C1061 1.390 . S
C1067 C1064 1.386 . S
C1068 C1063 1.490 . S
C1068 C1070 1.395 . S
C1068 C1071 1.403 . S
H1069 C1075 0.930 . S
C1070 H1056 0.930 . S
C1070 C1068 1.395 . S
C1070 C1073 1.403 1_455 S
C1071 C1068 1.403 . S
C1071 C1072 1.524 . S
C1071 C1075 1.400 . S
C1072 H1057 0.960 . S
C1072 H1058 0.960 . S
C1072 H1059 0.960 . S
C1072 C1071 1.524 . S
C1073 C1070 1.403 1_655 S
C1073 C1074 1.392 . S
C1073 C1077 1.495 . S
C1074 C1073 1.392 . S
C1074 C1075 1.385 1_655 S
C1074 C1076 1.478 . S
C1075 H1069 0.930 . S
C1075 C1071 1.400 . S
C1075 C1074 1.385 1_455 S
C1076 C1074 1.478 . S
C1076 C1078 1.381 . S
C1076 C1082 1.383 . S
C1077 C1073 1.495 . S
C1077 H1083 0.959 . S
C1077 H1084 0.961 . S
C1077 H1085 0.960 . S
C1078 C1076 1.381 . S
C1078 C1079 1.394 . S
C1078 H1086 0.930 . S
C1079 C1078 1.394 . S
C1079 C1080 1.383 . S
C1079 H1087 0.929 . S
C1080 C1079 1.383 . S
C1080 C1081 1.377 . S
C1081 H1065 0.930 . S
C1081 C1080 1.377 . S
C1081 C1082 1.379 . S
C1082 H1066 0.931 . S
C1082 C1076 1.383 . S
C1082 C1081 1.379 . S
H1083 C1077 0.959 . S
H1084 C1077 0.961 . S
H1085 C1077 0.960 . S
H1086 C1078 0.930 . S
H1087 C1079 0.929 . S
H1088 C1096 0.929 . S
H1089 C1098 0.930 . S
H1090 C1100 0.930 . S
H1091 C1103 0.929 . S
H1092 C1106 0.930 . S
H1093 C1108 0.960 . S
H1094 C1108 0.960 . S
H1095 C1108 0.960 . S
C1096 H1088 0.929 . S
C1096 C1097 1.377 . S
C1096 C1098 1.384 . S
C1097 C1096 1.377 . S
C1097 C1103 1.390 . S
C1098 H1089 0.930 . S
C1098 C1096 1.384 . S
C1098 C1099 1.372 . S
C1099 C1098 1.372 . S
C1099 C1100 1.400 . S
C1099 C1104 1.490 . S
C1100 H1090 0.930 . S
C1100 C1099 1.400 . S
C1100 C1103 1.386 . S
H1101 C1117 0.930 . S
H1102 C1118 0.931 . S
C1103 H1091 0.929 . S
C1103 C1097 1.390 . S
C1103 C1100 1.386 . S
C1104 C1099 1.490 . S
C1104 C1106 1.395 . S
C1104 C1107 1.403 . S
H1105 C1111 0.930 . S
C1106 H1092 0.930 . S
C1106 C1104 1.395 . S
C1106 C1109 1.403 1_455 S
C1107 C1104 1.403 . S
C1107 C1108 1.524 . S
C1107 C1111 1.400 . S
C1108 H1093 0.960 . S
C1108 H1094 0.960 . S
C1108 H1095 0.960 . S
C1108 C1107 1.524 . S
C1109 C1106 1.403 1_655 S
C1109 C1110 1.392 . S
C1109 C1113 1.495 . S
C1110 C1109 1.392 . S
C1110 C1111 1.385 1_655 S
C1110 C1112 1.478 . S
C1111 H1105 0.930 . S
C1111 C1107 1.400 . S
C1111 C1110 1.385 1_455 S
C1112 C1110 1.478 . S
C1112 C1114 1.381 . S
C1112 C1118 1.383 . S
C1113 C1109 1.495 . S
C1113 H1119 0.959 . S
C1113 H1120 0.961 . S
C1113 H1121 0.960 . S
C1114 C1112 1.381 . S
C1114 C1115 1.394 . S
C1114 H1122 0.930 . S
C1115 C1114 1.394 . S
C1115 C1116 1.383 . S
C1115 H1123 0.929 . S
C1116 C1115 1.383 . S
C1116 C1117 1.377 . S
C1117 H1101 0.930 . S
C1117 C1116 1.377 . S
C1117 C1118 1.379 . S
C1118 H1102 0.931 . S
C1118 C1112 1.383 . S
C1118 C1117 1.379 . S
H1119 C1113 0.959 . S
H1120 C1113 0.961 . S
H1121 C1113 0.960 . S
H1122 C1114 0.930 . S
H1123 C1115 0.929 . S
H1124 C1132 0.929 . S
H1125 C1134 0.930 . S
H1126 C1136 0.930 . S
H1127 C1139 0.929 . S
H1128 C1142 0.930 . S
H1129 C1144 0.960 . S
H1130 C1144 0.960 . S
H1131 C1144 0.960 . S
C1132 H1124 0.929 . S
C1132 C1133 1.377 . S
C1132 C1134 1.384 . S
C1133 C1132 1.377 . S
C1133 C1139 1.390 . S
C1134 H1125 0.930 . S
C1134 C1132 1.384 . S
C1134 C1135 1.372 . S
C1135 C1134 1.372 . S
C1135 C1136 1.400 . S
C1135 C1140 1.490 . S
C1136 H1126 0.930 . S
C1136 C1135 1.400 . S
C1136 C1139 1.386 . S
H1137 C1153 0.930 . S
H1138 C1154 0.931 . S
C1139 H1127 0.929 . S
C1139 C1133 1.390 . S
C1139 C1136 1.386 . S
C1140 C1135 1.490 . S
C1140 C1142 1.395 . S
C1140 C1143 1.403 . S
H1141 C1147 0.930 . S
C1142 H1128 0.930 . S
C1142 C1140 1.395 . S
C1142 C1145 1.403 . S
C1143 C1140 1.403 . S
C1143 C1144 1.524 . S
C1143 C1147 1.400 . S
C1144 H1129 0.960 . S
C1144 H1130 0.960 . S
C1144 H1131 0.960 . S
C1144 C1143 1.524 . S
C1145 C1142 1.403 . S
C1145 C1146 1.392 . S
C1145 C1149 1.495 . S
C1146 C1145 1.392 . S
C1146 C1147 1.385 . S
C1146 C1148 1.478 . S
C1147 H1141 0.930 . S
C1147 C1143 1.400 . S
C1147 C1146 1.385 . S
C1148 C1146 1.478 . S
C1148 C1150 1.381 . S
C1148 C1154 1.383 . S
C1149 C1145 1.495 . S
C1149 H1155 0.959 . S
C1149 H1156 0.961 . S
C1149 H1157 0.960 . S
C1150 C1148 1.381 . S
C1150 C1151 1.394 . S
C1150 H1158 0.930 . S
C1151 C1150 1.394 . S
C1151 C1152 1.383 . S
C1151 H1159 0.929 . S
C1152 C1151 1.383 . S
C1152 C1153 1.377 . S
C1153 H1137 0.930 . S
C1153 C1152 1.377 . S
C1153 C1154 1.379 . S
C1154 H1138 0.931 . S
C1154 C1148 1.383 . S
C1154 C1153 1.379 . S
H1155 C1149 0.959 . S
H1156 C1149 0.961 . S
H1157 C1149 0.960 . S
H1158 C1150 0.930 . S
H1159 C1151 0.929 . S
H1160 C1168 0.929 . S
H1161 C1170 0.930 . S
H1162 C1172 0.930 . S
H1163 C1175 0.929 . S
H1164 C1178 0.930 . S
H1165 C1180 0.960 . S
H1166 C1180 0.960 . S
H1167 C1180 0.960 . S
C1168 H1160 0.929 . S
C1168 C1169 1.377 . S
C1168 C1170 1.384 . S
C1169 C1168 1.377 . S
C1169 C1175 1.390 . S
C1170 H1161 0.930 . S
C1170 C1168 1.384 . S
C1170 C1171 1.372 . S
C1171 C1170 1.372 . S
C1171 C1172 1.400 . S
C1171 C1176 1.490 . S
C1172 H1162 0.930 . S
C1172 C1171 1.400 . S
C1172 C1175 1.386 . S
H1173 C1189 0.930 . S
H1174 C1190 0.931 . S
C1175 H1163 0.929 . S
C1175 C1169 1.390 . S
C1175 C1172 1.386 . S
C1176 C1171 1.490 . S
C1176 C1178 1.395 . S
C1176 C1179 1.403 . S
H1177 C1183 0.930 . S
C1178 H1164 0.930 . S
C1178 C1176 1.395 . S
C1178 C1181 1.403 . S
C1179 C1176 1.403 . S
C1179 C1180 1.524 . S
C1179 C1183 1.400 . S
C1180 H1165 0.960 . S
C1180 H1166 0.960 . S
C1180 H1167 0.960 . S
C1180 C1179 1.524 . S
C1181 C1178 1.403 . S
C1181 C1182 1.392 . S
C1181 C1185 1.495 . S
C1182 C1181 1.392 . S
C1182 C1183 1.385 . S
C1182 C1184 1.478 . S
C1183 H1177 0.930 . S
C1183 C1179 1.400 . S
C1183 C1182 1.385 . S
C1184 C1182 1.478 . S
C1184 C1186 1.381 . S
C1184 C1190 1.383 . S
C1185 C1181 1.495 . S
C1185 H1191 0.959 . S
C1185 H1192 0.961 . S
C1185 H1193 0.960 . S
C1186 C1184 1.381 . S
C1186 C1187 1.394 . S
C1186 H1194 0.930 . S
C1187 C1186 1.394 . S
C1187 C1188 1.383 . S
C1187 H1195 0.929 . S
C1188 C1187 1.383 . S
C1188 C1189 1.377 . S
C1189 H1173 0.930 . S
C1189 C1188 1.377 . S
C1189 C1190 1.379 . S
C1190 H1174 0.931 . S
C1190 C1184 1.383 . S
C1190 C1189 1.379 . S
H1191 C1185 0.959 . S
H1192 C1185 0.961 . S
H1193 C1185 0.960 . S
H1194 C1186 0.930 . S
H1195 C1187 0.929 . S
H1196 C1204 0.929 . S
H1197 C1206 0.930 . S
H1198 C1208 0.930 . S
H1199 C1211 0.929 . S
H1200 C1214 0.930 . S
H1201 C1216 0.960 . S
H1202 C1216 0.960 . S
H1203 C1216 0.960 . S
C1204 H1196 0.929 . S
C1204 C1205 1.377 . S
C1204 C1206 1.384 . S
C1205 C1204 1.377 . S
C1205 C1211 1.390 . S
C1206 H1197 0.930 . S
C1206 C1204 1.384 . S
C1206 C1207 1.372 . S
C1207 C1206 1.372 . S
C1207 C1208 1.400 . S
C1207 C1212 1.490 . S
C1208 H1198 0.930 . S
C1208 C1207 1.400 . S
C1208 C1211 1.386 . S
H1209 C1225 0.930 . S
H1210 C1226 0.931 . S
C1211 H1199 0.929 . S
C1211 C1205 1.390 . S
C1211 C1208 1.386 . S
C1212 C1207 1.490 . S
C1212 C1214 1.395 1_545 S
C1212 C1215 1.403 . S
H1213 C1219 0.930 . S
C1214 H1200 0.930 . S
C1214 C1212 1.395 1_565 S
C1214 C1217 1.403 . S
C1215 C1212 1.403 . S
C1215 C1216 1.524 . S
C1215 C1219 1.400 1_545 S
C1216 H1201 0.960 . S
C1216 H1202 0.960 . S
C1216 H1203 0.960 . S
C1216 C1215 1.524 . S
C1217 C1214 1.403 . S
C1217 C1218 1.392 . S
C1217 C1221 1.495 . S
C1218 C1217 1.392 . S
C1218 C1219 1.385 . S
C1218 C1220 1.478 . S
C1219 H1213 0.930 . S
C1219 C1215 1.400 1_565 S
C1219 C1218 1.385 . S
C1220 C1218 1.478 . S
C1220 C1222 1.381 . S
C1220 C1226 1.383 . S
C1221 C1217 1.495 . S
C1221 H1227 0.959 . S
C1221 H1228 0.961 . S
C1221 H1229 0.960 . S
C1222 C1220 1.381 . S
C1222 C1223 1.394 . S
C1222 H1230 0.930 . S
C1223 C1222 1.394 . S
C1223 C1224 1.383 . S
C1223 H1231 0.929 . S
C1224 C1223 1.383 . S
C1224 C1225 1.377 . S
C1225 H1209 0.930 . S
C1225 C1224 1.377 . S
C1225 C1226 1.379 . S
C1226 H1210 0.931 . S
C1226 C1220 1.383 . S
C1226 C1225 1.379 . S
H1227 C1221 0.959 . S
H1228 C1221 0.961 . S
H1229 C1221 0.960 . S
H1230 C1222 0.930 . S
H1231 C1223 0.929 . S
H1232 C1240 0.929 . S
H1233 C1242 0.930 . S
H1234 C1244 0.930 . S
H1235 C1247 0.929 . S
H1236 C1250 0.930 . S
H1237 C1252 0.960 . S
H1238 C1252 0.960 . S
H1239 C1252 0.960 . S
C1240 H1232 0.929 . S
C1240 C1241 1.377 . S
C1240 C1242 1.384 . S
C1241 C1240 1.377 . S
C1241 C1247 1.390 . S
C1242 H1233 0.930 . S
C1242 C1240 1.384 . S
C1242 C1243 1.372 . S
C1243 C1242 1.372 . S
C1243 C1244 1.400 . S
C1243 C1248 1.490 . S
C1244 H1234 0.930 . S
C1244 C1243 1.400 . S
C1244 C1247 1.386 . S
H1245 C1261 0.930 . S
H1246 C1262 0.931 . S
C1247 H1235 0.929 . S
C1247 C1241 1.390 . S
C1247 C1244 1.386 . S
C1248 C1243 1.490 . S
C1248 C1250 1.395 . S
C1248 C1251 1.403 . S
H1249 C1255 0.930 . S
C1250 H1236 0.930 . S
C1250 C1248 1.395 . S
C1250 C1253 1.403 . S
C1251 C1248 1.403 . S
C1251 C1252 1.524 . S
C1251 C1255 1.400 . S
C1252 H1237 0.960 . S
C1252 H1238 0.960 . S
C1252 H1239 0.960 . S
C1252 C1251 1.524 . S
C1253 C1250 1.403 . S
C1253 C1254 1.392 . S
C1253 C1257 1.495 . S
C1254 C1253 1.392 . S
C1254 C1255 1.385 . S
C1254 C1256 1.478 . S
C1255 H1249 0.930 . S
C1255 C1251 1.400 . S
C1255 C1254 1.385 . S
C1256 C1254 1.478 . S
C1256 C1258 1.381 . S
C1256 C1262 1.383 . S
C1257 C1253 1.495 . S
C1257 H1263 0.959 . S
C1257 H1264 0.961 . S
C1257 H1265 0.960 . S
C1258 C1256 1.381 . S
C1258 C1259 1.394 . S
C1258 H1266 0.930 . S
C1259 C1258 1.394 . S
C1259 C1260 1.383 . S
C1259 H1267 0.929 . S
C1260 C1259 1.383 . S
C1260 C1261 1.377 . S
C1261 H1245 0.930 . S
C1261 C1260 1.377 . S
C1261 C1262 1.379 . S
C1262 H1246 0.931 . S
C1262 C1256 1.383 . S
C1262 C1261 1.379 . S
H1263 C1257 0.959 . S
H1264 C1257 0.961 . S
H1265 C1257 0.960 . S
H1266 C1258 0.930 . S
H1267 C1259 0.929 . S
H1268 C1276 0.929 . S
H1269 C1278 0.930 . S
H1270 C1280 0.930 . S
H1271 C1283 0.929 . S
H1272 C1286 0.930 . S
H1273 C1288 0.960 . S
H1274 C1288 0.960 . S
H1275 C1288 0.960 . S
C1276 H1268 0.929 . S
C1276 C1277 1.377 . S
C1276 C1278 1.384 . S
C1277 C1276 1.377 . S
C1277 C1283 1.390 . S
C1278 H1269 0.930 . S
C1278 C1276 1.384 . S
C1278 C1279 1.372 . S
C1279 C1278 1.372 . S
C1279 C1280 1.400 . S
C1279 C1284 1.490 . S
C1280 H1270 0.930 . S
C1280 C1279 1.400 . S
C1280 C1283 1.386 . S
H1281 C1297 0.930 . S
H1282 C1298 0.931 . S
C1283 H1271 0.929 . S
C1283 C1277 1.390 . S
C1283 C1280 1.386 . S
C1284 C1279 1.490 . S
C1284 C1286 1.395 . S
C1284 C1287 1.403 . S
H1285 C1291 0.930 . S
C1286 H1272 0.930 . S
C1286 C1284 1.395 . S
C1286 C1289 1.403 . S
C1287 C1284 1.403 . S
C1287 C1288 1.524 . S
C1287 C1291 1.400 . S
C1288 H1273 0.960 . S
C1288 H1274 0.960 . S
C1288 H1275 0.960 . S
C1288 C1287 1.524 . S
C1289 C1286 1.403 . S
C1289 C1290 1.392 . S
C1289 C1293 1.495 . S
C1290 C1289 1.392 . S
C1290 C1291 1.385 . S
C1290 C1292 1.478 . S
C1291 H1285 0.930 . S
C1291 C1287 1.400 . S
C1291 C1290 1.385 . S
C1292 C1290 1.478 . S
C1292 C1294 1.381 . S
C1292 C1298 1.383 . S
C1293 C1289 1.495 . S
C1293 H1299 0.959 . S
C1293 H1300 0.961 . S
C1293 H1301 0.960 . S
C1294 C1292 1.381 . S
C1294 C1295 1.394 . S
C1294 H1302 0.930 . S
C1295 C1294 1.394 . S
C1295 C1296 1.383 . S
C1295 H1303 0.929 . S
C1296 C1295 1.383 . S
C1296 C1297 1.377 . S
C1297 H1281 0.930 . S
C1297 C1296 1.377 . S
C1297 C1298 1.379 . S
C1298 H1282 0.931 . S
C1298 C1292 1.383 . S
C1298 C1297 1.379 . S
H1299 C1293 0.959 . S
H1300 C1293 0.961 . S
H1301 C1293 0.960 . S
H1302 C1294 0.930 . S
H1303 C1295 0.929 . S
H1304 C1312 0.929 . S
H1305 C1314 0.930 . S
H1306 C1316 0.930 . S
H1307 C1319 0.929 . S
H1308 C1322 0.930 . S
H1309 C1324 0.960 . S
H1310 C1324 0.960 . S
H1311 C1324 0.960 . S
C1312 H1304 0.929 . S
C1312 C1313 1.377 . S
C1312 C1314 1.384 . S
C1313 C1312 1.377 . S
C1313 C1319 1.390 . S
C1314 H1305 0.930 . S
C1314 C1312 1.384 . S
C1314 C1315 1.372 . S
C1315 C1314 1.372 . S
C1315 C1316 1.400 . S
C1315 C1320 1.490 . S
C1316 H1306 0.930 . S
C1316 C1315 1.400 . S
C1316 C1319 1.386 . S
H1317 C1333 0.930 . S
H1318 C1334 0.931 . S
C1319 H1307 0.929 . S
C1319 C1313 1.390 . S
C1319 C1316 1.386 . S
C1320 C1315 1.490 . S
C1320 C1322 1.395 . S
C1320 C1323 1.403 . S
H1321 C1327 0.930 . S
C1322 H1308 0.930 . S
C1322 C1320 1.395 . S
C1322 C1325 1.403 1_545 S
C1323 C1320 1.403 . S
C1323 C1324 1.524 . S
C1323 C1327 1.400 1_545 S
C1324 H1309 0.960 . S
C1324 H1310 0.960 . S
C1324 H1311 0.960 . S
C1324 C1323 1.524 . S
C1325 C1322 1.403 1_565 S
C1325 C1326 1.392 . S
C1325 C1329 1.495 . S
C1326 C1325 1.392 . S
C1326 C1327 1.385 . S
C1326 C1328 1.478 . S
C1327 H1321 0.930 . S
C1327 C1323 1.400 1_565 S
C1327 C1326 1.385 . S
C1328 C1326 1.478 . S
C1328 C1330 1.381 . S
C1328 C1334 1.383 . S
C1329 C1325 1.495 . S
C1329 H1335 0.959 1_565 S
C1329 H1336 0.961 . S
C1329 H1337 0.960 . S
C1330 C1328 1.381 . S
C1330 C1331 1.394 . S
C1330 H1338 0.930 . S
C1331 C1330 1.394 . S
C1331 C1332 1.383 . S
C1331 H1339 0.929 . S
C1332 C1331 1.383 . S
C1332 C1333 1.377 . S
C1333 H1317 0.930 . S
C1333 C1332 1.377 . S
C1333 C1334 1.379 . S
C1334 H1318 0.931 . S
C1334 C1328 1.383 . S
C1334 C1333 1.379 . S
H1335 C1329 0.959 1_545 S
H1336 C1329 0.961 . S
H1337 C1329 0.960 . S
H1338 C1330 0.930 . S
H1339 C1331 0.929 . S
H1340 C1348 0.929 . S
H1341 C1350 0.930 . S
H1342 C1352 0.930 . S
H1343 C1355 0.929 . S
H1344 C1358 0.930 . S
H1345 C1360 0.960 . S
H1346 C1360 0.960 . S
H1347 C1360 0.960 . S
C1348 H1340 0.929 . S
C1348 C1349 1.377 . S
C1348 C1350 1.384 . S
C1349 C1348 1.377 . S
C1349 C1355 1.390 . S
C1350 H1341 0.930 . S
C1350 C1348 1.384 . S
C1350 C1351 1.372 . S
C1351 C1350 1.372 . S
C1351 C1352 1.400 . S
C1351 C1356 1.490 . S
C1352 H1342 0.930 . S
C1352 C1351 1.400 . S
C1352 C1355 1.386 . S
H1353 C1369 0.930 . S
H1354 C1370 0.931 . S
C1355 H1343 0.929 . S
C1355 C1349 1.390 . S
C1355 C1352 1.386 . S
C1356 C1351 1.490 . S
C1356 C1358 1.395 . S
C1356 C1359 1.403 . S
H1357 C1363 0.930 . S
C1358 H1344 0.930 . S
C1358 C1356 1.395 . S
C1358 C1361 1.403 . S
C1359 C1356 1.403 . S
C1359 C1360 1.524 . S
C1359 C1363 1.400 . S
C1360 H1345 0.960 . S
C1360 H1346 0.960 . S
C1360 H1347 0.960 . S
C1360 C1359 1.524 . S
C1361 C1358 1.403 . S
C1361 C1362 1.392 . S
C1361 C1365 1.495 . S
C1362 C1361 1.392 . S
C1362 C1363 1.385 . S
C1362 C1364 1.478 . S
C1363 H1357 0.930 . S
C1363 C1359 1.400 . S
C1363 C1362 1.385 . S
C1364 C1362 1.478 . S
C1364 C1366 1.381 . S
C1364 C1370 1.383 . S
C1365 C1361 1.495 . S
C1365 H1371 0.959 . S
C1365 H1372 0.961 . S
C1365 H1373 0.960 . S
C1366 C1364 1.381 . S
C1366 C1367 1.394 . S
C1366 H1374 0.930 . S
C1367 C1366 1.394 . S
C1367 C1368 1.383 . S
C1367 H1375 0.929 . S
C1368 C1367 1.383 . S
C1368 C1369 1.377 . S
C1369 H1353 0.930 . S
C1369 C1368 1.377 . S
C1369 C1370 1.379 . S
C1370 H1354 0.931 . S
C1370 C1364 1.383 . S
C1370 C1369 1.379 . S
H1371 C1365 0.959 . S
H1372 C1365 0.961 . S
H1373 C1365 0.960 . S
H1374 C1366 0.930 . S
H1375 C1367 0.929 . S
C233 C8 1.298 . S
C252 C190 1.321 . S
C269 C22 1.094 . S
C288 C134 1.065 . S
C305 C204 0.900 . S
C324 C36 0.938 . S
C341 C50 0.854 . S
C360 C218 0.824 . S
C377 C64 1.098 . S
C396 C92 1.054 . S
C413 C148 1.304 . S
C432 C78 1.301 . S
C449 C162 0.913 . S
C468 C106 0.873 . S
C485 C120 0.853 . S
C504 C176 0.825 . S
C521 C41 1.661 . S
C540 C7 1.780 . S
C557 C21 1.536 . S
C576 C55 1.477 . S
C593 C175 1.467 . S
C612 C11 1.472 . S
C629 C25 1.455 . S
C648 C161 1.456 . S
C665 C67 1.456 . S
C684 C35 1.460 . S
C701 C151 1.466 . S
C720 C49 1.450 . S
C737 C27 1.562 . S
C756 C13 1.586 . S
C773 C53 1.451 . S
C792 C39 1.457 . S
C809 C153 1.557 . S
C828 C69 1.536 . S
C845 C105 1.480 . S
C864 C83 1.383 . S
C881 C97 1.368 . S
C900 C125 1.408 . S
C917 C221 1.578 . S
C936 C81 1.582 . S
C953 C95 1.670 . S
C972 C209 1.577 . S
C989 C137 1.667 . S
C1008 C111 1.517 . S
C1025 C123 1.578 . S
C1044 C193 1.565 . S
C1061 C91 1.833 . S
C1080 C77 1.835 . S
C1097 C119 1.295 . S
C1116 C109 1.299 . S
C1133 C133 1.834 . S
C1152 C189 1.830 . S
C1169 C147 1.774 . S
C1188 C167 1.651 . S
C1205 C181 1.465 . S
C1224 C63 1.526 . S
C1241 C179 1.448 . S
C1260 C165 1.437 . S
C1277 C203 1.478 . S
C1296 C195 1.340 . S
C1313 C139 1.364 . S
C1332 C223 1.392 . S
C1349 C217 1.296 . S
C1368 C207 1.295 . S
