# Generated by pormake.
# Topology smc, (6)-cn, num edge types: 1
# Building blocks:
#     Node 0, Type 0, BuildingBlock: CUKXOW_clean_sbu_0, # of connection points: 6
#     Node 1, Type 0, BuildingBlock: CUKXOW_clean_sbu_0, # of connection points: 6
#     Node 2, Type 0, BuildingBlock: CUKXOW_clean_sbu_0, # of connection points: 6
#     Node 3, Type 0, BuildingBlock: CUKXOW_clean_sbu_0, # of connection points: 6
#     Node 4, Type 0, BuildingBlock: CUKXOW_clean_sbu_0, # of connection points: 6
#     Node 5, Type 0, BuildingBlock: CUKXOW_clean_sbu_0, # of connection points: 6
#     Node 6, Type 0, BuildingBlock: CUKXOW_clean_sbu_0, # of connection points: 6
#     Node 7, Type 0, BuildingBlock: CUKXOW_clean_sbu_0, # of connection points: 6
#     Node 8, Type 0, BuildingBlock: CUKXOW_clean_sbu_0, # of connection points: 6
#     Edge 9, Type (0, 0), BuildingBlock: TEMPAE_clean_linker_10, # of connection points: 2
#     Edge 10, Type (0, 0), BuildingBlock: TEMPAE_clean_linker_10, # of connection points: 2
#     Edge 11, Type (0, 0), BuildingBlock: TEMPAE_clean_linker_10, # of connection points: 2
#     Edge 12, Type (0, 0), BuildingBlock: TEMPAE_clean_linker_10, # of connection points: 2
#     Edge 13, Type (0, 0), BuildingBlock: TEMPAE_clean_linker_10, # of connection points: 2
#     Edge 14, Type (0, 0), BuildingBlock: TEMPAE_clean_linker_10, # of connection points: 2
#     Edge 15, Type (0, 0), BuildingBlock: TEMPAE_clean_linker_10, # of connection points: 2
#     Edge 16, Type (0, 0), BuildingBlock: TEMPAE_clean_linker_10, # of connection points: 2
#     Edge 17, Type (0, 0), BuildingBlock: TEMPAE_clean_linker_10, # of connection points: 2
#     Edge 18, Type (0, 0), BuildingBlock: TEMPAE_clean_linker_10, # of connection points: 2
#     Edge 19, Type (0, 0), BuildingBlock: TEMPAE_clean_linker_10, # of connection points: 2
#     Edge 20, Type (0, 0), BuildingBlock: TEMPAE_clean_linker_10, # of connection points: 2
#     Edge 21, Type (0, 0), BuildingBlock: TEMPAE_clean_linker_10, # of connection points: 2
#     Edge 22, Type (0, 0), BuildingBlock: TEMPAE_clean_linker_10, # of connection points: 2
#     Edge 23, Type (0, 0), BuildingBlock: TEMPAE_clean_linker_10, # of connection points: 2
#     Edge 24, Type (0, 0), BuildingBlock: TEMPAE_clean_linker_10, # of connection points: 2
#     Edge 25, Type (0, 0), BuildingBlock: TEMPAE_clean_linker_10, # of connection points: 2
#     Edge 26, Type (0, 0), BuildingBlock: TEMPAE_clean_linker_10, # of connection points: 2
#     Edge 27, Type (0, 0), BuildingBlock: TEMPAE_clean_linker_10, # of connection points: 2
#     Edge 28, Type (0, 0), BuildingBlock: TEMPAE_clean_linker_10, # of connection points: 2
#     Edge 29, Type (0, 0), BuildingBlock: TEMPAE_clean_linker_10, # of connection points: 2
#     Edge 30, Type (0, 0), BuildingBlock: TEMPAE_clean_linker_10, # of connection points: 2
#     Edge 31, Type (0, 0), BuildingBlock: TEMPAE_clean_linker_10, # of connection points: 2
#     Edge 32, Type (0, 0), BuildingBlock: TEMPAE_clean_linker_10, # of connection points: 2
#     Edge 33, Type (0, 0), BuildingBlock: TEMPAE_clean_linker_10, # of connection points: 2
#     Edge 34, Type (0, 0), BuildingBlock: TEMPAE_clean_linker_10, # of connection points: 2
#     Edge 35, Type (0, 0), BuildingBlock: TEMPAE_clean_linker_10, # of connection points: 2
# Relax obj value: 0.122
# Max RMSD: 0.269
# Mean RMSD: 0.255
data_MOF--net-smc--node1-CUKXOW_clean_sbu_0--edge1-TEMPAE_clean_linker_10
_symmetry_space_group_name_H-M    P1
_symmetry_Int_Tables_number       1
_symmetry_cell_setting            triclinic
loop_
_symmetry_equiv_pos_as_xyz
'x, y, z'
_cell_length_a     29.800856
_cell_length_b     33.013709
_cell_length_c     42.399862
_cell_angle_alpha  90.624362
_cell_angle_beta   90.84393
_cell_angle_gamma 119.71171
loop_
_atom_site_label
_atom_site_type_symbol
_atom_site_fract_x
_atom_site_fract_y
_atom_site_fract_z
_atom_type_partial_charge
Tb0 Tb 1.00232 0.42271 0.02639 0.0
C1 C 0.07022 0.4779 0.08379 0.0
Tb2 Tb 0.08012 0.52505 1.01565 0.0
O3 O 0.0674 0.40854 0.03681 0.0
O4 O 0.07853 0.46163 1.0076 0.0
O5 O 1.0235 0.4449 0.07498 0.0
C6 C 0.16174 0.6098 1.00674 0.0
O7 O 0.10088 0.51101 0.06388 0.0
C8 C 0.98762 0.51886 0.02571 0.0
C9 C 1.02086 0.45572 0.95662 0.0
O10 O 0.1555 0.58383 0.03093 0.0
O11 O 0.12307 0.58703 0.98712 0.0
O12 O 0.03053 0.55654 0.02077 0.0
O13 O 0.99918 0.48638 0.02593 0.0
O14 O 0.06429 0.494 0.96667 0.0
O15 O 0.98674 0.42706 0.9768 0.0
C16 C 0.91121 0.34455 0.03392 0.0
O17 O 0.94683 0.34895 1.01453 0.0
O18 O 0.92772 0.38363 0.04942 0.0
C19 C 0.10236 0.44409 0.02152 0.0
Tb20 Tb 0.60819 0.60775 1.00126 0.0
C21 C 0.59819 0.54184 0.94691 0.0
Tb22 Tb 0.56477 0.51908 0.01797 0.0
O23 O 0.68539 0.62512 0.02263 0.0
O24 O 0.64019 0.56104 1.0022 0.0
O25 O 0.59601 0.57971 0.95339 0.0
C26 C 0.53571 0.43594 0.04207 0.0
O27 O 0.59492 0.51473 0.97078 0.0
C28 C 0.4878 0.53474 1.00132 0.0
C29 C 0.59135 0.59714 0.07097 0.0
O30 O 0.52959 0.4438 1.01307 0.0
O31 O 0.5589 0.47492 0.05782 0.0
O32 O 0.49143 0.49858 0.99391 0.0
O33 O 0.52884 0.56244 0.01723 0.0
O34 O 0.5893 0.55657 0.06504 0.0
O35 O 0.58867 0.62067 0.04714 0.0
C36 C 0.62078 0.6861 0.97511 0.0
O37 O 0.64646 0.68425 0.99954 0.0
O38 O 0.58989 0.644 0.96501 0.0
C39 C 0.68148 0.58454 0.01781 0.0
Tb40 Tb 0.44555 0.04723 0.03368 0.0
C41 C 0.44686 0.975 0.07976 0.0
Tb42 Tb 0.48126 0.9788 1.00777 0.0
O43 O 0.36749 0.98704 0.04034 0.0
O44 O 0.41486 0.98543 1.00565 0.0
O45 O 0.45441 0.01772 0.07685 0.0
C46 C 0.4907 0.90909 0.98281 0.0
O47 O 0.44992 0.9507 0.05518 0.0
C48 C 0.56099 0.05651 0.03124 0.0
C49 C 0.46952 0.05053 0.9611 0.0
O50 O 0.46432 0.90624 1.00766 0.0
O51 O 0.5104 0.95076 0.97167 0.0
O52 O 0.56445 0.02148 0.02027 0.0
O53 O 0.51399 0.04462 0.02938 0.0
O54 O 0.47075 0.01054 0.96391 0.0
O55 O 0.46479 0.07311 0.98591 0.0
C56 C 0.44755 0.11984 0.06155 0.0
O57 O 0.41011 0.09021 0.04297 0.0
O58 O 0.4842 0.10955 0.06311 0.0
C59 C 0.37266 0.96115 0.01894 0.0
Tb60 Tb 0.65602 0.74459 0.35368 0.0
C61 C 0.73746 0.80092 0.40661 0.0
Tb62 Tb 0.74166 0.84401 0.33744 0.0
O63 O 0.71326 0.72124 0.35921 0.0
O64 O 0.72512 0.77522 0.32906 0.0
O65 O 0.68962 0.76697 0.40037 0.0
C66 C 0.81967 0.93374 0.33182 0.0
O67 O 0.76615 0.83243 0.38515 0.0
C68 C 0.65057 0.83307 0.35173 0.0
C69 C 0.67144 0.77415 0.28211 0.0
O70 O 0.82058 0.90238 0.34981 0.0
O71 O 0.77646 0.91326 0.31573 0.0
O72 O 0.68208 0.86351 0.3326 0.0
O73 O 0.67308 0.81367 0.36408 0.0
O74 O 0.7192 0.80875 0.29002 0.0
O75 O 0.63727 0.7517 0.30437 0.0
C76 C 0.56317 0.67161 0.36464 0.0
O77 O 0.6004 0.66973 0.35037 0.0
O78 O 0.5783 0.71454 0.37283 0.0
C79 C 0.74555 0.75358 0.34077 0.0
Tb80 Tb 0.31751 0.92576 0.36666 0.0
C81 C 0.24977 0.92995 0.41833 0.0
Tb82 Tb 0.21206 0.8897 0.34843 0.0
O83 O 0.32738 0.9962 0.37585 0.0
O84 O 0.27772 0.95423 0.34034 0.0
O85 O 0.28804 0.92198 0.41344 0.0
C86 C 0.12329 0.88268 0.33028 0.0
O87 O 0.21695 0.92398 0.39488 0.0
C88 C 0.21436 0.81337 0.36551 0.0
C89 C 0.29063 0.89759 0.29569 0.0
O90 O 0.14961 0.90458 0.35548 0.0
O91 O 0.14726 0.86509 0.31513 0.0
O92 O 0.17356 0.81544 0.35783 0.0
O93 O 0.2532 0.85498 0.36604 0.0
O94 O 0.2462 0.89652 0.30133 0.0
O95 O 0.32306 0.90319 0.31915 0.0
C96 C 0.40742 0.9365 0.38702 0.0
O97 O 0.40152 0.95767 0.36299 0.0
O98 O 0.36294 0.90923 0.39886 0.0
C99 C 0.29298 0.99238 0.35513 0.0
Tb100 Tb 0.11268 0.37924 0.36096 0.0
C101 C 0.10134 0.30943 0.41426 0.0
Tb102 Tb 0.14919 0.30418 0.34741 0.0
O103 O 0.03128 0.32057 0.36493 0.0
O104 O 0.0846 0.31248 0.33906 0.0
O105 O 0.11121 0.35265 0.4083 0.0
C106 C 0.16705 0.23163 0.33659 0.0
O107 O 0.10776 0.28285 0.39272 0.0
C108 C 0.21662 0.38472 0.37529 0.0
C109 C 0.14241 0.36679 0.29064 0.0
O110 O 0.12783 0.22974 0.35111 0.0
O111 O 0.19477 0.27417 0.32664 0.0
O112 O 0.21745 0.34611 0.37835 0.0
O113 O 0.18186 0.3769 0.35528 0.0
O114 O 0.14627 0.32894 0.29838 0.0
O115 O 0.13286 0.39161 0.31165 0.0
C116 C 0.12891 0.46847 0.36858 0.0
O117 O 0.09375 0.43537 0.35028 0.0
O118 O 0.15252 0.44996 0.38376 0.0
C119 C 0.03956 0.29044 0.34928 0.0
Tb120 Tb 0.33666 0.09157 0.69062 0.0
C121 C 0.40174 0.15064 0.74773 0.0
Tb122 Tb 0.41285 0.19345 0.67824 0.0
O123 O 0.40254 0.0787 0.7016 0.0
O124 O 0.41297 0.13051 0.67146 0.0
O125 O 0.35579 0.11655 0.73869 0.0
C126 C 0.49473 0.27678 0.66655 0.0
O127 O 0.4331 0.18249 0.72739 0.0
C128 C 0.3212 0.18748 0.68945 0.0
C129 C 0.34895 0.12287 0.62083 0.0
O130 O 0.48917 0.25249 0.69157 0.0
O131 O 0.45495 0.25335 0.64785 0.0
O132 O 0.3641 0.22533 0.68471 0.0
O133 O 0.33226 0.15468 0.68932 0.0
O134 O 0.39322 0.1612 0.62958 0.0
O135 O 0.31689 0.09463 0.64188 0.0
C136 C 0.24631 0.01271 0.69893 0.0
O137 O 0.28159 0.01747 0.67913 0.0
O138 O 0.26305 0.05169 0.71458 0.0
C139 C 0.43737 0.11396 0.68605 0.0
Tb140 Tb 0.94676 0.28274 0.67035 0.0
C141 C 0.91767 0.20924 0.62192 0.0
Tb142 Tb 0.9051 0.19994 0.69615 0.0
O143 O 1.01541 0.27971 0.65372 0.0
O144 O 0.98469 0.25058 0.69612 0.0
O145 O 0.91062 0.24455 0.62755 0.0
C146 C 0.87044 0.11289 0.71462 0.0
O147 O 0.9228 0.18753 0.64675 0.0
C148 C 0.83178 0.22435 0.69266 0.0
C149 C 0.94112 0.28435 0.74313 0.0
O150 O 0.84389 0.12757 0.69925 0.0
O151 O 0.91724 0.14667 0.71885 0.0
O152 O 0.84285 0.20733 0.71692 0.0
O153 O 0.86449 0.23005 0.67133 0.0
O154 O 0.9343 0.24156 0.74059 0.0
O155 O 0.93858 0.3051 0.71739 0.0
C156 C 0.97225 0.36781 0.64968 0.0
O157 O 0.97278 0.3568 0.67877 0.0
O158 O 0.95837 0.33104 0.63229 0.0
C159 C 1.01826 0.25518 0.67639 0.0
Tb160 Tb 0.7764 0.71254 0.68852 0.0
C161 C 0.76793 0.63888 0.73747 0.0
Tb162 Tb 0.81962 0.64747 0.67027 0.0
O163 O 0.69736 0.65223 0.68929 0.0
O164 O 0.75269 0.65154 0.66077 0.0
O165 O 0.77346 0.68087 0.73343 0.0
C166 C 0.83674 0.58235 0.64556 0.0
O167 O 0.78028 0.61725 0.71524 0.0
C168 C 0.89451 0.72603 0.6962 0.0
C169 C 0.81725 0.7184 0.62009 0.0
O170 O 0.80541 0.57576 0.66847 0.0
O171 O 0.85771 0.62518 0.63665 0.0
O172 O 0.89987 0.69097 0.68767 0.0
O173 O 0.84768 0.71386 0.69144 0.0
O174 O 0.8149 0.67735 0.6245 0.0
O175 O 0.81104 0.74182 0.64362 0.0
C176 C 0.76381 0.78298 0.70609 0.0
O177 O 0.74413 0.75802 0.68044 0.0
O178 O 0.79112 0.76873 0.72151 0.0
C179 C 0.7078 0.62672 0.67057 0.0
C180 C 0.39312 0.49549 0.98483 0.0
C181 C 0.43392 0.52924 1.00407 0.0
C182 C 0.34088 0.48425 0.98833 0.0
C183 C 0.32721 0.50687 1.0119 0.0
C184 C 0.36831 0.54186 0.03108 0.0
C185 C 0.4207 0.55259 0.02698 0.0
C186 C 0.29988 0.44713 0.96691 0.0
C187 C 0.35675 0.56737 0.05652 0.0
C188 C 0.19286 0.49894 1.00118 0.0
C189 C 0.16025 0.4613 0.02023 0.0
C190 C 0.24676 0.51486 0.99902 0.0
C191 C 0.2701 0.4931 0.01633 0.0
C192 C 0.23745 0.4558 0.03624 0.0
C193 C 0.18358 0.44048 0.03787 0.0
C194 C 0.27867 0.55469 0.97755 0.0
C195 C 0.25933 0.43134 0.05562 0.0
H196 H 0.40201 0.47686 0.96703 0.0
H197 H 0.45104 0.57835 0.04236 0.0
H198 H 0.27189 0.41763 0.98116 0.0
H199 H 0.27799 0.46138 0.95432 0.0
H200 H 0.31637 0.43348 0.94917 0.0
H201 H 0.33543 0.58389 0.04627 0.0
H202 H 0.33146 0.54224 0.07424 0.0
H203 H 0.39241 0.59472 0.06871 0.0
H204 H 0.17604 0.51585 0.98751 0.0
H205 H 0.15955 0.41179 0.05298 0.0
H206 H 0.29303 0.54207 0.95789 0.0
H207 H 0.31297 0.58229 0.9906 0.0
H208 H 0.25627 0.57034 0.96744 0.0
H209 H 0.27332 0.41324 0.03973 0.0
H210 H 0.23034 0.40533 0.07155 0.0
H211 H 0.29298 0.45716 0.07007 0.0
C212 C 0.48587 0.83218 0.98877 0.0
C213 C 0.50634 0.87488 0.97352 0.0
C214 C 0.50694 0.80289 0.98432 0.0
C215 C 0.54966 0.81696 0.9643 0.0
C216 C 0.56856 0.85889 0.94751 0.0
C217 C 0.54648 0.88734 0.95225 0.0
C218 C 0.48508 0.75798 1.00224 0.0
C219 C 0.61383 0.87493 0.92589 0.0
C220 C 0.63348 0.76505 0.98736 0.0
C221 C 0.61329 0.72572 0.9673 0.0
C222 C 0.61531 0.79689 0.98533 0.0
C223 C 0.57621 0.78901 0.96266 0.0
C224 C 0.55905 0.75152 0.94062 0.0
C225 C 0.57789 0.72028 0.9432 0.0
C226 C 0.63509 0.83688 1.00899 0.0
C227 C 0.51784 0.7422 0.91593 0.0
H228 H 0.45469 0.8225 1.00513 0.0
H229 H 0.56238 0.92045 0.94045 0.0
H230 H 0.47581 0.72827 0.98587 0.0
H231 H 0.51435 0.76009 0.01967 0.0
H232 H 0.44956 0.75052 1.01499 0.0
H233 H 0.62008 0.90552 0.91194 0.0
H234 H 0.64944 0.88472 0.94011 0.0
H235 H 0.60797 0.84631 0.9094 0.0
H236 H 0.66082 0.76927 1.00603 0.0
H237 H 0.56234 0.68989 0.92758 0.0
H238 H 0.60414 0.83051 0.02578 0.0
H239 H 0.64558 0.86998 0.99696 0.0
H240 H 0.66935 0.84121 0.02265 0.0
H241 H 0.48001 0.72871 0.92746 0.0
H242 H 0.51434 0.71613 0.89784 0.0
H243 H 0.52614 0.77484 0.90398 0.0
C244 C 0.3027 0.88376 0.03732 0.0
C245 C 0.34208 0.90964 0.01623 0.0
C246 C 0.27544 0.83468 0.03559 0.0
C247 C 0.28853 0.811 1.01255 0.0
C248 C 0.32871 0.83715 0.99144 0.0
C249 C 0.35424 0.88608 0.99316 0.0
C250 C 0.23242 0.80818 0.05829 0.0
C251 C 0.34505 0.81348 0.96716 0.0
C252 C 0.2415 0.68208 0.02609 0.0
C253 C 0.19812 0.6606 1.00573 0.0
C254 C 0.27243 0.73104 0.02784 0.0
C255 C 0.25858 0.75902 1.00952 0.0
C256 C 0.21528 0.73728 0.98853 0.0
C257 C 0.18609 0.6884 0.98657 0.0
C258 C 0.3194 0.75283 0.04963 0.0
C259 C 0.19857 0.76568 0.96898 0.0
H260 H 0.29335 0.90186 0.05527 0.0
H261 H 0.38439 0.90602 0.97662 0.0
H262 H 0.19573 0.78583 0.04497 0.0
H263 H 0.24104 0.78483 0.0726 0.0
H264 H 0.22664 0.83175 0.07454 0.0
H265 H 0.37858 0.83884 0.95348 0.0
H266 H 0.35555 0.78936 0.97892 0.0
H267 H 0.31245 0.79224 0.95047 0.0
H268 H 0.25087 0.66063 0.04093 0.0
H269 H 0.15227 0.67195 0.97102 0.0
H270 H 0.31423 0.77357 0.06852 0.0
H271 H 0.35409 0.77716 0.03641 0.0
H272 H 0.32672 0.7263 0.06078 0.0
H273 H 0.18944 0.78757 0.98473 0.0
H274 H 0.16406 0.74346 0.95377 0.0
H275 H 0.23045 0.78961 0.95373 0.0
C276 C 0.49957 0.19646 0.08802 0.0
C277 C 0.45175 0.16221 0.07552 0.0
C278 C 0.50912 0.24185 0.09344 0.0
C279 C 0.4695 0.25228 0.08645 0.0
C280 C 0.41868 0.21587 0.07948 0.0
C281 C 0.41047 0.17094 0.07336 0.0
C282 C 0.56353 0.27965 0.10173 0.0
C283 C 0.37481 0.22561 0.07418 0.0
C284 C 0.50867 0.38041 0.08634 0.0
C285 C 0.51897 0.38975 0.05435 0.0
C286 C 0.49034 0.33512 0.09739 0.0
C287 C 0.48454 0.29961 0.07595 0.0
C288 C 0.49559 0.30946 0.04361 0.0
C289 C 0.51188 0.35434 0.03319 0.0
C290 C 0.478 0.32595 0.13185 0.0
C291 C 0.49098 0.2729 0.01988 0.0
H292 H 0.53108 0.18911 0.09065 0.0
H293 H 0.3729 0.14374 0.06479 0.0
H294 H 0.56328 0.30466 0.11928 0.0
H295 H 0.58735 0.2651 0.11136 0.0
H296 H 0.58217 0.29929 0.0802 0.0
H297 H 0.33677 0.19375 0.07732 0.0
H298 H 0.37836 0.2535 0.09064 0.0
H299 H 0.37597 0.2377 0.04973 0.0
H300 H 0.5139 0.40815 0.10254 0.0
H301 H 0.52005 0.36199 1.00844 0.0
H302 H 0.51372 0.3339 0.14532 0.0
H303 H 0.44849 0.28912 0.13596 0.0
H304 H 0.46394 0.349 0.14146 0.0
H305 H 0.51475 0.25741 0.02779 0.0
H306 H 0.50369 0.28735 0.99605 0.0
H307 H 0.45026 0.24438 0.01777 0.0
C308 C 0.64984 0.10343 0.05338 0.0
C309 C 0.60628 0.1024 0.03956 0.0
C310 C 0.6978 0.14475 0.05526 0.0
C311 C 0.70297 0.18602 0.04203 0.0
C312 C 0.65838 0.18573 0.02937 0.0
C313 C 0.6103 0.14391 0.02858 0.0
C314 C 0.74358 0.14351 0.06993 0.0
C315 C 0.66207 0.22864 1.01465 0.0
C316 C 0.82695 0.30056 0.0614 0.0
C317 C 0.85837 0.30371 0.03613 0.0
C318 C 0.77616 0.26289 0.0635 0.0
C319 C 0.75574 0.22793 0.03938 0.0
C320 C 0.78712 0.2315 1.0135 0.0
C321 C 0.83818 0.26901 1.01238 0.0
C322 C 0.74472 0.26005 0.09183 0.0
C323 C 0.76678 0.19555 0.98698 0.0
H324 H 0.64681 0.07124 0.06174 0.0
H325 H 0.57687 0.14298 0.01734 0.0
H326 H 0.77097 0.14704 0.05129 0.0
H327 H 0.76458 0.17317 0.08688 0.0
H328 H 0.73195 0.11048 0.08245 0.0
H329 H 0.62337 0.22448 1.00931 0.0
H330 H 0.68395 0.25962 0.03041 0.0
H331 H 0.68346 0.23564 0.99233 0.0
H332 H 0.84231 0.32741 0.07979 0.0
H333 H 0.86204 0.27158 0.9926 0.0
H334 H 0.73489 0.22791 0.10497 0.0
H335 H 0.70776 0.25775 0.08418 0.0
H336 H 0.76562 0.29062 0.10815 0.0
H337 H 0.75847 0.16119 0.99607 0.0
H338 H 0.7946 0.20497 0.96753 0.0
H339 H 0.72994 0.19145 0.97726 0.0
C340 C 0.93153 0.54818 1.00178 0.0
C341 C 0.93605 0.51805 0.02334 0.0
C342 C 0.88913 0.55647 1.00134 0.0
C343 C 0.84924 0.53519 0.02359 0.0
C344 C 0.85279 0.50383 0.04519 0.0
C345 C 0.89566 0.49548 0.04474 0.0
C346 C 0.88779 0.58917 0.97721 0.0
C347 C 0.81213 0.48034 0.06965 0.0
C348 C 0.76998 0.59857 0.03854 0.0
C349 C 0.72443 0.57204 0.02028 0.0
C350 C 0.80954 0.58614 0.04076 0.0
C351 C 0.80476 0.54641 0.02398 0.0
C352 C 0.75867 0.51955 1.00561 0.0
C353 C 0.71947 0.53226 1.00426 0.0
C354 C 0.85694 0.61597 0.06105 0.0
C355 C 0.75111 0.47764 0.98662 0.0
H356 H 0.9623 0.56639 0.98524 0.0
H357 H 0.89866 0.47304 0.06209 0.0
H358 H 0.85057 0.57177 0.96369 0.0
H359 H 0.89047 0.62029 0.98929 0.0
H360 H 0.91987 0.60101 0.96035 0.0
H361 H 0.8184 0.45532 0.08375 0.0
H362 H 0.81249 0.50713 0.08586 0.0
H363 H 0.77319 0.46145 0.05821 0.0
H364 H 0.77471 0.6291 0.0513 0.0
H365 H 0.68486 0.51109 0.99004 0.0
H366 H 0.89139 0.63306 0.04604 0.0
H367 H 0.86357 0.59389 0.07792 0.0
H368 H 0.85367 0.64341 0.07452 0.0
H369 H 0.78153 0.48875 0.96868 0.0
H370 H 0.71271 0.45921 0.97437 0.0
H371 H 0.75505 0.45272 1.00216 0.0
C372 C 0.82506 0.79776 0.31137 0.0
C373 C 0.79935 0.76715 0.3358 0.0
C374 C 0.87795 0.81669 0.30791 0.0
C375 C 0.9054 0.8041 0.32926 0.0
C376 C 0.87939 0.77161 0.35325 0.0
C377 C 0.82612 0.75337 0.3563 0.0
C378 C 0.90469 0.85165 0.2823 0.0
C379 C 0.90809 0.75755 0.37628 0.0
C380 C 0.0379 0.8285 0.30664 0.0
C381 C 0.06893 0.86806 0.32545 0.0
C382 C 0.98417 0.80721 0.30754 0.0
C383 C 0.96176 0.8268 0.32724 0.0
C384 C 0.99305 0.86852 0.34472 0.0
C385 C 0.04667 0.88865 0.34372 0.0
C386 C 0.95148 0.76273 0.28861 0.0
C387 C 0.96994 0.89086 0.36527 0.0
H388 H 0.8041 0.80802 0.2953 0.0
H389 H 0.80591 0.72984 0.37525 0.0
H390 H 0.92768 0.84097 0.26759 0.0
H391 H 0.87696 0.85569 0.26667 0.0
H392 H 0.93194 0.8862 0.29315 0.0
H393 H 0.8815 0.72913 0.39183 0.0
H394 H 0.93195 0.74587 0.36341 0.0
H395 H 0.93472 0.7881 0.39132 0.0
H396 H 0.05548 0.81259 0.29267 0.0
H397 H 0.07112 0.91939 0.35818 0.0
H398 H 0.9235 0.76649 0.27312 0.0
H399 H 0.92876 0.73375 0.30481 0.0
H400 H 0.97515 0.75293 0.27374 0.0
H401 H 0.94256 0.89738 0.35118 0.0
H402 H 0.99988 0.92443 0.37617 0.0
H403 H 0.9477 0.86689 0.38436 0.0
C404 C 0.22302 0.19794 0.31791 0.0
C405 C 0.18206 0.19397 0.3362 0.0
C406 C 0.23972 0.16442 0.31916 0.0
C407 C 0.21604 0.12602 0.3398 0.0
C408 C 0.17425 0.12166 0.35806 0.0
C409 C 0.15757 0.1551 0.3558 0.0
C410 C 0.28339 0.1705 0.29857 0.0
C411 C 0.14794 0.08225 0.38081 0.0
C412 C 0.23386 0.01797 0.3286 0.0
C413 C 0.27387 0.02678 0.35044 0.0
C414 C 0.21496 0.04965 0.32477 0.0
C415 C 0.23616 0.09167 0.34321 0.0
C416 C 0.27672 0.10068 0.36521 0.0
C417 C 0.29497 0.06852 0.36844 0.0
C418 C 0.17207 0.03803 0.30087 0.0
C419 C 0.30068 0.14433 0.38571 0.0
H420 H 0.24239 0.22758 0.30265 0.0
H421 H 0.12612 0.15149 0.37023 0.0
H422 H 0.3172 0.17686 0.31352 0.0
H423 H 0.27162 0.13812 0.28446 0.0
H424 H 0.29551 0.20005 0.28223 0.0
H425 H 0.11524 0.08272 0.39274 0.0
H426 H 0.13315 0.04821 0.36825 0.0
H427 H 0.17631 0.08468 0.39906 0.0
H428 H 0.21703 0.98601 0.31451 0.0
H429 H 0.32572 0.07596 0.38547 0.0
H430 H 0.18449 0.06657 0.28371 0.0
H431 H 0.13775 0.03505 0.31285 0.0
H432 H 0.16045 1.00483 0.28778 0.0
H433 H 0.31698 0.17562 0.37077 0.0
H434 H 0.3319 0.14663 0.40157 0.0
H435 H 0.27059 0.14522 0.40033 0.0
C436 C 0.96439 0.21334 0.3671 0.0
C437 C 1.00666 0.23815 0.3475 0.0
C438 C 0.93532 0.16384 0.36578 0.0
C439 C 0.94842 0.13814 0.34423 0.0
C440 C 0.99138 0.16329 0.32461 0.0
C441 C 1.01958 0.21253 0.32643 0.0
C442 C 0.8905 0.13897 0.38752 0.0
C443 C 1.00762 0.13819 0.30146 0.0
C444 C 0.89752 1.0064 0.3553 0.0
C445 C 0.8553 0.98574 0.33384 0.0
C446 C 0.92802 0.05562 0.35902 0.0
C447 C 0.91613 0.08537 0.34102 0.0
C448 C 0.87384 0.06449 0.31913 0.0
C449 C 0.84427 0.01538 0.31581 0.0
C450 C 0.97283 0.07583 0.38242 0.0
C451 C 0.85944 0.09416 0.29924 0.0
H452 H 0.95437 0.23257 0.38375 0.0
H453 H 0.05213 0.23116 0.31115 0.0
H454 H 0.85424 0.11824 0.37344 0.0
H455 H 0.89622 0.11422 0.40221 0.0
H456 H 0.88574 0.16354 0.40337 0.0
H457 H 0.04275 0.16254 0.28855 0.0
H458 H 1.0155 0.11297 0.314 0.0
H459 H 0.97581 0.11798 0.28404 0.0
H460 H 0.90634 0.98406 0.36954 0.0
H461 H 0.81166 1.00008 0.29931 0.0
H462 H 0.96745 0.09775 0.40031 0.0
H463 H 1.00928 0.09878 0.37022 0.0
H464 H 0.97714 0.04837 0.39472 0.0
H465 H 0.85061 0.11652 0.3147 0.0
H466 H 0.82542 0.07287 0.28344 0.0
H467 H 0.89252 0.11766 0.28457 0.0
C468 C 0.24503 0.75352 0.35664 0.0
C469 C 0.21174 0.7667 0.37104 0.0
C470 C 0.23456 0.70622 0.35649 0.0
C471 C 0.19013 0.67057 0.37157 0.0
C472 C 0.15795 0.68447 0.38727 0.0
C473 C 0.16853 0.73141 0.38632 0.0
C474 C 0.2699 0.69402 0.33881 0.0
C475 C 0.11109 0.64929 0.40454 0.0
C476 C 0.12506 0.53896 0.34681 0.0
C477 C 0.14397 0.51998 0.36955 0.0
C478 C 0.14074 0.58742 0.34668 0.0
C479 C 0.17586 0.61879 0.37019 0.0
C480 C 0.19496 0.59966 0.39324 0.0
C481 C 0.17943 0.55124 0.39243 0.0
C482 C 0.11965 0.60514 0.32108 0.0
C483 C 0.23147 0.63037 0.41924 0.0
H484 H 0.27771 0.7796 0.34393 0.0
H485 H 0.14188 0.74045 0.39721 0.0
H486 H 0.28278 0.6745 0.3541 0.0
H487 H 0.24848 0.67088 0.31831 0.0
H488 H 0.30449 0.72544 0.33011 0.0
H489 H 0.09242 0.66588 0.41789 0.0
H490 H 0.08232 0.62349 0.38745 0.0
H491 H 0.12205 0.62984 0.42125 0.0
H492 H 0.0983 0.5159 0.32867 0.0
H493 H 0.19493 0.5377 0.41007 0.0
H494 H 0.15192 0.63447 0.30889 0.0
H495 H 0.0958 0.61878 0.33163 0.0
H496 H 0.09556 0.57753 0.30331 0.0
H497 H 0.26653 0.65948 0.40903 0.0
H498 H 0.24346 0.61087 0.43526 0.0
H499 H 0.21266 0.64608 0.43335 0.0
C500 C 0.26933 0.46881 0.3624 0.0
C501 C 0.26262 0.43112 0.38066 0.0
C502 C 0.31683 0.51055 0.36254 0.0
C503 C 0.35828 0.51489 0.38182 0.0
C504 C 0.3503 0.47824 0.40216 0.0
C505 C 0.30263 0.43653 0.4011 0.0
C506 C 0.32366 0.54852 0.3403 0.0
C507 C 0.39302 0.48203 0.42373 0.0
C508 C 0.49466 0.58984 0.3526 0.0
C509 C 0.51125 0.63155 0.36967 0.0
C510 C 0.44482 0.55182 0.35623 0.0
C511 C 0.41122 0.55526 0.37806 0.0
C512 C 0.42816 0.59715 0.39577 0.0
C513 C 0.47787 0.63508 0.39107 0.0
C514 C 0.42788 0.50815 0.33637 0.0
C515 C 0.39389 0.6018 0.41971 0.0
H516 H 0.23847 0.46474 0.34649 0.0
H517 H 0.29734 0.40751 0.41539 0.0
H518 H 0.34225 0.58294 0.3527 0.0
H519 H 0.34946 0.5506 0.32101 0.0
H520 H 0.2863 0.54199 0.32964 0.0
H521 H 0.37859 0.4536 0.44113 0.0
H522 H 0.42295 0.48022 0.40951 0.0
H523 H 0.41196 0.51609 0.43666 0.0
H524 H 0.52036 0.58722 0.3359 0.0
H525 H 0.49082 0.66737 0.40436 0.0
H526 H 0.39253 0.49999 0.32237 0.0
H527 H 0.41807 0.4781 0.3518 0.0
H528 H 0.4582 0.51156 0.31992 0.0
H529 H 0.3582 0.59733 0.40793 0.0
H530 H 0.41346 0.63618 0.43228 0.0
H531 H 0.38186 0.57389 0.43734 0.0
C532 C 0.49693 0.95538 0.37585 0.0
C533 C 0.45375 0.93384 0.39487 0.0
C534 C 0.53444 0.94171 0.37706 0.0
C535 C 0.52761 0.9055 0.3975 0.0
C536 C 0.48762 0.88818 0.41956 0.0
C537 C 0.45105 0.90286 0.41808 0.0
C538 C 0.57785 0.96205 0.35389 0.0
C539 C 0.47969 0.85013 0.44201 0.0
C540 C 0.56523 0.82621 0.35592 0.0
C541 C 0.61462 0.8423 0.36864 0.0
C542 C 0.53459 0.84412 0.36709 0.0
C543 C 0.55496 0.87958 0.39094 0.0
C544 C 0.60357 0.89338 0.40539 0.0
C545 C 0.63305 0.87432 0.39398 0.0
C546 C 0.4822 0.82772 0.35165 0.0
C547 C 0.62644 0.93096 0.43082 0.0
H548 H 0.49927 0.97996 0.35829 0.0
H549 H 0.41794 0.88691 0.43326 0.0
H550 H 0.61482 0.96925 0.36539 0.0
H551 H 0.56928 0.9365 0.3343 0.0
H552 H 0.58282 0.99486 0.34371 0.0
H553 H 0.45491 0.84817 0.46192 0.0
H554 H 0.46046 0.81604 0.42911 0.0
H555 H 0.51712 0.85556 0.45166 0.0
H556 H 0.55177 0.80158 0.33614 0.0
H557 H 0.67189 0.88684 0.40335 0.0
H558 H 0.48336 0.85613 0.3373 0.0
H559 H 0.45248 0.81893 0.36979 0.0
H560 H 0.47007 0.79663 0.336 0.0
H561 H 0.64338 0.96561 0.41971 0.0
H562 H 0.65756 0.92941 0.44457 0.0
H563 H 0.5965 0.92826 0.44725 0.0
C564 C 0.74559 0.19211 0.66077 0.0
C565 C 0.7762 0.21474 0.68792 0.0
C566 C 0.69128 0.17637 0.65918 0.0
C567 C 0.66581 0.18393 0.68502 0.0
C568 C 0.69719 0.20829 0.71196 0.0
C569 C 0.75084 0.22239 0.71324 0.0
C570 C 0.66059 0.14986 0.63013 0.0
C571 C 0.67386 0.21903 0.73994 0.0
C572 C 0.53047 0.17448 0.67179 0.0
C573 C 0.49568 0.13154 0.68532 0.0
C574 C 0.585 0.19194 0.67176 0.0
C575 C 0.60673 0.16545 0.68448 0.0
C576 C 0.57151 0.12156 0.6976 0.0
C577 C 0.51734 0.10573 0.69827 0.0
C578 C 0.61957 0.23944 0.65847 0.0
C579 C 0.59107 0.09091 0.71097 0.0
H580 H 0.76357 0.18471 0.6412 0.0
H581 H 0.77319 0.23921 0.73457 0.0
H582 H 0.63075 0.11414 0.63663 0.0
H583 H 0.64007 0.16712 0.61989 0.0
H584 H 0.68532 0.14719 0.6118 0.0
H585 H 0.70357 0.24168 0.75789 0.0
H586 H 0.6522 0.23661 0.73213 0.0
H587 H 0.64591 0.18613 0.75126 0.0
H588 H 0.51508 0.19502 0.66145 0.0
H589 H 0.49168 0.07251 0.70876 0.0
H590 H 0.64016 0.23622 0.63786 0.0
H591 H 0.64935 0.26197 0.67639 0.0
H592 H 0.59769 0.25699 0.65097 0.0
H593 H 0.61445 0.08511 0.69324 0.0
H594 H 0.55914 0.05652 0.71821 0.0
H595 H 0.61665 0.10846 0.73182 0.0
C596 C 0.97965 0.44433 0.66164 0.0
C597 C 0.96793 0.40816 0.63988 0.0
C598 C 0.96174 0.47574 0.65659 0.0
C599 C 0.93091 0.4701 0.62936 0.0
C600 C 0.92326 0.43639 0.60589 0.0
C601 C 0.94238 0.40589 0.61134 0.0
C602 C 0.97194 0.51224 0.68175 0.0
C603 C 0.89072 0.42944 0.57655 0.0
C604 C 0.83094 0.50482 0.64741 0.0
C605 C 0.85464 0.5501 0.63592 0.0
C606 C 0.85368 0.47689 0.64329 0.0
C607 C 0.90154 0.49531 0.62781 0.0
C608 C 0.92364 0.53983 0.61425 0.0
C609 C 0.89959 0.56667 0.61828 0.0
C610 C 0.82828 0.42894 0.65736 0.0
C611 C 0.97461 0.56061 0.59768 0.0
H612 H 0.99975 0.44614 0.6836 0.0
H613 H 0.9334 0.37783 0.59446 0.0
H614 H 0.98443 0.54658 0.67098 0.0
H615 H 0.93577 0.50231 0.69449 0.0
H616 H 1.00202 0.51603 0.69921 0.0
H617 H 0.8966 0.40833 0.55821 0.0
H618 H 0.8493 0.41097 0.58275 0.0
H619 H 0.89953 0.46338 0.56645 0.0
H620 H 0.79592 0.49201 0.66081 0.0
H621 H 0.91781 0.60178 0.60929 0.0
H622 H 0.85157 0.42898 0.67804 0.0
H623 H 0.82654 0.40282 0.63996 0.0
H624 H 0.78847 0.4178 0.6652 0.0
H625 H 1.00636 0.57127 0.61548 0.0
H626 H 0.98203 0.59177 0.58401 0.0
H627 H 0.97591 0.53462 0.5815 0.0
C628 C 0.6945 0.55153 0.64761 0.0
C629 C 0.678 0.57529 0.66773 0.0
C630 C 0.66903 0.50256 0.6463 0.0
C631 C 0.62498 0.47676 0.66487 0.0
C632 C 0.60758 0.5007 0.68478 0.0
C633 C 0.63452 0.54971 0.68612 0.0
C634 C 0.68943 0.47848 0.62522 0.0
C635 C 0.56045 0.47454 0.7047 0.0
C636 C 0.52448 0.3529 0.6406 0.0
C637 C 0.53301 0.32673 0.66328 0.0
C638 C 0.55512 0.40167 0.64028 0.0
C639 C 0.59592 0.42478 0.66284 0.0
C640 C 0.60665 0.39821 0.68461 0.0
C641 C 0.57468 0.34944 0.68477 0.0
C642 C 0.54206 0.42862 0.61685 0.0
C643 C 0.65068 0.42146 0.70846 0.0
H644 H 0.72777 0.57131 0.63307 0.0
H645 H 0.62177 0.56801 0.70175 0.0
H646 H 0.69683 0.45402 0.63912 0.0
H647 H 0.66013 0.45755 0.60664 0.0
H648 H 0.72577 0.5036 0.61367 0.0
H649 H 0.55161 0.49834 0.71862 0.0
H650 H 0.52638 0.4517 0.6894 0.0
H651 H 0.56639 0.45173 0.72123 0.0
H652 H 0.49218 0.33546 0.62401 0.0
H653 H 0.58145 0.32922 0.70225 0.0
H654 H 0.57677 0.45252 0.60352 0.0
H655 H 0.52918 0.45045 0.62963 0.0
H656 H 0.51099 0.40536 0.59979 0.0
H657 H 0.68696 0.44578 0.69658 0.0
H658 H 0.65699 0.39575 0.72165 0.0
H659 H 0.64242 0.44241 0.72562 0.0
C660 C 0.76072 0.8524 0.6888 0.0
C661 C 0.76421 0.82633 0.71343 0.0
C662 C 0.77299 0.89859 0.69414 0.0
C663 C 0.78711 0.91801 0.72508 0.0
C664 C 0.78547 0.89011 0.75056 0.0
C665 C 0.77502 0.84454 0.74429 0.0
C666 C 0.77519 0.92762 0.66625 0.0
C667 C 0.79794 0.90918 0.784 0.0
C668 C 0.88388 0.04603 0.72394 0.0
C669 C 0.85086 0.06464 0.72344 0.0
C670 C 0.86375 0.99794 0.72644 0.0
C671 C 0.80974 0.96873 0.7296 0.0
C672 C 0.7771 0.9882 0.73231 0.0
C673 C 0.79803 0.03615 0.72849 0.0
C674 C 0.89962 0.97819 0.72292 0.0
C675 C 0.71976 0.9582 0.73712 0.0
H676 H 0.75242 0.83797 0.66495 0.0
H677 H 0.77709 0.82377 0.7633 0.0
H678 H 0.75187 0.94476 0.67057 0.0
H679 H 0.8157 0.95558 0.66293 0.0
H680 H 0.76084 0.90651 0.64403 0.0
H681 H 0.78387 0.88079 0.80142 0.0
H682 H 0.8404 0.93113 0.78733 0.0
H683 H 0.78057 0.93146 0.78905 0.0
H684 H 0.92481 0.06855 0.72007 0.0
H685 H 0.77287 0.05118 0.72858 0.0
H686 H 0.89013 0.95754 0.70053 0.0
H687 H 0.89449 0.95431 0.74245 0.0
H688 H 0.94088 1.0059 0.72265 0.0
H689 H 0.70038 0.94056 0.71451 0.0
H690 H 0.70223 0.97919 0.74537 0.0
H691 H 0.71191 0.93069 0.75451 0.0
C692 C 0.98148 0.77469 0.7205 0.0
C693 C 0.93906 0.77262 0.70426 0.0
C694 C 0.02972 0.81578 0.72197 0.0
C695 C 0.03639 0.85585 0.70608 0.0
C696 C 0.99285 0.85474 0.69098 0.0
C697 C 0.94448 0.81314 0.69045 0.0
C698 C 0.07432 0.81537 0.73905 0.0
C699 C 0.99811 0.89642 0.67358 0.0
C700 C 0.16034 0.97083 0.72485 0.0
C701 C 0.19314 0.97209 0.70097 0.0
C702 C 0.10908 0.9338 0.72654 0.0
C703 C 0.08967 0.89725 0.70353 0.0
C704 C 0.12253 0.89873 0.67911 0.0
C705 C 0.17388 0.9359 0.67825 0.0
C706 C 0.07593 0.93346 0.75322 0.0
C707 C 0.10348 0.86086 0.65389 0.0
H708 H 0.97749 0.74327 0.73098 0.0
H709 H 0.91207 0.81141 0.6773 0.0
H710 H 0.10283 0.8174 0.72169 0.0
H711 H 0.09444 0.8462 0.75518 0.0
H712 H 0.06161 0.78333 0.75297 0.0
H713 H 0.95996 0.89201 0.66624 0.0
H714 H 1.019 0.92855 0.68845 0.0
H715 H 1.02119 0.90156 0.65217 0.0
H716 H 0.17485 0.99885 0.7424 0.0
H717 H 0.19877 0.93693 0.65952 0.0
H718 H 0.06467 0.9023 0.76782 0.0
H719 H 0.03979 0.93103 0.74371 0.0
H720 H 0.09613 0.96513 0.76867 0.0
H721 H 0.09377 0.82711 0.66472 0.0
H722 H 0.13263 0.86842 0.6355 0.0
H723 H 0.06764 0.85657 0.6424 0.0
C724 C 0.27309 0.22982 0.70275 0.0
C725 C 0.27053 0.18788 0.69255 0.0
C726 C 0.22995 0.23693 0.70143 0.0
C727 C 0.18148 0.20152 0.68917 0.0
C728 C 0.17785 0.15825 0.67967 0.0
C729 C 0.22204 0.15189 0.6815 0.0
C730 C 0.23701 0.28349 0.71226 0.0
C731 C 0.12762 0.11914 0.66637 0.0
C732 C 0.06299 0.2175 0.70683 0.0
C733 C 0.05856 0.23972 0.67972 0.0
C734 C 0.10114 0.20353 0.70982 0.0
C735 C 0.13635 0.21139 0.68511 0.0
C736 C 0.13104 0.23283 0.65741 0.0
C737 C 0.09281 0.24661 0.65512 0.0
C738 C 0.10443 0.18108 0.73988 0.0
C739 C 0.16653 0.24201 0.63012 0.0
H740 H 0.30997 0.25823 0.71122 0.0
H741 H 0.21909 0.11958 0.67295 0.0
H742 H 0.23142 0.30152 0.69192 0.0
H743 H 0.20754 0.27841 0.72984 0.0
H744 H 0.27596 0.30656 0.72296 0.0
H745 H 0.12898 0.08636 0.66296 0.0
H746 H 0.09543 0.11239 0.6822 0.0
H747 H 0.11882 0.1294 0.64326 0.0
H748 H 0.03686 0.21141 0.726 0.0
H749 H 0.08988 0.26312 0.63384 0.0
H750 H 0.14175 0.20419 0.75235 0.0
H751 H 0.10342 0.14769 0.73442 0.0
H752 H 0.07247 0.17418 0.756 0.0
H753 H 0.20701 0.26662 0.63775 0.0
H754 H 0.15643 0.25698 0.6097 0.0
H755 H 0.16488 0.20911 0.6223 0.0
C756 C 0.12361 0.35329 0.23114 0.0
C757 C 0.14615 0.38359 0.25734 0.0
C758 C 0.11701 0.37006 0.20163 0.0
C759 C 0.13288 0.41821 0.19811 0.0
C760 C 0.1584 0.44905 0.22402 0.0
C761 C 0.16487 0.43156 0.25289 0.0
C762 C 0.09052 0.33579 0.17465 0.0
C763 C 0.17592 0.50041 0.22204 0.0
C764 C 0.13868 0.47276 0.11686 0.0
C765 C 0.09032 0.47042 0.11461 0.0
C766 C 0.15286 0.45536 0.14341 0.0
C767 C 0.11843 0.43588 0.16888 0.0
C768 C 0.07033 0.43502 0.16705 0.0
C769 C 0.05673 0.45152 0.13998 0.0
C770 C 0.20401 0.45637 0.14368 0.0
C771 C 0.0326 0.4159 0.19359 0.0
H772 H 0.10847 0.31623 0.23413 0.0
H773 H 0.18268 0.45561 0.27276 0.0
H774 H 0.05117 0.33073 0.17071 0.0
H775 H 0.11199 0.34952 0.15256 0.0
H776 H 0.08707 0.30133 0.17935 0.0
H777 H 0.19894 0.52049 0.24322 0.0
H778 H 0.19954 0.51538 0.20086 0.0
H779 H 0.14166 0.50513 0.2197 0.0
H780 H 0.16437 0.48589 0.09708 0.0
H781 H 1.01896 0.44874 0.13835 0.0
H782 H 0.19739 0.42027 0.14517 0.0
H783 H 0.22746 0.47599 0.16481 0.0
H784 H 0.22654 0.47259 0.12226 0.0
H785 H 1.02076 0.37871 0.1971 0.0
H786 H 0.99738 0.41859 0.189 0.0
H787 H 0.05134 0.43507 0.21595 0.0
C788 C 0.60892 0.71538 0.2423 0.0
C789 C 0.65931 0.75153 0.24985 0.0
C790 C 0.59744 0.68837 0.21427 0.0
C791 C 0.63709 0.69746 0.19271 0.0
C792 C 0.68788 0.7345 0.19979 0.0
C793 C 0.69838 0.76097 0.22818 0.0
C794 C 0.54269 0.64969 0.20785 0.0
C795 C 0.73134 0.7459 0.17747 0.0
C796 C 0.61488 0.60361 0.12973 0.0
C797 C 0.59985 0.61948 0.1032 0.0
C798 C 0.62712 0.62842 0.15903 0.0
C799 C 0.62449 0.6702 0.16193 0.0
C800 C 0.60857 0.68576 0.13531 0.0
C801 C 0.59637 0.66035 0.10664 0.0
C802 C 0.64339 0.61024 0.18684 0.0
C803 C 0.60486 0.72975 0.13695 0.0
H804 H 0.57823 0.70737 0.25872 0.0
H805 H 0.73756 0.78821 0.23377 0.0
H806 H 0.52731 0.65647 0.18577 0.0
H807 H 0.54199 0.61602 0.20441 0.0
H808 H 0.5165 0.64605 0.22734 0.0
H809 H 0.76877 0.77516 0.18645 0.0
H810 H 0.73574 0.71477 0.17359 0.0
H811 H 0.72211 0.75537 0.15419 0.0
H812 H 0.61804 0.57239 0.12748 0.0
H813 H 0.58462 0.67324 0.08657 0.0
H814 H 0.61733 0.60433 0.20681 0.0
H815 H 0.68299 0.63657 0.19494 0.0
H816 H 0.64286 0.57709 0.18108 0.0
H817 H 0.57697 0.72653 0.15515 0.0
H818 H 0.59235 0.7375 0.11408 0.0
H819 H 0.64293 0.75988 0.14401 0.0
C820 C 0.38945 0.90746 0.1147 0.0
C821 C 0.42861 0.954 0.1114 0.0
C822 C 0.36431 0.89141 0.14383 0.0
C823 C 0.37839 0.92262 0.17029 0.0
C824 C 0.41951 0.96894 0.16724 0.0
C825 C 0.44394 0.98381 0.13814 0.0
C826 C 0.32113 0.84165 0.14581 0.0
C827 C 0.43633 1.00375 0.19442 0.0
C828 C 0.28655 0.90957 0.23696 0.0
C829 C 0.30754 0.89722 0.26251 0.0
C830 C 0.30737 0.91551 0.20646 0.0
C831 C 0.34986 0.90829 0.20099 0.0
C832 C 0.36905 0.89305 0.2263 0.0
C833 C 0.34813 0.88816 0.25662 0.0
C834 C 0.28569 0.93212 0.18047 0.0
C835 C 0.4134 0.88391 0.22174 0.0
H836 H 0.37652 0.8843 0.09416 0.0
H837 H 0.47404 0.01985 0.13594 0.0
H838 H 0.32543 0.8255 0.16763 0.0
H839 H 0.28362 0.84102 0.14686 0.0
H840 H 0.31979 0.82014 0.12509 0.0
H841 H 0.4697 0.03813 0.18853 0.0
H842 H 0.40375 0.00902 0.20126 0.0
H843 H 0.44722 0.99025 0.21529 0.0
H844 H 0.25536 0.91679 0.24106 0.0
H845 H 0.3645 0.87814 0.27597 0.0
H846 H 0.27708 0.90978 0.15899 0.0
H847 H 0.31488 0.96816 0.17415 0.0
H848 H 0.24988 0.93205 0.18748 0.0
H849 H 0.40648 0.86179 0.20032 0.0
H850 H 0.41943 0.86648 0.24234 0.0
H851 H 0.44948 0.9174 0.21824 0.0
C852 C 0.4764 0.11511 0.92647 0.0
C853 C 0.46933 0.0698 0.92905 0.0
C854 C 0.47155 0.13286 0.89725 0.0
C855 C 0.45894 0.10483 0.86941 0.0
C856 C 0.45367 0.05971 0.87157 0.0
C857 C 0.45907 0.04286 0.90119 0.0
C858 C 0.47798 0.18116 0.89644 0.0
C859 C 0.44019 0.02837 0.84271 0.0
C860 C 0.38213 0.12348 0.80342 0.0
C861 C 0.41936 0.14698 0.78042 0.0
C862 C 0.39477 0.11048 0.83233 0.0
C863 C 0.44622 0.12086 0.8389 0.0
C864 C 0.48457 0.14611 0.81628 0.0
C865 C 0.47076 0.15889 0.7874 0.0
C866 C 0.35239 0.08412 0.85548 0.0
C867 C 0.5399 0.15816 0.8221 0.0
H868 H 0.48487 0.13676 0.94756 0.0
H869 H 0.45347 0.0079 0.90263 0.0
H870 H 0.50518 0.20183 0.87778 0.0
H871 H 0.44026 0.17864 0.89057 0.0
H872 H 0.49249 0.20029 0.91936 0.0
H873 H 0.4418 0.99611 0.84757 0.0
H874 H 0.40059 0.01831 0.83414 0.0
H875 H 0.46697 0.04717 0.82342 0.0
H876 H 0.34225 0.11384 0.79838 0.0
H877 H 0.49973 0.17611 0.76967 0.0
H878 H 0.36274 0.10273 0.87868 0.0
H879 H 0.3479 0.04909 0.85919 0.0
H880 H 0.3146 0.07969 0.84727 0.0
H881 H 0.5544 0.17689 0.84511 0.0
H882 H 0.56572 0.18014 0.80325 0.0
H883 H 0.54215 0.12565 0.82332 0.0
C884 C 0.96091 0.40827 0.91192 0.0
C885 C 1.01173 0.43897 0.9228 0.0
C886 C 0.9504 0.38461 0.88251 0.0
C887 C 0.99162 0.39108 0.86305 0.0
C888 C 0.04308 0.42323 0.87335 0.0
C889 C 0.05252 0.44687 0.90296 0.0
C890 C 0.89491 0.35153 0.87267 0.0
C891 C 0.08834 0.4314 0.85357 0.0
C892 C 0.96215 0.29288 0.80214 0.0
C893 C 0.95351 0.31073 0.77418 0.0
C894 C 0.97554 0.31888 0.83095 0.0
C895 C 0.98039 0.36396 0.83215 0.0
C896 C 0.97176 0.38207 0.80397 0.0
C897 C 0.95862 0.35549 0.77559 0.0
C898 C 0.98428 0.29794 0.86023 0.0
C899 C 0.97589 0.42953 0.80381 0.0
H900 H 0.92895 0.40171 0.92693 0.0
H901 H 0.09192 0.46978 0.9112 0.0
H902 H 0.88636 0.361 0.84921 0.0
H903 H 0.88848 0.31551 0.87047 0.0
H904 H 0.86712 0.35166 0.8898 0.0
H905 H 0.12575 0.4588 0.86401 0.0
H906 H 0.08966 0.39851 0.85111 0.0
H907 H 0.08372 0.44183 0.82948 0.0
H908 H 0.95873 0.25864 0.80152 0.0
H909 H 0.95227 0.37007 0.75433 0.0
H910 H 0.95557 0.2936 0.87817 0.0
H911 H 1.02317 0.32179 0.87065 0.0
H912 H 0.98105 0.26345 0.85535 0.0
H913 H 0.94681 0.42989 0.81967 0.0
H914 H 0.96975 0.43945 0.77985 0.0
H915 H 1.01453 0.45643 0.81297 0.0
C916 C 0.74951 0.58057 0.78133 0.0
C917 C 0.74147 0.61463 0.76692 0.0
C918 C 0.72582 0.56063 0.81023 0.0
C919 C 0.69255 0.57437 0.82475 0.0
C920 C 0.68257 0.60702 0.80934 0.0
C921 C 0.70717 0.62673 0.781 0.0
C922 C 0.7377 0.52605 0.82575 0.0
C923 C 0.647 0.6225 0.8233 0.0
C924 C 0.59788 0.51252 0.89135 0.0
C925 C 0.62434 0.54209 0.91721 0.0
C926 C 0.62106 0.52021 0.86143 0.0
C927 C 0.67157 0.55861 0.85724 0.0
C928 C 0.69922 0.58663 0.88394 0.0
C929 C 0.67532 0.57807 0.91338 0.0
C930 C 0.59018 0.48907 0.83387 0.0
C931 C 0.75282 0.62802 0.88101 0.0
H932 H 0.77551 0.57062 0.7706 0.0
H933 H 0.69943 0.65208 0.76981 0.0
H934 H 0.76102 0.54192 0.84768 0.0
H935 H 0.70145 0.49467 0.83259 0.0
H936 H 0.75955 0.51511 0.81012 0.0
H937 H 0.64044 0.64566 0.80738 0.0
H938 H 0.60905 0.59175 0.82841 0.0
H939 H 0.6638 0.64156 0.84598 0.0
H940 H 0.55831 0.48496 0.89409 0.0
H941 H 0.69581 0.60117 0.9333 0.0
H942 H 0.61455 0.4798 0.81932 0.0
H943 H 0.57642 0.50794 0.81857 0.0
H944 H 0.55604 0.45649 0.84168 0.0
H945 H 0.77776 0.61807 0.86768 0.0
H946 H 0.77148 0.6428 0.90439 0.0
H947 H 0.75056 0.65573 0.86768 0.0
C948 C 0.72522 0.7803 0.46347 0.0
C949 C 0.75915 0.79993 0.43837 0.0
C950 C 0.74148 0.77069 0.49231 0.0
C951 C 0.79327 0.78075 0.49654 0.0
C952 C 0.82844 0.80224 0.47171 0.0
C953 C 0.811 0.81166 0.44292 0.0
C954 C 0.70248 0.74822 0.51796 0.0
C955 C 0.88397 0.81369 0.4751 0.0
C956 C 0.83019 0.78246 0.58331 0.0
C957 C 0.82013 0.73651 0.5875 0.0
C958 C 0.8252 0.79837 0.55346 0.0
C959 C 0.8093 0.76764 0.52687 0.0
C960 C 0.80208 0.72209 0.53058 0.0
C961 C 0.80775 0.70715 0.56075 0.0
C962 C 0.83395 0.84731 0.5508 0.0
C963 C 0.78513 0.68802 0.50302 0.0
H964 H 0.6851 0.77116 0.46026 0.0
H965 H 0.83731 0.82608 0.42352 0.0
H966 H 0.69774 0.71348 0.52324 0.0
H967 H 0.7164 0.76972 0.53999 0.0
H968 H 0.66404 0.74367 0.51128 0.0
H969 H 0.90742 0.83368 0.45484 0.0
H970 H 0.90166 0.83421 0.49718 0.0
H971 H 0.88562 0.78094 0.47675 0.0
H972 H 0.84036 0.8058 0.60364 0.0
H973 H 0.79986 0.67164 0.56356 0.0
H974 H 0.7963 0.84593 0.54694 0.0
H975 H 0.85819 0.86482 0.53025 0.0
H976 H 0.85287 0.86884 0.57239 0.0
H977 H 0.74466 0.67739 0.49609 0.0
H978 H 0.78715 0.65619 0.50874 0.0
H979 H 0.80943 0.70462 0.48233 0.0
C980 C 0.26279 0.94346 0.47707 0.0
C981 C 0.25348 0.95717 0.44761 0.0
C982 C 0.2769 0.97329 0.50398 0.0
C983 C 0.28478 0.01922 0.50125 0.0
C984 C 0.27482 0.033 0.47153 0.0
C985 C 0.25845 1.00161 0.44535 0.0
C986 C 0.28436 0.95584 0.53528 0.0
C987 C 0.28407 0.08176 0.46681 0.0
C988 C 0.28272 0.08056 0.57799 0.0
C989 C 0.33524 0.10594 0.58724 0.0
C990 C 0.26613 0.05405 0.54963 0.0
C991 C 0.30276 0.05223 0.5296 0.0
C992 C 0.35618 0.07979 0.53792 0.0
C993 C 0.37179 0.10632 0.56656 0.0
C994 C 0.20896 0.02587 0.542 0.0
C995 C 0.39677 0.07951 0.51725 0.0
H996 H 0.25981 0.90949 0.47895 0.0
H997 H 0.25255 0.01293 0.42257 0.0
H998 H 0.32545 0.97637 0.54314 0.0
H999 H 0.26096 0.96069 0.55349 0.0
H1000 H 0.27319 0.91836 0.53404 0.0
H1001 H 0.26716 0.08483 0.44406 0.0
H1002 H 0.26765 0.09266 0.48626 0.0
H1003 H 0.32633 0.10643 0.46692 0.0
H1004 H 0.25404 0.0798 0.5938 0.0
H1005 H 0.41231 0.12499 0.57362 0.0
H1006 H 0.19629 0.98813 0.5428 0.0
H1007 H 0.20066 0.03311 0.51777 0.0
H1008 H 0.18562 0.03343 0.55877 0.0
H1009 H 0.39342 0.04451 0.51749 0.0
H1010 H 0.43654 0.10578 0.52524 0.0
H1011 H 0.39066 0.08652 0.49248 0.0
C1012 C 0.98204 0.204 0.58634 0.0
C1013 C 0.93682 0.20682 0.5898 0.0
C1014 C 1.00928 0.21584 0.55768 0.0
C1015 C 0.99066 0.23025 0.53146 0.0
C1016 C 0.94305 0.22987 0.53428 0.0
C1017 C 0.91729 0.2188 0.5633 0.0
C1018 C 0.05995 0.21608 0.5563 0.0
C1019 C 0.92069 0.24394 0.50716 0.0
C1020 C 0.08278 0.31717 0.47144 0.0
C1021 C 0.07698 0.28851 0.44515 0.0
C1022 C 0.05668 0.29846 0.49982 0.0
C1023 C 1.02263 0.24969 0.50219 0.0
C1024 C 1.01711 0.22046 0.47584 0.0
C1025 C 0.04455 0.24005 0.44792 0.0
C1026 C 0.0647 0.33126 0.52713 0.0
C1027 C 0.98073 0.16854 0.4767 0.0
H1028 H 0.99832 0.19594 0.60674 0.0
H1029 H 0.88283 0.22174 0.56573 0.0
H1030 H 0.06213 0.19905 0.53413 0.0
H1031 H 0.09217 0.25268 0.55647 0.0
H1032 H 0.06573 0.19813 0.57667 0.0
H1033 H 0.88076 0.23664 0.5117 0.0
H1034 H 0.9453 0.28184 0.50315 0.0
H1035 H 0.92017 0.22525 0.48513 0.0
H1036 H 0.10761 0.35457 0.46979 0.0
H1037 H 0.03897 0.21742 0.42776 0.0
H1038 H 0.07571 0.31945 0.54882 0.0
H1039 H 0.02805 0.33103 0.53184 0.0
H1040 H 0.09509 0.36767 0.52254 0.0
H1041 H 0.98959 0.15369 0.49765 0.0
H1042 H 0.98287 0.15015 0.45516 0.0
H1043 H 0.94046 0.16155 0.47885 0.0
loop_
_geom_bond_atom_site_label_1
_geom_bond_atom_site_label_2
_geom_bond_distance
_geom_bond_site_symmetry_2
_ccdc_geom_bond_type
Tb0 O3 2.453 1_654 S
Tb0 O4 2.596 1_655 S
Tb0 O5 2.374 . S
Tb0 O13 2.343 . S
Tb0 O15 2.353 1_554 S
Tb0 O17 2.427 1_554 S
Tb0 O18 2.513 . S
C1 O5 1.250 1_455 S
C1 O7 1.263 . S
Tb2 O4 2.343 . S
Tb2 O7 2.353 . S
Tb2 O10 2.427 . S
Tb2 O11 2.513 1_554 S
Tb2 O12 2.453 1_455 S
Tb2 O13 2.596 1_455 S
Tb2 O14 2.374 1_554 S
O3 Tb0 2.453 1_456 S
O3 C19 1.245 1_556 S
O4 Tb0 2.596 1_455 S
O4 Tb2 2.343 . S
O4 C19 1.259 . S
O5 Tb0 2.374 . S
O5 C1 1.250 1_655 S
C6 O10 1.275 1_556 S
C6 O11 1.246 . S
O7 C1 1.263 . S
O7 Tb2 2.353 . S
C8 O12 1.245 . S
C8 O13 1.259 . S
C9 O14 1.250 1_655 S
C9 O15 1.263 . S
O10 Tb2 2.427 . S
O10 C6 1.275 1_554 S
O11 Tb2 2.513 1_556 S
O11 C6 1.246 . S
O12 Tb2 2.453 1_655 S
O12 C8 1.245 . S
O13 Tb0 2.343 . S
O13 Tb2 2.596 1_655 S
O13 C8 1.259 . S
O14 Tb2 2.374 1_556 S
O14 C9 1.250 1_455 S
O15 Tb0 2.353 1_556 S
O15 C9 1.263 . S
C16 O17 1.275 1_554 S
C16 O18 1.246 . S
O17 Tb0 2.427 1_556 S
O17 C16 1.275 1_556 S
O18 Tb0 2.513 . S
O18 C16 1.246 . S
C19 O3 1.245 1_554 S
C19 O4 1.259 . S
Tb20 O23 2.453 . S
Tb20 O24 2.596 . S
Tb20 O25 2.374 1_554 S
Tb20 O33 2.343 . S
Tb20 O35 2.353 . S
Tb20 O37 2.427 . S
Tb20 O38 2.513 1_554 S
C21 O25 1.251 . S
C21 O27 1.263 . S
Tb22 O24 2.343 . S
Tb22 O27 2.353 1_554 S
Tb22 O30 2.427 1_554 S
Tb22 O31 2.513 . S
Tb22 O32 2.453 1_554 S
Tb22 O33 2.596 . S
Tb22 O34 2.374 . S
O23 Tb20 2.453 . S
O23 C39 1.245 . S
O24 Tb20 2.596 . S
O24 Tb22 2.343 . S
O24 C39 1.259 . S
O25 Tb20 2.374 1_556 S
O25 C21 1.251 . S
C26 O30 1.275 1_554 S
C26 O31 1.246 . S
O27 C21 1.263 . S
O27 Tb22 2.353 1_556 S
C28 O32 1.245 1_554 S
C28 O33 1.259 . S
C29 O34 1.250 . S
C29 O35 1.263 . S
O30 Tb22 2.427 1_556 S
O30 C26 1.275 1_556 S
O31 Tb22 2.513 . S
O31 C26 1.246 . S
O32 Tb22 2.453 1_556 S
O32 C28 1.245 1_556 S
O33 Tb20 2.343 . S
O33 Tb22 2.596 . S
O33 C28 1.259 . S
O34 Tb22 2.374 . S
O34 C29 1.250 . S
O35 Tb20 2.353 . S
O35 C29 1.263 . S
C36 O37 1.275 1_556 S
C36 O38 1.246 . S
O37 Tb20 2.427 . S
O37 C36 1.275 1_554 S
O38 Tb20 2.513 1_556 S
O38 C36 1.246 . S
C39 O23 1.245 . S
C39 O24 1.259 . S
Tb40 O43 2.453 1_544 S
Tb40 O44 2.596 1_545 S
Tb40 O45 2.374 . S
Tb40 O53 2.343 . S
Tb40 O55 2.353 1_554 S
Tb40 O57 2.427 1_554 S
Tb40 O58 2.513 . S
C41 O45 1.251 1_565 S
C41 O47 1.263 . S
Tb42 O44 2.343 . S
Tb42 O47 2.353 . S
Tb42 O50 2.427 . S
Tb42 O51 2.513 1_554 S
Tb42 O52 2.453 1_565 S
Tb42 O53 2.596 1_565 S
Tb42 O54 2.380 1_554 S
O43 Tb40 2.453 1_566 S
O43 C59 1.245 1_556 S
O44 Tb40 2.596 1_565 S
O44 Tb42 2.343 . S
O44 C59 1.259 . S
O45 Tb40 2.374 . S
O45 C41 1.251 1_545 S
C46 O50 1.275 1_556 S
C46 O51 1.246 . S
O47 C41 1.263 . S
O47 Tb42 2.353 . S
C48 O52 1.245 . S
C48 O53 1.259 . S
C49 O54 1.237 1_545 S
C49 O55 1.263 . S
O50 Tb42 2.427 . S
O50 C46 1.275 1_554 S
O51 Tb42 2.513 1_556 S
O51 C46 1.246 . S
O52 Tb42 2.453 1_545 S
O52 C48 1.245 . S
O53 Tb40 2.343 . S
O53 Tb42 2.596 1_545 S
O53 C48 1.259 . S
O54 Tb42 2.380 1_556 S
O54 C49 1.237 1_565 S
O55 Tb40 2.353 1_556 S
O55 C49 1.263 . S
C56 O57 1.275 1_554 S
C56 O58 1.246 . S
O57 Tb40 2.427 1_556 S
O57 C56 1.275 1_556 S
O58 Tb40 2.513 . S
O58 C56 1.246 . S
C59 O43 1.245 1_554 S
C59 O44 1.259 . S
Tb60 O63 2.453 . S
Tb60 O64 2.596 . S
Tb60 O65 2.374 . S
Tb60 O73 2.343 . S
Tb60 O75 2.353 . S
Tb60 O77 2.427 . S
Tb60 O78 2.513 . S
C61 O65 1.251 . S
C61 O67 1.263 . S
Tb62 O64 2.343 . S
Tb62 O67 2.353 . S
Tb62 O70 2.427 . S
Tb62 O71 2.513 . S
Tb62 O72 2.453 . S
Tb62 O73 2.596 . S
Tb62 O74 2.374 . S
O63 Tb60 2.453 . S
O63 C79 1.245 . S
O64 Tb60 2.596 . S
O64 Tb62 2.343 . S
O64 C79 1.259 . S
O65 Tb60 2.374 . S
O65 C61 1.251 . S
C66 O70 1.275 . S
C66 O71 1.246 . S
O67 C61 1.263 . S
O67 Tb62 2.353 . S
C68 O72 1.245 . S
C68 O73 1.259 . S
C69 O74 1.250 . S
C69 O75 1.263 . S
O70 Tb62 2.427 . S
O70 C66 1.275 . S
O71 Tb62 2.513 . S
O71 C66 1.246 . S
O72 Tb62 2.453 . S
O72 C68 1.245 . S
O73 Tb60 2.343 . S
O73 Tb62 2.596 . S
O73 C68 1.259 . S
O74 Tb62 2.374 . S
O74 C69 1.250 . S
O75 Tb60 2.353 . S
O75 C69 1.263 . S
C76 O77 1.275 . S
C76 O78 1.246 . S
O77 Tb60 2.427 . S
O77 C76 1.275 . S
O78 Tb60 2.513 . S
O78 C76 1.246 . S
C79 O63 1.245 . S
C79 O64 1.259 . S
Tb80 O83 2.453 . S
Tb80 O84 2.596 . S
Tb80 O85 2.374 . S
Tb80 O93 2.343 . S
Tb80 O95 2.353 . S
Tb80 O97 2.427 . S
Tb80 O98 2.513 . S
C81 O85 1.251 . S
C81 O87 1.263 . S
Tb82 O84 2.343 . S
Tb82 O87 2.353 . S
Tb82 O90 2.427 . S
Tb82 O91 2.513 . S
Tb82 O92 2.453 . S
Tb82 O93 2.596 . S
Tb82 O94 2.374 . S
O83 Tb80 2.453 . S
O83 C99 1.245 . S
O84 Tb80 2.596 . S
O84 Tb82 2.343 . S
O84 C99 1.259 . S
O85 Tb80 2.374 . S
O85 C81 1.251 . S
C86 O90 1.275 . S
C86 O91 1.246 . S
O87 C81 1.263 . S
O87 Tb82 2.353 . S
C88 O92 1.245 . S
C88 O93 1.259 . S
C89 O94 1.250 . S
C89 O95 1.263 . S
O90 Tb82 2.427 . S
O90 C86 1.275 . S
O91 Tb82 2.513 . S
O91 C86 1.246 . S
O92 Tb82 2.453 . S
O92 C88 1.245 . S
O93 Tb80 2.343 . S
O93 Tb82 2.596 . S
O93 C88 1.259 . S
O94 Tb82 2.374 . S
O94 C89 1.250 . S
O95 Tb80 2.353 . S
O95 C89 1.263 . S
C96 O97 1.275 . S
C96 O98 1.246 . S
O97 Tb80 2.427 . S
O97 C96 1.275 . S
O98 Tb80 2.513 . S
O98 C96 1.246 . S
C99 O83 1.245 . S
C99 O84 1.259 . S
Tb100 O103 2.453 . S
Tb100 O104 2.596 . S
Tb100 O105 2.374 . S
Tb100 O113 2.343 . S
Tb100 O115 2.353 . S
Tb100 O117 2.427 . S
Tb100 O118 2.513 . S
C101 O105 1.251 . S
C101 O107 1.263 . S
Tb102 O104 2.343 . S
Tb102 O107 2.353 . S
Tb102 O110 2.427 . S
Tb102 O111 2.513 . S
Tb102 O112 2.453 . S
Tb102 O113 2.596 . S
Tb102 O114 2.374 . S
O103 Tb100 2.453 . S
O103 C119 1.245 . S
O104 Tb100 2.596 . S
O104 Tb102 2.343 . S
O104 C119 1.259 . S
O105 Tb100 2.374 . S
O105 C101 1.251 . S
C106 O110 1.275 . S
C106 O111 1.246 . S
O107 C101 1.263 . S
O107 Tb102 2.353 . S
C108 O112 1.245 . S
C108 O113 1.259 . S
C109 O114 1.250 . S
C109 O115 1.263 . S
O110 Tb102 2.427 . S
O110 C106 1.275 . S
O111 Tb102 2.513 . S
O111 C106 1.246 . S
O112 Tb102 2.453 . S
O112 C108 1.245 . S
O113 Tb100 2.343 . S
O113 Tb102 2.596 . S
O113 C108 1.259 . S
O114 Tb102 2.374 . S
O114 C109 1.250 . S
O115 Tb100 2.353 . S
O115 C109 1.263 . S
C116 O117 1.275 . S
C116 O118 1.246 . S
O117 Tb100 2.427 . S
O117 C116 1.275 . S
O118 Tb100 2.513 . S
O118 C116 1.246 . S
C119 O103 1.245 . S
C119 O104 1.259 . S
Tb120 O123 2.453 . S
Tb120 O124 2.596 . S
Tb120 O125 2.374 . S
Tb120 O133 2.343 . S
Tb120 O135 2.353 . S
Tb120 O137 2.427 . S
Tb120 O138 2.513 . S
C121 O125 1.251 . S
C121 O127 1.263 . S
Tb122 O124 2.343 . S
Tb122 O127 2.353 . S
Tb122 O130 2.427 . S
Tb122 O131 2.513 . S
Tb122 O132 2.453 . S
Tb122 O133 2.596 . S
Tb122 O134 2.374 . S
O123 Tb120 2.453 . S
O123 C139 1.245 . S
O124 Tb120 2.596 . S
O124 Tb122 2.343 . S
O124 C139 1.259 . S
O125 Tb120 2.374 . S
O125 C121 1.251 . S
C126 O130 1.275 . S
C126 O131 1.246 . S
O127 C121 1.263 . S
O127 Tb122 2.353 . S
C128 O132 1.245 . S
C128 O133 1.259 . S
C129 O134 1.250 . S
C129 O135 1.263 . S
O130 Tb122 2.427 . S
O130 C126 1.275 . S
O131 Tb122 2.513 . S
O131 C126 1.246 . S
O132 Tb122 2.453 . S
O132 C128 1.245 . S
O133 Tb120 2.343 . S
O133 Tb122 2.596 . S
O133 C128 1.259 . S
O134 Tb122 2.374 . S
O134 C129 1.250 . S
O135 Tb120 2.353 . S
O135 C129 1.263 . S
C136 O137 1.275 . S
C136 O138 1.246 . S
O137 Tb120 2.427 . S
O137 C136 1.275 . S
O138 Tb120 2.513 . S
O138 C136 1.246 . S
C139 O123 1.245 . S
C139 O124 1.259 . S
Tb140 O143 2.453 . S
Tb140 O144 2.596 . S
Tb140 O145 2.374 . S
Tb140 O153 2.343 . S
Tb140 O155 2.353 . S
Tb140 O157 2.427 . S
Tb140 O158 2.513 . S
C141 O145 1.251 . S
C141 O147 1.263 . S
Tb142 O144 2.343 . S
Tb142 O147 2.353 . S
Tb142 O150 2.427 . S
Tb142 O151 2.513 . S
Tb142 O152 2.453 . S
Tb142 O153 2.596 . S
Tb142 O154 2.374 . S
O143 Tb140 2.453 . S
O143 C159 1.245 . S
O144 Tb140 2.596 . S
O144 Tb142 2.343 . S
O144 C159 1.259 . S
O145 Tb140 2.374 . S
O145 C141 1.251 . S
C146 O150 1.275 . S
C146 O151 1.246 . S
O147 C141 1.263 . S
O147 Tb142 2.353 . S
C148 O152 1.245 . S
C148 O153 1.259 . S
C149 O154 1.250 . S
C149 O155 1.263 . S
O150 Tb142 2.427 . S
O150 C146 1.275 . S
O151 Tb142 2.513 . S
O151 C146 1.246 . S
O152 Tb142 2.453 . S
O152 C148 1.245 . S
O153 Tb140 2.343 . S
O153 Tb142 2.596 . S
O153 C148 1.259 . S
O154 Tb142 2.374 . S
O154 C149 1.250 . S
O155 Tb140 2.353 . S
O155 C149 1.263 . S
C156 O157 1.275 . S
C156 O158 1.246 . S
O157 Tb140 2.427 . S
O157 C156 1.275 . S
O158 Tb140 2.513 . S
O158 C156 1.246 . S
C159 O143 1.245 . S
C159 O144 1.259 . S
Tb160 O163 2.453 . S
Tb160 O164 2.596 . S
Tb160 O165 2.374 . S
Tb160 O173 2.343 . S
Tb160 O175 2.353 . S
Tb160 O177 2.427 . S
Tb160 O178 2.513 . S
C161 O165 1.251 . S
C161 O167 1.263 . S
Tb162 O164 2.343 . S
Tb162 O167 2.353 . S
Tb162 O170 2.427 . S
Tb162 O171 2.513 . S
Tb162 O172 2.453 . S
Tb162 O173 2.596 . S
Tb162 O174 2.374 . S
O163 Tb160 2.453 . S
O163 C179 1.245 . S
O164 Tb160 2.596 . S
O164 Tb162 2.343 . S
O164 C179 1.259 . S
O165 Tb160 2.374 . S
O165 C161 1.251 . S
C166 O170 1.275 . S
C166 O171 1.246 . S
O167 C161 1.263 . S
O167 Tb162 2.353 . S
C168 O172 1.245 . S
C168 O173 1.259 . S
C169 O174 1.250 . S
C169 O175 1.263 . S
O170 Tb162 2.427 . S
O170 C166 1.275 . S
O171 Tb162 2.513 . S
O171 C166 1.246 . S
O172 Tb162 2.453 . S
O172 C168 1.245 . S
O173 Tb160 2.343 . S
O173 Tb162 2.596 . S
O173 C168 1.259 . S
O174 Tb162 2.374 . S
O174 C169 1.250 . S
O175 Tb160 2.353 . S
O175 C169 1.263 . S
C176 O177 1.275 . S
C176 O178 1.246 . S
O177 Tb160 2.427 . S
O177 C176 1.275 . S
O178 Tb160 2.513 . S
O178 C176 1.246 . S
C179 O163 1.245 . S
C179 O164 1.259 . S
C180 C181 1.391 . S
C180 C182 1.394 . S
C180 H196 0.931 . S
C181 C180 1.391 . S
C181 C185 1.376 . S
C182 C180 1.394 . S
C182 C183 1.369 . S
C182 C186 1.531 . S
C183 C182 1.369 . S
C183 C184 1.410 . S
C183 C191 1.503 . S
C184 C183 1.410 . S
C184 C185 1.392 . S
C184 C187 1.509 1_554 S
C185 C181 1.376 . S
C185 C184 1.392 . S
C185 H197 0.929 1_554 S
C186 C182 1.531 . S
C186 H198 0.960 . S
C186 H199 0.962 . S
C186 H200 0.960 . S
C187 C184 1.509 1_556 S
C187 H201 0.970 . S
C187 H202 0.967 . S
C187 H203 0.948 1_556 S
C188 C189 1.370 1_556 S
C188 C190 1.363 . S
C188 H204 0.931 . S
C189 C188 1.370 1_554 S
C189 C193 1.408 . S
C190 C188 1.363 . S
C190 C191 1.370 1_556 S
C190 C194 1.524 . S
C191 C183 1.503 . S
C191 C190 1.370 1_554 S
C191 C192 1.403 . S
C192 C191 1.403 . S
C192 C193 1.404 . S
C192 C195 1.539 . S
C193 C189 1.408 . S
C193 C192 1.404 . S
C193 H205 0.930 . S
C194 C190 1.524 . S
C194 H206 0.956 . S
C194 H207 0.961 . S
C194 H208 0.961 . S
C195 C192 1.539 . S
C195 H209 0.958 . S
C195 H210 0.961 . S
C195 H211 0.960 . S
H196 C180 0.931 . S
H197 C185 0.929 1_556 S
H198 C186 0.960 . S
H199 C186 0.962 . S
H200 C186 0.960 . S
H201 C187 0.970 . S
H202 C187 0.967 . S
H203 C187 0.948 1_554 S
H204 C188 0.931 . S
H205 C193 0.930 . S
H206 C194 0.956 . S
H207 C194 0.961 . S
H208 C194 0.961 . S
H209 C195 0.958 . S
H210 C195 0.961 . S
H211 C195 0.960 . S
C212 C213 1.391 1_554 S
C212 C214 1.394 . S
C212 H228 0.931 . S
C213 C212 1.391 1_556 S
C213 C217 1.376 . S
C214 C212 1.394 . S
C214 C215 1.369 1_554 S
C214 C218 1.531 . S
C215 C214 1.369 1_556 S
C215 C216 1.410 . S
C215 C223 1.503 . S
C216 C215 1.410 . S
C216 C217 1.392 . S
C216 C219 1.511 . S
C217 C213 1.376 . S
C217 C216 1.392 . S
C217 H229 0.929 . S
C218 C214 1.531 . S
C218 H230 0.960 . S
C218 H231 0.962 . S
C218 H232 0.960 . S
C219 C216 1.511 . S
C219 H233 0.961 . S
C219 H234 0.961 . S
C219 H235 0.961 . S
C220 C221 1.370 . S
C220 C222 1.363 . S
C220 H236 0.931 . S
C221 C220 1.370 . S
C221 C225 1.408 . S
C222 C220 1.363 . S
C222 C223 1.370 . S
C222 C226 1.524 . S
C223 C215 1.503 . S
C223 C222 1.370 . S
C223 C224 1.403 . S
C224 C223 1.403 . S
C224 C225 1.404 . S
C224 C227 1.539 . S
C225 C221 1.408 . S
C225 C224 1.404 . S
C225 H237 0.930 . S
C226 C222 1.524 . S
C226 H238 0.956 1_556 S
C226 H239 0.961 . S
C226 H240 0.961 . S
C227 C224 1.539 . S
C227 H241 0.958 1_556 S
C227 H242 0.961 . S
C227 H243 0.960 . S
H228 C212 0.931 . S
H229 C217 0.929 . S
H230 C218 0.960 . S
H231 C218 0.962 . S
H232 C218 0.960 . S
H233 C219 0.961 . S
H234 C219 0.961 . S
H235 C219 0.961 . S
H236 C220 0.931 . S
H237 C225 0.930 . S
H238 C226 0.956 1_554 S
H239 C226 0.961 . S
H240 C226 0.961 . S
H241 C227 0.958 1_554 S
H242 C227 0.961 . S
H243 C227 0.960 . S
C244 C245 1.391 1_556 S
C244 C246 1.394 . S
C244 H260 0.931 . S
C245 C244 1.391 1_554 S
C245 C249 1.376 . S
C246 C244 1.394 . S
C246 C247 1.369 . S
C246 C250 1.531 . S
C247 C246 1.369 . S
C247 C248 1.410 1_556 S
C247 C255 1.503 . S
C248 C247 1.410 1_554 S
C248 C249 1.392 . S
C248 C251 1.511 . S
C249 C245 1.376 . S
C249 C248 1.392 . S
C249 H261 0.929 . S
C250 C246 1.531 . S
C250 H262 0.960 . S
C250 H263 0.962 . S
C250 H264 0.960 . S
C251 C248 1.511 . S
C251 H265 0.961 . S
C251 H266 0.961 . S
C251 H267 0.961 . S
C252 C253 1.370 1_554 S
C252 C254 1.363 . S
C252 H268 0.931 . S
C253 C252 1.370 1_556 S
C253 C257 1.408 . S
C254 C252 1.363 . S
C254 C255 1.370 1_554 S
C254 C258 1.524 . S
C255 C247 1.503 . S
C255 C254 1.370 1_556 S
C255 C256 1.403 . S
C256 C255 1.403 . S
C256 C257 1.404 . S
C256 C259 1.539 . S
C257 C253 1.408 . S
C257 C256 1.404 . S
C257 H269 0.930 . S
C258 C254 1.524 . S
C258 H270 0.956 . S
C258 H271 0.961 . S
C258 H272 0.961 . S
C259 C256 1.539 . S
C259 H273 0.958 . S
C259 H274 0.961 . S
C259 H275 0.960 . S
H260 C244 0.931 . S
H261 C249 0.929 . S
H262 C250 0.960 . S
H263 C250 0.962 . S
H264 C250 0.960 . S
H265 C251 0.961 . S
H266 C251 0.961 . S
H267 C251 0.961 . S
H268 C252 0.931 . S
H269 C257 0.930 . S
H270 C258 0.956 . S
H271 C258 0.961 . S
H272 C258 0.961 . S
H273 C259 0.958 . S
H274 C259 0.961 . S
H275 C259 0.960 . S
C276 C277 1.391 1_556 S
C276 C278 1.394 . S
C276 H292 0.931 . S
C277 C276 1.391 1_554 S
C277 C281 1.376 . S
C278 C276 1.394 . S
C278 C279 1.369 1_556 S
C278 C282 1.531 . S
C279 C278 1.369 1_554 S
C279 C280 1.410 . S
C279 C287 1.503 . S
C280 C279 1.410 . S
C280 C281 1.392 . S
C280 C283 1.511 . S
C281 C277 1.376 . S
C281 C280 1.392 . S
C281 H293 0.929 . S
C282 C278 1.531 . S
C282 H294 0.960 . S
C282 H295 0.962 . S
C282 H296 0.960 . S
C283 C280 1.511 . S
C283 H297 0.961 . S
C283 H298 0.961 . S
C283 H299 0.961 . S
C284 C285 1.370 . S
C284 C286 1.363 . S
C284 H300 0.931 . S
C285 C284 1.370 . S
C285 C289 1.408 1_554 S
C286 C284 1.363 . S
C286 C287 1.370 . S
C286 C290 1.524 . S
C287 C279 1.503 . S
C287 C286 1.370 . S
C287 C288 1.403 1_554 S
C288 C287 1.403 1_556 S
C288 C289 1.404 . S
C288 C291 1.539 . S
C289 C285 1.408 1_556 S
C289 C288 1.404 . S
C289 H301 0.930 . S
C290 C286 1.524 . S
C290 H302 0.956 . S
C290 H303 0.961 . S
C290 H304 0.961 . S
C291 C288 1.539 . S
C291 H305 0.958 . S
C291 H306 0.961 . S
C291 H307 0.960 . S
H292 C276 0.931 . S
H293 C281 0.929 . S
H294 C282 0.960 . S
H295 C282 0.962 . S
H296 C282 0.960 . S
H297 C283 0.961 . S
H298 C283 0.961 . S
H299 C283 0.961 . S
H300 C284 0.931 . S
H301 C289 0.930 . S
H302 C290 0.956 . S
H303 C290 0.961 . S
H304 C290 0.961 . S
H305 C291 0.958 . S
H306 C291 0.961 . S
H307 C291 0.960 . S
C308 C309 1.374 1_554 S
C308 C310 1.394 . S
C308 H324 0.931 . S
C309 C308 1.374 1_556 S
C309 C313 1.395 . S
C310 C308 1.394 . S
C310 C311 1.369 1_554 S
C310 C314 1.531 . S
C311 C310 1.369 1_556 S
C311 C312 1.410 . S
C311 C319 1.503 1_556 S
C312 C311 1.410 . S
C312 C313 1.392 . S
C312 C315 1.511 . S
C313 C309 1.395 . S
C313 C312 1.392 . S
C313 H325 0.929 . S
C314 C310 1.531 . S
C314 H326 0.960 . S
C314 H327 0.962 . S
C314 H328 0.960 . S
C315 C312 1.511 . S
C315 H329 0.961 . S
C315 H330 0.961 . S
C315 H331 0.961 . S
C316 C317 1.370 . S
C316 C318 1.363 . S
C316 H332 0.931 . S
C317 C316 1.370 . S
C317 C321 1.408 1_554 S
C318 C316 1.363 . S
C318 C319 1.370 . S
C318 C322 1.524 . S
C319 C311 1.503 1_554 S
C319 C318 1.370 . S
C319 C320 1.403 1_554 S
C320 C319 1.403 1_556 S
C320 C321 1.404 . S
C320 C323 1.539 . S
C321 C317 1.408 1_556 S
C321 C320 1.404 . S
C321 H333 0.930 . S
C322 C318 1.524 . S
C322 H334 0.956 . S
C322 H335 0.961 . S
C322 H336 0.961 . S
C323 C320 1.539 . S
C323 H337 0.958 . S
C323 H338 0.961 . S
C323 H339 0.960 . S
H324 C308 0.931 . S
H325 C313 0.929 . S
H326 C314 0.960 . S
H327 C314 0.962 . S
H328 C314 0.960 . S
H329 C315 0.961 . S
H330 C315 0.961 . S
H331 C315 0.961 . S
H332 C316 0.931 . S
H333 C321 0.930 . S
H334 C322 0.956 . S
H335 C322 0.961 . S
H336 C322 0.961 . S
H337 C323 0.958 . S
H338 C323 0.961 . S
H339 C323 0.960 . S
C340 C341 1.391 . S
C340 C342 1.394 . S
C340 H356 0.931 . S
C341 C340 1.391 . S
C341 C345 1.376 1_556 S
C342 C340 1.394 . S
C342 C343 1.369 . S
C342 C346 1.531 . S
C343 C342 1.369 . S
C343 C344 1.410 1_556 S
C343 C351 1.503 . S
C344 C343 1.410 1_554 S
C344 C345 1.392 . S
C344 C347 1.511 . S
C345 C341 1.376 1_554 S
C345 C344 1.392 . S
C345 H357 0.929 . S
C346 C342 1.531 . S
C346 H358 0.960 . S
C346 H359 0.962 . S
C346 H360 0.960 . S
C347 C344 1.511 . S
C347 H361 0.961 . S
C347 H362 0.961 . S
C347 H363 0.961 . S
C348 C349 1.370 1_554 S
C348 C350 1.363 . S
C348 H364 0.931 . S
C349 C348 1.370 1_556 S
C349 C353 1.408 . S
C350 C348 1.363 . S
C350 C351 1.370 1_554 S
C350 C354 1.524 . S
C351 C343 1.503 . S
C351 C350 1.370 1_556 S
C351 C352 1.403 . S
C352 C351 1.403 . S
C352 C353 1.404 . S
C352 C355 1.539 . S
C353 C349 1.408 . S
C353 C352 1.404 . S
C353 H365 0.930 . S
C354 C350 1.524 . S
C354 H366 0.956 . S
C354 H367 0.961 . S
C354 H368 0.961 . S
C355 C352 1.539 . S
C355 H369 0.958 . S
C355 H370 0.961 . S
C355 H371 0.960 . S
H356 C340 0.931 . S
H357 C345 0.929 . S
H358 C346 0.960 . S
H359 C346 0.962 . S
H360 C346 0.960 . S
H361 C347 0.961 . S
H362 C347 0.961 . S
H363 C347 0.961 . S
H364 C348 0.931 . S
H365 C353 0.930 . S
H366 C354 0.956 . S
H367 C354 0.961 . S
H368 C354 0.961 . S
H369 C355 0.958 . S
H370 C355 0.961 . S
H371 C355 0.960 . S
C372 C373 1.391 . S
C372 C374 1.394 . S
C372 H388 0.931 . S
C373 C372 1.391 . S
C373 C377 1.376 . S
C374 C372 1.394 . S
C374 C375 1.369 . S
C374 C378 1.531 . S
C375 C374 1.369 . S
C375 C376 1.410 . S
C375 C383 1.503 . S
C376 C375 1.410 . S
C376 C377 1.392 . S
C376 C379 1.511 . S
C377 C373 1.376 . S
C377 C376 1.392 . S
C377 H389 0.929 . S
C378 C374 1.531 . S
C378 H390 0.960 . S
C378 H391 0.962 . S
C378 H392 0.960 . S
C379 C376 1.511 . S
C379 H393 0.961 . S
C379 H394 0.961 . S
C379 H395 0.961 . S
C380 C381 1.370 . S
C380 C382 1.363 1_455 S
C380 H396 0.931 . S
C381 C380 1.370 . S
C381 C385 1.408 . S
C382 C380 1.363 1_655 S
C382 C383 1.370 . S
C382 C386 1.524 . S
C383 C375 1.503 . S
C383 C382 1.370 . S
C383 C384 1.403 . S
C384 C383 1.403 . S
C384 C385 1.404 1_655 S
C384 C387 1.539 . S
C385 C381 1.408 . S
C385 C384 1.404 1_455 S
C385 H397 0.930 . S
C386 C382 1.524 . S
C386 H398 0.956 . S
C386 H399 0.961 . S
C386 H400 0.961 . S
C387 C384 1.539 . S
C387 H401 0.958 . S
C387 H402 0.961 . S
C387 H403 0.960 . S
H388 C372 0.931 . S
H389 C377 0.929 . S
H390 C378 0.960 . S
H391 C378 0.962 . S
H392 C378 0.960 . S
H393 C379 0.961 . S
H394 C379 0.961 . S
H395 C379 0.961 . S
H396 C380 0.931 . S
H397 C385 0.930 . S
H398 C386 0.956 . S
H399 C386 0.961 . S
H400 C386 0.961 . S
H401 C387 0.958 . S
H402 C387 0.961 . S
H403 C387 0.960 . S
C404 C405 1.391 . S
C404 C406 1.394 . S
C404 H420 0.931 . S
C405 C404 1.391 . S
C405 C409 1.376 . S
C406 C404 1.394 . S
C406 C407 1.369 . S
C406 C410 1.531 . S
C407 C406 1.369 . S
C407 C408 1.410 . S
C407 C415 1.503 . S
C408 C407 1.410 . S
C408 C409 1.392 . S
C408 C411 1.511 . S
C409 C405 1.376 . S
C409 C408 1.392 . S
C409 H421 0.929 . S
C410 C406 1.531 . S
C410 H422 0.960 . S
C410 H423 0.962 . S
C410 H424 0.960 . S
C411 C408 1.511 . S
C411 H425 0.961 . S
C411 H426 0.961 . S
C411 H427 0.961 . S
C412 C413 1.370 1_565 S
C412 C414 1.363 1_565 S
C412 H428 0.931 . S
C413 C412 1.370 1_545 S
C413 C417 1.408 . S
C414 C412 1.363 1_545 S
C414 C415 1.370 . S
C414 C418 1.524 . S
C415 C407 1.503 . S
C415 C414 1.370 . S
C415 C416 1.403 . S
C416 C415 1.403 . S
C416 C417 1.404 . S
C416 C419 1.539 . S
C417 C413 1.408 . S
C417 C416 1.404 . S
C417 H429 0.930 . S
C418 C414 1.524 . S
C418 H430 0.956 . S
C418 H431 0.961 . S
C418 H432 0.961 1_545 S
C419 C416 1.539 . S
C419 H433 0.958 . S
C419 H434 0.961 . S
C419 H435 0.960 . S
H420 C404 0.931 . S
H421 C409 0.929 . S
H422 C410 0.960 . S
H423 C410 0.962 . S
H424 C410 0.960 . S
H425 C411 0.961 . S
H426 C411 0.961 . S
H427 C411 0.961 . S
H428 C412 0.931 . S
H429 C417 0.930 . S
H430 C418 0.956 . S
H431 C418 0.961 . S
H432 C418 0.961 1_565 S
H433 C419 0.958 . S
H434 C419 0.961 . S
H435 C419 0.960 . S
C436 C437 1.391 1_655 S
C436 C438 1.394 . S
C436 H452 0.931 . S
C437 C436 1.391 1_455 S
C437 C441 1.376 . S
C438 C436 1.394 . S
C438 C439 1.369 . S
C438 C442 1.531 . S
C439 C438 1.369 . S
C439 C440 1.410 . S
C439 C447 1.503 . S
C440 C439 1.410 . S
C440 C441 1.392 1_655 S
C440 C443 1.511 1_655 S
C441 C437 1.376 . S
C441 C440 1.392 1_455 S
C441 H453 0.929 . S
C442 C438 1.531 . S
C442 H454 0.960 . S
C442 H455 0.962 . S
C442 H456 0.960 . S
C443 C440 1.511 1_455 S
C443 H457 0.961 . S
C443 H458 0.961 1_455 S
C443 H459 0.961 . S
C444 C445 1.370 . S
C444 C446 1.365 1_565 S
C444 H460 0.930 . S
C445 C444 1.370 . S
C445 C449 1.403 1_565 S
C446 C444 1.365 1_545 S
C446 C447 1.370 . S
C446 C450 1.524 . S
C447 C439 1.503 . S
C447 C446 1.370 . S
C447 C448 1.403 . S
C448 C447 1.403 . S
C448 C449 1.411 . S
C448 C451 1.539 . S
C449 C445 1.403 1_545 S
C449 C448 1.411 . S
C449 H461 0.928 1_545 S
C450 C446 1.524 . S
C450 H462 0.956 . S
C450 H463 0.961 . S
C450 H464 0.961 . S
C451 C448 1.539 . S
C451 H465 0.958 . S
C451 H466 0.961 . S
C451 H467 0.960 . S
H452 C436 0.931 . S
H453 C441 0.929 . S
H454 C442 0.960 . S
H455 C442 0.962 . S
H456 C442 0.960 . S
H457 C443 0.961 . S
H458 C443 0.961 1_655 S
H459 C443 0.961 . S
H460 C444 0.930 . S
H461 C449 0.928 1_565 S
H462 C450 0.956 . S
H463 C450 0.961 . S
H464 C450 0.961 . S
H465 C451 0.958 . S
H466 C451 0.961 . S
H467 C451 0.960 . S
C468 C469 1.391 . S
C468 C470 1.394 . S
C468 H484 0.931 . S
C469 C468 1.391 . S
C469 C473 1.376 . S
C470 C468 1.394 . S
C470 C471 1.369 . S
C470 C474 1.531 . S
C471 C470 1.369 . S
C471 C472 1.410 . S
C471 C479 1.503 . S
C472 C471 1.410 . S
C472 C473 1.392 . S
C472 C475 1.511 . S
C473 C469 1.376 . S
C473 C472 1.392 . S
C473 H485 0.929 . S
C474 C470 1.531 . S
C474 H486 0.960 . S
C474 H487 0.962 . S
C474 H488 0.960 . S
C475 C472 1.511 . S
C475 H489 0.961 . S
C475 H490 0.961 . S
C475 H491 0.961 . S
C476 C477 1.370 . S
C476 C478 1.363 . S
C476 H492 0.931 . S
C477 C476 1.370 . S
C477 C481 1.408 . S
C478 C476 1.363 . S
C478 C479 1.370 . S
C478 C482 1.524 . S
C479 C471 1.503 . S
C479 C478 1.370 . S
C479 C480 1.403 . S
C480 C479 1.403 . S
C480 C481 1.404 . S
C480 C483 1.539 . S
C481 C477 1.408 . S
C481 C480 1.404 . S
C481 H493 0.930 . S
C482 C478 1.524 . S
C482 H494 0.956 . S
C482 H495 0.961 . S
C482 H496 0.961 . S
C483 C480 1.539 . S
C483 H497 0.958 . S
C483 H498 0.961 . S
C483 H499 0.960 . S
H484 C468 0.931 . S
H485 C473 0.929 . S
H486 C474 0.960 . S
H487 C474 0.962 . S
H488 C474 0.960 . S
H489 C475 0.961 . S
H490 C475 0.961 . S
H491 C475 0.961 . S
H492 C476 0.931 . S
H493 C481 0.930 . S
H494 C482 0.956 . S
H495 C482 0.961 . S
H496 C482 0.961 . S
H497 C483 0.958 . S
H498 C483 0.961 . S
H499 C483 0.960 . S
C500 C501 1.391 . S
C500 C502 1.394 . S
C500 H516 0.931 . S
C501 C500 1.391 . S
C501 C505 1.376 . S
C502 C500 1.394 . S
C502 C503 1.369 . S
C502 C506 1.531 . S
C503 C502 1.369 . S
C503 C504 1.410 . S
C503 C511 1.503 . S
C504 C503 1.410 . S
C504 C505 1.392 . S
C504 C507 1.511 . S
C505 C501 1.376 . S
C505 C504 1.392 . S
C505 H517 0.929 . S
C506 C502 1.531 . S
C506 H518 0.960 . S
C506 H519 0.962 . S
C506 H520 0.960 . S
C507 C504 1.511 . S
C507 H521 0.961 . S
C507 H522 0.961 . S
C507 H523 0.961 . S
C508 C509 1.370 . S
C508 C510 1.363 . S
C508 H524 0.931 . S
C509 C508 1.370 . S
C509 C513 1.408 . S
C510 C508 1.363 . S
C510 C511 1.370 . S
C510 C514 1.524 . S
C511 C503 1.503 . S
C511 C510 1.370 . S
C511 C512 1.403 . S
C512 C511 1.403 . S
C512 C513 1.404 . S
C512 C515 1.539 . S
C513 C509 1.408 . S
C513 C512 1.404 . S
C513 H525 0.930 . S
C514 C510 1.524 . S
C514 H526 0.956 . S
C514 H527 0.961 . S
C514 H528 0.961 . S
C515 C512 1.539 . S
C515 H529 0.958 . S
C515 H530 0.961 . S
C515 H531 0.960 . S
H516 C500 0.931 . S
H517 C505 0.929 . S
H518 C506 0.960 . S
H519 C506 0.962 . S
H520 C506 0.960 . S
H521 C507 0.961 . S
H522 C507 0.961 . S
H523 C507 0.961 . S
H524 C508 0.931 . S
H525 C513 0.930 . S
H526 C514 0.956 . S
H527 C514 0.961 . S
H528 C514 0.961 . S
H529 C515 0.958 . S
H530 C515 0.961 . S
H531 C515 0.960 . S
C532 C533 1.391 . S
C532 C534 1.394 . S
C532 H548 0.931 . S
C533 C532 1.391 . S
C533 C537 1.376 . S
C534 C532 1.394 . S
C534 C535 1.369 . S
C534 C538 1.531 . S
C535 C534 1.369 . S
C535 C536 1.410 . S
C535 C543 1.503 . S
C536 C535 1.410 . S
C536 C537 1.392 . S
C536 C539 1.511 . S
C537 C533 1.376 . S
C537 C536 1.392 . S
C537 H549 0.929 . S
C538 C534 1.531 . S
C538 H550 0.960 . S
C538 H551 0.962 . S
C538 H552 0.960 . S
C539 C536 1.511 . S
C539 H553 0.961 . S
C539 H554 0.961 . S
C539 H555 0.961 . S
C540 C541 1.370 . S
C540 C542 1.363 . S
C540 H556 0.931 . S
C541 C540 1.370 . S
C541 C545 1.408 . S
C542 C540 1.363 . S
C542 C543 1.370 . S
C542 C546 1.524 . S
C543 C535 1.503 . S
C543 C542 1.370 . S
C543 C544 1.403 . S
C544 C543 1.403 . S
C544 C545 1.404 . S
C544 C547 1.539 . S
C545 C541 1.408 . S
C545 C544 1.404 . S
C545 H557 0.930 . S
C546 C542 1.524 . S
C546 H558 0.956 . S
C546 H559 0.961 . S
C546 H560 0.961 . S
C547 C544 1.539 . S
C547 H561 0.958 . S
C547 H562 0.961 . S
C547 H563 0.960 . S
H548 C532 0.931 . S
H549 C537 0.929 . S
H550 C538 0.960 . S
H551 C538 0.962 . S
H552 C538 0.960 . S
H553 C539 0.961 . S
H554 C539 0.961 . S
H555 C539 0.961 . S
H556 C540 0.931 . S
H557 C545 0.930 . S
H558 C546 0.956 . S
H559 C546 0.961 . S
H560 C546 0.961 . S
H561 C547 0.958 . S
H562 C547 0.961 . S
H563 C547 0.960 . S
C564 C565 1.391 . S
C564 C566 1.394 . S
C564 H580 0.931 . S
C565 C564 1.391 . S
C565 C569 1.376 . S
C566 C564 1.394 . S
C566 C567 1.369 . S
C566 C570 1.531 . S
C567 C566 1.369 . S
C567 C568 1.410 . S
C567 C575 1.503 . S
C568 C567 1.410 . S
C568 C569 1.392 . S
C568 C571 1.511 . S
C569 C565 1.376 . S
C569 C568 1.392 . S
C569 H581 0.929 . S
C570 C566 1.531 . S
C570 H582 0.960 . S
C570 H583 0.962 . S
C570 H584 0.960 . S
C571 C568 1.511 . S
C571 H585 0.961 . S
C571 H586 0.961 . S
C571 H587 0.961 . S
C572 C573 1.370 . S
C572 C574 1.363 . S
C572 H588 0.931 . S
C573 C572 1.370 . S
C573 C577 1.408 . S
C574 C572 1.363 . S
C574 C575 1.370 . S
C574 C578 1.524 . S
C575 C567 1.503 . S
C575 C574 1.370 . S
C575 C576 1.403 . S
C576 C575 1.403 . S
C576 C577 1.404 . S
C576 C579 1.539 . S
C577 C573 1.408 . S
C577 C576 1.404 . S
C577 H589 0.930 . S
C578 C574 1.524 . S
C578 H590 0.956 . S
C578 H591 0.961 . S
C578 H592 0.961 . S
C579 C576 1.539 . S
C579 H593 0.958 . S
C579 H594 0.961 . S
C579 H595 0.960 . S
H580 C564 0.931 . S
H581 C569 0.929 . S
H582 C570 0.960 . S
H583 C570 0.962 . S
H584 C570 0.960 . S
H585 C571 0.961 . S
H586 C571 0.961 . S
H587 C571 0.961 . S
H588 C572 0.931 . S
H589 C577 0.930 . S
H590 C578 0.956 . S
H591 C578 0.961 . S
H592 C578 0.961 . S
H593 C579 0.958 . S
H594 C579 0.961 . S
H595 C579 0.960 . S
C596 C597 1.391 . S
C596 C598 1.394 . S
C596 H612 0.931 . S
C597 C596 1.391 . S
C597 C601 1.376 . S
C598 C596 1.394 . S
C598 C599 1.369 . S
C598 C602 1.531 . S
C599 C598 1.369 . S
C599 C600 1.410 . S
C599 C607 1.503 . S
C600 C599 1.410 . S
C600 C601 1.392 . S
C600 C603 1.511 . S
C601 C597 1.376 . S
C601 C600 1.392 . S
C601 H613 0.929 . S
C602 C598 1.531 . S
C602 H614 0.960 . S
C602 H615 0.962 . S
C602 H616 0.960 . S
C603 C600 1.511 . S
C603 H617 0.961 . S
C603 H618 0.961 . S
C603 H619 0.961 . S
C604 C605 1.370 . S
C604 C606 1.363 . S
C604 H620 0.931 . S
C605 C604 1.370 . S
C605 C609 1.408 . S
C606 C604 1.363 . S
C606 C607 1.370 . S
C606 C610 1.524 . S
C607 C599 1.503 . S
C607 C606 1.370 . S
C607 C608 1.403 . S
C608 C607 1.403 . S
C608 C609 1.404 . S
C608 C611 1.539 . S
C609 C605 1.408 . S
C609 C608 1.404 . S
C609 H621 0.930 . S
C610 C606 1.524 . S
C610 H622 0.956 . S
C610 H623 0.961 . S
C610 H624 0.961 . S
C611 C608 1.539 . S
C611 H625 0.958 . S
C611 H626 0.961 . S
C611 H627 0.960 . S
H612 C596 0.931 . S
H613 C601 0.929 . S
H614 C602 0.960 . S
H615 C602 0.962 . S
H616 C602 0.960 . S
H617 C603 0.961 . S
H618 C603 0.961 . S
H619 C603 0.961 . S
H620 C604 0.931 . S
H621 C609 0.930 . S
H622 C610 0.956 . S
H623 C610 0.961 . S
H624 C610 0.961 . S
H625 C611 0.958 . S
H626 C611 0.961 . S
H627 C611 0.960 . S
C628 C629 1.391 . S
C628 C630 1.394 . S
C628 H644 0.931 . S
C629 C628 1.391 . S
C629 C633 1.376 . S
C630 C628 1.394 . S
C630 C631 1.369 . S
C630 C634 1.531 . S
C631 C630 1.369 . S
C631 C632 1.410 . S
C631 C639 1.503 . S
C632 C631 1.410 . S
C632 C633 1.392 . S
C632 C635 1.511 . S
C633 C629 1.376 . S
C633 C632 1.392 . S
C633 H645 0.929 . S
C634 C630 1.531 . S
C634 H646 0.960 . S
C634 H647 0.962 . S
C634 H648 0.960 . S
C635 C632 1.511 . S
C635 H649 0.961 . S
C635 H650 0.961 . S
C635 H651 0.961 . S
C636 C637 1.370 . S
C636 C638 1.363 . S
C636 H652 0.931 . S
C637 C636 1.370 . S
C637 C641 1.408 . S
C638 C636 1.363 . S
C638 C639 1.370 . S
C638 C642 1.524 . S
C639 C631 1.503 . S
C639 C638 1.370 . S
C639 C640 1.403 . S
C640 C639 1.403 . S
C640 C641 1.404 . S
C640 C643 1.539 . S
C641 C637 1.408 . S
C641 C640 1.404 . S
C641 H653 0.930 . S
C642 C638 1.524 . S
C642 H654 0.956 . S
C642 H655 0.961 . S
C642 H656 0.961 . S
C643 C640 1.539 . S
C643 H657 0.958 . S
C643 H658 0.961 . S
C643 H659 0.960 . S
H644 C628 0.931 . S
H645 C633 0.929 . S
H646 C634 0.960 . S
H647 C634 0.962 . S
H648 C634 0.960 . S
H649 C635 0.961 . S
H650 C635 0.961 . S
H651 C635 0.961 . S
H652 C636 0.931 . S
H653 C641 0.930 . S
H654 C642 0.956 . S
H655 C642 0.961 . S
H656 C642 0.961 . S
H657 C643 0.958 . S
H658 C643 0.961 . S
H659 C643 0.960 . S
C660 C661 1.391 . S
C660 C662 1.394 . S
C660 H676 0.931 . S
C661 C660 1.391 . S
C661 C665 1.376 . S
C662 C660 1.394 . S
C662 C663 1.369 . S
C662 C666 1.531 . S
C663 C662 1.369 . S
C663 C664 1.410 . S
C663 C671 1.503 . S
C664 C663 1.410 . S
C664 C665 1.392 . S
C664 C667 1.511 . S
C665 C661 1.376 . S
C665 C664 1.392 . S
C665 H677 0.929 . S
C666 C662 1.531 . S
C666 H678 0.960 . S
C666 H679 0.962 . S
C666 H680 0.960 . S
C667 C664 1.511 . S
C667 H681 0.961 . S
C667 H682 0.961 . S
C667 H683 0.961 . S
C668 C669 1.370 . S
C668 C670 1.363 . S
C668 H684 0.931 . S
C669 C668 1.370 . S
C669 C673 1.408 . S
C670 C668 1.363 . S
C670 C671 1.370 1_545 S
C670 C674 1.524 1_545 S
C671 C663 1.503 . S
C671 C670 1.370 1_565 S
C671 C672 1.403 . S
C672 C671 1.403 . S
C672 C673 1.404 1_565 S
C672 C675 1.539 . S
C673 C669 1.408 . S
C673 C672 1.404 1_545 S
C673 H685 0.930 . S
C674 C670 1.524 1_565 S
C674 H686 0.956 . S
C674 H687 0.961 . S
C674 H688 0.961 1_565 S
C675 C672 1.539 . S
C675 H689 0.958 . S
C675 H690 0.961 . S
C675 H691 0.960 . S
H676 C660 0.931 . S
H677 C665 0.929 . S
H678 C666 0.960 . S
H679 C666 0.962 . S
H680 C666 0.960 . S
H681 C667 0.961 . S
H682 C667 0.961 . S
H683 C667 0.961 . S
H684 C668 0.931 . S
H685 C673 0.930 . S
H686 C674 0.956 . S
H687 C674 0.961 . S
H688 C674 0.961 1_545 S
H689 C675 0.958 . S
H690 C675 0.961 . S
H691 C675 0.960 . S
C692 C693 1.391 . S
C692 C694 1.394 1_655 S
C692 H708 0.931 . S
C693 C692 1.391 . S
C693 C697 1.376 . S
C694 C692 1.394 1_455 S
C694 C695 1.369 . S
C694 C698 1.531 . S
C695 C694 1.369 . S
C695 C696 1.410 1_455 S
C695 C703 1.503 . S
C696 C695 1.410 1_655 S
C696 C697 1.392 . S
C696 C699 1.511 1_655 S
C697 C693 1.376 . S
C697 C696 1.392 . S
C697 H709 0.929 . S
C698 C694 1.531 . S
C698 H710 0.960 . S
C698 H711 0.962 . S
C698 H712 0.960 . S
C699 C696 1.511 1_455 S
C699 H713 0.961 1_455 S
C699 H714 0.961 . S
C699 H715 0.961 . S
C700 C701 1.370 . S
C700 C702 1.363 . S
C700 H716 0.931 1_565 S
C701 C700 1.370 . S
C701 C705 1.408 . S
C702 C700 1.363 . S
C702 C703 1.370 . S
C702 C706 1.524 . S
C703 C695 1.503 . S
C703 C702 1.370 . S
C703 C704 1.403 . S
C704 C703 1.403 . S
C704 C705 1.404 . S
C704 C707 1.539 . S
C705 C701 1.408 . S
C705 C704 1.404 . S
C705 H717 0.930 . S
C706 C702 1.524 . S
C706 H718 0.956 . S
C706 H719 0.961 . S
C706 H720 0.961 . S
C707 C704 1.539 . S
C707 H721 0.958 . S
C707 H722 0.961 . S
C707 H723 0.960 . S
H708 C692 0.931 . S
H709 C697 0.929 . S
H710 C698 0.960 . S
H711 C698 0.962 . S
H712 C698 0.960 . S
H713 C699 0.961 1_655 S
H714 C699 0.961 . S
H715 C699 0.961 . S
H716 C700 0.931 1_545 S
H717 C705 0.930 . S
H718 C706 0.956 . S
H719 C706 0.961 . S
H720 C706 0.961 . S
H721 C707 0.958 . S
H722 C707 0.961 . S
H723 C707 0.960 . S
C724 C725 1.391 . S
C724 C726 1.394 . S
C724 H740 0.931 . S
C725 C724 1.391 . S
C725 C729 1.376 . S
C726 C724 1.394 . S
C726 C727 1.369 . S
C726 C730 1.531 . S
C727 C726 1.369 . S
C727 C728 1.410 . S
C727 C735 1.503 . S
C728 C727 1.410 . S
C728 C729 1.392 . S
C728 C731 1.511 . S
C729 C725 1.376 . S
C729 C728 1.392 . S
C729 H741 0.929 . S
C730 C726 1.531 . S
C730 H742 0.960 . S
C730 H743 0.962 . S
C730 H744 0.960 . S
C731 C728 1.511 . S
C731 H745 0.961 . S
C731 H746 0.961 . S
C731 H747 0.961 . S
C732 C733 1.370 . S
C732 C734 1.363 . S
C732 H748 0.931 . S
C733 C732 1.370 . S
C733 C737 1.408 . S
C734 C732 1.363 . S
C734 C735 1.370 . S
C734 C738 1.524 . S
C735 C727 1.503 . S
C735 C734 1.370 . S
C735 C736 1.403 . S
C736 C735 1.403 . S
C736 C737 1.404 . S
C736 C739 1.539 . S
C737 C733 1.408 . S
C737 C736 1.404 . S
C737 H749 0.930 . S
C738 C734 1.524 . S
C738 H750 0.956 . S
C738 H751 0.961 . S
C738 H752 0.961 . S
C739 C736 1.539 . S
C739 H753 0.958 . S
C739 H754 0.961 . S
C739 H755 0.960 . S
H740 C724 0.931 . S
H741 C729 0.929 . S
H742 C730 0.960 . S
H743 C730 0.962 . S
H744 C730 0.960 . S
H745 C731 0.961 . S
H746 C731 0.961 . S
H747 C731 0.961 . S
H748 C732 0.931 . S
H749 C737 0.930 . S
H750 C738 0.956 . S
H751 C738 0.961 . S
H752 C738 0.961 . S
H753 C739 0.958 . S
H754 C739 0.961 . S
H755 C739 0.960 . S
C756 C757 1.391 . S
C756 C758 1.394 . S
C756 H772 0.931 . S
C757 C756 1.391 . S
C757 C761 1.376 . S
C758 C756 1.394 . S
C758 C759 1.369 . S
C758 C762 1.531 . S
C759 C758 1.369 . S
C759 C760 1.410 . S
C759 C767 1.503 . S
C760 C759 1.410 . S
C760 C761 1.392 . S
C760 C763 1.511 . S
C761 C757 1.376 . S
C761 C760 1.392 . S
C761 H773 0.929 . S
C762 C758 1.531 . S
C762 H774 0.960 . S
C762 H775 0.962 . S
C762 H776 0.960 . S
C763 C760 1.511 . S
C763 H777 0.961 . S
C763 H778 0.961 . S
C763 H779 0.961 . S
C764 C765 1.370 . S
C764 C766 1.363 . S
C764 H780 0.931 . S
C765 C764 1.370 . S
C765 C769 1.408 . S
C766 C764 1.363 . S
C766 C767 1.370 . S
C766 C770 1.524 . S
C767 C759 1.503 . S
C767 C766 1.370 . S
C767 C768 1.403 . S
C768 C767 1.403 . S
C768 C769 1.404 . S
C768 C771 1.539 1_455 S
C769 C765 1.408 . S
C769 C768 1.404 . S
C769 H781 0.930 1_455 S
C770 C766 1.524 . S
C770 H782 0.956 . S
C770 H783 0.961 . S
C770 H784 0.961 . S
C771 C768 1.539 1_655 S
C771 H785 0.958 1_655 S
C771 H786 0.961 . S
C771 H787 0.960 1_655 S
H772 C756 0.931 . S
H773 C761 0.929 . S
H774 C762 0.960 . S
H775 C762 0.962 . S
H776 C762 0.960 . S
H777 C763 0.961 . S
H778 C763 0.961 . S
H779 C763 0.961 . S
H780 C764 0.931 . S
H781 C769 0.930 1_655 S
H782 C770 0.956 . S
H783 C770 0.961 . S
H784 C770 0.961 . S
H785 C771 0.958 1_455 S
H786 C771 0.961 . S
H787 C771 0.960 1_455 S
C788 C789 1.391 . S
C788 C790 1.394 . S
C788 H804 0.931 . S
C789 C788 1.391 . S
C789 C793 1.376 . S
C790 C788 1.394 . S
C790 C791 1.369 . S
C790 C794 1.531 . S
C791 C790 1.369 . S
C791 C792 1.410 . S
C791 C799 1.503 . S
C792 C791 1.410 . S
C792 C793 1.392 . S
C792 C795 1.511 . S
C793 C789 1.376 . S
C793 C792 1.392 . S
C793 H805 0.929 . S
C794 C790 1.531 . S
C794 H806 0.960 . S
C794 H807 0.962 . S
C794 H808 0.960 . S
C795 C792 1.511 . S
C795 H809 0.961 . S
C795 H810 0.961 . S
C795 H811 0.961 . S
C796 C797 1.370 . S
C796 C798 1.363 . S
C796 H812 0.931 . S
C797 C796 1.370 . S
C797 C801 1.408 . S
C798 C796 1.363 . S
C798 C799 1.370 . S
C798 C802 1.524 . S
C799 C791 1.503 . S
C799 C798 1.370 . S
C799 C800 1.403 . S
C800 C799 1.403 . S
C800 C801 1.404 . S
C800 C803 1.539 . S
C801 C797 1.408 . S
C801 C800 1.404 . S
C801 H813 0.930 . S
C802 C798 1.524 . S
C802 H814 0.956 . S
C802 H815 0.961 . S
C802 H816 0.961 . S
C803 C800 1.539 . S
C803 H817 0.958 . S
C803 H818 0.961 . S
C803 H819 0.960 . S
H804 C788 0.931 . S
H805 C793 0.929 . S
H806 C794 0.960 . S
H807 C794 0.962 . S
H808 C794 0.960 . S
H809 C795 0.961 . S
H810 C795 0.961 . S
H811 C795 0.961 . S
H812 C796 0.931 . S
H813 C801 0.930 . S
H814 C802 0.956 . S
H815 C802 0.961 . S
H816 C802 0.961 . S
H817 C803 0.958 . S
H818 C803 0.961 . S
H819 C803 0.960 . S
C820 C821 1.391 . S
C820 C822 1.394 . S
C820 H836 0.931 . S
C821 C820 1.391 . S
C821 C825 1.376 . S
C822 C820 1.394 . S
C822 C823 1.369 . S
C822 C826 1.531 . S
C823 C822 1.369 . S
C823 C824 1.410 . S
C823 C831 1.503 . S
C824 C823 1.410 . S
C824 C825 1.392 . S
C824 C827 1.511 . S
C825 C821 1.376 . S
C825 C824 1.392 . S
C825 H837 0.929 1_565 S
C826 C822 1.531 . S
C826 H838 0.960 . S
C826 H839 0.962 . S
C826 H840 0.960 . S
C827 C824 1.511 . S
C827 H841 0.961 1_565 S
C827 H842 0.961 . S
C827 H843 0.961 1_565 S
C828 C829 1.370 . S
C828 C830 1.363 . S
C828 H844 0.931 . S
C829 C828 1.370 . S
C829 C833 1.408 . S
C830 C828 1.363 . S
C830 C831 1.370 . S
C830 C834 1.524 . S
C831 C823 1.503 . S
C831 C830 1.370 . S
C831 C832 1.403 . S
C832 C831 1.403 . S
C832 C833 1.404 . S
C832 C835 1.539 . S
C833 C829 1.408 . S
C833 C832 1.404 . S
C833 H845 0.930 . S
C834 C830 1.524 . S
C834 H846 0.956 . S
C834 H847 0.961 . S
C834 H848 0.961 . S
C835 C832 1.539 . S
C835 H849 0.958 . S
C835 H850 0.961 1_565 S
C835 H851 0.960 1_565 S
H836 C820 0.931 . S
H837 C825 0.929 1_545 S
H838 C826 0.960 . S
H839 C826 0.962 . S
H840 C826 0.960 . S
H841 C827 0.961 1_545 S
H842 C827 0.961 . S
H843 C827 0.961 1_545 S
H844 C828 0.931 . S
H845 C833 0.930 . S
H846 C834 0.956 . S
H847 C834 0.961 . S
H848 C834 0.961 . S
H849 C835 0.958 . S
H850 C835 0.961 1_545 S
H851 C835 0.960 1_545 S
C852 C853 1.391 . S
C852 C854 1.394 . S
C852 H868 0.931 . S
C853 C852 1.391 . S
C853 C857 1.376 . S
C854 C852 1.394 . S
C854 C855 1.369 . S
C854 C858 1.531 . S
C855 C854 1.369 . S
C855 C856 1.410 . S
C855 C863 1.503 . S
C856 C855 1.410 . S
C856 C857 1.392 . S
C856 C859 1.511 . S
C857 C853 1.376 . S
C857 C856 1.392 . S
C857 H869 0.929 . S
C858 C854 1.531 . S
C858 H870 0.960 . S
C858 H871 0.962 . S
C858 H872 0.960 . S
C859 C856 1.511 . S
C859 H873 0.961 . S
C859 H874 0.961 . S
C859 H875 0.961 . S
C860 C861 1.370 . S
C860 C862 1.363 . S
C860 H876 0.931 . S
C861 C860 1.370 . S
C861 C865 1.408 . S
C862 C860 1.363 . S
C862 C863 1.370 . S
C862 C866 1.524 . S
C863 C855 1.503 . S
C863 C862 1.370 . S
C863 C864 1.403 . S
C864 C863 1.403 . S
C864 C865 1.404 . S
C864 C867 1.539 . S
C865 C861 1.408 . S
C865 C864 1.404 . S
C865 H877 0.930 . S
C866 C862 1.524 . S
C866 H878 0.956 . S
C866 H879 0.961 . S
C866 H880 0.961 . S
C867 C864 1.539 . S
C867 H881 0.958 . S
C867 H882 0.961 . S
C867 H883 0.960 . S
H868 C852 0.931 . S
H869 C857 0.929 . S
H870 C858 0.960 . S
H871 C858 0.962 . S
H872 C858 0.960 . S
H873 C859 0.961 . S
H874 C859 0.961 . S
H875 C859 0.961 . S
H876 C860 0.931 . S
H877 C865 0.930 . S
H878 C866 0.956 . S
H879 C866 0.961 . S
H880 C866 0.961 . S
H881 C867 0.958 . S
H882 C867 0.961 . S
H883 C867 0.960 . S
C884 C885 1.391 . S
C884 C886 1.394 . S
C884 H900 0.931 . S
C885 C884 1.391 . S
C885 C889 1.376 . S
C886 C884 1.394 . S
C886 C887 1.369 . S
C886 C890 1.531 . S
C887 C886 1.369 . S
C887 C888 1.410 . S
C887 C895 1.503 . S
C888 C887 1.410 . S
C888 C889 1.392 . S
C888 C891 1.511 . S
C889 C885 1.376 . S
C889 C888 1.392 . S
C889 H901 0.929 . S
C890 C886 1.531 . S
C890 H902 0.960 . S
C890 H903 0.962 . S
C890 H904 0.960 . S
C891 C888 1.511 . S
C891 H905 0.961 . S
C891 H906 0.961 . S
C891 H907 0.961 1_655 S
C892 C893 1.370 . S
C892 C894 1.363 . S
C892 H908 0.931 . S
C893 C892 1.370 . S
C893 C897 1.408 . S
C894 C892 1.363 . S
C894 C895 1.370 . S
C894 C898 1.524 . S
C895 C887 1.503 . S
C895 C894 1.370 . S
C895 C896 1.403 . S
C896 C895 1.403 . S
C896 C897 1.404 . S
C896 C899 1.539 . S
C897 C893 1.408 . S
C897 C896 1.404 . S
C897 H909 0.930 . S
C898 C894 1.524 . S
C898 H910 0.956 . S
C898 H911 0.961 . S
C898 H912 0.961 . S
C899 C896 1.539 . S
C899 H913 0.958 . S
C899 H914 0.961 1_655 S
C899 H915 0.960 1_655 S
H900 C884 0.931 . S
H901 C889 0.929 . S
H902 C890 0.960 . S
H903 C890 0.962 . S
H904 C890 0.960 . S
H905 C891 0.961 . S
H906 C891 0.961 . S
H907 C891 0.961 1_455 S
H908 C892 0.931 . S
H909 C897 0.930 . S
H910 C898 0.956 . S
H911 C898 0.961 . S
H912 C898 0.961 . S
H913 C899 0.958 . S
H914 C899 0.961 1_455 S
H915 C899 0.960 1_455 S
C916 C917 1.391 . S
C916 C918 1.394 . S
C916 H932 0.931 . S
C917 C916 1.391 . S
C917 C921 1.376 . S
C918 C916 1.394 . S
C918 C919 1.369 . S
C918 C922 1.531 . S
C919 C918 1.369 . S
C919 C920 1.410 . S
C919 C927 1.503 . S
C920 C919 1.410 . S
C920 C921 1.392 . S
C920 C923 1.511 . S
C921 C917 1.376 . S
C921 C920 1.392 . S
C921 H933 0.929 . S
C922 C918 1.531 . S
C922 H934 0.960 . S
C922 H935 0.962 . S
C922 H936 0.960 . S
C923 C920 1.511 . S
C923 H937 0.961 . S
C923 H938 0.961 . S
C923 H939 0.961 . S
C924 C925 1.370 . S
C924 C926 1.363 . S
C924 H940 0.931 . S
C925 C924 1.370 . S
C925 C929 1.408 . S
C926 C924 1.363 . S
C926 C927 1.370 . S
C926 C930 1.524 . S
C927 C919 1.503 . S
C927 C926 1.370 . S
C927 C928 1.403 . S
C928 C927 1.403 . S
C928 C929 1.404 . S
C928 C931 1.539 . S
C929 C925 1.408 . S
C929 C928 1.404 . S
C929 H941 0.930 . S
C930 C926 1.524 . S
C930 H942 0.956 . S
C930 H943 0.961 . S
C930 H944 0.961 . S
C931 C928 1.539 . S
C931 H945 0.958 . S
C931 H946 0.961 . S
C931 H947 0.960 . S
H932 C916 0.931 . S
H933 C921 0.929 . S
H934 C922 0.960 . S
H935 C922 0.962 . S
H936 C922 0.960 . S
H937 C923 0.961 . S
H938 C923 0.961 . S
H939 C923 0.961 . S
H940 C924 0.931 . S
H941 C929 0.930 . S
H942 C930 0.956 . S
H943 C930 0.961 . S
H944 C930 0.961 . S
H945 C931 0.958 . S
H946 C931 0.961 . S
H947 C931 0.960 . S
C948 C949 1.391 . S
C948 C950 1.394 . S
C948 H964 0.931 . S
C949 C948 1.391 . S
C949 C953 1.376 . S
C950 C948 1.394 . S
C950 C951 1.369 . S
C950 C954 1.531 . S
C951 C950 1.369 . S
C951 C952 1.410 . S
C951 C959 1.503 . S
C952 C951 1.410 . S
C952 C953 1.392 . S
C952 C955 1.511 . S
C953 C949 1.376 . S
C953 C952 1.392 . S
C953 H965 0.929 . S
C954 C950 1.531 . S
C954 H966 0.960 . S
C954 H967 0.962 . S
C954 H968 0.960 . S
C955 C952 1.511 . S
C955 H969 0.961 . S
C955 H970 0.961 . S
C955 H971 0.961 . S
C956 C957 1.370 . S
C956 C958 1.363 . S
C956 H972 0.931 . S
C957 C956 1.370 . S
C957 C961 1.408 . S
C958 C956 1.363 . S
C958 C959 1.370 . S
C958 C962 1.524 . S
C959 C951 1.503 . S
C959 C958 1.370 . S
C959 C960 1.403 . S
C960 C959 1.403 . S
C960 C961 1.404 . S
C960 C963 1.539 . S
C961 C957 1.408 . S
C961 C960 1.404 . S
C961 H973 0.930 . S
C962 C958 1.524 . S
C962 H974 0.956 . S
C962 H975 0.961 . S
C962 H976 0.961 . S
C963 C960 1.539 . S
C963 H977 0.958 . S
C963 H978 0.961 . S
C963 H979 0.960 . S
H964 C948 0.931 . S
H965 C953 0.929 . S
H966 C954 0.960 . S
H967 C954 0.962 . S
H968 C954 0.960 . S
H969 C955 0.961 . S
H970 C955 0.961 . S
H971 C955 0.961 . S
H972 C956 0.931 . S
H973 C961 0.930 . S
H974 C962 0.956 . S
H975 C962 0.961 . S
H976 C962 0.961 . S
H977 C963 0.958 . S
H978 C963 0.961 . S
H979 C963 0.960 . S
C980 C981 1.391 . S
C980 C982 1.394 . S
C980 H996 0.931 . S
C981 C980 1.391 . S
C981 C985 1.376 . S
C982 C980 1.394 . S
C982 C983 1.369 . S
C982 C986 1.531 . S
C983 C982 1.369 . S
C983 C984 1.410 1_565 S
C983 C991 1.503 1_565 S
C984 C983 1.410 1_545 S
C984 C985 1.392 1_545 S
C984 C987 1.511 . S
C985 C981 1.376 . S
C985 C984 1.392 1_565 S
C985 H997 0.929 . S
C986 C982 1.531 . S
C986 H998 0.960 . S
C986 H999 0.962 . S
C986 H1000 0.960 . S
C987 C984 1.511 . S
C987 H1001 0.961 . S
C987 H1002 0.961 . S
C987 H1003 0.961 . S
C988 C989 1.370 . S
C988 C990 1.363 . S
C988 H1004 0.931 . S
C989 C988 1.370 . S
C989 C993 1.408 . S
C990 C988 1.363 . S
C990 C991 1.370 . S
C990 C994 1.524 . S
C991 C983 1.503 1_545 S
C991 C990 1.370 . S
C991 C992 1.403 . S
C992 C991 1.403 . S
C992 C993 1.404 . S
C992 C995 1.539 1_545 S
C993 C989 1.408 . S
C993 C992 1.404 . S
C993 H1005 0.930 . S
C994 C990 1.524 . S
C994 H1006 0.956 . S
C994 H1007 0.961 . S
C994 H1008 0.961 . S
C995 C992 1.539 1_565 S
C995 H1009 0.958 . S
C995 H1010 0.961 1_565 S
C995 H1011 0.960 . S
H996 C980 0.931 . S
H997 C985 0.929 . S
H998 C986 0.960 . S
H999 C986 0.962 . S
H1000 C986 0.960 . S
H1001 C987 0.961 . S
H1002 C987 0.961 . S
H1003 C987 0.961 . S
H1004 C988 0.931 . S
H1005 C993 0.930 . S
H1006 C994 0.956 . S
H1007 C994 0.961 . S
H1008 C994 0.961 . S
H1009 C995 0.958 . S
H1010 C995 0.961 1_545 S
H1011 C995 0.960 . S
C1012 C1013 1.391 . S
C1012 C1014 1.394 . S
C1012 H1028 0.931 . S
C1013 C1012 1.391 . S
C1013 C1017 1.376 . S
C1014 C1012 1.394 . S
C1014 C1015 1.369 . S
C1014 C1018 1.531 1_655 S
C1015 C1014 1.369 . S
C1015 C1016 1.410 . S
C1015 C1023 1.503 1_655 S
C1016 C1015 1.410 . S
C1016 C1017 1.392 . S
C1016 C1019 1.511 . S
C1017 C1013 1.376 . S
C1017 C1016 1.392 . S
C1017 H1029 0.929 . S
C1018 C1014 1.531 1_455 S
C1018 H1030 0.960 . S
C1018 H1031 0.962 . S
C1018 H1032 0.960 1_455 S
C1019 C1016 1.511 . S
C1019 H1033 0.961 . S
C1019 H1034 0.961 . S
C1019 H1035 0.961 . S
C1020 C1021 1.370 . S
C1020 C1022 1.363 . S
C1020 H1036 0.931 . S
C1021 C1020 1.370 . S
C1021 C1025 1.408 . S
C1022 C1020 1.363 . S
C1022 C1023 1.370 . S
C1022 C1026 1.524 . S
C1023 C1015 1.503 1_455 S
C1023 C1022 1.370 . S
C1023 C1024 1.403 . S
C1024 C1023 1.403 . S
C1024 C1025 1.404 . S
C1024 C1027 1.539 1_455 S
C1025 C1021 1.408 . S
C1025 C1024 1.404 . S
C1025 H1037 0.930 . S
C1026 C1022 1.524 . S
C1026 H1038 0.956 . S
C1026 H1039 0.961 . S
C1026 H1040 0.961 . S
C1027 C1024 1.539 1_655 S
C1027 H1041 0.958 . S
C1027 H1042 0.961 . S
C1027 H1043 0.960 . S
H1028 C1012 0.931 . S
H1029 C1017 0.929 . S
H1030 C1018 0.960 . S
H1031 C1018 0.962 . S
H1032 C1018 0.960 1_655 S
H1033 C1019 0.961 . S
H1034 C1019 0.961 . S
H1035 C1019 0.961 . S
H1036 C1020 0.931 . S
H1037 C1025 0.930 . S
H1038 C1026 0.956 . S
H1039 C1026 0.961 . S
H1040 C1026 0.961 . S
H1041 C1027 0.958 . S
H1042 C1027 0.961 . S
H1043 C1027 0.960 . S
C181 C28 1.733 . S
C189 C19 1.840 . S
C213 C46 0.884 . S
C221 C36 0.841 . S
C245 C59 1.559 . S
C253 C6 1.496 . S
C277 C56 1.063 . S
C285 C26 1.003 . S
C309 C48 1.215 1_556 S
C317 C16 1.344 . S
C341 C8 1.925 1_556 S
C349 C39 2.067 1_556 S
C373 C79 1.077 . S
C381 C86 1.012 . S
C405 C106 1.544 . S
C413 C99 1.595 1_545 S
C437 C119 1.607 . S
C445 C66 1.543 . S
C469 C88 1.721 . S
C477 C116 1.864 . S
C501 C108 1.153 . S
C509 C76 1.277 . S
C533 C96 1.312 . S
C541 C68 1.149 . S
C565 C148 1.685 . S
C573 C139 1.814 . S
C597 C156 0.834 . S
C605 C166 0.823 . S
C629 C179 1.563 . S
C637 C126 1.494 . S
C661 C176 1.032 . S
C669 C146 0.971 . S
C693 C168 1.193 . S
C701 C136 1.330 1_565 S
C725 C128 1.911 . S
C733 C159 2.056 1_455 S
C757 C109 2.133 . S
C765 C1 2.213 . S
C789 C69 2.263 . S
C797 C29 2.262 . S
C821 C41 2.222 . S
C829 C89 2.119 . S
C853 C49 2.174 . S
C861 C121 2.224 . S
C885 C9 2.211 . S
C893 C149 2.218 . S
C917 C161 2.162 . S
C925 C21 2.155 . S
C949 C61 2.199 . S
C957 C169 2.151 . S
C981 C81 2.258 . S
C989 C129 2.157 . S
C1013 C141 2.124 . S
C1021 C101 2.117 . S
