# Generated by pormake.
# Topology vcq, (7)-cn, num edge types: 1
# Building blocks:
#     Node 0, Type 0, BuildingBlock: HICVOG_clean_sbu_0, # of connection points: 7
#     Node 1, Type 0, BuildingBlock: HICVOG_clean_sbu_0, # of connection points: 7
#     Node 2, Type 0, BuildingBlock: HICVOG_clean_sbu_0, # of connection points: 7
#     Node 3, Type 0, BuildingBlock: HICVOG_clean_sbu_0, # of connection points: 7
#     Node 4, Type 0, BuildingBlock: HICVOG_clean_sbu_0, # of connection points: 7
#     Node 5, Type 0, BuildingBlock: HICVOG_clean_sbu_0, # of connection points: 7
#     Node 6, Type 0, BuildingBlock: HICVOG_clean_sbu_0, # of connection points: 7
#     Node 7, Type 0, BuildingBlock: HICVOG_clean_sbu_0, # of connection points: 7
#     Node 8, Type 0, BuildingBlock: HICVOG_clean_sbu_0, # of connection points: 7
#     Node 9, Type 0, BuildingBlock: HICVOG_clean_sbu_0, # of connection points: 7
#     Node 10, Type 0, BuildingBlock: HICVOG_clean_sbu_0, # of connection points: 7
#     Node 11, Type 0, BuildingBlock: HICVOG_clean_sbu_0, # of connection points: 7
#     Node 12, Type 0, BuildingBlock: HICVOG_clean_sbu_0, # of connection points: 7
#     Node 13, Type 0, BuildingBlock: HICVOG_clean_sbu_0, # of connection points: 7
#     Node 14, Type 0, BuildingBlock: HICVOG_clean_sbu_0, # of connection points: 7
#     Node 15, Type 0, BuildingBlock: HICVOG_clean_sbu_0, # of connection points: 7
#     Edge 16, Type (0, 0), BuildingBlock: XIVTED_clean_linker_0, # of connection points: 2
#     Edge 17, Type (0, 0), BuildingBlock: XIVTED_clean_linker_0, # of connection points: 2
#     Edge 18, Type (0, 0), BuildingBlock: XIVTED_clean_linker_0, # of connection points: 2
#     Edge 19, Type (0, 0), BuildingBlock: XIVTED_clean_linker_0, # of connection points: 2
#     Edge 20, Type (0, 0), BuildingBlock: XIVTED_clean_linker_0, # of connection points: 2
#     Edge 21, Type (0, 0), BuildingBlock: XIVTED_clean_linker_0, # of connection points: 2
#     Edge 22, Type (0, 0), BuildingBlock: XIVTED_clean_linker_0, # of connection points: 2
#     Edge 23, Type (0, 0), BuildingBlock: XIVTED_clean_linker_0, # of connection points: 2
#     Edge 24, Type (0, 0), BuildingBlock: XIVTED_clean_linker_0, # of connection points: 2
#     Edge 25, Type (0, 0), BuildingBlock: XIVTED_clean_linker_0, # of connection points: 2
#     Edge 26, Type (0, 0), BuildingBlock: XIVTED_clean_linker_0, # of connection points: 2
#     Edge 27, Type (0, 0), BuildingBlock: XIVTED_clean_linker_0, # of connection points: 2
#     Edge 28, Type (0, 0), BuildingBlock: XIVTED_clean_linker_0, # of connection points: 2
#     Edge 29, Type (0, 0), BuildingBlock: XIVTED_clean_linker_0, # of connection points: 2
#     Edge 30, Type (0, 0), BuildingBlock: XIVTED_clean_linker_0, # of connection points: 2
#     Edge 31, Type (0, 0), BuildingBlock: XIVTED_clean_linker_0, # of connection points: 2
#     Edge 32, Type (0, 0), BuildingBlock: XIVTED_clean_linker_0, # of connection points: 2
#     Edge 33, Type (0, 0), BuildingBlock: XIVTED_clean_linker_0, # of connection points: 2
#     Edge 34, Type (0, 0), BuildingBlock: XIVTED_clean_linker_0, # of connection points: 2
#     Edge 35, Type (0, 0), BuildingBlock: XIVTED_clean_linker_0, # of connection points: 2
#     Edge 36, Type (0, 0), BuildingBlock: XIVTED_clean_linker_0, # of connection points: 2
#     Edge 37, Type (0, 0), BuildingBlock: XIVTED_clean_linker_0, # of connection points: 2
#     Edge 38, Type (0, 0), BuildingBlock: XIVTED_clean_linker_0, # of connection points: 2
#     Edge 39, Type (0, 0), BuildingBlock: XIVTED_clean_linker_0, # of connection points: 2
#     Edge 40, Type (0, 0), BuildingBlock: XIVTED_clean_linker_0, # of connection points: 2
#     Edge 41, Type (0, 0), BuildingBlock: XIVTED_clean_linker_0, # of connection points: 2
#     Edge 42, Type (0, 0), BuildingBlock: XIVTED_clean_linker_0, # of connection points: 2
#     Edge 43, Type (0, 0), BuildingBlock: XIVTED_clean_linker_0, # of connection points: 2
#     Edge 44, Type (0, 0), BuildingBlock: XIVTED_clean_linker_0, # of connection points: 2
#     Edge 45, Type (0, 0), BuildingBlock: XIVTED_clean_linker_0, # of connection points: 2
#     Edge 46, Type (0, 0), BuildingBlock: XIVTED_clean_linker_0, # of connection points: 2
#     Edge 47, Type (0, 0), BuildingBlock: XIVTED_clean_linker_0, # of connection points: 2
#     Edge 48, Type (0, 0), BuildingBlock: XIVTED_clean_linker_0, # of connection points: 2
#     Edge 49, Type (0, 0), BuildingBlock: XIVTED_clean_linker_0, # of connection points: 2
#     Edge 50, Type (0, 0), BuildingBlock: XIVTED_clean_linker_0, # of connection points: 2
#     Edge 51, Type (0, 0), BuildingBlock: XIVTED_clean_linker_0, # of connection points: 2
#     Edge 52, Type (0, 0), BuildingBlock: XIVTED_clean_linker_0, # of connection points: 2
#     Edge 53, Type (0, 0), BuildingBlock: XIVTED_clean_linker_0, # of connection points: 2
#     Edge 54, Type (0, 0), BuildingBlock: XIVTED_clean_linker_0, # of connection points: 2
#     Edge 55, Type (0, 0), BuildingBlock: XIVTED_clean_linker_0, # of connection points: 2
#     Edge 56, Type (0, 0), BuildingBlock: XIVTED_clean_linker_0, # of connection points: 2
#     Edge 57, Type (0, 0), BuildingBlock: XIVTED_clean_linker_0, # of connection points: 2
#     Edge 58, Type (0, 0), BuildingBlock: XIVTED_clean_linker_0, # of connection points: 2
#     Edge 59, Type (0, 0), BuildingBlock: XIVTED_clean_linker_0, # of connection points: 2
#     Edge 60, Type (0, 0), BuildingBlock: XIVTED_clean_linker_0, # of connection points: 2
#     Edge 61, Type (0, 0), BuildingBlock: XIVTED_clean_linker_0, # of connection points: 2
#     Edge 62, Type (0, 0), BuildingBlock: XIVTED_clean_linker_0, # of connection points: 2
#     Edge 63, Type (0, 0), BuildingBlock: XIVTED_clean_linker_0, # of connection points: 2
#     Edge 64, Type (0, 0), BuildingBlock: XIVTED_clean_linker_0, # of connection points: 2
#     Edge 65, Type (0, 0), BuildingBlock: XIVTED_clean_linker_0, # of connection points: 2
#     Edge 66, Type (0, 0), BuildingBlock: XIVTED_clean_linker_0, # of connection points: 2
#     Edge 67, Type (0, 0), BuildingBlock: XIVTED_clean_linker_0, # of connection points: 2
#     Edge 68, Type (0, 0), BuildingBlock: XIVTED_clean_linker_0, # of connection points: 2
#     Edge 69, Type (0, 0), BuildingBlock: XIVTED_clean_linker_0, # of connection points: 2
#     Edge 70, Type (0, 0), BuildingBlock: XIVTED_clean_linker_0, # of connection points: 2
#     Edge 71, Type (0, 0), BuildingBlock: XIVTED_clean_linker_0, # of connection points: 2
# Relax obj value: 0.278
# Max RMSD: 0.263
# Mean RMSD: 0.263
data_MOF--net-vcq--node1-HICVOG_clean_sbu_0--edge1-XIVTED_clean_linker_0
_symmetry_space_group_name_H-M    P1
_symmetry_Int_Tables_number       1
_symmetry_cell_setting            triclinic
loop_
_symmetry_equiv_pos_as_xyz
'x, y, z'
_cell_length_a     81.162637
_cell_length_b     33.763681
_cell_length_c     27.211675
_cell_angle_alpha  90.019786
_cell_angle_beta   89.958986
_cell_angle_gamma 89.980998
loop_
_atom_site_label
_atom_site_type_symbol
_atom_site_fract_x
_atom_site_fract_y
_atom_site_fract_z
_atom_type_partial_charge
Zn0 Zn 0.14969 0.37415 0.34338 0.0
C1 C 0.13294 0.32122 0.4639 0.0
N2 N 0.1408 0.35113 0.48643 0.0
C3 C 0.1448 0.37494 0.44878 0.0
N4 N 0.13941 0.36054 0.40534 0.0
N5 N 0.13177 0.32675 0.41498 0.0
C6 C 0.13084 0.22769 0.34832 0.0
O7 O 0.14126 0.25335 0.3296 0.0
O8 O 0.14947 0.43308 0.33175 0.0
Zn9 Zn 0.11568 0.30044 0.37357 0.0
N10 N 0.17213 0.35424 0.3483 0.0
C11 C 0.18893 0.30401 0.38374 0.0
C12 C 0.17347 0.31963 0.37355 0.0
C13 C 0.18579 0.3734 0.33126 0.0
N14 N 0.20253 0.3233 0.36764 0.0
C15 C 0.2015 0.3575 0.34135 0.0
O16 O 0.11706 0.31412 0.30167 0.0
C17 C 0.1263 0.33082 0.2701 0.0
O18 O 0.13889 0.35089 0.28272 0.0
H19 H 0.16257 0.3045 0.38644 0.0
H20 H 0.18447 0.4009 0.31122 0.0
C21 C 0.07972 0.2959 0.38503 0.0
C22 C 0.06466 0.30757 0.40649 0.0
C23 C 0.07867 0.3572 0.4518 0.0
C24 C 0.09344 0.34621 0.42984 0.0
N25 N 0.09387 0.31508 0.39807 0.0
N26 N 0.06468 0.33768 0.43971 0.0
H27 H 0.08021 0.27189 0.35871 0.0
C28 C 0.13566 0.44757 0.31894 0.0
O29 O 0.12262 0.4245 0.31902 0.0
O30 O 0.11876 0.24064 0.37361 0.0
H31 H 0.10452 0.36237 0.43861 0.0
H32 H 0.19015 0.27678 0.40434 0.0
H33 H 0.07827 0.38136 0.47789 0.0
Zn34 Zn 0.36619 0.6282 0.82605 0.0
C35 C 0.37623 0.68664 0.94524 0.0
N36 N 0.36773 0.65704 0.96626 0.0
C37 C 0.36741 0.62951 0.93067 0.0
N38 N 0.37533 0.64175 0.88966 0.0
N39 N 0.38121 0.6775 0.89934 0.0
C40 C 0.38287 0.77648 0.83871 0.0
O41 O 0.37312 0.75034 0.81794 0.0
O42 O 0.36662 0.5693 0.81429 0.0
Zn43 Zn 0.39823 0.70437 0.86205 0.0
N44 N 0.3436 0.64761 0.82846 0.0
C45 C 0.32641 0.69905 0.85945 0.0
C46 C 0.34199 0.68357 0.8505 0.0
C47 C 0.33009 0.62689 0.81332 0.0
N48 N 0.31297 0.67827 0.84529 0.0
C49 C 0.31427 0.64267 0.82215 0.0
O50 O 0.39815 0.69262 0.78933 0.0
C51 C 0.38986 0.67504 0.75618 0.0
O52 O 0.37767 0.65282 0.76682 0.0
H53 H 0.35273 0.69985 0.862 0.0
H54 H 0.33161 0.59832 0.79584 0.0
C55 C 0.43395 0.70714 0.87807 0.0
C56 C 0.4486 0.69488 0.90137 0.0
C57 C 0.43354 0.64622 0.94536 0.0
C58 C 0.41916 0.6579 0.92173 0.0
N59 N 0.41947 0.68878 0.88959 0.0
N60 N 0.44786 0.66493 0.93474 0.0
H61 H 0.43403 0.73105 0.85157 0.0
C62 C 0.38043 0.55423 0.80251 0.0
O63 O 0.3936 0.57683 0.80307 0.0
O64 O 0.39494 0.76402 0.86434 0.0
H65 H 0.40777 0.64283 0.9299 0.0
H66 H 0.325 0.72736 0.87762 0.0
H67 H 0.43336 0.62226 0.97174 0.0
Zn68 Zn 0.15132 0.63769 0.70138 0.0
C69 C 0.14485 0.69775 0.58342 0.0
N70 N 0.15342 0.6674 0.56414 0.0
C71 C 0.15187 0.63911 0.59846 0.0
N72 N 0.14291 0.65167 0.63725 0.0
N73 N 0.138 0.68818 0.62719 0.0
C74 C 0.13438 0.78684 0.68718 0.0
O75 O 0.14392 0.76128 0.70978 0.0
O76 O 0.15086 0.57871 0.71205 0.0
Zn77 Zn 0.11999 0.71408 0.66207 0.0
N78 N 0.17392 0.65694 0.70155 0.0
C79 C 0.19131 0.70992 0.67629 0.0
C80 C 0.17568 0.69424 0.68351 0.0
C81 C 0.18735 0.63483 0.71416 0.0
N82 N 0.20467 0.68783 0.68797 0.0
C83 C 0.20323 0.65073 0.707 0.0
O84 O 0.11904 0.70226 0.73545 0.0
C85 C 0.12693 0.68422 0.7692 0.0
O86 O 0.13915 0.66187 0.75938 0.0
H87 H 0.16498 0.71139 0.67366 0.0
H88 H 0.18571 0.6051 0.72822 0.0
C89 C 0.08422 0.71235 0.64422 0.0
C90 C 0.07006 0.7 0.61833 0.0
C91 C 0.08672 0.65817 0.56889 0.0
C92 C 0.10062 0.66999 0.59484 0.0
N93 N 0.09927 0.69752 0.63119 0.0
N94 N 0.07184 0.67343 0.5811 0.0
H95 H 0.08334 0.73373 0.67376 0.0
C96 C 0.1372 0.5638 0.72544 0.0
O97 O 0.12413 0.58673 0.72752 0.0
O98 O 0.1228 0.77373 0.66008 0.0
H99 H 0.11247 0.65777 0.58512 0.0
H100 H 0.19284 0.73936 0.66129 0.0
H101 H 0.08773 0.63687 0.53932 0.0
Zn102 Zn 0.36326 0.36791 0.1979 0.0
C103 C 0.36903 0.31061 0.07752 0.0
N104 N 0.36057 0.34162 0.05962 0.0
C105 C 0.36249 0.3693 0.09454 0.0
N106 N 0.37153 0.35566 0.13265 0.0
N107 N 0.37616 0.31916 0.12119 0.0
C108 C 0.37922 0.21923 0.18002 0.0
O109 O 0.37023 0.2451 0.2041 0.0
O110 O 0.36354 0.42674 0.21074 0.0
Zn111 Zn 0.39399 0.29153 0.15464 0.0
N112 N 0.34069 0.34806 0.19845 0.0
C113 C 0.32341 0.29533 0.17162 0.0
C114 C 0.33899 0.31141 0.17839 0.0
C115 C 0.32722 0.36904 0.21367 0.0
N116 N 0.31002 0.31633 0.18584 0.0
C117 C 0.31138 0.3527 0.20699 0.0
O118 O 0.39544 0.30212 0.22802 0.0
C119 C 0.38794 0.31968 0.26294 0.0
O120 O 0.37575 0.34258 0.25478 0.0
H121 H 0.34968 0.29501 0.16672 0.0
H122 H 0.32878 0.39821 0.2295 0.0
C123 C 0.42969 0.29239 0.13754 0.0
C124 C 0.44401 0.30415 0.112 0.0
C125 C 0.42772 0.34555 0.06101 0.0
C126 C 0.41366 0.33437 0.08669 0.0
N127 N 0.41476 0.30731 0.12364 0.0
N128 N 0.44249 0.3302 0.07414 0.0
H129 H 0.43035 0.27146 0.16758 0.0
C130 C 0.37718 0.4421 0.22362 0.0
O131 O 0.39045 0.41978 0.22415 0.0
O132 O 0.39056 0.23196 0.15174 0.0
H133 H 0.4019 0.34668 0.07633 0.0
H134 H 0.32194 0.26643 0.15504 0.0
H135 H 0.42693 0.36644 0.03097 0.0
Zn136 Zn 0.86467 0.6285 0.67152 0.0
C137 C 0.89012 0.67949 0.55962 0.0
N138 N 0.88322 0.65019 0.53361 0.0
C139 C 0.87628 0.6276 0.56849 0.0
N140 N 0.87854 0.64262 0.61419 0.0
N141 N 0.88753 0.67522 0.60838 0.0
C142 C 0.88662 0.77746 0.65922 0.0
O143 O 0.87377 0.75425 0.66512 0.0
O144 O 0.86701 0.57014 0.68946 0.0
Zn145 Zn 0.90031 0.7022 0.65827 0.0
N146 N 0.84183 0.64115 0.65352 0.0
C147 C 0.82428 0.67516 0.59744 0.0
C148 C 0.83997 0.66519 0.61376 0.0
C149 C 0.82839 0.62778 0.67879 0.0
N150 N 0.81096 0.66177 0.62235 0.0
C151 C 0.81241 0.63858 0.66303 0.0
O152 O 0.89178 0.69529 0.72658 0.0
C153 C 0.88082 0.67959 0.75349 0.0
O154 O 0.86997 0.6565 0.73578 0.0
H155 H 0.85057 0.67684 0.59473 0.0
H156 H 0.8301 0.60897 0.71045 0.0
C157 C 0.93678 0.69825 0.6581 0.0
C158 C 0.95149 0.67693 0.66602 0.0
C159 C 0.93596 0.6178 0.67521 0.0
C160 C 0.92147 0.63891 0.66787 0.0
N161 N 0.92208 0.6786 0.65985 0.0
N162 N 0.95056 0.63726 0.67448 0.0
H163 H 0.93696 0.72998 0.65241 0.0
C164 C 0.86203 0.55758 0.73103 0.0
O165 O 0.8547 0.58232 0.76121 0.0
O166 O 0.90052 0.76162 0.65006 0.0
H167 H 0.90969 0.624 0.66971 0.0
H168 H 0.82269 0.69389 0.56554 0.0
H169 H 0.93562 0.58625 0.68207 0.0
Zn170 Zn 0.61317 0.30075 0.16147 0.0
C171 C 0.63774 0.37429 0.07171 0.0
N172 N 0.63081 0.3518 0.03672 0.0
C173 C 0.62358 0.32293 0.06271 0.0
N174 N 0.62598 0.3274 0.11151 0.0
N175 N 0.63512 0.3597 0.1174 0.0
C176 C 0.63686 0.44371 0.21996 0.0
O177 O 0.62558 0.41855 0.23492 0.0
O178 O 0.61272 0.24142 0.15309 0.0
Zn179 Zn 0.64914 0.37286 0.17432 0.0
N180 N 0.59149 0.32466 0.16283 0.0
C181 C 0.57763 0.38554 0.178 0.0
C182 C 0.59213 0.36433 0.17097 0.0
C183 C 0.57679 0.30513 0.16049 0.0
N184 N 0.56302 0.36619 0.17666 0.0
C185 C 0.56208 0.32655 0.16795 0.0
O186 O 0.6438 0.34546 0.23888 0.0
C187 C 0.63278 0.32285 0.25668 0.0
O188 O 0.62171 0.30752 0.22984 0.0
H189 H 0.60391 0.37916 0.17299 0.0
H190 H 0.5766 0.27344 0.15457 0.0
C191 C 0.68511 0.37296 0.17969 0.0
C192 C 0.70099 0.36181 0.16362 0.0
C193 C 0.68885 0.32253 0.10092 0.0
C194 C 0.67324 0.333 0.11746 0.0
N195 N 0.67159 0.35848 0.15589 0.0
N196 N 0.70229 0.33707 0.12428 0.0
H197 H 0.68345 0.39301 0.21032 0.0
C198 C 0.62654 0.22519 0.16226 0.0
O199 O 0.6395 0.24802 0.16828 0.0
O200 O 0.64831 0.43138 0.19181 0.0
H201 H 0.66252 0.32079 0.09959 0.0
H202 H 0.57799 0.41707 0.18499 0.0
H203 H 0.69031 0.30266 0.07003 0.0
Zn204 Zn 0.86128 0.36877 0.32223 0.0
C205 C 0.88276 0.31732 0.43852 0.0
N206 N 0.87499 0.34598 0.46342 0.0
C207 C 0.86961 0.36988 0.4274 0.0
N208 N 0.87373 0.35623 0.3822 0.0
N209 N 0.88227 0.32326 0.38965 0.0
C210 C 0.88349 0.22205 0.34082 0.0
O211 O 0.87073 0.24492 0.3318 0.0
O212 O 0.86179 0.4273 0.30664 0.0
Zn213 Zn 0.89689 0.29748 0.34417 0.0
N214 N 0.83876 0.35162 0.33511 0.0
C215 C 0.82163 0.30865 0.38201 0.0
C216 C 0.8372 0.3218 0.36838 0.0
C217 C 0.82522 0.36813 0.31358 0.0
N218 N 0.80817 0.3252 0.36101 0.0
C219 C 0.80938 0.35445 0.32677 0.0
O220 O 0.89073 0.30495 0.27426 0.0
C221 C 0.88073 0.32045 0.24412 0.0
O222 O 0.86901 0.34271 0.25848 0.0
H223 H 0.84798 0.30833 0.38452 0.0
H224 H 0.8268 0.39175 0.28714 0.0
C225 C 0.93302 0.30147 0.35165 0.0
C226 C 0.94787 0.32299 0.34926 0.0
C227 C 0.93266 0.38299 0.34596 0.0
C228 C 0.91801 0.36169 0.34782 0.0
N229 N 0.91843 0.32151 0.35022 0.0
N230 N 0.94719 0.3632 0.34633 0.0
H231 H 0.93306 0.26943 0.35277 0.0
C232 C 0.87437 0.43991 0.28346 0.0
O233 O 0.88645 0.41516 0.27394 0.0
O234 O 0.8971 0.23823 0.3524 0.0
H235 H 0.90632 0.37699 0.34612 0.0
H236 H 0.82024 0.28526 0.40885 0.0
H237 H 0.9325 0.41496 0.34355 0.0
Zn238 Zn 0.61719 0.70659 0.85239 0.0
C239 C 0.64338 0.63347 0.93792 0.0
N240 N 0.63696 0.65599 0.97384 0.0
C241 C 0.62941 0.68488 0.94877 0.0
N242 N 0.63103 0.68033 0.89977 0.0
N243 N 0.64006 0.64801 0.8926 0.0
C244 C 0.63974 0.56432 0.79088 0.0
O245 O 0.62808 0.5897 0.77952 0.0
O246 O 0.61685 0.76592 0.86055 0.0
Zn247 Zn 0.65306 0.63481 0.83334 0.0
N248 N 0.59558 0.68262 0.85538 0.0
C249 C 0.58146 0.62125 0.84727 0.0
C250 C 0.59606 0.64253 0.85121 0.0
C251 C 0.58096 0.70255 0.85665 0.0
N252 N 0.56691 0.64096 0.84747 0.0
C253 C 0.56616 0.68105 0.85219 0.0
O254 O 0.64636 0.66187 0.76954 0.0
C255 C 0.63486 0.68421 0.75402 0.0
O256 O 0.62439 0.6994 0.78305 0.0
H257 H 0.60778 0.62735 0.8498 0.0
H258 H 0.58088 0.73454 0.8593 0.0
C259 C 0.68912 0.63463 0.8237 0.0
C260 C 0.70513 0.64689 0.83735 0.0
C261 C 0.69344 0.68883 0.89823 0.0
C262 C 0.67771 0.67715 0.88415 0.0
N263 N 0.67578 0.6499 0.84779 0.0
N264 N 0.70669 0.67352 0.87464 0.0
H265 H 0.68724 0.6131 0.79479 0.0
C266 C 0.63049 0.78228 0.84956 0.0
O267 O 0.64339 0.75959 0.84173 0.0
O268 O 0.65198 0.57628 0.81614 0.0
H269 H 0.66712 0.68984 0.90227 0.0
H270 H 0.58167 0.58937 0.84344 0.0
H271 H 0.69511 0.71018 0.92745 0.0
Zn272 Zn 0.64874 0.87509 0.32121 0.0
C273 C 0.63853 0.81679 0.44081 0.0
N274 N 0.64699 0.84646 0.46183 0.0
C275 C 0.64747 0.8738 0.42602 0.0
N276 N 0.63968 0.86135 0.38493 0.0
N277 N 0.6337 0.82571 0.39473 0.0
C278 C 0.63115 0.72634 0.33543 0.0
O279 O 0.6412 0.75171 0.31446 0.0
O280 O 0.64823 0.93409 0.30929 0.0
Zn281 Zn 0.61636 0.79941 0.35792 0.0
N282 N 0.67135 0.85555 0.32302 0.0
C283 C 0.68835 0.80334 0.35283 0.0
C284 C 0.67284 0.81933 0.34442 0.0
C285 C 0.68495 0.87608 0.308 0.0
N286 N 0.70187 0.82391 0.3388 0.0
C287 C 0.70072 0.85979 0.3163 0.0
O288 O 0.61655 0.81063 0.28493 0.0
C289 C 0.62495 0.82801 0.25179 0.0
O290 O 0.63713 0.85022 0.26249 0.0
H291 H 0.66203 0.80321 0.35578 0.0
H292 H 0.68353 0.90487 0.29103 0.0
C293 C 0.58054 0.79819 0.37502 0.0
C294 C 0.56608 0.81102 0.3991 0.0
C295 C 0.58173 0.85893 0.44252 0.0
C296 C 0.59591 0.84663 0.41826 0.0
N297 N 0.59523 0.8159 0.38595 0.0
N298 N 0.56722 0.84087 0.43252 0.0
H299 H 0.58017 0.77429 0.34853 0.0
C300 C 0.6345 0.94891 0.29618 0.0
O301 O 0.62141 0.92602 0.29534 0.0
O302 O 0.61918 0.73971 0.36079 0.0
H303 H 0.60745 0.86119 0.42601 0.0
H304 H 0.68966 0.77481 0.37047 0.0
H305 H 0.58221 0.88282 0.46898 0.0
Zn306 Zn 0.86462 0.12724 0.81926 0.0
C307 C 0.88407 0.17983 0.9377 0.0
N308 N 0.87731 0.14877 0.96089 0.0
C309 C 0.87278 0.12535 0.92343 0.0
N310 N 0.87653 0.14126 0.87925 0.0
N311 N 0.88382 0.17563 0.88846 0.0
C312 C 0.88225 0.27841 0.84196 0.0
O313 O 0.86974 0.25417 0.83625 0.0
O314 O 0.86588 0.06826 0.80689 0.0
Zn315 Zn 0.89807 0.20424 0.84397 0.0
N316 N 0.84187 0.14341 0.83125 0.0
C317 C 0.82456 0.18603 0.87823 0.0
C318 C 0.84017 0.17392 0.86355 0.0
C319 C 0.82837 0.1253 0.8115 0.0
N320 N 0.81116 0.16774 0.85928 0.0
C321 C 0.81249 0.13783 0.82597 0.0
O322 O 0.89284 0.19433 0.7738 0.0
C323 C 0.88397 0.17664 0.74236 0.0
O324 O 0.87273 0.15246 0.75525 0.0
H325 H 0.85087 0.18861 0.87839 0.0
H326 H 0.82997 0.1012 0.7857 0.0
C327 C 0.93441 0.20516 0.85383 0.0
C328 C 0.94965 0.1851 0.85366 0.0
C329 C 0.93558 0.12354 0.85223 0.0
C330 C 0.92056 0.14332 0.85192 0.0
N331 N 0.9202 0.18357 0.85234 0.0
N332 N 0.94972 0.14481 0.85272 0.0
H333 H 0.93388 0.23719 0.85343 0.0
C334 C 0.87942 0.05509 0.78988 0.0
O335 O 0.89188 0.07961 0.78503 0.0
O336 O 0.89647 0.26393 0.85015 0.0
H337 H 0.9092 0.12672 0.85016 0.0
H338 H 0.82309 0.2099 0.9044 0.0
H339 H 0.93601 0.09152 0.85145 0.0
Zn340 Zn 0.64969 0.13367 0.6914 0.0
C341 C 0.64136 0.19239 0.57202 0.0
N342 N 0.65007 0.16253 0.55224 0.0
C343 C 0.64949 0.13469 0.58741 0.0
N344 N 0.64091 0.14705 0.62714 0.0
N345 N 0.63537 0.18303 0.61687 0.0
C346 C 0.63265 0.28174 0.6765 0.0
O347 O 0.64226 0.25572 0.69803 0.0
O348 O 0.64951 0.07463 0.70311 0.0
Zn349 Zn 0.61779 0.20943 0.65276 0.0
N350 N 0.67226 0.1536 0.69046 0.0
C351 C 0.6892 0.20662 0.66263 0.0
C352 C 0.67371 0.19029 0.67035 0.0
C353 C 0.68588 0.13275 0.70454 0.0
N354 N 0.70274 0.1858 0.67582 0.0
C355 C 0.70164 0.14933 0.69685 0.0
O356 O 0.61743 0.19805 0.72577 0.0
C357 C 0.62541 0.18044 0.7596 0.0
O358 O 0.63766 0.1581 0.74989 0.0
H359 H 0.66289 0.20649 0.65934 0.0
H360 H 0.6845 0.10348 0.72021 0.0
C361 C 0.582 0.20905 0.6372 0.0
C362 C 0.56749 0.19601 0.61365 0.0
C363 C 0.58334 0.15077 0.56646 0.0
C364 C 0.59757 0.1632 0.59029 0.0
N365 N 0.59678 0.19277 0.62424 0.0
N366 N 0.56871 0.16742 0.57858 0.0
H367 H 0.58157 0.23193 0.66504 0.0
C368 C 0.63594 0.05921 0.71659 0.0
O369 O 0.62268 0.08153 0.71798 0.0
O370 O 0.62074 0.26915 0.65032 0.0
H371 H 0.60922 0.14977 0.58089 0.0
H372 H 0.69047 0.23558 0.64605 0.0
H373 H 0.58389 0.12785 0.53871 0.0
Zn374 Zn 0.86374 0.86936 0.18804 0.0
C375 C 0.872 0.81044 0.06871 0.0
N376 N 0.86311 0.84001 0.04909 0.0
C377 C 0.86369 0.86802 0.08408 0.0
N378 N 0.87242 0.85597 0.12361 0.0
N379 N 0.8781 0.82014 0.11328 0.0
C380 C 0.88077 0.72206 0.1696 0.0
O381 O 0.87079 0.74785 0.19011 0.0
O382 O 0.8642 0.9283 0.1998 0.0
Zn383 Zn 0.89579 0.79425 0.14888 0.0
N384 N 0.84103 0.85037 0.18715 0.0
C385 C 0.82352 0.79899 0.15776 0.0
C386 C 0.83918 0.81428 0.16566 0.0
C387 C 0.82764 0.87153 0.20257 0.0
N388 N 0.81021 0.82019 0.17219 0.0
C389 C 0.81172 0.85601 0.19467 0.0
O390 O 0.89598 0.80484 0.22213 0.0
C391 C 0.88788 0.82205 0.25606 0.0
O392 O 0.87563 0.8444 0.24642 0.0
H393 H 0.84982 0.7978 0.15368 0.0
H394 H 0.82933 0.90028 0.21943 0.0
C395 C 0.93149 0.79476 0.13342 0.0
C396 C 0.94605 0.80776 0.11007 0.0
C397 C 0.9303 0.85324 0.063 0.0
C398 C 0.91602 0.8408 0.08663 0.0
N399 N 0.91675 0.81122 0.12051 0.0
N400 N 0.94491 0.83648 0.07516 0.0
H401 H 0.93183 0.77171 0.16103 0.0
C402 C 0.87775 0.94347 0.21378 0.0
O403 O 0.89092 0.92087 0.21595 0.0
O404 O 0.89305 0.73486 0.14522 0.0
H405 H 0.90437 0.85422 0.07716 0.0
H406 H 0.82193 0.77055 0.14006 0.0
H407 H 0.92981 0.87622 0.03534 0.0
Zn408 Zn 0.36301 0.1289 0.67736 0.0
C409 C 0.39004 0.17843 0.56792 0.0
N410 N 0.38362 0.14842 0.54199 0.0
C411 C 0.37621 0.1265 0.57664 0.0
N412 N 0.3777 0.14253 0.62198 0.0
N413 N 0.38668 0.17515 0.61645 0.0
C414 C 0.3854 0.27831 0.66676 0.0
O415 O 0.37228 0.25588 0.67193 0.0
O416 O 0.36469 0.07075 0.69662 0.0
Zn417 Zn 0.39862 0.20252 0.6679 0.0
N418 N 0.34047 0.14027 0.65634 0.0
C419 C 0.32282 0.16871 0.59601 0.0
C420 C 0.33855 0.16095 0.61382 0.0
C421 C 0.32709 0.12828 0.68289 0.0
N422 N 0.30954 0.15661 0.62215 0.0
C423 C 0.31109 0.13687 0.66552 0.0
O424 O 0.38905 0.19631 0.73556 0.0
C425 C 0.37754 0.1809 0.76075 0.0
O426 O 0.367 0.15776 0.74153 0.0
H427 H 0.34911 0.17154 0.59369 0.0
H428 H 0.32895 0.11217 0.7168 0.0
C429 C 0.43503 0.1987 0.66777 0.0
C430 C 0.4498 0.17815 0.67758 0.0
C431 C 0.43438 0.12 0.69465 0.0
C432 C 0.41984 0.14034 0.68514 0.0
N433 N 0.42037 0.17923 0.67249 0.0
N434 N 0.44895 0.13935 0.69095 0.0
H435 H 0.43514 0.22978 0.65804 0.0
C436 C 0.37574 0.05994 0.72703 0.0
O437 O 0.3861 0.0865 0.74395 0.0
O438 O 0.39922 0.26168 0.65885 0.0
H439 H 0.40809 0.12555 0.68868 0.0
H440 H 0.32117 0.1847 0.56193 0.0
H441 H 0.4341 0.08913 0.70526 0.0
Zn442 Zn 0.14841 0.87534 0.18108 0.0
C443 C 0.12095 0.81983 0.07678 0.0
N444 N 0.12401 0.85257 0.05077 0.0
C445 C 0.13165 0.87615 0.08327 0.0
N446 N 0.13349 0.85842 0.1276 0.0
N447 N 0.12636 0.8231 0.12349 0.0
C448 C 0.129 0.72128 0.1773 0.0
O449 O 0.14192 0.74451 0.18146 0.0
O450 O 0.14645 0.93479 0.19424 0.0
Zn451 Zn 0.11488 0.79631 0.17575 0.0
N452 N 0.17097 0.86223 0.1607 0.0
C453 C 0.18815 0.83281 0.09978 0.0
C454 C 0.17257 0.84203 0.11767 0.0
C455 C 0.18454 0.87268 0.18741 0.0
N456 N 0.20162 0.84345 0.12599 0.0
C457 C 0.20042 0.86296 0.16964 0.0
O458 O 0.12425 0.80619 0.24242 0.0
C459 C 0.13479 0.825 0.26767 0.0
O460 O 0.14457 0.8499 0.24812 0.0
H461 H 0.16184 0.83332 0.09695 0.0
H462 H 0.18296 0.88869 0.22153 0.0
C463 C 0.0783 0.79901 0.17252 0.0
C464 C 0.06341 0.81924 0.18189 0.0
C465 C 0.07856 0.87697 0.20277 0.0
C466 C 0.0932 0.85694 0.19375 0.0
N467 N 0.09287 0.81841 0.17946 0.0
N468 N 0.06406 0.85766 0.19695 0.0
H469 H 0.07831 0.76823 0.16136 0.0
C470 C 0.1355 0.94677 0.22435 0.0
O471 O 0.12531 0.92077 0.24344 0.0
O472 O 0.11501 0.73697 0.16924 0.0
H473 H 0.10488 0.87169 0.19891 0.0
H474 H 0.18955 0.81714 0.06534 0.0
H475 H 0.07868 0.90754 0.21466 0.0
Zn476 Zn 0.36 0.86549 0.33792 0.0
C477 C 0.38422 0.81672 0.45269 0.0
N478 N 0.37662 0.8456 0.47774 0.0
C479 C 0.37005 0.8678 0.44182 0.0
N480 N 0.37333 0.85309 0.39659 0.0
N481 N 0.38251 0.82102 0.40367 0.0
C482 C 0.38347 0.71995 0.35305 0.0
O483 O 0.37059 0.74271 0.34528 0.0
O484 O 0.36016 0.92411 0.32079 0.0
Zn485 Zn 0.39665 0.79555 0.35609 0.0
N486 N 0.33754 0.8481 0.35247 0.0
C487 C 0.32083 0.80596 0.40179 0.0
C488 C 0.33626 0.81957 0.38753 0.0
C489 C 0.32383 0.86289 0.32989 0.0
N490 N 0.3072 0.8208 0.37976 0.0
C491 C 0.3081 0.84876 0.34382 0.0
O492 O 0.38957 0.80288 0.28641 0.0
C493 C 0.37884 0.81786 0.25807 0.0
O494 O 0.36717 0.83929 0.2744 0.0
H495 H 0.34717 0.80739 0.40449 0.0
H496 H 0.32518 0.8855 0.30202 0.0
C497 C 0.43297 0.80064 0.36085 0.0
C498 C 0.44765 0.82281 0.35745 0.0
C499 C 0.43196 0.8821 0.35457 0.0
C500 C 0.41749 0.86019 0.35737 0.0
N501 N 0.41821 0.82004 0.36005 0.0
N502 N 0.44664 0.86296 0.35427 0.0
H503 H 0.43327 0.76861 0.36229 0.0
C504 C 0.37213 0.93697 0.29501 0.0
O505 O 0.38408 0.91249 0.28323 0.0
O506 O 0.39713 0.73623 0.36387 0.0
H507 H 0.40568 0.87499 0.35624 0.0
H508 H 0.31967 0.78354 0.42997 0.0
H509 H 0.43155 0.91406 0.35196 0.0
Zn510 Zn 0.11709 0.21379 0.87483 0.0
C511 C 0.14796 0.14167 0.94622 0.0
N512 N 0.14461 0.16597 0.98404 0.0
C513 C 0.13634 0.19563 0.96239 0.0
N514 N 0.13423 0.18934 0.91388 0.0
N515 N 0.14189 0.15574 0.90342 0.0
C516 C 0.13965 0.0689 0.80356 0.0
O517 O 0.12688 0.0918 0.79517 0.0
O518 O 0.11946 0.2731 0.87627 0.0
Zn519 Zn 0.15173 0.14265 0.84002 0.0
N520 N 0.0958 0.19744 0.90143 0.0
C521 C 0.08165 0.15523 0.95742 0.0
C522 C 0.0961 0.16711 0.93432 0.0
C523 C 0.08127 0.21506 0.88867 0.0
N524 N 0.06727 0.17318 0.94553 0.0
C525 C 0.06654 0.20255 0.91138 0.0
O526 O 0.14017 0.16677 0.78144 0.0
C527 C 0.12724 0.18599 0.77001 0.0
O528 O 0.11792 0.20141 0.80243 0.0
H529 H 0.10752 0.15233 0.94305 0.0
H530 H 0.08122 0.23858 0.86166 0.0
C531 C 0.18759 0.14534 0.82295 0.0
C532 C 0.20334 0.16209 0.83032 0.0
C533 C 0.19111 0.21419 0.8763 0.0
C534 C 0.17564 0.19769 0.86887 0.0
N535 N 0.1741 0.16349 0.84287 0.0
N536 N 0.20453 0.19604 0.85708 0.0
H537 H 0.18608 0.118 0.8027 0.0
C538 C 0.13234 0.28599 0.85497 0.0
O539 O 0.14333 0.26036 0.83929 0.0
O540 O 0.15214 0.08346 0.82544 0.0
H541 H 0.16491 0.21185 0.88438 0.0
H542 H 0.08181 0.13165 0.98432 0.0
H543 H 0.19248 0.2412 0.8973 0.0
H544 H 0.14523 0.27322 0.96792 0.0
H545 H 0.10099 0.28853 0.22913 0.0
H546 H 0.1114 0.18738 0.02709 0.0
H547 H 0.1447 0.35438 0.19013 0.0
H548 H 0.09876 0.26596 0.14434 0.0
H549 H 0.139 0.31729 0.03761 0.0
C550 C 0.13591 0.26455 0.99434 0.0
C551 C 0.12859 0.22705 0.99164 0.0
C552 C 0.1087 0.28584 0.15416 0.0
C553 C 0.12177 0.27634 0.07153 0.0
C554 C 0.11 0.29878 0.20266 0.0
C555 C 0.12328 0.32273 0.21722 0.0
C556 C 0.12077 0.29675 0.11975 0.0
C557 C 0.13441 0.33543 0.18085 0.0
C558 C 0.13252 0.28939 0.03434 0.0
C559 C 0.11702 0.21644 0.02745 0.0
N560 N 0.13305 0.32179 0.13393 0.0
N561 N 0.11408 0.24077 0.06616 0.0
H562 H 0.37316 0.74093 0.45646 0.0
H563 H 0.41536 0.71917 0.71917 0.0
H564 H 0.41078 0.81848 0.51257 0.0
H565 H 0.37255 0.65289 0.6734 0.0
H566 H 0.41867 0.74314 0.63525 0.0
H567 H 0.37813 0.69562 0.52535 0.0
C568 C 0.38309 0.7473 0.48184 0.0
C569 C 0.39177 0.7831 0.4786 0.0
C570 C 0.40868 0.72291 0.64334 0.0
C571 C 0.39698 0.73261 0.55864 0.0
C572 C 0.40676 0.70916 0.6914 0.0
C573 C 0.39346 0.68446 0.70382 0.0
C574 C 0.39719 0.71216 0.60715 0.0
C575 C 0.38288 0.67222 0.66582 0.0
C576 C 0.38571 0.72184 0.52172 0.0
C577 C 0.404 0.79085 0.51355 0.0
N578 N 0.38483 0.68665 0.61942 0.0
N579 N 0.40609 0.76616 0.5525 0.0
H580 H 0.09348 0.8098 0.02217 0.0
H581 H 0.14313 0.65941 0.85266 0.0
H582 H 0.13765 0.75014 0.0687 0.0
H583 H 0.10096 0.7275 0.8057 0.0
H584 H 0.1378 0.67994 0.93748 0.0
H585 H 0.09186 0.76581 0.95106 0.0
C586 C 0.10239 0.78604 0.01865 0.0
C587 C 0.11565 0.78342 0.05146 0.0
C588 C 0.12957 0.68991 0.90871 0.0
C589 C 0.11447 0.73432 0.96853 0.0
C590 C 0.13261 0.67822 0.86013 0.0
C591 C 0.12264 0.69218 0.82158 0.0
C592 C 0.11644 0.71575 0.91905 0.0
C593 C 0.10914 0.71632 0.83389 0.0
C594 C 0.10165 0.76136 0.9775 0.0
C595 C 0.12709 0.75274 0.04461 0.0
N596 N 0.10656 0.72761 0.8813 0.0
N597 N 0.12649 0.73 1.00321 0.0
H598 H 0.37689 0.25244 0.56481 0.0
H599 H 0.41392 0.27461 0.29537 0.0
H600 H 0.41635 0.18117 0.50698 0.0
H601 H 0.37236 0.34187 0.34878 0.0
H602 H 0.41901 0.25121 0.3788 0.0
H603 H 0.37968 0.29727 0.49445 0.0
C604 C 0.38679 0.24754 0.5388 0.0
C605 C 0.39659 0.21341 0.54208 0.0
C606 C 0.4089 0.2715 0.37249 0.0
C607 C 0.39927 0.26322 0.46 0.0
C608 C 0.40596 0.28491 0.32468 0.0
C609 C 0.39251 0.30986 0.31461 0.0
C610 C 0.39827 0.28278 0.41085 0.0
C611 C 0.38277 0.32239 0.35451 0.0
C612 C 0.38814 0.27264 0.49795 0.0
C613 C 0.40872 0.20747 0.50609 0.0
N614 N 0.3857 0.3083 0.40063 0.0
N615 N 0.40952 0.23163 0.46618 0.0
H616 H 0.90568 0.71311 0.80683 0.0
H617 H 0.84967 0.75748 0.03699 0.0
H618 H 0.85645 0.66627 0.82213 0.0
H619 H 0.90145 0.78431 0.03163 0.0
H620 H 0.85292 0.71466 0.96516 0.0
H621 H 0.90533 0.73193 0.8932 0.0
C622 C 0.89478 0.70662 0.8284 0.0
C623 C 0.88095 0.68864 0.80685 0.0
C624 C 0.8637 0.72891 0.98047 0.0
C625 C 0.88049 0.71024 0.90633 0.0
C626 C 0.86188 0.75298 0.02183 0.0
C627 C 0.87535 0.77425 0.04034 0.0
C628 C 0.87905 0.72699 0.95673 0.0
C629 C 0.89082 0.76817 0.0189 0.0
C630 C 0.89465 0.71715 0.87795 0.0
C631 C 0.86733 0.68042 0.83701 0.0
N632 N 0.8922 0.74576 0.97753 0.0
N633 N 0.86735 0.69181 0.88504 0.0
H634 H 0.66381 0.24498 0.54007 0.0
H635 H 0.60779 0.29009 0.31032 0.0
H636 H 0.61196 0.21895 0.53507 0.0
H637 H 0.65724 0.33565 0.32504 0.0
H638 H 0.60812 0.27141 0.39675 0.0
H639 H 0.66065 0.28774 0.4682 0.0
C640 C 0.65161 0.24964 0.52499 0.0
C641 C 0.6381 0.22859 0.54362 0.0
C642 C 0.61885 0.28589 0.38135 0.0
C643 C 0.63449 0.27579 0.45997 0.0
C644 C 0.61873 0.29633 0.33177 0.0
C645 C 0.63263 0.3139 0.31005 0.0
C646 C 0.63306 0.29249 0.40957 0.0
C647 C 0.64631 0.32182 0.34006 0.0
C648 C 0.64983 0.27367 0.48361 0.0
C649 C 0.62263 0.23488 0.52228 0.0
N650 N 0.64627 0.31053 0.38809 0.0
N651 N 0.6213 0.25725 0.48089 0.0
H652 H 0.85954 0.33519 0.16692 0.0
H653 H 0.86896 0.25144 0.93708 0.0
H654 H 0.90726 0.2856 0.20041 0.0
H655 H 0.90848 0.18626 1.00453 0.0
H656 H 0.86965 0.29879 1.00491 0.0
H657 H 0.86282 0.3137 0.08184 0.0
C658 C 0.87082 0.32036 0.15618 0.0
C659 C 0.88298 0.31156 0.19116 0.0
C660 C 0.87839 0.27463 1.00479 0.0
C661 C 0.88711 0.28749 0.09323 0.0
C662 C 0.87833 0.24827 0.96511 0.0
C663 C 0.88887 0.2154 0.96503 0.0
C664 C 0.88886 0.26729 0.04499 0.0
C665 C 0.90029 0.21156 1.00316 0.0
C666 C 0.8728 0.30832 0.10725 0.0
C667 C 0.89738 0.29242 0.17507 0.0
N668 N 0.89983 0.23684 0.04193 0.0
N669 N 0.89893 0.28069 0.12762 0.0
H670 H 0.65825 0.75433 0.45957 0.0
H671 H 0.60868 0.71753 0.70671 0.0
H672 H 0.61016 0.80187 0.49042 0.0
H673 H 0.6574 0.67082 0.67986 0.0
H674 H 0.60684 0.73693 0.62088 0.0
H675 H 0.65567 0.71079 0.53122 0.0
C676 C 0.64681 0.75416 0.48015 0.0
C677 C 0.63426 0.78113 0.46875 0.0
C678 C 0.6179 0.72213 0.63348 0.0
C679 C 0.63151 0.73308 0.55186 0.0
C680 C 0.61901 0.7112 0.68271 0.0
C681 C 0.63337 0.69318 0.70088 0.0
C682 C 0.6313 0.71549 0.60192 0.0
C683 C 0.64618 0.68507 0.66763 0.0
C684 C 0.64543 0.72976 0.52142 0.0
C685 C 0.61992 0.78084 0.49725 0.0
N686 N 0.64494 0.6968 0.61988 0.0
N687 N 0.61903 0.75769 0.53798 0.0
H688 H 0.64155 0.85329 0.16916 0.0
H689 H 0.60212 0.68404 1.00577 0.0
H690 H 0.60049 0.78065 0.21445 0.0
H691 H 0.64122 0.75985 0.95531 0.0
H692 H 0.5972 0.72916 0.0745 0.0
H693 H 0.63812 0.82897 0.08508 0.0
C694 C 0.63165 0.83271 0.1614 0.0
C695 C 0.62148 0.81853 0.19936 0.0
C696 C 0.60652 0.73678 0.04765 0.0
C697 C 0.61753 0.7904 0.10289 0.0
C698 C 0.60914 0.71128 1.00797 0.0
C699 C 0.62192 0.71863 0.9746 0.0
C700 C 0.6171 0.76926 0.05476 0.0
C701 C 0.63103 0.75364 0.97982 0.0
C702 C 0.62969 0.81884 0.11326 0.0
C703 C 0.60879 0.79209 0.18674 0.0
N704 N 0.6287 0.77725 0.01984 0.0
N705 N 0.60734 0.77852 0.13988 0.0
H706 H 0.91086 0.21251 0.70225 0.0
H707 H 0.86799 0.24566 0.4429 0.0
H708 H 0.86406 0.16106 0.6622 0.0
H709 H 0.90979 0.31126 0.49602 0.0
H710 H 0.87093 0.19954 0.512 0.0
H711 H 0.91461 0.2343 0.61786 0.0
C712 C 0.90137 0.20554 0.67562 0.0
C713 C 0.88692 0.18564 0.68971 0.0
C714 C 0.87982 0.22317 0.50762 0.0
C715 C 0.89121 0.21075 0.59241 0.0
C716 C 0.87834 0.24903 0.46771 0.0
C717 C 0.88882 0.28185 0.4637 0.0
C718 C 0.89181 0.23059 0.54369 0.0
C719 C 0.90163 0.28593 0.49765 0.0
C720 C 0.90359 0.2179 0.62726 0.0
C721 C 0.87529 0.17674 0.65315 0.0
N722 N 0.90263 0.26097 0.53667 0.0
N723 N 0.87757 0.18992 0.60627 0.0
H724 H 0.64152 0.15657 0.84378 0.0
H725 H 0.59653 0.3197 1.00492 0.0
H726 H 0.59986 0.22556 0.7948 0.0
H727 H 0.63703 0.24947 0.0579 0.0
H728 H 0.59342 0.27439 0.93551 0.0
H729 H 0.63664 0.18001 0.9277 0.0
C730 C 0.6312 0.17615 0.85066 0.0
C731 C 0.62126 0.18956 0.81176 0.0
C732 C 0.60266 0.26796 0.96305 0.0
C733 C 0.61563 0.21663 0.90807 0.0
C734 C 0.60423 0.2935 1.0032 0.0
C735 C 0.61688 0.28793 0.0375 0.0
C736 C 0.61415 0.23721 0.95645 0.0
C737 C 0.62689 0.25427 0.03276 0.0
C738 C 0.62841 0.18952 0.89871 0.0
C739 C 0.60801 0.21477 0.82327 0.0
N740 N 0.62558 0.23067 0.9923 0.0
N741 N 0.60573 0.2278 0.87009 0.0
H742 H 0.87161 0.84541 0.34029 0.0
H743 H 0.91715 0.68331 0.5017 0.0
H744 H 0.91341 0.77687 0.29118 0.0
H745 H 0.87634 0.75262 0.55462 0.0
H746 H 0.92002 0.72844 0.43204 0.0
H747 H 0.87648 0.82194 0.42417 0.0
C748 C 0.88195 0.8259 0.34713 0.0
C749 C 0.89194 0.81266 0.3082 0.0
C750 C 0.91076 0.73472 0.45961 0.0
C751 C 0.89757 0.78557 0.40449 0.0
C752 C 0.90933 0.7093 0.49991 0.0
C753 C 0.89667 0.71463 0.53428 0.0
C754 C 0.89913 0.76513 0.45293 0.0
C755 C 0.8865 0.74801 0.52943 0.0
C756 C 0.88473 0.81252 0.39516 0.0
C757 C 0.90522 0.78754 0.31966 0.0
N758 N 0.88768 0.77149 0.48884 0.0
N759 N 0.9075 0.77451 0.36647 0.0
H760 H 0.3976 0.2714 0.05104 0.0
H761 H 0.35155 0.16942 0.82399 0.0
H762 H 0.3449 0.26929 0.03353 0.0
H763 H 0.40169 0.21193 0.81938 0.0
H764 H 0.35015 0.18781 0.91106 0.0
H765 H 0.40036 0.22968 0.97782 0.0
C766 C 0.38661 0.26111 0.03293 0.0
C767 C 0.37104 0.27441 0.04777 0.0
C768 C 0.3615 0.19267 0.89102 0.0
C769 C 0.37402 0.22695 0.96409 0.0
C770 C 0.3623 0.18229 0.84132 0.0
C771 C 0.37666 0.18979 0.81407 0.0
C772 C 0.37522 0.21018 0.91382 0.0
C773 C 0.39026 0.20626 0.83867 0.0
C774 C 0.38817 0.23755 0.99083 0.0
C775 C 0.35716 0.25989 0.02289 0.0
N776 N 0.38918 0.21607 0.88702 0.0
N777 N 0.35896 0.23741 0.98186 0.0
H778 H 0.16858 0.74359 0.54463 0.0
H779 H 0.11024 0.79535 0.32524 0.0
H780 H 0.11585 0.73289 0.55403 0.0
H781 H 0.1602 0.83861 0.33269 0.0
H782 H 0.11152 0.77848 0.4122 0.0
H783 H 0.16545 0.78661 0.47313 0.0
C784 C 0.15628 0.75156 0.53266 0.0
C785 C 0.14244 0.73441 0.555 0.0
C786 C 0.12215 0.79214 0.39513 0.0
C787 C 0.13875 0.78212 0.47183 0.0
C788 C 0.12149 0.80149 0.34527 0.0
C789 C 0.13525 0.8178 0.32139 0.0
C790 C 0.13679 0.79842 0.4214 0.0
C791 C 0.14936 0.82575 0.3495 0.0
C792 C 0.1545 0.77584 0.49154 0.0
C793 C 0.12682 0.74527 0.53787 0.0
N794 N 0.14987 0.81533 0.39785 0.0
N795 N 0.12539 0.76764 0.49646 0.0
H796 H 0.40537 0.70705 0.98802 0.0
H797 H 0.35649 0.83544 0.1852 0.0
H798 H 0.35513 0.74496 0.96953 0.0
H799 H 0.40427 0.78244 0.20887 0.0
H800 H 0.35827 0.81705 0.09829 0.0
H801 H 0.40797 0.75099 0.05872 0.0
C802 C 0.39515 0.72612 0.9973 0.0
C803 C 0.38009 0.72282 0.97268 0.0
C804 C 0.36843 0.80988 0.12247 0.0
C805 C 0.38259 0.7715 0.05519 0.0
C806 C 0.3674 0.82025 0.17213 0.0
C807 C 0.38009 0.80977 0.20467 0.0
C808 C 0.38227 0.789 0.10521 0.0
C809 C 0.39403 0.7905 0.18543 0.0
C810 C 0.39651 0.75074 0.03833 0.0
C811 C 0.367 0.74711 0.98751 0.0
N812 N 0.39466 0.78045 0.13717 0.0
N813 N 0.36844 0.76996 0.02839 0.0
H814 H 0.10705 0.32782 0.52543 0.0
H815 H 0.14416 0.15932 0.68886 0.0
H816 H 0.14271 0.24442 0.47052 0.0
H817 H 0.10214 0.23021 0.73091 0.0
H818 H 0.14056 0.18115 0.60393 0.0
H819 H 0.10103 0.28344 0.59357 0.0
C820 C 0.11306 0.29918 0.52661 0.0
C821 C 0.12519 0.28934 0.49217 0.0
C822 C 0.13195 0.19135 0.63158 0.0
C823 C 0.11929 0.23953 0.57198 0.0
C824 C 0.13403 0.17901 0.6802 0.0
C825 C 0.12368 0.19368 0.71743 0.0
C826 C 0.11953 0.21884 0.62015 0.0
C827 C 0.11062 0.21865 0.70374 0.0
C828 C 0.10981 0.27401 0.56596 0.0
C829 C 0.1331 0.25264 0.49621 0.0
N830 N 0.10911 0.23092 0.65644 0.0
N831 N 0.13031 0.22938 0.53623 0.0
H832 H 0.05221 0.29696 0.31387 0.0
H833 H 0.9603 0.26976 0.41576 0.0
H834 H 0.04026 0.28236 0.46713 0.0
H835 H 0.97279 0.33471 0.28465 0.0
H836 H 0.98947 0.25107 0.42482 0.0
H837 H 0.02303 0.2869 0.29332 0.0
C838 C 0.04355 0.29016 0.34297 0.0
C839 C 0.04857 0.29059 0.39226 0.0
C840 C 0.98571 0.26857 0.39342 0.0
C841 C 0.01532 0.27948 0.3692 0.0
C842 C 0.9691 0.27898 0.3881 0.0
C843 C 0.96425 0.30391 0.34954 0.0
C844 C 0.99739 0.2828 0.35954 0.0
C845 C 0.97613 0.31561 0.31503 0.0
C846 C 0.0269 0.28481 0.33131 0.0
C847 C 0.03681 0.28238 0.42869 0.0
N848 N 0.99217 0.30519 0.32098 0.0
N849 N 0.0207 0.27752 0.41651 0.0
H850 H 0.55302 0.73164 0.92068 0.0
H851 H 0.46209 0.70758 0.81027 0.0
H852 H 0.5419 0.67157 0.78497 0.0
H853 H 0.47262 0.71711 0.96507 0.0
H854 H 0.49146 0.71808 0.79258 0.0
H855 H 0.52372 0.74958 0.92859 0.0
C856 C 0.54449 0.72337 0.89183 0.0
C857 C 0.54977 0.70002 0.85223 0.0
C858 C 0.48724 0.7189 0.83033 0.0
C859 C 0.51648 0.72024 0.86093 0.0
C860 C 0.47049 0.71327 0.84039 0.0
C861 C 0.465 0.71131 0.8892 0.0
C862 C 0.49846 0.723 0.86936 0.0
C863 C 0.47642 0.71819 0.92694 0.0
C864 C 0.52781 0.73334 0.89649 0.0
C865 C 0.53824 0.68947 0.81616 0.0
N866 N 0.49264 0.72339 0.91629 0.0
N867 N 0.52211 0.69942 0.82149 0.0
H868 H 0.9648 0.72778 0.59772 0.0
H869 H 0.05576 0.70586 0.7097 0.0
H870 H 0.9759 0.6667 0.73276 0.0
H871 H 0.0457 0.7216 0.55539 0.0
H872 H 0.02614 0.7124 0.72678 0.0
H873 H 0.99405 0.74617 0.59048 0.0
C874 C 0.9733 0.71926 0.62651 0.0
C875 C 0.968 0.69557 0.66577 0.0
C876 C 0.03049 0.71531 0.68932 0.0
C877 C 1.0013 0.7163 0.65777 0.0
C878 C 0.04739 0.71194 0.67964 0.0
C879 C 0.05314 0.71304 0.63104 0.0
C880 C 0.01936 0.72022 0.65018 0.0
C881 C 0.04172 0.72033 0.59336 0.0
C882 C 0.98998 0.72948 0.62221 0.0
C883 C 0.97955 0.68479 0.70176 0.0
N884 N 0.02538 0.72335 0.60363 0.0
N885 N 0.99566 0.69502 0.69678 0.0
H886 H 0.45752 0.29843 0.20437 0.0
H887 H 0.54932 0.27549 0.09903 0.0
H888 H 0.46887 0.28228 0.05084 0.0
H889 H 0.53713 0.3372 0.23291 0.0
H890 H 0.52014 0.25715 0.08985 0.0
H891 H 0.48695 0.29156 0.2236 0.0
C892 C 0.46613 0.2922 0.17492 0.0
C893 C 0.4608 0.29111 0.12591 0.0
C894 C 0.52395 0.27397 0.12177 0.0
C895 C 0.49437 0.28354 0.14754 0.0
C896 C 0.54059 0.28416 0.12717 0.0
C897 C 0.54556 0.30803 0.16665 0.0
C898 C 0.51234 0.28736 0.15643 0.0
C899 C 0.53373 0.31899 0.20176 0.0
C900 C 0.48292 0.28864 0.18584 0.0
C901 C 0.47252 0.2836 0.08908 0.0
N902 N 0.51767 0.30879 0.19571 0.0
N903 N 0.48876 0.2804 0.10056 0.0
H904 H 0.46163 0.77338 0.42569 0.0
H905 H 0.55177 0.79883 0.30896 0.0
H906 H 0.47143 0.83293 0.28876 0.0
H907 H 0.54246 0.78938 0.46448 0.0
H908 H 0.52223 0.78861 0.29348 0.0
H909 H 0.49112 0.75685 0.43203 0.0
C910 C 0.46991 0.78181 0.39626 0.0
C911 C 0.46419 0.80454 0.35668 0.0
C912 C 0.52675 0.7878 0.3309 0.0
C913 C 0.49772 0.78597 0.36363 0.0
C914 C 0.5436 0.79326 0.33969 0.0
C915 C 0.5495 0.79507 0.38807 0.0
C916 C 0.51583 0.78368 0.37075 0.0
C917 C 0.53835 0.78837 0.42665 0.0
C918 C 0.48671 0.77268 0.40003 0.0
C919 C 0.47543 0.81541 0.31988 0.0
N920 N 0.52204 0.78327 0.41722 0.0
N921 N 0.49166 0.80624 0.32434 0.0
H922 H 0.9618 0.23561 0.92349 0.0
H923 H 0.05375 0.21473 0.81921 0.0
H924 H 0.97419 0.1786 0.78673 0.0
H925 H 0.04174 0.22366 0.97316 0.0
H926 H 0.02451 0.22464 0.79925 0.0
H927 H 0.99092 0.25432 0.93363 0.0
C928 C 0.97056 0.22832 0.89482 0.0
C929 C 0.9657 0.20562 0.85423 0.0
C930 C 0.02838 0.22543 0.83733 0.0
C931 C 0.99883 0.22645 0.86561 0.0
C932 C 0.04506 0.22012 0.84868 0.0
C933 C 0.05011 0.21821 0.89791 0.0
C934 C 0.01677 0.22927 0.87546 0.0
C935 C 0.03829 0.2247 0.93474 0.0
C936 C 0.98716 0.23865 0.90077 0.0
C937 C 0.97753 0.19615 0.81852 0.0
N938 N 0.02216 0.22961 0.92283 0.0
N939 N 0.99357 0.20633 0.82518 0.0
H940 H 0.4622 0.22428 0.60293 0.0
H941 H 0.55451 0.20815 0.7058 0.0
H942 H 0.47505 0.17226 0.74239 0.0
H943 H 0.54236 0.21422 0.55176 0.0
H944 H 0.5252 0.21661 0.72578 0.0
H945 H 0.49132 0.24194 0.5905 0.0
C946 C 0.47107 0.21764 0.63152 0.0
C947 C 0.46629 0.19662 0.67362 0.0
C948 C 0.52903 0.21699 0.68765 0.0
C949 C 0.49944 0.21652 0.6597 0.0
C950 C 0.54575 0.21252 0.67627 0.0
C951 C 0.55082 0.2103 0.62705 0.0
C952 C 0.51737 0.21963 0.64955 0.0
C953 C 0.53891 0.21549 0.59019 0.0
C954 C 0.48766 0.22743 0.62428 0.0
C955 C 0.47829 0.18821 0.70925 0.0
N956 N 0.52274 0.2196 0.60213 0.0
N957 N 0.49431 0.19794 0.70138 0.0
H958 H 0.95851 0.79179 0.20205 0.0
H959 H 0.05137 0.77759 0.10287 0.0
H960 H 0.97163 0.79217 0.04843 0.0
H961 H 0.03792 0.82143 0.24615 0.0
H962 H 0.02224 0.76169 0.08736 0.0
H963 H 0.98761 0.78135 0.22288 0.0
C964 C 0.96742 0.78851 0.17268 0.0
C965 C 0.96268 0.79308 0.12343 0.0
C966 C 0.02576 0.77396 0.1226 0.0
C967 C 0.99592 0.78146 0.14698 0.0
C968 C 0.04236 0.78269 0.13157 0.0
C969 C 0.04698 0.80096 0.17575 0.0
C970 C 0.01381 0.78319 0.15831 0.0
C971 C 0.0348 0.80756 0.21149 0.0
C972 C 0.98404 0.78288 0.18459 0.0
C973 C 0.97481 0.78917 0.08689 0.0
N974 N 0.01877 0.79896 0.2019 0.0
N975 N 0.99087 0.78389 0.09937 0.0
H976 H 0.28331 0.36252 0.15457 0.0
H977 H 0.22977 0.36851 0.39262 0.0
H978 H 0.30441 0.38533 0.29703 0.0
H979 H 0.20871 0.38493 0.24872 0.0
H980 H 0.25703 0.38288 0.35896 0.0
H981 H 0.25609 0.37904 0.18703 0.0
C982 C 0.28223 0.37208 0.19245 0.0
C983 C 0.29608 0.3725 0.22325 0.0
C984 C 0.24644 0.38433 0.33485 0.0
C985 C 0.26489 0.39021 0.26117 0.0
C986 C 0.23087 0.37612 0.35407 0.0
C987 C 0.21701 0.37539 0.32334 0.0
C988 C 0.24825 0.39078 0.28417 0.0
C989 C 0.21908 0.38538 0.2737 0.0
C990 C 0.26668 0.38146 0.21101 0.0
C991 C 0.29404 0.38488 0.27205 0.0
N992 N 0.23448 0.39182 0.2554 0.0
N993 N 0.27866 0.3924 0.28984 0.0
H994 H 0.2105 0.61302 0.79362 0.0
H995 H 0.30678 0.61351 0.73081 0.0
H996 H 0.23088 0.64253 0.652 0.0
H997 H 0.28665 0.63014 0.87595 0.0
H998 H 0.27893 0.59905 0.70024 0.0
H999 H 0.2382 0.5943 0.82179 0.0
C1000 C 0.2207 0.61422 0.768 0.0
C1001 C 0.2185 0.62957 0.72059 0.0
C1002 C 0.28071 0.60478 0.73904 0.0
C1003 C 0.25006 0.60862 0.75245 0.0
C1004 C 0.29659 0.61268 0.75652 0.0
C1005 C 0.29892 0.62324 0.80585 0.0
C1006 C 0.26719 0.60718 0.7713 0.0
C1007 C 0.28529 0.62237 0.83755 0.0
C1008 C 0.2365 0.60386 0.78414 0.0
C1009 C 0.23215 0.63111 0.68899 0.0
N1010 N 0.26997 0.61495 0.81968 0.0
N1011 N 0.24738 0.6212 0.7056 0.0
H1012 H 0.7095 0.62602 0.73967 0.0
H1013 H 0.8079 0.62597 0.76281 0.0
H1014 H 0.73574 0.6383 0.87676 0.0
H1015 H 0.78177 0.6273 0.62467 0.0
H1016 H 0.78161 0.61807 0.80564 0.0
H1017 H 0.73576 0.6141 0.69792 0.0
C1018 C 0.72069 0.62533 0.76126 0.0
C1019 C 0.72036 0.63335 0.81191 0.0
C1020 C 0.78166 0.61953 0.76589 0.0
C1021 C 0.75055 0.6204 0.76405 0.0
C1022 C 0.79673 0.62368 0.74131 0.0
C1023 C 0.79711 0.62745 0.6899 0.0
C1024 C 0.76686 0.61916 0.73898 0.0
C1025 C 0.78209 0.62496 0.66434 0.0
C1026 C 0.73573 0.61886 0.73727 0.0
C1027 C 0.73539 0.63269 0.8376 0.0
N1028 N 0.76762 0.6213 0.68908 0.0
N1029 N 0.74983 0.62669 0.81342 0.0
H1030 H 0.70614 0.37634 0.2625 0.0
H1031 H 0.80423 0.37954 0.23127 0.0
H1032 H 0.73113 0.3742 0.12244 0.0
H1033 H 0.77922 0.36159 0.3695 0.0
H1034 H 0.77758 0.39244 0.19231 0.0
H1035 H 0.73272 0.38576 0.30316 0.0
C1036 C 0.71712 0.37882 0.24013 0.0
C1037 C 0.71637 0.37427 0.18888 0.0
C1038 C 0.77796 0.38629 0.23135 0.0
C1039 C 0.74691 0.38436 0.23539 0.0
C1040 C 0.79321 0.37926 0.25373 0.0
C1041 C 0.79397 0.36924 0.30375 0.0
C1042 C 0.76339 0.38334 0.25917 0.0
C1043 C 0.7792 0.36874 0.33072 0.0
C1044 C 0.73234 0.38384 0.26345 0.0
C1045 C 0.73113 0.3771 0.16207 0.0
N1046 N 0.76454 0.37532 0.30806 0.0
N1047 N 0.74577 0.38162 0.1856 0.0
H1048 H 0.80472 0.88838 0.28491 0.0
H1049 H 0.70809 0.89167 0.2261 0.0
H1050 H 0.7838 0.86707 0.1418 0.0
H1051 H 0.72872 0.86922 0.36932 0.0
H1052 H 0.73589 0.90651 0.19527 0.0
H1053 H 0.7771 0.90515 0.31578 0.0
C1054 C 0.79441 0.88857 0.25965 0.0
C1055 C 0.79646 0.87612 0.21087 0.0
C1056 C 0.73425 0.89934 0.23376 0.0
C1057 C 0.76497 0.89483 0.24579 0.0
C1058 C 0.71839 0.89123 0.25141 0.0
C1059 C 0.71618 0.879 0.3002 0.0
C1060 C 0.74788 0.89547 0.26531 0.0
C1061 C 0.72996 0.87828 0.33132 0.0
C1062 C 0.77866 0.8978 0.27731 0.0
C1063 C 0.78267 0.87626 0.17978 0.0
N1064 N 0.74524 0.88596 0.31328 0.0
N1065 N 0.76749 0.88504 0.19784 0.0
H1066 H 0.70865 0.11079 0.78345 0.0
H1067 H 0.8056 0.11878 0.72976 0.0
H1068 H 0.7301 0.14497 0.64483 0.0
H1069 H 0.7841 0.12133 0.87468 0.0
H1070 H 0.77812 0.10698 0.6951 0.0
H1071 H 0.73626 0.09329 0.81344 0.0
C1072 C 0.71909 0.11342 0.75885 0.0
C1073 C 0.71715 0.12961 0.71176 0.0
C1074 C 0.7795 0.10923 0.73458 0.0
C1075 C 0.74867 0.11013 0.7458 0.0
C1076 C 0.7952 0.11561 0.75438 0.0
C1077 C 0.79709 0.12134 0.80512 0.0
C1078 C 0.76568 0.10833 0.76582 0.0
C1079 C 0.78313 0.11749 0.83528 0.0
C1080 C 0.73485 0.10377 0.77607 0.0
C1081 C 0.73112 0.13293 0.68158 0.0
N1082 N 0.76801 0.11164 0.81518 0.0
N1083 N 0.74629 0.12368 0.69923 0.0
H1084 H 0.30637 0.13422 0.76615 0.0
H1085 H 0.20809 0.12478 0.74092 0.0
H1086 H 0.28084 0.11906 0.62832 0.0
H1087 H 0.23376 0.16188 0.87188 0.0
H1088 H 0.23466 0.10781 0.70339 0.0
H1089 H 0.27998 0.12942 0.8092 0.0
C1090 C 0.29531 0.1289 0.74495 0.0
C1091 C 0.29585 0.12722 0.69341 0.0
C1092 C 0.23443 0.11909 0.74064 0.0
C1093 C 0.26552 0.12243 0.74253 0.0
C1094 C 0.21925 0.12847 0.76223 0.0
C1095 C 0.2187 0.14502 0.80954 0.0
C1096 C 0.24913 0.12615 0.76662 0.0
C1097 C 0.23362 0.14963 0.8351 0.0
C1098 C 0.28019 0.12653 0.76957 0.0
C1099 C 0.28099 0.12097 0.66804 0.0
N1100 N 0.24819 0.14057 0.81325 0.0
N1101 N 0.26645 0.11913 0.69275 0.0
H1102 H 0.27773 0.85351 0.38593 0.0
H1103 H 0.23065 0.8785 0.13079 0.0
H1104 H 0.30257 0.87263 0.24769 0.0
H1105 H 0.20577 0.86647 0.27021 0.0
H1106 H 0.2569 0.8835 0.17392 0.0
H1107 H 0.25137 0.86524 0.34551 0.0
C1108 C 0.27768 0.86068 0.34713 0.0
C1109 C 0.29247 0.86194 0.32027 0.0
C1110 C 0.2457 0.8803 0.1952 0.0
C1111 C 0.26212 0.87506 0.27341 0.0
C1112 C 0.23067 0.8774 0.17058 0.0
C1113 C 0.2159 0.87193 0.19678 0.0
C1114 C 0.24613 0.87725 0.2466 0.0
C1115 C 0.21675 0.87102 0.24834 0.0
C1116 C 0.26258 0.86742 0.32407 0.0
C1117 C 0.29157 0.87167 0.27014 0.0
N1118 N 0.23161 0.87316 0.27147 0.0
N1119 N 0.27665 0.87737 0.24827 0.0
H1120 H 0.12766 0.44144 0.42835 0.0
H1121 H 0.17885 0.606 0.55478 0.0
H1122 H 0.17248 0.4003 0.49587 0.0
H1123 H 0.13019 0.57851 0.60825 0.0
H1124 H 0.17967 0.54114 0.51294 0.0
H1125 H 0.13133 0.50576 0.4692 0.0
C1126 C 0.13868 0.44665 0.44983 0.0
C1127 C 0.14999 0.41601 0.458 0.0
C1128 C 0.16899 0.54919 0.53469 0.0
C1129 C 0.15401 0.48868 0.50545 0.0
C1130 C 0.16857 0.58579 0.55889 0.0
C1131 C 0.15455 0.59715 0.58565 0.0
C1132 C 0.15502 0.52485 0.53576 0.0
C1133 C 0.14136 0.57047 0.58885 0.0
C1134 C 0.14058 0.48293 0.47383 0.0
C1135 C 0.1637 0.4236 0.48804 0.0
N1136 N 0.14176 0.53589 0.56323 0.0
N1137 N 0.16537 0.45931 0.51084 0.0
H1138 H 0.33877 0.60007 0.96785 0.0
H1139 H 0.38503 0.42834 0.10433 0.0
H1140 H 0.38815 0.56679 0.92716 0.0
H1141 H 0.33601 0.40451 0.05127 0.0
H1142 H 0.38494 0.49105 0.05854 0.0
H1143 H 0.3359 0.53703 0.01274 0.0
C1144 C 0.34877 0.57882 0.967 0.0
C1145 C 0.36357 0.58803 0.94289 0.0
C1146 C 0.37409 0.47239 0.05786 0.0
C1147 C 0.36082 0.51785 0.99679 0.0
C1148 C 0.374 0.43708 0.08472 0.0
C1149 C 0.36042 0.41152 0.08194 0.0
C1150 C 0.36038 0.48251 0.02901 0.0
C1151 C 0.34663 0.42372 0.05469 0.0
C1152 C 0.34721 0.54329 0.99309 0.0
C1153 C 0.37641 0.56026 0.94425 0.0
N1154 N 0.34693 0.45844 0.02922 0.0
N1155 N 0.37487 0.52676 0.97169 0.0
H1156 H 0.87952 0.55478 0.61052 0.0
H1157 H 0.84769 0.3852 0.49982 0.0
H1158 H 0.8558 0.61622 0.49145 0.0
H1159 H 0.87652 0.44191 0.38716 0.0
H1160 H 0.84354 0.44986 0.53923 0.0
H1161 H 0.87046 0.49165 0.57536 0.0
C1162 C 0.87144 0.55511 0.57898 0.0
C1163 C 0.86762 0.59075 0.55542 0.0
C1164 C 0.85012 0.44817 0.50464 0.0
C1165 C 0.85869 0.51892 0.51234 0.0
C1166 C 0.85239 0.41154 0.48191 0.0
C1167 C 0.8621 0.40842 0.43931 0.0
C1168 C 0.85744 0.48185 0.48416 0.0
C1169 C 0.86827 0.44324 0.41828 0.0
C1170 C 0.86664 0.5191 0.55815 0.0
C1171 C 0.85868 0.58926 0.51123 0.0
N1172 N 0.86596 0.47863 0.44122 0.0
N1173 N 0.85489 0.55385 0.49032 0.0
H1174 H 0.66438 0.61786 0.0126 0.0
H1175 H 0.65894 0.38447 0.99606 0.0
H1176 H 0.63762 0.56212 0.89493 0.0
H1177 H 0.63468 0.44733 0.11318 0.0
H1178 H 0.66675 0.44818 0.95915 0.0
H1179 H 0.66917 0.55236 0.04924 0.0
C1180 C 0.66035 0.59168 0.99296 0.0
C1181 C 0.65113 0.5952 0.9495 0.0
C1182 C 0.66043 0.44775 0.99424 0.0
C1183 C 0.65667 0.52088 0.99092 0.0
C1184 C 0.65602 0.41165 0.0154 0.0
C1185 C 0.64669 0.41074 0.05887 0.0
C1186 C 0.65569 0.48299 0.01723 0.0
C1187 C 0.64278 0.44668 0.0817 0.0
C1188 C 0.66301 0.55456 0.01404 0.0
C1189 C 0.6457 0.56056 0.92637 0.0
N1190 N 0.64722 0.48152 0.06041 0.0
N1191 N 0.64844 0.52471 0.94758 0.0
H1192 H 0.6279 0.93786 0.4116 0.0
H1193 H 0.67732 0.10268 0.54773 0.0
H1194 H 0.67465 0.90269 0.47254 0.0
H1195 H 0.62789 0.07372 0.59283 0.0
H1196 H 0.67889 0.03906 0.50335 0.0
H1197 H 0.62993 1.00092 0.4564 0.0
C1198 C 0.63892 0.94416 0.43266 0.0
C1199 C 0.65124 0.91541 0.43795 0.0
C1200 C 0.66786 0.04644 0.52384 0.0
C1201 C 0.65347 0.98671 0.48966 0.0
C1202 C 0.66703 0.0823 0.54959 0.0
C1203 C 0.65258 0.09291 0.57475 0.0
C1204 C 0.65389 0.02214 0.5216 0.0
C1205 C 0.63937 0.06616 0.57483 0.0
C1206 C 0.63991 0.97968 0.4589 0.0
C1207 C 0.66501 0.92444 0.46713 0.0
N1208 N 0.64019 0.03237 0.54767 0.0
N1209 N 0.6658 0.95942 0.49199 0.0
H1210 H 0.83672 0.89937 0.03891 0.0
H1211 H 0.88875 0.05696 0.90419 0.0
H1212 H 0.88484 0.92958 0.09419 0.0
H1213 H 0.84445 0.10364 0.96943 0.0
H1214 H 0.88428 0.99445 0.9486 0.0
H1215 H 0.83611 0.96253 0.99334 0.0
C1216 C 0.84687 0.91995 0.04278 0.0
C1217 C 0.86072 0.90974 0.07096 0.0
C1218 C 0.8753 0.01806 0.95187 0.0
C1219 C 0.86054 0.97994 0.01682 0.0
C1220 C 0.87765 0.05328 0.92589 0.0
C1221 C 0.86677 0.08501 0.93262 0.0
C1222 C 0.86184 0.01451 0.98396 0.0
C1223 C 0.85291 0.07942 0.96277 0.0
C1224 C 0.84659 0.95552 0.01638 0.0
C1225 C 0.8738 0.93677 0.07372 0.0
N1226 N 0.85082 0.04477 0.98761 0.0
N1227 N 0.87357 0.97026 0.04596 0.0
H1228 H 0.37894 0.0542 0.61985 0.0
H1229 H 0.37588 0.93815 0.39708 0.0
H1230 H 0.35583 0.11512 0.49934 0.0
H1231 H 0.34958 0.88502 0.5175 0.0
H1232 H 0.36969 0.00368 0.43044 0.0
H1233 H 0.36947 0.99103 0.58592 0.0
C1234 C 0.37093 0.05443 0.58818 0.0
C1235 C 0.36742 0.08988 0.56379 0.0
C1236 C 0.36463 0.97772 0.44833 0.0
C1237 C 0.35808 0.01797 0.52207 0.0
C1238 C 0.36778 0.94038 0.42845 0.0
C1239 C 0.36247 0.90631 0.45301 0.0
C1240 C 0.35699 0.98063 0.49443 0.0
C1241 C 0.35359 0.91077 0.49699 0.0
C1242 C 0.36587 0.01839 0.5681 0.0
C1243 C 0.35851 0.08828 0.51961 0.0
N1244 N 0.35153 0.94726 0.51718 0.0
N1245 N 0.3545 0.05279 0.49936 0.0
H1246 H 0.15977 0.92064 0.10601 0.0
H1247 H 0.13355 0.07879 0.90319 0.0
H1248 H 0.11407 0.92336 0.0253 0.0
H1249 H 0.16865 0.11023 0.01522 0.0
H1250 H 0.13269 0.01182 0.93512 0.0
H1251 H 0.16768 0.98371 0.06667 0.0
C1252 C 0.15131 0.93469 0.08095 0.0
C1253 C 0.13623 0.91679 0.06901 0.0
C1254 C 0.14094 0.03299 0.95214 0.0
C1255 C 0.14545 0.98714 0.02249 0.0
C1256 C 0.14184 0.07095 0.93274 0.0
C1257 C 0.1516 0.09968 0.95546 0.0
C1258 C 0.14946 0.02394 0.99565 0.0
C1259 C 0.16112 0.08857 0.99635 0.0
C1260 C 0.15592 0.9703 0.058 0.0
C1261 C 0.12587 0.93593 0.03538 0.0
N1262 N 0.15963 0.05158 0.01581 0.0
N1263 N 0.13072 0.96971 0.01314 0.0
H1264 H 0.11016 0.16619 0.37323 0.0
H1265 H 0.15594 0.00858 0.1988 0.0
H1266 H 0.15411 0.19252 0.29005 0.0
H1267 H 0.11361 0.98051 0.28834 0.0
H1268 H 0.15523 0.07644 0.23076 0.0
H1269 H 0.11126 0.09794 0.34281 0.0
C1270 C 0.12011 0.15758 0.34895 0.0
C1271 C 0.13204 0.18525 0.33421 0.0
C1272 C 0.14609 0.05542 0.24338 0.0
C1273 C 0.13328 0.10717 0.2987 0.0
C1274 C 0.14646 0.01668 0.22498 0.0
C1275 C 0.13484 0.98869 0.24093 0.0
C1276 C 0.134 0.06634 0.27793 0.0
C1277 C 0.12284 1.00097 0.27498 0.0
C1278 C 0.12071 0.11862 0.3314 0.0
C1279 C 0.14463 0.17232 0.30247 0.0
N1280 N 0.12275 0.03876 0.29232 0.0
N1281 N 0.14487 0.13438 0.28567 0.0
H1282 H 0.39791 0.0282 0.79171 0.0
H1283 H 0.35854 0.81082 0.78415 0.0
H1284 H 0.35594 0.99683 0.70248 0.0
H1285 H 0.40264 0.83934 0.8653 0.0
H1286 H 0.35653 0.87967 0.75797 0.0
H1287 H 0.39918 0.96016 0.82182 0.0
C1288 C 0.38895 0.00702 0.77836 0.0
C1289 C 0.37677 0.01837 0.74448 0.0
C1290 C 0.36662 0.871 0.78166 0.0
C1291 C 0.37814 0.94017 0.77916 0.0
C1292 C 0.36776 0.83162 0.79683 0.0
C1293 C 0.38083 0.81912 0.8269 0.0
C1294 C 0.37863 0.89836 0.79657 0.0
C1295 C 0.39236 0.84758 0.84213 0.0
C1296 C 0.38969 0.96811 0.79568 0.0
C1297 C 0.36552 0.9895 0.72859 0.0
N1298 N 0.39103 0.88582 0.82664 0.0
N1299 N 0.36648 0.9518 0.7461 0.0
H1300 H 0.16295 0.01077 0.81808 0.0
H1301 H 0.11377 0.84793 0.66064 0.0
H1302 H 0.11601 0.03232 0.74851 0.0
H1303 H 0.15855 0.82315 0.74042 0.0
H1304 H 0.11546 0.91705 0.68752 0.0
H1305 H 0.16241 0.94285 0.78628 0.0
C1306 C 0.15253 1.00125 0.7962 0.0
C1307 C 0.1395 0.02731 0.78604 0.0
C1308 C 0.12496 0.89651 0.69894 0.0
C1309 C 0.13884 0.94973 0.74925 0.0
C1310 C 0.12404 0.85708 0.68337 0.0
C1311 C 0.13598 0.82962 0.69848 0.0
C1312 C 0.13794 0.90861 0.72976 0.0
C1313 C 0.14901 0.84319 0.72806 0.0
C1314 C 0.15223 0.96248 0.77798 0.0
C1315 C 0.12632 0.0133 0.75745 0.0
N1316 N 0.14959 0.88161 0.74286 0.0
N1317 N 0.12633 0.97557 0.74006 0.0
H1318 H 0.39876 0.15695 0.15012 0.0
H1319 H 0.35046 0.99748 0.31522 0.0
H1320 H 0.35545 0.18407 0.23596 0.0
H1321 H 0.39486 0.97111 0.23411 0.0
H1322 H 0.35144 0.06539 0.28378 0.0
H1323 H 0.39665 0.08773 0.17653 0.0
C1324 C 0.38872 0.14831 0.17407 0.0
C1325 C 0.37732 0.17645 0.191 0.0
C1326 C 0.36096 0.04472 0.27282 0.0
C1327 C 0.37491 0.09737 0.22177 0.0
C1328 C 0.36041 0.00594 0.29082 0.0
C1329 C 0.37259 0.9785 0.27733 0.0
C1330 C 0.37377 0.0562 0.241 0.0
C1331 C 0.3852 0.99121 0.24562 0.0
C1332 C 0.38756 0.10882 0.18936 0.0
C1333 C 0.36459 0.16351 0.22214 0.0
N1334 N 0.38546 0.02905 0.22857 0.0
N1335 N 0.36377 0.12506 0.23664 0.0
H1336 H 0.85881 0.81873 0.68319 0.0
H1337 H 0.90681 0.018 0.7534 0.0
H1338 H 0.91133 0.83311 0.66548 0.0
H1339 H 0.8552 0.99851 0.78329 0.0
H1340 H 0.90856 0.95169 0.71786 0.0
H1341 H 0.85704 0.88623 0.71455 0.0
C1342 C 0.86997 0.83621 0.68537 0.0
C1343 C 0.88527 0.82006 0.67183 0.0
C1344 C 0.89686 0.96186 0.73227 0.0
C1345 C 0.88332 0.89756 0.70836 0.0
C1346 C 0.89584 0.99973 0.75272 0.0
C1347 C 0.88082 0.01393 0.77138 0.0
C1348 C 0.88273 0.93794 0.7302 0.0
C1349 C 0.86704 0.98883 0.76944 0.0
C1350 C 0.86895 0.87476 0.70358 0.0
C1351 C 0.89928 0.84427 0.67547 0.0
N1352 N 0.86833 0.95215 0.74909 0.0
N1353 N 0.89798 0.88173 0.69364 0.0
H1354 H 0.60151 0.17043 0.16797 0.0
H1355 H 0.65948 0.00312 0.28592 0.0
H1356 H 0.65405 0.18309 0.18696 0.0
H1357 H 0.60725 0.98816 0.26248 0.0
H1358 H 0.65769 0.06914 0.2494 0.0
H1359 H 0.60341 0.10282 0.19998 0.0
C1360 C 0.61347 0.15886 0.17825 0.0
C1361 C 0.62763 0.18259 0.17495 0.0
C1362 C 0.64661 0.05143 0.25228 0.0
C1363 C 0.62986 0.10542 0.2123 0.0
C1364 C 0.64762 0.01378 0.27336 0.0
C1365 C 0.6335 0.99 0.2773 0.0
C1366 C 0.63137 0.06552 0.23499 0.0
C1367 C 0.61847 0.0054 0.26024 0.0
C1368 C 0.61454 0.12032 0.19681 0.0
C1369 C 0.64279 0.166 0.189 0.0
N1370 N 0.61781 0.04211 0.23981 0.0
N1371 N 0.64348 0.12861 0.20732 0.0
H1372 H 0.85255 0.99745 0.2199 0.0
H1373 H 0.90849 0.16707 0.34118 0.0
H1374 H 0.90444 0.98345 0.25008 0.0
H1375 H 0.85643 0.17969 0.31275 0.0
H1376 H 0.9071 0.09879 0.31117 0.0
H1377 H 0.85371 0.06405 0.25495 0.0
C1378 C 0.86421 0.00843 0.23365 0.0
C1379 C 0.87842 0.98478 0.232 0.0
C1380 C 0.89596 0.11644 0.31182 0.0
C1381 C 0.87981 0.06098 0.27261 0.0
C1382 C 0.89673 0.15536 0.32923 0.0
C1383 C 0.88257 0.17925 0.32926 0.0
C1384 C 0.88094 0.10131 0.29424 0.0
C1385 C 0.86768 0.16248 0.3132 0.0
C1386 C 0.86485 0.04643 0.25388 0.0
C1387 C 0.89318 1.0006 0.25052 0.0
N1388 N 0.86728 0.1247 0.29609 0.0
N1389 N 0.89348 0.03765 0.27008 0.0
H1390 H 0.60528 0.83672 0.84723 0.0
H1391 H 0.66132 0.00584 0.72496 0.0
H1392 H 0.65756 0.82483 0.82181 0.0
H1393 H 0.60919 0.01895 0.75202 0.0
H1394 H 0.6602 0.93967 0.76128 0.0
H1395 H 0.60659 0.9045 0.81553 0.0
C1396 C 0.61707 0.84849 0.8356 0.0
C1397 C 0.63131 0.82494 0.837 0.0
C1398 C 0.649 0.957 0.75923 0.0
C1399 C 0.63287 0.90232 0.80002 0.0
C1400 C 0.64962 0.99475 0.73827 0.0
C1401 C 0.63533 0.01804 0.73539 0.0
C1402 C 0.63398 0.94235 0.77748 0.0
C1403 C 0.62052 0.00209 0.75341 0.0
C1404 C 0.6178 0.88713 0.81721 0.0
C1405 C 0.64624 0.84179 0.82126 0.0
N1406 N 0.62024 0.96531 0.77371 0.0
N1407 N 0.6466 0.87928 0.80318 0.0
H1408 H 0.6106 0.66518 0.36255 0.0
H1409 H 0.65823 0.50431 0.19773 0.0
H1410 H 0.65506 0.68996 0.28105 0.0
H1411 H 0.61449 0.47813 0.28203 0.0
H1412 H 0.65745 0.57231 0.22885 0.0
H1413 H 0.61222 0.59601 0.33564 0.0
C1414 C 0.62078 0.65604 0.33942 0.0
C1415 C 0.63267 0.68353 0.32393 0.0
C1416 C 0.64803 0.55167 0.24059 0.0
C1417 C 0.63452 0.60447 0.29255 0.0
C1418 C 0.64845 0.51283 0.22273 0.0
C1419 C 0.63642 0.48539 0.23727 0.0
C1420 C 0.63547 0.56326 0.27323 0.0
C1421 C 0.62404 0.49821 0.26975 0.0
C1422 C 0.62167 0.61656 0.32388 0.0
C1423 C 0.64557 0.66993 0.29382 0.0
N1424 N 0.62389 0.53613 0.28659 0.0
N1425 N 0.6461 0.63152 0.27897 0.0
H1426 H 0.8848 0.50477 0.69477 0.0
H1427 H 0.85441 0.32227 0.85484 0.0
H1428 H 0.84648 0.51642 0.80384 0.0
H1429 H 0.90466 0.33118 0.80445 0.0
H1430 H 0.84965 0.39075 0.82862 0.0
H1431 H 0.89052 0.43767 0.72534 0.0
C1432 C 0.87753 0.49315 0.72488 0.0
C1433 C 0.86515 0.51624 0.74684 0.0
C1434 C 0.86176 0.37783 0.82372 0.0
C1435 C 0.87157 0.43965 0.78165 0.0
C1436 C 0.86449 0.33883 0.83871 0.0
C1437 C 0.87997 0.32115 0.83202 0.0
C1438 C 0.87448 0.39903 0.80068 0.0
C1439 C 0.89258 0.34386 0.81073 0.0
C1440 C 0.88088 0.45503 0.74252 0.0
C1441 C 0.85617 0.49974 0.78593 0.0
N1442 N 0.88951 0.3815 0.79518 0.0
N1443 N 0.85947 0.4624 0.80184 0.0
H1444 H 0.65775 0.31664 0.72709 0.0
H1445 H 0.61569 0.53107 0.73384 0.0
H1446 H 0.61208 0.344 0.65335 0.0
H1447 H 0.66148 0.50311 0.80659 0.0
H1448 H 0.61443 0.46337 0.70258 0.0
H1449 H 0.65978 0.38539 0.75366 0.0
C1450 C 0.64819 0.33718 0.71611 0.0
C1451 C 0.63467 0.32439 0.68805 0.0
C1452 C 0.62476 0.472 0.72533 0.0
C1453 C 0.63689 0.40348 0.71889 0.0
C1454 C 0.62548 0.51069 0.74336 0.0
C1455 C 0.63873 0.52289 0.77296 0.0
C1456 C 0.63736 0.4451 0.73694 0.0
C1457 C 0.65105 0.49508 0.78392 0.0
C1458 C 0.64935 0.37651 0.73146 0.0
C1459 C 0.62271 0.35251 0.67489 0.0
N1460 N 0.65006 0.45753 0.76593 0.0
N1461 N 0.62406 0.39067 0.69067 0.0
H1462 H 0.89895 0.47425 0.22961 0.0
H1463 H 0.85519 0.68638 0.21725 0.0
H1464 H 0.85181 0.49976 0.29604 0.0
H1465 H 0.90189 0.66065 0.14818 0.0
H1466 H 0.85328 0.61753 0.24353 0.0
H1467 H 0.89999 0.54185 0.19809 0.0
C1468 C 0.88881 0.49409 0.2377 0.0
C1469 C 0.87526 0.48127 0.26558 0.0
C1470 C 0.86391 0.62681 0.22239 0.0
C1471 C 0.87636 0.55885 0.22928 0.0
C1472 C 0.865 0.66616 0.20721 0.0
C1473 C 0.87878 0.6794 0.18064 0.0
C1474 C 0.87671 0.60035 0.21113 0.0
C1475 C 0.89105 0.65176 0.16861 0.0
C1476 C 0.8894 0.5327 0.21951 0.0
C1477 C 0.86249 0.50833 0.27474 0.0
N1478 N 0.88978 0.61359 0.18422 0.0
N1479 N 0.86336 0.54583 0.25665 0.0
H1480 H 0.40792 0.51408 0.77222 0.0
H1481 H 0.35783 0.32177 0.68686 0.0
H1482 H 0.35524 0.50134 0.78758 0.0
H1483 H 0.41074 0.33175 0.67676 0.0
H1484 H 0.35657 0.38909 0.7191 0.0
H1485 H 0.40917 0.44838 0.73481 0.0
C1486 C 0.39661 0.4974 0.768 0.0
C1487 C 0.38144 0.5133 0.78312 0.0
C1488 C 0.36846 0.37671 0.70955 0.0
C1489 C 0.38279 0.43808 0.73977 0.0
C1490 C 0.36919 0.33828 0.69086 0.0
C1491 C 0.38443 0.32094 0.67929 0.0
C1492 C 0.38308 0.3981 0.7169 0.0
C1493 C 0.39872 0.34387 0.68521 0.0
C1494 C 0.39734 0.45991 0.74642 0.0
C1495 C 0.36721 0.49028 0.77658 0.0
N1496 N 0.3977 0.38118 0.70392 0.0
N1497 N 0.36823 0.45391 0.75532 0.0
H1498 H 0.15691 0.6799 0.20019 0.0
H1499 H 0.10805 0.48628 0.28726 0.0
H1500 H 0.10418 0.66655 0.18754 0.0
H1501 H 0.16055 0.50143 0.30439 0.0
H1502 H 0.10649 0.55143 0.24876 0.0
H1503 H 0.15864 0.61319 0.23422 0.0
C1504 C 0.14569 0.66279 0.20402 0.0
C1505 C 0.13035 0.679 0.19119 0.0
C1506 C 0.11835 0.54058 0.26101 0.0
C1507 C 0.13225 0.60258 0.2308 0.0
C1508 C 0.11925 0.50339 0.28321 0.0
C1509 C 0.13447 0.48831 0.29911 0.0
C1510 C 0.13276 0.56295 0.25451 0.0
C1511 C 0.14855 0.51187 0.29278 0.0
C1512 C 0.14669 0.62472 0.22373 0.0
C1513 C 0.11627 0.65532 0.19696 0.0
N1514 N 0.14736 0.54797 0.27087 0.0
N1515 N 0.11754 0.61842 0.21664 0.0
H1516 H 0.40856 0.66518 0.35113 0.0
H1517 H 0.35192 0.49571 0.2323 0.0
H1518 H 0.35628 0.67754 0.32629 0.0
H1519 H 0.40409 0.48217 0.25826 0.0
H1520 H 0.35325 0.56212 0.26788 0.0
H1521 H 0.40704 0.59707 0.32053 0.0
C1522 C 0.39673 0.65345 0.33984 0.0
C1523 C 0.38254 0.67721 0.34106 0.0
C1524 C 0.36442 0.54464 0.26578 0.0
C1525 C 0.38075 0.59948 0.30538 0.0
C1526 C 0.36367 0.50675 0.24525 0.0
C1527 C 0.37791 0.48329 0.24225 0.0
C1528 C 0.37951 0.55926 0.28347 0.0
C1529 C 0.39279 0.49918 0.25976 0.0
C1530 C 0.39588 0.61463 0.32209 0.0
C1531 C 0.36756 0.66042 0.32582 0.0
N1532 N 0.3932 0.53611 0.27964 0.0
N1533 N 0.36708 0.62275 0.30836 0.0
H1534 H 0.15882 0.32279 0.81317 0.0
H1535 H 0.11059 0.52571 0.76501 0.0
H1536 H 0.10931 0.34514 0.86415 0.0
H1537 H 0.16177 0.50791 0.72764 0.0
H1538 H 0.10972 0.45911 0.79968 0.0
H1539 H 0.16017 0.39038 0.7817 0.0
C1540 C 0.14827 0.34203 0.81818 0.0
C1541 C 0.1339 0.3282 0.8412 0.0
C1542 C 0.12114 0.46973 0.78388 0.0
C1543 C 0.1353 0.40562 0.80466 0.0
C1544 C 0.12164 0.50773 0.76381 0.0
C1545 C 0.13629 0.52249 0.74339 0.0
C1546 C 0.13539 0.44614 0.78344 0.0
C1547 C 0.15021 0.49779 0.74302 0.0
C1548 C 0.14904 0.38063 0.80004 0.0
C1549 C 0.12064 0.35453 0.84669 0.0
N1550 N 0.14942 0.46085 0.76277 0.0
N1551 N 0.12162 0.39188 0.82822 0.0
loop_
_geom_bond_atom_site_label_1
_geom_bond_atom_site_label_2
_geom_bond_distance
_geom_bond_site_symmetry_2
_ccdc_geom_bond_type
Zn0 N4 2.020 . S
Zn0 O8 2.019 . S
Zn0 N10 2.119 . S
Zn0 O18 1.975 . S
C1 N2 1.334 . S
C1 N5 1.336 . S
N2 C1 1.334 . S
N2 C3 1.334 . S
C3 N2 1.334 . S
C3 N4 1.336 . S
N4 Zn0 2.020 . S
N4 C3 1.336 . S
N4 N5 1.354 . S
N5 C1 1.336 . S
N5 N4 1.354 . S
N5 Zn9 2.020 . S
C6 O7 1.244 . S
C6 O30 1.257 . S
O7 C6 1.244 . S
O8 Zn0 2.019 . S
O8 C28 1.257 . S
Zn9 N5 2.020 . S
Zn9 O16 1.975 . S
Zn9 N25 2.119 . S
Zn9 O30 2.019 . S
N10 Zn0 2.119 . S
N10 C12 1.334 . S
N10 C13 1.328 . S
C11 C12 1.391 . S
C11 N14 1.329 . S
C11 H32 0.930 . S
C12 N10 1.334 . S
C12 C11 1.391 . S
C12 H19 0.930 . S
C13 N10 1.328 . S
C13 C15 1.392 . S
C13 H20 0.930 . S
N14 C11 1.329 . S
N14 C15 1.331 . S
C15 C13 1.392 . S
C15 N14 1.331 . S
O16 Zn9 1.975 . S
O16 C17 1.252 . S
C17 O16 1.252 . S
C17 O18 1.252 . S
O18 Zn0 1.975 . S
O18 C17 1.252 . S
H19 C12 0.930 . S
H20 C13 0.930 . S
C21 C22 1.392 . S
C21 N25 1.328 . S
C21 H27 0.930 . S
C22 C21 1.392 . S
C22 N26 1.331 . S
C23 C24 1.391 . S
C23 N26 1.329 . S
C23 H33 0.930 . S
C24 C23 1.391 . S
C24 N25 1.334 . S
C24 H31 0.930 . S
N25 Zn9 2.119 . S
N25 C21 1.328 . S
N25 C24 1.334 . S
N26 C22 1.331 . S
N26 C23 1.329 . S
H27 C21 0.930 . S
C28 O8 1.257 . S
C28 O29 1.244 . S
O29 C28 1.244 . S
O30 C6 1.257 . S
O30 Zn9 2.019 . S
H31 C24 0.930 . S
H32 C11 0.930 . S
H33 C23 0.930 . S
Zn34 N38 2.020 . S
Zn34 O42 2.019 . S
Zn34 N44 2.119 . S
Zn34 O52 1.975 . S
C35 N36 1.334 . S
C35 N39 1.336 . S
N36 C35 1.334 . S
N36 C37 1.334 . S
C37 N36 1.334 . S
C37 N38 1.336 . S
N38 Zn34 2.020 . S
N38 C37 1.336 . S
N38 N39 1.354 . S
N39 C35 1.336 . S
N39 N38 1.354 . S
N39 Zn43 2.020 . S
C40 O41 1.244 . S
C40 O64 1.257 . S
O41 C40 1.244 . S
O42 Zn34 2.019 . S
O42 C62 1.257 . S
Zn43 N39 2.020 . S
Zn43 O50 1.975 . S
Zn43 N59 2.119 . S
Zn43 O64 2.019 . S
N44 Zn34 2.119 . S
N44 C46 1.334 . S
N44 C47 1.328 . S
C45 C46 1.391 . S
C45 N48 1.329 . S
C45 H66 0.930 . S
C46 N44 1.334 . S
C46 C45 1.391 . S
C46 H53 0.930 . S
C47 N44 1.328 . S
C47 C49 1.392 . S
C47 H54 0.930 . S
N48 C45 1.329 . S
N48 C49 1.331 . S
C49 C47 1.392 . S
C49 N48 1.331 . S
O50 Zn43 1.975 . S
O50 C51 1.252 . S
C51 O50 1.252 . S
C51 O52 1.252 . S
O52 Zn34 1.975 . S
O52 C51 1.252 . S
H53 C46 0.930 . S
H54 C47 0.930 . S
C55 C56 1.392 . S
C55 N59 1.328 . S
C55 H61 0.930 . S
C56 C55 1.392 . S
C56 N60 1.331 . S
C57 C58 1.391 . S
C57 N60 1.329 . S
C57 H67 0.930 . S
C58 C57 1.391 . S
C58 N59 1.334 . S
C58 H65 0.930 . S
N59 Zn43 2.119 . S
N59 C55 1.328 . S
N59 C58 1.334 . S
N60 C56 1.331 . S
N60 C57 1.329 . S
H61 C55 0.930 . S
C62 O42 1.257 . S
C62 O63 1.244 . S
O63 C62 1.244 . S
O64 C40 1.257 . S
O64 Zn43 2.019 . S
H65 C58 0.930 . S
H66 C45 0.930 . S
H67 C57 0.930 . S
Zn68 N72 2.020 . S
Zn68 O76 2.019 . S
Zn68 N78 2.119 . S
Zn68 O86 1.975 . S
C69 N70 1.334 . S
C69 N73 1.336 . S
N70 C69 1.334 . S
N70 C71 1.334 . S
C71 N70 1.334 . S
C71 N72 1.336 . S
N72 Zn68 2.020 . S
N72 C71 1.336 . S
N72 N73 1.354 . S
N73 C69 1.336 . S
N73 N72 1.354 . S
N73 Zn77 2.020 . S
C74 O75 1.244 . S
C74 O98 1.257 . S
O75 C74 1.244 . S
O76 Zn68 2.019 . S
O76 C96 1.257 . S
Zn77 N73 2.020 . S
Zn77 O84 1.975 . S
Zn77 N93 2.119 . S
Zn77 O98 2.019 . S
N78 Zn68 2.119 . S
N78 C80 1.334 . S
N78 C81 1.328 . S
C79 C80 1.391 . S
C79 N82 1.329 . S
C79 H100 0.930 . S
C80 N78 1.334 . S
C80 C79 1.391 . S
C80 H87 0.930 . S
C81 N78 1.328 . S
C81 C83 1.392 . S
C81 H88 0.930 . S
N82 C79 1.329 . S
N82 C83 1.331 . S
C83 C81 1.392 . S
C83 N82 1.331 . S
O84 Zn77 1.975 . S
O84 C85 1.252 . S
C85 O84 1.252 . S
C85 O86 1.252 . S
O86 Zn68 1.975 . S
O86 C85 1.252 . S
H87 C80 0.930 . S
H88 C81 0.930 . S
C89 C90 1.392 . S
C89 N93 1.328 . S
C89 H95 0.930 . S
C90 C89 1.392 . S
C90 N94 1.331 . S
C91 C92 1.391 . S
C91 N94 1.329 . S
C91 H101 0.930 . S
C92 C91 1.391 . S
C92 N93 1.334 . S
C92 H99 0.930 . S
N93 Zn77 2.119 . S
N93 C89 1.328 . S
N93 C92 1.334 . S
N94 C90 1.331 . S
N94 C91 1.329 . S
H95 C89 0.930 . S
C96 O76 1.257 . S
C96 O97 1.244 . S
O97 C96 1.244 . S
O98 C74 1.257 . S
O98 Zn77 2.019 . S
H99 C92 0.930 . S
H100 C79 0.930 . S
H101 C91 0.930 . S
Zn102 N106 2.020 . S
Zn102 O110 2.019 . S
Zn102 N112 2.119 . S
Zn102 O120 1.975 . S
C103 N104 1.334 . S
C103 N107 1.336 . S
N104 C103 1.334 . S
N104 C105 1.334 . S
C105 N104 1.334 . S
C105 N106 1.336 . S
N106 Zn102 2.020 . S
N106 C105 1.336 . S
N106 N107 1.354 . S
N107 C103 1.336 . S
N107 N106 1.354 . S
N107 Zn111 2.020 . S
C108 O109 1.244 . S
C108 O132 1.257 . S
O109 C108 1.244 . S
O110 Zn102 2.019 . S
O110 C130 1.257 . S
Zn111 N107 2.020 . S
Zn111 O118 1.975 . S
Zn111 N127 2.119 . S
Zn111 O132 2.019 . S
N112 Zn102 2.119 . S
N112 C114 1.334 . S
N112 C115 1.328 . S
C113 C114 1.391 . S
C113 N116 1.329 . S
C113 H134 0.930 . S
C114 N112 1.334 . S
C114 C113 1.391 . S
C114 H121 0.930 . S
C115 N112 1.328 . S
C115 C117 1.392 . S
C115 H122 0.930 . S
N116 C113 1.329 . S
N116 C117 1.331 . S
C117 C115 1.392 . S
C117 N116 1.331 . S
O118 Zn111 1.975 . S
O118 C119 1.252 . S
C119 O118 1.252 . S
C119 O120 1.252 . S
O120 Zn102 1.975 . S
O120 C119 1.252 . S
H121 C114 0.930 . S
H122 C115 0.930 . S
C123 C124 1.392 . S
C123 N127 1.328 . S
C123 H129 0.930 . S
C124 C123 1.392 . S
C124 N128 1.331 . S
C125 C126 1.391 . S
C125 N128 1.329 . S
C125 H135 0.930 . S
C126 C125 1.391 . S
C126 N127 1.334 . S
C126 H133 0.930 . S
N127 Zn111 2.119 . S
N127 C123 1.328 . S
N127 C126 1.334 . S
N128 C124 1.331 . S
N128 C125 1.329 . S
H129 C123 0.930 . S
C130 O110 1.257 . S
C130 O131 1.244 . S
O131 C130 1.244 . S
O132 C108 1.257 . S
O132 Zn111 2.019 . S
H133 C126 0.930 . S
H134 C113 0.930 . S
H135 C125 0.930 . S
Zn136 N140 2.020 . S
Zn136 O144 2.019 . S
Zn136 N146 2.119 . S
Zn136 O154 1.975 . S
C137 N138 1.334 . S
C137 N141 1.336 . S
N138 C137 1.334 . S
N138 C139 1.334 . S
C139 N138 1.334 . S
C139 N140 1.336 . S
N140 Zn136 2.020 . S
N140 C139 1.336 . S
N140 N141 1.354 . S
N141 C137 1.336 . S
N141 N140 1.354 . S
N141 Zn145 2.020 . S
C142 O143 1.244 . S
C142 O166 1.257 . S
O143 C142 1.244 . S
O144 Zn136 2.019 . S
O144 C164 1.257 . S
Zn145 N141 2.020 . S
Zn145 O152 1.975 . S
Zn145 N161 2.119 . S
Zn145 O166 2.019 . S
N146 Zn136 2.119 . S
N146 C148 1.334 . S
N146 C149 1.328 . S
C147 C148 1.391 . S
C147 N150 1.329 . S
C147 H168 0.930 . S
C148 N146 1.334 . S
C148 C147 1.391 . S
C148 H155 0.930 . S
C149 N146 1.328 . S
C149 C151 1.392 . S
C149 H156 0.930 . S
N150 C147 1.329 . S
N150 C151 1.331 . S
C151 C149 1.392 . S
C151 N150 1.331 . S
O152 Zn145 1.975 . S
O152 C153 1.252 . S
C153 O152 1.252 . S
C153 O154 1.252 . S
O154 Zn136 1.975 . S
O154 C153 1.252 . S
H155 C148 0.930 . S
H156 C149 0.930 . S
C157 C158 1.392 . S
C157 N161 1.328 . S
C157 H163 0.930 . S
C158 C157 1.392 . S
C158 N162 1.331 . S
C159 C160 1.391 . S
C159 N162 1.329 . S
C159 H169 0.930 . S
C160 C159 1.391 . S
C160 N161 1.334 . S
C160 H167 0.930 . S
N161 Zn145 2.119 . S
N161 C157 1.328 . S
N161 C160 1.334 . S
N162 C158 1.331 . S
N162 C159 1.329 . S
H163 C157 0.930 . S
C164 O144 1.257 . S
C164 O165 1.244 . S
O165 C164 1.244 . S
O166 C142 1.257 . S
O166 Zn145 2.019 . S
H167 C160 0.930 . S
H168 C147 0.930 . S
H169 C159 0.930 . S
Zn170 N174 2.020 . S
Zn170 O178 2.019 . S
Zn170 N180 2.119 . S
Zn170 O188 1.975 . S
C171 N172 1.334 . S
C171 N175 1.336 . S
N172 C171 1.334 . S
N172 C173 1.334 . S
C173 N172 1.334 . S
C173 N174 1.336 . S
N174 Zn170 2.020 . S
N174 C173 1.336 . S
N174 N175 1.354 . S
N175 C171 1.336 . S
N175 N174 1.354 . S
N175 Zn179 2.020 . S
C176 O177 1.244 . S
C176 O200 1.257 . S
O177 C176 1.244 . S
O178 Zn170 2.019 . S
O178 C198 1.257 . S
Zn179 N175 2.020 . S
Zn179 O186 1.975 . S
Zn179 N195 2.119 . S
Zn179 O200 2.019 . S
N180 Zn170 2.119 . S
N180 C182 1.334 . S
N180 C183 1.328 . S
C181 C182 1.391 . S
C181 N184 1.329 . S
C181 H202 0.930 . S
C182 N180 1.334 . S
C182 C181 1.391 . S
C182 H189 0.930 . S
C183 N180 1.328 . S
C183 C185 1.392 . S
C183 H190 0.930 . S
N184 C181 1.329 . S
N184 C185 1.331 . S
C185 C183 1.392 . S
C185 N184 1.331 . S
O186 Zn179 1.975 . S
O186 C187 1.252 . S
C187 O186 1.252 . S
C187 O188 1.252 . S
O188 Zn170 1.975 . S
O188 C187 1.252 . S
H189 C182 0.930 . S
H190 C183 0.930 . S
C191 C192 1.392 . S
C191 N195 1.328 . S
C191 H197 0.930 . S
C192 C191 1.392 . S
C192 N196 1.331 . S
C193 C194 1.391 . S
C193 N196 1.329 . S
C193 H203 0.930 . S
C194 C193 1.391 . S
C194 N195 1.334 . S
C194 H201 0.930 . S
N195 Zn179 2.119 . S
N195 C191 1.328 . S
N195 C194 1.334 . S
N196 C192 1.331 . S
N196 C193 1.329 . S
H197 C191 0.930 . S
C198 O178 1.257 . S
C198 O199 1.244 . S
O199 C198 1.244 . S
O200 C176 1.257 . S
O200 Zn179 2.019 . S
H201 C194 0.930 . S
H202 C181 0.930 . S
H203 C193 0.930 . S
Zn204 N208 2.020 . S
Zn204 O212 2.019 . S
Zn204 N214 2.119 . S
Zn204 O222 1.975 . S
C205 N206 1.334 . S
C205 N209 1.336 . S
N206 C205 1.334 . S
N206 C207 1.334 . S
C207 N206 1.334 . S
C207 N208 1.336 . S
N208 Zn204 2.020 . S
N208 C207 1.336 . S
N208 N209 1.354 . S
N209 C205 1.336 . S
N209 N208 1.354 . S
N209 Zn213 2.020 . S
C210 O211 1.244 . S
C210 O234 1.257 . S
O211 C210 1.244 . S
O212 Zn204 2.019 . S
O212 C232 1.257 . S
Zn213 N209 2.020 . S
Zn213 O220 1.975 . S
Zn213 N229 2.119 . S
Zn213 O234 2.019 . S
N214 Zn204 2.119 . S
N214 C216 1.334 . S
N214 C217 1.328 . S
C215 C216 1.391 . S
C215 N218 1.329 . S
C215 H236 0.930 . S
C216 N214 1.334 . S
C216 C215 1.391 . S
C216 H223 0.930 . S
C217 N214 1.328 . S
C217 C219 1.392 . S
C217 H224 0.930 . S
N218 C215 1.329 . S
N218 C219 1.331 . S
C219 C217 1.392 . S
C219 N218 1.331 . S
O220 Zn213 1.975 . S
O220 C221 1.252 . S
C221 O220 1.252 . S
C221 O222 1.252 . S
O222 Zn204 1.975 . S
O222 C221 1.252 . S
H223 C216 0.930 . S
H224 C217 0.930 . S
C225 C226 1.392 . S
C225 N229 1.328 . S
C225 H231 0.930 . S
C226 C225 1.392 . S
C226 N230 1.331 . S
C227 C228 1.391 . S
C227 N230 1.329 . S
C227 H237 0.930 . S
C228 C227 1.391 . S
C228 N229 1.334 . S
C228 H235 0.930 . S
N229 Zn213 2.119 . S
N229 C225 1.328 . S
N229 C228 1.334 . S
N230 C226 1.331 . S
N230 C227 1.329 . S
H231 C225 0.930 . S
C232 O212 1.257 . S
C232 O233 1.244 . S
O233 C232 1.244 . S
O234 C210 1.257 . S
O234 Zn213 2.019 . S
H235 C228 0.930 . S
H236 C215 0.930 . S
H237 C227 0.930 . S
Zn238 N242 2.020 . S
Zn238 O246 2.019 . S
Zn238 N248 2.119 . S
Zn238 O256 1.975 . S
C239 N240 1.334 . S
C239 N243 1.336 . S
N240 C239 1.334 . S
N240 C241 1.334 . S
C241 N240 1.334 . S
C241 N242 1.336 . S
N242 Zn238 2.020 . S
N242 C241 1.336 . S
N242 N243 1.354 . S
N243 C239 1.336 . S
N243 N242 1.354 . S
N243 Zn247 2.020 . S
C244 O245 1.244 . S
C244 O268 1.257 . S
O245 C244 1.244 . S
O246 Zn238 2.019 . S
O246 C266 1.257 . S
Zn247 N243 2.020 . S
Zn247 O254 1.975 . S
Zn247 N263 2.119 . S
Zn247 O268 2.019 . S
N248 Zn238 2.119 . S
N248 C250 1.334 . S
N248 C251 1.328 . S
C249 C250 1.391 . S
C249 N252 1.329 . S
C249 H270 0.930 . S
C250 N248 1.334 . S
C250 C249 1.391 . S
C250 H257 0.930 . S
C251 N248 1.328 . S
C251 C253 1.392 . S
C251 H258 0.930 . S
N252 C249 1.329 . S
N252 C253 1.331 . S
C253 C251 1.392 . S
C253 N252 1.331 . S
O254 Zn247 1.975 . S
O254 C255 1.252 . S
C255 O254 1.252 . S
C255 O256 1.252 . S
O256 Zn238 1.975 . S
O256 C255 1.252 . S
H257 C250 0.930 . S
H258 C251 0.930 . S
C259 C260 1.392 . S
C259 N263 1.328 . S
C259 H265 0.930 . S
C260 C259 1.392 . S
C260 N264 1.331 . S
C261 C262 1.391 . S
C261 N264 1.329 . S
C261 H271 0.930 . S
C262 C261 1.391 . S
C262 N263 1.334 . S
C262 H269 0.930 . S
N263 Zn247 2.119 . S
N263 C259 1.328 . S
N263 C262 1.334 . S
N264 C260 1.331 . S
N264 C261 1.329 . S
H265 C259 0.930 . S
C266 O246 1.257 . S
C266 O267 1.244 . S
O267 C266 1.244 . S
O268 C244 1.257 . S
O268 Zn247 2.019 . S
H269 C262 0.930 . S
H270 C249 0.930 . S
H271 C261 0.930 . S
Zn272 N276 2.020 . S
Zn272 O280 2.019 . S
Zn272 N282 2.119 . S
Zn272 O290 1.975 . S
C273 N274 1.334 . S
C273 N277 1.336 . S
N274 C273 1.334 . S
N274 C275 1.334 . S
C275 N274 1.334 . S
C275 N276 1.336 . S
N276 Zn272 2.020 . S
N276 C275 1.336 . S
N276 N277 1.354 . S
N277 C273 1.336 . S
N277 N276 1.354 . S
N277 Zn281 2.020 . S
C278 O279 1.244 . S
C278 O302 1.257 . S
O279 C278 1.244 . S
O280 Zn272 2.019 . S
O280 C300 1.257 . S
Zn281 N277 2.020 . S
Zn281 O288 1.975 . S
Zn281 N297 2.119 . S
Zn281 O302 2.019 . S
N282 Zn272 2.119 . S
N282 C284 1.334 . S
N282 C285 1.328 . S
C283 C284 1.391 . S
C283 N286 1.329 . S
C283 H304 0.930 . S
C284 N282 1.334 . S
C284 C283 1.391 . S
C284 H291 0.930 . S
C285 N282 1.328 . S
C285 C287 1.392 . S
C285 H292 0.930 . S
N286 C283 1.329 . S
N286 C287 1.331 . S
C287 C285 1.392 . S
C287 N286 1.331 . S
O288 Zn281 1.975 . S
O288 C289 1.252 . S
C289 O288 1.252 . S
C289 O290 1.252 . S
O290 Zn272 1.975 . S
O290 C289 1.252 . S
H291 C284 0.930 . S
H292 C285 0.930 . S
C293 C294 1.392 . S
C293 N297 1.328 . S
C293 H299 0.930 . S
C294 C293 1.392 . S
C294 N298 1.331 . S
C295 C296 1.391 . S
C295 N298 1.329 . S
C295 H305 0.930 . S
C296 C295 1.391 . S
C296 N297 1.334 . S
C296 H303 0.930 . S
N297 Zn281 2.119 . S
N297 C293 1.328 . S
N297 C296 1.334 . S
N298 C294 1.331 . S
N298 C295 1.329 . S
H299 C293 0.930 . S
C300 O280 1.257 . S
C300 O301 1.244 . S
O301 C300 1.244 . S
O302 C278 1.257 . S
O302 Zn281 2.019 . S
H303 C296 0.930 . S
H304 C283 0.930 . S
H305 C295 0.930 . S
Zn306 N310 2.020 . S
Zn306 O314 2.019 . S
Zn306 N316 2.119 . S
Zn306 O324 1.975 . S
C307 N308 1.334 . S
C307 N311 1.336 . S
N308 C307 1.334 . S
N308 C309 1.334 . S
C309 N308 1.334 . S
C309 N310 1.336 . S
N310 Zn306 2.020 . S
N310 C309 1.336 . S
N310 N311 1.354 . S
N311 C307 1.336 . S
N311 N310 1.354 . S
N311 Zn315 2.020 . S
C312 O313 1.244 . S
C312 O336 1.257 . S
O313 C312 1.244 . S
O314 Zn306 2.019 . S
O314 C334 1.257 . S
Zn315 N311 2.020 . S
Zn315 O322 1.975 . S
Zn315 N331 2.119 . S
Zn315 O336 2.019 . S
N316 Zn306 2.119 . S
N316 C318 1.334 . S
N316 C319 1.328 . S
C317 C318 1.391 . S
C317 N320 1.329 . S
C317 H338 0.930 . S
C318 N316 1.334 . S
C318 C317 1.391 . S
C318 H325 0.930 . S
C319 N316 1.328 . S
C319 C321 1.392 . S
C319 H326 0.930 . S
N320 C317 1.329 . S
N320 C321 1.331 . S
C321 C319 1.392 . S
C321 N320 1.331 . S
O322 Zn315 1.975 . S
O322 C323 1.252 . S
C323 O322 1.252 . S
C323 O324 1.252 . S
O324 Zn306 1.975 . S
O324 C323 1.252 . S
H325 C318 0.930 . S
H326 C319 0.930 . S
C327 C328 1.392 . S
C327 N331 1.328 . S
C327 H333 0.930 . S
C328 C327 1.392 . S
C328 N332 1.331 . S
C329 C330 1.391 . S
C329 N332 1.329 . S
C329 H339 0.930 . S
C330 C329 1.391 . S
C330 N331 1.334 . S
C330 H337 0.930 . S
N331 Zn315 2.119 . S
N331 C327 1.328 . S
N331 C330 1.334 . S
N332 C328 1.331 . S
N332 C329 1.329 . S
H333 C327 0.930 . S
C334 O314 1.257 . S
C334 O335 1.244 . S
O335 C334 1.244 . S
O336 C312 1.257 . S
O336 Zn315 2.019 . S
H337 C330 0.930 . S
H338 C317 0.930 . S
H339 C329 0.930 . S
Zn340 N344 2.020 . S
Zn340 O348 2.019 . S
Zn340 N350 2.119 . S
Zn340 O358 1.975 . S
C341 N342 1.334 . S
C341 N345 1.336 . S
N342 C341 1.334 . S
N342 C343 1.334 . S
C343 N342 1.334 . S
C343 N344 1.336 . S
N344 Zn340 2.020 . S
N344 C343 1.336 . S
N344 N345 1.354 . S
N345 C341 1.336 . S
N345 N344 1.354 . S
N345 Zn349 2.020 . S
C346 O347 1.244 . S
C346 O370 1.257 . S
O347 C346 1.244 . S
O348 Zn340 2.019 . S
O348 C368 1.257 . S
Zn349 N345 2.020 . S
Zn349 O356 1.975 . S
Zn349 N365 2.119 . S
Zn349 O370 2.019 . S
N350 Zn340 2.119 . S
N350 C352 1.334 . S
N350 C353 1.328 . S
C351 C352 1.391 . S
C351 N354 1.329 . S
C351 H372 0.930 . S
C352 N350 1.334 . S
C352 C351 1.391 . S
C352 H359 0.930 . S
C353 N350 1.328 . S
C353 C355 1.392 . S
C353 H360 0.930 . S
N354 C351 1.329 . S
N354 C355 1.331 . S
C355 C353 1.392 . S
C355 N354 1.331 . S
O356 Zn349 1.975 . S
O356 C357 1.252 . S
C357 O356 1.252 . S
C357 O358 1.252 . S
O358 Zn340 1.975 . S
O358 C357 1.252 . S
H359 C352 0.930 . S
H360 C353 0.930 . S
C361 C362 1.392 . S
C361 N365 1.328 . S
C361 H367 0.930 . S
C362 C361 1.392 . S
C362 N366 1.331 . S
C363 C364 1.391 . S
C363 N366 1.329 . S
C363 H373 0.930 . S
C364 C363 1.391 . S
C364 N365 1.334 . S
C364 H371 0.930 . S
N365 Zn349 2.119 . S
N365 C361 1.328 . S
N365 C364 1.334 . S
N366 C362 1.331 . S
N366 C363 1.329 . S
H367 C361 0.930 . S
C368 O348 1.257 . S
C368 O369 1.244 . S
O369 C368 1.244 . S
O370 C346 1.257 . S
O370 Zn349 2.019 . S
H371 C364 0.930 . S
H372 C351 0.930 . S
H373 C363 0.930 . S
Zn374 N378 2.020 . S
Zn374 O382 2.019 . S
Zn374 N384 2.119 . S
Zn374 O392 1.975 . S
C375 N376 1.334 . S
C375 N379 1.336 . S
N376 C375 1.334 . S
N376 C377 1.334 . S
C377 N376 1.334 . S
C377 N378 1.336 . S
N378 Zn374 2.020 . S
N378 C377 1.336 . S
N378 N379 1.354 . S
N379 C375 1.336 . S
N379 N378 1.354 . S
N379 Zn383 2.020 . S
C380 O381 1.244 . S
C380 O404 1.257 . S
O381 C380 1.244 . S
O382 Zn374 2.019 . S
O382 C402 1.257 . S
Zn383 N379 2.020 . S
Zn383 O390 1.975 . S
Zn383 N399 2.119 . S
Zn383 O404 2.019 . S
N384 Zn374 2.119 . S
N384 C386 1.334 . S
N384 C387 1.328 . S
C385 C386 1.391 . S
C385 N388 1.329 . S
C385 H406 0.930 . S
C386 N384 1.334 . S
C386 C385 1.391 . S
C386 H393 0.930 . S
C387 N384 1.328 . S
C387 C389 1.392 . S
C387 H394 0.930 . S
N388 C385 1.329 . S
N388 C389 1.331 . S
C389 C387 1.392 . S
C389 N388 1.331 . S
O390 Zn383 1.975 . S
O390 C391 1.252 . S
C391 O390 1.252 . S
C391 O392 1.252 . S
O392 Zn374 1.975 . S
O392 C391 1.252 . S
H393 C386 0.930 . S
H394 C387 0.930 . S
C395 C396 1.392 . S
C395 N399 1.328 . S
C395 H401 0.930 . S
C396 C395 1.392 . S
C396 N400 1.331 . S
C397 C398 1.391 . S
C397 N400 1.329 . S
C397 H407 0.930 . S
C398 C397 1.391 . S
C398 N399 1.334 . S
C398 H405 0.930 . S
N399 Zn383 2.119 . S
N399 C395 1.328 . S
N399 C398 1.334 . S
N400 C396 1.331 . S
N400 C397 1.329 . S
H401 C395 0.930 . S
C402 O382 1.257 . S
C402 O403 1.244 . S
O403 C402 1.244 . S
O404 C380 1.257 . S
O404 Zn383 2.019 . S
H405 C398 0.930 . S
H406 C385 0.930 . S
H407 C397 0.930 . S
Zn408 N412 2.020 . S
Zn408 O416 2.019 . S
Zn408 N418 2.119 . S
Zn408 O426 1.975 . S
C409 N410 1.334 . S
C409 N413 1.336 . S
N410 C409 1.334 . S
N410 C411 1.334 . S
C411 N410 1.334 . S
C411 N412 1.336 . S
N412 Zn408 2.020 . S
N412 C411 1.336 . S
N412 N413 1.354 . S
N413 C409 1.336 . S
N413 N412 1.354 . S
N413 Zn417 2.020 . S
C414 O415 1.244 . S
C414 O438 1.257 . S
O415 C414 1.244 . S
O416 Zn408 2.019 . S
O416 C436 1.257 . S
Zn417 N413 2.020 . S
Zn417 O424 1.975 . S
Zn417 N433 2.119 . S
Zn417 O438 2.019 . S
N418 Zn408 2.119 . S
N418 C420 1.334 . S
N418 C421 1.328 . S
C419 C420 1.391 . S
C419 N422 1.329 . S
C419 H440 0.930 . S
C420 N418 1.334 . S
C420 C419 1.391 . S
C420 H427 0.930 . S
C421 N418 1.328 . S
C421 C423 1.392 . S
C421 H428 0.930 . S
N422 C419 1.329 . S
N422 C423 1.331 . S
C423 C421 1.392 . S
C423 N422 1.331 . S
O424 Zn417 1.975 . S
O424 C425 1.252 . S
C425 O424 1.252 . S
C425 O426 1.252 . S
O426 Zn408 1.975 . S
O426 C425 1.252 . S
H427 C420 0.930 . S
H428 C421 0.930 . S
C429 C430 1.392 . S
C429 N433 1.328 . S
C429 H435 0.930 . S
C430 C429 1.392 . S
C430 N434 1.331 . S
C431 C432 1.391 . S
C431 N434 1.329 . S
C431 H441 0.930 . S
C432 C431 1.391 . S
C432 N433 1.334 . S
C432 H439 0.930 . S
N433 Zn417 2.119 . S
N433 C429 1.328 . S
N433 C432 1.334 . S
N434 C430 1.331 . S
N434 C431 1.329 . S
H435 C429 0.930 . S
C436 O416 1.257 . S
C436 O437 1.244 . S
O437 C436 1.244 . S
O438 C414 1.257 . S
O438 Zn417 2.019 . S
H439 C432 0.930 . S
H440 C419 0.930 . S
H441 C431 0.930 . S
Zn442 N446 2.020 . S
Zn442 O450 2.019 . S
Zn442 N452 2.119 . S
Zn442 O460 1.975 . S
C443 N444 1.334 . S
C443 N447 1.336 . S
N444 C443 1.334 . S
N444 C445 1.334 . S
C445 N444 1.334 . S
C445 N446 1.336 . S
N446 Zn442 2.020 . S
N446 C445 1.336 . S
N446 N447 1.354 . S
N447 C443 1.336 . S
N447 N446 1.354 . S
N447 Zn451 2.020 . S
C448 O449 1.244 . S
C448 O472 1.257 . S
O449 C448 1.244 . S
O450 Zn442 2.019 . S
O450 C470 1.257 . S
Zn451 N447 2.020 . S
Zn451 O458 1.975 . S
Zn451 N467 2.119 . S
Zn451 O472 2.019 . S
N452 Zn442 2.119 . S
N452 C454 1.334 . S
N452 C455 1.328 . S
C453 C454 1.391 . S
C453 N456 1.329 . S
C453 H474 0.930 . S
C454 N452 1.334 . S
C454 C453 1.391 . S
C454 H461 0.930 . S
C455 N452 1.328 . S
C455 C457 1.392 . S
C455 H462 0.930 . S
N456 C453 1.329 . S
N456 C457 1.331 . S
C457 C455 1.392 . S
C457 N456 1.331 . S
O458 Zn451 1.975 . S
O458 C459 1.252 . S
C459 O458 1.252 . S
C459 O460 1.252 . S
O460 Zn442 1.975 . S
O460 C459 1.252 . S
H461 C454 0.930 . S
H462 C455 0.930 . S
C463 C464 1.392 . S
C463 N467 1.328 . S
C463 H469 0.930 . S
C464 C463 1.392 . S
C464 N468 1.331 . S
C465 C466 1.391 . S
C465 N468 1.329 . S
C465 H475 0.930 . S
C466 C465 1.391 . S
C466 N467 1.334 . S
C466 H473 0.930 . S
N467 Zn451 2.119 . S
N467 C463 1.328 . S
N467 C466 1.334 . S
N468 C464 1.331 . S
N468 C465 1.329 . S
H469 C463 0.930 . S
C470 O450 1.257 . S
C470 O471 1.244 . S
O471 C470 1.244 . S
O472 C448 1.257 . S
O472 Zn451 2.019 . S
H473 C466 0.930 . S
H474 C453 0.930 . S
H475 C465 0.930 . S
Zn476 N480 2.020 . S
Zn476 O484 2.019 . S
Zn476 N486 2.119 . S
Zn476 O494 1.975 . S
C477 N478 1.334 . S
C477 N481 1.336 . S
N478 C477 1.334 . S
N478 C479 1.334 . S
C479 N478 1.334 . S
C479 N480 1.336 . S
N480 Zn476 2.020 . S
N480 C479 1.336 . S
N480 N481 1.354 . S
N481 C477 1.336 . S
N481 N480 1.354 . S
N481 Zn485 2.020 . S
C482 O483 1.244 . S
C482 O506 1.257 . S
O483 C482 1.244 . S
O484 Zn476 2.019 . S
O484 C504 1.257 . S
Zn485 N481 2.020 . S
Zn485 O492 1.975 . S
Zn485 N501 2.119 . S
Zn485 O506 2.019 . S
N486 Zn476 2.119 . S
N486 C488 1.334 . S
N486 C489 1.328 . S
C487 C488 1.391 . S
C487 N490 1.329 . S
C487 H508 0.930 . S
C488 N486 1.334 . S
C488 C487 1.391 . S
C488 H495 0.930 . S
C489 N486 1.328 . S
C489 C491 1.392 . S
C489 H496 0.930 . S
N490 C487 1.329 . S
N490 C491 1.331 . S
C491 C489 1.392 . S
C491 N490 1.331 . S
O492 Zn485 1.975 . S
O492 C493 1.252 . S
C493 O492 1.252 . S
C493 O494 1.252 . S
O494 Zn476 1.975 . S
O494 C493 1.252 . S
H495 C488 0.930 . S
H496 C489 0.930 . S
C497 C498 1.392 . S
C497 N501 1.328 . S
C497 H503 0.930 . S
C498 C497 1.392 . S
C498 N502 1.331 . S
C499 C500 1.391 . S
C499 N502 1.329 . S
C499 H509 0.930 . S
C500 C499 1.391 . S
C500 N501 1.334 . S
C500 H507 0.930 . S
N501 Zn485 2.119 . S
N501 C497 1.328 . S
N501 C500 1.334 . S
N502 C498 1.331 . S
N502 C499 1.329 . S
H503 C497 0.930 . S
C504 O484 1.257 . S
C504 O505 1.244 . S
O505 C504 1.244 . S
O506 C482 1.257 . S
O506 Zn485 2.019 . S
H507 C500 0.930 . S
H508 C487 0.930 . S
H509 C499 0.930 . S
Zn510 N514 2.020 . S
Zn510 O518 2.019 . S
Zn510 N520 2.119 . S
Zn510 O528 1.975 . S
C511 N512 1.334 . S
C511 N515 1.336 . S
N512 C511 1.334 . S
N512 C513 1.334 . S
C513 N512 1.334 . S
C513 N514 1.336 . S
N514 Zn510 2.020 . S
N514 C513 1.336 . S
N514 N515 1.354 . S
N515 C511 1.336 . S
N515 N514 1.354 . S
N515 Zn519 2.020 . S
C516 O517 1.244 . S
C516 O540 1.257 . S
O517 C516 1.244 . S
O518 Zn510 2.019 . S
O518 C538 1.257 . S
Zn519 N515 2.020 . S
Zn519 O526 1.975 . S
Zn519 N535 2.119 . S
Zn519 O540 2.019 . S
N520 Zn510 2.119 . S
N520 C522 1.334 . S
N520 C523 1.328 . S
C521 C522 1.391 . S
C521 N524 1.329 . S
C521 H542 0.930 . S
C522 N520 1.334 . S
C522 C521 1.391 . S
C522 H529 0.930 . S
C523 N520 1.328 . S
C523 C525 1.392 . S
C523 H530 0.930 . S
N524 C521 1.329 . S
N524 C525 1.331 . S
C525 C523 1.392 . S
C525 N524 1.331 . S
O526 Zn519 1.975 . S
O526 C527 1.252 . S
C527 O526 1.252 . S
C527 O528 1.252 . S
O528 Zn510 1.975 . S
O528 C527 1.252 . S
H529 C522 0.930 . S
H530 C523 0.930 . S
C531 C532 1.392 . S
C531 N535 1.328 . S
C531 H537 0.930 . S
C532 C531 1.392 . S
C532 N536 1.331 . S
C533 C534 1.391 . S
C533 N536 1.329 . S
C533 H543 0.930 . S
C534 C533 1.391 . S
C534 N535 1.334 . S
C534 H541 0.930 . S
N535 Zn519 2.119 . S
N535 C531 1.328 . S
N535 C534 1.334 . S
N536 C532 1.331 . S
N536 C533 1.329 . S
H537 C531 0.930 . S
C538 O518 1.257 . S
C538 O539 1.244 . S
O539 C538 1.244 . S
O540 C516 1.257 . S
O540 Zn519 2.019 . S
H541 C534 0.930 . S
H542 C521 0.930 . S
H543 C533 0.930 . S
H544 C550 0.930 . S
H545 C554 0.930 . S
H546 C559 0.929 . S
H547 C557 0.929 . S
H548 C552 0.929 . S
H549 C558 0.928 1_554 S
C550 H544 0.930 . S
C550 C551 1.367 . S
C550 C558 1.378 . S
C551 C550 1.367 . S
C551 C559 1.433 . S
C552 H548 0.929 . S
C552 C554 1.378 . S
C552 C556 1.350 . S
C553 C556 1.463 . S
C553 C558 1.350 1_554 S
C553 N561 1.427 . S
C554 H545 0.930 . S
C554 C552 1.378 . S
C554 C555 1.367 . S
C555 C554 1.367 . S
C555 C557 1.433 . S
C556 C552 1.350 . S
C556 C553 1.463 . S
C556 N560 1.427 . S
C557 H547 0.929 . S
C557 C555 1.433 . S
C557 N560 1.384 . S
C558 H549 0.928 1_556 S
C558 C550 1.378 . S
C558 C553 1.350 1_556 S
C559 H546 0.929 . S
C559 C551 1.433 . S
C559 N561 1.384 1_556 S
N560 C556 1.427 . S
N560 C557 1.384 . S
N561 C553 1.427 . S
N561 C559 1.384 1_554 S
H562 C568 0.930 . S
H563 C572 0.930 . S
H564 C577 0.929 . S
H565 C575 0.929 . S
H566 C570 0.929 . S
H567 C576 0.929 . S
C568 H562 0.930 . S
C568 C569 1.367 . S
C568 C576 1.378 . S
C569 C568 1.367 . S
C569 C577 1.433 . S
C570 H566 0.929 . S
C570 C572 1.378 . S
C570 C574 1.350 . S
C571 C574 1.463 . S
C571 C576 1.350 . S
C571 N579 1.427 . S
C572 H563 0.930 . S
C572 C570 1.378 . S
C572 C573 1.367 . S
C573 C572 1.367 . S
C573 C575 1.433 . S
C574 C570 1.350 . S
C574 C571 1.463 . S
C574 N578 1.427 . S
C575 H565 0.929 . S
C575 C573 1.433 . S
C575 N578 1.384 . S
C576 H567 0.929 . S
C576 C568 1.378 . S
C576 C571 1.350 . S
C577 H564 0.929 . S
C577 C569 1.433 . S
C577 N579 1.384 . S
N578 C574 1.427 . S
N578 C575 1.384 . S
N579 C571 1.427 . S
N579 C577 1.384 . S
H580 C586 0.930 . S
H581 C590 0.930 . S
H582 C595 0.929 . S
H583 C593 0.929 . S
H584 C588 0.929 . S
H585 C594 0.929 . S
C586 H580 0.930 . S
C586 C587 1.367 . S
C586 C594 1.378 1_554 S
C587 C586 1.367 . S
C587 C595 1.433 . S
C588 H584 0.929 . S
C588 C590 1.378 . S
C588 C592 1.350 . S
C589 C592 1.463 . S
C589 C594 1.350 . S
C589 N597 1.427 1_556 S
C590 H581 0.930 . S
C590 C588 1.378 . S
C590 C591 1.367 . S
C591 C590 1.367 . S
C591 C593 1.433 . S
C592 C588 1.350 . S
C592 C589 1.463 . S
C592 N596 1.427 . S
C593 H583 0.929 . S
C593 C591 1.433 . S
C593 N596 1.384 . S
C594 H585 0.929 . S
C594 C586 1.378 1_556 S
C594 C589 1.350 . S
C595 H582 0.929 . S
C595 C587 1.433 . S
C595 N597 1.384 . S
N596 C592 1.427 . S
N596 C593 1.384 . S
N597 C589 1.427 1_554 S
N597 C595 1.384 . S
H598 C604 0.930 . S
H599 C608 0.930 . S
H600 C613 0.929 . S
H601 C611 0.929 . S
H602 C606 0.929 . S
H603 C612 0.929 . S
C604 H598 0.930 . S
C604 C605 1.367 . S
C604 C612 1.378 . S
C605 C604 1.367 . S
C605 C613 1.433 . S
C606 H602 0.929 . S
C606 C608 1.378 . S
C606 C610 1.350 . S
C607 C610 1.463 . S
C607 C612 1.350 . S
C607 N615 1.427 . S
C608 H599 0.930 . S
C608 C606 1.378 . S
C608 C609 1.367 . S
C609 C608 1.367 . S
C609 C611 1.433 . S
C610 C606 1.350 . S
C610 C607 1.463 . S
C610 N614 1.427 . S
C611 H601 0.929 . S
C611 C609 1.433 . S
C611 N614 1.384 . S
C612 H603 0.929 . S
C612 C604 1.378 . S
C612 C607 1.350 . S
C613 H600 0.929 . S
C613 C605 1.433 . S
C613 N615 1.384 . S
N614 C610 1.427 . S
N614 C611 1.384 . S
N615 C607 1.427 . S
N615 C613 1.384 . S
H616 C622 0.930 . S
H617 C626 0.930 . S
H618 C631 0.929 . S
H619 C629 0.929 . S
H620 C624 0.929 . S
H621 C630 0.929 . S
C622 H616 0.930 . S
C622 C623 1.367 . S
C622 C630 1.378 . S
C623 C622 1.367 . S
C623 C631 1.433 . S
C624 H620 0.929 . S
C624 C626 1.378 . S
C624 C628 1.350 1_554 S
C625 C628 1.463 . S
C625 C630 1.350 . S
C625 N633 1.427 . S
C626 H617 0.930 . S
C626 C624 1.378 . S
C626 C627 1.367 . S
C627 C626 1.367 . S
C627 C629 1.433 . S
C628 C624 1.350 1_556 S
C628 C625 1.463 . S
C628 N632 1.427 . S
C629 H619 0.929 . S
C629 C627 1.433 . S
C629 N632 1.384 1_554 S
C630 H621 0.929 . S
C630 C622 1.378 . S
C630 C625 1.350 . S
C631 H618 0.929 . S
C631 C623 1.433 . S
C631 N633 1.384 . S
N632 C628 1.427 . S
N632 C629 1.384 1_556 S
N633 C625 1.427 . S
N633 C631 1.384 . S
H634 C640 0.930 . S
H635 C644 0.930 . S
H636 C649 0.929 . S
H637 C647 0.929 . S
H638 C642 0.929 . S
H639 C648 0.929 . S
C640 H634 0.930 . S
C640 C641 1.367 . S
C640 C648 1.378 . S
C641 C640 1.367 . S
C641 C649 1.433 . S
C642 H638 0.929 . S
C642 C644 1.378 . S
C642 C646 1.350 . S
C643 C646 1.463 . S
C643 C648 1.350 . S
C643 N651 1.427 . S
C644 H635 0.930 . S
C644 C642 1.378 . S
C644 C645 1.367 . S
C645 C644 1.367 . S
C645 C647 1.433 . S
C646 C642 1.350 . S
C646 C643 1.463 . S
C646 N650 1.427 . S
C647 H637 0.929 . S
C647 C645 1.433 . S
C647 N650 1.384 . S
C648 H639 0.929 . S
C648 C640 1.378 . S
C648 C643 1.350 . S
C649 H636 0.929 . S
C649 C641 1.433 . S
C649 N651 1.384 . S
N650 C646 1.427 . S
N650 C647 1.384 . S
N651 C643 1.427 . S
N651 C649 1.384 . S
H652 C658 0.930 . S
H653 C662 0.930 . S
H654 C667 0.929 . S
H655 C665 0.929 . S
H656 C660 0.929 . S
H657 C666 0.929 . S
C658 H652 0.930 . S
C658 C659 1.367 . S
C658 C666 1.378 . S
C659 C658 1.367 . S
C659 C667 1.433 . S
C660 H656 0.929 . S
C660 C662 1.378 1_554 S
C660 C664 1.350 . S
C661 C664 1.463 . S
C661 C666 1.350 . S
C661 N669 1.427 . S
C662 H653 0.930 . S
C662 C660 1.378 1_556 S
C662 C663 1.367 . S
C663 C662 1.367 . S
C663 C665 1.433 . S
C664 C660 1.350 . S
C664 C661 1.463 . S
C664 N668 1.427 1_554 S
C665 H655 0.929 . S
C665 C663 1.433 . S
C665 N668 1.384 . S
C666 H657 0.929 . S
C666 C658 1.378 . S
C666 C661 1.350 . S
C667 H654 0.929 . S
C667 C659 1.433 . S
C667 N669 1.384 . S
N668 C664 1.427 1_556 S
N668 C665 1.384 . S
N669 C661 1.427 . S
N669 C667 1.384 . S
H670 C676 0.930 . S
H671 C680 0.930 . S
H672 C685 0.929 . S
H673 C683 0.929 . S
H674 C678 0.929 . S
H675 C684 0.929 . S
C676 H670 0.930 . S
C676 C677 1.367 . S
C676 C684 1.378 . S
C677 C676 1.367 . S
C677 C685 1.433 . S
C678 H674 0.929 . S
C678 C680 1.378 . S
C678 C682 1.350 . S
C679 C682 1.463 . S
C679 C684 1.350 . S
C679 N687 1.427 . S
C680 H671 0.930 . S
C680 C678 1.378 . S
C680 C681 1.367 . S
C681 C680 1.367 . S
C681 C683 1.433 . S
C682 C678 1.350 . S
C682 C679 1.463 . S
C682 N686 1.427 . S
C683 H673 0.929 . S
C683 C681 1.433 . S
C683 N686 1.384 . S
C684 H675 0.929 . S
C684 C676 1.378 . S
C684 C679 1.350 . S
C685 H672 0.929 . S
C685 C677 1.433 . S
C685 N687 1.384 . S
N686 C682 1.427 . S
N686 C683 1.384 . S
N687 C679 1.427 . S
N687 C685 1.384 . S
H688 C694 0.930 . S
H689 C698 0.930 . S
H690 C703 0.929 . S
H691 C701 0.929 . S
H692 C696 0.926 1_554 S
H693 C702 0.929 . S
C694 H688 0.930 . S
C694 C695 1.367 . S
C694 C702 1.378 . S
C695 C694 1.367 . S
C695 C703 1.433 . S
C696 H692 0.926 1_556 S
C696 C698 1.393 . S
C696 C700 1.338 1_556 S
C697 C700 1.463 . S
C697 C702 1.350 . S
C697 N705 1.427 . S
C698 H689 0.930 . S
C698 C696 1.393 . S
C698 C699 1.367 . S
C699 C698 1.367 . S
C699 C701 1.433 . S
C700 C696 1.338 1_554 S
C700 C697 1.463 . S
C700 N704 1.427 . S
C701 H691 0.929 . S
C701 C699 1.433 . S
C701 N704 1.384 1_556 S
C702 H693 0.929 . S
C702 C694 1.378 . S
C702 C697 1.350 . S
C703 H690 0.929 . S
C703 C695 1.433 . S
C703 N705 1.384 . S
N704 C700 1.427 . S
N704 C701 1.384 1_554 S
N705 C697 1.427 . S
N705 C703 1.384 . S
H706 C712 0.930 . S
H707 C716 0.930 . S
H708 C721 0.929 . S
H709 C719 0.929 . S
H710 C714 0.929 . S
H711 C720 0.929 . S
C712 H706 0.930 . S
C712 C713 1.367 . S
C712 C720 1.378 . S
C713 C712 1.367 . S
C713 C721 1.433 . S
C714 H710 0.929 . S
C714 C716 1.378 . S
C714 C718 1.350 . S
C715 C718 1.463 . S
C715 C720 1.350 . S
C715 N723 1.427 . S
C716 H707 0.930 . S
C716 C714 1.378 . S
C716 C717 1.367 . S
C717 C716 1.367 . S
C717 C719 1.433 . S
C718 C714 1.350 . S
C718 C715 1.463 . S
C718 N722 1.427 . S
C719 H709 0.929 . S
C719 C717 1.433 . S
C719 N722 1.384 . S
C720 H711 0.929 . S
C720 C712 1.378 . S
C720 C715 1.350 . S
C721 H708 0.929 . S
C721 C713 1.433 . S
C721 N723 1.384 . S
N722 C718 1.427 . S
N722 C719 1.384 . S
N723 C715 1.427 . S
N723 C721 1.384 . S
H724 C730 0.930 . S
H725 C734 0.930 . S
H726 C739 0.929 . S
H727 C737 0.929 . S
H728 C732 0.929 . S
H729 C738 0.929 . S
C730 H724 0.930 . S
C730 C731 1.367 . S
C730 C738 1.378 . S
C731 C730 1.367 . S
C731 C739 1.433 . S
C732 H728 0.929 . S
C732 C734 1.378 1_556 S
C732 C736 1.350 . S
C733 C736 1.463 . S
C733 C738 1.350 . S
C733 N741 1.427 . S
C734 H725 0.930 . S
C734 C732 1.378 1_554 S
C734 C735 1.367 . S
C735 C734 1.367 . S
C735 C737 1.433 . S
C736 C732 1.350 . S
C736 C733 1.463 . S
C736 N740 1.427 1_556 S
C737 H727 0.929 . S
C737 C735 1.433 . S
C737 N740 1.384 . S
C738 H729 0.929 . S
C738 C730 1.378 . S
C738 C733 1.350 . S
C739 H726 0.929 . S
C739 C731 1.433 . S
C739 N741 1.384 . S
N740 C736 1.427 1_554 S
N740 C737 1.384 . S
N741 C733 1.427 . S
N741 C739 1.384 . S
H742 C748 0.930 . S
H743 C752 0.930 . S
H744 C757 0.929 . S
H745 C755 0.929 . S
H746 C750 0.929 . S
H747 C756 0.929 . S
C748 H742 0.930 . S
C748 C749 1.367 . S
C748 C756 1.378 . S
C749 C748 1.367 . S
C749 C757 1.433 . S
C750 H746 0.929 . S
C750 C752 1.378 . S
C750 C754 1.350 . S
C751 C754 1.463 . S
C751 C756 1.350 . S
C751 N759 1.427 . S
C752 H743 0.930 . S
C752 C750 1.378 . S
C752 C753 1.367 . S
C753 C752 1.367 . S
C753 C755 1.433 . S
C754 C750 1.350 . S
C754 C751 1.463 . S
C754 N758 1.427 . S
C755 H745 0.929 . S
C755 C753 1.433 . S
C755 N758 1.384 . S
C756 H747 0.929 . S
C756 C748 1.378 . S
C756 C751 1.350 . S
C757 H744 0.929 . S
C757 C749 1.433 . S
C757 N759 1.384 . S
N758 C754 1.427 . S
N758 C755 1.384 . S
N759 C751 1.427 . S
N759 C757 1.384 . S
H760 C766 0.930 . S
H761 C770 0.930 . S
H762 C775 0.929 . S
H763 C773 0.929 . S
H764 C768 0.929 . S
H765 C774 0.929 . S
C766 H760 0.930 . S
C766 C767 1.367 . S
C766 C774 1.378 1_554 S
C767 C766 1.367 . S
C767 C775 1.433 . S
C768 H764 0.929 . S
C768 C770 1.378 . S
C768 C772 1.350 . S
C769 C772 1.463 . S
C769 C774 1.350 . S
C769 N777 1.427 1_556 S
C770 H761 0.930 . S
C770 C768 1.378 . S
C770 C771 1.367 . S
C771 C770 1.367 . S
C771 C773 1.433 . S
C772 C768 1.350 . S
C772 C769 1.463 . S
C772 N776 1.427 . S
C773 H763 0.929 . S
C773 C771 1.433 . S
C773 N776 1.384 . S
C774 H765 0.929 . S
C774 C766 1.378 1_556 S
C774 C769 1.350 . S
C775 H762 0.929 . S
C775 C767 1.433 . S
C775 N777 1.384 . S
N776 C772 1.427 . S
N776 C773 1.384 . S
N777 C769 1.427 1_554 S
N777 C775 1.384 . S
H778 C784 0.930 . S
H779 C788 0.930 . S
H780 C793 0.929 . S
H781 C791 0.929 . S
H782 C786 0.929 . S
H783 C792 0.929 . S
C784 H778 0.930 . S
C784 C785 1.367 . S
C784 C792 1.378 . S
C785 C784 1.367 . S
C785 C793 1.433 . S
C786 H782 0.929 . S
C786 C788 1.378 . S
C786 C790 1.350 . S
C787 C790 1.463 . S
C787 C792 1.350 . S
C787 N795 1.427 . S
C788 H779 0.930 . S
C788 C786 1.378 . S
C788 C789 1.367 . S
C789 C788 1.367 . S
C789 C791 1.433 . S
C790 C786 1.350 . S
C790 C787 1.463 . S
C790 N794 1.427 . S
C791 H781 0.929 . S
C791 C789 1.433 . S
C791 N794 1.384 . S
C792 H783 0.929 . S
C792 C784 1.378 . S
C792 C787 1.350 . S
C793 H780 0.929 . S
C793 C785 1.433 . S
C793 N795 1.384 . S
N794 C790 1.427 . S
N794 C791 1.384 . S
N795 C787 1.427 . S
N795 C793 1.384 . S
H796 C802 0.930 . S
H797 C806 0.930 . S
H798 C811 0.929 . S
H799 C809 0.929 . S
H800 C804 0.929 . S
H801 C810 0.929 . S
C802 H796 0.930 . S
C802 C803 1.367 . S
C802 C810 1.378 1_556 S
C803 C802 1.367 . S
C803 C811 1.433 . S
C804 H800 0.929 . S
C804 C806 1.378 . S
C804 C808 1.350 . S
C805 C808 1.463 . S
C805 C810 1.350 . S
C805 N813 1.427 1_554 S
C806 H797 0.930 . S
C806 C804 1.378 . S
C806 C807 1.367 . S
C807 C806 1.367 . S
C807 C809 1.433 . S
C808 C804 1.350 . S
C808 C805 1.463 . S
C808 N812 1.427 . S
C809 H799 0.929 . S
C809 C807 1.433 . S
C809 N812 1.384 . S
C810 H801 0.929 . S
C810 C802 1.378 1_554 S
C810 C805 1.350 . S
C811 H798 0.929 . S
C811 C803 1.433 . S
C811 N813 1.384 . S
N812 C808 1.427 . S
N812 C809 1.384 . S
N813 C805 1.427 1_556 S
N813 C811 1.384 . S
H814 C820 0.930 . S
H815 C824 0.930 . S
H816 C829 0.929 . S
H817 C827 0.929 . S
H818 C822 0.929 . S
H819 C828 0.929 . S
C820 H814 0.930 . S
C820 C821 1.367 . S
C820 C828 1.378 . S
C821 C820 1.367 . S
C821 C829 1.433 . S
C822 H818 0.929 . S
C822 C824 1.378 . S
C822 C826 1.350 . S
C823 C826 1.463 . S
C823 C828 1.350 . S
C823 N831 1.427 . S
C824 H815 0.930 . S
C824 C822 1.378 . S
C824 C825 1.367 . S
C825 C824 1.367 . S
C825 C827 1.433 . S
C826 C822 1.350 . S
C826 C823 1.463 . S
C826 N830 1.427 . S
C827 H817 0.929 . S
C827 C825 1.433 . S
C827 N830 1.384 . S
C828 H819 0.929 . S
C828 C820 1.378 . S
C828 C823 1.350 . S
C829 H816 0.929 . S
C829 C821 1.433 . S
C829 N831 1.384 . S
N830 C826 1.427 . S
N830 C827 1.384 . S
N831 C823 1.427 . S
N831 C829 1.384 . S
H832 C838 0.930 . S
H833 C842 0.930 . S
H834 C847 0.929 . S
H835 C845 0.929 . S
H836 C840 0.929 . S
H837 C846 0.929 . S
C838 H832 0.930 . S
C838 C839 1.367 . S
C838 C846 1.378 . S
C839 C838 1.367 . S
C839 C847 1.433 . S
C840 H836 0.929 . S
C840 C842 1.378 . S
C840 C844 1.350 . S
C841 C844 1.463 1_455 S
C841 C846 1.350 . S
C841 N849 1.427 . S
C842 H833 0.930 . S
C842 C840 1.378 . S
C842 C843 1.367 . S
C843 C842 1.367 . S
C843 C845 1.433 . S
C844 C840 1.350 . S
C844 C841 1.463 1_655 S
C844 N848 1.427 . S
C845 H835 0.929 . S
C845 C843 1.433 . S
C845 N848 1.384 . S
C846 H837 0.929 . S
C846 C838 1.378 . S
C846 C841 1.350 . S
C847 H834 0.929 . S
C847 C839 1.433 . S
C847 N849 1.384 . S
N848 C844 1.427 . S
N848 C845 1.384 . S
N849 C841 1.427 . S
N849 C847 1.384 . S
H850 C856 0.930 . S
H851 C860 0.930 . S
H852 C865 0.929 . S
H853 C863 0.929 . S
H854 C858 0.929 . S
H855 C864 0.929 . S
C856 H850 0.930 . S
C856 C857 1.367 . S
C856 C864 1.378 . S
C857 C856 1.367 . S
C857 C865 1.433 . S
C858 H854 0.929 . S
C858 C860 1.378 . S
C858 C862 1.350 . S
C859 C862 1.463 . S
C859 C864 1.350 . S
C859 N867 1.427 . S
C860 H851 0.930 . S
C860 C858 1.378 . S
C860 C861 1.367 . S
C861 C860 1.367 . S
C861 C863 1.433 . S
C862 C858 1.350 . S
C862 C859 1.463 . S
C862 N866 1.427 . S
C863 H853 0.929 . S
C863 C861 1.433 . S
C863 N866 1.384 . S
C864 H855 0.929 . S
C864 C856 1.378 . S
C864 C859 1.350 . S
C865 H852 0.929 . S
C865 C857 1.433 . S
C865 N867 1.384 . S
N866 C862 1.427 . S
N866 C863 1.384 . S
N867 C859 1.427 . S
N867 C865 1.384 . S
H868 C874 0.930 . S
H869 C878 0.930 . S
H870 C883 0.929 . S
H871 C881 0.929 . S
H872 C876 0.929 . S
H873 C882 0.929 . S
C874 H868 0.930 . S
C874 C875 1.367 . S
C874 C882 1.378 . S
C875 C874 1.367 . S
C875 C883 1.433 . S
C876 H872 0.929 . S
C876 C878 1.378 . S
C876 C880 1.350 . S
C877 C880 1.463 1_655 S
C877 C882 1.350 . S
C877 N885 1.427 . S
C878 H869 0.930 . S
C878 C876 1.378 . S
C878 C879 1.367 . S
C879 C878 1.367 . S
C879 C881 1.433 . S
C880 C876 1.350 . S
C880 C877 1.463 1_455 S
C880 N884 1.427 . S
C881 H871 0.929 . S
C881 C879 1.433 . S
C881 N884 1.384 . S
C882 H873 0.929 . S
C882 C874 1.378 . S
C882 C877 1.350 . S
C883 H870 0.929 . S
C883 C875 1.433 . S
C883 N885 1.384 . S
N884 C880 1.427 . S
N884 C881 1.384 . S
N885 C877 1.427 . S
N885 C883 1.384 . S
H886 C892 0.930 . S
H887 C896 0.930 . S
H888 C901 0.929 . S
H889 C899 0.929 . S
H890 C894 0.929 . S
H891 C900 0.929 . S
C892 H886 0.930 . S
C892 C893 1.367 . S
C892 C900 1.378 . S
C893 C892 1.367 . S
C893 C901 1.433 . S
C894 H890 0.929 . S
C894 C896 1.378 . S
C894 C898 1.350 . S
C895 C898 1.463 . S
C895 C900 1.350 . S
C895 N903 1.427 . S
C896 H887 0.930 . S
C896 C894 1.378 . S
C896 C897 1.367 . S
C897 C896 1.367 . S
C897 C899 1.433 . S
C898 C894 1.350 . S
C898 C895 1.463 . S
C898 N902 1.427 . S
C899 H889 0.929 . S
C899 C897 1.433 . S
C899 N902 1.384 . S
C900 H891 0.929 . S
C900 C892 1.378 . S
C900 C895 1.350 . S
C901 H888 0.929 . S
C901 C893 1.433 . S
C901 N903 1.384 . S
N902 C898 1.427 . S
N902 C899 1.384 . S
N903 C895 1.427 . S
N903 C901 1.384 . S
H904 C910 0.930 . S
H905 C914 0.930 . S
H906 C919 0.929 . S
H907 C917 0.929 . S
H908 C912 0.929 . S
H909 C918 0.929 . S
C910 H904 0.930 . S
C910 C911 1.367 . S
C910 C918 1.378 . S
C911 C910 1.367 . S
C911 C919 1.433 . S
C912 H908 0.929 . S
C912 C914 1.378 . S
C912 C916 1.350 . S
C913 C916 1.463 . S
C913 C918 1.350 . S
C913 N921 1.427 . S
C914 H905 0.930 . S
C914 C912 1.378 . S
C914 C915 1.367 . S
C915 C914 1.367 . S
C915 C917 1.433 . S
C916 C912 1.350 . S
C916 C913 1.463 . S
C916 N920 1.427 . S
C917 H907 0.929 . S
C917 C915 1.433 . S
C917 N920 1.384 . S
C918 H909 0.929 . S
C918 C910 1.378 . S
C918 C913 1.350 . S
C919 H906 0.929 . S
C919 C911 1.433 . S
C919 N921 1.384 . S
N920 C916 1.427 . S
N920 C917 1.384 . S
N921 C913 1.427 . S
N921 C919 1.384 . S
H922 C928 0.930 . S
H923 C932 0.930 . S
H924 C937 0.929 . S
H925 C935 0.929 . S
H926 C930 0.929 . S
H927 C936 0.929 . S
C928 H922 0.930 . S
C928 C929 1.367 . S
C928 C936 1.378 . S
C929 C928 1.367 . S
C929 C937 1.433 . S
C930 H926 0.929 . S
C930 C932 1.378 . S
C930 C934 1.350 . S
C931 C934 1.463 1_655 S
C931 C936 1.350 . S
C931 N939 1.427 . S
C932 H923 0.930 . S
C932 C930 1.378 . S
C932 C933 1.367 . S
C933 C932 1.367 . S
C933 C935 1.433 . S
C934 C930 1.350 . S
C934 C931 1.463 1_455 S
C934 N938 1.427 . S
C935 H925 0.929 . S
C935 C933 1.433 . S
C935 N938 1.384 . S
C936 H927 0.929 . S
C936 C928 1.378 . S
C936 C931 1.350 . S
C937 H924 0.929 . S
C937 C929 1.433 . S
C937 N939 1.384 . S
N938 C934 1.427 . S
N938 C935 1.384 . S
N939 C931 1.427 . S
N939 C937 1.384 . S
H940 C946 0.930 . S
H941 C950 0.930 . S
H942 C955 0.929 . S
H943 C953 0.929 . S
H944 C948 0.929 . S
H945 C954 0.929 . S
C946 H940 0.930 . S
C946 C947 1.367 . S
C946 C954 1.378 . S
C947 C946 1.367 . S
C947 C955 1.433 . S
C948 H944 0.929 . S
C948 C950 1.378 . S
C948 C952 1.350 . S
C949 C952 1.463 . S
C949 C954 1.350 . S
C949 N957 1.427 . S
C950 H941 0.930 . S
C950 C948 1.378 . S
C950 C951 1.367 . S
C951 C950 1.367 . S
C951 C953 1.433 . S
C952 C948 1.350 . S
C952 C949 1.463 . S
C952 N956 1.427 . S
C953 H943 0.929 . S
C953 C951 1.433 . S
C953 N956 1.384 . S
C954 H945 0.929 . S
C954 C946 1.378 . S
C954 C949 1.350 . S
C955 H942 0.929 . S
C955 C947 1.433 . S
C955 N957 1.384 . S
N956 C952 1.427 . S
N956 C953 1.384 . S
N957 C949 1.427 . S
N957 C955 1.384 . S
H958 C964 0.930 . S
H959 C968 0.930 . S
H960 C973 0.929 . S
H961 C971 0.929 . S
H962 C966 0.929 . S
H963 C972 0.929 . S
C964 H958 0.930 . S
C964 C965 1.367 . S
C964 C972 1.378 . S
C965 C964 1.367 . S
C965 C973 1.433 . S
C966 H962 0.929 . S
C966 C968 1.378 . S
C966 C970 1.350 . S
C967 C970 1.463 1_655 S
C967 C972 1.350 . S
C967 N975 1.427 . S
C968 H959 0.930 . S
C968 C966 1.378 . S
C968 C969 1.367 . S
C969 C968 1.367 . S
C969 C971 1.433 . S
C970 C966 1.350 . S
C970 C967 1.463 1_455 S
C970 N974 1.427 . S
C971 H961 0.929 . S
C971 C969 1.433 . S
C971 N974 1.384 . S
C972 H963 0.929 . S
C972 C964 1.378 . S
C972 C967 1.350 . S
C973 H960 0.929 . S
C973 C965 1.433 . S
C973 N975 1.384 . S
N974 C970 1.427 . S
N974 C971 1.384 . S
N975 C967 1.427 . S
N975 C973 1.384 . S
H976 C982 0.930 . S
H977 C986 0.930 . S
H978 C991 0.929 . S
H979 C989 0.929 . S
H980 C984 0.929 . S
H981 C990 0.929 . S
C982 H976 0.930 . S
C982 C983 1.367 . S
C982 C990 1.378 . S
C983 C982 1.367 . S
C983 C991 1.433 . S
C984 H980 0.929 . S
C984 C986 1.378 . S
C984 C988 1.350 . S
C985 C988 1.463 . S
C985 C990 1.350 . S
C985 N993 1.427 . S
C986 H977 0.930 . S
C986 C984 1.378 . S
C986 C987 1.367 . S
C987 C986 1.367 . S
C987 C989 1.433 . S
C988 C984 1.350 . S
C988 C985 1.463 . S
C988 N992 1.427 . S
C989 H979 0.929 . S
C989 C987 1.433 . S
C989 N992 1.384 . S
C990 H981 0.929 . S
C990 C982 1.378 . S
C990 C985 1.350 . S
C991 H978 0.929 . S
C991 C983 1.433 . S
C991 N993 1.384 . S
N992 C988 1.427 . S
N992 C989 1.384 . S
N993 C985 1.427 . S
N993 C991 1.384 . S
H994 C1000 0.930 . S
H995 C1004 0.930 . S
H996 C1009 0.929 . S
H997 C1007 0.929 . S
H998 C1002 0.929 . S
H999 C1008 0.929 . S
C1000 H994 0.930 . S
C1000 C1001 1.367 . S
C1000 C1008 1.378 . S
C1001 C1000 1.367 . S
C1001 C1009 1.433 . S
C1002 H998 0.929 . S
C1002 C1004 1.378 . S
C1002 C1006 1.350 . S
C1003 C1006 1.463 . S
C1003 C1008 1.350 . S
C1003 N1011 1.427 . S
C1004 H995 0.930 . S
C1004 C1002 1.378 . S
C1004 C1005 1.367 . S
C1005 C1004 1.367 . S
C1005 C1007 1.433 . S
C1006 C1002 1.350 . S
C1006 C1003 1.463 . S
C1006 N1010 1.427 . S
C1007 H997 0.929 . S
C1007 C1005 1.433 . S
C1007 N1010 1.384 . S
C1008 H999 0.929 . S
C1008 C1000 1.378 . S
C1008 C1003 1.350 . S
C1009 H996 0.929 . S
C1009 C1001 1.433 . S
C1009 N1011 1.384 . S
N1010 C1006 1.427 . S
N1010 C1007 1.384 . S
N1011 C1003 1.427 . S
N1011 C1009 1.384 . S
H1012 C1018 0.930 . S
H1013 C1022 0.930 . S
H1014 C1027 0.929 . S
H1015 C1025 0.929 . S
H1016 C1020 0.929 . S
H1017 C1026 0.929 . S
C1018 H1012 0.930 . S
C1018 C1019 1.367 . S
C1018 C1026 1.378 . S
C1019 C1018 1.367 . S
C1019 C1027 1.433 . S
C1020 H1016 0.929 . S
C1020 C1022 1.378 . S
C1020 C1024 1.350 . S
C1021 C1024 1.463 . S
C1021 C1026 1.350 . S
C1021 N1029 1.427 . S
C1022 H1013 0.930 . S
C1022 C1020 1.378 . S
C1022 C1023 1.367 . S
C1023 C1022 1.367 . S
C1023 C1025 1.433 . S
C1024 C1020 1.350 . S
C1024 C1021 1.463 . S
C1024 N1028 1.427 . S
C1025 H1015 0.929 . S
C1025 C1023 1.433 . S
C1025 N1028 1.384 . S
C1026 H1017 0.929 . S
C1026 C1018 1.378 . S
C1026 C1021 1.350 . S
C1027 H1014 0.929 . S
C1027 C1019 1.433 . S
C1027 N1029 1.384 . S
N1028 C1024 1.427 . S
N1028 C1025 1.384 . S
N1029 C1021 1.427 . S
N1029 C1027 1.384 . S
H1030 C1036 0.930 . S
H1031 C1040 0.930 . S
H1032 C1045 0.929 . S
H1033 C1043 0.929 . S
H1034 C1038 0.929 . S
H1035 C1044 0.929 . S
C1036 H1030 0.930 . S
C1036 C1037 1.367 . S
C1036 C1044 1.378 . S
C1037 C1036 1.367 . S
C1037 C1045 1.433 . S
C1038 H1034 0.929 . S
C1038 C1040 1.378 . S
C1038 C1042 1.350 . S
C1039 C1042 1.463 . S
C1039 C1044 1.350 . S
C1039 N1047 1.427 . S
C1040 H1031 0.930 . S
C1040 C1038 1.378 . S
C1040 C1041 1.367 . S
C1041 C1040 1.367 . S
C1041 C1043 1.433 . S
C1042 C1038 1.350 . S
C1042 C1039 1.463 . S
C1042 N1046 1.427 . S
C1043 H1033 0.929 . S
C1043 C1041 1.433 . S
C1043 N1046 1.384 . S
C1044 H1035 0.929 . S
C1044 C1036 1.378 . S
C1044 C1039 1.350 . S
C1045 H1032 0.929 . S
C1045 C1037 1.433 . S
C1045 N1047 1.384 . S
N1046 C1042 1.427 . S
N1046 C1043 1.384 . S
N1047 C1039 1.427 . S
N1047 C1045 1.384 . S
H1048 C1054 0.930 . S
H1049 C1058 0.930 . S
H1050 C1063 0.929 . S
H1051 C1061 0.929 . S
H1052 C1056 0.929 . S
H1053 C1062 0.929 . S
C1054 H1048 0.930 . S
C1054 C1055 1.367 . S
C1054 C1062 1.378 . S
C1055 C1054 1.367 . S
C1055 C1063 1.433 . S
C1056 H1052 0.929 . S
C1056 C1058 1.378 . S
C1056 C1060 1.350 . S
C1057 C1060 1.463 . S
C1057 C1062 1.350 . S
C1057 N1065 1.427 . S
C1058 H1049 0.930 . S
C1058 C1056 1.378 . S
C1058 C1059 1.367 . S
C1059 C1058 1.367 . S
C1059 C1061 1.433 . S
C1060 C1056 1.350 . S
C1060 C1057 1.463 . S
C1060 N1064 1.427 . S
C1061 H1051 0.929 . S
C1061 C1059 1.433 . S
C1061 N1064 1.384 . S
C1062 H1053 0.929 . S
C1062 C1054 1.378 . S
C1062 C1057 1.350 . S
C1063 H1050 0.929 . S
C1063 C1055 1.433 . S
C1063 N1065 1.384 . S
N1064 C1060 1.427 . S
N1064 C1061 1.384 . S
N1065 C1057 1.427 . S
N1065 C1063 1.384 . S
H1066 C1072 0.930 . S
H1067 C1076 0.930 . S
H1068 C1081 0.929 . S
H1069 C1079 0.929 . S
H1070 C1074 0.929 . S
H1071 C1080 0.929 . S
C1072 H1066 0.930 . S
C1072 C1073 1.367 . S
C1072 C1080 1.378 . S
C1073 C1072 1.367 . S
C1073 C1081 1.433 . S
C1074 H1070 0.929 . S
C1074 C1076 1.378 . S
C1074 C1078 1.350 . S
C1075 C1078 1.463 . S
C1075 C1080 1.350 . S
C1075 N1083 1.427 . S
C1076 H1067 0.930 . S
C1076 C1074 1.378 . S
C1076 C1077 1.367 . S
C1077 C1076 1.367 . S
C1077 C1079 1.433 . S
C1078 C1074 1.350 . S
C1078 C1075 1.463 . S
C1078 N1082 1.427 . S
C1079 H1069 0.929 . S
C1079 C1077 1.433 . S
C1079 N1082 1.384 . S
C1080 H1071 0.929 . S
C1080 C1072 1.378 . S
C1080 C1075 1.350 . S
C1081 H1068 0.929 . S
C1081 C1073 1.433 . S
C1081 N1083 1.384 . S
N1082 C1078 1.427 . S
N1082 C1079 1.384 . S
N1083 C1075 1.427 . S
N1083 C1081 1.384 . S
H1084 C1090 0.930 . S
H1085 C1094 0.930 . S
H1086 C1099 0.929 . S
H1087 C1097 0.929 . S
H1088 C1092 0.929 . S
H1089 C1098 0.929 . S
C1090 H1084 0.930 . S
C1090 C1091 1.367 . S
C1090 C1098 1.378 . S
C1091 C1090 1.367 . S
C1091 C1099 1.433 . S
C1092 H1088 0.929 . S
C1092 C1094 1.378 . S
C1092 C1096 1.350 . S
C1093 C1096 1.463 . S
C1093 C1098 1.350 . S
C1093 N1101 1.427 . S
C1094 H1085 0.930 . S
C1094 C1092 1.378 . S
C1094 C1095 1.367 . S
C1095 C1094 1.367 . S
C1095 C1097 1.433 . S
C1096 C1092 1.350 . S
C1096 C1093 1.463 . S
C1096 N1100 1.427 . S
C1097 H1087 0.929 . S
C1097 C1095 1.433 . S
C1097 N1100 1.384 . S
C1098 H1089 0.929 . S
C1098 C1090 1.378 . S
C1098 C1093 1.350 . S
C1099 H1086 0.929 . S
C1099 C1091 1.433 . S
C1099 N1101 1.384 . S
N1100 C1096 1.427 . S
N1100 C1097 1.384 . S
N1101 C1093 1.427 . S
N1101 C1099 1.384 . S
H1102 C1108 0.930 . S
H1103 C1112 0.930 . S
H1104 C1117 0.929 . S
H1105 C1115 0.929 . S
H1106 C1110 0.929 . S
H1107 C1116 0.929 . S
C1108 H1102 0.930 . S
C1108 C1109 1.367 . S
C1108 C1116 1.378 . S
C1109 C1108 1.367 . S
C1109 C1117 1.433 . S
C1110 H1106 0.929 . S
C1110 C1112 1.378 . S
C1110 C1114 1.350 . S
C1111 C1114 1.463 . S
C1111 C1116 1.350 . S
C1111 N1119 1.427 . S
C1112 H1103 0.930 . S
C1112 C1110 1.378 . S
C1112 C1113 1.367 . S
C1113 C1112 1.367 . S
C1113 C1115 1.433 . S
C1114 C1110 1.350 . S
C1114 C1111 1.463 . S
C1114 N1118 1.427 . S
C1115 H1105 0.929 . S
C1115 C1113 1.433 . S
C1115 N1118 1.384 . S
C1116 H1107 0.929 . S
C1116 C1108 1.378 . S
C1116 C1111 1.350 . S
C1117 H1104 0.929 . S
C1117 C1109 1.433 . S
C1117 N1119 1.384 . S
N1118 C1114 1.427 . S
N1118 C1115 1.384 . S
N1119 C1111 1.427 . S
N1119 C1117 1.384 . S
H1120 C1126 0.930 . S
H1121 C1130 0.930 . S
H1122 C1135 0.929 . S
H1123 C1133 0.929 . S
H1124 C1128 0.929 . S
H1125 C1134 0.929 . S
C1126 H1120 0.930 . S
C1126 C1127 1.367 . S
C1126 C1134 1.378 . S
C1127 C1126 1.367 . S
C1127 C1135 1.433 . S
C1128 H1124 0.929 . S
C1128 C1130 1.378 . S
C1128 C1132 1.350 . S
C1129 C1132 1.463 . S
C1129 C1134 1.350 . S
C1129 N1137 1.427 . S
C1130 H1121 0.930 . S
C1130 C1128 1.378 . S
C1130 C1131 1.367 . S
C1131 C1130 1.367 . S
C1131 C1133 1.433 . S
C1132 C1128 1.350 . S
C1132 C1129 1.463 . S
C1132 N1136 1.427 . S
C1133 H1123 0.929 . S
C1133 C1131 1.433 . S
C1133 N1136 1.384 . S
C1134 H1125 0.929 . S
C1134 C1126 1.378 . S
C1134 C1129 1.350 . S
C1135 H1122 0.929 . S
C1135 C1127 1.433 . S
C1135 N1137 1.384 . S
N1136 C1132 1.427 . S
N1136 C1133 1.384 . S
N1137 C1129 1.427 . S
N1137 C1135 1.384 . S
H1138 C1144 0.930 . S
H1139 C1148 0.930 . S
H1140 C1153 0.929 . S
H1141 C1151 0.929 . S
H1142 C1146 0.929 1_556 S
H1143 C1152 0.929 1_554 S
C1144 H1138 0.930 . S
C1144 C1145 1.367 . S
C1144 C1152 1.378 . S
C1145 C1144 1.367 . S
C1145 C1153 1.433 . S
C1146 H1142 0.929 1_554 S
C1146 C1148 1.378 . S
C1146 C1150 1.350 . S
C1147 C1150 1.463 1_556 S
C1147 C1152 1.350 . S
C1147 N1155 1.427 . S
C1148 H1139 0.930 . S
C1148 C1146 1.378 . S
C1148 C1149 1.367 . S
C1149 C1148 1.367 . S
C1149 C1151 1.433 . S
C1150 C1146 1.350 . S
C1150 C1147 1.463 1_554 S
C1150 N1154 1.427 . S
C1151 H1141 0.929 . S
C1151 C1149 1.433 . S
C1151 N1154 1.384 . S
C1152 H1143 0.929 1_556 S
C1152 C1144 1.378 . S
C1152 C1147 1.350 . S
C1153 H1140 0.929 . S
C1153 C1145 1.433 . S
C1153 N1155 1.384 . S
N1154 C1150 1.427 . S
N1154 C1151 1.384 . S
N1155 C1147 1.427 . S
N1155 C1153 1.384 . S
H1156 C1162 0.930 . S
H1157 C1166 0.930 . S
H1158 C1171 0.929 . S
H1159 C1169 0.929 . S
H1160 C1164 0.929 . S
H1161 C1170 0.929 . S
C1162 H1156 0.930 . S
C1162 C1163 1.367 . S
C1162 C1170 1.378 . S
C1163 C1162 1.367 . S
C1163 C1171 1.433 . S
C1164 H1160 0.929 . S
C1164 C1166 1.378 . S
C1164 C1168 1.350 . S
C1165 C1168 1.463 . S
C1165 C1170 1.350 . S
C1165 N1173 1.427 . S
C1166 H1157 0.930 . S
C1166 C1164 1.378 . S
C1166 C1167 1.367 . S
C1167 C1166 1.367 . S
C1167 C1169 1.433 . S
C1168 C1164 1.350 . S
C1168 C1165 1.463 . S
C1168 N1172 1.427 . S
C1169 H1159 0.929 . S
C1169 C1167 1.433 . S
C1169 N1172 1.384 . S
C1170 H1161 0.929 . S
C1170 C1162 1.378 . S
C1170 C1165 1.350 . S
C1171 H1158 0.929 . S
C1171 C1163 1.433 . S
C1171 N1173 1.384 . S
N1172 C1168 1.427 . S
N1172 C1169 1.384 . S
N1173 C1165 1.427 . S
N1173 C1171 1.384 . S
H1174 C1180 0.930 . S
H1175 C1184 0.930 . S
H1176 C1189 0.929 . S
H1177 C1187 0.929 . S
H1178 C1182 0.929 . S
H1179 C1188 0.929 . S
C1180 H1174 0.930 . S
C1180 C1181 1.367 . S
C1180 C1188 1.378 1_556 S
C1181 C1180 1.367 . S
C1181 C1189 1.433 . S
C1182 H1178 0.929 . S
C1182 C1184 1.378 1_556 S
C1182 C1186 1.350 1_556 S
C1183 C1186 1.463 1_556 S
C1183 C1188 1.350 1_556 S
C1183 N1191 1.427 . S
C1184 H1175 0.930 . S
C1184 C1182 1.378 1_554 S
C1184 C1185 1.367 . S
C1185 C1184 1.367 . S
C1185 C1187 1.433 . S
C1186 C1182 1.350 1_554 S
C1186 C1183 1.463 1_554 S
C1186 N1190 1.427 . S
C1187 H1177 0.929 . S
C1187 C1185 1.433 . S
C1187 N1190 1.384 . S
C1188 H1179 0.929 . S
C1188 C1180 1.378 1_554 S
C1188 C1183 1.350 1_554 S
C1189 H1176 0.929 . S
C1189 C1181 1.433 . S
C1189 N1191 1.384 . S
N1190 C1186 1.427 . S
N1190 C1187 1.384 . S
N1191 C1183 1.427 . S
N1191 C1189 1.384 . S
H1192 C1198 0.930 . S
H1193 C1202 0.930 . S
H1194 C1207 0.929 . S
H1195 C1205 0.929 . S
H1196 C1200 0.929 1_565 S
H1197 C1206 0.929 1_545 S
C1198 H1192 0.930 . S
C1198 C1199 1.367 . S
C1198 C1206 1.378 . S
C1199 C1198 1.367 . S
C1199 C1207 1.433 . S
C1200 H1196 0.929 1_545 S
C1200 C1202 1.378 . S
C1200 C1204 1.350 . S
C1201 C1204 1.463 1_565 S
C1201 C1206 1.350 . S
C1201 N1209 1.427 . S
C1202 H1193 0.930 . S
C1202 C1200 1.378 . S
C1202 C1203 1.367 . S
C1203 C1202 1.367 . S
C1203 C1205 1.433 . S
C1204 C1200 1.350 . S
C1204 C1201 1.463 1_545 S
C1204 N1208 1.427 . S
C1205 H1195 0.929 . S
C1205 C1203 1.433 . S
C1205 N1208 1.384 . S
C1206 H1197 0.929 1_565 S
C1206 C1198 1.378 . S
C1206 C1201 1.350 . S
C1207 H1194 0.929 . S
C1207 C1199 1.433 . S
C1207 N1209 1.384 . S
N1208 C1204 1.427 . S
N1208 C1205 1.384 . S
N1209 C1201 1.427 . S
N1209 C1207 1.384 . S
H1210 C1216 0.930 . S
H1211 C1220 0.930 . S
H1212 C1225 0.929 . S
H1213 C1223 0.929 . S
H1214 C1218 0.929 . S
H1215 C1224 0.929 . S
C1216 H1210 0.930 . S
C1216 C1217 1.367 . S
C1216 C1224 1.378 . S
C1217 C1216 1.367 . S
C1217 C1225 1.433 . S
C1218 H1214 0.929 . S
C1218 C1220 1.378 . S
C1218 C1222 1.350 . S
C1219 C1222 1.463 1_564 S
C1219 C1224 1.350 . S
C1219 N1227 1.427 . S
C1220 H1211 0.930 . S
C1220 C1218 1.378 . S
C1220 C1221 1.367 . S
C1221 C1220 1.367 . S
C1221 C1223 1.433 . S
C1222 C1218 1.350 . S
C1222 C1219 1.463 1_546 S
C1222 N1226 1.427 . S
C1223 H1213 0.929 . S
C1223 C1221 1.433 . S
C1223 N1226 1.384 . S
C1224 H1215 0.929 . S
C1224 C1216 1.378 . S
C1224 C1219 1.350 . S
C1225 H1212 0.929 . S
C1225 C1217 1.433 . S
C1225 N1227 1.384 . S
N1226 C1222 1.427 . S
N1226 C1223 1.384 . S
N1227 C1219 1.427 . S
N1227 C1225 1.384 . S
H1228 C1234 0.930 . S
H1229 C1238 0.930 . S
H1230 C1243 0.929 . S
H1231 C1241 0.929 . S
H1232 C1236 0.929 1_545 S
H1233 C1242 0.929 1_565 S
C1234 H1228 0.930 . S
C1234 C1235 1.367 . S
C1234 C1242 1.378 . S
C1235 C1234 1.367 . S
C1235 C1243 1.433 . S
C1236 H1232 0.929 1_565 S
C1236 C1238 1.378 . S
C1236 C1240 1.350 . S
C1237 C1240 1.463 1_545 S
C1237 C1242 1.350 . S
C1237 N1245 1.427 . S
C1238 H1229 0.930 . S
C1238 C1236 1.378 . S
C1238 C1239 1.367 . S
C1239 C1238 1.367 . S
C1239 C1241 1.433 . S
C1240 C1236 1.350 . S
C1240 C1237 1.463 1_565 S
C1240 N1244 1.427 . S
C1241 H1231 0.929 . S
C1241 C1239 1.433 . S
C1241 N1244 1.384 . S
C1242 H1233 0.929 1_545 S
C1242 C1234 1.378 . S
C1242 C1237 1.350 . S
C1243 H1230 0.929 . S
C1243 C1235 1.433 . S
C1243 N1245 1.384 . S
N1244 C1240 1.427 . S
N1244 C1241 1.384 . S
N1245 C1237 1.427 . S
N1245 C1243 1.384 . S
H1246 C1252 0.930 . S
H1247 C1256 0.930 . S
H1248 C1261 0.929 . S
H1249 C1259 0.929 . S
H1250 C1254 0.929 . S
H1251 C1260 0.929 . S
C1252 H1246 0.930 . S
C1252 C1253 1.367 . S
C1252 C1260 1.378 . S
C1253 C1252 1.367 . S
C1253 C1261 1.433 . S
C1254 H1250 0.929 . S
C1254 C1256 1.378 . S
C1254 C1258 1.350 . S
C1255 C1258 1.463 1_564 S
C1255 C1260 1.350 . S
C1255 N1263 1.427 . S
C1256 H1247 0.930 . S
C1256 C1254 1.378 . S
C1256 C1257 1.367 . S
C1257 C1256 1.367 . S
C1257 C1259 1.433 . S
C1258 C1254 1.350 . S
C1258 C1255 1.463 1_546 S
C1258 N1262 1.427 . S
C1259 H1249 0.929 . S
C1259 C1257 1.433 . S
C1259 N1262 1.384 . S
C1260 H1251 0.929 . S
C1260 C1252 1.378 . S
C1260 C1255 1.350 . S
C1261 H1248 0.929 . S
C1261 C1253 1.433 . S
C1261 N1263 1.384 . S
N1262 C1258 1.427 . S
N1262 C1259 1.384 . S
N1263 C1255 1.427 . S
N1263 C1261 1.384 . S
H1264 C1270 0.930 . S
H1265 C1274 0.930 . S
H1266 C1279 0.929 . S
H1267 C1277 0.929 . S
H1268 C1272 0.929 . S
H1269 C1278 0.929 . S
C1270 H1264 0.930 . S
C1270 C1271 1.367 . S
C1270 C1278 1.378 . S
C1271 C1270 1.367 . S
C1271 C1279 1.433 . S
C1272 H1268 0.929 . S
C1272 C1274 1.378 . S
C1272 C1276 1.350 . S
C1273 C1276 1.463 . S
C1273 C1278 1.350 . S
C1273 N1281 1.427 . S
C1274 H1265 0.930 . S
C1274 C1272 1.378 . S
C1274 C1275 1.367 1_545 S
C1275 C1274 1.367 1_565 S
C1275 C1277 1.433 . S
C1276 C1272 1.350 . S
C1276 C1273 1.463 . S
C1276 N1280 1.427 . S
C1277 H1267 0.929 . S
C1277 C1275 1.433 . S
C1277 N1280 1.384 1_565 S
C1278 H1269 0.929 . S
C1278 C1270 1.378 . S
C1278 C1273 1.350 . S
C1279 H1266 0.929 . S
C1279 C1271 1.433 . S
C1279 N1281 1.384 . S
N1280 C1276 1.427 . S
N1280 C1277 1.384 1_545 S
N1281 C1273 1.427 . S
N1281 C1279 1.384 . S
H1282 C1288 0.930 . S
H1283 C1292 0.930 . S
H1284 C1297 0.929 . S
H1285 C1295 0.929 . S
H1286 C1290 0.929 . S
H1287 C1296 0.929 . S
C1288 H1282 0.930 . S
C1288 C1289 1.367 . S
C1288 C1296 1.378 1_545 S
C1289 C1288 1.367 . S
C1289 C1297 1.433 1_545 S
C1290 H1286 0.929 . S
C1290 C1292 1.378 . S
C1290 C1294 1.350 . S
C1291 C1294 1.463 . S
C1291 C1296 1.350 . S
C1291 N1299 1.427 . S
C1292 H1283 0.930 . S
C1292 C1290 1.378 . S
C1292 C1293 1.367 . S
C1293 C1292 1.367 . S
C1293 C1295 1.433 . S
C1294 C1290 1.350 . S
C1294 C1291 1.463 . S
C1294 N1298 1.427 . S
C1295 H1285 0.929 . S
C1295 C1293 1.433 . S
C1295 N1298 1.384 . S
C1296 H1287 0.929 . S
C1296 C1288 1.378 1_565 S
C1296 C1291 1.350 . S
C1297 H1284 0.929 . S
C1297 C1289 1.433 1_565 S
C1297 N1299 1.384 . S
N1298 C1294 1.427 . S
N1298 C1295 1.384 . S
N1299 C1291 1.427 . S
N1299 C1297 1.384 . S
H1300 C1306 0.934 . S
H1301 C1310 0.930 . S
H1302 C1315 0.929 . S
H1303 C1313 0.929 . S
H1304 C1308 0.929 . S
H1305 C1314 0.929 . S
C1306 H1300 0.934 . S
C1306 C1307 1.367 1_565 S
C1306 C1314 1.378 . S
C1307 C1306 1.367 1_545 S
C1307 C1315 1.433 . S
C1308 H1304 0.929 . S
C1308 C1310 1.378 . S
C1308 C1312 1.350 . S
C1309 C1312 1.463 . S
C1309 C1314 1.350 . S
C1309 N1317 1.427 . S
C1310 H1301 0.930 . S
C1310 C1308 1.378 . S
C1310 C1311 1.367 . S
C1311 C1310 1.367 . S
C1311 C1313 1.433 . S
C1312 C1308 1.350 . S
C1312 C1309 1.463 . S
C1312 N1316 1.427 . S
C1313 H1303 0.929 . S
C1313 C1311 1.433 . S
C1313 N1316 1.384 . S
C1314 H1305 0.929 . S
C1314 C1306 1.378 . S
C1314 C1309 1.350 . S
C1315 H1302 0.929 . S
C1315 C1307 1.433 . S
C1315 N1317 1.384 1_545 S
N1316 C1312 1.427 . S
N1316 C1313 1.384 . S
N1317 C1309 1.427 . S
N1317 C1315 1.384 1_565 S
H1318 C1324 0.930 . S
H1319 C1328 0.930 . S
H1320 C1333 0.929 . S
H1321 C1331 0.929 . S
H1322 C1326 0.929 . S
H1323 C1332 0.929 . S
C1324 H1318 0.930 . S
C1324 C1325 1.367 . S
C1324 C1332 1.378 . S
C1325 C1324 1.367 . S
C1325 C1333 1.433 . S
C1326 H1322 0.929 . S
C1326 C1328 1.378 . S
C1326 C1330 1.350 . S
C1327 C1330 1.463 . S
C1327 C1332 1.350 . S
C1327 N1335 1.427 . S
C1328 H1319 0.930 . S
C1328 C1326 1.378 . S
C1328 C1329 1.367 1_545 S
C1329 C1328 1.367 1_565 S
C1329 C1331 1.433 . S
C1330 C1326 1.350 . S
C1330 C1327 1.463 . S
C1330 N1334 1.427 . S
C1331 H1321 0.929 . S
C1331 C1329 1.433 . S
C1331 N1334 1.384 1_565 S
C1332 H1323 0.929 . S
C1332 C1324 1.378 . S
C1332 C1327 1.350 . S
C1333 H1320 0.929 . S
C1333 C1325 1.433 . S
C1333 N1335 1.384 . S
N1334 C1330 1.427 . S
N1334 C1331 1.384 1_545 S
N1335 C1327 1.427 . S
N1335 C1333 1.384 . S
H1336 C1342 0.930 . S
H1337 C1346 0.930 1_545 S
H1338 C1351 0.929 . S
H1339 C1349 0.929 . S
H1340 C1344 0.929 . S
H1341 C1350 0.929 . S
C1342 H1336 0.930 . S
C1342 C1343 1.367 . S
C1342 C1350 1.378 . S
C1343 C1342 1.367 . S
C1343 C1351 1.433 . S
C1344 H1340 0.929 . S
C1344 C1346 1.378 . S
C1344 C1348 1.350 . S
C1345 C1348 1.463 . S
C1345 C1350 1.350 . S
C1345 N1353 1.427 . S
C1346 H1337 0.930 1_565 S
C1346 C1344 1.378 . S
C1346 C1347 1.367 1_565 S
C1347 C1346 1.367 1_545 S
C1347 C1349 1.433 . S
C1348 C1344 1.350 . S
C1348 C1345 1.463 . S
C1348 N1352 1.427 . S
C1349 H1339 0.929 . S
C1349 C1347 1.433 . S
C1349 N1352 1.384 1_545 S
C1350 H1341 0.929 . S
C1350 C1342 1.378 . S
C1350 C1345 1.350 . S
C1351 H1338 0.929 . S
C1351 C1343 1.433 . S
C1351 N1353 1.384 . S
N1352 C1348 1.427 . S
N1352 C1349 1.384 1_565 S
N1353 C1345 1.427 . S
N1353 C1351 1.384 . S
H1354 C1360 0.930 . S
H1355 C1364 0.930 . S
H1356 C1369 0.929 . S
H1357 C1367 0.929 . S
H1358 C1362 0.929 . S
H1359 C1368 0.929 . S
C1360 H1354 0.930 . S
C1360 C1361 1.367 . S
C1360 C1368 1.378 . S
C1361 C1360 1.367 . S
C1361 C1369 1.433 . S
C1362 H1358 0.929 . S
C1362 C1364 1.378 . S
C1362 C1366 1.350 . S
C1363 C1366 1.463 . S
C1363 C1368 1.350 . S
C1363 N1371 1.427 . S
C1364 H1355 0.930 . S
C1364 C1362 1.378 . S
C1364 C1365 1.367 1_545 S
C1365 C1364 1.367 1_565 S
C1365 C1367 1.433 . S
C1366 C1362 1.350 . S
C1366 C1363 1.463 . S
C1366 N1370 1.427 . S
C1367 H1357 0.929 . S
C1367 C1365 1.433 . S
C1367 N1370 1.384 1_565 S
C1368 H1359 0.929 . S
C1368 C1360 1.378 . S
C1368 C1363 1.350 . S
C1369 H1356 0.929 . S
C1369 C1361 1.433 . S
C1369 N1371 1.384 . S
N1370 C1366 1.427 . S
N1370 C1367 1.384 1_545 S
N1371 C1363 1.427 . S
N1371 C1369 1.384 . S
H1372 C1378 0.930 . S
H1373 C1382 0.930 . S
H1374 C1387 0.929 . S
H1375 C1385 0.929 . S
H1376 C1380 0.929 . S
H1377 C1386 0.929 . S
C1378 H1372 0.930 . S
C1378 C1379 1.367 1_545 S
C1378 C1386 1.378 . S
C1379 C1378 1.367 1_565 S
C1379 C1387 1.433 . S
C1380 H1376 0.929 . S
C1380 C1382 1.378 . S
C1380 C1384 1.350 . S
C1381 C1384 1.463 . S
C1381 C1386 1.350 . S
C1381 N1389 1.427 . S
C1382 H1373 0.930 . S
C1382 C1380 1.378 . S
C1382 C1383 1.367 . S
C1383 C1382 1.367 . S
C1383 C1385 1.433 . S
C1384 C1380 1.350 . S
C1384 C1381 1.463 . S
C1384 N1388 1.427 . S
C1385 H1375 0.929 . S
C1385 C1383 1.433 . S
C1385 N1388 1.384 . S
C1386 H1377 0.929 . S
C1386 C1378 1.378 . S
C1386 C1381 1.350 . S
C1387 H1374 0.929 . S
C1387 C1379 1.433 . S
C1387 N1389 1.384 1_565 S
N1388 C1384 1.427 . S
N1388 C1385 1.384 . S
N1389 C1381 1.427 . S
N1389 C1387 1.384 1_545 S
H1390 C1396 0.930 . S
H1391 C1400 0.930 . S
H1392 C1405 0.929 . S
H1393 C1403 0.935 . S
H1394 C1398 0.929 . S
H1395 C1404 0.929 . S
C1396 H1390 0.930 . S
C1396 C1397 1.367 . S
C1396 C1404 1.378 . S
C1397 C1396 1.367 . S
C1397 C1405 1.433 . S
C1398 H1394 0.929 . S
C1398 C1400 1.378 1_565 S
C1398 C1402 1.350 . S
C1399 C1402 1.463 . S
C1399 C1404 1.350 . S
C1399 N1407 1.427 . S
C1400 H1391 0.930 . S
C1400 C1398 1.378 1_545 S
C1400 C1401 1.367 . S
C1401 C1400 1.367 . S
C1401 C1403 1.433 1_545 S
C1402 C1398 1.350 . S
C1402 C1399 1.463 . S
C1402 N1406 1.427 . S
C1403 H1393 0.935 . S
C1403 C1401 1.433 1_565 S
C1403 N1406 1.384 . S
C1404 H1395 0.929 . S
C1404 C1396 1.378 . S
C1404 C1399 1.350 . S
C1405 H1392 0.929 . S
C1405 C1397 1.433 . S
C1405 N1407 1.384 . S
N1406 C1402 1.427 . S
N1406 C1403 1.384 . S
N1407 C1399 1.427 . S
N1407 C1405 1.384 . S
H1408 C1414 0.930 . S
H1409 C1418 0.930 . S
H1410 C1423 0.929 . S
H1411 C1421 0.929 . S
H1412 C1416 0.929 . S
H1413 C1422 0.929 . S
C1414 H1408 0.930 . S
C1414 C1415 1.367 . S
C1414 C1422 1.378 . S
C1415 C1414 1.367 . S
C1415 C1423 1.433 . S
C1416 H1412 0.929 . S
C1416 C1418 1.378 . S
C1416 C1420 1.350 . S
C1417 C1420 1.463 . S
C1417 C1422 1.350 . S
C1417 N1425 1.427 . S
C1418 H1409 0.930 . S
C1418 C1416 1.378 . S
C1418 C1419 1.367 . S
C1419 C1418 1.367 . S
C1419 C1421 1.433 . S
C1420 C1416 1.350 . S
C1420 C1417 1.463 . S
C1420 N1424 1.427 . S
C1421 H1411 0.929 . S
C1421 C1419 1.433 . S
C1421 N1424 1.384 . S
C1422 H1413 0.929 . S
C1422 C1414 1.378 . S
C1422 C1417 1.350 . S
C1423 H1410 0.929 . S
C1423 C1415 1.433 . S
C1423 N1425 1.384 . S
N1424 C1420 1.427 . S
N1424 C1421 1.384 . S
N1425 C1417 1.427 . S
N1425 C1423 1.384 . S
H1426 C1432 0.930 . S
H1427 C1436 0.930 . S
H1428 C1441 0.929 . S
H1429 C1439 0.929 . S
H1430 C1434 0.929 . S
H1431 C1440 0.929 . S
C1432 H1426 0.930 . S
C1432 C1433 1.367 . S
C1432 C1440 1.378 . S
C1433 C1432 1.367 . S
C1433 C1441 1.433 . S
C1434 H1430 0.929 . S
C1434 C1436 1.378 . S
C1434 C1438 1.350 . S
C1435 C1438 1.463 . S
C1435 C1440 1.350 . S
C1435 N1443 1.427 . S
C1436 H1427 0.930 . S
C1436 C1434 1.378 . S
C1436 C1437 1.367 . S
C1437 C1436 1.367 . S
C1437 C1439 1.433 . S
C1438 C1434 1.350 . S
C1438 C1435 1.463 . S
C1438 N1442 1.427 . S
C1439 H1429 0.929 . S
C1439 C1437 1.433 . S
C1439 N1442 1.384 . S
C1440 H1431 0.929 . S
C1440 C1432 1.378 . S
C1440 C1435 1.350 . S
C1441 H1428 0.929 . S
C1441 C1433 1.433 . S
C1441 N1443 1.384 . S
N1442 C1438 1.427 . S
N1442 C1439 1.384 . S
N1443 C1435 1.427 . S
N1443 C1441 1.384 . S
H1444 C1450 0.930 . S
H1445 C1454 0.930 . S
H1446 C1459 0.929 . S
H1447 C1457 0.929 . S
H1448 C1452 0.929 . S
H1449 C1458 0.929 . S
C1450 H1444 0.930 . S
C1450 C1451 1.367 . S
C1450 C1458 1.378 . S
C1451 C1450 1.367 . S
C1451 C1459 1.433 . S
C1452 H1448 0.929 . S
C1452 C1454 1.378 . S
C1452 C1456 1.350 . S
C1453 C1456 1.463 . S
C1453 C1458 1.350 . S
C1453 N1461 1.427 . S
C1454 H1445 0.930 . S
C1454 C1452 1.378 . S
C1454 C1455 1.367 . S
C1455 C1454 1.367 . S
C1455 C1457 1.433 . S
C1456 C1452 1.350 . S
C1456 C1453 1.463 . S
C1456 N1460 1.427 . S
C1457 H1447 0.929 . S
C1457 C1455 1.433 . S
C1457 N1460 1.384 . S
C1458 H1449 0.929 . S
C1458 C1450 1.378 . S
C1458 C1453 1.350 . S
C1459 H1446 0.929 . S
C1459 C1451 1.433 . S
C1459 N1461 1.384 . S
N1460 C1456 1.427 . S
N1460 C1457 1.384 . S
N1461 C1453 1.427 . S
N1461 C1459 1.384 . S
H1462 C1468 0.930 . S
H1463 C1472 0.930 . S
H1464 C1477 0.929 . S
H1465 C1475 0.929 . S
H1466 C1470 0.929 . S
H1467 C1476 0.929 . S
C1468 H1462 0.930 . S
C1468 C1469 1.367 . S
C1468 C1476 1.378 . S
C1469 C1468 1.367 . S
C1469 C1477 1.433 . S
C1470 H1466 0.929 . S
C1470 C1472 1.378 . S
C1470 C1474 1.350 . S
C1471 C1474 1.463 . S
C1471 C1476 1.350 . S
C1471 N1479 1.427 . S
C1472 H1463 0.930 . S
C1472 C1470 1.378 . S
C1472 C1473 1.367 . S
C1473 C1472 1.367 . S
C1473 C1475 1.433 . S
C1474 C1470 1.350 . S
C1474 C1471 1.463 . S
C1474 N1478 1.427 . S
C1475 H1465 0.929 . S
C1475 C1473 1.433 . S
C1475 N1478 1.384 . S
C1476 H1467 0.929 . S
C1476 C1468 1.378 . S
C1476 C1471 1.350 . S
C1477 H1464 0.929 . S
C1477 C1469 1.433 . S
C1477 N1479 1.384 . S
N1478 C1474 1.427 . S
N1478 C1475 1.384 . S
N1479 C1471 1.427 . S
N1479 C1477 1.384 . S
H1480 C1486 0.930 . S
H1481 C1490 0.930 . S
H1482 C1495 0.929 . S
H1483 C1493 0.929 . S
H1484 C1488 0.929 . S
H1485 C1494 0.929 . S
C1486 H1480 0.930 . S
C1486 C1487 1.367 . S
C1486 C1494 1.378 . S
C1487 C1486 1.367 . S
C1487 C1495 1.433 . S
C1488 H1484 0.929 . S
C1488 C1490 1.378 . S
C1488 C1492 1.350 . S
C1489 C1492 1.463 . S
C1489 C1494 1.350 . S
C1489 N1497 1.427 . S
C1490 H1481 0.930 . S
C1490 C1488 1.378 . S
C1490 C1491 1.367 . S
C1491 C1490 1.367 . S
C1491 C1493 1.433 . S
C1492 C1488 1.350 . S
C1492 C1489 1.463 . S
C1492 N1496 1.427 . S
C1493 H1483 0.929 . S
C1493 C1491 1.433 . S
C1493 N1496 1.384 . S
C1494 H1485 0.929 . S
C1494 C1486 1.378 . S
C1494 C1489 1.350 . S
C1495 H1482 0.929 . S
C1495 C1487 1.433 . S
C1495 N1497 1.384 . S
N1496 C1492 1.427 . S
N1496 C1493 1.384 . S
N1497 C1489 1.427 . S
N1497 C1495 1.384 . S
H1498 C1504 0.930 . S
H1499 C1508 0.930 . S
H1500 C1513 0.929 . S
H1501 C1511 0.929 . S
H1502 C1506 0.929 . S
H1503 C1512 0.929 . S
C1504 H1498 0.930 . S
C1504 C1505 1.367 . S
C1504 C1512 1.378 . S
C1505 C1504 1.367 . S
C1505 C1513 1.433 . S
C1506 H1502 0.929 . S
C1506 C1508 1.378 . S
C1506 C1510 1.350 . S
C1507 C1510 1.463 . S
C1507 C1512 1.350 . S
C1507 N1515 1.427 . S
C1508 H1499 0.930 . S
C1508 C1506 1.378 . S
C1508 C1509 1.367 . S
C1509 C1508 1.367 . S
C1509 C1511 1.433 . S
C1510 C1506 1.350 . S
C1510 C1507 1.463 . S
C1510 N1514 1.427 . S
C1511 H1501 0.929 . S
C1511 C1509 1.433 . S
C1511 N1514 1.384 . S
C1512 H1503 0.929 . S
C1512 C1504 1.378 . S
C1512 C1507 1.350 . S
C1513 H1500 0.929 . S
C1513 C1505 1.433 . S
C1513 N1515 1.384 . S
N1514 C1510 1.427 . S
N1514 C1511 1.384 . S
N1515 C1507 1.427 . S
N1515 C1513 1.384 . S
H1516 C1522 0.930 . S
H1517 C1526 0.930 . S
H1518 C1531 0.929 . S
H1519 C1529 0.929 . S
H1520 C1524 0.929 . S
H1521 C1530 0.929 . S
C1522 H1516 0.930 . S
C1522 C1523 1.367 . S
C1522 C1530 1.378 . S
C1523 C1522 1.367 . S
C1523 C1531 1.433 . S
C1524 H1520 0.929 . S
C1524 C1526 1.378 . S
C1524 C1528 1.350 . S
C1525 C1528 1.463 . S
C1525 C1530 1.350 . S
C1525 N1533 1.427 . S
C1526 H1517 0.930 . S
C1526 C1524 1.378 . S
C1526 C1527 1.367 . S
C1527 C1526 1.367 . S
C1527 C1529 1.433 . S
C1528 C1524 1.350 . S
C1528 C1525 1.463 . S
C1528 N1532 1.427 . S
C1529 H1519 0.929 . S
C1529 C1527 1.433 . S
C1529 N1532 1.384 . S
C1530 H1521 0.929 . S
C1530 C1522 1.378 . S
C1530 C1525 1.350 . S
C1531 H1518 0.929 . S
C1531 C1523 1.433 . S
C1531 N1533 1.384 . S
N1532 C1528 1.427 . S
N1532 C1529 1.384 . S
N1533 C1525 1.427 . S
N1533 C1531 1.384 . S
H1534 C1540 0.930 . S
H1535 C1544 0.930 . S
H1536 C1549 0.929 . S
H1537 C1547 0.929 . S
H1538 C1542 0.929 . S
H1539 C1548 0.929 . S
C1540 H1534 0.930 . S
C1540 C1541 1.367 . S
C1540 C1548 1.378 . S
C1541 C1540 1.367 . S
C1541 C1549 1.433 . S
C1542 H1538 0.929 . S
C1542 C1544 1.378 . S
C1542 C1546 1.350 . S
C1543 C1546 1.463 . S
C1543 C1548 1.350 . S
C1543 N1551 1.427 . S
C1544 H1535 0.930 . S
C1544 C1542 1.378 . S
C1544 C1545 1.367 . S
C1545 C1544 1.367 . S
C1545 C1547 1.433 . S
C1546 C1542 1.350 . S
C1546 C1543 1.463 . S
C1546 N1550 1.427 . S
C1547 H1537 0.929 . S
C1547 C1545 1.433 . S
C1547 N1550 1.384 . S
C1548 H1539 0.929 . S
C1548 C1540 1.378 . S
C1548 C1543 1.350 . S
C1549 H1536 0.929 . S
C1549 C1541 1.433 . S
C1549 N1551 1.384 . S
N1550 C1546 1.427 . S
N1550 C1547 1.384 . S
N1551 C1543 1.427 . S
N1551 C1549 1.384 . S
C551 C513 1.507 . S
C555 C17 1.612 . S
C569 C477 1.516 . S
C573 C51 1.612 . S
C587 C443 1.508 . S
C591 C85 1.619 . S
C605 C409 1.498 . S
C609 C119 1.619 . S
C623 C153 1.612 . S
C627 C375 1.517 . S
C641 C341 1.508 . S
C645 C187 1.612 . S
C659 C221 1.619 . S
C663 C307 1.498 . S
C677 C273 1.505 . S
C681 C255 1.613 . S
C695 C289 1.613 . S
C699 C241 1.517 . S
C713 C323 1.612 . S
C717 C205 1.508 . S
C731 C357 1.619 . S
C735 C173 1.508 . S
C749 C391 1.620 . S
C753 C137 1.506 . S
C767 C103 1.500 . S
C771 C425 1.620 . S
C785 C69 1.506 . S
C789 C459 1.613 . S
C803 C35 1.506 . S
C807 C493 1.620 . S
C821 C1 1.504 . S
C825 C527 1.620 . S
C839 C22 1.652 . S
C843 C226 1.657 . S
C857 C253 1.647 . S
C861 C56 1.662 . S
C875 C158 1.659 . S
C879 C90 1.650 . S
C893 C124 1.651 . S
C897 C185 1.658 . S
C911 C498 1.647 . S
C915 C294 1.663 . S
C929 C328 1.658 . S
C933 C525 1.651 . S
C947 C430 1.660 . S
C951 C362 1.649 . S
C965 C396 1.648 . S
C969 C464 1.662 . S
C983 C117 1.603 . S
C987 C15 1.592 . S
C1001 C83 1.607 . S
C1005 C49 1.590 . S
C1019 C260 1.594 . S
C1023 C151 1.605 . S
C1037 C192 1.605 . S
C1041 C219 1.593 . S
C1055 C389 1.607 . S
C1059 C287 1.590 . S
C1073 C355 1.596 . S
C1077 C321 1.602 . S
C1091 C423 1.603 . S
C1095 C532 1.596 . S
C1109 C491 1.596 . S
C1113 C457 1.598 . S
C1127 C3 1.869 . S
C1131 C71 1.874 . S
C1145 C37 1.868 . S
C1149 C105 1.860 . S
C1163 C139 1.860 . S
C1167 C207 1.869 . S
C1181 C239 1.861 . S
C1185 C171 1.865 . S
C1199 C275 1.870 . S
C1203 C343 1.874 . S
C1217 C377 1.874 . S
C1221 C309 1.863 . S
C1235 C411 1.874 . S
C1239 C479 1.868 . S
C1253 C445 1.874 . S
C1257 C511 1.863 . S
C1271 C6 1.098 . S
C1275 C470 1.106 . S
C1289 C436 1.105 . S
C1293 C40 1.084 . S
C1307 C516 1.109 . S
C1311 C74 1.096 . S
C1325 C108 1.098 . S
C1329 C504 1.109 . S
C1343 C142 1.094 . S
C1347 C334 1.103 . S
C1361 C198 1.098 . S
C1365 C300 1.108 . S
C1379 C402 1.109 . S
C1383 C210 1.098 . S
C1397 C266 1.086 . S
C1401 C368 1.107 . S
C1415 C278 1.092 . S
C1419 C176 1.109 . S
C1433 C164 1.105 . S
C1437 C312 1.097 . S
C1451 C346 1.084 . S
C1455 C244 1.104 . S
C1469 C232 1.105 . S
C1473 C380 1.084 . S
C1487 C62 1.102 . S
C1491 C414 1.089 . S
C1505 C448 1.090 . S
C1509 C28 1.102 . S
C1523 C482 1.090 . S
C1527 C130 1.108 . S
C1541 C538 1.096 . S
C1545 C96 1.104 . S
