# Generated by pormake.
# Topology uog, (4)-cn, num edge types: 1
# Building blocks:
#     Node 0, Type 0, BuildingBlock: QUQFOY_clean_sbu_3, # of connection points: 4
#     Node 1, Type 0, BuildingBlock: QUQFOY_clean_sbu_3, # of connection points: 4
#     Node 2, Type 0, BuildingBlock: QUQFOY_clean_sbu_3, # of connection points: 4
#     Node 3, Type 0, BuildingBlock: QUQFOY_clean_sbu_3, # of connection points: 4
#     Node 4, Type 0, BuildingBlock: QUQFOY_clean_sbu_3, # of connection points: 4
#     Node 5, Type 0, BuildingBlock: QUQFOY_clean_sbu_3, # of connection points: 4
#     Edge 6, Type (0, 0), BuildingBlock: CIFDUS_clean_linker_0, # of connection points: 2
#     Edge 7, Type (0, 0), BuildingBlock: CIFDUS_clean_linker_0, # of connection points: 2
#     Edge 8, Type (0, 0), BuildingBlock: CIFDUS_clean_linker_0, # of connection points: 2
#     Edge 9, Type (0, 0), BuildingBlock: CIFDUS_clean_linker_0, # of connection points: 2
#     Edge 10, Type (0, 0), BuildingBlock: CIFDUS_clean_linker_0, # of connection points: 2
#     Edge 11, Type (0, 0), BuildingBlock: CIFDUS_clean_linker_0, # of connection points: 2
#     Edge 12, Type (0, 0), BuildingBlock: CIFDUS_clean_linker_0, # of connection points: 2
#     Edge 13, Type (0, 0), BuildingBlock: CIFDUS_clean_linker_0, # of connection points: 2
#     Edge 14, Type (0, 0), BuildingBlock: CIFDUS_clean_linker_0, # of connection points: 2
#     Edge 15, Type (0, 0), BuildingBlock: CIFDUS_clean_linker_0, # of connection points: 2
#     Edge 16, Type (0, 0), BuildingBlock: CIFDUS_clean_linker_0, # of connection points: 2
#     Edge 17, Type (0, 0), BuildingBlock: CIFDUS_clean_linker_0, # of connection points: 2
# Relax obj value: 0.081
# Max RMSD: 0.176
# Mean RMSD: 0.176
data_MOF--net-uog--node1-QUQFOY_clean_sbu_3--edge1-CIFDUS_clean_linker_0
_symmetry_space_group_name_H-M    P1
_symmetry_Int_Tables_number       1
_symmetry_cell_setting            triclinic
loop_
_symmetry_equiv_pos_as_xyz
'x, y, z'
_cell_length_a     25.586055
_cell_length_b     25.589922
_cell_length_c     38.647029
_cell_angle_alpha  90.266647
_cell_angle_beta   90.078546
_cell_angle_gamma 120.60283
loop_
_atom_site_label
_atom_site_type_symbol
_atom_site_fract_x
_atom_site_fract_y
_atom_site_fract_z
_atom_type_partial_charge
C0 C 0.7343 0.37829 0.20393 0.0
O1 O 0.77007 0.42641 0.18773 0.0
Cd2 Cd 0.73249 0.44834 0.13582 0.0
O3 O 0.68368 0.33992 0.19051 0.0
Cd4 Cd 0.62504 0.31974 0.13754 0.0
C5 C 0.59479 0.42485 0.16428 0.0
O6 O 0.69766 0.37267 0.09048 0.0
O7 O 0.60475 0.35189 0.08389 0.0
O8 O 0.621 0.22362 0.13153 0.0
C9 C 0.65671 0.37077 0.0708 0.0
O10 O 0.64886 0.46184 0.15449 0.0
C11 C 0.56356 0.19098 0.13267 0.0
O12 O 0.57368 0.36782 0.16319 0.0
O13 O 0.53409 0.21847 0.13581 0.0
C14 C 0.34961 0.71347 0.53136 0.0
O15 O 0.335 0.74462 0.51262 0.0
Cd16 Cd 0.26933 0.69564 0.46356 0.0
O17 O 0.33662 0.66076 0.52158 0.0
Cd18 Cd 0.2932 0.59035 0.47304 0.0
C19 C 0.15969 0.56346 0.50186 0.0
O20 O 0.30446 0.65106 0.42141 0.0
O21 O 0.23375 0.556 0.42133 0.0
O22 O 0.38611 0.58778 0.46709 0.0
C23 C 0.26314 0.60536 0.40489 0.0
O24 O 0.17536 0.6148 0.48848 0.0
C25 C 0.3617 0.53107 0.47197 0.0
O26 O 0.19591 0.54311 0.50206 0.0
O27 O 0.30479 0.50153 0.4774 0.0
C28 C 0.62462 0.37031 0.86861 0.0
O29 O 0.57719 0.35607 0.85109 0.0
Cd30 Cd 0.55972 0.29944 0.79804 0.0
O31 O 0.6658 0.36231 0.85598 0.0
Cd32 Cd 0.6946 0.33154 0.80315 0.0
C33 C 0.59146 0.19008 0.82587 0.0
O34 O 0.63887 0.34558 0.75575 0.0
O35 O 0.66855 0.28048 0.74859 0.0
O36 O 0.78479 0.43126 0.7993 0.0
C37 C 0.64385 0.30837 0.73599 0.0
O38 O 0.55338 0.20502 0.81582 0.0
C39 C 0.8227 0.41331 0.80115 0.0
O40 O 0.64828 0.22877 0.82624 0.0
O41 O 0.80102 0.35635 0.80379 0.0
C42 C 0.28154 0.6503 0.20357 0.0
O43 O 0.24617 0.60186 0.18713 0.0
Cd44 Cd 0.28174 0.57973 0.13452 0.0
O45 O 0.33161 0.68941 0.19026 0.0
Cd46 Cd 0.38874 0.70881 0.1369 0.0
C47 C 0.41977 0.60393 0.16288 0.0
O48 O 0.31533 0.65536 0.0898 0.0
O49 O 0.40815 0.67621 0.08296 0.0
O50 O 0.39253 0.80477 0.1314 0.0
C51 C 0.35597 0.65723 0.06995 0.0
O52 O 0.36575 0.56667 0.15282 0.0
C53 C 0.45 0.83744 0.13238 0.0
O54 O 0.44058 0.66092 0.16213 0.0
O55 O 0.47957 0.81003 0.13523 0.0
C56 C 0.61866 0.24999 0.5365 0.0
O57 O 0.62943 0.21407 0.51945 0.0
Cd58 Cd 0.69052 0.25427 0.46819 0.0
O59 O 0.63201 0.30088 0.52377 0.0
Cd60 Cd 0.6701 0.36094 0.47161 0.0
C61 C 0.80464 0.39108 0.5004 0.0
O62 O 0.65159 0.29059 0.4232 0.0
O63 O 0.72528 0.38395 0.41873 0.0
O64 O 0.57715 0.36358 0.46707 0.0
C65 C 0.69215 0.33253 0.40453 0.0
O66 O 0.78758 0.3376 0.48957 0.0
C67 C 0.60248 0.421 0.46842 0.0
O68 O 0.76897 0.41201 0.49898 0.0
O69 O 0.66008 0.45107 0.47084 0.0
C70 C 0.38459 0.65322 0.86751 0.0
O71 O 0.4315 0.66628 0.84996 0.0
Cd72 Cd 0.44696 0.72001 0.79645 0.0
O73 O 0.3433 0.66086 0.85467 0.0
Cd74 Cd 0.31381 0.6891 0.80117 0.0
C75 C 0.41726 0.83138 0.82311 0.0
O76 O 0.36675 0.66932 0.75451 0.0
O77 O 0.33839 0.73479 0.74512 0.0
O78 O 0.22325 0.58942 0.79974 0.0
C79 C 0.36076 0.70402 0.73342 0.0
O80 O 0.45515 0.81599 0.81339 0.0
C81 C 0.18553 0.60768 0.80038 0.0
O82 O 0.36045 0.79282 0.82331 0.0
O83 O 0.20744 0.66487 0.80123 0.0
H84 H 0.6166 0.12245 0.13064 0.0
H85 H 0.44159 0.10938 0.13154 0.0
H86 H 0.39115 0.99865 0.13063 0.0
H87 H 0.39688 0.90592 0.13081 0.0
H88 H 0.57192 0.91902 0.13099 0.0
H89 H 0.62233 0.02972 0.13018 0.0
C90 C 0.5674 0.09542 0.13051 0.0
C91 C 0.53288 0.12408 0.13117 0.0
C92 C 0.53878 0.03191 0.13024 0.0
C93 C 0.4692 0.08841 0.13107 0.0
C94 C 0.44034 0.02513 0.13057 0.0
C95 C 0.44608 0.93295 0.13055 0.0
C96 C 0.48063 0.90431 0.13098 0.0
C97 C 0.4747 0.99645 0.13033 0.0
C98 C 0.5443 0.93998 0.13071 0.0
C99 C 0.57314 0.00325 0.13025 0.0
H100 H 0.48415 0.58514 0.46693 0.0
H101 H 0.32086 0.40977 0.4758 0.0
H102 H 0.38115 0.36035 0.47478 0.0
H103 H 0.48001 0.36703 0.47177 0.0
H104 H 0.64357 0.54243 0.46418 0.0
H105 H 0.5832 0.59185 0.46423 0.0
C106 C 0.46171 0.53608 0.46859 0.0
C107 C 0.39812 0.50116 0.47139 0.0
C108 C 0.49664 0.50804 0.4682 0.0
C109 C 0.36976 0.43769 0.47366 0.0
C110 C 0.40418 0.4094 0.47305 0.0
C111 C 0.50249 0.41607 0.47001 0.0
C112 C 0.56616 0.45102 0.46789 0.0
C113 C 0.46761 0.44414 0.47036 0.0
C114 C 0.59461 0.51452 0.46584 0.0
C115 C 0.56014 0.54279 0.46587 0.0
H116 H 0.9146 0.38885 0.80203 0.0
H117 H 0.87937 0.53676 0.7989 0.0
H118 H 0.98815 0.60994 0.79837 0.0
H119 H 0.09364 0.63227 0.79903 0.0
H120 H 0.12875 0.48424 0.80173 0.0
H121 H 0.01999 0.41113 0.80217 0.0
C122 C 0.93073 0.43708 0.80122 0.0
C123 C 0.88886 0.4572 0.80053 0.0
C124 C 0.99346 0.47906 0.80085 0.0
C125 C 0.91056 0.51992 0.79942 0.0
C126 C 0.97283 0.56191 0.79914 0.0
C127 C 0.07748 0.58402 0.79971 0.0
C128 C 0.11933 0.56387 0.80037 0.0
C129 C 0.01473 0.54204 0.79988 0.0
C130 C 0.09758 0.50112 0.80118 0.0
C131 C 0.03533 0.45916 0.80146 0.0
H132 H 0.07623 0.59688 0.5133 0.0
H133 H 0.10017 0.44162 0.51487 0.0
H134 H 0.99063 0.37393 0.5198 0.0
H135 H 0.8883 0.35855 0.51405 0.0
H136 H 0.86459 0.51392 0.51057 0.0
H137 H 0.97394 0.58185 0.51649 0.0
C138 C 0.0576 0.5483 0.51534 0.0
C139 C 0.09611 0.52423 0.5129 0.0
C140 C 0.99461 0.50962 0.51742 0.0
C141 C 0.07146 0.46131 0.51634 0.0
C142 C 0.00877 0.42252 0.51894 0.0
C143 C 0.90693 0.40725 0.51515 0.0
C144 C 0.86852 0.43116 0.51104 0.0
C145 C 0.96989 0.44609 0.51796 0.0
C146 C 0.8932 0.4943 0.51326 0.0
C147 C 0.95578 0.53324 0.51651 0.0
H148 H 0.53437 0.92114 0.83286 0.0
H149 H 0.35071 0.88685 0.83199 0.0
H150 H 0.38906 0.9956 0.83699 0.0
H151 H 0.47449 0.10023 0.83479 0.0
H152 H 0.65819 0.13466 0.83422 0.0
H153 H 0.61983 0.02574 0.83714 0.0
C154 C 0.50261 0.93731 0.83415 0.0
C155 C 0.43976 0.89593 0.83145 0.0
C156 C 0.52495 0.99989 0.83658 0.0
C157 C 0.3993 0.91766 0.83376 0.0
C158 C 0.4212 0.97989 0.83649 0.0
C159 C 0.50626 0.08405 0.83575 0.0
C160 C 0.56912 0.12555 0.8337 0.0
C161 C 0.48393 0.02142 0.83686 0.0
C162 C 0.60959 0.10377 0.83554 0.0
C163 C 0.58768 0.04145 0.83703 0.0
H164 H 0.38791 0.48665 0.17369 0.0
H165 H 0.54276 0.66902 0.17271 0.0
H166 H 0.61102 0.62909 0.17776 0.0
H167 H 0.62675 0.54248 0.17455 0.0
H168 H 0.47189 0.36008 0.17393 0.0
H169 H 0.40364 0.40017 0.17794 0.0
C170 C 0.43656 0.51777 0.17505 0.0
C171 C 0.46022 0.58064 0.17212 0.0
C172 C 0.47558 0.49453 0.17741 0.0
C173 C 0.52332 0.62036 0.17458 0.0
C174 C 0.56244 0.59758 0.17733 0.0
C175 C 0.57811 0.51141 0.1758 0.0
C176 C 0.55445 0.44843 0.17325 0.0
C177 C 0.53909 0.53472 0.17752 0.0
C178 C 0.49135 0.4088 0.17552 0.0
C179 C 0.45223 0.43168 0.17767 0.0
H180 H 0.7181 0.39928 0.91274 0.0
H181 H 0.53984 0.37868 0.90765 0.0
H182 H 0.53788 0.38454 0.97066 0.0
H183 H 0.58032 0.38081 0.02671 0.0
H184 H 0.75599 0.39571 0.03187 0.0
H185 H 0.76554 0.40709 0.969 0.0
C186 C 0.67916 0.39711 0.9253 0.0
C187 C 0.62867 0.38741 0.90551 0.0
C188 C 0.67754 0.39859 0.96149 0.0
C189 C 0.57907 0.3856 0.92224 0.0
C190 C 0.57775 0.38857 0.95829 0.0
C191 C 0.62106 0.38722 0.01415 0.0
C192 C 0.66693 0.38627 0.03378 0.0
C193 C 0.62567 0.3926 -0.02189 0.0
C194 C 0.71983 0.39568 0.01725 0.0
C195 C 0.72522 0.40207 -0.01866 0.0
H196 H 0.20129 0.56279 0.2466 0.0
H197 H 0.33982 0.7525 0.2436 0.0
H198 H 0.34232 0.75709 0.30667 0.0
H199 H 0.31618 0.70337 0.36226 0.0
H200 H 0.18027 0.51265 0.3646 0.0
H201 H 0.16584 0.51248 0.30236 0.0
C202 C 0.23086 0.60555 0.2597 0.0
C203 C 0.27098 0.65688 0.24046 0.0
C204 C 0.23356 0.60744 0.29594 0.0
C205 C 0.30892 0.71204 0.25786 0.0
C206 C 0.31072 0.71466 0.29394 0.0
C207 C 0.28295 0.66201 0.34917 0.0
C208 C 0.25032 0.60794 0.36791 0.0
C209 C 0.27518 0.66197 0.31321 0.0
C210 C 0.20672 0.55481 0.3507 0.0
C211 C 0.19827 0.5546 0.31508 0.0
H212 H 0.62615 0.21495 0.69508 0.0
H213 H 0.61252 0.37627 0.69604 0.0
H214 H 0.59094 0.36466 0.63386 0.0
H215 H 0.59127 0.31746 0.5787 0.0
H216 H 0.61056 0.15929 0.57765 0.0
H217 H 0.61248 0.15967 0.6408 0.0
C218 C 0.61782 0.24725 0.68176 0.0
C219 C 0.6223 0.29723 0.69985 0.0
C220 C 0.60632 0.24071 0.64612 0.0
C221 C 0.61002 0.33788 0.68251 0.0
C222 C 0.59775 0.33126 0.64701 0.0
C223 C 0.5946 0.28222 0.59224 0.0
C224 C 0.60217 0.23921 0.57347 0.0
C225 C 0.59798 0.2841 0.62842 0.0
C226 C 0.60523 0.19324 0.59143 0.0
C227 C 0.60692 0.19378 0.62755 0.0
H228 H 0.29243 0.62724 0.9118 0.0
H229 H 0.46942 0.64494 0.90661 0.0
H230 H 0.47233 0.64036 0.96961 0.0
H231 H 0.43105 0.64554 0.02571 0.0
H232 H 0.25654 0.6331 0.03105 0.0
H233 H 0.24607 0.62104 0.96814 0.0
C234 C 0.3313 0.6291 0.92435 0.0
C235 C 0.38116 0.63753 0.90453 0.0
C236 C 0.33344 0.62822 0.96054 0.0
C237 C 0.43069 0.63898 0.92123 0.0
C238 C 0.43254 0.63673 0.95727 0.0
C239 C 0.39037 0.63954 0.01318 0.0
C240 C 0.3451 0.64135 0.03287 0.0
C241 C 0.38522 0.63372 0.97713 0.0
C242 C 0.29224 0.63244 0.01638 0.0
C243 C 0.28633 0.62569 -0.01956 0.0
H244 H 0.78354 0.40987 0.36296 0.0
H245 H 0.61677 0.23631 0.36288 0.0
H246 H 0.62146 0.2307 0.29984 0.0
H247 H 0.66517 0.28173 0.24503 0.0
H248 H 0.82889 0.45807 0.24527 0.0
H249 H 0.83398 0.45517 0.30826 0.0
C250 C 0.74853 0.37042 0.34921 0.0
C251 C 0.69917 0.32411 0.36741 0.0
C252 C 0.75097 0.3681 0.31309 0.0
C253 C 0.65485 0.2728 0.34937 0.0
C254 C 0.65747 0.26967 0.31336 0.0
C255 C 0.70267 0.31914 0.25874 0.0
C256 C 0.74594 0.37064 0.2405 0.0
C257 C 0.70419 0.31805 0.29495 0.0
C258 C 0.79469 0.41816 0.25867 0.0
C259 C 0.79739 0.41672 0.29471 0.0
H260 H 0.36872 0.78623 0.68685 0.0
H261 H 0.38746 0.62864 0.69711 0.0
H262 H 0.39733 0.62495 0.63434 0.0
H263 H 0.38545 0.65743 0.57688 0.0
H264 H 0.36143 0.81197 0.56674 0.0
H265 H 0.37072 0.82706 0.62935 0.0
C266 C 0.3757 0.75148 0.6754 0.0
C267 C 0.37601 0.70692 0.69643 0.0
C268 C 0.38038 0.74914 0.63939 0.0
C269 C 0.38636 0.66299 0.68137 0.0
C270 C 0.3919 0.66083 0.64552 0.0
C271 C 0.38346 0.69522 0.58824 0.0
C272 C 0.3714 0.73271 0.56721 0.0
C273 C 0.38676 0.70235 0.62427 0.0
C274 C 0.37009 0.78208 0.58232 0.0
C275 C 0.3749 0.79043 0.61816 0.0
loop_
_geom_bond_atom_site_label_1
_geom_bond_atom_site_label_2
_geom_bond_distance
_geom_bond_site_symmetry_2
_ccdc_geom_bond_type
C0 O1 1.306 . S
C0 O3 1.160 . S
O1 C0 1.306 . S
O1 Cd2 2.228 . S
Cd2 O1 2.228 . S
Cd2 O6 2.273 . S
Cd2 O10 2.277 . S
O3 C0 1.160 . S
O3 Cd4 2.203 . S
Cd4 O3 2.203 . S
Cd4 O6 2.411 . S
Cd4 O7 2.333 . S
Cd4 O8 2.352 . S
Cd4 O12 2.277 . S
Cd4 O13 2.356 . S
C5 O10 1.209 . S
C5 O12 1.226 . S
O6 Cd2 2.273 . S
O6 Cd4 2.411 . S
O6 C9 1.320 . S
O7 Cd4 2.333 . S
O7 C9 1.214 . S
O8 Cd4 2.352 . S
O8 C11 1.258 . S
C9 O6 1.320 . S
C9 O7 1.214 . S
O10 Cd2 2.277 . S
O10 C5 1.209 . S
C11 O8 1.258 . S
C11 O13 1.282 . S
O12 Cd4 2.277 . S
O12 C5 1.226 . S
O13 Cd4 2.356 . S
O13 C11 1.282 . S
C14 O15 1.306 . S
C14 O17 1.160 . S
O15 C14 1.306 . S
O15 Cd16 2.228 . S
Cd16 O15 2.228 . S
Cd16 O20 2.273 . S
Cd16 O24 2.277 . S
O17 C14 1.160 . S
O17 Cd18 2.203 . S
Cd18 O17 2.203 . S
Cd18 O20 2.411 . S
Cd18 O21 2.333 . S
Cd18 O22 2.352 . S
Cd18 O26 2.277 . S
Cd18 O27 2.356 . S
C19 O24 1.209 . S
C19 O26 1.226 . S
O20 Cd16 2.273 . S
O20 Cd18 2.411 . S
O20 C23 1.320 . S
O21 Cd18 2.333 . S
O21 C23 1.214 . S
O22 Cd18 2.352 . S
O22 C25 1.258 . S
C23 O20 1.320 . S
C23 O21 1.214 . S
O24 Cd16 2.277 . S
O24 C19 1.209 . S
C25 O22 1.258 . S
C25 O27 1.282 . S
O26 Cd18 2.277 . S
O26 C19 1.226 . S
O27 Cd18 2.356 . S
O27 C25 1.282 . S
C28 O29 1.306 . S
C28 O31 1.160 . S
O29 C28 1.306 . S
O29 Cd30 2.228 . S
Cd30 O29 2.228 . S
Cd30 O34 2.273 . S
Cd30 O38 2.277 . S
O31 C28 1.160 . S
O31 Cd32 2.203 . S
Cd32 O31 2.203 . S
Cd32 O34 2.411 . S
Cd32 O35 2.333 . S
Cd32 O36 2.352 . S
Cd32 O40 2.277 . S
Cd32 O41 2.356 . S
C33 O38 1.209 . S
C33 O40 1.226 . S
O34 Cd30 2.273 . S
O34 Cd32 2.411 . S
O34 C37 1.320 . S
O35 Cd32 2.333 . S
O35 C37 1.214 . S
O36 Cd32 2.352 . S
O36 C39 1.258 . S
C37 O34 1.320 . S
C37 O35 1.214 . S
O38 Cd30 2.277 . S
O38 C33 1.209 . S
C39 O36 1.258 . S
C39 O41 1.282 . S
O40 Cd32 2.277 . S
O40 C33 1.226 . S
O41 Cd32 2.356 . S
O41 C39 1.282 . S
C42 O43 1.306 . S
C42 O45 1.160 . S
O43 C42 1.306 . S
O43 Cd44 2.228 . S
Cd44 O43 2.228 . S
Cd44 O48 2.273 . S
Cd44 O52 2.277 . S
O45 C42 1.160 . S
O45 Cd46 2.203 . S
Cd46 O45 2.203 . S
Cd46 O48 2.411 . S
Cd46 O49 2.333 . S
Cd46 O50 2.352 . S
Cd46 O54 2.277 . S
Cd46 O55 2.356 . S
C47 O52 1.209 . S
C47 O54 1.226 . S
O48 Cd44 2.273 . S
O48 Cd46 2.411 . S
O48 C51 1.320 . S
O49 Cd46 2.333 . S
O49 C51 1.214 . S
O50 Cd46 2.352 . S
O50 C53 1.258 . S
C51 O48 1.320 . S
C51 O49 1.214 . S
O52 Cd44 2.277 . S
O52 C47 1.209 . S
C53 O50 1.258 . S
C53 O55 1.282 . S
O54 Cd46 2.277 . S
O54 C47 1.226 . S
O55 Cd46 2.356 . S
O55 C53 1.282 . S
C56 O57 1.306 . S
C56 O59 1.160 . S
O57 C56 1.306 . S
O57 Cd58 2.228 . S
Cd58 O57 2.228 . S
Cd58 O62 2.273 . S
Cd58 O66 2.277 . S
O59 C56 1.160 . S
O59 Cd60 2.203 . S
Cd60 O59 2.203 . S
Cd60 O62 2.411 . S
Cd60 O63 2.333 . S
Cd60 O64 2.352 . S
Cd60 O68 2.277 . S
Cd60 O69 2.356 . S
C61 O66 1.209 . S
C61 O68 1.226 . S
O62 Cd58 2.273 . S
O62 Cd60 2.411 . S
O62 C65 1.320 . S
O63 Cd60 2.333 . S
O63 C65 1.214 . S
O64 Cd60 2.352 . S
O64 C67 1.258 . S
C65 O62 1.320 . S
C65 O63 1.214 . S
O66 Cd58 2.277 . S
O66 C61 1.209 . S
C67 O64 1.258 . S
C67 O69 1.282 . S
O68 Cd60 2.277 . S
O68 C61 1.226 . S
O69 Cd60 2.356 . S
O69 C67 1.282 . S
C70 O71 1.306 . S
C70 O73 1.160 . S
O71 C70 1.306 . S
O71 Cd72 2.228 . S
Cd72 O71 2.228 . S
Cd72 O76 2.273 . S
Cd72 O80 2.277 . S
O73 C70 1.160 . S
O73 Cd74 2.203 . S
Cd74 O73 2.203 . S
Cd74 O76 2.411 . S
Cd74 O77 2.333 . S
Cd74 O78 2.352 . S
Cd74 O82 2.277 . S
Cd74 O83 2.356 . S
C75 O80 1.209 . S
C75 O82 1.226 . S
O76 Cd72 2.273 . S
O76 Cd74 2.411 . S
O76 C79 1.320 . S
O77 Cd74 2.333 . S
O77 C79 1.214 . S
O78 Cd74 2.352 . S
O78 C81 1.258 . S
C79 O76 1.320 . S
C79 O77 1.214 . S
O80 Cd72 2.277 . S
O80 C75 1.209 . S
C81 O78 1.258 . S
C81 O83 1.282 . S
O82 Cd74 2.277 . S
O82 C75 1.226 . S
O83 Cd74 2.356 . S
O83 C81 1.282 . S
H84 C90 0.930 . S
H85 C93 0.930 . S
H86 C94 0.930 1_565 S
H87 C95 0.930 . S
H88 C98 0.930 . S
H89 C99 0.930 1_545 S
C90 H84 0.930 . S
C90 C91 1.355 . S
C90 C92 1.415 . S
C91 C90 1.355 . S
C91 C93 1.419 . S
C92 C90 1.415 . S
C92 C97 1.425 1_545 S
C92 C99 1.409 1_545 S
C93 H85 0.930 . S
C93 C91 1.419 . S
C93 C94 1.362 . S
C94 H86 0.930 1_545 S
C94 C93 1.362 . S
C94 C97 1.409 1_545 S
C95 H87 0.930 . S
C95 C96 1.355 . S
C95 C97 1.415 . S
C96 C95 1.355 . S
C96 C98 1.419 . S
C97 C92 1.425 1_565 S
C97 C94 1.409 1_565 S
C97 C95 1.415 . S
C98 H88 0.930 . S
C98 C96 1.419 . S
C98 C99 1.362 . S
C99 H89 0.930 1_565 S
C99 C92 1.409 1_565 S
C99 C98 1.362 . S
H100 C106 0.930 . S
H101 C109 0.930 . S
H102 C110 0.930 . S
H103 C111 0.930 . S
H104 C114 0.930 . S
H105 C115 0.930 . S
C106 H100 0.930 . S
C106 C107 1.355 . S
C106 C108 1.415 . S
C107 C106 1.355 . S
C107 C109 1.419 . S
C108 C106 1.415 . S
C108 C113 1.425 . S
C108 C115 1.409 . S
C109 H101 0.930 . S
C109 C107 1.419 . S
C109 C110 1.362 . S
C110 H102 0.930 . S
C110 C109 1.362 . S
C110 C113 1.409 . S
C111 H103 0.930 . S
C111 C112 1.355 . S
C111 C113 1.415 . S
C112 C111 1.355 . S
C112 C114 1.419 . S
C113 C108 1.425 . S
C113 C110 1.409 . S
C113 C111 1.415 . S
C114 H104 0.930 . S
C114 C112 1.419 . S
C114 C115 1.362 . S
C115 H105 0.930 . S
C115 C108 1.409 . S
C115 C114 1.362 . S
H116 C122 0.930 . S
H117 C125 0.930 . S
H118 C126 0.930 . S
H119 C127 0.930 . S
H120 C130 0.930 . S
H121 C131 0.930 . S
C122 H116 0.930 . S
C122 C123 1.355 . S
C122 C124 1.415 . S
C123 C122 1.355 . S
C123 C125 1.419 . S
C124 C122 1.415 . S
C124 C129 1.425 1_655 S
C124 C131 1.409 1_655 S
C125 H117 0.930 . S
C125 C123 1.419 . S
C125 C126 1.362 . S
C126 H118 0.930 . S
C126 C125 1.362 . S
C126 C129 1.409 1_655 S
C127 H119 0.930 . S
C127 C128 1.355 . S
C127 C129 1.415 . S
C128 C127 1.355 . S
C128 C130 1.419 . S
C129 C124 1.425 1_455 S
C129 C126 1.409 1_455 S
C129 C127 1.415 . S
C130 H120 0.930 . S
C130 C128 1.419 . S
C130 C131 1.362 . S
C131 H121 0.930 . S
C131 C124 1.409 1_455 S
C131 C130 1.362 . S
H132 C138 0.930 . S
H133 C141 0.930 . S
H134 C142 0.930 . S
H135 C143 0.930 . S
H136 C146 0.930 . S
H137 C147 0.930 . S
C138 H132 0.930 . S
C138 C139 1.355 . S
C138 C140 1.415 . S
C139 C138 1.355 . S
C139 C141 1.419 . S
C140 C138 1.415 . S
C140 C145 1.425 1_455 S
C140 C147 1.409 1_455 S
C141 H133 0.930 . S
C141 C139 1.419 . S
C141 C142 1.362 . S
C142 H134 0.930 . S
C142 C141 1.362 . S
C142 C145 1.409 1_455 S
C143 H135 0.930 . S
C143 C144 1.355 . S
C143 C145 1.415 . S
C144 C143 1.355 . S
C144 C146 1.419 . S
C145 C140 1.425 1_655 S
C145 C142 1.409 1_655 S
C145 C143 1.415 . S
C146 H136 0.930 . S
C146 C144 1.419 . S
C146 C147 1.362 . S
C147 H137 0.930 . S
C147 C140 1.409 1_655 S
C147 C146 1.362 . S
H148 C154 0.930 . S
H149 C157 0.930 . S
H150 C158 0.930 . S
H151 C159 0.930 . S
H152 C162 0.930 . S
H153 C163 0.930 . S
C154 H148 0.930 . S
C154 C155 1.355 . S
C154 C156 1.415 . S
C155 C154 1.355 . S
C155 C157 1.419 . S
C156 C154 1.415 . S
C156 C161 1.425 1_565 S
C156 C163 1.409 1_565 S
C157 H149 0.930 . S
C157 C155 1.419 . S
C157 C158 1.362 . S
C158 H150 0.930 . S
C158 C157 1.362 . S
C158 C161 1.409 1_565 S
C159 H151 0.930 . S
C159 C160 1.355 . S
C159 C161 1.415 . S
C160 C159 1.355 . S
C160 C162 1.419 . S
C161 C156 1.425 1_545 S
C161 C158 1.409 1_545 S
C161 C159 1.415 . S
C162 H152 0.930 . S
C162 C160 1.419 . S
C162 C163 1.362 . S
C163 H153 0.930 . S
C163 C156 1.409 1_545 S
C163 C162 1.362 . S
H164 C170 0.930 . S
H165 C173 0.930 . S
H166 C174 0.930 . S
H167 C175 0.930 . S
H168 C178 0.930 . S
H169 C179 0.930 . S
C170 H164 0.930 . S
C170 C171 1.355 . S
C170 C172 1.415 . S
C171 C170 1.355 . S
C171 C173 1.419 . S
C172 C170 1.415 . S
C172 C177 1.425 . S
C172 C179 1.409 . S
C173 H165 0.930 . S
C173 C171 1.419 . S
C173 C174 1.362 . S
C174 H166 0.930 . S
C174 C173 1.362 . S
C174 C177 1.409 . S
C175 H167 0.930 . S
C175 C176 1.355 . S
C175 C177 1.415 . S
C176 C175 1.355 . S
C176 C178 1.419 . S
C177 C172 1.425 . S
C177 C174 1.409 . S
C177 C175 1.415 . S
C178 H168 0.930 . S
C178 C176 1.419 . S
C178 C179 1.362 . S
C179 H169 0.930 . S
C179 C172 1.409 . S
C179 C178 1.362 . S
H180 C186 0.930 . S
H181 C189 0.930 . S
H182 C190 0.930 . S
H183 C191 0.930 . S
H184 C194 0.930 . S
H185 C195 0.930 . S
C186 H180 0.930 . S
C186 C187 1.355 . S
C186 C188 1.415 . S
C187 C186 1.355 . S
C187 C189 1.419 . S
C188 C186 1.415 . S
C188 C193 1.425 1_556 S
C188 C195 1.409 1_556 S
C189 H181 0.930 . S
C189 C187 1.419 . S
C189 C190 1.362 . S
C190 H182 0.930 . S
C190 C189 1.362 . S
C190 C193 1.409 1_556 S
C191 H183 0.930 . S
C191 C192 1.355 . S
C191 C193 1.415 . S
C192 C191 1.355 . S
C192 C194 1.419 . S
C193 C188 1.425 1_554 S
C193 C190 1.409 1_554 S
C193 C191 1.415 . S
C194 H184 0.930 . S
C194 C192 1.419 . S
C194 C195 1.362 . S
C195 H185 0.930 . S
C195 C188 1.409 1_554 S
C195 C194 1.362 . S
H196 C202 0.930 . S
H197 C205 0.930 . S
H198 C206 0.930 . S
H199 C207 0.930 . S
H200 C210 0.930 . S
H201 C211 0.930 . S
C202 H196 0.930 . S
C202 C203 1.355 . S
C202 C204 1.415 . S
C203 C202 1.355 . S
C203 C205 1.419 . S
C204 C202 1.415 . S
C204 C209 1.425 . S
C204 C211 1.409 . S
C205 H197 0.930 . S
C205 C203 1.419 . S
C205 C206 1.362 . S
C206 H198 0.930 . S
C206 C205 1.362 . S
C206 C209 1.409 . S
C207 H199 0.930 . S
C207 C208 1.355 . S
C207 C209 1.415 . S
C208 C207 1.355 . S
C208 C210 1.419 . S
C209 C204 1.425 . S
C209 C206 1.409 . S
C209 C207 1.415 . S
C210 H200 0.930 . S
C210 C208 1.419 . S
C210 C211 1.362 . S
C211 H201 0.930 . S
C211 C204 1.409 . S
C211 C210 1.362 . S
H212 C218 0.930 . S
H213 C221 0.930 . S
H214 C222 0.930 . S
H215 C223 0.930 . S
H216 C226 0.930 . S
H217 C227 0.930 . S
C218 H212 0.930 . S
C218 C219 1.355 . S
C218 C220 1.415 . S
C219 C218 1.355 . S
C219 C221 1.419 . S
C220 C218 1.415 . S
C220 C225 1.425 . S
C220 C227 1.409 . S
C221 H213 0.930 . S
C221 C219 1.419 . S
C221 C222 1.362 . S
C222 H214 0.930 . S
C222 C221 1.362 . S
C222 C225 1.409 . S
C223 H215 0.930 . S
C223 C224 1.355 . S
C223 C225 1.415 . S
C224 C223 1.355 . S
C224 C226 1.419 . S
C225 C220 1.425 . S
C225 C222 1.409 . S
C225 C223 1.415 . S
C226 H216 0.930 . S
C226 C224 1.419 . S
C226 C227 1.362 . S
C227 H217 0.930 . S
C227 C220 1.409 . S
C227 C226 1.362 . S
H228 C234 0.930 . S
H229 C237 0.930 . S
H230 C238 0.930 . S
H231 C239 0.930 . S
H232 C242 0.930 . S
H233 C243 0.930 . S
C234 H228 0.930 . S
C234 C235 1.355 . S
C234 C236 1.415 . S
C235 C234 1.355 . S
C235 C237 1.419 . S
C236 C234 1.415 . S
C236 C241 1.425 1_556 S
C236 C243 1.409 1_556 S
C237 H229 0.930 . S
C237 C235 1.419 . S
C237 C238 1.362 . S
C238 H230 0.930 . S
C238 C237 1.362 . S
C238 C241 1.409 1_556 S
C239 H231 0.930 . S
C239 C240 1.355 . S
C239 C241 1.415 . S
C240 C239 1.355 . S
C240 C242 1.419 . S
C241 C236 1.425 1_554 S
C241 C238 1.409 1_554 S
C241 C239 1.415 . S
C242 H232 0.930 . S
C242 C240 1.419 . S
C242 C243 1.362 . S
C243 H233 0.930 . S
C243 C236 1.409 1_554 S
C243 C242 1.362 . S
H244 C250 0.930 . S
H245 C253 0.930 . S
H246 C254 0.930 . S
H247 C255 0.930 . S
H248 C258 0.930 . S
H249 C259 0.930 . S
C250 H244 0.930 . S
C250 C251 1.355 . S
C250 C252 1.415 . S
C251 C250 1.355 . S
C251 C253 1.419 . S
C252 C250 1.415 . S
C252 C257 1.425 . S
C252 C259 1.409 . S
C253 H245 0.930 . S
C253 C251 1.419 . S
C253 C254 1.362 . S
C254 H246 0.930 . S
C254 C253 1.362 . S
C254 C257 1.409 . S
C255 H247 0.930 . S
C255 C256 1.355 . S
C255 C257 1.415 . S
C256 C255 1.355 . S
C256 C258 1.419 . S
C257 C252 1.425 . S
C257 C254 1.409 . S
C257 C255 1.415 . S
C258 H248 0.930 . S
C258 C256 1.419 . S
C258 C259 1.362 . S
C259 H249 0.930 . S
C259 C252 1.409 . S
C259 C258 1.362 . S
H260 C266 0.930 . S
H261 C269 0.930 . S
H262 C270 0.930 . S
H263 C271 0.930 . S
H264 C274 0.930 . S
H265 C275 0.930 . S
C266 H260 0.930 . S
C266 C267 1.355 . S
C266 C268 1.415 . S
C267 C266 1.355 . S
C267 C269 1.419 . S
C268 C266 1.415 . S
C268 C273 1.425 . S
C268 C275 1.409 . S
C269 H261 0.930 . S
C269 C267 1.419 . S
C269 C270 1.362 . S
C270 H262 0.930 . S
C270 C269 1.362 . S
C270 C273 1.409 . S
C271 H263 0.930 . S
C271 C272 1.355 . S
C271 C273 1.415 . S
C272 C271 1.355 . S
C272 C274 1.419 . S
C273 C268 1.425 . S
C273 C270 1.409 . S
C273 C271 1.415 . S
C274 H264 0.930 . S
C274 C272 1.419 . S
C274 C275 1.362 . S
C275 H265 0.930 . S
C275 C268 1.409 . S
C275 C274 1.362 . S
C91 C11 1.372 . S
C96 C53 1.371 . S
C107 C25 1.370 . S
C112 C67 1.373 . S
C123 C39 1.369 . S
C128 C81 1.364 . S
C139 C19 1.544 . S
C144 C61 1.540 . S
C155 C75 1.547 . S
C160 C33 1.545 . S
C171 C47 1.539 . S
C176 C5 1.542 . S
C187 C28 1.358 . S
C192 C9 1.346 . S
C203 C42 1.319 . S
C208 C23 1.254 . S
C219 C37 1.328 . S
C224 C56 1.373 . S
C235 C70 1.320 . S
C240 C51 1.312 . S
C251 C65 1.340 . S
C256 C0 1.368 . S
C267 C79 1.274 . S
C272 C14 1.362 . S
