# Generated by pormake.
# Topology uny, (4)-cn, num edge types: 1
# Building blocks:
#     Node 0, Type 0, BuildingBlock: CEKHIL_clean_sbu_0, # of connection points: 4
#     Node 1, Type 0, BuildingBlock: CEKHIL_clean_sbu_0, # of connection points: 4
#     Node 2, Type 0, BuildingBlock: CEKHIL_clean_sbu_0, # of connection points: 4
#     Node 3, Type 0, BuildingBlock: CEKHIL_clean_sbu_0, # of connection points: 4
#     Node 4, Type 0, BuildingBlock: CEKHIL_clean_sbu_0, # of connection points: 4
#     Node 5, Type 0, BuildingBlock: CEKHIL_clean_sbu_0, # of connection points: 4
#     Node 6, Type 0, BuildingBlock: CEKHIL_clean_sbu_0, # of connection points: 4
#     Node 7, Type 0, BuildingBlock: CEKHIL_clean_sbu_0, # of connection points: 4
#     Node 8, Type 0, BuildingBlock: CEKHIL_clean_sbu_0, # of connection points: 4
#     Node 9, Type 0, BuildingBlock: CEKHIL_clean_sbu_0, # of connection points: 4
#     Node 10, Type 0, BuildingBlock: CEKHIL_clean_sbu_0, # of connection points: 4
#     Node 11, Type 0, BuildingBlock: CEKHIL_clean_sbu_0, # of connection points: 4
#     Node 12, Type 0, BuildingBlock: CEKHIL_clean_sbu_0, # of connection points: 4
#     Node 13, Type 0, BuildingBlock: CEKHIL_clean_sbu_0, # of connection points: 4
#     Node 14, Type 0, BuildingBlock: CEKHIL_clean_sbu_0, # of connection points: 4
#     Node 15, Type 0, BuildingBlock: CEKHIL_clean_sbu_0, # of connection points: 4
#     Node 16, Type 0, BuildingBlock: CEKHIL_clean_sbu_0, # of connection points: 4
#     Node 17, Type 0, BuildingBlock: CEKHIL_clean_sbu_0, # of connection points: 4
#     Edge 18, Type (0, 0), BuildingBlock: UVAHIK_clean_linker_0, # of connection points: 2
#     Edge 19, Type (0, 0), BuildingBlock: UVAHIK_clean_linker_0, # of connection points: 2
#     Edge 20, Type (0, 0), BuildingBlock: UVAHIK_clean_linker_0, # of connection points: 2
#     Edge 21, Type (0, 0), BuildingBlock: UVAHIK_clean_linker_0, # of connection points: 2
#     Edge 22, Type (0, 0), BuildingBlock: UVAHIK_clean_linker_0, # of connection points: 2
#     Edge 23, Type (0, 0), BuildingBlock: UVAHIK_clean_linker_0, # of connection points: 2
#     Edge 24, Type (0, 0), BuildingBlock: UVAHIK_clean_linker_0, # of connection points: 2
#     Edge 25, Type (0, 0), BuildingBlock: UVAHIK_clean_linker_0, # of connection points: 2
#     Edge 26, Type (0, 0), BuildingBlock: UVAHIK_clean_linker_0, # of connection points: 2
#     Edge 27, Type (0, 0), BuildingBlock: UVAHIK_clean_linker_0, # of connection points: 2
#     Edge 28, Type (0, 0), BuildingBlock: UVAHIK_clean_linker_0, # of connection points: 2
#     Edge 29, Type (0, 0), BuildingBlock: UVAHIK_clean_linker_0, # of connection points: 2
#     Edge 30, Type (0, 0), BuildingBlock: UVAHIK_clean_linker_0, # of connection points: 2
#     Edge 31, Type (0, 0), BuildingBlock: UVAHIK_clean_linker_0, # of connection points: 2
#     Edge 32, Type (0, 0), BuildingBlock: UVAHIK_clean_linker_0, # of connection points: 2
#     Edge 33, Type (0, 0), BuildingBlock: UVAHIK_clean_linker_0, # of connection points: 2
#     Edge 34, Type (0, 0), BuildingBlock: UVAHIK_clean_linker_0, # of connection points: 2
#     Edge 35, Type (0, 0), BuildingBlock: UVAHIK_clean_linker_0, # of connection points: 2
#     Edge 36, Type (0, 0), BuildingBlock: UVAHIK_clean_linker_0, # of connection points: 2
#     Edge 37, Type (0, 0), BuildingBlock: UVAHIK_clean_linker_0, # of connection points: 2
#     Edge 38, Type (0, 0), BuildingBlock: UVAHIK_clean_linker_0, # of connection points: 2
#     Edge 39, Type (0, 0), BuildingBlock: UVAHIK_clean_linker_0, # of connection points: 2
#     Edge 40, Type (0, 0), BuildingBlock: UVAHIK_clean_linker_0, # of connection points: 2
#     Edge 41, Type (0, 0), BuildingBlock: UVAHIK_clean_linker_0, # of connection points: 2
#     Edge 42, Type (0, 0), BuildingBlock: UVAHIK_clean_linker_0, # of connection points: 2
#     Edge 43, Type (0, 0), BuildingBlock: UVAHIK_clean_linker_0, # of connection points: 2
#     Edge 44, Type (0, 0), BuildingBlock: UVAHIK_clean_linker_0, # of connection points: 2
#     Edge 45, Type (0, 0), BuildingBlock: UVAHIK_clean_linker_0, # of connection points: 2
#     Edge 46, Type (0, 0), BuildingBlock: UVAHIK_clean_linker_0, # of connection points: 2
#     Edge 47, Type (0, 0), BuildingBlock: UVAHIK_clean_linker_0, # of connection points: 2
#     Edge 48, Type (0, 0), BuildingBlock: UVAHIK_clean_linker_0, # of connection points: 2
#     Edge 49, Type (0, 0), BuildingBlock: UVAHIK_clean_linker_0, # of connection points: 2
#     Edge 50, Type (0, 0), BuildingBlock: UVAHIK_clean_linker_0, # of connection points: 2
#     Edge 51, Type (0, 0), BuildingBlock: UVAHIK_clean_linker_0, # of connection points: 2
#     Edge 52, Type (0, 0), BuildingBlock: UVAHIK_clean_linker_0, # of connection points: 2
#     Edge 53, Type (0, 0), BuildingBlock: UVAHIK_clean_linker_0, # of connection points: 2
# Relax obj value: 0.265
# Max RMSD: 0.449
# Mean RMSD: 0.418
data_MOF--net-uny--node1-CEKHIL_clean_sbu_0--edge1-UVAHIK_clean_linker_0
_symmetry_space_group_name_H-M    P1
_symmetry_Int_Tables_number       1
_symmetry_cell_setting            triclinic
loop_
_symmetry_equiv_pos_as_xyz
'x, y, z'
_cell_length_a     56.89943
_cell_length_b     55.925109
_cell_length_c     8.9993442
_cell_angle_alpha  97.987314
_cell_angle_beta   87.561091
_cell_angle_gamma 120.70253
loop_
_atom_site_label
_atom_site_type_symbol
_atom_site_fract_x
_atom_site_fract_y
_atom_site_fract_z
_atom_type_partial_charge
Co0 Co 0.03229 0.21757 0.3155 0.0
O1 O 0.00564 0.22541 0.40938 0.0
O2 O 0.00248 0.20662 0.17248 0.0
C3 C 0.06759 0.25964 0.41136 0.0
O4 O 0.05728 0.20799 0.17916 0.0
Co5 Co 0.0773 0.21714 0.48792 0.0
O6 O 0.09703 0.23169 0.30222 0.0
C7 C 0.02158 0.16627 0.45898 0.0
C8 C 0.99248 0.21637 0.28114 0.0
C9 C 0.08344 0.21848 0.18074 0.0
O10 O 0.01314 0.17846 0.38136 0.0
O11 O 0.0462 0.1782 0.51151 0.0
O12 O 0.05491 0.257 0.2879 0.0
O13 O 0.05828 0.23723 0.47411 0.0
Co14 Co 0.85809 0.83217 0.22839 0.0
O15 O 0.82189 0.81005 0.28579 0.0
O16 O 0.85189 0.85141 0.40911 0.0
C17 C 0.86453 0.79593 0.18952 0.0
O18 O 0.89886 0.85913 0.19509 0.0
Co19 Co 0.868 0.82741 0.92661 0.0
O20 O 0.9047 0.8371 0.98472 0.0
C21 C 0.86094 0.87215 0.03894 0.0
C22 C 0.82663 0.83051 0.38897 0.0
C23 C 0.9146 0.85522 0.10007 0.0
O24 O 0.84581 0.85298 0.1177 0.0
O25 O 0.87338 0.86632 0.93305 0.0
O26 O 0.86905 0.81114 0.3188 0.0
O27 O 0.85387 0.80107 0.08021 0.0
Co28 Co 0.25637 0.039 0.21781 0.0
O29 O 0.28428 0.0331 0.28163 0.0
O30 O 0.24966 0.0298 0.41841 0.0
C31 C 0.28498 0.07795 0.12096 0.0
O32 O 0.2242 0.04484 0.19234 0.0
Co33 Co 0.2474 0.03473 0.8824 0.0
O34 O 0.21661 0.04043 0.94547 0.0
C35 C 0.21718 0.98469 0.02848 0.0
C36 C 0.27086 0.02668 0.40361 0.0
C37 C 0.21047 0.04412 0.08064 0.0
O38 O 0.23355 -0.002 0.14235 0.0
O39 O 0.22117 0.99463 0.90439 0.0
O40 O 0.27939 0.07864 0.26234 0.0
O41 O 0.27501 0.05339 0.04302 0.0
Co42 Co 0.07849 0.87042 0.76178 0.0
O43 O 0.09709 0.85395 0.65311 0.0
O44 O 0.1106 0.87967 0.87759 0.0
C45 C 0.03776 0.83123 0.71705 0.0
O46 O 0.06081 0.88914 0.89946 0.0
Co47 Co 0.04352 0.88548 0.69535 0.0
O48 O 0.06093 0.88919 0.90167 0.0
C49 C 0.09628 0.92337 0.60988 0.0
C50 C 0.11472 0.86507 0.76443 0.0
C51 C 0.05835 0.89794 0.03508 0.0
O52 O 0.10167 0.90655 0.66524 0.0
O53 O 0.07183 0.91828 0.60305 0.0
O54 O 0.05361 0.8348 0.82758 0.0
O55 O 0.04597 0.85142 0.63555 0.0
Co56 Co 0.24029 0.2367 0.83286 0.0
O57 O 0.27935 0.25682 0.80969 0.0
O58 O 0.2518 0.21907 0.65988 0.0
C59 C 0.23826 0.27701 0.82864 0.0
O60 O 0.19969 0.21504 0.85558 0.0
Co61 Co 0.25476 0.24886 0.03301 0.0
O62 O 0.21448 0.23249 0.08974 0.0
C63 C 0.26025 0.20787 0.99313 0.0
C64 C 0.27675 0.23953 0.6939 0.0
C65 C 0.19431 0.21813 0.99492 0.0
O66 O 0.23929 0.20618 0.93859 0.0
O67 O 0.27899 0.23208 0.04457 0.0
O68 O 0.23863 0.26135 0.71414 0.0
O69 O 0.23952 0.27035 0.95926 0.0
Co70 Co 0.86468 0.0477 0.78187 0.0
O71 O 0.84 0.05737 0.71312 0.0
O72 O 0.88193 0.07139 0.62979 0.0
C73 C 0.83502 0.00264 0.77141 0.0
O74 O 0.89495 0.04039 0.82331 0.0
Co75 Co 0.85431 0.02417 0.08449 0.0
O76 O 0.88089 0.0128 0.0061 0.0
C77 C 0.89277 0.08403 0.06229 0.0
C78 C 0.85888 0.07091 0.62132 0.0
C79 C 0.89728 0.0244 0.90318 0.0
O80 O 0.88026 0.08107 0.94035 0.0
O81 O 0.88378 0.06435 0.14458 0.0
O82 O 0.84732 0.01299 0.65167 0.0
O83 O 0.83827 0.02012 0.89047 0.0
Co84 Co 0.74719 0.58154 0.99685 0.0
O85 O 0.77558 0.61982 0.009 0.0
O86 O 0.7678 0.59106 0.17933 0.0
C87 C 0.71138 0.59176 0.96177 0.0
O88 O 0.71774 0.54174 0.02396 0.0
Co89 Co 0.69785 0.55083 0.69706 0.0
O90 O 0.68098 0.53121 0.88071 0.0
C91 C 0.74451 0.56227 0.66193 0.0
C92 C 0.78326 0.61532 0.13183 0.0
C93 C 0.69198 0.52708 0.98882 0.0
O94 O 0.73832 0.5754 0.77359 0.0
O95 O 0.72645 0.55005 0.55724 0.0
O96 O 0.72325 0.59567 0.08555 0.0
O97 O 0.72181 0.58321 0.85409 0.0
Co98 Co 0.53693 0.19869 0.99124 0.0
O99 O 0.50382 0.19954 0.00679 0.0
O100 O 0.53597 0.21568 0.18851 0.0
C101 C 0.51785 0.14794 0.91614 0.0
O102 O 0.57384 0.20138 0.99454 0.0
Co103 Co 0.54652 0.16831 0.63297 0.0
O104 O 0.58212 0.18776 0.755 0.0
C105 C 0.54523 0.21157 0.68688 0.0
C106 C 0.51351 0.21335 0.13966 0.0
C107 C 0.58974 0.19999 0.8906 0.0
O108 O 0.53493 0.1927 0.77502 0.0
O109 O 0.54907 0.20228 0.55793 0.0
O110 O 0.51822 0.15966 0.04704 0.0
O111 O 0.5256 0.16581 0.82345 0.0
Co112 Co 0.92349 0.37232 0.04448 0.0
O113 O 0.93021 0.34352 0.06976 0.0
O114 O 0.90132 0.35283 0.20398 0.0
C115 C 0.96751 0.40426 0.03059 0.0
O116 O 0.91249 0.40188 0.04462 0.0
Co117 Co 0.93899 0.39674 0.74565 0.0
O118 O 0.93991 0.42887 0.87782 0.0
C119 C 0.88847 0.34244 0.75544 0.0
C120 C 0.91238 0.3373 0.17352 0.0
C121 C 0.92298 0.42438 0.98247 0.0
O122 O 0.89306 0.34547 0.89684 0.0
O123 O 0.9045 0.3604 0.67053 0.0
O124 O 0.95647 0.39937 0.16055 0.0
O125 O 0.9521 0.38825 0.91468 0.0
Co126 Co 0.71793 0.18406 0.03914 0.0
O127 O 0.74119 0.17137 0.94816 0.0
O128 O 0.74781 0.19386 0.17931 0.0
C129 C 0.67883 0.14496 0.95039 0.0
O130 O 0.69625 0.19957 0.16791 0.0
Co131 Co 0.6814 0.19105 0.82021 0.0
O132 O 0.66282 0.19257 0.01153 0.0
C133 C 0.74064 0.2288 0.83465 0.0
C134 C 0.7564 0.18274 0.06941 0.0
C135 C 0.6737 0.19902 0.14282 0.0
O136 O 0.74142 0.22081 0.96057 0.0
O137 O 0.71896 0.2174 0.75126 0.0
O138 O 0.6904 0.14513 0.07283 0.0
O139 O 0.69231 0.16682 0.88491 0.0
Co140 Co 0.9332 0.59857 0.90306 0.0
O141 O 0.97174 0.61609 0.85464 0.0
O142 O 0.93874 0.5749 0.74832 0.0
C143 C 0.92583 0.63341 0.90597 0.0
O144 O 0.89097 0.57295 0.91025 0.0
Co145 Co 0.91267 0.60908 0.19968 0.0
O146 O 0.87475 0.58478 0.12111 0.0
C147 C 0.92579 0.56593 0.14768 0.0
C148 C 0.96462 0.59295 0.76409 0.0
C149 C 0.87087 0.57027 0.99342 0.0
O150 O 0.94211 0.58247 0.06036 0.0
O151 O 0.90998 0.57214 0.22545 0.0
O152 O 0.9266 0.61936 0.77961 0.0
O153 O 0.93379 0.62912 0.02902 0.0
Co154 Co 0.51865 0.37338 0.98437 0.0
O155 O 0.49298 0.34212 0.84878 0.0
O156 O 0.48771 0.34706 0.0941 0.0
C157 C 0.52397 0.40663 0.83894 0.0
O158 O 0.54351 0.4044 0.15322 0.0
Co159 Co 0.5768 0.40876 0.88685 0.0
O160 O 0.56983 0.43648 0.01088 0.0
C161 C 0.5628 0.35961 0.03985 0.0
C162 C 0.47875 0.33183 0.96313 0.0
C163 C 0.56277 0.42972 0.14067 0.0
O164 O 0.53751 0.35202 0.02335 0.0
O165 O 0.582 0.38215 0.99522 0.0
O166 O 0.50407 0.39618 0.93037 0.0
O167 O 0.53893 0.39495 0.82764 0.0
Co168 Co 0.38433 0.91347 0.09106 0.0
O169 O 0.35675 0.92147 0.15874 0.0
O170 O 0.36263 0.90971 0.91921 0.0
C171 C 0.41937 0.95096 0.22911 0.0
O172 O 0.41161 0.90516 0.98363 0.0
Co173 Co 0.41358 0.90112 0.32975 0.0
O174 O 0.43883 0.90595 0.16144 0.0
C175 C 0.35905 0.85795 0.21854 0.0
C176 C 0.34996 0.91789 0.0183 0.0
C177 C 0.43286 0.9051 0.02502 0.0
O178 O 0.36034 0.87166 0.11115 0.0
O179 O 0.37499 0.86951 0.33477 0.0
O180 O 0.41121 0.954 0.1042 0.0
O181 O 0.40393 0.92688 0.27348 0.0
Co182 Co 0.18469 0.50621 0.0775 0.0
O183 O 0.15358 0.48732 0.20175 0.0
O184 O 0.18338 0.53291 0.23139 0.0
C185 C 0.19925 0.47641 0.08325 0.0
O186 O 0.22123 0.53413 0.98118 0.0
Co187 Co 0.18756 0.49144 0.78593 0.0
O188 O 0.22683 0.51606 0.75867 0.0
C189 C 0.16737 0.52704 0.85641 0.0
C190 C 0.16071 0.51215 0.27118 0.0
C191 C 0.23687 0.5351 0.86964 0.0
O192 O 0.15946 0.51088 0.95461 0.0
O193 O 0.18097 0.52284 0.75188 0.0
O194 O 0.20561 0.49757 0.1859 0.0
O195 O 0.18271 0.47193 0.97029 0.0
Co196 Co 0.58135 0.684 0.00871 0.0
O197 O 0.5958 0.66421 0.09641 0.0
O198 O 0.55472 0.65752 0.13904 0.0
C199 C 0.61783 0.72646 0.05176 0.0
O200 O 0.56075 0.70316 0.93964 0.0
Co201 Co 0.60538 0.71056 0.72392 0.0
O202 O 0.58982 0.73467 0.79285 0.0
C203 C 0.55659 0.6551 0.71363 0.0
C204 C 0.573 0.65087 0.16336 0.0
C205 C 0.5686 0.72509 0.87144 0.0
O206 O 0.56699 0.65396 0.83282 0.0
O207 O 0.56964 0.67626 0.64246 0.0
O208 O 0.6005 0.71607 0.15696 0.0
O209 O 0.61477 0.70965 0.92948 0.0
Co210 Co 0.39624 0.50578 0.06386 0.0
O211 O 0.42419 0.49696 0.02601 0.0
O212 O 0.42158 0.5216 0.23526 0.0
C213 C 0.36185 0.46227 0.9706 0.0
O214 O 0.37001 0.51921 0.13656 0.0
Co215 Co 0.36246 0.50318 0.7933 0.0
O216 O 0.33782 0.49183 0.96745 0.0
C217 C 0.41445 0.55532 0.88398 0.0
C218 C 0.43507 0.51171 0.15438 0.0
C219 C 0.3464 0.51062 0.07982 0.0
O220 O 0.41858 0.54257 0.97967 0.0
O221 O 0.3932 0.54353 0.79628 0.0
O222 O 0.37061 0.46751 0.10944 0.0
O223 O 0.37525 0.48283 0.89292 0.0
Co224 Co 0.5729 0.89052 0.97362 0.0
O225 O 0.60211 0.88863 0.07642 0.0
O226 O 0.5941 0.87918 0.83574 0.0
C227 C 0.58098 0.93497 0.08729 0.0
O228 O 0.5526 0.8942 0.80329 0.0
Co229 Co 0.55425 0.87491 0.9902 0.0
O230 O 0.54319 0.85295 0.77901 0.0
C231 C 0.5615 0.86126 0.23393 0.0
C232 C 0.60846 0.88078 0.94496 0.0
C233 C 0.53695 0.86948 0.73735 0.0
O234 O 0.5832 0.87909 0.17059 0.0
O235 O 0.53996 0.85628 0.17284 0.0
O236 O 0.5981 0.93208 1.00094 0.0
O237 O 0.56103 0.91163 0.1173 0.0
Co238 Co 0.18266 0.72551 0.04251 0.0
O239 O 0.17318 0.75304 0.02418 0.0
O240 O 0.20376 0.74632 0.88941 0.0
C241 C 0.14033 0.68933 0.04724 0.0
O242 O 0.19731 0.69838 0.02273 0.0
Co243 Co 0.16959 0.6982 0.33005 0.0
O244 O 0.17567 0.67034 0.19703 0.0
C245 C 0.21965 0.7529 0.32844 0.0
C246 C 0.19089 0.75999 0.91878 0.0
C247 C 0.19053 0.67624 0.08229 0.0
O248 O 0.21214 0.75294 0.1959 0.0
O249 O 0.2047 0.73333 0.40731 0.0
O250 O 0.15103 0.69756 0.92044 0.0
O251 O 0.15414 0.7056 0.16718 0.0
C252 C 0.31175 0.43277 0.01445 0.0
C253 C 0.33388 0.43984 0.91862 0.0
C254 C 0.28496 0.41971 0.95438 0.0
C255 C 0.24749 0.40063 0.54692 0.0
H256 H 0.17749 0.34135 0.84635 0.0
C257 C 0.1146 0.29414 0.34999 0.0
C258 C 0.09457 0.28407 0.45698 0.0
C259 C 0.1415 0.31404 0.39458 0.0
C260 C 0.19107 0.35395 0.76506 0.0
H261 H 0.3452 0.4367 0.68752 0.0
H262 H 0.29886 0.41155 0.58463 0.0
H263 H 0.22827 0.37549 0.94256 0.0
H264 H 0.08628 0.28718 0.69359 0.0
H265 H 0.13297 0.32491 0.77058 0.0
H266 H 0.1872 0.36247 0.3426 0.0
C267 C 0.30187 0.41783 0.70463 0.0
C268 C 0.22422 0.37657 0.82912 0.0
C269 C 0.32853 0.43143 0.76388 0.0
C270 C 0.10156 0.29505 0.6091 0.0
C271 C 0.12837 0.31629 0.65323 0.0
C272 C 0.19718 0.36619 0.45139 0.0
C273 C 0.27975 0.4126 0.79829 0.0
C274 C 0.25151 0.39856 0.73164 0.0
C275 C 0.14877 0.32595 0.54628 0.0
C276 C 0.17751 0.3481 0.58896 0.0
H277 H 0.31535 0.43973 0.13409 0.0
H278 H 0.26865 0.41656 0.02978 0.0
H279 H 0.26539 0.41555 0.49058 0.0
H280 H 0.10983 0.28531 0.23265 0.0
H281 H 0.15649 0.31905 0.30863 0.0
C282 C 0.80504 0.85299 0.55748 0.0
C283 C 0.80299 0.83272 0.44053 0.0
C284 C 0.78244 0.85609 0.58908 0.0
C285 C 0.71013 0.87002 0.47737 0.0
H286 H 0.68583 0.81664 0.87984 0.0
C287 C 0.61452 0.84294 0.81635 0.0
C288 C 0.62377 0.86644 0.92678 0.0
C289 C 0.63124 0.83215 0.77375 0.0
C290 C 0.69344 0.82782 0.78386 0.0
H291 H 0.77564 0.79962 0.26577 0.0
H292 H 0.73708 0.80555 0.32251 0.0
H293 H 0.72663 0.81344 0.73693 0.0
H294 H 0.65509 0.89439 0.09678 0.0
H295 H 0.68566 0.8765 0.01358 0.0
H296 H 0.67405 0.87622 0.59157 0.0
C297 C 0.75603 0.81933 0.38613 0.0
C298 C 0.71896 0.82538 0.69382 0.0
C299 C 0.77809 0.81562 0.3571 0.0
C300 C 0.64813 0.87666 0.00892 0.0
C301 C 0.66521 0.86613 0.96374 0.0
C302 C 0.68537 0.86574 0.60174 0.0
C303 C 0.75837 0.8403 0.49795 0.0
C304 C 0.73362 0.84207 0.54043 0.0
C305 C 0.65743 0.84534 0.83895 0.0
C306 C 0.67847 0.84591 0.74285 0.0
H307 H 0.82383 0.86617 0.62413 0.0
H308 H 0.78376 0.87071 0.68525 0.0
H309 H 0.71392 0.88383 0.39296 0.0
H310 H 0.59525 0.83424 0.75502 0.0
H311 H 0.62518 0.81612 0.67679 0.0
C312 C 0.25112 0.98981 0.56698 0.0
C313 C 0.27367 0.00778 0.4888 0.0
C314 C 0.24663 0.96345 0.58125 0.0
C315 C 0.23314 0.87721 0.33557 0.0
H316 H 0.23569 0.88301 0.8608 0.0
C317 C 0.21167 0.78631 0.70638 0.0
C318 C 0.1967 0.78288 0.83714 0.0
C319 C 0.21881 0.80906 0.63261 0.0
C320 C 0.23746 0.88486 0.74281 0.0
H321 H 0.31238 0.01528 0.39565 0.0
H322 H 0.30528 0.96952 0.43497 0.0
H323 H 0.26107 0.93513 0.79237 0.0
H324 H 0.1766 0.79957 0.9923 0.0
H325 H 0.18994 0.84017 0.86322 0.0
H326 H 0.20922 0.82868 0.37174 0.0
C327 C 0.28983 0.97482 0.46845 0.0
C328 C 0.25358 0.91798 0.701 0.0
C329 C 0.29423 0.00122 0.4515 0.0
C330 C 0.18827 0.80198 0.89148 0.0
C331 C 0.19591 0.8251 0.81866 0.0
C332 C 0.21988 0.84966 0.43298 0.0
C333 C 0.26464 0.95489 0.51846 0.0
C334 C 0.25661 0.92492 0.51957 0.0
C335 C 0.21159 0.82881 0.6906 0.0
C336 C 0.22238 0.85419 0.6226 0.0
H337 H 0.23527 0.99455 0.60049 0.0
H338 H 0.22794 0.94901 0.63157 0.0
H339 H 0.22869 0.87213 0.21452 0.0
H340 H 0.21833 0.77177 0.66271 0.0
H341 H 0.23087 0.81182 0.53367 0.0
C342 C 0.46312 0.2822 0.88558 0.0
C343 C 0.45615 0.30251 0.93893 0.0
C344 C 0.44548 0.25867 0.78544 0.0
C345 C 0.40487 0.24003 0.30157 0.0
H346 H 0.36644 0.15343 0.49133 0.0
C347 C 0.31075 0.12612 0.06681 0.0
C348 C 0.31037 0.1014 0.08154 0.0
C349 C 0.33394 0.15184 0.11421 0.0
C350 C 0.37676 0.1746 0.46339 0.0
H351 H 0.42339 0.31159 0.95257 0.0
H352 H 0.39151 0.26864 0.78828 0.0
H353 H 0.39042 0.19507 0.7233 0.0
H354 H 0.33408 0.08331 0.13738 0.0
H355 H 0.37456 0.12855 0.22478 0.0
H356 H 0.38527 0.20661 0.07813 0.0
C357 C 0.41158 0.2724 0.81312 0.0
C358 C 0.39118 0.2007 0.6122 0.0
C359 C 0.42945 0.29644 0.91139 0.0
C360 C 0.33438 0.1024 0.12328 0.0
C361 C 0.35728 0.12809 0.17529 0.0
C362 C 0.3883 0.2079 0.19754 0.0
C363 C 0.42106 0.25555 0.73381 0.0
C364 C 0.40712 0.23574 0.5893 0.0
C365 C 0.35638 0.15266 0.17929 0.0
C366 C 0.37535 0.17796 0.27665 0.0
H367 H 0.4835 0.28617 0.90692 0.0
H368 H 0.45211 0.2444 0.73765 0.0
H369 H 0.41278 0.25808 0.23984 0.0
H370 H 0.29216 0.12556 0.03749 0.0
H371 H 0.33292 0.17073 0.11741 0.0
C372 C 0.78736 0.16484 0.00188 0.0
C373 C 0.7844 0.18771 0.06087 0.0
C374 C 0.80915 0.16882 0.91019 0.0
C375 C 0.87763 0.20874 0.75616 0.0
H376 H 0.82336 0.17986 0.30778 0.0
C377 C 0.96435 0.23842 0.34799 0.0
C378 C 0.96684 0.21657 0.26686 0.0
C379 C 0.93857 0.23508 0.37609 0.0
C380 C 0.83732 0.18634 0.4046 0.0
H381 H 0.80391 0.23299 0.08908 0.0
H382 H 0.8423 0.23996 0.92901 0.0
H383 H 0.80284 0.18135 0.58534 0.0
H384 H 0.94496 0.17621 0.13034 0.0
H385 H 0.90082 0.16988 0.17814 0.0
H386 H 0.92054 0.21814 0.64959 0.0
C387 C 0.82769 0.21902 0.95353 0.0
C388 C 0.82421 0.1876 0.57801 0.0
C389 C 0.80589 0.21503 0.04659 0.0
C390 C 0.9435 0.19308 0.19682 0.0
C391 C 0.91763 0.18945 0.22795 0.0
C392 C 0.89964 0.21104 0.61734 0.0
C393 C 0.82831 0.19571 0.87717 0.0
C394 C 0.84369 0.19812 0.73904 0.0
C395 C 0.91451 0.2094 0.32986 0.0
C396 C 0.88963 0.2025 0.42876 0.0
H397 H 0.77095 0.14358 0.00976 0.0
H398 H 0.80933 0.15059 0.85217 0.0
H399 H 0.88639 0.21456 0.86841 0.0
H400 H 0.98226 0.25728 0.39978 0.0
H401 H 0.93749 0.25156 0.44946 0.0
C402 C 0.88711 0.63701 0.83133 0.0
C403 C 0.91275 0.65007 0.90375 0.0
C404 C 0.87675 0.65264 0.7857 0.0
C405 C 0.90232 0.72629 0.70467 0.0
H406 H 0.83084 0.6869 0.50489 0.0
C407 C 0.88658 0.76915 0.20941 0.0
C408 C 0.86202 0.76878 0.19592 0.0
C409 C 0.88899 0.75331 0.3079 0.0
C410 C 0.85081 0.69847 0.56092 0.0
H411 H 0.9478 0.68981 0.9903 0.0
H412 H 0.93014 0.71772 0.9142 0.0
H413 H 0.84024 0.6661 0.69393 0.0
H414 H 0.81968 0.74885 0.25819 0.0
H415 H 0.82338 0.72014 0.42517 0.0
H416 H 0.91159 0.75991 0.58279 0.0
C417 C 0.91745 0.6952 0.88955 0.0
C418 C 0.85659 0.68617 0.66824 0.0
C419 C 0.92762 0.67926 0.93693 0.0
C420 C 0.83875 0.74901 0.26408 0.0
C421 C 0.84108 0.733 0.36279 0.0
C422 C 0.89617 0.73893 0.60189 0.0
C423 C 0.89202 0.68223 0.80962 0.0
C424 C 0.88322 0.69881 0.73283 0.0
C425 C 0.86674 0.73642 0.39346 0.0
C426 C 0.87111 0.72438 0.52029 0.0
H427 H 0.8759 0.61459 0.79962 0.0
H428 H 0.85773 0.64101 0.72089 0.0
H429 H 0.92284 0.73783 0.75281 0.0
H430 H 0.90493 0.78456 0.16035 0.0
H431 H 0.90895 0.75611 0.32494 0.0
C432 C 0.82808 0.65861 0.12695 0.0
C433 C 0.81118 0.63455 0.19352 0.0
C434 C 0.85584 0.67445 0.16274 0.0
C435 C 0.90998 0.68058 0.43075 0.0
H436 H 0.95188 0.74844 0.24881 0.0
C437 C 0.01309 0.77886 0.67919 0.0
C438 C 0.01363 0.804 0.66902 0.0
C439 C 0.99191 0.75337 0.6072 0.0
C440 C 0.94044 0.72957 0.30167 0.0
H441 H 0.80985 0.60828 0.35293 0.0
H442 H 0.85781 0.63565 0.41857 0.0
H443 H 0.90802 0.71479 0.15029 0.0
H444 H 0.9919 0.82245 0.5903 0.0
H445 H 0.95484 0.7785 0.47007 0.0
H446 H 0.94284 0.69878 0.5957 0.0
C447 C 0.85047 0.64284 0.33665 0.0
C448 C 0.91469 0.70946 0.2433 0.0
C449 C 0.82246 0.627 0.30059 0.0
C450 C 0.99205 0.80331 0.59681 0.0
C451 C 0.97097 0.7781 0.52708 0.0
C452 C 0.93551 0.70165 0.49446 0.0
C453 C 0.86798 0.66691 0.26749 0.0
C454 C 0.89794 0.68523 0.31163 0.0
C455 C 0.97123 0.75304 0.52572 0.0
C456 C 0.94973 0.72725 0.43685 0.0
H457 H 0.82005 0.66494 0.04289 0.0
H458 H 0.86696 0.69256 0.10559 0.0
H459 H 0.89938 0.66187 0.48401 0.0
H460 H 0.02972 0.77913 0.73509 0.0
H461 H 0.99238 0.73431 0.60961 0.0
C462 C 0.30136 0.22412 0.4982 0.0
C463 C 0.30184 0.24351 0.61611 0.0
C464 C 0.32598 0.22684 0.44409 0.0
C465 C 0.40916 0.27546 0.49778 0.0
H466 H 0.42233 0.19834 0.36633 0.0
C467 C 0.49684 0.22728 0.37864 0.0
C468 C 0.50068 0.22798 0.22447 0.0
C469 C 0.48169 0.23833 0.45378 0.0
C470 C 0.41765 0.21504 0.39898 0.0
H471 H 0.32864 0.28303 0.75603 0.0
H472 H 0.37099 0.28715 0.66425 0.0
H473 H 0.35057 0.1962 0.43219 0.0
H474 H 0.49424 0.24309 0.02991 0.0
H475 H 0.46732 0.26188 0.16121 0.0
H476 H 0.45803 0.29681 0.48166 0.0
C477 C 0.35193 0.26957 0.61523 0.0
C478 C 0.37163 0.21384 0.43726 0.0
C479 C 0.32741 0.26702 0.66833 0.0
C480 C 0.49124 0.24202 0.14908 0.0
C481 C 0.47652 0.25351 0.22495 0.0
C482 C 0.43979 0.27623 0.47185 0.0
C483 C 0.35155 0.24853 0.50951 0.0
C484 C 0.37667 0.24667 0.48252 0.0
C485 C 0.4705 0.25063 0.3764 0.0
C486 C 0.44455 0.24833 0.42618 0.0
H487 H 0.2821 0.20635 0.45196 0.0
H488 H 0.32475 0.21123 0.35401 0.0
H489 H 0.41081 0.29573 0.52471 0.0
H490 H 0.50365 0.21625 0.43827 0.0
H491 H 0.47662 0.23471 0.56857 0.0
C492 C 0.87588 0.1034 0.43102 0.0
C493 C 0.85458 0.08644 0.51905 0.0
C494 C 0.87394 0.1229 0.36086 0.0
C495 C 0.85598 0.17213 0.54773 0.0
H496 H 0.87182 0.21289 0.10094 0.0
C497 C 0.88053 0.30038 0.32767 0.0
C498 C 0.90374 0.31184 0.24009 0.0
C499 C 0.87093 0.27415 0.37349 0.0
C500 C 0.86873 0.2061 0.2098 0.0
H501 H 0.81311 0.07356 0.58739 0.0
H502 H 0.81055 0.10888 0.46931 0.0
H503 H 0.85663 0.16165 0.2903 0.0
H504 H 0.93535 0.30529 0.13207 0.0
H505 H 0.91766 0.2593 0.20313 0.0
H506 H 0.87275 0.24095 0.62483 0.0
C507 C 0.82832 0.10659 0.4525 0.0
C508 C 0.85991 0.17222 0.20978 0.0
C509 C 0.83007 0.08684 0.52173 0.0
C510 C 0.91744 0.29709 0.20029 0.0
C511 C 0.9074 0.27076 0.24096 0.0
C512 C 0.86908 0.22367 0.53689 0.0
C513 C 0.85082 0.12568 0.3789 0.0
C514 C 0.85406 0.15478 0.36995 0.0
C515 C 0.8841 0.25915 0.32636 0.0
C516 C 0.87327 0.23071 0.3566 0.0
H517 H 0.89489 0.10328 0.42634 0.0
H518 H 0.89188 0.13761 0.30864 0.0
H519 H 0.85242 0.16039 0.64222 0.0
H520 H 0.86926 0.31105 0.35396 0.0
H521 H 0.85262 0.26503 0.43832 0.0
C522 C 0.79116 0.96194 0.82702 0.0
C523 C 0.8169 0.97265 0.76376 0.0
C524 C 0.7707 0.93448 0.77809 0.0
C525 C 0.7555 0.88244 0.40512 0.0
H526 H 0.67023 0.80911 0.53774 0.0
C527 C 0.66693 0.76357 0.04856 0.0
C528 C 0.63965 0.75585 0.07599 0.0
C529 C 0.68809 0.78897 0.12161 0.0
C530 C 0.69036 0.82672 0.51665 0.0
H531 H 0.84317 0.96315 0.61753 0.0
H532 H 0.80782 0.91498 0.53604 0.0
H533 H 0.72662 0.87791 0.81256 0.0
H534 H 0.61271 0.7699 0.1758 0.0
H535 H 0.6495 0.8142 0.30106 0.0
H536 H 0.73686 0.85239 0.17434 0.0
C537 C 0.80287 0.92776 0.6177 0.0
C538 C 0.72637 0.87098 0.69247 0.0
C539 C 0.82314 0.95511 0.66554 0.0
C540 C 0.63371 0.77527 0.15704 0.0
C541 C 0.65468 0.80045 0.22894 0.0
C542 C 0.73201 0.8535 0.29173 0.0
C543 C 0.77622 0.91785 0.66741 0.0
C544 C 0.75395 0.89152 0.59265 0.0
C545 C 0.68172 0.80628 0.22153 0.0
C546 C 0.70143 0.8272 0.3377 0.0
H547 H 0.78614 0.97545 0.90239 0.0
H548 H 0.75022 0.92724 0.81767 0.0
H549 H 0.77327 0.89696 0.34895 0.0
H550 H 0.6718 0.74889 0.98412 0.0
H551 H 0.70899 0.79369 0.11044 0.0
C552 C 0.1644 0.88727 0.81729 0.0
C553 C 0.14036 0.86504 0.74518 0.0
C554 C 0.18951 0.8943 0.75395 0.0
C555 C 0.21405 0.90604 0.38921 0.0
H556 H 0.30017 0.90705 0.35255 0.0
C557 C 0.33044 0.94812 0.03966 0.0
C558 C 0.32783 0.92221 0.98075 0.0
C559 C 0.30829 0.94887 0.10824 0.0
C560 C 0.28106 0.90646 0.37542 0.0
H561 H 0.12357 0.82943 0.56851 0.0
H562 H 0.16741 0.84113 0.46131 0.0
H563 H 0.2713 0.88094 0.58409 0.0
H564 H 0.29936 0.87817 0.91373 0.0
H565 H 0.26136 0.8791 0.03696 0.0
H566 H 0.23555 0.92855 0.17656 0.0
C567 C 0.167 0.85374 0.5631 0.0
C568 C 0.26243 0.88955 0.51741 0.0
C569 C 0.14193 0.84706 0.62479 0.0
C570 C 0.3018 0.89836 0.95876 0.0
C571 C 0.27986 0.89902 0.02955 0.0
C572 C 0.23951 0.9199 0.26623 0.0
C573 C 0.19085 0.87804 0.62329 0.0
C574 C 0.21585 0.88918 0.52996 0.0
C575 C 0.28376 0.9237 0.11774 0.0
C576 C 0.26943 0.91981 0.25951 0.0
H577 H 0.16363 0.9009 0.9126 0.0
H578 H 0.20741 0.91347 0.80195 0.0
H579 H 0.19602 0.90751 0.37661 0.0
H580 H 0.35051 0.96688 0.05612 0.0
H581 H 0.31177 0.96824 0.17335 0.0
C582 C 0.20734 0.2922 0.75612 0.0
C583 C 0.23367 0.29949 0.80263 0.0
C584 C 0.20358 0.30987 0.67691 0.0
C585 C 0.23337 0.35799 0.38833 0.0
H586 H 0.21132 0.43182 0.5289 0.0
C587 C 0.19647 0.4289 0.06031 0.0
C588 C 0.20969 0.4578 0.11171 0.0
C589 C 0.20445 0.41204 0.12095 0.0
C590 C 0.21594 0.41514 0.51112 0.0
H591 H 0.27683 0.32943 0.79123 0.0
H592 H 0.27025 0.36052 0.65596 0.0
H593 H 0.20429 0.4027 0.75965 0.0
H594 H 0.24304 0.49162 0.2577 0.0
H595 H 0.25751 0.46298 0.3505 0.0
H596 H 0.24194 0.38115 0.17427 0.0
C597 C 0.25244 0.34209 0.68798 0.0
C598 C 0.21098 0.39617 0.65394 0.0
C599 C 0.2562 0.32449 0.76713 0.0
C600 C 0.2325 0.46958 0.21212 0.0
C601 C 0.24111 0.45321 0.26566 0.0
C602 C 0.23497 0.38226 0.28637 0.0
C603 C 0.22607 0.3356 0.64708 0.0
C604 C 0.22285 0.35645 0.57088 0.0
C605 C 0.22612 0.4242 0.22907 0.0
C606 C 0.22693 0.40785 0.34077 0.0
H607 H 0.18987 0.27196 0.77236 0.0
H608 H 0.18314 0.30318 0.63781 0.0
H609 H 0.23964 0.34351 0.33749 0.0
H610 H 0.17876 0.41911 0.98448 0.0
H611 H 0.19217 0.38942 0.09407 0.0
C612 C 0.00319 0.43774 0.87618 0.0
C613 C 0.99444 0.42889 0.01689 0.0
C614 C 0.02515 0.46464 0.86775 0.0
C615 C 0.07968 0.53023 0.06618 0.0
H616 H 0.04027 0.56287 0.92308 0.0
C617 C 0.11441 0.64795 0.18313 0.0
C618 C 0.11921 0.65993 0.05 0.0
C619 C 0.10044 0.61889 0.17724 0.0
C620 C 0.05151 0.55396 0.96214 0.0
H621 H 0.0039 0.43908 0.25667 0.0
H622 H 0.04176 0.48639 0.24106 0.0
H623 H 0.01883 0.51199 0.90049 0.0
H624 H 0.11064 0.65131 0.80929 0.0
H625 H 0.08567 0.60054 0.8014 0.0
H626 H 0.11211 0.57254 0.13212 0.0
C627 C 0.03198 0.47255 0.13823 0.0
C628 C 0.0395 0.52504 0.94741 0.0
C629 C 0.01001 0.4457 0.14696 0.0
C630 C 0.10742 0.6426 0.91364 0.0
C631 C 0.09317 0.61363 0.90859 0.0
C632 C 0.09177 0.55934 0.08111 0.0
C633 C 0.03858 0.48266 0.99964 0.0
C634 C 0.05352 0.51301 0.99849 0.0
C635 C 0.09036 0.60167 0.03943 0.0
C636 C 0.0776 0.57123 0.02951 0.0
H637 H 0.99175 0.42493 0.77406 0.0
H638 H 0.03001 0.47219 0.75994 0.0
H639 H 0.0905 0.52117 0.10861 0.0
H640 H 0.12306 0.66086 0.28995 0.0
H641 H 0.09831 0.60993 0.27907 0.0
C642 C 0.47985 0.54516 0.07704 0.0
C643 C 0.46461 0.52484 0.17085 0.0
C644 C 0.50592 0.55123 0.03798 0.0
C645 C 0.55186 0.52185 0.03526 0.0
H646 H 0.60482 0.5951 0.92732 0.0
C647 C 0.6678 0.57762 0.08929 0.0
C648 C 0.6827 0.58456 0.95786 0.0
C649 C 0.63975 0.56651 0.08516 0.0
C650 C 0.58994 0.57434 0.95342 0.0
H651 H 0.46476 0.49573 0.3049 0.0
H652 H 0.51203 0.50848 0.2502 0.0
H653 H 0.56002 0.58582 0.00254 0.0
H654 H 0.68015 0.5857 0.71959 0.0
H655 H 0.63051 0.56789 0.71518 0.0
H656 H 0.58346 0.51172 0.99702 0.0
C657 C 0.50328 0.5188 0.1999 0.0
C658 C 0.56419 0.56892 0.99778 0.0
C659 C 0.47655 0.51204 0.23524 0.0
C660 C 0.66908 0.5808 0.82243 0.0
C661 C 0.64086 0.57031 0.81933 0.0
C662 C 0.57795 0.52756 0.99385 0.0
C663 C 0.51787 0.53769 0.09574 0.0
C664 C 0.54498 0.54286 0.04317 0.0
C665 C 0.62615 0.56277 0.95065 0.0
C666 C 0.5972 0.55405 0.95578 0.0
H667 H 0.47049 0.5542 0.02053 0.0
H668 H 0.51577 0.56524 0.95467 0.0
H669 H 0.53739 0.50117 0.06349 0.0
H670 H 0.67763 0.57983 0.19495 0.0
H671 H 0.62868 0.56124 0.18792 0.0
C672 C 0.50429 0.10186 0.99786 0.0
C673 C 0.51846 0.1213 0.89627 0.0
C674 C 0.50995 0.08066 0.01293 0.0
C675 C 0.56702 0.06909 0.99782 0.0
H676 H 0.51348 0.99049 0.00809 0.0
C677 C 0.59595 0.9836 0.02912 0.0
C678 C 0.57868 0.96068 0.10541 0.0
C679 C 0.5895 0.00436 0.01477 0.0
C680 C 0.52872 0.01244 0.00787 0.0
H681 H 0.54853 0.13223 0.72348 0.0
H682 H 0.55843 0.0951 0.75036 0.0
H683 H 0.49882 0.02212 0.94457 0.0
H684 H 0.54188 0.94277 0.23416 0.0
H685 H 0.53087 0.97883 0.2102 0.0
H686 H 0.59684 0.05971 0.06564 0.0
C687 C 0.54317 0.09671 0.81951 0.0
C688 C 0.52029 0.03051 0.96989 0.0
C689 C 0.53717 0.11773 0.80257 0.0
C690 C 0.55576 0.96009 0.17486 0.0
C691 C 0.54922 0.98067 0.15958 0.0
C692 C 0.57544 0.05111 0.03781 0.0
C693 C 0.53032 0.07858 0.92857 0.0
C694 C 0.53935 0.059 0.96287 0.0
C695 C 0.56548 0.00265 0.07522 0.0
C696 C 0.55646 0.02241 0.04199 0.0
H697 H 0.48983 0.10406 0.07232 0.0
H698 H 0.49956 0.06698 0.09734 0.0
H699 H 0.58212 0.09106 0.99672 0.0
H700 H 0.6136 0.98466 0.97281 0.0
H701 H 0.60256 0.02087 0.94895 0.0
C702 C 0.45917 0.96038 0.38314 0.0
C703 C 0.44725 0.97033 0.29441 0.0
C704 C 0.4864 0.97683 0.43092 0.0
C705 C 0.55004 0.04726 0.40395 0.0
H706 H 0.57186 0.02725 0.74594 0.0
C707 C 0.63657 0.12861 0.80426 0.0
C708 C 0.6528 0.12179 0.88127 0.0
C709 C 0.6149 0.10824 0.71035 0.0
C710 C 0.56622 0.03319 0.65046 0.0
H711 H 0.45412 0.00639 0.19519 0.0
H712 H 0.5006 0.03691 0.29809 0.0
H713 H 0.52642 0.99794 0.64305 0.0
H714 H 0.65927 0.08823 0.92018 0.0
H715 H 0.62056 0.05185 0.75528 0.0
H716 H 0.58981 0.08414 0.42356 0.0
C717 C 0.4898 0.01536 0.31966 0.0
C718 C 0.5399 0.01594 0.58805 0.0
C719 C 0.46284 -0.00197 0.26253 0.0
C720 C 0.64654 0.09383 0.86516 0.0
C721 C 0.62467 0.07319 0.76946 0.0
C722 C 0.57613 0.06501 0.47019 0.0
C723 C 0.50223 0.00485 0.40318 0.0
C724 C 0.53106 0.02282 0.46482 0.0
C725 C 0.6087 0.08029 0.69045 0.0
C726 C 0.58404 0.05872 0.59845 0.0
H727 H 0.44789 0.93944 0.41299 0.0
H728 H 0.49475 0.96696 0.48841 0.0
H729 H 0.54484 0.05324 0.30699 0.0
H730 H 0.64099 0.14998 0.8129 0.0
H731 H 0.60291 0.11456 0.65419 0.0
C732 C 0.97495 0.55721 0.6314 0.0
C733 C 0.98448 0.58488 0.70127 0.0
C734 C 0.99321 0.54808 0.58645 0.0
C735 C 0.06636 0.5746 0.50681 0.0
H736 H 0.04933 0.50057 0.57327 0.0
C737 C 0.14878 0.54523 0.41937 0.0
C738 C 0.14113 0.51758 0.36092 0.0
C739 C 0.12924 0.55197 0.47302 0.0
C740 C 0.05444 0.52123 0.5528 0.0
H741 H 0.02069 0.62463 0.7781 0.0
H742 H 0.05266 0.60905 0.69683 0.0
H743 H 0.01575 0.5149 0.62899 0.0
H744 H 0.10693 0.4749 0.31933 0.0
H745 H 0.07267 0.48652 0.40919 0.0
H746 H 0.10452 0.58083 0.42645 0.0
C747 C 0.03104 0.59428 0.67653 0.0
C748 C 0.03508 0.52948 0.58456 0.0
C749 C 0.01273 0.60335 0.72288 0.0
C750 C 0.11356 0.49644 0.36481 0.0
C751 C 0.09382 0.50324 0.416 0.0
C752 C 0.08552 0.56628 0.47346 0.0
C753 C 0.02153 0.56642 0.60933 0.0
C754 C 0.04108 0.55657 0.56529 0.0
C755 C 0.10125 0.53136 0.46501 0.0
C756 C 0.08017 0.53967 0.49871 0.0
H757 H 0.95325 0.54226 0.61434 0.0
H758 H 0.98508 0.52664 0.53341 0.0
H759 H 0.0714 0.59532 0.48723 0.0
H760 H 0.16981 0.56209 0.41645 0.0
H761 H 0.13622 0.57366 0.51631 0.0
C762 C 0.55541 0.44887 0.70419 0.0
C763 C 0.5302 0.43212 0.76899 0.0
C764 C 0.56105 0.47365 0.64842 0.0
C765 C 0.53403 0.52369 0.6512 0.0
H766 H 0.58353 0.55017 0.32566 0.0
C767 C 0.54314 0.61088 0.31551 0.0
C768 C 0.5686 0.62862 0.25618 0.0
C769 C 0.53933 0.58864 0.39076 0.0
C770 C 0.56985 0.5434 0.4179 0.0
H771 H 0.49102 0.42831 0.82156 0.0
H772 H 0.50005 0.46992 0.71946 0.0
H773 H 0.57544 0.5085 0.42448 0.0
H774 H 0.61033 0.63736 0.23725 0.0
H775 H 0.60378 0.5992 0.36632 0.0
H776 H 0.52811 0.55844 0.64177 0.0
C777 C 0.51614 0.46497 0.71584 0.0
C778 C 0.56522 0.51926 0.47564 0.0
C779 C 0.51074 0.44062 0.77346 0.0
C780 C 0.5903 0.62409 0.27957 0.0
C781 C 0.58648 0.60191 0.35334 0.0
C782 C 0.53852 0.54772 0.59262 0.0
C783 C 0.54149 0.48225 0.6533 0.0
C784 C 0.54713 0.50877 0.59341 0.0
C785 C 0.5608 0.58331 0.4074 0.0
C786 C 0.55641 0.55798 0.47422 0.0
H787 H 0.57104 0.44322 0.69958 0.0
H788 H 0.58103 0.48626 0.60402 0.0
H789 H 0.52034 0.51706 0.74337 0.0
H790 H 0.52594 0.61366 0.30026 0.0
H791 H 0.51918 0.5749 0.43008 0.0
C792 C 0.10681 0.20083 0.86491 0.0
C793 C 0.09339 0.20103 0.09766 0.0
C794 C 0.11511 0.16883 0.75177 0.0
C795 C 0.10772 0.09043 0.87313 0.0
H796 H 0.18284 0.12637 0.01661 0.0
C797 C 0.16482 0.03426 0.00335 0.0
C798 C 0.18743 0.04919 0.10401 0.0
C799 C 0.14787 0.04483 0.98179 0.0
C800 C 0.16177 0.11584 0.97674 0.0
H801 H 0.08246 0.16637 0.33895 0.0
H802 H 0.10086 0.12365 0.18798 0.0
H803 H 0.16725 0.15337 0.91034 0.0
H804 H 0.20733 0.08424 0.28094 0.0
H805 H 0.17828 0.10354 0.23982 0.0
H806 H 0.10226 0.05277 0.94318 0.0
C807 C 0.10107 0.1384 0.12114 0.0
C808 C 0.15299 0.1312 0.91044 0.0
C809 C 0.08943 0.1674 0.22503 0.0
C810 C 0.19033 0.07261 0.2001 0.0
C811 C 0.17381 0.08374 0.17545 0.0
C812 C 0.11676 0.07462 0.93404 0.0
C813 C 0.11377 0.13724 0.89567 0.0
C814 C 0.12551 0.11914 0.86493 0.0
C815 C 0.15404 0.0712 0.05642 0.0
C816 C 0.14371 0.08747 0.99211 0.0
H817 H 0.10849 0.21671 0.80176 0.0
H818 H 0.1222 0.1696 0.6381 0.0
H819 H 0.08612 0.0808 0.84564 0.0
H820 H 0.16183 0.01573 0.93088 0.0
H821 H 0.1322 0.03401 0.89325 0.0
C822 C 0.01257 0.11729 0.44591 0.0
C823 C 0.00306 0.13615 0.47776 0.0
C824 C 0.99457 0.08822 0.43782 0.0
C825 C 0.91845 0.03523 0.39072 0.0
H826 H 0.94547 0.98361 0.34013 0.0
C827 C 0.86297 0.9089 0.24451 0.0
C828 C 0.86877 0.90187 0.09584 0.0
C829 C 0.87544 0.937 0.31233 0.0
C830 C 0.9376 0.99778 0.35441 0.0
H831 H 0.96788 0.13951 0.54668 0.0
H832 H 0.93697 0.08913 0.54829 0.0
H833 H 0.97554 0.03201 0.44931 0.0
H834 H 0.88988 0.91953 0.89783 0.0
H835 H 0.90966 0.96862 0.01415 0.0
H836 H 0.88001 -0.00013 0.29973 0.0
C837 C 0.95787 0.09633 0.51732 0.0
C838 C 0.95498 0.02588 0.41587 0.0
C839 C 0.9757 0.12545 0.5182 0.0
C840 C 0.88517 0.92394 0.01263 0.0
C841 C 0.8968 0.95205 0.07942 0.0
C842 C 0.90091 0.00688 0.33202 0.0
C843 C 0.96647 0.07692 0.4672 0.0
C844 C 0.94624 0.04563 0.42922 0.0
C845 C 0.89331 0.95882 0.23174 0.0
C846 C 0.91059 0.98812 0.30872 0.0
H847 H 0.0336 0.12484 0.4153 0.0
H848 H 0.00271 0.07485 0.39815 0.0
H849 H 0.91028 0.04903 0.39853 0.0
H850 H 0.85005 0.89267 0.31217 0.0
H851 H 0.87202 0.94159 0.42951 0.0
C852 C 0.96013 0.88649 0.23163 0.0
C853 C 0.9442 0.87518 0.10215 0.0
C854 C 0.98837 0.90496 0.22709 0.0
C855 C 0.07981 0.97108 0.95797 0.0
H856 H 0.12019 0.9908 0.31421 0.0
C857 C 0.16905 0.95288 0.94302 0.0
C858 C 0.18839 0.96594 0.06209 0.0
C859 C 0.14416 0.95195 0.95804 0.0
C860 C 0.10741 0.98092 0.21579 0.0
H861 H 0.94498 0.87299 0.86304 0.0
H862 H 0.98906 0.90329 0.84526 0.0
H863 H 0.07734 0.98661 0.32117 0.0
H864 H 0.19353 0.98038 0.30207 0.0
H865 H 0.15174 0.98094 0.32145 0.0
H866 H 0.11472 0.97233 0.8524 0.0
C867 C 0.98467 0.90109 0.9626 0.0
C868 C 0.0819 0.9788 0.21361 0.0
C869 C 0.95689 0.88202 0.96804 0.0
C870 C 0.17974 0.97168 0.20444 0.0
C871 C 0.15566 0.97249 0.2157 0.0
C872 C 0.10445 0.97124 0.95509 0.0
C873 C 0.00496 0.91714 0.09237 0.0
C874 C 0.06175 0.96155 0.08719 0.0
C875 C 0.13884 0.96521 0.08807 0.0
C876 C 0.11613 0.9713 0.08757 0.0
H877 H 0.95086 0.88053 0.33831 0.0
H878 H -0.00347 0.91011 0.3412 0.0
H879 H 0.07298 0.97166 0.84856 0.0
H880 H 0.17454 0.9468 0.83353 0.0
H881 H 0.13003 0.94278 0.8643 0.0
C882 C 0.04151 0.92863 0.24904 0.0
C883 C 0.04391 0.91366 0.06297 0.0
C884 C 0.03053 0.95476 0.27318 0.0
C885 C 0.02286 0.00828 0.08611 0.0
H886 H 0.94563 0.96054 0.98412 0.0
C887 C 0.92566 0.00487 0.78924 0.0
C888 C 0.92242 0.02352 0.89701 0.0
C889 C 0.94691 -0.00024 0.8085 0.0
C890 C 0.96698 0.97437 0.0152 0.0
H891 H 0.03767 0.91637 0.79133 0.0
H892 H 0.02046 0.95618 0.83069 0.0
H893 H 0.96934 0.94181 0.09783 0.0
H894 H 0.9392 0.05291 0.09925 0.0
H895 H 0.97707 0.04534 0.12869 0.0
H896 H 0.01992 0.04123 0.00643 0.0
C897 C 0.02579 0.95032 0.92813 0.0
C898 C 0.9805 0.96378 0.08275 0.0
C899 C 0.03589 0.92425 0.90376 0.0
C900 C 0.94186 0.03897 0.01418 0.0
C901 C 0.96342 0.03455 0.03098 0.0
C902 C 0.00887 0.01952 0.02644 0.0
C903 C 0.02299 0.96506 0.1105 0.0
C904 C 0.00864 0.98029 0.11387 0.0
C905 C 0.96507 0.01368 0.93414 0.0
C906 C 0.98094 0.00226 0.98643 0.0
H907 H 0.04726 0.92302 0.3459 0.0
H908 H 0.02799 0.96321 0.38438 0.0
H909 H 0.04489 0.02087 0.10259 0.0
H910 H 0.91065 0.99274 0.69814 0.0
H911 H 0.94787 0.98346 0.73273 0.0
C912 C 0.27127 0.17614 0.82608 0.0
C913 C 0.26261 0.18254 0.96729 0.0
C914 C 0.26075 0.1481 0.76076 0.0
C915 C 0.1959 0.08962 0.72854 0.0
H916 H 0.21917 0.03584 0.62218 0.0
C917 C 0.11316 0.97306 0.57172 0.0
C918 C 0.11904 0.95182 0.58224 0.0
C919 C 0.13385 0.00139 0.58812 0.0
C920 C 0.21188 0.05022 0.65084 0.0
H921 H 0.23868 0.16468 0.15733 0.0
H922 H 0.22191 0.1161 0.04724 0.0
H923 H 0.25254 0.08404 0.72337 0.0
H924 H 0.15209 0.94394 0.60384 0.0
H925 H 0.1881 0.99277 0.63319 0.0
H926 H 0.15579 0.05748 0.66453 0.0
C927 C 0.23621 0.13264 0.98596 0.0
C928 C 0.23137 0.07815 0.70845 0.0
C929 C 0.24623 0.16053 0.05005 0.0
C930 C 0.14668 0.95971 0.59664 0.0
C931 C 0.16756 0.98821 0.61358 0.0
C932 C 0.1765 0.06196 0.67315 0.0
C933 C 0.24178 0.12611 0.83715 0.0
C934 C 0.22316 0.09768 0.7548 0.0
C935 C 0.16165 0.00993 0.61105 0.0
C936 C 0.1836 0.04096 0.6416 0.0
H937 H 0.28352 0.19264 0.75863 0.0
H938 H 0.26536 0.14374 0.64565 0.0
H939 H 0.18939 0.10476 0.75506 0.0
H940 H 0.09221 0.96808 0.55989 0.0
H941 H 0.12727 0.01613 0.58016 0.0
C942 C 0.13535 0.18436 0.98266 0.0
C943 C 0.16559 0.20772 0.05245 0.0
C944 C 0.09292 0.16123 0.96334 0.0
C945 C 0.05245 0.16412 0.9024 0.0
H946 H 0.00669 0.09899 0.09582 0.0
C947 C 0.93572 0.1208 0.95754 0.0
C948 C 0.92256 0.10462 0.07394 0.0
C949 C 0.96354 0.13072 0.93337 0.0
C950 C 0.01943 0.11822 0.04841 0.0
H951 H 0.17784 0.23568 0.26769 0.0
H952 H 0.12728 0.21288 0.30993 0.0
H953 H 0.05249 0.11495 0.09764 0.0
H954 H 0.92923 0.08948 0.26615 0.0
H955 H 0.97635 0.10539 0.22051 0.0
H956 H 0.01651 0.1651 0.86487 0.0
C957 C 0.13481 0.20641 0.20848 0.0
C958 C 0.04749 0.1282 0.04689 0.0
C959 C 0.16213 0.21923 0.18967 0.0
C960 C 0.93856 0.10172 0.17535 0.0
C961 C 0.96588 0.11078 0.14835 0.0
C962 C 0.02463 0.1543 0.91595 0.0
C963 C 0.11752 0.18033 0.03294 0.0
C964 C 0.06996 0.15558 0.98646 0.0
C965 C 0.97882 0.12457 0.02484 0.0
C966 C 0.00799 0.13247 0.99574 0.0
H967 H 0.15152 0.18259 0.90276 0.0
H968 H 0.08002 0.13657 0.82551 0.0
H969 H 0.0605 0.1803 0.83121 0.0
H970 H 0.92412 0.12383 0.87735 0.0
H971 H 0.97222 0.14154 0.83719 0.0
C972 C 0.78617 0.57361 0.83764 0.0
C973 C 0.76393 0.55249 0.6845 0.0
C974 C 0.8074 0.56524 0.92504 0.0
C975 C 0.83646 0.5018 0.72833 0.0
H976 H 0.81412 0.45546 0.04983 0.0
C977 C 0.90476 0.44726 0.80263 0.0
C978 C 0.90818 0.43946 0.98295 0.0
C979 C 0.88061 0.45762 0.7683 0.0
C980 C 0.82066 0.46854 0.96094 0.0
H981 H 0.7453 0.50959 0.49117 0.0
H982 H 0.77211 0.48191 0.56691 0.0
H983 H 0.78757 0.47631 0.98908 0.0
H984 H 0.89002 0.43815 0.24501 0.0
H985 H 0.85395 0.45978 0.19565 0.0
H986 H 0.86994 0.49549 0.70224 0.0
C987 C 0.77682 0.50158 0.63337 0.0
C988 C 0.80537 0.48027 0.92483 0.0
C989 C 0.76 0.51983 0.58458 0.0
C990 C 0.88854 0.44356 0.13622 0.0
C991 C 0.86528 0.45633 0.10399 0.0
C992 C 0.85167 0.49029 0.76432 0.0
C993 C 0.80176 0.51575 0.79068 0.0
C994 C 0.81421 0.49834 0.81373 0.0
C995 C 0.86128 0.46255 0.91789 0.0
C996 C 0.84425 0.47395 0.88251 0.0
H997 H 0.78968 0.59418 0.86589 0.0
H998 H 0.82074 0.58066 0.01766 0.0
H999 H 0.84313 0.51486 0.63928 0.0
H1000 H 0.91597 0.44407 0.70944 0.0
H1001 H 0.87803 0.4606 0.65518 0.0
C1002 C 0.57783 0.25456 0.86609 0.0
C1003 C 0.55984 0.24268 0.74029 0.0
C1004 C 0.59604 0.28356 0.8982 0.0
C1005 C 0.61617 0.35255 0.75416 0.0
H1006 H 0.64964 0.38494 0.15282 0.0
C1007 C 0.64734 0.47495 0.90149 0.0
C1008 C 0.67552 0.49872 0.03291 0.0
C1009 C 0.63387 0.43831 0.8843 0.0
C1010 C 0.64041 0.37628 0.04106 0.0
H1011 H 0.54375 0.25324 0.56482 0.0
H1012 H 0.57211 0.30359 0.62929 0.0
H1013 H 0.62936 0.33477 0.07269 0.0
H1014 H 0.70538 0.49868 0.23261 0.0
H1015 H 0.68188 0.43868 0.21348 0.0
H1016 H 0.6299 0.39413 0.71589 0.0
C1017 C 0.5752 0.29062 0.69497 0.0
C1018 C 0.62824 0.34707 0.99433 0.0
C1019 C 0.55826 0.26132 0.65793 0.0
C1020 C 0.68777 0.48467 0.15876 0.0
C1021 C 0.67333 0.44701 0.1448 0.0
C1022 C 0.62866 0.38147 0.79948 0.0
C1023 C 0.5953 0.30254 0.81351 0.0
C1024 C 0.61367 0.33425 0.85425 0.0
C1025 C 0.64673 0.4236 0.99936 0.0
C1026 C 0.6388 0.39353 0.94797 0.0
H1027 H 0.57834 0.24172 0.94049 0.0
H1028 H 0.61032 0.29067 0.99183 0.0
H1029 H 0.60833 0.34484 0.63978 0.0
H1030 H 0.63981 0.48294 0.82432 0.0
H1031 H 0.61827 0.42521 0.7981 0.0
C1032 C 0.84625 0.32278 0.59577 0.0
C1033 C 0.86137 0.31921 0.69784 0.0
C1034 C 0.81775 0.30562 0.59229 0.0
C1035 C 0.74701 0.28202 0.03567 0.0
H1036 H 0.71031 0.31108 0.8467 0.0
C1037 C 0.63778 0.21469 0.82359 0.0
C1038 C 0.61943 0.21895 0.91652 0.0
C1039 C 0.66557 0.23479 0.83343 0.0
C1040 C 0.72013 0.30159 0.89538 0.0
H1041 H 0.85929 0.28776 0.82212 0.0
H1042 H 0.81045 0.25826 0.79307 0.0
H1043 H 0.75855 0.33287 0.84338 0.0
H1044 H 0.6156 0.24906 0.07931 0.0
H1045 H 0.66473 0.28329 0.10414 0.0
H1046 H 0.7082 0.25392 0.11867 0.0
C1047 C 0.81926 0.27815 0.74954 0.0
C1048 C 0.74848 0.31302 0.88793 0.0
C1049 C 0.84798 0.29422 0.76072 0.0
C1050 C 0.62941 0.24432 0.01404 0.0
C1051 C 0.65729 0.26423 0.02562 0.0
C1052 C 0.7189 0.26986 0.04708 0.0
C1053 C 0.80339 0.29175 0.72533 0.0
C1054 C 0.76174 0.29622 0.90428 0.0
C1055 C 0.67545 0.25926 0.93687 0.0
C1056 C 0.70498 0.2775 0.96157 0.0
H1057 H 0.85593 0.33923 0.52474 0.0
H1058 H 0.8079 0.30807 0.49987 0.0
H1059 H 0.75507 0.27573 0.11949 0.0
H1060 H 0.63069 0.1959 0.74295 0.0
H1061 H 0.67949 0.23096 0.76261 0.0
C1062 C 0.67604 0.23581 0.35133 0.0
C1063 C 0.66074 0.20981 0.26032 0.0
C1064 C 0.66385 0.25175 0.40552 0.0
C1065 C 0.59602 0.25044 0.37041 0.0
H1066 H 0.64452 0.32937 0.34642 0.0
C1067 C 0.55763 0.31391 0.09721 0.0
C1068 C 0.5703 0.34337 0.12769 0.0
C1069 C 0.56644 0.29889 0.16905 0.0
C1070 C 0.63074 0.30732 0.35403 0.0
H1071 H 0.6197 0.17773 0.18295 0.0
H1072 H 0.59859 0.20399 0.27748 0.0
H1073 H 0.66362 0.30041 0.3881 0.0
H1074 H 0.59856 0.38024 0.27331 0.0
H1075 H 0.59845 0.32998 0.31724 0.0
H1076 H 0.56373 0.25858 0.33612 0.0
C1077 C 0.62008 0.21356 0.30475 0.0
C1078 C 0.64163 0.29052 0.38006 0.0
C1079 C 0.63229 0.19802 0.24933 0.0
C1080 C 0.59029 0.35827 0.24486 0.0
C1081 C 0.60146 0.34659 0.32512 0.0
C1082 C 0.58544 0.26727 0.34325 0.0
C1083 C 0.63597 0.24178 0.37208 0.0
C1084 C 0.62449 0.26128 0.38264 0.0
C1085 C 0.59013 0.31438 0.28117 0.0
C1086 C 0.6025 0.29548 0.3286 0.0
H1087 H 0.69792 0.24518 0.36725 0.0
H1088 H 0.67683 0.27256 0.46493 0.0
H1089 H 0.5816 0.22864 0.37566 0.0
H1090 H 0.54158 0.3025 0.01078 0.0
H1091 H 0.55718 0.27657 0.13431 0.0
C1092 C 0.78811 0.27744 0.95745 0.0
C1093 C 0.76288 0.25646 0.80699 0.0
C1094 C 0.80739 0.31457 0.96565 0.0
C1095 C 0.83424 0.376 0.73196 0.0
H1096 H 0.84116 0.4088 0.13888 0.0
C1097 C 0.91545 0.52672 0.95497 0.0
C1098 C 0.91917 0.5368 0.10719 0.0
C1099 C 0.91734 0.50332 0.90264 0.0
C1100 C 0.84237 0.40317 0.01966 0.0
H1101 H 0.74144 0.26074 0.58057 0.0
H1102 H 0.77351 0.32059 0.58901 0.0
H1103 H 0.80931 0.36453 0.07486 0.0
H1104 H 0.93313 0.53169 0.31284 0.0
H1105 H 0.92747 0.48701 0.21811 0.0
H1106 H 0.86544 0.41033 0.66122 0.0
C1107 C 0.77715 0.3105 0.6723 0.0
C1108 C 0.82199 0.37555 0.98546 0.0
C1109 C 0.7577 0.27306 0.66488 0.0
C1110 C 0.92483 0.52236 0.19966 0.0
C1111 C 0.92078 0.49573 0.1407 0.0
C1112 C 0.85517 0.4039 0.76493 0.0
C1113 C 0.80231 0.33135 0.82495 0.0
C1114 C 0.81845 0.36166 0.84365 0.0
C1115 C 0.90625 0.48002 0.99267 0.0
C1116 C 0.86298 0.42206 0.91607 0.0
H1117 H 0.79064 0.26769 0.04655 0.0
H1118 H 0.82225 0.32695 0.05677 0.0
H1119 H 0.83149 0.36524 0.61858 0.0
H1120 H 0.91276 0.53772 0.87517 0.0
H1121 H 0.92084 0.50141 0.78326 0.0
C1122 C 0.59825 0.42976 0.28157 0.0
C1123 C 0.58623 0.44463 0.24985 0.0
C1124 C 0.62462 0.43715 0.23026 0.0
C1125 C 0.68927 0.47706 0.77852 0.0
H1126 H 0.74571 0.47076 0.92757 0.0
C1127 C 0.83947 0.5615 0.75909 0.0
C1128 C 0.84255 0.55395 0.93013 0.0
C1129 C 0.80781 0.55163 0.68344 0.0
C1130 C 0.73059 0.47577 0.89965 0.0
H1131 H 0.59727 0.48663 0.22979 0.0
H1132 H 0.63973 0.50059 0.14962 0.0
H1133 H 0.69929 0.43683 0.95656 0.0
H1134 H 0.82325 0.53453 0.15693 0.0
H1135 H 0.76943 0.51198 0.10696 0.0
H1136 H 0.71699 0.51335 0.69929 0.0
C1137 C 0.63032 0.47928 0.17473 0.0
C1138 C 0.70275 0.45584 0.91747 0.0
C1139 C 0.60465 0.47222 0.23258 0.0
C1140 C 0.81704 0.53634 0.04905 0.0
C1141 C 0.78296 0.52268 0.02 0.0
C1142 C 0.71592 0.49938 0.76968 0.0
C1143 C 0.64072 0.45927 0.13089 0.0
C1144 C 0.68115 0.46319 0.91386 0.0
C1145 C 0.76978 0.5253 0.85556 0.0
C1146 C 0.73832 0.50121 0.84466 0.0
H1147 H 0.58588 0.41058 0.32967 0.0
H1148 H 0.63057 0.42286 0.25918 0.0
H1149 H 0.67479 0.47553 0.69762 0.0
H1150 H 0.82872 0.5609 0.66274 0.0
H1151 H 0.79325 0.54296 0.72313 0.0
C1152 C 0.52486 0.72418 0.81818 0.0
C1153 C 0.55216 0.73914 0.87078 0.0
C1154 C 0.51005 0.73768 0.80484 0.0
C1155 C 0.50544 0.79786 0.97764 0.0
H1156 H 0.46384 0.78573 0.62768 0.0
C1157 C 0.47566 0.9083 0.93413 0.0
C1158 C 0.44811 0.89798 0.91168 0.0
C1159 C 0.48679 0.89258 0.8663 0.0
C1160 C 0.47537 0.79219 0.73293 0.0
H1161 H 0.58623 0.78102 0.93821 0.0
H1162 H 0.55983 0.80454 0.92826 0.0
H1163 H 0.48589 0.76147 0.63561 0.0
H1164 H 0.41416 0.87046 0.75673 0.0
H1165 H 0.43496 0.84663 0.63619 0.0
H1166 H 0.49184 0.82188 0.09457 0.0
C1167 C 0.54979 0.78205 0.89616 0.0
C1168 C 0.48856 0.77659 0.73261 0.0
C1169 C 0.56481 0.76852 0.90346 0.0
C1170 C 0.43458 0.87664 0.79434 0.0
C1171 C 0.44663 0.86126 0.73348 0.0
C1172 C 0.491 0.81213 0.98098 0.0
C1173 C 0.52204 0.76674 0.84865 0.0
C1174 C 0.50565 0.781 0.85093 0.0
C1175 C 0.46954 0.86188 0.81259 0.0
C1176 C 0.47915 0.81645 0.84817 0.0
H1177 H 0.51499 0.70202 0.78728 0.0
H1178 H 0.48883 0.72515 0.76629 0.0
H1179 H 0.51614 0.79962 0.07805 0.0
H1180 H 0.48828 0.92767 0.00793 0.0
H1181 H 0.5089 0.90385 0.88014 0.0
C1182 C 0.17704 0.57317 0.79398 0.0
C1183 C 0.16944 0.55476 0.89648 0.0
C1184 C 0.18513 0.6011 0.84333 0.0
C1185 C 0.26213 0.68371 0.22648 0.0
H1186 H 0.3083 0.71645 0.90043 0.0
C1187 C 0.34674 0.80971 0.34844 0.0
C1188 C 0.34436 0.82679 0.19606 0.0
C1189 C 0.33524 0.7734 0.32083 0.0
C1190 C 0.29592 0.70758 0.99513 0.0
H1191 H 0.15529 0.55003 0.12178 0.0
H1192 H 0.1759 0.59822 0.21017 0.0
H1193 H 0.26735 0.68101 0.84526 0.0
H1194 H 0.32927 0.8169 0.92633 0.0
H1195 H 0.3089 0.75806 0.88015 0.0
H1196 H 0.29285 0.72004 0.36673 0.0
C1197 C 0.17856 0.59367 0.09173 0.0
C1198 C 0.26992 0.68486 0.96673 0.0
C1199 C 0.1661 0.56455 0.04286 0.0
C1200 C 0.33016 0.80673 0.01796 0.0
C1201 C 0.31841 0.77007 0.9876 0.0
C1202 C 0.28739 0.70922 0.25301 0.0
C1203 C 0.19765 0.61532 0.99822 0.0
C1204 C 0.24888 0.66784 0.07616 0.0
C1205 C 0.32086 0.7528 0.14465 0.0
C1206 C 0.30375 0.72193 0.13545 0.0
H1207 H 0.17722 0.56626 0.67629 0.0
H1208 H 0.18764 0.61153 0.74611 0.0
H1209 H 0.25305 0.67764 0.33311 0.0
H1210 H 0.3557 0.82185 0.4565 0.0
H1211 H 0.336 0.76359 0.41448 0.0
C1212 C 0.51307 0.65321 0.67582 0.0
C1213 C 0.52651 0.63978 0.70615 0.0
C1214 C 0.48804 0.64654 0.74043 0.0
C1215 C 0.41516 0.60106 0.1589 0.0
H1216 H 0.37458 0.63105 0.04052 0.0
C1217 C 0.26574 0.52343 0.0124 0.0
C1218 C 0.26604 0.54593 0.90918 0.0
C1219 C 0.29354 0.52723 0.08893 0.0
C1220 C 0.38482 0.61971 0.055 0.0
H1221 H 0.52028 0.60241 0.7811 0.0
H1222 H 0.4763 0.58661 0.85233 0.0
H1223 H 0.42263 0.65715 0.05563 0.0
H1224 H 0.28996 0.58742 0.7873 0.0
H1225 H 0.34301 0.60835 0.86514 0.0
H1226 H 0.38038 0.56631 0.20442 0.0
C1227 C 0.48553 0.60763 0.82283 0.0
C1228 C 0.41378 0.63512 0.06459 0.0
C1229 C 0.51154 0.61535 0.76889 0.0
C1230 C 0.29406 0.57585 0.85883 0.0
C1231 C 0.3281 0.58965 0.91066 0.0
C1232 C 0.38676 0.58375 0.14609 0.0
C1233 C 0.47331 0.62625 0.8522 0.0
C1234 C 0.4302 0.6211 0.05251 0.0
C1235 C 0.33828 0.57309 0.0259 0.0
C1236 C 0.36999 0.59102 0.07231 0.0
H1237 H 0.52299 0.67084 0.61234 0.0
H1238 H 0.48191 0.65979 0.6986 0.0
H1239 H 0.42481 0.59509 0.23593 0.0
H1240 H 0.24725 0.50443 0.01864 0.0
H1241 H 0.28998 0.5106 0.15431 0.0
C1242 C 0.21917 0.65438 0.87588 0.0
C1243 C 0.20517 0.66056 0.05057 0.0
C1244 C 0.23728 0.63398 0.86961 0.0
C1245 C 0.24611 0.58774 0.1501 0.0
H1246 H 0.32372 0.62746 0.09212 0.0
C1247 C 0.33381 0.54916 0.24147 0.0
C1248 C 0.33683 0.53057 0.07792 0.0
C1249 C 0.31767 0.56801 0.26239 0.0
C1250 C 0.30187 0.61587 0.10691 0.0
H1251 H 0.20087 0.65198 0.31719 0.0
H1252 H 0.22931 0.62313 0.31101 0.0
H1253 H 0.29584 0.64585 0.013 0.0
H1254 H 0.32768 0.51536 0.80838 0.0
H1255 H 0.29829 0.53688 0.75433 0.0
H1256 H 0.25168 0.55732 0.23965 0.0
C1257 C 0.22669 0.62952 0.20778 0.0
C1258 C 0.28599 0.62603 0.05757 0.0
C1259 C 0.20894 0.64802 0.21159 0.0
C1260 C 0.3244 0.52723 0.90394 0.0
C1261 C 0.30569 0.541 0.87086 0.0
C1262 C 0.2617 0.57688 0.19249 0.0
C1263 C 0.24077 0.62251 0.04141 0.0
C1264 C 0.25753 0.61054 0.06777 0.0
C1265 C 0.30072 0.56962 0.11369 0.0
C1266 C 0.28883 0.58868 0.15019 0.0
H1267 H 0.21725 0.66234 0.77688 0.0
H1268 H 0.24624 0.63006 0.7674 0.0
H1269 H 0.22468 0.57754 0.17565 0.0
H1270 H 0.34192 0.54761 0.34403 0.0
H1271 H 0.31767 0.57872 0.37217 0.0
C1272 C 0.42773 0.60867 0.79639 0.0
C1273 C 0.43305 0.58613 0.89891 0.0
C1274 C 0.44645 0.64641 0.8536 0.0
C1275 C 0.51284 0.70273 0.14884 0.0
H1276 H 0.48186 0.75034 0.15998 0.0
C1277 C 0.53421 0.82244 0.38195 0.0
C1278 C 0.55916 0.83837 0.31242 0.0
C1279 C 0.52128 0.79309 0.36658 0.0
C1280 C 0.49078 0.73727 0.1598 0.0
H1281 H 0.46039 0.58844 0.12261 0.0
H1282 H 0.48962 0.64661 0.20791 0.0
H1283 H 0.45639 0.70213 0.03307 0.0
H1284 H 0.59337 0.83657 0.20918 0.0
H1285 H 0.57267 0.7859 0.20379 0.0
H1286 H 0.54784 0.73822 0.2687 0.0
C1287 C 0.4759 0.6383 0.11046 0.0
C1288 C 0.4761 0.70948 0.08535 0.0
C1289 C 0.45765 0.6016 0.05625 0.0
C1290 C 0.57393 0.82508 0.26166 0.0
C1291 C 0.56156 0.79571 0.25416 0.0
C1292 C 0.52777 0.73061 0.21975 0.0
C1293 C 0.47096 0.66115 0.01363 0.0
C1294 C 0.48688 0.6917 0.07883 0.0
C1295 C 0.53384 0.77911 0.28987 0.0
C1296 C 0.51705 0.74843 0.22663 0.0
H1297 H 0.41234 0.59964 0.70665 0.0
H1298 H 0.44265 0.65995 0.7961 0.0
H1299 H 0.52217 0.69 0.14612 0.0
H1300 H 0.5225 0.83207 0.42466 0.0
H1301 H 0.50038 0.78129 0.40121 0.0
C1302 C 0.26968 0.79154 0.37174 0.0
C1303 C 0.24911 0.76357 0.33798 0.0
C1304 C 0.29675 0.80049 0.32416 0.0
C1305 C 0.36665 0.77765 0.00591 0.0
H1306 H 0.42839 0.84961 0.12658 0.0
C1307 C 0.47999 0.83569 0.63449 0.0
C1308 C 0.50825 0.85888 0.76524 0.0
C1309 C 0.44566 0.8151 0.70793 0.0
C1310 C 0.41127 0.82888 0.08977 0.0
H1311 H 0.23995 0.72445 0.21363 0.0
H1312 H 0.27468 0.7424 0.06807 0.0
H1313 H 0.39091 0.83686 0.25766 0.0
H1314 H 0.51811 0.87615 0.04249 0.0
H1315 H 0.46613 0.84733 0.14828 0.0
H1316 H 0.39303 0.77048 0.85024 0.0
C1317 C 0.27862 0.75757 0.16655 0.0
C1318 C 0.38689 0.82084 0.16426 0.0
C1319 C 0.25566 0.74611 0.24944 0.0
C1320 C 0.50219 0.86246 0.96197 0.0
C1321 C 0.46887 0.84393 0.02912 0.0
C1322 C 0.39145 0.78538 0.93492 0.0
C1323 C 0.30546 0.78357 0.21525 0.0
C1324 C 0.35949 0.79561 0.11971 0.0
C1325 C 0.44084 0.82021 0.90674 0.0
C1326 C 0.41386 0.81137 0.97362 0.0
H1327 H 0.26528 0.80652 0.436 0.0
H1328 H 0.31047 0.82179 0.37571 0.0
H1329 H 0.35242 0.7563 0.95747 0.0
H1330 H 0.48334 0.83263 0.51598 0.0
H1331 H 0.42835 0.80103 0.632 0.0
loop_
_geom_bond_atom_site_label_1
_geom_bond_atom_site_label_2
_geom_bond_distance
_geom_bond_site_symmetry_2
_ccdc_geom_bond_type
Co0 O1 2.216 . S
Co0 O2 2.091 1_554 S
Co0 O4 2.004 1_554 S
Co0 O10 2.021 . S
Co0 O12 2.137 . S
Co0 O13 2.244 . S
O1 Co0 2.216 . S
O1 C8 1.247 . S
O2 Co0 2.091 1_556 S
O2 C8 1.261 1_556 S
C3 O12 1.247 . S
C3 O13 1.272 . S
O4 Co0 2.004 1_556 S
O4 C9 1.259 . S
Co5 O6 2.061 . S
Co5 O11 2.052 . S
Co5 O13 2.135 . S
O6 Co5 2.061 . S
O6 C9 1.235 1_554 S
C7 O10 1.238 . S
C7 O11 1.241 . S
C8 O1 1.247 . S
C8 O2 1.261 1_554 S
C9 O4 1.259 . S
C9 O6 1.235 1_556 S
O10 Co0 2.021 . S
O10 C7 1.238 . S
O11 Co5 2.052 . S
O11 C7 1.241 . S
O12 Co0 2.137 . S
O12 C3 1.247 . S
O13 Co0 2.244 . S
O13 C3 1.272 . S
O13 Co5 2.135 . S
Co14 O15 2.216 . S
Co14 O16 2.091 . S
Co14 O18 2.004 . S
Co14 O24 2.021 . S
Co14 O26 2.137 . S
Co14 O27 2.244 1_554 S
O15 Co14 2.216 . S
O15 C22 1.247 . S
O16 Co14 2.091 . S
O16 C22 1.261 . S
C17 O26 1.247 . S
C17 O27 1.272 1_554 S
O18 Co14 2.004 . S
O18 C23 1.259 . S
Co19 O20 2.061 1_556 S
Co19 O25 2.052 . S
Co19 O27 2.135 . S
O20 Co19 2.061 1_554 S
O20 C23 1.235 . S
C21 O24 1.238 1_556 S
C21 O25 1.241 . S
C22 O15 1.247 . S
C22 O16 1.261 . S
C23 O18 1.259 . S
C23 O20 1.235 . S
O24 Co14 2.021 . S
O24 C21 1.238 1_554 S
O25 Co19 2.052 . S
O25 C21 1.241 . S
O26 Co14 2.137 . S
O26 C17 1.247 . S
O27 Co14 2.244 1_556 S
O27 C17 1.272 1_556 S
O27 Co19 2.135 . S
Co28 O29 2.216 1_545 S
Co28 O30 2.091 . S
Co28 O32 2.004 . S
Co28 O38 2.021 1_545 S
Co28 O40 2.137 . S
Co28 O41 2.244 1_554 S
O29 Co28 2.216 1_565 S
O29 C36 1.247 . S
O30 Co28 2.091 . S
O30 C36 1.261 1_545 S
C31 O40 1.247 . S
C31 O41 1.272 1_554 S
O32 Co28 2.004 . S
O32 C37 1.259 . S
Co33 O34 2.061 . S
Co33 O39 2.052 . S
Co33 O41 2.135 . S
O34 Co33 2.061 . S
O34 C37 1.235 1_556 S
C35 O38 1.238 1_556 S
C35 O39 1.241 1_565 S
C36 O29 1.247 . S
C36 O30 1.261 1_565 S
C37 O32 1.259 . S
C37 O34 1.235 1_554 S
O38 Co28 2.021 1_565 S
O38 C35 1.238 1_554 S
O39 Co33 2.052 . S
O39 C35 1.241 1_545 S
O40 Co28 2.137 . S
O40 C31 1.247 . S
O41 Co28 2.244 1_556 S
O41 C31 1.272 1_556 S
O41 Co33 2.135 . S
Co42 O43 2.216 . S
Co42 O44 2.091 1_556 S
Co42 O46 2.004 1_556 S
Co42 O52 2.021 . S
Co42 O54 2.137 . S
Co42 O55 2.244 . S
O43 Co42 2.216 . S
O43 C50 1.247 . S
O44 Co42 2.091 1_554 S
O44 C50 1.261 1_554 S
C45 O54 1.247 . S
C45 O55 1.272 . S
O46 Co42 2.004 1_554 S
O46 C51 1.259 . S
Co47 O48 2.054 1_556 S
Co47 O53 2.052 . S
Co47 O55 2.135 . S
O48 Co47 2.054 1_554 S
O48 C51 1.241 . S
C49 O52 1.238 . S
C49 O53 1.241 . S
C50 O43 1.247 . S
C50 O44 1.261 1_556 S
C51 O46 1.259 . S
C51 O48 1.241 . S
O52 Co42 2.021 . S
O52 C49 1.238 . S
O53 Co47 2.052 . S
O53 C49 1.241 . S
O54 Co42 2.137 . S
O54 C45 1.247 . S
O55 Co42 2.244 . S
O55 C45 1.272 . S
O55 Co47 2.135 . S
Co56 O57 2.216 . S
Co56 O58 2.091 . S
Co56 O60 2.004 . S
Co56 O66 2.021 . S
Co56 O68 2.137 . S
Co56 O69 2.244 1_556 S
O57 Co56 2.216 . S
O57 C64 1.247 . S
O58 Co56 2.091 . S
O58 C64 1.261 . S
C59 O68 1.247 . S
C59 O69 1.272 1_556 S
O60 Co56 2.004 . S
O60 C65 1.259 . S
Co61 O62 2.061 . S
Co61 O67 2.052 . S
Co61 O69 2.135 . S
O62 Co61 2.061 . S
O62 C65 1.235 1_554 S
C63 O66 1.238 1_554 S
C63 O67 1.241 . S
C64 O57 1.247 . S
C64 O58 1.261 . S
C65 O60 1.259 . S
C65 O62 1.235 1_556 S
O66 Co56 2.021 . S
O66 C63 1.238 1_556 S
O67 Co61 2.052 . S
O67 C63 1.241 . S
O68 Co56 2.137 . S
O68 C59 1.247 . S
O69 Co56 2.244 1_554 S
O69 C59 1.272 1_554 S
O69 Co61 2.135 . S
Co70 O71 2.216 . S
Co70 O72 2.091 . S
Co70 O74 2.004 . S
Co70 O80 2.021 1_556 S
Co70 O82 2.137 . S
Co70 O83 2.244 1_556 S
O71 Co70 2.216 . S
O71 C78 1.247 . S
O72 Co70 2.091 . S
O72 C78 1.261 . S
C73 O82 1.247 . S
C73 O83 1.272 1_556 S
O74 Co70 2.004 . S
O74 C79 1.259 . S
Co75 O76 2.061 . S
Co75 O81 2.052 . S
Co75 O83 2.135 . S
O76 Co75 2.061 . S
O76 C79 1.235 1_554 S
C77 O80 1.238 . S
C77 O81 1.241 . S
C78 O71 1.247 . S
C78 O72 1.261 . S
C79 O74 1.259 . S
C79 O76 1.235 1_556 S
O80 Co70 2.021 1_554 S
O80 C77 1.238 . S
O81 Co75 2.052 . S
O81 C77 1.241 . S
O82 Co70 2.137 . S
O82 C73 1.247 . S
O83 Co70 2.244 1_554 S
O83 C73 1.272 1_554 S
O83 Co75 2.135 . S
Co84 O85 2.216 . S
Co84 O86 2.091 . S
Co84 O88 2.004 . S
Co84 O94 2.021 1_554 S
Co84 O96 2.137 . S
Co84 O97 2.244 1_554 S
O85 Co84 2.216 . S
O85 C92 1.247 . S
O86 Co84 2.091 . S
O86 C92 1.261 . S
C87 O96 1.247 1_556 S
C87 O97 1.272 . S
O88 Co84 2.004 . S
O88 C93 1.259 . S
Co89 O90 2.061 . S
Co89 O95 2.052 . S
Co89 O97 2.135 . S
O90 Co89 2.061 . S
O90 C93 1.235 1_556 S
C91 O94 1.238 . S
C91 O95 1.241 . S
C92 O85 1.247 . S
C92 O86 1.261 . S
C93 O88 1.259 . S
C93 O90 1.235 1_554 S
O94 Co84 2.021 1_556 S
O94 C91 1.238 . S
O95 Co89 2.052 . S
O95 C91 1.241 . S
O96 Co84 2.137 . S
O96 C87 1.247 1_554 S
O97 Co84 2.244 1_556 S
O97 C87 1.272 . S
O97 Co89 2.135 . S
Co98 O99 2.216 . S
Co98 O100 2.091 . S
Co98 O102 2.004 . S
Co98 O108 2.021 1_554 S
Co98 O110 2.137 . S
Co98 O111 2.244 1_554 S
O99 Co98 2.216 . S
O99 C106 1.247 . S
O100 Co98 2.091 . S
O100 C106 1.261 . S
C101 O110 1.247 1_556 S
C101 O111 1.272 . S
O102 Co98 2.004 . S
O102 C107 1.259 . S
Co103 O104 2.061 . S
Co103 O109 2.052 . S
Co103 O111 2.135 . S
O104 Co103 2.061 . S
O104 C107 1.235 1_556 S
C105 O108 1.238 . S
C105 O109 1.241 . S
C106 O99 1.247 . S
C106 O100 1.261 . S
C107 O102 1.259 . S
C107 O104 1.235 1_554 S
O108 Co98 2.021 1_556 S
O108 C105 1.238 . S
O109 Co103 2.052 . S
O109 C105 1.241 . S
O110 Co98 2.137 . S
O110 C101 1.247 1_554 S
O111 Co98 2.244 1_556 S
O111 C101 1.272 . S
O111 Co103 2.135 . S
Co112 O113 2.216 . S
Co112 O114 2.091 . S
Co112 O116 2.004 . S
Co112 O122 2.021 1_554 S
Co112 O124 2.137 . S
Co112 O125 2.244 1_554 S
O113 Co112 2.216 . S
O113 C120 1.247 . S
O114 Co112 2.091 . S
O114 C120 1.261 . S
C115 O124 1.247 1_556 S
C115 O125 1.272 . S
O116 Co112 2.004 . S
O116 C121 1.259 . S
Co117 O118 2.061 . S
Co117 O123 2.052 . S
Co117 O125 2.135 . S
O118 Co117 2.061 . S
O118 C121 1.235 1_556 S
C119 O122 1.238 . S
C119 O123 1.241 . S
C120 O113 1.247 . S
C120 O114 1.261 . S
C121 O116 1.259 . S
C121 O118 1.235 1_554 S
O122 Co112 2.021 1_556 S
O122 C119 1.238 . S
O123 Co117 2.052 . S
O123 C119 1.241 . S
O124 Co112 2.137 . S
O124 C115 1.247 1_554 S
O125 Co112 2.244 1_556 S
O125 C115 1.272 . S
O125 Co117 2.135 . S
Co126 O127 2.216 1_554 S
Co126 O128 2.091 . S
Co126 O130 2.004 . S
Co126 O136 2.021 . S
Co126 O138 2.137 1_554 S
Co126 O139 2.244 1_554 S
O127 Co126 2.216 1_556 S
O127 C134 1.247 1_556 S
O128 Co126 2.091 . S
O128 C134 1.261 . S
C129 O138 1.247 . S
C129 O139 1.272 . S
O130 Co126 2.004 . S
O130 C135 1.259 . S
Co131 O132 2.061 1_556 S
Co131 O137 2.052 . S
Co131 O139 2.135 . S
O132 Co131 2.061 1_554 S
O132 C135 1.235 . S
C133 O136 1.238 1_556 S
C133 O137 1.241 . S
C134 O127 1.247 1_554 S
C134 O128 1.261 . S
C135 O130 1.259 . S
C135 O132 1.235 . S
O136 Co126 2.021 . S
O136 C133 1.238 1_554 S
O137 Co131 2.052 . S
O137 C133 1.241 . S
O138 Co126 2.137 1_556 S
O138 C129 1.247 . S
O139 Co126 2.244 1_556 S
O139 C129 1.272 . S
O139 Co131 2.135 . S
Co140 O141 2.216 . S
Co140 O142 2.091 . S
Co140 O144 2.004 . S
Co140 O150 2.021 1_556 S
Co140 O152 2.137 . S
Co140 O153 2.244 1_556 S
O141 Co140 2.216 . S
O141 C148 1.247 . S
O142 Co140 2.091 . S
O142 C148 1.261 . S
C143 O152 1.247 1_554 S
C143 O153 1.272 . S
O144 Co140 2.004 . S
O144 C149 1.259 . S
Co145 O146 2.061 . S
Co145 O151 2.052 . S
Co145 O153 2.135 . S
O146 Co145 2.061 . S
O146 C149 1.235 1_554 S
C147 O150 1.238 . S
C147 O151 1.241 . S
C148 O141 1.247 . S
C148 O142 1.261 . S
C149 O144 1.259 . S
C149 O146 1.235 1_556 S
O150 Co140 2.021 1_554 S
O150 C147 1.238 . S
O151 Co145 2.052 . S
O151 C147 1.241 . S
O152 Co140 2.137 . S
O152 C143 1.247 1_556 S
O153 Co140 2.244 1_554 S
O153 C143 1.272 . S
O153 Co145 2.135 . S
Co154 O155 2.216 1_554 S
Co154 O156 2.091 . S
Co154 O158 2.004 . S
Co154 O164 2.021 . S
Co154 O166 2.137 1_554 S
Co154 O167 2.244 1_554 S
O155 Co154 2.216 1_556 S
O155 C162 1.247 1_556 S
O156 Co154 2.091 . S
O156 C162 1.261 . S
C157 O166 1.247 . S
C157 O167 1.272 . S
O158 Co154 2.004 . S
O158 C163 1.259 . S
Co159 O160 2.061 1_556 S
Co159 O165 2.052 . S
Co159 O167 2.135 . S
O160 Co159 2.061 1_554 S
O160 C163 1.235 . S
C161 O164 1.238 1_556 S
C161 O165 1.241 . S
C162 O155 1.247 1_554 S
C162 O156 1.261 . S
C163 O158 1.259 . S
C163 O160 1.235 . S
O164 Co154 2.021 . S
O164 C161 1.238 1_554 S
O165 Co159 2.052 . S
O165 C161 1.241 . S
O166 Co154 2.137 1_556 S
O166 C157 1.247 . S
O167 Co154 2.244 1_556 S
O167 C157 1.272 . S
O167 Co159 2.135 . S
Co168 O169 2.216 . S
Co168 O170 2.091 1_554 S
Co168 O172 2.004 1_554 S
Co168 O178 2.021 . S
Co168 O180 2.137 . S
Co168 O181 2.244 . S
O169 Co168 2.216 . S
O169 C176 1.247 1_554 S
O170 Co168 2.091 1_556 S
O170 C176 1.261 . S
C171 O180 1.247 . S
C171 O181 1.272 . S
O172 Co168 2.004 1_556 S
O172 C177 1.259 . S
Co173 O174 2.061 1_554 S
Co173 O179 2.052 . S
Co173 O181 2.135 . S
O174 Co173 2.061 1_556 S
O174 C177 1.235 . S
C175 O178 1.238 . S
C175 O179 1.241 . S
C176 O169 1.247 1_556 S
C176 O170 1.261 . S
C177 O172 1.259 . S
C177 O174 1.235 . S
O178 Co168 2.021 . S
O178 C175 1.238 . S
O179 Co173 2.052 . S
O179 C175 1.241 . S
O180 Co168 2.137 . S
O180 C171 1.247 . S
O181 Co168 2.244 . S
O181 C171 1.272 . S
O181 Co173 2.135 . S
Co182 O183 2.216 . S
Co182 O184 2.091 . S
Co182 O186 2.004 . S
Co182 O192 2.021 1_554 S
Co182 O194 2.137 . S
Co182 O195 2.244 1_554 S
O183 Co182 2.216 . S
O183 C190 1.247 . S
O184 Co182 2.091 . S
O184 C190 1.261 . S
C185 O194 1.247 . S
C185 O195 1.272 1_554 S
O186 Co182 2.004 . S
O186 C191 1.259 . S
Co187 O188 2.061 . S
Co187 O193 2.052 . S
Co187 O195 2.135 . S
O188 Co187 2.061 . S
O188 C191 1.235 1_556 S
C189 O192 1.238 . S
C189 O193 1.241 . S
C190 O183 1.247 . S
C190 O184 1.261 . S
C191 O186 1.259 . S
C191 O188 1.235 1_554 S
O192 Co182 2.021 1_556 S
O192 C189 1.238 . S
O193 Co187 2.052 . S
O193 C189 1.241 . S
O194 Co182 2.137 . S
O194 C185 1.247 . S
O195 Co182 2.244 1_556 S
O195 C185 1.272 1_556 S
O195 Co187 2.135 . S
Co196 O197 2.216 . S
Co196 O198 2.091 . S
Co196 O200 2.004 . S
Co196 O206 2.021 1_554 S
Co196 O208 2.137 . S
Co196 O209 2.244 1_554 S
O197 Co196 2.216 . S
O197 C204 1.247 . S
O198 Co196 2.091 . S
O198 C204 1.261 . S
C199 O208 1.247 . S
C199 O209 1.272 1_554 S
O200 Co196 2.004 . S
O200 C205 1.259 . S
Co201 O202 2.061 . S
Co201 O207 2.052 . S
Co201 O209 2.135 . S
O202 Co201 2.061 . S
O202 C205 1.235 1_556 S
C203 O206 1.238 . S
C203 O207 1.241 . S
C204 O197 1.247 . S
C204 O198 1.261 . S
C205 O200 1.259 . S
C205 O202 1.235 1_554 S
O206 Co196 2.021 1_556 S
O206 C203 1.238 . S
O207 Co201 2.052 . S
O207 C203 1.241 . S
O208 Co196 2.137 . S
O208 C199 1.247 . S
O209 Co196 2.244 1_556 S
O209 C199 1.272 1_556 S
O209 Co201 2.135 . S
Co210 O211 2.216 1_554 S
Co210 O212 2.091 . S
Co210 O214 2.004 . S
Co210 O220 2.021 . S
Co210 O222 2.137 1_554 S
Co210 O223 2.244 1_554 S
O211 Co210 2.216 1_556 S
O211 C218 1.247 1_556 S
O212 Co210 2.091 . S
O212 C218 1.261 . S
C213 O222 1.247 . S
C213 O223 1.272 . S
O214 Co210 2.004 . S
O214 C219 1.259 . S
Co215 O216 2.061 . S
Co215 O221 2.052 . S
Co215 O223 2.135 . S
O216 Co215 2.061 . S
O216 C219 1.235 1_556 S
C217 O220 1.238 1_556 S
C217 O221 1.241 . S
C218 O211 1.247 1_554 S
C218 O212 1.261 . S
C219 O214 1.259 . S
C219 O216 1.235 1_554 S
O220 Co210 2.021 . S
O220 C217 1.238 1_554 S
O221 Co215 2.052 . S
O221 C217 1.241 . S
O222 Co210 2.137 1_556 S
O222 C213 1.247 . S
O223 Co210 2.244 1_556 S
O223 C213 1.272 . S
O223 Co215 2.135 . S
Co224 O225 2.216 . S
Co224 O226 2.091 . S
Co224 O228 2.004 . S
Co224 O234 2.021 1_556 S
Co224 O236 2.137 . S
Co224 O237 2.244 1_556 S
O225 Co224 2.216 . S
O225 C232 1.247 . S
O226 Co224 2.091 . S
O226 C232 1.261 . S
C227 O236 1.247 1_554 S
C227 O237 1.272 . S
O228 Co224 2.004 . S
O228 C233 1.259 . S
Co229 O230 2.061 . S
Co229 O235 2.052 . S
Co229 O237 2.135 . S
O230 Co229 2.061 . S
O230 C233 1.235 1_554 S
C231 O234 1.238 . S
C231 O235 1.241 . S
C232 O225 1.247 . S
C232 O226 1.261 . S
C233 O228 1.259 . S
C233 O230 1.235 1_556 S
O234 Co224 2.021 1_554 S
O234 C231 1.238 . S
O235 Co229 2.052 . S
O235 C231 1.241 . S
O236 Co224 2.137 . S
O236 C227 1.247 1_556 S
O237 Co224 2.244 1_554 S
O237 C227 1.272 . S
O237 Co229 2.135 . S
Co238 O239 2.216 . S
Co238 O240 2.091 . S
Co238 O242 2.004 . S
Co238 O248 2.021 1_556 S
Co238 O250 2.137 . S
Co238 O251 2.244 1_556 S
O239 Co238 2.216 . S
O239 C246 1.247 . S
O240 Co238 2.091 . S
O240 C246 1.261 . S
C241 O250 1.247 1_554 S
C241 O251 1.272 . S
O242 Co238 2.004 . S
O242 C247 1.259 . S
Co243 O244 2.061 . S
Co243 O249 2.052 . S
Co243 O251 2.135 . S
O244 Co243 2.061 . S
O244 C247 1.235 1_554 S
C245 O248 1.238 . S
C245 O249 1.241 . S
C246 O239 1.247 . S
C246 O240 1.261 . S
C247 O242 1.259 . S
C247 O244 1.235 1_556 S
O248 Co238 2.021 1_554 S
O248 C245 1.238 . S
O249 Co243 2.052 . S
O249 C245 1.241 . S
O250 Co238 2.137 . S
O250 C241 1.247 1_556 S
O251 Co238 2.244 1_554 S
O251 C241 1.272 . S
O251 Co243 2.135 . S
C252 C253 1.349 . S
C252 C254 1.327 . S
C252 H277 0.950 . S
C253 C252 1.349 . S
C253 C269 1.349 . S
C254 C252 1.327 . S
C254 C273 1.429 . S
C254 H278 0.950 . S
C255 C272 1.574 . S
C255 C274 1.368 . S
C255 H279 0.949 . S
H256 C260 0.949 . S
C257 C258 1.349 . S
C257 C259 1.327 . S
C257 H280 0.950 . S
C258 C257 1.349 . S
C258 C270 1.349 . S
C259 C257 1.327 . S
C259 C275 1.429 . S
C259 H281 0.950 . S
C260 H256 0.949 . S
C260 C268 1.574 . S
C260 C276 1.368 . S
H261 C269 0.950 . S
H262 C267 0.950 . S
H263 C268 0.949 . S
H264 C270 0.950 . S
H265 C271 0.950 . S
H266 C272 0.949 . S
C267 H262 0.950 . S
C267 C269 1.327 . S
C267 C273 1.429 . S
C268 C260 1.574 . S
C268 H263 0.949 . S
C268 C274 1.368 . S
C269 C253 1.349 . S
C269 H261 0.950 . S
C269 C267 1.327 . S
C270 C258 1.349 . S
C270 H264 0.950 . S
C270 C271 1.327 . S
C271 H265 0.950 . S
C271 C270 1.327 . S
C271 C275 1.429 . S
C272 C255 1.574 . S
C272 H266 0.949 . S
C272 C276 1.368 . S
C273 C254 1.429 . S
C273 C267 1.429 . S
C273 C274 1.523 . S
C274 C255 1.368 . S
C274 C268 1.368 . S
C274 C273 1.523 . S
C275 C259 1.429 . S
C275 C271 1.429 . S
C275 C276 1.523 . S
C276 C260 1.368 . S
C276 C272 1.368 . S
C276 C275 1.523 . S
H277 C252 0.950 . S
H278 C254 0.950 . S
H279 C255 0.949 . S
H280 C257 0.950 . S
H281 C259 0.950 . S
C282 C283 1.349 . S
C282 C284 1.327 . S
C282 H307 0.950 . S
C283 C282 1.349 . S
C283 C299 1.349 . S
C284 C282 1.327 . S
C284 C303 1.429 . S
C284 H308 0.950 . S
C285 C302 1.574 . S
C285 C304 1.368 . S
C285 H309 0.949 . S
H286 C290 0.949 . S
C287 C288 1.349 . S
C287 C289 1.327 . S
C287 H310 0.950 . S
C288 C287 1.349 . S
C288 C300 1.349 . S
C289 C287 1.327 . S
C289 C305 1.429 . S
C289 H311 0.950 . S
C290 H286 0.949 . S
C290 C298 1.574 . S
C290 C306 1.368 . S
H291 C299 0.950 . S
H292 C297 0.950 . S
H293 C298 0.949 . S
H294 C300 0.950 . S
H295 C301 0.950 . S
H296 C302 0.949 . S
C297 H292 0.950 . S
C297 C299 1.327 . S
C297 C303 1.429 . S
C298 C290 1.574 . S
C298 H293 0.949 . S
C298 C304 1.368 . S
C299 C283 1.349 . S
C299 H291 0.950 . S
C299 C297 1.327 . S
C300 C288 1.349 . S
C300 H294 0.950 . S
C300 C301 1.327 . S
C301 H295 0.950 . S
C301 C300 1.327 . S
C301 C305 1.429 . S
C302 C285 1.574 . S
C302 H296 0.949 . S
C302 C306 1.368 . S
C303 C284 1.429 . S
C303 C297 1.429 . S
C303 C304 1.523 . S
C304 C285 1.368 . S
C304 C298 1.368 . S
C304 C303 1.523 . S
C305 C289 1.429 . S
C305 C301 1.429 . S
C305 C306 1.523 . S
C306 C290 1.368 . S
C306 C302 1.368 . S
C306 C305 1.523 . S
H307 C282 0.950 . S
H308 C284 0.950 . S
H309 C285 0.949 . S
H310 C287 0.950 . S
H311 C289 0.950 . S
C312 C313 1.349 . S
C312 C314 1.327 . S
C312 H337 0.950 . S
C313 C312 1.349 . S
C313 C329 1.349 . S
C314 C312 1.327 . S
C314 C333 1.429 . S
C314 H338 0.950 . S
C315 C332 1.574 . S
C315 C334 1.368 . S
C315 H339 0.949 . S
H316 C320 0.949 . S
C317 C318 1.349 . S
C317 C319 1.327 . S
C317 H340 0.950 . S
C318 C317 1.349 . S
C318 C330 1.349 . S
C319 C317 1.327 . S
C319 C335 1.429 . S
C319 H341 0.950 . S
C320 H316 0.949 . S
C320 C328 1.574 . S
C320 C336 1.368 . S
H321 C329 0.950 . S
H322 C327 0.950 . S
H323 C328 0.949 . S
H324 C330 0.950 . S
H325 C331 0.950 . S
H326 C332 0.949 . S
C327 H322 0.950 . S
C327 C329 1.327 . S
C327 C333 1.429 . S
C328 C320 1.574 . S
C328 H323 0.949 . S
C328 C334 1.368 . S
C329 C313 1.349 . S
C329 H321 0.950 . S
C329 C327 1.327 . S
C330 C318 1.349 . S
C330 H324 0.950 . S
C330 C331 1.327 . S
C331 H325 0.950 . S
C331 C330 1.327 . S
C331 C335 1.429 . S
C332 C315 1.574 . S
C332 H326 0.949 . S
C332 C336 1.368 . S
C333 C314 1.429 . S
C333 C327 1.429 . S
C333 C334 1.523 . S
C334 C315 1.368 . S
C334 C328 1.368 . S
C334 C333 1.523 . S
C335 C319 1.429 . S
C335 C331 1.429 . S
C335 C336 1.523 . S
C336 C320 1.368 . S
C336 C332 1.368 . S
C336 C335 1.523 . S
H337 C312 0.950 . S
H338 C314 0.950 . S
H339 C315 0.949 . S
H340 C317 0.950 . S
H341 C319 0.950 . S
C342 C343 1.349 . S
C342 C344 1.327 . S
C342 H367 0.950 1_556 S
C343 C342 1.349 . S
C343 C359 1.349 . S
C344 C342 1.327 . S
C344 C363 1.429 . S
C344 H368 0.950 . S
C345 C362 1.574 . S
C345 C364 1.368 . S
C345 H369 0.949 . S
H346 C350 0.949 . S
C347 C348 1.349 . S
C347 C349 1.327 . S
C347 H370 0.950 . S
C348 C347 1.349 . S
C348 C360 1.349 . S
C349 C347 1.327 . S
C349 C365 1.429 . S
C349 H371 0.950 . S
C350 H346 0.949 . S
C350 C358 1.574 . S
C350 C366 1.368 . S
H351 C359 0.950 . S
H352 C357 0.950 . S
H353 C358 0.949 . S
H354 C360 0.950 . S
H355 C361 0.950 . S
H356 C362 0.949 . S
C357 H352 0.950 . S
C357 C359 1.327 . S
C357 C363 1.429 . S
C358 C350 1.574 . S
C358 H353 0.949 . S
C358 C364 1.368 . S
C359 C343 1.349 . S
C359 H351 0.950 . S
C359 C357 1.327 . S
C360 C348 1.349 . S
C360 H354 0.950 . S
C360 C361 1.327 . S
C361 H355 0.950 . S
C361 C360 1.327 . S
C361 C365 1.429 . S
C362 C345 1.574 . S
C362 H356 0.949 . S
C362 C366 1.368 . S
C363 C344 1.429 . S
C363 C357 1.429 . S
C363 C364 1.523 . S
C364 C345 1.368 . S
C364 C358 1.368 . S
C364 C363 1.523 . S
C365 C349 1.429 . S
C365 C361 1.429 . S
C365 C366 1.523 . S
C366 C350 1.368 . S
C366 C362 1.368 . S
C366 C365 1.523 . S
H367 C342 0.950 1_554 S
H368 C344 0.950 . S
H369 C345 0.949 . S
H370 C347 0.950 . S
H371 C349 0.950 . S
C372 C373 1.349 . S
C372 C374 1.327 . S
C372 H397 0.950 . S
C373 C372 1.349 . S
C373 C389 1.349 . S
C374 C372 1.327 . S
C374 C393 1.429 . S
C374 H398 0.950 . S
C375 C392 1.574 . S
C375 C394 1.368 . S
C375 H399 0.949 . S
H376 C380 0.949 . S
C377 C378 1.349 . S
C377 C379 1.327 . S
C377 H400 0.950 1_655 S
C378 C377 1.349 . S
C378 C390 1.349 . S
C379 C377 1.327 . S
C379 C395 1.429 . S
C379 H401 0.950 . S
C380 H376 0.949 . S
C380 C388 1.574 . S
C380 C396 1.368 . S
H381 C389 0.950 1_554 S
H382 C387 0.950 . S
H383 C388 0.949 . S
H384 C390 0.950 . S
H385 C391 0.950 . S
H386 C392 0.949 . S
C387 H382 0.950 . S
C387 C389 1.327 . S
C387 C393 1.429 . S
C388 C380 1.574 . S
C388 H383 0.949 . S
C388 C394 1.368 . S
C389 C373 1.349 . S
C389 H381 0.950 1_556 S
C389 C387 1.327 . S
C390 C378 1.349 . S
C390 H384 0.950 . S
C390 C391 1.327 . S
C391 H385 0.950 . S
C391 C390 1.327 . S
C391 C395 1.429 . S
C392 C375 1.574 . S
C392 H386 0.949 . S
C392 C396 1.368 . S
C393 C374 1.429 . S
C393 C387 1.429 . S
C393 C394 1.523 . S
C394 C375 1.368 . S
C394 C388 1.368 . S
C394 C393 1.523 . S
C395 C379 1.429 . S
C395 C391 1.429 . S
C395 C396 1.523 . S
C396 C380 1.368 . S
C396 C392 1.368 . S
C396 C395 1.523 . S
H397 C372 0.950 . S
H398 C374 0.950 . S
H399 C375 0.949 . S
H400 C377 0.950 1_455 S
H401 C379 0.950 . S
C402 C403 1.349 . S
C402 C404 1.327 . S
C402 H427 0.950 . S
C403 C402 1.349 . S
C403 C419 1.349 . S
C404 C402 1.327 . S
C404 C423 1.429 . S
C404 H428 0.950 . S
C405 C422 1.574 . S
C405 C424 1.368 . S
C405 H429 0.949 . S
H406 C410 0.949 . S
C407 C408 1.349 . S
C407 C409 1.327 . S
C407 H430 0.950 . S
C408 C407 1.349 . S
C408 C420 1.349 . S
C409 C407 1.327 . S
C409 C425 1.429 . S
C409 H431 0.950 . S
C410 H406 0.949 . S
C410 C418 1.574 . S
C410 C426 1.368 . S
H411 C419 0.950 1_554 S
H412 C417 0.950 . S
H413 C418 0.949 . S
H414 C420 0.950 . S
H415 C421 0.950 . S
H416 C422 0.949 . S
C417 H412 0.950 . S
C417 C419 1.327 . S
C417 C423 1.429 . S
C418 C410 1.574 . S
C418 H413 0.949 . S
C418 C424 1.368 . S
C419 C403 1.349 . S
C419 H411 0.950 1_556 S
C419 C417 1.327 . S
C420 C408 1.349 . S
C420 H414 0.950 . S
C420 C421 1.327 . S
C421 H415 0.950 . S
C421 C420 1.327 . S
C421 C425 1.429 . S
C422 C405 1.574 . S
C422 H416 0.949 . S
C422 C426 1.368 . S
C423 C404 1.429 . S
C423 C417 1.429 . S
C423 C424 1.523 . S
C424 C405 1.368 . S
C424 C418 1.368 . S
C424 C423 1.523 . S
C425 C409 1.429 . S
C425 C421 1.429 . S
C425 C426 1.523 . S
C426 C410 1.368 . S
C426 C422 1.368 . S
C426 C425 1.523 . S
H427 C402 0.950 . S
H428 C404 0.950 . S
H429 C405 0.949 . S
H430 C407 0.950 . S
H431 C409 0.950 . S
C432 C433 1.349 . S
C432 C434 1.327 . S
C432 H457 0.950 . S
C433 C432 1.349 . S
C433 C449 1.349 . S
C434 C432 1.327 . S
C434 C453 1.429 . S
C434 H458 0.950 . S
C435 C452 1.574 . S
C435 C454 1.368 . S
C435 H459 0.949 . S
H436 C440 0.949 . S
C437 C438 1.349 1_655 S
C437 C439 1.327 . S
C437 H460 0.939 1_655 S
C438 C437 1.349 1_455 S
C438 C450 1.349 1_455 S
C439 C437 1.327 . S
C439 C455 1.429 . S
C439 H461 0.950 . S
C440 H436 0.949 . S
C440 C448 1.574 . S
C440 C456 1.368 . S
H441 C449 0.950 . S
H442 C447 0.950 . S
H443 C448 0.949 . S
H444 C450 0.950 . S
H445 C451 0.950 . S
H446 C452 0.949 . S
C447 H442 0.950 . S
C447 C449 1.327 . S
C447 C453 1.429 . S
C448 C440 1.574 . S
C448 H443 0.949 . S
C448 C454 1.368 . S
C449 C433 1.349 . S
C449 H441 0.950 . S
C449 C447 1.327 . S
C450 C438 1.349 1_655 S
C450 H444 0.950 . S
C450 C451 1.327 . S
C451 H445 0.950 . S
C451 C450 1.327 . S
C451 C455 1.429 . S
C452 C435 1.574 . S
C452 H446 0.949 . S
C452 C456 1.368 . S
C453 C434 1.429 . S
C453 C447 1.429 . S
C453 C454 1.523 . S
C454 C435 1.368 . S
C454 C448 1.368 . S
C454 C453 1.523 . S
C455 C439 1.429 . S
C455 C451 1.429 . S
C455 C456 1.523 . S
C456 C440 1.368 . S
C456 C452 1.368 . S
C456 C455 1.523 . S
H457 C432 0.950 . S
H458 C434 0.950 . S
H459 C435 0.949 . S
H460 C437 0.939 1_455 S
H461 C439 0.950 . S
C462 C463 1.349 . S
C462 C464 1.327 . S
C462 H487 0.950 . S
C463 C462 1.349 . S
C463 C479 1.349 . S
C464 C462 1.327 . S
C464 C483 1.429 . S
C464 H488 0.950 . S
C465 C482 1.574 . S
C465 C484 1.368 . S
C465 H489 0.949 . S
H466 C470 0.949 . S
C467 C468 1.349 . S
C467 C469 1.327 . S
C467 H490 0.950 . S
C468 C467 1.349 . S
C468 C480 1.349 . S
C469 C467 1.327 . S
C469 C485 1.429 . S
C469 H491 0.950 . S
C470 H466 0.949 . S
C470 C478 1.574 . S
C470 C486 1.368 . S
H471 C479 0.950 . S
H472 C477 0.950 . S
H473 C478 0.949 . S
H474 C480 0.950 . S
H475 C481 0.950 . S
H476 C482 0.949 . S
C477 H472 0.950 . S
C477 C479 1.327 . S
C477 C483 1.429 . S
C478 C470 1.574 . S
C478 H473 0.949 . S
C478 C484 1.368 . S
C479 C463 1.349 . S
C479 H471 0.950 . S
C479 C477 1.327 . S
C480 C468 1.349 . S
C480 H474 0.950 . S
C480 C481 1.327 . S
C481 H475 0.950 . S
C481 C480 1.327 . S
C481 C485 1.429 . S
C482 C465 1.574 . S
C482 H476 0.949 . S
C482 C486 1.368 . S
C483 C464 1.429 . S
C483 C477 1.429 . S
C483 C484 1.523 . S
C484 C465 1.368 . S
C484 C478 1.368 . S
C484 C483 1.523 . S
C485 C469 1.429 . S
C485 C481 1.429 . S
C485 C486 1.523 . S
C486 C470 1.368 . S
C486 C482 1.368 . S
C486 C485 1.523 . S
H487 C462 0.950 . S
H488 C464 0.950 . S
H489 C465 0.949 . S
H490 C467 0.950 . S
H491 C469 0.950 . S
C492 C493 1.349 . S
C492 C494 1.327 . S
C492 H517 0.950 . S
C493 C492 1.349 . S
C493 C509 1.349 . S
C494 C492 1.327 . S
C494 C513 1.429 . S
C494 H518 0.950 . S
C495 C512 1.574 . S
C495 C514 1.368 . S
C495 H519 0.949 . S
H496 C500 0.949 . S
C497 C498 1.349 . S
C497 C499 1.327 . S
C497 H520 0.950 . S
C498 C497 1.349 . S
C498 C510 1.349 . S
C499 C497 1.327 . S
C499 C515 1.429 . S
C499 H521 0.950 . S
C500 H496 0.949 . S
C500 C508 1.574 . S
C500 C516 1.368 . S
H501 C509 0.950 . S
H502 C507 0.950 . S
H503 C508 0.949 . S
H504 C510 0.950 . S
H505 C511 0.950 . S
H506 C512 0.949 . S
C507 H502 0.950 . S
C507 C509 1.327 . S
C507 C513 1.429 . S
C508 C500 1.574 . S
C508 H503 0.949 . S
C508 C514 1.368 . S
C509 C493 1.349 . S
C509 H501 0.950 . S
C509 C507 1.327 . S
C510 C498 1.349 . S
C510 H504 0.950 . S
C510 C511 1.327 . S
C511 H505 0.950 . S
C511 C510 1.327 . S
C511 C515 1.429 . S
C512 C495 1.574 . S
C512 H506 0.949 . S
C512 C516 1.368 . S
C513 C494 1.429 . S
C513 C507 1.429 . S
C513 C514 1.523 . S
C514 C495 1.368 . S
C514 C508 1.368 . S
C514 C513 1.523 . S
C515 C499 1.429 . S
C515 C511 1.429 . S
C515 C516 1.523 . S
C516 C500 1.368 . S
C516 C512 1.368 . S
C516 C515 1.523 . S
H517 C492 0.950 . S
H518 C494 0.950 . S
H519 C495 0.949 . S
H520 C497 0.950 . S
H521 C499 0.950 . S
C522 C523 1.349 . S
C522 C524 1.327 . S
C522 H547 0.950 . S
C523 C522 1.349 . S
C523 C539 1.349 . S
C524 C522 1.327 . S
C524 C543 1.429 . S
C524 H548 0.950 . S
C525 C542 1.574 . S
C525 C544 1.368 . S
C525 H549 0.949 . S
H526 C530 0.949 . S
C527 C528 1.349 . S
C527 C529 1.327 . S
C527 H550 0.950 1_554 S
C528 C527 1.349 . S
C528 C540 1.349 . S
C529 C527 1.327 . S
C529 C545 1.429 . S
C529 H551 0.950 . S
C530 H526 0.949 . S
C530 C538 1.574 . S
C530 C546 1.368 . S
H531 C539 0.950 . S
H532 C537 0.950 . S
H533 C538 0.949 . S
H534 C540 0.950 . S
H535 C541 0.950 . S
H536 C542 0.949 . S
C537 H532 0.950 . S
C537 C539 1.327 . S
C537 C543 1.429 . S
C538 C530 1.574 . S
C538 H533 0.949 . S
C538 C544 1.368 . S
C539 C523 1.349 . S
C539 H531 0.950 . S
C539 C537 1.327 . S
C540 C528 1.349 . S
C540 H534 0.950 . S
C540 C541 1.327 . S
C541 H535 0.950 . S
C541 C540 1.327 . S
C541 C545 1.429 . S
C542 C525 1.574 . S
C542 H536 0.949 . S
C542 C546 1.368 . S
C543 C524 1.429 . S
C543 C537 1.429 . S
C543 C544 1.523 . S
C544 C525 1.368 . S
C544 C538 1.368 . S
C544 C543 1.523 . S
C545 C529 1.429 . S
C545 C541 1.429 . S
C545 C546 1.523 . S
C546 C530 1.368 . S
C546 C542 1.368 . S
C546 C545 1.523 . S
H547 C522 0.950 . S
H548 C524 0.950 . S
H549 C525 0.949 . S
H550 C527 0.950 1_556 S
H551 C529 0.950 . S
C552 C553 1.349 . S
C552 C554 1.327 . S
C552 H577 0.950 1_556 S
C553 C552 1.349 . S
C553 C569 1.349 . S
C554 C552 1.327 . S
C554 C573 1.429 . S
C554 H578 0.950 . S
C555 C572 1.574 . S
C555 C574 1.368 . S
C555 H579 0.949 . S
H556 C560 0.949 . S
C557 C558 1.349 . S
C557 C559 1.327 . S
C557 H580 0.950 1_554 S
C558 C557 1.349 . S
C558 C570 1.349 . S
C559 C557 1.327 . S
C559 C575 1.429 . S
C559 H581 0.950 . S
C560 H556 0.949 . S
C560 C568 1.574 . S
C560 C576 1.368 . S
H561 C569 0.950 . S
H562 C567 0.950 . S
H563 C568 0.949 . S
H564 C570 0.950 . S
H565 C571 0.950 . S
H566 C572 0.949 . S
C567 H562 0.950 . S
C567 C569 1.327 . S
C567 C573 1.429 . S
C568 C560 1.574 . S
C568 H563 0.949 . S
C568 C574 1.368 . S
C569 C553 1.349 . S
C569 H561 0.950 . S
C569 C567 1.327 . S
C570 C558 1.349 . S
C570 H564 0.950 . S
C570 C571 1.327 . S
C571 H565 0.950 . S
C571 C570 1.327 . S
C571 C575 1.429 . S
C572 C555 1.574 . S
C572 H566 0.949 . S
C572 C576 1.368 . S
C573 C554 1.429 . S
C573 C567 1.429 . S
C573 C574 1.523 . S
C574 C555 1.368 . S
C574 C568 1.368 . S
C574 C573 1.523 . S
C575 C559 1.429 . S
C575 C571 1.429 . S
C575 C576 1.523 . S
C576 C560 1.368 . S
C576 C572 1.368 . S
C576 C575 1.523 . S
H577 C552 0.950 1_554 S
H578 C554 0.950 . S
H579 C555 0.949 . S
H580 C557 0.950 1_556 S
H581 C559 0.950 . S
C582 C583 1.349 . S
C582 C584 1.327 . S
C582 H607 0.950 1_556 S
C583 C582 1.349 . S
C583 C599 1.349 . S
C584 C582 1.327 . S
C584 C603 1.429 . S
C584 H608 0.950 . S
C585 C602 1.574 . S
C585 C604 1.368 . S
C585 H609 0.949 . S
H586 C590 0.949 . S
C587 C588 1.349 . S
C587 C589 1.327 . S
C587 H610 0.950 1_554 S
C588 C587 1.349 . S
C588 C600 1.349 . S
C589 C587 1.327 . S
C589 C605 1.429 . S
C589 H611 0.950 . S
C590 H586 0.949 . S
C590 C598 1.574 . S
C590 C606 1.368 . S
H591 C599 0.950 . S
H592 C597 0.950 . S
H593 C598 0.949 . S
H594 C600 0.950 . S
H595 C601 0.950 . S
H596 C602 0.949 . S
C597 H592 0.950 . S
C597 C599 1.327 . S
C597 C603 1.429 . S
C598 C590 1.574 . S
C598 H593 0.949 . S
C598 C604 1.368 . S
C599 C583 1.349 . S
C599 H591 0.950 . S
C599 C597 1.327 . S
C600 C588 1.349 . S
C600 H594 0.950 . S
C600 C601 1.327 . S
C601 H595 0.950 . S
C601 C600 1.327 . S
C601 C605 1.429 . S
C602 C585 1.574 . S
C602 H596 0.949 . S
C602 C606 1.368 . S
C603 C584 1.429 . S
C603 C597 1.429 . S
C603 C604 1.523 . S
C604 C585 1.368 . S
C604 C598 1.368 . S
C604 C603 1.523 . S
C605 C589 1.429 . S
C605 C601 1.429 . S
C605 C606 1.523 . S
C606 C590 1.368 . S
C606 C602 1.368 . S
C606 C605 1.523 . S
H607 C582 0.950 1_554 S
H608 C584 0.950 . S
H609 C585 0.949 . S
H610 C587 0.950 1_556 S
H611 C589 0.950 . S
C612 C613 1.349 . S
C612 C614 1.327 . S
C612 H637 0.950 . S
C613 C612 1.349 . S
C613 C629 1.349 1_556 S
C614 C612 1.327 . S
C614 C633 1.429 1_655 S
C614 H638 0.950 . S
C615 C632 1.574 . S
C615 C634 1.368 1_554 S
C615 H639 0.949 . S
H616 C620 0.949 . S
C617 C618 1.349 . S
C617 C619 1.327 . S
C617 H640 0.950 . S
C618 C617 1.349 . S
C618 C630 1.349 1_554 S
C619 C617 1.327 . S
C619 C635 1.429 . S
C619 H641 0.950 . S
C620 H616 0.949 . S
C620 C628 1.574 . S
C620 C636 1.368 1_556 S
H621 C629 0.950 . S
H622 C627 0.950 . S
H623 C628 0.949 . S
H624 C630 0.950 . S
H625 C631 0.950 . S
H626 C632 0.949 . S
C627 H622 0.950 . S
C627 C629 1.327 1_455 S
C627 C633 1.429 1_554 S
C628 C620 1.574 . S
C628 H623 0.949 . S
C628 C634 1.368 . S
C629 C613 1.349 1_554 S
C629 H621 0.950 . S
C629 C627 1.327 1_655 S
C630 C618 1.349 1_556 S
C630 H624 0.950 . S
C630 C631 1.327 . S
C631 H625 0.950 . S
C631 C630 1.327 . S
C631 C635 1.429 1_556 S
C632 C615 1.574 . S
C632 H626 0.949 . S
C632 C636 1.368 . S
C633 C614 1.429 1_455 S
C633 C627 1.429 1_556 S
C633 C634 1.523 . S
C634 C615 1.368 1_556 S
C634 C628 1.368 . S
C634 C633 1.523 . S
C635 C619 1.429 . S
C635 C631 1.429 1_554 S
C635 C636 1.523 . S
C636 C620 1.368 1_554 S
C636 C632 1.368 . S
C636 C635 1.523 . S
H637 C612 0.950 . S
H638 C614 0.950 . S
H639 C615 0.949 . S
H640 C617 0.950 . S
H641 C619 0.950 . S
C642 C643 1.349 . S
C642 C644 1.327 1_554 S
C642 H667 0.950 1_554 S
C643 C642 1.349 . S
C643 C659 1.349 . S
C644 C642 1.327 1_556 S
C644 C663 1.429 1_556 S
C644 H668 0.950 . S
C645 C662 1.574 . S
C645 C664 1.368 . S
C645 H669 0.949 . S
H646 C650 0.949 . S
C647 C648 1.349 . S
C647 C649 1.327 1_556 S
C647 H670 0.950 1_556 S
C648 C647 1.349 . S
C648 C660 1.349 . S
C649 C647 1.327 1_554 S
C649 C665 1.429 1_554 S
C649 H671 0.950 . S
C650 H646 0.949 . S
C650 C658 1.574 . S
C650 C666 1.368 . S
H651 C659 0.950 . S
H652 C657 0.950 . S
H653 C658 0.949 . S
H654 C660 0.950 . S
H655 C661 0.950 . S
H656 C662 0.949 . S
C657 H652 0.950 . S
C657 C659 1.327 . S
C657 C663 1.429 . S
C658 C650 1.574 . S
C658 H653 0.949 . S
C658 C664 1.368 1_556 S
C659 C643 1.349 . S
C659 H651 0.950 . S
C659 C657 1.327 . S
C660 C648 1.349 . S
C660 H654 0.950 . S
C660 C661 1.327 . S
C661 H655 0.950 . S
C661 C660 1.327 . S
C661 C665 1.429 . S
C662 C645 1.574 . S
C662 H656 0.949 . S
C662 C666 1.368 1_554 S
C663 C644 1.429 1_554 S
C663 C657 1.429 . S
C663 C664 1.523 . S
C664 C645 1.368 . S
C664 C658 1.368 1_554 S
C664 C663 1.523 . S
C665 C649 1.429 1_556 S
C665 C661 1.429 . S
C665 C666 1.523 . S
C666 C650 1.368 . S
C666 C662 1.368 1_556 S
C666 C665 1.523 . S
H667 C642 0.950 1_556 S
H668 C644 0.950 . S
H669 C645 0.949 . S
H670 C647 0.950 1_554 S
H671 C649 0.950 . S
C672 C673 1.349 1_554 S
C672 C674 1.327 . S
C672 H697 0.950 . S
C673 C672 1.349 1_556 S
C673 C689 1.349 . S
C674 C672 1.327 . S
C674 C693 1.429 1_554 S
C674 H698 0.950 . S
C675 C692 1.574 . S
C675 C694 1.368 . S
C675 H699 0.949 . S
H676 C680 0.949 . S
C677 C678 1.349 1_556 S
C677 C679 1.327 . S
C677 H700 0.950 . S
C678 C677 1.349 1_554 S
C678 C690 1.349 . S
C679 C677 1.327 . S
C679 C695 1.429 1_556 S
C679 H701 0.950 . S
C680 H676 0.949 . S
C680 C688 1.574 . S
C680 C696 1.368 . S
H681 C689 0.950 . S
H682 C687 0.950 . S
H683 C688 0.949 . S
H684 C690 0.950 . S
H685 C691 0.950 . S
H686 C692 0.949 . S
C687 H682 0.950 . S
C687 C689 1.327 . S
C687 C693 1.429 . S
C688 C680 1.574 . S
C688 H683 0.949 . S
C688 C694 1.368 1_554 S
C689 C673 1.349 . S
C689 H681 0.950 . S
C689 C687 1.327 . S
C690 C678 1.349 . S
C690 H684 0.950 . S
C690 C691 1.327 . S
C691 H685 0.950 . S
C691 C690 1.327 . S
C691 C695 1.429 . S
C692 C675 1.574 . S
C692 H686 0.949 . S
C692 C696 1.368 1_556 S
C693 C674 1.429 1_556 S
C693 C687 1.429 . S
C693 C694 1.523 . S
C694 C675 1.368 . S
C694 C688 1.368 1_556 S
C694 C693 1.523 . S
C695 C679 1.429 1_554 S
C695 C691 1.429 . S
C695 C696 1.523 1_565 S
C696 C680 1.368 . S
C696 C692 1.368 1_554 S
C696 C695 1.523 1_545 S
H697 C672 0.950 . S
H698 C674 0.950 . S
H699 C675 0.949 . S
H700 C677 0.950 . S
H701 C679 0.950 . S
C702 C703 1.349 . S
C702 C704 1.327 . S
C702 H727 0.950 . S
C703 C702 1.349 . S
C703 C719 1.349 . S
C704 C702 1.327 . S
C704 C723 1.386 1_565 S
C704 H728 0.950 . S
C705 C722 1.574 . S
C705 C724 1.368 . S
C705 H729 0.949 . S
H706 C710 0.949 . S
C707 C708 1.349 . S
C707 C709 1.327 . S
C707 H730 0.950 . S
C708 C707 1.349 . S
C708 C720 1.349 . S
C709 C707 1.327 . S
C709 C725 1.429 . S
C709 H731 0.950 . S
C710 H706 0.949 . S
C710 C718 1.574 . S
C710 C726 1.368 . S
H711 C719 0.950 . S
H712 C717 0.954 1_545 S
H713 C718 0.949 . S
H714 C720 0.950 . S
H715 C721 0.950 . S
H716 C722 0.949 . S
C717 H712 0.954 1_565 S
C717 C719 1.325 . S
C717 C723 1.450 1_565 S
C718 C710 1.574 . S
C718 H713 0.949 . S
C718 C724 1.368 . S
C719 C703 1.349 . S
C719 H711 0.950 . S
C719 C717 1.325 . S
C720 C708 1.349 . S
C720 H714 0.950 . S
C720 C721 1.327 . S
C721 H715 0.950 . S
C721 C720 1.327 . S
C721 C725 1.429 . S
C722 C705 1.574 . S
C722 H716 0.949 . S
C722 C726 1.368 . S
C723 C704 1.386 1_545 S
C723 C717 1.450 1_545 S
C723 C724 1.542 . S
C724 C705 1.368 . S
C724 C718 1.368 . S
C724 C723 1.542 . S
C725 C709 1.429 . S
C725 C721 1.429 . S
C725 C726 1.523 . S
C726 C710 1.368 . S
C726 C722 1.368 . S
C726 C725 1.523 . S
H727 C702 0.950 . S
H728 C704 0.950 . S
H729 C705 0.949 . S
H730 C707 0.950 . S
H731 C709 0.950 . S
C732 C733 1.349 . S
C732 C734 1.327 . S
C732 H757 0.950 . S
C733 C732 1.349 . S
C733 C749 1.349 1_655 S
C734 C732 1.327 . S
C734 C753 1.429 1_655 S
C734 H758 0.950 . S
C735 C752 1.574 . S
C735 C754 1.368 . S
C735 H759 0.949 . S
H736 C740 0.949 . S
C737 C738 1.349 . S
C737 C739 1.327 . S
C737 H760 0.950 . S
C738 C737 1.349 . S
C738 C750 1.349 . S
C739 C737 1.327 . S
C739 C755 1.429 . S
C739 H761 0.950 . S
C740 H736 0.949 . S
C740 C748 1.574 . S
C740 C756 1.368 . S
H741 C749 0.950 . S
H742 C747 0.950 . S
H743 C748 0.949 . S
H744 C750 0.950 . S
H745 C751 0.950 . S
H746 C752 0.949 . S
C747 H742 0.950 . S
C747 C749 1.327 . S
C747 C753 1.429 . S
C748 C740 1.574 . S
C748 H743 0.949 . S
C748 C754 1.368 . S
C749 C733 1.349 1_455 S
C749 H741 0.950 . S
C749 C747 1.327 . S
C750 C738 1.349 . S
C750 H744 0.950 . S
C750 C751 1.327 . S
C751 H745 0.950 . S
C751 C750 1.327 . S
C751 C755 1.429 . S
C752 C735 1.574 . S
C752 H746 0.949 . S
C752 C756 1.368 . S
C753 C734 1.429 1_455 S
C753 C747 1.429 . S
C753 C754 1.523 . S
C754 C735 1.368 . S
C754 C748 1.368 . S
C754 C753 1.523 . S
C755 C739 1.429 . S
C755 C751 1.429 . S
C755 C756 1.523 . S
C756 C740 1.368 . S
C756 C752 1.368 . S
C756 C755 1.523 . S
H757 C732 0.950 . S
H758 C734 0.950 . S
H759 C735 0.949 . S
H760 C737 0.950 . S
H761 C739 0.950 . S
C762 C763 1.349 . S
C762 C764 1.327 . S
C762 H787 0.950 . S
C763 C762 1.349 . S
C763 C779 1.349 . S
C764 C762 1.327 . S
C764 C783 1.429 . S
C764 H788 0.950 . S
C765 C782 1.574 . S
C765 C784 1.368 . S
C765 H789 0.949 . S
H766 C770 0.949 . S
C767 C768 1.349 . S
C767 C769 1.327 . S
C767 H790 0.950 . S
C768 C767 1.349 . S
C768 C780 1.349 . S
C769 C767 1.327 . S
C769 C785 1.429 . S
C769 H791 0.950 . S
C770 H766 0.949 . S
C770 C778 1.574 . S
C770 C786 1.368 . S
H771 C779 0.950 . S
H772 C777 0.950 . S
H773 C778 0.949 . S
H774 C780 0.950 . S
H775 C781 0.950 . S
H776 C782 0.949 . S
C777 H772 0.950 . S
C777 C779 1.327 . S
C777 C783 1.429 . S
C778 C770 1.574 . S
C778 H773 0.949 . S
C778 C784 1.368 . S
C779 C763 1.349 . S
C779 H771 0.950 . S
C779 C777 1.327 . S
C780 C768 1.349 . S
C780 H774 0.950 . S
C780 C781 1.327 . S
C781 H775 0.950 . S
C781 C780 1.327 . S
C781 C785 1.429 . S
C782 C765 1.574 . S
C782 H776 0.949 . S
C782 C786 1.368 . S
C783 C764 1.429 . S
C783 C777 1.429 . S
C783 C784 1.523 . S
C784 C765 1.368 . S
C784 C778 1.368 . S
C784 C783 1.523 . S
C785 C769 1.429 . S
C785 C781 1.429 . S
C785 C786 1.523 . S
C786 C770 1.368 . S
C786 C782 1.368 . S
C786 C785 1.523 . S
H787 C762 0.950 . S
H788 C764 0.950 . S
H789 C765 0.949 . S
H790 C767 0.950 . S
H791 C769 0.950 . S
C792 C793 1.349 . S
C792 C794 1.327 . S
C792 H817 0.950 . S
C793 C792 1.349 . S
C793 C809 1.349 . S
C794 C792 1.327 . S
C794 C813 1.429 . S
C794 H818 0.950 . S
C795 C812 1.574 . S
C795 C814 1.368 1_554 S
C795 H819 0.949 . S
H796 C800 0.949 . S
C797 C798 1.349 . S
C797 C799 1.327 . S
C797 H820 0.950 . S
C798 C797 1.349 . S
C798 C810 1.349 . S
C799 C797 1.327 . S
C799 C815 1.429 . S
C799 H821 0.950 . S
C800 H796 0.949 . S
C800 C808 1.574 . S
C800 C816 1.368 1_556 S
H801 C809 0.950 1_554 S
H802 C807 0.950 . S
H803 C808 0.949 . S
H804 C810 0.950 1_556 S
H805 C811 0.950 . S
H806 C812 0.949 . S
C807 H802 0.950 . S
C807 C809 1.327 1_554 S
C807 C813 1.429 1_554 S
C808 C800 1.574 . S
C808 H803 0.949 . S
C808 C814 1.368 . S
C809 C793 1.349 . S
C809 H801 0.950 1_556 S
C809 C807 1.327 1_556 S
C810 C798 1.349 . S
C810 H804 0.950 1_554 S
C810 C811 1.327 1_554 S
C811 H805 0.950 . S
C811 C810 1.327 1_556 S
C811 C815 1.429 1_556 S
C812 C795 1.574 . S
C812 H806 0.949 . S
C812 C816 1.368 . S
C813 C794 1.429 . S
C813 C807 1.429 1_556 S
C813 C814 1.523 . S
C814 C795 1.368 1_556 S
C814 C808 1.368 . S
C814 C813 1.523 . S
C815 C799 1.429 . S
C815 C811 1.429 1_554 S
C815 C816 1.523 . S
C816 C800 1.368 1_554 S
C816 C812 1.368 . S
C816 C815 1.523 . S
H817 C792 0.950 . S
H818 C794 0.950 . S
H819 C795 0.949 . S
H820 C797 0.950 . S
H821 C799 0.950 . S
C822 C823 1.349 . S
C822 C824 1.327 . S
C822 H847 0.950 . S
C823 C822 1.349 . S
C823 C839 1.349 1_455 S
C824 C822 1.327 . S
C824 C843 1.429 1_455 S
C824 H848 0.950 1_554 S
C825 C842 1.592 . S
C825 C844 1.368 . S
C825 H849 0.949 . S
H826 C830 0.949 1_565 S
C827 C828 1.349 . S
C827 C829 1.327 1_556 S
C827 H850 0.950 1_556 S
C828 C827 1.349 . S
C828 C840 1.349 . S
C829 C827 1.327 1_554 S
C829 C845 1.429 1_554 S
C829 H851 0.950 . S
C830 H826 0.949 1_545 S
C830 C838 1.574 . S
C830 C846 1.368 1_545 S
H831 C839 0.950 . S
H832 C837 0.950 . S
H833 C838 0.949 . S
H834 C840 0.950 . S
H835 C841 0.950 . S
H836 C842 0.943 1_565 S
C837 H832 0.950 . S
C837 C839 1.327 . S
C837 C843 1.429 . S
C838 C830 1.574 . S
C838 H833 0.949 . S
C838 C844 1.368 1_556 S
C839 C823 1.349 1_655 S
C839 H831 0.950 . S
C839 C837 1.327 . S
C840 C828 1.349 . S
C840 H834 0.950 . S
C840 C841 1.327 . S
C841 H835 0.950 . S
C841 C840 1.327 . S
C841 C845 1.429 . S
C842 C825 1.592 . S
C842 H836 0.943 1_545 S
C842 C846 1.357 1_544 S
C843 C824 1.429 1_655 S
C843 C837 1.429 . S
C843 C844 1.523 . S
C844 C825 1.368 . S
C844 C838 1.368 1_554 S
C844 C843 1.523 . S
C845 C829 1.429 1_556 S
C845 C841 1.429 . S
C845 C846 1.523 . S
C846 C830 1.368 1_565 S
C846 C842 1.357 1_566 S
C846 C845 1.523 . S
H847 C822 0.950 . S
H848 C824 0.950 1_556 S
H849 C825 0.949 . S
H850 C827 0.950 1_554 S
H851 C829 0.950 . S
C852 C853 1.349 . S
C852 C854 1.327 1_655 S
C852 H877 0.950 . S
C853 C852 1.349 . S
C853 C869 1.349 . S
C854 C852 1.327 1_455 S
C854 C873 1.429 . S
C854 H878 0.950 . S
C855 C872 1.574 . S
C855 C874 1.368 1_556 S
C855 H879 0.949 . S
H856 C860 0.949 . S
C857 C858 1.349 . S
C857 C859 1.327 . S
C857 H880 0.950 . S
C858 C857 1.349 . S
C858 C870 1.349 . S
C859 C857 1.327 . S
C859 C875 1.429 . S
C859 H881 0.950 . S
C860 H856 0.949 . S
C860 C868 1.574 . S
C860 C876 1.368 1_554 S
H861 C869 0.950 1_556 S
H862 C867 0.950 . S
H863 C868 0.949 . S
H864 C870 0.950 1_554 S
H865 C871 0.950 . S
H866 C872 0.949 . S
C867 H862 0.950 . S
C867 C869 1.327 1_556 S
C867 C873 1.429 1_656 S
C868 C860 1.574 . S
C868 H863 0.949 . S
C868 C874 1.368 . S
C869 C853 1.349 . S
C869 H861 0.950 1_554 S
C869 C867 1.327 1_554 S
C870 C858 1.349 . S
C870 H864 0.950 1_556 S
C870 C871 1.327 1_556 S
C871 H865 0.950 . S
C871 C870 1.327 1_554 S
C871 C875 1.429 1_554 S
C872 C855 1.574 . S
C872 H866 0.949 . S
C872 C876 1.368 . S
C873 C854 1.429 . S
C873 C867 1.429 1_454 S
C873 C874 1.523 . S
C874 C855 1.368 1_554 S
C874 C868 1.368 . S
C874 C873 1.523 . S
C875 C859 1.429 . S
C875 C871 1.429 1_556 S
C875 C876 1.523 . S
C876 C860 1.368 1_556 S
C876 C872 1.368 . S
C876 C875 1.523 . S
H877 C852 0.950 . S
H878 C854 0.950 . S
H879 C855 0.949 . S
H880 C857 0.950 . S
H881 C859 0.950 . S
C882 C883 1.349 . S
C882 C884 1.295 1_455 S
C882 H907 0.950 . S
C883 C882 1.349 . S
C883 C899 1.349 . S
C884 C882 1.295 1_655 S
C884 C903 1.439 . S
C884 H908 0.973 . S
C885 C902 1.574 . S
C885 C904 1.368 1_556 S
C885 H909 0.949 . S
H886 C890 0.949 . S
C887 C888 1.349 . S
C887 C889 1.327 1_545 S
C887 H910 0.950 . S
C888 C887 1.349 . S
C888 C900 1.349 1_556 S
C889 C887 1.327 1_565 S
C889 C905 1.429 . S
C889 H911 0.950 . S
C890 H886 0.949 . S
C890 C898 1.574 . S
C890 C906 1.368 1_554 S
H891 C899 0.950 1_556 S
H892 C897 0.950 . S
H893 C898 0.949 . S
H894 C900 0.950 . S
H895 C901 0.946 . S
H896 C902 0.949 . S
C897 H892 0.950 . S
C897 C899 1.327 1_556 S
C897 C903 1.429 1_456 S
C898 C890 1.574 . S
C898 H893 0.949 . S
C898 C904 1.368 . S
C899 C883 1.349 . S
C899 H891 0.950 1_554 S
C899 C897 1.327 1_554 S
C900 C888 1.349 1_554 S
C900 H894 0.950 . S
C900 C901 1.360 . S
C901 H895 0.946 . S
C901 C900 1.360 . S
C901 C905 1.404 1_544 S
C902 C885 1.574 . S
C902 H896 0.949 . S
C902 C906 1.368 . S
C903 C884 1.439 . S
C903 C897 1.429 1_654 S
C903 C904 1.523 . S
C904 C885 1.368 1_554 S
C904 C898 1.368 . S
C904 C903 1.523 . S
C905 C889 1.429 . S
C905 C901 1.404 1_566 S
C905 C906 1.523 . S
C906 C890 1.368 1_556 S
C906 C902 1.368 . S
C906 C905 1.523 . S
H907 C882 0.950 . S
H908 C884 0.973 . S
H909 C885 0.949 . S
H910 C887 0.950 . S
H911 C889 0.950 . S
C912 C913 1.349 . S
C912 C914 1.327 . S
C912 H937 0.950 . S
C913 C912 1.349 . S
C913 C929 1.349 . S
C914 C912 1.327 . S
C914 C933 1.429 . S
C914 H938 0.950 1_554 S
C915 C932 1.574 . S
C915 C934 1.368 . S
C915 H939 0.949 . S
H916 C920 0.949 . S
C917 C918 1.349 . S
C917 C919 1.327 . S
C917 H940 0.950 . S
C918 C917 1.349 . S
C918 C930 1.349 . S
C919 C917 1.327 . S
C919 C935 1.429 1_565 S
C919 H941 0.950 1_566 S
C920 H916 0.949 . S
C920 C928 1.574 . S
C920 C936 1.368 . S
H921 C929 0.950 . S
H922 C927 0.950 . S
H923 C928 0.949 . S
H924 C930 0.950 . S
H925 C931 0.953 . S
H926 C932 0.949 . S
C927 H922 0.950 . S
C927 C929 1.327 . S
C927 C933 1.429 . S
C928 C920 1.574 . S
C928 H923 0.949 . S
C928 C934 1.368 1_556 S
C929 C913 1.349 . S
C929 H921 0.950 . S
C929 C927 1.327 . S
C930 C918 1.349 . S
C930 H924 0.950 . S
C930 C931 1.305 1_565 S
C931 H925 0.953 . S
C931 C930 1.305 1_545 S
C931 C935 1.449 . S
C932 C915 1.574 . S
C932 H926 0.949 . S
C932 C936 1.368 1_554 S
C933 C914 1.429 . S
C933 C927 1.429 . S
C933 C934 1.523 . S
C934 C915 1.368 . S
C934 C928 1.368 1_554 S
C934 C933 1.523 . S
C935 C919 1.429 1_545 S
C935 C931 1.449 . S
C935 C936 1.523 . S
C936 C920 1.368 . S
C936 C932 1.368 1_556 S
C936 C935 1.523 . S
H937 C912 0.950 . S
H938 C914 0.950 1_556 S
H939 C915 0.949 . S
H940 C917 0.950 . S
H941 C919 0.950 1_544 S
C942 C943 1.349 . S
C942 C944 1.327 . S
C942 H967 0.950 . S
C943 C942 1.349 . S
C943 C959 1.349 . S
C944 C942 1.327 . S
C944 C963 1.429 . S
C944 H968 0.950 . S
C945 C962 1.574 . S
C945 C964 1.368 1_554 S
C945 H969 0.949 . S
H946 C950 0.949 . S
C947 C948 1.349 . S
C947 C949 1.327 . S
C947 H970 0.950 . S
C948 C947 1.349 . S
C948 C960 1.349 . S
C949 C947 1.327 . S
C949 C965 1.429 . S
C949 H971 0.950 . S
C950 H946 0.949 . S
C950 C958 1.574 . S
C950 C966 1.368 1_556 S
H951 C959 0.950 . S
H952 C957 0.950 1_554 S
H953 C958 0.949 . S
H954 C960 0.950 . S
H955 C961 0.950 1_556 S
H956 C962 0.949 . S
C957 H952 0.950 1_556 S
C957 C959 1.327 . S
C957 C963 1.429 . S
C958 C950 1.574 . S
C958 H953 0.949 . S
C958 C964 1.368 . S
C959 C943 1.349 . S
C959 H951 0.950 . S
C959 C957 1.327 . S
C960 C948 1.349 . S
C960 H954 0.950 . S
C960 C961 1.327 . S
C961 H955 0.950 1_554 S
C961 C960 1.327 . S
C961 C965 1.429 . S
C962 C945 1.574 . S
C962 H956 0.949 . S
C962 C966 1.368 . S
C963 C944 1.429 . S
C963 C957 1.429 . S
C963 C964 1.523 . S
C964 C945 1.368 1_556 S
C964 C958 1.368 . S
C964 C963 1.523 . S
C965 C949 1.429 . S
C965 C961 1.429 . S
C965 C966 1.523 1_655 S
C966 C950 1.368 1_554 S
C966 C962 1.368 . S
C966 C965 1.523 1_455 S
H967 C942 0.950 . S
H968 C944 0.950 . S
H969 C945 0.949 . S
H970 C947 0.950 . S
H971 C949 0.950 . S
C972 C973 1.349 . S
C972 C974 1.327 . S
C972 H997 0.950 1_556 S
C973 C972 1.349 . S
C973 C989 1.349 . S
C974 C972 1.327 . S
C974 C993 1.429 . S
C974 H998 0.950 1_556 S
C975 C992 1.574 . S
C975 C994 1.368 . S
C975 H999 0.949 . S
H976 C980 0.949 . S
C977 C978 1.349 1_556 S
C977 C979 1.327 . S
C977 H1000 0.950 . S
C978 C977 1.349 1_554 S
C978 C990 1.349 . S
C979 C977 1.327 . S
C979 C995 1.429 1_556 S
C979 H1001 0.950 . S
C980 H976 0.949 . S
C980 C988 1.574 . S
C980 C996 1.368 1_554 S
H981 C989 0.950 . S
H982 C987 0.950 . S
H983 C988 0.949 . S
H984 C990 0.950 . S
H985 C991 0.950 . S
H986 C992 0.949 . S
C987 H982 0.950 . S
C987 C989 1.327 . S
C987 C993 1.429 . S
C988 C980 1.574 . S
C988 H983 0.949 . S
C988 C994 1.368 1_554 S
C989 C973 1.349 . S
C989 H981 0.950 . S
C989 C987 1.327 . S
C990 C978 1.349 . S
C990 H984 0.950 . S
C990 C991 1.327 . S
C991 H985 0.950 . S
C991 C990 1.327 . S
C991 C995 1.429 . S
C992 C975 1.574 . S
C992 H986 0.949 . S
C992 C996 1.368 . S
C993 C974 1.429 . S
C993 C987 1.429 . S
C993 C994 1.523 . S
C994 C975 1.368 . S
C994 C988 1.368 1_556 S
C994 C993 1.523 . S
C995 C979 1.429 1_554 S
C995 C991 1.429 . S
C995 C996 1.523 1_554 S
C996 C980 1.368 1_556 S
C996 C992 1.368 . S
C996 C995 1.523 1_556 S
H997 C972 0.950 1_554 S
H998 C974 0.950 1_554 S
H999 C975 0.949 . S
H1000 C977 0.950 . S
H1001 C979 0.950 . S
C1002 C1003 1.349 . S
C1002 C1004 1.327 . S
C1002 H1027 0.950 1_556 S
C1003 C1002 1.349 . S
C1003 C1019 1.349 . S
C1004 C1002 1.327 . S
C1004 C1023 1.429 . S
C1004 H1028 0.950 1_556 S
C1005 C1022 1.574 . S
C1005 C1024 1.368 . S
C1005 H1029 0.949 . S
H1006 C1010 0.949 . S
C1007 C1008 1.349 1_556 S
C1007 C1009 1.327 . S
C1007 H1030 0.950 . S
C1008 C1007 1.349 1_554 S
C1008 C1020 1.349 . S
C1009 C1007 1.327 . S
C1009 C1025 1.429 1_556 S
C1009 H1031 0.950 . S
C1010 H1006 0.949 . S
C1010 C1018 1.574 . S
C1010 C1026 1.368 1_554 S
H1011 C1019 0.950 . S
H1012 C1017 0.950 . S
H1013 C1018 0.949 . S
H1014 C1020 0.950 . S
H1015 C1021 0.950 . S
H1016 C1022 0.949 . S
C1017 H1012 0.950 . S
C1017 C1019 1.327 . S
C1017 C1023 1.429 . S
C1018 C1010 1.574 . S
C1018 H1013 0.949 . S
C1018 C1024 1.368 1_554 S
C1019 C1003 1.349 . S
C1019 H1011 0.950 . S
C1019 C1017 1.327 . S
C1020 C1008 1.349 . S
C1020 H1014 0.950 . S
C1020 C1021 1.327 . S
C1021 H1015 0.950 . S
C1021 C1020 1.327 . S
C1021 C1025 1.429 . S
C1022 C1005 1.574 . S
C1022 H1016 0.949 . S
C1022 C1026 1.368 . S
C1023 C1004 1.429 . S
C1023 C1017 1.429 . S
C1023 C1024 1.523 . S
C1024 C1005 1.368 . S
C1024 C1018 1.368 1_556 S
C1024 C1023 1.523 . S
C1025 C1009 1.429 1_554 S
C1025 C1021 1.429 . S
C1025 C1026 1.523 1_554 S
C1026 C1010 1.368 1_556 S
C1026 C1022 1.368 . S
C1026 C1025 1.523 1_556 S
H1027 C1002 0.950 1_554 S
H1028 C1004 0.950 1_554 S
H1029 C1005 0.949 . S
H1030 C1007 0.950 . S
H1031 C1009 0.950 . S
C1032 C1033 1.349 . S
C1032 C1034 1.327 . S
C1032 H1057 0.950 . S
C1033 C1032 1.349 . S
C1033 C1049 1.349 . S
C1034 C1032 1.327 . S
C1034 C1053 1.429 . S
C1034 H1058 0.950 . S
C1035 C1052 1.574 . S
C1035 C1054 1.368 . S
C1035 H1059 0.949 . S
H1036 C1040 0.949 . S
C1037 C1038 1.349 . S
C1037 C1039 1.327 . S
C1037 H1060 0.950 . S
C1038 C1037 1.349 . S
C1038 C1050 1.349 . S
C1039 C1037 1.327 . S
C1039 C1055 1.429 . S
C1039 H1061 0.950 . S
C1040 H1036 0.949 . S
C1040 C1048 1.574 . S
C1040 C1056 1.368 . S
H1041 C1049 0.950 . S
H1042 C1047 0.950 . S
H1043 C1048 0.949 . S
H1044 C1050 0.950 . S
H1045 C1051 0.950 . S
H1046 C1052 0.949 . S
C1047 H1042 0.950 . S
C1047 C1049 1.327 . S
C1047 C1053 1.429 . S
C1048 C1040 1.574 . S
C1048 H1043 0.949 . S
C1048 C1054 1.368 . S
C1049 C1033 1.349 . S
C1049 H1041 0.950 . S
C1049 C1047 1.327 . S
C1050 C1038 1.349 . S
C1050 H1044 0.950 . S
C1050 C1051 1.327 . S
C1051 H1045 0.950 . S
C1051 C1050 1.327 . S
C1051 C1055 1.429 . S
C1052 C1035 1.574 . S
C1052 H1046 0.949 . S
C1052 C1056 1.368 . S
C1053 C1034 1.429 . S
C1053 C1047 1.429 . S
C1053 C1054 1.523 . S
C1054 C1035 1.368 . S
C1054 C1048 1.368 . S
C1054 C1053 1.523 . S
C1055 C1039 1.429 . S
C1055 C1051 1.429 . S
C1055 C1056 1.523 1_554 S
C1056 C1040 1.368 . S
C1056 C1052 1.368 . S
C1056 C1055 1.523 1_556 S
H1057 C1032 0.950 . S
H1058 C1034 0.950 . S
H1059 C1035 0.949 . S
H1060 C1037 0.950 . S
H1061 C1039 0.950 . S
C1062 C1063 1.349 . S
C1062 C1064 1.327 . S
C1062 H1087 0.950 . S
C1063 C1062 1.349 . S
C1063 C1079 1.349 . S
C1064 C1062 1.327 . S
C1064 C1083 1.429 . S
C1064 H1088 0.950 . S
C1065 C1082 1.574 1_554 S
C1065 C1084 1.368 . S
C1065 H1089 0.949 . S
H1066 C1070 0.949 . S
C1067 C1068 1.349 . S
C1067 C1069 1.327 . S
C1067 H1090 0.950 . S
C1068 C1067 1.349 . S
C1068 C1080 1.349 . S
C1069 C1067 1.327 . S
C1069 C1085 1.429 . S
C1069 H1091 0.950 . S
C1070 H1066 0.949 . S
C1070 C1078 1.574 . S
C1070 C1086 1.368 . S
H1071 C1079 0.950 . S
H1072 C1077 0.950 . S
H1073 C1078 0.949 . S
H1074 C1080 0.950 1_554 S
H1075 C1081 0.950 . S
H1076 C1082 0.949 . S
C1077 H1072 0.950 . S
C1077 C1079 1.327 . S
C1077 C1083 1.429 . S
C1078 C1070 1.574 . S
C1078 H1073 0.949 . S
C1078 C1084 1.368 . S
C1079 C1063 1.349 . S
C1079 H1071 0.950 . S
C1079 C1077 1.327 . S
C1080 C1068 1.349 . S
C1080 H1074 0.950 1_556 S
C1080 C1081 1.327 1_556 S
C1081 H1075 0.950 . S
C1081 C1080 1.327 1_554 S
C1081 C1085 1.429 1_554 S
C1082 C1065 1.574 1_556 S
C1082 H1076 0.949 . S
C1082 C1086 1.368 1_556 S
C1083 C1064 1.429 . S
C1083 C1077 1.429 . S
C1083 C1084 1.523 . S
C1084 C1065 1.368 . S
C1084 C1078 1.368 . S
C1084 C1083 1.523 . S
C1085 C1069 1.429 . S
C1085 C1081 1.429 1_556 S
C1085 C1086 1.523 1_556 S
C1086 C1070 1.368 . S
C1086 C1082 1.368 1_554 S
C1086 C1085 1.523 1_554 S
H1087 C1062 0.950 . S
H1088 C1064 0.950 . S
H1089 C1065 0.949 . S
H1090 C1067 0.950 . S
H1091 C1069 0.950 . S
C1092 C1093 1.349 1_554 S
C1092 C1094 1.327 . S
C1092 H1117 0.950 . S
C1093 C1092 1.349 1_556 S
C1093 C1109 1.349 . S
C1094 C1092 1.327 . S
C1094 C1113 1.429 1_554 S
C1094 H1118 0.950 . S
C1095 C1112 1.574 . S
C1095 C1114 1.368 1_556 S
C1095 H1119 0.949 . S
H1096 C1100 0.949 . S
C1097 C1098 1.349 . S
C1097 C1099 1.327 . S
C1097 H1120 0.950 . S
C1098 C1097 1.349 . S
C1098 C1110 1.349 . S
C1099 C1097 1.327 . S
C1099 C1115 1.429 . S
C1099 H1121 0.950 . S
C1100 H1096 0.949 . S
C1100 C1108 1.574 . S
C1100 C1116 1.368 . S
H1101 C1109 0.950 . S
H1102 C1107 0.950 . S
H1103 C1108 0.949 . S
H1104 C1110 0.950 . S
H1105 C1111 0.950 . S
H1106 C1112 0.949 . S
C1107 H1102 0.950 . S
C1107 C1109 1.327 . S
C1107 C1113 1.429 . S
C1108 C1100 1.574 . S
C1108 H1103 0.949 . S
C1108 C1114 1.368 . S
C1109 C1093 1.349 . S
C1109 H1101 0.950 . S
C1109 C1107 1.327 . S
C1110 C1098 1.349 . S
C1110 H1104 0.950 . S
C1110 C1111 1.327 . S
C1111 H1105 0.950 . S
C1111 C1110 1.327 . S
C1111 C1115 1.429 . S
C1112 C1095 1.574 . S
C1112 H1106 0.949 . S
C1112 C1116 1.368 1_556 S
C1113 C1094 1.429 1_556 S
C1113 C1107 1.429 . S
C1113 C1114 1.523 1_556 S
C1114 C1095 1.368 1_554 S
C1114 C1108 1.368 . S
C1114 C1113 1.523 1_554 S
C1115 C1099 1.429 . S
C1115 C1111 1.429 . S
C1115 C1116 1.523 . S
C1116 C1100 1.368 . S
C1116 C1112 1.368 1_554 S
C1116 C1115 1.523 . S
H1117 C1092 0.950 . S
H1118 C1094 0.950 . S
H1119 C1095 0.949 . S
H1120 C1097 0.950 . S
H1121 C1099 0.950 . S
C1122 C1123 1.349 . S
C1122 C1124 1.327 . S
C1122 H1147 0.950 . S
C1123 C1122 1.349 . S
C1123 C1139 1.349 . S
C1124 C1122 1.327 . S
C1124 C1143 1.429 . S
C1124 H1148 0.950 . S
C1125 C1142 1.574 1_554 S
C1125 C1144 1.368 . S
C1125 H1149 0.949 1_554 S
H1126 C1130 0.949 . S
C1127 C1128 1.349 . S
C1127 C1129 1.327 . S
C1127 H1150 0.950 . S
C1128 C1127 1.349 . S
C1128 C1140 1.349 1_556 S
C1129 C1127 1.327 . S
C1129 C1145 1.429 1_556 S
C1129 H1151 0.950 . S
C1130 H1126 0.949 . S
C1130 C1138 1.574 . S
C1130 C1146 1.368 . S
H1131 C1139 0.950 . S
H1132 C1137 0.950 . S
H1133 C1138 0.949 . S
H1134 C1140 0.950 . S
H1135 C1141 0.950 . S
H1136 C1142 0.949 . S
C1137 H1132 0.950 . S
C1137 C1139 1.327 . S
C1137 C1143 1.429 . S
C1138 C1130 1.574 . S
C1138 H1133 0.949 . S
C1138 C1144 1.368 . S
C1139 C1123 1.349 . S
C1139 H1131 0.950 . S
C1139 C1137 1.327 . S
C1140 C1128 1.349 1_554 S
C1140 H1134 0.950 . S
C1140 C1141 1.327 . S
C1141 H1135 0.950 . S
C1141 C1140 1.327 . S
C1141 C1145 1.429 . S
C1142 C1125 1.574 1_556 S
C1142 H1136 0.949 . S
C1142 C1146 1.368 1_556 S
C1143 C1124 1.429 . S
C1143 C1137 1.429 . S
C1143 C1144 1.523 . S
C1144 C1125 1.368 . S
C1144 C1138 1.368 . S
C1144 C1143 1.523 . S
C1145 C1129 1.429 1_554 S
C1145 C1141 1.429 . S
C1145 C1146 1.523 . S
C1146 C1130 1.368 . S
C1146 C1142 1.368 1_554 S
C1146 C1145 1.523 . S
H1147 C1122 0.950 . S
H1148 C1124 0.950 . S
H1149 C1125 0.949 1_556 S
H1150 C1127 0.950 . S
H1151 C1129 0.950 . S
C1152 C1153 1.349 . S
C1152 C1154 1.327 1_554 S
C1152 H1177 0.950 . S
C1153 C1152 1.349 . S
C1153 C1169 1.349 . S
C1154 C1152 1.327 1_556 S
C1154 C1173 1.429 1_556 S
C1154 H1178 0.950 . S
C1155 C1172 1.574 1_554 S
C1155 C1174 1.368 1_554 S
C1155 H1179 0.949 . S
H1156 C1160 0.949 . S
C1157 C1158 1.349 . S
C1157 C1159 1.327 . S
C1157 H1180 0.950 . S
C1158 C1157 1.349 . S
C1158 C1170 1.349 . S
C1159 C1157 1.327 . S
C1159 C1175 1.429 . S
C1159 H1181 0.950 . S
C1160 H1156 0.949 . S
C1160 C1168 1.574 . S
C1160 C1176 1.368 . S
H1161 C1169 0.950 . S
H1162 C1167 0.950 . S
H1163 C1168 0.949 . S
H1164 C1170 0.950 . S
H1165 C1171 0.950 . S
H1166 C1172 0.949 1_554 S
C1167 H1162 0.950 . S
C1167 C1169 1.327 . S
C1167 C1173 1.429 . S
C1168 C1160 1.574 . S
C1168 H1163 0.949 . S
C1168 C1174 1.368 . S
C1169 C1153 1.349 . S
C1169 H1161 0.950 . S
C1169 C1167 1.327 . S
C1170 C1158 1.349 . S
C1170 H1164 0.950 . S
C1170 C1171 1.327 . S
C1171 H1165 0.950 . S
C1171 C1170 1.327 . S
C1171 C1175 1.429 . S
C1172 C1155 1.574 1_556 S
C1172 H1166 0.949 1_556 S
C1172 C1176 1.368 . S
C1173 C1154 1.429 1_554 S
C1173 C1167 1.429 . S
C1173 C1174 1.523 1_554 S
C1174 C1155 1.368 1_556 S
C1174 C1168 1.368 . S
C1174 C1173 1.523 1_556 S
C1175 C1159 1.429 . S
C1175 C1171 1.429 . S
C1175 C1176 1.523 . S
C1176 C1160 1.368 . S
C1176 C1172 1.368 . S
C1176 C1175 1.523 . S
H1177 C1152 0.950 . S
H1178 C1154 0.950 . S
H1179 C1155 0.949 . S
H1180 C1157 0.950 . S
H1181 C1159 0.950 . S
C1182 C1183 1.349 . S
C1182 C1184 1.327 . S
C1182 H1207 0.950 . S
C1183 C1182 1.349 . S
C1183 C1199 1.349 . S
C1184 C1182 1.327 . S
C1184 C1203 1.429 . S
C1184 H1208 0.950 . S
C1185 C1202 1.574 . S
C1185 C1204 1.368 1_554 S
C1185 H1209 0.949 . S
H1186 C1190 0.949 . S
C1187 C1188 1.349 . S
C1187 C1189 1.327 . S
C1187 H1210 0.950 . S
C1188 C1187 1.349 . S
C1188 C1200 1.349 1_554 S
C1189 C1187 1.327 . S
C1189 C1205 1.429 . S
C1189 H1211 0.950 . S
C1190 H1186 0.949 . S
C1190 C1198 1.574 . S
C1190 C1206 1.368 . S
H1191 C1199 0.950 . S
H1192 C1197 0.950 1_554 S
H1193 C1198 0.949 . S
H1194 C1200 0.950 . S
H1195 C1201 0.950 . S
H1196 C1202 0.949 . S
C1197 H1192 0.950 1_556 S
C1197 C1199 1.327 . S
C1197 C1203 1.429 . S
C1198 C1190 1.574 . S
C1198 H1193 0.949 . S
C1198 C1204 1.368 . S
C1199 C1183 1.349 . S
C1199 H1191 0.950 . S
C1199 C1197 1.327 . S
C1200 C1188 1.349 1_556 S
C1200 H1194 0.950 . S
C1200 C1201 1.327 . S
C1201 H1195 0.950 . S
C1201 C1200 1.327 . S
C1201 C1205 1.429 1_556 S
C1202 C1185 1.574 . S
C1202 H1196 0.949 . S
C1202 C1206 1.368 1_554 S
C1203 C1184 1.429 . S
C1203 C1197 1.429 . S
C1203 C1204 1.523 . S
C1204 C1185 1.368 1_556 S
C1204 C1198 1.368 . S
C1204 C1203 1.523 . S
C1205 C1189 1.429 . S
C1205 C1201 1.429 1_554 S
C1205 C1206 1.523 1_554 S
C1206 C1190 1.368 . S
C1206 C1202 1.368 1_556 S
C1206 C1205 1.523 1_556 S
H1207 C1182 0.950 . S
H1208 C1184 0.950 . S
H1209 C1185 0.949 . S
H1210 C1187 0.950 . S
H1211 C1189 0.950 . S
C1212 C1213 1.349 . S
C1212 C1214 1.327 . S
C1212 H1237 0.950 . S
C1213 C1212 1.349 . S
C1213 C1229 1.349 . S
C1214 C1212 1.327 . S
C1214 C1233 1.429 . S
C1214 H1238 0.950 . S
C1215 C1232 1.574 1_556 S
C1215 C1234 1.368 . S
C1215 H1239 0.949 . S
H1216 C1220 0.949 . S
C1217 C1218 1.349 . S
C1217 C1219 1.327 . S
C1217 H1240 0.950 . S
C1218 C1217 1.349 . S
C1218 C1230 1.349 . S
C1219 C1217 1.327 . S
C1219 C1235 1.429 . S
C1219 H1241 0.950 . S
C1220 H1216 0.949 . S
C1220 C1228 1.574 . S
C1220 C1236 1.368 . S
H1221 C1229 0.950 . S
H1222 C1227 0.950 . S
H1223 C1228 0.949 . S
H1224 C1230 0.950 . S
H1225 C1231 0.947 1_556 S
H1226 C1232 0.949 . S
C1227 H1222 0.950 . S
C1227 C1229 1.327 . S
C1227 C1233 1.429 . S
C1228 C1220 1.574 . S
C1228 H1223 0.949 . S
C1228 C1234 1.368 . S
C1229 C1213 1.349 . S
C1229 H1221 0.950 . S
C1229 C1227 1.327 . S
C1230 C1218 1.349 . S
C1230 H1224 0.950 . S
C1230 C1231 1.327 . S
C1231 H1225 0.947 1_554 S
C1231 C1230 1.327 . S
C1231 C1235 1.429 . S
C1232 C1215 1.574 1_554 S
C1232 H1226 0.949 . S
C1232 C1236 1.368 1_554 S
C1233 C1214 1.429 . S
C1233 C1227 1.429 . S
C1233 C1234 1.523 . S
C1234 C1215 1.368 . S
C1234 C1228 1.368 . S
C1234 C1233 1.523 . S
C1235 C1219 1.429 . S
C1235 C1231 1.429 . S
C1235 C1236 1.523 1_554 S
C1236 C1220 1.368 . S
C1236 C1232 1.368 1_556 S
C1236 C1235 1.523 1_556 S
H1237 C1212 0.950 . S
H1238 C1214 0.950 . S
H1239 C1215 0.949 . S
H1240 C1217 0.950 . S
H1241 C1219 0.950 . S
C1242 C1243 1.349 . S
C1242 C1244 1.327 . S
C1242 H1267 0.950 . S
C1243 C1242 1.349 . S
C1243 C1259 1.349 1_556 S
C1244 C1242 1.327 . S
C1244 C1263 1.429 . S
C1244 H1268 0.950 . S
C1245 C1262 1.574 . S
C1245 C1264 1.368 . S
C1245 H1269 0.949 . S
H1246 C1250 0.949 . S
C1247 C1248 1.349 . S
C1247 C1249 1.327 . S
C1247 H1270 0.950 . S
C1248 C1247 1.349 . S
C1248 C1260 1.349 . S
C1249 C1247 1.327 . S
C1249 C1265 1.429 . S
C1249 H1271 0.950 . S
C1250 H1246 0.949 . S
C1250 C1258 1.574 . S
C1250 C1266 1.368 1_556 S
H1251 C1259 0.950 . S
H1252 C1257 0.950 . S
H1253 C1258 0.949 . S
H1254 C1260 0.950 1_556 S
H1255 C1261 0.950 1_556 S
H1256 C1262 0.949 . S
C1257 H1252 0.950 . S
C1257 C1259 1.327 . S
C1257 C1263 1.429 1_554 S
C1258 C1250 1.574 . S
C1258 H1253 0.949 . S
C1258 C1264 1.368 1_556 S
C1259 C1243 1.349 1_554 S
C1259 H1251 0.950 . S
C1259 C1257 1.327 . S
C1260 C1248 1.349 . S
C1260 H1254 0.950 1_554 S
C1260 C1261 1.327 . S
C1261 H1255 0.950 1_554 S
C1261 C1260 1.327 . S
C1261 C1265 1.429 . S
C1262 C1245 1.574 . S
C1262 H1256 0.949 . S
C1262 C1266 1.368 . S
C1263 C1244 1.429 . S
C1263 C1257 1.429 1_556 S
C1263 C1264 1.523 1_556 S
C1264 C1245 1.368 . S
C1264 C1258 1.368 1_554 S
C1264 C1263 1.523 1_554 S
C1265 C1249 1.429 . S
C1265 C1261 1.429 . S
C1265 C1266 1.523 . S
C1266 C1250 1.368 1_554 S
C1266 C1262 1.368 . S
C1266 C1265 1.523 . S
H1267 C1242 0.950 . S
H1268 C1244 0.950 . S
H1269 C1245 0.949 . S
H1270 C1247 0.950 . S
H1271 C1249 0.950 . S
C1272 C1273 1.349 . S
C1272 C1274 1.327 . S
C1272 H1297 0.950 . S
C1273 C1272 1.349 . S
C1273 C1289 1.349 1_556 S
C1274 C1272 1.327 . S
C1274 C1293 1.429 . S
C1274 H1298 0.950 . S
C1275 C1292 1.574 . S
C1275 C1294 1.368 . S
C1275 H1299 0.949 . S
H1276 C1280 0.949 . S
C1277 C1278 1.349 . S
C1277 C1279 1.327 . S
C1277 H1300 0.950 . S
C1278 C1277 1.349 . S
C1278 C1290 1.349 . S
C1279 C1277 1.327 . S
C1279 C1295 1.429 . S
C1279 H1301 0.950 . S
C1280 H1276 0.949 . S
C1280 C1288 1.574 . S
C1280 C1296 1.368 1_556 S
H1281 C1289 0.950 . S
H1282 C1287 0.950 . S
H1283 C1288 0.949 . S
H1284 C1290 0.950 1_556 S
H1285 C1291 0.950 1_556 S
H1286 C1292 0.949 . S
C1287 H1282 0.950 . S
C1287 C1289 1.327 . S
C1287 C1293 1.429 1_554 S
C1288 C1280 1.574 . S
C1288 H1283 0.949 . S
C1288 C1294 1.368 1_556 S
C1289 C1273 1.349 1_554 S
C1289 H1281 0.950 . S
C1289 C1287 1.327 . S
C1290 C1278 1.349 . S
C1290 H1284 0.950 1_554 S
C1290 C1291 1.327 . S
C1291 H1285 0.950 1_554 S
C1291 C1290 1.327 . S
C1291 C1295 1.429 . S
C1292 C1275 1.574 . S
C1292 H1286 0.949 . S
C1292 C1296 1.368 . S
C1293 C1274 1.429 . S
C1293 C1287 1.429 1_556 S
C1293 C1294 1.523 1_556 S
C1294 C1275 1.368 . S
C1294 C1288 1.368 1_554 S
C1294 C1293 1.523 1_554 S
C1295 C1279 1.429 . S
C1295 C1291 1.429 . S
C1295 C1296 1.523 . S
C1296 C1280 1.368 1_554 S
C1296 C1292 1.368 . S
C1296 C1295 1.523 . S
H1297 C1272 0.950 . S
H1298 C1274 0.950 . S
H1299 C1275 0.949 . S
H1300 C1277 0.950 . S
H1301 C1279 0.950 . S
C1302 C1303 1.349 . S
C1302 C1304 1.327 . S
C1302 H1327 0.950 . S
C1303 C1302 1.349 . S
C1303 C1319 1.349 . S
C1304 C1302 1.327 . S
C1304 C1323 1.429 . S
C1304 H1328 0.950 . S
C1305 C1322 1.574 . S
C1305 C1324 1.368 1_556 S
C1305 H1329 0.949 . S
H1306 C1310 0.949 . S
C1307 C1308 1.349 . S
C1307 C1309 1.327 . S
C1307 H1330 0.950 . S
C1308 C1307 1.349 . S
C1308 C1320 1.346 1_556 S
C1309 C1307 1.327 . S
C1309 C1325 1.429 . S
C1309 H1331 0.950 . S
C1310 H1306 0.949 . S
C1310 C1318 1.574 . S
C1310 C1326 1.368 . S
H1311 C1319 0.950 . S
H1312 C1317 0.950 1_556 S
H1313 C1318 0.949 . S
H1314 C1320 0.952 . S
H1315 C1321 0.950 . S
H1316 C1322 0.949 . S
C1317 H1312 0.950 1_554 S
C1317 C1319 1.327 . S
C1317 C1323 1.429 . S
C1318 C1310 1.574 . S
C1318 H1313 0.949 . S
C1318 C1324 1.368 . S
C1319 C1303 1.349 . S
C1319 H1311 0.950 . S
C1319 C1317 1.327 . S
C1320 C1308 1.346 1_554 S
C1320 H1314 0.952 . S
C1320 C1321 1.328 . S
C1321 H1315 0.950 . S
C1321 C1320 1.328 . S
C1321 C1325 1.429 1_554 S
C1322 C1305 1.574 . S
C1322 H1316 0.949 . S
C1322 C1326 1.368 1_556 S
C1323 C1304 1.429 . S
C1323 C1317 1.429 . S
C1323 C1324 1.523 . S
C1324 C1305 1.368 1_554 S
C1324 C1318 1.368 . S
C1324 C1323 1.523 . S
C1325 C1309 1.429 . S
C1325 C1321 1.429 1_556 S
C1325 C1326 1.523 1_556 S
C1326 C1310 1.368 . S
C1326 C1322 1.368 1_554 S
C1326 C1325 1.523 1_554 S
H1327 C1302 0.950 . S
H1328 C1304 0.950 . S
H1329 C1305 0.949 . S
H1330 C1307 0.950 . S
H1331 C1309 0.950 . S
C253 C213 1.682 . S
C258 C3 1.693 . S
C283 C22 1.731 . S
C288 C232 1.725 . S
C313 C36 1.729 . S
C318 C246 1.722 . S
C343 C162 2.468 1_556 S
C348 C31 2.374 . S
C373 C134 2.425 1_556 S
C378 C8 2.425 1_655 S
C403 C143 2.359 1_556 S
C408 C17 2.361 . S
C433 C92 1.670 . S
C438 C45 1.661 . S
C463 C64 1.719 . S
C468 C106 1.713 . S
C493 C78 1.718 . S
C498 C120 1.712 . S
C523 C73 2.411 1_565 S
C528 C199 2.409 . S
C553 C50 2.462 . S
C558 C176 2.457 1_554 S
C583 C59 2.347 . S
C588 C185 2.341 . S
C613 C115 1.724 . S
C618 C241 1.727 . S
C643 C218 1.828 . S
C648 C87 1.772 . S
C673 C101 1.703 . S
C678 C227 1.704 . S
C703 C171 1.771 . S
C708 C129 1.770 . S
C733 C148 1.804 . S
C738 C190 1.804 . S
C763 C157 1.830 . S
C768 C204 1.843 . S
C793 C9 0.833 . S
C798 C37 0.924 . S
C823 C7 0.989 . S
C828 C21 0.929 . S
C853 C23 0.949 . S
C858 C35 0.909 . S
C883 C51 0.836 . S
C888 C79 0.928 . S
C913 C63 0.877 . S
C918 C49 0.922 . S
C943 C65 0.995 . S
C948 C77 0.949 . S
C973 C91 0.618 . S
C978 C121 0.611 . S
C1003 C105 0.602 . S
C1008 C93 0.593 . S
C1033 C119 0.616 . S
C1038 C107 0.611 . S
C1063 C135 0.883 . S
C1068 C161 1.024 . S
C1093 C133 1.035 . S
C1098 C147 0.965 . S
C1123 C163 0.880 . S
C1128 C149 1.004 . S
C1153 C205 1.039 . S
C1158 C177 0.906 . S
C1183 C189 0.947 . S
C1188 C175 1.008 . S
C1213 C203 0.969 . S
C1218 C191 1.020 . S
C1243 C247 0.633 . S
C1248 C219 0.683 . S
C1273 C217 0.573 . S
C1278 C231 0.611 . S
C1303 C245 0.619 . S
C1308 C233 0.611 . S
