# Generated by pormake.
# Topology sxb, (6)-cn, num edge types: 1
# Building blocks:
#     Node 0, Type 0, BuildingBlock: NUHQIS_clean_sbu_0, # of connection points: 6
#     Node 1, Type 0, BuildingBlock: NUHQIS_clean_sbu_0, # of connection points: 6
#     Node 2, Type 0, BuildingBlock: NUHQIS_clean_sbu_0, # of connection points: 6
#     Node 3, Type 0, BuildingBlock: NUHQIS_clean_sbu_0, # of connection points: 6
#     Edge 4, Type (0, 0), BuildingBlock: OJICUG_clean_linker_0, # of connection points: 2
#     Edge 5, Type (0, 0), BuildingBlock: OJICUG_clean_linker_0, # of connection points: 2
#     Edge 6, Type (0, 0), BuildingBlock: OJICUG_clean_linker_0, # of connection points: 2
#     Edge 7, Type (0, 0), BuildingBlock: OJICUG_clean_linker_0, # of connection points: 2
#     Edge 8, Type (0, 0), BuildingBlock: OJICUG_clean_linker_0, # of connection points: 2
#     Edge 9, Type (0, 0), BuildingBlock: OJICUG_clean_linker_0, # of connection points: 2
#     Edge 10, Type (0, 0), BuildingBlock: OJICUG_clean_linker_0, # of connection points: 2
#     Edge 11, Type (0, 0), BuildingBlock: OJICUG_clean_linker_0, # of connection points: 2
#     Edge 12, Type (0, 0), BuildingBlock: OJICUG_clean_linker_0, # of connection points: 2
#     Edge 13, Type (0, 0), BuildingBlock: OJICUG_clean_linker_0, # of connection points: 2
#     Edge 14, Type (0, 0), BuildingBlock: OJICUG_clean_linker_0, # of connection points: 2
#     Edge 15, Type (0, 0), BuildingBlock: OJICUG_clean_linker_0, # of connection points: 2
# Relax obj value: 0.140
# Max RMSD: 0.283
# Mean RMSD: 0.283
data_MOF--net-sxb--node1-NUHQIS_clean_sbu_0--edge1-OJICUG_clean_linker_0
_symmetry_space_group_name_H-M    P1
_symmetry_Int_Tables_number       1
_symmetry_cell_setting            triclinic
loop_
_symmetry_equiv_pos_as_xyz
'x, y, z'
_cell_length_a     18.000966
_cell_length_b     12.497581
_cell_length_c     20.420359
_cell_angle_alpha  90.131626
_cell_angle_beta   114.00159
_cell_angle_gamma 90.054697
loop_
_atom_site_label
_atom_site_type_symbol
_atom_site_fract_x
_atom_site_fract_y
_atom_site_fract_z
_atom_type_partial_charge
Tb0 Tb 1.0725 0.58875 1.04516 0.0
Eu1 Eu 0.22008 -0.25343 0.14868 0.0
C2 C 0.14357 -0.2408 0.97698 0.0
C3 C 0.25582 0.54343 1.07416 0.0
C4 C 0.86037 0.53565 0.97222 0.0
C5 C 0.77338 0.68076 0.98013 0.0
C6 C 0.8356 0.64381 0.96135 0.0
C7 C 0.81643 0.46446 0.99585 0.0
C8 C 0.75126 0.50096 1.01047 0.0
C9 C 0.73401 0.61001 1.00853 0.0
C10 C 0.93889 0.50187 0.97104 0.0
O11 O 1.07494 0.59493 0.15326 0.0
O12 O 0.20927 0.59309 0.19946 0.0
O13 O 1.10624 -0.18921 0.15558 0.0
O14 O 1.02855 -0.24979 1.04252 0.0
C15 C 0.14311 0.58104 0.20939 0.0
O16 O 0.32999 -0.25604 0.24833 0.0
O17 O 0.29914 -0.1132 0.18385 0.0
O18 O 0.1704 -0.18422 1.03659 0.0
O19 O 1.12085 0.65903 0.97456 0.0
O20 O 0.18607 0.49855 1.06762 0.0
O21 O 0.26895 0.64594 0.08593 0.0
C22 C 1.03765 -0.19027 0.09789 0.0
O23 O 0.97378 0.57101 0.94508 0.0
O24 O 0.99124 0.46019 1.03023 0.0
C25 C 0.43387 -0.18012 0.2214 0.0
C26 C 0.54513 -0.24166 0.16243 0.0
C27 C 0.53978 0.69943 0.21895 0.0
C28 C 0.48418 0.72952 0.24788 0.0
C29 C 0.44639 -0.11576 0.17084 0.0
C30 C 0.49947 -0.14776 0.14063 0.0
C31 C 0.35755 -0.16803 0.23228 0.0
H32 H 0.75895 -0.23496 0.97615 0.0
H33 H 0.86773 0.70157 0.94304 0.0
H34 H 0.8353 0.38186 1.00672 0.0
H35 H 0.71669 0.44566 1.02758 0.0
H36 H 0.57428 0.62641 0.23739 0.0
H37 H 0.47671 0.67796 0.28735 0.0
H38 H 0.41079 -0.04433 0.15062 0.0
H39 H 0.50188 -0.10114 0.09761 0.0
Tb40 Tb 0.21512 -0.26133 0.64643 0.0
Eu41 Eu 1.06679 -0.1066 0.5431 0.0
C42 C 1.13605 -0.10307 0.70851 0.0
C43 C 1.03832 0.66473 0.59491 0.0
C44 C 0.42461 0.6551 0.72371 0.0
C45 C 0.53962 -0.23873 0.72569 0.0
C46 C 0.47937 -0.25863 0.75124 0.0
C47 C 0.43768 0.58333 0.67681 0.0
C48 C 0.49446 0.60648 0.64875 0.0
C49 C 0.54426 0.69686 0.67106 0.0
C50 C 0.3457 0.65338 0.73079 0.0
O51 O 0.17318 0.67383 0.53682 0.0
O52 O 1.12091 -0.17312 0.47163 0.0
O53 O 0.18464 -0.01137 0.57044 0.0
O54 O 0.26567 -0.16058 0.58983 0.0
C55 C 0.1472 0.72837 0.47631 0.0
O56 O 0.96108 -0.09569 0.44067 0.0
O57 O 0.97751 0.02167 0.52338 0.0
O58 O 1.06695 -0.11474 0.65346 0.0
O59 O 0.2013 -0.11533 0.69703 0.0
O60 O 1.1063 0.67087 0.65287 0.0
O61 O 1.02648 0.72374 0.5391 0.0
C62 C 0.25536 -0.05703 0.58122 0.0
O63 O 0.32068 -0.25368 0.74218 0.0
O64 O 0.28628 0.59991 0.68222 0.0
C65 C 0.8522 -0.07263 0.47621 0.0
C66 C 0.73951 -0.16907 0.52198 0.0
C67 C 0.76914 -0.22694 0.4789 0.0
C68 C 0.8248 -0.17879 0.45569 0.0
C69 C 0.81893 -0.01505 0.51673 0.0
C70 C 0.76121 -0.06221 0.53691 0.0
C71 C 0.9251 -0.02979 0.46798 0.0
H72 H 0.57791 -0.16855 0.74433 0.0
H73 H 0.47209 -0.20232 0.7886 0.0
H74 H 0.39991 0.51332 0.65746 0.0
H75 H 0.49655 0.55663 0.60668 0.0
H76 H 0.75197 0.69017 0.46572 0.0
H77 H 0.84964 -0.22684 0.42524 0.0
H78 H 0.83846 0.06624 0.53346 0.0
H79 H 0.73383 -0.01792 0.56641 0.0
Tb80 Tb 0.5664 0.08938 1.00778 0.0
Eu81 Eu 0.71703 0.24197 0.11136 0.0
C82 C 0.64405 0.25327 0.9436 0.0
C83 C 0.74092 0.01099 1.06744 0.0
C84 C 0.36064 0.00653 0.93365 0.0
C85 C 0.25862 0.13187 0.93801 0.0
C86 C 0.31382 0.10026 0.90923 0.0
C87 C 0.34337 -0.06073 0.98045 0.0
C88 C 0.29134 -0.02668 1.01147 0.0
C89 C 0.25035 0.07136 0.99253 0.0
C90 C 0.43928 -0.0054 0.92679 0.0
O91 O 0.59192 0.04635 0.11999 0.0
O92 O 0.65463 0.19994 0.18044 0.0
O93 O 0.60182 0.34279 0.08559 0.0
O94 O 0.50939 0.20275 1.05097 0.0
C95 C 0.61874 0.10822 0.17766 0.0
O96 O 0.82376 0.24535 0.21335 0.0
O97 O 0.80921 0.36825 0.13556 0.0
O98 O 0.71306 0.23974 0.99921 0.0
O99 O 0.57624 0.227 0.94804 0.0
O100 O 0.6775 0.02219 1.0066 0.0
O101 O 0.74635 0.06781 0.12243 0.0
C102 C 0.52772 0.3029 1.06929 0.0
O103 O 0.46612 0.08084 0.90799 0.0
O104 O 0.49758 -0.0525 0.97997 0.0
C105 C 0.93773 0.28493 0.18789 0.0
C106 C 1.06306 0.21839 0.14782 0.0
C107 C 1.01868 0.14272 0.1674 0.0
C108 C 0.95671 0.1755 0.18757 0.0
C109 C 0.98698 0.36061 0.17395 0.0
C110 C 1.05059 0.32715 0.15585 0.0
C111 C 0.86031 0.31796 0.19144 0.0
H112 H 0.22727 0.20751 0.92158 0.0
H113 H 0.32436 0.15364 0.87215 0.0
H114 H 0.37558 -0.13542 0.99814 0.0
H115 H 0.28597 -0.07545 1.05265 0.0
H116 H 1.02931 0.05842 0.16346 0.0
H117 H 0.92068 0.11474 0.19874 0.0
H118 H 0.97367 0.44515 0.1736 0.0
H119 H 1.0875 0.38551 0.14391 0.0
Tb120 Tb 0.7117 0.23843 0.60922 0.0
Eu121 Eu 0.55895 0.39281 0.50399 0.0
C122 C 0.62832 0.39377 0.6696 0.0
C123 C 0.53051 0.17328 0.57618 0.0
C124 C 0.92919 0.20259 0.69363 0.0
C125 C 1.01693 0.34008 0.67825 0.0
C126 C 0.95419 0.31038 0.69831 0.0
C127 C 0.97362 0.12466 0.6753 0.0
C128 C 1.03672 0.15494 0.65582 0.0
C129 C 1.0549 0.26305 0.65261 0.0
C130 C 0.85001 0.17398 0.69529 0.0
O131 O 0.66178 0.154 0.50627 0.0
O132 O 0.59742 0.29523 0.43175 0.0
O133 O 0.67694 0.48569 0.53626 0.0
O134 O 0.74966 0.33486 0.54088 0.0
C135 C 0.62345 0.19608 0.44197 0.0
O136 O 0.45151 0.40835 0.40307 0.0
O137 O 0.4855 0.53765 0.47996 0.0
O138 O 0.55907 0.38709 0.61408 0.0
O139 O 0.69375 0.3845 0.65781 0.0
O140 O 0.60764 0.16412 0.62185 0.0
O141 O 0.50575 0.24024 0.52214 0.0
C142 C 0.74386 0.43887 0.53982 0.0
O143 O 0.81062 0.25077 0.71 0.0
O144 O 0.80136 0.11893 0.64098 0.0
C145 C 0.34907 0.4774 0.43559 0.0
C146 C 0.24146 0.40807 0.49629 0.0
C147 C 0.24707 0.35088 0.43915 0.0
C148 C 0.30111 0.38463 0.40951 0.0
C149 C 0.33488 0.54108 0.48579 0.0
C150 C 0.28417 0.50473 0.51737 0.0
C151 C 0.42612 0.49198 0.42637 0.0
H152 H 1.03253 0.42369 0.67875 0.0
H153 H 0.92209 0.3728 0.71297 0.0
H154 H 0.95638 0.04107 0.67189 0.0
H155 H 1.06908 0.09491 0.63978 0.0
H156 H 0.21439 0.27628 0.42096 0.0
H157 H 0.30957 0.33384 0.37006 0.0
H158 H 0.36853 0.61459 0.5055 0.0
H159 H 0.28079 0.55086 0.56042 0.0
C160 C 0.46013 0.47796 1.07077 0.0
C161 C 0.46077 0.36648 1.07404 0.0
H162 H 0.39397 0.62126 1.06616 0.0
C163 C 0.39266 0.3129 1.07656 0.0
H164 H 0.51099 0.52061 1.06799 0.0
C165 C 0.32507 0.36952 1.07474 0.0
C166 C 0.32405 0.48102 1.07087 0.0
H167 H 0.39122 0.22648 0.07983 0.0
H168 H 0.27428 0.32628 1.07743 0.0
C169 C 0.39246 0.53479 1.06903 0.0
C170 C 0.86453 -0.09277 0.13924 0.0
C171 C 0.81392 -0.04687 1.07327 0.0
H172 H 0.9775 -0.17215 0.19966 0.0
C173 C 0.83998 -0.04251 1.01747 0.0
H174 H 0.84575 -0.09536 0.18335 0.0
C175 C 0.91537 -0.08471 1.02726 0.0
C176 C 0.96594 -0.13066 0.09315 0.0
H177 H 0.80282 -0.00505 0.9669 0.0
H178 H 0.93395 -0.08252 0.98302 0.0
C179 C 0.94022 -0.13451 0.14917 0.0
C180 C 0.32298 0.11507 0.57191 0.0
C181 C 0.32684 0.00469 0.58367 0.0
H182 H 0.38625 0.25517 0.56241 0.0
C183 C 0.40152 -0.04866 0.59937 0.0
H184 H 0.26708 0.15831 0.56051 0.0
C185 C 0.47001 0.00654 0.60146 0.0
C186 C 0.46478 0.11584 0.5867 0.0
H187 H 0.40702 -0.13401 0.60888 0.0
H188 H 0.52558 -0.03693 0.6113 0.0
C189 C 0.39125 0.17004 0.57321 0.0
C190 C 0.93961 0.52405 0.53152 0.0
C191 C 0.97074 0.59558 0.58942 0.0
H192 H 0.84214 0.41847 0.47027 0.0
C193 C 0.92601 0.61743 0.6303 0.0
H194 H 0.97266 0.50825 0.49845 0.0
C195 C 0.85006 0.56913 0.61247 0.0
C196 C 0.81839 0.49925 0.55363 0.0
H197 H 0.94827 0.67468 0.67399 0.0
H198 H 0.81682 0.58446 0.64532 0.0
C199 C 0.86461 0.47475 0.51454 0.0
C200 C 0.56168 0.72497 1.04755 0.0
C201 C 0.594 0.72031 0.12307 0.0
H202 H 0.58106 0.69542 0.95182 0.0
C203 C 0.67247 0.6787 0.15991 0.0
H204 H 0.49999 -0.24824 1.01744 0.0
C205 C 0.71763 0.64355 0.12213 0.0
C206 C 0.68551 0.65002 1.04692 0.0
H207 H 0.6992 0.6742 0.21788 0.0
H208 H 0.77807 0.61166 0.15167 0.0
C209 C 0.60736 0.69138 1.00983 0.0
C210 C 0.56011 -0.26094 0.55782 0.0
C211 C 0.59554 0.727 0.63281 0.0
H212 H 0.57887 -0.22288 0.46301 0.0
C213 C 0.67931 -0.25645 0.67015 0.0
H214 H 0.49499 0.73091 0.52835 0.0
C215 C 0.72671 -0.22828 0.63298 0.0
C216 C 0.69145 -0.21812 0.55787 0.0
H217 H 0.70788 0.73542 0.72792 0.0
H218 H 0.7909 -0.21212 0.66301 0.0
C219 C 0.60778 -0.23482 0.52047 0.0
C220 C 0.19064 0.14159 0.14581 0.0
C221 C 1.11285 0.18448 0.10915 0.0
H222 H 0.29674 0.07771 0.13734 0.0
C223 C 1.08081 0.1928 1.03408 0.0
H224 H 0.21667 0.13558 0.20373 0.0
C225 C 1.12535 0.15674 0.99595 0.0
C226 C 0.20288 0.11197 1.03234 0.0
H227 H 1.02062 0.22564 1.00489 0.0
H228 H 1.09863 0.16214 0.938 0.0
C229 C 0.23564 0.10693 0.10774 0.0
C230 C 1.11638 0.32256 0.50002 0.0
C231 C 0.19438 0.36653 0.53625 0.0
H232 H 1.01133 0.25515 0.50934 0.0
C233 C 0.22754 0.37156 0.61173 0.0
H234 H 1.08911 0.31754 0.44204 0.0
C235 C 0.18256 0.33807 0.64997 0.0
C236 C 1.10442 0.29591 0.61352 0.0
H237 H 0.28874 0.40057 0.64139 0.0
H238 H 0.20892 0.3444 0.7079 0.0
C239 C 1.07194 0.2872 0.5384 0.0
C240 C 0.18796 -0.25704 0.37588 0.0
C241 C 0.15165 0.6823 0.41224 0.0
H242 H 0.2127 -0.24202 0.28329 0.0
C243 C 1.11373 0.58473 0.38307 0.0
H244 H 0.21691 -0.1811 0.39737 0.0
C245 C 1.11121 0.54939 0.31695 0.0
C246 C 0.14676 0.61152 0.28015 0.0
H247 H 1.08445 0.53772 0.41036 0.0
H248 H 1.08185 0.47427 0.29502 0.0
C249 C 0.18588 0.70767 0.31077 0.0
C250 C 1.10821 -0.10072 0.88228 0.0
C251 C 0.1471 -0.19693 0.9124 0.0
H252 H 1.0742 0.00585 0.79241 0.0
C253 C 0.18435 -0.25813 0.87701 0.0
H254 H 1.0785 -0.05334 0.90907 0.0
C255 C 0.18173 -0.22502 0.81149 0.0
C256 C 0.14118 -0.13064 0.77977 0.0
H257 H 0.21437 0.66716 0.89955 0.0
H258 H 0.20897 0.72418 0.78452 0.0
C259 C 1.10492 -0.06777 0.81565 0.0
C260 C 0.68659 0.10162 0.37127 0.0
C261 C 0.61622 0.13564 0.37809 0.0
H262 H 0.74036 0.05413 0.30001 0.0
C263 C 0.54155 0.13317 0.31792 0.0
H264 H 0.74522 0.11379 0.4145 0.0
C265 C 0.53905 0.10597 0.25062 0.0
C266 C 0.61087 0.07852 0.24346 0.0
H267 H 0.48676 0.1623 0.32174 0.0
H268 H 0.48331 0.11909 0.20356 0.0
C269 C 0.68357 0.06963 0.30492 0.0
C270 C 0.56148 0.35871 0.75362 0.0
C271 C 0.63272 0.37215 0.74224 0.0
H272 H 0.50939 0.31363 0.82667 0.0
C273 C 0.70818 0.35095 0.79893 0.0
H274 H 0.50232 0.37162 0.71069 0.0
C275 C 0.71197 0.3106 0.86386 0.0
C276 C 0.64094 0.29767 0.87547 0.0
H277 H 0.76441 0.36083 0.79232 0.0
H278 H 0.77039 0.28664 0.904 0.0
C279 C 0.56562 0.32359 0.81989 0.0
loop_
_geom_bond_atom_site_label_1
_geom_bond_atom_site_label_2
_geom_bond_distance
_geom_bond_site_symmetry_2
_ccdc_geom_bond_type
Tb0 C10 2.827 . S
Tb0 O11 2.347 1_556 S
Tb0 O14 2.366 1_565 S
Tb0 O19 2.418 . S
Tb0 O20 2.384 1_655 S
Tb0 O23 2.479 . S
Tb0 O24 2.471 1_556 S
Eu1 O12 2.418 . S
Eu1 O13 2.384 1_455 S
Eu1 O16 2.479 . S
Eu1 O17 2.471 1_554 S
Eu1 O18 2.347 1_554 S
Eu1 O21 2.366 1_545 S
Eu1 C31 2.825 . S
C2 O18 1.259 1_665 S
C2 O19 1.265 . S
C3 O20 1.255 1_554 S
C3 O21 1.265 . S
C4 C6 1.380 1_554 S
C4 C7 1.374 . S
C4 C10 1.505 1_554 S
C5 C6 1.384 . S
C5 C9 1.387 1_556 S
C5 H32 0.930 . S
C6 C4 1.380 1_556 S
C6 C5 1.384 . S
C6 H33 0.931 . S
C7 C4 1.374 . S
C7 C8 1.390 . S
C7 H34 0.930 . S
C8 C7 1.390 . S
C8 C9 1.391 . S
C8 H35 0.930 . S
C9 C5 1.387 1_554 S
C9 C8 1.391 . S
C10 Tb0 2.827 . S
C10 C4 1.505 1_556 S
C10 O23 1.245 . S
C10 O24 1.241 1_556 S
O11 Tb0 2.347 1_554 S
O11 C15 1.259 1_665 S
O12 Eu1 2.418 . S
O12 C15 1.265 . S
O13 Eu1 2.384 1_655 S
O13 C22 1.255 1_554 S
O14 Tb0 2.366 1_545 S
O14 C22 1.265 . S
C15 O11 1.259 1_445 S
C15 O12 1.265 . S
O16 Eu1 2.479 . S
O16 C31 1.238 . S
O17 Eu1 2.471 1_556 S
O17 C31 1.247 1_556 S
O18 Eu1 2.347 1_556 S
O18 C2 1.259 1_445 S
O19 Tb0 2.418 . S
O19 C2 1.265 . S
O20 Tb0 2.384 1_455 S
O20 C3 1.255 1_556 S
O21 Eu1 2.366 1_565 S
O21 C3 1.265 . S
C22 O13 1.255 1_556 S
C22 O14 1.265 . S
O23 Tb0 2.479 . S
O23 C10 1.245 . S
O24 Tb0 2.471 1_554 S
O24 C10 1.241 1_554 S
C25 C28 1.380 1_556 S
C25 C29 1.374 . S
C25 C31 1.507 1_556 S
C26 C27 1.387 1_556 S
C26 C30 1.391 . S
C27 C26 1.387 1_554 S
C27 C28 1.384 . S
C27 H36 0.930 . S
C28 C25 1.380 1_554 S
C28 C27 1.384 . S
C28 H37 0.931 . S
C29 C25 1.374 . S
C29 C30 1.390 . S
C29 H38 0.930 . S
C30 C26 1.391 . S
C30 C29 1.390 . S
C30 H39 0.930 . S
C31 Eu1 2.825 . S
C31 O16 1.238 . S
C31 O17 1.247 1_554 S
C31 C25 1.507 1_554 S
H32 C5 0.930 . S
H33 C6 0.931 . S
H34 C7 0.930 . S
H35 C8 0.930 . S
H36 C27 0.930 . S
H37 C28 0.931 . S
H38 C29 0.930 . S
H39 C30 0.930 . S
Tb40 C50 2.825 . S
Tb40 O51 2.347 . S
Tb40 O54 2.366 1_565 S
Tb40 O59 2.418 . S
Tb40 O60 2.384 1_455 S
Tb40 O63 2.479 . S
Tb40 O64 2.471 . S
Eu41 O52 2.418 . S
Eu41 O53 2.384 1_655 S
Eu41 O56 2.479 . S
Eu41 O57 2.471 . S
Eu41 O58 2.347 . S
Eu41 O61 2.366 1_545 S
Eu41 C71 2.825 . S
C42 O58 1.259 1_465 S
C42 O59 1.265 . S
C43 O60 1.255 . S
C43 O61 1.265 . S
C44 C46 1.380 . S
C44 C47 1.374 . S
C44 C50 1.507 . S
C45 C46 1.384 . S
C45 C49 1.387 . S
C45 H72 0.930 . S
C46 C44 1.380 . S
C46 C45 1.384 . S
C46 H73 0.931 . S
C47 C44 1.374 . S
C47 C48 1.390 . S
C47 H74 0.930 . S
C48 C47 1.390 . S
C48 C49 1.391 . S
C48 H75 0.930 . S
C49 C45 1.387 . S
C49 C48 1.391 . S
C50 Tb40 2.825 . S
C50 C44 1.507 . S
C50 O63 1.238 . S
C50 O64 1.247 . S
O51 Tb40 2.347 . S
O51 C55 1.259 1_465 S
O52 Eu41 2.418 . S
O52 C55 1.265 . S
O53 Eu41 2.384 1_455 S
O53 C62 1.255 . S
O54 Tb40 2.366 1_545 S
O54 C62 1.265 . S
C55 O51 1.259 1_645 S
C55 O52 1.265 . S
O56 Eu41 2.479 . S
O56 C71 1.238 . S
O57 Eu41 2.471 . S
O57 C71 1.247 . S
O58 Eu41 2.347 . S
O58 C42 1.259 1_645 S
O59 Tb40 2.418 . S
O59 C42 1.265 . S
O60 Tb40 2.384 1_655 S
O60 C43 1.255 . S
O61 Eu41 2.366 1_565 S
O61 C43 1.265 . S
C62 O53 1.255 . S
C62 O54 1.265 . S
O63 Tb40 2.479 . S
O63 C50 1.238 . S
O64 Tb40 2.471 . S
O64 C50 1.247 . S
C65 C68 1.380 . S
C65 C69 1.374 . S
C65 C71 1.507 . S
C66 C67 1.387 . S
C66 C70 1.391 . S
C67 C66 1.387 . S
C67 C68 1.384 . S
C67 H76 0.930 . S
C68 C65 1.380 . S
C68 C67 1.384 . S
C68 H77 0.931 . S
C69 C65 1.374 . S
C69 C70 1.390 . S
C69 H78 0.930 . S
C70 C66 1.391 . S
C70 C69 1.390 . S
C70 H79 0.930 . S
C71 Eu41 2.825 . S
C71 O56 1.238 . S
C71 O57 1.247 . S
C71 C65 1.507 . S
H72 C45 0.930 . S
H73 C46 0.931 . S
H74 C47 0.930 . S
H75 C48 0.930 . S
H76 C67 0.930 . S
H77 C68 0.931 . S
H78 C69 0.930 . S
H79 C70 0.930 . S
Tb80 C90 2.827 . S
Tb80 O91 2.347 1_556 S
Tb80 O94 2.366 . S
Tb80 O99 2.418 . S
Tb80 O100 2.384 . S
Tb80 O103 2.479 . S
Tb80 O104 2.471 1_556 S
Eu81 O92 2.418 . S
Eu81 O93 2.384 . S
Eu81 O96 2.479 . S
Eu81 O97 2.471 1_554 S
Eu81 O98 2.347 1_554 S
Eu81 O101 2.366 . S
Eu81 C111 2.825 . S
C82 O98 1.259 . S
C82 O99 1.265 . S
C83 O100 1.255 1_554 S
C83 O101 1.265 . S
C84 C86 1.380 1_544 S
C84 C87 1.374 . S
C84 C90 1.505 1_554 S
C85 C86 1.384 . S
C85 C89 1.387 1_556 S
C85 H112 0.930 . S
C86 C84 1.380 1_566 S
C86 C85 1.384 . S
C86 H113 0.931 . S
C87 C84 1.374 . S
C87 C88 1.390 . S
C87 H114 0.930 . S
C88 C87 1.390 . S
C88 C89 1.391 1_545 S
C88 H115 0.930 . S
C89 C85 1.387 1_554 S
C89 C88 1.391 1_565 S
C90 Tb80 2.827 . S
C90 C84 1.505 1_556 S
C90 O103 1.245 . S
C90 O104 1.242 1_556 S
O91 Tb80 2.347 1_554 S
O91 C95 1.259 . S
O92 Eu81 2.418 . S
O92 C95 1.265 . S
O93 Eu81 2.384 . S
O93 C102 1.255 1_554 S
O94 Tb80 2.366 . S
O94 C102 1.265 . S
C95 O91 1.259 . S
C95 O92 1.265 . S
O96 Eu81 2.479 . S
O96 C111 1.238 . S
O97 Eu81 2.471 1_556 S
O97 C111 1.247 1_556 S
O98 Eu81 2.347 1_556 S
O98 C82 1.259 . S
O99 Tb80 2.418 . S
O99 C82 1.265 . S
O100 Tb80 2.384 . S
O100 C83 1.255 1_556 S
O101 Eu81 2.366 . S
O101 C83 1.265 . S
C102 O93 1.255 1_556 S
C102 O94 1.265 . S
O103 Tb80 2.479 . S
O103 C90 1.245 . S
O104 Tb80 2.471 1_554 S
O104 C90 1.242 1_554 S
C105 C108 1.380 1_566 S
C105 C109 1.374 . S
C105 C111 1.507 1_556 S
C106 C107 1.387 1_556 S
C106 C110 1.391 1_545 S
C107 C106 1.387 1_554 S
C107 C108 1.384 . S
C107 H116 0.930 . S
C108 C105 1.380 1_544 S
C108 C107 1.384 . S
C108 H117 0.931 . S
C109 C105 1.374 . S
C109 C110 1.390 . S
C109 H118 0.930 . S
C110 C106 1.391 1_565 S
C110 C109 1.390 . S
C110 H119 0.930 . S
C111 Eu81 2.825 . S
C111 O96 1.238 . S
C111 O97 1.247 1_554 S
C111 C105 1.507 1_554 S
H112 C85 0.930 . S
H113 C86 0.931 . S
H114 C87 0.930 . S
H115 C88 0.930 . S
H116 C107 0.930 . S
H117 C108 0.931 . S
H118 C109 0.930 . S
H119 C110 0.930 . S
Tb120 C130 2.825 . S
Tb120 O131 2.347 . S
Tb120 O134 2.366 . S
Tb120 O139 2.418 . S
Tb120 O140 2.384 . S
Tb120 O143 2.479 . S
Tb120 O144 2.471 . S
Eu121 O132 2.418 . S
Eu121 O133 2.384 . S
Eu121 O136 2.479 . S
Eu121 O137 2.471 . S
Eu121 O138 2.347 . S
Eu121 O141 2.366 . S
Eu121 C151 2.825 . S
C122 O138 1.259 . S
C122 O139 1.265 . S
C123 O140 1.255 . S
C123 O141 1.265 . S
C124 C126 1.380 1_545 S
C124 C127 1.374 . S
C124 C130 1.507 . S
C125 C126 1.384 . S
C125 C129 1.387 . S
C125 H152 0.930 . S
C126 C124 1.380 1_565 S
C126 C125 1.384 . S
C126 H153 0.931 . S
C127 C124 1.374 . S
C127 C128 1.390 . S
C127 H154 0.930 . S
C128 C127 1.390 . S
C128 C129 1.391 1_545 S
C128 H155 0.930 . S
C129 C125 1.387 . S
C129 C128 1.391 1_565 S
C130 Tb120 2.825 . S
C130 C124 1.507 . S
C130 O143 1.238 . S
C130 O144 1.247 . S
O131 Tb120 2.347 . S
O131 C135 1.259 . S
O132 Eu121 2.418 . S
O132 C135 1.265 . S
O133 Eu121 2.384 . S
O133 C142 1.255 . S
O134 Tb120 2.366 . S
O134 C142 1.265 . S
C135 O131 1.259 . S
C135 O132 1.265 . S
O136 Eu121 2.479 . S
O136 C151 1.238 . S
O137 Eu121 2.471 . S
O137 C151 1.247 . S
O138 Eu121 2.347 . S
O138 C122 1.259 . S
O139 Tb120 2.418 . S
O139 C122 1.265 . S
O140 Tb120 2.384 . S
O140 C123 1.255 . S
O141 Eu121 2.366 . S
O141 C123 1.265 . S
C142 O133 1.255 . S
C142 O134 1.265 . S
O143 Tb120 2.479 . S
O143 C130 1.238 . S
O144 Tb120 2.471 . S
O144 C130 1.247 . S
C145 C148 1.380 1_565 S
C145 C149 1.374 . S
C145 C151 1.507 . S
C146 C147 1.387 . S
C146 C150 1.391 1_545 S
C147 C146 1.387 . S
C147 C148 1.384 . S
C147 H156 0.930 . S
C148 C145 1.380 1_545 S
C148 C147 1.384 . S
C148 H157 0.931 . S
C149 C145 1.374 . S
C149 C150 1.390 . S
C149 H158 0.930 . S
C150 C146 1.391 1_565 S
C150 C149 1.390 . S
C150 H159 0.930 . S
C151 Eu121 2.825 . S
C151 O136 1.238 . S
C151 O137 1.247 . S
C151 C145 1.507 . S
H152 C125 0.930 . S
H153 C126 0.931 . S
H154 C127 0.930 . S
H155 C128 0.930 . S
H156 C147 0.930 . S
H157 C148 0.931 . S
H158 C149 0.930 . S
H159 C150 0.930 . S
C160 C161 1.387 . S
C160 H164 0.950 . S
C160 C169 1.390 . S
C161 C160 1.387 . S
C161 C163 1.387 1_556 S
H162 C169 0.950 . S
C163 C161 1.387 1_554 S
C163 C165 1.390 . S
C163 H167 0.950 1_565 S
H164 C160 0.950 . S
C165 C163 1.390 . S
C165 C166 1.387 . S
C165 H168 0.950 . S
C166 C165 1.387 . S
C166 C169 1.387 1_554 S
H167 C163 0.950 1_545 S
H168 C165 0.950 . S
C169 C160 1.390 . S
C169 H162 0.950 . S
C169 C166 1.387 1_556 S
C170 C171 1.387 . S
C170 H174 0.950 . S
C170 C179 1.390 . S
C171 C170 1.387 . S
C171 C173 1.387 1_554 S
H172 C179 0.950 . S
C173 C171 1.387 1_556 S
C173 C175 1.390 . S
C173 H177 0.950 . S
H174 C170 0.950 . S
C175 C173 1.390 . S
C175 C176 1.387 . S
C175 H178 0.950 . S
C176 C175 1.387 . S
C176 C179 1.387 1_556 S
H177 C173 0.950 . S
H178 C175 0.950 . S
C179 C170 1.390 . S
C179 H172 0.950 . S
C179 C176 1.387 1_554 S
C180 C181 1.387 . S
C180 H184 0.949 1_545 S
C180 C189 1.390 . S
C181 C180 1.387 . S
C181 C183 1.387 . S
H182 C189 0.950 1_565 S
C183 C181 1.387 . S
C183 C185 1.390 . S
C183 H187 0.950 . S
H184 C180 0.949 1_565 S
C185 C183 1.390 . S
C185 C186 1.387 . S
C185 H188 0.950 . S
C186 C185 1.387 . S
C186 C189 1.387 . S
H187 C183 0.950 . S
H188 C185 0.950 . S
C189 C180 1.390 . S
C189 H182 0.950 1_545 S
C189 C186 1.387 . S
C190 C191 1.387 . S
C190 H194 0.950 . S
C190 C199 1.390 . S
C191 C190 1.387 . S
C191 C193 1.387 . S
H192 C199 0.950 1_545 S
C193 C191 1.387 . S
C193 C195 1.390 . S
C193 H197 0.950 . S
H194 C190 0.950 . S
C195 C193 1.390 . S
C195 C196 1.387 . S
C195 H198 0.950 . S
C196 C195 1.387 . S
C196 C199 1.387 . S
H197 C193 0.950 . S
H198 C195 0.950 . S
C199 C190 1.390 . S
C199 H192 0.950 1_565 S
C199 C196 1.387 . S
C200 C201 1.387 . S
C200 H204 0.950 . S
C200 C209 1.390 1_545 S
C201 C200 1.387 . S
C201 C203 1.387 1_556 S
H202 C209 0.950 . S
C203 C201 1.387 1_554 S
C203 C205 1.390 1_545 S
C203 H207 0.950 . S
H204 C200 0.950 . S
C205 C203 1.390 1_565 S
C205 C206 1.387 . S
C205 H208 0.950 . S
C206 C205 1.387 . S
C206 C209 1.387 1_554 S
H207 C203 0.950 . S
H208 C205 0.950 . S
C209 C200 1.390 1_565 S
C209 H202 0.950 . S
C209 C206 1.387 1_556 S
C210 C211 1.387 . S
C210 H214 0.950 . S
C210 C219 1.390 1_565 S
C211 C210 1.387 . S
C211 C213 1.387 . S
H212 C219 0.950 . S
C213 C211 1.387 . S
C213 C215 1.390 1_565 S
C213 H217 0.950 . S
H214 C210 0.950 . S
C215 C213 1.390 1_545 S
C215 C216 1.387 . S
C215 H218 0.950 . S
C216 C215 1.387 . S
C216 C219 1.387 . S
H217 C213 0.950 . S
H218 C215 0.950 . S
C219 C210 1.390 1_545 S
C219 H212 0.950 . S
C219 C216 1.387 . S
C220 C221 1.387 1_554 S
C220 H224 0.950 . S
C220 C229 1.390 1_655 S
C221 C220 1.387 1_556 S
C221 C223 1.387 . S
H222 C229 0.950 . S
C223 C221 1.387 . S
C223 C225 1.390 1_655 S
C223 H227 0.950 . S
H224 C220 0.950 . S
C225 C223 1.390 1_455 S
C225 C226 1.387 1_556 S
C225 H228 0.950 . S
C226 C225 1.387 1_554 S
C226 C229 1.387 . S
H227 C223 0.950 . S
H228 C225 0.950 . S
C229 C220 1.390 1_455 S
C229 H222 0.950 . S
C229 C226 1.387 . S
C230 C231 1.387 . S
C230 H234 0.950 . S
C230 C239 1.390 1_455 S
C231 C230 1.387 . S
C231 C233 1.387 . S
H232 C239 0.950 . S
C233 C231 1.387 . S
C233 C235 1.390 1_455 S
C233 H237 0.950 . S
H234 C230 0.950 . S
C235 C233 1.390 1_655 S
C235 C236 1.387 . S
C235 H238 0.950 . S
C236 C235 1.387 . S
C236 C239 1.387 . S
H237 C233 0.950 . S
H238 C235 0.950 . S
C239 C230 1.390 1_655 S
C239 H232 0.950 . S
C239 C236 1.387 . S
C240 C241 1.387 1_445 S
C240 H244 0.950 1_455 S
C240 C249 1.390 . S
C241 C240 1.387 1_665 S
C241 C243 1.388 1_655 S
H242 C249 0.950 . S
C243 C241 1.388 1_455 S
C243 C245 1.390 . S
C243 H247 0.950 1_455 S
H244 C240 0.950 1_655 S
C245 C243 1.390 . S
C245 C246 1.387 . S
C245 H248 0.950 . S
C246 C245 1.387 . S
C246 C249 1.387 1_565 S
H247 C243 0.950 1_655 S
H248 C245 0.950 . S
C249 C240 1.390 . S
C249 H242 0.950 . S
C249 C246 1.387 1_545 S
C250 C251 1.387 1_455 S
C250 H254 0.948 1_455 S
C250 C259 1.391 . S
C251 C250 1.387 1_655 S
C251 C253 1.388 1_545 S
H252 C259 0.950 . S
C253 C251 1.388 1_565 S
C253 C255 1.390 1_655 S
C253 H257 0.950 . S
H254 C250 0.948 1_655 S
C255 C253 1.390 1_455 S
C255 C256 1.387 1_565 S
C255 H258 0.950 . S
C256 C255 1.387 1_545 S
C256 C259 1.387 . S
H257 C253 0.950 . S
H258 C255 0.950 . S
C259 C250 1.391 . S
C259 H252 0.950 . S
C259 C256 1.387 . S
C260 C261 1.387 . S
C260 H264 0.950 . S
C260 C269 1.390 . S
C261 C260 1.387 . S
C261 C263 1.387 . S
H262 C269 0.950 . S
C263 C261 1.387 . S
C263 C265 1.390 . S
C263 H267 0.950 . S
H264 C260 0.950 . S
C265 C263 1.390 . S
C265 C266 1.387 . S
C265 H268 0.950 . S
C266 C265 1.387 . S
C266 C269 1.387 . S
H267 C263 0.950 . S
H268 C265 0.950 . S
C269 C260 1.390 . S
C269 H262 0.950 . S
C269 C266 1.387 . S
C270 C271 1.387 . S
C270 H274 0.950 . S
C270 C279 1.390 . S
C271 C270 1.387 . S
C271 C273 1.387 . S
H272 C279 0.950 . S
C273 C271 1.387 . S
C273 C275 1.390 . S
C273 H277 0.950 . S
H274 C270 0.950 . S
C275 C273 1.390 . S
C275 C276 1.387 . S
C275 H278 0.950 . S
C276 C275 1.387 . S
C276 C279 1.387 . S
H277 C273 0.950 . S
H278 C275 0.950 . S
C279 C270 1.390 . S
C279 H272 0.950 . S
C279 C276 1.387 . S
C161 C102 1.864 . S
C166 C3 1.864 . S
C171 C83 1.861 . S
C176 C22 1.861 . S
C181 C62 1.864 . S
C186 C123 1.864 . S
C191 C43 1.861 . S
C196 C142 1.861 . S
C201 C26 2.751 . S
C206 C9 2.751 . S
C211 C49 2.754 . S
C216 C66 2.754 . S
C221 C106 2.754 1_565 S
C226 C89 2.754 1_545 S
C231 C146 2.754 1_565 S
C236 C129 2.754 1_545 S
C241 C55 1.476 1_565 S
C246 C15 1.476 1_565 S
C251 C2 1.476 1_545 S
C256 C42 1.476 1_545 S
C261 C135 1.477 . S
C266 C95 1.477 . S
C271 C122 1.476 . S
C276 C82 1.476 . S
