# Generated by pormake.
# Topology tfs, (6)-cn, num edge types: 1
# Building blocks:
#     Node 0, Type 0, BuildingBlock: BETGAK_clean_sbu_0, # of connection points: 6
#     Node 1, Type 0, BuildingBlock: BETGAK_clean_sbu_0, # of connection points: 6
#     Node 2, Type 0, BuildingBlock: BETGAK_clean_sbu_0, # of connection points: 6
#     Node 3, Type 0, BuildingBlock: BETGAK_clean_sbu_0, # of connection points: 6
#     Node 4, Type 0, BuildingBlock: BETGAK_clean_sbu_0, # of connection points: 6
#     Node 5, Type 0, BuildingBlock: BETGAK_clean_sbu_0, # of connection points: 6
#     Edge 6, Type (0, 0), BuildingBlock: EZIPEK_clean_linker_0, # of connection points: 2
#     Edge 7, Type (0, 0), BuildingBlock: EZIPEK_clean_linker_0, # of connection points: 2
#     Edge 8, Type (0, 0), BuildingBlock: EZIPEK_clean_linker_0, # of connection points: 2
#     Edge 9, Type (0, 0), BuildingBlock: EZIPEK_clean_linker_0, # of connection points: 2
#     Edge 10, Type (0, 0), BuildingBlock: EZIPEK_clean_linker_0, # of connection points: 2
#     Edge 11, Type (0, 0), BuildingBlock: EZIPEK_clean_linker_0, # of connection points: 2
#     Edge 12, Type (0, 0), BuildingBlock: EZIPEK_clean_linker_0, # of connection points: 2
#     Edge 13, Type (0, 0), BuildingBlock: EZIPEK_clean_linker_0, # of connection points: 2
#     Edge 14, Type (0, 0), BuildingBlock: EZIPEK_clean_linker_0, # of connection points: 2
#     Edge 15, Type (0, 0), BuildingBlock: EZIPEK_clean_linker_0, # of connection points: 2
#     Edge 16, Type (0, 0), BuildingBlock: EZIPEK_clean_linker_0, # of connection points: 2
#     Edge 17, Type (0, 0), BuildingBlock: EZIPEK_clean_linker_0, # of connection points: 2
#     Edge 18, Type (0, 0), BuildingBlock: EZIPEK_clean_linker_0, # of connection points: 2
#     Edge 19, Type (0, 0), BuildingBlock: EZIPEK_clean_linker_0, # of connection points: 2
#     Edge 20, Type (0, 0), BuildingBlock: EZIPEK_clean_linker_0, # of connection points: 2
#     Edge 21, Type (0, 0), BuildingBlock: EZIPEK_clean_linker_0, # of connection points: 2
#     Edge 22, Type (0, 0), BuildingBlock: EZIPEK_clean_linker_0, # of connection points: 2
#     Edge 23, Type (0, 0), BuildingBlock: EZIPEK_clean_linker_0, # of connection points: 2
# Relax obj value: 0.603
# Max RMSD: 0.475
# Mean RMSD: 0.364
data_MOF--net-tfs--node1-BETGAK_clean_sbu_0--edge1-EZIPEK_clean_linker_0
_symmetry_space_group_name_H-M    P1
_symmetry_Int_Tables_number       1
_symmetry_cell_setting            triclinic
loop_
_symmetry_equiv_pos_as_xyz
'x, y, z'
_cell_length_a     44.164138
_cell_length_b     41.35225
_cell_length_c     10.08168
_cell_angle_alpha  97.212016
_cell_angle_beta   91.309174
_cell_angle_gamma 128.98583
loop_
_atom_site_label
_atom_site_type_symbol
_atom_site_fract_x
_atom_site_fract_y
_atom_site_fract_z
_atom_type_partial_charge
La0 La 0.36555 0.47808 0.47622 0.0
La1 La 0.34233 0.53487 0.48672 0.0
C2 C 0.37437 0.42578 0.52976 0.0
C3 C 0.39758 0.41086 0.52606 0.0
C4 C 0.42036 0.41593 0.42259 0.0
C5 C 0.43925 0.39827 0.41844 0.0
C6 C 0.43541 0.3749 0.5168 0.0
C7 C 0.41283 0.37013 0.6202 0.0
C8 C 0.39427 0.38798 0.62487 0.0
C9 C 0.36456 0.50231 0.25242 0.0
C10 C 0.27276 0.43847 0.44624 0.0
C11 C 0.33614 0.5911 0.47238 0.0
C12 C 0.31874 0.60838 0.54118 0.0
C13 C 0.30971 0.60308 0.67367 0.0
C14 C 0.29899 0.62518 0.74461 0.0
C15 C 0.29738 0.65297 0.68409 0.0
C16 C 0.30493 0.65692 0.55009 0.0
C17 C 0.31559 0.63485 0.47932 0.0
C18 C 0.34177 0.50773 0.70682 0.0
C19 C 0.43316 0.57524 0.47819 0.0
O20 O 0.35612 0.42144 0.41622 0.0
O21 O 0.38794 0.46057 0.61283 0.0
O22 O 0.38588 0.49196 0.2827 0.0
O23 O 0.34117 0.49321 0.33691 0.0
O24 O 0.29972 0.43402 0.47242 0.0
O25 O 0.28287 0.47525 0.43002 0.0
O26 O 0.36473 0.59721 0.54525 0.0
O27 O 0.3124 0.55313 0.39845 0.0
O28 O 0.32004 0.51733 0.67644 0.0
O29 O 0.36618 0.51914 0.62543 0.0
O30 O 0.40503 0.57775 0.45912 0.0
O31 O 0.42552 0.53987 0.50143 0.0
H32 H 0.42321 0.4331 0.34446 0.0
H33 H 0.45658 0.40249 0.33781 0.0
H34 H 0.40948 0.35246 0.69736 0.0
H35 H 0.37665 0.38325 0.70506 0.0
H36 H 0.31229 0.58306 0.72368 0.0
H37 H 0.29313 0.62165 0.84778 0.0
H38 H 0.30372 0.67811 0.50168 0.0
H39 H 0.32277 0.63965 0.37779 0.0
La40 La 0.90592 0.18128 0.38928 0.0
La41 La 0.82653 0.16485 0.34411 0.0
C42 C 0.97626 0.21387 0.47412 0.0
C43 C 1.01866 0.24926 0.46315 0.0
C44 C 1.03249 0.2603 0.33896 0.0
C45 C 0.07321 0.28893 0.32989 0.0
C46 C 0.10203 0.30555 0.44298 0.0
C47 C 0.08718 0.2989 0.5692 0.0
C48 C 0.04663 0.27045 0.57864 0.0
C49 C 0.8711 0.15129 0.13525 0.0
C50 C 0.82632 0.0887 0.37866 0.0
C51 C 0.76759 0.15707 0.25135 0.0
C52 C 0.74407 0.17073 0.29093 0.0
C53 C 0.71293 0.14795 0.36829 0.0
C54 C 0.68889 0.15878 0.3951 0.0
C55 C 0.6951 0.19248 0.34462 0.0
C56 C 0.72633 0.21553 0.26846 0.0
C57 C 0.7504 0.20473 0.24167 0.0
C58 C 0.84899 0.1727 0.59833 0.0
C59 C 0.90522 0.25576 0.3365 0.0
O60 O 0.95484 0.18427 0.36796 0.0
O61 O 0.95599 0.2224 0.5388 0.0
O62 O 0.89356 0.14495 0.18877 0.0
O63 O 0.87074 0.17547 0.22341 0.0
O64 O 0.86389 0.11701 0.43317 0.0
O65 O 0.80888 0.10092 0.31636 0.0
O66 O 0.76505 0.12983 0.31429 0.0
O67 O 0.80357 0.18592 0.2283 0.0
O68 O 0.81464 0.15953 0.55377 0.0
O69 O 0.87041 0.18844 0.50683 0.0
O70 O 0.86803 0.23319 0.35816 0.0
O71 O 0.92467 0.24103 0.33639 0.0
H72 H 1.01183 0.24652 0.24806 0.0
H73 H 0.08119 0.29787 0.23291 0.0
H74 H 0.10661 0.31549 0.66326 0.0
H75 H 1.03714 0.26444 0.67718 0.0
H76 H 0.70667 0.12125 0.40657 0.0
H77 H 0.66505 0.14049 0.45403 0.0
H78 H 0.7318 0.24162 0.22822 0.0
H79 H 0.77362 0.22265 0.18019 0.0
La80 La 0.67104 0.81086 0.40406 0.0
La81 La 0.62315 0.83898 0.44302 0.0
C82 C 0.69647 0.77398 0.30901 0.0
C83 C 0.73161 0.77773 0.2963 0.0
C84 C 0.75962 0.79302 0.40832 0.0
C85 C 0.78731 0.78686 0.40032 0.0
C86 C 0.78712 0.76537 0.2805 0.0
C87 C 0.76119 0.75312 0.16599 0.0
C88 C 0.73363 0.75932 0.17387 0.0
C89 C 0.67077 0.83586 0.65637 0.0
C90 C 0.71676 0.90846 0.42578 0.0
C91 C 0.59868 0.87497 0.55289 0.0
C92 C 0.57975 0.86963 0.67435 0.0
C93 C 0.56675 0.89242 0.70924 0.0
C94 C 0.5514 0.88991 0.83023 0.0
C95 C 0.54918 0.86486 0.91815 0.0
C96 C 0.56229 0.84205 0.88331 0.0
C97 C 0.57714 0.84407 0.76101 0.0
C98 C 0.62503 0.81625 0.18854 0.0
C99 C 0.57844 0.74297 0.43326 0.0
O100 O 0.68541 0.77238 0.42891 0.0
O101 O 0.69177 0.79586 0.24132 0.0
O102 O 0.70042 0.8404 0.61162 0.0
O103 O 0.64255 0.81523 0.56303 0.0
O104 O 0.71949 0.87808 0.4014 0.0
O105 O 0.6829 0.89988 0.44612 0.0
O106 O 0.57821 0.84324 0.45109 0.0
O107 O 0.63492 0.88962 0.57602 0.0
O108 O 0.5961 0.81357 0.23075 0.0
O109 O 0.65197 0.83518 0.2852 0.0
O110 O 0.57993 0.77505 0.48472 0.0
O111 O 0.60891 0.75021 0.37811 0.0
H112 H 0.75858 0.80731 0.50393 0.0
H113 H 0.80701 0.79618 0.48977 0.0
H114 H 0.76057 0.73625 0.07317 0.0
H115 H 0.71218 0.74717 0.08667 0.0
H116 H 0.56884 0.91245 0.64371 0.0
H117 H 0.54127 0.90762 0.85552 0.0
H118 H 0.56078 0.82261 0.95005 0.0
H119 H 0.58715 0.82627 0.73483 0.0
La120 La 0.9122 0.57261 0.08218 0.0
La121 La 0.96399 0.54869 0.03721 0.0
C122 C 0.88057 0.60124 0.18841 0.0
C123 C 0.88109 0.6375 0.20362 0.0
C124 C 0.87383 0.64978 0.0912 0.0
C125 C 0.86542 0.67735 0.10888 0.0
C126 C 0.86431 0.69298 0.23884 0.0
C127 C 0.8747 0.6835 0.35139 0.0
C128 C 0.88296 0.65584 0.33378 0.0
C129 C 0.92038 0.55873 0.82989 0.0
C130 C 1.00484 0.6445 0.09038 0.0
C131 C 0.99294 0.51377 -0.03108 0.0
C132 C 0.98633 0.47868 0.02423 0.0
C133 C 0.97497 0.47246 0.15384 0.0
C134 C 0.96541 0.43767 0.20489 0.0
C135 C 0.96726 0.40849 0.12765 0.0
C136 C 0.97962 0.41511 -0.00078 0.0
C137 C 0.98895 0.44997 0.94752 0.0
C138 C 0.95572 0.5634 0.28818 0.0
C139 C 0.8707 0.47729 0.023 0.0
O140 O 0.8678 0.57723 0.06909 0.0
O141 O 0.91033 0.60682 0.25029 0.0
O142 O 0.89045 0.55461 0.86725 0.0
O143 O 0.94638 0.57612 0.92897 0.0
O144 O 0.97129 0.63357 0.12646 0.0
O145 O 1.00674 0.61578 0.027 0.0
O146 O 1.01173 0.54924 0.05503 0.0
O147 O 0.96218 0.50451 0.89944 0.0
O148 O 0.98646 0.56952 0.25187 0.0
O149 O 0.92968 0.54471 0.18878 0.0
O150 O 0.90389 0.48709 -0.01271 0.0
O151 O 0.8692 0.50608 0.08559 0.0
H152 H 0.8723 0.63621 -0.01037 0.0
H153 H 0.85727 0.68428 0.02109 0.0
H154 H 0.87372 0.69515 0.45228 0.0
H155 H 0.88835 0.64668 0.42176 0.0
H156 H 0.97275 0.49416 0.21491 0.0
H157 H 0.95561 0.43293 0.30343 0.0
H158 H 0.98088 0.39262 0.93777 0.0
H159 H 0.99741 0.45403 0.84712 0.0
La160 La 0.24254 0.81628 0.8903 0.0
La161 La 0.32787 0.87373 0.90097 0.0
C162 C 0.17115 0.77941 0.90681 0.0
C163 C 0.14192 0.77084 0.80225 0.0
C164 C 0.15166 0.80243 0.72921 0.0
C165 C 0.13134 0.79137 0.60156 0.0
C166 C 0.10094 0.74872 0.54634 0.0
C167 C 0.08843 0.71769 0.62528 0.0
C168 C 0.1088 0.7287 0.7525 0.0
C169 C 0.2666 0.8203 0.65032 0.0
C170 C 0.28965 0.91357 0.87343 0.0
C171 C 0.39918 0.9094 0.89164 0.0
C172 C 0.42339 0.9047 -0.02559 0.0
C173 C 0.40702 0.87981 0.07479 0.0
C174 C 0.42881 0.87359 0.15317 0.0
C175 C 0.46694 0.8907 0.12811 0.0
C176 C 0.48358 0.91673 0.02906 0.0
C177 C 0.46205 0.92386 0.95349 0.0
C178 C 0.30261 0.8695 0.1383 0.0
C179 C 0.28115 0.7757 0.89419 0.0
O180 O 0.18466 0.75961 0.87233 0.0
O181 O 0.19948 0.81892 0.96158 0.0
O182 O 0.23478 0.78727 0.68151 0.0
O183 O 0.28147 0.85012 0.74717 0.0
O184 O 0.25888 0.88004 0.91619 0.0
O185 O 0.31779 0.91375 0.83172 0.0
O186 O 0.38699 0.92742 0.95914 0.0
O187 O 0.37071 0.87519 0.80796 0.0
O188 O 0.33298 0.9034 0.10488 0.0
O189 O 0.28877 0.83923 0.0437 0.0
O190 O 0.31214 0.8111 0.86186 0.0
O191 O 0.25267 0.77392 0.94212 0.0
H192 H 0.17717 0.83519 0.76466 0.0
H193 H 0.14122 0.81569 0.54202 0.0
H194 H 0.06497 0.68458 0.58401 0.0
H195 H 0.10103 0.7038 0.80592 0.0
H196 H 0.37689 0.86439 0.09003 0.0
H197 H 0.41529 0.85463 0.23053 0.0
H198 H 0.51279 0.93026 0.00573 0.0
H199 H 0.47512 0.94319 0.87629 0.0
La200 La 0.51635 0.22424 0.46251 0.0
La201 La 0.59041 0.31336 0.46152 0.0
C202 C 0.45542 0.15546 0.51255 0.0
C203 C 0.42663 0.13239 0.60702 0.0
C204 C 0.43312 0.11304 0.69565 0.0
C205 C 0.40233 0.08114 0.75587 0.0
C206 C 0.36445 0.068 0.72959 0.0
C207 C 0.35868 0.09033 0.65328 0.0
C208 C 0.38948 0.12192 0.59041 0.0
C209 C 0.53568 0.24257 0.22131 0.0
C210 C 0.51506 0.3022 0.49466 0.0
C211 C 0.65343 0.37499 0.3962 0.0
C212 C 0.68044 0.3748 0.31493 0.0
C213 C 0.72056 0.40956 0.33704 0.0
C214 C 0.74628 0.40881 0.26181 0.0
C215 C 0.73225 0.37306 0.16505 0.0
C216 C 0.69235 0.33761 0.14662 0.0
C217 C 0.66651 0.33877 0.21962 0.0
C218 C 0.57068 0.29448 0.70206 0.0
C219 C 0.59402 0.23824 0.42959 0.0
O220 O 0.4543 0.18008 0.44657 0.0
O221 O 0.49129 0.17026 0.54675 0.0
O222 O 0.51588 0.20486 0.24802 0.0
O223 O 0.53944 0.26624 0.32245 0.0
O224 O 0.50039 0.265 0.52897 0.0
O225 O 0.54928 0.32531 0.44786 0.0
O226 O 0.651 0.36325 0.51282 0.0
O227 O 0.61887 0.35721 0.33161 0.0
O228 O 0.58961 0.3322 0.6749 0.0
O229 O 0.56729 0.27086 0.60117 0.0
O230 O 0.60741 0.2746 0.39607 0.0
O231 O 0.55995 0.21469 0.47754 0.0
H232 H 0.46123 0.12012 0.71059 0.0
H233 H 0.40752 0.06467 0.81579 0.0
H234 H 0.32968 0.08091 0.63326 0.0
H235 H 0.38349 0.13603 0.52202 0.0
H236 H 0.73187 0.43735 0.4112 0.0
H237 H 0.77713 0.43655 0.27684 0.0
H238 H 0.6811 0.30977 0.07289 0.0
H239 H 0.6356 0.3117 0.20052 0.0
C240 C 0.5125 0.36101 0.58194 0.0
C241 C 0.49322 0.31933 0.5087 0.0
C242 C 0.43661 0.31502 0.43526 0.0
C243 C 0.4553 0.3557 0.51334 0.0
N244 N 0.50823 0.41487 0.67685 0.0
N245 N 0.43501 0.25513 0.37436 0.0
C246 C 0.49242 0.37787 0.5911 0.0
C247 C 0.45458 0.29581 0.43879 0.0
N248 N 0.55051 0.38515 0.64148 0.0
N249 N 0.40205 0.29524 0.35415 0.0
H250 H 0.44778 0.24088 0.36368 0.0
H251 H 0.40527 0.23437 0.33685 0.0
H252 H 0.38747 0.30754 0.35255 0.0
H253 H 0.3889 0.26808 0.28201 0.0
H254 H 0.56809 0.41749 0.67799 0.0
H255 H 0.56558 0.37366 0.6489 0.0
H256 H 0.53237 0.42988 0.75004 0.0
H257 H 0.49554 0.42932 0.68188 0.0
C258 C 0.21409 0.3838 0.55772 0.0
C259 C 0.22958 0.40113 0.44016 0.0
C260 C 0.16369 0.34425 0.31167 0.0
C261 C 0.14687 0.33252 0.43391 0.0
N262 N 0.16422 0.32001 0.63885 0.0
N263 N 0.21798 0.39729 0.20165 0.0
C264 C 0.17425 0.34626 0.54875 0.0
C265 C 0.20396 0.38132 0.31623 0.0
N266 N 0.23674 0.40389 0.68028 0.0
N267 N 0.14438 0.31582 0.19403 0.0
H268 H 0.2475 0.42262 0.19872 0.0
H269 H 0.19967 0.38695 0.11206 0.0
H270 H 0.12017 0.28425 0.19352 0.0
H271 H 0.15618 0.321 0.10325 0.0
H272 H 0.22557 0.39442 0.77036 0.0
H273 H 0.2653 0.43238 0.69253 0.0
H274 H 0.18413 0.32684 0.71791 0.0
H275 H 0.138 0.28881 0.62126 0.0
C276 C 0.80593 0.028 0.50856 0.0
C277 C 0.80228 0.04166 0.38832 0.0
C278 C 0.75244 0.96571 0.28535 0.0
C279 C 0.75069 0.95307 0.41041 0.0
N280 N 0.77593 0.97215 0.64407 0.0
N281 N 0.7694 1.01663 0.15461 0.0
C282 C 0.77772 0.98425 0.52253 0.0
C283 C 0.77483 1.00886 0.27629 0.0
N284 N 0.83644 0.05582 0.60941 0.0
N285 N 0.73288 0.93676 0.16934 0.0
H286 H 0.78358 0.04644 0.13101 0.0
H287 H 0.78358 0.04644 0.13101 0.0
H288 H 0.71802 0.90457 0.16465 0.0
H289 H 0.71802 0.90457 0.16465 0.0
H290 H 0.84345 0.04621 0.68681 0.0
H291 H 0.85667 0.08821 0.61446 0.0
H292 H 0.79112 0.99326 0.73474 0.0
H293 H 0.75763 0.94047 0.65482 0.0
C294 C 0.86743 0.75613 0.24586 0.0
C295 C 0.84586 0.71299 0.25599 0.0
C296 C 0.78864 0.70714 0.30402 0.0
C297 C 0.80876 0.74891 0.28036 0.0
N298 N 0.86566 0.81253 0.21832 0.0
N299 N 0.78421 0.64527 0.27354 0.0
C300 C 0.84782 0.77337 0.24879 0.0
C301 C 0.80602 0.68792 0.27988 0.0
N302 N 0.90672 0.78065 0.23608 0.0
N303 N 0.75307 0.686 0.35151 0.0
H304 H 0.79565 0.62967 0.25634 0.0
H305 H 0.75389 0.6246 0.27379 0.0
H306 H 0.73878 0.69851 0.36787 0.0
H307 H 0.7392 0.65753 0.38575 0.0
H308 H 0.92508 0.81327 0.2416 0.0
H309 H 0.92167 0.76869 0.23207 0.0
H310 H 0.89243 0.83022 0.18028 0.0
H311 H 0.85243 0.8264 0.22361 0.0
C312 C 0.05742 0.73827 0.35078 0.0
C313 C 0.08587 0.73546 0.40052 0.0
C314 C 0.07603 0.69416 0.18272 0.0
C315 C 1.04128 0.68785 0.14997 0.0
N316 N 1.01187 0.7206 0.15898 0.0
N317 N 0.12718 0.71667 0.35875 0.0
C318 C 1.03676 0.71619 0.21925 0.0
C319 C 0.09742 0.7161 0.31343 0.0
N320 N 0.04804 0.75893 0.43256 0.0
N321 N 0.08846 0.67975 0.0881 0.0
H322 H 0.14413 0.73345 0.45264 0.0
H323 H 0.13411 0.69926 0.30609 0.0
H324 H 0.07389 0.6661 -0.01023 0.0
H325 H 0.11502 0.68554 0.10156 0.0
H326 H 1.02458 0.75813 0.4072 0.0
H327 H 0.06282 0.77552 0.5293 0.0
H328 H 1.00841 0.74237 0.19938 0.0
H329 H 0.99742 0.70461 0.0612 0.0
C330 C 0.28358 0.95051 0.71601 0.0
C331 C 0.29105 0.94902 0.85077 0.0
C332 C 0.33007 0.02566 0.90981 0.0
C333 C 0.33117 0.02781 0.77039 0.0
N334 N 0.30825 0.99148 0.53758 0.0
N335 N 0.31693 0.98334 0.08161 0.0
C336 C 0.30672 0.99003 0.67217 0.0
C337 C 0.31214 0.98604 0.95031 0.0
N338 N 0.25535 0.91369 0.62967 0.0
N339 N 0.34722 0.06174 0.0021 0.0
H340 H 0.30266 0.95424 0.11247 0.0
H341 H 0.33554 1.00948 0.15817 0.0
H342 H 0.36033 0.09086 -0.02705 0.0
H343 H 0.34553 0.06225 0.10506 0.0
H344 H 0.24616 0.9124 0.53165 0.0
H345 H 0.23838 0.88476 0.66283 0.0
H346 H 0.29487 0.96472 0.46317 0.0
H347 H 0.3249 1.0195 0.49959 0.0
C348 C 0.24881 0.70122 0.77524 0.0
C349 C 0.27896 0.73794 0.87007 0.0
C350 C 0.31911 0.7159 0.85663 0.0
C351 C 0.28927 0.67945 0.76108 0.0
N352 N 0.22193 0.63148 0.6574 0.0
N353 N 0.33559 0.77199 0.03382 0.0
C354 C 0.25279 0.67014 0.72994 0.0
C355 C 0.3118 0.74252 0.92134 0.0
N356 N 0.21757 0.69704 0.72192 0.0
N357 N 0.3552 0.72651 0.88027 0.0
H358 H 0.32951 0.79036 0.08619 0.0
H359 H 0.3582 0.7746 0.0832 0.0
H360 H 0.36185 0.70782 0.83601 0.0
H361 H 0.37941 0.75559 0.93525 0.0
H362 H 0.19777 0.67412 0.63915 0.0
H363 H 0.21233 0.71772 0.75561 0.0
H364 H 0.19343 0.62106 0.64253 0.0
H365 H 0.22408 0.60821 0.62275 0.0
C366 C 0.65893 0.25288 0.47638 0.0
C367 C 0.61892 0.22489 0.41472 0.0
C368 C 0.62965 0.17673 0.30187 0.0
C369 C 0.66865 0.20337 0.37011 0.0
N370 N 0.71824 0.26308 0.53991 0.0
N371 N 0.56481 0.15686 0.2828 0.0
C372 C 0.68267 0.24048 0.46189 0.0
C373 C 0.60383 0.1857 0.33263 0.0
N374 N 0.67456 0.29159 0.54928 0.0
N375 N 0.61781 0.14387 0.20208 0.0
H376 H 0.54524 0.16278 0.29349 0.0
H377 H 0.55111 0.12582 0.23779 0.0
H378 H 0.6357 0.13633 0.17633 0.0
H379 H 0.59168 0.12631 0.13679 0.0
H380 H 0.70457 0.3157 0.57902 0.0
H381 H 0.65797 0.30077 0.57501 0.0
H382 H 0.72839 0.28751 0.62007 0.0
H383 H 0.73641 0.25511 0.5323 0.0
C384 C 0.5305 0.68896 0.5765 0.0
C385 C 0.54309 0.69845 0.44738 0.0
C386 C 0.48949 0.6232 0.34782 0.0
C387 C 0.47445 0.61497 0.47342 0.0
N388 N 0.47908 0.64089 0.70633 0.0
N389 N 0.52966 0.67535 0.20643 0.0
C390 C 0.49474 0.64812 0.58753 0.0
C391 C 0.52148 0.66559 0.33221 0.0
N392 N 0.55323 0.71865 0.68986 0.0
N393 N 0.47319 0.59028 0.24286 0.0
H394 H 0.55135 0.70608 0.1905 0.0
H395 H 0.51244 0.65399 0.11771 0.0
H396 H 0.45041 0.55916 0.25211 0.0
H397 H 0.48477 0.59313 0.15216 0.0
H398 H 0.54856 0.71236 0.78742 0.0
H399 H 0.57875 0.74904 0.68695 0.0
H400 H 0.48899 0.6647 0.7885 0.0
H401 H 0.45459 0.61095 0.72047 0.0
C402 C 0.91642 0.33026 0.11793 0.0
C403 C 0.95297 0.36927 0.17779 0.0
C404 C 0.95788 0.33454 0.34831 0.0
C405 C 0.92272 0.2951 0.28193 0.0
N406 N 0.87502 0.25422 0.08129 0.0
N407 N 1.01196 0.40782 0.33568 0.0
C408 C 0.90385 0.2926 0.1603 0.0
C409 C 0.97479 0.37121 0.28898 0.0
N410 N 0.8928 0.3292 0.02413 0.0
N411 N 0.97431 0.33722 0.46997 0.0
H412 H 1.02515 0.43508 0.29416 0.0
H413 H 1.03088 0.41018 0.4075 0.0
H414 H 0.9627 0.31097 0.5156 0.0
H415 H 0.99756 0.36574 0.53041 0.0
H416 H 0.86394 0.3022 -0.01106 0.0
H417 H 0.90051 0.35608 -0.00923 0.0
H418 H 0.86338 0.25093 -0.01527 0.0
H419 H 0.86584 0.22576 0.10511 0.0
C420 C 0.52869 0.90742 0.21513 0.0
C421 C 0.48749 0.87673 0.1863 0.0
C422 C 0.49231 0.82801 0.05026 0.0
C423 C 0.53213 0.86283 0.04438 0.0
N424 N 0.59173 0.93029 0.154 0.0
N425 N 0.43626 0.80208 0.17097 0.0
C426 C 0.55182 0.90054 0.14152 0.0
C427 C 0.47131 0.83473 0.13664 0.0
N428 N 0.54435 0.94457 0.29839 0.0
N429 N 0.4739 0.79007 0.96698 0.0
H430 H 0.42228 0.80736 0.24151 0.0
H431 H 0.42411 0.77057 0.14319 0.0
H432 H 0.48865 0.78383 0.90384 0.0
H433 H 0.44372 0.7654 0.95759 0.0
H434 H 0.57427 0.97001 0.32076 0.0
H435 H 0.52614 0.94886 0.34689 0.0
H436 H 0.60825 0.95879 0.22182 0.0
H437 H 0.60834 0.92516 0.09798 0.0
C438 C 0.8005 0.42403 0.92613 0.0
C439 C 0.83369 0.43323 -0.0007 0.0
C440 C 0.79132 0.37939 0.13363 0.0
C441 C 0.7597 0.37596 0.07616 0.0
N442 N 0.72944 0.3776 0.87895 0.0
N443 N 0.85901 0.40788 0.12777 0.0
C444 C 0.76262 0.39166 0.95681 0.0
C445 C 0.82838 0.40623 0.08645 0.0
N446 N 0.80547 0.44891 0.83743 0.0
N447 N 0.78626 0.35952 0.23933 0.0
H448 H 0.886 0.42715 0.09149 0.0
H449 H 0.85658 0.38764 0.18697 0.0
H450 H 0.75868 0.33889 0.27104 0.0
H451 H 0.80905 0.36412 0.29624 0.0
H452 H 0.78274 0.44707 0.79354 0.0
H453 H 0.83298 0.47313 0.81362 0.0
H454 H 0.72967 0.3859 0.78538 0.0
H455 H 0.70141 0.35402 0.90172 0.0
C456 C 0.36679 0.54021 0.07773 0.0
C457 C 0.35526 0.50243 0.11452 0.0
C458 C 0.33665 0.46781 0.8809 0.0
C459 C 0.35001 0.50644 0.8444 0.0
N460 N 0.38635 0.58182 0.90221 0.0
N461 N 0.32014 0.42743 0.05975 0.0
C462 C 0.36775 0.54347 0.94109 0.0
C463 C 0.33777 0.46532 0.0185 0.0
N464 N 0.37371 0.57152 0.17207 0.0
N465 N 0.32437 0.43423 0.78441 0.0
H466 H 0.31908 0.42435 0.16102 0.0
H467 H 0.30324 0.39834 -0.00504 0.0
H468 H 0.32331 0.4353 0.68269 0.0
H469 H 0.31841 0.40675 0.80403 0.0
H470 H 0.37939 0.59866 0.14974 0.0
H471 H 0.36743 0.56698 0.26941 0.0
H472 H 0.40358 0.61047 -0.0303 0.0
H473 H 0.388 0.5856 0.80159 0.0
C474 C 0.84056 0.12005 0.89569 0.0
C475 C 0.8708 0.15517 -0.00923 0.0
C476 C 0.89242 0.20072 0.82014 0.0
C477 C 0.85857 0.16627 0.72977 0.0
N478 N 0.79733 0.0935 0.68977 0.0
N479 N 0.93394 0.22469 0.03215 0.0
C480 C 0.83168 0.1261 0.77001 0.0
C481 C 0.89935 0.19442 0.94971 0.0
N482 N 0.82267 0.08051 0.92148 0.0
N483 N 0.91609 0.24015 0.78695 0.0
H484 H 0.9407 0.21943 0.1225 0.0
H485 H 0.9576 0.25285 0.00533 0.0
H486 H 0.91186 0.24645 0.69457 0.0
H487 H 0.93821 0.2675 0.85441 0.0
H488 H 0.80117 0.05281 0.85408 0.0
H489 H 0.83372 0.07599 0.00327 0.0
H490 H 0.77455 0.06633 0.72407 0.0
H491 H 0.79056 0.09355 0.59053 0.0
C492 C 0.63615 0.78962 -0.02515 0.0
C493 C 0.63425 0.81973 0.04846 0.0
C494 C 0.66432 0.86442 0.8759 0.0
C495 C 0.66329 0.83282 0.7978 0.0
N496 N 0.64676 0.76428 0.76543 0.0
N497 N 0.64392 0.88462 0.06775 0.0
C498 C 0.64921 0.79529 0.84586 0.0
C499 C 0.64724 0.85663 -0.00209 0.0
N500 N 0.62583 0.75578 0.02935 0.0
N501 N 0.68282 0.90242 0.83482 0.0
H502 H 0.63363 0.8816 0.16104 0.0
H503 H 0.64947 0.90997 0.03045 0.0
H504 H 0.69582 0.9089 0.74631 0.0
H505 H 0.68834 0.92874 0.89235 0.0
H506 H 0.63094 0.73536 -0.01007 0.0
H507 H 0.61404 0.7494 0.1199 0.0
H508 H 0.63224 0.73402 0.78606 0.0
H509 H 0.65724 0.76773 0.67238 0.0
C510 C 0.91333 0.52167 0.60329 0.0
C511 C 0.92909 0.56 0.69084 0.0
C512 C 0.96315 0.60083 0.51417 0.0
C513 C 0.94744 0.56244 0.42731 0.0
N514 N 0.91243 0.48729 0.38863 0.0
N515 N 0.9699 0.63617 0.73732 0.0
C516 C 0.92355 0.52301 0.4712 0.0
C517 C 0.95429 0.5997 0.64849 0.0
N518 N 0.88872 0.48401 0.64702 0.0
N519 N 0.98563 0.63806 0.46644 0.0
H520 H 0.96131 0.63651 0.83257 0.0
H521 H 0.9922 0.66642 0.7195 0.0
H522 H 0.99504 0.64029 0.37185 0.0
H523 H 0.99438 0.6667 0.5177 0.0
H524 H 0.87149 0.45454 0.58429 0.0
H525 H 0.88448 0.48216 0.7474 0.0
H526 H 0.8986 0.45826 0.41847 0.0
H527 H 0.91927 0.48697 0.29066 0.0
C528 C 0.3216 0.86114 0.35768 0.0
C529 C 0.29624 0.86317 0.27782 0.0
C530 C 0.24823 0.83251 0.43662 0.0
C531 C 0.27282 0.82832 0.51214 0.0
N532 N 0.32696 0.82791 0.52699 0.0
N533 N 0.24081 0.8609 0.25324 0.0
C534 C 0.30786 0.83962 0.46766 0.0
C535 C 0.26077 0.85128 0.32001 0.0
N536 N 0.3595 0.88183 0.33345 0.0
N537 N 0.2127 0.81778 0.47462 0.0
H538 H 0.25135 0.8775 0.17356 0.0
H539 H 0.21619 0.85638 0.28312 0.0
H540 H 0.20315 0.80557 0.56243 0.0
H541 H 0.19143 0.81527 0.41584 0.0
H542 H 0.38022 0.88418 0.39549 0.0
H543 H 0.37179 0.90151 0.26228 0.0
H544 H 0.3507 0.83168 0.49058 0.0
H545 H 0.31611 0.80993 0.60335 0.0
C546 C 0.52667 0.27079 0.03203 0.0
C547 C 0.54283 0.25359 0.08498 0.0
C548 C 0.57928 0.26605 0.89169 0.0
C549 C 0.5631 0.28318 0.83825 0.0
N550 N 0.52638 0.30808 0.86554 0.0
N551 N 0.57835 0.22732 0.0552 0.0
C552 C 0.53832 0.28748 0.91103 0.0
C553 C 0.56712 0.24876 0.01136 0.0
N554 N 0.4978 0.26805 0.09198 0.0
N555 N 0.60868 0.26946 0.8338 0.0
H556 H 0.57137 0.21566 0.14486 0.0
H557 H 0.59206 0.21824 -0.00152 0.0
H558 H 0.62037 0.28471 0.75207 0.0
H559 H 0.62459 0.2615 0.8745 0.0
H560 H 0.48185 0.27608 0.05224 0.0
H561 H 0.48662 0.25349 0.1754 0.0
H562 H 0.51252 0.31711 0.92142 0.0
H563 H 0.5328 0.31906 0.77482 0.0
loop_
_geom_bond_atom_site_label_1
_geom_bond_atom_site_label_2
_geom_bond_distance
_geom_bond_site_symmetry_2
_ccdc_geom_bond_type
La0 C2 2.928 . S
La0 O20 2.521 . S
La0 O21 2.628 . S
La0 O22 2.554 . S
La0 O23 2.757 . S
La0 O24 2.470 . S
La0 O29 2.482 1_556 S
La0 O31 2.503 . S
La1 C11 2.928 1_556 S
La1 O23 2.482 . S
La1 O25 2.503 . S
La1 O26 2.521 1_556 S
La1 O27 2.628 . S
La1 O28 2.554 1_556 S
La1 O29 2.757 1_556 S
La1 O30 2.470 1_556 S
C2 La0 2.928 . S
C2 C3 1.503 . S
C2 O20 1.261 . S
C2 O21 1.243 . S
C3 C2 1.503 . S
C3 C4 1.394 . S
C3 C8 1.373 . S
C4 C3 1.394 . S
C4 C5 1.380 . S
C4 H32 0.930 . S
C5 C4 1.380 . S
C5 C6 1.376 . S
C5 H33 0.930 . S
C6 C5 1.376 . S
C6 C7 1.370 . S
C7 C6 1.370 . S
C7 C8 1.396 . S
C7 H34 0.929 . S
C8 C3 1.373 . S
C8 C7 1.396 . S
C8 H35 0.929 1_556 S
C9 O22 1.240 . S
C9 O23 1.289 . S
C10 O24 1.258 . S
C10 O25 1.256 . S
C11 La1 2.928 1_554 S
C11 C12 1.503 . S
C11 O26 1.261 . S
C11 O27 1.243 1_554 S
C12 C11 1.503 . S
C12 C13 1.394 . S
C12 C17 1.373 1_554 S
C13 C12 1.394 . S
C13 C14 1.380 . S
C13 H36 0.930 . S
C14 C13 1.380 . S
C14 C15 1.376 . S
C14 H37 0.930 . S
C15 C14 1.376 . S
C15 C16 1.370 1_554 S
C16 C15 1.370 1_556 S
C16 C17 1.396 . S
C16 H38 0.929 . S
C17 C12 1.373 1_556 S
C17 C16 1.396 . S
C17 H39 0.929 . S
C18 O28 1.240 . S
C18 O29 1.289 . S
C19 O30 1.258 . S
C19 O31 1.256 1_554 S
O20 La0 2.521 . S
O20 C2 1.261 . S
O21 La0 2.628 . S
O21 C2 1.243 . S
O22 La0 2.554 . S
O22 C9 1.240 . S
O23 La0 2.757 . S
O23 La1 2.482 . S
O23 C9 1.289 . S
O24 La0 2.470 . S
O24 C10 1.258 . S
O25 La1 2.503 . S
O25 C10 1.256 . S
O26 La1 2.521 1_554 S
O26 C11 1.261 . S
O27 La1 2.628 . S
O27 C11 1.243 1_556 S
O28 La1 2.554 1_554 S
O28 C18 1.240 . S
O29 La0 2.482 1_554 S
O29 La1 2.757 1_554 S
O29 C18 1.289 . S
O30 La1 2.470 1_554 S
O30 C19 1.258 . S
O31 La0 2.503 . S
O31 C19 1.256 1_556 S
H32 C4 0.930 . S
H33 C5 0.930 . S
H34 C7 0.929 . S
H35 C8 0.929 1_554 S
H36 C13 0.930 . S
H37 C14 0.930 . S
H38 C16 0.929 . S
H39 C17 0.929 . S
La40 C42 2.928 . S
La40 O60 2.521 . S
La40 O61 2.628 . S
La40 O62 2.554 1_554 S
La40 O63 2.757 1_554 S
La40 O64 2.470 . S
La40 O69 2.482 . S
La40 O71 2.503 . S
La41 C51 2.928 1_554 S
La41 O63 2.482 1_554 S
La41 O65 2.503 . S
La41 O66 2.521 . S
La41 O67 2.628 1_554 S
La41 O68 2.554 . S
La41 O69 2.757 . S
La41 O70 2.470 . S
C42 La40 2.928 . S
C42 C43 1.503 . S
C42 O60 1.261 . S
C42 O61 1.243 . S
C43 C42 1.503 . S
C43 C44 1.394 1_655 S
C43 C48 1.373 . S
C44 C43 1.394 1_455 S
C44 C45 1.380 . S
C44 H72 0.929 . S
C45 C44 1.380 . S
C45 C46 1.376 . S
C45 H73 0.930 . S
C46 C45 1.376 . S
C46 C47 1.370 . S
C47 C46 1.370 . S
C47 C48 1.396 1_455 S
C47 H74 0.929 . S
C48 C43 1.373 . S
C48 C47 1.396 1_655 S
C48 H75 0.929 . S
C49 O62 1.240 . S
C49 O63 1.289 . S
C50 O64 1.258 . S
C50 O65 1.256 . S
C51 La41 2.928 1_556 S
C51 C52 1.503 . S
C51 O66 1.261 1_556 S
C51 O67 1.243 . S
C52 C51 1.503 . S
C52 C53 1.394 . S
C52 C57 1.373 . S
C53 C52 1.394 . S
C53 C54 1.380 . S
C53 H76 0.930 1_556 S
C54 C53 1.380 . S
C54 C55 1.376 . S
C54 H77 0.930 1_556 S
C55 C54 1.376 . S
C55 C56 1.370 . S
C56 C55 1.370 . S
C56 C57 1.396 . S
C56 H78 0.929 . S
C57 C52 1.373 . S
C57 C56 1.396 . S
C57 H79 0.929 . S
C58 O68 1.240 . S
C58 O69 1.289 . S
C59 O70 1.258 . S
C59 O71 1.256 . S
O60 La40 2.521 . S
O60 C42 1.261 . S
O61 La40 2.628 . S
O61 C42 1.243 . S
O62 La40 2.554 1_556 S
O62 C49 1.240 . S
O63 La40 2.757 1_556 S
O63 La41 2.482 1_556 S
O63 C49 1.289 . S
O64 La40 2.470 . S
O64 C50 1.258 . S
O65 La41 2.503 . S
O65 C50 1.256 . S
O66 La41 2.521 . S
O66 C51 1.261 1_554 S
O67 La41 2.628 1_556 S
O67 C51 1.243 . S
O68 La41 2.554 . S
O68 C58 1.240 . S
O69 La40 2.482 . S
O69 La41 2.757 . S
O69 C58 1.289 . S
O70 La41 2.470 . S
O70 C59 1.258 . S
O71 La40 2.503 . S
O71 C59 1.256 . S
H72 C44 0.929 . S
H73 C45 0.930 . S
H74 C47 0.929 . S
H75 C48 0.929 . S
H76 C53 0.930 1_554 S
H77 C54 0.930 1_554 S
H78 C56 0.929 . S
H79 C57 0.929 . S
La80 C82 2.928 . S
La80 O100 2.521 1_556 S
La80 O101 2.628 . S
La80 O102 2.554 1_556 S
La80 O103 2.757 1_556 S
La80 O104 2.470 1_556 S
La80 O109 2.482 . S
La80 O111 2.503 1_556 S
La81 C91 2.928 . S
La81 O103 2.482 . S
La81 O105 2.503 1_554 S
La81 O106 2.521 1_554 S
La81 O107 2.628 . S
La81 O108 2.554 1_554 S
La81 O109 2.757 1_554 S
La81 O110 2.470 1_554 S
C82 La80 2.928 . S
C82 C83 1.503 . S
C82 O100 1.261 1_556 S
C82 O101 1.243 . S
C83 C82 1.503 . S
C83 C84 1.394 . S
C83 C88 1.373 . S
C84 C83 1.394 . S
C84 C85 1.380 . S
C84 H112 0.930 1_556 S
C85 C84 1.380 . S
C85 C86 1.376 . S
C85 H113 0.930 . S
C86 C85 1.376 . S
C86 C87 1.370 . S
C87 C86 1.370 . S
C87 C88 1.396 . S
C87 H114 0.929 . S
C88 C83 1.373 . S
C88 C87 1.396 . S
C88 H115 0.929 . S
C89 O102 1.240 . S
C89 O103 1.289 . S
C90 O104 1.258 1_556 S
C90 O105 1.256 . S
C91 La81 2.928 . S
C91 C92 1.503 . S
C91 O106 1.261 1_554 S
C91 O107 1.243 . S
C92 C91 1.503 . S
C92 C93 1.394 . S
C92 C97 1.373 . S
C93 C92 1.394 . S
C93 C94 1.380 . S
C93 H116 0.930 1_554 S
C94 C93 1.380 . S
C94 C95 1.376 . S
C94 H117 0.930 . S
C95 C94 1.376 . S
C95 C96 1.370 . S
C96 C95 1.370 . S
C96 C97 1.396 . S
C96 H118 0.929 . S
C97 C92 1.373 . S
C97 C96 1.396 . S
C97 H119 0.929 . S
C98 O108 1.240 . S
C98 O109 1.289 . S
C99 O110 1.258 1_554 S
C99 O111 1.256 . S
O100 La80 2.521 1_554 S
O100 C82 1.261 1_554 S
O101 La80 2.628 . S
O101 C82 1.243 . S
O102 La80 2.554 1_554 S
O102 C89 1.240 . S
O103 La80 2.757 1_554 S
O103 La81 2.482 . S
O103 C89 1.289 . S
O104 La80 2.470 1_554 S
O104 C90 1.258 1_554 S
O105 La81 2.503 1_556 S
O105 C90 1.256 . S
O106 La81 2.521 1_556 S
O106 C91 1.261 1_556 S
O107 La81 2.628 . S
O107 C91 1.243 . S
O108 La81 2.554 1_556 S
O108 C98 1.240 . S
O109 La80 2.482 . S
O109 La81 2.757 1_556 S
O109 C98 1.289 . S
O110 La81 2.470 1_556 S
O110 C99 1.258 1_556 S
O111 La80 2.503 1_554 S
O111 C99 1.256 . S
H112 C84 0.930 1_554 S
H113 C85 0.930 . S
H114 C87 0.929 . S
H115 C88 0.929 . S
H116 C93 0.930 1_556 S
H117 C94 0.930 . S
H118 C96 0.929 . S
H119 C97 0.929 . S
La120 C122 2.928 . S
La120 O140 2.521 1_554 S
La120 O141 2.628 . S
La120 O142 2.554 1_554 S
La120 O143 2.757 1_554 S
La120 O144 2.470 . S
La120 O149 2.482 . S
La120 O151 2.503 1_554 S
La121 C131 2.928 . S
La121 O143 2.482 . S
La121 O145 2.503 1_556 S
La121 O146 2.521 1_556 S
La121 O147 2.628 . S
La121 O148 2.554 1_556 S
La121 O149 2.757 1_556 S
La121 O150 2.470 . S
C122 La120 2.928 . S
C122 C123 1.503 . S
C122 O140 1.261 1_554 S
C122 O141 1.243 . S
C123 C122 1.503 . S
C123 C124 1.394 . S
C123 C128 1.373 . S
C124 C123 1.394 . S
C124 C125 1.380 . S
C124 H152 0.930 1_554 S
C125 C124 1.380 . S
C125 C126 1.376 . S
C125 H153 0.930 . S
C126 C125 1.376 . S
C126 C127 1.370 . S
C127 C126 1.370 . S
C127 C128 1.396 . S
C127 H154 0.929 . S
C128 C123 1.373 . S
C128 C127 1.396 . S
C128 H155 0.929 . S
C129 O142 1.240 . S
C129 O143 1.289 . S
C130 O144 1.258 . S
C130 O145 1.256 . S
C131 La121 2.928 . S
C131 C132 1.503 . S
C131 O146 1.261 1_556 S
C131 O147 1.243 . S
C132 C131 1.503 . S
C132 C133 1.394 . S
C132 C137 1.373 . S
C133 C132 1.394 . S
C133 C134 1.380 . S
C133 H156 0.930 1_556 S
C134 C133 1.380 . S
C134 C135 1.376 . S
C134 H157 0.930 . S
C135 C134 1.376 . S
C135 C136 1.370 . S
C136 C135 1.370 . S
C136 C137 1.396 . S
C136 H158 0.929 . S
C137 C132 1.373 . S
C137 C136 1.396 . S
C137 H159 0.929 . S
C138 O148 1.240 . S
C138 O149 1.289 . S
C139 O150 1.258 . S
C139 O151 1.256 . S
O140 La120 2.521 1_556 S
O140 C122 1.261 1_556 S
O141 La120 2.628 . S
O141 C122 1.243 . S
O142 La120 2.554 1_556 S
O142 C129 1.240 . S
O143 La120 2.757 1_556 S
O143 La121 2.482 . S
O143 C129 1.289 . S
O144 La120 2.470 . S
O144 C130 1.258 . S
O145 La121 2.503 1_554 S
O145 C130 1.256 . S
O146 La121 2.521 1_554 S
O146 C131 1.261 1_554 S
O147 La121 2.628 . S
O147 C131 1.243 . S
O148 La121 2.554 1_554 S
O148 C138 1.240 . S
O149 La120 2.482 . S
O149 La121 2.757 1_554 S
O149 C138 1.289 . S
O150 La121 2.470 . S
O150 C139 1.258 . S
O151 La120 2.503 1_556 S
O151 C139 1.256 . S
H152 C124 0.930 1_556 S
H153 C125 0.930 . S
H154 C127 0.929 . S
H155 C128 0.929 . S
H156 C133 0.930 1_554 S
H157 C134 0.930 . S
H158 C136 0.929 . S
H159 C137 0.929 . S
La160 C162 2.928 . S
La160 O180 2.521 . S
La160 O181 2.628 1_556 S
La160 O182 2.554 . S
La160 O183 2.757 . S
La160 O184 2.470 . S
La160 O189 2.482 1_556 S
La160 O191 2.503 . S
La161 C171 2.928 . S
La161 O183 2.482 1_554 S
La161 O185 2.503 . S
La161 O186 2.521 . S
La161 O187 2.628 1_554 S
La161 O188 2.554 . S
La161 O189 2.757 . S
La161 O190 2.470 . S
C162 La160 2.928 . S
C162 C163 1.503 . S
C162 O180 1.261 . S
C162 O181 1.243 1_556 S
C163 C162 1.503 . S
C163 C164 1.394 . S
C163 C168 1.373 . S
C164 C163 1.394 . S
C164 C165 1.380 . S
C164 H192 0.930 . S
C165 C164 1.380 . S
C165 C166 1.376 . S
C165 H193 0.930 . S
C166 C165 1.376 . S
C166 C167 1.370 . S
C167 C166 1.370 . S
C167 C168 1.396 . S
C167 H194 0.929 1_556 S
C168 C163 1.373 . S
C168 C167 1.396 . S
C168 H195 0.929 1_556 S
C169 O182 1.240 . S
C169 O183 1.289 . S
C170 O184 1.258 . S
C170 O185 1.256 1_556 S
C171 La161 2.928 . S
C171 C172 1.503 . S
C171 O186 1.261 . S
C171 O187 1.243 1_554 S
C172 C171 1.503 . S
C172 C173 1.394 . S
C172 C177 1.373 . S
C173 C172 1.394 . S
C173 C174 1.380 . S
C173 H196 0.930 . S
C174 C173 1.380 . S
C174 C175 1.376 . S
C174 H197 0.930 . S
C175 C174 1.376 . S
C175 C176 1.370 . S
C176 C175 1.370 . S
C176 C177 1.396 . S
C176 H198 0.929 1_554 S
C177 C172 1.373 . S
C177 C176 1.396 . S
C177 H199 0.929 1_554 S
C178 O188 1.240 . S
C178 O189 1.289 . S
C179 O190 1.258 . S
C179 O191 1.256 1_554 S
O180 La160 2.521 . S
O180 C162 1.261 . S
O181 La160 2.628 1_554 S
O181 C162 1.243 1_554 S
O182 La160 2.554 . S
O182 C169 1.240 . S
O183 La160 2.757 . S
O183 La161 2.482 1_556 S
O183 C169 1.289 . S
O184 La160 2.470 . S
O184 C170 1.258 . S
O185 La161 2.503 . S
O185 C170 1.256 1_554 S
O186 La161 2.521 . S
O186 C171 1.261 . S
O187 La161 2.628 1_556 S
O187 C171 1.243 1_556 S
O188 La161 2.554 . S
O188 C178 1.240 . S
O189 La160 2.482 1_554 S
O189 La161 2.757 . S
O189 C178 1.289 . S
O190 La161 2.470 . S
O190 C179 1.258 . S
O191 La160 2.503 . S
O191 C179 1.256 1_556 S
H192 C164 0.930 . S
H193 C165 0.930 . S
H194 C167 0.929 1_554 S
H195 C168 0.929 1_554 S
H196 C173 0.930 . S
H197 C174 0.930 . S
H198 C176 0.929 1_556 S
H199 C177 0.929 1_556 S
La200 C202 2.928 1_556 S
La200 O220 2.521 . S
La200 O221 2.628 1_556 S
La200 O222 2.554 . S
La200 O223 2.757 . S
La200 O224 2.470 . S
La200 O229 2.482 1_556 S
La200 O231 2.503 . S
La201 C211 2.928 1_554 S
La201 O223 2.482 1_554 S
La201 O225 2.503 . S
La201 O226 2.521 . S
La201 O227 2.628 1_554 S
La201 O228 2.554 . S
La201 O229 2.757 . S
La201 O230 2.470 . S
C202 La200 2.928 1_554 S
C202 C203 1.503 1_545 S
C202 O220 1.261 1_554 S
C202 O221 1.243 . S
C203 C202 1.503 1_565 S
C203 C204 1.394 1_554 S
C203 C208 1.373 . S
C204 C203 1.394 1_556 S
C204 C205 1.380 . S
C204 H232 0.930 . S
C205 C204 1.380 . S
C205 C206 1.376 1_556 S
C205 H233 0.930 . S
C206 C205 1.376 1_554 S
C206 C207 1.370 . S
C207 C206 1.370 . S
C207 C208 1.396 . S
C207 H234 0.929 . S
C208 C203 1.373 . S
C208 C207 1.396 . S
C208 H235 0.929 1_565 S
C209 O222 1.240 . S
C209 O223 1.289 . S
C210 O224 1.258 1_554 S
C210 O225 1.256 . S
C211 La201 2.928 1_556 S
C211 C212 1.503 . S
C211 O226 1.261 1_556 S
C211 O227 1.243 . S
C212 C211 1.503 . S
C212 C213 1.394 1_556 S
C212 C217 1.373 . S
C213 C212 1.394 1_554 S
C213 C214 1.380 . S
C213 H236 0.930 . S
C214 C213 1.380 . S
C214 C215 1.376 1_554 S
C214 H237 0.930 . S
C215 C214 1.376 1_556 S
C215 C216 1.370 . S
C216 C215 1.370 . S
C216 C217 1.396 . S
C216 H238 0.929 . S
C217 C212 1.373 . S
C217 C216 1.396 . S
C217 H239 0.929 . S
C218 O228 1.240 . S
C218 O229 1.289 . S
C219 O230 1.258 1_556 S
C219 O231 1.256 . S
O220 La200 2.521 . S
O220 C202 1.261 1_556 S
O221 La200 2.628 1_554 S
O221 C202 1.243 . S
O222 La200 2.554 . S
O222 C209 1.240 . S
O223 La200 2.757 . S
O223 La201 2.482 1_556 S
O223 C209 1.289 . S
O224 La200 2.470 . S
O224 C210 1.258 1_556 S
O225 La201 2.503 . S
O225 C210 1.256 . S
O226 La201 2.521 . S
O226 C211 1.261 1_554 S
O227 La201 2.628 1_556 S
O227 C211 1.243 . S
O228 La201 2.554 . S
O228 C218 1.240 . S
O229 La200 2.482 1_554 S
O229 La201 2.757 . S
O229 C218 1.289 . S
O230 La201 2.470 . S
O230 C219 1.258 1_554 S
O231 La200 2.503 . S
O231 C219 1.256 . S
H232 C204 0.930 . S
H233 C205 0.930 . S
H234 C207 0.929 . S
H235 C208 0.929 1_545 S
H236 C213 0.930 . S
H237 C214 0.930 . S
H238 C216 0.929 . S
H239 C217 0.929 . S
C240 C241 1.363 . S
C240 C246 1.379 . S
C240 N248 1.356 . S
C241 C240 1.363 . S
C241 C247 1.363 . S
C242 C243 1.363 . S
C242 C247 1.379 . S
C242 N249 1.356 . S
C243 C242 1.363 . S
C243 C246 1.363 . S
N244 C246 1.356 . S
N244 H256 0.984 . S
N244 H257 0.985 . S
N245 C247 1.356 . S
N245 H250 0.984 . S
N245 H251 0.985 . S
C246 C240 1.379 . S
C246 C243 1.363 . S
C246 N244 1.356 . S
C247 C241 1.363 . S
C247 C242 1.379 . S
C247 N245 1.356 . S
N248 C240 1.356 . S
N248 H254 0.984 . S
N248 H255 0.984 . S
N249 C242 1.356 . S
N249 H252 0.984 . S
N249 H253 0.985 . S
H250 N245 0.984 . S
H251 N245 0.985 . S
H252 N249 0.984 . S
H253 N249 0.985 . S
H254 N248 0.984 . S
H255 N248 0.984 . S
H256 N244 0.984 . S
H257 N244 0.985 . S
C258 C259 1.363 . S
C258 C264 1.379 . S
C258 N266 1.356 . S
C259 C258 1.363 . S
C259 C265 1.363 . S
C260 C261 1.363 . S
C260 C265 1.379 . S
C260 N267 1.356 . S
C261 C260 1.363 . S
C261 C264 1.363 . S
N262 C264 1.356 . S
N262 H274 0.984 . S
N262 H275 0.985 . S
N263 C265 1.356 . S
N263 H268 0.984 . S
N263 H269 0.985 . S
C264 C258 1.379 . S
C264 C261 1.363 . S
C264 N262 1.356 . S
C265 C259 1.363 . S
C265 C260 1.379 . S
C265 N263 1.356 . S
N266 C258 1.356 . S
N266 H272 0.984 . S
N266 H273 0.984 . S
N267 C260 1.356 . S
N267 H270 0.984 . S
N267 H271 0.985 . S
H268 N263 0.984 . S
H269 N263 0.985 . S
H270 N267 0.984 . S
H271 N267 0.985 . S
H272 N266 0.984 . S
H273 N266 0.984 . S
H274 N262 0.984 . S
H275 N262 0.985 . S
C276 C277 1.363 . S
C276 C282 1.379 . S
C276 N284 1.356 . S
C277 C276 1.363 . S
C277 C283 1.363 1_545 S
C278 C279 1.361 . S
C278 C283 1.379 . S
C278 N285 1.356 . S
C279 C278 1.361 . S
C279 C282 1.361 1_565 S
N280 C282 1.356 . S
N280 H292 0.984 . S
N280 H293 0.985 . S
N281 C283 1.356 . S
N281 H286 0.984 . S
N281 H287 0.985 . S
C282 C276 1.379 . S
C282 C279 1.361 1_545 S
C282 N280 1.356 . S
C283 C277 1.363 1_565 S
C283 C278 1.379 . S
C283 N281 1.356 . S
N284 C276 1.356 . S
N284 H290 0.984 . S
N284 H291 0.984 . S
N285 C278 1.356 . S
N285 H288 0.984 . S
N285 H289 0.985 . S
H286 N281 0.984 . S
H287 N281 0.985 . S
H288 N285 0.984 . S
H289 N285 0.985 . S
H290 N284 0.984 . S
H291 N284 0.984 . S
H292 N280 0.984 . S
H293 N280 0.985 . S
C294 C295 1.363 . S
C294 C300 1.379 . S
C294 N302 1.356 . S
C295 C294 1.363 . S
C295 C301 1.363 . S
C296 C297 1.363 . S
C296 C301 1.379 . S
C296 N303 1.356 . S
C297 C296 1.363 . S
C297 C300 1.363 . S
N298 C300 1.356 . S
N298 H310 0.984 . S
N298 H311 0.985 . S
N299 C301 1.356 . S
N299 H304 0.984 . S
N299 H305 0.985 . S
C300 C294 1.379 . S
C300 C297 1.363 . S
C300 N298 1.356 . S
C301 C295 1.363 . S
C301 C296 1.379 . S
C301 N299 1.356 . S
N302 C294 1.356 . S
N302 H308 0.984 . S
N302 H309 0.984 . S
N303 C296 1.356 . S
N303 H306 0.984 . S
N303 H307 0.985 . S
H304 N299 0.984 . S
H305 N299 0.985 . S
H306 N303 0.984 . S
H307 N303 0.985 . S
H308 N302 0.984 . S
H309 N302 0.984 . S
H310 N298 0.984 . S
H311 N298 0.985 . S
C312 C313 1.363 . S
C312 C318 1.379 . S
C312 N320 1.356 . S
C313 C312 1.363 . S
C313 C319 1.336 1_655 S
C314 C315 1.363 . S
C314 C319 1.386 1_655 S
C314 N321 1.356 . S
C315 C314 1.363 . S
C315 C318 1.363 . S
N316 C318 1.356 . S
N316 H328 0.984 . S
N316 H329 0.985 . S
N317 C319 1.370 . S
N317 H322 0.984 . S
N317 H323 0.985 . S
C318 C312 1.379 . S
C318 C315 1.363 . S
C318 N316 1.356 . S
C319 C313 1.336 1_455 S
C319 C314 1.386 1_455 S
C319 N317 1.370 . S
N320 C312 1.356 . S
N320 H326 0.984 . S
N320 H327 0.984 . S
N321 C314 1.356 . S
N321 H324 0.984 . S
N321 H325 0.985 1_655 S
H322 N317 0.984 . S
H323 N317 0.985 . S
H324 N321 0.984 . S
H325 N321 0.985 1_455 S
H326 N320 0.984 . S
H327 N320 0.984 . S
H328 N316 0.984 . S
H329 N316 0.985 . S
C330 C331 1.363 . S
C330 C336 1.379 . S
C330 N338 1.356 . S
C331 C330 1.363 . S
C331 C337 1.363 . S
C332 C333 1.363 . S
C332 C337 1.379 . S
C332 N339 1.356 . S
C333 C332 1.363 . S
C333 C336 1.363 . S
N334 C336 1.356 . S
N334 H346 0.984 . S
N334 H347 0.985 . S
N335 C337 1.356 . S
N335 H340 0.984 . S
N335 H341 0.985 1_565 S
C336 C330 1.379 . S
C336 C333 1.363 . S
C336 N334 1.356 . S
C337 C331 1.363 . S
C337 C332 1.379 . S
C337 N335 1.356 . S
N338 C330 1.356 . S
N338 H344 0.984 . S
N338 H345 0.984 . S
N339 C332 1.356 . S
N339 H342 0.984 . S
N339 H343 0.985 1_565 S
H340 N335 0.984 . S
H341 N335 0.985 1_545 S
H342 N339 0.984 . S
H343 N339 0.985 1_545 S
H344 N338 0.984 . S
H345 N338 0.984 . S
H346 N334 0.984 . S
H347 N334 0.985 . S
C348 C349 1.363 1_556 S
C348 C354 1.379 1_556 S
C348 N356 1.356 . S
C349 C348 1.363 1_554 S
C349 C355 1.363 . S
C350 C351 1.363 . S
C350 C355 1.379 . S
C350 N357 1.356 . S
C351 C350 1.363 . S
C351 C354 1.363 . S
N352 C354 1.356 1_556 S
N352 H364 0.984 . S
N352 H365 0.985 1_556 S
N353 C355 1.356 . S
N353 H358 0.984 . S
N353 H359 0.985 . S
C354 C348 1.379 1_554 S
C354 C351 1.363 . S
C354 N352 1.356 1_554 S
C355 C349 1.363 . S
C355 C350 1.379 . S
C355 N353 1.356 . S
N356 C348 1.356 . S
N356 H362 0.984 . S
N356 H363 0.984 . S
N357 C350 1.356 . S
N357 H360 0.984 . S
N357 H361 0.985 . S
H358 N353 0.984 . S
H359 N353 0.985 . S
H360 N357 0.984 . S
H361 N357 0.985 . S
H362 N356 0.984 . S
H363 N356 0.984 . S
H364 N352 0.984 . S
H365 N352 0.985 1_554 S
C366 C367 1.363 . S
C366 C372 1.379 . S
C366 N374 1.356 1_556 S
C367 C366 1.363 . S
C367 C373 1.363 . S
C368 C369 1.363 . S
C368 C373 1.379 . S
C368 N375 1.356 . S
C369 C368 1.363 . S
C369 C372 1.363 . S
N370 C372 1.356 1_554 S
N370 H382 0.984 . S
N370 H383 0.985 . S
N371 C373 1.356 . S
N371 H376 0.984 . S
N371 H377 0.985 . S
C372 C366 1.379 . S
C372 C369 1.363 . S
C372 N370 1.356 1_556 S
C373 C367 1.363 . S
C373 C368 1.379 . S
C373 N371 1.356 . S
N374 C366 1.356 1_554 S
N374 H380 0.984 . S
N374 H381 0.984 . S
N375 C368 1.356 . S
N375 H378 0.984 . S
N375 H379 0.985 . S
H376 N371 0.984 . S
H377 N371 0.985 . S
H378 N375 0.984 . S
H379 N375 0.985 . S
H380 N374 0.984 . S
H381 N374 0.984 . S
H382 N370 0.984 . S
H383 N370 0.985 . S
C384 C385 1.363 . S
C384 C390 1.379 . S
C384 N392 1.356 . S
C385 C384 1.363 . S
C385 C391 1.363 1_554 S
C386 C387 1.363 1_556 S
C386 C391 1.379 . S
C386 N393 1.356 . S
C387 C386 1.363 1_554 S
C387 C390 1.363 . S
N388 C390 1.356 . S
N388 H400 0.984 . S
N388 H401 0.985 . S
N389 C391 1.356 . S
N389 H394 0.984 . S
N389 H395 0.985 . S
C390 C384 1.379 . S
C390 C387 1.363 . S
C390 N388 1.356 . S
C391 C385 1.363 1_556 S
C391 C386 1.379 . S
C391 N389 1.356 . S
N392 C384 1.356 . S
N392 H398 0.984 . S
N392 H399 0.984 . S
N393 C386 1.356 . S
N393 H396 0.984 . S
N393 H397 0.985 . S
H394 N389 0.984 . S
H395 N389 0.985 . S
H396 N393 0.984 . S
H397 N393 0.985 . S
H398 N392 0.984 . S
H399 N392 0.984 . S
H400 N388 0.984 . S
H401 N388 0.985 . S
C402 C403 1.363 . S
C402 C408 1.379 . S
C402 N410 1.356 . S
C403 C402 1.363 . S
C403 C409 1.363 . S
C404 C405 1.363 . S
C404 C409 1.379 . S
C404 N411 1.356 1_556 S
C405 C404 1.363 . S
C405 C408 1.363 . S
N406 C408 1.356 . S
N406 H418 0.984 . S
N406 H419 0.985 . S
N407 C409 1.356 . S
N407 H412 0.984 . S
N407 H413 0.985 . S
C408 C402 1.379 . S
C408 C405 1.363 . S
C408 N406 1.356 . S
C409 C403 1.363 . S
C409 C404 1.379 . S
C409 N407 1.356 . S
N410 C402 1.356 . S
N410 H416 0.984 . S
N410 H417 0.984 . S
N411 C404 1.356 1_554 S
N411 H414 0.984 . S
N411 H415 0.985 . S
H412 N407 0.984 . S
H413 N407 0.985 . S
H414 N411 0.984 . S
H415 N411 0.985 . S
H416 N410 0.984 . S
H417 N410 0.984 . S
H418 N406 0.984 . S
H419 N406 0.985 . S
C420 C421 1.363 . S
C420 C426 1.379 . S
C420 N428 1.356 . S
C421 C420 1.363 . S
C421 C427 1.363 . S
C422 C423 1.363 . S
C422 C427 1.379 . S
C422 N429 1.356 . S
C423 C422 1.363 . S
C423 C426 1.363 . S
N424 C426 1.356 . S
N424 H436 0.984 1_565 S
N424 H437 0.985 . S
N425 C427 1.356 . S
N425 H430 0.984 . S
N425 H431 0.985 . S
C426 C420 1.379 . S
C426 C423 1.363 . S
C426 N424 1.356 . S
C427 C421 1.363 . S
C427 C422 1.379 . S
C427 N425 1.356 . S
N428 C420 1.356 . S
N428 H434 0.984 1_565 S
N428 H435 0.984 . S
N429 C422 1.356 . S
N429 H432 0.984 . S
N429 H433 0.985 . S
H430 N425 0.984 . S
H431 N425 0.985 . S
H432 N429 0.984 . S
H433 N429 0.985 . S
H434 N428 0.984 1_545 S
H435 N428 0.984 . S
H436 N424 0.984 1_545 S
H437 N424 0.985 . S
C438 C439 1.363 . S
C438 C444 1.379 . S
C438 N446 1.356 . S
C439 C438 1.363 . S
C439 C445 1.363 . S
C440 C441 1.363 . S
C440 C445 1.379 . S
C440 N447 1.356 1_556 S
C441 C440 1.363 . S
C441 C444 1.363 . S
N442 C444 1.356 . S
N442 H454 0.984 . S
N442 H455 0.985 . S
N443 C445 1.356 1_554 S
N443 H448 0.984 . S
N443 H449 0.985 . S
C444 C438 1.379 . S
C444 C441 1.363 . S
C444 N442 1.356 . S
C445 C439 1.363 . S
C445 C440 1.379 . S
C445 N443 1.356 1_556 S
N446 C438 1.356 . S
N446 H452 0.984 . S
N446 H453 0.984 . S
N447 C440 1.356 1_554 S
N447 H450 0.984 . S
N447 H451 0.985 . S
H448 N443 0.984 . S
H449 N443 0.985 . S
H450 N447 0.984 . S
H451 N447 0.985 . S
H452 N446 0.984 . S
H453 N446 0.984 . S
H454 N442 0.984 . S
H455 N442 0.985 . S
C456 C457 1.363 . S
C456 C462 1.379 . S
C456 N464 1.356 . S
C457 C456 1.363 . S
C457 C463 1.363 . S
C458 C459 1.363 . S
C458 C463 1.379 . S
C458 N465 1.356 . S
C459 C458 1.363 . S
C459 C462 1.363 . S
N460 C462 1.356 . S
N460 H472 0.984 . S
N460 H473 0.985 . S
N461 C463 1.356 . S
N461 H466 0.984 . S
N461 H467 0.985 . S
C462 C456 1.379 . S
C462 C459 1.363 . S
C462 N460 1.356 . S
C463 C457 1.363 . S
C463 C458 1.379 . S
C463 N461 1.356 . S
N464 C456 1.356 . S
N464 H470 0.984 . S
N464 H471 0.984 . S
N465 C458 1.356 . S
N465 H468 0.984 . S
N465 H469 0.985 . S
H466 N461 0.984 . S
H467 N461 0.985 . S
H468 N465 0.984 . S
H469 N465 0.985 . S
H470 N464 0.984 . S
H471 N464 0.984 . S
H472 N460 0.984 . S
H473 N460 0.985 . S
C474 C475 1.363 . S
C474 C480 1.379 . S
C474 N482 1.356 . S
C475 C474 1.363 . S
C475 C481 1.363 . S
C476 C477 1.363 . S
C476 C481 1.379 . S
C476 N483 1.356 . S
C477 C476 1.363 . S
C477 C480 1.363 . S
N478 C480 1.356 . S
N478 H490 0.984 . S
N478 H491 0.985 . S
N479 C481 1.356 . S
N479 H484 0.984 . S
N479 H485 0.985 . S
C480 C474 1.379 . S
C480 C477 1.363 . S
C480 N478 1.356 . S
C481 C475 1.363 . S
C481 C476 1.379 . S
C481 N479 1.356 . S
N482 C474 1.356 . S
N482 H488 0.984 . S
N482 H489 0.984 . S
N483 C476 1.356 . S
N483 H486 0.984 . S
N483 H487 0.985 . S
H484 N479 0.984 . S
H485 N479 0.985 . S
H486 N483 0.984 . S
H487 N483 0.985 . S
H488 N482 0.984 . S
H489 N482 0.984 . S
H490 N478 0.984 . S
H491 N478 0.985 . S
C492 C493 1.363 . S
C492 C498 1.379 . S
C492 N500 1.356 . S
C493 C492 1.363 . S
C493 C499 1.363 . S
C494 C495 1.363 . S
C494 C499 1.379 . S
C494 N501 1.356 . S
C495 C494 1.363 . S
C495 C498 1.363 . S
N496 C498 1.356 . S
N496 H508 0.984 . S
N496 H509 0.985 . S
N497 C499 1.356 . S
N497 H502 0.984 . S
N497 H503 0.985 . S
C498 C492 1.379 . S
C498 C495 1.363 . S
C498 N496 1.356 . S
C499 C493 1.363 . S
C499 C494 1.379 . S
C499 N497 1.356 . S
N500 C492 1.356 . S
N500 H506 0.984 . S
N500 H507 0.984 . S
N501 C494 1.356 . S
N501 H504 0.984 . S
N501 H505 0.985 . S
H502 N497 0.984 . S
H503 N497 0.985 . S
H504 N501 0.984 . S
H505 N501 0.985 . S
H506 N500 0.984 . S
H507 N500 0.984 . S
H508 N496 0.984 . S
H509 N496 0.985 . S
C510 C511 1.363 . S
C510 C516 1.379 . S
C510 N518 1.356 . S
C511 C510 1.363 . S
C511 C517 1.363 . S
C512 C513 1.363 . S
C512 C517 1.379 . S
C512 N519 1.356 . S
C513 C512 1.363 . S
C513 C516 1.363 . S
N514 C516 1.356 . S
N514 H526 0.984 . S
N514 H527 0.985 . S
N515 C517 1.356 . S
N515 H520 0.984 . S
N515 H521 0.985 . S
C516 C510 1.379 . S
C516 C513 1.363 . S
C516 N514 1.356 . S
C517 C511 1.363 . S
C517 C512 1.379 . S
C517 N515 1.356 . S
N518 C510 1.356 . S
N518 H524 0.984 . S
N518 H525 0.984 . S
N519 C512 1.356 . S
N519 H522 0.984 . S
N519 H523 0.985 . S
H520 N515 0.984 . S
H521 N515 0.985 . S
H522 N519 0.984 . S
H523 N519 0.985 . S
H524 N518 0.984 . S
H525 N518 0.984 . S
H526 N514 0.984 . S
H527 N514 0.985 . S
C528 C529 1.363 . S
C528 C534 1.379 . S
C528 N536 1.356 . S
C529 C528 1.363 . S
C529 C535 1.363 . S
C530 C531 1.363 . S
C530 C535 1.379 . S
C530 N537 1.356 . S
C531 C530 1.363 . S
C531 C534 1.363 . S
N532 C534 1.356 . S
N532 H544 0.984 . S
N532 H545 0.985 . S
N533 C535 1.356 . S
N533 H538 0.984 . S
N533 H539 0.985 . S
C534 C528 1.379 . S
C534 C531 1.363 . S
C534 N532 1.356 . S
C535 C529 1.363 . S
C535 C530 1.379 . S
C535 N533 1.356 . S
N536 C528 1.356 . S
N536 H542 0.984 . S
N536 H543 0.984 . S
N537 C530 1.356 . S
N537 H540 0.984 . S
N537 H541 0.985 . S
H538 N533 0.984 . S
H539 N533 0.985 . S
H540 N537 0.984 . S
H541 N537 0.985 . S
H542 N536 0.984 . S
H543 N536 0.984 . S
H544 N532 0.984 . S
H545 N532 0.985 . S
C546 C547 1.363 . S
C546 C552 1.379 . S
C546 N554 1.356 . S
C547 C546 1.363 . S
C547 C553 1.363 . S
C548 C549 1.363 . S
C548 C553 1.379 . S
C548 N555 1.356 . S
C549 C548 1.363 . S
C549 C552 1.363 . S
N550 C552 1.356 . S
N550 H562 0.984 . S
N550 H563 0.985 . S
N551 C553 1.356 . S
N551 H556 0.984 . S
N551 H557 0.985 . S
C552 C546 1.379 . S
C552 C549 1.363 . S
C552 N550 1.356 . S
C553 C547 1.363 . S
C553 C548 1.379 . S
C553 N551 1.356 . S
N554 C546 1.356 . S
N554 H560 0.984 . S
N554 H561 0.984 . S
N555 C548 1.356 . S
N555 H558 0.984 . S
N555 H559 0.985 . S
H556 N551 0.984 . S
H557 N551 0.985 . S
H558 N555 0.984 . S
H559 N555 0.985 . S
H560 N554 0.984 . S
H561 N554 0.984 . S
H562 N550 0.984 . S
H563 N550 0.985 . S
C241 C210 3.729 . S
C243 C6 3.598 . S
C259 C10 3.773 . S
C261 C46 3.477 . S
C277 C50 3.318 . S
C279 C90 3.302 . S
C295 C126 2.362 . S
C297 C86 2.166 . S
C313 C166 3.106 1_655 S
C315 C130 3.685 . S
C331 C170 2.974 . S
C333 C206 2.843 . S
C349 C179 2.598 . S
C351 C15 2.498 . S
C367 C219 3.131 . S
C369 C55 3.106 . S
C385 C99 3.701 . S
C387 C19 3.734 . S
C403 C135 1.920 . S
C405 C59 2.088 1_556 S
C421 C175 0.744 . S
C423 C95 0.744 . S
C439 C139 1.128 . S
C441 C215 1.173 . S
C457 C9 0.826 . S
C459 C18 0.826 . S
C475 C49 0.927 . S
C477 C58 0.927 . S
C493 C98 0.945 . S
C495 C89 0.945 . S
C511 C129 0.767 . S
C513 C138 0.767 . S
C529 C178 0.997 . S
C531 C169 0.997 . S
C547 C209 0.948 . S
C549 C218 0.948 . S
