# Generated by pormake.
# Topology wiv, (6)-cn, num edge types: 1
# Building blocks:
#     Node 0, Type 0, BuildingBlock: BETDAH_clean_sbu_0, # of connection points: 6
#     Node 1, Type 0, BuildingBlock: BETDAH_clean_sbu_0, # of connection points: 6
#     Node 2, Type 0, BuildingBlock: BETDAH_clean_sbu_0, # of connection points: 6
#     Node 3, Type 0, BuildingBlock: BETDAH_clean_sbu_0, # of connection points: 6
#     Node 4, Type 0, BuildingBlock: BETDAH_clean_sbu_0, # of connection points: 6
#     Node 5, Type 0, BuildingBlock: BETDAH_clean_sbu_0, # of connection points: 6
#     Node 6, Type 0, BuildingBlock: BETDAH_clean_sbu_0, # of connection points: 6
#     Node 7, Type 0, BuildingBlock: BETDAH_clean_sbu_0, # of connection points: 6
#     Node 8, Type 0, BuildingBlock: BETDAH_clean_sbu_0, # of connection points: 6
#     Node 9, Type 0, BuildingBlock: BETDAH_clean_sbu_0, # of connection points: 6
#     Node 10, Type 0, BuildingBlock: BETDAH_clean_sbu_0, # of connection points: 6
#     Node 11, Type 0, BuildingBlock: BETDAH_clean_sbu_0, # of connection points: 6
#     Node 12, Type 0, BuildingBlock: BETDAH_clean_sbu_0, # of connection points: 6
#     Node 13, Type 0, BuildingBlock: BETDAH_clean_sbu_0, # of connection points: 6
#     Node 14, Type 0, BuildingBlock: BETDAH_clean_sbu_0, # of connection points: 6
#     Node 15, Type 0, BuildingBlock: BETDAH_clean_sbu_0, # of connection points: 6
#     Edge 16, Type (0, 0), None
#     Edge 17, Type (0, 0), None
#     Edge 18, Type (0, 0), None
#     Edge 19, Type (0, 0), None
#     Edge 20, Type (0, 0), None
#     Edge 21, Type (0, 0), None
#     Edge 22, Type (0, 0), None
#     Edge 23, Type (0, 0), None
#     Edge 24, Type (0, 0), None
#     Edge 25, Type (0, 0), None
#     Edge 26, Type (0, 0), None
#     Edge 27, Type (0, 0), None
#     Edge 28, Type (0, 0), None
#     Edge 29, Type (0, 0), None
#     Edge 30, Type (0, 0), None
#     Edge 31, Type (0, 0), None
#     Edge 32, Type (0, 0), None
#     Edge 33, Type (0, 0), None
#     Edge 34, Type (0, 0), None
#     Edge 35, Type (0, 0), None
#     Edge 36, Type (0, 0), None
#     Edge 37, Type (0, 0), None
#     Edge 38, Type (0, 0), None
#     Edge 39, Type (0, 0), None
#     Edge 40, Type (0, 0), None
#     Edge 41, Type (0, 0), None
#     Edge 42, Type (0, 0), None
#     Edge 43, Type (0, 0), None
#     Edge 44, Type (0, 0), None
#     Edge 45, Type (0, 0), None
#     Edge 46, Type (0, 0), None
#     Edge 47, Type (0, 0), None
#     Edge 48, Type (0, 0), None
#     Edge 49, Type (0, 0), None
#     Edge 50, Type (0, 0), None
#     Edge 51, Type (0, 0), None
#     Edge 52, Type (0, 0), None
#     Edge 53, Type (0, 0), None
#     Edge 54, Type (0, 0), None
#     Edge 55, Type (0, 0), None
#     Edge 56, Type (0, 0), None
#     Edge 57, Type (0, 0), None
#     Edge 58, Type (0, 0), None
#     Edge 59, Type (0, 0), None
#     Edge 60, Type (0, 0), None
#     Edge 61, Type (0, 0), None
#     Edge 62, Type (0, 0), None
#     Edge 63, Type (0, 0), None
# Relax obj value: 0.344
# Max RMSD: 0.335
# Mean RMSD: 0.335
data_MOF--net-wiv--node1-BETDAH_clean_sbu_0--edge1-none
_symmetry_space_group_name_H-M    P1
_symmetry_Int_Tables_number       1
_symmetry_cell_setting            triclinic
loop_
_symmetry_equiv_pos_as_xyz
'x, y, z'
_cell_length_a     19.926464
_cell_length_b     19.92808
_cell_length_c     14.893959
_cell_angle_alpha  90.000885
_cell_angle_beta   89.997972
_cell_angle_gamma 89.977227
loop_
_atom_site_label
_atom_site_type_symbol
_atom_site_fract_x
_atom_site_fract_y
_atom_site_fract_z
_atom_type_partial_charge
Ho0 Ho 0.09025 -0.05273 0.27956 0.0
Ho1 Ho 0.22403 -0.03997 0.15817 0.0
C2 C 0.23808 0.05404 0.37419 0.0
C3 C -0.00549 -0.08389 0.38697 0.0
C4 C 0.01109 -0.06143 0.47631 0.0
C5 C 0.07585 -0.04766 0.48297 0.0
C6 C 0.10668 -0.05698 0.56345 0.0
C7 C 0.07914 -0.03086 0.65167 0.0
C8 C 0.00196 -0.06164 0.64226 0.0
C9 C -0.02387 -0.07263 0.55328 0.0
C10 C 0.10691 0.09615 0.24753 0.0
C11 C 0.10961 0.8839 1.00864 0.0
C12 C 0.27746 0.00123 1.00851 0.0
C13 C 0.24745 0.01371 0.92022 0.0
C14 C 0.19186 0.05598 0.90913 0.0
C15 C 0.13853 0.04355 0.84836 0.0
C16 C 0.14634 -0.00583 0.77279 0.0
C17 C 0.22496 -0.03419 0.78148 0.0
C18 C 0.2683 -0.024 0.85074 0.0
C19 C 0.21589 0.79151 0.22124 0.0
O20 O 0.17167 0.02856 0.39038 0.0
O21 O 0.25899 0.04787 0.28481 0.0
O22 O -0.01368 -0.03707 0.32668 0.0
O23 O 0.03905 0.87319 0.36203 0.0
O24 O 0.0517 0.0597 0.25401 0.0
O25 O 0.15806 0.05638 0.25861 0.0
O26 O 0.13812 0.8822 0.08894 0.0
O27 O 0.1256 0.87999 0.09995 0.0
O28 O 0.28625 -0.05992 1.03892 0.0
O29 O 0.25625 0.04065 1.07005 0.0
O30 O 0.18513 0.84539 0.20967 0.0
O31 O 0.178 0.85121 0.21004 0.0
H32 H 0.10817 -0.08188 0.51694 0.0
H33 H 0.09741 -0.03015 0.6233 0.0
H34 H -0.03049 -0.06988 0.69933 0.0
H35 H -0.07015 -0.08867 0.53662 0.0
H36 H 0.18746 0.09825 0.95389 0.0
H37 H 0.13056 0.0128 0.797 0.0
H38 H 0.24423 -0.07496 0.74097 0.0
H39 H 0.31404 -0.05348 0.85521 0.0
Ho40 Ho -0.03979 0.55206 1.01957 0.0
Ho41 Ho -0.0528 0.68588 0.89814 0.0
C42 C 0.88332 0.66642 0.16902 0.0
C43 C 0.00161 0.49872 0.16925 0.0
C44 C 0.01412 0.52865 0.25759 0.0
C45 C 0.05627 0.58429 0.26873 0.0
C46 C 0.04371 0.63758 0.32955 0.0
C47 C -0.00572 0.6297 0.40507 0.0
C48 C -0.03391 0.55104 0.39631 0.0
C49 C -0.02356 0.50773 0.32705 0.0
C50 C 0.79194 0.55964 0.95606 0.0
C51 C 0.054 0.5381 0.80341 0.0
C52 C -0.08399 0.78159 0.7907 0.0
C53 C -0.0615 0.76496 0.70136 0.0
C54 C -0.04797 0.70015 0.69468 0.0
C55 C -0.0572 0.66933 0.61421 0.0
C56 C -0.03095 0.69685 0.52611 0.0
C57 C -0.06167 0.77407 0.53543 0.0
C58 C -0.07261 0.79994 0.62439 0.0
C59 C 0.09607 0.66926 0.93022 0.0
O60 O 0.88211 0.63798 1.08862 0.0
O61 O 0.87992 0.65049 1.07768 0.0
O62 O -0.05956 0.48992 0.13893 0.0
O63 O 0.04096 0.51995 0.10767 0.0
O64 O 0.84541 0.59081 0.96818 0.0
O65 O 0.85122 0.59812 0.96791 0.0
O66 O 0.02839 0.60448 0.78731 0.0
O67 O 0.04797 0.51713 0.89278 0.0
O68 O -0.03719 0.78979 0.851 0.0
O69 O 0.8731 0.73708 0.81568 0.0
O70 O 0.05958 0.72447 0.92377 0.0
O71 O 0.0563 0.61817 0.91892 0.0
H72 H 0.09853 0.58875 0.22396 0.0
H73 H 0.01292 0.64548 0.38088 0.0
H74 H -0.07467 0.53171 0.43676 0.0
H75 H -0.05296 0.46196 0.32253 0.0
H76 H -0.08235 0.66801 0.66067 0.0
H77 H -0.0303 0.67855 0.55446 0.0
H78 H -0.06984 0.80654 0.47836 0.0
H79 H -0.08859 0.84625 0.641 0.0
Ho80 Ho 0.68589 0.82882 0.27951 0.0
Ho81 Ho 0.55211 0.81596 0.15815 0.0
C82 C 0.53809 0.72198 0.37417 0.0
C83 C 0.78162 0.85997 0.38692 0.0
C84 C 0.76505 0.83737 0.47622 0.0
C85 C 0.70029 0.82354 0.48282 0.0
C86 C 0.66939 0.83288 0.56328 0.0
C87 C 0.69692 0.80686 0.65154 0.0
C88 C 0.77407 0.83774 0.64217 0.0
C89 C 0.79995 0.84867 0.55321 0.0
C90 C 0.66933 0.67994 0.24756 0.0
C91 C 0.66645 -0.10811 1.00847 0.0
C92 C 0.49867 0.77474 1.00851 0.0
C93 C 0.52868 0.76228 0.92021 0.0
C94 C 0.58428 0.72003 0.90911 0.0
C95 C 0.63758 0.73245 0.84828 0.0
C96 C 0.62974 0.7818 0.77269 0.0
C97 C 0.5511 0.81012 0.7814 0.0
C98 C 0.50779 0.79995 0.85071 0.0
C99 C 0.56027 -0.01548 0.22111 0.0
O100 O 0.60449 0.74748 0.39033 0.0
O101 O 0.51716 0.72815 0.2848 0.0
O102 O 0.78986 0.81324 0.32653 0.0
O103 O 0.73704 -0.0971 0.36207 0.0
O104 O 0.72452 0.71642 0.254 0.0
O105 O 0.61816 0.71967 0.25864 0.0
O106 O 0.63794 -0.10623 1.08876 0.0
O107 O 0.65048 -0.10399 0.09979 0.0
O108 O 0.48984 0.83588 1.03893 0.0
O109 O 0.51992 0.73533 1.07004 0.0
O110 O 0.59102 -0.06937 0.20959 0.0
O111 O 0.59814 -0.07518 0.20996 0.0
H112 H 0.6679 0.85771 0.51674 0.0
H113 H 0.67866 0.80612 0.62319 0.0
H114 H 0.8065 0.84605 0.69924 0.0
H115 H 0.84623 0.86475 0.53662 0.0
H116 H 0.5887 0.67776 0.95387 0.0
H117 H 0.64554 0.76319 0.79691 0.0
H118 H 0.53179 0.85085 0.74087 0.0
H119 H 0.46204 0.82941 0.85519 0.0
Ho120 Ho 0.81603 0.22384 1.01946 0.0
Ho121 Ho 0.82901 0.09 0.89809 0.0
C122 C -0.10799 0.10944 0.16914 0.0
C123 C 0.77473 0.2773 0.16906 0.0
C124 C 0.7623 0.24732 0.25738 0.0
C125 C 0.72006 0.19175 0.26849 0.0
C126 C 0.73248 0.13847 0.32934 0.0
C127 C 0.78182 0.14632 0.40494 0.0
C128 C 0.81014 0.22492 0.39621 0.0
C129 C 0.79998 0.2682 0.32686 0.0
C130 C -0.01567 0.21609 0.95622 0.0
C131 C 0.72224 0.23784 0.80334 0.0
C132 C 0.86006 -0.0057 0.7906 0.0
C133 C 0.8373 0.01092 0.70139 0.0
C134 C 0.82335 0.07567 0.69488 0.0
C135 C 0.83274 0.10666 0.61445 0.0
C136 C 0.80687 0.07913 0.52609 0.0
C137 C 0.83765 0.00194 0.53542 0.0
C138 C 0.84863 -0.02392 0.62436 0.0
C139 C 0.68011 0.10674 0.9301 0.0
O140 O -0.10607 0.13796 0.08885 0.0
O141 O -0.10378 0.12533 1.0778 0.0
O142 O 0.83588 0.28613 0.13865 0.0
O143 O 0.73534 0.25606 0.10754 0.0
O144 O -0.0692 0.18496 0.96822 0.0
O145 O -0.075 0.17768 0.96792 0.0
O146 O 0.74778 0.17144 0.78727 0.0
O147 O 0.72833 0.25882 0.89268 0.0
O148 O 0.81343 -0.01396 0.85114 0.0
O149 O -0.09697 0.03883 0.81532 0.0
O150 O 0.71657 0.0515 0.92366 0.0
O151 O 0.71994 0.15778 0.9188 0.0
H152 H 0.6778 0.18734 0.22372 0.0
H153 H 0.7632 0.13055 0.38073 0.0
H154 H 0.85087 0.24422 0.43675 0.0
H155 H 0.82944 0.31392 0.32236 0.0
H156 H 0.85741 0.10816 0.66107 0.0
H157 H 0.80613 0.0974 0.55443 0.0
H158 H 0.84596 -0.03048 0.47834 0.0
H159 H 0.86476 -0.07018 0.64093 0.0
Ho160 Ho 0.09521 0.30954 0.15708 0.0
Ho161 Ho 0.22903 0.30811 0.2755 0.0
C162 C 0.25346 0.20161 1.07775 0.0
C163 C 0.00545 0.36034 1.04797 0.0
C164 C 0.01896 0.36768 0.95124 0.0
C165 C 0.07854 0.39528 0.93429 0.0
C166 C 0.11051 0.3767 0.85728 0.0
C167 C 0.08474 0.32921 0.78234 0.0
C168 C 0.0045 0.34561 0.78988 0.0
C169 C -0.02151 0.35368 0.87934 0.0
C170 C 0.10815 0.16471 0.20147 0.0
C171 C 0.11843 0.39373 0.41914 0.0
C172 C 0.28136 0.27601 0.43078 0.0
C173 C 0.25266 0.26745 0.52079 0.0
C174 C 0.19618 0.22712 0.53551 0.0
C175 C 0.14279 0.24452 0.59375 0.0
C176 C 0.15237 0.29687 0.66577 0.0
C177 C 0.2319 0.32236 0.65575 0.0
C178 C 0.2748 0.30759 0.58725 0.0
C179 C 0.20364 0.47311 0.18819 0.0
O180 O 0.18192 0.21306 1.06631 0.0
O181 O 0.27968 0.22067 0.16109 0.0
O182 O -0.00053 0.30132 1.08339 0.0
O183 O 0.04875 0.39285 0.0943 0.0
O184 O 0.05308 0.20189 0.19315 0.0
O185 O 0.16202 0.20175 0.18668 0.0
O186 O 0.14529 0.3873 0.33839 0.0
O187 O 0.13608 0.38612 0.32913 0.0
O188 O 0.28874 0.3358 0.39451 0.0
O189 O 0.2588 0.23334 0.37406 0.0
O190 O 0.17895 0.41534 0.20316 0.0
O191 O 0.17608 0.40983 0.20423 0.0
H192 H 0.11212 0.41622 0.88499 0.0
H193 H 0.10374 0.33547 0.81673 0.0
H194 H -0.03011 0.33904 0.73499 0.0
H195 H -0.07152 0.35586 0.89654 0.0
H196 H 0.19139 0.18238 0.49537 0.0
H197 H 0.13699 0.27733 0.64259 0.0
H198 H 0.251 0.36553 0.69199 0.0
H199 H 0.3209 0.33585 0.57973 0.0
Ho200 Ho 0.30804 0.54714 0.90224 0.0
Ho201 Ho 0.30947 0.68096 1.02072 0.0
C202 C 0.3937 0.65766 0.75857 0.0
C203 C 0.27604 0.49476 0.74697 0.0
C204 C 0.26754 0.52346 0.65693 0.0
C205 C 0.22722 0.57996 0.64217 0.0
C206 C 0.24463 0.63332 0.58392 0.0
C207 C 0.29702 0.62371 0.51194 0.0
C208 C 0.3225 0.54415 0.52198 0.0
C209 C 0.30772 0.50128 0.5905 0.0
C210 C 0.47293 0.57229 0.98982 0.0
C211 C 0.20154 0.52277 0.0999 0.0
C212 C 0.36043 0.7706 0.1298 0.0
C213 C 0.36778 0.75707 0.22652 0.0
C214 C 0.39539 0.69747 0.24345 0.0
C215 C 0.37689 0.66551 0.32049 0.0
C216 C 0.32941 0.69131 0.39542 0.0
C217 C 0.3457 0.77157 0.38787 0.0
C218 C 0.35377 0.79756 0.2984 0.0
C219 C 0.16464 0.66805 0.9762 0.0
O220 O 0.38723 0.63083 0.83932 0.0
O221 O 0.38604 0.64004 0.84858 0.0
O222 O 0.33582 0.48737 0.7833 0.0
O223 O 0.23331 0.51733 0.80364 0.0
O224 O 0.4153 0.5972 0.97451 0.0
O225 O 0.40978 0.60013 0.97342 0.0
O226 O 0.213 0.59428 0.11142 0.0
O227 O 0.2206 0.49657 1.01655 0.0
O228 O 0.3014 0.77672 0.0944 0.0
O229 O 0.39288 0.72724 1.08344 0.0
O230 O 0.20177 0.72313 0.98453 0.0
O231 O 0.20177 0.61428 0.99127 0.0
H232 H 0.18245 0.58477 0.68227 0.0
H233 H 0.27746 0.63908 0.5351 0.0
H234 H 0.36568 0.52502 0.48575 0.0
H235 H 0.33598 0.45516 0.59804 0.0
H236 H 0.41635 0.66384 0.29269 0.0
H237 H 0.33577 0.67231 0.36127 0.0
H238 H 0.33911 0.80618 0.44276 0.0
H239 H 0.35599 0.84756 0.28119 0.0
Ho240 Ho 0.68092 0.46655 0.15704 0.0
Ho241 Ho 0.54713 0.46796 0.27545 0.0
C242 C 0.52263 0.57466 1.07804 0.0
C243 C 0.77059 0.41554 1.04795 0.0
C244 C 0.75713 0.40811 0.95122 0.0
C245 C 0.69753 0.38054 0.93424 0.0
C246 C 0.66563 0.39917 0.85721 0.0
C247 C 0.69144 0.44668 0.78229 0.0
C248 C 0.77165 0.43022 0.78986 0.0
C249 C 0.79764 0.42212 0.87933 0.0
C250 C 0.6681 0.61136 0.20154 0.0
C251 C 0.65768 0.38216 0.41897 0.0
C252 C 0.49482 0.5 0.43077 0.0
C253 C 0.52353 0.50853 0.52078 0.0
C254 C 0.58002 0.54885 0.53551 0.0
C255 C 0.63343 0.53141 0.59372 0.0
C256 C 0.62385 0.47904 0.6657 0.0
C257 C 0.54431 0.45356 0.65567 0.0
C258 C 0.5014 0.46837 0.58721 0.0
C259 C 0.5725 0.30298 0.18806 0.0
O260 O 0.59418 0.56325 1.0665 0.0
O261 O 0.49647 0.55551 0.16136 0.0
O262 O 0.77664 0.47458 1.08329 0.0
O263 O 0.72721 0.38313 0.09429 0.0
O264 O 0.72315 0.57415 0.19319 0.0
O265 O 0.6142 0.57437 0.18672 0.0
O266 O 0.63083 0.38872 0.33825 0.0
O267 O 0.64 0.3899 0.32899 0.0
O268 O 0.48747 0.44021 0.39448 0.0
O269 O 0.51735 0.5427 0.37407 0.0
O270 O 0.59717 0.36079 0.20292 0.0
O271 O 0.60001 0.36629 0.20399 0.0
H272 H 0.66402 0.35961 0.88486 0.0
H273 H 0.67243 0.44047 0.81683 0.0
H274 H 0.80629 0.43684 0.73501 0.0
H275 H 0.84764 0.42004 0.89657 0.0
H276 H 0.58481 0.5936 0.4954 0.0
H277 H 0.63923 0.49859 0.64254 0.0
H278 H 0.52523 0.41036 0.69187 0.0
H279 H 0.45529 0.44012 0.5797 0.0
Ho280 Ho 0.46811 0.22896 0.90212 0.0
Ho281 Ho 0.46667 0.09508 1.02058 0.0
C282 C 0.38242 0.11835 0.7585 0.0
C283 C 0.50011 0.28134 0.74683 0.0
C284 C 0.50859 0.25263 0.65678 0.0
C285 C 0.54894 0.19615 0.642 0.0
C286 C 0.53156 0.14278 0.58375 0.0
C287 C 0.47914 0.15235 0.5118 0.0
C288 C 0.45361 0.23189 0.52186 0.0
C289 C 0.46838 0.27477 0.59037 0.0
C290 C 0.30298 0.20353 0.98929 0.0
C291 C 0.57459 0.25329 0.0998 0.0
C292 C 0.41576 0.00541 0.12966 0.0
C293 C 0.4084 0.01893 0.2264 0.0
C294 C 0.38077 0.07853 0.24333 0.0
C295 C 0.39924 0.11049 0.3204 0.0
C296 C 0.44674 0.08471 0.3953 0.0
C297 C 0.43048 0.00444 0.38775 0.0
C298 C 0.42238 -0.02156 0.29829 0.0
C299 C 0.61152 0.10801 0.97609 0.0
O300 O 0.38894 0.14519 0.83925 0.0
O301 O 0.39011 0.13596 0.84849 0.0
O302 O 0.44034 0.28873 0.78319 0.0
O303 O 0.54283 0.25877 0.80349 0.0
O304 O 0.36085 0.17905 0.97428 0.0
O305 O 0.36633 0.17596 0.97335 0.0
O306 O 0.56309 0.18178 0.11134 0.0
O307 O 0.55557 0.27948 1.01644 0.0
O308 O 0.47479 -0.00067 0.09426 0.0
O309 O 0.38329 0.04875 1.0833 0.0
O310 O 0.57439 0.05293 0.98443 0.0
O311 O 0.57439 0.16179 0.99116 0.0
H312 H 0.59372 0.19136 0.68208 0.0
H313 H 0.49872 0.13699 0.53495 0.0
H314 H 0.41041 0.25099 0.48565 0.0
H315 H 0.4401 0.32087 0.59792 0.0
H316 H 0.35979 0.11214 0.29258 0.0
H317 H 0.44035 0.10371 0.36119 0.0
H318 H 0.43708 -0.03015 0.44266 0.0
H319 H 0.42012 -0.07156 0.2811 0.0
Ho320 Ho 0.59075 0.44653 0.77931 0.0
Ho321 Ho 0.72513 0.46031 0.65888 0.0
C322 C 0.73816 0.55362 0.87417 0.0
C323 C 0.49509 0.41525 0.88683 0.0
C324 C 0.51158 0.43799 0.97618 0.0
C325 C 0.57621 0.4525 0.98274 0.0
C326 C 0.60738 0.4429 1.06318 0.0
C327 C 0.57989 0.46831 0.15197 0.0
C328 C 0.50249 0.43779 0.1422 0.0
C329 C 0.47672 0.42661 1.05323 0.0
C330 C 0.60708 0.59536 0.74719 0.0
C331 C 0.61534 0.39595 0.50551 0.0
C332 C 0.77825 0.50113 0.50974 0.0
C333 C 0.7469 0.51123 0.42201 0.0
C334 C 0.69151 0.5536 0.41052 0.0
C335 C 0.6386 0.54133 0.34945 0.0
C336 C 0.64708 0.49276 0.27333 0.0
C337 C 0.72586 0.46494 0.28196 0.0
C338 C 0.76808 0.47363 0.35273 0.0
C339 C 0.71514 0.29129 0.72049 0.0
O340 O 0.67184 0.52796 0.89019 0.0
O341 O 0.75946 0.54759 0.78516 0.0
O342 O 0.48678 0.46188 0.82628 0.0
O343 O 0.53976 0.3724 0.86208 0.0
O344 O 0.5519 0.55878 0.75324 0.0
O345 O 0.65812 0.55562 0.75877 0.0
O346 O 0.64244 0.38404 0.58431 0.0
O347 O 0.62553 0.37936 0.59701 0.0
O348 O 0.78915 0.44064 0.5415 0.0
O349 O 0.75638 0.54097 0.57049 0.0
O350 O 0.68484 0.34567 0.70846 0.0
O351 O 0.67772 0.35117 0.70872 0.0
H352 H 0.60905 0.41878 1.01642 0.0
H353 H 0.59809 0.469 0.12373 0.0
H354 H 0.46998 0.42947 0.19919 0.0
H355 H 0.43035 0.41062 1.03666 0.0
H356 H 0.68715 0.59621 0.4547 0.0
H357 H 0.63106 0.51093 0.29771 0.0
H358 H 0.74607 0.42519 0.24049 0.0
H359 H 0.81399 0.44441 0.35729 0.0
Ho360 Ho 0.46062 0.05106 0.51866 0.0
Ho361 Ho 0.44656 0.18546 0.39819 0.0
C362 C 0.39608 0.16079 0.67204 0.0
C363 C 0.50158 -0.00201 0.66779 0.0
C364 C 0.51163 0.0293 0.75555 0.0
C365 C 0.55389 0.08472 0.76709 0.0
C366 C 0.54152 0.13757 0.82824 0.0
C367 C 0.49293 0.12901 0.90433 0.0
C368 C 0.46526 0.0502 0.89562 0.0
C369 C 0.47406 0.00802 0.82481 0.0
C370 C 0.29181 0.06057 0.45679 0.0
C371 C 0.55367 0.03809 0.3032 0.0
C372 C 0.41524 0.28107 0.29064 0.0
C373 C 0.43797 0.26452 0.20129 0.0
C374 C 0.45218 0.19982 0.19469 0.0
C375 C 0.44268 0.1687 0.11426 0.0
C376 C 0.46826 0.19615 1.02559 0.0
C377 C 0.43784 0.27361 1.03528 0.0
C378 C 0.42671 0.29941 0.12425 0.0
C379 C 0.59539 0.16914 0.43028 0.0
O380 O 0.3842 0.13372 0.59323 0.0
O381 O 0.37946 0.1507 0.58055 0.0
O382 O 0.4411 -0.01296 0.63605 0.0
O383 O 0.54138 0.01988 0.60703 0.0
O384 O 0.34583 0.09127 0.46927 0.0
O385 O 0.35131 0.09852 0.46909 0.0
O386 O 0.52786 0.10438 0.28725 0.0
O387 O 0.54781 0.01676 0.39221 0.0
O388 O 0.46187 0.2894 0.35117 0.0
O389 O 0.37239 0.23645 0.31547 0.0
O390 O 0.5588 0.22432 0.42428 0.0
O391 O 0.55564 0.11817 0.41851 0.0
H392 H 0.5965 0.08915 0.72293 0.0
H393 H 0.5111 0.14503 0.87997 0.0
H394 H 0.42553 0.02992 0.93705 0.0
H395 H 0.44494 -0.03791 0.8202 0.0
H396 H 0.41826 0.1672 0.16095 0.0
H397 H 0.46887 0.17794 1.05382 0.0
H398 H 0.4296 0.30615 0.9783 0.0
H399 H 0.41078 0.34581 0.14082 0.0
Ho400 Ho 0.18545 0.32939 0.77939 0.0
Ho401 Ho 0.05109 0.31559 0.65893 0.0
C402 C 0.03812 0.22228 0.87431 0.0
C403 C 0.2811 0.36072 0.88689 0.0
C404 C 0.26458 0.33813 0.9763 0.0
C405 C 0.19988 0.32398 0.98296 0.0
C406 C 0.1688 0.3335 1.0634 0.0
C407 C 0.19625 0.30787 0.15204 0.0
C408 C 0.27367 0.33838 0.14231 0.0
C409 C 0.29948 0.34945 1.05332 0.0
C410 C 0.16912 0.18056 0.74723 0.0
C411 C 0.16088 0.38007 0.50561 0.0
C412 C -0.00207 0.2748 0.5098 0.0
C413 C 0.02927 0.26472 0.42204 0.0
C414 C 0.08467 0.22239 0.41052 0.0
C415 C 0.13757 0.2347 0.34943 0.0
C416 C 0.12908 0.2833 0.27334 0.0
C417 C 0.05028 0.31107 0.28201 0.0
C418 C 0.00805 0.30232 0.35278 0.0
C419 C 0.06105 0.48462 0.72059 0.0
O420 O 0.10441 0.24802 0.89034 0.0
O421 O 0.01685 0.22826 0.78527 0.0
O422 O 0.28939 0.31398 0.82647 0.0
O423 O 0.23649 0.40357 0.86196 0.0
O424 O 0.2243 0.21713 0.75329 0.0
O425 O 0.11808 0.22028 0.75882 0.0
O426 O 0.1338 0.3919 0.58444 0.0
O427 O 0.15067 0.39657 0.59712 0.0
O428 O -0.01297 0.33527 0.54159 0.0
O429 O 0.01983 0.23495 0.57051 0.0
O430 O 0.09135 0.43024 0.70856 0.0
O431 O 0.09846 0.42474 0.70882 0.0
H432 H 0.16729 0.35795 1.01674 0.0
H433 H 0.17805 0.30723 0.12379 0.0
H434 H 0.3062 0.34666 0.19929 0.0
H435 H 0.34586 0.3654 1.03673 0.0
H436 H 0.08907 0.17977 0.45467 0.0
H437 H 0.1451 0.26513 0.29771 0.0
H438 H 0.03005 0.35083 0.24057 0.0
H439 H -0.03787 0.33151 0.35736 0.0
Ho440 Ho 0.3156 0.72499 0.51879 0.0
Ho441 Ho 0.32954 0.59058 0.39831 0.0
C442 C 0.38016 0.61518 0.67212 0.0
C443 C 0.27472 0.77811 0.66793 0.0
C444 C 0.26464 0.74681 0.7557 0.0
C445 C 0.22233 0.69142 0.76723 0.0
C446 C 0.23466 0.63856 0.82836 0.0
C447 C 0.28325 0.64708 0.90445 0.0
C448 C 0.31097 0.72587 0.89578 0.0
C449 C 0.30221 0.76805 0.82497 0.0
C450 C 0.48439 0.71539 0.45681 0.0
C451 C 0.22247 0.73795 0.30334 0.0
C452 C 0.36085 0.49493 0.29076 0.0
C453 C 0.33815 0.51149 0.20139 0.0
C454 C 0.32386 0.57617 0.19484 0.0
C455 C 0.33339 0.60735 0.11443 0.0
C456 C 0.30788 0.5799 1.02572 0.0
C457 C 0.33834 0.50246 1.03537 0.0
C458 C 0.34949 0.47664 0.12432 0.0
C459 C 0.18071 0.607 0.43053 0.0
O460 O 0.392 0.64226 0.59329 0.0
O461 O 0.39671 0.62532 0.58061 0.0
O462 O 0.3352 0.78901 0.63617 0.0
O463 O 0.23489 0.75622 0.60719 0.0
O464 O 0.43036 0.68473 0.4693 0.0
O465 O 0.42486 0.67748 0.46913 0.0
O466 O 0.24826 0.67166 0.2874 0.0
O467 O 0.22837 0.75929 0.39235 0.0
O468 O 0.31418 0.48664 0.35127 0.0
O469 O 0.40369 0.53954 0.3156 0.0
O470 O 0.21728 0.5518 0.42447 0.0
O471 O 0.22049 0.65794 0.41873 0.0
H472 H 0.17973 0.68703 0.72306 0.0
H473 H 0.26507 0.63107 0.88009 0.0
H474 H 0.35071 0.7461 0.93722 0.0
H475 H 0.33138 0.81396 0.82036 0.0
H476 H 0.35772 0.60886 0.16115 0.0
H477 H 0.30725 0.59811 1.05396 0.0
H478 H 0.34661 0.46994 0.97837 0.0
H479 H 0.36549 0.43026 0.14084 0.0
Ho480 Ho 0.5959 0.80819 0.65677 0.0
Ho481 Ho 0.72983 0.80599 0.77488 0.0
C482 C 0.7548 0.70099 0.57642 0.0
C483 C 0.50626 0.85979 0.548 0.0
C484 C 0.51948 0.86721 0.45109 0.0
C485 C 0.57902 -0.10521 0.43409 0.0
C486 C 0.61103 0.87593 0.35728 0.0
C487 C 0.58527 0.82861 0.28199 0.0
C488 C 0.50503 0.84532 0.28948 0.0
C489 C 0.47895 0.85345 0.37905 0.0
C490 C 0.60857 0.66347 0.69995 0.0
C491 C 0.62194 0.87832 0.9237 0.0
C492 C 0.78158 0.77422 0.93004 0.0
C493 C 0.75182 0.76744 1.01942 0.0
C494 C 0.69553 0.72711 1.03438 0.0
C495 C 0.64272 0.74414 0.09329 0.0
C496 C 0.653 0.79586 0.16568 0.0
C497 C 0.73259 0.82091 0.15569 0.0
C498 C 0.77465 0.807 1.08602 0.0
C499 C 0.70293 -0.0285 0.68958 0.0
O500 O 0.68315 0.71229 0.56522 0.0
O501 O 0.78103 0.71987 0.65975 0.0
O502 O 0.49995 0.80078 0.58344 0.0
O503 O 0.54991 -0.10799 0.59424 0.0
O504 O 0.55354 0.70075 0.69197 0.0
O505 O 0.66257 0.70046 0.68529 0.0
O506 O 0.64876 0.88405 0.84319 0.0
O507 O 0.6371 0.88335 0.83192 0.0
O508 O 0.7904 0.83355 0.89291 0.0
O509 O 0.75891 0.73118 0.87374 0.0
O510 O 0.67845 -0.08654 0.70474 0.0
O511 O 0.67575 -0.0919 0.70584 0.0
H512 H 0.61259 -0.08429 0.38478 0.0
H513 H 0.60415 0.83476 0.31671 0.0
H514 H 0.47053 0.83891 0.23442 0.0
H515 H 0.42893 0.85623 0.39616 0.0
H516 H 0.69081 0.68212 0.99475 0.0
H517 H 0.6374 0.77668 0.1424 0.0
H518 H 0.75219 0.8637 0.19224 0.0
H519 H 0.82094 0.83496 1.07842 0.0
Ho520 Ho 0.80591 0.04621 0.40273 0.0
Ho521 Ho 0.80819 0.18016 0.52087 0.0
C522 C 0.87832 0.15397 0.25386 0.0
C523 C 0.77419 -0.00559 0.24759 0.0
C524 C 0.7675 0.02417 0.15819 0.0
C525 C 0.72721 0.08052 0.14319 0.0
C526 C 0.74431 0.13329 1.08428 0.0
C527 C 0.79605 0.12294 1.01192 0.0
C528 C 0.82106 0.04333 1.02193 0.0
C529 C 0.8071 0.0013 0.09161 0.0
C530 C -0.02867 0.07275 0.4882 0.0
C531 C 0.70087 0.02137 0.60102 0.0
C532 C 0.85996 0.26962 0.62966 0.0
C533 C 0.8674 0.25639 0.72656 0.0
C534 C -0.10498 0.19682 0.74356 0.0
C535 C 0.87623 0.16483 0.82041 0.0
C536 C 0.82888 0.19064 0.89565 0.0
C537 C 0.84547 0.2709 0.88815 0.0
C538 C 0.85359 0.29693 0.79858 0.0
C539 C 0.66348 0.16764 0.47752 0.0
O540 O 0.88403 0.12716 0.33438 0.0
O541 O 0.88336 0.13887 0.34565 0.0
O542 O 0.8335 -0.01446 0.28479 0.0
O543 O 0.73112 0.01714 0.30384 0.0
O544 O -0.08656 0.09749 0.4728 0.0
O545 O -0.09193 0.10025 0.47169 0.0
O546 O 0.7122 0.09299 0.61229 0.0
O547 O 0.71976 -0.00487 0.51772 0.0
O548 O 0.80095 0.2761 0.59428 0.0
O549 O -0.10789 0.22591 0.58339 0.0
O550 O 0.70075 0.22265 0.4855 0.0
O551 O 0.70051 0.11371 0.49248 0.0
H552 H 0.6822 0.08529 0.18277 0.0
H553 H 0.77685 0.13856 1.03518 0.0
H554 H 0.86385 0.02367 0.9854 0.0
H555 H 0.83504 -0.04503 0.09924 0.0
H556 H -0.08403 0.16322 0.79283 0.0
H557 H 0.83512 0.17175 0.86111 0.0
H558 H 0.83901 0.3054 0.9432 0.0
H559 H 0.85631 0.34696 0.78145 0.0
Ho560 Ho 0.18016 -0.03224 0.65687 0.0
Ho561 Ho 0.04622 -0.02992 0.77501 0.0
C562 C 0.02131 0.07506 0.57663 0.0
C563 C 0.26981 -0.08382 0.54806 0.0
C564 C 0.25663 -0.09121 0.45113 0.0
C565 C 0.19707 0.88125 0.43412 0.0
C566 C 0.16508 -0.09988 0.35732 0.0
C567 C 0.19087 -0.05257 0.28203 0.0
C568 C 0.27111 -0.0693 0.28952 0.0
C569 C 0.29717 -0.07744 0.3791 0.0
C570 C 0.16761 0.11247 0.69999 0.0
C571 C 0.154 -0.10209 0.9239 0.0
C572 C -0.00553 0.00192 0.93014 0.0
C573 C 0.0243 0.00864 1.01949 0.0
C574 C 0.08062 0.04894 1.03441 0.0
C575 C 0.13344 0.03187 0.09328 0.0
C576 C 0.12314 -0.01981 0.1657 0.0
C577 C 0.04353 -0.04482 0.15576 0.0
C578 C 0.00148 -0.03092 1.08609 0.0
C579 C 0.07293 0.80452 0.68991 0.0
O580 O 0.09293 0.06366 0.56526 0.0
O581 O -0.00487 0.05625 0.66 0.0
O582 O 0.27611 -0.02481 0.5835 0.0
O583 O 0.22615 0.88396 0.59427 0.0
O584 O 0.22261 0.07515 0.69204 0.0
O585 O 0.11359 0.07552 0.68535 0.0
O586 O 0.12721 -0.10798 0.84341 0.0
O587 O 0.13898 -0.10738 0.83208 0.0
O588 O -0.0144 -0.0574 0.89302 0.0
O589 O 0.01716 0.04494 0.87383 0.0
O590 O 0.09747 0.86254 0.70497 0.0
O591 O 0.1002 0.86791 0.70605 0.0
H592 H 0.1635 0.86033 0.38481 0.0
H593 H 0.17198 -0.05871 0.31674 0.0
H594 H 0.30561 -0.06288 0.23447 0.0
H595 H 0.3472 -0.08015 0.39622 0.0
H596 H 0.08536 0.09392 0.99479 0.0
H597 H 0.13876 -0.00065 0.14241 0.0
H598 H 0.02391 -0.08758 0.19235 0.0
H599 H -0.04483 -0.05887 1.07852 0.0
Ho600 Ho -0.02978 0.72984 0.4028 0.0
Ho601 Ho -0.03213 0.59579 0.52095 0.0
C602 C -0.10123 0.62231 0.25355 0.0
C603 C 0.00192 0.78161 0.24768 0.0
C604 C 0.00848 0.75172 0.15835 0.0
C605 C 0.04885 0.69544 0.14334 0.0
C606 C 0.03185 0.64267 1.08441 0.0
C607 C -0.01986 0.65296 1.01202 0.0
C608 C -0.04493 0.73256 1.022 0.0
C609 C -0.03114 0.77455 0.09178 0.0
C610 C 0.80454 0.70292 0.48769 0.0
C611 C 0.07495 0.75457 0.60143 0.0
C612 C -0.08366 0.50613 0.62971 0.0
C613 C -0.09101 0.51938 0.72664 0.0
C614 C 0.88143 0.57894 0.74362 0.0
C615 C -0.09989 0.61098 0.82047 0.0
C616 C -0.05261 0.58521 0.89577 0.0
C617 C -0.06916 0.5049 0.88827 0.0
C618 C -0.07731 0.47884 0.79869 0.0
C619 C 0.11262 0.6085 0.4778 0.0
O620 O -0.10764 0.6489 0.33405 0.0
O621 O -0.10725 0.63681 0.3455 0.0
O622 O -0.05734 0.7906 0.28495 0.0
O623 O 0.04502 0.7589 0.30392 0.0
O624 O 0.86262 0.67859 0.47239 0.0
O625 O 0.86796 0.67563 0.47144 0.0
O626 O 0.06349 0.68298 0.61276 0.0
O627 O 0.05625 0.7808 0.51803 0.0
O628 O -0.02466 0.49979 0.59421 0.0
O629 O 0.88407 0.54978 0.58348 0.0
O630 O 0.0754 0.55346 0.48574 0.0
O631 O 0.0755 0.66238 0.49271 0.0
H632 H 0.09388 0.69074 0.18288 0.0
H633 H -0.00067 0.63736 1.03529 0.0
H634 H -0.08767 0.75223 0.98538 0.0
H635 H -0.05909 0.82087 0.09938 0.0
H636 H 0.86044 0.6126 0.79279 0.0
H637 H -0.05893 0.60407 0.8615 0.0
H638 H -0.0628 0.47043 0.94336 0.0
H639 H -0.08023 0.42882 0.78159 0.0
loop_
_geom_bond_atom_site_label_1
_geom_bond_atom_site_label_2
_geom_bond_distance
_geom_bond_site_symmetry_2
_ccdc_geom_bond_type
Ho0 C3 2.811 . S
Ho0 O20 2.322 . S
Ho0 O22 2.378 . S
Ho0 O23 2.528 . S
Ho0 O24 2.381 . S
Ho0 O25 2.669 . S
Ho0 O27 2.346 . S
Ho0 O31 2.305 1_545 S
Ho1 C12 2.811 1_554 S
Ho1 O21 2.346 . S
Ho1 O25 2.305 . S
Ho1 O26 2.322 1_545 S
Ho1 O28 2.378 1_554 S
Ho1 O29 2.524 1_554 S
Ho1 O30 2.381 1_545 S
Ho1 O31 2.669 1_545 S
C2 O20 1.259 . S
C2 O21 1.268 . S
C3 Ho0 2.811 . S
C3 C4 1.488 . S
C3 O22 1.215 . S
C3 O23 1.297 . S
C4 C3 1.488 . S
C4 C5 1.348 . S
C4 C9 1.413 . S
C5 C4 1.348 . S
C5 C6 1.442 . S
C5 H32 0.930 1_545 S
C6 C5 1.442 . S
C6 C7 1.381 . S
C6 H33 0.931 1_545 S
C7 C6 1.381 . S
C7 C8 1.321 . S
C8 C7 1.321 . S
C8 C9 1.403 . S
C8 H34 0.934 . S
C9 C4 1.413 . S
C9 C8 1.403 . S
C9 H35 0.930 . S
C10 O24 1.275 . S
C10 O25 1.256 . S
C11 O26 1.259 1_545 S
C11 O27 1.268 . S
C12 Ho1 2.811 1_556 S
C12 C13 1.488 . S
C12 O28 1.215 . S
C12 O29 1.289 . S
C13 C12 1.488 . S
C13 C14 1.348 . S
C13 C18 1.413 1_545 S
C14 C13 1.348 . S
C14 C15 1.442 . S
C14 H36 0.930 . S
C15 C14 1.442 . S
C15 C16 1.381 . S
C15 H37 0.931 . S
C16 C15 1.381 . S
C16 C17 1.321 1_545 S
C17 C16 1.321 1_565 S
C17 C18 1.403 . S
C17 H38 0.934 . S
C18 C13 1.413 1_565 S
C18 C17 1.403 . S
C18 H39 0.930 . S
C19 O30 1.275 . S
C19 O31 1.256 . S
O20 Ho0 2.322 . S
O20 C2 1.259 . S
O21 Ho1 2.346 . S
O21 C2 1.268 . S
O22 Ho0 2.378 . S
O22 C3 1.215 . S
O23 Ho0 2.528 . S
O23 C3 1.297 . S
O24 Ho0 2.381 . S
O24 C10 1.275 . S
O25 Ho0 2.669 . S
O25 Ho1 2.305 . S
O25 C10 1.256 . S
O26 Ho1 2.322 1_565 S
O26 C11 1.259 1_565 S
O27 Ho0 2.346 . S
O27 C11 1.268 . S
O28 Ho1 2.378 1_556 S
O28 C12 1.215 . S
O29 Ho1 2.524 1_556 S
O29 C12 1.289 . S
O30 Ho1 2.381 1_565 S
O30 C19 1.275 . S
O31 Ho0 2.305 1_565 S
O31 Ho1 2.669 1_565 S
O31 C19 1.256 . S
H32 C5 0.930 1_565 S
H33 C6 0.931 1_565 S
H34 C8 0.934 . S
H35 C9 0.930 . S
H36 C14 0.930 . S
H37 C15 0.931 . S
H38 C17 0.934 . S
H39 C18 0.930 . S
Ho40 C43 2.811 1_556 S
Ho40 O60 2.322 1_455 S
Ho40 O62 2.378 1_556 S
Ho40 O63 2.524 1_556 S
Ho40 O64 2.381 1_455 S
Ho40 O65 2.669 1_455 S
Ho40 O67 2.346 . S
Ho40 O71 2.305 . S
Ho41 C52 2.811 . S
Ho41 O61 2.346 . S
Ho41 O65 2.305 1_455 S
Ho41 O66 2.322 . S
Ho41 O68 2.378 . S
Ho41 O69 2.528 . S
Ho41 O70 2.381 . S
Ho41 O71 2.669 . S
C42 O60 1.259 1_455 S
C42 O61 1.268 . S
C43 Ho40 2.811 1_554 S
C43 C44 1.488 . S
C43 O62 1.215 . S
C43 O63 1.289 . S
C44 C43 1.488 . S
C44 C45 1.348 . S
C44 C49 1.413 1_455 S
C45 C44 1.348 . S
C45 C46 1.442 . S
C45 H72 0.930 . S
C46 C45 1.442 . S
C46 C47 1.381 . S
C46 H73 0.931 . S
C47 C46 1.381 . S
C47 C48 1.321 1_455 S
C48 C47 1.321 1_655 S
C48 C49 1.403 . S
C48 H74 0.934 . S
C49 C44 1.413 1_655 S
C49 C48 1.403 . S
C49 H75 0.930 . S
C50 O64 1.275 . S
C50 O65 1.256 . S
C51 O66 1.259 . S
C51 O67 1.268 . S
C52 Ho41 2.811 . S
C52 C53 1.488 . S
C52 O68 1.215 . S
C52 O69 1.297 . S
C53 C52 1.488 . S
C53 C54 1.348 . S
C53 C58 1.413 . S
C54 C53 1.348 . S
C54 C55 1.442 . S
C54 H76 0.930 1_455 S
C55 C54 1.442 . S
C55 C56 1.381 . S
C55 H77 0.931 1_455 S
C56 C55 1.381 . S
C56 C57 1.321 . S
C57 C56 1.321 . S
C57 C58 1.403 . S
C57 H78 0.934 . S
C58 C53 1.413 . S
C58 C57 1.403 . S
C58 H79 0.930 . S
C59 O70 1.275 . S
C59 O71 1.256 . S
O60 Ho40 2.322 1_655 S
O60 C42 1.259 1_655 S
O61 Ho41 2.346 . S
O61 C42 1.268 . S
O62 Ho40 2.378 1_554 S
O62 C43 1.215 . S
O63 Ho40 2.524 1_554 S
O63 C43 1.289 . S
O64 Ho40 2.381 1_655 S
O64 C50 1.275 . S
O65 Ho40 2.669 1_655 S
O65 Ho41 2.305 1_655 S
O65 C50 1.256 . S
O66 Ho41 2.322 . S
O66 C51 1.259 . S
O67 Ho40 2.346 . S
O67 C51 1.268 . S
O68 Ho41 2.378 . S
O68 C52 1.215 . S
O69 Ho41 2.528 . S
O69 C52 1.297 . S
O70 Ho41 2.381 . S
O70 C59 1.275 . S
O71 Ho40 2.305 . S
O71 Ho41 2.669 . S
O71 C59 1.256 . S
H72 C45 0.930 . S
H73 C46 0.931 . S
H74 C48 0.934 . S
H75 C49 0.930 . S
H76 C54 0.930 1_655 S
H77 C55 0.931 1_655 S
H78 C57 0.934 . S
H79 C58 0.930 . S
Ho80 C83 2.811 . S
Ho80 O100 2.322 . S
Ho80 O102 2.378 . S
Ho80 O103 2.528 . S
Ho80 O104 2.381 . S
Ho80 O105 2.669 . S
Ho80 O107 2.346 . S
Ho80 O111 2.305 1_565 S
Ho81 C92 2.811 1_554 S
Ho81 O101 2.346 . S
Ho81 O105 2.305 . S
Ho81 O106 2.322 1_565 S
Ho81 O108 2.378 1_554 S
Ho81 O109 2.524 1_554 S
Ho81 O110 2.381 1_565 S
Ho81 O111 2.669 1_565 S
C82 O100 1.259 . S
C82 O101 1.268 . S
C83 Ho80 2.811 . S
C83 C84 1.488 . S
C83 O102 1.215 . S
C83 O103 1.297 . S
C84 C83 1.488 . S
C84 C85 1.348 . S
C84 C89 1.413 . S
C85 C84 1.348 . S
C85 C86 1.442 . S
C85 H112 0.930 1_565 S
C86 C85 1.442 . S
C86 C87 1.381 . S
C86 H113 0.931 1_565 S
C87 C86 1.381 . S
C87 C88 1.321 . S
C88 C87 1.321 . S
C88 C89 1.403 . S
C88 H114 0.934 . S
C89 C84 1.413 . S
C89 C88 1.403 . S
C89 H115 0.930 . S
C90 O104 1.275 . S
C90 O105 1.256 . S
C91 O106 1.259 1_565 S
C91 O107 1.268 . S
C92 Ho81 2.811 1_556 S
C92 C93 1.488 . S
C92 O108 1.215 . S
C92 O109 1.289 . S
C93 C92 1.488 . S
C93 C94 1.348 . S
C93 C98 1.413 1_565 S
C94 C93 1.348 . S
C94 C95 1.442 . S
C94 H116 0.930 . S
C95 C94 1.442 . S
C95 C96 1.381 . S
C95 H117 0.931 . S
C96 C95 1.381 . S
C96 C97 1.321 1_565 S
C97 C96 1.321 1_545 S
C97 C98 1.403 . S
C97 H118 0.934 . S
C98 C93 1.413 1_545 S
C98 C97 1.403 . S
C98 H119 0.930 . S
C99 O110 1.275 . S
C99 O111 1.256 . S
O100 Ho80 2.322 . S
O100 C82 1.259 . S
O101 Ho81 2.346 . S
O101 C82 1.268 . S
O102 Ho80 2.378 . S
O102 C83 1.215 . S
O103 Ho80 2.528 . S
O103 C83 1.297 . S
O104 Ho80 2.381 . S
O104 C90 1.275 . S
O105 Ho80 2.669 . S
O105 Ho81 2.305 . S
O105 C90 1.256 . S
O106 Ho81 2.322 1_545 S
O106 C91 1.259 1_545 S
O107 Ho80 2.346 . S
O107 C91 1.268 . S
O108 Ho81 2.378 1_556 S
O108 C92 1.215 . S
O109 Ho81 2.524 1_556 S
O109 C92 1.289 . S
O110 Ho81 2.381 1_545 S
O110 C99 1.275 . S
O111 Ho80 2.305 1_545 S
O111 Ho81 2.669 1_545 S
O111 C99 1.256 . S
H112 C85 0.930 1_545 S
H113 C86 0.931 1_545 S
H114 C88 0.934 . S
H115 C89 0.930 . S
H116 C94 0.930 . S
H117 C95 0.931 . S
H118 C97 0.934 . S
H119 C98 0.930 . S
Ho120 C123 2.811 1_556 S
Ho120 O140 2.322 1_655 S
Ho120 O142 2.378 1_556 S
Ho120 O143 2.524 1_556 S
Ho120 O144 2.381 1_655 S
Ho120 O145 2.669 1_655 S
Ho120 O147 2.346 . S
Ho120 O151 2.305 . S
Ho121 C132 2.811 . S
Ho121 O141 2.346 . S
Ho121 O145 2.305 1_655 S
Ho121 O146 2.322 . S
Ho121 O148 2.378 . S
Ho121 O149 2.528 . S
Ho121 O150 2.381 . S
Ho121 O151 2.669 . S
C122 O140 1.259 1_655 S
C122 O141 1.268 . S
C123 Ho120 2.811 1_554 S
C123 C124 1.488 . S
C123 O142 1.215 . S
C123 O143 1.289 . S
C124 C123 1.488 . S
C124 C125 1.348 . S
C124 C129 1.413 1_655 S
C125 C124 1.348 . S
C125 C126 1.442 . S
C125 H152 0.930 . S
C126 C125 1.442 . S
C126 C127 1.381 . S
C126 H153 0.931 . S
C127 C126 1.381 . S
C127 C128 1.321 1_655 S
C128 C127 1.321 1_455 S
C128 C129 1.403 . S
C128 H154 0.934 . S
C129 C124 1.413 1_455 S
C129 C128 1.403 . S
C129 H155 0.930 . S
C130 O144 1.275 . S
C130 O145 1.256 . S
C131 O146 1.259 . S
C131 O147 1.268 . S
C132 Ho121 2.811 . S
C132 C133 1.488 . S
C132 O148 1.215 . S
C132 O149 1.297 . S
C133 C132 1.488 . S
C133 C134 1.348 . S
C133 C138 1.413 . S
C134 C133 1.348 . S
C134 C135 1.442 . S
C134 H156 0.930 1_655 S
C135 C134 1.442 . S
C135 C136 1.381 . S
C135 H157 0.931 1_655 S
C136 C135 1.381 . S
C136 C137 1.321 . S
C137 C136 1.321 . S
C137 C138 1.403 . S
C137 H158 0.934 . S
C138 C133 1.413 . S
C138 C137 1.403 . S
C138 H159 0.930 . S
C139 O150 1.275 . S
C139 O151 1.256 . S
O140 Ho120 2.322 1_455 S
O140 C122 1.259 1_455 S
O141 Ho121 2.346 . S
O141 C122 1.268 . S
O142 Ho120 2.378 1_554 S
O142 C123 1.215 . S
O143 Ho120 2.524 1_554 S
O143 C123 1.289 . S
O144 Ho120 2.381 1_455 S
O144 C130 1.275 . S
O145 Ho120 2.669 1_455 S
O145 Ho121 2.305 1_455 S
O145 C130 1.256 . S
O146 Ho121 2.322 . S
O146 C131 1.259 . S
O147 Ho120 2.346 . S
O147 C131 1.268 . S
O148 Ho121 2.378 . S
O148 C132 1.215 . S
O149 Ho121 2.528 . S
O149 C132 1.297 . S
O150 Ho121 2.381 . S
O150 C139 1.275 . S
O151 Ho120 2.305 . S
O151 Ho121 2.669 . S
O151 C139 1.256 . S
H152 C125 0.930 . S
H153 C126 0.931 . S
H154 C128 0.934 . S
H155 C129 0.930 . S
H156 C134 0.930 1_455 S
H157 C135 0.931 1_455 S
H158 C137 0.934 . S
H159 C138 0.930 . S
Ho160 C163 2.811 1_554 S
Ho160 O180 2.322 . S
Ho160 O182 2.378 1_554 S
Ho160 O183 2.524 1_554 S
Ho160 O184 2.381 . S
Ho160 O185 2.669 . S
Ho160 O187 2.346 . S
Ho160 O191 2.305 . S
Ho161 C172 2.811 . S
Ho161 O181 2.346 . S
Ho161 O185 2.305 . S
Ho161 O186 2.322 . S
Ho161 O188 2.378 . S
Ho161 O189 2.524 . S
Ho161 O190 2.381 . S
Ho161 O191 2.669 . S
C162 O180 1.259 . S
C162 O181 1.268 . S
C163 Ho160 2.811 1_556 S
C163 C164 1.488 . S
C163 O182 1.215 . S
C163 O183 1.289 . S
C164 C163 1.488 . S
C164 C165 1.348 . S
C164 C169 1.413 . S
C165 C164 1.348 . S
C165 C166 1.442 . S
C165 H192 0.930 . S
C166 C165 1.442 . S
C166 C167 1.381 . S
C166 H193 0.931 . S
C167 C166 1.381 . S
C167 C168 1.321 . S
C168 C167 1.321 . S
C168 C169 1.403 . S
C168 H194 0.934 . S
C169 C164 1.413 . S
C169 C168 1.403 . S
C169 H195 0.930 . S
C170 O184 1.275 . S
C170 O185 1.256 . S
C171 O186 1.259 . S
C171 O187 1.268 . S
C172 Ho161 2.811 . S
C172 C173 1.488 . S
C172 O188 1.215 . S
C172 O189 1.289 . S
C173 C172 1.488 . S
C173 C174 1.348 . S
C173 C178 1.413 . S
C174 C173 1.348 . S
C174 C175 1.442 . S
C174 H196 0.930 . S
C175 C174 1.442 . S
C175 C176 1.381 . S
C175 H197 0.931 . S
C176 C175 1.381 . S
C176 C177 1.321 . S
C177 C176 1.321 . S
C177 C178 1.403 . S
C177 H198 0.934 . S
C178 C173 1.413 . S
C178 C177 1.403 . S
C178 H199 0.930 . S
C179 O190 1.275 . S
C179 O191 1.256 . S
O180 Ho160 2.322 . S
O180 C162 1.259 . S
O181 Ho161 2.346 . S
O181 C162 1.268 . S
O182 Ho160 2.378 1_556 S
O182 C163 1.215 . S
O183 Ho160 2.524 1_556 S
O183 C163 1.289 . S
O184 Ho160 2.381 . S
O184 C170 1.275 . S
O185 Ho160 2.669 . S
O185 Ho161 2.305 . S
O185 C170 1.256 . S
O186 Ho161 2.322 . S
O186 C171 1.259 . S
O187 Ho160 2.346 . S
O187 C171 1.268 . S
O188 Ho161 2.378 . S
O188 C172 1.215 . S
O189 Ho161 2.524 . S
O189 C172 1.289 . S
O190 Ho161 2.381 . S
O190 C179 1.275 . S
O191 Ho160 2.305 . S
O191 Ho161 2.669 . S
O191 C179 1.256 . S
H192 C165 0.930 . S
H193 C166 0.931 . S
H194 C168 0.934 . S
H195 C169 0.930 . S
H196 C174 0.930 . S
H197 C175 0.931 . S
H198 C177 0.934 . S
H199 C178 0.930 . S
Ho200 C203 2.811 . S
Ho200 O220 2.322 . S
Ho200 O222 2.378 . S
Ho200 O223 2.524 . S
Ho200 O224 2.381 . S
Ho200 O225 2.669 . S
Ho200 O227 2.346 . S
Ho200 O231 2.305 . S
Ho201 C212 2.811 1_556 S
Ho201 O221 2.346 . S
Ho201 O225 2.305 . S
Ho201 O226 2.322 . S
Ho201 O228 2.378 1_556 S
Ho201 O229 2.524 1_556 S
Ho201 O230 2.381 . S
Ho201 O231 2.669 . S
C202 O220 1.259 . S
C202 O221 1.268 . S
C203 Ho200 2.811 . S
C203 C204 1.488 . S
C203 O222 1.215 . S
C203 O223 1.289 . S
C204 C203 1.488 . S
C204 C205 1.348 . S
C204 C209 1.413 . S
C205 C204 1.348 . S
C205 C206 1.442 . S
C205 H232 0.930 . S
C206 C205 1.442 . S
C206 C207 1.381 . S
C206 H233 0.931 . S
C207 C206 1.381 . S
C207 C208 1.321 . S
C208 C207 1.321 . S
C208 C209 1.403 . S
C208 H234 0.934 . S
C209 C204 1.413 . S
C209 C208 1.403 . S
C209 H235 0.930 . S
C210 O224 1.275 . S
C210 O225 1.256 . S
C211 O226 1.259 . S
C211 O227 1.268 . S
C212 Ho201 2.811 1_554 S
C212 C213 1.488 . S
C212 O228 1.215 . S
C212 O229 1.289 . S
C213 C212 1.488 . S
C213 C214 1.348 . S
C213 C218 1.413 . S
C214 C213 1.348 . S
C214 C215 1.442 . S
C214 H236 0.930 . S
C215 C214 1.442 . S
C215 C216 1.381 . S
C215 H237 0.931 . S
C216 C215 1.381 . S
C216 C217 1.321 . S
C217 C216 1.321 . S
C217 C218 1.403 . S
C217 H238 0.934 . S
C218 C213 1.413 . S
C218 C217 1.403 . S
C218 H239 0.930 . S
C219 O230 1.275 . S
C219 O231 1.256 . S
O220 Ho200 2.322 . S
O220 C202 1.259 . S
O221 Ho201 2.346 . S
O221 C202 1.268 . S
O222 Ho200 2.378 . S
O222 C203 1.215 . S
O223 Ho200 2.524 . S
O223 C203 1.289 . S
O224 Ho200 2.381 . S
O224 C210 1.275 . S
O225 Ho200 2.669 . S
O225 Ho201 2.305 . S
O225 C210 1.256 . S
O226 Ho201 2.322 . S
O226 C211 1.259 . S
O227 Ho200 2.346 . S
O227 C211 1.268 . S
O228 Ho201 2.378 1_554 S
O228 C212 1.215 . S
O229 Ho201 2.524 1_554 S
O229 C212 1.289 . S
O230 Ho201 2.381 . S
O230 C219 1.275 . S
O231 Ho200 2.305 . S
O231 Ho201 2.669 . S
O231 C219 1.256 . S
H232 C205 0.930 . S
H233 C206 0.931 . S
H234 C208 0.934 . S
H235 C209 0.930 . S
H236 C214 0.930 . S
H237 C215 0.931 . S
H238 C217 0.934 . S
H239 C218 0.930 . S
Ho240 C243 2.811 1_554 S
Ho240 O260 2.322 . S
Ho240 O262 2.378 1_554 S
Ho240 O263 2.524 1_554 S
Ho240 O264 2.381 . S
Ho240 O265 2.669 . S
Ho240 O267 2.346 . S
Ho240 O271 2.305 . S
Ho241 C252 2.811 . S
Ho241 O261 2.346 . S
Ho241 O265 2.305 . S
Ho241 O266 2.322 . S
Ho241 O268 2.378 . S
Ho241 O269 2.524 . S
Ho241 O270 2.381 . S
Ho241 O271 2.669 . S
C242 O260 1.259 . S
C242 O261 1.268 . S
C243 Ho240 2.811 1_556 S
C243 C244 1.488 . S
C243 O262 1.215 . S
C243 O263 1.289 . S
C244 C243 1.488 . S
C244 C245 1.348 . S
C244 C249 1.413 . S
C245 C244 1.348 . S
C245 C246 1.442 . S
C245 H272 0.930 . S
C246 C245 1.442 . S
C246 C247 1.381 . S
C246 H273 0.931 . S
C247 C246 1.381 . S
C247 C248 1.321 . S
C248 C247 1.321 . S
C248 C249 1.403 . S
C248 H274 0.934 . S
C249 C244 1.413 . S
C249 C248 1.403 . S
C249 H275 0.930 . S
C250 O264 1.275 . S
C250 O265 1.256 . S
C251 O266 1.259 . S
C251 O267 1.268 . S
C252 Ho241 2.811 . S
C252 C253 1.488 . S
C252 O268 1.215 . S
C252 O269 1.289 . S
C253 C252 1.488 . S
C253 C254 1.348 . S
C253 C258 1.413 . S
C254 C253 1.348 . S
C254 C255 1.442 . S
C254 H276 0.930 . S
C255 C254 1.442 . S
C255 C256 1.381 . S
C255 H277 0.931 . S
C256 C255 1.381 . S
C256 C257 1.321 . S
C257 C256 1.321 . S
C257 C258 1.403 . S
C257 H278 0.934 . S
C258 C253 1.413 . S
C258 C257 1.403 . S
C258 H279 0.930 . S
C259 O270 1.275 . S
C259 O271 1.256 . S
O260 Ho240 2.322 . S
O260 C242 1.259 . S
O261 Ho241 2.346 . S
O261 C242 1.268 . S
O262 Ho240 2.378 1_556 S
O262 C243 1.215 . S
O263 Ho240 2.524 1_556 S
O263 C243 1.289 . S
O264 Ho240 2.381 . S
O264 C250 1.275 . S
O265 Ho240 2.669 . S
O265 Ho241 2.305 . S
O265 C250 1.256 . S
O266 Ho241 2.322 . S
O266 C251 1.259 . S
O267 Ho240 2.346 . S
O267 C251 1.268 . S
O268 Ho241 2.378 . S
O268 C252 1.215 . S
O269 Ho241 2.524 . S
O269 C252 1.289 . S
O270 Ho241 2.381 . S
O270 C259 1.275 . S
O271 Ho240 2.305 . S
O271 Ho241 2.669 . S
O271 C259 1.256 . S
H272 C245 0.930 . S
H273 C246 0.931 . S
H274 C248 0.934 . S
H275 C249 0.930 . S
H276 C254 0.930 . S
H277 C255 0.931 . S
H278 C257 0.934 . S
H279 C258 0.930 . S
Ho280 C283 2.811 . S
Ho280 O300 2.322 . S
Ho280 O302 2.378 . S
Ho280 O303 2.524 . S
Ho280 O304 2.381 . S
Ho280 O305 2.669 . S
Ho280 O307 2.346 . S
Ho280 O311 2.305 . S
Ho281 C292 2.811 1_556 S
Ho281 O301 2.346 . S
Ho281 O305 2.305 . S
Ho281 O306 2.322 . S
Ho281 O308 2.378 1_556 S
Ho281 O309 2.524 1_556 S
Ho281 O310 2.381 . S
Ho281 O311 2.669 . S
C282 O300 1.259 . S
C282 O301 1.268 . S
C283 Ho280 2.811 . S
C283 C284 1.488 . S
C283 O302 1.215 . S
C283 O303 1.289 . S
C284 C283 1.488 . S
C284 C285 1.348 . S
C284 C289 1.413 . S
C285 C284 1.348 . S
C285 C286 1.442 . S
C285 H312 0.930 . S
C286 C285 1.442 . S
C286 C287 1.381 . S
C286 H313 0.931 . S
C287 C286 1.381 . S
C287 C288 1.321 . S
C288 C287 1.321 . S
C288 C289 1.403 . S
C288 H314 0.934 . S
C289 C284 1.413 . S
C289 C288 1.403 . S
C289 H315 0.930 . S
C290 O304 1.275 . S
C290 O305 1.256 . S
C291 O306 1.259 . S
C291 O307 1.268 . S
C292 Ho281 2.811 1_554 S
C292 C293 1.488 . S
C292 O308 1.215 . S
C292 O309 1.289 . S
C293 C292 1.488 . S
C293 C294 1.348 . S
C293 C298 1.413 . S
C294 C293 1.348 . S
C294 C295 1.442 . S
C294 H316 0.930 . S
C295 C294 1.442 . S
C295 C296 1.381 . S
C295 H317 0.931 . S
C296 C295 1.381 . S
C296 C297 1.321 . S
C297 C296 1.321 . S
C297 C298 1.403 . S
C297 H318 0.934 . S
C298 C293 1.413 . S
C298 C297 1.403 . S
C298 H319 0.930 . S
C299 O310 1.275 . S
C299 O311 1.256 . S
O300 Ho280 2.322 . S
O300 C282 1.259 . S
O301 Ho281 2.346 . S
O301 C282 1.268 . S
O302 Ho280 2.378 . S
O302 C283 1.215 . S
O303 Ho280 2.524 . S
O303 C283 1.289 . S
O304 Ho280 2.381 . S
O304 C290 1.275 . S
O305 Ho280 2.669 . S
O305 Ho281 2.305 . S
O305 C290 1.256 . S
O306 Ho281 2.322 . S
O306 C291 1.259 . S
O307 Ho280 2.346 . S
O307 C291 1.268 . S
O308 Ho281 2.378 1_554 S
O308 C292 1.215 . S
O309 Ho281 2.524 1_554 S
O309 C292 1.289 . S
O310 Ho281 2.381 . S
O310 C299 1.275 . S
O311 Ho280 2.305 . S
O311 Ho281 2.669 . S
O311 C299 1.256 . S
H312 C285 0.930 . S
H313 C286 0.931 . S
H314 C288 0.934 . S
H315 C289 0.930 . S
H316 C294 0.930 . S
H317 C295 0.931 . S
H318 C297 0.934 . S
H319 C298 0.930 . S
Ho320 C323 2.811 . S
Ho320 O340 2.322 . S
Ho320 O342 2.378 . S
Ho320 O343 2.524 . S
Ho320 O344 2.381 . S
Ho320 O345 2.669 . S
Ho320 O347 2.346 . S
Ho320 O351 2.305 . S
Ho321 C332 2.811 . S
Ho321 O341 2.346 . S
Ho321 O345 2.305 . S
Ho321 O346 2.322 . S
Ho321 O348 2.378 . S
Ho321 O349 2.524 . S
Ho321 O350 2.381 . S
Ho321 O351 2.669 . S
C322 O340 1.259 . S
C322 O341 1.268 . S
C323 Ho320 2.811 . S
C323 C324 1.488 . S
C323 O342 1.215 . S
C323 O343 1.289 . S
C324 C323 1.488 . S
C324 C325 1.348 . S
C324 C329 1.413 . S
C325 C324 1.348 . S
C325 C326 1.442 1_556 S
C325 H352 0.930 . S
C326 C325 1.442 1_554 S
C326 C327 1.381 . S
C326 H353 0.931 . S
C327 C326 1.381 . S
C327 C328 1.321 . S
C328 C327 1.321 . S
C328 C329 1.403 1_554 S
C328 H354 0.934 . S
C329 C324 1.413 . S
C329 C328 1.403 1_556 S
C329 H355 0.930 . S
C330 O344 1.275 . S
C330 O345 1.256 . S
C331 O346 1.259 . S
C331 O347 1.268 . S
C332 Ho321 2.811 . S
C332 C333 1.488 . S
C332 O348 1.215 . S
C332 O349 1.289 . S
C333 C332 1.488 . S
C333 C334 1.348 . S
C333 C338 1.413 . S
C334 C333 1.348 . S
C334 C335 1.442 . S
C334 H356 0.930 . S
C335 C334 1.442 . S
C335 C336 1.381 . S
C335 H357 0.931 . S
C336 C335 1.381 . S
C336 C337 1.321 . S
C337 C336 1.321 . S
C337 C338 1.403 . S
C337 H358 0.934 . S
C338 C333 1.413 . S
C338 C337 1.403 . S
C338 H359 0.930 . S
C339 O350 1.275 . S
C339 O351 1.256 . S
O340 Ho320 2.322 . S
O340 C322 1.259 . S
O341 Ho321 2.346 . S
O341 C322 1.268 . S
O342 Ho320 2.378 . S
O342 C323 1.215 . S
O343 Ho320 2.524 . S
O343 C323 1.289 . S
O344 Ho320 2.381 . S
O344 C330 1.275 . S
O345 Ho320 2.669 . S
O345 Ho321 2.305 . S
O345 C330 1.256 . S
O346 Ho321 2.322 . S
O346 C331 1.259 . S
O347 Ho320 2.346 . S
O347 C331 1.268 . S
O348 Ho321 2.378 . S
O348 C332 1.215 . S
O349 Ho321 2.524 . S
O349 C332 1.289 . S
O350 Ho321 2.381 . S
O350 C339 1.275 . S
O351 Ho320 2.305 . S
O351 Ho321 2.669 . S
O351 C339 1.256 . S
H352 C325 0.930 . S
H353 C326 0.931 . S
H354 C328 0.934 . S
H355 C329 0.930 . S
H356 C334 0.930 . S
H357 C335 0.931 . S
H358 C337 0.934 . S
H359 C338 0.930 . S
Ho360 C363 2.811 . S
Ho360 O380 2.322 . S
Ho360 O382 2.378 . S
Ho360 O383 2.524 . S
Ho360 O384 2.381 . S
Ho360 O385 2.669 . S
Ho360 O387 2.346 . S
Ho360 O391 2.305 . S
Ho361 C372 2.811 . S
Ho361 O381 2.346 . S
Ho361 O385 2.305 . S
Ho361 O386 2.322 . S
Ho361 O388 2.378 . S
Ho361 O389 2.524 . S
Ho361 O390 2.381 . S
Ho361 O391 2.669 . S
C362 O380 1.259 . S
C362 O381 1.268 . S
C363 Ho360 2.811 . S
C363 C364 1.488 . S
C363 O382 1.215 . S
C363 O383 1.289 . S
C364 C363 1.488 . S
C364 C365 1.348 . S
C364 C369 1.413 . S
C365 C364 1.348 . S
C365 C366 1.442 . S
C365 H392 0.930 . S
C366 C365 1.442 . S
C366 C367 1.381 . S
C366 H393 0.931 . S
C367 C366 1.381 . S
C367 C368 1.321 . S
C368 C367 1.321 . S
C368 C369 1.403 . S
C368 H394 0.934 . S
C369 C364 1.413 . S
C369 C368 1.403 . S
C369 H395 0.930 . S
C370 O384 1.275 . S
C370 O385 1.256 . S
C371 O386 1.259 . S
C371 O387 1.268 . S
C372 Ho361 2.811 . S
C372 C373 1.488 . S
C372 O388 1.215 . S
C372 O389 1.289 . S
C373 C372 1.488 . S
C373 C374 1.348 . S
C373 C378 1.413 . S
C374 C373 1.348 . S
C374 C375 1.442 1_554 S
C374 H396 0.930 . S
C375 C374 1.442 1_556 S
C375 C376 1.381 . S
C375 H397 0.931 . S
C376 C375 1.381 . S
C376 C377 1.321 . S
C377 C376 1.321 . S
C377 C378 1.403 1_556 S
C377 H398 0.934 . S
C378 C373 1.413 . S
C378 C377 1.403 1_554 S
C378 H399 0.930 . S
C379 O390 1.275 . S
C379 O391 1.256 . S
O380 Ho360 2.322 . S
O380 C362 1.259 . S
O381 Ho361 2.346 . S
O381 C362 1.268 . S
O382 Ho360 2.378 . S
O382 C363 1.215 . S
O383 Ho360 2.524 . S
O383 C363 1.289 . S
O384 Ho360 2.381 . S
O384 C370 1.275 . S
O385 Ho360 2.669 . S
O385 Ho361 2.305 . S
O385 C370 1.256 . S
O386 Ho361 2.322 . S
O386 C371 1.259 . S
O387 Ho360 2.346 . S
O387 C371 1.268 . S
O388 Ho361 2.378 . S
O388 C372 1.215 . S
O389 Ho361 2.524 . S
O389 C372 1.289 . S
O390 Ho361 2.381 . S
O390 C379 1.275 . S
O391 Ho360 2.305 . S
O391 Ho361 2.669 . S
O391 C379 1.256 . S
H392 C365 0.930 . S
H393 C366 0.931 . S
H394 C368 0.934 . S
H395 C369 0.930 . S
H396 C374 0.930 . S
H397 C375 0.931 . S
H398 C377 0.934 . S
H399 C378 0.930 . S
Ho400 C403 2.811 . S
Ho400 O420 2.322 . S
Ho400 O422 2.378 . S
Ho400 O423 2.524 . S
Ho400 O424 2.381 . S
Ho400 O425 2.669 . S
Ho400 O427 2.346 . S
Ho400 O431 2.305 . S
Ho401 C412 2.811 . S
Ho401 O421 2.346 . S
Ho401 O425 2.305 . S
Ho401 O426 2.322 . S
Ho401 O428 2.378 . S
Ho401 O429 2.524 . S
Ho401 O430 2.381 . S
Ho401 O431 2.669 . S
C402 O420 1.259 . S
C402 O421 1.268 . S
C403 Ho400 2.811 . S
C403 C404 1.488 . S
C403 O422 1.215 . S
C403 O423 1.289 . S
C404 C403 1.488 . S
C404 C405 1.348 . S
C404 C409 1.413 . S
C405 C404 1.348 . S
C405 C406 1.442 1_556 S
C405 H432 0.930 . S
C406 C405 1.442 1_554 S
C406 C407 1.381 . S
C406 H433 0.931 . S
C407 C406 1.381 . S
C407 C408 1.321 . S
C408 C407 1.321 . S
C408 C409 1.403 1_554 S
C408 H434 0.934 . S
C409 C404 1.413 . S
C409 C408 1.403 1_556 S
C409 H435 0.930 . S
C410 O424 1.275 . S
C410 O425 1.256 . S
C411 O426 1.259 . S
C411 O427 1.268 . S
C412 Ho401 2.811 . S
C412 C413 1.488 . S
C412 O428 1.215 . S
C412 O429 1.289 . S
C413 C412 1.488 . S
C413 C414 1.348 . S
C413 C418 1.413 . S
C414 C413 1.348 . S
C414 C415 1.442 . S
C414 H436 0.930 . S
C415 C414 1.442 . S
C415 C416 1.381 . S
C415 H437 0.931 . S
C416 C415 1.381 . S
C416 C417 1.321 . S
C417 C416 1.321 . S
C417 C418 1.403 . S
C417 H438 0.934 . S
C418 C413 1.413 . S
C418 C417 1.403 . S
C418 H439 0.930 . S
C419 O430 1.275 . S
C419 O431 1.256 . S
O420 Ho400 2.322 . S
O420 C402 1.259 . S
O421 Ho401 2.346 . S
O421 C402 1.268 . S
O422 Ho400 2.378 . S
O422 C403 1.215 . S
O423 Ho400 2.524 . S
O423 C403 1.289 . S
O424 Ho400 2.381 . S
O424 C410 1.275 . S
O425 Ho400 2.669 . S
O425 Ho401 2.305 . S
O425 C410 1.256 . S
O426 Ho401 2.322 . S
O426 C411 1.259 . S
O427 Ho400 2.346 . S
O427 C411 1.268 . S
O428 Ho401 2.378 . S
O428 C412 1.215 . S
O429 Ho401 2.524 . S
O429 C412 1.289 . S
O430 Ho401 2.381 . S
O430 C419 1.275 . S
O431 Ho400 2.305 . S
O431 Ho401 2.669 . S
O431 C419 1.256 . S
H432 C405 0.930 . S
H433 C406 0.931 . S
H434 C408 0.934 . S
H435 C409 0.930 . S
H436 C414 0.930 . S
H437 C415 0.931 . S
H438 C417 0.934 . S
H439 C418 0.930 . S
Ho440 C443 2.811 . S
Ho440 O460 2.322 . S
Ho440 O462 2.378 . S
Ho440 O463 2.524 . S
Ho440 O464 2.381 . S
Ho440 O465 2.669 . S
Ho440 O467 2.346 . S
Ho440 O471 2.305 . S
Ho441 C452 2.811 . S
Ho441 O461 2.346 . S
Ho441 O465 2.305 . S
Ho441 O466 2.322 . S
Ho441 O468 2.378 . S
Ho441 O469 2.524 . S
Ho441 O470 2.381 . S
Ho441 O471 2.669 . S
C442 O460 1.259 . S
C442 O461 1.268 . S
C443 Ho440 2.811 . S
C443 C444 1.488 . S
C443 O462 1.215 . S
C443 O463 1.289 . S
C444 C443 1.488 . S
C444 C445 1.348 . S
C444 C449 1.413 . S
C445 C444 1.348 . S
C445 C446 1.442 . S
C445 H472 0.930 . S
C446 C445 1.442 . S
C446 C447 1.381 . S
C446 H473 0.931 . S
C447 C446 1.381 . S
C447 C448 1.321 . S
C448 C447 1.321 . S
C448 C449 1.403 . S
C448 H474 0.934 . S
C449 C444 1.413 . S
C449 C448 1.403 . S
C449 H475 0.930 . S
C450 O464 1.275 . S
C450 O465 1.256 . S
C451 O466 1.259 . S
C451 O467 1.268 . S
C452 Ho441 2.811 . S
C452 C453 1.488 . S
C452 O468 1.215 . S
C452 O469 1.289 . S
C453 C452 1.488 . S
C453 C454 1.348 . S
C453 C458 1.413 . S
C454 C453 1.348 . S
C454 C455 1.442 1_554 S
C454 H476 0.930 . S
C455 C454 1.442 1_556 S
C455 C456 1.381 . S
C455 H477 0.931 . S
C456 C455 1.381 . S
C456 C457 1.321 . S
C457 C456 1.321 . S
C457 C458 1.403 1_556 S
C457 H478 0.934 . S
C458 C453 1.413 . S
C458 C457 1.403 1_554 S
C458 H479 0.930 . S
C459 O470 1.275 . S
C459 O471 1.256 . S
O460 Ho440 2.322 . S
O460 C442 1.259 . S
O461 Ho441 2.346 . S
O461 C442 1.268 . S
O462 Ho440 2.378 . S
O462 C443 1.215 . S
O463 Ho440 2.524 . S
O463 C443 1.289 . S
O464 Ho440 2.381 . S
O464 C450 1.275 . S
O465 Ho440 2.669 . S
O465 Ho441 2.305 . S
O465 C450 1.256 . S
O466 Ho441 2.322 . S
O466 C451 1.259 . S
O467 Ho440 2.346 . S
O467 C451 1.268 . S
O468 Ho441 2.378 . S
O468 C452 1.215 . S
O469 Ho441 2.524 . S
O469 C452 1.289 . S
O470 Ho441 2.381 . S
O470 C459 1.275 . S
O471 Ho440 2.305 . S
O471 Ho441 2.669 . S
O471 C459 1.256 . S
H472 C445 0.930 . S
H473 C446 0.931 . S
H474 C448 0.934 . S
H475 C449 0.930 . S
H476 C454 0.930 . S
H477 C455 0.931 . S
H478 C457 0.934 . S
H479 C458 0.930 . S
Ho480 C483 2.811 . S
Ho480 O500 2.322 . S
Ho480 O502 2.378 . S
Ho480 O503 2.528 . S
Ho480 O504 2.381 . S
Ho480 O505 2.669 . S
Ho480 O507 2.346 . S
Ho480 O511 2.305 1_565 S
Ho481 C492 2.811 . S
Ho481 O501 2.346 . S
Ho481 O505 2.305 . S
Ho481 O506 2.322 1_565 S
Ho481 O508 2.378 . S
Ho481 O509 2.524 . S
Ho481 O510 2.381 1_565 S
Ho481 O511 2.669 1_565 S
C482 O500 1.259 . S
C482 O501 1.268 . S
C483 Ho480 2.811 . S
C483 C484 1.488 . S
C483 O502 1.215 . S
C483 O503 1.297 . S
C484 C483 1.488 . S
C484 C485 1.348 . S
C484 C489 1.413 . S
C485 C484 1.348 . S
C485 C486 1.442 . S
C485 H512 0.930 1_565 S
C486 C485 1.442 . S
C486 C487 1.381 . S
C486 H513 0.931 1_565 S
C487 C486 1.381 . S
C487 C488 1.321 . S
C488 C487 1.321 . S
C488 C489 1.403 . S
C488 H514 0.934 . S
C489 C484 1.413 . S
C489 C488 1.403 . S
C489 H515 0.930 . S
C490 O504 1.275 . S
C490 O505 1.256 . S
C491 O506 1.259 1_565 S
C491 O507 1.268 . S
C492 Ho481 2.811 . S
C492 C493 1.488 . S
C492 O508 1.215 . S
C492 O509 1.289 . S
C493 C492 1.488 . S
C493 C494 1.348 . S
C493 C498 1.413 1_565 S
C494 C493 1.348 . S
C494 C495 1.442 1_556 S
C494 H516 0.930 . S
C495 C494 1.442 1_554 S
C495 C496 1.381 . S
C495 H517 0.931 . S
C496 C495 1.381 . S
C496 C497 1.321 1_565 S
C497 C496 1.321 1_545 S
C497 C498 1.403 1_554 S
C497 H518 0.934 . S
C498 C493 1.413 1_545 S
C498 C497 1.403 1_556 S
C498 H519 0.930 . S
C499 O510 1.275 . S
C499 O511 1.256 . S
O500 Ho480 2.322 . S
O500 C482 1.259 . S
O501 Ho481 2.346 . S
O501 C482 1.268 . S
O502 Ho480 2.378 . S
O502 C483 1.215 . S
O503 Ho480 2.528 . S
O503 C483 1.297 . S
O504 Ho480 2.381 . S
O504 C490 1.275 . S
O505 Ho480 2.669 . S
O505 Ho481 2.305 . S
O505 C490 1.256 . S
O506 Ho481 2.322 1_545 S
O506 C491 1.259 1_545 S
O507 Ho480 2.346 . S
O507 C491 1.268 . S
O508 Ho481 2.378 . S
O508 C492 1.215 . S
O509 Ho481 2.524 . S
O509 C492 1.289 . S
O510 Ho481 2.381 1_545 S
O510 C499 1.275 . S
O511 Ho480 2.305 1_545 S
O511 Ho481 2.669 1_545 S
O511 C499 1.256 . S
H512 C485 0.930 1_545 S
H513 C486 0.931 1_545 S
H514 C488 0.934 . S
H515 C489 0.930 . S
H516 C494 0.930 . S
H517 C495 0.931 . S
H518 C497 0.934 . S
H519 C498 0.930 . S
Ho520 C523 2.811 . S
Ho520 O540 2.322 1_655 S
Ho520 O542 2.378 . S
Ho520 O543 2.524 . S
Ho520 O544 2.381 1_655 S
Ho520 O545 2.669 1_655 S
Ho520 O547 2.346 . S
Ho520 O551 2.305 . S
Ho521 C532 2.811 . S
Ho521 O541 2.346 . S
Ho521 O545 2.305 1_655 S
Ho521 O546 2.322 . S
Ho521 O548 2.378 . S
Ho521 O549 2.528 . S
Ho521 O550 2.381 . S
Ho521 O551 2.669 . S
C522 O540 1.259 1_655 S
C522 O541 1.268 . S
C523 Ho520 2.811 . S
C523 C524 1.488 . S
C523 O542 1.215 . S
C523 O543 1.289 . S
C524 C523 1.488 . S
C524 C525 1.348 . S
C524 C529 1.413 1_655 S
C525 C524 1.348 . S
C525 C526 1.442 1_554 S
C525 H552 0.930 . S
C526 C525 1.442 1_556 S
C526 C527 1.381 . S
C526 H553 0.931 . S
C527 C526 1.381 . S
C527 C528 1.321 1_655 S
C528 C527 1.321 1_455 S
C528 C529 1.403 1_556 S
C528 H554 0.934 . S
C529 C524 1.413 1_455 S
C529 C528 1.403 1_554 S
C529 H555 0.930 . S
C530 O544 1.275 . S
C530 O545 1.256 . S
C531 O546 1.259 . S
C531 O547 1.268 . S
C532 Ho521 2.811 . S
C532 C533 1.488 . S
C532 O548 1.215 . S
C532 O549 1.297 . S
C533 C532 1.488 . S
C533 C534 1.348 . S
C533 C538 1.413 . S
C534 C533 1.348 . S
C534 C535 1.442 . S
C534 H556 0.930 1_655 S
C535 C534 1.442 . S
C535 C536 1.381 . S
C535 H557 0.931 1_655 S
C536 C535 1.381 . S
C536 C537 1.321 . S
C537 C536 1.321 . S
C537 C538 1.403 . S
C537 H558 0.934 . S
C538 C533 1.413 . S
C538 C537 1.403 . S
C538 H559 0.930 . S
C539 O550 1.275 . S
C539 O551 1.256 . S
O540 Ho520 2.322 1_455 S
O540 C522 1.259 1_455 S
O541 Ho521 2.346 . S
O541 C522 1.268 . S
O542 Ho520 2.378 . S
O542 C523 1.215 . S
O543 Ho520 2.524 . S
O543 C523 1.289 . S
O544 Ho520 2.381 1_455 S
O544 C530 1.275 . S
O545 Ho520 2.669 1_455 S
O545 Ho521 2.305 1_455 S
O545 C530 1.256 . S
O546 Ho521 2.322 . S
O546 C531 1.259 . S
O547 Ho520 2.346 . S
O547 C531 1.268 . S
O548 Ho521 2.378 . S
O548 C532 1.215 . S
O549 Ho521 2.528 . S
O549 C532 1.297 . S
O550 Ho521 2.381 . S
O550 C539 1.275 . S
O551 Ho520 2.305 . S
O551 Ho521 2.669 . S
O551 C539 1.256 . S
H552 C525 0.930 . S
H553 C526 0.931 . S
H554 C528 0.934 . S
H555 C529 0.930 . S
H556 C534 0.930 1_455 S
H557 C535 0.931 1_455 S
H558 C537 0.934 . S
H559 C538 0.930 . S
Ho560 C563 2.811 . S
Ho560 O580 2.322 . S
Ho560 O582 2.378 . S
Ho560 O583 2.528 . S
Ho560 O584 2.381 . S
Ho560 O585 2.669 . S
Ho560 O587 2.346 . S
Ho560 O591 2.305 1_545 S
Ho561 C572 2.811 . S
Ho561 O581 2.346 . S
Ho561 O585 2.305 . S
Ho561 O586 2.322 1_545 S
Ho561 O588 2.378 . S
Ho561 O589 2.524 . S
Ho561 O590 2.381 1_545 S
Ho561 O591 2.669 1_545 S
C562 O580 1.259 . S
C562 O581 1.268 . S
C563 Ho560 2.811 . S
C563 C564 1.488 . S
C563 O582 1.215 . S
C563 O583 1.297 . S
C564 C563 1.488 . S
C564 C565 1.348 . S
C564 C569 1.413 . S
C565 C564 1.348 . S
C565 C566 1.442 . S
C565 H592 0.930 1_545 S
C566 C565 1.442 . S
C566 C567 1.381 . S
C566 H593 0.931 1_545 S
C567 C566 1.381 . S
C567 C568 1.321 . S
C568 C567 1.321 . S
C568 C569 1.403 . S
C568 H594 0.934 . S
C569 C564 1.413 . S
C569 C568 1.403 . S
C569 H595 0.930 . S
C570 O584 1.275 . S
C570 O585 1.256 . S
C571 O586 1.259 1_545 S
C571 O587 1.268 . S
C572 Ho561 2.811 . S
C572 C573 1.488 . S
C572 O588 1.215 . S
C572 O589 1.289 . S
C573 C572 1.488 . S
C573 C574 1.348 . S
C573 C578 1.413 1_545 S
C574 C573 1.348 . S
C574 C575 1.442 1_556 S
C574 H596 0.930 . S
C575 C574 1.442 1_554 S
C575 C576 1.381 . S
C575 H597 0.931 . S
C576 C575 1.381 . S
C576 C577 1.321 1_545 S
C577 C576 1.321 1_565 S
C577 C578 1.403 1_554 S
C577 H598 0.934 . S
C578 C573 1.413 1_565 S
C578 C577 1.403 1_556 S
C578 H599 0.930 . S
C579 O590 1.275 . S
C579 O591 1.256 . S
O580 Ho560 2.322 . S
O580 C562 1.259 . S
O581 Ho561 2.346 . S
O581 C562 1.268 . S
O582 Ho560 2.378 . S
O582 C563 1.215 . S
O583 Ho560 2.528 . S
O583 C563 1.297 . S
O584 Ho560 2.381 . S
O584 C570 1.275 . S
O585 Ho560 2.669 . S
O585 Ho561 2.305 . S
O585 C570 1.256 . S
O586 Ho561 2.322 1_565 S
O586 C571 1.259 1_565 S
O587 Ho560 2.346 . S
O587 C571 1.268 . S
O588 Ho561 2.378 . S
O588 C572 1.215 . S
O589 Ho561 2.524 . S
O589 C572 1.289 . S
O590 Ho561 2.381 1_565 S
O590 C579 1.275 . S
O591 Ho560 2.305 1_565 S
O591 Ho561 2.669 1_565 S
O591 C579 1.256 . S
H592 C565 0.930 1_565 S
H593 C566 0.931 1_565 S
H594 C568 0.934 . S
H595 C569 0.930 . S
H596 C574 0.930 . S
H597 C575 0.931 . S
H598 C577 0.934 . S
H599 C578 0.930 . S
Ho600 C603 2.811 . S
Ho600 O620 2.322 1_455 S
Ho600 O622 2.378 . S
Ho600 O623 2.524 . S
Ho600 O624 2.381 1_455 S
Ho600 O625 2.669 1_455 S
Ho600 O627 2.346 . S
Ho600 O631 2.305 . S
Ho601 C612 2.811 . S
Ho601 O621 2.346 . S
Ho601 O625 2.305 1_455 S
Ho601 O626 2.322 . S
Ho601 O628 2.378 . S
Ho601 O629 2.528 . S
Ho601 O630 2.381 . S
Ho601 O631 2.669 . S
C602 O620 1.259 1_455 S
C602 O621 1.268 . S
C603 Ho600 2.811 . S
C603 C604 1.488 . S
C603 O622 1.215 . S
C603 O623 1.289 . S
C604 C603 1.488 . S
C604 C605 1.348 . S
C604 C609 1.413 1_455 S
C605 C604 1.348 . S
C605 C606 1.442 1_554 S
C605 H632 0.930 . S
C606 C605 1.442 1_556 S
C606 C607 1.381 . S
C606 H633 0.931 . S
C607 C606 1.381 . S
C607 C608 1.321 1_455 S
C608 C607 1.321 1_655 S
C608 C609 1.403 1_556 S
C608 H634 0.934 . S
C609 C604 1.413 1_655 S
C609 C608 1.403 1_554 S
C609 H635 0.930 . S
C610 O624 1.275 . S
C610 O625 1.256 . S
C611 O626 1.259 . S
C611 O627 1.268 . S
C612 Ho601 2.811 . S
C612 C613 1.488 . S
C612 O628 1.215 . S
C612 O629 1.297 . S
C613 C612 1.488 . S
C613 C614 1.348 . S
C613 C618 1.413 . S
C614 C613 1.348 . S
C614 C615 1.442 . S
C614 H636 0.930 1_455 S
C615 C614 1.442 . S
C615 C616 1.381 . S
C615 H637 0.931 1_455 S
C616 C615 1.381 . S
C616 C617 1.321 . S
C617 C616 1.321 . S
C617 C618 1.403 . S
C617 H638 0.934 . S
C618 C613 1.413 . S
C618 C617 1.403 . S
C618 H639 0.930 . S
C619 O630 1.275 . S
C619 O631 1.256 . S
O620 Ho600 2.322 1_655 S
O620 C602 1.259 1_655 S
O621 Ho601 2.346 . S
O621 C602 1.268 . S
O622 Ho600 2.378 . S
O622 C603 1.215 . S
O623 Ho600 2.524 . S
O623 C603 1.289 . S
O624 Ho600 2.381 1_655 S
O624 C610 1.275 . S
O625 Ho600 2.669 1_655 S
O625 Ho601 2.305 1_655 S
O625 C610 1.256 . S
O626 Ho601 2.322 . S
O626 C611 1.259 . S
O627 Ho600 2.346 . S
O627 C611 1.268 . S
O628 Ho601 2.378 . S
O628 C612 1.215 . S
O629 Ho601 2.528 . S
O629 C612 1.297 . S
O630 Ho601 2.381 . S
O630 C619 1.275 . S
O631 Ho600 2.305 . S
O631 Ho601 2.669 . S
O631 C619 1.256 . S
H632 C605 0.930 . S
H633 C606 0.931 . S
H634 C608 0.934 . S
H635 C609 0.930 . S
H636 C614 0.930 1_655 S
H637 C615 0.931 1_655 S
H638 C617 0.934 . S
H639 C618 0.930 . S
C451 C19 2.390 . S
C322 C50 2.390 . S
C99 C371 2.390 . S
C130 C402 2.390 . S
C179 C211 2.390 1_554 S
C242 C210 2.390 1_554 S
C259 C291 2.390 1_554 S
C162 C290 2.390 1_554 S
C131 C339 2.390 . S
C370 C2 2.390 . S
C51 C419 2.390 . S
C82 C450 2.390 . S
C499 C531 2.390 . S
C562 C530 2.390 . S
C611 C579 2.390 . S
C610 C482 2.390 . S
C10 C170 1.345 . S
C219 C59 1.345 . S
C90 C250 1.345 . S
C139 C299 1.345 . S
C330 C490 1.345 . S
C539 C379 1.345 . S
C410 C570 1.345 . S
C459 C619 1.345 . S
C571 C11 5.644 1_556 S
C42 C602 5.644 1_556 S
C91 C491 5.644 1_554 S
C122 C522 5.644 1_556 S
C171 C411 5.644 . S
C202 C442 5.644 . S
C251 C331 5.644 . S
C362 C282 5.644 . S
C7 C16 4.694 . S
C56 C47 4.694 . S
C87 C96 4.694 . S
C127 C136 4.694 . S
C176 C167 4.694 . S
C216 C207 4.694 . S
C247 C256 4.694 . S
C287 C296 4.694 . S
C327 C336 4.694 . S
C367 C376 4.694 . S
C416 C407 4.694 . S
C456 C447 4.694 . S
C487 C496 4.694 . S
C527 C536 4.694 . S
C576 C567 4.694 . S
C616 C607 4.694 . S
