# Generated by pormake.
# Topology umd, (4)-cn, num edge types: 1
# Building blocks:
#     Node 0, Type 0, BuildingBlock: CEKHIL_clean_sbu_0, # of connection points: 4
#     Node 1, Type 0, BuildingBlock: CEKHIL_clean_sbu_0, # of connection points: 4
#     Node 2, Type 0, BuildingBlock: CEKHIL_clean_sbu_0, # of connection points: 4
#     Node 3, Type 0, BuildingBlock: CEKHIL_clean_sbu_0, # of connection points: 4
#     Node 4, Type 0, BuildingBlock: CEKHIL_clean_sbu_0, # of connection points: 4
#     Node 5, Type 0, BuildingBlock: CEKHIL_clean_sbu_0, # of connection points: 4
#     Node 6, Type 0, BuildingBlock: CEKHIL_clean_sbu_0, # of connection points: 4
#     Node 7, Type 0, BuildingBlock: CEKHIL_clean_sbu_0, # of connection points: 4
#     Node 8, Type 0, BuildingBlock: CEKHIL_clean_sbu_0, # of connection points: 4
#     Node 9, Type 0, BuildingBlock: CEKHIL_clean_sbu_0, # of connection points: 4
#     Node 10, Type 0, BuildingBlock: CEKHIL_clean_sbu_0, # of connection points: 4
#     Node 11, Type 0, BuildingBlock: CEKHIL_clean_sbu_0, # of connection points: 4
#     Node 12, Type 0, BuildingBlock: CEKHIL_clean_sbu_0, # of connection points: 4
#     Node 13, Type 0, BuildingBlock: CEKHIL_clean_sbu_0, # of connection points: 4
#     Node 14, Type 0, BuildingBlock: CEKHIL_clean_sbu_0, # of connection points: 4
#     Node 15, Type 0, BuildingBlock: CEKHIL_clean_sbu_0, # of connection points: 4
#     Edge 16, Type (0, 0), BuildingBlock: XIVTED_clean_linker_0, # of connection points: 2
#     Edge 17, Type (0, 0), BuildingBlock: XIVTED_clean_linker_0, # of connection points: 2
#     Edge 18, Type (0, 0), BuildingBlock: XIVTED_clean_linker_0, # of connection points: 2
#     Edge 19, Type (0, 0), BuildingBlock: XIVTED_clean_linker_0, # of connection points: 2
#     Edge 20, Type (0, 0), BuildingBlock: XIVTED_clean_linker_0, # of connection points: 2
#     Edge 21, Type (0, 0), BuildingBlock: XIVTED_clean_linker_0, # of connection points: 2
#     Edge 22, Type (0, 0), BuildingBlock: XIVTED_clean_linker_0, # of connection points: 2
#     Edge 23, Type (0, 0), BuildingBlock: XIVTED_clean_linker_0, # of connection points: 2
#     Edge 24, Type (0, 0), BuildingBlock: XIVTED_clean_linker_0, # of connection points: 2
#     Edge 25, Type (0, 0), BuildingBlock: XIVTED_clean_linker_0, # of connection points: 2
#     Edge 26, Type (0, 0), BuildingBlock: XIVTED_clean_linker_0, # of connection points: 2
#     Edge 27, Type (0, 0), BuildingBlock: XIVTED_clean_linker_0, # of connection points: 2
#     Edge 28, Type (0, 0), BuildingBlock: XIVTED_clean_linker_0, # of connection points: 2
#     Edge 29, Type (0, 0), BuildingBlock: XIVTED_clean_linker_0, # of connection points: 2
#     Edge 30, Type (0, 0), BuildingBlock: XIVTED_clean_linker_0, # of connection points: 2
#     Edge 31, Type (0, 0), BuildingBlock: XIVTED_clean_linker_0, # of connection points: 2
#     Edge 32, Type (0, 0), BuildingBlock: XIVTED_clean_linker_0, # of connection points: 2
#     Edge 33, Type (0, 0), BuildingBlock: XIVTED_clean_linker_0, # of connection points: 2
#     Edge 34, Type (0, 0), BuildingBlock: XIVTED_clean_linker_0, # of connection points: 2
#     Edge 35, Type (0, 0), BuildingBlock: XIVTED_clean_linker_0, # of connection points: 2
#     Edge 36, Type (0, 0), BuildingBlock: XIVTED_clean_linker_0, # of connection points: 2
#     Edge 37, Type (0, 0), BuildingBlock: XIVTED_clean_linker_0, # of connection points: 2
#     Edge 38, Type (0, 0), BuildingBlock: XIVTED_clean_linker_0, # of connection points: 2
#     Edge 39, Type (0, 0), BuildingBlock: XIVTED_clean_linker_0, # of connection points: 2
#     Edge 40, Type (0, 0), BuildingBlock: XIVTED_clean_linker_0, # of connection points: 2
#     Edge 41, Type (0, 0), BuildingBlock: XIVTED_clean_linker_0, # of connection points: 2
#     Edge 42, Type (0, 0), BuildingBlock: XIVTED_clean_linker_0, # of connection points: 2
#     Edge 43, Type (0, 0), BuildingBlock: XIVTED_clean_linker_0, # of connection points: 2
#     Edge 44, Type (0, 0), BuildingBlock: XIVTED_clean_linker_0, # of connection points: 2
#     Edge 45, Type (0, 0), BuildingBlock: XIVTED_clean_linker_0, # of connection points: 2
#     Edge 46, Type (0, 0), BuildingBlock: XIVTED_clean_linker_0, # of connection points: 2
#     Edge 47, Type (0, 0), BuildingBlock: XIVTED_clean_linker_0, # of connection points: 2
# Relax obj value: 0.093
# Max RMSD: 0.227
# Mean RMSD: 0.227
data_MOF--net-umd--node1-CEKHIL_clean_sbu_0--edge1-XIVTED_clean_linker_0
_symmetry_space_group_name_H-M    P1
_symmetry_Int_Tables_number       1
_symmetry_cell_setting            triclinic
loop_
_symmetry_equiv_pos_as_xyz
'x, y, z'
_cell_length_a     38.728267
_cell_length_b     38.734876
_cell_length_c     55.849978
_cell_angle_alpha  90.001704
_cell_angle_beta   89.941697
_cell_angle_gamma 90.069861
loop_
_atom_site_label
_atom_site_type_symbol
_atom_site_fract_x
_atom_site_fract_y
_atom_site_fract_z
_atom_type_partial_charge
Co0 Co 0.19291 0.45496 0.12234 0.0
O1 O 0.2342 0.42884 0.12663 0.0
O2 O 0.18787 0.40952 0.10758 0.0
C3 C 0.19009 0.47282 0.16046 0.0
O4 O 0.14488 0.47488 0.11605 0.0
Co5 Co 0.19468 0.53383 0.12921 0.0
O6 O 0.14435 0.527 0.13378 0.0
C7 C 0.22031 0.5046 0.0841 0.0
C8 C 0.21895 0.40379 0.11554 0.0
C9 C 0.12877 0.50132 0.1245 0.0
O10 O 0.2113 0.47449 0.09153 0.0
O11 O 0.21715 0.53197 0.09676 0.0
O12 O 0.17784 0.44289 0.15437 0.0
O13 O 0.2062 0.48985 0.14391 0.0
Co14 Co 0.54516 0.19931 0.62284 0.0
O15 O 0.56986 0.24203 0.62378 0.0
O16 O 0.59024 0.1937 0.60787 0.0
C17 C 0.52735 0.19985 0.66099 0.0
O18 O 0.52654 0.1502 0.61942 0.0
Co19 Co 0.46614 0.2009 0.62923 0.0
O20 O 0.47074 0.15 0.63068 0.0
C21 C 0.49536 0.22253 0.58336 0.0
C22 C 0.59458 0.22637 0.61255 0.0
C23 C 0.4981 0.13427 0.62424 0.0
O24 O 0.52505 0.21308 0.59115 0.0
O25 O 0.46801 0.22168 0.59622 0.0
O26 O 0.55794 0.18864 0.65553 0.0
O27 O 0.50995 0.21388 0.64375 0.0
Co28 Co 0.80442 0.55959 0.12002 0.0
O29 O 0.76046 0.58197 0.11931 0.0
O30 O 0.80837 0.60355 0.10342 0.0
C31 C 0.80326 0.54518 0.15893 0.0
O32 O 0.85455 0.54331 0.1181 0.0
Co33 Co 0.80699 0.48098 0.13027 0.0
O34 O 0.8566 0.49102 0.13575 0.0
C35 C 0.78461 0.50489 0.08293 0.0
C36 C 0.77545 0.60672 0.10764 0.0
C37 C 0.87134 0.51759 0.12697 0.0
O38 O 0.79277 0.53576 0.08918 0.0
O39 O 0.78656 0.47899 0.09712 0.0
O40 O 0.81269 0.57594 0.15237 0.0
O41 O 0.7914 0.52548 0.14209 0.0
Co42 Co 0.44915 0.80765 0.62059 0.0
O43 O 0.42754 0.76327 0.62078 0.0
O44 O 0.40494 0.80995 0.60405 0.0
C45 C 0.46387 0.80841 0.6594 0.0
O46 O 0.4648 0.85799 0.61782 0.0
Co47 Co 0.52803 0.81052 0.63027 0.0
O48 O 0.51982 0.86092 0.63081 0.0
C49 C 0.50374 0.78698 0.58349 0.0
C50 C 0.40248 0.77712 0.60884 0.0
C51 C 0.49219 0.87523 0.62342 0.0
O52 O 0.47293 0.79523 0.58981 0.0
O53 O 0.52978 0.78915 0.59748 0.0
O54 O 0.43288 0.81698 0.65283 0.0
O55 O 0.4835 0.79599 0.64273 0.0
Co56 Co 0.19791 0.5486 0.37208 0.0
O57 O 0.24153 0.57171 0.37152 0.0
O58 O 0.19417 0.59276 0.38847 0.0
C59 C 0.19711 0.53335 0.33345 0.0
O60 O 0.14818 0.53174 0.37535 0.0
Co61 Co 0.19629 0.47 0.36307 0.0
O62 O 0.14562 0.47682 0.36232 0.0
C63 C 0.2198 0.49516 0.4096 0.0
C64 C 0.22688 0.59623 0.38357 0.0
C65 C 0.13109 0.50431 0.36976 0.0
O66 O 0.21148 0.52576 0.40293 0.0
O67 O 0.2175 0.46877 0.39592 0.0
O68 O 0.18721 0.56397 0.33993 0.0
O69 O 0.21073 0.5143 0.34999 0.0
Co70 Co 0.45095 0.19765 0.87286 0.0
O71 O 0.42515 0.23966 0.87329 0.0
O72 O 0.40793 0.19073 0.89024 0.0
C73 C 0.46425 0.19888 0.83387 0.0
O74 O 0.47111 0.14908 0.87528 0.0
Co75 Co 0.52892 0.20059 0.86183 0.0
O76 O 0.5229 0.1502 0.857 0.0
C77 C 0.50487 0.22171 0.90933 0.0
C78 C 0.40219 0.22321 0.88574 0.0
C79 C 0.4977 0.13382 0.86631 0.0
O80 O 0.47437 0.21213 0.90325 0.0
O81 O 0.53075 0.22073 0.89507 0.0
O82 O 0.43473 0.18662 0.84094 0.0
O83 O 0.4833 0.21316 0.85015 0.0
Co84 Co 0.80705 0.45038 0.36804 0.0
O85 O 0.76514 0.42444 0.36495 0.0
O86 O 0.81222 0.40572 0.38342 0.0
C87 C 0.80919 0.46749 0.32962 0.0
O88 O 0.85567 0.46927 0.37329 0.0
Co89 Co 0.80674 0.52938 0.36053 0.0
O90 O 0.85761 0.52424 0.36041 0.0
C91 C 0.78177 0.50136 0.40618 0.0
C92 C 0.7808 0.39982 0.37627 0.0
C93 C 0.87241 0.49709 0.36815 0.0
O94 O 0.79045 0.47104 0.39901 0.0
O95 O 0.78441 0.52831 0.39304 0.0
O96 O 0.82027 0.43716 0.33582 0.0
O97 O 0.79428 0.48525 0.34634 0.0
Co98 Co 0.55266 0.8082 0.86938 0.0
O99 O 0.5744 0.76432 0.86571 0.0
O100 O 0.59823 0.80903 0.88416 0.0
C101 C 0.53536 0.81201 0.83112 0.0
O102 O 0.53776 0.85819 0.87498 0.0
Co103 Co 0.4737 0.8141 0.86229 0.0
O104 O 0.48559 0.86344 0.85758 0.0
C105 C 0.50032 0.78603 0.9075 0.0
C106 C 0.60094 0.77738 0.8765 0.0
C107 C 0.51279 0.87654 0.86662 0.0
O108 O 0.53114 0.79279 0.90031 0.0
O109 O 0.47348 0.79113 0.89461 0.0
O110 O 0.56654 0.82067 0.83716 0.0
O111 O 0.51662 0.79848 0.84791 0.0
Co112 Co 0.80903 0.54948 0.86942 0.0
O113 O 0.76738 0.57524 0.86567 0.0
O114 O 0.81384 0.5945 0.88464 0.0
C115 C 0.81183 0.53245 0.831 0.0
O116 O 0.85736 0.53015 0.87529 0.0
Co117 Co 0.80736 0.4706 0.86219 0.0
O118 O 0.85825 0.47497 0.86272 0.0
C119 C 0.7819 0.49916 0.90742 0.0
C120 C 0.78262 0.60014 0.87695 0.0
C121 C 0.87353 0.50189 0.87045 0.0
O122 O 0.79132 0.52923 0.90019 0.0
O123 O 0.78447 0.47199 0.89451 0.0
O124 O 0.82329 0.56254 0.83745 0.0
O125 O 0.79627 0.51476 0.84751 0.0
Co126 Co 0.4515 0.80362 0.37043 0.0
O127 O 0.42922 0.75959 0.37095 0.0
O128 O 0.40734 0.80722 0.38692 0.0
C129 C 0.46622 0.80246 0.33167 0.0
O130 O 0.46752 0.85379 0.37253 0.0
Co131 Co 0.52985 0.80723 0.36039 0.0
O132 O 0.51923 0.85654 0.35416 0.0
C133 C 0.5061 0.78522 0.40787 0.0
C134 C 0.4044 0.77427 0.38269 0.0
C135 C 0.49269 0.87092 0.36319 0.0
O136 O 0.47505 0.79194 0.40132 0.0
O137 O 0.53218 0.78812 0.39391 0.0
O138 O 0.43556 0.81238 0.33808 0.0
O139 O 0.48578 0.79039 0.34848 0.0
Co140 Co 0.19812 0.44762 0.87176 0.0
O141 O 0.2415 0.42414 0.87182 0.0
O142 O 0.19356 0.40377 0.88843 0.0
C143 C 0.19835 0.46225 0.83289 0.0
O144 O 0.14853 0.46514 0.87446 0.0
Co145 Co 0.19811 0.52636 0.86206 0.0
O146 O 0.14732 0.52035 0.86181 0.0
C147 C 0.22112 0.50124 0.90876 0.0
C148 C 0.2263 0.39988 0.88385 0.0
C149 C 0.13214 0.49309 0.86913 0.0
O150 O 0.21129 0.47088 0.90253 0.0
O151 O 0.22016 0.52728 0.89467 0.0
O152 O 0.18836 0.43169 0.83953 0.0
O153 O 0.21141 0.48147 0.84956 0.0
Co154 Co 0.55917 0.19137 0.37053 0.0
O155 O 0.58644 0.23257 0.36909 0.0
O156 O 0.60279 0.18408 0.38694 0.0
C157 C 0.54441 0.19132 0.33168 0.0
O158 O 0.53803 0.14327 0.37425 0.0
Co159 Co 0.48067 0.19496 0.36067 0.0
O160 O 0.48646 0.1446 0.35574 0.0
C161 C 0.50687 0.2174 0.40749 0.0
C162 C 0.60986 0.21571 0.38076 0.0
C163 C 0.51143 0.12812 0.36517 0.0
O164 O 0.53721 0.2076 0.40111 0.0
O165 O 0.48059 0.21603 0.39363 0.0
O166 O 0.57399 0.17903 0.33847 0.0
O167 O 0.52617 0.20618 0.34818 0.0
Co168 Co 0.80418 0.44772 0.61989 0.0
O169 O 0.76064 0.42446 0.61956 0.0
O170 O 0.80871 0.40364 0.60346 0.0
C171 C 0.80338 0.46244 0.65871 0.0
O172 O 0.85397 0.46518 0.61771 0.0
Co173 Co 0.80408 0.52643 0.62893 0.0
O174 O 0.85479 0.52044 0.63026 0.0
C175 C 0.78221 0.50081 0.58216 0.0
C176 C 0.77587 0.39997 0.60784 0.0
C177 C 0.87021 0.49316 0.62333 0.0
O178 O 0.7917 0.4706 0.58887 0.0
O179 O 0.78307 0.52719 0.59594 0.0
O180 O 0.81327 0.43187 0.65211 0.0
O181 O 0.7906 0.48178 0.64197 0.0
Co182 Co 0.54685 0.80687 0.12065 0.0
O183 O 0.57293 0.76499 0.12127 0.0
O184 O 0.59084 0.81381 0.10453 0.0
C185 C 0.53093 0.80632 0.15917 0.0
O186 O 0.52676 0.85529 0.11726 0.0
Co187 Co 0.46823 0.8037 0.12915 0.0
O188 O 0.47166 0.85477 0.13 0.0
C189 C 0.49559 0.78144 0.08284 0.0
C190 C 0.59649 0.78143 0.10935 0.0
C191 C 0.49837 0.87083 0.12264 0.0
O192 O 0.52549 0.79187 0.08964 0.0
O193 O 0.46897 0.782 0.09642 0.0
O194 O 0.5609 0.81847 0.15296 0.0
O195 O 0.51307 0.79163 0.14243 0.0
Co196 Co 0.19606 0.55071 0.62245 0.0
O197 O 0.24011 0.57301 0.62174 0.0
O198 O 0.19245 0.59471 0.60574 0.0
C199 C 0.19699 0.53628 0.66135 0.0
O200 O 0.14589 0.53426 0.62052 0.0
Co201 Co 0.19454 0.47198 0.63243 0.0
O202 O 0.144 0.47936 0.63381 0.0
C203 C 0.21657 0.4963 0.58525 0.0
C204 C 0.22541 0.59768 0.60989 0.0
C205 C 0.12912 0.50672 0.62648 0.0
O206 O 0.20779 0.52695 0.59156 0.0
O207 O 0.21533 0.47036 0.59942 0.0
O208 O 0.18761 0.56704 0.65479 0.0
O209 O 0.20906 0.5167 0.64453 0.0
Co210 Co 0.45112 0.19739 0.12254 0.0
O211 O 0.42969 0.24141 0.12629 0.0
O212 O 0.40567 0.19726 0.10745 0.0
C213 C 0.46803 0.19257 0.16088 0.0
O214 O 0.46596 0.14742 0.11661 0.0
Co215 Co 0.53026 0.19281 0.12984 0.0
O216 O 0.52138 0.14256 0.12842 0.0
C217 C 0.50375 0.22068 0.08474 0.0
C218 C 0.40321 0.22896 0.11509 0.0
C219 C 0.49323 0.12934 0.12094 0.0
O220 O 0.47302 0.21313 0.09175 0.0
O221 O 0.53052 0.21642 0.09781 0.0
O222 O 0.43682 0.18439 0.15459 0.0
O223 O 0.48686 0.20661 0.14435 0.0
H224 H 0.08496 0.48305 0.08791 0.0
H225 H 0.91394 0.49992 0.1633 0.0
H226 H 0.08656 0.52246 0.16012 0.0
H227 H 0.91465 0.53433 0.08989 0.0
H228 H 0.97706 0.4956 0.16216 0.0
H229 H 0.02144 0.4889 0.08774 0.0
C230 C 0.07188 0.4926 0.10373 0.0
C231 C 0.09077 0.50237 0.12405 0.0
C232 C 0.96337 0.50424 0.14635 0.0
C233 C 0.01898 0.5086 0.12407 0.0
C234 C 0.92751 0.50675 0.147 0.0
C235 C 0.90934 0.51783 0.12673 0.0
C236 C 0.98105 0.51183 0.12508 0.0
C237 C 0.92796 0.52615 0.10595 0.0
C238 C 0.0359 0.4962 0.10355 0.0
C239 C 0.07283 0.51486 0.14407 0.0
N240 N 0.96295 0.52257 0.10552 0.0
N241 N 0.03789 0.51729 0.14368 0.0
H242 H 0.54852 0.91745 0.62197 0.0
H243 H 0.44097 0.09261 0.62679 0.0
H244 H 0.4371 0.92007 0.61958 0.0
H245 H 0.55153 0.08872 0.61688 0.0
H246 H 0.43882 0.02979 0.62449 0.0
H247 H 0.54975 0.98012 0.62029 0.0
C248 C 0.52421 0.93119 0.62107 0.0
C249 C 0.49258 0.91335 0.62111 0.0
C250 C 0.46352 0.04267 0.6227 0.0
C251 C 0.49394 0.98559 0.61923 0.0
C252 C 0.46485 0.0786 0.6241 0.0
C253 C 0.49657 0.09612 0.62216 0.0
C254 C 0.49413 0.02392 0.61953 0.0
C255 C 0.52652 0.07644 0.61852 0.0
C256 C 0.525 0.96709 0.62003 0.0
C257 C 0.46205 0.93271 0.61962 0.0
N258 N 0.52457 0.04141 0.61747 0.0
N259 N 0.46348 0.96784 0.61894 0.0
H260 H 0.08731 0.55959 0.37558 0.0
H261 H 0.91633 0.44273 0.37643 0.0
H262 H 0.08789 0.44848 0.36916 0.0
H263 H 0.91529 0.55332 0.36656 0.0
H264 H 0.97934 0.44474 0.37914 0.0
H265 H 0.02411 0.55808 0.37754 0.0
C266 C 0.07422 0.5349 0.37472 0.0
C267 C 0.09297 0.50416 0.37202 0.0
C268 C 0.96526 0.46856 0.37645 0.0
C269 C 0.02078 0.50223 0.37433 0.0
C270 C 0.92927 0.46744 0.37497 0.0
C271 C 0.91043 0.49785 0.37109 0.0
C272 C 0.98254 0.50033 0.37419 0.0
C273 C 0.92869 0.52915 0.36935 0.0
C274 C 0.03816 0.53405 0.37577 0.0
C275 C 0.07457 0.47288 0.371 0.0
N276 N 0.96369 0.52957 0.37088 0.0
N277 N 0.03956 0.47275 0.37214 0.0
H278 H 0.50892 0.91901 0.82852 0.0
H279 H 0.47396 0.08975 0.90114 0.0
H280 H 0.52029 0.91944 0.90526 0.0
H281 H 0.52694 0.09168 0.83317 0.0
H282 H 0.48086 0.02654 0.90222 0.0
H283 H 0.50632 0.98224 0.82888 0.0
C284 C 0.51126 0.93261 0.84541 0.0
C285 C 0.51521 0.91436 0.86686 0.0
C286 C 0.49098 0.04097 0.88715 0.0
C287 C 0.51106 0.98618 0.86751 0.0
C288 C 0.48678 0.07684 0.88641 0.0
C289 C 0.49991 0.09581 0.86703 0.0
C290 C 0.50752 0.02413 0.86807 0.0
C291 C 0.5166 0.07797 0.84848 0.0
C292 C 0.50972 0.96852 0.84561 0.0
C293 C 0.5177 0.93286 0.88836 0.0
N294 N 0.51962 0.04309 0.84933 0.0
N295 N 0.51511 0.96794 0.88821 0.0
H296 H 0.91438 0.44434 0.87096 0.0
H297 H 0.09077 0.55019 0.86861 0.0
H298 H 0.91941 0.5554 0.87677 0.0
H299 H 0.08656 0.43924 0.87583 0.0
H300 H 0.02815 0.55241 0.87165 0.0
H301 H 0.97717 0.44186 0.87302 0.0
C302 C 0.92865 0.46826 0.87277 0.0
C303 C 0.9115 0.50021 0.8735 0.0
C304 C 0.04087 0.52758 0.87269 0.0
C305 C 0.98366 0.49743 0.87577 0.0
C306 C 0.07671 0.52621 0.87084 0.0
C307 C 0.09407 0.49439 0.87177 0.0
C308 C 0.02198 0.4969 0.87527 0.0
C309 C 0.07433 0.46432 0.87495 0.0
C310 C 0.96457 0.46676 0.87401 0.0
C311 C 0.93146 0.53023 0.87609 0.0
N312 N 0.0393 0.4663 0.87641 0.0
N313 N 0.96651 0.52812 0.87692 0.0
H314 H 0.53296 0.08337 0.40026 0.0
H315 H 0.50354 0.91364 0.3256 0.0
H316 H 0.48419 0.08672 0.33089 0.0
H317 H 0.48147 0.91385 0.40126 0.0
H318 H 0.5075 0.97687 0.32646 0.0
H319 H 0.52581 0.02009 0.4005 0.0
C320 C 0.52102 0.07075 0.38507 0.0
C321 C 0.5091 0.09012 0.36554 0.0
C322 C 0.50158 0.96304 0.34282 0.0
C323 C 0.50135 0.01845 0.36559 0.0
C324 C 0.4993 0.92715 0.34234 0.0
C325 C 0.49187 0.90884 0.36335 0.0
C326 C 0.49753 0.98056 0.36462 0.0
C327 C 0.48681 0.9273 0.38466 0.0
C328 C 0.51671 0.03487 0.38531 0.0
C329 C 0.49356 0.07267 0.34633 0.0
N330 N 0.49022 0.96229 0.38486 0.0
N331 N 0.49046 0.03778 0.34672 0.0
H332 H 0.91597 0.43919 0.61875 0.0
H333 H 0.084 0.5607 0.61879 0.0
H334 H 0.91166 0.55033 0.62411 0.0
H335 H 0.08702 0.45023 0.62913 0.0
H336 H 0.02086 0.5574 0.61617 0.0
H337 H 0.97912 0.44272 0.61784 0.0
C338 C 0.92823 0.4643 0.61961 0.0
C339 C 0.90841 0.49444 0.62169 0.0
C340 C 0.03545 0.53392 0.61899 0.0
C341 C 0.98062 0.49872 0.6206 0.0
C342 C 0.07148 0.5358 0.62045 0.0
C343 C 0.09093 0.50578 0.62435 0.0
C344 C 0.01881 0.50177 0.62123 0.0
C345 C 0.07321 0.47416 0.62632 0.0
C346 C 0.96428 0.46632 0.61917 0.0
C347 C 0.92581 0.52633 0.62273 0.0
N348 N 0.03827 0.47302 0.62473 0.0
N349 N 0.96084 0.52762 0.62219 0.0
H350 H 0.54829 0.08718 0.11343 0.0
H351 H 0.44159 0.91239 0.12839 0.0
H352 H 0.43733 0.0851 0.12067 0.0
H353 H 0.5502 0.91627 0.11089 0.0
H354 H 0.43894 0.97516 0.12506 0.0
H355 H 0.54875 0.0245 0.1115 0.0
C356 C 0.52392 0.07351 0.11451 0.0
C357 C 0.49271 0.09146 0.11744 0.0
C358 C 0.46329 0.96226 0.12182 0.0
C359 C 0.49314 0.01927 0.11539 0.0
C360 C 0.46491 0.92637 0.1238 0.0
C361 C 0.49627 0.90889 0.12006 0.0
C362 C 0.49326 0.98095 0.1162 0.0
C363 C 0.52549 0.92851 0.11402 0.0
C364 C 0.52423 0.03763 0.11335 0.0
C365 C 0.46196 0.07231 0.11842 0.0
N366 N 0.52329 0.96345 0.11242 0.0
N367 N 0.46297 0.03716 0.11765 0.0
H368 H 0.24331 0.49483 0.30817 0.0
H369 H 0.13658 0.4667 0.19166 0.0
H370 H 0.14561 0.54738 0.30202 0.0
H371 H 0.24114 0.50415 0.1858 0.0
H372 H 0.13703 0.48138 0.23457 0.0
H373 H 0.24095 0.48157 0.26507 0.0
C374 C 0.22119 0.50307 0.29779 0.0
C375 C 0.19463 0.52222 0.30841 0.0
C376 C 0.1597 0.48648 0.22375 0.0
C377 C 0.19162 0.50684 0.25982 0.0
C378 C 0.15948 0.47821 0.19944 0.0
C379 C 0.1888 0.48453 0.18539 0.0
C380 C 0.18988 0.49985 0.23402 0.0
C381 C 0.21796 0.49931 0.19613 0.0
C382 C 0.22003 0.4958 0.27333 0.0
C383 C 0.16662 0.53268 0.29429 0.0
N384 N 0.21801 0.50599 0.22001 0.0
N385 N 0.16562 0.52456 0.27065 0.0
H386 H 0.48897 0.24811 0.68459 0.0
H387 H 0.4565 0.14521 0.80312 0.0
H388 H 0.538 0.14906 0.69358 0.0
H389 H 0.49419 0.2498 0.80739 0.0
H390 H 0.4707 0.1445 0.76014 0.0
H391 H 0.47377 0.24777 0.72746 0.0
C392 C 0.49599 0.22612 0.69553 0.0
C393 C 0.51474 0.19859 0.68577 0.0
C394 C 0.47581 0.16751 0.77059 0.0
C395 C 0.49717 0.19786 0.73411 0.0
C396 C 0.46779 0.16795 0.79494 0.0
C397 C 0.47447 0.19754 0.80859 0.0
C398 C 0.48934 0.19729 0.75985 0.0
C399 C 0.48905 0.22643 0.79736 0.0
C400 C 0.48763 0.22609 0.71986 0.0
C401 C 0.52363 0.17079 0.7006 0.0
N402 N 0.4956 0.22581 0.77345 0.0
N403 N 0.51449 0.17095 0.72409 0.0
H404 H 0.81388 0.58556 0.19812 0.0
H405 H 0.82452 0.42907 0.29022 0.0
H406 H 0.79839 0.47953 0.17691 0.0
H407 H 0.7976 0.5325 0.31203 0.0
H408 H 0.82442 0.44792 0.24846 0.0
H409 H 0.81708 0.5671 0.23993 0.0
C410 C 0.81126 0.55836 0.20227 0.0
C411 C 0.80573 0.53399 0.18408 0.0
C412 C 0.81859 0.46647 0.2624 0.0
C413 C 0.80965 0.5128 0.23176 0.0
C414 C 0.8188 0.45582 0.28622 0.0
C415 C 0.81091 0.47928 0.30457 0.0
C416 C 0.81092 0.50094 0.2569 0.0
C417 C 0.80364 0.51359 0.29839 0.0
C418 C 0.81297 0.54791 0.22612 0.0
C419 C 0.80249 0.49913 0.19043 0.0
N420 N 0.80391 0.52345 0.27502 0.0
N421 N 0.80465 0.48952 0.21379 0.0
H422 H 0.46976 0.80375 0.81368 0.0
H423 H 0.52946 0.80386 0.6773 0.0
H424 H 0.57429 0.82644 0.79182 0.0
H425 H 0.42347 0.81985 0.69849 0.0
H426 H 0.54665 0.80747 0.71945 0.0
H427 H 0.45204 0.80524 0.77154 0.0
C428 C 0.48889 0.80919 0.80002 0.0
C429 C 0.52351 0.81485 0.80616 0.0
C430 C 0.51966 0.81036 0.71482 0.0
C431 C 0.50364 0.8162 0.75817 0.0
C432 C 0.50986 0.80817 0.69083 0.0
C433 C 0.47504 0.81148 0.68449 0.0
C434 C 0.49434 0.81535 0.73253 0.0
C435 C 0.45064 0.81719 0.70265 0.0
C436 C 0.4788 0.81011 0.77604 0.0
C437 C 0.54731 0.82192 0.78784 0.0
N438 N 0.46071 0.81867 0.7259 0.0
N439 N 0.537 0.82207 0.76463 0.0
H440 H 0.82911 0.57169 0.79237 0.0
H441 H 0.80971 0.42042 0.69728 0.0
H442 H 0.7957 0.46917 0.812 0.0
H443 H 0.80044 0.52779 0.67773 0.0
H444 H 0.81243 0.43706 0.73938 0.0
H445 H 0.82699 0.55505 0.75021 0.0
C446 C 0.82153 0.54558 0.78782 0.0
C447 C 0.8125 0.52172 0.80569 0.0
C448 C 0.80974 0.45697 0.7259 0.0
C449 C 0.81012 0.50264 0.75752 0.0
C450 C 0.80833 0.44756 0.70187 0.0
C451 C 0.80483 0.47284 0.68405 0.0
C452 C 0.80824 0.49196 0.73215 0.0
C453 C 0.80299 0.50755 0.69098 0.0
C454 C 0.82013 0.53623 0.76375 0.0
C455 C 0.80279 0.48832 0.79876 0.0
N456 N 0.80496 0.51617 0.71456 0.0
N457 N 0.80197 0.4797 0.77517 0.0
H458 H 0.50517 0.75561 0.30741 0.0
H459 H 0.53824 0.85929 0.19059 0.0
H460 H 0.45197 0.85262 0.29918 0.0
H461 H 0.49827 0.75573 0.18434 0.0
H462 H 0.52211 0.85937 0.23326 0.0
H463 H 0.51957 0.75681 0.26443 0.0
C464 C 0.49694 0.77729 0.29658 0.0
C465 C 0.47734 0.80401 0.30658 0.0
C466 C 0.51684 0.83678 0.22241 0.0
C467 C 0.4941 0.80577 0.25817 0.0
C468 C 0.52597 0.83668 0.19825 0.0
C469 C 0.51929 0.80752 0.18415 0.0
C470 C 0.50222 0.80706 0.23252 0.0
C471 C 0.50346 0.77877 0.19472 0.0
C472 C 0.50489 0.7778 0.2722 0.0
C473 C 0.46698 0.83149 0.29193 0.0
N474 N 0.49592 0.779 0.2185 0.0
N475 N 0.47582 0.8319 0.26838 0.0
H476 H 0.18513 0.422 0.79403 0.0
H477 H 0.1863 0.57699 0.70037 0.0
H478 H 0.20708 0.52723 0.81442 0.0
H479 H 0.20413 0.47112 0.67975 0.0
H480 H 0.18537 0.55927 0.74237 0.0
H481 H 0.18351 0.43982 0.75208 0.0
C482 C 0.18947 0.44891 0.78968 0.0
C483 C 0.19638 0.47321 0.80768 0.0
C484 C 0.18949 0.53994 0.72865 0.0
C485 C 0.19436 0.49369 0.75979 0.0
C486 C 0.18988 0.54997 0.70469 0.0
C487 C 0.19542 0.52544 0.68661 0.0
C488 C 0.19418 0.50508 0.73453 0.0
C489 C 0.19995 0.49083 0.69318 0.0
C490 C 0.18868 0.45898 0.76574 0.0
C491 C 0.20185 0.50769 0.80105 0.0
N492 N 0.19911 0.48162 0.71666 0.0
N493 N 0.20061 0.51696 0.77759 0.0
H494 H 0.58382 0.17563 0.29282 0.0
H495 H 0.42816 0.17983 0.2 0.0
H496 H 0.47974 0.2022 0.31339 0.0
H497 H 0.53378 0.198 0.17866 0.0
H498 H 0.44659 0.17772 0.24179 0.0
H499 H 0.56558 0.17376 0.25093 0.0
C500 C 0.55707 0.18092 0.28852 0.0
C501 C 0.53322 0.18923 0.30654 0.0
C502 C 0.46571 0.18209 0.22795 0.0
C503 C 0.51227 0.18684 0.25878 0.0
C504 C 0.4553 0.18313 0.2041 0.0
C505 C 0.47953 0.18927 0.1859 0.0
C506 C 0.50066 0.1867 0.2336 0.0
C507 C 0.5143 0.19341 0.19221 0.0
C508 C 0.54678 0.17997 0.26463 0.0
C509 C 0.49894 0.19589 0.3 0.0
N510 N 0.5239 0.19196 0.21561 0.0
N511 N 0.48942 0.19442 0.2766 0.0
H512 H 0.2219 0.56088 0.93561 0.0
H513 H 0.24775 0.45397 0.05607 0.0
H514 H 0.24545 0.45209 0.93911 0.0
H515 H 0.21991 0.56185 0.05503 0.0
H516 H 0.25827 0.45638 0.01314 0.0
H517 H 0.23187 0.56512 0.97889 0.0
C518 C 0.22974 0.53806 0.94539 0.0
C519 C 0.23218 0.50595 0.93386 0.0
C520 C 0.25025 0.4797 0.02228 0.0
C521 C 0.24352 0.51058 0.98318 0.0
C522 C 0.24423 0.47832 0.04683 0.0
C523 C 0.23234 0.5076 0.05907 0.0
C524 C 0.24384 0.51044 0.00972 0.0
C525 C 0.2288 0.53858 0.04624 0.0
C526 C 0.23533 0.54046 0.97008 0.0
C527 C 0.24255 0.47723 0.94735 0.0
N528 N 0.23393 0.53906 0.02214 0.0
N529 N 0.24747 0.48017 0.97128 0.0
H530 H 0.55621 0.24208 0.43771 0.0
H531 H 0.4383 0.22272 0.55394 0.0
H532 H 0.44734 0.21855 0.43442 0.0
H533 H 0.54752 0.2451 0.55467 0.0
H534 H 0.4382 0.23062 0.51035 0.0
H535 H 0.55061 0.25296 0.48041 0.0
C536 C 0.531 0.2395 0.44596 0.0
C537 C 0.50231 0.22883 0.43255 0.0
C538 C 0.46205 0.23428 0.52014 0.0
C539 C 0.49574 0.24087 0.48169 0.0
C540 C 0.46209 0.2299 0.54502 0.0
C541 C 0.49309 0.23263 0.55789 0.0
C542 C 0.4932 0.24153 0.50819 0.0
C543 C 0.52314 0.24205 0.54543 0.0
C544 C 0.52779 0.24576 0.47039 0.0
C545 C 0.47018 0.2265 0.44413 0.0
N546 N 0.52249 0.24579 0.52131 0.0
N547 N 0.46785 0.23191 0.46816 0.0
H548 H 0.78565 0.44494 0.05634 0.0
H549 H 0.75363 0.54924 0.93543 0.0
H550 H 0.75891 0.55295 0.05227 0.0
H551 H 0.78433 0.44218 0.9367 0.0
H552 H 0.74446 0.54715 0.97851 0.0
H553 H 0.77502 0.43977 0.01316 0.0
C554 C 0.77705 0.4674 0.04646 0.0
C555 C 0.77384 0.49958 0.05781 0.0
C556 C 0.75281 0.52393 0.96941 0.0
C557 C 0.76165 0.49387 0.00861 0.0
C558 C 0.75803 0.52512 0.94477 0.0
C559 C 0.77033 0.49601 0.93254 0.0
C560 C 0.76047 0.49356 0.98207 0.0
C561 C 0.77505 0.46529 0.94549 0.0
C562 C 0.77105 0.46445 0.02183 0.0
C563 C 0.76246 0.52779 0.04419 0.0
N564 N 0.77072 0.46503 0.96968 0.0
N565 N 0.75711 0.52433 0.02033 0.0
H566 H 0.45714 0.75541 0.55455 0.0
H567 H 0.56455 0.79222 0.43554 0.0
H568 H 0.5617 0.79401 0.5554 0.0
H569 H 0.45925 0.75569 0.43775 0.0
H570 H 0.56848 0.78359 0.47903 0.0
H571 H 0.46207 0.74546 0.5117 0.0
C572 C 0.48131 0.7615 0.54569 0.0
C573 C 0.50885 0.77611 0.55843 0.0
C574 C 0.54473 0.777 0.46988 0.0
C575 C 0.51457 0.7653 0.50916 0.0
C576 C 0.54251 0.78181 0.44509 0.0
C577 C 0.51132 0.77527 0.43313 0.0
C578 C 0.51559 0.76543 0.48262 0.0
C579 C 0.48359 0.76175 0.44632 0.0
C580 C 0.48415 0.75579 0.5212 0.0
C581 C 0.53978 0.78291 0.54616 0.0
N582 N 0.4863 0.75762 0.47032 0.0
N583 N 0.54163 0.77802 0.52205 0.0
H584 H 0.25029 0.54286 0.43828 0.0
H585 H 0.2139 0.43695 0.55814 0.0
H586 H 0.21332 0.43771 0.43822 0.0
H587 H 0.24315 0.54443 0.55501 0.0
H588 H 0.22401 0.43246 0.51482 0.0
H589 H 0.25897 0.53926 0.48132 0.0
C590 C 0.24433 0.51883 0.44734 0.0
C591 C 0.23049 0.49073 0.43476 0.0
C592 C 0.22865 0.45685 0.52373 0.0
C593 C 0.23983 0.48657 0.48424 0.0
C594 C 0.22299 0.4594 0.54843 0.0
C595 C 0.2271 0.49126 0.56007 0.0
C596 C 0.23869 0.48633 0.51078 0.0
C597 C 0.23898 0.51952 0.54668 0.0
C598 C 0.24929 0.51677 0.47195 0.0
C599 C 0.22384 0.46004 0.44732 0.0
N600 N 0.24405 0.51643 0.52278 0.0
N601 N 0.228 0.45894 0.47152 0.0
H602 H 0.56394 0.21917 0.93671 0.0
H603 H 0.45557 0.25081 0.05607 0.0
H604 H 0.4566 0.24883 0.93916 0.0
H605 H 0.56161 0.21663 0.05633 0.0
H606 H 0.45974 0.26111 0.01319 0.0
H607 H 0.56768 0.2286 0.98013 0.0
C608 C 0.54139 0.2283 0.94629 0.0
C609 C 0.50976 0.23262 0.93444 0.0
C610 C 0.4823 0.25172 0.0226 0.0
C611 C 0.51379 0.24333 0.98386 0.0
C612 C 0.4799 0.24582 0.04712 0.0
C613 C 0.5081 0.23229 0.05971 0.0
C614 C 0.51296 0.24353 0.0104 0.0
C615 C 0.53916 0.22687 0.04726 0.0
C616 C 0.54349 0.23354 0.97105 0.0
C617 C 0.48135 0.24451 0.94766 0.0
N618 N 0.5406 0.23194 0.02316 0.0
N619 N 0.48397 0.2491 0.97164 0.0
H620 H 0.78046 0.56032 0.43367 0.0
H621 H 0.75468 0.45137 0.55348 0.0
H622 H 0.7588 0.45101 0.43644 0.0
H623 H 0.78499 0.55862 0.55342 0.0
H624 H 0.7449 0.45452 0.51055 0.0
H625 H 0.77141 0.5636 0.47705 0.0
C626 C 0.77319 0.53714 0.4433 0.0
C627 C 0.77093 0.50521 0.43145 0.0
C628 C 0.75338 0.47753 0.51987 0.0
C629 C 0.76068 0.50882 0.48099 0.0
C630 C 0.759 0.47574 0.54442 0.0
C631 C 0.77129 0.50463 0.55696 0.0
C632 C 0.76051 0.50832 0.50756 0.0
C633 C 0.77576 0.53569 0.54438 0.0
C634 C 0.76817 0.53904 0.46807 0.0
C635 C 0.7614 0.47608 0.44484 0.0
N636 N 0.77092 0.53659 0.52023 0.0
N637 N 0.75696 0.47855 0.46887 0.0
H638 H 0.43709 0.78023 0.05492 0.0
H639 H 0.5491 0.75688 0.93624 0.0
H640 H 0.54629 0.75813 0.05324 0.0
H641 H 0.44203 0.7878 0.93568 0.0
H642 H 0.54468 0.74536 0.97894 0.0
H643 H 0.4348 0.77145 0.01144 0.0
C644 C 0.46041 0.7729 0.0455 0.0
C645 C 0.49205 0.77055 0.05761 0.0
C646 C 0.52199 0.75431 0.96949 0.0
C647 C 0.48965 0.76062 0.00808 0.0
C648 C 0.52451 0.76094 0.94507 0.0
C649 C 0.49607 0.77397 0.93245 0.0
C650 C 0.49091 0.76115 0.98156 0.0
C651 C 0.4647 0.77809 0.94476 0.0
C652 C 0.45912 0.76803 0.02069 0.0
C653 C 0.52146 0.76089 0.04455 0.0
N654 N 0.4631 0.77224 0.96876 0.0
N655 N 0.5196 0.75665 0.02051 0.0
H656 H 0.24625 0.37087 0.15291 0.0
H657 H 0.34729 0.22193 0.08412 0.0
H658 H 0.23147 0.36083 0.07675 0.0
H659 H 0.38672 0.2837 0.14237 0.0
H660 H 0.29526 0.25925 0.08313 0.0
H661 H 0.2861 0.32241 0.15202 0.0
C662 C 0.25093 0.35785 0.13603 0.0
C663 C 0.23592 0.36987 0.11486 0.0
C664 C 0.31547 0.26431 0.09604 0.0
C665 C 0.28229 0.31493 0.11357 0.0
C666 C 0.34497 0.24313 0.09667 0.0
C667 C 0.37138 0.24984 0.1133 0.0
C668 C 0.31235 0.29143 0.11262 0.0
C669 C 0.36723 0.27759 0.12914 0.0
C670 C 0.27378 0.33035 0.1355 0.0
C671 C 0.24265 0.3521 0.09344 0.0
N672 N 0.33833 0.29708 0.12848 0.0
N673 N 0.266 0.32565 0.09321 0.0
H674 H 0.71625 0.40305 0.5836 0.0
H675 H 0.66352 0.2079 0.61236 0.0
H676 H 0.78825 0.33054 0.61389 0.0
H677 H 0.59372 0.29054 0.59451 0.0
H678 H 0.71268 0.24697 0.60423 0.0
H679 H 0.67508 0.35639 0.57746 0.0
C680 C 0.72355 0.37699 0.58852 0.0
C681 C 0.75539 0.37048 0.59938 0.0
C682 C 0.68656 0.25623 0.60172 0.0
C683 C 0.70792 0.31698 0.59332 0.0
C684 C 0.65864 0.23398 0.60626 0.0
C685 C 0.62472 0.24634 0.60439 0.0
C686 C 0.68014 0.29063 0.59493 0.0
C687 C 0.61954 0.28024 0.59652 0.0
C688 C 0.70001 0.35035 0.58515 0.0
C689 C 0.76383 0.33637 0.6054 0.0
N690 N 0.64686 0.30115 0.59222 0.0
N691 N 0.73985 0.31081 0.60274 0.0
H692 H 0.79196 0.67591 0.10903 0.0
H693 H 0.59503 0.72361 0.08306 0.0
H694 H 0.71186 0.6045 0.08852 0.0
H695 H 0.66559 0.79539 0.1159 0.0
H696 H 0.64297 0.68476 0.07483 0.0
H697 H 0.75136 0.72411 0.10248 0.0
C698 C 0.76615 0.67054 0.10256 0.0
C699 C 0.75491 0.63638 0.09952 0.0
C700 C 0.64829 0.70917 0.08356 0.0
C701 C 0.70883 0.69074 0.092 0.0
C702 C 0.62092 0.73136 0.08815 0.0
C703 C 0.62655 0.76241 0.10029 0.0
C704 C 0.68151 0.71759 0.09178 0.0
C705 C 0.66043 0.77153 0.10646 0.0
C706 C 0.74301 0.69791 0.09896 0.0
C707 C 0.7213 0.63053 0.09133 0.0
N708 N 0.68674 0.74881 0.10256 0.0
N709 N 0.69945 0.65736 0.08801 0.0
H710 H 0.28805 0.59319 0.58956 0.0
H711 H 0.33299 0.79301 0.60647 0.0
H712 H 0.21125 0.66752 0.61088 0.0
H713 H 0.4063 0.71136 0.59381 0.0
H714 H 0.28557 0.75134 0.59992 0.0
H715 H 0.32852 0.63991 0.58191 0.0
C716 C 0.27963 0.61958 0.59231 0.0
C717 C 0.24655 0.62663 0.6011 0.0
C718 C 0.31207 0.74282 0.59818 0.0
C719 C 0.29314 0.68049 0.59311 0.0
C720 C 0.33902 0.76656 0.60178 0.0
C721 C 0.37344 0.75533 0.60096 0.0
C722 C 0.31993 0.708 0.59345 0.0
C723 C 0.38007 0.7209 0.59495 0.0
C724 C 0.30276 0.6463 0.588 0.0
C725 C 0.23668 0.66119 0.60413 0.0
N726 N 0.35364 0.69851 0.59159 0.0
N727 N 0.2602 0.68699 0.60059 0.0
H728 H 0.33504 0.79068 0.38397 0.0
H729 H 0.28906 0.59203 0.40439 0.0
H730 H 0.40765 0.70968 0.39997 0.0
H731 H 0.21288 0.66598 0.38158 0.0
H732 H 0.32948 0.63884 0.41187 0.0
H733 H 0.28728 0.74965 0.39118 0.0
C734 C 0.34082 0.76454 0.38955 0.0
C735 C 0.37514 0.75323 0.39109 0.0
C736 C 0.30385 0.64515 0.40549 0.0
C737 C 0.32128 0.70662 0.39934 0.0
C738 C 0.28077 0.61837 0.40128 0.0
C739 C 0.24792 0.6253 0.39214 0.0
C740 C 0.29442 0.67922 0.39988 0.0
C741 C 0.23816 0.65979 0.38862 0.0
C742 C 0.31368 0.74116 0.39354 0.0
C743 C 0.38149 0.71921 0.39824 0.0
N744 N 0.26166 0.68561 0.39203 0.0
N745 N 0.35489 0.69714 0.40192 0.0
H746 H 0.40442 0.28101 0.91205 0.0
H747 H 0.20835 0.33096 0.88499 0.0
H748 H 0.33301 0.20945 0.87986 0.0
H749 H 0.29063 0.40196 0.90171 0.0
H750 H 0.24798 0.28239 0.89304 0.0
H751 H 0.357 0.3208 0.9196 0.0
C752 C 0.37844 0.27344 0.90707 0.0
C753 C 0.37243 0.24222 0.89522 0.0
C754 C 0.25703 0.30864 0.89536 0.0
C755 C 0.31814 0.28812 0.90288 0.0
C756 C 0.23446 0.33622 0.89089 0.0
C757 C 0.24658 0.37029 0.89242 0.0
C758 C 0.29149 0.31555 0.90176 0.0
C759 C 0.28053 0.37599 0.9 0.0
C760 C 0.35138 0.2962 0.91124 0.0
C761 C 0.33845 0.23342 0.8891 0.0
N762 N 0.30178 0.34896 0.90425 0.0
N763 N 0.31248 0.25667 0.89255 0.0
H764 H 0.63775 0.24485 0.42107 0.0
H765 H 0.75372 0.3628 0.34038 0.0
H766 H 0.6577 0.22407 0.3466 0.0
H767 H 0.76957 0.36061 0.4167 0.0
H768 H 0.71991 0.30993 0.34324 0.0
H769 H 0.68773 0.28437 0.42167 0.0
C770 C 0.65349 0.2477 0.40515 0.0
C771 C 0.64409 0.23122 0.38379 0.0
C772 C 0.73113 0.32053 0.35941 0.0
C773 C 0.7 0.27671 0.38407 0.0
C774 C 0.75032 0.35076 0.35775 0.0
C775 C 0.76426 0.36583 0.37833 0.0
C776 C 0.72487 0.30571 0.38195 0.0
C777 C 0.75923 0.34944 0.40045 0.0
C778 C 0.68179 0.27031 0.40543 0.0
C779 C 0.66447 0.23624 0.36342 0.0
N780 N 0.73926 0.32045 0.40179 0.0
N781 N 0.69118 0.25888 0.36396 0.0
H782 H 0.76913 0.64153 0.91626 0.0
H783 H 0.62461 0.73675 0.84151 0.0
H784 H 0.75673 0.6346 0.83976 0.0
H785 H 0.65083 0.77326 0.91213 0.0
H786 H 0.67514 0.70019 0.84167 0.0
H787 H 0.72933 0.69149 0.9166 0.0
C788 C 0.75881 0.6512 0.89954 0.0
C789 C 0.76577 0.63404 0.87795 0.0
C790 C 0.67033 0.7163 0.85716 0.0
C791 C 0.72054 0.69013 0.87819 0.0
C792 C 0.64126 0.73709 0.8571 0.0
C793 C 0.63348 0.75777 0.8769 0.0
C794 C 0.69174 0.71538 0.87742 0.0
C795 C 0.65612 0.75755 0.89653 0.0
C796 C 0.73608 0.67948 0.89973 0.0
C797 C 0.75165 0.64703 0.85678 0.0
N798 N 0.68413 0.73611 0.8965 0.0
N799 N 0.72955 0.67401 0.85747 0.0
loop_
_geom_bond_atom_site_label_1
_geom_bond_atom_site_label_2
_geom_bond_distance
_geom_bond_site_symmetry_2
_ccdc_geom_bond_type
Co0 O1 2.216 . S
Co0 O2 2.091 . S
Co0 O4 2.004 . S
Co0 O10 2.021 . S
Co0 O12 2.137 . S
Co0 O13 2.244 . S
O1 Co0 2.216 . S
O1 C8 1.247 . S
O2 Co0 2.091 . S
O2 C8 1.261 . S
C3 O12 1.247 . S
C3 O13 1.272 . S
O4 Co0 2.004 . S
O4 C9 1.259 . S
Co5 O6 2.061 . S
Co5 O11 2.052 . S
Co5 O13 2.135 . S
O6 Co5 2.061 . S
O6 C9 1.235 . S
C7 O10 1.238 . S
C7 O11 1.241 . S
C8 O1 1.247 . S
C8 O2 1.261 . S
C9 O4 1.259 . S
C9 O6 1.235 . S
O10 Co0 2.021 . S
O10 C7 1.238 . S
O11 Co5 2.052 . S
O11 C7 1.241 . S
O12 Co0 2.137 . S
O12 C3 1.247 . S
O13 Co0 2.244 . S
O13 C3 1.272 . S
O13 Co5 2.135 . S
Co14 O15 2.216 . S
Co14 O16 2.091 . S
Co14 O18 2.004 . S
Co14 O24 2.021 . S
Co14 O26 2.137 . S
Co14 O27 2.244 . S
O15 Co14 2.216 . S
O15 C22 1.247 . S
O16 Co14 2.091 . S
O16 C22 1.261 . S
C17 O26 1.247 . S
C17 O27 1.272 . S
O18 Co14 2.004 . S
O18 C23 1.259 . S
Co19 O20 2.061 . S
Co19 O25 2.052 . S
Co19 O27 2.135 . S
O20 Co19 2.061 . S
O20 C23 1.235 . S
C21 O24 1.238 . S
C21 O25 1.241 . S
C22 O15 1.247 . S
C22 O16 1.261 . S
C23 O18 1.259 . S
C23 O20 1.235 . S
O24 Co14 2.021 . S
O24 C21 1.238 . S
O25 Co19 2.052 . S
O25 C21 1.241 . S
O26 Co14 2.137 . S
O26 C17 1.247 . S
O27 Co14 2.244 . S
O27 C17 1.272 . S
O27 Co19 2.135 . S
Co28 O29 2.216 . S
Co28 O30 2.091 . S
Co28 O32 2.004 . S
Co28 O38 2.021 . S
Co28 O40 2.137 . S
Co28 O41 2.244 . S
O29 Co28 2.216 . S
O29 C36 1.247 . S
O30 Co28 2.091 . S
O30 C36 1.261 . S
C31 O40 1.247 . S
C31 O41 1.272 . S
O32 Co28 2.004 . S
O32 C37 1.259 . S
Co33 O34 2.061 . S
Co33 O39 2.052 . S
Co33 O41 2.135 . S
O34 Co33 2.061 . S
O34 C37 1.235 . S
C35 O38 1.238 . S
C35 O39 1.241 . S
C36 O29 1.247 . S
C36 O30 1.261 . S
C37 O32 1.259 . S
C37 O34 1.235 . S
O38 Co28 2.021 . S
O38 C35 1.238 . S
O39 Co33 2.052 . S
O39 C35 1.241 . S
O40 Co28 2.137 . S
O40 C31 1.247 . S
O41 Co28 2.244 . S
O41 C31 1.272 . S
O41 Co33 2.135 . S
Co42 O43 2.216 . S
Co42 O44 2.091 . S
Co42 O46 2.004 . S
Co42 O52 2.021 . S
Co42 O54 2.137 . S
Co42 O55 2.244 . S
O43 Co42 2.216 . S
O43 C50 1.247 . S
O44 Co42 2.091 . S
O44 C50 1.261 . S
C45 O54 1.247 . S
C45 O55 1.272 . S
O46 Co42 2.004 . S
O46 C51 1.259 . S
Co47 O48 2.061 . S
Co47 O53 2.052 . S
Co47 O55 2.135 . S
O48 Co47 2.061 . S
O48 C51 1.235 . S
C49 O52 1.238 . S
C49 O53 1.241 . S
C50 O43 1.247 . S
C50 O44 1.261 . S
C51 O46 1.259 . S
C51 O48 1.235 . S
O52 Co42 2.021 . S
O52 C49 1.238 . S
O53 Co47 2.052 . S
O53 C49 1.241 . S
O54 Co42 2.137 . S
O54 C45 1.247 . S
O55 Co42 2.244 . S
O55 C45 1.272 . S
O55 Co47 2.135 . S
Co56 O57 2.216 . S
Co56 O58 2.091 . S
Co56 O60 2.004 . S
Co56 O66 2.021 . S
Co56 O68 2.137 . S
Co56 O69 2.244 . S
O57 Co56 2.216 . S
O57 C64 1.247 . S
O58 Co56 2.091 . S
O58 C64 1.261 . S
C59 O68 1.247 . S
C59 O69 1.272 . S
O60 Co56 2.004 . S
O60 C65 1.259 . S
Co61 O62 2.061 . S
Co61 O67 2.052 . S
Co61 O69 2.135 . S
O62 Co61 2.061 . S
O62 C65 1.235 . S
C63 O66 1.238 . S
C63 O67 1.241 . S
C64 O57 1.247 . S
C64 O58 1.261 . S
C65 O60 1.259 . S
C65 O62 1.235 . S
O66 Co56 2.021 . S
O66 C63 1.238 . S
O67 Co61 2.052 . S
O67 C63 1.241 . S
O68 Co56 2.137 . S
O68 C59 1.247 . S
O69 Co56 2.244 . S
O69 C59 1.272 . S
O69 Co61 2.135 . S
Co70 O71 2.216 . S
Co70 O72 2.091 . S
Co70 O74 2.004 . S
Co70 O80 2.021 . S
Co70 O82 2.137 . S
Co70 O83 2.244 . S
O71 Co70 2.216 . S
O71 C78 1.247 . S
O72 Co70 2.091 . S
O72 C78 1.261 . S
C73 O82 1.247 . S
C73 O83 1.272 . S
O74 Co70 2.004 . S
O74 C79 1.259 . S
Co75 O76 2.061 . S
Co75 O81 2.052 . S
Co75 O83 2.135 . S
O76 Co75 2.061 . S
O76 C79 1.235 . S
C77 O80 1.238 . S
C77 O81 1.241 . S
C78 O71 1.247 . S
C78 O72 1.261 . S
C79 O74 1.259 . S
C79 O76 1.235 . S
O80 Co70 2.021 . S
O80 C77 1.238 . S
O81 Co75 2.052 . S
O81 C77 1.241 . S
O82 Co70 2.137 . S
O82 C73 1.247 . S
O83 Co70 2.244 . S
O83 C73 1.272 . S
O83 Co75 2.135 . S
Co84 O85 2.216 . S
Co84 O86 2.091 . S
Co84 O88 2.004 . S
Co84 O94 2.021 . S
Co84 O96 2.137 . S
Co84 O97 2.244 . S
O85 Co84 2.216 . S
O85 C92 1.247 . S
O86 Co84 2.091 . S
O86 C92 1.261 . S
C87 O96 1.247 . S
C87 O97 1.272 . S
O88 Co84 2.004 . S
O88 C93 1.259 . S
Co89 O90 2.061 . S
Co89 O95 2.052 . S
Co89 O97 2.135 . S
O90 Co89 2.061 . S
O90 C93 1.235 . S
C91 O94 1.238 . S
C91 O95 1.241 . S
C92 O85 1.247 . S
C92 O86 1.261 . S
C93 O88 1.259 . S
C93 O90 1.235 . S
O94 Co84 2.021 . S
O94 C91 1.238 . S
O95 Co89 2.052 . S
O95 C91 1.241 . S
O96 Co84 2.137 . S
O96 C87 1.247 . S
O97 Co84 2.244 . S
O97 C87 1.272 . S
O97 Co89 2.135 . S
Co98 O99 2.216 . S
Co98 O100 2.091 . S
Co98 O102 2.004 . S
Co98 O108 2.021 . S
Co98 O110 2.137 . S
Co98 O111 2.244 . S
O99 Co98 2.216 . S
O99 C106 1.247 . S
O100 Co98 2.091 . S
O100 C106 1.261 . S
C101 O110 1.247 . S
C101 O111 1.272 . S
O102 Co98 2.004 . S
O102 C107 1.259 . S
Co103 O104 2.061 . S
Co103 O109 2.052 . S
Co103 O111 2.135 . S
O104 Co103 2.061 . S
O104 C107 1.235 . S
C105 O108 1.238 . S
C105 O109 1.241 . S
C106 O99 1.247 . S
C106 O100 1.261 . S
C107 O102 1.259 . S
C107 O104 1.235 . S
O108 Co98 2.021 . S
O108 C105 1.238 . S
O109 Co103 2.052 . S
O109 C105 1.241 . S
O110 Co98 2.137 . S
O110 C101 1.247 . S
O111 Co98 2.244 . S
O111 C101 1.272 . S
O111 Co103 2.135 . S
Co112 O113 2.216 . S
Co112 O114 2.091 . S
Co112 O116 2.004 . S
Co112 O122 2.021 . S
Co112 O124 2.137 . S
Co112 O125 2.244 . S
O113 Co112 2.216 . S
O113 C120 1.247 . S
O114 Co112 2.091 . S
O114 C120 1.261 . S
C115 O124 1.247 . S
C115 O125 1.272 . S
O116 Co112 2.004 . S
O116 C121 1.259 . S
Co117 O118 2.061 . S
Co117 O123 2.052 . S
Co117 O125 2.135 . S
O118 Co117 2.061 . S
O118 C121 1.235 . S
C119 O122 1.238 . S
C119 O123 1.241 . S
C120 O113 1.247 . S
C120 O114 1.261 . S
C121 O116 1.259 . S
C121 O118 1.235 . S
O122 Co112 2.021 . S
O122 C119 1.238 . S
O123 Co117 2.052 . S
O123 C119 1.241 . S
O124 Co112 2.137 . S
O124 C115 1.247 . S
O125 Co112 2.244 . S
O125 C115 1.272 . S
O125 Co117 2.135 . S
Co126 O127 2.216 . S
Co126 O128 2.091 . S
Co126 O130 2.004 . S
Co126 O136 2.021 . S
Co126 O138 2.137 . S
Co126 O139 2.244 . S
O127 Co126 2.216 . S
O127 C134 1.247 . S
O128 Co126 2.091 . S
O128 C134 1.261 . S
C129 O138 1.247 . S
C129 O139 1.272 . S
O130 Co126 2.004 . S
O130 C135 1.259 . S
Co131 O132 2.061 . S
Co131 O137 2.052 . S
Co131 O139 2.135 . S
O132 Co131 2.061 . S
O132 C135 1.235 . S
C133 O136 1.238 . S
C133 O137 1.241 . S
C134 O127 1.247 . S
C134 O128 1.261 . S
C135 O130 1.259 . S
C135 O132 1.235 . S
O136 Co126 2.021 . S
O136 C133 1.238 . S
O137 Co131 2.052 . S
O137 C133 1.241 . S
O138 Co126 2.137 . S
O138 C129 1.247 . S
O139 Co126 2.244 . S
O139 C129 1.272 . S
O139 Co131 2.135 . S
Co140 O141 2.216 . S
Co140 O142 2.091 . S
Co140 O144 2.004 . S
Co140 O150 2.021 . S
Co140 O152 2.137 . S
Co140 O153 2.244 . S
O141 Co140 2.216 . S
O141 C148 1.247 . S
O142 Co140 2.091 . S
O142 C148 1.261 . S
C143 O152 1.247 . S
C143 O153 1.272 . S
O144 Co140 2.004 . S
O144 C149 1.259 . S
Co145 O146 2.061 . S
Co145 O151 2.052 . S
Co145 O153 2.135 . S
O146 Co145 2.061 . S
O146 C149 1.235 . S
C147 O150 1.238 . S
C147 O151 1.241 . S
C148 O141 1.247 . S
C148 O142 1.261 . S
C149 O144 1.259 . S
C149 O146 1.235 . S
O150 Co140 2.021 . S
O150 C147 1.238 . S
O151 Co145 2.052 . S
O151 C147 1.241 . S
O152 Co140 2.137 . S
O152 C143 1.247 . S
O153 Co140 2.244 . S
O153 C143 1.272 . S
O153 Co145 2.135 . S
Co154 O155 2.216 . S
Co154 O156 2.091 . S
Co154 O158 2.004 . S
Co154 O164 2.021 . S
Co154 O166 2.137 . S
Co154 O167 2.244 . S
O155 Co154 2.216 . S
O155 C162 1.247 . S
O156 Co154 2.091 . S
O156 C162 1.261 . S
C157 O166 1.247 . S
C157 O167 1.272 . S
O158 Co154 2.004 . S
O158 C163 1.259 . S
Co159 O160 2.061 . S
Co159 O165 2.052 . S
Co159 O167 2.135 . S
O160 Co159 2.061 . S
O160 C163 1.235 . S
C161 O164 1.238 . S
C161 O165 1.241 . S
C162 O155 1.247 . S
C162 O156 1.261 . S
C163 O158 1.259 . S
C163 O160 1.235 . S
O164 Co154 2.021 . S
O164 C161 1.238 . S
O165 Co159 2.052 . S
O165 C161 1.241 . S
O166 Co154 2.137 . S
O166 C157 1.247 . S
O167 Co154 2.244 . S
O167 C157 1.272 . S
O167 Co159 2.135 . S
Co168 O169 2.216 . S
Co168 O170 2.091 . S
Co168 O172 2.004 . S
Co168 O178 2.021 . S
Co168 O180 2.137 . S
Co168 O181 2.244 . S
O169 Co168 2.216 . S
O169 C176 1.247 . S
O170 Co168 2.091 . S
O170 C176 1.261 . S
C171 O180 1.247 . S
C171 O181 1.272 . S
O172 Co168 2.004 . S
O172 C177 1.259 . S
Co173 O174 2.061 . S
Co173 O179 2.052 . S
Co173 O181 2.135 . S
O174 Co173 2.061 . S
O174 C177 1.235 . S
C175 O178 1.238 . S
C175 O179 1.241 . S
C176 O169 1.247 . S
C176 O170 1.261 . S
C177 O172 1.259 . S
C177 O174 1.235 . S
O178 Co168 2.021 . S
O178 C175 1.238 . S
O179 Co173 2.052 . S
O179 C175 1.241 . S
O180 Co168 2.137 . S
O180 C171 1.247 . S
O181 Co168 2.244 . S
O181 C171 1.272 . S
O181 Co173 2.135 . S
Co182 O183 2.216 . S
Co182 O184 2.091 . S
Co182 O186 2.004 . S
Co182 O192 2.021 . S
Co182 O194 2.137 . S
Co182 O195 2.244 . S
O183 Co182 2.216 . S
O183 C190 1.247 . S
O184 Co182 2.091 . S
O184 C190 1.261 . S
C185 O194 1.247 . S
C185 O195 1.272 . S
O186 Co182 2.004 . S
O186 C191 1.259 . S
Co187 O188 2.061 . S
Co187 O193 2.052 . S
Co187 O195 2.135 . S
O188 Co187 2.061 . S
O188 C191 1.235 . S
C189 O192 1.238 . S
C189 O193 1.241 . S
C190 O183 1.247 . S
C190 O184 1.261 . S
C191 O186 1.259 . S
C191 O188 1.235 . S
O192 Co182 2.021 . S
O192 C189 1.238 . S
O193 Co187 2.052 . S
O193 C189 1.241 . S
O194 Co182 2.137 . S
O194 C185 1.247 . S
O195 Co182 2.244 . S
O195 C185 1.272 . S
O195 Co187 2.135 . S
Co196 O197 2.216 . S
Co196 O198 2.091 . S
Co196 O200 2.004 . S
Co196 O206 2.021 . S
Co196 O208 2.137 . S
Co196 O209 2.244 . S
O197 Co196 2.216 . S
O197 C204 1.247 . S
O198 Co196 2.091 . S
O198 C204 1.261 . S
C199 O208 1.247 . S
C199 O209 1.272 . S
O200 Co196 2.004 . S
O200 C205 1.259 . S
Co201 O202 2.061 . S
Co201 O207 2.052 . S
Co201 O209 2.135 . S
O202 Co201 2.061 . S
O202 C205 1.235 . S
C203 O206 1.238 . S
C203 O207 1.241 . S
C204 O197 1.247 . S
C204 O198 1.261 . S
C205 O200 1.259 . S
C205 O202 1.235 . S
O206 Co196 2.021 . S
O206 C203 1.238 . S
O207 Co201 2.052 . S
O207 C203 1.241 . S
O208 Co196 2.137 . S
O208 C199 1.247 . S
O209 Co196 2.244 . S
O209 C199 1.272 . S
O209 Co201 2.135 . S
Co210 O211 2.216 . S
Co210 O212 2.091 . S
Co210 O214 2.004 . S
Co210 O220 2.021 . S
Co210 O222 2.137 . S
Co210 O223 2.244 . S
O211 Co210 2.216 . S
O211 C218 1.247 . S
O212 Co210 2.091 . S
O212 C218 1.261 . S
C213 O222 1.247 . S
C213 O223 1.272 . S
O214 Co210 2.004 . S
O214 C219 1.259 . S
Co215 O216 2.061 . S
Co215 O221 2.052 . S
Co215 O223 2.135 . S
O216 Co215 2.061 . S
O216 C219 1.235 . S
C217 O220 1.238 . S
C217 O221 1.241 . S
C218 O211 1.247 . S
C218 O212 1.261 . S
C219 O214 1.259 . S
C219 O216 1.235 . S
O220 Co210 2.021 . S
O220 C217 1.238 . S
O221 Co215 2.052 . S
O221 C217 1.241 . S
O222 Co210 2.137 . S
O222 C213 1.247 . S
O223 Co210 2.244 . S
O223 C213 1.272 . S
O223 Co215 2.135 . S
H224 C230 0.930 . S
H225 C234 0.930 . S
H226 C239 0.929 . S
H227 C237 0.929 . S
H228 C232 0.929 . S
H229 C238 0.929 . S
C230 H224 0.930 . S
C230 C231 1.367 . S
C230 C238 1.378 . S
C231 C230 1.367 . S
C231 C239 1.433 . S
C232 H228 0.929 . S
C232 C234 1.378 . S
C232 C236 1.350 . S
C233 C236 1.463 1_455 S
C233 C238 1.350 . S
C233 N241 1.427 . S
C234 H225 0.930 . S
C234 C232 1.378 . S
C234 C235 1.367 . S
C235 C234 1.367 . S
C235 C237 1.433 . S
C236 C232 1.350 . S
C236 C233 1.463 1_655 S
C236 N240 1.427 . S
C237 H227 0.929 . S
C237 C235 1.433 . S
C237 N240 1.384 . S
C238 H229 0.929 . S
C238 C230 1.378 . S
C238 C233 1.350 . S
C239 H226 0.929 . S
C239 C231 1.433 . S
C239 N241 1.384 . S
N240 C236 1.427 . S
N240 C237 1.384 . S
N241 C233 1.427 . S
N241 C239 1.384 . S
H242 C248 0.930 . S
H243 C252 0.930 . S
H244 C257 0.929 . S
H245 C255 0.929 . S
H246 C250 0.929 . S
H247 C256 0.929 . S
C248 H242 0.930 . S
C248 C249 1.367 . S
C248 C256 1.378 . S
C249 C248 1.367 . S
C249 C257 1.433 . S
C250 H246 0.929 . S
C250 C252 1.378 . S
C250 C254 1.350 . S
C251 C254 1.463 1_565 S
C251 C256 1.350 . S
C251 N259 1.427 . S
C252 H243 0.930 . S
C252 C250 1.378 . S
C252 C253 1.367 . S
C253 C252 1.367 . S
C253 C255 1.433 . S
C254 C250 1.350 . S
C254 C251 1.463 1_545 S
C254 N258 1.427 . S
C255 H245 0.929 . S
C255 C253 1.433 . S
C255 N258 1.384 . S
C256 H247 0.929 . S
C256 C248 1.378 . S
C256 C251 1.350 . S
C257 H244 0.929 . S
C257 C249 1.433 . S
C257 N259 1.384 . S
N258 C254 1.427 . S
N258 C255 1.384 . S
N259 C251 1.427 . S
N259 C257 1.384 . S
H260 C266 0.930 . S
H261 C270 0.930 . S
H262 C275 0.929 . S
H263 C273 0.929 . S
H264 C268 0.929 . S
H265 C274 0.929 . S
C266 H260 0.930 . S
C266 C267 1.367 . S
C266 C274 1.378 . S
C267 C266 1.367 . S
C267 C275 1.433 . S
C268 H264 0.929 . S
C268 C270 1.378 . S
C268 C272 1.350 . S
C269 C272 1.463 1_455 S
C269 C274 1.350 . S
C269 N277 1.427 . S
C270 H261 0.930 . S
C270 C268 1.378 . S
C270 C271 1.367 . S
C271 C270 1.367 . S
C271 C273 1.433 . S
C272 C268 1.350 . S
C272 C269 1.463 1_655 S
C272 N276 1.427 . S
C273 H263 0.929 . S
C273 C271 1.433 . S
C273 N276 1.384 . S
C274 H265 0.929 . S
C274 C266 1.378 . S
C274 C269 1.350 . S
C275 H262 0.929 . S
C275 C267 1.433 . S
C275 N277 1.384 . S
N276 C272 1.427 . S
N276 C273 1.384 . S
N277 C269 1.427 . S
N277 C275 1.384 . S
H278 C284 0.930 . S
H279 C288 0.930 . S
H280 C293 0.929 . S
H281 C291 0.929 . S
H282 C286 0.929 . S
H283 C292 0.929 . S
C284 H278 0.930 . S
C284 C285 1.367 . S
C284 C292 1.378 . S
C285 C284 1.367 . S
C285 C293 1.433 . S
C286 H282 0.929 . S
C286 C288 1.378 . S
C286 C290 1.350 . S
C287 C290 1.463 1_565 S
C287 C292 1.350 . S
C287 N295 1.427 . S
C288 H279 0.930 . S
C288 C286 1.378 . S
C288 C289 1.367 . S
C289 C288 1.367 . S
C289 C291 1.433 . S
C290 C286 1.350 . S
C290 C287 1.463 1_545 S
C290 N294 1.427 . S
C291 H281 0.929 . S
C291 C289 1.433 . S
C291 N294 1.384 . S
C292 H283 0.929 . S
C292 C284 1.378 . S
C292 C287 1.350 . S
C293 H280 0.929 . S
C293 C285 1.433 . S
C293 N295 1.384 . S
N294 C290 1.427 . S
N294 C291 1.384 . S
N295 C287 1.427 . S
N295 C293 1.384 . S
H296 C302 0.930 . S
H297 C306 0.930 . S
H298 C311 0.929 . S
H299 C309 0.929 . S
H300 C304 0.929 . S
H301 C310 0.929 . S
C302 H296 0.930 . S
C302 C303 1.367 . S
C302 C310 1.378 . S
C303 C302 1.367 . S
C303 C311 1.433 . S
C304 H300 0.929 . S
C304 C306 1.378 . S
C304 C308 1.350 . S
C305 C308 1.463 1_655 S
C305 C310 1.350 . S
C305 N313 1.427 . S
C306 H297 0.930 . S
C306 C304 1.378 . S
C306 C307 1.367 . S
C307 C306 1.367 . S
C307 C309 1.433 . S
C308 C304 1.350 . S
C308 C305 1.463 1_455 S
C308 N312 1.427 . S
C309 H299 0.929 . S
C309 C307 1.433 . S
C309 N312 1.384 . S
C310 H301 0.929 . S
C310 C302 1.378 . S
C310 C305 1.350 . S
C311 H298 0.929 . S
C311 C303 1.433 . S
C311 N313 1.384 . S
N312 C308 1.427 . S
N312 C309 1.384 . S
N313 C305 1.427 . S
N313 C311 1.384 . S
H314 C320 0.930 . S
H315 C324 0.930 . S
H316 C329 0.929 . S
H317 C327 0.929 . S
H318 C322 0.929 . S
H319 C328 0.929 . S
C320 H314 0.930 . S
C320 C321 1.367 . S
C320 C328 1.378 . S
C321 C320 1.367 . S
C321 C329 1.433 . S
C322 H318 0.929 . S
C322 C324 1.378 . S
C322 C326 1.350 . S
C323 C326 1.463 1_545 S
C323 C328 1.350 . S
C323 N331 1.427 . S
C324 H315 0.930 . S
C324 C322 1.378 . S
C324 C325 1.367 . S
C325 C324 1.367 . S
C325 C327 1.433 . S
C326 C322 1.350 . S
C326 C323 1.463 1_565 S
C326 N330 1.427 . S
C327 H317 0.929 . S
C327 C325 1.433 . S
C327 N330 1.384 . S
C328 H319 0.929 . S
C328 C320 1.378 . S
C328 C323 1.350 . S
C329 H316 0.929 . S
C329 C321 1.433 . S
C329 N331 1.384 . S
N330 C326 1.427 . S
N330 C327 1.384 . S
N331 C323 1.427 . S
N331 C329 1.384 . S
H332 C338 0.930 . S
H333 C342 0.930 . S
H334 C347 0.929 . S
H335 C345 0.929 . S
H336 C340 0.929 . S
H337 C346 0.929 . S
C338 H332 0.930 . S
C338 C339 1.367 . S
C338 C346 1.378 . S
C339 C338 1.367 . S
C339 C347 1.433 . S
C340 H336 0.929 . S
C340 C342 1.378 . S
C340 C344 1.350 . S
C341 C344 1.463 1_655 S
C341 C346 1.350 . S
C341 N349 1.427 . S
C342 H333 0.930 . S
C342 C340 1.378 . S
C342 C343 1.367 . S
C343 C342 1.367 . S
C343 C345 1.433 . S
C344 C340 1.350 . S
C344 C341 1.463 1_455 S
C344 N348 1.427 . S
C345 H335 0.929 . S
C345 C343 1.433 . S
C345 N348 1.384 . S
C346 H337 0.929 . S
C346 C338 1.378 . S
C346 C341 1.350 . S
C347 H334 0.929 . S
C347 C339 1.433 . S
C347 N349 1.384 . S
N348 C344 1.427 . S
N348 C345 1.384 . S
N349 C341 1.427 . S
N349 C347 1.384 . S
H350 C356 0.930 . S
H351 C360 0.930 . S
H352 C365 0.929 . S
H353 C363 0.929 . S
H354 C358 0.929 . S
H355 C364 0.929 . S
C356 H350 0.930 . S
C356 C357 1.367 . S
C356 C364 1.378 . S
C357 C356 1.367 . S
C357 C365 1.433 . S
C358 H354 0.929 . S
C358 C360 1.378 . S
C358 C362 1.350 . S
C359 C362 1.463 1_545 S
C359 C364 1.350 . S
C359 N367 1.427 . S
C360 H351 0.930 . S
C360 C358 1.378 . S
C360 C361 1.367 . S
C361 C360 1.367 . S
C361 C363 1.433 . S
C362 C358 1.350 . S
C362 C359 1.463 1_565 S
C362 N366 1.427 . S
C363 H353 0.929 . S
C363 C361 1.433 . S
C363 N366 1.384 . S
C364 H355 0.929 . S
C364 C356 1.378 . S
C364 C359 1.350 . S
C365 H352 0.929 . S
C365 C357 1.433 . S
C365 N367 1.384 . S
N366 C362 1.427 . S
N366 C363 1.384 . S
N367 C359 1.427 . S
N367 C365 1.384 . S
H368 C374 0.930 . S
H369 C378 0.930 . S
H370 C383 0.929 . S
H371 C381 0.929 . S
H372 C376 0.929 . S
H373 C382 0.929 . S
C374 H368 0.930 . S
C374 C375 1.367 . S
C374 C382 1.378 . S
C375 C374 1.367 . S
C375 C383 1.433 . S
C376 H372 0.929 . S
C376 C378 1.378 . S
C376 C380 1.350 . S
C377 C380 1.463 . S
C377 C382 1.350 . S
C377 N385 1.427 . S
C378 H369 0.930 . S
C378 C376 1.378 . S
C378 C379 1.367 . S
C379 C378 1.367 . S
C379 C381 1.433 . S
C380 C376 1.350 . S
C380 C377 1.463 . S
C380 N384 1.427 . S
C381 H371 0.929 . S
C381 C379 1.433 . S
C381 N384 1.384 . S
C382 H373 0.929 . S
C382 C374 1.378 . S
C382 C377 1.350 . S
C383 H370 0.929 . S
C383 C375 1.433 . S
C383 N385 1.384 . S
N384 C380 1.427 . S
N384 C381 1.384 . S
N385 C377 1.427 . S
N385 C383 1.384 . S
H386 C392 0.930 . S
H387 C396 0.930 . S
H388 C401 0.929 . S
H389 C399 0.929 . S
H390 C394 0.929 . S
H391 C400 0.929 . S
C392 H386 0.930 . S
C392 C393 1.367 . S
C392 C400 1.378 . S
C393 C392 1.367 . S
C393 C401 1.433 . S
C394 H390 0.929 . S
C394 C396 1.378 . S
C394 C398 1.350 . S
C395 C398 1.463 . S
C395 C400 1.350 . S
C395 N403 1.427 . S
C396 H387 0.930 . S
C396 C394 1.378 . S
C396 C397 1.367 . S
C397 C396 1.367 . S
C397 C399 1.433 . S
C398 C394 1.350 . S
C398 C395 1.463 . S
C398 N402 1.427 . S
C399 H389 0.929 . S
C399 C397 1.433 . S
C399 N402 1.384 . S
C400 H391 0.929 . S
C400 C392 1.378 . S
C400 C395 1.350 . S
C401 H388 0.929 . S
C401 C393 1.433 . S
C401 N403 1.384 . S
N402 C398 1.427 . S
N402 C399 1.384 . S
N403 C395 1.427 . S
N403 C401 1.384 . S
H404 C410 0.930 . S
H405 C414 0.930 . S
H406 C419 0.929 . S
H407 C417 0.929 . S
H408 C412 0.929 . S
H409 C418 0.929 . S
C410 H404 0.930 . S
C410 C411 1.367 . S
C410 C418 1.378 . S
C411 C410 1.367 . S
C411 C419 1.433 . S
C412 H408 0.929 . S
C412 C414 1.378 . S
C412 C416 1.350 . S
C413 C416 1.463 . S
C413 C418 1.350 . S
C413 N421 1.427 . S
C414 H405 0.930 . S
C414 C412 1.378 . S
C414 C415 1.367 . S
C415 C414 1.367 . S
C415 C417 1.433 . S
C416 C412 1.350 . S
C416 C413 1.463 . S
C416 N420 1.427 . S
C417 H407 0.929 . S
C417 C415 1.433 . S
C417 N420 1.384 . S
C418 H409 0.929 . S
C418 C410 1.378 . S
C418 C413 1.350 . S
C419 H406 0.929 . S
C419 C411 1.433 . S
C419 N421 1.384 . S
N420 C416 1.427 . S
N420 C417 1.384 . S
N421 C413 1.427 . S
N421 C419 1.384 . S
H422 C428 0.930 . S
H423 C432 0.930 . S
H424 C437 0.929 . S
H425 C435 0.929 . S
H426 C430 0.929 . S
H427 C436 0.929 . S
C428 H422 0.930 . S
C428 C429 1.367 . S
C428 C436 1.378 . S
C429 C428 1.367 . S
C429 C437 1.433 . S
C430 H426 0.929 . S
C430 C432 1.378 . S
C430 C434 1.350 . S
C431 C434 1.463 . S
C431 C436 1.350 . S
C431 N439 1.427 . S
C432 H423 0.930 . S
C432 C430 1.378 . S
C432 C433 1.367 . S
C433 C432 1.367 . S
C433 C435 1.433 . S
C434 C430 1.350 . S
C434 C431 1.463 . S
C434 N438 1.427 . S
C435 H425 0.929 . S
C435 C433 1.433 . S
C435 N438 1.384 . S
C436 H427 0.929 . S
C436 C428 1.378 . S
C436 C431 1.350 . S
C437 H424 0.929 . S
C437 C429 1.433 . S
C437 N439 1.384 . S
N438 C434 1.427 . S
N438 C435 1.384 . S
N439 C431 1.427 . S
N439 C437 1.384 . S
H440 C446 0.930 . S
H441 C450 0.930 . S
H442 C455 0.929 . S
H443 C453 0.929 . S
H444 C448 0.929 . S
H445 C454 0.929 . S
C446 H440 0.930 . S
C446 C447 1.367 . S
C446 C454 1.378 . S
C447 C446 1.367 . S
C447 C455 1.433 . S
C448 H444 0.929 . S
C448 C450 1.378 . S
C448 C452 1.350 . S
C449 C452 1.463 . S
C449 C454 1.350 . S
C449 N457 1.427 . S
C450 H441 0.930 . S
C450 C448 1.378 . S
C450 C451 1.367 . S
C451 C450 1.367 . S
C451 C453 1.433 . S
C452 C448 1.350 . S
C452 C449 1.463 . S
C452 N456 1.427 . S
C453 H443 0.929 . S
C453 C451 1.433 . S
C453 N456 1.384 . S
C454 H445 0.929 . S
C454 C446 1.378 . S
C454 C449 1.350 . S
C455 H442 0.929 . S
C455 C447 1.433 . S
C455 N457 1.384 . S
N456 C452 1.427 . S
N456 C453 1.384 . S
N457 C449 1.427 . S
N457 C455 1.384 . S
H458 C464 0.930 . S
H459 C468 0.930 . S
H460 C473 0.929 . S
H461 C471 0.929 . S
H462 C466 0.929 . S
H463 C472 0.929 . S
C464 H458 0.930 . S
C464 C465 1.367 . S
C464 C472 1.378 . S
C465 C464 1.367 . S
C465 C473 1.433 . S
C466 H462 0.929 . S
C466 C468 1.378 . S
C466 C470 1.350 . S
C467 C470 1.463 . S
C467 C472 1.350 . S
C467 N475 1.427 . S
C468 H459 0.930 . S
C468 C466 1.378 . S
C468 C469 1.367 . S
C469 C468 1.367 . S
C469 C471 1.433 . S
C470 C466 1.350 . S
C470 C467 1.463 . S
C470 N474 1.427 . S
C471 H461 0.929 . S
C471 C469 1.433 . S
C471 N474 1.384 . S
C472 H463 0.929 . S
C472 C464 1.378 . S
C472 C467 1.350 . S
C473 H460 0.929 . S
C473 C465 1.433 . S
C473 N475 1.384 . S
N474 C470 1.427 . S
N474 C471 1.384 . S
N475 C467 1.427 . S
N475 C473 1.384 . S
H476 C482 0.930 . S
H477 C486 0.930 . S
H478 C491 0.929 . S
H479 C489 0.929 . S
H480 C484 0.929 . S
H481 C490 0.929 . S
C482 H476 0.930 . S
C482 C483 1.367 . S
C482 C490 1.378 . S
C483 C482 1.367 . S
C483 C491 1.433 . S
C484 H480 0.929 . S
C484 C486 1.378 . S
C484 C488 1.350 . S
C485 C488 1.463 . S
C485 C490 1.350 . S
C485 N493 1.427 . S
C486 H477 0.930 . S
C486 C484 1.378 . S
C486 C487 1.367 . S
C487 C486 1.367 . S
C487 C489 1.433 . S
C488 C484 1.350 . S
C488 C485 1.463 . S
C488 N492 1.427 . S
C489 H479 0.929 . S
C489 C487 1.433 . S
C489 N492 1.384 . S
C490 H481 0.929 . S
C490 C482 1.378 . S
C490 C485 1.350 . S
C491 H478 0.929 . S
C491 C483 1.433 . S
C491 N493 1.384 . S
N492 C488 1.427 . S
N492 C489 1.384 . S
N493 C485 1.427 . S
N493 C491 1.384 . S
H494 C500 0.930 . S
H495 C504 0.930 . S
H496 C509 0.929 . S
H497 C507 0.929 . S
H498 C502 0.929 . S
H499 C508 0.929 . S
C500 H494 0.930 . S
C500 C501 1.367 . S
C500 C508 1.378 . S
C501 C500 1.367 . S
C501 C509 1.433 . S
C502 H498 0.929 . S
C502 C504 1.378 . S
C502 C506 1.350 . S
C503 C506 1.463 . S
C503 C508 1.350 . S
C503 N511 1.427 . S
C504 H495 0.930 . S
C504 C502 1.378 . S
C504 C505 1.367 . S
C505 C504 1.367 . S
C505 C507 1.433 . S
C506 C502 1.350 . S
C506 C503 1.463 . S
C506 N510 1.427 . S
C507 H497 0.929 . S
C507 C505 1.433 . S
C507 N510 1.384 . S
C508 H499 0.929 . S
C508 C500 1.378 . S
C508 C503 1.350 . S
C509 H496 0.929 . S
C509 C501 1.433 . S
C509 N511 1.384 . S
N510 C506 1.427 . S
N510 C507 1.384 . S
N511 C503 1.427 . S
N511 C509 1.384 . S
H512 C518 0.930 . S
H513 C522 0.930 . S
H514 C527 0.929 . S
H515 C525 0.929 . S
H516 C520 0.929 . S
H517 C526 0.929 . S
C518 H512 0.930 . S
C518 C519 1.367 . S
C518 C526 1.378 . S
C519 C518 1.367 . S
C519 C527 1.433 . S
C520 H516 0.929 . S
C520 C522 1.378 . S
C520 C524 1.350 . S
C521 C524 1.463 1_556 S
C521 C526 1.350 . S
C521 N529 1.427 . S
C522 H513 0.930 . S
C522 C520 1.378 . S
C522 C523 1.367 . S
C523 C522 1.367 . S
C523 C525 1.433 . S
C524 C520 1.350 . S
C524 C521 1.463 1_554 S
C524 N528 1.427 . S
C525 H515 0.929 . S
C525 C523 1.433 . S
C525 N528 1.384 . S
C526 H517 0.929 . S
C526 C518 1.378 . S
C526 C521 1.350 . S
C527 H514 0.929 . S
C527 C519 1.433 . S
C527 N529 1.384 . S
N528 C524 1.427 . S
N528 C525 1.384 . S
N529 C521 1.427 . S
N529 C527 1.384 . S
H530 C536 0.930 . S
H531 C540 0.930 . S
H532 C545 0.929 . S
H533 C543 0.929 . S
H534 C538 0.929 . S
H535 C544 0.929 . S
C536 H530 0.930 . S
C536 C537 1.367 . S
C536 C544 1.378 . S
C537 C536 1.367 . S
C537 C545 1.433 . S
C538 H534 0.929 . S
C538 C540 1.378 . S
C538 C542 1.350 . S
C539 C542 1.463 . S
C539 C544 1.350 . S
C539 N547 1.427 . S
C540 H531 0.930 . S
C540 C538 1.378 . S
C540 C541 1.367 . S
C541 C540 1.367 . S
C541 C543 1.433 . S
C542 C538 1.350 . S
C542 C539 1.463 . S
C542 N546 1.427 . S
C543 H533 0.929 . S
C543 C541 1.433 . S
C543 N546 1.384 . S
C544 H535 0.929 . S
C544 C536 1.378 . S
C544 C539 1.350 . S
C545 H532 0.929 . S
C545 C537 1.433 . S
C545 N547 1.384 . S
N546 C542 1.427 . S
N546 C543 1.384 . S
N547 C539 1.427 . S
N547 C545 1.384 . S
H548 C554 0.930 . S
H549 C558 0.930 . S
H550 C563 0.929 . S
H551 C561 0.929 . S
H552 C556 0.929 . S
H553 C562 0.929 . S
C554 H548 0.930 . S
C554 C555 1.367 . S
C554 C562 1.378 . S
C555 C554 1.367 . S
C555 C563 1.433 . S
C556 H552 0.929 . S
C556 C558 1.378 . S
C556 C560 1.350 . S
C557 C560 1.463 1_554 S
C557 C562 1.350 . S
C557 N565 1.427 . S
C558 H549 0.930 . S
C558 C556 1.378 . S
C558 C559 1.367 . S
C559 C558 1.367 . S
C559 C561 1.433 . S
C560 C556 1.350 . S
C560 C557 1.463 1_556 S
C560 N564 1.427 . S
C561 H551 0.929 . S
C561 C559 1.433 . S
C561 N564 1.384 . S
C562 H553 0.929 . S
C562 C554 1.378 . S
C562 C557 1.350 . S
C563 H550 0.929 . S
C563 C555 1.433 . S
C563 N565 1.384 . S
N564 C560 1.427 . S
N564 C561 1.384 . S
N565 C557 1.427 . S
N565 C563 1.384 . S
H566 C572 0.930 . S
H567 C576 0.930 . S
H568 C581 0.929 . S
H569 C579 0.929 . S
H570 C574 0.929 . S
H571 C580 0.929 . S
C572 H566 0.930 . S
C572 C573 1.367 . S
C572 C580 1.378 . S
C573 C572 1.367 . S
C573 C581 1.433 . S
C574 H570 0.929 . S
C574 C576 1.378 . S
C574 C578 1.350 . S
C575 C578 1.463 . S
C575 C580 1.350 . S
C575 N583 1.427 . S
C576 H567 0.930 . S
C576 C574 1.378 . S
C576 C577 1.367 . S
C577 C576 1.367 . S
C577 C579 1.433 . S
C578 C574 1.350 . S
C578 C575 1.463 . S
C578 N582 1.427 . S
C579 H569 0.929 . S
C579 C577 1.433 . S
C579 N582 1.384 . S
C580 H571 0.929 . S
C580 C572 1.378 . S
C580 C575 1.350 . S
C581 H568 0.929 . S
C581 C573 1.433 . S
C581 N583 1.384 . S
N582 C578 1.427 . S
N582 C579 1.384 . S
N583 C575 1.427 . S
N583 C581 1.384 . S
H584 C590 0.930 . S
H585 C594 0.930 . S
H586 C599 0.929 . S
H587 C597 0.929 . S
H588 C592 0.929 . S
H589 C598 0.929 . S
C590 H584 0.930 . S
C590 C591 1.367 . S
C590 C598 1.378 . S
C591 C590 1.367 . S
C591 C599 1.433 . S
C592 H588 0.929 . S
C592 C594 1.378 . S
C592 C596 1.350 . S
C593 C596 1.463 . S
C593 C598 1.350 . S
C593 N601 1.427 . S
C594 H585 0.930 . S
C594 C592 1.378 . S
C594 C595 1.367 . S
C595 C594 1.367 . S
C595 C597 1.433 . S
C596 C592 1.350 . S
C596 C593 1.463 . S
C596 N600 1.427 . S
C597 H587 0.929 . S
C597 C595 1.433 . S
C597 N600 1.384 . S
C598 H589 0.929 . S
C598 C590 1.378 . S
C598 C593 1.350 . S
C599 H586 0.929 . S
C599 C591 1.433 . S
C599 N601 1.384 . S
N600 C596 1.427 . S
N600 C597 1.384 . S
N601 C593 1.427 . S
N601 C599 1.384 . S
H602 C608 0.930 . S
H603 C612 0.930 . S
H604 C617 0.929 . S
H605 C615 0.929 . S
H606 C610 0.929 . S
H607 C616 0.929 . S
C608 H602 0.930 . S
C608 C609 1.367 . S
C608 C616 1.378 . S
C609 C608 1.367 . S
C609 C617 1.433 . S
C610 H606 0.929 . S
C610 C612 1.378 . S
C610 C614 1.350 . S
C611 C614 1.463 1_556 S
C611 C616 1.350 . S
C611 N619 1.427 . S
C612 H603 0.930 . S
C612 C610 1.378 . S
C612 C613 1.367 . S
C613 C612 1.367 . S
C613 C615 1.433 . S
C614 C610 1.350 . S
C614 C611 1.463 1_554 S
C614 N618 1.427 . S
C615 H605 0.929 . S
C615 C613 1.433 . S
C615 N618 1.384 . S
C616 H607 0.929 . S
C616 C608 1.378 . S
C616 C611 1.350 . S
C617 H604 0.929 . S
C617 C609 1.433 . S
C617 N619 1.384 . S
N618 C614 1.427 . S
N618 C615 1.384 . S
N619 C611 1.427 . S
N619 C617 1.384 . S
H620 C626 0.930 . S
H621 C630 0.930 . S
H622 C635 0.929 . S
H623 C633 0.929 . S
H624 C628 0.929 . S
H625 C634 0.929 . S
C626 H620 0.930 . S
C626 C627 1.367 . S
C626 C634 1.378 . S
C627 C626 1.367 . S
C627 C635 1.433 . S
C628 H624 0.929 . S
C628 C630 1.378 . S
C628 C632 1.350 . S
C629 C632 1.463 . S
C629 C634 1.350 . S
C629 N637 1.427 . S
C630 H621 0.930 . S
C630 C628 1.378 . S
C630 C631 1.367 . S
C631 C630 1.367 . S
C631 C633 1.433 . S
C632 C628 1.350 . S
C632 C629 1.463 . S
C632 N636 1.427 . S
C633 H623 0.929 . S
C633 C631 1.433 . S
C633 N636 1.384 . S
C634 H625 0.929 . S
C634 C626 1.378 . S
C634 C629 1.350 . S
C635 H622 0.929 . S
C635 C627 1.433 . S
C635 N637 1.384 . S
N636 C632 1.427 . S
N636 C633 1.384 . S
N637 C629 1.427 . S
N637 C635 1.384 . S
H638 C644 0.930 . S
H639 C648 0.930 . S
H640 C653 0.929 . S
H641 C651 0.929 . S
H642 C646 0.929 . S
H643 C652 0.929 . S
C644 H638 0.930 . S
C644 C645 1.367 . S
C644 C652 1.378 . S
C645 C644 1.367 . S
C645 C653 1.433 . S
C646 H642 0.929 . S
C646 C648 1.378 . S
C646 C650 1.350 . S
C647 C650 1.463 1_554 S
C647 C652 1.350 . S
C647 N655 1.427 . S
C648 H639 0.930 . S
C648 C646 1.378 . S
C648 C649 1.367 . S
C649 C648 1.367 . S
C649 C651 1.433 . S
C650 C646 1.350 . S
C650 C647 1.463 1_556 S
C650 N654 1.427 . S
C651 H641 0.929 . S
C651 C649 1.433 . S
C651 N654 1.384 . S
C652 H643 0.929 . S
C652 C644 1.378 . S
C652 C647 1.350 . S
C653 H640 0.929 . S
C653 C645 1.433 . S
C653 N655 1.384 . S
N654 C650 1.427 . S
N654 C651 1.384 . S
N655 C647 1.427 . S
N655 C653 1.384 . S
H656 C662 0.930 . S
H657 C666 0.930 . S
H658 C671 0.929 . S
H659 C669 0.929 . S
H660 C664 0.929 . S
H661 C670 0.929 . S
C662 H656 0.930 . S
C662 C663 1.367 . S
C662 C670 1.378 . S
C663 C662 1.367 . S
C663 C671 1.433 . S
C664 H660 0.929 . S
C664 C666 1.378 . S
C664 C668 1.350 . S
C665 C668 1.463 . S
C665 C670 1.350 . S
C665 N673 1.427 . S
C666 H657 0.930 . S
C666 C664 1.378 . S
C666 C667 1.367 . S
C667 C666 1.367 . S
C667 C669 1.433 . S
C668 C664 1.350 . S
C668 C665 1.463 . S
C668 N672 1.427 . S
C669 H659 0.929 . S
C669 C667 1.433 . S
C669 N672 1.384 . S
C670 H661 0.929 . S
C670 C662 1.378 . S
C670 C665 1.350 . S
C671 H658 0.929 . S
C671 C663 1.433 . S
C671 N673 1.384 . S
N672 C668 1.427 . S
N672 C669 1.384 . S
N673 C665 1.427 . S
N673 C671 1.384 . S
H674 C680 0.930 . S
H675 C684 0.930 . S
H676 C689 0.929 . S
H677 C687 0.929 . S
H678 C682 0.929 . S
H679 C688 0.929 . S
C680 H674 0.930 . S
C680 C681 1.367 . S
C680 C688 1.378 . S
C681 C680 1.367 . S
C681 C689 1.433 . S
C682 H678 0.929 . S
C682 C684 1.378 . S
C682 C686 1.350 . S
C683 C686 1.463 . S
C683 C688 1.350 . S
C683 N691 1.427 . S
C684 H675 0.930 . S
C684 C682 1.378 . S
C684 C685 1.367 . S
C685 C684 1.367 . S
C685 C687 1.433 . S
C686 C682 1.350 . S
C686 C683 1.463 . S
C686 N690 1.427 . S
C687 H677 0.929 . S
C687 C685 1.433 . S
C687 N690 1.384 . S
C688 H679 0.929 . S
C688 C680 1.378 . S
C688 C683 1.350 . S
C689 H676 0.929 . S
C689 C681 1.433 . S
C689 N691 1.384 . S
N690 C686 1.427 . S
N690 C687 1.384 . S
N691 C683 1.427 . S
N691 C689 1.384 . S
H692 C698 0.930 . S
H693 C702 0.930 . S
H694 C707 0.929 . S
H695 C705 0.929 . S
H696 C700 0.929 . S
H697 C706 0.929 . S
C698 H692 0.930 . S
C698 C699 1.367 . S
C698 C706 1.378 . S
C699 C698 1.367 . S
C699 C707 1.433 . S
C700 H696 0.929 . S
C700 C702 1.378 . S
C700 C704 1.350 . S
C701 C704 1.463 . S
C701 C706 1.350 . S
C701 N709 1.427 . S
C702 H693 0.930 . S
C702 C700 1.378 . S
C702 C703 1.367 . S
C703 C702 1.367 . S
C703 C705 1.433 . S
C704 C700 1.350 . S
C704 C701 1.463 . S
C704 N708 1.427 . S
C705 H695 0.929 . S
C705 C703 1.433 . S
C705 N708 1.384 . S
C706 H697 0.929 . S
C706 C698 1.378 . S
C706 C701 1.350 . S
C707 H694 0.929 . S
C707 C699 1.433 . S
C707 N709 1.384 . S
N708 C704 1.427 . S
N708 C705 1.384 . S
N709 C701 1.427 . S
N709 C707 1.384 . S
H710 C716 0.930 . S
H711 C720 0.930 . S
H712 C725 0.929 . S
H713 C723 0.929 . S
H714 C718 0.929 . S
H715 C724 0.929 . S
C716 H710 0.930 . S
C716 C717 1.367 . S
C716 C724 1.378 . S
C717 C716 1.367 . S
C717 C725 1.433 . S
C718 H714 0.929 . S
C718 C720 1.378 . S
C718 C722 1.350 . S
C719 C722 1.463 . S
C719 C724 1.350 . S
C719 N727 1.427 . S
C720 H711 0.930 . S
C720 C718 1.378 . S
C720 C721 1.367 . S
C721 C720 1.367 . S
C721 C723 1.433 . S
C722 C718 1.350 . S
C722 C719 1.463 . S
C722 N726 1.427 . S
C723 H713 0.929 . S
C723 C721 1.433 . S
C723 N726 1.384 . S
C724 H715 0.929 . S
C724 C716 1.378 . S
C724 C719 1.350 . S
C725 H712 0.929 . S
C725 C717 1.433 . S
C725 N727 1.384 . S
N726 C722 1.427 . S
N726 C723 1.384 . S
N727 C719 1.427 . S
N727 C725 1.384 . S
H728 C734 0.930 . S
H729 C738 0.930 . S
H730 C743 0.929 . S
H731 C741 0.929 . S
H732 C736 0.929 . S
H733 C742 0.929 . S
C734 H728 0.930 . S
C734 C735 1.367 . S
C734 C742 1.378 . S
C735 C734 1.367 . S
C735 C743 1.433 . S
C736 H732 0.929 . S
C736 C738 1.378 . S
C736 C740 1.350 . S
C737 C740 1.463 . S
C737 C742 1.350 . S
C737 N745 1.427 . S
C738 H729 0.930 . S
C738 C736 1.378 . S
C738 C739 1.367 . S
C739 C738 1.367 . S
C739 C741 1.433 . S
C740 C736 1.350 . S
C740 C737 1.463 . S
C740 N744 1.427 . S
C741 H731 0.929 . S
C741 C739 1.433 . S
C741 N744 1.384 . S
C742 H733 0.929 . S
C742 C734 1.378 . S
C742 C737 1.350 . S
C743 H730 0.929 . S
C743 C735 1.433 . S
C743 N745 1.384 . S
N744 C740 1.427 . S
N744 C741 1.384 . S
N745 C737 1.427 . S
N745 C743 1.384 . S
H746 C752 0.930 . S
H747 C756 0.930 . S
H748 C761 0.929 . S
H749 C759 0.929 . S
H750 C754 0.929 . S
H751 C760 0.929 . S
C752 H746 0.930 . S
C752 C753 1.367 . S
C752 C760 1.378 . S
C753 C752 1.367 . S
C753 C761 1.433 . S
C754 H750 0.929 . S
C754 C756 1.378 . S
C754 C758 1.350 . S
C755 C758 1.463 . S
C755 C760 1.350 . S
C755 N763 1.427 . S
C756 H747 0.930 . S
C756 C754 1.378 . S
C756 C757 1.367 . S
C757 C756 1.367 . S
C757 C759 1.433 . S
C758 C754 1.350 . S
C758 C755 1.463 . S
C758 N762 1.427 . S
C759 H749 0.929 . S
C759 C757 1.433 . S
C759 N762 1.384 . S
C760 H751 0.929 . S
C760 C752 1.378 . S
C760 C755 1.350 . S
C761 H748 0.929 . S
C761 C753 1.433 . S
C761 N763 1.384 . S
N762 C758 1.427 . S
N762 C759 1.384 . S
N763 C755 1.427 . S
N763 C761 1.384 . S
H764 C770 0.930 . S
H765 C774 0.930 . S
H766 C779 0.929 . S
H767 C777 0.929 . S
H768 C772 0.929 . S
H769 C778 0.929 . S
C770 H764 0.930 . S
C770 C771 1.367 . S
C770 C778 1.378 . S
C771 C770 1.367 . S
C771 C779 1.433 . S
C772 H768 0.929 . S
C772 C774 1.378 . S
C772 C776 1.350 . S
C773 C776 1.463 . S
C773 C778 1.350 . S
C773 N781 1.427 . S
C774 H765 0.930 . S
C774 C772 1.378 . S
C774 C775 1.367 . S
C775 C774 1.367 . S
C775 C777 1.433 . S
C776 C772 1.350 . S
C776 C773 1.463 . S
C776 N780 1.427 . S
C777 H767 0.929 . S
C777 C775 1.433 . S
C777 N780 1.384 . S
C778 H769 0.929 . S
C778 C770 1.378 . S
C778 C773 1.350 . S
C779 H766 0.929 . S
C779 C771 1.433 . S
C779 N781 1.384 . S
N780 C776 1.427 . S
N780 C777 1.384 . S
N781 C773 1.427 . S
N781 C779 1.384 . S
H782 C788 0.930 . S
H783 C792 0.930 . S
H784 C797 0.929 . S
H785 C795 0.929 . S
H786 C790 0.929 . S
H787 C796 0.929 . S
C788 H782 0.930 . S
C788 C789 1.367 . S
C788 C796 1.378 . S
C789 C788 1.367 . S
C789 C797 1.433 . S
C790 H786 0.929 . S
C790 C792 1.378 . S
C790 C794 1.350 . S
C791 C794 1.463 . S
C791 C796 1.350 . S
C791 N799 1.427 . S
C792 H783 0.930 . S
C792 C790 1.378 . S
C792 C793 1.367 . S
C793 C792 1.367 . S
C793 C795 1.433 . S
C794 C790 1.350 . S
C794 C791 1.463 . S
C794 N798 1.427 . S
C795 H785 0.929 . S
C795 C793 1.433 . S
C795 N798 1.384 . S
C796 H787 0.929 . S
C796 C788 1.378 . S
C796 C791 1.350 . S
C797 H784 0.929 . S
C797 C789 1.433 . S
C797 N799 1.384 . S
N798 C794 1.427 . S
N798 C795 1.384 . S
N799 C791 1.427 . S
N799 C797 1.384 . S
C231 C9 1.360 . S
C235 C37 1.359 . S
C249 C51 1.352 . S
C253 C23 1.352 . S
C267 C65 1.364 . S
C271 C93 1.364 . S
C285 C107 1.358 . S
C289 C79 1.358 . S
C303 C121 1.353 . S
C307 C149 1.353 . S
C321 C163 1.358 . S
C325 C135 1.358 . S
C339 C177 1.362 . S
C343 C205 1.362 . S
C357 C219 1.354 . S
C361 C191 1.353 . S
C375 C59 1.290 . S
C379 C3 1.284 . S
C393 C17 1.295 . S
C397 C73 1.289 . S
C411 C31 1.281 . S
C415 C87 1.278 . S
C429 C101 1.295 . S
C433 C45 1.290 . S
C447 C115 1.282 . S
C451 C171 1.288 . S
C465 C129 1.294 . S
C469 C185 1.288 . S
C483 C143 1.279 . S
C487 C199 1.282 . S
C501 C157 1.278 . S
C505 C213 1.279 . S
C519 C147 1.250 . S
C523 C7 1.255 . S
C537 C161 1.249 . S
C541 C21 1.257 . S
C555 C35 1.247 . S
C559 C119 1.259 . S
C573 C49 1.258 . S
C577 C133 1.248 . S
C591 C63 1.250 . S
C595 C203 1.256 . S
C609 C77 1.247 . S
C613 C217 1.258 . S
C627 C91 1.256 . S
C631 C175 1.250 . S
C645 C189 1.258 . S
C649 C105 1.248 . S
C663 C8 1.386 . S
C667 C218 1.388 . S
C681 C176 1.387 . S
C685 C22 1.387 . S
C699 C36 1.386 . S
C703 C190 1.387 . S
C717 C204 1.386 . S
C721 C50 1.388 . S
C735 C134 1.387 . S
C739 C64 1.386 . S
C753 C78 1.387 . S
C757 C148 1.387 . S
C771 C162 1.387 . S
C775 C92 1.386 . S
C789 C120 1.388 . S
C793 C106 1.386 . S
