# Generated by pormake.
# Topology ukr, (4)-cn, num edge types: 1
# Building blocks:
#     Node 0, Type 0, BuildingBlock: QUQFOY_clean_sbu_1, # of connection points: 4
#     Node 1, Type 0, BuildingBlock: QUQFOY_clean_sbu_1, # of connection points: 4
#     Node 2, Type 0, BuildingBlock: QUQFOY_clean_sbu_1, # of connection points: 4
#     Node 3, Type 0, BuildingBlock: QUQFOY_clean_sbu_1, # of connection points: 4
#     Node 4, Type 0, BuildingBlock: QUQFOY_clean_sbu_1, # of connection points: 4
#     Node 5, Type 0, BuildingBlock: QUQFOY_clean_sbu_1, # of connection points: 4
#     Node 6, Type 0, BuildingBlock: QUQFOY_clean_sbu_1, # of connection points: 4
#     Node 7, Type 0, BuildingBlock: QUQFOY_clean_sbu_1, # of connection points: 4
#     Node 8, Type 0, BuildingBlock: QUQFOY_clean_sbu_1, # of connection points: 4
#     Node 9, Type 0, BuildingBlock: QUQFOY_clean_sbu_1, # of connection points: 4
#     Node 10, Type 0, BuildingBlock: QUQFOY_clean_sbu_1, # of connection points: 4
#     Node 11, Type 0, BuildingBlock: QUQFOY_clean_sbu_1, # of connection points: 4
#     Node 12, Type 0, BuildingBlock: QUQFOY_clean_sbu_1, # of connection points: 4
#     Node 13, Type 0, BuildingBlock: QUQFOY_clean_sbu_1, # of connection points: 4
#     Node 14, Type 0, BuildingBlock: QUQFOY_clean_sbu_1, # of connection points: 4
#     Node 15, Type 0, BuildingBlock: QUQFOY_clean_sbu_1, # of connection points: 4
#     Node 16, Type 0, BuildingBlock: QUQFOY_clean_sbu_1, # of connection points: 4
#     Node 17, Type 0, BuildingBlock: QUQFOY_clean_sbu_1, # of connection points: 4
#     Node 18, Type 0, BuildingBlock: QUQFOY_clean_sbu_1, # of connection points: 4
#     Node 19, Type 0, BuildingBlock: QUQFOY_clean_sbu_1, # of connection points: 4
#     Node 20, Type 0, BuildingBlock: QUQFOY_clean_sbu_1, # of connection points: 4
#     Node 21, Type 0, BuildingBlock: QUQFOY_clean_sbu_1, # of connection points: 4
#     Node 22, Type 0, BuildingBlock: QUQFOY_clean_sbu_1, # of connection points: 4
#     Node 23, Type 0, BuildingBlock: QUQFOY_clean_sbu_1, # of connection points: 4
#     Node 24, Type 0, BuildingBlock: QUQFOY_clean_sbu_1, # of connection points: 4
#     Node 25, Type 0, BuildingBlock: QUQFOY_clean_sbu_1, # of connection points: 4
#     Node 26, Type 0, BuildingBlock: QUQFOY_clean_sbu_1, # of connection points: 4
#     Node 27, Type 0, BuildingBlock: QUQFOY_clean_sbu_1, # of connection points: 4
#     Node 28, Type 0, BuildingBlock: QUQFOY_clean_sbu_1, # of connection points: 4
#     Node 29, Type 0, BuildingBlock: QUQFOY_clean_sbu_1, # of connection points: 4
#     Node 30, Type 0, BuildingBlock: QUQFOY_clean_sbu_1, # of connection points: 4
#     Node 31, Type 0, BuildingBlock: QUQFOY_clean_sbu_1, # of connection points: 4
#     Node 32, Type 0, BuildingBlock: QUQFOY_clean_sbu_1, # of connection points: 4
#     Node 33, Type 0, BuildingBlock: QUQFOY_clean_sbu_1, # of connection points: 4
#     Node 34, Type 0, BuildingBlock: QUQFOY_clean_sbu_1, # of connection points: 4
#     Node 35, Type 0, BuildingBlock: QUQFOY_clean_sbu_1, # of connection points: 4
#     Node 36, Type 0, BuildingBlock: QUQFOY_clean_sbu_1, # of connection points: 4
#     Node 37, Type 0, BuildingBlock: QUQFOY_clean_sbu_1, # of connection points: 4
#     Node 38, Type 0, BuildingBlock: QUQFOY_clean_sbu_1, # of connection points: 4
#     Node 39, Type 0, BuildingBlock: QUQFOY_clean_sbu_1, # of connection points: 4
#     Node 40, Type 0, BuildingBlock: QUQFOY_clean_sbu_1, # of connection points: 4
#     Node 41, Type 0, BuildingBlock: QUQFOY_clean_sbu_1, # of connection points: 4
#     Node 42, Type 0, BuildingBlock: QUQFOY_clean_sbu_1, # of connection points: 4
#     Node 43, Type 0, BuildingBlock: QUQFOY_clean_sbu_1, # of connection points: 4
#     Node 44, Type 0, BuildingBlock: QUQFOY_clean_sbu_1, # of connection points: 4
#     Node 45, Type 0, BuildingBlock: QUQFOY_clean_sbu_1, # of connection points: 4
#     Node 46, Type 0, BuildingBlock: QUQFOY_clean_sbu_1, # of connection points: 4
#     Node 47, Type 0, BuildingBlock: QUQFOY_clean_sbu_1, # of connection points: 4
#     Edge 48, Type (0, 0), BuildingBlock: CIFDUS_clean_linker_0, # of connection points: 2
#     Edge 49, Type (0, 0), BuildingBlock: CIFDUS_clean_linker_0, # of connection points: 2
#     Edge 50, Type (0, 0), BuildingBlock: CIFDUS_clean_linker_0, # of connection points: 2
#     Edge 51, Type (0, 0), BuildingBlock: CIFDUS_clean_linker_0, # of connection points: 2
#     Edge 52, Type (0, 0), BuildingBlock: CIFDUS_clean_linker_0, # of connection points: 2
#     Edge 53, Type (0, 0), BuildingBlock: CIFDUS_clean_linker_0, # of connection points: 2
#     Edge 54, Type (0, 0), BuildingBlock: CIFDUS_clean_linker_0, # of connection points: 2
#     Edge 55, Type (0, 0), BuildingBlock: CIFDUS_clean_linker_0, # of connection points: 2
#     Edge 56, Type (0, 0), BuildingBlock: CIFDUS_clean_linker_0, # of connection points: 2
#     Edge 57, Type (0, 0), BuildingBlock: CIFDUS_clean_linker_0, # of connection points: 2
#     Edge 58, Type (0, 0), BuildingBlock: CIFDUS_clean_linker_0, # of connection points: 2
#     Edge 59, Type (0, 0), BuildingBlock: CIFDUS_clean_linker_0, # of connection points: 2
#     Edge 60, Type (0, 0), BuildingBlock: CIFDUS_clean_linker_0, # of connection points: 2
#     Edge 61, Type (0, 0), BuildingBlock: CIFDUS_clean_linker_0, # of connection points: 2
#     Edge 62, Type (0, 0), BuildingBlock: CIFDUS_clean_linker_0, # of connection points: 2
#     Edge 63, Type (0, 0), BuildingBlock: CIFDUS_clean_linker_0, # of connection points: 2
#     Edge 64, Type (0, 0), BuildingBlock: CIFDUS_clean_linker_0, # of connection points: 2
#     Edge 65, Type (0, 0), BuildingBlock: CIFDUS_clean_linker_0, # of connection points: 2
#     Edge 66, Type (0, 0), BuildingBlock: CIFDUS_clean_linker_0, # of connection points: 2
#     Edge 67, Type (0, 0), BuildingBlock: CIFDUS_clean_linker_0, # of connection points: 2
#     Edge 68, Type (0, 0), BuildingBlock: CIFDUS_clean_linker_0, # of connection points: 2
#     Edge 69, Type (0, 0), BuildingBlock: CIFDUS_clean_linker_0, # of connection points: 2
#     Edge 70, Type (0, 0), BuildingBlock: CIFDUS_clean_linker_0, # of connection points: 2
#     Edge 71, Type (0, 0), BuildingBlock: CIFDUS_clean_linker_0, # of connection points: 2
#     Edge 72, Type (0, 0), BuildingBlock: CIFDUS_clean_linker_0, # of connection points: 2
#     Edge 73, Type (0, 0), BuildingBlock: CIFDUS_clean_linker_0, # of connection points: 2
#     Edge 74, Type (0, 0), BuildingBlock: CIFDUS_clean_linker_0, # of connection points: 2
#     Edge 75, Type (0, 0), BuildingBlock: CIFDUS_clean_linker_0, # of connection points: 2
#     Edge 76, Type (0, 0), BuildingBlock: CIFDUS_clean_linker_0, # of connection points: 2
#     Edge 77, Type (0, 0), BuildingBlock: CIFDUS_clean_linker_0, # of connection points: 2
#     Edge 78, Type (0, 0), BuildingBlock: CIFDUS_clean_linker_0, # of connection points: 2
#     Edge 79, Type (0, 0), BuildingBlock: CIFDUS_clean_linker_0, # of connection points: 2
#     Edge 80, Type (0, 0), BuildingBlock: CIFDUS_clean_linker_0, # of connection points: 2
#     Edge 81, Type (0, 0), BuildingBlock: CIFDUS_clean_linker_0, # of connection points: 2
#     Edge 82, Type (0, 0), BuildingBlock: CIFDUS_clean_linker_0, # of connection points: 2
#     Edge 83, Type (0, 0), BuildingBlock: CIFDUS_clean_linker_0, # of connection points: 2
#     Edge 84, Type (0, 0), BuildingBlock: CIFDUS_clean_linker_0, # of connection points: 2
#     Edge 85, Type (0, 0), BuildingBlock: CIFDUS_clean_linker_0, # of connection points: 2
#     Edge 86, Type (0, 0), BuildingBlock: CIFDUS_clean_linker_0, # of connection points: 2
#     Edge 87, Type (0, 0), BuildingBlock: CIFDUS_clean_linker_0, # of connection points: 2
#     Edge 88, Type (0, 0), BuildingBlock: CIFDUS_clean_linker_0, # of connection points: 2
#     Edge 89, Type (0, 0), BuildingBlock: CIFDUS_clean_linker_0, # of connection points: 2
#     Edge 90, Type (0, 0), BuildingBlock: CIFDUS_clean_linker_0, # of connection points: 2
#     Edge 91, Type (0, 0), BuildingBlock: CIFDUS_clean_linker_0, # of connection points: 2
#     Edge 92, Type (0, 0), BuildingBlock: CIFDUS_clean_linker_0, # of connection points: 2
#     Edge 93, Type (0, 0), BuildingBlock: CIFDUS_clean_linker_0, # of connection points: 2
#     Edge 94, Type (0, 0), BuildingBlock: CIFDUS_clean_linker_0, # of connection points: 2
#     Edge 95, Type (0, 0), BuildingBlock: CIFDUS_clean_linker_0, # of connection points: 2
#     Edge 96, Type (0, 0), BuildingBlock: CIFDUS_clean_linker_0, # of connection points: 2
#     Edge 97, Type (0, 0), BuildingBlock: CIFDUS_clean_linker_0, # of connection points: 2
#     Edge 98, Type (0, 0), BuildingBlock: CIFDUS_clean_linker_0, # of connection points: 2
#     Edge 99, Type (0, 0), BuildingBlock: CIFDUS_clean_linker_0, # of connection points: 2
#     Edge 100, Type (0, 0), BuildingBlock: CIFDUS_clean_linker_0, # of connection points: 2
#     Edge 101, Type (0, 0), BuildingBlock: CIFDUS_clean_linker_0, # of connection points: 2
#     Edge 102, Type (0, 0), BuildingBlock: CIFDUS_clean_linker_0, # of connection points: 2
#     Edge 103, Type (0, 0), BuildingBlock: CIFDUS_clean_linker_0, # of connection points: 2
#     Edge 104, Type (0, 0), BuildingBlock: CIFDUS_clean_linker_0, # of connection points: 2
#     Edge 105, Type (0, 0), BuildingBlock: CIFDUS_clean_linker_0, # of connection points: 2
#     Edge 106, Type (0, 0), BuildingBlock: CIFDUS_clean_linker_0, # of connection points: 2
#     Edge 107, Type (0, 0), BuildingBlock: CIFDUS_clean_linker_0, # of connection points: 2
#     Edge 108, Type (0, 0), BuildingBlock: CIFDUS_clean_linker_0, # of connection points: 2
#     Edge 109, Type (0, 0), BuildingBlock: CIFDUS_clean_linker_0, # of connection points: 2
#     Edge 110, Type (0, 0), BuildingBlock: CIFDUS_clean_linker_0, # of connection points: 2
#     Edge 111, Type (0, 0), BuildingBlock: CIFDUS_clean_linker_0, # of connection points: 2
#     Edge 112, Type (0, 0), BuildingBlock: CIFDUS_clean_linker_0, # of connection points: 2
#     Edge 113, Type (0, 0), BuildingBlock: CIFDUS_clean_linker_0, # of connection points: 2
#     Edge 114, Type (0, 0), BuildingBlock: CIFDUS_clean_linker_0, # of connection points: 2
#     Edge 115, Type (0, 0), BuildingBlock: CIFDUS_clean_linker_0, # of connection points: 2
#     Edge 116, Type (0, 0), BuildingBlock: CIFDUS_clean_linker_0, # of connection points: 2
#     Edge 117, Type (0, 0), BuildingBlock: CIFDUS_clean_linker_0, # of connection points: 2
#     Edge 118, Type (0, 0), BuildingBlock: CIFDUS_clean_linker_0, # of connection points: 2
#     Edge 119, Type (0, 0), BuildingBlock: CIFDUS_clean_linker_0, # of connection points: 2
#     Edge 120, Type (0, 0), BuildingBlock: CIFDUS_clean_linker_0, # of connection points: 2
#     Edge 121, Type (0, 0), BuildingBlock: CIFDUS_clean_linker_0, # of connection points: 2
#     Edge 122, Type (0, 0), BuildingBlock: CIFDUS_clean_linker_0, # of connection points: 2
#     Edge 123, Type (0, 0), BuildingBlock: CIFDUS_clean_linker_0, # of connection points: 2
#     Edge 124, Type (0, 0), BuildingBlock: CIFDUS_clean_linker_0, # of connection points: 2
#     Edge 125, Type (0, 0), BuildingBlock: CIFDUS_clean_linker_0, # of connection points: 2
#     Edge 126, Type (0, 0), BuildingBlock: CIFDUS_clean_linker_0, # of connection points: 2
#     Edge 127, Type (0, 0), BuildingBlock: CIFDUS_clean_linker_0, # of connection points: 2
#     Edge 128, Type (0, 0), BuildingBlock: CIFDUS_clean_linker_0, # of connection points: 2
#     Edge 129, Type (0, 0), BuildingBlock: CIFDUS_clean_linker_0, # of connection points: 2
#     Edge 130, Type (0, 0), BuildingBlock: CIFDUS_clean_linker_0, # of connection points: 2
#     Edge 131, Type (0, 0), BuildingBlock: CIFDUS_clean_linker_0, # of connection points: 2
#     Edge 132, Type (0, 0), BuildingBlock: CIFDUS_clean_linker_0, # of connection points: 2
#     Edge 133, Type (0, 0), BuildingBlock: CIFDUS_clean_linker_0, # of connection points: 2
#     Edge 134, Type (0, 0), BuildingBlock: CIFDUS_clean_linker_0, # of connection points: 2
#     Edge 135, Type (0, 0), BuildingBlock: CIFDUS_clean_linker_0, # of connection points: 2
#     Edge 136, Type (0, 0), BuildingBlock: CIFDUS_clean_linker_0, # of connection points: 2
#     Edge 137, Type (0, 0), BuildingBlock: CIFDUS_clean_linker_0, # of connection points: 2
#     Edge 138, Type (0, 0), BuildingBlock: CIFDUS_clean_linker_0, # of connection points: 2
#     Edge 139, Type (0, 0), BuildingBlock: CIFDUS_clean_linker_0, # of connection points: 2
#     Edge 140, Type (0, 0), BuildingBlock: CIFDUS_clean_linker_0, # of connection points: 2
#     Edge 141, Type (0, 0), BuildingBlock: CIFDUS_clean_linker_0, # of connection points: 2
#     Edge 142, Type (0, 0), BuildingBlock: CIFDUS_clean_linker_0, # of connection points: 2
#     Edge 143, Type (0, 0), BuildingBlock: CIFDUS_clean_linker_0, # of connection points: 2
# Relax obj value: 0.373
# Max RMSD: 0.183
# Mean RMSD: 0.183
data_MOF--net-ukr--node1-QUQFOY_clean_sbu_1--edge1-CIFDUS_clean_linker_0
_symmetry_space_group_name_H-M    P1
_symmetry_Int_Tables_number       1
_symmetry_cell_setting            triclinic
loop_
_symmetry_equiv_pos_as_xyz
'x, y, z'
_cell_length_a     65.089172
_cell_length_b     65.074734
_cell_length_c     65.036784
_cell_angle_alpha  89.993986
_cell_angle_beta   90.01463
_cell_angle_gamma 89.991479
loop_
_atom_site_label
_atom_site_type_symbol
_atom_site_fract_x
_atom_site_fract_y
_atom_site_fract_z
_atom_type_partial_charge
O0 O 0.10513 0.23021 0.19492 0.0
Cd1 Cd 0.0997 0.24912 0.17016 0.0
Cd2 Cd 0.12609 0.27599 0.19157 0.0
O3 O 0.12543 0.25144 0.21183 0.0
O4 O 0.07602 0.23652 0.15582 0.0
O5 O 0.07481 0.26752 0.16975 0.0
C6 C 0.06569 0.2529 0.15989 0.0
C7 C 0.13368 0.30763 0.20704 0.0
C8 C 0.11636 0.23419 0.21039 0.0
C9 C 0.1385 0.26048 0.14893 0.0
O10 O 0.14197 0.27194 0.16436 0.0
O11 O 0.12221 0.24984 0.14804 0.0
O12 O 0.14711 0.29334 0.2052 0.0
O13 O 0.11535 0.30416 0.20038 0.0
O14 O 0.26236 0.60083 0.69255 0.0
Cd15 Cd 0.24074 0.59807 0.66968 0.0
Cd16 Cd 0.21812 0.62365 0.69534 0.0
O17 O 0.24296 0.61797 0.71437 0.0
O18 O 0.25096 0.57487 0.6529 0.0
O19 O 0.22161 0.57375 0.67004 0.0
C20 C 0.23495 0.56466 0.65848 0.0
C21 C 0.18705 0.63027 0.71217 0.0
C22 C 0.25986 0.60922 0.70999 0.0
C23 C 0.23166 0.63957 0.65327 0.0
O24 O 0.22307 0.6429 0.6705 0.0
O25 O 0.23912 0.62202 0.64922 0.0
O26 O 0.20231 0.6427 0.71314 0.0
O27 O 0.18919 0.61353 0.70178 0.0
O28 O 0.89865 0.76167 0.19673 0.0
Cd29 Cd 0.90298 0.73991 0.17429 0.0
Cd30 Cd 0.87325 0.71765 0.19689 0.0
O31 O 0.87734 0.74317 0.21547 0.0
O32 O 0.92902 0.74791 0.16091 0.0
O33 O 0.92517 0.71865 0.17786 0.0
C34 C 0.9369 0.73105 0.1677 0.0
C35 C 0.85923 0.68965 0.21505 0.0
C36 C 0.88758 0.75957 0.21265 0.0
C37 C 0.86397 0.7314 0.15255 0.0
O38 O 0.85877 0.72197 0.16885 0.0
O39 O 0.88158 0.73964 0.15112 0.0
O40 O 0.84891 0.70592 0.21094 0.0
O41 O 0.87807 0.68897 0.209 0.0
O42 O 0.72634 0.40681 0.69013 0.0
Cd43 Cd 0.75151 0.40833 0.67111 0.0
Cd44 Cd 0.77013 0.3841 0.69991 0.0
O45 O 0.743 0.39103 0.71497 0.0
O46 O 0.74815 0.43349 0.65441 0.0
O47 O 0.77312 0.42942 0.67726 0.0
C48 C 0.76376 0.441 0.66408 0.0
C49 C 0.79683 0.3758 0.72275 0.0
C50 C 0.72669 0.39926 0.70812 0.0
C51 C 0.76174 0.36648 0.65715 0.0
O52 O 0.76809 0.36388 0.67545 0.0
O53 O 0.75514 0.38392 0.65141 0.0
O54 O 0.78049 0.36492 0.72114 0.0
O55 O 0.79849 0.39177 0.71116 0.0
O56 O 0.09786 0.76989 0.80896 0.0
Cd57 Cd 0.09539 0.74773 0.83134 0.0
Cd58 Cd 0.11834 0.72429 0.80512 0.0
O59 O 0.11195 0.74912 0.78629 0.0
O60 O 0.07107 0.75518 0.84794 0.0
O61 O 0.0728 0.72689 0.82902 0.0
C62 C 0.06232 0.7388 0.841 0.0
C63 C 0.1234 0.69343 0.78729 0.0
C64 C 0.10467 0.76663 0.79097 0.0
C65 C 0.13694 0.73742 0.84621 0.0
O66 O 0.13918 0.72882 0.8288 0.0
O67 O 0.11981 0.74533 0.85114 0.0
O68 O 0.13577 0.70867 0.78556 0.0
O69 O 0.10775 0.69536 0.79927 0.0
O70 O 0.71857 0.59248 0.32773 0.0
Cd71 Cd 0.74446 0.59104 0.34564 0.0
Cd72 Cd 0.76289 0.61437 0.31299 0.0
O73 O 0.73514 0.60459 0.30082 0.0
O74 O 0.74109 0.56682 0.36369 0.0
O75 O 0.76504 0.569 0.33953 0.0
C76 C 0.75592 0.55833 0.35362 0.0
C77 C 0.78387 0.6268 0.28618 0.0
C78 C 0.71879 0.59767 0.30894 0.0
C79 C 0.75749 0.63295 0.35658 0.0
O80 O 0.76286 0.63442 0.33783 0.0
O81 O 0.75025 0.61625 0.36358 0.0
O82 O 0.76699 0.63546 0.29138 0.0
O83 O 0.78954 0.61085 0.29647 0.0
O84 O 0.90235 0.23173 0.80551 0.0
Cd85 Cd 0.90653 0.25043 0.83072 0.0
Cd86 Cd 0.87605 0.275 0.80933 0.0
O87 O 0.8811 0.25177 0.78824 0.0
O88 O 0.93116 0.23892 0.84444 0.0
O89 O 0.93033 0.27029 0.83137 0.0
C90 C 0.94047 0.25596 0.84065 0.0
C91 C 0.85976 0.30396 0.79513 0.0
C92 C 0.8915 0.23529 0.78966 0.0
C93 C 0.86655 0.25635 0.85193 0.0
O94 O 0.86152 0.267 0.83637 0.0
O95 O 0.88438 0.24855 0.85317 0.0
O96 O 0.8787 0.30522 0.80074 0.0
O97 O 0.85075 0.28657 0.79699 0.0
O98 O 0.266 0.40332 0.30581 0.0
Cd99 Cd 0.24288 0.40677 0.3271 0.0
Cd100 Cd 0.22148 0.38045 0.30319 0.0
O101 O 0.24697 0.38494 0.28475 0.0
O102 O 0.24817 0.43301 0.34147 0.0
O103 O 0.22081 0.42769 0.32186 0.0
C104 C 0.23152 0.43997 0.33324 0.0
C105 C 0.19142 0.37394 0.28457 0.0
C106 C 0.26385 0.39383 0.28889 0.0
C107 C 0.23389 0.36645 0.34605 0.0
O108 O 0.22555 0.36214 0.3289 0.0
O109 O 0.24117 0.38427 0.34919 0.0
O110 O 0.20646 0.3612 0.28497 0.0
O111 O 0.19301 0.3907 0.295 0.0
O112 O 0.19844 0.09415 0.22508 0.0
Cd113 Cd 0.17672 0.0908 0.24786 0.0
Cd114 Cd 0.19963 0.11654 0.2689 0.0
O115 O 0.21854 0.1141 0.24353 0.0
O116 O 0.16292 0.06426 0.24261 0.0
O117 O 0.18172 0.07032 0.27038 0.0
C118 C 0.17089 0.05767 0.25954 0.0
C119 C 0.21655 0.11852 0.30039 0.0
C120 C 0.21483 0.10457 0.22689 0.0
C121 C 0.15725 0.13095 0.25652 0.0
O122 O 0.17415 0.13518 0.26535 0.0
O123 O 0.1544 0.11319 0.24896 0.0
O124 O 0.21678 0.13343 0.28745 0.0
O125 O 0.20651 0.10209 0.29574 0.0
O126 O 0.40262 0.68844 0.72218 0.0
Cd127 Cd 0.4061 0.66548 0.74364 0.0
Cd128 Cd 0.37644 0.68954 0.76525 0.0
O129 O 0.38228 0.70853 0.7404 0.0
O130 O 0.43175 0.65127 0.73563 0.0
O131 O 0.4283 0.6681 0.76502 0.0
C132 C 0.43974 0.65762 0.75261 0.0
C133 C 0.36005 0.706 0.79287 0.0
C134 C 0.39251 0.70502 0.72412 0.0
C135 C 0.36616 0.64544 0.75083 0.0
O136 O 0.3614 0.66222 0.75955 0.0
O137 O 0.38405 0.64289 0.74353 0.0
O138 O 0.35136 0.70336 0.7754 0.0
O139 O 0.37884 0.7001 0.79485 0.0
O140 O 0.80213 0.89691 0.22976 0.0
Cd141 Cd 0.82693 0.90343 0.24827 0.0
Cd142 Cd 0.80733 0.87579 0.2742 0.0
O143 O 0.78512 0.87729 0.25151 0.0
O144 O 0.83892 0.92839 0.23572 0.0
O145 O 0.82582 0.92799 0.26711 0.0
C146 C 0.83424 0.93818 0.25228 0.0
C147 C 0.79569 0.86647 0.30695 0.0
C148 C 0.78648 0.8861 0.23411 0.0
C149 C 0.8493 0.86473 0.25595 0.0
O150 O 0.83372 0.85999 0.26668 0.0
O151 O 0.85045 0.8823 0.24758 0.0
O152 O 0.79559 0.85391 0.29177 0.0
O153 O 0.80181 0.88503 0.30372 0.0
O154 O 0.59166 0.31657 0.72549 0.0
Cd155 Cd 0.59006 0.33541 0.75077 0.0
Cd156 Cd 0.61392 0.30526 0.76932 0.0
O157 O 0.60561 0.29071 0.74223 0.0
O158 O 0.56602 0.35327 0.74578 0.0
O159 O 0.56742 0.33056 0.77114 0.0
C160 C 0.55708 0.34413 0.76093 0.0
C161 C 0.62305 0.28174 0.79523 0.0
C162 C 0.598 0.29814 0.72585 0.0
C163 C 0.63219 0.34804 0.76149 0.0
O164 O 0.63447 0.3295 0.76722 0.0
O165 O 0.61483 0.35437 0.75524 0.0
O166 O 0.63326 0.28361 0.77849 0.0
O167 O 0.60726 0.29343 0.79775 0.0
O168 O 0.20171 0.89559 0.76509 0.0
Cd169 Cd 0.17652 0.9025 0.74731 0.0
Cd170 Cd 0.191 0.87165 0.7225 0.0
O171 O 0.21361 0.8712 0.74486 0.0
O172 O 0.16758 0.92987 0.75685 0.0
O173 O 0.17865 0.92406 0.72519 0.0
C174 C 0.17194 0.93685 0.73883 0.0
C175 C 0.20222 0.85985 0.69038 0.0
C176 C 0.21506 0.88194 0.76112 0.0
C177 C 0.1491 0.8665 0.7429 0.0
O178 O 0.16274 0.85979 0.73066 0.0
O179 O 0.1513 0.88391 0.75139 0.0
O180 O 0.19963 0.84779 0.70575 0.0
O181 O 0.19866 0.87916 0.69297 0.0
O182 O 0.60155 0.69792 0.27052 0.0
Cd183 Cd 0.59663 0.67461 0.24983 0.0
Cd184 Cd 0.62945 0.69372 0.22846 0.0
O185 O 0.62641 0.71331 0.25342 0.0
O186 O 0.56962 0.66332 0.25776 0.0
O187 O 0.57532 0.67799 0.22759 0.0
C188 C 0.56269 0.66924 0.24017 0.0
C189 C 0.64694 0.7086 0.20059 0.0
C190 C 0.61463 0.71229 0.26898 0.0
C191 C 0.63388 0.64929 0.24401 0.0
O192 O 0.64069 0.66455 0.23393 0.0
O193 O 0.61614 0.64991 0.25204 0.0
O194 O 0.6558 0.70438 0.21767 0.0
O195 O 0.62753 0.70496 0.19911 0.0
O196 O 0.82027 0.09104 0.77489 0.0
Cd197 Cd 0.8395 0.0897 0.74984 0.0
Cd198 Cd 0.81188 0.1175 0.73268 0.0
O199 O 0.79603 0.10819 0.75865 0.0
O200 O 0.85452 0.06341 0.75215 0.0
O201 O 0.83251 0.07016 0.72701 0.0
C202 C 0.84478 0.05733 0.73597 0.0
C203 C 0.78996 0.13269 0.70812 0.0
C204 C 0.8024 0.09883 0.77458 0.0
C205 C 0.85615 0.131 0.74285 0.0
O206 O 0.83801 0.13516 0.73692 0.0
O207 O 0.8609 0.11277 0.74786 0.0
O208 O 0.79347 0.14071 0.72577 0.0
O209 O 0.79885 0.11547 0.70403 0.0
O210 O 0.40204 0.30565 0.27945 0.0
Cd211 Cd 0.4068 0.32801 0.25761 0.0
Cd212 Cd 0.37843 0.30703 0.23569 0.0
O213 O 0.38042 0.28752 0.26075 0.0
O214 O 0.4341 0.33987 0.26344 0.0
O215 O 0.42691 0.32301 0.23472 0.0
C216 C 0.44014 0.33262 0.246 0.0
C217 C 0.36872 0.29114 0.20484 0.0
C218 C 0.39047 0.29008 0.27732 0.0
C219 C 0.36854 0.35075 0.24986 0.0
O220 O 0.36324 0.33456 0.24033 0.0
O221 O 0.38625 0.35197 0.25792 0.0
O222 O 0.35621 0.29356 0.21989 0.0
O223 O 0.38738 0.29736 0.20718 0.0
O224 O 0.23438 0.1876 0.09474 0.0
Cd225 Cd 0.26172 0.17183 0.0942 0.0
Cd226 Cd 0.27577 0.2037 0.11853 0.0
O227 O 0.24833 0.21553 0.10767 0.0
O228 O 0.26093 0.15445 0.06931 0.0
O229 O 0.28284 0.18023 0.0734 0.0
C230 C 0.27532 0.16589 0.06186 0.0
C231 C 0.29753 0.23001 0.13033 0.0
C232 C 0.2329 0.20628 0.1001 0.0
C233 C 0.27107 0.16036 0.13675 0.0
O234 O 0.27435 0.17947 0.13917 0.0
O235 O 0.26705 0.15322 0.11905 0.0
O236 O 0.28012 0.22612 0.13864 0.0
O237 O 0.30317 0.21879 0.11501 0.0
O238 O 0.23126 0.81063 0.90372 0.0
Cd239 Cd 0.25698 0.82896 0.90541 0.0
Cd240 Cd 0.27383 0.8007 0.87964 0.0
O241 O 0.24737 0.78537 0.8881 0.0
O242 O 0.25437 0.84476 0.93124 0.0
O243 O 0.27884 0.82166 0.92592 0.0
C244 C 0.26991 0.83455 0.93814 0.0
C245 C 0.29965 0.77802 0.86857 0.0
C246 C 0.23125 0.79253 0.89644 0.0
C247 C 0.265 0.84397 0.8636 0.0
O248 O 0.27014 0.82547 0.86006 0.0
O249 O 0.26048 0.84956 0.88175 0.0
O250 O 0.28254 0.78012 0.85905 0.0
O251 O 0.30264 0.78907 0.88474 0.0
O252 O 0.69236 0.73488 0.4057 0.0
Cd253 Cd 0.67539 0.76156 0.40466 0.0
Cd254 Cd 0.7072 0.77624 0.38435 0.0
O255 O 0.72075 0.74939 0.39455 0.0
O256 O 0.65634 0.76051 0.42832 0.0
O257 O 0.68158 0.78324 0.42564 0.0
C258 C 0.6668 0.77535 0.43633 0.0
C259 C 0.72874 0.80475 0.38041 0.0
C260 C 0.71136 0.73373 0.40144 0.0
C261 C 0.66746 0.76947 0.36099 0.0
O262 O 0.68664 0.77307 0.36036 0.0
O263 O 0.65874 0.76601 0.37811 0.0
O264 O 0.73117 0.78819 0.36996 0.0
O265 O 0.71412 0.80529 0.39378 0.0
O266 O 0.76639 0.19175 0.89918 0.0
Cd267 Cd 0.74636 0.1677 0.90327 0.0
Cd268 Cd 0.72235 0.19067 0.87337 0.0
O269 O 0.74663 0.2105 0.87894 0.0
O270 O 0.75618 0.15369 0.92845 0.0
O271 O 0.72585 0.16896 0.92641 0.0
C272 C 0.73924 0.15903 0.9372 0.0
C273 C 0.69455 0.20668 0.85662 0.0
C274 C 0.76326 0.20806 0.88893 0.0
C275 C 0.7387 0.14704 0.86348 0.0
O276 O 0.72868 0.16313 0.85882 0.0
O277 O 0.74698 0.14529 0.88105 0.0
O278 O 0.71196 0.20382 0.84792 0.0
O279 O 0.69264 0.20106 0.87553 0.0
O280 O 0.28967 0.26356 0.39855 0.0
Cd281 Cd 0.31192 0.24141 0.40276 0.0
Cd282 Cd 0.28857 0.21815 0.37798 0.0
O283 O 0.2699 0.24373 0.37959 0.0
O284 O 0.32698 0.2488 0.42813 0.0
O285 O 0.30848 0.22036 0.4251 0.0
C286 C 0.31994 0.23215 0.43626 0.0
C287 C 0.27059 0.18729 0.37477 0.0
C288 C 0.27332 0.2609 0.38823 0.0
C289 C 0.33085 0.23025 0.36277 0.0
O290 O 0.31416 0.22073 0.35934 0.0
O291 O 0.33362 0.23926 0.37986 0.0
O292 O 0.27132 0.20055 0.3602 0.0
O293 O 0.28025 0.19121 0.39163 0.0
O294 O 0.77811 0.81147 0.0911 0.0
Cd295 Cd 0.75269 0.83009 0.08846 0.0
Cd296 Cd 0.73446 0.80252 0.11415 0.0
O297 O 0.7608 0.78665 0.10611 0.0
O298 O 0.75542 0.84484 0.06205 0.0
O299 O 0.73081 0.8221 0.0683 0.0
C300 C 0.73982 0.83444 0.05557 0.0
C301 C 0.70837 0.78019 0.12524 0.0
C302 C 0.77735 0.79334 0.09825 0.0
C303 C 0.74333 0.84609 0.12958 0.0
O304 O 0.73783 0.82772 0.13332 0.0
O305 O 0.74871 0.85122 0.11154 0.0
O306 O 0.72535 0.78235 0.13498 0.0
O307 O 0.70567 0.79099 0.10885 0.0
O308 O 0.68867 0.27318 0.59747 0.0
Cd309 Cd 0.66874 0.24882 0.59529 0.0
Cd310 Cd 0.69548 0.23079 0.6261 0.0
O311 O 0.71068 0.25755 0.61798 0.0
O312 O 0.65408 0.25236 0.56887 0.0
O313 O 0.67507 0.22628 0.57514 0.0
C314 C 0.66317 0.23595 0.56249 0.0
C315 C 0.71709 0.20912 0.64559 0.0
C316 C 0.7055 0.2731 0.60734 0.0
C317 C 0.64971 0.24004 0.63556 0.0
O318 O 0.66725 0.23305 0.64053 0.0
O319 O 0.64655 0.24711 0.61766 0.0
O320 O 0.71094 0.22667 0.652 0.0
O321 O 0.71122 0.20348 0.62753 0.0
O322 O 0.30884 0.72945 0.59428 0.0
Cd323 Cd 0.32745 0.75489 0.59229 0.0
Cd324 Cd 0.29901 0.77365 0.61498 0.0
O325 O 0.2834 0.74689 0.608 0.0
O326 O 0.34317 0.75229 0.56645 0.0
O327 O 0.31993 0.77666 0.57188 0.0
C328 C 0.33271 0.76769 0.55955 0.0
C329 C 0.27697 0.80151 0.62068 0.0
C330 C 0.2905 0.73019 0.60084 0.0
C331 C 0.34091 0.76521 0.6341 0.0
O332 O 0.32245 0.77117 0.63638 0.0
O333 O 0.34714 0.75915 0.61661 0.0
O334 O 0.27718 0.78564 0.63237 0.0
O335 O 0.28961 0.80206 0.60544 0.0
O336 O 0.90498 0.76016 0.79913 0.0
Cd337 Cd 0.90887 0.73966 0.82291 0.0
Cd338 Cd 0.87819 0.71723 0.80283 0.0
O339 O 0.8818 0.74164 0.78281 0.0
O340 O 0.93536 0.74717 0.83576 0.0
O341 O 0.93006 0.71726 0.82039 0.0
C342 C 0.94235 0.72955 0.83 0.0
C343 C 0.8645 0.68817 0.78631 0.0
C344 C 0.89291 0.75766 0.784 0.0
C345 C 0.86999 0.7338 0.84611 0.0
O346 O 0.86409 0.72334 0.83071 0.0
O347 O 0.88785 0.7416 0.84639 0.0
O348 O 0.85385 0.70433 0.78993 0.0
O349 O 0.88345 0.68812 0.79205 0.0
O350 O 0.73293 0.40312 0.30562 0.0
Cd351 Cd 0.75422 0.40612 0.32874 0.0
Cd352 Cd 0.77687 0.37511 0.30488 0.0
O353 O 0.7519 0.38246 0.28655 0.0
O354 O 0.74759 0.43207 0.34309 0.0
O355 O 0.77657 0.42726 0.32584 0.0
C356 C 0.76491 0.4392 0.33662 0.0
C357 C 0.8005 0.35501 0.28613 0.0
C358 C 0.73562 0.39291 0.28921 0.0
C359 C 0.76238 0.36648 0.34956 0.0
O360 O 0.77206 0.36159 0.33332 0.0
O361 O 0.75382 0.38392 0.35112 0.0
O362 O 0.78267 0.34852 0.29129 0.0
O363 O 0.80536 0.37348 0.29135 0.0
O364 O 0.09705 0.22646 0.80826 0.0
Cd365 Cd 0.09434 0.24928 0.8299 0.0
Cd366 Cd 0.1209 0.27188 0.80432 0.0
O367 O 0.11387 0.24636 0.7867 0.0
O368 O 0.06825 0.24429 0.84461 0.0
O369 O 0.07374 0.27169 0.82509 0.0
C370 C 0.0614 0.26104 0.83647 0.0
C371 C 0.13332 0.29801 0.78257 0.0
C372 C 0.10531 0.22932 0.79084 0.0
C373 C 0.13497 0.25903 0.84771 0.0
O374 O 0.13859 0.2678 0.8306 0.0
O375 O 0.11755 0.25096 0.85118 0.0
O376 O 0.14315 0.28125 0.78578 0.0
O377 O 0.11631 0.30069 0.79236 0.0
O378 O 0.27086 0.59576 0.30981 0.0
Cd379 Cd 0.24768 0.59355 0.33122 0.0
Cd380 Cd 0.22619 0.61962 0.30423 0.0
O381 O 0.25159 0.61163 0.28699 0.0
O382 O 0.25496 0.56942 0.34828 0.0
O383 O 0.22715 0.5706 0.32869 0.0
C384 C 0.23884 0.56041 0.34112 0.0
C385 C 0.19933 0.62966 0.28225 0.0
C386 C 0.2685 0.60328 0.29196 0.0
C387 C 0.23859 0.63552 0.34678 0.0
O388 O 0.23088 0.63901 0.32914 0.0
O389 O 0.24517 0.61772 0.35132 0.0
O390 O 0.21598 0.64001 0.28406 0.0
O391 O 0.19717 0.61357 0.2936 0.0
O392 O 0.90758 0.21985 0.18584 0.0
Cd393 Cd 0.91141 0.24234 0.16401 0.0
Cd394 Cd 0.8842 0.26561 0.18776 0.0
O395 O 0.89058 0.24064 0.20639 0.0
O396 O 0.93833 0.23757 0.15088 0.0
O397 O 0.93131 0.26512 0.16972 0.0
C398 C 0.94443 0.25454 0.15918 0.0
C399 C 0.87058 0.29203 0.20842 0.0
C400 C 0.89893 0.22334 0.20296 0.0
C401 C 0.87176 0.25163 0.14421 0.0
O402 O 0.86747 0.26071 0.161 0.0
O403 O 0.88936 0.24366 0.14156 0.0
O404 O 0.86101 0.27519 0.20491 0.0
O405 O 0.88806 0.29464 0.19947 0.0
O406 O 0.27215 0.40789 0.69366 0.0
Cd407 Cd 0.25171 0.41168 0.66991 0.0
Cd408 Cd 0.22964 0.37895 0.68893 0.0
O409 O 0.25333 0.38452 0.70942 0.0
O410 O 0.25652 0.43937 0.65851 0.0
O411 O 0.22734 0.43027 0.67359 0.0
C412 C 0.23828 0.44419 0.66458 0.0
C413 C 0.20354 0.35947 0.70475 0.0
C414 C 0.26921 0.39587 0.70874 0.0
C415 C 0.24734 0.3739 0.64516 0.0
O416 O 0.23682 0.36717 0.66018 0.0
O417 O 0.25489 0.39185 0.64568 0.0
O418 O 0.22123 0.35202 0.7004 0.0
O419 O 0.20021 0.37845 0.70019 0.0
O420 O 0.09672 0.76854 0.19569 0.0
Cd421 Cd 0.09142 0.75072 0.17015 0.0
Cd422 Cd 0.12367 0.72553 0.1875 0.0
O423 O 0.1208 0.74874 0.20903 0.0
O424 O 0.06562 0.76173 0.15842 0.0
O425 O 0.06849 0.72991 0.17009 0.0
C426 C 0.05729 0.74412 0.16192 0.0
C427 C 0.14021 0.69672 0.20178 0.0
C428 C 0.10962 0.76473 0.20983 0.0
C429 C 0.12923 0.74519 0.14487 0.0
O430 O 0.13546 0.73309 0.15889 0.0
O431 O 0.11192 0.754 0.14641 0.0
O432 O 0.12087 0.69584 0.19763 0.0
O433 O 0.14969 0.71351 0.19782 0.0
O434 O 0.71737 0.59548 0.68237 0.0
Cd435 Cd 0.74219 0.59352 0.66292 0.0
Cd436 Cd 0.76246 0.61841 0.69207 0.0
O437 O 0.73488 0.61178 0.70628 0.0
O438 O 0.73742 0.56918 0.64531 0.0
O439 O 0.76316 0.57137 0.66753 0.0
C440 C 0.75312 0.56078 0.65403 0.0
C441 C 0.78634 0.62842 0.71732 0.0
C442 C 0.71831 0.60353 0.70011 0.0
C443 C 0.75421 0.63523 0.6488 0.0
O444 O 0.76152 0.63778 0.66677 0.0
O445 O 0.74629 0.61815 0.64367 0.0
O446 O 0.77034 0.63904 0.71302 0.0
O447 O 0.78968 0.61205 0.70669 0.0
O448 O 0.81677 0.90058 0.76994 0.0
Cd449 Cd 0.83832 0.90326 0.74694 0.0
Cd450 Cd 0.81122 0.87256 0.7271 0.0
O451 O 0.79506 0.88061 0.75321 0.0
O452 O 0.85494 0.92735 0.75532 0.0
O453 O 0.83642 0.92679 0.72682 0.0
C454 C 0.8485 0.93667 0.73909 0.0
C455 C 0.79023 0.85352 0.70441 0.0
C456 C 0.79985 0.89092 0.7691 0.0
C457 C 0.85624 0.86208 0.73859 0.0
O458 O 0.83886 0.85746 0.731 0.0
O459 O 0.85962 0.88004 0.74539 0.0
O460 O 0.79568 0.84687 0.72212 0.0
O461 O 0.79646 0.87157 0.69917 0.0
O462 O 0.60293 0.30205 0.26574 0.0
Cd463 Cd 0.59623 0.32755 0.24824 0.0
Cd464 Cd 0.62593 0.31044 0.2221 0.0
O465 O 0.62634 0.28867 0.24523 0.0
O466 O 0.57188 0.33933 0.26216 0.0
O467 O 0.57101 0.328 0.23013 0.0
C468 C 0.56156 0.33608 0.24561 0.0
C469 C 0.63519 0.2976 0.18975 0.0
C470 C 0.61601 0.28811 0.2618 0.0
C471 C 0.63408 0.35244 0.24107 0.0
O472 O 0.63964 0.3382 0.22893 0.0
O473 O 0.61692 0.35136 0.25023 0.0
O474 O 0.64827 0.29989 0.20432 0.0
O475 O 0.61631 0.30241 0.19329 0.0
O476 O 0.20395 0.10007 0.76632 0.0
Cd477 Cd 0.17834 0.09318 0.74915 0.0
Cd478 Cd 0.19404 0.12629 0.72375 0.0
O479 O 0.21543 0.12562 0.74723 0.0
O480 O 0.1677 0.06827 0.76299 0.0
O481 O 0.17778 0.06829 0.73056 0.0
C482 C 0.17049 0.05835 0.74611 0.0
C483 C 0.20714 0.14226 0.69408 0.0
C484 C 0.21698 0.11421 0.76301 0.0
C485 C 0.15145 0.13006 0.74342 0.0
O486 O 0.165 0.13681 0.73109 0.0
O487 O 0.15391 0.1129 0.75235 0.0
O488 O 0.20287 0.15225 0.71051 0.0
O489 O 0.20411 0.12269 0.69412 0.0
O490 O 0.40134 0.69924 0.27043 0.0
Cd491 Cd 0.40734 0.6735 0.25314 0.0
Cd492 Cd 0.37545 0.69015 0.22727 0.0
O493 O 0.37741 0.71213 0.25016 0.0
O494 O 0.43265 0.66216 0.26555 0.0
O495 O 0.4312 0.67304 0.23335 0.0
C496 C 0.44175 0.66522 0.24825 0.0
C497 C 0.35986 0.70326 0.19743 0.0
C498 C 0.38832 0.71318 0.26633 0.0
C499 C 0.36986 0.64783 0.24744 0.0
O500 O 0.36365 0.66168 0.23515 0.0
O501 O 0.38708 0.64958 0.25637 0.0
O502 O 0.34982 0.69988 0.21403 0.0
O503 O 0.37926 0.69934 0.19739 0.0
O504 O 0.79231 0.10088 0.23088 0.0
Cd505 Cd 0.81725 0.09358 0.24889 0.0
Cd506 Cd 0.80398 0.12806 0.2727 0.0
O507 O 0.78226 0.12739 0.24947 0.0
O508 O 0.82604 0.06614 0.23921 0.0
O509 O 0.81534 0.07188 0.27098 0.0
C510 C 0.82219 0.05918 0.25734 0.0
C511 C 0.79198 0.14605 0.30171 0.0
C512 C 0.78001 0.11571 0.23396 0.0
C513 C 0.84657 0.12855 0.25265 0.0
O514 O 0.83353 0.13659 0.26475 0.0
O515 O 0.843 0.11125 0.24441 0.0
O516 O 0.79414 0.12638 0.30256 0.0
O517 O 0.79653 0.15503 0.28477 0.0
O518 O 0.39853 0.29971 0.73353 0.0
Cd519 Cd 0.404 0.32361 0.75356 0.0
Cd520 Cd 0.37193 0.30631 0.77617 0.0
O521 O 0.37394 0.28561 0.7521 0.0
O522 O 0.43143 0.3346 0.7466 0.0
O523 O 0.42431 0.32028 0.7767 0.0
C524 C 0.43743 0.32908 0.76467 0.0
C525 C 0.35604 0.29256 0.80553 0.0
C526 C 0.38519 0.2857 0.73612 0.0
C527 C 0.36712 0.34972 0.75861 0.0
O528 O 0.36024 0.33502 0.76943 0.0
O529 O 0.38487 0.34854 0.75066 0.0
O530 O 0.34621 0.29617 0.78884 0.0
O531 O 0.37548 0.29631 0.80582 0.0
O532 O 0.20028 0.89534 0.23424 0.0
Cd533 Cd 0.17569 0.90184 0.25315 0.0
Cd534 Cd 0.19415 0.87409 0.27871 0.0
O535 O 0.21519 0.87312 0.25498 0.0
O536 O 0.16284 0.92631 0.24041 0.0
O537 O 0.17621 0.9267 0.27168 0.0
C538 C 0.16708 0.93636 0.25692 0.0
C539 C 0.20848 0.87025 0.3114 0.0
C540 C 0.21474 0.88278 0.23801 0.0
C541 C 0.15208 0.86353 0.26216 0.0
O542 O 0.16705 0.85845 0.2736 0.0
O543 O 0.1522 0.88071 0.25291 0.0
O544 O 0.20706 0.85517 0.29877 0.0
O545 O 0.20164 0.88797 0.30575 0.0
O546 O 0.59627 0.70423 0.73308 0.0
Cd547 Cd 0.59252 0.68089 0.7541 0.0
Cd548 Cd 0.61951 0.70253 0.777 0.0
O549 O 0.61617 0.72306 0.75292 0.0
O550 O 0.56673 0.66686 0.74637 0.0
O551 O 0.57075 0.68332 0.77593 0.0
C552 C 0.55912 0.67289 0.76365 0.0
C553 C 0.6258 0.71706 0.80924 0.0
C554 C 0.60667 0.72046 0.73604 0.0
C555 C 0.63237 0.66036 0.76151 0.0
O556 O 0.63702 0.67663 0.77125 0.0
O557 O 0.61462 0.65835 0.7537 0.0
O558 O 0.63893 0.71809 0.79455 0.0
O559 O 0.60855 0.70794 0.80583 0.0
O560 O 0.77311 0.79852 0.89829 0.0
Cd561 Cd 0.75222 0.8221 0.90149 0.0
Cd562 Cd 0.72743 0.79766 0.87847 0.0
O563 O 0.75142 0.77738 0.88323 0.0
O564 O 0.7618 0.83873 0.92509 0.0
O565 O 0.7323 0.82171 0.92511 0.0
C566 C 0.74529 0.83335 0.93463 0.0
C567 C 0.69499 0.78259 0.87506 0.0
C568 C 0.76915 0.78104 0.89056 0.0
C569 C 0.74196 0.83806 0.86009 0.0
O570 O 0.73255 0.82112 0.85764 0.0
O571 O 0.7503 0.84224 0.87723 0.0
O572 O 0.70938 0.77956 0.86192 0.0
O573 O 0.69879 0.79418 0.89067 0.0
O574 O 0.76678 0.19757 0.09436 0.0
Cd575 Cd 0.74322 0.17667 0.09101 0.0
Cd576 Cd 0.72226 0.20129 0.1168 0.0
O577 O 0.74807 0.21919 0.11237 0.0
O578 O 0.74882 0.16165 0.06518 0.0
O579 O 0.72158 0.18161 0.06954 0.0
C580 C 0.73238 0.16983 0.05772 0.0
C581 C 0.69265 0.22081 0.12262 0.0
C582 C 0.76493 0.21461 0.10368 0.0
C583 C 0.73366 0.1586 0.13171 0.0
O584 O 0.7258 0.17602 0.13578 0.0
O585 O 0.74074 0.155 0.11388 0.0
O586 O 0.70761 0.22032 0.13546 0.0
O587 O 0.69399 0.20982 0.10619 0.0
O588 O 0.30992 0.27569 0.59228 0.0
Cd589 Cd 0.33104 0.25238 0.58906 0.0
Cd590 Cd 0.30462 0.23031 0.61424 0.0
O591 O 0.28696 0.25563 0.60684 0.0
O592 O 0.34668 0.25867 0.56375 0.0
O593 O 0.32643 0.23146 0.56689 0.0
C594 C 0.33837 0.24263 0.55558 0.0
C595 C 0.28337 0.20284 0.62408 0.0
C596 C 0.29198 0.27294 0.59939 0.0
C597 C 0.34718 0.24251 0.63036 0.0
O598 O 0.32947 0.23494 0.63369 0.0
O599 O 0.35179 0.24929 0.61264 0.0
O600 O 0.28476 0.21945 0.63457 0.0
O601 O 0.29463 0.20114 0.60788 0.0
O602 O 0.22856 0.80711 0.09295 0.0
Cd603 Cd 0.25185 0.82848 0.09125 0.0
Cd604 Cd 0.27297 0.80123 0.11693 0.0
O605 O 0.24771 0.78398 0.10851 0.0
O606 O 0.24523 0.84596 0.06723 0.0
O607 O 0.27286 0.82613 0.06871 0.0
C608 C 0.26155 0.83889 0.05851 0.0
C609 C 0.30014 0.77961 0.12689 0.0
C610 C 0.23083 0.78915 0.10021 0.0
C611 C 0.26045 0.84337 0.13354 0.0
O612 O 0.26799 0.82564 0.13682 0.0
O613 O 0.25415 0.84825 0.11572 0.0
O614 O 0.28328 0.7808 0.137 0.0
O615 O 0.30224 0.79126 0.111 0.0
O616 O 0.681 0.72817 0.58949 0.0
Cd617 Cd 0.66093 0.75259 0.58811 0.0
Cd618 Cd 0.68882 0.77093 0.61635 0.0
O619 O 0.70403 0.7442 0.60843 0.0
O620 O 0.64431 0.74817 0.56298 0.0
O621 O 0.66551 0.77452 0.56681 0.0
C622 C 0.65273 0.76444 0.55542 0.0
C623 C 0.7119 0.79489 0.63071 0.0
C624 C 0.69833 0.72842 0.59846 0.0
C625 C 0.64456 0.76124 0.62981 0.0
O626 O 0.6624 0.7681 0.63381 0.0
O627 O 0.64026 0.75478 0.6119 0.0
O628 O 0.70737 0.77784 0.63945 0.0
O629 O 0.70308 0.7989 0.61342 0.0
O630 O 0.22613 0.18424 0.90852 0.0
Cd631 Cd 0.2517 0.16558 0.90995 0.0
Cd632 Cd 0.26952 0.19463 0.88542 0.0
O633 O 0.2425 0.20943 0.89302 0.0
O634 O 0.24819 0.14787 0.93442 0.0
O635 O 0.27312 0.17091 0.9315 0.0
C636 C 0.26389 0.15703 0.94233 0.0
C637 C 0.29587 0.2178 0.87708 0.0
C638 C 0.22626 0.20232 0.90118 0.0
C639 C 0.26159 0.15199 0.86774 0.0
O640 O 0.26717 0.17049 0.86486 0.0
O641 O 0.25584 0.14614 0.88544 0.0
O642 O 0.27938 0.21621 0.8664 0.0
O643 O 0.29791 0.20595 0.89282 0.0
O644 O 0.29825 0.73664 0.39878 0.0
Cd645 Cd 0.32264 0.75613 0.40433 0.0
Cd646 Cd 0.30323 0.78112 0.37665 0.0
O647 O 0.28264 0.75699 0.37668 0.0
O648 O 0.33643 0.74469 0.42895 0.0
O649 O 0.32225 0.77559 0.42846 0.0
C650 C 0.33209 0.76151 0.43843 0.0
C651 C 0.28798 0.81329 0.37213 0.0
C652 C 0.28348 0.74012 0.38649 0.0
C653 C 0.34525 0.76506 0.36532 0.0
O654 O 0.33004 0.77627 0.36045 0.0
O655 O 0.34558 0.75594 0.38258 0.0
O656 O 0.28927 0.80018 0.35746 0.0
O657 O 0.29551 0.80845 0.38982 0.0
O658 O 0.68437 0.27709 0.40786 0.0
Cd659 Cd 0.6657 0.25157 0.40928 0.0
Cd660 Cd 0.6959 0.23425 0.38452 0.0
O661 O 0.71051 0.26083 0.39389 0.0
O662 O 0.64721 0.2567 0.4329 0.0
O663 O 0.66979 0.23126 0.43224 0.0
C664 C 0.65586 0.24143 0.44209 0.0
C665 C 0.71915 0.20836 0.37476 0.0
C666 C 0.70285 0.27702 0.40164 0.0
C667 C 0.65319 0.24241 0.3666 0.0
O668 O 0.67191 0.23756 0.36385 0.0
O669 O 0.64678 0.24713 0.38442 0.0
O670 O 0.71764 0.22545 0.36508 0.0
O671 O 0.70727 0.20551 0.39035 0.0
H672 H 0.97394 0.23672 0.13611 0.0
H673 H 0.96414 0.28541 0.18006 0.0
H674 H 0.00126 0.29096 0.18242 0.0
H675 H 0.03656 0.27901 0.17506 0.0
H676 H 0.04557 0.22911 0.13224 0.0
H677 H 0.00871 0.22713 0.1263 0.0
C678 C 0.97987 0.24876 0.14601 0.0
C679 C 0.96632 0.26044 0.15809 0.0
C680 C 0.00113 0.25152 0.14764 0.0
C681 C 0.97426 0.27613 0.17066 0.0
C682 C 0.99549 0.27924 0.1721 0.0
C683 C 0.03045 0.26796 0.16417 0.0
C684 C 0.04374 0.25406 0.15431 0.0
C685 C 0.0091 0.26658 0.16113 0.0
C686 C 0.03564 0.23982 0.14023 0.0
C687 C 0.01455 0.23866 0.13681 0.0
H688 H 0.21043 0.53575 0.67639 0.0
H689 H 0.25629 0.54413 0.62917 0.0
H690 H 0.25934 0.50708 0.62512 0.0
H691 H 0.25266 0.47267 0.63824 0.0
H692 H 0.20773 0.46358 0.68611 0.0
H693 H 0.20038 0.50051 0.68645 0.0
C694 C 0.22072 0.52945 0.6649 0.0
C695 C 0.23335 0.54264 0.65333 0.0
C696 C 0.22276 0.50802 0.66294 0.0
C697 C 0.2466 0.53429 0.63846 0.0
C698 C 0.2484 0.5131 0.63615 0.0
C699 C 0.24104 0.47873 0.64856 0.0
C700 C 0.23102 0.46555 0.66238 0.0
C701 C 0.23716 0.49987 0.64886 0.0
C702 C 0.21573 0.4735 0.67539 0.0
C703 C 0.21161 0.49461 0.67566 0.0
H704 H 0.03169 0.71482 0.17764 0.0
H705 H 0.03348 0.76684 0.13647 0.0
H706 H 0.99632 0.76551 0.13263 0.0
H707 H 0.96327 0.75231 0.14388 0.0
H708 H 0.96051 0.70144 0.18633 0.0
H709 H 0.99809 0.69932 0.18647 0.0
C710 C 0.02393 0.72561 0.16757 0.0
C711 C 0.03526 0.74106 0.15756 0.0
C712 C 0.0024 0.72506 0.16577 0.0
C713 C 0.02507 0.75496 0.14455 0.0
C714 C 0.00381 0.75423 0.14233 0.0
C715 C 0.97084 0.74056 0.15298 0.0
C716 C 0.95915 0.72724 0.16529 0.0
C717 C 0.99231 0.73977 0.15335 0.0
C718 C 0.96919 0.71194 0.17678 0.0
C719 C 0.99067 0.7108 0.17695 0.0
H720 H 0.75032 0.46684 0.63447 0.0
H721 H 0.78873 0.46453 0.68849 0.0
H722 H 0.79129 0.50204 0.68848 0.0
H723 H 0.77827 0.53545 0.67605 0.0
H724 H 0.73862 0.53711 0.62284 0.0
H725 H 0.74108 0.49993 0.6195 0.0
C726 C 0.75956 0.4745 0.64605 0.0
C727 C 0.76903 0.46296 0.66165 0.0
C728 C 0.76055 0.496 0.64622 0.0
C729 C 0.78119 0.47308 0.67636 0.0
C730 C 0.78255 0.49454 0.67644 0.0
C731 C 0.77054 0.52771 0.66348 0.0
C732 C 0.75801 0.53899 0.64993 0.0
C733 C 0.77164 0.50618 0.66189 0.0
C734 C 0.74814 0.52876 0.63366 0.0
C735 C 0.7495 0.50747 0.63174 0.0
H736 H 0.96811 0.74708 0.85726 0.0
H737 H 0.96571 0.70109 0.80958 0.0
H738 H 0.00319 0.69776 0.81068 0.0
H739 H 0.03673 0.71151 0.82201 0.0
H740 H 0.0384 0.75825 0.86912 0.0
H741 H 0.0011 0.75747 0.87161 0.0
C742 C 0.97576 0.7361 0.84731 0.0
C743 C 0.96425 0.7246 0.83312 0.0
C744 C 0.99719 0.73451 0.84783 0.0
C745 C 0.97429 0.71019 0.82057 0.0
C746 C 0.99571 0.70837 0.82113 0.0
C747 C 0.02894 0.72119 0.83312 0.0
C748 C 0.0403 0.73516 0.84511 0.0
C749 C 0.00737 0.72097 0.83422 0.0
C750 C 0.03001 0.74756 0.8595 0.0
C751 C 0.00866 0.74717 0.86092 0.0
H752 H 0.7813 0.53392 0.3308 0.0
H753 H 0.74044 0.53311 0.38311 0.0
H754 H 0.74183 0.49575 0.38396 0.0
H755 H 0.75053 0.46347 0.36693 0.0
H756 H 0.79088 0.46365 0.31436 0.0
H757 H 0.79407 0.50109 0.31671 0.0
C758 C 0.77307 0.52559 0.34265 0.0
C759 C 0.76049 0.53629 0.35663 0.0
C760 C 0.77365 0.50399 0.34287 0.0
C761 C 0.75003 0.52526 0.37199 0.0
C762 C 0.75075 0.50387 0.37247 0.0
C763 C 0.76029 0.47168 0.35619 0.0
C764 C 0.77016 0.46094 0.34029 0.0
C765 C 0.76184 0.4931 0.3575 0.0
C766 C 0.78305 0.47165 0.32669 0.0
C767 C 0.78478 0.49305 0.32796 0.0
H768 H 0.03342 0.24291 0.86118 0.0
H769 H 0.04004 0.29129 0.81629 0.0
H770 H 0.00272 0.29591 0.81554 0.0
H771 H 0.9681 0.28302 0.82441 0.0
H772 H 0.96224 0.23335 0.86801 0.0
H773 H -0.00064 0.23256 0.87261 0.0
C774 C 0.02676 0.25469 0.85143 0.0
C775 C 0.03946 0.26653 0.8386 0.0
C776 C 0.00538 0.25691 0.85072 0.0
C777 C 0.03058 0.28188 0.82625 0.0
C778 C 0.00924 0.28447 0.82574 0.0
C779 C 0.97495 0.27232 0.8352 0.0
C780 C 0.96248 0.2581 0.84566 0.0
C781 C 0.99644 0.27159 0.83741 0.0
C782 C 0.97154 0.24429 0.85958 0.0
C783 C 0.99277 0.24381 0.86222 0.0
H784 H 0.24701 0.46678 0.36084 0.0
H785 H 0.2042 0.46246 0.31038 0.0
H786 H 0.20043 0.49989 0.31015 0.0
H787 H 0.21307 0.53392 0.32128 0.0
H788 H 0.2569 0.53756 0.37099 0.0
H789 H 0.2563 0.50034 0.37466 0.0
C790 C 0.23661 0.47399 0.34998 0.0
C791 C 0.22616 0.46192 0.33544 0.0
C792 C 0.23483 0.49543 0.34969 0.0
C793 C 0.2125 0.47144 0.32168 0.0
C794 C 0.21043 0.49285 0.32146 0.0
C795 C 0.22214 0.52658 0.33319 0.0
C796 C 0.23524 0.53846 0.34564 0.0
C797 C 0.22207 0.50504 0.33495 0.0
C798 C 0.24688 0.52875 0.36103 0.0
C799 C 0.24659 0.50745 0.36313 0.0
H800 H 0.18315 0.96473 0.28337 0.0
H801 H 0.14068 0.95774 0.23284 0.0
H802 H 0.13622 0.99482 0.23103 0.0
H803 H 0.14715 0.02912 0.24107 0.0
H804 H 0.19077 0.03691 0.29042 0.0
H805 H 0.19173 -0.00033 0.29566 0.0
C806 C 0.17267 0.97134 0.27222 0.0
C807 C 0.16246 0.95854 0.2581 0.0
C808 C 0.17048 0.99281 0.27094 0.0
C809 C 0.14893 0.96728 0.24372 0.0
C810 C 0.14635 0.98849 0.24265 0.0
C811 C 0.15668 0.02273 0.25317 0.0
C812 C 0.16906 0.03574 0.26515 0.0
C813 C 0.15751 0.0014 0.25576 0.0
C814 C 0.18115 0.02721 0.28091 0.0
C815 C 0.18178 0.00591 0.28385 0.0
H816 H 0.53457 0.64482 0.74571 0.0
H817 H 0.5346 0.69258 0.79169 0.0
H818 H 0.49713 0.69014 0.79447 0.0
H819 H 0.4642 0.67757 0.78026 0.0
H820 H 0.46495 0.6306 0.73337 0.0
H821 H 0.50229 0.62943 0.73472 0.0
C822 C 0.52642 0.65452 0.75656 0.0
C823 C 0.53724 0.66909 0.76822 0.0
C824 C 0.505 0.65326 0.7578 0.0
C825 C 0.52655 0.6813 0.78246 0.0
C826 C 0.50513 0.67998 0.78397 0.0
C827 C 0.47254 0.66679 0.77068 0.0
C828 C 0.46185 0.65442 0.75652 0.0
C829 C 0.49414 0.66649 0.7712 0.0
C830 C 0.47284 0.64048 0.74421 0.0
C831 C 0.4942 0.63981 0.74493 0.0
H832 H 0.84477 0.03233 0.23548 0.0
H833 H 0.80617 0.03661 0.2892 0.0
H834 H 0.80816 -0.00075 0.29378 0.0
H835 H 0.8183 0.96512 0.28033 0.0
H836 H 0.85652 0.96176 0.22615 0.0
H837 H 0.85741 0.99906 0.22409 0.0
C838 C 0.83689 0.02513 0.24829 0.0
C839 C 0.8251 0.03713 0.2618 0.0
C840 C 0.838 0.0038 0.25071 0.0
C841 C 0.81528 0.02765 0.27853 0.0
C842 C 0.81637 0.0063 0.28111 0.0
C843 C 0.82709 0.97258 0.2683 0.0
C844 C 0.83712 0.96067 0.25328 0.0
C845 C 0.82732 0.99417 0.26699 0.0
C846 C 0.84848 0.97055 0.23779 0.0
C847 C 0.84899 0.99189 0.23655 0.0
H848 H 0.53129 0.32171 0.78533 0.0
H849 H 0.53304 0.37394 0.74437 0.0
H850 H 0.49569 0.3752 0.74391 0.0
H851 H 0.46286 0.35859 0.75104 0.0
H852 H 0.46033 0.30629 0.79164 0.0
H853 H 0.49766 0.30806 0.79656 0.0
C854 C 0.52349 0.33365 0.7767 0.0
C855 C 0.53493 0.34747 0.7646 0.0
C856 C 0.5019 0.3341 0.77621 0.0
C857 C 0.52461 0.36293 0.75359 0.0
C858 C 0.50323 0.36365 0.75325 0.0
C859 C 0.47046 0.34776 0.76121 0.0
C860 C 0.45904 0.33212 0.77068 0.0
C861 C 0.49177 0.34882 0.76382 0.0
C862 C 0.46891 0.31842 0.78412 0.0
C863 C 0.49023 0.31937 0.78684 0.0
H864 H 0.18245 0.03063 0.71683 0.0
H865 H 0.14875 0.03615 0.77376 0.0
H866 H 0.14456 0.99907 0.77527 0.0
H867 H 0.153 0.96511 0.76235 0.0
H868 H 0.1875 0.95853 0.7061 0.0
H869 H 0.18857 0.99599 0.70222 0.0
C870 C 0.17396 0.02369 0.72939 0.0
C871 C 0.16614 0.03611 0.74528 0.0
C872 C 0.17184 0.0022 0.73036 0.0
C873 C 0.15514 0.02694 0.76146 0.0
C874 C 0.15271 0.00572 0.76235 0.0
C875 C 0.16061 0.97182 0.74911 0.0
C876 C 0.17037 0.9591 0.73468 0.0
C877 C 0.16143 0.99321 0.74719 0.0
C878 C 0.17992 0.96803 0.71748 0.0
C879 C 0.18061 0.98944 0.71531 0.0
H880 H 0.46877 0.68015 0.21977 0.0
H881 H 0.46429 0.64013 0.27255 0.0
H882 H 0.50142 0.63594 0.27297 0.0
H883 H 0.53511 0.6465 0.26094 0.0
H884 H 0.54062 0.68766 0.20924 0.0
H885 H 0.50314 0.68827 0.20555 0.0
C886 C 0.47595 0.67025 0.23112 0.0
C887 C 0.46386 0.66067 0.24627 0.0
C888 C 0.49746 0.66823 0.23156 0.0
C889 C 0.4733 0.64789 0.26089 0.0
C890 C 0.49453 0.64547 0.26115 0.0
C891 C 0.52816 0.65544 0.24869 0.0
C892 C 0.54057 0.66725 0.23557 0.0
C893 C 0.50676 0.65605 0.24697 0.0
C894 C 0.53135 0.6785 0.2196 0.0
C895 C 0.50993 0.67894 0.21756 0.0
H896 H 0.87231 0.02912 0.74886 0.0
H897 H 0.82005 0.0367 0.70877 0.0
H898 H 0.81829 -0.00054 0.70376 0.0
H899 H 0.82863 0.96462 0.7149 0.0
H900 H 0.8799 0.95778 0.75646 0.0
H901 H 0.88512 0.99483 0.7566 0.0
C902 C 0.86073 0.02268 0.73875 0.0
C903 C 0.84614 0.03561 0.72947 0.0
C904 C 0.8595 0.00133 0.73637 0.0
C905 C 0.83141 0.02705 0.71618 0.0
C906 C 0.83032 0.00574 0.71341 0.0
C907 C 0.8412 0.97124 0.72361 0.0
C908 C 0.85368 0.95852 0.73588 0.0
C909 C 0.84383 0.99269 0.72404 0.0
C910 C 0.86992 0.96728 0.74711 0.0
C911 C 0.87291 0.98846 0.74722 0.0
H912 H 0.53249 0.32061 0.21954 0.0
H913 H 0.54086 0.3617 0.27098 0.0
H914 H 0.50386 0.36599 0.27401 0.0
H915 H 0.46933 0.35539 0.26459 0.0
H916 H 0.46007 0.3132 0.21426 0.0
H917 H 0.49718 0.31225 0.20805 0.0
C918 C 0.52618 0.33075 0.23116 0.0
C919 C 0.53936 0.34064 0.24516 0.0
C920 C 0.50475 0.33283 0.23313 0.0
C921 C 0.53102 0.35372 0.26017 0.0
C922 C 0.50985 0.35619 0.26193 0.0
C923 C 0.47536 0.34614 0.2521 0.0
C924 C 0.46201 0.33418 0.24009 0.0
C925 C 0.4966 0.34537 0.2489 0.0
C926 C 0.47006 0.32249 0.2238 0.0
C927 C 0.49128 0.32187 0.2203 0.0
H928 H 0.26487 0.13533 0.03578 0.0
H929 H 0.29796 0.19271 0.03858 0.0
H930 H 0.30011 0.19349 0.00103 0.0
H931 H 0.28765 0.18059 0.96758 0.0
H932 H 0.25286 0.12415 0.9655 0.0
H933 H 0.2565 0.12019 0.00256 0.0
C934 C 0.27291 0.14783 0.02822 0.0
C935 C 0.28092 0.16411 0.03992 0.0
C936 C 0.27355 0.14847 0.00671 0.0
C937 C 0.29155 0.18003 0.02991 0.0
C938 C 0.29266 0.18056 0.00842 0.0
C939 C 0.28128 0.1672 0.97519 0.0
C940 C 0.26972 0.15286 0.96387 0.0
C941 C 0.28296 0.16528 0.99666 0.0
C942 C 0.26158 0.13556 0.97392 0.0
C943 C 0.26363 0.13329 0.99512 0.0
H944 H 0.28666 0.81862 0.03175 0.0
H945 H 0.24578 0.87064 0.03655 0.0
H946 H 0.24744 0.87576 0.9995 0.0
H947 H 0.25642 0.86261 0.96559 0.0
H948 H 0.29581 0.80957 0.96007 0.0
H949 H 0.29917 0.80796 0.99751 0.0
C950 C 0.27849 0.83133 0.02471 0.0
C951 C 0.26588 0.84405 0.03682 0.0
C952 C 0.27909 0.83389 0.00324 0.0
C953 C 0.25538 0.86047 0.02752 0.0
C954 C 0.2563 0.86341 0.00632 0.0
C955 C 0.26604 0.85089 0.97254 0.0
C956 C 0.27557 0.83603 0.9601 0.0
C957 C 0.26746 0.84975 0.99399 0.0
C958 C 0.28821 0.82113 0.96932 0.0
C959 C 0.29003 0.82013 0.99074 0.0
H960 H 0.67591 0.78948 0.53109 0.0
H961 H 0.62169 0.75129 0.53083 0.0
H962 H 0.61937 0.75433 0.49357 0.0
H963 H 0.63563 0.76328 0.46101 0.0
H964 H 0.69093 0.79983 0.46067 0.0
H965 H 0.68967 0.8024 0.49817 0.0
C966 C 0.66333 0.78224 0.52291 0.0
C967 C 0.64919 0.76992 0.53366 0.0
C968 C 0.66239 0.78359 0.50135 0.0
C969 C 0.63294 0.76064 0.52287 0.0
C970 C 0.63161 0.76233 0.50155 0.0
C971 C 0.6472 0.77216 0.46908 0.0
C972 C 0.66354 0.78104 0.4581 0.0
C973 C 0.64671 0.77306 0.4906 0.0
C974 C 0.67825 0.79272 0.46877 0.0
C975 C 0.67761 0.79408 0.49024 0.0
H976 H 0.74961 0.14282 0.03137 0.0
H977 H 0.70384 0.19067 0.03471 0.0
H978 H 0.69984 0.18967 0.99729 0.0
H979 H 0.7127 0.17818 0.96341 0.0
H980 H 0.75968 0.13142 0.96078 0.0
H981 H 0.75968 0.12887 0.99814 0.0
C982 C 0.73854 0.15286 0.02398 0.0
C983 C 0.72727 0.16701 0.03576 0.0
C984 C 0.73665 0.15249 0.00253 0.0
C985 C 0.7128 0.1797 0.02596 0.0
C986 C 0.71057 0.17921 0.00455 0.0
C987 C 0.72261 0.16715 0.97103 0.0
C988 C 0.73634 0.15518 0.95938 0.0
C989 C 0.7229 0.1661 0.99263 0.0
C990 C 0.74913 0.14097 0.96943 0.0
C991 C 0.74917 0.13952 0.99079 0.0
H992 H 0.31649 0.21615 0.53149 0.0
H993 H 0.36578 0.26054 0.52968 0.0
H994 H 0.3659 0.25929 0.49227 0.0
H995 H 0.3492 0.24909 0.46028 0.0
H996 H 0.29936 0.20543 0.46147 0.0
H997 H 0.30245 0.20267 0.49889 0.0
C998 C 0.32754 0.22522 0.52291 0.0
C999 C 0.3409 0.23864 0.53336 0.0
C1000 C 0.32727 0.22474 0.5013 0.0
C1001 C 0.35516 0.25025 0.52203 0.0
C1002 C 0.35522 0.2496 0.50061 0.0
C1003 C 0.33918 0.23876 0.46869 0.0
C1004 C 0.32386 0.22774 0.4582 0.0
C1005 C 0.34087 0.23747 0.49011 0.0
C1006 C 0.31121 0.21416 0.46923 0.0
C1007 C 0.31292 0.21265 0.49063 0.0
H1008 H 0.75501 0.85991 0.02651 0.0
H1009 H 0.71199 0.81021 0.03517 0.0
H1010 H 0.70772 0.80722 0.99791 0.0
H1011 H 0.71989 0.81572 0.96295 0.0
H1012 H 0.76445 0.86421 0.95505 0.0
H1013 H 0.76429 0.87077 0.99191 0.0
C1014 C 0.74443 0.84862 0.0203 0.0
C1015 C 0.73407 0.83512 0.03358 0.0
C1016 C 0.74249 0.84664 0.99895 0.0
C1017 C 0.72025 0.82074 0.02527 0.0
C1018 C 0.71789 0.81894 0.00396 0.0
C1019 C 0.72924 0.82798 0.96928 0.0
C1020 C 0.74236 0.83929 0.95634 0.0
C1021 C 0.72948 0.83135 0.99064 0.0
C1022 C 0.75441 0.85512 0.96473 0.0
C1023 C 0.75435 0.85888 0.98581 0.0
H1024 H 0.63426 0.24821 0.53539 0.0
H1025 H 0.68833 0.21024 0.54062 0.0
H1026 H 0.6892 0.20604 0.50322 0.0
H1027 H 0.67745 0.21749 0.46896 0.0
H1028 H 0.62397 0.25649 0.46439 0.0
H1029 H 0.61988 0.25572 0.50158 0.0
C1030 C 0.64605 0.23872 0.52838 0.0
C1031 C 0.66141 0.22984 0.54068 0.0
C1032 C 0.64667 0.23672 0.50695 0.0
C1033 C 0.67638 0.21733 0.53144 0.0
C1034 C 0.67696 0.21503 0.51005 0.0
C1035 C 0.66465 0.22543 0.47608 0.0
C1036 C 0.65125 0.23731 0.46395 0.0
C1037 C 0.66261 0.22529 0.49761 0.0
C1038 C 0.63468 0.24746 0.47339 0.0
C1039 C 0.63233 0.24708 0.49468 0.0
H1040 H 0.31541 0.78778 0.46658 0.0
H1041 H 0.36109 0.74023 0.45937 0.0
H1042 H 0.36741 0.74025 0.49626 0.0
H1043 H 0.35722 0.75068 0.53069 0.0
H1044 H 0.31007 0.7966 0.53878 0.0
H1045 H 0.30738 0.80063 0.50146 0.0
C1046 C 0.32697 0.7777 0.47309 0.0
C1047 C 0.33759 0.76386 0.46032 0.0
C1048 C 0.3302 0.77741 0.49448 0.0
C1049 C 0.35253 0.75084 0.46892 0.0
C1050 C 0.35617 0.75085 0.49002 0.0
C1051 C 0.34657 0.76183 0.52435 0.0
C1052 C 0.3337 0.77313 0.53749 0.0
C1053 C 0.34466 0.76359 0.50298 0.0
C1054 C 0.3201 0.78762 0.52899 0.0
C1055 C 0.31847 0.78985 0.50764 0.0
H1056 H 0.19021 0.37398 0.24365 0.0
H1057 H 0.1536 0.36148 0.29727 0.0
H1058 H 0.12875 0.34246 0.27618 0.0
H1059 H 0.12199 0.32345 0.2438 0.0
H1060 H 0.16062 0.33437 0.19117 0.0
H1061 H 0.17983 0.36039 0.21018 0.0
C1062 C 0.17631 0.36779 0.25048 0.0
C1063 C 0.17351 0.36911 0.27179 0.0
C1064 C 0.16262 0.3564 0.23839 0.0
C1065 C 0.15577 0.36082 0.28076 0.0
C1066 C 0.14174 0.34976 0.26874 0.0
C1067 C 0.13404 0.33223 0.23635 0.0
C1068 C 0.13993 0.32724 0.21618 0.0
C1069 C 0.14558 0.34658 0.24771 0.0
C1070 C 0.15584 0.33821 0.20666 0.0
C1071 C 0.16692 0.35292 0.21758 0.0
H1072 H 0.12031 0.68749 0.74667 0.0
H1073 H 0.13842 0.65797 0.80304 0.0
H1074 H 0.15742 0.63187 0.7836 0.0
H1075 H 0.17472 0.62254 0.75104 0.0
H1076 H 0.15727 0.65303 0.69495 0.0
H1077 H 0.13173 0.67338 0.71354 0.0
C1078 C 0.12769 0.67477 0.75456 0.0
C1079 C 0.128 0.67443 0.77611 0.0
C1080 C 0.13889 0.66021 0.74329 0.0
C1081 C 0.13782 0.65823 0.78639 0.0
C1082 C 0.14886 0.6435 0.77528 0.0
C1083 C 0.16461 0.63298 0.74285 0.0
C1084 C 0.16759 0.63629 0.72174 0.0
C1085 C 0.15036 0.64499 0.75379 0.0
C1086 C 0.1549 0.65013 0.71119 0.0
C1087 C 0.14049 0.6619 0.72185 0.0
H1088 H 0.8257 0.62587 0.27994 0.0
H1089 H 0.7686 0.64735 0.25383 0.0
H1090 H 0.78721 0.66671 0.22792 0.0
H1091 H 0.8192 0.6808 0.21524 0.0
H1092 H 0.87696 0.66117 0.24097 0.0
H1093 H 0.85873 0.63759 0.26425 0.0
C1094 C 0.81743 0.63449 0.26831 0.0
C1095 C 0.79583 0.63543 0.26895 0.0
C1096 C 0.82833 0.64606 0.25355 0.0
C1097 C 0.78524 0.64665 0.25384 0.0
C1098 C 0.79585 0.65773 0.239 0.0
C1099 C 0.82785 0.67119 0.22579 0.0
C1100 C 0.8493 0.6729 0.22667 0.0
C1101 C 0.81732 0.65809 0.23915 0.0
C1102 C 0.86037 0.66011 0.24009 0.0
C1103 C 0.84994 0.64675 0.25347 0.0
H1104 H 0.87115 0.33279 0.76653 0.0
H1105 H 0.82152 0.31393 0.8062 0.0
H1106 H 0.79824 0.33765 0.78907 0.0
H1107 H 0.79061 0.35917 0.75961 0.0
H1108 H 0.83882 0.37741 0.71812 0.0
H1109 H 0.86417 0.35891 0.73923 0.0
C1110 C 0.85539 0.3344 0.77169 0.0
C1111 C 0.8479 0.32158 0.78741 0.0
C1112 C 0.84181 0.34771 0.76127 0.0
C1113 C 0.82747 0.32355 0.79397 0.0
C1114 C 0.81415 0.33706 0.78417 0.0
C1115 C 0.80676 0.35944 0.75544 0.0
C1116 C 0.8129 0.36929 0.7373 0.0
C1117 C 0.82093 0.3485 0.76729 0.0
C1118 C 0.83382 0.36986 0.7321 0.0
C1119 C 0.84824 0.35914 0.74406 0.0
H1120 H 0.28337 0.15247 0.35686 0.0
H1121 H 0.23057 0.18176 0.38378 0.0
H1122 H 0.20773 0.15807 0.3656 0.0
H1123 H 0.20319 0.13556 0.3355 0.0
H1124 H 0.25608 0.10811 0.30686 0.0
H1125 H 0.2786 0.12397 0.33247 0.0
C1126 C 0.26691 0.15287 0.35951 0.0
C1127 C 0.25853 0.16859 0.37162 0.0
C1128 C 0.25394 0.13974 0.34834 0.0
C1129 C 0.23724 0.16949 0.3747 0.0
C1130 C 0.2242 0.15614 0.36409 0.0
C1131 C 0.21953 0.13229 0.3356 0.0
C1132 C 0.2281 0.12071 0.31957 0.0
C1133 C 0.23237 0.1421 0.3499 0.0
C1134 C 0.24927 0.11682 0.31933 0.0
C1135 C 0.26214 0.12608 0.3338 0.0
H1136 H 0.29162 0.74348 0.84819 0.0
H1137 H 0.34193 0.78029 0.87043 0.0
H1138 H 0.36627 0.75918 0.85061 0.0
H1139 H 0.37221 0.73298 0.82309 0.0
H1140 H 0.32048 0.69819 0.80047 0.0
H1141 H 0.29775 0.71559 0.82443 0.0
C1142 C 0.30797 0.74672 0.84894 0.0
C1143 C 0.31501 0.76352 0.86041 0.0
C1144 C 0.32157 0.73493 0.83728 0.0
C1145 C 0.33621 0.76739 0.86161 0.0
C1146 C 0.35006 0.75543 0.85017 0.0
C1147 C 0.35605 0.72902 0.8238 0.0
C1148 C 0.34791 0.71457 0.80991 0.0
C1149 C 0.34282 0.73956 0.83737 0.0
C1150 C 0.32697 0.7095 0.81084 0.0
C1151 C 0.31396 0.71941 0.82453 0.0
H1152 H 0.76919 0.80505 0.37346 0.0
H1153 H 0.71598 0.84431 0.37475 0.0
H1154 H 0.73441 0.87038 0.35467 0.0
H1155 H 0.76291 0.87786 0.33031 0.0
H1156 H 0.81488 0.83693 0.32802 0.0
H1157 H 0.80009 0.81589 0.35528 0.0
C1158 C 0.76195 0.81967 0.36997 0.0
C1159 C 0.74131 0.82278 0.37525 0.0
C1160 C 0.7724 0.83415 0.358 0.0
C1161 C 0.73195 0.8417 0.37083 0.0
C1162 C 0.74241 0.85647 0.35914 0.0
C1163 C 0.77128 0.86483 0.33648 0.0
C1164 C 0.78986 0.8588 0.32732 0.0
C1165 C 0.76225 0.85233 0.35168 0.0
C1166 C 0.80055 0.84175 0.33501 0.0
C1167 C 0.79204 0.82965 0.35046 0.0
H1168 H 0.66562 0.23511 0.86848 0.0
H1169 H 0.686 0.19811 0.81735 0.0
H1170 H 0.66292 0.21638 0.79432 0.0
H1171 H 0.64103 0.24575 0.78768 0.0
H1172 H 0.6211 0.28455 0.83746 0.0
H1173 H 0.63956 0.26263 0.86215 0.0
C1174 C 0.66456 0.23082 0.8524 0.0
C1175 C 0.67761 0.2155 0.84449 0.0
C1176 C 0.65155 0.24187 0.839 0.0
C1177 C 0.67626 0.21006 0.82365 0.0
C1178 C 0.66309 0.22049 0.81048 0.0
C1179 C 0.64044 0.24921 0.80399 0.0
C1180 C 0.63006 0.26681 0.81078 0.0
C1181 C 0.65132 0.2369 0.81782 0.0
C1182 C 0.62907 0.27103 0.83193 0.0
C1183 C 0.63975 0.25859 0.84599 0.0
H1184 H 0.23704 0.79753 0.62827 0.0
H1185 H 0.28535 0.84254 0.62478 0.0
H1186 H 0.2638 0.86743 0.6433 0.0
H1187 H 0.23408 0.87318 0.66667 0.0
H1188 H 0.18738 0.82645 0.67143 0.0
H1189 H 0.20503 0.8056 0.64581 0.0
C1190 C 0.24253 0.81305 0.63099 0.0
C1191 C 0.26266 0.81827 0.62546 0.0
C1192 C 0.23036 0.82685 0.64206 0.0
C1193 C 0.26978 0.83833 0.62889 0.0
C1194 C 0.25755 0.85243 0.63966 0.0
C1195 C 0.22746 0.8588 0.66144 0.0
C1196 C 0.20961 0.85118 0.6709 0.0
C1197 C 0.2382 0.84647 0.64724 0.0
C1198 C 0.20119 0.83246 0.66433 0.0
C1199 C 0.21133 0.8205 0.64979 0.0
H1200 H 0.716 0.74551 0.14555 0.0
H1201 H 0.66615 0.78295 0.12333 0.0
H1202 H 0.64154 0.76209 0.14308 0.0
H1203 H 0.63527 0.7359 0.17049 0.0
H1204 H 0.68651 0.70021 0.19291 0.0
H1205 H 0.70949 0.71749 0.16911 0.0
C1206 C 0.6997 0.74893 0.14479 0.0
C1207 C 0.69285 0.76584 0.13335 0.0
C1208 C 0.68593 0.73724 0.15637 0.0
C1209 C 0.67171 0.76996 0.13213 0.0
C1210 C 0.65771 0.75813 0.14353 0.0
C1211 C 0.65138 0.73171 0.16978 0.0
C1212 C 0.65929 0.71705 0.1836 0.0
C1213 C 0.66475 0.74214 0.15628 0.0
C1214 C 0.68016 0.71168 0.18263 0.0
C1215 C 0.69333 0.72154 0.16903 0.0
H1216 H 0.77029 0.16825 0.71473 0.0
H1217 H 0.77913 0.12156 0.6685 0.0
H1218 H 0.75703 0.14092 0.64469 0.0
H1219 H 0.73544 0.17179 0.63717 0.0
H1220 H 0.72808 0.21774 0.68462 0.0
H1221 H 0.74941 0.19792 0.70771 0.0
C1222 C 0.76744 0.16217 0.69947 0.0
C1223 C 0.77637 0.1435 0.69341 0.0
C1224 C 0.75498 0.17332 0.68602 0.0
C1225 C 0.77242 0.13593 0.67355 0.0
C1226 C 0.75981 0.14701 0.65994 0.0
C1227 C 0.73853 0.17738 0.65256 0.0
C1228 C 0.73017 0.19628 0.65907 0.0
C1229 C 0.75104 0.16582 0.66601 0.0
C1230 C 0.73431 0.20333 0.67909 0.0
C1231 C 0.74652 0.19199 0.6924 0.0
H1232 H 0.33928 0.23076 0.13571 0.0
H1233 H 0.28392 0.26606 0.14485 0.0
H1234 H 0.30243 0.29026 0.16653 0.0
H1235 H 0.33245 0.298 0.18728 0.0
H1236 H 0.38799 0.26279 0.18012 0.0
H1237 H 0.37155 0.24205 0.15309 0.0
C1238 C 0.33153 0.2441 0.14199 0.0
C1239 C 0.31027 0.24658 0.13895 0.0
C1240 C 0.3422 0.25772 0.15505 0.0
C1241 C 0.30025 0.2638 0.14722 0.0
C1242 C 0.31079 0.27759 0.15966 0.0
C1243 C 0.34107 0.28604 0.17948 0.0
C1244 C 0.36118 0.28163 0.18575 0.0
C1245 C 0.33147 0.27416 0.16439 0.0
C1246 C 0.37242 0.26636 0.17546 0.0
C1247 C 0.36296 0.25445 0.16015 0.0
H1248 H 0.8285 0.62798 0.72005 0.0
H1249 H 0.77325 0.64382 0.75308 0.0
H1250 H 0.79339 0.66093 0.7795 0.0
H1251 H 0.82571 0.67586 0.79034 0.0
H1252 H 0.88148 0.66236 0.7574 0.0
H1253 H 0.86236 0.63958 0.73403 0.0
C1254 C 0.82104 0.63478 0.73331 0.0
C1255 C 0.79946 0.63494 0.73456 0.0
C1256 C 0.83278 0.64519 0.74829 0.0
C1257 C 0.78985 0.64381 0.75172 0.0
C1258 C 0.80133 0.6536 0.76682 0.0
C1259 C 0.83375 0.66759 0.77828 0.0
C1260 C 0.85481 0.67091 0.77533 0.0
C1261 C 0.82266 0.65509 0.76481 0.0
C1262 C 0.8652 0.65997 0.7599 0.0
C1263 C 0.85424 0.64712 0.74646 0.0
H1264 H 0.84282 0.28386 0.23742 0.0
H1265 H 0.87849 0.33366 0.21224 0.0
H1266 H 0.86094 0.35796 0.23536 0.0
H1267 H 0.83345 0.36496 0.26135 0.0
H1268 H 0.79849 0.31381 0.28523 0.0
H1269 H 0.81792 0.29012 0.26408 0.0
C1270 C 0.84682 0.30004 0.23692 0.0
C1271 C 0.86165 0.30703 0.22294 0.0
C1272 C 0.83677 0.31367 0.25007 0.0
C1273 C 0.86699 0.32795 0.22283 0.0
C1274 C 0.85694 0.34181 0.23601 0.0
C1275 C 0.83034 0.34861 0.26204 0.0
C1276 C 0.81437 0.3412 0.27466 0.0
C1277 C 0.84152 0.33487 0.24951 0.0
C1278 C 0.81048 0.31997 0.27545 0.0
C1279 C 0.82159 0.30636 0.26337 0.0
H1280 H 0.15677 0.28918 0.75018 0.0
H1281 H 0.12814 0.34013 0.78129 0.0
H1282 H 0.14583 0.36429 0.75815 0.0
H1283 H 0.17242 0.3706 0.73113 0.0
H1284 H 0.20071 0.31845 0.70139 0.0
H1285 H 0.17998 0.29507 0.72177 0.0
C1286 C 0.15428 0.30558 0.75185 0.0
C1287 C 0.14152 0.31294 0.76758 0.0
C1288 C 0.16448 0.31914 0.73872 0.0
C1289 C 0.13803 0.33416 0.7693 0.0
C1290 C 0.14819 0.34794 0.75614 0.0
C1291 C 0.17368 0.35413 0.7289 0.0
C1292 C 0.18824 0.34623 0.71496 0.0
C1293 C 0.16187 0.34059 0.74106 0.0
C1294 C 0.18981 0.32488 0.71222 0.0
C1295 C 0.17798 0.31148 0.72387 0.0
H1296 H 0.20739 0.64457 0.24506 0.0
H1297 H 0.1571 0.62949 0.28533 0.0
H1298 H 0.13295 0.64664 0.26176 0.0
H1299 H 0.12743 0.67036 0.23206 0.0
H1300 H 0.17896 0.68568 0.19327 0.0
H1301 H 0.20132 0.66365 0.2136 0.0
C1302 C 0.19107 0.64477 0.24851 0.0
C1303 C 0.18398 0.63618 0.26695 0.0
C1304 C 0.17756 0.65475 0.23514 0.0
C1305 C 0.16283 0.63612 0.27117 0.0
C1306 C 0.1491 0.64602 0.25777 0.0
C1307 C 0.14341 0.66833 0.2278 0.0
C1308 C 0.15166 0.67971 0.21135 0.0
C1309 C 0.15642 0.65601 0.24002 0.0
C1310 C 0.17239 0.67718 0.206 0.0
C1311 C 0.18519 0.66466 0.21765 0.0
H1312 H 0.76911 0.86393 0.66909 0.0
H1313 H 0.78258 0.81324 0.70989 0.0
H1314 H 0.76031 0.79094 0.69016 0.0
H1315 H 0.73619 0.78577 0.66262 0.0
H1316 H 0.72124 0.83526 0.62112 0.0
H1317 H 0.74502 0.85804 0.63971 0.0
C1318 C 0.76722 0.84798 0.67351 0.0
C1319 C 0.77739 0.84036 0.69106 0.0
C1320 C 0.75411 0.83503 0.66206 0.0
C1321 C 0.77482 0.81963 0.6966 0.0
C1322 C 0.76209 0.80678 0.68532 0.0
C1323 C 0.73806 0.80154 0.65753 0.0
C1324 C 0.72682 0.80887 0.64064 0.0
C1325 C 0.7515 0.81437 0.66824 0.0
C1326 C 0.7297 0.82927 0.63415 0.0
C1327 C 0.74325 0.84228 0.6448 0.0
H1328 H 0.62217 0.26296 0.17042 0.0
H1329 H 0.6651 0.31316 0.16614 0.0
H1330 H 0.68483 0.29462 0.14021 0.0
H1331 H 0.69396 0.26151 0.12519 0.0
H1332 H 0.65308 0.20993 0.13118 0.0
H1333 H 0.6282 0.23148 0.14967 0.0
C1334 C 0.63535 0.27007 0.1631 0.0
C1335 C 0.64229 0.28931 0.17003 0.0
C1336 C 0.64716 0.25886 0.14884 0.0
C1337 C 0.65957 0.29835 0.16089 0.0
C1338 C 0.67092 0.2877 0.14621 0.0
C1339 C 0.67921 0.25529 0.12985 0.0
C1340 C 0.67519 0.23435 0.12694 0.0
C1341 C 0.66549 0.26755 0.14098 0.0
C1342 C 0.65626 0.22615 0.13314 0.0
C1343 C 0.64219 0.23842 0.1439 0.0
H1344 H 0.24573 0.20943 0.63846 0.0
H1345 H 0.28858 0.16086 0.62497 0.0
H1346 H 0.26652 0.13612 0.64323 0.0
H1347 H 0.23758 0.13 0.66767 0.0
H1348 H 0.19623 0.17994 0.68152 0.0
H1349 H 0.21486 0.2024 0.65814 0.0
C1350 C 0.25002 0.19332 0.63919 0.0
C1351 C 0.26876 0.18692 0.63075 0.0
C1352 C 0.23754 0.1795 0.64987 0.0
C1353 C 0.27415 0.16604 0.63144 0.0
C1354 C 0.26162 0.15199 0.64199 0.0
C1355 C 0.23239 0.14562 0.66504 0.0
C1356 C 0.21573 0.15345 0.6764 0.0
C1357 C 0.24363 0.15873 0.65193 0.0
C1358 C 0.20915 0.17371 0.67305 0.0
C1359 C 0.21982 0.18657 0.65976 0.0
H1360 H 0.29329 0.74198 0.14125 0.0
H1361 H 0.34212 0.78461 0.12805 0.0
H1362 H 0.36664 0.76242 0.14644 0.0
H1363 H 0.37248 0.73348 0.17096 0.0
H1364 H 0.32227 0.69243 0.18464 0.0
H1365 H 0.30005 0.7111 0.16103 0.0
C1366 C 0.30941 0.7462 0.14208 0.0
C1367 C 0.31594 0.76493 0.13368 0.0
C1368 C 0.3231 0.73365 0.15285 0.0
C1369 C 0.33683 0.7702 0.13449 0.0
C1370 C 0.35076 0.75759 0.14511 0.0
C1371 C 0.35687 0.72835 0.16822 0.0
C1372 C 0.34888 0.71176 0.17957 0.0
C1373 C 0.34389 0.73964 0.15503 0.0
C1374 C 0.32861 0.70528 0.17614 0.0
C1375 C 0.31589 0.71598 0.16273 0.0
H1376 H 0.75484 0.2156 0.35587 0.0
H1377 H 0.71599 0.16622 0.37668 0.0
H1378 H 0.7373 0.14134 0.35785 0.0
H1379 H 0.76415 0.13473 0.3313 0.0
H1380 H 0.80148 0.18532 0.3102 0.0
H1381 H 0.78383 0.20859 0.33351 0.0
C1382 C 0.75123 0.19933 0.35656 0.0
C1383 C 0.73377 0.19272 0.36731 0.0
C1384 C 0.76323 0.18537 0.3455 0.0
C1385 C 0.72939 0.17162 0.36842 0.0
C1386 C 0.74148 0.15745 0.35754 0.0
C1387 C 0.76869 0.15073 0.33225 0.0
C1388 C 0.78389 0.1584 0.3189 0.0
C1389 C 0.75804 0.16426 0.34542 0.0
C1390 C 0.78963 0.17916 0.32016 0.0
C1391 C 0.77954 0.19249 0.33345 0.0
H1392 H 0.28888 0.25511 0.8619 0.0
H1393 H 0.3379 0.21346 0.87738 0.0
H1394 H 0.36252 0.23528 0.85875 0.0
H1395 H 0.36846 0.26329 0.83321 0.0
H1396 H 0.31803 0.30322 0.81712 0.0
H1397 H 0.29565 0.28529 0.84109 0.0
C1398 C 0.30506 0.25106 0.86156 0.0
C1399 C 0.31162 0.23268 0.87064 0.0
C1400 C 0.3188 0.26333 0.85054 0.0
C1401 C 0.33258 0.22762 0.87043 0.0
C1402 C 0.34658 0.24 0.85964 0.0
C1403 C 0.35274 0.26833 0.83546 0.0
C1404 C 0.34475 0.28434 0.8233 0.0
C1405 C 0.33967 0.25747 0.84891 0.0
C1406 C 0.32437 0.29075 0.82617 0.0
C1407 C 0.31155 0.2805 0.83983 0.0
H1408 H 0.24845 0.82061 0.38061 0.0
H1409 H 0.3024 0.84742 0.35342 0.0
H1410 H 0.28119 0.87262 0.33525 0.0
H1411 H 0.24723 0.88067 0.3207 0.0
H1412 H 0.1935 0.85049 0.34462 0.0
H1413 H 0.21431 0.83337 0.37086 0.0
C1414 C 0.25551 0.83267 0.3715 0.0
C1415 C 0.27683 0.83248 0.36843 0.0
C1416 C 0.2431 0.84625 0.36022 0.0
C1417 C 0.28598 0.84763 0.35616 0.0
C1418 C 0.27383 0.86184 0.34559 0.0
C1419 C 0.24006 0.87113 0.33235 0.0
C1420 C 0.21897 0.86691 0.33104 0.0
C1421 C 0.25233 0.86045 0.34655 0.0
C1422 C 0.20972 0.85408 0.34567 0.0
C1423 C 0.22166 0.84413 0.36048 0.0
H1424 H 0.62128 0.75589 0.82292 0.0
H1425 H 0.64497 0.69638 0.8394 0.0
H1426 H 0.66644 0.71188 0.86606 0.0
H1427 H 0.6842 0.74295 0.87821 0.0
H1428 H 0.66146 0.80261 0.86101 0.0
H1429 H 0.6335 0.78669 0.84148 0.0
C1430 C 0.6304 0.74633 0.83309 0.0
C1431 C 0.63159 0.72511 0.82945 0.0
C1432 C 0.64311 0.75547 0.84797 0.0
C1433 C 0.64372 0.71274 0.84225 0.0
C1434 C 0.65616 0.72163 0.8573 0.0
C1435 C 0.67249 0.75237 0.87099 0.0
C1436 C 0.67468 0.77381 0.87098 0.0
C1437 C 0.65684 0.74307 0.85943 0.0
C1438 C 0.65978 0.78605 0.86136 0.0
C1439 C 0.64398 0.77693 0.84999 0.0
H1440 H 0.10235 0.19469 0.21046 0.0
H1441 H 0.14132 0.23657 0.24413 0.0
H1442 H 0.15488 0.20807 0.2643 0.0
H1443 H 0.15982 0.17099 0.26828 0.0
H1444 H 0.12203 0.12894 0.23354 0.0
H1445 H 0.10357 0.1578 0.21833 0.0
C1446 C 0.1135 0.19767 0.22249 0.0
C1447 C 0.12112 0.21772 0.22542 0.0
C1448 C 0.12161 0.18114 0.23376 0.0
C1449 C 0.13537 0.22128 0.24129 0.0
C1450 C 0.1432 0.20497 0.25283 0.0
C1451 C 0.14724 0.16808 0.25774 0.0
C1452 C 0.14266 0.1478 0.25174 0.0
C1453 C 0.13708 0.18476 0.24858 0.0
C1454 C 0.12608 0.14437 0.23829 0.0
C1455 C 0.11558 0.16089 0.22945 0.0
H1456 H 0.32804 0.64412 0.76754 0.0
H1457 H 0.36669 0.61392 0.72288 0.0
H1458 H 0.33667 0.59684 0.70819 0.0
H1459 H 0.29915 0.59592 0.704 0.0
H1460 H 0.26062 0.62775 0.7477 0.0
H1461 H 0.2909 0.63851 0.76689 0.0
C1462 C 0.32999 0.63343 0.75489 0.0
C1463 C 0.34952 0.63069 0.74601 0.0
C1464 C 0.31262 0.6242 0.74611 0.0
C1465 C 0.35182 0.61647 0.72991 0.0
C1466 C 0.33462 0.60683 0.72137 0.0
C1467 C 0.29732 0.60483 0.71797 0.0
C1468 C 0.27763 0.61144 0.72408 0.0
C1469 C 0.31486 0.61142 0.7287 0.0
C1470 C 0.27557 0.62271 0.74242 0.0
C1471 C 0.29291 0.62894 0.7534 0.0
H1472 H 0.85119 0.82608 0.27146 0.0
H1473 H 0.88022 0.86622 0.2273 0.0
H1474 H 0.89761 0.8368 0.21178 0.0
H1475 H 0.89949 0.79935 0.20701 0.0
H1476 H 0.86846 0.75938 0.24998 0.0
H1477 H 0.8571 0.78909 0.26974 0.0
C1478 C 0.86167 0.82851 0.25871 0.0
C1479 C 0.86402 0.84829 0.25028 0.0
C1480 C 0.87101 0.81148 0.24941 0.0
C1481 C 0.87794 0.85115 0.234 0.0
C1482 C 0.88778 0.83429 0.225 0.0
C1483 C 0.89063 0.79709 0.22095 0.0
C1484 C 0.8845 0.77716 0.22676 0.0
C1485 C 0.88364 0.8143 0.23197 0.0
C1486 C 0.87313 0.77455 0.24496 0.0
C1487 C 0.8666 0.79154 0.25628 0.0
H1488 H 0.63664 0.38115 0.7364 0.0
H1489 H 0.66942 0.34361 0.7802 0.0
H1490 H 0.70182 0.35927 0.7697 0.0
H1491 H 0.72111 0.37901 0.74423 0.0
H1492 H 0.68861 0.41449 0.6985 0.0
H1493 H 0.65586 0.40455 0.71386 0.0
C1494 C 0.6508 0.37681 0.74406 0.0
C1495 C 0.65065 0.36105 0.75888 0.0
C1496 C 0.66949 0.38529 0.73737 0.0
C1497 C 0.66914 0.35556 0.76861 0.0
C1498 C 0.68769 0.36444 0.76254 0.0
C1499 C 0.70691 0.38495 0.73784 0.0
C1500 C 0.70735 0.39718 0.71998 0.0
C1501 C 0.68812 0.37862 0.74631 0.0
C1502 C 0.68875 0.40486 0.71208 0.0
C1503 C 0.66999 0.39911 0.72082 0.0
H1504 H 0.09808 0.80742 0.79807 0.0
H1505 H 0.11688 0.76471 0.75086 0.0
H1506 H 0.12875 0.79312 0.72956 0.0
H1507 H 0.13955 0.82901 0.72727 0.0
H1508 H 0.12258 0.8716 0.77524 0.0
H1509 H 0.10375 0.84443 0.79295 0.0
C1510 C 0.10431 0.80434 0.78292 0.0
C1511 C 0.10704 0.78391 0.77632 0.0
C1512 C 0.11164 0.82074 0.77092 0.0
C1513 C 0.11492 0.78025 0.75652 0.0
C1514 C 0.12177 0.7965 0.74431 0.0
C1515 C 0.13132 0.83252 0.74134 0.0
C1516 C 0.13293 0.8522 0.75016 0.0
C1517 C 0.12112 0.81668 0.7518 0.0
C1518 C 0.12183 0.85654 0.7682 0.0
C1519 C 0.11117 0.84094 0.77845 0.0
H1520 H 0.63244 0.62424 0.27744 0.0
H1521 H 0.66843 0.63785 0.22341 0.0
H1522 H 0.69743 0.61888 0.23766 0.0
H1523 H 0.71447 0.60496 0.2681 0.0
H1524 H 0.67938 0.59354 0.32324 0.0
H1525 H 0.64808 0.60467 0.30579 0.0
C1526 C 0.64639 0.62245 0.26848 0.0
C1527 C 0.64842 0.63275 0.24956 0.0
C1528 C 0.66332 0.61224 0.27716 0.0
C1529 C 0.66659 0.63029 0.23814 0.0
C1530 C 0.68322 0.61955 0.24633 0.0
C1531 C 0.69991 0.60445 0.27619 0.0
C1532 C 0.69938 0.59894 0.2971 0.0
C1533 C 0.68211 0.61149 0.26629 0.0
C1534 C 0.6803 0.59797 0.30721 0.0
C1535 C 0.66238 0.60445 0.29727 0.0
H1536 H 0.90779 0.19661 0.78955 0.0
H1537 H 0.86797 0.23689 0.75489 0.0
H1538 H 0.85623 0.20793 0.7343 0.0
H1539 H 0.85261 0.1707 0.73052 0.0
H1540 H 0.89127 0.13014 0.76604 0.0
H1541 H 0.90845 0.15971 0.78146 0.0
C1542 C 0.89689 0.19917 0.77719 0.0
C1543 C 0.8884 0.21885 0.77416 0.0
C1544 C 0.88982 0.18233 0.76565 0.0
C1545 C 0.87453 0.22188 0.75784 0.0
C1546 C 0.86774 0.20529 0.74606 0.0
C1547 C 0.86513 0.16829 0.74127 0.0
C1548 C 0.8703 0.14823 0.74746 0.0
C1549 C 0.87454 0.18535 0.75051 0.0
C1550 C 0.88682 0.1454 0.76112 0.0
C1551 C 0.89656 0.16233 0.77009 0.0
H1552 H 0.33071 0.35441 0.23269 0.0
H1553 H 0.37045 0.38188 0.27817 0.0
H1554 H 0.34136 0.40078 0.29245 0.0
H1555 H 0.30388 0.40429 0.29591 0.0
H1556 H 0.2642 0.37541 0.2512 0.0
H1557 H 0.29404 0.36254 0.23266 0.0
C1558 C 0.33314 0.3649 0.24543 0.0
C1559 C 0.35265 0.36634 0.25463 0.0
C1560 C 0.31626 0.37524 0.25395 0.0
C1561 C 0.35557 0.3803 0.27089 0.0
C1562 C 0.33889 0.391 0.27919 0.0
C1563 C 0.30174 0.3956 0.28185 0.0
C1564 C 0.28179 0.39043 0.27526 0.0
C1565 C 0.31901 0.3878 0.27146 0.0
C1566 C 0.27936 0.37934 0.25685 0.0
C1567 C 0.29643 0.37191 0.24623 0.0
H1568 H 0.25 0.12441 0.13962 0.0
H1569 H 0.28536 0.16757 0.1755 0.0
H1570 H 0.27341 0.15142 0.20717 0.0
H1571 H 0.24846 0.12921 0.22439 0.0
H1572 H 0.21115 0.08771 0.18849 0.0
H1573 H 0.22856 0.09882 0.15718 0.0
C1574 C 0.25557 0.12991 0.15434 0.0
C1575 C 0.26833 0.14735 0.1552 0.0
C1576 C 0.248 0.12106 0.17253 0.0
C1577 C 0.27537 0.1543 0.17442 0.0
C1578 C 0.26845 0.14514 0.19255 0.0
C1579 C 0.24439 0.12226 0.20979 0.0
C1580 C 0.22822 0.10794 0.20878 0.0
C1581 C 0.25403 0.12916 0.19177 0.0
C1582 C 0.22335 0.09896 0.18972 0.0
C1583 C 0.23327 0.10535 0.17177 0.0
H1584 H 0.37579 0.7423 0.63713 0.0
H1585 H 0.33439 0.77983 0.6729 0.0
H1586 H 0.34949 0.76669 0.7046 0.0
H1587 H 0.36989 0.74016 0.72182 0.0
H1588 H 0.40989 0.70118 0.68597 0.0
H1589 H 0.40013 0.71951 0.65476 0.0
C1590 C 0.37045 0.74806 0.65184 0.0
C1591 C 0.35371 0.76174 0.65262 0.0
C1592 C 0.37872 0.7399 0.67005 0.0
C1593 C 0.34707 0.76909 0.67184 0.0
C1594 C 0.35562 0.7615 0.69001 0.0
C1595 C 0.37682 0.73591 0.70726 0.0
C1596 C 0.39025 0.71899 0.70623 0.0
C1597 C 0.37074 0.74617 0.68927 0.0
C1598 C 0.39928 0.71394 0.68723 0.0
C1599 C 0.39366 0.72439 0.66932 0.0
H1600 H 0.78449 0.90216 0.19548 0.0
H1601 H 0.75467 0.85868 0.2358 0.0
H1602 H 0.73556 0.84464 0.2068 0.0
H1603 H 0.73206 0.84075 0.16949 0.0
H1604 H 0.7629 0.88333 0.129 0.0
H1605 H 0.77645 0.90191 0.15861 0.0
C1606 C 0.77349 0.8899 0.19803 0.0
C1607 C 0.77142 0.88118 0.21774 0.0
C1608 C 0.76286 0.88157 0.18119 0.0
C1609 C 0.75681 0.86554 0.22078 0.0
C1610 C 0.74592 0.85741 0.20416 0.0
C1611 C 0.74137 0.85436 0.1671 0.0
C1612 C 0.74684 0.86032 0.14703 0.0
C1613 C 0.74955 0.86468 0.18419 0.0
C1614 C 0.75862 0.87823 0.14426 0.0
C1615 C 0.7665 0.88881 0.16121 0.0
H1616 H 0.61206 0.2591 0.721 0.0
H1617 H 0.5876 0.31054 0.68694 0.0
H1618 H 0.5979 0.29436 0.65471 0.0
H1619 H 0.61972 0.26907 0.63704 0.0
H1620 H 0.64627 0.21909 0.67163 0.0
H1621 H 0.6289 0.23097 0.70266 0.0
C1622 C 0.60856 0.2666 0.70652 0.0
C1623 C 0.59952 0.28625 0.70646 0.0
C1624 C 0.61509 0.25752 0.68808 0.0
C1625 C 0.59481 0.29555 0.6875 0.0
C1626 C 0.60077 0.28633 0.66903 0.0
C1627 C 0.62114 0.26038 0.6512 0.0
C1628 C 0.63451 0.24341 0.65211 0.0
C1629 C 0.6118 0.26781 0.66921 0.0
C1630 C 0.63624 0.23235 0.6706 0.0
C1631 C 0.62642 0.23921 0.68839 0.0
H1632 H 0.22046 0.89906 0.79902 0.0
H1633 H 0.2451 0.85272 0.75837 0.0
H1634 H 0.26602 0.8391 0.78629 0.0
H1635 H 0.27277 0.83678 0.8232 0.0
H1636 H 0.24689 0.882 0.8643 0.0
H1637 H 0.23149 0.89989 0.83514 0.0
C1638 C 0.2307 0.88624 0.79613 0.0
C1639 C 0.23082 0.87666 0.77671 0.0
C1640 C 0.24239 0.87816 0.81239 0.0
C1641 C 0.24443 0.86023 0.77322 0.0
C1642 C 0.2564 0.85237 0.7892 0.0
C1643 C 0.26415 0.85081 0.82578 0.0
C1644 C 0.26062 0.85775 0.84598 0.0
C1645 C 0.25481 0.86066 0.80903 0.0
C1646 C 0.24969 0.87616 0.84896 0.0
C1647 C 0.24074 0.88634 0.83228 0.0
H1648 H 0.6428 0.74306 0.27207 0.0
H1649 H 0.59417 0.71299 0.30575 0.0
H1650 H 0.60429 0.73111 0.33697 0.0
H1651 H 0.63023 0.75108 0.35573 0.0
H1652 H 0.67982 0.77972 0.32224 0.0
H1653 H 0.66578 0.76688 0.28995 0.0
C1654 C 0.63414 0.74073 0.28613 0.0
C1655 C 0.61801 0.72634 0.28661 0.0
C1656 C 0.64033 0.75083 0.30417 0.0
C1657 C 0.60683 0.72377 0.30494 0.0
C1658 C 0.61264 0.73409 0.32286 0.0
C1659 C 0.63769 0.75496 0.34133 0.0
C1660 C 0.65625 0.76605 0.34146 0.0
C1661 C 0.62988 0.74701 0.32283 0.0
C1662 C 0.66566 0.77099 0.32263 0.0
C1663 C 0.65769 0.76358 0.30414 0.0
H1664 H 0.76266 0.11097 0.77838 0.0
H1665 H 0.81437 0.08922 0.8138 0.0
H1666 H 0.7969 0.09881 0.8456 0.0
H1667 H 0.76995 0.11917 0.86258 0.0
H1668 H 0.71921 0.14241 0.82669 0.0
H1669 H 0.73308 0.12606 0.79598 0.0
C1670 C 0.76995 0.10792 0.79306 0.0
C1671 C 0.78999 0.09984 0.79366 0.0
C1672 C 0.76005 0.11393 0.81125 0.0
C1673 C 0.79904 0.09563 0.81285 0.0
C1674 C 0.78909 0.10122 0.83107 0.0
C1675 C 0.76159 0.12013 0.84818 0.0
C1676 C 0.74378 0.13234 0.84686 0.0
C1677 C 0.77002 0.11125 0.83038 0.0
C1678 C 0.73311 0.13336 0.82808 0.0
C1679 C 0.74109 0.1241 0.81046 0.0
H1680 H 0.36805 0.25477 0.27792 0.0
H1681 H 0.40367 0.2949 0.31696 0.0
H1682 H 0.39087 0.27709 0.34735 0.0
H1683 H 0.3652 0.25422 0.3628 0.0
H1684 H 0.32871 0.21493 0.32368 0.0
H1685 H 0.34657 0.22801 0.29348 0.0
C1686 C 0.37334 0.25938 0.29304 0.0
C1687 C 0.38643 0.27646 0.29514 0.0
C1688 C 0.36562 0.24933 0.31051 0.0
C1689 C 0.3934 0.28197 0.31486 0.0
C1690 C 0.38602 0.27184 0.3323 0.0
C1691 C 0.36147 0.24812 0.34773 0.0
C1692 C 0.34528 0.23395 0.34552 0.0
C1693 C 0.37144 0.2561 0.33032 0.0
C1694 C 0.34089 0.22606 0.32586 0.0
C1695 C 0.35103 0.23361 0.30852 0.0
H1696 H 0.22466 0.24585 0.1105 0.0
H1697 H 0.1952 0.18939 0.09187 0.0
H1698 H 0.16185 0.20331 0.10189 0.0
H1699 H 0.14242 0.22868 0.12201 0.0
H1700 H 0.17259 0.28405 0.14266 0.0
H1701 H 0.20415 0.27352 0.12545 0.0
C1702 C 0.21091 0.23672 0.10819 0.0
C1703 C 0.21252 0.21641 0.10091 0.0
C1704 C 0.19188 0.24455 0.1146 0.0
C1705 C 0.19448 0.20498 0.09768 0.0
C1706 C 0.17538 0.21288 0.10352 0.0
C1707 C 0.15571 0.23874 0.12225 0.0
C1708 C 0.15527 0.25693 0.13397 0.0
C1709 C 0.17407 0.23224 0.11293 0.0
C1710 C 0.1726 0.26982 0.13402 0.0
C1711 C 0.19071 0.26377 0.12425 0.0
H1712 H 0.22547 0.75532 0.8784 0.0
H1713 H 0.19299 0.80382 0.90996 0.0
H1714 H 0.16021 0.78859 0.89992 0.0
H1715 H 0.14118 0.76497 0.87742 0.0
H1716 H 0.17405 0.71805 0.84396 0.0
H1717 H 0.20621 0.72903 0.85976 0.0
C1718 C 0.21125 0.76237 0.88348 0.0
C1719 C 0.21173 0.78093 0.8946 0.0
C1720 C 0.19248 0.75392 0.87709 0.0
C1721 C 0.19311 0.78967 0.90121 0.0
C1722 C 0.17433 0.78101 0.89538 0.0
C1723 C 0.15529 0.7568 0.87397 0.0
C1724 C 0.15524 0.74091 0.85928 0.0
C1725 C 0.17386 0.76365 0.88259 0.0
C1726 C 0.17368 0.73049 0.85502 0.0
C1727 C 0.1921 0.73681 0.864 0.0
H1728 H 0.74797 0.7241 0.38389 0.0
H1729 H 0.69757 0.69753 0.41785 0.0
H1730 H 0.71028 0.66308 0.41011 0.0
H1731 H 0.73187 0.64089 0.38854 0.0
H1732 H 0.78018 0.66784 0.35198 0.0
H1733 H 0.77238 0.70167 0.3662 0.0
C1734 C 0.74003 0.71081 0.39006 0.0
C1735 C 0.72164 0.71341 0.40114 0.0
C1736 C 0.74694 0.69105 0.38486 0.0
C1737 C 0.71162 0.69598 0.40907 0.0
C1738 C 0.71884 0.67625 0.40458 0.0
C1739 C 0.7411 0.65406 0.38416 0.0
C1740 C 0.75643 0.65191 0.36906 0.0
C1741 C 0.73593 0.67362 0.3917 0.0
C1742 C 0.76817 0.66915 0.36345 0.0
C1743 C 0.76366 0.68851 0.37149 0.0
H1744 H 0.80308 0.20449 0.90151 0.0
H1745 H 0.76142 0.24553 0.87008 0.0
H1746 H 0.79025 0.26671 0.85906 0.0
H1747 H 0.8272 0.2701 0.85342 0.0
H1748 H 0.86905 0.22791 0.88297 0.0
H1749 H 0.84023 0.21107 0.90009 0.0
C1750 C 0.80024 0.21831 0.89263 0.0
C1751 C 0.78012 0.22314 0.88627 0.0
C1752 C 0.81696 0.23016 0.88585 0.0
C1753 C 0.77675 0.24124 0.87494 0.0
C1754 C 0.79325 0.25336 0.86858 0.0
C1755 C 0.83012 0.25751 0.86396 0.0
C1756 C 0.85025 0.25 0.86652 0.0
C1757 C 0.81344 0.24744 0.87318 0.0
C1758 C 0.85371 0.2339 0.88052 0.0
C1759 C 0.83721 0.22414 0.89021 0.0
H1760 H 0.2776 0.30074 0.4007 0.0
H1761 H 0.2381 0.26072 0.36542 0.0
H1762 H 0.21989 0.29038 0.3517 0.0
H1763 H 0.21895 0.32745 0.34537 0.0
H1764 H 0.25902 0.36759 0.37979 0.0
H1765 H 0.27282 0.33816 0.39847 0.0
C1766 C 0.26473 0.29847 0.39036 0.0
C1767 C 0.25957 0.27852 0.38376 0.0
C1768 C 0.2545 0.31565 0.38218 0.0
C1769 C 0.24265 0.27589 0.37055 0.0
C1770 C 0.23222 0.29287 0.36262 0.0
C1771 C 0.23039 0.32984 0.35727 0.0
C1772 C 0.23824 0.34966 0.36083 0.0
C1773 C 0.2386 0.31281 0.36764 0.0
C1774 C 0.25281 0.35249 0.37656 0.0
C1775 C 0.26083 0.33563 0.38718 0.0
H1776 H 0.78064 0.75396 0.1117 0.0
H1777 H 0.81697 0.8051 0.09012 0.0
H1778 H 0.84826 0.78796 0.10171 0.0
H1779 H 0.86427 0.76166 0.12363 0.0
H1780 H 0.82736 0.71178 0.14707 0.0
H1781 H 0.79747 0.72501 0.12874 0.0
C1782 C 0.79543 0.76121 0.10912 0.0
C1783 C 0.79638 0.78101 0.10048 0.0
C1784 C 0.81329 0.75155 0.11636 0.0
C1785 C 0.81573 0.78997 0.09694 0.0
C1786 C 0.83365 0.78021 0.10367 0.0
C1787 C 0.84985 0.75333 0.12424 0.0
C1788 C 0.84797 0.73596 0.13702 0.0
C1789 C 0.8325 0.76145 0.11426 0.0
C1790 C 0.82917 0.72534 0.13757 0.0
C1791 C 0.81202 0.73296 0.12718 0.0
H1792 H 0.73604 0.3626 0.62436 0.0
H1793 H 0.78018 0.32905 0.6608 0.0
H1794 H 0.76866 0.29684 0.64551 0.0
H1795 H 0.74217 0.27799 0.6267 0.0
H1796 H 0.69648 0.31128 0.59193 0.0
H1797 H 0.71273 0.34375 0.60136 0.0
C1798 C 0.74355 0.34832 0.62851 0.0
C1799 C 0.75872 0.3482 0.64395 0.0
C1800 C 0.73634 0.32973 0.6202 0.0
C1801 C 0.7683 0.32954 0.64914 0.0
C1802 C 0.76165 0.31109 0.64047 0.0
C1803 C 0.73596 0.29231 0.62082 0.0
C1804 C 0.71785 0.29218 0.609 0.0
C1805 C 0.74503 0.31094 0.62677 0.0
C1806 C 0.71026 0.31089 0.60126 0.0
C1807 C 0.7195 0.32951 0.60672 0.0
H1808 H 0.26008 0.64171 0.62269 0.0
H1809 H 0.213 0.67711 0.65321 0.0
H1810 H 0.22524 0.70829 0.63638 0.0
H1811 H 0.25262 0.7261 0.61786 0.0
H1812 H 0.30128 0.69111 0.58939 0.0
H1813 H 0.28487 0.65917 0.60023 0.0
C1814 C 0.25215 0.65615 0.62525 0.0
C1815 C 0.23584 0.65713 0.63943 0.0
C1816 C 0.25973 0.67416 0.6161 0.0
C1817 C 0.22574 0.67597 0.64256 0.0
C1818 C 0.23278 0.69383 0.63299 0.0
C1819 C 0.25946 0.7115 0.61363 0.0
C1820 C 0.27838 0.71105 0.60316 0.0
C1821 C 0.25031 0.69323 0.62049 0.0
C1822 C 0.28685 0.69195 0.59764 0.0
C1823 C 0.27752 0.67365 0.60392 0.0
H1824 H 0.85457 0.82271 0.72495 0.0
H1825 H 0.89056 0.8634 0.76305 0.0
H1826 H 0.90794 0.83391 0.77841 0.0
H1827 H 0.90796 0.79678 0.78561 0.0
H1828 H 0.87037 0.75644 0.74865 0.0
H1829 H 0.85876 0.78557 0.72822 0.0
C1830 C 0.86657 0.8252 0.73626 0.0
C1831 C 0.87087 0.84523 0.74317 0.0
C1832 C 0.87597 0.80818 0.74554 0.0
C1833 C 0.88675 0.84815 0.75756 0.0
C1834 C 0.89659 0.83126 0.76651 0.0
C1835 C 0.8976 0.79428 0.77279 0.0
C1836 C 0.88969 0.7745 0.76901 0.0
C1837 C 0.89055 0.81121 0.76136 0.0
C1838 C 0.87644 0.77154 0.75217 0.0
C1839 C 0.86975 0.78821 0.74046 0.0
H1840 H 0.67272 0.35775 0.22619 0.0
H1841 H 0.63013 0.38184 0.27101 0.0
H1842 H 0.65812 0.39995 0.28816 0.0
H1843 H 0.69529 0.40321 0.29422 0.0
H1844 H 0.7378 0.37715 0.25043 0.0
H1845 H 0.70925 0.3658 0.22905 0.0
C1846 C 0.66942 0.36736 0.23941 0.0
C1847 C 0.64941 0.36799 0.24757 0.0
C1848 C 0.68568 0.37713 0.24964 0.0
C1849 C 0.64542 0.38083 0.26452 0.0
C1850 C 0.66147 0.39109 0.27445 0.0
C1851 C 0.69833 0.39552 0.27975 0.0
C1852 C 0.71866 0.39064 0.27419 0.0
C1853 C 0.68179 0.38847 0.26777 0.0
C1854 C 0.7223 0.38079 0.25528 0.0
C1855 C 0.70597 0.37425 0.24304 0.0
H1856 H 0.14157 0.16742 0.72761 0.0
H1857 H 0.12452 0.12461 0.77535 0.0
H1858 H 0.10508 0.15149 0.7928 0.0
H1859 H 0.09894 0.18846 0.79791 0.0
H1860 H 0.11773 0.23136 0.75088 0.0
H1861 H 0.13018 0.20313 0.72972 0.0
C1862 C 0.13319 0.1638 0.74156 0.0
C1863 C 0.13497 0.14415 0.75041 0.0
C1864 C 0.1226 0.17948 0.75188 0.0
C1865 C 0.12367 0.13966 0.7683 0.0
C1866 C 0.11265 0.15509 0.7784 0.0
C1867 C 0.10525 0.1916 0.7828 0.0
C1868 C 0.10784 0.21204 0.77623 0.0
C1869 C 0.11293 0.17529 0.77088 0.0
C1870 C 0.11589 0.2158 0.75651 0.0
C1871 C 0.12308 0.19965 0.74438 0.0
H1872 H 0.33277 0.63857 0.23064 0.0
H1873 H 0.37384 0.62114 0.27977 0.0
H1874 H 0.34617 0.60213 0.29645 0.0
H1875 H 0.30902 0.59641 0.30037 0.0
H1876 H 0.26788 0.61535 0.25182 0.0
H1877 H 0.2969 0.62748 0.23158 0.0
C1878 C 0.33584 0.63021 0.24474 0.0
C1879 C 0.35522 0.63174 0.25418 0.0
C1880 C 0.31972 0.6198 0.25456 0.0
C1881 C 0.359 0.62047 0.27226 0.0
C1882 C 0.34313 0.60969 0.28191 0.0
C1883 C 0.30643 0.60268 0.28513 0.0
C1884 C 0.28625 0.60542 0.27787 0.0
C1885 C 0.32319 0.61015 0.27373 0.0
C1886 C 0.28322 0.61339 0.25798 0.0
C1887 C 0.29982 0.62041 0.24638 0.0
H1888 H 0.85932 0.16533 0.26768 0.0
H1889 H 0.87259 0.12062 0.22048 0.0
H1890 H 0.89379 0.14571 0.20239 0.0
H1891 H 0.90255 0.18206 0.19658 0.0
H1892 H 0.8874 0.22697 0.24302 0.0
H1893 H 0.87326 0.20006 0.26485 0.0
C1894 C 0.86725 0.16088 0.2537 0.0
C1895 C 0.86392 0.14129 0.2452 0.0
C1896 C 0.87886 0.17556 0.24302 0.0
C1897 C 0.87465 0.13568 0.22727 0.0
C1898 C 0.88668 0.15008 0.21681 0.0
C1899 C 0.89669 0.18588 0.21171 0.0
C1900 C 0.89561 0.20656 0.21795 0.0
C1901 C 0.88799 0.17037 0.22399 0.0
C1902 C 0.88808 0.21122 0.23768 0.0
C1903 C 0.87993 0.19584 0.25017 0.0
H1904 H 0.30993 0.40495 0.7054 0.0
H1905 H 0.26503 0.37917 0.74687 0.0
H1906 H 0.2924 0.36607 0.76883 0.0
H1907 H 0.32842 0.35642 0.77254 0.0
H1908 H 0.37338 0.37983 0.72973 0.0
H1909 H 0.34676 0.39984 0.71243 0.0
C1910 C 0.30614 0.39697 0.71954 0.0
C1911 C 0.28548 0.39269 0.72429 0.0
C1912 C 0.32199 0.38883 0.73176 0.0
C1913 C 0.28082 0.38238 0.7427 0.0
C1914 C 0.29647 0.37484 0.75525 0.0
C1915 C 0.33254 0.36628 0.75973 0.0
C1916 C 0.35278 0.3662 0.75214 0.0
C1917 C 0.31705 0.37709 0.74937 0.0
C1918 C 0.35787 0.37937 0.73576 0.0
C1919 C 0.34261 0.39072 0.72574 0.0
H1920 H 0.15148 0.82325 0.27313 0.0
H1921 H 0.11819 0.86837 0.23763 0.0
H1922 H 0.09909 0.84104 0.22046 0.0
H1923 H 0.09677 0.80457 0.211 0.0
H1924 H 0.13203 0.75974 0.24494 0.0
H1925 H 0.14521 0.7867 0.26735 0.0
C1926 C 0.13968 0.82719 0.26203 0.0
C1927 C 0.13663 0.84784 0.25637 0.0
C1928 C 0.12933 0.81139 0.25164 0.0
C1929 C 0.12108 0.8526 0.24211 0.0
C1930 C 0.11023 0.83696 0.23217 0.0
C1931 C 0.10694 0.80061 0.2236 0.0
C1932 C 0.11373 0.78022 0.226 0.0
C1933 C 0.11499 0.8163 0.23607 0.0
C1934 C 0.12681 0.77536 0.24252 0.0
C1935 C 0.1344 0.79078 0.25534 0.0
H1936 H 0.71565 0.61894 0.73877 0.0
H1937 H 0.67845 0.59502 0.68928 0.0
H1938 H 0.64748 0.60768 0.7063 0.0
H1939 H 0.63193 0.63074 0.73191 0.0
H1940 H 0.6698 0.65651 0.77995 0.0
H1941 H 0.69946 0.6377 0.76693 0.0
C1942 C 0.70075 0.6161 0.73186 0.0
C1943 C 0.69945 0.60643 0.71254 0.0
C1944 C 0.68311 0.624 0.74136 0.0
C1945 C 0.67996 0.6026 0.70403 0.0
C1946 C 0.66223 0.60996 0.7137 0.0
C1947 C 0.64654 0.63184 0.73986 0.0
C1948 C 0.64872 0.6453 0.75667 0.0
C1949 C 0.66374 0.62149 0.73188 0.0
C1950 C 0.66776 0.64647 0.76681 0.0
C1951 C 0.68476 0.63577 0.75934 0.0
H1952 H 0.76807 0.87069 0.85741 0.0
H1953 H 0.72466 0.83515 0.82194 0.0
H1954 H 0.73664 0.85152 0.79045 0.0
H1955 H 0.76317 0.87128 0.77266 0.0
H1956 H 0.80791 0.90538 0.80786 0.0
H1957 H 0.79135 0.89457 0.83974 0.0
C1958 C 0.76088 0.86686 0.84287 0.0
C1959 C 0.74578 0.85139 0.84202 0.0
C1960 C 0.76824 0.87592 0.8247 0.0
C1961 C 0.73653 0.84678 0.82303 0.0
C1962 C 0.74341 0.85609 0.80497 0.0
C1963 C 0.76909 0.87672 0.78727 0.0
C1964 C 0.78705 0.88875 0.78784 0.0
C1965 C 0.75987 0.86996 0.80555 0.0
C1966 C 0.79426 0.89592 0.80693 0.0
C1967 C 0.78486 0.88964 0.8252 0.0
H1968 H 0.59818 0.28314 0.2994 0.0
H1969 H 0.64611 0.25881 0.26045 0.0
H1970 H 0.65993 0.23934 0.28932 0.0
H1971 H 0.66182 0.23399 0.32655 0.0
H1972 H 0.61469 0.25936 0.36577 0.0
H1973 H 0.59696 0.27322 0.33579 0.0
C1974 C 0.6114 0.27326 0.29709 0.0
C1975 C 0.62135 0.27285 0.27787 0.0
C1976 C 0.61957 0.26241 0.31387 0.0
C1977 C 0.63828 0.25968 0.27512 0.0
C1978 C 0.64626 0.24857 0.29166 0.0
C1979 C 0.64743 0.24216 0.32854 0.0
C1980 C 0.63988 0.24602 0.34845 0.0
C1981 C 0.63757 0.25055 0.31128 0.0
C1982 C 0.62102 0.25635 0.35067 0.0
C1983 C 0.61091 0.26441 0.33352 0.0
H1984 H 0.22175 0.09639 0.80065 0.0
H1985 H 0.2465 0.14405 0.76163 0.0
H1986 H 0.26585 0.15791 0.79054 0.0
H1987 H 0.27079 0.16008 0.82777 0.0
H1988 H 0.2447 0.11345 0.86714 0.0
H1989 H 0.23129 0.09541 0.83714 0.0
C1990 C 0.23172 0.10954 0.79833 0.0
C1991 C 0.23225 0.11944 0.77908 0.0
C1992 C 0.24244 0.11778 0.81515 0.0
C1993 C 0.24551 0.13629 0.77633 0.0
C1994 C 0.25656 0.1443 0.79289 0.0
C1995 C 0.26257 0.14572 0.82981 0.0
C1996 C 0.25835 0.13842 0.84973 0.0
C1997 C 0.25437 0.13573 0.81254 0.0
C1998 C 0.24797 0.1196 0.85201 0.0
C1999 C 0.24016 0.10931 0.83485 0.0
H2000 H 0.34484 0.77545 0.32485 0.0
H2001 H 0.37985 0.74153 0.3699 0.0
H2002 H 0.39914 0.72474 0.34248 0.0
H2003 H 0.40145 0.71512 0.30606 0.0
H2004 H 0.3646 0.74743 0.26128 0.0
H2005 H 0.35089 0.76955 0.28824 0.0
C2006 C 0.35704 0.76479 0.32874 0.0
C2007 C 0.36056 0.75945 0.34942 0.0
C2008 C 0.36754 0.7546 0.3129 0.0
C2009 C 0.3766 0.74573 0.35411 0.0
C2010 C 0.38758 0.73602 0.33842 0.0
C2011 C 0.39079 0.7273 0.3021 0.0
C2012 C 0.38375 0.72931 0.28173 0.0
C2013 C 0.38246 0.73959 0.31778 0.0
C2014 C 0.37004 0.74531 0.27688 0.0
C2015 C 0.36215 0.75796 0.2923 0.0
H2016 H 0.72394 0.16307 0.17212 0.0
H2017 H 0.75324 0.12138 0.12961 0.0
H2018 H 0.76767 0.10201 0.15831 0.0
H2019 H 0.7768 0.10069 0.19495 0.0
H2020 H 0.74895 0.14372 0.23711 0.0
H2021 H 0.72897 0.15854 0.2091 0.0
C2022 C 0.73309 0.14947 0.16909 0.0
C2023 C 0.73784 0.14398 0.1487 0.0
C2024 C 0.74188 0.13878 0.18564 0.0
C2025 C 0.74952 0.12614 0.14513 0.0
C2026 C 0.7579 0.1151 0.16155 0.0
C2027 C 0.76601 0.11299 0.19812 0.0
C2028 C 0.76471 0.12134 0.21805 0.0
C2029 C 0.75495 0.12185 0.18182 0.0
C2030 C 0.75052 0.13719 0.22187 0.0
C2031 C 0.7391 0.14573 0.20584 0.0
H2032 H 0.4012 0.28522 0.69732 0.0
H2033 H 0.3585 0.25332 0.73687 0.0
H2034 H 0.34523 0.23426 0.70751 0.0
H2035 H 0.34186 0.23091 0.67019 0.0
H2036 H 0.38349 0.26383 0.63036 0.0
H2037 H 0.4013 0.2778 0.66026 0.0
C2038 C 0.38931 0.27378 0.69962 0.0
C2039 C 0.38059 0.27106 0.71925 0.0
C2040 C 0.38137 0.26316 0.68255 0.0
C2041 C 0.36532 0.25599 0.72192 0.0
C2042 C 0.35765 0.24509 0.7051 0.0
C2043 C 0.3551 0.24078 0.668 0.0
C2044 C 0.36101 0.24664 0.64802 0.0
C2045 C 0.36495 0.24921 0.68525 0.0
C2046 C 0.37842 0.25921 0.64554 0.0
C2047 C 0.38857 0.26733 0.66266 0.0
H2048 H 0.21702 0.89849 0.1992 0.0
H2049 H 0.24577 0.85451 0.23979 0.0
H2050 H 0.26523 0.84043 0.21106 0.0
H2051 H 0.26994 0.83711 0.17384 0.0
H2052 H 0.2403 0.8803 0.13305 0.0
H2053 H 0.22574 0.89836 0.16248 0.0
C2054 C 0.22783 0.88608 0.20187 0.0
C2055 C 0.22956 0.87731 0.22158 0.0
C2056 C 0.23872 0.87776 0.18519 0.0
C2057 C 0.24388 0.86142 0.22476 0.0
C2058 C 0.255 0.85329 0.2083 0.0
C2059 C 0.26065 0.85073 0.17136 0.0
C2060 C 0.2559 0.85704 0.15121 0.0
C2061 C 0.25191 0.86079 0.18834 0.0
C2062 C 0.24405 0.87491 0.14836 0.0
C2063 C 0.23561 0.88522 0.1652 0.0
H2064 H 0.64743 0.77555 0.66896 0.0
H2065 H 0.6096 0.73782 0.62962 0.0
H2066 H 0.59182 0.72407 0.65964 0.0
H2067 H 0.59152 0.71822 0.69697 0.0
H2068 H 0.63038 0.75512 0.73615 0.0
H2069 H 0.64296 0.77389 0.70629 0.0
C2070 C 0.63497 0.76467 0.66689 0.0
C2071 C 0.6302 0.75739 0.64707 0.0
C2072 C 0.62517 0.75642 0.68424 0.0
C2073 C 0.61376 0.74357 0.64468 0.0
C2074 C 0.60366 0.73557 0.66188 0.0
C2075 C 0.6024 0.73067 0.69906 0.0
C2076 C 0.61034 0.73488 0.71876 0.0
C2077 C 0.60993 0.74115 0.68175 0.0
C2078 C 0.6242 0.7513 0.72116 0.0
C2079 C 0.63149 0.76202 0.70407 0.0
H2080 H 0.83094 0.71957 0.85062 0.0
H2081 H 0.87438 0.76241 0.87669 0.0
H2082 H 0.8468 0.77903 0.89586 0.0
H2083 H 0.80979 0.78523 0.90008 0.0
H2084 H 0.76637 0.74305 0.87287 0.0
H2085 H 0.79451 0.72226 0.85961 0.0
C2086 C 0.83449 0.73224 0.86086 0.0
C2087 C 0.85466 0.74 0.8618 0.0
C2088 C 0.81848 0.74209 0.87144 0.0
C2089 C 0.85899 0.75622 0.87545 0.0
C2090 C 0.84317 0.76585 0.88633 0.0
C2091 C 0.80645 0.77124 0.89166 0.0
C2092 C 0.78595 0.76603 0.88708 0.0
C2093 C 0.82274 0.75953 0.88366 0.0
C2094 C 0.78197 0.74766 0.87638 0.0
C2095 C 0.79808 0.73576 0.8687 0.0
H2096 H 0.83362 0.26862 0.14327 0.0
H2097 H 0.87206 0.22447 0.11206 0.0
H2098 H 0.84217 0.21094 0.09392 0.0
H2099 H 0.80457 0.20773 0.09169 0.0
H2100 H 0.76625 0.2514 0.1238 0.0
H2101 H 0.79664 0.26911 0.13651 0.0
C2102 C 0.83556 0.25634 0.13215 0.0
C2103 C 0.855 0.2473 0.1294 0.0
C2104 C 0.81825 0.2483 0.12212 0.0
C2105 C 0.85727 0.23163 0.11466 0.0
C2106 C 0.84013 0.22376 0.10436 0.0
C2107 C 0.80284 0.22139 0.10108 0.0
C2108 C 0.78312 0.22789 0.10716 0.0
C2109 C 0.82043 0.23135 0.1087 0.0
C2110 C 0.78121 0.24581 0.11913 0.0
C2111 C 0.79861 0.25595 0.12648 0.0
H2112 H 0.23096 0.3365 0.63665 0.0
H2113 H 0.27877 0.37828 0.61754 0.0
H2114 H 0.29537 0.35077 0.59819 0.0
H2115 H 0.29969 0.31363 0.59245 0.0
H2116 H 0.25229 0.27186 0.61278 0.0
H2117 H 0.23209 0.30061 0.62557 0.0
C2118 C 0.24474 0.33973 0.62785 0.0
C2119 C 0.25386 0.35929 0.62896 0.0
C2120 C 0.2545 0.32373 0.6172 0.0
C2121 C 0.2715 0.36332 0.61713 0.0
C2122 C 0.28112 0.34753 0.60618 0.0
C2123 C 0.28471 0.31084 0.5992 0.0
C2124 C 0.2778 0.29055 0.60211 0.0
C2125 C 0.2733 0.32746 0.60698 0.0
C2126 C 0.25821 0.28728 0.61066 0.0
C2127 C 0.24663 0.30372 0.61806 0.0
H2128 H 0.19034 0.79782 0.09339 0.0
H2129 H 0.23119 0.74894 0.11204 0.0
H2130 H 0.20207 0.72891 0.12427 0.0
H2131 H 0.16624 0.72821 0.13555 0.0
H2132 H 0.12545 0.77759 0.11825 0.0
H2133 H 0.15317 0.79412 0.09921 0.0
C2134 C 0.19284 0.78255 0.0996 0.0
C2135 C 0.21299 0.77515 0.10225 0.0
C2136 C 0.17603 0.77126 0.10712 0.0
C2137 C 0.21589 0.75522 0.11015 0.0
C2138 C 0.19923 0.74374 0.11723 0.0
C2139 C 0.16325 0.74234 0.12721 0.0
C2140 C 0.14392 0.75188 0.12879 0.0
C2141 C 0.17939 0.75206 0.11674 0.0
C2142 C 0.14023 0.76999 0.11754 0.0
C2143 C 0.15614 0.77956 0.10673 0.0
H2144 H 0.72862 0.639 0.61592 0.0
H2145 H 0.77306 0.6726 0.65196 0.0
H2146 H 0.76172 0.70473 0.63632 0.0
H2147 H 0.73522 0.72355 0.61746 0.0
H2148 H 0.68913 0.69018 0.58331 0.0
H2149 H 0.70534 0.65773 0.59287 0.0
C2150 C 0.73625 0.65327 0.61994 0.0
C2151 C 0.75143 0.65342 0.63537 0.0
C2152 C 0.72911 0.6718 0.61146 0.0
C2153 C 0.76116 0.67206 0.64032 0.0
C2154 C 0.75461 0.69047 0.63146 0.0
C2155 C 0.72892 0.70922 0.61173 0.0
C2156 C 0.71069 0.70933 0.60005 0.0
C2157 C 0.73793 0.6906 0.61781 0.0
C2158 C 0.70298 0.69059 0.59253 0.0
C2159 C 0.7122 0.67199 0.59807 0.0
H2160 H 0.1373 0.23037 0.87815 0.0
H2161 H 0.17179 0.279 0.84906 0.0
H2162 H 0.20296 0.26756 0.86645 0.0
H2163 H 0.22128 0.24045 0.88489 0.0
H2164 H 0.18734 0.19033 0.91206 0.0
H2165 H 0.1551 0.20591 0.90082 0.0
C2166 C 0.15151 0.23882 0.87604 0.0
C2167 C 0.15226 0.25533 0.86206 0.0
C2168 C 0.16957 0.23171 0.88554 0.0
C2169 C 0.17082 0.26609 0.85953 0.0
C2170 C 0.18869 0.25951 0.86942 0.0
C2171 C 0.20683 0.2331 0.88876 0.0
C2172 C 0.2068 0.21401 0.89895 0.0
C2173 C 0.1884 0.24178 0.88168 0.0
C2174 C 0.18788 0.20491 0.90405 0.0
C2175 C 0.16941 0.21377 0.89752 0.0
H2176 H 0.2824 0.70105 0.40173 0.0
H2177 H 0.25142 0.74174 0.3594 0.0
H2178 H 0.23205 0.71291 0.34548 0.0
H2179 H 0.22801 0.67569 0.34161 0.0
H2180 H 0.25975 0.6348 0.38317 0.0
H2181 H 0.27429 0.66418 0.40131 0.0
C2182 C 0.27112 0.70371 0.38975 0.0
C2183 C 0.26874 0.72351 0.38136 0.0
C2184 C 0.26025 0.68696 0.38151 0.0
C2185 C 0.25382 0.72665 0.366 0.0
C2186 C 0.24274 0.71014 0.35796 0.0
C2187 C 0.23775 0.67316 0.3549 0.0
C2188 C 0.2431 0.65302 0.3607 0.0
C2189 C 0.24646 0.69013 0.36501 0.0
C2190 C 0.25552 0.65011 0.37818 0.0
C2191 C 0.26397 0.66693 0.38852 0.0
H2192 H 0.73141 0.36535 0.3777 0.0
H2193 H 0.78338 0.33072 0.35537 0.0
H2194 H 0.77107 0.30021 0.37329 0.0
H2195 H 0.74248 0.28206 0.38951 0.0
H2196 H 0.68929 0.31604 0.40995 0.0
H2197 H 0.70536 0.34811 0.39898 0.0
C2198 C 0.74038 0.35131 0.37727 0.0
C2199 C 0.7581 0.35022 0.3649 0.0
C2200 C 0.7328 0.33357 0.38701 0.0
C2201 C 0.76954 0.33189 0.36454 0.0
C2202 C 0.76246 0.3144 0.37472 0.0
C2203 C 0.73455 0.29651 0.39201 0.0
C2204 C 0.7145 0.29655 0.4001 0.0
C2205 C 0.74359 0.31482 0.38509 0.0
C2206 C 0.70464 0.31548 0.40353 0.0
C2207 C 0.71377 0.33386 0.39715 0.0
loop_
_geom_bond_atom_site_label_1
_geom_bond_atom_site_label_2
_geom_bond_distance
_geom_bond_site_symmetry_2
_ccdc_geom_bond_type
O0 Cd1 2.223 . S
O0 C8 1.315 . S
Cd1 O0 2.223 . S
Cd1 O4 2.297 . S
Cd1 O5 2.439 . S
Cd1 O11 2.240 . S
Cd2 O3 2.240 . S
Cd2 O10 2.223 . S
Cd2 O12 2.297 . S
Cd2 O13 2.439 . S
O3 Cd2 2.240 . S
O3 C8 1.279 . S
O4 Cd1 2.297 . S
O4 C6 1.247 . S
O5 Cd1 2.439 . S
O5 C6 1.208 . S
C6 O4 1.247 . S
C6 O5 1.208 . S
C7 O12 1.247 . S
C7 O13 1.208 . S
C8 O0 1.315 . S
C8 O3 1.279 . S
C9 O10 1.315 . S
C9 O11 1.279 . S
O10 Cd2 2.223 . S
O10 C9 1.315 . S
O11 Cd1 2.240 . S
O11 C9 1.279 . S
O12 Cd2 2.297 . S
O12 C7 1.247 . S
O13 Cd2 2.439 . S
O13 C7 1.208 . S
O14 Cd15 2.223 . S
O14 C22 1.315 . S
Cd15 O14 2.223 . S
Cd15 O18 2.297 . S
Cd15 O19 2.439 . S
Cd15 O25 2.240 . S
Cd16 O17 2.240 . S
Cd16 O24 2.223 . S
Cd16 O26 2.297 . S
Cd16 O27 2.439 . S
O17 Cd16 2.240 . S
O17 C22 1.279 . S
O18 Cd15 2.297 . S
O18 C20 1.247 . S
O19 Cd15 2.439 . S
O19 C20 1.208 . S
C20 O18 1.247 . S
C20 O19 1.208 . S
C21 O26 1.247 . S
C21 O27 1.208 . S
C22 O14 1.315 . S
C22 O17 1.279 . S
C23 O24 1.315 . S
C23 O25 1.279 . S
O24 Cd16 2.223 . S
O24 C23 1.315 . S
O25 Cd15 2.240 . S
O25 C23 1.279 . S
O26 Cd16 2.297 . S
O26 C21 1.247 . S
O27 Cd16 2.439 . S
O27 C21 1.208 . S
O28 Cd29 2.223 . S
O28 C36 1.315 . S
Cd29 O28 2.223 . S
Cd29 O32 2.297 . S
Cd29 O33 2.439 . S
Cd29 O39 2.240 . S
Cd30 O31 2.240 . S
Cd30 O38 2.223 . S
Cd30 O40 2.297 . S
Cd30 O41 2.439 . S
O31 Cd30 2.240 . S
O31 C36 1.279 . S
O32 Cd29 2.297 . S
O32 C34 1.247 . S
O33 Cd29 2.439 . S
O33 C34 1.208 . S
C34 O32 1.247 . S
C34 O33 1.208 . S
C35 O40 1.247 . S
C35 O41 1.208 . S
C36 O28 1.315 . S
C36 O31 1.279 . S
C37 O38 1.315 . S
C37 O39 1.279 . S
O38 Cd30 2.223 . S
O38 C37 1.315 . S
O39 Cd29 2.240 . S
O39 C37 1.279 . S
O40 Cd30 2.297 . S
O40 C35 1.247 . S
O41 Cd30 2.439 . S
O41 C35 1.208 . S
O42 Cd43 2.223 . S
O42 C50 1.315 . S
Cd43 O42 2.223 . S
Cd43 O46 2.297 . S
Cd43 O47 2.439 . S
Cd43 O53 2.240 . S
Cd44 O45 2.240 . S
Cd44 O52 2.223 . S
Cd44 O54 2.297 . S
Cd44 O55 2.439 . S
O45 Cd44 2.240 . S
O45 C50 1.279 . S
O46 Cd43 2.297 . S
O46 C48 1.247 . S
O47 Cd43 2.439 . S
O47 C48 1.208 . S
C48 O46 1.247 . S
C48 O47 1.208 . S
C49 O54 1.247 . S
C49 O55 1.208 . S
C50 O42 1.315 . S
C50 O45 1.279 . S
C51 O52 1.315 . S
C51 O53 1.279 . S
O52 Cd44 2.223 . S
O52 C51 1.315 . S
O53 Cd43 2.240 . S
O53 C51 1.279 . S
O54 Cd44 2.297 . S
O54 C49 1.247 . S
O55 Cd44 2.439 . S
O55 C49 1.208 . S
O56 Cd57 2.223 . S
O56 C64 1.315 . S
Cd57 O56 2.223 . S
Cd57 O60 2.297 . S
Cd57 O61 2.439 . S
Cd57 O67 2.240 . S
Cd58 O59 2.240 . S
Cd58 O66 2.223 . S
Cd58 O68 2.297 . S
Cd58 O69 2.439 . S
O59 Cd58 2.240 . S
O59 C64 1.279 . S
O60 Cd57 2.297 . S
O60 C62 1.247 . S
O61 Cd57 2.439 . S
O61 C62 1.208 . S
C62 O60 1.247 . S
C62 O61 1.208 . S
C63 O68 1.247 . S
C63 O69 1.208 . S
C64 O56 1.315 . S
C64 O59 1.279 . S
C65 O66 1.315 . S
C65 O67 1.279 . S
O66 Cd58 2.223 . S
O66 C65 1.315 . S
O67 Cd57 2.240 . S
O67 C65 1.279 . S
O68 Cd58 2.297 . S
O68 C63 1.247 . S
O69 Cd58 2.439 . S
O69 C63 1.208 . S
O70 Cd71 2.223 . S
O70 C78 1.315 . S
Cd71 O70 2.223 . S
Cd71 O74 2.297 . S
Cd71 O75 2.439 . S
Cd71 O81 2.240 . S
Cd72 O73 2.240 . S
Cd72 O80 2.223 . S
Cd72 O82 2.297 . S
Cd72 O83 2.439 . S
O73 Cd72 2.240 . S
O73 C78 1.279 . S
O74 Cd71 2.297 . S
O74 C76 1.247 . S
O75 Cd71 2.439 . S
O75 C76 1.208 . S
C76 O74 1.247 . S
C76 O75 1.208 . S
C77 O82 1.247 . S
C77 O83 1.208 . S
C78 O70 1.315 . S
C78 O73 1.279 . S
C79 O80 1.315 . S
C79 O81 1.279 . S
O80 Cd72 2.223 . S
O80 C79 1.315 . S
O81 Cd71 2.240 . S
O81 C79 1.279 . S
O82 Cd72 2.297 . S
O82 C77 1.247 . S
O83 Cd72 2.439 . S
O83 C77 1.208 . S
O84 Cd85 2.223 . S
O84 C92 1.315 . S
Cd85 O84 2.223 . S
Cd85 O88 2.297 . S
Cd85 O89 2.439 . S
Cd85 O95 2.240 . S
Cd86 O87 2.240 . S
Cd86 O94 2.223 . S
Cd86 O96 2.297 . S
Cd86 O97 2.439 . S
O87 Cd86 2.240 . S
O87 C92 1.279 . S
O88 Cd85 2.297 . S
O88 C90 1.247 . S
O89 Cd85 2.439 . S
O89 C90 1.208 . S
C90 O88 1.247 . S
C90 O89 1.208 . S
C91 O96 1.247 . S
C91 O97 1.208 . S
C92 O84 1.315 . S
C92 O87 1.279 . S
C93 O94 1.315 . S
C93 O95 1.279 . S
O94 Cd86 2.223 . S
O94 C93 1.315 . S
O95 Cd85 2.240 . S
O95 C93 1.279 . S
O96 Cd86 2.297 . S
O96 C91 1.247 . S
O97 Cd86 2.439 . S
O97 C91 1.208 . S
O98 Cd99 2.223 . S
O98 C106 1.315 . S
Cd99 O98 2.223 . S
Cd99 O102 2.297 . S
Cd99 O103 2.439 . S
Cd99 O109 2.240 . S
Cd100 O101 2.240 . S
Cd100 O108 2.223 . S
Cd100 O110 2.297 . S
Cd100 O111 2.439 . S
O101 Cd100 2.240 . S
O101 C106 1.279 . S
O102 Cd99 2.297 . S
O102 C104 1.247 . S
O103 Cd99 2.439 . S
O103 C104 1.208 . S
C104 O102 1.247 . S
C104 O103 1.208 . S
C105 O110 1.247 . S
C105 O111 1.208 . S
C106 O98 1.315 . S
C106 O101 1.279 . S
C107 O108 1.315 . S
C107 O109 1.279 . S
O108 Cd100 2.223 . S
O108 C107 1.315 . S
O109 Cd99 2.240 . S
O109 C107 1.279 . S
O110 Cd100 2.297 . S
O110 C105 1.247 . S
O111 Cd100 2.439 . S
O111 C105 1.208 . S
O112 Cd113 2.223 . S
O112 C120 1.315 . S
Cd113 O112 2.223 . S
Cd113 O116 2.297 . S
Cd113 O117 2.439 . S
Cd113 O123 2.240 . S
Cd114 O115 2.240 . S
Cd114 O122 2.223 . S
Cd114 O124 2.297 . S
Cd114 O125 2.439 . S
O115 Cd114 2.240 . S
O115 C120 1.279 . S
O116 Cd113 2.297 . S
O116 C118 1.247 . S
O117 Cd113 2.439 . S
O117 C118 1.208 . S
C118 O116 1.247 . S
C118 O117 1.208 . S
C119 O124 1.247 . S
C119 O125 1.208 . S
C120 O112 1.315 . S
C120 O115 1.279 . S
C121 O122 1.315 . S
C121 O123 1.279 . S
O122 Cd114 2.223 . S
O122 C121 1.315 . S
O123 Cd113 2.240 . S
O123 C121 1.279 . S
O124 Cd114 2.297 . S
O124 C119 1.247 . S
O125 Cd114 2.439 . S
O125 C119 1.208 . S
O126 Cd127 2.223 . S
O126 C134 1.315 . S
Cd127 O126 2.223 . S
Cd127 O130 2.297 . S
Cd127 O131 2.439 . S
Cd127 O137 2.240 . S
Cd128 O129 2.240 . S
Cd128 O136 2.223 . S
Cd128 O138 2.297 . S
Cd128 O139 2.439 . S
O129 Cd128 2.240 . S
O129 C134 1.279 . S
O130 Cd127 2.297 . S
O130 C132 1.247 . S
O131 Cd127 2.439 . S
O131 C132 1.208 . S
C132 O130 1.247 . S
C132 O131 1.208 . S
C133 O138 1.247 . S
C133 O139 1.208 . S
C134 O126 1.315 . S
C134 O129 1.279 . S
C135 O136 1.315 . S
C135 O137 1.279 . S
O136 Cd128 2.223 . S
O136 C135 1.315 . S
O137 Cd127 2.240 . S
O137 C135 1.279 . S
O138 Cd128 2.297 . S
O138 C133 1.247 . S
O139 Cd128 2.439 . S
O139 C133 1.208 . S
O140 Cd141 2.223 . S
O140 C148 1.315 . S
Cd141 O140 2.223 . S
Cd141 O144 2.297 . S
Cd141 O145 2.439 . S
Cd141 O151 2.240 . S
Cd142 O143 2.240 . S
Cd142 O150 2.223 . S
Cd142 O152 2.297 . S
Cd142 O153 2.439 . S
O143 Cd142 2.240 . S
O143 C148 1.279 . S
O144 Cd141 2.297 . S
O144 C146 1.247 . S
O145 Cd141 2.439 . S
O145 C146 1.208 . S
C146 O144 1.247 . S
C146 O145 1.208 . S
C147 O152 1.247 . S
C147 O153 1.208 . S
C148 O140 1.315 . S
C148 O143 1.279 . S
C149 O150 1.315 . S
C149 O151 1.279 . S
O150 Cd142 2.223 . S
O150 C149 1.315 . S
O151 Cd141 2.240 . S
O151 C149 1.279 . S
O152 Cd142 2.297 . S
O152 C147 1.247 . S
O153 Cd142 2.439 . S
O153 C147 1.208 . S
O154 Cd155 2.223 . S
O154 C162 1.315 . S
Cd155 O154 2.223 . S
Cd155 O158 2.297 . S
Cd155 O159 2.439 . S
Cd155 O165 2.240 . S
Cd156 O157 2.240 . S
Cd156 O164 2.223 . S
Cd156 O166 2.297 . S
Cd156 O167 2.439 . S
O157 Cd156 2.240 . S
O157 C162 1.279 . S
O158 Cd155 2.297 . S
O158 C160 1.247 . S
O159 Cd155 2.439 . S
O159 C160 1.208 . S
C160 O158 1.247 . S
C160 O159 1.208 . S
C161 O166 1.247 . S
C161 O167 1.208 . S
C162 O154 1.315 . S
C162 O157 1.279 . S
C163 O164 1.315 . S
C163 O165 1.279 . S
O164 Cd156 2.223 . S
O164 C163 1.315 . S
O165 Cd155 2.240 . S
O165 C163 1.279 . S
O166 Cd156 2.297 . S
O166 C161 1.247 . S
O167 Cd156 2.439 . S
O167 C161 1.208 . S
O168 Cd169 2.223 . S
O168 C176 1.315 . S
Cd169 O168 2.223 . S
Cd169 O172 2.297 . S
Cd169 O173 2.439 . S
Cd169 O179 2.240 . S
Cd170 O171 2.240 . S
Cd170 O178 2.223 . S
Cd170 O180 2.297 . S
Cd170 O181 2.439 . S
O171 Cd170 2.240 . S
O171 C176 1.279 . S
O172 Cd169 2.297 . S
O172 C174 1.247 . S
O173 Cd169 2.439 . S
O173 C174 1.208 . S
C174 O172 1.247 . S
C174 O173 1.208 . S
C175 O180 1.247 . S
C175 O181 1.208 . S
C176 O168 1.315 . S
C176 O171 1.279 . S
C177 O178 1.315 . S
C177 O179 1.279 . S
O178 Cd170 2.223 . S
O178 C177 1.315 . S
O179 Cd169 2.240 . S
O179 C177 1.279 . S
O180 Cd170 2.297 . S
O180 C175 1.247 . S
O181 Cd170 2.439 . S
O181 C175 1.208 . S
O182 Cd183 2.223 . S
O182 C190 1.315 . S
Cd183 O182 2.223 . S
Cd183 O186 2.297 . S
Cd183 O187 2.439 . S
Cd183 O193 2.240 . S
Cd184 O185 2.240 . S
Cd184 O192 2.223 . S
Cd184 O194 2.297 . S
Cd184 O195 2.439 . S
O185 Cd184 2.240 . S
O185 C190 1.279 . S
O186 Cd183 2.297 . S
O186 C188 1.247 . S
O187 Cd183 2.439 . S
O187 C188 1.208 . S
C188 O186 1.247 . S
C188 O187 1.208 . S
C189 O194 1.247 . S
C189 O195 1.208 . S
C190 O182 1.315 . S
C190 O185 1.279 . S
C191 O192 1.315 . S
C191 O193 1.279 . S
O192 Cd184 2.223 . S
O192 C191 1.315 . S
O193 Cd183 2.240 . S
O193 C191 1.279 . S
O194 Cd184 2.297 . S
O194 C189 1.247 . S
O195 Cd184 2.439 . S
O195 C189 1.208 . S
O196 Cd197 2.223 . S
O196 C204 1.315 . S
Cd197 O196 2.223 . S
Cd197 O200 2.297 . S
Cd197 O201 2.439 . S
Cd197 O207 2.240 . S
Cd198 O199 2.240 . S
Cd198 O206 2.223 . S
Cd198 O208 2.297 . S
Cd198 O209 2.439 . S
O199 Cd198 2.240 . S
O199 C204 1.279 . S
O200 Cd197 2.297 . S
O200 C202 1.247 . S
O201 Cd197 2.439 . S
O201 C202 1.208 . S
C202 O200 1.247 . S
C202 O201 1.208 . S
C203 O208 1.247 . S
C203 O209 1.208 . S
C204 O196 1.315 . S
C204 O199 1.279 . S
C205 O206 1.315 . S
C205 O207 1.279 . S
O206 Cd198 2.223 . S
O206 C205 1.315 . S
O207 Cd197 2.240 . S
O207 C205 1.279 . S
O208 Cd198 2.297 . S
O208 C203 1.247 . S
O209 Cd198 2.439 . S
O209 C203 1.208 . S
O210 Cd211 2.223 . S
O210 C218 1.315 . S
Cd211 O210 2.223 . S
Cd211 O214 2.297 . S
Cd211 O215 2.439 . S
Cd211 O221 2.240 . S
Cd212 O213 2.240 . S
Cd212 O220 2.223 . S
Cd212 O222 2.297 . S
Cd212 O223 2.439 . S
O213 Cd212 2.240 . S
O213 C218 1.279 . S
O214 Cd211 2.297 . S
O214 C216 1.247 . S
O215 Cd211 2.439 . S
O215 C216 1.208 . S
C216 O214 1.247 . S
C216 O215 1.208 . S
C217 O222 1.247 . S
C217 O223 1.208 . S
C218 O210 1.315 . S
C218 O213 1.279 . S
C219 O220 1.315 . S
C219 O221 1.279 . S
O220 Cd212 2.223 . S
O220 C219 1.315 . S
O221 Cd211 2.240 . S
O221 C219 1.279 . S
O222 Cd212 2.297 . S
O222 C217 1.247 . S
O223 Cd212 2.439 . S
O223 C217 1.208 . S
O224 Cd225 2.223 . S
O224 C232 1.315 . S
Cd225 O224 2.223 . S
Cd225 O228 2.297 . S
Cd225 O229 2.439 . S
Cd225 O235 2.240 . S
Cd226 O227 2.240 . S
Cd226 O234 2.223 . S
Cd226 O236 2.297 . S
Cd226 O237 2.439 . S
O227 Cd226 2.240 . S
O227 C232 1.279 . S
O228 Cd225 2.297 . S
O228 C230 1.247 . S
O229 Cd225 2.439 . S
O229 C230 1.208 . S
C230 O228 1.247 . S
C230 O229 1.208 . S
C231 O236 1.247 . S
C231 O237 1.208 . S
C232 O224 1.315 . S
C232 O227 1.279 . S
C233 O234 1.315 . S
C233 O235 1.279 . S
O234 Cd226 2.223 . S
O234 C233 1.315 . S
O235 Cd225 2.240 . S
O235 C233 1.279 . S
O236 Cd226 2.297 . S
O236 C231 1.247 . S
O237 Cd226 2.439 . S
O237 C231 1.208 . S
O238 Cd239 2.223 . S
O238 C246 1.315 . S
Cd239 O238 2.223 . S
Cd239 O242 2.297 . S
Cd239 O243 2.439 . S
Cd239 O249 2.240 . S
Cd240 O241 2.240 . S
Cd240 O248 2.223 . S
Cd240 O250 2.297 . S
Cd240 O251 2.439 . S
O241 Cd240 2.240 . S
O241 C246 1.279 . S
O242 Cd239 2.297 . S
O242 C244 1.247 . S
O243 Cd239 2.439 . S
O243 C244 1.208 . S
C244 O242 1.247 . S
C244 O243 1.208 . S
C245 O250 1.247 . S
C245 O251 1.208 . S
C246 O238 1.315 . S
C246 O241 1.279 . S
C247 O248 1.315 . S
C247 O249 1.279 . S
O248 Cd240 2.223 . S
O248 C247 1.315 . S
O249 Cd239 2.240 . S
O249 C247 1.279 . S
O250 Cd240 2.297 . S
O250 C245 1.247 . S
O251 Cd240 2.439 . S
O251 C245 1.208 . S
O252 Cd253 2.223 . S
O252 C260 1.315 . S
Cd253 O252 2.223 . S
Cd253 O256 2.297 . S
Cd253 O257 2.439 . S
Cd253 O263 2.240 . S
Cd254 O255 2.240 . S
Cd254 O262 2.223 . S
Cd254 O264 2.297 . S
Cd254 O265 2.439 . S
O255 Cd254 2.240 . S
O255 C260 1.279 . S
O256 Cd253 2.297 . S
O256 C258 1.247 . S
O257 Cd253 2.439 . S
O257 C258 1.208 . S
C258 O256 1.247 . S
C258 O257 1.208 . S
C259 O264 1.247 . S
C259 O265 1.208 . S
C260 O252 1.315 . S
C260 O255 1.279 . S
C261 O262 1.315 . S
C261 O263 1.279 . S
O262 Cd254 2.223 . S
O262 C261 1.315 . S
O263 Cd253 2.240 . S
O263 C261 1.279 . S
O264 Cd254 2.297 . S
O264 C259 1.247 . S
O265 Cd254 2.439 . S
O265 C259 1.208 . S
O266 Cd267 2.223 . S
O266 C274 1.315 . S
Cd267 O266 2.223 . S
Cd267 O270 2.297 . S
Cd267 O271 2.439 . S
Cd267 O277 2.240 . S
Cd268 O269 2.240 . S
Cd268 O276 2.223 . S
Cd268 O278 2.297 . S
Cd268 O279 2.439 . S
O269 Cd268 2.240 . S
O269 C274 1.279 . S
O270 Cd267 2.297 . S
O270 C272 1.247 . S
O271 Cd267 2.439 . S
O271 C272 1.208 . S
C272 O270 1.247 . S
C272 O271 1.208 . S
C273 O278 1.247 . S
C273 O279 1.208 . S
C274 O266 1.315 . S
C274 O269 1.279 . S
C275 O276 1.315 . S
C275 O277 1.279 . S
O276 Cd268 2.223 . S
O276 C275 1.315 . S
O277 Cd267 2.240 . S
O277 C275 1.279 . S
O278 Cd268 2.297 . S
O278 C273 1.247 . S
O279 Cd268 2.439 . S
O279 C273 1.208 . S
O280 Cd281 2.223 . S
O280 C288 1.315 . S
Cd281 O280 2.223 . S
Cd281 O284 2.297 . S
Cd281 O285 2.439 . S
Cd281 O291 2.240 . S
Cd282 O283 2.240 . S
Cd282 O290 2.223 . S
Cd282 O292 2.297 . S
Cd282 O293 2.439 . S
O283 Cd282 2.240 . S
O283 C288 1.279 . S
O284 Cd281 2.297 . S
O284 C286 1.247 . S
O285 Cd281 2.439 . S
O285 C286 1.208 . S
C286 O284 1.247 . S
C286 O285 1.208 . S
C287 O292 1.247 . S
C287 O293 1.208 . S
C288 O280 1.315 . S
C288 O283 1.279 . S
C289 O290 1.315 . S
C289 O291 1.279 . S
O290 Cd282 2.223 . S
O290 C289 1.315 . S
O291 Cd281 2.240 . S
O291 C289 1.279 . S
O292 Cd282 2.297 . S
O292 C287 1.247 . S
O293 Cd282 2.439 . S
O293 C287 1.208 . S
O294 Cd295 2.223 . S
O294 C302 1.315 . S
Cd295 O294 2.223 . S
Cd295 O298 2.297 . S
Cd295 O299 2.439 . S
Cd295 O305 2.240 . S
Cd296 O297 2.240 . S
Cd296 O304 2.223 . S
Cd296 O306 2.297 . S
Cd296 O307 2.439 . S
O297 Cd296 2.240 . S
O297 C302 1.279 . S
O298 Cd295 2.297 . S
O298 C300 1.247 . S
O299 Cd295 2.439 . S
O299 C300 1.208 . S
C300 O298 1.247 . S
C300 O299 1.208 . S
C301 O306 1.247 . S
C301 O307 1.208 . S
C302 O294 1.315 . S
C302 O297 1.279 . S
C303 O304 1.315 . S
C303 O305 1.279 . S
O304 Cd296 2.223 . S
O304 C303 1.315 . S
O305 Cd295 2.240 . S
O305 C303 1.279 . S
O306 Cd296 2.297 . S
O306 C301 1.247 . S
O307 Cd296 2.439 . S
O307 C301 1.208 . S
O308 Cd309 2.223 . S
O308 C316 1.315 . S
Cd309 O308 2.223 . S
Cd309 O312 2.297 . S
Cd309 O313 2.439 . S
Cd309 O319 2.240 . S
Cd310 O311 2.240 . S
Cd310 O318 2.223 . S
Cd310 O320 2.297 . S
Cd310 O321 2.439 . S
O311 Cd310 2.240 . S
O311 C316 1.279 . S
O312 Cd309 2.297 . S
O312 C314 1.247 . S
O313 Cd309 2.439 . S
O313 C314 1.208 . S
C314 O312 1.247 . S
C314 O313 1.208 . S
C315 O320 1.247 . S
C315 O321 1.208 . S
C316 O308 1.315 . S
C316 O311 1.279 . S
C317 O318 1.315 . S
C317 O319 1.279 . S
O318 Cd310 2.223 . S
O318 C317 1.315 . S
O319 Cd309 2.240 . S
O319 C317 1.279 . S
O320 Cd310 2.297 . S
O320 C315 1.247 . S
O321 Cd310 2.439 . S
O321 C315 1.208 . S
O322 Cd323 2.223 . S
O322 C330 1.315 . S
Cd323 O322 2.223 . S
Cd323 O326 2.297 . S
Cd323 O327 2.439 . S
Cd323 O333 2.240 . S
Cd324 O325 2.240 . S
Cd324 O332 2.223 . S
Cd324 O334 2.297 . S
Cd324 O335 2.439 . S
O325 Cd324 2.240 . S
O325 C330 1.279 . S
O326 Cd323 2.297 . S
O326 C328 1.247 . S
O327 Cd323 2.439 . S
O327 C328 1.208 . S
C328 O326 1.247 . S
C328 O327 1.208 . S
C329 O334 1.247 . S
C329 O335 1.208 . S
C330 O322 1.315 . S
C330 O325 1.279 . S
C331 O332 1.315 . S
C331 O333 1.279 . S
O332 Cd324 2.223 . S
O332 C331 1.315 . S
O333 Cd323 2.240 . S
O333 C331 1.279 . S
O334 Cd324 2.297 . S
O334 C329 1.247 . S
O335 Cd324 2.439 . S
O335 C329 1.208 . S
O336 Cd337 2.223 . S
O336 C344 1.315 . S
Cd337 O336 2.223 . S
Cd337 O340 2.297 . S
Cd337 O341 2.439 . S
Cd337 O347 2.240 . S
Cd338 O339 2.240 . S
Cd338 O346 2.223 . S
Cd338 O348 2.297 . S
Cd338 O349 2.439 . S
O339 Cd338 2.240 . S
O339 C344 1.279 . S
O340 Cd337 2.297 . S
O340 C342 1.247 . S
O341 Cd337 2.439 . S
O341 C342 1.208 . S
C342 O340 1.247 . S
C342 O341 1.208 . S
C343 O348 1.247 . S
C343 O349 1.208 . S
C344 O336 1.315 . S
C344 O339 1.279 . S
C345 O346 1.315 . S
C345 O347 1.279 . S
O346 Cd338 2.223 . S
O346 C345 1.315 . S
O347 Cd337 2.240 . S
O347 C345 1.279 . S
O348 Cd338 2.297 . S
O348 C343 1.247 . S
O349 Cd338 2.439 . S
O349 C343 1.208 . S
O350 Cd351 2.223 . S
O350 C358 1.315 . S
Cd351 O350 2.223 . S
Cd351 O354 2.297 . S
Cd351 O355 2.439 . S
Cd351 O361 2.240 . S
Cd352 O353 2.240 . S
Cd352 O360 2.223 . S
Cd352 O362 2.297 . S
Cd352 O363 2.439 . S
O353 Cd352 2.240 . S
O353 C358 1.279 . S
O354 Cd351 2.297 . S
O354 C356 1.247 . S
O355 Cd351 2.439 . S
O355 C356 1.208 . S
C356 O354 1.247 . S
C356 O355 1.208 . S
C357 O362 1.247 . S
C357 O363 1.208 . S
C358 O350 1.315 . S
C358 O353 1.279 . S
C359 O360 1.315 . S
C359 O361 1.279 . S
O360 Cd352 2.223 . S
O360 C359 1.315 . S
O361 Cd351 2.240 . S
O361 C359 1.279 . S
O362 Cd352 2.297 . S
O362 C357 1.247 . S
O363 Cd352 2.439 . S
O363 C357 1.208 . S
O364 Cd365 2.223 . S
O364 C372 1.315 . S
Cd365 O364 2.223 . S
Cd365 O368 2.297 . S
Cd365 O369 2.439 . S
Cd365 O375 2.240 . S
Cd366 O367 2.240 . S
Cd366 O374 2.223 . S
Cd366 O376 2.297 . S
Cd366 O377 2.439 . S
O367 Cd366 2.240 . S
O367 C372 1.279 . S
O368 Cd365 2.297 . S
O368 C370 1.247 . S
O369 Cd365 2.439 . S
O369 C370 1.208 . S
C370 O368 1.247 . S
C370 O369 1.208 . S
C371 O376 1.247 . S
C371 O377 1.208 . S
C372 O364 1.315 . S
C372 O367 1.279 . S
C373 O374 1.315 . S
C373 O375 1.279 . S
O374 Cd366 2.223 . S
O374 C373 1.315 . S
O375 Cd365 2.240 . S
O375 C373 1.279 . S
O376 Cd366 2.297 . S
O376 C371 1.247 . S
O377 Cd366 2.439 . S
O377 C371 1.208 . S
O378 Cd379 2.223 . S
O378 C386 1.315 . S
Cd379 O378 2.223 . S
Cd379 O382 2.297 . S
Cd379 O383 2.439 . S
Cd379 O389 2.240 . S
Cd380 O381 2.240 . S
Cd380 O388 2.223 . S
Cd380 O390 2.297 . S
Cd380 O391 2.439 . S
O381 Cd380 2.240 . S
O381 C386 1.279 . S
O382 Cd379 2.297 . S
O382 C384 1.247 . S
O383 Cd379 2.439 . S
O383 C384 1.208 . S
C384 O382 1.247 . S
C384 O383 1.208 . S
C385 O390 1.247 . S
C385 O391 1.208 . S
C386 O378 1.315 . S
C386 O381 1.279 . S
C387 O388 1.315 . S
C387 O389 1.279 . S
O388 Cd380 2.223 . S
O388 C387 1.315 . S
O389 Cd379 2.240 . S
O389 C387 1.279 . S
O390 Cd380 2.297 . S
O390 C385 1.247 . S
O391 Cd380 2.439 . S
O391 C385 1.208 . S
O392 Cd393 2.223 . S
O392 C400 1.315 . S
Cd393 O392 2.223 . S
Cd393 O396 2.297 . S
Cd393 O397 2.439 . S
Cd393 O403 2.240 . S
Cd394 O395 2.240 . S
Cd394 O402 2.223 . S
Cd394 O404 2.297 . S
Cd394 O405 2.439 . S
O395 Cd394 2.240 . S
O395 C400 1.279 . S
O396 Cd393 2.297 . S
O396 C398 1.247 . S
O397 Cd393 2.439 . S
O397 C398 1.208 . S
C398 O396 1.247 . S
C398 O397 1.208 . S
C399 O404 1.247 . S
C399 O405 1.208 . S
C400 O392 1.315 . S
C400 O395 1.279 . S
C401 O402 1.315 . S
C401 O403 1.279 . S
O402 Cd394 2.223 . S
O402 C401 1.315 . S
O403 Cd393 2.240 . S
O403 C401 1.279 . S
O404 Cd394 2.297 . S
O404 C399 1.247 . S
O405 Cd394 2.439 . S
O405 C399 1.208 . S
O406 Cd407 2.223 . S
O406 C414 1.315 . S
Cd407 O406 2.223 . S
Cd407 O410 2.297 . S
Cd407 O411 2.439 . S
Cd407 O417 2.240 . S
Cd408 O409 2.240 . S
Cd408 O416 2.223 . S
Cd408 O418 2.297 . S
Cd408 O419 2.439 . S
O409 Cd408 2.240 . S
O409 C414 1.279 . S
O410 Cd407 2.297 . S
O410 C412 1.247 . S
O411 Cd407 2.439 . S
O411 C412 1.208 . S
C412 O410 1.247 . S
C412 O411 1.208 . S
C413 O418 1.247 . S
C413 O419 1.208 . S
C414 O406 1.315 . S
C414 O409 1.279 . S
C415 O416 1.315 . S
C415 O417 1.279 . S
O416 Cd408 2.223 . S
O416 C415 1.315 . S
O417 Cd407 2.240 . S
O417 C415 1.279 . S
O418 Cd408 2.297 . S
O418 C413 1.247 . S
O419 Cd408 2.439 . S
O419 C413 1.208 . S
O420 Cd421 2.223 . S
O420 C428 1.315 . S
Cd421 O420 2.223 . S
Cd421 O424 2.297 . S
Cd421 O425 2.439 . S
Cd421 O431 2.240 . S
Cd422 O423 2.240 . S
Cd422 O430 2.223 . S
Cd422 O432 2.297 . S
Cd422 O433 2.439 . S
O423 Cd422 2.240 . S
O423 C428 1.279 . S
O424 Cd421 2.297 . S
O424 C426 1.247 . S
O425 Cd421 2.439 . S
O425 C426 1.208 . S
C426 O424 1.247 . S
C426 O425 1.208 . S
C427 O432 1.247 . S
C427 O433 1.208 . S
C428 O420 1.315 . S
C428 O423 1.279 . S
C429 O430 1.315 . S
C429 O431 1.279 . S
O430 Cd422 2.223 . S
O430 C429 1.315 . S
O431 Cd421 2.240 . S
O431 C429 1.279 . S
O432 Cd422 2.297 . S
O432 C427 1.247 . S
O433 Cd422 2.439 . S
O433 C427 1.208 . S
O434 Cd435 2.223 . S
O434 C442 1.315 . S
Cd435 O434 2.223 . S
Cd435 O438 2.297 . S
Cd435 O439 2.439 . S
Cd435 O445 2.240 . S
Cd436 O437 2.240 . S
Cd436 O444 2.223 . S
Cd436 O446 2.297 . S
Cd436 O447 2.439 . S
O437 Cd436 2.240 . S
O437 C442 1.279 . S
O438 Cd435 2.297 . S
O438 C440 1.247 . S
O439 Cd435 2.439 . S
O439 C440 1.208 . S
C440 O438 1.247 . S
C440 O439 1.208 . S
C441 O446 1.247 . S
C441 O447 1.208 . S
C442 O434 1.315 . S
C442 O437 1.279 . S
C443 O444 1.315 . S
C443 O445 1.279 . S
O444 Cd436 2.223 . S
O444 C443 1.315 . S
O445 Cd435 2.240 . S
O445 C443 1.279 . S
O446 Cd436 2.297 . S
O446 C441 1.247 . S
O447 Cd436 2.439 . S
O447 C441 1.208 . S
O448 Cd449 2.223 . S
O448 C456 1.315 . S
Cd449 O448 2.223 . S
Cd449 O452 2.297 . S
Cd449 O453 2.439 . S
Cd449 O459 2.240 . S
Cd450 O451 2.240 . S
Cd450 O458 2.223 . S
Cd450 O460 2.297 . S
Cd450 O461 2.439 . S
O451 Cd450 2.240 . S
O451 C456 1.279 . S
O452 Cd449 2.297 . S
O452 C454 1.247 . S
O453 Cd449 2.439 . S
O453 C454 1.208 . S
C454 O452 1.247 . S
C454 O453 1.208 . S
C455 O460 1.247 . S
C455 O461 1.208 . S
C456 O448 1.315 . S
C456 O451 1.279 . S
C457 O458 1.315 . S
C457 O459 1.279 . S
O458 Cd450 2.223 . S
O458 C457 1.315 . S
O459 Cd449 2.240 . S
O459 C457 1.279 . S
O460 Cd450 2.297 . S
O460 C455 1.247 . S
O461 Cd450 2.439 . S
O461 C455 1.208 . S
O462 Cd463 2.223 . S
O462 C470 1.315 . S
Cd463 O462 2.223 . S
Cd463 O466 2.297 . S
Cd463 O467 2.439 . S
Cd463 O473 2.240 . S
Cd464 O465 2.240 . S
Cd464 O472 2.223 . S
Cd464 O474 2.297 . S
Cd464 O475 2.439 . S
O465 Cd464 2.240 . S
O465 C470 1.279 . S
O466 Cd463 2.297 . S
O466 C468 1.247 . S
O467 Cd463 2.439 . S
O467 C468 1.208 . S
C468 O466 1.247 . S
C468 O467 1.208 . S
C469 O474 1.247 . S
C469 O475 1.208 . S
C470 O462 1.315 . S
C470 O465 1.279 . S
C471 O472 1.315 . S
C471 O473 1.279 . S
O472 Cd464 2.223 . S
O472 C471 1.315 . S
O473 Cd463 2.240 . S
O473 C471 1.279 . S
O474 Cd464 2.297 . S
O474 C469 1.247 . S
O475 Cd464 2.439 . S
O475 C469 1.208 . S
O476 Cd477 2.223 . S
O476 C484 1.315 . S
Cd477 O476 2.223 . S
Cd477 O480 2.297 . S
Cd477 O481 2.439 . S
Cd477 O487 2.240 . S
Cd478 O479 2.240 . S
Cd478 O486 2.223 . S
Cd478 O488 2.297 . S
Cd478 O489 2.439 . S
O479 Cd478 2.240 . S
O479 C484 1.279 . S
O480 Cd477 2.297 . S
O480 C482 1.247 . S
O481 Cd477 2.439 . S
O481 C482 1.208 . S
C482 O480 1.247 . S
C482 O481 1.208 . S
C483 O488 1.247 . S
C483 O489 1.208 . S
C484 O476 1.315 . S
C484 O479 1.279 . S
C485 O486 1.315 . S
C485 O487 1.279 . S
O486 Cd478 2.223 . S
O486 C485 1.315 . S
O487 Cd477 2.240 . S
O487 C485 1.279 . S
O488 Cd478 2.297 . S
O488 C483 1.247 . S
O489 Cd478 2.439 . S
O489 C483 1.208 . S
O490 Cd491 2.223 . S
O490 C498 1.315 . S
Cd491 O490 2.223 . S
Cd491 O494 2.297 . S
Cd491 O495 2.439 . S
Cd491 O501 2.240 . S
Cd492 O493 2.240 . S
Cd492 O500 2.223 . S
Cd492 O502 2.297 . S
Cd492 O503 2.439 . S
O493 Cd492 2.240 . S
O493 C498 1.279 . S
O494 Cd491 2.297 . S
O494 C496 1.247 . S
O495 Cd491 2.439 . S
O495 C496 1.208 . S
C496 O494 1.247 . S
C496 O495 1.208 . S
C497 O502 1.247 . S
C497 O503 1.208 . S
C498 O490 1.315 . S
C498 O493 1.279 . S
C499 O500 1.315 . S
C499 O501 1.279 . S
O500 Cd492 2.223 . S
O500 C499 1.315 . S
O501 Cd491 2.240 . S
O501 C499 1.279 . S
O502 Cd492 2.297 . S
O502 C497 1.247 . S
O503 Cd492 2.439 . S
O503 C497 1.208 . S
O504 Cd505 2.223 . S
O504 C512 1.315 . S
Cd505 O504 2.223 . S
Cd505 O508 2.297 . S
Cd505 O509 2.439 . S
Cd505 O515 2.240 . S
Cd506 O507 2.240 . S
Cd506 O514 2.223 . S
Cd506 O516 2.297 . S
Cd506 O517 2.439 . S
O507 Cd506 2.240 . S
O507 C512 1.279 . S
O508 Cd505 2.297 . S
O508 C510 1.247 . S
O509 Cd505 2.439 . S
O509 C510 1.208 . S
C510 O508 1.247 . S
C510 O509 1.208 . S
C511 O516 1.247 . S
C511 O517 1.208 . S
C512 O504 1.315 . S
C512 O507 1.279 . S
C513 O514 1.315 . S
C513 O515 1.279 . S
O514 Cd506 2.223 . S
O514 C513 1.315 . S
O515 Cd505 2.240 . S
O515 C513 1.279 . S
O516 Cd506 2.297 . S
O516 C511 1.247 . S
O517 Cd506 2.439 . S
O517 C511 1.208 . S
O518 Cd519 2.223 . S
O518 C526 1.315 . S
Cd519 O518 2.223 . S
Cd519 O522 2.297 . S
Cd519 O523 2.439 . S
Cd519 O529 2.240 . S
Cd520 O521 2.240 . S
Cd520 O528 2.223 . S
Cd520 O530 2.297 . S
Cd520 O531 2.439 . S
O521 Cd520 2.240 . S
O521 C526 1.279 . S
O522 Cd519 2.297 . S
O522 C524 1.247 . S
O523 Cd519 2.439 . S
O523 C524 1.208 . S
C524 O522 1.247 . S
C524 O523 1.208 . S
C525 O530 1.247 . S
C525 O531 1.208 . S
C526 O518 1.315 . S
C526 O521 1.279 . S
C527 O528 1.315 . S
C527 O529 1.279 . S
O528 Cd520 2.223 . S
O528 C527 1.315 . S
O529 Cd519 2.240 . S
O529 C527 1.279 . S
O530 Cd520 2.297 . S
O530 C525 1.247 . S
O531 Cd520 2.439 . S
O531 C525 1.208 . S
O532 Cd533 2.223 . S
O532 C540 1.315 . S
Cd533 O532 2.223 . S
Cd533 O536 2.297 . S
Cd533 O537 2.439 . S
Cd533 O543 2.240 . S
Cd534 O535 2.240 . S
Cd534 O542 2.223 . S
Cd534 O544 2.297 . S
Cd534 O545 2.439 . S
O535 Cd534 2.240 . S
O535 C540 1.279 . S
O536 Cd533 2.297 . S
O536 C538 1.247 . S
O537 Cd533 2.439 . S
O537 C538 1.208 . S
C538 O536 1.247 . S
C538 O537 1.208 . S
C539 O544 1.247 . S
C539 O545 1.208 . S
C540 O532 1.315 . S
C540 O535 1.279 . S
C541 O542 1.315 . S
C541 O543 1.279 . S
O542 Cd534 2.223 . S
O542 C541 1.315 . S
O543 Cd533 2.240 . S
O543 C541 1.279 . S
O544 Cd534 2.297 . S
O544 C539 1.247 . S
O545 Cd534 2.439 . S
O545 C539 1.208 . S
O546 Cd547 2.223 . S
O546 C554 1.315 . S
Cd547 O546 2.223 . S
Cd547 O550 2.297 . S
Cd547 O551 2.439 . S
Cd547 O557 2.240 . S
Cd548 O549 2.240 . S
Cd548 O556 2.223 . S
Cd548 O558 2.297 . S
Cd548 O559 2.439 . S
O549 Cd548 2.240 . S
O549 C554 1.279 . S
O550 Cd547 2.297 . S
O550 C552 1.247 . S
O551 Cd547 2.439 . S
O551 C552 1.208 . S
C552 O550 1.247 . S
C552 O551 1.208 . S
C553 O558 1.247 . S
C553 O559 1.208 . S
C554 O546 1.315 . S
C554 O549 1.279 . S
C555 O556 1.315 . S
C555 O557 1.279 . S
O556 Cd548 2.223 . S
O556 C555 1.315 . S
O557 Cd547 2.240 . S
O557 C555 1.279 . S
O558 Cd548 2.297 . S
O558 C553 1.247 . S
O559 Cd548 2.439 . S
O559 C553 1.208 . S
O560 Cd561 2.223 . S
O560 C568 1.315 . S
Cd561 O560 2.223 . S
Cd561 O564 2.297 . S
Cd561 O565 2.439 . S
Cd561 O571 2.240 . S
Cd562 O563 2.240 . S
Cd562 O570 2.223 . S
Cd562 O572 2.297 . S
Cd562 O573 2.439 . S
O563 Cd562 2.240 . S
O563 C568 1.279 . S
O564 Cd561 2.297 . S
O564 C566 1.247 . S
O565 Cd561 2.439 . S
O565 C566 1.208 . S
C566 O564 1.247 . S
C566 O565 1.208 . S
C567 O572 1.247 . S
C567 O573 1.208 . S
C568 O560 1.315 . S
C568 O563 1.279 . S
C569 O570 1.315 . S
C569 O571 1.279 . S
O570 Cd562 2.223 . S
O570 C569 1.315 . S
O571 Cd561 2.240 . S
O571 C569 1.279 . S
O572 Cd562 2.297 . S
O572 C567 1.247 . S
O573 Cd562 2.439 . S
O573 C567 1.208 . S
O574 Cd575 2.223 . S
O574 C582 1.315 . S
Cd575 O574 2.223 . S
Cd575 O578 2.297 . S
Cd575 O579 2.439 . S
Cd575 O585 2.240 . S
Cd576 O577 2.240 . S
Cd576 O584 2.223 . S
Cd576 O586 2.297 . S
Cd576 O587 2.439 . S
O577 Cd576 2.240 . S
O577 C582 1.279 . S
O578 Cd575 2.297 . S
O578 C580 1.247 . S
O579 Cd575 2.439 . S
O579 C580 1.208 . S
C580 O578 1.247 . S
C580 O579 1.208 . S
C581 O586 1.247 . S
C581 O587 1.208 . S
C582 O574 1.315 . S
C582 O577 1.279 . S
C583 O584 1.315 . S
C583 O585 1.279 . S
O584 Cd576 2.223 . S
O584 C583 1.315 . S
O585 Cd575 2.240 . S
O585 C583 1.279 . S
O586 Cd576 2.297 . S
O586 C581 1.247 . S
O587 Cd576 2.439 . S
O587 C581 1.208 . S
O588 Cd589 2.223 . S
O588 C596 1.315 . S
Cd589 O588 2.223 . S
Cd589 O592 2.297 . S
Cd589 O593 2.439 . S
Cd589 O599 2.240 . S
Cd590 O591 2.240 . S
Cd590 O598 2.223 . S
Cd590 O600 2.297 . S
Cd590 O601 2.439 . S
O591 Cd590 2.240 . S
O591 C596 1.279 . S
O592 Cd589 2.297 . S
O592 C594 1.247 . S
O593 Cd589 2.439 . S
O593 C594 1.208 . S
C594 O592 1.247 . S
C594 O593 1.208 . S
C595 O600 1.247 . S
C595 O601 1.208 . S
C596 O588 1.315 . S
C596 O591 1.279 . S
C597 O598 1.315 . S
C597 O599 1.279 . S
O598 Cd590 2.223 . S
O598 C597 1.315 . S
O599 Cd589 2.240 . S
O599 C597 1.279 . S
O600 Cd590 2.297 . S
O600 C595 1.247 . S
O601 Cd590 2.439 . S
O601 C595 1.208 . S
O602 Cd603 2.223 . S
O602 C610 1.315 . S
Cd603 O602 2.223 . S
Cd603 O606 2.297 . S
Cd603 O607 2.439 . S
Cd603 O613 2.240 . S
Cd604 O605 2.240 . S
Cd604 O612 2.223 . S
Cd604 O614 2.297 . S
Cd604 O615 2.439 . S
O605 Cd604 2.240 . S
O605 C610 1.279 . S
O606 Cd603 2.297 . S
O606 C608 1.247 . S
O607 Cd603 2.439 . S
O607 C608 1.208 . S
C608 O606 1.247 . S
C608 O607 1.208 . S
C609 O614 1.247 . S
C609 O615 1.208 . S
C610 O602 1.315 . S
C610 O605 1.279 . S
C611 O612 1.315 . S
C611 O613 1.279 . S
O612 Cd604 2.223 . S
O612 C611 1.315 . S
O613 Cd603 2.240 . S
O613 C611 1.279 . S
O614 Cd604 2.297 . S
O614 C609 1.247 . S
O615 Cd604 2.439 . S
O615 C609 1.208 . S
O616 Cd617 2.223 . S
O616 C624 1.315 . S
Cd617 O616 2.223 . S
Cd617 O620 2.297 . S
Cd617 O621 2.439 . S
Cd617 O627 2.240 . S
Cd618 O619 2.240 . S
Cd618 O626 2.223 . S
Cd618 O628 2.297 . S
Cd618 O629 2.439 . S
O619 Cd618 2.240 . S
O619 C624 1.279 . S
O620 Cd617 2.297 . S
O620 C622 1.247 . S
O621 Cd617 2.439 . S
O621 C622 1.208 . S
C622 O620 1.247 . S
C622 O621 1.208 . S
C623 O628 1.247 . S
C623 O629 1.208 . S
C624 O616 1.315 . S
C624 O619 1.279 . S
C625 O626 1.315 . S
C625 O627 1.279 . S
O626 Cd618 2.223 . S
O626 C625 1.315 . S
O627 Cd617 2.240 . S
O627 C625 1.279 . S
O628 Cd618 2.297 . S
O628 C623 1.247 . S
O629 Cd618 2.439 . S
O629 C623 1.208 . S
O630 Cd631 2.223 . S
O630 C638 1.315 . S
Cd631 O630 2.223 . S
Cd631 O634 2.297 . S
Cd631 O635 2.439 . S
Cd631 O641 2.240 . S
Cd632 O633 2.240 . S
Cd632 O640 2.223 . S
Cd632 O642 2.297 . S
Cd632 O643 2.439 . S
O633 Cd632 2.240 . S
O633 C638 1.279 . S
O634 Cd631 2.297 . S
O634 C636 1.247 . S
O635 Cd631 2.439 . S
O635 C636 1.208 . S
C636 O634 1.247 . S
C636 O635 1.208 . S
C637 O642 1.247 . S
C637 O643 1.208 . S
C638 O630 1.315 . S
C638 O633 1.279 . S
C639 O640 1.315 . S
C639 O641 1.279 . S
O640 Cd632 2.223 . S
O640 C639 1.315 . S
O641 Cd631 2.240 . S
O641 C639 1.279 . S
O642 Cd632 2.297 . S
O642 C637 1.247 . S
O643 Cd632 2.439 . S
O643 C637 1.208 . S
O644 Cd645 2.223 . S
O644 C652 1.315 . S
Cd645 O644 2.223 . S
Cd645 O648 2.297 . S
Cd645 O649 2.439 . S
Cd645 O655 2.240 . S
Cd646 O647 2.240 . S
Cd646 O654 2.223 . S
Cd646 O656 2.297 . S
Cd646 O657 2.439 . S
O647 Cd646 2.240 . S
O647 C652 1.279 . S
O648 Cd645 2.297 . S
O648 C650 1.247 . S
O649 Cd645 2.439 . S
O649 C650 1.208 . S
C650 O648 1.247 . S
C650 O649 1.208 . S
C651 O656 1.247 . S
C651 O657 1.208 . S
C652 O644 1.315 . S
C652 O647 1.279 . S
C653 O654 1.315 . S
C653 O655 1.279 . S
O654 Cd646 2.223 . S
O654 C653 1.315 . S
O655 Cd645 2.240 . S
O655 C653 1.279 . S
O656 Cd646 2.297 . S
O656 C651 1.247 . S
O657 Cd646 2.439 . S
O657 C651 1.208 . S
O658 Cd659 2.223 . S
O658 C666 1.315 . S
Cd659 O658 2.223 . S
Cd659 O662 2.297 . S
Cd659 O663 2.439 . S
Cd659 O669 2.240 . S
Cd660 O661 2.240 . S
Cd660 O668 2.223 . S
Cd660 O670 2.297 . S
Cd660 O671 2.439 . S
O661 Cd660 2.240 . S
O661 C666 1.279 . S
O662 Cd659 2.297 . S
O662 C664 1.247 . S
O663 Cd659 2.439 . S
O663 C664 1.208 . S
C664 O662 1.247 . S
C664 O663 1.208 . S
C665 O670 1.247 . S
C665 O671 1.208 . S
C666 O658 1.315 . S
C666 O661 1.279 . S
C667 O668 1.315 . S
C667 O669 1.279 . S
O668 Cd660 2.223 . S
O668 C667 1.315 . S
O669 Cd659 2.240 . S
O669 C667 1.279 . S
O670 Cd660 2.297 . S
O670 C665 1.247 . S
O671 Cd660 2.439 . S
O671 C665 1.208 . S
H672 C678 0.930 . S
H673 C681 0.930 . S
H674 C682 0.930 . S
H675 C683 0.930 . S
H676 C686 0.930 . S
H677 C687 0.930 . S
C678 H672 0.930 . S
C678 C679 1.355 . S
C678 C680 1.415 . S
C679 C678 1.355 . S
C679 C681 1.419 . S
C680 C678 1.415 . S
C680 C685 1.425 1_655 S
C680 C687 1.409 1_655 S
C681 H673 0.930 . S
C681 C679 1.419 . S
C681 C682 1.362 . S
C682 H674 0.930 . S
C682 C681 1.362 . S
C682 C685 1.409 1_655 S
C683 H675 0.930 . S
C683 C684 1.355 . S
C683 C685 1.415 . S
C684 C683 1.355 . S
C684 C686 1.419 . S
C685 C680 1.425 1_455 S
C685 C682 1.409 1_455 S
C685 C683 1.415 . S
C686 H676 0.930 . S
C686 C684 1.419 . S
C686 C687 1.362 . S
C687 H677 0.930 . S
C687 C680 1.409 1_455 S
C687 C686 1.362 . S
H688 C694 0.930 . S
H689 C697 0.930 . S
H690 C698 0.930 . S
H691 C699 0.930 . S
H692 C702 0.930 . S
H693 C703 0.930 . S
C694 H688 0.930 . S
C694 C695 1.355 . S
C694 C696 1.415 . S
C695 C694 1.355 . S
C695 C697 1.419 . S
C696 C694 1.415 . S
C696 C701 1.425 . S
C696 C703 1.409 . S
C697 H689 0.930 . S
C697 C695 1.419 . S
C697 C698 1.362 . S
C698 H690 0.930 . S
C698 C697 1.362 . S
C698 C701 1.409 . S
C699 H691 0.930 . S
C699 C700 1.355 . S
C699 C701 1.415 . S
C700 C699 1.355 . S
C700 C702 1.419 . S
C701 C696 1.425 . S
C701 C698 1.409 . S
C701 C699 1.415 . S
C702 H692 0.930 . S
C702 C700 1.419 . S
C702 C703 1.362 . S
C703 H693 0.930 . S
C703 C696 1.409 . S
C703 C702 1.362 . S
H704 C710 0.930 . S
H705 C713 0.930 . S
H706 C714 0.930 . S
H707 C715 0.930 . S
H708 C718 0.930 . S
H709 C719 0.930 . S
C710 H704 0.930 . S
C710 C711 1.355 . S
C710 C712 1.415 . S
C711 C710 1.355 . S
C711 C713 1.419 . S
C712 C710 1.415 . S
C712 C717 1.425 1_455 S
C712 C719 1.409 1_455 S
C713 H705 0.930 . S
C713 C711 1.419 . S
C713 C714 1.362 . S
C714 H706 0.930 . S
C714 C713 1.362 . S
C714 C717 1.409 1_455 S
C715 H707 0.930 . S
C715 C716 1.355 . S
C715 C717 1.415 . S
C716 C715 1.355 . S
C716 C718 1.419 . S
C717 C712 1.425 1_655 S
C717 C714 1.409 1_655 S
C717 C715 1.415 . S
C718 H708 0.930 . S
C718 C716 1.419 . S
C718 C719 1.362 . S
C719 H709 0.930 . S
C719 C712 1.409 1_655 S
C719 C718 1.362 . S
H720 C726 0.930 . S
H721 C729 0.930 . S
H722 C730 0.930 . S
H723 C731 0.930 . S
H724 C734 0.930 . S
H725 C735 0.930 . S
C726 H720 0.930 . S
C726 C727 1.355 . S
C726 C728 1.415 . S
C727 C726 1.355 . S
C727 C729 1.419 . S
C728 C726 1.415 . S
C728 C733 1.425 . S
C728 C735 1.409 . S
C729 H721 0.930 . S
C729 C727 1.419 . S
C729 C730 1.362 . S
C730 H722 0.930 . S
C730 C729 1.362 . S
C730 C733 1.409 . S
C731 H723 0.930 . S
C731 C732 1.355 . S
C731 C733 1.415 . S
C732 C731 1.355 . S
C732 C734 1.419 . S
C733 C728 1.425 . S
C733 C730 1.409 . S
C733 C731 1.415 . S
C734 H724 0.930 . S
C734 C732 1.419 . S
C734 C735 1.362 . S
C735 H725 0.930 . S
C735 C728 1.409 . S
C735 C734 1.362 . S
H736 C742 0.930 . S
H737 C745 0.930 . S
H738 C746 0.930 . S
H739 C747 0.930 . S
H740 C750 0.930 . S
H741 C751 0.930 . S
C742 H736 0.930 . S
C742 C743 1.355 . S
C742 C744 1.415 . S
C743 C742 1.355 . S
C743 C745 1.419 . S
C744 C742 1.415 . S
C744 C749 1.425 1_655 S
C744 C751 1.409 1_655 S
C745 H737 0.930 . S
C745 C743 1.419 . S
C745 C746 1.362 . S
C746 H738 0.930 . S
C746 C745 1.362 . S
C746 C749 1.409 1_655 S
C747 H739 0.930 . S
C747 C748 1.355 . S
C747 C749 1.415 . S
C748 C747 1.355 . S
C748 C750 1.419 . S
C749 C744 1.425 1_455 S
C749 C746 1.409 1_455 S
C749 C747 1.415 . S
C750 H740 0.930 . S
C750 C748 1.419 . S
C750 C751 1.362 . S
C751 H741 0.930 . S
C751 C744 1.409 1_455 S
C751 C750 1.362 . S
H752 C758 0.930 . S
H753 C761 0.930 . S
H754 C762 0.930 . S
H755 C763 0.930 . S
H756 C766 0.930 . S
H757 C767 0.930 . S
C758 H752 0.930 . S
C758 C759 1.355 . S
C758 C760 1.415 . S
C759 C758 1.355 . S
C759 C761 1.419 . S
C760 C758 1.415 . S
C760 C765 1.425 . S
C760 C767 1.409 . S
C761 H753 0.930 . S
C761 C759 1.419 . S
C761 C762 1.362 . S
C762 H754 0.930 . S
C762 C761 1.362 . S
C762 C765 1.409 . S
C763 H755 0.930 . S
C763 C764 1.355 . S
C763 C765 1.415 . S
C764 C763 1.355 . S
C764 C766 1.419 . S
C765 C760 1.425 . S
C765 C762 1.409 . S
C765 C763 1.415 . S
C766 H756 0.930 . S
C766 C764 1.419 . S
C766 C767 1.362 . S
C767 H757 0.930 . S
C767 C760 1.409 . S
C767 C766 1.362 . S
H768 C774 0.930 . S
H769 C777 0.930 . S
H770 C778 0.930 . S
H771 C779 0.930 . S
H772 C782 0.930 . S
H773 C783 0.930 . S
C774 H768 0.930 . S
C774 C775 1.355 . S
C774 C776 1.415 . S
C775 C774 1.355 . S
C775 C777 1.419 . S
C776 C774 1.415 . S
C776 C781 1.425 1_455 S
C776 C783 1.409 1_455 S
C777 H769 0.930 . S
C777 C775 1.419 . S
C777 C778 1.362 . S
C778 H770 0.930 . S
C778 C777 1.362 . S
C778 C781 1.409 1_455 S
C779 H771 0.930 . S
C779 C780 1.355 . S
C779 C781 1.415 . S
C780 C779 1.355 . S
C780 C782 1.419 . S
C781 C776 1.425 1_655 S
C781 C778 1.409 1_655 S
C781 C779 1.415 . S
C782 H772 0.930 . S
C782 C780 1.419 . S
C782 C783 1.362 . S
C783 H773 0.930 . S
C783 C776 1.409 1_655 S
C783 C782 1.362 . S
H784 C790 0.930 . S
H785 C793 0.930 . S
H786 C794 0.930 . S
H787 C795 0.930 . S
H788 C798 0.930 . S
H789 C799 0.930 . S
C790 H784 0.930 . S
C790 C791 1.355 . S
C790 C792 1.415 . S
C791 C790 1.355 . S
C791 C793 1.419 . S
C792 C790 1.415 . S
C792 C797 1.425 . S
C792 C799 1.409 . S
C793 H785 0.930 . S
C793 C791 1.419 . S
C793 C794 1.362 . S
C794 H786 0.930 . S
C794 C793 1.362 . S
C794 C797 1.409 . S
C795 H787 0.930 . S
C795 C796 1.355 . S
C795 C797 1.415 . S
C796 C795 1.355 . S
C796 C798 1.419 . S
C797 C792 1.425 . S
C797 C794 1.409 . S
C797 C795 1.415 . S
C798 H788 0.930 . S
C798 C796 1.419 . S
C798 C799 1.362 . S
C799 H789 0.930 . S
C799 C792 1.409 . S
C799 C798 1.362 . S
H800 C806 0.930 . S
H801 C809 0.930 . S
H802 C810 0.930 . S
H803 C811 0.930 . S
H804 C814 0.930 . S
H805 C815 0.930 . S
C806 H800 0.930 . S
C806 C807 1.355 . S
C806 C808 1.415 . S
C807 C806 1.355 . S
C807 C809 1.419 . S
C808 C806 1.415 . S
C808 C813 1.425 1_565 S
C808 C815 1.409 1_565 S
C809 H801 0.930 . S
C809 C807 1.419 . S
C809 C810 1.362 . S
C810 H802 0.930 . S
C810 C809 1.362 . S
C810 C813 1.409 1_565 S
C811 H803 0.930 . S
C811 C812 1.355 . S
C811 C813 1.415 . S
C812 C811 1.355 . S
C812 C814 1.419 . S
C813 C808 1.425 1_545 S
C813 C810 1.409 1_545 S
C813 C811 1.415 . S
C814 H804 0.930 . S
C814 C812 1.419 . S
C814 C815 1.362 . S
C815 H805 0.930 . S
C815 C808 1.409 1_545 S
C815 C814 1.362 . S
H816 C822 0.930 . S
H817 C825 0.930 . S
H818 C826 0.930 . S
H819 C827 0.930 . S
H820 C830 0.930 . S
H821 C831 0.930 . S
C822 H816 0.930 . S
C822 C823 1.355 . S
C822 C824 1.415 . S
C823 C822 1.355 . S
C823 C825 1.419 . S
C824 C822 1.415 . S
C824 C829 1.425 . S
C824 C831 1.409 . S
C825 H817 0.930 . S
C825 C823 1.419 . S
C825 C826 1.362 . S
C826 H818 0.930 . S
C826 C825 1.362 . S
C826 C829 1.409 . S
C827 H819 0.930 . S
C827 C828 1.355 . S
C827 C829 1.415 . S
C828 C827 1.355 . S
C828 C830 1.419 . S
C829 C824 1.425 . S
C829 C826 1.409 . S
C829 C827 1.415 . S
C830 H820 0.930 . S
C830 C828 1.419 . S
C830 C831 1.362 . S
C831 H821 0.930 . S
C831 C824 1.409 . S
C831 C830 1.362 . S
H832 C838 0.930 . S
H833 C841 0.930 . S
H834 C842 0.930 . S
H835 C843 0.930 . S
H836 C846 0.930 . S
H837 C847 0.930 . S
C838 H832 0.930 . S
C838 C839 1.355 . S
C838 C840 1.415 . S
C839 C838 1.355 . S
C839 C841 1.419 . S
C840 C838 1.415 . S
C840 C845 1.425 1_545 S
C840 C847 1.409 1_545 S
C841 H833 0.930 . S
C841 C839 1.419 . S
C841 C842 1.362 . S
C842 H834 0.930 . S
C842 C841 1.362 . S
C842 C845 1.409 1_545 S
C843 H835 0.930 . S
C843 C844 1.355 . S
C843 C845 1.415 . S
C844 C843 1.355 . S
C844 C846 1.419 . S
C845 C840 1.425 1_565 S
C845 C842 1.409 1_565 S
C845 C843 1.415 . S
C846 H836 0.930 . S
C846 C844 1.419 . S
C846 C847 1.362 . S
C847 H837 0.930 . S
C847 C840 1.409 1_565 S
C847 C846 1.362 . S
H848 C854 0.930 . S
H849 C857 0.930 . S
H850 C858 0.930 . S
H851 C859 0.930 . S
H852 C862 0.930 . S
H853 C863 0.930 . S
C854 H848 0.930 . S
C854 C855 1.355 . S
C854 C856 1.415 . S
C855 C854 1.355 . S
C855 C857 1.419 . S
C856 C854 1.415 . S
C856 C861 1.425 . S
C856 C863 1.409 . S
C857 H849 0.930 . S
C857 C855 1.419 . S
C857 C858 1.362 . S
C858 H850 0.930 . S
C858 C857 1.362 . S
C858 C861 1.409 . S
C859 H851 0.930 . S
C859 C860 1.355 . S
C859 C861 1.415 . S
C860 C859 1.355 . S
C860 C862 1.419 . S
C861 C856 1.425 . S
C861 C858 1.409 . S
C861 C859 1.415 . S
C862 H852 0.930 . S
C862 C860 1.419 . S
C862 C863 1.362 . S
C863 H853 0.930 . S
C863 C856 1.409 . S
C863 C862 1.362 . S
H864 C870 0.930 . S
H865 C873 0.930 . S
H866 C874 0.930 . S
H867 C875 0.930 . S
H868 C878 0.930 . S
H869 C879 0.930 . S
C870 H864 0.930 . S
C870 C871 1.355 . S
C870 C872 1.415 . S
C871 C870 1.355 . S
C871 C873 1.419 . S
C872 C870 1.415 . S
C872 C877 1.425 1_545 S
C872 C879 1.409 1_545 S
C873 H865 0.930 . S
C873 C871 1.419 . S
C873 C874 1.362 . S
C874 H866 0.930 . S
C874 C873 1.362 . S
C874 C877 1.409 1_545 S
C875 H867 0.930 . S
C875 C876 1.355 . S
C875 C877 1.415 . S
C876 C875 1.355 . S
C876 C878 1.419 . S
C877 C872 1.425 1_565 S
C877 C874 1.409 1_565 S
C877 C875 1.415 . S
C878 H868 0.930 . S
C878 C876 1.419 . S
C878 C879 1.362 . S
C879 H869 0.930 . S
C879 C872 1.409 1_565 S
C879 C878 1.362 . S
H880 C886 0.930 . S
H881 C889 0.930 . S
H882 C890 0.930 . S
H883 C891 0.930 . S
H884 C894 0.930 . S
H885 C895 0.930 . S
C886 H880 0.930 . S
C886 C887 1.355 . S
C886 C888 1.415 . S
C887 C886 1.355 . S
C887 C889 1.419 . S
C888 C886 1.415 . S
C888 C893 1.425 . S
C888 C895 1.409 . S
C889 H881 0.930 . S
C889 C887 1.419 . S
C889 C890 1.362 . S
C890 H882 0.930 . S
C890 C889 1.362 . S
C890 C893 1.409 . S
C891 H883 0.930 . S
C891 C892 1.355 . S
C891 C893 1.415 . S
C892 C891 1.355 . S
C892 C894 1.419 . S
C893 C888 1.425 . S
C893 C890 1.409 . S
C893 C891 1.415 . S
C894 H884 0.930 . S
C894 C892 1.419 . S
C894 C895 1.362 . S
C895 H885 0.930 . S
C895 C888 1.409 . S
C895 C894 1.362 . S
H896 C902 0.930 . S
H897 C905 0.930 . S
H898 C906 0.930 . S
H899 C907 0.930 . S
H900 C910 0.930 . S
H901 C911 0.930 . S
C902 H896 0.930 . S
C902 C903 1.355 . S
C902 C904 1.415 . S
C903 C902 1.355 . S
C903 C905 1.419 . S
C904 C902 1.415 . S
C904 C909 1.425 1_545 S
C904 C911 1.409 1_545 S
C905 H897 0.930 . S
C905 C903 1.419 . S
C905 C906 1.362 . S
C906 H898 0.930 . S
C906 C905 1.362 . S
C906 C909 1.409 1_545 S
C907 H899 0.930 . S
C907 C908 1.355 . S
C907 C909 1.415 . S
C908 C907 1.355 . S
C908 C910 1.419 . S
C909 C904 1.425 1_565 S
C909 C906 1.409 1_565 S
C909 C907 1.415 . S
C910 H900 0.930 . S
C910 C908 1.419 . S
C910 C911 1.362 . S
C911 H901 0.930 . S
C911 C904 1.409 1_565 S
C911 C910 1.362 . S
H912 C918 0.930 . S
H913 C921 0.930 . S
H914 C922 0.930 . S
H915 C923 0.930 . S
H916 C926 0.930 . S
H917 C927 0.930 . S
C918 H912 0.930 . S
C918 C919 1.355 . S
C918 C920 1.415 . S
C919 C918 1.355 . S
C919 C921 1.419 . S
C920 C918 1.415 . S
C920 C925 1.425 . S
C920 C927 1.409 . S
C921 H913 0.930 . S
C921 C919 1.419 . S
C921 C922 1.362 . S
C922 H914 0.930 . S
C922 C921 1.362 . S
C922 C925 1.409 . S
C923 H915 0.930 . S
C923 C924 1.355 . S
C923 C925 1.415 . S
C924 C923 1.355 . S
C924 C926 1.419 . S
C925 C920 1.425 . S
C925 C922 1.409 . S
C925 C923 1.415 . S
C926 H916 0.930 . S
C926 C924 1.419 . S
C926 C927 1.362 . S
C927 H917 0.930 . S
C927 C920 1.409 . S
C927 C926 1.362 . S
H928 C934 0.930 . S
H929 C937 0.930 . S
H930 C938 0.930 . S
H931 C939 0.930 . S
H932 C942 0.930 . S
H933 C943 0.930 . S
C934 H928 0.930 . S
C934 C935 1.355 . S
C934 C936 1.415 . S
C935 C934 1.355 . S
C935 C937 1.419 . S
C936 C934 1.415 . S
C936 C941 1.425 1_554 S
C936 C943 1.409 1_554 S
C937 H929 0.930 . S
C937 C935 1.419 . S
C937 C938 1.362 . S
C938 H930 0.930 . S
C938 C937 1.362 . S
C938 C941 1.409 1_554 S
C939 H931 0.930 . S
C939 C940 1.355 . S
C939 C941 1.415 . S
C940 C939 1.355 . S
C940 C942 1.419 . S
C941 C936 1.425 1_556 S
C941 C938 1.409 1_556 S
C941 C939 1.415 . S
C942 H932 0.930 . S
C942 C940 1.419 . S
C942 C943 1.362 . S
C943 H933 0.930 . S
C943 C936 1.409 1_556 S
C943 C942 1.362 . S
H944 C950 0.930 . S
H945 C953 0.930 . S
H946 C954 0.930 . S
H947 C955 0.930 . S
H948 C958 0.930 . S
H949 C959 0.930 . S
C950 H944 0.930 . S
C950 C951 1.355 . S
C950 C952 1.415 . S
C951 C950 1.355 . S
C951 C953 1.419 . S
C952 C950 1.415 . S
C952 C957 1.425 1_554 S
C952 C959 1.409 1_554 S
C953 H945 0.930 . S
C953 C951 1.419 . S
C953 C954 1.362 . S
C954 H946 0.930 . S
C954 C953 1.362 . S
C954 C957 1.409 1_554 S
C955 H947 0.930 . S
C955 C956 1.355 . S
C955 C957 1.415 . S
C956 C955 1.355 . S
C956 C958 1.419 . S
C957 C952 1.425 1_556 S
C957 C954 1.409 1_556 S
C957 C955 1.415 . S
C958 H948 0.930 . S
C958 C956 1.419 . S
C958 C959 1.362 . S
C959 H949 0.930 . S
C959 C952 1.409 1_556 S
C959 C958 1.362 . S
H960 C966 0.930 . S
H961 C969 0.930 . S
H962 C970 0.930 . S
H963 C971 0.930 . S
H964 C974 0.930 . S
H965 C975 0.930 . S
C966 H960 0.930 . S
C966 C967 1.355 . S
C966 C968 1.415 . S
C967 C966 1.355 . S
C967 C969 1.419 . S
C968 C966 1.415 . S
C968 C973 1.425 . S
C968 C975 1.409 . S
C969 H961 0.930 . S
C969 C967 1.419 . S
C969 C970 1.362 . S
C970 H962 0.930 . S
C970 C969 1.362 . S
C970 C973 1.409 . S
C971 H963 0.930 . S
C971 C972 1.355 . S
C971 C973 1.415 . S
C972 C971 1.355 . S
C972 C974 1.419 . S
C973 C968 1.425 . S
C973 C970 1.409 . S
C973 C971 1.415 . S
C974 H964 0.930 . S
C974 C972 1.419 . S
C974 C975 1.362 . S
C975 H965 0.930 . S
C975 C968 1.409 . S
C975 C974 1.362 . S
H976 C982 0.930 . S
H977 C985 0.930 . S
H978 C986 0.930 . S
H979 C987 0.930 . S
H980 C990 0.930 . S
H981 C991 0.930 . S
C982 H976 0.930 . S
C982 C983 1.355 . S
C982 C984 1.415 . S
C983 C982 1.355 . S
C983 C985 1.419 . S
C984 C982 1.415 . S
C984 C989 1.425 1_554 S
C984 C991 1.409 1_554 S
C985 H977 0.930 . S
C985 C983 1.419 . S
C985 C986 1.362 . S
C986 H978 0.930 . S
C986 C985 1.362 . S
C986 C989 1.409 1_554 S
C987 H979 0.930 . S
C987 C988 1.355 . S
C987 C989 1.415 . S
C988 C987 1.355 . S
C988 C990 1.419 . S
C989 C984 1.425 1_556 S
C989 C986 1.409 1_556 S
C989 C987 1.415 . S
C990 H980 0.930 . S
C990 C988 1.419 . S
C990 C991 1.362 . S
C991 H981 0.930 . S
C991 C984 1.409 1_556 S
C991 C990 1.362 . S
H992 C998 0.930 . S
H993 C1001 0.930 . S
H994 C1002 0.930 . S
H995 C1003 0.930 . S
H996 C1006 0.930 . S
H997 C1007 0.930 . S
C998 H992 0.930 . S
C998 C999 1.355 . S
C998 C1000 1.415 . S
C999 C998 1.355 . S
C999 C1001 1.419 . S
C1000 C998 1.415 . S
C1000 C1005 1.425 . S
C1000 C1007 1.409 . S
C1001 H993 0.930 . S
C1001 C999 1.419 . S
C1001 C1002 1.362 . S
C1002 H994 0.930 . S
C1002 C1001 1.362 . S
C1002 C1005 1.409 . S
C1003 H995 0.930 . S
C1003 C1004 1.355 . S
C1003 C1005 1.415 . S
C1004 C1003 1.355 . S
C1004 C1006 1.419 . S
C1005 C1000 1.425 . S
C1005 C1002 1.409 . S
C1005 C1003 1.415 . S
C1006 H996 0.930 . S
C1006 C1004 1.419 . S
C1006 C1007 1.362 . S
C1007 H997 0.930 . S
C1007 C1000 1.409 . S
C1007 C1006 1.362 . S
H1008 C1014 0.930 . S
H1009 C1017 0.930 . S
H1010 C1018 0.930 . S
H1011 C1019 0.930 . S
H1012 C1022 0.930 . S
H1013 C1023 0.930 . S
C1014 H1008 0.930 . S
C1014 C1015 1.355 . S
C1014 C1016 1.415 . S
C1015 C1014 1.355 . S
C1015 C1017 1.419 . S
C1016 C1014 1.415 . S
C1016 C1021 1.425 1_554 S
C1016 C1023 1.409 1_554 S
C1017 H1009 0.930 . S
C1017 C1015 1.419 . S
C1017 C1018 1.362 . S
C1018 H1010 0.930 . S
C1018 C1017 1.362 . S
C1018 C1021 1.409 1_554 S
C1019 H1011 0.930 . S
C1019 C1020 1.355 . S
C1019 C1021 1.415 . S
C1020 C1019 1.355 . S
C1020 C1022 1.419 . S
C1021 C1016 1.425 1_556 S
C1021 C1018 1.409 1_556 S
C1021 C1019 1.415 . S
C1022 H1012 0.930 . S
C1022 C1020 1.419 . S
C1022 C1023 1.362 . S
C1023 H1013 0.930 . S
C1023 C1016 1.409 1_556 S
C1023 C1022 1.362 . S
H1024 C1030 0.930 . S
H1025 C1033 0.930 . S
H1026 C1034 0.930 . S
H1027 C1035 0.930 . S
H1028 C1038 0.930 . S
H1029 C1039 0.930 . S
C1030 H1024 0.930 . S
C1030 C1031 1.355 . S
C1030 C1032 1.415 . S
C1031 C1030 1.355 . S
C1031 C1033 1.419 . S
C1032 C1030 1.415 . S
C1032 C1037 1.425 . S
C1032 C1039 1.409 . S
C1033 H1025 0.930 . S
C1033 C1031 1.419 . S
C1033 C1034 1.362 . S
C1034 H1026 0.930 . S
C1034 C1033 1.362 . S
C1034 C1037 1.409 . S
C1035 H1027 0.930 . S
C1035 C1036 1.355 . S
C1035 C1037 1.415 . S
C1036 C1035 1.355 . S
C1036 C1038 1.419 . S
C1037 C1032 1.425 . S
C1037 C1034 1.409 . S
C1037 C1035 1.415 . S
C1038 H1028 0.930 . S
C1038 C1036 1.419 . S
C1038 C1039 1.362 . S
C1039 H1029 0.930 . S
C1039 C1032 1.409 . S
C1039 C1038 1.362 . S
H1040 C1046 0.930 . S
H1041 C1049 0.930 . S
H1042 C1050 0.930 . S
H1043 C1051 0.930 . S
H1044 C1054 0.930 . S
H1045 C1055 0.930 . S
C1046 H1040 0.930 . S
C1046 C1047 1.355 . S
C1046 C1048 1.415 . S
C1047 C1046 1.355 . S
C1047 C1049 1.419 . S
C1048 C1046 1.415 . S
C1048 C1053 1.425 . S
C1048 C1055 1.409 . S
C1049 H1041 0.930 . S
C1049 C1047 1.419 . S
C1049 C1050 1.362 . S
C1050 H1042 0.930 . S
C1050 C1049 1.362 . S
C1050 C1053 1.409 . S
C1051 H1043 0.930 . S
C1051 C1052 1.355 . S
C1051 C1053 1.415 . S
C1052 C1051 1.355 . S
C1052 C1054 1.419 . S
C1053 C1048 1.425 . S
C1053 C1050 1.409 . S
C1053 C1051 1.415 . S
C1054 H1044 0.930 . S
C1054 C1052 1.419 . S
C1054 C1055 1.362 . S
C1055 H1045 0.930 . S
C1055 C1048 1.409 . S
C1055 C1054 1.362 . S
H1056 C1062 0.930 . S
H1057 C1065 0.930 . S
H1058 C1066 0.930 . S
H1059 C1067 0.930 . S
H1060 C1070 0.930 . S
H1061 C1071 0.930 . S
C1062 H1056 0.930 . S
C1062 C1063 1.355 . S
C1062 C1064 1.415 . S
C1063 C1062 1.355 . S
C1063 C1065 1.419 . S
C1064 C1062 1.415 . S
C1064 C1069 1.425 . S
C1064 C1071 1.409 . S
C1065 H1057 0.930 . S
C1065 C1063 1.419 . S
C1065 C1066 1.362 . S
C1066 H1058 0.930 . S
C1066 C1065 1.362 . S
C1066 C1069 1.409 . S
C1067 H1059 0.930 . S
C1067 C1068 1.355 . S
C1067 C1069 1.415 . S
C1068 C1067 1.355 . S
C1068 C1070 1.419 . S
C1069 C1064 1.425 . S
C1069 C1066 1.409 . S
C1069 C1067 1.415 . S
C1070 H1060 0.930 . S
C1070 C1068 1.419 . S
C1070 C1071 1.362 . S
C1071 H1061 0.930 . S
C1071 C1064 1.409 . S
C1071 C1070 1.362 . S
H1072 C1078 0.930 . S
H1073 C1081 0.930 . S
H1074 C1082 0.930 . S
H1075 C1083 0.930 . S
H1076 C1086 0.930 . S
H1077 C1087 0.930 . S
C1078 H1072 0.930 . S
C1078 C1079 1.355 . S
C1078 C1080 1.415 . S
C1079 C1078 1.355 . S
C1079 C1081 1.419 . S
C1080 C1078 1.415 . S
C1080 C1085 1.425 . S
C1080 C1087 1.409 . S
C1081 H1073 0.930 . S
C1081 C1079 1.419 . S
C1081 C1082 1.362 . S
C1082 H1074 0.930 . S
C1082 C1081 1.362 . S
C1082 C1085 1.409 . S
C1083 H1075 0.930 . S
C1083 C1084 1.355 . S
C1083 C1085 1.415 . S
C1084 C1083 1.355 . S
C1084 C1086 1.419 . S
C1085 C1080 1.425 . S
C1085 C1082 1.409 . S
C1085 C1083 1.415 . S
C1086 H1076 0.930 . S
C1086 C1084 1.419 . S
C1086 C1087 1.362 . S
C1087 H1077 0.930 . S
C1087 C1080 1.409 . S
C1087 C1086 1.362 . S
H1088 C1094 0.930 . S
H1089 C1097 0.930 . S
H1090 C1098 0.930 . S
H1091 C1099 0.930 . S
H1092 C1102 0.930 . S
H1093 C1103 0.930 . S
C1094 H1088 0.930 . S
C1094 C1095 1.355 . S
C1094 C1096 1.415 . S
C1095 C1094 1.355 . S
C1095 C1097 1.419 . S
C1096 C1094 1.415 . S
C1096 C1101 1.425 . S
C1096 C1103 1.409 . S
C1097 H1089 0.930 . S
C1097 C1095 1.419 . S
C1097 C1098 1.362 . S
C1098 H1090 0.930 . S
C1098 C1097 1.362 . S
C1098 C1101 1.409 . S
C1099 H1091 0.930 . S
C1099 C1100 1.355 . S
C1099 C1101 1.415 . S
C1100 C1099 1.355 . S
C1100 C1102 1.419 . S
C1101 C1096 1.425 . S
C1101 C1098 1.409 . S
C1101 C1099 1.415 . S
C1102 H1092 0.930 . S
C1102 C1100 1.419 . S
C1102 C1103 1.362 . S
C1103 H1093 0.930 . S
C1103 C1096 1.409 . S
C1103 C1102 1.362 . S
H1104 C1110 0.930 . S
H1105 C1113 0.930 . S
H1106 C1114 0.930 . S
H1107 C1115 0.930 . S
H1108 C1118 0.930 . S
H1109 C1119 0.930 . S
C1110 H1104 0.930 . S
C1110 C1111 1.355 . S
C1110 C1112 1.415 . S
C1111 C1110 1.355 . S
C1111 C1113 1.419 . S
C1112 C1110 1.415 . S
C1112 C1117 1.425 . S
C1112 C1119 1.409 . S
C1113 H1105 0.930 . S
C1113 C1111 1.419 . S
C1113 C1114 1.362 . S
C1114 H1106 0.930 . S
C1114 C1113 1.362 . S
C1114 C1117 1.409 . S
C1115 H1107 0.930 . S
C1115 C1116 1.355 . S
C1115 C1117 1.415 . S
C1116 C1115 1.355 . S
C1116 C1118 1.419 . S
C1117 C1112 1.425 . S
C1117 C1114 1.409 . S
C1117 C1115 1.415 . S
C1118 H1108 0.930 . S
C1118 C1116 1.419 . S
C1118 C1119 1.362 . S
C1119 H1109 0.930 . S
C1119 C1112 1.409 . S
C1119 C1118 1.362 . S
H1120 C1126 0.930 . S
H1121 C1129 0.930 . S
H1122 C1130 0.930 . S
H1123 C1131 0.930 . S
H1124 C1134 0.930 . S
H1125 C1135 0.930 . S
C1126 H1120 0.930 . S
C1126 C1127 1.355 . S
C1126 C1128 1.415 . S
C1127 C1126 1.355 . S
C1127 C1129 1.419 . S
C1128 C1126 1.415 . S
C1128 C1133 1.425 . S
C1128 C1135 1.409 . S
C1129 H1121 0.930 . S
C1129 C1127 1.419 . S
C1129 C1130 1.362 . S
C1130 H1122 0.930 . S
C1130 C1129 1.362 . S
C1130 C1133 1.409 . S
C1131 H1123 0.930 . S
C1131 C1132 1.355 . S
C1131 C1133 1.415 . S
C1132 C1131 1.355 . S
C1132 C1134 1.419 . S
C1133 C1128 1.425 . S
C1133 C1130 1.409 . S
C1133 C1131 1.415 . S
C1134 H1124 0.930 . S
C1134 C1132 1.419 . S
C1134 C1135 1.362 . S
C1135 H1125 0.930 . S
C1135 C1128 1.409 . S
C1135 C1134 1.362 . S
H1136 C1142 0.930 . S
H1137 C1145 0.930 . S
H1138 C1146 0.930 . S
H1139 C1147 0.930 . S
H1140 C1150 0.930 . S
H1141 C1151 0.930 . S
C1142 H1136 0.930 . S
C1142 C1143 1.355 . S
C1142 C1144 1.415 . S
C1143 C1142 1.355 . S
C1143 C1145 1.419 . S
C1144 C1142 1.415 . S
C1144 C1149 1.425 . S
C1144 C1151 1.409 . S
C1145 H1137 0.930 . S
C1145 C1143 1.419 . S
C1145 C1146 1.362 . S
C1146 H1138 0.930 . S
C1146 C1145 1.362 . S
C1146 C1149 1.409 . S
C1147 H1139 0.930 . S
C1147 C1148 1.355 . S
C1147 C1149 1.415 . S
C1148 C1147 1.355 . S
C1148 C1150 1.419 . S
C1149 C1144 1.425 . S
C1149 C1146 1.409 . S
C1149 C1147 1.415 . S
C1150 H1140 0.930 . S
C1150 C1148 1.419 . S
C1150 C1151 1.362 . S
C1151 H1141 0.930 . S
C1151 C1144 1.409 . S
C1151 C1150 1.362 . S
H1152 C1158 0.930 . S
H1153 C1161 0.930 . S
H1154 C1162 0.930 . S
H1155 C1163 0.930 . S
H1156 C1166 0.930 . S
H1157 C1167 0.930 . S
C1158 H1152 0.930 . S
C1158 C1159 1.355 . S
C1158 C1160 1.415 . S
C1159 C1158 1.355 . S
C1159 C1161 1.419 . S
C1160 C1158 1.415 . S
C1160 C1165 1.425 . S
C1160 C1167 1.409 . S
C1161 H1153 0.930 . S
C1161 C1159 1.419 . S
C1161 C1162 1.362 . S
C1162 H1154 0.930 . S
C1162 C1161 1.362 . S
C1162 C1165 1.409 . S
C1163 H1155 0.930 . S
C1163 C1164 1.355 . S
C1163 C1165 1.415 . S
C1164 C1163 1.355 . S
C1164 C1166 1.419 . S
C1165 C1160 1.425 . S
C1165 C1162 1.409 . S
C1165 C1163 1.415 . S
C1166 H1156 0.930 . S
C1166 C1164 1.419 . S
C1166 C1167 1.362 . S
C1167 H1157 0.930 . S
C1167 C1160 1.409 . S
C1167 C1166 1.362 . S
H1168 C1174 0.930 . S
H1169 C1177 0.930 . S
H1170 C1178 0.930 . S
H1171 C1179 0.930 . S
H1172 C1182 0.930 . S
H1173 C1183 0.930 . S
C1174 H1168 0.930 . S
C1174 C1175 1.355 . S
C1174 C1176 1.415 . S
C1175 C1174 1.355 . S
C1175 C1177 1.419 . S
C1176 C1174 1.415 . S
C1176 C1181 1.425 . S
C1176 C1183 1.409 . S
C1177 H1169 0.930 . S
C1177 C1175 1.419 . S
C1177 C1178 1.362 . S
C1178 H1170 0.930 . S
C1178 C1177 1.362 . S
C1178 C1181 1.409 . S
C1179 H1171 0.930 . S
C1179 C1180 1.355 . S
C1179 C1181 1.415 . S
C1180 C1179 1.355 . S
C1180 C1182 1.419 . S
C1181 C1176 1.425 . S
C1181 C1178 1.409 . S
C1181 C1179 1.415 . S
C1182 H1172 0.930 . S
C1182 C1180 1.419 . S
C1182 C1183 1.362 . S
C1183 H1173 0.930 . S
C1183 C1176 1.409 . S
C1183 C1182 1.362 . S
H1184 C1190 0.930 . S
H1185 C1193 0.930 . S
H1186 C1194 0.930 . S
H1187 C1195 0.930 . S
H1188 C1198 0.930 . S
H1189 C1199 0.930 . S
C1190 H1184 0.930 . S
C1190 C1191 1.355 . S
C1190 C1192 1.415 . S
C1191 C1190 1.355 . S
C1191 C1193 1.419 . S
C1192 C1190 1.415 . S
C1192 C1197 1.425 . S
C1192 C1199 1.409 . S
C1193 H1185 0.930 . S
C1193 C1191 1.419 . S
C1193 C1194 1.362 . S
C1194 H1186 0.930 . S
C1194 C1193 1.362 . S
C1194 C1197 1.409 . S
C1195 H1187 0.930 . S
C1195 C1196 1.355 . S
C1195 C1197 1.415 . S
C1196 C1195 1.355 . S
C1196 C1198 1.419 . S
C1197 C1192 1.425 . S
C1197 C1194 1.409 . S
C1197 C1195 1.415 . S
C1198 H1188 0.930 . S
C1198 C1196 1.419 . S
C1198 C1199 1.362 . S
C1199 H1189 0.930 . S
C1199 C1192 1.409 . S
C1199 C1198 1.362 . S
H1200 C1206 0.930 . S
H1201 C1209 0.930 . S
H1202 C1210 0.930 . S
H1203 C1211 0.930 . S
H1204 C1214 0.930 . S
H1205 C1215 0.930 . S
C1206 H1200 0.930 . S
C1206 C1207 1.355 . S
C1206 C1208 1.415 . S
C1207 C1206 1.355 . S
C1207 C1209 1.419 . S
C1208 C1206 1.415 . S
C1208 C1213 1.425 . S
C1208 C1215 1.409 . S
C1209 H1201 0.930 . S
C1209 C1207 1.419 . S
C1209 C1210 1.362 . S
C1210 H1202 0.930 . S
C1210 C1209 1.362 . S
C1210 C1213 1.409 . S
C1211 H1203 0.930 . S
C1211 C1212 1.355 . S
C1211 C1213 1.415 . S
C1212 C1211 1.355 . S
C1212 C1214 1.419 . S
C1213 C1208 1.425 . S
C1213 C1210 1.409 . S
C1213 C1211 1.415 . S
C1214 H1204 0.930 . S
C1214 C1212 1.419 . S
C1214 C1215 1.362 . S
C1215 H1205 0.930 . S
C1215 C1208 1.409 . S
C1215 C1214 1.362 . S
H1216 C1222 0.930 . S
H1217 C1225 0.930 . S
H1218 C1226 0.930 . S
H1219 C1227 0.930 . S
H1220 C1230 0.930 . S
H1221 C1231 0.930 . S
C1222 H1216 0.930 . S
C1222 C1223 1.355 . S
C1222 C1224 1.415 . S
C1223 C1222 1.355 . S
C1223 C1225 1.419 . S
C1224 C1222 1.415 . S
C1224 C1229 1.425 . S
C1224 C1231 1.409 . S
C1225 H1217 0.930 . S
C1225 C1223 1.419 . S
C1225 C1226 1.362 . S
C1226 H1218 0.930 . S
C1226 C1225 1.362 . S
C1226 C1229 1.409 . S
C1227 H1219 0.930 . S
C1227 C1228 1.355 . S
C1227 C1229 1.415 . S
C1228 C1227 1.355 . S
C1228 C1230 1.419 . S
C1229 C1224 1.425 . S
C1229 C1226 1.409 . S
C1229 C1227 1.415 . S
C1230 H1220 0.930 . S
C1230 C1228 1.419 . S
C1230 C1231 1.362 . S
C1231 H1221 0.930 . S
C1231 C1224 1.409 . S
C1231 C1230 1.362 . S
H1232 C1238 0.930 . S
H1233 C1241 0.930 . S
H1234 C1242 0.930 . S
H1235 C1243 0.930 . S
H1236 C1246 0.930 . S
H1237 C1247 0.930 . S
C1238 H1232 0.930 . S
C1238 C1239 1.355 . S
C1238 C1240 1.415 . S
C1239 C1238 1.355 . S
C1239 C1241 1.419 . S
C1240 C1238 1.415 . S
C1240 C1245 1.425 . S
C1240 C1247 1.409 . S
C1241 H1233 0.930 . S
C1241 C1239 1.419 . S
C1241 C1242 1.362 . S
C1242 H1234 0.930 . S
C1242 C1241 1.362 . S
C1242 C1245 1.409 . S
C1243 H1235 0.930 . S
C1243 C1244 1.355 . S
C1243 C1245 1.415 . S
C1244 C1243 1.355 . S
C1244 C1246 1.419 . S
C1245 C1240 1.425 . S
C1245 C1242 1.409 . S
C1245 C1243 1.415 . S
C1246 H1236 0.930 . S
C1246 C1244 1.419 . S
C1246 C1247 1.362 . S
C1247 H1237 0.930 . S
C1247 C1240 1.409 . S
C1247 C1246 1.362 . S
H1248 C1254 0.930 . S
H1249 C1257 0.930 . S
H1250 C1258 0.930 . S
H1251 C1259 0.930 . S
H1252 C1262 0.930 . S
H1253 C1263 0.930 . S
C1254 H1248 0.930 . S
C1254 C1255 1.355 . S
C1254 C1256 1.415 . S
C1255 C1254 1.355 . S
C1255 C1257 1.419 . S
C1256 C1254 1.415 . S
C1256 C1261 1.425 . S
C1256 C1263 1.409 . S
C1257 H1249 0.930 . S
C1257 C1255 1.419 . S
C1257 C1258 1.362 . S
C1258 H1250 0.930 . S
C1258 C1257 1.362 . S
C1258 C1261 1.409 . S
C1259 H1251 0.930 . S
C1259 C1260 1.355 . S
C1259 C1261 1.415 . S
C1260 C1259 1.355 . S
C1260 C1262 1.419 . S
C1261 C1256 1.425 . S
C1261 C1258 1.409 . S
C1261 C1259 1.415 . S
C1262 H1252 0.930 . S
C1262 C1260 1.419 . S
C1262 C1263 1.362 . S
C1263 H1253 0.930 . S
C1263 C1256 1.409 . S
C1263 C1262 1.362 . S
H1264 C1270 0.930 . S
H1265 C1273 0.930 . S
H1266 C1274 0.930 . S
H1267 C1275 0.930 . S
H1268 C1278 0.930 . S
H1269 C1279 0.930 . S
C1270 H1264 0.930 . S
C1270 C1271 1.355 . S
C1270 C1272 1.415 . S
C1271 C1270 1.355 . S
C1271 C1273 1.419 . S
C1272 C1270 1.415 . S
C1272 C1277 1.425 . S
C1272 C1279 1.409 . S
C1273 H1265 0.930 . S
C1273 C1271 1.419 . S
C1273 C1274 1.362 . S
C1274 H1266 0.930 . S
C1274 C1273 1.362 . S
C1274 C1277 1.409 . S
C1275 H1267 0.930 . S
C1275 C1276 1.355 . S
C1275 C1277 1.415 . S
C1276 C1275 1.355 . S
C1276 C1278 1.419 . S
C1277 C1272 1.425 . S
C1277 C1274 1.409 . S
C1277 C1275 1.415 . S
C1278 H1268 0.930 . S
C1278 C1276 1.419 . S
C1278 C1279 1.362 . S
C1279 H1269 0.930 . S
C1279 C1272 1.409 . S
C1279 C1278 1.362 . S
H1280 C1286 0.930 . S
H1281 C1289 0.930 . S
H1282 C1290 0.930 . S
H1283 C1291 0.930 . S
H1284 C1294 0.930 . S
H1285 C1295 0.930 . S
C1286 H1280 0.930 . S
C1286 C1287 1.355 . S
C1286 C1288 1.415 . S
C1287 C1286 1.355 . S
C1287 C1289 1.419 . S
C1288 C1286 1.415 . S
C1288 C1293 1.425 . S
C1288 C1295 1.409 . S
C1289 H1281 0.930 . S
C1289 C1287 1.419 . S
C1289 C1290 1.362 . S
C1290 H1282 0.930 . S
C1290 C1289 1.362 . S
C1290 C1293 1.409 . S
C1291 H1283 0.930 . S
C1291 C1292 1.355 . S
C1291 C1293 1.415 . S
C1292 C1291 1.355 . S
C1292 C1294 1.419 . S
C1293 C1288 1.425 . S
C1293 C1290 1.409 . S
C1293 C1291 1.415 . S
C1294 H1284 0.930 . S
C1294 C1292 1.419 . S
C1294 C1295 1.362 . S
C1295 H1285 0.930 . S
C1295 C1288 1.409 . S
C1295 C1294 1.362 . S
H1296 C1302 0.930 . S
H1297 C1305 0.930 . S
H1298 C1306 0.930 . S
H1299 C1307 0.930 . S
H1300 C1310 0.930 . S
H1301 C1311 0.930 . S
C1302 H1296 0.930 . S
C1302 C1303 1.355 . S
C1302 C1304 1.415 . S
C1303 C1302 1.355 . S
C1303 C1305 1.419 . S
C1304 C1302 1.415 . S
C1304 C1309 1.425 . S
C1304 C1311 1.409 . S
C1305 H1297 0.930 . S
C1305 C1303 1.419 . S
C1305 C1306 1.362 . S
C1306 H1298 0.930 . S
C1306 C1305 1.362 . S
C1306 C1309 1.409 . S
C1307 H1299 0.930 . S
C1307 C1308 1.355 . S
C1307 C1309 1.415 . S
C1308 C1307 1.355 . S
C1308 C1310 1.419 . S
C1309 C1304 1.425 . S
C1309 C1306 1.409 . S
C1309 C1307 1.415 . S
C1310 H1300 0.930 . S
C1310 C1308 1.419 . S
C1310 C1311 1.362 . S
C1311 H1301 0.930 . S
C1311 C1304 1.409 . S
C1311 C1310 1.362 . S
H1312 C1318 0.930 . S
H1313 C1321 0.930 . S
H1314 C1322 0.930 . S
H1315 C1323 0.930 . S
H1316 C1326 0.930 . S
H1317 C1327 0.930 . S
C1318 H1312 0.930 . S
C1318 C1319 1.355 . S
C1318 C1320 1.415 . S
C1319 C1318 1.355 . S
C1319 C1321 1.419 . S
C1320 C1318 1.415 . S
C1320 C1325 1.425 . S
C1320 C1327 1.409 . S
C1321 H1313 0.930 . S
C1321 C1319 1.419 . S
C1321 C1322 1.362 . S
C1322 H1314 0.930 . S
C1322 C1321 1.362 . S
C1322 C1325 1.409 . S
C1323 H1315 0.930 . S
C1323 C1324 1.355 . S
C1323 C1325 1.415 . S
C1324 C1323 1.355 . S
C1324 C1326 1.419 . S
C1325 C1320 1.425 . S
C1325 C1322 1.409 . S
C1325 C1323 1.415 . S
C1326 H1316 0.930 . S
C1326 C1324 1.419 . S
C1326 C1327 1.362 . S
C1327 H1317 0.930 . S
C1327 C1320 1.409 . S
C1327 C1326 1.362 . S
H1328 C1334 0.930 . S
H1329 C1337 0.930 . S
H1330 C1338 0.930 . S
H1331 C1339 0.930 . S
H1332 C1342 0.930 . S
H1333 C1343 0.930 . S
C1334 H1328 0.930 . S
C1334 C1335 1.355 . S
C1334 C1336 1.415 . S
C1335 C1334 1.355 . S
C1335 C1337 1.419 . S
C1336 C1334 1.415 . S
C1336 C1341 1.425 . S
C1336 C1343 1.409 . S
C1337 H1329 0.930 . S
C1337 C1335 1.419 . S
C1337 C1338 1.362 . S
C1338 H1330 0.930 . S
C1338 C1337 1.362 . S
C1338 C1341 1.409 . S
C1339 H1331 0.930 . S
C1339 C1340 1.355 . S
C1339 C1341 1.415 . S
C1340 C1339 1.355 . S
C1340 C1342 1.419 . S
C1341 C1336 1.425 . S
C1341 C1338 1.409 . S
C1341 C1339 1.415 . S
C1342 H1332 0.930 . S
C1342 C1340 1.419 . S
C1342 C1343 1.362 . S
C1343 H1333 0.930 . S
C1343 C1336 1.409 . S
C1343 C1342 1.362 . S
H1344 C1350 0.930 . S
H1345 C1353 0.930 . S
H1346 C1354 0.930 . S
H1347 C1355 0.930 . S
H1348 C1358 0.930 . S
H1349 C1359 0.930 . S
C1350 H1344 0.930 . S
C1350 C1351 1.355 . S
C1350 C1352 1.415 . S
C1351 C1350 1.355 . S
C1351 C1353 1.419 . S
C1352 C1350 1.415 . S
C1352 C1357 1.425 . S
C1352 C1359 1.409 . S
C1353 H1345 0.930 . S
C1353 C1351 1.419 . S
C1353 C1354 1.362 . S
C1354 H1346 0.930 . S
C1354 C1353 1.362 . S
C1354 C1357 1.409 . S
C1355 H1347 0.930 . S
C1355 C1356 1.355 . S
C1355 C1357 1.415 . S
C1356 C1355 1.355 . S
C1356 C1358 1.419 . S
C1357 C1352 1.425 . S
C1357 C1354 1.409 . S
C1357 C1355 1.415 . S
C1358 H1348 0.930 . S
C1358 C1356 1.419 . S
C1358 C1359 1.362 . S
C1359 H1349 0.930 . S
C1359 C1352 1.409 . S
C1359 C1358 1.362 . S
H1360 C1366 0.930 . S
H1361 C1369 0.930 . S
H1362 C1370 0.930 . S
H1363 C1371 0.930 . S
H1364 C1374 0.930 . S
H1365 C1375 0.930 . S
C1366 H1360 0.930 . S
C1366 C1367 1.355 . S
C1366 C1368 1.415 . S
C1367 C1366 1.355 . S
C1367 C1369 1.419 . S
C1368 C1366 1.415 . S
C1368 C1373 1.425 . S
C1368 C1375 1.409 . S
C1369 H1361 0.930 . S
C1369 C1367 1.419 . S
C1369 C1370 1.362 . S
C1370 H1362 0.930 . S
C1370 C1369 1.362 . S
C1370 C1373 1.409 . S
C1371 H1363 0.930 . S
C1371 C1372 1.355 . S
C1371 C1373 1.415 . S
C1372 C1371 1.355 . S
C1372 C1374 1.419 . S
C1373 C1368 1.425 . S
C1373 C1370 1.409 . S
C1373 C1371 1.415 . S
C1374 H1364 0.930 . S
C1374 C1372 1.419 . S
C1374 C1375 1.362 . S
C1375 H1365 0.930 . S
C1375 C1368 1.409 . S
C1375 C1374 1.362 . S
H1376 C1382 0.930 . S
H1377 C1385 0.930 . S
H1378 C1386 0.930 . S
H1379 C1387 0.930 . S
H1380 C1390 0.930 . S
H1381 C1391 0.930 . S
C1382 H1376 0.930 . S
C1382 C1383 1.355 . S
C1382 C1384 1.415 . S
C1383 C1382 1.355 . S
C1383 C1385 1.419 . S
C1384 C1382 1.415 . S
C1384 C1389 1.425 . S
C1384 C1391 1.409 . S
C1385 H1377 0.930 . S
C1385 C1383 1.419 . S
C1385 C1386 1.362 . S
C1386 H1378 0.930 . S
C1386 C1385 1.362 . S
C1386 C1389 1.409 . S
C1387 H1379 0.930 . S
C1387 C1388 1.355 . S
C1387 C1389 1.415 . S
C1388 C1387 1.355 . S
C1388 C1390 1.419 . S
C1389 C1384 1.425 . S
C1389 C1386 1.409 . S
C1389 C1387 1.415 . S
C1390 H1380 0.930 . S
C1390 C1388 1.419 . S
C1390 C1391 1.362 . S
C1391 H1381 0.930 . S
C1391 C1384 1.409 . S
C1391 C1390 1.362 . S
H1392 C1398 0.930 . S
H1393 C1401 0.930 . S
H1394 C1402 0.930 . S
H1395 C1403 0.930 . S
H1396 C1406 0.930 . S
H1397 C1407 0.930 . S
C1398 H1392 0.930 . S
C1398 C1399 1.355 . S
C1398 C1400 1.415 . S
C1399 C1398 1.355 . S
C1399 C1401 1.419 . S
C1400 C1398 1.415 . S
C1400 C1405 1.425 . S
C1400 C1407 1.409 . S
C1401 H1393 0.930 . S
C1401 C1399 1.419 . S
C1401 C1402 1.362 . S
C1402 H1394 0.930 . S
C1402 C1401 1.362 . S
C1402 C1405 1.409 . S
C1403 H1395 0.930 . S
C1403 C1404 1.355 . S
C1403 C1405 1.415 . S
C1404 C1403 1.355 . S
C1404 C1406 1.419 . S
C1405 C1400 1.425 . S
C1405 C1402 1.409 . S
C1405 C1403 1.415 . S
C1406 H1396 0.930 . S
C1406 C1404 1.419 . S
C1406 C1407 1.362 . S
C1407 H1397 0.930 . S
C1407 C1400 1.409 . S
C1407 C1406 1.362 . S
H1408 C1414 0.930 . S
H1409 C1417 0.930 . S
H1410 C1418 0.930 . S
H1411 C1419 0.930 . S
H1412 C1422 0.930 . S
H1413 C1423 0.930 . S
C1414 H1408 0.930 . S
C1414 C1415 1.355 . S
C1414 C1416 1.415 . S
C1415 C1414 1.355 . S
C1415 C1417 1.419 . S
C1416 C1414 1.415 . S
C1416 C1421 1.425 . S
C1416 C1423 1.409 . S
C1417 H1409 0.930 . S
C1417 C1415 1.419 . S
C1417 C1418 1.362 . S
C1418 H1410 0.930 . S
C1418 C1417 1.362 . S
C1418 C1421 1.409 . S
C1419 H1411 0.930 . S
C1419 C1420 1.355 . S
C1419 C1421 1.415 . S
C1420 C1419 1.355 . S
C1420 C1422 1.419 . S
C1421 C1416 1.425 . S
C1421 C1418 1.409 . S
C1421 C1419 1.415 . S
C1422 H1412 0.930 . S
C1422 C1420 1.419 . S
C1422 C1423 1.362 . S
C1423 H1413 0.930 . S
C1423 C1416 1.409 . S
C1423 C1422 1.362 . S
H1424 C1430 0.930 . S
H1425 C1433 0.930 . S
H1426 C1434 0.930 . S
H1427 C1435 0.930 . S
H1428 C1438 0.930 . S
H1429 C1439 0.930 . S
C1430 H1424 0.930 . S
C1430 C1431 1.355 . S
C1430 C1432 1.415 . S
C1431 C1430 1.355 . S
C1431 C1433 1.419 . S
C1432 C1430 1.415 . S
C1432 C1437 1.425 . S
C1432 C1439 1.409 . S
C1433 H1425 0.930 . S
C1433 C1431 1.419 . S
C1433 C1434 1.362 . S
C1434 H1426 0.930 . S
C1434 C1433 1.362 . S
C1434 C1437 1.409 . S
C1435 H1427 0.930 . S
C1435 C1436 1.355 . S
C1435 C1437 1.415 . S
C1436 C1435 1.355 . S
C1436 C1438 1.419 . S
C1437 C1432 1.425 . S
C1437 C1434 1.409 . S
C1437 C1435 1.415 . S
C1438 H1428 0.930 . S
C1438 C1436 1.419 . S
C1438 C1439 1.362 . S
C1439 H1429 0.930 . S
C1439 C1432 1.409 . S
C1439 C1438 1.362 . S
H1440 C1446 0.930 . S
H1441 C1449 0.930 . S
H1442 C1450 0.930 . S
H1443 C1451 0.930 . S
H1444 C1454 0.930 . S
H1445 C1455 0.930 . S
C1446 H1440 0.930 . S
C1446 C1447 1.355 . S
C1446 C1448 1.415 . S
C1447 C1446 1.355 . S
C1447 C1449 1.419 . S
C1448 C1446 1.415 . S
C1448 C1453 1.425 . S
C1448 C1455 1.409 . S
C1449 H1441 0.930 . S
C1449 C1447 1.419 . S
C1449 C1450 1.362 . S
C1450 H1442 0.930 . S
C1450 C1449 1.362 . S
C1450 C1453 1.409 . S
C1451 H1443 0.930 . S
C1451 C1452 1.355 . S
C1451 C1453 1.415 . S
C1452 C1451 1.355 . S
C1452 C1454 1.419 . S
C1453 C1448 1.425 . S
C1453 C1450 1.409 . S
C1453 C1451 1.415 . S
C1454 H1444 0.930 . S
C1454 C1452 1.419 . S
C1454 C1455 1.362 . S
C1455 H1445 0.930 . S
C1455 C1448 1.409 . S
C1455 C1454 1.362 . S
H1456 C1462 0.930 . S
H1457 C1465 0.930 . S
H1458 C1466 0.930 . S
H1459 C1467 0.930 . S
H1460 C1470 0.930 . S
H1461 C1471 0.930 . S
C1462 H1456 0.930 . S
C1462 C1463 1.355 . S
C1462 C1464 1.415 . S
C1463 C1462 1.355 . S
C1463 C1465 1.419 . S
C1464 C1462 1.415 . S
C1464 C1469 1.425 . S
C1464 C1471 1.409 . S
C1465 H1457 0.930 . S
C1465 C1463 1.419 . S
C1465 C1466 1.362 . S
C1466 H1458 0.930 . S
C1466 C1465 1.362 . S
C1466 C1469 1.409 . S
C1467 H1459 0.930 . S
C1467 C1468 1.355 . S
C1467 C1469 1.415 . S
C1468 C1467 1.355 . S
C1468 C1470 1.419 . S
C1469 C1464 1.425 . S
C1469 C1466 1.409 . S
C1469 C1467 1.415 . S
C1470 H1460 0.930 . S
C1470 C1468 1.419 . S
C1470 C1471 1.362 . S
C1471 H1461 0.930 . S
C1471 C1464 1.409 . S
C1471 C1470 1.362 . S
H1472 C1478 0.930 . S
H1473 C1481 0.930 . S
H1474 C1482 0.930 . S
H1475 C1483 0.930 . S
H1476 C1486 0.930 . S
H1477 C1487 0.930 . S
C1478 H1472 0.930 . S
C1478 C1479 1.355 . S
C1478 C1480 1.415 . S
C1479 C1478 1.355 . S
C1479 C1481 1.419 . S
C1480 C1478 1.415 . S
C1480 C1485 1.425 . S
C1480 C1487 1.409 . S
C1481 H1473 0.930 . S
C1481 C1479 1.419 . S
C1481 C1482 1.362 . S
C1482 H1474 0.930 . S
C1482 C1481 1.362 . S
C1482 C1485 1.409 . S
C1483 H1475 0.930 . S
C1483 C1484 1.355 . S
C1483 C1485 1.415 . S
C1484 C1483 1.355 . S
C1484 C1486 1.419 . S
C1485 C1480 1.425 . S
C1485 C1482 1.409 . S
C1485 C1483 1.415 . S
C1486 H1476 0.930 . S
C1486 C1484 1.419 . S
C1486 C1487 1.362 . S
C1487 H1477 0.930 . S
C1487 C1480 1.409 . S
C1487 C1486 1.362 . S
H1488 C1494 0.930 . S
H1489 C1497 0.930 . S
H1490 C1498 0.930 . S
H1491 C1499 0.930 . S
H1492 C1502 0.930 . S
H1493 C1503 0.930 . S
C1494 H1488 0.930 . S
C1494 C1495 1.355 . S
C1494 C1496 1.415 . S
C1495 C1494 1.355 . S
C1495 C1497 1.419 . S
C1496 C1494 1.415 . S
C1496 C1501 1.425 . S
C1496 C1503 1.409 . S
C1497 H1489 0.930 . S
C1497 C1495 1.419 . S
C1497 C1498 1.362 . S
C1498 H1490 0.930 . S
C1498 C1497 1.362 . S
C1498 C1501 1.409 . S
C1499 H1491 0.930 . S
C1499 C1500 1.355 . S
C1499 C1501 1.415 . S
C1500 C1499 1.355 . S
C1500 C1502 1.419 . S
C1501 C1496 1.425 . S
C1501 C1498 1.409 . S
C1501 C1499 1.415 . S
C1502 H1492 0.930 . S
C1502 C1500 1.419 . S
C1502 C1503 1.362 . S
C1503 H1493 0.930 . S
C1503 C1496 1.409 . S
C1503 C1502 1.362 . S
H1504 C1510 0.930 . S
H1505 C1513 0.930 . S
H1506 C1514 0.930 . S
H1507 C1515 0.930 . S
H1508 C1518 0.930 . S
H1509 C1519 0.930 . S
C1510 H1504 0.930 . S
C1510 C1511 1.355 . S
C1510 C1512 1.415 . S
C1511 C1510 1.355 . S
C1511 C1513 1.419 . S
C1512 C1510 1.415 . S
C1512 C1517 1.425 . S
C1512 C1519 1.409 . S
C1513 H1505 0.930 . S
C1513 C1511 1.419 . S
C1513 C1514 1.362 . S
C1514 H1506 0.930 . S
C1514 C1513 1.362 . S
C1514 C1517 1.409 . S
C1515 H1507 0.930 . S
C1515 C1516 1.355 . S
C1515 C1517 1.415 . S
C1516 C1515 1.355 . S
C1516 C1518 1.419 . S
C1517 C1512 1.425 . S
C1517 C1514 1.409 . S
C1517 C1515 1.415 . S
C1518 H1508 0.930 . S
C1518 C1516 1.419 . S
C1518 C1519 1.362 . S
C1519 H1509 0.930 . S
C1519 C1512 1.409 . S
C1519 C1518 1.362 . S
H1520 C1526 0.930 . S
H1521 C1529 0.930 . S
H1522 C1530 0.930 . S
H1523 C1531 0.930 . S
H1524 C1534 0.930 . S
H1525 C1535 0.930 . S
C1526 H1520 0.930 . S
C1526 C1527 1.355 . S
C1526 C1528 1.415 . S
C1527 C1526 1.355 . S
C1527 C1529 1.419 . S
C1528 C1526 1.415 . S
C1528 C1533 1.425 . S
C1528 C1535 1.409 . S
C1529 H1521 0.930 . S
C1529 C1527 1.419 . S
C1529 C1530 1.362 . S
C1530 H1522 0.930 . S
C1530 C1529 1.362 . S
C1530 C1533 1.409 . S
C1531 H1523 0.930 . S
C1531 C1532 1.355 . S
C1531 C1533 1.415 . S
C1532 C1531 1.355 . S
C1532 C1534 1.419 . S
C1533 C1528 1.425 . S
C1533 C1530 1.409 . S
C1533 C1531 1.415 . S
C1534 H1524 0.930 . S
C1534 C1532 1.419 . S
C1534 C1535 1.362 . S
C1535 H1525 0.930 . S
C1535 C1528 1.409 . S
C1535 C1534 1.362 . S
H1536 C1542 0.930 . S
H1537 C1545 0.930 . S
H1538 C1546 0.930 . S
H1539 C1547 0.930 . S
H1540 C1550 0.930 . S
H1541 C1551 0.930 . S
C1542 H1536 0.930 . S
C1542 C1543 1.355 . S
C1542 C1544 1.415 . S
C1543 C1542 1.355 . S
C1543 C1545 1.419 . S
C1544 C1542 1.415 . S
C1544 C1549 1.425 . S
C1544 C1551 1.409 . S
C1545 H1537 0.930 . S
C1545 C1543 1.419 . S
C1545 C1546 1.362 . S
C1546 H1538 0.930 . S
C1546 C1545 1.362 . S
C1546 C1549 1.409 . S
C1547 H1539 0.930 . S
C1547 C1548 1.355 . S
C1547 C1549 1.415 . S
C1548 C1547 1.355 . S
C1548 C1550 1.419 . S
C1549 C1544 1.425 . S
C1549 C1546 1.409 . S
C1549 C1547 1.415 . S
C1550 H1540 0.930 . S
C1550 C1548 1.419 . S
C1550 C1551 1.362 . S
C1551 H1541 0.930 . S
C1551 C1544 1.409 . S
C1551 C1550 1.362 . S
H1552 C1558 0.930 . S
H1553 C1561 0.930 . S
H1554 C1562 0.930 . S
H1555 C1563 0.930 . S
H1556 C1566 0.930 . S
H1557 C1567 0.930 . S
C1558 H1552 0.930 . S
C1558 C1559 1.355 . S
C1558 C1560 1.415 . S
C1559 C1558 1.355 . S
C1559 C1561 1.419 . S
C1560 C1558 1.415 . S
C1560 C1565 1.425 . S
C1560 C1567 1.409 . S
C1561 H1553 0.930 . S
C1561 C1559 1.419 . S
C1561 C1562 1.362 . S
C1562 H1554 0.930 . S
C1562 C1561 1.362 . S
C1562 C1565 1.409 . S
C1563 H1555 0.930 . S
C1563 C1564 1.355 . S
C1563 C1565 1.415 . S
C1564 C1563 1.355 . S
C1564 C1566 1.419 . S
C1565 C1560 1.425 . S
C1565 C1562 1.409 . S
C1565 C1563 1.415 . S
C1566 H1556 0.930 . S
C1566 C1564 1.419 . S
C1566 C1567 1.362 . S
C1567 H1557 0.930 . S
C1567 C1560 1.409 . S
C1567 C1566 1.362 . S
H1568 C1574 0.930 . S
H1569 C1577 0.930 . S
H1570 C1578 0.930 . S
H1571 C1579 0.930 . S
H1572 C1582 0.930 . S
H1573 C1583 0.930 . S
C1574 H1568 0.930 . S
C1574 C1575 1.355 . S
C1574 C1576 1.415 . S
C1575 C1574 1.355 . S
C1575 C1577 1.419 . S
C1576 C1574 1.415 . S
C1576 C1581 1.425 . S
C1576 C1583 1.409 . S
C1577 H1569 0.930 . S
C1577 C1575 1.419 . S
C1577 C1578 1.362 . S
C1578 H1570 0.930 . S
C1578 C1577 1.362 . S
C1578 C1581 1.409 . S
C1579 H1571 0.930 . S
C1579 C1580 1.355 . S
C1579 C1581 1.415 . S
C1580 C1579 1.355 . S
C1580 C1582 1.419 . S
C1581 C1576 1.425 . S
C1581 C1578 1.409 . S
C1581 C1579 1.415 . S
C1582 H1572 0.930 . S
C1582 C1580 1.419 . S
C1582 C1583 1.362 . S
C1583 H1573 0.930 . S
C1583 C1576 1.409 . S
C1583 C1582 1.362 . S
H1584 C1590 0.930 . S
H1585 C1593 0.930 . S
H1586 C1594 0.930 . S
H1587 C1595 0.930 . S
H1588 C1598 0.930 . S
H1589 C1599 0.930 . S
C1590 H1584 0.930 . S
C1590 C1591 1.355 . S
C1590 C1592 1.415 . S
C1591 C1590 1.355 . S
C1591 C1593 1.419 . S
C1592 C1590 1.415 . S
C1592 C1597 1.425 . S
C1592 C1599 1.409 . S
C1593 H1585 0.930 . S
C1593 C1591 1.419 . S
C1593 C1594 1.362 . S
C1594 H1586 0.930 . S
C1594 C1593 1.362 . S
C1594 C1597 1.409 . S
C1595 H1587 0.930 . S
C1595 C1596 1.355 . S
C1595 C1597 1.415 . S
C1596 C1595 1.355 . S
C1596 C1598 1.419 . S
C1597 C1592 1.425 . S
C1597 C1594 1.409 . S
C1597 C1595 1.415 . S
C1598 H1588 0.930 . S
C1598 C1596 1.419 . S
C1598 C1599 1.362 . S
C1599 H1589 0.930 . S
C1599 C1592 1.409 . S
C1599 C1598 1.362 . S
H1600 C1606 0.930 . S
H1601 C1609 0.930 . S
H1602 C1610 0.930 . S
H1603 C1611 0.930 . S
H1604 C1614 0.930 . S
H1605 C1615 0.930 . S
C1606 H1600 0.930 . S
C1606 C1607 1.355 . S
C1606 C1608 1.415 . S
C1607 C1606 1.355 . S
C1607 C1609 1.419 . S
C1608 C1606 1.415 . S
C1608 C1613 1.425 . S
C1608 C1615 1.409 . S
C1609 H1601 0.930 . S
C1609 C1607 1.419 . S
C1609 C1610 1.362 . S
C1610 H1602 0.930 . S
C1610 C1609 1.362 . S
C1610 C1613 1.409 . S
C1611 H1603 0.930 . S
C1611 C1612 1.355 . S
C1611 C1613 1.415 . S
C1612 C1611 1.355 . S
C1612 C1614 1.419 . S
C1613 C1608 1.425 . S
C1613 C1610 1.409 . S
C1613 C1611 1.415 . S
C1614 H1604 0.930 . S
C1614 C1612 1.419 . S
C1614 C1615 1.362 . S
C1615 H1605 0.930 . S
C1615 C1608 1.409 . S
C1615 C1614 1.362 . S
H1616 C1622 0.930 . S
H1617 C1625 0.930 . S
H1618 C1626 0.930 . S
H1619 C1627 0.930 . S
H1620 C1630 0.930 . S
H1621 C1631 0.930 . S
C1622 H1616 0.930 . S
C1622 C1623 1.355 . S
C1622 C1624 1.415 . S
C1623 C1622 1.355 . S
C1623 C1625 1.419 . S
C1624 C1622 1.415 . S
C1624 C1629 1.425 . S
C1624 C1631 1.409 . S
C1625 H1617 0.930 . S
C1625 C1623 1.419 . S
C1625 C1626 1.362 . S
C1626 H1618 0.930 . S
C1626 C1625 1.362 . S
C1626 C1629 1.409 . S
C1627 H1619 0.930 . S
C1627 C1628 1.355 . S
C1627 C1629 1.415 . S
C1628 C1627 1.355 . S
C1628 C1630 1.419 . S
C1629 C1624 1.425 . S
C1629 C1626 1.409 . S
C1629 C1627 1.415 . S
C1630 H1620 0.930 . S
C1630 C1628 1.419 . S
C1630 C1631 1.362 . S
C1631 H1621 0.930 . S
C1631 C1624 1.409 . S
C1631 C1630 1.362 . S
H1632 C1638 0.930 . S
H1633 C1641 0.930 . S
H1634 C1642 0.930 . S
H1635 C1643 0.930 . S
H1636 C1646 0.930 . S
H1637 C1647 0.930 . S
C1638 H1632 0.930 . S
C1638 C1639 1.355 . S
C1638 C1640 1.415 . S
C1639 C1638 1.355 . S
C1639 C1641 1.419 . S
C1640 C1638 1.415 . S
C1640 C1645 1.425 . S
C1640 C1647 1.409 . S
C1641 H1633 0.930 . S
C1641 C1639 1.419 . S
C1641 C1642 1.362 . S
C1642 H1634 0.930 . S
C1642 C1641 1.362 . S
C1642 C1645 1.409 . S
C1643 H1635 0.930 . S
C1643 C1644 1.355 . S
C1643 C1645 1.415 . S
C1644 C1643 1.355 . S
C1644 C1646 1.419 . S
C1645 C1640 1.425 . S
C1645 C1642 1.409 . S
C1645 C1643 1.415 . S
C1646 H1636 0.930 . S
C1646 C1644 1.419 . S
C1646 C1647 1.362 . S
C1647 H1637 0.930 . S
C1647 C1640 1.409 . S
C1647 C1646 1.362 . S
H1648 C1654 0.930 . S
H1649 C1657 0.930 . S
H1650 C1658 0.930 . S
H1651 C1659 0.930 . S
H1652 C1662 0.930 . S
H1653 C1663 0.930 . S
C1654 H1648 0.930 . S
C1654 C1655 1.355 . S
C1654 C1656 1.415 . S
C1655 C1654 1.355 . S
C1655 C1657 1.419 . S
C1656 C1654 1.415 . S
C1656 C1661 1.425 . S
C1656 C1663 1.409 . S
C1657 H1649 0.930 . S
C1657 C1655 1.419 . S
C1657 C1658 1.362 . S
C1658 H1650 0.930 . S
C1658 C1657 1.362 . S
C1658 C1661 1.409 . S
C1659 H1651 0.930 . S
C1659 C1660 1.355 . S
C1659 C1661 1.415 . S
C1660 C1659 1.355 . S
C1660 C1662 1.419 . S
C1661 C1656 1.425 . S
C1661 C1658 1.409 . S
C1661 C1659 1.415 . S
C1662 H1652 0.930 . S
C1662 C1660 1.419 . S
C1662 C1663 1.362 . S
C1663 H1653 0.930 . S
C1663 C1656 1.409 . S
C1663 C1662 1.362 . S
H1664 C1670 0.930 . S
H1665 C1673 0.930 . S
H1666 C1674 0.930 . S
H1667 C1675 0.930 . S
H1668 C1678 0.930 . S
H1669 C1679 0.930 . S
C1670 H1664 0.930 . S
C1670 C1671 1.355 . S
C1670 C1672 1.415 . S
C1671 C1670 1.355 . S
C1671 C1673 1.419 . S
C1672 C1670 1.415 . S
C1672 C1677 1.425 . S
C1672 C1679 1.409 . S
C1673 H1665 0.930 . S
C1673 C1671 1.419 . S
C1673 C1674 1.362 . S
C1674 H1666 0.930 . S
C1674 C1673 1.362 . S
C1674 C1677 1.409 . S
C1675 H1667 0.930 . S
C1675 C1676 1.355 . S
C1675 C1677 1.415 . S
C1676 C1675 1.355 . S
C1676 C1678 1.419 . S
C1677 C1672 1.425 . S
C1677 C1674 1.409 . S
C1677 C1675 1.415 . S
C1678 H1668 0.930 . S
C1678 C1676 1.419 . S
C1678 C1679 1.362 . S
C1679 H1669 0.930 . S
C1679 C1672 1.409 . S
C1679 C1678 1.362 . S
H1680 C1686 0.930 . S
H1681 C1689 0.930 . S
H1682 C1690 0.930 . S
H1683 C1691 0.930 . S
H1684 C1694 0.930 . S
H1685 C1695 0.930 . S
C1686 H1680 0.930 . S
C1686 C1687 1.355 . S
C1686 C1688 1.415 . S
C1687 C1686 1.355 . S
C1687 C1689 1.419 . S
C1688 C1686 1.415 . S
C1688 C1693 1.425 . S
C1688 C1695 1.409 . S
C1689 H1681 0.930 . S
C1689 C1687 1.419 . S
C1689 C1690 1.362 . S
C1690 H1682 0.930 . S
C1690 C1689 1.362 . S
C1690 C1693 1.409 . S
C1691 H1683 0.930 . S
C1691 C1692 1.355 . S
C1691 C1693 1.415 . S
C1692 C1691 1.355 . S
C1692 C1694 1.419 . S
C1693 C1688 1.425 . S
C1693 C1690 1.409 . S
C1693 C1691 1.415 . S
C1694 H1684 0.930 . S
C1694 C1692 1.419 . S
C1694 C1695 1.362 . S
C1695 H1685 0.930 . S
C1695 C1688 1.409 . S
C1695 C1694 1.362 . S
H1696 C1702 0.930 . S
H1697 C1705 0.930 . S
H1698 C1706 0.930 . S
H1699 C1707 0.930 . S
H1700 C1710 0.930 . S
H1701 C1711 0.930 . S
C1702 H1696 0.930 . S
C1702 C1703 1.355 . S
C1702 C1704 1.415 . S
C1703 C1702 1.355 . S
C1703 C1705 1.419 . S
C1704 C1702 1.415 . S
C1704 C1709 1.425 . S
C1704 C1711 1.409 . S
C1705 H1697 0.930 . S
C1705 C1703 1.419 . S
C1705 C1706 1.362 . S
C1706 H1698 0.930 . S
C1706 C1705 1.362 . S
C1706 C1709 1.409 . S
C1707 H1699 0.930 . S
C1707 C1708 1.355 . S
C1707 C1709 1.415 . S
C1708 C1707 1.355 . S
C1708 C1710 1.419 . S
C1709 C1704 1.425 . S
C1709 C1706 1.409 . S
C1709 C1707 1.415 . S
C1710 H1700 0.930 . S
C1710 C1708 1.419 . S
C1710 C1711 1.362 . S
C1711 H1701 0.930 . S
C1711 C1704 1.409 . S
C1711 C1710 1.362 . S
H1712 C1718 0.930 . S
H1713 C1721 0.930 . S
H1714 C1722 0.930 . S
H1715 C1723 0.930 . S
H1716 C1726 0.930 . S
H1717 C1727 0.930 . S
C1718 H1712 0.930 . S
C1718 C1719 1.355 . S
C1718 C1720 1.415 . S
C1719 C1718 1.355 . S
C1719 C1721 1.419 . S
C1720 C1718 1.415 . S
C1720 C1725 1.425 . S
C1720 C1727 1.409 . S
C1721 H1713 0.930 . S
C1721 C1719 1.419 . S
C1721 C1722 1.362 . S
C1722 H1714 0.930 . S
C1722 C1721 1.362 . S
C1722 C1725 1.409 . S
C1723 H1715 0.930 . S
C1723 C1724 1.355 . S
C1723 C1725 1.415 . S
C1724 C1723 1.355 . S
C1724 C1726 1.419 . S
C1725 C1720 1.425 . S
C1725 C1722 1.409 . S
C1725 C1723 1.415 . S
C1726 H1716 0.930 . S
C1726 C1724 1.419 . S
C1726 C1727 1.362 . S
C1727 H1717 0.930 . S
C1727 C1720 1.409 . S
C1727 C1726 1.362 . S
H1728 C1734 0.930 . S
H1729 C1737 0.930 . S
H1730 C1738 0.930 . S
H1731 C1739 0.930 . S
H1732 C1742 0.930 . S
H1733 C1743 0.930 . S
C1734 H1728 0.930 . S
C1734 C1735 1.355 . S
C1734 C1736 1.415 . S
C1735 C1734 1.355 . S
C1735 C1737 1.419 . S
C1736 C1734 1.415 . S
C1736 C1741 1.425 . S
C1736 C1743 1.409 . S
C1737 H1729 0.930 . S
C1737 C1735 1.419 . S
C1737 C1738 1.362 . S
C1738 H1730 0.930 . S
C1738 C1737 1.362 . S
C1738 C1741 1.409 . S
C1739 H1731 0.930 . S
C1739 C1740 1.355 . S
C1739 C1741 1.415 . S
C1740 C1739 1.355 . S
C1740 C1742 1.419 . S
C1741 C1736 1.425 . S
C1741 C1738 1.409 . S
C1741 C1739 1.415 . S
C1742 H1732 0.930 . S
C1742 C1740 1.419 . S
C1742 C1743 1.362 . S
C1743 H1733 0.930 . S
C1743 C1736 1.409 . S
C1743 C1742 1.362 . S
H1744 C1750 0.930 . S
H1745 C1753 0.930 . S
H1746 C1754 0.930 . S
H1747 C1755 0.930 . S
H1748 C1758 0.930 . S
H1749 C1759 0.930 . S
C1750 H1744 0.930 . S
C1750 C1751 1.355 . S
C1750 C1752 1.415 . S
C1751 C1750 1.355 . S
C1751 C1753 1.419 . S
C1752 C1750 1.415 . S
C1752 C1757 1.425 . S
C1752 C1759 1.409 . S
C1753 H1745 0.930 . S
C1753 C1751 1.419 . S
C1753 C1754 1.362 . S
C1754 H1746 0.930 . S
C1754 C1753 1.362 . S
C1754 C1757 1.409 . S
C1755 H1747 0.930 . S
C1755 C1756 1.355 . S
C1755 C1757 1.415 . S
C1756 C1755 1.355 . S
C1756 C1758 1.419 . S
C1757 C1752 1.425 . S
C1757 C1754 1.409 . S
C1757 C1755 1.415 . S
C1758 H1748 0.930 . S
C1758 C1756 1.419 . S
C1758 C1759 1.362 . S
C1759 H1749 0.930 . S
C1759 C1752 1.409 . S
C1759 C1758 1.362 . S
H1760 C1766 0.930 . S
H1761 C1769 0.930 . S
H1762 C1770 0.930 . S
H1763 C1771 0.930 . S
H1764 C1774 0.930 . S
H1765 C1775 0.930 . S
C1766 H1760 0.930 . S
C1766 C1767 1.355 . S
C1766 C1768 1.415 . S
C1767 C1766 1.355 . S
C1767 C1769 1.419 . S
C1768 C1766 1.415 . S
C1768 C1773 1.425 . S
C1768 C1775 1.409 . S
C1769 H1761 0.930 . S
C1769 C1767 1.419 . S
C1769 C1770 1.362 . S
C1770 H1762 0.930 . S
C1770 C1769 1.362 . S
C1770 C1773 1.409 . S
C1771 H1763 0.930 . S
C1771 C1772 1.355 . S
C1771 C1773 1.415 . S
C1772 C1771 1.355 . S
C1772 C1774 1.419 . S
C1773 C1768 1.425 . S
C1773 C1770 1.409 . S
C1773 C1771 1.415 . S
C1774 H1764 0.930 . S
C1774 C1772 1.419 . S
C1774 C1775 1.362 . S
C1775 H1765 0.930 . S
C1775 C1768 1.409 . S
C1775 C1774 1.362 . S
H1776 C1782 0.930 . S
H1777 C1785 0.930 . S
H1778 C1786 0.930 . S
H1779 C1787 0.930 . S
H1780 C1790 0.930 . S
H1781 C1791 0.930 . S
C1782 H1776 0.930 . S
C1782 C1783 1.355 . S
C1782 C1784 1.415 . S
C1783 C1782 1.355 . S
C1783 C1785 1.419 . S
C1784 C1782 1.415 . S
C1784 C1789 1.425 . S
C1784 C1791 1.409 . S
C1785 H1777 0.930 . S
C1785 C1783 1.419 . S
C1785 C1786 1.362 . S
C1786 H1778 0.930 . S
C1786 C1785 1.362 . S
C1786 C1789 1.409 . S
C1787 H1779 0.930 . S
C1787 C1788 1.355 . S
C1787 C1789 1.415 . S
C1788 C1787 1.355 . S
C1788 C1790 1.419 . S
C1789 C1784 1.425 . S
C1789 C1786 1.409 . S
C1789 C1787 1.415 . S
C1790 H1780 0.930 . S
C1790 C1788 1.419 . S
C1790 C1791 1.362 . S
C1791 H1781 0.930 . S
C1791 C1784 1.409 . S
C1791 C1790 1.362 . S
H1792 C1798 0.930 . S
H1793 C1801 0.930 . S
H1794 C1802 0.930 . S
H1795 C1803 0.930 . S
H1796 C1806 0.930 . S
H1797 C1807 0.930 . S
C1798 H1792 0.930 . S
C1798 C1799 1.355 . S
C1798 C1800 1.415 . S
C1799 C1798 1.355 . S
C1799 C1801 1.419 . S
C1800 C1798 1.415 . S
C1800 C1805 1.425 . S
C1800 C1807 1.409 . S
C1801 H1793 0.930 . S
C1801 C1799 1.419 . S
C1801 C1802 1.362 . S
C1802 H1794 0.930 . S
C1802 C1801 1.362 . S
C1802 C1805 1.409 . S
C1803 H1795 0.930 . S
C1803 C1804 1.355 . S
C1803 C1805 1.415 . S
C1804 C1803 1.355 . S
C1804 C1806 1.419 . S
C1805 C1800 1.425 . S
C1805 C1802 1.409 . S
C1805 C1803 1.415 . S
C1806 H1796 0.930 . S
C1806 C1804 1.419 . S
C1806 C1807 1.362 . S
C1807 H1797 0.930 . S
C1807 C1800 1.409 . S
C1807 C1806 1.362 . S
H1808 C1814 0.930 . S
H1809 C1817 0.930 . S
H1810 C1818 0.930 . S
H1811 C1819 0.930 . S
H1812 C1822 0.930 . S
H1813 C1823 0.930 . S
C1814 H1808 0.930 . S
C1814 C1815 1.355 . S
C1814 C1816 1.415 . S
C1815 C1814 1.355 . S
C1815 C1817 1.419 . S
C1816 C1814 1.415 . S
C1816 C1821 1.425 . S
C1816 C1823 1.409 . S
C1817 H1809 0.930 . S
C1817 C1815 1.419 . S
C1817 C1818 1.362 . S
C1818 H1810 0.930 . S
C1818 C1817 1.362 . S
C1818 C1821 1.409 . S
C1819 H1811 0.930 . S
C1819 C1820 1.355 . S
C1819 C1821 1.415 . S
C1820 C1819 1.355 . S
C1820 C1822 1.419 . S
C1821 C1816 1.425 . S
C1821 C1818 1.409 . S
C1821 C1819 1.415 . S
C1822 H1812 0.930 . S
C1822 C1820 1.419 . S
C1822 C1823 1.362 . S
C1823 H1813 0.930 . S
C1823 C1816 1.409 . S
C1823 C1822 1.362 . S
H1824 C1830 0.930 . S
H1825 C1833 0.930 . S
H1826 C1834 0.930 . S
H1827 C1835 0.930 . S
H1828 C1838 0.930 . S
H1829 C1839 0.930 . S
C1830 H1824 0.930 . S
C1830 C1831 1.355 . S
C1830 C1832 1.415 . S
C1831 C1830 1.355 . S
C1831 C1833 1.419 . S
C1832 C1830 1.415 . S
C1832 C1837 1.425 . S
C1832 C1839 1.409 . S
C1833 H1825 0.930 . S
C1833 C1831 1.419 . S
C1833 C1834 1.362 . S
C1834 H1826 0.930 . S
C1834 C1833 1.362 . S
C1834 C1837 1.409 . S
C1835 H1827 0.930 . S
C1835 C1836 1.355 . S
C1835 C1837 1.415 . S
C1836 C1835 1.355 . S
C1836 C1838 1.419 . S
C1837 C1832 1.425 . S
C1837 C1834 1.409 . S
C1837 C1835 1.415 . S
C1838 H1828 0.930 . S
C1838 C1836 1.419 . S
C1838 C1839 1.362 . S
C1839 H1829 0.930 . S
C1839 C1832 1.409 . S
C1839 C1838 1.362 . S
H1840 C1846 0.930 . S
H1841 C1849 0.930 . S
H1842 C1850 0.930 . S
H1843 C1851 0.930 . S
H1844 C1854 0.930 . S
H1845 C1855 0.930 . S
C1846 H1840 0.930 . S
C1846 C1847 1.355 . S
C1846 C1848 1.415 . S
C1847 C1846 1.355 . S
C1847 C1849 1.419 . S
C1848 C1846 1.415 . S
C1848 C1853 1.425 . S
C1848 C1855 1.409 . S
C1849 H1841 0.930 . S
C1849 C1847 1.419 . S
C1849 C1850 1.362 . S
C1850 H1842 0.930 . S
C1850 C1849 1.362 . S
C1850 C1853 1.409 . S
C1851 H1843 0.930 . S
C1851 C1852 1.355 . S
C1851 C1853 1.415 . S
C1852 C1851 1.355 . S
C1852 C1854 1.419 . S
C1853 C1848 1.425 . S
C1853 C1850 1.409 . S
C1853 C1851 1.415 . S
C1854 H1844 0.930 . S
C1854 C1852 1.419 . S
C1854 C1855 1.362 . S
C1855 H1845 0.930 . S
C1855 C1848 1.409 . S
C1855 C1854 1.362 . S
H1856 C1862 0.930 . S
H1857 C1865 0.930 . S
H1858 C1866 0.930 . S
H1859 C1867 0.930 . S
H1860 C1870 0.930 . S
H1861 C1871 0.930 . S
C1862 H1856 0.930 . S
C1862 C1863 1.355 . S
C1862 C1864 1.415 . S
C1863 C1862 1.355 . S
C1863 C1865 1.419 . S
C1864 C1862 1.415 . S
C1864 C1869 1.425 . S
C1864 C1871 1.409 . S
C1865 H1857 0.930 . S
C1865 C1863 1.419 . S
C1865 C1866 1.362 . S
C1866 H1858 0.930 . S
C1866 C1865 1.362 . S
C1866 C1869 1.409 . S
C1867 H1859 0.930 . S
C1867 C1868 1.355 . S
C1867 C1869 1.415 . S
C1868 C1867 1.355 . S
C1868 C1870 1.419 . S
C1869 C1864 1.425 . S
C1869 C1866 1.409 . S
C1869 C1867 1.415 . S
C1870 H1860 0.930 . S
C1870 C1868 1.419 . S
C1870 C1871 1.362 . S
C1871 H1861 0.930 . S
C1871 C1864 1.409 . S
C1871 C1870 1.362 . S
H1872 C1878 0.930 . S
H1873 C1881 0.930 . S
H1874 C1882 0.930 . S
H1875 C1883 0.930 . S
H1876 C1886 0.930 . S
H1877 C1887 0.930 . S
C1878 H1872 0.930 . S
C1878 C1879 1.355 . S
C1878 C1880 1.415 . S
C1879 C1878 1.355 . S
C1879 C1881 1.419 . S
C1880 C1878 1.415 . S
C1880 C1885 1.425 . S
C1880 C1887 1.409 . S
C1881 H1873 0.930 . S
C1881 C1879 1.419 . S
C1881 C1882 1.362 . S
C1882 H1874 0.930 . S
C1882 C1881 1.362 . S
C1882 C1885 1.409 . S
C1883 H1875 0.930 . S
C1883 C1884 1.355 . S
C1883 C1885 1.415 . S
C1884 C1883 1.355 . S
C1884 C1886 1.419 . S
C1885 C1880 1.425 . S
C1885 C1882 1.409 . S
C1885 C1883 1.415 . S
C1886 H1876 0.930 . S
C1886 C1884 1.419 . S
C1886 C1887 1.362 . S
C1887 H1877 0.930 . S
C1887 C1880 1.409 . S
C1887 C1886 1.362 . S
H1888 C1894 0.930 . S
H1889 C1897 0.930 . S
H1890 C1898 0.930 . S
H1891 C1899 0.930 . S
H1892 C1902 0.930 . S
H1893 C1903 0.930 . S
C1894 H1888 0.930 . S
C1894 C1895 1.355 . S
C1894 C1896 1.415 . S
C1895 C1894 1.355 . S
C1895 C1897 1.419 . S
C1896 C1894 1.415 . S
C1896 C1901 1.425 . S
C1896 C1903 1.409 . S
C1897 H1889 0.930 . S
C1897 C1895 1.419 . S
C1897 C1898 1.362 . S
C1898 H1890 0.930 . S
C1898 C1897 1.362 . S
C1898 C1901 1.409 . S
C1899 H1891 0.930 . S
C1899 C1900 1.355 . S
C1899 C1901 1.415 . S
C1900 C1899 1.355 . S
C1900 C1902 1.419 . S
C1901 C1896 1.425 . S
C1901 C1898 1.409 . S
C1901 C1899 1.415 . S
C1902 H1892 0.930 . S
C1902 C1900 1.419 . S
C1902 C1903 1.362 . S
C1903 H1893 0.930 . S
C1903 C1896 1.409 . S
C1903 C1902 1.362 . S
H1904 C1910 0.930 . S
H1905 C1913 0.930 . S
H1906 C1914 0.930 . S
H1907 C1915 0.930 . S
H1908 C1918 0.930 . S
H1909 C1919 0.930 . S
C1910 H1904 0.930 . S
C1910 C1911 1.355 . S
C1910 C1912 1.415 . S
C1911 C1910 1.355 . S
C1911 C1913 1.419 . S
C1912 C1910 1.415 . S
C1912 C1917 1.425 . S
C1912 C1919 1.409 . S
C1913 H1905 0.930 . S
C1913 C1911 1.419 . S
C1913 C1914 1.362 . S
C1914 H1906 0.930 . S
C1914 C1913 1.362 . S
C1914 C1917 1.409 . S
C1915 H1907 0.930 . S
C1915 C1916 1.355 . S
C1915 C1917 1.415 . S
C1916 C1915 1.355 . S
C1916 C1918 1.419 . S
C1917 C1912 1.425 . S
C1917 C1914 1.409 . S
C1917 C1915 1.415 . S
C1918 H1908 0.930 . S
C1918 C1916 1.419 . S
C1918 C1919 1.362 . S
C1919 H1909 0.930 . S
C1919 C1912 1.409 . S
C1919 C1918 1.362 . S
H1920 C1926 0.930 . S
H1921 C1929 0.930 . S
H1922 C1930 0.930 . S
H1923 C1931 0.930 . S
H1924 C1934 0.930 . S
H1925 C1935 0.930 . S
C1926 H1920 0.930 . S
C1926 C1927 1.355 . S
C1926 C1928 1.415 . S
C1927 C1926 1.355 . S
C1927 C1929 1.419 . S
C1928 C1926 1.415 . S
C1928 C1933 1.425 . S
C1928 C1935 1.409 . S
C1929 H1921 0.930 . S
C1929 C1927 1.419 . S
C1929 C1930 1.362 . S
C1930 H1922 0.930 . S
C1930 C1929 1.362 . S
C1930 C1933 1.409 . S
C1931 H1923 0.930 . S
C1931 C1932 1.355 . S
C1931 C1933 1.415 . S
C1932 C1931 1.355 . S
C1932 C1934 1.419 . S
C1933 C1928 1.425 . S
C1933 C1930 1.409 . S
C1933 C1931 1.415 . S
C1934 H1924 0.930 . S
C1934 C1932 1.419 . S
C1934 C1935 1.362 . S
C1935 H1925 0.930 . S
C1935 C1928 1.409 . S
C1935 C1934 1.362 . S
H1936 C1942 0.930 . S
H1937 C1945 0.930 . S
H1938 C1946 0.930 . S
H1939 C1947 0.930 . S
H1940 C1950 0.930 . S
H1941 C1951 0.930 . S
C1942 H1936 0.930 . S
C1942 C1943 1.355 . S
C1942 C1944 1.415 . S
C1943 C1942 1.355 . S
C1943 C1945 1.419 . S
C1944 C1942 1.415 . S
C1944 C1949 1.425 . S
C1944 C1951 1.409 . S
C1945 H1937 0.930 . S
C1945 C1943 1.419 . S
C1945 C1946 1.362 . S
C1946 H1938 0.930 . S
C1946 C1945 1.362 . S
C1946 C1949 1.409 . S
C1947 H1939 0.930 . S
C1947 C1948 1.355 . S
C1947 C1949 1.415 . S
C1948 C1947 1.355 . S
C1948 C1950 1.419 . S
C1949 C1944 1.425 . S
C1949 C1946 1.409 . S
C1949 C1947 1.415 . S
C1950 H1940 0.930 . S
C1950 C1948 1.419 . S
C1950 C1951 1.362 . S
C1951 H1941 0.930 . S
C1951 C1944 1.409 . S
C1951 C1950 1.362 . S
H1952 C1958 0.930 . S
H1953 C1961 0.930 . S
H1954 C1962 0.930 . S
H1955 C1963 0.930 . S
H1956 C1966 0.930 . S
H1957 C1967 0.930 . S
C1958 H1952 0.930 . S
C1958 C1959 1.355 . S
C1958 C1960 1.415 . S
C1959 C1958 1.355 . S
C1959 C1961 1.419 . S
C1960 C1958 1.415 . S
C1960 C1965 1.425 . S
C1960 C1967 1.409 . S
C1961 H1953 0.930 . S
C1961 C1959 1.419 . S
C1961 C1962 1.362 . S
C1962 H1954 0.930 . S
C1962 C1961 1.362 . S
C1962 C1965 1.409 . S
C1963 H1955 0.930 . S
C1963 C1964 1.355 . S
C1963 C1965 1.415 . S
C1964 C1963 1.355 . S
C1964 C1966 1.419 . S
C1965 C1960 1.425 . S
C1965 C1962 1.409 . S
C1965 C1963 1.415 . S
C1966 H1956 0.930 . S
C1966 C1964 1.419 . S
C1966 C1967 1.362 . S
C1967 H1957 0.930 . S
C1967 C1960 1.409 . S
C1967 C1966 1.362 . S
H1968 C1974 0.930 . S
H1969 C1977 0.930 . S
H1970 C1978 0.930 . S
H1971 C1979 0.930 . S
H1972 C1982 0.930 . S
H1973 C1983 0.930 . S
C1974 H1968 0.930 . S
C1974 C1975 1.355 . S
C1974 C1976 1.415 . S
C1975 C1974 1.355 . S
C1975 C1977 1.419 . S
C1976 C1974 1.415 . S
C1976 C1981 1.425 . S
C1976 C1983 1.409 . S
C1977 H1969 0.930 . S
C1977 C1975 1.419 . S
C1977 C1978 1.362 . S
C1978 H1970 0.930 . S
C1978 C1977 1.362 . S
C1978 C1981 1.409 . S
C1979 H1971 0.930 . S
C1979 C1980 1.355 . S
C1979 C1981 1.415 . S
C1980 C1979 1.355 . S
C1980 C1982 1.419 . S
C1981 C1976 1.425 . S
C1981 C1978 1.409 . S
C1981 C1979 1.415 . S
C1982 H1972 0.930 . S
C1982 C1980 1.419 . S
C1982 C1983 1.362 . S
C1983 H1973 0.930 . S
C1983 C1976 1.409 . S
C1983 C1982 1.362 . S
H1984 C1990 0.930 . S
H1985 C1993 0.930 . S
H1986 C1994 0.930 . S
H1987 C1995 0.930 . S
H1988 C1998 0.930 . S
H1989 C1999 0.930 . S
C1990 H1984 0.930 . S
C1990 C1991 1.355 . S
C1990 C1992 1.415 . S
C1991 C1990 1.355 . S
C1991 C1993 1.419 . S
C1992 C1990 1.415 . S
C1992 C1997 1.425 . S
C1992 C1999 1.409 . S
C1993 H1985 0.930 . S
C1993 C1991 1.419 . S
C1993 C1994 1.362 . S
C1994 H1986 0.930 . S
C1994 C1993 1.362 . S
C1994 C1997 1.409 . S
C1995 H1987 0.930 . S
C1995 C1996 1.355 . S
C1995 C1997 1.415 . S
C1996 C1995 1.355 . S
C1996 C1998 1.419 . S
C1997 C1992 1.425 . S
C1997 C1994 1.409 . S
C1997 C1995 1.415 . S
C1998 H1988 0.930 . S
C1998 C1996 1.419 . S
C1998 C1999 1.362 . S
C1999 H1989 0.930 . S
C1999 C1992 1.409 . S
C1999 C1998 1.362 . S
H2000 C2006 0.930 . S
H2001 C2009 0.930 . S
H2002 C2010 0.930 . S
H2003 C2011 0.930 . S
H2004 C2014 0.930 . S
H2005 C2015 0.930 . S
C2006 H2000 0.930 . S
C2006 C2007 1.355 . S
C2006 C2008 1.415 . S
C2007 C2006 1.355 . S
C2007 C2009 1.419 . S
C2008 C2006 1.415 . S
C2008 C2013 1.425 . S
C2008 C2015 1.409 . S
C2009 H2001 0.930 . S
C2009 C2007 1.419 . S
C2009 C2010 1.362 . S
C2010 H2002 0.930 . S
C2010 C2009 1.362 . S
C2010 C2013 1.409 . S
C2011 H2003 0.930 . S
C2011 C2012 1.355 . S
C2011 C2013 1.415 . S
C2012 C2011 1.355 . S
C2012 C2014 1.419 . S
C2013 C2008 1.425 . S
C2013 C2010 1.409 . S
C2013 C2011 1.415 . S
C2014 H2004 0.930 . S
C2014 C2012 1.419 . S
C2014 C2015 1.362 . S
C2015 H2005 0.930 . S
C2015 C2008 1.409 . S
C2015 C2014 1.362 . S
H2016 C2022 0.930 . S
H2017 C2025 0.930 . S
H2018 C2026 0.930 . S
H2019 C2027 0.930 . S
H2020 C2030 0.930 . S
H2021 C2031 0.930 . S
C2022 H2016 0.930 . S
C2022 C2023 1.355 . S
C2022 C2024 1.415 . S
C2023 C2022 1.355 . S
C2023 C2025 1.419 . S
C2024 C2022 1.415 . S
C2024 C2029 1.425 . S
C2024 C2031 1.409 . S
C2025 H2017 0.930 . S
C2025 C2023 1.419 . S
C2025 C2026 1.362 . S
C2026 H2018 0.930 . S
C2026 C2025 1.362 . S
C2026 C2029 1.409 . S
C2027 H2019 0.930 . S
C2027 C2028 1.355 . S
C2027 C2029 1.415 . S
C2028 C2027 1.355 . S
C2028 C2030 1.419 . S
C2029 C2024 1.425 . S
C2029 C2026 1.409 . S
C2029 C2027 1.415 . S
C2030 H2020 0.930 . S
C2030 C2028 1.419 . S
C2030 C2031 1.362 . S
C2031 H2021 0.930 . S
C2031 C2024 1.409 . S
C2031 C2030 1.362 . S
H2032 C2038 0.930 . S
H2033 C2041 0.930 . S
H2034 C2042 0.930 . S
H2035 C2043 0.930 . S
H2036 C2046 0.930 . S
H2037 C2047 0.930 . S
C2038 H2032 0.930 . S
C2038 C2039 1.355 . S
C2038 C2040 1.415 . S
C2039 C2038 1.355 . S
C2039 C2041 1.419 . S
C2040 C2038 1.415 . S
C2040 C2045 1.425 . S
C2040 C2047 1.409 . S
C2041 H2033 0.930 . S
C2041 C2039 1.419 . S
C2041 C2042 1.362 . S
C2042 H2034 0.930 . S
C2042 C2041 1.362 . S
C2042 C2045 1.409 . S
C2043 H2035 0.930 . S
C2043 C2044 1.355 . S
C2043 C2045 1.415 . S
C2044 C2043 1.355 . S
C2044 C2046 1.419 . S
C2045 C2040 1.425 . S
C2045 C2042 1.409 . S
C2045 C2043 1.415 . S
C2046 H2036 0.930 . S
C2046 C2044 1.419 . S
C2046 C2047 1.362 . S
C2047 H2037 0.930 . S
C2047 C2040 1.409 . S
C2047 C2046 1.362 . S
H2048 C2054 0.930 . S
H2049 C2057 0.930 . S
H2050 C2058 0.930 . S
H2051 C2059 0.930 . S
H2052 C2062 0.930 . S
H2053 C2063 0.930 . S
C2054 H2048 0.930 . S
C2054 C2055 1.355 . S
C2054 C2056 1.415 . S
C2055 C2054 1.355 . S
C2055 C2057 1.419 . S
C2056 C2054 1.415 . S
C2056 C2061 1.425 . S
C2056 C2063 1.409 . S
C2057 H2049 0.930 . S
C2057 C2055 1.419 . S
C2057 C2058 1.362 . S
C2058 H2050 0.930 . S
C2058 C2057 1.362 . S
C2058 C2061 1.409 . S
C2059 H2051 0.930 . S
C2059 C2060 1.355 . S
C2059 C2061 1.415 . S
C2060 C2059 1.355 . S
C2060 C2062 1.419 . S
C2061 C2056 1.425 . S
C2061 C2058 1.409 . S
C2061 C2059 1.415 . S
C2062 H2052 0.930 . S
C2062 C2060 1.419 . S
C2062 C2063 1.362 . S
C2063 H2053 0.930 . S
C2063 C2056 1.409 . S
C2063 C2062 1.362 . S
H2064 C2070 0.930 . S
H2065 C2073 0.930 . S
H2066 C2074 0.930 . S
H2067 C2075 0.930 . S
H2068 C2078 0.930 . S
H2069 C2079 0.930 . S
C2070 H2064 0.930 . S
C2070 C2071 1.355 . S
C2070 C2072 1.415 . S
C2071 C2070 1.355 . S
C2071 C2073 1.419 . S
C2072 C2070 1.415 . S
C2072 C2077 1.425 . S
C2072 C2079 1.409 . S
C2073 H2065 0.930 . S
C2073 C2071 1.419 . S
C2073 C2074 1.362 . S
C2074 H2066 0.930 . S
C2074 C2073 1.362 . S
C2074 C2077 1.409 . S
C2075 H2067 0.930 . S
C2075 C2076 1.355 . S
C2075 C2077 1.415 . S
C2076 C2075 1.355 . S
C2076 C2078 1.419 . S
C2077 C2072 1.425 . S
C2077 C2074 1.409 . S
C2077 C2075 1.415 . S
C2078 H2068 0.930 . S
C2078 C2076 1.419 . S
C2078 C2079 1.362 . S
C2079 H2069 0.930 . S
C2079 C2072 1.409 . S
C2079 C2078 1.362 . S
H2080 C2086 0.930 . S
H2081 C2089 0.930 . S
H2082 C2090 0.930 . S
H2083 C2091 0.930 . S
H2084 C2094 0.930 . S
H2085 C2095 0.930 . S
C2086 H2080 0.930 . S
C2086 C2087 1.355 . S
C2086 C2088 1.415 . S
C2087 C2086 1.355 . S
C2087 C2089 1.419 . S
C2088 C2086 1.415 . S
C2088 C2093 1.425 . S
C2088 C2095 1.409 . S
C2089 H2081 0.930 . S
C2089 C2087 1.419 . S
C2089 C2090 1.362 . S
C2090 H2082 0.930 . S
C2090 C2089 1.362 . S
C2090 C2093 1.409 . S
C2091 H2083 0.930 . S
C2091 C2092 1.355 . S
C2091 C2093 1.415 . S
C2092 C2091 1.355 . S
C2092 C2094 1.419 . S
C2093 C2088 1.425 . S
C2093 C2090 1.409 . S
C2093 C2091 1.415 . S
C2094 H2084 0.930 . S
C2094 C2092 1.419 . S
C2094 C2095 1.362 . S
C2095 H2085 0.930 . S
C2095 C2088 1.409 . S
C2095 C2094 1.362 . S
H2096 C2102 0.930 . S
H2097 C2105 0.930 . S
H2098 C2106 0.930 . S
H2099 C2107 0.930 . S
H2100 C2110 0.930 . S
H2101 C2111 0.930 . S
C2102 H2096 0.930 . S
C2102 C2103 1.355 . S
C2102 C2104 1.415 . S
C2103 C2102 1.355 . S
C2103 C2105 1.419 . S
C2104 C2102 1.415 . S
C2104 C2109 1.425 . S
C2104 C2111 1.409 . S
C2105 H2097 0.930 . S
C2105 C2103 1.419 . S
C2105 C2106 1.362 . S
C2106 H2098 0.930 . S
C2106 C2105 1.362 . S
C2106 C2109 1.409 . S
C2107 H2099 0.930 . S
C2107 C2108 1.355 . S
C2107 C2109 1.415 . S
C2108 C2107 1.355 . S
C2108 C2110 1.419 . S
C2109 C2104 1.425 . S
C2109 C2106 1.409 . S
C2109 C2107 1.415 . S
C2110 H2100 0.930 . S
C2110 C2108 1.419 . S
C2110 C2111 1.362 . S
C2111 H2101 0.930 . S
C2111 C2104 1.409 . S
C2111 C2110 1.362 . S
H2112 C2118 0.930 . S
H2113 C2121 0.930 . S
H2114 C2122 0.930 . S
H2115 C2123 0.930 . S
H2116 C2126 0.930 . S
H2117 C2127 0.930 . S
C2118 H2112 0.930 . S
C2118 C2119 1.355 . S
C2118 C2120 1.415 . S
C2119 C2118 1.355 . S
C2119 C2121 1.419 . S
C2120 C2118 1.415 . S
C2120 C2125 1.425 . S
C2120 C2127 1.409 . S
C2121 H2113 0.930 . S
C2121 C2119 1.419 . S
C2121 C2122 1.362 . S
C2122 H2114 0.930 . S
C2122 C2121 1.362 . S
C2122 C2125 1.409 . S
C2123 H2115 0.930 . S
C2123 C2124 1.355 . S
C2123 C2125 1.415 . S
C2124 C2123 1.355 . S
C2124 C2126 1.419 . S
C2125 C2120 1.425 . S
C2125 C2122 1.409 . S
C2125 C2123 1.415 . S
C2126 H2116 0.930 . S
C2126 C2124 1.419 . S
C2126 C2127 1.362 . S
C2127 H2117 0.930 . S
C2127 C2120 1.409 . S
C2127 C2126 1.362 . S
H2128 C2134 0.930 . S
H2129 C2137 0.930 . S
H2130 C2138 0.930 . S
H2131 C2139 0.930 . S
H2132 C2142 0.930 . S
H2133 C2143 0.930 . S
C2134 H2128 0.930 . S
C2134 C2135 1.355 . S
C2134 C2136 1.415 . S
C2135 C2134 1.355 . S
C2135 C2137 1.419 . S
C2136 C2134 1.415 . S
C2136 C2141 1.425 . S
C2136 C2143 1.409 . S
C2137 H2129 0.930 . S
C2137 C2135 1.419 . S
C2137 C2138 1.362 . S
C2138 H2130 0.930 . S
C2138 C2137 1.362 . S
C2138 C2141 1.409 . S
C2139 H2131 0.930 . S
C2139 C2140 1.355 . S
C2139 C2141 1.415 . S
C2140 C2139 1.355 . S
C2140 C2142 1.419 . S
C2141 C2136 1.425 . S
C2141 C2138 1.409 . S
C2141 C2139 1.415 . S
C2142 H2132 0.930 . S
C2142 C2140 1.419 . S
C2142 C2143 1.362 . S
C2143 H2133 0.930 . S
C2143 C2136 1.409 . S
C2143 C2142 1.362 . S
H2144 C2150 0.930 . S
H2145 C2153 0.930 . S
H2146 C2154 0.930 . S
H2147 C2155 0.930 . S
H2148 C2158 0.930 . S
H2149 C2159 0.930 . S
C2150 H2144 0.930 . S
C2150 C2151 1.355 . S
C2150 C2152 1.415 . S
C2151 C2150 1.355 . S
C2151 C2153 1.419 . S
C2152 C2150 1.415 . S
C2152 C2157 1.425 . S
C2152 C2159 1.409 . S
C2153 H2145 0.930 . S
C2153 C2151 1.419 . S
C2153 C2154 1.362 . S
C2154 H2146 0.930 . S
C2154 C2153 1.362 . S
C2154 C2157 1.409 . S
C2155 H2147 0.930 . S
C2155 C2156 1.355 . S
C2155 C2157 1.415 . S
C2156 C2155 1.355 . S
C2156 C2158 1.419 . S
C2157 C2152 1.425 . S
C2157 C2154 1.409 . S
C2157 C2155 1.415 . S
C2158 H2148 0.930 . S
C2158 C2156 1.419 . S
C2158 C2159 1.362 . S
C2159 H2149 0.930 . S
C2159 C2152 1.409 . S
C2159 C2158 1.362 . S
H2160 C2166 0.930 . S
H2161 C2169 0.930 . S
H2162 C2170 0.930 . S
H2163 C2171 0.930 . S
H2164 C2174 0.930 . S
H2165 C2175 0.930 . S
C2166 H2160 0.930 . S
C2166 C2167 1.355 . S
C2166 C2168 1.415 . S
C2167 C2166 1.355 . S
C2167 C2169 1.419 . S
C2168 C2166 1.415 . S
C2168 C2173 1.425 . S
C2168 C2175 1.409 . S
C2169 H2161 0.930 . S
C2169 C2167 1.419 . S
C2169 C2170 1.362 . S
C2170 H2162 0.930 . S
C2170 C2169 1.362 . S
C2170 C2173 1.409 . S
C2171 H2163 0.930 . S
C2171 C2172 1.355 . S
C2171 C2173 1.415 . S
C2172 C2171 1.355 . S
C2172 C2174 1.419 . S
C2173 C2168 1.425 . S
C2173 C2170 1.409 . S
C2173 C2171 1.415 . S
C2174 H2164 0.930 . S
C2174 C2172 1.419 . S
C2174 C2175 1.362 . S
C2175 H2165 0.930 . S
C2175 C2168 1.409 . S
C2175 C2174 1.362 . S
H2176 C2182 0.930 . S
H2177 C2185 0.930 . S
H2178 C2186 0.930 . S
H2179 C2187 0.930 . S
H2180 C2190 0.930 . S
H2181 C2191 0.930 . S
C2182 H2176 0.930 . S
C2182 C2183 1.355 . S
C2182 C2184 1.415 . S
C2183 C2182 1.355 . S
C2183 C2185 1.419 . S
C2184 C2182 1.415 . S
C2184 C2189 1.425 . S
C2184 C2191 1.409 . S
C2185 H2177 0.930 . S
C2185 C2183 1.419 . S
C2185 C2186 1.362 . S
C2186 H2178 0.930 . S
C2186 C2185 1.362 . S
C2186 C2189 1.409 . S
C2187 H2179 0.930 . S
C2187 C2188 1.355 . S
C2187 C2189 1.415 . S
C2188 C2187 1.355 . S
C2188 C2190 1.419 . S
C2189 C2184 1.425 . S
C2189 C2186 1.409 . S
C2189 C2187 1.415 . S
C2190 H2180 0.930 . S
C2190 C2188 1.419 . S
C2190 C2191 1.362 . S
C2191 H2181 0.930 . S
C2191 C2184 1.409 . S
C2191 C2190 1.362 . S
H2192 C2198 0.930 . S
H2193 C2201 0.930 . S
H2194 C2202 0.930 . S
H2195 C2203 0.930 . S
H2196 C2206 0.930 . S
H2197 C2207 0.930 . S
C2198 H2192 0.930 . S
C2198 C2199 1.355 . S
C2198 C2200 1.415 . S
C2199 C2198 1.355 . S
C2199 C2201 1.419 . S
C2200 C2198 1.415 . S
C2200 C2205 1.425 . S
C2200 C2207 1.409 . S
C2201 H2193 0.930 . S
C2201 C2199 1.419 . S
C2201 C2202 1.362 . S
C2202 H2194 0.930 . S
C2202 C2201 1.362 . S
C2202 C2205 1.409 . S
C2203 H2195 0.930 . S
C2203 C2204 1.355 . S
C2203 C2205 1.415 . S
C2204 C2203 1.355 . S
C2204 C2206 1.419 . S
C2205 C2200 1.425 . S
C2205 C2202 1.409 . S
C2205 C2203 1.415 . S
C2206 H2196 0.930 . S
C2206 C2204 1.419 . S
C2206 C2207 1.362 . S
C2207 H2197 0.930 . S
C2207 C2200 1.409 . S
C2207 C2206 1.362 . S
C679 C398 1.132 . S
C684 C6 1.136 . S
C695 C20 1.101 . S
C700 C412 1.166 . S
C711 C426 1.109 . S
C716 C34 1.158 . S
C727 C48 1.132 . S
C732 C440 1.136 . S
C743 C342 1.165 . S
C748 C62 1.102 . S
C759 C76 1.128 . S
C764 C356 1.140 . S
C775 C370 1.157 . S
C780 C90 1.110 . S
C791 C104 1.154 . S
C796 C384 1.113 . S
C807 C538 1.104 . S
C812 C118 1.163 . S
C823 C552 1.159 . S
C828 C132 1.108 . S
C839 C510 1.166 . S
C844 C146 1.101 . S
C855 C160 1.103 . S
C860 C524 1.164 . S
C871 C482 1.120 . S
C876 C174 1.148 . S
C887 C496 1.101 . S
C892 C188 1.165 . S
C903 C202 1.150 . S
C908 C454 1.118 . S
C919 C468 1.103 . S
C924 C216 1.164 . S
C935 C230 1.148 . S
C940 C636 1.120 . S
C951 C608 1.126 . S
C956 C244 1.142 . S
C967 C622 1.115 . S
C972 C258 1.152 . S
C983 C580 1.149 . S
C988 C272 1.119 . S
C999 C594 1.106 . S
C1004 C286 1.161 . S
C1015 C300 1.126 . S
C1020 C566 1.141 . S
C1031 C314 1.136 . S
C1036 C664 1.132 . S
C1047 C650 1.102 . S
C1052 C328 1.165 . S
C1063 C105 1.639 . S
C1068 C7 1.560 . S
C1079 C63 1.647 . S
C1084 C21 1.591 . S
C1095 C77 1.552 . S
C1100 C35 1.630 . S
C1111 C91 1.566 . S
C1116 C49 1.643 . S
C1127 C287 1.546 . S
C1132 C119 1.604 . S
C1143 C245 1.647 . S
C1148 C133 1.587 . S
C1159 C259 1.646 . S
C1164 C147 1.573 . S
C1175 C273 1.640 . S
C1180 C161 1.613 . S
C1191 C329 1.647 . S
C1196 C175 1.583 . S
C1207 C301 1.646 . S
C1212 C189 1.600 . S
C1223 C203 1.642 . S
C1228 C315 1.564 . S
C1239 C231 1.566 . S
C1244 C217 1.563 . S
C1255 C441 1.612 . S
C1260 C343 1.546 . S
C1271 C399 1.645 . S
C1276 C357 1.572 . S
C1287 C371 1.647 . S
C1292 C413 1.581 . S
C1303 C385 1.643 . S
C1308 C427 1.567 . S
C1319 C455 1.574 . S
C1324 C623 1.646 . S
C1335 C469 1.604 . S
C1340 C581 1.644 . S
C1351 C595 1.621 . S
C1356 C483 1.635 . S
C1367 C609 1.614 . S
C1372 C497 1.640 . S
C1383 C665 1.644 . S
C1388 C511 1.568 . S
C1399 C637 1.647 . S
C1404 C525 1.578 . S
C1415 C651 1.626 . S
C1420 C539 1.632 . S
C1431 C553 1.593 . S
C1436 C567 1.647 . S
C1447 C8 1.337 . S
C1452 C121 1.273 . S
C1463 C135 1.329 . S
C1468 C22 1.320 . S
C1479 C149 1.339 . S
C1484 C36 1.323 . S
C1495 C163 1.261 . S
C1500 C50 1.353 . S
C1511 C64 1.331 . S
C1516 C177 1.284 . S
C1527 C191 1.332 . S
C1532 C78 1.335 . S
C1543 C92 1.320 . S
C1548 C205 1.324 . S
C1559 C219 1.274 . S
C1564 C106 1.336 . S
C1575 C233 1.273 . S
C1580 C120 1.356 . S
C1591 C331 1.260 . S
C1596 C134 1.350 . S
C1607 C148 1.322 . S
C1612 C303 1.312 . S
C1623 C162 1.346 . S
C1628 C317 1.314 . S
C1639 C176 1.320 . S
C1644 C247 1.335 . S
C1655 C190 1.354 . S
C1660 C261 1.262 . S
C1671 C204 1.336 . S
C1676 C275 1.332 . S
C1687 C218 1.344 . S
C1692 C289 1.317 . S
C1703 C232 1.336 . S
C1708 C9 1.332 . S
C1719 C246 1.354 . S
C1724 C65 1.263 . S
C1735 C260 1.336 . S
C1740 C79 1.332 . S
C1751 C274 1.352 . S
C1756 C93 1.260 . S
C1767 C288 1.321 . S
C1772 C107 1.337 . S
C1783 C302 1.355 . S
C1788 C37 1.264 . S
C1799 C51 1.299 . S
C1804 C316 1.351 . S
C1815 C23 1.267 . S
C1820 C330 1.356 . S
C1831 C457 1.325 . S
C1836 C344 1.320 . S
C1847 C471 1.265 . S
C1852 C358 1.343 . S
C1863 C485 1.333 . S
C1868 C372 1.320 . S
C1879 C499 1.261 . S
C1884 C386 1.347 . S
C1895 C513 1.304 . S
C1900 C400 1.324 . S
C1911 C414 1.338 . S
C1916 C527 1.271 . S
C1927 C541 1.339 . S
C1932 C428 1.323 . S
C1943 C442 1.353 . S
C1948 C555 1.292 . S
C1959 C569 1.319 . S
C1964 C456 1.344 . S
C1975 C470 1.320 . S
C1980 C667 1.325 . S
C1991 C484 1.324 . S
C1996 C639 1.304 . S
C2007 C653 1.261 . S
C2012 C498 1.348 . S
C2023 C583 1.265 . S
C2028 C512 1.343 . S
C2039 C526 1.330 . S
C2044 C597 1.338 . S
C2055 C540 1.339 . S
C2060 C611 1.270 . S
C2071 C625 1.281 . S
C2076 C554 1.333 . S
C2087 C345 1.281 . S
C2092 C568 1.332 . S
C2103 C401 1.315 . S
C2108 C582 1.321 . S
C2119 C415 1.263 . S
C2124 C596 1.344 . S
C2135 C610 1.323 . S
C2140 C429 1.306 . S
C2151 C443 1.329 . S
C2156 C624 1.338 . S
C2167 C373 1.313 . S
C2172 C638 1.346 . S
C2183 C652 1.321 . S
C2188 C387 1.336 . S
C2199 C359 1.272 . S
C2204 C666 1.356 . S
