# Generated by pormake.
# Topology sxc, (6)-cn, num edge types: 1
# Building blocks:
#     Node 0, Type 0, BuildingBlock: BETFEN_clean_sbu_0, # of connection points: 6
#     Node 1, Type 0, BuildingBlock: BETFEN_clean_sbu_0, # of connection points: 6
#     Node 2, Type 0, BuildingBlock: BETFEN_clean_sbu_0, # of connection points: 6
#     Edge 3, Type (0, 0), BuildingBlock: XUDNAN_clean_linker_2, # of connection points: 2
#     Edge 4, Type (0, 0), BuildingBlock: XUDNAN_clean_linker_2, # of connection points: 2
#     Edge 5, Type (0, 0), BuildingBlock: XUDNAN_clean_linker_2, # of connection points: 2
#     Edge 6, Type (0, 0), BuildingBlock: XUDNAN_clean_linker_2, # of connection points: 2
#     Edge 7, Type (0, 0), BuildingBlock: XUDNAN_clean_linker_2, # of connection points: 2
#     Edge 8, Type (0, 0), BuildingBlock: XUDNAN_clean_linker_2, # of connection points: 2
#     Edge 9, Type (0, 0), BuildingBlock: XUDNAN_clean_linker_2, # of connection points: 2
#     Edge 10, Type (0, 0), BuildingBlock: XUDNAN_clean_linker_2, # of connection points: 2
#     Edge 11, Type (0, 0), BuildingBlock: XUDNAN_clean_linker_2, # of connection points: 2
# Relax obj value: 0.323
# Max RMSD: 0.161
# Mean RMSD: 0.088
data_MOF--net-sxc--node1-BETFEN_clean_sbu_0--edge1-XUDNAN_clean_linker_2
_symmetry_space_group_name_H-M    P1
_symmetry_Int_Tables_number       1
_symmetry_cell_setting            triclinic
loop_
_symmetry_equiv_pos_as_xyz
'x, y, z'
_cell_length_a     16.054937
_cell_length_b     16.949686
_cell_length_c     45.156042
_cell_angle_alpha  94.684125
_cell_angle_beta   91.145481
_cell_angle_gamma 91.517321
loop_
_atom_site_label
_atom_site_type_symbol
_atom_site_fract_x
_atom_site_fract_y
_atom_site_fract_z
_atom_type_partial_charge
Pr0 Pr 0.13842 0.14638 0.98299 0.0
Pr1 Pr 0.96838 0.14873 0.97939 0.0
C2 C 0.30397 0.16242 0.97542 0.0
C3 C 0.36627 0.22737 0.97524 0.0
C4 C 0.43291 0.23168 -0.00409 0.0
C5 C 0.48716 0.29764 -0.00145 0.0
C6 C 0.47585 0.36005 0.98034 0.0
C7 C 0.41187 0.35337 0.95849 0.0
C8 C 0.35719 0.28788 0.95607 0.0
C9 C 1.07319 0.14091 0.03996 0.0
C10 C 1.05053 0.33541 0.98178 0.0
C11 C 0.80416 1.12602 0.9868 0.0
C12 C 0.75841 1.05693 -0.00354 0.0
C13 C 0.69477 1.02057 0.9781 0.0
C14 C 0.66514 0.94465 0.98285 0.0
C15 C 0.69853 0.90427 0.00619 0.0
C16 C 0.75736 0.94355 0.02598 0.0
C17 C 0.78746 1.01905 0.02107 0.0
C18 C 1.03419 0.15398 0.92263 0.0
C19 C 1.05239 0.96034 0.98147 0.0
O20 O 0.24966 0.15416 0.95337 0.0
O21 O 0.27101 0.1525 0.00106 0.0
O22 O 1.049 0.18676 0.02093 0.0
O23 O 0.13215 1.09622 0.0298 0.0
O24 O 0.98035 0.29204 0.98262 0.0
O25 O 0.12118 0.29392 0.98085 0.0
O26 O 0.85275 0.16511 0.00673 0.0
O27 O 0.83913 1.1144 0.96102 0.0
O28 O 1.05692 1.10697 0.94153 0.0
O29 O 0.97871 0.20196 0.93341 0.0
O30 O 0.12405 1.00031 0.97837 0.0
O31 O 0.98491 1.00517 0.98434 0.0
H32 H 0.44106 0.18538 0.01083 0.0
H33 H 0.53542 0.30129 0.01574 0.0
H34 H 0.40268 0.39978 0.94372 0.0
H35 H 0.30655 0.28594 0.93979 0.0
H36 H 0.67213 1.04858 0.95888 0.0
H37 H 0.62027 0.91575 0.96703 0.0
H38 H 0.78301 0.9145 0.04447 0.0
H39 H 0.83696 1.04553 0.03556 0.0
Pr40 Pr 1.04762 0.247 0.31371 0.0
Pr41 Pr 1.0426 1.08483 0.31501 0.0
C42 C 0.09661 0.39687 0.30889 0.0
C43 C 0.17507 0.43014 0.32266 0.0
C44 C 0.20435 0.402 0.34933 0.0
C45 C 0.28209 0.42666 0.36147 0.0
C46 C 0.332 0.48099 0.34747 0.0
C47 C 0.30346 0.50761 0.32033 0.0
C48 C 0.22584 0.48194 0.30795 0.0
C49 C 1.02054 0.20557 0.37167 0.0
C50 C 0.85985 0.17017 0.31018 0.0
C51 C 1.07108 0.9389 0.32979 0.0
C52 C 0.14789 0.91408 0.34458 0.0
C53 C 0.20393 0.86696 0.32819 0.0
C54 C 0.28258 0.85331 0.34 0.0
C55 C 0.30704 0.88598 0.36861 0.0
C56 C 0.2506 0.93205 0.38532 0.0
C57 C 0.17192 0.94642 0.37334 0.0
C58 C 1.01199 1.12485 0.25685 0.0
C59 C 0.23311 0.16777 0.31696 0.0
O60 O 1.03929 0.37811 0.32737 0.0
O61 O 0.10569 0.34193 0.28732 0.0
O62 O 1.07528 0.17584 0.35466 0.0
O63 O 0.97524 0.25422 0.35814 0.0
O64 O 0.89749 1.11135 0.32228 0.0
O65 O 0.90673 0.22562 0.29916 0.0
O66 O 1.02355 0.98691 0.34563 0.0
O67 O 0.08064 0.95918 0.30271 0.0
O68 O 1.06931 0.15515 0.27411 0.0
O69 O 0.96699 1.0732 0.26961 0.0
O70 O 0.19091 0.2326 0.32164 0.0
O71 O 0.19146 1.09967 0.312 0.0
H72 H 0.16723 0.36023 0.3608 0.0
H73 H 0.30221 0.40484 0.38226 0.0
H74 H 0.33943 0.55094 0.30925 0.0
H75 H 0.20527 0.50291 0.28706 0.0
H76 H 0.18746 0.84183 0.30594 0.0
H77 H 0.32348 0.81507 0.32696 0.0
H78 H 0.2672 0.95654 0.40763 0.0
H79 H 0.13052 0.98375 0.38648 0.0
Pr80 Pr 1.06959 1.06673 0.64248 0.0
Pr81 Pr 1.06778 0.23491 0.64908 0.0
C82 C 1.05383 0.90968 0.64707 0.0
C83 C 0.99775 0.85904 0.66259 0.0
C84 C 0.999 0.77682 0.65671 0.0
C85 C 0.9387 0.72901 0.6688 0.0
C86 C 0.87634 0.76325 0.68671 0.0
C87 C 0.87903 0.84538 0.69415 0.0
C88 C 0.93946 0.89302 0.68213 0.0
C89 C 1.07238 1.13155 0.58699 0.0
C90 C 0.88355 0.1502 0.64962 0.0
C91 C 0.09473 0.39034 0.64468 0.0
C92 C 0.17198 0.43811 0.6496 0.0
C93 C 0.1726 0.5091 0.66786 0.0
C94 C 0.24826 0.54747 0.67672 0.0
C95 C 0.32412 0.51482 0.66755 0.0
C96 C 0.32276 0.44482 0.64861 0.0
C97 C 0.24757 0.40723 0.63957 0.0
C98 C 1.05768 0.17302 0.70458 0.0
C99 C 0.2566 0.14676 0.64668 0.0
O100 O 0.1035 0.95636 0.66415 0.0
O101 O 1.01997 0.94499 0.62537 0.0
O102 O 1.02613 0.15258 0.60834 0.0
O103 O 0.12101 1.07578 0.59407 0.0
O104 O 0.92142 0.21551 0.6421 0.0
O105 O 0.92928 1.0894 0.6557 0.0
O106 O 0.0928 0.33825 0.62162 0.0
O107 O 1.06504 0.36215 0.6685 0.0
O108 O 0.10669 0.1492 0.68423 0.0
O109 O 1.01215 0.22977 0.69632 0.0
O110 O 0.21294 1.08036 0.6468 0.0
O111 O 0.21697 0.2144 0.64583 0.0
H112 H 1.04438 0.74998 0.64187 0.0
H113 H 0.93816 0.66572 0.66295 0.0
H114 H 0.83117 0.87343 0.70755 0.0
H115 H 0.93847 0.95662 0.68703 0.0
H116 H 0.11484 0.5334 0.67602 0.0
H117 H 0.24741 0.60202 0.69097 0.0
H118 H 0.37997 0.41739 0.64147 0.0
H119 H 0.24909 0.35231 0.62559 0.0
H120 H 0.17512 0.47273 0.9864 0.0
H121 H 0.90936 0.42252 0.97596 0.0
H122 H 0.88511 0.5645 0.97469 0.0
H123 H 0.15034 0.66345 0.03458 0.0
H124 H 0.23827 0.71326 0.01939 0.0
H125 H 0.23548 0.60673 0.01978 0.0
H126 H 0.25817 0.59537 0.96303 0.0
H127 H 0.25868 0.70175 0.96291 0.0
H128 H 0.18632 0.64169 0.93909 0.0
H129 H 0.88512 0.7202 0.97413 0.0
H130 H 0.9092 0.86467 0.97587 0.0
H131 H 0.17474 0.83147 0.98614 0.0
C132 C 0.11149 0.49083 0.9837 0.0
C133 C 1.04437 0.43022 0.98115 0.0
C134 C 0.96334 0.46238 0.97798 0.0
C135 C 0.94842 0.5452 0.97718 0.0
C136 C 1.0144 0.60183 0.97966 0.0
C137 C 0.09487 0.57597 0.98302 0.0
C138 C 0.15369 0.65165 0.98601 0.0
C139 C 0.19717 0.65924 0.01675 0.0
C140 C 0.21809 0.64735 0.96129 0.0
C141 C 0.09466 0.72291 0.98292 0.0
C142 C 1.01426 0.69167 0.9796 0.0
C143 C 0.94822 0.74396 0.97695 0.0
C144 C 0.96294 0.82805 0.97789 0.0
C145 C 1.044 0.86524 0.981 0.0
C146 C 0.1111 0.80903 0.9835 0.0
H147 H 0.36163 1.05753 0.32523 0.0
H148 H 0.31999 0.29923 0.30428 0.0
H149 H 0.47032 0.32233 0.30029 0.0
H150 H 0.55539 1.10932 0.37055 0.0
H151 H 0.60276 1.01718 0.3586 0.0
H152 H 0.49082 1.02286 0.36011 0.0
H153 H 0.48387 0.96771 0.30377 0.0
H154 H 0.59614 0.9663 0.30362 0.0
H155 H 0.54041 1.02067 0.27723 0.0
H156 H 0.62412 0.32135 0.2966 0.0
H157 H 0.77438 0.29957 0.29697 0.0
H158 H 0.72963 1.06105 0.32285 0.0
C159 C 0.38426 1.1151 0.31966 0.0
C160 C 0.32713 0.17638 0.31495 0.0
C161 C 0.36073 0.25101 0.30813 0.0
C162 C 0.44682 0.26491 0.30567 0.0
C163 C 0.50103 0.20411 0.31036 0.0
C164 C 0.47175 1.13086 0.31757 0.0
C165 C 0.54587 1.0777 0.32255 0.0
C166 C 0.54894 1.05533 0.35485 0.0
C167 C 0.5413 1.00366 0.30049 0.0
C168 C 0.62052 1.13204 0.31633 0.0
C169 C 0.5921 0.20454 0.30928 0.0
C170 C 0.64705 0.26487 0.30223 0.0
C171 C 0.7331 0.2516 0.30244 0.0
C172 C 0.76581 0.17857 0.30991 0.0
C173 C 0.70778 1.11778 0.31706 0.0
H174 H 0.78875 0.66266 0.64764 0.0
H175 H 0.7912 0.76358 0.73906 0.0
H176 H 0.65105 0.70326 0.74555 0.0
H177 H 0.58576 0.7027 0.6316 0.0
H178 H 0.5645 0.61368 0.60771 0.0
H179 H 0.66908 0.65414 0.61183 0.0
H180 H 0.71957 0.52055 0.62748 0.0
H181 H 0.61534 0.47793 0.62477 0.0
H182 H 0.67497 0.47848 0.65907 0.0
H183 H 0.50473 0.64318 0.73986 0.0
H184 H 0.36741 0.58402 0.72321 0.0
H185 H 0.46366 0.53006 0.6349 0.0
C186 C 0.76143 0.66949 0.6694 0.0
C187 C 0.80103 0.71647 0.69301 0.0
C188 C 0.76174 0.72701 0.7208 0.0
C189 C 0.68244 0.69304 0.72466 0.0
C190 C 0.64392 0.64912 0.70048 0.0
C191 C 0.68259 0.63694 0.67348 0.0
C192 C 0.62596 0.59375 0.65014 0.0
C193 C 0.61042 0.64411 0.62379 0.0
C194 C 0.66096 0.51283 0.63974 0.0
C195 C 0.54853 0.58485 0.66801 0.0
C196 C 0.55992 0.61638 0.69705 0.0
C197 C 0.49536 0.61763 0.71724 0.0
C198 C 0.41743 0.58485 0.7075 0.0
C199 C 0.40499 0.55219 0.67778 0.0
C200 C 0.47155 0.55295 0.65791 0.0
H201 H 0.75751 0.26279 0.64261 0.0
H202 H 0.79389 1.01706 0.65952 0.0
H203 H 0.64291 0.99495 0.66083 0.0
H204 H 0.57149 0.28795 0.69127 0.0
H205 H 0.52204 0.35235 0.66679 0.0
H206 H 0.63415 0.34794 0.66878 0.0
H207 H 0.63091 0.3159 0.61123 0.0
H208 H 0.51863 0.31588 0.61048 0.0
H209 H 0.57217 0.22983 0.59551 0.0
H210 H 0.49066 0.99458 0.65956 0.0
H211 H 0.34155 1.01538 0.65672 0.0
H212 H 0.38846 0.26248 0.64121 0.0
C213 C 0.7336 0.20444 0.64667 0.0
C214 C 0.78946 0.14165 0.65091 0.0
C215 C 0.75433 1.06651 0.65621 0.0
C216 C 0.66783 1.05309 0.65699 0.0
C217 C 0.61506 1.11527 0.65265 0.0
C218 C 0.64581 0.18979 0.64778 0.0
C219 C 0.57275 0.24542 0.64414 0.0
C220 C 0.57518 0.31246 0.66922 0.0
C221 C 0.57369 0.27872 0.61351 0.0
C222 C 0.49687 0.18963 0.64697 0.0
C223 C 0.52418 1.11518 0.65207 0.0
C224 C 0.46858 1.05265 0.65558 0.0
C225 C 0.38292 1.06552 0.65383 0.0
C226 C 0.35085 0.14071 0.64855 0.0
C227 C 0.40963 0.20416 0.64523 0.0
H228 H 0.54691 0.82704 -0.00317 0.0
H229 H 0.80679 0.78859 0.01824 0.0
H230 H 0.77845 0.64449 0.01476 0.0
H231 H 0.45971 0.66721 0.03637 0.0
H232 H 0.38 0.64092 0.00842 0.0
H233 H 0.41835 0.74188 0.01435 0.0
H234 H 0.45476 0.74142 0.95896 0.0
H235 H 0.41659 0.64058 0.95242 0.0
H236 H 0.5215 0.66654 0.94266 0.0
H237 H 0.7237 0.5041 0.00522 0.0
H238 H 0.64361 0.3782 0.99382 0.0
H239 H 0.42028 0.51049 0.97953 0.0
C240 C 0.59772 0.78839 0.00103 0.0
C241 C 0.679 0.819 0.00776 0.0
C242 C 0.74371 0.76649 0.01339 0.0
C243 C 0.72843 0.68452 0.01127 0.0
C244 C 0.64803 0.65626 0.00372 0.0
C245 C 0.58358 0.70664 -0.00097 0.0
C246 C 0.50333 0.66131 0.99052 0.0
C247 C 0.43643 0.67896 0.01384 0.0
C248 C 0.47227 0.67851 0.95929 0.0
C249 C 0.5329 0.57759 0.99089 0.0
C250 C 0.61652 0.57571 -0.00153 0.0
C251 C 0.65788 0.50473 -0.00041 0.0
C252 C 0.61196 0.43367 0.99314 0.0
C253 C 0.52582 0.43455 0.98572 0.0
C254 C 0.4863 0.50767 0.98461 0.0
H255 H 0.34262 0.53237 0.40544 0.0
H256 H 0.48342 0.52318 0.32502 0.0
H257 H 0.56576 0.63998 0.3445 0.0
H258 H 0.27825 0.67468 0.41266 0.0
H259 H 0.29694 0.72269 0.44951 0.0
H260 H 0.30292 0.61791 0.44373 0.0
H261 H 0.45073 0.62461 0.46618 0.0
H262 H 0.44485 0.73085 0.47217 0.0
H263 H 0.53014 0.6874 0.45199 0.0
H264 H 0.55948 0.77839 0.35268 0.0
H265 H 0.46221 0.88274 0.34468 0.0
H266 H 0.32522 0.82559 0.4214 0.0
C267 C 0.39516 0.55213 0.39312 0.0
C268 C 0.40494 0.52129 0.36349 0.0
C269 C 0.47343 0.5476 0.34756 0.0
C270 C 0.52125 0.61387 0.35878 0.0
C271 C 0.49916 0.6537 0.38578 0.0
C272 C 0.44098 0.62043 0.40393 0.0
C273 C 0.41064 0.68273 0.42695 0.0
C274 C 0.31658 0.67399 0.43342 0.0
C275 C 0.46222 0.68133 0.456 0.0
C276 C 0.43362 0.75637 0.41165 0.0
C277 C 0.49514 0.73973 0.39083 0.0
C278 C 0.5125 0.79163 0.36906 0.0
C279 C 0.45661 0.85138 0.36451 0.0
C280 C 0.3854 0.8598 0.3821 0.0
C281 C 0.38002 0.81919 0.40796 0.0
H282 H 0.13825 1.12246 0.21635 0.0
H283 H 0.87157 0.14662 0.22425 0.0
H284 H 0.85864 0.16038 0.1701 0.0
H285 H 0.17234 0.25435 0.15777 0.0
H286 H 0.24647 0.19141 0.13877 0.0
H287 H 0.23565 0.19066 0.17839 0.0
H288 H 0.20691 1.03907 0.17243 0.0
H289 H 0.21769 1.03935 0.13282 0.0
H290 H 0.12389 0.99904 0.14773 0.0
H291 H 0.87629 0.17588 0.11476 0.0
H292 H 0.91962 0.17368 0.06233 0.0
H293 H 0.17151 1.12205 0.0893 0.0
C294 C 0.0774 1.13171 0.20665 0.0
C295 C 1.00591 1.13501 0.2245 0.0
C296 C 0.92703 0.14473 0.21096 0.0
C297 C 0.91922 0.15277 0.18025 0.0
C298 C 0.99074 0.14894 0.16314 0.0
C299 C 1.06816 0.13718 0.17579 0.0
C300 C 0.13402 1.12877 0.1521 0.0
C301 C 0.20108 0.19526 0.15706 0.0
C302 C 0.1729 1.04667 0.15123 0.0
C303 C 0.0818 0.1379 0.1242 0.0
C304 C 0.9996 0.1512 0.13111 0.0
C305 C 0.94033 0.16463 0.10913 0.0
C306 C 0.96545 0.16348 0.07939 0.0
C307 C 1.04852 0.14685 0.07166 0.0
C308 C 0.10725 1.13398 0.09448 0.0
H309 H 0.12204 1.12208 0.40858 0.0
H310 H 0.91195 0.27819 0.40926 0.0
H311 H 0.90561 0.27748 0.46357 0.0
H312 H 1.04559 1.00338 0.46693 0.0
H313 H 0.14716 0.99189 0.48352 0.0
H314 H 0.13696 1.00425 0.44439 0.0
H315 H 0.24016 1.1242 0.45045 0.0
H316 H 0.25086 1.11267 0.48965 0.0
H317 H 0.21976 0.20604 0.47715 0.0
H318 H 0.92222 0.26389 0.51765 0.0
H319 H 0.95594 0.23145 0.56863 0.0
H320 H 0.15279 1.08014 0.53508 0.0
C321 C 1.07442 0.1555 0.4202 0.0
C322 C 1.01745 0.2003 0.40447 0.0
C323 C 0.95641 0.24358 0.42061 0.0
C324 C 0.95227 0.24366 0.45158 0.0
C325 C 1.0093 0.1997 0.46645 0.0
C326 C 1.06889 0.15577 0.45142 0.0
C327 C 0.12169 1.11305 0.4732 0.0
C328 C 0.11225 1.02278 0.46661 0.0
C329 C 0.21357 0.14066 0.47257 0.0
C330 C 0.08246 0.14026 0.50266 0.0
C331 C 1.01801 0.19057 0.49806 0.0
C332 C 0.97232 0.22427 0.52154 0.0
C333 C 0.99209 0.20554 0.5505 0.0
C334 C 1.05678 0.15307 0.556 0.0
C335 C 0.10291 1.1204 0.53165 0.0
H336 H 0.97645 0.24247 0.7522 0.0
H337 H 0.15734 1.06367 0.72891 0.0
H338 H 0.1727 1.03852 0.78214 0.0
H339 H 0.07793 0.32229 0.81983 0.0
H340 H 0.98202 0.3401 0.83903 0.0
H341 H 0.98439 0.3418 0.79923 0.0
H342 H 0.86511 0.23531 0.79339 0.0
H343 H 0.8621 0.23353 0.83318 0.0
H344 H 0.87685 0.14319 0.81017 0.0
H345 H 0.16757 1.03446 0.83932 0.0
H346 H 0.14195 1.05144 0.8935 0.0
H347 H 0.96682 0.23504 0.87834 0.0
C348 C 1.01913 0.19771 0.75821 0.0
C349 C 1.06571 0.15497 0.73629 0.0
C350 C 0.12099 1.09714 0.74525 0.0
C351 C 0.13011 1.08256 0.77547 0.0
C352 C 0.0837 1.12642 0.79656 0.0
C353 C 1.02926 0.18283 0.78818 0.0
C354 C 0.98708 0.22285 0.81492 0.0
C355 C 1.00921 0.31203 0.81845 0.0
C356 C 0.89217 0.20779 0.81278 0.0
C357 C 1.02596 0.18034 0.8398 0.0
C358 C 0.08148 1.12473 0.8289 0.0
C359 C 0.1242 1.07795 0.84796 0.0
C360 C 0.10936 1.08799 0.87873 0.0
C361 C 1.05246 0.14455 0.89027 0.0
C362 C 1.01087 0.19136 0.87036 0.0
loop_
_geom_bond_atom_site_label_1
_geom_bond_atom_site_label_2
_geom_bond_distance
_geom_bond_site_symmetry_2
_ccdc_geom_bond_type
Pr0 C2 2.880 . S
Pr0 O20 2.562 1_554 S
Pr0 O21 2.490 . S
Pr0 O22 2.695 1_455 S
Pr0 O23 2.512 . S
Pr0 O25 2.437 . S
Pr0 O28 2.436 1_554 S
Pr0 O30 2.438 1_545 S
Pr1 C11 2.878 1_556 S
Pr1 O22 2.436 1_566 S
Pr1 O24 2.438 1_566 S
Pr1 O26 2.562 1_556 S
Pr1 O27 2.490 . S
Pr1 O28 2.695 1_665 S
Pr1 O29 2.512 . S
Pr1 O31 2.437 . S
C2 Pr0 2.880 . S
C2 C3 1.491 . S
C2 O20 1.254 1_554 S
C2 O21 1.225 . S
C3 C2 1.491 . S
C3 C4 1.392 . S
C3 C8 1.356 1_554 S
C4 C3 1.392 . S
C4 C5 1.368 . S
C4 H32 0.929 . S
C5 C4 1.368 . S
C5 C6 1.393 . S
C5 H33 0.929 . S
C6 C5 1.393 . S
C6 C7 1.366 1_554 S
C7 C6 1.366 1_556 S
C7 C8 1.409 . S
C7 H34 0.931 . S
C8 C3 1.356 1_556 S
C8 C7 1.409 . S
C8 H35 0.930 . S
C9 O22 1.270 1_455 S
C9 O23 1.248 . S
C10 O24 1.268 . S
C10 O25 1.278 1_655 S
C11 Pr1 2.878 1_554 S
C11 C12 1.492 . S
C11 O26 1.261 . S
C11 O27 1.217 1_554 S
C12 C11 1.492 . S
C12 C13 1.392 1_554 S
C12 C17 1.356 . S
C13 C12 1.392 1_556 S
C13 C14 1.368 . S
C13 H36 0.929 . S
C14 C13 1.368 . S
C14 C15 1.386 1_556 S
C14 H37 0.929 . S
C15 C14 1.386 1_554 S
C15 C16 1.373 . S
C16 C15 1.373 . S
C16 C17 1.409 . S
C16 H38 0.931 . S
C17 C12 1.356 . S
C17 C16 1.409 . S
C17 H39 0.930 . S
C18 O28 1.270 1_655 S
C18 O29 1.248 1_545 S
C19 O30 1.267 1_556 S
C19 O31 1.278 1_455 S
O20 Pr0 2.562 1_556 S
O20 C2 1.254 1_556 S
O21 Pr0 2.490 . S
O21 C2 1.225 . S
O22 Pr0 2.695 1_655 S
O22 Pr1 2.436 1_544 S
O22 C9 1.270 1_655 S
O23 Pr0 2.512 . S
O23 C9 1.248 . S
O24 Pr1 2.438 1_544 S
O24 C10 1.268 . S
O25 Pr0 2.437 . S
O25 C10 1.278 1_455 S
O26 Pr1 2.562 1_554 S
O26 C11 1.261 . S
O27 Pr1 2.490 . S
O27 C11 1.217 1_556 S
O28 Pr0 2.436 1_556 S
O28 Pr1 2.695 1_445 S
O28 C18 1.270 1_455 S
O29 Pr1 2.512 . S
O29 C18 1.248 1_565 S
O30 Pr0 2.438 1_565 S
O30 C19 1.267 1_554 S
O31 Pr1 2.437 . S
O31 C19 1.278 1_655 S
H32 C4 0.929 . S
H33 C5 0.929 . S
H34 C7 0.931 . S
H35 C8 0.930 . S
H36 C13 0.929 . S
H37 C14 0.929 . S
H38 C16 0.931 . S
H39 C17 0.930 . S
Pr40 C42 2.880 . S
Pr40 O60 2.562 . S
Pr40 O61 2.490 . S
Pr40 O62 2.695 . S
Pr40 O63 2.512 . S
Pr40 O65 2.437 1_455 S
Pr40 O68 2.436 . S
Pr40 O70 2.438 . S
Pr41 C51 2.880 1_655 S
Pr41 O62 2.436 1_665 S
Pr41 O64 2.438 . S
Pr41 O66 2.562 1_655 S
Pr41 O67 2.490 1_655 S
Pr41 O68 2.695 1_665 S
Pr41 O69 2.512 . S
Pr41 O71 2.437 1_655 S
C42 Pr40 2.880 . S
C42 C43 1.491 1_455 S
C42 O60 1.254 . S
C42 O61 1.225 . S
C43 C42 1.491 1_655 S
C43 C44 1.392 1_655 S
C43 C48 1.356 . S
C44 C43 1.392 1_455 S
C44 C45 1.369 1_455 S
C44 H72 0.929 . S
C45 C44 1.369 1_655 S
C45 C46 1.386 . S
C45 H73 0.929 . S
C46 C45 1.386 . S
C46 C47 1.373 . S
C47 C46 1.373 . S
C47 C48 1.409 . S
C47 H74 0.931 . S
C48 C43 1.356 . S
C48 C47 1.409 . S
C48 H75 0.930 . S
C49 O62 1.270 . S
C49 O63 1.248 . S
C50 O64 1.267 1_545 S
C50 O65 1.278 . S
C51 Pr41 2.880 1_455 S
C51 C52 1.491 . S
C51 O66 1.254 . S
C51 O67 1.225 . S
C52 C51 1.491 . S
C52 C53 1.392 . S
C52 C57 1.356 . S
C53 C52 1.392 . S
C53 C54 1.368 . S
C53 H76 0.929 . S
C54 C53 1.368 . S
C54 C55 1.386 . S
C54 H77 0.929 . S
C55 C54 1.386 . S
C55 C56 1.373 . S
C56 C55 1.373 . S
C56 C57 1.409 . S
C56 H78 0.931 . S
C57 C52 1.356 . S
C57 C56 1.409 . S
C57 H79 0.930 . S
C58 O68 1.270 . S
C58 O69 1.248 1_445 S
C59 O70 1.267 . S
C59 O71 1.278 1_545 S
O60 Pr40 2.562 . S
O60 C42 1.254 . S
O61 Pr40 2.490 . S
O61 C42 1.225 . S
O62 Pr40 2.695 . S
O62 Pr41 2.436 1_445 S
O62 C49 1.270 . S
O63 Pr40 2.512 . S
O63 C49 1.248 . S
O64 Pr41 2.438 . S
O64 C50 1.267 1_565 S
O65 Pr40 2.437 1_655 S
O65 C50 1.278 . S
O66 Pr41 2.562 1_455 S
O66 C51 1.254 . S
O67 Pr41 2.490 1_455 S
O67 C51 1.225 . S
O68 Pr40 2.436 . S
O68 Pr41 2.695 1_445 S
O68 C58 1.270 . S
O69 Pr41 2.512 . S
O69 C58 1.248 1_665 S
O70 Pr40 2.438 . S
O70 C59 1.267 . S
O71 Pr41 2.437 1_455 S
O71 C59 1.278 1_565 S
H72 C44 0.929 . S
H73 C45 0.929 . S
H74 C47 0.931 . S
H75 C48 0.930 . S
H76 C53 0.929 . S
H77 C54 0.929 . S
H78 C56 0.931 . S
H79 C57 0.930 . S
Pr80 C82 2.880 1_455 S
Pr80 O100 2.562 1_455 S
Pr80 O101 2.490 1_455 S
Pr80 O102 2.695 1_565 S
Pr80 O103 2.512 . S
Pr80 O105 2.437 1_455 S
Pr80 O108 2.436 . S
Pr80 O110 2.438 . S
Pr81 C91 2.880 . S
Pr81 O102 2.436 . S
Pr81 O104 2.438 1_455 S
Pr81 O106 2.562 . S
Pr81 O107 2.490 . S
Pr81 O108 2.695 1_545 S
Pr81 O109 2.512 . S
Pr81 O111 2.437 . S
C82 Pr80 2.880 1_655 S
C82 C83 1.491 . S
C82 O100 1.254 . S
C82 O101 1.225 . S
C83 C82 1.491 . S
C83 C84 1.392 . S
C83 C88 1.356 . S
C84 C83 1.392 . S
C84 C85 1.368 . S
C84 H112 0.929 . S
C85 C84 1.368 . S
C85 C86 1.386 . S
C85 H113 0.929 . S
C86 C85 1.386 . S
C86 C87 1.373 . S
C87 C86 1.373 . S
C87 C88 1.409 . S
C87 H114 0.931 . S
C88 C83 1.356 . S
C88 C87 1.409 . S
C88 H115 0.930 . S
C89 O102 1.270 1_565 S
C89 O103 1.248 . S
C90 O104 1.267 . S
C90 O105 1.278 1_545 S
C91 Pr81 2.880 . S
C91 C92 1.491 . S
C91 O106 1.254 . S
C91 O107 1.225 . S
C92 C91 1.491 . S
C92 C93 1.392 . S
C92 C97 1.356 . S
C93 C92 1.392 . S
C93 C94 1.368 . S
C93 H116 0.929 . S
C94 C93 1.368 . S
C94 C95 1.386 . S
C94 H117 0.929 . S
C95 C94 1.386 . S
C95 C96 1.373 . S
C96 C95 1.373 . S
C96 C97 1.409 . S
C96 H118 0.931 . S
C97 C92 1.356 . S
C97 C96 1.409 . S
C97 H119 0.930 . S
C98 O108 1.270 1_545 S
C98 O109 1.248 . S
C99 O110 1.267 1_545 S
C99 O111 1.278 . S
O100 Pr80 2.562 1_655 S
O100 C82 1.254 . S
O101 Pr80 2.490 1_655 S
O101 C82 1.225 . S
O102 Pr80 2.695 1_545 S
O102 Pr81 2.436 . S
O102 C89 1.270 1_545 S
O103 Pr80 2.512 . S
O103 C89 1.248 . S
O104 Pr81 2.438 1_655 S
O104 C90 1.267 . S
O105 Pr80 2.437 1_655 S
O105 C90 1.278 1_565 S
O106 Pr81 2.562 . S
O106 C91 1.254 . S
O107 Pr81 2.490 . S
O107 C91 1.225 . S
O108 Pr80 2.436 . S
O108 Pr81 2.695 1_565 S
O108 C98 1.270 1_565 S
O109 Pr81 2.512 . S
O109 C98 1.248 . S
O110 Pr80 2.438 . S
O110 C99 1.267 1_565 S
O111 Pr81 2.437 . S
O111 C99 1.278 . S
H112 C84 0.929 . S
H113 C85 0.929 . S
H114 C87 0.931 . S
H115 C88 0.930 . S
H116 C93 0.929 . S
H117 C94 0.929 . S
H118 C96 0.931 . S
H119 C97 0.930 . S
H120 C132 0.930 . S
H121 C134 0.930 . S
H122 C135 0.930 . S
H123 C139 0.959 . S
H124 C139 0.959 . S
H125 C139 0.961 . S
H126 C140 0.960 . S
H127 C140 0.961 . S
H128 C140 0.959 . S
H129 C143 0.929 . S
H130 C144 0.931 . S
H131 C146 0.930 . S
C132 H120 0.930 . S
C132 C133 1.399 1_456 S
C132 C137 1.399 . S
C133 C132 1.399 1_654 S
C133 C134 1.376 . S
C134 H121 0.930 . S
C134 C133 1.376 . S
C134 C135 1.388 . S
C135 H122 0.930 . S
C135 C134 1.388 . S
C135 C136 1.390 . S
C136 C135 1.390 . S
C136 C137 1.394 1_654 S
C136 C142 1.465 . S
C137 C132 1.399 . S
C137 C136 1.394 1_456 S
C137 C138 1.516 . S
C138 C137 1.516 . S
C138 C139 1.502 . S
C138 C140 1.561 1_455 S
C138 C141 1.526 . S
C139 H123 0.959 . S
C139 H124 0.959 . S
C139 H125 0.961 . S
C139 C138 1.502 . S
C140 H126 0.960 . S
C140 H127 0.961 . S
C140 H128 0.959 . S
C140 C138 1.561 1_655 S
C141 C138 1.526 . S
C141 C142 1.396 1_456 S
C141 C146 1.390 . S
C142 C136 1.465 . S
C142 C141 1.396 1_654 S
C142 C143 1.399 . S
C143 H129 0.929 . S
C143 C142 1.399 . S
C143 C144 1.385 . S
C144 H130 0.931 . S
C144 C143 1.385 . S
C144 C145 1.389 1_655 S
C145 C144 1.389 1_455 S
C145 C146 1.387 1_554 S
C146 H131 0.930 . S
C146 C141 1.390 . S
C146 C145 1.387 1_556 S
H147 C159 0.930 . S
H148 C161 0.930 . S
H149 C162 0.930 . S
H150 C166 0.959 . S
H151 C166 0.959 . S
H152 C166 0.961 . S
H153 C167 0.960 . S
H154 C167 0.961 . S
H155 C167 0.959 . S
H156 C170 0.929 . S
H157 C171 0.931 . S
H158 C173 0.930 . S
C159 H147 0.930 . S
C159 C160 1.399 1_565 S
C159 C164 1.399 1_565 S
C160 C159 1.399 1_545 S
C160 C161 1.376 . S
C161 H148 0.930 . S
C161 C160 1.376 . S
C161 C162 1.388 . S
C162 H149 0.930 . S
C162 C161 1.388 . S
C162 C163 1.390 . S
C163 C162 1.390 . S
C163 C164 1.394 . S
C163 C169 1.465 . S
C164 C159 1.399 1_545 S
C164 C163 1.394 . S
C164 C165 1.516 1_545 S
C165 C164 1.516 1_565 S
C165 C166 1.502 . S
C165 C167 1.561 1_565 S
C165 C168 1.526 1_565 S
C166 H150 0.959 . S
C166 H151 0.959 . S
C166 H152 0.961 . S
C166 C165 1.502 . S
C167 H153 0.960 . S
C167 H154 0.961 . S
C167 H155 0.959 . S
C167 C165 1.561 1_545 S
C168 C165 1.526 1_545 S
C168 C169 1.396 . S
C168 C173 1.390 . S
C169 C163 1.465 . S
C169 C168 1.396 . S
C169 C170 1.399 . S
C170 H156 0.929 . S
C170 C169 1.399 . S
C170 C171 1.385 . S
C171 H157 0.931 . S
C171 C170 1.385 . S
C171 C172 1.389 . S
C172 C171 1.389 . S
C172 C173 1.387 . S
C173 H158 0.930 . S
C173 C168 1.390 . S
C173 C172 1.387 . S
H174 C186 0.930 . S
H175 C188 0.930 . S
H176 C189 0.930 . S
H177 C193 0.959 . S
H178 C193 0.959 . S
H179 C193 0.961 . S
H180 C194 0.960 . S
H181 C194 0.961 . S
H182 C194 0.959 . S
H183 C197 0.929 . S
H184 C198 0.931 . S
H185 C200 0.930 . S
C186 H174 0.930 . S
C186 C187 1.399 . S
C186 C191 1.399 . S
C187 C186 1.399 . S
C187 C188 1.376 . S
C188 H175 0.930 . S
C188 C187 1.376 . S
C188 C189 1.388 . S
C189 H176 0.930 . S
C189 C188 1.388 . S
C189 C190 1.390 . S
C190 C189 1.390 . S
C190 C191 1.394 . S
C190 C196 1.465 . S
C191 C186 1.399 . S
C191 C190 1.394 . S
C191 C192 1.516 . S
C192 C191 1.516 . S
C192 C193 1.502 . S
C192 C194 1.561 . S
C192 C195 1.526 . S
C193 H177 0.959 . S
C193 H178 0.959 . S
C193 H179 0.961 . S
C193 C192 1.502 . S
C194 H180 0.960 . S
C194 H181 0.961 . S
C194 H182 0.959 . S
C194 C192 1.561 . S
C195 C192 1.526 . S
C195 C196 1.396 . S
C195 C200 1.390 . S
C196 C190 1.465 . S
C196 C195 1.396 . S
C196 C197 1.399 . S
C197 H183 0.929 . S
C197 C196 1.399 . S
C197 C198 1.385 . S
C198 H184 0.931 . S
C198 C197 1.385 . S
C198 C199 1.389 . S
C199 C198 1.389 . S
C199 C200 1.387 . S
C200 H185 0.930 . S
C200 C195 1.390 . S
C200 C199 1.387 . S
H201 C213 0.930 . S
H202 C215 0.930 . S
H203 C216 0.930 . S
H204 C220 0.959 . S
H205 C220 0.959 . S
H206 C220 0.961 . S
H207 C221 0.960 . S
H208 C221 0.961 . S
H209 C221 0.959 . S
H210 C224 0.929 . S
H211 C225 0.931 1_565 S
H212 C227 0.930 . S
C213 H201 0.930 . S
C213 C214 1.399 . S
C213 C218 1.399 . S
C214 C213 1.399 . S
C214 C215 1.376 1_545 S
C215 H202 0.930 . S
C215 C214 1.376 1_565 S
C215 C216 1.388 . S
C216 H203 0.930 . S
C216 C215 1.388 . S
C216 C217 1.390 . S
C217 C216 1.390 . S
C217 C218 1.394 1_565 S
C217 C223 1.465 . S
C218 C213 1.399 . S
C218 C217 1.394 1_545 S
C218 C219 1.516 . S
C219 C218 1.516 . S
C219 C220 1.502 . S
C219 C221 1.561 1_545 S
C219 C222 1.526 . S
C220 H204 0.959 . S
C220 H205 0.959 . S
C220 H206 0.961 . S
C220 C219 1.502 . S
C221 H207 0.960 . S
C221 H208 0.961 . S
C221 H209 0.959 . S
C221 C219 1.561 1_565 S
C222 C219 1.526 . S
C222 C223 1.396 1_545 S
C222 C227 1.390 . S
C223 C217 1.465 . S
C223 C222 1.396 1_565 S
C223 C224 1.399 . S
C224 H210 0.929 . S
C224 C223 1.399 . S
C224 C225 1.382 1_565 S
C225 H211 0.931 1_545 S
C225 C224 1.382 1_545 S
C225 C226 1.392 . S
C226 C225 1.392 . S
C226 C227 1.387 . S
C227 H212 0.930 . S
C227 C222 1.390 . S
C227 C226 1.387 . S
H228 C240 0.930 . S
H229 C242 0.930 . S
H230 C243 0.930 . S
H231 C247 0.959 1_554 S
H232 C247 0.959 . S
H233 C247 0.961 . S
H234 C248 0.960 . S
H235 C248 0.961 . S
H236 C248 0.959 . S
H237 C251 0.929 . S
H238 C252 0.931 . S
H239 C254 0.930 . S
C240 H228 0.930 . S
C240 C241 1.399 1_556 S
C240 C245 1.399 . S
C241 C240 1.399 1_554 S
C241 C242 1.376 . S
C242 H229 0.930 . S
C242 C241 1.376 . S
C242 C243 1.388 . S
C243 H230 0.930 . S
C243 C242 1.388 . S
C243 C244 1.390 . S
C244 C243 1.390 . S
C244 C245 1.394 1_554 S
C244 C250 1.465 . S
C245 C240 1.399 . S
C245 C244 1.394 1_556 S
C245 C246 1.516 . S
C246 C245 1.516 . S
C246 C247 1.502 . S
C246 C248 1.561 . S
C246 C249 1.526 . S
C247 H231 0.959 1_556 S
C247 H232 0.959 . S
C247 H233 0.961 . S
C247 C246 1.502 . S
C248 H234 0.960 . S
C248 H235 0.961 . S
C248 H236 0.959 . S
C248 C246 1.561 . S
C249 C246 1.526 . S
C249 C250 1.396 1_556 S
C249 C254 1.390 . S
C250 C244 1.465 . S
C250 C249 1.396 1_554 S
C250 C251 1.399 . S
C251 H237 0.929 . S
C251 C250 1.399 . S
C251 C252 1.385 . S
C252 H238 0.931 . S
C252 C251 1.385 . S
C252 C253 1.389 . S
C253 C252 1.389 . S
C253 C254 1.387 1_554 S
C254 H239 0.930 . S
C254 C249 1.390 . S
C254 C253 1.387 1_556 S
H255 C267 0.930 . S
H256 C269 0.930 . S
H257 C270 0.930 1_455 S
H258 C274 0.959 . S
H259 C274 0.959 1_455 S
H260 C274 0.961 . S
H261 C275 0.960 . S
H262 C275 0.961 . S
H263 C275 0.959 . S
H264 C278 0.929 . S
H265 C279 0.931 . S
H266 C281 0.930 . S
C267 H255 0.930 . S
C267 C268 1.399 . S
C267 C272 1.399 . S
C268 C267 1.399 . S
C268 C269 1.376 . S
C269 H256 0.930 . S
C269 C268 1.376 . S
C269 C270 1.388 . S
C270 H257 0.930 1_655 S
C270 C269 1.388 . S
C270 C271 1.390 1_655 S
C271 C270 1.390 1_455 S
C271 C272 1.394 1_455 S
C271 C277 1.465 . S
C272 C267 1.399 . S
C272 C271 1.394 1_655 S
C272 C273 1.516 1_655 S
C273 C272 1.516 1_455 S
C273 C274 1.502 1_455 S
C273 C275 1.561 . S
C273 C276 1.526 . S
C274 H258 0.959 . S
C274 H259 0.959 1_655 S
C274 H260 0.961 . S
C274 C273 1.502 1_655 S
C275 H261 0.960 . S
C275 H262 0.961 . S
C275 H263 0.959 . S
C275 C273 1.561 . S
C276 C273 1.526 . S
C276 C277 1.396 . S
C276 C281 1.390 . S
C277 C271 1.465 . S
C277 C276 1.396 . S
C277 C278 1.399 . S
C278 H264 0.929 . S
C278 C277 1.399 . S
C278 C279 1.385 . S
C279 H265 0.931 . S
C279 C278 1.385 . S
C279 C280 1.389 . S
C280 C279 1.389 . S
C280 C281 1.387 . S
C281 H266 0.930 . S
C281 C276 1.390 . S
C281 C280 1.387 . S
H282 C294 0.930 . S
H283 C296 0.930 . S
H284 C297 0.930 . S
H285 C301 0.959 . S
H286 C301 0.959 . S
H287 C301 0.961 . S
H288 C302 0.960 . S
H289 C302 0.961 . S
H290 C302 0.959 . S
H291 C305 0.929 . S
H292 C306 0.931 1_655 S
H293 C308 0.930 . S
C294 H282 0.930 . S
C294 C295 1.399 . S
C294 C299 1.399 . S
C295 C294 1.399 . S
C295 C296 1.376 1_545 S
C296 H283 0.930 . S
C296 C295 1.376 1_565 S
C296 C297 1.388 . S
C297 H284 0.930 . S
C297 C296 1.388 . S
C297 C298 1.390 . S
C298 C297 1.390 . S
C298 C299 1.394 1_565 S
C298 C304 1.465 . S
C299 C294 1.399 . S
C299 C298 1.394 1_545 S
C299 C300 1.516 . S
C300 C299 1.516 . S
C300 C301 1.502 1_455 S
C300 C302 1.561 . S
C300 C303 1.526 . S
C301 H285 0.959 . S
C301 H286 0.959 . S
C301 H287 0.961 . S
C301 C300 1.502 1_655 S
C302 H288 0.960 . S
C302 H289 0.961 . S
C302 H290 0.959 . S
C302 C300 1.561 . S
C303 C300 1.526 . S
C303 C304 1.396 1_545 S
C303 C308 1.390 . S
C304 C298 1.465 . S
C304 C303 1.396 1_565 S
C304 C305 1.399 . S
C305 H291 0.929 . S
C305 C304 1.399 . S
C305 C306 1.385 . S
C306 H292 0.931 1_455 S
C306 C305 1.385 . S
C306 C307 1.389 1_565 S
C307 C306 1.389 1_545 S
C307 C308 1.387 . S
C308 H293 0.930 . S
C308 C303 1.390 . S
C308 C307 1.387 . S
H309 C321 0.930 1_655 S
H310 C323 0.930 . S
H311 C324 0.930 . S
H312 C328 0.959 . S
H313 C328 0.959 . S
H314 C328 0.961 . S
H315 C329 0.958 1_655 S
H316 C329 0.961 1_655 S
H317 C329 0.959 . S
H318 C332 0.929 . S
H319 C333 0.931 . S
H320 C335 0.930 1_655 S
C321 H309 0.930 1_455 S
C321 C322 1.399 1_565 S
C321 C326 1.399 . S
C322 C321 1.399 1_545 S
C322 C323 1.376 . S
C323 H310 0.930 . S
C323 C322 1.376 . S
C323 C324 1.388 . S
C324 H311 0.930 . S
C324 C323 1.388 . S
C324 C325 1.390 . S
C325 C324 1.390 . S
C325 C326 1.394 1_545 S
C325 C331 1.465 . S
C326 C321 1.399 . S
C326 C325 1.394 1_565 S
C326 C327 1.516 1_455 S
C327 C326 1.516 1_655 S
C327 C328 1.502 . S
C327 C329 1.561 1_655 S
C327 C330 1.526 1_655 S
C328 H312 0.959 . S
C328 H313 0.959 . S
C328 H314 0.961 . S
C328 C327 1.502 . S
C329 H315 0.958 1_455 S
C329 H316 0.961 1_455 S
C329 H317 0.959 . S
C329 C327 1.561 1_455 S
C330 C327 1.526 1_455 S
C330 C331 1.396 1_565 S
C330 C335 1.390 . S
C331 C325 1.465 . S
C331 C330 1.396 1_545 S
C331 C332 1.399 . S
C332 H318 0.929 . S
C332 C331 1.399 . S
C332 C333 1.385 . S
C333 H319 0.931 . S
C333 C332 1.385 . S
C333 C334 1.389 . S
C334 C333 1.389 . S
C334 C335 1.387 1_545 S
C335 H320 0.930 1_455 S
C335 C330 1.390 . S
C335 C334 1.387 1_565 S
H336 C348 0.930 . S
H337 C350 0.930 . S
H338 C351 0.930 . S
H339 C355 0.959 . S
H340 C355 0.959 . S
H341 C355 0.961 . S
H342 C356 0.960 . S
H343 C356 0.961 . S
H344 C356 0.959 1_455 S
H345 C359 0.929 . S
H346 C360 0.931 . S
H347 C362 0.930 . S
C348 H336 0.930 . S
C348 C349 1.399 1_665 S
C348 C353 1.399 1_655 S
C349 C348 1.399 1_445 S
C349 C350 1.376 . S
C350 H337 0.930 . S
C350 C349 1.376 . S
C350 C351 1.388 . S
C351 H338 0.930 . S
C351 C350 1.388 . S
C351 C352 1.390 . S
C352 C351 1.390 . S
C352 C353 1.394 1_545 S
C352 C358 1.465 . S
C353 C348 1.399 1_455 S
C353 C352 1.394 1_565 S
C353 C354 1.516 1_455 S
C354 C353 1.516 1_655 S
C354 C355 1.502 . S
C354 C356 1.561 . S
C354 C357 1.526 . S
C355 H339 0.959 . S
C355 H340 0.959 . S
C355 H341 0.961 . S
C355 C354 1.502 . S
C356 H342 0.960 . S
C356 H343 0.961 . S
C356 H344 0.959 1_655 S
C356 C354 1.561 . S
C357 C354 1.526 . S
C357 C358 1.396 1_665 S
C357 C362 1.390 . S
C358 C352 1.465 . S
C358 C357 1.396 1_445 S
C358 C359 1.399 . S
C359 H345 0.929 . S
C359 C358 1.399 . S
C359 C360 1.385 . S
C360 H346 0.931 . S
C360 C359 1.385 . S
C360 C361 1.389 . S
C361 C360 1.389 . S
C361 C362 1.387 1_445 S
C362 H347 0.930 . S
C362 C357 1.390 . S
C362 C361 1.387 1_665 S
C133 C10 4.866 . S
C145 C19 4.872 1_554 S
C160 C59 3.028 . S
C172 C50 3.036 . S
C187 C86 0.550 . S
C199 C95 0.583 . S
C214 C90 2.983 . S
C226 C99 2.964 . S
C241 C15 0.624 . S
C253 C6 0.693 . S
C268 C46 0.749 . S
C280 C55 0.872 . S
C295 C58 1.421 . S
C307 C9 1.438 . S
C322 C49 1.432 . S
C334 C89 1.486 1_545 S
C349 C98 1.430 . S
C361 C18 1.490 1_455 S
