# Generated by pormake.
# Topology atn, (4)-cn, num edge types: 1
# Building blocks:
#     Node 0, Type 0, BuildingBlock: AZAVOO_clean_sbu_0, # of connection points: 4
#     Node 1, Type 0, BuildingBlock: AZAVOO_clean_sbu_0, # of connection points: 4
#     Node 2, Type 0, BuildingBlock: AZAVOO_clean_sbu_0, # of connection points: 4
#     Node 3, Type 0, BuildingBlock: AZAVOO_clean_sbu_0, # of connection points: 4
#     Node 4, Type 0, BuildingBlock: AZAVOO_clean_sbu_0, # of connection points: 4
#     Node 5, Type 0, BuildingBlock: AZAVOO_clean_sbu_0, # of connection points: 4
#     Node 6, Type 0, BuildingBlock: AZAVOO_clean_sbu_0, # of connection points: 4
#     Node 7, Type 0, BuildingBlock: AZAVOO_clean_sbu_0, # of connection points: 4
#     Node 8, Type 0, BuildingBlock: AZAVOO_clean_sbu_0, # of connection points: 4
#     Node 9, Type 0, BuildingBlock: AZAVOO_clean_sbu_0, # of connection points: 4
#     Node 10, Type 0, BuildingBlock: AZAVOO_clean_sbu_0, # of connection points: 4
#     Node 11, Type 0, BuildingBlock: AZAVOO_clean_sbu_0, # of connection points: 4
#     Node 12, Type 0, BuildingBlock: AZAVOO_clean_sbu_0, # of connection points: 4
#     Node 13, Type 0, BuildingBlock: AZAVOO_clean_sbu_0, # of connection points: 4
#     Node 14, Type 0, BuildingBlock: AZAVOO_clean_sbu_0, # of connection points: 4
#     Node 15, Type 0, BuildingBlock: AZAVOO_clean_sbu_0, # of connection points: 4
#     Edge 16, Type (0, 0), BuildingBlock: TEMPAE_clean_linker_10, # of connection points: 2
#     Edge 17, Type (0, 0), BuildingBlock: TEMPAE_clean_linker_10, # of connection points: 2
#     Edge 18, Type (0, 0), BuildingBlock: TEMPAE_clean_linker_10, # of connection points: 2
#     Edge 19, Type (0, 0), BuildingBlock: TEMPAE_clean_linker_10, # of connection points: 2
#     Edge 20, Type (0, 0), BuildingBlock: TEMPAE_clean_linker_10, # of connection points: 2
#     Edge 21, Type (0, 0), BuildingBlock: TEMPAE_clean_linker_10, # of connection points: 2
#     Edge 22, Type (0, 0), BuildingBlock: TEMPAE_clean_linker_10, # of connection points: 2
#     Edge 23, Type (0, 0), BuildingBlock: TEMPAE_clean_linker_10, # of connection points: 2
#     Edge 24, Type (0, 0), BuildingBlock: TEMPAE_clean_linker_10, # of connection points: 2
#     Edge 25, Type (0, 0), BuildingBlock: TEMPAE_clean_linker_10, # of connection points: 2
#     Edge 26, Type (0, 0), BuildingBlock: TEMPAE_clean_linker_10, # of connection points: 2
#     Edge 27, Type (0, 0), BuildingBlock: TEMPAE_clean_linker_10, # of connection points: 2
#     Edge 28, Type (0, 0), BuildingBlock: TEMPAE_clean_linker_10, # of connection points: 2
#     Edge 29, Type (0, 0), BuildingBlock: TEMPAE_clean_linker_10, # of connection points: 2
#     Edge 30, Type (0, 0), BuildingBlock: TEMPAE_clean_linker_10, # of connection points: 2
#     Edge 31, Type (0, 0), BuildingBlock: TEMPAE_clean_linker_10, # of connection points: 2
#     Edge 32, Type (0, 0), BuildingBlock: TEMPAE_clean_linker_10, # of connection points: 2
#     Edge 33, Type (0, 0), BuildingBlock: TEMPAE_clean_linker_10, # of connection points: 2
#     Edge 34, Type (0, 0), BuildingBlock: TEMPAE_clean_linker_10, # of connection points: 2
#     Edge 35, Type (0, 0), BuildingBlock: TEMPAE_clean_linker_10, # of connection points: 2
#     Edge 36, Type (0, 0), BuildingBlock: TEMPAE_clean_linker_10, # of connection points: 2
#     Edge 37, Type (0, 0), BuildingBlock: TEMPAE_clean_linker_10, # of connection points: 2
#     Edge 38, Type (0, 0), BuildingBlock: TEMPAE_clean_linker_10, # of connection points: 2
#     Edge 39, Type (0, 0), BuildingBlock: TEMPAE_clean_linker_10, # of connection points: 2
#     Edge 40, Type (0, 0), BuildingBlock: TEMPAE_clean_linker_10, # of connection points: 2
#     Edge 41, Type (0, 0), BuildingBlock: TEMPAE_clean_linker_10, # of connection points: 2
#     Edge 42, Type (0, 0), BuildingBlock: TEMPAE_clean_linker_10, # of connection points: 2
#     Edge 43, Type (0, 0), BuildingBlock: TEMPAE_clean_linker_10, # of connection points: 2
#     Edge 44, Type (0, 0), BuildingBlock: TEMPAE_clean_linker_10, # of connection points: 2
#     Edge 45, Type (0, 0), BuildingBlock: TEMPAE_clean_linker_10, # of connection points: 2
#     Edge 46, Type (0, 0), BuildingBlock: TEMPAE_clean_linker_10, # of connection points: 2
#     Edge 47, Type (0, 0), BuildingBlock: TEMPAE_clean_linker_10, # of connection points: 2
# Relax obj value: 0.125
# Max RMSD: 0.132
# Mean RMSD: 0.132
data_MOF--net-atn--node1-AZAVOO_clean_sbu_0--edge1-TEMPAE_clean_linker_10
_symmetry_space_group_name_H-M    P1
_symmetry_Int_Tables_number       1
_symmetry_cell_setting            triclinic
loop_
_symmetry_equiv_pos_as_xyz
'x, y, z'
_cell_length_a     61.350917
_cell_length_b     61.471589
_cell_length_c     26.741145
_cell_angle_alpha  90.000816
_cell_angle_beta   90.027214
_cell_angle_gamma 90.001954
loop_
_atom_site_label
_atom_site_type_symbol
_atom_site_fract_x
_atom_site_fract_y
_atom_site_fract_z
_atom_type_partial_charge
Mg0 Mg 0.16633 0.37927 0.01113 0.0
O1 O 0.19772 0.36113 0.99165 0.0
O2 O 0.20437 0.36239 0.90961 0.0
Mg3 Mg 0.17752 0.38373 0.87653 0.0
C4 C 0.20924 0.35609 0.95368 0.0
C5 C 0.17803 0.35562 0.10748 0.0
O6 O 0.17875 0.34042 0.07302 0.0
O7 O 0.18475 0.41134 0.00426 0.0
O8 O 0.191 0.41241 0.92175 0.0
O9 O 0.14791 0.34918 0.99392 0.0
O10 O 0.15558 0.37484 0.93832 0.0
C11 C 0.19279 0.42055 0.96553 0.0
C12 C 0.14822 0.35568 0.94791 0.0
O13 O 0.17384 0.37507 0.09428 0.0
Mg14 Mg 0.60271 0.20181 0.95839 0.0
O15 O 0.62078 0.23428 0.95687 0.0
O16 O 0.61678 0.2492 0.88121 0.0
Mg17 Mg 0.59552 0.22635 0.83471 0.0
C18 C 0.62445 0.24954 0.9256 0.0
C19 C 0.60907 0.18001 0.05775 0.0
O20 O 0.60656 0.16413 0.02535 0.0
O21 O 0.57028 0.21942 0.96412 0.0
O22 O 0.56656 0.23299 0.88692 0.0
O23 O 0.63252 0.18589 0.92971 0.0
O24 O 0.60607 0.19904 0.88184 0.0
C25 C 0.55947 0.23004 0.93134 0.0
C26 C 0.62513 0.19042 0.88556 0.0
O27 O 0.60726 0.1995 0.04243 0.0
Mg28 Mg 0.82839 0.61715 -0.00345 0.0
O29 O 0.79426 0.63097 0.98295 0.0
O30 O 0.78635 0.62862 0.9015 0.0
Mg31 Mg 0.81519 0.61199 0.86345 0.0
C32 C 0.78141 0.63415 0.94609 0.0
C33 C 0.84021 0.61862 0.10659 0.0
O34 O 0.85895 0.61549 0.08393 0.0
O35 O 0.81486 0.58281 0.98972 0.0
O36 O 0.80738 0.58106 0.90787 0.0
O37 O 0.84173 0.64985 0.97966 0.0
O38 O 0.83664 0.62386 0.92329 0.0
C39 C 0.80775 0.57256 0.95146 0.0
C40 C 0.84147 0.64377 0.93332 0.0
O41 O 0.82292 0.61878 0.08045 0.0
Mg42 Mg 0.38518 0.80198 0.96816 0.0
O43 O 0.36708 0.76956 0.96422 0.0
O44 O 0.36942 0.75644 0.88647 0.0
Mg45 Mg 0.38993 0.78033 0.84101 0.0
C46 C 0.36271 0.75506 0.93154 0.0
C47 C 0.38038 0.82092 0.07164 0.0
O48 O 0.38268 0.83787 0.04213 0.0
O49 O 0.41764 0.78407 0.96877 0.0
O50 O 0.4195 0.77196 0.88993 0.0
O51 O 0.35477 0.81837 0.94406 0.0
O52 O 0.38046 0.80655 0.89236 0.0
C53 C 0.42752 0.77385 0.93384 0.0
C54 C 0.36138 0.81479 0.89884 0.0
O55 O 0.38191 0.80202 0.05273 0.0
Mg56 Mg 0.20525 0.62052 0.01611 0.0
O57 O 0.23781 0.63792 0.00791 0.0
O58 O 0.26023 0.6264 0.06811 0.0
Mg59 Mg 0.24139 0.60237 0.11706 0.0
C60 C 0.25627 0.63816 0.02982 0.0
C61 C 0.19081 0.65167 0.93085 0.0
O62 O 0.19285 0.66549 0.96803 0.0
O63 O 0.21957 0.58887 0.98716 0.0
O64 O 0.23927 0.57774 0.05279 0.0
O65 O 0.19346 0.64651 0.06734 0.0
O66 O 0.21038 0.61666 0.0921 0.0
C67 C 0.23151 0.57471 0.00897 0.0
C68 C 0.20145 0.63492 0.10339 0.0
O69 O 0.1953 0.63173 0.93824 0.0
Mg70 Mg 0.36125 0.21236 0.02751 0.0
O71 O 0.33977 0.24215 0.01497 0.0
O72 O 0.34901 0.26717 0.07175 0.0
Mg73 Mg 0.37525 0.25284 0.12278 0.0
C74 C 0.3376 0.26097 0.03445 0.0
C75 C 0.34674 0.17865 0.94955 0.0
O76 O 0.3468 0.16725 0.99111 0.0
O77 O 0.39069 0.22987 -0.00438 0.0
O78 O 0.3997 0.25247 0.05786 0.0
O79 O 0.33694 0.19876 0.08079 0.0
O80 O 0.36448 0.21993 0.10246 0.0
C81 C 0.40333 0.24409 0.01492 0.0
C82 C 0.3475 0.20907 0.11545 0.0
O83 O 0.35179 0.19869 0.95149 0.0
Mg84 Mg 0.79338 0.36745 0.01524 0.0
O85 O 0.75881 0.35481 0.00265 0.0
O86 O 0.73753 0.36803 0.06322 0.0
Mg87 Mg 0.75857 0.38873 0.11523 0.0
C88 C 0.74026 0.35661 0.02384 0.0
C89 C 0.82166 0.34618 0.93545 0.0
O90 O 0.8325 0.34271 0.9771 0.0
O91 O 0.78398 0.40116 0.9881 0.0
O92 O 0.76445 0.41362 0.05271 0.0
O93 O 0.80046 0.33907 0.0641 0.0
O94 O 0.78748 0.37051 0.09101 0.0
C95 C 0.77329 0.41627 0.00987 0.0
C96 C 0.79346 0.35092 0.10079 0.0
O97 O 0.80367 0.35641 0.9376 0.0
Mg98 Mg 0.62728 0.77295 0.01764 0.0
O99 O 0.64703 0.74216 0.00362 0.0
O100 O 0.63675 0.71714 0.05938 0.0
Mg101 Mg 0.61126 0.73244 0.11101 0.0
C102 C 0.64842 0.72312 0.02233 0.0
C103 C 0.64296 0.80644 0.94009 0.0
O104 O 0.64356 0.81774 0.98179 0.0
O105 O 0.59668 0.75766 0.98563 0.0
O106 O 0.5864 0.73521 0.04702 0.0
O107 O 0.65255 0.78464 0.07092 0.0
O108 O 0.62393 0.76491 0.09233 0.0
C109 C 0.5831 0.74428 0.00467 0.0
C110 C 0.64159 0.77464 0.10537 0.0
O111 O 0.63714 0.7866 0.94191 0.0
Mg112 Mg 0.66813 0.87598 0.48959 0.0
O113 O 0.70217 0.86177 0.47746 0.0
O114 O 0.71074 0.86383 0.39635 0.0
Mg115 Mg 0.68235 0.88063 0.35692 0.0
C116 C 0.71529 0.85837 0.44122 0.0
C117 C 0.65552 0.87372 0.59896 0.0
O118 O 0.63688 0.87621 0.57539 0.0
O119 O 0.68211 0.91018 0.48291 0.0
O120 O 0.69016 0.91155 0.40129 0.0
O121 O 0.65442 0.84344 0.47232 0.0
O122 O 0.66027 0.86931 0.41607 0.0
C123 C 0.6896 0.92021 0.4447 0.0
C124 C 0.65497 0.84952 0.42599 0.0
O125 O 0.67304 0.87432 0.57369 0.0
Mg126 Mg 0.10835 0.68068 0.49429 0.0
O127 O 0.12685 0.71184 0.47434 0.0
O128 O 0.12331 0.7191 0.39286 0.0
Mg129 Mg 0.10085 0.69296 0.36096 0.0
C130 C 0.13096 0.72354 0.43606 0.0
C131 C 0.13423 0.68972 0.58935 0.0
O132 O 0.1489 0.69083 0.55368 0.0
O133 O 0.07649 0.69973 0.49221 0.0
O134 O 0.07336 0.70638 0.41015 0.0
O135 O 0.13754 0.66166 0.47299 0.0
O136 O 0.11094 0.67053 0.42063 0.0
C137 C 0.06637 0.70804 0.45499 0.0
C138 C 0.13006 0.66245 0.42779 0.0
O139 O 0.11437 0.6868 0.57733 0.0
Mg140 Mg 0.31891 0.10818 0.5001 0.0
O141 O 0.28647 0.12596 0.49084 0.0
O142 O 0.27661 0.12548 0.41039 0.0
Mg143 Mg 0.30252 0.10606 0.36838 0.0
C144 C 0.27331 0.13105 0.45575 0.0
C145 C 0.33283 0.11127 0.60854 0.0
O146 O 0.35124 0.10942 0.58379 0.0
O147 O 0.30141 0.0756 0.49324 0.0
O148 O 0.29229 0.07569 0.41214 0.0
O149 O 0.33558 0.13931 0.4827 0.0
O150 O 0.32652 0.11445 0.42621 0.0
C151 C 0.29251 0.06666 0.45517 0.0
C152 C 0.33387 0.13357 0.4363 0.0
O153 O 0.31503 0.10992 0.58446 0.0
Mg154 Mg 0.88438 0.29765 0.4888 0.0
O155 O 0.86557 0.26595 0.47623 0.0
O156 O 0.86902 0.25635 0.39593 0.0
Mg157 Mg 0.8906 0.28156 0.3577 0.0
C158 C 0.86151 0.25311 0.43982 0.0
C159 C 0.88382 0.31221 0.59627 0.0
O160 O 0.89111 0.32906 0.57104 0.0
O161 O 0.9164 0.27909 0.48745 0.0
O162 O 0.91929 0.27038 0.40642 0.0
O163 O 0.8547 0.31577 0.46694 0.0
O164 O 0.88067 0.30548 0.41426 0.0
C165 C 0.92662 0.27019 0.45116 0.0
C166 C 0.86168 0.31384 0.42147 0.0
O167 O 0.88034 0.29456 0.57287 0.0
Mg168 Mg 0.69515 0.12626 0.4846 0.0
O169 O 0.72947 0.14037 0.47693 0.0
O170 O 0.74884 0.12937 0.54311 0.0
Mg171 Mg 0.72696 0.10879 0.59334 0.0
C172 C 0.74717 0.13986 0.50208 0.0
C173 C 0.66695 0.14059 0.39883 0.0
O174 O 0.65403 0.14014 0.43802 0.0
O175 O 0.70691 0.09247 0.46345 0.0
O176 O 0.72451 0.08239 0.53302 0.0
O177 O 0.68526 0.15543 0.52789 0.0
O178 O 0.69844 0.12524 0.56139 0.0
C179 C 0.71742 0.07839 0.48904 0.0
C180 C 0.69154 0.14483 0.56721 0.0
O181 O 0.6868 0.13519 0.40445 0.0
Mg182 Mg 0.86747 0.71925 0.52564 0.0
O183 O 0.84839 0.75019 0.50925 0.0
O184 O 0.85875 0.7757 0.56374 0.0
Mg185 Mg 0.88357 0.76047 0.6173 0.0
C186 C 0.8472 0.76947 0.52667 0.0
C187 C 0.85168 0.68547 0.4483 0.0
O188 O 0.85048 0.67429 0.4901 0.0
O189 O 0.89856 0.73364 0.49418 0.0
O190 O 0.90896 0.75644 0.55481 0.0
O191 O 0.84167 0.7085 0.57866 0.0
O192 O 0.87048 0.72798 0.59998 0.0
C193 C 0.91236 0.74684 0.51313 0.0
C194 C 0.85262 0.71862 0.61298 0.0
O195 O 0.85791 0.70518 0.45011 0.0
Mg196 Mg 0.28595 0.86382 0.49487 0.0
O197 O 0.25346 0.84663 0.48204 0.0
O198 O 0.23077 0.85671 0.5431 0.0
Mg199 Mg 0.24902 0.87943 0.59626 0.0
C200 C 0.23488 0.84593 0.50342 0.0
C201 C 0.31734 0.84984 0.413 0.0
O202 O 0.32941 0.84996 0.45361 0.0
O203 O 0.27207 0.89628 0.46971 0.0
O204 O 0.25175 0.9057 0.53568 0.0
O205 O 0.29702 0.83623 0.54229 0.0
O206 O 0.28002 0.86541 0.57086 0.0
C207 C 0.25994 0.90986 0.4928 0.0
C208 C 0.28867 0.84674 0.57965 0.0
O209 O 0.29734 0.85503 0.41657 0.0
Mg210 Mg 0.12393 0.27629 0.53557 0.0
O211 O 0.14525 0.24616 0.52722 0.0
O212 O 0.13485 0.22181 0.58442 0.0
Mg213 Mg 0.10795 0.23711 0.63207 0.0
C214 C 0.14696 0.22755 0.54791 0.0
C215 C 0.1533 0.29736 0.45275 0.0
O216 O 0.16682 0.29884 0.49072 0.0
O217 O 0.09482 0.25872 0.50239 0.0
O218 O 0.0844 0.23712 0.56531 0.0
O219 O 0.14736 0.29042 0.59027 0.0
O220 O 0.11927 0.26975 0.61062 0.0
C221 C 0.08158 0.24502 0.52157 0.0
C222 C 0.13607 0.28067 0.62453 0.0
O223 O 0.1348 0.28847 0.45923 0.0
C224 C 0.21656 0.54526 0.95503 0.0
C225 C 0.2328 0.55251 0.98794 0.0
C226 C 0.21332 0.52298 0.94673 0.0
C227 C 0.22694 0.50773 0.97117 0.0
C228 C 0.24494 0.51506 -0.0004 0.0
C229 C 0.24758 0.53742 0.00797 0.0
C230 C 0.19397 0.51581 0.91591 0.0
C231 C 0.26028 0.49929 0.02477 0.0
C232 C 0.19827 0.45586 0.00982 0.0
C233 C 0.2036 0.4419 0.97033 0.0
C234 C 0.20634 0.47718 0.01122 0.0
C235 C 0.22043 0.4845 0.97273 0.0
C236 C 0.2269 0.47007 0.93439 0.0
C237 C 0.21821 0.44898 0.93334 0.0
C238 C 0.19898 0.49217 0.05268 0.0
C239 C 0.24235 0.47711 0.89354 0.0
H240 H 0.20513 0.5568 0.93916 0.0
H241 H 0.26041 0.54295 0.03281 0.0
H242 H 0.19877 0.50294 0.88904 0.0
H243 H 0.18137 0.50881 0.94098 0.0
H244 H 0.18657 0.52951 0.8948 0.0
H245 H 0.2756 0.50736 0.03692 0.0
H246 H 0.25224 0.49229 0.05827 0.0
H247 H 0.26442 0.48562 -0.00059 0.0
H248 H 0.18697 0.45046 0.03842 0.0
H249 H 0.22262 0.43812 0.90304 0.0
H250 H 0.18965 0.50596 0.03662 0.0
H251 H 0.21331 0.49909 0.07235 0.0
H252 H 0.18854 0.48374 0.08054 0.0
H253 H 0.23397 0.48871 0.86823 0.0
H254 H 0.24821 0.46312 0.87092 0.0
H255 H 0.25665 0.48567 0.90964 0.0
C256 C 0.43284 0.23398 0.95512 0.0
C257 C 0.42464 0.24842 0.99107 0.0
C258 C 0.45488 0.23442 0.94155 0.0
C259 C 0.46892 0.24989 0.96396 0.0
C260 C 0.46028 0.26592 -0.00374 0.0
C261 C 0.43822 0.26494 0.00966 0.0
C262 C 0.46349 0.2171 0.90669 0.0
C263 C 0.47465 0.28303 0.01981 0.0
C264 C 0.52624 0.2292 0.98513 0.0
C265 C 0.5372 0.23758 0.9434 0.0
C266 C 0.50415 0.23377 0.99313 0.0
C267 C 0.49285 0.24729 0.95894 0.0
C268 C 0.50412 0.25687 0.91846 0.0
C269 C 0.52616 0.25179 0.91096 0.0
C270 C 0.49265 0.22324 0.03683 0.0
C271 C 0.49269 0.27173 0.88191 0.0
H272 H 0.42245 0.22125 0.94026 0.0
H273 H 0.43193 0.27641 0.03685 0.0
H274 H 0.474 0.22442 0.87748 0.0
H275 H 0.47365 0.20545 0.92819 0.0
H276 H 0.45016 0.2079 0.88813 0.0
H277 H 0.46495 0.29649 0.03637 0.0
H278 H 0.48454 0.27551 0.04994 0.0
H279 H 0.4861 0.28993 0.99192 0.0
H280 H 0.53463 0.21825 0.0104 0.0
H281 H 0.53458 0.25854 0.8789 0.0
H282 H 0.47992 0.21194 0.02284 0.0
H283 H 0.48438 0.23576 0.05987 0.0
H284 H 0.50401 0.21395 0.06117 0.0
H285 H 0.48134 0.26208 0.85843 0.0
H286 H 0.50437 0.28023 0.85688 0.0
H287 H 0.48284 0.28406 0.90205 0.0
C288 C 0.79103 0.4448 0.95761 0.0
C289 C 0.77388 0.43852 0.98908 0.0
C290 C 0.79483 0.46682 0.94708 0.0
C291 C 0.78091 0.4828 0.96787 0.0
C292 C 0.76247 0.47641 -0.00401 0.0
C293 C 0.75925 0.45432 0.00657 0.0
C294 C 0.8147 0.47303 0.91697 0.0
C295 C 0.74695 0.49297 0.01772 0.0
C296 C 0.80633 0.5374 -0.00172 0.0
C297 C 0.8 0.54993 0.957 0.0
C298 C 0.80009 0.51554 0.00231 0.0
C299 C 0.78691 0.50612 0.96456 0.0
C300 C 0.77995 0.51883 0.92352 0.0
C301 C 0.78672 0.54056 0.92003 0.0
C302 C 0.80798 0.50239 0.04649 0.0
C303 C 0.76555 0.50943 0.88311 0.0
H304 H 0.80242 0.43269 0.94401 0.0
H305 H 0.74581 0.44951 0.03045 0.0
H306 H 0.81033 0.48488 0.88734 0.0
H307 H 0.82678 0.48102 0.94181 0.0
H308 H 0.82255 0.45869 0.89923 0.0
H309 H 0.73187 0.48529 0.03242 0.0
H310 H 0.75508 0.50175 0.04882 0.0
H311 H 0.74238 0.50523 0.98914 0.0
H312 H 0.81665 0.54453 0.02685 0.0
H313 H 0.78157 0.55022 0.88824 0.0
H314 H 0.81778 0.48836 0.0332 0.0
H315 H 0.79387 0.49573 0.06742 0.0
H316 H 0.8181 0.51217 0.07261 0.0
H317 H 0.77421 0.49604 0.86366 0.0
H318 H 0.76069 0.5218 0.85495 0.0
H319 H 0.7506 0.50237 0.8999 0.0
C320 C 0.54605 0.72739 0.00144 0.0
C321 C 0.56118 0.74228 0.98195 0.0
C322 C 0.52383 0.72901 0.98973 0.0
C323 C 0.51663 0.74602 0.95819 0.0
C324 C 0.53204 0.75982 0.93481 0.0
C325 C 0.55418 0.75767 0.94669 0.0
C326 C 0.50793 0.71361 0.01429 0.0
C327 C 0.52499 0.77811 0.90072 0.0
C328 C 0.45873 0.74994 0.90949 0.0
C329 C 0.44953 0.76491 0.9431 0.0
C330 C 0.48034 0.74288 0.91501 0.0
C331 C 0.49308 0.75123 0.95464 0.0
C332 C 0.48366 0.76574 0.98969 0.0
C333 C 0.46193 0.77228 0.98368 0.0
C334 C 0.48971 0.72707 0.87755 0.0
C335 C 0.49679 0.77506 0.03243 0.0
H336 H 0.55136 0.71522 0.02814 0.0
H337 H 0.56573 0.76916 0.93112 0.0
H338 H 0.49929 0.72221 0.0449 0.0
H339 H 0.49546 0.70802 0.98713 0.0
H340 H 0.51625 0.69917 0.0304 0.0
H341 H 0.53902 0.78575 0.88117 0.0
H342 H 0.51326 0.77214 0.87232 0.0
H343 H 0.51659 0.7908 0.92306 0.0
H344 H 0.44916 0.74397 0.8783 0.0
H345 H 0.45495 0.78385 0.00975 0.0
H346 H 0.49805 0.71347 0.89703 0.0
H347 H 0.5021 0.73543 0.85425 0.0
H348 H 0.47701 0.72023 0.85245 0.0
H349 H 0.50394 0.76175 0.05512 0.0
H350 H 0.48683 0.78557 0.05733 0.0
H351 H 0.5105 0.78487 0.01744 0.0
C352 C 0.73337 0.04111 0.49285 0.0
C353 C 0.71853 0.05569 0.47114 0.0
C354 C 0.73148 0.01865 0.48494 0.0
C355 C 0.71415 0.01066 0.45528 0.0
C356 C 0.70012 0.02538 0.43033 0.0
C357 C 0.70261 0.04779 0.43821 0.0
C358 C 0.74712 0.00346 0.51103 0.0
C359 C 0.6814 0.01745 0.39848 0.0
C360 C 0.71138 0.95177 0.41392 0.0
C361 C 0.69727 0.94287 0.44982 0.0
C362 C 0.71763 0.97368 0.41606 0.0
C363 C 0.70925 0.98704 0.45451 0.0
C364 C 0.6954 0.97804 0.49151 0.0
C365 C 0.68973 0.95598 0.48898 0.0
C366 C 0.73282 0.98262 0.37668 0.0
C367 C 0.686 0.99188 0.53291 0.0
H368 H 0.74587 0.04718 0.51789 0.0
H369 H 0.69107 0.05896 0.42139 0.0
H370 H 0.73865 0.99524 0.54242 0.0
H371 H 0.75288 0.99063 0.48503 0.0
H372 H 0.7615 0.01222 0.52629 0.0
H373 H 0.67332 0.03092 0.37789 0.0
H374 H 0.68712 0.00519 0.37105 0.0
H375 H 0.6691 0.00942 0.42266 0.0
H376 H 0.71746 0.94162 0.38385 0.0
H377 H 0.67878 0.94919 0.51669 0.0
H378 H 0.74677 0.99107 0.39457 0.0
H379 H 0.72411 0.99479 0.35349 0.0
H380 H 0.73925 0.96969 0.35168 0.0
H381 H 0.69932 -0.00031 0.55448 0.0
H382 H 0.67574 0.98231 0.55912 0.0
H383 H 0.67591 0.00509 0.51664 0.0
C384 C 0.94148 0.7314 0.45871 0.0
C385 C 0.93458 0.74775 0.49169 0.0
C386 C 0.96368 0.72815 0.44902 0.0
C387 C 0.97926 0.74186 0.47209 0.0
C388 C 0.97227 0.75982 0.50097 0.0
C389 C 0.94997 0.76249 0.51072 0.0
C390 C 0.97048 0.70883 0.41779 0.0
C391 C 0.98839 0.77521 0.52481 0.0
C392 C 0.03224 0.71353 0.50416 0.0
C393 C 0.0452 0.71893 0.46292 0.0
C394 C 0.01094 0.72156 0.50844 0.0
C395 C 0.00262 0.73565 0.47105 0.0
C396 C 0.01611 0.74224 0.43099 0.0
C397 C 0.03719 0.73361 0.42711 0.0
C398 C -0.00303 0.71407 0.55164 0.0
C399 C 0.008 0.75766 0.39119 0.0
H400 H 0.92973 0.72001 0.4435 0.0
H401 H 0.94475 0.77539 0.53564 0.0
H402 H 0.98267 0.71373 0.38934 0.0
H403 H 0.97827 0.69647 0.44223 0.0
H404 H 0.95644 0.70113 0.39844 0.0
H405 H 0.98042 0.79039 0.53798 0.0
H406 H 0.99611 0.76715 0.55744 0.0
H407 H 0.00156 0.77952 0.49817 0.0
H408 H 0.03835 0.70219 0.53186 0.0
H409 H 0.04729 0.73807 0.39546 0.0
H410 H 0.98298 0.70447 0.53725 0.0
H411 H 0.9902 0.72829 0.57189 0.0
H412 H 0.00618 0.70385 0.57862 0.0
H413 H 0.99584 0.74927 0.36731 0.0
H414 H 0.02142 0.76362 0.36689 0.0
H415 H -0.00025 0.77187 0.40843 0.0
C416 C 0.28971 0.03073 0.49834 0.0
C417 C 0.28312 0.04461 0.45966 0.0
C418 C 0.28285 0.00898 0.49955 0.0
C419 C 0.26878 0.00108 0.46162 0.0
C420 C 0.26116 0.0153 0.42396 0.0
C421 C 0.26857 0.03687 0.42319 0.0
C422 C 0.29139 0.99424 0.54029 0.0
C423 C 0.24578 0.00757 0.38362 0.0
C424 C 0.27454 0.94052 0.44179 0.0
C425 C 0.25852 0.93249 0.47432 0.0
C426 C 0.27719 0.96295 0.43472 0.0
C427 C 0.26325 0.9776 0.46012 0.0
C428 C 0.24565 0.96952 0.48878 0.0
C429 C 0.24357 0.94702 0.49579 0.0
C430 C 0.29612 0.97095 0.40365 0.0
C431 C 0.23007 0.98464 0.51525 0.0
H432 H 0.30096 0.0366 0.52655 0.0
H433 H 0.2632 0.04761 0.39348 0.0
H434 H 0.27763 0.9865 0.56048 0.0
H435 H 0.30126 0.981 0.52347 0.0
H436 H 0.30165 0.00308 0.56783 0.0
H437 H 0.23945 0.02122 0.36056 0.0
H438 H 0.25435 -0.00402 0.35864 0.0
H439 H 0.23178 -0.00123 0.40035 0.0
H440 H 0.28612 0.92942 0.4249 0.0
H441 H 0.23094 0.9409 0.52042 0.0
H442 H 0.30856 0.97832 0.42858 0.0
H443 H 0.29072 0.98374 0.37718 0.0
H444 H 0.30392 0.95762 0.38207 0.0
H445 H 0.23833 0.99195 0.54812 0.0
H446 H 0.21526 0.97598 0.52851 0.0
H447 H 0.22503 -0.00185 0.49028 0.0
C448 C 0.05262 0.25647 0.46178 0.0
C449 C 0.06027 0.24142 0.49707 0.0
C450 C 0.03046 0.25741 0.44935 0.0
C451 C 0.01576 0.24265 0.47205 0.0
C452 C 0.02381 0.22577 0.50285 0.0
C453 C 0.046 0.22543 0.51533 0.0
C454 C 0.02252 0.27562 0.41607 0.0
C455 C 0.00873 0.20926 0.52627 0.0
C456 C 0.96079 0.26739 0.50124 0.0
C457 C 0.94841 0.26074 0.45998 0.0
C458 C 0.98256 0.26093 0.50641 0.0
C459 C 0.99203 0.24714 0.46991 0.0
C460 C 0.97922 0.23924 0.4299 0.0
C461 C 0.95759 0.24633 0.42509 0.0
C462 C 0.99574 0.26979 0.5496 0.0
C463 C 0.98859 0.22406 0.39107 0.0
H464 H 0.06354 0.26878 0.4471 0.0
H465 H 0.05188 0.21347 0.54191 0.0
H466 H 0.01097 0.26938 0.38761 0.0
H467 H 0.01367 0.28778 0.43906 0.0
H468 H 0.03615 0.28398 0.39663 0.0
H469 H 0.01779 0.19486 0.54038 0.0
H470 H 6e-05 0.21684 0.55823 0.0
H471 H 0.99625 0.20373 0.49906 0.0
H472 H 0.9538 0.27852 0.52828 0.0
H473 H 0.948 0.24091 0.39339 0.0
H474 H 0.00919 0.2801 0.53512 0.0
H475 H 0.00325 0.25626 0.57098 0.0
H476 H 0.98573 0.2797 0.57565 0.0
H477 H -0.00024 0.23323 0.3662 0.0
H478 H 0.97567 0.21654 0.36764 0.0
H479 H -0.00177 0.21095 0.40907 0.0
C480 C 0.23112 0.33058 0.00606 0.0
C481 C 0.22869 0.34228 0.96137 0.0
C482 C 0.24937 0.31742 0.01438 0.0
C483 C 0.26582 0.31616 0.97741 0.0
C484 C 0.26355 0.32793 0.93221 0.0
C485 C 0.2449 0.34074 0.92454 0.0
C486 C 0.25105 0.30486 0.06282 0.0
C487 C 0.28093 0.32716 0.89229 0.0
C488 C 0.32057 0.29779 0.02734 0.0
C489 C 0.3204 0.2756 0.01519 0.0
C490 C 0.30336 0.31145 0.01307 0.0
C491 C 0.28542 0.30261 0.9867 0.0
C492 C 0.28548 0.2804 0.97281 0.0
C493 C 0.30307 0.26718 0.98691 0.0
C494 C 0.30399 0.33515 0.02783 0.0
C495 C 0.26651 0.27035 0.94519 0.0
H496 H 0.21863 0.33153 0.03458 0.0
H497 H 0.24318 0.34982 0.89 0.0
H498 H 0.25287 0.28724 0.05489 0.0
H499 H 0.26573 0.3101 0.08382 0.0
H500 H 0.23654 0.30719 0.08711 0.0
H501 H 0.27666 0.33722 0.85919 0.0
H502 H 0.29663 0.33307 0.9078 0.0
H503 H 0.28353 0.31015 0.87986 0.0
H504 H 0.33402 0.30445 0.04873 0.0
H505 H 0.30279 0.25003 0.97745 0.0
H506 H 0.29115 0.33846 0.05601 0.0
H507 H 0.30057 0.34561 -0.00506 0.0
H508 H 0.32 0.33992 0.0439 0.0
H509 H 0.25184 0.27057 0.96946 0.0
H510 H 0.2698 0.25327 0.93392 0.0
H511 H 0.2626 0.27996 0.91125 0.0
C512 C 0.70052 0.34728 0.02246 0.0
C513 C 0.72171 0.34373 0.00443 0.0
C514 C 0.68321 0.33373 0.00812 0.0
C515 C 0.68727 0.31609 0.97545 0.0
C516 C 0.70842 0.31289 0.95568 0.0
C517 C 0.72536 0.32683 0.97017 0.0
C518 C 0.66078 0.33782 0.02932 0.0
C519 C 0.71339 0.29414 0.92097 0.0
C520 C 0.65188 0.26575 0.98379 0.0
C521 C 0.63917 0.26752 0.94034 0.0
C522 C 0.66726 0.28171 -0.00385 0.0
C523 C 0.66984 0.30002 0.96463 0.0
C524 C 0.65653 0.30235 0.92174 0.0
C525 C 0.64142 0.28599 0.90992 0.0
C526 C 0.68127 0.27859 0.04208 0.0
C527 C 0.65864 0.32183 0.88769 0.0
H528 H 0.69751 0.36042 0.0486 0.0
H529 H 0.74166 0.32393 0.95604 0.0
H530 H 0.64848 0.33814 -0.0011 0.0
H531 H 0.65627 0.32438 0.05499 0.0
H532 H 0.65989 0.35339 0.0503 0.0
H533 H 0.73039 0.29464 0.9067 0.0
H534 H 0.71093 0.27853 0.94101 0.0
H535 H 0.70207 0.29427 0.88863 0.0
H536 H 0.6503 0.25153 0.0075 0.0
H537 H 0.63156 0.28758 0.87647 0.0
H538 H 0.67991 0.29294 0.06703 0.0
H539 H 0.69863 0.27716 0.0309 0.0
H540 H 0.67669 0.26382 0.0636 0.0
H541 H 0.65741 0.33709 0.90965 0.0
H542 H 0.64596 0.32202 0.85802 0.0
H543 H 0.6749 0.32175 0.86957 0.0
C544 C 0.7438 0.64486 0.91907 0.0
C545 C 0.76041 0.6453 0.95518 0.0
C546 C 0.72415 0.65607 0.92666 0.0
C547 C 0.72121 0.66825 0.97104 0.0
C548 C 0.7378 0.66856 0.00784 0.0
C549 C 0.75713 0.65696 -0.00038 0.0
C550 C 0.70665 0.65511 0.88699 0.0
C551 C 0.73537 0.68158 0.05544 0.0
C552 C 0.68275 0.71639 0.97455 0.0
C553 C 0.66556 0.70824 0.00363 0.0
C554 C 0.70064 0.70328 0.96212 0.0
C555 C 0.70119 0.68141 0.97854 0.0
C556 C 0.68335 0.67271 0.00544 0.0
C557 C 0.66579 0.68628 0.01799 0.0
C558 C 0.71945 0.71319 0.9337 0.0
C559 C 0.68321 0.64933 0.02276 0.0
H560 H 0.74615 0.63576 0.88478 0.0
H561 H 0.7699 0.65748 0.02761 0.0
H562 H 0.69101 0.64971 0.90369 0.0
H563 H 0.70393 0.67158 0.8712 0.0
H564 H 0.71097 0.64389 0.85597 0.0
H565 H 0.74967 0.67984 0.08062 0.0
H566 H 0.73328 0.69906 0.04627 0.0
H567 H 0.72057 0.67632 0.07597 0.0
H568 H 0.68275 0.73333 0.9633 0.0
H569 H 0.65247 0.6798 0.04006 0.0
H570 H 0.72359 0.70306 0.90073 0.0
H571 H 0.73409 0.71371 0.95807 0.0
H572 H 0.71585 0.72999 0.92074 0.0
H573 H 0.68729 0.6383 0.9913 0.0
H574 H 0.66717 0.64446 0.03844 0.0
H575 H 0.69582 0.647 0.05201 0.0
C576 C 0.26751 0.67043 0.97924 0.0
C577 C 0.27316 0.65349 0.01195 0.0
C578 C 0.28284 0.68614 0.96498 0.0
C579 C 0.30443 0.68472 0.98336 0.0
C580 C 0.31046 0.66727 0.01497 0.0
C581 C 0.29471 0.65192 0.02918 0.0
C582 C 0.27575 0.70465 0.93156 0.0
C583 C 0.33343 0.66509 0.03468 0.0
C584 C 0.34707 0.71812 0.91504 0.0
C585 C 0.34872 0.73648 0.94597 0.0
C586 C 0.33313 0.70084 0.9274 0.0
C587 C 0.32035 0.70213 0.97134 0.0
C588 C 0.32216 0.72047 0.00304 0.0
C589 C 0.33643 0.73736 0.99014 0.0
C590 C 0.33182 0.68137 0.89309 0.0
C591 C 0.30861 0.72252 0.04997 0.0
H592 H 0.25088 0.67183 0.96584 0.0
H593 H 0.29924 0.6388 0.05417 0.0
H594 H 0.27748 0.72031 0.95183 0.0
H595 H 0.28636 0.70552 0.89804 0.0
H596 H 0.25856 0.70296 0.91908 0.0
H597 H 0.33585 0.64978 0.05606 0.0
H598 H 0.34526 0.6655 0.00333 0.0
H599 H 0.33726 0.67903 0.05953 0.0
H600 H 0.35663 0.71724 0.88102 0.0
H601 H 0.33753 0.75153 0.01416 0.0
H602 H 0.31519 0.68012 0.87705 0.0
H603 H 0.33488 0.66621 0.91448 0.0
H604 H 0.34373 0.68233 0.86189 0.0
H605 H 0.29104 0.72255 0.04011 0.0
H606 H 0.31232 0.73762 0.07116 0.0
H607 H 0.31148 0.70835 0.07478 0.0
C608 C 0.8301 0.80639 0.52015 0.0
C609 C 0.83039 0.78435 0.50644 0.0
C610 C 0.81273 0.81995 0.50622 0.0
C611 C 0.79513 0.81117 0.47857 0.0
C612 C 0.79579 0.78922 0.46274 0.0
C613 C 0.81348 0.77612 0.47655 0.0
C614 C 0.81276 0.84341 0.52296 0.0
C615 C 0.77723 0.77922 0.43352 0.0
C616 C 0.73903 0.8357 0.49631 0.0
C617 C 0.73616 0.84717 0.45146 0.0
C618 C 0.75828 0.82415 0.50576 0.0
C619 C 0.7752 0.82432 0.46979 0.0
C620 C 0.77266 0.8363 0.425 0.0
C621 C 0.75308 0.84746 0.41617 0.0
C622 C 0.76029 0.81134 0.55377 0.0
C623 C 0.79051 0.83709 0.38619 0.0
H624 H 0.8432 0.81294 0.54283 0.0
H625 H 0.81353 0.75912 0.46575 0.0
H626 H 0.80894 0.8543 0.49106 0.0
H627 H 0.79993 0.84589 0.5516 0.0
H628 H 0.82868 0.84833 0.53922 0.0
H629 H 0.78095 0.76239 0.42106 0.0
H630 H 0.76237 0.7788 0.45715 0.0
H631 H 0.77341 0.78925 0.40017 0.0
H632 H 0.72601 0.83531 0.52369 0.0
H633 H 0.75104 0.85643 0.38158 0.0
H634 H 0.77489 0.81669 0.5749 0.0
H635 H 0.76245 0.79382 0.5451 0.0
H636 H 0.74576 0.81319 0.57819 0.0
H637 H 0.806 0.84257 0.40354 0.0
H638 H 0.78648 0.84817 0.3547 0.0
H639 H 0.79339 0.82056 0.37092 0.0
C640 C 0.19659 0.83199 0.50078 0.0
C641 C 0.21829 0.8305 0.48459 0.0
C642 C 0.18136 0.81583 0.48853 0.0
C643 C 0.1881 0.79762 0.46009 0.0
C644 C 0.20968 0.79653 0.44165 0.0
C645 C 0.22449 0.81308 0.45381 0.0
C646 C 0.15835 0.81774 0.50804 0.0
C647 C 0.21752 0.77725 0.41159 0.0
C648 C 0.15869 0.7445 0.48442 0.0
C649 C 0.14536 0.74266 0.44203 0.0
C650 C 0.17273 0.76227 0.49051 0.0
C651 C 0.17321 0.77879 0.45366 0.0
C652 C 0.15966 0.77719 0.41099 0.0
C653 C 0.14599 0.75902 0.40547 0.0
C654 C 0.18716 0.76325 0.53625 0.0
C655 C 0.15954 0.79468 0.37136 0.0
H656 H 0.19162 0.84552 0.52414 0.0
H657 H 0.24123 0.81178 0.4412 0.0
H658 H 0.14644 0.81475 0.47757 0.0
H659 H 0.15553 0.80521 0.5372 0.0
H660 H 0.15506 0.83399 0.52456 0.0
H661 H 0.23418 0.77976 0.39641 0.0
H662 H 0.21768 0.76255 0.43566 0.0
H663 H 0.20626 0.77395 0.38004 0.0
H664 H 0.15842 0.73187 0.51268 0.0
H665 H 0.13564 0.75776 0.37274 0.0
H666 H 0.18351 0.77814 0.55812 0.0
H667 H 0.20452 0.76417 0.52478 0.0
H668 H 0.18503 0.74889 0.561 0.0
H669 H 0.15529 0.81058 0.38839 0.0
H670 H 0.14778 0.79115 0.34083 0.0
H671 H 0.17605 0.79637 0.35488 0.0
C672 C 0.25289 0.15561 0.51354 0.0
C673 C 0.25391 0.1443 0.46804 0.0
C674 C 0.23496 0.16877 0.52523 0.0
C675 C 0.21748 0.17043 0.49089 0.0
C676 C 0.21822 0.1588 0.44525 0.0
C677 C 0.23652 0.14599 0.43418 0.0
C678 C 0.23487 0.18116 0.57403 0.0
C679 C 0.19972 0.15997 0.40808 0.0
C680 C 0.16392 0.19054 0.54446 0.0
C681 C 0.16423 0.21254 0.53054 0.0
C682 C 0.18084 0.17646 0.53049 0.0
C683 C 0.19863 0.18467 0.50258 0.0
C684 C 0.19886 0.20675 0.48766 0.0
C685 C 0.18158 0.22039 0.50152 0.0
C686 C 0.17991 0.15291 0.54641 0.0
C687 C 0.21769 0.21614 0.45835 0.0
H688 H 0.26632 0.1545 0.53977 0.0
H689 H 0.23713 0.13719 0.39907 0.0
H690 H 0.23373 0.19887 0.56655 0.0
H691 H 0.22039 0.17656 0.5965 0.0
H692 H 0.24974 0.17805 0.59667 0.0
H693 H 0.2025 0.14938 0.37503 0.0
H694 H 0.18424 0.15503 0.42627 0.0
H695 H 0.1976 0.17696 0.39499 0.0
H696 H 0.15048 0.18432 0.56656 0.0
H697 H 0.182 0.23739 0.49077 0.0
H698 H 0.19351 0.14935 0.57251 0.0
H699 H 0.18194 0.14213 0.51346 0.0
H700 H 0.16431 0.14878 0.56524 0.0
H701 H 0.23288 0.21493 0.48072 0.0
H702 H 0.21503 0.23347 0.44826 0.0
H703 H 0.22028 0.20669 0.42353 0.0
C704 C 0.83274 0.23423 0.48953 0.0
C705 C 0.84672 0.23446 0.44808 0.0
C706 C 0.8175 0.21749 0.49601 0.0
C707 C 0.81646 0.20039 0.46061 0.0
C708 C 0.83098 0.20014 0.41955 0.0
C709 C 0.84584 0.21729 0.41353 0.0
C710 C 0.8021 0.21843 0.54003 0.0
C711 C 0.83058 0.18196 0.38159 0.0
C712 C 0.78655 0.15024 0.50609 0.0
C713 C 0.76569 0.15356 0.48595 0.0
C714 C 0.8036 0.16479 0.49608 0.0
C715 C 0.79957 0.18326 0.4659 0.0
C716 C 0.77882 0.18622 0.44376 0.0
C717 C 0.76216 0.17122 0.45373 0.0
C718 C 0.82566 0.16089 0.51948 0.0
C719 C 0.77385 0.20584 0.41173 0.0
H720 H 0.83324 0.24748 0.51624 0.0
H721 H 0.85672 0.21729 0.38161 0.0
H722 H 0.78502 0.21934 0.52647 0.0
H723 H 0.80357 0.2034 0.56274 0.0
H724 H 0.80527 0.23266 0.56457 0.0
H725 H 0.84387 0.18347 0.35361 0.0
H726 H 0.83211 0.166 0.40066 0.0
H727 H 0.81474 0.18197 0.36156 0.0
H728 H 0.78944 0.1365 0.53064 0.0
H729 H 0.74608 0.17395 0.43814 0.0
H730 H 0.82885 0.17345 0.54835 0.0
H731 H 0.83869 0.16229 0.49091 0.0
H732 H 0.82679 0.14461 0.53736 0.0
H733 H 0.77488 0.2208 0.43485 0.0
H734 H 0.75735 0.20502 0.3947 0.0
H735 H 0.78606 0.20742 0.38138 0.0
C736 C 0.14409 0.30611 0.36396 0.0
C737 C 0.15911 0.30672 0.40348 0.0
C738 C 0.14908 0.31527 0.31735 0.0
C739 C 0.16963 0.32524 0.30993 0.0
C740 C 0.1849 0.32592 0.34958 0.0
C741 C 0.17945 0.31665 0.39595 0.0
C742 C 0.13235 0.31418 0.27594 0.0
C743 C 0.20699 0.33634 0.34291 0.0
C744 C 0.18606 0.32831 0.17376 0.0
C745 C 0.17919 0.34933 0.1608 0.0
C746 C 0.18417 0.32066 0.22292 0.0
C747 C 0.17514 0.33436 0.26003 0.0
C748 C 0.16943 0.35605 0.24789 0.0
C749 C 0.17158 0.36333 0.19833 0.0
C750 C 0.19066 0.29749 0.23442 0.0
C751 C 0.15985 0.37117 0.28655 0.0
H752 H 0.12832 0.29852 0.36943 0.0
H753 H 0.19115 0.31721 0.42629 0.0
H754 H 0.12846 0.33082 0.26255 0.0
H755 H 0.13906 0.305 0.24371 0.0
H756 H 0.11699 0.30621 0.28809 0.0
H757 H 0.21688 0.33584 0.37769 0.0
H758 H 0.2161 0.3279 0.31279 0.0
H759 H 0.20505 0.35355 0.33122 0.0
H760 H 0.19223 0.31749 0.14505 0.0
H761 H 0.16632 0.37962 0.18859 0.0
H762 H 0.17585 0.2877 0.24223 0.0
H763 H 0.20106 0.29686 0.26832 0.0
H764 H 0.1996 0.28979 0.20294 0.0
H765 H 0.14329 0.36546 0.29689 0.0
H766 H 0.15859 0.38816 0.27267 0.0
H767 H 0.16988 0.37107 0.32107 0.0
C768 C 0.63604 0.15186 0.34383 0.0
C769 C 0.65832 0.14728 0.34947 0.0
C770 C 0.6274 0.15797 0.29736 0.0
C771 C 0.64138 0.15963 0.25551 0.0
C772 C 0.66393 0.15531 0.261 0.0
C773 C 0.67214 0.14913 0.30794 0.0
C774 C 0.60325 0.16235 0.29291 0.0
C775 C 0.67935 0.15697 0.21716 0.0
C776 C 0.61713 0.15345 0.12584 0.0
C777 C 0.61597 0.17511 0.10958 0.0
C778 C 0.62516 0.14823 0.17343 0.0
C779 C 0.63227 0.16509 0.20556 0.0
C780 C 0.63077 0.18703 0.18982 0.0
C781 C 0.62258 0.1918 0.142 0.0
C782 C 0.62634 0.12464 0.18903 0.0
C783 C 0.63819 0.20543 0.22315 0.0
H784 H 0.62523 0.15049 0.37572 0.0
H785 H 0.68938 0.14571 0.31203 0.0
H786 H 0.60045 0.17891 0.27771 0.0
H787 H 0.5958 0.15065 0.26632 0.0
H788 H 0.5947 0.16096 0.32939 0.0
H789 H 0.69654 0.15383 0.22803 0.0
H790 H 0.6746 0.14509 0.1879 0.0
H791 H 0.6783 0.17342 0.20021 0.0
H792 H 0.612 0.14045 0.10109 0.0
H793 H 0.6218 0.20858 0.12965 0.0
H794 H 0.61711 0.12214 0.22423 0.0
H795 H 0.64352 0.12005 0.19652 0.0
H796 H 0.61969 0.11352 0.16005 0.0
H797 H 0.62933 0.20487 0.25928 0.0
H798 H 0.63552 0.22163 0.20577 0.0
H799 H 0.6558 0.2036 0.23165 0.0
C800 C 0.84153 0.65274 0.39763 0.0
C801 C 0.84721 0.67484 0.39964 0.0
C802 C 0.83864 0.6421 0.35163 0.0
C803 C 0.84151 0.65386 0.30662 0.0
C804 C 0.84661 0.67631 0.30841 0.0
C805 C 0.8494 0.68653 0.35488 0.0
C806 C 0.83314 0.61816 0.35119 0.0
C807 C 0.84976 0.68942 0.26118 0.0
C808 C 0.85912 0.62516 0.18788 0.0
C809 C 0.83976 0.62503 0.15998 0.0
C810 C 0.85971 0.6338 0.23639 0.0
C811 C 0.84046 0.64252 0.25756 0.0
C812 C 0.82064 0.64154 0.23053 0.0
C813 C 0.82051 0.63277 0.18202 0.0
C814 C 0.88115 0.63441 0.26414 0.0
C815 C 0.79976 0.65058 0.252 0.0
H816 H 0.83972 0.64359 0.43202 0.0
H817 H 0.8537 0.70363 0.35606 0.0
H818 H 0.81855 0.61517 0.32764 0.0
H819 H 0.84682 0.60886 0.33449 0.0
H820 H 0.82998 0.61172 0.38932 0.0
H821 H 0.85258 0.70694 0.26899 0.0
H822 H 0.86394 0.68301 0.24005 0.0
H823 H 0.83525 0.68786 0.23668 0.0
H824 H 0.87405 0.61909 0.17129 0.0
H825 H 0.80547 0.63271 0.16074 0.0
H826 H 0.87932 0.62702 0.30175 0.0
H827 H 0.88629 0.65155 0.26963 0.0
H828 H 0.8943 0.62568 0.24382 0.0
H829 H 0.79685 0.64388 0.28993 0.0
H830 H 0.78541 0.64689 0.22812 0.0
H831 H 0.80117 0.6685 0.25582 0.0
C832 C 0.34949 0.83969 0.36051 0.0
C833 C 0.32711 0.84417 0.36407 0.0
C834 C 0.35919 0.83491 0.3143 0.0
C835 C 0.34619 0.83454 0.2706 0.0
C836 C 0.32353 0.83868 0.27401 0.0
C837 C 0.31426 0.84348 0.32071 0.0
C838 C 0.38341 0.83064 0.31211 0.0
C839 C 0.30913 0.83838 0.22819 0.0
C840 C 0.37239 0.84503 0.14447 0.0
C841 C 0.37354 0.824 0.12425 0.0
C842 C 0.36395 0.84861 0.19248 0.0
C843 C 0.35641 0.83073 0.22097 0.0
C844 C 0.3581 0.80939 0.20144 0.0
C845 C 0.3667 0.80626 0.15329 0.0
C846 C 0.36257 0.8716 0.21217 0.0
C847 C 0.35025 0.78993 0.23081 0.0
H848 H 0.35955 0.84016 0.39381 0.0
H849 H 0.29695 0.84685 0.32316 0.0
H850 H 0.3866 0.81468 0.29419 0.0
H851 H 0.39145 0.84324 0.28882 0.0
H852 H 0.39107 0.83071 0.34976 0.0
H853 H 0.29169 0.84109 0.23746 0.0
H854 H 0.31443 0.85121 0.20168 0.0
H855 H 0.31069 0.82254 0.20862 0.0
H856 H 0.37772 0.85882 0.12239 0.0
H857 H 0.3675 0.78997 0.13791 0.0
H858 H 0.37094 0.8728 0.24885 0.0
H859 H 0.34526 0.8761 0.21823 0.0
H860 H 0.36999 0.8836 0.18619 0.0
H861 H 0.3582 0.78953 0.26807 0.0
H862 H 0.35363 0.77434 0.21129 0.0
H863 H 0.33243 0.79124 0.23718 0.0
C864 C 0.12684 0.68235 0.68 0.0
C865 C 0.1414 0.68853 0.64215 0.0
C866 C 0.13429 0.67809 0.7287 0.0
C867 C 0.15679 0.68008 0.73967 0.0
C868 C 0.17134 0.68745 0.70232 0.0
C869 C 0.16347 0.69161 0.65405 0.0
C870 C 0.11826 0.67044 0.76774 0.0
C871 C 0.19543 0.6899 0.7126 0.0
C872 C 0.17596 0.68077 0.87482 0.0
C873 C 0.18245 0.65907 0.88175 0.0
C874 C 0.16743 0.68785 0.8289 0.0
C875 C 0.16541 0.6729 0.78894 0.0
C876 C 0.17202 0.65101 0.79562 0.0
C877 C 0.18044 0.64436 0.84193 0.0
C878 C 0.16055 0.7113 0.82312 0.0
C879 C 0.17023 0.63461 0.75376 0.0
H880 H 0.10976 0.68 0.67115 0.0
H881 H 0.17481 0.69658 0.62515 0.0
H882 H 0.12167 0.65321 0.77732 0.0
H883 H 0.12008 0.68009 0.80254 0.0
H884 H 0.10111 0.67169 0.75467 0.0
H885 H 0.20424 0.69755 0.68085 0.0
H886 H 0.19811 0.69989 0.74659 0.0
H887 H 0.2027 0.67366 0.71975 0.0
H888 H 0.17742 0.69224 0.90541 0.0
H889 H 0.1854 0.62758 0.84693 0.0
H890 H 0.14309 0.71215 0.81249 0.0
H891 H 0.16999 0.71908 0.7926 0.0
H892 H 0.163 0.72083 0.85797 0.0
H893 H 0.15305 0.63332 0.74117 0.0
H894 H 0.17597 0.61819 0.76513 0.0
H895 H 0.18001 0.64007 0.7212 0.0
C896 C 0.35295 0.11935 0.68755 0.0
C897 C 0.33308 0.11792 0.66177 0.0
C898 C 0.35398 0.12813 0.73587 0.0
C899 C 0.33468 0.1357 0.75903 0.0
C900 C 0.31443 0.13349 0.73411 0.0
C901 C 0.31386 0.12459 0.68574 0.0
C902 C 0.37587 0.13005 0.76138 0.0
C903 C 0.2935 0.14131 0.75772 0.0
C904 C 0.33774 0.14556 0.89905 0.0
C905 C 0.34213 0.16795 0.90103 0.0
C906 C 0.33466 0.13491 0.85314 0.0
C907 C 0.33599 0.14696 0.80817 0.0
C908 C 0.33978 0.16967 0.80997 0.0
C909 C 0.34281 0.1799 0.85637 0.0
C910 C 0.33061 0.11068 0.85271 0.0
C911 C 0.34125 0.18308 0.76277 0.0
H912 H 0.36786 0.11412 0.66944 0.0
H913 H 0.29844 0.12355 0.66609 0.0
H914 H 0.38001 0.14747 0.76669 0.0
H915 H 0.37526 0.12246 0.79898 0.0
H916 H 0.38913 0.12223 0.73954 0.0
H917 H 0.27895 0.13692 0.73513 0.0
H918 H 0.29165 0.13432 0.79572 0.0
H919 H 0.294 0.15926 0.76188 0.0
H920 H 0.3371 0.1362 0.93337 0.0
H921 H 0.3461 0.19721 0.85755 0.0
H922 H 0.34446 0.10228 0.83434 0.0
H923 H 0.31576 0.1069 0.83067 0.0
H924 H 0.32863 0.10393 0.89097 0.0
H925 H 0.35538 0.17761 0.74015 0.0
H926 H 0.34315 0.20072 0.77069 0.0
H927 H 0.32641 0.18072 0.73967 0.0
C928 C 0.85114 0.32857 0.88515 0.0
C929 C 0.83079 0.33898 0.88693 0.0
C930 C 0.86054 0.32254 0.83939 0.0
C931 C 0.84932 0.32699 0.79433 0.0
C932 C 0.82854 0.33701 0.7959 0.0
C933 C 0.81952 0.3429 0.84219 0.0
C934 C 0.88273 0.31189 0.8392 0.0
C935 C 0.81604 0.34196 0.74858 0.0
C936 C 0.88102 0.33453 0.67394 0.0
C937 C 0.877 0.31486 0.64903 0.0
C938 C 0.87257 0.33844 0.72179 0.0
C939 C 0.85976 0.32227 0.74536 0.0
C940 C 0.8563 0.30205 0.72127 0.0
C941 C 0.865 0.29856 0.67335 0.0
C942 C 0.87677 0.36015 0.74643 0.0
C943 C 0.84279 0.28441 0.74538 0.0
H944 H 0.85994 0.32541 0.91953 0.0
H945 H 0.80376 0.35084 0.84324 0.0
H946 H 0.88217 0.29642 0.8179 0.0
H947 H 0.89465 0.32266 0.82019 0.0
H948 H 0.88876 0.30843 0.87757 0.0
H949 H 0.79964 0.34883 0.75632 0.0
H950 H 0.8253 0.35381 0.72558 0.0
H951 H 0.8141 0.32697 0.72592 0.0
H952 H 0.89036 0.34718 0.65554 0.0
H953 H 0.86181 0.28331 0.65435 0.0
H954 H 0.88392 0.35774 0.78413 0.0
H955 H 0.86114 0.36897 0.75143 0.0
H956 H 0.88795 0.37055 0.72419 0.0
H957 H 0.84903 0.28079 0.78343 0.0
H958 H 0.84279 0.26913 0.72317 0.0
H959 H 0.82572 0.29007 0.74953 0.0
C960 C 0.64605 0.80528 0.84678 0.0
C961 C 0.64761 0.81707 0.89153 0.0
C962 C 0.64898 0.81552 0.80036 0.0
C963 C 0.65357 0.83808 0.79864 0.0
C964 C 0.65582 0.84995 0.84369 0.0
C965 C 0.65282 0.8393 0.88961 0.0
C966 C 0.64651 0.8023 0.75309 0.0
C967 C 0.66076 0.87401 0.84334 0.0
C968 C 0.67498 0.85982 0.67501 0.0
C969 C 0.65571 0.86715 0.65224 0.0
C970 C 0.6747 0.85094 0.72341 0.0
C971 C 0.6547 0.84942 0.74958 0.0
C972 C 0.6354 0.85769 0.72766 0.0
C973 C 0.63615 0.86645 0.67929 0.0
C974 C 0.69562 0.84237 0.74569 0.0
C975 C 0.61377 0.85652 0.75452 0.0
H976 H 0.64213 0.7881 0.84789 0.0
H977 H 0.65414 0.84853 0.92401 0.0
H978 H 0.63232 0.80831 0.73138 0.0
H979 H 0.66115 0.80422 0.72914 0.0
H980 H 0.6441 0.78471 0.76088 0.0
H981 H 0.66349 0.88055 0.88156 0.0
H982 H 0.67544 0.87733 0.82036 0.0
H983 H 0.64698 0.88297 0.82606 0.0
H984 H 0.69018 0.86032 0.65439 0.0
H985 H 0.62121 0.87219 0.66212 0.0
H986 H 0.69458 0.82443 0.74954 0.0
H987 H 0.69813 0.84916 0.78369 0.0
H988 H 0.71004 0.84637 0.72233 0.0
H989 H 0.60906 0.83925 0.75988 0.0
H990 H 0.60055 0.86488 0.73361 0.0
H991 H 0.61513 0.86398 0.79216 0.0
C992 C 0.86227 0.72217 0.70286 0.0
C993 C 0.84683 0.71664 0.66629 0.0
C994 C 0.8601 0.71471 0.75206 0.0
C995 C 0.84189 0.70179 0.76487 0.0
C996 C 0.82486 0.69869 0.72982 0.0
C997 C 0.82763 0.70601 0.68058 0.0
C998 C 0.87859 0.71844 0.78837 0.0
C999 C 0.8048 0.68564 0.74274 0.0
C1000 C 0.85175 0.65268 0.84648 0.0
C1001 C 0.84343 0.65956 0.89245 0.0
C1002 C 0.85187 0.66661 0.80521 0.0
C1003 C 0.84292 0.68776 0.80983 0.0
C1004 C 0.83479 0.69496 0.85651 0.0
C1005 C 0.83535 0.68076 0.89764 0.0
C1006 C 0.86118 0.65845 0.75634 0.0
C1007 C 0.82468 0.71719 0.86248 0.0
H1008 H 0.87705 0.73066 0.69225 0.0
H1009 H 0.81544 0.70208 0.65264 0.0
H1010 H 0.87234 0.72207 0.82636 0.0
H1011 H 0.88858 0.70343 0.79092 0.0
H1012 H 0.88933 0.732 0.77623 0.0
H1013 H 0.79141 0.68844 0.71551 0.0
H1014 H 0.80891 0.66806 0.74241 0.0
H1015 H 0.7989 0.68976 0.78079 0.0
H1016 H 0.85801 0.63626 0.8427 0.0
H1017 H 0.82859 0.6859 0.93319 0.0
H1018 H 0.87376 0.6699 0.74233 0.0
H1019 H 0.84811 0.65757 0.72774 0.0
H1020 H 0.86866 0.64207 0.76 0.0
H1021 H 0.83505 0.72988 0.84507 0.0
H1022 H 0.82201 0.72142 0.9024 0.0
H1023 H 0.80871 0.71751 0.84303 0.0
C1024 C 0.29813 0.8177 0.64111 0.0
C1025 C 0.29135 0.83903 0.6314 0.0
C1026 C 0.3054 0.81173 0.6889 0.0
C1027 C 0.30646 0.82769 0.72699 0.0
C1028 C 0.29781 0.84869 0.71845 0.0
C1029 C 0.29006 0.85402 0.67079 0.0
C1030 C 0.31372 0.78892 0.69728 0.0
C1031 C 0.29896 0.86631 0.75776 0.0
C1032 C 0.32455 0.81453 0.85938 0.0
C1033 C 0.34701 0.81828 0.85578 0.0
C1034 C 0.31104 0.81691 0.81733 0.0
C1035 C 0.32026 0.82389 0.77156 0.0
C1036 C 0.34294 0.82797 0.76822 0.0
C1037 C 0.35609 0.82474 0.81024 0.0
C1038 C 0.28707 0.8117 0.82161 0.0
C1039 C 0.35334 0.83598 0.7204 0.0
H1040 H 0.29879 0.80597 0.61087 0.0
H1041 H 0.28471 0.87053 0.66351 0.0
H1042 H 0.33179 0.78892 0.69566 0.0
H1043 H 0.30888 0.78285 0.73475 0.0
H1044 H 0.30755 0.77748 0.66838 0.0
H1045 H 0.28862 0.88053 0.74803 0.0
H1046 H 0.29383 0.86004 0.79479 0.0
H1047 H 0.31608 0.87194 0.76137 0.0
H1048 H 0.31767 0.80919 0.89464 0.0
H1049 H 0.37349 0.82764 0.80774 0.0
H1050 H 0.28271 0.79874 0.7945 0.0
H1051 H 0.27717 0.82621 0.81201 0.0
H1052 H 0.28253 0.8062 0.85978 0.0
H1053 H 0.35114 0.82375 0.69032 0.0
H1054 H 0.37106 0.83916 0.72481 0.0
H1055 H 0.34531 0.85122 0.70791 0.0
C1056 C 0.12419 0.27954 0.71328 0.0
C1057 C 0.14048 0.28419 0.67807 0.0
C1058 C 0.12561 0.2875 0.76221 0.0
C1059 C 0.14395 0.30001 0.77625 0.0
C1060 C 0.16151 0.3027 0.74246 0.0
C1061 C 0.15947 0.29492 0.69341 0.0
C1062 C 0.1065 0.28439 0.79706 0.0
C1063 C 0.18163 0.3154 0.75673 0.0
C1064 C 0.13616 0.34832 0.86144 0.0
C1065 C 0.1444 0.34046 0.90667 0.0
C1066 C 0.13513 0.33493 0.81928 0.0
C1067 C 0.14313 0.31335 0.82229 0.0
C1068 C 0.15097 0.30513 0.86833 0.0
C1069 C 0.15129 0.31879 0.91036 0.0
C1070 C 0.12614 0.34414 0.7711 0.0
C1071 C 0.16004 0.28238 0.87257 0.0
H1072 H 0.1095 0.27113 0.70171 0.0
H1073 H 0.17224 0.29826 0.66647 0.0
H1074 H 0.1121 0.2802 0.8353 0.0
H1075 H 0.09721 0.29985 0.79965 0.0
H1076 H 0.09527 0.27145 0.78372 0.0
H1077 H 0.19516 0.31281 0.72978 0.0
H1078 H 0.17771 0.33302 0.75752 0.0
H1079 H 0.18729 0.31076 0.79467 0.0
H1080 H 0.13088 0.36512 0.85885 0.0
H1081 H 0.15802 0.31289 0.94532 0.0
H1082 H 0.1133 0.33327 0.7559 0.0
H1083 H 0.13931 0.34515 0.74277 0.0
H1084 H 0.1191 0.36064 0.77618 0.0
H1085 H 0.14879 0.2704 0.85536 0.0
H1086 H 0.16304 0.27763 0.91207 0.0
H1087 H 0.17569 0.28143 0.8519 0.0
C1088 C 0.6611 0.18717 0.84282 0.0
C1089 C 0.6383 0.18658 0.84069 0.0
C1090 C 0.67361 0.18297 0.79998 0.0
C1091 C 0.66294 0.17729 0.75493 0.0
C1092 C 0.63987 0.17695 0.75267 0.0
C1093 C 0.62784 0.18197 0.79547 0.0
C1094 C 0.69814 0.18425 0.8031 0.0
C1095 C 0.62787 0.17048 0.70557 0.0
C1096 C 0.68583 0.17642 0.62428 0.0
C1097 C 0.68905 0.15406 0.6176 0.0
C1098 C 0.67942 0.18467 0.67088 0.0
C1099 C 0.67551 0.17006 0.71078 0.0
C1100 C 0.68033 0.14769 0.70512 0.0
C1101 C 0.68736 0.14 0.65864 0.0
C1102 C 0.67528 0.20876 0.67628 0.0
C1103 C 0.67598 0.1315 0.74645 0.0
H1104 H 0.66913 0.19106 0.87782 0.0
H1105 H 0.61018 0.18149 0.79402 0.0
H1106 H 0.70521 0.1677 0.80012 0.0
H1107 H 0.70468 0.19397 0.77151 0.0
H1108 H 0.70372 0.19163 0.8388 0.0
H1109 H 0.60988 0.17097 0.71032 0.0
H1110 H 0.63235 0.18149 0.67441 0.0
H1111 H 0.63262 0.15374 0.69446 0.0
H1112 H 0.68749 0.18735 0.59269 0.0
H1113 H 0.68992 0.12269 0.65359 0.0
H1114 H 0.68117 0.21474 0.71303 0.0
H1115 H 0.65749 0.21191 0.67439 0.0
H1116 H 0.68333 0.21824 0.64612 0.0
H1117 H 0.68292 0.13727 0.78235 0.0
H1118 H 0.68287 0.1152 0.73797 0.0
H1119 H 0.65812 0.12978 0.75171 0.0
C1120 C 0.85723 0.32527 0.33351 0.0
C1121 C 0.84765 0.31896 0.37864 0.0
C1122 C 0.84442 0.32959 0.29146 0.0
C1123 C 0.82153 0.32692 0.2944 0.0
C1124 C 0.81174 0.32037 0.33987 0.0
C1125 C 0.82497 0.31672 0.38188 0.0
C1126 C 0.85546 0.33704 0.24391 0.0
C1127 C 0.78746 0.31681 0.34377 0.0
C1128 C 0.79421 0.35855 0.19191 0.0
C1129 C 0.79483 0.34332 0.15291 0.0
C1130 C 0.80104 0.3529 0.24011 0.0
C1131 C 0.80818 0.33141 0.24946 0.0
C1132 C 0.80631 0.31537 0.21173 0.0
C1133 C 0.79987 0.32158 0.16351 0.0
C1134 C 0.80296 0.37054 0.27918 0.0
C1135 C 0.8131 0.29211 0.22091 0.0
H1136 H 0.87479 0.32703 0.33123 0.0
H1137 H 0.81765 0.31153 0.41679 0.0
H1138 H 0.8526 0.32502 0.21367 0.0
H1139 H 0.84844 0.35277 0.23145 0.0
H1140 H 0.87333 0.33911 0.24866 0.0
H1141 H 0.78235 0.31239 0.38231 0.0
H1142 H 0.77854 0.33166 0.33217 0.0
H1143 H 0.78248 0.30357 0.31798 0.0
H1144 H 0.79014 0.37536 0.18402 0.0
H1145 H 0.79999 0.30968 0.13359 0.0
H1146 H 0.82033 0.37532 0.28299 0.0
H1147 H 0.79739 0.36465 0.31621 0.0
H1148 H 0.79339 0.38524 0.269 0.0
H1149 H 0.83115 0.29098 0.22016 0.0
H1150 H 0.80648 0.28096 0.19192 0.0
H1151 H 0.80756 0.2865 0.25823 0.0
C1152 C 0.63171 0.77183 0.19524 0.0
C1153 C 0.6473 0.77688 0.15867 0.0
C1154 C 0.63407 0.77932 0.24438 0.0
C1155 C 0.65263 0.79177 0.25713 0.0
C1156 C 0.66969 0.79444 0.22203 0.0
C1157 C 0.66673 0.78712 0.17285 0.0
C1158 C 0.61552 0.7761 0.28071 0.0
C1159 C 0.69008 0.80699 0.23487 0.0
C1160 C 0.64433 0.84101 0.33917 0.0
C1161 C 0.65255 0.83384 0.38502 0.0
C1162 C 0.6437 0.82715 0.29782 0.0
C1163 C 0.65206 0.80575 0.30222 0.0
C1164 C 0.66009 0.79826 0.34877 0.0
C1165 C 0.66003 0.81242 0.39001 0.0
C1166 C 0.63451 0.83562 0.2491 0.0
C1167 C 0.66957 0.77575 0.35448 0.0
H1168 H 0.61674 0.76367 0.18467 0.0
H1169 H 0.67901 0.79069 0.14489 0.0
H1170 H 0.62169 0.77229 0.31869 0.0
H1171 H 0.60595 0.79139 0.2833 0.0
H1172 H 0.60438 0.76286 0.26858 0.0
H1173 H 0.70336 0.8039 0.20753 0.0
H1174 H 0.68641 0.82467 0.23468 0.0
H1175 H 0.69595 0.80269 0.27285 0.0
H1176 H 0.63851 0.8576 0.33556 0.0
H1177 H 0.6667 0.80704 0.42547 0.0
H1178 H 0.6216 0.82453 0.23512 0.0
H1179 H 0.64754 0.8362 0.22039 0.0
H1180 H 0.62747 0.85219 0.25297 0.0
H1181 H 0.6587 0.76337 0.33746 0.0
H1182 H 0.67238 0.77144 0.39431 0.0
H1183 H 0.68539 0.77493 0.33447 0.0
C1184 C 0.16651 0.66147 0.38701 0.0
C1185 C 0.14405 0.65747 0.38488 0.0
C1186 C 0.17956 0.65893 0.34434 0.0
C1187 C 0.16986 0.65174 0.29927 0.0
C1188 C 0.14728 0.64698 0.29761 0.0
C1189 C 0.13459 0.65022 0.34035 0.0
C1190 C 0.20346 0.66464 0.34699 0.0
C1191 C 0.13644 0.63876 0.25049 0.0
C1192 C 0.19043 0.66174 0.1686 0.0
C1193 C 0.19824 0.64104 0.15608 0.0
C1194 C 0.18299 0.66616 0.21709 0.0
C1195 C 0.18297 0.6493 0.25317 0.0
C1196 C 0.19249 0.62896 0.24181 0.0
C1197 C 0.20024 0.62514 0.19341 0.0
C1198 C 0.17355 0.68829 0.22845 0.0
C1199 C 0.19255 0.6105 0.2791 0.0
H1200 H 0.17371 0.66741 0.42144 0.0
H1201 H 0.1172 0.64712 0.33895 0.0
H1202 H 0.21354 0.65091 0.33325 0.0
H1203 H 0.20681 0.67876 0.3223 0.0
H1204 H 0.20871 0.6688 0.38558 0.0
H1205 H 0.11898 0.63471 0.25641 0.0
H1206 H 0.13753 0.65129 0.22074 0.0
H1207 H 0.14496 0.62402 0.23667 0.0
H1208 H 0.18915 0.67416 0.13996 0.0
H1209 H 0.20637 0.60912 0.18397 0.0
H1210 H 0.17899 0.69406 0.26574 0.0
H1211 H 0.1555 0.68719 0.22926 0.0
H1212 H 0.17826 0.70054 0.19989 0.0
H1213 H 0.19783 0.61623 0.3165 0.0
H1214 H 0.20337 0.59696 0.26722 0.0
H1215 H 0.17574 0.60404 0.28302 0.0
C1216 C 0.32966 0.17068 0.40018 0.0
C1217 C 0.33701 0.1492 0.39559 0.0
C1218 C 0.32979 0.1847 0.35872 0.0
C1219 C 0.33792 0.17704 0.31243 0.0
C1220 C 0.34626 0.15562 0.30855 0.0
C1221 C 0.34538 0.14186 0.35006 0.0
C1222 C 0.32028 0.20723 0.36385 0.0
C1223 C 0.3556 0.14698 0.26016 0.0
C1224 C 0.32294 0.1955 0.18291 0.0
C1225 C 0.34214 0.20616 0.16875 0.0
C1226 C 0.3202 0.18798 0.232 0.0
C1227 C 0.33729 0.19082 0.26701 0.0
C1228 C 0.35571 0.20346 0.25418 0.0
C1229 C 0.35781 0.21119 0.20518 0.0
C1230 C 0.29996 0.17521 0.24495 0.0
C1231 C 0.37432 0.20677 0.29035 0.0
H1232 H 0.32283 0.17614 0.43539 0.0
H1233 H 0.35102 0.12519 0.34682 0.0
H1234 H 0.33119 0.21956 0.3468 0.0
H1235 H 0.30452 0.20796 0.34355 0.0
H1236 H 0.31735 0.21168 0.40356 0.0
H1237 H 0.3628 0.13051 0.26458 0.0
H1238 H 0.34259 0.1461 0.23139 0.0
H1239 H 0.3684 0.15812 0.24592 0.0
H1240 H 0.31061 0.19192 0.15504 0.0
H1241 H 0.37263 0.21961 0.19456 0.0
H1242 H 0.29402 0.17957 0.28282 0.0
H1243 H 0.30386 0.15758 0.24512 0.0
H1244 H 0.28666 0.17804 0.2175 0.0
H1245 H 0.3682 0.21067 0.32831 0.0
H1246 H 0.38544 0.21999 0.27801 0.0
H1247 H 0.38389 0.19149 0.2931 0.0
loop_
_geom_bond_atom_site_label_1
_geom_bond_atom_site_label_2
_geom_bond_distance
_geom_bond_site_symmetry_2
_ccdc_geom_bond_type
Mg0 O1 2.026 1_556 S
Mg0 O7 1.983 1_556 S
Mg0 O9 2.123 . S
Mg0 O10 2.267 . S
Mg0 O13 1.996 1_556 S
O1 Mg0 2.026 1_554 S
O1 C4 1.250 1_554 S
O2 Mg3 2.028 . S
O2 C4 1.248 . S
Mg3 O2 2.028 . S
Mg3 O8 2.032 . S
Mg3 O10 2.079 . S
C4 O1 1.250 1_556 S
C4 O2 1.248 . S
C5 O6 1.264 . S
C5 O13 1.249 . S
O6 C5 1.264 . S
O7 Mg0 1.983 1_554 S
O7 C11 1.246 1_554 S
O8 Mg3 2.032 . S
O8 C11 1.259 . S
O9 Mg0 2.123 . S
O9 C12 1.252 . S
O10 Mg0 2.267 . S
O10 Mg3 2.079 . S
O10 C12 1.273 . S
C11 O7 1.246 1_556 S
C11 O8 1.259 . S
C12 O9 1.252 . S
C12 O10 1.273 . S
O13 Mg0 1.996 1_554 S
O13 C5 1.249 . S
Mg14 O15 2.026 1_556 S
Mg14 O21 1.983 1_556 S
Mg14 O23 2.123 . S
Mg14 O24 2.267 . S
Mg14 O27 1.996 1_556 S
O15 Mg14 2.026 1_554 S
O15 C18 1.250 1_554 S
O16 Mg17 2.028 . S
O16 C18 1.248 . S
Mg17 O16 2.028 . S
Mg17 O22 2.032 . S
Mg17 O24 2.079 . S
C18 O15 1.250 1_556 S
C18 O16 1.248 . S
C19 O20 1.264 . S
C19 O27 1.249 . S
O20 C19 1.264 . S
O21 Mg14 1.983 1_554 S
O21 C25 1.246 1_554 S
O22 Mg17 2.032 . S
O22 C25 1.259 . S
O23 Mg14 2.123 . S
O23 C26 1.252 . S
O24 Mg14 2.267 . S
O24 Mg17 2.079 . S
O24 C26 1.273 . S
C25 O21 1.246 1_556 S
C25 O22 1.259 . S
C26 O23 1.252 . S
C26 O24 1.273 . S
O27 Mg14 1.996 1_554 S
O27 C19 1.249 . S
Mg28 O29 2.026 1_556 S
Mg28 O35 1.983 1_556 S
Mg28 O37 2.123 . S
Mg28 O38 2.267 . S
Mg28 O41 1.996 1_556 S
O29 Mg28 2.026 1_554 S
O29 C32 1.250 1_554 S
O30 Mg31 2.028 . S
O30 C32 1.248 . S
Mg31 O30 2.028 . S
Mg31 O36 2.032 . S
Mg31 O38 2.079 . S
C32 O29 1.250 1_556 S
C32 O30 1.248 . S
C33 O34 1.264 . S
C33 O41 1.249 . S
O34 C33 1.264 . S
O35 Mg28 1.983 1_554 S
O35 C39 1.246 1_554 S
O36 Mg31 2.032 . S
O36 C39 1.259 . S
O37 Mg28 2.123 . S
O37 C40 1.252 . S
O38 Mg28 2.267 . S
O38 Mg31 2.079 . S
O38 C40 1.273 . S
C39 O35 1.246 1_556 S
C39 O36 1.259 . S
C40 O37 1.252 . S
C40 O38 1.273 . S
O41 Mg28 1.996 1_554 S
O41 C33 1.249 . S
Mg42 O43 2.026 1_556 S
Mg42 O49 1.983 1_556 S
Mg42 O51 2.123 . S
Mg42 O52 2.267 . S
Mg42 O55 1.996 1_556 S
O43 Mg42 2.026 1_554 S
O43 C46 1.250 1_554 S
O44 Mg45 2.028 . S
O44 C46 1.248 . S
Mg45 O44 2.028 . S
Mg45 O50 2.032 . S
Mg45 O52 2.079 . S
C46 O43 1.250 1_556 S
C46 O44 1.248 . S
C47 O48 1.264 . S
C47 O55 1.249 . S
O48 C47 1.264 . S
O49 Mg42 1.983 1_554 S
O49 C53 1.246 1_554 S
O50 Mg45 2.032 . S
O50 C53 1.259 . S
O51 Mg42 2.123 . S
O51 C54 1.252 . S
O52 Mg42 2.267 . S
O52 Mg45 2.079 . S
O52 C54 1.273 . S
C53 O49 1.246 1_556 S
C53 O50 1.259 . S
C54 O51 1.252 . S
C54 O52 1.273 . S
O55 Mg42 1.996 1_554 S
O55 C47 1.249 . S
Mg56 O57 2.028 1_554 S
Mg56 O63 1.986 1_554 S
Mg56 O65 2.114 . S
Mg56 O66 2.251 . S
Mg56 O69 2.010 1_554 S
O57 Mg56 2.028 1_556 S
O57 C60 1.250 1_556 S
O58 Mg59 2.028 . S
O58 C60 1.248 . S
Mg59 O58 2.028 . S
Mg59 O64 2.032 . S
Mg59 O66 2.079 . S
C60 O57 1.250 1_554 S
C60 O58 1.248 . S
C61 O62 1.264 . S
C61 O69 1.249 . S
O62 C61 1.264 . S
O63 Mg56 1.986 1_556 S
O63 C67 1.246 1_556 S
O64 Mg59 2.032 . S
O64 C67 1.259 . S
O65 Mg56 2.114 . S
O65 C68 1.252 . S
O66 Mg56 2.251 . S
O66 Mg59 2.079 . S
O66 C68 1.273 . S
C67 O63 1.246 1_554 S
C67 O64 1.259 . S
C68 O65 1.252 . S
C68 O66 1.273 . S
O69 Mg56 2.010 1_556 S
O69 C61 1.249 . S
Mg70 O71 2.028 1_554 S
Mg70 O77 1.986 1_554 S
Mg70 O79 2.114 . S
Mg70 O80 2.251 . S
Mg70 O83 2.010 1_554 S
O71 Mg70 2.028 1_556 S
O71 C74 1.250 1_556 S
O72 Mg73 2.028 . S
O72 C74 1.248 . S
Mg73 O72 2.028 . S
Mg73 O78 2.032 . S
Mg73 O80 2.079 . S
C74 O71 1.250 1_554 S
C74 O72 1.248 . S
C75 O76 1.264 . S
C75 O83 1.249 . S
O76 C75 1.264 . S
O77 Mg70 1.986 1_556 S
O77 C81 1.246 1_556 S
O78 Mg73 2.032 . S
O78 C81 1.259 . S
O79 Mg70 2.114 . S
O79 C82 1.252 . S
O80 Mg70 2.251 . S
O80 Mg73 2.079 . S
O80 C82 1.273 . S
C81 O77 1.246 1_554 S
C81 O78 1.259 . S
C82 O79 1.252 . S
C82 O80 1.273 . S
O83 Mg70 2.010 1_556 S
O83 C75 1.249 . S
Mg84 O85 2.028 1_554 S
Mg84 O91 1.986 1_554 S
Mg84 O93 2.114 . S
Mg84 O94 2.251 . S
Mg84 O97 2.010 1_554 S
O85 Mg84 2.028 1_556 S
O85 C88 1.250 1_556 S
O86 Mg87 2.028 . S
O86 C88 1.248 . S
Mg87 O86 2.028 . S
Mg87 O92 2.032 . S
Mg87 O94 2.079 . S
C88 O85 1.250 1_554 S
C88 O86 1.248 . S
C89 O90 1.264 . S
C89 O97 1.249 . S
O90 C89 1.264 . S
O91 Mg84 1.986 1_556 S
O91 C95 1.246 1_556 S
O92 Mg87 2.032 . S
O92 C95 1.259 . S
O93 Mg84 2.114 . S
O93 C96 1.252 . S
O94 Mg84 2.251 . S
O94 Mg87 2.079 . S
O94 C96 1.273 . S
C95 O91 1.246 1_554 S
C95 O92 1.259 . S
C96 O93 1.252 . S
C96 O94 1.273 . S
O97 Mg84 2.010 1_556 S
O97 C89 1.249 . S
Mg98 O99 2.028 1_554 S
Mg98 O105 1.986 1_554 S
Mg98 O107 2.114 . S
Mg98 O108 2.251 . S
Mg98 O111 2.010 1_554 S
O99 Mg98 2.028 1_556 S
O99 C102 1.250 1_556 S
O100 Mg101 2.028 . S
O100 C102 1.248 . S
Mg101 O100 2.028 . S
Mg101 O106 2.032 . S
Mg101 O108 2.079 . S
C102 O99 1.250 1_554 S
C102 O100 1.248 . S
C103 O104 1.264 . S
C103 O111 1.249 . S
O104 C103 1.264 . S
O105 Mg98 1.986 1_556 S
O105 C109 1.246 1_556 S
O106 Mg101 2.032 . S
O106 C109 1.259 . S
O107 Mg98 2.114 . S
O107 C110 1.252 . S
O108 Mg98 2.251 . S
O108 Mg101 2.079 . S
O108 C110 1.273 . S
C109 O105 1.246 1_554 S
C109 O106 1.259 . S
C110 O107 1.252 . S
C110 O108 1.273 . S
O111 Mg98 2.010 1_556 S
O111 C103 1.249 . S
Mg112 O113 2.028 . S
Mg112 O119 1.986 . S
Mg112 O121 2.114 . S
Mg112 O122 2.251 . S
Mg112 O125 2.010 . S
O113 Mg112 2.028 . S
O113 C116 1.250 . S
O114 Mg115 2.028 . S
O114 C116 1.248 . S
Mg115 O114 2.028 . S
Mg115 O120 2.032 . S
Mg115 O122 2.079 . S
C116 O113 1.250 . S
C116 O114 1.248 . S
C117 O118 1.264 . S
C117 O125 1.249 . S
O118 C117 1.264 . S
O119 Mg112 1.986 . S
O119 C123 1.246 . S
O120 Mg115 2.032 . S
O120 C123 1.259 . S
O121 Mg112 2.114 . S
O121 C124 1.252 . S
O122 Mg112 2.251 . S
O122 Mg115 2.079 . S
O122 C124 1.273 . S
C123 O119 1.246 . S
C123 O120 1.259 . S
C124 O121 1.252 . S
C124 O122 1.273 . S
O125 Mg112 2.010 . S
O125 C117 1.249 . S
Mg126 O127 2.028 . S
Mg126 O133 1.986 . S
Mg126 O135 2.114 . S
Mg126 O136 2.251 . S
Mg126 O139 2.010 . S
O127 Mg126 2.028 . S
O127 C130 1.250 . S
O128 Mg129 2.028 . S
O128 C130 1.248 . S
Mg129 O128 2.028 . S
Mg129 O134 2.032 . S
Mg129 O136 2.079 . S
C130 O127 1.250 . S
C130 O128 1.248 . S
C131 O132 1.264 . S
C131 O139 1.249 . S
O132 C131 1.264 . S
O133 Mg126 1.986 . S
O133 C137 1.246 . S
O134 Mg129 2.032 . S
O134 C137 1.259 . S
O135 Mg126 2.114 . S
O135 C138 1.252 . S
O136 Mg126 2.251 . S
O136 Mg129 2.079 . S
O136 C138 1.273 . S
C137 O133 1.246 . S
C137 O134 1.259 . S
C138 O135 1.252 . S
C138 O136 1.273 . S
O139 Mg126 2.010 . S
O139 C131 1.249 . S
Mg140 O141 2.028 . S
Mg140 O147 1.986 . S
Mg140 O149 2.114 . S
Mg140 O150 2.251 . S
Mg140 O153 2.010 . S
O141 Mg140 2.028 . S
O141 C144 1.250 . S
O142 Mg143 2.028 . S
O142 C144 1.248 . S
Mg143 O142 2.028 . S
Mg143 O148 2.032 . S
Mg143 O150 2.079 . S
C144 O141 1.250 . S
C144 O142 1.248 . S
C145 O146 1.264 . S
C145 O153 1.249 . S
O146 C145 1.264 . S
O147 Mg140 1.986 . S
O147 C151 1.246 . S
O148 Mg143 2.032 . S
O148 C151 1.259 . S
O149 Mg140 2.114 . S
O149 C152 1.252 . S
O150 Mg140 2.251 . S
O150 Mg143 2.079 . S
O150 C152 1.273 . S
C151 O147 1.246 . S
C151 O148 1.259 . S
C152 O149 1.252 . S
C152 O150 1.273 . S
O153 Mg140 2.010 . S
O153 C145 1.249 . S
Mg154 O155 2.028 . S
Mg154 O161 1.986 . S
Mg154 O163 2.114 . S
Mg154 O164 2.251 . S
Mg154 O167 2.010 . S
O155 Mg154 2.028 . S
O155 C158 1.250 . S
O156 Mg157 2.028 . S
O156 C158 1.248 . S
Mg157 O156 2.028 . S
Mg157 O162 2.032 . S
Mg157 O164 2.079 . S
C158 O155 1.250 . S
C158 O156 1.248 . S
C159 O160 1.264 . S
C159 O167 1.249 . S
O160 C159 1.264 . S
O161 Mg154 1.986 . S
O161 C165 1.246 . S
O162 Mg157 2.032 . S
O162 C165 1.259 . S
O163 Mg154 2.114 . S
O163 C166 1.252 . S
O164 Mg154 2.251 . S
O164 Mg157 2.079 . S
O164 C166 1.273 . S
C165 O161 1.246 . S
C165 O162 1.259 . S
C166 O163 1.252 . S
C166 O164 1.273 . S
O167 Mg154 2.010 . S
O167 C159 1.249 . S
Mg168 O169 2.028 . S
Mg168 O175 1.986 . S
Mg168 O177 2.114 . S
Mg168 O178 2.251 . S
Mg168 O181 2.010 . S
O169 Mg168 2.028 . S
O169 C172 1.250 . S
O170 Mg171 2.028 . S
O170 C172 1.248 . S
Mg171 O170 2.028 . S
Mg171 O176 2.032 . S
Mg171 O178 2.079 . S
C172 O169 1.250 . S
C172 O170 1.248 . S
C173 O174 1.264 . S
C173 O181 1.249 . S
O174 C173 1.264 . S
O175 Mg168 1.986 . S
O175 C179 1.246 . S
O176 Mg171 2.032 . S
O176 C179 1.259 . S
O177 Mg168 2.114 . S
O177 C180 1.252 . S
O178 Mg168 2.251 . S
O178 Mg171 2.079 . S
O178 C180 1.273 . S
C179 O175 1.246 . S
C179 O176 1.259 . S
C180 O177 1.252 . S
C180 O178 1.273 . S
O181 Mg168 2.010 . S
O181 C173 1.249 . S
Mg182 O183 2.028 . S
Mg182 O189 1.986 . S
Mg182 O191 2.114 . S
Mg182 O192 2.251 . S
Mg182 O195 2.010 . S
O183 Mg182 2.028 . S
O183 C186 1.250 . S
O184 Mg185 2.028 . S
O184 C186 1.248 . S
Mg185 O184 2.028 . S
Mg185 O190 2.032 . S
Mg185 O192 2.079 . S
C186 O183 1.250 . S
C186 O184 1.248 . S
C187 O188 1.264 . S
C187 O195 1.249 . S
O188 C187 1.264 . S
O189 Mg182 1.986 . S
O189 C193 1.246 . S
O190 Mg185 2.032 . S
O190 C193 1.259 . S
O191 Mg182 2.114 . S
O191 C194 1.252 . S
O192 Mg182 2.251 . S
O192 Mg185 2.079 . S
O192 C194 1.273 . S
C193 O189 1.246 . S
C193 O190 1.259 . S
C194 O191 1.252 . S
C194 O192 1.273 . S
O195 Mg182 2.010 . S
O195 C187 1.249 . S
Mg196 O197 2.028 . S
Mg196 O203 1.986 . S
Mg196 O205 2.114 . S
Mg196 O206 2.251 . S
Mg196 O209 2.010 . S
O197 Mg196 2.028 . S
O197 C200 1.250 . S
O198 Mg199 2.028 . S
O198 C200 1.248 . S
Mg199 O198 2.028 . S
Mg199 O204 2.032 . S
Mg199 O206 2.079 . S
C200 O197 1.250 . S
C200 O198 1.248 . S
C201 O202 1.264 . S
C201 O209 1.249 . S
O202 C201 1.264 . S
O203 Mg196 1.986 . S
O203 C207 1.246 . S
O204 Mg199 2.032 . S
O204 C207 1.259 . S
O205 Mg196 2.114 . S
O205 C208 1.252 . S
O206 Mg196 2.251 . S
O206 Mg199 2.079 . S
O206 C208 1.273 . S
C207 O203 1.246 . S
C207 O204 1.259 . S
C208 O205 1.252 . S
C208 O206 1.273 . S
O209 Mg196 2.010 . S
O209 C201 1.249 . S
Mg210 O211 2.028 . S
Mg210 O217 1.986 . S
Mg210 O219 2.114 . S
Mg210 O220 2.251 . S
Mg210 O223 2.010 . S
O211 Mg210 2.028 . S
O211 C214 1.250 . S
O212 Mg213 2.028 . S
O212 C214 1.248 . S
Mg213 O212 2.028 . S
Mg213 O218 2.032 . S
Mg213 O220 2.079 . S
C214 O211 1.250 . S
C214 O212 1.248 . S
C215 O216 1.264 . S
C215 O223 1.249 . S
O216 C215 1.264 . S
O217 Mg210 1.986 . S
O217 C221 1.246 . S
O218 Mg213 2.032 . S
O218 C221 1.259 . S
O219 Mg210 2.114 . S
O219 C222 1.252 . S
O220 Mg210 2.251 . S
O220 Mg213 2.079 . S
O220 C222 1.273 . S
C221 O217 1.246 . S
C221 O218 1.259 . S
C222 O219 1.252 . S
C222 O220 1.273 . S
O223 Mg210 2.010 . S
O223 C215 1.249 . S
C224 C225 1.391 1_556 S
C224 C226 1.394 . S
C224 H240 0.931 . S
C225 C224 1.391 1_554 S
C225 C229 1.376 . S
C226 C224 1.394 . S
C226 C227 1.369 . S
C226 C230 1.531 . S
C227 C226 1.369 . S
C227 C228 1.410 1_556 S
C227 C235 1.503 . S
C228 C227 1.410 1_554 S
C228 C229 1.392 . S
C228 C231 1.511 . S
C229 C225 1.376 . S
C229 C228 1.392 . S
C229 H241 0.929 . S
C230 C226 1.531 . S
C230 H242 0.960 . S
C230 H243 0.962 . S
C230 H244 0.960 . S
C231 C228 1.511 . S
C231 H245 0.961 . S
C231 H246 0.961 . S
C231 H247 0.961 1_554 S
C232 C233 1.370 1_554 S
C232 C234 1.363 . S
C232 H248 0.931 . S
C233 C232 1.370 1_556 S
C233 C237 1.408 . S
C234 C232 1.363 . S
C234 C235 1.370 1_554 S
C234 C238 1.524 . S
C235 C227 1.503 . S
C235 C234 1.370 1_556 S
C235 C236 1.403 . S
C236 C235 1.403 . S
C236 C237 1.404 . S
C236 C239 1.539 . S
C237 C233 1.408 . S
C237 C236 1.404 . S
C237 H249 0.930 . S
C238 C234 1.524 . S
C238 H250 0.956 . S
C238 H251 0.961 . S
C238 H252 0.961 . S
C239 C236 1.539 . S
C239 H253 0.958 . S
C239 H254 0.961 . S
C239 H255 0.960 . S
H240 C224 0.931 . S
H241 C229 0.929 . S
H242 C230 0.960 . S
H243 C230 0.962 . S
H244 C230 0.960 . S
H245 C231 0.961 . S
H246 C231 0.961 . S
H247 C231 0.961 1_556 S
H248 C232 0.931 . S
H249 C237 0.930 . S
H250 C238 0.956 . S
H251 C238 0.961 . S
H252 C238 0.961 . S
H253 C239 0.958 . S
H254 C239 0.961 . S
H255 C239 0.960 . S
C256 C257 1.391 . S
C256 C258 1.394 . S
C256 H272 0.931 . S
C257 C256 1.391 . S
C257 C261 1.376 1_554 S
C258 C256 1.394 . S
C258 C259 1.369 1_554 S
C258 C262 1.531 . S
C259 C258 1.369 1_556 S
C259 C260 1.410 . S
C259 C267 1.503 . S
C260 C259 1.410 . S
C260 C261 1.392 . S
C260 C263 1.511 . S
C261 C257 1.376 1_556 S
C261 C260 1.392 . S
C261 H273 0.929 . S
C262 C258 1.531 . S
C262 H274 0.960 1_554 S
C262 H275 0.962 . S
C262 H276 0.960 . S
C263 C260 1.511 . S
C263 H277 0.961 . S
C263 H278 0.961 . S
C263 H279 0.961 . S
C264 C265 1.370 1_554 S
C264 C266 1.363 . S
C264 H280 0.931 . S
C265 C264 1.370 1_556 S
C265 C269 1.408 . S
C266 C264 1.363 . S
C266 C267 1.370 1_554 S
C266 C270 1.524 . S
C267 C259 1.503 . S
C267 C266 1.370 1_556 S
C267 C268 1.403 . S
C268 C267 1.403 . S
C268 C269 1.404 . S
C268 C271 1.539 . S
C269 C265 1.408 . S
C269 C268 1.404 . S
C269 H281 0.930 . S
C270 C266 1.524 . S
C270 H282 0.956 . S
C270 H283 0.961 . S
C270 H284 0.961 . S
C271 C268 1.539 . S
C271 H285 0.958 . S
C271 H286 0.961 . S
C271 H287 0.960 . S
H272 C256 0.931 . S
H273 C261 0.929 . S
H274 C262 0.960 1_556 S
H275 C262 0.962 . S
H276 C262 0.960 . S
H277 C263 0.961 . S
H278 C263 0.961 . S
H279 C263 0.961 . S
H280 C264 0.931 . S
H281 C269 0.930 . S
H282 C270 0.956 . S
H283 C270 0.961 . S
H284 C270 0.961 . S
H285 C271 0.958 . S
H286 C271 0.961 . S
H287 C271 0.960 . S
C288 C289 1.391 1_556 S
C288 C290 1.394 . S
C288 H304 0.931 . S
C289 C288 1.391 1_554 S
C289 C293 1.376 . S
C290 C288 1.394 . S
C290 C291 1.369 . S
C290 C294 1.531 . S
C291 C290 1.369 . S
C291 C292 1.410 1_556 S
C291 C299 1.503 . S
C292 C291 1.410 1_554 S
C292 C293 1.392 . S
C292 C295 1.511 . S
C293 C289 1.376 . S
C293 C292 1.392 . S
C293 H305 0.929 . S
C294 C290 1.531 . S
C294 H306 0.960 . S
C294 H307 0.962 . S
C294 H308 0.960 . S
C295 C292 1.511 . S
C295 H309 0.961 . S
C295 H310 0.961 . S
C295 H311 0.961 1_554 S
C296 C297 1.370 1_554 S
C296 C298 1.363 . S
C296 H312 0.931 . S
C297 C296 1.370 1_556 S
C297 C301 1.408 . S
C298 C296 1.363 . S
C298 C299 1.370 1_554 S
C298 C302 1.524 . S
C299 C291 1.503 . S
C299 C298 1.370 1_556 S
C299 C300 1.403 . S
C300 C299 1.403 . S
C300 C301 1.404 . S
C300 C303 1.539 . S
C301 C297 1.408 . S
C301 C300 1.404 . S
C301 H313 0.930 . S
C302 C298 1.524 . S
C302 H314 0.956 . S
C302 H315 0.961 . S
C302 H316 0.961 . S
C303 C300 1.539 . S
C303 H317 0.958 . S
C303 H318 0.961 . S
C303 H319 0.960 . S
H304 C288 0.931 . S
H305 C293 0.929 . S
H306 C294 0.960 . S
H307 C294 0.962 . S
H308 C294 0.960 . S
H309 C295 0.961 . S
H310 C295 0.961 . S
H311 C295 0.961 1_556 S
H312 C296 0.931 . S
H313 C301 0.930 . S
H314 C302 0.956 . S
H315 C302 0.961 . S
H316 C302 0.961 . S
H317 C303 0.958 . S
H318 C303 0.961 . S
H319 C303 0.960 . S
C320 C321 1.391 . S
C320 C322 1.394 . S
C320 H336 0.931 . S
C321 C320 1.391 . S
C321 C325 1.376 1_554 S
C322 C320 1.394 . S
C322 C323 1.369 . S
C322 C326 1.531 . S
C323 C322 1.369 . S
C323 C324 1.410 1_554 S
C323 C331 1.503 . S
C324 C323 1.410 1_556 S
C324 C325 1.392 . S
C324 C327 1.511 . S
C325 C321 1.376 1_556 S
C325 C324 1.392 . S
C325 H337 0.929 . S
C326 C322 1.531 . S
C326 H338 0.960 . S
C326 H339 0.962 . S
C326 H340 0.960 . S
C327 C324 1.511 . S
C327 H341 0.961 . S
C327 H342 0.961 . S
C327 H343 0.961 . S
C328 C329 1.370 . S
C328 C330 1.363 . S
C328 H344 0.931 . S
C329 C328 1.370 . S
C329 C333 1.408 1_556 S
C330 C328 1.363 . S
C330 C331 1.370 1_556 S
C330 C334 1.524 . S
C331 C323 1.503 . S
C331 C330 1.370 1_554 S
C331 C332 1.403 . S
C332 C331 1.403 . S
C332 C333 1.404 . S
C332 C335 1.539 . S
C333 C329 1.408 1_554 S
C333 C332 1.404 . S
C333 H345 0.930 . S
C334 C330 1.524 . S
C334 H346 0.956 . S
C334 H347 0.961 . S
C334 H348 0.961 . S
C335 C332 1.539 . S
C335 H349 0.958 . S
C335 H350 0.961 . S
C335 H351 0.960 . S
H336 C320 0.931 . S
H337 C325 0.929 . S
H338 C326 0.960 . S
H339 C326 0.962 . S
H340 C326 0.960 . S
H341 C327 0.961 . S
H342 C327 0.961 . S
H343 C327 0.961 . S
H344 C328 0.931 . S
H345 C333 0.930 . S
H346 C334 0.956 . S
H347 C334 0.961 . S
H348 C334 0.961 . S
H349 C335 0.958 . S
H350 C335 0.961 . S
H351 C335 0.960 . S
C352 C353 1.391 . S
C352 C354 1.394 . S
C352 H368 0.931 . S
C353 C352 1.391 . S
C353 C357 1.376 . S
C354 C352 1.394 . S
C354 C355 1.369 . S
C354 C358 1.531 . S
C355 C354 1.369 . S
C355 C356 1.410 . S
C355 C363 1.503 1_545 S
C356 C355 1.410 . S
C356 C357 1.392 . S
C356 C359 1.511 . S
C357 C353 1.376 . S
C357 C356 1.392 . S
C357 H369 0.929 . S
C358 C354 1.531 . S
C358 H370 0.960 1_545 S
C358 H371 0.962 . S
C358 H372 0.960 . S
C359 C356 1.511 . S
C359 H373 0.961 . S
C359 H374 0.928 1_545 S
C359 H375 0.961 . S
C360 C361 1.370 . S
C360 C362 1.363 . S
C360 H376 0.931 . S
C361 C360 1.370 . S
C361 C365 1.408 . S
C362 C360 1.363 . S
C362 C363 1.370 . S
C362 C366 1.524 . S
C363 C355 1.503 1_565 S
C363 C362 1.370 . S
C363 C364 1.403 . S
C364 C363 1.403 . S
C364 C365 1.404 . S
C364 C367 1.539 . S
C365 C361 1.408 . S
C365 C364 1.404 . S
C365 H377 0.930 . S
C366 C362 1.524 . S
C366 H378 0.956 . S
C366 H379 0.961 1_565 S
C366 H380 0.961 . S
C367 C364 1.539 . S
C367 H381 0.958 . S
C367 H382 0.961 . S
C367 H383 0.948 1_565 S
H368 C352 0.931 . S
H369 C357 0.929 . S
H370 C358 0.960 1_565 S
H371 C358 0.962 . S
H372 C358 0.960 . S
H373 C359 0.961 . S
H374 C359 0.928 1_565 S
H375 C359 0.961 . S
H376 C360 0.931 . S
H377 C365 0.930 . S
H378 C366 0.956 . S
H379 C366 0.961 1_545 S
H380 C366 0.961 . S
H381 C367 0.958 . S
H382 C367 0.961 . S
H383 C367 0.948 1_545 S
C384 C385 1.391 . S
C384 C386 1.394 . S
C384 H400 0.931 . S
C385 C384 1.391 . S
C385 C389 1.376 . S
C386 C384 1.394 . S
C386 C387 1.369 . S
C386 C390 1.531 . S
C387 C386 1.369 . S
C387 C388 1.410 . S
C387 C395 1.503 1_655 S
C388 C387 1.410 . S
C388 C389 1.392 . S
C388 C391 1.511 . S
C389 C385 1.376 . S
C389 C388 1.392 . S
C389 H401 0.929 . S
C390 C386 1.531 . S
C390 H402 0.949 1_655 S
C390 H403 0.962 . S
C390 H404 0.960 . S
C391 C388 1.511 . S
C391 H405 0.961 . S
C391 H406 0.961 1_655 S
C391 H407 0.961 . S
C392 C393 1.370 . S
C392 C394 1.363 . S
C392 H408 0.931 . S
C393 C392 1.370 . S
C393 C397 1.408 . S
C394 C392 1.363 . S
C394 C395 1.370 . S
C394 C398 1.524 . S
C395 C387 1.503 1_455 S
C395 C394 1.370 . S
C395 C396 1.403 . S
C396 C395 1.403 . S
C396 C397 1.404 . S
C396 C399 1.539 . S
C397 C393 1.408 . S
C397 C396 1.404 . S
C397 H409 0.930 . S
C398 C394 1.524 . S
C398 H410 0.967 . S
C398 H411 0.937 1_455 S
C398 H412 0.961 . S
C399 C396 1.539 . S
C399 H413 0.958 . S
C399 H414 0.961 . S
C399 H415 0.988 . S
H400 C384 0.931 . S
H401 C389 0.929 . S
H402 C390 0.949 1_455 S
H403 C390 0.962 . S
H404 C390 0.960 . S
H405 C391 0.961 . S
H406 C391 0.961 1_455 S
H407 C391 0.961 . S
H408 C392 0.931 . S
H409 C397 0.930 . S
H410 C398 0.967 . S
H411 C398 0.937 1_655 S
H412 C398 0.961 . S
H413 C399 0.958 . S
H414 C399 0.961 . S
H415 C399 0.988 . S
C416 C417 1.391 . S
C416 C418 1.394 . S
C416 H432 0.931 . S
C417 C416 1.391 . S
C417 C421 1.376 . S
C418 C416 1.394 . S
C418 C419 1.369 . S
C418 C422 1.531 . S
C419 C418 1.369 . S
C419 C420 1.410 . S
C419 C427 1.503 1_545 S
C420 C419 1.410 . S
C420 C421 1.392 . S
C420 C423 1.511 . S
C421 C417 1.376 . S
C421 C420 1.392 . S
C421 H433 0.929 . S
C422 C418 1.531 . S
C422 H434 0.950 1_545 S
C422 H435 0.962 . S
C422 H436 0.960 . S
C423 C420 1.511 . S
C423 H437 0.961 . S
C423 H438 0.961 1_545 S
C423 H439 0.961 . S
C424 C425 1.370 . S
C424 C426 1.363 . S
C424 H440 0.931 . S
C425 C424 1.370 . S
C425 C429 1.408 . S
C426 C424 1.363 . S
C426 C427 1.370 . S
C426 C430 1.524 . S
C427 C419 1.503 1_565 S
C427 C426 1.370 . S
C427 C428 1.403 . S
C428 C427 1.403 . S
C428 C429 1.404 . S
C428 C431 1.539 . S
C429 C425 1.408 . S
C429 C428 1.404 . S
C429 H441 0.930 . S
C430 C426 1.524 . S
C430 H442 0.956 . S
C430 H443 0.959 . S
C430 H444 0.961 . S
C431 C428 1.539 . S
C431 H445 0.958 . S
C431 H446 0.961 . S
C431 H447 0.935 1_565 S
H432 C416 0.931 . S
H433 C421 0.929 . S
H434 C422 0.950 1_565 S
H435 C422 0.962 . S
H436 C422 0.960 . S
H437 C423 0.961 . S
H438 C423 0.961 1_565 S
H439 C423 0.961 . S
H440 C424 0.931 . S
H441 C429 0.930 . S
H442 C430 0.956 . S
H443 C430 0.959 . S
H444 C430 0.961 . S
H445 C431 0.958 . S
H446 C431 0.961 . S
H447 C431 0.935 1_545 S
C448 C449 1.391 . S
C448 C450 1.394 . S
C448 H464 0.931 . S
C449 C448 1.391 . S
C449 C453 1.376 . S
C450 C448 1.394 . S
C450 C451 1.369 . S
C450 C454 1.531 . S
C451 C450 1.369 . S
C451 C452 1.410 . S
C451 C459 1.503 1_455 S
C452 C451 1.410 . S
C452 C453 1.392 . S
C452 C455 1.511 . S
C453 C449 1.376 . S
C453 C452 1.392 . S
C453 H465 0.929 . S
C454 C450 1.531 . S
C454 H466 0.952 1_455 S
C454 H467 0.962 . S
C454 H468 0.960 . S
C455 C452 1.511 . S
C455 H469 0.961 . S
C455 H470 0.961 1_455 S
C455 H471 0.961 . S
C456 C457 1.370 . S
C456 C458 1.363 . S
C456 H472 0.931 . S
C457 C456 1.370 . S
C457 C461 1.408 . S
C458 C456 1.363 . S
C458 C459 1.370 . S
C458 C462 1.524 . S
C459 C451 1.503 1_655 S
C459 C458 1.370 . S
C459 C460 1.403 . S
C460 C459 1.403 . S
C460 C461 1.404 . S
C460 C463 1.539 . S
C461 C457 1.408 . S
C461 C460 1.404 . S
C461 H473 0.930 . S
C462 C458 1.524 . S
C462 H474 0.956 . S
C462 H475 0.963 1_655 S
C462 H476 0.961 . S
C463 C460 1.539 . S
C463 H477 0.958 . S
C463 H478 0.961 . S
C463 H479 0.944 1_655 S
H464 C448 0.931 . S
H465 C453 0.929 . S
H466 C454 0.952 1_655 S
H467 C454 0.962 . S
H468 C454 0.960 . S
H469 C455 0.961 . S
H470 C455 0.961 1_655 S
H471 C455 0.961 . S
H472 C456 0.931 . S
H473 C461 0.930 . S
H474 C462 0.956 . S
H475 C462 0.963 1_455 S
H476 C462 0.961 . S
H477 C463 0.958 . S
H478 C463 0.961 . S
H479 C463 0.944 1_455 S
C480 C481 1.391 . S
C480 C482 1.394 . S
C480 H496 0.931 . S
C481 C480 1.391 . S
C481 C485 1.376 1_554 S
C482 C480 1.394 . S
C482 C483 1.369 . S
C482 C486 1.531 . S
C483 C482 1.369 . S
C483 C484 1.410 1_554 S
C483 C491 1.503 . S
C484 C483 1.410 1_556 S
C484 C485 1.392 . S
C484 C487 1.511 . S
C485 C481 1.376 1_556 S
C485 C484 1.392 . S
C485 H497 0.929 . S
C486 C482 1.531 . S
C486 H498 0.960 . S
C486 H499 0.962 . S
C486 H500 0.960 . S
C487 C484 1.511 . S
C487 H501 0.961 . S
C487 H502 0.961 . S
C487 H503 0.961 . S
C488 C489 1.370 1_556 S
C488 C490 1.363 . S
C488 H504 0.931 . S
C489 C488 1.370 1_554 S
C489 C493 1.408 . S
C490 C488 1.363 . S
C490 C491 1.370 1_556 S
C490 C494 1.524 . S
C491 C483 1.503 . S
C491 C490 1.370 1_554 S
C491 C492 1.403 . S
C492 C491 1.403 . S
C492 C493 1.404 . S
C492 C495 1.539 . S
C493 C489 1.408 . S
C493 C492 1.404 . S
C493 H505 0.930 . S
C494 C490 1.524 . S
C494 H506 0.956 . S
C494 H507 0.961 . S
C494 H508 0.961 . S
C495 C492 1.539 . S
C495 H509 0.958 . S
C495 H510 0.961 . S
C495 H511 0.960 . S
H496 C480 0.931 . S
H497 C485 0.929 . S
H498 C486 0.960 . S
H499 C486 0.962 . S
H500 C486 0.960 . S
H501 C487 0.961 . S
H502 C487 0.961 . S
H503 C487 0.961 . S
H504 C488 0.931 . S
H505 C493 0.930 . S
H506 C494 0.956 . S
H507 C494 0.961 . S
H508 C494 0.961 . S
H509 C495 0.958 . S
H510 C495 0.961 . S
H511 C495 0.960 . S
C512 C513 1.391 . S
C512 C514 1.394 . S
C512 H528 0.931 . S
C513 C512 1.391 . S
C513 C517 1.376 1_554 S
C514 C512 1.394 . S
C514 C515 1.369 1_554 S
C514 C518 1.531 . S
C515 C514 1.369 1_556 S
C515 C516 1.410 . S
C515 C523 1.503 . S
C516 C515 1.410 . S
C516 C517 1.392 . S
C516 C519 1.511 . S
C517 C513 1.376 1_556 S
C517 C516 1.392 . S
C517 H529 0.929 . S
C518 C514 1.531 . S
C518 H530 0.960 . S
C518 H531 0.962 . S
C518 H532 0.960 . S
C519 C516 1.511 . S
C519 H533 0.961 . S
C519 H534 0.961 . S
C519 H535 0.961 . S
C520 C521 1.370 1_554 S
C520 C522 1.363 . S
C520 H536 0.931 . S
C521 C520 1.370 1_556 S
C521 C525 1.408 . S
C522 C520 1.363 . S
C522 C523 1.370 1_554 S
C522 C526 1.524 . S
C523 C515 1.503 . S
C523 C522 1.370 1_556 S
C523 C524 1.403 . S
C524 C523 1.403 . S
C524 C525 1.404 . S
C524 C527 1.539 . S
C525 C521 1.408 . S
C525 C524 1.404 . S
C525 H537 0.930 . S
C526 C522 1.524 . S
C526 H538 0.956 . S
C526 H539 0.961 . S
C526 H540 0.961 . S
C527 C524 1.539 . S
C527 H541 0.958 . S
C527 H542 0.961 . S
C527 H543 0.960 . S
H528 C512 0.931 . S
H529 C517 0.929 . S
H530 C518 0.960 . S
H531 C518 0.962 . S
H532 C518 0.960 . S
H533 C519 0.961 . S
H534 C519 0.961 . S
H535 C519 0.961 . S
H536 C520 0.931 . S
H537 C525 0.930 . S
H538 C526 0.956 . S
H539 C526 0.961 . S
H540 C526 0.961 . S
H541 C527 0.958 . S
H542 C527 0.961 . S
H543 C527 0.960 . S
C544 C545 1.391 . S
C544 C546 1.394 . S
C544 H560 0.931 . S
C545 C544 1.391 . S
C545 C549 1.376 1_556 S
C546 C544 1.394 . S
C546 C547 1.369 . S
C546 C550 1.531 . S
C547 C546 1.369 . S
C547 C548 1.410 1_556 S
C547 C555 1.503 . S
C548 C547 1.410 1_554 S
C548 C549 1.392 . S
C548 C551 1.511 . S
C549 C545 1.376 1_554 S
C549 C548 1.392 . S
C549 H561 0.929 . S
C550 C546 1.531 . S
C550 H562 0.960 . S
C550 H563 0.962 . S
C550 H564 0.960 . S
C551 C548 1.511 . S
C551 H565 0.961 . S
C551 H566 0.961 . S
C551 H567 0.961 . S
C552 C553 1.370 . S
C552 C554 1.363 . S
C552 H568 0.931 . S
C553 C552 1.370 . S
C553 C557 1.408 1_554 S
C554 C552 1.363 . S
C554 C555 1.370 1_554 S
C554 C558 1.524 . S
C555 C547 1.503 . S
C555 C554 1.370 1_556 S
C555 C556 1.403 . S
C556 C555 1.403 . S
C556 C557 1.404 . S
C556 C559 1.539 . S
C557 C553 1.408 1_556 S
C557 C556 1.404 . S
C557 H569 0.930 . S
C558 C554 1.524 . S
C558 H570 0.956 . S
C558 H571 0.961 . S
C558 H572 0.961 . S
C559 C556 1.539 . S
C559 H573 0.958 . S
C559 H574 0.961 . S
C559 H575 0.960 . S
H560 C544 0.931 . S
H561 C549 0.929 . S
H562 C550 0.960 . S
H563 C550 0.962 . S
H564 C550 0.960 . S
H565 C551 0.961 . S
H566 C551 0.961 . S
H567 C551 0.961 . S
H568 C552 0.931 . S
H569 C557 0.930 . S
H570 C558 0.956 . S
H571 C558 0.961 . S
H572 C558 0.961 . S
H573 C559 0.958 . S
H574 C559 0.961 . S
H575 C559 0.960 . S
C576 C577 1.391 . S
C576 C578 1.394 . S
C576 H592 0.931 . S
C577 C576 1.391 . S
C577 C581 1.376 1_554 S
C578 C576 1.394 . S
C578 C579 1.369 . S
C578 C582 1.531 . S
C579 C578 1.369 . S
C579 C580 1.410 1_554 S
C579 C587 1.503 . S
C580 C579 1.410 1_556 S
C580 C581 1.392 . S
C580 C583 1.511 . S
C581 C577 1.376 1_556 S
C581 C580 1.392 . S
C581 H593 0.929 . S
C582 C578 1.531 . S
C582 H594 0.960 . S
C582 H595 0.962 . S
C582 H596 0.960 . S
C583 C580 1.511 . S
C583 H597 0.961 . S
C583 H598 0.961 . S
C583 H599 0.961 . S
C584 C585 1.359 1_556 S
C584 C586 1.363 . S
C584 H600 0.931 . S
C585 C584 1.359 1_554 S
C585 C589 1.422 . S
C586 C584 1.363 . S
C586 C587 1.370 1_556 S
C586 C590 1.524 . S
C587 C579 1.503 . S
C587 C586 1.370 1_554 S
C587 C588 1.403 . S
C588 C587 1.403 . S
C588 C589 1.404 . S
C588 C591 1.539 . S
C589 C585 1.422 . S
C589 C588 1.404 . S
C589 H601 0.930 . S
C590 C586 1.524 . S
C590 H602 0.956 . S
C590 H603 0.961 . S
C590 H604 0.961 . S
C591 C588 1.539 . S
C591 H605 0.958 . S
C591 H606 0.961 . S
C591 H607 0.960 . S
H592 C576 0.931 . S
H593 C581 0.929 . S
H594 C582 0.960 . S
H595 C582 0.962 . S
H596 C582 0.960 . S
H597 C583 0.961 . S
H598 C583 0.961 . S
H599 C583 0.961 . S
H600 C584 0.931 . S
H601 C589 0.930 . S
H602 C590 0.956 . S
H603 C590 0.961 . S
H604 C590 0.961 . S
H605 C591 0.958 . S
H606 C591 0.961 . S
H607 C591 0.960 . S
C608 C609 1.391 . S
C608 C610 1.394 . S
C608 H624 0.931 . S
C609 C608 1.391 . S
C609 C613 1.376 . S
C610 C608 1.394 . S
C610 C611 1.369 . S
C610 C614 1.531 . S
C611 C610 1.369 . S
C611 C612 1.410 . S
C611 C619 1.503 . S
C612 C611 1.410 . S
C612 C613 1.392 . S
C612 C615 1.511 . S
C613 C609 1.376 . S
C613 C612 1.392 . S
C613 H625 0.929 . S
C614 C610 1.531 . S
C614 H626 0.960 . S
C614 H627 0.962 . S
C614 H628 0.960 . S
C615 C612 1.511 . S
C615 H629 0.961 . S
C615 H630 0.961 . S
C615 H631 0.961 . S
C616 C617 1.370 . S
C616 C618 1.363 . S
C616 H632 0.931 . S
C617 C616 1.370 . S
C617 C621 1.408 . S
C618 C616 1.363 . S
C618 C619 1.370 . S
C618 C622 1.524 . S
C619 C611 1.503 . S
C619 C618 1.370 . S
C619 C620 1.403 . S
C620 C619 1.403 . S
C620 C621 1.404 . S
C620 C623 1.539 . S
C621 C617 1.408 . S
C621 C620 1.404 . S
C621 H633 0.930 . S
C622 C618 1.524 . S
C622 H634 0.956 . S
C622 H635 0.961 . S
C622 H636 0.961 . S
C623 C620 1.539 . S
C623 H637 0.958 . S
C623 H638 0.961 . S
C623 H639 0.960 . S
H624 C608 0.931 . S
H625 C613 0.929 . S
H626 C614 0.960 . S
H627 C614 0.962 . S
H628 C614 0.960 . S
H629 C615 0.961 . S
H630 C615 0.961 . S
H631 C615 0.961 . S
H632 C616 0.931 . S
H633 C621 0.930 . S
H634 C622 0.956 . S
H635 C622 0.961 . S
H636 C622 0.961 . S
H637 C623 0.958 . S
H638 C623 0.961 . S
H639 C623 0.960 . S
C640 C641 1.391 . S
C640 C642 1.394 . S
C640 H656 0.931 . S
C641 C640 1.391 . S
C641 C645 1.376 . S
C642 C640 1.394 . S
C642 C643 1.369 . S
C642 C646 1.531 . S
C643 C642 1.369 . S
C643 C644 1.410 . S
C643 C651 1.503 . S
C644 C643 1.410 . S
C644 C645 1.392 . S
C644 C647 1.511 . S
C645 C641 1.376 . S
C645 C644 1.392 . S
C645 H657 0.929 . S
C646 C642 1.531 . S
C646 H658 0.960 . S
C646 H659 0.962 . S
C646 H660 0.960 . S
C647 C644 1.511 . S
C647 H661 0.961 . S
C647 H662 0.961 . S
C647 H663 0.961 . S
C648 C649 1.370 . S
C648 C650 1.363 . S
C648 H664 0.931 . S
C649 C648 1.370 . S
C649 C653 1.408 . S
C650 C648 1.363 . S
C650 C651 1.370 . S
C650 C654 1.524 . S
C651 C643 1.503 . S
C651 C650 1.370 . S
C651 C652 1.403 . S
C652 C651 1.403 . S
C652 C653 1.404 . S
C652 C655 1.539 . S
C653 C649 1.408 . S
C653 C652 1.404 . S
C653 H665 0.930 . S
C654 C650 1.524 . S
C654 H666 0.956 . S
C654 H667 0.961 . S
C654 H668 0.961 . S
C655 C652 1.539 . S
C655 H669 0.958 . S
C655 H670 0.961 . S
C655 H671 0.960 . S
H656 C640 0.931 . S
H657 C645 0.929 . S
H658 C646 0.960 . S
H659 C646 0.962 . S
H660 C646 0.960 . S
H661 C647 0.961 . S
H662 C647 0.961 . S
H663 C647 0.961 . S
H664 C648 0.931 . S
H665 C653 0.930 . S
H666 C654 0.956 . S
H667 C654 0.961 . S
H668 C654 0.961 . S
H669 C655 0.958 . S
H670 C655 0.961 . S
H671 C655 0.960 . S
C672 C673 1.391 . S
C672 C674 1.394 . S
C672 H688 0.931 . S
C673 C672 1.391 . S
C673 C677 1.376 . S
C674 C672 1.394 . S
C674 C675 1.369 . S
C674 C678 1.531 . S
C675 C674 1.369 . S
C675 C676 1.410 . S
C675 C683 1.503 . S
C676 C675 1.410 . S
C676 C677 1.392 . S
C676 C679 1.511 . S
C677 C673 1.376 . S
C677 C676 1.392 . S
C677 H689 0.929 . S
C678 C674 1.531 . S
C678 H690 0.960 . S
C678 H691 0.962 . S
C678 H692 0.960 . S
C679 C676 1.511 . S
C679 H693 0.961 . S
C679 H694 0.961 . S
C679 H695 0.961 . S
C680 C681 1.370 . S
C680 C682 1.363 . S
C680 H696 0.931 . S
C681 C680 1.370 . S
C681 C685 1.408 . S
C682 C680 1.363 . S
C682 C683 1.370 . S
C682 C686 1.524 . S
C683 C675 1.503 . S
C683 C682 1.370 . S
C683 C684 1.403 . S
C684 C683 1.403 . S
C684 C685 1.404 . S
C684 C687 1.539 . S
C685 C681 1.408 . S
C685 C684 1.404 . S
C685 H697 0.930 . S
C686 C682 1.524 . S
C686 H698 0.956 . S
C686 H699 0.961 . S
C686 H700 0.961 . S
C687 C684 1.539 . S
C687 H701 0.958 . S
C687 H702 0.961 . S
C687 H703 0.960 . S
H688 C672 0.931 . S
H689 C677 0.929 . S
H690 C678 0.960 . S
H691 C678 0.962 . S
H692 C678 0.960 . S
H693 C679 0.961 . S
H694 C679 0.961 . S
H695 C679 0.961 . S
H696 C680 0.931 . S
H697 C685 0.930 . S
H698 C686 0.956 . S
H699 C686 0.961 . S
H700 C686 0.961 . S
H701 C687 0.958 . S
H702 C687 0.961 . S
H703 C687 0.960 . S
C704 C705 1.391 . S
C704 C706 1.394 . S
C704 H720 0.931 . S
C705 C704 1.391 . S
C705 C709 1.376 . S
C706 C704 1.394 . S
C706 C707 1.369 . S
C706 C710 1.531 . S
C707 C706 1.369 . S
C707 C708 1.410 . S
C707 C715 1.503 . S
C708 C707 1.410 . S
C708 C709 1.392 . S
C708 C711 1.511 . S
C709 C705 1.376 . S
C709 C708 1.392 . S
C709 H721 0.929 . S
C710 C706 1.531 . S
C710 H722 0.960 . S
C710 H723 0.962 . S
C710 H724 0.960 . S
C711 C708 1.511 . S
C711 H725 0.961 . S
C711 H726 0.961 . S
C711 H727 0.961 . S
C712 C713 1.370 . S
C712 C714 1.363 . S
C712 H728 0.931 . S
C713 C712 1.370 . S
C713 C717 1.408 . S
C714 C712 1.363 . S
C714 C715 1.370 . S
C714 C718 1.524 . S
C715 C707 1.503 . S
C715 C714 1.370 . S
C715 C716 1.403 . S
C716 C715 1.403 . S
C716 C717 1.404 . S
C716 C719 1.539 . S
C717 C713 1.408 . S
C717 C716 1.404 . S
C717 H729 0.930 . S
C718 C714 1.524 . S
C718 H730 0.956 . S
C718 H731 0.961 . S
C718 H732 0.961 . S
C719 C716 1.539 . S
C719 H733 0.958 . S
C719 H734 0.961 . S
C719 H735 0.960 . S
H720 C704 0.931 . S
H721 C709 0.929 . S
H722 C710 0.960 . S
H723 C710 0.962 . S
H724 C710 0.960 . S
H725 C711 0.961 . S
H726 C711 0.961 . S
H727 C711 0.961 . S
H728 C712 0.931 . S
H729 C717 0.930 . S
H730 C718 0.956 . S
H731 C718 0.961 . S
H732 C718 0.961 . S
H733 C719 0.958 . S
H734 C719 0.961 . S
H735 C719 0.960 . S
C736 C737 1.391 . S
C736 C738 1.394 . S
C736 H752 0.931 . S
C737 C736 1.391 . S
C737 C741 1.376 . S
C738 C736 1.394 . S
C738 C739 1.369 . S
C738 C742 1.531 . S
C739 C738 1.369 . S
C739 C740 1.410 . S
C739 C747 1.503 . S
C740 C739 1.410 . S
C740 C741 1.392 . S
C740 C743 1.511 . S
C741 C737 1.376 . S
C741 C740 1.392 . S
C741 H753 0.929 . S
C742 C738 1.531 . S
C742 H754 0.960 . S
C742 H755 0.962 . S
C742 H756 0.960 . S
C743 C740 1.511 . S
C743 H757 0.961 . S
C743 H758 0.961 . S
C743 H759 0.961 . S
C744 C745 1.370 . S
C744 C746 1.363 . S
C744 H760 0.931 . S
C745 C744 1.370 . S
C745 C749 1.408 . S
C746 C744 1.363 . S
C746 C747 1.370 . S
C746 C750 1.524 . S
C747 C739 1.503 . S
C747 C746 1.370 . S
C747 C748 1.403 . S
C748 C747 1.403 . S
C748 C749 1.404 . S
C748 C751 1.539 . S
C749 C745 1.408 . S
C749 C748 1.404 . S
C749 H761 0.930 . S
C750 C746 1.524 . S
C750 H762 0.956 . S
C750 H763 0.961 . S
C750 H764 0.961 . S
C751 C748 1.539 . S
C751 H765 0.958 . S
C751 H766 0.961 . S
C751 H767 0.960 . S
H752 C736 0.931 . S
H753 C741 0.929 . S
H754 C742 0.960 . S
H755 C742 0.962 . S
H756 C742 0.960 . S
H757 C743 0.961 . S
H758 C743 0.961 . S
H759 C743 0.961 . S
H760 C744 0.931 . S
H761 C749 0.930 . S
H762 C750 0.956 . S
H763 C750 0.961 . S
H764 C750 0.961 . S
H765 C751 0.958 . S
H766 C751 0.961 . S
H767 C751 0.960 . S
C768 C769 1.391 . S
C768 C770 1.394 . S
C768 H784 0.931 . S
C769 C768 1.391 . S
C769 C773 1.376 . S
C770 C768 1.394 . S
C770 C771 1.369 . S
C770 C774 1.531 . S
C771 C770 1.369 . S
C771 C772 1.410 . S
C771 C779 1.503 . S
C772 C771 1.410 . S
C772 C773 1.392 . S
C772 C775 1.511 . S
C773 C769 1.376 . S
C773 C772 1.392 . S
C773 H785 0.929 . S
C774 C770 1.531 . S
C774 H786 0.960 . S
C774 H787 0.962 . S
C774 H788 0.960 . S
C775 C772 1.511 . S
C775 H789 0.961 . S
C775 H790 0.961 . S
C775 H791 0.961 . S
C776 C777 1.370 . S
C776 C778 1.363 . S
C776 H792 0.931 . S
C777 C776 1.370 . S
C777 C781 1.408 . S
C778 C776 1.363 . S
C778 C779 1.370 . S
C778 C782 1.524 . S
C779 C771 1.503 . S
C779 C778 1.370 . S
C779 C780 1.403 . S
C780 C779 1.403 . S
C780 C781 1.404 . S
C780 C783 1.539 . S
C781 C777 1.408 . S
C781 C780 1.404 . S
C781 H793 0.930 . S
C782 C778 1.524 . S
C782 H794 0.956 . S
C782 H795 0.961 . S
C782 H796 0.961 . S
C783 C780 1.539 . S
C783 H797 0.958 . S
C783 H798 0.961 . S
C783 H799 0.960 . S
H784 C768 0.931 . S
H785 C773 0.929 . S
H786 C774 0.960 . S
H787 C774 0.962 . S
H788 C774 0.960 . S
H789 C775 0.961 . S
H790 C775 0.961 . S
H791 C775 0.961 . S
H792 C776 0.931 . S
H793 C781 0.930 . S
H794 C782 0.956 . S
H795 C782 0.961 . S
H796 C782 0.961 . S
H797 C783 0.958 . S
H798 C783 0.961 . S
H799 C783 0.960 . S
C800 C801 1.391 . S
C800 C802 1.394 . S
C800 H816 0.931 . S
C801 C800 1.391 . S
C801 C805 1.376 . S
C802 C800 1.394 . S
C802 C803 1.369 . S
C802 C806 1.531 . S
C803 C802 1.369 . S
C803 C804 1.410 . S
C803 C811 1.503 . S
C804 C803 1.410 . S
C804 C805 1.392 . S
C804 C807 1.511 . S
C805 C801 1.376 . S
C805 C804 1.392 . S
C805 H817 0.929 . S
C806 C802 1.531 . S
C806 H818 0.960 . S
C806 H819 0.962 . S
C806 H820 0.960 . S
C807 C804 1.511 . S
C807 H821 0.961 . S
C807 H822 0.961 . S
C807 H823 0.961 . S
C808 C809 1.370 . S
C808 C810 1.363 . S
C808 H824 0.931 . S
C809 C808 1.370 . S
C809 C813 1.408 . S
C810 C808 1.363 . S
C810 C811 1.370 . S
C810 C814 1.524 . S
C811 C803 1.503 . S
C811 C810 1.370 . S
C811 C812 1.403 . S
C812 C811 1.403 . S
C812 C813 1.404 . S
C812 C815 1.539 . S
C813 C809 1.408 . S
C813 C812 1.404 . S
C813 H825 0.930 . S
C814 C810 1.524 . S
C814 H826 0.956 . S
C814 H827 0.961 . S
C814 H828 0.961 . S
C815 C812 1.539 . S
C815 H829 0.958 . S
C815 H830 0.961 . S
C815 H831 0.960 . S
H816 C800 0.931 . S
H817 C805 0.929 . S
H818 C806 0.960 . S
H819 C806 0.962 . S
H820 C806 0.960 . S
H821 C807 0.961 . S
H822 C807 0.961 . S
H823 C807 0.961 . S
H824 C808 0.931 . S
H825 C813 0.930 . S
H826 C814 0.956 . S
H827 C814 0.961 . S
H828 C814 0.961 . S
H829 C815 0.958 . S
H830 C815 0.961 . S
H831 C815 0.960 . S
C832 C833 1.391 . S
C832 C834 1.394 . S
C832 H848 0.931 . S
C833 C832 1.391 . S
C833 C837 1.376 . S
C834 C832 1.394 . S
C834 C835 1.369 . S
C834 C838 1.531 . S
C835 C834 1.369 . S
C835 C836 1.410 . S
C835 C843 1.503 . S
C836 C835 1.410 . S
C836 C837 1.392 . S
C836 C839 1.511 . S
C837 C833 1.376 . S
C837 C836 1.392 . S
C837 H849 0.929 . S
C838 C834 1.531 . S
C838 H850 0.960 . S
C838 H851 0.962 . S
C838 H852 0.960 . S
C839 C836 1.511 . S
C839 H853 0.961 . S
C839 H854 0.961 . S
C839 H855 0.961 . S
C840 C841 1.370 . S
C840 C842 1.363 . S
C840 H856 0.931 . S
C841 C840 1.370 . S
C841 C845 1.408 . S
C842 C840 1.363 . S
C842 C843 1.370 . S
C842 C846 1.524 . S
C843 C835 1.503 . S
C843 C842 1.370 . S
C843 C844 1.403 . S
C844 C843 1.403 . S
C844 C845 1.404 . S
C844 C847 1.539 . S
C845 C841 1.408 . S
C845 C844 1.404 . S
C845 H857 0.930 . S
C846 C842 1.524 . S
C846 H858 0.956 . S
C846 H859 0.961 . S
C846 H860 0.961 . S
C847 C844 1.539 . S
C847 H861 0.958 . S
C847 H862 0.961 . S
C847 H863 0.960 . S
H848 C832 0.931 . S
H849 C837 0.929 . S
H850 C838 0.960 . S
H851 C838 0.962 . S
H852 C838 0.960 . S
H853 C839 0.961 . S
H854 C839 0.961 . S
H855 C839 0.961 . S
H856 C840 0.931 . S
H857 C845 0.930 . S
H858 C846 0.956 . S
H859 C846 0.961 . S
H860 C846 0.961 . S
H861 C847 0.958 . S
H862 C847 0.961 . S
H863 C847 0.960 . S
C864 C865 1.391 . S
C864 C866 1.394 . S
C864 H880 0.931 . S
C865 C864 1.391 . S
C865 C869 1.376 . S
C866 C864 1.394 . S
C866 C867 1.369 . S
C866 C870 1.531 . S
C867 C866 1.369 . S
C867 C868 1.410 . S
C867 C875 1.503 . S
C868 C867 1.410 . S
C868 C869 1.392 . S
C868 C871 1.511 . S
C869 C865 1.376 . S
C869 C868 1.392 . S
C869 H881 0.929 . S
C870 C866 1.531 . S
C870 H882 0.960 . S
C870 H883 0.962 . S
C870 H884 0.960 . S
C871 C868 1.511 . S
C871 H885 0.961 . S
C871 H886 0.961 . S
C871 H887 0.961 . S
C872 C873 1.370 . S
C872 C874 1.363 . S
C872 H888 0.931 . S
C873 C872 1.370 . S
C873 C877 1.408 . S
C874 C872 1.363 . S
C874 C875 1.370 . S
C874 C878 1.524 . S
C875 C867 1.503 . S
C875 C874 1.370 . S
C875 C876 1.403 . S
C876 C875 1.403 . S
C876 C877 1.404 . S
C876 C879 1.539 . S
C877 C873 1.408 . S
C877 C876 1.404 . S
C877 H889 0.930 . S
C878 C874 1.524 . S
C878 H890 0.956 . S
C878 H891 0.961 . S
C878 H892 0.961 . S
C879 C876 1.539 . S
C879 H893 0.958 . S
C879 H894 0.961 . S
C879 H895 0.960 . S
H880 C864 0.931 . S
H881 C869 0.929 . S
H882 C870 0.960 . S
H883 C870 0.962 . S
H884 C870 0.960 . S
H885 C871 0.961 . S
H886 C871 0.961 . S
H887 C871 0.961 . S
H888 C872 0.931 . S
H889 C877 0.930 . S
H890 C878 0.956 . S
H891 C878 0.961 . S
H892 C878 0.961 . S
H893 C879 0.958 . S
H894 C879 0.961 . S
H895 C879 0.960 . S
C896 C897 1.391 . S
C896 C898 1.394 . S
C896 H912 0.931 . S
C897 C896 1.391 . S
C897 C901 1.376 . S
C898 C896 1.394 . S
C898 C899 1.369 . S
C898 C902 1.531 . S
C899 C898 1.369 . S
C899 C900 1.410 . S
C899 C907 1.503 . S
C900 C899 1.410 . S
C900 C901 1.392 . S
C900 C903 1.511 . S
C901 C897 1.376 . S
C901 C900 1.392 . S
C901 H913 0.929 . S
C902 C898 1.531 . S
C902 H914 0.960 . S
C902 H915 0.962 . S
C902 H916 0.960 . S
C903 C900 1.511 . S
C903 H917 0.961 . S
C903 H918 0.961 . S
C903 H919 0.961 . S
C904 C905 1.370 . S
C904 C906 1.363 . S
C904 H920 0.931 . S
C905 C904 1.370 . S
C905 C909 1.408 . S
C906 C904 1.363 . S
C906 C907 1.370 . S
C906 C910 1.524 . S
C907 C899 1.503 . S
C907 C906 1.370 . S
C907 C908 1.403 . S
C908 C907 1.403 . S
C908 C909 1.404 . S
C908 C911 1.539 . S
C909 C905 1.408 . S
C909 C908 1.404 . S
C909 H921 0.930 . S
C910 C906 1.524 . S
C910 H922 0.956 . S
C910 H923 0.961 . S
C910 H924 0.961 . S
C911 C908 1.539 . S
C911 H925 0.958 . S
C911 H926 0.961 . S
C911 H927 0.960 . S
H912 C896 0.931 . S
H913 C901 0.929 . S
H914 C902 0.960 . S
H915 C902 0.962 . S
H916 C902 0.960 . S
H917 C903 0.961 . S
H918 C903 0.961 . S
H919 C903 0.961 . S
H920 C904 0.931 . S
H921 C909 0.930 . S
H922 C910 0.956 . S
H923 C910 0.961 . S
H924 C910 0.961 . S
H925 C911 0.958 . S
H926 C911 0.961 . S
H927 C911 0.960 . S
C928 C929 1.391 . S
C928 C930 1.394 . S
C928 H944 0.931 . S
C929 C928 1.391 . S
C929 C933 1.376 . S
C930 C928 1.394 . S
C930 C931 1.369 . S
C930 C934 1.531 . S
C931 C930 1.369 . S
C931 C932 1.410 . S
C931 C939 1.503 . S
C932 C931 1.410 . S
C932 C933 1.392 . S
C932 C935 1.511 . S
C933 C929 1.376 . S
C933 C932 1.392 . S
C933 H945 0.929 . S
C934 C930 1.531 . S
C934 H946 0.960 . S
C934 H947 0.962 . S
C934 H948 0.960 . S
C935 C932 1.511 . S
C935 H949 0.961 . S
C935 H950 0.961 . S
C935 H951 0.961 . S
C936 C937 1.370 . S
C936 C938 1.363 . S
C936 H952 0.931 . S
C937 C936 1.370 . S
C937 C941 1.408 . S
C938 C936 1.363 . S
C938 C939 1.370 . S
C938 C942 1.524 . S
C939 C931 1.503 . S
C939 C938 1.370 . S
C939 C940 1.403 . S
C940 C939 1.403 . S
C940 C941 1.404 . S
C940 C943 1.539 . S
C941 C937 1.408 . S
C941 C940 1.404 . S
C941 H953 0.930 . S
C942 C938 1.524 . S
C942 H954 0.956 . S
C942 H955 0.961 . S
C942 H956 0.961 . S
C943 C940 1.539 . S
C943 H957 0.958 . S
C943 H958 0.961 . S
C943 H959 0.960 . S
H944 C928 0.931 . S
H945 C933 0.929 . S
H946 C934 0.960 . S
H947 C934 0.962 . S
H948 C934 0.960 . S
H949 C935 0.961 . S
H950 C935 0.961 . S
H951 C935 0.961 . S
H952 C936 0.931 . S
H953 C941 0.930 . S
H954 C942 0.956 . S
H955 C942 0.961 . S
H956 C942 0.961 . S
H957 C943 0.958 . S
H958 C943 0.961 . S
H959 C943 0.960 . S
C960 C961 1.391 . S
C960 C962 1.394 . S
C960 H976 0.931 . S
C961 C960 1.391 . S
C961 C965 1.376 . S
C962 C960 1.394 . S
C962 C963 1.369 . S
C962 C966 1.531 . S
C963 C962 1.369 . S
C963 C964 1.410 . S
C963 C971 1.503 . S
C964 C963 1.410 . S
C964 C965 1.392 . S
C964 C967 1.511 . S
C965 C961 1.376 . S
C965 C964 1.392 . S
C965 H977 0.929 . S
C966 C962 1.531 . S
C966 H978 0.960 . S
C966 H979 0.962 . S
C966 H980 0.960 . S
C967 C964 1.511 . S
C967 H981 0.961 . S
C967 H982 0.961 . S
C967 H983 0.961 . S
C968 C969 1.370 . S
C968 C970 1.363 . S
C968 H984 0.931 . S
C969 C968 1.370 . S
C969 C973 1.408 . S
C970 C968 1.363 . S
C970 C971 1.370 . S
C970 C974 1.524 . S
C971 C963 1.503 . S
C971 C970 1.370 . S
C971 C972 1.403 . S
C972 C971 1.403 . S
C972 C973 1.404 . S
C972 C975 1.539 . S
C973 C969 1.408 . S
C973 C972 1.404 . S
C973 H985 0.930 . S
C974 C970 1.524 . S
C974 H986 0.956 . S
C974 H987 0.961 . S
C974 H988 0.961 . S
C975 C972 1.539 . S
C975 H989 0.958 . S
C975 H990 0.961 . S
C975 H991 0.960 . S
H976 C960 0.931 . S
H977 C965 0.929 . S
H978 C966 0.960 . S
H979 C966 0.962 . S
H980 C966 0.960 . S
H981 C967 0.961 . S
H982 C967 0.961 . S
H983 C967 0.961 . S
H984 C968 0.931 . S
H985 C973 0.930 . S
H986 C974 0.956 . S
H987 C974 0.961 . S
H988 C974 0.961 . S
H989 C975 0.958 . S
H990 C975 0.961 . S
H991 C975 0.960 . S
C992 C993 1.391 . S
C992 C994 1.394 . S
C992 H1008 0.931 . S
C993 C992 1.391 . S
C993 C997 1.376 . S
C994 C992 1.394 . S
C994 C995 1.369 . S
C994 C998 1.531 . S
C995 C994 1.369 . S
C995 C996 1.410 . S
C995 C1003 1.503 . S
C996 C995 1.410 . S
C996 C997 1.392 . S
C996 C999 1.511 . S
C997 C993 1.376 . S
C997 C996 1.392 . S
C997 H1009 0.929 . S
C998 C994 1.531 . S
C998 H1010 0.960 . S
C998 H1011 0.962 . S
C998 H1012 0.960 . S
C999 C996 1.511 . S
C999 H1013 0.961 . S
C999 H1014 0.961 . S
C999 H1015 0.961 . S
C1000 C1001 1.370 . S
C1000 C1002 1.363 . S
C1000 H1016 0.931 . S
C1001 C1000 1.370 . S
C1001 C1005 1.408 . S
C1002 C1000 1.363 . S
C1002 C1003 1.370 . S
C1002 C1006 1.524 . S
C1003 C995 1.503 . S
C1003 C1002 1.370 . S
C1003 C1004 1.403 . S
C1004 C1003 1.403 . S
C1004 C1005 1.404 . S
C1004 C1007 1.539 . S
C1005 C1001 1.408 . S
C1005 C1004 1.404 . S
C1005 H1017 0.930 . S
C1006 C1002 1.524 . S
C1006 H1018 0.956 . S
C1006 H1019 0.961 . S
C1006 H1020 0.961 . S
C1007 C1004 1.539 . S
C1007 H1021 0.958 . S
C1007 H1022 0.961 . S
C1007 H1023 0.960 . S
H1008 C992 0.931 . S
H1009 C997 0.929 . S
H1010 C998 0.960 . S
H1011 C998 0.962 . S
H1012 C998 0.960 . S
H1013 C999 0.961 . S
H1014 C999 0.961 . S
H1015 C999 0.961 . S
H1016 C1000 0.931 . S
H1017 C1005 0.930 . S
H1018 C1006 0.956 . S
H1019 C1006 0.961 . S
H1020 C1006 0.961 . S
H1021 C1007 0.958 . S
H1022 C1007 0.961 . S
H1023 C1007 0.960 . S
C1024 C1025 1.391 . S
C1024 C1026 1.394 . S
C1024 H1040 0.931 . S
C1025 C1024 1.391 . S
C1025 C1029 1.376 . S
C1026 C1024 1.394 . S
C1026 C1027 1.369 . S
C1026 C1030 1.531 . S
C1027 C1026 1.369 . S
C1027 C1028 1.410 . S
C1027 C1035 1.503 . S
C1028 C1027 1.410 . S
C1028 C1029 1.392 . S
C1028 C1031 1.511 . S
C1029 C1025 1.376 . S
C1029 C1028 1.392 . S
C1029 H1041 0.929 . S
C1030 C1026 1.531 . S
C1030 H1042 0.960 . S
C1030 H1043 0.962 . S
C1030 H1044 0.960 . S
C1031 C1028 1.511 . S
C1031 H1045 0.961 . S
C1031 H1046 0.961 . S
C1031 H1047 0.961 . S
C1032 C1033 1.370 . S
C1032 C1034 1.363 . S
C1032 H1048 0.931 . S
C1033 C1032 1.370 . S
C1033 C1037 1.408 . S
C1034 C1032 1.363 . S
C1034 C1035 1.370 . S
C1034 C1038 1.524 . S
C1035 C1027 1.503 . S
C1035 C1034 1.370 . S
C1035 C1036 1.403 . S
C1036 C1035 1.403 . S
C1036 C1037 1.404 . S
C1036 C1039 1.539 . S
C1037 C1033 1.408 . S
C1037 C1036 1.404 . S
C1037 H1049 0.930 . S
C1038 C1034 1.524 . S
C1038 H1050 0.956 . S
C1038 H1051 0.961 . S
C1038 H1052 0.961 . S
C1039 C1036 1.539 . S
C1039 H1053 0.958 . S
C1039 H1054 0.961 . S
C1039 H1055 0.960 . S
H1040 C1024 0.931 . S
H1041 C1029 0.929 . S
H1042 C1030 0.960 . S
H1043 C1030 0.962 . S
H1044 C1030 0.960 . S
H1045 C1031 0.961 . S
H1046 C1031 0.961 . S
H1047 C1031 0.961 . S
H1048 C1032 0.931 . S
H1049 C1037 0.930 . S
H1050 C1038 0.956 . S
H1051 C1038 0.961 . S
H1052 C1038 0.961 . S
H1053 C1039 0.958 . S
H1054 C1039 0.961 . S
H1055 C1039 0.960 . S
C1056 C1057 1.391 . S
C1056 C1058 1.394 . S
C1056 H1072 0.931 . S
C1057 C1056 1.391 . S
C1057 C1061 1.376 . S
C1058 C1056 1.394 . S
C1058 C1059 1.369 . S
C1058 C1062 1.531 . S
C1059 C1058 1.369 . S
C1059 C1060 1.410 . S
C1059 C1067 1.503 . S
C1060 C1059 1.410 . S
C1060 C1061 1.392 . S
C1060 C1063 1.511 . S
C1061 C1057 1.376 . S
C1061 C1060 1.392 . S
C1061 H1073 0.929 . S
C1062 C1058 1.531 . S
C1062 H1074 0.960 . S
C1062 H1075 0.962 . S
C1062 H1076 0.960 . S
C1063 C1060 1.511 . S
C1063 H1077 0.961 . S
C1063 H1078 0.961 . S
C1063 H1079 0.961 . S
C1064 C1065 1.370 . S
C1064 C1066 1.363 . S
C1064 H1080 0.931 . S
C1065 C1064 1.370 . S
C1065 C1069 1.408 . S
C1066 C1064 1.363 . S
C1066 C1067 1.370 . S
C1066 C1070 1.524 . S
C1067 C1059 1.503 . S
C1067 C1066 1.370 . S
C1067 C1068 1.403 . S
C1068 C1067 1.403 . S
C1068 C1069 1.404 . S
C1068 C1071 1.539 . S
C1069 C1065 1.408 . S
C1069 C1068 1.404 . S
C1069 H1081 0.930 . S
C1070 C1066 1.524 . S
C1070 H1082 0.956 . S
C1070 H1083 0.961 . S
C1070 H1084 0.961 . S
C1071 C1068 1.539 . S
C1071 H1085 0.958 . S
C1071 H1086 0.961 . S
C1071 H1087 0.960 . S
H1072 C1056 0.931 . S
H1073 C1061 0.929 . S
H1074 C1062 0.960 . S
H1075 C1062 0.962 . S
H1076 C1062 0.960 . S
H1077 C1063 0.961 . S
H1078 C1063 0.961 . S
H1079 C1063 0.961 . S
H1080 C1064 0.931 . S
H1081 C1069 0.930 . S
H1082 C1070 0.956 . S
H1083 C1070 0.961 . S
H1084 C1070 0.961 . S
H1085 C1071 0.958 . S
H1086 C1071 0.961 . S
H1087 C1071 0.960 . S
C1088 C1089 1.391 . S
C1088 C1090 1.394 . S
C1088 H1104 0.931 . S
C1089 C1088 1.391 . S
C1089 C1093 1.376 . S
C1090 C1088 1.394 . S
C1090 C1091 1.369 . S
C1090 C1094 1.531 . S
C1091 C1090 1.369 . S
C1091 C1092 1.410 . S
C1091 C1099 1.503 . S
C1092 C1091 1.410 . S
C1092 C1093 1.392 . S
C1092 C1095 1.511 . S
C1093 C1089 1.376 . S
C1093 C1092 1.392 . S
C1093 H1105 0.929 . S
C1094 C1090 1.531 . S
C1094 H1106 0.960 . S
C1094 H1107 0.962 . S
C1094 H1108 0.960 . S
C1095 C1092 1.511 . S
C1095 H1109 0.961 . S
C1095 H1110 0.961 . S
C1095 H1111 0.961 . S
C1096 C1097 1.370 . S
C1096 C1098 1.363 . S
C1096 H1112 0.931 . S
C1097 C1096 1.370 . S
C1097 C1101 1.408 . S
C1098 C1096 1.363 . S
C1098 C1099 1.370 . S
C1098 C1102 1.524 . S
C1099 C1091 1.503 . S
C1099 C1098 1.370 . S
C1099 C1100 1.403 . S
C1100 C1099 1.403 . S
C1100 C1101 1.404 . S
C1100 C1103 1.539 . S
C1101 C1097 1.408 . S
C1101 C1100 1.404 . S
C1101 H1113 0.930 . S
C1102 C1098 1.524 . S
C1102 H1114 0.956 . S
C1102 H1115 0.961 . S
C1102 H1116 0.961 . S
C1103 C1100 1.539 . S
C1103 H1117 0.958 . S
C1103 H1118 0.961 . S
C1103 H1119 0.960 . S
H1104 C1088 0.931 . S
H1105 C1093 0.929 . S
H1106 C1094 0.960 . S
H1107 C1094 0.962 . S
H1108 C1094 0.960 . S
H1109 C1095 0.961 . S
H1110 C1095 0.961 . S
H1111 C1095 0.961 . S
H1112 C1096 0.931 . S
H1113 C1101 0.930 . S
H1114 C1102 0.956 . S
H1115 C1102 0.961 . S
H1116 C1102 0.961 . S
H1117 C1103 0.958 . S
H1118 C1103 0.961 . S
H1119 C1103 0.960 . S
C1120 C1121 1.391 . S
C1120 C1122 1.394 . S
C1120 H1136 0.931 . S
C1121 C1120 1.391 . S
C1121 C1125 1.376 . S
C1122 C1120 1.394 . S
C1122 C1123 1.369 . S
C1122 C1126 1.531 . S
C1123 C1122 1.369 . S
C1123 C1124 1.410 . S
C1123 C1131 1.503 . S
C1124 C1123 1.410 . S
C1124 C1125 1.392 . S
C1124 C1127 1.511 . S
C1125 C1121 1.376 . S
C1125 C1124 1.392 . S
C1125 H1137 0.929 . S
C1126 C1122 1.531 . S
C1126 H1138 0.960 . S
C1126 H1139 0.962 . S
C1126 H1140 0.960 . S
C1127 C1124 1.511 . S
C1127 H1141 0.961 . S
C1127 H1142 0.961 . S
C1127 H1143 0.961 . S
C1128 C1129 1.370 . S
C1128 C1130 1.363 . S
C1128 H1144 0.931 . S
C1129 C1128 1.370 . S
C1129 C1133 1.408 . S
C1130 C1128 1.363 . S
C1130 C1131 1.370 . S
C1130 C1134 1.524 . S
C1131 C1123 1.503 . S
C1131 C1130 1.370 . S
C1131 C1132 1.403 . S
C1132 C1131 1.403 . S
C1132 C1133 1.404 . S
C1132 C1135 1.539 . S
C1133 C1129 1.408 . S
C1133 C1132 1.404 . S
C1133 H1145 0.930 . S
C1134 C1130 1.524 . S
C1134 H1146 0.956 . S
C1134 H1147 0.961 . S
C1134 H1148 0.961 . S
C1135 C1132 1.539 . S
C1135 H1149 0.958 . S
C1135 H1150 0.961 . S
C1135 H1151 0.960 . S
H1136 C1120 0.931 . S
H1137 C1125 0.929 . S
H1138 C1126 0.960 . S
H1139 C1126 0.962 . S
H1140 C1126 0.960 . S
H1141 C1127 0.961 . S
H1142 C1127 0.961 . S
H1143 C1127 0.961 . S
H1144 C1128 0.931 . S
H1145 C1133 0.930 . S
H1146 C1134 0.956 . S
H1147 C1134 0.961 . S
H1148 C1134 0.961 . S
H1149 C1135 0.958 . S
H1150 C1135 0.961 . S
H1151 C1135 0.960 . S
C1152 C1153 1.391 . S
C1152 C1154 1.394 . S
C1152 H1168 0.931 . S
C1153 C1152 1.391 . S
C1153 C1157 1.376 . S
C1154 C1152 1.394 . S
C1154 C1155 1.369 . S
C1154 C1158 1.531 . S
C1155 C1154 1.369 . S
C1155 C1156 1.410 . S
C1155 C1163 1.503 . S
C1156 C1155 1.410 . S
C1156 C1157 1.392 . S
C1156 C1159 1.511 . S
C1157 C1153 1.376 . S
C1157 C1156 1.392 . S
C1157 H1169 0.929 . S
C1158 C1154 1.531 . S
C1158 H1170 0.960 . S
C1158 H1171 0.962 . S
C1158 H1172 0.960 . S
C1159 C1156 1.511 . S
C1159 H1173 0.961 . S
C1159 H1174 0.961 . S
C1159 H1175 0.961 . S
C1160 C1161 1.370 . S
C1160 C1162 1.363 . S
C1160 H1176 0.931 . S
C1161 C1160 1.370 . S
C1161 C1165 1.408 . S
C1162 C1160 1.363 . S
C1162 C1163 1.370 . S
C1162 C1166 1.524 . S
C1163 C1155 1.503 . S
C1163 C1162 1.370 . S
C1163 C1164 1.403 . S
C1164 C1163 1.403 . S
C1164 C1165 1.404 . S
C1164 C1167 1.539 . S
C1165 C1161 1.408 . S
C1165 C1164 1.404 . S
C1165 H1177 0.930 . S
C1166 C1162 1.524 . S
C1166 H1178 0.956 . S
C1166 H1179 0.961 . S
C1166 H1180 0.961 . S
C1167 C1164 1.539 . S
C1167 H1181 0.958 . S
C1167 H1182 0.961 . S
C1167 H1183 0.960 . S
H1168 C1152 0.931 . S
H1169 C1157 0.929 . S
H1170 C1158 0.960 . S
H1171 C1158 0.962 . S
H1172 C1158 0.960 . S
H1173 C1159 0.961 . S
H1174 C1159 0.961 . S
H1175 C1159 0.961 . S
H1176 C1160 0.931 . S
H1177 C1165 0.930 . S
H1178 C1166 0.956 . S
H1179 C1166 0.961 . S
H1180 C1166 0.961 . S
H1181 C1167 0.958 . S
H1182 C1167 0.961 . S
H1183 C1167 0.960 . S
C1184 C1185 1.391 . S
C1184 C1186 1.394 . S
C1184 H1200 0.931 . S
C1185 C1184 1.391 . S
C1185 C1189 1.376 . S
C1186 C1184 1.394 . S
C1186 C1187 1.369 . S
C1186 C1190 1.531 . S
C1187 C1186 1.369 . S
C1187 C1188 1.410 . S
C1187 C1195 1.503 . S
C1188 C1187 1.410 . S
C1188 C1189 1.392 . S
C1188 C1191 1.511 . S
C1189 C1185 1.376 . S
C1189 C1188 1.392 . S
C1189 H1201 0.929 . S
C1190 C1186 1.531 . S
C1190 H1202 0.960 . S
C1190 H1203 0.962 . S
C1190 H1204 0.960 . S
C1191 C1188 1.511 . S
C1191 H1205 0.961 . S
C1191 H1206 0.961 . S
C1191 H1207 0.961 . S
C1192 C1193 1.370 . S
C1192 C1194 1.363 . S
C1192 H1208 0.931 . S
C1193 C1192 1.370 . S
C1193 C1197 1.408 . S
C1194 C1192 1.363 . S
C1194 C1195 1.370 . S
C1194 C1198 1.524 . S
C1195 C1187 1.503 . S
C1195 C1194 1.370 . S
C1195 C1196 1.403 . S
C1196 C1195 1.403 . S
C1196 C1197 1.404 . S
C1196 C1199 1.539 . S
C1197 C1193 1.408 . S
C1197 C1196 1.404 . S
C1197 H1209 0.930 . S
C1198 C1194 1.524 . S
C1198 H1210 0.956 . S
C1198 H1211 0.961 . S
C1198 H1212 0.961 . S
C1199 C1196 1.539 . S
C1199 H1213 0.958 . S
C1199 H1214 0.961 . S
C1199 H1215 0.960 . S
H1200 C1184 0.931 . S
H1201 C1189 0.929 . S
H1202 C1190 0.960 . S
H1203 C1190 0.962 . S
H1204 C1190 0.960 . S
H1205 C1191 0.961 . S
H1206 C1191 0.961 . S
H1207 C1191 0.961 . S
H1208 C1192 0.931 . S
H1209 C1197 0.930 . S
H1210 C1198 0.956 . S
H1211 C1198 0.961 . S
H1212 C1198 0.961 . S
H1213 C1199 0.958 . S
H1214 C1199 0.961 . S
H1215 C1199 0.960 . S
C1216 C1217 1.391 . S
C1216 C1218 1.394 . S
C1216 H1232 0.931 . S
C1217 C1216 1.391 . S
C1217 C1221 1.376 . S
C1218 C1216 1.394 . S
C1218 C1219 1.369 . S
C1218 C1222 1.531 . S
C1219 C1218 1.369 . S
C1219 C1220 1.410 . S
C1219 C1227 1.503 . S
C1220 C1219 1.410 . S
C1220 C1221 1.392 . S
C1220 C1223 1.511 . S
C1221 C1217 1.376 . S
C1221 C1220 1.392 . S
C1221 H1233 0.929 . S
C1222 C1218 1.531 . S
C1222 H1234 0.960 . S
C1222 H1235 0.962 . S
C1222 H1236 0.960 . S
C1223 C1220 1.511 . S
C1223 H1237 0.961 . S
C1223 H1238 0.961 . S
C1223 H1239 0.961 . S
C1224 C1225 1.370 . S
C1224 C1226 1.363 . S
C1224 H1240 0.931 . S
C1225 C1224 1.370 . S
C1225 C1229 1.408 . S
C1226 C1224 1.363 . S
C1226 C1227 1.370 . S
C1226 C1230 1.524 . S
C1227 C1219 1.503 . S
C1227 C1226 1.370 . S
C1227 C1228 1.403 . S
C1228 C1227 1.403 . S
C1228 C1229 1.404 . S
C1228 C1231 1.539 . S
C1229 C1225 1.408 . S
C1229 C1228 1.404 . S
C1229 H1241 0.930 . S
C1230 C1226 1.524 . S
C1230 H1242 0.956 . S
C1230 H1243 0.961 . S
C1230 H1244 0.961 . S
C1231 C1228 1.539 . S
C1231 H1245 0.958 . S
C1231 H1246 0.961 . S
C1231 H1247 0.960 . S
H1232 C1216 0.931 . S
H1233 C1221 0.929 . S
H1234 C1222 0.960 . S
H1235 C1222 0.962 . S
H1236 C1222 0.960 . S
H1237 C1223 0.961 . S
H1238 C1223 0.961 . S
H1239 C1223 0.961 . S
H1240 C1224 0.931 . S
H1241 C1229 0.930 . S
H1242 C1230 0.956 . S
H1243 C1230 0.961 . S
H1244 C1230 0.961 . S
H1245 C1231 0.958 . S
H1246 C1231 0.961 . S
H1247 C1231 0.960 . S
C225 C67 1.201 . S
C233 C11 1.182 . S
C257 C81 1.203 . S
C265 C25 1.181 . S
C289 C95 1.201 . S
C297 C39 1.182 . S
C321 C109 1.173 . S
C329 C53 1.194 . S
C353 C179 1.190 . S
C361 C123 1.186 . S
C385 C193 1.184 . S
C393 C137 1.189 . S
C417 C151 1.195 . S
C425 C207 1.184 . S
C449 C221 1.193 . S
C457 C165 1.185 . S
C481 C4 1.112 1_554 S
C489 C74 1.092 . S
C513 C88 1.113 . S
C521 C18 1.096 . S
C545 C32 1.090 . S
C553 C102 1.106 . S
C577 C60 1.076 . S
C585 C46 1.106 1_554 S
C609 C186 1.128 . S
C617 C116 1.088 . S
C641 C200 1.123 . S
C649 C130 1.088 . S
C673 C144 1.078 . S
C681 C214 1.110 . S
C705 C158 1.071 . S
C713 C172 1.112 . S
C737 C215 1.130 . S
C745 C5 1.182 . S
C769 C173 1.177 . S
C777 C19 1.211 . S
C801 C187 1.158 . S
C809 C33 1.202 . S
C833 C201 1.174 . S
C841 C47 1.209 . S
C865 C131 1.137 . S
C873 C61 1.190 . S
C897 C145 1.226 . S
C905 C75 1.223 . S
C929 C89 1.249 . S
C937 C159 1.222 . S
C961 C103 1.232 . S
C969 C117 1.192 . S
C993 C194 1.670 . S
C1001 C40 1.675 . S
C1025 C208 1.672 . S
C1033 C54 1.680 . S
C1057 C222 1.669 . S
C1065 C12 1.675 . S
C1089 C26 1.679 . S
C1097 C180 1.679 . S
C1121 C166 1.670 . S
C1129 C96 1.675 . S
C1153 C110 1.668 . S
C1161 C124 1.676 . S
C1185 C138 1.676 . S
C1193 C68 1.680 . S
C1217 C152 1.671 . S
C1225 C82 1.680 . S
