# Generated by pormake.
# Topology sxk, (6)-cn, num edge types: 1
# Building blocks:
#     Node 0, Type 0, BuildingBlock: MAKGUD_clean_sbu_1, # of connection points: 6
#     Node 1, Type 0, BuildingBlock: MAKGUD_clean_sbu_1, # of connection points: 6
#     Node 2, Type 0, BuildingBlock: MAKGUD_clean_sbu_1, # of connection points: 6
#     Node 3, Type 0, BuildingBlock: MAKGUD_clean_sbu_1, # of connection points: 6
#     Node 4, Type 0, BuildingBlock: MAKGUD_clean_sbu_1, # of connection points: 6
#     Node 5, Type 0, BuildingBlock: MAKGUD_clean_sbu_1, # of connection points: 6
#     Node 6, Type 0, BuildingBlock: MAKGUD_clean_sbu_1, # of connection points: 6
#     Node 7, Type 0, BuildingBlock: MAKGUD_clean_sbu_1, # of connection points: 6
#     Node 8, Type 0, BuildingBlock: MAKGUD_clean_sbu_1, # of connection points: 6
#     Node 9, Type 0, BuildingBlock: MAKGUD_clean_sbu_1, # of connection points: 6
#     Node 10, Type 0, BuildingBlock: MAKGUD_clean_sbu_1, # of connection points: 6
#     Node 11, Type 0, BuildingBlock: MAKGUD_clean_sbu_1, # of connection points: 6
#     Node 12, Type 0, BuildingBlock: MAKGUD_clean_sbu_1, # of connection points: 6
#     Node 13, Type 0, BuildingBlock: MAKGUD_clean_sbu_1, # of connection points: 6
#     Node 14, Type 0, BuildingBlock: MAKGUD_clean_sbu_1, # of connection points: 6
#     Node 15, Type 0, BuildingBlock: MAKGUD_clean_sbu_1, # of connection points: 6
#     Node 16, Type 0, BuildingBlock: MAKGUD_clean_sbu_1, # of connection points: 6
#     Node 17, Type 0, BuildingBlock: MAKGUD_clean_sbu_1, # of connection points: 6
#     Node 18, Type 0, BuildingBlock: MAKGUD_clean_sbu_1, # of connection points: 6
#     Node 19, Type 0, BuildingBlock: MAKGUD_clean_sbu_1, # of connection points: 6
#     Node 20, Type 0, BuildingBlock: MAKGUD_clean_sbu_1, # of connection points: 6
#     Node 21, Type 0, BuildingBlock: MAKGUD_clean_sbu_1, # of connection points: 6
#     Node 22, Type 0, BuildingBlock: MAKGUD_clean_sbu_1, # of connection points: 6
#     Node 23, Type 0, BuildingBlock: MAKGUD_clean_sbu_1, # of connection points: 6
#     Node 24, Type 0, BuildingBlock: MAKGUD_clean_sbu_1, # of connection points: 6
#     Node 25, Type 0, BuildingBlock: MAKGUD_clean_sbu_1, # of connection points: 6
#     Node 26, Type 0, BuildingBlock: MAKGUD_clean_sbu_1, # of connection points: 6
#     Node 27, Type 0, BuildingBlock: MAKGUD_clean_sbu_1, # of connection points: 6
#     Node 28, Type 0, BuildingBlock: MAKGUD_clean_sbu_1, # of connection points: 6
#     Node 29, Type 0, BuildingBlock: MAKGUD_clean_sbu_1, # of connection points: 6
#     Node 30, Type 0, BuildingBlock: MAKGUD_clean_sbu_1, # of connection points: 6
#     Node 31, Type 0, BuildingBlock: MAKGUD_clean_sbu_1, # of connection points: 6
#     Node 32, Type 0, BuildingBlock: MAKGUD_clean_sbu_1, # of connection points: 6
#     Node 33, Type 0, BuildingBlock: MAKGUD_clean_sbu_1, # of connection points: 6
#     Node 34, Type 0, BuildingBlock: MAKGUD_clean_sbu_1, # of connection points: 6
#     Node 35, Type 0, BuildingBlock: MAKGUD_clean_sbu_1, # of connection points: 6
#     Node 36, Type 0, BuildingBlock: MAKGUD_clean_sbu_1, # of connection points: 6
#     Node 37, Type 0, BuildingBlock: MAKGUD_clean_sbu_1, # of connection points: 6
#     Node 38, Type 0, BuildingBlock: MAKGUD_clean_sbu_1, # of connection points: 6
#     Node 39, Type 0, BuildingBlock: MAKGUD_clean_sbu_1, # of connection points: 6
#     Node 40, Type 0, BuildingBlock: MAKGUD_clean_sbu_1, # of connection points: 6
#     Node 41, Type 0, BuildingBlock: MAKGUD_clean_sbu_1, # of connection points: 6
#     Node 42, Type 0, BuildingBlock: MAKGUD_clean_sbu_1, # of connection points: 6
#     Node 43, Type 0, BuildingBlock: MAKGUD_clean_sbu_1, # of connection points: 6
#     Node 44, Type 0, BuildingBlock: MAKGUD_clean_sbu_1, # of connection points: 6
#     Node 45, Type 0, BuildingBlock: MAKGUD_clean_sbu_1, # of connection points: 6
#     Node 46, Type 0, BuildingBlock: MAKGUD_clean_sbu_1, # of connection points: 6
#     Node 47, Type 0, BuildingBlock: MAKGUD_clean_sbu_1, # of connection points: 6
#     Edge 48, Type (0, 0), BuildingBlock: EZIPEK_clean_linker_0, # of connection points: 2
#     Edge 49, Type (0, 0), BuildingBlock: EZIPEK_clean_linker_0, # of connection points: 2
#     Edge 50, Type (0, 0), BuildingBlock: EZIPEK_clean_linker_0, # of connection points: 2
#     Edge 51, Type (0, 0), BuildingBlock: EZIPEK_clean_linker_0, # of connection points: 2
#     Edge 52, Type (0, 0), BuildingBlock: EZIPEK_clean_linker_0, # of connection points: 2
#     Edge 53, Type (0, 0), BuildingBlock: EZIPEK_clean_linker_0, # of connection points: 2
#     Edge 54, Type (0, 0), BuildingBlock: EZIPEK_clean_linker_0, # of connection points: 2
#     Edge 55, Type (0, 0), BuildingBlock: EZIPEK_clean_linker_0, # of connection points: 2
#     Edge 56, Type (0, 0), BuildingBlock: EZIPEK_clean_linker_0, # of connection points: 2
#     Edge 57, Type (0, 0), BuildingBlock: EZIPEK_clean_linker_0, # of connection points: 2
#     Edge 58, Type (0, 0), BuildingBlock: EZIPEK_clean_linker_0, # of connection points: 2
#     Edge 59, Type (0, 0), BuildingBlock: EZIPEK_clean_linker_0, # of connection points: 2
#     Edge 60, Type (0, 0), BuildingBlock: EZIPEK_clean_linker_0, # of connection points: 2
#     Edge 61, Type (0, 0), BuildingBlock: EZIPEK_clean_linker_0, # of connection points: 2
#     Edge 62, Type (0, 0), BuildingBlock: EZIPEK_clean_linker_0, # of connection points: 2
#     Edge 63, Type (0, 0), BuildingBlock: EZIPEK_clean_linker_0, # of connection points: 2
#     Edge 64, Type (0, 0), BuildingBlock: EZIPEK_clean_linker_0, # of connection points: 2
#     Edge 65, Type (0, 0), BuildingBlock: EZIPEK_clean_linker_0, # of connection points: 2
#     Edge 66, Type (0, 0), BuildingBlock: EZIPEK_clean_linker_0, # of connection points: 2
#     Edge 67, Type (0, 0), BuildingBlock: EZIPEK_clean_linker_0, # of connection points: 2
#     Edge 68, Type (0, 0), BuildingBlock: EZIPEK_clean_linker_0, # of connection points: 2
#     Edge 69, Type (0, 0), BuildingBlock: EZIPEK_clean_linker_0, # of connection points: 2
#     Edge 70, Type (0, 0), BuildingBlock: EZIPEK_clean_linker_0, # of connection points: 2
#     Edge 71, Type (0, 0), BuildingBlock: EZIPEK_clean_linker_0, # of connection points: 2
#     Edge 72, Type (0, 0), BuildingBlock: EZIPEK_clean_linker_0, # of connection points: 2
#     Edge 73, Type (0, 0), BuildingBlock: EZIPEK_clean_linker_0, # of connection points: 2
#     Edge 74, Type (0, 0), BuildingBlock: EZIPEK_clean_linker_0, # of connection points: 2
#     Edge 75, Type (0, 0), BuildingBlock: EZIPEK_clean_linker_0, # of connection points: 2
#     Edge 76, Type (0, 0), BuildingBlock: EZIPEK_clean_linker_0, # of connection points: 2
#     Edge 77, Type (0, 0), BuildingBlock: EZIPEK_clean_linker_0, # of connection points: 2
#     Edge 78, Type (0, 0), BuildingBlock: EZIPEK_clean_linker_0, # of connection points: 2
#     Edge 79, Type (0, 0), BuildingBlock: EZIPEK_clean_linker_0, # of connection points: 2
#     Edge 80, Type (0, 0), BuildingBlock: EZIPEK_clean_linker_0, # of connection points: 2
#     Edge 81, Type (0, 0), BuildingBlock: EZIPEK_clean_linker_0, # of connection points: 2
#     Edge 82, Type (0, 0), BuildingBlock: EZIPEK_clean_linker_0, # of connection points: 2
#     Edge 83, Type (0, 0), BuildingBlock: EZIPEK_clean_linker_0, # of connection points: 2
#     Edge 84, Type (0, 0), BuildingBlock: EZIPEK_clean_linker_0, # of connection points: 2
#     Edge 85, Type (0, 0), BuildingBlock: EZIPEK_clean_linker_0, # of connection points: 2
#     Edge 86, Type (0, 0), BuildingBlock: EZIPEK_clean_linker_0, # of connection points: 2
#     Edge 87, Type (0, 0), BuildingBlock: EZIPEK_clean_linker_0, # of connection points: 2
#     Edge 88, Type (0, 0), BuildingBlock: EZIPEK_clean_linker_0, # of connection points: 2
#     Edge 89, Type (0, 0), BuildingBlock: EZIPEK_clean_linker_0, # of connection points: 2
#     Edge 90, Type (0, 0), BuildingBlock: EZIPEK_clean_linker_0, # of connection points: 2
#     Edge 91, Type (0, 0), BuildingBlock: EZIPEK_clean_linker_0, # of connection points: 2
#     Edge 92, Type (0, 0), BuildingBlock: EZIPEK_clean_linker_0, # of connection points: 2
#     Edge 93, Type (0, 0), BuildingBlock: EZIPEK_clean_linker_0, # of connection points: 2
#     Edge 94, Type (0, 0), BuildingBlock: EZIPEK_clean_linker_0, # of connection points: 2
#     Edge 95, Type (0, 0), BuildingBlock: EZIPEK_clean_linker_0, # of connection points: 2
#     Edge 96, Type (0, 0), BuildingBlock: EZIPEK_clean_linker_0, # of connection points: 2
#     Edge 97, Type (0, 0), BuildingBlock: EZIPEK_clean_linker_0, # of connection points: 2
#     Edge 98, Type (0, 0), BuildingBlock: EZIPEK_clean_linker_0, # of connection points: 2
#     Edge 99, Type (0, 0), BuildingBlock: EZIPEK_clean_linker_0, # of connection points: 2
#     Edge 100, Type (0, 0), BuildingBlock: EZIPEK_clean_linker_0, # of connection points: 2
#     Edge 101, Type (0, 0), BuildingBlock: EZIPEK_clean_linker_0, # of connection points: 2
#     Edge 102, Type (0, 0), BuildingBlock: EZIPEK_clean_linker_0, # of connection points: 2
#     Edge 103, Type (0, 0), BuildingBlock: EZIPEK_clean_linker_0, # of connection points: 2
#     Edge 104, Type (0, 0), BuildingBlock: EZIPEK_clean_linker_0, # of connection points: 2
#     Edge 105, Type (0, 0), BuildingBlock: EZIPEK_clean_linker_0, # of connection points: 2
#     Edge 106, Type (0, 0), BuildingBlock: EZIPEK_clean_linker_0, # of connection points: 2
#     Edge 107, Type (0, 0), BuildingBlock: EZIPEK_clean_linker_0, # of connection points: 2
#     Edge 108, Type (0, 0), BuildingBlock: EZIPEK_clean_linker_0, # of connection points: 2
#     Edge 109, Type (0, 0), BuildingBlock: EZIPEK_clean_linker_0, # of connection points: 2
#     Edge 110, Type (0, 0), BuildingBlock: EZIPEK_clean_linker_0, # of connection points: 2
#     Edge 111, Type (0, 0), BuildingBlock: EZIPEK_clean_linker_0, # of connection points: 2
#     Edge 112, Type (0, 0), BuildingBlock: EZIPEK_clean_linker_0, # of connection points: 2
#     Edge 113, Type (0, 0), BuildingBlock: EZIPEK_clean_linker_0, # of connection points: 2
#     Edge 114, Type (0, 0), BuildingBlock: EZIPEK_clean_linker_0, # of connection points: 2
#     Edge 115, Type (0, 0), BuildingBlock: EZIPEK_clean_linker_0, # of connection points: 2
#     Edge 116, Type (0, 0), BuildingBlock: EZIPEK_clean_linker_0, # of connection points: 2
#     Edge 117, Type (0, 0), BuildingBlock: EZIPEK_clean_linker_0, # of connection points: 2
#     Edge 118, Type (0, 0), BuildingBlock: EZIPEK_clean_linker_0, # of connection points: 2
#     Edge 119, Type (0, 0), BuildingBlock: EZIPEK_clean_linker_0, # of connection points: 2
#     Edge 120, Type (0, 0), BuildingBlock: EZIPEK_clean_linker_0, # of connection points: 2
#     Edge 121, Type (0, 0), BuildingBlock: EZIPEK_clean_linker_0, # of connection points: 2
#     Edge 122, Type (0, 0), BuildingBlock: EZIPEK_clean_linker_0, # of connection points: 2
#     Edge 123, Type (0, 0), BuildingBlock: EZIPEK_clean_linker_0, # of connection points: 2
#     Edge 124, Type (0, 0), BuildingBlock: EZIPEK_clean_linker_0, # of connection points: 2
#     Edge 125, Type (0, 0), BuildingBlock: EZIPEK_clean_linker_0, # of connection points: 2
#     Edge 126, Type (0, 0), BuildingBlock: EZIPEK_clean_linker_0, # of connection points: 2
#     Edge 127, Type (0, 0), BuildingBlock: EZIPEK_clean_linker_0, # of connection points: 2
#     Edge 128, Type (0, 0), BuildingBlock: EZIPEK_clean_linker_0, # of connection points: 2
#     Edge 129, Type (0, 0), BuildingBlock: EZIPEK_clean_linker_0, # of connection points: 2
#     Edge 130, Type (0, 0), BuildingBlock: EZIPEK_clean_linker_0, # of connection points: 2
#     Edge 131, Type (0, 0), BuildingBlock: EZIPEK_clean_linker_0, # of connection points: 2
#     Edge 132, Type (0, 0), BuildingBlock: EZIPEK_clean_linker_0, # of connection points: 2
#     Edge 133, Type (0, 0), BuildingBlock: EZIPEK_clean_linker_0, # of connection points: 2
#     Edge 134, Type (0, 0), BuildingBlock: EZIPEK_clean_linker_0, # of connection points: 2
#     Edge 135, Type (0, 0), BuildingBlock: EZIPEK_clean_linker_0, # of connection points: 2
#     Edge 136, Type (0, 0), BuildingBlock: EZIPEK_clean_linker_0, # of connection points: 2
#     Edge 137, Type (0, 0), BuildingBlock: EZIPEK_clean_linker_0, # of connection points: 2
#     Edge 138, Type (0, 0), BuildingBlock: EZIPEK_clean_linker_0, # of connection points: 2
#     Edge 139, Type (0, 0), BuildingBlock: EZIPEK_clean_linker_0, # of connection points: 2
#     Edge 140, Type (0, 0), BuildingBlock: EZIPEK_clean_linker_0, # of connection points: 2
#     Edge 141, Type (0, 0), BuildingBlock: EZIPEK_clean_linker_0, # of connection points: 2
#     Edge 142, Type (0, 0), BuildingBlock: EZIPEK_clean_linker_0, # of connection points: 2
#     Edge 143, Type (0, 0), BuildingBlock: EZIPEK_clean_linker_0, # of connection points: 2
#     Edge 144, Type (0, 0), BuildingBlock: EZIPEK_clean_linker_0, # of connection points: 2
#     Edge 145, Type (0, 0), BuildingBlock: EZIPEK_clean_linker_0, # of connection points: 2
#     Edge 146, Type (0, 0), BuildingBlock: EZIPEK_clean_linker_0, # of connection points: 2
#     Edge 147, Type (0, 0), BuildingBlock: EZIPEK_clean_linker_0, # of connection points: 2
#     Edge 148, Type (0, 0), BuildingBlock: EZIPEK_clean_linker_0, # of connection points: 2
#     Edge 149, Type (0, 0), BuildingBlock: EZIPEK_clean_linker_0, # of connection points: 2
#     Edge 150, Type (0, 0), BuildingBlock: EZIPEK_clean_linker_0, # of connection points: 2
#     Edge 151, Type (0, 0), BuildingBlock: EZIPEK_clean_linker_0, # of connection points: 2
#     Edge 152, Type (0, 0), BuildingBlock: EZIPEK_clean_linker_0, # of connection points: 2
#     Edge 153, Type (0, 0), BuildingBlock: EZIPEK_clean_linker_0, # of connection points: 2
#     Edge 154, Type (0, 0), BuildingBlock: EZIPEK_clean_linker_0, # of connection points: 2
#     Edge 155, Type (0, 0), BuildingBlock: EZIPEK_clean_linker_0, # of connection points: 2
#     Edge 156, Type (0, 0), BuildingBlock: EZIPEK_clean_linker_0, # of connection points: 2
#     Edge 157, Type (0, 0), BuildingBlock: EZIPEK_clean_linker_0, # of connection points: 2
#     Edge 158, Type (0, 0), BuildingBlock: EZIPEK_clean_linker_0, # of connection points: 2
#     Edge 159, Type (0, 0), BuildingBlock: EZIPEK_clean_linker_0, # of connection points: 2
#     Edge 160, Type (0, 0), BuildingBlock: EZIPEK_clean_linker_0, # of connection points: 2
#     Edge 161, Type (0, 0), BuildingBlock: EZIPEK_clean_linker_0, # of connection points: 2
#     Edge 162, Type (0, 0), BuildingBlock: EZIPEK_clean_linker_0, # of connection points: 2
#     Edge 163, Type (0, 0), BuildingBlock: EZIPEK_clean_linker_0, # of connection points: 2
#     Edge 164, Type (0, 0), BuildingBlock: EZIPEK_clean_linker_0, # of connection points: 2
#     Edge 165, Type (0, 0), BuildingBlock: EZIPEK_clean_linker_0, # of connection points: 2
#     Edge 166, Type (0, 0), BuildingBlock: EZIPEK_clean_linker_0, # of connection points: 2
#     Edge 167, Type (0, 0), BuildingBlock: EZIPEK_clean_linker_0, # of connection points: 2
#     Edge 168, Type (0, 0), BuildingBlock: EZIPEK_clean_linker_0, # of connection points: 2
#     Edge 169, Type (0, 0), BuildingBlock: EZIPEK_clean_linker_0, # of connection points: 2
#     Edge 170, Type (0, 0), BuildingBlock: EZIPEK_clean_linker_0, # of connection points: 2
#     Edge 171, Type (0, 0), BuildingBlock: EZIPEK_clean_linker_0, # of connection points: 2
#     Edge 172, Type (0, 0), BuildingBlock: EZIPEK_clean_linker_0, # of connection points: 2
#     Edge 173, Type (0, 0), BuildingBlock: EZIPEK_clean_linker_0, # of connection points: 2
#     Edge 174, Type (0, 0), BuildingBlock: EZIPEK_clean_linker_0, # of connection points: 2
#     Edge 175, Type (0, 0), BuildingBlock: EZIPEK_clean_linker_0, # of connection points: 2
#     Edge 176, Type (0, 0), BuildingBlock: EZIPEK_clean_linker_0, # of connection points: 2
#     Edge 177, Type (0, 0), BuildingBlock: EZIPEK_clean_linker_0, # of connection points: 2
#     Edge 178, Type (0, 0), BuildingBlock: EZIPEK_clean_linker_0, # of connection points: 2
#     Edge 179, Type (0, 0), BuildingBlock: EZIPEK_clean_linker_0, # of connection points: 2
#     Edge 180, Type (0, 0), BuildingBlock: EZIPEK_clean_linker_0, # of connection points: 2
#     Edge 181, Type (0, 0), BuildingBlock: EZIPEK_clean_linker_0, # of connection points: 2
#     Edge 182, Type (0, 0), BuildingBlock: EZIPEK_clean_linker_0, # of connection points: 2
#     Edge 183, Type (0, 0), BuildingBlock: EZIPEK_clean_linker_0, # of connection points: 2
#     Edge 184, Type (0, 0), BuildingBlock: EZIPEK_clean_linker_0, # of connection points: 2
#     Edge 185, Type (0, 0), BuildingBlock: EZIPEK_clean_linker_0, # of connection points: 2
#     Edge 186, Type (0, 0), BuildingBlock: EZIPEK_clean_linker_0, # of connection points: 2
#     Edge 187, Type (0, 0), BuildingBlock: EZIPEK_clean_linker_0, # of connection points: 2
#     Edge 188, Type (0, 0), BuildingBlock: EZIPEK_clean_linker_0, # of connection points: 2
#     Edge 189, Type (0, 0), BuildingBlock: EZIPEK_clean_linker_0, # of connection points: 2
#     Edge 190, Type (0, 0), BuildingBlock: EZIPEK_clean_linker_0, # of connection points: 2
#     Edge 191, Type (0, 0), BuildingBlock: EZIPEK_clean_linker_0, # of connection points: 2
# Relax obj value: 0.201
# Max RMSD: 0.241
# Mean RMSD: 0.241
data_MOF--net-sxk--node1-MAKGUD_clean_sbu_1--edge1-EZIPEK_clean_linker_0
_symmetry_space_group_name_H-M    P1
_symmetry_Int_Tables_number       1
_symmetry_cell_setting            triclinic
loop_
_symmetry_equiv_pos_as_xyz
'x, y, z'
_cell_length_a     48.970878
_cell_length_b     49.126813
_cell_length_c     49.174769
_cell_angle_alpha  89.951482
_cell_angle_beta   90.35463
_cell_angle_gamma 89.999335
loop_
_atom_site_label
_atom_site_type_symbol
_atom_site_fract_x
_atom_site_fract_y
_atom_site_fract_z
_atom_type_partial_charge
O0 O 0.14391 0.10204 0.3027 0.0
Tb1 Tb 0.13505 0.14545 0.29772 0.0
C2 C 0.13167 0.20446 0.26906 0.0
O3 O 0.09582 0.19147 0.32817 0.0
Tb4 Tb 0.11693 0.23019 0.32427 0.0
C5 C 0.07995 0.26725 0.31064 0.0
O6 O 0.1201 0.15355 0.33936 0.0
O7 O 0.13321 0.24746 0.36253 0.0
C8 C 0.14664 0.27089 0.36209 0.0
O9 O 0.15603 0.27955 0.33865 0.0
O10 O 0.12653 0.17782 0.26684 0.0
O11 O 0.14254 0.21451 0.29163 0.0
O12 O 0.17862 0.14088 0.2888 0.0
C13 C 0.10312 0.1733 0.34629 0.0
C14 C 0.12415 0.09226 0.28797 0.0
O15 O 0.07503 0.24413 0.32247 0.0
O16 O 0.10589 0.26903 0.30515 0.0
C17 C 0.19508 0.15959 0.27903 0.0
O18 O 0.18918 0.18545 0.28182 0.0
O19 O 0.10974 0.11282 0.2786 0.0
O20 O 0.35081 0.67579 1.00238 0.0
Tb21 Tb 0.39329 0.68357 1.01362 0.0
C22 C 0.45352 0.6837 0.03316 0.0
O23 O 0.43536 0.69435 0.95605 0.0
Tb24 Tb 0.47526 0.69251 0.97558 0.0
C25 C 0.49583 0.74051 0.98852 0.0
O26 O 0.40079 0.71388 0.98102 0.0
O27 O 0.50742 0.67371 0.95123 0.0
C28 C 0.50494 0.67112 0.92465 0.0
O29 O 0.48044 0.67292 0.91375 0.0
O30 O 0.42852 0.69052 0.04094 0.0
O31 O 0.45569 0.67182 1.00935 0.0
O32 O 0.39625 0.63984 1.02184 0.0
C33 C 0.41864 0.71478 0.96084 0.0
C34 C 0.33968 0.68806 1.02305 0.0
O35 O 0.48142 0.73545 0.96678 0.0
O36 O 0.49807 0.71869 1.00335 0.0
C37 C 0.39567 0.63314 0.04796 0.0
O38 O 0.39707 0.65276 0.06604 0.0
O39 O 0.35902 0.69854 0.03852 0.0
O40 O 0.92873 0.46215 0.32024 0.0
Tb41 Tb 0.93198 0.4194 0.30857 0.0
C42 C 0.92611 0.36233 0.28098 0.0
O43 O 0.94182 0.37903 0.36775 0.0
Tb44 Tb 0.93617 0.34613 0.33906 0.0
C45 C 0.98488 0.32951 0.32241 0.0
O46 O 0.96109 0.41327 0.34227 0.0
O47 O 0.92037 0.31434 0.36657 0.0
C48 C 0.93558 0.30654 0.3876 0.0
O49 O 0.95825 0.31988 0.39275 0.0
O50 O 0.94129 0.3848 0.2816 0.0
O51 O 0.91215 0.35575 0.30287 0.0
O52 O 0.88823 0.41685 0.29921 0.0
C53 C 0.96111 0.39729 0.36388 0.0
C54 C 0.93978 0.47288 0.2987 0.0
O55 O 0.97702 0.35462 0.32353 0.0
O56 O 0.96556 0.31374 0.331 0.0
C57 C 0.88227 0.42334 0.27366 0.0
O58 O 0.90246 0.42977 0.25748 0.0
O59 O 0.94716 0.4529 0.28257 0.0
O60 O 0.55287 0.86003 0.99819 0.0
Tb61 Tb 0.58921 0.88164 0.98475 0.0
C62 C 0.64168 0.85614 0.96125 0.0
O63 O 0.6329 0.87807 0.04539 0.0
Tb64 Tb 0.66582 0.88623 1.01629 0.0
C65 C 0.71952 0.8802 1.02493 0.0
O66 O 0.60372 0.9037 1.01993 0.0
O67 O 0.66387 0.93003 1.02456 0.0
C68 C 0.6648 0.93685 0.05064 0.0
O69 O 0.66297 0.91736 0.06883 0.0
O70 O 0.62243 0.87441 0.95652 0.0
O71 O 0.65797 0.85702 0.98292 0.0
O72 O 0.55761 0.89957 0.9588 0.0
C73 C 0.60876 0.88995 0.04235 0.0
C74 C 0.56356 0.83591 0.99782 0.0
O75 O 0.70034 0.86976 0.04031 0.0
O76 O 0.70821 0.89348 1.00487 0.0
C77 C 0.56109 0.90653 0.93323 0.0
O78 O 0.58598 0.90962 0.92392 0.0
O79 O 0.58921 0.83769 0.9914 0.0
O80 O 0.13627 0.963 0.24787 0.0
Tb81 Tb 0.12991 0.92038 0.25908 0.0
C82 C 0.13717 0.86261 0.28586 0.0
O83 O 0.12618 0.87637 0.20342 0.0
Tb84 Tb 0.12705 0.83976 0.22865 0.0
C85 C 0.07984 0.81867 0.24541 0.0
O86 O 0.10203 0.90973 0.22505 0.0
O87 O 0.14197 0.80594 0.20325 0.0
C88 C 0.15343 0.80812 0.17911 0.0
O89 O 0.1623 0.832 0.17099 0.0
O90 O 0.12501 0.88673 0.28831 0.0
O91 O 0.14967 0.85622 0.26303 0.0
O92 O 0.1735 0.91988 0.26935 0.0
C93 C 0.10514 0.89295 0.20418 0.0
C94 C 0.12231 0.97405 0.26751 0.0
O95 O 0.08242 0.83895 0.22855 0.0
O96 O 0.10393 0.81118 0.25365 0.0
C97 C 0.17843 0.92299 0.29571 0.0
O98 O 0.15729 0.92342 0.31203 0.0
O99 O 0.1118 0.95446 0.28243 0.0
O100 O 0.05473 0.70873 0.07462 0.0
Tb101 Tb 0.09215 0.68748 0.08622 0.0
C102 C 0.14633 0.71265 0.1073 0.0
O103 O 0.1343 0.68644 1.02507 0.0
Tb104 Tb 0.16817 0.67879 0.0536 0.0
C105 C 0.22173 0.68443 0.04413 0.0
O106 O 0.10335 0.66324 0.0511 0.0
O107 O 0.16542 0.63508 0.04395 0.0
C108 C 0.16776 0.62892 1.01774 0.0
O109 O 0.16858 0.64908 1.00021 0.0
O110 O 0.12659 0.6954 0.11323 0.0
O111 O 0.16203 0.71 0.08554 0.0
O112 O 0.06476 0.66904 0.11627 0.0
C113 C 0.10981 0.67519 1.02799 0.0
C114 C 0.06579 0.73251 0.07154 0.0
O115 O 0.20216 0.69488 1.02899 0.0
O116 O 0.21087 0.67124 0.0644 0.0
C117 C 0.05502 0.68463 0.1359 0.0
O118 O 0.06419 0.70965 0.13821 0.0
O119 O 0.09196 0.73077 0.07585 0.0
O120 O 0.92985 0.59833 0.25552 0.0
Tb121 Tb 0.93387 0.64218 0.26234 0.0
C122 C 0.92784 0.70248 0.2823 0.0
O123 O 0.94258 0.6837 0.20522 0.0
Tb124 Tb 0.93947 0.72351 0.2241 0.0
C125 C 0.98564 0.74802 0.23825 0.0
O126 O 0.96387 0.64989 0.2297 0.0
O127 O 0.92036 0.7517 0.19512 0.0
C128 C 0.93278 0.75639 0.17177 0.0
O129 O 0.95309 0.74047 0.16473 0.0
O130 O 0.93651 0.67783 0.28956 0.0
O131 O 0.91713 0.70574 0.25784 0.0
O132 O 0.88934 0.64288 0.26602 0.0
C133 C 0.96384 0.66794 0.20967 0.0
C134 C 0.94318 0.59033 0.27708 0.0
O135 O 0.98356 0.72793 0.22111 0.0
O136 O 0.96176 0.75344 0.24842 0.0
C137 C 0.88069 0.63803 0.29103 0.0
O138 O 0.89915 0.6347 0.31021 0.0
O139 O 0.95159 0.61179 0.29064 0.0
O140 O 0.84977 0.89117 0.0635 0.0
Tb141 Tb 0.89173 0.88288 0.05151 0.0
C142 C 0.95073 0.88496 1.02751 0.0
O143 O 0.93656 0.87338 0.10539 0.0
Tb144 Tb 0.97538 0.87478 0.08445 0.0
C145 C 0.99629 0.827 0.0702 0.0
O146 O 0.90033 0.853 0.08396 0.0
O147 O 1.00714 0.89483 0.10875 0.0
C148 C 1.00746 0.89229 0.13547 0.0
O149 O 0.98579 0.88241 0.14761 0.0
O150 O 0.92553 0.87584 1.023 0.0
O151 O 0.95656 0.89688 0.05085 0.0
O152 O 0.8948 0.92627 0.04196 0.0
C153 C 0.91994 0.85255 0.10254 0.0
C154 C 0.83793 0.8782 0.04352 0.0
O155 O 0.98223 0.83161 0.0921 0.0
O156 O 0.99822 0.84934 0.0561 0.0
C157 C 0.89232 0.93208 1.01572 0.0
O158 O 0.89116 0.91174 0.99843 0.0
O159 O 0.85665 0.86721 1.02791 0.0
O160 O 0.30942 0.13586 0.10169 0.0
Tb161 Tb 0.30259 0.12751 0.1447 0.0
C162 C 0.28316 0.13454 0.20405 0.0
O163 O 0.36192 0.12555 0.18592 0.0
Tb164 Tb 0.34076 0.12573 0.22473 0.0
C165 C 0.32465 0.07822 0.24524 0.0
O166 O 0.3384 0.10104 0.154 0.0
O167 O 0.36596 0.14245 0.2579 0.0
C168 C 0.38911 0.15586 0.25527 0.0
O169 O 0.39572 0.16593 0.23144 0.0
O170 O 0.27581 0.12379 0.18033 0.0
O171 O 0.30699 0.14662 0.20513 0.0
O172 O 0.28444 0.16825 0.14436 0.0
C173 C 0.36035 0.10441 0.16967 0.0
C174 C 0.29207 0.11799 0.09219 0.0
O175 O 0.34472 0.0816 0.22835 0.0
O176 O 0.31318 0.1016 0.2499 0.0
C177 C 0.29396 0.19162 0.15321 0.0
O178 O 0.31866 0.19326 0.16364 0.0
O179 O 0.28032 0.10519 0.11255 0.0
O180 O 0.39337 0.50592 0.21228 0.0
Tb181 Tb 0.38208 0.51035 0.16946 0.0
C182 C 0.38413 0.53236 0.10847 0.0
O183 O 0.37595 0.45684 0.12763 0.0
Tb184 Tb 0.37244 0.47405 0.08736 0.0
C185 C 0.32263 0.48585 0.06954 0.0
O186 O 0.35528 0.47463 0.1647 0.0
O187 O 0.38965 0.44878 0.05511 0.0
C188 C 0.39538 0.42284 0.05887 0.0
O189 O 0.39701 0.41351 0.08388 0.0
O190 O 0.37491 0.53675 0.13364 0.0
O191 O 0.39568 0.50901 0.10192 0.0
O192 O 0.4252 0.52058 0.16479 0.0
C193 C 0.35533 0.45706 0.1445 0.0
C194 C 0.37646 0.52393 0.22187 0.0
O195 O 0.32919 0.46453 0.0839 0.0
O196 O 0.34412 0.50101 0.06596 0.0
C197 C 0.43053 0.54657 0.16957 0.0
O198 O 0.41002 0.56286 0.17499 0.0
O199 O 0.36258 0.53488 0.20168 0.0
O200 O 0.75583 0.42491 0.09964 0.0
Tb201 Tb 0.7665 0.43136 0.14228 0.0
C202 C 0.78838 0.42925 0.20221 0.0
O203 O 0.70928 0.44098 0.18345 0.0
Tb204 Tb 0.72985 0.43883 0.22266 0.0
C205 C 0.7435 0.48663 0.24434 0.0
O206 O 0.73344 0.4612 0.1491 0.0
O207 O 0.70264 0.41882 0.25183 0.0
C208 C 0.68102 0.43251 0.26024 0.0
O209 O 0.67526 0.45582 0.24842 0.0
O210 O 0.79374 0.4386 0.17742 0.0
O211 O 0.76504 0.41673 0.20697 0.0
O212 O 0.77553 0.38755 0.1441 0.0
C213 C 0.71326 0.4616 0.16685 0.0
C214 C 0.77618 0.43841 0.08926 0.0
O215 O 0.72391 0.48269 0.22683 0.0
O216 O 0.75546 0.46355 0.24958 0.0
C217 C 0.80184 0.38116 0.14304 0.0
O218 O 0.81969 0.40109 0.14435 0.0
O219 O 0.79139 0.44836 0.10903 0.0
O220 O 0.7111 0.05717 0.06426 0.0
Tb221 Tb 0.68964 0.088 0.08797 0.0
C222 C 0.71478 0.10141 0.14472 0.0
O223 O 0.68182 1.02397 0.14082 0.0
Tb224 Tb 0.67988 0.05233 0.1752 0.0
C225 C 0.69282 0.03981 0.22666 0.0
O226 O 0.66924 0.05824 0.11308 0.0
O227 O 0.63604 0.04524 0.18155 0.0
C228 C 0.61865 0.0364 0.16299 0.0
O229 O 0.62142 0.04426 0.13769 0.0
O230 O 0.69516 0.108 0.12737 0.0
O231 O 0.71097 0.08383 0.165 0.0
O232 O 0.66832 0.11325 0.05772 0.0
C233 C 0.6768 0.03271 0.11583 0.0
C234 C 0.73413 0.07043 0.06326 0.0
O235 O 0.69915 1.02501 0.20539 0.0
O236 O 0.6796 0.06139 0.21865 0.0
C237 C 0.67436 0.13939 0.05571 0.0
O238 O 0.6877 0.15101 0.07586 0.0
O239 O 0.73206 0.09328 0.07655 0.0
O240 O 0.32013 0.92772 0.45999 0.0
Tb241 Tb 0.30694 0.93557 0.41817 0.0
C242 C 0.27833 0.93141 0.3616 0.0
O243 O 0.36465 0.94616 0.37612 0.0
Tb244 Tb 0.33663 0.9389 0.34251 0.0
C245 C 0.32417 0.98462 0.31601 0.0
O246 O 0.33948 0.96549 0.41066 0.0
O247 O 0.36567 0.91905 0.31497 0.0
C248 C 0.38632 0.93379 0.30581 0.0
O249 O 0.39007 0.95826 0.31586 0.0
O250 O 0.27869 0.94559 0.38458 0.0
O251 O 0.30015 0.91698 0.35565 0.0
O252 O 0.29694 0.89225 0.41411 0.0
C253 C 0.36049 0.96575 0.3939 0.0
C254 C 0.29958 0.93931 0.47214 0.0
O255 O 0.32836 0.98272 0.34207 0.0
O256 O 0.32629 0.96075 0.30507 0.0
C257 C 0.27091 0.88644 0.41869 0.0
O258 O 0.25401 0.90674 0.42275 0.0
O259 O 0.28315 0.94972 0.45357 0.0
O260 O 0.17254 0.49236 0.85229 0.0
Tb261 Tb 0.17753 0.50349 0.89512 0.0
C262 C 0.17258 0.52896 0.9541 0.0
O263 O 0.18614 0.44577 0.93816 0.0
Tb264 Tb 0.18111 0.47022 0.97452 0.0
C265 C 0.22703 0.48301 1.00054 0.0
O266 O 0.20655 0.47011 0.90369 0.0
O267 O 0.16197 0.44017 1.00177 0.0
C268 C 0.17692 0.41953 1.01086 0.0
O269 O 0.20137 0.41598 1.00067 0.0
O270 O 0.18418 0.5315 0.92972 0.0
O271 O 0.15939 0.50644 0.96071 0.0
O272 O 0.13399 0.51356 0.89565 0.0
C273 C 0.20664 0.44982 0.92142 0.0
C274 C 0.18581 0.51281 0.84176 0.0
O275 O 0.22536 0.47557 0.97522 0.0
O276 O 0.20272 0.48419 1.01085 0.0
C277 C 0.129 0.53982 0.89189 0.0
O278 O 0.14999 0.55641 0.89063 0.0
O279 O 0.19509 0.52812 0.86173 0.0
O280 O 0.75852 0.63323 0.46231 0.0
Tb281 Tb 0.76782 0.63259 0.41895 0.0
C282 C 0.78664 0.63628 0.35839 0.0
O283 O 0.7051 0.61881 0.37886 0.0
Tb284 Tb 0.72779 0.62563 0.34155 0.0
C285 C 0.74133 0.58124 0.31392 0.0
O286 O 0.7349 0.60225 0.4122 0.0
O287 O 0.69743 0.64514 0.31511 0.0
C288 C 0.67837 0.62953 0.30412 0.0
O289 O 0.67635 0.60417 0.31223 0.0
O290 O 0.79411 0.62755 0.38292 0.0
O291 O 0.76277 0.64818 0.35559 0.0
O292 O 0.77383 0.67647 0.42532 0.0
C293 C 0.71239 0.60035 0.39705 0.0
C294 C 0.78069 0.62131 0.47083 0.0
O295 O 0.73423 0.58177 0.33935 0.0
O296 O 0.74188 0.6059 0.30448 0.0
C297 C 0.78898 0.69185 0.4094 0.0
O298 O 0.78876 0.68745 0.38324 0.0
O299 O 0.79599 0.61528 0.4498 0.0
O300 O 0.85052 0.07271 1.00644 0.0
Tb301 Tb 0.87335 0.08754 0.97156 0.0
C302 C 0.85005 0.11182 0.91794 0.0
O303 O 0.87633 1.02839 0.92699 0.0
Tb304 Tb 0.88336 0.05813 0.89443 0.0
C305 C 0.87754 0.04972 0.84079 0.0
O306 O 0.89904 0.05426 0.95847 0.0
O307 O 0.92697 0.04824 0.8965 0.0
C308 C 0.93228 1.02231 0.89109 0.0
O309 O 0.91146 1.00583 0.88743 0.0
O310 O 0.86615 0.11671 0.93903 0.0
O311 O 0.85293 0.09058 0.90152 0.0
O312 O 0.88832 0.11365 1.00476 0.0
C313 C 0.88772 1.03098 0.95143 0.0
C314 C 0.82738 0.06965 0.99391 0.0
O315 O 0.86754 0.03395 0.85991 0.0
O316 O 0.89001 0.07021 0.85225 0.0
C317 C 0.89372 0.13988 1.0027 0.0
O318 O 0.89543 0.15091 0.97843 0.0
O319 O 0.83039 0.07556 0.9683 0.0
O320 O 0.10621 0.30525 0.14371 0.0
Tb321 Tb 0.15018 0.29669 0.14299 0.0
C322 C 0.21057 0.27688 0.14977 0.0
O323 O 0.18783 0.35591 0.12222 0.0
Tb324 Tb 0.2255 0.33369 0.1297 0.0
C325 C 0.24954 0.31582 0.08466 0.0
O326 O 0.15591 0.32422 0.10729 0.0
O327 O 0.25249 0.36624 0.14449 0.0
C328 C 0.26397 0.38279 0.12667 0.0
O329 O 0.25709 0.3808 0.10091 0.0
O330 O 0.18565 0.26881 0.14252 0.0
O331 O 0.21402 0.3021 0.15794 0.0
O332 O 0.15421 0.31167 0.18481 0.0
C333 C 0.16972 0.34742 0.10416 0.0
C334 C 0.09753 0.28091 0.13806 0.0
O335 O 0.22364 0.32096 0.08714 0.0
O336 O 0.26152 0.31943 0.10801 0.0
C337 C 0.14856 0.29953 0.20839 0.0
O338 O 0.15108 0.31425 0.23053 0.0
O339 O 0.11877 0.26492 0.13538 0.0
O340 O 0.10891 0.74922 0.42315 0.0
Tb341 Tb 0.15145 0.75945 0.43181 0.0
C342 C 0.20959 0.78542 0.42759 0.0
O343 O 0.19214 0.69913 0.4472 0.0
Tb344 Tb 0.22619 0.72664 0.44038 0.0
C345 C 0.25186 0.73989 0.48632 0.0
O346 O 0.15649 0.72645 0.46192 0.0
O347 O 0.25429 0.69692 0.42234 0.0
C348 C 0.26345 0.67664 0.43764 0.0
O349 O 0.2534 0.67346 0.46214 0.0
O350 O 0.18571 0.78727 0.44018 0.0
O351 O 0.21718 0.76247 0.41592 0.0
O352 O 0.15324 0.77002 0.38848 0.0
C353 C 0.17207 0.7045 0.46414 0.0
C354 C 0.09789 0.76942 0.43629 0.0
O355 O 0.22553 0.73732 0.4836 0.0
O356 O 0.2634 0.73602 0.46301 0.0
C357 C 0.15158 0.7965 0.38332 0.0
O358 O 0.1531 0.81337 0.40398 0.0
O359 O 0.11732 0.78416 0.44756 0.0
O360 O 1.0001 0.71138 0.88489 0.0
Tb361 Tb 1.01207 0.66932 0.87728 0.0
C362 C 0.03655 0.61225 0.88354 0.0
O363 O 0.95347 0.6244 0.85679 0.0
Tb364 Tb 0.98132 0.59114 0.86663 0.0
C365 C 1.00664 0.5675 0.82476 0.0
O366 O 0.98077 0.66184 0.84528 0.0
O367 O 0.95286 0.55967 0.88043 0.0
C368 C 0.92689 0.56403 0.88587 0.0
O369 O 0.91784 0.58915 0.88739 0.0
O370 O 0.04165 0.63626 0.87245 0.0
O371 O 1.01206 0.6078 0.89348 0.0
O372 O 1.02022 0.66717 0.92122 0.0
C373 C 0.95935 0.64561 0.84137 0.0
C374 C 1.02069 0.72284 0.87267 0.0
O375 O 0.99332 0.59046 0.82384 0.0
O376 O 1.00507 0.55794 0.8493 0.0
C377 C 0.0463 0.67028 0.92816 0.0
O378 O 0.06436 0.67147 0.90856 0.0
O379 O 0.03654 0.7039 0.86238 0.0
O380 O 0.97017 0.81269 0.4226 0.0
Tb381 Tb 0.92686 0.8026 0.42713 0.0
C382 C 0.8685 0.77387 0.43288 0.0
O383 O 0.88556 0.86031 0.43956 0.0
Tb384 Tb 0.8497 0.83453 0.43779 0.0
C385 C 0.82013 0.82963 0.48271 0.0
O386 O 0.92191 0.83596 0.45675 0.0
O387 O 0.82269 0.86224 0.41505 0.0
C388 C 0.81371 0.88407 0.42803 0.0
O389 O 0.8247 0.89012 0.4517 0.0
O390 O 0.89487 0.77353 0.43967 0.0
O391 O 0.85711 0.79466 0.41991 0.0
O392 O 0.92759 0.79669 0.38252 0.0
C393 C 0.90464 0.85659 0.45809 0.0
C394 C 0.98013 0.79152 0.43505 0.0
O395 O 0.84676 0.82874 0.48199 0.0
O396 O 0.81073 0.83289 0.45833 0.0
C397 C 0.90937 0.78261 0.36841 0.0
O398 O 0.88423 0.78107 0.37702 0.0
O399 O 0.95988 0.77628 0.4434 0.0
O400 O 0.5669 0.35221 0.39018 0.0
Tb401 Tb 0.55476 0.39396 0.38123 0.0
C402 C 0.53364 0.45321 0.38026 0.0
O403 O 0.61255 0.43677 0.3732 0.0
Tb404 Tb 0.59144 0.47569 0.37409 0.0
C405 C 0.58001 0.49544 0.3252 0.0
O406 O 0.58846 0.40198 0.35268 0.0
O407 O 0.6148 0.50835 0.39359 0.0
C408 C 0.64043 0.50522 0.40129 0.0
O409 O 0.65002 0.48043 0.40445 0.0
O410 O 0.52708 0.42818 0.37245 0.0
O411 O 0.55679 0.45623 0.39357 0.0
O412 O 0.54279 0.39793 0.42378 0.0
C413 C 0.6088 0.41974 0.35284 0.0
C414 C 0.54727 0.3403 0.37664 0.0
O415 O 0.60178 0.48158 0.33151 0.0
O416 O 0.5644 0.49781 0.34636 0.0
C417 C 0.51626 0.3947 0.42787 0.0
O418 O 0.5002 0.39187 0.40657 0.0
O419 O 0.53176 0.35889 0.36499 0.0
O420 O 0.46495 0.75388 0.64487 0.0
Tb421 Tb 0.42163 0.75882 0.63543 0.0
C422 C 0.36031 0.77739 0.64005 0.0
O423 O 0.38075 0.70131 0.63064 0.0
Tb424 Tb 0.34047 0.71935 0.62929 0.0
C425 C 0.31956 0.73586 0.58229 0.0
O426 O 0.41686 0.72202 0.60998 0.0
O427 O 0.30932 0.69332 0.64781 0.0
C428 C 0.30709 0.66753 0.64056 0.0
O429 O 0.32673 0.65643 0.62625 0.0
O430 O 0.38417 0.78309 0.6285 0.0
O431 O 0.35675 0.75363 0.65193 0.0
O432 O 0.41968 0.77161 0.67808 0.0
C433 C 0.39781 0.70292 0.61021 0.0
C434 C 0.47409 0.77233 0.62817 0.0
O435 O 0.33512 0.71451 0.58547 0.0
O436 O 0.3163 0.74807 0.60548 0.0
C437 C 0.41706 0.79821 0.68192 0.0
O438 O 0.41241 0.81347 0.66045 0.0
O439 O 0.45336 0.78358 0.61521 0.0
O440 O 0.99811 0.34837 0.68049 0.0
Tb441 Tb 1.01345 0.39027 0.68064 0.0
C442 C 0.03933 0.44723 0.68183 0.0
O443 O 0.95933 0.43717 0.6932 0.0
Tb444 Tb 0.98327 0.47412 0.68784 0.0
C445 C 1.00181 0.50117 0.73095 0.0
O446 O 0.98303 0.40097 0.71189 0.0
O447 O 0.95609 0.50265 0.66623 0.0
C448 C 0.94407 0.52203 0.68057 0.0
O449 O 0.94879 0.52332 0.70682 0.0
O450 O 0.04379 0.42182 0.68984 0.0
O451 O 1.01672 0.45277 0.66817 0.0
O452 O 1.01992 0.39758 0.63715 0.0
C453 C 0.96379 0.41991 0.71324 0.0
C454 C 1.02074 0.33616 0.6874 0.0
O455 O 0.98254 0.48282 0.73156 0.0
O456 O 1.01119 0.50321 0.70637 0.0
C457 C 1.02496 0.37717 0.6204 0.0
O458 O 1.01376 0.35346 0.62533 0.0
O459 O 0.03945 0.35497 0.69099 0.0
O460 O 0.06418 0.21083 0.67617 0.0
Tb461 Tb 0.05762 0.16696 0.68046 0.0
C462 C 0.03693 0.10645 0.6807 0.0
O463 O 0.11461 0.12628 0.69189 0.0
Tb464 Tb 0.09583 0.08628 0.6913 0.0
C465 C 0.08195 0.06613 0.73953 0.0
O466 O 0.09055 0.16128 0.71093 0.0
O467 O 0.12256 0.05612 0.67193 0.0
C468 C 0.14551 0.04904 0.68441 0.0
O469 O 0.15329 0.06297 0.7059 0.0
O470 O 1.03115 0.13167 0.68865 0.0
O471 O 0.06033 0.10117 0.66857 0.0
O472 O 0.04904 0.16002 0.63692 0.0
C473 C 0.11046 0.14314 0.7122 0.0
C474 C 0.04226 0.2187 0.68879 0.0
O475 O 0.10237 0.08247 0.73517 0.0
O476 O 0.06952 0.06106 0.71666 0.0
C477 C 0.04768 0.17972 0.61856 0.0
O478 O 0.0621 0.20195 0.62226 0.0
O479 O 1.02878 0.19717 0.69697 0.0
O480 O 0.63949 0.60268 0.80939 0.0
Tb481 Tb 0.63053 0.64534 0.8009 0.0
C482 C 0.63234 0.70638 0.78099 0.0
O483 O 0.62162 0.68572 0.85808 0.0
Tb484 Tb 0.62361 0.72621 0.84021 0.0
C485 C 0.57588 0.74965 0.82909 0.0
O486 O 0.60129 0.65103 0.83425 0.0
O487 O 0.64543 0.75554 0.86619 0.0
C488 C 0.63388 0.7626 0.88941 0.0
O489 O 0.61239 0.74885 0.89748 0.0
O490 O 0.6222 0.68171 0.77593 0.0
O491 O 0.64505 0.71146 0.80424 0.0
O492 O 0.67346 0.64819 0.78891 0.0
C493 C 0.60073 0.6694 0.85379 0.0
C494 C 0.62489 0.59241 0.78962 0.0
O495 O 0.58127 0.73497 0.85046 0.0
O496 O 0.5973 0.75073 0.81361 0.0
C497 C 0.67752 0.64949 0.7623 0.0
O498 O 0.65606 0.65287 0.7465 0.0
O499 O 0.61304 0.61223 0.77591 0.0
O500 O 0.85905 0.17394 0.50114 0.0
Tb501 Tb 0.90189 0.17997 0.51228 0.0
C502 C 0.9608 0.17583 0.53533 0.0
O503 O 0.94599 0.19263 0.45501 0.0
Tb504 Tb 0.98343 0.18618 0.47842 0.0
C505 C 1.00924 0.2293 0.49845 0.0
O506 O 0.91057 0.21065 0.48025 0.0
O507 O 1.01252 0.16809 0.44968 0.0
C508 C 1.01968 0.18261 0.42817 0.0
O509 O 1.00729 0.20595 0.42381 0.0
O510 O 0.93625 0.18586 0.54065 0.0
O511 O 0.96485 0.16376 0.5117 0.0
O512 O 0.90315 0.136 0.52066 0.0
C513 C 0.92855 0.21238 0.46018 0.0
C514 C 0.84848 0.187 0.52163 0.0
O515 O 0.99025 0.23012 0.47978 0.0
O516 O 1.01293 0.20434 0.50632 0.0
C517 C 0.9028 0.12911 0.54679 0.0
O518 O 0.90526 0.14858 0.56492 0.0
O519 O 0.86828 0.19666 0.53701 0.0
O520 O 0.42683 0.96305 0.81489 0.0
Tb521 Tb 0.4344 0.92032 0.80608 0.0
C522 C 0.42741 0.86218 0.78215 0.0
O523 O 0.44702 0.88157 0.86792 0.0
Tb524 Tb 0.43713 0.84734 0.84149 0.0
C525 C 0.48193 0.8199 0.8283 0.0
O526 O 0.46428 0.91484 0.83913 0.0
O527 O 0.41761 0.82001 0.87114 0.0
C528 C 0.43278 0.80981 0.89112 0.0
O529 O 0.45765 0.81921 0.89456 0.0
O530 O 0.44287 0.88436 0.78107 0.0
O531 O 0.4139 0.85668 0.80461 0.0
O532 O 0.39484 0.92369 0.78513 0.0
C533 C 0.46543 0.90015 0.86164 0.0
C534 C 0.44326 0.97293 0.79649 0.0
O535 O 0.48018 0.84622 0.82987 0.0
O536 O 0.45856 0.80914 0.83393 0.0
C537 C 0.37192 0.91001 0.78754 0.0
O538 O 0.36876 0.89204 0.80703 0.0
O539 O 0.45528 0.95287 0.78345 0.0
O540 O 0.05882 0.34889 0.4909 0.0
Tb541 Tb 0.0946 0.37341 0.48182 0.0
C542 C 0.14513 0.34876 0.45337 0.0
O543 O 0.13549 0.36846 0.54014 0.0
Tb544 Tb 0.16833 0.37592 0.51049 0.0
C545 C 0.22216 0.37158 0.51994 0.0
O546 O 0.10655 0.39653 0.51706 0.0
O547 O 0.16656 0.41946 0.52071 0.0
C548 C 0.16855 0.42533 0.54704 0.0
O549 O 0.16767 0.40507 0.56445 0.0
O550 O 0.12502 0.36645 0.45092 0.0
O551 O 0.16165 0.34836 0.47498 0.0
O552 O 0.06409 0.39354 0.45614 0.0
C553 C 0.11238 0.38263 0.53919 0.0
C554 C 0.07197 0.32693 0.4975 0.0
O555 O 0.20312 0.35904 0.53394 0.0
O556 O 0.21062 0.38576 0.50064 0.0
C557 C 0.05329 0.37939 0.43596 0.0
O558 O 0.06288 0.35498 0.4308 0.0
O559 O 0.09811 0.3313 0.49579 0.0
O560 O 0.63942 0.46396 0.74796 0.0
Tb561 Tb 0.63316 0.42143 0.75925 0.0
C562 C 0.63867 0.36295 0.78411 0.0
O563 O 0.62147 0.38012 0.70023 0.0
Tb564 Tb 0.6289 0.34456 0.72549 0.0
C565 C 0.58421 0.31683 0.73828 0.0
O566 O 0.60244 0.4137 0.72706 0.0
O567 O 0.64827 0.31799 0.69534 0.0
C568 C 0.63293 0.30842 0.67526 0.0
O569 O 0.60797 0.31776 0.67241 0.0
O570 O 0.62671 0.38706 0.78724 0.0
O571 O 0.65158 0.35731 0.76135 0.0
O572 O 0.67707 0.4206 0.76812 0.0
C573 C 0.60167 0.39743 0.7056 0.0
C574 C 0.62673 0.47481 0.76852 0.0
O575 O 0.58495 0.34268 0.73263 0.0
O576 O 0.60878 0.30697 0.73784 0.0
C577 C 0.6836 0.42183 0.79433 0.0
O578 O 0.66395 0.41924 0.81221 0.0
O579 O 0.61699 0.45528 0.78399 0.0
O580 O 0.56826 0.21868 0.56081 0.0
Tb581 Tb 0.59339 0.19346 0.58778 0.0
C582 C 0.64976 0.21624 0.60278 0.0
O583 O 0.64143 0.19407 0.5238 0.0
Tb584 Tb 0.67664 0.18633 0.55085 0.0
C585 C 0.7304 0.19034 0.54219 0.0
O586 O 0.61316 0.17338 0.55361 0.0
O587 O 0.67235 0.14327 0.54019 0.0
C588 C 0.67405 0.13806 0.51378 0.0
O589 O 0.67529 0.15872 0.49686 0.0
O590 O 0.63365 0.19516 0.60644 0.0
O591 O 0.66877 0.21595 0.58376 0.0
O592 O 0.56419 0.17192 0.61381 0.0
C593 C 0.61631 0.18625 0.53038 0.0
C594 C 0.57087 0.241 0.57481 0.0
O595 O 0.7114 0.20177 0.52694 0.0
O596 O 0.71884 0.17736 0.56223 0.0
C597 C 0.55695 0.18384 0.63679 0.0
O598 O 0.57025 0.20578 0.64447 0.0
O599 O 0.58643 0.23656 0.59593 0.0
O600 O 0.42798 0.09938 0.75238 0.0
Tb601 Tb 0.4353 0.14237 0.76053 0.0
C602 C 0.43324 0.20241 0.78333 0.0
O603 O 0.44222 0.18447 0.70529 0.0
Tb604 Tb 0.44336 0.22378 0.72521 0.0
C605 C 0.49259 0.24312 0.73729 0.0
O606 O 0.46317 0.14843 0.72607 0.0
O607 O 0.425 0.25722 0.70201 0.0
C608 C 0.41739 0.25472 0.67639 0.0
O609 O 0.41433 0.23017 0.66623 0.0
O610 O 0.44388 0.17769 0.78678 0.0
O611 O 0.42083 0.20909 0.76038 0.0
O612 O 0.39211 0.14446 0.77175 0.0
C613 C 0.46292 0.16753 0.7072 0.0
C614 C 0.44239 0.08971 0.77256 0.0
O615 O 0.48626 0.22971 0.71533 0.0
O616 O 0.47132 0.24473 0.7529 0.0
C617 C 0.38788 0.14444 0.79836 0.0
O618 O 0.40929 0.14678 0.81441 0.0
O619 O 0.45341 0.11001 0.78613 0.0
O620 O 0.35074 0.38873 0.56292 0.0
Tb621 Tb 0.39356 0.38267 0.5522 0.0
C622 C 0.45094 0.38836 0.52591 0.0
O623 O 0.43678 0.36944 0.61106 0.0
Tb624 Tb 0.47075 0.37849 0.58411 0.0
C625 C 0.49921 0.33432 0.57083 0.0
O626 O 0.40188 0.35199 0.58397 0.0
O627 O 0.49815 0.39884 0.6132 0.0
C628 C 0.50807 0.3843 0.63366 0.0
O629 O 0.49833 0.35978 0.63775 0.0
O630 O 0.42701 0.37585 0.52351 0.0
O631 O 0.45745 0.40127 0.54854 0.0
O632 O 0.39547 0.42654 0.54404 0.0
C633 C 0.41823 0.35071 0.6055 0.0
C634 C 0.3401 0.37574 0.54231 0.0
O635 O 0.47316 0.33489 0.5757 0.0
O636 O 0.50896 0.3588 0.57244 0.0
C637 C 0.39313 0.43316 0.51796 0.0
O638 O 0.39305 0.41333 0.50007 0.0
O639 O 0.35984 0.36615 0.52711 0.0
O640 O 0.82035 0.63984 0.60027 0.0
Tb641 Tb 0.80749 0.63417 0.64242 0.0
C642 C 0.77759 0.63966 0.69776 0.0
O643 O 0.86631 0.6244 0.68519 0.0
Tb644 Tb 0.83576 0.63056 0.71633 0.0
C645 C 0.82198 0.58335 0.73903 0.0
O646 O 0.84133 0.60538 0.64998 0.0
O647 O 0.86118 0.647 0.7494 0.0
C648 C 0.88673 0.65493 0.74666 0.0
O649 O 0.89611 0.65992 0.72219 0.0
O650 O 0.77864 0.62461 0.67535 0.0
O651 O 0.79947 0.65368 0.70472 0.0
O652 O 0.79787 0.67786 0.64534 0.0
C653 C 0.8631 0.6059 0.66605 0.0
C654 C 0.79999 0.62733 0.58852 0.0
O655 O 0.82391 0.58759 0.713 0.0
O656 O 0.82753 0.60557 0.75199 0.0
C657 C 0.77254 0.68426 0.63792 0.0
O658 O 0.75636 0.66436 0.63028 0.0
O659 O 0.78364 0.61813 0.60754 0.0
O660 O 0.89043 1.00511 0.71633 0.0
Tb661 Tb 0.88932 1.01376 0.6728 0.0
C662 C 0.8928 0.03366 0.61355 0.0
O663 O 0.87554 0.95665 0.62652 0.0
Tb664 Tb 0.8813 0.9771 0.58743 0.0
C665 C 0.83654 0.99338 0.56187 0.0
O666 O 0.85862 0.98183 0.66275 0.0
O667 O 0.9037 0.95064 0.55939 0.0
C668 C 0.89047 0.92935 0.5494 0.0
O669 O 0.86618 0.92366 0.55904 0.0
O670 O 0.88731 0.04227 0.63841 0.0
O671 O 0.90123 1.00837 0.61122 0.0
O672 O 0.93308 1.02114 0.67935 0.0
C673 C 0.85577 0.96295 0.64355 0.0
C674 C 0.87659 1.0263 0.72411 0.0
O675 O 0.83858 0.97153 0.57673 0.0
O676 O 0.85976 1.0063 0.56152 0.0
C677 C 0.9518 1.02531 0.6607 0.0
O678 O 0.94902 1.0143 0.63657 0.0
O679 O 0.86957 0.04074 0.70271 0.0
O680 O 0.25687 0.92059 0.59825 0.0
Tb681 Tb 0.26546 0.92393 0.64192 0.0
C682 C 0.29029 0.92729 0.70316 0.0
O683 O 0.21422 0.93322 0.68636 0.0
Tb684 Tb 0.23147 0.93708 0.72679 0.0
C685 C 0.242 0.98643 0.74598 0.0
O686 O 0.23104 0.95215 0.64782 0.0
O687 O 0.20645 0.91913 0.7591 0.0
C688 C 0.18061 0.91232 0.75563 0.0
O689 O 0.17116 0.90951 0.73072 0.0
O690 O 0.29392 0.93209 0.6766 0.0
O691 O 0.26777 0.91544 0.7122 0.0
O692 O 0.2694 0.87932 0.63931 0.0
C693 C 0.21454 0.95339 0.66883 0.0
C694 C 0.27781 0.93422 0.58953 0.0
O695 O 0.22174 0.98034 0.7298 0.0
O696 O 0.25655 0.96479 0.75071 0.0
C697 C 0.27973 0.86382 0.65872 0.0
O698 O 0.27679 0.87118 0.68409 0.0
O699 O 0.29228 0.94225 0.61058 0.0
O700 O 0.21758 0.55562 0.56542 0.0
Tb701 Tb 0.19172 0.58234 0.58962 0.0
C702 C 0.20723 0.60271 0.64679 0.0
O703 O 0.18496 0.52019 0.63679 0.0
Tb704 Tb 0.1813 0.54794 0.67235 0.0
C705 C 0.19226 0.53584 0.72463 0.0
O706 O 0.16703 0.54862 0.60386 0.0
O707 O 0.13798 0.53943 0.6795 0.0
C708 C 0.11998 0.53168 0.66117 0.0
O709 O 0.12244 0.54019 0.63606 0.0
O710 O 0.18722 0.60203 0.62895 0.0
O711 O 0.2086 0.58324 0.66539 0.0
O712 O 0.1783 0.60853 0.55572 0.0
C713 C 0.17749 0.52492 0.61096 0.0
C714 C 0.24071 0.56641 0.57281 0.0
O715 O 0.20168 0.52229 0.7036 0.0
O716 O 0.17729 0.55591 0.71583 0.0
C717 C 0.16253 0.63024 0.55706 0.0
O718 O 0.14905 0.63538 0.57949 0.0
O719 O 0.23615 0.58514 0.59096 0.0
O720 O 0.8139 0.43135 0.95935 0.0
Tb721 Tb 0.80094 0.44043 0.91786 0.0
C722 C 0.78038 0.43886 0.85854 0.0
O723 O 0.85793 0.44982 0.87498 0.0
Tb724 Tb 0.83824 0.44394 0.83561 0.0
C725 C 0.8263 0.48845 0.80721 0.0
O726 O 0.8329 0.47071 0.90864 0.0
O727 O 0.86562 0.42063 0.80949 0.0
C728 C 0.88944 0.43188 0.8039 0.0
O729 O 0.89684 0.45367 0.81756 0.0
O730 O 0.77344 0.44748 0.88311 0.0
O731 O 0.80366 0.42572 0.85647 0.0
O732 O 0.78945 0.39762 0.91426 0.0
C733 C 0.85258 0.47108 0.89032 0.0
C734 C 0.79407 0.4442 0.97151 0.0
O735 O 0.84621 0.48625 0.82474 0.0
O736 O 0.81254 0.46581 0.80627 0.0
C737 C 0.76286 0.39307 0.9163 0.0
O738 O 0.74635 0.41411 0.91722 0.0
O739 O 0.77804 0.45567 0.95319 0.0
O740 O 0.67961 0.99531 0.35458 0.0
Tb741 Tb 0.68567 1.00735 0.39695 0.0
C742 C 0.68039 0.03618 0.45346 0.0
O743 O 0.70155 0.94951 0.44032 0.0
Tb744 Tb 0.69428 0.97861 0.47279 0.0
C745 C 0.74089 0.99545 0.49481 0.0
O746 O 0.71686 0.9757 0.4042 0.0
O747 O 0.6798 0.95241 0.50609 0.0
C748 C 0.67426 0.92618 0.50409 0.0
O749 O 0.67193 0.91525 0.47981 0.0
O750 O 0.6926 0.03736 0.42941 0.0
O751 O 0.66902 1.01334 0.46192 0.0
O752 O 0.64172 1.01547 0.39873 0.0
C753 C 0.71907 0.95439 0.42059 0.0
C754 C 0.69139 1.01627 0.34339 0.0
O755 O 0.73692 0.99121 0.46901 0.0
O756 O 0.71843 0.99117 0.50786 0.0
C757 C 0.63547 0.04125 0.3936 0.0
O758 O 0.65569 0.05854 0.3906 0.0
O759 O 0.70068 0.03228 0.36273 0.0
O760 O 0.24873 0.13012 0.963 0.0
Tb761 Tb 0.26144 0.12539 0.92071 0.0
C762 C 0.28891 0.13216 0.86417 0.0
O763 O 0.20238 0.11508 0.87882 0.0
Tb764 Tb 0.23006 0.12405 0.8456 0.0
C765 C 0.24226 0.0793 0.81763 0.0
O766 O 0.22912 0.09545 0.91251 0.0
O767 O 0.20099 0.14414 0.81774 0.0
C768 C 0.18109 0.12918 0.80708 0.0
O769 O 0.17763 0.10431 0.81621 0.0
O770 O 0.28921 0.11707 0.88662 0.0
O771 O 0.26665 0.14624 0.85859 0.0
O772 O 0.2698 0.16912 0.91801 0.0
C773 C 0.20735 0.09546 0.8965 0.0
C774 C 0.27005 0.119 0.97453 0.0
O775 O 0.23924 0.08041 0.84385 0.0
O776 O 0.23933 0.10341 0.80744 0.0
C777 C 0.29526 0.17556 0.9247 0.0
O778 O 0.31203 0.15568 0.93103 0.0
O779 O 0.28657 0.11058 0.95529 0.0
O780 O 0.35851 0.56563 0.50852 0.0
Tb781 Tb 0.37835 0.58801 0.47591 0.0
C782 C 0.35573 0.60379 0.41991 0.0
O783 O 0.38076 0.52631 0.42747 0.0
Tb784 Tb 0.38693 0.55359 0.39241 0.0
C785 C 0.37956 0.54429 0.33922 0.0
O786 O 0.40162 0.55432 0.45897 0.0
O787 O 0.43073 0.54432 0.39374 0.0
C788 C 0.43665 0.5181 0.39097 0.0
O789 O 0.41634 0.50064 0.39049 0.0
O790 O 0.37693 0.60659 0.43604 0.0
O791 O 0.35647 0.58588 0.39994 0.0
O792 O 0.39241 0.62166 0.50166 0.0
C793 C 0.38974 0.53098 0.45271 0.0
C794 C 0.33367 0.57153 0.50101 0.0
O795 O 0.37076 0.52834 0.35882 0.0
O796 O 0.39183 0.56529 0.34998 0.0
C797 C 0.4011 0.61747 0.52677 0.0
O798 O 0.40757 0.59256 0.53412 0.0
O799 O 0.33404 0.58556 0.47843 0.0
O800 O 0.60291 0.8171 0.63941 0.0
Tb801 Tb 0.64555 0.80559 0.63332 0.0
C802 C 0.70609 0.7826 0.63412 0.0
O803 O 0.68785 0.86124 0.62251 0.0
Tb804 Tb 0.72766 0.8416 0.62446 0.0
C805 C 0.74908 0.83143 0.57616 0.0
O806 O 0.65257 0.83764 0.60269 0.0
O807 O 0.75999 0.86638 0.64324 0.0
C808 C 0.75832 0.89322 0.64375 0.0
O809 O 0.73425 0.90448 0.64001 0.0
O810 O 0.68052 0.77826 0.62563 0.0
O811 O 0.71285 0.80563 0.64647 0.0
O812 O 0.6481 0.7973 0.67708 0.0
C813 C 0.6711 0.85716 0.60185 0.0
C814 C 0.59178 0.79596 0.62775 0.0
O815 O 0.73474 0.85278 0.58225 0.0
O816 O 0.75067 0.81527 0.59707 0.0
C817 C 0.6462 0.77115 0.68348 0.0
O818 O 0.64639 0.75333 0.66359 0.0
O819 O 0.61129 0.78013 0.61845 0.0
O820 O 0.60437 0.24843 0.92395 0.0
Tb821 Tb 0.64661 0.26082 0.93134 0.0
C822 C 0.70276 0.29113 0.92654 0.0
O823 O 0.69028 0.20632 0.93689 0.0
Tb824 Tb 0.72534 0.23367 0.93723 0.0
C825 C 0.74564 0.24835 0.98563 0.0
O826 O 0.65647 0.22756 0.96017 0.0
O827 O 0.75918 0.20861 0.92236 0.0
C828 C 0.75674 0.18574 0.90861 0.0
O829 O 0.73302 0.17925 0.89782 0.0
O830 O 0.67844 0.29155 0.93845 0.0
O831 O 0.71159 0.26896 0.91427 0.0
O832 O 0.64816 0.27049 0.88769 0.0
C833 C 0.67327 0.20668 0.9574 0.0
C834 C 0.59279 0.2679 0.9377 0.0
O835 O 0.7241 0.23329 0.98177 0.0
O836 O 0.75503 0.25576 0.96215 0.0
C837 C 0.64433 0.29657 0.88162 0.0
O838 O 0.64304 0.31396 0.90185 0.0
O839 O 0.61178 0.28345 0.94851 0.0
O840 O 0.50735 0.21197 0.39012 0.0
Tb841 Tb 0.51749 0.16943 0.38268 0.0
C842 C 0.54133 0.11121 0.38762 0.0
O843 O 0.45584 0.12934 0.36731 0.0
Tb844 Tb 0.48276 0.09521 0.37595 0.0
C845 C 0.49632 0.06837 0.33109 0.0
O846 O 0.48443 0.16402 0.35232 0.0
O847 O 0.45319 0.06792 0.3951 0.0
C848 C 0.43409 0.05699 0.37947 0.0
O849 O 0.43188 0.0651 0.3541 0.0
O850 O 0.54506 0.13497 0.37534 0.0
O851 O 0.51812 0.10633 0.40004 0.0
O852 O 0.52677 0.16833 0.42642 0.0
C853 C 0.46203 0.14897 0.35008 0.0
C854 C 0.52776 0.22254 0.37691 0.0
O855 O 0.49315 0.0946 0.33276 0.0
O856 O 0.493 0.05758 0.3549 0.0
C857 C 0.55308 0.1681 0.43314 0.0
O858 O 0.57102 0.16362 0.41391 0.0
O859 O 0.54265 0.20293 0.36644 0.0
O860 O 0.46322 0.3083 0.92775 0.0
Tb861 Tb 0.42092 0.29624 0.93446 0.0
C862 C 0.36206 0.27244 0.93102 0.0
O863 O 0.37732 0.35229 0.94659 0.0
Tb864 Tb 0.3393 0.32956 0.94227 0.0
C865 C 0.31486 0.31287 0.98756 0.0
O866 O 0.41299 0.32779 0.9653 0.0
O867 O 0.31034 0.35794 0.92316 0.0
C868 C 0.29687 0.37485 0.93919 0.0
O869 O 0.30281 0.37512 0.96526 0.0
O870 O 0.3869 0.26784 0.941 0.0
O871 O 0.35648 0.2959 0.91914 0.0
O872 O 0.41854 0.28871 0.8906 0.0
C873 C 0.39481 0.34765 0.96651 0.0
C874 C 0.4746 0.28742 0.93966 0.0
O875 O 0.3339 0.33127 0.98631 0.0
O876 O 0.31015 0.30331 0.96332 0.0
C877 C 0.42022 0.26268 0.88368 0.0
O878 O 0.41937 0.24437 0.90312 0.0
O879 O 0.45548 0.27139 0.94937 0.0
O880 O 0.06218 0.85113 0.88698 0.0
Tb881 Tb 0.05114 0.89356 0.87988 0.0
C882 C 1.02592 0.95093 0.8861 0.0
O883 O 0.11222 0.93369 0.86767 0.0
Tb884 Tb 0.08494 0.96725 0.87745 0.0
C885 C 0.0728 0.9962 0.83333 0.0
O886 O 0.08352 0.90066 0.8495 0.0
O887 O 0.11398 0.99375 0.89866 0.0
C888 C 0.13447 1.00355 0.88433 0.0
O889 O 0.13849 0.99404 0.85977 0.0
O890 O 1.02277 0.92755 0.87296 0.0
O891 O 0.04875 0.95555 0.89961 0.0
O892 O 0.04206 0.89509 0.92354 0.0
C893 C 0.10627 0.91529 0.84901 0.0
C894 C 0.04165 0.84033 0.87387 0.0
O895 O 0.07583 0.96993 0.834 0.0
O896 O 0.07549 1.00592 0.85768 0.0
C897 C 1.01574 0.89316 0.92959 0.0
O898 O 0.998 0.89402 0.90946 0.0
O899 O 1.02631 0.85977 0.86355 0.0
O900 O 0.9661 0.24286 0.14275 0.0
Tb901 Tb 0.92428 0.25694 0.13572 0.0
C902 C 0.86515 0.28136 0.135 0.0
O903 O 0.87988 0.20178 0.12103 0.0
Tb904 Tb 0.84155 0.22386 0.12556 0.0
C905 C 0.81597 0.23875 0.08014 0.0
O906 O 0.91581 0.22658 0.10362 0.0
O907 O 0.81083 0.19664 0.1433 0.0
C908 C 0.81301 0.16986 0.14273 0.0
O909 O 0.83705 0.15911 0.13787 0.0
O910 O 0.89049 0.28493 0.12604 0.0
O911 O 0.85858 0.25852 0.14758 0.0
O912 O 0.92024 0.26805 0.17872 0.0
C913 C 0.89705 0.2073 0.10121 0.0
C914 C 0.97867 0.26395 0.13254 0.0
O915 O 0.83687 0.22247 0.08155 0.0
O916 O 0.81038 0.24772 0.10433 0.0
C917 C 0.92104 0.29469 0.18307 0.0
O918 O 0.92069 0.31068 0.16164 0.0
O919 O 0.96017 0.28111 0.12326 0.0
O920 O 0.50497 0.84948 0.18102 0.0
Tb921 Tb 0.51389 0.89298 0.18566 0.0
C922 C 0.53763 0.95196 0.18459 0.0
O923 O 0.45724 0.93526 0.19446 0.0
Tb924 Tb 0.47898 0.97369 0.19102 0.0
C925 C 0.49325 0.99888 0.2367 0.0
O926 O 0.48134 0.901 0.21554 0.0
O927 O 0.45232 1.00333 0.17058 0.0
C928 C 0.42631 1.00531 0.17731 0.0
O929 O 0.41532 0.98582 0.19192 0.0
O930 O 0.5423 0.92687 0.19368 0.0
O931 O 0.51496 0.95716 0.17082 0.0
O932 O 0.52051 0.9007 0.14217 0.0
C933 C 0.46115 0.91892 0.21535 0.0
C934 C 0.52695 0.84026 0.1929 0.0
O935 O 0.47469 0.98 0.23483 0.0
O936 O 0.50397 1.00316 0.21299 0.0
C937 C 0.5219 0.88121 0.12367 0.0
O938 O 0.50734 0.85902 0.12686 0.0
O939 O 0.54178 0.86098 0.201 0.0
O940 O 0.56866 0.71153 0.1786 0.0
Tb941 Tb 0.55536 0.66908 0.17782 0.0
C942 C 0.52994 0.61016 0.17573 0.0
O943 O 0.61328 0.62677 0.1898 0.0
Tb944 Tb 0.58906 0.59028 0.18353 0.0
C945 C 0.5783 0.56239 0.22866 0.0
O946 O 0.58672 0.66039 0.20899 0.0
O947 O 0.61938 0.56369 0.16404 0.0
C948 C 0.63944 0.55387 0.17938 0.0
O949 O 0.64231 0.5632 0.20423 0.0
O950 O 0.52719 0.63514 0.1858 0.0
O951 O 0.552 0.60291 0.16218 0.0
O952 O 0.54836 0.66919 0.13368 0.0
C953 C 0.60784 0.64362 0.20988 0.0
C954 C 0.54604 0.72235 0.18729 0.0
O955 O 0.58279 0.58846 0.22745 0.0
O956 O 0.57882 0.55236 0.20428 0.0
C957 C 0.52241 0.67292 0.12668 0.0
O958 O 0.50428 0.67344 0.14624 0.0
O959 O 0.52851 0.70258 0.19147 0.0
C960 C 0.05217 0.29773 0.33986 0.0
C961 C 0.0613 0.29064 0.31346 0.0
C962 C 1.02383 0.31601 0.29264 0.0
C963 C 1.01324 0.32066 0.31895 0.0
N964 N 1.02121 0.3248 0.36711 0.0
N965 N 0.06305 0.30205 0.26612 0.0
C966 C 1.02878 0.31445 0.34248 0.0
C967 C 0.04949 0.30281 0.2902 0.0
N968 N 0.06552 0.28788 0.36231 0.0
N969 N 1.00887 0.32313 0.27019 0.0
H970 H 0.08252 0.29362 0.26472 0.0
H971 H 0.0565 0.31233 0.24874 0.0
H972 H 0.9904 0.33363 0.2715 0.0
H973 H 1.01413 0.31753 0.25048 0.0
H974 H 0.05803 0.28934 0.38202 0.0
H975 H 0.08406 0.27753 0.3611 0.0
H976 H 1.0329 0.32305 0.38477 0.0
H977 H 1.00428 0.33746 0.36934 0.0
C978 C 0.5096 0.78268 1.01366 0.0
C979 C 0.5135 0.76452 0.99169 0.0
C980 C 0.54903 0.79385 0.97306 0.0
C981 C 0.54711 0.81078 0.9964 0.0
N982 N 0.52754 0.82018 0.04033 0.0
N983 N 0.54097 0.74928 0.95397 0.0
C984 C 0.52794 0.80486 1.01716 0.0
C985 C 0.53444 0.76902 0.97245 0.0
N986 N 0.48776 0.77931 1.03049 0.0
N987 N 0.56316 0.80221 0.95061 0.0
H988 H 0.53103 0.73054 0.95292 0.0
H989 H 0.55805 0.75042 0.94149 0.0
H990 H 0.57279 0.82104 0.94909 0.0
H991 H 0.56269 0.79179 0.93217 0.0
H992 H 0.48206 0.79336 0.04523 0.0
H993 H 0.47391 0.76335 1.02821 0.0
H994 H 0.51633 0.81506 0.05751 0.0
H995 H 0.53996 0.83716 0.04314 0.0
C996 C 1.02413 0.77381 0.21709 0.0
C997 C 1.00995 0.76584 0.24089 0.0
C998 C 0.04101 0.79403 0.26838 0.0
C999 C 0.05631 0.79981 0.2447 0.0
N1000 N 0.0675 0.78723 0.19861 0.0
N1001 N 1.00733 0.765 0.28989 0.0
C1002 C 0.04943 0.78728 0.21968 0.0
C1003 C 1.01902 0.77506 0.26682 0.0
N1004 N 1.01279 0.77022 0.19189 0.0
N1005 N 0.04728 0.80689 0.29218 0.0
H1006 H 0.99149 0.75089 0.28942 0.0
H1007 H 1.01474 0.76883 0.3094 0.0
H1008 H 0.06387 0.82 0.29389 0.0
H1009 H 0.03524 0.8059 0.30953 0.0
H1010 H 1.02155 0.77784 0.17418 0.0
H1011 H 0.99307 0.76295 0.18893 0.0
H1012 H 0.06429 0.7761 0.18083 0.0
H1013 H 0.087 0.7956 0.20012 0.0
C1014 C 1.00953 0.78158 0.05068 0.0
C1015 C 1.0155 0.80402 0.06773 0.0
C1016 C 0.05461 0.77986 0.08713 0.0
C1017 C 0.04998 0.75804 0.06874 0.0
N1018 N 1.02664 0.74071 1.029 0.0
N1019 N 0.04806 0.82769 0.09617 0.0
C1020 C 1.02849 0.75967 0.04925 0.0
C1021 C 0.03949 0.8042 0.08395 0.0
N1022 N 0.98547 0.78084 0.03653 0.0
N1023 N 0.07174 0.77685 0.109 0.0
H1024 H 0.03755 0.84608 0.09433 0.0
H1025 H 0.06695 0.82946 0.1059 0.0
H1026 H 0.08225 0.75897 0.11344 0.0
H1027 H 0.07313 0.79119 0.12455 0.0
H1028 H 0.97864 0.76375 1.02596 0.0
H1029 H 0.97136 0.79672 0.03707 0.0
H1030 H 1.01297 0.74226 1.01276 0.0
H1031 H 0.04059 0.7248 1.02697 0.0
C1032 C 0.30055 1.01411 0.28162 0.0
C1033 C 0.32256 1.01018 0.30016 0.0
C1034 C 0.34337 0.05293 0.28514 0.0
C1035 C 0.32317 0.05512 0.26442 0.0
N1036 N 0.28334 0.03767 0.2415 0.0
N1037 N 0.367 1.02383 0.31716 0.0
C1038 C 0.30185 0.03574 0.26233 0.0
C1039 C 0.34442 1.02917 0.30151 0.0
N1040 N 0.27813 0.99758 0.28302 0.0
N1041 N 0.36128 0.07387 0.28961 0.0
H1042 H 0.36894 1.0068 0.32962 0.0
H1043 H 0.38495 0.03515 0.31619 0.0
H1044 H 0.36159 0.09153 0.27786 0.0
H1045 H 0.37426 0.07488 0.30644 0.0
H1046 H 0.26028 1.00079 0.27188 0.0
H1047 H 0.27645 0.98182 0.29716 0.0
H1048 H 0.26894 1.02273 0.23703 0.0
H1049 H 0.28354 0.05359 0.22746 0.0
C1050 C 0.29717 0.46692 1.02996 0.0
C1051 C 0.29877 0.48644 0.05113 0.0
C1052 C 0.256 0.50696 0.03532 0.0
C1053 C 0.25254 0.48511 1.01668 0.0
N1054 N 0.26763 0.44094 1.00054 0.0
N1055 N 0.27869 0.52333 0.07619 0.0
C1056 C 0.27258 0.46424 1.01496 0.0
C1057 C 0.27795 0.5061 0.05441 0.0
N1058 N 0.31936 0.45127 1.02368 0.0
N1059 N 0.23888 0.52892 0.03421 0.0
H1060 H 0.29449 0.52303 0.09051 0.0
H1061 H 0.26268 0.53628 0.08126 0.0
H1062 H 0.22296 0.53054 1.02012 0.0
H1063 H 0.24202 0.54662 0.04544 0.0
H1064 H 0.32017 0.43894 1.00646 0.0
H1065 H 0.33797 0.45263 0.03397 0.0
H1066 H 0.28038 0.42398 1.00135 0.0
H1067 H 0.24958 0.43711 0.99 0.0
C1068 C 0.76105 0.53316 0.25664 0.0
C1069 C 0.74452 0.51036 0.26269 0.0
C1070 C 0.72396 0.53508 0.30041 0.0
C1071 C 0.74314 0.55648 0.29687 0.0
N1072 N 0.78337 0.57349 0.27412 0.0
N1073 N 0.71445 0.48743 0.29396 0.0
C1074 C 0.76272 0.55487 0.27568 0.0
C1075 C 0.72745 0.51059 0.28581 0.0
N1076 N 0.77445 0.53453 0.23243 0.0
N1077 N 0.70113 0.53859 0.3159 0.0
H1078 H 0.71658 0.46901 0.28382 0.0
H1079 H 0.70383 0.48597 0.31221 0.0
H1080 H 0.69628 0.55662 0.32579 0.0
H1081 H 0.68519 0.52454 0.31627 0.0
H1082 H 0.78463 0.55191 0.22578 0.0
H1083 H 0.7732 0.51914 0.21792 0.0
H1084 H 0.79968 0.57158 0.26075 0.0
H1085 H 0.78569 0.58941 0.28791 0.0
C1086 C 0.75493 0.08128 1.01876 0.0
C1087 C 0.75549 0.06553 0.04282 0.0
C1088 C 0.79938 0.04621 1.0293 0.0
C1089 C 0.80115 0.06597 1.00825 0.0
N1090 N 0.78209 0.10633 0.98681 0.0
N1091 N 0.77837 0.03339 0.072 0.0
C1092 C 0.77918 0.08435 1.00361 0.0
C1093 C 0.77763 0.04783 0.04829 0.0
N1094 N 0.73124 0.09345 1.0104 0.0
N1095 N 0.81827 1.0258 1.03092 0.0
H1096 H 0.76248 0.03395 0.08597 0.0
H1097 H 0.79535 1.0224 0.07858 0.0
H1098 H 0.83425 1.02391 1.01712 0.0
H1099 H 0.81664 1.00939 0.04424 0.0
H1100 H 0.72919 0.10306 0.99158 0.0
H1101 H 0.71298 0.09159 1.02108 0.0
H1102 H 0.76757 0.12177 0.98548 0.0
H1103 H 0.80001 0.11108 0.97662 0.0
C1104 C 0.25681 0.3276 0.03527 0.0
C1105 C 0.26429 0.31213 0.05863 0.0
C1106 C 0.30541 0.29655 0.0351 0.0
C1107 C 0.29635 0.30973 1.01104 0.0
N1108 N 0.25958 0.33197 0.98651 0.0
N1109 N 0.29248 0.27675 0.07821 0.0
C1110 C 0.27063 0.323 1.01048 0.0
C1111 C 0.28761 0.29499 0.05776 0.0
N1112 N 0.23849 0.34854 0.03705 0.0
N1113 N 0.33118 0.28607 0.03662 0.0
H1114 H 0.27945 0.2744 0.09473 0.0
H1115 H 0.30776 0.26202 0.07732 0.0
H1116 H 0.34464 0.28658 1.02033 0.0
H1117 H 0.33987 0.2789 0.05465 0.0
H1118 H 0.23454 0.36191 1.02103 0.0
H1119 H 0.22989 0.35505 0.05519 0.0
H1120 H 0.23968 0.3394 0.98496 0.0
H1121 H 0.26908 0.32956 0.9678 0.0
C1122 C 0.29038 0.75897 0.51418 0.0
C1123 C 0.26717 0.74166 0.51231 0.0
C1124 C 0.27549 0.72612 0.55886 0.0
C1125 C 0.30099 0.73972 0.5589 0.0
N1126 N 0.33399 0.76791 0.53625 0.0
N1127 N 0.24154 0.70389 0.53115 0.0
C1128 C 0.30883 0.7559 0.53646 0.0
C1129 C 0.26049 0.72411 0.53427 0.0
N1130 N 0.29434 0.77881 0.49511 0.0
N1131 N 0.26547 0.71507 0.58228 0.0
H1132 H 0.23131 0.69994 0.51298 0.0
H1133 H 0.23831 0.68887 0.54577 0.0
H1134 H 0.27602 0.71556 0.60076 0.0
H1135 H 0.24563 0.70754 0.5838 0.0
H1136 H 0.30947 0.79363 0.49674 0.0
H1137 H 0.28078 0.78214 0.479 0.0
H1138 H 0.34205 0.77757 0.51923 0.0
H1139 H 0.34758 0.76661 0.55263 0.0
C1140 C 1.02169 0.52372 0.80267 0.0
C1141 C 1.01619 0.55192 0.80058 0.0
C1142 C 1.01076 0.54766 0.75147 0.0
C1143 C 1.01012 0.51873 0.7542 0.0
N1144 N 1.01807 0.47902 0.78215 0.0
N1145 N 1.01849 0.59145 0.77187 0.0
C1146 C 1.01673 0.50668 0.77974 0.0
C1147 C 1.01504 0.56405 0.77463 0.0
N1148 N 1.03348 0.51371 0.82585 0.0
N1149 N 1.00602 0.56066 0.72745 0.0
H1150 H 1.02474 0.60367 0.78809 0.0
H1151 H 1.01755 0.60129 0.75306 0.0
H1152 H 1.00163 0.55107 0.70908 0.0
H1153 H 1.00163 0.55107 0.70908 0.0
H1154 H 0.03977 0.49361 0.8282 0.0
H1155 H 0.04048 0.52647 0.84134 0.0
H1156 H 1.01916 0.46891 0.80074 0.0
H1157 H 1.0172 0.46605 0.76544 0.0
C1158 C 0.77818 0.81317 0.50707 0.0
C1159 C 0.80262 0.82905 0.5072 0.0
C1160 C 0.79129 0.84647 0.55251 0.0
C1161 C 0.76746 0.83013 0.55258 0.0
N1162 N 0.73922 0.79586 0.53192 0.0
N1163 N 0.82959 0.86456 0.52938 0.0
C1164 C 0.76117 0.81295 0.53039 0.0
C1165 C 0.80856 0.84638 0.52965 0.0
N1166 N 0.77054 0.79903 0.48431 0.0
N1167 N 0.79766 0.86253 0.57438 0.0
H1168 H 0.84248 0.86792 0.51294 0.0
H1169 H 0.84248 0.86792 0.51294 0.0
H1170 H 0.78598 0.86323 0.59202 0.0
H1171 H 0.81505 0.87482 0.57503 0.0
H1172 H 0.75106 0.79107 0.48128 0.0
H1173 H 0.78308 0.79598 0.46762 0.0
H1174 H 0.73548 0.77999 0.5184 0.0
H1175 H 0.7254 0.79656 0.54787 0.0
C1176 C 0.55861 0.52404 0.2564 0.0
C1177 C 0.57765 0.54582 0.25388 0.0
C1178 C 0.59514 0.53635 0.2997 0.0
C1179 C 0.57807 0.51313 0.30109 0.0
N1180 N 0.54518 0.48304 0.28062 0.0
N1181 N 0.61868 0.56802 0.27069 0.0
C1182 C 0.56019 0.50647 0.27941 0.0
C1183 C 0.59708 0.55089 0.27492 0.0
N1184 N 0.53856 0.52057 0.23726 0.0
N1185 N 0.60927 0.54483 0.32225 0.0
H1186 H 0.62233 0.57797 0.25241 0.0
H1187 H 0.63493 0.56999 0.28432 0.0
H1188 H 0.60866 0.53463 0.34085 0.0
H1189 H 0.61953 0.56339 0.32326 0.0
H1190 H 0.52256 0.50679 0.23926 0.0
H1191 H 0.53655 0.53284 0.22011 0.0
H1192 H 0.53423 0.47509 0.26426 0.0
H1193 H 0.54512 0.47043 0.29768 0.0
C1194 C 0.09638 1.00997 0.79046 0.0
C1195 C 0.07414 1.01318 0.8086 0.0
C1196 C 0.05938 0.05387 0.78362 0.0
C1197 C 0.07956 0.04862 0.76382 0.0
N1198 N 0.11488 1.01944 0.74614 0.0
N1199 N 1.03238 0.03603 0.82079 0.0
C1200 C 0.09731 1.02599 0.76658 0.0
C1201 C 0.05501 0.03456 0.80472 0.0
N1202 N 0.11762 0.99295 0.79672 0.0
N1203 N 0.04522 0.07781 0.78292 0.0
H1204 H 1.0286 1.02225 0.83647 0.0
H1205 H 1.01628 0.04941 0.81713 0.0
H1206 H 0.04874 0.09266 0.76822 0.0
H1207 H 1.03203 0.08403 0.79823 0.0
H1208 H 0.13598 0.9929 0.78612 0.0
H1209 H 0.11823 0.98057 0.81385 0.0
H1210 H 0.12608 1.00143 0.74563 0.0
H1211 H 0.11667 1.03104 0.72857 0.0
C1212 C 0.51058 0.78482 0.80541 0.0
C1213 C 0.50739 0.80412 0.82658 0.0
C1214 C 0.551 0.79026 0.8465 0.0
C1215 C 0.55266 0.76878 0.82731 0.0
N1216 N 0.53278 0.7434 0.79032 0.0
N1217 N 0.522 0.82201 0.87009 0.0
C1218 C 0.53219 0.76552 0.80709 0.0
C1219 C 0.52695 0.80612 0.84783 0.0
N1220 N 0.49323 0.78532 0.78352 0.0
N1221 N 0.57279 0.79611 0.86294 0.0
H1222 H 0.50486 0.83441 0.87197 0.0
H1223 H 0.53384 0.82126 0.88775 0.0
H1224 H 0.59103 0.78536 0.86202 0.0
H1225 H 0.57381 0.81323 0.87539 0.0
H1226 H 0.49597 0.77351 0.76618 0.0
H1227 H 0.47733 0.79937 0.7817 0.0
H1228 H 0.51703 0.73832 0.77694 0.0
H1229 H 0.54815 0.72879 0.79143 0.0
C1230 C 0.05536 0.25124 0.49831 0.0
C1231 C 1.0273 0.25247 0.50528 0.0
C1232 C 1.03312 0.30051 0.51679 0.0
C1233 C 0.05855 0.30059 0.50318 0.0
N1234 N 0.09109 0.27577 0.47568 0.0
N1235 N 0.98888 0.27915 0.5204 0.0
C1236 C 0.0693 0.27585 0.49289 0.0
C1237 C 1.01599 0.27736 0.51443 0.0
N1238 N 0.06861 0.22692 0.49591 0.0
N1239 N 1.0256 0.32221 0.53241 0.0
H1240 H 0.9759 0.26239 0.51976 0.0
H1241 H 0.97909 0.29756 0.52427 0.0
H1242 H 0.0384 0.33887 0.53579 0.0
H1243 H 1.00819 0.32218 0.54451 0.0
H1244 H 0.08966 0.22563 0.49308 0.0
H1245 H 0.05946 0.20817 0.49947 0.0
H1246 H 0.09816 0.25821 0.46617 0.0
H1247 H 0.09984 0.29339 0.46795 0.0
C1248 C 0.55713 0.27978 0.7604 0.0
C1249 C 0.55933 0.29983 0.73968 0.0
C1250 C 0.51564 0.28496 0.72036 0.0
C1251 C 0.51544 0.26264 0.73869 0.0
N1252 N 0.53703 0.23688 0.77448 0.0
N1253 N 0.54289 0.31811 0.6967 0.0
C1254 C 0.53642 0.25955 0.75837 0.0
C1255 C 0.53912 0.3017 0.71886 0.0
N1256 N 0.57431 0.28058 0.7824 0.0
N1257 N 0.4931 0.29069 0.70479 0.0
H1258 H 0.55988 0.33046 0.69393 0.0
H1259 H 0.5303 0.31754 0.67955 0.0
H1260 H 0.47527 0.27914 0.70531 0.0
H1261 H 0.49106 0.30847 0.6934 0.0
H1262 H 0.57202 0.2682 0.79944 0.0
H1263 H 0.58934 0.29545 0.78481 0.0
H1264 H 0.55331 0.23204 0.78732 0.0
H1265 H 0.52217 0.22171 0.77331 0.0
C1266 C 0.55509 0.28402 0.55174 0.0
C1267 C 0.55191 0.26432 0.57253 0.0
C1268 C 0.51465 0.29069 0.59238 0.0
C1269 C 0.51633 0.3095 0.57049 0.0
N1270 N 0.53542 0.32232 0.52724 0.0
N1271 N 0.52463 0.24543 0.6086 0.0
C1272 C 0.53582 0.30568 0.54953 0.0
C1273 C 0.53049 0.26664 0.59163 0.0
N1274 N 0.57696 0.28245 0.5347 0.0
N1275 N 0.49923 0.29635 0.61478 0.0
H1276 H 0.53546 0.22724 0.60833 0.0
H1277 H 0.50739 0.24478 0.6209 0.0
H1278 H 0.48708 0.31357 0.61667 0.0
H1279 H 0.50037 0.28506 0.6327 0.0
H1280 H 0.58213 0.29763 0.52088 0.0
H1281 H 0.59119 0.26668 0.53577 0.0
H1282 H 0.54711 0.31893 0.50996 0.0
H1283 H 0.52171 0.33844 0.52508 0.0
C1284 C 0.84485 0.54019 0.75325 0.0
C1285 C 0.82104 0.5566 0.75253 0.0
C1286 C 0.79935 0.52698 0.78635 0.0
C1287 C 0.82349 0.51095 0.78732 0.0
N1288 N 0.86773 0.49984 0.76864 0.0
N1289 N 0.77396 0.56357 0.76424 0.0
C1290 C 0.8456 0.51674 0.76974 0.0
C1291 C 0.7977 0.5493 0.76782 0.0
N1292 N 0.86767 0.54666 0.73888 0.0
N1293 N 0.77867 0.52165 0.8041 0.0
H1294 H 0.77233 0.57994 0.75078 0.0
H1295 H 0.7554 0.55812 0.77286 0.0
H1296 H 0.77938 0.50542 0.8177 0.0
H1297 H 0.76159 0.53396 0.80655 0.0
H1298 H 0.86957 0.56376 0.72643 0.0
H1299 H 0.86957 0.56376 0.72643 0.0
H1300 H 0.88441 0.50357 0.75604 0.0
H1301 H 0.8689 0.48157 0.77932 0.0
C1302 C 0.8132 0.98085 0.51879 0.0
C1303 C 0.81426 0.9977 0.54211 0.0
C1304 C 0.77068 1.01835 0.52911 0.0
C1305 C 0.76759 0.99836 0.5085 0.0
N1306 N 0.78406 0.95706 0.48712 0.0
N1307 N 0.79348 1.03117 0.57107 0.0
C1308 C 0.78849 0.97886 0.50387 0.0
C1309 C 0.79299 1.01635 0.54761 0.0
N1310 N 0.83578 0.96658 0.51102 0.0
N1311 N 0.75239 0.03927 0.53085 0.0
H1312 H 0.80958 1.02999 0.58495 0.0
H1313 H 0.77717 0.04296 0.57772 0.0
H1314 H 0.73577 0.04122 0.51763 0.0
H1315 H 0.75502 0.05591 0.54371 0.0
H1316 H 0.83699 0.95603 0.49268 0.0
H1317 H 0.85424 0.9676 0.52161 0.0
H1318 H 0.79766 0.94084 0.48546 0.0
H1319 H 0.7657 0.95345 0.477 0.0
C1320 C 0.22412 1.01062 0.78673 0.0
C1321 C 0.24214 1.01025 0.76423 0.0
C1322 C 0.26339 0.05248 0.78008 0.0
C1323 C 0.24353 0.05434 0.80092 0.0
N1324 N 0.20148 0.03782 0.82071 0.0
N1325 N 0.27598 0.03252 0.73682 0.0
C1326 C 0.22301 0.03406 0.80351 0.0
C1327 C 0.26101 1.03165 0.76015 0.0
N1328 N 0.20831 0.98838 0.7924 0.0
N1329 N 0.28496 0.07015 0.77986 0.0
H1330 H 0.27433 1.01772 0.72171 0.0
H1331 H 0.28813 0.04901 0.73134 0.0
H1332 H 0.28765 0.08529 0.79451 0.0
H1333 H 0.3015 0.0682 0.76679 0.0
H1334 H 0.19729 0.98626 0.81034 0.0
H1335 H 0.20784 0.97099 0.78028 0.0
H1336 H 0.18437 1.02522 0.82096 0.0
H1337 H 0.19921 0.05486 0.83304 0.0
C1338 C 0.282 0.54415 0.5521 0.0
C1339 C 0.26464 0.56706 0.55464 0.0
C1340 C 0.29416 0.59329 0.52451 0.0
C1341 C 0.30984 0.56958 0.51933 0.0
N1342 N 0.31727 0.52148 0.52613 0.0
N1343 N 0.25025 0.61098 0.53736 0.0
C1344 C 0.30341 0.54468 0.5326 0.0
C1345 C 0.26952 0.59089 0.53909 0.0
N1346 N 0.27847 0.52226 0.56884 0.0
N1347 N 0.30352 0.61848 0.51719 0.0
H1348 H 0.2315 0.61003 0.54718 0.0
H1349 H 0.2518 0.62734 0.52394 0.0
H1350 H 0.32254 0.62178 0.50842 0.0
H1351 H 0.2939 0.63647 0.52302 0.0
H1352 H 0.29198 0.50592 0.56993 0.0
H1353 H 0.26306 0.52154 0.58332 0.0
H1354 H 0.3116 0.50216 0.53276 0.0
H1355 H 0.33339 0.52127 0.51245 0.0
C1356 C 0.79175 0.21843 0.03994 0.0
C1357 C 0.79778 0.24167 0.05608 0.0
C1358 C 0.76621 0.26871 1.02802 0.0
C1359 C 0.76323 0.24638 1.01009 0.0
N1360 N 0.77899 0.20215 0.99543 0.0
N1361 N 0.79361 0.2902 0.06308 0.0
C1362 C 0.77779 0.22191 1.01493 0.0
C1363 C 0.78576 0.26722 0.04951 0.0
N1364 N 0.79756 0.19277 0.04913 0.0
N1365 N 0.74996 0.29106 1.0249 0.0
H1366 H 0.80792 0.29002 0.07879 0.0
H1367 H 0.78773 0.30974 0.05723 0.0
H1368 H 0.73531 0.29233 1.00955 0.0
H1369 H 0.74926 0.307 0.03883 0.0
H1370 H 0.7913 0.17524 0.03892 0.0
H1371 H 0.80526 0.18873 0.06851 0.0
H1372 H 0.79165 0.18515 0.99708 0.0
H1373 H 0.76959 0.20407 0.97647 0.0
C1374 C 0.48056 0.05859 0.28328 0.0
C1375 C 0.49794 0.05234 0.30567 0.0
C1376 C 0.51127 1.0098 0.28339 0.0
C1377 C 0.49618 1.0176 0.25999 0.0
N1378 N 0.4718 0.05272 0.23531 0.0
N1379 N 0.53459 1.02502 0.32421 0.0
C1380 C 0.4828 0.04318 0.25908 0.0
C1381 C 0.51477 1.02882 0.30488 0.0
N1382 N 0.46015 0.07742 0.28565 0.0
N1383 N 0.52177 0.98414 0.28538 0.0
H1384 H 0.53836 0.03901 0.33972 0.0
H1385 H 0.54908 1.00953 0.32316 0.0
H1386 H 0.51961 0.96976 0.26996 0.0
H1387 H 0.53056 0.97648 0.30316 0.0
H1388 H 0.44519 0.08024 0.27076 0.0
H1389 H 0.45587 0.0878 0.30355 0.0
H1390 H 0.46448 0.07255 0.23319 0.0
H1391 H 0.47186 0.04173 0.2172 0.0
C1392 C 0.09702 1.01853 0.27876 0.0
C1393 C 0.1218 1.00436 0.27321 0.0
C1394 C 0.1458 0.04857 0.27183 0.0
C1395 C 0.12193 0.06245 0.28054 0.0
N1396 N 0.07531 0.05981 0.29559 0.0
N1397 N 0.17108 1.00634 0.27086 0.0
C1398 C 0.0976 0.0472 0.2848 0.0
C1399 C 0.14651 1.01954 0.27146 0.0
N1400 N 0.07275 1.00492 0.27721 0.0
N1401 N 0.16773 0.06315 0.26281 0.0
H1402 H 0.173 0.98524 0.27178 0.0
H1403 H 0.18975 1.01638 0.27263 0.0
H1404 H 0.16777 0.08433 0.26172 0.0
H1405 H 0.18457 0.05423 0.25351 0.0
H1406 H 0.05384 1.01455 0.27813 0.0
H1407 H 0.07144 0.98424 0.27265 0.0
H1408 H 0.05804 0.04937 0.3021 0.0
H1409 H 0.0749 0.08058 0.29992 0.0
C1410 C 0.26577 0.71105 0.03737 0.0
C1411 C 0.25196 0.6856 0.03867 0.0
C1412 C 0.29594 0.66188 1.03156 0.0
C1413 C 0.30953 0.6874 1.02898 0.0
N1414 N 0.30686 0.73621 1.02555 0.0
N1415 N 0.25354 0.63658 0.03588 0.0
C1416 C 0.2943 0.71197 1.03099 0.0
C1417 C 0.26703 0.66098 0.03565 0.0
N1418 N 0.25187 0.73436 0.04354 0.0
N1419 N 0.31084 0.63832 1.03091 0.0
H1420 H 0.23286 0.63465 0.04021 0.0
H1421 H 0.26215 0.61814 1.03012 0.0
H1422 H 0.33164 0.63768 1.02674 0.0
H1423 H 0.3033 0.61928 0.03628 0.0
H1424 H 0.26116 0.75324 0.04611 0.0
H1425 H 0.23114 0.73454 0.0483 0.0
H1426 H 0.2965 0.75459 1.02346 0.0
H1427 H 0.32757 0.73771 1.02098 0.0
C1428 C 0.92394 0.52174 0.30669 0.0
C1429 C 0.94215 0.50326 0.29355 0.0
C1430 C 0.96227 0.54279 0.2697 0.0
C1431 C 0.94605 0.56097 0.28521 0.0
N1432 N 0.91786 0.56717 0.32463 0.0
N1433 N 0.98396 0.4985 0.26787 0.0
C1434 C 0.9292 0.55024 0.30586 0.0
C1435 C 0.96284 0.51439 0.27647 0.0
N1436 N 0.9003 0.51267 0.3182 0.0
N1437 N 0.97734 0.55257 0.24858 0.0
H1438 H 0.98662 0.47839 0.27396 0.0
H1439 H 1.00069 0.50624 0.2574 0.0
H1440 H 0.97873 0.5733 0.24411 0.0
H1441 H 0.98704 0.53996 0.23461 0.0
H1442 H 0.88563 0.52581 0.32607 0.0
H1443 H 0.89327 0.49277 0.31639 0.0
H1444 H 0.90737 0.55998 0.34157 0.0
H1445 H 0.92142 0.58808 0.32477 0.0
C1446 C 0.76395 0.85411 1.03122 0.0
C1447 C 0.74979 0.87937 1.03015 0.0
C1448 C 0.79362 0.90372 0.03602 0.0
C1449 C 0.80762 0.8784 0.03845 0.0
N1450 N 0.80568 0.82959 0.04253 0.0
N1451 N 0.75074 0.92839 0.03356 0.0
C1452 C 0.79266 0.85361 0.03705 0.0
C1453 C 0.76457 0.9042 0.03296 0.0
N1454 N 0.75018 0.8306 1.02541 0.0
N1455 N 0.8082 0.92749 0.03568 0.0
H1456 H 0.72984 0.93009 1.02995 0.0
H1457 H 0.75941 0.94681 0.03947 0.0
H1458 H 0.82919 0.92847 0.03896 0.0
H1459 H 0.80007 0.94628 1.03018 0.0
H1460 H 0.75968 0.81186 1.02266 0.0
H1461 H 0.7293 0.83011 1.02113 0.0
H1462 H 0.79559 0.81112 0.045 0.0
H1463 H 0.82653 0.82839 0.04683 0.0
C1464 C 0.2693 0.13803 0.05076 0.0
C1465 C 0.28415 0.11627 0.06266 0.0
C1466 C 0.28665 0.09433 1.01754 0.0
C1467 C 0.27496 0.11785 1.005 0.0
N1468 N 0.25949 0.16449 1.01048 0.0
N1469 N 0.30971 0.07489 0.05705 0.0
C1470 C 0.26728 0.14027 1.02186 0.0
C1471 C 0.29357 0.09472 0.04594 0.0
N1472 N 0.25653 0.15644 0.0672 0.0
N1473 N 0.28989 0.07103 1.00275 0.0
H1474 H 0.31438 0.07411 0.07777 0.0
H1475 H 0.31997 0.06042 0.04549 0.0
H1476 H 0.28401 0.06936 0.98242 0.0
H1477 H 0.29572 0.05252 1.01132 0.0
H1478 H 0.24282 0.171 0.05997 0.0
H1479 H 0.25746 0.15542 0.08838 0.0
H1480 H 0.25701 0.18228 1.0217 0.0
H1481 H 0.25827 0.16795 0.98966 0.0
C1482 C 0.35269 0.52451 0.26779 0.0
C1483 C 0.37536 0.53169 0.25137 0.0
C1484 C 0.40123 0.54425 0.29255 0.0
C1485 C 0.37794 0.5391 0.30904 0.0
N1486 N 0.32965 0.52943 0.31113 0.0
N1487 N 0.41843 0.55483 0.24773 0.0
C1488 C 0.35313 0.53055 0.29633 0.0
C1489 C 0.39876 0.54346 0.26369 0.0
N1490 N 0.33103 0.5112 0.2563 0.0
N1491 N 0.42625 0.54859 0.30428 0.0
H1492 H 0.41686 0.55533 0.22662 0.0
H1493 H 0.43461 0.56632 0.25541 0.0
H1494 H 0.42965 0.54866 0.32519 0.0
H1495 H 0.44431 0.5492 0.29321 0.0
H1496 H 0.31534 0.50253 0.26759 0.0
H1497 H 0.32969 0.50721 0.2355 0.0
H1498 H 0.31047 0.52613 0.30249 0.0
H1499 H 0.32887 0.53432 0.33173 0.0
C1500 C 0.78415 0.41592 0.04372 0.0
C1501 C 0.78161 0.44025 0.05924 0.0
C1502 C 0.78838 0.46734 1.01739 0.0
C1503 C 0.78932 0.44307 1.00169 0.0
N1504 N 0.78571 0.39408 0.99952 0.0
N1505 N 0.77727 0.48907 0.06038 0.0
C1506 C 0.78673 0.41733 1.01481 0.0
C1507 C 0.78278 0.46596 0.04595 0.0
N1508 N 0.78491 0.39129 0.05673 0.0
N1509 N 0.794 0.49172 1.00522 0.0
H1510 H 0.77318 0.48893 0.08116 0.0
H1511 H 0.7746 0.50813 0.05149 0.0
H1512 H 0.79807 0.49355 0.9845 0.0
H1513 H 0.79682 0.50981 1.01587 0.0
H1514 H 0.79062 0.37315 0.04745 0.0
H1515 H 0.78174 0.38897 0.07751 0.0
H1516 H 0.78008 0.37513 1.0071 0.0
H1517 H 0.78841 0.39378 0.97854 0.0
C1518 C 0.67118 1.01822 0.26751 0.0
C1519 C 0.69423 1.03103 0.2558 0.0
C1520 C 0.71692 1.03109 0.30074 0.0
C1521 C 0.69254 1.02136 0.31313 0.0
N1522 N 0.6446 1.00995 0.30795 0.0
N1523 N 0.73803 0.05248 0.26149 0.0
C1524 C 0.66923 1.01585 0.29638 0.0
C1525 C 0.71682 0.03827 0.2725 0.0
N1526 N 0.65105 1.00811 0.25096 0.0
N1527 N 0.74062 1.03214 0.31552 0.0
H1528 H 0.73911 0.05702 0.24078 0.0
H1529 H 0.75356 0.06127 0.27308 0.0
H1530 H 0.74194 1.02603 0.33578 0.0
H1531 H 0.75956 0.03641 0.30701 0.0
H1532 H 0.63522 0.99583 0.25791 0.0
H1533 H 0.6515 1.00986 0.22982 0.0
H1534 H 0.62636 1.00908 0.29698 0.0
H1535 H 0.6415 1.00869 0.32881 0.0
C1536 C 0.28259 0.96137 0.54564 0.0
C1537 C 0.28539 0.93637 0.55995 0.0
C1538 C 0.29675 0.91323 0.51681 0.0
C1539 C 0.29488 0.93848 0.5025 0.0
N1540 N 0.29099 0.98734 0.50435 0.0
N1541 N 0.29813 0.88908 0.55992 0.0
C1542 C 0.28905 0.96275 0.51722 0.0
C1543 C 0.29335 0.91253 0.54568 0.0
N1544 N 0.27281 0.98366 0.55904 0.0
N1545 N 0.30044 0.88951 0.50274 0.0
H1546 H 0.29402 0.88717 0.58056 0.0
H1547 H 0.3078 0.87204 0.5519 0.0
H1548 H 0.30343 0.88857 0.48184 0.0
H1549 H 0.29826 0.87024 0.51124 0.0
H1550 H 0.26707 1.00164 0.54936 0.0
H1551 H 0.26866 0.98357 0.57982 0.0
H1552 H 0.28994 1.00596 0.51436 0.0
H1553 H 0.29607 0.98925 0.48388 0.0
C1554 C 0.16821 0.51601 0.76517 0.0
C1555 C 0.19248 0.52694 0.75393 0.0
C1556 C 0.21367 0.52596 0.79972 0.0
C1557 C 0.18829 0.51808 0.81148 0.0
N1558 N 0.13985 0.51025 0.80486 0.0
N1559 N 0.23753 0.54517 0.76083 0.0
C1560 C 0.1652 0.51418 0.79401 0.0
C1561 C 0.21502 0.53266 0.77132 0.0
N1562 N 0.14801 0.50687 0.74814 0.0
N1563 N 0.23686 0.52578 0.81532 0.0
H1564 H 0.23953 0.54937 0.74013 0.0
H1565 H 0.25332 0.55294 0.77279 0.0
H1566 H 0.23701 0.52025 0.83578 0.0
H1567 H 0.25633 0.52858 0.80742 0.0
H1568 H 0.13108 0.49596 0.75478 0.0
H1569 H 0.14949 0.50778 0.727 0.0
H1570 H 0.12193 0.51064 0.79333 0.0
H1571 H 0.13609 0.50944 0.82564 0.0
C1572 C 0.80175 0.64396 0.51172 0.0
C1573 C 0.78896 0.62073 0.50026 0.0
C1574 C 0.78666 0.60016 0.54605 0.0
C1575 C 0.79617 0.62488 0.55801 0.0
N1576 N 0.80845 0.67225 0.5514 0.0
N1577 N 0.76634 0.57779 0.5067 0.0
C1578 C 0.8028 0.64723 0.54059 0.0
C1579 C 0.78057 0.59915 0.51751 0.0
N1580 N 0.81297 0.66309 0.49492 0.0
N1581 N 0.7848 0.57715 0.56155 0.0
H1582 H 0.76267 0.5758 0.48587 0.0
H1583 H 0.75672 0.56306 0.51851 0.0
H1584 H 0.79028 0.57652 0.58204 0.0
H1585 H 0.78062 0.55799 0.55347 0.0
H1586 H 0.82526 0.67896 0.50186 0.0
H1587 H 0.81215 0.66167 0.47376 0.0
H1588 H 0.81009 0.68987 0.53972 0.0
H1589 H 0.80873 0.67633 0.57213 0.0
C1590 C 0.90018 0.04944 0.79431 0.0
C1591 C 0.8765 0.04476 0.81051 0.0
C1592 C 0.85204 1.02882 0.76933 0.0
C1593 C 0.8751 0.03516 0.75318 0.0
N1594 N 0.91906 0.05663 0.7493 0.0
N1595 N 0.82804 0.03576 0.81182 0.0
C1596 C 0.89845 0.04715 0.76541 0.0
C1597 C 0.85191 0.03597 0.79757 0.0
N1598 N 0.92488 0.0545 0.80642 0.0
N1599 N 0.83043 1.01544 0.75782 0.0
H1600 H 0.82675 0.04186 0.83206 0.0
H1601 H 0.80904 0.0322 0.80288 0.0
H1602 H 0.82943 1.01094 0.73709 0.0
H1603 H 0.81443 1.00727 0.76903 0.0
H1604 H 0.94325 0.0547 0.79586 0.0
H1605 H 0.92782 0.05568 0.82734 0.0
H1606 H 0.93523 0.06835 0.75661 0.0
H1607 H 0.91869 0.05503 0.72815 0.0
C1608 C 1.02332 0.2808 0.11115 0.0
C1609 C 1.00942 0.26785 0.13302 0.0
C1610 C 0.0544 0.25711 0.15363 0.0
C1611 C 0.06781 0.27371 0.13431 0.0
N1612 N 0.0644 0.30354 0.09546 0.0
N1613 N 1.01285 0.25013 0.17891 0.0
C1614 C 0.05201 0.28635 0.11342 0.0
C1615 C 1.02528 0.25757 0.15524 0.0
N1616 N 1.00965 0.28648 0.08752 0.0
N1617 N 0.06935 0.24094 0.17069 0.0
H1618 H 0.99204 0.25269 0.18233 0.0
H1619 H 1.02373 0.24489 0.19644 0.0
H1620 H 0.09061 0.24005 0.17009 0.0
H1621 H 0.06051 0.2266 0.18356 0.0
H1622 H 1.01929 0.29342 0.07001 0.0
H1623 H 0.98923 0.28146 0.0843 0.0
H1624 H 0.05357 0.31598 0.08203 0.0
H1625 H 0.08549 0.30647 0.09501 0.0
C1626 C 1.02477 0.78483 0.46092 0.0
C1627 C 1.01002 0.7846 0.43594 0.0
C1628 C 0.05304 0.77657 0.41125 0.0
C1629 C 0.06769 0.7753 0.43638 0.0
N1630 N 0.06667 0.77371 0.48535 0.0
N1631 N 1.00938 0.77661 0.3876 0.0
C1632 C 0.05332 0.77833 0.46128 0.0
C1633 C 1.02401 0.77949 0.41122 0.0
N1634 N 1.01167 0.79219 0.48424 0.0
N1635 N 0.06695 0.77617 0.38721 0.0
H1636 H 0.98836 0.77964 0.38641 0.0
H1637 H 1.01758 0.76923 0.36958 0.0
H1638 H 0.088 0.77364 0.38592 0.0
H1639 H 0.05807 0.7807 0.36846 0.0
H1640 H 1.02169 0.79596 0.50258 0.0
H1641 H 0.99081 0.79646 0.48482 0.0
H1642 H 0.05688 0.77256 0.50404 0.0
H1643 H 0.08734 0.76874 0.48648 0.0
C1644 C 1.02832 0.76755 0.84787 0.0
C1645 C 1.02603 0.75298 0.87276 0.0
C1646 C 1.03228 0.79595 0.89822 0.0
C1647 C 0.03577 0.81032 0.8733 0.0
N1648 N 0.04107 0.8094 0.82468 0.0
N1649 N 1.02668 0.75289 0.92187 0.0
C1650 C 0.03471 0.79601 0.84819 0.0
C1651 C 1.02804 0.76715 0.89798 0.0
N1652 N 1.02308 0.75443 0.82389 0.0
N1653 N 1.03233 0.81003 0.92224 0.0
H1654 H 1.0225 0.73216 0.92295 0.0
H1655 H 1.03142 0.7609 0.94089 0.0
H1656 H 0.0367 0.83071 0.92369 0.0
H1657 H 1.02641 0.80194 0.94083 0.0
H1658 H 1.02125 0.7643 0.80523 0.0
H1659 H 1.01832 0.73377 0.82282 0.0
H1660 H 0.04388 0.79974 0.80608 0.0
H1661 H 0.0457 0.83012 0.82407 0.0
C1662 C 0.54057 0.29559 0.35142 0.0
C1663 C 0.54262 0.31002 0.37643 0.0
C1664 C 0.5378 0.2666 0.40144 0.0
C1665 C 0.53393 0.25248 0.37645 0.0
N1666 N 0.52789 0.25389 0.32785 0.0
N1667 N 0.54141 0.30947 0.42558 0.0
C1668 C 0.53446 0.26707 0.35148 0.0
C1669 C 0.54098 0.29552 0.4015 0.0
N1670 N 0.54577 0.30889 0.32757 0.0
N1671 N 0.53919 0.25223 0.42526 0.0
H1672 H 0.54473 0.33033 0.42704 0.0
H1673 H 0.53643 0.30093 0.44427 0.0
H1674 H 0.53555 0.23139 0.42656 0.0
H1675 H 0.54588 0.26036 0.44366 0.0
H1676 H 0.5477 0.29911 0.30892 0.0
H1677 H 0.55055 0.32955 0.32667 0.0
H1678 H 0.52465 0.2638 0.30939 0.0
H1679 H 0.52356 0.23312 0.32703 0.0
C1680 C 0.51686 0.79019 0.65079 0.0
C1681 C 0.50368 0.78055 0.62684 0.0
C1682 C 0.54772 0.78336 0.60258 0.0
C1683 C 0.56142 0.79036 0.62726 0.0
N1684 N 0.55895 0.79694 0.67597 0.0
N1685 N 0.50703 0.76495 0.58062 0.0
C1686 C 0.54591 0.79302 0.6516 0.0
C1687 C 0.51923 0.77645 0.60287 0.0
N1688 N 0.50145 0.79743 0.67273 0.0
N1689 N 0.5616 0.78451 0.57859 0.0
H1690 H 0.48627 0.7602 0.5799 0.0
H1691 H 0.51775 0.75833 0.56364 0.0
H1692 H 0.58216 0.78985 0.57742 0.0
H1693 H 0.55224 0.78259 0.55962 0.0
H1694 H 0.5092 0.80789 0.68949 0.0
H1695 H 0.4803 0.79522 0.67324 0.0
H1696 H 0.54926 0.79537 0.69469 0.0
H1697 H 0.57998 0.79929 0.67799 0.0
C1698 C 0.04539 0.29471 0.70728 0.0
C1699 C 1.0246 0.30559 0.68996 0.0
C1700 C 1.0103 0.25828 0.6799 0.0
C1701 C 0.03432 0.24802 0.69238 0.0
N1702 N 0.07598 0.25709 0.71715 0.0
N1703 N 0.99029 0.29564 0.65522 0.0
C1704 C 0.05234 0.26648 0.70563 0.0
C1705 C 1.00765 0.28684 0.67524 0.0
N1706 N 0.05736 0.31075 0.72666 0.0
N1707 N 0.98998 0.24089 0.67204 0.0
H1708 H 0.98838 0.31574 0.64912 0.0
H1709 H 0.98002 0.28237 0.64217 0.0
H1710 H 0.99128 0.21985 0.67431 0.0
H1711 H 0.97083 0.24762 0.66554 0.0
H1712 H 0.07091 0.30325 0.74126 0.0
H1713 H 0.05109 0.33059 0.73063 0.0
H1714 H 0.09146 0.26997 0.72402 0.0
H1715 H 0.08073 0.23644 0.71854 0.0
C1716 C 0.64963 0.54932 0.77656 0.0
C1717 C 0.62461 0.56259 0.78269 0.0
C1718 C 0.60047 0.51861 0.77794 0.0
C1719 C 0.62581 0.50498 0.77404 0.0
N1720 N 0.67512 0.5072 0.77305 0.0
N1721 N 0.57665 0.55948 0.79262 0.0
C1722 C 0.65052 0.52035 0.77412 0.0
C1723 C 0.60012 0.54713 0.78419 0.0
N1724 N 0.67258 0.56455 0.77218 0.0
N1725 N 0.57661 0.50457 0.77448 0.0
H1726 H 0.57551 0.58024 0.79691 0.0
H1727 H 0.55886 0.54892 0.79731 0.0
H1728 H 0.57599 0.48388 0.76979 0.0
H1729 H 0.55747 0.51378 0.77398 0.0
H1730 H 0.69056 0.5567 0.76415 0.0
H1731 H 0.67311 0.58563 0.77436 0.0
H1732 H 0.69377 0.5167 0.77675 0.0
H1733 H 0.67708 0.48623 0.77081 0.0
C1734 C 0.80445 0.21357 0.52872 0.0
C1735 C 0.81832 0.18817 0.52738 0.0
C1736 C 0.77436 0.16431 0.53412 0.0
C1737 C 0.76066 0.18978 0.53671 0.0
N1738 N 0.76331 0.23856 0.54065 0.0
N1739 N 0.81691 0.13918 0.53074 0.0
C1740 C 0.77589 0.21439 0.535 0.0
C1741 C 0.80332 0.16352 0.53048 0.0
N1742 N 0.81836 0.23695 0.52279 0.0
N1743 N 0.75953 0.14069 0.53421 0.0
H1744 H 0.83766 0.1373 0.52668 0.0
H1745 H 0.80827 0.12082 0.53678 0.0
H1746 H 0.73864 0.13992 0.53789 0.0
H1747 H 0.7673 0.12179 0.52871 0.0
H1748 H 0.80903 0.25581 0.52022 0.0
H1749 H 0.83914 0.23719 0.51829 0.0
H1750 H 0.77366 0.25692 0.54291 0.0
H1751 H 0.74261 0.23999 0.54532 0.0
C1752 C 0.41938 1.01595 0.7821 0.0
C1753 C 0.44414 1.00255 0.78908 0.0
C1754 C 0.46865 0.04621 0.78406 0.0
C1755 C 0.44338 0.05998 0.77985 0.0
N1756 N 0.39406 0.0582 0.78084 0.0
N1757 N 0.49201 1.00546 0.80014 0.0
C1758 C 0.41858 0.04489 0.78052 0.0
C1759 C 0.46873 1.01783 0.79095 0.0
N1760 N 0.39669 1.00095 0.77579 0.0
N1761 N 0.49263 0.05987 0.78032 0.0
H1762 H 0.49288 0.98478 0.80491 0.0
H1763 H 0.50983 1.01601 0.80494 0.0
H1764 H 0.49345 0.08043 0.77514 0.0
H1765 H 0.51163 0.05036 0.78013 0.0
H1766 H 0.37887 1.00941 0.76776 0.0
H1767 H 0.39661 0.97973 0.77569 0.0
H1768 H 0.37554 0.04841 0.78441 0.0
H1769 H 0.39229 0.07933 0.7805 0.0
C1770 C 0.2656 0.3978 0.53026 0.0
C1771 C 0.25232 0.37228 0.5262 0.0
C1772 C 0.29643 0.34883 0.53385 0.0
C1773 C 0.30993 0.37437 0.53635 0.0
N1774 N 0.30776 0.42343 0.53462 0.0
N1775 N 0.25578 0.32378 0.52005 0.0
C1776 C 0.29455 0.39889 0.53406 0.0
C1777 C 0.26793 0.34786 0.52703 0.0
N1778 N 0.25039 0.42113 0.53147 0.0
N1779 N 0.3106 0.32544 0.53922 0.0
H1780 H 0.23514 0.32223 0.51496 0.0
H1781 H 0.26648 0.30573 0.51711 0.0
H1782 H 0.33133 0.3253 0.54422 0.0
H1783 H 0.30149 0.30638 0.54091 0.0
H1784 H 0.25795 0.43978 0.53812 0.0
H1785 H 0.22943 0.42175 0.52794 0.0
H1786 H 0.29871 0.44182 0.52916 0.0
H1787 H 0.32855 0.42552 0.53862 0.0
C1788 C 0.51972 0.27916 0.96416 0.0
C1789 C 0.50481 0.28187 0.93939 0.0
C1790 C 0.54769 0.27635 0.91361 0.0
C1791 C 0.56247 0.27273 0.93842 0.0
N1792 N 0.56208 0.26633 0.98695 0.0
N1793 N 0.50414 0.2817 0.89028 0.0
C1794 C 0.54834 0.27308 0.9636 0.0
C1795 C 0.51875 0.28025 0.91407 0.0
N1796 N 0.50675 0.28369 0.98828 0.0
N1797 N 0.5615 0.27688 0.8895 0.0
H1798 H 0.48331 0.28579 0.88937 0.0
H1799 H 0.51197 0.27711 0.87123 0.0
H1800 H 0.58229 0.2729 0.88784 0.0
H1801 H 0.55304 0.28295 0.87102 0.0
H1802 H 0.51682 0.28523 1.00691 0.0
H1803 H 0.48596 0.28808 0.98952 0.0
H1804 H 0.55261 0.26308 1.00556 0.0
H1805 H 0.58287 0.26177 0.98735 0.0
C1806 C 0.55674 0.77142 0.1742 0.0
C1807 C 0.54124 0.75273 0.19014 0.0
C1808 C 0.51624 0.79217 0.20891 0.0
C1809 C 0.53393 0.8105 0.19515 0.0
N1810 N 0.57671 0.81635 0.17182 0.0
N1811 N 0.51083 0.74714 0.22838 0.0
C1812 C 0.55618 0.79973 0.1804 0.0
C1813 C 0.52218 0.76358 0.2091 0.0
N1814 N 0.57024 0.76281 0.15155 0.0
N1815 N 0.49391 0.80201 0.22219 0.0
H1816 H 0.51598 0.72672 0.23074 0.0
H1817 H 0.49878 0.75451 0.24413 0.0
H1818 H 0.49003 0.82277 0.22432 0.0
H1819 H 0.47855 0.78947 0.22975 0.0
H1820 H 0.58005 0.7762 0.13836 0.0
H1821 H 0.56823 0.74328 0.14359 0.0
H1822 H 0.59457 0.80883 0.16315 0.0
H1823 H 0.57699 0.83723 0.17551 0.0
C1824 C 0.15637 0.22536 0.22937 0.0
C1825 C 0.13188 0.22242 0.24414 0.0
C1826 C 0.11433 0.26354 0.22099 0.0
C1827 C 0.14123 0.27008 0.21242 0.0
N1828 N 0.18852 0.25716 0.21035 0.0
N1829 N 0.08519 0.23559 0.2501 0.0
C1830 C 0.1623 0.25064 0.21653 0.0
C1831 C 0.10993 0.24042 0.23841 0.0
N1832 N 0.17373 0.20383 0.22724 0.0
N1833 N 0.09332 0.27992 0.21284 0.0
H1834 H 0.08169 0.21841 0.26211 0.0
H1835 H 0.06834 0.24832 0.24814 0.0
H1836 H 0.09649 0.29681 0.20036 0.0
H1837 H 0.07286 0.27561 0.21638 0.0
H1838 H 0.19123 0.20415 0.21527 0.0
H1839 H 0.16834 0.18464 0.2345 0.0
H1840 H 0.20513 0.24502 0.21581 0.0
H1841 H 0.19353 0.27584 0.20177 0.0
C1842 C 0.50012 0.66755 0.05195 0.0
C1843 C 0.47786 0.6865 0.05239 0.0
C1844 C 0.49619 0.70407 0.09584 0.0
C1845 C 0.51271 0.68046 0.09866 0.0
N1846 N 0.53241 0.64062 0.0783 0.0
N1847 N 0.45928 0.72734 0.07228 0.0
C1848 C 0.51554 0.66264 0.07626 0.0
C1849 C 0.47744 0.70627 0.07355 0.0
N1850 N 0.50783 0.65542 1.02822 0.0
N1851 N 0.49917 0.72473 0.11425 0.0
H1852 H 0.44841 0.73213 0.05463 0.0
H1853 H 0.45496 0.74007 0.0886 0.0
H1854 H 0.51353 0.72392 0.13001 0.0
H1855 H 0.48962 0.74357 0.11249 0.0
H1856 H 0.52488 0.64287 1.02666 0.0
H1857 H 0.50042 0.66123 1.00927 0.0
H1858 H 0.53226 0.62465 0.06437 0.0
H1859 H 0.5457 0.63774 0.09468 0.0
C1860 C 0.91704 0.3154 0.25865 0.0
C1861 C 0.9269 0.34295 0.25685 0.0
C1862 C 0.94224 0.3317 0.21085 0.0
C1863 C 0.9259 0.30788 0.2102 0.0
N1864 N 0.89417 0.27905 0.2342 0.0
N1865 N 0.94202 0.37817 0.22521 0.0
C1866 C 0.91218 0.30022 0.23429 0.0
C1867 C 0.93775 0.35141 0.23132 0.0
N1868 N 0.91399 0.3027 0.28313 0.0
N1869 N 0.96213 0.3357 0.19193 0.0
H1870 H 0.93497 0.39416 0.23702 0.0
H1871 H 0.9486 0.38447 0.20607 0.0
H1872 H 0.96731 0.32082 0.17771 0.0
H1873 H 0.97555 0.35217 0.19286 0.0
H1874 H 0.90842 0.28228 0.28473 0.0
H1875 H 0.92122 0.31065 0.30136 0.0
H1876 H 0.88181 0.27465 0.25083 0.0
H1877 H 0.88991 0.2675 0.21695 0.0
C1878 C 0.57045 0.91048 0.07015 0.0
C1879 C 0.58666 0.8874 0.0633 0.0
C1880 C 0.56137 0.86052 0.09701 0.0
C1881 C 0.54316 0.88274 0.10166 0.0
N1882 N 0.52703 0.9268 0.08716 0.0
N1883 N 0.59203 0.83856 0.06546 0.0
C1884 C 0.54669 0.90709 0.08652 0.0
C1885 C 0.58061 0.86189 0.0754 0.0
N1886 N 0.57838 0.93593 0.06217 0.0
N1887 N 0.56144 0.83844 0.11389 0.0
H1888 H 0.605 0.83822 0.04876 0.0
H1889 H 0.58596 0.81919 0.07163 0.0
H1890 H 0.54877 0.83657 0.13065 0.0
H1891 H 0.57623 0.82322 0.11297 0.0
H1892 H 0.56831 0.95365 0.06797 0.0
H1893 H 0.59679 0.93971 0.05235 0.0
H1894 H 0.52723 0.94382 0.07452 0.0
H1895 H 0.50905 0.92472 0.09824 0.0
C1896 C 0.11777 0.84143 0.32902 0.0
C1897 C 0.13945 0.84365 0.30998 0.0
C1898 C 0.16335 0.80665 0.33445 0.0
C1899 C 0.14455 0.80833 0.35605 0.0
N1900 N 0.10425 0.82961 0.37477 0.0
N1901 N 0.18684 0.83279 0.30043 0.0
C1902 C 0.12189 0.82643 0.35358 0.0
C1903 C 0.16326 0.82725 0.31405 0.0
N1904 N 0.09283 0.85265 0.32343 0.0
N1905 N 0.18173 0.78583 0.33353 0.0
H1906 H 0.1893 0.84983 0.28813 0.0
H1907 H 0.20517 0.82275 0.30453 0.0
H1908 H 0.18197 0.77017 0.34783 0.0
H1909 H 0.19455 0.78267 0.31697 0.0
H1910 H 0.07575 0.8496 0.33558 0.0
H1911 H 0.088 0.86189 0.30495 0.0
H1912 H 0.08975 0.84511 0.37556 0.0
H1913 H 0.10502 0.81778 0.39234 0.0
C1914 C 0.07327 0.69739 0.96288 0.0
C1915 C 0.05647 0.67445 0.95672 0.0
C1916 C 0.0738 0.65185 0.99788 0.0
C1917 C 0.08971 0.6753 1.00467 0.0
N1918 N 0.0957 0.72361 0.99817 0.0
N1919 N 0.03438 0.63411 0.97361 0.0
C1920 C 0.08669 0.69909 0.98858 0.0
C1921 C 0.05444 0.65322 0.97609 0.0
N1922 N 0.07718 0.7174 0.944 0.0
N1923 N 0.07837 0.62757 1.01063 0.0
H1924 H 1.01966 0.63481 0.95825 0.0
H1925 H 1.03061 0.61947 0.98847 0.0
H1926 H 0.09322 0.62482 1.02554 0.0
H1927 H 0.06946 0.60937 1.00427 0.0
H1928 H 0.09169 0.73276 0.94639 0.0
H1929 H 0.0674 0.7177 0.92516 0.0
H1930 H 0.09161 0.74198 0.98834 0.0
H1931 H 0.10421 0.726 1.01752 0.0
C1932 C 0.90148 0.74236 0.30314 0.0
C1933 C 0.92465 0.72463 0.30343 0.0
C1934 C 0.93837 0.74516 0.34718 0.0
C1935 C 0.91738 0.76512 0.34473 0.0
N1936 N 0.88355 0.78639 0.31608 0.0
N1937 N 0.96891 0.71486 0.32333 0.0
C1938 C 0.90062 0.76499 0.32118 0.0
C1939 C 0.9443 0.72783 0.32467 0.0
N1940 N 0.879 0.73655 0.28763 0.0
N1941 N 0.95144 0.74119 0.37146 0.0
H1942 H 0.97488 0.70334 0.30659 0.0
H1943 H 0.98467 0.71848 0.33722 0.0
H1944 H 0.94691 0.75215 0.38897 0.0
H1945 H 0.96484 0.72504 0.37489 0.0
H1946 H 0.86096 0.74776 0.28873 0.0
H1947 H 0.87662 0.71854 0.27684 0.0
H1948 H 0.87261 0.78837 0.29792 0.0
H1949 H 0.88273 0.80348 0.32865 0.0
C1950 C 1.00789 0.90729 0.97837 0.0
C1951 C 1.00496 0.88761 0.95756 0.0
C1952 C 0.97294 0.86256 0.98698 0.0
C1953 C 0.97117 0.88526 1.0047 0.0
N1954 N 0.98428 0.93225 1.0132 0.0
N1955 N 0.9822 0.8468 0.94149 0.0
C1956 C 0.98822 0.90834 0.99962 0.0
C1957 C 0.98686 0.86525 0.96177 0.0
N1958 N 1.02897 0.92541 0.97768 0.0
N1959 N 0.962 0.83811 0.99445 0.0
H1960 H 0.99244 0.84709 0.92301 0.0
H1961 H 0.96679 0.8322 0.94239 0.0
H1962 H 0.95257 0.83504 1.01315 0.0
H1963 H 0.96509 0.82022 0.98351 0.0
H1964 H 1.03329 0.9387 0.99366 0.0
H1965 H 0.04376 0.92516 0.96255 0.0
H1966 H 0.99435 0.95022 1.00807 0.0
H1967 H 0.96873 0.93531 1.02711 0.0
C1968 C 0.23808 0.12249 0.22603 0.0
C1969 C 0.26336 0.13651 0.2277 0.0
C1970 C 0.24548 0.16078 0.26816 0.0
C1971 C 0.21889 0.15109 0.26214 0.0
N1972 N 0.18935 0.12589 0.23159 0.0
N1973 N 0.29227 0.1668 0.25464 0.0
C1974 C 0.21504 0.13269 0.24015 0.0
C1975 C 0.26747 0.15495 0.25005 0.0
N1976 N 0.23627 0.09847 0.21219 0.0
N1977 N 0.25011 0.17426 0.29208 0.0
H1978 H 0.31065 0.15802 0.24897 0.0
H1979 H 0.29464 0.18469 0.2658 0.0
H1980 H 0.23473 0.17831 0.30608 0.0
H1981 H 0.2695 0.17926 0.29933 0.0
H1982 H 0.21872 0.08645 0.21219 0.0
H1983 H 0.2534 0.08869 0.20435 0.0
H1984 H 0.18572 0.11461 0.21399 0.0
H1985 H 0.17166 0.13373 0.2403 0.0
C1986 C 0.36694 0.60016 0.07481 0.0
C1987 C 0.39008 0.60495 0.05804 0.0
C1988 C 0.40943 0.56122 0.07289 0.0
C1989 C 0.38562 0.55593 0.0889 0.0
N1990 N 0.3383 0.56671 0.0968 0.0
N1991 N 0.4299 0.58692 0.036 0.0
C1992 C 0.36332 0.57427 0.08724 0.0
C1993 C 0.4099 0.58421 0.05504 0.0
N1994 N 0.34864 0.62055 0.07974 0.0
N1995 N 0.43269 0.54621 0.07653 0.0
H1996 H 0.43162 0.60398 1.02352 0.0
H1997 H 0.44316 0.57118 1.03086 0.0
H1998 H 0.43503 0.53134 0.0914 0.0
H1999 H 0.4512 0.55102 0.06738 0.0
H2000 H 0.33345 0.61908 0.09442 0.0
H2001 H 0.3496 0.63962 0.07054 0.0
H2002 H 0.32066 0.57818 0.09361 0.0
H2003 H 0.33455 0.54755 0.10511 0.0
C2004 C 0.81952 0.40252 0.23401 0.0
C2005 C 0.8107 0.42809 0.22333 0.0
C2006 C 0.84548 0.45115 0.2515 0.0
C2007 C 0.85404 0.42559 0.26219 0.0
N2008 N 0.84569 0.37784 0.26828 0.0
N2009 N 0.8127 0.47702 0.22463 0.0
C2010 C 0.83967 0.40162 0.25513 0.0
C2011 C 0.82293 0.4525 0.23295 0.0
N2012 N 0.81025 0.37895 0.22248 0.0
N2013 N 0.85964 0.47409 0.2586 0.0
H2014 H 0.79684 0.47872 0.21051 0.0
H2015 H 0.81858 0.49563 0.23284 0.0
H2016 H 0.87478 0.47403 0.27362 0.0
H2017 H 0.85721 0.49291 0.24918 0.0
H2018 H 0.81806 0.35977 0.22707 0.0
H2019 H 0.79655 0.37867 0.20625 0.0
H2020 H 0.83433 0.36006 0.26605 0.0
H2021 H 0.86058 0.3766 0.28348 0.0
C2022 C 0.6986 0.99336 0.09217 0.0
C2023 C 0.67733 1.01287 0.09254 0.0
C2024 C 0.65354 0.98679 0.05642 0.0
C2025 C 0.67181 0.9648 0.06061 0.0
N2026 N 0.71212 0.94698 0.08313 0.0
N2027 N 0.6336 1.02798 0.07445 0.0
C2028 C 0.69465 0.9682 0.07841 0.0
C2029 C 0.65485 1.00997 0.07402 0.0
N2030 N 0.72281 0.99908 0.10489 0.0
N2031 N 0.6345 0.98535 0.03605 0.0
H2032 H 0.63363 0.04595 0.0855 0.0
H2033 H 0.61497 1.02441 0.06478 0.0
H2034 H 0.63234 0.96841 1.0235 0.0
H2035 H 0.62254 1.00182 1.02997 0.0
H2036 H 0.74017 0.98698 0.10316 0.0
H2037 H 0.72642 1.01758 0.11471 0.0
H2038 H 0.7268 0.94701 0.09854 0.0
H2039 H 0.71104 0.92857 0.0727 0.0
C2040 C 0.22975 0.91375 0.30135 0.0
C2041 C 0.20598 0.92859 0.30806 0.0
C2042 C 0.22824 0.94358 0.35018 0.0
C2043 C 0.2536 0.93139 0.34247 0.0
N2044 N 0.27874 0.91361 0.30327 0.0
N2045 N 0.1883 0.96688 0.33319 0.0
C2046 C 0.25458 0.91904 0.31586 0.0
C2047 C 0.20729 0.94673 0.33042 0.0
N2048 N 0.22895 0.89418 0.28169 0.0
N2049 N 0.22251 0.95034 0.37647 0.0
H2050 H 0.17316 0.97053 0.31863 0.0
H2051 H 0.18982 0.98179 0.34822 0.0
H2052 H 0.23418 0.94456 0.39313 0.0
H2053 H 0.20345 0.95777 0.38226 0.0
H2054 H 0.2451 0.88073 0.27847 0.0
H2055 H 0.21159 0.88989 0.27018 0.0
H2056 H 0.2797 0.90658 0.2833 0.0
H2057 H 0.29764 0.91983 0.31045 0.0
C2058 C 0.14861 0.56001 0.9885 0.0
C2059 C 0.17245 0.5528 0.97349 0.0
C2060 C 0.19468 0.59439 0.99048 0.0
C2061 C 0.17155 0.60055 1.00689 0.0
N2062 N 0.13027 0.58402 1.02741 0.0
N2063 N 0.22103 0.55911 0.96842 0.0
C2064 C 0.1499 0.58149 1.00804 0.0
C2065 C 0.19637 0.56877 0.97698 0.0
N2066 N 0.12407 0.54805 0.98281 0.0
N2067 N 0.21493 0.61318 0.98709 0.0
H2068 H 0.22345 0.5398 0.95996 0.0
H2069 H 0.23946 0.56881 0.97282 0.0
H2070 H 0.21514 0.63194 0.9969 0.0
H2071 H 0.23052 0.61087 0.97295 0.0
H2072 H 0.10575 0.55465 0.99123 0.0
H2073 H 0.12132 0.5339 0.96735 0.0
H2074 H 0.11522 0.56935 1.03055 0.0
H2075 H 0.13085 0.5992 0.04219 0.0
C2076 C 0.82032 0.61025 0.32978 0.0
C2077 C 0.80627 0.63503 0.3349 0.0
C2078 C 0.83388 0.65727 0.29916 0.0
C2079 C 0.85143 0.63454 0.29886 0.0
N2080 N 0.85915 0.58747 0.30908 0.0
N2081 N 0.79872 0.68245 0.3223 0.0
C2082 C 0.84371 0.61033 0.31256 0.0
C2083 C 0.81229 0.65846 0.31854 0.0
N2084 N 0.81062 0.58653 0.34065 0.0
N2085 N 0.83769 0.67759 0.28062 0.0
H2086 H 0.78114 0.68453 0.33371 0.0
H2087 H 0.80552 0.70099 0.31463 0.0
H2088 H 0.85295 0.67669 0.26596 0.0
H2089 H 0.82414 0.69367 0.2777 0.0
H2090 H 0.8184 0.56736 0.33625 0.0
H2091 H 0.7929 0.5857 0.35229 0.0
H2092 H 0.8571 0.5698 0.32054 0.0
H2093 H 0.87453 0.58651 0.29449 0.0
C2094 C 0.8638 0.99143 0.97395 0.0
C2095 C 0.8876 1.00766 0.97123 0.0
C2096 C 0.90999 0.97942 1.00649 0.0
C2097 C 0.88851 0.96022 1.00469 0.0
N2098 N 0.84526 0.94716 0.98438 0.0
N2099 N 0.93538 1.01417 0.98294 0.0
C2100 C 0.86546 0.96605 0.98781 0.0
C2101 C 0.91116 1.00114 0.98726 0.0
N2102 N 0.83925 1.00069 0.96435 0.0
N2103 N 0.92959 0.97678 1.02617 0.0
H2104 H 0.93794 1.02934 0.9685 0.0
H2105 H 0.95376 1.00791 0.99172 0.0
H2106 H 0.92939 0.96121 0.04054 0.0
H2107 H 0.94432 0.99162 1.02999 0.0
H2108 H 0.8208 0.9909 0.96826 0.0
H2109 H 0.83678 1.01982 0.95548 0.0
H2110 H 0.82987 0.94908 0.96976 0.0
H2111 H 0.84477 0.92871 0.99478 0.0
C2112 C 0.2627 0.22294 0.12666 0.0
C2113 C 0.27541 0.21587 0.15177 0.0
C2114 C 0.25077 0.25334 0.17385 0.0
C2115 C 0.23437 0.2573 0.14998 0.0
N2116 N 0.22563 0.24585 0.10295 0.0
N2117 N 0.27727 0.22128 0.20049 0.0
C2118 C 0.24053 0.24192 0.12623 0.0
C2119 C 0.26846 0.23035 0.17564 0.0
N2120 N 0.27272 0.21241 0.103 0.0
N2121 N 0.25016 0.27146 0.19491 0.0
H2122 H 0.28975 0.20427 0.20301 0.0
H2123 H 0.26992 0.229 0.21877 0.0
H2124 H 0.23788 0.28863 0.19551 0.0
H2125 H 0.26407 0.27077 0.21103 0.0
H2126 H 0.26633 0.21866 0.08375 0.0
H2127 H 0.28946 0.19929 0.10251 0.0
H2128 H 0.22655 0.23289 0.08624 0.0
H2129 H 0.21158 0.26162 0.10056 0.0
C2130 C 0.23842 0.81857 0.40002 0.0
C2131 C 0.22787 0.80988 0.42559 0.0
C2132 C 0.248 0.85034 0.44707 0.0
C2133 C 0.25997 0.85819 0.42189 0.0
N2134 N 0.27061 0.84702 0.37551 0.0
N2135 N 0.22958 0.81377 0.47445 0.0
C2136 C 0.25674 0.8412 0.39882 0.0
C2137 C 0.23477 0.82465 0.44941 0.0
N2138 N 0.22952 0.8065 0.37659 0.0
N2139 N 0.24834 0.8678 0.46868 0.0
H2140 H 0.22057 0.79474 0.47711 0.0
H2141 H 0.2369 0.82225 0.49249 0.0
H2142 H 0.25806 0.88663 0.46829 0.0
H2143 H 0.23715 0.8645 0.48633 0.0
H2144 H 0.23389 0.8139 0.35725 0.0
H2145 H 0.21553 0.79059 0.37637 0.0
H2146 H 0.27132 0.83393 0.35888 0.0
H2147 H 0.2834 0.86387 0.37365 0.0
C2148 C 0.08185 0.5526 0.90757 0.0
C2149 C 0.10132 0.55166 0.88652 0.0
C2150 C 0.07372 0.58482 0.86052 0.0
C2151 C 0.05767 0.59 0.88394 0.0
N2152 N 0.04934 0.58041 0.93157 0.0
N2153 N 0.11599 0.56712 0.84235 0.0
C2154 C 0.06216 0.57399 0.90784 0.0
C2155 C 0.09714 0.56769 0.86272 0.0
N2156 N 0.08235 0.53334 0.92757 0.0
N2157 N 0.06618 0.5955 0.83593 0.0
H2158 H 0.1325 0.55374 0.84236 0.0
H2159 H 0.11609 0.58088 0.82623 0.0
H2160 H 0.04886 0.60754 0.83325 0.0
H2161 H 0.07531 0.59002 0.81766 0.0
H2162 H 0.06714 0.53155 0.94219 0.0
H2163 H 0.09634 0.51736 0.92772 0.0
H2164 H 0.05431 0.57148 0.95018 0.0
H2165 H 0.03583 0.59657 0.93344 0.0
C2166 C 0.80672 0.72897 0.44122 0.0
C2167 C 0.81149 0.70908 0.42089 0.0
C2168 C 0.85819 0.72656 0.41477 0.0
C2169 C 0.85247 0.74794 0.43325 0.0
N2170 N 0.82699 0.76189 0.47224 0.0
N2171 N 0.84538 0.68205 0.39779 0.0
C2172 C 0.82845 0.74671 0.44911 0.0
C2173 C 0.83838 0.70577 0.41051 0.0
N2174 N 0.7813 0.73187 0.45207 0.0
N2175 N 0.88226 0.72621 0.40093 0.0
H2176 H 0.83208 0.66556 0.3962 0.0
H2177 H 0.86519 0.67741 0.39177 0.0
H2178 H 0.89851 0.73901 0.4057 0.0
H2179 H 0.88579 0.71374 0.38419 0.0
H2180 H 0.77622 0.74724 0.46564 0.0
H2181 H 0.7647 0.71987 0.44635 0.0
H2182 H 0.81163 0.75949 0.4866 0.0
H2183 H 0.84313 0.77428 0.47858 0.0
C2184 C 0.51202 0.49754 0.39768 0.0
C2185 C 0.51315 0.47633 0.37785 0.0
C2186 C 0.4682 0.49154 0.36064 0.0
C2187 C 0.4646 0.50758 0.38449 0.0
N2188 N 0.48309 0.52521 0.42641 0.0
N2189 N 0.49536 0.45847 0.33579 0.0
C2190 C 0.48662 0.51068 0.40303 0.0
C2191 C 0.49214 0.4751 0.35779 0.0
N2192 N 0.53525 0.50654 0.41026 0.0
N2193 N 0.44885 0.49251 0.34047 0.0
H2194 H 0.51416 0.44987 0.33086 0.0
H2195 H 0.47978 0.45329 0.32229 0.0
H2196 H 0.4312 0.50423 0.3419 0.0
H2197 H 0.45087 0.48338 0.32152 0.0
H2198 H 0.53554 0.52303 0.42356 0.0
H2199 H 0.55472 0.50102 0.40404 0.0
H2200 H 0.4972 0.52507 0.44236 0.0
H2201 H 0.46521 0.53582 0.43067 0.0
C2202 C 0.3228 0.79989 0.66803 0.0
C2203 C 0.33912 0.79932 0.64406 0.0
C2204 C 0.3187 0.84313 0.63125 0.0
C2205 C 0.29879 0.84075 0.65215 0.0
N2206 N 0.27879 0.8119 0.68648 0.0
N2207 N 0.34598 0.81815 0.59906 0.0
C2208 C 0.29975 0.81746 0.66917 0.0
C2209 C 0.335 0.82017 0.62441 0.0
N2210 N 0.33028 0.78563 0.69073 0.0
N2211 N 0.32407 0.86767 0.61945 0.0
H2212 H 0.35641 0.80093 0.59242 0.0
H2213 H 0.3417 0.83227 0.58375 0.0
H2214 H 0.31517 0.88581 0.62583 0.0
H2215 H 0.34001 0.87036 0.60573 0.0
H2216 H 0.31982 0.78725 0.70907 0.0
H2217 H 0.34897 0.77571 0.69265 0.0
H2218 H 0.27794 0.79398 0.69783 0.0
H2219 H 0.26098 0.82352 0.68701 0.0
C2220 C 0.07021 0.48465 0.69933 0.0
C2221 C 0.06293 0.46615 0.67845 0.0
C2222 C 0.09801 0.48654 0.6496 0.0
C2223 C 0.1006 0.50892 0.6678 0.0
N2224 N 0.0864 0.53004 0.70986 0.0
N2225 N 0.06957 0.4502 0.63261 0.0
C2226 C 0.08614 0.5081 0.69284 0.0
C2227 C 0.07663 0.46744 0.6532 0.0
N2228 N 0.06236 0.47958 0.7254 0.0
N2229 N 0.11735 0.48204 0.63025 0.0
H2230 H 0.05548 0.43455 0.63497 0.0
H2231 H 0.07668 0.45258 0.61283 0.0
H2232 H 0.13523 0.49335 0.62934 0.0
H2233 H 0.11765 0.46481 0.6179 0.0
H2234 H 0.0691 0.49109 0.74192 0.0
H2235 H 0.05118 0.46226 0.73053 0.0
H2236 H 0.07417 0.53126 0.72709 0.0
H2237 H 0.09664 0.54806 0.70533 0.0
C2238 C 1.00459 0.07011 0.69759 0.0
C2239 C 1.01387 0.08697 0.67615 0.0
C2240 C 0.97938 0.06645 0.6461 0.0
C2241 C 0.97371 0.04613 0.66597 0.0
N2242 N 0.98485 1.02662 0.70982 0.0
N2243 N 1.01187 0.09887 0.62851 0.0
C2244 C 0.98734 0.04745 0.69159 0.0
C2245 C 1.00198 0.08424 0.6499 0.0
N2246 N 1.01172 0.07606 0.72375 0.0
N2247 N 0.96193 0.07053 0.62471 0.0
H2248 H 1.02735 0.11323 0.63056 0.0
H2249 H 1.00596 0.09522 0.60844 0.0
H2250 H 0.94342 0.06034 0.6228 0.0
H2251 H 0.96389 0.08661 0.61102 0.0
H2252 H 1.00357 0.06594 0.74048 0.0
H2253 H 1.02359 0.093 0.72861 0.0
H2254 H 0.99627 1.02555 0.72775 0.0
H2255 H 0.9737 1.00902 0.70569 0.0
C2256 C 0.66042 0.76058 0.73165 0.0
C2257 C 0.63984 0.76082 0.71139 0.0
C2258 C 0.61189 0.73085 0.74033 0.0
C2259 C 0.63462 0.72636 0.75786 0.0
N2260 N 0.68318 0.73314 0.76555 0.0
N2261 N 0.59613 0.74413 0.69552 0.0
C2262 C 0.65956 0.74047 0.75257 0.0
C2263 C 0.61553 0.74549 0.71557 0.0
N2264 N 0.68111 0.77911 0.73066 0.0
N2265 N 0.58661 0.72165 0.74751 0.0
H2266 H 0.59738 0.75521 0.6775 0.0
H2267 H 0.5797 0.73068 0.69602 0.0
H2268 H 0.58304 0.71106 0.76549 0.0
H2269 H 0.56882 0.72686 0.737 0.0
H2270 H 0.69559 0.7812 0.74615 0.0
H2271 H 0.68185 0.79432 0.71588 0.0
H2272 H 0.70219 0.74111 0.76042 0.0
H2273 H 0.68457 0.71669 0.77881 0.0
C2274 C 0.99947 0.15343 0.56225 0.0
C2275 C 0.98339 0.17694 0.55636 0.0
C2276 C 1.00768 0.2012 0.59308 0.0
C2277 C 1.02609 0.17892 0.59652 0.0
N2278 N 0.04242 0.13584 0.57979 0.0
N2279 N 0.9766 0.22514 0.56304 0.0
C2280 C 1.02283 0.15562 0.57973 0.0
C2281 C 0.98881 0.20137 0.57086 0.0
N2282 N 0.99163 0.12855 0.55256 0.0
N2283 N 1.00691 0.22164 0.61188 0.0
H2284 H 0.96297 0.22641 0.54676 0.0
H2285 H 0.9822 0.24404 0.57089 0.0
H2286 H 1.01906 0.22192 0.6293 0.0
H2287 H 0.99199 0.23676 0.61184 0.0
H2288 H 1.00114 0.11044 0.55832 0.0
H2289 H 0.97377 0.12554 0.54135 0.0
H2290 H 0.04246 0.11972 0.56603 0.0
H2291 H 0.06 0.13698 0.59183 0.0
C2292 C 0.42812 0.85626 0.73111 0.0
C2293 C 0.42391 0.84457 0.75715 0.0
C2294 C 0.41207 0.80147 0.73375 0.0
C2295 C 0.42142 0.81228 0.7087 0.0
N2296 N 0.44789 0.84817 0.68738 0.0
N2297 N 0.41673 0.80245 0.78252 0.0
C2298 C 0.43253 0.83904 0.70859 0.0
C2299 C 0.41727 0.81613 0.75838 0.0
N2300 N 0.42609 0.88369 0.72708 0.0
N2301 N 0.39721 0.77796 0.73432 0.0
H2302 H 0.42085 0.8113 0.80118 0.0
H2303 H 0.41495 0.78133 0.78367 0.0
H2304 H 0.39218 0.76688 0.71699 0.0
H2305 H 0.38748 0.77103 0.75181 0.0
H2306 H 0.42747 0.89244 0.70779 0.0
H2307 H 0.41883 0.89698 0.74187 0.0
H2308 H 0.45757 0.8671 0.68774 0.0
H2309 H 0.45388 0.83572 0.67134 0.0
C2310 C 0.08557 0.35689 0.57564 0.0
C2311 C 0.09129 0.38142 0.5614 0.0
C2312 C 0.05112 0.40228 0.58331 0.0
C2313 C 0.04782 0.37902 0.6001 0.0
N2314 N 0.06927 0.33808 0.61779 0.0
N2315 N 0.08331 0.42997 0.55844 0.0
C2316 C 0.06716 0.35743 0.59791 0.0
C2317 C 0.07515 0.40488 0.56721 0.0
N2318 N 0.09639 0.33266 0.56741 0.0
N2319 N 1.03114 0.42163 0.58204 0.0
H2320 H 0.102 0.43321 0.54899 0.0
H2321 H 0.07321 0.4479 0.56355 0.0
H2322 H 1.01292 0.42008 0.59278 0.0
H2323 H 1.03154 0.43772 0.56822 0.0
H2324 H 0.09045 0.3141 0.57583 0.0
H2325 H 0.1085 0.33055 0.55025 0.0
H2326 H 0.08456 0.3233 0.61785 0.0
H2327 H 0.05845 0.33895 0.63594 0.0
C2328 C 0.66039 0.30573 0.8336 0.0
C2329 C 0.63961 0.30746 0.8534 0.0
C2330 C 0.61485 0.33901 0.82294 0.0
C2331 C 0.63861 0.34247 0.80693 0.0
N2332 N 0.68658 0.33146 0.80115 0.0
N2333 N 0.5969 0.32811 0.86719 0.0
C2334 C 0.66203 0.32619 0.81307 0.0
C2335 C 0.61674 0.32473 0.8481 0.0
N2336 N 0.67876 0.2849 0.83436 0.0
N2337 N 0.59018 0.34834 0.81374 0.0
H2338 H 0.59663 0.31756 0.88553 0.0
H2339 H 0.58165 0.34283 0.86548 0.0
H2340 H 0.58758 0.35721 0.79462 0.0
H2341 H 0.57185 0.34409 0.82353 0.0
H2342 H 0.693 0.28168 0.81901 0.0
H2343 H 0.67783 0.26934 0.84872 0.0
H2344 H 0.70457 0.32166 0.80698 0.0
H2345 H 0.68982 0.34778 0.7881 0.0
C2346 C 0.5712 0.16848 0.50929 0.0
C2347 C 0.59361 0.18717 0.50924 0.0
C2348 C 0.5827 0.19904 0.46182 0.0
C2349 C 0.56361 0.1771 0.46041 0.0
N2350 N 0.53987 0.14059 0.4828 0.0
N2351 N 0.61005 0.22901 0.4902 0.0
C2352 C 0.55753 0.16208 0.48428 0.0
C2353 C 0.59619 0.20509 0.48685 0.0
N2354 N 0.56144 0.15841 0.53324 0.0
N2355 N 0.58893 0.21354 0.43892 0.0
H2356 H 0.61813 0.23494 0.50896 0.0
H2357 H 0.61049 0.24446 0.47569 0.0
H2358 H 0.5784 0.21149 0.42056 0.0
H2359 H 0.60545 0.22681 0.43769 0.0
H2360 H 0.54398 0.14641 0.53461 0.0
H2361 H 0.56774 0.1654 0.55217 0.0
H2362 H 0.53777 0.12617 0.49818 0.0
H2363 H 0.52849 0.13608 0.46542 0.0
C2364 C 0.4065 0.255 0.83481 0.0
C2365 C 0.42649 0.25298 0.85558 0.0
C2366 C 0.45382 0.22385 0.82541 0.0
C2367 C 0.43126 0.22114 0.80738 0.0
N2368 N 0.38309 0.23019 0.79941 0.0
N2369 N 0.46851 0.23216 0.87158 0.0
C2370 C 0.40681 0.23591 0.81301 0.0
C2371 C 0.45003 0.23652 0.85111 0.0
N2372 N 0.38686 0.27461 0.83607 0.0
N2373 N 0.47911 0.21503 0.81784 0.0
H2374 H 0.4672 0.24138 0.89058 0.0
H2375 H 0.48416 0.21786 0.87023 0.0
H2376 H 0.48298 0.20656 0.79882 0.0
H2377 H 0.49671 0.21896 0.8292 0.0
H2378 H 0.37299 0.27816 0.82028 0.0
H2379 H 0.38644 0.28915 0.85148 0.0
H2380 H 0.36439 0.23879 0.80468 0.0
H2381 H 0.38117 0.21438 0.78548 0.0
C2382 C 0.49059 0.36733 0.46273 0.0
C2383 C 0.50375 0.39209 0.45533 0.0
C2384 C 0.48123 0.41497 0.49346 0.0
C2385 C 0.46993 0.38967 0.50216 0.0
N2386 N 0.4703 0.34068 0.49877 0.0
N2387 N 0.51523 0.43846 0.46637 0.0
C2388 C 0.47657 0.36551 0.48791 0.0
C2389 C 0.50053 0.41547 0.47183 0.0
N2390 N 0.4905 0.34568 0.4453 0.0
N2391 N 0.472 0.43881 0.50431 0.0
H2392 H 0.52868 0.4399 0.45008 0.0
H2393 H 0.51581 0.45524 0.4793 0.0
H2394 H 0.45682 0.43955 0.51896 0.0
H2395 H 0.47716 0.45793 0.49676 0.0
H2396 H 0.47863 0.32835 0.44834 0.0
H2397 H 0.50041 0.34586 0.42665 0.0
H2398 H 0.47725 0.32239 0.49061 0.0
H2399 H 0.46085 0.33838 0.51757 0.0
C2400 C 0.70437 0.6287 0.72431 0.0
C2401 C 0.70438 0.64386 0.74888 0.0
C2402 C 0.75382 0.64959 0.74356 0.0
C2403 C 0.75243 0.64021 0.71585 0.0
N2404 N 0.72135 0.62791 0.67882 0.0
N2405 N 0.72974 0.67274 0.77966 0.0
C2406 C 0.72636 0.63159 0.7059 0.0
C2407 C 0.72925 0.6555 0.75792 0.0
N2408 N 0.68345 0.61125 0.71835 0.0
N2409 N 0.77812 0.65149 0.75717 0.0
H2410 H 0.71246 0.67761 0.79087 0.0
H2411 H 0.747 0.68403 0.78496 0.0
H2412 H 0.7965 0.64465 0.74947 0.0
H2413 H 0.77938 0.65613 0.77783 0.0
H2414 H 0.68394 0.59816 0.70166 0.0
H2415 H 0.66744 0.60744 0.73169 0.0
H2416 H 0.70188 0.62361 0.67121 0.0
H2417 H 0.73494 0.63303 0.66361 0.0
C2418 C 0.91403 0.07902 0.55277 0.0
C2419 C 0.89598 0.10114 0.55706 0.0
C2420 C 0.87039 0.07298 0.58974 0.0
C2421 C 0.89169 0.05345 0.59004 0.0
N2422 N 0.93477 0.03816 0.57102 0.0
N2423 N 0.8565 0.11922 0.58022 0.0
C2424 C 0.91345 0.0561 0.57084 0.0
C2425 C 0.87382 0.09795 0.57545 0.0
N2426 N 0.93221 0.08014 0.53184 0.0
N2427 N 0.84657 0.06748 0.60301 0.0
H2428 H 0.85715 0.13745 0.56943 0.0
H2429 H 0.84243 0.11945 0.59602 0.0
H2430 H 0.84324 0.04918 0.61324 0.0
H2431 H 0.82915 0.07954 0.60133 0.0
H2432 H 0.94392 0.06358 0.52569 0.0
H2433 H 0.93377 0.09687 0.51891 0.0
H2434 H 0.9529 0.04151 0.56059 0.0
H2435 H 0.93557 1.02069 0.58284 0.0
C2436 C 0.34634 0.89436 0.74567 0.0
C2437 C 0.35052 0.9144 0.76611 0.0
C2438 C 0.32062 0.94598 0.74054 0.0
C2439 C 0.31498 0.92522 0.72138 0.0
N2440 N 0.33204 0.8852 0.69931 0.0
N2441 N 0.34056 0.95888 0.78411 0.0
C2442 C 0.33048 0.90085 0.72214 0.0
C2443 C 0.3376 0.94027 0.76365 0.0
N2444 N 0.35726 0.86894 0.74879 0.0
N2445 N 0.31126 0.97164 0.7354 0.0
H2446 H 0.35249 0.95519 0.80138 0.0
H2447 H 0.32977 0.97709 0.78508 0.0
H2448 H 0.30009 0.97618 0.71782 0.0
H2449 H 0.31644 0.98865 0.7469 0.0
H2450 H 0.35262 0.85265 0.73604 0.0
H2451 H 0.36918 0.86341 0.7655 0.0
H2452 H 0.34463 0.86822 0.69751 0.0
H2453 H 0.32371 0.8916 0.68086 0.0
C2454 C 0.15541 0.47488 0.55367 0.0
C2455 C 0.17409 0.45331 0.5582 0.0
C2456 C 0.19873 0.48246 0.59115 0.0
C2457 C 0.17696 0.50154 0.59089 0.0
N2458 N 0.13165 0.51288 0.57341 0.0
N2459 N 0.21349 0.43632 0.58303 0.0
C2460 C 0.15471 0.49728 0.57222 0.0
C2461 C 0.19576 0.45709 0.57739 0.0
N2462 N 0.13777 0.4739 0.53207 0.0
N2463 N 0.22285 0.48891 0.60371 0.0
H2464 H 0.21384 0.41806 0.57232 0.0
H2465 H 0.22703 0.43665 0.59946 0.0
H2466 H 0.22644 0.50771 0.61287 0.0
H2467 H 0.24038 0.477 0.60222 0.0
H2468 H 0.12587 0.49046 0.52605 0.0
H2469 H 0.13689 0.45765 0.51855 0.0
H2470 H 0.11383 0.50821 0.56272 0.0
H2471 H 0.12867 0.52857 0.58713 0.0
C2472 C 0.73442 0.41377 0.80022 0.0
C2473 C 0.71118 0.43037 0.80455 0.0
C2474 C 0.73796 0.4586 0.8366 0.0
C2475 C 0.75975 0.4396 0.83541 0.0
N2476 N 0.78312 0.4077 0.8058 0.0
N2477 N 0.69084 0.46961 0.82607 0.0
C2478 C 0.75944 0.41971 0.81415 0.0
C2479 C 0.71315 0.45335 0.82219 0.0
N2480 N 0.73222 0.39127 0.78403 0.0
N2481 N 0.74173 0.48257 0.85025 0.0
H2482 H 0.67296 0.46793 0.8146 0.0
H2483 H 0.6894 0.48406 0.84145 0.0
H2484 H 0.76041 0.48792 0.85903 0.0
H2485 H 0.72787 0.49861 0.85001 0.0
H2486 H 0.74685 0.37591 0.78342 0.0
H2487 H 0.71486 0.387 0.77244 0.0
H2488 H 0.78428 0.39477 0.78909 0.0
H2489 H 0.80237 0.4137 0.81237 0.0
C2490 C 0.70307 0.07712 0.47504 0.0
C2491 C 0.67927 0.06103 0.47128 0.0
C2492 C 0.65443 0.09199 0.50217 0.0
C2493 C 0.67698 0.11006 0.50231 0.0
N2494 N 0.72159 0.12161 0.48473 0.0
N2495 N 0.63066 0.05596 0.47835 0.0
C2496 C 0.70095 0.10312 0.48757 0.0
C2497 C 0.65456 0.069 0.48437 0.0
N2498 N 0.72804 0.06717 0.46773 0.0
N2499 N 0.6325 0.09713 0.51844 0.0
H2500 H 0.62942 0.03984 0.46477 0.0
H2501 H 0.6116 0.0628 0.48466 0.0
H2502 H 0.63113 0.11435 0.53073 0.0
H2503 H 0.61675 0.08323 0.52145 0.0
H2504 H 0.74634 0.07687 0.47265 0.0
H2505 H 0.73081 0.04773 0.45976 0.0
H2506 H 0.7379 0.11877 0.47152 0.0
H2507 H 0.72151 0.14071 0.49387 0.0
C2508 C 0.33637 0.15134 0.80388 0.0
C2509 C 0.36098 0.13821 0.81141 0.0
C2510 C 0.33974 0.12386 0.85404 0.0
C2511 C 0.31363 0.13383 0.84544 0.0
N2512 N 0.28742 0.14941 0.8057 0.0
N2513 N 0.38145 0.10284 0.83896 0.0
C2514 C 0.31191 0.14534 0.81847 0.0
C2515 C 0.361 0.12131 0.83479 0.0
N2516 N 0.33611 0.17009 0.78338 0.0
N2517 N 0.34568 0.11884 0.88074 0.0
H2518 H 0.39694 0.09954 0.82488 0.0
H2519 H 0.38098 0.08871 0.8548 0.0
H2520 H 0.33328 0.12462 0.89672 0.0
H2521 H 0.36515 0.11316 0.88732 0.0
H2522 H 0.31927 0.18248 0.77935 0.0
H2523 H 0.3533 0.1749 0.772 0.0
H2524 H 0.28593 0.15551 0.78543 0.0
H2525 H 0.2688 0.14322 0.81336 0.0
C2526 C 0.41096 0.5029 0.49134 0.0
C2527 C 0.38855 0.50849 0.47342 0.0
C2528 C 0.36645 0.46643 0.48898 0.0
C2529 C 0.38839 0.4615 0.50757 0.0
N2530 N 0.42594 0.48079 0.53289 0.0
N2531 N 0.34121 0.49983 0.46266 0.0
C2532 C 0.4086 0.48179 0.51111 0.0
C2533 C 0.36512 0.49155 0.47454 0.0
N2534 N 0.43545 0.51579 0.48816 0.0
N2535 N 0.34703 0.44695 0.48456 0.0
H2536 H 0.33891 0.51886 0.45351 0.0
H2537 H 0.32282 0.48945 0.46498 0.0
H2538 H 0.34616 0.42885 0.49553 0.0
H2539 H 0.33273 0.44806 0.46881 0.0
H2540 H 0.45294 0.51031 0.49904 0.0
H2541 H 0.43947 0.52945 0.47254 0.0
H2542 H 0.43955 0.49646 0.53753 0.0
H2543 H 0.42471 0.46577 0.54779 0.0
C2544 C 0.73251 0.74532 0.61029 0.0
C2545 C 0.72579 0.75899 0.63479 0.0
C2546 C 0.75712 0.72823 0.66 0.0
C2547 C 0.76135 0.71273 0.63607 0.0
N2548 N 0.75273 0.70609 0.5882 0.0
N2549 N 0.72831 0.76038 0.68382 0.0
C2550 C 0.74908 0.72136 0.61113 0.0
C2551 C 0.73753 0.74988 0.65984 0.0
N2552 N 0.72339 0.75555 0.58604 0.0
N2553 N 0.77139 0.72195 0.68312 0.0
H2554 H 0.7132 0.77521 0.68477 0.0
H2555 H 0.73351 0.75256 0.70284 0.0
H2556 H 0.78521 0.70586 0.6842 0.0
H2557 H 0.77147 0.7341 0.70045 0.0
H2558 H 0.7299 0.74864 0.56717 0.0
H2559 H 0.71055 0.77241 0.58467 0.0
H2560 H 0.74152 0.70859 0.57033 0.0
H2561 H 0.76635 0.68984 0.58737 0.0
C2562 C 0.72241 0.33421 0.94722 0.0
C2563 C 0.71923 0.31687 0.92432 0.0
C2564 C 0.75046 0.34663 0.89847 0.0
C2565 C 0.75081 0.36548 0.92022 0.0
N2566 N 0.73298 0.37925 0.96393 0.0
N2567 N 0.72529 0.31086 0.87588 0.0
C2568 C 0.73554 0.35987 0.94416 0.0
C2569 C 0.73217 0.32406 0.89936 0.0
N2570 N 0.7139 0.32587 0.97229 0.0
N2571 N 0.76691 0.35067 0.87648 0.0
H2572 H 0.71041 0.29583 0.87505 0.0
H2573 H 0.73179 0.31704 0.85671 0.0
H2574 H 0.77955 0.36761 0.87444 0.0
H2575 H 0.76968 0.33609 0.86137 0.0
H2576 H 0.71829 0.33648 0.99013 0.0
H2577 H 0.70503 0.30696 0.97587 0.0
H2578 H 0.71918 0.37767 0.97989 0.0
H2579 H 0.74314 0.39786 0.96353 0.0
C2580 C 0.58864 0.05303 0.41076 0.0
C2581 C 0.60717 0.05184 0.38892 0.0
C2582 C 0.5776 0.08368 0.36347 0.0
C2583 C 0.5632 0.08978 0.38769 0.0
N2584 N 0.5586 0.08223 0.43621 0.0
N2585 N 0.61926 0.06643 0.34365 0.0
C2586 C 0.56936 0.0747 0.41179 0.0
C2587 C 0.60149 0.06716 0.36493 0.0
N2588 N 0.58947 0.03366 0.43059 0.0
N2589 N 0.568 0.09271 0.33893 0.0
H2590 H 0.63615 0.05356 0.34328 0.0
H2591 H 0.61802 0.07966 0.32711 0.0
H2592 H 0.54995 0.10378 0.33684 0.0
H2593 H 0.57619 0.08657 0.32041 0.0
H2594 H 0.57493 0.0324 0.44593 0.0
H2595 H 0.60292 1.01723 0.42987 0.0
H2596 H 0.56459 0.0734 0.45459 0.0
H2597 H 0.5463 0.0993 0.43864 0.0
C2598 C 0.33392 0.2362 0.9541 0.0
C2599 C 0.3416 0.24972 0.92984 0.0
C2600 C 0.31038 0.21983 0.90377 0.0
C2601 C 0.30589 0.20397 0.92738 0.0
N2602 N 0.31423 0.19624 0.97519 0.0
N2603 N 0.3399 0.25185 0.88076 0.0
C2604 C 0.31771 0.21214 0.95264 0.0
C2605 C 0.33021 0.24116 0.90447 0.0
N2606 N 0.34173 0.24667 0.97868 0.0
N2607 N 0.29621 0.2141 0.88045 0.0
H2608 H 0.35509 0.2666 0.88019 0.0
H2609 H 0.3349 0.2443 0.86158 0.0
H2610 H 0.2821 0.19828 0.87912 0.0
H2611 H 0.29649 0.22651 0.86328 0.0
H2612 H 0.33425 0.23975 0.99721 0.0
H2613 H 0.354 0.2639 0.98049 0.0
H2614 H 0.32515 0.1988 0.99324 0.0
H2615 H 0.3014 0.17935 0.97538 0.0
C2616 C 0.96615 0.99595 0.86306 0.0
C2617 C 0.96024 1.01065 0.8873 0.0
C2618 C 0.99702 0.98616 0.91072 0.0
C2619 C 1.00378 0.97212 0.88626 0.0
N2620 N 0.99987 0.97092 0.83729 0.0
N2621 N 0.97656 1.02629 0.93071 0.0
C2622 C 0.98989 0.9792 0.86182 0.0
C2623 C 0.97798 1.00807 0.90989 0.0
N2624 N 0.94878 0.99749 0.84128 0.0
N2625 N 1.00703 0.9774 0.93517 0.0
H2626 H 0.96341 0.04295 0.93018 0.0
H2627 H 0.99054 1.02658 0.94679 0.0
H2628 H 1.01919 0.96018 0.93719 0.0
H2629 H 1.00054 0.98527 0.95373 0.0
H2630 H 0.95019 0.98475 0.82442 0.0
H2631 H 0.93193 1.01042 0.8408 0.0
H2632 H 0.99209 0.97778 0.81875 0.0
H2633 H 1.01787 0.95977 0.83537 0.0
C2634 C 0.84425 0.32308 0.11279 0.0
C2635 C 0.84584 0.30524 0.13549 0.0
C2636 C 0.8099 0.33243 0.15766 0.0
C2637 C 0.81253 0.35302 0.13771 0.0
N2638 N 0.83477 0.36865 0.09671 0.0
N2639 N 0.8343 0.29799 0.18291 0.0
C2640 C 0.83041 0.3485 0.11535 0.0
C2641 C 0.82952 0.311 0.15878 0.0
N2642 N 0.85519 0.3155 0.08844 0.0
N2643 N 0.78913 0.3335 0.17597 0.0
H2644 H 0.85051 0.28464 0.18606 0.0
H2645 H 0.8245 0.30337 0.20089 0.0
H2646 H 0.7742 0.34862 0.1754 0.0
H2647 H 0.78516 0.31778 0.18965 0.0
H2648 H 0.85237 0.3266 0.07057 0.0
H2649 H 0.86405 0.29648 0.08524 0.0
H2650 H 0.85003 0.36767 0.08208 0.0
H2651 H 0.8244 0.38715 0.09692 0.0
C2652 C 0.57547 0.97164 0.15593 0.0
C2653 C 0.56117 0.97109 0.18089 0.0
C2654 C 0.5839 1.0137 0.19437 0.0
C2655 C 0.59912 1.01372 0.16978 0.0
N2656 N 0.61618 0.98623 0.13269 0.0
N2657 N 0.55908 0.98639 0.22716 0.0
C2658 C 0.59682 0.99087 0.15204 0.0
C2659 C 0.56773 0.99049 0.20119 0.0
N2660 N 0.56892 0.95365 0.13583 0.0
N2661 N 0.58367 0.0362 0.21064 0.0
H2662 H 0.54808 0.96906 0.23259 0.0
H2663 H 0.56519 0.99855 0.24346 0.0
H2664 H 0.594 0.05409 0.20581 0.0
H2665 H 0.57094 0.03804 0.22745 0.0
H2666 H 0.57638 0.95532 0.11613 0.0
H2667 H 0.55483 0.93806 0.13848 0.0
H2668 H 0.61677 0.96868 0.12082 0.0
H2669 H 0.63377 0.99791 0.13101 0.0
C2670 C 0.47509 0.55737 0.1926 0.0
C2671 C 0.45839 0.55868 0.16896 0.0
C2672 C 0.49032 0.59138 0.14872 0.0
C2673 C 0.50526 0.59249 0.17352 0.0
N2674 N 0.50913 0.58005 0.22077 0.0
N2675 N 0.44707 0.58155 0.12699 0.0
C2676 C 0.49688 0.57643 0.19599 0.0
C2677 C 0.46524 0.57688 0.14763 0.0
N2678 N 0.46994 0.53805 0.21189 0.0
N2679 N 0.49992 0.60432 0.12615 0.0
H2680 H 0.42843 0.57146 0.12558 0.0
H2681 H 0.44942 0.59695 0.11261 0.0
H2682 H 0.51767 0.61592 0.12638 0.0
H2683 H 0.49148 0.60176 0.10681 0.0
H2684 H 0.4822 0.53493 0.22896 0.0
H2685 H 0.4544 0.52368 0.2097 0.0
H2686 H 0.50207 0.57116 0.23862 0.0
H2687 H 0.5252 0.59365 0.22385 0.0
C2688 C 0.15536 0.2816 0.41253 0.0
C2689 C 0.14684 0.2901 0.38616 0.0
C2690 C 0.14444 0.33727 0.40315 0.0
C2691 C 0.14884 0.32847 0.43036 0.0
N2692 N 0.15419 0.29011 0.46107 0.0
N2693 N 0.12574 0.32567 0.35917 0.0
C2694 C 0.15333 0.30004 0.43513 0.0
C2695 C 0.13929 0.31784 0.38226 0.0
N2696 N 0.16607 0.25616 0.41602 0.0
N2697 N 0.14612 0.3643 0.39683 0.0
H2698 H 0.11968 0.31206 0.34405 0.0
H2699 H 0.11751 0.34509 0.35668 0.0
H2700 H 0.15181 0.37905 0.41103 0.0
H2701 H 0.14531 0.3715 0.37689 0.0
H2702 H 0.17535 0.2498 0.43406 0.0
H2703 H 0.16799 0.24228 0.40012 0.0
H2704 H 0.15452 0.26938 0.46552 0.0
H2705 H 0.1515 0.30212 0.47825 0.0
C2706 C 0.53028 0.68565 0.88213 0.0
C2707 C 0.52984 0.67036 0.90677 0.0
C2708 C 0.57782 0.65742 0.89842 0.0
C2709 C 0.5766 0.66978 0.87231 0.0
N2710 N 0.54833 0.68879 0.83666 0.0
N2711 N 0.55221 0.6368 0.93517 0.0
C2712 C 0.55172 0.6815 0.86327 0.0
C2713 C 0.55343 0.65496 0.91416 0.0
N2714 N 0.51157 0.70579 0.87743 0.0
N2715 N 0.60213 0.64768 0.90809 0.0
H2716 H 0.5344 0.63305 0.94604 0.0
H2717 H 0.56793 0.62327 0.93984 0.0
H2718 H 0.62003 0.64806 0.8967 0.0
H2719 H 0.60491 0.64111 0.92806 0.0
H2720 H 0.51273 0.71886 0.86075 0.0
H2721 H 0.49738 0.71202 0.89184 0.0
H2722 H 0.52949 0.69489 0.82872 0.0
H2723 H 0.5637 0.68682 0.82219 0.0
C2724 C 0.92859 0.26356 0.45183 0.0
C2725 C 0.92709 0.2366 0.44124 0.0
C2726 C 0.92832 0.25562 0.39465 0.0
C2727 C 0.92866 0.28253 0.40531 0.0
N2728 N 0.92258 0.31202 0.44381 0.0
N2729 N 0.91833 0.20782 0.40244 0.0
C2730 C 0.92671 0.28639 0.43386 0.0
C2731 C 0.92484 0.2329 0.41258 0.0
N2732 N 0.93335 0.26751 0.47896 0.0
N2733 N 0.93268 0.25153 0.36754 0.0
H2734 H 0.91465 0.19101 0.41485 0.0
H2735 H 0.91375 0.20436 0.38203 0.0
H2736 H 0.93497 0.26743 0.35369 0.0
H2737 H 0.93607 0.23239 0.35913 0.0
H2738 H 0.93776 0.28646 0.48737 0.0
H2739 H 0.93538 0.25163 0.49287 0.0
H2740 H 0.91816 0.31605 0.4641 0.0
H2741 H 0.9208 0.32906 0.43123 0.0
C2742 C 0.51171 0.91872 0.92233 0.0
C2743 C 0.53688 0.90668 0.91431 0.0
C2744 C 0.51622 0.89553 0.87004 0.0
C2745 C 0.49004 0.90358 0.87959 0.0
N2746 N 0.46249 0.92095 0.91612 0.0
N2747 N 0.5599 0.87662 0.88284 0.0
C2748 C 0.48765 0.91443 0.90623 0.0
C2749 C 0.53835 0.89328 0.88874 0.0
N2750 N 0.51101 0.93537 0.94455 0.0
N2751 N 0.52026 0.88987 0.84317 0.0
H2752 H 0.57522 0.87172 0.89679 0.0
H2753 H 0.56076 0.86478 0.8653 0.0
H2754 H 0.50496 0.89101 0.82845 0.0
H2755 H 0.53959 0.88667 0.83501 0.0
H2756 H 0.49392 0.94671 0.94995 0.0
H2757 H 0.52838 0.94019 0.95594 0.0
H2758 H 0.4591 0.92596 0.9364 0.0
H2759 H 0.44469 0.91968 0.90442 0.0
C2760 C 0.1453 0.76377 0.1148 0.0
C2761 C 0.15034 0.73719 0.12528 0.0
C2762 C 0.16218 0.75784 0.16968 0.0
C2763 C 0.15366 0.78391 0.16015 0.0
N2764 N 0.13151 0.80998 0.12447 0.0
N2765 N 0.16168 0.70872 0.16367 0.0
C2766 C 0.14394 0.78646 0.13287 0.0
C2767 C 0.15806 0.7342 0.15307 0.0
N2768 N 0.14151 0.76761 0.08749 0.0
N2769 N 0.17556 0.75581 0.19407 0.0
H2770 H 0.161 0.69112 0.15185 0.0
H2771 H 0.16384 0.70494 0.18441 0.0
H2772 H 0.18007 0.77266 0.20617 0.0
H2773 H 0.1847 0.73796 0.20102 0.0
H2774 H 0.14131 0.78679 0.07844 0.0
H2775 H 0.14075 0.75184 0.0734 0.0
H2776 H 0.12112 0.8118 0.10602 0.0
H2777 H 0.12886 0.8269 0.13684 0.0
C2778 C 1.01466 0.67369 0.20103 0.0
C2779 C 0.98779 0.66913 0.1907 0.0
C2780 C 1.00552 0.67212 0.14393 0.0
C2781 C 1.03245 0.67565 0.15427 0.0
N2782 N 0.06348 0.67415 0.19232 0.0
N2783 N 0.95914 0.65713 0.15249 0.0
C2784 C 0.03722 0.67463 0.18275 0.0
C2785 C 0.98367 0.66634 0.16218 0.0
N2786 N 1.01854 0.6787 0.22813 0.0
N2787 N 1.00045 0.67556 0.11679 0.0
H2788 H 0.94298 0.65187 0.16516 0.0
H2789 H 0.95574 0.65203 0.1322 0.0
H2790 H 1.01579 0.67921 0.10266 0.0
H2791 H 0.98084 0.67677 0.10855 0.0
H2792 H 0.03699 0.6854 0.23635 0.0
H2793 H 1.00275 0.67868 0.24223 0.0
H2794 H 0.06858 0.67058 0.2126 0.0
H2795 H 0.08037 0.67471 0.17948 0.0
C2796 C 0.92371 0.83094 0.14945 0.0
C2797 C 0.92257 0.82804 0.12069 0.0
C2798 C 0.92239 0.77817 0.12641 0.0
C2799 C 0.92685 0.78112 0.15482 0.0
N2800 N 0.93797 0.81103 0.19231 0.0
N2801 N 0.92671 0.79842 0.08172 0.0
C2802 C 0.92913 0.8077 0.16611 0.0
C2803 C 0.92341 0.8015 0.10914 0.0
N2804 N 0.91861 0.85564 0.16109 0.0
N2805 N 0.91656 0.75308 0.11591 0.0
H2806 H 0.92882 0.81481 0.06841 0.0
H2807 H 0.93041 0.77967 0.07258 0.0
H2808 H 0.91511 0.73565 0.12796 0.0
H2809 H 0.91043 0.75005 0.09581 0.0
H2810 H 0.91646 0.85826 0.182 0.0
H2811 H 0.91368 0.87296 0.14983 0.0
H2812 H 0.94295 0.82997 0.20049 0.0
H2813 H 0.94299 0.79483 0.20508 0.0
C2814 C 0.04642 0.86811 0.15859 0.0
C2815 C 1.03408 0.89299 0.15057 0.0
C2816 C 0.07152 0.91808 0.1732 0.0
C2817 C 0.08359 0.89296 0.18178 0.0
N2818 N 0.0877 0.84482 0.17105 0.0
N2819 N 0.03699 0.94157 0.14583 0.0
C2820 C 0.0727 0.86821 0.17105 0.0
C2821 C 0.04737 0.91799 0.15646 0.0
N2822 N 1.033 0.84399 0.15464 0.0
N2823 N 0.08355 0.94208 0.18061 0.0
H2824 H 1.01903 0.94212 0.13432 0.0
H2825 H 0.04671 0.96036 0.14699 0.0
H2826 H 0.10318 0.94303 0.1889 0.0
H2827 H 0.07429 0.96103 0.17861 0.0
H2828 H 0.03925 0.82582 0.16367 0.0
H2829 H 1.01479 0.84219 0.14371 0.0
H2830 H 0.08189 0.82758 0.16014 0.0
H2831 H 0.10734 0.84319 0.17868 0.0
C2832 C 0.41594 0.16051 0.32877 0.0
C2833 C 0.44387 0.15326 0.32564 0.0
C2834 C 0.43629 0.14845 0.27617 0.0
C2835 C 0.40867 0.15709 0.27905 0.0
N2836 N 0.37418 0.17708 0.30747 0.0
N2837 N 0.48181 0.14538 0.29525 0.0
C2838 C 0.39905 0.16465 0.30523 0.0
C2839 C 0.45441 0.14912 0.29901 0.0
N2840 N 0.40548 0.16361 0.35428 0.0
N2841 N 0.44501 0.13762 0.25212 0.0
H2842 H 0.4959 0.14318 0.31101 0.0
H2843 H 0.49101 0.14631 0.27623 0.0
H2844 H 0.43298 0.13628 0.23472 0.0
H2845 H 0.46356 0.12751 0.24996 0.0
H2846 H 0.38467 0.1653 0.35816 0.0
H2847 H 0.41751 0.16309 0.37184 0.0
H2848 H 0.36698 0.18554 0.32545 0.0
H2849 H 0.36181 0.18146 0.29069 0.0
C2850 C 0.40942 0.41082 1.01043 0.0
C2851 C 0.39615 0.40357 0.03511 0.0
C2852 C 0.38686 0.35825 1.01596 0.0
C2853 C 0.39618 0.36685 0.99011 0.0
N2854 N 0.4143 0.40267 0.96195 0.0
N2855 N 0.36479 0.37251 0.05721 0.0
C2856 C 0.40664 0.39366 0.98705 0.0
C2857 C 0.38291 0.37781 0.03683 0.0
N2858 N 0.42592 0.43322 1.00963 0.0
N2859 N 0.38174 0.33138 1.02085 0.0
H2860 H 0.35876 0.38701 0.07141 0.0
H2861 H 0.35295 0.35487 0.05775 0.0
H2862 H 0.38392 0.31631 1.00611 0.0
H2863 H 0.37767 0.32393 0.04027 0.0
H2864 H 0.43809 0.43807 0.99302 0.0
H2865 H 0.42981 0.44534 1.0266 0.0
H2866 H 0.41912 0.42292 0.9579 0.0
H2867 H 0.4141 0.39024 0.94476 0.0
C2868 C 0.67438 0.42056 0.31022 0.0
C2869 C 0.66348 0.42344 0.28345 0.0
C2870 C 0.61695 0.42371 0.30218 0.0
C2871 C 0.62771 0.42032 0.32893 0.0
N2872 N 0.6662 0.40891 0.35751 0.0
N2873 N 0.62457 0.42026 0.25356 0.0
C2874 C 0.65632 0.41684 0.33268 0.0
C2875 C 0.63478 0.42262 0.27939 0.0
N2876 N 0.7019 0.42245 0.31448 0.0
N2877 N 0.58987 0.42952 0.2985 0.0
H2878 H 0.63712 0.41886 0.23654 0.0
H2879 H 0.60402 0.41679 0.24923 0.0
H2880 H 0.57612 0.43138 0.31448 0.0
H2881 H 0.58148 0.43517 0.27982 0.0
H2882 H 0.71072 0.42454 0.33369 0.0
H2883 H 0.716 0.42345 0.29877 0.0
H2884 H 0.68641 0.40319 0.36091 0.0
H2885 H 0.65367 0.40551 0.37424 0.0
C2886 C 0.69843 0.17324 0.98972 0.0
C2887 C 0.67362 0.18473 0.97932 0.0
C2888 C 0.64848 0.16181 1.01665 0.0
C2889 C 0.67357 0.15335 1.02853 0.0
N2890 N 0.72283 0.1528 1.0275 0.0
N2891 N 0.62457 0.18113 0.97765 0.0
C2892 C 0.69854 0.15941 1.01524 0.0
C2893 C 0.64847 0.17653 0.99142 0.0
N2894 N 0.72187 0.1738 0.97485 0.0
N2895 N 0.6247 0.15698 1.03025 0.0
H2896 H 0.62396 0.18967 0.95822 0.0
H2897 H 0.60565 0.17383 0.9838 0.0
H2898 H 0.62399 0.14578 0.04828 0.0
H2899 H 0.60596 0.16539 1.0248 0.0
H2900 H 0.73893 0.16203 0.97955 0.0
H2901 H 0.72406 0.18337 0.95631 0.0
H2902 H 0.74154 0.16088 1.02157 0.0
H2903 H 0.7244 0.14028 0.04455 0.0
C2904 C 0.43311 0.92282 0.28825 0.0
C2905 C 0.4046 0.92461 0.28326 0.0
C2906 C 0.41303 0.9173 0.23439 0.0
C2907 C 0.44167 0.91958 0.23892 0.0
N2908 N 0.4789 0.9275 0.27044 0.0
N2909 N 0.36735 0.92631 0.251 0.0
C2910 C 0.45172 0.92282 0.26599 0.0
C2911 C 0.3945 0.92235 0.25619 0.0
N2912 N 0.44239 0.92081 0.31446 0.0
N2913 N 0.40348 0.90928 0.20949 0.0
H2914 H 0.35303 0.92935 0.26629 0.0
H2915 H 0.35931 0.92844 0.23146 0.0
H2916 H 0.41634 0.90458 0.19333 0.0
H2917 H 0.38308 0.90459 0.20565 0.0
H2918 H 0.46262 0.91664 0.31957 0.0
H2919 H 0.42927 0.92062 0.33111 0.0
H2920 H 0.48697 0.93301 0.28928 0.0
H2921 H 0.49323 0.92841 0.2549 0.0
C2922 C 0.16475 0.41171 0.0605 0.0
C2923 C 0.16817 0.40125 0.03378 0.0
C2924 C 0.16866 0.35452 0.0525 0.0
C2925 C 0.1652 0.36501 0.0793 0.0
N2926 N 0.15166 0.40286 0.10723 0.0
N2927 N 0.16651 0.36275 1.00371 0.0
C2928 C 0.16062 0.3934 0.08273 0.0
C2929 C 0.16785 0.37263 1.02966 0.0
N2930 N 0.16712 0.43904 0.06507 0.0
N2931 N 0.17448 0.32758 0.04877 0.0
H2932 H 0.16571 0.37546 0.98671 0.0
H2933 H 0.16349 0.34228 0.99911 0.0
H2934 H 0.17495 0.31339 0.06448 0.0
H2935 H 0.18092 0.31953 1.03031 0.0
H2936 H 0.16836 0.44749 0.08445 0.0
H2937 H 0.16987 0.45321 0.04955 0.0
H2938 H 0.14541 0.42287 0.11038 0.0
H2939 H 0.14764 0.38998 0.12361 0.0
C2940 C 0.67227 0.64124 0.25441 0.0
C2941 C 0.66096 0.63866 0.28083 0.0
C2942 C 0.6147 0.64053 0.26114 0.0
C2943 C 0.62597 0.64379 0.23462 0.0
N2944 N 0.66528 0.6545 0.20734 0.0
N2945 N 0.62201 0.64187 0.31007 0.0
C2946 C 0.65473 0.64629 0.23167 0.0
C2947 C 0.63233 0.64028 0.28435 0.0
N2948 N 0.69967 0.63764 0.25077 0.0
N2949 N 0.58733 0.63601 0.26423 0.0
H2950 H 0.63444 0.64171 0.3274 0.0
H2951 H 0.6016 0.646 0.3142 0.0
H2952 H 0.57338 0.63593 0.24819 0.0
H2953 H 0.57862 0.62991 0.2825 0.0
H2954 H 0.70861 0.63566 0.23171 0.0
H2955 H 0.71333 0.63481 0.26685 0.0
H2956 H 0.6858 0.65932 0.20463 0.0
H2957 H 0.6531 0.65928 0.19053 0.0
C2958 C 0.90697 0.16286 0.07665 0.0
C2959 C 0.89713 0.19007 0.07601 0.0
C2960 C 0.88288 0.18344 1.0285 0.0
C2961 C 0.89551 0.15731 1.02792 0.0
N2962 N 0.9254 0.12526 0.0506 0.0
N2963 N 0.88301 0.22838 0.04845 0.0
C2964 C 0.9091 0.14779 0.05183 0.0
C2965 C 0.88763 0.20107 0.05098 0.0
N2966 N 0.91469 0.15146 0.10084 0.0
N2967 N 0.86461 0.19087 1.00873 0.0
H2968 H 0.88562 0.24207 0.06445 0.0
H2969 H 0.87858 0.23757 1.02981 0.0
H2970 H 0.85822 0.17784 0.99325 0.0
H2971 H 0.85306 0.20867 1.00983 0.0
H2972 H 0.91908 0.13082 0.10303 0.0
H2973 H 0.9149 0.16225 0.11909 0.0
H2974 H 0.93774 0.11885 0.06669 0.0
H2975 H 0.92908 0.11477 0.03258 0.0
C2976 C 0.28213 0.42917 0.13901 0.0
C2977 C 0.28711 0.40115 0.1343 0.0
C2978 C 0.33656 0.40926 0.13919 0.0
C2979 C 0.3318 0.43775 0.14105 0.0
N2980 N 0.29996 0.47523 0.13808 0.0
N2981 N 0.3192 0.36492 0.12601 0.0
C2982 C 0.30451 0.44782 0.13998 0.0
C2983 C 0.31438 0.39131 0.13331 0.0
N2984 N 0.25594 0.43796 0.14268 0.0
N2985 N 0.36207 0.39909 0.14431 0.0
H2986 H 0.3036 0.35084 0.12272 0.0
H2987 H 0.33854 0.35749 0.12138 0.0
H2988 H 0.3787 0.41133 0.14947 0.0
H2989 H 0.36623 0.37838 0.14606 0.0
H2990 H 0.25102 0.45757 0.14901 0.0
H2991 H 0.23916 0.42489 0.14168 0.0
H2992 H 0.28084 0.48369 0.13419 0.0
H2993 H 0.31565 0.48955 0.13749 0.0
C2994 C 0.28209 0.63072 0.42461 0.0
C2995 C 0.28671 0.65887 0.42914 0.0
C2996 C 0.33608 0.65144 0.42318 0.0
C2997 C 0.33181 0.62281 0.4222 0.0
N2998 N 0.30054 0.58491 0.42546 0.0
N2999 N 0.3186 0.69558 0.4365 0.0
C3000 C 0.30471 0.61236 0.42358 0.0
C3001 C 0.31384 0.66913 0.42935 0.0
N3002 N 0.25597 0.62158 0.42091 0.0
N3003 N 0.36112 0.66197 0.41698 0.0
H3004 H 0.30299 0.70944 0.44027 0.0
H3005 H 0.33803 0.70322 0.44063 0.0
H3006 H 0.37761 0.64994 0.41114 0.0
H3007 H 0.36477 0.68273 0.41477 0.0
H3008 H 0.25126 0.60188 0.41465 0.0
H3009 H 0.23906 0.63448 0.4216 0.0
H3010 H 0.28162 0.57623 0.42958 0.0
H3011 H 0.31637 0.57073 0.4255 0.0
C3012 C 0.86294 0.5196 0.8775 0.0
C3013 C 0.87144 0.49496 0.88999 0.0
C3014 C 0.91445 0.51714 0.90376 0.0
C3015 C 0.90751 0.54044 0.88793 0.0
N3016 N 0.87744 0.56021 0.85396 0.0
N3017 N 0.90655 0.46921 0.913 0.0
C3018 C 0.8823 0.54079 0.87333 0.0
C3019 C 0.89767 0.49336 0.90237 0.0
N3020 N 0.83636 0.52292 0.86955 0.0
N3021 N 0.9362 0.51815 0.92127 0.0
H3022 H 0.89436 0.45182 0.91372 0.0
H3023 H 0.9266 0.46594 0.91942 0.0
H3024 H 0.94811 0.53555 0.92395 0.0
H3025 H 0.9407 0.50282 0.93524 0.0
H3026 H 0.82851 0.54151 0.86289 0.0
H3027 H 0.82165 0.50769 0.87154 0.0
H3028 H 0.8606 0.55962 0.8409 0.0
H3029 H 0.89168 0.57499 0.84859 0.0
C3030 C 0.76285 0.88958 0.41888 0.0
C3031 C 0.78972 0.9006 0.41861 0.0
C3032 C 0.77049 0.94687 0.4172 0.0
C3033 C 0.74343 0.93595 0.4175 0.0
N3034 N 0.71434 0.89691 0.4111 0.0
N3035 N 0.81888 0.93883 0.40996 0.0
C3036 C 0.73979 0.90727 0.41607 0.0
C3037 C 0.79334 0.92898 0.41524 0.0
N3038 N 0.75918 0.86235 0.42305 0.0
N3039 N 0.77474 0.97416 0.42071 0.0
H3040 H 0.83589 0.92614 0.40827 0.0
H3041 H 0.82272 0.95894 0.40445 0.0
H3042 H 0.75916 0.98841 0.42236 0.0
H3043 H 0.79391 0.98258 0.42443 0.0
H3044 H 0.74032 0.85367 0.42749 0.0
H3045 H 0.77524 0.84849 0.42329 0.0
H3046 H 0.71065 0.87641 0.40716 0.0
H3047 H 0.69722 0.90921 0.40816 0.0
C3048 C 0.68548 0.52779 0.38944 0.0
C3049 C 0.65936 0.52937 0.40197 0.0
C3050 C 0.66763 0.57819 0.41081 0.0
C3051 C 0.6946 0.57574 0.40053 0.0
N3052 N 0.73128 0.54589 0.3867 0.0
N3053 N 0.62834 0.55506 0.42995 0.0
C3054 C 0.70425 0.54976 0.39226 0.0
C3055 C 0.65115 0.55435 0.4141 0.0
N3056 N 0.6918 0.50632 0.37294 0.0
N3057 N 0.65777 0.60325 0.41768 0.0
H3058 H 0.61656 0.53786 0.43395 0.0
H3059 H 0.62272 0.57193 0.44144 0.0
H3060 H 0.66974 0.6208 0.41742 0.0
H3061 H 0.63731 0.60684 0.42212 0.0
H3062 H 0.70979 0.50523 0.3618 0.0
H3063 H 0.67784 0.49131 0.36738 0.0
H3064 H 0.73974 0.52668 0.38359 0.0
H3065 H 0.74578 0.56137 0.3875 0.0
C3066 C 0.24443 0.63092 0.67019 0.0
C3067 C 0.22955 0.62438 0.646 0.0
C3068 C 0.26424 0.64866 0.6191 0.0
C3069 C 0.28022 0.65316 0.64288 0.0
N3070 N 0.28653 0.64753 0.69106 0.0
N3071 N 0.21928 0.64096 0.60067 0.0
C3072 C 0.2704 0.6443 0.66851 0.0
C3073 C 0.23763 0.63722 0.62131 0.0
N3074 N 0.23247 0.62662 0.69487 0.0
N3075 N 0.27447 0.65505 0.59407 0.0
H3076 H 0.19855 0.63757 0.60292 0.0
H3077 H 0.22364 0.65177 0.583 0.0
H3078 H 0.29288 0.66524 0.59117 0.0
H3079 H 0.26541 0.64873 0.57594 0.0
H3080 H 0.24094 0.63269 0.71335 0.0
H3081 H 0.21229 0.62013 0.69672 0.0
H3082 H 0.28238 0.63872 0.70984 0.0
H3083 H 0.3053 0.65756 0.69055 0.0
C3084 C 0.89672 0.53487 0.66567 0.0
C3085 C 0.92452 0.54217 0.66858 0.0
C3086 C 0.9122 0.59041 0.66199 0.0
C3087 C 0.88404 0.58359 0.66376 0.0
N3088 N 0.84944 0.54861 0.66887 0.0
N3089 N 0.95945 0.57645 0.66837 0.0
C3090 C 0.87623 0.55557 0.66541 0.0
C3091 C 0.93244 0.56985 0.66617 0.0
N3092 N 0.8899 0.50798 0.66346 0.0
N3093 N 0.91953 0.61644 0.6554 0.0
H3094 H 0.97475 0.56168 0.66856 0.0
H3095 H 0.96661 0.59627 0.67073 0.0
H3096 H 0.90523 0.63167 0.65132 0.0
H3097 H 0.9395 0.6224 0.65146 0.0
H3098 H 0.87038 0.50118 0.65842 0.0
H3099 H 0.90444 0.49247 0.66407 0.0
H3100 H 0.84305 0.52911 0.67415 0.0
H3101 H 0.83344 0.56249 0.66863 0.0
C3102 C 0.20785 1.00434 0.67239 0.0
C3103 C 0.19631 0.97776 0.67198 0.0
C3104 C 0.15045 0.99788 0.67733 0.0
C3105 C 0.16193 1.02452 0.67641 0.0
N3106 N 0.20074 0.05296 0.66691 0.0
N3107 N 0.15611 0.94962 0.66831 0.0
C3108 C 0.19041 1.02763 0.67207 0.0
C3109 C 0.16746 0.97465 0.67288 0.0
N3110 N 0.23553 1.00741 0.67458 0.0
N3111 N 0.1235 0.99454 0.68353 0.0
H3112 H 0.16769 0.93221 0.66468 0.0
H3113 H 0.13524 0.94651 0.66564 0.0
H3114 H 0.10989 1.01067 0.68556 0.0
H3115 H 0.11494 0.97577 0.68844 0.0
H3116 H 0.24501 1.02608 0.67794 0.0
H3117 H 0.24899 0.991 0.67585 0.0
H3118 H 0.22077 0.0564 0.66083 0.0
H3119 H 0.1885 0.07032 0.66598 0.0
C3120 C 0.64378 0.80505 0.95272 0.0
C3121 C 0.64407 0.83217 0.94229 0.0
C3122 C 0.64248 0.81356 0.89562 0.0
C3123 C 0.64283 0.78656 0.90622 0.0
N3124 N 0.65228 0.75718 0.94419 0.0
N3125 N 0.6509 0.86164 0.90373 0.0
C3126 C 0.64628 0.7826 0.93457 0.0
C3127 C 0.6456 0.83622 0.91368 0.0
N3128 N 0.63931 0.80034 0.97974 0.0
N3129 N 0.63791 0.81779 0.86852 0.0
H3130 H 0.65405 0.87847 0.91628 0.0
H3131 H 0.65495 0.86553 0.88332 0.0
H3132 H 0.63676 0.80208 0.85437 0.0
H3133 H 0.63358 0.83686 0.86028 0.0
H3134 H 0.63543 0.78104 0.98761 0.0
H3135 H 0.63679 0.81565 0.9941 0.0
H3136 H 0.65778 0.75333 0.96433 0.0
H3137 H 0.65475 0.74045 0.93135 0.0
C3138 C 0.06187 0.15306 0.36996 0.0
C3139 C 0.08526 0.17028 0.37077 0.0
C3140 C 0.06744 0.19256 0.41171 0.0
C3141 C 0.04388 0.17555 0.41094 0.0
N3142 N 1.02137 0.13592 0.3929 0.0
N3143 N 0.1139 0.20048 0.39649 0.0
C3144 C 0.04213 0.15441 0.39133 0.0
C3145 C 0.08914 0.18813 0.39301 0.0
N3146 N 0.0578 0.13643 0.34803 0.0
N3147 N 0.06871 0.21364 0.42976 0.0
H3148 H 0.13024 0.19691 0.38343 0.0
H3149 H 0.1191 0.2119 0.41358 0.0
H3150 H 0.05401 0.21681 0.44466 0.0
H3151 H 0.08339 0.22893 0.42885 0.0
H3152 H 0.03977 0.12579 0.3444 0.0
H3153 H 0.07206 0.13434 0.33251 0.0
H3154 H 1.02021 0.1185 0.38092 0.0
H3155 H 1.00633 0.13688 0.40779 0.0
C3156 C 0.42403 0.76582 0.9543 0.0
C3157 C 0.41936 0.73958 0.94286 0.0
C3158 C 0.42022 0.75992 0.89693 0.0
C3159 C 0.42386 0.78626 0.90843 0.0
N3160 N 0.42326 0.8149 0.94804 0.0
N3161 N 0.40659 0.71288 0.90371 0.0
C3162 C 0.42385 0.78933 0.93714 0.0
C3163 C 0.41558 0.73702 0.91428 0.0
N3164 N 0.43024 0.76822 0.98134 0.0
N3165 N 0.42255 0.75642 0.86948 0.0
H3166 H 0.40248 0.69587 0.91571 0.0
H3167 H 0.40067 0.71048 0.88348 0.0
H3168 H 0.42508 0.77252 0.85595 0.0
H3169 H 0.4238 0.73738 0.86027 0.0
H3170 H 0.43702 0.78624 0.99023 0.0
H3171 H 0.43121 0.75165 0.99457 0.0
H3172 H 0.42045 0.81873 0.96865 0.0
H3173 H 0.42286 0.83244 0.93604 0.0
C3174 C 1.0127 0.39725 0.3728 0.0
C3175 C 0.98531 0.39779 0.38292 0.0
C3176 C 1.00322 0.38995 0.42925 0.0
C3177 C 1.03026 0.38991 0.41907 0.0
N3178 N 0.06119 0.40057 0.38294 0.0
N3179 N 0.95583 0.40244 0.42175 0.0
C3180 C 0.03506 0.39592 0.39142 0.0
C3181 C 0.981 0.3965 0.41148 0.0
N3182 N 1.01775 0.39602 0.34551 0.0
N3183 N 0.99858 0.38262 0.45563 0.0
H3184 H 0.93945 0.40846 0.40949 0.0
H3185 H 0.95198 0.40427 0.44247 0.0
H3186 H 1.01432 0.37859 0.46944 0.0
H3187 H 0.97917 0.37885 0.46332 0.0
H3188 H 0.03685 0.39124 0.33761 0.0
H3189 H 1.00298 0.39751 0.3304 0.0
H3190 H 0.06592 0.40807 0.36371 0.0
H3191 H 0.07799 0.3996 0.39607 0.0
C3192 C 0.64301 0.26677 0.61075 0.0
C3193 C 0.64796 0.24029 0.62148 0.0
C3194 C 0.64558 0.25892 0.66796 0.0
C3195 C 0.64186 0.28556 0.65722 0.0
N3196 N 0.64245 0.31562 0.61859 0.0
N3197 N 0.66038 0.21247 0.66003 0.0
C3198 C 0.64229 0.28967 0.62864 0.0
C3199 C 0.65112 0.23677 0.65003 0.0
N3200 N 0.63748 0.26993 0.58364 0.0
N3201 N 0.64246 0.25441 0.69519 0.0
H3202 H 0.66519 0.19598 0.6476 0.0
H3203 H 0.66587 0.20951 0.68032 0.0
H3204 H 0.6389 0.26994 0.70913 0.0
H3205 H 0.64139 0.23503 0.70373 0.0
H3206 H 0.63052 0.28807 0.57511 0.0
H3207 H 0.63735 0.25378 0.56989 0.0
H3208 H 0.64551 0.32024 0.59817 0.0
H3209 H 0.64213 0.33275 0.63113 0.0
C3210 C 0.5138 0.17209 0.69959 0.0
C3211 C 0.48696 0.16999 0.68853 0.0
C3212 C 0.50609 0.17423 0.64237 0.0
C3213 C 0.53302 0.17482 0.65349 0.0
N3214 N 0.56249 0.16744 0.69214 0.0
N3215 N 0.45831 0.16299 0.64909 0.0
C3216 C 0.53679 0.17158 0.68195 0.0
C3217 C 0.48332 0.16933 0.65981 0.0
N3218 N 0.51741 0.1762 0.72689 0.0
N3219 N 0.50194 0.17956 0.61539 0.0
H3220 H 0.4413 0.15885 0.66105 0.0
H3221 H 0.45501 0.15929 0.62848 0.0
H3222 H 0.51775 0.18222 0.6016 0.0
H3223 H 0.48271 0.18319 0.60697 0.0
H3224 H 0.53623 0.18096 0.73564 0.0
H3225 H 0.50126 0.17782 0.7405 0.0
H3226 H 0.56639 0.16224 0.71234 0.0
H3227 H 0.57968 0.16632 0.67975 0.0
C3228 C 0.42464 0.30025 0.61345 0.0
C3229 C 0.41635 0.32609 0.62347 0.0
C3230 C 0.40436 0.30418 0.66695 0.0
C3231 C 0.41646 0.27935 0.65816 0.0
N3232 N 0.44555 0.25731 0.62513 0.0
N3233 N 0.4006 0.35318 0.66109 0.0
C3234 C 0.42854 0.27829 0.63193 0.0
C3235 C 0.4071 0.32824 0.65073 0.0
N3236 N 0.42896 0.29639 0.5863 0.0
N3237 N 0.38898 0.30455 0.69004 0.0
H3238 H 0.40069 0.37092 0.64942 0.0
H3239 H 0.3968 0.35648 0.68165 0.0
H3240 H 0.38523 0.28719 0.70163 0.0
H3241 H 0.37756 0.32134 0.6961 0.0
H3242 H 0.4323 0.27722 0.57788 0.0
H3243 H 0.42669 0.31168 0.5718 0.0
H3244 H 0.4565 0.25682 0.60703 0.0
H3245 H 0.45172 0.2423 0.63882 0.0
C3246 C 0.55024 0.3953 0.69769 0.0
C3247 C 0.57713 0.39837 0.68704 0.0
C3248 C 0.55809 0.39606 0.64052 0.0
C3249 C 0.53129 0.39373 0.65122 0.0
N3250 N 0.50132 0.39782 0.68948 0.0
N3251 N 0.60535 0.40888 0.64845 0.0
C3252 C 0.52728 0.39555 0.67967 0.0
C3253 C 0.58064 0.40092 0.65846 0.0
N3254 N 0.54652 0.39042 0.72479 0.0
N3255 N 0.56231 0.39226 0.61335 0.0
H3256 H 0.62201 0.41345 0.66095 0.0
H3257 H 0.60853 0.4137 0.62808 0.0
H3258 H 0.54645 0.38943 0.59943 0.0
H3259 H 0.58164 0.39012 0.60488 0.0
H3260 H 0.52789 0.38442 0.73296 0.0
H3261 H 0.56231 0.38992 0.73902 0.0
H3262 H 0.49696 0.40209 0.70974 0.0
H3263 H 0.48417 0.3982 0.67678 0.0
C3264 C 0.91407 0.66022 0.82021 0.0
C3265 C 0.94133 0.65085 0.81712 0.0
C3266 C 0.93215 0.64255 0.76866 0.0
C3267 C 0.90577 0.65451 0.77088 0.0
N3268 N 0.87421 0.68019 0.79834 0.0
N3269 N 0.97815 0.64043 0.78639 0.0
C3270 C 0.8974 0.66485 0.7966 0.0
C3271 C 0.95098 0.64459 0.7907 0.0
N3272 N 0.90409 0.66483 0.84566 0.0
N3273 N 0.93874 0.62714 0.74649 0.0
H3274 H 0.99276 0.64101 0.80186 0.0
H3275 H 0.98634 0.6392 0.76691 0.0
H3276 H 0.92495 0.62246 0.73098 0.0
H3277 H 0.9568 0.61597 0.74529 0.0
H3278 H 0.88353 0.66863 0.84946 0.0
H3279 H 0.91611 0.66318 0.86317 0.0
H3280 H 0.8684 0.69033 0.81597 0.0
H3281 H 0.86229 0.68521 0.78143 0.0
C3282 C 0.9079 0.90418 0.4781 0.0
C3283 C 0.90607 0.87552 0.48205 0.0
C3284 C 0.90338 0.88338 0.53158 0.0
C3285 C 0.90131 0.91182 0.52705 0.0
N3286 N 0.90418 0.9497 0.49584 0.0
N3287 N 0.89967 0.83783 0.51316 0.0
C3288 C 0.90456 0.92228 0.50037 0.0
C3289 C 0.90372 0.86507 0.50903 0.0
N3290 N 0.91289 0.91507 0.45315 0.0
N3291 N 0.90549 0.87394 0.55767 0.0
H3292 H 0.8993 0.8235 0.49759 0.0
H3293 H 0.89417 0.82954 0.53183 0.0
H3294 H 0.90563 0.88693 0.57446 0.0
H3295 H 0.90992 0.8538 0.56259 0.0
H3296 H 0.9166 0.90358 0.43571 0.0
H3297 H 0.9166 0.90358 0.43571 0.0
H3298 H 0.90585 0.95809 0.4764 0.0
H3299 H 0.90249 0.96396 0.5114 0.0
C3300 C 0.16912 0.89949 0.8047 0.0
C3301 C 0.16139 0.91177 0.77954 0.0
C3302 C 0.11588 0.92097 0.79867 0.0
C3303 C 0.1249 0.91245 0.82491 0.0
N3304 N 0.16149 0.89577 0.85338 0.0
N3305 N 0.12934 0.94124 0.75606 0.0
C3306 C 0.15203 0.90255 0.82808 0.0
C3307 C 0.13523 0.9243 0.7774 0.0
N3308 N 0.19202 0.88365 0.80602 0.0
N3309 N 0.08889 0.92623 0.79381 0.0
H3310 H 0.14367 0.94709 0.74163 0.0
H3311 H 0.11133 0.95247 0.75468 0.0
H3312 H 0.07383 0.92468 0.80855 0.0
H3313 H 0.08106 0.92964 0.77435 0.0
H3314 H 0.19732 0.87209 0.82301 0.0
H3315 H 0.20419 0.87968 0.78917 0.0
H3316 H 0.18195 0.89155 0.8575 0.0
H3317 H 0.14916 0.89598 0.8706 0.0
C3318 C 0.17006 0.696 0.515 0.0
C3319 C 0.16755 0.68578 0.48796 0.0
C3320 C 0.15663 0.6404 0.50678 0.0
C3321 C 0.16215 0.64995 0.53357 0.0
N3322 N 0.17809 0.6864 0.56263 0.0
N3323 N 0.15972 0.64771 0.45799 0.0
C3324 C 0.16959 0.67769 0.53756 0.0
C3325 C 0.16133 0.65777 0.48386 0.0
N3326 N 0.17321 0.72332 0.51942 0.0
N3327 N 0.14558 0.61507 0.50334 0.0
H3328 H 0.16048 0.66002 0.44074 0.0
H3329 H 0.15895 0.62701 0.45354 0.0
H3330 H 0.14105 0.60222 0.5196 0.0
H3331 H 0.13844 0.60771 0.48477 0.0
H3332 H 0.17097 0.73231 0.53845 0.0
H3333 H 0.17641 0.73752 0.50408 0.0
H3334 H 0.18777 0.70498 0.56595 0.0
H3335 H 0.17764 0.67439 0.58001 0.0
C3336 C 0.89716 0.42374 0.75352 0.0
C3337 C 0.90699 0.42288 0.78079 0.0
C3338 C 0.95405 0.41902 0.76389 0.0
C3339 C 0.94419 0.41903 0.73659 0.0
N3340 N 0.90576 0.41281 0.70628 0.0
N3341 N 0.94377 0.41246 0.81171 0.0
C3342 C 0.91554 0.4188 0.73166 0.0
C3343 C 0.93514 0.41813 0.78583 0.0
N3344 N 0.87065 0.43072 0.7482 0.0
N3345 N 0.9814 0.42142 0.76906 0.0
H3346 H 0.93033 0.41129 0.82807 0.0
H3347 H 0.96353 0.40615 0.81645 0.0
H3348 H 0.99603 0.42283 0.75384 0.0
H3349 H 0.98947 0.42448 0.78845 0.0
H3350 H 0.86343 0.43509 0.7287 0.0
H3351 H 0.85629 0.43428 0.76331 0.0
H3352 H 0.8851 0.40979 0.70209 0.0
H3353 H 0.91845 0.40779 0.69009 0.0
C3354 C 0.68121 0.86451 0.55194 0.0
C3355 C 0.67202 0.87515 0.57711 0.0
C3356 C 0.66011 0.91794 0.55347 0.0
C3357 C 0.67305 0.90858 0.52931 0.0
N3358 N 0.7033 0.87505 0.50952 0.0
N3359 N 0.65536 0.91362 0.60248 0.0
C3360 C 0.68553 0.88238 0.52955 0.0
C3361 C 0.66253 0.90248 0.57811 0.0
N3362 N 0.68603 0.83729 0.54919 0.0
N3363 N 0.64403 0.94065 0.55263 0.0
H3364 H 0.65548 0.90261 0.62062 0.0
H3365 H 0.65122 0.93427 0.60494 0.0
H3366 H 0.64011 0.95144 0.53478 0.0
H3367 H 0.63208 0.94698 0.56889 0.0
H3368 H 0.68948 0.82829 0.53032 0.0
H3369 H 0.68458 0.82351 0.56526 0.0
H3370 H 0.71474 0.85715 0.51031 0.0
H3371 H 0.70942 0.88821 0.49409 0.0
C3372 C 0.17517 0.14044 0.75698 0.0
C3373 C 0.16383 0.13836 0.78346 0.0
C3374 C 0.11756 0.1397 0.76339 0.0
C3375 C 0.12885 0.14253 0.73688 0.0
N3376 N 0.1683 0.1524 0.70949 0.0
N3377 N 0.12464 0.14205 0.81235 0.0
C3378 C 0.15765 0.14487 0.734 0.0
C3379 C 0.13512 0.13997 0.78673 0.0
N3380 N 0.20261 0.13698 0.75352 0.0
N3381 N 0.09019 0.1351 0.76628 0.0
H3382 H 0.13699 0.1424 0.82972 0.0
H3383 H 0.10418 0.1461 0.81629 0.0
H3384 H 0.07666 0.13385 0.74989 0.0
H3385 H 0.08119 0.12993 0.78469 0.0
H3386 H 0.21165 0.13455 0.73456 0.0
H3387 H 0.21625 0.13485 0.76971 0.0
H3388 H 0.18881 0.15722 0.70673 0.0
H3389 H 0.15621 0.15651 0.69245 0.0
C3390 C 0.38985 0.63398 0.57429 0.0
C3391 C 0.39982 0.63975 0.54775 0.0
C3392 C 0.40312 0.68797 0.56099 0.0
C3393 C 0.39823 0.6811 0.58871 0.0
N3394 N 0.39417 0.64486 0.62191 0.0
N3395 N 0.42102 0.67255 0.51788 0.0
C3396 C 0.39365 0.65333 0.59546 0.0
C3397 C 0.40789 0.66686 0.54163 0.0
N3398 N 0.37536 0.61075 0.57921 0.0
N3399 N 0.40195 0.71449 0.55269 0.0
H3400 H 0.42618 0.65763 0.50377 0.0
H3401 H 0.42942 0.69159 0.51371 0.0
H3402 H 0.39665 0.73041 0.56562 0.0
H3403 H 0.40295 0.72017 0.53229 0.0
H3404 H 0.36588 0.60701 0.59778 0.0
H3405 H 0.36962 0.59718 0.56392 0.0
H3406 H 0.39296 0.62436 0.62732 0.0
H3407 H 0.39935 0.65759 0.63806 0.0
C3408 C 0.80674 0.95331 0.63106 0.0
C3409 C 0.83094 0.9451 0.64465 0.0
C3410 C 0.80646 0.90452 0.6614 0.0
C3411 C 0.7837 0.91078 0.64427 0.0
N3412 N 0.76748 0.93756 0.60595 0.0
N3413 N 0.85488 0.91105 0.67076 0.0
C3414 C 0.78522 0.93425 0.62725 0.0
C3415 C 0.83117 0.92003 0.65909 0.0
N3416 N 0.804 0.97943 0.62194 0.0
N3417 N 0.80416 0.88484 0.68088 0.0
H3418 H 0.87291 0.92236 0.67042 0.0
H3419 H 0.8571 0.89163 0.67903 0.0
H3420 H 0.78611 0.87418 0.68433 0.0
H3421 H 0.81916 0.88116 0.69554 0.0
H3422 H 0.78567 0.98697 0.61409 0.0
H3423 H 0.81926 0.99407 0.62441 0.0
H3424 H 0.76942 0.95329 0.59182 0.0
H3425 H 0.75339 0.92276 0.60008 0.0
C3426 C 0.83012 0.1583 0.90684 0.0
C3427 C 0.82611 0.13035 0.91316 0.0
C3428 C 0.77656 0.13855 0.91646 0.0
C3429 C 0.7803 0.16611 0.90831 0.0
N3430 N 0.81021 0.20041 0.89 0.0
N3431 N 0.79452 0.09274 0.91819 0.0
C3432 C 0.80701 0.17549 0.90195 0.0
C3433 C 0.79904 0.12011 0.91586 0.0
N3434 N 0.85603 0.16849 0.90534 0.0
N3435 N 0.75206 0.13016 0.92674 0.0
H3436 H 0.81 0.07831 0.91959 0.0
H3437 H 0.77517 0.08405 0.91662 0.0
H3438 H 0.73514 0.14276 0.92872 0.0
H3439 H 0.74921 0.11132 0.93603 0.0
H3440 H 0.86032 0.18922 0.90429 0.0
H3441 H 0.87341 0.15629 0.90668 0.0
H3442 H 0.82873 0.20741 0.88241 0.0
H3443 H 0.79378 0.21303 0.88508 0.0
C3444 C 0.36932 1.01678 0.39201 0.0
C3445 C 0.3796 0.98966 0.39449 0.0
C3446 C 0.42653 1.00738 0.3908 0.0
C3447 C 0.41619 0.03434 0.38891 0.0
N3448 N 0.37868 0.06533 0.39406 0.0
N3449 N 0.4181 0.96031 0.40326 0.0
C3450 C 0.38786 0.03916 0.39161 0.0
C3451 C 0.40828 0.98533 0.39597 0.0
N3452 N 0.342 1.0213 0.38826 0.0
N3453 N 0.45365 1.00264 0.38651 0.0
H3454 H 0.40538 0.94399 0.40805 0.0
H3455 H 0.43865 0.95646 0.40726 0.0
H3456 H 0.4678 1.01824 0.38376 0.0
H3457 H 0.46185 0.98325 0.38403 0.0
H3458 H 0.33394 0.04008 0.38257 0.0
H3459 H 0.32729 1.00604 0.38851 0.0
H3460 H 0.35866 0.07029 0.39905 0.0
H3461 H 0.39178 0.08209 0.39378 0.0
C3462 C 0.22662 0.40216 0.91851 0.0
C3463 C 0.23064 0.43067 0.92207 0.0
C3464 C 0.27948 0.42244 0.93195 0.0
C3465 C 0.27532 0.39399 0.92899 0.0
N3466 N 0.24642 0.35671 0.9155 0.0
N3467 N 0.26212 0.46839 0.92733 0.0
C3468 C 0.24933 0.38387 0.92091 0.0
C3469 C 0.25748 0.44092 0.92708 0.0
N3470 N 0.20098 0.39257 0.91293 0.0
N3471 N 0.30442 0.43176 0.94052 0.0
H3472 H 0.24674 0.48297 0.92642 0.0
H3473 H 0.28151 0.47703 0.92705 0.0
H3474 H 0.32161 0.41928 0.94201 0.0
H3475 H 0.30794 0.45148 0.94741 0.0
H3476 H 0.19553 0.37212 0.91352 0.0
H3477 H 0.18456 0.40528 0.90824 0.0
H3478 H 0.2289 0.34797 0.90728 0.0
H3479 H 0.26236 0.34281 0.91759 0.0
C3480 C 0.19885 0.04444 0.89515 0.0
C3481 C 0.18843 0.07147 0.89766 0.0
C3482 C 0.14157 0.05326 0.89589 0.0
C3483 C 0.15211 1.02638 0.89397 0.0
N3484 N 0.19015 0.99592 0.89889 0.0
N3485 N 0.1501 0.1005 0.90766 0.0
C3486 C 0.18058 1.02191 0.89598 0.0
C3487 C 0.15982 0.07553 0.90022 0.0
N3488 N 0.22595 0.04009 0.89015 0.0
N3489 N 0.11426 0.05777 0.89227 0.0
H3490 H 0.16287 0.117 0.91178 0.0
H3491 H 0.12974 0.10411 0.91245 0.0
H3492 H 0.10012 0.04208 0.8901 0.0
H3493 H 0.10585 0.07709 0.88979 0.0
H3494 H 0.2338 1.02125 0.88448 0.0
H3495 H 0.24047 0.05548 0.88922 0.0
H3496 H 0.21046 0.99133 0.90333 0.0
H3497 H 0.17719 0.97907 0.89969 0.0
C3498 C 0.74094 0.14337 0.1604 0.0
C3499 C 0.74009 0.11856 0.14562 0.0
C3500 C 0.78542 0.12859 0.12732 0.0
C3501 C 0.78792 0.15199 0.14434 0.0
N3502 N 0.7696 0.17734 0.18221 0.0
N3503 N 0.76564 0.08375 0.12251 0.0
C3504 C 0.76604 0.15827 0.16231 0.0
C3505 C 0.76367 0.10992 0.13158 0.0
N3506 N 0.71786 0.15273 0.17272 0.0
N3507 N 0.80233 0.125 0.10562 0.0
H3508 H 0.75018 0.06942 0.12534 0.0
H3509 H 0.78361 0.07589 0.11438 0.0
H3510 H 0.81649 0.1395 0.0994 0.0
H3511 H 0.79958 0.10932 0.09156 0.0
H3512 H 0.71643 0.17206 0.1813 0.0
H3513 H 0.69953 0.14189 0.17258 0.0
H3514 H 0.75525 0.181 0.19732 0.0
H3515 H 0.7881 0.18729 0.18557 0.0
C3516 C 0.40655 0.04797 0.19778 0.0
C3517 C 0.41154 1.03192 0.17432 0.0
C3518 C 0.38752 0.06641 0.14641 0.0
C3519 C 0.38223 0.08227 0.17019 0.0
N3520 N 0.40011 0.09319 0.21509 0.0
N3521 N 0.41081 1.02775 0.12563 0.0
C3522 C 0.39566 0.07465 0.19488 0.0
C3523 C 0.40333 0.04181 0.14837 0.0
N3524 N 0.41234 0.038 0.22315 0.0
N3525 N 0.37807 0.07533 0.12176 0.0
H3526 H 0.42136 1.00931 0.12653 0.0
H3527 H 0.40795 0.03477 0.10586 0.0
H3528 H 0.37099 0.09513 0.11871 0.0
H3529 H 0.37741 0.06341 0.1043 0.0
H3530 H 0.40542 0.0473 0.24088 0.0
H3531 H 0.42258 1.01974 0.22667 0.0
H3532 H 0.41133 0.08884 0.23262 0.0
H3533 H 0.39674 0.11386 0.21277 0.0
C3534 C 0.64712 0.50391 0.16865 0.0
C3535 C 0.65755 0.53086 0.17066 0.0
C3536 C 0.70445 0.51255 0.17 0.0
C3537 C 0.69406 0.48559 0.16707 0.0
N3538 N 0.65557 0.45671 0.15674 0.0
N3539 N 0.6958 0.56126 0.16732 0.0
C3540 C 0.66539 0.48161 0.16441 0.0
C3541 C 0.68615 0.53523 0.16939 0.0
N3542 N 0.61983 0.49936 0.17206 0.0
N3543 N 0.73166 0.51653 0.17499 0.0
H3544 H 0.6829 0.57817 0.16674 0.0
H3545 H 0.71615 0.56596 0.1635 0.0
H3546 H 0.74574 0.50068 0.17643 0.0
H3547 H 0.73999 0.5353 0.18027 0.0
H3548 H 0.61146 0.48002 0.17447 0.0
H3549 H 0.60568 0.51502 0.17425 0.0
H3550 H 0.63517 0.45319 0.15175 0.0
H3551 H 0.66822 0.44015 0.15267 0.0
loop_
_geom_bond_atom_site_label_1
_geom_bond_atom_site_label_2
_geom_bond_distance
_geom_bond_site_symmetry_2
_ccdc_geom_bond_type
O0 Tb1 2.506 . S
O0 C14 1.265 . S
Tb1 O0 2.506 . S
Tb1 O6 2.312 . S
Tb1 O10 2.271 . S
Tb1 O12 2.338 . S
Tb1 O19 2.441 . S
C2 O10 1.252 . S
C2 O11 1.253 . S
O3 Tb4 2.271 . S
O3 C13 1.252 . S
Tb4 O3 2.271 . S
Tb4 O7 2.338 . S
Tb4 O11 2.312 . S
Tb4 O15 2.441 . S
Tb4 O16 2.506 . S
C5 O15 1.244 . S
C5 O16 1.265 . S
O6 Tb1 2.312 . S
O6 C13 1.253 . S
O7 Tb4 2.338 . S
O7 C8 1.258 . S
C8 O7 1.258 . S
C8 O9 1.251 . S
O9 C8 1.251 . S
O10 Tb1 2.271 . S
O10 C2 1.252 . S
O11 C2 1.253 . S
O11 Tb4 2.312 . S
O12 Tb1 2.338 . S
O12 C17 1.258 . S
C13 O3 1.252 . S
C13 O6 1.253 . S
C14 O0 1.265 . S
C14 O19 1.244 . S
O15 Tb4 2.441 . S
O15 C5 1.244 . S
O16 Tb4 2.506 . S
O16 C5 1.265 . S
C17 O12 1.258 . S
C17 O18 1.251 . S
O18 C17 1.251 . S
O19 Tb1 2.441 . S
O19 C14 1.244 . S
O20 Tb21 2.506 . S
O20 C34 1.268 1_556 S
Tb21 O20 2.506 . S
Tb21 O26 2.312 . S
Tb21 O30 2.271 . S
Tb21 O32 2.338 . S
Tb21 O39 2.441 1_556 S
C22 O30 1.270 . S
C22 O31 1.266 . S
O23 Tb24 2.271 . S
O23 C33 1.252 . S
Tb24 O23 2.271 . S
Tb24 O27 2.338 . S
Tb24 O31 2.312 . S
Tb24 O35 2.441 . S
Tb24 O36 2.506 . S
C25 O35 1.244 . S
C25 O36 1.265 . S
O26 Tb21 2.312 . S
O26 C33 1.253 . S
O27 Tb24 2.338 . S
O27 C28 1.258 . S
C28 O27 1.258 . S
C28 O29 1.251 . S
O29 C28 1.251 . S
O30 Tb21 2.271 . S
O30 C22 1.270 . S
O31 C22 1.266 . S
O31 Tb24 2.312 . S
O32 Tb21 2.338 . S
O32 C37 1.258 . S
C33 O23 1.252 . S
C33 O26 1.253 . S
C34 O20 1.268 1_554 S
C34 O39 1.243 . S
O35 Tb24 2.441 . S
O35 C25 1.244 . S
O36 Tb24 2.506 . S
O36 C25 1.265 . S
C37 O32 1.258 . S
C37 O38 1.251 . S
O38 C37 1.251 . S
O39 Tb21 2.441 1_554 S
O39 C34 1.243 . S
O40 Tb41 2.506 . S
O40 C54 1.265 . S
Tb41 O40 2.506 . S
Tb41 O46 2.312 . S
Tb41 O50 2.271 . S
Tb41 O52 2.338 . S
Tb41 O59 2.441 . S
C42 O50 1.252 . S
C42 O51 1.253 . S
O43 Tb44 2.271 . S
O43 C53 1.252 . S
Tb44 O43 2.271 . S
Tb44 O47 2.338 . S
Tb44 O51 2.312 . S
Tb44 O55 2.441 . S
Tb44 O56 2.506 . S
C45 O55 1.244 . S
C45 O56 1.265 . S
O46 Tb41 2.312 . S
O46 C53 1.253 . S
O47 Tb44 2.338 . S
O47 C48 1.258 . S
C48 O47 1.258 . S
C48 O49 1.251 . S
O49 C48 1.251 . S
O50 Tb41 2.271 . S
O50 C42 1.252 . S
O51 C42 1.253 . S
O51 Tb44 2.312 . S
O52 Tb41 2.338 . S
O52 C57 1.258 . S
C53 O43 1.252 . S
C53 O46 1.253 . S
C54 O40 1.265 . S
C54 O59 1.244 . S
O55 Tb44 2.441 . S
O55 C45 1.244 . S
O56 Tb44 2.506 . S
O56 C45 1.265 . S
C57 O52 1.258 . S
C57 O58 1.251 . S
O58 C57 1.251 . S
O59 Tb41 2.441 . S
O59 C54 1.244 . S
O60 Tb61 2.506 . S
O60 C74 1.265 . S
Tb61 O60 2.506 . S
Tb61 O66 2.312 . S
Tb61 O70 2.271 . S
Tb61 O72 2.338 . S
Tb61 O79 2.441 . S
C62 O70 1.252 . S
C62 O71 1.253 . S
O63 Tb64 2.271 . S
O63 C73 1.270 . S
Tb64 O63 2.271 . S
Tb64 O67 2.338 . S
Tb64 O71 2.312 . S
Tb64 O75 2.441 1_556 S
Tb64 O76 2.506 . S
C65 O75 1.243 . S
C65 O76 1.268 1_554 S
O66 Tb61 2.312 . S
O66 C73 1.266 . S
O67 Tb64 2.338 . S
O67 C68 1.258 . S
C68 O67 1.258 . S
C68 O69 1.251 . S
O69 C68 1.251 . S
O70 Tb61 2.271 . S
O70 C62 1.252 . S
O71 C62 1.253 . S
O71 Tb64 2.312 . S
O72 Tb61 2.338 . S
O72 C77 1.258 . S
C73 O63 1.270 . S
C73 O66 1.266 . S
C74 O60 1.265 . S
C74 O79 1.244 . S
O75 Tb64 2.441 1_554 S
O75 C65 1.243 . S
O76 Tb64 2.506 . S
O76 C65 1.268 1_556 S
C77 O72 1.258 . S
C77 O78 1.251 . S
O78 C77 1.251 . S
O79 Tb61 2.441 . S
O79 C74 1.244 . S
O80 Tb81 2.506 . S
O80 C94 1.265 . S
Tb81 O80 2.506 . S
Tb81 O86 2.312 . S
Tb81 O90 2.271 . S
Tb81 O92 2.338 . S
Tb81 O99 2.441 . S
C82 O90 1.252 . S
C82 O91 1.253 . S
O83 Tb84 2.271 . S
O83 C93 1.252 . S
Tb84 O83 2.271 . S
Tb84 O87 2.338 . S
Tb84 O91 2.312 . S
Tb84 O95 2.441 . S
Tb84 O96 2.506 . S
C85 O95 1.244 . S
C85 O96 1.265 . S
O86 Tb81 2.312 . S
O86 C93 1.253 . S
O87 Tb84 2.338 . S
O87 C88 1.258 . S
C88 O87 1.258 . S
C88 O89 1.251 . S
O89 C88 1.251 . S
O90 Tb81 2.271 . S
O90 C82 1.252 . S
O91 C82 1.253 . S
O91 Tb84 2.312 . S
O92 Tb81 2.338 . S
O92 C97 1.258 . S
C93 O83 1.252 . S
C93 O86 1.253 . S
C94 O80 1.265 . S
C94 O99 1.244 . S
O95 Tb84 2.441 . S
O95 C85 1.244 . S
O96 Tb84 2.506 . S
O96 C85 1.265 . S
C97 O92 1.258 . S
C97 O98 1.251 . S
O98 C97 1.251 . S
O99 Tb81 2.441 . S
O99 C94 1.244 . S
O100 Tb101 2.506 1_655 S
O100 C114 1.265 1_655 S
Tb101 O100 2.506 1_455 S
Tb101 O106 2.312 . S
Tb101 O110 2.271 . S
Tb101 O112 2.338 . S
Tb101 O119 2.441 . S
C102 O110 1.252 . S
C102 O111 1.253 . S
O103 Tb104 2.271 . S
O103 C113 1.270 . S
Tb104 O103 2.271 . S
Tb104 O107 2.338 . S
Tb104 O111 2.312 . S
Tb104 O115 2.441 1_554 S
Tb104 O116 2.506 . S
C105 O115 1.243 . S
C105 O116 1.268 1_556 S
O106 Tb101 2.312 . S
O106 C113 1.266 . S
O107 Tb104 2.338 . S
O107 C108 1.258 . S
C108 O107 1.258 . S
C108 O109 1.251 . S
O109 C108 1.251 . S
O110 Tb101 2.271 . S
O110 C102 1.252 . S
O111 C102 1.253 . S
O111 Tb104 2.312 . S
O112 Tb101 2.338 . S
O112 C117 1.258 . S
C113 O103 1.270 . S
C113 O106 1.266 . S
C114 O100 1.265 1_455 S
C114 O119 1.244 . S
O115 Tb104 2.441 1_556 S
O115 C105 1.243 . S
O116 Tb104 2.506 . S
O116 C105 1.268 1_554 S
C117 O112 1.258 . S
C117 O118 1.251 . S
O118 C117 1.251 . S
O119 Tb101 2.441 . S
O119 C114 1.244 . S
O120 Tb121 2.506 . S
O120 C134 1.265 . S
Tb121 O120 2.506 . S
Tb121 O126 2.312 . S
Tb121 O130 2.271 . S
Tb121 O132 2.338 . S
Tb121 O139 2.441 . S
C122 O130 1.252 . S
C122 O131 1.253 . S
O123 Tb124 2.271 . S
O123 C133 1.252 . S
Tb124 O123 2.271 . S
Tb124 O127 2.338 . S
Tb124 O131 2.312 . S
Tb124 O135 2.441 . S
Tb124 O136 2.506 . S
C125 O135 1.244 . S
C125 O136 1.265 . S
O126 Tb121 2.312 . S
O126 C133 1.253 . S
O127 Tb124 2.338 . S
O127 C128 1.258 . S
C128 O127 1.258 . S
C128 O129 1.251 . S
O129 C128 1.251 . S
O130 Tb121 2.271 . S
O130 C122 1.252 . S
O131 C122 1.253 . S
O131 Tb124 2.312 . S
O132 Tb121 2.338 . S
O132 C137 1.258 . S
C133 O123 1.252 . S
C133 O126 1.253 . S
C134 O120 1.265 . S
C134 O139 1.244 . S
O135 Tb124 2.441 . S
O135 C125 1.244 . S
O136 Tb124 2.506 . S
O136 C125 1.265 . S
C137 O132 1.258 . S
C137 O138 1.251 . S
O138 C137 1.251 . S
O139 Tb121 2.441 . S
O139 C134 1.244 . S
O140 Tb141 2.506 . S
O140 C154 1.268 1_554 S
Tb141 O140 2.506 . S
Tb141 O146 2.312 . S
Tb141 O150 2.271 . S
Tb141 O152 2.338 . S
Tb141 O159 2.441 1_554 S
C142 O150 1.270 . S
C142 O151 1.266 . S
O143 Tb144 2.271 . S
O143 C153 1.252 . S
Tb144 O143 2.271 . S
Tb144 O147 2.338 . S
Tb144 O151 2.312 . S
Tb144 O155 2.441 . S
Tb144 O156 2.506 1_655 S
C145 O155 1.244 . S
C145 O156 1.265 1_655 S
O146 Tb141 2.312 . S
O146 C153 1.253 . S
O147 Tb144 2.338 . S
O147 C148 1.258 . S
C148 O147 1.258 . S
C148 O149 1.251 . S
O149 C148 1.251 . S
O150 Tb141 2.271 . S
O150 C142 1.270 . S
O151 C142 1.266 . S
O151 Tb144 2.312 . S
O152 Tb141 2.338 . S
O152 C157 1.258 . S
C153 O143 1.252 . S
C153 O146 1.253 . S
C154 O140 1.268 1_556 S
C154 O159 1.243 . S
O155 Tb144 2.441 . S
O155 C145 1.244 . S
O156 Tb144 2.506 1_455 S
O156 C145 1.265 1_455 S
C157 O152 1.258 . S
C157 O158 1.251 . S
O158 C157 1.251 . S
O159 Tb141 2.441 1_556 S
O159 C154 1.243 . S
O160 Tb161 2.506 . S
O160 C174 1.265 . S
Tb161 O160 2.506 . S
Tb161 O166 2.312 . S
Tb161 O170 2.271 . S
Tb161 O172 2.338 . S
Tb161 O179 2.441 . S
C162 O170 1.252 . S
C162 O171 1.253 . S
O163 Tb164 2.271 . S
O163 C173 1.252 . S
Tb164 O163 2.271 . S
Tb164 O167 2.338 . S
Tb164 O171 2.312 . S
Tb164 O175 2.441 . S
Tb164 O176 2.506 . S
C165 O175 1.244 . S
C165 O176 1.265 . S
O166 Tb161 2.312 . S
O166 C173 1.253 . S
O167 Tb164 2.338 . S
O167 C168 1.258 . S
C168 O167 1.258 . S
C168 O169 1.251 . S
O169 C168 1.251 . S
O170 Tb161 2.271 . S
O170 C162 1.252 . S
O171 C162 1.253 . S
O171 Tb164 2.312 . S
O172 Tb161 2.338 . S
O172 C177 1.258 . S
C173 O163 1.252 . S
C173 O166 1.253 . S
C174 O160 1.265 . S
C174 O179 1.244 . S
O175 Tb164 2.441 . S
O175 C165 1.244 . S
O176 Tb164 2.506 . S
O176 C165 1.265 . S
C177 O172 1.258 . S
C177 O178 1.251 . S
O178 C177 1.251 . S
O179 Tb161 2.441 . S
O179 C174 1.244 . S
O180 Tb181 2.506 . S
O180 C194 1.265 . S
Tb181 O180 2.506 . S
Tb181 O186 2.312 . S
Tb181 O190 2.271 . S
Tb181 O192 2.338 . S
Tb181 O199 2.441 . S
C182 O190 1.252 . S
C182 O191 1.253 . S
O183 Tb184 2.271 . S
O183 C193 1.252 . S
Tb184 O183 2.271 . S
Tb184 O187 2.338 . S
Tb184 O191 2.312 . S
Tb184 O195 2.441 . S
Tb184 O196 2.506 1_554 S
C185 O195 1.244 . S
C185 O196 1.265 1_554 S
O186 Tb181 2.312 . S
O186 C193 1.253 . S
O187 Tb184 2.338 . S
O187 C188 1.258 . S
C188 O187 1.258 . S
C188 O189 1.251 . S
O189 C188 1.251 . S
O190 Tb181 2.271 . S
O190 C182 1.252 . S
O191 C182 1.253 . S
O191 Tb184 2.312 . S
O192 Tb181 2.338 . S
O192 C197 1.258 . S
C193 O183 1.252 . S
C193 O186 1.253 . S
C194 O180 1.265 . S
C194 O199 1.244 . S
O195 Tb184 2.441 . S
O195 C185 1.244 . S
O196 Tb184 2.506 1_556 S
O196 C185 1.265 1_556 S
C197 O192 1.258 . S
C197 O198 1.251 . S
O198 C197 1.251 . S
O199 Tb181 2.441 . S
O199 C194 1.244 . S
O200 Tb201 2.506 . S
O200 C214 1.265 . S
Tb201 O200 2.506 . S
Tb201 O206 2.312 . S
Tb201 O210 2.271 . S
Tb201 O212 2.338 . S
Tb201 O219 2.441 . S
C202 O210 1.252 . S
C202 O211 1.253 . S
O203 Tb204 2.271 . S
O203 C213 1.252 . S
Tb204 O203 2.271 . S
Tb204 O207 2.338 . S
Tb204 O211 2.312 . S
Tb204 O215 2.441 . S
Tb204 O216 2.506 . S
C205 O215 1.244 . S
C205 O216 1.265 . S
O206 Tb201 2.312 . S
O206 C213 1.253 . S
O207 Tb204 2.338 . S
O207 C208 1.258 . S
C208 O207 1.258 . S
C208 O209 1.251 . S
O209 C208 1.251 . S
O210 Tb201 2.271 . S
O210 C202 1.252 . S
O211 C202 1.253 . S
O211 Tb204 2.312 . S
O212 Tb201 2.338 . S
O212 C217 1.258 . S
C213 O203 1.252 . S
C213 O206 1.253 . S
C214 O200 1.265 . S
C214 O219 1.244 . S
O215 Tb204 2.441 . S
O215 C205 1.244 . S
O216 Tb204 2.506 . S
O216 C205 1.265 . S
C217 O212 1.258 . S
C217 O218 1.251 . S
O218 C217 1.251 . S
O219 Tb201 2.441 . S
O219 C214 1.244 . S
O220 Tb221 2.506 1_556 S
O220 C234 1.265 1_556 S
Tb221 O220 2.506 1_554 S
Tb221 O226 2.312 . S
Tb221 O230 2.271 . S
Tb221 O232 2.338 . S
Tb221 O239 2.441 . S
C222 O230 1.252 . S
C222 O231 1.253 . S
O223 Tb224 2.271 . S
O223 C233 1.270 . S
Tb224 O223 2.271 . S
Tb224 O227 2.338 . S
Tb224 O231 2.312 . S
Tb224 O235 2.441 1_545 S
Tb224 O236 2.506 . S
C225 O235 1.243 . S
C225 O236 1.268 1_565 S
O226 Tb221 2.312 . S
O226 C233 1.266 . S
O227 Tb224 2.338 . S
O227 C228 1.258 . S
C228 O227 1.258 . S
C228 O229 1.251 . S
O229 C228 1.251 . S
O230 Tb221 2.271 . S
O230 C222 1.252 . S
O231 C222 1.253 . S
O231 Tb224 2.312 . S
O232 Tb221 2.338 . S
O232 C237 1.258 . S
C233 O223 1.270 . S
C233 O226 1.266 . S
C234 O220 1.265 1_554 S
C234 O239 1.244 . S
O235 Tb224 2.441 1_565 S
O235 C225 1.243 . S
O236 Tb224 2.506 . S
O236 C225 1.268 1_545 S
C237 O232 1.258 . S
C237 O238 1.251 . S
O238 C237 1.251 . S
O239 Tb221 2.441 . S
O239 C234 1.244 . S
O240 Tb241 2.506 . S
O240 C254 1.265 . S
Tb241 O240 2.506 . S
Tb241 O246 2.312 . S
Tb241 O250 2.271 . S
Tb241 O252 2.338 . S
Tb241 O259 2.441 . S
C242 O250 1.252 . S
C242 O251 1.253 . S
O243 Tb244 2.271 . S
O243 C253 1.252 . S
Tb244 O243 2.271 . S
Tb244 O247 2.338 . S
Tb244 O251 2.312 . S
Tb244 O255 2.441 . S
Tb244 O256 2.506 . S
C245 O255 1.244 . S
C245 O256 1.265 . S
O246 Tb241 2.312 . S
O246 C253 1.253 . S
O247 Tb244 2.338 . S
O247 C248 1.258 . S
C248 O247 1.258 . S
C248 O249 1.251 . S
O249 C248 1.251 . S
O250 Tb241 2.271 . S
O250 C242 1.252 . S
O251 C242 1.253 . S
O251 Tb244 2.312 . S
O252 Tb241 2.338 . S
O252 C257 1.258 . S
C253 O243 1.252 . S
C253 O246 1.253 . S
C254 O240 1.265 . S
C254 O259 1.244 . S
O255 Tb244 2.441 . S
O255 C245 1.244 . S
O256 Tb244 2.506 . S
O256 C245 1.265 . S
C257 O252 1.258 . S
C257 O258 1.251 . S
O258 C257 1.251 . S
O259 Tb241 2.441 . S
O259 C254 1.244 . S
O260 Tb261 2.506 . S
O260 C274 1.265 . S
Tb261 O260 2.506 . S
Tb261 O266 2.312 . S
Tb261 O270 2.271 . S
Tb261 O272 2.338 . S
Tb261 O279 2.441 . S
C262 O270 1.252 . S
C262 O271 1.253 . S
O263 Tb264 2.271 . S
O263 C273 1.252 . S
Tb264 O263 2.271 . S
Tb264 O267 2.338 . S
Tb264 O271 2.312 . S
Tb264 O275 2.441 . S
Tb264 O276 2.506 1_556 S
C265 O275 1.244 . S
C265 O276 1.265 1_556 S
O266 Tb261 2.312 . S
O266 C273 1.253 . S
O267 Tb264 2.338 . S
O267 C268 1.258 . S
C268 O267 1.258 . S
C268 O269 1.251 . S
O269 C268 1.251 . S
O270 Tb261 2.271 . S
O270 C262 1.252 . S
O271 C262 1.253 . S
O271 Tb264 2.312 . S
O272 Tb261 2.338 . S
O272 C277 1.258 . S
C273 O263 1.252 . S
C273 O266 1.253 . S
C274 O260 1.265 . S
C274 O279 1.244 . S
O275 Tb264 2.441 . S
O275 C265 1.244 . S
O276 Tb264 2.506 1_554 S
O276 C265 1.265 1_554 S
C277 O272 1.258 . S
C277 O278 1.251 . S
O278 C277 1.251 . S
O279 Tb261 2.441 . S
O279 C274 1.244 . S
O280 Tb281 2.506 . S
O280 C294 1.265 . S
Tb281 O280 2.506 . S
Tb281 O286 2.312 . S
Tb281 O290 2.271 . S
Tb281 O292 2.338 . S
Tb281 O299 2.441 . S
C282 O290 1.252 . S
C282 O291 1.253 . S
O283 Tb284 2.271 . S
O283 C293 1.252 . S
Tb284 O283 2.271 . S
Tb284 O287 2.338 . S
Tb284 O291 2.312 . S
Tb284 O295 2.441 . S
Tb284 O296 2.506 . S
C285 O295 1.244 . S
C285 O296 1.265 . S
O286 Tb281 2.312 . S
O286 C293 1.253 . S
O287 Tb284 2.338 . S
O287 C288 1.258 . S
C288 O287 1.258 . S
C288 O289 1.251 . S
O289 C288 1.251 . S
O290 Tb281 2.271 . S
O290 C282 1.252 . S
O291 C282 1.253 . S
O291 Tb284 2.312 . S
O292 Tb281 2.338 . S
O292 C297 1.258 . S
C293 O283 1.252 . S
C293 O286 1.253 . S
C294 O280 1.265 . S
C294 O299 1.244 . S
O295 Tb284 2.441 . S
O295 C285 1.244 . S
O296 Tb284 2.506 . S
O296 C285 1.265 . S
C297 O292 1.258 . S
C297 O298 1.251 . S
O298 C297 1.251 . S
O299 Tb281 2.441 . S
O299 C294 1.244 . S
O300 Tb301 2.506 1_554 S
O300 C314 1.265 1_554 S
Tb301 O300 2.506 1_556 S
Tb301 O306 2.312 . S
Tb301 O310 2.271 . S
Tb301 O312 2.338 . S
Tb301 O319 2.441 . S
C302 O310 1.252 . S
C302 O311 1.253 . S
O303 Tb304 2.271 . S
O303 C313 1.270 . S
Tb304 O303 2.271 . S
Tb304 O307 2.338 . S
Tb304 O311 2.312 . S
Tb304 O315 2.441 1_545 S
Tb304 O316 2.506 . S
C305 O315 1.243 . S
C305 O316 1.268 1_565 S
O306 Tb301 2.312 . S
O306 C313 1.266 . S
O307 Tb304 2.338 . S
O307 C308 1.258 . S
C308 O307 1.258 . S
C308 O309 1.251 . S
O309 C308 1.251 . S
O310 Tb301 2.271 . S
O310 C302 1.252 . S
O311 C302 1.253 . S
O311 Tb304 2.312 . S
O312 Tb301 2.338 . S
O312 C317 1.258 . S
C313 O303 1.270 . S
C313 O306 1.266 . S
C314 O300 1.265 1_556 S
C314 O319 1.244 . S
O315 Tb304 2.441 1_565 S
O315 C305 1.243 . S
O316 Tb304 2.506 . S
O316 C305 1.268 1_545 S
C317 O312 1.258 . S
C317 O318 1.251 . S
O318 C317 1.251 . S
O319 Tb301 2.441 . S
O319 C314 1.244 . S
O320 Tb321 2.506 . S
O320 C334 1.265 . S
Tb321 O320 2.506 . S
Tb321 O326 2.312 . S
Tb321 O330 2.271 . S
Tb321 O332 2.338 . S
Tb321 O339 2.441 . S
C322 O330 1.252 . S
C322 O331 1.253 . S
O323 Tb324 2.271 . S
O323 C333 1.252 . S
Tb324 O323 2.271 . S
Tb324 O327 2.338 . S
Tb324 O331 2.312 . S
Tb324 O335 2.441 . S
Tb324 O336 2.506 . S
C325 O335 1.244 . S
C325 O336 1.265 . S
O326 Tb321 2.312 . S
O326 C333 1.253 . S
O327 Tb324 2.338 . S
O327 C328 1.258 . S
C328 O327 1.258 . S
C328 O329 1.251 . S
O329 C328 1.251 . S
O330 Tb321 2.271 . S
O330 C322 1.252 . S
O331 C322 1.253 . S
O331 Tb324 2.312 . S
O332 Tb321 2.338 . S
O332 C337 1.258 . S
C333 O323 1.252 . S
C333 O326 1.253 . S
C334 O320 1.265 . S
C334 O339 1.244 . S
O335 Tb324 2.441 . S
O335 C325 1.244 . S
O336 Tb324 2.506 . S
O336 C325 1.265 . S
C337 O332 1.258 . S
C337 O338 1.251 . S
O338 C337 1.251 . S
O339 Tb321 2.441 . S
O339 C334 1.244 . S
O340 Tb341 2.506 . S
O340 C354 1.265 . S
Tb341 O340 2.506 . S
Tb341 O346 2.312 . S
Tb341 O350 2.271 . S
Tb341 O352 2.338 . S
Tb341 O359 2.441 . S
C342 O350 1.252 . S
C342 O351 1.253 . S
O343 Tb344 2.271 . S
O343 C353 1.252 . S
Tb344 O343 2.271 . S
Tb344 O347 2.338 . S
Tb344 O351 2.312 . S
Tb344 O355 2.441 . S
Tb344 O356 2.506 . S
C345 O355 1.244 . S
C345 O356 1.265 . S
O346 Tb341 2.312 . S
O346 C353 1.253 . S
O347 Tb344 2.338 . S
O347 C348 1.258 . S
C348 O347 1.258 . S
C348 O349 1.251 . S
O349 C348 1.251 . S
O350 Tb341 2.271 . S
O350 C342 1.252 . S
O351 C342 1.253 . S
O351 Tb344 2.312 . S
O352 Tb341 2.338 . S
O352 C357 1.258 . S
C353 O343 1.252 . S
C353 O346 1.253 . S
C354 O340 1.265 . S
C354 O359 1.244 . S
O355 Tb344 2.441 . S
O355 C345 1.244 . S
O356 Tb344 2.506 . S
O356 C345 1.265 . S
C357 O352 1.258 . S
C357 O358 1.251 . S
O358 C357 1.251 . S
O359 Tb341 2.441 . S
O359 C354 1.244 . S
O360 Tb361 2.506 . S
O360 C374 1.268 1_655 S
Tb361 O360 2.506 . S
Tb361 O366 2.312 . S
Tb361 O370 2.271 . S
Tb361 O372 2.338 . S
Tb361 O379 2.441 1_655 S
C362 O370 1.270 . S
C362 O371 1.266 . S
O363 Tb364 2.271 . S
O363 C373 1.252 . S
Tb364 O363 2.271 . S
Tb364 O367 2.338 . S
Tb364 O371 2.312 . S
Tb364 O375 2.441 . S
Tb364 O376 2.506 . S
C365 O375 1.244 . S
C365 O376 1.265 . S
O366 Tb361 2.312 . S
O366 C373 1.253 . S
O367 Tb364 2.338 . S
O367 C368 1.258 . S
C368 O367 1.258 . S
C368 O369 1.251 . S
O369 C368 1.251 . S
O370 Tb361 2.271 . S
O370 C362 1.270 . S
O371 C362 1.266 . S
O371 Tb364 2.312 . S
O372 Tb361 2.338 . S
O372 C377 1.258 . S
C373 O363 1.252 . S
C373 O366 1.253 . S
C374 O360 1.268 1_455 S
C374 O379 1.243 . S
O375 Tb364 2.441 . S
O375 C365 1.244 . S
O376 Tb364 2.506 . S
O376 C365 1.265 . S
C377 O372 1.258 . S
C377 O378 1.251 . S
O378 C377 1.251 . S
O379 Tb361 2.441 1_455 S
O379 C374 1.243 . S
O380 Tb381 2.506 . S
O380 C394 1.265 . S
Tb381 O380 2.506 . S
Tb381 O386 2.312 . S
Tb381 O390 2.271 . S
Tb381 O392 2.338 . S
Tb381 O399 2.441 . S
C382 O390 1.252 . S
C382 O391 1.253 . S
O383 Tb384 2.271 . S
O383 C393 1.252 . S
Tb384 O383 2.271 . S
Tb384 O387 2.338 . S
Tb384 O391 2.312 . S
Tb384 O395 2.441 . S
Tb384 O396 2.506 . S
C385 O395 1.244 . S
C385 O396 1.265 . S
O386 Tb381 2.312 . S
O386 C393 1.253 . S
O387 Tb384 2.338 . S
O387 C388 1.258 . S
C388 O387 1.258 . S
C388 O389 1.251 . S
O389 C388 1.251 . S
O390 Tb381 2.271 . S
O390 C382 1.252 . S
O391 C382 1.253 . S
O391 Tb384 2.312 . S
O392 Tb381 2.338 . S
O392 C397 1.258 . S
C393 O383 1.252 . S
C393 O386 1.253 . S
C394 O380 1.265 . S
C394 O399 1.244 . S
O395 Tb384 2.441 . S
O395 C385 1.244 . S
O396 Tb384 2.506 . S
O396 C385 1.265 . S
C397 O392 1.258 . S
C397 O398 1.251 . S
O398 C397 1.251 . S
O399 Tb381 2.441 . S
O399 C394 1.244 . S
O400 Tb401 2.506 . S
O400 C414 1.265 . S
Tb401 O400 2.506 . S
Tb401 O406 2.312 . S
Tb401 O410 2.271 . S
Tb401 O412 2.338 . S
Tb401 O419 2.441 . S
C402 O410 1.252 . S
C402 O411 1.253 . S
O403 Tb404 2.271 . S
O403 C413 1.252 . S
Tb404 O403 2.271 . S
Tb404 O407 2.338 . S
Tb404 O411 2.312 . S
Tb404 O415 2.441 . S
Tb404 O416 2.506 . S
C405 O415 1.244 . S
C405 O416 1.265 . S
O406 Tb401 2.312 . S
O406 C413 1.253 . S
O407 Tb404 2.338 . S
O407 C408 1.258 . S
C408 O407 1.258 . S
C408 O409 1.251 . S
O409 C408 1.251 . S
O410 Tb401 2.271 . S
O410 C402 1.252 . S
O411 C402 1.253 . S
O411 Tb404 2.312 . S
O412 Tb401 2.338 . S
O412 C417 1.258 . S
C413 O403 1.252 . S
C413 O406 1.253 . S
C414 O400 1.265 . S
C414 O419 1.244 . S
O415 Tb404 2.441 . S
O415 C405 1.244 . S
O416 Tb404 2.506 . S
O416 C405 1.265 . S
C417 O412 1.258 . S
C417 O418 1.251 . S
O418 C417 1.251 . S
O419 Tb401 2.441 . S
O419 C414 1.244 . S
O420 Tb421 2.506 . S
O420 C434 1.265 . S
Tb421 O420 2.506 . S
Tb421 O426 2.312 . S
Tb421 O430 2.271 . S
Tb421 O432 2.338 . S
Tb421 O439 2.441 . S
C422 O430 1.252 . S
C422 O431 1.253 . S
O423 Tb424 2.271 . S
O423 C433 1.252 . S
Tb424 O423 2.271 . S
Tb424 O427 2.338 . S
Tb424 O431 2.312 . S
Tb424 O435 2.441 . S
Tb424 O436 2.506 . S
C425 O435 1.244 . S
C425 O436 1.265 . S
O426 Tb421 2.312 . S
O426 C433 1.253 . S
O427 Tb424 2.338 . S
O427 C428 1.258 . S
C428 O427 1.258 . S
C428 O429 1.251 . S
O429 C428 1.251 . S
O430 Tb421 2.271 . S
O430 C422 1.252 . S
O431 C422 1.253 . S
O431 Tb424 2.312 . S
O432 Tb421 2.338 . S
O432 C437 1.258 . S
C433 O423 1.252 . S
C433 O426 1.253 . S
C434 O420 1.265 . S
C434 O439 1.244 . S
O435 Tb424 2.441 . S
O435 C425 1.244 . S
O436 Tb424 2.506 . S
O436 C425 1.265 . S
C437 O432 1.258 . S
C437 O438 1.251 . S
O438 C437 1.251 . S
O439 Tb421 2.441 . S
O439 C434 1.244 . S
O440 Tb441 2.506 . S
O440 C454 1.268 1_655 S
Tb441 O440 2.506 . S
Tb441 O446 2.312 . S
Tb441 O450 2.271 . S
Tb441 O452 2.338 . S
Tb441 O459 2.441 1_655 S
C442 O450 1.270 . S
C442 O451 1.266 . S
O443 Tb444 2.271 . S
O443 C453 1.252 . S
Tb444 O443 2.271 . S
Tb444 O447 2.338 . S
Tb444 O451 2.312 . S
Tb444 O455 2.441 . S
Tb444 O456 2.506 . S
C445 O455 1.244 . S
C445 O456 1.265 . S
O446 Tb441 2.312 . S
O446 C453 1.253 . S
O447 Tb444 2.338 . S
O447 C448 1.258 . S
C448 O447 1.258 . S
C448 O449 1.251 . S
O449 C448 1.251 . S
O450 Tb441 2.271 . S
O450 C442 1.270 . S
O451 C442 1.266 . S
O451 Tb444 2.312 . S
O452 Tb441 2.338 . S
O452 C457 1.258 . S
C453 O443 1.252 . S
C453 O446 1.253 . S
C454 O440 1.268 1_455 S
C454 O459 1.243 . S
O455 Tb444 2.441 . S
O455 C445 1.244 . S
O456 Tb444 2.506 . S
O456 C445 1.265 . S
C457 O452 1.258 . S
C457 O458 1.251 . S
O458 C457 1.251 . S
O459 Tb441 2.441 1_455 S
O459 C454 1.243 . S
O460 Tb461 2.506 . S
O460 C474 1.268 1_455 S
Tb461 O460 2.506 . S
Tb461 O466 2.312 . S
Tb461 O470 2.271 . S
Tb461 O472 2.338 . S
Tb461 O479 2.441 1_455 S
C462 O470 1.270 . S
C462 O471 1.266 . S
O463 Tb464 2.271 . S
O463 C473 1.252 . S
Tb464 O463 2.271 . S
Tb464 O467 2.338 . S
Tb464 O471 2.312 . S
Tb464 O475 2.441 . S
Tb464 O476 2.506 1_545 S
C465 O475 1.244 . S
C465 O476 1.265 1_545 S
O466 Tb461 2.312 . S
O466 C473 1.253 . S
O467 Tb464 2.338 . S
O467 C468 1.258 . S
C468 O467 1.258 . S
C468 O469 1.251 . S
O469 C468 1.251 . S
O470 Tb461 2.271 . S
O470 C462 1.270 . S
O471 C462 1.266 . S
O471 Tb464 2.312 . S
O472 Tb461 2.338 . S
O472 C477 1.258 . S
C473 O463 1.252 . S
C473 O466 1.253 . S
C474 O460 1.268 1_655 S
C474 O479 1.243 . S
O475 Tb464 2.441 . S
O475 C465 1.244 . S
O476 Tb464 2.506 1_565 S
O476 C465 1.265 1_565 S
C477 O472 1.258 . S
C477 O478 1.251 . S
O478 C477 1.251 . S
O479 Tb461 2.441 1_655 S
O479 C474 1.243 . S
O480 Tb481 2.506 . S
O480 C494 1.265 . S
Tb481 O480 2.506 . S
Tb481 O486 2.312 . S
Tb481 O490 2.271 . S
Tb481 O492 2.338 . S
Tb481 O499 2.441 . S
C482 O490 1.252 . S
C482 O491 1.253 . S
O483 Tb484 2.271 . S
O483 C493 1.252 . S
Tb484 O483 2.271 . S
Tb484 O487 2.338 . S
Tb484 O491 2.312 . S
Tb484 O495 2.441 . S
Tb484 O496 2.506 . S
C485 O495 1.244 . S
C485 O496 1.265 . S
O486 Tb481 2.312 . S
O486 C493 1.253 . S
O487 Tb484 2.338 . S
O487 C488 1.258 . S
C488 O487 1.258 . S
C488 O489 1.251 . S
O489 C488 1.251 . S
O490 Tb481 2.271 . S
O490 C482 1.252 . S
O491 C482 1.253 . S
O491 Tb484 2.312 . S
O492 Tb481 2.338 . S
O492 C497 1.258 . S
C493 O483 1.252 . S
C493 O486 1.253 . S
C494 O480 1.265 . S
C494 O499 1.244 . S
O495 Tb484 2.441 . S
O495 C485 1.244 . S
O496 Tb484 2.506 . S
O496 C485 1.265 . S
C497 O492 1.258 . S
C497 O498 1.251 . S
O498 C497 1.251 . S
O499 Tb481 2.441 . S
O499 C494 1.244 . S
O500 Tb501 2.506 . S
O500 C514 1.265 . S
Tb501 O500 2.506 . S
Tb501 O506 2.312 . S
Tb501 O510 2.271 . S
Tb501 O512 2.338 . S
Tb501 O519 2.441 . S
C502 O510 1.252 . S
C502 O511 1.253 . S
O503 Tb504 2.271 . S
O503 C513 1.252 . S
Tb504 O503 2.271 . S
Tb504 O507 2.338 . S
Tb504 O511 2.312 . S
Tb504 O515 2.441 . S
Tb504 O516 2.506 1_655 S
C505 O515 1.244 . S
C505 O516 1.265 1_655 S
O506 Tb501 2.312 . S
O506 C513 1.253 . S
O507 Tb504 2.338 . S
O507 C508 1.258 . S
C508 O507 1.258 . S
C508 O509 1.251 . S
O509 C508 1.251 . S
O510 Tb501 2.271 . S
O510 C502 1.252 . S
O511 C502 1.253 . S
O511 Tb504 2.312 . S
O512 Tb501 2.338 . S
O512 C517 1.258 . S
C513 O503 1.252 . S
C513 O506 1.253 . S
C514 O500 1.265 . S
C514 O519 1.244 . S
O515 Tb504 2.441 . S
O515 C505 1.244 . S
O516 Tb504 2.506 1_455 S
O516 C505 1.265 1_455 S
C517 O512 1.258 . S
C517 O518 1.251 . S
O518 C517 1.251 . S
O519 Tb501 2.441 . S
O519 C514 1.244 . S
O520 Tb521 2.506 . S
O520 C534 1.265 . S
Tb521 O520 2.506 . S
Tb521 O526 2.312 . S
Tb521 O530 2.271 . S
Tb521 O532 2.338 . S
Tb521 O539 2.441 . S
C522 O530 1.252 . S
C522 O531 1.253 . S
O523 Tb524 2.271 . S
O523 C533 1.252 . S
Tb524 O523 2.271 . S
Tb524 O527 2.338 . S
Tb524 O531 2.312 . S
Tb524 O535 2.441 . S
Tb524 O536 2.506 . S
C525 O535 1.244 . S
C525 O536 1.265 . S
O526 Tb521 2.312 . S
O526 C533 1.253 . S
O527 Tb524 2.338 . S
O527 C528 1.258 . S
C528 O527 1.258 . S
C528 O529 1.251 . S
O529 C528 1.251 . S
O530 Tb521 2.271 . S
O530 C522 1.252 . S
O531 C522 1.253 . S
O531 Tb524 2.312 . S
O532 Tb521 2.338 . S
O532 C537 1.258 . S
C533 O523 1.252 . S
C533 O526 1.253 . S
C534 O520 1.265 . S
C534 O539 1.244 . S
O535 Tb524 2.441 . S
O535 C525 1.244 . S
O536 Tb524 2.506 . S
O536 C525 1.265 . S
C537 O532 1.258 . S
C537 O538 1.251 . S
O538 C537 1.251 . S
O539 Tb521 2.441 . S
O539 C534 1.244 . S
O540 Tb541 2.506 1_655 S
O540 C554 1.265 1_655 S
Tb541 O540 2.506 1_455 S
Tb541 O546 2.312 . S
Tb541 O550 2.271 . S
Tb541 O552 2.338 . S
Tb541 O559 2.441 . S
C542 O550 1.252 . S
C542 O551 1.253 . S
O543 Tb544 2.271 . S
O543 C553 1.252 . S
Tb544 O543 2.271 . S
Tb544 O547 2.338 . S
Tb544 O551 2.312 . S
Tb544 O555 2.441 . S
Tb544 O556 2.506 . S
C545 O555 1.244 . S
C545 O556 1.265 . S
O546 Tb541 2.312 . S
O546 C553 1.253 . S
O547 Tb544 2.338 . S
O547 C548 1.258 . S
C548 O547 1.258 . S
C548 O549 1.251 . S
O549 C548 1.251 . S
O550 Tb541 2.271 . S
O550 C542 1.252 . S
O551 C542 1.253 . S
O551 Tb544 2.312 . S
O552 Tb541 2.338 . S
O552 C557 1.258 . S
C553 O543 1.252 . S
C553 O546 1.253 . S
C554 O540 1.265 1_455 S
C554 O559 1.244 . S
O555 Tb544 2.441 . S
O555 C545 1.244 . S
O556 Tb544 2.506 . S
O556 C545 1.265 . S
C557 O552 1.258 . S
C557 O558 1.251 . S
O558 C557 1.251 . S
O559 Tb541 2.441 . S
O559 C554 1.244 . S
O560 Tb561 2.506 . S
O560 C574 1.265 . S
Tb561 O560 2.506 . S
Tb561 O566 2.312 . S
Tb561 O570 2.271 . S
Tb561 O572 2.338 . S
Tb561 O579 2.441 . S
C562 O570 1.252 . S
C562 O571 1.253 . S
O563 Tb564 2.271 . S
O563 C573 1.252 . S
Tb564 O563 2.271 . S
Tb564 O567 2.338 . S
Tb564 O571 2.312 . S
Tb564 O575 2.441 . S
Tb564 O576 2.506 . S
C565 O575 1.244 . S
C565 O576 1.265 . S
O566 Tb561 2.312 . S
O566 C573 1.253 . S
O567 Tb564 2.338 . S
O567 C568 1.258 . S
C568 O567 1.258 . S
C568 O569 1.251 . S
O569 C568 1.251 . S
O570 Tb561 2.271 . S
O570 C562 1.252 . S
O571 C562 1.253 . S
O571 Tb564 2.312 . S
O572 Tb561 2.338 . S
O572 C577 1.258 . S
C573 O563 1.252 . S
C573 O566 1.253 . S
C574 O560 1.265 . S
C574 O579 1.244 . S
O575 Tb564 2.441 . S
O575 C565 1.244 . S
O576 Tb564 2.506 . S
O576 C565 1.265 . S
C577 O572 1.258 . S
C577 O578 1.251 . S
O578 C577 1.251 . S
O579 Tb561 2.441 . S
O579 C574 1.244 . S
O580 Tb581 2.506 . S
O580 C594 1.265 . S
Tb581 O580 2.506 . S
Tb581 O586 2.312 . S
Tb581 O590 2.271 . S
Tb581 O592 2.338 . S
Tb581 O599 2.441 . S
C582 O590 1.252 . S
C582 O591 1.253 . S
O583 Tb584 2.271 . S
O583 C593 1.252 . S
Tb584 O583 2.271 . S
Tb584 O587 2.338 . S
Tb584 O591 2.312 . S
Tb584 O595 2.441 . S
Tb584 O596 2.506 . S
C585 O595 1.244 . S
C585 O596 1.265 . S
O586 Tb581 2.312 . S
O586 C593 1.253 . S
O587 Tb584 2.338 . S
O587 C588 1.258 . S
C588 O587 1.258 . S
C588 O589 1.251 . S
O589 C588 1.251 . S
O590 Tb581 2.271 . S
O590 C582 1.252 . S
O591 C582 1.253 . S
O591 Tb584 2.312 . S
O592 Tb581 2.338 . S
O592 C597 1.258 . S
C593 O583 1.252 . S
C593 O586 1.253 . S
C594 O580 1.265 . S
C594 O599 1.244 . S
O595 Tb584 2.441 . S
O595 C585 1.244 . S
O596 Tb584 2.506 . S
O596 C585 1.265 . S
C597 O592 1.258 . S
C597 O598 1.251 . S
O598 C597 1.251 . S
O599 Tb581 2.441 . S
O599 C594 1.244 . S
O600 Tb601 2.506 . S
O600 C614 1.265 . S
Tb601 O600 2.506 . S
Tb601 O606 2.312 . S
Tb601 O610 2.271 . S
Tb601 O612 2.338 . S
Tb601 O619 2.441 . S
C602 O610 1.252 . S
C602 O611 1.253 . S
O603 Tb604 2.271 . S
O603 C613 1.252 . S
Tb604 O603 2.271 . S
Tb604 O607 2.338 . S
Tb604 O611 2.312 . S
Tb604 O615 2.441 . S
Tb604 O616 2.506 . S
C605 O615 1.244 . S
C605 O616 1.265 . S
O606 Tb601 2.312 . S
O606 C613 1.253 . S
O607 Tb604 2.338 . S
O607 C608 1.258 . S
C608 O607 1.258 . S
C608 O609 1.251 . S
O609 C608 1.251 . S
O610 Tb601 2.271 . S
O610 C602 1.252 . S
O611 C602 1.253 . S
O611 Tb604 2.312 . S
O612 Tb601 2.338 . S
O612 C617 1.258 . S
C613 O603 1.252 . S
C613 O606 1.253 . S
C614 O600 1.265 . S
C614 O619 1.244 . S
O615 Tb604 2.441 . S
O615 C605 1.244 . S
O616 Tb604 2.506 . S
O616 C605 1.265 . S
C617 O612 1.258 . S
C617 O618 1.251 . S
O618 C617 1.251 . S
O619 Tb601 2.441 . S
O619 C614 1.244 . S
O620 Tb621 2.506 . S
O620 C634 1.265 . S
Tb621 O620 2.506 . S
Tb621 O626 2.312 . S
Tb621 O630 2.271 . S
Tb621 O632 2.338 . S
Tb621 O639 2.441 . S
C622 O630 1.252 . S
C622 O631 1.253 . S
O623 Tb624 2.271 . S
O623 C633 1.252 . S
Tb624 O623 2.271 . S
Tb624 O627 2.338 . S
Tb624 O631 2.312 . S
Tb624 O635 2.441 . S
Tb624 O636 2.506 . S
C625 O635 1.244 . S
C625 O636 1.265 . S
O626 Tb621 2.312 . S
O626 C633 1.253 . S
O627 Tb624 2.338 . S
O627 C628 1.258 . S
C628 O627 1.258 . S
C628 O629 1.251 . S
O629 C628 1.251 . S
O630 Tb621 2.271 . S
O630 C622 1.252 . S
O631 C622 1.253 . S
O631 Tb624 2.312 . S
O632 Tb621 2.338 . S
O632 C637 1.258 . S
C633 O623 1.252 . S
C633 O626 1.253 . S
C634 O620 1.265 . S
C634 O639 1.244 . S
O635 Tb624 2.441 . S
O635 C625 1.244 . S
O636 Tb624 2.506 . S
O636 C625 1.265 . S
C637 O632 1.258 . S
C637 O638 1.251 . S
O638 C637 1.251 . S
O639 Tb621 2.441 . S
O639 C634 1.244 . S
O640 Tb641 2.506 . S
O640 C654 1.265 . S
Tb641 O640 2.506 . S
Tb641 O646 2.312 . S
Tb641 O650 2.271 . S
Tb641 O652 2.338 . S
Tb641 O659 2.441 . S
C642 O650 1.252 . S
C642 O651 1.253 . S
O643 Tb644 2.271 . S
O643 C653 1.252 . S
Tb644 O643 2.271 . S
Tb644 O647 2.338 . S
Tb644 O651 2.312 . S
Tb644 O655 2.441 . S
Tb644 O656 2.506 . S
C645 O655 1.244 . S
C645 O656 1.265 . S
O646 Tb641 2.312 . S
O646 C653 1.253 . S
O647 Tb644 2.338 . S
O647 C648 1.258 . S
C648 O647 1.258 . S
C648 O649 1.251 . S
O649 C648 1.251 . S
O650 Tb641 2.271 . S
O650 C642 1.252 . S
O651 C642 1.253 . S
O651 Tb644 2.312 . S
O652 Tb641 2.338 . S
O652 C657 1.258 . S
C653 O643 1.252 . S
C653 O646 1.253 . S
C654 O640 1.265 . S
C654 O659 1.244 . S
O655 Tb644 2.441 . S
O655 C645 1.244 . S
O656 Tb644 2.506 . S
O656 C645 1.265 . S
C657 O652 1.258 . S
C657 O658 1.251 . S
O658 C657 1.251 . S
O659 Tb641 2.441 . S
O659 C654 1.244 . S
O660 Tb661 2.506 . S
O660 C674 1.268 1_565 S
Tb661 O660 2.506 . S
Tb661 O666 2.312 . S
Tb661 O670 2.271 . S
Tb661 O672 2.338 . S
Tb661 O679 2.441 1_565 S
C662 O670 1.270 . S
C662 O671 1.266 . S
O663 Tb664 2.271 . S
O663 C673 1.252 . S
Tb664 O663 2.271 . S
Tb664 O667 2.338 . S
Tb664 O671 2.312 . S
Tb664 O675 2.441 . S
Tb664 O676 2.506 . S
C665 O675 1.244 . S
C665 O676 1.265 . S
O666 Tb661 2.312 . S
O666 C673 1.253 . S
O667 Tb664 2.338 . S
O667 C668 1.258 . S
C668 O667 1.258 . S
C668 O669 1.251 . S
O669 C668 1.251 . S
O670 Tb661 2.271 . S
O670 C662 1.270 . S
O671 C662 1.266 . S
O671 Tb664 2.312 . S
O672 Tb661 2.338 . S
O672 C677 1.258 . S
C673 O663 1.252 . S
C673 O666 1.253 . S
C674 O660 1.268 1_545 S
C674 O679 1.243 . S
O675 Tb664 2.441 . S
O675 C665 1.244 . S
O676 Tb664 2.506 . S
O676 C665 1.265 . S
C677 O672 1.258 . S
C677 O678 1.251 . S
O678 C677 1.251 . S
O679 Tb661 2.441 1_545 S
O679 C674 1.243 . S
O680 Tb681 2.506 . S
O680 C694 1.265 . S
Tb681 O680 2.506 . S
Tb681 O686 2.312 . S
Tb681 O690 2.271 . S
Tb681 O692 2.338 . S
Tb681 O699 2.441 . S
C682 O690 1.252 . S
C682 O691 1.253 . S
O683 Tb684 2.271 . S
O683 C693 1.252 . S
Tb684 O683 2.271 . S
Tb684 O687 2.338 . S
Tb684 O691 2.312 . S
Tb684 O695 2.441 . S
Tb684 O696 2.506 . S
C685 O695 1.244 . S
C685 O696 1.265 . S
O686 Tb681 2.312 . S
O686 C693 1.253 . S
O687 Tb684 2.338 . S
O687 C688 1.258 . S
C688 O687 1.258 . S
C688 O689 1.251 . S
O689 C688 1.251 . S
O690 Tb681 2.271 . S
O690 C682 1.252 . S
O691 C682 1.253 . S
O691 Tb684 2.312 . S
O692 Tb681 2.338 . S
O692 C697 1.258 . S
C693 O683 1.252 . S
C693 O686 1.253 . S
C694 O680 1.265 . S
C694 O699 1.244 . S
O695 Tb684 2.441 . S
O695 C685 1.244 . S
O696 Tb684 2.506 . S
O696 C685 1.265 . S
C697 O692 1.258 . S
C697 O698 1.251 . S
O698 C697 1.251 . S
O699 Tb681 2.441 . S
O699 C694 1.244 . S
O700 Tb701 2.506 . S
O700 C714 1.265 . S
Tb701 O700 2.506 . S
Tb701 O706 2.312 . S
Tb701 O710 2.271 . S
Tb701 O712 2.338 . S
Tb701 O719 2.441 . S
C702 O710 1.252 . S
C702 O711 1.253 . S
O703 Tb704 2.271 . S
O703 C713 1.252 . S
Tb704 O703 2.271 . S
Tb704 O707 2.338 . S
Tb704 O711 2.312 . S
Tb704 O715 2.441 . S
Tb704 O716 2.506 . S
C705 O715 1.244 . S
C705 O716 1.265 . S
O706 Tb701 2.312 . S
O706 C713 1.253 . S
O707 Tb704 2.338 . S
O707 C708 1.258 . S
C708 O707 1.258 . S
C708 O709 1.251 . S
O709 C708 1.251 . S
O710 Tb701 2.271 . S
O710 C702 1.252 . S
O711 C702 1.253 . S
O711 Tb704 2.312 . S
O712 Tb701 2.338 . S
O712 C717 1.258 . S
C713 O703 1.252 . S
C713 O706 1.253 . S
C714 O700 1.265 . S
C714 O719 1.244 . S
O715 Tb704 2.441 . S
O715 C705 1.244 . S
O716 Tb704 2.506 . S
O716 C705 1.265 . S
C717 O712 1.258 . S
C717 O718 1.251 . S
O718 C717 1.251 . S
O719 Tb701 2.441 . S
O719 C714 1.244 . S
O720 Tb721 2.506 . S
O720 C734 1.265 . S
Tb721 O720 2.506 . S
Tb721 O726 2.312 . S
Tb721 O730 2.271 . S
Tb721 O732 2.338 . S
Tb721 O739 2.441 . S
C722 O730 1.252 . S
C722 O731 1.253 . S
O723 Tb724 2.271 . S
O723 C733 1.252 . S
Tb724 O723 2.271 . S
Tb724 O727 2.338 . S
Tb724 O731 2.312 . S
Tb724 O735 2.441 . S
Tb724 O736 2.506 . S
C725 O735 1.244 . S
C725 O736 1.265 . S
O726 Tb721 2.312 . S
O726 C733 1.253 . S
O727 Tb724 2.338 . S
O727 C728 1.258 . S
C728 O727 1.258 . S
C728 O729 1.251 . S
O729 C728 1.251 . S
O730 Tb721 2.271 . S
O730 C722 1.252 . S
O731 C722 1.253 . S
O731 Tb724 2.312 . S
O732 Tb721 2.338 . S
O732 C737 1.258 . S
C733 O723 1.252 . S
C733 O726 1.253 . S
C734 O720 1.265 . S
C734 O739 1.244 . S
O735 Tb724 2.441 . S
O735 C725 1.244 . S
O736 Tb724 2.506 . S
O736 C725 1.265 . S
C737 O732 1.258 . S
C737 O738 1.251 . S
O738 C737 1.251 . S
O739 Tb721 2.441 . S
O739 C734 1.244 . S
O740 Tb741 2.506 . S
O740 C754 1.268 1_565 S
Tb741 O740 2.506 . S
Tb741 O746 2.312 . S
Tb741 O750 2.271 . S
Tb741 O752 2.338 . S
Tb741 O759 2.441 1_565 S
C742 O750 1.270 . S
C742 O751 1.266 . S
O743 Tb744 2.271 . S
O743 C753 1.252 . S
Tb744 O743 2.271 . S
Tb744 O747 2.338 . S
Tb744 O751 2.312 . S
Tb744 O755 2.441 . S
Tb744 O756 2.506 . S
C745 O755 1.244 . S
C745 O756 1.265 . S
O746 Tb741 2.312 . S
O746 C753 1.253 . S
O747 Tb744 2.338 . S
O747 C748 1.258 . S
C748 O747 1.258 . S
C748 O749 1.251 . S
O749 C748 1.251 . S
O750 Tb741 2.271 . S
O750 C742 1.270 . S
O751 C742 1.266 . S
O751 Tb744 2.312 . S
O752 Tb741 2.338 . S
O752 C757 1.258 . S
C753 O743 1.252 . S
C753 O746 1.253 . S
C754 O740 1.268 1_545 S
C754 O759 1.243 . S
O755 Tb744 2.441 . S
O755 C745 1.244 . S
O756 Tb744 2.506 . S
O756 C745 1.265 . S
C757 O752 1.258 . S
C757 O758 1.251 . S
O758 C757 1.251 . S
O759 Tb741 2.441 1_545 S
O759 C754 1.243 . S
O760 Tb761 2.506 . S
O760 C774 1.265 . S
Tb761 O760 2.506 . S
Tb761 O766 2.312 . S
Tb761 O770 2.271 . S
Tb761 O772 2.338 . S
Tb761 O779 2.441 . S
C762 O770 1.252 . S
C762 O771 1.253 . S
O763 Tb764 2.271 . S
O763 C773 1.252 . S
Tb764 O763 2.271 . S
Tb764 O767 2.338 . S
Tb764 O771 2.312 . S
Tb764 O775 2.441 . S
Tb764 O776 2.506 . S
C765 O775 1.244 . S
C765 O776 1.265 . S
O766 Tb761 2.312 . S
O766 C773 1.253 . S
O767 Tb764 2.338 . S
O767 C768 1.258 . S
C768 O767 1.258 . S
C768 O769 1.251 . S
O769 C768 1.251 . S
O770 Tb761 2.271 . S
O770 C762 1.252 . S
O771 C762 1.253 . S
O771 Tb764 2.312 . S
O772 Tb761 2.338 . S
O772 C777 1.258 . S
C773 O763 1.252 . S
C773 O766 1.253 . S
C774 O760 1.265 . S
C774 O779 1.244 . S
O775 Tb764 2.441 . S
O775 C765 1.244 . S
O776 Tb764 2.506 . S
O776 C765 1.265 . S
C777 O772 1.258 . S
C777 O778 1.251 . S
O778 C777 1.251 . S
O779 Tb761 2.441 . S
O779 C774 1.244 . S
O780 Tb781 2.506 . S
O780 C794 1.265 . S
Tb781 O780 2.506 . S
Tb781 O786 2.312 . S
Tb781 O790 2.271 . S
Tb781 O792 2.338 . S
Tb781 O799 2.441 . S
C782 O790 1.252 . S
C782 O791 1.253 . S
O783 Tb784 2.271 . S
O783 C793 1.252 . S
Tb784 O783 2.271 . S
Tb784 O787 2.338 . S
Tb784 O791 2.312 . S
Tb784 O795 2.441 . S
Tb784 O796 2.506 . S
C785 O795 1.244 . S
C785 O796 1.265 . S
O786 Tb781 2.312 . S
O786 C793 1.253 . S
O787 Tb784 2.338 . S
O787 C788 1.258 . S
C788 O787 1.258 . S
C788 O789 1.251 . S
O789 C788 1.251 . S
O790 Tb781 2.271 . S
O790 C782 1.252 . S
O791 C782 1.253 . S
O791 Tb784 2.312 . S
O792 Tb781 2.338 . S
O792 C797 1.258 . S
C793 O783 1.252 . S
C793 O786 1.253 . S
C794 O780 1.265 . S
C794 O799 1.244 . S
O795 Tb784 2.441 . S
O795 C785 1.244 . S
O796 Tb784 2.506 . S
O796 C785 1.265 . S
C797 O792 1.258 . S
C797 O798 1.251 . S
O798 C797 1.251 . S
O799 Tb781 2.441 . S
O799 C794 1.244 . S
O800 Tb801 2.506 . S
O800 C814 1.265 . S
Tb801 O800 2.506 . S
Tb801 O806 2.312 . S
Tb801 O810 2.271 . S
Tb801 O812 2.338 . S
Tb801 O819 2.441 . S
C802 O810 1.252 . S
C802 O811 1.253 . S
O803 Tb804 2.271 . S
O803 C813 1.252 . S
Tb804 O803 2.271 . S
Tb804 O807 2.338 . S
Tb804 O811 2.312 . S
Tb804 O815 2.441 . S
Tb804 O816 2.506 . S
C805 O815 1.244 . S
C805 O816 1.265 . S
O806 Tb801 2.312 . S
O806 C813 1.253 . S
O807 Tb804 2.338 . S
O807 C808 1.258 . S
C808 O807 1.258 . S
C808 O809 1.251 . S
O809 C808 1.251 . S
O810 Tb801 2.271 . S
O810 C802 1.252 . S
O811 C802 1.253 . S
O811 Tb804 2.312 . S
O812 Tb801 2.338 . S
O812 C817 1.258 . S
C813 O803 1.252 . S
C813 O806 1.253 . S
C814 O800 1.265 . S
C814 O819 1.244 . S
O815 Tb804 2.441 . S
O815 C805 1.244 . S
O816 Tb804 2.506 . S
O816 C805 1.265 . S
C817 O812 1.258 . S
C817 O818 1.251 . S
O818 C817 1.251 . S
O819 Tb801 2.441 . S
O819 C814 1.244 . S
O820 Tb821 2.506 . S
O820 C834 1.265 . S
Tb821 O820 2.506 . S
Tb821 O826 2.312 . S
Tb821 O830 2.271 . S
Tb821 O832 2.338 . S
Tb821 O839 2.441 . S
C822 O830 1.252 . S
C822 O831 1.253 . S
O823 Tb824 2.271 . S
O823 C833 1.252 . S
Tb824 O823 2.271 . S
Tb824 O827 2.338 . S
Tb824 O831 2.312 . S
Tb824 O835 2.441 . S
Tb824 O836 2.506 . S
C825 O835 1.244 . S
C825 O836 1.265 . S
O826 Tb821 2.312 . S
O826 C833 1.253 . S
O827 Tb824 2.338 . S
O827 C828 1.258 . S
C828 O827 1.258 . S
C828 O829 1.251 . S
O829 C828 1.251 . S
O830 Tb821 2.271 . S
O830 C822 1.252 . S
O831 C822 1.253 . S
O831 Tb824 2.312 . S
O832 Tb821 2.338 . S
O832 C837 1.258 . S
C833 O823 1.252 . S
C833 O826 1.253 . S
C834 O820 1.265 . S
C834 O839 1.244 . S
O835 Tb824 2.441 . S
O835 C825 1.244 . S
O836 Tb824 2.506 . S
O836 C825 1.265 . S
C837 O832 1.258 . S
C837 O838 1.251 . S
O838 C837 1.251 . S
O839 Tb821 2.441 . S
O839 C834 1.244 . S
O840 Tb841 2.506 . S
O840 C854 1.265 . S
Tb841 O840 2.506 . S
Tb841 O846 2.312 . S
Tb841 O850 2.271 . S
Tb841 O852 2.338 . S
Tb841 O859 2.441 . S
C842 O850 1.252 . S
C842 O851 1.253 . S
O843 Tb844 2.271 . S
O843 C853 1.252 . S
Tb844 O843 2.271 . S
Tb844 O847 2.338 . S
Tb844 O851 2.312 . S
Tb844 O855 2.441 . S
Tb844 O856 2.506 1_545 S
C845 O855 1.244 . S
C845 O856 1.265 1_545 S
O846 Tb841 2.312 . S
O846 C853 1.253 . S
O847 Tb844 2.338 . S
O847 C848 1.258 . S
C848 O847 1.258 . S
C848 O849 1.251 . S
O849 C848 1.251 . S
O850 Tb841 2.271 . S
O850 C842 1.252 . S
O851 C842 1.253 . S
O851 Tb844 2.312 . S
O852 Tb841 2.338 . S
O852 C857 1.258 . S
C853 O843 1.252 . S
C853 O846 1.253 . S
C854 O840 1.265 . S
C854 O859 1.244 . S
O855 Tb844 2.441 . S
O855 C845 1.244 . S
O856 Tb844 2.506 1_565 S
O856 C845 1.265 1_565 S
C857 O852 1.258 . S
C857 O858 1.251 . S
O858 C857 1.251 . S
O859 Tb841 2.441 . S
O859 C854 1.244 . S
O860 Tb861 2.506 . S
O860 C874 1.265 . S
Tb861 O860 2.506 . S
Tb861 O866 2.312 . S
Tb861 O870 2.271 . S
Tb861 O872 2.338 . S
Tb861 O879 2.441 . S
C862 O870 1.252 . S
C862 O871 1.253 . S
O863 Tb864 2.271 . S
O863 C873 1.252 . S
Tb864 O863 2.271 . S
Tb864 O867 2.338 . S
Tb864 O871 2.312 . S
Tb864 O875 2.441 . S
Tb864 O876 2.506 . S
C865 O875 1.244 . S
C865 O876 1.265 . S
O866 Tb861 2.312 . S
O866 C873 1.253 . S
O867 Tb864 2.338 . S
O867 C868 1.258 . S
C868 O867 1.258 . S
C868 O869 1.251 . S
O869 C868 1.251 . S
O870 Tb861 2.271 . S
O870 C862 1.252 . S
O871 C862 1.253 . S
O871 Tb864 2.312 . S
O872 Tb861 2.338 . S
O872 C877 1.258 . S
C873 O863 1.252 . S
C873 O866 1.253 . S
C874 O860 1.265 . S
C874 O879 1.244 . S
O875 Tb864 2.441 . S
O875 C865 1.244 . S
O876 Tb864 2.506 . S
O876 C865 1.265 . S
C877 O872 1.258 . S
C877 O878 1.251 . S
O878 C877 1.251 . S
O879 Tb861 2.441 . S
O879 C874 1.244 . S
O880 Tb881 2.506 . S
O880 C894 1.268 1_455 S
Tb881 O880 2.506 . S
Tb881 O886 2.312 . S
Tb881 O890 2.271 . S
Tb881 O892 2.338 . S
Tb881 O899 2.441 1_455 S
C882 O890 1.270 . S
C882 O891 1.266 . S
O883 Tb884 2.271 . S
O883 C893 1.252 . S
Tb884 O883 2.271 . S
Tb884 O887 2.338 . S
Tb884 O891 2.312 . S
Tb884 O895 2.441 . S
Tb884 O896 2.506 1_565 S
C885 O895 1.244 . S
C885 O896 1.265 1_565 S
O886 Tb881 2.312 . S
O886 C893 1.253 . S
O887 Tb884 2.338 . S
O887 C888 1.258 . S
C888 O887 1.258 . S
C888 O889 1.251 . S
O889 C888 1.251 . S
O890 Tb881 2.271 . S
O890 C882 1.270 . S
O891 C882 1.266 . S
O891 Tb884 2.312 . S
O892 Tb881 2.338 . S
O892 C897 1.258 . S
C893 O883 1.252 . S
C893 O886 1.253 . S
C894 O880 1.268 1_655 S
C894 O899 1.243 . S
O895 Tb884 2.441 . S
O895 C885 1.244 . S
O896 Tb884 2.506 1_545 S
O896 C885 1.265 1_545 S
C897 O892 1.258 . S
C897 O898 1.251 . S
O898 C897 1.251 . S
O899 Tb881 2.441 1_655 S
O899 C894 1.243 . S
O900 Tb901 2.506 . S
O900 C914 1.265 . S
Tb901 O900 2.506 . S
Tb901 O906 2.312 . S
Tb901 O910 2.271 . S
Tb901 O912 2.338 . S
Tb901 O919 2.441 . S
C902 O910 1.252 . S
C902 O911 1.253 . S
O903 Tb904 2.271 . S
O903 C913 1.252 . S
Tb904 O903 2.271 . S
Tb904 O907 2.338 . S
Tb904 O911 2.312 . S
Tb904 O915 2.441 . S
Tb904 O916 2.506 . S
C905 O915 1.244 . S
C905 O916 1.265 . S
O906 Tb901 2.312 . S
O906 C913 1.253 . S
O907 Tb904 2.338 . S
O907 C908 1.258 . S
C908 O907 1.258 . S
C908 O909 1.251 . S
O909 C908 1.251 . S
O910 Tb901 2.271 . S
O910 C902 1.252 . S
O911 C902 1.253 . S
O911 Tb904 2.312 . S
O912 Tb901 2.338 . S
O912 C917 1.258 . S
C913 O903 1.252 . S
C913 O906 1.253 . S
C914 O900 1.265 . S
C914 O919 1.244 . S
O915 Tb904 2.441 . S
O915 C905 1.244 . S
O916 Tb904 2.506 . S
O916 C905 1.265 . S
C917 O912 1.258 . S
C917 O918 1.251 . S
O918 C917 1.251 . S
O919 Tb901 2.441 . S
O919 C914 1.244 . S
O920 Tb921 2.506 . S
O920 C934 1.265 . S
Tb921 O920 2.506 . S
Tb921 O926 2.312 . S
Tb921 O930 2.271 . S
Tb921 O932 2.338 . S
Tb921 O939 2.441 . S
C922 O930 1.252 . S
C922 O931 1.253 . S
O923 Tb924 2.271 . S
O923 C933 1.252 . S
Tb924 O923 2.271 . S
Tb924 O927 2.338 . S
Tb924 O931 2.312 . S
Tb924 O935 2.441 . S
Tb924 O936 2.506 1_565 S
C925 O935 1.244 . S
C925 O936 1.265 1_565 S
O926 Tb921 2.312 . S
O926 C933 1.253 . S
O927 Tb924 2.338 . S
O927 C928 1.258 . S
C928 O927 1.258 . S
C928 O929 1.251 . S
O929 C928 1.251 . S
O930 Tb921 2.271 . S
O930 C922 1.252 . S
O931 C922 1.253 . S
O931 Tb924 2.312 . S
O932 Tb921 2.338 . S
O932 C937 1.258 . S
C933 O923 1.252 . S
C933 O926 1.253 . S
C934 O920 1.265 . S
C934 O939 1.244 . S
O935 Tb924 2.441 . S
O935 C925 1.244 . S
O936 Tb924 2.506 1_545 S
O936 C925 1.265 1_545 S
C937 O932 1.258 . S
C937 O938 1.251 . S
O938 C937 1.251 . S
O939 Tb921 2.441 . S
O939 C934 1.244 . S
O940 Tb941 2.506 . S
O940 C954 1.265 . S
Tb941 O940 2.506 . S
Tb941 O946 2.312 . S
Tb941 O950 2.271 . S
Tb941 O952 2.338 . S
Tb941 O959 2.441 . S
C942 O950 1.252 . S
C942 O951 1.253 . S
O943 Tb944 2.271 . S
O943 C953 1.252 . S
Tb944 O943 2.271 . S
Tb944 O947 2.338 . S
Tb944 O951 2.312 . S
Tb944 O955 2.441 . S
Tb944 O956 2.506 . S
C945 O955 1.244 . S
C945 O956 1.265 . S
O946 Tb941 2.312 . S
O946 C953 1.253 . S
O947 Tb944 2.338 . S
O947 C948 1.258 . S
C948 O947 1.258 . S
C948 O949 1.251 . S
O949 C948 1.251 . S
O950 Tb941 2.271 . S
O950 C942 1.252 . S
O951 C942 1.253 . S
O951 Tb944 2.312 . S
O952 Tb941 2.338 . S
O952 C957 1.258 . S
C953 O943 1.252 . S
C953 O946 1.253 . S
C954 O940 1.265 . S
C954 O959 1.244 . S
O955 Tb944 2.441 . S
O955 C945 1.244 . S
O956 Tb944 2.506 . S
O956 C945 1.265 . S
C957 O952 1.258 . S
C957 O958 1.251 . S
O958 C957 1.251 . S
O959 Tb941 2.441 . S
O959 C954 1.244 . S
C960 C961 1.363 . S
C960 C966 1.379 1_455 S
C960 N968 1.356 . S
C961 C960 1.363 . S
C961 C967 1.363 . S
C962 C963 1.363 . S
C962 C967 1.379 1_655 S
C962 N969 1.356 . S
C963 C962 1.363 . S
C963 C966 1.363 . S
N964 C966 1.356 . S
N964 H976 0.984 . S
N964 H977 0.985 . S
N965 C967 1.356 . S
N965 H970 0.984 . S
N965 H971 0.985 . S
C966 C960 1.379 1_655 S
C966 C963 1.363 . S
C966 N964 1.356 . S
C967 C961 1.363 . S
C967 C962 1.379 1_455 S
C967 N965 1.356 . S
N968 C960 1.356 . S
N968 H974 0.984 . S
N968 H975 0.984 . S
N969 C962 1.356 . S
N969 H972 0.984 . S
N969 H973 0.985 . S
H970 N965 0.984 . S
H971 N965 0.985 . S
H972 N969 0.984 . S
H973 N969 0.985 . S
H974 N968 0.984 . S
H975 N968 0.984 . S
H976 N964 0.984 . S
H977 N964 0.985 . S
C978 C979 1.363 . S
C978 C984 1.379 . S
C978 N986 1.356 . S
C979 C978 1.363 . S
C979 C985 1.363 . S
C980 C981 1.363 . S
C980 C985 1.379 . S
C980 N987 1.356 . S
C981 C980 1.363 . S
C981 C984 1.363 . S
N982 C984 1.356 . S
N982 H994 0.984 . S
N982 H995 0.985 . S
N983 C985 1.356 . S
N983 H988 0.984 . S
N983 H989 0.985 . S
C984 C978 1.379 . S
C984 C981 1.363 . S
C984 N982 1.356 . S
C985 C979 1.363 . S
C985 C980 1.379 . S
C985 N983 1.356 . S
N986 C978 1.356 . S
N986 H992 0.984 . S
N986 H993 0.984 . S
N987 C980 1.356 . S
N987 H990 0.984 . S
N987 H991 0.985 . S
H988 N983 0.984 . S
H989 N983 0.985 . S
H990 N987 0.984 . S
H991 N987 0.985 . S
H992 N986 0.984 . S
H993 N986 0.984 . S
H994 N982 0.984 . S
H995 N982 0.985 . S
C996 C997 1.363 . S
C996 C1002 1.379 1_655 S
C996 N1004 1.356 . S
C997 C996 1.363 . S
C997 C1003 1.363 . S
C998 C999 1.363 . S
C998 C1003 1.379 1_455 S
C998 N1005 1.356 . S
C999 C998 1.363 . S
C999 C1002 1.363 . S
N1000 C1002 1.356 . S
N1000 H1012 0.984 . S
N1000 H1013 0.985 . S
N1001 C1003 1.356 . S
N1001 H1006 0.984 . S
N1001 H1007 0.985 . S
C1002 C996 1.379 1_455 S
C1002 C999 1.363 . S
C1002 N1000 1.356 . S
C1003 C997 1.363 . S
C1003 C998 1.379 1_655 S
C1003 N1001 1.356 . S
N1004 C996 1.356 . S
N1004 H1010 0.984 . S
N1004 H1011 0.984 . S
N1005 C998 1.356 . S
N1005 H1008 0.984 . S
N1005 H1009 0.985 . S
H1006 N1001 0.984 . S
H1007 N1001 0.985 . S
H1008 N1005 0.984 . S
H1009 N1005 0.985 . S
H1010 N1004 0.984 . S
H1011 N1004 0.984 . S
H1012 N1000 0.984 . S
H1013 N1000 0.985 . S
C1014 C1015 1.372 . S
C1014 C1020 1.379 . S
C1014 N1022 1.356 . S
C1015 C1014 1.372 . S
C1015 C1021 1.354 1_655 S
C1016 C1017 1.372 . S
C1016 C1021 1.379 . S
C1016 N1023 1.356 . S
C1017 C1016 1.372 . S
C1017 C1020 1.354 1_455 S
N1018 C1020 1.356 . S
N1018 H1030 0.984 . S
N1018 H1031 0.985 . S
N1019 C1021 1.356 . S
N1019 H1024 0.984 . S
N1019 H1025 0.985 . S
C1020 C1014 1.379 . S
C1020 C1017 1.354 1_655 S
C1020 N1018 1.356 . S
C1021 C1015 1.354 1_455 S
C1021 C1016 1.379 . S
C1021 N1019 1.356 . S
N1022 C1014 1.356 . S
N1022 H1028 0.984 . S
N1022 H1029 0.984 . S
N1023 C1016 1.356 . S
N1023 H1026 0.984 . S
N1023 H1027 0.985 . S
H1024 N1019 0.984 . S
H1025 N1019 0.985 . S
H1026 N1023 0.984 . S
H1027 N1023 0.985 . S
H1028 N1022 0.984 . S
H1029 N1022 0.984 . S
H1030 N1018 0.984 . S
H1031 N1018 0.985 . S
C1032 C1033 1.363 . S
C1032 C1038 1.379 1_565 S
C1032 N1040 1.356 . S
C1033 C1032 1.363 . S
C1033 C1039 1.363 . S
C1034 C1035 1.363 . S
C1034 C1039 1.379 1_545 S
C1034 N1041 1.356 . S
C1035 C1034 1.363 . S
C1035 C1038 1.363 . S
N1036 C1038 1.356 . S
N1036 H1048 0.984 . S
N1036 H1049 0.985 . S
N1037 C1039 1.356 . S
N1037 H1042 0.984 . S
N1037 H1043 0.985 . S
C1038 C1032 1.379 1_545 S
C1038 C1035 1.363 . S
C1038 N1036 1.356 . S
C1039 C1033 1.363 . S
C1039 C1034 1.379 1_565 S
C1039 N1037 1.356 . S
N1040 C1032 1.356 . S
N1040 H1046 0.984 . S
N1040 H1047 0.984 . S
N1041 C1034 1.356 . S
N1041 H1044 0.984 . S
N1041 H1045 0.985 . S
H1042 N1037 0.984 . S
H1043 N1037 0.985 . S
H1044 N1041 0.984 . S
H1045 N1041 0.985 . S
H1046 N1040 0.984 . S
H1047 N1040 0.984 . S
H1048 N1036 0.984 . S
H1049 N1036 0.985 . S
C1050 C1051 1.354 1_556 S
C1050 C1056 1.379 . S
C1050 N1058 1.356 . S
C1051 C1050 1.354 1_554 S
C1051 C1057 1.372 . S
C1052 C1053 1.354 1_554 S
C1052 C1057 1.379 . S
C1052 N1059 1.356 . S
C1053 C1052 1.354 1_556 S
C1053 C1056 1.372 . S
N1054 C1056 1.356 . S
N1054 H1066 0.984 . S
N1054 H1067 0.985 . S
N1055 C1057 1.356 . S
N1055 H1060 0.984 . S
N1055 H1061 0.985 . S
C1056 C1050 1.379 . S
C1056 C1053 1.372 . S
C1056 N1054 1.356 . S
C1057 C1051 1.372 . S
C1057 C1052 1.379 . S
C1057 N1055 1.356 . S
N1058 C1050 1.356 . S
N1058 H1064 0.984 . S
N1058 H1065 0.984 . S
N1059 C1052 1.356 . S
N1059 H1062 0.984 . S
N1059 H1063 0.985 . S
H1060 N1055 0.984 . S
H1061 N1055 0.985 . S
H1062 N1059 0.984 . S
H1063 N1059 0.985 . S
H1064 N1058 0.984 . S
H1065 N1058 0.984 . S
H1066 N1054 0.984 . S
H1067 N1054 0.985 . S
C1068 C1069 1.363 . S
C1068 C1074 1.379 . S
C1068 N1076 1.356 . S
C1069 C1068 1.363 . S
C1069 C1075 1.363 . S
C1070 C1071 1.363 . S
C1070 C1075 1.379 . S
C1070 N1077 1.356 . S
C1071 C1070 1.363 . S
C1071 C1074 1.363 . S
N1072 C1074 1.356 . S
N1072 H1084 0.984 . S
N1072 H1085 0.985 . S
N1073 C1075 1.356 . S
N1073 H1078 0.984 . S
N1073 H1079 0.985 . S
C1074 C1068 1.379 . S
C1074 C1071 1.363 . S
C1074 N1072 1.356 . S
C1075 C1069 1.363 . S
C1075 C1070 1.379 . S
C1075 N1073 1.356 . S
N1076 C1068 1.356 . S
N1076 H1082 0.984 . S
N1076 H1083 0.984 . S
N1077 C1070 1.356 . S
N1077 H1080 0.984 . S
N1077 H1081 0.985 . S
H1078 N1073 0.984 . S
H1079 N1073 0.985 . S
H1080 N1077 0.984 . S
H1081 N1077 0.985 . S
H1082 N1076 0.984 . S
H1083 N1076 0.984 . S
H1084 N1072 0.984 . S
H1085 N1072 0.985 . S
C1086 C1087 1.354 1_556 S
C1086 C1092 1.379 . S
C1086 N1094 1.356 . S
C1087 C1086 1.354 1_554 S
C1087 C1093 1.372 . S
C1088 C1089 1.354 1_554 S
C1088 C1093 1.379 . S
C1088 N1095 1.356 . S
C1089 C1088 1.354 1_556 S
C1089 C1092 1.372 . S
N1090 C1092 1.356 . S
N1090 H1102 0.984 . S
N1090 H1103 0.985 . S
N1091 C1093 1.356 . S
N1091 H1096 0.984 . S
N1091 H1097 0.985 . S
C1092 C1086 1.379 . S
C1092 C1089 1.372 . S
C1092 N1090 1.356 . S
C1093 C1087 1.372 . S
C1093 C1088 1.379 . S
C1093 N1091 1.356 . S
N1094 C1086 1.356 . S
N1094 H1100 0.984 . S
N1094 H1101 0.984 . S
N1095 C1088 1.356 . S
N1095 H1098 0.984 . S
N1095 H1099 0.985 . S
H1096 N1091 0.984 . S
H1097 N1091 0.985 . S
H1098 N1095 0.984 . S
H1099 N1095 0.985 . S
H1100 N1094 0.984 . S
H1101 N1094 0.984 . S
H1102 N1090 0.984 . S
H1103 N1090 0.985 . S
C1104 C1105 1.363 . S
C1104 C1110 1.379 1_554 S
C1104 N1112 1.356 . S
C1105 C1104 1.363 . S
C1105 C1111 1.363 . S
C1106 C1107 1.363 . S
C1106 C1111 1.379 1_556 S
C1106 N1113 1.356 . S
C1107 C1106 1.363 . S
C1107 C1110 1.363 . S
N1108 C1110 1.356 . S
N1108 H1120 0.984 . S
N1108 H1121 0.985 . S
N1109 C1111 1.356 . S
N1109 H1114 0.984 . S
N1109 H1115 0.985 . S
C1110 C1104 1.379 1_556 S
C1110 C1107 1.363 . S
C1110 N1108 1.356 . S
C1111 C1105 1.363 . S
C1111 C1106 1.379 1_554 S
C1111 N1109 1.356 . S
N1112 C1104 1.356 . S
N1112 H1118 0.984 . S
N1112 H1119 0.984 . S
N1113 C1106 1.356 . S
N1113 H1116 0.984 . S
N1113 H1117 0.985 . S
H1114 N1109 0.984 . S
H1115 N1109 0.985 . S
H1116 N1113 0.984 . S
H1117 N1113 0.985 . S
H1118 N1112 0.984 . S
H1119 N1112 0.984 . S
H1120 N1108 0.984 . S
H1121 N1108 0.985 . S
C1122 C1123 1.363 . S
C1122 C1128 1.379 . S
C1122 N1130 1.356 . S
C1123 C1122 1.363 . S
C1123 C1129 1.363 . S
C1124 C1125 1.363 . S
C1124 C1129 1.379 . S
C1124 N1131 1.356 . S
C1125 C1124 1.363 . S
C1125 C1128 1.363 . S
N1126 C1128 1.356 . S
N1126 H1138 0.984 . S
N1126 H1139 0.985 . S
N1127 C1129 1.356 . S
N1127 H1132 0.984 . S
N1127 H1133 0.985 . S
C1128 C1122 1.379 . S
C1128 C1125 1.363 . S
C1128 N1126 1.356 . S
C1129 C1123 1.363 . S
C1129 C1124 1.379 . S
C1129 N1127 1.356 . S
N1130 C1122 1.356 . S
N1130 H1136 0.984 . S
N1130 H1137 0.984 . S
N1131 C1124 1.356 . S
N1131 H1134 0.984 . S
N1131 H1135 0.985 . S
H1132 N1127 0.984 . S
H1133 N1127 0.985 . S
H1134 N1131 0.984 . S
H1135 N1131 0.985 . S
H1136 N1130 0.984 . S
H1137 N1130 0.984 . S
H1138 N1126 0.984 . S
H1139 N1126 0.985 . S
C1140 C1141 1.363 . S
C1140 C1146 1.379 . S
C1140 N1148 1.356 . S
C1141 C1140 1.363 . S
C1141 C1147 1.363 . S
C1142 C1143 1.363 . S
C1142 C1147 1.379 . S
C1142 N1149 1.356 . S
C1143 C1142 1.363 . S
C1143 C1146 1.363 . S
N1144 C1146 1.356 . S
N1144 H1156 0.984 . S
N1144 H1157 0.985 . S
N1145 C1147 1.356 . S
N1145 H1150 0.984 . S
N1145 H1151 0.985 . S
C1146 C1140 1.379 . S
C1146 C1143 1.363 . S
C1146 N1144 1.356 . S
C1147 C1141 1.363 . S
C1147 C1142 1.379 . S
C1147 N1145 1.356 . S
N1148 C1140 1.356 . S
N1148 H1154 0.984 . S
N1148 H1155 0.984 . S
N1149 C1142 1.356 . S
N1149 H1152 0.984 . S
N1149 H1153 0.985 . S
H1150 N1145 0.984 . S
H1151 N1145 0.985 . S
H1152 N1149 0.984 . S
H1153 N1149 0.985 . S
H1154 N1148 0.984 . S
H1155 N1148 0.984 . S
H1156 N1144 0.984 . S
H1157 N1144 0.985 . S
C1158 C1159 1.363 . S
C1158 C1164 1.379 . S
C1158 N1166 1.356 . S
C1159 C1158 1.363 . S
C1159 C1165 1.363 . S
C1160 C1161 1.363 . S
C1160 C1165 1.379 . S
C1160 N1167 1.356 . S
C1161 C1160 1.363 . S
C1161 C1164 1.363 . S
N1162 C1164 1.356 . S
N1162 H1174 0.984 . S
N1162 H1175 0.985 . S
N1163 C1165 1.356 . S
N1163 H1168 0.984 . S
N1163 H1169 0.985 . S
C1164 C1158 1.379 . S
C1164 C1161 1.363 . S
C1164 N1162 1.356 . S
C1165 C1159 1.363 . S
C1165 C1160 1.379 . S
C1165 N1163 1.356 . S
N1166 C1158 1.356 . S
N1166 H1172 0.984 . S
N1166 H1173 0.984 . S
N1167 C1160 1.356 . S
N1167 H1170 0.984 . S
N1167 H1171 0.985 . S
H1168 N1163 0.984 . S
H1169 N1163 0.985 . S
H1170 N1167 0.984 . S
H1171 N1167 0.985 . S
H1172 N1166 0.984 . S
H1173 N1166 0.984 . S
H1174 N1162 0.984 . S
H1175 N1162 0.985 . S
C1176 C1177 1.363 . S
C1176 C1182 1.379 . S
C1176 N1184 1.356 . S
C1177 C1176 1.363 . S
C1177 C1183 1.363 . S
C1178 C1179 1.363 . S
C1178 C1183 1.379 . S
C1178 N1185 1.356 . S
C1179 C1178 1.363 . S
C1179 C1182 1.363 . S
N1180 C1182 1.356 . S
N1180 H1192 0.984 . S
N1180 H1193 0.985 . S
N1181 C1183 1.356 . S
N1181 H1186 0.984 . S
N1181 H1187 0.985 . S
C1182 C1176 1.379 . S
C1182 C1179 1.363 . S
C1182 N1180 1.356 . S
C1183 C1177 1.363 . S
C1183 C1178 1.379 . S
C1183 N1181 1.356 . S
N1184 C1176 1.356 . S
N1184 H1190 0.984 . S
N1184 H1191 0.984 . S
N1185 C1178 1.356 . S
N1185 H1188 0.984 . S
N1185 H1189 0.985 . S
H1186 N1181 0.984 . S
H1187 N1181 0.985 . S
H1188 N1185 0.984 . S
H1189 N1185 0.985 . S
H1190 N1184 0.984 . S
H1191 N1184 0.984 . S
H1192 N1180 0.984 . S
H1193 N1180 0.985 . S
C1194 C1195 1.376 . S
C1194 C1200 1.379 . S
C1194 N1202 1.356 . S
C1195 C1194 1.376 . S
C1195 C1201 1.350 1_565 S
C1196 C1197 1.376 . S
C1196 C1201 1.379 . S
C1196 N1203 1.356 . S
C1197 C1196 1.376 . S
C1197 C1200 1.350 1_545 S
N1198 C1200 1.356 . S
N1198 H1210 0.984 . S
N1198 H1211 0.985 . S
N1199 C1201 1.356 . S
N1199 H1204 0.984 . S
N1199 H1205 0.985 . S
C1200 C1194 1.379 . S
C1200 C1197 1.350 1_565 S
C1200 N1198 1.356 . S
C1201 C1195 1.350 1_545 S
C1201 C1196 1.379 . S
C1201 N1199 1.356 . S
N1202 C1194 1.356 . S
N1202 H1208 0.984 . S
N1202 H1209 0.984 . S
N1203 C1196 1.356 . S
N1203 H1206 0.984 . S
N1203 H1207 0.985 . S
H1204 N1199 0.984 . S
H1205 N1199 0.985 . S
H1206 N1203 0.984 . S
H1207 N1203 0.985 . S
H1208 N1202 0.984 . S
H1209 N1202 0.984 . S
H1210 N1198 0.984 . S
H1211 N1198 0.985 . S
C1212 C1213 1.363 . S
C1212 C1218 1.379 . S
C1212 N1220 1.356 . S
C1213 C1212 1.363 . S
C1213 C1219 1.363 . S
C1214 C1215 1.363 . S
C1214 C1219 1.379 . S
C1214 N1221 1.356 . S
C1215 C1214 1.363 . S
C1215 C1218 1.363 . S
N1216 C1218 1.356 . S
N1216 H1228 0.984 . S
N1216 H1229 0.985 . S
N1217 C1219 1.356 . S
N1217 H1222 0.984 . S
N1217 H1223 0.985 . S
C1218 C1212 1.379 . S
C1218 C1215 1.363 . S
C1218 N1216 1.356 . S
C1219 C1213 1.363 . S
C1219 C1214 1.379 . S
C1219 N1217 1.356 . S
N1220 C1212 1.356 . S
N1220 H1226 0.984 . S
N1220 H1227 0.984 . S
N1221 C1214 1.356 . S
N1221 H1224 0.984 . S
N1221 H1225 0.985 . S
H1222 N1217 0.984 . S
H1223 N1217 0.985 . S
H1224 N1221 0.984 . S
H1225 N1221 0.985 . S
H1226 N1220 0.984 . S
H1227 N1220 0.984 . S
H1228 N1216 0.984 . S
H1229 N1216 0.985 . S
C1230 C1231 1.354 1_455 S
C1230 C1236 1.379 . S
C1230 N1238 1.356 . S
C1231 C1230 1.354 1_655 S
C1231 C1237 1.372 . S
C1232 C1233 1.354 1_655 S
C1232 C1237 1.379 . S
C1232 N1239 1.356 . S
C1233 C1232 1.354 1_455 S
C1233 C1236 1.372 . S
N1234 C1236 1.356 . S
N1234 H1246 0.984 . S
N1234 H1247 0.985 . S
N1235 C1237 1.356 . S
N1235 H1240 0.984 . S
N1235 H1241 0.985 . S
C1236 C1230 1.379 . S
C1236 C1233 1.372 . S
C1236 N1234 1.356 . S
C1237 C1231 1.372 . S
C1237 C1232 1.379 . S
C1237 N1235 1.356 . S
N1238 C1230 1.356 . S
N1238 H1244 0.984 . S
N1238 H1245 0.984 . S
N1239 C1232 1.356 . S
N1239 H1242 0.984 . S
N1239 H1243 0.985 . S
H1240 N1235 0.984 . S
H1241 N1235 0.985 . S
H1242 N1239 0.984 . S
H1243 N1239 0.985 . S
H1244 N1238 0.984 . S
H1245 N1238 0.984 . S
H1246 N1234 0.984 . S
H1247 N1234 0.985 . S
C1248 C1249 1.363 . S
C1248 C1254 1.379 . S
C1248 N1256 1.356 . S
C1249 C1248 1.363 . S
C1249 C1255 1.363 . S
C1250 C1251 1.363 . S
C1250 C1255 1.379 . S
C1250 N1257 1.356 . S
C1251 C1250 1.363 . S
C1251 C1254 1.363 . S
N1252 C1254 1.356 . S
N1252 H1264 0.984 . S
N1252 H1265 0.985 . S
N1253 C1255 1.356 . S
N1253 H1258 0.984 . S
N1253 H1259 0.985 . S
C1254 C1248 1.379 . S
C1254 C1251 1.363 . S
C1254 N1252 1.356 . S
C1255 C1249 1.363 . S
C1255 C1250 1.379 . S
C1255 N1253 1.356 . S
N1256 C1248 1.356 . S
N1256 H1262 0.984 . S
N1256 H1263 0.984 . S
N1257 C1250 1.356 . S
N1257 H1260 0.984 . S
N1257 H1261 0.985 . S
H1258 N1253 0.984 . S
H1259 N1253 0.985 . S
H1260 N1257 0.984 . S
H1261 N1257 0.985 . S
H1262 N1256 0.984 . S
H1263 N1256 0.984 . S
H1264 N1252 0.984 . S
H1265 N1252 0.985 . S
C1266 C1267 1.363 . S
C1266 C1272 1.379 . S
C1266 N1274 1.356 . S
C1267 C1266 1.363 . S
C1267 C1273 1.363 . S
C1268 C1269 1.363 . S
C1268 C1273 1.379 . S
C1268 N1275 1.356 . S
C1269 C1268 1.363 . S
C1269 C1272 1.363 . S
N1270 C1272 1.356 . S
N1270 H1282 0.984 . S
N1270 H1283 0.985 . S
N1271 C1273 1.356 . S
N1271 H1276 0.984 . S
N1271 H1277 0.985 . S
C1272 C1266 1.379 . S
C1272 C1269 1.363 . S
C1272 N1270 1.356 . S
C1273 C1267 1.363 . S
C1273 C1268 1.379 . S
C1273 N1271 1.356 . S
N1274 C1266 1.356 . S
N1274 H1280 0.984 . S
N1274 H1281 0.984 . S
N1275 C1268 1.356 . S
N1275 H1278 0.984 . S
N1275 H1279 0.985 . S
H1276 N1271 0.984 . S
H1277 N1271 0.985 . S
H1278 N1275 0.984 . S
H1279 N1275 0.985 . S
H1280 N1274 0.984 . S
H1281 N1274 0.984 . S
H1282 N1270 0.984 . S
H1283 N1270 0.985 . S
C1284 C1285 1.363 . S
C1284 C1290 1.379 . S
C1284 N1292 1.356 . S
C1285 C1284 1.363 . S
C1285 C1291 1.363 . S
C1286 C1287 1.363 . S
C1286 C1291 1.379 . S
C1286 N1293 1.356 . S
C1287 C1286 1.363 . S
C1287 C1290 1.363 . S
N1288 C1290 1.356 . S
N1288 H1300 0.984 . S
N1288 H1301 0.985 . S
N1289 C1291 1.356 . S
N1289 H1294 0.984 . S
N1289 H1295 0.985 . S
C1290 C1284 1.379 . S
C1290 C1287 1.363 . S
C1290 N1288 1.356 . S
C1291 C1285 1.363 . S
C1291 C1286 1.379 . S
C1291 N1289 1.356 . S
N1292 C1284 1.356 . S
N1292 H1298 0.984 . S
N1292 H1299 0.984 . S
N1293 C1286 1.356 . S
N1293 H1296 0.984 . S
N1293 H1297 0.985 . S
H1294 N1289 0.984 . S
H1295 N1289 0.985 . S
H1296 N1293 0.984 . S
H1297 N1293 0.985 . S
H1298 N1292 0.984 . S
H1299 N1292 0.984 . S
H1300 N1288 0.984 . S
H1301 N1288 0.985 . S
C1302 C1303 1.363 . S
C1302 C1308 1.379 . S
C1302 N1310 1.356 . S
C1303 C1302 1.363 . S
C1303 C1309 1.363 . S
C1304 C1305 1.363 . S
C1304 C1309 1.379 . S
C1304 N1311 1.356 . S
C1305 C1304 1.363 . S
C1305 C1308 1.363 . S
N1306 C1308 1.356 . S
N1306 H1318 0.984 . S
N1306 H1319 0.985 . S
N1307 C1309 1.356 . S
N1307 H1312 0.984 . S
N1307 H1313 0.985 . S
C1308 C1302 1.379 . S
C1308 C1305 1.363 . S
C1308 N1306 1.356 . S
C1309 C1303 1.363 . S
C1309 C1304 1.379 . S
C1309 N1307 1.356 . S
N1310 C1302 1.356 . S
N1310 H1316 0.984 . S
N1310 H1317 0.984 . S
N1311 C1304 1.356 . S
N1311 H1314 0.984 . S
N1311 H1315 0.985 . S
H1312 N1307 0.984 . S
H1313 N1307 0.985 . S
H1314 N1311 0.984 . S
H1315 N1311 0.985 . S
H1316 N1310 0.984 . S
H1317 N1310 0.984 . S
H1318 N1306 0.984 . S
H1319 N1306 0.985 . S
C1320 C1321 1.363 . S
C1320 C1326 1.379 1_565 S
C1320 N1328 1.356 . S
C1321 C1320 1.363 . S
C1321 C1327 1.363 . S
C1322 C1323 1.363 . S
C1322 C1327 1.379 1_545 S
C1322 N1329 1.356 . S
C1323 C1322 1.363 . S
C1323 C1326 1.363 . S
N1324 C1326 1.356 . S
N1324 H1336 0.984 . S
N1324 H1337 0.985 . S
N1325 C1327 1.356 . S
N1325 H1330 0.984 . S
N1325 H1331 0.985 . S
C1326 C1320 1.379 1_545 S
C1326 C1323 1.363 . S
C1326 N1324 1.356 . S
C1327 C1321 1.363 . S
C1327 C1322 1.379 1_565 S
C1327 N1325 1.356 . S
N1328 C1320 1.356 . S
N1328 H1334 0.984 . S
N1328 H1335 0.984 . S
N1329 C1322 1.356 . S
N1329 H1332 0.984 . S
N1329 H1333 0.985 . S
H1330 N1325 0.984 . S
H1331 N1325 0.985 . S
H1332 N1329 0.984 . S
H1333 N1329 0.985 . S
H1334 N1328 0.984 . S
H1335 N1328 0.984 . S
H1336 N1324 0.984 . S
H1337 N1324 0.985 . S
C1338 C1339 1.363 . S
C1338 C1344 1.379 . S
C1338 N1346 1.356 . S
C1339 C1338 1.363 . S
C1339 C1345 1.363 . S
C1340 C1341 1.363 . S
C1340 C1345 1.379 . S
C1340 N1347 1.356 . S
C1341 C1340 1.363 . S
C1341 C1344 1.363 . S
N1342 C1344 1.356 . S
N1342 H1354 0.984 . S
N1342 H1355 0.985 . S
N1343 C1345 1.356 . S
N1343 H1348 0.984 . S
N1343 H1349 0.985 . S
C1344 C1338 1.379 . S
C1344 C1341 1.363 . S
C1344 N1342 1.356 . S
C1345 C1339 1.363 . S
C1345 C1340 1.379 . S
C1345 N1343 1.356 . S
N1346 C1338 1.356 . S
N1346 H1352 0.984 . S
N1346 H1353 0.984 . S
N1347 C1340 1.356 . S
N1347 H1350 0.984 . S
N1347 H1351 0.985 . S
H1348 N1343 0.984 . S
H1349 N1343 0.985 . S
H1350 N1347 0.984 . S
H1351 N1347 0.985 . S
H1352 N1346 0.984 . S
H1353 N1346 0.984 . S
H1354 N1342 0.984 . S
H1355 N1342 0.985 . S
C1356 C1357 1.363 . S
C1356 C1362 1.379 1_554 S
C1356 N1364 1.356 . S
C1357 C1356 1.363 . S
C1357 C1363 1.363 . S
C1358 C1359 1.363 . S
C1358 C1363 1.379 1_556 S
C1358 N1365 1.356 . S
C1359 C1358 1.363 . S
C1359 C1362 1.363 . S
N1360 C1362 1.356 . S
N1360 H1372 0.984 . S
N1360 H1373 0.985 . S
N1361 C1363 1.356 . S
N1361 H1366 0.984 . S
N1361 H1367 0.985 . S
C1362 C1356 1.379 1_556 S
C1362 C1359 1.363 . S
C1362 N1360 1.356 . S
C1363 C1357 1.363 . S
C1363 C1358 1.379 1_554 S
C1363 N1361 1.356 . S
N1364 C1356 1.356 . S
N1364 H1370 0.984 . S
N1364 H1371 0.984 . S
N1365 C1358 1.356 . S
N1365 H1368 0.984 . S
N1365 H1369 0.985 . S
H1366 N1361 0.984 . S
H1367 N1361 0.985 . S
H1368 N1365 0.984 . S
H1369 N1365 0.985 . S
H1370 N1364 0.984 . S
H1371 N1364 0.984 . S
H1372 N1360 0.984 . S
H1373 N1360 0.985 . S
C1374 C1375 1.376 . S
C1374 C1380 1.379 . S
C1374 N1382 1.356 . S
C1375 C1374 1.376 . S
C1375 C1381 1.349 1_545 S
C1376 C1377 1.376 . S
C1376 C1381 1.379 . S
C1376 N1383 1.356 . S
C1377 C1376 1.376 . S
C1377 C1380 1.349 1_565 S
N1378 C1380 1.356 . S
N1378 H1390 0.984 . S
N1378 H1391 0.985 . S
N1379 C1381 1.356 . S
N1379 H1384 0.984 . S
N1379 H1385 0.985 . S
C1380 C1374 1.379 . S
C1380 C1377 1.349 1_545 S
C1380 N1378 1.356 . S
C1381 C1375 1.349 1_565 S
C1381 C1376 1.379 . S
C1381 N1379 1.356 . S
N1382 C1374 1.356 . S
N1382 H1388 0.984 . S
N1382 H1389 0.984 . S
N1383 C1376 1.356 . S
N1383 H1386 0.984 . S
N1383 H1387 0.985 . S
H1384 N1379 0.984 . S
H1385 N1379 0.985 . S
H1386 N1383 0.984 . S
H1387 N1383 0.985 . S
H1388 N1382 0.984 . S
H1389 N1382 0.984 . S
H1390 N1378 0.984 . S
H1391 N1378 0.985 . S
C1392 C1393 1.363 . S
C1392 C1398 1.379 1_565 S
C1392 N1400 1.356 . S
C1393 C1392 1.363 . S
C1393 C1399 1.363 . S
C1394 C1395 1.363 . S
C1394 C1399 1.379 1_545 S
C1394 N1401 1.356 . S
C1395 C1394 1.363 . S
C1395 C1398 1.363 . S
N1396 C1398 1.356 . S
N1396 H1408 0.984 . S
N1396 H1409 0.985 . S
N1397 C1399 1.356 . S
N1397 H1402 0.984 . S
N1397 H1403 0.985 . S
C1398 C1392 1.379 1_545 S
C1398 C1395 1.363 . S
C1398 N1396 1.356 . S
C1399 C1393 1.363 . S
C1399 C1394 1.379 1_565 S
C1399 N1397 1.356 . S
N1400 C1392 1.356 . S
N1400 H1406 0.984 . S
N1400 H1407 0.984 . S
N1401 C1394 1.356 . S
N1401 H1404 0.984 . S
N1401 H1405 0.985 . S
H1402 N1397 0.984 . S
H1403 N1397 0.985 . S
H1404 N1401 0.984 . S
H1405 N1401 0.985 . S
H1406 N1400 0.984 . S
H1407 N1400 0.984 . S
H1408 N1396 0.984 . S
H1409 N1396 0.985 . S
C1410 C1411 1.363 . S
C1410 C1416 1.379 . S
C1410 N1418 1.356 . S
C1411 C1410 1.363 . S
C1411 C1417 1.363 1_556 S
C1412 C1413 1.363 . S
C1412 C1417 1.379 . S
C1412 N1419 1.356 . S
C1413 C1412 1.363 . S
C1413 C1416 1.363 1_554 S
N1414 C1416 1.356 . S
N1414 H1426 0.984 . S
N1414 H1427 0.985 . S
N1415 C1417 1.356 . S
N1415 H1420 0.984 . S
N1415 H1421 0.985 . S
C1416 C1410 1.379 . S
C1416 C1413 1.363 1_556 S
C1416 N1414 1.356 . S
C1417 C1411 1.363 1_554 S
C1417 C1412 1.379 . S
C1417 N1415 1.356 . S
N1418 C1410 1.356 . S
N1418 H1424 0.984 . S
N1418 H1425 0.984 . S
N1419 C1412 1.356 . S
N1419 H1422 0.984 . S
N1419 H1423 0.985 . S
H1420 N1415 0.984 . S
H1421 N1415 0.985 . S
H1422 N1419 0.984 . S
H1423 N1419 0.985 . S
H1424 N1418 0.984 . S
H1425 N1418 0.984 . S
H1426 N1414 0.984 . S
H1427 N1414 0.985 . S
C1428 C1429 1.363 . S
C1428 C1434 1.379 . S
C1428 N1436 1.356 . S
C1429 C1428 1.363 . S
C1429 C1435 1.363 . S
C1430 C1431 1.363 . S
C1430 C1435 1.379 . S
C1430 N1437 1.356 . S
C1431 C1430 1.363 . S
C1431 C1434 1.363 . S
N1432 C1434 1.356 . S
N1432 H1444 0.984 . S
N1432 H1445 0.985 . S
N1433 C1435 1.356 . S
N1433 H1438 0.984 . S
N1433 H1439 0.985 . S
C1434 C1428 1.379 . S
C1434 C1431 1.363 . S
C1434 N1432 1.356 . S
C1435 C1429 1.363 . S
C1435 C1430 1.379 . S
C1435 N1433 1.356 . S
N1436 C1428 1.356 . S
N1436 H1442 0.984 . S
N1436 H1443 0.984 . S
N1437 C1430 1.356 . S
N1437 H1440 0.984 . S
N1437 H1441 0.985 . S
H1438 N1433 0.984 . S
H1439 N1433 0.985 . S
H1440 N1437 0.984 . S
H1441 N1437 0.985 . S
H1442 N1436 0.984 . S
H1443 N1436 0.984 . S
H1444 N1432 0.984 . S
H1445 N1432 0.985 . S
C1446 C1447 1.363 . S
C1446 C1452 1.379 . S
C1446 N1454 1.356 . S
C1447 C1446 1.363 . S
C1447 C1453 1.363 1_554 S
C1448 C1449 1.363 . S
C1448 C1453 1.379 . S
C1448 N1455 1.356 . S
C1449 C1448 1.363 . S
C1449 C1452 1.363 1_556 S
N1450 C1452 1.356 . S
N1450 H1462 0.984 . S
N1450 H1463 0.985 . S
N1451 C1453 1.356 . S
N1451 H1456 0.984 . S
N1451 H1457 0.985 . S
C1452 C1446 1.379 . S
C1452 C1449 1.363 1_554 S
C1452 N1450 1.356 . S
C1453 C1447 1.363 1_556 S
C1453 C1448 1.379 . S
C1453 N1451 1.356 . S
N1454 C1446 1.356 . S
N1454 H1460 0.984 . S
N1454 H1461 0.984 . S
N1455 C1448 1.356 . S
N1455 H1458 0.984 . S
N1455 H1459 0.985 . S
H1456 N1451 0.984 . S
H1457 N1451 0.985 . S
H1458 N1455 0.984 . S
H1459 N1455 0.985 . S
H1460 N1454 0.984 . S
H1461 N1454 0.984 . S
H1462 N1450 0.984 . S
H1463 N1450 0.985 . S
C1464 C1465 1.363 . S
C1464 C1470 1.379 1_554 S
C1464 N1472 1.356 . S
C1465 C1464 1.363 . S
C1465 C1471 1.363 . S
C1466 C1467 1.363 . S
C1466 C1471 1.379 1_556 S
C1466 N1473 1.356 . S
C1467 C1466 1.363 . S
C1467 C1470 1.363 . S
N1468 C1470 1.356 . S
N1468 H1480 0.984 . S
N1468 H1481 0.985 . S
N1469 C1471 1.356 . S
N1469 H1474 0.984 . S
N1469 H1475 0.985 . S
C1470 C1464 1.379 1_556 S
C1470 C1467 1.363 . S
C1470 N1468 1.356 . S
C1471 C1465 1.363 . S
C1471 C1466 1.379 1_554 S
C1471 N1469 1.356 . S
N1472 C1464 1.356 . S
N1472 H1478 0.984 . S
N1472 H1479 0.984 . S
N1473 C1466 1.356 . S
N1473 H1476 0.984 . S
N1473 H1477 0.985 . S
H1474 N1469 0.984 . S
H1475 N1469 0.985 . S
H1476 N1473 0.984 . S
H1477 N1473 0.985 . S
H1478 N1472 0.984 . S
H1479 N1472 0.984 . S
H1480 N1468 0.984 . S
H1481 N1468 0.985 . S
C1482 C1483 1.363 . S
C1482 C1488 1.379 . S
C1482 N1490 1.356 . S
C1483 C1482 1.363 . S
C1483 C1489 1.363 . S
C1484 C1485 1.363 . S
C1484 C1489 1.379 . S
C1484 N1491 1.356 . S
C1485 C1484 1.363 . S
C1485 C1488 1.363 . S
N1486 C1488 1.356 . S
N1486 H1498 0.984 . S
N1486 H1499 0.985 . S
N1487 C1489 1.356 . S
N1487 H1492 0.984 . S
N1487 H1493 0.985 . S
C1488 C1482 1.379 . S
C1488 C1485 1.363 . S
C1488 N1486 1.356 . S
C1489 C1483 1.363 . S
C1489 C1484 1.379 . S
C1489 N1487 1.356 . S
N1490 C1482 1.356 . S
N1490 H1496 0.984 . S
N1490 H1497 0.984 . S
N1491 C1484 1.356 . S
N1491 H1494 0.984 . S
N1491 H1495 0.985 . S
H1492 N1487 0.984 . S
H1493 N1487 0.985 . S
H1494 N1491 0.984 . S
H1495 N1491 0.985 . S
H1496 N1490 0.984 . S
H1497 N1490 0.984 . S
H1498 N1486 0.984 . S
H1499 N1486 0.985 . S
C1500 C1501 1.363 . S
C1500 C1506 1.379 1_554 S
C1500 N1508 1.356 . S
C1501 C1500 1.363 . S
C1501 C1507 1.363 . S
C1502 C1503 1.363 . S
C1502 C1507 1.379 1_556 S
C1502 N1509 1.356 . S
C1503 C1502 1.363 . S
C1503 C1506 1.363 . S
N1504 C1506 1.356 . S
N1504 H1516 0.984 . S
N1504 H1517 0.985 . S
N1505 C1507 1.356 . S
N1505 H1510 0.984 . S
N1505 H1511 0.985 . S
C1506 C1500 1.379 1_556 S
C1506 C1503 1.363 . S
C1506 N1504 1.356 . S
C1507 C1501 1.363 . S
C1507 C1502 1.379 1_554 S
C1507 N1505 1.356 . S
N1508 C1500 1.356 . S
N1508 H1514 0.984 . S
N1508 H1515 0.984 . S
N1509 C1502 1.356 . S
N1509 H1512 0.984 . S
N1509 H1513 0.985 . S
H1510 N1505 0.984 . S
H1511 N1505 0.985 . S
H1512 N1509 0.984 . S
H1513 N1509 0.985 . S
H1514 N1508 0.984 . S
H1515 N1508 0.984 . S
H1516 N1504 0.984 . S
H1517 N1504 0.985 . S
C1518 C1519 1.363 . S
C1518 C1524 1.379 . S
C1518 N1526 1.356 . S
C1519 C1518 1.363 . S
C1519 C1525 1.363 1_565 S
C1520 C1521 1.363 . S
C1520 C1525 1.379 . S
C1520 N1527 1.356 . S
C1521 C1520 1.363 . S
C1521 C1524 1.363 1_545 S
N1522 C1524 1.356 . S
N1522 H1534 0.984 . S
N1522 H1535 0.985 . S
N1523 C1525 1.356 . S
N1523 H1528 0.984 . S
N1523 H1529 0.985 . S
C1524 C1518 1.379 . S
C1524 C1521 1.363 1_565 S
C1524 N1522 1.356 . S
C1525 C1519 1.363 1_545 S
C1525 C1520 1.379 . S
C1525 N1523 1.356 . S
N1526 C1518 1.356 . S
N1526 H1532 0.984 . S
N1526 H1533 0.984 . S
N1527 C1520 1.356 . S
N1527 H1530 0.984 . S
N1527 H1531 0.985 . S
H1528 N1523 0.984 . S
H1529 N1523 0.985 . S
H1530 N1527 0.984 . S
H1531 N1527 0.985 . S
H1532 N1526 0.984 . S
H1533 N1526 0.984 . S
H1534 N1522 0.984 . S
H1535 N1522 0.985 . S
C1536 C1537 1.363 . S
C1536 C1542 1.379 . S
C1536 N1544 1.356 . S
C1537 C1536 1.363 . S
C1537 C1543 1.363 . S
C1538 C1539 1.363 . S
C1538 C1543 1.379 . S
C1538 N1545 1.356 . S
C1539 C1538 1.363 . S
C1539 C1542 1.363 . S
N1540 C1542 1.356 . S
N1540 H1552 0.984 . S
N1540 H1553 0.985 . S
N1541 C1543 1.356 . S
N1541 H1546 0.984 . S
N1541 H1547 0.985 . S
C1542 C1536 1.379 . S
C1542 C1539 1.363 . S
C1542 N1540 1.356 . S
C1543 C1537 1.363 . S
C1543 C1538 1.379 . S
C1543 N1541 1.356 . S
N1544 C1536 1.356 . S
N1544 H1550 0.984 . S
N1544 H1551 0.984 . S
N1545 C1538 1.356 . S
N1545 H1548 0.984 . S
N1545 H1549 0.985 . S
H1546 N1541 0.984 . S
H1547 N1541 0.985 . S
H1548 N1545 0.984 . S
H1549 N1545 0.985 . S
H1550 N1544 0.984 . S
H1551 N1544 0.984 . S
H1552 N1540 0.984 . S
H1553 N1540 0.985 . S
C1554 C1555 1.363 . S
C1554 C1560 1.379 . S
C1554 N1562 1.356 . S
C1555 C1554 1.363 . S
C1555 C1561 1.363 . S
C1556 C1557 1.363 . S
C1556 C1561 1.379 . S
C1556 N1563 1.356 . S
C1557 C1556 1.363 . S
C1557 C1560 1.363 . S
N1558 C1560 1.356 . S
N1558 H1570 0.984 . S
N1558 H1571 0.985 . S
N1559 C1561 1.356 . S
N1559 H1564 0.984 . S
N1559 H1565 0.985 . S
C1560 C1554 1.379 . S
C1560 C1557 1.363 . S
C1560 N1558 1.356 . S
C1561 C1555 1.363 . S
C1561 C1556 1.379 . S
C1561 N1559 1.356 . S
N1562 C1554 1.356 . S
N1562 H1568 0.984 . S
N1562 H1569 0.984 . S
N1563 C1556 1.356 . S
N1563 H1566 0.984 . S
N1563 H1567 0.985 . S
H1564 N1559 0.984 . S
H1565 N1559 0.985 . S
H1566 N1563 0.984 . S
H1567 N1563 0.985 . S
H1568 N1562 0.984 . S
H1569 N1562 0.984 . S
H1570 N1558 0.984 . S
H1571 N1558 0.985 . S
C1572 C1573 1.363 . S
C1572 C1578 1.379 . S
C1572 N1580 1.356 . S
C1573 C1572 1.363 . S
C1573 C1579 1.363 . S
C1574 C1575 1.363 . S
C1574 C1579 1.379 . S
C1574 N1581 1.356 . S
C1575 C1574 1.363 . S
C1575 C1578 1.363 . S
N1576 C1578 1.356 . S
N1576 H1588 0.984 . S
N1576 H1589 0.985 . S
N1577 C1579 1.356 . S
N1577 H1582 0.984 . S
N1577 H1583 0.985 . S
C1578 C1572 1.379 . S
C1578 C1575 1.363 . S
C1578 N1576 1.356 . S
C1579 C1573 1.363 . S
C1579 C1574 1.379 . S
C1579 N1577 1.356 . S
N1580 C1572 1.356 . S
N1580 H1586 0.984 . S
N1580 H1587 0.984 . S
N1581 C1574 1.356 . S
N1581 H1584 0.984 . S
N1581 H1585 0.985 . S
H1582 N1577 0.984 . S
H1583 N1577 0.985 . S
H1584 N1581 0.984 . S
H1585 N1581 0.985 . S
H1586 N1580 0.984 . S
H1587 N1580 0.984 . S
H1588 N1576 0.984 . S
H1589 N1576 0.985 . S
C1590 C1591 1.363 . S
C1590 C1596 1.379 . S
C1590 N1598 1.356 . S
C1591 C1590 1.363 . S
C1591 C1597 1.363 1_565 S
C1592 C1593 1.363 . S
C1592 C1597 1.379 . S
C1592 N1599 1.356 . S
C1593 C1592 1.363 . S
C1593 C1596 1.363 1_545 S
N1594 C1596 1.356 . S
N1594 H1606 0.984 . S
N1594 H1607 0.985 . S
N1595 C1597 1.356 . S
N1595 H1600 0.984 . S
N1595 H1601 0.985 . S
C1596 C1590 1.379 . S
C1596 C1593 1.363 1_565 S
C1596 N1594 1.356 . S
C1597 C1591 1.363 1_545 S
C1597 C1592 1.379 . S
C1597 N1595 1.356 . S
N1598 C1590 1.356 . S
N1598 H1604 0.984 . S
N1598 H1605 0.984 . S
N1599 C1592 1.356 . S
N1599 H1602 0.984 . S
N1599 H1603 0.985 . S
H1600 N1595 0.984 . S
H1601 N1595 0.985 . S
H1602 N1599 0.984 . S
H1603 N1599 0.985 . S
H1604 N1598 0.984 . S
H1605 N1598 0.984 . S
H1606 N1594 0.984 . S
H1607 N1594 0.985 . S
C1608 C1609 1.363 . S
C1608 C1614 1.379 1_655 S
C1608 N1616 1.356 . S
C1609 C1608 1.363 . S
C1609 C1615 1.363 . S
C1610 C1611 1.363 . S
C1610 C1615 1.379 1_455 S
C1610 N1617 1.356 . S
C1611 C1610 1.363 . S
C1611 C1614 1.363 . S
N1612 C1614 1.356 . S
N1612 H1624 0.984 . S
N1612 H1625 0.985 . S
N1613 C1615 1.356 . S
N1613 H1618 0.984 . S
N1613 H1619 0.985 . S
C1614 C1608 1.379 1_455 S
C1614 C1611 1.363 . S
C1614 N1612 1.356 . S
C1615 C1609 1.363 . S
C1615 C1610 1.379 1_655 S
C1615 N1613 1.356 . S
N1616 C1608 1.356 . S
N1616 H1622 0.984 . S
N1616 H1623 0.984 . S
N1617 C1610 1.356 . S
N1617 H1620 0.984 . S
N1617 H1621 0.985 . S
H1618 N1613 0.984 . S
H1619 N1613 0.985 . S
H1620 N1617 0.984 . S
H1621 N1617 0.985 . S
H1622 N1616 0.984 . S
H1623 N1616 0.984 . S
H1624 N1612 0.984 . S
H1625 N1612 0.985 . S
C1626 C1627 1.363 . S
C1626 C1632 1.379 1_655 S
C1626 N1634 1.356 . S
C1627 C1626 1.363 . S
C1627 C1633 1.363 . S
C1628 C1629 1.363 . S
C1628 C1633 1.379 1_455 S
C1628 N1635 1.356 . S
C1629 C1628 1.363 . S
C1629 C1632 1.363 . S
N1630 C1632 1.356 . S
N1630 H1642 0.984 . S
N1630 H1643 0.985 . S
N1631 C1633 1.356 . S
N1631 H1636 0.984 . S
N1631 H1637 0.985 . S
C1632 C1626 1.379 1_455 S
C1632 C1629 1.363 . S
C1632 N1630 1.356 . S
C1633 C1627 1.363 . S
C1633 C1628 1.379 1_655 S
C1633 N1631 1.356 . S
N1634 C1626 1.356 . S
N1634 H1640 0.984 . S
N1634 H1641 0.984 . S
N1635 C1628 1.356 . S
N1635 H1638 0.984 . S
N1635 H1639 0.985 . S
H1636 N1631 0.984 . S
H1637 N1631 0.985 . S
H1638 N1635 0.984 . S
H1639 N1635 0.985 . S
H1640 N1634 0.984 . S
H1641 N1634 0.984 . S
H1642 N1630 0.984 . S
H1643 N1630 0.985 . S
C1644 C1645 1.363 . S
C1644 C1650 1.379 . S
C1644 N1652 1.356 . S
C1645 C1644 1.363 . S
C1645 C1651 1.363 1_455 S
C1646 C1647 1.363 . S
C1646 C1651 1.379 . S
C1646 N1653 1.356 . S
C1647 C1646 1.363 . S
C1647 C1650 1.363 1_655 S
N1648 C1650 1.356 . S
N1648 H1660 0.984 . S
N1648 H1661 0.985 . S
N1649 C1651 1.356 . S
N1649 H1654 0.984 . S
N1649 H1655 0.985 . S
C1650 C1644 1.379 . S
C1650 C1647 1.363 1_455 S
C1650 N1648 1.356 . S
C1651 C1645 1.363 1_655 S
C1651 C1646 1.379 . S
C1651 N1649 1.356 . S
N1652 C1644 1.356 . S
N1652 H1658 0.984 . S
N1652 H1659 0.984 . S
N1653 C1646 1.356 . S
N1653 H1656 0.984 . S
N1653 H1657 0.985 . S
H1654 N1649 0.984 . S
H1655 N1649 0.985 . S
H1656 N1653 0.984 . S
H1657 N1653 0.985 . S
H1658 N1652 0.984 . S
H1659 N1652 0.984 . S
H1660 N1648 0.984 . S
H1661 N1648 0.985 . S
C1662 C1663 1.363 . S
C1662 C1668 1.379 . S
C1662 N1670 1.356 . S
C1663 C1662 1.363 . S
C1663 C1669 1.363 . S
C1664 C1665 1.363 . S
C1664 C1669 1.379 . S
C1664 N1671 1.356 . S
C1665 C1664 1.363 . S
C1665 C1668 1.363 . S
N1666 C1668 1.356 . S
N1666 H1678 0.984 . S
N1666 H1679 0.985 . S
N1667 C1669 1.356 . S
N1667 H1672 0.984 . S
N1667 H1673 0.985 . S
C1668 C1662 1.379 . S
C1668 C1665 1.363 . S
C1668 N1666 1.356 . S
C1669 C1663 1.363 . S
C1669 C1664 1.379 . S
C1669 N1667 1.356 . S
N1670 C1662 1.356 . S
N1670 H1676 0.984 . S
N1670 H1677 0.984 . S
N1671 C1664 1.356 . S
N1671 H1674 0.984 . S
N1671 H1675 0.985 . S
H1672 N1667 0.984 . S
H1673 N1667 0.985 . S
H1674 N1671 0.984 . S
H1675 N1671 0.985 . S
H1676 N1670 0.984 . S
H1677 N1670 0.984 . S
H1678 N1666 0.984 . S
H1679 N1666 0.985 . S
C1680 C1681 1.363 . S
C1680 C1686 1.379 . S
C1680 N1688 1.356 . S
C1681 C1680 1.363 . S
C1681 C1687 1.363 . S
C1682 C1683 1.363 . S
C1682 C1687 1.379 . S
C1682 N1689 1.356 . S
C1683 C1682 1.363 . S
C1683 C1686 1.363 . S
N1684 C1686 1.356 . S
N1684 H1696 0.984 . S
N1684 H1697 0.985 . S
N1685 C1687 1.356 . S
N1685 H1690 0.984 . S
N1685 H1691 0.985 . S
C1686 C1680 1.379 . S
C1686 C1683 1.363 . S
C1686 N1684 1.356 . S
C1687 C1681 1.363 . S
C1687 C1682 1.379 . S
C1687 N1685 1.356 . S
N1688 C1680 1.356 . S
N1688 H1694 0.984 . S
N1688 H1695 0.984 . S
N1689 C1682 1.356 . S
N1689 H1692 0.984 . S
N1689 H1693 0.985 . S
H1690 N1685 0.984 . S
H1691 N1685 0.985 . S
H1692 N1689 0.984 . S
H1693 N1689 0.985 . S
H1694 N1688 0.984 . S
H1695 N1688 0.984 . S
H1696 N1684 0.984 . S
H1697 N1684 0.985 . S
C1698 C1699 1.363 . S
C1698 C1704 1.379 . S
C1698 N1706 1.356 . S
C1699 C1698 1.363 . S
C1699 C1705 1.363 1_455 S
C1700 C1701 1.363 . S
C1700 C1705 1.379 . S
C1700 N1707 1.356 . S
C1701 C1700 1.363 . S
C1701 C1704 1.363 1_655 S
N1702 C1704 1.356 . S
N1702 H1714 0.984 . S
N1702 H1715 0.985 . S
N1703 C1705 1.356 . S
N1703 H1708 0.984 . S
N1703 H1709 0.985 . S
C1704 C1698 1.379 . S
C1704 C1701 1.363 1_455 S
C1704 N1702 1.356 . S
C1705 C1699 1.363 1_655 S
C1705 C1700 1.379 . S
C1705 N1703 1.356 . S
N1706 C1698 1.356 . S
N1706 H1712 0.984 . S
N1706 H1713 0.984 . S
N1707 C1700 1.356 . S
N1707 H1710 0.984 . S
N1707 H1711 0.985 . S
H1708 N1703 0.984 . S
H1709 N1703 0.985 . S
H1710 N1707 0.984 . S
H1711 N1707 0.985 . S
H1712 N1706 0.984 . S
H1713 N1706 0.984 . S
H1714 N1702 0.984 . S
H1715 N1702 0.985 . S
C1716 C1717 1.363 . S
C1716 C1722 1.379 . S
C1716 N1724 1.356 . S
C1717 C1716 1.363 . S
C1717 C1723 1.363 . S
C1718 C1719 1.363 . S
C1718 C1723 1.379 . S
C1718 N1725 1.356 . S
C1719 C1718 1.363 . S
C1719 C1722 1.363 . S
N1720 C1722 1.356 . S
N1720 H1732 0.984 . S
N1720 H1733 0.985 . S
N1721 C1723 1.356 . S
N1721 H1726 0.984 . S
N1721 H1727 0.985 . S
C1722 C1716 1.379 . S
C1722 C1719 1.363 . S
C1722 N1720 1.356 . S
C1723 C1717 1.363 . S
C1723 C1718 1.379 . S
C1723 N1721 1.356 . S
N1724 C1716 1.356 . S
N1724 H1730 0.984 . S
N1724 H1731 0.984 . S
N1725 C1718 1.356 . S
N1725 H1728 0.984 . S
N1725 H1729 0.985 . S
H1726 N1721 0.984 . S
H1727 N1721 0.985 . S
H1728 N1725 0.984 . S
H1729 N1725 0.985 . S
H1730 N1724 0.984 . S
H1731 N1724 0.984 . S
H1732 N1720 0.984 . S
H1733 N1720 0.985 . S
C1734 C1735 1.363 . S
C1734 C1740 1.379 . S
C1734 N1742 1.356 . S
C1735 C1734 1.363 . S
C1735 C1741 1.363 . S
C1736 C1737 1.363 . S
C1736 C1741 1.379 . S
C1736 N1743 1.356 . S
C1737 C1736 1.363 . S
C1737 C1740 1.363 . S
N1738 C1740 1.356 . S
N1738 H1750 0.984 . S
N1738 H1751 0.985 . S
N1739 C1741 1.356 . S
N1739 H1744 0.984 . S
N1739 H1745 0.985 . S
C1740 C1734 1.379 . S
C1740 C1737 1.363 . S
C1740 N1738 1.356 . S
C1741 C1735 1.363 . S
C1741 C1736 1.379 . S
C1741 N1739 1.356 . S
N1742 C1734 1.356 . S
N1742 H1748 0.984 . S
N1742 H1749 0.984 . S
N1743 C1736 1.356 . S
N1743 H1746 0.984 . S
N1743 H1747 0.985 . S
H1744 N1739 0.984 . S
H1745 N1739 0.985 . S
H1746 N1743 0.984 . S
H1747 N1743 0.985 . S
H1748 N1742 0.984 . S
H1749 N1742 0.984 . S
H1750 N1738 0.984 . S
H1751 N1738 0.985 . S
C1752 C1753 1.363 . S
C1752 C1758 1.379 1_565 S
C1752 N1760 1.356 . S
C1753 C1752 1.363 . S
C1753 C1759 1.363 . S
C1754 C1755 1.363 . S
C1754 C1759 1.379 1_545 S
C1754 N1761 1.356 . S
C1755 C1754 1.363 . S
C1755 C1758 1.363 . S
N1756 C1758 1.356 . S
N1756 H1768 0.984 . S
N1756 H1769 0.985 . S
N1757 C1759 1.356 . S
N1757 H1762 0.984 . S
N1757 H1763 0.985 . S
C1758 C1752 1.379 1_545 S
C1758 C1755 1.363 . S
C1758 N1756 1.356 . S
C1759 C1753 1.363 . S
C1759 C1754 1.379 1_565 S
C1759 N1757 1.356 . S
N1760 C1752 1.356 . S
N1760 H1766 0.984 . S
N1760 H1767 0.984 . S
N1761 C1754 1.356 . S
N1761 H1764 0.984 . S
N1761 H1765 0.985 . S
H1762 N1757 0.984 . S
H1763 N1757 0.985 . S
H1764 N1761 0.984 . S
H1765 N1761 0.985 . S
H1766 N1760 0.984 . S
H1767 N1760 0.984 . S
H1768 N1756 0.984 . S
H1769 N1756 0.985 . S
C1770 C1771 1.363 . S
C1770 C1776 1.379 . S
C1770 N1778 1.356 . S
C1771 C1770 1.363 . S
C1771 C1777 1.363 . S
C1772 C1773 1.363 . S
C1772 C1777 1.379 . S
C1772 N1779 1.356 . S
C1773 C1772 1.363 . S
C1773 C1776 1.363 . S
N1774 C1776 1.356 . S
N1774 H1786 0.984 . S
N1774 H1787 0.985 . S
N1775 C1777 1.356 . S
N1775 H1780 0.984 . S
N1775 H1781 0.985 . S
C1776 C1770 1.379 . S
C1776 C1773 1.363 . S
C1776 N1774 1.356 . S
C1777 C1771 1.363 . S
C1777 C1772 1.379 . S
C1777 N1775 1.356 . S
N1778 C1770 1.356 . S
N1778 H1784 0.984 . S
N1778 H1785 0.984 . S
N1779 C1772 1.356 . S
N1779 H1782 0.984 . S
N1779 H1783 0.985 . S
H1780 N1775 0.984 . S
H1781 N1775 0.985 . S
H1782 N1779 0.984 . S
H1783 N1779 0.985 . S
H1784 N1778 0.984 . S
H1785 N1778 0.984 . S
H1786 N1774 0.984 . S
H1787 N1774 0.985 . S
C1788 C1789 1.363 . S
C1788 C1794 1.379 . S
C1788 N1796 1.356 . S
C1789 C1788 1.363 . S
C1789 C1795 1.363 . S
C1790 C1791 1.363 . S
C1790 C1795 1.379 . S
C1790 N1797 1.356 . S
C1791 C1790 1.363 . S
C1791 C1794 1.363 . S
N1792 C1794 1.356 . S
N1792 H1804 0.984 . S
N1792 H1805 0.985 . S
N1793 C1795 1.356 . S
N1793 H1798 0.984 . S
N1793 H1799 0.985 . S
C1794 C1788 1.379 . S
C1794 C1791 1.363 . S
C1794 N1792 1.356 . S
C1795 C1789 1.363 . S
C1795 C1790 1.379 . S
C1795 N1793 1.356 . S
N1796 C1788 1.356 . S
N1796 H1802 0.984 . S
N1796 H1803 0.984 . S
N1797 C1790 1.356 . S
N1797 H1800 0.984 . S
N1797 H1801 0.985 . S
H1798 N1793 0.984 . S
H1799 N1793 0.985 . S
H1800 N1797 0.984 . S
H1801 N1797 0.985 . S
H1802 N1796 0.984 . S
H1803 N1796 0.984 . S
H1804 N1792 0.984 . S
H1805 N1792 0.985 . S
C1806 C1807 1.363 . S
C1806 C1812 1.379 . S
C1806 N1814 1.356 . S
C1807 C1806 1.363 . S
C1807 C1813 1.363 . S
C1808 C1809 1.363 . S
C1808 C1813 1.379 . S
C1808 N1815 1.356 . S
C1809 C1808 1.363 . S
C1809 C1812 1.363 . S
N1810 C1812 1.356 . S
N1810 H1822 0.984 . S
N1810 H1823 0.985 . S
N1811 C1813 1.356 . S
N1811 H1816 0.984 . S
N1811 H1817 0.985 . S
C1812 C1806 1.379 . S
C1812 C1809 1.363 . S
C1812 N1810 1.356 . S
C1813 C1807 1.363 . S
C1813 C1808 1.379 . S
C1813 N1811 1.356 . S
N1814 C1806 1.356 . S
N1814 H1820 0.984 . S
N1814 H1821 0.984 . S
N1815 C1808 1.356 . S
N1815 H1818 0.984 . S
N1815 H1819 0.985 . S
H1816 N1811 0.984 . S
H1817 N1811 0.985 . S
H1818 N1815 0.984 . S
H1819 N1815 0.985 . S
H1820 N1814 0.984 . S
H1821 N1814 0.984 . S
H1822 N1810 0.984 . S
H1823 N1810 0.985 . S
C1824 C1825 1.363 . S
C1824 C1830 1.379 . S
C1824 N1832 1.356 . S
C1825 C1824 1.363 . S
C1825 C1831 1.363 . S
C1826 C1827 1.363 . S
C1826 C1831 1.379 . S
C1826 N1833 1.356 . S
C1827 C1826 1.363 . S
C1827 C1830 1.363 . S
N1828 C1830 1.356 . S
N1828 H1840 0.984 . S
N1828 H1841 0.985 . S
N1829 C1831 1.356 . S
N1829 H1834 0.984 . S
N1829 H1835 0.985 . S
C1830 C1824 1.379 . S
C1830 C1827 1.363 . S
C1830 N1828 1.356 . S
C1831 C1825 1.363 . S
C1831 C1826 1.379 . S
C1831 N1829 1.356 . S
N1832 C1824 1.356 . S
N1832 H1838 0.984 . S
N1832 H1839 0.984 . S
N1833 C1826 1.356 . S
N1833 H1836 0.984 . S
N1833 H1837 0.985 . S
H1834 N1829 0.984 . S
H1835 N1829 0.985 . S
H1836 N1833 0.984 . S
H1837 N1833 0.985 . S
H1838 N1832 0.984 . S
H1839 N1832 0.984 . S
H1840 N1828 0.984 . S
H1841 N1828 0.985 . S
C1842 C1843 1.363 . S
C1842 C1848 1.379 . S
C1842 N1850 1.356 . S
C1843 C1842 1.363 . S
C1843 C1849 1.363 . S
C1844 C1845 1.363 . S
C1844 C1849 1.379 . S
C1844 N1851 1.356 . S
C1845 C1844 1.363 . S
C1845 C1848 1.363 . S
N1846 C1848 1.356 . S
N1846 H1858 0.984 . S
N1846 H1859 0.985 . S
N1847 C1849 1.356 . S
N1847 H1852 0.984 . S
N1847 H1853 0.985 . S
C1848 C1842 1.379 . S
C1848 C1845 1.363 . S
C1848 N1846 1.356 . S
C1849 C1843 1.363 . S
C1849 C1844 1.379 . S
C1849 N1847 1.356 . S
N1850 C1842 1.356 . S
N1850 H1856 0.984 . S
N1850 H1857 0.974 1_554 S
N1851 C1844 1.356 . S
N1851 H1854 0.984 . S
N1851 H1855 0.985 . S
H1852 N1847 0.984 . S
H1853 N1847 0.985 . S
H1854 N1851 0.984 . S
H1855 N1851 0.985 . S
H1856 N1850 0.984 . S
H1857 N1850 0.974 1_556 S
H1858 N1846 0.984 . S
H1859 N1846 0.985 . S
C1860 C1861 1.363 . S
C1860 C1866 1.379 . S
C1860 N1868 1.356 . S
C1861 C1860 1.363 . S
C1861 C1867 1.363 . S
C1862 C1863 1.363 . S
C1862 C1867 1.379 . S
C1862 N1869 1.356 . S
C1863 C1862 1.363 . S
C1863 C1866 1.363 . S
N1864 C1866 1.356 . S
N1864 H1876 0.984 . S
N1864 H1877 0.985 . S
N1865 C1867 1.356 . S
N1865 H1870 0.984 . S
N1865 H1871 0.985 . S
C1866 C1860 1.379 . S
C1866 C1863 1.363 . S
C1866 N1864 1.356 . S
C1867 C1861 1.363 . S
C1867 C1862 1.379 . S
C1867 N1865 1.356 . S
N1868 C1860 1.356 . S
N1868 H1874 0.984 . S
N1868 H1875 0.984 . S
N1869 C1862 1.356 . S
N1869 H1872 0.984 . S
N1869 H1873 0.985 . S
H1870 N1865 0.984 . S
H1871 N1865 0.985 . S
H1872 N1869 0.984 . S
H1873 N1869 0.985 . S
H1874 N1868 0.984 . S
H1875 N1868 0.984 . S
H1876 N1864 0.984 . S
H1877 N1864 0.985 . S
C1878 C1879 1.363 . S
C1878 C1884 1.379 . S
C1878 N1886 1.356 . S
C1879 C1878 1.363 . S
C1879 C1885 1.363 . S
C1880 C1881 1.363 . S
C1880 C1885 1.379 . S
C1880 N1887 1.356 . S
C1881 C1880 1.363 . S
C1881 C1884 1.363 . S
N1882 C1884 1.356 . S
N1882 H1894 0.984 . S
N1882 H1895 0.985 . S
N1883 C1885 1.356 . S
N1883 H1888 0.984 1_554 S
N1883 H1889 0.985 1_554 S
C1884 C1878 1.379 . S
C1884 C1881 1.363 . S
C1884 N1882 1.356 . S
C1885 C1879 1.363 . S
C1885 C1880 1.379 . S
C1885 N1883 1.356 . S
N1886 C1878 1.356 . S
N1886 H1892 0.984 . S
N1886 H1893 0.984 . S
N1887 C1880 1.356 . S
N1887 H1890 0.984 . S
N1887 H1891 0.985 . S
H1888 N1883 0.984 1_556 S
H1889 N1883 0.985 1_556 S
H1890 N1887 0.984 . S
H1891 N1887 0.985 . S
H1892 N1886 0.984 . S
H1893 N1886 0.984 . S
H1894 N1882 0.984 . S
H1895 N1882 0.985 . S
C1896 C1897 1.363 . S
C1896 C1902 1.379 . S
C1896 N1904 1.356 . S
C1897 C1896 1.363 . S
C1897 C1903 1.363 . S
C1898 C1899 1.363 . S
C1898 C1903 1.379 . S
C1898 N1905 1.356 . S
C1899 C1898 1.363 . S
C1899 C1902 1.363 . S
N1900 C1902 1.356 . S
N1900 H1912 0.984 . S
N1900 H1913 0.985 . S
N1901 C1903 1.356 . S
N1901 H1906 0.984 . S
N1901 H1907 0.985 . S
C1902 C1896 1.379 . S
C1902 C1899 1.363 . S
C1902 N1900 1.356 . S
C1903 C1897 1.363 . S
C1903 C1898 1.379 . S
C1903 N1901 1.356 . S
N1904 C1896 1.356 . S
N1904 H1910 0.984 . S
N1904 H1911 0.984 . S
N1905 C1898 1.356 . S
N1905 H1908 0.984 . S
N1905 H1909 0.985 . S
H1906 N1901 0.984 . S
H1907 N1901 0.985 . S
H1908 N1905 0.984 . S
H1909 N1905 0.985 . S
H1910 N1904 0.984 . S
H1911 N1904 0.984 . S
H1912 N1900 0.984 . S
H1913 N1900 0.985 . S
C1914 C1915 1.363 . S
C1914 C1920 1.379 . S
C1914 N1922 1.356 . S
C1915 C1914 1.363 . S
C1915 C1921 1.363 . S
C1916 C1917 1.363 . S
C1916 C1921 1.379 . S
C1916 N1923 1.356 . S
C1917 C1916 1.363 . S
C1917 C1920 1.363 . S
N1918 C1920 1.356 . S
N1918 H1930 0.984 . S
N1918 H1931 0.985 . S
N1919 C1921 1.356 1_655 S
N1919 H1924 0.984 . S
N1919 H1925 0.985 . S
C1920 C1914 1.379 . S
C1920 C1917 1.363 . S
C1920 N1918 1.356 . S
C1921 C1915 1.363 . S
C1921 C1916 1.379 . S
C1921 N1919 1.356 1_455 S
N1922 C1914 1.356 . S
N1922 H1928 0.984 . S
N1922 H1929 0.984 . S
N1923 C1916 1.356 . S
N1923 H1926 0.984 1_556 S
N1923 H1927 0.985 1_556 S
H1924 N1919 0.984 . S
H1925 N1919 0.985 . S
H1926 N1923 0.984 1_554 S
H1927 N1923 0.985 1_554 S
H1928 N1922 0.984 . S
H1929 N1922 0.984 . S
H1930 N1918 0.984 . S
H1931 N1918 0.985 . S
C1932 C1933 1.363 . S
C1932 C1938 1.379 . S
C1932 N1940 1.356 . S
C1933 C1932 1.363 . S
C1933 C1939 1.363 . S
C1934 C1935 1.363 . S
C1934 C1939 1.379 . S
C1934 N1941 1.356 . S
C1935 C1934 1.363 . S
C1935 C1938 1.363 . S
N1936 C1938 1.356 . S
N1936 H1948 0.984 . S
N1936 H1949 0.985 . S
N1937 C1939 1.356 . S
N1937 H1942 0.984 . S
N1937 H1943 0.985 . S
C1938 C1932 1.379 . S
C1938 C1935 1.363 . S
C1938 N1936 1.356 . S
C1939 C1933 1.363 . S
C1939 C1934 1.379 . S
C1939 N1937 1.356 . S
N1940 C1932 1.356 . S
N1940 H1946 0.984 . S
N1940 H1947 0.984 . S
N1941 C1934 1.356 . S
N1941 H1944 0.984 . S
N1941 H1945 0.985 . S
H1942 N1937 0.984 . S
H1943 N1937 0.985 . S
H1944 N1941 0.984 . S
H1945 N1941 0.985 . S
H1946 N1940 0.984 . S
H1947 N1940 0.984 . S
H1948 N1936 0.984 . S
H1949 N1936 0.985 . S
C1950 C1951 1.363 . S
C1950 C1956 1.379 . S
C1950 N1958 1.356 1_655 S
C1951 C1950 1.363 . S
C1951 C1957 1.363 . S
C1952 C1953 1.363 . S
C1952 C1957 1.379 . S
C1952 N1959 1.356 . S
C1953 C1952 1.363 . S
C1953 C1956 1.363 . S
N1954 C1956 1.356 . S
N1954 H1966 0.984 1_556 S
N1954 H1967 0.985 1_556 S
N1955 C1957 1.356 . S
N1955 H1960 0.984 . S
N1955 H1961 0.985 . S
C1956 C1950 1.379 . S
C1956 C1953 1.363 . S
C1956 N1954 1.356 . S
C1957 C1951 1.363 . S
C1957 C1952 1.379 . S
C1957 N1955 1.356 . S
N1958 C1950 1.356 1_455 S
N1958 H1964 0.984 . S
N1958 H1965 0.984 . S
N1959 C1952 1.356 . S
N1959 H1962 0.984 . S
N1959 H1963 0.985 . S
H1960 N1955 0.984 . S
H1961 N1955 0.985 . S
H1962 N1959 0.984 . S
H1963 N1959 0.985 . S
H1964 N1958 0.984 . S
H1965 N1958 0.984 . S
H1966 N1954 0.984 1_554 S
H1967 N1954 0.985 1_554 S
C1968 C1969 1.363 . S
C1968 C1974 1.379 . S
C1968 N1976 1.356 . S
C1969 C1968 1.363 . S
C1969 C1975 1.363 . S
C1970 C1971 1.363 . S
C1970 C1975 1.379 . S
C1970 N1977 1.356 . S
C1971 C1970 1.363 . S
C1971 C1974 1.363 . S
N1972 C1974 1.356 . S
N1972 H1984 0.984 . S
N1972 H1985 0.985 . S
N1973 C1975 1.356 . S
N1973 H1978 0.984 . S
N1973 H1979 0.985 . S
C1974 C1968 1.379 . S
C1974 C1971 1.363 . S
C1974 N1972 1.356 . S
C1975 C1969 1.363 . S
C1975 C1970 1.379 . S
C1975 N1973 1.356 . S
N1976 C1968 1.356 . S
N1976 H1982 0.984 . S
N1976 H1983 0.984 . S
N1977 C1970 1.356 . S
N1977 H1980 0.984 . S
N1977 H1981 0.985 . S
H1978 N1973 0.984 . S
H1979 N1973 0.985 . S
H1980 N1977 0.984 . S
H1981 N1977 0.985 . S
H1982 N1976 0.984 . S
H1983 N1976 0.984 . S
H1984 N1972 0.984 . S
H1985 N1972 0.985 . S
C1986 C1987 1.363 . S
C1986 C1992 1.379 . S
C1986 N1994 1.356 . S
C1987 C1986 1.363 . S
C1987 C1993 1.363 . S
C1988 C1989 1.363 . S
C1988 C1993 1.379 . S
C1988 N1995 1.356 . S
C1989 C1988 1.363 . S
C1989 C1992 1.363 . S
N1990 C1992 1.356 . S
N1990 H2002 0.984 . S
N1990 H2003 0.985 . S
N1991 C1993 1.356 1_556 S
N1991 H1996 0.984 . S
N1991 H1997 0.985 . S
C1992 C1986 1.379 . S
C1992 C1989 1.363 . S
C1992 N1990 1.356 . S
C1993 C1987 1.363 . S
C1993 C1988 1.379 . S
C1993 N1991 1.356 1_554 S
N1994 C1986 1.356 . S
N1994 H2000 0.984 . S
N1994 H2001 0.984 . S
N1995 C1988 1.356 . S
N1995 H1998 0.984 . S
N1995 H1999 0.985 . S
H1996 N1991 0.984 . S
H1997 N1991 0.985 . S
H1998 N1995 0.984 . S
H1999 N1995 0.985 . S
H2000 N1994 0.984 . S
H2001 N1994 0.984 . S
H2002 N1990 0.984 . S
H2003 N1990 0.985 . S
C2004 C2005 1.363 . S
C2004 C2010 1.379 . S
C2004 N2012 1.356 . S
C2005 C2004 1.363 . S
C2005 C2011 1.363 . S
C2006 C2007 1.363 . S
C2006 C2011 1.379 . S
C2006 N2013 1.356 . S
C2007 C2006 1.363 . S
C2007 C2010 1.363 . S
N2008 C2010 1.356 . S
N2008 H2020 0.984 . S
N2008 H2021 0.985 . S
N2009 C2011 1.356 . S
N2009 H2014 0.984 . S
N2009 H2015 0.985 . S
C2010 C2004 1.379 . S
C2010 C2007 1.363 . S
C2010 N2008 1.356 . S
C2011 C2005 1.363 . S
C2011 C2006 1.379 . S
C2011 N2009 1.356 . S
N2012 C2004 1.356 . S
N2012 H2018 0.984 . S
N2012 H2019 0.984 . S
N2013 C2006 1.356 . S
N2013 H2016 0.984 . S
N2013 H2017 0.985 . S
H2014 N2009 0.984 . S
H2015 N2009 0.985 . S
H2016 N2013 0.984 . S
H2017 N2013 0.985 . S
H2018 N2012 0.984 . S
H2019 N2012 0.984 . S
H2020 N2008 0.984 . S
H2021 N2008 0.985 . S
C2022 C2023 1.363 . S
C2022 C2028 1.379 . S
C2022 N2030 1.356 . S
C2023 C2022 1.363 . S
C2023 C2029 1.363 . S
C2024 C2025 1.363 . S
C2024 C2029 1.379 . S
C2024 N2031 1.356 1_554 S
C2025 C2024 1.363 . S
C2025 C2028 1.363 . S
N2026 C2028 1.356 . S
N2026 H2038 0.984 . S
N2026 H2039 0.985 . S
N2027 C2029 1.356 1_545 S
N2027 H2032 0.984 . S
N2027 H2033 0.985 . S
C2028 C2022 1.379 . S
C2028 C2025 1.363 . S
C2028 N2026 1.356 . S
C2029 C2023 1.363 . S
C2029 C2024 1.379 . S
C2029 N2027 1.356 1_565 S
N2030 C2022 1.356 . S
N2030 H2036 0.984 . S
N2030 H2037 0.984 . S
N2031 C2024 1.356 1_556 S
N2031 H2034 0.984 . S
N2031 H2035 0.985 . S
H2032 N2027 0.984 . S
H2033 N2027 0.985 . S
H2034 N2031 0.984 . S
H2035 N2031 0.985 . S
H2036 N2030 0.984 . S
H2037 N2030 0.984 . S
H2038 N2026 0.984 . S
H2039 N2026 0.985 . S
C2040 C2041 1.363 . S
C2040 C2046 1.379 . S
C2040 N2048 1.356 . S
C2041 C2040 1.363 . S
C2041 C2047 1.363 . S
C2042 C2043 1.363 . S
C2042 C2047 1.379 . S
C2042 N2049 1.356 . S
C2043 C2042 1.363 . S
C2043 C2046 1.363 . S
N2044 C2046 1.356 . S
N2044 H2056 0.984 . S
N2044 H2057 0.985 . S
N2045 C2047 1.356 . S
N2045 H2050 0.984 . S
N2045 H2051 0.985 . S
C2046 C2040 1.379 . S
C2046 C2043 1.363 . S
C2046 N2044 1.356 . S
C2047 C2041 1.363 . S
C2047 C2042 1.379 . S
C2047 N2045 1.356 . S
N2048 C2040 1.356 . S
N2048 H2054 0.984 . S
N2048 H2055 0.984 . S
N2049 C2042 1.356 . S
N2049 H2052 0.984 . S
N2049 H2053 0.985 . S
H2050 N2045 0.984 . S
H2051 N2045 0.985 . S
H2052 N2049 0.984 . S
H2053 N2049 0.985 . S
H2054 N2048 0.984 . S
H2055 N2048 0.984 . S
H2056 N2044 0.984 . S
H2057 N2044 0.985 . S
C2058 C2059 1.363 . S
C2058 C2064 1.379 . S
C2058 N2066 1.356 . S
C2059 C2058 1.363 . S
C2059 C2065 1.363 . S
C2060 C2061 1.363 . S
C2060 C2065 1.379 . S
C2060 N2067 1.356 . S
C2061 C2060 1.363 . S
C2061 C2064 1.363 . S
N2062 C2064 1.356 1_554 S
N2062 H2074 0.984 . S
N2062 H2075 0.985 . S
N2063 C2065 1.356 . S
N2063 H2068 0.984 . S
N2063 H2069 0.985 . S
C2064 C2058 1.379 . S
C2064 C2061 1.363 . S
C2064 N2062 1.356 1_556 S
C2065 C2059 1.363 . S
C2065 C2060 1.379 . S
C2065 N2063 1.356 . S
N2066 C2058 1.356 . S
N2066 H2072 0.984 . S
N2066 H2073 0.984 . S
N2067 C2060 1.356 . S
N2067 H2070 0.984 . S
N2067 H2071 0.985 . S
H2068 N2063 0.984 . S
H2069 N2063 0.985 . S
H2070 N2067 0.984 . S
H2071 N2067 0.985 . S
H2072 N2066 0.984 . S
H2073 N2066 0.984 . S
H2074 N2062 0.984 . S
H2075 N2062 0.985 . S
C2076 C2077 1.363 . S
C2076 C2082 1.379 . S
C2076 N2084 1.356 . S
C2077 C2076 1.363 . S
C2077 C2083 1.363 . S
C2078 C2079 1.363 . S
C2078 C2083 1.379 . S
C2078 N2085 1.356 . S
C2079 C2078 1.363 . S
C2079 C2082 1.363 . S
N2080 C2082 1.356 . S
N2080 H2092 0.984 . S
N2080 H2093 0.985 . S
N2081 C2083 1.356 . S
N2081 H2086 0.984 . S
N2081 H2087 0.985 . S
C2082 C2076 1.379 . S
C2082 C2079 1.363 . S
C2082 N2080 1.356 . S
C2083 C2077 1.363 . S
C2083 C2078 1.379 . S
C2083 N2081 1.356 . S
N2084 C2076 1.356 . S
N2084 H2090 0.984 . S
N2084 H2091 0.984 . S
N2085 C2078 1.356 . S
N2085 H2088 0.984 . S
N2085 H2089 0.985 . S
H2086 N2081 0.984 . S
H2087 N2081 0.985 . S
H2088 N2085 0.984 . S
H2089 N2085 0.985 . S
H2090 N2084 0.984 . S
H2091 N2084 0.984 . S
H2092 N2080 0.984 . S
H2093 N2080 0.985 . S
C2094 C2095 1.363 . S
C2094 C2100 1.379 . S
C2094 N2102 1.356 . S
C2095 C2094 1.363 . S
C2095 C2101 1.363 . S
C2096 C2097 1.363 . S
C2096 C2101 1.379 . S
C2096 N2103 1.356 1_556 S
C2097 C2096 1.363 . S
C2097 C2100 1.363 . S
N2098 C2100 1.356 . S
N2098 H2110 0.984 . S
N2098 H2111 0.985 . S
N2099 C2101 1.356 1_545 S
N2099 H2104 0.984 . S
N2099 H2105 0.985 . S
C2100 C2094 1.379 . S
C2100 C2097 1.363 . S
C2100 N2098 1.356 . S
C2101 C2095 1.363 . S
C2101 C2096 1.379 . S
C2101 N2099 1.356 1_565 S
N2102 C2094 1.356 . S
N2102 H2108 0.984 . S
N2102 H2109 0.984 . S
N2103 C2096 1.356 1_554 S
N2103 H2106 0.984 . S
N2103 H2107 0.985 . S
H2104 N2099 0.984 . S
H2105 N2099 0.985 . S
H2106 N2103 0.984 . S
H2107 N2103 0.985 . S
H2108 N2102 0.984 . S
H2109 N2102 0.984 . S
H2110 N2098 0.984 . S
H2111 N2098 0.985 . S
C2112 C2113 1.363 . S
C2112 C2118 1.379 . S
C2112 N2120 1.356 . S
C2113 C2112 1.363 . S
C2113 C2119 1.363 . S
C2114 C2115 1.363 . S
C2114 C2119 1.379 . S
C2114 N2121 1.356 . S
C2115 C2114 1.363 . S
C2115 C2118 1.363 . S
N2116 C2118 1.356 . S
N2116 H2128 0.984 . S
N2116 H2129 0.985 . S
N2117 C2119 1.356 . S
N2117 H2122 0.984 . S
N2117 H2123 0.985 . S
C2118 C2112 1.379 . S
C2118 C2115 1.363 . S
C2118 N2116 1.356 . S
C2119 C2113 1.363 . S
C2119 C2114 1.379 . S
C2119 N2117 1.356 . S
N2120 C2112 1.356 . S
N2120 H2126 0.984 . S
N2120 H2127 0.984 . S
N2121 C2114 1.356 . S
N2121 H2124 0.984 . S
N2121 H2125 0.985 . S
H2122 N2117 0.984 . S
H2123 N2117 0.985 . S
H2124 N2121 0.984 . S
H2125 N2121 0.985 . S
H2126 N2120 0.984 . S
H2127 N2120 0.984 . S
H2128 N2116 0.984 . S
H2129 N2116 0.985 . S
C2130 C2131 1.363 . S
C2130 C2136 1.379 . S
C2130 N2138 1.356 . S
C2131 C2130 1.363 . S
C2131 C2137 1.363 . S
C2132 C2133 1.363 . S
C2132 C2137 1.379 . S
C2132 N2139 1.356 . S
C2133 C2132 1.363 . S
C2133 C2136 1.363 . S
N2134 C2136 1.356 . S
N2134 H2146 0.984 . S
N2134 H2147 0.985 . S
N2135 C2137 1.356 . S
N2135 H2140 0.984 . S
N2135 H2141 0.985 . S
C2136 C2130 1.379 . S
C2136 C2133 1.363 . S
C2136 N2134 1.356 . S
C2137 C2131 1.363 . S
C2137 C2132 1.379 . S
C2137 N2135 1.356 . S
N2138 C2130 1.356 . S
N2138 H2144 0.984 . S
N2138 H2145 0.984 . S
N2139 C2132 1.356 . S
N2139 H2142 0.984 . S
N2139 H2143 0.985 . S
H2140 N2135 0.984 . S
H2141 N2135 0.985 . S
H2142 N2139 0.984 . S
H2143 N2139 0.985 . S
H2144 N2138 0.984 . S
H2145 N2138 0.984 . S
H2146 N2134 0.984 . S
H2147 N2134 0.985 . S
C2148 C2149 1.363 . S
C2148 C2154 1.379 . S
C2148 N2156 1.356 . S
C2149 C2148 1.363 . S
C2149 C2155 1.363 . S
C2150 C2151 1.363 . S
C2150 C2155 1.379 . S
C2150 N2157 1.356 . S
C2151 C2150 1.363 . S
C2151 C2154 1.363 . S
N2152 C2154 1.356 . S
N2152 H2164 0.984 1_455 S
N2152 H2165 0.985 1_455 S
N2153 C2155 1.356 . S
N2153 H2158 0.984 . S
N2153 H2159 0.985 . S
C2154 C2148 1.379 . S
C2154 C2151 1.363 . S
C2154 N2152 1.356 . S
C2155 C2149 1.363 . S
C2155 C2150 1.379 . S
C2155 N2153 1.356 . S
N2156 C2148 1.356 . S
N2156 H2162 0.984 . S
N2156 H2163 0.984 . S
N2157 C2150 1.356 . S
N2157 H2160 0.984 . S
N2157 H2161 0.985 . S
H2158 N2153 0.984 . S
H2159 N2153 0.985 . S
H2160 N2157 0.984 . S
H2161 N2157 0.985 . S
H2162 N2156 0.984 . S
H2163 N2156 0.984 . S
H2164 N2152 0.984 1_655 S
H2165 N2152 0.985 1_655 S
C2166 C2167 1.363 . S
C2166 C2172 1.379 . S
C2166 N2174 1.356 . S
C2167 C2166 1.363 . S
C2167 C2173 1.363 . S
C2168 C2169 1.363 . S
C2168 C2173 1.379 . S
C2168 N2175 1.356 . S
C2169 C2168 1.363 . S
C2169 C2172 1.363 . S
N2170 C2172 1.356 . S
N2170 H2182 0.984 . S
N2170 H2183 0.985 . S
N2171 C2173 1.356 . S
N2171 H2176 0.984 . S
N2171 H2177 0.985 . S
C2172 C2166 1.379 . S
C2172 C2169 1.363 . S
C2172 N2170 1.356 . S
C2173 C2167 1.363 . S
C2173 C2168 1.379 . S
C2173 N2171 1.356 . S
N2174 C2166 1.356 . S
N2174 H2180 0.984 . S
N2174 H2181 0.984 . S
N2175 C2168 1.356 . S
N2175 H2178 0.984 . S
N2175 H2179 0.985 . S
H2176 N2171 0.984 . S
H2177 N2171 0.985 . S
H2178 N2175 0.984 . S
H2179 N2175 0.985 . S
H2180 N2174 0.984 . S
H2181 N2174 0.984 . S
H2182 N2170 0.984 . S
H2183 N2170 0.985 . S
C2184 C2185 1.363 . S
C2184 C2190 1.379 . S
C2184 N2192 1.356 . S
C2185 C2184 1.363 . S
C2185 C2191 1.363 . S
C2186 C2187 1.363 . S
C2186 C2191 1.379 . S
C2186 N2193 1.356 . S
C2187 C2186 1.363 . S
C2187 C2190 1.363 . S
N2188 C2190 1.356 . S
N2188 H2200 0.984 . S
N2188 H2201 0.985 . S
N2189 C2191 1.356 . S
N2189 H2194 0.984 . S
N2189 H2195 0.985 . S
C2190 C2184 1.379 . S
C2190 C2187 1.363 . S
C2190 N2188 1.356 . S
C2191 C2185 1.363 . S
C2191 C2186 1.379 . S
C2191 N2189 1.356 . S
N2192 C2184 1.356 . S
N2192 H2198 0.984 . S
N2192 H2199 0.984 . S
N2193 C2186 1.356 . S
N2193 H2196 0.984 . S
N2193 H2197 0.985 . S
H2194 N2189 0.984 . S
H2195 N2189 0.985 . S
H2196 N2193 0.984 . S
H2197 N2193 0.985 . S
H2198 N2192 0.984 . S
H2199 N2192 0.984 . S
H2200 N2188 0.984 . S
H2201 N2188 0.985 . S
C2202 C2203 1.363 . S
C2202 C2208 1.379 . S
C2202 N2210 1.356 . S
C2203 C2202 1.363 . S
C2203 C2209 1.363 . S
C2204 C2205 1.363 . S
C2204 C2209 1.379 . S
C2204 N2211 1.356 . S
C2205 C2204 1.363 . S
C2205 C2208 1.363 . S
N2206 C2208 1.356 . S
N2206 H2218 0.984 . S
N2206 H2219 0.985 . S
N2207 C2209 1.356 . S
N2207 H2212 0.984 . S
N2207 H2213 0.985 . S
C2208 C2202 1.379 . S
C2208 C2205 1.363 . S
C2208 N2206 1.356 . S
C2209 C2203 1.363 . S
C2209 C2204 1.379 . S
C2209 N2207 1.356 . S
N2210 C2202 1.356 . S
N2210 H2216 0.984 . S
N2210 H2217 0.984 . S
N2211 C2204 1.356 . S
N2211 H2214 0.984 . S
N2211 H2215 0.985 . S
H2212 N2207 0.984 . S
H2213 N2207 0.985 . S
H2214 N2211 0.984 . S
H2215 N2211 0.985 . S
H2216 N2210 0.984 . S
H2217 N2210 0.984 . S
H2218 N2206 0.984 . S
H2219 N2206 0.985 . S
C2220 C2221 1.363 . S
C2220 C2226 1.379 . S
C2220 N2228 1.356 . S
C2221 C2220 1.363 . S
C2221 C2227 1.363 . S
C2222 C2223 1.363 . S
C2222 C2227 1.379 . S
C2222 N2229 1.356 . S
C2223 C2222 1.363 . S
C2223 C2226 1.363 . S
N2224 C2226 1.356 . S
N2224 H2236 0.984 . S
N2224 H2237 0.985 . S
N2225 C2227 1.356 . S
N2225 H2230 0.984 . S
N2225 H2231 0.985 . S
C2226 C2220 1.379 . S
C2226 C2223 1.363 . S
C2226 N2224 1.356 . S
C2227 C2221 1.363 . S
C2227 C2222 1.379 . S
C2227 N2225 1.356 . S
N2228 C2220 1.356 . S
N2228 H2234 0.984 1_455 S
N2228 H2235 0.984 1_455 S
N2229 C2222 1.356 . S
N2229 H2232 0.984 . S
N2229 H2233 0.985 . S
H2230 N2225 0.984 . S
H2231 N2225 0.985 . S
H2232 N2229 0.984 . S
H2233 N2229 0.985 . S
H2234 N2228 0.984 1_655 S
H2235 N2228 0.984 1_655 S
H2236 N2224 0.984 . S
H2237 N2224 0.985 . S
C2238 C2239 1.363 . S
C2238 C2244 1.379 . S
C2238 N2246 1.356 . S
C2239 C2238 1.363 . S
C2239 C2245 1.363 . S
C2240 C2241 1.363 . S
C2240 C2245 1.379 . S
C2240 N2247 1.356 . S
C2241 C2240 1.363 . S
C2241 C2244 1.363 . S
N2242 C2244 1.356 1_565 S
N2242 H2254 0.984 . S
N2242 H2255 0.985 . S
N2243 C2245 1.356 . S
N2243 H2248 0.984 . S
N2243 H2249 0.985 . S
C2244 C2238 1.379 . S
C2244 C2241 1.363 . S
C2244 N2242 1.356 1_545 S
C2245 C2239 1.363 . S
C2245 C2240 1.379 . S
C2245 N2243 1.356 . S
N2246 C2238 1.356 . S
N2246 H2252 0.984 1_655 S
N2246 H2253 0.984 1_655 S
N2247 C2240 1.356 . S
N2247 H2250 0.984 . S
N2247 H2251 0.985 . S
H2248 N2243 0.984 . S
H2249 N2243 0.985 . S
H2250 N2247 0.984 . S
H2251 N2247 0.985 . S
H2252 N2246 0.984 1_455 S
H2253 N2246 0.984 1_455 S
H2254 N2242 0.984 . S
H2255 N2242 0.985 . S
C2256 C2257 1.363 . S
C2256 C2262 1.379 . S
C2256 N2264 1.356 . S
C2257 C2256 1.363 . S
C2257 C2263 1.363 . S
C2258 C2259 1.363 . S
C2258 C2263 1.379 . S
C2258 N2265 1.356 . S
C2259 C2258 1.363 . S
C2259 C2262 1.363 . S
N2260 C2262 1.356 . S
N2260 H2272 0.984 . S
N2260 H2273 0.985 . S
N2261 C2263 1.356 . S
N2261 H2266 0.984 . S
N2261 H2267 0.985 . S
C2262 C2256 1.379 . S
C2262 C2259 1.363 . S
C2262 N2260 1.356 . S
C2263 C2257 1.363 . S
C2263 C2258 1.379 . S
C2263 N2261 1.356 . S
N2264 C2256 1.356 . S
N2264 H2270 0.984 . S
N2264 H2271 0.984 . S
N2265 C2258 1.356 . S
N2265 H2268 0.984 . S
N2265 H2269 0.985 . S
H2266 N2261 0.984 . S
H2267 N2261 0.985 . S
H2268 N2265 0.984 . S
H2269 N2265 0.985 . S
H2270 N2264 0.984 . S
H2271 N2264 0.984 . S
H2272 N2260 0.984 . S
H2273 N2260 0.985 . S
C2274 C2275 1.363 . S
C2274 C2280 1.379 . S
C2274 N2282 1.356 . S
C2275 C2274 1.363 . S
C2275 C2281 1.363 . S
C2276 C2277 1.363 . S
C2276 C2281 1.379 . S
C2276 N2283 1.356 1_655 S
C2277 C2276 1.363 . S
C2277 C2280 1.363 . S
N2278 C2280 1.356 . S
N2278 H2290 0.984 . S
N2278 H2291 0.985 . S
N2279 C2281 1.356 . S
N2279 H2284 0.984 . S
N2279 H2285 0.985 . S
C2280 C2274 1.379 . S
C2280 C2277 1.363 . S
C2280 N2278 1.356 . S
C2281 C2275 1.363 . S
C2281 C2276 1.379 . S
C2281 N2279 1.356 . S
N2282 C2274 1.356 . S
N2282 H2288 0.984 . S
N2282 H2289 0.984 . S
N2283 C2276 1.356 1_455 S
N2283 H2286 0.984 . S
N2283 H2287 0.985 . S
H2284 N2279 0.984 . S
H2285 N2279 0.985 . S
H2286 N2283 0.984 . S
H2287 N2283 0.985 . S
H2288 N2282 0.984 . S
H2289 N2282 0.984 . S
H2290 N2278 0.984 . S
H2291 N2278 0.985 . S
C2292 C2293 1.363 . S
C2292 C2298 1.379 . S
C2292 N2300 1.356 . S
C2293 C2292 1.363 . S
C2293 C2299 1.363 . S
C2294 C2295 1.363 . S
C2294 C2299 1.379 . S
C2294 N2301 1.356 . S
C2295 C2294 1.363 . S
C2295 C2298 1.363 . S
N2296 C2298 1.356 . S
N2296 H2308 0.984 . S
N2296 H2309 0.985 . S
N2297 C2299 1.356 . S
N2297 H2302 0.984 . S
N2297 H2303 0.985 . S
C2298 C2292 1.379 . S
C2298 C2295 1.363 . S
C2298 N2296 1.356 . S
C2299 C2293 1.363 . S
C2299 C2294 1.379 . S
C2299 N2297 1.356 . S
N2300 C2292 1.356 . S
N2300 H2306 0.984 . S
N2300 H2307 0.984 . S
N2301 C2294 1.356 . S
N2301 H2304 0.984 . S
N2301 H2305 0.985 . S
H2302 N2297 0.984 . S
H2303 N2297 0.985 . S
H2304 N2301 0.984 . S
H2305 N2301 0.985 . S
H2306 N2300 0.984 . S
H2307 N2300 0.984 . S
H2308 N2296 0.984 . S
H2309 N2296 0.985 . S
C2310 C2311 1.363 . S
C2310 C2316 1.379 . S
C2310 N2318 1.356 . S
C2311 C2310 1.363 . S
C2311 C2317 1.363 . S
C2312 C2313 1.363 . S
C2312 C2317 1.379 . S
C2312 N2319 1.356 . S
C2313 C2312 1.363 . S
C2313 C2316 1.363 . S
N2314 C2316 1.356 1_655 S
N2314 H2326 0.984 . S
N2314 H2327 0.985 . S
N2315 C2317 1.356 . S
N2315 H2320 0.984 . S
N2315 H2321 0.985 . S
C2316 C2310 1.379 . S
C2316 C2313 1.363 . S
C2316 N2314 1.356 1_455 S
C2317 C2311 1.363 . S
C2317 C2312 1.379 . S
C2317 N2315 1.356 . S
N2318 C2310 1.356 . S
N2318 H2324 0.984 . S
N2318 H2325 0.984 . S
N2319 C2312 1.356 . S
N2319 H2322 0.984 . S
N2319 H2323 0.985 . S
H2320 N2315 0.984 . S
H2321 N2315 0.985 . S
H2322 N2319 0.984 . S
H2323 N2319 0.985 . S
H2324 N2318 0.984 . S
H2325 N2318 0.984 . S
H2326 N2314 0.984 . S
H2327 N2314 0.985 . S
C2328 C2329 1.363 . S
C2328 C2334 1.379 . S
C2328 N2336 1.356 . S
C2329 C2328 1.363 . S
C2329 C2335 1.363 . S
C2330 C2331 1.363 . S
C2330 C2335 1.379 . S
C2330 N2337 1.356 . S
C2331 C2330 1.363 . S
C2331 C2334 1.363 . S
N2332 C2334 1.356 . S
N2332 H2344 0.984 . S
N2332 H2345 0.985 . S
N2333 C2335 1.356 . S
N2333 H2338 0.984 . S
N2333 H2339 0.985 . S
C2334 C2328 1.379 . S
C2334 C2331 1.363 . S
C2334 N2332 1.356 . S
C2335 C2329 1.363 . S
C2335 C2330 1.379 . S
C2335 N2333 1.356 . S
N2336 C2328 1.356 . S
N2336 H2342 0.984 . S
N2336 H2343 0.984 . S
N2337 C2330 1.356 . S
N2337 H2340 0.984 . S
N2337 H2341 0.985 . S
H2338 N2333 0.984 . S
H2339 N2333 0.985 . S
H2340 N2337 0.984 . S
H2341 N2337 0.985 . S
H2342 N2336 0.984 . S
H2343 N2336 0.984 . S
H2344 N2332 0.984 . S
H2345 N2332 0.985 . S
C2346 C2347 1.363 . S
C2346 C2352 1.379 . S
C2346 N2354 1.356 . S
C2347 C2346 1.363 . S
C2347 C2353 1.363 . S
C2348 C2349 1.363 . S
C2348 C2353 1.379 . S
C2348 N2355 1.356 . S
C2349 C2348 1.363 . S
C2349 C2352 1.363 . S
N2350 C2352 1.356 . S
N2350 H2362 0.984 . S
N2350 H2363 0.985 . S
N2351 C2353 1.356 . S
N2351 H2356 0.984 . S
N2351 H2357 0.985 . S
C2352 C2346 1.379 . S
C2352 C2349 1.363 . S
C2352 N2350 1.356 . S
C2353 C2347 1.363 . S
C2353 C2348 1.379 . S
C2353 N2351 1.356 . S
N2354 C2346 1.356 . S
N2354 H2360 0.984 . S
N2354 H2361 0.984 . S
N2355 C2348 1.356 . S
N2355 H2358 0.984 . S
N2355 H2359 0.985 . S
H2356 N2351 0.984 . S
H2357 N2351 0.985 . S
H2358 N2355 0.984 . S
H2359 N2355 0.985 . S
H2360 N2354 0.984 . S
H2361 N2354 0.984 . S
H2362 N2350 0.984 . S
H2363 N2350 0.985 . S
C2364 C2365 1.363 . S
C2364 C2370 1.379 . S
C2364 N2372 1.356 . S
C2365 C2364 1.363 . S
C2365 C2371 1.363 . S
C2366 C2367 1.363 . S
C2366 C2371 1.379 . S
C2366 N2373 1.356 . S
C2367 C2366 1.363 . S
C2367 C2370 1.363 . S
N2368 C2370 1.356 . S
N2368 H2380 0.984 . S
N2368 H2381 0.985 . S
N2369 C2371 1.356 . S
N2369 H2374 0.984 . S
N2369 H2375 0.985 . S
C2370 C2364 1.379 . S
C2370 C2367 1.363 . S
C2370 N2368 1.356 . S
C2371 C2365 1.363 . S
C2371 C2366 1.379 . S
C2371 N2369 1.356 . S
N2372 C2364 1.356 . S
N2372 H2378 0.984 . S
N2372 H2379 0.984 . S
N2373 C2366 1.356 . S
N2373 H2376 0.984 . S
N2373 H2377 0.985 . S
H2374 N2369 0.984 . S
H2375 N2369 0.985 . S
H2376 N2373 0.984 . S
H2377 N2373 0.985 . S
H2378 N2372 0.984 . S
H2379 N2372 0.984 . S
H2380 N2368 0.984 . S
H2381 N2368 0.985 . S
C2382 C2383 1.363 . S
C2382 C2388 1.379 . S
C2382 N2390 1.356 . S
C2383 C2382 1.363 . S
C2383 C2389 1.363 . S
C2384 C2385 1.363 . S
C2384 C2389 1.379 . S
C2384 N2391 1.356 . S
C2385 C2384 1.363 . S
C2385 C2388 1.363 . S
N2386 C2388 1.356 . S
N2386 H2398 0.984 . S
N2386 H2399 0.985 . S
N2387 C2389 1.356 . S
N2387 H2392 0.984 . S
N2387 H2393 0.985 . S
C2388 C2382 1.379 . S
C2388 C2385 1.363 . S
C2388 N2386 1.356 . S
C2389 C2383 1.363 . S
C2389 C2384 1.379 . S
C2389 N2387 1.356 . S
N2390 C2382 1.356 . S
N2390 H2396 0.984 . S
N2390 H2397 0.984 . S
N2391 C2384 1.356 . S
N2391 H2394 0.984 . S
N2391 H2395 0.985 . S
H2392 N2387 0.984 . S
H2393 N2387 0.985 . S
H2394 N2391 0.984 . S
H2395 N2391 0.985 . S
H2396 N2390 0.984 . S
H2397 N2390 0.984 . S
H2398 N2386 0.984 . S
H2399 N2386 0.985 . S
C2400 C2401 1.363 . S
C2400 C2406 1.379 . S
C2400 N2408 1.356 . S
C2401 C2400 1.363 . S
C2401 C2407 1.363 . S
C2402 C2403 1.363 . S
C2402 C2407 1.379 . S
C2402 N2409 1.356 . S
C2403 C2402 1.363 . S
C2403 C2406 1.363 . S
N2404 C2406 1.356 . S
N2404 H2416 0.984 . S
N2404 H2417 0.985 . S
N2405 C2407 1.356 . S
N2405 H2410 0.984 . S
N2405 H2411 0.985 . S
C2406 C2400 1.379 . S
C2406 C2403 1.363 . S
C2406 N2404 1.356 . S
C2407 C2401 1.363 . S
C2407 C2402 1.379 . S
C2407 N2405 1.356 . S
N2408 C2400 1.356 . S
N2408 H2414 0.984 . S
N2408 H2415 0.984 . S
N2409 C2402 1.356 . S
N2409 H2412 0.984 . S
N2409 H2413 0.985 . S
H2410 N2405 0.984 . S
H2411 N2405 0.985 . S
H2412 N2409 0.984 . S
H2413 N2409 0.985 . S
H2414 N2408 0.984 . S
H2415 N2408 0.984 . S
H2416 N2404 0.984 . S
H2417 N2404 0.985 . S
C2418 C2419 1.363 . S
C2418 C2424 1.379 . S
C2418 N2426 1.356 . S
C2419 C2418 1.363 . S
C2419 C2425 1.363 . S
C2420 C2421 1.363 . S
C2420 C2425 1.379 . S
C2420 N2427 1.356 . S
C2421 C2420 1.363 . S
C2421 C2424 1.363 . S
N2422 C2424 1.356 1_565 S
N2422 H2434 0.984 . S
N2422 H2435 0.985 . S
N2423 C2425 1.356 . S
N2423 H2428 0.984 . S
N2423 H2429 0.985 . S
C2424 C2418 1.379 . S
C2424 C2421 1.363 . S
C2424 N2422 1.356 1_545 S
C2425 C2419 1.363 . S
C2425 C2420 1.379 . S
C2425 N2423 1.356 . S
N2426 C2418 1.356 . S
N2426 H2432 0.984 . S
N2426 H2433 0.984 . S
N2427 C2420 1.356 . S
N2427 H2430 0.984 . S
N2427 H2431 0.985 . S
H2428 N2423 0.984 . S
H2429 N2423 0.985 . S
H2430 N2427 0.984 . S
H2431 N2427 0.985 . S
H2432 N2426 0.984 . S
H2433 N2426 0.984 . S
H2434 N2422 0.984 . S
H2435 N2422 0.985 . S
C2436 C2437 1.363 . S
C2436 C2442 1.379 . S
C2436 N2444 1.356 . S
C2437 C2436 1.363 . S
C2437 C2443 1.363 . S
C2438 C2439 1.363 . S
C2438 C2443 1.379 . S
C2438 N2445 1.356 . S
C2439 C2438 1.363 . S
C2439 C2442 1.363 . S
N2440 C2442 1.356 . S
N2440 H2452 0.984 . S
N2440 H2453 0.985 . S
N2441 C2443 1.356 . S
N2441 H2446 0.984 . S
N2441 H2447 0.985 . S
C2442 C2436 1.379 . S
C2442 C2439 1.363 . S
C2442 N2440 1.356 . S
C2443 C2437 1.363 . S
C2443 C2438 1.379 . S
C2443 N2441 1.356 . S
N2444 C2436 1.356 . S
N2444 H2450 0.984 . S
N2444 H2451 0.984 . S
N2445 C2438 1.356 . S
N2445 H2448 0.984 . S
N2445 H2449 0.985 . S
H2446 N2441 0.984 . S
H2447 N2441 0.985 . S
H2448 N2445 0.984 . S
H2449 N2445 0.985 . S
H2450 N2444 0.984 . S
H2451 N2444 0.984 . S
H2452 N2440 0.984 . S
H2453 N2440 0.985 . S
C2454 C2455 1.363 . S
C2454 C2460 1.379 . S
C2454 N2462 1.356 . S
C2455 C2454 1.363 . S
C2455 C2461 1.363 . S
C2456 C2457 1.363 . S
C2456 C2461 1.379 . S
C2456 N2463 1.356 . S
C2457 C2456 1.363 . S
C2457 C2460 1.363 . S
N2458 C2460 1.356 . S
N2458 H2470 0.984 . S
N2458 H2471 0.985 . S
N2459 C2461 1.356 . S
N2459 H2464 0.984 . S
N2459 H2465 0.985 . S
C2460 C2454 1.379 . S
C2460 C2457 1.363 . S
C2460 N2458 1.356 . S
C2461 C2455 1.363 . S
C2461 C2456 1.379 . S
C2461 N2459 1.356 . S
N2462 C2454 1.356 . S
N2462 H2468 0.984 . S
N2462 H2469 0.984 . S
N2463 C2456 1.356 . S
N2463 H2466 0.984 . S
N2463 H2467 0.985 . S
H2464 N2459 0.984 . S
H2465 N2459 0.985 . S
H2466 N2463 0.984 . S
H2467 N2463 0.985 . S
H2468 N2462 0.984 . S
H2469 N2462 0.984 . S
H2470 N2458 0.984 . S
H2471 N2458 0.985 . S
C2472 C2473 1.363 . S
C2472 C2478 1.379 . S
C2472 N2480 1.356 . S
C2473 C2472 1.363 . S
C2473 C2479 1.363 . S
C2474 C2475 1.363 . S
C2474 C2479 1.379 . S
C2474 N2481 1.356 . S
C2475 C2474 1.363 . S
C2475 C2478 1.363 . S
N2476 C2478 1.356 . S
N2476 H2488 0.984 . S
N2476 H2489 0.985 . S
N2477 C2479 1.356 . S
N2477 H2482 0.984 . S
N2477 H2483 0.985 . S
C2478 C2472 1.379 . S
C2478 C2475 1.363 . S
C2478 N2476 1.356 . S
C2479 C2473 1.363 . S
C2479 C2474 1.379 . S
C2479 N2477 1.356 . S
N2480 C2472 1.356 . S
N2480 H2486 0.984 . S
N2480 H2487 0.984 . S
N2481 C2474 1.356 . S
N2481 H2484 0.984 . S
N2481 H2485 0.985 . S
H2482 N2477 0.984 . S
H2483 N2477 0.985 . S
H2484 N2481 0.984 . S
H2485 N2481 0.985 . S
H2486 N2480 0.984 . S
H2487 N2480 0.984 . S
H2488 N2476 0.984 . S
H2489 N2476 0.985 . S
C2490 C2491 1.363 . S
C2490 C2496 1.379 . S
C2490 N2498 1.356 . S
C2491 C2490 1.363 . S
C2491 C2497 1.363 . S
C2492 C2493 1.363 . S
C2492 C2497 1.379 . S
C2492 N2499 1.356 . S
C2493 C2492 1.363 . S
C2493 C2496 1.363 . S
N2494 C2496 1.356 . S
N2494 H2506 0.984 . S
N2494 H2507 0.985 . S
N2495 C2497 1.356 1_565 S
N2495 H2500 0.984 . S
N2495 H2501 0.985 . S
C2496 C2490 1.379 . S
C2496 C2493 1.363 . S
C2496 N2494 1.356 . S
C2497 C2491 1.363 . S
C2497 C2492 1.379 . S
C2497 N2495 1.356 1_545 S
N2498 C2490 1.356 . S
N2498 H2504 0.984 . S
N2498 H2505 0.984 . S
N2499 C2492 1.356 . S
N2499 H2502 0.984 . S
N2499 H2503 0.985 . S
H2500 N2495 0.984 . S
H2501 N2495 0.985 . S
H2502 N2499 0.984 . S
H2503 N2499 0.985 . S
H2504 N2498 0.984 . S
H2505 N2498 0.984 . S
H2506 N2494 0.984 . S
H2507 N2494 0.985 . S
C2508 C2509 1.363 . S
C2508 C2514 1.379 . S
C2508 N2516 1.356 . S
C2509 C2508 1.363 . S
C2509 C2515 1.363 . S
C2510 C2511 1.363 . S
C2510 C2515 1.379 . S
C2510 N2517 1.356 . S
C2511 C2510 1.363 . S
C2511 C2514 1.363 . S
N2512 C2514 1.356 . S
N2512 H2524 0.984 . S
N2512 H2525 0.985 . S
N2513 C2515 1.356 . S
N2513 H2518 0.984 . S
N2513 H2519 0.985 . S
C2514 C2508 1.379 . S
C2514 C2511 1.363 . S
C2514 N2512 1.356 . S
C2515 C2509 1.363 . S
C2515 C2510 1.379 . S
C2515 N2513 1.356 . S
N2516 C2508 1.356 . S
N2516 H2522 0.984 . S
N2516 H2523 0.984 . S
N2517 C2510 1.356 . S
N2517 H2520 0.984 . S
N2517 H2521 0.985 . S
H2518 N2513 0.984 . S
H2519 N2513 0.985 . S
H2520 N2517 0.984 . S
H2521 N2517 0.985 . S
H2522 N2516 0.984 . S
H2523 N2516 0.984 . S
H2524 N2512 0.984 . S
H2525 N2512 0.985 . S
C2526 C2527 1.363 . S
C2526 C2532 1.379 . S
C2526 N2534 1.356 . S
C2527 C2526 1.363 . S
C2527 C2533 1.363 . S
C2528 C2529 1.363 . S
C2528 C2533 1.379 . S
C2528 N2535 1.356 . S
C2529 C2528 1.363 . S
C2529 C2532 1.363 . S
N2530 C2532 1.356 . S
N2530 H2542 0.984 . S
N2530 H2543 0.985 . S
N2531 C2533 1.356 . S
N2531 H2536 0.984 . S
N2531 H2537 0.985 . S
C2532 C2526 1.379 . S
C2532 C2529 1.363 . S
C2532 N2530 1.356 . S
C2533 C2527 1.363 . S
C2533 C2528 1.379 . S
C2533 N2531 1.356 . S
N2534 C2526 1.356 . S
N2534 H2540 0.984 . S
N2534 H2541 0.984 . S
N2535 C2528 1.356 . S
N2535 H2538 0.984 . S
N2535 H2539 0.985 . S
H2536 N2531 0.984 . S
H2537 N2531 0.985 . S
H2538 N2535 0.984 . S
H2539 N2535 0.985 . S
H2540 N2534 0.984 . S
H2541 N2534 0.984 . S
H2542 N2530 0.984 . S
H2543 N2530 0.985 . S
C2544 C2545 1.363 . S
C2544 C2550 1.379 . S
C2544 N2552 1.356 . S
C2545 C2544 1.363 . S
C2545 C2551 1.363 . S
C2546 C2547 1.363 . S
C2546 C2551 1.379 . S
C2546 N2553 1.356 . S
C2547 C2546 1.363 . S
C2547 C2550 1.363 . S
N2548 C2550 1.356 . S
N2548 H2560 0.984 . S
N2548 H2561 0.985 . S
N2549 C2551 1.356 . S
N2549 H2554 0.984 . S
N2549 H2555 0.985 . S
C2550 C2544 1.379 . S
C2550 C2547 1.363 . S
C2550 N2548 1.356 . S
C2551 C2545 1.363 . S
C2551 C2546 1.379 . S
C2551 N2549 1.356 . S
N2552 C2544 1.356 . S
N2552 H2558 0.984 . S
N2552 H2559 0.984 . S
N2553 C2546 1.356 . S
N2553 H2556 0.984 . S
N2553 H2557 0.985 . S
H2554 N2549 0.984 . S
H2555 N2549 0.985 . S
H2556 N2553 0.984 . S
H2557 N2553 0.985 . S
H2558 N2552 0.984 . S
H2559 N2552 0.984 . S
H2560 N2548 0.984 . S
H2561 N2548 0.985 . S
C2562 C2563 1.363 . S
C2562 C2568 1.379 . S
C2562 N2570 1.356 . S
C2563 C2562 1.363 . S
C2563 C2569 1.363 . S
C2564 C2565 1.363 . S
C2564 C2569 1.379 . S
C2564 N2571 1.356 . S
C2565 C2564 1.363 . S
C2565 C2568 1.363 . S
N2566 C2568 1.356 . S
N2566 H2578 0.984 . S
N2566 H2579 0.985 . S
N2567 C2569 1.356 . S
N2567 H2572 0.984 . S
N2567 H2573 0.985 . S
C2568 C2562 1.379 . S
C2568 C2565 1.363 . S
C2568 N2566 1.356 . S
C2569 C2563 1.363 . S
C2569 C2564 1.379 . S
C2569 N2567 1.356 . S
N2570 C2562 1.356 . S
N2570 H2576 0.984 . S
N2570 H2577 0.984 . S
N2571 C2564 1.356 . S
N2571 H2574 0.984 . S
N2571 H2575 0.985 . S
H2572 N2567 0.984 . S
H2573 N2567 0.985 . S
H2574 N2571 0.984 . S
H2575 N2571 0.985 . S
H2576 N2570 0.984 . S
H2577 N2570 0.984 . S
H2578 N2566 0.984 . S
H2579 N2566 0.985 . S
C2580 C2581 1.363 . S
C2580 C2586 1.379 . S
C2580 N2588 1.356 1_545 S
C2581 C2580 1.363 . S
C2581 C2587 1.363 . S
C2582 C2583 1.363 . S
C2582 C2587 1.379 . S
C2582 N2589 1.356 . S
C2583 C2582 1.363 . S
C2583 C2586 1.363 . S
N2584 C2586 1.356 . S
N2584 H2596 0.984 . S
N2584 H2597 0.985 . S
N2585 C2587 1.356 . S
N2585 H2590 0.984 . S
N2585 H2591 0.985 . S
C2586 C2580 1.379 . S
C2586 C2583 1.363 . S
C2586 N2584 1.356 . S
C2587 C2581 1.363 . S
C2587 C2582 1.379 . S
C2587 N2585 1.356 . S
N2588 C2580 1.356 1_565 S
N2588 H2594 0.984 . S
N2588 H2595 0.984 . S
N2589 C2582 1.356 . S
N2589 H2592 0.984 . S
N2589 H2593 0.985 . S
H2590 N2585 0.984 . S
H2591 N2585 0.985 . S
H2592 N2589 0.984 . S
H2593 N2589 0.985 . S
H2594 N2588 0.984 . S
H2595 N2588 0.984 . S
H2596 N2584 0.984 . S
H2597 N2584 0.985 . S
C2598 C2599 1.363 . S
C2598 C2604 1.379 . S
C2598 N2606 1.356 . S
C2599 C2598 1.363 . S
C2599 C2605 1.363 . S
C2600 C2601 1.363 . S
C2600 C2605 1.379 . S
C2600 N2607 1.356 . S
C2601 C2600 1.363 . S
C2601 C2604 1.363 . S
N2602 C2604 1.356 . S
N2602 H2614 0.984 . S
N2602 H2615 0.985 . S
N2603 C2605 1.356 . S
N2603 H2608 0.984 . S
N2603 H2609 0.985 . S
C2604 C2598 1.379 . S
C2604 C2601 1.363 . S
C2604 N2602 1.356 . S
C2605 C2599 1.363 . S
C2605 C2600 1.379 . S
C2605 N2603 1.356 . S
N2606 C2598 1.356 . S
N2606 H2612 0.984 . S
N2606 H2613 0.984 . S
N2607 C2600 1.356 . S
N2607 H2610 0.984 . S
N2607 H2611 0.985 . S
H2608 N2603 0.984 . S
H2609 N2603 0.985 . S
H2610 N2607 0.984 . S
H2611 N2607 0.985 . S
H2612 N2606 0.984 . S
H2613 N2606 0.984 . S
H2614 N2602 0.984 . S
H2615 N2602 0.985 . S
C2616 C2617 1.363 . S
C2616 C2622 1.379 . S
C2616 N2624 1.356 . S
C2617 C2616 1.363 . S
C2617 C2623 1.363 . S
C2618 C2619 1.363 . S
C2618 C2623 1.379 . S
C2618 N2625 1.356 . S
C2619 C2618 1.363 . S
C2619 C2622 1.363 . S
N2620 C2622 1.356 . S
N2620 H2632 0.984 . S
N2620 H2633 0.985 . S
N2621 C2623 1.356 1_545 S
N2621 H2626 0.984 . S
N2621 H2627 0.985 . S
C2622 C2616 1.379 . S
C2622 C2619 1.363 . S
C2622 N2620 1.356 . S
C2623 C2617 1.363 . S
C2623 C2618 1.379 . S
C2623 N2621 1.356 1_565 S
N2624 C2616 1.356 . S
N2624 H2630 0.984 . S
N2624 H2631 0.984 . S
N2625 C2618 1.356 . S
N2625 H2628 0.984 1_655 S
N2625 H2629 0.985 1_655 S
H2626 N2621 0.984 . S
H2627 N2621 0.985 . S
H2628 N2625 0.984 1_455 S
H2629 N2625 0.985 1_455 S
H2630 N2624 0.984 . S
H2631 N2624 0.984 . S
H2632 N2620 0.984 . S
H2633 N2620 0.985 . S
C2634 C2635 1.363 . S
C2634 C2640 1.379 . S
C2634 N2642 1.356 . S
C2635 C2634 1.363 . S
C2635 C2641 1.363 . S
C2636 C2637 1.363 . S
C2636 C2641 1.379 . S
C2636 N2643 1.356 . S
C2637 C2636 1.363 . S
C2637 C2640 1.363 . S
N2638 C2640 1.356 . S
N2638 H2650 0.984 . S
N2638 H2651 0.985 . S
N2639 C2641 1.356 . S
N2639 H2644 0.984 . S
N2639 H2645 0.985 . S
C2640 C2634 1.379 . S
C2640 C2637 1.363 . S
C2640 N2638 1.356 . S
C2641 C2635 1.363 . S
C2641 C2636 1.379 . S
C2641 N2639 1.356 . S
N2642 C2634 1.356 . S
N2642 H2648 0.984 . S
N2642 H2649 0.984 . S
N2643 C2636 1.356 . S
N2643 H2646 0.984 . S
N2643 H2647 0.985 . S
H2644 N2639 0.984 . S
H2645 N2639 0.985 . S
H2646 N2643 0.984 . S
H2647 N2643 0.985 . S
H2648 N2642 0.984 . S
H2649 N2642 0.984 . S
H2650 N2638 0.984 . S
H2651 N2638 0.985 . S
C2652 C2653 1.363 . S
C2652 C2658 1.379 . S
C2652 N2660 1.356 . S
C2653 C2652 1.363 . S
C2653 C2659 1.363 . S
C2654 C2655 1.363 . S
C2654 C2659 1.379 . S
C2654 N2661 1.356 1_565 S
C2655 C2654 1.363 . S
C2655 C2658 1.363 . S
N2656 C2658 1.356 . S
N2656 H2668 0.984 . S
N2656 H2669 0.985 . S
N2657 C2659 1.356 . S
N2657 H2662 0.984 . S
N2657 H2663 0.985 . S
C2658 C2652 1.379 . S
C2658 C2655 1.363 . S
C2658 N2656 1.356 . S
C2659 C2653 1.363 . S
C2659 C2654 1.379 . S
C2659 N2657 1.356 . S
N2660 C2652 1.356 . S
N2660 H2666 0.984 . S
N2660 H2667 0.984 . S
N2661 C2654 1.356 1_545 S
N2661 H2664 0.984 . S
N2661 H2665 0.985 . S
H2662 N2657 0.984 . S
H2663 N2657 0.985 . S
H2664 N2661 0.984 . S
H2665 N2661 0.985 . S
H2666 N2660 0.984 . S
H2667 N2660 0.984 . S
H2668 N2656 0.984 . S
H2669 N2656 0.985 . S
C2670 C2671 1.363 . S
C2670 C2676 1.379 . S
C2670 N2678 1.356 . S
C2671 C2670 1.363 . S
C2671 C2677 1.363 . S
C2672 C2673 1.363 . S
C2672 C2677 1.379 . S
C2672 N2679 1.356 . S
C2673 C2672 1.363 . S
C2673 C2676 1.363 . S
N2674 C2676 1.356 . S
N2674 H2686 0.984 . S
N2674 H2687 0.985 . S
N2675 C2677 1.356 . S
N2675 H2680 0.984 . S
N2675 H2681 0.985 . S
C2676 C2670 1.379 . S
C2676 C2673 1.363 . S
C2676 N2674 1.356 . S
C2677 C2671 1.363 . S
C2677 C2672 1.379 . S
C2677 N2675 1.356 . S
N2678 C2670 1.356 . S
N2678 H2684 0.984 . S
N2678 H2685 0.984 . S
N2679 C2672 1.356 . S
N2679 H2682 0.984 . S
N2679 H2683 0.985 . S
H2680 N2675 0.984 . S
H2681 N2675 0.985 . S
H2682 N2679 0.984 . S
H2683 N2679 0.985 . S
H2684 N2678 0.984 . S
H2685 N2678 0.984 . S
H2686 N2674 0.984 . S
H2687 N2674 0.985 . S
C2688 C2689 1.363 . S
C2688 C2694 1.379 . S
C2688 N2696 1.356 . S
C2689 C2688 1.363 . S
C2689 C2695 1.363 . S
C2690 C2691 1.363 . S
C2690 C2695 1.379 . S
C2690 N2697 1.356 . S
C2691 C2690 1.363 . S
C2691 C2694 1.363 . S
N2692 C2694 1.356 . S
N2692 H2704 0.984 . S
N2692 H2705 0.985 . S
N2693 C2695 1.356 . S
N2693 H2698 0.984 . S
N2693 H2699 0.985 . S
C2694 C2688 1.379 . S
C2694 C2691 1.363 . S
C2694 N2692 1.356 . S
C2695 C2689 1.363 . S
C2695 C2690 1.379 . S
C2695 N2693 1.356 . S
N2696 C2688 1.356 . S
N2696 H2702 0.984 . S
N2696 H2703 0.984 . S
N2697 C2690 1.356 . S
N2697 H2700 0.984 . S
N2697 H2701 0.985 . S
H2698 N2693 0.984 . S
H2699 N2693 0.985 . S
H2700 N2697 0.984 . S
H2701 N2697 0.985 . S
H2702 N2696 0.984 . S
H2703 N2696 0.984 . S
H2704 N2692 0.984 . S
H2705 N2692 0.985 . S
C2706 C2707 1.363 . S
C2706 C2712 1.379 . S
C2706 N2714 1.356 . S
C2707 C2706 1.363 . S
C2707 C2713 1.363 . S
C2708 C2709 1.363 . S
C2708 C2713 1.379 . S
C2708 N2715 1.356 . S
C2709 C2708 1.363 . S
C2709 C2712 1.363 . S
N2710 C2712 1.356 . S
N2710 H2722 0.984 . S
N2710 H2723 0.985 . S
N2711 C2713 1.356 . S
N2711 H2716 0.984 . S
N2711 H2717 0.985 . S
C2712 C2706 1.379 . S
C2712 C2709 1.363 . S
C2712 N2710 1.356 . S
C2713 C2707 1.363 . S
C2713 C2708 1.379 . S
C2713 N2711 1.356 . S
N2714 C2706 1.356 . S
N2714 H2720 0.984 . S
N2714 H2721 0.984 . S
N2715 C2708 1.356 . S
N2715 H2718 0.984 . S
N2715 H2719 0.985 . S
H2716 N2711 0.984 . S
H2717 N2711 0.985 . S
H2718 N2715 0.984 . S
H2719 N2715 0.985 . S
H2720 N2714 0.984 . S
H2721 N2714 0.984 . S
H2722 N2710 0.984 . S
H2723 N2710 0.985 . S
C2724 C2725 1.363 . S
C2724 C2730 1.379 . S
C2724 N2732 1.356 . S
C2725 C2724 1.363 . S
C2725 C2731 1.363 . S
C2726 C2727 1.363 . S
C2726 C2731 1.379 . S
C2726 N2733 1.356 . S
C2727 C2726 1.363 . S
C2727 C2730 1.363 . S
N2728 C2730 1.356 . S
N2728 H2740 0.984 . S
N2728 H2741 0.985 . S
N2729 C2731 1.356 . S
N2729 H2734 0.984 . S
N2729 H2735 0.985 . S
C2730 C2724 1.379 . S
C2730 C2727 1.363 . S
C2730 N2728 1.356 . S
C2731 C2725 1.363 . S
C2731 C2726 1.379 . S
C2731 N2729 1.356 . S
N2732 C2724 1.356 . S
N2732 H2738 0.984 . S
N2732 H2739 0.984 . S
N2733 C2726 1.356 . S
N2733 H2736 0.984 . S
N2733 H2737 0.985 . S
H2734 N2729 0.984 . S
H2735 N2729 0.985 . S
H2736 N2733 0.984 . S
H2737 N2733 0.985 . S
H2738 N2732 0.984 . S
H2739 N2732 0.984 . S
H2740 N2728 0.984 . S
H2741 N2728 0.985 . S
C2742 C2743 1.363 . S
C2742 C2748 1.379 . S
C2742 N2750 1.356 . S
C2743 C2742 1.363 . S
C2743 C2749 1.363 . S
C2744 C2745 1.363 . S
C2744 C2749 1.379 . S
C2744 N2751 1.356 . S
C2745 C2744 1.363 . S
C2745 C2748 1.363 . S
N2746 C2748 1.356 . S
N2746 H2758 0.984 . S
N2746 H2759 0.985 . S
N2747 C2749 1.356 . S
N2747 H2752 0.984 . S
N2747 H2753 0.985 . S
C2748 C2742 1.379 . S
C2748 C2745 1.363 . S
C2748 N2746 1.356 . S
C2749 C2743 1.363 . S
C2749 C2744 1.379 . S
C2749 N2747 1.356 . S
N2750 C2742 1.356 . S
N2750 H2756 0.984 . S
N2750 H2757 0.984 . S
N2751 C2744 1.356 . S
N2751 H2754 0.984 . S
N2751 H2755 0.985 . S
H2752 N2747 0.984 . S
H2753 N2747 0.985 . S
H2754 N2751 0.984 . S
H2755 N2751 0.985 . S
H2756 N2750 0.984 . S
H2757 N2750 0.984 . S
H2758 N2746 0.984 . S
H2759 N2746 0.985 . S
C2760 C2761 1.363 . S
C2760 C2766 1.379 . S
C2760 N2768 1.356 . S
C2761 C2760 1.363 . S
C2761 C2767 1.363 . S
C2762 C2763 1.363 . S
C2762 C2767 1.379 . S
C2762 N2769 1.356 . S
C2763 C2762 1.363 . S
C2763 C2766 1.363 . S
N2764 C2766 1.356 . S
N2764 H2776 0.984 . S
N2764 H2777 0.985 . S
N2765 C2767 1.356 . S
N2765 H2770 0.984 . S
N2765 H2771 0.985 . S
C2766 C2760 1.379 . S
C2766 C2763 1.363 . S
C2766 N2764 1.356 . S
C2767 C2761 1.363 . S
C2767 C2762 1.379 . S
C2767 N2765 1.356 . S
N2768 C2760 1.356 . S
N2768 H2774 0.984 . S
N2768 H2775 0.984 . S
N2769 C2762 1.356 . S
N2769 H2772 0.984 . S
N2769 H2773 0.985 . S
H2770 N2765 0.984 . S
H2771 N2765 0.985 . S
H2772 N2769 0.984 . S
H2773 N2769 0.985 . S
H2774 N2768 0.984 . S
H2775 N2768 0.984 . S
H2776 N2764 0.984 . S
H2777 N2764 0.985 . S
C2778 C2779 1.363 . S
C2778 C2784 1.379 . S
C2778 N2786 1.356 . S
C2779 C2778 1.363 . S
C2779 C2785 1.363 . S
C2780 C2781 1.363 1_655 S
C2780 C2785 1.379 . S
C2780 N2787 1.356 . S
C2781 C2780 1.363 1_455 S
C2781 C2784 1.363 1_455 S
N2782 C2784 1.356 1_455 S
N2782 H2794 0.984 . S
N2782 H2795 0.985 . S
N2783 C2785 1.356 . S
N2783 H2788 0.984 . S
N2783 H2789 0.985 . S
C2784 C2778 1.379 . S
C2784 C2781 1.363 1_655 S
C2784 N2782 1.356 1_655 S
C2785 C2779 1.363 . S
C2785 C2780 1.379 . S
C2785 N2783 1.356 . S
N2786 C2778 1.356 . S
N2786 H2792 0.984 . S
N2786 H2793 0.984 . S
N2787 C2780 1.356 . S
N2787 H2790 0.984 1_655 S
N2787 H2791 0.985 . S
H2788 N2783 0.984 . S
H2789 N2783 0.985 . S
H2790 N2787 0.984 1_455 S
H2791 N2787 0.985 . S
H2792 N2786 0.984 . S
H2793 N2786 0.984 . S
H2794 N2782 0.984 . S
H2795 N2782 0.985 . S
C2796 C2797 1.363 . S
C2796 C2802 1.379 . S
C2796 N2804 1.356 . S
C2797 C2796 1.363 . S
C2797 C2803 1.363 . S
C2798 C2799 1.363 . S
C2798 C2803 1.379 . S
C2798 N2805 1.356 . S
C2799 C2798 1.363 . S
C2799 C2802 1.363 . S
N2800 C2802 1.356 . S
N2800 H2812 0.984 . S
N2800 H2813 0.985 . S
N2801 C2803 1.356 . S
N2801 H2806 0.984 . S
N2801 H2807 0.985 . S
C2802 C2796 1.379 . S
C2802 C2799 1.363 . S
C2802 N2800 1.356 . S
C2803 C2797 1.363 . S
C2803 C2798 1.379 . S
C2803 N2801 1.356 . S
N2804 C2796 1.356 . S
N2804 H2810 0.984 . S
N2804 H2811 0.984 . S
N2805 C2798 1.356 . S
N2805 H2808 0.984 . S
N2805 H2809 0.985 . S
H2806 N2801 0.984 . S
H2807 N2801 0.985 . S
H2808 N2805 0.984 . S
H2809 N2805 0.985 . S
H2810 N2804 0.984 . S
H2811 N2804 0.984 . S
H2812 N2800 0.984 . S
H2813 N2800 0.985 . S
C2814 C2815 1.363 1_455 S
C2814 C2820 1.379 . S
C2814 N2822 1.356 1_455 S
C2815 C2814 1.363 1_655 S
C2815 C2821 1.363 1_655 S
C2816 C2817 1.363 . S
C2816 C2821 1.379 . S
C2816 N2823 1.356 . S
C2817 C2816 1.363 . S
C2817 C2820 1.363 . S
N2818 C2820 1.356 . S
N2818 H2830 0.984 . S
N2818 H2831 0.985 . S
N2819 C2821 1.356 1_655 S
N2819 H2824 0.984 . S
N2819 H2825 0.985 . S
C2820 C2814 1.379 . S
C2820 C2817 1.363 . S
C2820 N2818 1.356 . S
C2821 C2815 1.363 1_455 S
C2821 C2816 1.379 . S
C2821 N2819 1.356 1_455 S
N2822 C2814 1.356 1_655 S
N2822 H2828 0.984 . S
N2822 H2829 0.984 . S
N2823 C2816 1.356 . S
N2823 H2826 0.984 . S
N2823 H2827 0.985 . S
H2824 N2819 0.984 . S
H2825 N2819 0.985 . S
H2826 N2823 0.984 . S
H2827 N2823 0.985 . S
H2828 N2822 0.984 . S
H2829 N2822 0.984 . S
H2830 N2818 0.984 . S
H2831 N2818 0.985 . S
C2832 C2833 1.363 . S
C2832 C2838 1.379 . S
C2832 N2840 1.356 . S
C2833 C2832 1.363 . S
C2833 C2839 1.363 . S
C2834 C2835 1.363 . S
C2834 C2839 1.379 . S
C2834 N2841 1.356 . S
C2835 C2834 1.363 . S
C2835 C2838 1.363 . S
N2836 C2838 1.356 . S
N2836 H2848 0.984 . S
N2836 H2849 0.985 . S
N2837 C2839 1.356 . S
N2837 H2842 0.984 . S
N2837 H2843 0.985 . S
C2838 C2832 1.379 . S
C2838 C2835 1.363 . S
C2838 N2836 1.356 . S
C2839 C2833 1.363 . S
C2839 C2834 1.379 . S
C2839 N2837 1.356 . S
N2840 C2832 1.356 . S
N2840 H2846 0.984 . S
N2840 H2847 0.984 . S
N2841 C2834 1.356 . S
N2841 H2844 0.984 . S
N2841 H2845 0.985 . S
H2842 N2837 0.984 . S
H2843 N2837 0.985 . S
H2844 N2841 0.984 . S
H2845 N2841 0.985 . S
H2846 N2840 0.984 . S
H2847 N2840 0.984 . S
H2848 N2836 0.984 . S
H2849 N2836 0.985 . S
C2850 C2851 1.363 1_556 S
C2850 C2856 1.379 . S
C2850 N2858 1.356 . S
C2851 C2850 1.363 1_554 S
C2851 C2857 1.363 . S
C2852 C2853 1.363 . S
C2852 C2857 1.379 1_556 S
C2852 N2859 1.356 . S
C2853 C2852 1.363 . S
C2853 C2856 1.363 . S
N2854 C2856 1.356 . S
N2854 H2866 0.984 . S
N2854 H2867 0.985 . S
N2855 C2857 1.356 . S
N2855 H2860 0.984 . S
N2855 H2861 0.985 . S
C2856 C2850 1.379 . S
C2856 C2853 1.363 . S
C2856 N2854 1.356 . S
C2857 C2851 1.363 . S
C2857 C2852 1.379 1_554 S
C2857 N2855 1.356 . S
N2858 C2850 1.356 . S
N2858 H2864 0.984 . S
N2858 H2865 0.984 1_556 S
N2859 C2852 1.356 . S
N2859 H2862 0.984 . S
N2859 H2863 0.985 . S
H2860 N2855 0.984 . S
H2861 N2855 0.985 . S
H2862 N2859 0.984 . S
H2863 N2859 0.985 . S
H2864 N2858 0.984 . S
H2865 N2858 0.984 1_554 S
H2866 N2854 0.984 . S
H2867 N2854 0.985 . S
C2868 C2869 1.363 . S
C2868 C2874 1.379 . S
C2868 N2876 1.356 . S
C2869 C2868 1.363 . S
C2869 C2875 1.363 . S
C2870 C2871 1.363 . S
C2870 C2875 1.379 . S
C2870 N2877 1.356 . S
C2871 C2870 1.363 . S
C2871 C2874 1.363 . S
N2872 C2874 1.356 . S
N2872 H2884 0.984 . S
N2872 H2885 0.985 . S
N2873 C2875 1.356 . S
N2873 H2878 0.984 . S
N2873 H2879 0.985 . S
C2874 C2868 1.379 . S
C2874 C2871 1.363 . S
C2874 N2872 1.356 . S
C2875 C2869 1.363 . S
C2875 C2870 1.379 . S
C2875 N2873 1.356 . S
N2876 C2868 1.356 . S
N2876 H2882 0.984 . S
N2876 H2883 0.984 . S
N2877 C2870 1.356 . S
N2877 H2880 0.984 . S
N2877 H2881 0.985 . S
H2878 N2873 0.984 . S
H2879 N2873 0.985 . S
H2880 N2877 0.984 . S
H2881 N2877 0.985 . S
H2882 N2876 0.984 . S
H2883 N2876 0.984 . S
H2884 N2872 0.984 . S
H2885 N2872 0.985 . S
C2886 C2887 1.363 . S
C2886 C2892 1.379 . S
C2886 N2894 1.356 . S
C2887 C2886 1.363 . S
C2887 C2893 1.363 . S
C2888 C2889 1.363 1_556 S
C2888 C2893 1.379 . S
C2888 N2895 1.356 1_556 S
C2889 C2888 1.363 1_554 S
C2889 C2892 1.363 1_554 S
N2890 C2892 1.354 . S
N2890 H2902 0.983 . S
N2890 H2903 0.988 1_556 S
N2891 C2893 1.356 . S
N2891 H2896 0.984 . S
N2891 H2897 0.985 . S
C2892 C2886 1.379 . S
C2892 C2889 1.363 1_556 S
C2892 N2890 1.354 . S
C2893 C2887 1.363 . S
C2893 C2888 1.379 . S
C2893 N2891 1.356 . S
N2894 C2886 1.356 . S
N2894 H2900 0.984 . S
N2894 H2901 0.984 . S
N2895 C2888 1.356 1_554 S
N2895 H2898 0.984 . S
N2895 H2899 0.985 . S
H2896 N2891 0.984 . S
H2897 N2891 0.985 . S
H2898 N2895 0.984 . S
H2899 N2895 0.985 . S
H2900 N2894 0.984 . S
H2901 N2894 0.984 . S
H2902 N2890 0.983 . S
H2903 N2890 0.988 1_554 S
C2904 C2905 1.363 . S
C2904 C2910 1.379 . S
C2904 N2912 1.356 . S
C2905 C2904 1.363 . S
C2905 C2911 1.363 . S
C2906 C2907 1.363 . S
C2906 C2911 1.379 . S
C2906 N2913 1.356 . S
C2907 C2906 1.363 . S
C2907 C2910 1.363 . S
N2908 C2910 1.356 . S
N2908 H2920 0.984 . S
N2908 H2921 0.985 . S
N2909 C2911 1.356 . S
N2909 H2914 0.984 . S
N2909 H2915 0.985 . S
C2910 C2904 1.379 . S
C2910 C2907 1.363 . S
C2910 N2908 1.356 . S
C2911 C2905 1.363 . S
C2911 C2906 1.379 . S
C2911 N2909 1.356 . S
N2912 C2904 1.356 . S
N2912 H2918 0.984 . S
N2912 H2919 0.984 . S
N2913 C2906 1.356 . S
N2913 H2916 0.984 . S
N2913 H2917 0.985 . S
H2914 N2909 0.984 . S
H2915 N2909 0.985 . S
H2916 N2913 0.984 . S
H2917 N2913 0.985 . S
H2918 N2912 0.984 . S
H2919 N2912 0.984 . S
H2920 N2908 0.984 . S
H2921 N2908 0.985 . S
C2922 C2923 1.363 1_554 S
C2922 C2928 1.379 . S
C2922 N2930 1.356 . S
C2923 C2922 1.363 1_556 S
C2923 C2929 1.363 . S
C2924 C2925 1.363 . S
C2924 C2929 1.379 1_554 S
C2924 N2931 1.356 . S
C2925 C2924 1.363 . S
C2925 C2928 1.363 . S
N2926 C2928 1.356 . S
N2926 H2938 0.984 . S
N2926 H2939 0.985 . S
N2927 C2929 1.356 . S
N2927 H2932 0.984 . S
N2927 H2933 0.985 . S
C2928 C2922 1.379 . S
C2928 C2925 1.363 . S
C2928 N2926 1.356 . S
C2929 C2923 1.363 . S
C2929 C2924 1.379 1_556 S
C2929 N2927 1.356 . S
N2930 C2922 1.356 . S
N2930 H2936 0.984 . S
N2930 H2937 0.984 1_554 S
N2931 C2924 1.356 . S
N2931 H2934 0.984 . S
N2931 H2935 0.985 . S
H2932 N2927 0.984 . S
H2933 N2927 0.985 . S
H2934 N2931 0.984 . S
H2935 N2931 0.985 . S
H2936 N2930 0.984 . S
H2937 N2930 0.984 1_556 S
H2938 N2926 0.984 . S
H2939 N2926 0.985 . S
C2940 C2941 1.363 . S
C2940 C2946 1.379 . S
C2940 N2948 1.356 . S
C2941 C2940 1.363 . S
C2941 C2947 1.363 . S
C2942 C2943 1.363 . S
C2942 C2947 1.379 . S
C2942 N2949 1.356 . S
C2943 C2942 1.363 . S
C2943 C2946 1.363 . S
N2944 C2946 1.356 . S
N2944 H2956 0.984 . S
N2944 H2957 0.985 . S
N2945 C2947 1.356 . S
N2945 H2950 0.984 . S
N2945 H2951 0.985 . S
C2946 C2940 1.379 . S
C2946 C2943 1.363 . S
C2946 N2944 1.356 . S
C2947 C2941 1.363 . S
C2947 C2942 1.379 . S
C2947 N2945 1.356 . S
N2948 C2940 1.356 . S
N2948 H2954 0.984 . S
N2948 H2955 0.984 . S
N2949 C2942 1.356 . S
N2949 H2952 0.984 . S
N2949 H2953 0.985 . S
H2950 N2945 0.984 . S
H2951 N2945 0.985 . S
H2952 N2949 0.984 . S
H2953 N2949 0.985 . S
H2954 N2948 0.984 . S
H2955 N2948 0.984 . S
H2956 N2944 0.984 . S
H2957 N2944 0.985 . S
C2958 C2959 1.363 . S
C2958 C2964 1.379 . S
C2958 N2966 1.356 . S
C2959 C2958 1.363 . S
C2959 C2965 1.363 . S
C2960 C2961 1.363 1_554 S
C2960 C2965 1.379 . S
C2960 N2967 1.356 1_554 S
C2961 C2960 1.363 1_556 S
C2961 C2964 1.363 1_556 S
N2962 C2964 1.356 . S
N2962 H2974 0.984 . S
N2962 H2975 0.985 1_554 S
N2963 C2965 1.356 . S
N2963 H2968 0.984 . S
N2963 H2969 0.985 . S
C2964 C2958 1.379 . S
C2964 C2961 1.363 1_554 S
C2964 N2962 1.356 . S
C2965 C2959 1.363 . S
C2965 C2960 1.379 . S
C2965 N2963 1.356 . S
N2966 C2958 1.356 . S
N2966 H2972 0.984 . S
N2966 H2973 0.984 . S
N2967 C2960 1.356 1_556 S
N2967 H2970 0.984 . S
N2967 H2971 0.985 . S
H2968 N2963 0.984 . S
H2969 N2963 0.985 . S
H2970 N2967 0.984 . S
H2971 N2967 0.985 . S
H2972 N2966 0.984 . S
H2973 N2966 0.984 . S
H2974 N2962 0.984 . S
H2975 N2962 0.985 1_556 S
C2976 C2977 1.363 . S
C2976 C2982 1.379 . S
C2976 N2984 1.356 . S
C2977 C2976 1.363 . S
C2977 C2983 1.363 . S
C2978 C2979 1.363 . S
C2978 C2983 1.379 . S
C2978 N2985 1.356 . S
C2979 C2978 1.363 . S
C2979 C2982 1.363 . S
N2980 C2982 1.356 . S
N2980 H2992 0.984 . S
N2980 H2993 0.985 . S
N2981 C2983 1.356 . S
N2981 H2986 0.984 . S
N2981 H2987 0.985 . S
C2982 C2976 1.379 . S
C2982 C2979 1.363 . S
C2982 N2980 1.356 . S
C2983 C2977 1.363 . S
C2983 C2978 1.379 . S
C2983 N2981 1.356 . S
N2984 C2976 1.356 . S
N2984 H2990 0.984 . S
N2984 H2991 0.984 . S
N2985 C2978 1.356 . S
N2985 H2988 0.984 . S
N2985 H2989 0.985 . S
H2986 N2981 0.984 . S
H2987 N2981 0.985 . S
H2988 N2985 0.984 . S
H2989 N2985 0.985 . S
H2990 N2984 0.984 . S
H2991 N2984 0.984 . S
H2992 N2980 0.984 . S
H2993 N2980 0.985 . S
C2994 C2995 1.363 . S
C2994 C3000 1.379 . S
C2994 N3002 1.356 . S
C2995 C2994 1.363 . S
C2995 C3001 1.363 . S
C2996 C2997 1.363 . S
C2996 C3001 1.379 . S
C2996 N3003 1.356 . S
C2997 C2996 1.363 . S
C2997 C3000 1.363 . S
N2998 C3000 1.356 . S
N2998 H3010 0.984 . S
N2998 H3011 0.985 . S
N2999 C3001 1.356 . S
N2999 H3004 0.984 . S
N2999 H3005 0.985 . S
C3000 C2994 1.379 . S
C3000 C2997 1.363 . S
C3000 N2998 1.356 . S
C3001 C2995 1.363 . S
C3001 C2996 1.379 . S
C3001 N2999 1.356 . S
N3002 C2994 1.356 . S
N3002 H3008 0.984 . S
N3002 H3009 0.984 . S
N3003 C2996 1.356 . S
N3003 H3006 0.984 . S
N3003 H3007 0.985 . S
H3004 N2999 0.984 . S
H3005 N2999 0.985 . S
H3006 N3003 0.984 . S
H3007 N3003 0.985 . S
H3008 N3002 0.984 . S
H3009 N3002 0.984 . S
H3010 N2998 0.984 . S
H3011 N2998 0.985 . S
C3012 C3013 1.363 . S
C3012 C3018 1.379 . S
C3012 N3020 1.356 . S
C3013 C3012 1.363 . S
C3013 C3019 1.363 . S
C3014 C3015 1.363 . S
C3014 C3019 1.379 . S
C3014 N3021 1.356 . S
C3015 C3014 1.363 . S
C3015 C3018 1.363 . S
N3016 C3018 1.356 . S
N3016 H3028 0.984 . S
N3016 H3029 0.985 . S
N3017 C3019 1.356 . S
N3017 H3022 0.984 . S
N3017 H3023 0.985 . S
C3018 C3012 1.379 . S
C3018 C3015 1.363 . S
C3018 N3016 1.356 . S
C3019 C3013 1.363 . S
C3019 C3014 1.379 . S
C3019 N3017 1.356 . S
N3020 C3012 1.356 . S
N3020 H3026 0.984 . S
N3020 H3027 0.984 . S
N3021 C3014 1.356 . S
N3021 H3024 0.984 . S
N3021 H3025 0.985 . S
H3022 N3017 0.984 . S
H3023 N3017 0.985 . S
H3024 N3021 0.984 . S
H3025 N3021 0.985 . S
H3026 N3020 0.984 . S
H3027 N3020 0.984 . S
H3028 N3016 0.984 . S
H3029 N3016 0.985 . S
C3030 C3031 1.363 . S
C3030 C3036 1.379 . S
C3030 N3038 1.356 . S
C3031 C3030 1.363 . S
C3031 C3037 1.363 . S
C3032 C3033 1.363 . S
C3032 C3037 1.379 . S
C3032 N3039 1.356 . S
C3033 C3032 1.363 . S
C3033 C3036 1.363 . S
N3034 C3036 1.356 . S
N3034 H3046 0.984 . S
N3034 H3047 0.985 . S
N3035 C3037 1.356 . S
N3035 H3040 0.984 . S
N3035 H3041 0.985 . S
C3036 C3030 1.379 . S
C3036 C3033 1.363 . S
C3036 N3034 1.356 . S
C3037 C3031 1.363 . S
C3037 C3032 1.379 . S
C3037 N3035 1.356 . S
N3038 C3030 1.356 . S
N3038 H3044 0.984 . S
N3038 H3045 0.984 . S
N3039 C3032 1.356 . S
N3039 H3042 0.984 . S
N3039 H3043 0.985 . S
H3040 N3035 0.984 . S
H3041 N3035 0.985 . S
H3042 N3039 0.984 . S
H3043 N3039 0.985 . S
H3044 N3038 0.984 . S
H3045 N3038 0.984 . S
H3046 N3034 0.984 . S
H3047 N3034 0.985 . S
C3048 C3049 1.363 . S
C3048 C3054 1.379 . S
C3048 N3056 1.356 . S
C3049 C3048 1.363 . S
C3049 C3055 1.363 . S
C3050 C3051 1.363 . S
C3050 C3055 1.379 . S
C3050 N3057 1.356 . S
C3051 C3050 1.363 . S
C3051 C3054 1.363 . S
N3052 C3054 1.356 . S
N3052 H3064 0.984 . S
N3052 H3065 0.985 . S
N3053 C3055 1.356 . S
N3053 H3058 0.984 . S
N3053 H3059 0.985 . S
C3054 C3048 1.379 . S
C3054 C3051 1.363 . S
C3054 N3052 1.356 . S
C3055 C3049 1.363 . S
C3055 C3050 1.379 . S
C3055 N3053 1.356 . S
N3056 C3048 1.356 . S
N3056 H3062 0.984 . S
N3056 H3063 0.984 . S
N3057 C3050 1.356 . S
N3057 H3060 0.984 . S
N3057 H3061 0.985 . S
H3058 N3053 0.984 . S
H3059 N3053 0.985 . S
H3060 N3057 0.984 . S
H3061 N3057 0.985 . S
H3062 N3056 0.984 . S
H3063 N3056 0.984 . S
H3064 N3052 0.984 . S
H3065 N3052 0.985 . S
C3066 C3067 1.363 . S
C3066 C3072 1.379 . S
C3066 N3074 1.356 . S
C3067 C3066 1.363 . S
C3067 C3073 1.363 . S
C3068 C3069 1.363 . S
C3068 C3073 1.379 . S
C3068 N3075 1.356 . S
C3069 C3068 1.363 . S
C3069 C3072 1.363 . S
N3070 C3072 1.356 . S
N3070 H3082 0.984 . S
N3070 H3083 0.985 . S
N3071 C3073 1.356 . S
N3071 H3076 0.984 . S
N3071 H3077 0.985 . S
C3072 C3066 1.379 . S
C3072 C3069 1.363 . S
C3072 N3070 1.356 . S
C3073 C3067 1.363 . S
C3073 C3068 1.379 . S
C3073 N3071 1.356 . S
N3074 C3066 1.356 . S
N3074 H3080 0.984 . S
N3074 H3081 0.984 . S
N3075 C3068 1.356 . S
N3075 H3078 0.984 . S
N3075 H3079 0.985 . S
H3076 N3071 0.984 . S
H3077 N3071 0.985 . S
H3078 N3075 0.984 . S
H3079 N3075 0.985 . S
H3080 N3074 0.984 . S
H3081 N3074 0.984 . S
H3082 N3070 0.984 . S
H3083 N3070 0.985 . S
C3084 C3085 1.363 . S
C3084 C3090 1.379 . S
C3084 N3092 1.356 . S
C3085 C3084 1.363 . S
C3085 C3091 1.363 . S
C3086 C3087 1.363 . S
C3086 C3091 1.379 . S
C3086 N3093 1.356 . S
C3087 C3086 1.363 . S
C3087 C3090 1.363 . S
N3088 C3090 1.356 . S
N3088 H3100 0.984 . S
N3088 H3101 0.985 . S
N3089 C3091 1.356 . S
N3089 H3094 0.984 . S
N3089 H3095 0.985 . S
C3090 C3084 1.379 . S
C3090 C3087 1.363 . S
C3090 N3088 1.356 . S
C3091 C3085 1.363 . S
C3091 C3086 1.379 . S
C3091 N3089 1.356 . S
N3092 C3084 1.356 . S
N3092 H3098 0.984 . S
N3092 H3099 0.984 . S
N3093 C3086 1.356 . S
N3093 H3096 0.984 . S
N3093 H3097 0.985 . S
H3094 N3089 0.984 . S
H3095 N3089 0.985 . S
H3096 N3093 0.984 . S
H3097 N3093 0.985 . S
H3098 N3092 0.984 . S
H3099 N3092 0.984 . S
H3100 N3088 0.984 . S
H3101 N3088 0.985 . S
C3102 C3103 1.363 . S
C3102 C3108 1.380 1_565 S
C3102 N3110 1.356 . S
C3103 C3102 1.363 . S
C3103 C3109 1.363 . S
C3104 C3105 1.363 1_565 S
C3104 C3109 1.379 . S
C3104 N3111 1.356 . S
C3105 C3104 1.363 1_545 S
C3105 C3108 1.363 . S
N3106 C3108 1.355 . S
N3106 H3118 0.984 . S
N3106 H3119 0.985 . S
N3107 C3109 1.356 . S
N3107 H3112 0.984 . S
N3107 H3113 0.985 . S
C3108 C3102 1.380 1_545 S
C3108 C3105 1.363 . S
C3108 N3106 1.355 . S
C3109 C3103 1.363 . S
C3109 C3104 1.379 . S
C3109 N3107 1.356 . S
N3110 C3102 1.356 . S
N3110 H3116 0.984 . S
N3110 H3117 0.984 . S
N3111 C3104 1.356 . S
N3111 H3114 0.984 1_565 S
N3111 H3115 0.985 . S
H3112 N3107 0.984 . S
H3113 N3107 0.985 . S
H3114 N3111 0.984 1_545 S
H3115 N3111 0.985 . S
H3116 N3110 0.984 . S
H3117 N3110 0.984 . S
H3118 N3106 0.984 . S
H3119 N3106 0.985 . S
C3120 C3121 1.363 . S
C3120 C3126 1.379 . S
C3120 N3128 1.356 . S
C3121 C3120 1.363 . S
C3121 C3127 1.363 . S
C3122 C3123 1.363 . S
C3122 C3127 1.379 . S
C3122 N3129 1.356 . S
C3123 C3122 1.363 . S
C3123 C3126 1.363 . S
N3124 C3126 1.356 . S
N3124 H3136 0.984 . S
N3124 H3137 0.985 . S
N3125 C3127 1.356 . S
N3125 H3130 0.984 . S
N3125 H3131 0.985 . S
C3126 C3120 1.379 . S
C3126 C3123 1.363 . S
C3126 N3124 1.356 . S
C3127 C3121 1.363 . S
C3127 C3122 1.379 . S
C3127 N3125 1.356 . S
N3128 C3120 1.356 . S
N3128 H3134 0.984 . S
N3128 H3135 0.984 . S
N3129 C3122 1.356 . S
N3129 H3132 0.984 . S
N3129 H3133 0.985 . S
H3130 N3125 0.984 . S
H3131 N3125 0.985 . S
H3132 N3129 0.984 . S
H3133 N3129 0.985 . S
H3134 N3128 0.984 . S
H3135 N3128 0.984 . S
H3136 N3124 0.984 . S
H3137 N3124 0.985 . S
C3138 C3139 1.363 . S
C3138 C3144 1.379 . S
C3138 N3146 1.356 . S
C3139 C3138 1.363 . S
C3139 C3145 1.363 . S
C3140 C3141 1.363 1_455 S
C3140 C3145 1.379 . S
C3140 N3147 1.356 . S
C3141 C3140 1.363 1_655 S
C3141 C3144 1.363 1_655 S
N3142 C3144 1.356 1_655 S
N3142 H3154 0.984 . S
N3142 H3155 0.985 . S
N3143 C3145 1.356 . S
N3143 H3148 0.984 . S
N3143 H3149 0.985 . S
C3144 C3138 1.379 . S
C3144 C3141 1.363 1_455 S
C3144 N3142 1.356 1_455 S
C3145 C3139 1.363 . S
C3145 C3140 1.379 . S
C3145 N3143 1.356 . S
N3146 C3138 1.356 . S
N3146 H3152 0.984 . S
N3146 H3153 0.984 . S
N3147 C3140 1.356 . S
N3147 H3150 0.984 1_455 S
N3147 H3151 0.985 . S
H3148 N3143 0.984 . S
H3149 N3143 0.985 . S
H3150 N3147 0.984 1_655 S
H3151 N3147 0.985 . S
H3152 N3146 0.984 . S
H3153 N3146 0.984 . S
H3154 N3142 0.984 . S
H3155 N3142 0.985 . S
C3156 C3157 1.363 . S
C3156 C3162 1.379 . S
C3156 N3164 1.356 . S
C3157 C3156 1.363 . S
C3157 C3163 1.363 . S
C3158 C3159 1.363 . S
C3158 C3163 1.379 . S
C3158 N3165 1.356 . S
C3159 C3158 1.363 . S
C3159 C3162 1.363 . S
N3160 C3162 1.356 . S
N3160 H3172 0.984 . S
N3160 H3173 0.985 . S
N3161 C3163 1.356 . S
N3161 H3166 0.984 . S
N3161 H3167 0.985 . S
C3162 C3156 1.379 . S
C3162 C3159 1.363 . S
C3162 N3160 1.356 . S
C3163 C3157 1.363 . S
C3163 C3158 1.379 . S
C3163 N3161 1.356 . S
N3164 C3156 1.356 . S
N3164 H3170 0.984 . S
N3164 H3171 0.984 . S
N3165 C3158 1.356 . S
N3165 H3168 0.984 . S
N3165 H3169 0.985 . S
H3166 N3161 0.984 . S
H3167 N3161 0.985 . S
H3168 N3165 0.984 . S
H3169 N3165 0.985 . S
H3170 N3164 0.984 . S
H3171 N3164 0.984 . S
H3172 N3160 0.984 . S
H3173 N3160 0.985 . S
C3174 C3175 1.363 . S
C3174 C3180 1.379 . S
C3174 N3182 1.356 . S
C3175 C3174 1.363 . S
C3175 C3181 1.363 . S
C3176 C3177 1.363 1_655 S
C3176 C3181 1.379 . S
C3176 N3183 1.356 . S
C3177 C3176 1.363 1_455 S
C3177 C3180 1.363 1_455 S
N3178 C3180 1.356 1_455 S
N3178 H3190 0.984 . S
N3178 H3191 0.985 . S
N3179 C3181 1.356 . S
N3179 H3184 0.984 . S
N3179 H3185 0.985 . S
C3180 C3174 1.379 . S
C3180 C3177 1.363 1_655 S
C3180 N3178 1.356 1_655 S
C3181 C3175 1.363 . S
C3181 C3176 1.379 . S
C3181 N3179 1.356 . S
N3182 C3174 1.356 . S
N3182 H3188 0.984 . S
N3182 H3189 0.984 . S
N3183 C3176 1.356 . S
N3183 H3186 0.984 1_655 S
N3183 H3187 0.985 . S
H3184 N3179 0.984 . S
H3185 N3179 0.985 . S
H3186 N3183 0.984 1_455 S
H3187 N3183 0.985 . S
H3188 N3182 0.984 . S
H3189 N3182 0.984 . S
H3190 N3178 0.984 . S
H3191 N3178 0.985 . S
C3192 C3193 1.363 . S
C3192 C3198 1.379 . S
C3192 N3200 1.356 . S
C3193 C3192 1.363 . S
C3193 C3199 1.363 . S
C3194 C3195 1.363 . S
C3194 C3199 1.379 . S
C3194 N3201 1.356 . S
C3195 C3194 1.363 . S
C3195 C3198 1.363 . S
N3196 C3198 1.356 . S
N3196 H3208 0.984 . S
N3196 H3209 0.985 . S
N3197 C3199 1.356 . S
N3197 H3202 0.984 . S
N3197 H3203 0.985 . S
C3198 C3192 1.379 . S
C3198 C3195 1.363 . S
C3198 N3196 1.356 . S
C3199 C3193 1.363 . S
C3199 C3194 1.379 . S
C3199 N3197 1.356 . S
N3200 C3192 1.356 . S
N3200 H3206 0.984 . S
N3200 H3207 0.984 . S
N3201 C3194 1.356 . S
N3201 H3204 0.984 . S
N3201 H3205 0.985 . S
H3202 N3197 0.984 . S
H3203 N3197 0.985 . S
H3204 N3201 0.984 . S
H3205 N3201 0.985 . S
H3206 N3200 0.984 . S
H3207 N3200 0.984 . S
H3208 N3196 0.984 . S
H3209 N3196 0.985 . S
C3210 C3211 1.363 . S
C3210 C3216 1.379 . S
C3210 N3218 1.356 . S
C3211 C3210 1.363 . S
C3211 C3217 1.363 . S
C3212 C3213 1.363 . S
C3212 C3217 1.379 . S
C3212 N3219 1.356 . S
C3213 C3212 1.363 . S
C3213 C3216 1.363 . S
N3214 C3216 1.356 . S
N3214 H3226 0.984 . S
N3214 H3227 0.985 . S
N3215 C3217 1.356 . S
N3215 H3220 0.984 . S
N3215 H3221 0.985 . S
C3216 C3210 1.379 . S
C3216 C3213 1.363 . S
C3216 N3214 1.356 . S
C3217 C3211 1.363 . S
C3217 C3212 1.379 . S
C3217 N3215 1.356 . S
N3218 C3210 1.356 . S
N3218 H3224 0.984 . S
N3218 H3225 0.984 . S
N3219 C3212 1.356 . S
N3219 H3222 0.984 . S
N3219 H3223 0.985 . S
H3220 N3215 0.984 . S
H3221 N3215 0.985 . S
H3222 N3219 0.984 . S
H3223 N3219 0.985 . S
H3224 N3218 0.984 . S
H3225 N3218 0.984 . S
H3226 N3214 0.984 . S
H3227 N3214 0.985 . S
C3228 C3229 1.363 . S
C3228 C3234 1.379 . S
C3228 N3236 1.356 . S
C3229 C3228 1.363 . S
C3229 C3235 1.363 . S
C3230 C3231 1.363 . S
C3230 C3235 1.379 . S
C3230 N3237 1.356 . S
C3231 C3230 1.363 . S
C3231 C3234 1.363 . S
N3232 C3234 1.356 . S
N3232 H3244 0.984 . S
N3232 H3245 0.985 . S
N3233 C3235 1.356 . S
N3233 H3238 0.984 . S
N3233 H3239 0.985 . S
C3234 C3228 1.379 . S
C3234 C3231 1.363 . S
C3234 N3232 1.356 . S
C3235 C3229 1.363 . S
C3235 C3230 1.379 . S
C3235 N3233 1.356 . S
N3236 C3228 1.356 . S
N3236 H3242 0.984 . S
N3236 H3243 0.984 . S
N3237 C3230 1.356 . S
N3237 H3240 0.984 . S
N3237 H3241 0.985 . S
H3238 N3233 0.984 . S
H3239 N3233 0.985 . S
H3240 N3237 0.984 . S
H3241 N3237 0.985 . S
H3242 N3236 0.984 . S
H3243 N3236 0.984 . S
H3244 N3232 0.984 . S
H3245 N3232 0.985 . S
C3246 C3247 1.363 . S
C3246 C3252 1.379 . S
C3246 N3254 1.356 . S
C3247 C3246 1.363 . S
C3247 C3253 1.363 . S
C3248 C3249 1.363 . S
C3248 C3253 1.379 . S
C3248 N3255 1.356 . S
C3249 C3248 1.363 . S
C3249 C3252 1.363 . S
N3250 C3252 1.356 . S
N3250 H3262 0.984 . S
N3250 H3263 0.985 . S
N3251 C3253 1.356 . S
N3251 H3256 0.984 . S
N3251 H3257 0.985 . S
C3252 C3246 1.379 . S
C3252 C3249 1.363 . S
C3252 N3250 1.356 . S
C3253 C3247 1.363 . S
C3253 C3248 1.379 . S
C3253 N3251 1.356 . S
N3254 C3246 1.356 . S
N3254 H3260 0.984 . S
N3254 H3261 0.984 . S
N3255 C3248 1.356 . S
N3255 H3258 0.984 . S
N3255 H3259 0.985 . S
H3256 N3251 0.984 . S
H3257 N3251 0.985 . S
H3258 N3255 0.984 . S
H3259 N3255 0.985 . S
H3260 N3254 0.984 . S
H3261 N3254 0.984 . S
H3262 N3250 0.984 . S
H3263 N3250 0.985 . S
C3264 C3265 1.363 . S
C3264 C3270 1.379 . S
C3264 N3272 1.356 . S
C3265 C3264 1.363 . S
C3265 C3271 1.363 . S
C3266 C3267 1.363 . S
C3266 C3271 1.379 . S
C3266 N3273 1.356 . S
C3267 C3266 1.363 . S
C3267 C3270 1.363 . S
N3268 C3270 1.356 . S
N3268 H3280 0.984 . S
N3268 H3281 0.985 . S
N3269 C3271 1.356 . S
N3269 H3274 0.984 . S
N3269 H3275 0.985 . S
C3270 C3264 1.379 . S
C3270 C3267 1.363 . S
C3270 N3268 1.356 . S
C3271 C3265 1.363 . S
C3271 C3266 1.379 . S
C3271 N3269 1.356 . S
N3272 C3264 1.356 . S
N3272 H3278 0.984 . S
N3272 H3279 0.984 . S
N3273 C3266 1.356 . S
N3273 H3276 0.984 . S
N3273 H3277 0.985 . S
H3274 N3269 0.984 . S
H3275 N3269 0.985 . S
H3276 N3273 0.984 . S
H3277 N3273 0.985 . S
H3278 N3272 0.984 . S
H3279 N3272 0.984 . S
H3280 N3268 0.984 . S
H3281 N3268 0.985 . S
C3282 C3283 1.363 . S
C3282 C3288 1.379 . S
C3282 N3290 1.356 . S
C3283 C3282 1.363 . S
C3283 C3289 1.363 . S
C3284 C3285 1.363 . S
C3284 C3289 1.379 . S
C3284 N3291 1.356 . S
C3285 C3284 1.363 . S
C3285 C3288 1.363 . S
N3286 C3288 1.356 . S
N3286 H3298 0.984 . S
N3286 H3299 0.985 . S
N3287 C3289 1.356 . S
N3287 H3292 0.984 . S
N3287 H3293 0.985 . S
C3288 C3282 1.379 . S
C3288 C3285 1.363 . S
C3288 N3286 1.356 . S
C3289 C3283 1.363 . S
C3289 C3284 1.379 . S
C3289 N3287 1.356 . S
N3290 C3282 1.356 . S
N3290 H3296 0.984 . S
N3290 H3297 0.984 . S
N3291 C3284 1.356 . S
N3291 H3294 0.984 . S
N3291 H3295 0.985 . S
H3292 N3287 0.984 . S
H3293 N3287 0.985 . S
H3294 N3291 0.984 . S
H3295 N3291 0.985 . S
H3296 N3290 0.984 . S
H3297 N3290 0.984 . S
H3298 N3286 0.984 . S
H3299 N3286 0.985 . S
C3300 C3301 1.363 . S
C3300 C3306 1.379 . S
C3300 N3308 1.356 . S
C3301 C3300 1.363 . S
C3301 C3307 1.363 . S
C3302 C3303 1.363 . S
C3302 C3307 1.379 . S
C3302 N3309 1.356 . S
C3303 C3302 1.363 . S
C3303 C3306 1.363 . S
N3304 C3306 1.356 . S
N3304 H3316 0.984 . S
N3304 H3317 0.985 . S
N3305 C3307 1.356 . S
N3305 H3310 0.984 . S
N3305 H3311 0.985 . S
C3306 C3300 1.379 . S
C3306 C3303 1.363 . S
C3306 N3304 1.356 . S
C3307 C3301 1.363 . S
C3307 C3302 1.379 . S
C3307 N3305 1.356 . S
N3308 C3300 1.356 . S
N3308 H3314 0.984 . S
N3308 H3315 0.984 . S
N3309 C3302 1.356 . S
N3309 H3312 0.984 . S
N3309 H3313 0.985 . S
H3310 N3305 0.984 . S
H3311 N3305 0.985 . S
H3312 N3309 0.984 . S
H3313 N3309 0.985 . S
H3314 N3308 0.984 . S
H3315 N3308 0.984 . S
H3316 N3304 0.984 . S
H3317 N3304 0.985 . S
C3318 C3319 1.363 . S
C3318 C3324 1.379 . S
C3318 N3326 1.356 . S
C3319 C3318 1.363 . S
C3319 C3325 1.363 . S
C3320 C3321 1.363 . S
C3320 C3325 1.379 . S
C3320 N3327 1.356 . S
C3321 C3320 1.363 . S
C3321 C3324 1.363 . S
N3322 C3324 1.356 . S
N3322 H3334 0.984 . S
N3322 H3335 0.985 . S
N3323 C3325 1.356 . S
N3323 H3328 0.984 . S
N3323 H3329 0.985 . S
C3324 C3318 1.379 . S
C3324 C3321 1.363 . S
C3324 N3322 1.356 . S
C3325 C3319 1.363 . S
C3325 C3320 1.379 . S
C3325 N3323 1.356 . S
N3326 C3318 1.356 . S
N3326 H3332 0.984 . S
N3326 H3333 0.984 . S
N3327 C3320 1.356 . S
N3327 H3330 0.984 . S
N3327 H3331 0.985 . S
H3328 N3323 0.984 . S
H3329 N3323 0.985 . S
H3330 N3327 0.984 . S
H3331 N3327 0.985 . S
H3332 N3326 0.984 . S
H3333 N3326 0.984 . S
H3334 N3322 0.984 . S
H3335 N3322 0.985 . S
C3336 C3337 1.363 . S
C3336 C3342 1.379 . S
C3336 N3344 1.356 . S
C3337 C3336 1.363 . S
C3337 C3343 1.363 . S
C3338 C3339 1.363 . S
C3338 C3343 1.379 . S
C3338 N3345 1.356 . S
C3339 C3338 1.363 . S
C3339 C3342 1.363 . S
N3340 C3342 1.356 . S
N3340 H3352 0.984 . S
N3340 H3353 0.985 . S
N3341 C3343 1.356 . S
N3341 H3346 0.984 . S
N3341 H3347 0.985 . S
C3342 C3336 1.379 . S
C3342 C3339 1.363 . S
C3342 N3340 1.356 . S
C3343 C3337 1.363 . S
C3343 C3338 1.379 . S
C3343 N3341 1.356 . S
N3344 C3336 1.356 . S
N3344 H3350 0.984 . S
N3344 H3351 0.984 . S
N3345 C3338 1.356 . S
N3345 H3348 0.984 . S
N3345 H3349 0.985 . S
H3346 N3341 0.984 . S
H3347 N3341 0.985 . S
H3348 N3345 0.984 . S
H3349 N3345 0.985 . S
H3350 N3344 0.984 . S
H3351 N3344 0.984 . S
H3352 N3340 0.984 . S
H3353 N3340 0.985 . S
C3354 C3355 1.363 . S
C3354 C3360 1.379 . S
C3354 N3362 1.356 . S
C3355 C3354 1.363 . S
C3355 C3361 1.363 . S
C3356 C3357 1.363 . S
C3356 C3361 1.379 . S
C3356 N3363 1.356 . S
C3357 C3356 1.363 . S
C3357 C3360 1.363 . S
N3358 C3360 1.356 . S
N3358 H3370 0.984 . S
N3358 H3371 0.985 . S
N3359 C3361 1.356 . S
N3359 H3364 0.984 . S
N3359 H3365 0.985 . S
C3360 C3354 1.379 . S
C3360 C3357 1.363 . S
C3360 N3358 1.356 . S
C3361 C3355 1.363 . S
C3361 C3356 1.379 . S
C3361 N3359 1.356 . S
N3362 C3354 1.356 . S
N3362 H3368 0.984 . S
N3362 H3369 0.984 . S
N3363 C3356 1.356 . S
N3363 H3366 0.984 . S
N3363 H3367 0.985 . S
H3364 N3359 0.984 . S
H3365 N3359 0.985 . S
H3366 N3363 0.984 . S
H3367 N3363 0.985 . S
H3368 N3362 0.984 . S
H3369 N3362 0.984 . S
H3370 N3358 0.984 . S
H3371 N3358 0.985 . S
C3372 C3373 1.363 . S
C3372 C3378 1.379 . S
C3372 N3380 1.356 . S
C3373 C3372 1.363 . S
C3373 C3379 1.363 . S
C3374 C3375 1.363 . S
C3374 C3379 1.379 . S
C3374 N3381 1.356 . S
C3375 C3374 1.363 . S
C3375 C3378 1.363 . S
N3376 C3378 1.356 . S
N3376 H3388 0.984 . S
N3376 H3389 0.985 . S
N3377 C3379 1.356 . S
N3377 H3382 0.984 . S
N3377 H3383 0.985 . S
C3378 C3372 1.379 . S
C3378 C3375 1.363 . S
C3378 N3376 1.356 . S
C3379 C3373 1.363 . S
C3379 C3374 1.379 . S
C3379 N3377 1.356 . S
N3380 C3372 1.356 . S
N3380 H3386 0.984 . S
N3380 H3387 0.984 . S
N3381 C3374 1.356 . S
N3381 H3384 0.984 . S
N3381 H3385 0.985 . S
H3382 N3377 0.984 . S
H3383 N3377 0.985 . S
H3384 N3381 0.984 . S
H3385 N3381 0.985 . S
H3386 N3380 0.984 . S
H3387 N3380 0.984 . S
H3388 N3376 0.984 . S
H3389 N3376 0.985 . S
C3390 C3391 1.363 . S
C3390 C3396 1.379 . S
C3390 N3398 1.356 . S
C3391 C3390 1.363 . S
C3391 C3397 1.363 . S
C3392 C3393 1.363 . S
C3392 C3397 1.379 . S
C3392 N3399 1.356 . S
C3393 C3392 1.363 . S
C3393 C3396 1.363 . S
N3394 C3396 1.356 . S
N3394 H3406 0.984 . S
N3394 H3407 0.985 . S
N3395 C3397 1.356 . S
N3395 H3400 0.984 . S
N3395 H3401 0.985 . S
C3396 C3390 1.379 . S
C3396 C3393 1.363 . S
C3396 N3394 1.356 . S
C3397 C3391 1.363 . S
C3397 C3392 1.379 . S
C3397 N3395 1.356 . S
N3398 C3390 1.356 . S
N3398 H3404 0.984 . S
N3398 H3405 0.984 . S
N3399 C3392 1.356 . S
N3399 H3402 0.984 . S
N3399 H3403 0.985 . S
H3400 N3395 0.984 . S
H3401 N3395 0.985 . S
H3402 N3399 0.984 . S
H3403 N3399 0.985 . S
H3404 N3398 0.984 . S
H3405 N3398 0.984 . S
H3406 N3394 0.984 . S
H3407 N3394 0.985 . S
C3408 C3409 1.363 . S
C3408 C3414 1.379 . S
C3408 N3416 1.356 . S
C3409 C3408 1.363 . S
C3409 C3415 1.363 . S
C3410 C3411 1.363 . S
C3410 C3415 1.379 . S
C3410 N3417 1.356 . S
C3411 C3410 1.363 . S
C3411 C3414 1.363 . S
N3412 C3414 1.356 . S
N3412 H3424 0.984 . S
N3412 H3425 0.985 . S
N3413 C3415 1.356 . S
N3413 H3418 0.984 . S
N3413 H3419 0.985 . S
C3414 C3408 1.379 . S
C3414 C3411 1.363 . S
C3414 N3412 1.356 . S
C3415 C3409 1.363 . S
C3415 C3410 1.379 . S
C3415 N3413 1.356 . S
N3416 C3408 1.356 . S
N3416 H3422 0.984 . S
N3416 H3423 0.984 . S
N3417 C3410 1.356 . S
N3417 H3420 0.984 . S
N3417 H3421 0.985 . S
H3418 N3413 0.984 . S
H3419 N3413 0.985 . S
H3420 N3417 0.984 . S
H3421 N3417 0.985 . S
H3422 N3416 0.984 . S
H3423 N3416 0.984 . S
H3424 N3412 0.984 . S
H3425 N3412 0.985 . S
C3426 C3427 1.363 . S
C3426 C3432 1.379 . S
C3426 N3434 1.356 . S
C3427 C3426 1.363 . S
C3427 C3433 1.363 . S
C3428 C3429 1.363 . S
C3428 C3433 1.379 . S
C3428 N3435 1.356 . S
C3429 C3428 1.363 . S
C3429 C3432 1.363 . S
N3430 C3432 1.356 . S
N3430 H3442 0.984 . S
N3430 H3443 0.985 . S
N3431 C3433 1.356 . S
N3431 H3436 0.984 . S
N3431 H3437 0.985 . S
C3432 C3426 1.379 . S
C3432 C3429 1.363 . S
C3432 N3430 1.356 . S
C3433 C3427 1.363 . S
C3433 C3428 1.379 . S
C3433 N3431 1.356 . S
N3434 C3426 1.356 . S
N3434 H3440 0.984 . S
N3434 H3441 0.984 . S
N3435 C3428 1.356 . S
N3435 H3438 0.984 . S
N3435 H3439 0.985 . S
H3436 N3431 0.984 . S
H3437 N3431 0.985 . S
H3438 N3435 0.984 . S
H3439 N3435 0.985 . S
H3440 N3434 0.984 . S
H3441 N3434 0.984 . S
H3442 N3430 0.984 . S
H3443 N3430 0.985 . S
C3444 C3445 1.363 . S
C3444 C3450 1.379 . S
C3444 N3452 1.356 . S
C3445 C3444 1.363 . S
C3445 C3451 1.363 . S
C3446 C3447 1.363 1_565 S
C3446 C3451 1.379 . S
C3446 N3453 1.356 . S
C3447 C3446 1.363 1_545 S
C3447 C3450 1.363 1_545 S
N3448 C3450 1.356 1_545 S
N3448 H3460 0.984 . S
N3448 H3461 0.985 . S
N3449 C3451 1.356 . S
N3449 H3454 0.984 . S
N3449 H3455 0.985 . S
C3450 C3444 1.379 . S
C3450 C3447 1.363 1_565 S
C3450 N3448 1.356 1_565 S
C3451 C3445 1.363 . S
C3451 C3446 1.379 . S
C3451 N3449 1.356 . S
N3452 C3444 1.356 . S
N3452 H3458 0.984 . S
N3452 H3459 0.984 . S
N3453 C3446 1.356 . S
N3453 H3456 0.984 1_565 S
N3453 H3457 0.985 . S
H3454 N3449 0.984 . S
H3455 N3449 0.985 . S
H3456 N3453 0.984 1_545 S
H3457 N3453 0.985 . S
H3458 N3452 0.984 . S
H3459 N3452 0.984 . S
H3460 N3448 0.984 . S
H3461 N3448 0.985 . S
C3462 C3463 1.363 . S
C3462 C3468 1.379 . S
C3462 N3470 1.356 . S
C3463 C3462 1.363 . S
C3463 C3469 1.363 . S
C3464 C3465 1.363 . S
C3464 C3469 1.379 . S
C3464 N3471 1.356 . S
C3465 C3464 1.363 . S
C3465 C3468 1.363 . S
N3466 C3468 1.356 . S
N3466 H3478 0.984 . S
N3466 H3479 0.985 . S
N3467 C3469 1.356 . S
N3467 H3472 0.984 . S
N3467 H3473 0.985 . S
C3468 C3462 1.379 . S
C3468 C3465 1.363 . S
C3468 N3466 1.356 . S
C3469 C3463 1.363 . S
C3469 C3464 1.379 . S
C3469 N3467 1.356 . S
N3470 C3462 1.356 . S
N3470 H3476 0.984 . S
N3470 H3477 0.984 . S
N3471 C3464 1.356 . S
N3471 H3474 0.984 . S
N3471 H3475 0.985 . S
H3472 N3467 0.984 . S
H3473 N3467 0.985 . S
H3474 N3471 0.984 . S
H3475 N3471 0.985 . S
H3476 N3470 0.984 . S
H3477 N3470 0.984 . S
H3478 N3466 0.984 . S
H3479 N3466 0.985 . S
C3480 C3481 1.363 . S
C3480 C3486 1.393 . S
C3480 N3488 1.356 . S
C3481 C3480 1.363 . S
C3481 C3487 1.363 . S
C3482 C3483 1.363 1_545 S
C3482 C3487 1.379 . S
C3482 N3489 1.356 . S
C3483 C3482 1.363 1_565 S
C3483 C3486 1.362 1_565 S
N3484 C3486 1.340 1_565 S
N3484 H3496 0.984 . S
N3484 H3497 0.985 . S
N3485 C3487 1.356 . S
N3485 H3490 0.984 . S
N3485 H3491 0.985 . S
C3486 C3480 1.393 . S
C3486 C3483 1.362 1_545 S
C3486 N3484 1.340 1_545 S
C3487 C3481 1.363 . S
C3487 C3482 1.379 . S
C3487 N3485 1.356 . S
N3488 C3480 1.356 . S
N3488 H3494 0.984 . S
N3488 H3495 0.984 . S
N3489 C3482 1.356 . S
N3489 H3492 0.984 1_545 S
N3489 H3493 0.985 . S
H3490 N3485 0.984 . S
H3491 N3485 0.985 . S
H3492 N3489 0.984 1_565 S
H3493 N3489 0.985 . S
H3494 N3488 0.984 . S
H3495 N3488 0.984 . S
H3496 N3484 0.984 . S
H3497 N3484 0.985 . S
C3498 C3499 1.363 . S
C3498 C3504 1.379 . S
C3498 N3506 1.356 . S
C3499 C3498 1.363 . S
C3499 C3505 1.363 . S
C3500 C3501 1.363 . S
C3500 C3505 1.379 . S
C3500 N3507 1.356 . S
C3501 C3500 1.363 . S
C3501 C3504 1.363 . S
N3502 C3504 1.356 . S
N3502 H3514 0.984 . S
N3502 H3515 0.985 . S
N3503 C3505 1.356 . S
N3503 H3508 0.984 . S
N3503 H3509 0.985 . S
C3504 C3498 1.379 . S
C3504 C3501 1.363 . S
C3504 N3502 1.356 . S
C3505 C3499 1.363 . S
C3505 C3500 1.379 . S
C3505 N3503 1.356 . S
N3506 C3498 1.356 . S
N3506 H3512 0.984 . S
N3506 H3513 0.984 . S
N3507 C3500 1.356 . S
N3507 H3510 0.984 . S
N3507 H3511 0.985 . S
H3508 N3503 0.984 . S
H3509 N3503 0.985 . S
H3510 N3507 0.984 . S
H3511 N3507 0.985 . S
H3512 N3506 0.984 . S
H3513 N3506 0.984 . S
H3514 N3502 0.984 . S
H3515 N3502 0.985 . S
C3516 C3517 1.363 1_545 S
C3516 C3522 1.379 . S
C3516 N3524 1.356 1_545 S
C3517 C3516 1.363 1_565 S
C3517 C3523 1.363 1_565 S
C3518 C3519 1.363 . S
C3518 C3523 1.379 . S
C3518 N3525 1.356 . S
C3519 C3518 1.363 . S
C3519 C3522 1.363 . S
N3520 C3522 1.356 . S
N3520 H3532 0.984 . S
N3520 H3533 0.985 . S
N3521 C3523 1.356 1_565 S
N3521 H3526 0.984 . S
N3521 H3527 0.985 1_565 S
C3522 C3516 1.379 . S
C3522 C3519 1.363 . S
C3522 N3520 1.356 . S
C3523 C3517 1.363 1_545 S
C3523 C3518 1.379 . S
C3523 N3521 1.356 1_545 S
N3524 C3516 1.356 1_565 S
N3524 H3530 0.984 . S
N3524 H3531 0.984 . S
N3525 C3518 1.356 . S
N3525 H3528 0.984 . S
N3525 H3529 0.985 . S
H3526 N3521 0.984 . S
H3527 N3521 0.985 1_545 S
H3528 N3525 0.984 . S
H3529 N3525 0.985 . S
H3530 N3524 0.984 . S
H3531 N3524 0.984 . S
H3532 N3520 0.984 . S
H3533 N3520 0.985 . S
C3534 C3535 1.363 . S
C3534 C3540 1.379 . S
C3534 N3542 1.356 . S
C3535 C3534 1.363 . S
C3535 C3541 1.363 . S
C3536 C3537 1.363 . S
C3536 C3541 1.379 . S
C3536 N3543 1.356 . S
C3537 C3536 1.363 . S
C3537 C3540 1.363 . S
N3538 C3540 1.356 . S
N3538 H3550 0.984 . S
N3538 H3551 0.985 . S
N3539 C3541 1.356 . S
N3539 H3544 0.984 . S
N3539 H3545 0.985 . S
C3540 C3534 1.379 . S
C3540 C3537 1.363 . S
C3540 N3538 1.356 . S
C3541 C3535 1.363 . S
C3541 C3536 1.379 . S
C3541 N3539 1.356 . S
N3542 C3534 1.356 . S
N3542 H3548 0.984 . S
N3542 H3549 0.984 . S
N3543 C3536 1.356 . S
N3543 H3546 0.984 . S
N3543 H3547 0.985 . S
H3544 N3539 0.984 . S
H3545 N3539 0.985 . S
H3546 N3543 0.984 . S
H3547 N3543 0.985 . S
H3548 N3542 0.984 . S
H3549 N3542 0.984 . S
H3550 N3538 0.984 . S
H3551 N3538 0.985 . S
C961 C5 0.631 . S
C963 C45 0.631 . S
C979 C25 0.631 . S
C981 C74 0.631 . S
C997 C125 0.631 . S
C999 C85 0.631 . S
C1015 C145 0.644 . S
C1017 C114 0.644 . S
C1033 C245 0.631 . S
C1035 C165 0.631 . S
C1051 C185 0.644 . S
C1053 C265 0.644 . S
C1069 C205 0.631 . S
C1071 C285 0.631 . S
C1087 C234 0.644 . S
C1089 C314 0.644 . S
C1105 C325 0.631 . S
C1107 C865 0.631 . S
C1123 C345 0.631 . S
C1125 C425 0.631 . S
C1141 C365 0.631 . S
C1143 C445 0.631 . S
C1159 C385 0.631 . S
C1161 C805 0.631 . S
C1177 C945 0.631 . S
C1179 C405 0.631 . S
C1195 C885 0.644 . S
C1197 C465 0.644 . S
C1213 C525 0.631 . S
C1215 C485 0.631 . S
C1231 C505 0.644 . S
C1233 C554 0.644 . S
C1249 C565 0.631 . S
C1251 C605 0.631 . S
C1267 C594 0.631 . S
C1269 C625 0.631 . S
C1285 C645 0.631 . S
C1287 C725 0.631 . S
C1303 C665 0.631 . S
C1305 C745 0.631 . S
C1321 C685 0.631 . S
C1323 C765 0.631 . S
C1339 C714 0.631 . S
C1341 C794 0.631 . S
C1357 C905 0.631 . S
C1359 C825 0.631 . S
C1375 C845 0.644 . S
C1377 C925 0.644 . S
C1393 C94 2.438 . S
C1395 C14 2.438 . S
C1411 C105 2.438 . S
C1413 C34 2.438 . S
C1429 C54 2.438 . S
C1431 C134 2.438 . S
C1447 C65 2.438 . S
C1449 C154 2.438 . S
C1465 C174 2.438 . S
C1467 C774 2.438 . S
C1483 C194 2.438 . S
C1485 C785 2.438 . S
C1501 C214 2.438 . S
C1503 C734 2.438 . S
C1519 C225 2.438 . S
C1521 C754 2.438 . S
C1537 C694 2.438 . S
C1539 C254 2.438 . S
C1555 C705 2.438 . S
C1557 C274 2.438 . S
C1573 C294 2.438 . S
C1575 C654 2.438 . S
C1591 C305 2.438 . S
C1593 C674 2.438 . S
C1609 C914 2.438 . S
C1611 C334 2.438 . S
C1627 C394 2.438 . S
C1629 C354 2.438 . S
C1645 C374 2.438 . S
C1647 C894 2.438 . S
C1663 C414 2.438 . S
C1665 C854 2.438 . S
C1681 C434 2.438 . S
C1683 C814 2.438 . S
C1699 C454 2.438 . S
C1701 C474 2.438 . S
C1717 C494 2.438 . S
C1719 C574 2.438 . S
C1735 C514 2.438 . S
C1737 C585 2.438 . S
C1753 C534 2.438 . S
C1755 C614 2.438 . S
C1771 C545 2.438 . S
C1773 C634 2.438 . S
C1789 C874 2.438 . S
C1791 C834 2.438 . S
C1807 C954 2.438 . S
C1809 C934 2.438 . S
C1825 C2 1.920 . S
C1827 C337 2.120 . S
C1843 C22 1.890 1_554 S
C1845 C957 2.120 . S
C1861 C42 1.920 . S
C1863 C917 2.120 . S
C1879 C73 1.890 1_554 S
C1881 C937 2.120 . S
C1897 C82 1.920 . S
C1899 C357 2.120 . S
C1915 C377 2.120 1_455 S
C1917 C113 1.890 1_556 S
C1933 C122 1.920 . S
C1935 C397 2.120 . S
C1951 C897 2.120 1_655 S
C1953 C142 1.890 1_556 S
C1969 C162 1.920 . S
C1971 C17 2.120 . S
C1987 C37 2.120 1_554 S
C1989 C182 1.920 . S
C2005 C202 1.920 . S
C2007 C57 2.120 . S
C2023 C233 1.890 1_565 S
C2025 C68 2.120 1_554 S
C2041 C97 2.120 . S
C2043 C242 1.920 . S
C2059 C262 1.920 . S
C2061 C108 2.120 1_556 S
C2077 C282 1.920 . S
C2079 C137 2.120 . S
C2095 C313 1.890 1_565 S
C2097 C157 2.120 1_556 S
C2113 C177 2.120 . S
C2115 C322 1.920 . S
C2131 C342 1.920 . S
C2133 C257 2.120 . S
C2149 C277 2.120 . S
C2151 C362 1.890 1_455 S
C2167 C297 2.120 . S
C2169 C382 1.920 . S
C2185 C402 1.920 . S
C2187 C788 2.120 . S
C2203 C422 1.920 . S
C2205 C697 2.120 . S
C2221 C442 1.890 1_455 S
C2223 C708 2.120 . S
C2239 C462 1.890 1_655 S
C2241 C677 2.120 1_545 S
C2257 C817 2.120 . S
C2259 C482 1.920 . S
C2275 C502 1.920 . S
C2277 C477 2.120 1_655 S
C2293 C522 1.920 . S
C2295 C437 2.120 . S
C2311 C553 1.920 . S
C2313 C457 2.120 1_455 S
C2329 C837 2.120 . S
C2331 C562 1.920 . S
C2347 C593 1.920 . S
C2349 C857 2.120 . S
C2365 C877 2.120 . S
C2367 C602 1.920 . S
C2383 C417 2.120 . S
C2385 C622 1.920 . S
C2401 C497 2.120 . S
C2403 C642 1.920 . S
C2419 C517 2.120 . S
C2421 C662 1.890 1_545 S
C2437 C537 2.120 . S
C2439 C682 1.920 . S
C2455 C548 2.120 . S
C2457 C713 1.920 . S
C2473 C577 2.120 . S
C2475 C722 1.920 . S
C2491 C742 1.890 1_545 S
C2493 C588 2.120 . S
C2509 C617 2.120 . S
C2511 C762 1.920 . S
C2527 C793 1.920 . S
C2529 C637 2.120 . S
C2545 C802 1.920 . S
C2547 C657 2.120 . S
C2563 C822 1.920 . S
C2565 C737 2.120 . S
C2581 C757 2.120 1_545 S
C2583 C842 1.920 . S
C2599 C862 1.920 . S
C2601 C777 2.120 . S
C2617 C308 2.120 1_565 S
C2619 C882 1.890 1_655 S
C2635 C902 1.920 . S
C2637 C217 2.120 . S
C2653 C922 1.920 . S
C2655 C228 2.120 1_565 S
C2671 C197 2.120 . S
C2673 C942 1.920 . S
C2689 C8 1.861 . S
C2691 C542 1.975 . S
C2707 C28 1.861 . S
C2709 C493 1.975 . S
C2725 C513 1.975 . S
C2727 C48 1.861 . S
C2743 C77 1.861 . S
C2745 C533 1.975 . S
C2761 C102 1.975 . S
C2763 C88 1.861 . S
C2779 C133 1.975 . S
C2781 C117 1.861 . S
C2797 C153 1.975 . S
C2799 C128 1.861 . S
C2815 C148 1.861 . S
C2817 C93 1.975 . S
C2833 C853 1.975 . S
C2835 C168 1.861 . S
C2851 C188 1.861 . S
C2853 C873 1.975 . S
C2869 C208 1.861 . S
C2871 C413 1.975 . S
C2887 C833 1.975 . S
C2889 C237 1.861 . S
C2905 C248 1.861 . S
C2907 C933 1.975 . S
C2923 C268 1.861 . S
C2925 C333 1.975 . S
C2941 C288 1.861 . S
C2943 C953 1.975 . S
C2959 C913 1.975 . S
C2961 C317 1.861 . S
C2977 C328 1.861 . S
C2979 C193 1.975 . S
C2995 C348 1.861 . S
C2997 C782 1.975 . S
C3013 C733 1.975 . S
C3015 C368 1.861 . S
C3031 C388 1.861 . S
C3033 C753 1.975 . S
C3049 C408 1.861 . S
C3051 C293 1.975 . S
C3067 C702 1.975 . S
C3069 C428 1.861 . S
C3085 C448 1.861 . S
C3087 C653 1.975 . S
C3103 C693 1.975 . S
C3105 C468 1.861 . S
C3121 C62 1.975 . S
C3123 C488 1.861 . S
C3139 C13 1.975 . S
C3141 C508 1.861 . S
C3157 C33 1.975 . S
C3159 C528 1.861 . S
C3175 C53 1.975 . S
C3177 C557 1.861 . S
C3193 C582 1.975 . S
C3195 C568 1.861 . S
C3211 C613 1.975 . S
C3213 C597 1.861 . S
C3229 C633 1.975 . S
C3231 C608 1.861 . S
C3247 C573 1.975 . S
C3249 C628 1.861 . S
C3265 C373 1.975 . S
C3267 C648 1.861 . S
C3283 C393 1.975 . S
C3285 C668 1.861 . S
C3301 C688 1.861 . S
C3303 C893 1.975 . S
C3319 C353 1.975 . S
C3321 C717 1.861 . S
C3337 C728 1.861 . S
C3339 C453 1.975 . S
C3355 C813 1.975 . S
C3357 C748 1.861 . S
C3373 C768 1.861 . S
C3375 C473 1.975 . S
C3391 C797 1.861 . S
C3393 C433 1.975 . S
C3409 C673 1.975 . S
C3411 C808 1.861 . S
C3427 C302 1.975 . S
C3429 C828 1.861 . S
C3445 C253 1.975 . S
C3447 C848 1.861 . S
C3463 C273 1.975 . S
C3465 C868 1.861 . S
C3481 C773 1.975 . S
C3483 C888 1.861 . S
C3499 C222 1.975 . S
C3501 C908 1.861 . S
C3517 C928 1.861 . S
C3519 C173 1.975 . S
C3535 C948 1.861 . S
C3537 C213 1.975 . S
