# Generated by pormake.
# Topology dmp, (4)-cn, num edge types: 1
# Building blocks:
#     Node 0, Type 0, BuildingBlock: UXUYUI_clean_sbu_0, # of connection points: 4
#     Node 1, Type 0, BuildingBlock: UXUYUI_clean_sbu_0, # of connection points: 4
#     Node 2, Type 0, BuildingBlock: UXUYUI_clean_sbu_0, # of connection points: 4
#     Node 3, Type 0, BuildingBlock: UXUYUI_clean_sbu_0, # of connection points: 4
#     Edge 4, Type (0, 0), BuildingBlock: ZUJKAS_clean_linker_0, # of connection points: 2
#     Edge 5, Type (0, 0), BuildingBlock: ZUJKAS_clean_linker_0, # of connection points: 2
#     Edge 6, Type (0, 0), BuildingBlock: ZUJKAS_clean_linker_0, # of connection points: 2
#     Edge 7, Type (0, 0), BuildingBlock: ZUJKAS_clean_linker_0, # of connection points: 2
#     Edge 8, Type (0, 0), BuildingBlock: ZUJKAS_clean_linker_0, # of connection points: 2
#     Edge 9, Type (0, 0), BuildingBlock: ZUJKAS_clean_linker_0, # of connection points: 2
#     Edge 10, Type (0, 0), BuildingBlock: ZUJKAS_clean_linker_0, # of connection points: 2
#     Edge 11, Type (0, 0), BuildingBlock: ZUJKAS_clean_linker_0, # of connection points: 2
# Relax obj value: 0.351
# Max RMSD: 0.312
# Mean RMSD: 0.312
data_MOF--net-dmp--node1-UXUYUI_clean_sbu_0--edge1-ZUJKAS_clean_linker_0
_symmetry_space_group_name_H-M    P1
_symmetry_Int_Tables_number       1
_symmetry_cell_setting            triclinic
loop_
_symmetry_equiv_pos_as_xyz
'x, y, z'
_cell_length_a     67.137372
_cell_length_b     28.649005
_cell_length_c     34.760506
_cell_angle_alpha  89.898945
_cell_angle_beta   90.004466
_cell_angle_gamma 89.878665
loop_
_atom_site_label
_atom_site_type_symbol
_atom_site_fract_x
_atom_site_fract_y
_atom_site_fract_z
_atom_type_partial_charge
Li0 Li 0.11503 0.28496 0.22162 0.0
Li1 Li 0.11602 0.23115 0.27326 0.0
Li2 Li 0.08944 0.22555 0.22615 0.0
Li3 Li 0.09136 0.29258 0.27478 0.0
C4 C 0.13625 0.20477 0.20373 0.0
N5 N 0.17332 0.18132 0.1751 0.0
C6 C 0.15346 0.22266 0.22077 0.0
C7 C 0.13788 0.17488 0.17216 0.0
C8 C 0.17206 0.21041 0.20589 0.0
C9 C 0.15676 0.16346 0.15809 0.0
C10 C 0.13206 0.31538 0.30511 0.0
C11 C 0.13607 0.34009 0.37101 0.0
N12 N 0.15564 0.34897 0.36409 0.0
C13 C 0.15217 0.32524 0.2986 0.0
C14 C 0.1239 0.32326 0.34157 0.0
C15 C 0.16386 0.34196 0.32881 0.0
C16 C 0.13918 0.35968 0.1995 0.0
N17 N 0.13103 0.31936 0.18653 0.0
C18 C 0.14973 0.3242 0.12819 0.0
C19 C 0.13552 0.30208 0.15116 0.0
C20 C 0.15932 0.36448 0.14182 0.0
C21 C 0.15344 0.38289 0.17757 0.0
H22 H 0.1352 0.37273 0.22764 0.0
H23 H 0.12859 0.2702 0.14138 0.0
C24 C 0.13671 0.14853 0.2876 0.0
N25 N 0.13319 0.19126 0.30317 0.0
C26 C 0.15079 0.1187 0.3039 0.0
C27 C 0.15632 0.17556 0.35397 0.0
C28 C 0.14215 0.20443 0.33655 0.0
C29 C 0.16123 0.13274 0.33687 0.0
H30 H 0.12895 0.13812 0.26176 0.0
H31 H 0.13873 0.23761 0.34937 0.0
C32 C 0.08516 0.32267 0.18671 0.0
N33 N 0.08613 0.38046 0.12307 0.0
C34 C 0.08615 0.37104 0.19137 0.0
C35 C 0.08461 0.30364 0.14974 0.0
C36 C 0.08665 0.39968 0.15881 0.0
C37 C 0.08511 0.33347 0.11791 0.0
C38 C 0.08783 0.19207 0.31237 0.0
C39 C 0.08681 0.1445 0.30384 0.0
C40 C 0.09046 0.2064 0.35043 0.0
C41 C 0.08867 0.11192 0.33359 0.0
C42 C 0.09226 0.17275 0.37937 0.0
N43 N 0.09136 0.12661 0.37041 0.0
C44 C 0.07885 0.14167 0.19056 0.0
C45 C 0.0551 0.20256 0.18401 0.0
C46 C 0.06729 0.11222 0.16778 0.0
N47 N 0.07261 0.18587 0.19796 0.0
C48 C 0.04315 0.17447 0.16079 0.0
C49 C 0.04928 0.1287 0.1521 0.0
H50 H 0.09292 0.12955 0.20203 0.0
H51 H 0.05066 0.23809 0.1902 0.0
C52 C 0.08129 0.37941 0.30774 0.0
N53 N 0.07628 0.33356 0.30565 0.0
C54 C 0.07105 0.40916 0.33266 0.0
C55 C 0.05059 0.3439 0.35226 0.0
C56 C 0.06115 0.31552 0.32687 0.0
C57 C 0.05564 0.39128 0.35566 0.0
H58 H 0.09359 0.39253 0.29079 0.0
H59 H 0.05752 0.27888 0.32449 0.0
O60 O 0.11784 0.21668 0.21751 0.0
O61 O 0.1203 0.2999 0.27559 0.0
O62 O 0.08525 0.294 0.21817 0.0
O63 O 0.08666 0.22442 0.28348 0.0
H64 H 0.15243 0.24559 0.24528 0.0
H65 H 0.12467 0.16084 0.15859 0.0
H66 H 0.1855 0.22402 0.21882 0.0
H67 H 0.15825 0.14043 0.13363 0.0
H68 H 0.12997 0.34601 0.39939 0.0
H69 H 0.15871 0.32032 0.27046 0.0
H70 H 0.10843 0.31587 0.34733 0.0
H71 H 0.17945 0.34956 0.32416 0.0
H72 H 0.1536 0.30917 0.10062 0.0
H73 H 0.16057 0.41344 0.18957 0.0
H74 H 0.15381 0.08543 0.29032 0.0
H75 H 0.16399 0.18757 0.37951 0.0
H76 H 0.08671 0.38625 0.21981 0.0
H77 H 0.08408 0.26623 0.14566 0.0
H78 H 0.0875 0.43718 0.16196 0.0
H79 H 0.08479 0.31924 0.08911 0.0
H80 H 0.08482 0.13285 0.27452 0.0
H81 H 0.09127 0.24307 0.35753 0.0
H82 H 0.08804 0.07497 0.32738 0.0
H83 H 0.09443 0.18333 0.40893 0.0
H84 H 0.07248 0.07702 0.16237 0.0
H85 H 0.02958 0.18897 0.14888 0.0
H86 H 0.07552 0.44537 0.33473 0.0
H87 H 0.03862 0.32892 0.36911 0.0
Li88 Li 0.39725 0.77315 0.21595 0.0
Li89 Li 0.40254 0.71654 0.2731 0.0
Li90 Li 0.3768 0.70466 0.22418 0.0
Li91 Li 0.3731 0.76482 0.26856 0.0
C92 C 0.40862 0.67255 0.18951 0.0
N93 N 0.41221 0.60254 0.13544 0.0
C94 C 0.40953 0.6259 0.20118 0.0
C95 C 0.40965 0.68369 0.15041 0.0
C96 C 0.4113 0.59098 0.17337 0.0
C97 C 0.41146 0.64776 0.1235 0.0
C98 C 0.39979 0.82312 0.2964 0.0
C99 C 0.4021 0.85681 0.35976 0.0
N100 N 0.39538 0.89817 0.34545 0.0
C101 C 0.39301 0.86599 0.28227 0.0
C102 C 0.40443 0.81843 0.33541 0.0
C103 C 0.39083 0.9035 0.30756 0.0
C104 C 0.40075 0.85369 0.17003 0.0
N105 N 0.41032 0.81451 0.18217 0.0
C106 C 0.43922 0.83443 0.14576 0.0
C107 C 0.4292 0.80448 0.17082 0.0
C108 C 0.42967 0.87505 0.1324 0.0
C109 C 0.41018 0.88457 0.14489 0.0
H110 H 0.38575 0.86079 0.17979 0.0
H111 H 0.43642 0.77305 0.18111 0.0
C112 C 0.41892 0.64278 0.31518 0.0
N113 N 0.42165 0.6882 0.30529 0.0
C114 C 0.43209 0.6209 0.34047 0.0
C115 C 0.45079 0.69284 0.34446 0.0
C116 C 0.4373 0.71327 0.31887 0.0
C117 C 0.44817 0.64613 0.35573 0.0
H118 H 0.40624 0.62392 0.30403 0.0
H119 H 0.43912 0.74929 0.31021 0.0
C120 C 0.3544 0.76466 0.18434 0.0
N121 N 0.32645 0.7541 0.12664 0.0
C122 C 0.33526 0.74866 0.19307 0.0
C123 C 0.35927 0.77564 0.14629 0.0
C124 C 0.32137 0.74341 0.16348 0.0
C125 C 0.34494 0.77003 0.11752 0.0
C126 C 0.3628 0.69241 0.31162 0.0
C127 C 0.34213 0.69073 0.30695 0.0
C128 C 0.37099 0.68902 0.34849 0.0
C129 C 0.32997 0.6863 0.33936 0.0
C130 C 0.35833 0.68449 0.38017 0.0
N131 N 0.33826 0.68331 0.37499 0.0
C132 C 0.35413 0.62326 0.21994 0.0
C133 C 0.35999 0.6564 0.15855 0.0
C134 C 0.34095 0.59107 0.2042 0.0
N135 N 0.36272 0.65628 0.19736 0.0
C136 C 0.34671 0.62511 0.14156 0.0
C137 C 0.33644 0.59298 0.16476 0.0
H138 H 0.35699 0.6228 0.2505 0.0
H139 H 0.36738 0.68211 0.14092 0.0
C140 C 0.33993 0.82273 0.27756 0.0
N141 N 0.35417 0.80008 0.29818 0.0
C142 C 0.32471 0.84678 0.29615 0.0
C143 C 0.33956 0.82624 0.35721 0.0
C144 C 0.35446 0.80209 0.33733 0.0
C145 C 0.32424 0.84818 0.33647 0.0
H146 H 0.34031 0.82203 0.24655 0.0
H147 H 0.36609 0.78459 0.35323 0.0
O148 O 0.40654 0.70715 0.21623 0.0
O149 O 0.40168 0.78582 0.27221 0.0
O150 O 0.36821 0.77014 0.21296 0.0
O151 O 0.37494 0.6968 0.28022 0.0
H152 H 0.40867 0.61675 0.23134 0.0
H153 H 0.40881 0.71963 0.14092 0.0
H154 H 0.4119 0.55469 0.18194 0.0
H155 H 0.41217 0.65581 0.09312 0.0
H156 H 0.40552 0.85364 0.39006 0.0
H157 H 0.38924 0.87007 0.2522 0.0
H158 H 0.4095 0.78534 0.34689 0.0
H159 H 0.38548 0.93682 0.29708 0.0
H160 H 0.45415 0.82551 0.13649 0.0
H161 H 0.40238 0.91576 0.13566 0.0
H162 H 0.4294 0.58502 0.34881 0.0
H163 H 0.46312 0.7133 0.35529 0.0
H164 H 0.33121 0.74015 0.22234 0.0
H165 H 0.37403 0.78767 0.13889 0.0
H166 H 0.30655 0.73078 0.1698 0.0
H167 H 0.34854 0.77811 0.08793 0.0
H168 H 0.33554 0.69298 0.27862 0.0
H169 H 0.38693 0.69055 0.35272 0.0
H170 H 0.31395 0.68523 0.33618 0.0
H171 H 0.36446 0.68213 0.40889 0.0
H172 H 0.3339 0.56586 0.22299 0.0
H173 H 0.34377 0.62774 0.11101 0.0
H174 H 0.31345 0.86434 0.2791 0.0
H175 H 0.33975 0.82687 0.38836 0.0
Li176 Li 0.87703 0.7856 0.73445 0.0
Li177 Li 0.90286 0.78369 0.78049 0.0
Li178 Li 0.90431 0.73194 0.72223 0.0
Li179 Li 0.88046 0.71943 0.7771 0.0
C180 C 0.90434 0.83563 0.69798 0.0
N181 N 0.90184 0.90507 0.64287 0.0
C182 C 0.89687 0.87966 0.70764 0.0
C183 C 0.91063 0.827 0.6603 0.0
C184 C 0.89568 0.91426 0.67936 0.0
C185 C 0.90924 0.86256 0.63286 0.0
C186 C 0.87369 0.81312 0.82188 0.0
C187 C 0.87871 0.82613 0.88975 0.0
N188 N 0.8748 0.87231 0.88457 0.0
C189 C 0.86966 0.86072 0.81726 0.0
C190 C 0.87817 0.79564 0.85845 0.0
C191 C 0.87029 0.89005 0.84931 0.0
C192 C 0.84097 0.83398 0.73085 0.0
N193 N 0.85672 0.82104 0.70879 0.0
C194 C 0.84077 0.85123 0.65239 0.0
C195 C 0.85684 0.8288 0.67013 0.0
C196 C 0.82444 0.86554 0.6747 0.0
C197 C 0.82469 0.85667 0.71443 0.0
H198 H 0.84075 0.82543 0.76112 0.0
H199 H 0.86913 0.81648 0.65285 0.0
C200 C 0.93038 0.79512 0.84106 0.0
N201 N 0.9191 0.81865 0.81494 0.0
C202 C 0.94131 0.81943 0.86864 0.0
C203 C 0.92909 0.89178 0.84151 0.0
C204 C 0.91861 0.86607 0.81418 0.0
C205 C 0.94049 0.86837 0.86937 0.0
H206 H 0.93066 0.75745 0.84086 0.0
H207 H 0.90968 0.88398 0.79297 0.0
C208 C 0.85878 0.71483 0.69984 0.0
N209 N 0.82404 0.71187 0.65731 0.0
C210 C 0.84033 0.7128 0.7184 0.0
C211 C 0.85957 0.71518 0.65966 0.0
C212 C 0.82293 0.71139 0.69638 0.0
C213 C 0.84183 0.71368 0.63867 0.0
C214 C 0.91346 0.67418 0.79497 0.0
C215 C 0.92013 0.63602 0.77349 0.0
C216 C 0.90988 0.66882 0.83436 0.0
C217 C 0.92289 0.59298 0.7917 0.0
C218 C 0.91279 0.62519 0.8515 0.0
N219 N 0.91917 0.58848 0.82999 0.0
C220 C 0.93965 0.71625 0.68047 0.0
C221 C 0.91246 0.66768 0.66359 0.0
C222 C 0.9517 0.69478 0.65292 0.0
N223 N 0.92043 0.70255 0.68501 0.0
C224 C 0.92392 0.6454 0.63564 0.0
C225 C 0.9438 0.65897 0.62997 0.0
H226 H 0.94555 0.74403 0.69814 0.0
H227 H 0.89725 0.65691 0.66847 0.0
C228 C 0.85185 0.68606 0.82967 0.0
N229 N 0.86553 0.67275 0.80304 0.0
C230 C 0.83846 0.65365 0.84469 0.0
C231 C 0.85392 0.59408 0.80553 0.0
C232 C 0.86691 0.62775 0.79103 0.0
C233 C 0.83907 0.60713 0.83197 0.0
H234 H 0.85059 0.72235 0.83768 0.0
H235 H 0.87757 0.6184 0.76902 0.0
O236 O 0.90573 0.8013 0.72527 0.0
O237 O 0.87355 0.78393 0.79071 0.0
O238 O 0.87593 0.71758 0.72093 0.0
O239 O 0.91048 0.71653 0.77757 0.0
H240 H 0.89166 0.88681 0.73643 0.0
H241 H 0.91639 0.79316 0.65221 0.0
H242 H 0.88978 0.94836 0.68638 0.0
H243 H 0.91399 0.85631 0.60358 0.0
H244 H 0.8823 0.81309 0.91815 0.0
H245 H 0.86641 0.8751 0.78917 0.0
H246 H 0.88141 0.75901 0.86258 0.0
H247 H 0.86733 0.92698 0.84609 0.0
H248 H 0.84107 0.85714 0.62162 0.0
H249 H 0.81216 0.86592 0.7325 0.0
H250 H 0.94989 0.80014 0.88977 0.0
H251 H 0.9283 0.92954 0.84087 0.0
H252 H 0.83943 0.71304 0.74946 0.0
H253 H 0.87371 0.71745 0.64483 0.0
H254 H 0.80855 0.71011 0.71036 0.0
H255 H 0.84221 0.71425 0.60756 0.0
H256 H 0.92308 0.63946 0.74306 0.0
H257 H 0.90473 0.69789 0.85147 0.0
H258 H 0.92797 0.56313 0.77537 0.0
H259 H 0.90995 0.62051 0.88189 0.0
H260 H 0.96692 0.70642 0.64929 0.0
H261 H 0.91739 0.61734 0.61908 0.0
H262 H 0.82702 0.6656 0.86431 0.0
H263 H 0.85505 0.55858 0.79511 0.0
Li264 Li 0.60502 0.2009 0.71321 0.0
Li265 Li 0.58316 0.21178 0.76786 0.0
Li266 Li 0.58533 0.26877 0.7158 0.0
Li267 Li 0.61231 0.26127 0.76143 0.0
C268 C 0.57073 0.16407 0.69347 0.0
N269 N 0.56209 0.083 0.65382 0.0
C270 C 0.56516 0.12374 0.71341 0.0
C271 C 0.57164 0.16326 0.65328 0.0
C272 C 0.56091 0.08309 0.69288 0.0
C273 C 0.5673 0.12191 0.63379 0.0
C274 C 0.63007 0.17301 0.77247 0.0
C275 C 0.65269 0.11704 0.80072 0.0
N276 N 0.66758 0.1334 0.7779 0.0
C277 C 0.64566 0.1893 0.74933 0.0
C278 C 0.63364 0.13655 0.79837 0.0
C279 C 0.66448 0.1688 0.75249 0.0
C280 C 0.63024 0.16806 0.65366 0.0
N281 N 0.61763 0.15476 0.68221 0.0
C282 C 0.62847 0.07561 0.67688 0.0
C283 C 0.61625 0.10944 0.69348 0.0
C284 C 0.64251 0.08878 0.64892 0.0
C285 C 0.64282 0.13543 0.6364 0.0
H286 H 0.63156 0.20445 0.64608 0.0
H287 H 0.60652 0.10006 0.71703 0.0
C288 C 0.54818 0.20264 0.81218 0.0
N289 N 0.56623 0.18326 0.80442 0.0
C290 C 0.53568 0.18234 0.83957 0.0
C291 C 0.5606 0.12261 0.85023 0.0
C292 C 0.5726 0.14407 0.8227 0.0
C293 C 0.54188 0.14179 0.85904 0.0
H294 H 0.54359 0.23401 0.79722 0.0
H295 H 0.58692 0.12927 0.81556 0.0
C296 C 0.61646 0.29477 0.67398 0.0
N297 N 0.61979 0.35548 0.61238 0.0
C298 C 0.62735 0.33605 0.67764 0.0
C299 C 0.60763 0.28396 0.63868 0.0
C300 C 0.62879 0.36638 0.64625 0.0
C301 C 0.60936 0.31522 0.60798 0.0
C302 C 0.58308 0.29385 0.8098 0.0
C303 C 0.57198 0.33321 0.82007 0.0
C304 C 0.59254 0.26747 0.83837 0.0
C305 C 0.5705 0.34553 0.85884 0.0
C306 C 0.5907 0.28094 0.8768 0.0
N307 N 0.57981 0.31936 0.88616 0.0
C308 C 0.55715 0.29708 0.66058 0.0
C309 C 0.57558 0.35874 0.68874 0.0
C310 C 0.54789 0.32817 0.63537 0.0
N311 N 0.57093 0.31272 0.68605 0.0
C312 C 0.56673 0.39108 0.66395 0.0
C313 C 0.5529 0.37576 0.63639 0.0
H314 H 0.55368 0.2603 0.6593 0.0
H315 H 0.58668 0.37002 0.70928 0.0
C316 C 0.64538 0.27563 0.81325 0.0
N317 N 0.63177 0.29595 0.7895 0.0
C318 C 0.66049 0.30228 0.8298 0.0
C319 C 0.64618 0.37097 0.80025 0.0
C320 C 0.63144 0.34291 0.78408 0.0
C321 C 0.66136 0.35048 0.82247 0.0
H322 H 0.64487 0.23865 0.81889 0.0
H323 H 0.61994 0.3584 0.76637 0.0
O324 O 0.57518 0.20411 0.71313 0.0
O325 O 0.61128 0.19135 0.769 0.0
O326 O 0.61451 0.26503 0.70467 0.0
O327 O 0.58462 0.28152 0.7719 0.0
H328 H 0.56427 0.1236 0.74441 0.0
H329 H 0.57569 0.19413 0.63725 0.0
H330 H 0.55671 0.05159 0.708 0.0
H331 H 0.56806 0.12078 0.60272 0.0
H332 H 0.65563 0.0888 0.82064 0.0
H333 H 0.64334 0.21743 0.72912 0.0
H334 H 0.62184 0.12332 0.81648 0.0
H335 H 0.67662 0.18104 0.73471 0.0
H336 H 0.62765 0.04 0.68723 0.0
H337 H 0.65365 0.14736 0.61552 0.0
H338 H 0.52144 0.19851 0.84577 0.0
H339 H 0.56582 0.09096 0.86404 0.0
H340 H 0.63472 0.34456 0.70432 0.0
H341 H 0.59934 0.25202 0.63519 0.0
H342 H 0.63709 0.39855 0.64879 0.0
H343 H 0.60238 0.30748 0.58068 0.0
H344 H 0.5646 0.354 0.79827 0.0
H345 H 0.60122 0.23694 0.83105 0.0
H346 H 0.56195 0.37591 0.8672 0.0
H347 H 0.59793 0.26085 0.89919 0.0
H348 H 0.53702 0.31499 0.61511 0.0
H349 H 0.57116 0.42735 0.66552 0.0
H350 H 0.6718 0.2849 0.84683 0.0
H351 H 0.64589 0.40819 0.79477 0.0
H352 H 0.32659 0.91171 0.39513 0.0
H353 H 0.29937 0.9601 0.4206 0.0
H354 H 0.25785 0.88901 0.34636 0.0
H355 H 0.28472 0.84039 0.32162 0.0
H356 H 0.27897 0.01972 0.37554 0.0
H357 H 0.22516 0.90033 0.44311 0.0
H358 H 0.25077 0.88377 0.43449 0.0
H359 H 0.23235 0.87803 0.39703 0.0
C360 C 0.31153 0.90561 0.38519 0.0
C361 C 0.30773 0.87269 0.35618 0.0
C362 C 0.29603 0.93322 0.3997 0.0
C363 C 0.27652 0.92772 0.38582 0.0
C364 C 0.27264 0.89316 0.35828 0.0
H365 H 0.1905 0.09269 0.29438 0.0
H366 H 0.21901 0.04759 0.31702 0.0
C367 C 0.28807 0.86584 0.34371 0.0
C368 C 0.26077 0.9623 0.3948 0.0
H369 H 0.2107 0.96924 0.4107 0.0
C370 C 0.26419 0.00899 0.38449 0.0
C371 C 0.24155 0.94866 0.40706 0.0
C372 C 0.23733 0.9 0.42145 0.0
C373 C 0.24845 0.04104 0.38212 0.0
C374 C 0.22885 0.02577 0.38983 0.0
C375 C 0.22573 0.98059 0.40413 0.0
C376 C 0.21145 0.0535 0.37732 0.0
C377 C 0.25272 0.09025 0.36906 0.0
C378 C 0.19751 0.0708 0.40379 0.0
C379 C 0.18105 0.09659 0.39086 0.0
C380 C 0.17821 0.10458 0.35127 0.0
C381 C 0.19212 0.08657 0.32499 0.0
C382 C 0.20854 0.06128 0.3379 0.0
H383 H 0.26826 0.10052 0.37598 0.0
H384 H 0.25083 0.09245 0.33739 0.0
H385 H 0.24231 0.11551 0.38264 0.0
H386 H 0.19945 0.06467 0.43432 0.0
H387 H 0.17049 0.10991 0.41169 0.0
H388 H 0.16917 0.45666 0.13298 0.0
H389 H 0.20141 0.48761 0.11374 0.0
H390 H 0.22128 0.34888 0.08432 0.0
H391 H 0.18938 0.3173 0.10549 0.0
H392 H 0.24504 0.38608 0.13479 0.0
H393 H 0.23394 0.51707 0.02077 0.0
H394 H 0.21681 0.52807 0.0592 0.0
H395 H 0.21514 0.47428 0.03248 0.0
C396 C 0.18026 0.4328 0.12173 0.0
C397 C 0.17679 0.38443 0.12139 0.0
C398 C 0.19862 0.45068 0.11006 0.0
C399 C 0.21377 0.42066 0.0972 0.0
C400 C 0.20977 0.37275 0.09391 0.0
H401 H 0.33449 0.54813 0.09462 0.0
H402 H 0.30669 0.5013 0.06952 0.0
C403 C 0.19145 0.35478 0.10587 0.0
C404 C 0.23452 0.43809 0.09459 0.0
H405 H 0.26167 0.53253 0.06569 0.0
C406 C 0.24884 0.41723 0.11861 0.0
C407 C 0.23967 0.47847 0.0733 0.0
C408 C 0.22558 0.50036 0.04469 0.0
C409 C 0.2674 0.43809 0.12468 0.0
C410 C 0.27167 0.48105 0.10661 0.0
C411 C 0.25819 0.49979 0.07988 0.0
C412 C 0.28836 0.51014 0.12012 0.0
C413 C 0.28186 0.41567 0.15236 0.0
C414 C 0.28697 0.5309 0.15645 0.0
C415 C 0.30259 0.55767 0.17066 0.0
C416 C 0.32003 0.56411 0.1489 0.0
C417 C 0.32126 0.54385 0.11206 0.0
C418 C 0.30546 0.51708 0.09772 0.0
H419 H 0.2788 0.37783 0.15606 0.0
H420 H 0.29745 0.42016 0.14232 0.0
H421 H 0.28045 0.4327 0.18089 0.0
H422 H 0.27373 0.52636 0.17387 0.0
H423 H 0.30085 0.57383 0.1986 0.0
H424 H 0.66282 0.02769 0.69444 0.0
H425 H 0.69246 0.98304 0.67822 0.0
H426 H 0.68905 0.03207 0.56103 0.0
H427 H 0.65901 0.07707 0.57704 0.0
H428 H 0.70177 0.91412 0.62308 0.0
H429 H 0.74331 0.0801 0.59946 0.0
H430 H 0.71898 0.07922 0.62145 0.0
H431 H 0.72151 0.06997 0.57063 0.0
C432 C 0.66794 0.02802 0.6649 0.0
C433 C 0.65855 0.0561 0.63705 0.0
C434 C 0.68499 0.00259 0.65572 0.0
C435 C 0.69308 0.00476 0.61859 0.0
C436 C 0.68318 0.03056 0.59003 0.0
H437 H 0.80504 0.84115 0.60827 0.0
H438 H 0.77388 0.87436 0.58317 0.0
C439 C 0.66606 0.0562 0.59922 0.0
C440 C 0.7128 0.98319 0.61164 0.0
H441 H 0.76201 0.01155 0.60472 0.0
C442 C 0.71495 0.93509 0.61809 0.0
C443 C 0.72991 0.0109 0.6053 0.0
C444 C 0.72848 0.06296 0.599 0.0
C445 C 0.73386 0.91444 0.62108 0.0
C446 C 0.75099 0.94269 0.61695 0.0
C447 C 0.74881 0.99011 0.60775 0.0
C448 C 0.77094 0.92565 0.62845 0.0
C449 C 0.73538 0.86341 0.6316 0.0
C450 C 0.77992 0.94473 0.66126 0.0
C451 C 0.79768 0.92622 0.67539 0.0
C452 C 0.80684 0.88824 0.65696 0.0
C453 C 0.79833 0.87052 0.62299 0.0
C454 C 0.78048 0.88915 0.60882 0.0
H455 H 0.72063 0.84797 0.63847 0.0
H456 H 0.74187 0.84378 0.60713 0.0
H457 H 0.74534 0.85863 0.6568 0.0
H458 H 0.77282 0.97303 0.67674 0.0
H459 H 0.80406 0.94107 0.70124 0.0
H460 H 0.82056 0.54347 0.78592 0.0
H461 H 0.79147 0.49627 0.80092 0.0
H462 H 0.79117 0.54968 0.91678 0.0
H463 H 0.82073 0.5967 0.90229 0.0
H464 H 0.7834 0.42788 0.86104 0.0
H465 H 0.73626 0.58808 0.86908 0.0
H466 H 0.76081 0.58871 0.84795 0.0
H467 H 0.75804 0.58511 0.89919 0.0
C468 C 0.81473 0.54435 0.81495 0.0
C469 C 0.82298 0.57408 0.84287 0.0
C470 C 0.798 0.51748 0.82339 0.0
C471 C 0.78909 0.51993 0.85978 0.0
C472 C 0.79773 0.54782 0.88836 0.0
H473 H 0.68193 0.34437 0.89091 0.0
H474 H 0.71266 0.38543 0.90836 0.0
C475 C 0.81457 0.57471 0.87998 0.0
C476 C 0.76994 0.49578 0.86621 0.0
H477 H 0.71985 0.516 0.86937 0.0
C478 C 0.76949 0.44693 0.86374 0.0
C479 C 0.75189 0.52102 0.86942 0.0
C480 C 0.75159 0.57365 0.87138 0.0
C481 C 0.75136 0.4227 0.86255 0.0
C482 C 0.7333 0.44813 0.86407 0.0
C483 C 0.73377 0.49676 0.86844 0.0
C484 C 0.71399 0.42567 0.85574 0.0
C485 C 0.75158 0.37044 0.85722 0.0
C486 C 0.7044 0.43564 0.82086 0.0
C487 C 0.68703 0.41218 0.81069 0.0
C488 C 0.67876 0.3784 0.83536 0.0
C489 C 0.68806 0.36966 0.871 0.0
C490 C 0.70555 0.39313 0.88109 0.0
H491 H 0.76685 0.35664 0.85242 0.0
H492 H 0.74535 0.3534 0.88326 0.0
H493 H 0.74209 0.36052 0.83239 0.0
H494 H 0.71076 0.46056 0.80086 0.0
H495 H 0.68052 0.41929 0.78277 0.0
H496 H 0.00856 0.1222 0.14688 0.0
H497 H 0.98919 0.07656 0.10067 0.0
H498 H 0.04344 0.02181 0.05204 0.0
H499 H 0.063 0.06843 0.097 0.0
H500 H -0.00323 0.08197 0.01226 0.0
H501 H 0.00442 0.90651 0.07999 0.0
H502 H 0.00609 0.95991 0.10744 0.0
H503 H 0.02633 0.94254 0.07698 0.0
C504 C 0.01641 0.10067 0.12625 0.0
C505 C 0.03737 0.09905 0.1257 0.0
C506 C 0.0053 0.07443 0.10009 0.0
C507 C 0.01495 0.04573 0.07332 0.0
C508 C 0.03578 0.04342 0.07291 0.0
H509 H 0.97888 0.85651 0.8934 0.0
H510 H -0.00346 0.90069 0.94306 0.0
C511 C 0.04691 0.06991 0.0988 0.0
C512 C 0.00332 0.01968 0.04453 0.0
H513 H 0.98889 0.90997 0.01911 0.0
C514 C 0.99489 0.0444 0.01374 0.0
C515 C 0.00117 0.97077 0.04664 0.0
C516 C 0.00985 0.94311 0.07959 0.0
C517 C 0.98463 0.02121 0.98431 0.0
C518 C 0.98231 0.97215 0.98647 0.0
C519 C 0.99066 0.94755 0.01754 0.0
C520 C 0.97152 0.94557 0.95653 0.0
C521 C 0.97696 0.04931 0.95063 0.0
C522 C 0.95154 0.95579 0.94801 0.0
C523 C 0.94151 0.93092 0.91946 0.0
C524 C 0.9512 0.89487 0.89942 0.0
C525 C 0.97106 0.88403 0.90853 0.0
C526 C 0.98115 0.90925 0.9368 0.0
H527 H 0.98481 0.08326 0.94793 0.0
H528 H 0.9787 0.02984 0.92324 0.0
H529 H 0.96089 0.05679 0.95493 0.0
H530 H 0.94365 0.98278 0.96362 0.0
H531 H 0.92608 0.93937 0.91348 0.0
H532 H 0.55281 0.10466 0.92841 0.0
H533 H 0.53172 0.0636 0.97471 0.0
H534 H 0.48047 0.08813 0.90261 0.0
H535 H 0.50156 0.12802 0.8555 0.0
H536 H 0.49759 0.09515 0.01486 0.0
H537 H 0.48062 0.9457 0.91841 0.0
H538 H 0.50047 0.98641 0.90864 0.0
H539 H 0.47507 0.00244 0.89903 0.0
C540 C 0.53707 0.10101 0.92224 0.0
C541 C 0.52888 0.11918 0.8881 0.0
C542 C 0.52504 0.07787 0.94885 0.0
C543 C 0.50462 0.07231 0.94176 0.0
C544 C 0.49627 0.09145 0.90827 0.0
H545 H 0.41415 0.91816 0.06881 0.0
H546 H 0.43136 0.96969 0.0235 0.0
C547 C 0.5083 0.11462 0.8816 0.0
C548 C 0.49221 0.04589 0.96933 0.0
H549 H 0.46484 0.94632 0.97906 0.0
C550 C 0.49039 0.06266 0.00707 0.0
C551 C 0.48284 0.00358 0.95896 0.0
C552 C 0.48492 0.98312 0.91917 0.0
C553 C 0.47939 0.03816 0.03482 0.0
C554 C 0.47029 0.99548 0.0246 0.0
C555 C 0.47184 0.97912 0.98671 0.0
C556 C 0.45967 0.96633 0.05309 0.0
C557 C 0.47747 0.0583 0.07473 0.0
C558 C 0.46996 0.94723 0.08454 0.0
C559 C 0.46018 0.91796 0.11051 0.0
C560 C 0.43994 0.90707 0.10536 0.0
C561 C 0.42967 0.92639 0.07384 0.0
C562 C 0.43948 0.95561 0.04784 0.0
H563 H 0.48053 0.0964 0.075 0.0
H564 H 0.46234 0.05219 0.08661 0.0
H565 H 0.48843 0.04104 0.094 0.0
H566 H 0.48565 0.95442 0.08869 0.0
H567 H 0.46845 0.90392 0.13466 0.0
H568 H 0.93328 0.63545 0.55665 0.0
H569 H 0.95318 0.5929 0.50929 0.0
H570 H 0.00221 0.58667 0.58932 0.0
H571 H 0.9824 0.62934 0.63689 0.0
H572 H 0.01375 0.60964 0.5142 0.0
H573 H 0.96521 0.45302 0.51721 0.0
H574 H 0.95226 0.50641 0.50657 0.0
H575 H 0.96365 0.4985 0.55295 0.0
C576 C 0.94827 0.62484 0.56421 0.0
C577 C 0.95622 0.63533 0.6006 0.0
C578 C 0.95961 0.60058 0.53715 0.0
C579 C 0.97902 0.58598 0.54611 0.0
C580 C 0.98722 0.59755 0.58195 0.0
H581 H 0.04583 0.37023 0.42979 0.0
H582 H 0.02806 0.41921 0.47599 0.0
C583 C 0.97592 0.62201 0.60901 0.0
C584 C 0.99063 0.5579 0.51834 0.0
H585 H 0.99043 0.45471 0.46953 0.0
C586 C 0.00871 0.57572 0.50443 0.0
C587 C 0.98411 0.51342 0.50615 0.0
C588 C 0.96535 0.49141 0.52172 0.0
C589 C 0.02035 0.55039 0.47816 0.0
C590 C 0.01351 0.50653 0.46509 0.0
C591 C -0.00446 0.48855 0.47937 0.0
C592 C 0.02491 0.478 0.43727 0.0
C593 C 0.04003 0.57037 0.46525 0.0
C594 C 0.02894 0.49478 0.40013 0.0
C595 C 0.0391 0.46684 0.37364 0.0
C596 C 0.04518 0.42145 0.38377 0.0
C597 C 0.0411 0.40481 0.421 0.0
C598 C 0.03105 0.43282 0.44747 0.0
H599 H 0.04545 0.59775 0.48526 0.0
H600 H 0.05155 0.54264 0.46304 0.0
H601 H 0.03818 0.58652 0.43643 0.0
H602 H 0.02393 0.52916 0.3914 0.0
H603 H 0.04183 0.48035 0.34501 0.0
H604 H 0.46442 0.55868 0.35329 0.0
H605 H 0.48468 0.5203 0.40271 0.0
H606 H 0.48288 0.64526 0.47157 0.0
H607 H 0.46233 0.68373 0.42257 0.0
H608 H 0.52278 0.55106 0.43699 0.0
H609 H 0.46002 0.53814 0.5413 0.0
H610 H 0.45606 0.54847 0.49061 0.0
H611 H 0.46491 0.5947 0.52082 0.0
C612 C 0.46833 0.57797 0.37897 0.0
C613 C 0.46168 0.62408 0.38421 0.0
C614 C 0.47998 0.55613 0.407 0.0
C615 C 0.48504 0.57988 0.44083 0.0
C616 C 0.47893 0.62631 0.44574 0.0
H617 H 0.53978 0.46521 0.64891 0.0
H618 H 0.52519 0.51912 0.6019 0.0
C619 C 0.46735 0.64829 0.41762 0.0
C620 C 0.49619 0.55531 0.47139 0.0
H621 H 0.49088 0.50707 0.56058 0.0
C622 C 0.5159 0.54164 0.46414 0.0
C623 C 0.48713 0.54343 0.50676 0.0
C624 C 0.46582 0.55658 0.51549 0.0
C625 C 0.52678 0.51583 0.49132 0.0
C626 C 0.51748 0.50251 0.52618 0.0
C627 C 0.49795 0.51732 0.53382 0.0
C628 C 0.52731 0.47099 0.55416 0.0
C629 C 0.54812 0.50322 0.48249 0.0
C630 C 0.53317 0.42602 0.54292 0.0
C631 C 0.54161 0.39535 0.56956 0.0
C632 C 0.54415 0.40884 0.60813 0.0
C633 C 0.53824 0.45395 0.61934 0.0
C634 C 0.52983 0.4847 0.59259 0.0
H635 H 0.55478 0.52787 0.46141 0.0
H636 H 0.55739 0.50311 0.50896 0.0
H637 H 0.54863 0.46779 0.46968 0.0
H638 H 0.53095 0.41436 0.51361 0.0
H639 H 0.54622 0.36109 0.55986 0.0
loop_
_geom_bond_atom_site_label_1
_geom_bond_atom_site_label_2
_geom_bond_distance
_geom_bond_site_symmetry_2
_ccdc_geom_bond_type
Li0 N17 1.990 . S
Li0 O60 1.956 . S
Li0 O61 1.970 . S
Li0 O62 1.961 . S
Li1 N25 1.990 . S
Li1 O60 1.970 . S
Li1 O61 1.956 . S
Li1 O63 1.961 . S
Li2 N47 1.990 . S
Li2 O60 1.961 . S
Li2 O62 1.956 . S
Li2 O63 1.970 . S
Li3 N53 1.990 . S
Li3 O61 1.961 . S
Li3 O62 1.970 . S
Li3 O63 1.956 . S
C4 C6 1.348 . S
C4 C7 1.356 . S
C4 O60 1.325 . S
N5 C8 1.314 . S
N5 C9 1.279 . S
C6 C4 1.348 . S
C6 C8 1.353 . S
C6 H64 0.929 . S
C7 C4 1.356 . S
C7 C9 1.358 . S
C7 H65 0.930 . S
C8 N5 1.314 . S
C8 C6 1.353 . S
C8 H66 0.930 . S
C9 N5 1.279 . S
C9 C7 1.358 . S
C9 H67 0.930 . S
C10 C13 1.348 . S
C10 C14 1.356 . S
C10 O61 1.325 . S
C11 N12 1.279 . S
C11 C14 1.358 . S
C11 H68 0.930 . S
N12 C11 1.279 . S
N12 C15 1.314 . S
C13 C10 1.348 . S
C13 C15 1.353 . S
C13 H69 0.929 . S
C14 C10 1.356 . S
C14 C11 1.358 . S
C14 H70 0.930 . S
C15 N12 1.314 . S
C15 C13 1.353 . S
C15 H71 0.930 . S
C16 N17 1.314 . S
C16 C21 1.353 . S
C16 H22 0.930 . S
N17 Li0 1.990 . S
N17 C16 1.314 . S
N17 C19 1.279 . S
C18 C19 1.358 . S
C18 C20 1.356 . S
C18 H72 0.930 . S
C19 N17 1.279 . S
C19 C18 1.358 . S
C19 H23 0.930 . S
C20 C18 1.356 . S
C20 C21 1.348 . S
C21 C16 1.353 . S
C21 C20 1.348 . S
C21 H73 0.929 . S
H22 C16 0.930 . S
H23 C19 0.930 . S
C24 N25 1.314 . S
C24 C26 1.353 . S
C24 H30 0.930 . S
N25 Li1 1.990 . S
N25 C24 1.314 . S
N25 C28 1.279 . S
C26 C24 1.353 . S
C26 C29 1.348 . S
C26 H74 0.929 . S
C27 C28 1.358 . S
C27 C29 1.356 . S
C27 H75 0.930 . S
C28 N25 1.279 . S
C28 C27 1.358 . S
C28 H31 0.930 . S
C29 C26 1.348 . S
C29 C27 1.356 . S
H30 C24 0.930 . S
H31 C28 0.930 . S
C32 C34 1.348 . S
C32 C35 1.356 . S
C32 O62 1.325 . S
N33 C36 1.314 . S
N33 C37 1.279 . S
C34 C32 1.348 . S
C34 C36 1.353 . S
C34 H76 0.929 . S
C35 C32 1.356 . S
C35 C37 1.358 . S
C35 H77 0.930 . S
C36 N33 1.314 . S
C36 C34 1.353 . S
C36 H78 0.930 . S
C37 N33 1.279 . S
C37 C35 1.358 . S
C37 H79 0.930 . S
C38 C39 1.348 . S
C38 C40 1.356 . S
C38 O63 1.325 . S
C39 C38 1.348 . S
C39 C41 1.353 . S
C39 H80 0.929 . S
C40 C38 1.356 . S
C40 C42 1.358 . S
C40 H81 0.930 . S
C41 C39 1.353 . S
C41 N43 1.314 . S
C41 H82 0.930 . S
C42 C40 1.358 . S
C42 N43 1.279 . S
C42 H83 0.930 . S
N43 C41 1.314 . S
N43 C42 1.279 . S
C44 C46 1.353 . S
C44 N47 1.314 . S
C44 H50 0.930 . S
C45 N47 1.279 . S
C45 C48 1.358 . S
C45 H51 0.930 . S
C46 C44 1.353 . S
C46 C49 1.348 . S
C46 H84 0.929 . S
N47 Li2 1.990 . S
N47 C44 1.314 . S
N47 C45 1.279 . S
C48 C45 1.358 . S
C48 C49 1.356 . S
C48 H85 0.930 . S
C49 C46 1.348 . S
C49 C48 1.356 . S
H50 C44 0.930 . S
H51 C45 0.930 . S
C52 N53 1.314 . S
C52 C54 1.353 . S
C52 H58 0.930 . S
N53 Li3 1.990 . S
N53 C52 1.314 . S
N53 C56 1.279 . S
C54 C52 1.353 . S
C54 C57 1.348 . S
C54 H86 0.929 . S
C55 C56 1.358 . S
C55 C57 1.356 . S
C55 H87 0.930 . S
C56 N53 1.279 . S
C56 C55 1.358 . S
C56 H59 0.930 . S
C57 C54 1.348 . S
C57 C55 1.356 . S
H58 C52 0.930 . S
H59 C56 0.930 . S
O60 Li0 1.956 . S
O60 Li1 1.970 . S
O60 Li2 1.961 . S
O60 C4 1.325 . S
O61 Li0 1.970 . S
O61 Li1 1.956 . S
O61 Li3 1.961 . S
O61 C10 1.325 . S
O62 Li0 1.961 . S
O62 Li2 1.956 . S
O62 Li3 1.970 . S
O62 C32 1.325 . S
O63 Li1 1.961 . S
O63 Li2 1.970 . S
O63 Li3 1.956 . S
O63 C38 1.325 . S
H64 C6 0.929 . S
H65 C7 0.930 . S
H66 C8 0.930 . S
H67 C9 0.930 . S
H68 C11 0.930 . S
H69 C13 0.929 . S
H70 C14 0.930 . S
H71 C15 0.930 . S
H72 C18 0.930 . S
H73 C21 0.929 . S
H74 C26 0.929 . S
H75 C27 0.930 . S
H76 C34 0.929 . S
H77 C35 0.930 . S
H78 C36 0.930 . S
H79 C37 0.930 . S
H80 C39 0.929 . S
H81 C40 0.930 . S
H82 C41 0.930 . S
H83 C42 0.930 . S
H84 C46 0.929 . S
H85 C48 0.930 . S
H86 C54 0.929 . S
H87 C55 0.930 . S
Li88 N105 1.990 . S
Li88 O148 1.956 . S
Li88 O149 1.970 . S
Li88 O150 1.961 . S
Li89 N113 1.990 . S
Li89 O148 1.970 . S
Li89 O149 1.956 . S
Li89 O151 1.961 . S
Li90 N135 1.990 . S
Li90 O148 1.961 . S
Li90 O150 1.956 . S
Li90 O151 1.970 . S
Li91 N141 1.990 . S
Li91 O149 1.961 . S
Li91 O150 1.970 . S
Li91 O151 1.956 . S
C92 C94 1.348 . S
C92 C95 1.356 . S
C92 O148 1.325 . S
N93 C96 1.314 . S
N93 C97 1.279 . S
C94 C92 1.348 . S
C94 C96 1.353 . S
C94 H152 0.929 . S
C95 C92 1.356 . S
C95 C97 1.358 . S
C95 H153 0.930 . S
C96 N93 1.314 . S
C96 C94 1.353 . S
C96 H154 0.930 . S
C97 N93 1.279 . S
C97 C95 1.358 . S
C97 H155 0.930 . S
C98 C101 1.348 . S
C98 C102 1.356 . S
C98 O149 1.325 . S
C99 N100 1.279 . S
C99 C102 1.358 . S
C99 H156 0.930 . S
N100 C99 1.279 . S
N100 C103 1.314 . S
C101 C98 1.348 . S
C101 C103 1.353 . S
C101 H157 0.929 . S
C102 C98 1.356 . S
C102 C99 1.358 . S
C102 H158 0.930 . S
C103 N100 1.314 . S
C103 C101 1.353 . S
C103 H159 0.930 . S
C104 N105 1.314 . S
C104 C109 1.353 . S
C104 H110 0.930 . S
N105 Li88 1.990 . S
N105 C104 1.314 . S
N105 C107 1.279 . S
C106 C107 1.358 . S
C106 C108 1.356 . S
C106 H160 0.930 . S
C107 N105 1.279 . S
C107 C106 1.358 . S
C107 H111 0.930 . S
C108 C106 1.356 . S
C108 C109 1.348 . S
C109 C104 1.353 . S
C109 C108 1.348 . S
C109 H161 0.929 . S
H110 C104 0.930 . S
H111 C107 0.930 . S
C112 N113 1.314 . S
C112 C114 1.353 . S
C112 H118 0.930 . S
N113 Li89 1.990 . S
N113 C112 1.314 . S
N113 C116 1.279 . S
C114 C112 1.353 . S
C114 C117 1.348 . S
C114 H162 0.929 . S
C115 C116 1.358 . S
C115 C117 1.356 . S
C115 H163 0.930 . S
C116 N113 1.279 . S
C116 C115 1.358 . S
C116 H119 0.930 . S
C117 C114 1.348 . S
C117 C115 1.356 . S
H118 C112 0.930 . S
H119 C116 0.930 . S
C120 C122 1.348 . S
C120 C123 1.356 . S
C120 O150 1.325 . S
N121 C124 1.314 . S
N121 C125 1.279 . S
C122 C120 1.348 . S
C122 C124 1.353 . S
C122 H164 0.929 . S
C123 C120 1.356 . S
C123 C125 1.358 . S
C123 H165 0.930 . S
C124 N121 1.314 . S
C124 C122 1.353 . S
C124 H166 0.930 . S
C125 N121 1.279 . S
C125 C123 1.358 . S
C125 H167 0.930 . S
C126 C127 1.348 . S
C126 C128 1.356 . S
C126 O151 1.325 . S
C127 C126 1.348 . S
C127 C129 1.353 . S
C127 H168 0.929 . S
C128 C126 1.356 . S
C128 C130 1.358 . S
C128 H169 0.930 . S
C129 C127 1.353 . S
C129 N131 1.314 . S
C129 H170 0.930 . S
C130 C128 1.358 . S
C130 N131 1.279 . S
C130 H171 0.930 . S
N131 C129 1.314 . S
N131 C130 1.279 . S
C132 C134 1.353 . S
C132 N135 1.314 . S
C132 H138 0.930 . S
C133 N135 1.279 . S
C133 C136 1.358 . S
C133 H139 0.930 . S
C134 C132 1.353 . S
C134 C137 1.348 . S
C134 H172 0.929 . S
N135 Li90 1.990 . S
N135 C132 1.314 . S
N135 C133 1.279 . S
C136 C133 1.358 . S
C136 C137 1.356 . S
C136 H173 0.930 . S
C137 C134 1.348 . S
C137 C136 1.356 . S
H138 C132 0.930 . S
H139 C133 0.930 . S
C140 N141 1.314 . S
C140 C142 1.353 . S
C140 H146 0.930 . S
N141 Li91 1.990 . S
N141 C140 1.314 . S
N141 C144 1.279 . S
C142 C140 1.353 . S
C142 C145 1.348 . S
C142 H174 0.929 . S
C143 C144 1.358 . S
C143 C145 1.356 . S
C143 H175 0.930 . S
C144 N141 1.279 . S
C144 C143 1.358 . S
C144 H147 0.930 . S
C145 C142 1.348 . S
C145 C143 1.356 . S
H146 C140 0.930 . S
H147 C144 0.930 . S
O148 Li88 1.956 . S
O148 Li89 1.970 . S
O148 Li90 1.961 . S
O148 C92 1.325 . S
O149 Li88 1.970 . S
O149 Li89 1.956 . S
O149 Li91 1.961 . S
O149 C98 1.325 . S
O150 Li88 1.961 . S
O150 Li90 1.956 . S
O150 Li91 1.970 . S
O150 C120 1.325 . S
O151 Li89 1.961 . S
O151 Li90 1.970 . S
O151 Li91 1.956 . S
O151 C126 1.325 . S
H152 C94 0.929 . S
H153 C95 0.930 . S
H154 C96 0.930 . S
H155 C97 0.930 . S
H156 C99 0.930 . S
H157 C101 0.929 . S
H158 C102 0.930 . S
H159 C103 0.930 . S
H160 C106 0.930 . S
H161 C109 0.929 . S
H162 C114 0.929 . S
H163 C115 0.930 . S
H164 C122 0.929 . S
H165 C123 0.930 . S
H166 C124 0.930 . S
H167 C125 0.930 . S
H168 C127 0.929 . S
H169 C128 0.930 . S
H170 C129 0.930 . S
H171 C130 0.930 . S
H172 C134 0.929 . S
H173 C136 0.930 . S
H174 C142 0.929 . S
H175 C143 0.930 . S
Li176 N193 1.990 . S
Li176 O236 1.956 . S
Li176 O237 1.970 . S
Li176 O238 1.961 . S
Li177 N201 1.990 . S
Li177 O236 1.970 . S
Li177 O237 1.956 . S
Li177 O239 1.961 . S
Li178 N223 1.990 . S
Li178 O236 1.961 . S
Li178 O238 1.956 . S
Li178 O239 1.970 . S
Li179 N229 1.990 . S
Li179 O237 1.961 . S
Li179 O238 1.970 . S
Li179 O239 1.956 . S
C180 C182 1.348 . S
C180 C183 1.356 . S
C180 O236 1.325 . S
N181 C184 1.314 . S
N181 C185 1.279 . S
C182 C180 1.348 . S
C182 C184 1.353 . S
C182 H240 0.929 . S
C183 C180 1.356 . S
C183 C185 1.358 . S
C183 H241 0.930 . S
C184 N181 1.314 . S
C184 C182 1.353 . S
C184 H242 0.930 . S
C185 N181 1.279 . S
C185 C183 1.358 . S
C185 H243 0.930 . S
C186 C189 1.348 . S
C186 C190 1.356 . S
C186 O237 1.325 . S
C187 N188 1.279 . S
C187 C190 1.358 . S
C187 H244 0.930 . S
N188 C187 1.279 . S
N188 C191 1.314 . S
C189 C186 1.348 . S
C189 C191 1.353 . S
C189 H245 0.929 . S
C190 C186 1.356 . S
C190 C187 1.358 . S
C190 H246 0.930 . S
C191 N188 1.314 . S
C191 C189 1.353 . S
C191 H247 0.930 . S
C192 N193 1.314 . S
C192 C197 1.353 . S
C192 H198 0.930 . S
N193 Li176 1.990 . S
N193 C192 1.314 . S
N193 C195 1.279 . S
C194 C195 1.358 . S
C194 C196 1.356 . S
C194 H248 0.930 . S
C195 N193 1.279 . S
C195 C194 1.358 . S
C195 H199 0.930 . S
C196 C194 1.356 . S
C196 C197 1.348 . S
C197 C192 1.353 . S
C197 C196 1.348 . S
C197 H249 0.929 . S
H198 C192 0.930 . S
H199 C195 0.930 . S
C200 N201 1.314 . S
C200 C202 1.353 . S
C200 H206 0.930 . S
N201 Li177 1.990 . S
N201 C200 1.314 . S
N201 C204 1.279 . S
C202 C200 1.353 . S
C202 C205 1.348 . S
C202 H250 0.929 . S
C203 C204 1.358 . S
C203 C205 1.356 . S
C203 H251 0.930 . S
C204 N201 1.279 . S
C204 C203 1.358 . S
C204 H207 0.930 . S
C205 C202 1.348 . S
C205 C203 1.356 . S
H206 C200 0.930 . S
H207 C204 0.930 . S
C208 C210 1.348 . S
C208 C211 1.356 . S
C208 O238 1.325 . S
N209 C212 1.314 . S
N209 C213 1.279 . S
C210 C208 1.348 . S
C210 C212 1.353 . S
C210 H252 0.929 . S
C211 C208 1.356 . S
C211 C213 1.358 . S
C211 H253 0.930 . S
C212 N209 1.314 . S
C212 C210 1.353 . S
C212 H254 0.930 . S
C213 N209 1.279 . S
C213 C211 1.358 . S
C213 H255 0.930 . S
C214 C215 1.348 . S
C214 C216 1.356 . S
C214 O239 1.325 . S
C215 C214 1.348 . S
C215 C217 1.353 . S
C215 H256 0.929 . S
C216 C214 1.356 . S
C216 C218 1.358 . S
C216 H257 0.930 . S
C217 C215 1.353 . S
C217 N219 1.314 . S
C217 H258 0.930 . S
C218 C216 1.358 . S
C218 N219 1.279 . S
C218 H259 0.930 . S
N219 C217 1.314 . S
N219 C218 1.279 . S
C220 C222 1.353 . S
C220 N223 1.314 . S
C220 H226 0.930 . S
C221 N223 1.279 . S
C221 C224 1.358 . S
C221 H227 0.930 . S
C222 C220 1.353 . S
C222 C225 1.348 . S
C222 H260 0.929 . S
N223 Li178 1.990 . S
N223 C220 1.314 . S
N223 C221 1.279 . S
C224 C221 1.358 . S
C224 C225 1.356 . S
C224 H261 0.930 . S
C225 C222 1.348 . S
C225 C224 1.356 . S
H226 C220 0.930 . S
H227 C221 0.930 . S
C228 N229 1.314 . S
C228 C230 1.353 . S
C228 H234 0.930 . S
N229 Li179 1.990 . S
N229 C228 1.314 . S
N229 C232 1.279 . S
C230 C228 1.353 . S
C230 C233 1.348 . S
C230 H262 0.929 . S
C231 C232 1.358 . S
C231 C233 1.356 . S
C231 H263 0.930 . S
C232 N229 1.279 . S
C232 C231 1.358 . S
C232 H235 0.930 . S
C233 C230 1.348 . S
C233 C231 1.356 . S
H234 C228 0.930 . S
H235 C232 0.930 . S
O236 Li176 1.956 . S
O236 Li177 1.970 . S
O236 Li178 1.961 . S
O236 C180 1.325 . S
O237 Li176 1.970 . S
O237 Li177 1.956 . S
O237 Li179 1.961 . S
O237 C186 1.325 . S
O238 Li176 1.961 . S
O238 Li178 1.956 . S
O238 Li179 1.970 . S
O238 C208 1.325 . S
O239 Li177 1.961 . S
O239 Li178 1.970 . S
O239 Li179 1.956 . S
O239 C214 1.325 . S
H240 C182 0.929 . S
H241 C183 0.930 . S
H242 C184 0.930 . S
H243 C185 0.930 . S
H244 C187 0.930 . S
H245 C189 0.929 . S
H246 C190 0.930 . S
H247 C191 0.930 . S
H248 C194 0.930 . S
H249 C197 0.929 . S
H250 C202 0.929 . S
H251 C203 0.930 . S
H252 C210 0.929 . S
H253 C211 0.930 . S
H254 C212 0.930 . S
H255 C213 0.930 . S
H256 C215 0.929 . S
H257 C216 0.930 . S
H258 C217 0.930 . S
H259 C218 0.930 . S
H260 C222 0.929 . S
H261 C224 0.930 . S
H262 C230 0.929 . S
H263 C231 0.930 . S
Li264 N281 1.990 . S
Li264 O324 1.956 . S
Li264 O325 1.970 . S
Li264 O326 1.961 . S
Li265 N289 1.990 . S
Li265 O324 1.970 . S
Li265 O325 1.956 . S
Li265 O327 1.961 . S
Li266 N311 1.990 . S
Li266 O324 1.961 . S
Li266 O326 1.956 . S
Li266 O327 1.970 . S
Li267 N317 1.990 . S
Li267 O325 1.961 . S
Li267 O326 1.970 . S
Li267 O327 1.956 . S
C268 C270 1.348 . S
C268 C271 1.356 . S
C268 O324 1.325 . S
N269 C272 1.314 . S
N269 C273 1.279 . S
C270 C268 1.348 . S
C270 C272 1.353 . S
C270 H328 0.929 . S
C271 C268 1.356 . S
C271 C273 1.358 . S
C271 H329 0.930 . S
C272 N269 1.314 . S
C272 C270 1.353 . S
C272 H330 0.930 . S
C273 N269 1.279 . S
C273 C271 1.358 . S
C273 H331 0.930 . S
C274 C277 1.348 . S
C274 C278 1.356 . S
C274 O325 1.325 . S
C275 N276 1.279 . S
C275 C278 1.358 . S
C275 H332 0.930 . S
N276 C275 1.279 . S
N276 C279 1.314 . S
C277 C274 1.348 . S
C277 C279 1.353 . S
C277 H333 0.929 . S
C278 C274 1.356 . S
C278 C275 1.358 . S
C278 H334 0.930 . S
C279 N276 1.314 . S
C279 C277 1.353 . S
C279 H335 0.930 . S
C280 N281 1.314 . S
C280 C285 1.353 . S
C280 H286 0.930 . S
N281 Li264 1.990 . S
N281 C280 1.314 . S
N281 C283 1.279 . S
C282 C283 1.358 . S
C282 C284 1.356 . S
C282 H336 0.930 . S
C283 N281 1.279 . S
C283 C282 1.358 . S
C283 H287 0.930 . S
C284 C282 1.356 . S
C284 C285 1.348 . S
C285 C280 1.353 . S
C285 C284 1.348 . S
C285 H337 0.929 . S
H286 C280 0.930 . S
H287 C283 0.930 . S
C288 N289 1.314 . S
C288 C290 1.353 . S
C288 H294 0.930 . S
N289 Li265 1.990 . S
N289 C288 1.314 . S
N289 C292 1.279 . S
C290 C288 1.353 . S
C290 C293 1.348 . S
C290 H338 0.929 . S
C291 C292 1.358 . S
C291 C293 1.356 . S
C291 H339 0.930 . S
C292 N289 1.279 . S
C292 C291 1.358 . S
C292 H295 0.930 . S
C293 C290 1.348 . S
C293 C291 1.356 . S
H294 C288 0.930 . S
H295 C292 0.930 . S
C296 C298 1.348 . S
C296 C299 1.356 . S
C296 O326 1.325 . S
N297 C300 1.314 . S
N297 C301 1.279 . S
C298 C296 1.348 . S
C298 C300 1.353 . S
C298 H340 0.929 . S
C299 C296 1.356 . S
C299 C301 1.358 . S
C299 H341 0.930 . S
C300 N297 1.314 . S
C300 C298 1.353 . S
C300 H342 0.930 . S
C301 N297 1.279 . S
C301 C299 1.358 . S
C301 H343 0.930 . S
C302 C303 1.348 . S
C302 C304 1.356 . S
C302 O327 1.325 . S
C303 C302 1.348 . S
C303 C305 1.353 . S
C303 H344 0.929 . S
C304 C302 1.356 . S
C304 C306 1.358 . S
C304 H345 0.930 . S
C305 C303 1.353 . S
C305 N307 1.314 . S
C305 H346 0.930 . S
C306 C304 1.358 . S
C306 N307 1.279 . S
C306 H347 0.930 . S
N307 C305 1.314 . S
N307 C306 1.279 . S
C308 C310 1.353 . S
C308 N311 1.314 . S
C308 H314 0.930 . S
C309 N311 1.279 . S
C309 C312 1.358 . S
C309 H315 0.930 . S
C310 C308 1.353 . S
C310 C313 1.348 . S
C310 H348 0.929 . S
N311 Li266 1.990 . S
N311 C308 1.314 . S
N311 C309 1.279 . S
C312 C309 1.358 . S
C312 C313 1.356 . S
C312 H349 0.930 . S
C313 C310 1.348 . S
C313 C312 1.356 . S
H314 C308 0.930 . S
H315 C309 0.930 . S
C316 N317 1.314 . S
C316 C318 1.353 . S
C316 H322 0.930 . S
N317 Li267 1.990 . S
N317 C316 1.314 . S
N317 C320 1.279 . S
C318 C316 1.353 . S
C318 C321 1.348 . S
C318 H350 0.929 . S
C319 C320 1.358 . S
C319 C321 1.356 . S
C319 H351 0.930 . S
C320 N317 1.279 . S
C320 C319 1.358 . S
C320 H323 0.930 . S
C321 C318 1.348 . S
C321 C319 1.356 . S
H322 C316 0.930 . S
H323 C320 0.930 . S
O324 Li264 1.956 . S
O324 Li265 1.970 . S
O324 Li266 1.961 . S
O324 C268 1.325 . S
O325 Li264 1.970 . S
O325 Li265 1.956 . S
O325 Li267 1.961 . S
O325 C274 1.325 . S
O326 Li264 1.961 . S
O326 Li266 1.956 . S
O326 Li267 1.970 . S
O326 C296 1.325 . S
O327 Li265 1.961 . S
O327 Li266 1.970 . S
O327 Li267 1.956 . S
O327 C302 1.325 . S
H328 C270 0.929 . S
H329 C271 0.930 . S
H330 C272 0.930 . S
H331 C273 0.930 . S
H332 C275 0.930 . S
H333 C277 0.929 . S
H334 C278 0.930 . S
H335 C279 0.930 . S
H336 C282 0.930 . S
H337 C285 0.929 . S
H338 C290 0.929 . S
H339 C291 0.930 . S
H340 C298 0.929 . S
H341 C299 0.930 . S
H342 C300 0.930 . S
H343 C301 0.930 . S
H344 C303 0.929 . S
H345 C304 0.930 . S
H346 C305 0.930 . S
H347 C306 0.930 . S
H348 C310 0.929 . S
H349 C312 0.930 . S
H350 C318 0.929 . S
H351 C319 0.930 . S
H352 C360 0.929 . S
H353 C362 0.930 . S
H354 C364 0.930 . S
H355 C367 0.929 . S
H356 C370 0.930 . S
H357 C372 0.960 . S
H358 C372 0.960 . S
H359 C372 0.960 . S
C360 H352 0.929 . S
C360 C361 1.377 . S
C360 C362 1.384 . S
C361 C360 1.377 . S
C361 C367 1.390 . S
C362 H353 0.930 . S
C362 C360 1.384 . S
C362 C363 1.372 . S
C363 C362 1.372 . S
C363 C364 1.400 . S
C363 C368 1.490 . S
C364 H354 0.930 . S
C364 C363 1.400 . S
C364 C367 1.386 . S
H365 C381 0.930 . S
H366 C382 0.931 . S
C367 H355 0.929 . S
C367 C361 1.390 . S
C367 C364 1.386 . S
C368 C363 1.490 . S
C368 C370 1.395 1_565 S
C368 C371 1.403 . S
H369 C375 0.930 . S
C370 H356 0.930 . S
C370 C368 1.395 1_545 S
C370 C373 1.403 . S
C371 C368 1.403 . S
C371 C372 1.524 . S
C371 C375 1.400 . S
C372 H357 0.960 . S
C372 H358 0.960 . S
C372 H359 0.960 . S
C372 C371 1.524 . S
C373 C370 1.403 . S
C373 C374 1.392 . S
C373 C377 1.495 . S
C374 C373 1.392 . S
C374 C375 1.385 1_545 S
C374 C376 1.478 . S
C375 H369 0.930 . S
C375 C371 1.400 . S
C375 C374 1.385 1_565 S
C376 C374 1.478 . S
C376 C378 1.381 . S
C376 C382 1.383 . S
C377 C373 1.495 . S
C377 H383 0.959 . S
C377 H384 0.961 . S
C377 H385 0.960 . S
C378 C376 1.381 . S
C378 C379 1.394 . S
C378 H386 0.930 . S
C379 C378 1.394 . S
C379 C380 1.383 . S
C379 H387 0.929 . S
C380 C379 1.383 . S
C380 C381 1.377 . S
C381 H365 0.930 . S
C381 C380 1.377 . S
C381 C382 1.379 . S
C382 H366 0.931 . S
C382 C376 1.383 . S
C382 C381 1.379 . S
H383 C377 0.959 . S
H384 C377 0.961 . S
H385 C377 0.960 . S
H386 C378 0.930 . S
H387 C379 0.929 . S
H388 C396 0.929 . S
H389 C398 0.930 . S
H390 C400 0.930 . S
H391 C403 0.929 . S
H392 C406 0.930 . S
H393 C408 0.960 . S
H394 C408 0.960 . S
H395 C408 0.960 . S
C396 H388 0.929 . S
C396 C397 1.377 . S
C396 C398 1.384 . S
C397 C396 1.377 . S
C397 C403 1.390 . S
C398 H389 0.930 . S
C398 C396 1.384 . S
C398 C399 1.372 . S
C399 C398 1.372 . S
C399 C400 1.400 . S
C399 C404 1.490 . S
C400 H390 0.930 . S
C400 C399 1.400 . S
C400 C403 1.386 . S
H401 C417 0.930 . S
H402 C418 0.931 . S
C403 H391 0.929 . S
C403 C397 1.390 . S
C403 C400 1.386 . S
C404 C399 1.490 . S
C404 C406 1.395 . S
C404 C407 1.403 . S
H405 C411 0.930 . S
C406 H392 0.930 . S
C406 C404 1.395 . S
C406 C409 1.403 . S
C407 C404 1.403 . S
C407 C408 1.524 . S
C407 C411 1.400 . S
C408 H393 0.960 . S
C408 H394 0.960 . S
C408 H395 0.960 . S
C408 C407 1.524 . S
C409 C406 1.403 . S
C409 C410 1.392 . S
C409 C413 1.495 . S
C410 C409 1.392 . S
C410 C411 1.385 . S
C410 C412 1.478 . S
C411 H405 0.930 . S
C411 C407 1.400 . S
C411 C410 1.385 . S
C412 C410 1.478 . S
C412 C414 1.381 . S
C412 C418 1.383 . S
C413 C409 1.495 . S
C413 H419 0.959 . S
C413 H420 0.961 . S
C413 H421 0.960 . S
C414 C412 1.381 . S
C414 C415 1.394 . S
C414 H422 0.930 . S
C415 C414 1.394 . S
C415 C416 1.383 . S
C415 H423 0.929 . S
C416 C415 1.383 . S
C416 C417 1.377 . S
C417 H401 0.930 . S
C417 C416 1.377 . S
C417 C418 1.379 . S
C418 H402 0.931 . S
C418 C412 1.383 . S
C418 C417 1.379 . S
H419 C413 0.959 . S
H420 C413 0.961 . S
H421 C413 0.960 . S
H422 C414 0.930 . S
H423 C415 0.929 . S
H424 C432 0.929 . S
H425 C434 0.930 . S
H426 C436 0.930 1_565 S
H427 C439 0.929 1_565 S
H428 C442 0.930 . S
H429 C444 0.960 . S
H430 C444 0.960 1_545 S
H431 C444 0.960 . S
C432 H424 0.929 . S
C432 C433 1.377 . S
C432 C434 1.384 . S
C433 C432 1.377 . S
C433 C439 1.390 . S
C434 H425 0.930 . S
C434 C432 1.384 . S
C434 C435 1.372 . S
C435 C434 1.372 . S
C435 C436 1.400 . S
C435 C440 1.490 . S
C436 H426 0.930 1_545 S
C436 C435 1.400 . S
C436 C439 1.386 . S
H437 C453 0.930 . S
H438 C454 0.931 . S
C439 H427 0.929 1_545 S
C439 C433 1.390 . S
C439 C436 1.386 . S
C440 C435 1.490 . S
C440 C442 1.395 . S
C440 C443 1.409 . S
H441 C447 0.930 . S
C442 H428 0.930 . S
C442 C440 1.395 . S
C442 C445 1.403 . S
C443 C440 1.409 . S
C443 C444 1.523 1_545 S
C443 C447 1.394 1_545 S
C444 H429 0.960 . S
C444 H430 0.960 1_565 S
C444 H431 0.960 . S
C444 C443 1.523 1_565 S
C445 C442 1.403 . S
C445 C446 1.392 1_545 S
C445 C449 1.495 . S
C446 C445 1.392 1_565 S
C446 C447 1.385 . S
C446 C448 1.478 . S
C447 H441 0.930 . S
C447 C443 1.394 1_565 S
C447 C446 1.385 . S
C448 C446 1.478 . S
C448 C450 1.378 1_565 S
C448 C454 1.383 . S
C449 C445 1.495 . S
C449 H455 0.959 . S
C449 H456 0.961 1_545 S
C449 H457 0.960 . S
C450 C448 1.378 1_545 S
C450 C451 1.393 1_545 S
C450 H458 0.934 . S
C451 C450 1.393 1_565 S
C451 C452 1.383 . S
C451 H459 0.929 1_565 S
C452 C451 1.383 . S
C452 C453 1.377 . S
C453 H437 0.930 . S
C453 C452 1.377 . S
C453 C454 1.379 . S
C454 H438 0.931 . S
C454 C448 1.383 . S
C454 C453 1.379 . S
H455 C449 0.959 . S
H456 C449 0.961 1_565 S
H457 C449 0.960 . S
H458 C450 0.934 . S
H459 C451 0.929 1_545 S
H460 C468 0.929 . S
H461 C470 0.930 . S
H462 C472 0.930 . S
H463 C475 0.929 . S
H464 C478 0.930 . S
H465 C480 0.960 . S
H466 C480 0.960 . S
H467 C480 0.960 . S
C468 H460 0.929 . S
C468 C469 1.377 . S
C468 C470 1.384 . S
C469 C468 1.377 . S
C469 C475 1.390 . S
C470 H461 0.930 . S
C470 C468 1.384 . S
C470 C471 1.372 . S
C471 C470 1.372 . S
C471 C472 1.400 . S
C471 C476 1.490 . S
C472 H462 0.930 . S
C472 C471 1.400 . S
C472 C475 1.386 . S
H473 C489 0.930 . S
H474 C490 0.931 . S
C475 H463 0.929 . S
C475 C469 1.390 . S
C475 C472 1.386 . S
C476 C471 1.490 . S
C476 C478 1.395 . S
C476 C479 1.403 . S
H477 C483 0.930 . S
C478 H464 0.930 . S
C478 C476 1.395 . S
C478 C481 1.403 . S
C479 C476 1.403 . S
C479 C480 1.524 . S
C479 C483 1.400 . S
C480 H465 0.960 . S
C480 H466 0.960 . S
C480 H467 0.960 . S
C480 C479 1.524 . S
C481 C478 1.403 . S
C481 C482 1.392 . S
C481 C485 1.495 . S
C482 C481 1.392 . S
C482 C483 1.385 . S
C482 C484 1.478 . S
C483 H477 0.930 . S
C483 C479 1.400 . S
C483 C482 1.385 . S
C484 C482 1.478 . S
C484 C486 1.381 . S
C484 C490 1.383 . S
C485 C481 1.495 . S
C485 H491 0.959 . S
C485 H492 0.961 . S
C485 H493 0.960 . S
C486 C484 1.381 . S
C486 C487 1.394 . S
C486 H494 0.930 . S
C487 C486 1.394 . S
C487 C488 1.383 . S
C487 H495 0.929 . S
C488 C487 1.383 . S
C488 C489 1.377 . S
C489 H473 0.930 . S
C489 C488 1.377 . S
C489 C490 1.379 . S
C490 H474 0.931 . S
C490 C484 1.383 . S
C490 C489 1.379 . S
H491 C485 0.959 . S
H492 C485 0.961 . S
H493 C485 0.960 . S
H494 C486 0.930 . S
H495 C487 0.929 . S
H496 C504 0.929 . S
H497 C506 0.930 . S
H498 C508 0.903 1_556 S
H499 C511 0.929 . S
H500 C514 0.930 . S
H501 C516 0.960 . S
H502 C516 0.960 . S
H503 C516 0.960 1_545 S
C504 H496 0.929 . S
C504 C505 1.377 . S
C504 C506 1.384 . S
C505 C504 1.377 . S
C505 C511 1.390 . S
C506 H497 0.930 . S
C506 C504 1.384 . S
C506 C507 1.372 . S
C507 C506 1.372 . S
C507 C508 1.400 . S
C507 C512 1.490 . S
C508 H498 0.903 1_554 S
C508 C507 1.400 . S
C508 C511 1.386 . S
H509 C525 0.930 . S
H510 C526 0.931 . S
C511 H499 0.929 . S
C511 C505 1.390 . S
C511 C508 1.386 . S
C512 C507 1.490 . S
C512 C514 1.395 1_455 S
C512 C515 1.403 1_545 S
H513 C519 0.930 . S
C514 H500 0.930 . S
C514 C512 1.395 1_655 S
C514 C517 1.403 1_554 S
C515 C512 1.403 1_565 S
C515 C516 1.524 . S
C515 C519 1.400 1_554 S
C516 H501 0.960 . S
C516 H502 0.960 . S
C516 H503 0.960 1_565 S
C516 C515 1.524 . S
C517 C514 1.403 1_556 S
C517 C518 1.392 1_545 S
C517 C521 1.495 . S
C518 C517 1.392 1_565 S
C518 C519 1.385 1_655 S
C518 C520 1.478 . S
C519 H513 0.930 . S
C519 C515 1.400 1_556 S
C519 C518 1.385 1_455 S
C520 C518 1.478 . S
C520 C522 1.381 . S
C520 C526 1.383 . S
C521 C517 1.495 . S
C521 H527 0.959 . S
C521 H528 0.961 . S
C521 H529 0.960 1_545 S
C522 C520 1.381 . S
C522 C523 1.394 . S
C522 H530 0.930 1_556 S
C523 C522 1.394 . S
C523 C524 1.383 . S
C523 H531 0.929 . S
C524 C523 1.383 . S
C524 C525 1.377 . S
C525 H509 0.930 . S
C525 C524 1.377 . S
C525 C526 1.379 . S
C526 H510 0.931 . S
C526 C520 1.383 . S
C526 C525 1.379 . S
H527 C521 0.959 . S
H528 C521 0.961 . S
H529 C521 0.960 1_565 S
H530 C522 0.930 1_554 S
H531 C523 0.929 . S
H532 C540 0.929 . S
H533 C542 0.930 1_554 S
H534 C544 0.930 . S
H535 C547 0.929 . S
H536 C550 0.930 . S
H537 C552 0.960 . S
H538 C552 0.960 . S
H539 C552 0.960 . S
C540 H532 0.929 . S
C540 C541 1.377 . S
C540 C542 1.384 . S
C541 C540 1.377 . S
C541 C547 1.390 . S
C542 H533 0.930 1_556 S
C542 C540 1.384 . S
C542 C543 1.372 . S
C543 C542 1.372 . S
C543 C544 1.400 . S
C543 C548 1.490 . S
C544 H534 0.930 . S
C544 C543 1.400 . S
C544 C547 1.386 . S
H545 C561 0.930 . S
H546 C562 0.931 . S
C547 H535 0.929 . S
C547 C541 1.390 . S
C547 C544 1.386 . S
C548 C543 1.490 . S
C548 C550 1.395 1_556 S
C548 C551 1.403 1_545 S
H549 C555 0.930 . S
C550 H536 0.930 . S
C550 C548 1.395 1_554 S
C550 C553 1.403 . S
C551 C548 1.403 1_565 S
C551 C552 1.524 . S
C551 C555 1.400 . S
C552 H537 0.960 . S
C552 H538 0.960 . S
C552 H539 0.960 . S
C552 C551 1.524 . S
C553 C550 1.403 . S
C553 C554 1.392 1_545 S
C553 C557 1.495 . S
C554 C553 1.392 1_565 S
C554 C555 1.385 1_554 S
C554 C556 1.478 . S
C555 H549 0.930 . S
C555 C551 1.400 . S
C555 C554 1.385 1_556 S
C556 C554 1.478 . S
C556 C558 1.381 . S
C556 C562 1.383 . S
C557 C553 1.495 . S
C557 H563 0.959 . S
C557 H564 0.961 . S
C557 H565 0.960 . S
C558 C556 1.381 . S
C558 C559 1.394 . S
C558 H566 0.930 . S
C559 C558 1.394 . S
C559 C560 1.383 . S
C559 H567 0.929 . S
C560 C559 1.383 . S
C560 C561 1.377 . S
C561 H545 0.930 . S
C561 C560 1.377 . S
C561 C562 1.379 . S
C562 H546 0.931 . S
C562 C556 1.383 . S
C562 C561 1.379 . S
H563 C557 0.959 . S
H564 C557 0.961 . S
H565 C557 0.960 . S
H566 C558 0.930 . S
H567 C559 0.929 . S
H568 C576 0.929 . S
H569 C578 0.930 . S
H570 C580 0.930 . S
H571 C583 0.929 . S
H572 C586 0.930 . S
H573 C588 0.960 . S
H574 C588 0.960 . S
H575 C588 0.960 . S
C576 H568 0.929 . S
C576 C577 1.377 . S
C576 C578 1.384 . S
C577 C576 1.377 . S
C577 C583 1.390 . S
C578 H569 0.930 . S
C578 C576 1.384 . S
C578 C579 1.372 . S
C579 C578 1.372 . S
C579 C580 1.400 . S
C579 C584 1.490 . S
C580 H570 0.930 . S
C580 C579 1.400 . S
C580 C583 1.386 . S
H581 C597 0.930 . S
H582 C598 0.931 . S
C583 H571 0.929 . S
C583 C577 1.390 . S
C583 C580 1.386 . S
C584 C579 1.490 . S
C584 C586 1.395 1_655 S
C584 C587 1.403 . S
H585 C591 0.930 . S
C586 H572 0.930 . S
C586 C584 1.395 1_455 S
C586 C589 1.403 . S
C587 C584 1.403 . S
C587 C588 1.524 . S
C587 C591 1.400 . S
C588 H573 0.960 . S
C588 H574 0.960 . S
C588 H575 0.960 . S
C588 C587 1.524 . S
C589 C586 1.403 . S
C589 C590 1.392 . S
C589 C593 1.495 . S
C590 C589 1.392 . S
C590 C591 1.385 1_455 S
C590 C592 1.478 . S
C591 H585 0.930 . S
C591 C587 1.400 . S
C591 C590 1.385 1_655 S
C592 C590 1.478 . S
C592 C594 1.381 . S
C592 C598 1.383 . S
C593 C589 1.495 . S
C593 H599 0.959 . S
C593 H600 0.961 . S
C593 H601 0.960 . S
C594 C592 1.381 . S
C594 C595 1.394 . S
C594 H602 0.930 . S
C595 C594 1.394 . S
C595 C596 1.383 . S
C595 H603 0.929 . S
C596 C595 1.383 . S
C596 C597 1.377 . S
C597 H581 0.930 . S
C597 C596 1.377 . S
C597 C598 1.379 . S
C598 H582 0.931 . S
C598 C592 1.383 . S
C598 C597 1.379 . S
H599 C593 0.959 . S
H600 C593 0.961 . S
H601 C593 0.960 . S
H602 C594 0.930 . S
H603 C595 0.929 . S
H604 C612 0.929 . S
H605 C614 0.930 . S
H606 C616 0.930 . S
H607 C619 0.929 . S
H608 C622 0.930 . S
H609 C624 0.960 . S
H610 C624 0.960 . S
H611 C624 0.960 . S
C612 H604 0.929 . S
C612 C613 1.377 . S
C612 C614 1.384 . S
C613 C612 1.377 . S
C613 C619 1.390 . S
C614 H605 0.930 . S
C614 C612 1.384 . S
C614 C615 1.372 . S
C615 C614 1.372 . S
C615 C616 1.400 . S
C615 C620 1.490 . S
C616 H606 0.930 . S
C616 C615 1.400 . S
C616 C619 1.386 . S
H617 C633 0.930 . S
H618 C634 0.931 . S
C619 H607 0.929 . S
C619 C613 1.390 . S
C619 C616 1.386 . S
C620 C615 1.490 . S
C620 C622 1.395 . S
C620 C623 1.403 . S
H621 C627 0.930 . S
C622 H608 0.930 . S
C622 C620 1.395 . S
C622 C625 1.403 . S
C623 C620 1.403 . S
C623 C624 1.524 . S
C623 C627 1.400 . S
C624 H609 0.960 . S
C624 H610 0.960 . S
C624 H611 0.960 . S
C624 C623 1.524 . S
C625 C622 1.403 . S
C625 C626 1.392 . S
C625 C629 1.495 . S
C626 C625 1.392 . S
C626 C627 1.385 . S
C626 C628 1.478 . S
C627 H621 0.930 . S
C627 C623 1.400 . S
C627 C626 1.385 . S
C628 C626 1.478 . S
C628 C630 1.381 . S
C628 C634 1.383 . S
C629 C625 1.495 . S
C629 H635 0.959 . S
C629 H636 0.961 . S
C629 H637 0.960 . S
C630 C628 1.381 . S
C630 C631 1.394 . S
C630 H638 0.930 . S
C631 C630 1.394 . S
C631 C632 1.383 . S
C631 H639 0.929 . S
C632 C631 1.383 . S
C632 C633 1.377 . S
C633 H617 0.930 . S
C633 C632 1.377 . S
C633 C634 1.379 . S
C634 H618 0.931 . S
C634 C628 1.383 . S
C634 C633 1.379 . S
H635 C629 0.959 . S
H636 C629 0.961 . S
H637 C629 0.960 . S
H638 C630 0.930 . S
H639 C631 0.929 . S
C361 C145 0.472 . S
C380 C29 0.388 . S
C397 C20 0.493 . S
C416 C137 0.426 . S
C433 C284 0.457 . S
C452 C196 0.442 . S
C469 C233 0.447 . S
C488 C321 0.373 . S
C505 C49 1.766 . S
C524 C205 1.749 . S
C541 C293 1.765 . S
C560 C108 1.747 . S
C577 C225 1.767 . S
C596 C57 1.751 . S
C613 C117 1.767 . S
C632 C313 1.767 . S
