# Generated by pormake.
# Topology rob, (6)-cn, num edge types: 1
# Building blocks:
#     Node 0, Type 0, BuildingBlock: BETFEN_clean_sbu_0, # of connection points: 6
#     Node 1, Type 0, BuildingBlock: BETFEN_clean_sbu_0, # of connection points: 6
#     Node 2, Type 0, BuildingBlock: BETFEN_clean_sbu_0, # of connection points: 6
#     Node 3, Type 0, BuildingBlock: BETFEN_clean_sbu_0, # of connection points: 6
#     Edge 4, Type (0, 0), BuildingBlock: XIVTED_clean_linker_0, # of connection points: 2
#     Edge 5, Type (0, 0), BuildingBlock: XIVTED_clean_linker_0, # of connection points: 2
#     Edge 6, Type (0, 0), BuildingBlock: XIVTED_clean_linker_0, # of connection points: 2
#     Edge 7, Type (0, 0), BuildingBlock: XIVTED_clean_linker_0, # of connection points: 2
#     Edge 8, Type (0, 0), BuildingBlock: XIVTED_clean_linker_0, # of connection points: 2
#     Edge 9, Type (0, 0), BuildingBlock: XIVTED_clean_linker_0, # of connection points: 2
#     Edge 10, Type (0, 0), BuildingBlock: XIVTED_clean_linker_0, # of connection points: 2
#     Edge 11, Type (0, 0), BuildingBlock: XIVTED_clean_linker_0, # of connection points: 2
#     Edge 12, Type (0, 0), BuildingBlock: XIVTED_clean_linker_0, # of connection points: 2
#     Edge 13, Type (0, 0), BuildingBlock: XIVTED_clean_linker_0, # of connection points: 2
#     Edge 14, Type (0, 0), BuildingBlock: XIVTED_clean_linker_0, # of connection points: 2
#     Edge 15, Type (0, 0), BuildingBlock: XIVTED_clean_linker_0, # of connection points: 2
# Relax obj value: 0.051
# Max RMSD: 0.163
# Mean RMSD: 0.163
data_MOF--net-rob--node1-BETFEN_clean_sbu_0--edge1-XIVTED_clean_linker_0
_symmetry_space_group_name_H-M    P1
_symmetry_Int_Tables_number       1
_symmetry_cell_setting            triclinic
loop_
_symmetry_equiv_pos_as_xyz
'x, y, z'
_cell_length_a     14.963609
_cell_length_b     25.115907
_cell_length_c     37.370815
_cell_angle_alpha  97.281071
_cell_angle_beta   89.828238
_cell_angle_gamma 89.749461
loop_
_atom_site_label
_atom_site_type_symbol
_atom_site_fract_x
_atom_site_fract_y
_atom_site_fract_z
_atom_type_partial_charge
Pr0 Pr 0.14626 0.29011 0.03014 0.0
Pr1 Pr 0.33033 0.25263 1.00156 0.0
C2 C -0.00585 0.30098 0.06909 0.0
C3 C 0.97656 0.30383 0.1081 0.0
C4 C 0.04432 0.31936 0.13315 0.0
C5 C 0.0294 0.3189 0.17008 0.0
C6 C 0.94634 0.30284 0.18274 0.0
C7 C 0.87862 0.28739 0.15744 0.0
C8 C 0.89371 0.28783 0.12049 0.0
C9 C 0.26714 0.3727 0.02467 0.0
C10 C 0.3037 0.25496 0.08734 0.0
C11 C 0.48298 0.24053 0.96299 0.0
C12 C 0.50414 0.24204 0.92446 0.0
C13 C 0.55741 0.20162 0.90571 0.0
C14 C 0.57301 0.20067 0.86867 0.0
C15 C 0.53522 0.24005 0.84957 0.0
C16 C 0.48238 0.28074 0.86854 0.0
C17 C 0.46722 0.2818 0.90558 0.0
C18 C 0.20968 0.17024 1.00779 0.0
C19 C 0.17193 0.28735 0.94457 0.0
O20 O 0.02352 0.25464 0.0535 0.0
O21 O 0.03639 0.34172 0.05844 0.0
O22 O 0.28514 0.32912 0.03661 0.0
O23 O 0.18318 0.37587 1.01624 0.0
O24 O 0.36627 0.25795 0.06269 0.0
O25 O 0.21812 0.2589 0.07948 0.0
O26 O 0.459 0.28594 0.98177 0.0
O27 O 0.43491 0.19989 0.97028 0.0
O28 O 0.19168 0.2134 0.99529 0.0
O29 O 0.29351 0.16749 1.0165 0.0
O30 O 0.10992 0.28286 0.96916 0.0
O31 O 0.2579 0.28503 0.95244 0.0
H32 H 0.10916 0.33144 0.12413 0.0
H33 H 0.08279 0.33154 0.1887 0.0
H34 H 0.81436 0.27392 0.1661 0.0
H35 H 0.84104 0.27499 0.10154 0.0
H36 H 0.58597 0.17031 0.91964 0.0
H37 H 0.61328 0.16844 0.85485 0.0
H38 H 0.45331 0.31211 0.85484 0.0
H39 H 0.42594 0.31354 0.91937 0.0
Pr40 Pr 0.65053 0.79135 0.03239 0.0
Pr41 Pr 0.83128 0.7502 1.00275 0.0
C42 C 0.49979 0.80689 0.0719 0.0
C43 C 0.47952 0.80498 0.11046 0.0
C44 C 0.43174 0.84712 0.13016 0.0
C45 C 0.41736 0.84758 0.16724 0.0
C46 C 0.45077 0.80591 0.18541 0.0
C47 C 0.49815 0.76356 0.16549 0.0
C48 C 0.51222 0.76305 0.12843 0.0
C49 C 0.77372 0.87168 0.02438 0.0
C50 C 0.80801 0.75359 0.08856 0.0
C51 C 0.98234 0.73378 0.9634 0.0
C52 C 0.00416 0.73537 0.92495 0.0
C53 C 0.05653 0.69451 0.9062 0.0
C54 C 0.07337 0.69389 0.86928 0.0
C55 C 0.03773 0.73405 0.85029 0.0
C56 C 0.98547 0.77506 0.86925 0.0
C57 C 0.96912 0.77579 0.90619 0.0
C58 C 0.70702 0.67018 1.01069 0.0
C59 C 0.67443 0.7889 0.94674 0.0
O60 O 0.51961 0.76127 0.05245 0.0
O61 O 0.55088 0.84634 0.0648 0.0
O62 O 0.79118 0.82853 0.03704 0.0
O63 O 0.68959 0.87537 1.01638 0.0
O64 O 0.86965 0.75603 0.06352 0.0
O65 O 0.72215 0.75828 0.08127 0.0
O66 O 0.96268 0.77959 0.98264 0.0
O67 O 0.93025 0.6947 0.97033 0.0
O68 O 0.69055 0.71326 0.99784 0.0
O69 O 0.79093 0.66634 0.019 0.0
O70 O 0.6125 0.78588 0.97159 0.0
O71 O 0.76023 0.78421 0.95413 0.0
H72 H 0.40663 0.88013 0.11696 0.0
H73 H 0.38145 0.88114 0.18179 0.0
H74 H 0.52373 0.73046 0.17846 0.0
H75 H 0.54948 0.73003 0.11392 0.0
H76 H 0.08359 0.66269 0.92005 0.0
H77 H 0.11303 0.66138 0.85546 0.0
H78 H 0.95797 0.807 0.85564 0.0
H79 H 0.92863 0.80786 0.92004 0.0
Pr80 Pr 0.15194 0.74926 0.50247 0.0
Pr81 Pr 0.33358 0.78774 0.53223 0.0
C82 C 0.00088 0.73543 0.46335 0.0
C83 C 0.97909 0.73737 0.42499 0.0
C84 C 0.92373 0.69812 0.40668 0.0
C85 C 0.90644 0.69786 0.36986 0.0
C86 C 0.94462 0.73676 0.35052 0.0
C87 C -5e-05 0.77614 0.36903 0.0
C88 C 0.01672 0.77653 0.40588 0.0
C89 C 0.27441 0.66747 0.50946 0.0
C90 C 0.31062 0.78691 0.44673 0.0
C91 C 0.48425 0.80134 0.57148 0.0
C92 C 0.50447 0.8001 0.61007 0.0
C93 C 0.55463 0.84146 0.629 0.0
C94 C 0.56945 0.84259 0.66606 0.0
C95 C 0.53407 0.8024 0.68501 0.0
C96 C 0.48422 0.76083 0.66587 0.0
C97 C 0.46977 0.75964 0.62881 0.0
C98 C 0.21165 0.86956 0.52474 0.0
C99 C 0.17442 0.75098 0.58818 0.0
O100 O 0.02191 0.78091 0.48251 0.0
O101 O 0.05176 0.6955 0.4701 0.0
O102 O 0.29216 0.71078 0.49719 0.0
O103 O 0.19027 0.66438 0.51769 0.0
O104 O 0.37217 0.78235 0.47138 0.0
O105 O 0.2246 0.78334 0.45419 0.0
O106 O 0.46284 0.7557 0.5526 0.0
O107 O 0.43468 0.84146 0.56405 0.0
O108 O 0.19356 0.82651 0.53732 0.0
O109 O 0.29594 0.87244 0.51669 0.0
O110 O 0.11313 0.75466 0.56329 0.0
O111 O 0.26048 0.75477 0.58085 0.0
H112 H 0.8946 0.66728 0.42081 0.0
H113 H 0.86436 0.66659 0.35639 0.0
H114 H 0.02951 0.8071 0.35515 0.0
H115 H 0.05941 0.80738 0.41941 0.0
H116 H 0.58137 0.87334 0.61518 0.0
H117 H 0.60729 0.87552 0.67999 0.0
H118 H 0.45705 0.72885 0.67945 0.0
H119 H 0.43084 0.7272 0.61488 0.0
Pr120 Pr 0.64728 0.24864 0.50118 0.0
Pr121 Pr 0.83262 0.28369 0.5296 0.0
C122 C 0.49494 0.23891 0.46271 0.0
C123 C 0.4737 0.2416 0.42434 0.0
C124 C 0.42017 0.20198 0.40534 0.0
C125 C 0.40422 0.20217 0.36845 0.0
C126 C 0.44193 0.2419 0.34971 0.0
C127 C 0.49509 0.28177 0.36891 0.0
C128 C 0.51051 0.28172 0.40583 0.0
C129 C 0.7663 0.16472 0.50665 0.0
C130 C 0.80644 0.28309 0.44434 0.0
C131 C 0.985 0.29259 0.56808 0.0
C132 C 0.00376 0.29617 0.60702 0.0
C133 C 0.93651 0.31198 0.6325 0.0
C134 C 0.95318 0.31304 0.66941 0.0
C135 C 0.03752 0.29821 0.68164 0.0
C136 C 0.10461 0.2823 0.65586 0.0
C137 C 0.08779 0.28127 0.61894 0.0
C138 C 0.71256 0.36755 0.52481 0.0
C139 C 0.67362 0.2497 0.5868 0.0
O140 O 0.51917 0.2837 0.48195 0.0
O141 O 0.54265 0.19759 0.46937 0.0
O142 O 0.78554 0.20798 0.49455 0.0
O143 O 0.68223 0.16274 0.51529 0.0
O144 O 0.86861 0.27692 0.46847 0.0
O145 O 0.72053 0.28176 0.45259 0.0
O146 O 0.95375 0.24655 0.55316 0.0
O147 O 0.94399 0.33376 0.55724 0.0
O148 O 0.69427 0.324 0.53662 0.0
O149 O 0.79666 0.37014 0.51635 0.0
O150 O 0.61121 0.25355 0.56234 0.0
O151 O 0.75935 0.25297 0.57885 0.0
H152 H 0.39162 0.17042 0.41897 0.0
H153 H 0.36373 0.17054 0.35445 0.0
H154 H 0.52419 0.31336 0.3555 0.0
H155 H 0.55185 0.3129 0.41983 0.0
H156 H 0.87084 0.3233 0.62385 0.0
H157 H 0.90016 0.32602 0.68835 0.0
H158 H 0.16983 0.2697 0.66415 0.0
H159 H 0.14017 0.2683 0.59967 0.0
H160 H 0.5306 0.66961 0.99167 0.0
H161 H 0.44311 0.37408 0.04399 0.0
H162 H 0.7329 0.57337 0.03513 0.0
H163 H 0.23967 0.47018 1.00112 0.0
H164 H 0.55018 0.4467 0.04093 0.0
H165 H 0.42267 0.59741 0.99517 0.0
C166 C 0.55221 0.63326 1.00198 0.0
C167 C 0.64078 0.62733 1.01306 0.0
C168 C 0.48215 0.45199 0.0322 0.0
C169 C 0.51786 0.54453 0.01709 0.0
C170 C 0.42103 0.41052 0.03393 0.0
C171 C 0.33244 0.41622 0.02283 0.0
C172 C 0.45451 0.49959 0.01928 0.0
C173 C 0.30737 0.46422 1.01 0.0
C174 C 0.49063 0.59205 1.00396 0.0
C175 C 0.66527 0.5795 0.02624 0.0
N176 N 0.36807 0.50407 1.00858 0.0
N177 N 0.60421 0.53993 0.02784 0.0
H178 H 0.45137 0.66567 0.49091 0.0
H179 H 0.53615 0.37003 0.54403 0.0
H180 H 0.24681 0.57067 0.53358 0.0
H181 H 0.74079 0.46455 0.50097 0.0
H182 H 0.42922 0.44314 0.54051 0.0
H183 H 0.55874 0.5928 0.49471 0.0
C184 C 0.42914 0.62944 0.5011 0.0
C185 C 0.34013 0.62406 0.51189 0.0
C186 C 0.49749 0.44798 0.53184 0.0
C187 C 0.46241 0.5405 0.51629 0.0
C188 C 0.55851 0.40623 0.53383 0.0
C189 C 0.64737 0.41136 0.52281 0.0
C190 C 0.52555 0.49525 0.51874 0.0
C191 C 0.67286 0.45906 0.50981 0.0
C192 C 0.4904 0.58784 0.50325 0.0
C193 C 0.31482 0.57636 0.52491 0.0
N194 N 0.61226 0.49918 0.50814 0.0
N195 N 0.37562 0.5364 0.52672 0.0
H196 H 0.03357 0.16793 0.98849 0.0
H197 H 0.95059 0.87304 0.04279 0.0
H198 H 0.23822 0.07359 0.03219 0.0
H199 H 0.74593 0.96817 0.9998 0.0
H200 H 0.05746 0.94561 0.03867 0.0
H201 H 0.92732 0.09502 0.99222 0.0
C202 C 0.05608 0.13181 0.99886 0.0
C203 C 0.14475 0.12667 1.01 0.0
C204 C 0.9892 0.95065 0.03014 0.0
C205 C 0.02372 0.04304 1.01433 0.0
C206 C 0.92824 0.90923 0.03247 0.0
C207 C 0.83934 0.91474 0.0217 0.0
C208 C 0.961 0.99793 0.01693 0.0
C209 C 0.81386 0.96237 1.00847 0.0
C210 C -0.00455 0.09019 1.00099 0.0
C211 C 0.17042 0.07911 0.02327 0.0
N212 N 0.87434 1.00214 1.0065 0.0
N213 N 0.11022 0.03911 0.02505 0.0
H214 H 0.73597 0.06885 0.53163 0.0
H215 H 0.24071 0.96497 0.49917 0.0
H216 H 0.94308 0.16072 0.48777 0.0
H217 H 0.0343 0.87268 0.54312 0.0
H218 H 0.13235 0.03689 0.49452 0.0
H219 H 0.84378 0.99638 0.53588 0.0
C220 C 0.8042 0.0737 0.52287 0.0
C221 C 0.83074 0.12074 0.50929 0.0
C222 C 0.11061 1.00094 0.50518 0.0
C223 C 0.9545 0.0381 0.51409 0.0
C224 C 0.17248 0.95989 0.50785 0.0
C225 C 0.14637 0.91293 0.52162 0.0
C226 C 0.02186 0.99501 0.51636 0.0
C227 C 0.05714 0.90832 0.53238 0.0
C228 C 0.86572 0.03235 0.52531 0.0
C229 C 0.9199 0.12505 0.49838 0.0
N230 N -0.00194 0.94888 0.52954 0.0
N231 N 0.97859 0.08426 0.50102 0.0
H232 H 0.56063 0.26295 0.29683 0.0
H233 H 0.19092 0.23409 0.14124 0.0
H234 H 0.28518 0.22116 0.31281 0.0
H235 H 0.46945 0.26233 0.12014 0.0
H236 H 0.22612 0.22961 0.20416 0.0
H237 H 0.5303 0.26389 0.23248 0.0
C238 C 0.49372 0.25414 0.28687 0.0
C239 C 0.42532 0.24197 0.31039 0.0
C240 C 0.27988 0.23653 0.18587 0.0
C241 C 0.3904 0.24263 0.23665 0.0
C242 C 0.25981 0.2392 0.14976 0.0
C243 C 0.32731 0.24882 0.12519 0.0
C244 C 0.36829 0.24364 0.1979 0.0
C245 C 0.4153 0.25474 0.13805 0.0
C246 C 0.47665 0.25435 0.25008 0.0
C247 C 0.3403 0.23013 0.29577 0.0
N248 N 0.43323 0.2523 0.17358 0.0
N249 N 0.32531 0.23094 0.25999 0.0
H250 H 0.56739 0.77744 0.23677 0.0
H251 H 0.20455 0.82253 0.39561 0.0
H252 H 0.29851 0.83498 0.22408 0.0
H253 H 0.47445 0.7705 0.41276 0.0
H254 H 0.24116 0.82965 0.33308 0.0
H255 H 0.53784 0.77621 0.30119 0.0
C256 C 0.50209 0.78971 0.24747 0.0
C257 C 0.43523 0.80625 0.22484 0.0
C258 C 0.29277 0.81684 0.35041 0.0
C259 C 0.40134 0.80533 0.29867 0.0
C260 C 0.27172 0.81254 0.38624 0.0
C261 C 0.33616 0.79527 0.40949 0.0
C262 C 0.37915 0.80367 0.33736 0.0
C263 C 0.42264 0.78393 0.3958 0.0
C264 C 0.48552 0.7893 0.28431 0.0
C265 C 0.35246 0.82251 0.24041 0.0
N266 N 0.44151 0.78797 0.36052 0.0
N267 N 0.33789 0.82143 0.27621 0.0
H268 H 0.78285 0.81878 0.89417 0.0
H269 H 0.41656 0.77855 0.73757 0.0
H270 H 0.50961 0.7762 0.91373 0.0
H271 H 0.68828 0.82851 0.72248 0.0
H272 H 0.44658 0.77865 0.80201 0.0
H273 H 0.74653 0.8245 0.83151 0.0
C274 C 0.71499 0.81063 0.88532 0.0
C275 C 0.64947 0.79645 0.90931 0.0
C276 C 0.49945 0.78979 0.78459 0.0
C277 C 0.60687 0.80317 0.83699 0.0
C278 C 0.48258 0.78942 0.74774 0.0
C279 C 0.55008 0.80347 0.72444 0.0
C280 C 0.58456 0.80406 0.79828 0.0
C281 C 0.63384 0.818 0.73934 0.0
C282 C 0.69413 0.8141 0.8494 0.0
C283 C 0.56227 0.78725 0.89621 0.0
N284 N 0.64867 0.8177 0.77516 0.0
N285 N 0.54358 0.79042 0.86084 0.0
H286 H 0.78586 0.22745 0.64033 0.0
H287 H 0.41621 0.26065 0.79686 0.0
H288 H 0.50772 0.25838 0.61991 0.0
H289 H 0.69158 0.21725 0.81225 0.0
H290 H 0.44633 0.26028 0.73234 0.0
H291 H 0.75031 0.22321 0.70329 0.0
C292 C 0.71697 0.23317 0.649 0.0
C293 C 0.64969 0.24352 0.62463 0.0
C294 C 0.5 0.25065 0.74984 0.0
C295 C 0.60833 0.23866 0.69739 0.0
C296 C 0.48306 0.25117 0.78673 0.0
C297 C 0.55154 0.239 0.81013 0.0
C298 C 0.58619 0.23816 0.7362 0.0
C299 C 0.63643 0.22627 0.7953 0.0
C300 C 0.6967 0.23065 0.68514 0.0
C301 C 0.56169 0.25022 0.63768 0.0
N302 N 0.6513 0.22638 0.75942 0.0
N303 N 0.54359 0.24795 0.67325 0.0
H304 H 0.97518 0.76085 0.11991 0.0
H305 H 0.78536 0.71765 0.31527 0.0
H306 H 0.69854 0.73094 0.14308 0.0
H307 H 0.06114 0.75571 0.29637 0.0
H308 H 0.75519 0.71815 0.25124 0.0
H309 H 0.01119 0.75462 0.18335 0.0
C310 C 0.92213 0.75267 0.13819 0.0
C311 C 0.83351 0.74678 0.1261 0.0
C312 C 0.82246 0.72628 0.26099 0.0
C313 C 0.87412 0.73978 0.19865 0.0
C314 C 0.83984 0.7257 0.29761 0.0
C315 C 0.92596 0.73658 0.31134 0.0
C316 C 0.89166 0.7377 0.23764 0.0
C317 C -0.00652 0.74768 0.2871 0.0
C318 C 0.94267 0.74931 0.17443 0.0
C319 C 0.76756 0.73634 0.15109 0.0
N320 N 0.97493 0.74792 0.25146 0.0
N321 N 0.78914 0.73331 0.18603 0.0
H322 H 0.69828 0.3152 0.39252 0.0
H323 H 0.06199 0.27267 0.23399 0.0
H324 H 0.97041 0.26777 0.41027 0.0
H325 H 0.7939 0.33173 0.22153 0.0
H326 H 0.03237 0.27129 0.29835 0.0
H327 H 0.73427 0.32167 0.32987 0.0
C328 C 0.76583 0.30614 0.38328 0.0
C329 C 0.83113 0.29047 0.40679 0.0
C330 C 0.98018 0.28464 0.28151 0.0
C331 C 0.87341 0.29812 0.33446 0.0
C332 C -0.00289 0.2857 0.24475 0.0
C333 C 0.93022 0.30219 0.2221 0.0
C334 C 0.8957 0.30009 0.2958 0.0
C335 C 0.8471 0.31784 0.23763 0.0
C336 C 0.7865 0.31004 0.34736 0.0
C337 C 0.91791 0.28001 0.39315 0.0
N338 N 0.83229 0.3163 0.27337 0.0
N339 N 0.93646 0.28374 0.3578 0.0
H340 H 0.1913 0.32877 0.71849 0.0
H341 H 0.00688 0.27312 0.91213 0.0
H342 H 0.92508 0.27056 0.73491 0.0
H343 H 0.2795 0.31504 0.89081 0.0
H344 H 0.97126 0.2779 0.84852 0.0
H345 H 0.22113 0.32868 0.78254 0.0
C346 C 0.13912 0.31568 0.73547 0.0
C347 C 0.05563 0.29936 0.72101 0.0
C348 C 0.03881 0.28616 0.85787 0.0
C349 C 0.08907 0.30004 0.79499 0.0
C350 C 0.05911 0.28365 0.89421 0.0
C351 C 0.14657 0.29332 0.90688 0.0
C352 C 0.10637 0.29871 0.83409 0.0
C353 C 0.21149 0.30666 0.88232 0.0
C354 C 0.15606 0.316 0.77221 0.0
C355 C 0.99014 0.28402 0.74477 0.0
N356 N 0.19015 0.30885 0.84724 0.0
N357 N 0.0083 0.28464 0.78051 0.0
H358 H 0.00774 0.76215 0.62027 0.0
H359 H 0.19503 0.71 0.81394 0.0
H360 H 0.28209 0.72349 0.64171 0.0
H361 H 0.92218 0.7571 0.797 0.0
H362 H 0.22468 0.71014 0.74979 0.0
H363 H 0.97129 0.7556 0.68372 0.0
C364 C 0.06015 0.75196 0.63817 0.0
C365 C 0.14833 0.7438 0.62562 0.0
C366 C 0.15815 0.72033 0.76 0.0
C367 C 0.10726 0.73642 0.69815 0.0
C368 C 0.14104 0.71996 0.79669 0.0
C369 C 0.05594 0.73351 0.81101 0.0
C370 C 0.08972 0.73427 0.73717 0.0
C371 C 0.98911 0.74699 0.78727 0.0
C372 C 0.03939 0.74843 0.67441 0.0
C373 C 0.21349 0.7308 0.65011 0.0
N374 N 0.00739 0.74701 0.75155 0.0
N375 N 0.19172 0.72766 0.68506 0.0
loop_
_geom_bond_atom_site_label_1
_geom_bond_atom_site_label_2
_geom_bond_distance
_geom_bond_site_symmetry_2
_ccdc_geom_bond_type
Pr0 C2 2.880 . S
Pr0 O20 2.562 . S
Pr0 O21 2.490 . S
Pr0 O22 2.695 1_554 S
Pr0 O23 2.512 . S
Pr0 O25 2.437 . S
Pr0 O28 2.436 . S
Pr0 O30 2.438 1_554 S
Pr1 C11 2.880 . S
Pr1 O22 2.436 . S
Pr1 O24 2.438 1_556 S
Pr1 O26 2.562 . S
Pr1 O27 2.490 . S
Pr1 O28 2.695 1_556 S
Pr1 O29 2.512 . S
Pr1 O31 2.437 . S
C2 Pr0 2.880 . S
C2 C3 1.491 . S
C2 O20 1.254 . S
C2 O21 1.225 . S
C3 C2 1.491 . S
C3 C4 1.392 . S
C3 C8 1.356 . S
C4 C3 1.392 . S
C4 C5 1.368 . S
C4 H32 0.929 . S
C5 C4 1.368 . S
C5 C6 1.386 1_455 S
C5 H33 0.929 1_455 S
C6 C5 1.386 1_655 S
C6 C7 1.373 1_655 S
C7 C6 1.373 1_455 S
C7 C8 1.409 . S
C7 H34 0.931 1_455 S
C8 C3 1.356 . S
C8 C7 1.409 . S
C8 H35 0.930 . S
C9 O22 1.270 1_554 S
C9 O23 1.248 . S
C10 O24 1.267 . S
C10 O25 1.278 . S
C11 Pr1 2.880 . S
C11 C12 1.491 . S
C11 O26 1.254 . S
C11 O27 1.225 . S
C12 C11 1.491 . S
C12 C13 1.392 . S
C12 C17 1.356 . S
C13 C12 1.392 . S
C13 C14 1.368 . S
C13 H36 0.929 . S
C14 C13 1.368 . S
C14 C15 1.386 . S
C14 H37 0.929 . S
C15 C14 1.386 . S
C15 C16 1.373 . S
C16 C15 1.373 . S
C16 C17 1.409 . S
C16 H38 0.931 . S
C17 C12 1.356 . S
C17 C16 1.409 . S
C17 H39 0.930 . S
C18 O28 1.270 1_556 S
C18 O29 1.248 . S
C19 O30 1.267 . S
C19 O31 1.278 . S
O20 Pr0 2.562 . S
O20 C2 1.254 . S
O21 Pr0 2.490 . S
O21 C2 1.225 . S
O22 Pr0 2.695 1_556 S
O22 Pr1 2.436 . S
O22 C9 1.270 1_556 S
O23 Pr0 2.512 . S
O23 C9 1.248 . S
O24 Pr1 2.438 1_554 S
O24 C10 1.267 . S
O25 Pr0 2.437 . S
O25 C10 1.278 . S
O26 Pr1 2.562 . S
O26 C11 1.254 . S
O27 Pr1 2.490 . S
O27 C11 1.225 . S
O28 Pr0 2.436 . S
O28 Pr1 2.695 1_554 S
O28 C18 1.270 1_554 S
O29 Pr1 2.512 . S
O29 C18 1.248 . S
O30 Pr0 2.438 1_556 S
O30 C19 1.267 . S
O31 Pr1 2.437 . S
O31 C19 1.278 . S
H32 C4 0.929 . S
H33 C5 0.929 1_655 S
H34 C7 0.931 1_655 S
H35 C8 0.930 . S
H36 C13 0.929 . S
H37 C14 0.929 . S
H38 C16 0.931 . S
H39 C17 0.930 . S
Pr40 C42 2.880 . S
Pr40 O60 2.562 . S
Pr40 O61 2.490 . S
Pr40 O62 2.695 1_554 S
Pr40 O63 2.512 . S
Pr40 O65 2.437 . S
Pr40 O68 2.436 . S
Pr40 O70 2.438 1_554 S
Pr41 C51 2.880 . S
Pr41 O62 2.436 . S
Pr41 O64 2.438 1_556 S
Pr41 O66 2.562 . S
Pr41 O67 2.490 . S
Pr41 O68 2.695 1_556 S
Pr41 O69 2.512 . S
Pr41 O71 2.437 . S
C42 Pr40 2.880 . S
C42 C43 1.491 . S
C42 O60 1.254 . S
C42 O61 1.225 . S
C43 C42 1.491 . S
C43 C44 1.392 . S
C43 C48 1.356 . S
C44 C43 1.392 . S
C44 C45 1.368 . S
C44 H72 0.929 . S
C45 C44 1.368 . S
C45 C46 1.386 . S
C45 H73 0.929 . S
C46 C45 1.386 . S
C46 C47 1.373 . S
C47 C46 1.373 . S
C47 C48 1.409 . S
C47 H74 0.931 . S
C48 C43 1.356 . S
C48 C47 1.409 . S
C48 H75 0.930 . S
C49 O62 1.270 1_554 S
C49 O63 1.248 . S
C50 O64 1.267 . S
C50 O65 1.278 . S
C51 Pr41 2.880 . S
C51 C52 1.491 . S
C51 O66 1.254 . S
C51 O67 1.225 . S
C52 C51 1.491 . S
C52 C53 1.392 . S
C52 C57 1.356 . S
C53 C52 1.392 . S
C53 C54 1.368 . S
C53 H76 0.929 . S
C54 C53 1.368 . S
C54 C55 1.386 1_655 S
C54 H77 0.929 1_655 S
C55 C54 1.386 1_455 S
C55 C56 1.373 1_455 S
C56 C55 1.373 1_655 S
C56 C57 1.409 . S
C56 H78 0.931 1_655 S
C57 C52 1.356 . S
C57 C56 1.409 . S
C57 H79 0.930 . S
C58 O68 1.270 1_556 S
C58 O69 1.248 . S
C59 O70 1.267 . S
C59 O71 1.278 . S
O60 Pr40 2.562 . S
O60 C42 1.254 . S
O61 Pr40 2.490 . S
O61 C42 1.225 . S
O62 Pr40 2.695 1_556 S
O62 Pr41 2.436 . S
O62 C49 1.270 1_556 S
O63 Pr40 2.512 . S
O63 C49 1.248 . S
O64 Pr41 2.438 1_554 S
O64 C50 1.267 . S
O65 Pr40 2.437 . S
O65 C50 1.278 . S
O66 Pr41 2.562 . S
O66 C51 1.254 . S
O67 Pr41 2.490 . S
O67 C51 1.225 . S
O68 Pr40 2.436 . S
O68 Pr41 2.695 1_554 S
O68 C58 1.270 1_554 S
O69 Pr41 2.512 . S
O69 C58 1.248 . S
O70 Pr40 2.438 1_556 S
O70 C59 1.267 . S
O71 Pr41 2.437 . S
O71 C59 1.278 . S
H72 C44 0.929 . S
H73 C45 0.929 . S
H74 C47 0.931 . S
H75 C48 0.930 . S
H76 C53 0.929 . S
H77 C54 0.929 1_455 S
H78 C56 0.931 1_455 S
H79 C57 0.930 . S
Pr80 C82 2.880 . S
Pr80 O100 2.562 . S
Pr80 O101 2.490 . S
Pr80 O102 2.695 . S
Pr80 O103 2.512 . S
Pr80 O105 2.437 . S
Pr80 O108 2.436 . S
Pr80 O110 2.438 . S
Pr81 C91 2.880 . S
Pr81 O102 2.436 . S
Pr81 O104 2.438 . S
Pr81 O106 2.562 . S
Pr81 O107 2.490 . S
Pr81 O108 2.695 . S
Pr81 O109 2.512 . S
Pr81 O111 2.437 . S
C82 Pr80 2.880 . S
C82 C83 1.491 . S
C82 O100 1.254 . S
C82 O101 1.225 . S
C83 C82 1.491 . S
C83 C84 1.392 . S
C83 C88 1.356 . S
C84 C83 1.392 . S
C84 C85 1.368 . S
C84 H112 0.929 . S
C85 C84 1.368 . S
C85 C86 1.386 1_455 S
C85 H113 0.929 1_455 S
C86 C85 1.386 1_655 S
C86 C87 1.373 1_655 S
C87 C86 1.373 1_455 S
C87 C88 1.409 . S
C87 H114 0.931 1_455 S
C88 C83 1.356 . S
C88 C87 1.409 . S
C88 H115 0.930 . S
C89 O102 1.270 . S
C89 O103 1.248 . S
C90 O104 1.267 . S
C90 O105 1.278 . S
C91 Pr81 2.880 . S
C91 C92 1.491 . S
C91 O106 1.254 . S
C91 O107 1.225 . S
C92 C91 1.491 . S
C92 C93 1.392 . S
C92 C97 1.356 . S
C93 C92 1.392 . S
C93 C94 1.368 . S
C93 H116 0.929 . S
C94 C93 1.368 . S
C94 C95 1.386 . S
C94 H117 0.929 . S
C95 C94 1.386 . S
C95 C96 1.373 . S
C96 C95 1.373 . S
C96 C97 1.409 . S
C96 H118 0.931 . S
C97 C92 1.356 . S
C97 C96 1.409 . S
C97 H119 0.930 . S
C98 O108 1.270 . S
C98 O109 1.248 . S
C99 O110 1.267 . S
C99 O111 1.278 . S
O100 Pr80 2.562 . S
O100 C82 1.254 . S
O101 Pr80 2.490 . S
O101 C82 1.225 . S
O102 Pr80 2.695 . S
O102 Pr81 2.436 . S
O102 C89 1.270 . S
O103 Pr80 2.512 . S
O103 C89 1.248 . S
O104 Pr81 2.438 . S
O104 C90 1.267 . S
O105 Pr80 2.437 . S
O105 C90 1.278 . S
O106 Pr81 2.562 . S
O106 C91 1.254 . S
O107 Pr81 2.490 . S
O107 C91 1.225 . S
O108 Pr80 2.436 . S
O108 Pr81 2.695 . S
O108 C98 1.270 . S
O109 Pr81 2.512 . S
O109 C98 1.248 . S
O110 Pr80 2.438 . S
O110 C99 1.267 . S
O111 Pr81 2.437 . S
O111 C99 1.278 . S
H112 C84 0.929 . S
H113 C85 0.929 1_655 S
H114 C87 0.931 1_655 S
H115 C88 0.930 . S
H116 C93 0.929 . S
H117 C94 0.929 . S
H118 C96 0.931 . S
H119 C97 0.930 . S
Pr120 C122 2.880 . S
Pr120 O140 2.562 . S
Pr120 O141 2.490 . S
Pr120 O142 2.695 . S
Pr120 O143 2.512 . S
Pr120 O145 2.437 . S
Pr120 O148 2.436 . S
Pr120 O150 2.438 . S
Pr121 C131 2.880 . S
Pr121 O142 2.436 . S
Pr121 O144 2.438 . S
Pr121 O146 2.562 . S
Pr121 O147 2.490 . S
Pr121 O148 2.695 . S
Pr121 O149 2.512 . S
Pr121 O151 2.437 . S
C122 Pr120 2.880 . S
C122 C123 1.491 . S
C122 O140 1.254 . S
C122 O141 1.225 . S
C123 C122 1.491 . S
C123 C124 1.392 . S
C123 C128 1.356 . S
C124 C123 1.392 . S
C124 C125 1.368 . S
C124 H152 0.929 . S
C125 C124 1.368 . S
C125 C126 1.386 . S
C125 H153 0.929 . S
C126 C125 1.386 . S
C126 C127 1.373 . S
C127 C126 1.373 . S
C127 C128 1.409 . S
C127 H154 0.931 . S
C128 C123 1.356 . S
C128 C127 1.409 . S
C128 H155 0.930 . S
C129 O142 1.270 . S
C129 O143 1.248 . S
C130 O144 1.267 . S
C130 O145 1.278 . S
C131 Pr121 2.880 . S
C131 C132 1.491 . S
C131 O146 1.254 . S
C131 O147 1.225 . S
C132 C131 1.491 . S
C132 C133 1.392 . S
C132 C137 1.356 . S
C133 C132 1.392 . S
C133 C134 1.368 . S
C133 H156 0.929 . S
C134 C133 1.368 . S
C134 C135 1.386 1_655 S
C134 H157 0.929 1_655 S
C135 C134 1.386 1_455 S
C135 C136 1.373 1_455 S
C136 C135 1.373 1_655 S
C136 C137 1.409 . S
C136 H158 0.931 1_655 S
C137 C132 1.356 . S
C137 C136 1.409 . S
C137 H159 0.930 . S
C138 O148 1.270 . S
C138 O149 1.248 . S
C139 O150 1.267 . S
C139 O151 1.278 . S
O140 Pr120 2.562 . S
O140 C122 1.254 . S
O141 Pr120 2.490 . S
O141 C122 1.225 . S
O142 Pr120 2.695 . S
O142 Pr121 2.436 . S
O142 C129 1.270 . S
O143 Pr120 2.512 . S
O143 C129 1.248 . S
O144 Pr121 2.438 . S
O144 C130 1.267 . S
O145 Pr120 2.437 . S
O145 C130 1.278 . S
O146 Pr121 2.562 . S
O146 C131 1.254 . S
O147 Pr121 2.490 . S
O147 C131 1.225 . S
O148 Pr120 2.436 . S
O148 Pr121 2.695 . S
O148 C138 1.270 . S
O149 Pr121 2.512 . S
O149 C138 1.248 . S
O150 Pr120 2.438 . S
O150 C139 1.267 . S
O151 Pr121 2.437 . S
O151 C139 1.278 . S
H152 C124 0.929 . S
H153 C125 0.929 . S
H154 C127 0.931 . S
H155 C128 0.930 . S
H156 C133 0.929 . S
H157 C134 0.929 1_455 S
H158 C136 0.931 1_455 S
H159 C137 0.930 . S
H160 C166 0.930 . S
H161 C170 0.930 . S
H162 C175 0.929 . S
H163 C173 0.929 1_556 S
H164 C168 0.928 . S
H165 C174 0.928 . S
C166 H160 0.930 . S
C166 C167 1.367 . S
C166 C174 1.377 . S
C167 C166 1.367 . S
C167 C175 1.433 1_556 S
C168 H164 0.928 . S
C168 C170 1.377 . S
C168 C172 1.349 . S
C169 C172 1.462 . S
C169 C174 1.350 1_554 S
C169 N177 1.427 . S
C170 H161 0.930 . S
C170 C168 1.377 . S
C170 C171 1.367 . S
C171 C170 1.367 . S
C171 C173 1.432 . S
C172 C168 1.349 . S
C172 C169 1.462 . S
C172 N176 1.427 1_554 S
C173 H163 0.929 1_554 S
C173 C171 1.432 . S
C173 N176 1.384 1_554 S
C174 H165 0.928 . S
C174 C166 1.377 . S
C174 C169 1.350 1_556 S
C175 H162 0.929 . S
C175 C167 1.433 1_554 S
C175 N177 1.383 . S
N176 C172 1.427 1_556 S
N176 C173 1.384 1_556 S
N177 C169 1.427 . S
N177 C175 1.383 . S
H178 C184 0.930 . S
H179 C188 0.930 . S
H180 C193 0.929 . S
H181 C191 0.929 . S
H182 C186 0.929 . S
H183 C192 0.929 . S
C184 H178 0.930 . S
C184 C185 1.367 . S
C184 C192 1.378 . S
C185 C184 1.367 . S
C185 C193 1.433 . S
C186 H182 0.929 . S
C186 C188 1.378 . S
C186 C190 1.350 . S
C187 C190 1.463 . S
C187 C192 1.350 . S
C187 N195 1.427 . S
C188 H179 0.930 . S
C188 C186 1.378 . S
C188 C189 1.367 . S
C189 C188 1.367 . S
C189 C191 1.433 . S
C190 C186 1.350 . S
C190 C187 1.463 . S
C190 N194 1.427 . S
C191 H181 0.929 . S
C191 C189 1.433 . S
C191 N194 1.384 . S
C192 H183 0.929 . S
C192 C184 1.378 . S
C192 C187 1.350 . S
C193 H180 0.929 . S
C193 C185 1.433 . S
C193 N195 1.384 . S
N194 C190 1.427 . S
N194 C191 1.384 . S
N195 C187 1.427 . S
N195 C193 1.384 . S
H196 C202 0.930 . S
H197 C206 0.930 . S
H198 C211 0.929 . S
H199 C209 0.929 . S
H200 C204 0.929 . S
H201 C210 0.929 . S
C202 H196 0.930 . S
C202 C203 1.391 . S
C202 C210 1.378 . S
C203 C202 1.391 . S
C203 C211 1.406 1_556 S
C204 H200 0.929 . S
C204 C206 1.378 . S
C204 C208 1.350 . S
C205 C208 1.458 1_446 S
C205 C210 1.380 . S
C205 N213 1.399 1_556 S
C206 H197 0.930 . S
C206 C204 1.378 . S
C206 C207 1.367 . S
C207 C206 1.367 . S
C207 C209 1.433 1_554 S
C208 C204 1.350 . S
C208 C205 1.458 1_664 S
C208 N212 1.427 1_554 S
C209 H199 0.929 . S
C209 C207 1.433 1_556 S
C209 N212 1.384 . S
C210 H201 0.929 . S
C210 C202 1.378 . S
C210 C205 1.380 . S
C211 H198 0.929 . S
C211 C203 1.406 1_554 S
C211 N213 1.384 . S
N212 C208 1.427 1_556 S
N212 C209 1.384 . S
N213 C205 1.399 1_554 S
N213 C211 1.384 . S
H214 C220 0.930 . S
H215 C224 0.930 . S
H216 C229 0.929 . S
H217 C227 0.929 . S
H218 C222 0.929 . S
H219 C228 0.929 . S
C220 H214 0.930 . S
C220 C221 1.367 . S
C220 C228 1.378 . S
C221 C220 1.367 . S
C221 C229 1.433 . S
C222 H218 0.929 . S
C222 C224 1.378 . S
C222 C226 1.350 . S
C223 C226 1.463 1_645 S
C223 C228 1.350 . S
C223 N231 1.427 . S
C224 H215 0.930 . S
C224 C222 1.378 . S
C224 C225 1.367 . S
C225 C224 1.367 . S
C225 C227 1.433 . S
C226 C222 1.350 . S
C226 C223 1.463 1_465 S
C226 N230 1.427 . S
C227 H217 0.929 . S
C227 C225 1.433 . S
C227 N230 1.384 . S
C228 H219 0.929 . S
C228 C220 1.378 . S
C228 C223 1.350 . S
C229 H216 0.929 . S
C229 C221 1.433 . S
C229 N231 1.384 . S
N230 C226 1.427 . S
N230 C227 1.384 . S
N231 C223 1.427 . S
N231 C229 1.384 . S
H232 C238 0.930 . S
H233 C242 0.930 . S
H234 C247 0.929 . S
H235 C245 0.929 . S
H236 C240 0.929 . S
H237 C246 0.929 . S
C238 H232 0.930 . S
C238 C239 1.367 . S
C238 C246 1.378 . S
C239 C238 1.367 . S
C239 C247 1.433 . S
C240 H236 0.929 . S
C240 C242 1.378 . S
C240 C244 1.350 . S
C241 C244 1.463 . S
C241 C246 1.350 . S
C241 N249 1.427 . S
C242 H233 0.930 . S
C242 C240 1.378 . S
C242 C243 1.367 . S
C243 C242 1.367 . S
C243 C245 1.433 . S
C244 C240 1.350 . S
C244 C241 1.463 . S
C244 N248 1.427 . S
C245 H235 0.929 . S
C245 C243 1.433 . S
C245 N248 1.384 . S
C246 H237 0.929 . S
C246 C238 1.378 . S
C246 C241 1.350 . S
C247 H234 0.929 . S
C247 C239 1.433 . S
C247 N249 1.384 . S
N248 C244 1.427 . S
N248 C245 1.384 . S
N249 C241 1.427 . S
N249 C247 1.384 . S
H250 C256 0.930 . S
H251 C260 0.930 . S
H252 C265 0.929 . S
H253 C263 0.929 . S
H254 C258 0.929 . S
H255 C264 0.929 . S
C256 H250 0.930 . S
C256 C257 1.367 . S
C256 C264 1.378 . S
C257 C256 1.367 . S
C257 C265 1.433 . S
C258 H254 0.929 . S
C258 C260 1.378 . S
C258 C262 1.350 . S
C259 C262 1.463 . S
C259 C264 1.350 . S
C259 N267 1.427 . S
C260 H251 0.930 . S
C260 C258 1.378 . S
C260 C261 1.367 . S
C261 C260 1.367 . S
C261 C263 1.433 . S
C262 C258 1.350 . S
C262 C259 1.463 . S
C262 N266 1.427 . S
C263 H253 0.929 . S
C263 C261 1.433 . S
C263 N266 1.384 . S
C264 H255 0.929 . S
C264 C256 1.378 . S
C264 C259 1.350 . S
C265 H252 0.929 . S
C265 C257 1.433 . S
C265 N267 1.384 . S
N266 C262 1.427 . S
N266 C263 1.384 . S
N267 C259 1.427 . S
N267 C265 1.384 . S
H268 C274 0.930 . S
H269 C278 0.930 . S
H270 C283 0.929 . S
H271 C281 0.929 . S
H272 C276 0.929 . S
H273 C282 0.929 . S
C274 H268 0.930 . S
C274 C275 1.367 . S
C274 C282 1.378 . S
C275 C274 1.367 . S
C275 C283 1.433 . S
C276 H272 0.929 . S
C276 C278 1.378 . S
C276 C280 1.350 . S
C277 C280 1.463 . S
C277 C282 1.350 . S
C277 N285 1.427 . S
C278 H269 0.930 . S
C278 C276 1.378 . S
C278 C279 1.367 . S
C279 C278 1.367 . S
C279 C281 1.433 . S
C280 C276 1.350 . S
C280 C277 1.463 . S
C280 N284 1.427 . S
C281 H271 0.929 . S
C281 C279 1.433 . S
C281 N284 1.384 . S
C282 H273 0.929 . S
C282 C274 1.378 . S
C282 C277 1.350 . S
C283 H270 0.929 . S
C283 C275 1.433 . S
C283 N285 1.384 . S
N284 C280 1.427 . S
N284 C281 1.384 . S
N285 C277 1.427 . S
N285 C283 1.384 . S
H286 C292 0.930 . S
H287 C296 0.930 . S
H288 C301 0.929 . S
H289 C299 0.929 . S
H290 C294 0.929 . S
H291 C300 0.929 . S
C292 H286 0.930 . S
C292 C293 1.367 . S
C292 C300 1.378 . S
C293 C292 1.367 . S
C293 C301 1.433 . S
C294 H290 0.929 . S
C294 C296 1.378 . S
C294 C298 1.350 . S
C295 C298 1.463 . S
C295 C300 1.350 . S
C295 N303 1.427 . S
C296 H287 0.930 . S
C296 C294 1.378 . S
C296 C297 1.367 . S
C297 C296 1.367 . S
C297 C299 1.433 . S
C298 C294 1.350 . S
C298 C295 1.463 . S
C298 N302 1.427 . S
C299 H289 0.929 . S
C299 C297 1.433 . S
C299 N302 1.384 . S
C300 H291 0.929 . S
C300 C292 1.378 . S
C300 C295 1.350 . S
C301 H288 0.929 . S
C301 C293 1.433 . S
C301 N303 1.384 . S
N302 C298 1.427 . S
N302 C299 1.384 . S
N303 C295 1.427 . S
N303 C301 1.384 . S
H304 C310 0.930 . S
H305 C314 0.930 . S
H306 C319 0.929 . S
H307 C317 0.929 . S
H308 C312 0.929 . S
H309 C318 0.929 1_455 S
C310 H304 0.930 . S
C310 C311 1.367 . S
C310 C318 1.378 . S
C311 C310 1.367 . S
C311 C319 1.433 . S
C312 H308 0.929 . S
C312 C314 1.378 . S
C312 C316 1.350 . S
C313 C316 1.463 . S
C313 C318 1.350 . S
C313 N321 1.427 . S
C314 H305 0.930 . S
C314 C312 1.378 . S
C314 C315 1.367 . S
C315 C314 1.367 . S
C315 C317 1.433 1_655 S
C316 C312 1.350 . S
C316 C313 1.463 . S
C316 N320 1.417 1_655 S
C317 H307 0.929 . S
C317 C315 1.433 1_455 S
C317 N320 1.387 . S
C318 H309 0.929 1_655 S
C318 C310 1.378 . S
C318 C313 1.350 . S
C319 H306 0.929 . S
C319 C311 1.433 . S
C319 N321 1.384 . S
N320 C316 1.417 1_455 S
N320 C317 1.387 . S
N321 C313 1.427 . S
N321 C319 1.384 . S
H322 C328 0.930 . S
H323 C332 0.930 . S
H324 C337 0.929 . S
H325 C335 0.929 . S
H326 C330 0.929 . S
H327 C336 0.929 . S
C328 H322 0.930 . S
C328 C329 1.367 . S
C328 C336 1.378 . S
C329 C328 1.367 . S
C329 C337 1.433 . S
C330 H326 0.929 . S
C330 C332 1.378 . S
C330 C334 1.350 . S
C331 C334 1.463 . S
C331 C336 1.350 . S
C331 N339 1.427 . S
C332 H323 0.930 . S
C332 C330 1.378 . S
C332 C333 1.367 . S
C333 C332 1.367 . S
C333 C335 1.433 . S
C334 C330 1.350 . S
C334 C331 1.463 . S
C334 N338 1.427 . S
C335 H325 0.929 . S
C335 C333 1.433 . S
C335 N338 1.384 . S
C336 H327 0.929 . S
C336 C328 1.378 . S
C336 C331 1.350 . S
C337 H324 0.929 . S
C337 C329 1.433 . S
C337 N339 1.384 . S
N338 C334 1.427 . S
N338 C335 1.384 . S
N339 C331 1.427 . S
N339 C337 1.384 . S
H340 C346 0.930 . S
H341 C350 0.930 . S
H342 C355 0.929 1_655 S
H343 C353 0.929 . S
H344 C348 0.929 . S
H345 C354 0.929 . S
C346 H340 0.930 . S
C346 C347 1.367 . S
C346 C354 1.378 . S
C347 C346 1.367 . S
C347 C355 1.433 . S
C348 H344 0.929 . S
C348 C350 1.378 . S
C348 C352 1.350 . S
C349 C352 1.463 . S
C349 C354 1.350 . S
C349 N357 1.427 . S
C350 H341 0.930 . S
C350 C348 1.378 . S
C350 C351 1.367 . S
C351 C350 1.367 . S
C351 C353 1.433 . S
C352 C348 1.350 . S
C352 C349 1.463 . S
C352 N356 1.427 . S
C353 H343 0.929 . S
C353 C351 1.433 . S
C353 N356 1.384 . S
C354 H345 0.929 . S
C354 C346 1.378 . S
C354 C349 1.350 . S
C355 H342 0.929 1_455 S
C355 C347 1.433 . S
C355 N357 1.384 . S
N356 C352 1.427 . S
N356 C353 1.384 . S
N357 C349 1.427 . S
N357 C355 1.384 . S
H358 C364 0.930 . S
H359 C368 0.930 . S
H360 C373 0.929 . S
H361 C371 0.929 1_655 S
H362 C366 0.929 . S
H363 C372 0.929 . S
C364 H358 0.930 . S
C364 C365 1.367 . S
C364 C372 1.378 . S
C365 C364 1.367 . S
C365 C373 1.433 . S
C366 H362 0.929 . S
C366 C368 1.378 . S
C366 C370 1.350 . S
C367 C370 1.463 . S
C367 C372 1.350 . S
C367 N375 1.427 . S
C368 H359 0.930 . S
C368 C366 1.378 . S
C368 C369 1.367 . S
C369 C368 1.367 . S
C369 C371 1.433 . S
C370 C366 1.350 . S
C370 C367 1.463 . S
C370 N374 1.427 . S
C371 H361 0.929 1_455 S
C371 C369 1.433 . S
C371 N374 1.384 . S
C372 H363 0.929 . S
C372 C364 1.378 . S
C372 C367 1.350 . S
C373 H360 0.929 . S
C373 C365 1.433 . S
C373 N375 1.384 . S
N374 C370 1.427 . S
N374 C371 1.384 . S
N375 C367 1.427 . S
N375 C373 1.384 . S
C167 C58 1.520 . S
C171 C9 1.522 . S
C185 C89 1.521 . S
C189 C138 1.521 . S
C203 C18 1.520 . S
C207 C49 1.514 . S
C221 C129 1.518 . S
C225 C98 1.518 . S
C239 C126 1.268 . S
C243 C10 1.281 . S
C257 C46 1.268 . S
C261 C90 1.281 . S
C275 C59 1.284 . S
C279 C95 1.271 . S
C293 C139 1.283 . S
C297 C15 1.271 . S
C311 C50 1.281 . S
C315 C86 1.275 . S
C329 C130 1.279 . S
C333 C6 1.274 . S
C347 C135 1.271 . S
C351 C19 1.288 . S
C365 C99 1.280 . S
C369 C55 1.281 . S
