# Generated by pormake.
# Topology mmt, (4)-cn, num edge types: 1
# Building blocks:
#     Node 0, Type 0, BuildingBlock: NAHDIM_clean_sbu_0, # of connection points: 4
#     Node 1, Type 0, BuildingBlock: NAHDIM_clean_sbu_0, # of connection points: 4
#     Node 2, Type 0, BuildingBlock: NAHDIM_clean_sbu_0, # of connection points: 4
#     Node 3, Type 0, BuildingBlock: NAHDIM_clean_sbu_0, # of connection points: 4
#     Node 4, Type 0, BuildingBlock: NAHDIM_clean_sbu_0, # of connection points: 4
#     Node 5, Type 0, BuildingBlock: NAHDIM_clean_sbu_0, # of connection points: 4
#     Node 6, Type 0, BuildingBlock: NAHDIM_clean_sbu_0, # of connection points: 4
#     Node 7, Type 0, BuildingBlock: NAHDIM_clean_sbu_0, # of connection points: 4
#     Edge 8, Type (0, 0), BuildingBlock: CIFDUS_clean_linker_0, # of connection points: 2
#     Edge 9, Type (0, 0), BuildingBlock: CIFDUS_clean_linker_0, # of connection points: 2
#     Edge 10, Type (0, 0), BuildingBlock: CIFDUS_clean_linker_0, # of connection points: 2
#     Edge 11, Type (0, 0), BuildingBlock: CIFDUS_clean_linker_0, # of connection points: 2
#     Edge 12, Type (0, 0), BuildingBlock: CIFDUS_clean_linker_0, # of connection points: 2
#     Edge 13, Type (0, 0), BuildingBlock: CIFDUS_clean_linker_0, # of connection points: 2
#     Edge 14, Type (0, 0), BuildingBlock: CIFDUS_clean_linker_0, # of connection points: 2
#     Edge 15, Type (0, 0), BuildingBlock: CIFDUS_clean_linker_0, # of connection points: 2
#     Edge 16, Type (0, 0), BuildingBlock: CIFDUS_clean_linker_0, # of connection points: 2
#     Edge 17, Type (0, 0), BuildingBlock: CIFDUS_clean_linker_0, # of connection points: 2
#     Edge 18, Type (0, 0), BuildingBlock: CIFDUS_clean_linker_0, # of connection points: 2
#     Edge 19, Type (0, 0), BuildingBlock: CIFDUS_clean_linker_0, # of connection points: 2
#     Edge 20, Type (0, 0), BuildingBlock: CIFDUS_clean_linker_0, # of connection points: 2
#     Edge 21, Type (0, 0), BuildingBlock: CIFDUS_clean_linker_0, # of connection points: 2
#     Edge 22, Type (0, 0), BuildingBlock: CIFDUS_clean_linker_0, # of connection points: 2
#     Edge 23, Type (0, 0), BuildingBlock: CIFDUS_clean_linker_0, # of connection points: 2
# Relax obj value: 0.078
# Max RMSD: 0.130
# Mean RMSD: 0.130
data_MOF--net-mmt--node1-NAHDIM_clean_sbu_0--edge1-CIFDUS_clean_linker_0
_symmetry_space_group_name_H-M    P1
_symmetry_Int_Tables_number       1
_symmetry_cell_setting            triclinic
loop_
_symmetry_equiv_pos_as_xyz
'x, y, z'
_cell_length_a     19.427167
_cell_length_b     33.045016
_cell_length_c     38.813205
_cell_angle_alpha  90.05116
_cell_angle_beta   89.78635
_cell_angle_gamma 90.119124
loop_
_atom_site_label
_atom_site_type_symbol
_atom_site_fract_x
_atom_site_fract_y
_atom_site_fract_z
_atom_type_partial_charge
C0 C 0.08331 0.51974 0.41635 0.0
O1 O 0.0443 0.54772 0.40245 0.0
O2 O 0.1893 0.59782 0.37045 0.0
Zn3 Zn 0.16424 0.54042 0.35833 0.0
O4 O 0.08336 0.53804 0.32597 0.0
C5 C 0.30569 0.51718 0.34808 0.0
O6 O 0.31352 0.53392 0.37853 0.0
O7 O 0.13981 0.51062 0.40172 0.0
C8 C 0.0915 0.53635 0.29348 0.0
O9 O 0.15409 0.53739 0.28058 0.0
C10 C 0.16414 0.62837 0.35522 0.0
O11 O 0.11818 0.62285 0.33092 0.0
O12 O 0.24591 0.51527 0.33505 0.0
C13 C 0.38305 0.95837 0.40796 0.0
O14 O 0.42843 0.93931 0.38876 0.0
O15 O 0.26079 0.88876 0.34823 0.0
Zn16 Zn 0.29712 0.94579 0.34844 0.0
O17 O 0.377 0.95089 0.3155 0.0
C18 C 0.19935 0.96905 0.30052 0.0
O19 O 0.2265 0.93674 0.28616 0.0
O20 O 0.32297 0.96432 0.39617 0.0
C21 C 0.41786 0.92235 0.30755 0.0
O22 O 0.41071 0.88684 0.32233 0.0
C23 C 0.27743 0.86021 0.3684 0.0
O24 O 0.32322 0.86681 0.39259 0.0
O25 O 0.22191 0.98066 0.32958 0.0
C26 C 0.58556 0.47458 0.0859 0.0
O27 O 0.54351 0.4497 0.10197 0.0
O28 O 0.68708 0.39544 0.13486 0.0
Zn29 Zn 0.66732 0.45428 0.14358 0.0
O30 O 0.58607 0.45918 0.17581 0.0
C31 C 0.80979 0.47914 0.15277 0.0
O32 O 0.81886 0.46306 0.12212 0.0
O33 O 0.64429 0.48174 0.09891 0.0
C34 C 0.59339 0.46585 0.20786 0.0
O35 O 0.65567 0.4694 0.22059 0.0
C36 C 0.69474 0.37218 0.16059 0.0
O37 O 0.6896 0.38736 0.19178 0.0
O38 O 0.74985 0.47961 0.16592 0.0
C39 C 0.85667 0.04867 0.07291 0.0
O40 O 0.90057 0.06904 0.09194 0.0
O41 O 0.77283 0.11847 0.13809 0.0
Zn42 Zn 0.78116 0.05785 0.13433 0.0
O43 O 0.86176 0.03729 0.16161 0.0
C44 C 0.69466 0.00034 0.17063 0.0
O45 O 0.75187 0.97935 0.1725 0.0
O46 O 0.79739 0.04078 0.08522 0.0
C47 C 0.89419 0.05567 0.18531 0.0
O48 O 0.87588 0.09248 0.19414 0.0
C49 C 0.74615 0.13271 0.16549 0.0
O50 O 0.7268 0.10762 0.18994 0.0
O51 O 0.69452 0.03345 0.154 0.0
C52 C 0.92203 0.4375 0.59244 0.0
O53 O 0.96376 0.41216 0.60791 0.0
O54 O 0.83465 0.36396 0.65116 0.0
Zn55 Zn 0.84822 0.42425 0.65432 0.0
O56 O 0.9285 0.43798 0.68497 0.0
C57 C 0.75212 0.43895 0.7069 0.0
O58 O 0.79491 0.41415 0.7223 0.0
O59 O 0.86628 0.44745 0.60741 0.0
C60 C 0.93026 0.47243 0.69953 0.0
O61 O 0.88069 0.49843 0.69348 0.0
C62 C 0.87012 0.33916 0.66867 0.0
O63 O 0.91908 0.35301 0.68876 0.0
O64 O 0.7631 0.44825 0.67559 0.0
C65 C 0.54556 0.02801 0.58732 0.0
O66 O 0.5025 0.04987 0.60569 0.0
O67 O 0.6684 0.10148 0.63895 0.0
Zn68 Zn 0.63679 0.04365 0.64441 0.0
O69 O 0.56092 0.04103 0.67983 0.0
C70 C 0.77027 0.00298 0.64629 0.0
O71 O 0.77864 0.01709 0.61491 0.0
O72 O 0.60558 0.02141 0.59888 0.0
C73 C 0.57741 0.04229 0.71151 0.0
O74 O 0.64257 0.04633 0.71978 0.0
C75 C 0.71827 0.11507 0.6567 0.0
O76 O 0.74911 0.09095 0.67861 0.0
O77 O 0.71438 0.00993 0.66226 0.0
C78 C 0.42161 0.5558 0.91078 0.0
O79 O 0.46563 0.57823 0.89344 0.0
O80 O 0.33895 0.62917 0.85028 0.0
Zn81 Zn 0.3478 0.56845 0.84938 0.0
O82 O 0.42698 0.55028 0.81989 0.0
C83 C 0.20483 0.56432 0.83046 0.0
O84 O 0.20194 0.5984 0.84785 0.0
O85 O 0.36381 0.5475 0.89722 0.0
C86 C 0.42561 0.55147 0.78718 0.0
O87 O 0.37169 0.56686 0.77165 0.0
C88 C 0.37783 0.65386 0.83433 0.0
O89 O 0.43064 0.64005 0.81671 0.0
O90 O 0.26145 0.54522 0.82889 0.0
C91 C 0.03754 0.96489 0.90214 0.0
O92 O -0.00356 0.94047 0.88511 0.0
O93 O 0.16474 0.8889 0.85495 0.0
Zn94 Zn 0.12655 0.94462 0.84603 0.0
O95 O 0.04421 0.94024 0.81522 0.0
C96 C 0.2571 0.98545 0.83051 0.0
O97 O 0.27688 0.97225 0.86082 0.0
O98 O 0.09788 0.97137 0.89052 0.0
C99 C 0.05131 0.93766 0.78273 0.0
O100 O 0.11353 0.93594 0.76945 0.0
C101 C 0.21098 0.87407 0.83542 0.0
O102 O 0.23384 0.89549 0.80927 0.0
O103 O 0.19611 0.97835 0.82053 0.0
H104 H 0.30721 0.49061 0.28184 0.0
H105 H 0.44048 0.51588 0.36804 0.0
H106 H 0.54121 0.50051 0.33257 0.0
H107 H 0.59155 0.48331 0.27635 0.0
H108 H 0.45795 0.45963 0.18992 0.0
H109 H 0.3572 0.47095 0.22634 0.0
C110 C 0.35823 0.49244 0.29302 0.0
C111 C 0.36626 0.50455 0.32753 0.0
C112 C 0.41589 0.4841 0.27238 0.0
C113 C 0.43279 0.50676 0.34153 0.0
C114 C 0.49045 0.49805 0.32124 0.0
C115 C 0.54041 0.48042 0.26548 0.0
C116 C 0.5324 0.47086 0.23039 0.0
C117 C 0.48264 0.48726 0.2865 0.0
C118 C 0.46569 0.46713 0.2168 0.0
C119 C 0.40799 0.47359 0.23761 0.0
H120 H 0.96336 0.08082 0.24247 0.0
H121 H 0.95415 0.98421 0.16757 0.0
H122 H 0.04794 0.94942 0.19649 0.0
H123 H 0.13176 0.94594 0.24299 0.0
H124 H 0.1407 0.04129 0.31894 0.0
H125 H 0.04769 0.07706 0.28959 0.0
C126 C 0.98202 0.05223 0.23242 0.0
C127 C 0.95178 0.03521 0.20288 0.0
C128 C 0.03579 0.03211 0.24935 0.0
C129 C 0.97635 -0.002 0.1903 0.0
C130 C 0.03005 0.97805 0.2068 0.0
C131 C 0.11356 0.9746 0.25315 0.0
C132 C 0.14318 0.99095 0.28306 0.0
C133 C 0.05999 0.99477 0.23635 0.0
C134 C 0.11867 0.02801 0.29595 0.0
C135 C 0.06556 0.04849 0.27917 0.0
H136 H 0.8087 0.50514 0.21912 0.0
H137 H 0.94476 0.48431 0.13272 0.0
H138 H 0.04377 0.50253 0.16822 0.0
H139 H 0.09208 0.52069 0.22462 0.0
H140 H 0.95556 0.53931 0.31123 0.0
H141 H 0.8563 0.52576 0.27466 0.0
C142 C 0.85992 0.50488 0.20789 0.0
C143 C 0.86928 0.49319 0.17332 0.0
C144 C 0.91659 0.51481 0.22854 0.0
C145 C 0.93607 0.49305 0.15928 0.0
C146 C 0.99275 0.50341 0.17958 0.0
C147 C 0.04059 0.52211 0.23545 0.0
C148 C 0.03135 0.5308 0.27067 0.0
C149 C 0.98369 0.51377 0.21437 0.0
C150 C 0.96424 0.53248 0.28427 0.0
C151 C 0.9074 0.52473 0.26337 0.0
H152 H 0.67831 0.93288 0.2102 0.0
H153 H 0.57442 0.04199 0.17834 0.0
H154 H 0.4793 0.02691 0.21739 0.0
H155 H 0.42833 0.98486 0.26267 0.0
H156 H 0.5307 0.87536 0.29445 0.0
H157 H 0.6237 0.88855 0.2533 0.0
C158 C 0.63459 0.95318 0.21155 0.0
C159 C 0.63384 0.98864 0.19149 0.0
C160 C 0.58004 0.94447 0.23425 0.0
C161 C 0.57654 0.0145 0.19348 0.0
C162 C 0.52214 0.00601 0.21592 0.0
C163 C 0.47097 0.96384 0.26062 0.0
C164 C 0.47297 0.92941 0.28185 0.0
C165 C 0.5239 0.97146 0.23682 0.0
C166 C 0.52805 0.90217 0.27849 0.0
C167 C 0.58126 0.9097 0.25498 0.0
H168 H 0.53033 0.50556 0.81111 0.0
H169 H 0.44956 0.55803 0.71787 0.0
H170 H 0.54367 0.52793 0.68464 0.0
H171 H 0.64861 0.48628 0.68217 0.0
H172 H 0.72649 0.43268 0.77566 0.0
H173 H 0.63351 0.46361 0.80862 0.0
C174 C 0.53336 0.5106 0.78353 0.0
C175 C 0.48313 0.53412 0.76702 0.0
C176 C 0.58695 0.49286 0.7646 0.0
C177 C 0.48758 0.54003 0.73122 0.0
C178 C 0.54136 0.52282 0.7122 0.0
C179 C 0.64519 0.48135 0.70975 0.0
C180 C 0.69449 0.4572 0.7264 0.0
C181 C 0.59124 0.49908 0.72862 0.0
C182 C 0.68919 0.45103 0.76214 0.0
C183 C 0.6361 0.46877 0.78107 0.0
H184 H 0.76869 0.9738 0.71146 0.0
H185 H 0.90216 0.99048 0.62338 0.0
H186 H 0.00056 0.96765 0.65725 0.0
H187 H 0.05002 0.9493 0.71334 0.0
H188 H 0.91611 0.9356 0.80166 0.0
H189 H 0.81637 0.9507 0.76602 0.0
C190 C 0.81912 0.97206 0.69946 0.0
C191 C 0.82816 0.98426 0.66503 0.0
C192 C 0.87547 0.95969 0.7192 0.0
C193 C 0.89381 0.98147 0.64989 0.0
C194 C 0.95015 0.96854 0.66928 0.0
C195 C -0.00107 0.94907 0.7247 0.0
C196 C 0.99062 0.94174 0.76018 0.0
C197 C 0.94182 0.95853 0.70419 0.0
C198 C 0.92404 0.94149 0.77448 0.0
C199 C 0.86694 0.95016 0.75413 0.0
H200 H 0.19514 0.49653 0.79087 0.0
H201 H 0.08029 0.60153 0.82379 0.0
H202 H 0.98514 0.58205 0.78642 0.0
H203 H 0.93629 0.53674 0.74286 0.0
H204 H 0.05032 0.43141 0.71017 0.0
H205 H 0.14414 0.4496 0.74901 0.0
C206 C 0.14912 0.51503 0.79008 0.0
C207 C 0.14506 0.55055 0.81001 0.0
C208 C 0.09465 0.50377 0.7684 0.0
C209 C 0.08491 0.57407 0.80871 0.0
C210 C 0.03049 0.56303 0.78726 0.0
C211 C 0.98167 0.51775 0.74419 0.0
C212 C 0.98654 0.48296 0.72345 0.0
C213 C 0.03517 0.52824 0.76669 0.0
C214 C 0.04536 0.45843 0.7258 0.0
C215 C 0.09903 0.4688 0.748 0.0
H216 H 0.39381 -0.00047 0.84075 0.0
H217 H 0.23351 0.00976 0.76446 0.0
H218 H 0.31803 0.03025 0.72136 0.0
H219 H 0.43829 0.04052 0.70412 0.0
H220 H 0.59887 0.03036 0.78019 0.0
H221 H 0.51338 0.01482 0.82446 0.0
C222 C 0.37723 0.00668 0.81481 0.0
C223 C 0.30749 0.00271 0.80586 0.0
C224 C 0.42623 0.01819 0.78996 0.0
C225 C 0.28691 0.01234 0.77211 0.0
C226 C 0.33524 0.02397 0.74734 0.0
C227 C 0.45457 0.03517 0.73043 0.0
C228 C 0.5249 0.0362 0.73872 0.0
C229 C 0.40519 0.02618 0.75579 0.0
C230 C 0.54505 0.02961 0.77302 0.0
C231 C 0.49621 0.02064 0.7984 0.0
H232 H 0.96512 0.53152 0.45258 0.0
H233 H 0.15398 0.46285 0.45303 0.0
H234 H 0.11994 0.4308 0.50714 0.0
H235 H 0.03765 0.42317 0.55478 0.0
H236 H 0.84896 0.49201 0.55437 0.0
H237 H 0.88192 0.52299 0.49967 0.0
C238 C -0.00114 0.50951 0.46445 0.0
C239 C 0.0621 0.49971 0.44879 0.0
C240 C 0.97904 0.49122 0.49557 0.0
C241 C 0.10504 0.47101 0.46453 0.0
C242 C 0.08564 0.45266 0.49549 0.0
C243 C 0.00358 0.44486 0.54271 0.0
C244 C 0.94099 0.45529 0.55873 0.0
C245 C 0.02291 0.46267 0.51131 0.0
C246 C 0.89748 0.48343 0.54266 0.0
C247 C 0.9163 0.50121 0.51137 0.0
H248 H 0.50569 0.94953 0.44047 0.0
H249 H 0.303 0.00083 0.4534 0.0
H250 H 0.33518 0.02659 0.51009 0.0
H251 H 0.42129 0.03526 0.55571 0.0
H252 H 0.62386 0.98379 0.54256 0.0
H253 H 0.59109 0.95741 0.48626 0.0
C254 C 0.46844 0.96629 0.45567 0.0
C255 C 0.40208 0.97328 0.44263 0.0
C256 C 0.48725 0.98105 0.48822 0.0
C257 C 0.35448 0.99501 0.46276 0.0
C258 C 0.37283 0.00979 0.4952 0.0
C259 C 0.45828 0.01824 0.54056 0.0
C260 C 0.52496 0.01162 0.55337 0.0
C261 C 0.43915 0.00311 0.50814 0.0
C262 C 0.57217 0.98941 0.53337 0.0
C263 C 0.55352 0.97429 0.50113 0.0
H264 H 0.46281 0.46716 0.05313 0.0
H265 H 0.66153 0.52523 0.04498 0.0
H266 H 0.62754 0.55617 0.99056 0.0
H267 H 0.54228 0.56587 0.9449 0.0
H268 H 0.34372 0.5076 0.95293 0.0
H269 H 0.37686 0.47775 0.00793 0.0
C270 C 0.49875 0.48661 0.0395 0.0
C271 C 0.5647 0.49375 0.05311 0.0
C272 C 0.47891 0.5043 0.00822 0.0
C273 C 0.61047 0.51915 0.03511 0.0
C274 C 0.59109 0.53688 0.00397 0.0
C275 C 0.50609 0.54676 0.95871 0.0
C276 C 0.44064 0.53895 0.94475 0.0
C277 C 0.52554 0.52955 0.99024 0.0
C278 C 0.39444 0.51411 0.96304 0.0
C279 C 0.41337 0.49698 0.99449 0.0
H280 H 0.91001 0.96063 0.93097 0.0
H281 H 0.11114 0.0137 0.94548 0.0
H282 H 0.0719 0.04548 0.99884 0.0
H283 H 0.98153 0.05691 0.04197 0.0
H284 H 0.78054 0.00358 0.02772 0.0
H285 H 0.81873 0.97343 0.97345 0.0
C286 C 0.94534 0.97916 0.94576 0.0
C287 C 0.01354 0.9846 0.93427 0.0
C288 C 0.92245 -0.00263 0.97642 0.0
C289 C 0.05843 0.0089 0.95372 0.0
C290 C 0.03603 0.02712 0.98425 0.0
C291 C 0.94586 0.03889 0.02694 0.0
C292 C 0.87828 0.03247 0.03898 0.0
C293 C 0.96827 0.02141 0.99591 0.0
C294 C 0.83284 0.00901 0.0191 0.0
C295 C 0.85468 0.99167 0.98809 0.0
H296 H 0.12528 0.69919 0.32572 0.0
H297 H 0.25993 0.65005 0.40334 0.0
H298 H 0.30538 0.71757 0.41509 0.0
H299 H 0.30964 0.79034 0.402 0.0
H300 H 0.17582 0.83883 0.32367 0.0
H301 H 0.12738 0.77183 0.31369 0.0
C302 C 0.16433 0.70321 0.34534 0.0
C303 C 0.18923 0.66955 0.36351 0.0
C304 C 0.19064 0.74204 0.35181 0.0
C305 C 0.23985 0.6754 0.38888 0.0
C306 C 0.26598 0.71402 0.39562 0.0
C307 C 0.26967 0.78629 0.38286 0.0
C308 C 0.24669 0.81959 0.36356 0.0
C309 C 0.24218 0.74753 0.37703 0.0
C310 C 0.1948 0.81375 0.33884 0.0
C311 C 0.16695 0.77541 0.33308 0.0
H312 H 0.75483 0.19154 0.11653 0.0
H313 H 0.71657 0.17273 0.22499 0.0
H314 H 0.69901 0.24515 0.23307 0.0
H315 H 0.69255 0.31357 0.20937 0.0
H316 H 0.72676 0.33273 0.10065 0.0
H317 H 0.74783 0.26042 0.09267 0.0
C318 C 0.74294 0.20334 0.14195 0.0
C319 C 0.73705 0.17678 0.17011 0.0
C320 C 0.73198 0.24504 0.14637 0.0
C321 C 0.72115 0.19248 0.20284 0.0
C322 C 0.71116 0.23391 0.20752 0.0
C323 C 0.70483 0.302 0.18392 0.0
C324 C 0.70814 0.32852 0.15567 0.0
C325 C 0.71613 0.26042 0.17946 0.0
C326 C 0.72372 0.31295 0.12284 0.0
C327 C 0.73586 0.27161 0.11825 0.0
H328 H 0.82545 0.15166 0.68892 0.0
H329 H 0.66066 0.17448 0.6172 0.0
H330 H 0.69485 0.24552 0.6136 0.0
H331 H 0.7691 0.30151 0.63223 0.0
H332 H 0.93338 0.27856 0.70424 0.0
H333 H 0.90186 0.2071 0.7061 0.0
C334 C 0.79703 0.1721 0.67241 0.0
C335 C 0.74035 0.15778 0.65351 0.0
C336 C 0.81683 0.21289 0.67051 0.0
C337 C 0.7044 0.1847 0.63211 0.0
C338 C 0.72388 0.22535 0.63004 0.0
C339 C 0.79829 0.28087 0.6482 0.0
C340 C 0.85336 0.29546 0.66817 0.0
C341 C 0.77968 0.23983 0.64933 0.0
C342 C 0.89066 0.26822 0.68866 0.0
C343 C 0.87263 0.22732 0.68979 0.0
H344 H 0.27689 0.69201 0.87042 0.0
H345 H 0.43763 0.71331 0.79542 0.0
H346 H 0.40132 0.7837 0.78997 0.0
H347 H 0.32058 0.83822 0.80442 0.0
H348 H 0.16036 0.81695 0.87968 0.0
H349 H 0.20008 0.74747 0.88712 0.0
C350 C 0.30433 0.71208 0.85302 0.0
C351 C 0.35963 0.6973 0.83319 0.0
C352 C 0.28307 0.75246 0.84992 0.0
C353 C 0.39484 0.72384 0.81097 0.0
C354 C 0.37398 0.76409 0.80774 0.0
C355 C 0.29442 0.81844 0.82253 0.0
C356 C 0.23722 0.83267 0.84124 0.0
C357 C 0.31759 0.77855 0.82674 0.0
C358 C 0.20441 0.80676 0.86488 0.0
C359 C 0.22702 0.76699 0.86912 0.0
loop_
_geom_bond_atom_site_label_1
_geom_bond_atom_site_label_2
_geom_bond_distance
_geom_bond_site_symmetry_2
_ccdc_geom_bond_type
C0 O1 1.160 . S
C0 O7 1.185 . S
O1 C0 1.160 . S
O2 Zn3 1.899 . S
O2 C10 1.284 . S
Zn3 O2 1.899 . S
Zn3 O4 2.032 . S
Zn3 O7 2.086 . S
Zn3 O12 1.977 . S
O4 Zn3 2.032 . S
O4 C8 1.278 . S
C5 O6 1.203 . S
C5 O12 1.267 . S
O6 C5 1.203 . S
O7 C0 1.185 . S
O7 Zn3 2.086 . S
C8 O4 1.278 . S
C8 O9 1.211 . S
O9 C8 1.211 . S
C10 O2 1.284 . S
C10 O11 1.273 . S
O11 C10 1.273 . S
O12 Zn3 1.977 . S
O12 C5 1.267 . S
C13 O14 1.160 . S
C13 O20 1.185 . S
O14 C13 1.160 . S
O15 Zn16 1.899 . S
O15 C23 1.284 . S
Zn16 O15 1.899 . S
Zn16 O17 2.032 . S
Zn16 O20 2.086 . S
Zn16 O25 1.977 . S
O17 Zn16 2.032 . S
O17 C21 1.278 . S
C18 O19 1.203 . S
C18 O25 1.267 . S
O19 C18 1.203 . S
O20 C13 1.185 . S
O20 Zn16 2.086 . S
C21 O17 1.278 . S
C21 O22 1.211 . S
O22 C21 1.211 . S
C23 O15 1.284 . S
C23 O24 1.273 . S
O24 C23 1.273 . S
O25 Zn16 1.977 . S
O25 C18 1.267 . S
C26 O27 1.160 . S
C26 O33 1.185 . S
O27 C26 1.160 . S
O28 Zn29 1.899 . S
O28 C36 1.284 . S
Zn29 O28 1.899 . S
Zn29 O30 2.032 . S
Zn29 O33 2.086 . S
Zn29 O38 1.977 . S
O30 Zn29 2.032 . S
O30 C34 1.278 . S
C31 O32 1.203 . S
C31 O38 1.267 . S
O32 C31 1.203 . S
O33 C26 1.185 . S
O33 Zn29 2.086 . S
C34 O30 1.278 . S
C34 O35 1.211 . S
O35 C34 1.211 . S
C36 O28 1.284 . S
C36 O37 1.273 . S
O37 C36 1.273 . S
O38 Zn29 1.977 . S
O38 C31 1.267 . S
C39 O40 1.160 . S
C39 O46 1.185 . S
O40 C39 1.160 . S
O41 Zn42 1.899 . S
O41 C49 1.284 . S
Zn42 O41 1.899 . S
Zn42 O43 2.032 . S
Zn42 O46 2.086 . S
Zn42 O51 1.977 . S
O43 Zn42 2.032 . S
O43 C47 1.278 . S
C44 O45 1.203 . S
C44 O51 1.267 . S
O45 C44 1.203 . S
O46 C39 1.185 . S
O46 Zn42 2.086 . S
C47 O43 1.278 . S
C47 O48 1.211 . S
O48 C47 1.211 . S
C49 O41 1.284 . S
C49 O50 1.273 . S
O50 C49 1.273 . S
O51 Zn42 1.977 . S
O51 C44 1.267 . S
C52 O53 1.160 . S
C52 O59 1.185 . S
O53 C52 1.160 . S
O54 Zn55 1.899 . S
O54 C62 1.284 . S
Zn55 O54 1.899 . S
Zn55 O56 2.032 . S
Zn55 O59 2.086 . S
Zn55 O64 1.977 . S
O56 Zn55 2.032 . S
O56 C60 1.278 . S
C57 O58 1.203 . S
C57 O64 1.267 . S
O58 C57 1.203 . S
O59 C52 1.185 . S
O59 Zn55 2.086 . S
C60 O56 1.278 . S
C60 O61 1.211 . S
O61 C60 1.211 . S
C62 O54 1.284 . S
C62 O63 1.273 . S
O63 C62 1.273 . S
O64 Zn55 1.977 . S
O64 C57 1.267 . S
C65 O66 1.160 . S
C65 O72 1.185 . S
O66 C65 1.160 . S
O67 Zn68 1.899 . S
O67 C75 1.284 . S
Zn68 O67 1.899 . S
Zn68 O69 2.032 . S
Zn68 O72 2.086 . S
Zn68 O77 1.977 . S
O69 Zn68 2.032 . S
O69 C73 1.278 . S
C70 O71 1.203 . S
C70 O77 1.267 . S
O71 C70 1.203 . S
O72 C65 1.185 . S
O72 Zn68 2.086 . S
C73 O69 1.278 . S
C73 O74 1.211 . S
O74 C73 1.211 . S
C75 O67 1.284 . S
C75 O76 1.273 . S
O76 C75 1.273 . S
O77 Zn68 1.977 . S
O77 C70 1.267 . S
C78 O79 1.160 . S
C78 O85 1.185 . S
O79 C78 1.160 . S
O80 Zn81 1.899 . S
O80 C88 1.284 . S
Zn81 O80 1.899 . S
Zn81 O82 2.032 . S
Zn81 O85 2.086 . S
Zn81 O90 1.977 . S
O82 Zn81 2.032 . S
O82 C86 1.278 . S
C83 O84 1.203 . S
C83 O90 1.267 . S
O84 C83 1.203 . S
O85 C78 1.185 . S
O85 Zn81 2.086 . S
C86 O82 1.278 . S
C86 O87 1.211 . S
O87 C86 1.211 . S
C88 O80 1.284 . S
C88 O89 1.273 . S
O89 C88 1.273 . S
O90 Zn81 1.977 . S
O90 C83 1.267 . S
C91 O92 1.160 . S
C91 O98 1.185 . S
O92 C91 1.160 . S
O93 Zn94 1.899 . S
O93 C101 1.284 . S
Zn94 O93 1.899 . S
Zn94 O95 2.032 . S
Zn94 O98 2.086 . S
Zn94 O103 1.977 . S
O95 Zn94 2.032 . S
O95 C99 1.278 . S
C96 O97 1.203 . S
C96 O103 1.267 . S
O97 C96 1.203 . S
O98 C91 1.185 . S
O98 Zn94 2.086 . S
C99 O95 1.278 . S
C99 O100 1.211 . S
O100 C99 1.211 . S
C101 O93 1.284 . S
C101 O102 1.273 . S
O102 C101 1.273 . S
O103 Zn94 1.977 . S
O103 C96 1.267 . S
H104 C110 0.930 . S
H105 C113 0.930 . S
H106 C114 0.930 . S
H107 C115 0.930 . S
H108 C118 0.930 . S
H109 C119 0.930 . S
C110 H104 0.930 . S
C110 C111 1.355 . S
C110 C112 1.415 . S
C111 C110 1.355 . S
C111 C113 1.419 . S
C112 C110 1.415 . S
C112 C117 1.425 . S
C112 C119 1.409 . S
C113 H105 0.930 . S
C113 C111 1.419 . S
C113 C114 1.362 . S
C114 H106 0.930 . S
C114 C113 1.362 . S
C114 C117 1.409 . S
C115 H107 0.930 . S
C115 C116 1.355 . S
C115 C117 1.415 . S
C116 C115 1.355 . S
C116 C118 1.419 . S
C117 C112 1.425 . S
C117 C114 1.409 . S
C117 C115 1.415 . S
C118 H108 0.930 . S
C118 C116 1.419 . S
C118 C119 1.362 . S
C119 H109 0.930 . S
C119 C112 1.409 . S
C119 C118 1.362 . S
H120 C126 0.930 1_655 S
H121 C129 0.930 . S
H122 C130 0.929 1_565 S
H123 C131 0.930 . S
H124 C134 0.930 . S
H125 C135 0.930 . S
C126 H120 0.930 1_455 S
C126 C127 1.355 . S
C126 C128 1.415 . S
C127 C126 1.355 . S
C127 C129 1.419 . S
C128 C126 1.415 . S
C128 C133 1.425 . S
C128 C135 1.409 . S
C129 H121 0.930 . S
C129 C127 1.419 . S
C129 C130 1.364 . S
C130 H122 0.929 1_545 S
C130 C129 1.364 . S
C130 C133 1.409 . S
C131 H123 0.930 . S
C131 C132 1.355 . S
C131 C133 1.415 1_565 S
C132 C131 1.355 . S
C132 C134 1.419 1_565 S
C133 C128 1.425 . S
C133 C130 1.409 . S
C133 C131 1.415 1_545 S
C134 H124 0.930 . S
C134 C132 1.419 1_545 S
C134 C135 1.362 . S
C135 H125 0.930 . S
C135 C128 1.409 . S
C135 C134 1.362 . S
H136 C142 0.930 . S
H137 C145 0.930 . S
H138 C146 0.930 . S
H139 C147 0.930 1_455 S
H140 C150 0.930 . S
H141 C151 0.930 . S
C142 H136 0.930 . S
C142 C143 1.355 . S
C142 C144 1.415 . S
C143 C142 1.355 . S
C143 C145 1.419 . S
C144 C142 1.415 . S
C144 C149 1.425 . S
C144 C151 1.409 . S
C145 H137 0.930 . S
C145 C143 1.419 . S
C145 C146 1.362 . S
C146 H138 0.930 . S
C146 C145 1.362 . S
C146 C149 1.409 . S
C147 H139 0.930 1_655 S
C147 C148 1.355 . S
C147 C149 1.415 . S
C148 C147 1.355 . S
C148 C150 1.419 . S
C149 C144 1.425 . S
C149 C146 1.409 . S
C149 C147 1.415 . S
C150 H140 0.930 . S
C150 C148 1.419 . S
C150 C151 1.362 . S
C151 H141 0.930 . S
C151 C144 1.409 . S
C151 C150 1.362 . S
H152 C158 0.930 . S
H153 C161 0.930 . S
H154 C162 0.930 . S
H155 C163 0.930 . S
H156 C166 0.930 . S
H157 C167 0.930 . S
C158 H152 0.930 . S
C158 C159 1.355 . S
C158 C160 1.409 1_545 S
C159 C158 1.355 . S
C159 C161 1.419 1_545 S
C160 C158 1.409 1_565 S
C160 C165 1.432 . S
C160 C167 1.408 1_565 S
C161 H153 0.930 . S
C161 C159 1.419 1_565 S
C161 C162 1.362 . S
C162 H154 0.930 . S
C162 C161 1.362 . S
C162 C165 1.409 . S
C163 H155 0.930 . S
C163 C164 1.355 . S
C163 C165 1.415 . S
C164 C163 1.355 . S
C164 C166 1.419 . S
C165 C160 1.432 . S
C165 C162 1.409 . S
C165 C163 1.415 . S
C166 H156 0.930 . S
C166 C164 1.419 . S
C166 C167 1.362 1_565 S
C167 H157 0.930 . S
C167 C160 1.408 1_545 S
C167 C166 1.362 1_545 S
H168 C174 0.930 . S
H169 C177 0.930 . S
H170 C178 0.930 . S
H171 C179 0.930 . S
H172 C182 0.930 . S
H173 C183 0.930 . S
C174 H168 0.930 . S
C174 C175 1.355 . S
C174 C176 1.415 . S
C175 C174 1.355 . S
C175 C177 1.419 . S
C176 C174 1.415 . S
C176 C181 1.425 . S
C176 C183 1.409 . S
C177 H169 0.930 . S
C177 C175 1.419 . S
C177 C178 1.362 . S
C178 H170 0.930 . S
C178 C177 1.362 . S
C178 C181 1.409 . S
C179 H171 0.930 . S
C179 C180 1.355 . S
C179 C181 1.415 . S
C180 C179 1.355 . S
C180 C182 1.419 . S
C181 C176 1.425 . S
C181 C178 1.409 . S
C181 C179 1.415 . S
C182 H172 0.930 . S
C182 C180 1.419 . S
C182 C183 1.362 . S
C183 H173 0.930 . S
C183 C176 1.409 . S
C183 C182 1.362 . S
H184 C190 0.930 . S
H185 C193 0.930 . S
H186 C194 0.930 . S
H187 C195 0.930 1_455 S
H188 C198 0.930 . S
H189 C199 0.930 . S
C190 H184 0.930 . S
C190 C191 1.355 1_565 S
C190 C192 1.415 . S
C191 C190 1.355 1_545 S
C191 C193 1.419 . S
C192 C190 1.415 . S
C192 C197 1.425 . S
C192 C199 1.409 . S
C193 H185 0.930 . S
C193 C191 1.419 . S
C193 C194 1.362 . S
C194 H186 0.930 . S
C194 C193 1.362 . S
C194 C197 1.409 1_545 S
C195 H187 0.930 1_655 S
C195 C196 1.355 . S
C195 C197 1.415 . S
C196 C195 1.355 . S
C196 C198 1.419 . S
C197 C192 1.425 . S
C197 C194 1.409 1_565 S
C197 C195 1.415 . S
C198 H188 0.930 . S
C198 C196 1.419 . S
C198 C199 1.362 . S
C199 H189 0.930 . S
C199 C192 1.409 . S
C199 C198 1.362 . S
H200 C206 0.930 . S
H201 C209 0.930 . S
H202 C210 0.930 . S
H203 C211 0.930 1_655 S
H204 C214 0.930 . S
H205 C215 0.930 . S
C206 H200 0.930 . S
C206 C207 1.355 . S
C206 C208 1.415 . S
C207 C206 1.355 . S
C207 C209 1.419 . S
C208 C206 1.415 . S
C208 C213 1.425 . S
C208 C215 1.409 . S
C209 H201 0.930 . S
C209 C207 1.419 . S
C209 C210 1.362 . S
C210 H202 0.930 . S
C210 C209 1.362 . S
C210 C213 1.409 . S
C211 H203 0.930 1_455 S
C211 C212 1.355 . S
C211 C213 1.415 . S
C212 C211 1.355 . S
C212 C214 1.419 . S
C213 C208 1.425 . S
C213 C210 1.409 . S
C213 C211 1.415 . S
C214 H204 0.930 . S
C214 C212 1.419 . S
C214 C215 1.362 . S
C215 H205 0.930 . S
C215 C208 1.409 . S
C215 C214 1.362 . S
H216 C222 0.930 . S
H217 C225 0.930 . S
H218 C226 0.930 . S
H219 C227 0.930 . S
H220 C230 0.930 . S
H221 C231 0.930 . S
C222 H216 0.930 . S
C222 C223 1.355 . S
C222 C224 1.416 . S
C223 C222 1.355 . S
C223 C225 1.419 1_565 S
C224 C222 1.416 . S
C224 C229 1.424 1_565 S
C224 C231 1.410 . S
C225 H217 0.930 . S
C225 C223 1.419 1_545 S
C225 C226 1.362 . S
C226 H218 0.930 . S
C226 C225 1.362 . S
C226 C229 1.409 . S
C227 H219 0.930 . S
C227 C228 1.355 . S
C227 C229 1.415 . S
C228 C227 1.355 . S
C228 C230 1.419 . S
C229 C224 1.424 1_545 S
C229 C226 1.409 . S
C229 C227 1.415 . S
C230 H220 0.930 . S
C230 C228 1.419 . S
C230 C231 1.362 1_545 S
C231 H221 0.930 . S
C231 C224 1.410 . S
C231 C230 1.362 1_565 S
H232 C238 0.930 . S
H233 C241 0.930 . S
H234 C242 0.930 . S
H235 C243 0.930 . S
H236 C246 0.930 . S
H237 C247 0.930 . S
C238 H232 0.930 . S
C238 C239 1.355 . S
C238 C240 1.415 . S
C239 C238 1.355 . S
C239 C241 1.419 . S
C240 C238 1.415 . S
C240 C245 1.425 1_455 S
C240 C247 1.409 . S
C241 H233 0.930 . S
C241 C239 1.419 . S
C241 C242 1.362 1_455 S
C242 H234 0.930 . S
C242 C241 1.362 1_655 S
C242 C245 1.409 . S
C243 H235 0.930 . S
C243 C244 1.355 . S
C243 C245 1.415 . S
C244 C243 1.355 . S
C244 C246 1.419 . S
C245 C240 1.425 1_655 S
C245 C242 1.409 . S
C245 C243 1.415 . S
C246 H236 0.930 . S
C246 C244 1.419 . S
C246 C247 1.362 1_655 S
C247 H237 0.930 . S
C247 C240 1.409 . S
C247 C246 1.362 1_455 S
H248 C254 0.930 . S
H249 C257 0.930 . S
H250 C258 0.930 . S
H251 C259 0.930 . S
H252 C262 0.930 . S
H253 C263 0.930 . S
C254 H248 0.930 . S
C254 C255 1.355 . S
C254 C256 1.415 . S
C255 C254 1.355 . S
C255 C257 1.419 1_565 S
C256 C254 1.415 . S
C256 C261 1.425 1_565 S
C256 C263 1.409 . S
C257 H249 0.930 . S
C257 C255 1.419 1_545 S
C257 C258 1.362 . S
C258 H250 0.930 . S
C258 C257 1.362 . S
C258 C261 1.409 . S
C259 H251 0.930 . S
C259 C260 1.355 . S
C259 C261 1.415 . S
C260 C259 1.355 . S
C260 C262 1.419 1_545 S
C261 C256 1.425 1_545 S
C261 C258 1.409 . S
C261 C259 1.415 . S
C262 H252 0.930 . S
C262 C260 1.419 1_565 S
C262 C263 1.362 . S
C263 H253 0.930 . S
C263 C256 1.409 . S
C263 C262 1.362 . S
H264 C270 0.930 . S
H265 C273 0.930 . S
H266 C274 0.930 . S
H267 C275 0.930 . S
H268 C278 0.930 . S
H269 C279 0.930 . S
C270 H264 0.930 . S
C270 C271 1.355 . S
C270 C272 1.415 . S
C271 C270 1.355 . S
C271 C273 1.419 . S
C272 C270 1.415 . S
C272 C277 1.425 1_554 S
C272 C279 1.409 . S
C273 H265 0.930 . S
C273 C271 1.419 . S
C273 C274 1.362 1_554 S
C274 H266 0.930 . S
C274 C273 1.362 1_556 S
C274 C277 1.409 . S
C275 H267 0.930 . S
C275 C276 1.355 . S
C275 C277 1.415 . S
C276 C275 1.355 . S
C276 C278 1.419 . S
C277 C272 1.425 1_556 S
C277 C274 1.409 . S
C277 C275 1.415 . S
C278 H268 0.930 . S
C278 C276 1.419 . S
C278 C279 1.362 1_556 S
C279 H269 0.930 . S
C279 C272 1.409 . S
C279 C278 1.362 1_554 S
H280 C286 0.930 1_655 S
H281 C289 0.930 . S
H282 C290 0.930 . S
H283 C291 0.930 1_455 S
H284 C294 0.930 . S
H285 C295 0.930 . S
C286 H280 0.930 1_455 S
C286 C287 1.355 . S
C286 C288 1.413 1_465 S
C287 C286 1.355 . S
C287 C289 1.419 . S
C288 C286 1.413 1_645 S
C288 C293 1.425 1_646 S
C288 C295 1.411 . S
C289 H281 0.930 . S
C289 C287 1.419 . S
C289 C290 1.362 1_556 S
C290 H282 0.930 . S
C290 C289 1.362 1_554 S
C290 C293 1.411 . S
C291 H283 0.930 1_655 S
C291 C292 1.355 . S
C291 C293 1.413 1_645 S
C292 C291 1.355 . S
C292 C294 1.419 . S
C293 C288 1.425 1_464 S
C293 C290 1.411 . S
C293 C291 1.413 1_465 S
C294 H284 0.930 . S
C294 C292 1.419 . S
C294 C295 1.362 1_554 S
C295 H285 0.930 . S
C295 C288 1.411 . S
C295 C294 1.362 1_556 S
H296 C302 0.930 . S
H297 C305 0.930 . S
H298 C306 0.930 . S
H299 C307 0.930 . S
H300 C310 0.930 . S
H301 C311 0.930 . S
C302 H296 0.930 . S
C302 C303 1.355 . S
C302 C304 1.415 . S
C303 C302 1.355 . S
C303 C305 1.419 . S
C304 C302 1.415 . S
C304 C309 1.425 . S
C304 C311 1.409 . S
C305 H297 0.930 . S
C305 C303 1.419 . S
C305 C306 1.362 . S
C306 H298 0.930 . S
C306 C305 1.362 . S
C306 C309 1.409 . S
C307 H299 0.930 . S
C307 C308 1.355 . S
C307 C309 1.415 . S
C308 C307 1.355 . S
C308 C310 1.419 . S
C309 C304 1.425 . S
C309 C306 1.409 . S
C309 C307 1.415 . S
C310 H300 0.930 . S
C310 C308 1.419 . S
C310 C311 1.362 . S
C311 H301 0.930 . S
C311 C304 1.409 . S
C311 C310 1.362 . S
H312 C318 0.930 . S
H313 C321 0.930 . S
H314 C322 0.930 . S
H315 C323 0.930 . S
H316 C326 0.930 . S
H317 C327 0.930 . S
C318 H312 0.930 . S
C318 C319 1.355 . S
C318 C320 1.415 . S
C319 C318 1.355 . S
C319 C321 1.419 . S
C320 C318 1.415 . S
C320 C325 1.425 . S
C320 C327 1.409 . S
C321 H313 0.930 . S
C321 C319 1.419 . S
C321 C322 1.362 . S
C322 H314 0.930 . S
C322 C321 1.362 . S
C322 C325 1.409 . S
C323 H315 0.930 . S
C323 C324 1.355 . S
C323 C325 1.415 . S
C324 C323 1.355 . S
C324 C326 1.419 . S
C325 C320 1.425 . S
C325 C322 1.409 . S
C325 C323 1.415 . S
C326 H316 0.930 . S
C326 C324 1.419 . S
C326 C327 1.362 . S
C327 H317 0.930 . S
C327 C320 1.409 . S
C327 C326 1.362 . S
H328 C334 0.930 . S
H329 C337 0.930 . S
H330 C338 0.930 . S
H331 C339 0.930 . S
H332 C342 0.930 . S
H333 C343 0.930 . S
C334 H328 0.930 . S
C334 C335 1.355 . S
C334 C336 1.415 . S
C335 C334 1.355 . S
C335 C337 1.419 . S
C336 C334 1.415 . S
C336 C341 1.425 . S
C336 C343 1.409 . S
C337 H329 0.930 . S
C337 C335 1.419 . S
C337 C338 1.362 . S
C338 H330 0.930 . S
C338 C337 1.362 . S
C338 C341 1.409 . S
C339 H331 0.930 . S
C339 C340 1.355 . S
C339 C341 1.415 . S
C340 C339 1.355 . S
C340 C342 1.419 . S
C341 C336 1.425 . S
C341 C338 1.409 . S
C341 C339 1.415 . S
C342 H332 0.930 . S
C342 C340 1.419 . S
C342 C343 1.362 . S
C343 H333 0.930 . S
C343 C336 1.409 . S
C343 C342 1.362 . S
H344 C350 0.930 . S
H345 C353 0.930 . S
H346 C354 0.930 . S
H347 C355 0.930 . S
H348 C358 0.930 . S
H349 C359 0.930 . S
C350 H344 0.930 . S
C350 C351 1.355 . S
C350 C352 1.415 . S
C351 C350 1.355 . S
C351 C353 1.419 . S
C352 C350 1.415 . S
C352 C357 1.425 . S
C352 C359 1.409 . S
C353 H345 0.930 . S
C353 C351 1.419 . S
C353 C354 1.362 . S
C354 H346 0.930 . S
C354 C353 1.362 . S
C354 C357 1.409 . S
C355 H347 0.930 . S
C355 C356 1.355 . S
C355 C357 1.415 . S
C356 C355 1.355 . S
C356 C358 1.419 . S
C357 C352 1.425 . S
C357 C354 1.409 . S
C357 C355 1.415 . S
C358 H348 0.930 . S
C358 C356 1.419 . S
C358 C359 1.362 . S
C359 H349 0.930 . S
C359 C352 1.409 . S
C359 C358 1.362 . S
C111 C5 1.207 . S
C116 C34 1.228 . S
C127 C47 1.223 1_455 S
C132 C18 1.215 . S
C143 C31 1.211 . S
C148 C8 1.226 1_655 S
C159 C44 1.167 . S
C164 C21 1.147 . S
C175 C86 1.157 . S
C180 C57 1.152 . S
C191 C70 1.181 . S
C196 C99 1.230 1_655 S
C207 C83 1.172 . S
C212 C60 1.228 1_455 S
C223 C96 1.198 . S
C228 C73 1.147 . S
C239 C0 1.516 . S
C244 C52 1.516 . S
C255 C13 1.525 . S
C260 C65 1.525 . S
C271 C26 1.508 . S
C276 C78 1.508 . S
C287 C91 1.511 . S
C292 C39 1.511 . S
C303 C10 1.508 . S
C308 C23 1.521 . S
C319 C49 1.506 . S
C324 C36 1.530 . S
C335 C75 1.530 . S
C340 C62 1.508 . S
C351 C88 1.506 . S
C356 C101 1.529 . S
