# Generated by pormake.
# Topology uoq, (4)-cn, num edge types: 1
# Building blocks:
#     Node 0, Type 0, BuildingBlock: AZAVOO_clean_sbu_0, # of connection points: 4
#     Node 1, Type 0, BuildingBlock: AZAVOO_clean_sbu_0, # of connection points: 4
#     Node 2, Type 0, BuildingBlock: AZAVOO_clean_sbu_0, # of connection points: 4
#     Node 3, Type 0, BuildingBlock: AZAVOO_clean_sbu_0, # of connection points: 4
#     Node 4, Type 0, BuildingBlock: AZAVOO_clean_sbu_0, # of connection points: 4
#     Node 5, Type 0, BuildingBlock: AZAVOO_clean_sbu_0, # of connection points: 4
#     Node 6, Type 0, BuildingBlock: AZAVOO_clean_sbu_0, # of connection points: 4
#     Node 7, Type 0, BuildingBlock: AZAVOO_clean_sbu_0, # of connection points: 4
#     Node 8, Type 0, BuildingBlock: AZAVOO_clean_sbu_0, # of connection points: 4
#     Node 9, Type 0, BuildingBlock: AZAVOO_clean_sbu_0, # of connection points: 4
#     Node 10, Type 0, BuildingBlock: AZAVOO_clean_sbu_0, # of connection points: 4
#     Node 11, Type 0, BuildingBlock: AZAVOO_clean_sbu_0, # of connection points: 4
#     Edge 12, Type (0, 0), BuildingBlock: TEMPAE_clean_linker_10, # of connection points: 2
#     Edge 13, Type (0, 0), BuildingBlock: TEMPAE_clean_linker_10, # of connection points: 2
#     Edge 14, Type (0, 0), BuildingBlock: TEMPAE_clean_linker_10, # of connection points: 2
#     Edge 15, Type (0, 0), BuildingBlock: TEMPAE_clean_linker_10, # of connection points: 2
#     Edge 16, Type (0, 0), BuildingBlock: TEMPAE_clean_linker_10, # of connection points: 2
#     Edge 17, Type (0, 0), BuildingBlock: TEMPAE_clean_linker_10, # of connection points: 2
#     Edge 18, Type (0, 0), BuildingBlock: TEMPAE_clean_linker_10, # of connection points: 2
#     Edge 19, Type (0, 0), BuildingBlock: TEMPAE_clean_linker_10, # of connection points: 2
#     Edge 20, Type (0, 0), BuildingBlock: TEMPAE_clean_linker_10, # of connection points: 2
#     Edge 21, Type (0, 0), BuildingBlock: TEMPAE_clean_linker_10, # of connection points: 2
#     Edge 22, Type (0, 0), BuildingBlock: TEMPAE_clean_linker_10, # of connection points: 2
#     Edge 23, Type (0, 0), BuildingBlock: TEMPAE_clean_linker_10, # of connection points: 2
#     Edge 24, Type (0, 0), BuildingBlock: TEMPAE_clean_linker_10, # of connection points: 2
#     Edge 25, Type (0, 0), BuildingBlock: TEMPAE_clean_linker_10, # of connection points: 2
#     Edge 26, Type (0, 0), BuildingBlock: TEMPAE_clean_linker_10, # of connection points: 2
#     Edge 27, Type (0, 0), BuildingBlock: TEMPAE_clean_linker_10, # of connection points: 2
#     Edge 28, Type (0, 0), BuildingBlock: TEMPAE_clean_linker_10, # of connection points: 2
#     Edge 29, Type (0, 0), BuildingBlock: TEMPAE_clean_linker_10, # of connection points: 2
#     Edge 30, Type (0, 0), BuildingBlock: TEMPAE_clean_linker_10, # of connection points: 2
#     Edge 31, Type (0, 0), BuildingBlock: TEMPAE_clean_linker_10, # of connection points: 2
#     Edge 32, Type (0, 0), BuildingBlock: TEMPAE_clean_linker_10, # of connection points: 2
#     Edge 33, Type (0, 0), BuildingBlock: TEMPAE_clean_linker_10, # of connection points: 2
#     Edge 34, Type (0, 0), BuildingBlock: TEMPAE_clean_linker_10, # of connection points: 2
#     Edge 35, Type (0, 0), BuildingBlock: TEMPAE_clean_linker_10, # of connection points: 2
# Relax obj value: 0.087
# Max RMSD: 0.084
# Mean RMSD: 0.084
data_MOF--net-uoq--node1-AZAVOO_clean_sbu_0--edge1-TEMPAE_clean_linker_10
_symmetry_space_group_name_H-M    P1
_symmetry_Int_Tables_number       1
_symmetry_cell_setting            triclinic
loop_
_symmetry_equiv_pos_as_xyz
'x, y, z'
_cell_length_a     59.466241
_cell_length_b     59.381747
_cell_length_c     24.41865
_cell_angle_alpha  89.984091
_cell_angle_beta   90.104166
_cell_angle_gamma 120.10581
loop_
_atom_site_label
_atom_site_type_symbol
_atom_site_fract_x
_atom_site_fract_y
_atom_site_fract_z
_atom_type_partial_charge
Mg0 Mg 0.3049 0.44759 0.23412 0.0
O1 O 0.28117 0.44587 0.3105 0.0
O2 O 0.30841 0.45657 0.38183 0.0
Mg3 Mg 0.3481 0.4642 0.35424 0.0
C4 C 0.28614 0.45008 0.36172 0.0
C5 C 0.25764 0.44166 0.16682 0.0
O6 O 0.26472 0.46346 0.19336 0.0
O7 O 0.30106 0.40817 0.25776 0.0
O8 O 0.33045 0.4223 0.3256 0.0
O9 O 0.32103 0.49118 0.22573 0.0
O10 O 0.33938 0.47341 0.2737 0.0
C11 C 0.31439 0.40431 0.29384 0.0
C12 C 0.3396 0.4941 0.25795 0.0
O13 O 0.26903 0.42891 0.17799 0.0
Mg14 Mg 0.85291 0.30162 0.58335 0.0
O15 O 0.8281 0.27867 0.65824 0.0
O16 O 0.84415 0.30572 0.73012 0.0
Mg17 Mg 0.87944 0.34363 0.70463 0.0
C18 C 0.82774 0.28387 0.70904 0.0
C19 C 0.8326 0.27223 0.4783 0.0
O20 O 0.8429 0.29712 0.46705 0.0
O21 O 0.8856 0.29413 0.61149 0.0
O22 O 0.89979 0.32087 0.68363 0.0
O23 O 0.82763 0.31925 0.56931 0.0
O24 O 0.8621 0.33656 0.62301 0.0
C25 C 0.90093 0.30426 0.65233 0.0
C26 C 0.84217 0.33712 0.60407 0.0
O27 O 0.83408 0.26578 0.52732 0.0
Mg28 Mg 0.54152 0.85898 0.90103 0.0
O29 O 0.53962 0.83471 0.97659 0.0
O30 O 0.52614 0.84898 0.04729 0.0
Mg31 Mg 0.52368 0.88418 0.02066 0.0
C32 C 0.5329 0.83351 0.02677 0.0
C33 C 0.55435 0.84149 0.7969 0.0
O34 O 0.5418 0.8537 0.78375 0.0
O35 O 0.58118 0.8919 0.931 0.0
O36 O 0.5673 0.90451 0.0035 0.0
O37 O 0.49863 0.83258 0.88774 0.0
O38 O 0.5156 0.86817 0.93818 0.0
C39 C 0.58562 0.90626 0.97327 0.0
C40 C 0.49524 0.84754 0.92106 0.0
O41 O 0.55941 0.84052 0.84722 0.0
Mg42 Mg 0.67149 0.53799 0.22274 0.0
O43 O 0.69422 0.53827 0.29989 0.0
O44 O 0.66629 0.52602 0.36998 0.0
Mg45 Mg 0.62696 0.5189 0.34068 0.0
C46 C 0.68878 0.53305 0.35067 0.0
C47 C 0.70274 0.55419 0.11844 0.0
O48 O 0.67818 0.54352 0.10406 0.0
O49 O 0.67508 0.57711 0.24922 0.0
O50 O 0.64504 0.56126 0.31544 0.0
O51 O 0.65555 0.49465 0.21067 0.0
O52 O 0.63643 0.51136 0.25931 0.0
C53 C 0.66121 0.58002 0.28548 0.0
C54 C 0.63648 0.49104 0.24193 0.0
O55 O 0.7082 0.55684 0.16934 0.0
Mg56 Mg 0.13367 0.6837 0.58476 0.0
O57 O 0.15219 0.70647 0.66437 0.0
O58 O 0.13684 0.67715 0.73234 0.0
Mg59 Mg 0.10882 0.63682 0.69873 0.0
C60 C 0.15104 0.70043 0.71505 0.0
C61 C 0.13858 0.71903 0.487 0.0
O62 O 0.11714 0.69737 0.4745 0.0
O63 O 0.09499 0.68187 0.60676 0.0
O64 O 0.08143 0.65097 0.67108 0.0
O65 O 0.16593 0.67441 0.57581 0.0
O66 O 0.12975 0.65036 0.62192 0.0
C67 C 0.07781 0.66639 0.64077 0.0
C68 C 0.15245 0.65489 0.6079 0.0
O69 O 0.14893 0.72077 0.53362 0.0
Mg70 Mg 0.43781 0.12656 0.89563 0.0
O71 O 0.43433 0.14672 0.97297 0.0
O72 O 0.44113 0.12764 0.04551 0.0
Mg73 Mg 0.44913 0.09619 0.01565 0.0
C74 C 0.43605 0.14427 0.02462 0.0
C75 C 0.43219 0.1513 0.79392 0.0
O76 O 0.44931 0.14406 0.78343 0.0
O77 O 0.39746 0.09125 0.91238 0.0
O78 O 0.40713 0.07476 0.98532 0.0
O79 O 0.48051 0.1548 0.89463 0.0
O80 O 0.46235 0.11709 0.93795 0.0
C81 C 0.3909 0.07441 0.95058 0.0
C82 C 0.4829 0.13898 0.92736 0.0
O83 O 0.42153 0.14618 0.84087 0.0
Mg84 Mg 0.54485 0.68704 0.41253 0.0
O85 O 0.54393 0.71004 0.3368 0.0
O86 O 0.53292 0.68275 0.26525 0.0
Mg87 Mg 0.53025 0.64499 0.29163 0.0
C88 C 0.53841 0.70466 0.28598 0.0
C89 C 0.55092 0.71674 0.5154 0.0
O90 O 0.53363 0.69223 0.52474 0.0
O91 O 0.58517 0.6943 0.38676 0.0
O92 O 0.57338 0.66821 0.31353 0.0
O93 O 0.50191 0.67026 0.42362 0.0
O94 O 0.51924 0.65253 0.37176 0.0
C95 C 0.59079 0.6847 0.34572 0.0
C96 C 0.49877 0.65269 0.38835 0.0
O97 O 0.56176 0.72279 0.4686 0.0
Mg98 Mg 0.84899 0.54434 0.73416 0.0
O99 O 0.8243 0.54302 0.65942 0.0
O100 O 0.83989 0.53232 0.58664 0.0
Mg101 Mg 0.87544 0.53001 0.61122 0.0
C102 C 0.82364 0.53766 0.60845 0.0
C103 C 0.82153 0.54732 0.83531 0.0
O104 O 0.82638 0.52827 0.84316 0.0
O105 O 0.88197 0.58498 0.70807 0.0
O106 O 0.89598 0.57302 0.63472 0.0
O107 O 0.82428 0.50076 0.74408 0.0
O108 O 0.85968 0.52002 0.69385 0.0
C109 C 0.89734 0.59051 0.66723 0.0
C110 C 0.8401 0.49877 0.71086 0.0
O111 O 0.82921 0.56021 0.79086 0.0
Mg112 Mg 0.30352 0.84827 0.10365 0.0
O113 O 0.27941 0.82841 0.02632 0.0
O114 O 0.30658 0.84483 0.95487 0.0
Mg115 Mg 0.34703 0.87513 0.98418 0.0
C116 C 0.28412 0.82965 0.97495 0.0
C117 C 0.25581 0.80797 0.17004 0.0
O118 O 0.26402 0.79337 0.14725 0.0
O119 O 0.30176 0.88515 0.08246 0.0
O120 O 0.3308 0.90039 0.01416 0.0
O121 O 0.31672 0.81847 0.10959 0.0
O122 O 0.33685 0.85485 0.06217 0.0
C123 C 0.31513 0.90242 0.04663 0.0
C124 C 0.33489 0.83306 0.07561 0.0
O125 O 0.26718 0.83204 0.15794 0.0
Mg126 Mg 0.4339 0.29868 0.40481 0.0
O127 O 0.43103 0.27117 0.33526 0.0
O128 O 0.4358 0.29255 0.25634 0.0
Mg129 Mg 0.44329 0.33315 0.27439 0.0
C130 C 0.43185 0.27241 0.28297 0.0
C131 C 0.42745 0.2731 0.51542 0.0
O132 O 0.44322 0.29807 0.52416 0.0
O133 O 0.39306 0.29138 0.38396 0.0
O134 O 0.40158 0.31377 0.30571 0.0
O135 O 0.4769 0.31507 0.40956 0.0
O136 O 0.45796 0.33031 0.35508 0.0
C137 C 0.38577 0.29944 0.3428 0.0
C138 C 0.47893 0.3309 0.37094 0.0
O139 O 0.41827 0.26576 0.46749 0.0
Mg140 Mg 0.13264 0.44722 0.74758 0.0
O141 O 0.15473 0.44566 0.67109 0.0
O142 O 0.14062 0.45962 0.60093 0.0
Mg143 Mg 0.10954 0.46854 0.6291 0.0
C144 C 0.1551 0.45139 0.62042 0.0
C145 C 0.17242 0.43796 0.81112 0.0
O146 O 0.18765 0.4587 0.78197 0.0
O147 O 0.09596 0.40919 0.72025 0.0
O148 O 0.0835 0.42616 0.65302 0.0
O149 O 0.16203 0.49005 0.75985 0.0
O150 O 0.12644 0.47519 0.71047 0.0
C151 C 0.07974 0.407 0.68311 0.0
C152 C 0.14755 0.49478 0.72783 0.0
O153 O 0.14804 0.42649 0.80245 0.0
Mg154 Mg 0.67374 0.13509 0.0962 0.0
O155 O 0.69712 0.1569 0.01916 0.0
O156 O 0.66865 0.14295 0.94944 0.0
Mg157 Mg 0.62847 0.11255 0.97878 0.0
C158 C 0.69156 0.15719 0.96855 0.0
C159 C 0.7046 0.15254 0.1992 0.0
O160 O 0.68026 0.14494 0.21094 0.0
O161 O 0.67442 0.09831 0.06764 0.0
O162 O 0.6447 0.08643 0.00115 0.0
O163 O 0.66164 0.16529 0.11036 0.0
O164 O 0.64019 0.1303 0.05895 0.0
C165 C 0.66016 0.08238 0.03028 0.0
C166 C 0.64282 0.15182 0.07663 0.0
O167 O 0.71011 0.15005 0.15002 0.0
C168 C 0.33967 0.38211 0.29419 0.0
C169 C 0.31517 0.37996 0.29451 0.0
C170 C 0.34255 0.36048 0.30235 0.0
C171 C 0.32022 0.33577 0.31141 0.0
C172 C 0.29516 0.33316 0.30939 0.0
C173 C 0.2929 0.35546 0.30085 0.0
C174 C 0.36977 0.36446 0.30285 0.0
C175 C 0.27086 0.3073 0.31865 0.0
C176 C 0.34775 0.29309 0.28894 0.0
C177 C 0.3594 0.29582 0.34034 0.0
C178 C 0.32985 0.30155 0.28052 0.0
C179 C 0.32428 0.31357 0.32425 0.0
C180 C 0.33191 0.31141 0.37813 0.0
C181 C 0.34959 0.3025 0.38567 0.0
C182 C 0.32079 0.30196 0.22301 0.0
C183 C 0.32518 0.32272 0.42635 0.0
H184 H 0.35684 0.40111 0.28871 0.0
H185 H 0.27394 0.3539 0.30147 0.0
H186 H 0.374 0.35892 0.34333 0.0
H187 H 0.37156 0.35197 0.27141 0.0
H188 H 0.38487 0.38497 0.29453 0.0
H189 H 0.25387 0.30653 0.29777 0.0
H190 H 0.27306 0.29081 0.30412 0.0
H191 H 0.26664 0.30468 0.36317 0.0
H192 H 0.35485 0.2872 0.25403 0.0
H193 H 0.35824 0.30418 0.42568 0.0
H194 H 0.33434 0.32096 0.20376 0.0
H195 H 0.30108 0.29965 0.22304 0.0
H196 H 0.32054 0.28632 0.19759 0.0
H197 H 0.33863 0.34409 0.42751 0.0
H198 H 0.3271 0.31436 0.46561 0.0
H199 H 0.30506 0.31918 0.42261 0.0
C200 C 0.93508 0.3053 0.71228 0.0
C201 C 0.92344 0.30042 0.66032 0.0
C202 C 0.96155 0.31359 0.71791 0.0
C203 C 0.97645 0.31691 0.67039 0.0
C204 C 0.9635 0.30644 0.62004 0.0
C205 C 0.93698 0.29858 0.6152 0.0
C206 C 0.97425 0.32303 0.77313 0.0
C207 C 0.97846 0.30738 0.56954 0.0
C208 C 0.03314 0.38534 0.65917 0.0
C209 C 0.05414 0.38294 0.67784 0.0
C210 C 0.00814 0.36388 0.65556 0.0
C211 C 0.00381 0.33883 0.66955 0.0
C212 C 0.02508 0.33596 0.68656 0.0
C213 C 0.05002 0.35822 0.69156 0.0
C214 C 0.98623 0.36842 0.63843 0.0
C215 C 0.02182 0.30975 0.70049 0.0
H216 H 0.92431 0.30567 0.74774 0.0
H217 H 0.9279 0.29404 0.57509 0.0
H218 H -0.01121 0.31688 0.78052 0.0
H219 H 0.98456 0.34463 0.77413 0.0
H220 H 0.9598 0.31552 0.80688 0.0
H221 H 0.9657 0.29234 0.53938 0.0
H222 H 0.98645 0.32675 0.54985 0.0
H223 H -0.00501 0.30447 0.58024 0.0
H224 H 0.03605 0.4044 0.64897 0.0
H225 H 0.06622 0.35621 0.70569 0.0
H226 H 0.97085 0.36095 0.67019 0.0
H227 H 0.97736 0.3579 0.59975 0.0
H228 H -0.00711 0.38935 0.63179 0.0
H229 H 0.02166 0.30768 0.74567 0.0
H230 H 0.03857 0.3083 0.68476 0.0
H231 H 0.00362 0.29337 0.68355 0.0
C232 C 0.61778 0.93773 0.03887 0.0
C233 C 0.61198 0.92811 0.98514 0.0
C234 C 0.63619 0.96385 0.04885 0.0
C235 C 0.64884 0.98041 0.00389 0.0
C236 C 0.6474 0.96926 0.95179 0.0
C237 C 0.6285 0.94306 0.94255 0.0
C238 C 0.63847 0.97457 0.10586 0.0
C239 C 0.66268 0.98596 0.90404 0.0
C240 C 0.63619 0.03652 0.00019 0.0
C241 C 0.65902 0.05712 0.02227 0.0
C242 C 0.63319 0.0119 -0.00711 0.0
C243 C 0.65388 0.00759 0.00685 0.0
C244 C 0.67748 0.0285 0.02751 0.0
C245 C 0.67963 0.05303 0.0359 0.0
C246 C 0.6073 0.99036 0.97171 0.0
C247 C 0.70039 0.02528 0.04171 0.0
H248 H 0.60575 0.92577 0.07234 0.0
H249 H 0.62473 0.93546 0.90112 0.0
H250 H 0.65904 0.98878 0.11562 0.0
H251 H 0.62724 0.98485 0.10833 0.0
H252 H 0.63082 0.95891 0.13723 0.0
H253 H 0.66568 0.97425 0.87249 0.0
H254 H 0.65179 -0.00542 0.88483 0.0
H255 H 0.68185 0.00212 0.91773 0.0
H256 H 0.62006 0.03939 0.98988 0.0
H257 H 0.69744 0.06896 0.05257 0.0
H258 H 0.59882 0.97382 0.00089 0.0
H259 H 0.61002 0.98305 0.93192 0.0
H260 H 0.59295 -0.0031 0.96547 0.0
H261 H 0.70157 0.02401 0.08687 0.0
H262 H 0.71875 0.04261 0.02815 0.0
H263 H 0.6991 0.00765 0.02299 0.0
C264 C 0.68262 0.62914 0.28841 0.0
C265 C 0.66033 0.60437 0.2893 0.0
C266 C 0.68069 0.65162 0.29739 0.0
C267 C 0.65592 0.64897 0.30691 0.0
C268 C 0.63342 0.62388 0.30587 0.0
C269 C 0.63599 0.60211 0.29727 0.0
C270 C 0.70518 0.67785 0.29872 0.0
C271 C 0.60638 0.61974 0.31452 0.0
C272 C 0.63006 0.68512 0.38204 0.0
C273 C 0.6173 0.68914 0.33814 0.0
C274 C 0.64779 0.67646 0.37227 0.0
C275 C 0.65232 0.67164 0.3177 0.0
C276 C 0.64382 0.68114 0.27394 0.0
C277 C 0.62607 0.68957 0.28468 0.0
C278 C 0.65788 0.66811 0.42016 0.0
C279 C 0.64939 0.6778 0.21522 0.0
H280 H 0.70149 0.63088 0.28256 0.0
H281 H 0.61868 0.58297 0.29709 0.0
H282 H 0.70182 0.69352 0.28349 0.0
H283 H 0.71214 0.68255 0.34165 0.0
H284 H 0.72083 0.67778 0.27404 0.0
H285 H 0.59106 0.59891 0.31169 0.0
H286 H 0.60502 0.62701 0.3555 0.0
H287 H 0.6021 0.63067 0.28336 0.0
H288 H 0.62368 0.68527 0.42356 0.0
H289 H 0.6167 0.6934 0.25068 0.0
H290 H 0.67763 0.67142 0.4116 0.0
H291 H 0.64481 0.64697 0.42743 0.0
H292 H 0.65847 0.67873 0.45808 0.0
H293 H 0.66917 0.6805 0.21091 0.0
H294 H 0.64757 0.69176 0.18789 0.0
H295 H 0.63516 0.65777 0.20146 0.0
C296 C 0.93197 0.62432 0.60931 0.0
C297 C 0.92045 0.61672 0.66117 0.0
C298 C 0.95869 0.64176 0.60408 0.0
C299 C 0.974 0.65173 0.6519 0.0
C300 C 0.96151 0.64832 0.70311 0.0
C301 C 0.93469 0.63051 0.7074 0.0
C302 C 0.97099 0.6459 0.54829 0.0
C303 C 0.97703 0.66032 0.75449 0.0
C304 C 0.03052 0.63959 0.65628 0.0
C305 C 0.0518 0.66394 0.6431 0.0
C306 C 0.00541 0.63573 0.65956 0.0
C307 C 0.00126 0.65697 0.65068 0.0
C308 C 0.02273 0.68187 0.63824 0.0
C309 C 0.0478 0.68496 0.63358 0.0
C310 C 0.98326 0.60859 0.67178 0.0
C311 C 0.01952 0.70521 0.62918 0.0
H312 H 0.92076 0.61429 0.57319 0.0
H313 H 0.92579 0.6252 0.74756 0.0
H314 H 0.98664 0.66642 0.54323 0.0
H315 H 0.97983 0.63338 0.54404 0.0
H316 H 0.9565 0.64087 0.51493 0.0
H317 H 0.96481 0.66186 0.78696 0.0
H318 H 0.98469 0.64792 0.77018 0.0
H319 H -0.00617 0.67996 0.74598 0.0
H320 H 0.03342 0.62317 0.66308 0.0
H321 H 0.06424 0.70387 0.62359 0.0
H322 H 0.96841 0.60201 0.63884 0.0
H323 H 0.97372 0.6086 0.71076 0.0
H324 H -0.01018 0.59413 0.67544 0.0
H325 H 0.01766 0.70759 0.58463 0.0
H326 H 0.0369 0.72325 0.644 0.0
H327 H 0.00204 0.70323 0.65 0.0
C328 C 0.29446 0.92899 0.02373 0.0
C329 C 0.31541 0.92723 0.04501 0.0
C330 C 0.29779 0.95327 0.00764 0.0
C331 C 0.3227 0.97585 0.0122 0.0
C332 C 0.34323 0.97413 0.03782 0.0
C333 C 0.33923 0.94985 0.05395 0.0
C334 C 0.27511 0.95423 0.98254 0.0
C335 C 0.37015 -0.00241 0.04434 0.0
C336 C 0.35772 0.03145 0.91638 0.0
C337 C 0.36452 0.05189 0.95322 0.0
C338 C 0.34006 0.00573 0.93186 0.0
C339 C 0.32906 0.00079 0.98506 0.0
C340 C 0.33213 0.02184 0.01761 0.0
C341 C 0.3504 0.0473 0.00182 0.0
C342 C 0.33666 0.98385 0.89502 0.0
C343 C 0.31927 0.01738 0.0728 0.0
H344 H 0.27608 0.91134 0.01636 0.0
H345 H 0.35536 0.94826 0.07031 0.0
H346 H 0.27688 0.97364 0.98746 0.0
H347 H 0.27416 0.94988 0.93814 0.0
H348 H 0.25652 0.93927 0.00115 0.0
H349 H 0.38369 0.99281 0.06591 0.0
H350 H 0.37845 0.00566 0.00351 0.0
H351 H 0.3692 0.01306 0.06784 0.0
H352 H 0.3687 0.0351 0.87878 0.0
H353 H 0.35559 0.06325 0.03015 0.0
H354 H 0.31613 0.96788 0.89481 0.0
H355 H 0.34875 0.97582 0.91065 0.0
H356 H 0.34269 0.99058 0.85228 0.0
H357 H 0.29967 -0.00029 0.07231 0.0
H358 H 0.31749 0.03439 0.08546 0.0
H359 H 0.33119 0.01448 0.10394 0.0
C360 C 0.16647 0.41402 0.89984 0.0
C361 C 0.18306 0.43151 0.86001 0.0
C362 C 0.17624 0.41133 0.95048 0.0
C363 C 0.20322 0.4265 0.96155 0.0
C364 C 0.22019 0.44293 0.92017 0.0
C365 C 0.20993 0.4452 0.87001 0.0
C366 C 0.15752 0.39338 -0.00679 0.0
C367 C 0.24911 0.45932 0.92998 0.0
C368 C 0.22875 0.44978 0.10531 0.0
C369 C 0.24016 0.43473 0.11843 0.0
C370 C 0.21556 0.44636 0.05553 0.0
C371 C 0.21361 0.42736 0.01774 0.0
C372 C 0.22371 0.41104 0.03207 0.0
C373 C 0.23688 0.41491 0.08223 0.0
C374 C 0.20492 0.46409 0.04217 0.0
C375 C 0.22182 0.39039 -0.00677 0.0
H376 H 0.14568 0.40328 0.89254 0.0
H377 H 0.22296 0.4586 0.83942 0.0
H378 H 0.16488 0.38131 0.01202 0.0
H379 H 0.1557 0.40512 0.02641 0.0
H380 H 0.13788 0.38032 0.97588 0.0
H381 H 0.25988 0.46938 0.89224 0.0
H382 H 0.25293 0.47424 0.96162 0.0
H383 H 0.25695 0.44708 0.94563 0.0
H384 H 0.23096 0.465 0.13309 0.0
H385 H 0.24553 0.4031 0.09198 0.0
H386 H 0.18432 0.4525 0.02909 0.0
H387 H 0.21601 0.47701 0.00756 0.0
H388 H 0.20618 0.47644 0.07755 0.0
H389 H 0.20175 0.37868 0.97697 0.0
H390 H 0.22744 0.37711 0.01315 0.0
H391 H 0.23487 0.39981 0.95778 0.0
C392 C 0.81149 0.26064 0.38626 0.0
C393 C 0.81736 0.25256 0.43561 0.0
C394 C 0.795 0.24258 0.34718 0.0
C395 C 0.78438 0.21563 0.35701 0.0
C396 C 0.79134 0.20732 0.40533 0.0
C397 C 0.80756 0.22588 0.4444 0.0
C398 C 0.78783 0.25236 0.29672 0.0
C399 C 0.7809 0.1788 0.41669 0.0
C400 C 0.71849 0.17361 0.29087 0.0
C401 C 0.72502 0.16621 0.2415 0.0
C402 C 0.73753 0.1888 0.32965 0.0
C403 C 0.76384 0.19647 0.31953 0.0
C404 C 0.77045 0.18792 0.27115 0.0
C405 C 0.75098 0.1731 0.23235 0.0
C406 C 0.72958 0.19777 0.38018 0.0
C407 C 0.79819 0.19518 0.2595 0.0
H408 H 0.81899 0.28119 0.37889 0.0
H409 H 0.81218 0.21947 0.48216 0.0
H410 H 0.79144 0.24411 0.25926 0.0
H411 H 0.76677 0.24584 0.29762 0.0
H412 H 0.79891 0.27393 0.29363 0.0
H413 H 0.79096 0.1757 0.45179 0.0
H414 H 0.75986 0.16927 0.42618 0.0
H415 H 0.78302 0.169 0.38 0.0
H416 H 0.6985 0.16839 0.29852 0.0
H417 H 0.75617 0.16728 0.19454 0.0
H418 H 0.73854 0.21928 0.37932 0.0
H419 H 0.73671 0.19274 0.41759 0.0
H420 H 0.70817 0.189 0.38335 0.0
H421 H 0.8098 0.21626 0.24997 0.0
H422 H 0.79962 0.1841 0.22434 0.0
H423 H 0.80706 0.19161 0.29608 0.0
C424 C 0.57337 0.81404 0.7664 0.0
C425 C 0.55957 0.82688 0.75429 0.0
C426 C 0.57597 0.79812 0.72716 0.0
C427 C 0.56412 0.79465 0.67505 0.0
C428 C 0.55114 0.80844 0.66196 0.0
C429 C 0.54921 0.8245 0.7015 0.0
C430 C 0.59043 0.78415 0.74228 0.0
C431 C 0.5379 0.80506 0.60724 0.0
C432 C 0.57695 0.7621 0.55399 0.0
C433 C 0.55577 0.73666 0.55759 0.0
C434 C 0.58069 0.78102 0.59336 0.0
C435 C 0.56251 0.77443 0.63648 0.0
C436 C 0.54137 0.74866 0.64063 0.0
C437 C 0.53842 0.73011 0.60153 0.0
C438 C 0.60376 0.80816 0.58824 0.0
C439 C 0.52123 0.74087 0.68527 0.0
H440 H 0.58163 0.81594 0.8069 0.0
H441 H 0.53859 0.83439 0.69154 0.0
H442 H 0.57641 0.76307 0.7473 0.0
H443 H 0.60407 0.78619 0.70914 0.0
H444 H 0.60153 0.79164 0.78107 0.0
H445 H 0.53027 0.8186 0.60198 0.0
H446 H 0.55157 0.8083 0.57334 0.0
H447 H 0.52143 0.78481 0.60346 0.0
H448 H 0.59054 0.76724 0.52037 0.0
H449 H 0.52194 0.71053 0.60464 0.0
H450 H 0.61438 0.81444 0.62777 0.0
H451 H 0.597 0.82202 0.57829 0.0
H452 H 0.61746 0.80948 0.55583 0.0
H453 H 0.53071 0.74523 0.72609 0.0
H454 H 0.50636 0.71985 0.68367 0.0
H455 H 0.51123 0.75233 0.6814 0.0
C456 C 0.74894 0.5694 0.09 0.0
C457 C 0.72275 0.55957 0.07601 0.0
C458 C 0.76712 0.5714 0.05054 0.0
C459 C 0.75883 0.56305 -0.00394 0.0
C460 C 0.73272 0.55439 0.98123 0.0
C461 C 0.71511 0.55293 0.02118 0.0
C462 C 0.79489 0.58121 0.06781 0.0
C463 C 0.7229 0.54503 0.92388 0.0
C464 C 0.8059 0.5757 0.87814 0.0
C465 C 0.8063 0.55228 0.87684 0.0
C466 C 0.79128 0.57998 0.91792 0.0
C467 C 0.7763 0.56015 0.95639 0.0
C468 C 0.77676 0.53656 0.95517 0.0
C469 C 0.79189 0.53304 0.91589 0.0
C470 C 0.79167 0.60558 0.91858 0.0
C471 C 0.76073 0.51466 -0.00542 0.0
H472 H 0.7551 0.57478 0.13211 0.0
H473 H 0.69498 0.54547 0.00969 0.0
H474 H 0.79868 0.56473 0.06903 0.0
H475 H 0.80854 0.59553 0.03771 0.0
H476 H 0.79913 0.59046 0.10894 0.0
H477 H 0.70275 0.54114 0.91764 0.0
H478 H 0.73574 0.55959 0.89326 0.0
H479 H 0.7232 0.52679 0.91574 0.0
H480 H 0.81714 0.59072 0.84836 0.0
H481 H 0.79196 0.51482 0.91512 0.0
H482 H 0.79693 0.61438 0.96005 0.0
H483 H 0.77202 0.60232 0.90903 0.0
H484 H 0.80565 0.61965 0.88849 0.0
H485 H 0.76597 0.52157 0.03741 0.0
H486 H 0.76348 0.49765 0.98864 0.0
H487 H 0.7398 0.50812 0.98914 0.0
C488 C 0.18007 0.7558 0.44985 0.0
C489 C 0.15342 0.73811 0.4432 0.0
C490 C 0.19558 0.76995 0.40513 0.0
C491 C 0.18412 0.76659 0.35264 0.0
C492 C 0.15688 0.7505 0.34673 0.0
C493 C 0.14188 0.73632 0.39199 0.0
C494 C 0.22455 0.78686 0.41331 0.0
C495 C 0.14379 0.7468 0.29179 0.0
C496 C 0.22659 0.81211 0.23895 0.0
C497 C 0.23575 0.79701 0.2137 0.0
C498 C 0.20917 0.8023 0.2833 0.0
C499 C 0.201 0.77694 0.30322 0.0
C500 C 0.20972 0.76144 0.27702 0.0
C501 C 0.2268 0.77158 0.2325 0.0
C502 C 0.19996 0.81923 0.30957 0.0
C503 C 0.2016 0.73432 0.29699 0.0
H504 H 0.18919 0.75741 0.48925 0.0
H505 H 0.12126 0.72292 0.38656 0.0
H506 H 0.2346 0.77752 0.39349 0.0
H507 H 0.23177 0.80612 0.3937 0.0
H508 H 0.23001 0.78987 0.45734 0.0
H509 H 0.12232 0.73722 0.29563 0.0
H510 H 0.15107 0.76576 0.27077 0.0
H511 H 0.14843 0.73448 0.26537 0.0
H512 H 0.23332 0.83175 0.2246 0.0
H513 H 0.23371 0.75972 0.21337 0.0
H514 H 0.20769 0.82427 0.35191 0.0
H515 H 0.17844 0.80853 0.31245 0.0
H516 H 0.20631 0.83757 0.28645 0.0
H517 H 0.20813 0.73519 0.33993 0.0
H518 H 0.2098 0.72466 0.27159 0.0
H519 H 0.1801 0.72208 0.29658 0.0
C520 C 0.40816 0.17369 0.76149 0.0
C521 C 0.42716 0.16667 0.75286 0.0
C522 C 0.40457 0.18951 0.72364 0.0
C523 C 0.42058 0.19873 0.67658 0.0
C524 C 0.43936 0.19119 0.66716 0.0
C525 C 0.4423 0.17517 0.70516 0.0
C526 C 0.38411 0.19686 0.73464 0.0
C527 C 0.45702 0.20078 0.61781 0.0
C528 C 0.40616 0.22724 0.55099 0.0
C529 C 0.42296 0.25399 0.55922 0.0
C530 C 0.40397 0.20897 0.5904 0.0
C531 C 0.41918 0.21767 0.63876 0.0
C532 C 0.43529 0.24469 0.64828 0.0
C533 C 0.43686 0.26249 0.60859 0.0
C534 C 0.38628 0.18033 0.57919 0.0
C535 C 0.45201 0.2548 0.69904 0.0
H536 H 0.39629 0.16709 0.79809 0.0
H537 H 0.45702 0.16985 0.69802 0.0
H538 H 0.39358 0.21806 0.74283 0.0
H539 H 0.3715 0.19274 0.69811 0.0
H540 H 0.37172 0.18624 0.77029 0.0
H541 H 0.47 0.19238 0.61547 0.0
H542 H 0.44534 0.19577 0.57965 0.0
H543 H 0.46926 0.2223 0.61939 0.0
H544 H 0.39519 0.22051 0.51317 0.0
H545 H 0.44981 0.28311 0.61551 0.0
H546 H 0.37409 0.17053 0.61555 0.0
H547 H 0.39814 0.17108 0.57085 0.0
H548 H 0.37335 0.17688 0.54344 0.0
H549 H 0.44011 0.24618 0.7363 0.0
H550 H 0.46191 0.27635 0.70233 0.0
H551 H 0.46705 0.24896 0.69831 0.0
C552 C 0.18188 0.46495 0.53562 0.0
C553 C 0.17335 0.44927 0.58261 0.0
C554 C 0.19943 0.46374 0.49924 0.0
C555 C 0.20826 0.44601 0.5094 0.0
C556 C 0.19932 0.42971 0.55615 0.0
C557 C 0.18219 0.43177 0.59269 0.0
C558 C 0.20901 0.48195 0.45068 0.0
C559 C 0.20797 0.41022 0.56767 0.0
C560 C 0.23943 0.43218 0.38784 0.0
C561 C 0.26592 0.4483 0.39952 0.0
C562 C 0.22035 0.43047 0.42427 0.0
C563 C 0.22802 0.44576 0.4726 0.0
C564 C 0.25474 0.46208 0.48441 0.0
C565 C 0.27333 0.46293 0.44806 0.0
C566 C 0.19202 0.41247 0.41093 0.0
C567 C 0.26373 0.47922 0.53474 0.0
H568 H 0.17528 0.47867 0.52784 0.0
H569 H 0.17547 0.41947 0.62872 0.0
H570 H 0.23042 0.49476 0.45329 0.0
H571 H 0.20475 0.47067 0.4121 0.0
H572 H 0.19998 0.49438 0.4483 0.0
H573 H 0.19789 0.3978 0.60368 0.0
H574 H 0.20418 0.39752 0.53145 0.0
H575 H 0.22921 0.42054 0.57543 0.0
H576 H 0.23364 0.42069 0.35059 0.0
H577 H 0.29379 0.47559 0.4571 0.0
H578 H 0.18224 0.42397 0.40418 0.0
H579 H 0.18216 0.39921 0.44591 0.0
H580 H 0.18933 0.40057 0.37377 0.0
H581 H 0.25633 0.49305 0.53343 0.0
H582 H 0.28525 0.49055 0.53831 0.0
H583 H 0.25573 0.46722 0.57216 0.0
C584 C 0.79597 0.2376 0.73419 0.0
C585 C 0.80764 0.26428 0.7455 0.0
C586 C 0.77765 0.21909 0.77034 0.0
C587 C 0.77052 0.22758 0.81806 0.0
C588 C 0.78203 0.2545 0.82919 0.0
C589 C 0.8006 0.27248 0.79306 0.0
C590 C 0.766 0.1905 0.75767 0.0
C591 C 0.77451 0.26436 0.87895 0.0
C592 C 0.70503 0.1836 0.88317 0.0
C593 C 0.71198 0.17491 0.93019 0.0
C594 C 0.72387 0.2005 0.84604 0.0
C595 C 0.75031 0.2085 0.85556 0.0
C596 C 0.75745 0.19942 0.90241 0.0
C597 C 0.73819 0.18294 0.93962 0.0
C598 C 0.71554 0.21027 0.79731 0.0
C599 C 0.78544 0.20725 0.91334 0.0
H600 H 0.80152 0.2312 0.6977 0.0
H601 H 0.80941 0.29311 0.80177 0.0
H602 H 0.76933 0.18051 0.7925 0.0
H603 H 0.74467 0.18137 0.75223 0.0
H604 H 0.77434 0.18709 0.72002 0.0
H605 H 0.78526 0.28595 0.88152 0.0
H606 H 0.75337 0.25743 0.8779 0.0
H607 H 0.77838 0.25651 0.91678 0.0
H608 H 0.68479 0.17761 0.87591 0.0
H609 H 0.74359 0.17606 0.97567 0.0
H610 H 0.72208 0.20548 0.75878 0.0
H611 H 0.72482 0.23178 0.79934 0.0
H612 H 0.69413 0.2018 0.79535 0.0
H613 H 0.79375 0.20272 0.87719 0.0
H614 H 0.78757 0.19722 0.9497 0.0
H615 H 0.7971 0.22857 0.92017 0.0
C616 C 0.51741 0.80552 0.10976 0.0
C617 C 0.53347 0.81407 0.06343 0.0
C618 C 0.51836 0.78797 0.14666 0.0
C619 C 0.53615 0.77916 0.1375 0.0
C620 C 0.55247 0.78774 0.09085 0.0
C621 C 0.55073 0.80492 0.05393 0.0
C622 C 0.5002 0.77873 0.1952 0.0
C623 C 0.57189 0.77894 0.08025 0.0
C624 C 0.55303 0.75074 0.2596 0.0
C625 C 0.53775 0.72402 0.24918 0.0
C626 C 0.55306 0.76903 0.22304 0.0
C627 C 0.537 0.76024 0.17587 0.0
C628 C 0.52121 0.73327 0.16578 0.0
C629 C 0.52196 0.71551 0.20229 0.0
C630 C 0.5704 0.79769 0.23459 0.0
C631 C 0.50337 0.72316 0.11662 0.0
H632 H 0.5039 0.81242 0.117 0.0
H633 H 0.56333 0.81171 0.01841 0.0
H634 H 0.48784 0.75721 0.19414 0.0
H635 H 0.51154 0.78388 0.23385 0.0
H636 H 0.48736 0.78732 0.19611 0.0
H637 H 0.58371 0.78807 0.04302 0.0
H638 H 0.58515 0.78385 0.11588 0.0
H639 H 0.56164 0.75749 0.07522 0.0
H640 H 0.56536 0.75735 0.29564 0.0
H641 H 0.50988 0.69483 0.19439 0.0
H642 H 0.55846 0.80713 0.2393 0.0
H643 H 0.58368 0.80722 0.19951 0.0
H644 H 0.58223 0.80131 0.27227 0.0
H645 H 0.48952 0.73052 0.11739 0.0
H646 H 0.49209 0.70155 0.11514 0.0
H647 H 0.51483 0.73039 0.07836 0.0
C648 C 0.70138 0.51965 0.43686 0.0
C649 C 0.70888 0.53469 0.3889 0.0
C650 C 0.71992 0.52066 0.4738 0.0
C651 C 0.74664 0.53754 0.46317 0.0
C652 C 0.75437 0.55314 0.41533 0.0
C653 C 0.73537 0.55129 0.37835 0.0
C654 C 0.71091 0.50323 0.5236 0.0
C655 C 0.78269 0.5717 0.40316 0.0
C656 C 0.79319 0.55367 0.58323 0.0
C657 C 0.80344 0.5374 0.5727 0.0
C658 C 0.775 0.55432 0.54735 0.0
C659 C 0.76646 0.53782 0.50081 0.0
C660 C 0.77641 0.521 0.49071 0.0
C661 C 0.79498 0.52122 0.52641 0.0
C662 C 0.76514 0.57283 0.55884 0.0
C663 C 0.7673 0.50262 0.44238 0.0
H664 H 0.68091 0.50663 0.44504 0.0
H665 H 0.74124 0.56311 0.34159 0.0
H666 H 0.71885 0.48985 0.5225 0.0
H667 H 0.71835 0.51506 0.56143 0.0
H668 H 0.68938 0.4914 0.52619 0.0
H669 H 0.7854 0.58357 0.36596 0.0
H670 H 0.79203 0.58499 0.43843 0.0
H671 H 0.79299 0.56066 0.39714 0.0
H672 H 0.79987 0.56635 0.61873 0.0
H673 H 0.8027 0.50843 0.51838 0.0
H674 H 0.74377 0.56178 0.56466 0.0
H675 H 0.76915 0.58595 0.52327 0.0
H676 H 0.77425 0.58489 0.59589 0.0
H677 H 0.74592 0.48957 0.44426 0.0
H678 H 0.77663 0.49044 0.44096 0.0
H679 H 0.77167 0.51379 0.40364 0.0
C680 C 0.17829 0.7471 0.74391 0.0
C681 C 0.16799 0.72055 0.75504 0.0
C682 C 0.19556 0.76614 0.78073 0.0
C683 C 0.20311 0.75839 0.82896 0.0
C684 C 0.19236 0.73162 0.84085 0.0
C685 C 0.17474 0.71305 0.80405 0.0
C686 C 0.20622 0.79453 0.76739 0.0
C687 C 0.20034 0.72255 0.89125 0.0
C688 C 0.26954 0.80345 0.88943 0.0
C689 C 0.26324 0.81223 0.93708 0.0
C690 C 0.25014 0.7862 0.85357 0.0
C691 C 0.22381 0.77805 0.86491 0.0
C692 C 0.21735 0.78746 0.91212 0.0
C693 C 0.23717 0.80418 0.94821 0.0
C694 C 0.25777 0.77606 0.80445 0.0
C695 C 0.18954 0.77965 0.92474 0.0
H696 H 0.17296 0.75299 0.70632 0.0
H697 H 0.167 0.69257 0.8128 0.0
H698 H 0.20401 0.80483 0.80307 0.0
H699 H 0.2273 0.80386 0.75845 0.0
H700 H 0.19637 0.79728 0.73143 0.0
H701 H 0.18938 0.70102 0.8956 0.0
H702 H 0.22139 0.72914 0.88916 0.0
H703 H 0.19723 0.73126 0.92858 0.0
H704 H 0.28969 0.8095 0.88097 0.0
H705 H 0.23231 0.81116 0.98481 0.0
H706 H 0.2506 0.78046 0.76628 0.0
H707 H 0.24862 0.75457 0.80719 0.0
H708 H 0.27916 0.78459 0.80118 0.0
H709 H 0.18048 0.78343 0.88876 0.0
H710 H 0.188 0.7903 0.96062 0.0
H711 H 0.17815 0.75848 0.93332 0.0
C712 C 0.41758 0.15132 0.10954 0.0
C713 C 0.43254 0.16154 0.06214 0.0
C714 C 0.41518 0.16767 0.14752 0.0
C715 C 0.42891 0.19488 0.13866 0.0
C716 C 0.44406 0.20525 0.09072 0.0
C717 C 0.4453 0.18834 0.0524 0.0
C718 C 0.39809 0.15587 0.19711 0.0
C719 C 0.45952 0.23424 0.08064 0.0
C720 C 0.41085 0.24052 0.20807 0.0
C721 C 0.42878 0.25014 0.2512 0.0
C722 C 0.40974 0.22141 0.17277 0.0
C723 C 0.42771 0.21262 0.17969 0.0
C724 C 0.4455 0.22193 0.22409 0.0
C725 C 0.44551 0.24036 0.26003 0.0
C726 C 0.38989 0.21124 0.12712 0.0
C727 C 0.4654 0.21351 0.23187 0.0
H728 H 0.40763 0.13049 0.11664 0.0
H729 H 0.45708 0.19612 0.01589 0.0
H730 H 0.41003 0.16247 0.23493 0.0
H731 H 0.3837 0.16253 0.19974 0.0
H732 H 0.38748 0.13425 0.19611 0.0
H733 H 0.47085 0.23914 0.04201 0.0
H734 H 0.44633 0.24235 0.07862 0.0
H735 H 0.47317 0.24401 0.11518 0.0
H736 H 0.39793 0.24822 0.20163 0.0
H737 H 0.45956 0.2482 0.29316 0.0
H738 H 0.37933 0.18964 0.12652 0.0
H739 H 0.39983 0.21803 0.08709 0.0
H740 H 0.37552 0.21788 0.1312 0.0
H741 H 0.45572 0.19199 0.23425 0.0
H742 H 0.47724 0.22192 0.26949 0.0
H743 H 0.47863 0.21972 0.19603 0.0
C744 C 0.35953 0.54271 0.26742 0.0
C745 C 0.36029 0.51985 0.27758 0.0
C746 C 0.37995 0.56707 0.28495 0.0
C747 C 0.40147 0.56842 0.31308 0.0
C748 C 0.40201 0.54532 0.32411 0.0
C749 C 0.38159 0.52147 0.30592 0.0
C750 C 0.37882 0.59135 0.27233 0.0
C751 C 0.42457 0.5458 0.35387 0.0
C752 C 0.46999 0.62534 0.31223 0.0
C753 C 0.47279 0.63412 0.36637 0.0
C754 C 0.44608 0.60537 0.2927 0.0
C755 C 0.42445 0.59379 0.32839 0.0
C756 C 0.42665 0.60395 0.38187 0.0
C757 C 0.45085 0.62417 0.40018 0.0
C758 C 0.44451 0.59543 0.23508 0.0
C759 C 0.40405 0.59217 0.42115 0.0
H760 H 0.34317 0.54161 0.24539 0.0
H761 H 0.38273 0.50407 0.31298 0.0
H762 H 0.38233 0.6031 0.31001 0.0
H763 H 0.39439 0.60358 0.24283 0.0
H764 H 0.3598 0.58684 0.2545 0.0
H765 H 0.42128 0.52594 0.36183 0.0
H766 H 0.44255 0.55661 0.32922 0.0
H767 H 0.42799 0.55607 0.39363 0.0
H768 H 0.48657 0.63375 0.28519 0.0
H769 H 0.4529 0.63117 0.44192 0.0
H770 H 0.42669 0.59258 0.2142 0.0
H771 H 0.44346 0.57625 0.23657 0.0
H772 H 0.46169 0.60889 0.21018 0.0
H773 H 0.38592 0.58856 0.40047 0.0
H774 H 0.40752 0.60484 0.45736 0.0
H775 H 0.40095 0.57311 0.43569 0.0
C776 C 0.81363 0.44991 0.70686 0.0
C777 C 0.83597 0.47323 0.69209 0.0
C778 C 0.81066 0.42568 0.6918 0.0
C779 C 0.83053 0.42486 0.66146 0.0
C780 C 0.85272 0.44837 0.64517 0.0
C781 C 0.85519 0.47219 0.66084 0.0
C782 C 0.78673 0.401 0.70986 0.0
C783 C 0.87439 0.44841 0.61287 0.0
C784 C 0.84472 0.36966 0.67246 0.0
C785 C 0.83603 0.35729 0.62168 0.0
C786 C 0.84156 0.39069 0.68733 0.0
C787 C 0.82951 0.39973 0.6503 0.0
C788 C 0.81934 0.38641 0.6002 0.0
C789 C 0.8226 0.36521 0.58658 0.0
C790 C 0.85238 0.40409 0.74153 0.0
C791 C 0.80635 0.39544 0.55965 0.0
H792 H 0.79869 0.45055 0.73098 0.0
H793 H 0.87268 0.49002 0.64978 0.0
H794 H 0.77778 0.38761 0.6746 0.0
H795 H 0.79224 0.39079 0.74043 0.0
H796 H 0.77198 0.40489 0.72849 0.0
H797 H 0.88947 0.46831 0.6002 0.0
H798 H 0.88384 0.4399 0.63803 0.0
H799 H 0.86649 0.43618 0.57566 0.0
H800 H 0.85432 0.36319 0.70058 0.0
H801 H 0.81569 0.35562 0.54735 0.0
H802 H 0.83761 0.40665 0.764 0.0
H803 H 0.86931 0.42377 0.73421 0.0
H804 H 0.85876 0.39309 0.76794 0.0
H805 H 0.79181 0.39894 0.58046 0.0
H806 H 0.79656 0.38114 0.5261 0.0
H807 H 0.82113 0.41418 0.54132 0.0
C808 C 0.46596 0.85929 0.97022 0.0
C809 C 0.4693 0.84046 0.94279 0.0
C810 C 0.44183 0.85331 0.99195 0.0
C811 C 0.42038 0.82778 0.98627 0.0
C812 C 0.42359 0.80853 0.95904 0.0
C813 C 0.44806 0.81514 0.93731 0.0
C814 C 0.43923 0.87455 0.02016 0.0
C815 C 0.40118 0.78109 0.95252 0.0
C816 C 0.36633 0.81703 0.08361 0.0
C817 C 0.35237 0.8251 0.05078 0.0
C818 C 0.38745 0.81554 0.06191 0.0
C819 C 0.39445 0.82218 0.00627 0.0
C820 C 0.37869 0.82779 0.97198 0.0
C821 C 0.35783 0.82918 -0.00524 0.0
C822 C 0.40358 0.80913 0.09963 0.0
C823 C 0.3852 0.83471 0.91235 0.0
H824 H 0.4822 0.87897 0.97411 0.0
H825 H 0.45057 0.80046 0.9164 0.0
H826 H 0.42505 0.87809 -0.00228 0.0
H827 H 0.43171 0.86843 0.06233 0.0
H828 H 0.45801 0.89317 0.02257 0.0
H829 H 0.40719 0.76806 0.93292 0.0
H830 H 0.39253 0.77293 -0.00694 0.0
H831 H 0.38571 0.78115 0.92717 0.0
H832 H 0.36199 0.81377 0.12697 0.0
H833 H 0.34643 0.83454 0.96902 0.0
H834 H 0.4218 0.8273 0.11022 0.0
H835 H 0.40908 0.79591 0.07923 0.0
H836 H 0.39312 0.79992 0.13821 0.0
H837 H 0.40259 0.85443 0.90924 0.0
H838 H 0.36899 0.83472 0.88968 0.0
H839 H 0.38994 0.8209 0.8921 0.0
C840 C 0.61632 0.44222 0.2458 0.0
C841 C 0.61564 0.46486 0.25904 0.0
C842 C 0.59588 0.41751 0.26138 0.0
C843 C 0.57452 0.41559 0.29103 0.0
C844 C 0.57398 0.43843 0.30487 0.0
C845 C 0.59431 0.46263 0.28821 0.0
C846 C 0.5969 0.3935 0.24538 0.0
C847 C 0.55164 0.43736 0.33659 0.0
C848 C 0.50603 0.35855 0.29323 0.0
C849 C 0.50443 0.34924 0.34661 0.0
C850 C 0.52957 0.37863 0.27246 0.0
C851 C 0.55194 0.38994 0.3063 0.0
C852 C 0.55089 0.37929 0.35877 0.0
C853 C 0.52713 0.35888 0.37818 0.0
C854 C 0.52994 0.38904 0.21584 0.0
C855 C 0.57424 0.39087 0.39629 0.0
H856 H 0.63264 0.44378 0.22294 0.0
H857 H 0.59316 0.47984 0.29746 0.0
H858 H 0.59456 0.38151 0.28208 0.0
H859 H 0.58055 0.38137 0.21726 0.0
H860 H 0.61544 0.39834 0.22479 0.0
H861 H 0.5549 0.45704 0.3465 0.0
H862 H 0.53343 0.42682 0.31241 0.0
H863 H 0.54867 0.42653 0.37544 0.0
H864 H 0.48879 0.35062 0.26797 0.0
H865 H 0.52602 0.35159 0.41938 0.0
H866 H 0.54757 0.39257 0.1932 0.0
H867 H 0.53048 0.40794 0.21926 0.0
H868 H 0.5125 0.37551 0.19158 0.0
H869 H 0.59201 0.39483 0.37368 0.0
H870 H 0.57157 0.37791 0.4315 0.0
H871 H 0.57746 0.40972 0.41251 0.0
C872 C 0.15799 0.63031 0.68381 0.0
C873 C 0.16261 0.63853 0.62922 0.0
C874 C 0.16203 0.61028 0.70216 0.0
C875 C 0.17069 0.59808 0.66469 0.0
C876 C 0.17807 0.60827 0.61104 0.0
C877 C 0.174 0.62857 0.5939 0.0
C878 C 0.15437 0.60041 0.76 0.0
C879 C 0.18768 0.59604 0.57007 0.0
C880 C 0.1794 0.54289 0.72033 0.0
C881 C 0.15472 0.52137 0.70997 0.0
C882 C 0.18544 0.56811 0.70426 0.0
C883 C 0.16625 0.5717 0.67772 0.0
C884 C 0.14152 0.54992 0.66648 0.0
C885 C 0.13608 0.52517 0.68291 0.0
C886 C 0.21201 0.59089 0.71687 0.0
C887 C 0.12037 0.55278 0.63846 0.0
H888 H 0.15013 0.63876 0.7117 0.0
H889 H 0.17783 0.63517 0.55175 0.0
H890 H 0.13533 0.58206 0.75936 0.0
H891 H 0.16877 0.59605 0.77867 0.0
H892 H 0.15254 0.61466 0.78636 0.0
H893 H 0.19754 0.60918 0.53487 0.0
H894 H 0.20133 0.59083 0.58957 0.0
H895 H 0.17092 0.57782 0.55414 0.0
H896 H 0.19389 0.54008 0.74128 0.0
H897 H 0.11681 0.50879 0.67558 0.0
H898 H 0.21041 0.60281 0.74994 0.0
H899 H 0.22016 0.60362 0.68045 0.0
H900 H 0.2258 0.58453 0.73037 0.0
H901 H 0.11486 0.56458 0.66441 0.0
H902 H 0.10265 0.53371 0.6304 0.0
H903 H 0.12752 0.56313 0.5989 0.0
C904 C 0.61962 0.15878 0.00041 0.0
C905 C 0.62533 0.16075 0.05638 0.0
C906 C 0.59831 0.16033 0.98097 0.0
C907 C 0.58243 0.16411 0.01862 0.0
C908 C 0.58974 0.16883 0.07458 0.0
C909 C 0.61124 0.16706 0.09295 0.0
C910 C 0.59143 0.15543 0.9209 0.0
C911 C 0.57362 0.17347 0.11575 0.0
C912 C 0.52869 0.17191 0.95325 0.0
C913 C 0.50796 0.14614 0.95397 0.0
C914 C 0.55281 0.17848 0.97681 0.0
C915 C 0.5563 0.15871 0.00065 0.0
C916 C 0.53519 0.13282 0.0027 0.0
C917 C 0.51128 0.1269 0.97958 0.0
C918 C 0.57473 0.20636 0.97471 0.0
C919 C 0.53813 0.11107 0.02728 0.0
H920 H 0.63109 0.15473 0.97199 0.0
H921 H 0.61578 0.16866 0.1363 0.0
H922 H 0.5739 0.13592 0.91577 0.0
H923 H 0.58674 0.16996 0.90429 0.0
H924 H 0.60743 0.15607 0.89624 0.0
H925 H 0.58445 0.18181 0.15452 0.0
H926 H 0.56732 0.18678 0.09889 0.0
H927 H 0.55586 0.15472 0.12534 0.0
H928 H 0.52613 0.18692 0.93396 0.0
H929 H 0.49538 0.10694 0.98011 0.0
H930 H 0.58965 0.20808 0.94513 0.0
H931 H 0.58433 0.21256 0.01531 0.0
H932 H 0.56791 0.21989 0.96195 0.0
H933 H 0.55243 0.10839 0.00316 0.0
H934 H 0.51948 0.09228 0.02807 0.0
H935 H 0.54569 0.11609 0.06975 0.0
loop_
_geom_bond_atom_site_label_1
_geom_bond_atom_site_label_2
_geom_bond_distance
_geom_bond_site_symmetry_2
_ccdc_geom_bond_type
Mg0 O1 2.028 . S
Mg0 O7 1.986 . S
Mg0 O9 2.114 . S
Mg0 O10 2.251 . S
Mg0 O13 2.010 . S
O1 Mg0 2.028 . S
O1 C4 1.250 . S
O2 Mg3 2.028 . S
O2 C4 1.248 . S
Mg3 O2 2.028 . S
Mg3 O8 2.032 . S
Mg3 O10 2.079 . S
C4 O1 1.250 . S
C4 O2 1.248 . S
C5 O6 1.264 . S
C5 O13 1.249 . S
O6 C5 1.264 . S
O7 Mg0 1.986 . S
O7 C11 1.246 . S
O8 Mg3 2.032 . S
O8 C11 1.259 . S
O9 Mg0 2.114 . S
O9 C12 1.252 . S
O10 Mg0 2.251 . S
O10 Mg3 2.079 . S
O10 C12 1.273 . S
C11 O7 1.246 . S
C11 O8 1.259 . S
C12 O9 1.252 . S
C12 O10 1.273 . S
O13 Mg0 2.010 . S
O13 C5 1.249 . S
Mg14 O15 2.028 . S
Mg14 O21 1.986 . S
Mg14 O23 2.114 . S
Mg14 O24 2.251 . S
Mg14 O27 2.010 . S
O15 Mg14 2.028 . S
O15 C18 1.250 . S
O16 Mg17 2.028 . S
O16 C18 1.248 . S
Mg17 O16 2.028 . S
Mg17 O22 2.032 . S
Mg17 O24 2.079 . S
C18 O15 1.250 . S
C18 O16 1.248 . S
C19 O20 1.264 . S
C19 O27 1.249 . S
O20 C19 1.264 . S
O21 Mg14 1.986 . S
O21 C25 1.246 . S
O22 Mg17 2.032 . S
O22 C25 1.259 . S
O23 Mg14 2.114 . S
O23 C26 1.252 . S
O24 Mg14 2.251 . S
O24 Mg17 2.079 . S
O24 C26 1.273 . S
C25 O21 1.246 . S
C25 O22 1.259 . S
C26 O23 1.252 . S
C26 O24 1.273 . S
O27 Mg14 2.010 . S
O27 C19 1.249 . S
Mg28 O29 2.028 . S
Mg28 O35 1.986 . S
Mg28 O37 2.114 . S
Mg28 O38 2.251 . S
Mg28 O41 2.010 . S
O29 Mg28 2.028 . S
O29 C32 1.250 1_556 S
O30 Mg31 2.028 . S
O30 C32 1.248 . S
Mg31 O30 2.028 . S
Mg31 O36 2.032 . S
Mg31 O38 2.079 1_554 S
C32 O29 1.250 1_554 S
C32 O30 1.248 . S
C33 O34 1.264 . S
C33 O41 1.249 . S
O34 C33 1.264 . S
O35 Mg28 1.986 . S
O35 C39 1.246 . S
O36 Mg31 2.032 . S
O36 C39 1.259 1_554 S
O37 Mg28 2.114 . S
O37 C40 1.252 . S
O38 Mg28 2.251 . S
O38 Mg31 2.079 1_556 S
O38 C40 1.273 . S
C39 O35 1.246 . S
C39 O36 1.259 1_556 S
C40 O37 1.252 . S
C40 O38 1.273 . S
O41 Mg28 2.010 . S
O41 C33 1.249 . S
Mg42 O43 2.028 . S
Mg42 O49 1.986 . S
Mg42 O51 2.114 . S
Mg42 O52 2.251 . S
Mg42 O55 2.010 . S
O43 Mg42 2.028 . S
O43 C46 1.250 . S
O44 Mg45 2.028 . S
O44 C46 1.248 . S
Mg45 O44 2.028 . S
Mg45 O50 2.032 . S
Mg45 O52 2.079 . S
C46 O43 1.250 . S
C46 O44 1.248 . S
C47 O48 1.264 . S
C47 O55 1.249 . S
O48 C47 1.264 . S
O49 Mg42 1.986 . S
O49 C53 1.246 . S
O50 Mg45 2.032 . S
O50 C53 1.259 . S
O51 Mg42 2.114 . S
O51 C54 1.252 . S
O52 Mg42 2.251 . S
O52 Mg45 2.079 . S
O52 C54 1.273 . S
C53 O49 1.246 . S
C53 O50 1.259 . S
C54 O51 1.252 . S
C54 O52 1.273 . S
O55 Mg42 2.010 . S
O55 C47 1.249 . S
Mg56 O57 2.028 . S
Mg56 O63 1.986 . S
Mg56 O65 2.114 . S
Mg56 O66 2.251 . S
Mg56 O69 2.010 . S
O57 Mg56 2.028 . S
O57 C60 1.250 . S
O58 Mg59 2.028 . S
O58 C60 1.248 . S
Mg59 O58 2.028 . S
Mg59 O64 2.032 . S
Mg59 O66 2.079 . S
C60 O57 1.250 . S
C60 O58 1.248 . S
C61 O62 1.264 . S
C61 O69 1.249 . S
O62 C61 1.264 . S
O63 Mg56 1.986 . S
O63 C67 1.246 . S
O64 Mg59 2.032 . S
O64 C67 1.259 . S
O65 Mg56 2.114 . S
O65 C68 1.252 . S
O66 Mg56 2.251 . S
O66 Mg59 2.079 . S
O66 C68 1.273 . S
C67 O63 1.246 . S
C67 O64 1.259 . S
C68 O65 1.252 . S
C68 O66 1.273 . S
O69 Mg56 2.010 . S
O69 C61 1.249 . S
Mg70 O71 2.028 . S
Mg70 O77 1.986 . S
Mg70 O79 2.114 . S
Mg70 O80 2.251 . S
Mg70 O83 2.010 . S
O71 Mg70 2.028 . S
O71 C74 1.250 1_556 S
O72 Mg73 2.028 . S
O72 C74 1.248 . S
Mg73 O72 2.028 . S
Mg73 O78 2.032 . S
Mg73 O80 2.079 1_554 S
C74 O71 1.250 1_554 S
C74 O72 1.248 . S
C75 O76 1.264 . S
C75 O83 1.249 . S
O76 C75 1.264 . S
O77 Mg70 1.986 . S
O77 C81 1.246 . S
O78 Mg73 2.032 . S
O78 C81 1.259 1_554 S
O79 Mg70 2.114 . S
O79 C82 1.252 . S
O80 Mg70 2.251 . S
O80 Mg73 2.079 1_556 S
O80 C82 1.273 . S
C81 O77 1.246 . S
C81 O78 1.259 1_556 S
C82 O79 1.252 . S
C82 O80 1.273 . S
O83 Mg70 2.010 . S
O83 C75 1.249 . S
Mg84 O85 2.028 . S
Mg84 O91 1.986 . S
Mg84 O93 2.114 . S
Mg84 O94 2.251 . S
Mg84 O97 2.010 . S
O85 Mg84 2.028 . S
O85 C88 1.250 . S
O86 Mg87 2.028 . S
O86 C88 1.248 . S
Mg87 O86 2.028 . S
Mg87 O92 2.032 . S
Mg87 O94 2.079 . S
C88 O85 1.250 . S
C88 O86 1.248 . S
C89 O90 1.264 . S
C89 O97 1.249 . S
O90 C89 1.264 . S
O91 Mg84 1.986 . S
O91 C95 1.246 . S
O92 Mg87 2.032 . S
O92 C95 1.259 . S
O93 Mg84 2.114 . S
O93 C96 1.252 . S
O94 Mg84 2.251 . S
O94 Mg87 2.079 . S
O94 C96 1.273 . S
C95 O91 1.246 . S
C95 O92 1.259 . S
C96 O93 1.252 . S
C96 O94 1.273 . S
O97 Mg84 2.010 . S
O97 C89 1.249 . S
Mg98 O99 2.028 . S
Mg98 O105 1.986 . S
Mg98 O107 2.114 . S
Mg98 O108 2.251 . S
Mg98 O111 2.010 . S
O99 Mg98 2.028 . S
O99 C102 1.250 . S
O100 Mg101 2.028 . S
O100 C102 1.248 . S
Mg101 O100 2.028 . S
Mg101 O106 2.032 . S
Mg101 O108 2.079 . S
C102 O99 1.250 . S
C102 O100 1.248 . S
C103 O104 1.264 . S
C103 O111 1.249 . S
O104 C103 1.264 . S
O105 Mg98 1.986 . S
O105 C109 1.246 . S
O106 Mg101 2.032 . S
O106 C109 1.259 . S
O107 Mg98 2.114 . S
O107 C110 1.252 . S
O108 Mg98 2.251 . S
O108 Mg101 2.079 . S
O108 C110 1.273 . S
C109 O105 1.246 . S
C109 O106 1.259 . S
C110 O107 1.252 . S
C110 O108 1.273 . S
O111 Mg98 2.010 . S
O111 C103 1.249 . S
Mg112 O113 2.028 . S
Mg112 O119 1.986 . S
Mg112 O121 2.114 . S
Mg112 O122 2.251 . S
Mg112 O125 2.010 . S
O113 Mg112 2.028 . S
O113 C116 1.250 1_554 S
O114 Mg115 2.028 . S
O114 C116 1.248 . S
Mg115 O114 2.028 . S
Mg115 O120 2.032 . S
Mg115 O122 2.079 1_556 S
C116 O113 1.250 1_556 S
C116 O114 1.248 . S
C117 O118 1.264 . S
C117 O125 1.249 . S
O118 C117 1.264 . S
O119 Mg112 1.986 . S
O119 C123 1.246 . S
O120 Mg115 2.032 . S
O120 C123 1.259 1_556 S
O121 Mg112 2.114 . S
O121 C124 1.252 . S
O122 Mg112 2.251 . S
O122 Mg115 2.079 1_554 S
O122 C124 1.273 . S
C123 O119 1.246 . S
C123 O120 1.259 1_554 S
C124 O121 1.252 . S
C124 O122 1.273 . S
O125 Mg112 2.010 . S
O125 C117 1.249 . S
Mg126 O127 2.028 . S
Mg126 O133 1.986 . S
Mg126 O135 2.114 . S
Mg126 O136 2.251 . S
Mg126 O139 2.010 . S
O127 Mg126 2.028 . S
O127 C130 1.250 . S
O128 Mg129 2.028 . S
O128 C130 1.248 . S
Mg129 O128 2.028 . S
Mg129 O134 2.032 . S
Mg129 O136 2.079 . S
C130 O127 1.250 . S
C130 O128 1.248 . S
C131 O132 1.264 . S
C131 O139 1.249 . S
O132 C131 1.264 . S
O133 Mg126 1.986 . S
O133 C137 1.246 . S
O134 Mg129 2.032 . S
O134 C137 1.259 . S
O135 Mg126 2.114 . S
O135 C138 1.252 . S
O136 Mg126 2.251 . S
O136 Mg129 2.079 . S
O136 C138 1.273 . S
C137 O133 1.246 . S
C137 O134 1.259 . S
C138 O135 1.252 . S
C138 O136 1.273 . S
O139 Mg126 2.010 . S
O139 C131 1.249 . S
Mg140 O141 2.028 . S
Mg140 O147 1.986 . S
Mg140 O149 2.114 . S
Mg140 O150 2.251 . S
Mg140 O153 2.010 . S
O141 Mg140 2.028 . S
O141 C144 1.250 . S
O142 Mg143 2.028 . S
O142 C144 1.248 . S
Mg143 O142 2.028 . S
Mg143 O148 2.032 . S
Mg143 O150 2.079 . S
C144 O141 1.250 . S
C144 O142 1.248 . S
C145 O146 1.264 . S
C145 O153 1.249 . S
O146 C145 1.264 . S
O147 Mg140 1.986 . S
O147 C151 1.246 . S
O148 Mg143 2.032 . S
O148 C151 1.259 . S
O149 Mg140 2.114 . S
O149 C152 1.252 . S
O150 Mg140 2.251 . S
O150 Mg143 2.079 . S
O150 C152 1.273 . S
C151 O147 1.246 . S
C151 O148 1.259 . S
C152 O149 1.252 . S
C152 O150 1.273 . S
O153 Mg140 2.010 . S
O153 C145 1.249 . S
Mg154 O155 2.028 . S
Mg154 O161 1.986 . S
Mg154 O163 2.114 . S
Mg154 O164 2.251 . S
Mg154 O167 2.010 . S
O155 Mg154 2.028 . S
O155 C158 1.250 1_554 S
O156 Mg157 2.028 . S
O156 C158 1.248 . S
Mg157 O156 2.028 . S
Mg157 O162 2.032 . S
Mg157 O164 2.079 1_556 S
C158 O155 1.250 1_556 S
C158 O156 1.248 . S
C159 O160 1.264 . S
C159 O167 1.249 . S
O160 C159 1.264 . S
O161 Mg154 1.986 . S
O161 C165 1.246 . S
O162 Mg157 2.032 . S
O162 C165 1.259 1_556 S
O163 Mg154 2.114 . S
O163 C166 1.252 . S
O164 Mg154 2.251 . S
O164 Mg157 2.079 1_554 S
O164 C166 1.273 . S
C165 O161 1.246 . S
C165 O162 1.259 1_554 S
C166 O163 1.252 . S
C166 O164 1.273 . S
O167 Mg154 2.010 . S
O167 C159 1.249 . S
C168 C169 1.391 . S
C168 C170 1.394 . S
C168 H184 0.931 . S
C169 C168 1.391 . S
C169 C173 1.376 . S
C170 C168 1.394 . S
C170 C171 1.369 . S
C170 C174 1.531 . S
C171 C170 1.369 . S
C171 C172 1.410 . S
C171 C179 1.503 . S
C172 C171 1.410 . S
C172 C173 1.392 . S
C172 C175 1.511 . S
C173 C169 1.376 . S
C173 C172 1.392 . S
C173 H185 0.929 . S
C174 C170 1.531 . S
C174 H186 0.960 . S
C174 H187 0.962 . S
C174 H188 0.960 . S
C175 C172 1.511 . S
C175 H189 0.961 . S
C175 H190 0.961 . S
C175 H191 0.961 . S
C176 C177 1.370 . S
C176 C178 1.363 . S
C176 H192 0.931 . S
C177 C176 1.370 . S
C177 C181 1.408 . S
C178 C176 1.363 . S
C178 C179 1.370 . S
C178 C182 1.524 . S
C179 C171 1.503 . S
C179 C178 1.370 . S
C179 C180 1.403 . S
C180 C179 1.403 . S
C180 C181 1.404 . S
C180 C183 1.539 . S
C181 C177 1.408 . S
C181 C180 1.404 . S
C181 H193 0.930 . S
C182 C178 1.524 . S
C182 H194 0.956 . S
C182 H195 0.961 . S
C182 H196 0.961 . S
C183 C180 1.539 . S
C183 H197 0.958 . S
C183 H198 0.961 . S
C183 H199 0.960 . S
H184 C168 0.931 . S
H185 C173 0.929 . S
H186 C174 0.960 . S
H187 C174 0.962 . S
H188 C174 0.960 . S
H189 C175 0.961 . S
H190 C175 0.961 . S
H191 C175 0.961 . S
H192 C176 0.931 . S
H193 C181 0.930 . S
H194 C182 0.956 . S
H195 C182 0.961 . S
H196 C182 0.961 . S
H197 C183 0.958 . S
H198 C183 0.961 . S
H199 C183 0.960 . S
C200 C201 1.391 . S
C200 C202 1.394 . S
C200 H216 0.931 . S
C201 C200 1.391 . S
C201 C205 1.376 . S
C202 C200 1.394 . S
C202 C203 1.369 . S
C202 C206 1.531 . S
C203 C202 1.369 . S
C203 C204 1.410 . S
C203 C211 1.503 1_655 S
C204 C203 1.410 . S
C204 C205 1.392 . S
C204 C207 1.511 . S
C205 C201 1.376 . S
C205 C204 1.392 . S
C205 H217 0.929 . S
C206 C202 1.531 . S
C206 H218 0.960 . S
C206 H219 0.962 . S
C206 H220 0.960 . S
C207 C204 1.511 . S
C207 H221 0.961 . S
C207 H222 0.961 1_655 S
C207 H223 0.961 . S
C208 C209 1.370 . S
C208 C210 1.363 . S
C208 H224 0.931 . S
C209 C208 1.370 . S
C209 C213 1.408 . S
C210 C208 1.363 . S
C210 C211 1.370 . S
C210 C214 1.524 . S
C211 C203 1.503 1_455 S
C211 C210 1.370 . S
C211 C212 1.403 . S
C212 C211 1.403 . S
C212 C213 1.404 . S
C212 C215 1.539 . S
C213 C209 1.408 . S
C213 C212 1.404 . S
C213 H225 0.930 . S
C214 C210 1.524 . S
C214 H226 0.956 . S
C214 H227 0.961 . S
C214 H228 0.961 . S
C215 C212 1.539 . S
C215 H229 0.958 . S
C215 H230 0.961 . S
C215 H231 0.960 1_455 S
H216 C200 0.931 . S
H217 C205 0.929 . S
H218 C206 0.960 . S
H219 C206 0.962 . S
H220 C206 0.960 . S
H221 C207 0.961 . S
H222 C207 0.961 1_455 S
H223 C207 0.961 . S
H224 C208 0.931 . S
H225 C213 0.930 . S
H226 C214 0.956 . S
H227 C214 0.961 . S
H228 C214 0.961 . S
H229 C215 0.958 . S
H230 C215 0.961 . S
H231 C215 0.960 1_655 S
C232 C233 1.391 1_554 S
C232 C234 1.394 . S
C232 H248 0.931 . S
C233 C232 1.391 1_556 S
C233 C237 1.376 . S
C234 C232 1.394 . S
C234 C235 1.369 . S
C234 C238 1.531 . S
C235 C234 1.369 . S
C235 C236 1.410 1_554 S
C235 C243 1.503 1_565 S
C236 C235 1.410 1_556 S
C236 C237 1.392 . S
C236 C239 1.511 . S
C237 C233 1.376 . S
C237 C236 1.392 . S
C237 H249 0.929 . S
C238 C234 1.531 . S
C238 H250 0.960 . S
C238 H251 0.962 . S
C238 H252 0.960 . S
C239 C236 1.511 . S
C239 H253 0.961 . S
C239 H254 0.961 1_565 S
C239 H255 0.961 . S
C240 C241 1.370 1_556 S
C240 C242 1.363 . S
C240 H256 0.931 . S
C241 C240 1.370 1_554 S
C241 C245 1.408 . S
C242 C240 1.363 . S
C242 C243 1.370 1_556 S
C242 C246 1.524 . S
C243 C235 1.503 1_545 S
C243 C242 1.370 1_554 S
C243 C244 1.403 . S
C244 C243 1.403 . S
C244 C245 1.404 . S
C244 C247 1.539 . S
C245 C241 1.408 . S
C245 C244 1.404 . S
C245 H257 0.930 . S
C246 C242 1.524 . S
C246 H258 0.956 . S
C246 H259 0.961 . S
C246 H260 0.961 . S
C247 C244 1.539 . S
C247 H261 0.958 . S
C247 H262 0.961 . S
C247 H263 0.960 1_545 S
H248 C232 0.931 . S
H249 C237 0.929 . S
H250 C238 0.960 . S
H251 C238 0.962 . S
H252 C238 0.960 . S
H253 C239 0.961 . S
H254 C239 0.961 1_545 S
H255 C239 0.961 . S
H256 C240 0.931 . S
H257 C245 0.930 . S
H258 C246 0.956 . S
H259 C246 0.961 . S
H260 C246 0.961 . S
H261 C247 0.958 . S
H262 C247 0.961 . S
H263 C247 0.960 1_565 S
C264 C265 1.391 . S
C264 C266 1.394 . S
C264 H280 0.931 . S
C265 C264 1.391 . S
C265 C269 1.376 . S
C266 C264 1.394 . S
C266 C267 1.369 . S
C266 C270 1.531 . S
C267 C266 1.369 . S
C267 C268 1.410 . S
C267 C275 1.503 . S
C268 C267 1.410 . S
C268 C269 1.392 . S
C268 C271 1.511 . S
C269 C265 1.376 . S
C269 C268 1.392 . S
C269 H281 0.929 . S
C270 C266 1.531 . S
C270 H282 0.960 . S
C270 H283 0.962 . S
C270 H284 0.960 . S
C271 C268 1.511 . S
C271 H285 0.961 . S
C271 H286 0.961 . S
C271 H287 0.961 . S
C272 C273 1.370 . S
C272 C274 1.363 . S
C272 H288 0.931 . S
C273 C272 1.370 . S
C273 C277 1.408 . S
C274 C272 1.363 . S
C274 C275 1.370 . S
C274 C278 1.524 . S
C275 C267 1.503 . S
C275 C274 1.370 . S
C275 C276 1.403 . S
C276 C275 1.403 . S
C276 C277 1.404 . S
C276 C279 1.539 . S
C277 C273 1.408 . S
C277 C276 1.404 . S
C277 H289 0.930 . S
C278 C274 1.524 . S
C278 H290 0.956 . S
C278 H291 0.961 . S
C278 H292 0.961 . S
C279 C276 1.539 . S
C279 H293 0.958 . S
C279 H294 0.961 . S
C279 H295 0.960 . S
H280 C264 0.931 . S
H281 C269 0.929 . S
H282 C270 0.960 . S
H283 C270 0.962 . S
H284 C270 0.960 . S
H285 C271 0.961 . S
H286 C271 0.961 . S
H287 C271 0.961 . S
H288 C272 0.931 . S
H289 C277 0.930 . S
H290 C278 0.956 . S
H291 C278 0.961 . S
H292 C278 0.961 . S
H293 C279 0.958 . S
H294 C279 0.961 . S
H295 C279 0.960 . S
C296 C297 1.391 . S
C296 C298 1.394 . S
C296 H312 0.931 . S
C297 C296 1.391 . S
C297 C301 1.376 . S
C298 C296 1.394 . S
C298 C299 1.369 . S
C298 C302 1.531 . S
C299 C298 1.369 . S
C299 C300 1.410 . S
C299 C307 1.503 1_655 S
C300 C299 1.410 . S
C300 C301 1.392 . S
C300 C303 1.511 . S
C301 C297 1.376 . S
C301 C300 1.392 . S
C301 H313 0.929 . S
C302 C298 1.531 . S
C302 H314 0.960 . S
C302 H315 0.962 . S
C302 H316 0.960 . S
C303 C300 1.511 . S
C303 H317 0.961 . S
C303 H318 0.961 1_655 S
C303 H319 0.961 . S
C304 C305 1.370 . S
C304 C306 1.363 . S
C304 H320 0.931 . S
C305 C304 1.370 . S
C305 C309 1.408 . S
C306 C304 1.363 . S
C306 C307 1.370 . S
C306 C310 1.524 . S
C307 C299 1.503 1_455 S
C307 C306 1.370 . S
C307 C308 1.403 . S
C308 C307 1.403 . S
C308 C309 1.404 . S
C308 C311 1.539 . S
C309 C305 1.408 . S
C309 C308 1.404 . S
C309 H321 0.930 . S
C310 C306 1.524 . S
C310 H322 0.956 . S
C310 H323 0.961 . S
C310 H324 0.961 . S
C311 C308 1.539 . S
C311 H325 0.958 . S
C311 H326 0.961 . S
C311 H327 0.960 1_455 S
H312 C296 0.931 . S
H313 C301 0.929 . S
H314 C302 0.960 . S
H315 C302 0.962 . S
H316 C302 0.960 . S
H317 C303 0.961 . S
H318 C303 0.961 1_455 S
H319 C303 0.961 . S
H320 C304 0.931 . S
H321 C309 0.930 . S
H322 C310 0.956 . S
H323 C310 0.961 . S
H324 C310 0.961 . S
H325 C311 0.958 . S
H326 C311 0.961 . S
H327 C311 0.960 1_655 S
C328 C329 1.391 1_556 S
C328 C330 1.394 . S
C328 H344 0.931 . S
C329 C328 1.391 1_554 S
C329 C333 1.376 . S
C330 C328 1.394 . S
C330 C331 1.369 1_556 S
C330 C334 1.531 . S
C331 C330 1.369 1_554 S
C331 C332 1.410 . S
C331 C339 1.503 1_565 S
C332 C331 1.410 . S
C332 C333 1.392 . S
C332 C335 1.511 . S
C333 C329 1.376 . S
C333 C332 1.392 . S
C333 H345 0.929 . S
C334 C330 1.531 . S
C334 H346 0.960 . S
C334 H347 0.962 . S
C334 H348 0.960 . S
C335 C332 1.511 . S
C335 H349 0.961 . S
C335 H350 0.961 1_565 S
C335 H351 0.961 . S
C336 C337 1.370 . S
C336 C338 1.363 . S
C336 H352 0.931 . S
C337 C336 1.370 . S
C337 C341 1.408 1_556 S
C338 C336 1.363 . S
C338 C339 1.370 1_556 S
C338 C342 1.524 . S
C339 C331 1.503 1_545 S
C339 C338 1.370 1_554 S
C339 C340 1.403 . S
C340 C339 1.403 . S
C340 C341 1.404 . S
C340 C343 1.539 . S
C341 C337 1.408 1_554 S
C341 C340 1.404 . S
C341 H353 0.930 . S
C342 C338 1.524 . S
C342 H354 0.956 1_545 S
C342 H355 0.961 1_545 S
C342 H356 0.961 . S
C343 C340 1.539 . S
C343 H357 0.958 . S
C343 H358 0.961 . S
C343 H359 0.960 . S
H344 C328 0.931 . S
H345 C333 0.929 . S
H346 C334 0.960 . S
H347 C334 0.962 . S
H348 C334 0.960 . S
H349 C335 0.961 . S
H350 C335 0.961 1_545 S
H351 C335 0.961 . S
H352 C336 0.931 . S
H353 C341 0.930 . S
H354 C342 0.956 1_565 S
H355 C342 0.961 1_565 S
H356 C342 0.961 . S
H357 C343 0.958 . S
H358 C343 0.961 . S
H359 C343 0.960 . S
C360 C361 1.391 . S
C360 C362 1.394 . S
C360 H376 0.931 . S
C361 C360 1.391 . S
C361 C365 1.376 . S
C362 C360 1.394 . S
C362 C363 1.369 . S
C362 C366 1.531 . S
C363 C362 1.369 . S
C363 C364 1.410 . S
C363 C371 1.503 1_556 S
C364 C363 1.410 . S
C364 C365 1.392 . S
C364 C367 1.511 . S
C365 C361 1.376 . S
C365 C364 1.392 . S
C365 H377 0.929 . S
C366 C362 1.531 . S
C366 H378 0.960 1_556 S
C366 H379 0.962 1_556 S
C366 H380 0.960 . S
C367 C364 1.511 . S
C367 H381 0.961 . S
C367 H382 0.961 . S
C367 H383 0.961 . S
C368 C369 1.370 . S
C368 C370 1.363 . S
C368 H384 0.931 . S
C369 C368 1.370 . S
C369 C373 1.408 . S
C370 C368 1.363 . S
C370 C371 1.370 . S
C370 C374 1.524 . S
C371 C363 1.503 1_554 S
C371 C370 1.370 . S
C371 C372 1.403 . S
C372 C371 1.403 . S
C372 C373 1.404 . S
C372 C375 1.539 1_554 S
C373 C369 1.408 . S
C373 C372 1.404 . S
C373 H385 0.930 . S
C374 C370 1.524 . S
C374 H386 0.956 . S
C374 H387 0.961 . S
C374 H388 0.961 . S
C375 C372 1.539 1_556 S
C375 H389 0.958 . S
C375 H390 0.961 . S
C375 H391 0.960 . S
H376 C360 0.931 . S
H377 C365 0.929 . S
H378 C366 0.960 1_554 S
H379 C366 0.962 1_554 S
H380 C366 0.960 . S
H381 C367 0.961 . S
H382 C367 0.961 . S
H383 C367 0.961 . S
H384 C368 0.931 . S
H385 C373 0.930 . S
H386 C374 0.956 . S
H387 C374 0.961 . S
H388 C374 0.961 . S
H389 C375 0.958 . S
H390 C375 0.961 . S
H391 C375 0.960 . S
C392 C393 1.391 . S
C392 C394 1.394 . S
C392 H408 0.931 . S
C393 C392 1.391 . S
C393 C397 1.376 . S
C394 C392 1.394 . S
C394 C395 1.369 . S
C394 C398 1.531 . S
C395 C394 1.369 . S
C395 C396 1.410 . S
C395 C403 1.503 . S
C396 C395 1.410 . S
C396 C397 1.392 . S
C396 C399 1.511 . S
C397 C393 1.376 . S
C397 C396 1.392 . S
C397 H409 0.929 . S
C398 C394 1.531 . S
C398 H410 0.960 . S
C398 H411 0.962 . S
C398 H412 0.960 . S
C399 C396 1.511 . S
C399 H413 0.961 . S
C399 H414 0.961 . S
C399 H415 0.961 . S
C400 C401 1.370 . S
C400 C402 1.363 . S
C400 H416 0.931 . S
C401 C400 1.370 . S
C401 C405 1.408 . S
C402 C400 1.363 . S
C402 C403 1.370 . S
C402 C406 1.524 . S
C403 C395 1.503 . S
C403 C402 1.370 . S
C403 C404 1.403 . S
C404 C403 1.403 . S
C404 C405 1.404 . S
C404 C407 1.539 . S
C405 C401 1.408 . S
C405 C404 1.404 . S
C405 H417 0.930 . S
C406 C402 1.524 . S
C406 H418 0.956 . S
C406 H419 0.961 . S
C406 H420 0.961 . S
C407 C404 1.539 . S
C407 H421 0.958 . S
C407 H422 0.961 . S
C407 H423 0.960 . S
H408 C392 0.931 . S
H409 C397 0.929 . S
H410 C398 0.960 . S
H411 C398 0.962 . S
H412 C398 0.960 . S
H413 C399 0.961 . S
H414 C399 0.961 . S
H415 C399 0.961 . S
H416 C400 0.931 . S
H417 C405 0.930 . S
H418 C406 0.956 . S
H419 C406 0.961 . S
H420 C406 0.961 . S
H421 C407 0.958 . S
H422 C407 0.961 . S
H423 C407 0.960 . S
C424 C425 1.391 . S
C424 C426 1.394 . S
C424 H440 0.931 . S
C425 C424 1.391 . S
C425 C429 1.376 . S
C426 C424 1.394 . S
C426 C427 1.369 . S
C426 C430 1.531 . S
C427 C426 1.369 . S
C427 C428 1.410 . S
C427 C435 1.503 . S
C428 C427 1.410 . S
C428 C429 1.392 . S
C428 C431 1.511 . S
C429 C425 1.376 . S
C429 C428 1.392 . S
C429 H441 0.929 . S
C430 C426 1.531 . S
C430 H442 0.960 . S
C430 H443 0.962 . S
C430 H444 0.960 . S
C431 C428 1.511 . S
C431 H445 0.961 . S
C431 H446 0.961 . S
C431 H447 0.961 . S
C432 C433 1.370 . S
C432 C434 1.363 . S
C432 H448 0.931 . S
C433 C432 1.370 . S
C433 C437 1.408 . S
C434 C432 1.363 . S
C434 C435 1.370 . S
C434 C438 1.524 . S
C435 C427 1.503 . S
C435 C434 1.370 . S
C435 C436 1.403 . S
C436 C435 1.403 . S
C436 C437 1.404 . S
C436 C439 1.539 . S
C437 C433 1.408 . S
C437 C436 1.404 . S
C437 H449 0.930 . S
C438 C434 1.524 . S
C438 H450 0.956 . S
C438 H451 0.961 . S
C438 H452 0.961 . S
C439 C436 1.539 . S
C439 H453 0.958 . S
C439 H454 0.961 . S
C439 H455 0.960 . S
H440 C424 0.931 . S
H441 C429 0.929 . S
H442 C430 0.960 . S
H443 C430 0.962 . S
H444 C430 0.960 . S
H445 C431 0.961 . S
H446 C431 0.961 . S
H447 C431 0.961 . S
H448 C432 0.931 . S
H449 C437 0.930 . S
H450 C438 0.956 . S
H451 C438 0.961 . S
H452 C438 0.961 . S
H453 C439 0.958 . S
H454 C439 0.961 . S
H455 C439 0.960 . S
C456 C457 1.391 . S
C456 C458 1.394 . S
C456 H472 0.931 . S
C457 C456 1.391 . S
C457 C461 1.376 . S
C458 C456 1.394 . S
C458 C459 1.369 . S
C458 C462 1.531 . S
C459 C458 1.369 . S
C459 C460 1.410 . S
C459 C467 1.503 1_554 S
C460 C459 1.410 . S
C460 C461 1.392 . S
C460 C463 1.511 1_554 S
C461 C457 1.376 . S
C461 C460 1.392 . S
C461 H473 0.929 . S
C462 C458 1.531 . S
C462 H474 0.960 . S
C462 H475 0.962 . S
C462 H476 0.960 . S
C463 C460 1.511 1_556 S
C463 H477 0.961 . S
C463 H478 0.961 . S
C463 H479 0.961 . S
C464 C465 1.370 . S
C464 C466 1.363 . S
C464 H480 0.931 . S
C465 C464 1.370 . S
C465 C469 1.408 . S
C466 C464 1.363 . S
C466 C467 1.370 . S
C466 C470 1.524 . S
C467 C459 1.503 1_556 S
C467 C466 1.370 . S
C467 C468 1.403 . S
C468 C467 1.403 . S
C468 C469 1.404 . S
C468 C471 1.539 . S
C469 C465 1.408 . S
C469 C468 1.404 . S
C469 H481 0.930 . S
C470 C466 1.524 . S
C470 H482 0.956 1_556 S
C470 H483 0.961 . S
C470 H484 0.961 . S
C471 C468 1.539 . S
C471 H485 0.958 . S
C471 H486 0.961 . S
C471 H487 0.960 . S
H472 C456 0.931 . S
H473 C461 0.929 . S
H474 C462 0.960 . S
H475 C462 0.962 . S
H476 C462 0.960 . S
H477 C463 0.961 . S
H478 C463 0.961 . S
H479 C463 0.961 . S
H480 C464 0.931 . S
H481 C469 0.930 . S
H482 C470 0.956 1_554 S
H483 C470 0.961 . S
H484 C470 0.961 . S
H485 C471 0.958 . S
H486 C471 0.961 . S
H487 C471 0.960 . S
C488 C489 1.391 . S
C488 C490 1.394 . S
C488 H504 0.931 . S
C489 C488 1.391 . S
C489 C493 1.376 . S
C490 C488 1.394 . S
C490 C491 1.369 . S
C490 C494 1.531 . S
C491 C490 1.369 . S
C491 C492 1.410 . S
C491 C499 1.503 . S
C492 C491 1.410 . S
C492 C493 1.392 . S
C492 C495 1.511 . S
C493 C489 1.376 . S
C493 C492 1.392 . S
C493 H505 0.929 . S
C494 C490 1.531 . S
C494 H506 0.960 . S
C494 H507 0.962 . S
C494 H508 0.960 . S
C495 C492 1.511 . S
C495 H509 0.961 . S
C495 H510 0.961 . S
C495 H511 0.961 . S
C496 C497 1.370 . S
C496 C498 1.363 . S
C496 H512 0.931 . S
C497 C496 1.370 . S
C497 C501 1.408 . S
C498 C496 1.363 . S
C498 C499 1.370 . S
C498 C502 1.524 . S
C499 C491 1.503 . S
C499 C498 1.370 . S
C499 C500 1.403 . S
C500 C499 1.403 . S
C500 C501 1.404 . S
C500 C503 1.539 . S
C501 C497 1.408 . S
C501 C500 1.404 . S
C501 H513 0.930 . S
C502 C498 1.524 . S
C502 H514 0.956 . S
C502 H515 0.961 . S
C502 H516 0.961 . S
C503 C500 1.539 . S
C503 H517 0.958 . S
C503 H518 0.961 . S
C503 H519 0.960 . S
H504 C488 0.931 . S
H505 C493 0.929 . S
H506 C494 0.960 . S
H507 C494 0.962 . S
H508 C494 0.960 . S
H509 C495 0.961 . S
H510 C495 0.961 . S
H511 C495 0.961 . S
H512 C496 0.931 . S
H513 C501 0.930 . S
H514 C502 0.956 . S
H515 C502 0.961 . S
H516 C502 0.961 . S
H517 C503 0.958 . S
H518 C503 0.961 . S
H519 C503 0.960 . S
C520 C521 1.391 . S
C520 C522 1.394 . S
C520 H536 0.931 . S
C521 C520 1.391 . S
C521 C525 1.376 . S
C522 C520 1.394 . S
C522 C523 1.369 . S
C522 C526 1.531 . S
C523 C522 1.369 . S
C523 C524 1.410 . S
C523 C531 1.503 . S
C524 C523 1.410 . S
C524 C525 1.392 . S
C524 C527 1.511 . S
C525 C521 1.376 . S
C525 C524 1.392 . S
C525 H537 0.929 . S
C526 C522 1.531 . S
C526 H538 0.960 . S
C526 H539 0.962 . S
C526 H540 0.960 . S
C527 C524 1.511 . S
C527 H541 0.961 . S
C527 H542 0.961 . S
C527 H543 0.961 . S
C528 C529 1.370 . S
C528 C530 1.363 . S
C528 H544 0.931 . S
C529 C528 1.370 . S
C529 C533 1.408 . S
C530 C528 1.363 . S
C530 C531 1.370 . S
C530 C534 1.524 . S
C531 C523 1.503 . S
C531 C530 1.370 . S
C531 C532 1.403 . S
C532 C531 1.403 . S
C532 C533 1.404 . S
C532 C535 1.539 . S
C533 C529 1.408 . S
C533 C532 1.404 . S
C533 H545 0.930 . S
C534 C530 1.524 . S
C534 H546 0.956 . S
C534 H547 0.961 . S
C534 H548 0.961 . S
C535 C532 1.539 . S
C535 H549 0.958 . S
C535 H550 0.961 . S
C535 H551 0.960 . S
H536 C520 0.931 . S
H537 C525 0.929 . S
H538 C526 0.960 . S
H539 C526 0.962 . S
H540 C526 0.960 . S
H541 C527 0.961 . S
H542 C527 0.961 . S
H543 C527 0.961 . S
H544 C528 0.931 . S
H545 C533 0.930 . S
H546 C534 0.956 . S
H547 C534 0.961 . S
H548 C534 0.961 . S
H549 C535 0.958 . S
H550 C535 0.961 . S
H551 C535 0.960 . S
C552 C553 1.391 . S
C552 C554 1.394 . S
C552 H568 0.931 . S
C553 C552 1.391 . S
C553 C557 1.376 . S
C554 C552 1.394 . S
C554 C555 1.369 . S
C554 C558 1.531 . S
C555 C554 1.369 . S
C555 C556 1.410 . S
C555 C563 1.503 . S
C556 C555 1.410 . S
C556 C557 1.392 . S
C556 C559 1.511 . S
C557 C553 1.376 . S
C557 C556 1.392 . S
C557 H569 0.929 . S
C558 C554 1.531 . S
C558 H570 0.960 . S
C558 H571 0.962 . S
C558 H572 0.960 . S
C559 C556 1.511 . S
C559 H573 0.961 . S
C559 H574 0.961 . S
C559 H575 0.961 . S
C560 C561 1.370 . S
C560 C562 1.363 . S
C560 H576 0.931 . S
C561 C560 1.370 . S
C561 C565 1.408 . S
C562 C560 1.363 . S
C562 C563 1.370 . S
C562 C566 1.524 . S
C563 C555 1.503 . S
C563 C562 1.370 . S
C563 C564 1.403 . S
C564 C563 1.403 . S
C564 C565 1.404 . S
C564 C567 1.539 . S
C565 C561 1.408 . S
C565 C564 1.404 . S
C565 H577 0.930 . S
C566 C562 1.524 . S
C566 H578 0.956 . S
C566 H579 0.961 . S
C566 H580 0.961 . S
C567 C564 1.539 . S
C567 H581 0.958 . S
C567 H582 0.961 . S
C567 H583 0.960 . S
H568 C552 0.931 . S
H569 C557 0.929 . S
H570 C558 0.960 . S
H571 C558 0.962 . S
H572 C558 0.960 . S
H573 C559 0.961 . S
H574 C559 0.961 . S
H575 C559 0.961 . S
H576 C560 0.931 . S
H577 C565 0.930 . S
H578 C566 0.956 . S
H579 C566 0.961 . S
H580 C566 0.961 . S
H581 C567 0.958 . S
H582 C567 0.961 . S
H583 C567 0.960 . S
C584 C585 1.391 . S
C584 C586 1.394 . S
C584 H600 0.931 . S
C585 C584 1.391 . S
C585 C589 1.376 . S
C586 C584 1.394 . S
C586 C587 1.369 . S
C586 C590 1.531 . S
C587 C586 1.369 . S
C587 C588 1.410 . S
C587 C595 1.503 . S
C588 C587 1.410 . S
C588 C589 1.392 . S
C588 C591 1.511 . S
C589 C585 1.376 . S
C589 C588 1.392 . S
C589 H601 0.929 . S
C590 C586 1.531 . S
C590 H602 0.960 . S
C590 H603 0.962 . S
C590 H604 0.960 . S
C591 C588 1.511 . S
C591 H605 0.961 . S
C591 H606 0.961 . S
C591 H607 0.961 . S
C592 C593 1.370 . S
C592 C594 1.363 . S
C592 H608 0.931 . S
C593 C592 1.370 . S
C593 C597 1.408 . S
C594 C592 1.363 . S
C594 C595 1.370 . S
C594 C598 1.524 . S
C595 C587 1.503 . S
C595 C594 1.370 . S
C595 C596 1.403 . S
C596 C595 1.403 . S
C596 C597 1.404 . S
C596 C599 1.539 . S
C597 C593 1.408 . S
C597 C596 1.404 . S
C597 H609 0.930 . S
C598 C594 1.524 . S
C598 H610 0.956 . S
C598 H611 0.961 . S
C598 H612 0.961 . S
C599 C596 1.539 . S
C599 H613 0.958 . S
C599 H614 0.961 . S
C599 H615 0.960 . S
H600 C584 0.931 . S
H601 C589 0.929 . S
H602 C590 0.960 . S
H603 C590 0.962 . S
H604 C590 0.960 . S
H605 C591 0.961 . S
H606 C591 0.961 . S
H607 C591 0.961 . S
H608 C592 0.931 . S
H609 C597 0.930 . S
H610 C598 0.956 . S
H611 C598 0.961 . S
H612 C598 0.961 . S
H613 C599 0.958 . S
H614 C599 0.961 . S
H615 C599 0.960 . S
C616 C617 1.391 . S
C616 C618 1.394 . S
C616 H632 0.931 . S
C617 C616 1.391 . S
C617 C621 1.376 . S
C618 C616 1.394 . S
C618 C619 1.369 . S
C618 C622 1.531 . S
C619 C618 1.369 . S
C619 C620 1.410 . S
C619 C627 1.503 . S
C620 C619 1.410 . S
C620 C621 1.392 . S
C620 C623 1.511 . S
C621 C617 1.376 . S
C621 C620 1.392 . S
C621 H633 0.929 . S
C622 C618 1.531 . S
C622 H634 0.960 . S
C622 H635 0.962 . S
C622 H636 0.960 . S
C623 C620 1.511 . S
C623 H637 0.961 . S
C623 H638 0.961 . S
C623 H639 0.961 . S
C624 C625 1.370 . S
C624 C626 1.363 . S
C624 H640 0.931 . S
C625 C624 1.370 . S
C625 C629 1.408 . S
C626 C624 1.363 . S
C626 C627 1.370 . S
C626 C630 1.524 . S
C627 C619 1.503 . S
C627 C626 1.370 . S
C627 C628 1.403 . S
C628 C627 1.403 . S
C628 C629 1.404 . S
C628 C631 1.539 . S
C629 C625 1.408 . S
C629 C628 1.404 . S
C629 H641 0.930 . S
C630 C626 1.524 . S
C630 H642 0.956 . S
C630 H643 0.961 . S
C630 H644 0.961 . S
C631 C628 1.539 . S
C631 H645 0.958 . S
C631 H646 0.961 . S
C631 H647 0.960 . S
H632 C616 0.931 . S
H633 C621 0.929 . S
H634 C622 0.960 . S
H635 C622 0.962 . S
H636 C622 0.960 . S
H637 C623 0.961 . S
H638 C623 0.961 . S
H639 C623 0.961 . S
H640 C624 0.931 . S
H641 C629 0.930 . S
H642 C630 0.956 . S
H643 C630 0.961 . S
H644 C630 0.961 . S
H645 C631 0.958 . S
H646 C631 0.961 . S
H647 C631 0.960 . S
C648 C649 1.391 . S
C648 C650 1.394 . S
C648 H664 0.931 . S
C649 C648 1.391 . S
C649 C653 1.376 . S
C650 C648 1.394 . S
C650 C651 1.369 . S
C650 C654 1.531 . S
C651 C650 1.369 . S
C651 C652 1.410 . S
C651 C659 1.503 . S
C652 C651 1.410 . S
C652 C653 1.392 . S
C652 C655 1.511 . S
C653 C649 1.376 . S
C653 C652 1.392 . S
C653 H665 0.929 . S
C654 C650 1.531 . S
C654 H666 0.960 . S
C654 H667 0.962 . S
C654 H668 0.960 . S
C655 C652 1.511 . S
C655 H669 0.961 . S
C655 H670 0.961 . S
C655 H671 0.961 . S
C656 C657 1.370 . S
C656 C658 1.363 . S
C656 H672 0.931 . S
C657 C656 1.370 . S
C657 C661 1.408 . S
C658 C656 1.363 . S
C658 C659 1.370 . S
C658 C662 1.524 . S
C659 C651 1.503 . S
C659 C658 1.370 . S
C659 C660 1.403 . S
C660 C659 1.403 . S
C660 C661 1.404 . S
C660 C663 1.539 . S
C661 C657 1.408 . S
C661 C660 1.404 . S
C661 H673 0.930 . S
C662 C658 1.524 . S
C662 H674 0.956 . S
C662 H675 0.961 . S
C662 H676 0.961 . S
C663 C660 1.539 . S
C663 H677 0.958 . S
C663 H678 0.961 . S
C663 H679 0.960 . S
H664 C648 0.931 . S
H665 C653 0.929 . S
H666 C654 0.960 . S
H667 C654 0.962 . S
H668 C654 0.960 . S
H669 C655 0.961 . S
H670 C655 0.961 . S
H671 C655 0.961 . S
H672 C656 0.931 . S
H673 C661 0.930 . S
H674 C662 0.956 . S
H675 C662 0.961 . S
H676 C662 0.961 . S
H677 C663 0.958 . S
H678 C663 0.961 . S
H679 C663 0.960 . S
C680 C681 1.391 . S
C680 C682 1.394 . S
C680 H696 0.931 . S
C681 C680 1.391 . S
C681 C685 1.376 . S
C682 C680 1.394 . S
C682 C683 1.369 . S
C682 C686 1.531 . S
C683 C682 1.369 . S
C683 C684 1.410 . S
C683 C691 1.503 . S
C684 C683 1.410 . S
C684 C685 1.392 . S
C684 C687 1.511 . S
C685 C681 1.376 . S
C685 C684 1.392 . S
C685 H697 0.929 . S
C686 C682 1.531 . S
C686 H698 0.960 . S
C686 H699 0.962 . S
C686 H700 0.960 . S
C687 C684 1.511 . S
C687 H701 0.961 . S
C687 H702 0.961 . S
C687 H703 0.961 . S
C688 C689 1.370 . S
C688 C690 1.363 . S
C688 H704 0.931 . S
C689 C688 1.370 . S
C689 C693 1.408 . S
C690 C688 1.363 . S
C690 C691 1.370 . S
C690 C694 1.524 . S
C691 C683 1.503 . S
C691 C690 1.370 . S
C691 C692 1.403 . S
C692 C691 1.403 . S
C692 C693 1.404 . S
C692 C695 1.539 . S
C693 C689 1.408 . S
C693 C692 1.404 . S
C693 H705 0.930 . S
C694 C690 1.524 . S
C694 H706 0.956 . S
C694 H707 0.961 . S
C694 H708 0.961 . S
C695 C692 1.539 . S
C695 H709 0.958 . S
C695 H710 0.961 . S
C695 H711 0.960 . S
H696 C680 0.931 . S
H697 C685 0.929 . S
H698 C686 0.960 . S
H699 C686 0.962 . S
H700 C686 0.960 . S
H701 C687 0.961 . S
H702 C687 0.961 . S
H703 C687 0.961 . S
H704 C688 0.931 . S
H705 C693 0.930 . S
H706 C694 0.956 . S
H707 C694 0.961 . S
H708 C694 0.961 . S
H709 C695 0.958 . S
H710 C695 0.961 . S
H711 C695 0.960 . S
C712 C713 1.391 . S
C712 C714 1.394 . S
C712 H728 0.931 . S
C713 C712 1.391 . S
C713 C717 1.376 . S
C714 C712 1.394 . S
C714 C715 1.369 . S
C714 C718 1.531 . S
C715 C714 1.369 . S
C715 C716 1.410 . S
C715 C723 1.503 . S
C716 C715 1.410 . S
C716 C717 1.392 . S
C716 C719 1.511 . S
C717 C713 1.376 . S
C717 C716 1.392 . S
C717 H729 0.929 . S
C718 C714 1.531 . S
C718 H730 0.960 . S
C718 H731 0.962 . S
C718 H732 0.960 . S
C719 C716 1.511 . S
C719 H733 0.961 . S
C719 H734 0.961 . S
C719 H735 0.961 . S
C720 C721 1.370 . S
C720 C722 1.363 . S
C720 H736 0.931 . S
C721 C720 1.370 . S
C721 C725 1.408 . S
C722 C720 1.363 . S
C722 C723 1.370 . S
C722 C726 1.524 . S
C723 C715 1.503 . S
C723 C722 1.370 . S
C723 C724 1.403 . S
C724 C723 1.403 . S
C724 C725 1.404 . S
C724 C727 1.539 . S
C725 C721 1.408 . S
C725 C724 1.404 . S
C725 H737 0.930 . S
C726 C722 1.524 . S
C726 H738 0.956 . S
C726 H739 0.961 . S
C726 H740 0.961 . S
C727 C724 1.539 . S
C727 H741 0.958 . S
C727 H742 0.961 . S
C727 H743 0.960 . S
H728 C712 0.931 . S
H729 C717 0.929 . S
H730 C718 0.960 . S
H731 C718 0.962 . S
H732 C718 0.960 . S
H733 C719 0.961 . S
H734 C719 0.961 . S
H735 C719 0.961 . S
H736 C720 0.931 . S
H737 C725 0.930 . S
H738 C726 0.956 . S
H739 C726 0.961 . S
H740 C726 0.961 . S
H741 C727 0.958 . S
H742 C727 0.961 . S
H743 C727 0.960 . S
C744 C745 1.391 . S
C744 C746 1.394 . S
C744 H760 0.931 . S
C745 C744 1.391 . S
C745 C749 1.376 . S
C746 C744 1.394 . S
C746 C747 1.369 . S
C746 C750 1.531 . S
C747 C746 1.369 . S
C747 C748 1.410 . S
C747 C755 1.503 . S
C748 C747 1.410 . S
C748 C749 1.392 . S
C748 C751 1.511 . S
C749 C745 1.376 . S
C749 C748 1.392 . S
C749 H761 0.929 . S
C750 C746 1.531 . S
C750 H762 0.960 . S
C750 H763 0.962 . S
C750 H764 0.960 . S
C751 C748 1.511 . S
C751 H765 0.961 . S
C751 H766 0.961 . S
C751 H767 0.961 . S
C752 C753 1.370 . S
C752 C754 1.363 . S
C752 H768 0.931 . S
C753 C752 1.370 . S
C753 C757 1.408 . S
C754 C752 1.363 . S
C754 C755 1.370 . S
C754 C758 1.524 . S
C755 C747 1.503 . S
C755 C754 1.370 . S
C755 C756 1.403 . S
C756 C755 1.403 . S
C756 C757 1.404 . S
C756 C759 1.539 . S
C757 C753 1.408 . S
C757 C756 1.404 . S
C757 H769 0.930 . S
C758 C754 1.524 . S
C758 H770 0.956 . S
C758 H771 0.961 . S
C758 H772 0.961 . S
C759 C756 1.539 . S
C759 H773 0.958 . S
C759 H774 0.961 . S
C759 H775 0.960 . S
H760 C744 0.931 . S
H761 C749 0.929 . S
H762 C750 0.960 . S
H763 C750 0.962 . S
H764 C750 0.960 . S
H765 C751 0.961 . S
H766 C751 0.961 . S
H767 C751 0.961 . S
H768 C752 0.931 . S
H769 C757 0.930 . S
H770 C758 0.956 . S
H771 C758 0.961 . S
H772 C758 0.961 . S
H773 C759 0.958 . S
H774 C759 0.961 . S
H775 C759 0.960 . S
C776 C777 1.391 . S
C776 C778 1.394 . S
C776 H792 0.931 . S
C777 C776 1.391 . S
C777 C781 1.376 . S
C778 C776 1.394 . S
C778 C779 1.369 . S
C778 C782 1.531 . S
C779 C778 1.369 . S
C779 C780 1.410 . S
C779 C787 1.503 . S
C780 C779 1.410 . S
C780 C781 1.392 . S
C780 C783 1.511 . S
C781 C777 1.376 . S
C781 C780 1.392 . S
C781 H793 0.929 . S
C782 C778 1.531 . S
C782 H794 0.960 . S
C782 H795 0.962 . S
C782 H796 0.960 . S
C783 C780 1.511 . S
C783 H797 0.961 . S
C783 H798 0.961 . S
C783 H799 0.961 . S
C784 C785 1.370 . S
C784 C786 1.363 . S
C784 H800 0.931 . S
C785 C784 1.370 . S
C785 C789 1.408 . S
C786 C784 1.363 . S
C786 C787 1.370 . S
C786 C790 1.524 . S
C787 C779 1.503 . S
C787 C786 1.370 . S
C787 C788 1.403 . S
C788 C787 1.403 . S
C788 C789 1.404 . S
C788 C791 1.539 . S
C789 C785 1.408 . S
C789 C788 1.404 . S
C789 H801 0.930 . S
C790 C786 1.524 . S
C790 H802 0.956 . S
C790 H803 0.961 . S
C790 H804 0.961 . S
C791 C788 1.539 . S
C791 H805 0.958 . S
C791 H806 0.961 . S
C791 H807 0.960 . S
H792 C776 0.931 . S
H793 C781 0.929 . S
H794 C782 0.960 . S
H795 C782 0.962 . S
H796 C782 0.960 . S
H797 C783 0.961 . S
H798 C783 0.961 . S
H799 C783 0.961 . S
H800 C784 0.931 . S
H801 C789 0.930 . S
H802 C790 0.956 . S
H803 C790 0.961 . S
H804 C790 0.961 . S
H805 C791 0.958 . S
H806 C791 0.961 . S
H807 C791 0.960 . S
C808 C809 1.391 . S
C808 C810 1.394 . S
C808 H824 0.931 . S
C809 C808 1.391 . S
C809 C813 1.376 1_556 S
C810 C808 1.394 . S
C810 C811 1.369 . S
C810 C814 1.531 . S
C811 C810 1.369 . S
C811 C812 1.410 1_556 S
C811 C819 1.503 . S
C812 C811 1.410 1_554 S
C812 C813 1.392 . S
C812 C815 1.511 . S
C813 C809 1.376 1_554 S
C813 C812 1.392 . S
C813 H825 0.929 . S
C814 C810 1.531 . S
C814 H826 0.960 . S
C814 H827 0.962 . S
C814 H828 0.960 . S
C815 C812 1.511 . S
C815 H829 0.961 . S
C815 H830 0.961 . S
C815 H831 0.961 . S
C816 C817 1.370 . S
C816 C818 1.363 . S
C816 H832 0.931 . S
C817 C816 1.370 . S
C817 C821 1.408 1_554 S
C818 C816 1.363 . S
C818 C819 1.370 1_554 S
C818 C822 1.524 . S
C819 C811 1.503 . S
C819 C818 1.370 1_556 S
C819 C820 1.403 . S
C820 C819 1.403 . S
C820 C821 1.404 . S
C820 C823 1.539 . S
C821 C817 1.408 1_556 S
C821 C820 1.404 . S
C821 H833 0.930 . S
C822 C818 1.524 . S
C822 H834 0.956 . S
C822 H835 0.961 . S
C822 H836 0.961 . S
C823 C820 1.539 . S
C823 H837 0.958 . S
C823 H838 0.961 . S
C823 H839 0.960 . S
H824 C808 0.931 . S
H825 C813 0.929 . S
H826 C814 0.960 . S
H827 C814 0.962 . S
H828 C814 0.960 . S
H829 C815 0.961 . S
H830 C815 0.961 . S
H831 C815 0.961 . S
H832 C816 0.931 . S
H833 C821 0.930 . S
H834 C822 0.956 . S
H835 C822 0.961 . S
H836 C822 0.961 . S
H837 C823 0.958 . S
H838 C823 0.961 . S
H839 C823 0.960 . S
C840 C841 1.391 . S
C840 C842 1.394 . S
C840 H856 0.931 . S
C841 C840 1.391 . S
C841 C845 1.376 . S
C842 C840 1.394 . S
C842 C843 1.369 . S
C842 C846 1.531 . S
C843 C842 1.369 . S
C843 C844 1.410 . S
C843 C851 1.503 . S
C844 C843 1.410 . S
C844 C845 1.392 . S
C844 C847 1.511 . S
C845 C841 1.376 . S
C845 C844 1.392 . S
C845 H857 0.929 . S
C846 C842 1.531 . S
C846 H858 0.960 . S
C846 H859 0.962 . S
C846 H860 0.960 . S
C847 C844 1.511 . S
C847 H861 0.961 . S
C847 H862 0.961 . S
C847 H863 0.961 . S
C848 C849 1.370 . S
C848 C850 1.363 . S
C848 H864 0.931 . S
C849 C848 1.370 . S
C849 C853 1.408 . S
C850 C848 1.363 . S
C850 C851 1.370 . S
C850 C854 1.524 . S
C851 C843 1.503 . S
C851 C850 1.370 . S
C851 C852 1.403 . S
C852 C851 1.403 . S
C852 C853 1.404 . S
C852 C855 1.539 . S
C853 C849 1.408 . S
C853 C852 1.404 . S
C853 H865 0.930 . S
C854 C850 1.524 . S
C854 H866 0.956 . S
C854 H867 0.961 . S
C854 H868 0.961 . S
C855 C852 1.539 . S
C855 H869 0.958 . S
C855 H870 0.961 . S
C855 H871 0.960 . S
H856 C840 0.931 . S
H857 C845 0.929 . S
H858 C846 0.960 . S
H859 C846 0.962 . S
H860 C846 0.960 . S
H861 C847 0.961 . S
H862 C847 0.961 . S
H863 C847 0.961 . S
H864 C848 0.931 . S
H865 C853 0.930 . S
H866 C854 0.956 . S
H867 C854 0.961 . S
H868 C854 0.961 . S
H869 C855 0.958 . S
H870 C855 0.961 . S
H871 C855 0.960 . S
C872 C873 1.391 . S
C872 C874 1.394 . S
C872 H888 0.931 . S
C873 C872 1.391 . S
C873 C877 1.376 . S
C874 C872 1.394 . S
C874 C875 1.369 . S
C874 C878 1.531 . S
C875 C874 1.369 . S
C875 C876 1.410 . S
C875 C883 1.503 . S
C876 C875 1.410 . S
C876 C877 1.392 . S
C876 C879 1.511 . S
C877 C873 1.376 . S
C877 C876 1.392 . S
C877 H889 0.929 . S
C878 C874 1.531 . S
C878 H890 0.960 . S
C878 H891 0.962 . S
C878 H892 0.960 . S
C879 C876 1.511 . S
C879 H893 0.961 . S
C879 H894 0.961 . S
C879 H895 0.961 . S
C880 C881 1.370 . S
C880 C882 1.363 . S
C880 H896 0.931 . S
C881 C880 1.370 . S
C881 C885 1.408 . S
C882 C880 1.363 . S
C882 C883 1.370 . S
C882 C886 1.524 . S
C883 C875 1.503 . S
C883 C882 1.370 . S
C883 C884 1.403 . S
C884 C883 1.403 . S
C884 C885 1.404 . S
C884 C887 1.539 . S
C885 C881 1.408 . S
C885 C884 1.404 . S
C885 H897 0.930 . S
C886 C882 1.524 . S
C886 H898 0.956 . S
C886 H899 0.961 . S
C886 H900 0.961 . S
C887 C884 1.539 . S
C887 H901 0.958 . S
C887 H902 0.961 . S
C887 H903 0.960 . S
H888 C872 0.931 . S
H889 C877 0.929 . S
H890 C878 0.960 . S
H891 C878 0.962 . S
H892 C878 0.960 . S
H893 C879 0.961 . S
H894 C879 0.961 . S
H895 C879 0.961 . S
H896 C880 0.931 . S
H897 C885 0.930 . S
H898 C886 0.956 . S
H899 C886 0.961 . S
H900 C886 0.961 . S
H901 C887 0.958 . S
H902 C887 0.961 . S
H903 C887 0.960 . S
C904 C905 1.391 1_556 S
C904 C906 1.394 . S
C904 H920 0.931 . S
C905 C904 1.391 1_554 S
C905 C909 1.376 . S
C906 C904 1.394 . S
C906 C907 1.369 . S
C906 C910 1.531 . S
C907 C906 1.369 . S
C907 C908 1.410 1_556 S
C907 C915 1.503 . S
C908 C907 1.410 1_554 S
C908 C909 1.392 . S
C908 C911 1.511 . S
C909 C905 1.376 . S
C909 C908 1.392 . S
C909 H921 0.929 . S
C910 C906 1.531 . S
C910 H922 0.960 . S
C910 H923 0.962 . S
C910 H924 0.960 . S
C911 C908 1.511 . S
C911 H925 0.961 . S
C911 H926 0.961 . S
C911 H927 0.961 . S
C912 C913 1.370 1_554 S
C912 C914 1.363 . S
C912 H928 0.931 . S
C913 C912 1.370 1_556 S
C913 C917 1.408 . S
C914 C912 1.363 . S
C914 C915 1.370 1_554 S
C914 C918 1.524 . S
C915 C907 1.503 . S
C915 C914 1.370 1_556 S
C915 C916 1.403 . S
C916 C915 1.403 . S
C916 C917 1.404 . S
C916 C919 1.539 . S
C917 C913 1.408 . S
C917 C916 1.404 . S
C917 H929 0.930 . S
C918 C914 1.524 . S
C918 H930 0.956 . S
C918 H931 0.961 . S
C918 H932 0.961 . S
C919 C916 1.539 . S
C919 H933 0.958 . S
C919 H934 0.961 . S
C919 H935 0.960 . S
H920 C904 0.931 . S
H921 C909 0.929 . S
H922 C910 0.960 . S
H923 C910 0.962 . S
H924 C910 0.960 . S
H925 C911 0.961 . S
H926 C911 0.961 . S
H927 C911 0.961 . S
H928 C912 0.931 . S
H929 C917 0.930 . S
H930 C918 0.956 . S
H931 C918 0.961 . S
H932 C918 0.961 . S
H933 C919 0.958 . S
H934 C919 0.961 . S
H935 C919 0.960 . S
C169 C11 1.298 . S
C177 C137 1.341 . S
C201 C25 1.343 . S
C209 C151 1.346 . S
C233 C39 1.335 . S
C241 C165 1.347 . S
C265 C53 1.352 . S
C273 C95 1.321 . S
C297 C109 1.327 . S
C305 C67 1.348 . S
C329 C123 1.365 . S
C337 C81 1.330 . S
C361 C145 1.356 . S
C369 C5 1.277 . S
C393 C19 1.275 . S
C401 C159 1.315 . S
C425 C33 1.301 . S
C433 C89 1.288 . S
C457 C47 1.266 . S
C465 C103 1.303 . S
C489 C61 1.243 . S
C497 C117 1.315 . S
C521 C75 1.327 . S
C529 C131 1.279 . S
C553 C144 0.983 . S
C561 C4 0.978 . S
C585 C18 1.021 . S
C593 C158 0.993 . S
C617 C32 1.026 . S
C625 C88 0.972 . S
C649 C46 1.008 . S
C657 C102 0.972 . S
C681 C60 1.015 . S
C689 C116 0.996 . S
C713 C74 0.943 . S
C721 C130 1.001 . S
C745 C12 1.563 . S
C753 C96 1.565 . S
C777 C110 1.556 . S
C785 C26 1.562 . S
C809 C40 1.564 . S
C817 C124 1.566 . S
C841 C54 1.559 . S
C849 C138 1.563 . S
C873 C68 1.555 . S
C881 C152 1.562 . S
C905 C166 1.556 . S
C913 C82 1.562 . S
