# Generated by pormake.
# Topology und, (4)-cn, num edge types: 1
# Building blocks:
#     Node 0, Type 0, BuildingBlock: UXUYUI_clean_sbu_0, # of connection points: 4
#     Node 1, Type 0, BuildingBlock: UXUYUI_clean_sbu_0, # of connection points: 4
#     Node 2, Type 0, BuildingBlock: UXUYUI_clean_sbu_0, # of connection points: 4
#     Node 3, Type 0, BuildingBlock: UXUYUI_clean_sbu_0, # of connection points: 4
#     Node 4, Type 0, BuildingBlock: UXUYUI_clean_sbu_0, # of connection points: 4
#     Node 5, Type 0, BuildingBlock: UXUYUI_clean_sbu_0, # of connection points: 4
#     Node 6, Type 0, BuildingBlock: UXUYUI_clean_sbu_0, # of connection points: 4
#     Node 7, Type 0, BuildingBlock: UXUYUI_clean_sbu_0, # of connection points: 4
#     Node 8, Type 0, BuildingBlock: UXUYUI_clean_sbu_0, # of connection points: 4
#     Node 9, Type 0, BuildingBlock: UXUYUI_clean_sbu_0, # of connection points: 4
#     Node 10, Type 0, BuildingBlock: UXUYUI_clean_sbu_0, # of connection points: 4
#     Node 11, Type 0, BuildingBlock: UXUYUI_clean_sbu_0, # of connection points: 4
#     Node 12, Type 0, BuildingBlock: UXUYUI_clean_sbu_0, # of connection points: 4
#     Node 13, Type 0, BuildingBlock: UXUYUI_clean_sbu_0, # of connection points: 4
#     Node 14, Type 0, BuildingBlock: UXUYUI_clean_sbu_0, # of connection points: 4
#     Node 15, Type 0, BuildingBlock: UXUYUI_clean_sbu_0, # of connection points: 4
#     Edge 16, Type (0, 0), None
#     Edge 17, Type (0, 0), None
#     Edge 18, Type (0, 0), None
#     Edge 19, Type (0, 0), None
#     Edge 20, Type (0, 0), None
#     Edge 21, Type (0, 0), None
#     Edge 22, Type (0, 0), None
#     Edge 23, Type (0, 0), None
#     Edge 24, Type (0, 0), None
#     Edge 25, Type (0, 0), None
#     Edge 26, Type (0, 0), None
#     Edge 27, Type (0, 0), None
#     Edge 28, Type (0, 0), None
#     Edge 29, Type (0, 0), None
#     Edge 30, Type (0, 0), None
#     Edge 31, Type (0, 0), None
#     Edge 32, Type (0, 0), None
#     Edge 33, Type (0, 0), None
#     Edge 34, Type (0, 0), None
#     Edge 35, Type (0, 0), None
#     Edge 36, Type (0, 0), None
#     Edge 37, Type (0, 0), None
#     Edge 38, Type (0, 0), None
#     Edge 39, Type (0, 0), None
#     Edge 40, Type (0, 0), None
#     Edge 41, Type (0, 0), None
#     Edge 42, Type (0, 0), None
#     Edge 43, Type (0, 0), None
#     Edge 44, Type (0, 0), None
#     Edge 45, Type (0, 0), None
#     Edge 46, Type (0, 0), None
#     Edge 47, Type (0, 0), None
# Relax obj value: 0.184
# Max RMSD: 0.213
# Mean RMSD: 0.213
data_MOF--net-und--node1-UXUYUI_clean_sbu_0--edge1-none
_symmetry_space_group_name_H-M    P1
_symmetry_Int_Tables_number       1
_symmetry_cell_setting            triclinic
loop_
_symmetry_equiv_pos_as_xyz
'x, y, z'
_cell_length_a     54.350034
_cell_length_b     54.35087
_cell_length_c     20.551889
_cell_angle_alpha  89.999643
_cell_angle_beta   90.007361
_cell_angle_gamma 90.000155
loop_
_atom_site_label
_atom_site_type_symbol
_atom_site_fract_x
_atom_site_fract_y
_atom_site_fract_z
_atom_type_partial_charge
Li0 Li 0.22893 0.35113 0.01666 0.0
Li1 Li 0.27282 0.35112 0.9856 0.0
Li2 Li 0.24533 0.31866 0.94357 0.0
Li3 Li 0.25641 0.31865 0.05867 0.0
C4 C 0.22558 0.36098 0.88345 0.0
N5 N 0.18928 0.37317 0.79505 0.0
C6 C 0.2286 0.38125 0.8424 0.0
C7 C 0.20415 0.34686 0.87941 0.0
C8 C 0.21002 0.38713 0.79806 0.0
C9 C 0.186 0.35333 0.83444 0.0
C10 C 0.27619 0.36095 0.1188 0.0
C11 C 0.31579 0.35329 0.16766 0.0
N12 N 0.3125 0.37309 0.20722 0.0
C13 C 0.27315 0.38116 0.16002 0.0
C14 C 0.29764 0.34685 0.12267 0.0
C15 C 0.29173 0.38702 0.20436 0.0
C16 C 0.19347 0.36467 0.10596 0.0
N17 N 0.20225 0.37096 0.04629 0.0
C18 C 0.17694 0.40695 0.04491 0.0
C19 C 0.19427 0.39155 0.01519 0.0
C20 C 0.16806 0.40126 0.10751 0.0
C21 C 0.17634 0.37961 0.13762 0.0
H22 H 0.20042 0.34837 0.12987 0.0
H23 H 0.20193 0.39649 0.96846 0.0
C24 C 0.30847 0.36454 0.89664 0.0
N25 N 0.29951 0.37095 0.95603 0.0
C26 C 0.32561 0.37948 0.86501 0.0
C27 C 0.32463 0.40706 0.9572 0.0
C28 C 0.3073 0.39165 0.98689 0.0
C29 C 0.33369 0.40126 0.89486 0.0
H30 H 0.30167 0.34814 0.87291 0.0
H31 H 0.29949 0.39668 0.03339 0.0
C32 C 0.20714 0.29645 0.02288 0.0
N33 N 0.17391 0.25807 0.02996 0.0
C34 C 0.21543 0.27241 0.03314 0.0
C35 C 0.18194 0.301 0.01686 0.0
C36 C 0.19835 0.25326 0.03645 0.0
C37 C 0.16543 0.28134 0.02035 0.0
C38 C 0.29451 0.29636 0.97933 0.0
C39 C 0.2861 0.27236 0.96923 0.0
C40 C 0.31974 0.3008 0.98517 0.0
C41 C 0.3031 0.25312 0.96589 0.0
C42 C 0.33615 0.28107 0.98165 0.0
N43 N 0.32756 0.25783 0.97219 0.0
C44 C 0.26297 0.29806 0.83152 0.0
C45 C 0.22473 0.28036 0.8611 0.0
C46 C 0.26634 0.2805 0.78291 0.0
N47 N 0.24275 0.29736 0.87033 0.0
C48 C 0.22729 0.26247 0.81259 0.0
C49 C 0.24861 0.26205 0.77362 0.0
H50 H 0.27713 0.31159 0.8406 0.0
H51 H 0.20879 0.28015 0.89246 0.0
C52 C 0.23875 0.29803 0.17068 0.0
N53 N 0.25898 0.29735 0.13191 0.0
C54 C 0.23538 0.28047 0.21929 0.0
C55 C 0.27446 0.26247 0.18969 0.0
C56 C 0.27701 0.28037 0.14118 0.0
C57 C 0.25312 0.26204 0.22862 0.0
H58 H 0.22457 0.31155 0.16157 0.0
H59 H 0.29296 0.28018 0.10986 0.0
O60 O 0.24357 0.35515 0.92731 0.0
O61 O 0.25818 0.35514 0.07494 0.0
O62 O 0.22347 0.31557 0.01997 0.0
O63 O 0.27827 0.31555 0.98228 0.0
H64 H 0.24512 0.39234 0.84495 0.0
H65 H 0.20156 0.33105 0.91046 0.0
H66 H 0.21209 0.4028 0.76606 0.0
H67 H 0.16931 0.34256 0.83082 0.0
H68 H 0.33249 0.34255 0.17115 0.0
H69 H 0.25661 0.39224 0.1576 0.0
H70 H 0.30024 0.33109 0.09149 0.0
H71 H 0.28966 0.40265 0.23649 0.0
H72 H 0.1713 0.42363 0.02025 0.0
H73 H 0.16984 0.3744 0.1855 0.0
H74 H 0.33226 0.37418 0.81735 0.0
H75 H 0.33011 0.42384 0.98165 0.0
H76 H 0.23481 0.26858 0.03893 0.0
H77 H 0.1752 0.31955 0.00955 0.0
H78 H 0.20451 0.23457 0.04431 0.0
H79 H 0.14588 0.28458 0.01555 0.0
H80 H 0.26671 0.2686 0.96359 0.0
H81 H 0.32656 0.31932 0.99238 0.0
H82 H 0.29684 0.23446 0.95813 0.0
H83 H 0.35573 0.28422 0.98631 0.0
H84 H 0.28317 0.28085 0.75474 0.0
H85 H 0.21286 0.24894 0.80629 0.0
H86 H 0.21854 0.2808 0.24742 0.0
H87 H 0.28889 0.24896 0.19603 0.0
Li88 Li 0.93301 0.99526 0.19353 0.0
Li89 Li 0.93309 0.00648 0.30851 0.0
Li90 Li 0.90048 0.97898 0.26695 0.0
Li91 Li 0.90059 0.02285 0.23533 0.0
C92 C 0.95499 0.95696 0.27292 0.0
N93 N 0.99301 0.92332 0.27969 0.0
C94 C 0.97911 0.96499 0.28332 0.0
C95 C 0.95017 0.93182 0.2666 0.0
C96 C 0.99808 0.94769 0.28646 0.0
C97 C 0.96966 0.9151 0.26993 0.0
C98 C 0.95542 0.04441 0.22873 0.0
C99 C 0.97085 0.086 0.22993 0.0
N100 N 0.99406 0.07729 0.22098 0.0
C101 C 0.97941 0.03587 0.21917 0.0
C102 C 0.95105 0.06967 0.23375 0.0
C103 C 0.9987 0.05279 0.2155 0.0
C104 C 0.95358 0.01279 0.08131 0.0
N105 N 0.95436 0.99263 0.12035 0.0
C106 C 0.98934 0.97724 0.06285 0.0
C107 C 0.97145 0.97468 0.11136 0.0
C108 C 0.98966 0.9985 0.02362 0.0
C109 C 0.97113 0.01617 0.03268 0.0
H110 H 0.93999 0.02691 0.09022 0.0
H111 H 0.97173 0.9588 0.1429 0.0
C112 C 0.95371 0.98882 0.42048 0.0
N113 N 0.95441 0.00906 0.38168 0.0
C114 C 0.97125 0.98546 0.46914 0.0
C115 C 0.98928 0.02453 0.43947 0.0
C116 C 0.97139 0.02708 0.39093 0.0
C117 C 0.98969 0.0032 0.47845 0.0
H118 H 0.9402 0.97464 0.41135 0.0
H119 H 0.97159 0.04302 0.35957 0.0
C120 C 0.89065 0.97544 0.13369 0.0
N121 N 0.8785 0.93904 0.04554 0.0
C122 C 0.86998 0.9781 0.09387 0.0
C123 C 0.90521 0.95434 0.12849 0.0
C124 C 0.86412 0.95947 0.04966 0.0
C125 C 0.89874 0.93613 0.08368 0.0
C126 C 0.89088 0.02634 0.36878 0.0
C127 C 0.87089 0.02312 0.41063 0.0
C128 C 0.90484 0.04789 0.37225 0.0
C129 C 0.86508 0.04166 0.45517 0.0
C130 C 0.89846 0.06598 0.41746 0.0
N131 N 0.87887 0.06253 0.45762 0.0
C132 C 0.88383 0.94817 0.3629 0.0
C133 C 0.86333 0.94019 0.26336 0.0
C134 C 0.86902 0.93118 0.39544 0.0
N135 N 0.88063 0.95252 0.2983 0.0
C136 C 0.84818 0.92283 0.29396 0.0
C137 C 0.8507 0.91842 0.36117 0.0
H138 H 0.89757 0.95844 0.38957 0.0
H139 H 0.86077 0.94423 0.21234 0.0
C140 C 0.88658 0.05748 0.14457 0.0
N141 N 0.88081 0.04953 0.2054 0.0
C142 C 0.87168 0.07461 0.11277 0.0
C143 C 0.84545 0.0757 0.20766 0.0
C144 C 0.86079 0.05834 0.2375 0.0
C145 C 0.8506 0.08374 0.14395 0.0
H146 H 0.90243 0.0499 0.11993 0.0
H147 H 0.85623 0.05134 0.28522 0.0
O148 O 0.93604 0.97349 0.27017 0.0
O149 O 0.93617 0.02824 0.23195 0.0
O150 O 0.89651 0.99351 0.17727 0.0
O151 O 0.89666 0.00838 0.32478 0.0
H152 H 0.98315 0.98431 0.28931 0.0
H153 H 0.93155 0.9253 0.25917 0.0
H154 H 0.01683 0.95365 0.29443 0.0
H155 H 0.96621 0.89559 0.2649 0.0
H156 H 0.96775 0.1056 0.23394 0.0
H157 H 0.9831 0.01644 0.21423 0.0
H158 H 0.93254 0.07658 0.24054 0.0
H159 H 0.01736 0.04644 0.20816 0.0
H160 H 0.00294 0.96288 0.05674 0.0
H161 H 0.97071 0.03295 0.00431 0.0
H162 H 0.97091 0.96864 0.49733 0.0
H163 H 0.00282 0.03895 0.44578 0.0
H164 H 0.85856 0.99438 0.09727 0.0
H165 H 0.92132 0.95203 0.15858 0.0
H166 H 0.84814 0.96125 0.01862 0.0
H167 H 0.90983 0.91969 0.07921 0.0
H168 H 0.85994 0.0065 0.40856 0.0
H169 H 0.92044 0.05062 0.34057 0.0
H170 H 0.84962 0.03945 0.48779 0.0
H171 H 0.90909 0.08277 0.42064 0.0
H172 H 0.87176 0.92821 0.44704 0.0
H173 H 0.83407 0.91364 0.2658 0.0
H174 H 0.87647 0.08045 0.06401 0.0
H175 H 0.82921 0.08202 0.23319 0.0
Li176 Li 0.25647 0.68313 0.44365 0.0
Li177 Li 0.24525 0.68312 0.5586 0.0
Li178 Li 0.2728 0.65059 0.51694 0.0
Li179 Li 0.22892 0.65059 0.48527 0.0
C180 C 0.29466 0.70519 0.52321 0.0
N181 N 0.32809 0.74339 0.53042 0.0
C182 C 0.28649 0.72928 0.53324 0.0
C183 C 0.31985 0.70049 0.51748 0.0
C184 C 0.30367 0.74834 0.53662 0.0
C185 C 0.33646 0.72007 0.52103 0.0
C186 C 0.20717 0.7053 0.47902 0.0
C187 C 0.16547 0.72042 0.48093 0.0
N188 N 0.17398 0.7437 0.47179 0.0
C189 C 0.21551 0.72934 0.46926 0.0
C190 C 0.18195 0.70074 0.48449 0.0
C191 C 0.19844 0.74851 0.46587 0.0
C192 C 0.23886 0.70376 0.33163 0.0
N193 N 0.25908 0.70447 0.3705 0.0
C194 C 0.27453 0.73938 0.31283 0.0
C195 C 0.27708 0.72149 0.36135 0.0
C196 C 0.25323 0.73977 0.27376 0.0
C197 C 0.2355 0.72131 0.28299 0.0
H198 H 0.22469 0.69024 0.3407 0.0
H199 H 0.29301 0.72171 0.39276 0.0
C200 C 0.26288 0.70378 0.67056 0.0
N201 N 0.24265 0.70446 0.63176 0.0
C202 C 0.26623 0.72133 0.71921 0.0
C203 C 0.22716 0.73933 0.68953 0.0
C204 C 0.22462 0.72144 0.641 0.0
C205 C 0.24848 0.73975 0.72852 0.0
H206 H 0.27707 0.69029 0.66144 0.0
H207 H 0.20867 0.72163 0.60965 0.0
C208 C 0.27628 0.64083 0.38349 0.0
N209 N 0.31249 0.62873 0.2948 0.0
C210 C 0.27329 0.6205 0.34265 0.0
C211 C 0.29761 0.65509 0.37904 0.0
C212 C 0.29184 0.61466 0.29818 0.0
C213 C 0.31572 0.64865 0.33394 0.0
C214 C 0.22542 0.64085 0.61872 0.0
C215 C 0.22839 0.62056 0.65968 0.0
C216 C 0.20409 0.65511 0.62301 0.0
C217 C 0.20983 0.61475 0.70414 0.0
C218 C 0.18596 0.64872 0.6681 0.0
N219 N 0.18917 0.62883 0.70738 0.0
C220 C 0.30501 0.63498 0.61123 0.0
C221 C 0.31043 0.61244 0.51359 0.0
C222 C 0.32207 0.62015 0.6435 0.0
N223 N 0.29935 0.63079 0.54775 0.0
C224 C 0.3278 0.59724 0.5439 0.0
C225 C 0.33353 0.60078 0.61008 0.0
H226 H 0.29569 0.64951 0.63736 0.0
H227 H 0.3053 0.60909 0.46357 0.0
C228 C 0.19694 0.63482 0.39069 0.0
N229 N 0.20239 0.63078 0.45437 0.0
C230 C 0.1799 0.61999 0.35837 0.0
C231 C 0.17373 0.59741 0.45831 0.0
C232 C 0.19111 0.6126 0.48868 0.0
C233 C 0.16822 0.60079 0.39195 0.0
H234 H 0.20642 0.64922 0.36446 0.0
H235 H 0.19606 0.60937 0.53887 0.0
O236 O 0.27823 0.68616 0.52025 0.0
O237 O 0.22348 0.68616 0.482 0.0
O238 O 0.2583 0.64667 0.42736 0.0
O239 O 0.24343 0.64665 0.57487 0.0
H240 H 0.26712 0.73323 0.53877 0.0
H241 H 0.32648 0.6819 0.51035 0.0
H242 H 0.2976 0.76707 0.54431 0.0
H243 H 0.356 0.71671 0.51646 0.0
H244 H 0.1459 0.71717 0.4853 0.0
H245 H 0.2349 0.73318 0.46396 0.0
H246 H 0.1752 0.68218 0.49143 0.0
H247 H 0.20464 0.76722 0.45838 0.0
H248 H 0.28894 0.75293 0.30659 0.0
H249 H 0.21869 0.72095 0.25475 0.0
H250 H 0.28306 0.721 0.74739 0.0
H251 H 0.21272 0.75285 0.69585 0.0
H252 H 0.25683 0.60932 0.34546 0.0
H253 H 0.30016 0.67095 0.40991 0.0
H254 H 0.28981 0.59893 0.26635 0.0
H255 H 0.33234 0.65951 0.33003 0.0
H256 H 0.24485 0.60938 0.65699 0.0
H257 H 0.20154 0.67094 0.59203 0.0
H258 H 0.21185 0.59906 0.73607 0.0
H259 H 0.16934 0.65957 0.6719 0.0
H260 H 0.32607 0.62369 0.69427 0.0
H261 H 0.33596 0.58231 0.5165 0.0
H262 H 0.17606 0.62341 0.30745 0.0
H263 H 0.1654 0.5826 0.48585 0.0
Li264 Li 0.60124 0.97899 0.7352 0.0
Li265 Li 0.60114 0.02287 0.76688 0.0
Li266 Li 0.5687 0.99526 0.80861 0.0
Li267 Li 0.56863 0.00649 0.69365 0.0
C268 C 0.61112 0.97545 0.86845 0.0
N269 N 0.62338 0.93908 0.95656 0.0
C270 C 0.6319 0.97807 0.90785 0.0
C271 C 0.59649 0.95441 0.87405 0.0
C272 C 0.63782 0.95945 0.95205 0.0
C273 C 0.60301 0.93621 0.91883 0.0
C274 C 0.6108 0.02638 0.6334 0.0
C275 C 0.6032 0.06605 0.58491 0.0
N276 N 0.62272 0.06259 0.54451 0.0
C277 C 0.63072 0.02315 0.59129 0.0
C278 C 0.59687 0.04795 0.63015 0.0
C279 C 0.63648 0.0417 0.54673 0.0
C280 C 0.61809 0.94843 0.63901 0.0
N281 N 0.62109 0.95255 0.70378 0.0
C282 C 0.65333 0.92262 0.70819 0.0
C283 C 0.63819 0.93998 0.73884 0.0
C284 C 0.65101 0.91844 0.64082 0.0
C285 C 0.63289 0.93145 0.60642 0.0
H286 H 0.6045 0.95888 0.61226 0.0
H287 H 0.6406 0.94382 0.79001 0.0
C288 C 0.61542 0.05704 0.85839 0.0
N289 N 0.62091 0.04952 0.79699 0.0
C290 C 0.6303 0.07415 0.89029 0.0
C291 C 0.65594 0.07614 0.79437 0.0
C292 C 0.64063 0.05877 0.76444 0.0
C293 C 0.65107 0.08373 0.85862 0.0
H294 H 0.59981 0.04911 0.88336 0.0
H295 H 0.64498 0.05213 0.71623 0.0
C296 C 0.54686 0.95684 0.72935 0.0
N297 N 0.50908 0.92292 0.72289 0.0
C298 C 0.5227 0.96467 0.71863 0.0
C299 C 0.55185 0.93175 0.73613 0.0
C300 C 0.50385 0.94724 0.71566 0.0
C301 C 0.53248 0.91489 0.73294 0.0
C302 C 0.5462 0.0443 0.77349 0.0
C303 C 0.52225 0.0356 0.78266 0.0
C304 C 0.55043 0.0696 0.76889 0.0
C305 C 0.50285 0.0524 0.7864 0.0
C306 C 0.53054 0.08581 0.77277 0.0
N307 N 0.50736 0.07694 0.78135 0.0
C308 C 0.54812 0.0128 0.92081 0.0
C309 C 0.53024 0.97471 0.89074 0.0
C310 C 0.53058 0.01618 0.96943 0.0
N311 N 0.54734 0.99264 0.88178 0.0
C312 C 0.51234 0.97728 0.93924 0.0
C313 C 0.51203 0.99853 0.97847 0.0
H314 H 0.56172 0.02691 0.91191 0.0
H315 H 0.52994 0.95882 0.85919 0.0
C316 C 0.548 0.98881 0.58174 0.0
N317 N 0.54733 0.00906 0.62046 0.0
C318 C 0.53046 0.98545 0.53308 0.0
C319 C 0.51249 0.02456 0.56257 0.0
C320 C 0.53037 0.0271 0.61112 0.0
C321 C 0.51205 0.00321 0.52367 0.0
H322 H 0.56149 0.97461 0.59094 0.0
H323 H 0.5302 0.04307 0.64241 0.0
O324 O 0.6052 0.99352 0.82489 0.0
O325 O 0.60507 0.00841 0.6774 0.0
O326 O 0.56569 0.97351 0.73195 0.0
O327 O 0.56555 0.02826 0.7702 0.0
H328 H 0.64337 0.9943 0.90415 0.0
H329 H 0.58029 0.95214 0.84428 0.0
H330 H 0.65389 0.96119 0.98277 0.0
H331 H 0.59187 0.91981 0.9236 0.0
H332 H 0.59259 0.08286 0.5819 0.0
H333 H 0.64165 0.00651 0.59319 0.0
H334 H 0.58133 0.0507 0.66203 0.0
H335 H 0.65189 0.03948 0.51393 0.0
H336 H 0.66728 0.91324 0.73647 0.0
H337 H 0.6303 0.92867 0.55469 0.0
H338 H 0.62574 0.07964 0.93949 0.0
H339 H 0.67194 0.08281 0.76843 0.0
H340 H 0.51853 0.98395 0.71228 0.0
H341 H 0.5705 0.92538 0.74378 0.0
H342 H 0.48506 0.95305 0.70746 0.0
H343 H 0.53605 0.89542 0.73833 0.0
H344 H 0.51866 0.01614 0.78724 0.0
H345 H 0.56891 0.07663 0.76238 0.0
H346 H 0.48422 0.04593 0.79345 0.0
H347 H 0.53353 0.10543 0.76908 0.0
H348 H 0.531 0.03296 0.9978 0.0
H349 H 0.49872 0.96292 0.94533 0.0
H350 H 0.53078 0.9686 0.50496 0.0
H351 H 0.49898 0.039 0.55618 0.0
Li352 Li 0.75617 0.6836 0.05995 0.0
Li353 Li 0.72808 0.65185 0.01737 0.0
Li354 Li 0.77363 0.65185 0.98475 0.0
Li355 Li 0.74557 0.68362 0.94227 0.0
C356 C 0.76578 0.63873 0.1307 0.0
N357 N 0.78117 0.6209 0.24978 0.0
C358 C 0.74851 0.63258 0.17839 0.0
C359 C 0.79083 0.63533 0.143 0.0
C360 C 0.75668 0.62374 0.23846 0.0
C361 C 0.79826 0.62642 0.20368 0.0
C362 C 0.70072 0.69773 0.01236 0.0
C363 C 0.66361 0.70364 0.95011 0.0
N364 N 0.65411 0.71735 0.99948 0.0
C365 C 0.69071 0.71201 0.06231 0.0
C366 C 0.68718 0.69361 0.95565 0.0
C367 C 0.66706 0.72171 0.05495 0.0
C368 C 0.76673 0.72898 0.11806 0.0
N369 N 0.75887 0.70576 0.13107 0.0
C370 C 0.74533 0.71801 0.23692 0.0
C371 C 0.74834 0.7 0.18909 0.0
C372 C 0.75279 0.74232 0.22448 0.0
C373 C 0.76398 0.74759 0.16435 0.0
H374 H 0.77399 0.73335 0.07045 0.0
H375 H 0.74116 0.68175 0.19716 0.0
C376 C 0.70539 0.60636 0.04166 0.0
N377 N 0.70193 0.63107 0.04625 0.0
C378 C 0.68918 0.59012 0.07247 0.0
C379 C 0.66576 0.62502 0.11071 0.0
C380 C 0.68253 0.64058 0.07965 0.0
C381 C 0.66922 0.59942 0.10839 0.0
H382 H 0.72131 0.59931 0.01612 0.0
H383 H 0.68059 0.66023 0.08474 0.0
C384 C 0.80107 0.69759 0.99022 0.0
N385 N 0.84776 0.71692 0.00387 0.0
C386 C 0.81124 0.71192 0.94059 0.0
C387 C 0.81451 0.69327 0.04701 0.0
C388 C 0.83492 0.72147 0.94834 0.0
C389 C 0.83812 0.70317 0.05295 0.0
C390 C 0.73581 0.63887 0.8714 0.0
C391 C 0.75297 0.63265 0.82352 0.0
C392 C 0.71072 0.63567 0.85927 0.0
C393 C 0.74468 0.62395 0.76344 0.0
C394 C 0.70316 0.6269 0.79857 0.0
N395 N 0.72015 0.6213 0.75229 0.0
C396 C 0.79657 0.60639 0.96141 0.0
C397 C 0.81893 0.64062 0.92146 0.0
C398 C 0.81279 0.59014 0.93064 0.0
N399 N 0.79978 0.6311 0.95584 0.0
C400 C 0.83571 0.62506 0.89041 0.0
C401 C 0.8325 0.59944 0.89375 0.0
H402 H 0.78084 0.59932 0.98772 0.0
H403 H 0.82065 0.66027 0.91558 0.0
C404 C 0.73498 0.729 0.88416 0.0
N405 N 0.74287 0.70579 0.87119 0.0
C406 C 0.73773 0.74762 0.83788 0.0
C407 C 0.75646 0.71805 0.76539 0.0
C408 C 0.75345 0.70004 0.81322 0.0
C409 C 0.74895 0.74236 0.77779 0.0
H410 H 0.72769 0.73336 0.93174 0.0
H411 H 0.76066 0.68181 0.80519 0.0
O412 O 0.75813 0.64702 0.07126 0.0
O413 O 0.72385 0.68818 0.01885 0.0
O414 O 0.77789 0.6882 0.98337 0.0
O415 O 0.74359 0.64703 0.93084 0.0
H416 H 0.72902 0.63478 0.16926 0.0
H417 H 0.80439 0.63931 0.10591 0.0
H418 H 0.74353 0.61909 0.27603 0.0
H419 H 0.8176 0.6238 0.21401 0.0
H420 H 0.6529 0.70061 0.90647 0.0
H421 H 0.70107 0.71548 0.10637 0.0
H422 H 0.69489 0.68301 0.91611 0.0
H423 H 0.65902 0.73272 0.09329 0.0
H424 H 0.73686 0.71298 0.28271 0.0
H425 H 0.76962 0.76612 0.152 0.0
H426 H 0.6924 0.5705 0.0688 0.0
H427 H 0.65082 0.63299 0.13848 0.0
H428 H 0.80096 0.71553 0.89647 0.0
H429 H 0.80667 0.68265 0.08632 0.0
H430 H 0.84308 0.73251 0.91024 0.0
H431 H 0.84875 0.69998 0.09665 0.0
H432 H 0.77249 0.63469 0.83252 0.0
H433 H 0.69723 0.6397 0.89651 0.0
H434 H 0.75774 0.61925 0.72573 0.0
H435 H 0.68379 0.62442 0.78838 0.0
H436 H 0.80977 0.57052 0.93509 0.0
H437 H 0.85044 0.63303 0.86187 0.0
H438 H 0.73205 0.76614 0.8502 0.0
H439 H 0.76496 0.71304 0.71964 0.0
Li440 Li 0.0999 0.97809 0.7673 0.0
Li441 Li 0.06813 0.00609 0.80997 0.0
Li442 Li 0.06814 0.99567 0.69223 0.0
Li443 Li 0.09994 0.02371 0.73515 0.0
C444 C 0.05421 0.95066 0.76074 0.0
N445 N 0.03499 0.90401 0.74499 0.0
C446 C 0.03959 0.94029 0.80948 0.0
C447 C 0.05889 0.93744 0.7038 0.0
C448 C 0.03009 0.91664 0.80067 0.0
C449 C 0.04904 0.91385 0.69679 0.0
C450 C 0.11295 0.01575 0.88093 0.0
C451 C 0.12501 0.04831 0.95394 0.0
N452 N 0.1307 0.03125 0.99999 0.0
C453 C 0.11925 0.99852 0.92857 0.0
C454 C 0.11615 0.04083 0.89327 0.0
C455 C 0.12806 0.00674 0.98863 0.0
C456 C 0.14539 0.95537 0.79139 0.0
N457 N 0.12068 0.95193 0.79603 0.0
C458 C 0.12671 0.91577 0.86057 0.0
C459 C 0.11115 0.93255 0.82949 0.0
C460 C 0.15231 0.91921 0.85822 0.0
C461 C 0.16162 0.93915 0.82222 0.0
H462 H 0.15244 0.97127 0.76581 0.0
H463 H 0.09149 0.93064 0.83463 0.0
C464 C 0.02267 0.01638 0.86791 0.0
N465 N 0.04594 0.0087 0.88106 0.0
C466 C 0.00406 0.01359 0.91421 0.0
C467 C 0.03376 0.99526 0.98705 0.0
C468 C 0.05176 0.9983 0.9392 0.0
C469 C 0.0094 0.00256 0.9745 0.0
H470 H 0.01826 0.02353 0.82021 0.0
H471 H 0.07005 0.99127 0.94741 0.0
C472 C 0.11325 0.98639 0.62149 0.0
N473 N 0.13163 0.97166 0.50242 0.0
C474 C 0.11925 0.0039 0.57429 0.0
C475 C 0.11706 0.96143 0.6087 0.0
C476 C 0.12838 0.99607 0.51423 0.0
C477 C 0.12624 0.95434 0.54804 0.0
C478 C 0.05385 0.05095 0.74052 0.0
C479 C 0.03941 0.06095 0.69084 0.0
C480 C 0.05793 0.06442 0.79739 0.0
C481 C 0.02951 0.08449 0.69865 0.0
C482 C 0.04769 0.08788 0.80337 0.0
N483 N 0.03383 0.09735 0.75427 0.0
C484 C 0.02273 0.98528 0.6341 0.0
C485 C 0.05177 0.00352 0.56298 0.0
C486 C 0.00413 0.98805 0.58778 0.0
N487 N 0.04598 0.99306 0.62105 0.0
C488 C 0.03377 0.00656 0.51513 0.0
C489 C 0.00943 0.99917 0.52759 0.0
H490 H 0.01835 0.97806 0.68174 0.0
H491 H 0.07004 0.01062 0.55485 0.0
C492 C 0.14545 0.04562 0.70787 0.0
N493 N 0.12081 0.04984 0.7065 0.0
C494 C 0.16166 0.06181 0.67691 0.0
C495 C 0.1269 0.08679 0.64519 0.0
C496 C 0.11135 0.07001 0.6763 0.0
C497 C 0.1524 0.08256 0.64417 0.0
H498 H 0.15242 0.02913 0.73091 0.0
H499 H 0.0917 0.07262 0.67378 0.0
O500 O 0.06355 0.9738 0.76863 0.0
O501 O 0.10471 0.00805 0.82149 0.0
O502 O 0.10471 0.99372 0.68097 0.0
O503 O 0.0636 0.02794 0.7336 0.0
H504 H 0.0357 0.9504 0.8537 0.0
H505 H 0.06977 0.94543 0.66519 0.0
H506 H 0.01882 0.90832 0.83805 0.0
H507 H 0.05251 0.9034 0.65295 0.0
H508 H 0.12749 0.06766 0.9643 0.0
H509 H 0.11721 0.97902 0.9194 0.0
H510 H 0.11204 0.05436 0.85621 0.0
H511 H 0.13283 0.99362 0.02616 0.0
H512 H 0.11873 0.90085 0.8884 0.0
H513 H 0.18124 0.94235 0.81854 0.0
H514 H 0.98551 0.0191 0.90176 0.0
H515 H 0.03883 0.9869 0.03296 0.0
H516 H 0.11672 0.02332 0.58379 0.0
H517 H 0.11318 0.9477 0.64541 0.0
H518 H 0.13293 0.0094 0.47704 0.0
H519 H 0.12919 0.93507 0.53733 0.0
H520 H 0.03599 0.05065 0.64665 0.0
H521 H 0.06866 0.05672 0.8367 0.0
H522 H 0.01838 0.09251 0.66053 0.0
H523 H 0.05069 0.09852 0.84714 0.0
H524 H 0.98559 0.98246 0.60014 0.0
H525 H 0.03882 0.01498 0.46928 0.0
H526 H 0.18121 0.05798 0.67799 0.0
H527 H 0.11895 0.10237 0.61997 0.0
Li528 Li 0.77366 0.35 0.5172 0.0
Li529 Li 0.74566 0.31823 0.56 0.0
Li530 Li 0.75606 0.31823 0.44226 0.0
Li531 Li 0.72804 0.35002 0.48511 0.0
C532 C 0.80103 0.30417 0.511 0.0
N533 N 0.84758 0.28467 0.4958 0.0
C534 C 0.81127 0.28959 0.56 0.0
C535 C 0.81432 0.30868 0.45408 0.0
C536 C 0.83488 0.27995 0.55146 0.0
C537 C 0.83786 0.29868 0.44735 0.0
C538 C 0.73617 0.3632 0.63085 0.0
C539 C 0.70384 0.37572 0.70403 0.0
N540 N 0.72102 0.3813 0.74986 0.0
C541 C 0.75353 0.3694 0.67827 0.0
C542 C 0.71115 0.36668 0.64339 0.0
C543 C 0.74549 0.37838 0.7383 0.0
C544 C 0.79623 0.39549 0.54191 0.0
N545 N 0.79983 0.37079 0.54587 0.0
C546 C 0.83616 0.37681 0.60973 0.0
C547 C 0.81938 0.36126 0.57865 0.0
C548 C 0.83256 0.4024 0.60808 0.0
C549 C 0.81245 0.41171 0.57276 0.0
H550 H 0.7802 0.40254 0.51686 0.0
H551 H 0.82143 0.3416 0.58326 0.0
C552 C 0.7354 0.27278 0.61794 0.0
N553 N 0.74306 0.29606 0.63112 0.0
C554 C 0.7382 0.25418 0.66424 0.0
C555 C 0.75647 0.28388 0.73715 0.0
C556 C 0.75342 0.30188 0.6893 0.0
C557 C 0.7492 0.25952 0.72457 0.0
H558 H 0.72827 0.26837 0.57022 0.0
H559 H 0.76043 0.32018 0.69754 0.0
C560 C 0.76546 0.36326 0.37145 0.0
N561 N 0.78044 0.38149 0.25243 0.0
C562 C 0.74804 0.36939 0.32412 0.0
C563 C 0.79046 0.36688 0.35881 0.0
C564 C 0.75599 0.37843 0.26408 0.0
C565 C 0.79767 0.37598 0.29817 0.0
C566 C 0.70073 0.30407 0.49107 0.0
C567 C 0.69059 0.28949 0.4419 0.0
C568 C 0.68738 0.30844 0.54796 0.0
C569 C 0.66703 0.27972 0.45023 0.0
C570 C 0.66388 0.29833 0.55448 0.0
N571 N 0.65426 0.28432 0.50586 0.0
C572 C 0.76635 0.2728 0.38426 0.0
C573 C 0.74825 0.30188 0.31299 0.0
C574 C 0.76356 0.2542 0.33795 0.0
N575 N 0.75865 0.29606 0.37112 0.0
C576 C 0.7452 0.28388 0.26514 0.0
C577 C 0.75252 0.25952 0.27768 0.0
H578 H 0.77352 0.2684 0.43194 0.0
H579 H 0.7412 0.32017 0.30479 0.0
C580 C 0.70572 0.39551 0.45942 0.0
N581 N 0.70189 0.37082 0.45645 0.0
C582 C 0.68951 0.41172 0.4285 0.0
C583 C 0.66532 0.37686 0.39353 0.0
C584 C 0.68211 0.36131 0.42464 0.0
C585 C 0.66916 0.40242 0.39415 0.0
H586 H 0.72193 0.40254 0.48371 0.0
H587 H 0.67985 0.34165 0.42083 0.0
O588 O 0.77793 0.31366 0.51863 0.0
O589 O 0.74371 0.3548 0.57143 0.0
O590 O 0.75801 0.3548 0.43089 0.0
O591 O 0.72379 0.31368 0.48365 0.0
H592 H 0.80111 0.28584 0.60422 0.0
H593 H 0.80642 0.31952 0.41527 0.0
H594 H 0.8431 0.2687 0.58906 0.0
H595 H 0.84837 0.30201 0.40353 0.0
H596 H 0.68453 0.37841 0.71453 0.0
H597 H 0.773 0.36714 0.66896 0.0
H598 H 0.69752 0.36265 0.6065 0.0
H599 H 0.75871 0.38308 0.77566 0.0
H600 H 0.85122 0.36882 0.63703 0.0
H601 H 0.80912 0.43132 0.56962 0.0
H602 H 0.73271 0.23562 0.65179 0.0
H603 H 0.7648 0.28895 0.78309 0.0
H604 H 0.72859 0.36701 0.33351 0.0
H605 H 0.80413 0.36291 0.39562 0.0
H606 H 0.74273 0.38307 0.22679 0.0
H607 H 0.81697 0.37878 0.28758 0.0
H608 H 0.70081 0.28584 0.39771 0.0
H609 H 0.69519 0.31928 0.5869 0.0
H610 H 0.65889 0.26848 0.41251 0.0
H611 H 0.65332 0.30155 0.59827 0.0
H612 H 0.76909 0.23564 0.35037 0.0
H613 H 0.73684 0.28894 0.21923 0.0
H614 H 0.69303 0.43131 0.43086 0.0
H615 H 0.65007 0.36887 0.36701 0.0
Li616 Li 0.4018 0.02371 0.26706 0.0
Li617 Li 0.4336 0.99567 0.3099 0.0
Li618 Li 0.43359 0.00612 0.19217 0.0
Li619 Li 0.40183 0.9781 0.23485 0.0
C620 C 0.4478 0.051 0.2614 0.0
N621 N 0.46764 0.09745 0.24714 0.0
C622 C 0.46229 0.06108 0.31083 0.0
C623 C 0.44355 0.06441 0.20453 0.0
C624 C 0.47211 0.08464 0.30277 0.0
C625 C 0.45371 0.0879 0.19828 0.0
C626 C 0.38852 0.98635 0.38068 0.0
C627 C 0.37557 0.95426 0.45409 0.0
N628 N 0.37018 0.97156 0.49976 0.0
C629 C 0.38252 0.00384 0.42794 0.0
C630 C 0.38473 0.96138 0.39342 0.0
C631 C 0.37341 0.99598 0.48801 0.0
C632 C 0.35628 0.04585 0.29338 0.0
N633 N 0.38096 0.04984 0.29577 0.0
C634 C 0.37489 0.08654 0.35811 0.0
C635 C 0.39044 0.06977 0.327 0.0
C636 C 0.34935 0.08255 0.35808 0.0
C637 C 0.34007 0.06205 0.32431 0.0
H638 H 0.34928 0.02955 0.26954 0.0
H639 H 0.4101 0.07216 0.33034 0.0
C640 C 0.47899 0.98522 0.3681 0.0
N641 N 0.45576 0.99306 0.38107 0.0
C642 C 0.49759 0.98799 0.41441 0.0
C643 C 0.46798 0.00663 0.48692 0.0
C644 C 0.44998 0.0036 0.43907 0.0
C645 C 0.49231 0.99918 0.47453 0.0
H646 H 0.48337 0.97795 0.32051 0.0
H647 H 0.43173 0.01075 0.44713 0.0
C648 C 0.38869 0.01572 0.1213 0.0
N649 N 0.37074 0.0311 0.00232 0.0
C650 C 0.38244 0.99845 0.07371 0.0
C651 C 0.38534 0.04077 0.10895 0.0
C652 C 0.37354 0.0066 0.0137 0.0
C653 C 0.37638 0.04819 0.04832 0.0
C654 C 0.44749 0.95065 0.24127 0.0
C655 C 0.46205 0.94027 0.19244 0.0
C656 C 0.44283 0.93743 0.29822 0.0
C657 C 0.47151 0.9166 0.20116 0.0
C658 C 0.45263 0.91382 0.30514 0.0
N659 N 0.46663 0.90397 0.25684 0.0
C660 C 0.47904 0.01641 0.1342 0.0
C661 C 0.44994 0.99835 0.0629 0.0
C662 C 0.49764 0.01362 0.08789 0.0
N663 N 0.45576 0.00874 0.12105 0.0
C664 C 0.46793 0.99531 0.01504 0.0
C665 C 0.4923 0.0026 0.0276 0.0
H666 H 0.48345 0.02356 0.18191 0.0
H667 H 0.43164 0.99132 0.0547 0.0
C668 C 0.35636 0.95519 0.21145 0.0
N669 N 0.38108 0.95193 0.20612 0.0
C670 C 0.34013 0.93897 0.18065 0.0
C671 C 0.37505 0.91595 0.14089 0.0
C672 C 0.3906 0.93272 0.17197 0.0
C673 C 0.34943 0.91921 0.14396 0.0
H674 H 0.3493 0.97097 0.23757 0.0
H675 H 0.41026 0.93097 0.16627 0.0
O676 O 0.43813 0.02795 0.26857 0.0
O677 O 0.39703 0.99371 0.32121 0.0
O678 O 0.39702 0.00807 0.18071 0.0
O679 O 0.43819 0.97382 0.23348 0.0
H680 H 0.46584 0.05082 0.35502 0.0
H681 H 0.43277 0.05665 0.1654 0.0
H682 H 0.48329 0.09273 0.34069 0.0
H683 H 0.45059 0.0985 0.15451 0.0
H684 H 0.37264 0.93499 0.46474 0.0
H685 H 0.38503 0.02327 0.41849 0.0
H686 H 0.3886 0.94766 0.35666 0.0
H687 H 0.36887 0.00929 0.52524 0.0
H688 H 0.38286 0.10192 0.38417 0.0
H689 H 0.32049 0.05841 0.32241 0.0
H690 H 0.51612 0.98235 0.40211 0.0
H691 H 0.46295 0.0151 0.53271 0.0
H692 H 0.38459 0.97896 0.08289 0.0
H693 H 0.3894 0.05434 0.14597 0.0
H694 H 0.36881 0.99345 0.97621 0.0
H695 H 0.37379 0.06753 0.03796 0.0
H696 H 0.46593 0.95038 0.14821 0.0
H697 H 0.432 0.94543 0.33691 0.0
H698 H 0.48274 0.90827 0.1637 0.0
H699 H 0.44918 0.90336 0.34898 0.0
H700 H 0.51619 0.01912 0.10034 0.0
H701 H 0.46286 0.98696 0.96913 0.0
H702 H 0.3205 0.94203 0.1849 0.0
H703 H 0.38302 0.90117 0.11251 0.0
Li704 Li 0.7289 0.85109 0.51647 0.0
Li705 Li 0.7728 0.8511 0.48568 0.0
Li706 Li 0.74535 0.81866 0.44354 0.0
Li707 Li 0.75636 0.81867 0.55867 0.0
C708 C 0.72559 0.86103 0.3835 0.0
N709 N 0.68923 0.87334 0.29539 0.0
C710 C 0.72851 0.88145 0.34295 0.0
C711 C 0.70423 0.84682 0.37913 0.0
C712 C 0.7099 0.8874 0.29875 0.0
C713 C 0.68605 0.85335 0.3343 0.0
C714 C 0.77612 0.86101 0.61868 0.0
C715 C 0.8157 0.85334 0.66769 0.0
N716 N 0.81248 0.87326 0.70685 0.0
C717 C 0.77316 0.88136 0.65949 0.0
C718 C 0.79752 0.84685 0.62282 0.0
C719 C 0.79178 0.88727 0.70372 0.0
C720 C 0.69192 0.86382 0.60281 0.0
N721 N 0.70219 0.87095 0.54552 0.0
C722 C 0.6784 0.90796 0.54589 0.0
C723 C 0.6957 0.89246 0.51645 0.0
C724 C 0.668 0.90139 0.6062 0.0
C725 C 0.67473 0.87881 0.63415 0.0
H726 H 0.69771 0.84678 0.62523 0.0
H727 H 0.70458 0.89803 0.47173 0.0
C728 C 0.80957 0.86393 0.39888 0.0
N729 N 0.79951 0.87095 0.45654 0.0
C730 C 0.82674 0.87891 0.36749 0.0
C731 C 0.82353 0.90781 0.45646 0.0
C732 C 0.80622 0.89233 0.48594 0.0
C733 C 0.83371 0.90137 0.39579 0.0
H734 H 0.80361 0.847 0.37622 0.0
H735 H 0.79753 0.8978 0.53097 0.0
C736 C 0.7072 0.79632 0.52239 0.0
N737 N 0.67415 0.75777 0.52868 0.0
C738 C 0.71558 0.77234 0.53299 0.0
C739 C 0.68199 0.80073 0.51564 0.0
C740 C 0.69859 0.75309 0.53587 0.0
C741 C 0.66558 0.78098 0.51874 0.0
C742 C 0.79445 0.79628 0.47973 0.0
C743 C 0.78599 0.77231 0.46939 0.0
C744 C 0.81968 0.80063 0.48615 0.0
C745 C 0.80292 0.75302 0.4664 0.0
C746 C 0.83603 0.78083 0.48296 0.0
N747 N 0.82738 0.75763 0.47326 0.0
C748 C 0.76305 0.79809 0.33148 0.0
C749 C 0.7248 0.78039 0.36092 0.0
C750 C 0.76645 0.78054 0.28287 0.0
N751 N 0.74281 0.79738 0.37024 0.0
C752 C 0.72738 0.7625 0.31242 0.0
C753 C 0.74873 0.76208 0.27354 0.0
H754 H 0.7772 0.81164 0.34061 0.0
H755 H 0.70884 0.78017 0.39221 0.0
C756 C 0.73865 0.79811 0.67072 0.0
N757 N 0.7589 0.79741 0.632 0.0
C758 C 0.73526 0.78056 0.71935 0.0
C759 C 0.77436 0.76256 0.68988 0.0
C760 C 0.77693 0.78044 0.64136 0.0
C761 C 0.75301 0.76212 0.72873 0.0
H762 H 0.72449 0.81164 0.66156 0.0
H763 H 0.7929 0.78024 0.6101 0.0
O764 O 0.7436 0.85514 0.42727 0.0
O765 O 0.7581 0.85516 0.5749 0.0
O766 O 0.72344 0.81553 0.51985 0.0
O767 O 0.77827 0.81554 0.48237 0.0
H768 H 0.74497 0.89263 0.34579 0.0
H769 H 0.70171 0.8309 0.4098 0.0
H770 H 0.71189 0.90319 0.26714 0.0
H771 H 0.66942 0.84252 0.33043 0.0
H772 H 0.83236 0.84254 0.67139 0.0
H773 H 0.75668 0.8925 0.65684 0.0
H774 H 0.80006 0.83099 0.59195 0.0
H775 H 0.78976 0.903 0.73554 0.0
H776 H 0.67399 0.92535 0.523 0.0
H777 H 0.66703 0.87291 0.68018 0.0
H778 H 0.83427 0.87312 0.32117 0.0
H779 H 0.82813 0.9251 0.47963 0.0
H780 H 0.73494 0.76861 0.53933 0.0
H781 H 0.67519 0.81923 0.50804 0.0
H782 H 0.70482 0.73444 0.54399 0.0
H783 H 0.64603 0.78412 0.51336 0.0
H784 H 0.7666 0.76863 0.46332 0.0
H785 H 0.82655 0.81912 0.49355 0.0
H786 H 0.79662 0.73437 0.45848 0.0
H787 H 0.8556 0.78391 0.48807 0.0
H788 H 0.78329 0.78089 0.25474 0.0
H789 H 0.71296 0.74896 0.30606 0.0
H790 H 0.71842 0.78089 0.74745 0.0
H791 H 0.78879 0.74904 0.69627 0.0
Li792 Li 0.40064 0.52285 0.7354 0.0
Li793 Li 0.40052 0.47896 0.76678 0.0
Li794 Li 0.43313 0.50643 0.80845 0.0
Li795 Li 0.43303 0.49527 0.69344 0.0
C796 C 0.39091 0.52627 0.86877 0.0
N797 N 0.37887 0.56248 0.95755 0.0
C798 C 0.37091 0.52306 0.9106 0.0
C799 C 0.40486 0.54783 0.87221 0.0
C800 C 0.36509 0.54161 0.95511 0.0
C801 C 0.39847 0.56593 0.91739 0.0
C802 C 0.39067 0.47553 0.63349 0.0
C803 C 0.39858 0.43614 0.58375 0.0
N804 N 0.37848 0.43921 0.54517 0.0
C805 C 0.37014 0.47835 0.59324 0.0
C806 C 0.40506 0.45431 0.62866 0.0
C807 C 0.36426 0.45976 0.54894 0.0
C808 C 0.38717 0.55838 0.64621 0.0
N809 N 0.38086 0.54956 0.70582 0.0
C810 C 0.34487 0.57486 0.70724 0.0
C811 C 0.36026 0.55751 0.73691 0.0
C812 C 0.35057 0.58378 0.64469 0.0
C813 C 0.37224 0.57554 0.61459 0.0
H814 H 0.40348 0.55146 0.62232 0.0
H815 H 0.35531 0.54981 0.78359 0.0
C816 C 0.38474 0.447 0.86139 0.0
N817 N 0.38068 0.45245 0.79772 0.0
C818 C 0.36992 0.42996 0.89374 0.0
C819 C 0.34728 0.42383 0.79386 0.0
C820 C 0.36248 0.44119 0.76346 0.0
C821 C 0.35068 0.4183 0.86022 0.0
H822 H 0.39917 0.45647 0.88758 0.0
H823 H 0.35923 0.44613 0.71328 0.0
C824 C 0.45554 0.54433 0.72893 0.0
N825 N 0.49432 0.57708 0.7216 0.0
C826 C 0.47949 0.53572 0.71926 0.0
C827 C 0.45127 0.56961 0.73426 0.0
C828 C 0.49886 0.55257 0.71582 0.0
C829 C 0.47113 0.58587 0.73065 0.0
C830 C 0.45501 0.45692 0.77278 0.0
C831 C 0.47914 0.46492 0.7832 0.0
C832 C 0.45017 0.43178 0.76652 0.0
C833 C 0.49809 0.44761 0.78639 0.0
C834 C 0.46964 0.41504 0.76991 0.0
N835 N 0.493 0.42324 0.77966 0.0
C836 C 0.45384 0.48871 0.92025 0.0
C837 C 0.47136 0.52707 0.89105 0.0
C838 C 0.47139 0.48536 0.96889 0.0
N839 N 0.45445 0.50899 0.88162 0.0
C840 C 0.48925 0.52454 0.93959 0.0
C841 C 0.48975 0.50317 0.97839 0.0
H842 H 0.44039 0.47449 0.911 0.0
H843 H 0.4715 0.54306 0.85985 0.0
C844 C 0.45357 0.51281 0.58121 0.0
N845 N 0.45434 0.49264 0.62022 0.0
C846 C 0.47112 0.51619 0.53259 0.0
C847 C 0.48932 0.47725 0.5627 0.0
C848 C 0.47142 0.47469 0.6112 0.0
C849 C 0.48965 0.49853 0.52352 0.0
H850 H 0.43998 0.52693 0.59014 0.0
H851 H 0.4717 0.4588 0.64272 0.0
O852 O 0.39668 0.50831 0.82476 0.0
O853 O 0.39653 0.49356 0.67721 0.0
O854 O 0.43622 0.52824 0.73197 0.0
O855 O 0.43608 0.47347 0.76998 0.0
H856 H 0.35996 0.50644 0.90853 0.0
H857 H 0.42046 0.55056 0.84054 0.0
H858 H 0.34962 0.5394 0.98771 0.0
H859 H 0.40909 0.58272 0.92056 0.0
H860 H 0.40955 0.4196 0.57955 0.0
H861 H 0.35885 0.49472 0.59636 0.0
H862 H 0.42107 0.45188 0.65907 0.0
H863 H 0.34839 0.46166 0.51756 0.0
H864 H 0.32818 0.58047 0.73188 0.0
H865 H 0.37746 0.58207 0.56676 0.0
H866 H 0.37335 0.42612 0.94465 0.0
H867 H 0.33246 0.41551 0.76635 0.0
H868 H 0.48311 0.51628 0.71407 0.0
H869 H 0.43279 0.57658 0.74114 0.0
H870 H 0.51749 0.54615 0.7084 0.0
H871 H 0.46811 0.60547 0.73491 0.0
H872 H 0.48319 0.48424 0.78918 0.0
H873 H 0.43155 0.42527 0.7591 0.0
H874 H 0.51685 0.45355 0.79437 0.0
H875 H 0.46617 0.39554 0.76491 0.0
H876 H 0.47111 0.4685 0.99692 0.0
H877 H 0.50272 0.53901 0.94606 0.0
H878 H 0.47071 0.53298 0.50425 0.0
H879 H 0.50292 0.46288 0.55657 0.0
Li880 Li 0.75646 0.18316 0.94361 0.0
Li881 Li 0.74527 0.18317 0.05861 0.0
Li882 Li 0.77279 0.15064 0.01688 0.0
Li883 Li 0.72891 0.15067 0.98537 0.0
C884 C 0.79466 0.20523 0.02344 0.0
N885 N 0.82808 0.24342 0.03132 0.0
C886 C 0.78647 0.22931 0.03354 0.0
C887 C 0.81985 0.20054 0.01797 0.0
C888 C 0.80365 0.24837 0.03726 0.0
C889 C 0.83646 0.22011 0.02186 0.0
C890 C 0.7072 0.20538 0.9787 0.0
C891 C 0.66551 0.22055 0.97978 0.0
N892 N 0.67407 0.24381 0.97061 0.0
C893 C 0.71559 0.22941 0.9689 0.0
C894 C 0.68197 0.20086 0.98377 0.0
C895 C 0.69855 0.24859 0.96507 0.0
C896 C 0.73893 0.20372 0.8314 0.0
N897 N 0.75909 0.20449 0.87045 0.0
C898 C 0.7745 0.23946 0.81296 0.0
C899 C 0.77704 0.22156 0.86148 0.0
C900 C 0.75324 0.23978 0.77371 0.0
C901 C 0.73557 0.22126 0.78275 0.0
H902 H 0.72479 0.19015 0.84031 0.0
H903 H 0.79293 0.22183 0.89306 0.0
C904 C 0.76283 0.20376 0.17075 0.0
N905 N 0.74265 0.2045 0.13177 0.0
C906 C 0.76619 0.2213 0.2194 0.0
C907 C 0.72721 0.23943 0.18936 0.0
C908 C 0.72467 0.22154 0.14083 0.0
C909 C 0.74848 0.23979 0.22853 0.0
H910 H 0.77699 0.19022 0.16177 0.0
H911 H 0.70877 0.22178 0.10933 0.0
C912 C 0.77625 0.14089 0.88349 0.0
N913 N 0.81254 0.12883 0.79497 0.0
C914 C 0.77326 0.12063 0.84239 0.0
C915 C 0.79763 0.15508 0.8794 0.0
C916 C 0.79184 0.11481 0.798 0.0
C917 C 0.81578 0.14867 0.83437 0.0
C918 C 0.72543 0.14095 0.11878 0.0
C919 C 0.72849 0.12082 0.16028 0.0
C920 C 0.70399 0.15505 0.12249 0.0
C921 C 0.70991 0.11504 0.2047 0.0
C922 C 0.68584 0.14869 0.16756 0.0
N923 N 0.68914 0.12897 0.20737 0.0
C924 C 0.80592 0.13567 0.10992 0.0
C925 C 0.80958 0.11181 0.0139 0.0
C926 C 0.82301 0.12081 0.14201 0.0
N927 N 0.79937 0.13083 0.04736 0.0
C928 C 0.82695 0.09656 0.04403 0.0
C929 C 0.83357 0.10075 0.10936 0.0
H930 H 0.79726 0.15072 0.13555 0.0
H931 H 0.80373 0.10797 0.96469 0.0
C932 C 0.6953 0.13602 0.89302 0.0
N933 N 0.7023 0.13087 0.95505 0.0
C934 C 0.6782 0.12115 0.86101 0.0
C935 C 0.67517 0.09623 0.95806 0.0
C936 C 0.69254 0.11151 0.9881 0.0
C937 C 0.6681 0.10075 0.89322 0.0
H938 H 0.70361 0.15134 0.86769 0.0
H939 H 0.69877 0.10742 0.03685 0.0
O940 O 0.77823 0.1862 0.02017 0.0
O941 O 0.72349 0.18623 0.98207 0.0
O942 O 0.75824 0.14668 0.92733 0.0
O943 O 0.74344 0.1467 0.07489 0.0
H944 H 0.7671 0.23326 0.03888 0.0
H945 H 0.8265 0.18196 0.01078 0.0
H946 H 0.79756 0.26709 0.04501 0.0
H947 H 0.856 0.21675 0.01749 0.0
H948 H 0.64593 0.21733 0.98384 0.0
H949 H 0.735 0.23322 0.9639 0.0
H950 H 0.67517 0.18232 0.99074 0.0
H951 H 0.70478 0.26728 0.95754 0.0
H952 H 0.78887 0.25306 0.80687 0.0
H953 H 0.71879 0.22086 0.75436 0.0
H954 H 0.78298 0.22092 0.24773 0.0
H955 H 0.71281 0.253 0.19552 0.0
H956 H 0.75677 0.10949 0.84494 0.0
H957 H 0.8002 0.17089 0.91047 0.0
H958 H 0.78981 0.09914 0.76598 0.0
H959 H 0.83244 0.15949 0.83073 0.0
H960 H 0.74504 0.10975 0.15802 0.0
H961 H 0.70137 0.17076 0.09109 0.0
H962 H 0.712 0.09947 0.23704 0.0
H963 H 0.66913 0.15944 0.17092 0.0
H964 H 0.82772 0.12486 0.19209 0.0
H965 H 0.8344 0.0811 0.01727 0.0
H966 H 0.67312 0.12544 0.81133 0.0
H967 H 0.66809 0.08051 0.98444 0.0
Li968 Li 0.10108 0.52286 0.26677 0.0
Li969 Li 0.10121 0.47897 0.23541 0.0
Li970 Li 0.0686 0.50644 0.19371 0.0
Li971 Li 0.0687 0.49528 0.30872 0.0
C972 C 0.11079 0.5263 0.13341 0.0
N973 N 0.12276 0.56253 0.04464 0.0
C974 C 0.13073 0.52307 0.09136 0.0
C975 C 0.09688 0.54788 0.1302 0.0
C976 C 0.13651 0.54163 0.04685 0.0
C977 C 0.10324 0.566 0.08502 0.0
C978 C 0.11109 0.47557 0.36869 0.0
C979 C 0.10321 0.43619 0.41856 0.0
N980 N 0.12335 0.43926 0.457 0.0
C981 C 0.13166 0.47839 0.40881 0.0
C982 C 0.0967 0.45435 0.37366 0.0
C983 C 0.13757 0.4598 0.45311 0.0
C984 C 0.11443 0.55861 0.35556 0.0
N985 N 0.12087 0.54957 0.29627 0.0
C986 C 0.15701 0.57466 0.29509 0.0
C987 C 0.1416 0.55732 0.26545 0.0
C988 C 0.15117 0.58379 0.35734 0.0
C989 C 0.12937 0.57577 0.38714 0.0
H990 H 0.098 0.55186 0.37926 0.0
H991 H 0.14665 0.54944 0.21904 0.0
C992 C 0.11686 0.44682 0.14106 0.0
N993 N 0.12105 0.45245 0.20455 0.0
C994 C 0.13169 0.42977 0.10875 0.0
C995 C 0.15461 0.42402 0.20834 0.0
C996 C 0.1394 0.44137 0.23869 0.0
C997 C 0.15107 0.4183 0.14214 0.0
H998 H 0.10232 0.45614 0.11495 0.0
H999 H 0.14275 0.44647 0.28872 0.0
C1000 C 0.04608 0.54423 0.27328 0.0
N1001 N 0.00711 0.57674 0.28069 0.0
C1002 C 0.02217 0.53546 0.28273 0.0
C1003 C 0.0502 0.56954 0.26819 0.0
C1004 C 0.00271 0.55219 0.28623 0.0
C1005 C 0.03024 0.58567 0.27184 0.0
C1006 C 0.04681 0.45683 0.2294 0.0
C1007 C 0.02266 0.46469 0.21873 0.0
C1008 C 0.05178 0.43172 0.2359 0.0
C1009 C 0.0038 0.44728 0.21555 0.0
C1010 C 0.0324 0.41488 0.23253 0.0
N1011 N 0.00901 0.42295 0.22254 0.0
C1012 C 0.04788 0.48871 0.08192 0.0
C1013 C 0.03039 0.5271 0.11106 0.0
C1014 C 0.03033 0.48537 0.03327 0.0
N1015 N 0.04728 0.509 0.12053 0.0
C1016 C 0.0125 0.52457 0.06251 0.0
C1017 C 0.01199 0.5032 0.02374 0.0
H1018 H 0.06132 0.47448 0.0912 0.0
H1019 H 0.03027 0.54309 0.14224 0.0
C1020 C 0.0482 0.51278 0.42106 0.0
N1021 N 0.04739 0.49264 0.38195 0.0
C1022 C 0.03066 0.51617 0.46968 0.0
C1023 C 0.01237 0.47729 0.43936 0.0
C1024 C 0.03027 0.47472 0.39086 0.0
C1025 C 0.01208 0.49854 0.47864 0.0
H1026 H 0.06182 0.52688 0.41221 0.0
H1027 H 0.02996 0.45885 0.35926 0.0
O1028 O 0.10505 0.50832 0.17741 0.0
O1029 O 0.10519 0.49358 0.32496 0.0
O1030 O 0.0655 0.52826 0.27019 0.0
O1031 O 0.06565 0.47348 0.23219 0.0
H1032 H 0.14165 0.50643 0.09325 0.0
H1033 H 0.08134 0.55063 0.16206 0.0
H1034 H 0.15192 0.53941 0.01408 0.0
H1035 H 0.09264 0.58281 0.08203 0.0
H1036 H 0.09224 0.41966 0.42287 0.0
H1037 H 0.14296 0.49475 0.40558 0.0
H1038 H 0.08066 0.45192 0.34337 0.0
H1039 H 0.15347 0.46171 0.48437 0.0
H1040 H 0.17381 0.5801 0.27069 0.0
H1041 H 0.12405 0.58247 0.43473 0.0
H1042 H 0.12814 0.42578 0.05798 0.0
H1043 H 0.16955 0.41585 0.23573 0.0
H1044 H 0.01866 0.516 0.28771 0.0
H1045 H 0.06865 0.57663 0.26146 0.0
H1046 H 0.98411 0.54566 0.29349 0.0
H1047 H 0.03315 0.6053 0.26777 0.0
H1048 H 0.01851 0.48398 0.21254 0.0
H1049 H 0.07043 0.42532 0.2435 0.0
H1050 H 0.98502 0.45311 0.20739 0.0
H1051 H 0.03596 0.3954 0.23771 0.0
H1052 H 0.03059 0.4685 0.00526 0.0
H1053 H 0.99905 0.53906 0.05602 0.0
H1054 H 0.03109 0.53293 0.49811 0.0
H1055 H 0.99874 0.46295 0.44539 0.0
Li1056 Li 0.25613 0.18356 0.56001 0.0
Li1057 Li 0.2281 0.15182 0.51739 0.0
Li1058 Li 0.27366 0.1518 0.48495 0.0
Li1059 Li 0.24561 0.18356 0.44226 0.0
C1060 C 0.26582 0.13875 0.63084 0.0
N1061 N 0.28133 0.12101 0.74992 0.0
C1062 C 0.2486 0.13256 0.67862 0.0
C1063 C 0.29089 0.13543 0.64306 0.0
C1064 C 0.25682 0.12377 0.73868 0.0
C1065 C 0.29837 0.12657 0.70374 0.0
C1066 C 0.20064 0.1975 0.51174 0.0
C1067 C 0.16364 0.203 0.44877 0.0
N1068 N 0.15393 0.21674 0.49777 0.0
C1069 C 0.1904 0.21182 0.5613 0.0
C1070 C 0.18727 0.19315 0.45487 0.0
C1071 C 0.16671 0.22132 0.55338 0.0
C1072 C 0.26664 0.22895 0.61814 0.0
N1073 N 0.25877 0.20573 0.63113 0.0
C1074 C 0.24518 0.21798 0.73693 0.0
C1075 C 0.24821 0.19997 0.6891 0.0
C1076 C 0.25266 0.2423 0.72453 0.0
C1077 C 0.26386 0.24757 0.66442 0.0
H1078 H 0.27392 0.23332 0.57056 0.0
H1079 H 0.24103 0.18173 0.69715 0.0
C1080 C 0.20491 0.10638 0.53989 0.0
N1081 N 0.20192 0.13109 0.54623 0.0
C1082 C 0.18868 0.09014 0.57063 0.0
C1083 C 0.16619 0.12507 0.61243 0.0
C1084 C 0.18297 0.14062 0.58136 0.0
C1085 C 0.16919 0.09944 0.60832 0.0
H1086 H 0.22049 0.0993 0.51299 0.0
H1087 H 0.18144 0.16025 0.58785 0.0
C1088 C 0.30105 0.19762 0.49034 0.0
N1089 N 0.34768 0.21711 0.5039 0.0
C1090 C 0.31118 0.21194 0.44062 0.0
C1091 C 0.3145 0.19339 0.54716 0.0
C1092 C 0.33483 0.22157 0.44833 0.0
C1093 C 0.33808 0.20336 0.55305 0.0
C1094 C 0.23603 0.13868 0.37148 0.0
C1095 C 0.25332 0.13255 0.32383 0.0
C1096 C 0.21098 0.13523 0.35911 0.0
C1097 C 0.24519 0.12368 0.26375 0.0
C1098 C 0.20359 0.12631 0.29843 0.0
N1099 N 0.22071 0.1208 0.25237 0.0
C1100 C 0.29657 0.10634 0.46143 0.0
C1101 C 0.31904 0.14058 0.42198 0.0
C1102 C 0.31279 0.0901 0.43064 0.0
N1103 N 0.29983 0.13105 0.45611 0.0
C1104 C 0.33581 0.12503 0.39089 0.0
C1105 C 0.33255 0.09941 0.39395 0.0
H1106 H 0.2808 0.09927 0.48755 0.0
H1107 H 0.3208 0.16023 0.4163 0.0
C1108 C 0.23509 0.22893 0.38408 0.0
N1109 N 0.24297 0.20572 0.37111 0.0
C1110 C 0.23786 0.24755 0.3378 0.0
C1111 C 0.25658 0.21797 0.26533 0.0
C1112 C 0.25355 0.19996 0.31316 0.0
C1113 C 0.24908 0.24228 0.27771 0.0
H1114 H 0.22779 0.2333 0.43165 0.0
H1115 H 0.26075 0.18172 0.30512 0.0
O1116 O 0.2581 0.14698 0.57141 0.0
O1117 O 0.22383 0.18816 0.51875 0.0
O1118 O 0.27791 0.18814 0.48353 0.0
O1119 O 0.24365 0.14698 0.43093 0.0
H1120 H 0.2291 0.13469 0.66955 0.0
H1121 H 0.30441 0.13943 0.6059 0.0
H1122 H 0.24371 0.1191 0.77631 0.0
H1123 H 0.31773 0.12401 0.714 0.0
H1124 H 0.15306 0.1998 0.405 0.0
H1125 H 0.20063 0.21545 0.60548 0.0
H1126 H 0.19516 0.18254 0.41561 0.0
H1127 H 0.15849 0.23235 0.59142 0.0
H1128 H 0.23669 0.21295 0.7827 0.0
H1129 H 0.26951 0.26609 0.65209 0.0
H1130 H 0.19153 0.07051 0.56557 0.0
H1131 H 0.15164 0.13304 0.6416 0.0
H1132 H 0.30089 0.21548 0.39648 0.0
H1133 H 0.3067 0.18277 0.58653 0.0
H1134 H 0.34296 0.2326 0.41017 0.0
H1135 H 0.34871 0.20025 0.59678 0.0
H1136 H 0.2728 0.13478 0.33301 0.0
H1137 H 0.19741 0.13919 0.39617 0.0
H1138 H 0.25836 0.11905 0.22622 0.0
H1139 H 0.18426 0.12364 0.28806 0.0
H1140 H 0.30973 0.07048 0.43488 0.0
H1141 H 0.35058 0.13301 0.36252 0.0
H1142 H 0.23219 0.26607 0.35012 0.0
H1143 H 0.26508 0.21295 0.21957 0.0
Li1144 Li 0.56815 0.50612 0.30997 0.0
Li1145 Li 0.59991 0.47809 0.26728 0.0
Li1146 Li 0.59994 0.52369 0.23505 0.0
Li1147 Li 0.56817 0.49567 0.19222 0.0
C1148 C 0.61304 0.51569 0.38086 0.0
N1149 N 0.63095 0.53103 0.49991 0.0
C1150 C 0.61926 0.49841 0.42845 0.0
C1151 C 0.61641 0.54074 0.39326 0.0
C1152 C 0.62814 0.50654 0.4885 0.0
C1153 C 0.62536 0.54814 0.45391 0.0
C1154 C 0.55412 0.4507 0.26149 0.0
C1155 C 0.54855 0.41373 0.19843 0.0
N1156 N 0.5347 0.40407 0.24728 0.0
C1157 C 0.5397 0.44051 0.31089 0.0
C1158 C 0.5585 0.43731 0.20465 0.0
C1159 C 0.5301 0.41686 0.30285 0.0
C1160 C 0.5227 0.51644 0.36789 0.0
N1161 N 0.54596 0.50874 0.38106 0.0
C1162 C 0.53375 0.49528 0.48701 0.0
C1163 C 0.55176 0.49833 0.43919 0.0
C1164 C 0.5094 0.50259 0.47443 0.0
C1165 C 0.50408 0.51365 0.41416 0.0
H1166 H 0.51831 0.5236 0.3202 0.0
H1167 H 0.57005 0.49127 0.44741 0.0
C1168 C 0.64539 0.45532 0.29123 0.0
N1169 N 0.62068 0.45193 0.29605 0.0
C1170 C 0.66162 0.43911 0.32206 0.0
C1171 C 0.62671 0.41582 0.36079 0.0
C1172 C 0.61115 0.43259 0.32969 0.0
C1173 C 0.65231 0.41922 0.35825 0.0
H1174 H 0.65244 0.47119 0.2655 0.0
H1175 H 0.59149 0.43072 0.33498 0.0
C1176 C 0.55402 0.55103 0.24069 0.0
N1177 N 0.53434 0.59755 0.2549 0.0
C1178 C 0.53959 0.56116 0.19121 0.0
C1179 C 0.55828 0.56442 0.29759 0.0
C1180 C 0.52986 0.58476 0.19925 0.0
C1181 C 0.5482 0.58794 0.30381 0.0
C1182 C 0.61307 0.48615 0.12143 0.0
C1183 C 0.6192 0.5035 0.07391 0.0
C1184 C 0.61653 0.46112 0.1089 0.0
C1185 C 0.62809 0.49544 0.0138 0.0
C1186 C 0.62548 0.4538 0.04819 0.0
N1187 N 0.63099 0.47096 0.00227 0.0
C1188 C 0.64546 0.54604 0.2096 0.0
C1189 C 0.61127 0.56958 0.17433 0.0
C1190 C 0.66169 0.56225 0.17876 0.0
N1191 N 0.62077 0.54984 0.20636 0.0
C1192 C 0.62683 0.58636 0.14328 0.0
C1193 C 0.6524 0.58256 0.1442 0.0
H1194 H 0.65248 0.52987 0.23407 0.0
H1195 H 0.59161 0.5718 0.1703 0.0
C1196 C 0.52281 0.48514 0.13392 0.0
N1197 N 0.54602 0.49306 0.12103 0.0
C1198 C 0.50422 0.4879 0.08758 0.0
C1199 C 0.53379 0.5067 0.01526 0.0
C1200 C 0.55179 0.50367 0.06313 0.0
C1201 C 0.50949 0.49916 0.02755 0.0
H1202 H 0.51844 0.47782 0.18145 0.0
H1203 H 0.57002 0.5109 0.05517 0.0
O1204 O 0.60472 0.50807 0.32143 0.0
O1205 O 0.56357 0.47384 0.26862 0.0
O1206 O 0.5636 0.52795 0.23355 0.0
O1207 O 0.60475 0.49371 0.18092 0.0
H1208 H 0.61708 0.47892 0.41924 0.0
H1209 H 0.61238 0.55432 0.35624 0.0
H1210 H 0.63284 0.49338 0.52598 0.0
H1211 H 0.62796 0.56748 0.46431 0.0
H1212 H 0.55178 0.40314 0.15469 0.0
H1213 H 0.53604 0.45075 0.35504 0.0
H1214 H 0.56922 0.44516 0.16552 0.0
H1215 H 0.51897 0.40869 0.34077 0.0
H1216 H 0.53881 0.48691 0.53291 0.0
H1217 H 0.48553 0.51917 0.4017 0.0
H1218 H 0.68124 0.44227 0.31823 0.0
H1219 H 0.61873 0.40094 0.38877 0.0
H1220 H 0.53603 0.55092 0.14701 0.0
H1221 H 0.569 0.55662 0.33677 0.0
H1222 H 0.51872 0.59289 0.16128 0.0
H1223 H 0.55134 0.59853 0.3476 0.0
H1224 H 0.61695 0.52297 0.08321 0.0
H1225 H 0.61257 0.44751 0.14586 0.0
H1226 H 0.63272 0.50864 0.97637 0.0
H1227 H 0.62816 0.43448 0.03769 0.0
H1228 H 0.68128 0.55877 0.18134 0.0
H1229 H 0.61886 0.60158 0.11659 0.0
H1230 H 0.4857 0.4822 0.09982 0.0
H1231 H 0.53881 0.51524 0.96954 0.0
Li1232 Li 0.24565 0.81821 0.06002 0.0
Li1233 Li 0.27368 0.85 0.01714 0.0
Li1234 Li 0.22805 0.84999 0.98505 0.0
Li1235 Li 0.25605 0.8182 0.94226 0.0
C1236 C 0.23627 0.86323 0.13083 0.0
N1237 N 0.22131 0.8814 0.24993 0.0
C1238 C 0.2537 0.86934 0.17815 0.0
C1239 C 0.21127 0.86682 0.14353 0.0
C1240 C 0.24575 0.87836 0.23823 0.0
C1241 C 0.20407 0.8759 0.2042 0.0
C1242 C 0.30096 0.804 0.01149 0.0
C1243 C 0.33788 0.79809 0.94844 0.0
N1244 N 0.34742 0.78417 0.99732 0.0
C1245 C 0.31103 0.78951 0.06094 0.0
C1246 C 0.31438 0.80824 0.95464 0.0
C1247 C 0.3346 0.7797 0.05292 0.0
C1248 C 0.23532 0.77279 0.11808 0.0
N1249 N 0.24306 0.79605 0.13117 0.0
C1250 C 0.25654 0.78385 0.23713 0.0
C1251 C 0.2535 0.80185 0.18927 0.0
C1252 C 0.24919 0.75951 0.22463 0.0
C1253 C 0.2381 0.75419 0.16439 0.0
H1254 H 0.22813 0.7684 0.07042 0.0
H1255 H 0.26057 0.82013 0.19744 0.0
C1256 C 0.29588 0.8955 0.04334 0.0
N1257 N 0.29983 0.87082 0.0458 0.0
C1258 C 0.31208 0.91171 0.07426 0.0
C1259 C 0.33653 0.87687 0.10818 0.0
C1260 C 0.31975 0.86133 0.07708 0.0
C1261 C 0.33257 0.90242 0.10808 0.0
H1262 H 0.27958 0.90251 0.01945 0.0
H1263 H 0.32212 0.84167 0.08048 0.0
C1264 C 0.20069 0.80413 0.99126 0.0
N1265 N 0.15416 0.78457 0.00642 0.0
C1266 C 0.19047 0.78953 0.94225 0.0
C1267 C 0.18739 0.80861 0.04818 0.0
C1268 C 0.16687 0.77986 0.95077 0.0
C1269 C 0.16386 0.79859 0.05488 0.0
C1270 C 0.2656 0.86307 0.87133 0.0
C1271 C 0.24828 0.86928 0.82381 0.0
C1272 C 0.29064 0.86641 0.85881 0.0
C1273 C 0.25638 0.87813 0.7637 0.0
C1274 C 0.298 0.87533 0.79809 0.0
N1275 N 0.28087 0.88092 0.75217 0.0
C1276 C 0.20566 0.89549 0.95959 0.0
C1277 C 0.18216 0.86129 0.9243 0.0
C1278 C 0.18945 0.91171 0.92869 0.0
N1279 N 0.20189 0.8708 0.95636 0.0
C1280 C 0.16538 0.87683 0.89321 0.0
C1281 C 0.16916 0.9024 0.8941 0.0
H1282 H 0.22183 0.90252 0.98408 0.0
H1283 H 0.17996 0.84162 0.92027 0.0
C1284 C 0.26643 0.77279 0.88415 0.0
N1285 N 0.25863 0.79603 0.87113 0.0
C1286 C 0.26365 0.75419 0.83783 0.0
C1287 C 0.24508 0.78382 0.76525 0.0
C1288 C 0.24812 0.80182 0.81311 0.0
C1289 C 0.2525 0.75949 0.77767 0.0
H1290 H 0.27367 0.7684 0.93176 0.0
H1291 H 0.24099 0.82008 0.80503 0.0
O1292 O 0.24371 0.85479 0.07136 0.0
O1293 O 0.27791 0.81366 0.01861 0.0
O1294 O 0.22378 0.81365 0.98366 0.0
O1295 O 0.25801 0.85478 0.93082 0.0
H1296 H 0.27315 0.86698 0.16873 0.0
H1297 H 0.19759 0.86286 0.10672 0.0
H1298 H 0.25903 0.88299 0.27551 0.0
H1299 H 0.18477 0.87868 0.21483 0.0
H1300 H 0.34849 0.80121 0.90469 0.0
H1301 H 0.30077 0.78596 0.10511 0.0
H1302 H 0.30663 0.81902 0.9155 0.0
H1303 H 0.34268 0.76852 0.09086 0.0
H1304 H 0.26494 0.78891 0.283 0.0
H1305 H 0.23254 0.73564 0.15201 0.0
H1306 H 0.30847 0.93129 0.07231 0.0
H1307 H 0.3519 0.8689 0.13428 0.0
H1308 H 0.20064 0.7858 0.89804 0.0
H1309 H 0.19526 0.81948 0.08699 0.0
H1310 H 0.15867 0.7686 0.91317 0.0
H1311 H 0.15334 0.8019 0.09869 0.0
H1312 H 0.2288 0.86712 0.83311 0.0
H1313 H 0.30424 0.86238 0.89576 0.0
H1314 H 0.24319 0.88283 0.72627 0.0
H1315 H 0.31733 0.87792 0.7876 0.0
H1316 H 0.19292 0.9313 0.93125 0.0
H1317 H 0.15017 0.86885 0.8665 0.0
H1318 H 0.26927 0.73565 0.85017 0.0
H1319 H 0.23663 0.78886 0.71944 0.0
Li1320 Li 0.93356 0.4957 0.80992 0.0
Li1321 Li 0.90177 0.52372 0.76707 0.0
Li1322 Li 0.90181 0.4781 0.73491 0.0
Li1323 Li 0.93358 0.50614 0.69215 0.0
C1324 C 0.88873 0.48612 0.88076 0.0
N1325 N 0.87098 0.47082 0.99999 0.0
C1326 C 0.88256 0.50343 0.92834 0.0
C1327 C 0.8854 0.46108 0.89326 0.0
C1328 C 0.87375 0.49531 0.98849 0.0
C1329 C 0.87653 0.4537 0.954 0.0
C1330 C 0.94774 0.55104 0.76133 0.0
C1331 C 0.95359 0.58792 0.69809 0.0
N1332 N 0.96749 0.59752 0.74694 0.0
C1333 C 0.96221 0.56116 0.81074 0.0
C1334 C 0.94348 0.56441 0.7044 0.0
C1335 C 0.97198 0.58474 0.80261 0.0
C1336 C 0.97892 0.48517 0.86822 0.0
N1337 N 0.95572 0.4931 0.88109 0.0
C1338 C 0.96796 0.50676 0.98685 0.0
C1339 C 0.94996 0.50374 0.93898 0.0
C1340 C 0.99225 0.4992 0.97458 0.0
C1341 C 0.99752 0.48793 0.91455 0.0
H1342 H 0.98329 0.47784 0.8207 0.0
H1343 H 0.93173 0.51097 0.94693 0.0
C1344 C 0.85626 0.54583 0.79345 0.0
N1345 N 0.88093 0.54985 0.79574 0.0
C1346 C 0.84003 0.56203 0.82433 0.0
C1347 C 0.87484 0.58659 0.85789 0.0
C1348 C 0.8904 0.56981 0.82684 0.0
C1349 C 0.8493 0.58257 0.85794 0.0
H1350 H 0.84926 0.52949 0.76971 0.0
H1351 H 0.91006 0.57223 0.83011 0.0
C1352 C 0.9477 0.45077 0.74045 0.0
N1353 N 0.96733 0.4042 0.75418 0.0
C1354 C 0.96211 0.44068 0.69085 0.0
C1355 C 0.94345 0.43731 0.79724 0.0
C1356 C 0.97181 0.41706 0.69865 0.0
C1357 C 0.9535 0.41376 0.80321 0.0
C1358 C 0.88866 0.51566 0.62128 0.0
C1359 C 0.88243 0.49835 0.57378 0.0
C1360 C 0.88528 0.54071 0.6088 0.0
C1361 C 0.87351 0.50645 0.51373 0.0
C1362 C 0.87631 0.54807 0.54814 0.0
N1363 N 0.87069 0.53093 0.50223 0.0
C1364 C 0.85632 0.45557 0.71005 0.0
C1365 C 0.89053 0.43236 0.67349 0.0
C1366 C 0.84009 0.43936 0.67919 0.0
N1367 N 0.88102 0.45194 0.70618 0.0
C1368 C 0.87498 0.41559 0.64241 0.0
C1369 C 0.84939 0.41922 0.64396 0.0
H1370 H 0.84928 0.47162 0.73503 0.0
H1371 H 0.91019 0.43028 0.66896 0.0
C1372 C 0.97905 0.51638 0.63434 0.0
N1373 N 0.95577 0.50876 0.62108 0.0
C1374 C 0.99767 0.51358 0.58808 0.0
C1375 C 0.96796 0.49538 0.51504 0.0
C1376 C 0.94995 0.49843 0.56285 0.0
C1377 C 0.99233 0.50261 0.52772 0.0
H1378 H 0.98345 0.52348 0.68209 0.0
H1379 H 0.93164 0.49144 0.55455 0.0
O1380 O 0.89698 0.49373 0.82125 0.0
O1381 O 0.93811 0.52798 0.76856 0.0
O1382 O 0.93815 0.47387 0.73354 0.0
O1383 O 0.897 0.50807 0.68071 0.0
H1384 H 0.88471 0.52291 0.91907 0.0
H1385 H 0.88941 0.44749 0.85625 0.0
H1386 H 0.86908 0.50848 0.02597 0.0
H1387 H 0.87396 0.43436 0.96448 0.0
H1388 H 0.95046 0.5985 0.65428 0.0
H1389 H 0.96577 0.55094 0.85497 0.0
H1390 H 0.93272 0.55662 0.66528 0.0
H1391 H 0.98314 0.59287 0.84053 0.0
H1392 H 0.96294 0.51531 0.03255 0.0
H1393 H 0.01603 0.48221 0.90233 0.0
H1394 H 0.82046 0.55837 0.82251 0.0
H1395 H 0.8828 0.602 0.88382 0.0
H1396 H 0.96566 0.45097 0.64673 0.0
H1397 H 0.93275 0.44507 0.8365 0.0
H1398 H 0.98291 0.40896 0.66058 0.0
H1399 H 0.95036 0.40312 0.84691 0.0
H1400 H 0.88462 0.47887 0.58305 0.0
H1401 H 0.88933 0.5543 0.64574 0.0
H1402 H 0.8688 0.49327 0.47631 0.0
H1403 H 0.8737 0.5674 0.53767 0.0
H1404 H 0.82048 0.44272 0.68226 0.0
H1405 H 0.88295 0.4005 0.61519 0.0
H1406 H 0.01623 0.51904 0.6006 0.0
H1407 H 0.9629 0.48707 0.46907 0.0
loop_
_geom_bond_atom_site_label_1
_geom_bond_atom_site_label_2
_geom_bond_distance
_geom_bond_site_symmetry_2
_ccdc_geom_bond_type
Li0 N17 1.990 . S
Li0 O60 1.956 1_554 S
Li0 O61 1.970 . S
Li0 O62 1.961 . S
Li1 N25 1.990 . S
Li1 O60 1.970 . S
Li1 O61 1.956 1_556 S
Li1 O63 1.961 . S
Li2 N47 1.990 . S
Li2 O60 1.961 . S
Li2 O62 1.956 1_556 S
Li2 O63 1.970 . S
Li3 N53 1.990 . S
Li3 O61 1.961 . S
Li3 O62 1.970 . S
Li3 O63 1.956 1_554 S
C4 C6 1.348 . S
C4 C7 1.356 . S
C4 O60 1.325 . S
N5 C8 1.314 . S
N5 C9 1.279 . S
C6 C4 1.348 . S
C6 C8 1.353 . S
C6 H64 0.929 . S
C7 C4 1.356 . S
C7 C9 1.358 . S
C7 H65 0.930 . S
C8 N5 1.314 . S
C8 C6 1.353 . S
C8 H66 0.930 . S
C9 N5 1.279 . S
C9 C7 1.358 . S
C9 H67 0.930 . S
C10 C13 1.348 . S
C10 C14 1.356 . S
C10 O61 1.325 . S
C11 N12 1.279 . S
C11 C14 1.358 . S
C11 H68 0.930 . S
N12 C11 1.279 . S
N12 C15 1.314 . S
C13 C10 1.348 . S
C13 C15 1.353 . S
C13 H69 0.929 . S
C14 C10 1.356 . S
C14 C11 1.358 . S
C14 H70 0.930 . S
C15 N12 1.314 . S
C15 C13 1.353 . S
C15 H71 0.930 . S
C16 N17 1.314 . S
C16 C21 1.353 . S
C16 H22 0.930 . S
N17 Li0 1.990 . S
N17 C16 1.314 . S
N17 C19 1.279 1_554 S
C18 C19 1.358 1_554 S
C18 C20 1.356 . S
C18 H72 0.930 1_554 S
C19 N17 1.279 1_556 S
C19 C18 1.358 1_556 S
C19 H23 0.930 . S
C20 C18 1.356 . S
C20 C21 1.348 . S
C21 C16 1.353 . S
C21 C20 1.348 . S
C21 H73 0.929 . S
H22 C16 0.930 . S
H23 C19 0.930 . S
C24 N25 1.314 . S
C24 C26 1.353 . S
C24 H30 0.930 . S
N25 Li1 1.990 . S
N25 C24 1.314 . S
N25 C28 1.279 1_556 S
C26 C24 1.353 . S
C26 C29 1.348 . S
C26 H74 0.929 . S
C27 C28 1.358 1_556 S
C27 C29 1.356 . S
C27 H75 0.930 1_556 S
C28 N25 1.279 1_554 S
C28 C27 1.358 1_554 S
C28 H31 0.930 . S
C29 C26 1.348 . S
C29 C27 1.356 . S
H30 C24 0.930 . S
H31 C28 0.930 . S
C32 C34 1.348 . S
C32 C35 1.356 . S
C32 O62 1.325 . S
N33 C36 1.314 . S
N33 C37 1.279 . S
C34 C32 1.348 . S
C34 C36 1.353 . S
C34 H76 0.929 . S
C35 C32 1.356 . S
C35 C37 1.358 . S
C35 H77 0.930 1_554 S
C36 N33 1.314 . S
C36 C34 1.353 . S
C36 H78 0.930 . S
C37 N33 1.279 . S
C37 C35 1.358 . S
C37 H79 0.930 1_554 S
C38 C39 1.348 . S
C38 C40 1.356 . S
C38 O63 1.325 . S
C39 C38 1.348 . S
C39 C41 1.353 . S
C39 H80 0.929 . S
C40 C38 1.356 . S
C40 C42 1.358 . S
C40 H81 0.930 1_556 S
C41 C39 1.353 . S
C41 N43 1.314 . S
C41 H82 0.930 . S
C42 C40 1.358 . S
C42 N43 1.279 . S
C42 H83 0.930 1_556 S
N43 C41 1.314 . S
N43 C42 1.279 . S
C44 C46 1.353 . S
C44 N47 1.314 . S
C44 H50 0.930 . S
C45 N47 1.279 . S
C45 C48 1.358 . S
C45 H51 0.930 . S
C46 C44 1.353 . S
C46 C49 1.348 . S
C46 H84 0.929 . S
N47 Li2 1.990 . S
N47 C44 1.314 . S
N47 C45 1.279 . S
C48 C45 1.358 . S
C48 C49 1.356 . S
C48 H85 0.930 . S
C49 C46 1.348 . S
C49 C48 1.356 . S
H50 C44 0.930 . S
H51 C45 0.930 . S
C52 N53 1.314 . S
C52 C54 1.353 . S
C52 H58 0.930 . S
N53 Li3 1.990 . S
N53 C52 1.314 . S
N53 C56 1.279 . S
C54 C52 1.353 . S
C54 C57 1.348 . S
C54 H86 0.929 . S
C55 C56 1.358 . S
C55 C57 1.356 . S
C55 H87 0.930 . S
C56 N53 1.279 . S
C56 C55 1.358 . S
C56 H59 0.930 . S
C57 C54 1.348 . S
C57 C55 1.356 . S
H58 C52 0.930 . S
H59 C56 0.930 . S
O60 Li0 1.956 1_556 S
O60 Li1 1.970 . S
O60 Li2 1.961 . S
O60 C4 1.325 . S
O61 Li0 1.970 . S
O61 Li1 1.956 1_554 S
O61 Li3 1.961 . S
O61 C10 1.325 . S
O62 Li0 1.961 . S
O62 Li2 1.956 1_554 S
O62 Li3 1.970 . S
O62 C32 1.325 . S
O63 Li1 1.961 . S
O63 Li2 1.970 . S
O63 Li3 1.956 1_556 S
O63 C38 1.325 . S
H64 C6 0.929 . S
H65 C7 0.930 . S
H66 C8 0.930 . S
H67 C9 0.930 . S
H68 C11 0.930 . S
H69 C13 0.929 . S
H70 C14 0.930 . S
H71 C15 0.930 . S
H72 C18 0.930 1_556 S
H73 C21 0.929 . S
H74 C26 0.929 . S
H75 C27 0.930 1_554 S
H76 C34 0.929 . S
H77 C35 0.930 1_556 S
H78 C36 0.930 . S
H79 C37 0.930 1_556 S
H80 C39 0.929 . S
H81 C40 0.930 1_554 S
H82 C41 0.930 . S
H83 C42 0.930 1_554 S
H84 C46 0.929 . S
H85 C48 0.930 . S
H86 C54 0.929 . S
H87 C55 0.930 . S
Li88 N105 1.990 . S
Li88 O148 1.956 . S
Li88 O149 1.970 1_565 S
Li88 O150 1.961 . S
Li89 N113 1.990 . S
Li89 O148 1.970 1_545 S
Li89 O149 1.956 . S
Li89 O151 1.961 . S
Li90 N135 1.990 . S
Li90 O148 1.961 . S
Li90 O150 1.956 . S
Li90 O151 1.970 1_565 S
Li91 N141 1.990 . S
Li91 O149 1.961 . S
Li91 O150 1.970 1_545 S
Li91 O151 1.956 . S
C92 C94 1.348 . S
C92 C95 1.356 . S
C92 O148 1.325 . S
N93 C96 1.314 . S
N93 C97 1.279 . S
C94 C92 1.348 . S
C94 C96 1.353 . S
C94 H152 0.929 . S
C95 C92 1.356 . S
C95 C97 1.358 . S
C95 H153 0.930 . S
C96 N93 1.314 . S
C96 C94 1.353 . S
C96 H154 0.930 1_655 S
C97 N93 1.279 . S
C97 C95 1.358 . S
C97 H155 0.930 . S
C98 C101 1.348 . S
C98 C102 1.356 . S
C98 O149 1.325 . S
C99 N100 1.279 . S
C99 C102 1.358 . S
C99 H156 0.930 . S
N100 C99 1.279 . S
N100 C103 1.314 . S
C101 C98 1.348 . S
C101 C103 1.353 . S
C101 H157 0.929 . S
C102 C98 1.356 . S
C102 C99 1.358 . S
C102 H158 0.930 . S
C103 N100 1.314 . S
C103 C101 1.353 . S
C103 H159 0.930 1_655 S
C104 N105 1.314 . S
C104 C109 1.351 1_554 S
C104 H110 0.930 1_565 S
N105 Li88 1.990 . S
N105 C104 1.314 . S
N105 C107 1.279 . S
C106 C107 1.358 . S
C106 C108 1.356 . S
C106 H160 0.930 1_655 S
C107 N105 1.279 . S
C107 C106 1.358 . S
C107 H111 0.930 . S
C108 C106 1.356 . S
C108 C109 1.347 1_554 S
C109 C104 1.351 1_556 S
C109 C108 1.347 1_556 S
C109 H161 0.931 . S
H110 C104 0.930 1_545 S
H111 C107 0.930 . S
C112 N113 1.314 . S
C112 C114 1.353 . S
C112 H118 0.930 1_545 S
N113 Li89 1.990 . S
N113 C112 1.314 . S
N113 C116 1.279 . S
C114 C112 1.353 . S
C114 C117 1.348 . S
C114 H162 0.929 . S
C115 C116 1.358 . S
C115 C117 1.356 . S
C115 H163 0.930 1_655 S
C116 N113 1.279 . S
C116 C115 1.358 . S
C116 H119 0.930 . S
C117 C114 1.348 . S
C117 C115 1.356 . S
H118 C112 0.930 1_565 S
H119 C116 0.930 . S
C120 C122 1.332 1_565 S
C120 C123 1.356 . S
C120 O150 1.325 . S
N121 C124 1.314 . S
N121 C125 1.279 . S
C122 C120 1.332 1_545 S
C122 C124 1.344 1_545 S
C122 H164 0.955 . S
C123 C120 1.356 . S
C123 C125 1.358 . S
C123 H165 0.930 . S
C124 N121 1.314 . S
C124 C122 1.344 1_565 S
C124 H166 0.930 1_565 S
C125 N121 1.279 . S
C125 C123 1.358 . S
C125 H167 0.930 . S
C126 C127 1.337 1_545 S
C126 C128 1.356 . S
C126 O151 1.325 . S
C127 C126 1.337 1_565 S
C127 C129 1.347 1_565 S
C127 H168 0.946 . S
C128 C126 1.356 . S
C128 C130 1.358 . S
C128 H169 0.930 . S
C129 C127 1.347 1_545 S
C129 N131 1.314 . S
C129 H170 0.930 1_545 S
C130 C128 1.358 . S
C130 N131 1.279 . S
C130 H171 0.930 . S
N131 C129 1.314 . S
N131 C130 1.279 . S
C132 C134 1.353 . S
C132 N135 1.314 . S
C132 H138 0.930 . S
C133 N135 1.279 . S
C133 C136 1.358 . S
C133 H139 0.930 . S
C134 C132 1.353 . S
C134 C137 1.348 . S
C134 H172 0.929 . S
N135 Li90 1.990 . S
N135 C132 1.314 . S
N135 C133 1.279 . S
C136 C133 1.358 . S
C136 C137 1.356 . S
C136 H173 0.930 . S
C137 C134 1.348 . S
C137 C136 1.356 . S
H138 C132 0.930 . S
H139 C133 0.930 . S
C140 N141 1.314 . S
C140 C142 1.353 . S
C140 H146 0.930 . S
N141 Li91 1.990 . S
N141 C140 1.314 . S
N141 C144 1.279 . S
C142 C140 1.353 . S
C142 C145 1.348 . S
C142 H174 0.929 . S
C143 C144 1.358 . S
C143 C145 1.356 . S
C143 H175 0.930 . S
C144 N141 1.279 . S
C144 C143 1.358 . S
C144 H147 0.930 . S
C145 C142 1.348 . S
C145 C143 1.356 . S
H146 C140 0.930 . S
H147 C144 0.930 . S
O148 Li88 1.956 . S
O148 Li89 1.970 1_565 S
O148 Li90 1.961 . S
O148 C92 1.325 . S
O149 Li88 1.970 1_545 S
O149 Li89 1.956 . S
O149 Li91 1.961 . S
O149 C98 1.325 . S
O150 Li88 1.961 . S
O150 Li90 1.956 . S
O150 Li91 1.970 1_565 S
O150 C120 1.325 . S
O151 Li89 1.961 . S
O151 Li90 1.970 1_545 S
O151 Li91 1.956 . S
O151 C126 1.325 . S
H152 C94 0.929 . S
H153 C95 0.930 . S
H154 C96 0.930 1_455 S
H155 C97 0.930 . S
H156 C99 0.930 . S
H157 C101 0.929 . S
H158 C102 0.930 . S
H159 C103 0.930 1_455 S
H160 C106 0.930 1_455 S
H161 C109 0.931 . S
H162 C114 0.929 . S
H163 C115 0.930 1_455 S
H164 C122 0.955 . S
H165 C123 0.930 . S
H166 C124 0.930 1_545 S
H167 C125 0.930 . S
H168 C127 0.946 . S
H169 C128 0.930 . S
H170 C129 0.930 1_565 S
H171 C130 0.930 . S
H172 C134 0.929 . S
H173 C136 0.930 . S
H174 C142 0.929 . S
H175 C143 0.930 . S
Li176 N193 1.990 . S
Li176 O236 1.956 . S
Li176 O237 1.970 . S
Li176 O238 1.961 . S
Li177 N201 1.990 . S
Li177 O236 1.970 . S
Li177 O237 1.956 . S
Li177 O239 1.961 . S
Li178 N223 1.990 . S
Li178 O236 1.961 . S
Li178 O238 1.956 . S
Li178 O239 1.970 . S
Li179 N229 1.990 . S
Li179 O237 1.961 . S
Li179 O238 1.970 . S
Li179 O239 1.956 . S
C180 C182 1.348 . S
C180 C183 1.356 . S
C180 O236 1.325 . S
N181 C184 1.314 . S
N181 C185 1.279 . S
C182 C180 1.348 . S
C182 C184 1.353 . S
C182 H240 0.929 . S
C183 C180 1.356 . S
C183 C185 1.358 . S
C183 H241 0.930 . S
C184 N181 1.314 . S
C184 C182 1.353 . S
C184 H242 0.930 . S
C185 N181 1.279 . S
C185 C183 1.358 . S
C185 H243 0.930 . S
C186 C189 1.348 . S
C186 C190 1.356 . S
C186 O237 1.325 . S
C187 N188 1.279 . S
C187 C190 1.358 . S
C187 H244 0.930 . S
N188 C187 1.279 . S
N188 C191 1.314 . S
C189 C186 1.348 . S
C189 C191 1.353 . S
C189 H245 0.929 . S
C190 C186 1.356 . S
C190 C187 1.358 . S
C190 H246 0.930 . S
C191 N188 1.314 . S
C191 C189 1.353 . S
C191 H247 0.930 . S
C192 N193 1.314 . S
C192 C197 1.353 . S
C192 H198 0.930 . S
N193 Li176 1.990 . S
N193 C192 1.314 . S
N193 C195 1.279 . S
C194 C195 1.358 . S
C194 C196 1.356 . S
C194 H248 0.930 . S
C195 N193 1.279 . S
C195 C194 1.358 . S
C195 H199 0.930 . S
C196 C194 1.356 . S
C196 C197 1.348 . S
C197 C192 1.353 . S
C197 C196 1.348 . S
C197 H249 0.929 . S
H198 C192 0.930 . S
H199 C195 0.930 . S
C200 N201 1.314 . S
C200 C202 1.353 . S
C200 H206 0.930 . S
N201 Li177 1.990 . S
N201 C200 1.314 . S
N201 C204 1.279 . S
C202 C200 1.353 . S
C202 C205 1.348 . S
C202 H250 0.929 . S
C203 C204 1.358 . S
C203 C205 1.356 . S
C203 H251 0.930 . S
C204 N201 1.279 . S
C204 C203 1.358 . S
C204 H207 0.930 . S
C205 C202 1.348 . S
C205 C203 1.356 . S
H206 C200 0.930 . S
H207 C204 0.930 . S
C208 C210 1.348 . S
C208 C211 1.356 . S
C208 O238 1.325 . S
N209 C212 1.314 . S
N209 C213 1.279 . S
C210 C208 1.348 . S
C210 C212 1.353 . S
C210 H252 0.929 . S
C211 C208 1.356 . S
C211 C213 1.358 . S
C211 H253 0.930 . S
C212 N209 1.314 . S
C212 C210 1.353 . S
C212 H254 0.930 . S
C213 N209 1.279 . S
C213 C211 1.358 . S
C213 H255 0.930 . S
C214 C215 1.348 . S
C214 C216 1.356 . S
C214 O239 1.325 . S
C215 C214 1.348 . S
C215 C217 1.353 . S
C215 H256 0.929 . S
C216 C214 1.356 . S
C216 C218 1.358 . S
C216 H257 0.930 . S
C217 C215 1.353 . S
C217 N219 1.314 . S
C217 H258 0.930 . S
C218 C216 1.358 . S
C218 N219 1.279 . S
C218 H259 0.930 . S
N219 C217 1.314 . S
N219 C218 1.279 . S
C220 C222 1.353 . S
C220 N223 1.314 . S
C220 H226 0.930 . S
C221 N223 1.279 . S
C221 C224 1.358 . S
C221 H227 0.930 . S
C222 C220 1.353 . S
C222 C225 1.348 . S
C222 H260 0.929 . S
N223 Li178 1.990 . S
N223 C220 1.314 . S
N223 C221 1.279 . S
C224 C221 1.358 . S
C224 C225 1.356 . S
C224 H261 0.930 . S
C225 C222 1.348 . S
C225 C224 1.356 . S
H226 C220 0.930 . S
H227 C221 0.930 . S
C228 N229 1.314 . S
C228 C230 1.353 . S
C228 H234 0.930 . S
N229 Li179 1.990 . S
N229 C228 1.314 . S
N229 C232 1.279 . S
C230 C228 1.353 . S
C230 C233 1.348 . S
C230 H262 0.929 . S
C231 C232 1.358 . S
C231 C233 1.356 . S
C231 H263 0.930 . S
C232 N229 1.279 . S
C232 C231 1.358 . S
C232 H235 0.930 . S
C233 C230 1.348 . S
C233 C231 1.356 . S
H234 C228 0.930 . S
H235 C232 0.930 . S
O236 Li176 1.956 . S
O236 Li177 1.970 . S
O236 Li178 1.961 . S
O236 C180 1.325 . S
O237 Li176 1.970 . S
O237 Li177 1.956 . S
O237 Li179 1.961 . S
O237 C186 1.325 . S
O238 Li176 1.961 . S
O238 Li178 1.956 . S
O238 Li179 1.970 . S
O238 C208 1.325 . S
O239 Li177 1.961 . S
O239 Li178 1.970 . S
O239 Li179 1.956 . S
O239 C214 1.325 . S
H240 C182 0.929 . S
H241 C183 0.930 . S
H242 C184 0.930 . S
H243 C185 0.930 . S
H244 C187 0.930 . S
H245 C189 0.929 . S
H246 C190 0.930 . S
H247 C191 0.930 . S
H248 C194 0.930 . S
H249 C197 0.929 . S
H250 C202 0.929 . S
H251 C203 0.930 . S
H252 C210 0.929 . S
H253 C211 0.930 . S
H254 C212 0.930 . S
H255 C213 0.930 . S
H256 C215 0.929 . S
H257 C216 0.930 . S
H258 C217 0.930 . S
H259 C218 0.930 . S
H260 C222 0.929 . S
H261 C224 0.930 . S
H262 C230 0.929 . S
H263 C231 0.930 . S
Li264 N281 1.990 . S
Li264 O324 1.956 . S
Li264 O325 1.970 1_565 S
Li264 O326 1.961 . S
Li265 N289 1.990 . S
Li265 O324 1.970 1_545 S
Li265 O325 1.956 . S
Li265 O327 1.961 . S
Li266 N311 1.990 . S
Li266 O324 1.961 . S
Li266 O326 1.956 . S
Li266 O327 1.970 1_565 S
Li267 N317 1.990 . S
Li267 O325 1.961 . S
Li267 O326 1.970 1_545 S
Li267 O327 1.956 . S
C268 C270 1.332 1_565 S
C268 C271 1.356 . S
C268 O324 1.325 . S
N269 C272 1.314 . S
N269 C273 1.279 . S
C270 C268 1.332 1_545 S
C270 C272 1.344 1_545 S
C270 H328 0.955 . S
C271 C268 1.356 . S
C271 C273 1.358 . S
C271 H329 0.930 . S
C272 N269 1.314 . S
C272 C270 1.344 1_565 S
C272 H330 0.930 1_565 S
C273 N269 1.279 . S
C273 C271 1.358 . S
C273 H331 0.930 . S
C274 C277 1.337 1_545 S
C274 C278 1.356 . S
C274 O325 1.325 . S
C275 N276 1.279 . S
C275 C278 1.358 . S
C275 H332 0.930 . S
N276 C275 1.279 . S
N276 C279 1.314 . S
C277 C274 1.337 1_565 S
C277 C279 1.347 1_565 S
C277 H333 0.946 . S
C278 C274 1.356 . S
C278 C275 1.358 . S
C278 H334 0.930 . S
C279 N276 1.314 . S
C279 C277 1.347 1_545 S
C279 H335 0.930 1_545 S
C280 N281 1.314 . S
C280 C285 1.353 . S
C280 H286 0.930 . S
N281 Li264 1.990 . S
N281 C280 1.314 . S
N281 C283 1.279 . S
C282 C283 1.358 . S
C282 C284 1.356 . S
C282 H336 0.930 . S
C283 N281 1.279 . S
C283 C282 1.358 . S
C283 H287 0.930 . S
C284 C282 1.356 . S
C284 C285 1.348 . S
C285 C280 1.353 . S
C285 C284 1.348 . S
C285 H337 0.929 . S
H286 C280 0.930 . S
H287 C283 0.930 . S
C288 N289 1.314 . S
C288 C290 1.353 . S
C288 H294 0.930 . S
N289 Li265 1.990 . S
N289 C288 1.314 . S
N289 C292 1.279 . S
C290 C288 1.353 . S
C290 C293 1.348 . S
C290 H338 0.929 . S
C291 C292 1.358 . S
C291 C293 1.356 . S
C291 H339 0.930 . S
C292 N289 1.279 . S
C292 C291 1.358 . S
C292 H295 0.930 . S
C293 C290 1.348 . S
C293 C291 1.356 . S
H294 C288 0.930 . S
H295 C292 0.930 . S
C296 C298 1.348 . S
C296 C299 1.356 . S
C296 O326 1.325 . S
N297 C300 1.314 . S
N297 C301 1.279 . S
C298 C296 1.348 . S
C298 C300 1.353 . S
C298 H340 0.929 . S
C299 C296 1.356 . S
C299 C301 1.358 . S
C299 H341 0.930 . S
C300 N297 1.314 . S
C300 C298 1.353 . S
C300 H342 0.930 . S
C301 N297 1.279 . S
C301 C299 1.358 . S
C301 H343 0.930 . S
C302 C303 1.348 . S
C302 C304 1.356 . S
C302 O327 1.325 . S
C303 C302 1.348 . S
C303 C305 1.353 . S
C303 H344 0.929 . S
C304 C302 1.356 . S
C304 C306 1.358 . S
C304 H345 0.930 . S
C305 C303 1.353 . S
C305 N307 1.314 . S
C305 H346 0.930 . S
C306 C304 1.358 . S
C306 N307 1.279 . S
C306 H347 0.930 . S
N307 C305 1.314 . S
N307 C306 1.279 . S
C308 C310 1.351 1_556 S
C308 N311 1.314 . S
C308 H314 0.930 1_565 S
C309 N311 1.279 . S
C309 C312 1.358 . S
C309 H315 0.930 . S
C310 C308 1.351 1_554 S
C310 C313 1.347 1_554 S
C310 H348 0.931 . S
N311 Li266 1.990 . S
N311 C308 1.314 . S
N311 C309 1.279 . S
C312 C309 1.358 . S
C312 C313 1.356 . S
C312 H349 0.930 . S
C313 C310 1.347 1_556 S
C313 C312 1.356 . S
H314 C308 0.930 1_545 S
H315 C309 0.930 . S
C316 N317 1.314 . S
C316 C318 1.353 . S
C316 H322 0.930 1_545 S
N317 Li267 1.990 . S
N317 C316 1.314 . S
N317 C320 1.279 . S
C318 C316 1.353 . S
C318 C321 1.348 . S
C318 H350 0.929 . S
C319 C320 1.358 . S
C319 C321 1.356 . S
C319 H351 0.930 . S
C320 N317 1.279 . S
C320 C319 1.358 . S
C320 H323 0.930 . S
C321 C318 1.348 . S
C321 C319 1.356 . S
H322 C316 0.930 1_565 S
H323 C320 0.930 . S
O324 Li264 1.956 . S
O324 Li265 1.970 1_565 S
O324 Li266 1.961 . S
O324 C268 1.325 . S
O325 Li264 1.970 1_545 S
O325 Li265 1.956 . S
O325 Li267 1.961 . S
O325 C274 1.325 . S
O326 Li264 1.961 . S
O326 Li266 1.956 . S
O326 Li267 1.970 1_565 S
O326 C296 1.325 . S
O327 Li265 1.961 . S
O327 Li266 1.970 1_545 S
O327 Li267 1.956 . S
O327 C302 1.325 . S
H328 C270 0.955 . S
H329 C271 0.930 . S
H330 C272 0.930 1_545 S
H331 C273 0.930 . S
H332 C275 0.930 . S
H333 C277 0.946 . S
H334 C278 0.930 . S
H335 C279 0.930 1_565 S
H336 C282 0.930 . S
H337 C285 0.929 . S
H338 C290 0.929 . S
H339 C291 0.930 . S
H340 C298 0.929 . S
H341 C299 0.930 . S
H342 C300 0.930 . S
H343 C301 0.930 . S
H344 C303 0.929 . S
H345 C304 0.930 . S
H346 C305 0.930 . S
H347 C306 0.930 . S
H348 C310 0.931 . S
H349 C312 0.930 . S
H350 C318 0.929 . S
H351 C319 0.930 . S
Li352 N369 1.990 . S
Li352 O412 1.956 . S
Li352 O413 1.970 . S
Li352 O414 1.961 1_554 S
Li353 N377 1.990 . S
Li353 O412 1.970 . S
Li353 O413 1.956 . S
Li353 O415 1.961 1_554 S
Li354 N399 1.990 . S
Li354 O412 1.961 1_556 S
Li354 O414 1.956 . S
Li354 O415 1.970 . S
Li355 N405 1.990 . S
Li355 O413 1.961 1_556 S
Li355 O414 1.970 . S
Li355 O415 1.956 . S
C356 C358 1.348 . S
C356 C359 1.356 . S
C356 O412 1.325 . S
N357 C360 1.314 . S
N357 C361 1.279 . S
C358 C356 1.348 . S
C358 C360 1.353 . S
C358 H416 0.929 . S
C359 C356 1.356 . S
C359 C361 1.358 . S
C359 H417 0.930 . S
C360 N357 1.314 . S
C360 C358 1.353 . S
C360 H418 0.930 . S
C361 N357 1.279 . S
C361 C359 1.358 . S
C361 H419 0.930 . S
C362 C365 1.348 . S
C362 C366 1.356 1_554 S
C362 O413 1.325 . S
C363 N364 1.279 . S
C363 C366 1.358 1_554 S
C363 H420 0.930 1_554 S
N364 C363 1.279 . S
N364 C367 1.314 . S
C365 C362 1.348 . S
C365 C367 1.353 . S
C365 H421 0.929 . S
C366 C362 1.356 1_556 S
C366 C363 1.358 1_556 S
C366 H422 0.930 . S
C367 N364 1.314 . S
C367 C365 1.353 . S
C367 H423 0.930 . S
C368 N369 1.314 . S
C368 C373 1.353 . S
C368 H374 0.930 . S
N369 Li352 1.990 . S
N369 C368 1.314 . S
N369 C371 1.279 . S
C370 C371 1.358 . S
C370 C372 1.356 . S
C370 H424 0.930 . S
C371 N369 1.279 . S
C371 C370 1.358 . S
C371 H375 0.930 . S
C372 C370 1.356 . S
C372 C373 1.348 . S
C373 C368 1.353 . S
C373 C372 1.348 . S
C373 H425 0.929 . S
H374 C368 0.930 . S
H375 C371 0.930 . S
C376 N377 1.314 . S
C376 C378 1.353 . S
C376 H382 0.930 1_554 S
N377 Li353 1.990 . S
N377 C376 1.314 . S
N377 C380 1.279 . S
C378 C376 1.353 . S
C378 C381 1.348 . S
C378 H426 0.929 . S
C379 C380 1.358 . S
C379 C381 1.356 . S
C379 H427 0.930 . S
C380 N377 1.279 . S
C380 C379 1.358 . S
C380 H383 0.930 . S
C381 C378 1.348 . S
C381 C379 1.356 . S
H382 C376 0.930 1_556 S
H383 C380 0.930 . S
C384 C386 1.348 . S
C384 C387 1.356 1_556 S
C384 O414 1.325 . S
N385 C388 1.314 . S
N385 C389 1.279 . S
C386 C384 1.348 . S
C386 C388 1.353 . S
C386 H428 0.929 . S
C387 C384 1.356 1_554 S
C387 C389 1.358 1_554 S
C387 H429 0.930 . S
C388 N385 1.314 . S
C388 C386 1.353 . S
C388 H430 0.930 . S
C389 N385 1.279 . S
C389 C387 1.358 1_556 S
C389 H431 0.930 1_556 S
C390 C391 1.348 . S
C390 C392 1.356 . S
C390 O415 1.325 . S
C391 C390 1.348 . S
C391 C393 1.353 . S
C391 H432 0.929 . S
C392 C390 1.356 . S
C392 C394 1.358 . S
C392 H433 0.930 . S
C393 C391 1.353 . S
C393 N395 1.314 . S
C393 H434 0.930 . S
C394 C392 1.358 . S
C394 N395 1.279 . S
C394 H435 0.930 . S
N395 C393 1.314 . S
N395 C394 1.279 . S
C396 C398 1.353 . S
C396 N399 1.314 . S
C396 H402 0.930 1_556 S
C397 N399 1.279 . S
C397 C400 1.358 . S
C397 H403 0.930 . S
C398 C396 1.353 . S
C398 C401 1.348 . S
C398 H436 0.929 . S
N399 Li354 1.990 . S
N399 C396 1.314 . S
N399 C397 1.279 . S
C400 C397 1.358 . S
C400 C401 1.356 . S
C400 H437 0.930 . S
C401 C398 1.348 . S
C401 C400 1.356 . S
H402 C396 0.930 1_554 S
H403 C397 0.930 . S
C404 N405 1.314 . S
C404 C406 1.353 . S
C404 H410 0.930 . S
N405 Li355 1.990 . S
N405 C404 1.314 . S
N405 C408 1.279 . S
C406 C404 1.353 . S
C406 C409 1.348 . S
C406 H438 0.929 . S
C407 C408 1.358 . S
C407 C409 1.356 . S
C407 H439 0.930 . S
C408 N405 1.279 . S
C408 C407 1.358 . S
C408 H411 0.930 . S
C409 C406 1.348 . S
C409 C407 1.356 . S
H410 C404 0.930 . S
H411 C408 0.930 . S
O412 Li352 1.956 . S
O412 Li353 1.970 . S
O412 Li354 1.961 1_554 S
O412 C356 1.325 . S
O413 Li352 1.970 . S
O413 Li353 1.956 . S
O413 Li355 1.961 1_554 S
O413 C362 1.325 . S
O414 Li352 1.961 1_556 S
O414 Li354 1.956 . S
O414 Li355 1.970 . S
O414 C384 1.325 . S
O415 Li353 1.961 1_556 S
O415 Li354 1.970 . S
O415 Li355 1.956 . S
O415 C390 1.325 . S
H416 C358 0.929 . S
H417 C359 0.930 . S
H418 C360 0.930 . S
H419 C361 0.930 . S
H420 C363 0.930 1_556 S
H421 C365 0.929 . S
H422 C366 0.930 . S
H423 C367 0.930 . S
H424 C370 0.930 . S
H425 C373 0.929 . S
H426 C378 0.929 . S
H427 C379 0.930 . S
H428 C386 0.929 . S
H429 C387 0.930 . S
H430 C388 0.930 . S
H431 C389 0.930 1_554 S
H432 C391 0.929 . S
H433 C392 0.930 . S
H434 C393 0.930 . S
H435 C394 0.930 . S
H436 C398 0.929 . S
H437 C400 0.930 . S
H438 C406 0.929 . S
H439 C407 0.930 . S
Li440 N457 1.990 . S
Li440 O500 1.956 . S
Li440 O501 1.970 1_565 S
Li440 O502 1.961 . S
Li441 N465 1.990 . S
Li441 O500 1.970 1_545 S
Li441 O501 1.956 . S
Li441 O503 1.961 . S
Li442 N487 1.990 . S
Li442 O500 1.961 . S
Li442 O502 1.956 . S
Li442 O503 1.970 1_565 S
Li443 N493 1.990 . S
Li443 O501 1.961 . S
Li443 O502 1.970 1_545 S
Li443 O503 1.956 . S
C444 C446 1.348 . S
C444 C447 1.356 . S
C444 O500 1.325 . S
N445 C448 1.314 . S
N445 C449 1.279 . S
C446 C444 1.348 . S
C446 C448 1.353 . S
C446 H504 0.929 . S
C447 C444 1.356 . S
C447 C449 1.358 . S
C447 H505 0.930 . S
C448 N445 1.314 . S
C448 C446 1.353 . S
C448 H506 0.930 . S
C449 N445 1.279 . S
C449 C447 1.358 . S
C449 H507 0.930 . S
C450 C453 1.348 1_545 S
C450 C454 1.356 . S
C450 O501 1.325 . S
C451 N452 1.279 . S
C451 C454 1.358 . S
C451 H508 0.930 . S
N452 C451 1.279 . S
N452 C455 1.314 . S
C453 C450 1.348 1_565 S
C453 C455 1.353 1_565 S
C453 H509 0.929 . S
C454 C450 1.356 . S
C454 C451 1.358 . S
C454 H510 0.930 . S
C455 N452 1.314 . S
C455 C453 1.353 1_545 S
C455 H511 0.930 1_545 S
C456 N457 1.314 . S
C456 C461 1.353 . S
C456 H462 0.930 . S
N457 Li440 1.990 . S
N457 C456 1.314 . S
N457 C459 1.279 . S
C458 C459 1.358 . S
C458 C460 1.356 . S
C458 H512 0.930 . S
C459 N457 1.279 . S
C459 C458 1.358 . S
C459 H463 0.930 . S
C460 C458 1.356 . S
C460 C461 1.348 . S
C461 C456 1.353 . S
C461 C460 1.348 . S
C461 H513 0.929 . S
H462 C456 0.930 . S
H463 C459 0.930 . S
C464 N465 1.314 . S
C464 C466 1.353 . S
C464 H470 0.930 . S
N465 Li441 1.990 . S
N465 C464 1.314 . S
N465 C468 1.279 . S
C466 C464 1.353 . S
C466 C469 1.348 . S
C466 H514 0.929 1_455 S
C467 C468 1.358 1_554 S
C467 C469 1.356 1_554 S
C467 H515 0.930 . S
C468 N465 1.279 . S
C468 C467 1.358 1_556 S
C468 H471 0.930 . S
C469 C466 1.348 . S
C469 C467 1.356 1_556 S
H470 C464 0.930 . S
H471 C468 0.930 . S
C472 C474 1.348 1_565 S
C472 C475 1.356 . S
C472 O502 1.325 . S
N473 C476 1.314 . S
N473 C477 1.279 . S
C474 C472 1.348 1_545 S
C474 C476 1.353 1_545 S
C474 H516 0.929 . S
C475 C472 1.356 . S
C475 C477 1.358 . S
C475 H517 0.930 . S
C476 N473 1.314 . S
C476 C474 1.353 1_565 S
C476 H518 0.930 1_565 S
C477 N473 1.279 . S
C477 C475 1.358 . S
C477 H519 0.930 . S
C478 C479 1.348 . S
C478 C480 1.356 . S
C478 O503 1.325 . S
C479 C478 1.348 . S
C479 C481 1.353 . S
C479 H520 0.929 . S
C480 C478 1.356 . S
C480 C482 1.358 . S
C480 H521 0.930 . S
C481 C479 1.353 . S
C481 N483 1.314 . S
C481 H522 0.930 . S
C482 C480 1.358 . S
C482 N483 1.279 . S
C482 H523 0.930 . S
N483 C481 1.314 . S
N483 C482 1.279 . S
C484 C486 1.353 . S
C484 N487 1.314 . S
C484 H490 0.930 . S
C485 N487 1.279 . S
C485 C488 1.358 . S
C485 H491 0.930 . S
C486 C484 1.353 . S
C486 C489 1.348 . S
C486 H524 0.929 1_455 S
N487 Li442 1.990 . S
N487 C484 1.314 . S
N487 C485 1.279 . S
C488 C485 1.358 . S
C488 C489 1.356 . S
C488 H525 0.930 . S
C489 C486 1.348 . S
C489 C488 1.356 . S
H490 C484 0.930 . S
H491 C485 0.930 . S
C492 N493 1.314 . S
C492 C494 1.353 . S
C492 H498 0.930 . S
N493 Li443 1.990 . S
N493 C492 1.314 . S
N493 C496 1.279 . S
C494 C492 1.353 . S
C494 C497 1.348 . S
C494 H526 0.929 . S
C495 C496 1.358 . S
C495 C497 1.356 . S
C495 H527 0.930 . S
C496 N493 1.279 . S
C496 C495 1.358 . S
C496 H499 0.930 . S
C497 C494 1.348 . S
C497 C495 1.356 . S
H498 C492 0.930 . S
H499 C496 0.930 . S
O500 Li440 1.956 . S
O500 Li441 1.970 1_565 S
O500 Li442 1.961 . S
O500 C444 1.325 . S
O501 Li440 1.970 1_545 S
O501 Li441 1.956 . S
O501 Li443 1.961 . S
O501 C450 1.325 . S
O502 Li440 1.961 . S
O502 Li442 1.956 . S
O502 Li443 1.970 1_565 S
O502 C472 1.325 . S
O503 Li441 1.961 . S
O503 Li442 1.970 1_545 S
O503 Li443 1.956 . S
O503 C478 1.325 . S
H504 C446 0.929 . S
H505 C447 0.930 . S
H506 C448 0.930 . S
H507 C449 0.930 . S
H508 C451 0.930 . S
H509 C453 0.929 . S
H510 C454 0.930 . S
H511 C455 0.930 1_565 S
H512 C458 0.930 . S
H513 C461 0.929 . S
H514 C466 0.929 1_655 S
H515 C467 0.930 . S
H516 C474 0.929 . S
H517 C475 0.930 . S
H518 C476 0.930 1_545 S
H519 C477 0.930 . S
H520 C479 0.929 . S
H521 C480 0.930 . S
H522 C481 0.930 . S
H523 C482 0.930 . S
H524 C486 0.929 1_655 S
H525 C488 0.930 . S
H526 C494 0.929 . S
H527 C495 0.930 . S
Li528 N545 1.990 . S
Li528 O588 1.956 . S
Li528 O589 1.970 . S
Li528 O590 1.961 . S
Li529 N553 1.990 . S
Li529 O588 1.970 . S
Li529 O589 1.956 . S
Li529 O591 1.961 . S
Li530 N575 1.990 . S
Li530 O588 1.961 . S
Li530 O590 1.956 . S
Li530 O591 1.970 . S
Li531 N581 1.990 . S
Li531 O589 1.961 . S
Li531 O590 1.970 . S
Li531 O591 1.956 . S
C532 C534 1.348 . S
C532 C535 1.356 . S
C532 O588 1.325 . S
N533 C536 1.314 . S
N533 C537 1.279 . S
C534 C532 1.348 . S
C534 C536 1.353 . S
C534 H592 0.929 . S
C535 C532 1.356 . S
C535 C537 1.358 . S
C535 H593 0.930 . S
C536 N533 1.314 . S
C536 C534 1.353 . S
C536 H594 0.930 . S
C537 N533 1.279 . S
C537 C535 1.358 . S
C537 H595 0.930 . S
C538 C541 1.348 . S
C538 C542 1.356 . S
C538 O589 1.325 . S
C539 N540 1.279 . S
C539 C542 1.358 . S
C539 H596 0.930 . S
N540 C539 1.279 . S
N540 C543 1.314 . S
C541 C538 1.348 . S
C541 C543 1.353 . S
C541 H597 0.929 . S
C542 C538 1.356 . S
C542 C539 1.358 . S
C542 H598 0.930 . S
C543 N540 1.314 . S
C543 C541 1.353 . S
C543 H599 0.930 . S
C544 N545 1.314 . S
C544 C549 1.353 . S
C544 H550 0.930 . S
N545 Li528 1.990 . S
N545 C544 1.314 . S
N545 C547 1.279 . S
C546 C547 1.358 . S
C546 C548 1.356 . S
C546 H600 0.930 . S
C547 N545 1.279 . S
C547 C546 1.358 . S
C547 H551 0.930 . S
C548 C546 1.356 . S
C548 C549 1.348 . S
C549 C544 1.353 . S
C549 C548 1.348 . S
C549 H601 0.929 . S
H550 C544 0.930 . S
H551 C547 0.930 . S
C552 N553 1.314 . S
C552 C554 1.353 . S
C552 H558 0.930 . S
N553 Li529 1.990 . S
N553 C552 1.314 . S
N553 C556 1.279 . S
C554 C552 1.353 . S
C554 C557 1.348 . S
C554 H602 0.929 . S
C555 C556 1.358 . S
C555 C557 1.356 . S
C555 H603 0.930 . S
C556 N553 1.279 . S
C556 C555 1.358 . S
C556 H559 0.930 . S
C557 C554 1.348 . S
C557 C555 1.356 . S
H558 C552 0.930 . S
H559 C556 0.930 . S
C560 C562 1.348 . S
C560 C563 1.356 . S
C560 O590 1.325 . S
N561 C564 1.314 . S
N561 C565 1.279 . S
C562 C560 1.348 . S
C562 C564 1.353 . S
C562 H604 0.929 . S
C563 C560 1.356 . S
C563 C565 1.358 . S
C563 H605 0.930 . S
C564 N561 1.314 . S
C564 C562 1.353 . S
C564 H606 0.930 . S
C565 N561 1.279 . S
C565 C563 1.358 . S
C565 H607 0.930 . S
C566 C567 1.348 . S
C566 C568 1.356 . S
C566 O591 1.325 . S
C567 C566 1.348 . S
C567 C569 1.353 . S
C567 H608 0.929 . S
C568 C566 1.356 . S
C568 C570 1.358 . S
C568 H609 0.930 . S
C569 C567 1.353 . S
C569 N571 1.314 . S
C569 H610 0.930 . S
C570 C568 1.358 . S
C570 N571 1.279 . S
C570 H611 0.930 . S
N571 C569 1.314 . S
N571 C570 1.279 . S
C572 C574 1.353 . S
C572 N575 1.314 . S
C572 H578 0.930 . S
C573 N575 1.279 . S
C573 C576 1.358 . S
C573 H579 0.930 . S
C574 C572 1.353 . S
C574 C577 1.348 . S
C574 H612 0.929 . S
N575 Li530 1.990 . S
N575 C572 1.314 . S
N575 C573 1.279 . S
C576 C573 1.358 . S
C576 C577 1.356 . S
C576 H613 0.930 . S
C577 C574 1.348 . S
C577 C576 1.356 . S
H578 C572 0.930 . S
H579 C573 0.930 . S
C580 N581 1.314 . S
C580 C582 1.353 . S
C580 H586 0.930 . S
N581 Li531 1.990 . S
N581 C580 1.314 . S
N581 C584 1.279 . S
C582 C580 1.353 . S
C582 C585 1.348 . S
C582 H614 0.929 . S
C583 C584 1.358 . S
C583 C585 1.356 . S
C583 H615 0.930 . S
C584 N581 1.279 . S
C584 C583 1.358 . S
C584 H587 0.930 . S
C585 C582 1.348 . S
C585 C583 1.356 . S
H586 C580 0.930 . S
H587 C584 0.930 . S
O588 Li528 1.956 . S
O588 Li529 1.970 . S
O588 Li530 1.961 . S
O588 C532 1.325 . S
O589 Li528 1.970 . S
O589 Li529 1.956 . S
O589 Li531 1.961 . S
O589 C538 1.325 . S
O590 Li528 1.961 . S
O590 Li530 1.956 . S
O590 Li531 1.970 . S
O590 C560 1.325 . S
O591 Li529 1.961 . S
O591 Li530 1.970 . S
O591 Li531 1.956 . S
O591 C566 1.325 . S
H592 C534 0.929 . S
H593 C535 0.930 . S
H594 C536 0.930 . S
H595 C537 0.930 . S
H596 C539 0.930 . S
H597 C541 0.929 . S
H598 C542 0.930 . S
H599 C543 0.930 . S
H600 C546 0.930 . S
H601 C549 0.929 . S
H602 C554 0.929 . S
H603 C555 0.930 . S
H604 C562 0.929 . S
H605 C563 0.930 . S
H606 C564 0.930 . S
H607 C565 0.930 . S
H608 C567 0.929 . S
H609 C568 0.930 . S
H610 C569 0.930 . S
H611 C570 0.930 . S
H612 C574 0.929 . S
H613 C576 0.930 . S
H614 C582 0.929 . S
H615 C583 0.930 . S
Li616 N633 1.990 . S
Li616 O676 1.956 . S
Li616 O677 1.970 1_545 S
Li616 O678 1.961 . S
Li617 N641 1.990 . S
Li617 O676 1.970 1_565 S
Li617 O677 1.956 . S
Li617 O679 1.961 . S
Li618 N663 1.990 . S
Li618 O676 1.961 . S
Li618 O678 1.956 . S
Li618 O679 1.970 1_545 S
Li619 N669 1.990 . S
Li619 O677 1.961 . S
Li619 O678 1.970 1_565 S
Li619 O679 1.956 . S
C620 C622 1.348 . S
C620 C623 1.356 . S
C620 O676 1.325 . S
N621 C624 1.314 . S
N621 C625 1.279 . S
C622 C620 1.348 . S
C622 C624 1.353 . S
C622 H680 0.929 . S
C623 C620 1.356 . S
C623 C625 1.358 . S
C623 H681 0.930 . S
C624 N621 1.314 . S
C624 C622 1.353 . S
C624 H682 0.930 . S
C625 N621 1.279 . S
C625 C623 1.358 . S
C625 H683 0.930 . S
C626 C629 1.348 1_565 S
C626 C630 1.356 . S
C626 O677 1.325 . S
C627 N628 1.279 . S
C627 C630 1.358 . S
C627 H684 0.930 . S
N628 C627 1.279 . S
N628 C631 1.314 . S
C629 C626 1.348 1_545 S
C629 C631 1.353 1_545 S
C629 H685 0.929 . S
C630 C626 1.356 . S
C630 C627 1.358 . S
C630 H686 0.930 . S
C631 N628 1.314 . S
C631 C629 1.353 1_565 S
C631 H687 0.930 1_565 S
C632 N633 1.314 . S
C632 C637 1.353 . S
C632 H638 0.930 . S
N633 Li616 1.990 . S
N633 C632 1.314 . S
N633 C635 1.279 . S
C634 C635 1.358 . S
C634 C636 1.356 . S
C634 H688 0.930 . S
C635 N633 1.279 . S
C635 C634 1.358 . S
C635 H639 0.930 . S
C636 C634 1.356 . S
C636 C637 1.348 . S
C637 C632 1.353 . S
C637 C636 1.348 . S
C637 H689 0.929 . S
H638 C632 0.930 . S
H639 C635 0.930 . S
C640 N641 1.314 . S
C640 C642 1.353 . S
C640 H646 0.930 . S
N641 Li617 1.990 . S
N641 C640 1.314 . S
N641 C644 1.279 . S
C642 C640 1.353 . S
C642 C645 1.348 . S
C642 H690 0.929 . S
C643 C644 1.358 . S
C643 C645 1.356 . S
C643 H691 0.930 . S
C644 N641 1.279 . S
C644 C643 1.358 . S
C644 H647 0.930 . S
C645 C642 1.348 . S
C645 C643 1.356 . S
H646 C640 0.930 . S
H647 C644 0.930 . S
C648 C650 1.348 1_545 S
C648 C651 1.356 . S
C648 O678 1.325 . S
N649 C652 1.314 . S
N649 C653 1.279 . S
C650 C648 1.348 1_565 S
C650 C652 1.353 1_565 S
C650 H692 0.929 . S
C651 C648 1.356 . S
C651 C653 1.358 . S
C651 H693 0.930 . S
C652 N649 1.314 . S
C652 C650 1.353 1_545 S
C652 H694 0.930 1_545 S
C653 N649 1.279 . S
C653 C651 1.358 . S
C653 H695 0.930 . S
C654 C655 1.348 . S
C654 C656 1.356 . S
C654 O679 1.325 . S
C655 C654 1.348 . S
C655 C657 1.353 . S
C655 H696 0.929 . S
C656 C654 1.356 . S
C656 C658 1.358 . S
C656 H697 0.930 . S
C657 C655 1.353 . S
C657 N659 1.314 . S
C657 H698 0.930 . S
C658 C656 1.358 . S
C658 N659 1.279 . S
C658 H699 0.930 . S
N659 C657 1.314 . S
N659 C658 1.279 . S
C660 C662 1.353 . S
C660 N663 1.314 . S
C660 H666 0.930 . S
C661 N663 1.279 . S
C661 C664 1.358 1_554 S
C661 H667 0.930 . S
C662 C660 1.353 . S
C662 C665 1.348 . S
C662 H700 0.929 . S
N663 Li618 1.990 . S
N663 C660 1.314 . S
N663 C661 1.279 . S
C664 C661 1.358 1_556 S
C664 C665 1.356 1_556 S
C664 H701 0.930 . S
C665 C662 1.348 . S
C665 C664 1.356 1_554 S
H666 C660 0.930 . S
H667 C661 0.930 . S
C668 N669 1.314 . S
C668 C670 1.353 . S
C668 H674 0.930 . S
N669 Li619 1.990 . S
N669 C668 1.314 . S
N669 C672 1.279 . S
C670 C668 1.353 . S
C670 C673 1.348 . S
C670 H702 0.929 . S
C671 C672 1.358 . S
C671 C673 1.356 . S
C671 H703 0.930 . S
C672 N669 1.279 . S
C672 C671 1.358 . S
C672 H675 0.930 . S
C673 C670 1.348 . S
C673 C671 1.356 . S
H674 C668 0.930 . S
H675 C672 0.930 . S
O676 Li616 1.956 . S
O676 Li617 1.970 1_545 S
O676 Li618 1.961 . S
O676 C620 1.325 . S
O677 Li616 1.970 1_565 S
O677 Li617 1.956 . S
O677 Li619 1.961 . S
O677 C626 1.325 . S
O678 Li616 1.961 . S
O678 Li618 1.956 . S
O678 Li619 1.970 1_545 S
O678 C648 1.325 . S
O679 Li617 1.961 . S
O679 Li618 1.970 1_565 S
O679 Li619 1.956 . S
O679 C654 1.325 . S
H680 C622 0.929 . S
H681 C623 0.930 . S
H682 C624 0.930 . S
H683 C625 0.930 . S
H684 C627 0.930 . S
H685 C629 0.929 . S
H686 C630 0.930 . S
H687 C631 0.930 1_545 S
H688 C634 0.930 . S
H689 C637 0.929 . S
H690 C642 0.929 . S
H691 C643 0.930 . S
H692 C650 0.929 . S
H693 C651 0.930 . S
H694 C652 0.930 1_565 S
H695 C653 0.930 . S
H696 C655 0.929 . S
H697 C656 0.930 . S
H698 C657 0.930 . S
H699 C658 0.930 . S
H700 C662 0.929 . S
H701 C664 0.930 . S
H702 C670 0.929 . S
H703 C671 0.930 . S
Li704 N721 1.990 . S
Li704 O764 1.956 . S
Li704 O765 1.970 . S
Li704 O766 1.961 . S
Li705 N729 1.990 . S
Li705 O764 1.970 . S
Li705 O765 1.956 . S
Li705 O767 1.961 . S
Li706 N751 1.990 . S
Li706 O764 1.961 . S
Li706 O766 1.956 . S
Li706 O767 1.970 . S
Li707 N757 1.990 . S
Li707 O765 1.961 . S
Li707 O766 1.970 . S
Li707 O767 1.956 . S
C708 C710 1.348 . S
C708 C711 1.356 . S
C708 O764 1.325 . S
N709 C712 1.314 . S
N709 C713 1.279 . S
C710 C708 1.348 . S
C710 C712 1.353 . S
C710 H768 0.929 . S
C711 C708 1.356 . S
C711 C713 1.358 . S
C711 H769 0.930 . S
C712 N709 1.314 . S
C712 C710 1.353 . S
C712 H770 0.930 . S
C713 N709 1.279 . S
C713 C711 1.358 . S
C713 H771 0.930 . S
C714 C717 1.348 . S
C714 C718 1.356 . S
C714 O765 1.325 . S
C715 N716 1.279 . S
C715 C718 1.358 . S
C715 H772 0.930 . S
N716 C715 1.279 . S
N716 C719 1.314 . S
C717 C714 1.348 . S
C717 C719 1.353 . S
C717 H773 0.929 . S
C718 C714 1.356 . S
C718 C715 1.358 . S
C718 H774 0.930 . S
C719 N716 1.314 . S
C719 C717 1.353 . S
C719 H775 0.930 . S
C720 N721 1.314 . S
C720 C725 1.353 . S
C720 H726 0.930 . S
N721 Li704 1.990 . S
N721 C720 1.314 . S
N721 C723 1.279 . S
C722 C723 1.358 . S
C722 C724 1.356 . S
C722 H776 0.930 . S
C723 N721 1.279 . S
C723 C722 1.358 . S
C723 H727 0.930 . S
C724 C722 1.356 . S
C724 C725 1.348 . S
C725 C720 1.353 . S
C725 C724 1.348 . S
C725 H777 0.929 . S
H726 C720 0.930 . S
H727 C723 0.930 . S
C728 N729 1.314 . S
C728 C730 1.353 . S
C728 H734 0.930 . S
N729 Li705 1.990 . S
N729 C728 1.314 . S
N729 C732 1.279 . S
C730 C728 1.353 . S
C730 C733 1.348 . S
C730 H778 0.929 . S
C731 C732 1.358 . S
C731 C733 1.356 . S
C731 H779 0.930 . S
C732 N729 1.279 . S
C732 C731 1.358 . S
C732 H735 0.930 . S
C733 C730 1.348 . S
C733 C731 1.356 . S
H734 C728 0.930 . S
H735 C732 0.930 . S
C736 C738 1.348 . S
C736 C739 1.356 . S
C736 O766 1.325 . S
N737 C740 1.314 . S
N737 C741 1.279 . S
C738 C736 1.348 . S
C738 C740 1.353 . S
C738 H780 0.929 . S
C739 C736 1.356 . S
C739 C741 1.358 . S
C739 H781 0.930 . S
C740 N737 1.314 . S
C740 C738 1.353 . S
C740 H782 0.930 . S
C741 N737 1.279 . S
C741 C739 1.358 . S
C741 H783 0.930 . S
C742 C743 1.348 . S
C742 C744 1.356 . S
C742 O767 1.325 . S
C743 C742 1.348 . S
C743 C745 1.353 . S
C743 H784 0.929 . S
C744 C742 1.356 . S
C744 C746 1.358 . S
C744 H785 0.930 . S
C745 C743 1.353 . S
C745 N747 1.314 . S
C745 H786 0.930 . S
C746 C744 1.358 . S
C746 N747 1.279 . S
C746 H787 0.930 . S
N747 C745 1.314 . S
N747 C746 1.279 . S
C748 C750 1.353 . S
C748 N751 1.314 . S
C748 H754 0.930 . S
C749 N751 1.279 . S
C749 C752 1.358 . S
C749 H755 0.930 . S
C750 C748 1.353 . S
C750 C753 1.348 . S
C750 H788 0.929 . S
N751 Li706 1.990 . S
N751 C748 1.314 . S
N751 C749 1.279 . S
C752 C749 1.358 . S
C752 C753 1.356 . S
C752 H789 0.930 . S
C753 C750 1.348 . S
C753 C752 1.356 . S
H754 C748 0.930 . S
H755 C749 0.930 . S
C756 N757 1.314 . S
C756 C758 1.353 . S
C756 H762 0.930 . S
N757 Li707 1.990 . S
N757 C756 1.314 . S
N757 C760 1.279 . S
C758 C756 1.353 . S
C758 C761 1.348 . S
C758 H790 0.929 . S
C759 C760 1.358 . S
C759 C761 1.356 . S
C759 H791 0.930 . S
C760 N757 1.279 . S
C760 C759 1.358 . S
C760 H763 0.930 . S
C761 C758 1.348 . S
C761 C759 1.356 . S
H762 C756 0.930 . S
H763 C760 0.930 . S
O764 Li704 1.956 . S
O764 Li705 1.970 . S
O764 Li706 1.961 . S
O764 C708 1.325 . S
O765 Li704 1.970 . S
O765 Li705 1.956 . S
O765 Li707 1.961 . S
O765 C714 1.325 . S
O766 Li704 1.961 . S
O766 Li706 1.956 . S
O766 Li707 1.970 . S
O766 C736 1.325 . S
O767 Li705 1.961 . S
O767 Li706 1.970 . S
O767 Li707 1.956 . S
O767 C742 1.325 . S
H768 C710 0.929 . S
H769 C711 0.930 . S
H770 C712 0.930 . S
H771 C713 0.930 . S
H772 C715 0.930 . S
H773 C717 0.929 . S
H774 C718 0.930 . S
H775 C719 0.930 . S
H776 C722 0.930 . S
H777 C725 0.929 . S
H778 C730 0.929 . S
H779 C731 0.930 . S
H780 C738 0.929 . S
H781 C739 0.930 . S
H782 C740 0.930 . S
H783 C741 0.930 . S
H784 C743 0.929 . S
H785 C744 0.930 . S
H786 C745 0.930 . S
H787 C746 0.930 . S
H788 C750 0.929 . S
H789 C752 0.930 . S
H790 C758 0.929 . S
H791 C759 0.930 . S
Li792 N809 1.990 . S
Li792 O852 1.956 . S
Li792 O853 1.970 . S
Li792 O854 1.961 . S
Li793 N817 1.990 . S
Li793 O852 1.970 . S
Li793 O853 1.956 . S
Li793 O855 1.961 . S
Li794 N839 1.990 . S
Li794 O852 1.961 . S
Li794 O854 1.956 . S
Li794 O855 1.970 . S
Li795 N845 1.990 . S
Li795 O853 1.961 . S
Li795 O854 1.970 . S
Li795 O855 1.956 . S
C796 C798 1.348 . S
C796 C799 1.356 . S
C796 O852 1.325 . S
N797 C800 1.314 . S
N797 C801 1.279 . S
C798 C796 1.348 . S
C798 C800 1.353 . S
C798 H856 0.929 . S
C799 C796 1.356 . S
C799 C801 1.358 . S
C799 H857 0.930 . S
C800 N797 1.314 . S
C800 C798 1.353 . S
C800 H858 0.930 . S
C801 N797 1.279 . S
C801 C799 1.358 . S
C801 H859 0.930 . S
C802 C805 1.348 . S
C802 C806 1.356 . S
C802 O853 1.325 . S
C803 N804 1.279 . S
C803 C806 1.358 . S
C803 H860 0.930 . S
N804 C803 1.279 . S
N804 C807 1.314 . S
C805 C802 1.348 . S
C805 C807 1.353 . S
C805 H861 0.929 . S
C806 C802 1.356 . S
C806 C803 1.358 . S
C806 H862 0.930 . S
C807 N804 1.314 . S
C807 C805 1.353 . S
C807 H863 0.930 . S
C808 N809 1.314 . S
C808 C813 1.353 . S
C808 H814 0.930 . S
N809 Li792 1.990 . S
N809 C808 1.314 . S
N809 C811 1.279 . S
C810 C811 1.358 . S
C810 C812 1.356 . S
C810 H864 0.930 . S
C811 N809 1.279 . S
C811 C810 1.358 . S
C811 H815 0.930 . S
C812 C810 1.356 . S
C812 C813 1.348 . S
C813 C808 1.353 . S
C813 C812 1.348 . S
C813 H865 0.929 . S
H814 C808 0.930 . S
H815 C811 0.930 . S
C816 N817 1.314 . S
C816 C818 1.353 . S
C816 H822 0.930 . S
N817 Li793 1.990 . S
N817 C816 1.314 . S
N817 C820 1.279 . S
C818 C816 1.353 . S
C818 C821 1.348 . S
C818 H866 0.929 . S
C819 C820 1.358 . S
C819 C821 1.356 . S
C819 H867 0.930 . S
C820 N817 1.279 . S
C820 C819 1.358 . S
C820 H823 0.930 . S
C821 C818 1.348 . S
C821 C819 1.356 . S
H822 C816 0.930 . S
H823 C820 0.930 . S
C824 C826 1.348 . S
C824 C827 1.356 . S
C824 O854 1.325 . S
N825 C828 1.314 . S
N825 C829 1.279 . S
C826 C824 1.348 . S
C826 C828 1.353 . S
C826 H868 0.929 . S
C827 C824 1.356 . S
C827 C829 1.358 . S
C827 H869 0.930 . S
C828 N825 1.314 . S
C828 C826 1.353 . S
C828 H870 0.930 . S
C829 N825 1.279 . S
C829 C827 1.358 . S
C829 H871 0.930 . S
C830 C831 1.348 . S
C830 C832 1.356 . S
C830 O855 1.325 . S
C831 C830 1.348 . S
C831 C833 1.353 . S
C831 H872 0.929 . S
C832 C830 1.356 . S
C832 C834 1.358 . S
C832 H873 0.930 . S
C833 C831 1.353 . S
C833 N835 1.314 . S
C833 H874 0.930 . S
C834 C832 1.358 . S
C834 N835 1.279 . S
C834 H875 0.930 . S
N835 C833 1.314 . S
N835 C834 1.279 . S
C836 C838 1.351 1_556 S
C836 N839 1.314 . S
C836 H842 0.930 . S
C837 N839 1.279 . S
C837 C840 1.358 . S
C837 H843 0.930 . S
C838 C836 1.351 1_554 S
C838 C841 1.347 1_554 S
C838 H876 0.931 . S
N839 Li794 1.990 . S
N839 C836 1.314 . S
N839 C837 1.279 . S
C840 C837 1.358 . S
C840 C841 1.356 . S
C840 H877 0.930 . S
C841 C838 1.347 1_556 S
C841 C840 1.356 . S
H842 C836 0.930 . S
H843 C837 0.930 . S
C844 N845 1.314 . S
C844 C846 1.353 . S
C844 H850 0.930 . S
N845 Li795 1.990 . S
N845 C844 1.314 . S
N845 C848 1.279 . S
C846 C844 1.353 . S
C846 C849 1.348 . S
C846 H878 0.929 . S
C847 C848 1.358 . S
C847 C849 1.356 . S
C847 H879 0.930 . S
C848 N845 1.279 . S
C848 C847 1.358 . S
C848 H851 0.930 . S
C849 C846 1.348 . S
C849 C847 1.356 . S
H850 C844 0.930 . S
H851 C848 0.930 . S
O852 Li792 1.956 . S
O852 Li793 1.970 . S
O852 Li794 1.961 . S
O852 C796 1.325 . S
O853 Li792 1.970 . S
O853 Li793 1.956 . S
O853 Li795 1.961 . S
O853 C802 1.325 . S
O854 Li792 1.961 . S
O854 Li794 1.956 . S
O854 Li795 1.970 . S
O854 C824 1.325 . S
O855 Li793 1.961 . S
O855 Li794 1.970 . S
O855 Li795 1.956 . S
O855 C830 1.325 . S
H856 C798 0.929 . S
H857 C799 0.930 . S
H858 C800 0.930 . S
H859 C801 0.930 . S
H860 C803 0.930 . S
H861 C805 0.929 . S
H862 C806 0.930 . S
H863 C807 0.930 . S
H864 C810 0.930 . S
H865 C813 0.929 . S
H866 C818 0.929 . S
H867 C819 0.930 . S
H868 C826 0.929 . S
H869 C827 0.930 . S
H870 C828 0.930 . S
H871 C829 0.930 . S
H872 C831 0.929 . S
H873 C832 0.930 . S
H874 C833 0.930 . S
H875 C834 0.930 . S
H876 C838 0.931 . S
H877 C840 0.930 . S
H878 C846 0.929 . S
H879 C847 0.930 . S
Li880 N897 1.990 . S
Li880 O940 1.956 1_556 S
Li880 O941 1.970 . S
Li880 O942 1.961 . S
Li881 N905 1.990 . S
Li881 O940 1.970 . S
Li881 O941 1.956 1_554 S
Li881 O943 1.961 . S
Li882 N927 1.990 . S
Li882 O940 1.961 . S
Li882 O942 1.956 1_554 S
Li882 O943 1.970 . S
Li883 N933 1.990 . S
Li883 O941 1.961 . S
Li883 O942 1.970 . S
Li883 O943 1.956 1_556 S
C884 C886 1.348 . S
C884 C887 1.356 . S
C884 O940 1.325 . S
N885 C888 1.314 . S
N885 C889 1.279 . S
C886 C884 1.348 . S
C886 C888 1.353 . S
C886 H944 0.929 . S
C887 C884 1.356 . S
C887 C889 1.358 . S
C887 H945 0.930 1_554 S
C888 N885 1.314 . S
C888 C886 1.353 . S
C888 H946 0.930 . S
C889 N885 1.279 . S
C889 C887 1.358 . S
C889 H947 0.930 1_554 S
C890 C893 1.348 . S
C890 C894 1.356 . S
C890 O941 1.325 . S
C891 N892 1.279 . S
C891 C894 1.358 . S
C891 H948 0.930 1_556 S
N892 C891 1.279 . S
N892 C895 1.314 . S
C893 C890 1.348 . S
C893 C895 1.353 . S
C893 H949 0.929 . S
C894 C890 1.356 . S
C894 C891 1.358 . S
C894 H950 0.930 1_556 S
C895 N892 1.314 . S
C895 C893 1.353 . S
C895 H951 0.930 . S
C896 N897 1.314 . S
C896 C901 1.353 . S
C896 H902 0.930 . S
N897 Li880 1.990 . S
N897 C896 1.314 . S
N897 C899 1.279 . S
C898 C899 1.358 . S
C898 C900 1.356 . S
C898 H952 0.930 . S
C899 N897 1.279 . S
C899 C898 1.358 . S
C899 H903 0.930 . S
C900 C898 1.356 . S
C900 C901 1.348 . S
C901 C896 1.353 . S
C901 C900 1.348 . S
C901 H953 0.929 . S
H902 C896 0.930 . S
H903 C899 0.930 . S
C904 N905 1.314 . S
C904 C906 1.353 . S
C904 H910 0.930 . S
N905 Li881 1.990 . S
N905 C904 1.314 . S
N905 C908 1.279 . S
C906 C904 1.353 . S
C906 C909 1.348 . S
C906 H954 0.929 . S
C907 C908 1.358 . S
C907 C909 1.356 . S
C907 H955 0.930 . S
C908 N905 1.279 . S
C908 C907 1.358 . S
C908 H911 0.930 . S
C909 C906 1.348 . S
C909 C907 1.356 . S
H910 C904 0.930 . S
H911 C908 0.930 . S
C912 C914 1.348 . S
C912 C915 1.356 . S
C912 O942 1.325 . S
N913 C916 1.314 . S
N913 C917 1.279 . S
C914 C912 1.348 . S
C914 C916 1.353 . S
C914 H956 0.929 . S
C915 C912 1.356 . S
C915 C917 1.358 . S
C915 H957 0.930 . S
C916 N913 1.314 . S
C916 C914 1.353 . S
C916 H958 0.930 . S
C917 N913 1.279 . S
C917 C915 1.358 . S
C917 H959 0.930 . S
C918 C919 1.348 . S
C918 C920 1.356 . S
C918 O943 1.325 . S
C919 C918 1.348 . S
C919 C921 1.353 . S
C919 H960 0.929 . S
C920 C918 1.356 . S
C920 C922 1.358 . S
C920 H961 0.930 . S
C921 C919 1.353 . S
C921 N923 1.314 . S
C921 H962 0.930 . S
C922 C920 1.358 . S
C922 N923 1.279 . S
C922 H963 0.930 . S
N923 C921 1.314 . S
N923 C922 1.279 . S
C924 C926 1.353 . S
C924 N927 1.314 . S
C924 H930 0.930 . S
C925 N927 1.279 1_556 S
C925 C928 1.358 1_556 S
C925 H931 0.930 . S
C926 C924 1.353 . S
C926 C929 1.348 . S
C926 H964 0.929 . S
N927 Li882 1.990 . S
N927 C924 1.314 . S
N927 C925 1.279 1_554 S
C928 C925 1.358 1_554 S
C928 C929 1.356 . S
C928 H965 0.930 1_554 S
C929 C926 1.348 . S
C929 C928 1.356 . S
H930 C924 0.930 . S
H931 C925 0.930 . S
C932 N933 1.314 . S
C932 C934 1.353 . S
C932 H938 0.930 . S
N933 Li883 1.990 . S
N933 C932 1.314 . S
N933 C936 1.279 1_556 S
C934 C932 1.353 . S
C934 C937 1.348 . S
C934 H966 0.929 . S
C935 C936 1.358 1_556 S
C935 C937 1.356 . S
C935 H967 0.930 1_556 S
C936 N933 1.279 1_554 S
C936 C935 1.358 1_554 S
C936 H939 0.930 . S
C937 C934 1.348 . S
C937 C935 1.356 . S
H938 C932 0.930 . S
H939 C936 0.930 . S
O940 Li880 1.956 1_554 S
O940 Li881 1.970 . S
O940 Li882 1.961 . S
O940 C884 1.325 . S
O941 Li880 1.970 . S
O941 Li881 1.956 1_556 S
O941 Li883 1.961 . S
O941 C890 1.325 . S
O942 Li880 1.961 . S
O942 Li882 1.956 1_556 S
O942 Li883 1.970 . S
O942 C912 1.325 . S
O943 Li881 1.961 . S
O943 Li882 1.970 . S
O943 Li883 1.956 1_554 S
O943 C918 1.325 . S
H944 C886 0.929 . S
H945 C887 0.930 1_556 S
H946 C888 0.930 . S
H947 C889 0.930 1_556 S
H948 C891 0.930 1_554 S
H949 C893 0.929 . S
H950 C894 0.930 1_554 S
H951 C895 0.930 . S
H952 C898 0.930 . S
H953 C901 0.929 . S
H954 C906 0.929 . S
H955 C907 0.930 . S
H956 C914 0.929 . S
H957 C915 0.930 . S
H958 C916 0.930 . S
H959 C917 0.930 . S
H960 C919 0.929 . S
H961 C920 0.930 . S
H962 C921 0.930 . S
H963 C922 0.930 . S
H964 C926 0.929 . S
H965 C928 0.930 1_556 S
H966 C934 0.929 . S
H967 C935 0.930 1_554 S
Li968 N985 1.990 . S
Li968 O1028 1.956 . S
Li968 O1029 1.970 . S
Li968 O1030 1.961 . S
Li969 N993 1.990 . S
Li969 O1028 1.970 . S
Li969 O1029 1.956 . S
Li969 O1031 1.961 . S
Li970 N1015 1.990 . S
Li970 O1028 1.961 . S
Li970 O1030 1.956 . S
Li970 O1031 1.970 . S
Li971 N1021 1.990 . S
Li971 O1029 1.961 . S
Li971 O1030 1.970 . S
Li971 O1031 1.956 . S
C972 C974 1.348 . S
C972 C975 1.356 . S
C972 O1028 1.325 . S
N973 C976 1.314 . S
N973 C977 1.279 . S
C974 C972 1.348 . S
C974 C976 1.353 . S
C974 H1032 0.929 . S
C975 C972 1.356 . S
C975 C977 1.358 . S
C975 H1033 0.930 . S
C976 N973 1.314 . S
C976 C974 1.353 . S
C976 H1034 0.930 . S
C977 N973 1.279 . S
C977 C975 1.358 . S
C977 H1035 0.930 . S
C978 C981 1.348 . S
C978 C982 1.356 . S
C978 O1029 1.325 . S
C979 N980 1.279 . S
C979 C982 1.358 . S
C979 H1036 0.930 . S
N980 C979 1.279 . S
N980 C983 1.314 . S
C981 C978 1.348 . S
C981 C983 1.353 . S
C981 H1037 0.929 . S
C982 C978 1.356 . S
C982 C979 1.358 . S
C982 H1038 0.930 . S
C983 N980 1.314 . S
C983 C981 1.353 . S
C983 H1039 0.930 . S
C984 N985 1.314 . S
C984 C989 1.353 . S
C984 H990 0.930 . S
N985 Li968 1.990 . S
N985 C984 1.314 . S
N985 C987 1.279 . S
C986 C987 1.358 . S
C986 C988 1.356 . S
C986 H1040 0.930 . S
C987 N985 1.279 . S
C987 C986 1.358 . S
C987 H991 0.930 . S
C988 C986 1.356 . S
C988 C989 1.348 . S
C989 C984 1.353 . S
C989 C988 1.348 . S
C989 H1041 0.929 . S
H990 C984 0.930 . S
H991 C987 0.930 . S
C992 N993 1.314 . S
C992 C994 1.353 . S
C992 H998 0.930 . S
N993 Li969 1.990 . S
N993 C992 1.314 . S
N993 C996 1.279 . S
C994 C992 1.353 . S
C994 C997 1.348 . S
C994 H1042 0.929 . S
C995 C996 1.358 . S
C995 C997 1.356 . S
C995 H1043 0.930 . S
C996 N993 1.279 . S
C996 C995 1.358 . S
C996 H999 0.930 . S
C997 C994 1.348 . S
C997 C995 1.356 . S
H998 C992 0.930 . S
H999 C996 0.930 . S
C1000 C1002 1.348 . S
C1000 C1003 1.356 . S
C1000 O1030 1.325 . S
N1001 C1004 1.314 . S
N1001 C1005 1.279 . S
C1002 C1000 1.348 . S
C1002 C1004 1.353 . S
C1002 H1044 0.929 . S
C1003 C1000 1.356 . S
C1003 C1005 1.358 . S
C1003 H1045 0.930 . S
C1004 N1001 1.314 . S
C1004 C1002 1.353 . S
C1004 H1046 0.930 1_455 S
C1005 N1001 1.279 . S
C1005 C1003 1.358 . S
C1005 H1047 0.930 . S
C1006 C1007 1.348 . S
C1006 C1008 1.356 . S
C1006 O1031 1.325 . S
C1007 C1006 1.348 . S
C1007 C1009 1.353 . S
C1007 H1048 0.929 . S
C1008 C1006 1.356 . S
C1008 C1010 1.358 . S
C1008 H1049 0.930 . S
C1009 C1007 1.353 . S
C1009 N1011 1.314 . S
C1009 H1050 0.930 1_455 S
C1010 C1008 1.358 . S
C1010 N1011 1.279 . S
C1010 H1051 0.930 . S
N1011 C1009 1.314 . S
N1011 C1010 1.279 . S
C1012 C1014 1.351 1_554 S
C1012 N1015 1.314 . S
C1012 H1018 0.930 . S
C1013 N1015 1.279 . S
C1013 C1016 1.358 . S
C1013 H1019 0.930 . S
C1014 C1012 1.351 1_556 S
C1014 C1017 1.347 1_556 S
C1014 H1052 0.931 . S
N1015 Li970 1.990 . S
N1015 C1012 1.314 . S
N1015 C1013 1.279 . S
C1016 C1013 1.358 . S
C1016 C1017 1.356 . S
C1016 H1053 0.930 1_455 S
C1017 C1014 1.347 1_554 S
C1017 C1016 1.356 . S
H1018 C1012 0.930 . S
H1019 C1013 0.930 . S
C1020 N1021 1.314 . S
C1020 C1022 1.353 . S
C1020 H1026 0.930 . S
N1021 Li971 1.990 . S
N1021 C1020 1.314 . S
N1021 C1024 1.279 . S
C1022 C1020 1.353 . S
C1022 C1025 1.348 . S
C1022 H1054 0.929 . S
C1023 C1024 1.358 . S
C1023 C1025 1.356 . S
C1023 H1055 0.930 1_455 S
C1024 N1021 1.279 . S
C1024 C1023 1.358 . S
C1024 H1027 0.930 . S
C1025 C1022 1.348 . S
C1025 C1023 1.356 . S
H1026 C1020 0.930 . S
H1027 C1024 0.930 . S
O1028 Li968 1.956 . S
O1028 Li969 1.970 . S
O1028 Li970 1.961 . S
O1028 C972 1.325 . S
O1029 Li968 1.970 . S
O1029 Li969 1.956 . S
O1029 Li971 1.961 . S
O1029 C978 1.325 . S
O1030 Li968 1.961 . S
O1030 Li970 1.956 . S
O1030 Li971 1.970 . S
O1030 C1000 1.325 . S
O1031 Li969 1.961 . S
O1031 Li970 1.970 . S
O1031 Li971 1.956 . S
O1031 C1006 1.325 . S
H1032 C974 0.929 . S
H1033 C975 0.930 . S
H1034 C976 0.930 . S
H1035 C977 0.930 . S
H1036 C979 0.930 . S
H1037 C981 0.929 . S
H1038 C982 0.930 . S
H1039 C983 0.930 . S
H1040 C986 0.930 . S
H1041 C989 0.929 . S
H1042 C994 0.929 . S
H1043 C995 0.930 . S
H1044 C1002 0.929 . S
H1045 C1003 0.930 . S
H1046 C1004 0.930 1_655 S
H1047 C1005 0.930 . S
H1048 C1007 0.929 . S
H1049 C1008 0.930 . S
H1050 C1009 0.930 1_655 S
H1051 C1010 0.930 . S
H1052 C1014 0.931 . S
H1053 C1016 0.930 1_655 S
H1054 C1022 0.929 . S
H1055 C1023 0.930 1_655 S
Li1056 N1073 1.990 . S
Li1056 O1116 1.956 . S
Li1056 O1117 1.970 . S
Li1056 O1118 1.961 . S
Li1057 N1081 1.990 . S
Li1057 O1116 1.970 . S
Li1057 O1117 1.956 . S
Li1057 O1119 1.961 . S
Li1058 N1103 1.990 . S
Li1058 O1116 1.961 . S
Li1058 O1118 1.956 . S
Li1058 O1119 1.970 . S
Li1059 N1109 1.990 . S
Li1059 O1117 1.961 . S
Li1059 O1118 1.970 . S
Li1059 O1119 1.956 . S
C1060 C1062 1.348 . S
C1060 C1063 1.356 . S
C1060 O1116 1.325 . S
N1061 C1064 1.314 . S
N1061 C1065 1.279 . S
C1062 C1060 1.348 . S
C1062 C1064 1.353 . S
C1062 H1120 0.929 . S
C1063 C1060 1.356 . S
C1063 C1065 1.358 . S
C1063 H1121 0.930 . S
C1064 N1061 1.314 . S
C1064 C1062 1.353 . S
C1064 H1122 0.930 . S
C1065 N1061 1.279 . S
C1065 C1063 1.358 . S
C1065 H1123 0.930 . S
C1066 C1069 1.348 . S
C1066 C1070 1.356 . S
C1066 O1117 1.325 . S
C1067 N1068 1.279 . S
C1067 C1070 1.358 . S
C1067 H1124 0.930 . S
N1068 C1067 1.279 . S
N1068 C1071 1.314 . S
C1069 C1066 1.348 . S
C1069 C1071 1.353 . S
C1069 H1125 0.929 . S
C1070 C1066 1.356 . S
C1070 C1067 1.358 . S
C1070 H1126 0.930 . S
C1071 N1068 1.314 . S
C1071 C1069 1.353 . S
C1071 H1127 0.930 . S
C1072 N1073 1.314 . S
C1072 C1077 1.353 . S
C1072 H1078 0.930 . S
N1073 Li1056 1.990 . S
N1073 C1072 1.314 . S
N1073 C1075 1.279 . S
C1074 C1075 1.358 . S
C1074 C1076 1.356 . S
C1074 H1128 0.930 . S
C1075 N1073 1.279 . S
C1075 C1074 1.358 . S
C1075 H1079 0.930 . S
C1076 C1074 1.356 . S
C1076 C1077 1.348 . S
C1077 C1072 1.353 . S
C1077 C1076 1.348 . S
C1077 H1129 0.929 . S
H1078 C1072 0.930 . S
H1079 C1075 0.930 . S
C1080 N1081 1.314 . S
C1080 C1082 1.353 . S
C1080 H1086 0.930 . S
N1081 Li1057 1.990 . S
N1081 C1080 1.314 . S
N1081 C1084 1.279 . S
C1082 C1080 1.353 . S
C1082 C1085 1.348 . S
C1082 H1130 0.929 . S
C1083 C1084 1.358 . S
C1083 C1085 1.356 . S
C1083 H1131 0.930 . S
C1084 N1081 1.279 . S
C1084 C1083 1.358 . S
C1084 H1087 0.930 . S
C1085 C1082 1.348 . S
C1085 C1083 1.356 . S
H1086 C1080 0.930 . S
H1087 C1084 0.930 . S
C1088 C1090 1.348 . S
C1088 C1091 1.356 . S
C1088 O1118 1.325 . S
N1089 C1092 1.314 . S
N1089 C1093 1.279 . S
C1090 C1088 1.348 . S
C1090 C1092 1.353 . S
C1090 H1132 0.929 . S
C1091 C1088 1.356 . S
C1091 C1093 1.358 . S
C1091 H1133 0.930 . S
C1092 N1089 1.314 . S
C1092 C1090 1.353 . S
C1092 H1134 0.930 . S
C1093 N1089 1.279 . S
C1093 C1091 1.358 . S
C1093 H1135 0.930 . S
C1094 C1095 1.348 . S
C1094 C1096 1.356 . S
C1094 O1119 1.325 . S
C1095 C1094 1.348 . S
C1095 C1097 1.353 . S
C1095 H1136 0.929 . S
C1096 C1094 1.356 . S
C1096 C1098 1.358 . S
C1096 H1137 0.930 . S
C1097 C1095 1.353 . S
C1097 N1099 1.314 . S
C1097 H1138 0.930 . S
C1098 C1096 1.358 . S
C1098 N1099 1.279 . S
C1098 H1139 0.930 . S
N1099 C1097 1.314 . S
N1099 C1098 1.279 . S
C1100 C1102 1.353 . S
C1100 N1103 1.314 . S
C1100 H1106 0.930 . S
C1101 N1103 1.279 . S
C1101 C1104 1.358 . S
C1101 H1107 0.930 . S
C1102 C1100 1.353 . S
C1102 C1105 1.348 . S
C1102 H1140 0.929 . S
N1103 Li1058 1.990 . S
N1103 C1100 1.314 . S
N1103 C1101 1.279 . S
C1104 C1101 1.358 . S
C1104 C1105 1.356 . S
C1104 H1141 0.930 . S
C1105 C1102 1.348 . S
C1105 C1104 1.356 . S
H1106 C1100 0.930 . S
H1107 C1101 0.930 . S
C1108 N1109 1.314 . S
C1108 C1110 1.353 . S
C1108 H1114 0.930 . S
N1109 Li1059 1.990 . S
N1109 C1108 1.314 . S
N1109 C1112 1.279 . S
C1110 C1108 1.353 . S
C1110 C1113 1.348 . S
C1110 H1142 0.929 . S
C1111 C1112 1.358 . S
C1111 C1113 1.356 . S
C1111 H1143 0.930 . S
C1112 N1109 1.279 . S
C1112 C1111 1.358 . S
C1112 H1115 0.930 . S
C1113 C1110 1.348 . S
C1113 C1111 1.356 . S
H1114 C1108 0.930 . S
H1115 C1112 0.930 . S
O1116 Li1056 1.956 . S
O1116 Li1057 1.970 . S
O1116 Li1058 1.961 . S
O1116 C1060 1.325 . S
O1117 Li1056 1.970 . S
O1117 Li1057 1.956 . S
O1117 Li1059 1.961 . S
O1117 C1066 1.325 . S
O1118 Li1056 1.961 . S
O1118 Li1058 1.956 . S
O1118 Li1059 1.970 . S
O1118 C1088 1.325 . S
O1119 Li1057 1.961 . S
O1119 Li1058 1.970 . S
O1119 Li1059 1.956 . S
O1119 C1094 1.325 . S
H1120 C1062 0.929 . S
H1121 C1063 0.930 . S
H1122 C1064 0.930 . S
H1123 C1065 0.930 . S
H1124 C1067 0.930 . S
H1125 C1069 0.929 . S
H1126 C1070 0.930 . S
H1127 C1071 0.930 . S
H1128 C1074 0.930 . S
H1129 C1077 0.929 . S
H1130 C1082 0.929 . S
H1131 C1083 0.930 . S
H1132 C1090 0.929 . S
H1133 C1091 0.930 . S
H1134 C1092 0.930 . S
H1135 C1093 0.930 . S
H1136 C1095 0.929 . S
H1137 C1096 0.930 . S
H1138 C1097 0.930 . S
H1139 C1098 0.930 . S
H1140 C1102 0.929 . S
H1141 C1104 0.930 . S
H1142 C1110 0.929 . S
H1143 C1111 0.930 . S
Li1144 N1161 1.990 . S
Li1144 O1204 1.956 . S
Li1144 O1205 1.970 . S
Li1144 O1206 1.961 . S
Li1145 N1169 1.990 . S
Li1145 O1204 1.970 . S
Li1145 O1205 1.956 . S
Li1145 O1207 1.961 . S
Li1146 N1191 1.990 . S
Li1146 O1204 1.961 . S
Li1146 O1206 1.956 . S
Li1146 O1207 1.970 . S
Li1147 N1197 1.990 . S
Li1147 O1205 1.961 . S
Li1147 O1206 1.970 . S
Li1147 O1207 1.956 . S
C1148 C1150 1.348 . S
C1148 C1151 1.356 . S
C1148 O1204 1.325 . S
N1149 C1152 1.314 . S
N1149 C1153 1.279 . S
C1150 C1148 1.348 . S
C1150 C1152 1.353 . S
C1150 H1208 0.929 . S
C1151 C1148 1.356 . S
C1151 C1153 1.358 . S
C1151 H1209 0.930 . S
C1152 N1149 1.314 . S
C1152 C1150 1.353 . S
C1152 H1210 0.930 . S
C1153 N1149 1.279 . S
C1153 C1151 1.358 . S
C1153 H1211 0.930 . S
C1154 C1157 1.348 . S
C1154 C1158 1.356 . S
C1154 O1205 1.325 . S
C1155 N1156 1.279 . S
C1155 C1158 1.358 . S
C1155 H1212 0.930 . S
N1156 C1155 1.279 . S
N1156 C1159 1.314 . S
C1157 C1154 1.348 . S
C1157 C1159 1.353 . S
C1157 H1213 0.929 . S
C1158 C1154 1.356 . S
C1158 C1155 1.358 . S
C1158 H1214 0.930 . S
C1159 N1156 1.314 . S
C1159 C1157 1.353 . S
C1159 H1215 0.930 . S
C1160 N1161 1.314 . S
C1160 C1165 1.353 . S
C1160 H1166 0.930 . S
N1161 Li1144 1.990 . S
N1161 C1160 1.314 . S
N1161 C1163 1.279 . S
C1162 C1163 1.358 . S
C1162 C1164 1.356 . S
C1162 H1216 0.930 . S
C1163 N1161 1.279 . S
C1163 C1162 1.358 . S
C1163 H1167 0.930 . S
C1164 C1162 1.356 . S
C1164 C1165 1.348 . S
C1165 C1160 1.353 . S
C1165 C1164 1.348 . S
C1165 H1217 0.929 . S
H1166 C1160 0.930 . S
H1167 C1163 0.930 . S
C1168 N1169 1.314 . S
C1168 C1170 1.353 . S
C1168 H1174 0.930 . S
N1169 Li1145 1.990 . S
N1169 C1168 1.314 . S
N1169 C1172 1.279 . S
C1170 C1168 1.353 . S
C1170 C1173 1.348 . S
C1170 H1218 0.929 . S
C1171 C1172 1.358 . S
C1171 C1173 1.356 . S
C1171 H1219 0.930 . S
C1172 N1169 1.279 . S
C1172 C1171 1.358 . S
C1172 H1175 0.930 . S
C1173 C1170 1.348 . S
C1173 C1171 1.356 . S
H1174 C1168 0.930 . S
H1175 C1172 0.930 . S
C1176 C1178 1.348 . S
C1176 C1179 1.356 . S
C1176 O1206 1.325 . S
N1177 C1180 1.314 . S
N1177 C1181 1.279 . S
C1178 C1176 1.348 . S
C1178 C1180 1.353 . S
C1178 H1220 0.929 . S
C1179 C1176 1.356 . S
C1179 C1181 1.358 . S
C1179 H1221 0.930 . S
C1180 N1177 1.314 . S
C1180 C1178 1.353 . S
C1180 H1222 0.930 . S
C1181 N1177 1.279 . S
C1181 C1179 1.358 . S
C1181 H1223 0.930 . S
C1182 C1183 1.348 . S
C1182 C1184 1.356 . S
C1182 O1207 1.325 . S
C1183 C1182 1.348 . S
C1183 C1185 1.353 . S
C1183 H1224 0.929 . S
C1184 C1182 1.356 . S
C1184 C1186 1.358 . S
C1184 H1225 0.930 . S
C1185 C1183 1.353 . S
C1185 N1187 1.314 . S
C1185 H1226 0.930 . S
C1186 C1184 1.358 . S
C1186 N1187 1.279 . S
C1186 H1227 0.930 . S
N1187 C1185 1.314 . S
N1187 C1186 1.279 . S
C1188 C1190 1.353 . S
C1188 N1191 1.314 . S
C1188 H1194 0.930 . S
C1189 N1191 1.279 . S
C1189 C1192 1.358 . S
C1189 H1195 0.930 . S
C1190 C1188 1.353 . S
C1190 C1193 1.348 . S
C1190 H1228 0.929 . S
N1191 Li1146 1.990 . S
N1191 C1188 1.314 . S
N1191 C1189 1.279 . S
C1192 C1189 1.358 . S
C1192 C1193 1.356 . S
C1192 H1229 0.930 . S
C1193 C1190 1.348 . S
C1193 C1192 1.356 . S
H1194 C1188 0.930 . S
H1195 C1189 0.930 . S
C1196 N1197 1.314 . S
C1196 C1198 1.353 . S
C1196 H1202 0.930 . S
N1197 Li1147 1.990 . S
N1197 C1196 1.314 . S
N1197 C1200 1.279 . S
C1198 C1196 1.353 . S
C1198 C1201 1.348 . S
C1198 H1230 0.929 . S
C1199 C1200 1.358 1_556 S
C1199 C1201 1.356 1_556 S
C1199 H1231 0.930 . S
C1200 N1197 1.279 . S
C1200 C1199 1.358 1_554 S
C1200 H1203 0.930 . S
C1201 C1198 1.348 . S
C1201 C1199 1.356 1_554 S
H1202 C1196 0.930 . S
H1203 C1200 0.930 . S
O1204 Li1144 1.956 . S
O1204 Li1145 1.970 . S
O1204 Li1146 1.961 . S
O1204 C1148 1.325 . S
O1205 Li1144 1.970 . S
O1205 Li1145 1.956 . S
O1205 Li1147 1.961 . S
O1205 C1154 1.325 . S
O1206 Li1144 1.961 . S
O1206 Li1146 1.956 . S
O1206 Li1147 1.970 . S
O1206 C1176 1.325 . S
O1207 Li1145 1.961 . S
O1207 Li1146 1.970 . S
O1207 Li1147 1.956 . S
O1207 C1182 1.325 . S
H1208 C1150 0.929 . S
H1209 C1151 0.930 . S
H1210 C1152 0.930 . S
H1211 C1153 0.930 . S
H1212 C1155 0.930 . S
H1213 C1157 0.929 . S
H1214 C1158 0.930 . S
H1215 C1159 0.930 . S
H1216 C1162 0.930 . S
H1217 C1165 0.929 . S
H1218 C1170 0.929 . S
H1219 C1171 0.930 . S
H1220 C1178 0.929 . S
H1221 C1179 0.930 . S
H1222 C1180 0.930 . S
H1223 C1181 0.930 . S
H1224 C1183 0.929 . S
H1225 C1184 0.930 . S
H1226 C1185 0.930 . S
H1227 C1186 0.930 . S
H1228 C1190 0.929 . S
H1229 C1192 0.930 . S
H1230 C1198 0.929 . S
H1231 C1199 0.930 . S
Li1232 N1249 1.990 . S
Li1232 O1292 1.956 . S
Li1232 O1293 1.970 . S
Li1232 O1294 1.961 1_554 S
Li1233 N1257 1.990 . S
Li1233 O1292 1.970 . S
Li1233 O1293 1.956 . S
Li1233 O1295 1.961 1_554 S
Li1234 N1279 1.990 . S
Li1234 O1292 1.961 1_556 S
Li1234 O1294 1.956 . S
Li1234 O1295 1.970 . S
Li1235 N1285 1.990 . S
Li1235 O1293 1.961 1_556 S
Li1235 O1294 1.970 . S
Li1235 O1295 1.956 . S
C1236 C1238 1.348 . S
C1236 C1239 1.356 . S
C1236 O1292 1.325 . S
N1237 C1240 1.314 . S
N1237 C1241 1.279 . S
C1238 C1236 1.348 . S
C1238 C1240 1.353 . S
C1238 H1296 0.929 . S
C1239 C1236 1.356 . S
C1239 C1241 1.358 . S
C1239 H1297 0.930 . S
C1240 N1237 1.314 . S
C1240 C1238 1.353 . S
C1240 H1298 0.930 . S
C1241 N1237 1.279 . S
C1241 C1239 1.358 . S
C1241 H1299 0.930 . S
C1242 C1245 1.348 . S
C1242 C1246 1.356 1_554 S
C1242 O1293 1.325 . S
C1243 N1244 1.279 . S
C1243 C1246 1.358 1_554 S
C1243 H1300 0.930 1_554 S
N1244 C1243 1.279 . S
N1244 C1247 1.314 . S
C1245 C1242 1.348 . S
C1245 C1247 1.353 . S
C1245 H1301 0.929 . S
C1246 C1242 1.356 1_556 S
C1246 C1243 1.358 1_556 S
C1246 H1302 0.930 . S
C1247 N1244 1.314 . S
C1247 C1245 1.353 . S
C1247 H1303 0.930 . S
C1248 N1249 1.314 . S
C1248 C1253 1.353 . S
C1248 H1254 0.930 . S
N1249 Li1232 1.990 . S
N1249 C1248 1.314 . S
N1249 C1251 1.279 . S
C1250 C1251 1.358 . S
C1250 C1252 1.356 . S
C1250 H1304 0.930 . S
C1251 N1249 1.279 . S
C1251 C1250 1.358 . S
C1251 H1255 0.930 . S
C1252 C1250 1.356 . S
C1252 C1253 1.348 . S
C1253 C1248 1.353 . S
C1253 C1252 1.348 . S
C1253 H1305 0.929 . S
H1254 C1248 0.930 . S
H1255 C1251 0.930 . S
C1256 N1257 1.314 . S
C1256 C1258 1.353 . S
C1256 H1262 0.930 1_554 S
N1257 Li1233 1.990 . S
N1257 C1256 1.314 . S
N1257 C1260 1.279 . S
C1258 C1256 1.353 . S
C1258 C1261 1.348 . S
C1258 H1306 0.929 . S
C1259 C1260 1.358 . S
C1259 C1261 1.356 . S
C1259 H1307 0.930 . S
C1260 N1257 1.279 . S
C1260 C1259 1.358 . S
C1260 H1263 0.930 . S
C1261 C1258 1.348 . S
C1261 C1259 1.356 . S
H1262 C1256 0.930 1_556 S
H1263 C1260 0.930 . S
C1264 C1266 1.348 . S
C1264 C1267 1.356 1_556 S
C1264 O1294 1.325 . S
N1265 C1268 1.314 . S
N1265 C1269 1.279 . S
C1266 C1264 1.348 . S
C1266 C1268 1.353 . S
C1266 H1308 0.929 . S
C1267 C1264 1.356 1_554 S
C1267 C1269 1.358 1_554 S
C1267 H1309 0.930 . S
C1268 N1265 1.314 . S
C1268 C1266 1.353 . S
C1268 H1310 0.930 . S
C1269 N1265 1.279 . S
C1269 C1267 1.358 1_556 S
C1269 H1311 0.930 1_556 S
C1270 C1271 1.348 . S
C1270 C1272 1.356 . S
C1270 O1295 1.325 . S
C1271 C1270 1.348 . S
C1271 C1273 1.353 . S
C1271 H1312 0.929 . S
C1272 C1270 1.356 . S
C1272 C1274 1.358 . S
C1272 H1313 0.930 . S
C1273 C1271 1.353 . S
C1273 N1275 1.314 . S
C1273 H1314 0.930 . S
C1274 C1272 1.358 . S
C1274 N1275 1.279 . S
C1274 H1315 0.930 . S
N1275 C1273 1.314 . S
N1275 C1274 1.279 . S
C1276 C1278 1.353 . S
C1276 N1279 1.314 . S
C1276 H1282 0.930 1_556 S
C1277 N1279 1.279 . S
C1277 C1280 1.358 . S
C1277 H1283 0.930 . S
C1278 C1276 1.353 . S
C1278 C1281 1.348 . S
C1278 H1316 0.929 . S
N1279 Li1234 1.990 . S
N1279 C1276 1.314 . S
N1279 C1277 1.279 . S
C1280 C1277 1.358 . S
C1280 C1281 1.356 . S
C1280 H1317 0.930 . S
C1281 C1278 1.348 . S
C1281 C1280 1.356 . S
H1282 C1276 0.930 1_554 S
H1283 C1277 0.930 . S
C1284 N1285 1.314 . S
C1284 C1286 1.353 . S
C1284 H1290 0.930 . S
N1285 Li1235 1.990 . S
N1285 C1284 1.314 . S
N1285 C1288 1.279 . S
C1286 C1284 1.353 . S
C1286 C1289 1.348 . S
C1286 H1318 0.929 . S
C1287 C1288 1.358 . S
C1287 C1289 1.356 . S
C1287 H1319 0.930 . S
C1288 N1285 1.279 . S
C1288 C1287 1.358 . S
C1288 H1291 0.930 . S
C1289 C1286 1.348 . S
C1289 C1287 1.356 . S
H1290 C1284 0.930 . S
H1291 C1288 0.930 . S
O1292 Li1232 1.956 . S
O1292 Li1233 1.970 . S
O1292 Li1234 1.961 1_554 S
O1292 C1236 1.325 . S
O1293 Li1232 1.970 . S
O1293 Li1233 1.956 . S
O1293 Li1235 1.961 1_554 S
O1293 C1242 1.325 . S
O1294 Li1232 1.961 1_556 S
O1294 Li1234 1.956 . S
O1294 Li1235 1.970 . S
O1294 C1264 1.325 . S
O1295 Li1233 1.961 1_556 S
O1295 Li1234 1.970 . S
O1295 Li1235 1.956 . S
O1295 C1270 1.325 . S
H1296 C1238 0.929 . S
H1297 C1239 0.930 . S
H1298 C1240 0.930 . S
H1299 C1241 0.930 . S
H1300 C1243 0.930 1_556 S
H1301 C1245 0.929 . S
H1302 C1246 0.930 . S
H1303 C1247 0.930 . S
H1304 C1250 0.930 . S
H1305 C1253 0.929 . S
H1306 C1258 0.929 . S
H1307 C1259 0.930 . S
H1308 C1266 0.929 . S
H1309 C1267 0.930 . S
H1310 C1268 0.930 . S
H1311 C1269 0.930 1_554 S
H1312 C1271 0.929 . S
H1313 C1272 0.930 . S
H1314 C1273 0.930 . S
H1315 C1274 0.930 . S
H1316 C1278 0.929 . S
H1317 C1280 0.930 . S
H1318 C1286 0.929 . S
H1319 C1287 0.930 . S
Li1320 N1337 1.990 . S
Li1320 O1380 1.956 . S
Li1320 O1381 1.970 . S
Li1320 O1382 1.961 . S
Li1321 N1345 1.990 . S
Li1321 O1380 1.970 . S
Li1321 O1381 1.956 . S
Li1321 O1383 1.961 . S
Li1322 N1367 1.990 . S
Li1322 O1380 1.961 . S
Li1322 O1382 1.956 . S
Li1322 O1383 1.970 . S
Li1323 N1373 1.990 . S
Li1323 O1381 1.961 . S
Li1323 O1382 1.970 . S
Li1323 O1383 1.956 . S
C1324 C1326 1.348 . S
C1324 C1327 1.356 . S
C1324 O1380 1.325 . S
N1325 C1328 1.314 . S
N1325 C1329 1.279 . S
C1326 C1324 1.348 . S
C1326 C1328 1.353 . S
C1326 H1384 0.929 . S
C1327 C1324 1.356 . S
C1327 C1329 1.358 . S
C1327 H1385 0.930 . S
C1328 N1325 1.314 . S
C1328 C1326 1.353 . S
C1328 H1386 0.930 . S
C1329 N1325 1.279 . S
C1329 C1327 1.358 . S
C1329 H1387 0.930 . S
C1330 C1333 1.348 . S
C1330 C1334 1.356 . S
C1330 O1381 1.325 . S
C1331 N1332 1.279 . S
C1331 C1334 1.358 . S
C1331 H1388 0.930 . S
N1332 C1331 1.279 . S
N1332 C1335 1.314 . S
C1333 C1330 1.348 . S
C1333 C1335 1.353 . S
C1333 H1389 0.929 . S
C1334 C1330 1.356 . S
C1334 C1331 1.358 . S
C1334 H1390 0.930 . S
C1335 N1332 1.314 . S
C1335 C1333 1.353 . S
C1335 H1391 0.930 . S
C1336 N1337 1.314 . S
C1336 C1341 1.353 . S
C1336 H1342 0.930 . S
N1337 Li1320 1.990 . S
N1337 C1336 1.314 . S
N1337 C1339 1.279 . S
C1338 C1339 1.358 1_554 S
C1338 C1340 1.356 1_554 S
C1338 H1392 0.930 . S
C1339 N1337 1.279 . S
C1339 C1338 1.358 1_556 S
C1339 H1343 0.930 . S
C1340 C1338 1.356 1_556 S
C1340 C1341 1.348 . S
C1341 C1336 1.353 . S
C1341 C1340 1.348 . S
C1341 H1393 0.929 1_655 S
H1342 C1336 0.930 . S
H1343 C1339 0.930 . S
C1344 N1345 1.314 . S
C1344 C1346 1.353 . S
C1344 H1350 0.930 . S
N1345 Li1321 1.990 . S
N1345 C1344 1.314 . S
N1345 C1348 1.279 . S
C1346 C1344 1.353 . S
C1346 C1349 1.348 . S
C1346 H1394 0.929 . S
C1347 C1348 1.358 . S
C1347 C1349 1.356 . S
C1347 H1395 0.930 . S
C1348 N1345 1.279 . S
C1348 C1347 1.358 . S
C1348 H1351 0.930 . S
C1349 C1346 1.348 . S
C1349 C1347 1.356 . S
H1350 C1344 0.930 . S
H1351 C1348 0.930 . S
C1352 C1354 1.348 . S
C1352 C1355 1.356 . S
C1352 O1382 1.325 . S
N1353 C1356 1.314 . S
N1353 C1357 1.279 . S
C1354 C1352 1.348 . S
C1354 C1356 1.353 . S
C1354 H1396 0.929 . S
C1355 C1352 1.356 . S
C1355 C1357 1.358 . S
C1355 H1397 0.930 . S
C1356 N1353 1.314 . S
C1356 C1354 1.353 . S
C1356 H1398 0.930 . S
C1357 N1353 1.279 . S
C1357 C1355 1.358 . S
C1357 H1399 0.930 . S
C1358 C1359 1.348 . S
C1358 C1360 1.356 . S
C1358 O1383 1.325 . S
C1359 C1358 1.348 . S
C1359 C1361 1.353 . S
C1359 H1400 0.929 . S
C1360 C1358 1.356 . S
C1360 C1362 1.358 . S
C1360 H1401 0.930 . S
C1361 C1359 1.353 . S
C1361 N1363 1.314 . S
C1361 H1402 0.930 . S
C1362 C1360 1.358 . S
C1362 N1363 1.279 . S
C1362 H1403 0.930 . S
N1363 C1361 1.314 . S
N1363 C1362 1.279 . S
C1364 C1366 1.353 . S
C1364 N1367 1.314 . S
C1364 H1370 0.930 . S
C1365 N1367 1.279 . S
C1365 C1368 1.358 . S
C1365 H1371 0.930 . S
C1366 C1364 1.353 . S
C1366 C1369 1.348 . S
C1366 H1404 0.929 . S
N1367 Li1322 1.990 . S
N1367 C1364 1.314 . S
N1367 C1365 1.279 . S
C1368 C1365 1.358 . S
C1368 C1369 1.356 . S
C1368 H1405 0.930 . S
C1369 C1366 1.348 . S
C1369 C1368 1.356 . S
H1370 C1364 0.930 . S
H1371 C1365 0.930 . S
C1372 N1373 1.314 . S
C1372 C1374 1.353 . S
C1372 H1378 0.930 . S
N1373 Li1323 1.990 . S
N1373 C1372 1.314 . S
N1373 C1376 1.279 . S
C1374 C1372 1.353 . S
C1374 C1377 1.348 . S
C1374 H1406 0.929 1_655 S
C1375 C1376 1.358 . S
C1375 C1377 1.356 . S
C1375 H1407 0.930 . S
C1376 N1373 1.279 . S
C1376 C1375 1.358 . S
C1376 H1379 0.930 . S
C1377 C1374 1.348 . S
C1377 C1375 1.356 . S
H1378 C1372 0.930 . S
H1379 C1376 0.930 . S
O1380 Li1320 1.956 . S
O1380 Li1321 1.970 . S
O1380 Li1322 1.961 . S
O1380 C1324 1.325 . S
O1381 Li1320 1.970 . S
O1381 Li1321 1.956 . S
O1381 Li1323 1.961 . S
O1381 C1330 1.325 . S
O1382 Li1320 1.961 . S
O1382 Li1322 1.956 . S
O1382 Li1323 1.970 . S
O1382 C1352 1.325 . S
O1383 Li1321 1.961 . S
O1383 Li1322 1.970 . S
O1383 Li1323 1.956 . S
O1383 C1358 1.325 . S
H1384 C1326 0.929 . S
H1385 C1327 0.930 . S
H1386 C1328 0.930 . S
H1387 C1329 0.930 . S
H1388 C1331 0.930 . S
H1389 C1333 0.929 . S
H1390 C1334 0.930 . S
H1391 C1335 0.930 . S
H1392 C1338 0.930 . S
H1393 C1341 0.929 1_455 S
H1394 C1346 0.929 . S
H1395 C1347 0.930 . S
H1396 C1354 0.929 . S
H1397 C1355 0.930 . S
H1398 C1356 0.930 . S
H1399 C1357 0.930 . S
H1400 C1359 0.929 . S
H1401 C1360 0.930 . S
H1402 C1361 0.930 . S
H1403 C1362 0.930 . S
H1404 C1366 0.929 . S
H1405 C1368 0.930 . S
H1406 C1374 0.929 1_455 S
H1407 C1375 0.930 . S
C57 C1113 2.837 . S
C117 C489 2.837 1_645 S
C205 C1289 2.837 . S
C665 C313 2.837 1_544 S
C1252 C196 2.837 . S
C645 C321 2.837 1_565 S
C1076 C49 2.837 . S
C469 C108 2.837 1_446 S
C409 C761 2.837 . S
C577 C909 2.837 . S
C900 C557 2.837 . S
C372 C753 2.837 . S
C1201 C841 2.837 1_554 S
C1025 C1377 2.837 1_455 S
C1017 C1340 2.837 1_454 S
C849 C1164 2.837 . S
C997 C20 2.633 . S
C733 C137 2.636 . S
C225 C812 2.635 . S
C937 C293 2.636 . S
C988 C233 2.635 . S
C284 C724 2.636 . S
C821 C29 2.637 . S
C929 C145 2.632 . S
C401 C1349 2.633 . S
C1085 C497 2.630 . S
C585 C1173 2.631 . S
C673 C1261 2.630 . S
C548 C1369 2.631 . S
C1105 C636 2.630 . S
C1193 C381 2.629 . S
C1281 C460 2.634 . S
