# Generated by pormake.
# Topology vby, (6)-cn, num edge types: 1
# Building blocks:
#     Node 0, Type 0, BuildingBlock: PAMTOO_clean_sbu_0, # of connection points: 6
#     Node 1, Type 0, BuildingBlock: PAMTOO_clean_sbu_0, # of connection points: 6
#     Node 2, Type 0, BuildingBlock: PAMTOO_clean_sbu_0, # of connection points: 6
#     Node 3, Type 0, BuildingBlock: PAMTOO_clean_sbu_0, # of connection points: 6
#     Node 4, Type 0, BuildingBlock: PAMTOO_clean_sbu_0, # of connection points: 6
#     Node 5, Type 0, BuildingBlock: PAMTOO_clean_sbu_0, # of connection points: 6
#     Node 6, Type 0, BuildingBlock: PAMTOO_clean_sbu_0, # of connection points: 6
#     Node 7, Type 0, BuildingBlock: PAMTOO_clean_sbu_0, # of connection points: 6
#     Edge 8, Type (0, 0), BuildingBlock: ZUJKAS_clean_linker_0, # of connection points: 2
#     Edge 9, Type (0, 0), BuildingBlock: ZUJKAS_clean_linker_0, # of connection points: 2
#     Edge 10, Type (0, 0), BuildingBlock: ZUJKAS_clean_linker_0, # of connection points: 2
#     Edge 11, Type (0, 0), BuildingBlock: ZUJKAS_clean_linker_0, # of connection points: 2
#     Edge 12, Type (0, 0), BuildingBlock: ZUJKAS_clean_linker_0, # of connection points: 2
#     Edge 13, Type (0, 0), BuildingBlock: ZUJKAS_clean_linker_0, # of connection points: 2
#     Edge 14, Type (0, 0), BuildingBlock: ZUJKAS_clean_linker_0, # of connection points: 2
#     Edge 15, Type (0, 0), BuildingBlock: ZUJKAS_clean_linker_0, # of connection points: 2
#     Edge 16, Type (0, 0), BuildingBlock: ZUJKAS_clean_linker_0, # of connection points: 2
#     Edge 17, Type (0, 0), BuildingBlock: ZUJKAS_clean_linker_0, # of connection points: 2
#     Edge 18, Type (0, 0), BuildingBlock: ZUJKAS_clean_linker_0, # of connection points: 2
#     Edge 19, Type (0, 0), BuildingBlock: ZUJKAS_clean_linker_0, # of connection points: 2
#     Edge 20, Type (0, 0), BuildingBlock: ZUJKAS_clean_linker_0, # of connection points: 2
#     Edge 21, Type (0, 0), BuildingBlock: ZUJKAS_clean_linker_0, # of connection points: 2
#     Edge 22, Type (0, 0), BuildingBlock: ZUJKAS_clean_linker_0, # of connection points: 2
#     Edge 23, Type (0, 0), BuildingBlock: ZUJKAS_clean_linker_0, # of connection points: 2
#     Edge 24, Type (0, 0), BuildingBlock: ZUJKAS_clean_linker_0, # of connection points: 2
#     Edge 25, Type (0, 0), BuildingBlock: ZUJKAS_clean_linker_0, # of connection points: 2
#     Edge 26, Type (0, 0), BuildingBlock: ZUJKAS_clean_linker_0, # of connection points: 2
#     Edge 27, Type (0, 0), BuildingBlock: ZUJKAS_clean_linker_0, # of connection points: 2
#     Edge 28, Type (0, 0), BuildingBlock: ZUJKAS_clean_linker_0, # of connection points: 2
#     Edge 29, Type (0, 0), BuildingBlock: ZUJKAS_clean_linker_0, # of connection points: 2
#     Edge 30, Type (0, 0), BuildingBlock: ZUJKAS_clean_linker_0, # of connection points: 2
#     Edge 31, Type (0, 0), BuildingBlock: ZUJKAS_clean_linker_0, # of connection points: 2
# Relax obj value: 0.138
# Max RMSD: 0.188
# Mean RMSD: 0.178
data_MOF--net-vby--node1-PAMTOO_clean_sbu_0--edge1-ZUJKAS_clean_linker_0
_symmetry_space_group_name_H-M    P1
_symmetry_Int_Tables_number       1
_symmetry_cell_setting            triclinic
loop_
_symmetry_equiv_pos_as_xyz
'x, y, z'
_cell_length_a     19.913554
_cell_length_b     122.25097
_cell_length_c     38.847256
_cell_angle_alpha  85.616405
_cell_angle_beta   94.518171
_cell_angle_gamma 90.066008
loop_
_atom_site_label
_atom_site_type_symbol
_atom_site_fract_x
_atom_site_fract_y
_atom_site_fract_z
_atom_type_partial_charge
Dy0 Dy 0.10266 0.39906 0.00356 0.0
Dy1 Dy 0.09847 0.37169 0.01408 0.0
C2 C 0.09672 0.3865 0.07786 0.0
O3 O 0.20795 0.39345 0.01922 0.0
O4 O 0.20489 0.37568 0.00366 0.0
O5 O 0.14081 0.41444 0.02037 0.0
O6 O 0.07925 0.41412 0.97166 0.0
O7 O 0.05675 0.37725 0.96074 0.0
O8 O 0.12364 0.39218 0.95394 0.0
O9 O 0.99347 0.37698 0.02059 0.0
O10 O 0.99256 0.39506 -0.00196 0.0
O11 O 0.10024 0.35637 0.99041 0.0
O12 O 0.08711 0.35636 0.04534 0.0
C13 C 0.23843 0.38451 0.01183 0.0
O14 O 0.0729 0.39478 0.05692 0.0
O15 O 0.12493 0.37795 0.06608 0.0
C16 C 0.08436 0.43107 -0.00144 0.0
C17 C 0.05041 0.45306 0.00787 0.0
C18 C 0.05236 0.445 0.03587 0.0
C19 C 0.06927 0.43409 0.03128 0.0
C20 C 0.08007 0.439 0.97044 0.0
C21 C 0.06336 0.44985 0.97499 0.0
C22 C 0.11221 0.42017 0.99346 0.0
C23 C 0.08621 0.38452 0.94059 0.0
C24 C 0.96135 0.38612 0.00931 0.0
C25 C 0.13117 0.33995 0.02512 0.0
C26 C 0.18257 0.31828 0.02856 0.0
C27 C 0.20608 0.32647 0.00503 0.0
C28 C 0.1806 0.33719 0.00329 0.0
C29 C 0.11041 0.33195 0.04984 0.0
C30 C 0.13592 0.32125 0.05164 0.0
C31 C 0.09339 0.35043 0.01922 0.0
H32 H 0.04182 0.44714 0.06145 0.0
H33 H 0.07232 0.42813 0.05346 0.0
H34 H 0.0923 0.43688 0.94507 0.0
H35 H 0.06351 0.45582 0.95291 0.0
H36 H 0.24162 0.32448 0.98671 0.0
H37 H 0.19744 0.34316 0.98381 0.0
H38 H 0.07212 0.33385 0.06684 0.0
H39 H 0.11766 0.31522 0.07053 0.0
Dy40 Dy 0.94511 0.65236 0.00213 0.0
Dy41 Dy 0.94096 0.62499 0.00355 0.0
C42 C 0.95511 0.63738 0.07262 0.0
O43 O 0.05232 0.64701 0.01306 0.0
O44 O 0.04967 0.62896 -0.00115 0.0
O45 O 0.97358 0.66728 0.02581 0.0
O46 O 0.92454 0.66806 0.97368 0.0
O47 O 0.91151 0.63217 0.94991 0.0
O48 O 0.97771 0.64728 0.95216 0.0
O49 O 0.83741 0.63025 0.01303 0.0
O50 O 0.83643 0.64827 0.99097 0.0
O51 O 0.95234 0.61037 0.9768 0.0
O52 O 0.9144 0.6092 0.02785 0.0
C53 C 0.08271 0.63791 0.00659 0.0
O54 O 0.92423 0.64587 0.05552 0.0
O55 O 0.9787 0.62932 0.05642 0.0
C56 C 0.91338 0.68378 0.00547 0.0
C57 C 0.86064 0.70456 0.01698 0.0
C58 C 0.86868 0.69624 0.04415 0.0
C59 C 0.89486 0.68594 0.03847 0.0
C60 C 0.90364 0.69197 0.97821 0.0
C61 C 0.87757 0.70222 0.98384 0.0
C62 C 0.94898 0.6736 -0.00082 0.0
C63 C 0.94711 0.6398 0.93439 0.0
C64 C 0.805 0.63933 0.00168 0.0
C65 C 0.96268 0.59284 0.00902 0.0
C66 C 0.99684 0.57026 0.01583 0.0
C67 C 1.01263 0.57694 0.98651 0.0
C68 C 0.99565 0.58808 0.9831 0.0
C69 C 0.94994 0.58629 0.03914 0.0
C70 C 0.96718 0.57513 0.0426 0.0
C71 C 0.93142 0.60387 0.00195 0.0
H72 H 0.8554 0.69771 0.0699 0.0
H73 H 0.90193 0.67978 0.06004 0.0
H74 H 0.91831 0.69055 0.95263 0.0
H75 H 0.87317 0.70845 0.96241 0.0
H76 H 0.03634 0.57347 0.96564 0.0
H77 H 1.00557 0.59284 0.95937 0.0
H78 H 0.92359 0.58964 0.05934 0.0
H79 H 0.95386 0.5702 0.0654 0.0
Dy80 Dy 0.09697 0.6499 0.51002 0.0
Dy81 Dy 0.10563 0.62275 0.51118 0.0
C82 C 0.08779 0.63765 0.44195 0.0
O83 O 0.99331 0.64407 0.5197 0.0
O84 O 0.99519 0.62653 0.50141 0.0
O85 O 0.10413 0.66563 0.48118 0.0
O86 O 0.07658 0.66478 0.53424 0.0
O87 O 0.07402 0.62677 0.56258 0.0
O88 O 0.12751 0.64334 0.56431 0.0
O89 O 0.20974 0.62848 0.526 0.0
O90 O 0.20356 0.64606 0.5005 0.0
O91 O 0.13738 0.60695 0.53609 0.0
O92 O 0.09305 0.60822 0.48302 0.0
C93 C 0.96258 0.63507 0.51067 0.0
O94 O 0.05628 0.6447 0.45872 0.0
O95 O 0.12739 0.63021 0.45904 0.0
C96 C 0.12669 0.68151 0.51218 0.0
C97 C 0.17763 0.70288 0.52012 0.0
C98 C 0.16275 0.69919 0.48699 0.0
C99 C 0.13744 0.68866 0.48309 0.0
C100 C 0.14391 0.68502 0.54538 0.0
C101 C 0.16944 0.69558 0.54929 0.0
C102 C 0.08979 0.67115 0.5071 0.0
C103 C 0.09844 0.63489 0.57998 0.0
C104 C 0.23875 0.63744 0.51367 0.0
C105 C 0.08812 0.59064 0.51411 0.0
C106 C 0.05314 0.56817 0.52192 0.0
C107 C 0.06688 0.5742 0.55113 0.0
C108 C 0.0844 0.58531 0.54729 0.0
C109 C 0.07194 0.58473 0.485 0.0
C110 C 0.05459 0.57366 0.48882 0.0
C111 C 0.11791 0.6017 0.50904 0.0
H112 H 0.16947 0.70453 0.46397 0.0
H113 H 0.12407 0.68623 0.45719 0.0
H114 H 0.13559 0.67976 0.56836 0.0
H115 H 0.17998 0.6982 0.57518 0.0
H116 H 0.06541 0.57027 0.57701 0.0
H117 H 0.09713 0.5896 0.57028 0.0
H118 H 0.0756 0.58856 0.45912 0.0
H119 H 0.04546 0.56928 0.46571 0.0
Dy120 Dy 0.94397 0.36983 0.50742 0.0
Dy121 Dy 0.9387 0.39722 0.49711 0.0
C122 C 0.94717 0.38288 0.43429 0.0
O123 O 0.05075 0.37498 0.51779 0.0
O124 O 0.04794 0.3931 0.49559 0.0
O125 O 0.93374 0.35454 0.48351 0.0
O126 O 0.96363 0.35447 0.53846 0.0
O127 O 0.97556 0.39271 0.55196 0.0
O128 O 0.92317 0.37603 0.55824 0.0
O129 O 0.83497 0.39179 0.50785 0.0
O130 O 0.83537 0.3739 0.49339 0.0
O131 O 0.90189 0.41254 0.5125 0.0
O132 O 0.95952 0.41241 0.46729 0.0
C133 C 0.08111 0.3841 0.5076 0.0
O134 O 0.97803 0.3754 0.45575 0.0
O135 O 0.91146 0.39057 0.44598 0.0
C136 C 0.91041 0.33821 0.51813 0.0
C137 C 0.85942 0.31661 0.52654 0.0
C138 C 0.85478 0.32245 0.49384 0.0
C139 C 0.88005 0.3331 0.48967 0.0
C140 C 0.91252 0.33255 0.55113 0.0
C141 C 0.8869 0.32189 0.55532 0.0
C142 C 0.94839 0.34855 0.51236 0.0
C143 C 0.9528 0.38453 0.57162 0.0
C144 C 0.80321 0.38278 0.50015 0.0
C145 C 0.95708 0.42923 0.49508 0.0
C146 C 0.98774 0.45138 0.50576 0.0
C147 C 0.97708 0.44382 0.53397 0.0
C148 C 0.96166 0.43285 0.52869 0.0
C149 C 0.97112 0.43663 0.4672 0.0
C150 C 0.98641 0.44757 0.47245 0.0
C151 C 0.92861 0.4184 0.48764 0.0
H152 H 0.83305 0.31868 0.47122 0.0
H153 H 0.87819 0.33714 0.46381 0.0
H154 H 0.9365 0.33618 0.57351 0.0
H155 H 0.89168 0.31759 0.58083 0.0
H156 H 0.97737 0.44649 0.55993 0.0
H157 H 0.95067 0.42736 0.55072 0.0
H158 H 0.96749 0.43407 0.44102 0.0
H159 H 0.99553 0.45312 0.45024 0.0
Dy160 Dy 0.60312 0.89874 0.00545 0.0
Dy161 Dy 0.59905 0.8714 0.01597 0.0
C162 C 0.59493 0.88626 0.07974 0.0
O163 O 0.70818 0.89313 0.02178 0.0
O164 O 0.7054 0.87545 0.00556 0.0
O165 O 0.64262 0.91412 0.02159 0.0
O166 O 0.57809 0.91378 0.97389 0.0
O167 O 0.55791 0.87698 0.96249 0.0
O168 O 0.62502 0.89189 0.95598 0.0
O169 O 0.49393 0.87659 0.02254 0.0
O170 O 0.49307 0.89466 -0.00015 0.0
O171 O 0.59733 0.8561 0.99181 0.0
O172 O 0.59197 0.85602 0.0473 0.0
C173 C 0.73886 0.88423 0.01414 0.0
O174 O 0.5724 0.89458 0.05865 0.0
O175 O 0.62297 0.87763 0.06827 0.0
C176 C 0.58351 0.9307 0.00127 0.0
C177 C 0.55093 0.9529 0.00849 0.0
C178 C 0.57705 0.94609 0.03724 0.0
C179 C 0.59326 0.93511 0.03369 0.0
C180 C 0.55478 0.93738 0.9729 0.0
C181 C 0.53843 0.94834 0.97647 0.0
C182 C 0.61183 0.91987 0.99533 0.0
C183 C 0.58758 0.88427 0.94246 0.0
C184 C 0.46182 0.88573 0.01119 0.0
C185 C 0.63499 0.83977 0.02517 0.0
C186 C 0.69148 0.81836 0.03248 0.0
C187 C 0.67414 0.8236 -0.00052 0.0
C188 C 0.64617 0.83414 -0.0041 0.0
C189 C 0.65418 0.8347 0.05819 0.0
C190 C 0.68235 0.82413 0.06179 0.0
C191 C 0.59511 0.8501 0.02089 0.0
H192 H 0.58642 0.9493 0.06238 0.0
H193 H 0.6157 0.93022 0.05606 0.0
H194 H 0.54769 0.93427 0.94749 0.0
H195 H 0.51914 0.95337 0.95368 0.0
H196 H 0.67926 0.81938 0.97631 0.0
H197 H 0.63075 0.8377 0.97009 0.0
H198 H 0.64555 0.83875 0.08131 0.0
H199 H 0.69585 0.82041 0.0876 0.0
Dy200 Dy 0.4426 0.15176 0.00849 0.0
Dy201 Dy 0.43749 0.1244 0.0178 0.0
C202 C 0.4538 0.13856 0.08149 0.0
O203 O 0.5477 0.14648 0.00227 0.0
O204 O 0.54773 0.12829 0.0237 0.0
O205 O 0.44169 0.16695 0.03295 0.0
O206 O 0.45381 0.16722 0.97788 0.0
O207 O 0.46843 0.12884 0.96482 0.0
O208 O 0.41753 0.14577 0.95591 0.0
O209 O 0.33255 0.13013 0.00185 0.0
O210 O 0.33602 0.14777 0.01855 0.0
O211 O 0.3982 0.10912 0.0006 0.0
O212 O 0.46112 0.10922 0.04889 0.0
C213 C 0.57937 0.13726 0.01308 0.0
O214 O 0.4835 0.14594 0.06181 0.0
O215 O 0.41601 0.13104 0.0676 0.0
C216 C 0.41067 0.18353 -0.00087 0.0
C217 C 0.35972 0.2052 -0.00314 0.0
C218 C 0.33636 0.19692 0.02013 0.0
C219 C 0.36163 0.1862 0.02129 0.0
C220 C 0.43131 0.19163 0.97469 0.0
C221 C 0.40602 0.20233 0.97347 0.0
C222 C 0.44821 0.17302 0.00435 0.0
C223 C 0.44551 0.13721 0.94403 0.0
C224 C 0.30225 0.13903 0.00976 0.0
C225 C 0.45634 0.09243 0.02082 0.0
C226 C 0.48894 0.07024 0.01336 0.0
C227 C 0.46234 0.07706 0.98472 0.0
C228 C 0.44611 0.08803 0.9884 0.0
C229 C 0.48554 0.08574 0.04906 0.0
C230 C 0.50189 0.0748 0.04537 0.0
C231 C 0.42797 0.10325 0.02689 0.0
H232 H 0.30109 0.19884 0.03867 0.0
H233 H 0.34491 0.18015 0.04057 0.0
H234 H 0.46932 0.1898 0.95745 0.0
H235 H 0.42413 0.20844 0.95477 0.0
H236 H 0.45261 0.07386 0.95959 0.0
H237 H 0.42326 0.09292 0.96613 0.0
H238 H 0.49299 0.08884 0.07447 0.0
H239 H 0.52154 0.06976 0.06807 0.0
Dy240 Dy 0.59688 0.14985 0.51842 0.0
Dy241 Dy 0.60277 0.12247 0.52051 0.0
C242 C 0.58676 0.13732 0.45083 0.0
O243 O 0.49132 0.14448 0.52524 0.0
O244 O 0.49258 0.12636 0.51187 0.0
O245 O 0.6103 0.16545 0.48983 0.0
O246 O 0.57411 0.16488 0.5412 0.0
O247 O 0.57135 0.12681 0.57166 0.0
O248 O 0.62443 0.14344 0.57306 0.0
O249 O 0.7077 0.12785 0.53455 0.0
O250 O 0.70387 0.14569 0.51094 0.0
O251 O 0.63234 0.10658 0.54579 0.0
O252 O 0.58914 0.10797 0.49248 0.0
C253 C 0.4603 0.1353 0.51832 0.0
O254 O 0.55674 0.14464 0.46718 0.0
O255 O 0.6248 0.12972 0.46815 0.0
C256 C 0.63023 0.1813 0.52126 0.0
C257 C 0.68526 0.2023 0.53126 0.0
C258 C 0.6734 0.19872 0.49778 0.0
C259 C 0.64612 0.18837 0.49288 0.0
C260 C 0.64374 0.18471 0.55486 0.0
C261 C 0.6711 0.1951 0.5598 0.0
C262 C 0.59247 0.17111 0.51479 0.0
C263 C 0.59491 0.13505 0.58875 0.0
C264 C 0.73779 0.13684 0.52325 0.0
C265 C 0.58343 0.09028 0.5231 0.0
C266 C 0.55238 0.06762 0.52766 0.0
C267 C 0.57625 0.07279 0.55734 0.0
C268 C 0.59202 0.08399 0.55504 0.0
C269 C 0.55624 0.0852 0.49388 0.0
C270 C 0.5408 0.07403 0.49614 0.0
C271 C 0.61307 0.10138 0.51857 0.0
H272 H 0.68257 0.20408 0.47516 0.0
H273 H 0.63519 0.18604 0.46666 0.0
H274 H 0.63162 0.1795 0.57731 0.0
H275 H 0.68031 0.19754 0.58596 0.0
H276 H 0.58616 0.06807 0.58196 0.0
H277 H 0.61385 0.08759 0.57795 0.0
H278 H 0.54979 0.08974 0.46878 0.0
H279 H 0.52157 0.07033 0.47291 0.0
Dy280 Dy 0.44486 0.86979 0.50952 0.0
Dy281 Dy 0.43676 0.89704 0.4991 0.0
C282 C 0.445 0.88274 0.43623 0.0
O283 O 0.55098 0.87534 0.52043 0.0
O284 O 0.54539 0.89304 0.49472 0.0
O285 O 0.43763 0.85437 0.48611 0.0
O286 O 0.46452 0.85456 0.54122 0.0
O287 O 0.47702 0.89258 0.5535 0.0
O288 O 0.42311 0.87608 0.56005 0.0
O289 O 0.33501 0.89116 0.51227 0.0
O290 O 0.33626 0.87371 0.49435 0.0
O291 O 0.39906 0.91223 0.51504 0.0
O292 O 0.455 0.91235 0.46926 0.0
C293 C 0.57996 0.88434 0.50813 0.0
O294 O 0.47735 0.87539 0.4576 0.0
O295 O 0.4085 0.89032 0.44811 0.0
C296 C 0.41271 0.83819 0.52113 0.0
C297 C 0.35893 0.81677 0.53005 0.0
C298 C 0.35433 0.82259 0.49728 0.0
C299 C 0.38098 0.83315 0.49287 0.0
C300 C 0.41535 0.83254 0.55411 0.0
C301 C 0.38853 0.82197 0.55855 0.0
C302 C 0.45101 0.84851 0.5153 0.0
C303 C 0.45398 0.88448 0.57337 0.0
C304 C 0.30361 0.88226 0.50317 0.0
C305 C 0.45356 0.92897 0.49796 0.0
C306 C 0.48921 0.95078 0.51104 0.0
C307 C 0.48408 0.94271 0.53859 0.0
C308 C 0.46639 0.93191 0.53214 0.0
C309 C 0.46101 0.9369 0.4705 0.0
C310 C 0.47869 0.94767 0.47691 0.0
C311 C 0.42456 0.91821 0.49009 0.0
H312 H 0.3329 0.81882 0.47462 0.0
H313 H 0.37906 0.83716 0.46697 0.0
H314 H 0.44016 0.83613 0.57636 0.0
H315 H 0.39217 0.8178 0.58424 0.0
H316 H 0.49275 0.94478 0.56519 0.0
H317 H 0.46091 0.92598 0.55388 0.0
H318 H 0.45056 0.93487 0.44394 0.0
H319 H 0.48122 0.95366 0.45503 0.0
H320 H 0.32371 0.36704 0.00819 0.0
H321 H 0.44687 0.36737 0.00901 0.0
H322 H 0.44454 0.4024 0.01615 0.0
H323 H 0.32225 0.40212 0.0163 0.0
H324 H 0.52757 0.37779 0.96438 0.0
H325 H 0.58193 0.39309 0.09423 0.0
H326 H 0.49976 0.38823 0.07962 0.0
H327 H 0.52571 0.40194 0.06655 0.0
C328 C 0.34946 0.3748 0.01019 0.0
C329 C 0.31303 0.38454 0.01249 0.0
C330 C 0.41986 0.37498 0.01063 0.0
C331 C 0.45512 0.38488 0.01334 0.0
C332 C 0.41874 0.39462 0.01507 0.0
H333 H 0.87509 0.40382 -0.00077 0.0
H334 H 0.75186 0.40365 -0.00054 0.0
C335 C 0.34859 0.39444 0.01494 0.0
C336 C 0.52971 0.38512 0.01314 0.0
H337 H 0.67347 0.39321 0.0581 0.0
C338 C 0.55944 0.38109 0.98499 0.0
C339 C 0.5714 0.38944 0.04006 0.0
C340 C 0.54317 0.39332 0.07198 0.0
C341 C 0.62948 0.38143 0.98278 0.0
C342 C 0.67081 0.38589 0.00943 0.0
C343 C 0.64136 0.38991 0.03757 0.0
C344 C 0.74508 0.38604 0.00913 0.0
C345 C 0.65897 0.37714 0.95182 0.0
C346 C 0.78176 0.37621 0.01485 0.0
C347 C 0.85189 0.37628 0.01498 0.0
C348 C 0.88684 0.38619 0.00926 0.0
C349 C 0.84981 0.39605 0.00357 0.0
C350 C 0.77948 0.39597 0.00375 0.0
H351 H 0.61974 0.37582 0.93059 0.0
H352 H 0.69715 0.38292 0.94176 0.0
H353 H 0.68459 0.36919 0.95974 0.0
H354 H 0.75606 0.36848 0.01938 0.0
H355 H 0.8786 0.36853 0.0194 0.0
H356 H 0.16789 0.62036 0.00435 0.0
H357 H 0.29091 0.62066 0.00467 0.0
H358 H 0.28885 0.65579 0.00923 0.0
H359 H 0.16663 0.65556 0.00984 0.0
H360 H 0.37022 0.63078 0.95867 0.0
H361 H 0.42798 0.64694 0.08706 0.0
H362 H 0.34554 0.64199 0.07336 0.0
H363 H 0.3711 0.65562 0.05916 0.0
C364 C 0.19366 0.62815 0.00571 0.0
C365 C 0.1573 0.63793 0.00736 0.0
C366 C 0.26398 0.6283 0.00586 0.0
C367 C 0.29927 0.63823 0.00763 0.0
C368 C 0.26301 0.648 0.00885 0.0
H369 H 0.71869 0.65701 0.99146 0.0
H370 H 0.59552 0.65683 0.99192 0.0
C371 C 0.19291 0.64785 0.009 0.0
C372 C 0.37374 0.63843 0.00692 0.0
H373 H 0.51854 0.64674 0.05041 0.0
C374 C 0.40263 0.6342 0.97886 0.0
C375 C 0.41609 0.64291 0.03327 0.0
C376 C 0.3887 0.64702 0.06508 0.0
C377 C 0.47253 0.63449 0.97616 0.0
C378 C 0.51457 0.63909 0.00225 0.0
C379 C 0.48591 0.64332 0.03031 0.0
C380 C 0.58876 0.63922 0.00147 0.0
C381 C 0.50106 0.63 0.94525 0.0
C382 C 0.62544 0.62939 0.00698 0.0
C383 C 0.69555 0.62946 0.00696 0.0
C384 C 0.73046 0.63937 0.00131 0.0
C385 C 0.69342 0.64923 -0.00428 0.0
C386 C 0.62313 0.64915 -0.00396 0.0
H387 H 0.46134 0.62869 0.92426 0.0
H388 H 0.53956 0.63564 0.9348 0.0
H389 H 0.52603 0.622 0.95337 0.0
H390 H 0.59978 0.62166 0.01158 0.0
H391 H 0.72232 0.6217 0.01132 0.0
H392 H 0.87271 0.62394 0.46941 0.0
H393 H 0.74935 0.62455 0.46777 0.0
H394 H 0.76254 0.64544 0.55269 0.0
H395 H 0.88515 0.64534 0.55307 0.0
H396 H 0.66148 0.61828 0.51016 0.0
H397 H 0.63599 0.66328 0.48807 0.0
H398 H 0.71519 0.65634 0.48601 0.0
H399 H 0.68755 0.65965 0.52713 0.0
C400 C 0.84909 0.62867 0.48764 0.0
C401 C 0.8884 0.63471 0.51104 0.0
C402 C 0.77862 0.62903 0.48669 0.0
C403 C 0.74625 0.63531 0.50944 0.0
C404 C 0.78587 0.64091 0.5339 0.0
H405 H 0.32995 0.62572 0.55789 0.0
H406 H 0.45236 0.62534 0.55646 0.0
C407 C 0.85607 0.64076 0.53431 0.0
C408 C 0.67128 0.63586 0.50808 0.0
H409 H 0.5388 0.65367 0.50671 0.0
C410 C 0.63466 0.62603 0.50907 0.0
C411 C 0.63574 0.64597 0.50587 0.0
C412 C 0.67067 0.65689 0.5013 0.0
C413 C 0.56402 0.62601 0.50876 0.0
C414 C 0.52892 0.63609 0.50899 0.0
C415 C 0.56544 0.64592 0.50715 0.0
C416 C 0.45447 0.63665 0.51082 0.0
C417 C 0.528 0.61516 0.50732 0.0
C418 C 0.41473 0.64362 0.48692 0.0
C419 C 0.34479 0.64413 0.48844 0.0
C420 C 0.31307 0.63757 0.5136 0.0
C421 C 0.35289 0.63076 0.5379 0.0
C422 C 0.42291 0.63045 0.53686 0.0
H423 H 0.55825 0.60906 0.49532 0.0
H424 H 0.52022 0.6118 0.53405 0.0
H425 H 0.47823 0.61607 0.49236 0.0
H426 H 0.43769 0.64855 0.46671 0.0
H427 H 0.3154 0.64943 0.46931 0.0
H428 H 0.71815 0.36508 0.49765 0.0
H429 H 0.59506 0.36516 0.49864 0.0
H430 H 0.59672 0.40028 0.50295 0.0
H431 H 0.71916 0.40032 0.50211 0.0
H432 H 0.51864 0.37481 0.55325 0.0
H433 H 0.45664 0.39367 0.41966 0.0
H434 H 0.53576 0.38675 0.43265 0.0
H435 H 0.52129 0.40028 0.44553 0.0
C436 C 0.69232 0.37283 0.4986 0.0
C437 C 0.72863 0.38269 0.49976 0.0
C438 C 0.62206 0.37285 0.49925 0.0
C439 C 0.58695 0.38274 0.50056 0.0
C440 C 0.6229 0.39258 0.50155 0.0
H441 H 0.16579 0.40163 0.49799 0.0
H442 H 0.28872 0.40126 0.49802 0.0
C443 C 0.69299 0.39256 0.50121 0.0
C444 C 0.5128 0.38281 0.50182 0.0
H445 H 0.36681 0.3914 0.45581 0.0
C446 C 0.48525 0.37837 0.53192 0.0
C447 C 0.46973 0.38757 0.47408 0.0
C448 C 0.49699 0.39229 0.44098 0.0
C449 C 0.41556 0.37874 0.53528 0.0
C450 C 0.37217 0.38341 0.50736 0.0
C451 C 0.39997 0.38783 0.47722 0.0
C452 C 0.29777 0.38366 0.5086 0.0
C453 C 0.38943 0.37441 0.56911 0.0
C454 C 0.26185 0.37389 0.51431 0.0
C455 C 0.19175 0.37409 0.51465 0.0
C456 C 0.15578 0.38404 0.5087 0.0
C457 C 0.19181 0.39382 0.50272 0.0
C458 C 0.26211 0.39362 0.50269 0.0
H459 H 0.42933 0.37434 0.59079 0.0
H460 H 0.34629 0.37939 0.57566 0.0
H461 H 0.37218 0.36584 0.5669 0.0
H462 H 0.28792 0.36607 0.51795 0.0
H463 H 0.16573 0.36637 0.5189 0.0
H464 H 0.8242 0.86681 0.01007 0.0
H465 H 0.94732 0.86716 0.01083 0.0
H466 H 0.94496 0.90214 0.01902 0.0
H467 H 0.82265 0.90184 0.01923 0.0
H468 H 0.02775 0.87766 0.96642 0.0
H469 H 0.08285 0.89267 0.09664 0.0
H470 H 1.00058 0.88786 0.08201 0.0
H471 H 0.02662 0.90158 0.06918 0.0
C472 C 0.84993 0.87457 0.0123 0.0
C473 C 0.81348 0.88428 0.01489 0.0
C474 C 0.92032 0.87475 0.01271 0.0
C475 C 0.95558 0.88465 0.01567 0.0
C476 C 0.91918 0.89436 0.01774 0.0
H477 H 0.37576 0.90346 0.00105 0.0
H478 H 0.25255 0.90333 0.00142 0.0
C479 C 0.84902 0.89417 0.01764 0.0
C480 C 0.03018 0.88489 0.01538 0.0
H481 H 0.17424 0.89283 0.06042 0.0
C482 C 0.05974 0.88092 0.9871 0.0
C483 C 0.07204 0.88914 0.04237 0.0
C484 C 0.044 0.89295 0.07442 0.0
C485 C 0.12978 0.88123 0.98484 0.0
C486 C 0.17128 0.88561 0.01157 0.0
C487 C 0.142 0.88958 0.03983 0.0
C488 C 0.24555 0.88573 0.01121 0.0
C489 C 0.1591 0.87699 0.95376 0.0
C490 C 0.2821 0.87589 0.01693 0.0
C491 C 0.35224 0.87593 0.01699 0.0
C492 C 0.38731 0.88582 0.01117 0.0
C493 C 0.35039 0.89569 0.00546 0.0
C494 C 0.28008 0.89565 0.00572 0.0
H495 H 0.11977 0.87568 0.93258 0.0
H496 H 0.19713 0.8828 0.94369 0.0
H497 H 0.18491 0.86904 0.96156 0.0
H498 H 0.25631 0.86817 0.02153 0.0
H499 H 0.37885 0.86817 0.02143 0.0
H500 H 0.21768 0.12157 0.00301 0.0
H501 H 0.09511 0.12137 0.00342 0.0
H502 H 0.09455 0.15609 0.01591 0.0
H503 H 0.21767 0.15642 0.01571 0.0
H504 H 1.017 0.12928 0.05978 0.0
H505 H 0.95688 0.1508 0.92949 0.0
H506 H 0.03647 0.14391 0.94152 0.0
H507 H 1.01979 0.15689 0.95783 0.0
C508 C 0.1917 0.1292 0.00567 0.0
C509 C 0.22766 0.13903 0.00922 0.0
C510 C 0.12161 0.12905 0.006 0.0
C511 C 0.08593 0.13872 0.00946 0.0
C512 C 0.12132 0.14856 0.0129 0.0
H513 H 0.66308 0.15486 0.00627 0.0
H514 H 0.78547 0.15483 0.00654 0.0
C515 C 0.19164 0.14872 0.01287 0.0
C516 C 1.01169 0.13842 0.01007 0.0
H517 H 0.86567 0.14643 0.96312 0.0
C518 C 0.98372 0.13301 0.03868 0.0
C519 C 0.96877 0.14332 0.98251 0.0
C520 C 0.9966 0.14901 0.9509 0.0
C521 C 0.91364 0.13253 0.04078 0.0
C522 C 0.87045 0.13734 0.01302 0.0
C523 C 0.8987 0.14273 0.98435 0.0
C524 C 0.79588 0.13717 0.01349 0.0
C525 C 0.88676 0.12717 0.07315 0.0
C526 C 0.76065 0.12723 0.01706 0.0
C527 C 0.69033 0.12721 0.01727 0.0
C528 C 0.65388 0.13713 0.0133 0.0
C529 C 0.68937 0.14705 0.00929 0.0
C530 C 0.7595 0.14706 0.00943 0.0
H531 H 0.92558 0.12674 0.09539 0.0
H532 H 0.84223 0.13167 0.0804 0.0
H533 H 0.87125 0.11865 0.06847 0.0
H534 H 0.78743 0.11947 0.01933 0.0
H535 H 0.66455 0.11942 0.02007 0.0
H536 H 0.37525 0.15277 0.51935 0.0
H537 H 0.25277 0.15257 0.51999 0.0
H538 H 0.2532 0.11739 0.51744 0.0
H539 H 0.37626 0.11746 0.51668 0.0
H540 H 0.15542 0.14276 0.46817 0.0
H541 H 0.14737 0.12474 0.60382 0.0
H542 H 0.2212 0.13153 0.58851 0.0
H543 H 0.20013 0.11804 0.57618 0.0
C544 C 0.34956 0.14496 0.51896 0.0
C545 C 0.38577 0.13511 0.51808 0.0
C546 C 0.27948 0.14489 0.51925 0.0
C547 C 0.24419 0.13497 0.51905 0.0
C548 C 0.27979 0.12512 0.51793 0.0
H549 H 0.82271 0.11917 0.53531 0.0
H550 H 0.94482 0.11886 0.53337 0.0
C551 C 0.35003 0.12518 0.51736 0.0
C552 C 0.16998 0.13501 0.51982 0.0
H553 H 0.04331 0.12827 0.57169 0.0
C554 C 0.13071 0.13959 0.49074 0.0
C555 C 0.13825 0.13085 0.54931 0.0
C556 C 0.17861 0.12606 0.58141 0.0
C557 C 0.06013 0.13999 0.49017 0.0
C558 C 0.02821 0.13599 0.51992 0.0
C559 C 0.06774 0.13137 0.54896 0.0
C560 C 0.95387 0.13635 0.5213 0.0
C561 C 1.0205 0.14445 0.45739 0.0
C562 C 0.9182 0.14632 0.51573 0.0
C563 C 0.84805 0.14652 0.51652 0.0
C564 C 0.81232 0.13678 0.52348 0.0
C565 C 0.84847 0.12685 0.52992 0.0
C566 C 0.91841 0.12664 0.5288 0.0
H567 H 0.0502 0.14414 0.43444 0.0
H568 H 0.97313 0.13981 0.45274 0.0
H569 H 1.0073 0.15316 0.45978 0.0
H570 H 0.94462 0.15396 0.51085 0.0
H571 H 0.8219 0.15432 0.51177 0.0
H572 H 0.65587 0.89571 0.46219 0.0
H573 H 0.77802 0.89481 0.45942 0.0
H574 H 0.79408 0.87278 0.55199 0.0
H575 H 0.6716 0.87316 0.55362 0.0
H576 H 0.87875 0.90058 0.49812 0.0
H577 H 0.90071 0.8557 0.49336 0.0
H578 H 0.82029 0.86261 0.48963 0.0
H579 H 0.86301 0.85901 0.53164 0.0
C580 C 0.68555 0.89067 0.48193 0.0
C581 C 0.65422 0.88444 0.50797 0.0
C582 C 0.75541 0.89014 0.4803 0.0
C583 C 0.79553 0.8835 0.50498 0.0
C584 C 0.76434 0.87762 0.53184 0.0
H585 H 0.22598 0.89327 0.54369 0.0
H586 H 0.1035 0.89329 0.54373 0.0
C587 C 0.69433 0.87794 0.53298 0.0
C588 C 0.86997 0.88297 0.50305 0.0
H589 H 1.00351 0.86529 0.50607 0.0
C590 C 0.90584 0.89285 0.49956 0.0
C591 C 0.90564 0.87291 0.50411 0.0
C592 C 0.87027 0.86197 0.50449 0.0
C593 C 0.97602 0.89295 0.49782 0.0
C594 C 1.0122 0.88289 0.5013 0.0
C595 C 0.97623 0.87301 0.50399 0.0
C596 C 0.08717 0.88245 0.50233 0.0
C597 C 1.0101 0.90388 0.49139 0.0
C598 C 0.11955 0.87583 0.48051 0.0
C599 C 0.19002 0.87553 0.48126 0.0
C600 C 0.22934 0.88196 0.5035 0.0
C601 C 0.19697 0.88838 0.5258 0.0
C602 C 0.1268 0.88848 0.52562 0.0
H603 H 0.97478 0.91003 0.47739 0.0
H604 H 0.02719 0.90706 0.51658 0.0
H605 H 0.05437 0.90314 0.47603 0.0
H606 H 0.09028 0.87101 0.4625 0.0
H607 H 0.21362 0.87049 0.46381 0.0
H608 H 0.04585 0.55627 0.07091 0.0
H609 H 0.05768 0.53624 0.07273 0.0
H610 H 0.97821 0.53689 0.96607 0.0
H611 H 0.967 0.55679 0.96396 0.0
H612 H 0.96293 0.52044 0.06272 0.0
H613 H 0.14749 0.51903 0.9638 0.0
H614 H 0.12787 0.53153 0.98286 0.0
H615 H 0.07354 0.52676 0.94789 0.0
C616 C 0.03124 0.55213 0.04782 0.0
C617 C 1.00638 0.55815 0.01715 0.0
C618 C 0.03807 0.5407 0.04888 0.0
C619 C 1.02015 0.53507 0.01933 0.0
C620 C 0.99435 0.54105 0.98889 0.0
H621 H 0.97835 0.46834 0.9644 0.0
H622 H 0.97068 0.48809 0.96968 0.0
C623 C 0.98796 0.55246 0.98773 0.0
C624 C 0.0263 0.52292 0.02038 0.0
H625 H 0.09146 0.50221 0.9787 0.0
C626 C 0.99165 0.51645 0.04462 0.0
C627 C 0.06401 0.5177 -0.00318 0.0
C628 C 0.1059 0.52411 0.97163 0.0
C629 C 0.99184 0.50493 0.04511 0.0
C630 C 0.02776 0.49977 0.02084 0.0
C631 C 0.06342 0.50621 -0.00293 0.0
C632 C 0.02852 0.48769 0.01925 0.0
C633 C 0.95217 0.49834 0.07087 0.0
C634 C 0.0632 0.48091 0.04554 0.0
C635 C 0.0684 0.46961 0.04244 0.0
C636 C 0.03899 0.46487 0.01295 0.0
C637 C 1.00254 0.4717 0.98719 0.0
C638 C 0.99776 0.48299 0.99023 0.0
H639 H 0.91849 0.5036 0.08414 0.0
H640 H 0.9213 0.49207 0.0578 0.0
H641 H 0.98754 0.49397 0.09078 0.0
H642 H 0.08806 0.48441 0.06793 0.0
H643 H 0.09773 0.46466 0.06253 0.0
H644 H 0.06309 0.46118 0.55722 0.0
H645 H 0.07275 0.48087 0.56524 0.0
H646 H 0.94049 0.48815 0.47307 0.0
H647 H 0.92955 0.46859 0.46523 0.0
H648 H 0.11839 0.49794 0.51713 0.0
H649 H 0.85489 0.50474 0.54778 0.0
H650 H 0.89282 0.49126 0.55029 0.0
H651 H 0.86276 0.49786 0.50904 0.0
C652 C 0.03574 0.46698 0.53881 0.0
C653 C 0.99566 0.4633 0.51055 0.0
C654 C 0.0415 0.47821 0.54336 0.0
C655 C 1.00659 0.48595 0.52001 0.0
C656 C 0.96704 0.48231 0.49169 0.0
H657 H 0.96447 0.55598 0.48297 0.0
H658 H 0.95496 0.53601 0.485 0.0
C659 C 0.96152 0.47112 0.48703 0.0
C660 C 1.0125 0.49787 0.52457 0.0
H661 H 0.92006 0.52069 0.53554 0.0
C662 C 0.07529 0.50291 0.52155 0.0
C663 C 0.95606 0.50433 0.53018 0.0
C664 C 0.88788 0.49928 0.53483 0.0
C665 C 0.08269 0.51432 0.52271 0.0
C666 C 0.02599 0.52082 0.52789 0.0
C667 C 0.96346 0.51572 0.53158 0.0
C668 C 0.02988 0.53296 0.52811 0.0
C669 C 0.15055 0.51935 0.51696 0.0
C670 C 0.07386 0.53793 0.55226 0.0
C671 C 0.08 0.54936 0.55092 0.0
C672 C 0.04175 0.55608 0.52559 0.0
C673 C 0.99562 0.55107 0.50241 0.0
C674 C 0.98978 0.53965 0.50368 0.0
H675 H 0.18355 0.51371 0.50468 0.0
H676 H 0.14507 0.52715 0.50036 0.0
H677 H 0.17615 0.52115 0.54229 0.0
H678 H 0.1042 0.53295 0.57187 0.0
H679 H 0.11637 0.55289 0.56905 0.0
H680 H 0.63398 0.96693 0.04318 0.0
H681 H 0.62189 0.98679 0.04466 0.0
H682 H 0.43615 0.98599 0.97991 0.0
H683 H 0.44683 0.96607 0.97907 0.0
H684 H 0.61556 1.00231 0.98762 0.0
H685 H 0.38548 1.00392 0.05907 0.0
H686 H 0.43455 0.99154 0.05847 0.0
H687 H 0.37705 0.99593 0.02206 0.0
C688 C 0.58976 0.97093 0.02986 0.0
C689 C 0.54113 0.96488 0.01118 0.0
C690 C 0.58327 0.9823 0.03049 0.0
C691 C 0.52781 0.98786 0.0127 0.0
C692 C 0.47882 0.98185 0.99429 0.0
H693 H 0.4056 0.05622 0.97881 0.0
H694 H 0.41771 0.03637 0.97721 0.0
C695 C 0.48532 0.97047 0.99358 0.0
C696 C 0.52286 0.99999 0.01221 0.0
H697 H 0.42431 0.02084 0.03399 0.0
C698 C 0.57393 1.00637 -0.0021 0.0
C699 C 0.46841 1.00526 0.02555 0.0
C700 C 0.41349 0.99883 0.04244 0.0
C701 C 0.57145 0.01789 -0.00395 0.0
C702 C 0.51701 0.02316 0.00939 0.0
C703 C 0.46594 0.01678 0.0237 0.0
C704 C 0.51207 0.03529 0.00893 0.0
C705 C 0.62635 0.02431 0.97912 0.0
C706 C 0.56123 0.0413 0.02724 0.0
C707 C 0.55473 0.05267 0.028 0.0
C708 C 0.49874 0.05827 0.01058 0.0
C709 C 0.44995 0.05222 0.992 0.0
C710 C 0.45646 0.04085 0.9913 0.0
H711 H 0.65418 0.01923 0.9624 0.0
H712 H 0.60532 0.03163 0.96318 0.0
H713 H 0.66295 0.02718 -0.00051 0.0
H714 H 0.60401 0.03716 0.04151 0.0
H715 H 0.59334 0.05708 0.04243 0.0
H716 H 0.59286 0.05374 0.48145 0.0
H717 H 0.58219 0.03378 0.48344 0.0
H718 H 0.48546 0.03393 0.57884 0.0
H719 H 0.49529 0.054 0.57687 0.0
H720 H 0.63479 0.01809 0.54002 0.0
H721 H 0.35649 0.0162 0.5128 0.0
H722 H 0.40413 0.02844 0.50255 0.0
H723 H 0.38779 0.0246 0.54658 0.0
C724 C 0.56846 0.04956 0.50265 0.0
C725 C 0.5443 0.05548 0.52884 0.0
C726 C 0.5629 0.03814 0.50387 0.0
C727 C 0.53256 0.03239 0.53111 0.0
C728 C 0.50843 0.03824 0.55739 0.0
H729 H 0.43761 0.96259 0.56026 0.0
H730 H 0.45205 0.98213 0.56838 0.0
C731 C 0.51443 0.04968 0.55633 0.0
C732 C 0.52732 0.02026 0.53202 0.0
H733 H 0.41497 0.99938 0.52239 0.0
C734 C 0.58675 0.01398 0.5363 0.0
C735 C 0.46459 0.01494 0.52733 0.0
C736 C 0.39943 0.02135 0.52182 0.0
C737 C 0.58517 1.00249 0.53595 0.0
C738 C 0.52252 0.99717 0.53031 0.0
C739 C 0.46298 1.00346 0.52668 0.0
C740 C 0.51763 0.98515 0.52688 0.0
C741 C 0.65061 0.99618 0.54204 0.0
C742 C 0.54981 0.98031 0.50091 0.0
C743 C 0.54226 0.96912 0.49643 0.0
C744 C 0.50174 0.96251 0.51761 0.0
C745 C 0.4701 0.96737 0.54385 0.0
C746 C 0.47781 0.97857 0.54835 0.0
H747 H 0.68992 1.00088 0.55643 0.0
H748 H 0.64376 0.98816 0.55676 0.0
H749 H 0.66931 0.99461 0.51669 0.0
H750 H 0.57967 0.98524 0.48354 0.0
H751 H 0.56775 0.96566 0.47614 0.0
H752 H 0.10283 0.30009 0.03438 0.0
H753 H 0.13416 0.28096 0.03021 0.0
H754 H 0.33794 0.29076 0.01382 0.0
H755 H 0.30757 0.30994 0.01911 0.0
H756 H 0.18412 0.27183 0.97415 0.0
H757 H 0.36492 0.26594 0.09039 0.0
H758 H 0.30724 0.27742 0.08344 0.0
H759 H 0.38296 0.27747 0.06112 0.0
C760 C 0.15472 0.29819 0.03062 0.0
C761 C 0.20283 0.30658 0.02741 0.0
C762 C 0.17237 0.28724 0.02792 0.0
C763 C 0.23854 0.2844 0.02212 0.0
C764 C 0.28682 0.29273 0.01892 0.0
H765 H 0.43948 0.2234 0.99158 0.0
H766 H 0.40816 0.2425 -0.00374 0.0
C767 C 0.26921 0.30371 0.02161 0.0
C768 C 0.25612 0.27278 0.01816 0.0
H769 H 0.3582 0.25159 0.05247 0.0
C770 C 0.22197 0.26738 0.99136 0.0
C771 C 0.30556 0.26699 0.04061 0.0
C772 C 0.34194 0.2722 0.07071 0.0
C773 C 0.23673 0.25643 0.98602 0.0
C774 C 0.28618 0.25065 0.00847 0.0
C775 C 0.32032 0.25604 0.03527 0.0
C776 C 0.30386 0.23903 0.00443 0.0
C777 C 0.20037 0.25123 0.95591 0.0
C778 C 0.25563 0.23069 0.00754 0.0
C779 C 0.27324 0.21973 0.00455 0.0
C780 C 0.33955 0.21688 -0.00147 0.0
C781 C 0.38764 0.22529 0.99549 0.0
C782 C 0.37 0.23622 -0.00152 0.0
H783 H 0.1773 0.25748 0.93627 0.0
H784 H 0.23511 0.24602 0.94314 0.0
H785 H 0.15942 0.24594 0.9655 0.0
H786 H 0.20454 0.23263 0.01274 0.0
H787 H 0.23489 0.21349 0.00694 0.0
H788 H 0.65793 0.80195 0.08018 0.0
H789 H 0.68956 0.78256 0.08334 0.0
H790 H 0.80539 0.78877 0.99473 0.0
H791 H 0.77661 0.80824 0.99234 0.0
H792 H 0.66009 0.76809 0.03545 0.0
H793 H 0.93704 0.77073 0.05992 0.0
H794 H 0.88176 0.78214 0.06436 0.0
H795 H 0.90563 0.77916 0.0223 0.0
C796 C 0.69158 0.79926 0.06189 0.0
C797 C 0.71488 0.80671 0.03607 0.0
C798 C 0.7091 0.78814 0.06354 0.0
C799 C 0.75051 0.78421 0.03954 0.0
C800 C 0.77451 0.79162 0.01399 0.0
H801 H 0.77563 0.71837 0.97489 0.0
H802 H 0.7475 0.73741 0.9826 0.0
C803 C 0.75727 0.80275 0.0124 0.0
C804 C 0.76539 0.77227 0.03995 0.0
H805 H 0.89376 0.75368 0.04143 0.0
C806 C 0.71122 0.76494 0.03708 0.0
C807 C 0.83205 0.7681 0.04255 0.0
C808 C 0.89244 0.77543 0.04781 0.0
C809 C 0.72183 0.75362 0.03573 0.0
C810 C 0.78846 0.74953 0.03654 0.0
C811 C 0.84266 0.75682 0.04045 0.0
C812 C 0.8032 0.73778 0.03264 0.0
C813 C 0.66149 0.74615 0.03372 0.0
C814 C 0.84483 0.73166 0.05791 0.0
C815 C 0.8619 0.72079 0.05333 0.0
C816 C 0.83798 0.71582 0.02324 0.0
C817 C 0.79545 0.72194 -0.00177 0.0
C818 C 0.7786 0.73281 0.0028 0.0
H819 H 0.61717 0.74989 0.04409 0.0
H820 H 0.64762 0.7447 0.00623 0.0
H821 H 0.67258 0.73811 0.04831 0.0
H822 H 0.8648 0.73534 0.08105 0.0
H823 H 0.8956 0.7164 0.07287 0.0
H824 H 0.12461 0.72131 0.48382 0.0
H825 H 0.15725 0.74038 0.48976 0.0
H826 H 0.30719 0.72997 0.57181 0.0
H827 H 0.27564 0.71077 0.56559 0.0
H828 H 0.15696 0.75235 0.55052 0.0
H829 H 0.41197 0.74968 0.50257 0.0
H830 H 0.348 0.73947 0.49496 0.0
H831 H 0.39316 0.73966 0.53676 0.0
C832 C 0.16517 0.72304 0.50285 0.0
C833 C 0.198 0.71449 0.524 0.0
C834 C 0.18337 0.73396 0.50638 0.0
C835 C 0.23509 0.73659 0.53095 0.0
C836 C 0.26771 0.72811 0.55236 0.0
H837 H 0.42071 0.79964 0.57015 0.0
H838 H 0.38841 0.78032 0.57357 0.0
C839 C 0.24929 0.71715 0.54895 0.0
C840 C 0.25399 0.74824 0.5342 0.0
H841 H 0.38051 0.76665 0.52162 0.0
C842 C 0.20589 0.75549 0.5443 0.0
C843 C 0.3179 0.75229 0.52618 0.0
C844 C 0.37076 0.74493 0.51425 0.0
C845 C 0.22 0.76668 0.54667 0.0
C846 C 0.28344 0.7708 0.53792 0.0
C847 C 0.3319 0.7635 0.52833 0.0
C848 C 0.30011 0.78267 0.5376 0.0
C849 C 0.16708 0.77396 0.55899 0.0
C850 C 0.26115 0.79046 0.51632 0.0
C851 C 0.27899 0.80155 0.51463 0.0
C852 C 0.33671 0.8051 0.53389 0.0
C853 C 0.37529 0.79727 0.55542 0.0
C854 C 0.35725 0.78619 0.55718 0.0
H855 H 0.13122 0.76914 0.57454 0.0
H856 H 0.19027 0.78035 0.57488 0.0
H857 H 0.13779 0.7781 0.5362 0.0
H858 H 0.21765 0.78794 0.50039 0.0
H859 H 0.24781 0.80734 0.49796 0.0
H860 H 0.88778 0.30062 0.4845 0.0
H861 H 0.85799 0.2812 0.49028 0.0
H862 H 0.7594 0.28636 0.58263 0.0
H863 H 0.78844 0.30591 0.57682 0.0
H864 H 0.89315 0.26575 0.55061 0.0
H865 H 0.6169 0.27054 0.51809 0.0
H866 H 0.67616 0.28113 0.50646 0.0
H867 H 0.65482 0.2789 0.55045 0.0
C868 C 0.85897 0.29767 0.50581 0.0
C869 C 0.83992 0.30484 0.53003 0.0
C870 C 0.84246 0.28655 0.5092 0.0
C871 C 0.80604 0.28237 0.53669 0.0
C872 C 0.78695 0.28946 0.56101 0.0
H873 H 0.64358 0.21653 0.57669 0.0
H874 H 0.67649 0.23567 0.58153 0.0
C875 C 0.80391 0.3006 0.55778 0.0
C876 C 0.78918 0.27053 0.53993 0.0
H877 H 0.65832 0.25259 0.53207 0.0
C878 C 0.84181 0.26286 0.54671 0.0
C879 C 0.72216 0.2668 0.53499 0.0
C880 C 0.66404 0.27472 0.52686 0.0
C881 C 0.82923 0.25152 0.5486 0.0
C882 C 0.76234 0.24776 0.54269 0.0
C883 C 0.70957 0.25546 0.53658 0.0
C884 C 0.74611 0.23591 0.54144 0.0
C885 C 0.88771 0.24369 0.55727 0.0
C886 C 0.77441 0.22965 0.51738 0.0
C887 C 0.7563 0.21866 0.51482 0.0
C888 C 0.70882 0.21372 0.536 0.0
C889 C 0.6811 0.21999 0.56036 0.0
C890 C 0.69941 0.23098 0.56296 0.0
H891 H 0.93049 0.24766 0.57156 0.0
H892 H 0.87267 0.23629 0.57315 0.0
H893 H 0.90585 0.24105 0.53291 0.0
H894 H 0.80947 0.23331 0.49998 0.0
H895 H 0.77906 0.21407 0.49596 0.0
H896 H 0.03967 0.40262 0.11114 0.0
H897 H 1.01644 0.40215 0.172 0.0
H898 H 0.10748 0.37003 0.19021 0.0
H899 H 0.13154 0.37043 0.12934 0.0
H900 H 0.9365 0.38639 0.2064 0.0
H901 H 0.19723 0.38719 0.26858 0.0
H902 H 0.17745 0.39102 0.22309 0.0
H903 H 0.18211 0.3768 0.23862 0.0
C904 C 0.05554 0.39549 0.1281 0.0
C905 C 0.08758 0.38655 0.11531 0.0
C906 C 0.04205 0.39524 0.16288 0.0
C907 C 0.06073 0.38611 0.18562 0.0
C908 C 0.09365 0.37724 0.17317 0.0
H909 H 1.01037 0.36744 0.40111 0.0
H910 H 0.03422 0.36822 0.34029 0.0
C911 C 0.10715 0.37747 0.13833 0.0
C912 C 0.04269 0.38565 0.22195 0.0
H913 H 0.10949 0.38382 0.30582 0.0
C914 C 0.97424 0.38588 0.22818 0.0
C915 C 0.09213 0.38496 0.25021 0.0
C916 C 0.1664 0.38507 0.24494 0.0
C917 C 0.95377 0.38523 0.26203 0.0
C918 C 1.00322 0.38454 0.29032 0.0
C919 C 0.0717 0.38434 0.28406 0.0
C920 C 0.98522 0.38391 0.32671 0.0
C921 C 0.87945 0.38501 0.26719 0.0
C922 C 0.9495 0.39247 0.33923 0.0
C923 C 0.93538 0.39203 0.37401 0.0
C924 C 0.95744 0.38306 0.39694 0.0
C925 C 0.99267 0.37447 0.38418 0.0
C926 C 1.00647 0.3749 0.34943 0.0
H927 H 0.84902 0.38269 0.24367 0.0
H928 H 0.86857 0.37916 0.28934 0.0
H929 H 0.86298 0.39331 0.27286 0.0
H930 H 0.9338 0.39961 0.32228 0.0
H931 H 0.90864 0.39883 0.38308 0.0
H932 H 0.02307 0.62186 0.11665 0.0
H933 H 0.04398 0.62178 0.17955 0.0
H934 H 0.93334 0.65213 0.17813 0.0
H935 H 0.91169 0.65227 0.11528 0.0
H936 H 0.11118 0.63835 0.21668 0.0
H937 H 0.849 0.63202 0.25323 0.0
H938 H 0.87468 0.62927 0.21116 0.0
H939 H 0.85938 0.64312 0.22106 0.0
C940 C 1.00264 0.62848 0.12969 0.0
C941 C 0.9655 0.63706 0.11088 0.0
C942 C 1.01479 0.62843 0.16564 0.0
C943 C 0.98957 0.63688 0.18349 0.0
C944 C 0.95225 0.64543 0.16489 0.0
H945 H 1.01338 0.65239 0.39814 0.0
H946 H 0.99232 0.65231 0.33529 0.0
C947 C 0.9402 0.64551 0.12893 0.0
C948 C 1.00447 0.63698 0.22142 0.0
H949 H 0.9307 0.63622 0.29795 0.0
C950 C 0.07184 0.63783 0.23452 0.0
C951 C 0.95293 0.63634 0.24452 0.0
C952 C 0.87994 0.63504 0.23192 0.0
C953 C 0.08902 0.63827 0.27013 0.0
C954 C 0.03748 0.63761 0.29327 0.0
C955 C 0.9701 0.63674 0.28015 0.0
C956 C 0.05226 0.63779 0.33124 0.0
C957 C 0.162 0.63971 0.28255 0.0
C958 C 0.0927 0.62961 0.34983 0.0
C959 C 0.10512 0.62965 0.38574 0.0
C960 C 0.07675 0.63782 0.40378 0.0
C961 C 0.03613 0.64599 0.38506 0.0
C962 C 0.02393 0.64595 0.34914 0.0
H963 H 0.19212 0.64305 0.2613 0.0
H964 H 0.1671 0.64527 0.30389 0.0
H965 H 0.18372 0.63161 0.29245 0.0
H966 H 0.11386 0.62309 0.33664 0.0
H967 H 0.13617 0.62319 0.39939 0.0
H968 H 0.9042 0.62419 0.89067 0.0
H969 H 0.92895 0.62314 0.83025 0.0
H970 H 0.03898 0.65348 0.8336 0.0
H971 H 1.01416 0.65468 0.8938 0.0
H972 H 0.94965 0.65202 0.77326 0.0
H973 H 0.11649 0.61542 0.7998 0.0
H974 H 0.0341 0.61397 0.8154 0.0
H975 H 0.09229 0.6236 0.83363 0.0
C976 C 0.93328 0.63069 0.8785 0.0
C977 C 0.95749 0.6395 0.89714 0.0
C978 C 0.94776 0.63002 0.84406 0.0
C979 C 0.98675 0.63814 0.82771 0.0
C980 C 1.00918 0.6471 0.84586 0.0
H981 H 0.13703 0.65057 0.62425 0.0
H982 H 0.11131 0.65125 0.68458 0.0
C983 C 0.99491 0.64776 0.88028 0.0
C984 C 1.00455 0.6373 0.79168 0.0
H985 H 0.09301 0.62183 0.74107 0.0
C986 C 0.98108 0.64544 0.76618 0.0
C987 C 0.04557 0.6287 0.78263 0.0
C988 C 0.07416 0.61996 0.80929 0.0
C989 C 0.99676 0.64513 0.73166 0.0
C990 C 0.03818 0.63657 0.72263 0.0
C991 C 0.06142 0.6284 0.74812 0.0
C992 C 0.05724 0.63588 0.68673 0.0
C993 C 0.96765 0.65384 0.70504 0.0
C994 C 0.03772 0.6268 0.66838 0.0
C995 C 0.05282 0.62633 0.634 0.0
C996 C 0.08802 0.63493 0.61733 0.0
C997 C 0.10955 0.64384 0.6362 0.0
C998 C 0.09446 0.64429 0.67062 0.0
H999 H 0.92379 0.65806 0.71421 0.0
H1000 H 1.00671 0.66009 0.6998 0.0
H1001 H 0.95153 0.65026 0.6803 0.0
H1002 H 1.00938 0.62019 0.68044 0.0
H1003 H 0.03559 0.61933 0.62031 0.0
H1004 H 0.9136 0.36919 0.6212 0.0
H1005 H 0.93418 0.36938 0.68408 0.0
H1006 H 0.03682 0.40032 0.67114 0.0
H1007 H 1.0157 0.40032 0.60842 0.0
H1008 H 0.05814 0.36983 0.72229 0.0
H1009 H 0.90408 0.40626 0.74236 0.0
H1010 H 0.89599 0.39938 0.70275 0.0
H1011 H 0.96402 0.40878 0.71052 0.0
C1012 C 0.94 0.37609 0.63171 0.0
C1013 C 0.96275 0.38476 0.60973 0.0
C1014 C 0.95179 0.37617 0.66764 0.0
C1015 C 0.98618 0.38494 0.68225 0.0
C1016 C 1.00891 0.3936 0.66043 0.0
H1017 H 0.12943 0.39932 0.89063 0.0
H1018 H 0.107 0.39915 0.82778 0.0
C1019 C 0.99707 0.39354 0.62453 0.0
C1020 C 1.00078 0.38482 0.72025 0.0
H1021 H 0.97711 0.39921 0.79029 0.0
C1022 C 0.04009 0.37621 0.73723 0.0
C1023 C 0.97732 0.39318 0.73958 0.0
C1024 C 0.93248 0.40237 0.72297 0.0
C1025 C 0.0576 0.37583 0.773 0.0
C1026 C 0.03439 0.38422 0.79227 0.0
C1027 C 0.99503 0.39282 0.77534 0.0
C1028 C 0.04947 0.38413 0.83019 0.0
C1029 C 0.10186 0.3666 0.78979 0.0
C1030 C 0.02417 0.37577 0.85225 0.0
C1031 C 0.03679 0.37584 0.8881 0.0
C1032 C 0.07479 0.3843 0.90255 0.0
C1033 C 0.10021 0.39266 0.88034 0.0
C1034 C 0.08736 0.39259 0.84445 0.0
H1035 H 0.12847 0.36238 0.77043 0.0
H1036 H 0.13983 0.36967 0.80919 0.0
H1037 H 0.07022 0.36045 0.8034 0.0
H1038 H 0.99386 0.36926 0.84173 0.0
H1039 H 1.01626 0.36929 0.90445 0.0
H1040 H 0.62712 0.87017 0.13162 0.0
H1041 H 0.60084 0.8699 0.19221 0.0
H1042 H 0.51274 0.90219 0.17289 0.0
H1043 H 0.53824 0.90255 0.11239 0.0
H1044 H 0.63894 0.88504 0.24342 0.0
H1045 H 0.36157 0.88329 0.21402 0.0
H1046 H 0.42056 0.88028 0.18298 0.0
H1047 H 0.4033 0.89426 0.19084 0.0
C1048 C 0.60252 0.87725 0.14027 0.0
C1049 C 0.58438 0.88635 0.11704 0.0
C1050 C 0.58749 0.87707 0.17488 0.0
C1051 C 0.55378 0.88594 0.18678 0.0
C1052 C 0.53757 0.89517 0.164 0.0
H1053 H 0.40598 0.89871 0.38506 0.0
H1054 H 0.4323 0.89962 0.32431 0.0
C1055 C 0.55259 0.89537 0.12945 0.0
C1056 C 0.53528 0.88555 0.223 0.0
H1057 H 0.40058 0.8854 0.27228 0.0
C1058 C 0.58688 0.88508 0.2498 0.0
C1059 C 0.46726 0.88566 0.23111 0.0
C1060 C 0.40983 0.88581 0.2033 0.0
C1061 C 0.57231 0.88486 0.2846 0.0
C1062 C 0.50425 0.88487 0.29275 0.0
C1063 C 0.45265 0.8854 0.26592 0.0
C1064 C 0.48573 0.88411 0.32904 0.0
C1065 C 0.62993 0.88483 0.31229 0.0
C1066 C 0.50535 0.87495 0.35147 0.0
C1067 C 0.49058 0.87441 0.38607 0.0
C1068 C 0.45525 0.88299 0.39887 0.0
C1069 C 0.43333 0.89198 0.37602 0.0
C1070 C 0.44842 0.89252 0.34134 0.0
H1071 H 0.67716 0.8879 0.3016 0.0
H1072 H 0.61796 0.88996 0.33342 0.0
H1073 H 0.6393 0.87631 0.3236 0.0
H1074 H 0.53265 0.86823 0.34227 0.0
H1075 H 0.50761 0.86731 0.40287 0.0
H1076 H 0.5225 0.15358 0.11911 0.0
H1077 H 0.54559 0.15296 0.18193 0.0
H1078 H 0.43696 0.12252 0.19291 0.0
H1079 H 0.4125 0.12314 0.1301 0.0
H1080 H 0.40419 0.13705 0.23942 0.0
H1081 H 0.68157 0.13298 0.23983 0.0
H1082 H 0.64789 0.14468 0.21332 0.0
H1083 H 0.62541 0.13108 0.20199 0.0
C1084 C 0.50348 0.14674 0.13485 0.0
C1085 C 0.46594 0.13838 0.11958 0.0
C1086 C 0.51713 0.14637 0.17074 0.0
C1087 C 0.49414 0.13758 0.19199 0.0
C1088 C 0.45556 0.12933 0.17691 0.0
H1089 H 0.62908 0.12214 0.40886 0.0
H1090 H 0.60565 0.12194 0.34613 0.0
C1091 C 0.44161 0.12971 0.14102 0.0
C1092 C 0.50932 0.1371 0.23001 0.0
H1093 H 0.63864 0.13676 0.29324 0.0
C1094 C 0.45543 0.13693 0.25123 0.0
C1095 C 0.57622 0.13677 0.24533 0.0
C1096 C 0.63612 0.13628 0.22399 0.0
C1097 C 0.46661 0.13669 0.28738 0.0
C1098 C 0.53351 0.13686 0.30261 0.0
C1099 C 0.58741 0.13677 0.28145 0.0
C1100 C 0.54858 0.13711 0.34048 0.0
C1101 C 0.4067 0.13612 0.30894 0.0
C1102 C 0.52538 0.14582 0.35793 0.0
C1103 C 0.53842 0.14594 0.39375 0.0
C1104 C 0.57557 0.13741 0.41272 0.0
C1105 C 0.60026 0.12883 0.39502 0.0
C1106 C 0.58691 0.1287 0.35919 0.0
H1107 H 0.36132 0.13296 0.29446 0.0
H1108 H 0.41748 0.13077 0.33316 0.0
H1109 H 0.39478 0.14448 0.31608 0.0
H1110 H 0.49711 0.15253 0.34385 0.0
H1111 H 0.51916 0.15272 0.40653 0.0
H1112 H 0.50712 0.12143 0.91142 0.0
H1113 H 0.53097 0.12188 0.85074 0.0
H1114 H 0.43128 0.15326 0.83087 0.0
H1115 H 0.40688 0.15293 0.89186 0.0
H1116 H 0.39779 0.13708 0.78042 0.0
H1117 H 0.67305 0.14285 0.80752 0.0
H1118 H 0.63766 0.13172 0.83302 0.0
H1119 H 0.61271 0.14557 0.83821 0.0
C1120 C 0.48984 0.12843 0.89424 0.0
C1121 C 0.45538 0.13719 0.90662 0.0
C1122 C 0.50387 0.12868 0.85957 0.0
C1123 C 0.48382 0.13767 0.83656 0.0
C1124 C 0.44754 0.14628 0.8484 0.0
H1125 H 0.62748 0.15137 0.63161 0.0
H1126 H 0.5995 0.15236 0.69147 0.0
C1127 C 0.43364 0.14607 0.88322 0.0
C1128 C 0.50146 0.13806 0.8002 0.0
H1129 H 0.63562 0.13853 0.75056 0.0
C1130 C 0.44969 0.13746 0.77379 0.0
C1131 C 0.56919 0.1387 0.79172 0.0
C1132 C 0.62646 0.13984 0.81902 0.0
C1133 C 0.46407 0.13717 0.73905 0.0
C1134 C 0.53203 0.13734 0.73074 0.0
C1135 C 0.58363 0.13827 0.75708 0.0
C1136 C 0.55062 0.13655 0.69483 0.0
C1137 C 0.40642 0.13675 0.71155 0.0
C1138 C 0.53396 0.1272 0.67723 0.0
C1139 C 0.54992 0.12658 0.64305 0.0
C1140 C 0.58327 0.13529 0.62588 0.0
C1141 C 0.60177 0.14451 0.64401 0.0
C1142 C 0.58571 0.14511 0.6782 0.0
H1143 H 0.35841 0.13957 0.72078 0.0
H1144 H 0.41693 0.14189 0.68778 0.0
H1145 H 0.39946 0.12817 0.70461 0.0
H1146 H 0.50825 0.12039 0.68989 0.0
H1147 H 0.53523 0.11934 0.62996 0.0
H1148 H 0.52018 0.89999 0.6101 0.0
H1149 H 0.54313 0.89979 0.67287 0.0
H1150 H 0.43546 0.86931 0.68572 0.0
H1151 H 0.41305 0.86933 0.62294 0.0
H1152 H 0.45403 0.89946 0.72478 0.0
H1153 H 0.61738 0.86235 0.73936 0.0
H1154 H 0.59449 0.8696 0.69787 0.0
H1155 H 0.53581 0.86037 0.71761 0.0
C1156 C 0.5013 0.89323 0.62622 0.0
C1157 C 0.46514 0.88463 0.61145 0.0
C1158 C 0.51448 0.89314 0.6621 0.0
C1159 C 0.49201 0.88444 0.68385 0.0
C1160 C 0.45453 0.87598 0.6693 0.0
H1161 H 0.51609 0.86932 0.90579 0.0
H1162 H 0.49321 0.86958 0.84297 0.0
C1163 C 0.44141 0.87604 0.63342 0.0
C1164 C 0.50739 0.8843 0.7218 0.0
H1165 H 0.58726 0.86948 0.79117 0.0
C1166 C 0.48339 0.89294 0.73931 0.0
C1167 C 0.54579 0.87577 0.7406 0.0
C1168 C 0.57544 0.86654 0.72292 0.0
C1169 C 0.49575 0.89318 0.77531 0.0
C1170 C 0.53391 0.88464 0.7941 0.0
C1171 C 0.55795 0.876 0.77661 0.0
C1172 C 0.54898 0.88447 0.83203 0.0
C1173 C 0.46673 0.90245 0.79306 0.0
C1174 C 0.58891 0.89266 0.84657 0.0
C1175 C 0.60221 0.89253 0.88246 0.0
C1176 C 0.5759 0.88419 0.90441 0.0
C1177 C 0.53691 0.87589 0.88965 0.0
C1178 C 0.5238 0.87601 0.85377 0.0
H1179 H 0.42616 0.90691 0.77636 0.0
H1180 H 0.44609 0.89935 0.81767 0.0
H1181 H 0.50721 0.90839 0.79931 0.0
H1182 H 0.60978 0.89915 0.83013 0.0
H1183 H 0.63262 0.89903 0.89297 0.0
loop_
_geom_bond_atom_site_label_1
_geom_bond_atom_site_label_2
_geom_bond_distance
_geom_bond_site_symmetry_2
_ccdc_geom_bond_type
Dy0 O3 2.307 . S
Dy0 O5 2.395 . S
Dy0 O6 2.379 1_554 S
Dy0 O8 2.339 1_554 S
Dy0 O10 2.298 1_455 S
Dy0 O14 2.275 . S
Dy0 C22 2.738 . S
Dy1 O4 2.298 . S
Dy1 O7 2.275 1_554 S
Dy1 O9 2.307 1_455 S
Dy1 O11 2.395 1_554 S
Dy1 O12 2.379 . S
Dy1 O15 2.339 . S
Dy1 C31 2.738 . S
C2 O14 1.254 . S
C2 O15 1.257 . S
O3 Dy0 2.307 . S
O3 C13 1.266 . S
O4 Dy1 2.298 . S
O4 C13 1.236 . S
O5 Dy0 2.395 . S
O5 C22 1.255 . S
O6 Dy0 2.379 1_556 S
O6 C22 1.249 1_556 S
O7 Dy1 2.275 1_556 S
O7 C23 1.254 . S
O8 Dy0 2.339 1_556 S
O8 C23 1.257 . S
O9 Dy1 2.307 1_655 S
O9 C24 1.266 . S
O10 Dy0 2.298 1_655 S
O10 C24 1.236 . S
O11 Dy1 2.395 1_556 S
O11 C31 1.255 1_556 S
O12 Dy1 2.379 . S
O12 C31 1.249 . S
C13 O3 1.266 . S
C13 O4 1.236 . S
O14 Dy0 2.275 . S
O14 C2 1.254 . S
O15 Dy1 2.339 . S
O15 C2 1.257 . S
C16 C19 1.344 . S
C16 C20 1.328 1_554 S
C16 C22 1.516 1_655 S
C17 C18 1.304 . S
C17 C21 1.323 1_554 S
C18 C17 1.304 . S
C18 C19 1.371 . S
C18 H32 0.930 . S
C19 C16 1.344 . S
C19 C18 1.371 . S
C19 H33 0.931 . S
C20 C16 1.328 1_556 S
C20 C21 1.433 . S
C20 H34 0.931 . S
C21 C17 1.323 1_556 S
C21 C20 1.433 . S
C21 H35 0.933 . S
C22 Dy0 2.738 . S
C22 O5 1.255 . S
C22 O6 1.249 1_554 S
C22 C16 1.516 1_455 S
C23 O7 1.254 . S
C23 O8 1.257 . S
C24 O9 1.266 . S
C24 O10 1.236 . S
C25 C28 1.344 1_554 S
C25 C29 1.328 . S
C25 C31 1.516 . S
C26 C27 1.304 1_554 S
C26 C30 1.323 . S
C27 C26 1.304 1_556 S
C27 C28 1.371 . S
C27 H36 0.930 . S
C28 C25 1.344 1_556 S
C28 C27 1.371 . S
C28 H37 0.931 . S
C29 C25 1.328 . S
C29 C30 1.433 . S
C29 H38 0.931 . S
C30 C26 1.323 . S
C30 C29 1.433 . S
C30 H39 0.933 . S
C31 Dy1 2.738 . S
C31 O11 1.255 1_554 S
C31 O12 1.249 . S
C31 C25 1.516 . S
H32 C18 0.930 . S
H33 C19 0.931 . S
H34 C20 0.931 . S
H35 C21 0.933 . S
H36 C27 0.930 . S
H37 C28 0.931 . S
H38 C29 0.931 . S
H39 C30 0.933 . S
Dy40 O43 2.307 1_655 S
Dy40 O45 2.395 . S
Dy40 O46 2.379 1_554 S
Dy40 O48 2.339 1_554 S
Dy40 O50 2.298 . S
Dy40 O54 2.275 . S
Dy40 C62 2.738 . S
Dy41 O44 2.298 1_655 S
Dy41 O47 2.275 1_554 S
Dy41 O49 2.307 . S
Dy41 O51 2.395 1_554 S
Dy41 O52 2.379 . S
Dy41 O55 2.339 . S
Dy41 C71 2.738 . S
C42 O54 1.254 . S
C42 O55 1.257 . S
O43 Dy40 2.307 1_455 S
O43 C53 1.266 . S
O44 Dy41 2.298 1_455 S
O44 C53 1.236 . S
O45 Dy40 2.395 . S
O45 C62 1.255 . S
O46 Dy40 2.379 1_556 S
O46 C62 1.249 1_556 S
O47 Dy41 2.275 1_556 S
O47 C63 1.254 . S
O48 Dy40 2.339 1_556 S
O48 C63 1.257 . S
O49 Dy41 2.307 . S
O49 C64 1.266 . S
O50 Dy40 2.298 . S
O50 C64 1.236 . S
O51 Dy41 2.395 1_556 S
O51 C71 1.255 1_556 S
O52 Dy41 2.379 . S
O52 C71 1.249 . S
C53 O43 1.266 . S
C53 O44 1.236 . S
O54 Dy40 2.275 . S
O54 C42 1.254 . S
O55 Dy41 2.339 . S
O55 C42 1.257 . S
C56 C59 1.344 . S
C56 C60 1.328 1_554 S
C56 C62 1.516 . S
C57 C58 1.304 . S
C57 C61 1.323 1_554 S
C58 C57 1.304 . S
C58 C59 1.371 . S
C58 H72 0.930 . S
C59 C56 1.344 . S
C59 C58 1.371 . S
C59 H73 0.931 . S
C60 C56 1.328 1_556 S
C60 C61 1.433 . S
C60 H74 0.931 . S
C61 C57 1.323 1_556 S
C61 C60 1.433 . S
C61 H75 0.933 . S
C62 Dy40 2.738 . S
C62 O45 1.255 . S
C62 O46 1.249 1_554 S
C62 C56 1.516 . S
C63 O47 1.254 . S
C63 O48 1.257 . S
C64 O49 1.266 . S
C64 O50 1.236 . S
C65 C68 1.344 1_554 S
C65 C69 1.328 . S
C65 C71 1.516 1_455 S
C66 C67 1.304 1_554 S
C66 C70 1.323 . S
C67 C66 1.304 1_556 S
C67 C68 1.371 . S
C67 H76 0.930 . S
C68 C65 1.344 1_556 S
C68 C67 1.371 . S
C68 H77 0.931 . S
C69 C65 1.328 . S
C69 C70 1.433 . S
C69 H78 0.931 . S
C70 C66 1.323 . S
C70 C69 1.433 . S
C70 H79 0.933 . S
C71 Dy41 2.738 . S
C71 O51 1.255 1_554 S
C71 O52 1.249 . S
C71 C65 1.516 1_655 S
H72 C58 0.930 . S
H73 C59 0.931 . S
H74 C60 0.931 . S
H75 C61 0.933 . S
H76 C67 0.930 . S
H77 C68 0.931 . S
H78 C69 0.931 . S
H79 C70 0.933 . S
Dy80 O83 2.307 1_455 S
Dy80 O85 2.395 . S
Dy80 O86 2.379 . S
Dy80 O88 2.339 . S
Dy80 O90 2.298 . S
Dy80 O94 2.275 . S
Dy80 C102 2.738 . S
Dy81 O84 2.298 1_455 S
Dy81 O87 2.275 . S
Dy81 O89 2.307 . S
Dy81 O91 2.395 . S
Dy81 O92 2.379 . S
Dy81 O95 2.339 . S
Dy81 C111 2.738 . S
C82 O94 1.254 . S
C82 O95 1.257 . S
O83 Dy80 2.307 1_655 S
O83 C93 1.266 . S
O84 Dy81 2.298 1_655 S
O84 C93 1.236 . S
O85 Dy80 2.395 . S
O85 C102 1.255 . S
O86 Dy80 2.379 . S
O86 C102 1.249 . S
O87 Dy81 2.275 . S
O87 C103 1.254 . S
O88 Dy80 2.339 . S
O88 C103 1.257 . S
O89 Dy81 2.307 . S
O89 C104 1.266 . S
O90 Dy80 2.298 . S
O90 C104 1.236 . S
O91 Dy81 2.395 . S
O91 C111 1.255 . S
O92 Dy81 2.379 . S
O92 C111 1.249 . S
C93 O83 1.266 . S
C93 O84 1.236 . S
O94 Dy80 2.275 . S
O94 C82 1.254 . S
O95 Dy81 2.339 . S
O95 C82 1.257 . S
C96 C99 1.344 . S
C96 C100 1.328 . S
C96 C102 1.516 . S
C97 C98 1.304 . S
C97 C101 1.323 . S
C98 C97 1.304 . S
C98 C99 1.371 . S
C98 H112 0.930 . S
C99 C96 1.344 . S
C99 C98 1.371 . S
C99 H113 0.931 . S
C100 C96 1.328 . S
C100 C101 1.433 . S
C100 H114 0.931 . S
C101 C97 1.323 . S
C101 C100 1.433 . S
C101 H115 0.933 . S
C102 Dy80 2.738 . S
C102 O85 1.255 . S
C102 O86 1.249 . S
C102 C96 1.516 . S
C103 O87 1.254 . S
C103 O88 1.257 . S
C104 O89 1.266 . S
C104 O90 1.236 . S
C105 C108 1.344 . S
C105 C109 1.328 . S
C105 C111 1.516 1_655 S
C106 C107 1.304 . S
C106 C110 1.323 . S
C107 C106 1.304 . S
C107 C108 1.371 . S
C107 H116 0.930 . S
C108 C105 1.344 . S
C108 C107 1.371 . S
C108 H117 0.931 . S
C109 C105 1.328 . S
C109 C110 1.433 . S
C109 H118 0.931 . S
C110 C106 1.323 . S
C110 C109 1.433 . S
C110 H119 0.933 . S
C111 Dy81 2.738 . S
C111 O91 1.255 . S
C111 O92 1.249 . S
C111 C105 1.516 1_455 S
H112 C98 0.930 . S
H113 C99 0.931 . S
H114 C100 0.931 . S
H115 C101 0.933 . S
H116 C107 0.930 . S
H117 C108 0.931 . S
H118 C109 0.931 . S
H119 C110 0.933 . S
Dy120 O123 2.307 1_655 S
Dy120 O125 2.395 . S
Dy120 O126 2.379 . S
Dy120 O128 2.339 . S
Dy120 O130 2.298 . S
Dy120 O134 2.275 . S
Dy120 C142 2.738 . S
Dy121 O124 2.298 1_655 S
Dy121 O127 2.275 . S
Dy121 O129 2.307 . S
Dy121 O131 2.395 . S
Dy121 O132 2.379 . S
Dy121 O135 2.339 . S
Dy121 C151 2.738 . S
C122 O134 1.254 . S
C122 O135 1.257 . S
O123 Dy120 2.307 1_455 S
O123 C133 1.266 . S
O124 Dy121 2.298 1_455 S
O124 C133 1.236 . S
O125 Dy120 2.395 . S
O125 C142 1.255 . S
O126 Dy120 2.379 . S
O126 C142 1.249 . S
O127 Dy121 2.275 . S
O127 C143 1.254 . S
O128 Dy120 2.339 . S
O128 C143 1.257 . S
O129 Dy121 2.307 . S
O129 C144 1.266 . S
O130 Dy120 2.298 . S
O130 C144 1.236 . S
O131 Dy121 2.395 . S
O131 C151 1.255 . S
O132 Dy121 2.379 . S
O132 C151 1.249 . S
C133 O123 1.266 . S
C133 O124 1.236 . S
O134 Dy120 2.275 . S
O134 C122 1.254 . S
O135 Dy121 2.339 . S
O135 C122 1.257 . S
C136 C139 1.344 . S
C136 C140 1.328 . S
C136 C142 1.516 . S
C137 C138 1.304 . S
C137 C141 1.323 . S
C138 C137 1.304 . S
C138 C139 1.371 . S
C138 H152 0.930 . S
C139 C136 1.344 . S
C139 C138 1.371 . S
C139 H153 0.931 . S
C140 C136 1.328 . S
C140 C141 1.433 . S
C140 H154 0.931 . S
C141 C137 1.323 . S
C141 C140 1.433 . S
C141 H155 0.933 . S
C142 Dy120 2.738 . S
C142 O125 1.255 . S
C142 O126 1.249 . S
C142 C136 1.516 . S
C143 O127 1.254 . S
C143 O128 1.257 . S
C144 O129 1.266 . S
C144 O130 1.236 . S
C145 C148 1.344 . S
C145 C149 1.328 . S
C145 C151 1.516 1_455 S
C146 C147 1.304 . S
C146 C150 1.323 . S
C147 C146 1.304 . S
C147 C148 1.371 . S
C147 H156 0.930 . S
C148 C145 1.344 . S
C148 C147 1.371 . S
C148 H157 0.931 . S
C149 C145 1.328 . S
C149 C150 1.433 . S
C149 H158 0.931 . S
C150 C146 1.323 . S
C150 C149 1.433 . S
C150 H159 0.933 . S
C151 Dy121 2.738 . S
C151 O131 1.255 . S
C151 O132 1.249 . S
C151 C145 1.516 1_655 S
H152 C138 0.930 . S
H153 C139 0.931 . S
H154 C140 0.931 . S
H155 C141 0.933 . S
H156 C147 0.930 . S
H157 C148 0.931 . S
H158 C149 0.931 . S
H159 C150 0.933 . S
Dy160 O163 2.307 . S
Dy160 O165 2.395 . S
Dy160 O166 2.379 1_554 S
Dy160 O168 2.339 1_554 S
Dy160 O170 2.298 . S
Dy160 O174 2.275 . S
Dy160 C182 2.738 . S
Dy161 O164 2.298 . S
Dy161 O167 2.275 1_554 S
Dy161 O169 2.307 . S
Dy161 O171 2.395 1_554 S
Dy161 O172 2.379 . S
Dy161 O175 2.339 . S
Dy161 C191 2.738 . S
C162 O174 1.254 . S
C162 O175 1.257 . S
O163 Dy160 2.307 . S
O163 C173 1.266 . S
O164 Dy161 2.298 . S
O164 C173 1.236 . S
O165 Dy160 2.395 . S
O165 C182 1.255 . S
O166 Dy160 2.379 1_556 S
O166 C182 1.249 1_556 S
O167 Dy161 2.275 1_556 S
O167 C183 1.254 . S
O168 Dy160 2.339 1_556 S
O168 C183 1.257 . S
O169 Dy161 2.307 . S
O169 C184 1.266 . S
O170 Dy160 2.298 . S
O170 C184 1.236 . S
O171 Dy161 2.395 1_556 S
O171 C191 1.255 1_556 S
O172 Dy161 2.379 . S
O172 C191 1.249 . S
C173 O163 1.266 . S
C173 O164 1.236 . S
O174 Dy160 2.275 . S
O174 C162 1.254 . S
O175 Dy161 2.339 . S
O175 C162 1.257 . S
C176 C179 1.344 . S
C176 C180 1.328 1_554 S
C176 C182 1.516 . S
C177 C178 1.304 . S
C177 C181 1.323 1_554 S
C178 C177 1.304 . S
C178 C179 1.371 . S
C178 H192 0.930 . S
C179 C176 1.344 . S
C179 C178 1.371 . S
C179 H193 0.931 . S
C180 C176 1.328 1_556 S
C180 C181 1.433 . S
C180 H194 0.931 . S
C181 C177 1.323 1_556 S
C181 C180 1.433 . S
C181 H195 0.933 . S
C182 Dy160 2.738 . S
C182 O165 1.255 . S
C182 O166 1.249 1_554 S
C182 C176 1.516 . S
C183 O167 1.254 . S
C183 O168 1.257 . S
C184 O169 1.266 . S
C184 O170 1.236 . S
C185 C188 1.344 1_554 S
C185 C189 1.328 . S
C185 C191 1.516 . S
C186 C187 1.304 1_554 S
C186 C190 1.323 . S
C187 C186 1.304 1_556 S
C187 C188 1.371 . S
C187 H196 0.930 . S
C188 C185 1.344 1_556 S
C188 C187 1.371 . S
C188 H197 0.931 . S
C189 C185 1.328 . S
C189 C190 1.433 . S
C189 H198 0.931 . S
C190 C186 1.323 . S
C190 C189 1.433 . S
C190 H199 0.933 . S
C191 Dy161 2.738 . S
C191 O171 1.255 1_554 S
C191 O172 1.249 . S
C191 C185 1.516 . S
H192 C178 0.930 . S
H193 C179 0.931 . S
H194 C180 0.931 . S
H195 C181 0.933 . S
H196 C187 0.930 . S
H197 C188 0.931 . S
H198 C189 0.931 . S
H199 C190 0.933 . S
Dy200 O203 2.307 . S
Dy200 O205 2.395 . S
Dy200 O206 2.379 1_554 S
Dy200 O208 2.339 1_554 S
Dy200 O210 2.298 . S
Dy200 O214 2.275 . S
Dy200 C222 2.738 . S
Dy201 O204 2.298 . S
Dy201 O207 2.275 1_554 S
Dy201 O209 2.307 . S
Dy201 O211 2.395 1_554 S
Dy201 O212 2.379 . S
Dy201 O215 2.339 . S
Dy201 C231 2.738 . S
C202 O214 1.254 . S
C202 O215 1.257 . S
O203 Dy200 2.307 . S
O203 C213 1.266 . S
O204 Dy201 2.298 . S
O204 C213 1.236 . S
O205 Dy200 2.395 . S
O205 C222 1.255 . S
O206 Dy200 2.379 1_556 S
O206 C222 1.249 1_556 S
O207 Dy201 2.275 1_556 S
O207 C223 1.254 . S
O208 Dy200 2.339 1_556 S
O208 C223 1.257 . S
O209 Dy201 2.307 . S
O209 C224 1.266 . S
O210 Dy200 2.298 . S
O210 C224 1.236 . S
O211 Dy201 2.395 1_556 S
O211 C231 1.255 1_556 S
O212 Dy201 2.379 . S
O212 C231 1.249 . S
C213 O203 1.266 . S
C213 O204 1.236 . S
O214 Dy200 2.275 . S
O214 C202 1.254 . S
O215 Dy201 2.339 . S
O215 C202 1.257 . S
C216 C219 1.344 . S
C216 C220 1.328 1_554 S
C216 C222 1.516 . S
C217 C218 1.304 . S
C217 C221 1.323 1_554 S
C218 C217 1.304 . S
C218 C219 1.371 . S
C218 H232 0.930 . S
C219 C216 1.344 . S
C219 C218 1.371 . S
C219 H233 0.931 . S
C220 C216 1.328 1_556 S
C220 C221 1.433 . S
C220 H234 0.931 . S
C221 C217 1.323 1_556 S
C221 C220 1.433 . S
C221 H235 0.933 . S
C222 Dy200 2.738 . S
C222 O205 1.255 . S
C222 O206 1.249 1_554 S
C222 C216 1.516 . S
C223 O207 1.254 . S
C223 O208 1.257 . S
C224 O209 1.266 . S
C224 O210 1.236 . S
C225 C228 1.344 1_554 S
C225 C229 1.328 . S
C225 C231 1.516 . S
C226 C227 1.304 1_554 S
C226 C230 1.323 . S
C227 C226 1.304 1_556 S
C227 C228 1.371 . S
C227 H236 0.930 . S
C228 C225 1.344 1_556 S
C228 C227 1.371 . S
C228 H237 0.931 . S
C229 C225 1.328 . S
C229 C230 1.433 . S
C229 H238 0.931 . S
C230 C226 1.323 . S
C230 C229 1.433 . S
C230 H239 0.933 . S
C231 Dy201 2.738 . S
C231 O211 1.255 1_554 S
C231 O212 1.249 . S
C231 C225 1.516 . S
H232 C218 0.930 . S
H233 C219 0.931 . S
H234 C220 0.931 . S
H235 C221 0.933 . S
H236 C227 0.930 . S
H237 C228 0.931 . S
H238 C229 0.931 . S
H239 C230 0.933 . S
Dy240 O243 2.307 . S
Dy240 O245 2.395 . S
Dy240 O246 2.379 . S
Dy240 O248 2.339 . S
Dy240 O250 2.298 . S
Dy240 O254 2.275 . S
Dy240 C262 2.738 . S
Dy241 O244 2.298 . S
Dy241 O247 2.275 . S
Dy241 O249 2.307 . S
Dy241 O251 2.395 . S
Dy241 O252 2.379 . S
Dy241 O255 2.339 . S
Dy241 C271 2.738 . S
C242 O254 1.254 . S
C242 O255 1.257 . S
O243 Dy240 2.307 . S
O243 C253 1.266 . S
O244 Dy241 2.298 . S
O244 C253 1.236 . S
O245 Dy240 2.395 . S
O245 C262 1.255 . S
O246 Dy240 2.379 . S
O246 C262 1.249 . S
O247 Dy241 2.275 . S
O247 C263 1.254 . S
O248 Dy240 2.339 . S
O248 C263 1.257 . S
O249 Dy241 2.307 . S
O249 C264 1.266 . S
O250 Dy240 2.298 . S
O250 C264 1.236 . S
O251 Dy241 2.395 . S
O251 C271 1.255 . S
O252 Dy241 2.379 . S
O252 C271 1.249 . S
C253 O243 1.266 . S
C253 O244 1.236 . S
O254 Dy240 2.275 . S
O254 C242 1.254 . S
O255 Dy241 2.339 . S
O255 C242 1.257 . S
C256 C259 1.344 . S
C256 C260 1.328 . S
C256 C262 1.516 . S
C257 C258 1.304 . S
C257 C261 1.323 . S
C258 C257 1.304 . S
C258 C259 1.371 . S
C258 H272 0.930 . S
C259 C256 1.344 . S
C259 C258 1.371 . S
C259 H273 0.931 . S
C260 C256 1.328 . S
C260 C261 1.433 . S
C260 H274 0.931 . S
C261 C257 1.323 . S
C261 C260 1.433 . S
C261 H275 0.933 . S
C262 Dy240 2.738 . S
C262 O245 1.255 . S
C262 O246 1.249 . S
C262 C256 1.516 . S
C263 O247 1.254 . S
C263 O248 1.257 . S
C264 O249 1.266 . S
C264 O250 1.236 . S
C265 C268 1.344 . S
C265 C269 1.328 . S
C265 C271 1.516 . S
C266 C267 1.304 . S
C266 C270 1.323 . S
C267 C266 1.304 . S
C267 C268 1.371 . S
C267 H276 0.930 . S
C268 C265 1.344 . S
C268 C267 1.371 . S
C268 H277 0.931 . S
C269 C265 1.328 . S
C269 C270 1.433 . S
C269 H278 0.931 . S
C270 C266 1.323 . S
C270 C269 1.433 . S
C270 H279 0.933 . S
C271 Dy241 2.738 . S
C271 O251 1.255 . S
C271 O252 1.249 . S
C271 C265 1.516 . S
H272 C258 0.930 . S
H273 C259 0.931 . S
H274 C260 0.931 . S
H275 C261 0.933 . S
H276 C267 0.930 . S
H277 C268 0.931 . S
H278 C269 0.931 . S
H279 C270 0.933 . S
Dy280 O283 2.307 . S
Dy280 O285 2.395 . S
Dy280 O286 2.379 . S
Dy280 O288 2.339 . S
Dy280 O290 2.298 . S
Dy280 O294 2.275 . S
Dy280 C302 2.738 . S
Dy281 O284 2.298 . S
Dy281 O287 2.275 . S
Dy281 O289 2.307 . S
Dy281 O291 2.395 . S
Dy281 O292 2.379 . S
Dy281 O295 2.339 . S
Dy281 C311 2.738 . S
C282 O294 1.254 . S
C282 O295 1.257 . S
O283 Dy280 2.307 . S
O283 C293 1.266 . S
O284 Dy281 2.298 . S
O284 C293 1.236 . S
O285 Dy280 2.395 . S
O285 C302 1.255 . S
O286 Dy280 2.379 . S
O286 C302 1.249 . S
O287 Dy281 2.275 . S
O287 C303 1.254 . S
O288 Dy280 2.339 . S
O288 C303 1.257 . S
O289 Dy281 2.307 . S
O289 C304 1.266 . S
O290 Dy280 2.298 . S
O290 C304 1.236 . S
O291 Dy281 2.395 . S
O291 C311 1.255 . S
O292 Dy281 2.379 . S
O292 C311 1.249 . S
C293 O283 1.266 . S
C293 O284 1.236 . S
O294 Dy280 2.275 . S
O294 C282 1.254 . S
O295 Dy281 2.339 . S
O295 C282 1.257 . S
C296 C299 1.344 . S
C296 C300 1.328 . S
C296 C302 1.516 . S
C297 C298 1.304 . S
C297 C301 1.323 . S
C298 C297 1.304 . S
C298 C299 1.371 . S
C298 H312 0.930 . S
C299 C296 1.344 . S
C299 C298 1.371 . S
C299 H313 0.931 . S
C300 C296 1.328 . S
C300 C301 1.433 . S
C300 H314 0.931 . S
C301 C297 1.323 . S
C301 C300 1.433 . S
C301 H315 0.933 . S
C302 Dy280 2.738 . S
C302 O285 1.255 . S
C302 O286 1.249 . S
C302 C296 1.516 . S
C303 O287 1.254 . S
C303 O288 1.257 . S
C304 O289 1.266 . S
C304 O290 1.236 . S
C305 C308 1.344 . S
C305 C309 1.328 . S
C305 C311 1.516 . S
C306 C307 1.304 . S
C306 C310 1.323 . S
C307 C306 1.304 . S
C307 C308 1.371 . S
C307 H316 0.930 . S
C308 C305 1.344 . S
C308 C307 1.371 . S
C308 H317 0.931 . S
C309 C305 1.328 . S
C309 C310 1.433 . S
C309 H318 0.931 . S
C310 C306 1.323 . S
C310 C309 1.433 . S
C310 H319 0.933 . S
C311 Dy281 2.738 . S
C311 O291 1.255 . S
C311 O292 1.249 . S
C311 C305 1.516 . S
H312 C298 0.930 . S
H313 C299 0.931 . S
H314 C300 0.931 . S
H315 C301 0.933 . S
H316 C307 0.930 . S
H317 C308 0.931 . S
H318 C309 0.931 . S
H319 C310 0.933 . S
H320 C328 0.929 1_556 S
H321 C330 0.930 1_556 S
H322 C332 0.930 . S
H323 C335 0.929 . S
H324 C338 0.930 . S
H325 C340 0.960 . S
H326 C340 0.960 . S
H327 C340 0.960 . S
C328 H320 0.929 1_554 S
C328 C329 1.377 . S
C328 C330 1.384 . S
C329 C328 1.377 . S
C329 C335 1.390 . S
C330 H321 0.930 1_554 S
C330 C328 1.384 . S
C330 C331 1.372 . S
C331 C330 1.372 . S
C331 C332 1.400 . S
C331 C336 1.490 . S
C332 H322 0.930 . S
C332 C331 1.400 . S
C332 C335 1.386 . S
H333 C349 0.930 . S
H334 C350 0.931 . S
C335 H323 0.929 . S
C335 C329 1.390 . S
C335 C332 1.386 . S
C336 C331 1.490 . S
C336 C338 1.395 1_554 S
C336 C339 1.403 . S
H337 C343 0.930 . S
C338 H324 0.930 . S
C338 C336 1.395 1_556 S
C338 C341 1.403 . S
C339 C336 1.403 . S
C339 C340 1.524 . S
C339 C343 1.400 . S
C340 H325 0.960 . S
C340 H326 0.960 . S
C340 H327 0.960 . S
C340 C339 1.524 . S
C341 C338 1.403 . S
C341 C342 1.392 1_556 S
C341 C345 1.495 . S
C342 C341 1.392 1_554 S
C342 C343 1.385 . S
C342 C344 1.478 . S
C343 H337 0.930 . S
C343 C339 1.400 . S
C343 C342 1.385 . S
C344 C342 1.478 . S
C344 C346 1.381 . S
C344 C350 1.383 . S
C345 C341 1.495 . S
C345 H351 0.959 . S
C345 H352 0.961 . S
C345 H353 0.960 . S
C346 C344 1.381 . S
C346 C347 1.394 . S
C346 H354 0.930 1_554 S
C347 C346 1.394 . S
C347 C348 1.383 . S
C347 H355 0.925 1_554 S
C348 C347 1.383 . S
C348 C349 1.377 . S
C349 H333 0.930 . S
C349 C348 1.377 . S
C349 C350 1.379 . S
C350 H334 0.931 . S
C350 C344 1.383 . S
C350 C349 1.379 . S
H351 C345 0.959 . S
H352 C345 0.961 . S
H353 C345 0.960 . S
H354 C346 0.930 1_556 S
H355 C347 0.925 1_556 S
H356 C364 0.929 . S
H357 C366 0.930 . S
H358 C368 0.930 1_556 S
H359 C371 0.929 1_556 S
H360 C374 0.927 1_556 S
H361 C376 0.960 . S
H362 C376 0.960 . S
H363 C376 0.960 . S
C364 H356 0.929 . S
C364 C365 1.377 . S
C364 C366 1.384 . S
C365 C364 1.377 . S
C365 C371 1.390 . S
C366 H357 0.930 . S
C366 C364 1.384 . S
C366 C367 1.372 . S
C367 C366 1.372 . S
C367 C368 1.400 . S
C367 C372 1.490 . S
C368 H358 0.930 1_554 S
C368 C367 1.400 . S
C368 C371 1.386 . S
H369 C385 0.930 . S
H370 C386 0.931 . S
C371 H359 0.929 1_554 S
C371 C365 1.390 . S
C371 C368 1.386 . S
C372 C367 1.490 . S
C372 C374 1.399 . S
C372 C375 1.403 . S
H373 C379 0.930 . S
C374 H360 0.927 1_554 S
C374 C372 1.399 . S
C374 C377 1.402 1_554 S
C375 C372 1.403 . S
C375 C376 1.524 . S
C375 C379 1.400 . S
C376 H361 0.960 . S
C376 H362 0.960 . S
C376 H363 0.960 . S
C376 C375 1.524 . S
C377 C374 1.402 1_556 S
C377 C378 1.392 1_556 S
C377 C381 1.495 . S
C378 C377 1.392 1_554 S
C378 C379 1.385 . S
C378 C380 1.478 . S
C379 H373 0.930 . S
C379 C375 1.400 . S
C379 C378 1.385 . S
C380 C378 1.478 . S
C380 C382 1.381 . S
C380 C386 1.383 1_554 S
C381 C377 1.495 . S
C381 H387 0.959 . S
C381 H388 0.961 . S
C381 H389 0.960 . S
C382 C380 1.381 . S
C382 C383 1.394 . S
C382 H390 0.930 . S
C383 C382 1.394 . S
C383 C384 1.383 . S
C383 H391 0.929 . S
C384 C383 1.383 . S
C384 C385 1.377 1_554 S
C385 H369 0.930 . S
C385 C384 1.377 1_556 S
C385 C386 1.379 . S
C386 H370 0.931 . S
C386 C380 1.383 1_556 S
C386 C385 1.379 . S
H387 C381 0.959 . S
H388 C381 0.961 . S
H389 C381 0.960 . S
H390 C382 0.930 . S
H391 C383 0.929 . S
H392 C400 0.929 . S
H393 C402 0.930 . S
H394 C404 0.930 . S
H395 C407 0.929 . S
H396 C410 0.930 . S
H397 C412 0.960 . S
H398 C412 0.960 . S
H399 C412 0.960 . S
C400 H392 0.929 . S
C400 C401 1.377 . S
C400 C402 1.384 . S
C401 C400 1.377 . S
C401 C407 1.390 . S
C402 H393 0.930 . S
C402 C400 1.384 . S
C402 C403 1.372 . S
C403 C402 1.372 . S
C403 C404 1.400 . S
C403 C408 1.490 . S
C404 H394 0.930 . S
C404 C403 1.400 . S
C404 C407 1.386 . S
H405 C421 0.930 . S
H406 C422 0.931 . S
C407 H395 0.929 . S
C407 C401 1.390 . S
C407 C404 1.386 . S
C408 C403 1.490 . S
C408 C410 1.395 . S
C408 C411 1.403 . S
H409 C415 0.930 . S
C410 H396 0.930 . S
C410 C408 1.395 . S
C410 C413 1.403 . S
C411 C408 1.403 . S
C411 C412 1.524 . S
C411 C415 1.400 . S
C412 H397 0.960 . S
C412 H398 0.960 . S
C412 H399 0.960 . S
C412 C411 1.524 . S
C413 C410 1.403 . S
C413 C414 1.392 . S
C413 C417 1.495 . S
C414 C413 1.392 . S
C414 C415 1.385 . S
C414 C416 1.478 . S
C415 H409 0.930 . S
C415 C411 1.400 . S
C415 C414 1.385 . S
C416 C414 1.478 . S
C416 C418 1.381 . S
C416 C422 1.383 . S
C417 C413 1.495 . S
C417 H423 0.959 . S
C417 H424 0.961 . S
C417 H425 0.960 . S
C418 C416 1.381 . S
C418 C419 1.394 . S
C418 H426 0.930 . S
C419 C418 1.394 . S
C419 C420 1.383 . S
C419 H427 0.929 . S
C420 C419 1.383 . S
C420 C421 1.377 . S
C421 H405 0.930 . S
C421 C420 1.377 . S
C421 C422 1.379 . S
C422 H406 0.931 . S
C422 C416 1.383 . S
C422 C421 1.379 . S
H423 C417 0.959 . S
H424 C417 0.961 . S
H425 C417 0.960 . S
H426 C418 0.930 . S
H427 C419 0.929 . S
H428 C436 0.929 . S
H429 C438 0.930 . S
H430 C440 0.930 . S
H431 C443 0.929 . S
H432 C446 0.930 . S
H433 C448 0.960 . S
H434 C448 0.960 . S
H435 C448 0.960 . S
C436 H428 0.929 . S
C436 C437 1.377 . S
C436 C438 1.384 . S
C437 C436 1.377 . S
C437 C443 1.390 . S
C438 H429 0.930 . S
C438 C436 1.384 . S
C438 C439 1.372 . S
C439 C438 1.372 . S
C439 C440 1.400 . S
C439 C444 1.490 . S
C440 H430 0.930 . S
C440 C439 1.400 . S
C440 C443 1.386 . S
H441 C457 0.930 . S
H442 C458 0.931 . S
C443 H431 0.929 . S
C443 C437 1.390 . S
C443 C440 1.386 . S
C444 C439 1.490 . S
C444 C446 1.395 . S
C444 C447 1.403 . S
H445 C451 0.930 . S
C446 H432 0.930 . S
C446 C444 1.395 . S
C446 C449 1.403 . S
C447 C444 1.403 . S
C447 C448 1.524 . S
C447 C451 1.400 . S
C448 H433 0.960 . S
C448 H434 0.960 . S
C448 H435 0.960 . S
C448 C447 1.524 . S
C449 C446 1.403 . S
C449 C450 1.392 . S
C449 C453 1.495 . S
C450 C449 1.392 . S
C450 C451 1.385 . S
C450 C452 1.478 . S
C451 H445 0.930 . S
C451 C447 1.400 . S
C451 C450 1.385 . S
C452 C450 1.478 . S
C452 C454 1.381 . S
C452 C458 1.383 . S
C453 C449 1.495 . S
C453 H459 0.959 . S
C453 H460 0.961 . S
C453 H461 0.960 . S
C454 C452 1.381 . S
C454 C455 1.394 . S
C454 H462 0.930 . S
C455 C454 1.394 . S
C455 C456 1.383 . S
C455 H463 0.929 . S
C456 C455 1.383 . S
C456 C457 1.377 . S
C457 H441 0.930 . S
C457 C456 1.377 . S
C457 C458 1.379 . S
C458 H442 0.931 . S
C458 C452 1.383 . S
C458 C457 1.379 . S
H459 C453 0.959 . S
H460 C453 0.961 . S
H461 C453 0.960 . S
H462 C454 0.930 . S
H463 C455 0.929 . S
H464 C472 0.929 1_556 S
H465 C474 0.930 1_556 S
H466 C476 0.930 . S
H467 C479 0.929 . S
H468 C482 0.930 1_655 S
H469 C484 0.960 . S
H470 C484 0.960 1_655 S
H471 C484 0.960 1_655 S
C472 H464 0.929 1_554 S
C472 C473 1.377 . S
C472 C474 1.384 . S
C473 C472 1.377 . S
C473 C479 1.390 . S
C474 H465 0.930 1_554 S
C474 C472 1.384 . S
C474 C475 1.372 . S
C475 C474 1.372 . S
C475 C476 1.400 . S
C475 C480 1.490 . S
C476 H466 0.930 . S
C476 C475 1.400 . S
C476 C479 1.386 . S
H477 C493 0.930 . S
H478 C494 0.931 . S
C479 H467 0.929 . S
C479 C473 1.390 . S
C479 C476 1.386 . S
C480 C475 1.490 . S
C480 C482 1.395 1_654 S
C480 C483 1.403 1_655 S
H481 C487 0.930 . S
C482 H468 0.930 1_455 S
C482 C480 1.395 1_456 S
C482 C485 1.403 . S
C483 C480 1.403 1_455 S
C483 C484 1.524 . S
C483 C487 1.400 . S
C484 H469 0.960 . S
C484 H470 0.960 1_455 S
C484 H471 0.960 1_455 S
C484 C483 1.524 . S
C485 C482 1.403 . S
C485 C486 1.392 1_556 S
C485 C489 1.495 . S
C486 C485 1.392 1_554 S
C486 C487 1.385 . S
C486 C488 1.478 . S
C487 H481 0.930 . S
C487 C483 1.400 . S
C487 C486 1.385 . S
C488 C486 1.478 . S
C488 C490 1.374 1_554 S
C488 C494 1.383 . S
C489 C485 1.495 . S
C489 H495 0.959 . S
C489 H496 0.961 . S
C489 H497 0.960 . S
C490 C488 1.374 1_556 S
C490 C491 1.394 1_556 S
C490 H498 0.938 . S
C491 C490 1.394 1_554 S
C491 C492 1.383 . S
C491 H499 0.929 1_554 S
C492 C491 1.383 . S
C492 C493 1.377 . S
C493 H477 0.930 . S
C493 C492 1.377 . S
C493 C494 1.379 . S
C494 H478 0.931 . S
C494 C488 1.383 . S
C494 C493 1.379 . S
H495 C489 0.959 . S
H496 C489 0.961 . S
H497 C489 0.960 . S
H498 C490 0.938 . S
H499 C491 0.929 1_556 S
H500 C508 0.929 . S
H501 C510 0.930 . S
H502 C512 0.930 . S
H503 C515 0.929 . S
H504 C518 0.930 1_455 S
H505 C520 0.960 . S
H506 C520 0.960 1_455 S
H507 C520 0.960 1_454 S
C508 H500 0.929 . S
C508 C509 1.377 1_556 S
C508 C510 1.384 . S
C509 C508 1.377 1_554 S
C509 C515 1.390 . S
C510 H501 0.930 . S
C510 C508 1.384 . S
C510 C511 1.372 1_556 S
C511 C510 1.372 1_554 S
C511 C512 1.400 . S
C511 C516 1.490 . S
C512 H502 0.930 . S
C512 C511 1.400 . S
C512 C515 1.386 . S
H513 C529 0.930 . S
H514 C530 0.931 . S
C515 H503 0.929 . S
C515 C509 1.390 . S
C515 C512 1.386 . S
C516 C511 1.490 . S
C516 C518 1.395 1_455 S
C516 C519 1.403 1_455 S
H517 C523 0.930 . S
C518 H504 0.930 1_655 S
C518 C516 1.395 1_655 S
C518 C521 1.403 . S
C519 C516 1.403 1_655 S
C519 C520 1.524 1_554 S
C519 C523 1.400 . S
C520 H505 0.960 . S
C520 H506 0.960 1_655 S
C520 H507 0.960 1_656 S
C520 C519 1.524 1_556 S
C521 C518 1.403 . S
C521 C522 1.392 . S
C521 C525 1.495 . S
C522 C521 1.392 . S
C522 C523 1.385 . S
C522 C524 1.478 . S
C523 H517 0.930 . S
C523 C519 1.400 . S
C523 C522 1.385 . S
C524 C522 1.478 . S
C524 C526 1.381 1_554 S
C524 C530 1.383 . S
C525 C521 1.495 . S
C525 H531 0.959 . S
C525 H532 0.961 . S
C525 H533 0.960 . S
C526 C524 1.381 1_556 S
C526 C527 1.394 . S
C526 H534 0.930 . S
C527 C526 1.394 . S
C527 C528 1.383 1_556 S
C527 H535 0.929 . S
C528 C527 1.383 1_554 S
C528 C529 1.377 . S
C529 H513 0.930 . S
C529 C528 1.377 . S
C529 C530 1.379 . S
C530 H514 0.931 . S
C530 C524 1.383 . S
C530 C529 1.379 . S
H531 C525 0.959 . S
H532 C525 0.961 . S
H533 C525 0.960 . S
H534 C526 0.930 . S
H535 C527 0.929 . S
H536 C544 0.929 . S
H537 C546 0.930 . S
H538 C548 0.930 . S
H539 C551 0.929 . S
H540 C554 0.930 . S
H541 C556 0.960 . S
H542 C556 0.960 . S
H543 C556 0.960 . S
C544 H536 0.929 . S
C544 C545 1.377 . S
C544 C546 1.384 . S
C545 C544 1.377 . S
C545 C551 1.390 . S
C546 H537 0.930 . S
C546 C544 1.384 . S
C546 C547 1.372 . S
C547 C546 1.372 . S
C547 C548 1.400 . S
C547 C552 1.490 . S
C548 H538 0.930 . S
C548 C547 1.400 . S
C548 C551 1.386 . S
H549 C565 0.930 . S
H550 C566 0.931 . S
C551 H539 0.929 . S
C551 C545 1.390 . S
C551 C548 1.386 . S
C552 C547 1.490 . S
C552 C554 1.395 . S
C552 C555 1.403 . S
H553 C559 0.930 1_655 S
C554 H540 0.930 . S
C554 C552 1.395 . S
C554 C557 1.403 . S
C555 C552 1.403 . S
C555 C556 1.524 . S
C555 C559 1.400 . S
C556 H541 0.960 . S
C556 H542 0.960 . S
C556 H543 0.960 . S
C556 C555 1.524 . S
C557 C554 1.403 . S
C557 C558 1.392 1_455 S
C557 C561 1.495 . S
C558 C557 1.392 1_655 S
C558 C559 1.385 1_655 S
C558 C560 1.478 . S
C559 H553 0.930 1_455 S
C559 C555 1.400 . S
C559 C558 1.385 1_455 S
C560 C558 1.478 . S
C560 C562 1.381 . S
C560 C566 1.383 . S
C561 C557 1.495 . S
C561 H567 0.959 . S
C561 H568 0.961 1_455 S
C561 H569 0.960 1_455 S
C562 C560 1.381 . S
C562 C563 1.394 . S
C562 H570 0.930 . S
C563 C562 1.394 . S
C563 C564 1.383 . S
C563 H571 0.929 . S
C564 C563 1.383 . S
C564 C565 1.377 . S
C565 H549 0.930 . S
C565 C564 1.377 . S
C565 C566 1.379 . S
C566 H550 0.931 . S
C566 C560 1.383 . S
C566 C565 1.379 . S
H567 C561 0.959 . S
H568 C561 0.961 1_655 S
H569 C561 0.960 1_655 S
H570 C562 0.930 . S
H571 C563 0.929 . S
H572 C580 0.929 . S
H573 C582 0.930 . S
H574 C584 0.930 . S
H575 C587 0.929 . S
H576 C590 0.930 . S
H577 C592 0.960 . S
H578 C592 0.960 . S
H579 C592 0.960 . S
C580 H572 0.929 . S
C580 C581 1.377 . S
C580 C582 1.384 . S
C581 C580 1.377 . S
C581 C587 1.390 . S
C582 H573 0.930 . S
C582 C580 1.384 . S
C582 C583 1.372 . S
C583 C582 1.372 . S
C583 C584 1.400 . S
C583 C588 1.490 . S
C584 H574 0.930 . S
C584 C583 1.400 . S
C584 C587 1.386 . S
H585 C601 0.930 . S
H586 C602 0.931 . S
C587 H575 0.929 . S
C587 C581 1.390 . S
C587 C584 1.386 . S
C588 C583 1.490 . S
C588 C590 1.395 . S
C588 C591 1.403 . S
H589 C595 0.930 1_455 S
C590 H576 0.930 . S
C590 C588 1.395 . S
C590 C593 1.403 . S
C591 C588 1.403 . S
C591 C592 1.524 . S
C591 C595 1.400 . S
C592 H577 0.960 . S
C592 H578 0.960 . S
C592 H579 0.960 . S
C592 C591 1.524 . S
C593 C590 1.403 . S
C593 C594 1.392 1_655 S
C593 C597 1.495 . S
C594 C593 1.392 1_455 S
C594 C595 1.385 1_455 S
C594 C596 1.478 . S
C595 H589 0.930 1_655 S
C595 C591 1.400 . S
C595 C594 1.385 1_655 S
C596 C594 1.478 . S
C596 C598 1.381 . S
C596 C602 1.383 . S
C597 C593 1.495 . S
C597 H603 0.959 . S
C597 H604 0.961 1_655 S
C597 H605 0.960 1_655 S
C598 C596 1.381 . S
C598 C599 1.394 . S
C598 H606 0.930 . S
C599 C598 1.394 . S
C599 C600 1.383 . S
C599 H607 0.929 . S
C600 C599 1.383 . S
C600 C601 1.377 . S
C601 H585 0.930 . S
C601 C600 1.377 . S
C601 C602 1.379 . S
C602 H586 0.931 . S
C602 C596 1.383 . S
C602 C601 1.379 . S
H603 C597 0.959 . S
H604 C597 0.961 1_455 S
H605 C597 0.960 1_455 S
H606 C598 0.930 . S
H607 C599 0.929 . S
H608 C616 0.929 . S
H609 C618 0.930 . S
H610 C620 0.930 . S
H611 C623 0.929 . S
H612 C626 0.930 . S
H613 C628 0.960 . S
H614 C628 0.960 1_554 S
H615 C628 0.960 . S
C616 H608 0.929 . S
C616 C617 1.377 . S
C616 C618 1.384 . S
C617 C616 1.377 . S
C617 C623 1.390 1_554 S
C618 H609 0.930 . S
C618 C616 1.384 . S
C618 C619 1.372 . S
C619 C618 1.372 . S
C619 C620 1.400 1_554 S
C619 C624 1.490 . S
C620 H610 0.930 . S
C620 C619 1.400 1_556 S
C620 C623 1.386 . S
H621 C637 0.930 . S
H622 C638 0.931 . S
C623 H611 0.929 . S
C623 C617 1.390 1_556 S
C623 C620 1.386 . S
C624 C619 1.490 . S
C624 C626 1.395 1_455 S
C624 C627 1.403 . S
H625 C631 0.930 1_556 S
C626 H612 0.930 . S
C626 C624 1.395 1_655 S
C626 C629 1.403 . S
C627 C624 1.403 . S
C627 C628 1.524 1_554 S
C627 C631 1.400 . S
C628 H613 0.960 . S
C628 H614 0.960 1_556 S
C628 H615 0.960 . S
C628 C627 1.524 1_556 S
C629 C626 1.403 . S
C629 C630 1.392 . S
C629 C633 1.495 . S
C630 C629 1.392 . S
C630 C631 1.385 1_655 S
C630 C632 1.478 . S
C631 H625 0.930 1_554 S
C631 C627 1.400 . S
C631 C630 1.385 1_455 S
C632 C630 1.478 . S
C632 C634 1.381 . S
C632 C638 1.383 1_554 S
C633 C629 1.495 . S
C633 H639 0.959 . S
C633 H640 0.961 . S
C633 H641 0.960 . S
C634 C632 1.381 . S
C634 C635 1.394 . S
C634 H642 0.930 . S
C635 C634 1.394 . S
C635 C636 1.383 . S
C635 H643 0.929 . S
C636 C635 1.383 . S
C636 C637 1.377 1_554 S
C637 H621 0.930 . S
C637 C636 1.377 1_556 S
C637 C638 1.379 . S
C638 H622 0.931 . S
C638 C632 1.383 1_556 S
C638 C637 1.379 . S
H639 C633 0.959 . S
H640 C633 0.961 . S
H641 C633 0.960 . S
H642 C634 0.930 . S
H643 C635 0.929 . S
H644 C652 0.929 . S
H645 C654 0.930 . S
H646 C656 0.930 1_655 S
H647 C659 0.929 . S
H648 C662 0.930 . S
H649 C664 0.960 . S
H650 C664 0.960 . S
H651 C664 0.960 . S
C652 H644 0.929 . S
C652 C653 1.377 . S
C652 C654 1.384 . S
C653 C652 1.377 . S
C653 C659 1.390 . S
C654 H645 0.930 . S
C654 C652 1.384 . S
C654 C655 1.372 . S
C655 C654 1.372 . S
C655 C656 1.400 . S
C655 C660 1.490 . S
C656 H646 0.930 1_455 S
C656 C655 1.400 . S
C656 C659 1.386 . S
H657 C673 0.930 . S
H658 C674 0.931 . S
C659 H647 0.929 . S
C659 C653 1.390 . S
C659 C656 1.386 . S
C660 C655 1.490 . S
C660 C662 1.395 . S
C660 C663 1.403 1_455 S
H661 C667 0.930 . S
C662 H648 0.930 . S
C662 C660 1.395 . S
C662 C665 1.403 . S
C663 C660 1.403 1_655 S
C663 C664 1.524 . S
C663 C667 1.400 . S
C664 H649 0.960 . S
C664 H650 0.960 . S
C664 H651 0.960 . S
C664 C663 1.524 . S
C665 C662 1.403 . S
C665 C666 1.392 1_455 S
C665 C669 1.495 . S
C666 C665 1.392 1_655 S
C666 C667 1.385 . S
C666 C668 1.478 . S
C667 H661 0.930 . S
C667 C663 1.400 . S
C667 C666 1.385 . S
C668 C666 1.478 . S
C668 C670 1.381 . S
C668 C674 1.383 . S
C669 C665 1.495 . S
C669 H675 0.959 . S
C669 H676 0.961 . S
C669 H677 0.960 . S
C670 C668 1.381 . S
C670 C671 1.394 . S
C670 H678 0.930 1_655 S
C671 C670 1.394 . S
C671 C672 1.383 . S
C671 H679 0.929 . S
C672 C671 1.383 . S
C672 C673 1.377 . S
C673 H657 0.930 . S
C673 C672 1.377 . S
C673 C674 1.379 . S
C674 H658 0.931 . S
C674 C668 1.383 . S
C674 C673 1.379 . S
H675 C669 0.959 . S
H676 C669 0.961 . S
H677 C669 0.960 . S
H678 C670 0.930 1_455 S
H679 C671 0.929 . S
H680 C688 0.929 . S
H681 C690 0.930 . S
H682 C692 0.930 . S
H683 C695 0.929 . S
H684 C698 0.930 . S
H685 C700 0.976 . S
H686 C700 0.960 . S
H687 C700 0.960 . S
C688 H680 0.929 . S
C688 C689 1.377 . S
C688 C690 1.384 . S
C689 C688 1.377 . S
C689 C695 1.390 . S
C690 H681 0.930 . S
C690 C688 1.384 . S
C690 C691 1.372 . S
C691 C690 1.372 . S
C691 C692 1.400 . S
C691 C696 1.490 . S
C692 H682 0.930 . S
C692 C691 1.400 . S
C692 C695 1.386 . S
H693 C709 0.930 . S
H694 C710 0.931 . S
C695 H683 0.929 . S
C695 C689 1.390 . S
C695 C692 1.386 . S
C696 C691 1.490 . S
C696 C698 1.395 1_554 S
C696 C699 1.403 . S
H697 C703 0.930 . S
C698 H684 0.930 . S
C698 C696 1.395 1_556 S
C698 C701 1.403 1_565 S
C699 C696 1.403 . S
C699 C700 1.524 . S
C699 C703 1.400 1_565 S
C700 H685 0.976 . S
C700 H686 0.960 . S
C700 H687 0.960 . S
C700 C699 1.524 . S
C701 C698 1.403 1_545 S
C701 C702 1.392 1_556 S
C701 C705 1.495 . S
C702 C701 1.392 1_554 S
C702 C703 1.385 . S
C702 C704 1.478 . S
C703 H697 0.930 . S
C703 C699 1.400 1_545 S
C703 C702 1.385 . S
C704 C702 1.478 . S
C704 C706 1.381 . S
C704 C710 1.383 1_554 S
C705 C701 1.495 . S
C705 H711 0.951 . S
C705 H712 0.961 . S
C705 H713 0.960 . S
C706 C704 1.381 . S
C706 C707 1.394 . S
C706 H714 0.930 . S
C707 C706 1.394 . S
C707 C708 1.383 . S
C707 H715 0.929 . S
C708 C707 1.383 . S
C708 C709 1.377 1_554 S
C709 H693 0.930 . S
C709 C708 1.377 1_556 S
C709 C710 1.379 . S
C710 H694 0.931 . S
C710 C704 1.383 1_556 S
C710 C709 1.379 . S
H711 C705 0.951 . S
H712 C705 0.961 . S
H713 C705 0.960 . S
H714 C706 0.930 . S
H715 C707 0.929 . S
H716 C724 0.929 . S
H717 C726 0.930 . S
H718 C728 0.930 . S
H719 C731 0.929 . S
H720 C734 0.930 . S
H721 C736 0.960 . S
H722 C736 0.960 . S
H723 C736 0.960 . S
C724 H716 0.929 . S
C724 C725 1.377 . S
C724 C726 1.384 . S
C725 C724 1.377 . S
C725 C731 1.390 . S
C726 H717 0.930 . S
C726 C724 1.384 . S
C726 C727 1.372 . S
C727 C726 1.372 . S
C727 C728 1.400 . S
C727 C732 1.490 . S
C728 H718 0.930 . S
C728 C727 1.400 . S
C728 C731 1.386 . S
H729 C745 0.930 . S
H730 C746 0.931 . S
C731 H719 0.929 . S
C731 C725 1.390 . S
C731 C728 1.386 . S
C732 C727 1.490 . S
C732 C734 1.395 . S
C732 C735 1.403 . S
H733 C739 0.930 . S
C734 H720 0.930 . S
C734 C732 1.395 . S
C734 C737 1.403 1_545 S
C735 C732 1.403 . S
C735 C736 1.524 . S
C735 C739 1.400 1_545 S
C736 H721 0.960 . S
C736 H722 0.960 . S
C736 H723 0.960 . S
C736 C735 1.524 . S
C737 C734 1.403 1_565 S
C737 C738 1.392 . S
C737 C741 1.495 . S
C738 C737 1.392 . S
C738 C739 1.385 . S
C738 C740 1.478 . S
C739 H733 0.930 . S
C739 C735 1.400 1_565 S
C739 C738 1.385 . S
C740 C738 1.478 . S
C740 C742 1.381 . S
C740 C746 1.383 . S
C741 C737 1.495 . S
C741 H747 0.959 . S
C741 H748 0.961 . S
C741 H749 0.960 . S
C742 C740 1.381 . S
C742 C743 1.394 . S
C742 H750 0.930 . S
C743 C742 1.394 . S
C743 C744 1.383 . S
C743 H751 0.929 . S
C744 C743 1.383 . S
C744 C745 1.377 . S
C745 H729 0.930 . S
C745 C744 1.377 . S
C745 C746 1.379 . S
C746 H730 0.931 . S
C746 C740 1.383 . S
C746 C745 1.379 . S
H747 C741 0.959 . S
H748 C741 0.961 . S
H749 C741 0.960 . S
H750 C742 0.930 . S
H751 C743 0.929 . S
H752 C760 0.929 . S
H753 C762 0.930 . S
H754 C764 0.930 . S
H755 C767 0.929 . S
H756 C770 0.930 . S
H757 C772 0.960 . S
H758 C772 0.960 . S
H759 C772 0.960 . S
C760 H752 0.929 . S
C760 C761 1.377 . S
C760 C762 1.384 . S
C761 C760 1.377 . S
C761 C767 1.390 . S
C762 H753 0.930 . S
C762 C760 1.384 . S
C762 C763 1.372 . S
C763 C762 1.372 . S
C763 C764 1.400 . S
C763 C768 1.490 . S
C764 H754 0.930 . S
C764 C763 1.400 . S
C764 C767 1.386 . S
H765 C781 0.930 . S
H766 C782 0.931 . S
C767 H755 0.929 . S
C767 C761 1.390 . S
C767 C764 1.386 . S
C768 C763 1.490 . S
C768 C770 1.395 1_554 S
C768 C771 1.403 . S
H769 C775 0.930 . S
C770 H756 0.930 . S
C770 C768 1.395 1_556 S
C770 C773 1.403 . S
C771 C768 1.403 . S
C771 C772 1.524 . S
C771 C775 1.400 . S
C772 H757 0.960 . S
C772 H758 0.960 . S
C772 H759 0.960 . S
C772 C771 1.524 . S
C773 C770 1.403 . S
C773 C774 1.392 1_556 S
C773 C777 1.495 . S
C774 C773 1.392 1_554 S
C774 C775 1.385 . S
C774 C776 1.478 . S
C775 H769 0.930 . S
C775 C771 1.400 . S
C775 C774 1.385 . S
C776 C774 1.478 . S
C776 C778 1.381 . S
C776 C782 1.383 . S
C777 C773 1.495 . S
C777 H783 0.959 . S
C777 H784 0.961 . S
C777 H785 0.960 . S
C778 C776 1.381 . S
C778 C779 1.394 . S
C778 H786 0.930 . S
C779 C778 1.394 . S
C779 C780 1.383 . S
C779 H787 0.929 . S
C780 C779 1.383 . S
C780 C781 1.377 . S
C781 H765 0.930 . S
C781 C780 1.377 . S
C781 C782 1.379 . S
C782 H766 0.931 . S
C782 C776 1.383 . S
C782 C781 1.379 . S
H783 C777 0.959 . S
H784 C777 0.961 . S
H785 C777 0.960 . S
H786 C778 0.930 . S
H787 C779 0.929 . S
H788 C796 0.929 . S
H789 C798 0.930 . S
H790 C800 0.930 . S
H791 C803 0.929 . S
H792 C806 0.930 . S
H793 C808 0.960 . S
H794 C808 0.960 . S
H795 C808 0.960 1_556 S
C796 H788 0.929 . S
C796 C797 1.377 . S
C796 C798 1.384 . S
C797 C796 1.377 . S
C797 C803 1.390 1_554 S
C798 H789 0.930 . S
C798 C796 1.384 . S
C798 C799 1.372 . S
C799 C798 1.372 . S
C799 C800 1.400 1_554 S
C799 C804 1.490 . S
C800 H790 0.930 . S
C800 C799 1.400 1_556 S
C800 C803 1.386 . S
H801 C817 0.930 . S
H802 C818 0.931 . S
C803 H791 0.929 . S
C803 C797 1.390 1_556 S
C803 C800 1.386 . S
C804 C799 1.490 . S
C804 C806 1.395 . S
C804 C807 1.403 . S
H805 C811 0.930 . S
C806 H792 0.930 . S
C806 C804 1.395 . S
C806 C809 1.403 . S
C807 C804 1.403 . S
C807 C808 1.524 . S
C807 C811 1.400 . S
C808 H793 0.960 . S
C808 H794 0.960 . S
C808 H795 0.960 1_554 S
C808 C807 1.524 . S
C809 C806 1.403 . S
C809 C810 1.392 . S
C809 C813 1.495 . S
C810 C809 1.392 . S
C810 C811 1.385 . S
C810 C812 1.478 . S
C811 H805 0.930 . S
C811 C807 1.400 . S
C811 C810 1.385 . S
C812 C810 1.478 . S
C812 C814 1.381 . S
C812 C818 1.383 1_554 S
C813 C809 1.495 . S
C813 H819 0.959 . S
C813 H820 0.961 . S
C813 H821 0.960 . S
C814 C812 1.381 . S
C814 C815 1.394 . S
C814 H822 0.930 . S
C815 C814 1.394 . S
C815 C816 1.383 . S
C815 H823 0.929 . S
C816 C815 1.383 . S
C816 C817 1.377 1_554 S
C817 H801 0.930 . S
C817 C816 1.377 1_556 S
C817 C818 1.379 . S
C818 H802 0.931 . S
C818 C812 1.383 1_556 S
C818 C817 1.379 . S
H819 C813 0.959 . S
H820 C813 0.961 . S
H821 C813 0.960 . S
H822 C814 0.930 . S
H823 C815 0.929 . S
H824 C832 0.929 . S
H825 C834 0.930 . S
H826 C836 0.930 . S
H827 C839 0.929 . S
H828 C842 0.930 . S
H829 C844 0.960 . S
H830 C844 0.960 . S
H831 C844 0.960 . S
C832 H824 0.929 . S
C832 C833 1.377 . S
C832 C834 1.384 . S
C833 C832 1.377 . S
C833 C839 1.390 . S
C834 H825 0.930 . S
C834 C832 1.384 . S
C834 C835 1.372 . S
C835 C834 1.372 . S
C835 C836 1.400 . S
C835 C840 1.490 . S
C836 H826 0.930 . S
C836 C835 1.400 . S
C836 C839 1.386 . S
H837 C853 0.930 . S
H838 C854 0.931 . S
C839 H827 0.929 . S
C839 C833 1.390 . S
C839 C836 1.386 . S
C840 C835 1.490 . S
C840 C842 1.395 . S
C840 C843 1.403 . S
H841 C847 0.930 . S
C842 H828 0.930 . S
C842 C840 1.395 . S
C842 C845 1.403 . S
C843 C840 1.403 . S
C843 C844 1.524 . S
C843 C847 1.400 . S
C844 H829 0.960 . S
C844 H830 0.960 . S
C844 H831 0.960 . S
C844 C843 1.524 . S
C845 C842 1.403 . S
C845 C846 1.392 . S
C845 C849 1.495 . S
C846 C845 1.392 . S
C846 C847 1.385 . S
C846 C848 1.478 . S
C847 H841 0.930 . S
C847 C843 1.400 . S
C847 C846 1.385 . S
C848 C846 1.478 . S
C848 C850 1.381 . S
C848 C854 1.383 . S
C849 C845 1.495 . S
C849 H855 0.959 . S
C849 H856 0.961 . S
C849 H857 0.960 . S
C850 C848 1.381 . S
C850 C851 1.394 . S
C850 H858 0.930 . S
C851 C850 1.394 . S
C851 C852 1.383 . S
C851 H859 0.929 . S
C852 C851 1.383 . S
C852 C853 1.377 . S
C853 H837 0.930 . S
C853 C852 1.377 . S
C853 C854 1.379 . S
C854 H838 0.931 . S
C854 C848 1.383 . S
C854 C853 1.379 . S
H855 C849 0.959 . S
H856 C849 0.961 . S
H857 C849 0.960 . S
H858 C850 0.930 . S
H859 C851 0.929 . S
H860 C868 0.929 . S
H861 C870 0.930 . S
H862 C872 0.930 . S
H863 C875 0.929 . S
H864 C878 0.930 . S
H865 C880 0.960 . S
H866 C880 0.960 . S
H867 C880 0.960 . S
C868 H860 0.929 . S
C868 C869 1.377 . S
C868 C870 1.384 . S
C869 C868 1.377 . S
C869 C875 1.390 . S
C870 H861 0.930 . S
C870 C868 1.384 . S
C870 C871 1.372 . S
C871 C870 1.372 . S
C871 C872 1.400 . S
C871 C876 1.490 . S
C872 H862 0.930 . S
C872 C871 1.400 . S
C872 C875 1.386 . S
H873 C889 0.930 . S
H874 C890 0.931 . S
C875 H863 0.929 . S
C875 C869 1.390 . S
C875 C872 1.386 . S
C876 C871 1.490 . S
C876 C878 1.395 . S
C876 C879 1.403 . S
H877 C883 0.930 . S
C878 H864 0.930 . S
C878 C876 1.395 . S
C878 C881 1.403 . S
C879 C876 1.403 . S
C879 C880 1.524 . S
C879 C883 1.400 . S
C880 H865 0.960 . S
C880 H866 0.960 . S
C880 H867 0.960 . S
C880 C879 1.524 . S
C881 C878 1.403 . S
C881 C882 1.392 . S
C881 C885 1.495 . S
C882 C881 1.392 . S
C882 C883 1.385 . S
C882 C884 1.478 . S
C883 H877 0.930 . S
C883 C879 1.400 . S
C883 C882 1.385 . S
C884 C882 1.478 . S
C884 C886 1.381 . S
C884 C890 1.383 . S
C885 C881 1.495 . S
C885 H891 0.959 . S
C885 H892 0.961 . S
C885 H893 0.960 . S
C886 C884 1.381 . S
C886 C887 1.394 . S
C886 H894 0.930 . S
C887 C886 1.394 . S
C887 C888 1.383 . S
C887 H895 0.929 . S
C888 C887 1.383 . S
C888 C889 1.377 . S
C889 H873 0.930 . S
C889 C888 1.377 . S
C889 C890 1.379 . S
C890 H874 0.931 . S
C890 C884 1.383 . S
C890 C889 1.379 . S
H891 C885 0.959 . S
H892 C885 0.961 . S
H893 C885 0.960 . S
H894 C886 0.930 . S
H895 C887 0.929 . S
H896 C904 0.929 . S
H897 C906 0.930 . S
H898 C908 0.930 . S
H899 C911 0.929 . S
H900 C914 0.930 . S
H901 C916 0.960 . S
H902 C916 0.960 . S
H903 C916 0.960 . S
C904 H896 0.929 . S
C904 C905 1.377 1_655 S
C904 C906 1.384 . S
C905 C904 1.377 1_455 S
C905 C911 1.390 . S
C906 H897 0.930 . S
C906 C904 1.384 . S
C906 C907 1.372 1_655 S
C907 C906 1.372 1_455 S
C907 C908 1.400 . S
C907 C912 1.490 . S
C908 H898 0.930 . S
C908 C907 1.400 . S
C908 C911 1.386 . S
H909 C925 0.930 1_455 S
H910 C926 0.931 1_455 S
C911 H899 0.929 . S
C911 C905 1.390 . S
C911 C908 1.386 . S
C912 C907 1.490 . S
C912 C914 1.395 1_455 S
C912 C915 1.402 . S
H913 C919 0.930 . S
C914 H900 0.930 . S
C914 C912 1.395 1_655 S
C914 C917 1.403 . S
C915 C912 1.402 . S
C915 C916 1.524 . S
C915 C919 1.400 . S
C916 H901 0.960 . S
C916 H902 0.960 . S
C916 H903 0.960 . S
C916 C915 1.524 . S
C917 C914 1.403 . S
C917 C918 1.392 . S
C917 C921 1.495 . S
C918 C917 1.392 . S
C918 C919 1.385 1_655 S
C918 C920 1.478 . S
C919 H913 0.930 . S
C919 C915 1.400 . S
C919 C918 1.385 1_455 S
C920 C918 1.478 . S
C920 C922 1.381 . S
C920 C926 1.383 . S
C921 C917 1.495 . S
C921 H927 0.959 . S
C921 H928 0.961 . S
C921 H929 0.960 . S
C922 C920 1.381 . S
C922 C923 1.394 . S
C922 H930 0.930 . S
C923 C922 1.394 . S
C923 C924 1.383 . S
C923 H931 0.929 . S
C924 C923 1.383 . S
C924 C925 1.377 . S
C925 H909 0.930 1_655 S
C925 C924 1.377 . S
C925 C926 1.379 . S
C926 H910 0.931 1_655 S
C926 C920 1.383 . S
C926 C925 1.379 . S
H927 C921 0.959 . S
H928 C921 0.961 . S
H929 C921 0.960 . S
H930 C922 0.930 . S
H931 C923 0.929 . S
H932 C940 0.929 . S
H933 C942 0.930 . S
H934 C944 0.930 . S
H935 C947 0.929 . S
H936 C950 0.930 . S
H937 C952 0.960 . S
H938 C952 0.960 . S
H939 C952 0.960 . S
C940 H932 0.929 . S
C940 C941 1.377 . S
C940 C942 1.384 . S
C941 C940 1.377 . S
C941 C947 1.390 . S
C942 H933 0.930 . S
C942 C940 1.384 . S
C942 C943 1.372 . S
C943 C942 1.372 . S
C943 C944 1.400 . S
C943 C948 1.490 . S
C944 H934 0.930 . S
C944 C943 1.400 . S
C944 C947 1.386 . S
H945 C961 0.930 . S
H946 C962 0.931 . S
C947 H935 0.929 . S
C947 C941 1.390 . S
C947 C944 1.386 . S
C948 C943 1.490 . S
C948 C950 1.395 1_655 S
C948 C951 1.403 . S
H949 C955 0.930 . S
C950 H936 0.930 . S
C950 C948 1.395 1_455 S
C950 C953 1.403 . S
C951 C948 1.403 . S
C951 C952 1.524 . S
C951 C955 1.400 . S
C952 H937 0.960 . S
C952 H938 0.960 . S
C952 H939 0.960 . S
C952 C951 1.524 . S
C953 C950 1.403 . S
C953 C954 1.392 . S
C953 C957 1.495 . S
C954 C953 1.392 . S
C954 C955 1.385 1_455 S
C954 C956 1.478 . S
C955 H949 0.930 . S
C955 C951 1.400 . S
C955 C954 1.385 1_655 S
C956 C954 1.478 . S
C956 C958 1.381 . S
C956 C962 1.383 . S
C957 C953 1.495 . S
C957 H963 0.959 . S
C957 H964 0.961 . S
C957 H965 0.960 . S
C958 C956 1.381 . S
C958 C959 1.394 . S
C958 H966 0.930 . S
C959 C958 1.394 . S
C959 C960 1.383 . S
C959 H967 0.929 . S
C960 C959 1.383 . S
C960 C961 1.377 . S
C961 H945 0.930 . S
C961 C960 1.377 . S
C961 C962 1.379 . S
C962 H946 0.931 . S
C962 C956 1.383 . S
C962 C961 1.379 . S
H963 C957 0.959 . S
H964 C957 0.961 . S
H965 C957 0.960 . S
H966 C958 0.930 . S
H967 C959 0.929 . S
H968 C976 0.929 . S
H969 C978 0.930 . S
H970 C980 0.930 . S
H971 C983 0.929 . S
H972 C986 0.930 . S
H973 C988 0.960 . S
H974 C988 0.960 . S
H975 C988 0.960 . S
C976 H968 0.929 . S
C976 C977 1.377 . S
C976 C978 1.384 . S
C977 C976 1.377 . S
C977 C983 1.390 1_655 S
C978 H969 0.930 . S
C978 C976 1.384 . S
C978 C979 1.372 . S
C979 C978 1.372 . S
C979 C980 1.400 1_655 S
C979 C984 1.490 . S
C980 H970 0.930 . S
C980 C979 1.400 1_455 S
C980 C983 1.386 . S
H981 C997 0.930 . S
H982 C998 0.931 . S
C983 H971 0.929 . S
C983 C977 1.390 1_455 S
C983 C980 1.386 . S
C984 C979 1.490 . S
C984 C986 1.395 . S
C984 C987 1.403 1_655 S
H985 C991 0.930 . S
C986 H972 0.930 . S
C986 C984 1.395 . S
C986 C989 1.403 . S
C987 C984 1.403 1_455 S
C987 C988 1.524 . S
C987 C991 1.400 . S
C988 H973 0.960 . S
C988 H974 0.960 . S
C988 H975 0.960 . S
C988 C987 1.524 . S
C989 C986 1.403 . S
C989 C990 1.383 1_655 S
C989 C993 1.495 . S
C990 C989 1.383 1_455 S
C990 C991 1.391 . S
C990 C992 1.481 . S
C991 H985 0.930 . S
C991 C987 1.400 . S
C991 C990 1.391 . S
C992 C990 1.481 . S
C992 C994 1.381 1_455 S
C992 C998 1.383 . S
C993 C989 1.495 . S
C993 H999 0.959 . S
C993 H1000 0.961 . S
C993 H1001 0.960 . S
C994 C992 1.381 1_655 S
C994 C995 1.394 . S
C994 H1002 0.930 . S
C995 C994 1.394 . S
C995 C996 1.383 1_655 S
C995 H1003 0.929 . S
C996 C995 1.383 1_455 S
C996 C997 1.377 . S
C997 H981 0.930 . S
C997 C996 1.377 . S
C997 C998 1.379 . S
C998 H982 0.931 . S
C998 C992 1.383 . S
C998 C997 1.379 . S
H999 C993 0.959 . S
H1000 C993 0.961 . S
H1001 C993 0.960 . S
H1002 C994 0.930 . S
H1003 C995 0.929 . S
H1004 C1012 0.929 . S
H1005 C1014 0.930 . S
H1006 C1016 0.930 . S
H1007 C1019 0.929 . S
H1008 C1022 0.930 . S
H1009 C1024 0.960 . S
H1010 C1024 0.960 1_655 S
H1011 C1024 0.960 . S
C1012 H1004 0.929 . S
C1012 C1013 1.377 . S
C1012 C1014 1.384 . S
C1013 C1012 1.377 . S
C1013 C1019 1.390 1_655 S
C1014 H1005 0.930 . S
C1014 C1012 1.384 . S
C1014 C1015 1.372 . S
C1015 C1014 1.372 . S
C1015 C1016 1.400 1_655 S
C1015 C1020 1.490 . S
C1016 H1006 0.930 . S
C1016 C1015 1.400 1_455 S
C1016 C1019 1.386 . S
H1017 C1033 0.930 . S
H1018 C1034 0.931 . S
C1019 H1007 0.929 . S
C1019 C1013 1.390 1_455 S
C1019 C1016 1.386 . S
C1020 C1015 1.490 . S
C1020 C1022 1.395 . S
C1020 C1023 1.403 1_655 S
H1021 C1027 0.930 . S
C1022 H1008 0.930 . S
C1022 C1020 1.395 . S
C1022 C1025 1.403 . S
C1023 C1020 1.403 1_455 S
C1023 C1024 1.524 . S
C1023 C1027 1.400 . S
C1024 H1009 0.960 . S
C1024 H1010 0.960 1_455 S
C1024 H1011 0.960 . S
C1024 C1023 1.524 . S
C1025 C1022 1.403 . S
C1025 C1026 1.392 1_655 S
C1025 C1029 1.495 . S
C1026 C1025 1.392 1_455 S
C1026 C1027 1.385 . S
C1026 C1028 1.478 . S
C1027 H1021 0.930 . S
C1027 C1023 1.400 . S
C1027 C1026 1.385 . S
C1028 C1026 1.478 . S
C1028 C1030 1.381 1_455 S
C1028 C1034 1.383 . S
C1029 C1025 1.495 . S
C1029 H1035 0.959 . S
C1029 H1036 0.961 1_655 S
C1029 H1037 0.960 . S
C1030 C1028 1.381 1_655 S
C1030 C1031 1.394 . S
C1030 H1038 0.930 . S
C1031 C1030 1.394 . S
C1031 C1032 1.383 1_655 S
C1031 H1039 0.929 . S
C1032 C1031 1.383 1_455 S
C1032 C1033 1.377 . S
C1033 H1017 0.930 . S
C1033 C1032 1.377 . S
C1033 C1034 1.379 . S
C1034 H1018 0.931 . S
C1034 C1028 1.383 . S
C1034 C1033 1.379 . S
H1035 C1029 0.959 . S
H1036 C1029 0.961 1_455 S
H1037 C1029 0.960 . S
H1038 C1030 0.930 . S
H1039 C1031 0.929 . S
H1040 C1048 0.929 . S
H1041 C1050 0.930 . S
H1042 C1052 0.930 . S
H1043 C1055 0.929 . S
H1044 C1058 0.930 . S
H1045 C1060 0.960 . S
H1046 C1060 0.960 . S
H1047 C1060 0.960 . S
C1048 H1040 0.929 . S
C1048 C1049 1.377 . S
C1048 C1050 1.384 . S
C1049 C1048 1.377 . S
C1049 C1055 1.390 . S
C1050 H1041 0.930 . S
C1050 C1048 1.384 . S
C1050 C1051 1.372 . S
C1051 C1050 1.372 . S
C1051 C1052 1.400 . S
C1051 C1056 1.490 . S
C1052 H1042 0.930 . S
C1052 C1051 1.400 . S
C1052 C1055 1.386 . S
H1053 C1069 0.930 . S
H1054 C1070 0.931 . S
C1055 H1043 0.929 . S
C1055 C1049 1.390 . S
C1055 C1052 1.386 . S
C1056 C1051 1.490 . S
C1056 C1058 1.395 . S
C1056 C1059 1.403 . S
H1057 C1063 0.930 . S
C1058 H1044 0.930 . S
C1058 C1056 1.395 . S
C1058 C1061 1.403 . S
C1059 C1056 1.403 . S
C1059 C1060 1.524 . S
C1059 C1063 1.400 . S
C1060 H1045 0.960 . S
C1060 H1046 0.960 . S
C1060 H1047 0.960 . S
C1060 C1059 1.524 . S
C1061 C1058 1.403 . S
C1061 C1062 1.392 . S
C1061 C1065 1.495 . S
C1062 C1061 1.392 . S
C1062 C1063 1.385 . S
C1062 C1064 1.478 . S
C1063 H1057 0.930 . S
C1063 C1059 1.400 . S
C1063 C1062 1.385 . S
C1064 C1062 1.478 . S
C1064 C1066 1.381 . S
C1064 C1070 1.383 . S
C1065 C1061 1.495 . S
C1065 H1071 0.959 . S
C1065 H1072 0.961 . S
C1065 H1073 0.960 . S
C1066 C1064 1.381 . S
C1066 C1067 1.394 . S
C1066 H1074 0.930 . S
C1067 C1066 1.394 . S
C1067 C1068 1.383 . S
C1067 H1075 0.929 . S
C1068 C1067 1.383 . S
C1068 C1069 1.377 . S
C1069 H1053 0.930 . S
C1069 C1068 1.377 . S
C1069 C1070 1.379 . S
C1070 H1054 0.931 . S
C1070 C1064 1.383 . S
C1070 C1069 1.379 . S
H1071 C1065 0.959 . S
H1072 C1065 0.961 . S
H1073 C1065 0.960 . S
H1074 C1066 0.930 . S
H1075 C1067 0.929 . S
H1076 C1084 0.929 . S
H1077 C1086 0.930 . S
H1078 C1088 0.930 . S
H1079 C1091 0.929 . S
H1080 C1094 0.930 . S
H1081 C1096 0.960 . S
H1082 C1096 0.960 . S
H1083 C1096 0.960 . S
C1084 H1076 0.929 . S
C1084 C1085 1.377 . S
C1084 C1086 1.384 . S
C1085 C1084 1.377 . S
C1085 C1091 1.390 . S
C1086 H1077 0.930 . S
C1086 C1084 1.384 . S
C1086 C1087 1.372 . S
C1087 C1086 1.372 . S
C1087 C1088 1.400 . S
C1087 C1092 1.490 . S
C1088 H1078 0.930 . S
C1088 C1087 1.400 . S
C1088 C1091 1.386 . S
H1089 C1105 0.930 . S
H1090 C1106 0.931 . S
C1091 H1079 0.929 . S
C1091 C1085 1.390 . S
C1091 C1088 1.386 . S
C1092 C1087 1.490 . S
C1092 C1094 1.395 . S
C1092 C1095 1.403 . S
H1093 C1099 0.930 . S
C1094 H1080 0.930 . S
C1094 C1092 1.395 . S
C1094 C1097 1.403 . S
C1095 C1092 1.403 . S
C1095 C1096 1.524 . S
C1095 C1099 1.400 . S
C1096 H1081 0.960 . S
C1096 H1082 0.960 . S
C1096 H1083 0.960 . S
C1096 C1095 1.524 . S
C1097 C1094 1.403 . S
C1097 C1098 1.392 . S
C1097 C1101 1.495 . S
C1098 C1097 1.392 . S
C1098 C1099 1.385 . S
C1098 C1100 1.478 . S
C1099 H1093 0.930 . S
C1099 C1095 1.400 . S
C1099 C1098 1.385 . S
C1100 C1098 1.478 . S
C1100 C1102 1.381 . S
C1100 C1106 1.383 . S
C1101 C1097 1.495 . S
C1101 H1107 0.959 . S
C1101 H1108 0.961 . S
C1101 H1109 0.960 . S
C1102 C1100 1.381 . S
C1102 C1103 1.394 . S
C1102 H1110 0.930 . S
C1103 C1102 1.394 . S
C1103 C1104 1.383 . S
C1103 H1111 0.929 . S
C1104 C1103 1.383 . S
C1104 C1105 1.377 . S
C1105 H1089 0.930 . S
C1105 C1104 1.377 . S
C1105 C1106 1.379 . S
C1106 H1090 0.931 . S
C1106 C1100 1.383 . S
C1106 C1105 1.379 . S
H1107 C1101 0.959 . S
H1108 C1101 0.961 . S
H1109 C1101 0.960 . S
H1110 C1102 0.930 . S
H1111 C1103 0.929 . S
H1112 C1120 0.929 . S
H1113 C1122 0.930 . S
H1114 C1124 0.930 . S
H1115 C1127 0.929 . S
H1116 C1130 0.930 . S
H1117 C1132 0.960 . S
H1118 C1132 0.960 . S
H1119 C1132 0.960 . S
C1120 H1112 0.929 . S
C1120 C1121 1.377 . S
C1120 C1122 1.384 . S
C1121 C1120 1.377 . S
C1121 C1127 1.390 . S
C1122 H1113 0.930 . S
C1122 C1120 1.384 . S
C1122 C1123 1.372 . S
C1123 C1122 1.372 . S
C1123 C1124 1.400 . S
C1123 C1128 1.490 . S
C1124 H1114 0.930 . S
C1124 C1123 1.400 . S
C1124 C1127 1.386 . S
H1125 C1141 0.930 . S
H1126 C1142 0.931 . S
C1127 H1115 0.929 . S
C1127 C1121 1.390 . S
C1127 C1124 1.386 . S
C1128 C1123 1.490 . S
C1128 C1130 1.395 . S
C1128 C1131 1.403 . S
H1129 C1135 0.930 . S
C1130 H1116 0.930 . S
C1130 C1128 1.395 . S
C1130 C1133 1.403 . S
C1131 C1128 1.403 . S
C1131 C1132 1.524 . S
C1131 C1135 1.400 . S
C1132 H1117 0.960 . S
C1132 H1118 0.960 . S
C1132 H1119 0.960 . S
C1132 C1131 1.524 . S
C1133 C1130 1.403 . S
C1133 C1134 1.392 . S
C1133 C1137 1.495 . S
C1134 C1133 1.392 . S
C1134 C1135 1.385 . S
C1134 C1136 1.478 . S
C1135 H1129 0.930 . S
C1135 C1131 1.400 . S
C1135 C1134 1.385 . S
C1136 C1134 1.478 . S
C1136 C1138 1.381 . S
C1136 C1142 1.383 . S
C1137 C1133 1.495 . S
C1137 H1143 0.959 . S
C1137 H1144 0.961 . S
C1137 H1145 0.960 . S
C1138 C1136 1.381 . S
C1138 C1139 1.394 . S
C1138 H1146 0.930 . S
C1139 C1138 1.394 . S
C1139 C1140 1.383 . S
C1139 H1147 0.929 . S
C1140 C1139 1.383 . S
C1140 C1141 1.377 . S
C1141 H1125 0.930 . S
C1141 C1140 1.377 . S
C1141 C1142 1.379 . S
C1142 H1126 0.931 . S
C1142 C1136 1.383 . S
C1142 C1141 1.379 . S
H1143 C1137 0.959 . S
H1144 C1137 0.961 . S
H1145 C1137 0.960 . S
H1146 C1138 0.930 . S
H1147 C1139 0.929 . S
H1148 C1156 0.929 . S
H1149 C1158 0.930 . S
H1150 C1160 0.930 . S
H1151 C1163 0.929 . S
H1152 C1166 0.930 . S
H1153 C1168 0.960 . S
H1154 C1168 0.960 . S
H1155 C1168 0.960 . S
C1156 H1148 0.929 . S
C1156 C1157 1.377 . S
C1156 C1158 1.384 . S
C1157 C1156 1.377 . S
C1157 C1163 1.390 . S
C1158 H1149 0.930 . S
C1158 C1156 1.384 . S
C1158 C1159 1.372 . S
C1159 C1158 1.372 . S
C1159 C1160 1.400 . S
C1159 C1164 1.490 . S
C1160 H1150 0.930 . S
C1160 C1159 1.400 . S
C1160 C1163 1.386 . S
H1161 C1177 0.930 . S
H1162 C1178 0.931 . S
C1163 H1151 0.929 . S
C1163 C1157 1.390 . S
C1163 C1160 1.386 . S
C1164 C1159 1.490 . S
C1164 C1166 1.395 . S
C1164 C1167 1.403 . S
H1165 C1171 0.930 . S
C1166 H1152 0.930 . S
C1166 C1164 1.395 . S
C1166 C1169 1.403 . S
C1167 C1164 1.403 . S
C1167 C1168 1.524 . S
C1167 C1171 1.400 . S
C1168 H1153 0.960 . S
C1168 H1154 0.960 . S
C1168 H1155 0.960 . S
C1168 C1167 1.524 . S
C1169 C1166 1.403 . S
C1169 C1170 1.392 . S
C1169 C1173 1.495 . S
C1170 C1169 1.392 . S
C1170 C1171 1.385 . S
C1170 C1172 1.478 . S
C1171 H1165 0.930 . S
C1171 C1167 1.400 . S
C1171 C1170 1.385 . S
C1172 C1170 1.478 . S
C1172 C1174 1.381 . S
C1172 C1178 1.383 . S
C1173 C1169 1.495 . S
C1173 H1179 0.959 . S
C1173 H1180 0.961 . S
C1173 H1181 0.960 . S
C1174 C1172 1.381 . S
C1174 C1175 1.394 . S
C1174 H1182 0.930 . S
C1175 C1174 1.394 . S
C1175 C1176 1.383 . S
C1175 H1183 0.929 . S
C1176 C1175 1.383 . S
C1176 C1177 1.377 . S
C1177 H1161 0.930 . S
C1177 C1176 1.377 . S
C1177 C1178 1.379 . S
C1178 H1162 0.931 . S
C1178 C1172 1.383 . S
C1178 C1177 1.379 . S
H1179 C1173 0.959 . S
H1180 C1173 0.961 . S
H1181 C1173 0.960 . S
H1182 C1174 0.930 . S
H1183 C1175 0.929 . S
C329 C13 2.125 . S
C348 C24 2.115 . S
C365 C53 2.123 . S
C384 C64 2.108 . S
C401 C93 2.119 . S
C420 C104 2.110 . S
C437 C144 2.139 . S
C456 C133 2.128 . S
C473 C173 2.125 . S
C492 C184 2.116 . S
C509 C224 2.122 . S
C528 C213 2.126 . S
C545 C253 2.123 . S
C564 C264 2.125 . S
C581 C293 2.134 . S
C600 C304 2.128 . S
C617 C66 2.200 . S
C636 C17 2.209 . S
C653 C146 2.212 . S
C672 C106 2.193 . S
C689 C177 2.195 . S
C708 C226 2.203 . S
C725 C266 2.213 . S
C744 C306 2.218 . S
C761 C26 1.626 . S
C780 C217 1.626 . S
C797 C186 1.628 . S
C816 C57 1.631 . S
C833 C97 1.654 . S
C852 C297 1.658 . S
C869 C137 1.652 . S
C888 C257 1.654 . S
C905 C2 1.662 . S
C924 C122 1.655 . S
C941 C42 1.501 . S
C960 C82 1.483 . S
C977 C63 1.629 . S
C996 C103 1.579 . S
C1013 C143 1.470 . S
C1032 C23 1.476 . S
C1049 C162 1.657 . S
C1068 C282 1.642 . S
C1085 C202 1.504 . S
C1104 C242 1.472 . S
C1121 C223 1.627 . S
C1140 C263 1.603 . S
C1157 C303 1.466 . S
C1176 C183 1.431 . S
