# Generated by pormake.
# Topology dia, (4)-cn, num edge types: 1
# Building blocks:
#     Node 0, Type 0, BuildingBlock: KUFVIS_clean_sbu_0, # of connection points: 4
#     Node 1, Type 0, BuildingBlock: KUFVIS_clean_sbu_0, # of connection points: 4
#     Node 2, Type 0, BuildingBlock: KUFVIS_clean_sbu_0, # of connection points: 4
#     Node 3, Type 0, BuildingBlock: KUFVIS_clean_sbu_0, # of connection points: 4
#     Node 4, Type 0, BuildingBlock: KUFVIS_clean_sbu_0, # of connection points: 4
#     Node 5, Type 0, BuildingBlock: KUFVIS_clean_sbu_0, # of connection points: 4
#     Node 6, Type 0, BuildingBlock: KUFVIS_clean_sbu_0, # of connection points: 4
#     Node 7, Type 0, BuildingBlock: KUFVIS_clean_sbu_0, # of connection points: 4
#     Edge 8, Type (0, 0), BuildingBlock: XUDNAN_clean_linker_2, # of connection points: 2
#     Edge 9, Type (0, 0), BuildingBlock: XUDNAN_clean_linker_2, # of connection points: 2
#     Edge 10, Type (0, 0), BuildingBlock: XUDNAN_clean_linker_2, # of connection points: 2
#     Edge 11, Type (0, 0), BuildingBlock: XUDNAN_clean_linker_2, # of connection points: 2
#     Edge 12, Type (0, 0), BuildingBlock: XUDNAN_clean_linker_2, # of connection points: 2
#     Edge 13, Type (0, 0), BuildingBlock: XUDNAN_clean_linker_2, # of connection points: 2
#     Edge 14, Type (0, 0), BuildingBlock: XUDNAN_clean_linker_2, # of connection points: 2
#     Edge 15, Type (0, 0), BuildingBlock: XUDNAN_clean_linker_2, # of connection points: 2
#     Edge 16, Type (0, 0), BuildingBlock: XUDNAN_clean_linker_2, # of connection points: 2
#     Edge 17, Type (0, 0), BuildingBlock: XUDNAN_clean_linker_2, # of connection points: 2
#     Edge 18, Type (0, 0), BuildingBlock: XUDNAN_clean_linker_2, # of connection points: 2
#     Edge 19, Type (0, 0), BuildingBlock: XUDNAN_clean_linker_2, # of connection points: 2
#     Edge 20, Type (0, 0), BuildingBlock: XUDNAN_clean_linker_2, # of connection points: 2
#     Edge 21, Type (0, 0), BuildingBlock: XUDNAN_clean_linker_2, # of connection points: 2
#     Edge 22, Type (0, 0), BuildingBlock: XUDNAN_clean_linker_2, # of connection points: 2
#     Edge 23, Type (0, 0), BuildingBlock: XUDNAN_clean_linker_2, # of connection points: 2
# Relax obj value: 0.070
# Max RMSD: 0.124
# Mean RMSD: 0.124
data_MOF--net-dia--node1-KUFVIS_clean_sbu_0--edge1-XUDNAN_clean_linker_2
_symmetry_space_group_name_H-M    P1
_symmetry_Int_Tables_number       1
_symmetry_cell_setting            triclinic
loop_
_symmetry_equiv_pos_as_xyz
'x, y, z'
_cell_length_a     37.373053
_cell_length_b     32.43254
_cell_length_c     32.460378
_cell_angle_alpha  91.270571
_cell_angle_beta   91.590023
_cell_angle_gamma 91.509584
loop_
_atom_site_label
_atom_site_type_symbol
_atom_site_fract_x
_atom_site_fract_y
_atom_site_fract_z
_atom_type_partial_charge
Mn0 Mn 0.14467 0.14463 0.6298 0.0
Mn1 Mn 0.18186 0.06342 0.58118 0.0
C2 C 0.11526 0.11192 0.57377 0.0
C3 C 0.10843 0.17235 0.68111 0.0
C4 C 0.20425 0.15235 0.56656 0.0
O5 O 0.18313 0.1275 0.67175 0.0
O6 O 0.20447 0.07329 0.63663 0.0
C7 C 0.15894 0.99656 0.63605 0.0
N8 N 0.16018 0.01268 0.59771 0.0
C9 C 0.13702 0.94926 0.56631 0.0
C10 C 0.13541 0.93196 0.60545 0.0
C11 C 0.14608 0.95587 0.64051 0.0
C12 C 0.14897 0.99037 0.56393 0.0
H13 H 0.16812 0.01444 0.66295 0.0
C14 C 0.20398 0.09701 0.66864 0.0
O15 O 0.13255 0.19478 0.66341 0.0
O16 O 0.10619 0.13365 0.67016 0.0
N17 N 0.16283 0.04925 0.52727 0.0
C18 C 0.16525 0.07086 0.49188 0.0
C19 C 0.15378 0.0521 0.45423 0.0
C20 C 0.14126 1.01086 0.45315 0.0
C21 C 0.13986 0.98894 0.48984 0.0
C22 C 0.15039 1.00973 0.52661 0.0
H23 H 0.17567 0.10223 0.49242 0.0
O24 O 0.10773 0.14926 0.58492 0.0
O25 O 0.13921 0.09382 0.59635 0.0
O26 O 0.18315 0.16912 0.59195 0.0
O27 O 0.20583 0.1134 0.56106 0.0
C28 C 0.12903 0.94707 0.4913 0.0
C29 C 0.12757 0.92724 0.52952 0.0
H30 H 0.1261 0.90035 0.60893 0.0
H31 H 0.14502 0.94271 0.67081 0.0
H32 H 0.15516 0.06916 0.42602 0.0
H33 H 0.13305 0.99625 0.42395 0.0
H34 H 0.12123 0.92999 0.46329 0.0
H35 H 0.11863 0.89524 0.53031 0.0
Mn36 Mn 0.90498 0.38508 0.87331 0.0
Mn37 Mn 0.86984 0.42883 0.95831 0.0
C38 C 0.93845 0.43246 0.91439 0.0
C39 C 0.93741 0.33251 0.84155 0.0
C40 C 0.85151 0.45576 0.87145 0.0
O41 O 0.86203 0.3462 0.88425 0.0
O42 O 0.84255 0.37795 0.94152 0.0
C43 C 0.88722 0.36316 0.01705 0.0
N44 N 0.88933 0.40349 1.00628 0.0
C45 C 0.92222 0.42222 0.06898 0.0
C46 C 0.9203 0.38092 0.08081 0.0
C47 C 0.9028 0.35125 0.05466 0.0
C48 C 0.90629 0.43222 0.03108 0.0
H49 H 0.87379 0.34023 0.99709 0.0
C50 C 0.84066 0.34872 0.91436 0.0
O51 O 0.91628 0.35565 0.82031 0.0
O52 O 0.93876 0.33889 0.88112 0.0
N53 N 0.8939 0.47821 0.97883 0.0
C54 C 0.89412 0.51654 0.96247 0.0
C55 C 0.91007 0.54987 0.98511 0.0
C56 C 0.92556 0.54347 0.0243 0.0
C57 C 0.92522 0.50376 0.04037 0.0
C58 C 0.90833 0.47188 0.01676 0.0
H59 H 0.88197 0.5217 0.93253 0.0
O60 O 0.94665 0.42572 0.87632 0.0
O61 O 0.91111 0.41143 0.92718 0.0
O62 O 0.87121 0.43012 0.85272 0.0
O63 O 0.84901 0.45744 0.91063 0.0
C64 C 0.94101 0.49457 0.07889 0.0
C65 C 0.9397 0.45377 0.09308 0.0
H66 H 0.93231 0.37161 0.10978 0.0
H67 H 0.90128 0.31929 0.06351 0.0
H68 H 0.91031 0.58047 0.97246 0.0
H69 H 0.93768 0.56926 0.04182 0.0
H70 H 0.95452 0.51856 0.09767 0.0
H71 H 0.9523 0.44697 0.12252 0.0
Mn72 Mn 0.63762 0.14901 0.12896 0.0
Mn73 Mn 0.67278 0.064 0.08481 0.0
C74 C 0.60314 0.10617 0.08425 0.0
C75 C 0.60691 0.18158 0.18248 0.0
C76 C 0.68772 0.15033 0.05483 0.0
O77 O 0.68229 0.14017 0.16575 0.0
O78 O 0.70262 0.08379 0.13274 0.0
C79 C 0.66085 1.00756 0.15391 0.0
N80 N 0.6563 0.0165 0.11332 0.0
C81 C 0.62448 0.95204 0.09929 0.0
C82 C 0.62898 0.94204 0.14089 0.0
C83 C 0.64715 0.96999 0.16833 0.0
C84 C 0.63864 0.98998 0.08674 0.0
H85 H 0.67478 0.02894 0.17512 0.0
C86 C 0.70491 0.11158 0.16129 0.0
O87 O 0.62666 0.20253 0.15768 0.0
O88 O 0.60591 0.14183 0.17709 0.0
N89 N 0.64678 0.04069 0.03797 0.0
C90 C 0.6442 0.05535 0.99903 0.0
C91 C 0.62719 0.03089 0.9677 0.0
C92 C 0.61299 0.99167 0.9767 0.0
C93 C 0.61614 0.97715 0.01693 0.0
C94 C 0.63402 1.00256 0.0467 0.0
H95 H 0.65527 0.08534 0.99187 0.0
O96 O 0.59449 0.1442 0.09059 0.0
O97 O 0.63155 0.09435 0.1041 0.0
O98 O 0.66929 0.16912 0.08173 0.0
O99 O 0.69044 0.11115 0.05313 0.0
C100 C 0.60212 0.93855 0.02869 0.0
C101 C 0.60612 0.92609 0.0699 0.0
H102 H 0.61842 0.9131 0.15215 0.0
H103 H 0.65062 0.96257 0.20051 0.0
H104 H 0.62506 0.04223 0.93665 0.0
H105 H 0.59971 0.97295 0.95251 0.0
H106 H 0.5879 0.91839 1.00638 0.0
H107 H 0.59485 0.89657 0.07869 0.0
Mn108 Mn 0.90712 0.89683 0.37316 0.0
Mn109 Mn 0.86774 0.95685 0.44492 0.0
C110 C 0.93866 0.95164 0.4052 0.0
C111 C 0.94 0.84029 0.35065 0.0
C112 C 0.85528 0.96675 0.35362 0.0
O113 O 0.86395 0.86066 0.38874 0.0
O114 O 0.84033 0.90446 0.43485 0.0
C115 C 0.87808 0.9036 0.51698 0.0
N116 N 0.88241 0.94084 0.49892 0.0
C117 C 0.90235 0.97314 0.56321 0.0
C118 C 0.89817 0.93513 0.58254 0.0
C119 C 0.88634 0.90012 0.55921 0.0
C120 C 0.89489 0.97438 0.52077 0.0
H121 H 0.86798 0.8769 0.49941 0.0
C122 C 0.84014 0.87022 0.41454 0.0
O123 O 0.91867 0.85958 0.32607 0.0
O124 O 0.94116 0.85246 0.38911 0.0
N125 N 0.89093 1.00875 0.45872 0.0
C126 C 0.89413 0.04289 0.43524 0.0
C127 C 0.90744 0.08008 0.45345 0.0
C128 C 0.91586 0.08221 0.49591 0.0
C129 C 0.91134 0.04696 0.51966 0.0
C130 C 0.89934 1.01038 0.4995 0.0
H131 H 0.88664 0.0417 0.40285 0.0
O132 O 0.94807 0.93682 0.36979 0.0
O133 O 0.91136 0.93347 0.42193 0.0
O134 O 0.87487 0.93715 0.34235 0.0
O135 O 0.85068 0.9768 0.3912 0.0
C136 C 0.91761 0.04686 0.56266 0.0
C137 C 0.91322 1.00994 0.58442 0.0
H138 H 0.90386 0.93251 0.61526 0.0
H139 H 0.88297 0.8707 0.57391 0.0
H140 H 0.91055 0.10724 0.43497 0.0
H141 H 0.92544 0.11116 0.51001 0.0
H142 H 0.92638 0.07485 0.57921 0.0
H143 H 0.91874 1.01009 0.61736 0.0
Mn144 Mn 0.13729 0.64286 0.13722 0.0
Mn145 Mn 0.17935 0.56487 0.08887 0.0
C146 C 0.10686 0.60113 0.0881 0.0
C147 C 0.1041 0.67076 0.19103 0.0
C148 C 0.18989 0.65452 0.0671 0.0
O149 O 0.18142 0.6342 0.175 0.0
O150 O 0.20484 0.58015 0.14132 0.0
C151 C 0.16613 0.49942 0.14929 0.0
N152 N 0.16329 0.51325 0.11004 0.0
C153 C 0.13507 0.44928 0.08606 0.0
C154 C 0.13779 0.43432 0.12619 0.0
C155 C 0.15332 0.45955 0.15795 0.0
C156 C 0.14826 0.4893 0.0793 0.0
H157 H 0.17806 0.51866 0.17383 0.0
C158 C 0.20448 0.60581 0.17182 0.0
O159 O 0.12378 0.69372 0.16802 0.0
O160 O 0.10455 0.6312 0.1839 0.0
N161 N 0.15702 0.54615 0.03784 0.0
C162 C 0.15544 0.56563 1.00109 0.0
C163 C 0.14096 0.54443 0.96605 0.0
C164 C 0.12836 0.50346 0.96913 0.0
C165 C 0.13 0.48417 1.00728 0.0
C166 C 0.14528 0.50658 0.04098 0.0
H167 H 0.16541 0.59698 0.99844 0.0
O168 O 0.09549 0.63762 0.09709 0.0
O169 O 0.13537 0.59004 0.10826 0.0
O170 O 0.16788 0.66869 0.09278 0.0
O171 O 0.19734 0.61641 0.06399 0.0
C172 C 0.11701 0.44362 0.0132 0.0
C173 C 0.11937 0.42626 0.05262 0.0
H174 H 0.12789 0.4036 0.13301 0.0
H175 H 0.15545 0.44826 0.18903 0.0
H176 H 0.13965 0.55956 0.93669 0.0
H177 H 0.11746 0.48705 0.942 0.0
H178 H 0.10484 0.42566 0.98773 0.0
H179 H 0.10891 0.39524 0.0569 0.0
Mn180 Mn 0.41119 0.39945 0.38068 0.0
Mn181 Mn 0.37648 0.44745 0.46377 0.0
C182 C 0.44243 0.45382 0.41388 0.0
C183 C 0.44543 0.34727 0.35095 0.0
C184 C 0.35301 0.46477 0.3758 0.0
O185 O 0.37207 0.35847 0.39775 0.0
O186 O 0.35262 0.39268 0.45354 0.0
C187 C 0.39947 0.39077 0.52905 0.0
N188 N 0.39871 0.42946 0.51364 0.0
C189 C 0.42294 0.45931 0.57725 0.0
C190 C 0.42411 0.41978 0.59382 0.0
C191 C 0.41267 0.38532 0.56944 0.0
C192 C 0.4107 0.46266 0.53636 0.0
H193 H 0.38965 0.36436 0.51085 0.0
C194 C 0.35201 0.36128 0.42893 0.0
O195 O 0.42146 0.36642 0.32956 0.0
O196 O 0.4487 0.35736 0.38979 0.0
N197 N 0.39676 0.50069 0.47842 0.0
C198 C 0.3946 0.53656 0.45752 0.0
C199 C 0.40684 0.5737 0.47677 0.0
C200 C 0.41979 0.5738 0.51781 0.0
C201 C 0.42087 0.53664 0.53903 0.0
C202 C 0.40967 0.50039 0.51771 0.0
H203 H 0.3837 0.53681 0.42637 0.0
O204 O 0.4491 0.44313 0.37619 0.0
O205 O 0.41826 0.43164 0.43205 0.0
O206 O 0.37344 0.4393 0.358 0.0
O207 O 0.35195 0.46917 0.41486 0.0
C208 C 0.43198 0.53423 0.58072 0.0
C209 C 0.43309 0.49558 0.59981 0.0
H210 H 0.43363 0.41555 0.62522 0.0
H211 H 0.41336 0.35472 0.58204 0.0
H212 H 0.40566 0.60228 0.46027 0.0
H213 H 0.42854 0.60262 0.53284 0.0
H214 H 0.44029 0.56184 0.59821 0.0
H215 H 0.44226 0.49405 0.63167 0.0
Mn216 Mn 0.40161 0.88115 0.87886 0.0
Mn217 Mn 0.36408 0.92521 0.96229 0.0
C218 C 0.43385 0.92902 0.92036 0.0
C219 C 0.4344 0.82846 0.84818 0.0
C220 C 0.34813 0.95194 0.87497 0.0
O221 O 0.3587 0.84223 0.88836 0.0
O222 O 0.33666 0.87476 0.94403 0.0
C223 C 0.37945 0.85893 0.02104 0.0
N224 N 0.38199 0.89937 0.01075 0.0
C225 C 0.41337 0.91737 0.07462 0.0
C226 C 0.41092 0.87595 0.08601 0.0
C227 C 0.39396 0.8466 0.05904 0.0
C228 C 0.39843 0.92781 0.03634 0.0
H229 H 0.36649 0.83625 1.00041 0.0
C230 C 0.33597 0.84557 0.91687 0.0
O231 O 0.41374 0.85166 0.82639 0.0
O232 O 0.43531 0.83507 0.88774 0.0
N233 N 0.38775 0.9743 0.98408 0.0
C234 C 0.38862 0.01276 0.96803 0.0
C235 C 0.40442 0.04576 0.99127 0.0
C236 C 0.41914 0.03891 0.03075 0.0
C237 C 0.41776 0.99914 0.04671 0.0
C238 C 0.40107 0.9676 0.02244 0.0
H239 H 0.37723 0.01824 0.93778 0.0
O240 O 0.44296 0.92197 0.88264 0.0
O241 O 0.40638 0.90782 0.93275 0.0
O242 O 0.36802 0.92588 0.85711 0.0
O243 O 0.34491 0.95423 0.91404 0.0
C244 C 0.43251 0.98949 0.08563 0.0
C245 C 0.43047 0.94859 0.09949 0.0
H246 H 0.42214 0.8663 0.11526 0.0
H247 H 0.39208 0.81455 0.06753 0.0
H248 H 0.40524 0.07642 0.97879 0.0
H249 H 0.43149 0.06439 0.04853 0.0
H250 H 0.44582 0.0132 0.10494 0.0
H251 H 0.44229 0.94145 0.12924 0.0
Mn252 Mn 0.64497 0.6514 0.63536 0.0
Mn253 Mn 0.69036 0.58136 0.57964 0.0
C254 C 0.61821 0.61919 0.57766 0.0
C255 C 0.60757 0.67239 0.6883 0.0
C256 C 0.70172 0.67343 0.57213 0.0
O257 O 0.68581 0.63651 0.67519 0.0
O258 O 0.71258 0.58913 0.63565 0.0
C259 C 0.67594 0.5067 0.62811 0.0
N260 N 0.6745 0.52654 0.59157 0.0
C261 C 0.65608 0.46396 0.55488 0.0
C262 C 0.65733 0.44284 0.5921 0.0
C263 C 0.667 0.4644 0.62893 0.0
C264 C 0.66434 0.50631 0.55615 0.0
H265 H 0.68421 0.5229 0.65634 0.0
C266 C 0.70963 0.60945 0.66962 0.0
O267 O 0.6298 0.69777 0.67144 0.0
O268 O 0.60814 0.63399 0.67598 0.0
N269 N 0.67167 0.5698 0.52502 0.0
C270 C 0.67076 0.59495 0.49194 0.0
C271 C 0.65963 0.57863 0.45311 0.0
C272 C 0.65071 0.53641 0.44843 0.0
C273 C 0.65262 0.51098 0.48275 0.0
C274 C 0.66279 0.52923 0.52091 0.0
H275 H 0.67834 0.62724 0.49517 0.0
O276 O 0.6069 0.65411 0.59173 0.0
O277 O 0.64451 0.60302 0.59832 0.0
O278 O 0.67902 0.68357 0.59882 0.0
O279 O 0.70894 0.63612 0.56349 0.0
C280 C 0.64529 0.46815 0.48051 0.0
C281 C 0.64713 0.44462 0.51652 0.0
H282 H 0.65093 0.4101 0.59276 0.0
H283 H 0.6681 0.44832 0.65778 0.0
H284 H 0.65842 0.59842 0.42673 0.0
H285 H 0.64266 0.5238 0.41831 0.0
H286 H 0.6378 0.45306 0.45131 0.0
H287 H 0.64096 0.41181 0.51449 0.0
H288 H 0.30283 0.35808 0.49022 0.0
H289 H 0.34883 0.28315 0.3936 0.0
H290 H 0.31467 0.22234 0.41745 0.0
H291 H 0.30632 0.28413 0.56764 0.0
H292 H 0.2645 0.29757 0.5901 0.0
H293 H 0.29033 0.33589 0.56369 0.0
H294 H 0.23577 0.34967 0.51545 0.0
H295 H 0.20962 0.31165 0.54195 0.0
H296 H 0.21409 0.30726 0.48689 0.0
H297 H 0.27931 0.16895 0.45503 0.0
H298 H 0.24238 0.12705 0.50037 0.0
H299 H 0.21825 0.23688 0.57246 0.0
C300 C 0.30543 0.32908 0.47354 0.0
C301 C 0.32861 0.32557 0.43983 0.0
C302 C 0.33118 0.28683 0.41924 0.0
C303 C 0.31195 0.25206 0.43268 0.0
C304 C 0.29007 0.25656 0.46656 0.0
C305 C 0.2864 0.29418 0.48644 0.0
C306 C 0.26191 0.29051 0.5228 0.0
C307 C 0.28197 0.30275 0.56346 0.0
C308 C 0.22835 0.3163 0.51637 0.0
C309 C 0.25268 0.24472 0.52067 0.0
C310 C 0.26928 0.22581 0.488 0.0
C311 C 0.26592 0.18352 0.48043 0.0
C312 C 0.24489 0.15994 0.50664 0.0
C313 C 0.22713 0.17852 0.54018 0.0
C314 C 0.23119 0.22165 0.54709 0.0
H315 H 0.76017 0.54957 0.67003 0.0
H316 H 0.71098 0.63984 0.74986 0.0
H317 H 0.74435 0.6124 0.80967 0.0
H318 H 0.7547 0.4674 0.73748 0.0
H319 H 0.79681 0.44571 0.7239 0.0
H320 H 0.77211 0.47512 0.68691 0.0
H321 H 0.82723 0.5241 0.67871 0.0
H322 H 0.85227 0.49461 0.71544 0.0
H323 H 0.84786 0.54937 0.72371 0.0
H324 H 0.7794 0.5712 0.86144 0.0
H325 H 0.81469 0.52174 0.90085 0.0
H326 H 0.84063 0.45798 0.78684 0.0
C327 C 0.75682 0.56432 0.69988 0.0
C328 C 0.73294 0.5972 0.705 0.0
C329 C 0.72922 0.61492 0.74491 0.0
C330 C 0.74803 0.59944 0.77912 0.0
C331 C 0.77055 0.56632 0.77296 0.0
C332 C 0.77521 0.54921 0.73424 0.0
C333 C 0.79946 0.51248 0.73602 0.0
C334 C 0.77958 0.47284 0.72014 0.0
C335 C 0.83374 0.52064 0.71205 0.0
C336 C 0.80744 0.51115 0.78197 0.0
C337 C 0.79059 0.54255 0.80269 0.0
C338 C 0.79294 0.54677 0.84545 0.0
C339 C 0.81303 0.51829 0.86759 0.0
C340 C 0.83065 0.48578 0.84708 0.0
C341 C 0.8278 0.4825 0.80357 0.0
H342 H 0.567 0.11017 1.0092 0.0
H343 H 0.57855 0.03666 0.11845 0.0
H344 H 0.53702 0.98353 0.08747 0.0
H345 H 0.47412 0.08886 0.9965 0.0
H346 H 0.47083 0.08438 0.941 0.0
H347 H 0.50471 0.11762 0.96586 0.0
H348 H 0.55841 0.08093 0.93358 0.0
H349 H 0.52406 0.05435 0.9024 0.0
H350 H 0.55668 0.02528 0.92984 0.0
H351 H 0.5014 0.93507 0.04233 0.0
H352 H 0.46054 0.89953 0.99126 0.0
H353 H 0.46558 1.00612 0.9132 0.0
C354 C 0.56081 0.08267 0.02623 0.0
C355 C 0.57707 0.07624 0.06531 0.0
C356 C 0.56737 0.04104 0.08775 0.0
C357 C 0.54381 1.01085 0.07049 0.0
C358 C 0.52967 0.01682 0.03105 0.0
C359 C 0.53707 0.05211 1.00937 0.0
C360 C 0.51575 0.05178 0.96877 0.0
C361 C 0.48974 0.08771 0.96797 0.0
C362 C 0.54028 0.05321 0.93156 0.0
C363 C 0.49621 1.0102 0.97076 0.0
C364 C 0.50531 0.99046 1.00672 0.0
C365 C 0.49319 0.95055 0.01457 0.0
C366 C 0.47002 0.93068 0.98553 0.0
C367 C 0.45879 0.95096 0.94954 0.0
C368 C 0.4729 0.99069 0.94133 0.0
H369 H 0.97118 0.83913 0.27601 0.0
H370 H 0.96414 0.77086 0.38883 0.0
H371 H 1.00478 0.71859 0.3603 0.0
H372 H 0.97584 0.75367 0.20444 0.0
H373 H 1.00828 0.77897 0.17284 0.0
H374 H 0.97733 0.80914 0.20156 0.0
H375 H 0.03041 0.85075 0.23661 0.0
H376 H 0.06153 0.82069 0.20803 0.0
H377 H 0.06519 0.82373 0.26351 0.0
H378 H 0.04438 0.67173 0.31634 0.0
H379 H 0.08415 0.6396 0.26535 0.0
H380 H 0.06984 0.74358 0.18557 0.0
C381 C 0.97793 0.81295 0.29458 0.0
C382 C 0.96409 0.80856 0.33435 0.0
C383 C 0.97429 0.77455 0.35817 0.0
C384 C 0.99728 0.74474 0.34214 0.0
C385 C 1.01049 0.75001 0.30267 0.0
C386 C 1.00158 0.78375 0.27958 0.0
C387 C 1.02083 0.78389 0.23912 0.0
C388 C 0.99396 0.78125 0.20232 0.0
C389 C 0.04598 0.82202 0.2367 0.0
C390 C 0.04173 0.74471 0.24263 0.0
C391 C 0.03507 0.72512 0.27915 0.0
C392 C 0.05011 0.6872 0.28797 0.0
C393 C 0.07259 0.66911 0.25886 0.0
C394 C 0.08048 0.68942 0.22191 0.0
C395 C 0.06485 0.72773 0.21396 0.0
H396 H 0.33584 0.95018 0.7906 0.0
H397 H 0.3131 0.02025 0.90198 0.0
H398 H 0.27729 0.06801 0.86097 0.0
H399 H 0.34192 0.03777 0.72211 0.0
H400 H 0.32018 1.00992 0.67932 0.0
H401 H 0.346 0.98263 0.7171 0.0
H402 H 0.29099 0.93482 0.73022 0.0
H403 H 0.26508 0.96189 0.69244 0.0
H404 H 0.2493 0.95735 0.74415 0.0
H405 H 0.24131 0.10684 0.80787 0.0
H406 H 0.20689 0.13141 0.74738 0.0
H407 H 0.25316 0.03582 0.67135 0.0
C408 C 0.32371 0.97581 0.80637 0.0
C409 C 0.32753 0.98134 0.84962 0.0
C410 C 0.31069 0.01513 0.86893 0.0
C411 C 0.29032 0.04263 0.84587 0.0
C412 C 0.28689 0.03611 0.8034 0.0
C413 C 0.30307 1.00348 0.78384 0.0
C414 C 0.29376 1.00217 0.73812 0.0
C415 C 0.32748 1.00851 0.71267 0.0
C416 C 0.27358 0.96166 0.72551 0.0
C417 C 0.26955 0.03881 0.73515 0.0
C418 C 0.26608 0.05824 0.77302 0.0
C419 C 0.24405 0.09202 0.77797 0.0
C420 C 0.22464 0.10585 0.7434 0.0
C421 C 0.22725 0.08579 0.70441 0.0
C422 C 0.25053 0.05219 0.7005 0.0
H423 H 0.97211 0.50909 0.90988 0.0
H424 H 0.96566 0.39888 0.98279 0.0
H425 H 1.00819 0.43057 0.03434 0.0
H426 H 0.06513 0.52474 0.92745 0.0
H427 H 0.06734 0.58026 0.93275 0.0
H428 H 0.03298 0.55496 0.9005 0.0
H429 H 0.97961 0.58468 0.93979 0.0
H430 H 1.01405 0.61678 0.96507 0.0
H431 H 0.98329 0.58807 0.99534 0.0
H432 H 0.04531 0.47533 0.08091 0.0
H433 H 0.08507 0.52765 0.11606 0.0
H434 H 0.07332 0.60798 0.01183 0.0
C435 C 0.97963 0.49201 0.93692 0.0
C436 C 0.96467 0.45231 0.94356 0.0
C437 C 0.97595 0.42994 0.97821 0.0
C438 C 1.00011 0.4476 1.0075 0.0
C439 C 1.01324 0.4874 1.00121 0.0
C440 C 1.00395 0.50934 0.96665 0.0
C441 C 0.02417 0.55067 0.96667 0.0
C442 C 0.04895 0.55281 0.92973 0.0
C443 C 0.99867 0.58709 0.96668 0.0
C444 C 0.04514 0.54881 1.00738 0.0
C445 C 0.03799 0.51207 0.02673 0.0
C446 C 0.05189 0.50383 0.06578 0.0
C447 C 0.07442 0.53361 0.08544 0.0
C448 C 0.08324 0.5708 0.06582 0.0
C449 C 0.06776 0.57906 0.02675 0.0
H450 H 0.47251 0.34758 0.27309 0.0
H451 H 0.47298 0.27891 0.38614 0.0
H452 H 0.51422 0.22897 0.35545 0.0
H453 H 0.47807 0.26136 0.20109 0.0
H454 H 0.50823 0.28796 0.16768 0.0
H455 H 0.47719 0.31674 0.19768 0.0
H456 H 0.52983 0.36132 0.22965 0.0
H457 H 0.56106 0.33254 0.19991 0.0
H458 H 0.56659 0.33647 0.25521 0.0
H459 H 0.55353 0.18479 0.31101 0.0
H460 H 0.59199 0.15321 0.25871 0.0
H461 H 0.57147 0.2546 0.17733 0.0
C462 C 0.48101 0.32173 0.29114 0.0
C463 C 0.46913 0.31667 0.3318 0.0
C464 C 0.48156 0.28314 0.35487 0.0
C465 C 0.50496 0.25464 0.33767 0.0
C466 C 0.5164 0.2606 0.29762 0.0
C467 C 0.50521 0.29363 0.27483 0.0
C468 C 0.52303 0.2942 0.23333 0.0
C469 C 0.49495 0.28979 0.19785 0.0
C470 C 0.54652 0.33346 0.2293 0.0
C471 C 0.54568 0.25612 0.23612 0.0
C472 C 0.54107 0.23687 0.27326 0.0
C473 C 0.55769 0.19994 0.28209 0.0
C474 C 0.57948 0.1822 0.25223 0.0
C475 C 0.58519 0.2018 0.21435 0.0
C476 C 0.56822 0.23942 0.20643 0.0
H477 H 0.84634 0.7883 0.43343 0.0
H478 H 0.7704 0.88654 0.423 0.0
H479 H 0.72572 0.84466 0.45908 0.0
H480 H 0.77749 0.69981 0.4242 0.0
H481 H 0.80171 0.67015 0.46151 0.0
H482 H 0.82561 0.70474 0.42861 0.0
H483 H 0.85524 0.74099 0.49322 0.0
H484 H 0.83081 0.70733 0.52639 0.0
H485 H 0.82735 0.76247 0.53227 0.0
H486 H 0.69371 0.79899 0.50617 0.0
H487 H 0.67156 0.74617 0.55318 0.0
H488 H 0.76625 0.67467 0.53234 0.0
C489 C 0.81969 0.79997 0.437 0.0
C490 C 0.8115 0.84034 0.42487 0.0
C491 C 0.77692 0.85546 0.4316 0.0
C492 C 0.75145 0.832 0.45224 0.0
C493 C 0.76086 0.79327 0.46582 0.0
C494 C 0.79376 0.77676 0.45774 0.0
C495 C 0.79764 0.73551 0.47853 0.0
C496 C 0.80079 0.70047 0.44629 0.0
C497 C 0.82966 0.73668 0.50943 0.0
C498 C 0.76235 0.73227 0.50052 0.0
C499 C 0.74169 0.76607 0.49275 0.0
C500 C 0.70926 0.77191 0.51184 0.0
C501 C 0.69711 0.74195 0.53891 0.0
C502 C 0.71713 0.70628 0.54645 0.0
C503 C 0.75023 0.70146 0.52691 0.0
H504 H 0.25975 0.55211 0.17249 0.0
H505 H 0.20513 0.63894 0.25102 0.0
H506 H 0.23983 0.61451 0.31135 0.0
H507 H 0.25699 0.47062 0.23921 0.0
H508 H 0.30023 0.4511 0.22694 0.0
H509 H 0.27525 0.47926 0.18921 0.0
H510 H 0.32853 0.53118 0.18254 0.0
H511 H 0.35402 0.50279 0.21977 0.0
H512 H 0.34742 0.55716 0.22809 0.0
H513 H 0.27548 0.57504 0.36376 0.0
H514 H 0.31195 0.52758 0.40399 0.0
H515 H 0.34261 0.46541 0.29087 0.0
C516 C 0.25556 0.56689 0.20214 0.0
C517 C 0.22966 0.59772 0.20684 0.0
C518 C 0.225 0.6157 0.24642 0.0
C519 C 0.24447 0.60181 0.28091 0.0
C520 C 0.26862 0.57014 0.27525 0.0
C521 C 0.27453 0.5533 0.23672 0.0
C522 C 0.30014 0.51784 0.23905 0.0
C523 C 0.28206 0.47732 0.22264 0.0
C524 C 0.33458 0.52786 0.216 0.0
C525 C 0.30732 0.51673 0.28513 0.0
C526 C 0.28898 0.54726 0.30539 0.0
C527 C 0.29024 0.55138 0.34813 0.0
C528 C 0.31099 0.52394 0.37073 0.0
C529 C 0.33036 0.49249 0.35073 0.0
C530 C 0.32836 0.48905 0.30722 0.0
H531 H 0.78688 0.34959 0.96958 0.0
H532 H 0.83518 0.27062 0.87802 0.0
H533 H 0.79694 0.21201 0.90015 0.0
H534 H 0.78667 0.27899 0.04739 0.0
H535 H 0.74486 0.29432 0.06862 0.0
H536 H 0.77177 0.331 0.04151 0.0
H537 H 0.71825 0.34463 0.99165 0.0
H538 H 0.69094 0.30826 0.01889 0.0
H539 H 0.69607 0.30193 0.96408 0.0
H540 H 0.75817 0.16054 0.93819 0.0
H541 H 0.72167 0.12121 0.98657 0.0
H542 H 0.70003 0.23461 0.05394 0.0
C543 C 0.78902 0.32028 0.95333 0.0
C544 C 0.8141 0.31488 0.92181 0.0
C545 C 0.81599 0.27575 0.90187 0.0
C546 C 0.79444 0.24225 0.91438 0.0
C547 C 0.771 0.2485 0.94664 0.0
C548 C 0.768 0.28673 0.96552 0.0
C549 C 0.74301 0.28506 1.00146 0.0
C550 C 0.76277 0.2981 0.04213 0.0
C551 C 0.71011 0.31154 0.99353 0.0
C552 C 0.73286 0.23959 1.00063 0.0
C553 C 0.74903 0.21905 0.9686 0.0
C554 C 0.74509 0.17647 0.96299 0.0
C555 C 0.72434 0.15437 0.99086 0.0
C556 C 0.70776 0.17473 0.02422 0.0
C557 C 0.71191 0.21806 0.02865 0.0
H558 H 0.78969 1.00294 0.35426 0.0
H559 H 0.88428 0.98943 0.28124 0.0
H560 H 0.85909 0.03629 0.22956 0.0
H561 H 0.72838 0.99904 0.26814 0.0
H562 H 0.69804 0.03502 0.29042 0.0
H563 H 0.72535 1.00405 0.32336 0.0
H564 H 0.75042 0.07067 0.36069 0.0
H565 H 0.7237 0.10182 0.32706 0.0
H566 H 0.77152 0.11049 0.33119 0.0
H567 H 0.82313 0.08154 0.18465 0.0
H568 H 0.77477 0.11258 0.14348 0.0
H569 H 0.70191 0.09525 0.24342 0.0
C570 C 0.80514 1.01018 0.3275 0.0
C571 C 0.83902 0.99282 0.32174 0.0
C572 C 0.85822 1.00228 0.28606 0.0
C573 C 0.84431 0.02923 0.25684 0.0
C574 C 0.81098 0.04614 0.26354 0.0
C575 C 0.79127 0.03636 0.29753 0.0
C576 C 0.75452 0.05516 0.29502 0.0
C577 C 0.72483 0.0213 0.29417 0.0
C578 C 0.74978 0.08639 0.33062 0.0
C579 C 0.75646 0.0766 0.25402 0.0
C580 C 0.78964 0.07171 0.23692 0.0
C581 C 0.79726 0.0861 0.19795 0.0
C582 C 0.76977 0.10405 0.17494 0.0
C583 C 0.73508 0.10738 0.19085 0.0
C584 C 0.72864 0.0947 0.23138 0.0
H585 H 0.96726 0.95022 0.48357 0.0
H586 H 0.96416 0.02222 0.37279 0.0
H587 H 1.01009 0.07074 0.40363 0.0
H588 H 0.98856 0.0373 0.56102 0.0
H589 H 1.01734 1.00418 0.58961 0.0
H590 H 0.9795 0.98203 0.56086 0.0
H591 H 1.02331 0.93387 0.52639 0.0
H592 H 0.0617 0.95946 0.551 0.0
H593 H 0.05784 0.95512 0.49521 0.0
H594 H 0.05544 0.11156 0.4466 0.0
H595 H 0.09952 0.14093 0.49819 0.0
H596 H 0.07924 0.03769 0.57745 0.0
C597 C 0.97545 0.97707 0.46658 0.0
C598 C 0.96161 0.98344 0.42639 0.0
C599 C 0.97411 0.01752 0.40396 0.0
C600 C 1.0001 0.04514 0.42121 0.0
C601 C 1.01389 0.0376 0.46056 0.0
C602 C 1.0019 1.00459 0.48315 0.0
C603 C 0.02387 1.00119 0.52288 0.0
C604 C 1.00079 1.00651 0.56082 0.0
C605 C 0.04295 0.95996 0.52393 0.0
C606 C 0.04985 0.03754 0.5192 0.0
C607 C 0.04316 0.05847 0.48326 0.0
C608 C 0.06131 0.09518 0.47456 0.0
C609 C 0.08624 0.1116 0.50392 0.0
C610 C 0.0934 0.09082 0.54093 0.0
C611 C 0.07523 0.05316 0.54852 0.0
H612 H 0.97387 0.33941 0.76957 0.0
H613 H 0.95419 0.25688 0.87012 0.0
H614 H 0.99512 0.20644 0.83968 0.0
H615 H 0.98319 0.26208 0.68805 0.0
H616 H 1.01944 0.28959 0.66433 0.0
H617 H 0.98652 0.31758 0.6923 0.0
H618 H 0.03699 0.35222 0.73833 0.0
H619 H 0.07003 0.32415 0.71067 0.0
H620 H 0.06796 0.32041 0.76588 0.0
H621 H 0.03698 0.16403 0.79678 0.0
H622 H 0.08058 0.13558 0.74833 0.0
H623 H 0.07855 0.24884 0.67999 0.0
C624 C 0.9778 0.3104 0.78474 0.0
C625 C 0.96037 0.30159 0.8218 0.0
C626 C 0.96702 0.26396 0.84151 0.0
C627 C 0.9902 0.23517 0.82443 0.0
C628 C 1.00728 0.24488 0.78806 0.0
C629 C 1.00174 0.28183 0.76872 0.0
C630 C 0.02521 0.28583 0.73146 0.0
C631 C 1.00221 0.28895 0.69168 0.0
C632 C 0.05161 0.32285 0.73693 0.0
C633 C 0.04458 0.24527 0.73267 0.0
C634 C 0.03343 0.22183 0.76521 0.0
C635 C 0.04621 0.18235 0.77152 0.0
C636 C 0.07095 0.16643 0.74388 0.0
C637 C 0.08336 0.19024 0.7109 0.0
C638 C 0.0701 0.23029 0.70549 0.0
H639 H 0.57436 0.74598 0.68641 0.0
H640 H 0.57979 0.6331 0.75499 0.0
H641 H 0.5353 0.66016 0.8035 0.0
H642 H 0.56363 0.81675 0.77066 0.0
H643 H 0.53196 0.84785 0.74335 0.0
H644 H 0.56481 0.81988 0.71533 0.0
H645 H 0.51426 0.784 0.67031 0.0
H646 H 0.48123 0.81181 0.69826 0.0
H647 H 0.47856 0.75626 0.69484 0.0
H648 H 0.49311 0.7028 0.84728 0.0
H649 H 0.45235 0.75339 0.87801 0.0
H650 H 0.46967 0.83449 0.77576 0.0
C651 C 0.56632 0.72705 0.71181 0.0
C652 C 0.58086 0.68771 0.71746 0.0
C653 C 0.56908 0.66341 0.75037 0.0
C654 C 0.54389 0.67859 0.77802 0.0
C655 C 0.5301 0.71765 0.77161 0.0
C656 C 0.54049 0.74119 0.73882 0.0
C657 C 0.52062 0.78133 0.73751 0.0
C658 C 0.54682 0.81865 0.74199 0.0
C659 C 0.49728 0.78345 0.69788 0.0
C660 C 0.49782 0.77721 0.77514 0.0
C661 C 0.50396 0.74052 0.79475 0.0
C662 C 0.48768 0.73123 0.83172 0.0
C663 C 0.46462 0.76012 0.84898 0.0
C664 C 0.4574 0.79739 0.82884 0.0
C665 C 0.47404 0.80576 0.79128 0.0
H666 H 0.25789 0.65594 0.03626 0.0
H667 H 0.15675 0.71844 0.03117 0.0
H668 H 0.1813 0.76707 0.98115 0.0
H669 H 0.31134 0.74742 0.03676 0.0
H670 H 0.34646 0.72602 1.00667 0.0
H671 H 0.31942 0.69287 0.03762 0.0
H672 H 0.30302 0.64737 0.97277 0.0
H673 H 0.32961 0.68098 0.94153 0.0
H674 H 0.28307 0.67063 0.92804 0.0
H675 H 0.21736 0.8121 0.93679 0.0
H676 H 0.26498 0.85597 0.90777 0.0
H677 H 0.34388 0.76663 0.94197 0.0
C678 C 0.24086 0.67952 0.02404 0.0
C679 C 0.20536 0.68336 0.03732 0.0
C680 C 0.18405 0.7151 0.02147 0.0
C681 C 0.19763 0.74258 0.99272 0.0
C682 C 0.23273 0.73817 0.9803 0.0
C683 C 0.2543 0.70786 0.99585 0.0
C684 C 0.29231 0.71304 0.98104 0.0
C685 C 0.31894 0.72028 0.0177 0.0
C686 C 0.3026 0.67578 0.95425 0.0
C687 C 0.28884 0.75144 0.95546 0.0
C688 C 0.254 0.76484 0.95481 0.0
C689 C 0.24457 0.80151 0.93631 0.0
C690 C 0.27167 0.82608 0.91961 0.0
C691 C 0.30768 0.81384 0.92141 0.0
C692 C 0.31625 0.77557 0.93852 0.0
H693 H 0.47953 0.44787 0.48722 0.0
H694 H 0.45919 0.52946 0.38583 0.0
H695 H 0.50478 0.57938 0.41499 0.0
H696 H 0.50221 0.52793 0.57002 0.0
H697 H 0.53612 0.49563 0.59089 0.0
H698 H 0.49767 0.4722 0.56435 0.0
H699 H 0.54189 0.43393 0.51829 0.0
H700 H 0.57936 0.46107 0.54311 0.0
H701 H 0.57226 0.46335 0.48772 0.0
H702 H 0.55104 0.62075 0.4557 0.0
H703 H 0.59572 0.65141 0.50578 0.0
H704 H 0.59139 0.53994 0.57674 0.0
C705 C 0.484 0.4769 0.47205 0.0
C706 C 0.46532 0.48567 0.43503 0.0
C707 C 0.47291 0.52283 0.41468 0.0
C708 C 0.49874 0.55119 0.43094 0.0
C709 C 0.51737 0.54134 0.46699 0.0
C710 C 0.51026 0.50526 0.48752 0.0
C711 C 0.53621 0.50078 0.52381 0.0
C712 C 0.51674 0.49902 0.56468 0.0
C713 C 0.5589 0.46253 0.51782 0.0
C714 C 0.55831 0.54049 0.52114 0.0
C715 C 0.54682 0.56343 0.48814 0.0
C716 C 0.56067 0.60289 0.48128 0.0
C717 C 0.58599 0.62002 0.50977 0.0
C718 C 0.59758 0.59748 0.5442 0.0
C719 C 0.584 0.55701 0.54963 0.0
loop_
_geom_bond_atom_site_label_1
_geom_bond_atom_site_label_2
_geom_bond_distance
_geom_bond_site_symmetry_2
_ccdc_geom_bond_type
Mn0 O5 2.095 . S
Mn0 O15 2.162 . S
Mn0 O16 2.297 . S
Mn0 O24 2.385 . S
Mn0 O25 2.209 . S
Mn0 O26 2.094 . S
Mn1 O6 2.121 . S
Mn1 N8 2.257 1_545 S
Mn1 N17 2.282 . S
Mn1 O25 2.215 . S
Mn1 O27 2.117 . S
C2 O24 1.234 . S
C2 O25 1.283 . S
C3 O15 1.281 . S
C3 O16 1.236 . S
C4 O26 1.240 . S
C4 O27 1.264 . S
O5 Mn0 2.095 . S
O5 C14 1.250 . S
O6 Mn1 2.121 . S
O6 C14 1.258 . S
C7 N8 1.326 . S
C7 C11 1.460 . S
C7 H13 0.929 . S
N8 Mn1 2.257 1_565 S
N8 C7 1.326 . S
N8 C12 1.362 . S
C9 C10 1.258 . S
C9 C12 1.431 . S
C9 C29 1.449 . S
C10 C9 1.258 . S
C10 C11 1.477 . S
C10 H30 0.931 . S
C11 C7 1.460 . S
C11 C10 1.477 . S
C11 H31 0.930 . S
C12 N8 1.362 . S
C12 C9 1.431 . S
C12 C22 1.476 1_565 S
H13 C7 0.929 . S
C14 O5 1.250 . S
C14 O6 1.258 . S
O15 Mn0 2.162 . S
O15 C3 1.281 . S
O16 Mn0 2.297 . S
O16 C3 1.236 . S
N17 Mn1 2.282 . S
N17 C18 1.328 . S
N17 C22 1.318 . S
C18 N17 1.328 . S
C18 C19 1.457 . S
C18 H23 0.929 . S
C19 C18 1.457 . S
C19 C20 1.291 . S
C19 H32 0.931 . S
C20 C19 1.291 . S
C20 C21 1.373 . S
C20 H33 0.929 . S
C21 C20 1.373 . S
C21 C22 1.396 . S
C21 C28 1.403 1_545 S
C22 C12 1.476 1_545 S
C22 N17 1.318 . S
C22 C21 1.396 . S
H23 C18 0.929 . S
O24 Mn0 2.385 . S
O24 C2 1.234 . S
O25 Mn0 2.209 . S
O25 Mn1 2.215 . S
O25 C2 1.283 . S
O26 Mn0 2.094 . S
O26 C4 1.240 . S
O27 Mn1 2.117 . S
O27 C4 1.264 . S
C28 C21 1.403 1_565 S
C28 C29 1.399 . S
C28 H34 0.929 . S
C29 C9 1.449 . S
C29 C28 1.399 . S
C29 H35 0.930 . S
H30 C10 0.931 . S
H31 C11 0.930 . S
H32 C19 0.931 . S
H33 C20 0.929 . S
H34 C28 0.929 . S
H35 C29 0.930 . S
Mn36 O41 2.095 . S
Mn36 O51 2.162 . S
Mn36 O52 2.297 . S
Mn36 O60 2.385 . S
Mn36 O61 2.209 . S
Mn36 O62 2.094 . S
Mn37 O42 2.121 . S
Mn37 N44 2.257 1_556 S
Mn37 N53 2.282 . S
Mn37 O61 2.215 . S
Mn37 O63 2.117 . S
C38 O60 1.234 . S
C38 O61 1.283 . S
C39 O51 1.281 . S
C39 O52 1.236 . S
C40 O62 1.240 . S
C40 O63 1.264 . S
O41 Mn36 2.095 . S
O41 C50 1.250 . S
O42 Mn37 2.121 . S
O42 C50 1.258 . S
C43 N44 1.326 . S
C43 C47 1.460 . S
C43 H49 0.929 . S
N44 Mn37 2.257 1_554 S
N44 C43 1.326 . S
N44 C48 1.362 . S
C45 C46 1.258 . S
C45 C48 1.431 . S
C45 C65 1.449 . S
C46 C45 1.258 . S
C46 C47 1.477 . S
C46 H66 0.931 . S
C47 C43 1.460 . S
C47 C46 1.477 . S
C47 H67 0.930 . S
C48 N44 1.362 . S
C48 C45 1.431 . S
C48 C58 1.476 1_554 S
H49 C43 0.929 . S
C50 O41 1.250 . S
C50 O42 1.258 . S
O51 Mn36 2.162 . S
O51 C39 1.281 . S
O52 Mn36 2.297 . S
O52 C39 1.236 . S
N53 Mn37 2.282 . S
N53 C54 1.328 . S
N53 C58 1.318 . S
C54 N53 1.328 . S
C54 C55 1.457 . S
C54 H59 0.929 . S
C55 C54 1.457 . S
C55 C56 1.291 . S
C55 H68 0.931 . S
C56 C55 1.291 . S
C56 C57 1.373 . S
C56 H69 0.929 . S
C57 C56 1.373 . S
C57 C58 1.396 . S
C57 C64 1.403 1_556 S
C58 C48 1.476 1_556 S
C58 N53 1.318 . S
C58 C57 1.396 . S
H59 C54 0.929 . S
O60 Mn36 2.385 . S
O60 C38 1.234 . S
O61 Mn36 2.209 . S
O61 Mn37 2.215 . S
O61 C38 1.283 . S
O62 Mn36 2.094 . S
O62 C40 1.240 . S
O63 Mn37 2.117 . S
O63 C40 1.264 . S
C64 C57 1.403 1_554 S
C64 C65 1.399 . S
C64 H70 0.929 . S
C65 C45 1.449 . S
C65 C64 1.399 . S
C65 H71 0.930 . S
H66 C46 0.931 . S
H67 C47 0.930 . S
H68 C55 0.931 . S
H69 C56 0.929 . S
H70 C64 0.929 . S
H71 C65 0.930 . S
Mn72 O77 2.095 . S
Mn72 O87 2.162 . S
Mn72 O88 2.297 . S
Mn72 O96 2.385 . S
Mn72 O97 2.209 . S
Mn72 O98 2.094 . S
Mn73 O78 2.121 . S
Mn73 N80 2.257 1_545 S
Mn73 N89 2.282 . S
Mn73 O97 2.215 . S
Mn73 O99 2.117 . S
C74 O96 1.234 . S
C74 O97 1.283 . S
C75 O87 1.281 . S
C75 O88 1.236 . S
C76 O98 1.240 . S
C76 O99 1.264 . S
O77 Mn72 2.095 . S
O77 C86 1.250 . S
O78 Mn73 2.121 . S
O78 C86 1.258 . S
C79 N80 1.326 . S
C79 C83 1.460 . S
C79 H85 0.929 . S
N80 Mn73 2.257 1_565 S
N80 C79 1.326 . S
N80 C84 1.362 . S
C81 C82 1.258 . S
C81 C84 1.431 . S
C81 C101 1.449 1_554 S
C82 C81 1.258 . S
C82 C83 1.477 . S
C82 H102 0.931 . S
C83 C79 1.460 . S
C83 C82 1.477 . S
C83 H103 0.930 . S
C84 N80 1.362 . S
C84 C81 1.431 . S
C84 C94 1.476 1_565 S
H85 C79 0.929 . S
C86 O77 1.250 . S
C86 O78 1.258 . S
O87 Mn72 2.162 . S
O87 C75 1.281 . S
O88 Mn72 2.297 . S
O88 C75 1.236 . S
N89 Mn73 2.282 . S
N89 C90 1.328 1_554 S
N89 C94 1.318 . S
C90 N89 1.328 1_556 S
C90 C91 1.457 . S
C90 H95 0.929 . S
C91 C90 1.457 . S
C91 C92 1.291 . S
C91 H104 0.931 . S
C92 C91 1.291 . S
C92 C93 1.373 . S
C92 H105 0.929 . S
C93 C92 1.373 . S
C93 C94 1.396 1_556 S
C93 C100 1.403 1_545 S
C94 C84 1.476 1_545 S
C94 N89 1.318 . S
C94 C93 1.396 1_554 S
H95 C90 0.929 . S
O96 Mn72 2.385 . S
O96 C74 1.234 . S
O97 Mn72 2.209 . S
O97 Mn73 2.215 . S
O97 C74 1.283 . S
O98 Mn72 2.094 . S
O98 C76 1.240 . S
O99 Mn73 2.117 . S
O99 C76 1.264 . S
C100 C93 1.403 1_565 S
C100 C101 1.399 . S
C100 H106 0.929 . S
C101 C81 1.449 1_556 S
C101 C100 1.399 . S
C101 H107 0.930 . S
H102 C82 0.931 . S
H103 C83 0.930 . S
H104 C91 0.931 . S
H105 C92 0.929 . S
H106 C100 0.929 . S
H107 C101 0.930 . S
Mn108 O113 2.095 . S
Mn108 O123 2.162 . S
Mn108 O124 2.297 . S
Mn108 O132 2.385 . S
Mn108 O133 2.209 . S
Mn108 O134 2.094 . S
Mn109 O114 2.121 . S
Mn109 N116 2.257 . S
Mn109 N125 2.282 . S
Mn109 O133 2.215 . S
Mn109 O135 2.117 . S
C110 O132 1.234 . S
C110 O133 1.283 . S
C111 O123 1.281 . S
C111 O124 1.236 . S
C112 O134 1.240 . S
C112 O135 1.264 . S
O113 Mn108 2.095 . S
O113 C122 1.250 . S
O114 Mn109 2.121 . S
O114 C122 1.258 . S
C115 N116 1.326 . S
C115 C119 1.460 . S
C115 H121 0.929 . S
N116 Mn109 2.257 . S
N116 C115 1.326 . S
N116 C120 1.362 . S
C117 C118 1.258 . S
C117 C120 1.431 . S
C117 C137 1.449 1_565 S
C118 C117 1.258 . S
C118 C119 1.477 . S
C118 H138 0.931 . S
C119 C115 1.460 . S
C119 C118 1.477 . S
C119 H139 0.930 . S
C120 N116 1.362 . S
C120 C117 1.431 . S
C120 C130 1.476 . S
H121 C115 0.929 . S
C122 O113 1.250 . S
C122 O114 1.258 . S
O123 Mn108 2.162 . S
O123 C111 1.281 . S
O124 Mn108 2.297 . S
O124 C111 1.236 . S
N125 Mn109 2.282 . S
N125 C126 1.328 1_565 S
N125 C130 1.318 . S
C126 N125 1.328 1_545 S
C126 C127 1.457 . S
C126 H131 0.929 . S
C127 C126 1.457 . S
C127 C128 1.291 . S
C127 H140 0.931 . S
C128 C127 1.291 . S
C128 C129 1.373 . S
C128 H141 0.929 . S
C129 C128 1.373 . S
C129 C130 1.396 1_545 S
C129 C136 1.403 . S
C130 C120 1.476 . S
C130 N125 1.318 . S
C130 C129 1.396 1_565 S
H131 C126 0.929 . S
O132 Mn108 2.385 . S
O132 C110 1.234 . S
O133 Mn108 2.209 . S
O133 Mn109 2.215 . S
O133 C110 1.283 . S
O134 Mn108 2.094 . S
O134 C112 1.240 . S
O135 Mn109 2.117 . S
O135 C112 1.264 . S
C136 C129 1.403 . S
C136 C137 1.399 . S
C136 H142 0.929 . S
C137 C117 1.449 1_545 S
C137 C136 1.399 . S
C137 H143 0.930 . S
H138 C118 0.931 . S
H139 C119 0.930 . S
H140 C127 0.931 . S
H141 C128 0.929 . S
H142 C136 0.929 . S
H143 C137 0.930 . S
Mn144 O149 2.095 . S
Mn144 O159 2.162 . S
Mn144 O160 2.297 . S
Mn144 O168 2.385 . S
Mn144 O169 2.209 . S
Mn144 O170 2.094 . S
Mn145 O150 2.121 . S
Mn145 N152 2.257 . S
Mn145 N161 2.282 . S
Mn145 O169 2.215 . S
Mn145 O171 2.117 . S
C146 O168 1.234 . S
C146 O169 1.283 . S
C147 O159 1.281 . S
C147 O160 1.236 . S
C148 O170 1.240 . S
C148 O171 1.264 . S
O149 Mn144 2.095 . S
O149 C158 1.250 . S
O150 Mn145 2.121 . S
O150 C158 1.258 . S
C151 N152 1.326 . S
C151 C155 1.460 . S
C151 H157 0.929 . S
N152 Mn145 2.257 . S
N152 C151 1.326 . S
N152 C156 1.362 . S
C153 C154 1.258 . S
C153 C156 1.431 . S
C153 C173 1.449 1_554 S
C154 C153 1.258 . S
C154 C155 1.477 . S
C154 H174 0.931 . S
C155 C151 1.460 . S
C155 C154 1.477 . S
C155 H175 0.930 . S
C156 N152 1.362 . S
C156 C153 1.431 . S
C156 C166 1.476 . S
H157 C151 0.929 . S
C158 O149 1.250 . S
C158 O150 1.258 . S
O159 Mn144 2.162 . S
O159 C147 1.281 . S
O160 Mn144 2.297 . S
O160 C147 1.236 . S
N161 Mn145 2.282 . S
N161 C162 1.328 1_554 S
N161 C166 1.318 . S
C162 N161 1.328 1_556 S
C162 C163 1.457 . S
C162 H167 0.929 . S
C163 C162 1.457 . S
C163 C164 1.291 . S
C163 H176 0.931 . S
C164 C163 1.291 . S
C164 C165 1.373 . S
C164 H177 0.929 . S
C165 C164 1.373 . S
C165 C166 1.396 1_556 S
C165 C172 1.403 . S
C166 C156 1.476 . S
C166 N161 1.318 . S
C166 C165 1.396 1_554 S
H167 C162 0.929 . S
O168 Mn144 2.385 . S
O168 C146 1.234 . S
O169 Mn144 2.209 . S
O169 Mn145 2.215 . S
O169 C146 1.283 . S
O170 Mn144 2.094 . S
O170 C148 1.240 . S
O171 Mn145 2.117 . S
O171 C148 1.264 . S
C172 C165 1.403 . S
C172 C173 1.399 . S
C172 H178 0.929 . S
C173 C153 1.449 1_556 S
C173 C172 1.399 . S
C173 H179 0.930 . S
H174 C154 0.931 . S
H175 C155 0.930 . S
H176 C163 0.931 . S
H177 C164 0.929 . S
H178 C172 0.929 . S
H179 C173 0.930 . S
Mn180 O185 2.095 . S
Mn180 O195 2.162 . S
Mn180 O196 2.297 . S
Mn180 O204 2.385 . S
Mn180 O205 2.209 . S
Mn180 O206 2.094 . S
Mn181 O186 2.121 . S
Mn181 N188 2.257 . S
Mn181 N197 2.282 . S
Mn181 O205 2.215 . S
Mn181 O207 2.117 . S
C182 O204 1.234 . S
C182 O205 1.283 . S
C183 O195 1.281 . S
C183 O196 1.236 . S
C184 O206 1.240 . S
C184 O207 1.264 . S
O185 Mn180 2.095 . S
O185 C194 1.250 . S
O186 Mn181 2.121 . S
O186 C194 1.258 . S
C187 N188 1.326 . S
C187 C191 1.460 . S
C187 H193 0.929 . S
N188 Mn181 2.257 . S
N188 C187 1.326 . S
N188 C192 1.362 . S
C189 C190 1.258 . S
C189 C192 1.431 . S
C189 C209 1.449 . S
C190 C189 1.258 . S
C190 C191 1.477 . S
C190 H210 0.931 . S
C191 C187 1.460 . S
C191 C190 1.477 . S
C191 H211 0.930 . S
C192 N188 1.362 . S
C192 C189 1.431 . S
C192 C202 1.476 . S
H193 C187 0.929 . S
C194 O185 1.250 . S
C194 O186 1.258 . S
O195 Mn180 2.162 . S
O195 C183 1.281 . S
O196 Mn180 2.297 . S
O196 C183 1.236 . S
N197 Mn181 2.282 . S
N197 C198 1.328 . S
N197 C202 1.318 . S
C198 N197 1.328 . S
C198 C199 1.457 . S
C198 H203 0.929 . S
C199 C198 1.457 . S
C199 C200 1.291 . S
C199 H212 0.931 . S
C200 C199 1.291 . S
C200 C201 1.373 . S
C200 H213 0.929 . S
C201 C200 1.373 . S
C201 C202 1.396 . S
C201 C208 1.403 . S
C202 C192 1.476 . S
C202 N197 1.318 . S
C202 C201 1.396 . S
H203 C198 0.929 . S
O204 Mn180 2.385 . S
O204 C182 1.234 . S
O205 Mn180 2.209 . S
O205 Mn181 2.215 . S
O205 C182 1.283 . S
O206 Mn180 2.094 . S
O206 C184 1.240 . S
O207 Mn181 2.117 . S
O207 C184 1.264 . S
C208 C201 1.403 . S
C208 C209 1.399 . S
C208 H214 0.929 . S
C209 C189 1.449 . S
C209 C208 1.399 . S
C209 H215 0.930 . S
H210 C190 0.931 . S
H211 C191 0.930 . S
H212 C199 0.931 . S
H213 C200 0.929 . S
H214 C208 0.929 . S
H215 C209 0.930 . S
Mn216 O221 2.095 . S
Mn216 O231 2.162 . S
Mn216 O232 2.297 . S
Mn216 O240 2.385 . S
Mn216 O241 2.209 . S
Mn216 O242 2.094 . S
Mn217 O222 2.121 . S
Mn217 N224 2.257 1_556 S
Mn217 N233 2.282 . S
Mn217 O241 2.215 . S
Mn217 O243 2.117 . S
C218 O240 1.234 . S
C218 O241 1.283 . S
C219 O231 1.281 . S
C219 O232 1.236 . S
C220 O242 1.240 . S
C220 O243 1.264 . S
O221 Mn216 2.095 . S
O221 C230 1.250 . S
O222 Mn217 2.121 . S
O222 C230 1.258 . S
C223 N224 1.326 . S
C223 C227 1.460 . S
C223 H229 0.929 . S
N224 Mn217 2.257 1_554 S
N224 C223 1.326 . S
N224 C228 1.362 . S
C225 C226 1.258 . S
C225 C228 1.431 . S
C225 C245 1.449 1_565 S
C226 C225 1.258 . S
C226 C227 1.477 . S
C226 H246 0.931 . S
C227 C223 1.460 . S
C227 C226 1.477 . S
C227 H247 0.930 . S
C228 N224 1.362 . S
C228 C225 1.431 . S
C228 C238 1.476 1_554 S
H229 C223 0.929 . S
C230 O221 1.250 . S
C230 O222 1.258 . S
O231 Mn216 2.162 . S
O231 C219 1.281 . S
O232 Mn216 2.297 . S
O232 C219 1.236 . S
N233 Mn217 2.282 . S
N233 C234 1.328 1_565 S
N233 C238 1.318 . S
C234 N233 1.328 1_545 S
C234 C235 1.457 . S
C234 H239 0.929 . S
C235 C234 1.457 . S
C235 C236 1.291 . S
C235 H248 0.931 . S
C236 C235 1.291 . S
C236 C237 1.373 . S
C236 H249 0.929 . S
C237 C236 1.373 . S
C237 C238 1.396 1_545 S
C237 C244 1.403 1_556 S
C238 C228 1.476 1_556 S
C238 N233 1.318 . S
C238 C237 1.396 1_565 S
H239 C234 0.929 . S
O240 Mn216 2.385 . S
O240 C218 1.234 . S
O241 Mn216 2.209 . S
O241 Mn217 2.215 . S
O241 C218 1.283 . S
O242 Mn216 2.094 . S
O242 C220 1.240 . S
O243 Mn217 2.117 . S
O243 C220 1.264 . S
C244 C237 1.403 1_554 S
C244 C245 1.399 . S
C244 H250 0.929 . S
C245 C225 1.449 1_545 S
C245 C244 1.399 . S
C245 H251 0.930 . S
H246 C226 0.931 . S
H247 C227 0.930 . S
H248 C235 0.931 . S
H249 C236 0.929 . S
H250 C244 0.929 . S
H251 C245 0.930 . S
Mn252 O257 2.095 . S
Mn252 O267 2.162 . S
Mn252 O268 2.297 . S
Mn252 O276 2.385 . S
Mn252 O277 2.209 . S
Mn252 O278 2.094 . S
Mn253 O258 2.121 . S
Mn253 N260 2.257 . S
Mn253 N269 2.282 . S
Mn253 O277 2.215 . S
Mn253 O279 2.117 . S
C254 O276 1.234 . S
C254 O277 1.283 . S
C255 O267 1.281 . S
C255 O268 1.236 . S
C256 O278 1.240 . S
C256 O279 1.264 . S
O257 Mn252 2.095 . S
O257 C266 1.250 . S
O258 Mn253 2.121 . S
O258 C266 1.258 . S
C259 N260 1.326 . S
C259 C263 1.460 . S
C259 H265 0.929 . S
N260 Mn253 2.257 . S
N260 C259 1.326 . S
N260 C264 1.362 . S
C261 C262 1.258 . S
C261 C264 1.431 . S
C261 C281 1.449 . S
C262 C261 1.258 . S
C262 C263 1.477 . S
C262 H282 0.931 . S
C263 C259 1.460 . S
C263 C262 1.477 . S
C263 H283 0.930 . S
C264 N260 1.362 . S
C264 C261 1.431 . S
C264 C274 1.476 . S
H265 C259 0.929 . S
C266 O257 1.250 . S
C266 O258 1.258 . S
O267 Mn252 2.162 . S
O267 C255 1.281 . S
O268 Mn252 2.297 . S
O268 C255 1.236 . S
N269 Mn253 2.282 . S
N269 C270 1.328 . S
N269 C274 1.318 . S
C270 N269 1.328 . S
C270 C271 1.457 . S
C270 H275 0.929 . S
C271 C270 1.457 . S
C271 C272 1.291 . S
C271 H284 0.931 . S
C272 C271 1.291 . S
C272 C273 1.373 . S
C272 H285 0.929 . S
C273 C272 1.373 . S
C273 C274 1.396 . S
C273 C280 1.403 . S
C274 C264 1.476 . S
C274 N269 1.318 . S
C274 C273 1.396 . S
H275 C270 0.929 . S
O276 Mn252 2.385 . S
O276 C254 1.234 . S
O277 Mn252 2.209 . S
O277 Mn253 2.215 . S
O277 C254 1.283 . S
O278 Mn252 2.094 . S
O278 C256 1.240 . S
O279 Mn253 2.117 . S
O279 C256 1.264 . S
C280 C273 1.403 . S
C280 C281 1.399 . S
C280 H286 0.929 . S
C281 C261 1.449 . S
C281 C280 1.399 . S
C281 H287 0.930 . S
H282 C262 0.931 . S
H283 C263 0.930 . S
H284 C271 0.931 . S
H285 C272 0.929 . S
H286 C280 0.929 . S
H287 C281 0.930 . S
H288 C300 0.930 . S
H289 C302 0.930 . S
H290 C303 0.930 . S
H291 C307 0.959 . S
H292 C307 0.959 . S
H293 C307 0.961 . S
H294 C308 0.960 . S
H295 C308 0.961 . S
H296 C308 0.959 . S
H297 C311 0.929 . S
H298 C312 0.931 . S
H299 C314 0.930 . S
C300 H288 0.930 . S
C300 C301 1.399 . S
C300 C305 1.399 . S
C301 C300 1.399 . S
C301 C302 1.376 . S
C302 H289 0.930 . S
C302 C301 1.376 . S
C302 C303 1.388 . S
C303 H290 0.930 . S
C303 C302 1.388 . S
C303 C304 1.390 . S
C304 C303 1.390 . S
C304 C305 1.394 . S
C304 C310 1.465 . S
C305 C300 1.399 . S
C305 C304 1.394 . S
C305 C306 1.516 . S
C306 C305 1.516 . S
C306 C307 1.502 . S
C306 C308 1.561 . S
C306 C309 1.526 . S
C307 H291 0.959 . S
C307 H292 0.959 . S
C307 H293 0.961 . S
C307 C306 1.502 . S
C308 H294 0.960 . S
C308 H295 0.961 . S
C308 H296 0.959 . S
C308 C306 1.561 . S
C309 C306 1.526 . S
C309 C310 1.396 . S
C309 C314 1.390 . S
C310 C304 1.465 . S
C310 C309 1.396 . S
C310 C311 1.399 . S
C311 H297 0.929 . S
C311 C310 1.399 . S
C311 C312 1.385 . S
C312 H298 0.931 . S
C312 C311 1.385 . S
C312 C313 1.389 . S
C313 C312 1.389 . S
C313 C314 1.387 . S
C314 H299 0.930 . S
C314 C309 1.390 . S
C314 C313 1.387 . S
H315 C327 0.930 . S
H316 C329 0.930 . S
H317 C330 0.930 . S
H318 C334 0.959 . S
H319 C334 0.959 . S
H320 C334 0.961 . S
H321 C335 0.960 . S
H322 C335 0.961 . S
H323 C335 0.959 . S
H324 C338 0.929 . S
H325 C339 0.931 . S
H326 C341 0.930 . S
C327 H315 0.930 . S
C327 C328 1.399 . S
C327 C332 1.399 . S
C328 C327 1.399 . S
C328 C329 1.376 . S
C329 H316 0.930 . S
C329 C328 1.376 . S
C329 C330 1.388 . S
C330 H317 0.930 . S
C330 C329 1.388 . S
C330 C331 1.390 . S
C331 C330 1.390 . S
C331 C332 1.394 . S
C331 C337 1.465 . S
C332 C327 1.399 . S
C332 C331 1.394 . S
C332 C333 1.516 . S
C333 C332 1.516 . S
C333 C334 1.502 . S
C333 C335 1.561 . S
C333 C336 1.526 . S
C334 H318 0.959 . S
C334 H319 0.959 . S
C334 H320 0.961 . S
C334 C333 1.502 . S
C335 H321 0.960 . S
C335 H322 0.961 . S
C335 H323 0.959 . S
C335 C333 1.561 . S
C336 C333 1.526 . S
C336 C337 1.396 . S
C336 C341 1.390 . S
C337 C331 1.465 . S
C337 C336 1.396 . S
C337 C338 1.399 . S
C338 H324 0.929 . S
C338 C337 1.399 . S
C338 C339 1.385 . S
C339 H325 0.931 . S
C339 C338 1.385 . S
C339 C340 1.389 . S
C340 C339 1.389 . S
C340 C341 1.387 . S
C341 H326 0.930 . S
C341 C336 1.390 . S
C341 C340 1.387 . S
H342 C354 0.930 . S
H343 C356 0.930 . S
H344 C357 0.930 . S
H345 C361 0.959 . S
H346 C361 0.968 . S
H347 C361 0.961 . S
H348 C362 0.960 . S
H349 C362 0.961 . S
H350 C362 0.959 . S
H351 C365 0.929 . S
H352 C366 0.931 . S
H353 C368 0.930 . S
C354 H342 0.930 . S
C354 C355 1.399 . S
C354 C359 1.399 . S
C355 C354 1.399 . S
C355 C356 1.376 . S
C356 H343 0.930 . S
C356 C355 1.376 . S
C356 C357 1.388 . S
C357 H344 0.930 . S
C357 C356 1.388 . S
C357 C358 1.390 . S
C358 C357 1.390 . S
C358 C359 1.394 . S
C358 C364 1.465 1_544 S
C359 C354 1.399 . S
C359 C358 1.394 . S
C359 C360 1.516 1_544 S
C360 C359 1.516 1_566 S
C360 C361 1.502 1_565 S
C360 C362 1.561 . S
C360 C363 1.526 . S
C361 H345 0.959 . S
C361 H346 0.968 . S
C361 H347 0.961 . S
C361 C360 1.502 1_545 S
C362 H348 0.960 . S
C362 H349 0.961 . S
C362 H350 0.959 . S
C362 C360 1.561 . S
C363 C360 1.526 . S
C363 C364 1.396 . S
C363 C368 1.390 . S
C364 C358 1.465 1_566 S
C364 C363 1.396 . S
C364 C365 1.399 1_556 S
C365 H351 0.929 . S
C365 C364 1.399 1_554 S
C365 C366 1.385 1_554 S
C366 H352 0.931 . S
C366 C365 1.385 1_556 S
C366 C367 1.389 . S
C367 C366 1.389 . S
C367 C368 1.387 . S
C368 H353 0.930 . S
C368 C363 1.390 . S
C368 C367 1.387 . S
H369 C381 0.930 . S
H370 C383 0.930 . S
H371 C384 0.930 . S
H372 C388 0.959 . S
H373 C388 0.959 . S
H374 C388 0.961 . S
H375 C389 0.960 . S
H376 C389 0.961 . S
H377 C389 0.959 . S
H378 C392 0.929 . S
H379 C393 0.931 . S
H380 C395 0.930 . S
C381 H369 0.930 . S
C381 C382 1.399 . S
C381 C386 1.399 . S
C382 C381 1.399 . S
C382 C383 1.376 . S
C383 H370 0.930 . S
C383 C382 1.376 . S
C383 C384 1.388 . S
C384 H371 0.930 . S
C384 C383 1.388 . S
C384 C385 1.390 . S
C385 C384 1.390 . S
C385 C386 1.394 . S
C385 C391 1.465 1_655 S
C386 C381 1.399 . S
C386 C385 1.394 . S
C386 C387 1.516 . S
C387 C386 1.516 . S
C387 C388 1.502 . S
C387 C389 1.561 1_655 S
C387 C390 1.526 1_655 S
C388 H372 0.959 . S
C388 H373 0.959 . S
C388 H374 0.961 . S
C388 C387 1.502 . S
C389 H375 0.960 . S
C389 H376 0.961 . S
C389 H377 0.959 . S
C389 C387 1.561 1_455 S
C390 C387 1.526 1_455 S
C390 C391 1.396 . S
C390 C395 1.390 . S
C391 C385 1.465 1_455 S
C391 C390 1.396 . S
C391 C392 1.399 . S
C392 H378 0.929 . S
C392 C391 1.399 . S
C392 C393 1.385 . S
C393 H379 0.931 . S
C393 C392 1.385 . S
C393 C394 1.389 . S
C394 C393 1.389 . S
C394 C395 1.387 . S
C395 H380 0.930 . S
C395 C390 1.390 . S
C395 C394 1.387 . S
H396 C408 0.930 1_545 S
H397 C410 0.930 . S
H398 C411 0.930 . S
H399 C415 0.959 . S
H400 C415 0.959 . S
H401 C415 0.961 . S
H402 C416 0.960 . S
H403 C416 0.961 . S
H404 C416 0.959 . S
H405 C419 0.929 . S
H406 C420 0.931 . S
H407 C422 0.930 . S
C408 H396 0.930 1_565 S
C408 C409 1.399 . S
C408 C413 1.399 1_565 S
C409 C408 1.399 . S
C409 C410 1.376 . S
C410 H397 0.930 . S
C410 C409 1.376 . S
C410 C411 1.388 . S
C411 H398 0.930 . S
C411 C410 1.388 . S
C411 C412 1.390 . S
C412 C411 1.390 . S
C412 C413 1.394 1_565 S
C412 C418 1.465 1_565 S
C413 C408 1.399 1_545 S
C413 C412 1.394 1_545 S
C413 C414 1.516 . S
C414 C413 1.516 . S
C414 C415 1.502 . S
C414 C416 1.561 . S
C414 C417 1.526 . S
C415 H399 0.959 . S
C415 H400 0.959 . S
C415 H401 0.961 . S
C415 C414 1.502 . S
C416 H402 0.960 . S
C416 H403 0.961 . S
C416 H404 0.959 . S
C416 C414 1.561 . S
C417 C414 1.526 . S
C417 C418 1.396 . S
C417 C422 1.390 . S
C418 C412 1.465 1_545 S
C418 C417 1.396 . S
C418 C419 1.399 1_545 S
C419 H405 0.929 . S
C419 C418 1.399 1_565 S
C419 C420 1.385 1_565 S
C420 H406 0.931 . S
C420 C419 1.385 1_545 S
C420 C421 1.389 . S
C421 C420 1.389 . S
C421 C422 1.387 . S
C422 H407 0.930 . S
C422 C417 1.390 . S
C422 C421 1.387 . S
H423 C435 0.930 . S
H424 C437 0.930 . S
H425 C438 0.930 . S
H426 C442 0.959 1_556 S
H427 C442 0.959 . S
H428 C442 0.956 1_556 S
H429 C443 0.960 . S
H430 C443 0.961 . S
H431 C443 0.959 . S
H432 C446 0.929 1_556 S
H433 C447 0.931 . S
H434 C449 0.930 . S
C435 H423 0.930 . S
C435 C436 1.399 . S
C435 C440 1.399 . S
C436 C435 1.399 . S
C436 C437 1.376 . S
C437 H424 0.930 . S
C437 C436 1.376 . S
C437 C438 1.388 1_655 S
C438 H425 0.930 . S
C438 C437 1.388 1_455 S
C438 C439 1.392 . S
C439 C438 1.392 . S
C439 C440 1.382 1_455 S
C439 C445 1.476 . S
C440 C435 1.399 . S
C440 C439 1.382 1_655 S
C440 C441 1.516 1_556 S
C441 C440 1.516 1_554 S
C441 C442 1.502 . S
C441 C443 1.561 . S
C441 C444 1.526 1_655 S
C442 H426 0.959 1_554 S
C442 H427 0.959 . S
C442 H428 0.956 1_554 S
C442 C441 1.502 . S
C443 H429 0.960 . S
C443 H430 0.961 . S
C443 H431 0.959 . S
C443 C441 1.561 . S
C444 C441 1.526 1_455 S
C444 C445 1.392 1_554 S
C444 C449 1.390 . S
C445 C439 1.476 . S
C445 C444 1.392 1_556 S
C445 C446 1.399 1_556 S
C446 H432 0.929 1_554 S
C446 C445 1.399 1_554 S
C446 C447 1.385 . S
C447 H433 0.931 . S
C447 C446 1.385 . S
C447 C448 1.389 . S
C448 C447 1.389 . S
C448 C449 1.387 . S
C449 H434 0.930 . S
C449 C444 1.390 . S
C449 C448 1.387 . S
H450 C462 0.930 . S
H451 C464 0.930 . S
H452 C465 0.930 . S
H453 C469 0.959 . S
H454 C469 0.959 . S
H455 C469 0.961 . S
H456 C470 0.960 . S
H457 C470 0.961 . S
H458 C470 0.959 . S
H459 C473 0.929 . S
H460 C474 0.931 . S
H461 C476 0.930 . S
C462 H450 0.930 . S
C462 C463 1.399 . S
C462 C467 1.399 . S
C463 C462 1.399 . S
C463 C464 1.376 . S
C464 H451 0.930 . S
C464 C463 1.376 . S
C464 C465 1.388 . S
C465 H452 0.930 . S
C465 C464 1.388 . S
C465 C466 1.390 . S
C466 C465 1.390 . S
C466 C467 1.394 . S
C466 C472 1.465 . S
C467 C462 1.399 . S
C467 C466 1.394 . S
C467 C468 1.516 . S
C468 C467 1.516 . S
C468 C469 1.502 . S
C468 C470 1.561 . S
C468 C471 1.526 . S
C469 H453 0.959 . S
C469 H454 0.959 . S
C469 H455 0.961 . S
C469 C468 1.502 . S
C470 H456 0.960 . S
C470 H457 0.961 . S
C470 H458 0.959 . S
C470 C468 1.561 . S
C471 C468 1.526 . S
C471 C472 1.396 . S
C471 C476 1.390 . S
C472 C466 1.465 . S
C472 C471 1.396 . S
C472 C473 1.399 . S
C473 H459 0.929 . S
C473 C472 1.399 . S
C473 C474 1.385 . S
C474 H460 0.931 . S
C474 C473 1.385 . S
C474 C475 1.389 . S
C475 C474 1.389 . S
C475 C476 1.387 . S
C476 H461 0.930 . S
C476 C471 1.390 . S
C476 C475 1.387 . S
H477 C489 0.930 . S
H478 C491 0.930 . S
H479 C492 0.930 . S
H480 C496 0.959 . S
H481 C496 0.959 . S
H482 C496 0.961 . S
H483 C497 0.960 . S
H484 C497 0.961 . S
H485 C497 0.959 . S
H486 C500 0.929 . S
H487 C501 0.931 . S
H488 C503 0.930 . S
C489 H477 0.930 . S
C489 C490 1.399 . S
C489 C494 1.399 . S
C490 C489 1.399 . S
C490 C491 1.376 . S
C491 H478 0.930 . S
C491 C490 1.376 . S
C491 C492 1.388 . S
C492 H479 0.930 . S
C492 C491 1.388 . S
C492 C493 1.390 . S
C493 C492 1.390 . S
C493 C494 1.394 . S
C493 C499 1.465 . S
C494 C489 1.399 . S
C494 C493 1.394 . S
C494 C495 1.516 . S
C495 C494 1.516 . S
C495 C496 1.502 . S
C495 C497 1.561 . S
C495 C498 1.526 . S
C496 H480 0.959 . S
C496 H481 0.959 . S
C496 H482 0.961 . S
C496 C495 1.502 . S
C497 H483 0.960 . S
C497 H484 0.961 . S
C497 H485 0.959 . S
C497 C495 1.561 . S
C498 C495 1.526 . S
C498 C499 1.396 . S
C498 C503 1.390 . S
C499 C493 1.465 . S
C499 C498 1.396 . S
C499 C500 1.399 . S
C500 H486 0.929 . S
C500 C499 1.399 . S
C500 C501 1.385 . S
C501 H487 0.931 . S
C501 C500 1.385 . S
C501 C502 1.389 . S
C502 C501 1.389 . S
C502 C503 1.387 . S
C503 H488 0.930 . S
C503 C498 1.390 . S
C503 C502 1.387 . S
H504 C516 0.930 . S
H505 C518 0.930 . S
H506 C519 0.930 . S
H507 C523 0.959 . S
H508 C523 0.959 . S
H509 C523 0.961 . S
H510 C524 0.960 . S
H511 C524 0.961 . S
H512 C524 0.959 . S
H513 C527 0.929 . S
H514 C528 0.931 . S
H515 C530 0.930 . S
C516 H504 0.930 . S
C516 C517 1.399 . S
C516 C521 1.399 . S
C517 C516 1.399 . S
C517 C518 1.376 . S
C518 H505 0.930 . S
C518 C517 1.376 . S
C518 C519 1.388 . S
C519 H506 0.930 . S
C519 C518 1.388 . S
C519 C520 1.390 . S
C520 C519 1.390 . S
C520 C521 1.394 . S
C520 C526 1.465 . S
C521 C516 1.399 . S
C521 C520 1.394 . S
C521 C522 1.516 . S
C522 C521 1.516 . S
C522 C523 1.502 . S
C522 C524 1.561 . S
C522 C525 1.526 . S
C523 H507 0.959 . S
C523 H508 0.959 . S
C523 H509 0.961 . S
C523 C522 1.502 . S
C524 H510 0.960 . S
C524 H511 0.961 . S
C524 H512 0.959 . S
C524 C522 1.561 . S
C525 C522 1.526 . S
C525 C526 1.396 . S
C525 C530 1.390 . S
C526 C520 1.465 . S
C526 C525 1.396 . S
C526 C527 1.399 . S
C527 H513 0.929 . S
C527 C526 1.399 . S
C527 C528 1.385 . S
C528 H514 0.931 . S
C528 C527 1.385 . S
C528 C529 1.389 . S
C529 C528 1.389 . S
C529 C530 1.387 . S
C530 H515 0.930 . S
C530 C525 1.390 . S
C530 C529 1.387 . S
H531 C543 0.930 . S
H532 C545 0.930 . S
H533 C546 0.930 . S
H534 C550 0.959 . S
H535 C550 0.959 . S
H536 C550 0.961 . S
H537 C551 0.960 . S
H538 C551 0.961 . S
H539 C551 0.959 . S
H540 C554 0.929 . S
H541 C555 0.931 . S
H542 C557 0.930 1_556 S
C543 H531 0.930 . S
C543 C544 1.399 . S
C543 C548 1.399 . S
C544 C543 1.399 . S
C544 C545 1.376 . S
C545 H532 0.930 . S
C545 C544 1.376 . S
C545 C546 1.388 1_556 S
C546 H533 0.930 . S
C546 C545 1.388 1_554 S
C546 C547 1.390 1_554 S
C547 C546 1.390 1_556 S
C547 C548 1.394 . S
C547 C553 1.465 1_556 S
C548 C543 1.399 . S
C548 C547 1.394 . S
C548 C549 1.516 . S
C549 C548 1.516 . S
C549 C550 1.502 . S
C549 C551 1.561 . S
C549 C552 1.526 . S
C550 H534 0.959 . S
C550 H535 0.959 . S
C550 H536 0.961 . S
C550 C549 1.502 . S
C551 H537 0.960 . S
C551 H538 0.961 . S
C551 H539 0.959 . S
C551 C549 1.561 . S
C552 C549 1.526 . S
C552 C553 1.396 1_556 S
C552 C557 1.390 1_556 S
C553 C547 1.465 1_554 S
C553 C552 1.396 1_554 S
C553 C554 1.399 . S
C554 H540 0.929 . S
C554 C553 1.399 . S
C554 C555 1.385 . S
C555 H541 0.931 . S
C555 C554 1.385 . S
C555 C556 1.389 . S
C556 C555 1.389 . S
C556 C557 1.387 . S
C557 H542 0.930 1_554 S
C557 C552 1.390 1_554 S
C557 C556 1.387 . S
H558 C570 0.930 1_545 S
H559 C572 0.930 . S
H560 C573 0.930 . S
H561 C577 0.959 . S
H562 C577 0.959 . S
H563 C577 0.961 . S
H564 C578 0.960 . S
H565 C578 0.961 . S
H566 C578 0.959 . S
H567 C581 0.929 . S
H568 C582 0.931 . S
H569 C584 0.930 . S
C570 H558 0.930 1_565 S
C570 C571 1.399 . S
C570 C575 1.399 1_565 S
C571 C570 1.399 . S
C571 C572 1.376 . S
C572 H559 0.930 . S
C572 C571 1.376 . S
C572 C573 1.388 . S
C573 H560 0.930 . S
C573 C572 1.388 . S
C573 C574 1.390 . S
C574 C573 1.390 . S
C574 C575 1.394 1_565 S
C574 C580 1.465 1_565 S
C575 C570 1.399 1_545 S
C575 C574 1.394 1_545 S
C575 C576 1.516 . S
C576 C575 1.516 . S
C576 C577 1.502 . S
C576 C578 1.561 . S
C576 C579 1.526 . S
C577 H561 0.959 . S
C577 H562 0.959 . S
C577 H563 0.961 . S
C577 C576 1.502 . S
C578 H564 0.960 . S
C578 H565 0.961 . S
C578 H566 0.959 . S
C578 C576 1.561 . S
C579 C576 1.526 . S
C579 C580 1.396 . S
C579 C584 1.390 . S
C580 C574 1.465 1_545 S
C580 C579 1.396 . S
C580 C581 1.399 1_545 S
C581 H567 0.929 . S
C581 C580 1.399 1_565 S
C581 C582 1.385 1_565 S
C582 H568 0.931 . S
C582 C581 1.385 1_545 S
C582 C583 1.389 . S
C583 C582 1.389 . S
C583 C584 1.387 . S
C584 H569 0.930 . S
C584 C579 1.390 . S
C584 C583 1.387 . S
H585 C597 0.930 . S
H586 C599 0.930 . S
H587 C600 0.930 . S
H588 C604 0.959 . S
H589 C604 0.959 . S
H590 C604 0.961 . S
H591 C605 0.960 . S
H592 C605 0.961 . S
H593 C605 0.959 1_545 S
H594 C608 0.929 . S
H595 C609 0.931 . S
H596 C611 0.930 . S
C597 H585 0.930 . S
C597 C598 1.399 . S
C597 C602 1.399 . S
C598 C597 1.399 . S
C598 C599 1.376 . S
C599 H586 0.930 . S
C599 C598 1.376 . S
C599 C600 1.388 1_565 S
C600 H587 0.930 . S
C600 C599 1.388 1_545 S
C600 C601 1.390 . S
C601 C600 1.390 . S
C601 C602 1.394 1_545 S
C601 C607 1.465 1_655 S
C602 C597 1.399 . S
C602 C601 1.394 1_565 S
C602 C603 1.516 1_655 S
C603 C602 1.516 1_455 S
C603 C604 1.502 . S
C603 C605 1.561 . S
C603 C606 1.526 1_565 S
C604 H588 0.959 . S
C604 H589 0.959 . S
C604 H590 0.961 . S
C604 C603 1.502 . S
C605 H591 0.960 . S
C605 H592 0.961 . S
C605 H593 0.959 1_565 S
C605 C603 1.561 . S
C606 C603 1.526 1_545 S
C606 C607 1.396 . S
C606 C611 1.390 . S
C607 C601 1.465 1_455 S
C607 C606 1.396 . S
C607 C608 1.399 1_455 S
C608 H594 0.929 . S
C608 C607 1.399 1_655 S
C608 C609 1.385 1_655 S
C609 H595 0.931 . S
C609 C608 1.385 1_455 S
C609 C610 1.389 . S
C610 C609 1.389 . S
C610 C611 1.387 . S
C611 H596 0.930 . S
C611 C606 1.390 . S
C611 C610 1.387 . S
H612 C624 0.930 . S
H613 C626 0.930 . S
H614 C627 0.930 . S
H615 C631 0.959 . S
H616 C631 0.959 . S
H617 C631 0.961 . S
H618 C632 0.960 . S
H619 C632 0.961 . S
H620 C632 0.959 . S
H621 C635 0.929 . S
H622 C636 0.931 . S
H623 C638 0.930 . S
C624 H612 0.930 . S
C624 C625 1.399 . S
C624 C629 1.399 . S
C625 C624 1.399 . S
C625 C626 1.376 . S
C626 H613 0.930 . S
C626 C625 1.376 . S
C626 C627 1.388 . S
C627 H614 0.930 . S
C627 C626 1.388 . S
C627 C628 1.390 . S
C628 C627 1.390 . S
C628 C629 1.394 . S
C628 C634 1.465 1_655 S
C629 C624 1.399 . S
C629 C628 1.394 . S
C629 C630 1.517 . S
C630 C629 1.517 . S
C630 C631 1.503 . S
C630 C632 1.560 1_655 S
C630 C633 1.525 1_655 S
C631 H615 0.959 . S
C631 H616 0.959 . S
C631 H617 0.961 . S
C631 C630 1.503 . S
C632 H618 0.960 . S
C632 H619 0.961 . S
C632 H620 0.959 . S
C632 C630 1.560 1_455 S
C633 C630 1.525 1_455 S
C633 C634 1.396 . S
C633 C638 1.390 . S
C634 C628 1.465 1_455 S
C634 C633 1.396 . S
C634 C635 1.399 . S
C635 H621 0.929 . S
C635 C634 1.399 . S
C635 C636 1.385 . S
C636 H622 0.931 . S
C636 C635 1.385 . S
C636 C637 1.389 . S
C637 C636 1.389 . S
C637 C638 1.387 . S
C638 H623 0.930 . S
C638 C633 1.390 . S
C638 C637 1.387 . S
H639 C651 0.930 . S
H640 C653 0.930 . S
H641 C654 0.930 . S
H642 C658 0.959 . S
H643 C658 0.959 . S
H644 C658 0.961 . S
H645 C659 0.960 . S
H646 C659 0.961 . S
H647 C659 0.959 . S
H648 C662 0.929 . S
H649 C663 0.931 . S
H650 C665 0.930 . S
C651 H639 0.930 . S
C651 C652 1.399 . S
C651 C656 1.399 . S
C652 C651 1.399 . S
C652 C653 1.376 . S
C653 H640 0.930 . S
C653 C652 1.376 . S
C653 C654 1.388 . S
C654 H641 0.930 . S
C654 C653 1.388 . S
C654 C655 1.390 . S
C655 C654 1.390 . S
C655 C656 1.394 . S
C655 C661 1.465 . S
C656 C651 1.399 . S
C656 C655 1.394 . S
C656 C657 1.516 . S
C657 C656 1.516 . S
C657 C658 1.502 . S
C657 C659 1.561 . S
C657 C660 1.526 . S
C658 H642 0.959 . S
C658 H643 0.959 . S
C658 H644 0.961 . S
C658 C657 1.502 . S
C659 H645 0.960 . S
C659 H646 0.961 . S
C659 H647 0.959 . S
C659 C657 1.561 . S
C660 C657 1.526 . S
C660 C661 1.396 . S
C660 C665 1.390 . S
C661 C655 1.465 . S
C661 C660 1.396 . S
C661 C662 1.399 . S
C662 H648 0.929 . S
C662 C661 1.399 . S
C662 C663 1.385 . S
C663 H649 0.931 . S
C663 C662 1.385 . S
C663 C664 1.389 . S
C664 C663 1.389 . S
C664 C665 1.387 . S
C665 H650 0.930 . S
C665 C660 1.390 . S
C665 C664 1.387 . S
H666 C678 0.930 . S
H667 C680 0.930 . S
H668 C681 0.930 . S
H669 C685 0.981 . S
H670 C685 0.940 1_556 S
H671 C685 0.974 . S
H672 C686 0.960 . S
H673 C686 0.961 . S
H674 C686 0.959 . S
H675 C689 0.929 . S
H676 C690 0.931 . S
H677 C692 0.930 . S
C678 H666 0.930 . S
C678 C679 1.399 . S
C678 C683 1.399 . S
C679 C678 1.399 . S
C679 C680 1.376 . S
C680 H667 0.930 . S
C680 C679 1.376 . S
C680 C681 1.388 . S
C681 H668 0.930 . S
C681 C680 1.388 . S
C681 C682 1.389 1_554 S
C682 C681 1.389 1_556 S
C682 C683 1.394 1_556 S
C682 C688 1.466 . S
C683 C678 1.399 . S
C683 C682 1.394 1_554 S
C683 C684 1.516 1_554 S
C684 C683 1.516 1_556 S
C684 C685 1.488 1_556 S
C684 C686 1.561 . S
C684 C687 1.526 . S
C685 H669 0.981 . S
C685 H670 0.940 1_554 S
C685 H671 0.974 . S
C685 C684 1.488 1_554 S
C686 H672 0.960 . S
C686 H673 0.961 . S
C686 H674 0.959 . S
C686 C684 1.561 . S
C687 C684 1.526 . S
C687 C688 1.396 . S
C687 C692 1.390 . S
C688 C682 1.466 . S
C688 C687 1.396 . S
C688 C689 1.399 . S
C689 H675 0.929 . S
C689 C688 1.399 . S
C689 C690 1.385 . S
C690 H676 0.931 . S
C690 C689 1.385 . S
C690 C691 1.389 . S
C691 C690 1.389 . S
C691 C692 1.387 . S
C692 H677 0.930 . S
C692 C687 1.390 . S
C692 C691 1.387 . S
H693 C705 0.930 . S
H694 C707 0.930 . S
H695 C708 0.930 . S
H696 C712 0.959 . S
H697 C712 0.959 . S
H698 C712 0.961 . S
H699 C713 0.960 . S
H700 C713 0.961 . S
H701 C713 0.959 . S
H702 C716 0.929 . S
H703 C717 0.931 . S
H704 C719 0.930 . S
C705 H693 0.930 . S
C705 C706 1.399 . S
C705 C710 1.399 . S
C706 C705 1.399 . S
C706 C707 1.376 . S
C707 H694 0.930 . S
C707 C706 1.376 . S
C707 C708 1.388 . S
C708 H695 0.930 . S
C708 C707 1.388 . S
C708 C709 1.390 . S
C709 C708 1.390 . S
C709 C710 1.394 . S
C709 C715 1.465 . S
C710 C705 1.399 . S
C710 C709 1.394 . S
C710 C711 1.516 . S
C711 C710 1.516 . S
C711 C712 1.502 . S
C711 C713 1.561 . S
C711 C714 1.526 . S
C712 H696 0.959 . S
C712 H697 0.959 . S
C712 H698 0.961 . S
C712 C711 1.502 . S
C713 H699 0.960 . S
C713 H700 0.961 . S
C713 H701 0.959 . S
C713 C711 1.561 . S
C714 C711 1.526 . S
C714 C715 1.396 . S
C714 C719 1.390 . S
C715 C709 1.465 . S
C715 C714 1.396 . S
C715 C716 1.399 . S
C716 H702 0.929 . S
C716 C715 1.399 . S
C716 C717 1.385 . S
C717 H703 0.931 . S
C717 C716 1.385 . S
C717 C718 1.389 . S
C718 C717 1.389 . S
C718 C719 1.387 . S
C719 H704 0.930 . S
C719 C714 1.390 . S
C719 C718 1.387 . S
C301 C194 1.471 . S
C313 C4 1.514 . S
C328 C266 1.443 . S
C340 C40 1.520 . S
C355 C74 1.508 . S
C367 C218 1.517 . S
C382 C111 1.535 . S
C394 C147 1.531 . S
C409 C220 1.522 . S
C421 C14 1.422 . S
C436 C38 1.504 . S
C448 C146 1.515 . S
C463 C183 1.533 . S
C475 C75 1.527 . S
C490 C122 1.415 . S
C502 C256 1.519 . S
C517 C158 1.435 . S
C529 C184 1.521 . S
C544 C50 1.461 . S
C556 C76 1.519 . S
C571 C112 1.522 . S
C583 C86 1.413 . S
C598 C110 1.506 . S
C610 C2 1.498 . S
C625 C39 1.535 . S
C637 C3 1.531 . S
C652 C255 1.519 . S
C664 C219 1.527 . S
C679 C148 1.520 . S
C691 C230 1.411 . S
C706 C182 1.506 . S
C718 C254 1.498 . S
