# Generated by pormake.
# Topology unp, (4)-cn, num edge types: 1
# Building blocks:
#     Node 0, Type 0, BuildingBlock: QUQFOY_clean_sbu_3, # of connection points: 4
#     Node 1, Type 0, BuildingBlock: QUQFOY_clean_sbu_3, # of connection points: 4
#     Node 2, Type 0, BuildingBlock: QUQFOY_clean_sbu_3, # of connection points: 4
#     Node 3, Type 0, BuildingBlock: QUQFOY_clean_sbu_3, # of connection points: 4
#     Node 4, Type 0, BuildingBlock: QUQFOY_clean_sbu_3, # of connection points: 4
#     Node 5, Type 0, BuildingBlock: QUQFOY_clean_sbu_3, # of connection points: 4
#     Node 6, Type 0, BuildingBlock: QUQFOY_clean_sbu_3, # of connection points: 4
#     Node 7, Type 0, BuildingBlock: QUQFOY_clean_sbu_3, # of connection points: 4
#     Node 8, Type 0, BuildingBlock: QUQFOY_clean_sbu_3, # of connection points: 4
#     Node 9, Type 0, BuildingBlock: QUQFOY_clean_sbu_3, # of connection points: 4
#     Node 10, Type 0, BuildingBlock: QUQFOY_clean_sbu_3, # of connection points: 4
#     Node 11, Type 0, BuildingBlock: QUQFOY_clean_sbu_3, # of connection points: 4
#     Node 12, Type 0, BuildingBlock: QUQFOY_clean_sbu_3, # of connection points: 4
#     Node 13, Type 0, BuildingBlock: QUQFOY_clean_sbu_3, # of connection points: 4
#     Node 14, Type 0, BuildingBlock: QUQFOY_clean_sbu_3, # of connection points: 4
#     Node 15, Type 0, BuildingBlock: QUQFOY_clean_sbu_3, # of connection points: 4
#     Node 16, Type 0, BuildingBlock: QUQFOY_clean_sbu_3, # of connection points: 4
#     Node 17, Type 0, BuildingBlock: QUQFOY_clean_sbu_3, # of connection points: 4
#     Edge 18, Type (0, 0), BuildingBlock: EYOCIG_clean_linker_4, # of connection points: 2
#     Edge 19, Type (0, 0), BuildingBlock: EYOCIG_clean_linker_4, # of connection points: 2
#     Edge 20, Type (0, 0), BuildingBlock: EYOCIG_clean_linker_4, # of connection points: 2
#     Edge 21, Type (0, 0), BuildingBlock: EYOCIG_clean_linker_4, # of connection points: 2
#     Edge 22, Type (0, 0), BuildingBlock: EYOCIG_clean_linker_4, # of connection points: 2
#     Edge 23, Type (0, 0), BuildingBlock: EYOCIG_clean_linker_4, # of connection points: 2
#     Edge 24, Type (0, 0), BuildingBlock: EYOCIG_clean_linker_4, # of connection points: 2
#     Edge 25, Type (0, 0), BuildingBlock: EYOCIG_clean_linker_4, # of connection points: 2
#     Edge 26, Type (0, 0), BuildingBlock: EYOCIG_clean_linker_4, # of connection points: 2
#     Edge 27, Type (0, 0), BuildingBlock: EYOCIG_clean_linker_4, # of connection points: 2
#     Edge 28, Type (0, 0), BuildingBlock: EYOCIG_clean_linker_4, # of connection points: 2
#     Edge 29, Type (0, 0), BuildingBlock: EYOCIG_clean_linker_4, # of connection points: 2
#     Edge 30, Type (0, 0), BuildingBlock: EYOCIG_clean_linker_4, # of connection points: 2
#     Edge 31, Type (0, 0), BuildingBlock: EYOCIG_clean_linker_4, # of connection points: 2
#     Edge 32, Type (0, 0), BuildingBlock: EYOCIG_clean_linker_4, # of connection points: 2
#     Edge 33, Type (0, 0), BuildingBlock: EYOCIG_clean_linker_4, # of connection points: 2
#     Edge 34, Type (0, 0), BuildingBlock: EYOCIG_clean_linker_4, # of connection points: 2
#     Edge 35, Type (0, 0), BuildingBlock: EYOCIG_clean_linker_4, # of connection points: 2
#     Edge 36, Type (0, 0), BuildingBlock: EYOCIG_clean_linker_4, # of connection points: 2
#     Edge 37, Type (0, 0), BuildingBlock: EYOCIG_clean_linker_4, # of connection points: 2
#     Edge 38, Type (0, 0), BuildingBlock: EYOCIG_clean_linker_4, # of connection points: 2
#     Edge 39, Type (0, 0), BuildingBlock: EYOCIG_clean_linker_4, # of connection points: 2
#     Edge 40, Type (0, 0), BuildingBlock: EYOCIG_clean_linker_4, # of connection points: 2
#     Edge 41, Type (0, 0), BuildingBlock: EYOCIG_clean_linker_4, # of connection points: 2
#     Edge 42, Type (0, 0), BuildingBlock: EYOCIG_clean_linker_4, # of connection points: 2
#     Edge 43, Type (0, 0), BuildingBlock: EYOCIG_clean_linker_4, # of connection points: 2
#     Edge 44, Type (0, 0), BuildingBlock: EYOCIG_clean_linker_4, # of connection points: 2
#     Edge 45, Type (0, 0), BuildingBlock: EYOCIG_clean_linker_4, # of connection points: 2
#     Edge 46, Type (0, 0), BuildingBlock: EYOCIG_clean_linker_4, # of connection points: 2
#     Edge 47, Type (0, 0), BuildingBlock: EYOCIG_clean_linker_4, # of connection points: 2
#     Edge 48, Type (0, 0), BuildingBlock: EYOCIG_clean_linker_4, # of connection points: 2
#     Edge 49, Type (0, 0), BuildingBlock: EYOCIG_clean_linker_4, # of connection points: 2
#     Edge 50, Type (0, 0), BuildingBlock: EYOCIG_clean_linker_4, # of connection points: 2
#     Edge 51, Type (0, 0), BuildingBlock: EYOCIG_clean_linker_4, # of connection points: 2
#     Edge 52, Type (0, 0), BuildingBlock: EYOCIG_clean_linker_4, # of connection points: 2
#     Edge 53, Type (0, 0), BuildingBlock: EYOCIG_clean_linker_4, # of connection points: 2
# Relax obj value: 0.405
# Max RMSD: 0.185
# Mean RMSD: 0.185
data_MOF--net-unp--node1-QUQFOY_clean_sbu_3--edge1-EYOCIG_clean_linker_4
_symmetry_space_group_name_H-M    P1
_symmetry_Int_Tables_number       1
_symmetry_cell_setting            triclinic
loop_
_symmetry_equiv_pos_as_xyz
'x, y, z'
_cell_length_a     41.261546
_cell_length_b     41.218876
_cell_length_c     45.245193
_cell_angle_alpha  90.00089
_cell_angle_beta   90.024317
_cell_angle_gamma 119.8636
loop_
_atom_site_label
_atom_site_type_symbol
_atom_site_fract_x
_atom_site_fract_y
_atom_site_fract_z
_atom_type_partial_charge
C0 C 0.10602 0.05204 0.14078 0.0
O1 O 0.08329 0.04171 0.11931 0.0
Cd2 Cd 0.07272 0.08107 0.08765 0.0
O3 O 0.12654 0.0865 0.1474 0.0
Cd4 Cd 0.13528 0.14636 0.12528 0.0
C5 C 0.04699 0.12404 0.14043 0.0
O6 O 0.1346 0.12688 0.07463 0.0
O7 O 0.13364 0.17848 0.07949 0.0
O8 O 0.20086 0.17143 0.13512 0.0
C9 C 0.1373 0.15584 0.06285 0.0
O10 O 0.03856 0.10213 0.11844 0.0
C11 C 0.20635 0.20253 0.14494 0.0
O12 O 0.0805 0.14322 0.14944 0.0
O13 O 0.17837 0.20726 0.14734 0.0
C14 C 0.88632 0.04265 0.14034 0.0
O15 O 0.89667 0.0304 0.11875 0.0
Cd16 Cd 0.85739 -0.01913 0.08687 0.0
O17 O 0.85189 0.02874 0.14697 0.0
Cd18 Cd 0.79215 -0.02203 0.12466 0.0
C19 C 0.8147 0.91191 0.13935 0.0
O20 O 0.81155 -0.00279 0.0741 0.0
O21 O 0.76013 0.94469 0.07872 0.0
O22 O 0.76678 0.01825 0.1349 0.0
C23 C 0.78266 0.97114 0.06222 0.0
O24 O 0.83657 0.92549 0.11737 0.0
C25 C 0.73577 -0.00746 0.14459 0.0
O26 O 0.79548 0.92621 0.14849 0.0
O27 O 0.73124 0.95986 0.14675 0.0
C28 C 0.89708 0.83295 0.13984 0.0
O29 O 0.90963 0.85569 0.11839 0.0
Cd30 Cd 0.95959 0.86595 0.08701 0.0
O31 O 0.91087 0.81227 0.14659 0.0
Cd32 Cd -0.03817 0.80307 0.12483 0.0
C33 C 0.02773 0.8913 0.14016 0.0
O34 O 0.94335 0.80385 0.07413 0.0
O35 O -0.00444 0.80425 0.07918 0.0
O36 O 0.921 0.73757 0.13471 0.0
C37 C -0.03056 0.80081 0.06245 0.0
O38 O 0.01445 0.89986 0.11808 0.0
C39 C 0.94635 0.73175 0.14464 0.0
O40 O 0.01332 0.85773 0.14914 0.0
O41 O -0.02091 0.75954 0.14709 0.0
C42 C 0.03922 0.11944 0.83854 0.0
O43 O 0.02885 0.09666 0.85998 0.0
Cd44 Cd 0.0681 0.08605 0.89171 0.0
O45 O 0.07366 0.13999 0.83199 0.0
Cd46 Cd 0.1334 0.14867 0.85425 0.0
C47 C 0.11111 0.06033 0.839 0.0
O48 O 0.11385 0.14798 0.90486 0.0
O49 O 0.16535 0.14691 0.9001 0.0
O50 O 0.15865 0.21435 0.84444 0.0
C51 C 0.14273 0.15063 0.9167 0.0
O52 O 0.08918 0.05186 0.86096 0.0
C53 C 0.1897 0.21972 0.83469 0.0
O54 O 0.13029 0.09388 0.83004 0.0
O55 O 0.19432 0.19164 0.8323 0.0
C56 C 0.82012 0.91025 0.83872 0.0
O57 O 0.84279 0.92273 0.86023 0.0
Cd58 Cd 0.85306 0.97268 0.89171 0.0
O59 O 0.79952 0.92411 0.83197 0.0
Cd60 Cd 0.79035 -0.02488 0.85381 0.0
C61 C 0.87859 0.04103 0.83869 0.0
O62 O 0.79104 0.95652 0.90449 0.0
O63 O 0.79157 0.00886 0.8995 0.0
O64 O 0.7249 0.93433 0.84387 0.0
C65 C 0.78808 -0.01733 0.9162 0.0
O66 O 0.88705 0.02765 0.86075 0.0
C67 C 0.71913 0.95974 0.83397 0.0
O68 O 0.84508 0.02668 0.82964 0.0
O69 O 0.74692 -0.00751 0.83155 0.0
C70 C 0.0296 0.89951 0.83864 0.0
O71 O 0.01729 0.90982 0.86021 0.0
Cd72 Cd -0.03232 0.87041 0.89192 0.0
O73 O 0.01573 0.86506 0.83194 0.0
Cd74 Cd -0.03506 0.80521 0.85404 0.0
C75 C 0.89897 0.82779 0.83924 0.0
O76 O -0.016 0.8245 0.90465 0.0
O77 O 0.93161 0.77297 0.89987 0.0
O78 O 0.00534 0.78002 0.84381 0.0
C79 C 0.95796 0.79552 0.91645 0.0
O80 O 0.91246 0.84963 0.86127 0.0
C81 C -0.02025 0.74896 0.83403 0.0
O82 O 0.91328 0.80857 0.83012 0.0
O83 O 0.94707 0.74433 0.83181 0.0
C84 C 0.77275 0.38565 0.47377 0.0
O85 O 0.74997 0.37533 0.45234 0.0
Cd86 Cd 0.73939 0.41473 0.42073 0.0
O87 O 0.79332 0.42011 0.48037 0.0
Cd88 Cd 0.80212 0.48001 0.45826 0.0
C89 C 0.7139 0.45779 0.47362 0.0
O90 O 0.80126 0.46047 0.40762 0.0
O91 O 0.80038 0.51211 0.41249 0.0
O92 O 0.86771 0.50497 0.46797 0.0
C93 C 0.80398 0.48943 0.39584 0.0
O94 O 0.70539 0.43586 0.45163 0.0
C95 C 0.8733 0.53612 0.47776 0.0
O96 O 0.74745 0.47696 0.48256 0.0
O97 O 0.84537 0.54092 0.48023 0.0
C98 C 0.55329 0.37601 0.47405 0.0
O99 O 0.56361 0.3636 0.45256 0.0
Cd100 Cd 0.52429 0.31387 0.42085 0.0
O101 O 0.51886 0.36217 0.48067 0.0
Cd102 Cd 0.45911 0.31126 0.45848 0.0
C103 C 0.48154 0.2452 0.47353 0.0
O104 O 0.4785 0.33021 0.40787 0.0
O105 O 0.42704 0.27776 0.41263 0.0
O106 O 0.43378 0.35162 0.46852 0.0
C107 C 0.44958 0.3041 0.39605 0.0
O108 O 0.50339 0.25863 0.45153 0.0
C109 C 0.40276 0.32596 0.47826 0.0
O110 O 0.46236 0.25959 0.48257 0.0
O111 O 0.39822 0.2933 0.48055 0.0
C112 C 0.56355 0.16614 0.4739 0.0
O113 O 0.57588 0.18882 0.45239 0.0
Cd114 Cd 0.62562 0.1991 0.42073 0.0
O115 O 0.57746 0.14555 0.48056 0.0
Cd116 Cd 0.62833 0.13643 0.4585 0.0
C117 C 0.69421 0.22477 0.47352 0.0
O118 O 0.60946 0.13701 0.40788 0.0
O119 O 0.6618 0.13763 0.4127 0.0
O120 O 0.58772 0.07093 0.46848 0.0
C121 C 0.63553 0.13406 0.39609 0.0
O122 O 0.68072 0.23321 0.45152 0.0
C123 C 0.61319 0.06522 0.47829 0.0
O124 O 0.67993 0.19124 0.48257 0.0
O125 O 0.6459 0.09307 0.48063 0.0
C126 C 0.70541 0.4523 0.17173 0.0
O127 O 0.69511 0.4296 0.19323 0.0
Cd128 Cd 0.73445 0.41911 0.22494 0.0
O129 O 0.73983 0.47282 0.16511 0.0
Cd130 Cd 0.79963 0.48159 0.18729 0.0
C131 C 0.7773 0.39318 0.17224 0.0
O132 O 0.78022 0.4811 0.23791 0.0
O133 O 0.8317 0.48 0.23312 0.0
O134 O 0.82483 0.54724 0.17737 0.0
C135 C 0.80914 0.4838 0.24973 0.0
O136 O 0.75543 0.38481 0.19423 0.0
C137 C 0.85587 0.55262 0.16761 0.0
O138 O 0.79645 0.4267 0.1632 0.0
O139 O 0.8605 0.52453 0.16525 0.0
C140 C 0.48624 0.24291 0.17221 0.0
O141 O 0.50903 0.25538 0.19364 0.0
Cd142 Cd 0.51947 0.30533 0.22519 0.0
O143 O 0.46562 0.25679 0.16557 0.0
Cd144 Cd 0.45662 0.30782 0.18757 0.0
C145 C 0.5448 0.3737 0.17223 0.0
O146 O 0.45752 0.28919 0.23821 0.0
O147 O 0.45804 0.34154 0.23333 0.0
O148 O 0.39113 0.2671 0.17774 0.0
C149 C 0.45461 0.31533 0.24999 0.0
O150 O 0.55336 0.36032 0.19423 0.0
C151 C 0.38537 0.29254 0.16791 0.0
O152 O 0.51125 0.35936 0.16329 0.0
O153 O 0.41317 0.32529 0.16549 0.0
C154 C 0.69559 0.23232 0.17213 0.0
O155 O 0.68325 0.24267 0.19365 0.0
Cd156 Cd 0.63361 0.20331 0.22536 0.0
O157 O 0.68174 0.19785 0.16549 0.0
Cd158 Cd 0.63094 0.13803 0.18764 0.0
C159 C 0.56495 0.16051 0.17266 0.0
O160 O 0.64992 0.15744 0.23825 0.0
O161 O 0.59754 0.1059 0.23348 0.0
O162 O 0.67139 0.11284 0.17757 0.0
C163 C 0.62387 0.12848 0.25006 0.0
O164 O 0.57842 0.1824 0.19466 0.0
C165 C 0.64582 0.08176 0.16781 0.0
O166 O 0.57929 0.14128 0.1636 0.0
O167 O 0.61314 0.0771 0.16553 0.0
C168 C 0.43976 0.71898 0.80721 0.0
O169 O 0.41708 0.70859 0.7857 0.0
Cd170 Cd 0.40654 0.74784 0.7539 0.0
O171 O 0.46025 0.75346 0.81379 0.0
Cd172 Cd 0.46903 0.81326 0.79151 0.0
C173 C 0.38069 0.7909 0.80652 0.0
O174 O 0.46843 0.79366 0.74092 0.0
O175 O 0.46738 0.84524 0.74564 0.0
O176 O 0.53461 0.83837 0.80139 0.0
C177 C 0.47111 0.82257 0.72907 0.0
O178 O 0.37231 0.76894 0.78457 0.0
C179 C 0.54009 0.86951 0.81111 0.0
O180 O 0.41418 0.81013 0.81556 0.0
O181 O 0.5121 0.87424 0.81347 0.0
C182 C 0.21989 0.70916 0.80661 0.0
O183 O 0.23016 0.69669 0.78512 0.0
Cd184 Cd 0.19074 0.64692 0.75349 0.0
O185 O 0.18547 0.69538 0.81325 0.0
Cd186 Cd 0.12565 0.6445 0.79113 0.0
C187 C 0.14799 0.57841 0.8063 0.0
O188 O 0.145 0.66332 0.7405 0.0
O189 O 0.0935 0.61091 0.74532 0.0
O190 O 0.10047 0.685 0.80111 0.0
C191 C 0.11605 0.63721 0.72871 0.0
O192 O 0.16984 0.59177 0.78429 0.0
C193 C 0.06942 0.65942 0.81086 0.0
O194 O 0.12884 0.59285 0.8153 0.0
O195 O 0.06479 0.62672 0.81318 0.0
C196 C 0.23034 0.49972 0.80707 0.0
O197 O 0.24279 0.52249 0.78563 0.0
Cd198 Cd 0.29264 0.53283 0.75408 0.0
O199 O 0.24419 0.47907 0.81373 0.0
Cd200 Cd 0.29515 0.47001 0.79177 0.0
C201 C 0.36105 0.55828 0.807 0.0
O202 O 0.27643 0.47076 0.74113 0.0
O203 O 0.3287 0.47124 0.746 0.0
O204 O 0.2545 0.4045 0.80171 0.0
C205 C 0.30251 0.46778 0.72935 0.0
O206 O 0.34766 0.56681 0.78499 0.0
C207 C 0.27995 0.39878 0.81157 0.0
O208 O 0.34669 0.52472 0.81598 0.0
O209 O 0.31266 0.42663 0.81394 0.0
C210 C 0.37259 0.78563 0.50498 0.0
O211 O 0.3623 0.7629 0.52645 0.0
Cd212 Cd 0.40166 0.75237 0.55811 0.0
O213 O 0.40701 0.80618 0.49837 0.0
Cd214 Cd 0.46683 0.81495 0.52052 0.0
C215 C 0.44456 0.72661 0.50531 0.0
O216 O 0.44743 0.81432 0.57116 0.0
O217 O 0.49891 0.81322 0.56631 0.0
O218 O 0.49199 0.88062 0.51074 0.0
C219 C 0.47634 0.81698 0.58295 0.0
O220 O 0.42269 0.71818 0.5273 0.0
C221 C 0.52305 0.88606 0.50097 0.0
O222 O 0.46371 0.76015 0.49631 0.0
O223 O 0.52771 0.858 0.49853 0.0
C224 C 0.15318 0.57625 0.50498 0.0
O225 O 0.17586 0.58865 0.52648 0.0
Cd226 Cd 0.18621 0.63853 0.55808 0.0
O227 O 0.13261 0.59018 0.49828 0.0
Cd228 Cd 0.12356 0.64119 0.52026 0.0
C229 C 0.21184 0.70705 0.50521 0.0
O230 O 0.12421 0.62241 0.57089 0.0
O231 O 0.12482 0.67481 0.56604 0.0
O232 O 0.0581 0.60052 0.51029 0.0
C233 C 0.12129 0.64855 0.58267 0.0
O234 O 0.22028 0.69359 0.52723 0.0
C235 C 0.05238 0.626 0.50046 0.0
O236 O 0.17834 0.69277 0.49616 0.0
O237 O 0.08021 0.65873 0.49809 0.0
C238 C 0.36272 0.56588 0.50517 0.0
O239 O 0.35035 0.57631 0.52662 0.0
Cd240 Cd 0.30068 0.53706 0.55834 0.0
O241 O 0.34887 0.53139 0.49861 0.0
Cd242 Cd 0.29803 0.47167 0.52086 0.0
C243 C 0.23205 0.49409 0.50566 0.0
O244 O 0.317 0.49126 0.57145 0.0
O245 O 0.26463 0.43969 0.56674 0.0
O246 O 0.33846 0.44643 0.51091 0.0
C247 C 0.29095 0.46233 0.58331 0.0
O248 O 0.24549 0.51606 0.52761 0.0
C249 C 0.31289 0.41532 0.5012 0.0
O250 O 0.24641 0.47483 0.4967 0.0
O251 O 0.28021 0.41066 0.4989 0.0
C252 C 0.3153 0.27252 0.15802 0.0
C253 C 0.34814 0.28451 0.1618 0.0
C254 C 0.27626 0.25286 0.1548 0.0
C255 C 0.24347 0.23185 0.15101 0.0
C256 C 0.68519 0.01192 0.15458 0.0
C257 C 0.7063 0.00019 0.15073 0.0
C258 C 0.66554 0.03139 0.15784 0.0
C259 C 0.65365 0.05238 0.16167 0.0
C260 C 0.90637 0.62252 0.1578 0.0
C261 C 0.88526 0.58972 0.16157 0.0
C262 C 0.92614 0.66159 0.15459 0.0
C263 C 0.93823 0.69448 0.15079 0.0
C264 C 0.25992 0.32869 0.8216 0.0
C265 C 0.27194 0.36155 0.81776 0.0
C266 C 0.24019 0.28962 0.82486 0.0
C267 C 0.21909 0.25683 0.82863 0.0
C268 C 0.64905 0.93962 0.82404 0.0
C269 C 0.6819 0.95167 0.82784 0.0
C270 C 0.61 0.91992 0.82086 0.0
C271 C 0.57721 0.89887 0.81712 0.0
C272 C 0.019 0.67904 0.82072 0.0
C273 C 0.04005 0.66723 0.81694 0.0
C274 C -0.00061 0.69856 0.82397 0.0
C275 C -0.01247 0.71957 0.82784 0.0
C276 C 0.94328 0.5864 0.48742 0.0
C277 C 0.91047 0.56541 0.48373 0.0
C278 C -0.01766 0.60604 0.49058 0.0
C279 C 0.01518 0.61801 0.49436 0.0
C280 C 0.33258 0.36492 0.49136 0.0
C281 C 0.3207 0.38592 0.49513 0.0
C282 C 0.35222 0.34542 0.48816 0.0
C283 C 0.37332 0.33367 0.48436 0.0
C284 C 0.59322 -0.0049 0.48815 0.0
C285 C 0.60522 0.02798 0.48438 0.0
C286 C 0.57351 0.95601 0.4913 0.0
C287 C 0.55243 0.9232 0.495 0.0
C288 C -0.01434 0.11598 0.16343 0.0
C289 C 0.01687 0.12403 0.15623 0.0
C290 C 0.9463 0.09611 0.16402 0.0
C291 C 0.9151 0.07282 0.15698 0.0
C292 C 0.82308 0.85867 0.16225 0.0
C293 C 0.81491 0.88182 0.15506 0.0
C294 C 0.84315 0.83929 0.16298 0.0
C295 C 0.86662 0.83147 0.15615 0.0
C296 C 0.09993 -0.00804 0.16416 0.0
C297 C 0.10766 0.02321 0.15725 0.0
C298 C 0.08066 0.95257 0.16343 0.0
C299 C 0.05763 0.92136 0.15611 0.0
C300 C 0.08317 0.95959 0.81519 0.0
C301 C 0.05983 0.92835 0.82212 0.0
C302 C 0.10307 -0.00102 0.81589 0.0
C303 C 0.11111 0.03021 0.82316 0.0
C304 C -0.02074 0.11334 0.81501 0.0
C305 C 0.01045 0.12108 0.822 0.0
C306 C 0.9399 0.09405 0.81562 0.0
C307 C 0.90868 0.071 0.82284 0.0
C308 C 0.84584 0.83621 0.81625 0.0
C309 C 0.86895 0.82803 0.82348 0.0
C310 C 0.82648 0.8563 0.81552 0.0
C311 C 0.81866 0.87979 0.82236 0.0
C312 C 0.65265 0.44969 0.4968 0.0
C313 C 0.68384 0.45777 0.48951 0.0
C314 C 0.61329 0.42972 0.4975 0.0
C315 C 0.58208 0.40634 0.49056 0.0
C316 C 0.48977 0.19196 0.49659 0.0
C317 C 0.48166 0.21513 0.48934 0.0
C318 C 0.50979 0.17253 0.4973 0.0
C319 C 0.53321 0.16467 0.49038 0.0
C320 C 0.76661 0.32556 0.49718 0.0
C321 C 0.77437 0.3568 0.49024 0.0
C322 C 0.7473 0.28616 0.49653 0.0
C323 C 0.72422 0.25492 0.48932 0.0
C324 C 0.7492 0.29234 0.14863 0.0
C325 C 0.72585 0.26112 0.1556 0.0
C326 C 0.76914 0.33173 0.14925 0.0
C327 C 0.77723 0.36299 0.15646 0.0
C328 C 0.64535 0.44607 0.1483 0.0
C329 C 0.67658 0.45386 0.15522 0.0
C330 C 0.60599 0.42673 0.14902 0.0
C331 C 0.57482 0.40367 0.15632 0.0
C332 C 0.49244 0.18892 0.14891 0.0
C333 C 0.48466 0.21243 0.1558 0.0
C334 C 0.5118 0.16883 0.14962 0.0
C335 C 0.53491 0.16066 0.15686 0.0
C336 C 0.27993 0.76283 0.83006 0.0
C337 C 0.24872 0.73948 0.8231 0.0
C338 C 0.31929 0.78277 0.82944 0.0
C339 C 0.35053 0.79086 0.82227 0.0
C340 C 0.17639 0.50594 0.8303 0.0
C341 C 0.19989 0.49815 0.82345 0.0
C342 C 0.1563 0.52529 0.82951 0.0
C343 C 0.14814 0.5484 0.82219 0.0
C344 C 0.43353 0.65895 0.83078 0.0
C345 C 0.44133 0.69019 0.8238 0.0
C346 C 0.41415 0.61955 0.83013 0.0
C347 C 0.39105 0.58835 0.82286 0.0
C348 C 0.4364 0.6652 0.48225 0.0
C349 C 0.4445 0.69646 0.48947 0.0
C350 C 0.4164 0.6258 0.48163 0.0
C351 C 0.39302 0.59461 0.48863 0.0
C352 C 0.27318 0.76011 0.48219 0.0
C353 C 0.24196 0.73705 0.4894 0.0
C354 C 0.31254 0.77943 0.48154 0.0
C355 C 0.34376 0.78721 0.48849 0.0
C356 C 0.17888 0.50228 0.48248 0.0
C357 C 0.20201 0.49417 0.48979 0.0
C358 C 0.15949 0.52234 0.48169 0.0
C359 C 0.15167 0.54582 0.48855 0.0
C360 C 0.14599 0.16181 0.0052 0.0
C361 C 0.14202 0.16102 0.03157 0.0
C362 C 0.14858 0.15925 0.97436 0.0
C363 C 0.14783 0.15531 0.94799 0.0
C364 C 0.77923 -0.02016 0.97381 0.0
C365 C 0.78325 -0.01686 0.94745 0.0
C366 C 0.77664 -0.02555 0.00462 0.0
C367 C 0.77745 0.971 0.03096 0.0
C368 C -0.03878 0.78936 0.97403 0.0
C369 C 0.95778 0.79021 0.94769 0.0
C370 C -0.03338 0.79193 0.00484 0.0
C371 C -0.03008 0.79596 0.0312 0.0
C372 C 0.81514 0.49266 0.30736 0.0
C373 C 0.81433 0.48861 0.28099 0.0
C374 C 0.81259 0.49532 0.33819 0.0
C375 C 0.80866 0.49459 0.36456 0.0
C376 C 0.44597 0.31251 0.30763 0.0
C377 C 0.4499 0.31578 0.28126 0.0
C378 C 0.44346 0.3072 0.33845 0.0
C379 C 0.44431 0.30385 0.3648 0.0
C380 C 0.63247 0.12509 0.33847 0.0
C381 C 0.63585 0.12917 0.36482 0.0
C382 C 0.62705 0.12245 0.30766 0.0
C383 C 0.62364 0.12324 0.28131 0.0
C384 C 0.48236 0.82574 0.64059 0.0
C385 C 0.48156 0.82174 0.61422 0.0
C386 C 0.47979 0.82837 0.67142 0.0
C387 C 0.47582 0.82766 0.69779 0.0
C388 C 0.11247 0.64562 0.6403 0.0
C389 C 0.11648 0.64894 0.61394 0.0
C390 C 0.1099 0.64027 0.67111 0.0
C391 C 0.11075 0.63692 0.69746 0.0
C392 C 0.29416 0.45635 0.64091 0.0
C393 C 0.29075 0.45713 0.61456 0.0
C394 C 0.29955 0.45894 0.67172 0.0
C395 C 0.30288 0.46296 0.69809 0.0
loop_
_geom_bond_atom_site_label_1
_geom_bond_atom_site_label_2
_geom_bond_distance
_geom_bond_site_symmetry_2
_ccdc_geom_bond_type
C0 O1 1.306 . S
C0 O3 1.160 . S
O1 C0 1.306 . S
O1 Cd2 2.228 . S
Cd2 O1 2.228 . S
Cd2 O6 2.273 . S
Cd2 O10 2.277 . S
O3 C0 1.160 . S
O3 Cd4 2.203 . S
Cd4 O3 2.203 . S
Cd4 O6 2.411 . S
Cd4 O7 2.333 . S
Cd4 O8 2.352 . S
Cd4 O12 2.277 . S
Cd4 O13 2.356 . S
C5 O10 1.209 . S
C5 O12 1.226 . S
O6 Cd2 2.273 . S
O6 Cd4 2.411 . S
O6 C9 1.320 . S
O7 Cd4 2.333 . S
O7 C9 1.214 . S
O8 Cd4 2.352 . S
O8 C11 1.258 . S
C9 O6 1.320 . S
C9 O7 1.214 . S
O10 Cd2 2.277 . S
O10 C5 1.209 . S
C11 O8 1.258 . S
C11 O13 1.282 . S
O12 Cd4 2.277 . S
O12 C5 1.226 . S
O13 Cd4 2.356 . S
O13 C11 1.282 . S
C14 O15 1.306 . S
C14 O17 1.160 . S
O15 C14 1.306 . S
O15 Cd16 2.228 . S
Cd16 O15 2.228 . S
Cd16 O20 2.273 . S
Cd16 O24 2.277 1_545 S
O17 C14 1.160 . S
O17 Cd18 2.203 . S
Cd18 O17 2.203 . S
Cd18 O20 2.411 . S
Cd18 O21 2.333 1_545 S
Cd18 O22 2.352 . S
Cd18 O26 2.277 1_545 S
Cd18 O27 2.356 1_545 S
C19 O24 1.209 . S
C19 O26 1.226 . S
O20 Cd16 2.273 . S
O20 Cd18 2.411 . S
O20 C23 1.320 1_545 S
O21 Cd18 2.333 1_565 S
O21 C23 1.214 . S
O22 Cd18 2.352 . S
O22 C25 1.258 . S
C23 O20 1.320 1_565 S
C23 O21 1.214 . S
O24 Cd16 2.277 1_565 S
O24 C19 1.209 . S
C25 O22 1.258 . S
C25 O27 1.282 1_545 S
O26 Cd18 2.277 1_565 S
O26 C19 1.226 . S
O27 Cd18 2.356 1_565 S
O27 C25 1.282 1_565 S
C28 O29 1.306 . S
C28 O31 1.160 . S
O29 C28 1.306 . S
O29 Cd30 2.228 . S
Cd30 O29 2.228 . S
Cd30 O34 2.273 . S
Cd30 O38 2.277 1_655 S
O31 C28 1.160 . S
O31 Cd32 2.203 1_655 S
Cd32 O31 2.203 1_455 S
Cd32 O34 2.411 1_455 S
Cd32 O35 2.333 . S
Cd32 O36 2.352 1_455 S
Cd32 O40 2.277 . S
Cd32 O41 2.356 . S
C33 O38 1.209 . S
C33 O40 1.226 . S
O34 Cd30 2.273 . S
O34 Cd32 2.411 1_655 S
O34 C37 1.320 1_655 S
O35 Cd32 2.333 . S
O35 C37 1.214 . S
O36 Cd32 2.352 1_655 S
O36 C39 1.258 . S
C37 O34 1.320 1_455 S
C37 O35 1.214 . S
O38 Cd30 2.277 1_455 S
O38 C33 1.209 . S
C39 O36 1.258 . S
C39 O41 1.282 1_655 S
O40 Cd32 2.277 . S
O40 C33 1.226 . S
O41 Cd32 2.356 . S
O41 C39 1.282 1_455 S
C42 O43 1.306 . S
C42 O45 1.160 . S
O43 C42 1.306 . S
O43 Cd44 2.228 . S
Cd44 O43 2.228 . S
Cd44 O48 2.273 . S
Cd44 O52 2.277 . S
O45 C42 1.160 . S
O45 Cd46 2.203 . S
Cd46 O45 2.203 . S
Cd46 O48 2.411 . S
Cd46 O49 2.333 . S
Cd46 O50 2.352 . S
Cd46 O54 2.277 . S
Cd46 O55 2.356 . S
C47 O52 1.209 . S
C47 O54 1.226 . S
O48 Cd44 2.273 . S
O48 Cd46 2.411 . S
O48 C51 1.320 . S
O49 Cd46 2.333 . S
O49 C51 1.214 . S
O50 Cd46 2.352 . S
O50 C53 1.258 . S
C51 O48 1.320 . S
C51 O49 1.214 . S
O52 Cd44 2.277 . S
O52 C47 1.209 . S
C53 O50 1.258 . S
C53 O55 1.282 . S
O54 Cd46 2.277 . S
O54 C47 1.226 . S
O55 Cd46 2.356 . S
O55 C53 1.282 . S
C56 O57 1.306 . S
C56 O59 1.160 . S
O57 C56 1.306 . S
O57 Cd58 2.228 . S
Cd58 O57 2.228 . S
Cd58 O62 2.273 . S
Cd58 O66 2.277 1_565 S
O59 C56 1.160 . S
O59 Cd60 2.203 1_565 S
Cd60 O59 2.203 1_545 S
Cd60 O62 2.411 1_545 S
Cd60 O63 2.333 . S
Cd60 O64 2.352 1_545 S
Cd60 O68 2.277 . S
Cd60 O69 2.356 . S
C61 O66 1.209 . S
C61 O68 1.226 . S
O62 Cd58 2.273 . S
O62 Cd60 2.411 1_565 S
O62 C65 1.320 1_565 S
O63 Cd60 2.333 . S
O63 C65 1.214 . S
O64 Cd60 2.352 1_565 S
O64 C67 1.258 . S
C65 O62 1.320 1_545 S
C65 O63 1.214 . S
O66 Cd58 2.277 1_545 S
O66 C61 1.209 . S
C67 O64 1.258 . S
C67 O69 1.282 1_565 S
O68 Cd60 2.277 . S
O68 C61 1.226 . S
O69 Cd60 2.356 . S
O69 C67 1.282 1_545 S
C70 O71 1.306 . S
C70 O73 1.160 . S
O71 C70 1.306 . S
O71 Cd72 2.228 . S
Cd72 O71 2.228 . S
Cd72 O76 2.273 . S
Cd72 O80 2.277 1_455 S
O73 C70 1.160 . S
O73 Cd74 2.203 . S
Cd74 O73 2.203 . S
Cd74 O76 2.411 . S
Cd74 O77 2.333 1_455 S
Cd74 O78 2.352 . S
Cd74 O82 2.277 1_455 S
Cd74 O83 2.356 1_455 S
C75 O80 1.209 . S
C75 O82 1.226 . S
O76 Cd72 2.273 . S
O76 Cd74 2.411 . S
O76 C79 1.320 1_455 S
O77 Cd74 2.333 1_655 S
O77 C79 1.214 . S
O78 Cd74 2.352 . S
O78 C81 1.258 . S
C79 O76 1.320 1_655 S
C79 O77 1.214 . S
O80 Cd72 2.277 1_655 S
O80 C75 1.209 . S
C81 O78 1.258 . S
C81 O83 1.282 1_455 S
O82 Cd74 2.277 1_655 S
O82 C75 1.226 . S
O83 Cd74 2.356 1_655 S
O83 C81 1.282 1_655 S
C84 O85 1.306 . S
C84 O87 1.160 . S
O85 C84 1.306 . S
O85 Cd86 2.228 . S
Cd86 O85 2.228 . S
Cd86 O90 2.273 . S
Cd86 O94 2.277 . S
O87 C84 1.160 . S
O87 Cd88 2.203 . S
Cd88 O87 2.203 . S
Cd88 O90 2.411 . S
Cd88 O91 2.333 . S
Cd88 O92 2.352 . S
Cd88 O96 2.277 . S
Cd88 O97 2.356 . S
C89 O94 1.209 . S
C89 O96 1.226 . S
O90 Cd86 2.273 . S
O90 Cd88 2.411 . S
O90 C93 1.320 . S
O91 Cd88 2.333 . S
O91 C93 1.214 . S
O92 Cd88 2.352 . S
O92 C95 1.258 . S
C93 O90 1.320 . S
C93 O91 1.214 . S
O94 Cd86 2.277 . S
O94 C89 1.209 . S
C95 O92 1.258 . S
C95 O97 1.282 . S
O96 Cd88 2.277 . S
O96 C89 1.226 . S
O97 Cd88 2.356 . S
O97 C95 1.282 . S
C98 O99 1.306 . S
C98 O101 1.160 . S
O99 C98 1.306 . S
O99 Cd100 2.228 . S
Cd100 O99 2.228 . S
Cd100 O104 2.273 . S
Cd100 O108 2.277 . S
O101 C98 1.160 . S
O101 Cd102 2.203 . S
Cd102 O101 2.203 . S
Cd102 O104 2.411 . S
Cd102 O105 2.333 . S
Cd102 O106 2.352 . S
Cd102 O110 2.277 . S
Cd102 O111 2.356 . S
C103 O108 1.209 . S
C103 O110 1.226 . S
O104 Cd100 2.273 . S
O104 Cd102 2.411 . S
O104 C107 1.320 . S
O105 Cd102 2.333 . S
O105 C107 1.214 . S
O106 Cd102 2.352 . S
O106 C109 1.258 . S
C107 O104 1.320 . S
C107 O105 1.214 . S
O108 Cd100 2.277 . S
O108 C103 1.209 . S
C109 O106 1.258 . S
C109 O111 1.282 . S
O110 Cd102 2.277 . S
O110 C103 1.226 . S
O111 Cd102 2.356 . S
O111 C109 1.282 . S
C112 O113 1.306 . S
C112 O115 1.160 . S
O113 C112 1.306 . S
O113 Cd114 2.228 . S
Cd114 O113 2.228 . S
Cd114 O118 2.273 . S
Cd114 O122 2.277 . S
O115 C112 1.160 . S
O115 Cd116 2.203 . S
Cd116 O115 2.203 . S
Cd116 O118 2.411 . S
Cd116 O119 2.333 . S
Cd116 O120 2.352 . S
Cd116 O124 2.277 . S
Cd116 O125 2.356 . S
C117 O122 1.209 . S
C117 O124 1.226 . S
O118 Cd114 2.273 . S
O118 Cd116 2.411 . S
O118 C121 1.320 . S
O119 Cd116 2.333 . S
O119 C121 1.214 . S
O120 Cd116 2.352 . S
O120 C123 1.258 . S
C121 O118 1.320 . S
C121 O119 1.214 . S
O122 Cd114 2.277 . S
O122 C117 1.209 . S
C123 O120 1.258 . S
C123 O125 1.282 . S
O124 Cd116 2.277 . S
O124 C117 1.226 . S
O125 Cd116 2.356 . S
O125 C123 1.282 . S
C126 O127 1.306 . S
C126 O129 1.160 . S
O127 C126 1.306 . S
O127 Cd128 2.228 . S
Cd128 O127 2.228 . S
Cd128 O132 2.273 . S
Cd128 O136 2.277 . S
O129 C126 1.160 . S
O129 Cd130 2.203 . S
Cd130 O129 2.203 . S
Cd130 O132 2.411 . S
Cd130 O133 2.333 . S
Cd130 O134 2.352 . S
Cd130 O138 2.277 . S
Cd130 O139 2.356 . S
C131 O136 1.209 . S
C131 O138 1.226 . S
O132 Cd128 2.273 . S
O132 Cd130 2.411 . S
O132 C135 1.320 . S
O133 Cd130 2.333 . S
O133 C135 1.214 . S
O134 Cd130 2.352 . S
O134 C137 1.258 . S
C135 O132 1.320 . S
C135 O133 1.214 . S
O136 Cd128 2.277 . S
O136 C131 1.209 . S
C137 O134 1.258 . S
C137 O139 1.282 . S
O138 Cd130 2.277 . S
O138 C131 1.226 . S
O139 Cd130 2.356 . S
O139 C137 1.282 . S
C140 O141 1.306 . S
C140 O143 1.160 . S
O141 C140 1.306 . S
O141 Cd142 2.228 . S
Cd142 O141 2.228 . S
Cd142 O146 2.273 . S
Cd142 O150 2.277 . S
O143 C140 1.160 . S
O143 Cd144 2.203 . S
Cd144 O143 2.203 . S
Cd144 O146 2.411 . S
Cd144 O147 2.333 . S
Cd144 O148 2.352 . S
Cd144 O152 2.277 . S
Cd144 O153 2.356 . S
C145 O150 1.209 . S
C145 O152 1.226 . S
O146 Cd142 2.273 . S
O146 Cd144 2.411 . S
O146 C149 1.320 . S
O147 Cd144 2.333 . S
O147 C149 1.214 . S
O148 Cd144 2.352 . S
O148 C151 1.258 . S
C149 O146 1.320 . S
C149 O147 1.214 . S
O150 Cd142 2.277 . S
O150 C145 1.209 . S
C151 O148 1.258 . S
C151 O153 1.282 . S
O152 Cd144 2.277 . S
O152 C145 1.226 . S
O153 Cd144 2.356 . S
O153 C151 1.282 . S
C154 O155 1.306 . S
C154 O157 1.160 . S
O155 C154 1.306 . S
O155 Cd156 2.228 . S
Cd156 O155 2.228 . S
Cd156 O160 2.273 . S
Cd156 O164 2.277 . S
O157 C154 1.160 . S
O157 Cd158 2.203 . S
Cd158 O157 2.203 . S
Cd158 O160 2.411 . S
Cd158 O161 2.333 . S
Cd158 O162 2.352 . S
Cd158 O166 2.277 . S
Cd158 O167 2.356 . S
C159 O164 1.209 . S
C159 O166 1.226 . S
O160 Cd156 2.273 . S
O160 Cd158 2.411 . S
O160 C163 1.320 . S
O161 Cd158 2.333 . S
O161 C163 1.214 . S
O162 Cd158 2.352 . S
O162 C165 1.258 . S
C163 O160 1.320 . S
C163 O161 1.214 . S
O164 Cd156 2.277 . S
O164 C159 1.209 . S
C165 O162 1.258 . S
C165 O167 1.282 . S
O166 Cd158 2.277 . S
O166 C159 1.226 . S
O167 Cd158 2.356 . S
O167 C165 1.282 . S
C168 O169 1.306 . S
C168 O171 1.160 . S
O169 C168 1.306 . S
O169 Cd170 2.228 . S
Cd170 O169 2.228 . S
Cd170 O174 2.273 . S
Cd170 O178 2.277 . S
O171 C168 1.160 . S
O171 Cd172 2.203 . S
Cd172 O171 2.203 . S
Cd172 O174 2.411 . S
Cd172 O175 2.333 . S
Cd172 O176 2.352 . S
Cd172 O180 2.277 . S
Cd172 O181 2.356 . S
C173 O178 1.209 . S
C173 O180 1.226 . S
O174 Cd170 2.273 . S
O174 Cd172 2.411 . S
O174 C177 1.320 . S
O175 Cd172 2.333 . S
O175 C177 1.214 . S
O176 Cd172 2.352 . S
O176 C179 1.258 . S
C177 O174 1.320 . S
C177 O175 1.214 . S
O178 Cd170 2.277 . S
O178 C173 1.209 . S
C179 O176 1.258 . S
C179 O181 1.282 . S
O180 Cd172 2.277 . S
O180 C173 1.226 . S
O181 Cd172 2.356 . S
O181 C179 1.282 . S
C182 O183 1.306 . S
C182 O185 1.160 . S
O183 C182 1.306 . S
O183 Cd184 2.228 . S
Cd184 O183 2.228 . S
Cd184 O188 2.273 . S
Cd184 O192 2.277 . S
O185 C182 1.160 . S
O185 Cd186 2.203 . S
Cd186 O185 2.203 . S
Cd186 O188 2.411 . S
Cd186 O189 2.333 . S
Cd186 O190 2.352 . S
Cd186 O194 2.277 . S
Cd186 O195 2.356 . S
C187 O192 1.209 . S
C187 O194 1.226 . S
O188 Cd184 2.273 . S
O188 Cd186 2.411 . S
O188 C191 1.320 . S
O189 Cd186 2.333 . S
O189 C191 1.214 . S
O190 Cd186 2.352 . S
O190 C193 1.258 . S
C191 O188 1.320 . S
C191 O189 1.214 . S
O192 Cd184 2.277 . S
O192 C187 1.209 . S
C193 O190 1.258 . S
C193 O195 1.282 . S
O194 Cd186 2.277 . S
O194 C187 1.226 . S
O195 Cd186 2.356 . S
O195 C193 1.282 . S
C196 O197 1.306 . S
C196 O199 1.160 . S
O197 C196 1.306 . S
O197 Cd198 2.228 . S
Cd198 O197 2.228 . S
Cd198 O202 2.273 . S
Cd198 O206 2.277 . S
O199 C196 1.160 . S
O199 Cd200 2.203 . S
Cd200 O199 2.203 . S
Cd200 O202 2.411 . S
Cd200 O203 2.333 . S
Cd200 O204 2.352 . S
Cd200 O208 2.277 . S
Cd200 O209 2.356 . S
C201 O206 1.209 . S
C201 O208 1.226 . S
O202 Cd198 2.273 . S
O202 Cd200 2.411 . S
O202 C205 1.320 . S
O203 Cd200 2.333 . S
O203 C205 1.214 . S
O204 Cd200 2.352 . S
O204 C207 1.258 . S
C205 O202 1.320 . S
C205 O203 1.214 . S
O206 Cd198 2.277 . S
O206 C201 1.209 . S
C207 O204 1.258 . S
C207 O209 1.282 . S
O208 Cd200 2.277 . S
O208 C201 1.226 . S
O209 Cd200 2.356 . S
O209 C207 1.282 . S
C210 O211 1.306 . S
C210 O213 1.160 . S
O211 C210 1.306 . S
O211 Cd212 2.228 . S
Cd212 O211 2.228 . S
Cd212 O216 2.273 . S
Cd212 O220 2.277 . S
O213 C210 1.160 . S
O213 Cd214 2.203 . S
Cd214 O213 2.203 . S
Cd214 O216 2.411 . S
Cd214 O217 2.333 . S
Cd214 O218 2.352 . S
Cd214 O222 2.277 . S
Cd214 O223 2.356 . S
C215 O220 1.209 . S
C215 O222 1.226 . S
O216 Cd212 2.273 . S
O216 Cd214 2.411 . S
O216 C219 1.320 . S
O217 Cd214 2.333 . S
O217 C219 1.214 . S
O218 Cd214 2.352 . S
O218 C221 1.258 . S
C219 O216 1.320 . S
C219 O217 1.214 . S
O220 Cd212 2.277 . S
O220 C215 1.209 . S
C221 O218 1.258 . S
C221 O223 1.282 . S
O222 Cd214 2.277 . S
O222 C215 1.226 . S
O223 Cd214 2.356 . S
O223 C221 1.282 . S
C224 O225 1.306 . S
C224 O227 1.160 . S
O225 C224 1.306 . S
O225 Cd226 2.228 . S
Cd226 O225 2.228 . S
Cd226 O230 2.273 . S
Cd226 O234 2.277 . S
O227 C224 1.160 . S
O227 Cd228 2.203 . S
Cd228 O227 2.203 . S
Cd228 O230 2.411 . S
Cd228 O231 2.333 . S
Cd228 O232 2.352 . S
Cd228 O236 2.277 . S
Cd228 O237 2.356 . S
C229 O234 1.209 . S
C229 O236 1.226 . S
O230 Cd226 2.273 . S
O230 Cd228 2.411 . S
O230 C233 1.320 . S
O231 Cd228 2.333 . S
O231 C233 1.214 . S
O232 Cd228 2.352 . S
O232 C235 1.258 . S
C233 O230 1.320 . S
C233 O231 1.214 . S
O234 Cd226 2.277 . S
O234 C229 1.209 . S
C235 O232 1.258 . S
C235 O237 1.282 . S
O236 Cd228 2.277 . S
O236 C229 1.226 . S
O237 Cd228 2.356 . S
O237 C235 1.282 . S
C238 O239 1.306 . S
C238 O241 1.160 . S
O239 C238 1.306 . S
O239 Cd240 2.228 . S
Cd240 O239 2.228 . S
Cd240 O244 2.273 . S
Cd240 O248 2.277 . S
O241 C238 1.160 . S
O241 Cd242 2.203 . S
Cd242 O241 2.203 . S
Cd242 O244 2.411 . S
Cd242 O245 2.333 . S
Cd242 O246 2.352 . S
Cd242 O250 2.277 . S
Cd242 O251 2.356 . S
C243 O248 1.209 . S
C243 O250 1.226 . S
O244 Cd240 2.273 . S
O244 Cd242 2.411 . S
O244 C247 1.320 . S
O245 Cd242 2.333 . S
O245 C247 1.214 . S
O246 Cd242 2.352 . S
O246 C249 1.258 . S
C247 O244 1.320 . S
C247 O245 1.214 . S
O248 Cd240 2.277 . S
O248 C243 1.209 . S
C249 O246 1.258 . S
C249 O251 1.282 . S
O250 Cd242 2.277 . S
O250 C243 1.226 . S
O251 Cd242 2.356 . S
O251 C249 1.282 . S
C252 C253 1.170 . S
C252 C254 1.380 . S
C253 C252 1.170 . S
C254 C252 1.380 . S
C254 C255 1.170 . S
C255 C254 1.170 . S
C256 C257 1.170 . S
C256 C258 1.380 . S
C257 C256 1.170 . S
C258 C256 1.380 . S
C258 C259 1.170 . S
C259 C258 1.170 . S
C260 C261 1.170 . S
C260 C262 1.380 . S
C261 C260 1.170 . S
C262 C260 1.380 . S
C262 C263 1.170 . S
C263 C262 1.170 . S
C264 C265 1.170 . S
C264 C266 1.380 . S
C265 C264 1.170 . S
C266 C264 1.380 . S
C266 C267 1.170 . S
C267 C266 1.170 . S
C268 C269 1.170 . S
C268 C270 1.380 . S
C269 C268 1.170 . S
C270 C268 1.380 . S
C270 C271 1.170 . S
C271 C270 1.170 . S
C272 C273 1.170 . S
C272 C274 1.380 . S
C273 C272 1.170 . S
C274 C272 1.380 . S
C274 C275 1.170 . S
C275 C274 1.170 . S
C276 C277 1.170 . S
C276 C278 1.380 1_655 S
C277 C276 1.170 . S
C278 C276 1.380 1_455 S
C278 C279 1.170 . S
C279 C278 1.170 . S
C280 C281 1.170 . S
C280 C282 1.380 . S
C281 C280 1.170 . S
C282 C280 1.380 . S
C282 C283 1.170 . S
C283 C282 1.170 . S
C284 C285 1.170 . S
C284 C286 1.380 1_545 S
C285 C284 1.170 . S
C286 C284 1.380 1_565 S
C286 C287 1.170 . S
C287 C286 1.170 . S
C288 C289 1.170 . S
C288 C290 1.380 1_455 S
C289 C288 1.170 . S
C290 C288 1.380 1_655 S
C290 C291 1.170 . S
C291 C290 1.170 . S
C292 C293 1.170 . S
C292 C294 1.380 . S
C293 C292 1.170 . S
C294 C292 1.380 . S
C294 C295 1.170 . S
C295 C294 1.170 . S
C296 C297 1.170 . S
C296 C298 1.380 1_545 S
C297 C296 1.170 . S
C298 C296 1.380 1_565 S
C298 C299 1.170 . S
C299 C298 1.170 . S
C300 C301 1.170 . S
C300 C302 1.380 1_565 S
C301 C300 1.170 . S
C302 C300 1.380 1_545 S
C302 C303 1.170 . S
C303 C302 1.170 . S
C304 C305 1.170 . S
C304 C306 1.380 1_455 S
C305 C304 1.170 . S
C306 C304 1.380 1_655 S
C306 C307 1.170 . S
C307 C306 1.170 . S
C308 C309 1.170 . S
C308 C310 1.380 . S
C309 C308 1.170 . S
C310 C308 1.380 . S
C310 C311 1.170 . S
C311 C310 1.170 . S
C312 C313 1.170 . S
C312 C314 1.380 . S
C313 C312 1.170 . S
C314 C312 1.380 . S
C314 C315 1.170 . S
C315 C314 1.170 . S
C316 C317 1.170 . S
C316 C318 1.380 . S
C317 C316 1.170 . S
C318 C316 1.380 . S
C318 C319 1.170 . S
C319 C318 1.170 . S
C320 C321 1.170 . S
C320 C322 1.380 . S
C321 C320 1.170 . S
C322 C320 1.380 . S
C322 C323 1.170 . S
C323 C322 1.170 . S
C324 C325 1.170 . S
C324 C326 1.380 . S
C325 C324 1.170 . S
C326 C324 1.380 . S
C326 C327 1.170 . S
C327 C326 1.170 . S
C328 C329 1.170 . S
C328 C330 1.380 . S
C329 C328 1.170 . S
C330 C328 1.380 . S
C330 C331 1.170 . S
C331 C330 1.170 . S
C332 C333 1.170 . S
C332 C334 1.380 . S
C333 C332 1.170 . S
C334 C332 1.380 . S
C334 C335 1.170 . S
C335 C334 1.170 . S
C336 C337 1.170 . S
C336 C338 1.380 . S
C337 C336 1.170 . S
C338 C336 1.380 . S
C338 C339 1.170 . S
C339 C338 1.170 . S
C340 C341 1.170 . S
C340 C342 1.380 . S
C341 C340 1.170 . S
C342 C340 1.380 . S
C342 C343 1.170 . S
C343 C342 1.170 . S
C344 C345 1.170 . S
C344 C346 1.380 . S
C345 C344 1.170 . S
C346 C344 1.380 . S
C346 C347 1.170 . S
C347 C346 1.170 . S
C348 C349 1.170 . S
C348 C350 1.380 . S
C349 C348 1.170 . S
C350 C348 1.380 . S
C350 C351 1.170 . S
C351 C350 1.170 . S
C352 C353 1.170 . S
C352 C354 1.380 . S
C353 C352 1.170 . S
C354 C352 1.380 . S
C354 C355 1.170 . S
C355 C354 1.170 . S
C356 C357 1.170 . S
C356 C358 1.380 . S
C357 C356 1.170 . S
C358 C356 1.380 . S
C358 C359 1.170 . S
C359 C358 1.170 . S
C360 C361 1.170 . S
C360 C362 1.380 1_554 S
C361 C360 1.170 . S
C362 C360 1.380 1_556 S
C362 C363 1.170 . S
C363 C362 1.170 . S
C364 C365 1.170 . S
C364 C366 1.380 1_546 S
C365 C364 1.170 . S
C366 C364 1.380 1_564 S
C366 C367 1.170 . S
C367 C366 1.170 . S
C368 C369 1.170 1_455 S
C368 C370 1.380 1_556 S
C369 C368 1.170 1_655 S
C370 C368 1.380 1_554 S
C370 C371 1.170 . S
C371 C370 1.170 . S
C372 C373 1.170 . S
C372 C374 1.380 . S
C373 C372 1.170 . S
C374 C372 1.380 . S
C374 C375 1.170 . S
C375 C374 1.170 . S
C376 C377 1.170 . S
C376 C378 1.380 . S
C377 C376 1.170 . S
C378 C376 1.380 . S
C378 C379 1.170 . S
C379 C378 1.170 . S
C380 C381 1.170 . S
C380 C382 1.380 . S
C381 C380 1.170 . S
C382 C380 1.380 . S
C382 C383 1.170 . S
C383 C382 1.170 . S
C384 C385 1.170 . S
C384 C386 1.380 . S
C385 C384 1.170 . S
C386 C384 1.380 . S
C386 C387 1.170 . S
C387 C386 1.170 . S
C388 C389 1.170 . S
C388 C390 1.380 . S
C389 C388 1.170 . S
C390 C388 1.380 . S
C390 C391 1.170 . S
C391 C390 1.170 . S
C392 C393 1.170 . S
C392 C394 1.380 . S
C393 C392 1.170 . S
C394 C392 1.380 . S
C394 C395 1.170 . S
C395 C394 1.170 . S
C253 C151 1.245 . S
C255 C11 1.269 . S
C257 C25 1.244 . S
C259 C165 1.275 . S
C261 C137 1.248 . S
C263 C39 1.262 . S
C265 C207 1.264 . S
C267 C53 1.248 . S
C269 C67 1.275 . S
C271 C179 1.244 . S
C273 C193 1.245 . S
C275 C81 1.276 . S
C277 C95 1.248 . S
C279 C235 1.277 . S
C281 C249 1.269 . S
C283 C109 1.245 . S
C285 C123 1.276 . S
C287 C221 1.245 . S
C289 C5 1.211 . S
C291 C14 1.216 . S
C293 C19 1.164 . S
C295 C28 1.166 . S
C297 C0 1.215 . S
C299 C33 1.212 . S
C301 C70 1.178 . S
C303 C47 1.179 . S
C305 C42 1.217 . S
C307 C61 1.211 . S
C309 C75 1.162 . S
C311 C56 1.165 . S
C313 C89 1.163 . S
C315 C98 1.175 . S
C317 C103 1.174 . S
C319 C112 1.188 . S
C321 C84 1.169 . S
C323 C117 1.168 . S
C325 C154 1.176 . S
C327 C131 1.177 . S
C329 C126 1.166 . S
C331 C145 1.156 . S
C333 C140 1.169 . S
C335 C159 1.169 . S
C337 C182 1.178 . S
C339 C173 1.179 . S
C341 C196 1.180 . S
C343 C187 1.166 . S
C345 C168 1.215 . S
C347 C201 1.207 . S
C349 C215 1.177 . S
C351 C238 1.191 . S
C353 C229 1.185 . S
C355 C210 1.199 . S
C357 C243 1.181 . S
C359 C224 1.180 . S
C361 C9 1.695 . S
C363 C51 1.695 . S
C365 C65 1.693 . S
C367 C23 1.703 . S
C369 C79 1.685 . S
C371 C37 1.708 . S
C373 C135 1.687 . S
C375 C93 1.705 . S
C377 C149 1.708 . S
C379 C107 1.685 . S
C381 C121 1.693 . S
C383 C163 1.698 . S
C385 C219 1.704 . S
C387 C177 1.692 . S
C389 C233 1.693 . S
C391 C191 1.703 . S
C393 C247 1.706 . S
C395 C205 1.686 . S
