# Generated by pormake.
# Topology dia-a, (4)-cn, num edge types: 1
# Building blocks:
#     Node 0, Type 0, BuildingBlock: AZAVOO_clean_sbu_0, # of connection points: 4
#     Node 1, Type 0, BuildingBlock: AZAVOO_clean_sbu_0, # of connection points: 4
#     Node 2, Type 0, BuildingBlock: AZAVOO_clean_sbu_0, # of connection points: 4
#     Node 3, Type 0, BuildingBlock: AZAVOO_clean_sbu_0, # of connection points: 4
#     Node 4, Type 0, BuildingBlock: AZAVOO_clean_sbu_0, # of connection points: 4
#     Node 5, Type 0, BuildingBlock: AZAVOO_clean_sbu_0, # of connection points: 4
#     Node 6, Type 0, BuildingBlock: AZAVOO_clean_sbu_0, # of connection points: 4
#     Node 7, Type 0, BuildingBlock: AZAVOO_clean_sbu_0, # of connection points: 4
#     Node 8, Type 0, BuildingBlock: AZAVOO_clean_sbu_0, # of connection points: 4
#     Node 9, Type 0, BuildingBlock: AZAVOO_clean_sbu_0, # of connection points: 4
#     Node 10, Type 0, BuildingBlock: AZAVOO_clean_sbu_0, # of connection points: 4
#     Node 11, Type 0, BuildingBlock: AZAVOO_clean_sbu_0, # of connection points: 4
#     Node 12, Type 0, BuildingBlock: AZAVOO_clean_sbu_0, # of connection points: 4
#     Node 13, Type 0, BuildingBlock: AZAVOO_clean_sbu_0, # of connection points: 4
#     Node 14, Type 0, BuildingBlock: AZAVOO_clean_sbu_0, # of connection points: 4
#     Node 15, Type 0, BuildingBlock: AZAVOO_clean_sbu_0, # of connection points: 4
#     Node 16, Type 0, BuildingBlock: AZAVOO_clean_sbu_0, # of connection points: 4
#     Node 17, Type 0, BuildingBlock: AZAVOO_clean_sbu_0, # of connection points: 4
#     Node 18, Type 0, BuildingBlock: AZAVOO_clean_sbu_0, # of connection points: 4
#     Node 19, Type 0, BuildingBlock: AZAVOO_clean_sbu_0, # of connection points: 4
#     Node 20, Type 0, BuildingBlock: AZAVOO_clean_sbu_0, # of connection points: 4
#     Node 21, Type 0, BuildingBlock: AZAVOO_clean_sbu_0, # of connection points: 4
#     Node 22, Type 0, BuildingBlock: AZAVOO_clean_sbu_0, # of connection points: 4
#     Node 23, Type 0, BuildingBlock: AZAVOO_clean_sbu_0, # of connection points: 4
#     Node 24, Type 0, BuildingBlock: AZAVOO_clean_sbu_0, # of connection points: 4
#     Node 25, Type 0, BuildingBlock: AZAVOO_clean_sbu_0, # of connection points: 4
#     Node 26, Type 0, BuildingBlock: AZAVOO_clean_sbu_0, # of connection points: 4
#     Node 27, Type 0, BuildingBlock: AZAVOO_clean_sbu_0, # of connection points: 4
#     Node 28, Type 0, BuildingBlock: AZAVOO_clean_sbu_0, # of connection points: 4
#     Node 29, Type 0, BuildingBlock: AZAVOO_clean_sbu_0, # of connection points: 4
#     Node 30, Type 0, BuildingBlock: AZAVOO_clean_sbu_0, # of connection points: 4
#     Node 31, Type 0, BuildingBlock: AZAVOO_clean_sbu_0, # of connection points: 4
#     Edge 32, Type (0, 0), None
#     Edge 33, Type (0, 0), None
#     Edge 34, Type (0, 0), None
#     Edge 35, Type (0, 0), None
#     Edge 36, Type (0, 0), None
#     Edge 37, Type (0, 0), None
#     Edge 38, Type (0, 0), None
#     Edge 39, Type (0, 0), None
#     Edge 40, Type (0, 0), None
#     Edge 41, Type (0, 0), None
#     Edge 42, Type (0, 0), None
#     Edge 43, Type (0, 0), None
#     Edge 44, Type (0, 0), None
#     Edge 45, Type (0, 0), None
#     Edge 46, Type (0, 0), None
#     Edge 47, Type (0, 0), None
#     Edge 48, Type (0, 0), None
#     Edge 49, Type (0, 0), None
#     Edge 50, Type (0, 0), None
#     Edge 51, Type (0, 0), None
#     Edge 52, Type (0, 0), None
#     Edge 53, Type (0, 0), None
#     Edge 54, Type (0, 0), None
#     Edge 55, Type (0, 0), None
#     Edge 56, Type (0, 0), None
#     Edge 57, Type (0, 0), None
#     Edge 58, Type (0, 0), None
#     Edge 59, Type (0, 0), None
#     Edge 60, Type (0, 0), None
#     Edge 61, Type (0, 0), None
#     Edge 62, Type (0, 0), None
#     Edge 63, Type (0, 0), None
#     Edge 64, Type (0, 0), None
#     Edge 65, Type (0, 0), None
#     Edge 66, Type (0, 0), None
#     Edge 67, Type (0, 0), None
#     Edge 68, Type (0, 0), None
#     Edge 69, Type (0, 0), None
#     Edge 70, Type (0, 0), None
#     Edge 71, Type (0, 0), None
#     Edge 72, Type (0, 0), None
#     Edge 73, Type (0, 0), None
#     Edge 74, Type (0, 0), None
#     Edge 75, Type (0, 0), None
#     Edge 76, Type (0, 0), None
#     Edge 77, Type (0, 0), None
#     Edge 78, Type (0, 0), None
#     Edge 79, Type (0, 0), None
#     Edge 80, Type (0, 0), None
#     Edge 81, Type (0, 0), None
#     Edge 82, Type (0, 0), None
#     Edge 83, Type (0, 0), None
#     Edge 84, Type (0, 0), None
#     Edge 85, Type (0, 0), None
#     Edge 86, Type (0, 0), None
#     Edge 87, Type (0, 0), None
#     Edge 88, Type (0, 0), None
#     Edge 89, Type (0, 0), None
#     Edge 90, Type (0, 0), None
#     Edge 91, Type (0, 0), None
#     Edge 92, Type (0, 0), None
#     Edge 93, Type (0, 0), None
#     Edge 94, Type (0, 0), None
#     Edge 95, Type (0, 0), None
# Relax obj value: 0.732
# Max RMSD: 0.320
# Mean RMSD: 0.298
data_MOF--net-dia-a--node1-AZAVOO_clean_sbu_0--edge1-none
_symmetry_space_group_name_H-M    P1
_symmetry_Int_Tables_number       1
_symmetry_cell_setting            triclinic
loop_
_symmetry_equiv_pos_as_xyz
'x, y, z'
_cell_length_a     19.878624
_cell_length_b     29.712867
_cell_length_c     35.823674
_cell_angle_alpha  87.747396
_cell_angle_beta   100.31337
_cell_angle_gamma 122.31293
loop_
_atom_site_label
_atom_site_type_symbol
_atom_site_fract_x
_atom_site_fract_y
_atom_site_fract_z
_atom_type_partial_charge
Mg0 Mg 0.9007 0.99988 0.57801 0.0
O1 O -0.00112 0.08386 0.5648 0.0
O2 O 0.00914 0.09286 0.62648 0.0
Mg3 Mg 0.95519 0.05081 0.68019 0.0
C4 C 0.03412 0.11239 0.59587 0.0
C5 C 0.9581 0.96498 0.50422 0.0
O6 O 0.92985 0.92268 0.48171 0.0
O7 O 0.0286 0.01821 0.61486 0.0
O8 O 0.98291 0.99067 0.66682 0.0
O9 O 0.84495 0.05495 0.57511 0.0
O10 O 0.86893 0.02726 0.62746 0.0
C11 C 0.04367 0.01538 0.65074 0.0
C12 C 0.85089 0.0587 0.61088 0.0
O13 O 0.91489 0.96228 0.52754 0.0
Mg14 Mg 0.96534 0.34399 0.80111 0.0
O15 O 0.86458 0.25 0.81091 0.0
O16 O 0.94615 0.28403 0.86309 0.0
Mg17 Mg 0.94525 0.34284 0.81864 0.0
C18 C 0.88231 0.24397 0.84582 0.0
C19 C 0.02722 0.29286 0.74562 0.0
O20 O 0.08758 0.29381 0.73503 0.0
O21 O 0.8852 0.3433 0.74375 0.0
O22 O 0.92476 0.40815 0.78228 0.0
O23 O 0.07096 0.43531 0.8059 0.0
O24 O 0.06353 0.39301 0.85544 0.0
C25 C 0.88145 0.38338 0.75079 0.0
C26 C 0.09598 0.43814 0.84179 0.0
O27 O 0.04328 0.3244 0.7736 0.0
Mg28 Mg 0.80744 0.24939 0.08965 0.0
O29 O 0.68275 0.1755 0.08559 0.0
O30 O 0.67007 0.20586 0.13738 0.0
Mg31 Mg 0.76732 0.2803 0.18122 0.0
C32 C 0.63946 0.17212 0.10891 0.0
C33 C 0.72751 0.27996 0.01488 0.0
O34 O 0.69197 0.3035 -0.00288 0.0
O35 O 0.72643 0.28989 0.0877 0.0
O36 O 0.78404 0.34016 0.13965 0.0
O37 O 0.85464 0.20204 0.1319 0.0
O38 O 0.83814 0.26081 0.15293 0.0
C39 C 0.72168 0.31551 0.11423 0.0
C40 C 0.85265 0.22442 0.16087 0.0
O41 O 0.75467 0.29052 0.05061 0.0
Mg42 Mg 0.67805 0.8722 0.30301 0.0
O43 O 0.76188 0.92635 0.35674 0.0
O44 O 0.85786 0.93001 0.33198 0.0
Mg45 Mg 0.81522 0.8395 0.31385 0.0
C46 C 0.83656 0.9483 0.35585 0.0
C47 C 0.66353 0.978 0.28089 0.0
O48 O 0.6179 0.99802 0.2747 0.0
O49 O 0.78747 0.91324 0.26561 0.0
O50 O 0.75236 0.83333 0.25346 0.0
O51 O 0.58985 0.80174 0.33881 0.0
O52 O 0.70106 0.81446 0.32774 0.0
C53 C 0.80376 0.88193 0.25161 0.0
C54 C 0.63834 0.78495 0.34187 0.0
O55 O 0.6303 0.92836 0.28657 0.0
Mg56 Mg 0.00982 0.20712 0.67127 0.0
O57 O 0.08064 0.20408 0.73102 0.0
O58 O 0.05056 0.14433 0.68928 0.0
Mg59 Mg 0.04392 0.20673 0.64881 0.0
C60 C 0.07786 0.16179 0.72346 0.0
C61 C 0.94411 0.25765 0.72422 0.0
O62 O 0.88365 0.25633 0.73507 0.0
O63 O 0.11381 0.29942 0.66394 0.0
O64 O 0.06553 0.27015 0.60584 0.0
O65 O 0.90353 0.11624 0.66767 0.0
O66 O 0.91967 0.15409 0.61544 0.0
C67 C 0.12042 0.30814 0.62925 0.0
C68 C 0.88169 0.11093 0.63156 0.0
O69 O 0.92839 0.22641 0.69607 0.0
Mg70 Mg 0.70764 0.20059 0.90776 0.0
O71 O 0.82298 0.28198 0.92277 0.0
O72 O 0.81169 0.30527 0.86314 0.0
Mg73 Mg 0.72969 0.23644 0.81241 0.0
C74 C 0.84446 0.31727 0.89872 0.0
C75 C 0.7346 0.24238 0.99326 0.0
O76 O 0.80322 0.2443 -0.00094 0.0
O77 O 0.66774 0.26019 0.87955 0.0
O78 O 0.60981 0.21415 0.82633 0.0
O79 O 0.83508 0.21546 0.90409 0.0
O80 O 0.74511 0.18808 0.85423 0.0
C81 C 0.6236 0.25257 0.84701 0.0
C82 C 0.81906 0.20686 0.86814 0.0
O83 O 0.68365 0.22009 0.96261 0.0
Mg84 Mg 0.74496 0.1204 0.25946 0.0
O85 O 0.64411 0.0585 0.21466 0.0
O86 O 0.67259 0.11331 0.16875 0.0
Mg87 Mg 0.71046 0.19715 0.19878 0.0
C88 C 0.63427 0.06583 0.17962 0.0
C89 C 0.75125 0.0131 0.28199 0.0
O90 O 0.79785 0.99464 0.29193 0.0
O91 O 0.8225 0.15645 0.20716 0.0
O92 O 0.84132 0.2316 0.22279 0.0
O93 O 0.62348 0.10739 0.2778 0.0
O94 O 0.70643 0.17545 0.25365 0.0
C95 C 0.85202 0.2057 0.20049 0.0
C96 C 0.63981 0.15162 0.26393 0.0
O97 O 0.78473 0.06179 0.27428 0.0
Mg98 Mg 0.02268 0.96849 0.41716 0.0
O99 O 0.9651 0.87978 0.43239 0.0
O100 O 0.90523 0.88562 0.37737 0.0
Mg101 Mg 0.01664 0.96005 0.36789 0.0
C102 C 0.90529 0.85833 0.40483 0.0
C103 C 0.04023 0.01117 0.50398 0.0
O104 O 0.08001 0.04551 0.5337 0.0
O105 O 0.14461 0.98146 0.40334 0.0
O106 O 0.13672 0.02868 0.35762 0.0
O107 O 0.89978 0.9603 0.418 0.0
O108 O 0.97143 0.01156 0.37925 0.0
C109 C 0.15354 0.99409 0.36912 0.0
C110 C 0.9011 0.9838 0.38751 0.0
O111 O 0.07481 0.01771 0.47559 0.0
Mg112 Mg 0.41825 1.0005 0.08254 0.0
O113 O 0.52793 0.08661 0.08258 0.0
O114 O 0.5429 0.11082 0.1432 0.0
Mg115 Mg 0.46135 0.0462 0.18281 0.0
C116 C 0.56231 0.12212 0.11032 0.0
C117 C 0.48105 0.97655 0.00368 0.0
O118 O 0.44634 0.93421 0.98029 0.0
O119 O 0.54993 0.02915 0.11863 0.0
O120 O 0.50036 0.99231 0.16799 0.0
O121 O 0.3711 0.0588 0.0781 0.0
O122 O 0.37818 0.02327 0.1299 0.0
C123 C 0.56267 0.02143 0.15369 0.0
C124 C 0.36702 0.05777 0.11324 0.0
O125 O 0.44429 0.97529 0.02976 0.0
Mg126 Mg 0.98437 0.85719 0.30057 0.0
O127 O 0.89001 0.7622 0.30589 0.0
O128 O 0.95267 0.78658 0.36318 0.0
Mg129 Mg 0.95326 0.85332 0.3271 0.0
C130 C 0.89967 0.74853 0.33953 0.0
C131 C 0.04277 0.80691 0.24247 0.0
O132 O 0.10147 0.80486 0.23274 0.0
O133 O 0.89848 0.85816 0.24777 0.0
O134 O 0.93424 0.91754 0.2911 0.0
O135 O 0.08592 0.9487 0.30697 0.0
O136 O 0.08475 0.90073 0.35337 0.0
C137 C 0.88915 0.89404 0.25929 0.0
C138 C 0.11731 0.94715 0.34116 0.0
O139 O 0.06069 0.84 0.26973 0.0
Mg140 Mg 0.27145 0.27131 0.58632 0.0
O141 O 0.14096 0.19232 0.5735 0.0
O142 O 0.13608 0.18464 0.63368 0.0
Mg143 Mg 0.20432 0.26785 0.64694 0.0
C144 C 0.10729 0.16526 0.60021 0.0
C145 C 0.23589 0.25046 0.49152 0.0
O146 O 0.22608 0.26947 0.45886 0.0
O147 O 0.21068 0.32223 0.58957 0.0
O148 O 0.26249 0.35519 0.64829 0.0
O149 O 0.31311 0.21218 0.61033 0.0
O150 O 0.31445 0.26822 0.64805 0.0
C151 C 0.20426 0.34022 0.61995 0.0
C152 C 0.32176 0.22845 0.64467 0.0
O153 O 0.25213 0.27824 0.52172 0.0
Mg154 Mg 0.67559 0.38477 0.78264 0.0
O155 O 0.76759 0.44586 0.8313 0.0
O156 O 0.8257 0.40432 0.82152 0.0
Mg157 Mg 0.78624 0.32064 0.7947 0.0
C158 C 0.83168 0.44607 0.83411 0.0
C159 C 0.68855 0.50052 0.7656 0.0
O160 O 0.65632 0.52848 0.76886 0.0
O161 O 0.79024 0.41426 0.74958 0.0
O162 O 0.74272 0.33223 0.73486 0.0
O163 O 0.6008 0.32571 0.82905 0.0
O164 O 0.68042 0.31671 0.80195 0.0
C165 C 0.80203 0.37953 0.73718 0.0
C166 C 0.6356 0.30021 0.82639 0.0
O167 O 0.64868 0.45122 0.77216 0.0
Mg168 Mg 0.5259 0.20065 0.17621 0.0
O169 O 0.59369 0.20861 0.23993 0.0
O170 O 0.54196 0.13469 0.21016 0.0
Mg171 Mg 0.55261 0.19476 0.16027 0.0
C172 C 0.57929 0.16162 0.24125 0.0
C173 C 0.46788 0.26841 0.21789 0.0
O174 O 0.4093 0.27349 0.22414 0.0
O175 O 0.63995 0.28771 0.16294 0.0
O176 O 0.58283 0.2468 0.1084 0.0
O177 O 0.40939 0.11118 0.17164 0.0
O178 O 0.43533 0.1516 0.12087 0.0
C179 C 0.64234 0.28729 0.12767 0.0
C180 C 0.39287 0.10788 0.13524 0.0
O181 O 0.45082 0.23203 0.19338 0.0
Mg182 Mg 0.72864 0.68601 0.39943 0.0
O183 O 0.83252 0.76905 0.42347 0.0
O184 O 0.80572 0.78498 0.36459 0.0
Mg185 Mg 0.73165 0.74369 0.30509 0.0
C186 C 0.84242 0.80208 0.39863 0.0
C187 C 0.72461 0.6968 0.4914 0.0
O188 O 0.72414 0.6773 0.5249 0.0
O189 O 0.64925 0.7268 0.3868 0.0
O190 O 0.61575 0.70201 0.32732 0.0
O191 O 0.84077 0.68694 0.38731 0.0
O192 O 0.76082 0.69383 0.34167 0.0
C193 C 0.61835 0.73075 0.35324 0.0
C194 C 0.83078 0.70153 0.35354 0.0
O195 O 0.71678 0.66932 0.46256 0.0
Mg196 Mg 0.25171 0.12254 0.74638 0.0
O197 O 0.14422 0.05447 0.70694 0.0
O198 O 0.14323 0.11007 0.66481 0.0
Mg199 Mg 0.2202 0.20449 0.69241 0.0
C200 C 0.11827 0.06203 0.67388 0.0
C201 C 0.27523 0.02525 0.76921 0.0
O202 O 0.32318 0.00778 0.77936 0.0
O203 O 0.29231 0.15338 0.68385 0.0
O204 O 0.35246 0.231 0.71058 0.0
O205 O 0.11402 0.09909 0.74465 0.0
O206 O 0.20591 0.1784 0.74754 0.0
C207 C 0.33524 0.20363 0.68063 0.0
C208 C 0.13196 0.14669 0.74617 0.0
O209 O 0.30377 0.06996 0.75419 0.0
Mg210 Mg 0.02831 0.49686 0.91712 0.0
O211 O 0.96223 0.40173 0.92492 0.0
O212 O 0.85654 0.39696 0.89446 0.0
Mg213 Mg 0.93219 0.39893 0.85093 0.0
C214 C 0.88636 0.37336 0.91233 0.0
C215 C 0.03274 0.51011 0.0067 0.0
O216 O 0.068 0.52595 0.04235 0.0
O217 O 0.1313 0.48918 0.90022 0.0
O218 O 0.04241 0.48555 0.85479 0.0
O219 O 0.90957 0.49835 0.89324 0.0
O220 O 0.96946 0.48317 0.85594 0.0
C221 C 0.10343 0.48152 0.86449 0.0
C222 C 0.9089 0.48566 0.85924 0.0
O223 O 0.07561 0.51605 0.98208 0.0
Mg224 Mg 0.89908 0.51019 0.07647 0.0
O225 O -0.00166 0.59326 0.06435 0.0
O226 O 0.0102 0.59752 0.12619 0.0
Mg227 Mg 0.95875 0.55532 0.18013 0.0
C228 C 0.03594 0.61894 0.09617 0.0
C229 C 0.94465 0.48479 -0.0046 0.0
O230 O 0.90921 0.46066 0.96154 0.0
O231 O 0.02401 0.51997 0.11082 0.0
O232 O 0.97823 0.49273 0.16287 0.0
O233 O 0.83957 0.56159 0.07534 0.0
O234 O 0.87228 0.53551 0.12766 0.0
C235 C 0.03898 0.51649 0.14672 0.0
C236 C 0.85216 0.56657 0.11164 0.0
O237 O 0.90014 0.4838 0.01734 0.0
Mg238 Mg 0.53438 0.47164 0.41375 0.0
O239 O 0.47381 0.38374 0.43074 0.0
O240 O 0.41407 0.38948 0.37556 0.0
Mg241 Mg 0.52834 0.46152 0.36493 0.0
C242 C 0.41338 0.36256 0.40346 0.0
C243 C 0.54999 0.51634 0.49981 0.0
O244 O 0.58956 0.55101 0.52936 0.0
O245 O 0.6541 0.48006 0.40053 0.0
O246 O 0.64999 0.52728 0.35402 0.0
O247 O 0.41483 0.46831 0.41319 0.0
O248 O 0.49029 0.51755 0.37495 0.0
C249 C 0.66393 0.49168 0.36622 0.0
C250 C 0.41931 0.49196 0.38256 0.0
O251 O 0.58601 0.52119 0.47223 0.0
Mg252 Mg 0.27825 0.77354 0.0866 0.0
O253 O 0.1454 0.69758 0.07465 0.0
O254 O 0.14094 0.68867 0.13486 0.0
Mg255 Mg 0.21373 0.77175 0.14888 0.0
C256 C 0.11102 0.67052 0.1012 0.0
C257 C 0.23765 0.75222 0.99179 0.0
O258 O 0.22677 0.77138 0.95937 0.0
O259 O 0.22399 0.82815 0.08995 0.0
O260 O 0.27481 0.85917 0.14895 0.0
O261 O 0.31452 0.71152 0.10945 0.0
O262 O 0.32082 0.76885 0.14803 0.0
C263 C 0.21733 0.84563 0.12043 0.0
C264 C 0.32489 0.72782 0.14402 0.0
O265 O 0.25708 0.7805 0.02217 0.0
Mg266 Mg 0.0185 0.71412 0.17135 0.0
O267 O 0.08951 0.71022 0.23096 0.0
O268 O 0.0531 0.64883 0.18916 0.0
Mg269 Mg 0.05062 0.71252 0.1488 0.0
C270 C 0.08283 0.66657 0.22319 0.0
C271 C 0.95891 0.77144 0.222 0.0
O272 O 0.90041 0.77446 0.23096 0.0
O273 O 0.12556 0.80531 0.16374 0.0
O274 O 0.07773 0.7764 0.10554 0.0
O275 O 0.90862 0.62441 0.16831 0.0
O276 O 0.92514 0.66204 0.11596 0.0
C277 C 0.13305 0.81391 0.12919 0.0
C278 C 0.88566 0.61923 0.13227 0.0
O279 O 0.94104 0.73753 0.19535 0.0
Mg280 Mg 0.2294 0.69351 0.89964 0.0
O281 O 0.33633 0.77601 0.92406 0.0
O282 O 0.31055 0.79137 0.86491 0.0
Mg283 Mg 0.23503 0.75179 0.80525 0.0
C284 C 0.34855 0.80881 0.89876 0.0
C285 C 0.22236 0.69819 0.99236 0.0
O286 O 0.21715 0.67502 0.02458 0.0
O287 O 0.15612 0.73872 0.88814 0.0
O288 O 0.12072 0.71336 0.82869 0.0
O289 O 0.33757 0.68987 0.88677 0.0
O290 O 0.26096 0.70071 0.84184 0.0
C291 C 0.1265 0.74362 0.85451 0.0
C292 C 0.32889 0.70519 0.85312 0.0
O293 O 0.21512 0.67317 0.96227 0.0
Mg294 Mg 0.19556 0.88544 0.80275 0.0
O295 O 0.28363 0.93968 0.85521 0.0
O296 O 0.37553 0.93913 0.82974 0.0
Mg297 Mg 0.32525 0.84641 0.81348 0.0
C298 C 0.35739 0.96017 0.85321 0.0
C299 C 0.19288 0.99559 0.77802 0.0
O300 O 0.15248 0.01918 0.77599 0.0
O301 O 0.30171 0.91995 0.76403 0.0
O302 O 0.26086 0.83866 0.75311 0.0
O303 O 0.10586 0.81807 0.84003 0.0
O304 O 0.21292 0.82557 0.82788 0.0
C305 C 0.31399 0.88653 0.75015 0.0
C306 C 0.15068 0.79847 0.84278 0.0
O307 O 0.15916 0.94753 0.78798 0.0
Mg308 Mg 0.53813 0.97347 0.91472 0.0
O309 O 0.47471 0.88525 0.93157 0.0
O310 O 0.41601 0.89168 0.87635 0.0
Mg311 Mg 0.53062 0.9633 0.86579 0.0
C312 C 0.41435 0.86455 0.90423 0.0
C313 C 0.56329 0.02119 0.0014 0.0
O314 O 0.60587 0.05749 0.0299 0.0
O315 O 0.65614 0.98043 0.90052 0.0
O316 O 0.65247 0.02872 0.85473 0.0
O317 O 0.41981 0.97131 0.91543 0.0
O318 O 0.49375 0.01969 0.87634 0.0
C319 C 0.66556 0.99252 0.86625 0.0
C320 C 0.42344 0.99468 0.88469 0.0
O321 O 0.59481 0.02507 0.97232 0.0
Mg322 Mg 0.24735 0.6183 0.24397 0.0
O323 O 0.14012 0.55223 0.20302 0.0
O324 O 0.14215 0.61053 0.16281 0.0
Mg325 Mg 0.22497 0.70458 0.19212 0.0
C326 C 0.11501 0.56174 0.17048 0.0
C327 C 0.27049 0.52021 0.265 0.0
O328 O 0.31854 0.50269 0.27442 0.0
O329 O 0.29026 0.6511 0.18208 0.0
O330 O 0.35611 0.72847 0.20995 0.0
O331 O 0.11225 0.60033 0.24274 0.0
O332 O 0.20805 0.67794 0.24684 0.0
C333 C 0.33613 0.70132 0.1795 0.0
C334 C 0.13378 0.64853 0.24535 0.0
O335 O 0.29888 0.56535 0.25057 0.0
Mg336 Mg 0.48924 0.85705 0.79837 0.0
O337 O 0.39175 0.76309 0.80477 0.0
O338 O 0.4534 0.78823 0.86228 0.0
Mg339 Mg 0.45895 0.85527 0.82542 0.0
C340 C 0.39961 0.75018 0.83883 0.0
C341 C 0.5427 0.80637 0.73746 0.0
O342 O 0.60139 0.80611 0.72608 0.0
O343 O 0.40355 0.85862 0.74596 0.0
O344 O 0.44502 0.92043 0.78833 0.0
O345 O 0.59439 0.94758 0.80429 0.0
O346 O 0.59142 0.89887 0.85047 0.0
C347 C 0.39789 0.89635 0.75703 0.0
C348 C 0.626 0.94528 0.83825 0.0
O349 O 0.56125 0.83815 0.76574 0.0
Mg350 Mg 0.40626 0.50875 0.57158 0.0
O351 O 0.50645 0.5926 0.55947 0.0
O352 O 0.51509 0.6016 0.62107 0.0
Mg353 Mg 0.45878 0.55902 0.67408 0.0
C354 C 0.54089 0.62108 0.59062 0.0
C355 C 0.46606 0.47189 0.4993 0.0
O356 O 0.43629 0.42899 0.47718 0.0
O357 O 0.53294 0.52636 0.60898 0.0
O358 O 0.48633 0.49877 0.66074 0.0
O359 O 0.35295 0.56533 0.5687 0.0
O360 O 0.3738 0.53642 0.62091 0.0
C361 C 0.54738 0.5233 0.64483 0.0
C362 C 0.35747 0.56864 0.60436 0.0
O363 O 0.4227 0.47095 0.52191 0.0
Mg364 Mg 0.77962 0.77806 0.5813 0.0
O365 O 0.64809 0.70073 0.56865 0.0
O366 O 0.64429 0.69272 0.62877 0.0
Mg367 Mg 0.71399 0.77624 0.64131 0.0
C368 C 0.61465 0.67358 0.59527 0.0
C369 C 0.73679 0.75004 0.48811 0.0
O370 O 0.7211 0.76534 0.4548 0.0
O371 O 0.7227 0.83145 0.58298 0.0
O372 O 0.77292 0.86366 0.64173 0.0
O373 O 0.81914 0.71832 0.605 0.0
O374 O 0.8237 0.77576 0.64298 0.0
C375 C 0.71523 0.84905 0.61318 0.0
C376 C 0.8297 0.73543 0.63936 0.0
O377 O 0.75688 0.781 0.51701 0.0
Mg378 Mg 0.75708 0.62917 0.74016 0.0
O379 O 0.64653 0.56202 0.70138 0.0
O380 O 0.64943 0.61768 0.65868 0.0
Mg381 Mg 0.72843 0.71198 0.68723 0.0
C382 C 0.62222 0.56957 0.66806 0.0
C383 C 0.77038 0.5273 0.75655 0.0
O384 O 0.81039 0.50356 0.76117 0.0
O385 O 0.79753 0.65987 0.67793 0.0
O386 O 0.86026 0.73731 0.70525 0.0
O387 O 0.61988 0.60705 0.73791 0.0
O388 O 0.71308 0.68611 0.74249 0.0
C389 C 0.84211 0.71005 0.6751 0.0
C390 C 0.6387 0.65482 0.74034 0.0
O391 O 0.80439 0.57403 0.74467 0.0
Mg392 Mg 0.5191 0.7166 0.66479 0.0
O393 O 0.59085 0.71423 0.72468 0.0
O394 O 0.5565 0.65253 0.68368 0.0
Mg395 Mg 0.55228 0.71533 0.6425 0.0
C396 C 0.58588 0.67102 0.71758 0.0
C397 C 0.45855 0.77136 0.71708 0.0
O398 O 0.40011 0.77307 0.72752 0.0
O399 O 0.62388 0.80835 0.65667 0.0
O400 O 0.57677 0.77831 0.5987 0.0
O401 O 0.41094 0.6261 0.66134 0.0
O402 O 0.42762 0.6641 0.60916 0.0
C403 C 0.63109 0.81659 0.62204 0.0
C404 C 0.38903 0.62095 0.62521 0.0
O405 O 0.44034 0.73849 0.68953 0.0
Mg406 Mg 0.23111 0.19153 0.3997 0.0
O407 O 0.33696 0.27431 0.42381 0.0
O408 O 0.31085 0.2886 0.36443 0.0
Mg409 Mg 0.2363 0.24864 0.30477 0.0
C410 C 0.34867 0.30662 0.3982 0.0
C411 C 0.22352 0.19719 0.49248 0.0
O412 O 0.21958 0.17455 0.52489 0.0
O413 O 0.15686 0.23609 0.38738 0.0
O414 O 0.12173 0.20992 0.32808 0.0
O415 O 0.33994 0.18829 0.38722 0.0
O416 O 0.26318 0.19836 0.34193 0.0
C417 C 0.12694 0.24033 0.35361 0.0
C418 C 0.33129 0.20316 0.35342 0.0
O419 O 0.21764 0.17232 0.46261 0.0
Mg420 Mg 0.19364 0.38087 0.30022 0.0
O421 O 0.2804 0.43632 0.35232 0.0
O422 O 0.37395 0.43632 0.32795 0.0
Mg423 Mg 0.32569 0.34357 0.31295 0.0
C424 C 0.35448 0.45734 0.35076 0.0
C425 C 0.18796 0.48979 0.2736 0.0
O426 O 0.14595 0.51235 0.2707 0.0
O427 O 0.30077 0.41524 0.26207 0.0
O428 O 0.26182 0.33409 0.25224 0.0
O429 O 0.10424 0.31368 0.3378 0.0
O430 O 0.21254 0.32216 0.32661 0.0
C431 C 0.31425 0.38199 0.2489 0.0
C432 C 0.15015 0.29485 0.34137 0.0
O433 O 0.15541 0.44194 0.284 0.0
Mg434 Mg 0.49173 0.35464 0.29825 0.0
O435 O 0.39491 0.26058 0.30485 0.0
O436 O 0.45507 0.28653 0.36253 0.0
Mg437 Mg 0.4598 0.35285 0.32527 0.0
C438 C 0.40209 0.24815 0.33912 0.0
C439 C 0.55088 0.30423 0.23909 0.0
O440 O 0.6112 0.30481 0.22873 0.0
O441 O 0.40581 0.35542 0.24553 0.0
O442 O 0.44503 0.41712 0.28763 0.0
O443 O 0.59523 0.44574 0.30427 0.0
O444 O 0.59195 0.39789 0.35105 0.0
C445 C 0.39871 0.39269 0.25626 0.0
C446 C 0.62596 0.44415 0.3386 0.0
O447 O 0.56691 0.33643 0.26667 0.0
loop_
_geom_bond_atom_site_label_1
_geom_bond_atom_site_label_2
_geom_bond_distance
_geom_bond_site_symmetry_2
_ccdc_geom_bond_type
Mg0 O1 2.028 1_655 S
Mg0 O7 1.986 1_655 S
Mg0 O9 2.114 . S
Mg0 O10 2.251 . S
Mg0 O13 2.010 1_545 S
O1 Mg0 2.028 1_455 S
O1 C4 1.250 . S
O2 Mg3 2.028 . S
O2 C4 1.248 . S
Mg3 O2 2.028 . S
Mg3 O8 2.032 . S
Mg3 O10 2.079 1_455 S
C4 O1 1.250 . S
C4 O2 1.248 . S
C5 O6 1.264 . S
C5 O13 1.249 . S
O6 C5 1.264 . S
O7 Mg0 1.986 1_455 S
O7 C11 1.246 . S
O8 Mg3 2.032 . S
O8 C11 1.259 . S
O9 Mg0 2.114 . S
O9 C12 1.252 . S
O10 Mg0 2.251 . S
O10 Mg3 2.079 1_655 S
O10 C12 1.273 . S
C11 O7 1.246 . S
C11 O8 1.259 . S
C12 O9 1.252 . S
C12 O10 1.273 . S
O13 Mg0 2.010 1_565 S
O13 C5 1.249 . S
Mg14 O15 2.028 1_455 S
Mg14 O21 1.986 1_455 S
Mg14 O23 2.114 . S
Mg14 O24 2.251 . S
Mg14 O27 2.010 . S
O15 Mg14 2.028 1_655 S
O15 C18 1.250 . S
O16 Mg17 2.028 . S
O16 C18 1.248 . S
Mg17 O16 2.028 . S
Mg17 O22 2.032 . S
Mg17 O24 2.079 1_655 S
C18 O15 1.250 . S
C18 O16 1.248 . S
C19 O20 1.264 . S
C19 O27 1.249 . S
O20 C19 1.264 . S
O21 Mg14 1.986 1_655 S
O21 C25 1.246 . S
O22 Mg17 2.032 . S
O22 C25 1.259 . S
O23 Mg14 2.114 . S
O23 C26 1.252 . S
O24 Mg14 2.251 . S
O24 Mg17 2.079 1_455 S
O24 C26 1.273 . S
C25 O21 1.246 . S
C25 O22 1.259 . S
C26 O23 1.252 . S
C26 O24 1.273 . S
O27 Mg14 2.010 . S
O27 C19 1.249 . S
Mg28 O29 2.028 . S
Mg28 O35 1.986 . S
Mg28 O37 2.114 . S
Mg28 O38 2.251 . S
Mg28 O41 2.010 . S
O29 Mg28 2.028 . S
O29 C32 1.250 . S
O30 Mg31 2.028 . S
O30 C32 1.248 . S
Mg31 O30 2.028 . S
Mg31 O36 2.032 . S
Mg31 O38 2.079 . S
C32 O29 1.250 . S
C32 O30 1.248 . S
C33 O34 1.264 . S
C33 O41 1.249 . S
O34 C33 1.264 . S
O35 Mg28 1.986 . S
O35 C39 1.246 . S
O36 Mg31 2.032 . S
O36 C39 1.259 . S
O37 Mg28 2.114 . S
O37 C40 1.252 . S
O38 Mg28 2.251 . S
O38 Mg31 2.079 . S
O38 C40 1.273 . S
C39 O35 1.246 . S
C39 O36 1.259 . S
C40 O37 1.252 . S
C40 O38 1.273 . S
O41 Mg28 2.010 . S
O41 C33 1.249 . S
Mg42 O43 2.028 . S
Mg42 O49 1.986 . S
Mg42 O51 2.114 . S
Mg42 O52 2.251 . S
Mg42 O55 2.010 . S
O43 Mg42 2.028 . S
O43 C46 1.250 . S
O44 Mg45 2.028 . S
O44 C46 1.248 . S
Mg45 O44 2.028 . S
Mg45 O50 2.032 . S
Mg45 O52 2.079 . S
C46 O43 1.250 . S
C46 O44 1.248 . S
C47 O48 1.264 . S
C47 O55 1.249 . S
O48 C47 1.264 . S
O49 Mg42 1.986 . S
O49 C53 1.246 . S
O50 Mg45 2.032 . S
O50 C53 1.259 . S
O51 Mg42 2.114 . S
O51 C54 1.252 . S
O52 Mg42 2.251 . S
O52 Mg45 2.079 . S
O52 C54 1.273 . S
C53 O49 1.246 . S
C53 O50 1.259 . S
C54 O51 1.252 . S
C54 O52 1.273 . S
O55 Mg42 2.010 . S
O55 C47 1.249 . S
Mg56 O57 2.028 1_655 S
Mg56 O63 1.986 1_655 S
Mg56 O65 2.114 . S
Mg56 O66 2.251 . S
Mg56 O69 2.010 . S
O57 Mg56 2.028 1_455 S
O57 C60 1.250 . S
O58 Mg59 2.028 . S
O58 C60 1.248 . S
Mg59 O58 2.028 . S
Mg59 O64 2.032 . S
Mg59 O66 2.079 1_455 S
C60 O57 1.250 . S
C60 O58 1.248 . S
C61 O62 1.264 . S
C61 O69 1.249 . S
O62 C61 1.264 . S
O63 Mg56 1.986 1_455 S
O63 C67 1.246 . S
O64 Mg59 2.032 . S
O64 C67 1.259 . S
O65 Mg56 2.114 . S
O65 C68 1.252 . S
O66 Mg56 2.251 . S
O66 Mg59 2.079 1_655 S
O66 C68 1.273 . S
C67 O63 1.246 . S
C67 O64 1.259 . S
C68 O65 1.252 . S
C68 O66 1.273 . S
O69 Mg56 2.010 . S
O69 C61 1.249 . S
Mg70 O71 2.028 . S
Mg70 O77 1.986 . S
Mg70 O79 2.114 . S
Mg70 O80 2.251 . S
Mg70 O83 2.010 . S
O71 Mg70 2.028 . S
O71 C74 1.250 . S
O72 Mg73 2.028 . S
O72 C74 1.248 . S
Mg73 O72 2.028 . S
Mg73 O78 2.032 . S
Mg73 O80 2.079 . S
C74 O71 1.250 . S
C74 O72 1.248 . S
C75 O76 1.264 . S
C75 O83 1.249 . S
O76 C75 1.264 . S
O77 Mg70 1.986 . S
O77 C81 1.246 . S
O78 Mg73 2.032 . S
O78 C81 1.259 . S
O79 Mg70 2.114 . S
O79 C82 1.252 . S
O80 Mg70 2.251 . S
O80 Mg73 2.079 . S
O80 C82 1.273 . S
C81 O77 1.246 . S
C81 O78 1.259 . S
C82 O79 1.252 . S
C82 O80 1.273 . S
O83 Mg70 2.010 . S
O83 C75 1.249 . S
Mg84 O85 2.028 . S
Mg84 O91 1.986 . S
Mg84 O93 2.114 . S
Mg84 O94 2.251 . S
Mg84 O97 2.010 . S
O85 Mg84 2.028 . S
O85 C88 1.250 . S
O86 Mg87 2.028 . S
O86 C88 1.248 . S
Mg87 O86 2.028 . S
Mg87 O92 2.032 . S
Mg87 O94 2.079 . S
C88 O85 1.250 . S
C88 O86 1.248 . S
C89 O90 1.264 . S
C89 O97 1.249 . S
O90 C89 1.264 . S
O91 Mg84 1.986 . S
O91 C95 1.246 . S
O92 Mg87 2.032 . S
O92 C95 1.259 . S
O93 Mg84 2.114 . S
O93 C96 1.252 . S
O94 Mg84 2.251 . S
O94 Mg87 2.079 . S
O94 C96 1.273 . S
C95 O91 1.246 . S
C95 O92 1.259 . S
C96 O93 1.252 . S
C96 O94 1.273 . S
O97 Mg84 2.010 . S
O97 C89 1.249 . S
Mg98 O99 2.028 . S
Mg98 O105 1.986 1_655 S
Mg98 O107 2.116 . S
Mg98 O108 2.251 . S
Mg98 O111 2.010 1_665 S
O99 Mg98 2.028 . S
O99 C102 1.250 . S
O100 Mg101 2.028 . S
O100 C102 1.248 . S
Mg101 O100 2.028 . S
Mg101 O106 2.032 1_655 S
Mg101 O108 2.079 . S
C102 O99 1.250 . S
C102 O100 1.248 . S
C103 O104 1.264 . S
C103 O111 1.249 . S
O104 C103 1.264 . S
O105 Mg98 1.986 1_455 S
O105 C109 1.246 . S
O106 Mg101 2.032 1_455 S
O106 C109 1.259 . S
O107 Mg98 2.116 . S
O107 C110 1.254 . S
O108 Mg98 2.251 . S
O108 Mg101 2.079 . S
O108 C110 1.273 . S
C109 O105 1.246 . S
C109 O106 1.259 . S
C110 O107 1.254 . S
C110 O108 1.273 . S
O111 Mg98 2.010 1_445 S
O111 C103 1.249 . S
Mg112 O113 2.028 . S
Mg112 O119 1.986 . S
Mg112 O121 2.114 . S
Mg112 O122 2.251 . S
Mg112 O125 2.010 1_545 S
O113 Mg112 2.028 . S
O113 C116 1.250 . S
O114 Mg115 2.028 . S
O114 C116 1.248 . S
Mg115 O114 2.028 . S
Mg115 O120 2.032 . S
Mg115 O122 2.079 . S
C116 O113 1.250 . S
C116 O114 1.248 . S
C117 O118 1.264 . S
C117 O125 1.249 . S
O118 C117 1.264 . S
O119 Mg112 1.986 . S
O119 C123 1.246 . S
O120 Mg115 2.032 . S
O120 C123 1.259 . S
O121 Mg112 2.114 . S
O121 C124 1.252 . S
O122 Mg112 2.251 . S
O122 Mg115 2.079 . S
O122 C124 1.273 . S
C123 O119 1.246 . S
C123 O120 1.259 . S
C124 O121 1.252 . S
C124 O122 1.273 . S
O125 Mg112 2.010 1_565 S
O125 C117 1.249 . S
Mg126 O127 2.028 1_455 S
Mg126 O133 1.986 1_455 S
Mg126 O135 2.114 . S
Mg126 O136 2.251 . S
Mg126 O139 2.010 . S
O127 Mg126 2.028 1_655 S
O127 C130 1.250 . S
O128 Mg129 2.028 . S
O128 C130 1.248 . S
Mg129 O128 2.028 . S
Mg129 O134 2.032 . S
Mg129 O136 2.079 1_655 S
C130 O127 1.250 . S
C130 O128 1.248 . S
C131 O132 1.264 . S
C131 O139 1.249 . S
O132 C131 1.264 . S
O133 Mg126 1.986 1_655 S
O133 C137 1.246 . S
O134 Mg129 2.032 . S
O134 C137 1.259 . S
O135 Mg126 2.114 . S
O135 C138 1.252 . S
O136 Mg126 2.251 . S
O136 Mg129 2.079 1_455 S
O136 C138 1.273 . S
C137 O133 1.246 . S
C137 O134 1.259 . S
C138 O135 1.252 . S
C138 O136 1.273 . S
O139 Mg126 2.010 . S
O139 C131 1.249 . S
Mg140 O141 2.028 . S
Mg140 O147 1.986 . S
Mg140 O149 2.114 . S
Mg140 O150 2.251 . S
Mg140 O153 2.010 . S
O141 Mg140 2.028 . S
O141 C144 1.250 . S
O142 Mg143 2.028 . S
O142 C144 1.248 . S
Mg143 O142 2.028 . S
Mg143 O148 2.032 . S
Mg143 O150 2.079 . S
C144 O141 1.250 . S
C144 O142 1.248 . S
C145 O146 1.264 . S
C145 O153 1.249 . S
O146 C145 1.264 . S
O147 Mg140 1.986 . S
O147 C151 1.246 . S
O148 Mg143 2.032 . S
O148 C151 1.259 . S
O149 Mg140 2.114 . S
O149 C152 1.252 . S
O150 Mg140 2.251 . S
O150 Mg143 2.079 . S
O150 C152 1.273 . S
C151 O147 1.246 . S
C151 O148 1.259 . S
C152 O149 1.252 . S
C152 O150 1.273 . S
O153 Mg140 2.010 . S
O153 C145 1.249 . S
Mg154 O155 2.028 . S
Mg154 O161 1.986 . S
Mg154 O163 2.114 . S
Mg154 O164 2.251 . S
Mg154 O167 2.010 . S
O155 Mg154 2.028 . S
O155 C158 1.250 . S
O156 Mg157 2.028 . S
O156 C158 1.248 . S
Mg157 O156 2.028 . S
Mg157 O162 2.032 . S
Mg157 O164 2.079 . S
C158 O155 1.250 . S
C158 O156 1.248 . S
C159 O160 1.264 . S
C159 O167 1.249 . S
O160 C159 1.264 . S
O161 Mg154 1.986 . S
O161 C165 1.246 . S
O162 Mg157 2.032 . S
O162 C165 1.259 . S
O163 Mg154 2.114 . S
O163 C166 1.252 . S
O164 Mg154 2.251 . S
O164 Mg157 2.079 . S
O164 C166 1.273 . S
C165 O161 1.246 . S
C165 O162 1.259 . S
C166 O163 1.252 . S
C166 O164 1.273 . S
O167 Mg154 2.010 . S
O167 C159 1.249 . S
Mg168 O169 2.028 . S
Mg168 O175 1.986 . S
Mg168 O177 2.114 . S
Mg168 O178 2.251 . S
Mg168 O181 2.010 . S
O169 Mg168 2.028 . S
O169 C172 1.250 . S
O170 Mg171 2.028 . S
O170 C172 1.248 . S
Mg171 O170 2.028 . S
Mg171 O176 2.032 . S
Mg171 O178 2.079 . S
C172 O169 1.250 . S
C172 O170 1.248 . S
C173 O174 1.264 . S
C173 O181 1.249 . S
O174 C173 1.264 . S
O175 Mg168 1.986 . S
O175 C179 1.246 . S
O176 Mg171 2.032 . S
O176 C179 1.259 . S
O177 Mg168 2.114 . S
O177 C180 1.252 . S
O178 Mg168 2.251 . S
O178 Mg171 2.079 . S
O178 C180 1.273 . S
C179 O175 1.246 . S
C179 O176 1.259 . S
C180 O177 1.252 . S
C180 O178 1.273 . S
O181 Mg168 2.010 . S
O181 C173 1.249 . S
Mg182 O183 2.028 . S
Mg182 O189 1.986 . S
Mg182 O191 2.114 . S
Mg182 O192 2.251 . S
Mg182 O195 2.010 . S
O183 Mg182 2.028 . S
O183 C186 1.250 . S
O184 Mg185 2.028 . S
O184 C186 1.248 . S
Mg185 O184 2.028 . S
Mg185 O190 2.032 . S
Mg185 O192 2.079 . S
C186 O183 1.250 . S
C186 O184 1.248 . S
C187 O188 1.264 . S
C187 O195 1.249 . S
O188 C187 1.264 . S
O189 Mg182 1.986 . S
O189 C193 1.246 . S
O190 Mg185 2.032 . S
O190 C193 1.259 . S
O191 Mg182 2.114 . S
O191 C194 1.252 . S
O192 Mg182 2.251 . S
O192 Mg185 2.079 . S
O192 C194 1.273 . S
C193 O189 1.246 . S
C193 O190 1.259 . S
C194 O191 1.252 . S
C194 O192 1.273 . S
O195 Mg182 2.010 . S
O195 C187 1.249 . S
Mg196 O197 2.028 . S
Mg196 O203 1.986 . S
Mg196 O205 2.114 . S
Mg196 O206 2.251 . S
Mg196 O209 2.010 . S
O197 Mg196 2.028 . S
O197 C200 1.250 . S
O198 Mg199 2.028 . S
O198 C200 1.248 . S
Mg199 O198 2.028 . S
Mg199 O204 2.032 . S
Mg199 O206 2.079 . S
C200 O197 1.250 . S
C200 O198 1.248 . S
C201 O202 1.264 . S
C201 O209 1.249 . S
O202 C201 1.264 . S
O203 Mg196 1.986 . S
O203 C207 1.246 . S
O204 Mg199 2.032 . S
O204 C207 1.259 . S
O205 Mg196 2.114 . S
O205 C208 1.252 . S
O206 Mg196 2.251 . S
O206 Mg199 2.079 . S
O206 C208 1.273 . S
C207 O203 1.246 . S
C207 O204 1.259 . S
C208 O205 1.252 . S
C208 O206 1.273 . S
O209 Mg196 2.010 . S
O209 C201 1.249 . S
Mg210 O211 2.028 . S
Mg210 O217 1.986 1_655 S
Mg210 O219 2.114 . S
Mg210 O220 2.251 . S
Mg210 O223 2.010 1_655 S
O211 Mg210 2.028 . S
O211 C214 1.250 . S
O212 Mg213 2.028 . S
O212 C214 1.248 . S
Mg213 O212 2.028 . S
Mg213 O218 2.032 1_655 S
Mg213 O220 2.079 . S
C214 O211 1.250 . S
C214 O212 1.248 . S
C215 O216 1.264 . S
C215 O223 1.249 . S
O216 C215 1.264 . S
O217 Mg210 1.986 1_455 S
O217 C221 1.246 . S
O218 Mg213 2.032 1_455 S
O218 C221 1.259 . S
O219 Mg210 2.114 . S
O219 C222 1.252 . S
O220 Mg210 2.251 . S
O220 Mg213 2.079 . S
O220 C222 1.273 . S
C221 O217 1.246 . S
C221 O218 1.259 . S
C222 O219 1.252 . S
C222 O220 1.273 . S
O223 Mg210 2.010 1_455 S
O223 C215 1.249 . S
Mg224 O225 2.028 1_655 S
Mg224 O231 1.986 1_655 S
Mg224 O233 2.114 . S
Mg224 O234 2.251 . S
Mg224 O237 2.010 . S
O225 Mg224 2.028 1_455 S
O225 C228 1.250 . S
O226 Mg227 2.028 . S
O226 C228 1.248 . S
Mg227 O226 2.028 . S
Mg227 O232 2.032 . S
Mg227 O234 2.079 1_455 S
C228 O225 1.250 . S
C228 O226 1.248 . S
C229 O230 1.264 . S
C229 O237 1.249 . S
O230 C229 1.264 . S
O231 Mg224 1.986 1_455 S
O231 C235 1.246 . S
O232 Mg227 2.032 . S
O232 C235 1.259 . S
O233 Mg224 2.114 . S
O233 C236 1.252 . S
O234 Mg224 2.251 . S
O234 Mg227 2.079 1_655 S
O234 C236 1.273 . S
C235 O231 1.246 . S
C235 O232 1.259 . S
C236 O233 1.252 . S
C236 O234 1.273 . S
O237 Mg224 2.010 . S
O237 C229 1.249 . S
Mg238 O239 2.028 . S
Mg238 O245 1.986 . S
Mg238 O247 2.114 . S
Mg238 O248 2.251 . S
Mg238 O251 2.010 . S
O239 Mg238 2.028 . S
O239 C242 1.250 . S
O240 Mg241 2.028 . S
O240 C242 1.248 . S
Mg241 O240 2.028 . S
Mg241 O246 2.032 . S
Mg241 O248 2.079 . S
C242 O239 1.250 . S
C242 O240 1.248 . S
C243 O244 1.264 . S
C243 O251 1.249 . S
O244 C243 1.264 . S
O245 Mg238 1.986 . S
O245 C249 1.246 . S
O246 Mg241 2.032 . S
O246 C249 1.259 . S
O247 Mg238 2.114 . S
O247 C250 1.252 . S
O248 Mg238 2.251 . S
O248 Mg241 2.079 . S
O248 C250 1.273 . S
C249 O245 1.246 . S
C249 O246 1.259 . S
C250 O247 1.252 . S
C250 O248 1.273 . S
O251 Mg238 2.010 . S
O251 C243 1.249 . S
Mg252 O253 2.028 . S
Mg252 O259 1.986 . S
Mg252 O261 2.114 . S
Mg252 O262 2.251 . S
Mg252 O265 2.010 . S
O253 Mg252 2.028 . S
O253 C256 1.250 . S
O254 Mg255 2.028 . S
O254 C256 1.248 . S
Mg255 O254 2.028 . S
Mg255 O260 2.032 . S
Mg255 O262 2.079 . S
C256 O253 1.250 . S
C256 O254 1.248 . S
C257 O258 1.264 . S
C257 O265 1.249 . S
O258 C257 1.264 . S
O259 Mg252 1.986 . S
O259 C263 1.246 . S
O260 Mg255 2.032 . S
O260 C263 1.259 . S
O261 Mg252 2.114 . S
O261 C264 1.252 . S
O262 Mg252 2.251 . S
O262 Mg255 2.079 . S
O262 C264 1.273 . S
C263 O259 1.246 . S
C263 O260 1.259 . S
C264 O261 1.252 . S
C264 O262 1.273 . S
O265 Mg252 2.010 . S
O265 C257 1.249 . S
Mg266 O267 2.028 1_655 S
Mg266 O273 1.986 1_655 S
Mg266 O275 2.114 . S
Mg266 O276 2.251 . S
Mg266 O279 2.010 . S
O267 Mg266 2.028 1_455 S
O267 C270 1.250 . S
O268 Mg269 2.028 . S
O268 C270 1.248 . S
Mg269 O268 2.028 . S
Mg269 O274 2.032 . S
Mg269 O276 2.079 1_455 S
C270 O267 1.250 . S
C270 O268 1.248 . S
C271 O272 1.264 . S
C271 O279 1.249 . S
O272 C271 1.264 . S
O273 Mg266 1.986 1_455 S
O273 C277 1.246 . S
O274 Mg269 2.032 . S
O274 C277 1.259 . S
O275 Mg266 2.114 . S
O275 C278 1.252 . S
O276 Mg266 2.251 . S
O276 Mg269 2.079 1_655 S
O276 C278 1.273 . S
C277 O273 1.246 . S
C277 O274 1.259 . S
C278 O275 1.252 . S
C278 O276 1.273 . S
O279 Mg266 2.010 . S
O279 C271 1.249 . S
Mg280 O281 2.028 . S
Mg280 O287 1.986 . S
Mg280 O289 2.114 . S
Mg280 O290 2.251 . S
Mg280 O293 2.010 . S
O281 Mg280 2.028 . S
O281 C284 1.250 . S
O282 Mg283 2.028 . S
O282 C284 1.248 . S
Mg283 O282 2.028 . S
Mg283 O288 2.032 . S
Mg283 O290 2.079 . S
C284 O281 1.250 . S
C284 O282 1.248 . S
C285 O286 1.264 . S
C285 O293 1.249 . S
O286 C285 1.264 . S
O287 Mg280 1.986 . S
O287 C291 1.246 . S
O288 Mg283 2.032 . S
O288 C291 1.259 . S
O289 Mg280 2.114 . S
O289 C292 1.252 . S
O290 Mg280 2.251 . S
O290 Mg283 2.079 . S
O290 C292 1.273 . S
C291 O287 1.246 . S
C291 O288 1.259 . S
C292 O289 1.252 . S
C292 O290 1.273 . S
O293 Mg280 2.010 . S
O293 C285 1.249 . S
Mg294 O295 2.028 . S
Mg294 O301 1.986 . S
Mg294 O303 2.114 . S
Mg294 O304 2.251 . S
Mg294 O307 2.010 . S
O295 Mg294 2.028 . S
O295 C298 1.250 . S
O296 Mg297 2.028 . S
O296 C298 1.248 . S
Mg297 O296 2.028 . S
Mg297 O302 2.032 . S
Mg297 O304 2.079 . S
C298 O295 1.250 . S
C298 O296 1.248 . S
C299 O300 1.264 . S
C299 O307 1.249 . S
O300 C299 1.264 . S
O301 Mg294 1.986 . S
O301 C305 1.246 . S
O302 Mg297 2.032 . S
O302 C305 1.259 . S
O303 Mg294 2.114 . S
O303 C306 1.252 . S
O304 Mg294 2.251 . S
O304 Mg297 2.079 . S
O304 C306 1.273 . S
C305 O301 1.246 . S
C305 O302 1.259 . S
C306 O303 1.252 . S
C306 O304 1.273 . S
O307 Mg294 2.010 . S
O307 C299 1.249 . S
Mg308 O309 2.028 . S
Mg308 O315 1.986 . S
Mg308 O317 2.114 1_565 S
Mg308 O318 2.251 . S
Mg308 O321 2.010 1_565 S
O309 Mg308 2.028 . S
O309 C312 1.250 . S
O310 Mg311 2.028 . S
O310 C312 1.248 . S
Mg311 O310 2.028 . S
Mg311 O316 2.032 . S
Mg311 O318 2.079 . S
C312 O309 1.250 . S
C312 O310 1.248 . S
C313 O314 1.264 . S
C313 O321 1.249 . S
O314 C313 1.264 . S
O315 Mg308 1.986 . S
O315 C319 1.246 . S
O316 Mg311 2.032 . S
O316 C319 1.259 . S
O317 Mg308 2.114 1_545 S
O317 C320 1.252 1_545 S
O318 Mg308 2.251 . S
O318 Mg311 2.079 . S
O318 C320 1.273 . S
C319 O315 1.246 . S
C319 O316 1.259 . S
C320 O317 1.252 1_565 S
C320 O318 1.273 . S
O321 Mg308 2.010 1_545 S
O321 C313 1.249 . S
Mg322 O323 2.028 . S
Mg322 O329 1.986 . S
Mg322 O331 2.114 . S
Mg322 O332 2.251 . S
Mg322 O335 2.010 . S
O323 Mg322 2.028 . S
O323 C326 1.250 . S
O324 Mg325 2.028 . S
O324 C326 1.248 . S
Mg325 O324 2.028 . S
Mg325 O330 2.032 . S
Mg325 O332 2.079 . S
C326 O323 1.250 . S
C326 O324 1.248 . S
C327 O328 1.264 . S
C327 O335 1.249 . S
O328 C327 1.264 . S
O329 Mg322 1.986 . S
O329 C333 1.246 . S
O330 Mg325 2.032 . S
O330 C333 1.259 . S
O331 Mg322 2.114 . S
O331 C334 1.252 . S
O332 Mg322 2.251 . S
O332 Mg325 2.079 . S
O332 C334 1.273 . S
C333 O329 1.246 . S
C333 O330 1.259 . S
C334 O331 1.252 . S
C334 O332 1.273 . S
O335 Mg322 2.010 . S
O335 C327 1.249 . S
Mg336 O337 2.028 . S
Mg336 O343 1.986 . S
Mg336 O345 2.114 . S
Mg336 O346 2.251 . S
Mg336 O349 2.010 . S
O337 Mg336 2.028 . S
O337 C340 1.250 . S
O338 Mg339 2.028 . S
O338 C340 1.248 . S
Mg339 O338 2.028 . S
Mg339 O344 2.032 . S
Mg339 O346 2.079 . S
C340 O337 1.250 . S
C340 O338 1.248 . S
C341 O342 1.264 . S
C341 O349 1.249 . S
O342 C341 1.264 . S
O343 Mg336 1.986 . S
O343 C347 1.246 . S
O344 Mg339 2.032 . S
O344 C347 1.259 . S
O345 Mg336 2.114 . S
O345 C348 1.252 . S
O346 Mg336 2.251 . S
O346 Mg339 2.079 . S
O346 C348 1.273 . S
C347 O343 1.246 . S
C347 O344 1.259 . S
C348 O345 1.252 . S
C348 O346 1.273 . S
O349 Mg336 2.010 . S
O349 C341 1.249 . S
Mg350 O351 2.028 . S
Mg350 O357 1.986 . S
Mg350 O359 2.114 . S
Mg350 O360 2.251 . S
Mg350 O363 2.010 . S
O351 Mg350 2.028 . S
O351 C354 1.250 . S
O352 Mg353 2.028 . S
O352 C354 1.248 . S
Mg353 O352 2.028 . S
Mg353 O358 2.032 . S
Mg353 O360 2.079 . S
C354 O351 1.250 . S
C354 O352 1.248 . S
C355 O356 1.264 . S
C355 O363 1.249 . S
O356 C355 1.264 . S
O357 Mg350 1.986 . S
O357 C361 1.246 . S
O358 Mg353 2.032 . S
O358 C361 1.259 . S
O359 Mg350 2.114 . S
O359 C362 1.252 . S
O360 Mg350 2.251 . S
O360 Mg353 2.079 . S
O360 C362 1.273 . S
C361 O357 1.246 . S
C361 O358 1.259 . S
C362 O359 1.252 . S
C362 O360 1.273 . S
O363 Mg350 2.010 . S
O363 C355 1.249 . S
Mg364 O365 2.028 . S
Mg364 O371 1.986 . S
Mg364 O373 2.114 . S
Mg364 O374 2.251 . S
Mg364 O377 2.010 . S
O365 Mg364 2.028 . S
O365 C368 1.250 . S
O366 Mg367 2.028 . S
O366 C368 1.248 . S
Mg367 O366 2.028 . S
Mg367 O372 2.032 . S
Mg367 O374 2.079 . S
C368 O365 1.250 . S
C368 O366 1.248 . S
C369 O370 1.264 . S
C369 O377 1.249 . S
O370 C369 1.264 . S
O371 Mg364 1.986 . S
O371 C375 1.246 . S
O372 Mg367 2.032 . S
O372 C375 1.259 . S
O373 Mg364 2.114 . S
O373 C376 1.252 . S
O374 Mg364 2.251 . S
O374 Mg367 2.079 . S
O374 C376 1.273 . S
C375 O371 1.246 . S
C375 O372 1.259 . S
C376 O373 1.252 . S
C376 O374 1.273 . S
O377 Mg364 2.010 . S
O377 C369 1.249 . S
Mg378 O379 2.028 . S
Mg378 O385 1.986 . S
Mg378 O387 2.114 . S
Mg378 O388 2.251 . S
Mg378 O391 2.010 . S
O379 Mg378 2.028 . S
O379 C382 1.250 . S
O380 Mg381 2.028 . S
O380 C382 1.248 . S
Mg381 O380 2.028 . S
Mg381 O386 2.032 . S
Mg381 O388 2.079 . S
C382 O379 1.250 . S
C382 O380 1.248 . S
C383 O384 1.264 . S
C383 O391 1.249 . S
O384 C383 1.264 . S
O385 Mg378 1.986 . S
O385 C389 1.246 . S
O386 Mg381 2.032 . S
O386 C389 1.259 . S
O387 Mg378 2.114 . S
O387 C390 1.252 . S
O388 Mg378 2.251 . S
O388 Mg381 2.079 . S
O388 C390 1.273 . S
C389 O385 1.246 . S
C389 O386 1.259 . S
C390 O387 1.252 . S
C390 O388 1.273 . S
O391 Mg378 2.010 . S
O391 C383 1.249 . S
Mg392 O393 2.028 . S
Mg392 O399 1.986 . S
Mg392 O401 2.114 . S
Mg392 O402 2.251 . S
Mg392 O405 2.010 . S
O393 Mg392 2.028 . S
O393 C396 1.250 . S
O394 Mg395 2.028 . S
O394 C396 1.248 . S
Mg395 O394 2.028 . S
Mg395 O400 2.032 . S
Mg395 O402 2.079 . S
C396 O393 1.250 . S
C396 O394 1.248 . S
C397 O398 1.264 . S
C397 O405 1.249 . S
O398 C397 1.264 . S
O399 Mg392 1.986 . S
O399 C403 1.246 . S
O400 Mg395 2.032 . S
O400 C403 1.259 . S
O401 Mg392 2.114 . S
O401 C404 1.252 . S
O402 Mg392 2.251 . S
O402 Mg395 2.079 . S
O402 C404 1.273 . S
C403 O399 1.246 . S
C403 O400 1.259 . S
C404 O401 1.252 . S
C404 O402 1.273 . S
O405 Mg392 2.010 . S
O405 C397 1.249 . S
Mg406 O407 2.028 . S
Mg406 O413 1.986 . S
Mg406 O415 2.114 . S
Mg406 O416 2.251 . S
Mg406 O419 2.010 . S
O407 Mg406 2.028 . S
O407 C410 1.250 . S
O408 Mg409 2.028 . S
O408 C410 1.248 . S
Mg409 O408 2.028 . S
Mg409 O414 2.032 . S
Mg409 O416 2.079 . S
C410 O407 1.250 . S
C410 O408 1.248 . S
C411 O412 1.264 . S
C411 O419 1.249 . S
O412 C411 1.264 . S
O413 Mg406 1.986 . S
O413 C417 1.246 . S
O414 Mg409 2.032 . S
O414 C417 1.259 . S
O415 Mg406 2.114 . S
O415 C418 1.252 . S
O416 Mg406 2.251 . S
O416 Mg409 2.079 . S
O416 C418 1.273 . S
C417 O413 1.246 . S
C417 O414 1.259 . S
C418 O415 1.252 . S
C418 O416 1.273 . S
O419 Mg406 2.010 . S
O419 C411 1.249 . S
Mg420 O421 2.028 . S
Mg420 O427 1.986 . S
Mg420 O429 2.114 . S
Mg420 O430 2.251 . S
Mg420 O433 2.010 . S
O421 Mg420 2.028 . S
O421 C424 1.250 . S
O422 Mg423 2.028 . S
O422 C424 1.248 . S
Mg423 O422 2.028 . S
Mg423 O428 2.032 . S
Mg423 O430 2.079 . S
C424 O421 1.250 . S
C424 O422 1.248 . S
C425 O426 1.264 . S
C425 O433 1.249 . S
O426 C425 1.264 . S
O427 Mg420 1.986 . S
O427 C431 1.246 . S
O428 Mg423 2.032 . S
O428 C431 1.259 . S
O429 Mg420 2.114 . S
O429 C432 1.252 . S
O430 Mg420 2.251 . S
O430 Mg423 2.079 . S
O430 C432 1.273 . S
C431 O427 1.246 . S
C431 O428 1.259 . S
C432 O429 1.252 . S
C432 O430 1.273 . S
O433 Mg420 2.010 . S
O433 C425 1.249 . S
Mg434 O435 2.028 . S
Mg434 O441 1.986 . S
Mg434 O443 2.114 . S
Mg434 O444 2.251 . S
Mg434 O447 2.010 . S
O435 Mg434 2.028 . S
O435 C438 1.250 . S
O436 Mg437 2.028 . S
O436 C438 1.248 . S
Mg437 O436 2.028 . S
Mg437 O442 2.032 . S
Mg437 O444 2.079 . S
C438 O435 1.250 . S
C438 O436 1.248 . S
C439 O440 1.264 . S
C439 O447 1.249 . S
O440 C439 1.264 . S
O441 Mg434 1.986 . S
O441 C445 1.246 . S
O442 Mg437 2.032 . S
O442 C445 1.259 . S
O443 Mg434 2.114 . S
O443 C446 1.252 . S
O444 Mg434 2.251 . S
O444 Mg437 2.079 . S
O444 C446 1.273 . S
C445 O441 1.246 . S
C445 O442 1.259 . S
C446 O443 1.252 . S
C446 O444 1.273 . S
O447 Mg434 2.010 . S
O447 C439 1.249 . S
C103 C5 3.473 1_445 S
C19 C61 2.973 1_455 S
C75 C33 4.017 1_556 S
C89 C47 4.095 1_545 S
C117 C313 3.564 1_564 S
C131 C271 2.973 1_455 S
C411 C145 4.029 . S
C383 C159 4.094 . S
C173 C439 3.252 . S
C187 C369 4.016 . S
C201 C299 4.095 1_545 S
C215 C229 3.474 1_456 S
C243 C355 3.565 . S
C257 C285 4.029 1_554 S
C425 C327 4.095 . S
C397 C341 3.252 . S
C144 C4 0.738 . S
C165 C25 1.196 . S
C116 C32 0.707 . S
C137 C53 1.197 . S
C208 C60 1.859 . S
C74 C214 0.502 . S
C96 C172 1.855 . S
C102 C186 0.502 . S
C180 C124 1.478 . S
C130 C194 1.701 . S
C207 C152 1.394 . S
C158 C222 1.481 . S
C326 C235 1.522 . S
C39 C179 1.199 . S
C54 C193 1.528 . S
C11 C200 1.522 . S
C249 C446 1.395 . S
C277 C263 1.146 . S
C26 C221 1.281 . S
C334 C270 1.858 . S
C284 C312 0.457 . S
C228 C256 0.738 . S
C305 C347 1.216 . S
C348 C319 1.394 . S
C151 C67 1.146 . S
C292 C340 1.751 . S
C110 C46 1.481 . S
C404 C362 1.479 . S
C82 C18 1.701 . S
C236 C278 1.347 . S
C354 C368 0.707 . S
C390 C396 1.855 . S
C333 C264 1.393 . S
C375 C403 1.200 . S
C166 C81 1.528 . S
C109 C138 1.281 . S
C242 C410 0.456 . S
C431 C445 1.216 . S
C438 C418 1.752 . S
C68 C12 1.347 . S
C40 C95 1.408 . S
C424 C250 1.457 . S
C361 C382 1.515 . S
C291 C306 1.531 . S
C88 C123 1.515 . S
C320 C298 1.457 . S
C376 C389 1.408 . S
C432 C417 1.531 . S
