# Generated by pormake.
# Topology fnz, (5)-cn, num edge types: 1
# Building blocks:
#     Node 0, Type 0, BuildingBlock: XOMCOT_clean_sbu_1, # of connection points: 5
#     Node 1, Type 0, BuildingBlock: XOMCOT_clean_sbu_1, # of connection points: 5
#     Node 2, Type 0, BuildingBlock: XOMCOT_clean_sbu_1, # of connection points: 5
#     Node 3, Type 0, BuildingBlock: XOMCOT_clean_sbu_1, # of connection points: 5
#     Node 4, Type 0, BuildingBlock: XOMCOT_clean_sbu_1, # of connection points: 5
#     Node 5, Type 0, BuildingBlock: XOMCOT_clean_sbu_1, # of connection points: 5
#     Node 6, Type 0, BuildingBlock: XOMCOT_clean_sbu_1, # of connection points: 5
#     Node 7, Type 0, BuildingBlock: XOMCOT_clean_sbu_1, # of connection points: 5
#     Node 8, Type 0, BuildingBlock: XOMCOT_clean_sbu_1, # of connection points: 5
#     Node 9, Type 0, BuildingBlock: XOMCOT_clean_sbu_1, # of connection points: 5
#     Node 10, Type 0, BuildingBlock: XOMCOT_clean_sbu_1, # of connection points: 5
#     Node 11, Type 0, BuildingBlock: XOMCOT_clean_sbu_1, # of connection points: 5
#     Edge 12, Type (0, 0), BuildingBlock: KIFKEQ_clean_linker_1, # of connection points: 2
#     Edge 13, Type (0, 0), BuildingBlock: KIFKEQ_clean_linker_1, # of connection points: 2
#     Edge 14, Type (0, 0), BuildingBlock: KIFKEQ_clean_linker_1, # of connection points: 2
#     Edge 15, Type (0, 0), BuildingBlock: KIFKEQ_clean_linker_1, # of connection points: 2
#     Edge 16, Type (0, 0), BuildingBlock: KIFKEQ_clean_linker_1, # of connection points: 2
#     Edge 17, Type (0, 0), BuildingBlock: KIFKEQ_clean_linker_1, # of connection points: 2
#     Edge 18, Type (0, 0), BuildingBlock: KIFKEQ_clean_linker_1, # of connection points: 2
#     Edge 19, Type (0, 0), BuildingBlock: KIFKEQ_clean_linker_1, # of connection points: 2
#     Edge 20, Type (0, 0), BuildingBlock: KIFKEQ_clean_linker_1, # of connection points: 2
#     Edge 21, Type (0, 0), BuildingBlock: KIFKEQ_clean_linker_1, # of connection points: 2
#     Edge 22, Type (0, 0), BuildingBlock: KIFKEQ_clean_linker_1, # of connection points: 2
#     Edge 23, Type (0, 0), BuildingBlock: KIFKEQ_clean_linker_1, # of connection points: 2
#     Edge 24, Type (0, 0), BuildingBlock: KIFKEQ_clean_linker_1, # of connection points: 2
#     Edge 25, Type (0, 0), BuildingBlock: KIFKEQ_clean_linker_1, # of connection points: 2
#     Edge 26, Type (0, 0), BuildingBlock: KIFKEQ_clean_linker_1, # of connection points: 2
#     Edge 27, Type (0, 0), BuildingBlock: KIFKEQ_clean_linker_1, # of connection points: 2
#     Edge 28, Type (0, 0), BuildingBlock: KIFKEQ_clean_linker_1, # of connection points: 2
#     Edge 29, Type (0, 0), BuildingBlock: KIFKEQ_clean_linker_1, # of connection points: 2
#     Edge 30, Type (0, 0), BuildingBlock: KIFKEQ_clean_linker_1, # of connection points: 2
#     Edge 31, Type (0, 0), BuildingBlock: KIFKEQ_clean_linker_1, # of connection points: 2
#     Edge 32, Type (0, 0), BuildingBlock: KIFKEQ_clean_linker_1, # of connection points: 2
#     Edge 33, Type (0, 0), BuildingBlock: KIFKEQ_clean_linker_1, # of connection points: 2
#     Edge 34, Type (0, 0), BuildingBlock: KIFKEQ_clean_linker_1, # of connection points: 2
#     Edge 35, Type (0, 0), BuildingBlock: KIFKEQ_clean_linker_1, # of connection points: 2
#     Edge 36, Type (0, 0), BuildingBlock: KIFKEQ_clean_linker_1, # of connection points: 2
#     Edge 37, Type (0, 0), BuildingBlock: KIFKEQ_clean_linker_1, # of connection points: 2
#     Edge 38, Type (0, 0), BuildingBlock: KIFKEQ_clean_linker_1, # of connection points: 2
#     Edge 39, Type (0, 0), BuildingBlock: KIFKEQ_clean_linker_1, # of connection points: 2
#     Edge 40, Type (0, 0), BuildingBlock: KIFKEQ_clean_linker_1, # of connection points: 2
#     Edge 41, Type (0, 0), BuildingBlock: KIFKEQ_clean_linker_1, # of connection points: 2
# Relax obj value: 0.383
# Max RMSD: 0.283
# Mean RMSD: 0.283
data_MOF--net-fnz--node1-XOMCOT_clean_sbu_1--edge1-KIFKEQ_clean_linker_1
_symmetry_space_group_name_H-M    P1
_symmetry_Int_Tables_number       1
_symmetry_cell_setting            triclinic
loop_
_symmetry_equiv_pos_as_xyz
'x, y, z'
_cell_length_a     46.075892
_cell_length_b     46.019806
_cell_length_c     27.346513
_cell_angle_alpha  90.239445
_cell_angle_beta   89.747654
_cell_angle_gamma 120.00244
loop_
_atom_site_label
_atom_site_type_symbol
_atom_site_fract_x
_atom_site_fract_y
_atom_site_fract_z
_atom_type_partial_charge
C0 C 0.51565 0.16312 0.99484 0.0
C1 C 0.52802 0.14146 0.99755 0.0
N2 N 0.50196 0.10978 0.99868 0.0
N3 N 0.48183 0.14536 0.99497 0.0
C4 C 0.47434 0.11293 0.99654 0.0
H5 H 0.53043 0.1902 0.99346 0.0
Co6 Co 0.45243 0.16263 0.98895 0.0
C7 C 0.48506 0.18807 0.08876 0.0
O8 O 0.49437 0.16541 0.09131 0.0
N9 N 0.42344 0.17963 0.98175 0.0
C10 C 0.3897 0.195 0.94717 0.0
C11 C 0.40833 0.17957 0.93963 0.0
C12 C 0.41354 0.1951 1.01447 0.0
N13 N 0.39311 0.20489 0.99427 0.0
O14 O 0.48474 0.19871 0.94774 0.0
H15 H 0.41103 0.16931 0.90539 0.0
H16 H 0.42091 0.19898 0.05247 0.0
O17 O 0.46958 0.18935 0.05064 0.0
C18 C 0.48171 0.18547 0.90534 0.0
O19 O 0.46202 0.15282 0.90143 0.0
N20 N 0.41838 0.12508 1.0211 0.0
C21 C 0.36673 0.06078 0.04396 0.0
C22 C 0.38891 0.08157 0.08039 0.0
C23 C 0.41452 0.11407 0.0683 0.0
C24 C 0.3965 0.10528 0.98589 0.0
C25 C 0.37042 0.07331 0.99652 0.0
H26 H 0.43144 0.12945 0.09655 0.0
H27 H 0.40028 0.11393 0.94848 0.0
H28 H 0.44907 0.0919 0.99496 0.0
H29 H 0.55423 0.14866 0.99919 0.0
H30 H 0.37555 0.19947 0.9197 0.0
H31 H 0.38665 0.07265 0.11757 0.0
H32 H 0.35417 0.05793 0.96723 0.0
C33 C 0.34615 0.49985 0.03275 0.0
C34 C 0.38028 0.51252 0.03376 0.0
N35 N 0.38669 0.48866 1.0172 0.0
N36 N 0.33107 0.46808 1.01579 0.0
C37 C 0.35645 0.46218 1.00588 0.0
H38 H 0.33313 0.51279 0.04438 0.0
Co39 Co 0.28499 0.43853 1.00841 0.0
C40 C 0.26437 0.44309 0.11126 0.0
O41 O 0.25329 0.41091 0.11701 0.0
N42 N 0.23847 0.40948 0.99871 0.0
C43 C 0.19172 0.37654 0.95727 0.0
C44 C 0.22611 0.39358 0.95575 0.0
C45 C 0.21076 0.40261 1.02508 0.0
N46 N 0.18201 0.38218 1.00108 0.0
O47 O 0.28178 0.47085 0.96677 0.0
H48 H 0.24129 0.39463 0.9248 0.0
H49 H 0.21119 0.41297 0.06051 0.0
O50 O 0.27617 0.45712 0.0697 0.0
C51 C 0.29216 0.46832 0.92426 0.0
O52 O 0.30507 0.44864 0.9196 0.0
N53 N 0.2894 0.40492 0.04289 0.0
C54 C 0.30682 0.35735 0.07206 0.0
C55 C 0.31934 0.38791 0.09721 0.0
C56 C 0.31018 0.41135 0.0822 0.0
C57 C 0.27712 0.37512 1.01857 0.0
C58 C 0.28479 0.35085 0.03318 0.0
H59 H 0.32139 0.43549 0.1003 0.0
H60 H 0.26334 0.37069 0.98517 0.0
H61 H 0.35265 0.43858 0.9915 0.0
H62 H 0.39881 0.53701 0.04721 0.0
H63 H 0.17525 0.36203 0.92768 0.0
H64 H 0.33695 0.39411 0.12694 0.0
H65 H 0.27556 0.32815 1.01157 0.0
C66 C 0.84086 0.34887 0.9857 0.0
C67 C 0.86218 0.383 0.98909 0.0
N68 N 0.89366 0.38885 0.99545 0.0
N69 N 0.85855 0.3329 0.99059 0.0
C70 C 0.89073 0.35807 0.99557 0.0
H71 H 0.81404 0.33648 0.98047 0.0
Co72 Co 0.84173 0.28595 0.98676 0.0
C73 C 0.81195 0.29405 0.0828 0.0
O74 O 0.83254 0.3266 0.08424 0.0
N75 N 0.82544 0.23989 0.98172 0.0
C76 C 0.81042 0.19 0.94958 0.0
C77 C 0.82497 0.22376 0.94025 0.0
C78 C 0.81129 0.2155 1.01592 0.0
N79 N 0.80172 0.18478 0.99723 0.0
O80 O 0.80641 0.28059 0.94213 0.0
H81 H 0.83431 0.23577 0.90526 0.0
H82 H 0.8082 0.22013 0.05385 0.0
O83 O 0.81316 0.27696 0.04643 0.0
C84 C 0.81929 0.28979 0.89934 0.0
O85 O 0.85206 0.30428 0.8954 0.0
N86 N 0.87827 0.29046 1.02295 0.0
C87 C 0.94116 0.30312 0.05331 0.0
C88 C 0.9199 0.30721 0.08596 0.0
C89 C 0.88804 0.30021 0.07019 0.0
C90 C 0.89872 0.28607 0.99138 0.0
C91 C 0.92996 0.29175 1.00594 0.0
H92 H 0.87235 0.30415 0.09534 0.0
H93 H 0.89119 0.27938 0.95373 0.0
H94 H 0.91172 0.35396 0.99951 0.0
H95 H 0.85497 0.40199 0.98643 0.0
H96 H 0.80575 0.17072 0.9229 0.0
H97 H 0.92806 0.31629 0.12279 0.0
H98 H 0.94597 0.2889 0.97952 0.0
C99 C 0.50077 0.84442 1.02115 0.0
C100 C 0.48779 0.86562 1.01946 0.0
N101 N 0.51345 0.89753 1.01946 0.0
N102 N 0.53453 0.86275 1.02302 0.0
C103 C 0.54142 0.89497 1.02116 0.0
H104 H 0.48645 0.81729 1.02116 0.0
Co105 Co 0.56501 0.84669 1.02125 0.0
C106 C 0.52908 0.82135 0.11925 0.0
O107 O 0.51858 0.84313 0.11954 0.0
N108 N 0.59528 0.83105 1.01779 0.0
C109 C 0.63173 0.81774 0.98684 0.0
C110 C 0.61258 0.83227 0.97726 0.0
C111 C 0.60437 0.81579 0.05165 0.0
N112 N 0.62644 0.80725 0.03364 0.0
O113 O 0.53464 0.80944 0.97976 0.0
H114 H 0.61096 0.84262 0.94263 0.0
H115 H 0.59506 0.81096 0.08879 0.0
O116 O 0.54635 0.82052 0.08285 0.0
C117 C 0.53791 0.82096 0.93625 0.0
O118 O 0.55691 0.85353 0.93016 0.0
N119 N 0.59725 0.88505 0.05456 0.0
C120 C 0.64785 0.9492 0.08035 0.0
C121 C 0.62408 0.92849 0.11513 0.0
C122 C 0.59904 0.896 0.10163 0.0
C123 C 0.62054 0.90502 1.02089 0.0
C124 C 0.6462 0.93691 0.03308 0.0
H125 H 0.581 0.88057 0.12871 0.0
H126 H 0.61837 0.89652 0.98349 0.0
H127 H 0.56655 0.91622 1.01942 0.0
H128 H 0.46146 0.85797 1.01851 0.0
H129 H 0.64736 0.81406 0.96077 0.0
H130 H 0.62467 0.93745 0.152 0.0
H131 H 0.66382 0.95244 1.0051 0.0
C132 C 0.65444 0.49498 0.03099 0.0
C133 C 0.62007 0.48064 0.02954 0.0
N134 N 0.6126 0.50543 0.02958 0.0
N135 N 0.66873 0.52874 0.03212 0.0
C136 C 0.64245 0.53419 0.03088 0.0
H137 H 0.66817 0.48158 0.03106 0.0
Co138 Co 0.71525 0.56015 0.03003 0.0
C139 C 0.70532 0.52688 0.12869 0.0
O140 O 0.67435 0.52098 0.13104 0.0
N141 N 0.76081 0.59094 0.02678 0.0
C142 C 0.81074 0.62786 0.99714 0.0
C143 C 0.77692 0.60973 0.98746 0.0
C144 C 0.78512 0.59834 0.06008 0.0
N145 N 0.81585 0.62049 0.04284 0.0
O146 O 0.72252 0.53054 0.98717 0.0
H147 H 0.76492 0.60955 0.95349 0.0
H148 H 0.78054 0.58771 0.09632 0.0
O149 O 0.72299 0.54098 0.09046 0.0
C150 C 0.71409 0.53412 0.94397 0.0
O151 O 0.69983 0.55254 0.93899 0.0
N152 N 0.70902 0.59186 0.06461 0.0
C153 C 0.69601 0.64214 0.09402 0.0
C154 C 0.70343 0.62457 0.12885 0.0
C155 C 0.71038 0.59955 0.11323 0.0
C156 C 0.70424 0.6106 0.03061 0.0
C157 C 0.69716 0.63545 0.04446 0.0
H158 H 0.71702 0.58698 0.14026 0.0
H159 H 0.70465 0.60517 0.99219 0.0
H160 H 0.64486 0.5587 0.02945 0.0
H161 H 0.60205 0.45405 0.02876 0.0
H162 H 0.8301 0.64417 0.97174 0.0
H163 H 0.70361 0.62995 0.16747 0.0
H164 H 0.69215 0.64907 1.01664 0.0
C165 C 0.15577 0.65262 0.0581 0.0
C166 C 0.13492 0.61895 0.04894 0.0
N167 N 0.10322 0.61296 0.04512 0.0
N168 N 0.13742 0.668 0.06075 0.0
C169 C 0.1056 0.64325 0.05178 0.0
H170 H 0.18265 0.66509 0.06281 0.0
Co171 Co 0.1536 0.71421 0.07162 0.0
C172 C 0.17769 0.69649 0.16673 0.0
O173 O 0.15925 0.66369 0.1635 0.0
N174 N 0.17007 0.76032 0.08373 0.0
C175 C 0.18074 0.80606 0.12596 0.0
C176 C 0.16428 0.77179 0.12621 0.0
C177 C 0.19106 0.78855 0.05864 0.0
N178 N 0.19767 0.81667 0.08362 0.0
O179 O 0.19244 0.72509 0.03066 0.0
H180 H 0.14976 0.7562 0.15651 0.0
H181 H 0.20175 0.78864 1.0233 0.0
O182 O 0.17645 0.71498 0.13293 0.0
C183 C 0.18112 0.72271 0.98715 0.0
O184 O 0.14963 0.71487 0.98259 0.0
N185 N 0.11352 0.70385 0.10372 0.0
C186 C 0.04868 0.68833 0.12862 0.0
C187 C 0.06561 0.67599 0.15671 0.0
C188 C 0.09845 0.68439 0.14385 0.0
C189 C 0.09708 0.71565 0.07617 0.0
C190 C 0.06502 0.70873 0.08841 0.0
H191 H 0.11084 0.67401 0.1647 0.0
H192 H 0.10884 0.73002 0.04353 0.0
H193 H 0.08445 0.64733 0.05075 0.0
H194 H 0.14271 0.60044 0.04489 0.0
H195 H 0.18147 0.82207 0.15564 0.0
H196 H 0.05338 0.65963 0.18755 0.0
H197 H 0.05248 0.718 0.06509 0.0
C198 C 0.8514 0.5075 0.54277 0.0
C199 C 0.87393 0.4962 0.5452 0.0
N200 N 0.90518 0.52298 0.54569 0.0
N201 N 0.86823 0.54133 0.54071 0.0
C202 C 0.90092 0.54997 0.54347 0.0
H203 H 0.82439 0.49199 0.54257 0.0
Co204 Co 0.84985 0.56988 0.54308 0.0
C205 C 0.82378 0.53285 0.44529 0.0
O206 O 0.84443 0.52098 0.44522 0.0
N207 N 0.83181 0.59818 0.54732 0.0
C208 C 0.81423 0.63091 0.57992 0.0
C209 C 0.82955 0.61249 0.58919 0.0
C210 C 0.81782 0.60837 0.51295 0.0
N211 N 0.80676 0.62825 0.53194 0.0
O212 O 0.81352 0.53797 0.5846 0.0
H213 H 0.83826 0.60947 0.62442 0.0
H214 H 0.81592 0.60157 0.47474 0.0
O215 O 0.82388 0.55083 0.48139 0.0
C216 C 0.8253 0.54143 0.62795 0.0
O217 O 0.85768 0.56161 0.63387 0.0
N218 N 0.88725 0.60345 0.50949 0.0
C219 C 0.95154 0.65402 0.48403 0.0
C220 C 0.93255 0.62769 0.45135 0.0
C221 C 0.90002 0.60269 0.46455 0.0
C222 C 0.90537 0.62931 0.54091 0.0
C223 C 0.93718 0.65506 0.52864 0.0
H224 H 0.88638 0.58206 0.43988 0.0
H225 H 0.89587 0.62897 0.57721 0.0
H226 H 0.92123 0.57563 0.54568 0.0
H227 H 0.86763 0.47019 0.54638 0.0
H228 H 0.80814 0.64438 0.6068 0.0
H229 H 0.94313 0.62593 0.41678 0.0
H230 H 0.95134 0.67449 0.55538 0.0
C231 C 0.35146 0.83608 0.57757 0.0
C232 C 0.38549 0.85776 0.57386 0.0
N233 N 0.39109 0.88945 0.57254 0.0
N234 N 0.33538 0.85385 0.57793 0.0
C235 C 0.36033 0.88627 0.57575 0.0
H236 H 0.33916 0.809 0.57899 0.0
Co237 Co 0.28863 0.837 0.58368 0.0
C238 C 0.29592 0.81192 0.48313 0.0
O239 O 0.32806 0.83397 0.48069 0.0
N240 N 0.24274 0.82061 0.59031 0.0
C241 C 0.19303 0.80444 0.62382 0.0
C242 C 0.22678 0.81848 0.63268 0.0
C243 C 0.21831 0.80796 0.55612 0.0
N244 N 0.18771 0.79772 0.57561 0.0
O245 O 0.28361 0.8001 0.62412 0.0
H246 H 0.23889 0.82636 0.66788 0.0
H247 H 0.2228 0.8065 0.51759 0.0
O248 O 0.27921 0.81079 0.52145 0.0
C249 C 0.29378 0.81207 0.66711 0.0
O250 O 0.30894 0.84482 0.6726 0.0
N251 N 0.293 0.87503 0.55239 0.0
C252 C 0.30753 0.94016 0.53161 0.0
C253 C 0.30883 0.91959 0.49452 0.0
C254 C 0.30102 0.88667 0.50557 0.0
C255 C 0.29079 0.89451 0.58817 0.0
C256 C 0.29767 0.92693 0.57859 0.0
H257 H 0.30269 0.87151 0.47694 0.0
H258 H 0.28517 0.88525 0.62527 0.0
H259 H 0.35613 0.90733 0.57731 0.0
H260 H 0.40448 0.85055 0.57139 0.0
H261 H 0.17383 0.79879 0.65106 0.0
H262 H 0.31622 0.92902 0.45766 0.0
H263 H 0.29684 0.94207 0.60841 0.0
C264 C 0.51659 0.34909 0.51252 0.0
C265 C 0.53052 0.38322 0.51893 0.0
N266 N 0.50556 0.39002 0.52622 0.0
N267 N 0.4829 0.33433 0.51507 0.0
C268 C 0.4771 0.35989 0.52445 0.0
H269 H 0.53014 0.33594 0.50538 0.0
Co270 Co 0.45116 0.28828 0.50726 0.0
C271 C 0.4856 0.3048 0.40625 0.0
O272 O 0.49833 0.33745 0.40878 0.0
N273 N 0.41974 0.24244 0.49768 0.0
C274 C 0.38106 0.19708 0.45868 0.0
C275 C 0.39982 0.23127 0.45777 0.0
C276 C 0.41304 0.21409 0.52189 0.0
N277 N 0.38935 0.18619 0.49885 0.0
O278 O 0.48062 0.27661 0.54204 0.0
H279 H 0.39967 0.24695 0.42856 0.0
H280 H 0.42557 0.21378 0.55509 0.0
O281 O 0.46883 0.28629 0.44232 0.0
C282 C 0.4751 0.2812 0.58668 0.0
O283 O 0.45335 0.29122 0.59494 0.0
N284 N 0.42019 0.29947 0.48271 0.0
C285 C 0.37142 0.31819 0.47622 0.0
C286 C 0.39542 0.32669 0.43881 0.0
C287 C 0.41978 0.3169 0.44265 0.0
C288 C 0.39675 0.2908 0.51862 0.0
C289 C 0.3723 0.29978 0.51614 0.0
H290 H 0.43862 0.32433 0.41461 0.0
H291 H 0.39781 0.27763 0.55059 0.0
H292 H 0.45231 0.35659 0.52865 0.0
H293 H 0.557 0.40153 0.51802 0.0
H294 H 0.36372 0.18127 0.43069 0.0
H295 H 0.39556 0.34099 0.40737 0.0
H296 H 0.35492 0.29332 0.54643 0.0
C297 C 0.16965 0.52279 0.53409 0.0
C298 C 0.1495 0.53686 0.5401 0.0
N299 N 0.11769 0.51191 0.54704 0.0
N300 N 0.1506 0.48909 0.53655 0.0
C301 C 0.11938 0.48346 0.54609 0.0
H302 H 0.19624 0.53619 0.52623 0.0
Co303 Co 0.16292 0.45613 0.52547 0.0
C304 C 0.18705 0.49482 0.4271 0.0
O305 O 0.17186 0.5125 0.42918 0.0
N306 N 0.17535 0.42333 0.51211 0.0
C307 C 0.17957 0.38489 0.46791 0.0
C308 C 0.1639 0.40317 0.47225 0.0
C309 C 0.19905 0.41721 0.5307 0.0
N310 N 0.20178 0.39362 0.50444 0.0
O311 O 0.20383 0.48261 0.56251 0.0
H312 H 0.14663 0.40303 0.44557 0.0
H313 H 0.21479 0.43052 0.56158 0.0
O314 O 0.1839 0.47523 0.46228 0.0
C315 C 0.19311 0.47536 0.60668 0.0
O316 O 0.16097 0.45435 0.6133 0.0
N317 N 0.12094 0.42816 0.49797 0.0
C318 C 0.05451 0.38039 0.47989 0.0
C319 C 0.07199 0.40747 0.44765 0.0
C320 C 0.1056 0.43135 0.45735 0.0
C321 C 0.10389 0.40243 0.52986 0.0
C322 C 0.07089 0.37826 0.52144 0.0
H323 H 0.11884 0.45238 0.43307 0.0
H324 H 0.11616 0.40089 0.56255 0.0
H325 H 0.09799 0.45873 0.55141 0.0
H326 H 0.15748 0.56326 0.53723 0.0
H327 H 0.17644 0.36801 0.43808 0.0
H328 H 0.05988 0.41001 0.4154 0.0
H329 H 0.05809 0.35828 0.54784 0.0
C330 C 0.65049 0.15459 0.50874 0.0
C331 C 0.61722 0.13321 0.51984 0.0
N332 N 0.61233 0.10194 0.52523 0.0
N333 N 0.66658 0.13692 0.50652 0.0
C334 C 0.64283 0.10513 0.51774 0.0
H335 H 0.6621 0.18123 0.50182 0.0
Co336 Co 0.71202 0.15278 0.49182 0.0
C337 C 0.69279 0.17802 0.39848 0.0
O338 O 0.65998 0.16031 0.4018 0.0
N339 N 0.75734 0.16896 0.47531 0.0
C340 C 0.80057 0.18028 0.42675 0.0
C341 C 0.76659 0.16221 0.4316 0.0
C342 C 0.7866 0.19206 0.49602 0.0
N343 N 0.81328 0.19918 0.46707 0.0
O344 O 0.72468 0.19182 0.53371 0.0
H345 H 0.7496 0.14651 0.40332 0.0
H346 H 0.7883 0.20429 0.53062 0.0
O347 O 0.71097 0.17565 0.43167 0.0
C348 C 0.72369 0.18058 0.57696 0.0
O349 O 0.71574 0.14898 0.58102 0.0
N350 N 0.70002 0.11249 0.45883 0.0
C351 C 0.68308 0.04759 0.43128 0.0
C352 C 0.66965 0.06474 0.40621 0.0
C353 C 0.67874 0.09759 0.42038 0.0
C354 C 0.71275 0.09578 0.48368 0.0
C355 C 0.70513 0.06369 0.47003 0.0
H356 H 0.66754 0.11016 0.40198 0.0
H357 H 0.72852 0.10738 0.5152 0.0
H358 H 0.64789 0.08465 0.52041 0.0
H359 H 0.59803 0.14015 0.52238 0.0
H360 H 0.81467 0.18103 0.39454 0.0
H361 H 0.65198 0.05269 0.37669 0.0
H362 H 0.71525 0.05095 0.49118 0.0
C363 C 0.49908 0.65138 0.53685 0.0
C364 C 0.48765 0.61747 0.53819 0.0
N365 N 0.51417 0.61272 0.5343 0.0
N366 N 0.53271 0.6682 0.53137 0.0
C367 C 0.54115 0.64392 0.53077 0.0
H368 H 0.48378 0.66305 0.53993 0.0
Co369 Co 0.56132 0.71517 0.53251 0.0
C370 C 0.52182 0.70371 0.43736 0.0
O371 O 0.50931 0.67106 0.43758 0.0
N372 N 0.58962 0.76156 0.53517 0.0
C373 C 0.62281 0.81275 0.56458 0.0
C374 C 0.60573 0.77909 0.57547 0.0
C375 C 0.59746 0.78501 0.50015 0.0
N376 N 0.61739 0.81641 0.51722 0.0
O377 O 0.53078 0.72006 0.57663 0.0
H378 H 0.60464 0.76811 0.61079 0.0
H379 H 0.58883 0.77932 0.46281 0.0
O380 O 0.5406 0.72154 0.47267 0.0
C381 C 0.53573 0.71246 0.61964 0.0
O382 O 0.5561 0.70036 0.62394 0.0
N383 N 0.59381 0.71121 0.49598 0.0
C384 C 0.64547 0.70116 0.46311 0.0
C385 C 0.61801 0.69335 0.43286 0.0
C386 C 0.59243 0.69901 0.44983 0.0
C387 C 0.6205 0.71889 0.52541 0.0
C388 C 0.64678 0.71462 0.50947 0.0
H389 H 0.57118 0.69201 0.42665 0.0
H390 H 0.62075 0.72721 0.5625 0.0
H391 H 0.56669 0.64905 0.52819 0.0
H392 H 0.46182 0.59796 0.54288 0.0
H393 H 0.63709 0.83301 0.59003 0.0
H394 H 0.61605 0.68241 0.39703 0.0
H395 H 0.6672 0.72017 0.53428 0.0
H396 H 0.45287 0.0486 0.03025 0.0
H397 H 0.55419 0.10076 0.97397 0.0
H398 H 0.45543 0.99712 0.03548 0.0
H399 H 0.55678 0.04938 0.9799 0.0
H400 H 0.56099 0.96039 0.04744 0.0
H401 H 0.55801 0.01162 0.04239 0.0
H402 H 0.45847 0.95547 0.98181 0.0
H403 H 0.4615 0.90424 0.98617 0.0
C404 C 0.4756 0.04916 1.01857 0.0
C405 C 0.50332 0.07908 1.00161 0.0
C406 C 0.47707 0.01956 1.02169 0.0
C407 C 0.50634 0.01912 1.00821 0.0
C408 C 0.53403 0.04896 0.9913 0.0
C409 C 0.53252 0.0785 0.98793 0.0
C410 C 0.53857 0.95888 0.03254 0.0
C411 C 0.51154 0.92795 1.01706 0.0
C412 C 0.53686 0.98834 0.02973 0.0
C413 C 0.50801 0.98768 1.01164 0.0
C414 C 0.48089 0.9568 0.99653 0.0
C415 C 0.48265 0.92735 0.99909 0.0
H416 H 0.55626 0.45484 0.98857 0.0
H417 H 0.59433 0.5488 0.06606 0.0
H418 H 0.50128 0.45029 0.9835 0.0
H419 H 0.53944 0.54415 0.06164 0.0
H420 H 0.39897 0.43724 0.02874 0.0
H421 H 0.45353 0.44071 0.03135 0.0
H422 H 0.50196 0.54747 1.00516 0.0
H423 H 0.44741 0.54392 1.00334 0.0
C424 C 0.55283 0.47436 1.00496 0.0
C425 C 0.5798 0.50226 0.02752 0.0
C426 C 0.52126 0.47176 1.00209 0.0
C427 C 0.51583 0.49692 1.02193 0.0
C428 C 0.54277 0.52462 0.04499 0.0
C429 C 0.57432 0.52728 0.04763 0.0
C430 C 0.42125 0.46136 1.02293 0.0
C431 C 0.41883 0.49033 1.01592 0.0
C432 C 0.45259 0.46338 1.02444 0.0
C433 C 0.4823 0.49442 1.01876 0.0
C434 C 0.47974 0.52325 1.01074 0.0
C435 C 0.44844 0.52124 1.00952 0.0
H436 H 0.09402 0.55093 0.06424 0.0
H437 H 0.04368 0.6015 1.00761 0.0
H438 H 0.04362 0.49701 0.05138 0.0
H439 H 0.99319 0.54745 0.99465 0.0
H440 H 0.89829 0.44706 0.0275 0.0
H441 H 0.94886 0.50114 0.03854 0.0
H442 H 0.00877 0.45861 0.98878 0.0
H443 H 0.95814 0.40443 0.97778 0.0
C444 C 0.07239 0.55065 0.04852 0.0
C445 C 0.07319 0.58084 0.03694 0.0
C446 C 0.04335 0.51958 0.04111 0.0
C447 C 0.01418 0.51769 1.02188 0.0
C448 C 0.01495 0.54785 1.01021 0.0
C449 C 0.04402 0.57896 1.01764 0.0
C450 C 0.92214 0.4492 1.01837 0.0
C451 C 0.92387 0.42112 1.00161 0.0
C452 C 0.95127 0.48036 1.02471 0.0
C453 C 0.98306 0.48445 1.01453 0.0
C454 C 0.98482 0.4564 0.99772 0.0
C455 C 0.95568 0.4252 0.99137 0.0
H456 H 0.05444 0.46355 0.52317 0.0
H457 H 0.11213 0.56599 0.57417 0.0
H458 H 0.00396 0.46748 0.52522 0.0
H459 H 0.06114 0.56998 0.57561 0.0
H460 H 0.91461 0.47349 0.58206 0.0
H461 H 0.96652 0.47192 0.58429 0.0
H462 H 0.01927 0.57044 0.51918 0.0
H463 H 0.9671 0.57198 0.5165 0.0
C464 C 0.05642 0.48682 0.53561 0.0
C465 C 0.08757 0.51435 0.54911 0.0
C466 C 0.02731 0.48908 0.5366 0.0
C467 C 0.02839 0.51897 0.55089 0.0
C468 C 0.05948 0.54666 0.56405 0.0
C469 C 0.08872 0.54436 0.56327 0.0
C470 C 0.93712 0.49477 0.56784 0.0
C471 C 0.93641 0.52274 0.54872 0.0
C472 C 0.96699 0.49388 0.56922 0.0
C473 C 0.99706 0.52095 0.55163 0.0
C474 C 0.99662 0.54929 0.53348 0.0
C475 C 0.96665 0.55015 0.53195 0.0
H476 H 0.59701 0.03784 0.50456 0.0
H477 H 0.55565 0.09604 0.56614 0.0
H478 H 0.54374 0.98666 0.51767 0.0
H479 H 0.50224 0.04475 0.57868 0.0
H480 H 0.40216 0.95009 0.54002 0.0
H481 H 0.45579 1.00141 0.53053 0.0
H482 H 0.50679 0.95049 0.58302 0.0
H483 H 0.45312 0.89914 0.59316 0.0
C484 C 0.5768 0.03983 0.52144 0.0
C485 C 0.5809 0.07135 0.5343 0.0
C486 C 0.54612 0.01035 0.52889 0.0
C487 C 0.51861 0.01152 0.54916 0.0
C488 C 0.52272 0.04294 0.56231 0.0
C489 C 0.55344 0.07243 0.55508 0.0
C490 C 0.42466 0.94977 0.55024 0.0
C491 C 0.42302 0.92019 0.56751 0.0
C492 C 0.45553 0.97933 0.54469 0.0
C493 C 0.48568 0.98015 0.55598 0.0
C494 C 0.48411 0.95066 0.57332 0.0
C495 C 0.45323 0.92113 0.57911 0.0
H496 H 0.46012 0.40422 0.56717 0.0
H497 H 0.55693 0.45029 0.49603 0.0
H498 H 0.46285 0.45836 0.57031 0.0
H499 H 0.55971 0.50452 0.49968 0.0
H500 H 0.56559 0.60173 0.55638 0.0
H501 H 0.56439 0.5482 0.55651 0.0
H502 H 0.46048 0.49777 0.51301 0.0
H503 H 0.46165 0.55114 0.51234 0.0
C504 C 0.48196 0.42577 0.55202 0.0
C505 C 0.50819 0.4226 0.53101 0.0
C506 C 0.48352 0.4569 0.55387 0.0
C507 C 0.5114 0.48579 0.53496 0.0
C508 C 0.53801 0.48286 0.51504 0.0
C509 C 0.53641 0.45167 0.51302 0.0
C510 C 0.54253 0.57936 0.54642 0.0
C511 C 0.51367 0.581 0.53448 0.0
C512 C 0.54185 0.54858 0.54657 0.0
C513 C 0.51229 0.51863 0.53501 0.0
C514 C 0.48351 0.52025 0.523 0.0
C515 C 0.4842 0.55098 0.52265 0.0
H516 H 0.37487 0.01172 0.08646 0.0
H517 H 0.30058 0.03012 1.02084 0.0
H518 H 0.3333 0.95175 0.09227 0.0
H519 H 0.2592 0.97045 0.02636 0.0
H520 H 0.1877 0.86855 0.09993 0.0
H521 H 0.22865 0.92809 0.09144 0.0
H522 H 0.30054 0.9028 0.03323 0.0
H523 H 0.25917 0.84284 0.04206 0.0
C524 C 0.34952 0.00297 0.07408 0.0
C525 C 0.3408 0.02548 0.05354 0.0
C526 C 0.32591 0.96868 0.07669 0.0
C527 C 0.2931 0.95641 0.05937 0.0
C528 C 0.28424 0.97916 0.04012 0.0
C529 C 0.30787 0.01328 0.03701 0.0
C530 C 0.21213 0.87578 0.08477 0.0
C531 C 0.22034 0.85122 0.07161 0.0
C532 C 0.23554 0.90981 0.07983 0.0
C533 C 0.26789 0.9201 0.06207 0.0
C534 C 0.27589 0.89554 0.04758 0.0
C535 C 0.25218 0.86133 0.05196 0.0
H536 H 0.33493 0.20234 0.97163 0.0
H537 H 0.42022 0.25047 0.06797 0.0
H538 H 0.31402 0.23777 1.00369 0.0
H539 H 0.39885 0.28571 0.10114 0.0
H540 H 0.37194 0.37214 0.07792 0.0
H541 H 0.39242 0.33256 0.06953 0.0
H542 H 0.2906 0.24988 0.07567 0.0
H543 H 0.27023 0.28951 0.08334 0.0
C544 C 0.34906 0.22031 1.00002 0.0
C545 C 0.37935 0.22374 1.01691 0.0
C546 C 0.33687 0.24038 1.01891 0.0
C547 C 0.3547 0.26455 0.05516 0.0
C548 C 0.3846 0.26743 0.0731 0.0
C549 C 0.3967 0.24708 0.05437 0.0
C550 C 0.35407 0.34548 0.07925 0.0
C551 C 0.31948 0.33386 0.08083 0.0
C552 C 0.36578 0.32277 0.07429 0.0
C553 C 0.34308 0.28807 0.07093 0.0
C554 C 0.30868 0.27648 0.077 0.0
C555 C 0.29701 0.29912 0.08176 0.0
H556 H 0.96876 0.2632 0.05846 0.0
H557 H 0.99232 0.36607 0.07165 0.0
H558 H 0.02843 0.28136 0.05619 0.0
H559 H 0.05211 0.3847 0.06725 0.0
H560 H 0.12616 0.32668 0.96912 0.0
H561 H 0.06873 0.30708 0.99341 0.0
H562 H 0.1025 0.38827 0.09785 0.0
H563 H 0.16016 0.40905 0.07153 0.0
C564 C 0.98688 0.28967 0.06223 0.0
C565 C 0.97616 0.31327 0.06549 0.0
C566 C 0.02102 0.30018 0.06022 0.0
C567 C 0.04517 0.33458 0.06035 0.0
C568 C 0.03434 0.35802 0.06731 0.0
C569 C 1.0001 0.34742 0.06998 0.0
C570 C 0.12148 0.34058 0.99703 0.0
C571 C 0.14799 0.36969 1.01787 0.0
C572 C 0.08843 0.32895 1.01168 0.0
C573 C 0.08083 0.34591 0.04795 0.0
C574 C 0.10736 0.37468 0.06961 0.0
C575 C 0.14054 0.38643 0.05477 0.0
H576 H 0.76031 0.16847 0.07624 0.0
H577 H 0.80258 0.12813 0.9736 0.0
H578 H 0.7264 0.11279 0.11212 0.0
H579 H 0.76798 0.07264 1.00773 0.0
H580 H 0.71536 0.97669 0.08247 0.0
H581 H 0.75687 0.03622 0.07519 0.0
H582 H 0.67788 0.06063 0.08769 0.0
H583 H 0.63678 1.00105 0.09694 0.0
C584 C 0.76272 0.14787 0.06171 0.0
C585 C 0.78395 0.15274 1.02163 0.0
C586 C 0.74305 0.11587 0.08203 0.0
C587 C 0.74432 0.08809 0.06286 0.0
C588 C 0.76659 0.09338 1.02407 0.0
C589 C 0.78614 0.12522 1.00386 0.0
C590 C 0.70722 0.99501 0.0856 0.0
C591 C 0.67307 0.98452 0.09045 0.0
C592 C 0.73084 0.02905 0.08079 0.0
C593 C 0.72068 0.05324 0.07969 0.0
C594 C 0.68671 0.04281 0.08862 0.0
C595 C 0.66311 0.0087 0.09405 0.0
H596 H 0.59599 0.76016 0.10438 0.0
H597 H 0.6856 0.8102 1.01604 0.0
H598 H 0.61439 0.72242 0.13596 0.0
H599 H 0.70355 0.7721 0.04642 0.0
H600 H 0.73728 0.70796 0.11593 0.0
H601 H 0.72209 0.75199 0.11532 0.0
H602 H 0.61801 0.67636 0.09678 0.0
H603 H 0.63341 0.63275 0.09813 0.0
C604 C 0.61991 0.76354 0.09241 0.0
C605 C 0.63916 0.78791 0.0572 0.0
C606 C 0.63033 0.74176 0.11025 0.0
C607 C 0.66034 0.74409 0.09354 0.0
C608 C 0.68047 0.76976 0.06051 0.0
C609 C 0.66998 0.79135 0.04254 0.0
C610 C 0.71109 0.7009 0.11374 0.0
C611 C 0.6864 0.66719 0.10759 0.0
C612 C 0.70239 0.72601 0.11282 0.0
C613 C 0.66887 0.71772 0.10549 0.0
C614 C 0.64397 0.68365 0.10305 0.0
C615 C 0.65271 0.65864 0.10382 0.0
H616 H 0.87415 0.678 0.02588 0.0
H617 H 0.83002 0.58784 0.11324 0.0
H618 H 0.92887 0.69422 0.05971 0.0
H619 H 0.88469 0.60474 0.14864 0.0
H620 H 0.99539 0.62477 0.13093 0.0
H621 H 0.93662 0.6087 0.11992 0.0
H622 H 0.96318 0.71279 0.13195 0.0
H623 H 0.02194 0.72869 0.1416 0.0
C624 C 0.87605 0.66179 0.05267 0.0
C625 C 0.84766 0.63151 0.06644 0.0
C626 C 0.90739 0.67131 0.07267 0.0
C627 C 0.91121 0.65082 0.10709 0.0
C628 C 0.88267 0.62099 0.12201 0.0
C629 C 0.85124 0.61148 0.102 0.0
C630 C 0.98837 0.64398 0.13298 0.0
C631 C 0.01306 0.67793 0.13683 0.0
C632 C 0.95474 0.63485 0.12653 0.0
C633 C 0.94529 0.65956 0.12404 0.0
C634 C 0.96973 0.69323 0.13248 0.0
C635 C 0.00329 0.70233 0.13855 0.0
H636 H 0.13182 0.79912 0.60181 0.0
H637 H 0.17088 0.7589 0.49372 0.0
H638 H 0.07645 0.76726 0.56597 0.0
H639 H 0.11534 0.72762 0.45651 0.0
H640 H 1.00175 0.64037 0.46711 0.0
H641 H 0.06161 0.67901 0.47902 0.0
H642 H 0.0421 0.76108 0.49651 0.0
H643 H 0.98225 0.72213 0.486 0.0
C644 C 0.12864 0.7837 0.57006 0.0
C645 C 0.15574 0.78133 0.55103 0.0
C646 C 0.09692 0.76574 0.54896 0.0
C647 C 0.09137 0.74489 0.50815 0.0
C648 C 0.1187 0.74329 0.48807 0.0
C649 C 0.15059 0.76143 0.50917 0.0
C650 C 0.01051 0.66688 0.47166 0.0
C651 C 0.98749 0.67832 0.4759 0.0
C652 C 0.04479 0.68906 0.47864 0.0
C653 C 0.0566 0.72307 0.48978 0.0
C654 C 0.03376 0.73492 0.48922 0.0
C655 C 0.99955 0.71274 0.48268 0.0
H656 H 0.42463 0.15816 0.5341 0.0
H657 H 0.32623 0.13571 0.48767 0.0
H658 H 0.40452 0.09781 0.54151 0.0
H659 H 0.30625 0.07588 0.49418 0.0
H660 H 0.27435 0.9727 0.5585 0.0
H661 H 0.29468 0.03279 0.5553 0.0
H662 H 0.38529 0.04872 0.48387 0.0
H663 H 0.36502 0.98832 0.48795 0.0
C664 C 0.39862 0.14032 0.52637 0.0
C665 C 0.37694 0.15146 0.5103 0.0
C666 C 0.38722 0.10587 0.52988 0.0
C667 C 0.35387 0.0821 0.51799 0.0
C668 C 0.33201 0.09348 0.50383 0.0
C669 C 0.34344 0.12771 0.49995 0.0
C670 C 0.29848 0.98903 0.54174 0.0
C671 C 0.31806 0.97589 0.52326 0.0
C672 C 0.31012 0.02342 0.53987 0.0
C673 C 0.3417 0.04552 0.51966 0.0
C674 C 0.36106 0.03233 0.50028 0.0
C675 C 0.34926 0.99777 0.50186 0.0
H676 H 0.26708 0.42969 0.53261 0.0
H677 H 0.19062 0.33205 0.48305 0.0
H678 H 0.30902 0.41181 0.52531 0.0
H679 H 0.23201 0.31489 0.47281 0.0
H680 H 0.30562 0.28083 0.50058 0.0
H681 H 0.26594 0.29984 0.51448 0.0
H682 H 0.33901 0.39894 0.46391 0.0
H683 H 0.37992 0.38013 0.45323 0.0
C684 C 0.25921 0.40432 0.52091 0.0
C685 C 0.22565 0.38226 0.50827 0.0
C686 C 0.28324 0.39424 0.51582 0.0
C687 C 0.27403 0.36196 0.49804 0.0
C688 C 0.24017 0.33975 0.48718 0.0
C689 C 0.21636 0.34966 0.4927 0.0
C690 C 0.31331 0.30671 0.4924 0.0
C691 C 0.34599 0.32902 0.47607 0.0
C692 C 0.2904 0.31761 0.50003 0.0
C693 C 0.29917 0.35101 0.49044 0.0
C694 C 0.33158 0.37319 0.47247 0.0
C695 C 0.3548 0.36229 0.4654 0.0
H696 H 1.00061 0.38821 0.45904 0.0
H697 H 0.02897 0.31326 0.48478 0.0
H698 H 0.94138 0.34405 0.4576 0.0
H699 H 0.97046 0.26973 0.48551 0.0
H700 H 0.8665 0.19607 0.43355 0.0
H701 H 0.9244 0.24089 0.43217 0.0
H702 H 0.89728 0.30448 0.5138 0.0
H703 H 0.83842 0.25955 0.51296 0.0
C704 C 0.99416 0.36229 0.46367 0.0
C705 C 0.01925 0.35407 0.47195 0.0
C706 C 0.96033 0.33712 0.4637 0.0
C707 C 0.95119 0.30339 0.4718 0.0
C708 C 0.97653 0.29533 0.47867 0.0
C709 C 0.01009 0.32029 0.47846 0.0
C710 C 0.87286 0.2196 0.45124 0.0
C711 C 0.84792 0.22436 0.47312 0.0
C712 C 0.90612 0.24526 0.45076 0.0
C713 C 0.91551 0.27636 0.47272 0.0
C714 C 0.89074 0.28095 0.49593 0.0
C715 C 0.85719 0.25511 0.49622 0.0
H716 H 0.72286 0.02089 0.41263 0.0
H717 H 0.61944 0.99424 0.43102 0.0
H718 H 0.70724 0.96203 0.42084 0.0
H719 H 0.60369 0.93528 0.44007 0.0
H720 H 0.5844 0.82846 0.44524 0.0
H721 H 0.60021 0.88278 0.40839 0.0
H722 H 0.68993 0.92924 0.49646 0.0
H723 H 0.67444 0.87508 0.53229 0.0
C724 C 0.69663 1.00221 0.41693 0.0
C725 C 0.67236 0.01199 0.42154 0.0
C726 C 0.68771 0.96859 0.42203 0.0
C727 C 0.65436 0.94412 0.43217 0.0
C728 C 0.62959 0.95352 0.43214 0.0
C729 C 0.63854 0.98724 0.42682 0.0
C730 C 0.60783 0.85018 0.45587 0.0
C731 C 0.62812 0.84757 0.49189 0.0
C732 C 0.61674 0.8813 0.43504 0.0
C733 C 0.64633 0.91031 0.44941 0.0
C734 C 0.6672 0.90734 0.48401 0.0
C735 C 0.65816 0.87638 0.50504 0.0
H736 H 0.63659 0.63915 0.44502 0.0
H737 H 0.71251 0.74353 0.45495 0.0
H738 H 0.67981 0.62326 0.44893 0.0
H739 H 0.75601 0.72803 0.45688 0.0
H740 H 0.80672 0.6852 0.55538 0.0
H741 H 0.77024 0.70431 0.52322 0.0
H742 H 0.729 0.62199 0.42001 0.0
H743 H 0.76504 0.60211 0.45389 0.0
C744 C 0.66269 0.65871 0.44577 0.0
C745 C 0.67135 0.6925 0.44993 0.0
C746 C 0.68751 0.64967 0.44807 0.0
C747 C 0.7214 0.67435 0.45428 0.0
C748 C 0.73012 0.70835 0.45336 0.0
C749 C 0.70531 0.7173 0.45171 0.0
C750 C 0.79004 0.67127 0.52565 0.0
C751 C 0.78846 0.64188 0.50774 0.0
C752 C 0.76938 0.6825 0.50659 0.0
C753 C 0.74657 0.66471 0.4689 0.0
C754 C 0.74607 0.63613 0.44929 0.0
C755 C 0.76691 0.6249 0.46841 0.0
H756 H 0.46527 0.23855 0.38881 0.0
H757 H 0.50942 0.33481 0.31693 0.0
H758 H 0.46611 0.21218 0.31164 0.0
H759 H 0.51026 0.30832 0.23962 0.0
H760 H 0.47062 0.23937 0.10044 0.0
H761 H 0.47152 0.2683 0.17646 0.0
H762 H 0.50677 0.21071 0.25475 0.0
H763 H 0.50566 0.18184 0.17963 0.0
C764 C 0.47537 0.25418 0.35667 0.0
C765 C 0.48746 0.28892 0.35942 0.0
C766 C 0.47593 0.23903 0.31231 0.0
C767 C 0.48831 0.25808 0.2692 0.0
C768 C 0.50028 0.2928 0.27188 0.0
C769 C 0.50004 0.30804 0.31641 0.0
C770 C 0.47865 0.23297 0.13383 0.0
C771 C 0.48783 0.20801 0.13364 0.0
C772 C 0.47933 0.24968 0.17744 0.0
C773 C 0.48893 0.24165 0.22201 0.0
C774 C 0.49871 0.21721 0.22144 0.0
C775 C 0.4983 0.20078 0.17802 0.0
H776 H 0.22426 0.47103 0.12031 0.0
H777 H 0.29521 0.45378 0.19833 0.0
H778 H 0.20878 0.48786 0.19681 0.0
H779 H 0.28135 0.47207 0.27426 0.0
H780 H 0.21519 0.45591 0.407 0.0
H781 H 0.23737 0.44922 0.32999 0.0
H782 H 0.22006 0.52452 0.26448 0.0
H783 H 0.19638 0.53017 0.34171 0.0
C784 C 0.23749 0.47219 0.15358 0.0
C785 C 0.26119 0.46152 0.15345 0.0
C786 C 0.22858 0.48171 0.19761 0.0
C787 C 0.24334 0.48088 0.24238 0.0
C788 C 0.26867 0.47222 0.24112 0.0
C789 C 0.27709 0.46224 0.19743 0.0
C790 C 0.21623 0.47125 0.37639 0.0
C791 C 0.20375 0.49348 0.38084 0.0
C792 C 0.22933 0.46763 0.33197 0.0
C793 C 0.2308 0.4864 0.29045 0.0
C794 C 0.21904 0.50927 0.29521 0.0
C795 C 0.20566 0.51273 0.33975 0.0
H796 H 0.76191 0.22786 0.09467 0.0
H797 H 0.81671 0.3215 0.17325 0.0
H798 H 0.73222 0.20024 0.17039 0.0
H799 H 0.78739 0.294 0.24822 0.0
H800 H 0.75923 0.22345 0.38215 0.0
H801 H 0.78629 0.25083 0.30544 0.0
H802 H 0.69059 0.20086 0.23245 0.0
H803 H 0.66334 0.17365 0.30938 0.0
C804 C 0.76755 0.24261 0.12786 0.0
C805 C 0.79183 0.27698 0.12755 0.0
C806 C 0.75043 0.2268 0.17127 0.0
C807 C 0.75754 0.24484 0.2156 0.0
C808 C 0.78152 0.27921 0.21502 0.0
C809 C 0.7982 0.29505 0.17171 0.0
C810 C 0.74384 0.21848 0.34992 0.0
C811 C 0.70898 0.19645 0.35229 0.0
C812 C 0.75939 0.23423 0.30585 0.0
C813 C 0.74066 0.22805 0.26259 0.0
C814 C 0.70583 0.20601 0.26489 0.0
C815 C 0.69017 0.19064 0.30919 0.0
H816 H 0.54467 0.77135 0.13446 0.0
H817 H 0.50532 0.82755 0.20817 0.0
H818 H 0.54193 0.743 0.21131 0.0
H819 H 0.50214 0.79899 0.28432 0.0
H820 H 0.53751 0.76931 0.42351 0.0
H821 H 0.53879 0.79677 0.34651 0.0
H822 H 0.50212 0.70255 0.27019 0.0
H823 H 0.50154 0.67537 0.34672 0.0
C824 C 0.53532 0.7776 0.16686 0.0
C825 C 0.52541 0.80196 0.16485 0.0
C826 C 0.53355 0.76118 0.21098 0.0
C827 C 0.52198 0.76879 0.25435 0.0
C828 C 0.51166 0.7928 0.25204 0.0
C829 C 0.51323 0.809 0.20802 0.0
C830 C 0.52978 0.75447 0.39033 0.0
C831 C 0.51969 0.72015 0.39155 0.0
C832 C 0.53027 0.77016 0.34611 0.0
C833 C 0.52077 0.75197 0.3018 0.0
C834 C 0.51011 0.71752 0.30327 0.0
C835 C 0.50944 0.70184 0.34745 0.0
H836 H 0.82695 0.50589 0.35744 0.0
H837 H 0.77618 0.55162 0.42965 0.0
H838 H 0.79795 0.50255 0.28172 0.0
H839 H 0.74759 0.54893 0.35321 0.0
H840 H 0.67812 0.5102 0.22055 0.0
H841 H 0.70535 0.51024 0.29662 0.0
H842 H 0.79684 0.538 0.21746 0.0
H843 H 0.76928 0.53722 0.14092 0.0
C844 C 0.80954 0.51523 0.35735 0.0
C845 C 0.80415 0.52923 0.39998 0.0
C846 C 0.79308 0.51356 0.31355 0.0
C847 C 0.77052 0.52567 0.31089 0.0
C848 C 0.76458 0.53911 0.35376 0.0
C849 C 0.78119 0.54089 0.39767 0.0
C850 C 0.70397 0.51601 0.21908 0.0
C851 C 0.72148 0.5239 0.17426 0.0
C852 C 0.71973 0.51637 0.26301 0.0
C853 C 0.75347 0.52443 0.2636 0.0
C854 C 0.77077 0.53146 0.21861 0.0
C855 C 0.755 0.53121 0.17458 0.0
H856 H 0.22295 0.76294 0.18417 0.0
H857 H 0.17388 0.66615 0.25483 0.0
H858 H 0.25087 0.7892 0.26092 0.0
H859 H 0.20171 0.69255 0.3317 0.0
H860 H 0.2301 0.76108 0.47187 0.0
H861 H 0.20189 0.73248 0.39593 0.0
H862 H 0.29431 0.79063 0.31622 0.0
H863 H 0.32237 0.81898 0.39139 0.0
C864 C 0.21824 0.74718 0.21593 0.0
C865 C 0.19624 0.71231 0.21296 0.0
C866 C 0.23432 0.76227 0.26003 0.0
C867 C 0.22857 0.74304 0.3027 0.0
C868 C 0.20654 0.70819 0.29978 0.0
C869 C 0.19079 0.69301 0.25548 0.0
C870 C 0.24443 0.76762 0.43821 0.0
C871 C 0.27858 0.79248 0.43806 0.0
C872 C 0.22828 0.75113 0.39464 0.0
C873 C 0.24575 0.75938 0.34973 0.0
C874 C 0.27992 0.78391 0.34986 0.0
C875 C 0.29609 0.80003 0.39327 0.0
H876 H 0.53914 0.69311 0.71198 0.0
H877 H 0.50587 0.75157 0.63155 0.0
H878 H 0.5309 0.71461 0.78819 0.0
H879 H 0.49568 0.77207 0.70889 0.0
H880 H 0.53666 0.84136 0.84383 0.0
H881 H 0.52741 0.81063 0.76842 0.0
H882 H 0.49997 0.72032 0.85044 0.0
H883 H 0.5112 0.75214 0.92687 0.0
C884 C 0.52924 0.71005 0.71053 0.0
C885 C 0.52371 0.721 0.6653 0.0
C886 C 0.52413 0.72221 0.75473 0.0
C887 C 0.51295 0.74559 0.75545 0.0
C888 C 0.5051 0.75475 0.71016 0.0
C889 C 0.51055 0.74271 0.66561 0.0
C890 C 0.52826 0.81481 0.84608 0.0
C891 C 0.52524 0.79941 0.89169 0.0
C892 C 0.52255 0.79694 0.80237 0.0
C893 C 0.51325 0.76282 0.80255 0.0
C894 C 0.50789 0.74674 0.84842 0.0
C895 C 0.51393 0.76485 0.89247 0.0
H896 H 0.84655 0.542 0.72042 0.0
H897 H 0.75619 0.51104 0.63753 0.0
H898 H 0.81566 0.53146 0.79587 0.0
H899 H 0.72428 0.4984 0.714 0.0
H900 H 0.6935 0.5349 0.85151 0.0
H901 H 0.71613 0.52787 0.77565 0.0
H902 H 0.77841 0.49907 0.85599 0.0
H903 H 0.75673 0.50818 0.933 0.0
C904 C 0.81976 0.53211 0.71821 0.0
C905 C 0.80402 0.52795 0.67262 0.0
C906 C 0.80181 0.52564 0.76196 0.0
C907 C 0.76727 0.51438 0.76185 0.0
C908 C 0.75098 0.50785 0.716 0.0
C909 C 0.76917 0.51471 0.67192 0.0
C910 C 0.71177 0.52668 0.85329 0.0
C911 C 0.72367 0.52268 0.89869 0.0
C912 C 0.7246 0.52225 0.80927 0.0
C913 C 0.74961 0.51326 0.8089 0.0
C914 C 0.75981 0.50684 0.85442 0.0
C915 C 0.74711 0.51166 0.8988 0.0
H916 H 0.32078 0.83145 0.75749 0.0
H917 H 0.24338 0.74614 0.68001 0.0
H918 H 0.29674 0.80488 0.83491 0.0
H919 H 0.21998 0.71831 0.75817 0.0
H920 H 0.15758 0.70884 0.89454 0.0
H921 H 0.18806 0.72435 0.81857 0.0
H922 H 0.28144 0.76565 0.89781 0.0
H923 H 0.25022 0.75107 0.97539 0.0
C924 C 0.29907 0.80644 0.75694 0.0
C925 C 0.28371 0.7912 0.71231 0.0
C926 C 0.28534 0.79098 0.80174 0.0
C927 C 0.25584 0.75955 0.80353 0.0
C928 C 0.24216 0.74295 0.75864 0.0
C929 C 0.25584 0.75865 0.71357 0.0
C930 C 0.18465 0.72105 0.89621 0.0
C931 C 0.20138 0.72911 0.94152 0.0
C932 C 0.20228 0.72961 0.85206 0.0
C933 C 0.23747 0.74641 0.85124 0.0
C934 C 0.25436 0.75318 0.89664 0.0
C935 C 0.23652 0.74463 0.94128 0.0
H936 H 0.4804 0.16083 0.8147 0.0
H937 H 0.51226 0.25428 0.89091 0.0
H938 H 0.48917 0.18865 0.73721 0.0
H939 H 0.52354 0.28321 0.81226 0.0
H940 H 0.48082 0.30726 0.67683 0.0
H941 H 0.49255 0.28891 0.75253 0.0
H942 H 0.51736 0.22283 0.67263 0.0
H943 H 0.50317 0.24014 0.5958 0.0
C944 C 0.49019 0.18769 0.81497 0.0
C945 C 0.49486 0.20514 0.85935 0.0
C946 C 0.49566 0.20388 0.76997 0.0
C947 C 0.50654 0.23833 0.76758 0.0
C948 C 0.51412 0.25644 0.81216 0.0
C949 C 0.50808 0.23999 0.85752 0.0
C950 C 0.48915 0.28904 0.67508 0.0
C951 C 0.49033 0.27465 0.63012 0.0
C952 C 0.49638 0.27872 0.71898 0.0
C953 C 0.50554 0.25383 0.71967 0.0
C954 C 0.50951 0.2414 0.67411 0.0
C955 C 0.50183 0.25159 0.62978 0.0
H956 H 0.25609 0.50131 0.91233 0.0
H957 H 0.31352 0.46601 0.83243 0.0
H958 H 0.23923 0.51491 0.83489 0.0
H959 H 0.29532 0.47736 0.756 0.0
H960 H 0.26158 0.49974 0.61672 0.0
H961 H 0.29211 0.50943 0.69394 0.0
H962 H 0.20178 0.48586 0.77397 0.0
H963 H 0.17262 0.47831 0.69805 0.0
C964 C 0.26543 0.49681 0.8784 0.0
C965 C 0.28575 0.48208 0.87886 0.0
C966 C 0.25549 0.50424 0.83374 0.0
C967 C 0.26523 0.49667 0.78843 0.0
C968 C 0.28733 0.48397 0.78945 0.0
C969 C 0.29755 0.47702 0.83379 0.0
C970 C 0.24873 0.49768 0.6509 0.0
C971 C 0.21456 0.48779 0.6511 0.0
C972 C 0.26604 0.50278 0.69539 0.0
C973 C 0.24946 0.49791 0.74095 0.0
C974 C 0.21588 0.49029 0.74039 0.0
C975 C 0.19887 0.48551 0.69636 0.0
H976 H 0.75213 0.24302 0.88521 0.0
H977 H 0.84153 0.31408 0.80813 0.0
H978 H 0.72396 0.22096 0.8068 0.0
H979 H 0.81435 0.29137 0.73055 0.0
H980 H 0.75805 0.25008 0.5897 0.0
H981 H 0.77565 0.28073 0.66774 0.0
H982 H 0.72569 0.18656 0.74571 0.0
H983 H 0.70742 0.15676 0.66918 0.0
C984 C 0.76558 0.25435 0.85168 0.0
C985 C 0.79923 0.28012 0.85324 0.0
C986 C 0.74961 0.24144 0.80647 0.0
C987 C 0.76692 0.25382 0.76166 0.0
C988 C 0.79985 0.28111 0.76365 0.0
C989 C 0.81564 0.29404 0.80858 0.0
C990 C 0.75032 0.23614 0.62363 0.0
C991 C 0.73158 0.20091 0.62287 0.0
C992 C 0.76064 0.25363 0.66855 0.0
C993 C 0.75238 0.23629 0.71372 0.0
C994 C 0.73232 0.20117 0.71241 0.0
C995 C 0.7221 0.1839 0.66797 0.0
loop_
_geom_bond_atom_site_label_1
_geom_bond_atom_site_label_2
_geom_bond_distance
_geom_bond_site_symmetry_2
_ccdc_geom_bond_type
C0 C1 1.351 . S
C0 N3 1.368 . S
C0 H5 0.931 . S
C1 C0 1.351 . S
C1 N2 1.352 1_556 S
C1 H29 0.930 . S
N2 C1 1.352 1_554 S
N2 C4 1.349 . S
N3 C0 1.368 . S
N3 C4 1.321 1_556 S
N3 Co6 2.135 . S
C4 N2 1.349 . S
C4 N3 1.321 1_554 S
C4 H28 0.930 . S
H5 C0 0.931 . S
Co6 N3 2.135 . S
Co6 N9 2.121 1_556 S
Co6 O14 2.055 . S
Co6 O17 2.039 1_556 S
Co6 N20 2.140 1_556 S
C7 O8 1.227 . S
C7 O17 1.265 . S
O8 C7 1.227 . S
N9 Co6 2.121 1_554 S
N9 C11 1.375 . S
N9 C12 1.313 1_554 S
C10 C11 1.338 . S
C10 N13 1.377 1_554 S
C10 H30 0.930 . S
C11 N9 1.375 . S
C11 C10 1.338 . S
C11 H15 0.931 . S
C12 N9 1.313 1_556 S
C12 N13 1.344 . S
C12 H16 0.930 . S
N13 C10 1.377 1_556 S
N13 C12 1.344 . S
O14 Co6 2.055 . S
O14 C18 1.253 . S
H15 C11 0.931 . S
H16 C12 0.930 . S
O17 Co6 2.039 1_554 S
O17 C7 1.265 . S
C18 O14 1.253 . S
C18 O19 1.227 . S
O19 C18 1.227 . S
N20 Co6 2.140 1_554 S
N20 C23 1.346 . S
N20 C24 1.345 1_554 S
C21 C22 1.387 . S
C21 C25 1.391 1_554 S
C22 C21 1.387 . S
C22 C23 1.369 . S
C22 H31 0.929 . S
C23 N20 1.346 . S
C23 C22 1.369 . S
C23 H26 0.928 . S
C24 N20 1.345 1_556 S
C24 C25 1.371 . S
C24 H27 0.931 . S
C25 C21 1.391 1_556 S
C25 C24 1.371 . S
C25 H32 0.930 . S
H26 C23 0.928 . S
H27 C24 0.931 . S
H28 C4 0.930 . S
H29 C1 0.930 . S
H30 C10 0.930 . S
H31 C22 0.929 . S
H32 C25 0.930 . S
C33 C34 1.351 . S
C33 N36 1.368 . S
C33 H38 0.931 . S
C34 C33 1.351 . S
C34 N35 1.353 1_556 S
C34 H62 0.930 . S
N35 C34 1.353 1_554 S
N35 C37 1.348 . S
N36 C33 1.368 . S
N36 C37 1.321 1_556 S
N36 Co39 2.135 . S
C37 N35 1.348 . S
C37 N36 1.321 1_554 S
C37 H61 0.930 . S
H38 C33 0.931 . S
Co39 N36 2.135 . S
Co39 N42 2.121 1_556 S
Co39 O47 2.055 . S
Co39 O50 2.039 1_556 S
Co39 N53 2.140 1_556 S
C40 O41 1.227 . S
C40 O50 1.265 . S
O41 C40 1.227 . S
N42 Co39 2.121 1_554 S
N42 C44 1.375 . S
N42 C45 1.313 1_554 S
C43 C44 1.338 . S
C43 N46 1.377 1_554 S
C43 H63 0.930 . S
C44 N42 1.375 . S
C44 C43 1.338 . S
C44 H48 0.931 . S
C45 N42 1.313 1_556 S
C45 N46 1.344 . S
C45 H49 0.930 . S
N46 C43 1.377 1_556 S
N46 C45 1.344 . S
O47 Co39 2.055 . S
O47 C51 1.253 . S
H48 C44 0.931 . S
H49 C45 0.930 . S
O50 Co39 2.039 1_554 S
O50 C40 1.265 . S
C51 O47 1.253 . S
C51 O52 1.227 . S
O52 C51 1.227 . S
N53 Co39 2.140 1_554 S
N53 C56 1.346 . S
N53 C57 1.345 1_554 S
C54 C55 1.387 . S
C54 C58 1.391 1_554 S
C55 C54 1.387 . S
C55 C56 1.369 . S
C55 H64 0.929 . S
C56 N53 1.346 . S
C56 C55 1.369 . S
C56 H59 0.928 . S
C57 N53 1.345 1_556 S
C57 C58 1.371 . S
C57 H60 0.931 . S
C58 C54 1.391 1_556 S
C58 C57 1.371 . S
C58 H65 0.930 . S
H59 C56 0.928 . S
H60 C57 0.931 . S
H61 C37 0.930 . S
H62 C34 0.930 . S
H63 C43 0.930 . S
H64 C55 0.929 . S
H65 C58 0.930 . S
C66 C67 1.351 . S
C66 N69 1.368 . S
C66 H71 0.931 . S
C67 C66 1.351 . S
C67 N68 1.353 1_556 S
C67 H95 0.930 . S
N68 C67 1.353 1_554 S
N68 C70 1.349 . S
N69 C66 1.368 . S
N69 C70 1.321 1_556 S
N69 Co72 2.135 . S
C70 N68 1.349 . S
C70 N69 1.321 1_554 S
C70 H94 0.930 . S
H71 C66 0.931 . S
Co72 N69 2.135 . S
Co72 N75 2.121 1_556 S
Co72 O80 2.055 . S
Co72 O83 2.039 1_556 S
Co72 N86 2.140 1_556 S
C73 O74 1.227 . S
C73 O83 1.265 . S
O74 C73 1.227 . S
N75 Co72 2.121 1_554 S
N75 C77 1.375 . S
N75 C78 1.313 1_554 S
C76 C77 1.338 . S
C76 N79 1.377 1_554 S
C76 H96 0.930 . S
C77 N75 1.375 . S
C77 C76 1.338 . S
C77 H81 0.931 . S
C78 N75 1.313 1_556 S
C78 N79 1.344 . S
C78 H82 0.930 . S
N79 C76 1.377 1_556 S
N79 C78 1.344 . S
O80 Co72 2.055 . S
O80 C84 1.253 . S
H81 C77 0.931 . S
H82 C78 0.930 . S
O83 Co72 2.039 1_554 S
O83 C73 1.265 . S
C84 O80 1.253 . S
C84 O85 1.227 . S
O85 C84 1.227 . S
N86 Co72 2.140 1_554 S
N86 C89 1.346 . S
N86 C90 1.345 1_554 S
C87 C88 1.387 . S
C87 C91 1.391 1_554 S
C88 C87 1.387 . S
C88 C89 1.369 . S
C88 H97 0.929 . S
C89 N86 1.346 . S
C89 C88 1.369 . S
C89 H92 0.928 . S
C90 N86 1.345 1_556 S
C90 C91 1.371 . S
C90 H93 0.931 . S
C91 C87 1.391 1_556 S
C91 C90 1.371 . S
C91 H98 0.930 . S
H92 C89 0.928 . S
H93 C90 0.931 . S
H94 C70 0.930 . S
H95 C67 0.930 . S
H96 C76 0.930 . S
H97 C88 0.929 . S
H98 C91 0.930 . S
C99 C100 1.351 . S
C99 N102 1.368 . S
C99 H104 0.931 . S
C100 C99 1.351 . S
C100 N101 1.352 1_556 S
C100 H128 0.930 . S
N101 C100 1.352 1_554 S
N101 C103 1.349 . S
N102 C99 1.368 . S
N102 C103 1.321 1_556 S
N102 Co105 2.135 . S
C103 N101 1.349 . S
C103 N102 1.321 1_554 S
C103 H127 0.930 . S
H104 C99 0.931 . S
Co105 N102 2.135 . S
Co105 N108 2.121 1_556 S
Co105 O113 2.055 . S
Co105 O116 2.039 1_556 S
Co105 N119 2.140 1_556 S
C106 O107 1.227 . S
C106 O116 1.265 . S
O107 C106 1.227 . S
N108 Co105 2.121 1_554 S
N108 C110 1.375 . S
N108 C111 1.313 1_554 S
C109 C110 1.338 . S
C109 N112 1.377 1_554 S
C109 H129 0.930 . S
C110 N108 1.375 . S
C110 C109 1.338 . S
C110 H114 0.931 . S
C111 N108 1.313 1_556 S
C111 N112 1.344 . S
C111 H115 0.930 . S
N112 C109 1.377 1_556 S
N112 C111 1.344 . S
O113 Co105 2.055 . S
O113 C117 1.253 . S
H114 C110 0.931 . S
H115 C111 0.930 . S
O116 Co105 2.039 1_554 S
O116 C106 1.265 . S
C117 O113 1.253 . S
C117 O118 1.227 . S
O118 C117 1.227 . S
N119 Co105 2.140 1_554 S
N119 C122 1.346 . S
N119 C123 1.345 1_554 S
C120 C121 1.387 . S
C120 C124 1.391 1_554 S
C121 C120 1.387 . S
C121 C122 1.369 . S
C121 H130 0.929 . S
C122 N119 1.346 . S
C122 C121 1.369 . S
C122 H125 0.928 . S
C123 N119 1.345 1_556 S
C123 C124 1.371 . S
C123 H126 0.931 . S
C124 C120 1.391 1_556 S
C124 C123 1.371 . S
C124 H131 0.930 . S
H125 C122 0.928 . S
H126 C123 0.931 . S
H127 C103 0.930 . S
H128 C100 0.930 . S
H129 C109 0.930 . S
H130 C121 0.929 . S
H131 C124 0.930 . S
C132 C133 1.351 . S
C132 N135 1.368 . S
C132 H137 0.931 . S
C133 C132 1.351 . S
C133 N134 1.353 1_556 S
C133 H161 0.930 . S
N134 C133 1.353 1_554 S
N134 C136 1.348 . S
N135 C132 1.368 . S
N135 C136 1.321 1_556 S
N135 Co138 2.135 . S
C136 N134 1.348 . S
C136 N135 1.321 1_554 S
C136 H160 0.930 . S
H137 C132 0.931 . S
Co138 N135 2.135 . S
Co138 N141 2.121 1_556 S
Co138 O146 2.055 . S
Co138 O149 2.039 1_556 S
Co138 N152 2.140 1_556 S
C139 O140 1.227 . S
C139 O149 1.265 . S
O140 C139 1.227 . S
N141 Co138 2.121 1_554 S
N141 C143 1.375 . S
N141 C144 1.313 1_554 S
C142 C143 1.338 . S
C142 N145 1.377 1_554 S
C142 H162 0.930 . S
C143 N141 1.375 . S
C143 C142 1.338 . S
C143 H147 0.931 . S
C144 N141 1.313 1_556 S
C144 N145 1.344 . S
C144 H148 0.930 . S
N145 C142 1.377 1_556 S
N145 C144 1.344 . S
O146 Co138 2.055 . S
O146 C150 1.253 . S
H147 C143 0.931 . S
H148 C144 0.930 . S
O149 Co138 2.039 1_554 S
O149 C139 1.265 . S
C150 O146 1.253 . S
C150 O151 1.227 . S
O151 C150 1.227 . S
N152 Co138 2.140 1_554 S
N152 C155 1.346 . S
N152 C156 1.345 1_554 S
C153 C154 1.387 . S
C153 C157 1.391 1_554 S
C154 C153 1.387 . S
C154 C155 1.369 . S
C154 H163 0.929 . S
C155 N152 1.346 . S
C155 C154 1.369 . S
C155 H158 0.928 . S
C156 N152 1.345 1_556 S
C156 C157 1.371 . S
C156 H159 0.931 . S
C157 C153 1.391 1_556 S
C157 C156 1.371 . S
C157 H164 0.930 . S
H158 C155 0.928 . S
H159 C156 0.931 . S
H160 C136 0.930 . S
H161 C133 0.930 . S
H162 C142 0.930 . S
H163 C154 0.929 . S
H164 C157 0.930 . S
C165 C166 1.351 . S
C165 N168 1.368 . S
C165 H170 0.931 . S
C166 C165 1.351 . S
C166 N167 1.353 1_556 S
C166 H194 0.930 . S
N167 C166 1.353 1_554 S
N167 C169 1.349 . S
N168 C165 1.368 . S
N168 C169 1.321 1_556 S
N168 Co171 2.135 . S
C169 N167 1.349 . S
C169 N168 1.321 1_554 S
C169 H193 0.930 . S
H170 C165 0.931 . S
Co171 N168 2.135 . S
Co171 N174 2.121 1_556 S
Co171 O179 2.055 . S
Co171 O182 2.039 1_556 S
Co171 N185 2.140 1_556 S
C172 O173 1.227 . S
C172 O182 1.265 . S
O173 C172 1.227 . S
N174 Co171 2.121 1_554 S
N174 C176 1.375 . S
N174 C177 1.313 1_554 S
C175 C176 1.338 . S
C175 N178 1.377 1_554 S
C175 H195 0.930 . S
C176 N174 1.375 . S
C176 C175 1.338 . S
C176 H180 0.931 . S
C177 N174 1.313 1_556 S
C177 N178 1.344 . S
C177 H181 0.930 . S
N178 C175 1.377 1_556 S
N178 C177 1.344 . S
O179 Co171 2.055 . S
O179 C183 1.253 . S
H180 C176 0.931 . S
H181 C177 0.930 . S
O182 Co171 2.039 1_554 S
O182 C172 1.265 . S
C183 O179 1.253 . S
C183 O184 1.227 . S
O184 C183 1.227 . S
N185 Co171 2.140 1_554 S
N185 C188 1.346 . S
N185 C189 1.345 1_554 S
C186 C187 1.387 . S
C186 C190 1.391 1_554 S
C187 C186 1.387 . S
C187 C188 1.369 . S
C187 H196 0.929 . S
C188 N185 1.346 . S
C188 C187 1.369 . S
C188 H191 0.928 . S
C189 N185 1.345 1_556 S
C189 C190 1.371 . S
C189 H192 0.931 . S
C190 C186 1.391 1_556 S
C190 C189 1.371 . S
C190 H197 0.930 . S
H191 C188 0.928 . S
H192 C189 0.931 . S
H193 C169 0.930 . S
H194 C166 0.930 . S
H195 C175 0.930 . S
H196 C187 0.929 . S
H197 C190 0.930 . S
C198 C199 1.351 . S
C198 N201 1.368 . S
C198 H203 0.931 . S
C199 C198 1.351 . S
C199 N200 1.373 . S
C199 H227 0.930 . S
N200 C199 1.373 . S
N200 C202 1.340 . S
N201 C198 1.368 . S
N201 C202 1.321 . S
N201 Co204 2.135 . S
C202 N200 1.340 . S
C202 N201 1.321 . S
C202 H226 0.930 . S
H203 C198 0.931 . S
Co204 N201 2.135 . S
Co204 N207 2.121 . S
Co204 O212 2.055 . S
Co204 O215 2.039 . S
Co204 N218 2.140 . S
C205 O206 1.227 . S
C205 O215 1.265 . S
O206 C205 1.227 . S
N207 Co204 2.121 . S
N207 C209 1.375 . S
N207 C210 1.313 . S
C208 C209 1.338 . S
C208 N211 1.377 . S
C208 H228 0.930 . S
C209 N207 1.375 . S
C209 C208 1.338 . S
C209 H213 0.931 . S
C210 N207 1.313 . S
C210 N211 1.344 . S
C210 H214 0.930 . S
N211 C208 1.377 . S
N211 C210 1.344 . S
O212 Co204 2.055 . S
O212 C216 1.253 . S
H213 C209 0.931 . S
H214 C210 0.930 . S
O215 Co204 2.039 . S
O215 C205 1.265 . S
C216 O212 1.253 . S
C216 O217 1.227 . S
O217 C216 1.227 . S
N218 Co204 2.140 . S
N218 C221 1.346 . S
N218 C222 1.345 . S
C219 C220 1.387 . S
C219 C223 1.391 . S
C220 C219 1.387 . S
C220 C221 1.369 . S
C220 H229 0.929 . S
C221 N218 1.346 . S
C221 C220 1.369 . S
C221 H224 0.928 . S
C222 N218 1.345 . S
C222 C223 1.371 . S
C222 H225 0.931 . S
C223 C219 1.391 . S
C223 C222 1.371 . S
C223 H230 0.930 . S
H224 C221 0.928 . S
H225 C222 0.931 . S
H226 C202 0.930 . S
H227 C199 0.930 . S
H228 C208 0.930 . S
H229 C220 0.929 . S
H230 C223 0.930 . S
C231 C232 1.351 . S
C231 N234 1.368 . S
C231 H236 0.931 . S
C232 C231 1.351 . S
C232 N233 1.373 . S
C232 H260 0.930 . S
N233 C232 1.373 . S
N233 C235 1.340 . S
N234 C231 1.368 . S
N234 C235 1.321 . S
N234 Co237 2.135 . S
C235 N233 1.340 . S
C235 N234 1.321 . S
C235 H259 0.930 . S
H236 C231 0.931 . S
Co237 N234 2.135 . S
Co237 N240 2.121 . S
Co237 O245 2.055 . S
Co237 O248 2.039 . S
Co237 N251 2.140 . S
C238 O239 1.227 . S
C238 O248 1.265 . S
O239 C238 1.227 . S
N240 Co237 2.121 . S
N240 C242 1.375 . S
N240 C243 1.313 . S
C241 C242 1.338 . S
C241 N244 1.377 . S
C241 H261 0.930 . S
C242 N240 1.375 . S
C242 C241 1.338 . S
C242 H246 0.931 . S
C243 N240 1.313 . S
C243 N244 1.344 . S
C243 H247 0.930 . S
N244 C241 1.377 . S
N244 C243 1.344 . S
O245 Co237 2.055 . S
O245 C249 1.253 . S
H246 C242 0.931 . S
H247 C243 0.930 . S
O248 Co237 2.039 . S
O248 C238 1.265 . S
C249 O245 1.253 . S
C249 O250 1.227 . S
O250 C249 1.227 . S
N251 Co237 2.140 . S
N251 C254 1.346 . S
N251 C255 1.345 . S
C252 C253 1.387 . S
C252 C256 1.391 . S
C253 C252 1.387 . S
C253 C254 1.369 . S
C253 H262 0.929 . S
C254 N251 1.346 . S
C254 C253 1.369 . S
C254 H257 0.928 . S
C255 N251 1.345 . S
C255 C256 1.371 . S
C255 H258 0.931 . S
C256 C252 1.391 . S
C256 C255 1.371 . S
C256 H263 0.930 . S
H257 C254 0.928 . S
H258 C255 0.931 . S
H259 C235 0.930 . S
H260 C232 0.930 . S
H261 C241 0.930 . S
H262 C253 0.929 . S
H263 C256 0.930 . S
C264 C265 1.351 . S
C264 N267 1.368 . S
C264 H269 0.931 . S
C265 C264 1.351 . S
C265 N266 1.373 . S
C265 H293 0.930 . S
N266 C265 1.373 . S
N266 C268 1.340 . S
N267 C264 1.368 . S
N267 C268 1.321 . S
N267 Co270 2.135 . S
C268 N266 1.340 . S
C268 N267 1.321 . S
C268 H292 0.930 . S
H269 C264 0.931 . S
Co270 N267 2.135 . S
Co270 N273 2.121 . S
Co270 O278 2.055 . S
Co270 O281 2.039 . S
Co270 N284 2.140 . S
C271 O272 1.227 . S
C271 O281 1.265 . S
O272 C271 1.227 . S
N273 Co270 2.121 . S
N273 C275 1.375 . S
N273 C276 1.313 . S
C274 C275 1.338 . S
C274 N277 1.377 . S
C274 H294 0.930 . S
C275 N273 1.375 . S
C275 C274 1.338 . S
C275 H279 0.931 . S
C276 N273 1.313 . S
C276 N277 1.344 . S
C276 H280 0.930 . S
N277 C274 1.377 . S
N277 C276 1.344 . S
O278 Co270 2.055 . S
O278 C282 1.253 . S
H279 C275 0.931 . S
H280 C276 0.930 . S
O281 Co270 2.039 . S
O281 C271 1.265 . S
C282 O278 1.253 . S
C282 O283 1.227 . S
O283 C282 1.227 . S
N284 Co270 2.140 . S
N284 C287 1.346 . S
N284 C288 1.345 . S
C285 C286 1.387 . S
C285 C289 1.391 . S
C286 C285 1.387 . S
C286 C287 1.369 . S
C286 H295 0.929 . S
C287 N284 1.346 . S
C287 C286 1.369 . S
C287 H290 0.928 . S
C288 N284 1.345 . S
C288 C289 1.371 . S
C288 H291 0.931 . S
C289 C285 1.391 . S
C289 C288 1.371 . S
C289 H296 0.930 . S
H290 C287 0.928 . S
H291 C288 0.931 . S
H292 C268 0.930 . S
H293 C265 0.930 . S
H294 C274 0.930 . S
H295 C286 0.929 . S
H296 C289 0.930 . S
C297 C298 1.351 . S
C297 N300 1.368 . S
C297 H302 0.931 . S
C298 C297 1.351 . S
C298 N299 1.373 . S
C298 H326 0.930 . S
N299 C298 1.373 . S
N299 C301 1.340 . S
N300 C297 1.368 . S
N300 C301 1.321 . S
N300 Co303 2.135 . S
C301 N299 1.340 . S
C301 N300 1.321 . S
C301 H325 0.930 . S
H302 C297 0.931 . S
Co303 N300 2.135 . S
Co303 N306 2.121 . S
Co303 O311 2.055 . S
Co303 O314 2.039 . S
Co303 N317 2.140 . S
C304 O305 1.227 . S
C304 O314 1.265 . S
O305 C304 1.227 . S
N306 Co303 2.121 . S
N306 C308 1.375 . S
N306 C309 1.313 . S
C307 C308 1.338 . S
C307 N310 1.377 . S
C307 H327 0.930 . S
C308 N306 1.375 . S
C308 C307 1.338 . S
C308 H312 0.931 . S
C309 N306 1.313 . S
C309 N310 1.344 . S
C309 H313 0.930 . S
N310 C307 1.377 . S
N310 C309 1.344 . S
O311 Co303 2.055 . S
O311 C315 1.253 . S
H312 C308 0.931 . S
H313 C309 0.930 . S
O314 Co303 2.039 . S
O314 C304 1.265 . S
C315 O311 1.253 . S
C315 O316 1.227 . S
O316 C315 1.227 . S
N317 Co303 2.140 . S
N317 C320 1.346 . S
N317 C321 1.345 . S
C318 C319 1.387 . S
C318 C322 1.391 . S
C319 C318 1.387 . S
C319 C320 1.369 . S
C319 H328 0.929 . S
C320 N317 1.346 . S
C320 C319 1.369 . S
C320 H323 0.928 . S
C321 N317 1.345 . S
C321 C322 1.371 . S
C321 H324 0.931 . S
C322 C318 1.391 . S
C322 C321 1.371 . S
C322 H329 0.930 . S
H323 C320 0.928 . S
H324 C321 0.931 . S
H325 C301 0.930 . S
H326 C298 0.930 . S
H327 C307 0.930 . S
H328 C319 0.929 . S
H329 C322 0.930 . S
C330 C331 1.351 . S
C330 N333 1.368 . S
C330 H335 0.931 . S
C331 C330 1.351 . S
C331 N332 1.373 . S
C331 H359 0.930 . S
N332 C331 1.373 . S
N332 C334 1.340 . S
N333 C330 1.368 . S
N333 C334 1.321 . S
N333 Co336 2.135 . S
C334 N332 1.340 . S
C334 N333 1.321 . S
C334 H358 0.930 . S
H335 C330 0.931 . S
Co336 N333 2.135 . S
Co336 N339 2.121 . S
Co336 O344 2.055 . S
Co336 O347 2.039 . S
Co336 N350 2.140 . S
C337 O338 1.227 . S
C337 O347 1.265 . S
O338 C337 1.227 . S
N339 Co336 2.121 . S
N339 C341 1.375 . S
N339 C342 1.313 . S
C340 C341 1.338 . S
C340 N343 1.377 . S
C340 H360 0.930 . S
C341 N339 1.375 . S
C341 C340 1.338 . S
C341 H345 0.931 . S
C342 N339 1.313 . S
C342 N343 1.344 . S
C342 H346 0.930 . S
N343 C340 1.377 . S
N343 C342 1.344 . S
O344 Co336 2.055 . S
O344 C348 1.253 . S
H345 C341 0.931 . S
H346 C342 0.930 . S
O347 Co336 2.039 . S
O347 C337 1.265 . S
C348 O344 1.253 . S
C348 O349 1.227 . S
O349 C348 1.227 . S
N350 Co336 2.140 . S
N350 C353 1.346 . S
N350 C354 1.345 . S
C351 C352 1.387 . S
C351 C355 1.391 . S
C352 C351 1.387 . S
C352 C353 1.369 . S
C352 H361 0.929 . S
C353 N350 1.346 . S
C353 C352 1.369 . S
C353 H356 0.928 . S
C354 N350 1.345 . S
C354 C355 1.371 . S
C354 H357 0.931 . S
C355 C351 1.391 . S
C355 C354 1.371 . S
C355 H362 0.930 . S
H356 C353 0.928 . S
H357 C354 0.931 . S
H358 C334 0.930 . S
H359 C331 0.930 . S
H360 C340 0.930 . S
H361 C352 0.929 . S
H362 C355 0.930 . S
C363 C364 1.351 . S
C363 N366 1.368 . S
C363 H368 0.931 . S
C364 C363 1.351 . S
C364 N365 1.373 . S
C364 H392 0.930 . S
N365 C364 1.373 . S
N365 C367 1.340 . S
N366 C363 1.368 . S
N366 C367 1.321 . S
N366 Co369 2.135 . S
C367 N365 1.340 . S
C367 N366 1.321 . S
C367 H391 0.930 . S
H368 C363 0.931 . S
Co369 N366 2.135 . S
Co369 N372 2.121 . S
Co369 O377 2.055 . S
Co369 O380 2.039 . S
Co369 N383 2.140 . S
C370 O371 1.227 . S
C370 O380 1.265 . S
O371 C370 1.227 . S
N372 Co369 2.121 . S
N372 C374 1.375 . S
N372 C375 1.313 . S
C373 C374 1.338 . S
C373 N376 1.377 . S
C373 H393 0.930 . S
C374 N372 1.375 . S
C374 C373 1.338 . S
C374 H378 0.931 . S
C375 N372 1.313 . S
C375 N376 1.344 . S
C375 H379 0.930 . S
N376 C373 1.377 . S
N376 C375 1.344 . S
O377 Co369 2.055 . S
O377 C381 1.253 . S
H378 C374 0.931 . S
H379 C375 0.930 . S
O380 Co369 2.039 . S
O380 C370 1.265 . S
C381 O377 1.253 . S
C381 O382 1.227 . S
O382 C381 1.227 . S
N383 Co369 2.140 . S
N383 C386 1.346 . S
N383 C387 1.345 . S
C384 C385 1.387 . S
C384 C388 1.391 . S
C385 C384 1.387 . S
C385 C386 1.369 . S
C385 H394 0.929 . S
C386 N383 1.346 . S
C386 C385 1.369 . S
C386 H389 0.928 . S
C387 N383 1.345 . S
C387 C388 1.371 . S
C387 H390 0.931 . S
C388 C384 1.391 . S
C388 C387 1.371 . S
C388 H395 0.930 . S
H389 C386 0.928 . S
H390 C387 0.931 . S
H391 C367 0.930 . S
H392 C364 0.930 . S
H393 C373 0.930 . S
H394 C385 0.929 . S
H395 C388 0.930 . S
H396 C404 0.950 . S
H397 C409 0.950 . S
H398 C406 0.950 1_565 S
H399 C408 0.950 . S
H400 C410 0.950 . S
H401 C412 0.950 1_545 S
H402 C414 0.950 . S
H403 C415 0.950 . S
C404 H396 0.950 . S
C404 C405 1.386 1_556 S
C404 C406 1.391 . S
C405 C404 1.386 1_554 S
C405 C409 1.393 . S
C406 H398 0.950 1_545 S
C406 C404 1.391 . S
C406 C407 1.400 1_556 S
C407 C406 1.400 1_554 S
C407 C408 1.398 . S
C407 C413 1.491 1_545 S
C408 H399 0.950 . S
C408 C407 1.398 . S
C408 C409 1.391 . S
C409 H397 0.950 . S
C409 C405 1.393 . S
C409 C408 1.391 . S
C410 H400 0.950 . S
C410 C411 1.386 . S
C410 C412 1.391 . S
C411 C410 1.386 . S
C411 C415 1.393 1_554 S
C412 H401 0.950 1_565 S
C412 C410 1.391 . S
C412 C413 1.400 . S
C413 C407 1.491 1_565 S
C413 C412 1.400 . S
C413 C414 1.398 1_554 S
C414 H402 0.950 . S
C414 C413 1.398 1_556 S
C414 C415 1.391 . S
C415 H403 0.950 . S
C415 C411 1.393 1_556 S
C415 C414 1.391 . S
H416 C424 0.950 . S
H417 C429 0.950 . S
H418 C426 0.950 . S
H419 C428 0.950 . S
H420 C430 0.950 . S
H421 C432 0.950 . S
H422 C434 0.950 . S
H423 C435 0.950 . S
C424 H416 0.950 . S
C424 C425 1.386 1_556 S
C424 C426 1.391 . S
C425 C424 1.386 1_554 S
C425 C429 1.393 . S
C426 H418 0.950 . S
C426 C424 1.391 . S
C426 C427 1.400 1_556 S
C427 C426 1.400 1_554 S
C427 C428 1.398 . S
C427 C433 1.491 . S
C428 H419 0.950 . S
C428 C427 1.398 . S
C428 C429 1.391 . S
C429 H417 0.950 . S
C429 C425 1.393 . S
C429 C428 1.391 . S
C430 H420 0.950 . S
C430 C431 1.386 . S
C430 C432 1.391 . S
C431 C430 1.386 . S
C431 C435 1.393 1_554 S
C432 H421 0.950 . S
C432 C430 1.391 . S
C432 C433 1.400 . S
C433 C427 1.491 . S
C433 C432 1.400 . S
C433 C434 1.398 1_554 S
C434 H422 0.950 . S
C434 C433 1.398 1_556 S
C434 C435 1.391 . S
C435 H423 0.950 . S
C435 C431 1.393 1_556 S
C435 C434 1.391 . S
H436 C444 0.950 . S
H437 C449 0.950 . S
H438 C446 0.950 . S
H439 C448 0.950 . S
H440 C450 0.950 . S
H441 C452 0.950 . S
H442 C454 0.950 . S
H443 C455 0.950 . S
C444 H436 0.950 . S
C444 C445 1.386 . S
C444 C446 1.391 . S
C445 C444 1.386 . S
C445 C449 1.393 1_554 S
C446 H438 0.950 . S
C446 C444 1.391 . S
C446 C447 1.400 . S
C447 C446 1.400 . S
C447 C448 1.398 1_554 S
C447 C453 1.491 1_455 S
C448 H439 0.950 . S
C448 C447 1.398 1_556 S
C448 C449 1.391 . S
C449 H437 0.950 . S
C449 C445 1.393 1_556 S
C449 C448 1.391 . S
C450 H440 0.950 . S
C450 C451 1.386 1_556 S
C450 C452 1.391 . S
C451 C450 1.386 1_554 S
C451 C455 1.393 . S
C452 H441 0.950 . S
C452 C450 1.391 . S
C452 C453 1.400 1_556 S
C453 C447 1.491 1_655 S
C453 C452 1.400 1_554 S
C453 C454 1.398 . S
C454 H442 0.950 . S
C454 C453 1.398 . S
C454 C455 1.391 . S
C455 H443 0.950 . S
C455 C451 1.393 . S
C455 C454 1.391 . S
H456 C464 0.950 . S
H457 C469 0.950 . S
H458 C466 0.950 . S
H459 C468 0.950 . S
H460 C470 0.950 . S
H461 C472 0.950 . S
H462 C474 0.950 . S
H463 C475 0.950 . S
C464 H456 0.950 . S
C464 C465 1.386 . S
C464 C466 1.391 . S
C465 C464 1.386 . S
C465 C469 1.393 . S
C466 H458 0.950 . S
C466 C464 1.391 . S
C466 C467 1.400 . S
C467 C466 1.400 . S
C467 C468 1.398 . S
C467 C473 1.491 1_455 S
C468 H459 0.950 . S
C468 C467 1.398 . S
C468 C469 1.391 . S
C469 H457 0.950 . S
C469 C465 1.393 . S
C469 C468 1.391 . S
C470 H460 0.950 . S
C470 C471 1.386 . S
C470 C472 1.391 . S
C471 C470 1.386 . S
C471 C475 1.393 . S
C472 H461 0.950 . S
C472 C470 1.391 . S
C472 C473 1.400 . S
C473 C467 1.491 1_655 S
C473 C472 1.400 . S
C473 C474 1.398 . S
C474 H462 0.950 . S
C474 C473 1.398 . S
C474 C475 1.391 . S
C475 H463 0.950 . S
C475 C471 1.393 . S
C475 C474 1.391 . S
H476 C484 0.950 . S
H477 C489 0.950 . S
H478 C486 0.950 1_565 S
H479 C488 0.950 . S
H480 C490 0.950 . S
H481 C492 0.950 1_545 S
H482 C494 0.950 . S
H483 C495 0.950 . S
C484 H476 0.950 . S
C484 C485 1.386 . S
C484 C486 1.391 . S
C485 C484 1.386 . S
C485 C489 1.393 . S
C486 H478 0.950 1_545 S
C486 C484 1.391 . S
C486 C487 1.400 . S
C487 C486 1.400 . S
C487 C488 1.398 . S
C487 C493 1.491 1_545 S
C488 H479 0.950 . S
C488 C487 1.398 . S
C488 C489 1.391 . S
C489 H477 0.950 . S
C489 C485 1.393 . S
C489 C488 1.391 . S
C490 H480 0.950 . S
C490 C491 1.386 . S
C490 C492 1.391 . S
C491 C490 1.386 . S
C491 C495 1.393 . S
C492 H481 0.950 1_565 S
C492 C490 1.391 . S
C492 C493 1.400 . S
C493 C487 1.491 1_565 S
C493 C492 1.400 . S
C493 C494 1.398 . S
C494 H482 0.950 . S
C494 C493 1.398 . S
C494 C495 1.391 . S
C495 H483 0.950 . S
C495 C491 1.393 . S
C495 C494 1.391 . S
H496 C504 0.950 . S
H497 C509 0.950 . S
H498 C506 0.950 . S
H499 C508 0.950 . S
H500 C510 0.950 . S
H501 C512 0.950 . S
H502 C514 0.950 . S
H503 C515 0.950 . S
C504 H496 0.950 . S
C504 C505 1.386 . S
C504 C506 1.391 . S
C505 C504 1.386 . S
C505 C509 1.393 . S
C506 H498 0.950 . S
C506 C504 1.391 . S
C506 C507 1.400 . S
C507 C506 1.400 . S
C507 C508 1.398 . S
C507 C513 1.491 . S
C508 H499 0.950 . S
C508 C507 1.398 . S
C508 C509 1.391 . S
C509 H497 0.950 . S
C509 C505 1.393 . S
C509 C508 1.391 . S
C510 H500 0.950 . S
C510 C511 1.386 . S
C510 C512 1.391 . S
C511 C510 1.386 . S
C511 C515 1.393 . S
C512 H501 0.950 . S
C512 C510 1.391 . S
C512 C513 1.400 . S
C513 C507 1.491 . S
C513 C512 1.400 . S
C513 C514 1.398 . S
C514 H502 0.950 . S
C514 C513 1.398 . S
C514 C515 1.391 . S
C515 H503 0.950 . S
C515 C511 1.393 . S
C515 C514 1.391 . S
H516 C524 0.959 1_545 S
H517 C529 0.950 . S
H518 C526 0.950 . S
H519 C528 0.950 . S
H520 C530 0.950 . S
H521 C532 0.950 . S
H522 C534 0.950 . S
H523 C535 0.950 . S
C524 H516 0.959 1_565 S
C524 C525 1.348 1_565 S
C524 C526 1.421 . S
C525 C524 1.348 1_545 S
C525 C529 1.393 . S
C526 H518 0.950 . S
C526 C524 1.421 . S
C526 C527 1.400 1_554 S
C527 C526 1.400 1_556 S
C527 C528 1.398 1_556 S
C527 C533 1.491 . S
C528 H519 0.950 . S
C528 C527 1.398 1_554 S
C528 C529 1.391 1_565 S
C529 H517 0.950 . S
C529 C525 1.393 . S
C529 C528 1.391 1_545 S
C530 H520 0.950 . S
C530 C531 1.386 . S
C530 C532 1.391 . S
C531 C530 1.386 . S
C531 C535 1.393 . S
C532 H521 0.950 . S
C532 C530 1.391 . S
C532 C533 1.400 . S
C533 C527 1.491 . S
C533 C532 1.400 . S
C533 C534 1.398 . S
C534 H522 0.950 . S
C534 C533 1.398 . S
C534 C535 1.391 . S
C535 H523 0.950 . S
C535 C531 1.393 . S
C535 C534 1.391 . S
H536 C544 0.950 . S
H537 C549 0.950 . S
H538 C546 0.950 . S
H539 C548 0.950 . S
H540 C550 0.950 . S
H541 C552 0.950 . S
H542 C554 0.950 . S
H543 C555 0.950 . S
C544 H536 0.950 . S
C544 C545 1.386 1_554 S
C544 C546 1.391 . S
C545 C544 1.386 1_556 S
C545 C549 1.393 . S
C546 H538 0.950 . S
C546 C544 1.391 . S
C546 C547 1.400 1_554 S
C547 C546 1.400 1_556 S
C547 C548 1.398 . S
C547 C553 1.491 . S
C548 H539 0.950 . S
C548 C547 1.398 . S
C548 C549 1.391 . S
C549 H537 0.950 . S
C549 C545 1.393 . S
C549 C548 1.391 . S
C550 H540 0.950 . S
C550 C551 1.386 1_556 S
C550 C552 1.391 . S
C551 C550 1.386 1_554 S
C551 C555 1.393 . S
C552 H541 0.950 . S
C552 C550 1.391 . S
C552 C553 1.400 . S
C553 C547 1.491 . S
C553 C552 1.400 . S
C553 C554 1.398 1_556 S
C554 H542 0.950 . S
C554 C553 1.398 1_554 S
C554 C555 1.391 . S
C555 H543 0.950 . S
C555 C551 1.393 . S
C555 C554 1.391 . S
H556 C564 0.950 . S
H557 C569 0.950 . S
H558 C566 0.950 . S
H559 C568 0.950 . S
H560 C570 0.950 . S
H561 C572 0.950 . S
H562 C574 0.950 . S
H563 C575 0.950 . S
C564 H556 0.950 . S
C564 C565 1.386 . S
C564 C566 1.391 1_655 S
C565 C564 1.386 . S
C565 C569 1.393 1_554 S
C566 H558 0.950 . S
C566 C564 1.391 1_455 S
C566 C567 1.400 1_554 S
C567 C566 1.400 1_556 S
C567 C568 1.398 . S
C567 C573 1.491 . S
C568 H559 0.950 . S
C568 C567 1.398 . S
C568 C569 1.391 1_455 S
C569 H557 0.950 . S
C569 C565 1.393 1_556 S
C569 C568 1.391 1_655 S
C570 H560 0.950 . S
C570 C571 1.386 . S
C570 C572 1.391 . S
C571 C570 1.386 . S
C571 C575 1.393 1_556 S
C572 H561 0.950 . S
C572 C570 1.391 . S
C572 C573 1.400 . S
C573 C567 1.491 . S
C573 C572 1.400 . S
C573 C574 1.398 1_556 S
C574 H562 0.950 . S
C574 C573 1.398 1_554 S
C574 C575 1.391 . S
C575 H563 0.950 . S
C575 C571 1.393 1_554 S
C575 C574 1.391 . S
H576 C584 0.950 . S
H577 C589 0.950 . S
H578 C586 0.950 . S
H579 C588 0.950 . S
H580 C590 0.950 . S
H581 C592 0.950 . S
H582 C594 0.950 . S
H583 C595 0.950 . S
C584 H576 0.950 . S
C584 C585 1.386 . S
C584 C586 1.391 . S
C585 C584 1.386 . S
C585 C589 1.393 1_556 S
C586 H578 0.950 . S
C586 C584 1.391 . S
C586 C587 1.400 . S
C587 C586 1.400 . S
C587 C588 1.398 1_556 S
C587 C593 1.491 . S
C588 H579 0.950 . S
C588 C587 1.398 1_554 S
C588 C589 1.391 . S
C589 H577 0.950 . S
C589 C585 1.393 1_554 S
C589 C588 1.391 . S
C590 H580 0.950 . S
C590 C591 1.386 . S
C590 C592 1.391 1_565 S
C591 C590 1.386 . S
C591 C595 1.393 1_554 S
C592 H581 0.950 . S
C592 C590 1.391 1_545 S
C592 C593 1.400 1_554 S
C593 C587 1.491 . S
C593 C592 1.400 1_556 S
C593 C594 1.398 . S
C594 H582 0.950 . S
C594 C593 1.398 . S
C594 C595 1.391 1_545 S
C595 H583 0.950 . S
C595 C591 1.393 1_556 S
C595 C594 1.391 1_565 S
H596 C604 0.950 . S
H597 C609 0.950 . S
H598 C606 0.950 . S
H599 C608 0.950 . S
H600 C610 0.950 . S
H601 C612 0.950 . S
H602 C614 0.950 . S
H603 C615 0.950 . S
C604 H596 0.950 . S
C604 C605 1.386 . S
C604 C606 1.391 . S
C605 C604 1.386 . S
C605 C609 1.393 1_556 S
C606 H598 0.950 . S
C606 C604 1.391 . S
C606 C607 1.400 . S
C607 C606 1.400 . S
C607 C608 1.398 1_556 S
C607 C613 1.491 . S
C608 H599 0.950 . S
C608 C607 1.398 1_554 S
C608 C609 1.391 . S
C609 H597 0.950 . S
C609 C605 1.393 1_554 S
C609 C608 1.391 . S
C610 H600 0.950 . S
C610 C611 1.386 . S
C610 C612 1.391 . S
C611 C610 1.386 . S
C611 C615 1.393 1_554 S
C612 H601 0.950 . S
C612 C610 1.391 . S
C612 C613 1.400 1_554 S
C613 C607 1.491 . S
C613 C612 1.400 1_556 S
C613 C614 1.398 . S
C614 H602 0.950 . S
C614 C613 1.398 . S
C614 C615 1.391 . S
C615 H603 0.950 . S
C615 C611 1.393 1_556 S
C615 C614 1.391 . S
H616 C624 0.950 . S
H617 C629 0.950 . S
H618 C626 0.950 . S
H619 C628 0.950 . S
H620 C630 0.950 . S
H621 C632 0.950 . S
H622 C634 0.950 . S
H623 C635 0.950 . S
C624 H616 0.950 . S
C624 C625 1.386 1_554 S
C624 C626 1.391 . S
C625 C624 1.386 1_556 S
C625 C629 1.393 . S
C626 H618 0.950 . S
C626 C624 1.391 . S
C626 C627 1.400 1_554 S
C627 C626 1.400 1_556 S
C627 C628 1.398 . S
C627 C633 1.491 . S
C628 H619 0.950 . S
C628 C627 1.398 . S
C628 C629 1.391 . S
C629 H617 0.950 . S
C629 C625 1.393 . S
C629 C628 1.391 . S
C630 H620 0.950 . S
C630 C631 1.386 1_556 S
C630 C632 1.391 1_455 S
C631 C630 1.386 1_554 S
C631 C635 1.393 . S
C632 H621 0.950 . S
C632 C630 1.391 1_655 S
C632 C633 1.400 . S
C633 C627 1.491 . S
C633 C632 1.400 . S
C633 C634 1.398 1_556 S
C634 H622 0.950 . S
C634 C633 1.398 1_554 S
C634 C635 1.391 1_655 S
C635 H623 0.950 . S
C635 C631 1.393 . S
C635 C634 1.391 1_455 S
H636 C644 0.950 . S
H637 C649 0.950 . S
H638 C646 0.950 . S
H639 C648 0.950 . S
H640 C650 0.950 . S
H641 C652 0.950 . S
H642 C654 0.950 . S
H643 C655 0.950 . S
C644 H636 0.950 . S
C644 C645 1.386 . S
C644 C646 1.391 . S
C645 C644 1.386 . S
C645 C649 1.393 . S
C646 H638 0.950 . S
C646 C644 1.391 . S
C646 C647 1.400 . S
C647 C646 1.400 . S
C647 C648 1.398 . S
C647 C653 1.491 . S
C648 H639 0.950 . S
C648 C647 1.398 . S
C648 C649 1.391 . S
C649 H637 0.950 . S
C649 C645 1.393 . S
C649 C648 1.391 . S
C650 H640 0.950 . S
C650 C651 1.386 . S
C650 C652 1.391 1_655 S
C651 C650 1.386 . S
C651 C655 1.393 . S
C652 H641 0.950 . S
C652 C650 1.391 1_455 S
C652 C653 1.400 . S
C653 C647 1.491 . S
C653 C652 1.400 . S
C653 C654 1.398 . S
C654 H642 0.950 . S
C654 C653 1.398 . S
C654 C655 1.391 1_455 S
C655 H643 0.950 . S
C655 C651 1.393 . S
C655 C654 1.391 1_655 S
H656 C664 0.950 . S
H657 C669 0.950 . S
H658 C666 0.950 . S
H659 C668 0.950 . S
H660 C670 0.950 . S
H661 C672 0.950 . S
H662 C674 0.950 . S
H663 C675 0.928 1_565 S
C664 H656 0.950 . S
C664 C665 1.386 . S
C664 C666 1.391 . S
C665 C664 1.386 . S
C665 C669 1.393 . S
C666 H658 0.950 . S
C666 C664 1.391 . S
C666 C667 1.400 . S
C667 C666 1.400 . S
C667 C668 1.398 . S
C667 C673 1.491 . S
C668 H659 0.950 . S
C668 C667 1.398 . S
C668 C669 1.391 . S
C669 H657 0.950 . S
C669 C665 1.393 . S
C669 C668 1.391 . S
C670 H660 0.950 . S
C670 C671 1.386 . S
C670 C672 1.391 1_565 S
C671 C670 1.386 . S
C671 C675 1.387 1_565 S
C672 H661 0.950 . S
C672 C670 1.391 1_545 S
C672 C673 1.400 . S
C673 C667 1.491 . S
C673 C672 1.400 . S
C673 C674 1.398 . S
C674 H662 0.950 . S
C674 C673 1.398 . S
C674 C675 1.418 . S
C675 H663 0.928 1_545 S
C675 C671 1.387 1_545 S
C675 C674 1.418 . S
H676 C684 0.950 . S
H677 C689 0.950 . S
H678 C686 0.950 . S
H679 C688 0.950 . S
H680 C690 0.950 . S
H681 C692 0.950 . S
H682 C694 0.950 . S
H683 C695 0.950 . S
C684 H676 0.950 . S
C684 C685 1.386 . S
C684 C686 1.391 . S
C685 C684 1.386 . S
C685 C689 1.393 . S
C686 H678 0.950 . S
C686 C684 1.391 . S
C686 C687 1.400 . S
C687 C686 1.400 . S
C687 C688 1.398 . S
C687 C693 1.491 . S
C688 H679 0.950 . S
C688 C687 1.398 . S
C688 C689 1.391 . S
C689 H677 0.950 . S
C689 C685 1.393 . S
C689 C688 1.391 . S
C690 H680 0.950 . S
C690 C691 1.386 . S
C690 C692 1.391 . S
C691 C690 1.386 . S
C691 C695 1.393 . S
C692 H681 0.950 . S
C692 C690 1.391 . S
C692 C693 1.400 . S
C693 C687 1.491 . S
C693 C692 1.400 . S
C693 C694 1.398 . S
C694 H682 0.950 . S
C694 C693 1.398 . S
C694 C695 1.391 . S
C695 H683 0.950 . S
C695 C691 1.393 . S
C695 C694 1.391 . S
H696 C704 0.950 1_455 S
H697 C709 0.950 . S
H698 C706 0.950 . S
H699 C708 0.950 . S
H700 C710 0.950 . S
H701 C712 0.950 . S
H702 C714 0.950 . S
H703 C715 0.950 . S
C704 H696 0.950 1_655 S
C704 C705 1.386 1_655 S
C704 C706 1.391 . S
C705 C704 1.386 1_455 S
C705 C709 1.393 . S
C706 H698 0.950 . S
C706 C704 1.391 . S
C706 C707 1.400 . S
C707 C706 1.400 . S
C707 C708 1.398 . S
C707 C713 1.491 . S
C708 H699 0.950 . S
C708 C707 1.398 . S
C708 C709 1.391 1_655 S
C709 H697 0.950 . S
C709 C705 1.393 . S
C709 C708 1.391 1_455 S
C710 H700 0.950 . S
C710 C711 1.386 . S
C710 C712 1.391 . S
C711 C710 1.386 . S
C711 C715 1.393 . S
C712 H701 0.950 . S
C712 C710 1.391 . S
C712 C713 1.400 . S
C713 C707 1.491 . S
C713 C712 1.400 . S
C713 C714 1.398 . S
C714 H702 0.950 . S
C714 C713 1.398 . S
C714 C715 1.391 . S
C715 H703 0.950 . S
C715 C711 1.393 . S
C715 C714 1.391 . S
H716 C724 0.950 . S
H717 C729 0.950 1_545 S
H718 C726 0.950 . S
H719 C728 0.950 . S
H720 C730 0.950 . S
H721 C732 0.950 . S
H722 C734 0.950 . S
H723 C735 0.950 . S
C724 H716 0.950 . S
C724 C725 1.386 . S
C724 C726 1.391 1_545 S
C725 C724 1.386 . S
C725 C729 1.393 1_545 S
C726 H718 0.950 . S
C726 C724 1.391 1_565 S
C726 C727 1.400 . S
C727 C726 1.400 . S
C727 C728 1.398 . S
C727 C733 1.491 . S
C728 H719 0.950 . S
C728 C727 1.398 . S
C728 C729 1.391 . S
C729 H717 0.950 1_565 S
C729 C725 1.393 1_565 S
C729 C728 1.391 . S
C730 H720 0.950 . S
C730 C731 1.386 . S
C730 C732 1.391 . S
C731 C730 1.386 . S
C731 C735 1.393 . S
C732 H721 0.950 . S
C732 C730 1.391 . S
C732 C733 1.400 . S
C733 C727 1.491 . S
C733 C732 1.400 . S
C733 C734 1.398 . S
C734 H722 0.950 . S
C734 C733 1.398 . S
C734 C735 1.391 . S
C735 H723 0.950 . S
C735 C731 1.393 . S
C735 C734 1.391 . S
H736 C744 0.950 . S
H737 C749 0.950 . S
H738 C746 0.950 . S
H739 C748 0.950 . S
H740 C750 0.950 . S
H741 C752 0.950 . S
H742 C754 0.950 . S
H743 C755 0.950 . S
C744 H736 0.950 . S
C744 C745 1.386 . S
C744 C746 1.391 . S
C745 C744 1.386 . S
C745 C749 1.393 . S
C746 H738 0.950 . S
C746 C744 1.391 . S
C746 C747 1.400 . S
C747 C746 1.400 . S
C747 C748 1.398 . S
C747 C753 1.491 . S
C748 H739 0.950 . S
C748 C747 1.398 . S
C748 C749 1.391 . S
C749 H737 0.950 . S
C749 C745 1.393 . S
C749 C748 1.391 . S
C750 H740 0.950 . S
C750 C751 1.386 . S
C750 C752 1.391 . S
C751 C750 1.386 . S
C751 C755 1.393 . S
C752 H741 0.950 . S
C752 C750 1.391 . S
C752 C753 1.400 . S
C753 C747 1.491 . S
C753 C752 1.400 . S
C753 C754 1.398 . S
C754 H742 0.950 . S
C754 C753 1.398 . S
C754 C755 1.391 . S
C755 H743 0.950 . S
C755 C751 1.393 . S
C755 C754 1.391 . S
H756 C764 0.950 . S
H757 C769 0.950 . S
H758 C766 0.950 . S
H759 C768 0.950 . S
H760 C770 0.950 . S
H761 C772 0.950 . S
H762 C774 0.950 . S
H763 C775 0.950 . S
C764 H756 0.950 . S
C764 C765 1.386 . S
C764 C766 1.391 . S
C765 C764 1.386 . S
C765 C769 1.393 . S
C766 H758 0.950 . S
C766 C764 1.391 . S
C766 C767 1.400 . S
C767 C766 1.400 . S
C767 C768 1.398 . S
C767 C773 1.491 . S
C768 H759 0.950 . S
C768 C767 1.398 . S
C768 C769 1.391 . S
C769 H757 0.950 . S
C769 C765 1.393 . S
C769 C768 1.391 . S
C770 H760 0.950 . S
C770 C771 1.386 . S
C770 C772 1.391 . S
C771 C770 1.386 . S
C771 C775 1.393 . S
C772 H761 0.950 . S
C772 C770 1.391 . S
C772 C773 1.400 . S
C773 C767 1.491 . S
C773 C772 1.400 . S
C773 C774 1.398 . S
C774 H762 0.950 . S
C774 C773 1.398 . S
C774 C775 1.391 . S
C775 H763 0.950 . S
C775 C771 1.393 . S
C775 C774 1.391 . S
H776 C784 0.950 . S
H777 C789 0.950 . S
H778 C786 0.950 . S
H779 C788 0.950 . S
H780 C790 0.950 . S
H781 C792 0.950 . S
H782 C794 0.950 . S
H783 C795 0.950 . S
C784 H776 0.950 . S
C784 C785 1.386 . S
C784 C786 1.391 . S
C785 C784 1.386 . S
C785 C789 1.393 . S
C786 H778 0.950 . S
C786 C784 1.391 . S
C786 C787 1.400 . S
C787 C786 1.400 . S
C787 C788 1.398 . S
C787 C793 1.491 . S
C788 H779 0.950 . S
C788 C787 1.398 . S
C788 C789 1.391 . S
C789 H777 0.950 . S
C789 C785 1.393 . S
C789 C788 1.391 . S
C790 H780 0.950 . S
C790 C791 1.386 . S
C790 C792 1.391 . S
C791 C790 1.386 . S
C791 C795 1.393 . S
C792 H781 0.950 . S
C792 C790 1.391 . S
C792 C793 1.400 . S
C793 C787 1.491 . S
C793 C792 1.400 . S
C793 C794 1.398 . S
C794 H782 0.950 . S
C794 C793 1.398 . S
C794 C795 1.391 . S
C795 H783 0.950 . S
C795 C791 1.393 . S
C795 C794 1.391 . S
H796 C804 0.950 . S
H797 C809 0.950 . S
H798 C806 0.950 . S
H799 C808 0.950 . S
H800 C810 0.950 . S
H801 C812 0.950 . S
H802 C814 0.950 . S
H803 C815 0.950 . S
C804 H796 0.950 . S
C804 C805 1.386 . S
C804 C806 1.391 . S
C805 C804 1.386 . S
C805 C809 1.393 . S
C806 H798 0.950 . S
C806 C804 1.391 . S
C806 C807 1.400 . S
C807 C806 1.400 . S
C807 C808 1.398 . S
C807 C813 1.491 . S
C808 H799 0.950 . S
C808 C807 1.398 . S
C808 C809 1.391 . S
C809 H797 0.950 . S
C809 C805 1.393 . S
C809 C808 1.391 . S
C810 H800 0.950 . S
C810 C811 1.386 . S
C810 C812 1.391 . S
C811 C810 1.386 . S
C811 C815 1.393 . S
C812 H801 0.950 . S
C812 C810 1.391 . S
C812 C813 1.400 . S
C813 C807 1.491 . S
C813 C812 1.400 . S
C813 C814 1.398 . S
C814 H802 0.950 . S
C814 C813 1.398 . S
C814 C815 1.391 . S
C815 H803 0.950 . S
C815 C811 1.393 . S
C815 C814 1.391 . S
H816 C824 0.950 . S
H817 C829 0.950 . S
H818 C826 0.950 . S
H819 C828 0.950 . S
H820 C830 0.950 . S
H821 C832 0.950 . S
H822 C834 0.950 . S
H823 C835 0.950 . S
C824 H816 0.950 . S
C824 C825 1.386 . S
C824 C826 1.391 . S
C825 C824 1.386 . S
C825 C829 1.393 . S
C826 H818 0.950 . S
C826 C824 1.391 . S
C826 C827 1.400 . S
C827 C826 1.400 . S
C827 C828 1.398 . S
C827 C833 1.491 . S
C828 H819 0.950 . S
C828 C827 1.398 . S
C828 C829 1.391 . S
C829 H817 0.950 . S
C829 C825 1.393 . S
C829 C828 1.391 . S
C830 H820 0.950 . S
C830 C831 1.386 . S
C830 C832 1.391 . S
C831 C830 1.386 . S
C831 C835 1.393 . S
C832 H821 0.950 . S
C832 C830 1.391 . S
C832 C833 1.400 . S
C833 C827 1.491 . S
C833 C832 1.400 . S
C833 C834 1.398 . S
C834 H822 0.950 . S
C834 C833 1.398 . S
C834 C835 1.391 . S
C835 H823 0.950 . S
C835 C831 1.393 . S
C835 C834 1.391 . S
H836 C844 0.950 . S
H837 C849 0.950 . S
H838 C846 0.950 . S
H839 C848 0.950 . S
H840 C850 0.950 . S
H841 C852 0.950 . S
H842 C854 0.950 . S
H843 C855 0.950 . S
C844 H836 0.950 . S
C844 C845 1.386 . S
C844 C846 1.391 . S
C845 C844 1.386 . S
C845 C849 1.393 . S
C846 H838 0.950 . S
C846 C844 1.391 . S
C846 C847 1.400 . S
C847 C846 1.400 . S
C847 C848 1.398 . S
C847 C853 1.491 . S
C848 H839 0.950 . S
C848 C847 1.398 . S
C848 C849 1.391 . S
C849 H837 0.950 . S
C849 C845 1.393 . S
C849 C848 1.391 . S
C850 H840 0.950 . S
C850 C851 1.386 . S
C850 C852 1.391 . S
C851 C850 1.386 . S
C851 C855 1.393 . S
C852 H841 0.950 . S
C852 C850 1.391 . S
C852 C853 1.400 . S
C853 C847 1.491 . S
C853 C852 1.400 . S
C853 C854 1.398 . S
C854 H842 0.950 . S
C854 C853 1.398 . S
C854 C855 1.391 . S
C855 H843 0.950 . S
C855 C851 1.393 . S
C855 C854 1.391 . S
H856 C864 0.950 . S
H857 C869 0.950 . S
H858 C866 0.950 . S
H859 C868 0.950 . S
H860 C870 0.950 . S
H861 C872 0.950 . S
H862 C874 0.950 . S
H863 C875 0.950 . S
C864 H856 0.950 . S
C864 C865 1.386 . S
C864 C866 1.391 . S
C865 C864 1.386 . S
C865 C869 1.393 . S
C866 H858 0.950 . S
C866 C864 1.391 . S
C866 C867 1.400 . S
C867 C866 1.400 . S
C867 C868 1.398 . S
C867 C873 1.491 . S
C868 H859 0.950 . S
C868 C867 1.398 . S
C868 C869 1.391 . S
C869 H857 0.950 . S
C869 C865 1.393 . S
C869 C868 1.391 . S
C870 H860 0.950 . S
C870 C871 1.386 . S
C870 C872 1.391 . S
C871 C870 1.386 . S
C871 C875 1.393 . S
C872 H861 0.950 . S
C872 C870 1.391 . S
C872 C873 1.400 . S
C873 C867 1.491 . S
C873 C872 1.400 . S
C873 C874 1.398 . S
C874 H862 0.950 . S
C874 C873 1.398 . S
C874 C875 1.391 . S
C875 H863 0.950 . S
C875 C871 1.393 . S
C875 C874 1.391 . S
H876 C884 0.950 . S
H877 C889 0.950 . S
H878 C886 0.950 . S
H879 C888 0.950 . S
H880 C890 0.950 . S
H881 C892 0.950 . S
H882 C894 0.950 . S
H883 C895 0.950 . S
C884 H876 0.950 . S
C884 C885 1.386 . S
C884 C886 1.391 . S
C885 C884 1.386 . S
C885 C889 1.393 . S
C886 H878 0.950 . S
C886 C884 1.391 . S
C886 C887 1.400 . S
C887 C886 1.400 . S
C887 C888 1.398 . S
C887 C893 1.491 . S
C888 H879 0.950 . S
C888 C887 1.398 . S
C888 C889 1.391 . S
C889 H877 0.950 . S
C889 C885 1.393 . S
C889 C888 1.391 . S
C890 H880 0.950 . S
C890 C891 1.386 . S
C890 C892 1.391 . S
C891 C890 1.386 . S
C891 C895 1.393 . S
C892 H881 0.950 . S
C892 C890 1.391 . S
C892 C893 1.400 . S
C893 C887 1.491 . S
C893 C892 1.400 . S
C893 C894 1.398 . S
C894 H882 0.950 . S
C894 C893 1.398 . S
C894 C895 1.391 . S
C895 H883 0.950 . S
C895 C891 1.393 . S
C895 C894 1.391 . S
H896 C904 0.950 . S
H897 C909 0.950 . S
H898 C906 0.950 . S
H899 C908 0.950 . S
H900 C910 0.950 . S
H901 C912 0.950 . S
H902 C914 0.950 . S
H903 C915 0.950 . S
C904 H896 0.950 . S
C904 C905 1.386 . S
C904 C906 1.391 . S
C905 C904 1.386 . S
C905 C909 1.393 . S
C906 H898 0.950 . S
C906 C904 1.391 . S
C906 C907 1.400 . S
C907 C906 1.400 . S
C907 C908 1.398 . S
C907 C913 1.491 . S
C908 H899 0.950 . S
C908 C907 1.398 . S
C908 C909 1.391 . S
C909 H897 0.950 . S
C909 C905 1.393 . S
C909 C908 1.391 . S
C910 H900 0.950 . S
C910 C911 1.386 . S
C910 C912 1.391 . S
C911 C910 1.386 . S
C911 C915 1.393 . S
C912 H901 0.950 . S
C912 C910 1.391 . S
C912 C913 1.400 . S
C913 C907 1.491 . S
C913 C912 1.400 . S
C913 C914 1.398 . S
C914 H902 0.950 . S
C914 C913 1.398 . S
C914 C915 1.391 . S
C915 H903 0.950 . S
C915 C911 1.393 . S
C915 C914 1.391 . S
H916 C924 0.950 . S
H917 C929 0.950 . S
H918 C926 0.950 . S
H919 C928 0.950 . S
H920 C930 0.950 . S
H921 C932 0.950 . S
H922 C934 0.950 . S
H923 C935 0.950 . S
C924 H916 0.950 . S
C924 C925 1.386 . S
C924 C926 1.391 . S
C925 C924 1.386 . S
C925 C929 1.393 . S
C926 H918 0.950 . S
C926 C924 1.391 . S
C926 C927 1.400 . S
C927 C926 1.400 . S
C927 C928 1.398 . S
C927 C933 1.491 . S
C928 H919 0.950 . S
C928 C927 1.398 . S
C928 C929 1.391 . S
C929 H917 0.950 . S
C929 C925 1.393 . S
C929 C928 1.391 . S
C930 H920 0.950 . S
C930 C931 1.386 . S
C930 C932 1.391 . S
C931 C930 1.386 . S
C931 C935 1.393 . S
C932 H921 0.950 . S
C932 C930 1.391 . S
C932 C933 1.400 . S
C933 C927 1.491 . S
C933 C932 1.400 . S
C933 C934 1.398 . S
C934 H922 0.950 . S
C934 C933 1.398 . S
C934 C935 1.391 . S
C935 H923 0.950 . S
C935 C931 1.393 . S
C935 C934 1.391 . S
H936 C944 0.950 . S
H937 C949 0.950 . S
H938 C946 0.950 . S
H939 C948 0.950 . S
H940 C950 0.950 . S
H941 C952 0.950 . S
H942 C954 0.950 . S
H943 C955 0.950 . S
C944 H936 0.950 . S
C944 C945 1.386 . S
C944 C946 1.391 . S
C945 C944 1.386 . S
C945 C949 1.393 . S
C946 H938 0.950 . S
C946 C944 1.391 . S
C946 C947 1.400 . S
C947 C946 1.400 . S
C947 C948 1.398 . S
C947 C953 1.491 . S
C948 H939 0.950 . S
C948 C947 1.398 . S
C948 C949 1.391 . S
C949 H937 0.950 . S
C949 C945 1.393 . S
C949 C948 1.391 . S
C950 H940 0.950 . S
C950 C951 1.386 . S
C950 C952 1.391 . S
C951 C950 1.386 . S
C951 C955 1.393 . S
C952 H941 0.950 . S
C952 C950 1.391 . S
C952 C953 1.400 . S
C953 C947 1.491 . S
C953 C952 1.400 . S
C953 C954 1.398 . S
C954 H942 0.950 . S
C954 C953 1.398 . S
C954 C955 1.391 . S
C955 H943 0.950 . S
C955 C951 1.393 . S
C955 C954 1.391 . S
H956 C964 0.950 . S
H957 C969 0.950 . S
H958 C966 0.950 . S
H959 C968 0.950 . S
H960 C970 0.950 . S
H961 C972 0.950 . S
H962 C974 0.950 . S
H963 C975 0.950 . S
C964 H956 0.950 . S
C964 C965 1.386 . S
C964 C966 1.391 . S
C965 C964 1.386 . S
C965 C969 1.393 . S
C966 H958 0.950 . S
C966 C964 1.391 . S
C966 C967 1.400 . S
C967 C966 1.400 . S
C967 C968 1.398 . S
C967 C973 1.491 . S
C968 H959 0.950 . S
C968 C967 1.398 . S
C968 C969 1.391 . S
C969 H957 0.950 . S
C969 C965 1.393 . S
C969 C968 1.391 . S
C970 H960 0.950 . S
C970 C971 1.386 . S
C970 C972 1.391 . S
C971 C970 1.386 . S
C971 C975 1.393 . S
C972 H961 0.950 . S
C972 C970 1.391 . S
C972 C973 1.400 . S
C973 C967 1.491 . S
C973 C972 1.400 . S
C973 C974 1.398 . S
C974 H962 0.950 . S
C974 C973 1.398 . S
C974 C975 1.391 . S
C975 H963 0.950 . S
C975 C971 1.393 . S
C975 C974 1.391 . S
H976 C984 0.950 . S
H977 C989 0.950 . S
H978 C986 0.950 . S
H979 C988 0.950 . S
H980 C990 0.950 . S
H981 C992 0.950 . S
H982 C994 0.950 . S
H983 C995 0.950 . S
C984 H976 0.950 . S
C984 C985 1.386 . S
C984 C986 1.391 . S
C985 C984 1.386 . S
C985 C989 1.393 . S
C986 H978 0.950 . S
C986 C984 1.391 . S
C986 C987 1.400 . S
C987 C986 1.400 . S
C987 C988 1.398 . S
C987 C993 1.491 . S
C988 H979 0.950 . S
C988 C987 1.398 . S
C988 C989 1.391 . S
C989 H977 0.950 . S
C989 C985 1.393 . S
C989 C988 1.391 . S
C990 H980 0.950 . S
C990 C991 1.386 . S
C990 C992 1.391 . S
C991 C990 1.386 . S
C991 C995 1.393 . S
C992 H981 0.950 . S
C992 C990 1.391 . S
C992 C993 1.400 . S
C993 C987 1.491 . S
C993 C992 1.400 . S
C993 C994 1.398 . S
C994 H982 0.950 . S
C994 C993 1.398 . S
C994 C995 1.391 . S
C995 H983 0.950 . S
C995 C991 1.393 . S
C995 C994 1.391 . S
C405 N2 1.926 . S
C411 N101 1.938 . S
C425 N134 1.928 . S
C431 N35 1.937 . S
C445 N167 1.923 . S
C451 N68 1.919 . S
C465 N299 1.918 . S
C471 N200 1.915 . S
C485 N332 1.914 . S
C491 N233 1.932 . S
C505 N266 1.912 . S
C511 N365 1.923 . S
C525 C21 0.403 . S
C531 N178 0.536 . S
C545 N13 0.456 . S
C551 C54 0.393 . S
C565 C87 0.407 . S
C571 N46 0.483 . S
C585 N79 0.525 . S
C591 C120 0.378 . S
C605 N112 0.531 . S
C611 C153 0.381 . S
C625 N145 0.462 . S
C631 C186 0.398 . S
C645 N244 0.459 . S
C651 C219 0.397 . S
C665 N277 0.542 . S
C671 C252 0.396 . S
C685 N310 0.540 . S
C691 C285 0.389 . S
C705 C318 0.405 . S
C711 N343 0.534 . S
C725 C351 0.376 . S
C731 N376 0.466 . S
C745 C384 0.389 . S
C751 N211 0.540 . S
C765 C271 1.672 . S
C771 C7 1.683 . S
C785 C40 1.675 . S
C791 C304 1.681 . S
C805 C73 1.669 . S
C811 C337 1.677 . S
C825 C106 1.670 . S
C831 C370 1.675 . S
C845 C205 1.682 . S
C851 C139 1.667 . S
C865 C172 1.668 . S
C871 C238 1.678 . S
C885 C381 1.510 . S
C891 C117 1.514 . S
C905 C216 1.511 . S
C911 C150 1.513 . S
C925 C249 1.509 . S
C931 C183 1.517 . S
C945 C18 1.506 . S
C951 C282 1.518 . S
C965 C51 1.517 . S
C971 C315 1.507 . S
C985 C84 1.515 . S
C991 C348 1.509 . S
