# Generated by pormake.
# Topology sow, (4)-cn, num edge types: 1
# Building blocks:
#     Node 0, Type 0, BuildingBlock: ICAMEG_clean_sbu_1, # of connection points: 4
#     Node 1, Type 0, BuildingBlock: ICAMEG_clean_sbu_1, # of connection points: 4
#     Node 2, Type 0, BuildingBlock: ICAMEG_clean_sbu_1, # of connection points: 4
#     Node 3, Type 0, BuildingBlock: ICAMEG_clean_sbu_1, # of connection points: 4
#     Node 4, Type 0, BuildingBlock: ICAMEG_clean_sbu_1, # of connection points: 4
#     Node 5, Type 0, BuildingBlock: ICAMEG_clean_sbu_1, # of connection points: 4
#     Node 6, Type 0, BuildingBlock: ICAMEG_clean_sbu_1, # of connection points: 4
#     Node 7, Type 0, BuildingBlock: ICAMEG_clean_sbu_1, # of connection points: 4
#     Edge 8, Type (0, 0), BuildingBlock: EYOCIG_clean_linker_4, # of connection points: 2
#     Edge 9, Type (0, 0), BuildingBlock: EYOCIG_clean_linker_4, # of connection points: 2
#     Edge 10, Type (0, 0), BuildingBlock: EYOCIG_clean_linker_4, # of connection points: 2
#     Edge 11, Type (0, 0), BuildingBlock: EYOCIG_clean_linker_4, # of connection points: 2
#     Edge 12, Type (0, 0), BuildingBlock: EYOCIG_clean_linker_4, # of connection points: 2
#     Edge 13, Type (0, 0), BuildingBlock: EYOCIG_clean_linker_4, # of connection points: 2
#     Edge 14, Type (0, 0), BuildingBlock: EYOCIG_clean_linker_4, # of connection points: 2
#     Edge 15, Type (0, 0), BuildingBlock: EYOCIG_clean_linker_4, # of connection points: 2
#     Edge 16, Type (0, 0), BuildingBlock: EYOCIG_clean_linker_4, # of connection points: 2
#     Edge 17, Type (0, 0), BuildingBlock: EYOCIG_clean_linker_4, # of connection points: 2
#     Edge 18, Type (0, 0), BuildingBlock: EYOCIG_clean_linker_4, # of connection points: 2
#     Edge 19, Type (0, 0), BuildingBlock: EYOCIG_clean_linker_4, # of connection points: 2
#     Edge 20, Type (0, 0), BuildingBlock: EYOCIG_clean_linker_4, # of connection points: 2
#     Edge 21, Type (0, 0), BuildingBlock: EYOCIG_clean_linker_4, # of connection points: 2
#     Edge 22, Type (0, 0), BuildingBlock: EYOCIG_clean_linker_4, # of connection points: 2
#     Edge 23, Type (0, 0), BuildingBlock: EYOCIG_clean_linker_4, # of connection points: 2
# Relax obj value: 0.048
# Max RMSD: 0.152
# Mean RMSD: 0.152
data_MOF--net-sow--node1-ICAMEG_clean_sbu_1--edge1-EYOCIG_clean_linker_4
_symmetry_space_group_name_H-M    P1
_symmetry_Int_Tables_number       1
_symmetry_cell_setting            triclinic
loop_
_symmetry_equiv_pos_as_xyz
'x, y, z'
_cell_length_a     34.452124
_cell_length_b     14.517838
_cell_length_c     21.408957
_cell_angle_alpha  89.984302
_cell_angle_beta   90.017451
_cell_angle_gamma 90.000643
loop_
_atom_site_label
_atom_site_type_symbol
_atom_site_fract_x
_atom_site_fract_y
_atom_site_fract_z
_atom_type_partial_charge
Co0 Co 0.10993 0.31068 0.03101 0.0
Co1 Co 0.13253 0.15839 0.14815 0.0
O2 O 0.149 0.24731 0.08321 0.0
C3 C 0.16946 0.24246 0.94166 0.0
O4 O 0.17032 0.16638 0.97439 0.0
C5 C 0.19276 0.26797 0.21625 0.0
O6 O 0.17668 0.3441 0.19572 0.0
O7 O 0.10215 0.25755 0.18867 0.0
O8 O 0.07269 0.31592 0.10371 0.0
H9 H 0.03523 0.00999 0.2916 0.0
H10 H 0.18849 0.39777 0.03013 0.0
O11 O 0.14654 0.30773 0.9568 0.0
H12 H 0.09883 0.63716 0.10708 0.0
H13 H 0.06191 0.53574 0.86875 0.0
H14 H 0.02452 0.29254 0.01775 0.0
H15 H 0.07497 0.48169 0.08296 0.0
H16 H 0.1116 0.45756 0.9328 0.0
O17 O 0.17947 0.18966 0.20028 0.0
H18 H 0.05689 0.11421 0.20774 0.0
H19 H 0.1731 0.02188 0.23009 0.0
H20 H 0.97398 0.36991 0.9555 0.0
H21 H 0.21255 0.55621 0.04735 0.0
H22 H 0.9925 0.49258 0.88045 0.0
H23 H 0.16811 0.67567 0.08856 0.0
O24 O 0.08799 0.18991 0.0055 0.0
H25 H 0.24708 0.02553 0.03438 0.0
H26 H 0.11513 0.96427 0.11259 0.0
H27 H 0.15009 0.84282 0.05532 0.0
H28 H 0.21665 0.87314 0.01565 0.0
H29 H 0.21192 0.14358 0.09531 0.0
H30 H 0.15267 0.91707 0.31466 0.0
H31 H 0.08329 0.91054 0.34584 0.0
O32 O 0.08512 0.12132 0.09901 0.0
C33 C 0.07526 0.30399 0.16268 0.0
C34 C 0.06554 0.01207 0.27837 0.0
C35 C 0.13146 0.96003 0.29134 0.0
N36 N 0.11623 0.07396 0.21367 0.0
C37 C 0.07801 0.07087 0.23076 0.0
C38 C 0.14287 0.0197 0.2435 0.0
C39 C 0.09252 0.95634 0.3088 0.0
C40 C 0.16872 0.45 0.04685 0.0
N41 N 0.13039 0.42997 0.05568 0.0
C42 C 0.18265 0.53913 0.05735 0.0
C43 C 0.15757 0.60664 0.07985 0.0
C44 C 0.11875 0.58505 0.09034 0.0
C45 C 0.10553 0.4962 0.0774 0.0
C46 C 0.05349 0.48242 0.9014 0.0
C47 C 0.03292 0.34598 0.98534 0.0
C48 C 0.08152 0.43761 0.93758 0.0
N49 N 0.07103 0.37077 0.97927 0.0
C50 C 0.00412 0.38941 0.95008 0.0
C51 C 0.01454 0.45821 0.90794 0.0
C52 C 0.07432 0.12943 0.04237 0.0
C53 C 0.21846 0.01089 0.05261 0.0
C54 C 0.14427 0.9777 0.09628 0.0
C55 C 0.16392 0.90857 0.06381 0.0
C56 C 0.20123 0.9256 0.04162 0.0
N57 N 0.16149 0.06108 0.10717 0.0
C58 C 0.1984 0.0775 0.08695 0.0
Co59 Co 0.38728 0.2071 0.53059 0.0
Co60 Co 0.36474 0.35945 0.64725 0.0
O61 O 0.34831 0.27066 0.58249 0.0
C62 C 0.33021 0.28022 0.43951 0.0
O63 O 0.33342 0.35928 0.46852 0.0
C64 C 0.30389 0.25049 0.71447 0.0
O65 O 0.31942 0.17403 0.69346 0.0
O66 O 0.39507 0.26023 0.68794 0.0
O67 O 0.42462 0.20171 0.60313 0.0
H68 H 0.46209 0.507 0.79093 0.0
H69 H 0.30861 0.11979 0.52991 0.0
O70 O 0.35027 0.21098 0.45705 0.0
H71 H 0.39843 0.88123 0.60783 0.0
H72 H 0.43447 0.98116 0.36851 0.0
H73 H 0.47263 0.22454 0.51681 0.0
H74 H 0.42222 0.03637 0.58279 0.0
H75 H 0.38505 0.06025 0.43258 0.0
O76 O 0.31777 0.32848 0.69919 0.0
H77 H 0.44036 0.4034 0.70682 0.0
H78 H 0.32419 0.49587 0.72933 0.0
H79 H 0.52289 0.14654 0.45441 0.0
H80 H 0.28461 0.96142 0.54803 0.0
H81 H 0.50398 0.02371 0.37977 0.0
H82 H 0.32913 0.84249 0.58978 0.0
O83 O 0.40952 0.32747 0.50497 0.0
H84 H 0.2505 0.49029 0.53163 0.0
H85 H 0.38154 0.55446 0.61295 0.0
H86 H 0.3462 0.67595 0.55618 0.0
H87 H 0.28008 0.64423 0.51506 0.0
H88 H 0.28602 0.37218 0.59197 0.0
H89 H 0.34468 0.60001 0.81423 0.0
H90 H 0.41409 0.60618 0.84544 0.0
O91 O 0.41212 0.39661 0.59826 0.0
C92 C 0.42198 0.21368 0.66208 0.0
C93 C 0.43177 0.50511 0.77768 0.0
C94 C 0.36587 0.55719 0.79077 0.0
N95 N 0.38104 0.44381 0.71278 0.0
C96 C 0.41927 0.44668 0.7299 0.0
C97 C 0.35443 0.4979 0.74275 0.0
C98 C 0.40483 0.56067 0.80826 0.0
C99 C 0.32841 0.06775 0.54685 0.0
N100 N 0.36674 0.08792 0.55551 0.0
C101 C 0.31452 0.97868 0.55786 0.0
C102 C 0.33965 0.91143 0.58066 0.0
C103 C 0.37847 0.93315 0.59089 0.0
C104 C 0.39165 0.02185 0.57744 0.0
C105 C 0.44305 0.03454 0.40098 0.0
C106 C 0.46407 0.1711 0.48452 0.0
C107 C 0.41519 0.07981 0.43718 0.0
N108 N 0.42591 0.14663 0.4787 0.0
C109 C 0.4927 0.12729 0.44919 0.0
C110 C 0.48206 0.0584 0.40728 0.0
C111 C 0.42303 0.38823 0.54172 0.0
C112 C 0.27894 0.50549 0.5504 0.0
C113 C 0.35257 0.54046 0.59602 0.0
C114 C 0.33273 0.60955 0.56378 0.0
C115 C 0.29568 0.59169 0.54071 0.0
N116 N 0.33574 0.45641 0.60599 0.0
C117 C 0.2992 0.43885 0.58443 0.0
Co118 Co 0.60982 0.20712 0.97339 0.0
Co119 Co 0.63231 0.35948 0.85608 0.0
O120 O 0.64887 0.27052 0.92106 0.0
C121 C 0.67069 0.27273 0.06186 0.0
O122 O 0.67387 0.3463 0.02705 0.0
C123 C 0.69264 0.25016 0.78801 0.0
O124 O 0.6767 0.17393 0.80863 0.0
O125 O 0.60199 0.26019 0.8156 0.0
O126 O 0.57263 0.20174 0.9006 0.0
H127 H 0.5349 0.50766 0.71259 0.0
H128 H 0.6884 0.12017 0.97442 0.0
O129 O 0.64624 0.21001 0.04798 0.0
H130 H 0.59881 0.88051 0.89759 0.0
H131 H 0.5618 0.9823 0.13574 0.0
H132 H 0.52439 0.22515 0.98645 0.0
H133 H 0.5749 0.03598 0.92157 0.0
H134 H 0.61147 0.06034 0.07167 0.0
O135 O 0.67924 0.32839 0.8039 0.0
H136 H 0.55663 0.4034 0.79641 0.0
H137 H 0.67278 0.4962 0.77424 0.0
H138 H 0.47384 0.14781 0.04871 0.0
H139 H 0.71252 0.96175 0.95733 0.0
H140 H 0.49239 0.02535 0.12391 0.0
H141 H 0.6681 0.84214 0.91618 0.0
O142 O 0.58791 0.32796 0.9988 0.0
H143 H 0.74693 0.49316 0.96934 0.0
H144 H 0.61466 0.55332 0.89211 0.0
H145 H 0.64949 0.67477 0.94962 0.0
H146 H 0.71618 0.64493 0.98891 0.0
H147 H 0.71195 0.37529 0.90796 0.0
H148 H 0.65229 0.60103 0.68971 0.0
H149 H 0.58291 0.60736 0.65846 0.0
O150 O 0.58489 0.39634 0.90523 0.0
C151 C 0.57518 0.2136 0.84163 0.0
C152 C 0.56522 0.50567 0.72585 0.0
C153 C 0.63111 0.55797 0.71299 0.0
N154 N 0.61594 0.44387 0.79057 0.0
C155 C 0.57772 0.44684 0.77344 0.0
C156 C 0.64255 0.49828 0.7608 0.0
C157 C 0.59216 0.56154 0.69548 0.0
C158 C 0.66865 0.06788 0.95773 0.0
N159 N 0.63031 0.08783 0.94886 0.0
C160 C 0.68261 0.97876 0.9473 0.0
C161 C 0.65754 0.91117 0.92483 0.0
C162 C 0.61871 0.93267 0.9143 0.0
C163 C 0.60547 0.02152 0.92717 0.0
C164 C 0.55337 0.03553 0.10303 0.0
C165 C 0.53279 0.17178 0.01893 0.0
C166 C 0.58139 0.08029 0.06684 0.0
N167 N 0.57091 0.14705 0.02507 0.0
C168 C 0.50399 0.12837 0.05419 0.0
C169 C 0.51442 0.05968 0.09642 0.0
C170 C 0.57416 0.38831 0.9619 0.0
C171 C 0.71826 0.50762 0.95125 0.0
C172 C 0.64387 0.54011 0.90822 0.0
C173 C 0.66344 0.60926 0.94081 0.0
C174 C 0.70084 0.59252 0.96276 0.0
N175 N 0.66123 0.457 0.89698 0.0
C176 C 0.6983 0.44109 0.91668 0.0
Co177 Co 0.88733 0.31079 0.47388 0.0
Co178 Co 0.86486 0.15839 0.35722 0.0
O179 O 0.84839 0.24717 0.42195 0.0
C180 C 0.83001 0.23815 0.56473 0.0
O181 O 0.83295 0.1592 0.53553 0.0
C182 C 0.80389 0.2673 0.2904 0.0
O183 O 0.81934 0.34375 0.31162 0.0
O184 O 0.89516 0.25764 0.31656 0.0
O185 O 0.92472 0.31608 0.4014 0.0
H186 H 0.96222 0.0108 0.21366 0.0
H187 H 0.80867 0.39807 0.47429 0.0
O188 O 0.8503 0.3071 0.54738 0.0
H189 H 0.89852 0.63662 0.39657 0.0
H190 H 0.93452 0.53678 0.63597 0.0
H191 H 0.97267 0.29325 0.48782 0.0
H192 H 0.92231 0.4815 0.4217 0.0
H193 H 0.88511 0.45776 0.57182 0.0
O194 O 0.81792 0.18932 0.30531 0.0
H195 H 0.94049 0.11441 0.29775 0.0
H196 H 0.82431 0.02204 0.27505 0.0
H197 H 0.02293 0.37121 0.5503 0.0
H198 H 0.78467 0.55642 0.45607 0.0
H199 H 0.00403 0.49411 0.62487 0.0
H200 H 0.8292 0.67535 0.41442 0.0
O201 O 0.90952 0.1904 0.49958 0.0
H202 H 0.75058 0.02711 0.47243 0.0
H203 H 0.88174 0.96347 0.39159 0.0
H204 H 0.84642 0.84184 0.44823 0.0
H205 H 0.78024 0.87329 0.4891 0.0
H206 H 0.78608 0.14537 0.41223 0.0
H207 H 0.84481 0.9179 0.19018 0.0
H208 H 0.91421 0.91167 0.15907 0.0
O209 O 0.91223 0.12134 0.40628 0.0
C210 C 0.92209 0.30409 0.34244 0.0
C211 C 0.9319 0.01271 0.22687 0.0
C212 C 0.866 0.9607 0.21367 0.0
N213 N 0.88117 0.07405 0.2917 0.0
C214 C 0.9194 0.07115 0.27463 0.0
C215 C 0.85455 0.01999 0.26168 0.0
C216 C 0.90495 0.95718 0.19624 0.0
C217 C 0.82848 0.45011 0.4574 0.0
N218 N 0.86682 0.42996 0.44885 0.0
C219 C 0.81458 0.53916 0.44632 0.0
C220 C 0.83972 0.60641 0.42358 0.0
C221 C 0.87856 0.58471 0.41346 0.0
C222 C 0.89173 0.49601 0.42697 0.0
C223 C 0.94311 0.48337 0.60353 0.0
C224 C 0.96411 0.34674 0.52007 0.0
C225 C 0.91524 0.43814 0.56729 0.0
N226 N 0.92595 0.37127 0.52581 0.0
C227 C 0.99275 0.39052 0.55544 0.0
C228 C 0.98211 0.45944 0.59732 0.0
C229 C 0.92307 0.12968 0.46285 0.0
C230 C 0.77904 0.01203 0.45375 0.0
C231 C 0.85275 0.97737 0.40843 0.0
C232 C 0.83292 0.90819 0.44058 0.0
C233 C 0.79583 0.9259 0.46351 0.0
N234 N 0.83588 0.06136 0.39842 0.0
C235 C 0.79929 0.07875 0.41981 0.0
Co236 Co 0.87042 0.85685 0.83216 0.0
Co237 Co 0.87997 0.70405 0.95299 0.0
O238 O 0.8471 0.77637 0.89552 0.0
C239 C 0.81436 0.74949 0.75587 0.0
O240 O 0.83002 0.67383 0.77778 0.0
C241 C 0.82055 0.78723 0.03441 0.0
O242 O 0.8281 0.86605 0.00707 0.0
O243 O 0.90489 0.8199 0.98232 0.0
O244 O 0.91507 0.88793 0.88931 0.0
H245 H 0.00683 0.61315 0.05158 0.0
H246 H 0.78702 0.89538 0.85882 0.0
O247 O 0.82651 0.82826 0.77316 0.0
H248 H 0.85656 0.18416 0.90598 0.0
H249 H 0.868 0.08994 0.65788 0.0
H250 H 0.9505 0.88343 0.7838 0.0
H251 H 0.89242 0.04593 0.87318 0.0
H252 H 0.83951 0.99456 0.74137 0.0
O253 O 0.83852 0.71425 0.01863 0.0
H254 H 0.96416 0.70389 0.98275 0.0
H255 H 0.86556 0.55759 0.04872 0.0
H256 H 0.98006 0.97682 0.69993 0.0
H257 H 0.74993 0.03579 0.88474 0.0
H258 H 0.93878 0.08132 0.63666 0.0
H259 H 0.78458 0.18006 0.91095 0.0
O260 O 0.89988 0.75058 0.7993 0.0
H261 H 0.7738 0.50944 0.86007 0.0
H262 H 0.91165 0.52008 0.9195 0.0
H263 H 0.88547 0.38039 0.87033 0.0
H264 H 0.81602 0.37471 0.83955 0.0
H265 H 0.80012 0.64497 0.91597 0.0
H266 H 0.90724 0.4662 0.11927 0.0
H267 H 0.97847 0.49291 0.12028 0.0
O268 O 0.9215 0.68993 0.88904 0.0
C269 C 0.92226 0.87807 0.94747 0.0
C270 C 0.97584 0.60074 0.05149 0.0
C271 C 0.91993 0.51838 0.08949 0.0
N272 N 0.91236 0.63566 0.01128 0.0
C273 C 0.95148 0.65183 0.01249 0.0
C274 C 0.89644 0.57072 0.04976 0.0
C275 C 0.9599 0.53334 0.09004 0.0
C276 C 0.80241 0.95845 0.86906 0.0
N277 N 0.84191 0.96199 0.86457 0.0
C278 C 0.78122 0.03722 0.88474 0.0
C279 C 0.80072 0.11868 0.8987 0.0
C280 C 0.84107 0.121 0.89592 0.0
C281 C 0.86127 0.04186 0.87815 0.0
C282 C 0.88634 0.0449 0.68532 0.0
C283 C 0.93234 0.9289 0.75651 0.0
C284 C 0.87038 0.99071 0.73273 0.0
N285 N 0.89336 0.93397 0.76785 0.0
C286 C 0.94925 0.98158 0.70912 0.0
C287 C 0.92605 0.04007 0.67347 0.0
C288 C 0.92217 0.6976 0.83001 0.0
C289 C 0.80368 0.51007 0.87543 0.0
C290 C 0.881 0.51709 0.9089 0.0
C291 C 0.86646 0.43792 0.8803 0.0
C292 C 0.82754 0.43479 0.86308 0.0
N293 N 0.85726 0.59035 0.92186 0.0
C294 C 0.81884 0.58686 0.90652 0.0
Co295 Co 0.62686 0.66087 0.3319 0.0
Co296 Co 0.61739 0.81311 0.45297 0.0
O297 O 0.65026 0.741 0.39541 0.0
C298 C 0.68308 0.76814 0.25591 0.0
O299 O 0.66753 0.84382 0.27796 0.0
C300 C 0.67689 0.7297 0.53423 0.0
O301 O 0.66944 0.651 0.50667 0.0
O302 O 0.5925 0.69717 0.4821 0.0
O303 O 0.58217 0.62986 0.38892 0.0
H304 H 0.49052 0.9035 0.5516 0.0
H305 H 0.7102 0.62172 0.35876 0.0
O306 O 0.67081 0.68939 0.27302 0.0
H307 H 0.6403 0.33314 0.4052 0.0
H308 H 0.62899 0.42835 0.15728 0.0
H309 H 0.54676 0.63502 0.28341 0.0
H310 H 0.60462 0.47174 0.37251 0.0
H311 H 0.65761 0.52328 0.24093 0.0
O312 O 0.65883 0.80266 0.51864 0.0
H313 H 0.53319 0.8131 0.48265 0.0
H314 H 0.63178 0.95922 0.54892 0.0
H315 H 0.51707 0.54208 0.19943 0.0
H316 H 0.74711 0.48093 0.3846 0.0
H317 H 0.55822 0.43751 0.13608 0.0
H318 H 0.71228 0.33679 0.41044 0.0
O319 O 0.59754 0.76748 0.29916 0.0
H320 H 0.72378 1.00854 0.36151 0.0
H321 H 0.58569 0.99705 0.4194 0.0
H322 H 0.61191 0.13691 0.37048 0.0
H323 H 0.68147 0.14302 0.34045 0.0
H324 H 0.69729 0.87252 0.41665 0.0
H325 H 0.59009 0.05025 0.61959 0.0
H326 H 0.51887 0.02345 0.62052 0.0
O327 O 0.57586 0.82749 0.389 0.0
C328 C 0.57506 0.63934 0.44712 0.0
C329 C 0.5215 0.91594 0.55154 0.0
C330 C 0.57741 0.9982 0.58971 0.0
N331 N 0.58499 0.88126 0.51132 0.0
C332 C 0.54587 0.86505 0.51247 0.0
C333 C 0.60091 0.94605 0.54991 0.0
C334 C 0.53744 0.98318 0.59022 0.0
C335 C 0.69473 0.55869 0.36885 0.0
N336 N 0.65523 0.55542 0.36422 0.0
C337 C 0.71582 0.47972 0.38448 0.0
C338 C 0.69622 0.39831 0.39823 0.0
C339 C 0.65587 0.39625 0.3953 0.0
C340 C 0.63577 0.4756 0.3776 0.0
C341 C 0.61071 0.47343 0.18479 0.0
C342 C 0.56486 0.58952 0.25608 0.0
C343 C 0.62675 0.52737 0.23227 0.0
N344 N 0.60383 0.58415 0.26745 0.0
C345 C 0.54788 0.5371 0.20863 0.0
C346 C 0.571 0.47856 0.17293 0.0
C347 C 0.57526 0.82034 0.32994 0.0
C348 C 0.69382 1.00764 0.37638 0.0
C349 C 0.61636 1.00015 0.409 0.0
C350 C 0.63093 0.07944 0.38058 0.0
C351 C 0.66991 0.0828 0.36378 0.0
N352 N 0.64011 0.92693 0.42206 0.0
C353 C 0.67858 0.93061 0.4071 0.0
Co354 Co 0.37049 0.66125 0.17261 0.0
Co355 Co 0.37999 0.81381 0.05166 0.0
O356 O 0.34714 0.74164 0.10921 0.0
C357 C 0.31445 0.76869 0.24882 0.0
O358 O 0.3301 0.84433 0.22686 0.0
C359 C 0.32048 0.73055 0.97042 0.0
O360 O 0.32799 0.65181 0.99791 0.0
O361 O 0.40486 0.69788 0.02241 0.0
O362 O 0.41512 0.63007 0.11546 0.0
H363 H 0.50684 0.90433 0.95302 0.0
H364 H 0.28709 0.62273 0.14594 0.0
O365 O 0.32661 0.68991 0.2316 0.0
H366 H 0.35658 0.33383 0.09904 0.0
H367 H 0.36819 0.42831 0.34699 0.0
H368 H 0.45059 0.63482 0.22099 0.0
H369 H 0.39247 0.47208 0.13176 0.0
H370 H 0.33964 0.52364 0.2635 0.0
O371 O 0.33852 0.80353 0.98606 0.0
H372 H 0.46416 0.81377 0.0219 0.0
H373 H 0.36558 0.96013 0.9558 0.0
H374 H 0.48022 0.54147 0.30485 0.0
H375 H 0.24997 0.48232 0.12006 0.0
H376 H 0.43897 0.43696 0.36816 0.0
H377 H 0.2846 0.33798 0.09399 0.0
O378 O 0.39996 0.76759 0.20538 0.0
H379 H 0.27389 0.00889 0.14427 0.0
H380 H 0.41174 0.99777 0.08502 0.0
H381 H 0.38565 0.13757 0.13411 0.0
H382 H 0.3162 0.14349 0.16482 0.0
H383 H 0.30016 0.87314 0.08859 0.0
H384 H 0.40728 0.05134 0.8852 0.0
H385 H 0.4785 0.0245 0.88423 0.0
O386 O 0.42155 0.82802 0.11559 0.0
C387 C 0.42225 0.63978 0.05728 0.0
C388 C 0.47586 0.91679 0.95309 0.0
C389 C 0.41996 0.99919 0.91502 0.0
N390 N 0.41238 0.88204 0.9933 0.0
C391 C 0.45148 0.8658 0.99212 0.0
C392 C 0.39646 0.94694 0.95478 0.0
C393 C 0.45993 0.98415 0.91449 0.0
C394 C 0.30246 0.55963 0.13575 0.0
N395 N 0.34197 0.55607 0.14027 0.0
C396 C 0.28126 0.48086 0.12011 0.0
C397 C 0.30075 0.39936 0.10622 0.0
C398 C 0.3411 0.39701 0.10904 0.0
C399 C 0.36131 0.47616 0.12676 0.0
C400 C 0.3865 0.47335 0.31953 0.0
C401 C 0.43245 0.58935 0.24829 0.0
C402 C 0.37051 0.52751 0.27212 0.0
N403 N 0.39347 0.58424 0.23696 0.0
C404 C 0.4494 0.5367 0.29568 0.0
C405 C 0.42622 0.4782 0.33135 0.0
C406 C 0.4222 0.82058 0.17463 0.0
C407 C 0.30378 1.00812 0.129 0.0
C408 C 0.3811 1.00084 0.09561 0.0
C409 C 0.3666 0.08009 0.12416 0.0
C410 C 0.32769 0.08334 0.14134 0.0
N411 N 0.35732 0.92761 0.0827 0.0
C412 C 0.3189 0.93123 0.09801 0.0
Co413 Co 0.12701 0.85755 0.67248 0.0
Co414 Co 0.11754 0.70499 0.55154 0.0
O415 O 0.15038 0.77724 0.60909 0.0
C416 C 0.1831 0.75019 0.74868 0.0
O417 O 0.16749 0.67455 0.72666 0.0
C418 C 0.17695 0.78849 0.47024 0.0
O419 O 0.16941 0.86723 0.49768 0.0
O420 O 0.0926 0.8208 0.5223 0.0
O421 O 0.08237 0.88856 0.61536 0.0
H422 H 0.99073 0.61421 0.45273 0.0
H423 H 0.21039 0.89639 0.64584 0.0
O424 O 0.17091 0.82897 0.73147 0.0
H425 H 0.14068 0.18503 0.59881 0.0
H426 H 0.12928 0.09035 0.8469 0.0
H427 H 0.04691 0.88385 0.72081 0.0
H428 H 0.1049 0.04663 0.63155 0.0
H429 H 0.15783 0.99519 0.76336 0.0
O430 O 0.15897 0.71547 0.48592 0.0
H431 H 0.03335 0.70475 0.52174 0.0
H432 H 0.13201 0.55874 0.45576 0.0
H433 H 0.01728 0.97703 0.80469 0.0
H434 H 0.2474 0.03702 0.62001 0.0
H435 H 0.0585 0.08152 0.86803 0.0
H436 H 0.21267 0.18118 0.59385 0.0
O437 O 0.09758 0.75114 0.70527 0.0
H438 H 0.22407 0.51009 0.64316 0.0
H439 H 0.08594 0.52103 0.5853 0.0
H440 H 0.11226 0.38136 0.63437 0.0
H441 H 0.18184 0.37553 0.66439 0.0
H442 H 0.19748 0.6459 0.5879 0.0
H443 H 0.09038 0.46755 0.38504 0.0
H444 H 0.01915 0.49422 0.38394 0.0
O445 O 0.07601 0.69062 0.61549 0.0
C446 C 0.0752 0.87881 0.5572 0.0
C447 C 0.02172 0.60181 0.45287 0.0
C448 C 0.07767 0.51961 0.41487 0.0
N449 N 0.08518 0.63665 0.49321 0.0
C450 C 0.04606 0.65279 0.49197 0.0
C451 C 0.10113 0.57183 0.4547 0.0
C452 C 0.03769 0.53455 0.41426 0.0
C453 C 0.19497 0.95944 0.63562 0.0
N454 N 0.15546 0.96283 0.64012 0.0
C455 C 0.21611 0.03831 0.61999 0.0
C456 C 0.19657 0.11973 0.60606 0.0
C457 C 0.15621 0.12191 0.60884 0.0
C458 C 0.13606 0.04267 0.62657 0.0
C459 C 0.11097 0.04532 0.8194 0.0
C460 C 0.06504 0.92932 0.74812 0.0
C461 C 0.12697 0.99125 0.77198 0.0
N462 N 0.10401 0.9345 0.73681 0.0
C463 C 0.04809 0.98188 0.79552 0.0
C464 C 0.07126 0.04037 0.83121 0.0
C465 C 0.07532 0.69818 0.67452 0.0
C466 C 0.1941 0.51087 0.62831 0.0
C467 C 0.11662 0.51804 0.59571 0.0
C468 C 0.13124 0.43886 0.62421 0.0
C469 C 0.17024 0.43566 0.641 0.0
N470 N 0.14032 0.59131 0.58257 0.0
C471 C 0.1788 0.58777 0.59751 0.0
C472 C 0.24682 0.2496 0.79794 0.0
C473 C 0.27282 0.24741 0.75982 0.0
C474 C 0.21825 0.25267 0.84587 0.0
C475 C 0.1954 0.25187 0.88894 0.0
C476 C 0.25001 0.27136 0.29953 0.0
C477 C 0.2239 0.27186 0.26153 0.0
C478 C 0.27911 0.27024 0.34674 0.0
C479 C 0.30273 0.27177 0.38873 0.0
C480 C 0.74672 0.26744 0.2072 0.0
C481 C 0.77275 0.27034 0.24521 0.0
C482 C 0.71828 0.26323 0.15913 0.0
C483 C 0.69578 0.26329 0.11561 0.0
C484 C 0.74989 0.24713 0.70475 0.0
C485 C 0.72379 0.24646 0.74275 0.0
C486 C 0.77898 0.24836 0.65755 0.0
C487 C 0.80258 0.2468 0.61555 0.0
C488 C 0.7673 0.78003 0.12338 0.0
C489 C 0.79162 0.78309 0.08279 0.0
C490 C 0.73841 0.77684 0.17035 0.0
C491 C 0.71314 0.7737 0.20942 0.0
C492 C 0.73017 0.73702 0.62322 0.0
C493 C 0.70585 0.73378 0.58262 0.0
C494 C 0.75905 0.74053 0.67023 0.0
C495 C 0.7843 0.74389 0.70932 0.0
C496 C 0.26724 0.73782 0.88139 0.0
C497 C 0.29155 0.73463 0.92201 0.0
C498 C 0.23837 0.74127 0.83436 0.0
C499 C 0.21314 0.74457 0.79524 0.0
C500 C 0.25913 0.7777 0.33437 0.0
C501 C 0.28439 0.77433 0.29531 0.0
C502 C 0.23024 0.78121 0.38133 0.0
C503 C 0.20591 0.78444 0.4219 0.0
C504 C 0.01518 0.34644 0.23313 0.0
C505 C 0.04227 0.3278 0.19998 0.0
C506 C 0.98213 0.34646 0.27186 0.0
C507 C 0.95505 0.32783 0.30505 0.0
C508 C 0.48198 0.17088 0.73265 0.0
C509 C 0.4549 0.18974 0.6995 0.0
C510 C 0.51507 0.17083 0.7713 0.0
C511 C 0.54218 0.18963 0.80438 0.0
C512 C 0.01589 0.63154 0.73499 0.0
C513 C 0.04274 0.66092 0.7059 0.0
C514 C 0.98163 0.63138 0.76945 0.0
C515 C 0.95477 0.66055 0.79859 0.0
C516 C 0.4816 0.88742 0.23508 0.0
C517 C 0.45476 0.85793 0.20602 0.0
C518 C 0.51589 0.88735 0.26948 0.0
C519 C 0.54272 0.85776 0.29854 0.0
C520 C 0.01463 0.02765 0.0066 0.0
C521 C 0.0419 0.07483 0.02188 0.0
C522 C 0.98185 0.97453 0.98957 0.0
C523 C 0.95445 0.92901 0.97268 0.0
C524 C 0.51543 0.54303 0.48899 0.0
C525 C 0.54285 0.58847 0.4722 0.0
C526 C 0.48265 0.49 0.50595 0.0
C527 C 0.45541 0.44282 0.52125 0.0
C528 C 0.48176 0.54319 0.01503 0.0
C529 C 0.4544 0.58874 0.03204 0.0
C530 C 0.51451 0.49008 0.99782 0.0
C531 C 0.54176 0.44293 0.98244 0.0
C532 C 0.01554 0.975 0.51536 0.0
C533 C 0.04298 0.92958 0.53208 0.0
C534 C 0.98273 0.02803 0.49855 0.0
C535 C 0.95547 0.0752 0.48335 0.0
loop_
_geom_bond_atom_site_label_1
_geom_bond_atom_site_label_2
_geom_bond_distance
_geom_bond_site_symmetry_2
_ccdc_geom_bond_type
Co0 O2 2.143 . S
Co0 O8 2.074 . S
Co0 O11 2.093 1_554 S
Co0 O24 2.097 . S
Co0 N41 2.151 . S
Co0 N49 2.214 1_554 S
Co1 O2 2.160 . S
Co1 O7 2.058 . S
Co1 O17 2.057 . S
Co1 O32 2.037 . S
Co1 N36 2.145 . S
Co1 N57 2.257 . S
O2 Co0 2.143 . S
O2 Co1 2.160 . S
C3 O4 1.278 1_556 S
C3 O11 1.224 . S
O4 C3 1.278 1_554 S
C5 O6 1.245 . S
C5 O17 1.232 . S
O6 C5 1.245 . S
O7 Co1 2.058 . S
O7 C33 1.269 . S
O8 Co0 2.074 . S
O8 C33 1.257 . S
H9 C34 0.930 . S
H10 C40 0.930 . S
O11 Co0 2.093 1_556 S
O11 C3 1.224 . S
H12 C44 0.929 . S
H13 C46 0.930 . S
H14 C47 0.930 1_554 S
H15 C45 0.929 . S
H16 C48 0.928 . S
O17 Co1 2.057 . S
O17 C5 1.232 . S
H18 C37 0.929 . S
H19 C38 0.929 . S
H20 C50 0.931 . S
H21 C42 0.929 . S
H22 C51 0.930 . S
H23 C43 0.931 . S
O24 Co0 2.097 . S
O24 C52 1.214 . S
H25 C53 0.929 . S
H26 C54 0.929 . S
H27 C55 0.930 . S
H28 C56 0.929 . S
H29 C58 0.930 . S
H30 C35 0.930 . S
H31 C39 0.930 . S
O32 Co1 2.037 . S
O32 C52 1.234 . S
C33 O7 1.269 . S
C33 O8 1.257 . S
C34 H9 0.930 . S
C34 C37 1.388 1_565 S
C34 C39 1.418 . S
C35 H30 0.930 . S
C35 C38 1.404 1_565 S
C35 C39 1.353 . S
N36 Co1 2.145 . S
N36 C37 1.397 . S
N36 C38 1.334 . S
C37 H18 0.929 . S
C37 C34 1.388 1_545 S
C37 N36 1.397 . S
C38 H19 0.929 . S
C38 C35 1.404 1_545 S
C38 N36 1.334 . S
C39 H31 0.930 . S
C39 C34 1.418 . S
C39 C35 1.353 . S
C40 H10 0.930 . S
C40 N41 1.330 . S
C40 C42 1.446 . S
N41 Co0 2.151 . S
N41 C40 1.330 . S
N41 C45 1.418 . S
C42 H21 0.929 . S
C42 C40 1.446 . S
C42 C43 1.332 . S
C43 H23 0.931 . S
C43 C42 1.332 . S
C43 C44 1.267 . S
C44 H12 0.929 . S
C44 C43 1.267 . S
C44 C45 1.251 . S
C45 H15 0.929 . S
C45 N41 1.418 . S
C45 C44 1.251 . S
C46 H13 0.930 . S
C46 C48 1.406 . S
C46 C51 1.261 1_455 S
C47 H14 0.930 1_556 S
C47 N49 1.325 . S
C47 C50 1.357 1_455 S
C48 H16 0.928 . S
C48 C46 1.406 . S
C48 N49 1.261 . S
N49 Co0 2.214 1_556 S
N49 C47 1.325 . S
N49 C48 1.261 . S
C50 H20 0.931 . S
C50 C47 1.357 1_655 S
C50 C51 1.312 . S
C51 H22 0.930 . S
C51 C46 1.261 1_655 S
C51 C50 1.312 . S
C52 O24 1.214 . S
C52 O32 1.234 . S
C53 H25 0.929 . S
C53 C56 1.391 1_545 S
C53 C58 1.391 . S
C54 H26 0.929 . S
C54 C55 1.390 . S
C54 N57 1.391 1_565 S
C55 H27 0.930 . S
C55 C54 1.390 . S
C55 C56 1.392 . S
C56 H28 0.929 . S
C56 C53 1.391 1_565 S
C56 C55 1.392 . S
N57 Co1 2.257 . S
N57 C54 1.391 1_545 S
N57 C58 1.388 . S
C58 H29 0.930 . S
C58 C53 1.391 . S
C58 N57 1.388 . S
Co59 O61 2.143 . S
Co59 O67 2.074 . S
Co59 O70 2.093 . S
Co59 O83 2.097 . S
Co59 N100 2.151 . S
Co59 N108 2.214 . S
Co60 O61 2.160 . S
Co60 O66 2.058 . S
Co60 O76 2.057 . S
Co60 O91 2.037 . S
Co60 N95 2.145 . S
Co60 N116 2.257 . S
O61 Co59 2.143 . S
O61 Co60 2.160 . S
C62 O63 1.278 . S
C62 O70 1.224 . S
O63 C62 1.278 . S
C64 O65 1.245 . S
C64 O76 1.232 . S
O65 C64 1.245 . S
O66 Co60 2.058 . S
O66 C92 1.269 . S
O67 Co59 2.074 . S
O67 C92 1.257 . S
H68 C93 0.930 . S
H69 C99 0.930 . S
O70 Co59 2.093 . S
O70 C62 1.224 . S
H71 C103 0.929 . S
H72 C105 0.930 1_565 S
H73 C106 0.930 . S
H74 C104 0.929 . S
H75 C107 0.928 . S
O76 Co60 2.057 . S
O76 C64 1.232 . S
H77 C96 0.929 . S
H78 C97 0.929 . S
H79 C109 0.931 . S
H80 C101 0.929 . S
H81 C110 0.930 . S
H82 C102 0.931 . S
O83 Co59 2.097 . S
O83 C111 1.214 . S
H84 C112 0.929 . S
H85 C113 0.929 . S
H86 C114 0.930 . S
H87 C115 0.929 . S
H88 C117 0.930 . S
H89 C94 0.930 . S
H90 C98 0.930 . S
O91 Co60 2.037 . S
O91 C111 1.234 . S
C92 O66 1.269 . S
C92 O67 1.257 . S
C93 H68 0.930 . S
C93 C96 1.388 . S
C93 C98 1.418 . S
C94 H89 0.930 . S
C94 C97 1.404 . S
C94 C98 1.353 . S
N95 Co60 2.145 . S
N95 C96 1.397 . S
N95 C97 1.334 . S
C96 H77 0.929 . S
C96 C93 1.388 . S
C96 N95 1.397 . S
C97 H78 0.929 . S
C97 C94 1.404 . S
C97 N95 1.334 . S
C98 H90 0.930 . S
C98 C93 1.418 . S
C98 C94 1.353 . S
C99 H69 0.930 . S
C99 N100 1.330 . S
C99 C101 1.446 1_545 S
N100 Co59 2.151 . S
N100 C99 1.330 . S
N100 C104 1.418 1_545 S
C101 H80 0.929 . S
C101 C99 1.446 1_565 S
C101 C102 1.332 . S
C102 H82 0.931 . S
C102 C101 1.332 . S
C102 C103 1.267 . S
C103 H71 0.929 . S
C103 C102 1.267 . S
C103 C104 1.251 . S
C104 H74 0.929 . S
C104 N100 1.418 1_565 S
C104 C103 1.251 . S
C105 H72 0.930 1_545 S
C105 C107 1.406 . S
C105 C110 1.261 . S
C106 H73 0.930 . S
C106 N108 1.325 . S
C106 C109 1.357 . S
C107 H75 0.928 . S
C107 C105 1.406 . S
C107 N108 1.261 . S
N108 Co59 2.214 . S
N108 C106 1.325 . S
N108 C107 1.261 . S
C109 H79 0.931 . S
C109 C106 1.357 . S
C109 C110 1.312 . S
C110 H81 0.930 . S
C110 C105 1.261 . S
C110 C109 1.312 . S
C111 O83 1.214 . S
C111 O91 1.234 . S
C112 H84 0.929 . S
C112 C115 1.391 . S
C112 C117 1.391 . S
C113 H85 0.929 . S
C113 C114 1.390 . S
C113 N116 1.391 . S
C114 H86 0.930 . S
C114 C113 1.390 . S
C114 C115 1.392 . S
C115 H87 0.929 . S
C115 C112 1.391 . S
C115 C114 1.392 . S
N116 Co60 2.257 . S
N116 C113 1.391 . S
N116 C117 1.388 . S
C117 H88 0.930 . S
C117 C112 1.391 . S
C117 N116 1.388 . S
Co118 O120 2.143 . S
Co118 O126 2.074 . S
Co118 O129 2.093 1_556 S
Co118 O142 2.097 . S
Co118 N159 2.151 . S
Co118 N167 2.214 1_556 S
Co119 O120 2.160 . S
Co119 O125 2.058 . S
Co119 O135 2.057 . S
Co119 O150 2.037 . S
Co119 N154 2.145 . S
Co119 N175 2.257 . S
O120 Co118 2.143 . S
O120 Co119 2.160 . S
C121 O122 1.278 1_554 S
C121 O129 1.224 . S
O122 C121 1.278 1_556 S
C123 O124 1.245 . S
C123 O135 1.232 . S
O124 C123 1.245 . S
O125 Co119 2.058 . S
O125 C151 1.269 . S
O126 Co118 2.074 . S
O126 C151 1.257 . S
H127 C152 0.930 . S
H128 C158 0.930 . S
O129 Co118 2.093 1_554 S
O129 C121 1.224 . S
H130 C162 0.929 . S
H131 C164 0.930 1_565 S
H132 C165 0.930 1_556 S
H133 C163 0.929 . S
H134 C166 0.928 . S
O135 Co119 2.057 . S
O135 C123 1.232 . S
H136 C155 0.929 . S
H137 C156 0.929 . S
H138 C168 0.931 . S
H139 C160 0.929 . S
H140 C169 0.930 . S
H141 C161 0.931 . S
O142 Co118 2.097 . S
O142 C170 1.214 . S
H143 C171 0.929 . S
H144 C172 0.929 . S
H145 C173 0.930 . S
H146 C174 0.929 . S
H147 C176 0.930 . S
H148 C153 0.930 . S
H149 C157 0.930 . S
O150 Co119 2.037 . S
O150 C170 1.234 . S
C151 O125 1.269 . S
C151 O126 1.257 . S
C152 H127 0.930 . S
C152 C155 1.388 . S
C152 C157 1.418 . S
C153 H148 0.930 . S
C153 C156 1.404 . S
C153 C157 1.353 . S
N154 Co119 2.145 . S
N154 C155 1.397 . S
N154 C156 1.334 . S
C155 H136 0.929 . S
C155 C152 1.388 . S
C155 N154 1.397 . S
C156 H137 0.929 . S
C156 C153 1.404 . S
C156 N154 1.334 . S
C157 H149 0.930 . S
C157 C152 1.418 . S
C157 C153 1.353 . S
C158 H128 0.930 . S
C158 N159 1.330 . S
C158 C160 1.446 1_545 S
N159 Co118 2.151 . S
N159 C158 1.330 . S
N159 C163 1.418 1_545 S
C160 H139 0.929 . S
C160 C158 1.446 1_565 S
C160 C161 1.332 . S
C161 H141 0.931 . S
C161 C160 1.332 . S
C161 C162 1.267 . S
C162 H130 0.929 . S
C162 C161 1.267 . S
C162 C163 1.251 . S
C163 H133 0.929 . S
C163 N159 1.418 1_565 S
C163 C162 1.251 . S
C164 H131 0.930 1_545 S
C164 C166 1.406 . S
C164 C169 1.261 . S
C165 H132 0.930 1_554 S
C165 N167 1.325 . S
C165 C168 1.357 . S
C166 H134 0.928 . S
C166 C164 1.406 . S
C166 N167 1.261 . S
N167 Co118 2.214 1_554 S
N167 C165 1.325 . S
N167 C166 1.261 . S
C168 H138 0.931 . S
C168 C165 1.357 . S
C168 C169 1.312 . S
C169 H140 0.930 . S
C169 C164 1.261 . S
C169 C168 1.312 . S
C170 O142 1.214 . S
C170 O150 1.234 . S
C171 H143 0.929 . S
C171 C174 1.391 . S
C171 C176 1.391 . S
C172 H144 0.929 . S
C172 C173 1.390 . S
C172 N175 1.391 . S
C173 H145 0.930 . S
C173 C172 1.390 . S
C173 C174 1.392 . S
C174 H146 0.929 . S
C174 C171 1.391 . S
C174 C173 1.392 . S
N175 Co119 2.257 . S
N175 C172 1.391 . S
N175 C176 1.388 . S
C176 H147 0.930 . S
C176 C171 1.391 . S
C176 N175 1.388 . S
Co177 O179 2.143 . S
Co177 O185 2.074 . S
Co177 O188 2.093 . S
Co177 O201 2.097 . S
Co177 N218 2.151 . S
Co177 N226 2.214 . S
Co178 O179 2.160 . S
Co178 O184 2.058 . S
Co178 O194 2.057 . S
Co178 O209 2.037 . S
Co178 N213 2.145 . S
Co178 N234 2.257 . S
O179 Co177 2.143 . S
O179 Co178 2.160 . S
C180 O181 1.278 . S
C180 O188 1.224 . S
O181 C180 1.278 . S
C182 O183 1.245 . S
C182 O194 1.232 . S
O183 C182 1.245 . S
O184 Co178 2.058 . S
O184 C210 1.269 . S
O185 Co177 2.074 . S
O185 C210 1.257 . S
H186 C211 0.930 . S
H187 C217 0.930 . S
O188 Co177 2.093 . S
O188 C180 1.224 . S
H189 C221 0.929 . S
H190 C223 0.930 . S
H191 C224 0.930 . S
H192 C222 0.929 . S
H193 C225 0.928 . S
O194 Co178 2.057 . S
O194 C182 1.232 . S
H195 C214 0.929 . S
H196 C215 0.929 . S
H197 C227 0.931 . S
H198 C219 0.929 . S
H199 C228 0.930 . S
H200 C220 0.931 . S
O201 Co177 2.097 . S
O201 C229 1.214 . S
H202 C230 0.929 . S
H203 C231 0.929 . S
H204 C232 0.930 . S
H205 C233 0.929 . S
H206 C235 0.930 . S
H207 C212 0.930 . S
H208 C216 0.930 . S
O209 Co178 2.037 . S
O209 C229 1.234 . S
C210 O184 1.269 . S
C210 O185 1.257 . S
C211 H186 0.930 . S
C211 C214 1.388 1_565 S
C211 C216 1.418 . S
C212 H207 0.930 . S
C212 C215 1.404 1_565 S
C212 C216 1.353 . S
N213 Co178 2.145 . S
N213 C214 1.397 . S
N213 C215 1.334 . S
C214 H195 0.929 . S
C214 C211 1.388 1_545 S
C214 N213 1.397 . S
C215 H196 0.929 . S
C215 C212 1.404 1_545 S
C215 N213 1.334 . S
C216 H208 0.930 . S
C216 C211 1.418 . S
C216 C212 1.353 . S
C217 H187 0.930 . S
C217 N218 1.330 . S
C217 C219 1.446 . S
N218 Co177 2.151 . S
N218 C217 1.330 . S
N218 C222 1.418 . S
C219 H198 0.929 . S
C219 C217 1.446 . S
C219 C220 1.332 . S
C220 H200 0.931 . S
C220 C219 1.332 . S
C220 C221 1.267 . S
C221 H189 0.929 . S
C221 C220 1.267 . S
C221 C222 1.251 . S
C222 H192 0.929 . S
C222 N218 1.418 . S
C222 C221 1.251 . S
C223 H190 0.930 . S
C223 C225 1.406 . S
C223 C228 1.261 1_655 S
C224 H191 0.930 . S
C224 N226 1.325 . S
C224 C227 1.357 1_655 S
C225 H193 0.928 . S
C225 C223 1.406 . S
C225 N226 1.261 . S
N226 Co177 2.214 . S
N226 C224 1.325 . S
N226 C225 1.261 . S
C227 H197 0.931 . S
C227 C224 1.357 1_455 S
C227 C228 1.312 . S
C228 H199 0.930 . S
C228 C223 1.261 1_455 S
C228 C227 1.312 . S
C229 O201 1.214 . S
C229 O209 1.234 . S
C230 H202 0.929 . S
C230 C233 1.391 1_545 S
C230 C235 1.391 . S
C231 H203 0.929 . S
C231 C232 1.390 . S
C231 N234 1.391 1_565 S
C232 H204 0.930 . S
C232 C231 1.390 . S
C232 C233 1.392 . S
C233 H205 0.929 . S
C233 C230 1.391 1_565 S
C233 C232 1.392 . S
N234 Co178 2.257 . S
N234 C231 1.391 1_545 S
N234 C235 1.388 . S
C235 H206 0.930 . S
C235 C230 1.391 . S
C235 N234 1.388 . S
Co236 O238 2.143 . S
Co236 O244 2.074 . S
Co236 O247 2.093 . S
Co236 O260 2.097 . S
Co236 N277 2.151 . S
Co236 N285 2.214 . S
Co237 O238 2.160 . S
Co237 O243 2.058 . S
Co237 O253 2.057 1_556 S
Co237 O268 2.037 . S
Co237 N272 2.145 1_556 S
Co237 N293 2.257 . S
O238 Co236 2.143 . S
O238 Co237 2.160 . S
C239 O240 1.278 . S
C239 O247 1.224 . S
O240 C239 1.278 . S
C241 O242 1.245 1_554 S
C241 O253 1.232 . S
O242 C241 1.245 1_556 S
O243 Co237 2.058 . S
O243 C269 1.269 . S
O244 Co236 2.074 . S
O244 C269 1.257 . S
H245 C270 0.930 1_455 S
H246 C276 0.930 . S
O247 Co236 2.093 . S
O247 C239 1.224 . S
H248 C280 0.929 . S
H249 C282 0.930 . S
H250 C283 0.930 . S
H251 C281 0.929 . S
H252 C284 0.928 . S
O253 Co237 2.057 1_554 S
O253 C241 1.232 . S
H254 C273 0.919 1_556 S
H255 C274 0.929 . S
H256 C286 0.931 . S
H257 C278 0.929 . S
H258 C287 0.930 . S
H259 C279 0.931 . S
O260 Co236 2.097 . S
O260 C288 1.214 . S
H261 C289 0.929 . S
H262 C290 0.929 . S
H263 C291 0.930 . S
H264 C292 0.929 . S
H265 C294 0.930 . S
H266 C271 0.930 . S
H267 C275 0.930 . S
O268 Co237 2.037 . S
O268 C288 1.234 . S
C269 O243 1.269 . S
C269 O244 1.257 . S
C270 H245 0.930 1_655 S
C270 C273 1.396 . S
C270 C275 1.418 . S
C271 H266 0.930 . S
C271 C274 1.404 . S
C271 C275 1.353 . S
N272 Co237 2.145 1_554 S
N272 C273 1.399 . S
N272 C274 1.334 . S
C273 H254 0.919 1_554 S
C273 C270 1.396 . S
C273 N272 1.399 . S
C274 H255 0.929 . S
C274 C271 1.404 . S
C274 N272 1.334 . S
C275 H267 0.930 . S
C275 C270 1.418 . S
C275 C271 1.353 . S
C276 H246 0.930 . S
C276 N277 1.330 . S
C276 C278 1.446 1_565 S
N277 Co236 2.151 . S
N277 C276 1.330 . S
N277 C281 1.418 1_565 S
C278 H257 0.929 . S
C278 C276 1.446 1_545 S
C278 C279 1.332 . S
C279 H259 0.931 . S
C279 C278 1.332 . S
C279 C280 1.267 . S
C280 H248 0.929 . S
C280 C279 1.267 . S
C280 C281 1.251 . S
C281 H251 0.929 . S
C281 N277 1.418 1_545 S
C281 C280 1.251 . S
C282 H249 0.930 . S
C282 C284 1.406 1_545 S
C282 C287 1.261 . S
C283 H250 0.930 . S
C283 N285 1.325 . S
C283 C286 1.357 . S
C284 H252 0.928 . S
C284 C282 1.406 1_565 S
C284 N285 1.261 . S
N285 Co236 2.214 . S
N285 C283 1.325 . S
N285 C284 1.261 . S
C286 H256 0.931 . S
C286 C283 1.357 . S
C286 C287 1.312 1_565 S
C287 H258 0.930 . S
C287 C282 1.261 . S
C287 C286 1.312 1_545 S
C288 O260 1.214 . S
C288 O268 1.234 . S
C289 H261 0.929 . S
C289 C292 1.391 . S
C289 C294 1.391 . S
C290 H262 0.929 . S
C290 C291 1.390 . S
C290 N293 1.391 . S
C291 H263 0.930 . S
C291 C290 1.390 . S
C291 C292 1.392 . S
C292 H264 0.929 . S
C292 C289 1.391 . S
C292 C291 1.392 . S
N293 Co237 2.257 . S
N293 C290 1.391 . S
N293 C294 1.388 . S
C294 H265 0.930 . S
C294 C289 1.391 . S
C294 N293 1.388 . S
Co295 O297 2.143 . S
Co295 O303 2.074 . S
Co295 O306 2.093 . S
Co295 O319 2.097 . S
Co295 N336 2.151 . S
Co295 N344 2.214 . S
Co296 O297 2.160 . S
Co296 O302 2.058 . S
Co296 O312 2.057 . S
Co296 O327 2.037 . S
Co296 N331 2.145 . S
Co296 N352 2.257 . S
O297 Co295 2.143 . S
O297 Co296 2.160 . S
C298 O299 1.278 . S
C298 O306 1.224 . S
O299 C298 1.278 . S
C300 O301 1.245 . S
C300 O312 1.232 . S
O301 C300 1.245 . S
O302 Co296 2.058 . S
O302 C328 1.269 . S
O303 Co295 2.074 . S
O303 C328 1.257 . S
H304 C329 0.930 . S
H305 C335 0.930 . S
O306 Co295 2.093 . S
O306 C298 1.224 . S
H307 C339 0.929 . S
H308 C341 0.930 . S
H309 C342 0.930 . S
H310 C340 0.929 . S
H311 C343 0.928 . S
O312 Co296 2.057 . S
O312 C300 1.232 . S
H313 C332 0.929 . S
H314 C333 0.929 . S
H315 C345 0.931 . S
H316 C337 0.929 . S
H317 C346 0.930 . S
H318 C338 0.931 . S
O319 Co295 2.097 . S
O319 C347 1.214 . S
H320 C348 0.929 . S
H321 C349 0.929 . S
H322 C350 0.930 . S
H323 C351 0.929 . S
H324 C353 0.930 . S
H325 C330 0.930 1_545 S
H326 C334 0.930 1_545 S
O327 Co296 2.037 . S
O327 C347 1.234 . S
C328 O302 1.269 . S
C328 O303 1.257 . S
C329 H304 0.930 . S
C329 C332 1.388 . S
C329 C334 1.418 . S
C330 H325 0.930 1_565 S
C330 C333 1.404 . S
C330 C334 1.353 . S
N331 Co296 2.145 . S
N331 C332 1.397 . S
N331 C333 1.334 . S
C332 H313 0.929 . S
C332 C329 1.388 . S
C332 N331 1.397 . S
C333 H314 0.929 . S
C333 C330 1.404 . S
C333 N331 1.334 . S
C334 H326 0.930 1_565 S
C334 C329 1.418 . S
C334 C330 1.353 . S
C335 H305 0.930 . S
C335 N336 1.330 . S
C335 C337 1.446 . S
N336 Co295 2.151 . S
N336 C335 1.330 . S
N336 C340 1.418 . S
C337 H316 0.929 . S
C337 C335 1.446 . S
C337 C338 1.332 . S
C338 H318 0.931 . S
C338 C337 1.332 . S
C338 C339 1.267 . S
C339 H307 0.929 . S
C339 C338 1.267 . S
C339 C340 1.251 . S
C340 H310 0.929 . S
C340 N336 1.418 . S
C340 C339 1.251 . S
C341 H308 0.930 . S
C341 C343 1.406 . S
C341 C346 1.261 . S
C342 H309 0.930 . S
C342 N344 1.325 . S
C342 C345 1.357 . S
C343 H311 0.928 . S
C343 C341 1.406 . S
C343 N344 1.261 . S
N344 Co295 2.214 . S
N344 C342 1.325 . S
N344 C343 1.261 . S
C345 H315 0.931 . S
C345 C342 1.357 . S
C345 C346 1.312 . S
C346 H317 0.930 . S
C346 C341 1.261 . S
C346 C345 1.312 . S
C347 O319 1.214 . S
C347 O327 1.234 . S
C348 H320 0.929 . S
C348 C351 1.391 . S
C348 C353 1.391 1_545 S
C349 H321 0.929 . S
C349 C350 1.390 . S
C349 N352 1.391 1_545 S
C350 H322 0.930 . S
C350 C349 1.390 . S
C350 C351 1.392 . S
C351 H323 0.929 . S
C351 C348 1.391 . S
C351 C350 1.392 . S
N352 Co296 2.257 . S
N352 C349 1.391 1_565 S
N352 C353 1.388 . S
C353 H324 0.930 . S
C353 C348 1.391 1_565 S
C353 N352 1.388 . S
Co354 O356 2.143 . S
Co354 O362 2.074 . S
Co354 O365 2.093 . S
Co354 O378 2.097 . S
Co354 N395 2.151 . S
Co354 N403 2.214 . S
Co355 O356 2.160 . S
Co355 O361 2.058 . S
Co355 O371 2.057 1_554 S
Co355 O386 2.037 . S
Co355 N390 2.145 1_554 S
Co355 N411 2.257 . S
O356 Co354 2.143 . S
O356 Co355 2.160 . S
C357 O358 1.278 . S
C357 O365 1.224 . S
O358 C357 1.278 . S
C359 O360 1.245 1_556 S
C359 O371 1.232 . S
O360 C359 1.245 1_554 S
O361 Co355 2.058 . S
O361 C387 1.269 . S
O362 Co354 2.074 . S
O362 C387 1.257 . S
H363 C388 0.930 . S
H364 C394 0.930 . S
O365 Co354 2.093 . S
O365 C357 1.224 . S
H366 C398 0.929 . S
H367 C400 0.930 . S
H368 C401 0.930 . S
H369 C399 0.929 . S
H370 C402 0.928 . S
O371 Co355 2.057 1_556 S
O371 C359 1.232 . S
H372 C391 0.919 1_554 S
H373 C392 0.929 . S
H374 C404 0.931 . S
H375 C396 0.929 . S
H376 C405 0.930 . S
H377 C397 0.931 . S
O378 Co354 2.097 . S
O378 C406 1.214 . S
H379 C407 0.929 . S
H380 C408 0.929 . S
H381 C409 0.930 . S
H382 C410 0.929 . S
H383 C412 0.930 . S
H384 C389 0.930 1_545 S
H385 C393 0.930 1_545 S
O386 Co355 2.037 . S
O386 C406 1.234 . S
C387 O361 1.269 . S
C387 O362 1.257 . S
C388 H363 0.930 . S
C388 C391 1.396 . S
C388 C393 1.418 . S
C389 H384 0.930 1_565 S
C389 C392 1.404 . S
C389 C393 1.353 . S
N390 Co355 2.145 1_556 S
N390 C391 1.399 . S
N390 C392 1.334 . S
C391 H372 0.919 1_556 S
C391 C388 1.396 . S
C391 N390 1.399 . S
C392 H373 0.929 . S
C392 C389 1.404 . S
C392 N390 1.334 . S
C393 H385 0.930 1_565 S
C393 C388 1.418 . S
C393 C389 1.353 . S
C394 H364 0.930 . S
C394 N395 1.330 . S
C394 C396 1.446 . S
N395 Co354 2.151 . S
N395 C394 1.330 . S
N395 C399 1.418 . S
C396 H375 0.929 . S
C396 C394 1.446 . S
C396 C397 1.332 . S
C397 H377 0.931 . S
C397 C396 1.332 . S
C397 C398 1.267 . S
C398 H366 0.929 . S
C398 C397 1.267 . S
C398 C399 1.251 . S
C399 H369 0.929 . S
C399 N395 1.418 . S
C399 C398 1.251 . S
C400 H367 0.930 . S
C400 C402 1.406 . S
C400 C405 1.261 . S
C401 H368 0.930 . S
C401 N403 1.325 . S
C401 C404 1.357 . S
C402 H370 0.928 . S
C402 C400 1.406 . S
C402 N403 1.261 . S
N403 Co354 2.214 . S
N403 C401 1.325 . S
N403 C402 1.261 . S
C404 H374 0.931 . S
C404 C401 1.357 . S
C404 C405 1.312 . S
C405 H376 0.930 . S
C405 C400 1.261 . S
C405 C404 1.312 . S
C406 O378 1.214 . S
C406 O386 1.234 . S
C407 H379 0.929 . S
C407 C410 1.391 . S
C407 C412 1.391 1_545 S
C408 H380 0.929 . S
C408 C409 1.390 . S
C408 N411 1.391 1_545 S
C409 H381 0.930 . S
C409 C408 1.390 . S
C409 C410 1.392 . S
C410 H382 0.929 . S
C410 C407 1.391 . S
C410 C409 1.392 . S
N411 Co355 2.257 . S
N411 C408 1.391 1_565 S
N411 C412 1.388 . S
C412 H383 0.930 . S
C412 C407 1.391 1_565 S
C412 N411 1.388 . S
Co413 O415 2.143 . S
Co413 O421 2.074 . S
Co413 O424 2.093 . S
Co413 O437 2.097 . S
Co413 N454 2.151 . S
Co413 N462 2.214 . S
Co414 O415 2.160 . S
Co414 O420 2.058 . S
Co414 O430 2.057 . S
Co414 O445 2.037 . S
Co414 N449 2.145 . S
Co414 N470 2.257 . S
O415 Co413 2.143 . S
O415 Co414 2.160 . S
C416 O417 1.278 . S
C416 O424 1.224 . S
O417 C416 1.278 . S
C418 O419 1.245 . S
C418 O430 1.232 . S
O419 C418 1.245 . S
O420 Co414 2.058 . S
O420 C446 1.269 . S
O421 Co413 2.074 . S
O421 C446 1.257 . S
H422 C447 0.930 1_655 S
H423 C453 0.930 . S
O424 Co413 2.093 . S
O424 C416 1.224 . S
H425 C457 0.929 . S
H426 C459 0.930 . S
H427 C460 0.930 . S
H428 C458 0.929 . S
H429 C461 0.928 . S
O430 Co414 2.057 . S
O430 C418 1.232 . S
H431 C450 0.929 . S
H432 C451 0.929 . S
H433 C463 0.931 . S
H434 C455 0.929 . S
H435 C464 0.930 . S
H436 C456 0.931 . S
O437 Co413 2.097 . S
O437 C465 1.214 . S
H438 C466 0.929 . S
H439 C467 0.929 . S
H440 C468 0.930 . S
H441 C469 0.929 . S
H442 C471 0.930 . S
H443 C448 0.930 . S
H444 C452 0.930 . S
O445 Co414 2.037 . S
O445 C465 1.234 . S
C446 O420 1.269 . S
C446 O421 1.257 . S
C447 H422 0.930 1_455 S
C447 C450 1.388 . S
C447 C452 1.418 . S
C448 H443 0.930 . S
C448 C451 1.404 . S
C448 C452 1.353 . S
N449 Co414 2.145 . S
N449 C450 1.397 . S
N449 C451 1.334 . S
C450 H431 0.929 . S
C450 C447 1.388 . S
C450 N449 1.397 . S
C451 H432 0.929 . S
C451 C448 1.404 . S
C451 N449 1.334 . S
C452 H444 0.930 . S
C452 C447 1.418 . S
C452 C448 1.353 . S
C453 H423 0.930 . S
C453 N454 1.330 . S
C453 C455 1.446 1_565 S
N454 Co413 2.151 . S
N454 C453 1.330 . S
N454 C458 1.418 1_565 S
C455 H434 0.929 . S
C455 C453 1.446 1_545 S
C455 C456 1.332 . S
C456 H436 0.931 . S
C456 C455 1.332 . S
C456 C457 1.267 . S
C457 H425 0.929 . S
C457 C456 1.267 . S
C457 C458 1.251 . S
C458 H428 0.929 . S
C458 N454 1.418 1_545 S
C458 C457 1.251 . S
C459 H426 0.930 . S
C459 C461 1.406 1_545 S
C459 C464 1.261 . S
C460 H427 0.930 . S
C460 N462 1.325 . S
C460 C463 1.357 . S
C461 H429 0.928 . S
C461 C459 1.406 1_565 S
C461 N462 1.261 . S
N462 Co413 2.214 . S
N462 C460 1.325 . S
N462 C461 1.261 . S
C463 H433 0.931 . S
C463 C460 1.357 . S
C463 C464 1.312 1_565 S
C464 H435 0.930 . S
C464 C459 1.261 . S
C464 C463 1.312 1_545 S
C465 O437 1.214 . S
C465 O445 1.234 . S
C466 H438 0.929 . S
C466 C469 1.391 . S
C466 C471 1.391 . S
C467 H439 0.929 . S
C467 C468 1.390 . S
C467 N470 1.391 . S
C468 H440 0.930 . S
C468 C467 1.390 . S
C468 C469 1.392 . S
C469 H441 0.929 . S
C469 C466 1.391 . S
C469 C468 1.392 . S
N470 Co414 2.257 . S
N470 C467 1.391 . S
N470 C471 1.388 . S
C471 H442 0.930 . S
C471 C466 1.391 . S
C471 N470 1.388 . S
C472 C473 1.170 . S
C472 C474 1.380 . S
C473 C472 1.170 . S
C474 C472 1.380 . S
C474 C475 1.170 . S
C475 C474 1.170 . S
C476 C477 1.170 . S
C476 C478 1.380 . S
C477 C476 1.170 . S
C478 C476 1.380 . S
C478 C479 1.170 . S
C479 C478 1.170 . S
C480 C481 1.170 . S
C480 C482 1.380 . S
C481 C480 1.170 . S
C482 C480 1.380 . S
C482 C483 1.170 . S
C483 C482 1.170 . S
C484 C485 1.170 . S
C484 C486 1.380 . S
C485 C484 1.170 . S
C486 C484 1.380 . S
C486 C487 1.170 . S
C487 C486 1.170 . S
C488 C489 1.170 . S
C488 C490 1.380 . S
C489 C488 1.170 . S
C490 C488 1.380 . S
C490 C491 1.170 . S
C491 C490 1.170 . S
C492 C493 1.170 . S
C492 C494 1.380 . S
C493 C492 1.170 . S
C494 C492 1.380 . S
C494 C495 1.170 . S
C495 C494 1.170 . S
C496 C497 1.170 . S
C496 C498 1.380 . S
C497 C496 1.170 . S
C498 C496 1.380 . S
C498 C499 1.170 . S
C499 C498 1.170 . S
C500 C501 1.170 . S
C500 C502 1.380 . S
C501 C500 1.170 . S
C502 C500 1.380 . S
C502 C503 1.170 . S
C503 C502 1.170 . S
C504 C505 1.170 . S
C504 C506 1.380 1_455 S
C505 C504 1.170 . S
C506 C504 1.380 1_655 S
C506 C507 1.170 . S
C507 C506 1.170 . S
C508 C509 1.170 . S
C508 C510 1.380 . S
C509 C508 1.170 . S
C510 C508 1.380 . S
C510 C511 1.170 . S
C511 C510 1.170 . S
C512 C513 1.170 . S
C512 C514 1.380 1_455 S
C513 C512 1.170 . S
C514 C512 1.380 1_655 S
C514 C515 1.170 . S
C515 C514 1.170 . S
C516 C517 1.170 . S
C516 C518 1.380 . S
C517 C516 1.170 . S
C518 C516 1.380 . S
C518 C519 1.170 . S
C519 C518 1.170 . S
C520 C521 1.170 . S
C520 C522 1.380 1_444 S
C521 C520 1.170 . S
C522 C520 1.380 1_666 S
C522 C523 1.170 . S
C523 C522 1.170 . S
C524 C525 1.170 . S
C524 C526 1.380 . S
C525 C524 1.170 . S
C526 C524 1.380 . S
C526 C527 1.170 . S
C527 C526 1.170 . S
C528 C529 1.170 . S
C528 C530 1.380 1_554 S
C529 C528 1.170 . S
C530 C528 1.380 1_556 S
C530 C531 1.170 . S
C531 C530 1.170 . S
C532 C533 1.170 . S
C532 C534 1.380 1_465 S
C533 C532 1.170 . S
C534 C532 1.380 1_645 S
C534 C535 1.170 . S
C535 C534 1.170 . S
C473 C64 1.622 . S
C475 C3 1.571 . S
C477 C5 1.613 . S
C479 C62 1.562 . S
C481 C182 1.619 . S
C483 C121 1.582 . S
C485 C123 1.612 . S
C487 C180 1.564 . S
C489 C241 1.585 . S
C491 C298 1.608 . S
C493 C300 1.585 . S
C495 C239 1.596 . S
C497 C359 1.597 . S
C499 C416 1.592 . S
C501 C357 1.607 . S
C503 C418 1.571 . S
C505 C33 0.971 . S
C507 C210 0.971 . S
C509 C92 0.968 . S
C511 C151 0.967 . S
C513 C465 0.939 . S
C515 C288 0.942 . S
C517 C406 0.957 . S
C519 C347 0.976 . S
C521 C52 1.537 . S
C523 C269 1.519 . S
C525 C328 1.522 . S
C527 C111 1.544 . S
C529 C387 1.533 . S
C531 C170 1.530 . S
C533 C446 1.520 . S
C535 C229 1.544 . S
