# Generated by pormake.
# Topology sod-f, (3)-cn, num edge types: 1
# Building blocks:
#     Node 0, Type 0, BuildingBlock: OLANEW_clean_sbu_2, # of connection points: 3
#     Node 1, Type 0, BuildingBlock: OLANEW_clean_sbu_2, # of connection points: 3
#     Node 2, Type 0, BuildingBlock: OLANEW_clean_sbu_2, # of connection points: 3
#     Node 3, Type 0, BuildingBlock: OLANEW_clean_sbu_2, # of connection points: 3
#     Node 4, Type 0, BuildingBlock: OLANEW_clean_sbu_2, # of connection points: 3
#     Node 5, Type 0, BuildingBlock: OLANEW_clean_sbu_2, # of connection points: 3
#     Node 6, Type 0, BuildingBlock: OLANEW_clean_sbu_2, # of connection points: 3
#     Node 7, Type 0, BuildingBlock: OLANEW_clean_sbu_2, # of connection points: 3
#     Node 8, Type 0, BuildingBlock: OLANEW_clean_sbu_2, # of connection points: 3
#     Node 9, Type 0, BuildingBlock: OLANEW_clean_sbu_2, # of connection points: 3
#     Node 10, Type 0, BuildingBlock: OLANEW_clean_sbu_2, # of connection points: 3
#     Node 11, Type 0, BuildingBlock: OLANEW_clean_sbu_2, # of connection points: 3
#     Node 12, Type 0, BuildingBlock: OLANEW_clean_sbu_2, # of connection points: 3
#     Node 13, Type 0, BuildingBlock: OLANEW_clean_sbu_2, # of connection points: 3
#     Node 14, Type 0, BuildingBlock: OLANEW_clean_sbu_2, # of connection points: 3
#     Node 15, Type 0, BuildingBlock: OLANEW_clean_sbu_2, # of connection points: 3
#     Node 16, Type 0, BuildingBlock: OLANEW_clean_sbu_2, # of connection points: 3
#     Node 17, Type 0, BuildingBlock: OLANEW_clean_sbu_2, # of connection points: 3
#     Node 18, Type 0, BuildingBlock: OLANEW_clean_sbu_2, # of connection points: 3
#     Node 19, Type 0, BuildingBlock: OLANEW_clean_sbu_2, # of connection points: 3
#     Node 20, Type 0, BuildingBlock: OLANEW_clean_sbu_2, # of connection points: 3
#     Node 21, Type 0, BuildingBlock: OLANEW_clean_sbu_2, # of connection points: 3
#     Node 22, Type 0, BuildingBlock: OLANEW_clean_sbu_2, # of connection points: 3
#     Node 23, Type 0, BuildingBlock: OLANEW_clean_sbu_2, # of connection points: 3
#     Node 24, Type 0, BuildingBlock: OLANEW_clean_sbu_2, # of connection points: 3
#     Node 25, Type 0, BuildingBlock: OLANEW_clean_sbu_2, # of connection points: 3
#     Node 26, Type 0, BuildingBlock: OLANEW_clean_sbu_2, # of connection points: 3
#     Node 27, Type 0, BuildingBlock: OLANEW_clean_sbu_2, # of connection points: 3
#     Node 28, Type 0, BuildingBlock: OLANEW_clean_sbu_2, # of connection points: 3
#     Node 29, Type 0, BuildingBlock: OLANEW_clean_sbu_2, # of connection points: 3
#     Node 30, Type 0, BuildingBlock: OLANEW_clean_sbu_2, # of connection points: 3
#     Node 31, Type 0, BuildingBlock: OLANEW_clean_sbu_2, # of connection points: 3
#     Node 32, Type 0, BuildingBlock: OLANEW_clean_sbu_2, # of connection points: 3
#     Node 33, Type 0, BuildingBlock: OLANEW_clean_sbu_2, # of connection points: 3
#     Node 34, Type 0, BuildingBlock: OLANEW_clean_sbu_2, # of connection points: 3
#     Node 35, Type 0, BuildingBlock: OLANEW_clean_sbu_2, # of connection points: 3
#     Node 36, Type 0, BuildingBlock: OLANEW_clean_sbu_2, # of connection points: 3
#     Node 37, Type 0, BuildingBlock: OLANEW_clean_sbu_2, # of connection points: 3
#     Node 38, Type 0, BuildingBlock: OLANEW_clean_sbu_2, # of connection points: 3
#     Node 39, Type 0, BuildingBlock: OLANEW_clean_sbu_2, # of connection points: 3
#     Node 40, Type 0, BuildingBlock: OLANEW_clean_sbu_2, # of connection points: 3
#     Node 41, Type 0, BuildingBlock: OLANEW_clean_sbu_2, # of connection points: 3
#     Node 42, Type 0, BuildingBlock: OLANEW_clean_sbu_2, # of connection points: 3
#     Node 43, Type 0, BuildingBlock: OLANEW_clean_sbu_2, # of connection points: 3
#     Node 44, Type 0, BuildingBlock: OLANEW_clean_sbu_2, # of connection points: 3
#     Node 45, Type 0, BuildingBlock: OLANEW_clean_sbu_2, # of connection points: 3
#     Node 46, Type 0, BuildingBlock: OLANEW_clean_sbu_2, # of connection points: 3
#     Node 47, Type 0, BuildingBlock: OLANEW_clean_sbu_2, # of connection points: 3
#     Edge 48, Type (0, 0), BuildingBlock: XIVTED_clean_linker_0, # of connection points: 2
#     Edge 49, Type (0, 0), BuildingBlock: XIVTED_clean_linker_0, # of connection points: 2
#     Edge 50, Type (0, 0), BuildingBlock: XIVTED_clean_linker_0, # of connection points: 2
#     Edge 51, Type (0, 0), BuildingBlock: XIVTED_clean_linker_0, # of connection points: 2
#     Edge 52, Type (0, 0), BuildingBlock: XIVTED_clean_linker_0, # of connection points: 2
#     Edge 53, Type (0, 0), BuildingBlock: XIVTED_clean_linker_0, # of connection points: 2
#     Edge 54, Type (0, 0), BuildingBlock: XIVTED_clean_linker_0, # of connection points: 2
#     Edge 55, Type (0, 0), BuildingBlock: XIVTED_clean_linker_0, # of connection points: 2
#     Edge 56, Type (0, 0), BuildingBlock: XIVTED_clean_linker_0, # of connection points: 2
#     Edge 57, Type (0, 0), BuildingBlock: XIVTED_clean_linker_0, # of connection points: 2
#     Edge 58, Type (0, 0), BuildingBlock: XIVTED_clean_linker_0, # of connection points: 2
#     Edge 59, Type (0, 0), BuildingBlock: XIVTED_clean_linker_0, # of connection points: 2
#     Edge 60, Type (0, 0), BuildingBlock: XIVTED_clean_linker_0, # of connection points: 2
#     Edge 61, Type (0, 0), BuildingBlock: XIVTED_clean_linker_0, # of connection points: 2
#     Edge 62, Type (0, 0), BuildingBlock: XIVTED_clean_linker_0, # of connection points: 2
#     Edge 63, Type (0, 0), BuildingBlock: XIVTED_clean_linker_0, # of connection points: 2
#     Edge 64, Type (0, 0), BuildingBlock: XIVTED_clean_linker_0, # of connection points: 2
#     Edge 65, Type (0, 0), BuildingBlock: XIVTED_clean_linker_0, # of connection points: 2
#     Edge 66, Type (0, 0), BuildingBlock: XIVTED_clean_linker_0, # of connection points: 2
#     Edge 67, Type (0, 0), BuildingBlock: XIVTED_clean_linker_0, # of connection points: 2
#     Edge 68, Type (0, 0), BuildingBlock: XIVTED_clean_linker_0, # of connection points: 2
#     Edge 69, Type (0, 0), BuildingBlock: XIVTED_clean_linker_0, # of connection points: 2
#     Edge 70, Type (0, 0), BuildingBlock: XIVTED_clean_linker_0, # of connection points: 2
#     Edge 71, Type (0, 0), BuildingBlock: XIVTED_clean_linker_0, # of connection points: 2
#     Edge 72, Type (0, 0), BuildingBlock: XIVTED_clean_linker_0, # of connection points: 2
#     Edge 73, Type (0, 0), BuildingBlock: XIVTED_clean_linker_0, # of connection points: 2
#     Edge 74, Type (0, 0), BuildingBlock: XIVTED_clean_linker_0, # of connection points: 2
#     Edge 75, Type (0, 0), BuildingBlock: XIVTED_clean_linker_0, # of connection points: 2
#     Edge 76, Type (0, 0), BuildingBlock: XIVTED_clean_linker_0, # of connection points: 2
#     Edge 77, Type (0, 0), BuildingBlock: XIVTED_clean_linker_0, # of connection points: 2
#     Edge 78, Type (0, 0), BuildingBlock: XIVTED_clean_linker_0, # of connection points: 2
#     Edge 79, Type (0, 0), BuildingBlock: XIVTED_clean_linker_0, # of connection points: 2
#     Edge 80, Type (0, 0), BuildingBlock: XIVTED_clean_linker_0, # of connection points: 2
#     Edge 81, Type (0, 0), BuildingBlock: XIVTED_clean_linker_0, # of connection points: 2
#     Edge 82, Type (0, 0), BuildingBlock: XIVTED_clean_linker_0, # of connection points: 2
#     Edge 83, Type (0, 0), BuildingBlock: XIVTED_clean_linker_0, # of connection points: 2
#     Edge 84, Type (0, 0), BuildingBlock: XIVTED_clean_linker_0, # of connection points: 2
#     Edge 85, Type (0, 0), BuildingBlock: XIVTED_clean_linker_0, # of connection points: 2
#     Edge 86, Type (0, 0), BuildingBlock: XIVTED_clean_linker_0, # of connection points: 2
#     Edge 87, Type (0, 0), BuildingBlock: XIVTED_clean_linker_0, # of connection points: 2
#     Edge 88, Type (0, 0), BuildingBlock: XIVTED_clean_linker_0, # of connection points: 2
#     Edge 89, Type (0, 0), BuildingBlock: XIVTED_clean_linker_0, # of connection points: 2
#     Edge 90, Type (0, 0), BuildingBlock: XIVTED_clean_linker_0, # of connection points: 2
#     Edge 91, Type (0, 0), BuildingBlock: XIVTED_clean_linker_0, # of connection points: 2
#     Edge 92, Type (0, 0), BuildingBlock: XIVTED_clean_linker_0, # of connection points: 2
#     Edge 93, Type (0, 0), BuildingBlock: XIVTED_clean_linker_0, # of connection points: 2
#     Edge 94, Type (0, 0), BuildingBlock: XIVTED_clean_linker_0, # of connection points: 2
#     Edge 95, Type (0, 0), BuildingBlock: XIVTED_clean_linker_0, # of connection points: 2
#     Edge 96, Type (0, 0), BuildingBlock: XIVTED_clean_linker_0, # of connection points: 2
#     Edge 97, Type (0, 0), BuildingBlock: XIVTED_clean_linker_0, # of connection points: 2
#     Edge 98, Type (0, 0), BuildingBlock: XIVTED_clean_linker_0, # of connection points: 2
#     Edge 99, Type (0, 0), BuildingBlock: XIVTED_clean_linker_0, # of connection points: 2
#     Edge 100, Type (0, 0), BuildingBlock: XIVTED_clean_linker_0, # of connection points: 2
#     Edge 101, Type (0, 0), BuildingBlock: XIVTED_clean_linker_0, # of connection points: 2
#     Edge 102, Type (0, 0), BuildingBlock: XIVTED_clean_linker_0, # of connection points: 2
#     Edge 103, Type (0, 0), BuildingBlock: XIVTED_clean_linker_0, # of connection points: 2
#     Edge 104, Type (0, 0), BuildingBlock: XIVTED_clean_linker_0, # of connection points: 2
#     Edge 105, Type (0, 0), BuildingBlock: XIVTED_clean_linker_0, # of connection points: 2
#     Edge 106, Type (0, 0), BuildingBlock: XIVTED_clean_linker_0, # of connection points: 2
#     Edge 107, Type (0, 0), BuildingBlock: XIVTED_clean_linker_0, # of connection points: 2
#     Edge 108, Type (0, 0), BuildingBlock: XIVTED_clean_linker_0, # of connection points: 2
#     Edge 109, Type (0, 0), BuildingBlock: XIVTED_clean_linker_0, # of connection points: 2
#     Edge 110, Type (0, 0), BuildingBlock: XIVTED_clean_linker_0, # of connection points: 2
#     Edge 111, Type (0, 0), BuildingBlock: XIVTED_clean_linker_0, # of connection points: 2
#     Edge 112, Type (0, 0), BuildingBlock: XIVTED_clean_linker_0, # of connection points: 2
#     Edge 113, Type (0, 0), BuildingBlock: XIVTED_clean_linker_0, # of connection points: 2
#     Edge 114, Type (0, 0), BuildingBlock: XIVTED_clean_linker_0, # of connection points: 2
#     Edge 115, Type (0, 0), BuildingBlock: XIVTED_clean_linker_0, # of connection points: 2
#     Edge 116, Type (0, 0), BuildingBlock: XIVTED_clean_linker_0, # of connection points: 2
#     Edge 117, Type (0, 0), BuildingBlock: XIVTED_clean_linker_0, # of connection points: 2
#     Edge 118, Type (0, 0), BuildingBlock: XIVTED_clean_linker_0, # of connection points: 2
#     Edge 119, Type (0, 0), BuildingBlock: XIVTED_clean_linker_0, # of connection points: 2
# Relax obj value: 0.023
# Max RMSD: 0.081
# Mean RMSD: 0.053
data_MOF--net-sod-f--node1-OLANEW_clean_sbu_2--edge1-XIVTED_clean_linker_0
_symmetry_space_group_name_H-M    P1
_symmetry_Int_Tables_number       1
_symmetry_cell_setting            triclinic
loop_
_symmetry_equiv_pos_as_xyz
'x, y, z'
_cell_length_a     101.86583
_cell_length_b     95.030081
_cell_length_c     95.544728
_cell_angle_alpha  88.398898
_cell_angle_beta   92.193962
_cell_angle_gamma 95.452341
loop_
_atom_site_label
_atom_site_type_symbol
_atom_site_fract_x
_atom_site_fract_y
_atom_site_fract_z
_atom_type_partial_charge
O0 O 0.05162 0.30457 0.42173 0.0
Cd1 Cd 0.03469 0.30491 0.40293 0.0
O2 O 0.04946 0.28135 0.4236 0.0
Cd3 Cd 0.03079 0.27945 0.41146 0.0
O4 O 0.00953 0.2767 0.41451 0.0
C5 C 0.00326 0.28746 0.41602 0.0
O6 O 0.00946 0.30012 0.41429 0.0
C7 C 0.0554 0.29317 0.42711 0.0
C8 C 0.04284 0.32236 0.38032 0.0
O9 O 0.0366 0.32712 0.3903 0.0
O10 O 0.04526 0.30936 0.38107 0.0
O11 O 0.72913 0.0329 0.44064 0.0
Cd12 Cd 0.72306 0.01227 0.42618 0.0
O13 O 0.74978 0.02821 0.44407 0.0
Cd14 Cd 0.74749 0.00742 0.43474 0.0
O15 O 0.75167 0.98541 0.43763 0.0
C16 C 0.74272 0.97514 0.43746 0.0
O17 O 0.73043 0.97764 0.43455 0.0
C18 C 0.74068 0.03622 0.44576 0.0
C19 C 0.70352 0.01777 0.40597 0.0
O20 O 0.7005 0.013 0.41822 0.0
O21 O 0.71578 0.01989 0.40323 0.0
O22 O 0.05385 0.76237 0.37816 0.0
Cd23 Cd 0.03897 0.7597 0.35746 0.0
O24 O 0.03613 0.76391 0.39009 0.0
Cd25 Cd 0.02494 0.7652 0.40909 0.0
O26 O 0.01235 0.76515 0.42713 0.0
C27 C 0.01154 0.7763 0.43398 0.0
O28 O 0.01855 0.78802 0.4302 0.0
C29 C 0.04863 0.76417 0.38977 0.0
C30 C 0.04031 0.73501 0.34264 0.0
O31 O 0.04753 0.74638 0.33951 0.0
O32 O 0.03266 0.73525 0.35296 0.0
O33 O 0.29453 0.06665 0.42752 0.0
Cd34 Cd 0.296 0.08683 0.41108 0.0
O35 O 0.28348 0.0764 0.44346 0.0
Cd36 Cd 0.28347 0.09768 0.43431 0.0
O37 O 0.27871 0.11836 0.44094 0.0
C38 C 0.2687 0.11788 0.44855 0.0
O39 O 0.26193 0.1056 0.45078 0.0
C40 C 0.28872 0.06581 0.43909 0.0
C41 C 0.31362 0.08219 0.3904 0.0
O42 O 0.3172 0.09031 0.40062 0.0
O43 O 0.30171 0.07649 0.38983 0.0
O44 O 0.04498 0.77908 0.61225 0.0
Cd45 Cd 0.02546 0.77886 0.62637 0.0
O46 O 0.04484 0.80166 0.60652 0.0
Cd47 Cd 0.0247 0.80288 0.61309 0.0
O48 O 0.00419 0.8043 0.60607 0.0
C49 C 0.99476 0.79556 0.61 0.0
O50 O 0.99716 0.78564 0.61935 0.0
C51 C 0.0504 0.79024 0.60641 0.0
C52 C 0.02995 0.76626 0.65265 0.0
O53 O 0.03327 0.77944 0.65034 0.0
O54 O 0.02439 0.75903 0.64256 0.0
O55 O 0.26713 0.9836 0.63118 0.0
Cd56 Cd 0.26499 0.99559 0.65316 0.0
O57 O 0.26456 0.00314 0.61919 0.0
Cd58 Cd 0.26354 0.01815 0.60144 0.0
O59 O 0.26286 0.0381 0.58955 0.0
C60 C 0.26984 0.04882 0.59436 0.0
O61 O 0.2772 0.04722 0.60579 0.0
C62 C 0.26625 0.99003 0.61939 0.0
C63 C 0.28877 0.00055 0.66848 0.0
O64 O 0.28183 0.9886 0.66934 0.0
O65 O 0.28454 0.01014 0.66025 0.0
O66 O 0.05563 0.29113 0.67727 0.0
Cd67 Cd 0.0435 0.28903 0.69894 0.0
O68 O 0.03639 0.28676 0.6665 0.0
Cd69 Cd 0.02247 0.2845 0.64849 0.0
O70 O 0.00809 0.28254 0.63093 0.0
C71 C 0.99981 0.2717 0.63 0.0
O72 O 1.00006 0.26166 0.63972 0.0
C73 C 0.04887 0.28919 0.66592 0.0
C74 C 0.0397 0.31489 0.71052 0.0
O75 O 0.04951 0.30809 0.71454 0.0
O76 O 0.03179 0.30956 0.70089 0.0
O77 O 0.77014 0.05217 0.63551 0.0
Cd78 Cd 0.76728 0.02944 0.64819 0.0
O79 O 0.76867 0.03971 0.61658 0.0
Cd80 Cd 0.76915 0.0341 0.59454 0.0
O81 O 0.76968 0.01968 0.57717 0.0
C82 C 0.77656 0.00929 0.57927 0.0
O83 O 0.78314 0.00821 0.59129 0.0
C84 C 0.77007 0.05175 0.62223 0.0
C85 C 0.75412 0.03049 0.67314 0.0
O86 O 0.76676 0.03192 0.67305 0.0
O87 O 0.74772 0.02871 0.66141 0.0
O88 O 0.41644 0.07208 0.30051 0.0
Cd89 Cd 0.3968 0.05515 0.30008 0.0
O90 O 0.42881 0.05791 0.29028 0.0
Cd91 Cd 0.4152 0.03872 0.29029 0.0
O92 O 0.41589 0.01588 0.28906 0.0
C93 C 0.41789 0.00867 0.30022 0.0
O94 O 0.41808 0.01493 0.31232 0.0
C95 C 0.42734 0.06987 0.29532 0.0
C96 C 0.37884 0.06142 0.3198 0.0
O97 O 0.37967 0.06825 0.30807 0.0
O98 O 0.38646 0.05159 0.32224 0.0
O99 O 0.0897 0.41935 0.27552 0.0
Cd100 Cd 0.07252 0.39988 0.272 0.0
O101 O 0.07434 0.43246 0.2814 0.0
Cd102 Cd 0.06586 0.4521 0.28581 0.0
O103 O 0.05049 0.46674 0.28425 0.0
C104 C 0.04287 0.46572 0.2734 0.0
O105 O 0.04496 0.45647 0.26395 0.0
C106 C 0.08642 0.43118 0.27936 0.0
C107 C 0.0671 0.384 0.29644 0.0
O108 O 0.07568 0.38052 0.28802 0.0
O109 O 0.06117 0.39504 0.29336 0.0
O110 O 0.60059 0.02133 0.30678 0.0
Cd111 Cd 0.61227 0.04346 0.3149 0.0
O112 O 0.59615 0.02968 0.28558 0.0
Cd113 Cd 0.60268 0.05174 0.29001 0.0
O114 O 0.59919 0.07413 0.28963 0.0
C115 C 0.58845 0.077 0.28347 0.0
O116 O 0.58065 0.06663 0.27796 0.0
C117 C 0.59577 0.01942 0.29443 0.0
C118 C 0.63211 0.03831 0.3349 0.0
O119 O 0.63458 0.0396 0.32185 0.0
O120 O 0.62028 0.03953 0.33849 0.0
O121 O 0.05351 0.61371 0.26759 0.0
Cd122 Cd 0.03344 0.62596 0.2655 0.0
O123 O 0.04997 0.60324 0.24736 0.0
Cd124 Cd 0.03 0.60936 0.24382 0.0
O125 O 0.00921 0.60234 0.23984 0.0
C126 C 1.00016 0.60522 0.24777 0.0
O127 O 0.00318 0.61354 0.2584 0.0
C128 C 0.05724 0.60583 0.25826 0.0
C129 C 0.03529 0.64928 0.28288 0.0
O130 O 0.0302 0.63714 0.28716 0.0
O131 O 0.03944 0.6504 0.27036 0.0
O132 O 0.40416 0.0391 0.75263 0.0
Cd133 Cd 0.38474 0.02275 0.75735 0.0
O134 O 0.41645 0.02139 0.75216 0.0
Cd135 Cd 0.4353 0.01197 0.75228 0.0
O136 O 0.45397 0.00232 0.7524 0.0
C137 C 0.46449 0.00853 0.75781 0.0
O138 O 0.46407 0.02099 0.76332 0.0
C139 C 0.41542 0.03463 0.7514 0.0
C140 C 0.36618 0.01955 0.73517 0.0
O141 O 0.36629 0.02988 0.74354 0.0
O142 O 0.37501 0.01088 0.73713 0.0
O143 O 0.03028 0.44262 0.77723 0.0
Cd144 Cd 0.01121 0.4259 0.77149 0.0
O145 O 0.02335 0.44541 0.79842 0.0
Cd146 Cd 0.00363 0.43476 0.79464 0.0
O147 O 0.98288 0.43891 0.79391 0.0
C148 C 0.97763 0.441 0.80544 0.0
O149 O 0.98447 0.43919 0.81719 0.0
C150 C 0.0321 0.44794 0.7893 0.0
C151 C 0.01829 0.40256 0.75745 0.0
O152 O 0.01433 0.41327 0.75065 0.0
O153 O 0.01891 0.40289 0.77086 0.0
O154 O 0.67586 0.00743 0.78922 0.0
Cd155 Cd 0.69361 0.02662 0.78859 0.0
O156 O 0.6626 0.02337 0.78276 0.0
Cd157 Cd 0.64397 0.03255 0.77842 0.0
O158 O 0.62763 0.0457 0.77544 0.0
C159 C 0.62659 0.05533 0.78418 0.0
O160 O 0.63524 0.05685 0.79472 0.0
C161 C 0.66425 0.01058 0.78605 0.0
C162 C 0.70703 0.02762 0.76364 0.0
O163 O 0.71127 0.02098 0.77451 0.0
O164 O 0.69643 0.03376 0.76457 0.0
O165 O 0.05793 0.69261 0.78043 0.0
Cd166 Cd 0.04866 0.7153 0.77651 0.0
O167 O 0.03749 0.68319 0.78028 0.0
Cd168 Cd 0.0212 0.66641 0.78092 0.0
O169 O 0.00413 0.65066 0.7817 0.0
C170 C 0.99608 0.6508 0.79153 0.0
O171 O 0.99824 0.66045 0.80114 0.0
C172 C 0.04976 0.68174 0.7818 0.0
C173 C 0.04628 0.72441 0.74859 0.0
O174 O 0.05654 0.72836 0.7562 0.0
O175 O 0.03728 0.71591 0.7541 0.0
O176 O 0.26887 0.37692 0.96738 0.0
Cd177 Cd 0.26884 0.35217 0.97515 0.0
O178 O 0.27128 0.38409 0.98905 0.0
Cd179 Cd 0.27129 0.40019 0.00504 0.0
O180 O 0.27115 0.41728 0.01987 0.0
C181 C 0.26607 0.42862 0.01629 0.0
O182 O 0.26088 0.42991 0.00357 0.0
C183 C 0.2699 0.38693 0.97601 0.0
C184 C 0.2926 0.34448 0.98718 0.0
O185 O 0.29035 0.34414 0.97389 0.0
O186 O 0.28374 0.34878 0.99475 0.0
O187 O 0.24959 0.65057 0.08746 0.0
Cd188 Cd 0.2519 0.67496 0.07843 0.0
O189 O 0.25119 0.64256 0.06638 0.0
Cd190 Cd 0.25055 0.6266 0.05024 0.0
O191 O 0.24968 0.61192 0.03297 0.0
C192 C 0.24152 0.61319 0.02272 0.0
O193 O 0.23364 0.62336 0.02272 0.0
C194 C 0.24988 0.64016 0.07944 0.0
C195 C 0.2784 0.68497 0.07651 0.0
O196 O 0.27234 0.68585 0.08793 0.0
O197 O 0.27189 0.67945 0.06597 0.0
O198 O 0.40481 0.28575 0.05151 0.0
Cd199 Cd 0.38555 0.27579 0.03777 0.0
O200 O 0.41688 0.28422 0.03323 0.0
Cd201 Cd 0.43512 0.28437 0.02171 0.0
O202 O 0.45196 0.28408 0.00818 0.0
C203 C 0.44976 0.28224 0.99514 0.0
O204 O 0.43748 0.28058 0.99028 0.0
C205 C 0.41603 0.28734 0.04602 0.0
C206 C 0.36812 0.29506 0.02788 0.0
O207 O 0.36702 0.28922 0.04009 0.0
O208 O 0.37767 0.29206 0.02048 0.0
O209 O 0.77026 0.41519 0.04255 0.0
Cd210 Cd 0.76867 0.39628 0.02558 0.0
O211 O 0.76067 0.42809 0.02657 0.0
Cd212 Cd 0.75454 0.44801 0.01786 0.0
O213 O 0.75424 0.46718 0.00478 0.0
C214 C 0.76091 0.46776 0.99376 0.0
O215 O 0.7673 0.45689 0.99083 0.0
C216 C 0.76577 0.42679 0.03883 0.0
C217 C 0.74345 0.382 0.02374 0.0
O218 O 0.75242 0.37755 0.03205 0.0
O219 O 0.74639 0.39323 0.01634 0.0
O220 O 0.63872 0.80513 0.02581 0.0
Cd221 Cd 0.6508 0.80618 0.0484 0.0
O222 O 0.62839 0.78426 0.03053 0.0
Cd223 Cd 0.6332 0.78586 0.05292 0.0
O224 O 0.62459 0.79183 0.07224 0.0
C225 C 0.62098 0.80426 0.07241 0.0
O226 O 0.6237 0.8129 0.06171 0.0
C227 C 0.63113 0.79445 0.02189 0.0
C228 C 0.67376 0.79255 0.04682 0.0
O229 O 0.66306 0.78586 0.05107 0.0
O230 O 0.67363 0.8057 0.04352 0.0
O231 O 0.77543 0.71117 0.01456 0.0
Cd232 Cd 0.77836 0.73004 0.03161 0.0
O233 O 0.77315 0.69624 0.03239 0.0
Cd234 Cd 0.77143 0.67498 0.04202 0.0
O235 O 0.76974 0.65356 0.05111 0.0
C236 C 0.77561 0.64385 0.04584 0.0
O237 O 0.78271 0.64683 0.03476 0.0
C238 C 0.77345 0.69853 0.01921 0.0
C239 C 0.75552 0.74356 0.0346 0.0
O240 O 0.76423 0.74829 0.02588 0.0
O241 O 0.75758 0.73238 0.04185 0.0
O242 O 0.41554 0.73205 0.07501 0.0
Cd243 Cd 0.40305 0.71023 0.0673 0.0
O244 O 0.4189 0.7378 0.053 0.0
Cd245 Cd 0.42685 0.75041 0.03516 0.0
O246 O 0.43774 0.76013 0.01755 0.0
C247 C 0.43841 0.7531 0.00651 0.0
O248 O 0.4322 0.74035 0.00589 0.0
C249 C 0.42102 0.74045 0.06593 0.0
C250 C 0.37579 0.70898 0.06964 0.0
O251 O 0.38329 0.70563 0.08005 0.0
O252 O 0.38123 0.71326 0.05821 0.0
O253 O 0.61794 0.31206 0.03627 0.0
Cd254 Cd 0.62877 0.31358 0.01379 0.0
O255 O 0.61502 0.28883 0.03641 0.0
Cd256 Cd 0.62009 0.28774 0.01453 0.0
O257 O 0.61469 0.28611 0.99225 0.0
C258 C 0.60301 0.28079 0.98935 0.0
O259 O 0.59534 0.27649 0.99968 0.0
C260 C 0.61418 0.30044 0.04247 0.0
C261 C 0.65378 0.3283 0.01601 0.0
O262 O 0.65211 0.31496 0.01859 0.0
O263 O 0.64361 0.33469 0.01233 0.0
O264 O 0.56454 0.81695 0.93986 0.0
Cd265 Cd 0.54501 0.82494 0.92755 0.0
O266 O 0.55638 0.79487 0.94305 0.0
Cd267 Cd 0.53643 0.79858 0.93568 0.0
O268 O 0.51594 0.79632 0.94196 0.0
C269 C 0.50924 0.78443 0.94061 0.0
O270 O 0.51447 0.7743 0.9343 0.0
C271 C 0.56593 0.80443 0.94432 0.0
C272 C 0.55163 0.83778 0.90185 0.0
O273 O 0.55354 0.84454 0.91327 0.0
O274 O 0.54648 0.82495 0.90251 0.0
O275 O 0.22487 0.53995 0.93902 0.0
Cd276 Cd 0.22002 0.52085 0.92241 0.0
O277 O 0.24204 0.53067 0.94893 0.0
Cd278 Cd 0.24053 0.51104 0.93745 0.0
O279 O 0.24475 0.48892 0.93838 0.0
C280 C 0.25379 0.48615 0.94731 0.0
O281 O 0.25984 0.49656 0.95455 0.0
C282 C 0.23443 0.54055 0.948 0.0
C283 C 0.20302 0.52856 0.90045 0.0
O284 O 0.19852 0.52325 0.91199 0.0
O285 O 0.21557 0.53021 0.89927 0.0
O286 O 0.57408 0.27592 0.88067 0.0
Cd287 Cd 0.56764 0.27575 0.85575 0.0
O288 O 0.55375 0.27588 0.88748 0.0
Cd289 Cd 0.53839 0.2774 0.9027 0.0
O290 O 0.52249 0.27818 0.91734 0.0
C291 C 0.52495 0.27993 0.93036 0.0
O292 O 0.53729 0.28133 0.93503 0.0
C293 C 0.56604 0.27596 0.89051 0.0
C294 C 0.55874 0.24893 0.84619 0.0
O295 O 0.5711 0.25276 0.84782 0.0
O296 O 0.55054 0.25772 0.8492 0.0
O297 O 0.7861 0.56163 0.93276 0.0
Cd298 Cd 0.79443 0.58419 0.92197 0.0
O299 O 0.77067 0.57039 0.94445 0.0
Cd300 Cd 0.77598 0.5926 0.93906 0.0
O301 O 0.77659 0.61382 0.94742 0.0
C302 C 0.76865 0.61478 0.95722 0.0
O303 O 0.76087 0.60352 0.96078 0.0
C304 C 0.7765 0.55985 0.94095 0.0
C305 C 0.81396 0.5799 0.90321 0.0
O306 O 0.81686 0.58216 0.91618 0.0
O307 O 0.80184 0.57984 0.89907 0.0
O308 O 0.54488 0.28669 0.12258 0.0
Cd309 Cd 0.52524 0.28381 0.1367 0.0
O310 O 0.54234 0.30891 0.117 0.0
Cd311 Cd 0.52181 0.30715 0.12309 0.0
O312 O 0.50152 0.30513 0.11457 0.0
C313 C 0.50011 0.31009 0.10216 0.0
O314 O 0.51053 0.31627 0.096 0.0
C315 C 0.54918 0.2984 0.11688 0.0
C316 C 0.53075 0.27013 0.16219 0.0
O317 O 0.52563 0.26316 0.15173 0.0
O318 O 0.53314 0.28356 0.16064 0.0
O319 O 0.76443 0.48507 0.12934 0.0
Cd320 Cd 0.76376 0.49596 0.15217 0.0
O321 O 0.77303 0.50479 0.11953 0.0
Cd322 Cd 0.77867 0.51876 0.10175 0.0
O323 O 0.77989 0.5382 0.08886 0.0
C324 C 0.7724 0.54745 0.09218 0.0
O325 O 0.76455 0.54465 0.10271 0.0
C326 C 0.76865 0.49187 0.11853 0.0
C327 C 0.78831 0.50282 0.1655 0.0
O328 O 0.78243 0.49032 0.16655 0.0
O329 O 0.78272 0.51202 0.1579 0.0
O330 O 0.53864 0.80954 0.13652 0.0
Cd331 Cd 0.51634 0.80857 0.1454 0.0
O332 O 0.5346 0.82537 0.12006 0.0
Cd333 Cd 0.51329 0.82253 0.12265 0.0
O334 O 0.49407 0.81245 0.11561 0.0
C335 C 0.49289 0.81014 0.10256 0.0
O336 O 0.50279 0.81444 0.09459 0.0
C337 C 0.54266 0.81788 0.12661 0.0
C338 C 0.51415 0.82948 0.16493 0.0
O339 O 0.5174 0.81722 0.16881 0.0
O340 O 0.51194 0.83185 0.15182 0.0
O341 O 0.24315 0.54469 0.14135 0.0
Cd342 Cd 0.24209 0.52181 0.15382 0.0
O343 O 0.24744 0.53362 0.12259 0.0
Cd344 Cd 0.25068 0.52897 0.10073 0.0
O345 O 0.25376 0.51554 0.08314 0.0
C346 C 0.25967 0.50456 0.08604 0.0
O347 O 0.26379 0.50231 0.09904 0.0
C348 C 0.24548 0.54511 0.12837 0.0
C349 C 0.23412 0.52303 0.18133 0.0
O350 O 0.24639 0.52381 0.17859 0.0
O351 O 0.22565 0.5218 0.17106 0.0
O352 O 0.91696 0.57138 0.81292 0.0
Cd353 Cd 0.90167 0.55069 0.81834 0.0
O354 O 0.92143 0.56395 0.79218 0.0
Cd355 Cd 0.91106 0.54292 0.79489 0.0
O356 O 0.91339 0.52031 0.79528 0.0
C357 C 0.91555 0.51384 0.80684 0.0
O358 O 0.91509 0.52065 0.81857 0.0
C359 C 0.92287 0.57337 0.80144 0.0
C360 C 0.88242 0.55739 0.83643 0.0
O361 O 0.89347 0.5535 0.84118 0.0
O362 O 0.88043 0.55807 0.82311 0.0
O363 O 0.5993 0.91672 0.7866 0.0
Cd364 Cd 0.58639 0.89384 0.784 0.0
O365 O 0.58277 0.92894 0.78029 0.0
Cd366 Cd 0.57178 0.94751 0.77652 0.0
O367 O 0.55588 0.96132 0.77297 0.0
C368 C 0.5461 0.95686 0.76511 0.0
O369 O 0.54619 0.94451 0.75929 0.0
C370 C 0.59483 0.92862 0.78418 0.0
C371 C 0.57824 0.88195 0.80961 0.0
O372 O 0.58999 0.88115 0.80559 0.0
O373 O 0.5703 0.88841 0.80156 0.0
O374 O 0.10725 0.5346 0.79699 0.0
Cd375 Cd 0.12141 0.55659 0.80026 0.0
O376 O 0.09277 0.54151 0.81122 0.0
Cd377 Cd 0.1 0.56392 0.81035 0.0
O378 O 0.09582 0.58579 0.80575 0.0
C379 C 0.08407 0.58845 0.80785 0.0
O380 O 0.07578 0.5783 0.8129 0.0
C381 C 0.09688 0.53192 0.80395 0.0
C382 C 0.13973 0.55266 0.82223 0.0
O383 O 0.14259 0.5509 0.80948 0.0
O384 O 0.1283 0.55652 0.82455 0.0
O385 O 0.54533 0.11808 0.78928 0.0
Cd386 Cd 0.52472 0.12872 0.79221 0.0
O387 O 0.54141 0.11197 0.76736 0.0
Cd388 Cd 0.52112 0.1175 0.76656 0.0
O389 O 0.50064 0.10913 0.76291 0.0
C390 C 0.49902 0.09884 0.7546 0.0
O391 O 0.5094 0.09476 0.74864 0.0
C392 C 0.54902 0.11269 0.77822 0.0
C393 C 0.53008 0.15503 0.80449 0.0
O394 O 0.52948 0.14359 0.81194 0.0
O395 O 0.52796 0.15409 0.79122 0.0
O396 O 0.90272 0.55037 0.24836 0.0
Cd397 Cd 0.88309 0.53439 0.25334 0.0
O398 O 0.91487 0.53248 0.24982 0.0
Cd399 Cd 0.93376 0.52313 0.2514 0.0
O400 O 0.95252 0.51361 0.2528 0.0
C401 C 0.96095 0.51664 0.26268 0.0
O402 O 0.9583 0.52569 0.27209 0.0
C403 C 0.91398 0.54568 0.24801 0.0
C404 C 0.86523 0.52923 0.23077 0.0
O405 O 0.86495 0.54018 0.23825 0.0
O406 O 0.87415 0.52087 0.23375 0.0
O407 O 0.52385 0.93824 0.26151 0.0
Cd408 Cd 0.50294 0.92442 0.25563 0.0
O409 O 0.52232 0.93413 0.28418 0.0
Cd410 Cd 0.50169 0.92556 0.28196 0.0
O411 O 0.48136 0.93108 0.28211 0.0
C412 C 0.47642 0.93295 0.29386 0.0
O413 O 0.48327 0.93021 0.30539 0.0
C414 C 0.5288 0.93948 0.2739 0.0
C415 C 0.50582 0.9037 0.23611 0.0
O416 O 0.50316 0.91615 0.23216 0.0
O417 O 0.50716 0.90106 0.24929 0.0
O418 O 0.17226 0.49812 0.30469 0.0
Cd419 Cd 0.19265 0.51386 0.30631 0.0
O420 O 0.16528 0.51423 0.29017 0.0
Cd421 Cd 0.15012 0.52386 0.27746 0.0
O422 O 0.13504 0.5375 0.27029 0.0
C423 C 0.13319 0.54777 0.27799 0.0
O424 O 0.1404 0.54964 0.2896 0.0
C425 C 0.16325 0.50233 0.2965 0.0
C426 C 0.20337 0.51776 0.27989 0.0
O427 O 0.20729 0.50838 0.28858 0.0
O428 O 0.19455 0.52543 0.28378 0.0
O429 O 0.56648 0.18551 0.27853 0.0
Cd430 Cd 0.55758 0.20848 0.2795 0.0
O431 O 0.54607 0.17636 0.28031 0.0
Cd432 Cd 0.53021 0.1594 0.28314 0.0
O433 O 0.51401 0.14275 0.28506 0.0
C434 C 0.50322 0.14531 0.29029 0.0
O435 O 0.50197 0.1581 0.29463 0.0
C436 C 0.55823 0.17464 0.27924 0.0
C437 C 0.55216 0.22066 0.25324 0.0
O438 O 0.56318 0.22385 0.25985 0.0
O439 O 0.54377 0.21158 0.25896 0.0
O440 O 0.75971 0.86963 0.47144 0.0
Cd441 Cd 0.76135 0.84603 0.48186 0.0
O442 O 0.76781 0.88025 0.49043 0.0
Cd443 Cd 0.77209 0.89891 0.50338 0.0
O444 O 0.77513 0.91769 0.51624 0.0
C445 C 0.76971 0.92884 0.51273 0.0
O446 O 0.76231 0.92898 0.50117 0.0
C447 C 0.76305 0.88096 0.47795 0.0
C448 C 0.78596 0.84067 0.49353 0.0
O449 O 0.7832 0.83895 0.48045 0.0
O450 O 0.77721 0.84532 0.50103 0.0
O451 O 0.77648 0.15547 0.57579 0.0
Cd452 Cd 0.77642 0.17804 0.56288 0.0
O453 O 0.77263 0.14563 0.55547 0.0
Cd454 Cd 0.77 0.12879 0.54021 0.0
O455 O 0.76683 0.11347 0.52356 0.0
C456 C 0.75604 0.11251 0.51635 0.0
O457 O 0.74688 0.12075 0.51918 0.0
C458 C 0.77441 0.14433 0.56868 0.0
C459 C 0.80173 0.18947 0.55633 0.0
O460 O 0.79623 0.1932 0.56731 0.0
O461 O 0.79528 0.1803 0.54849 0.0
O462 O 0.89772 0.78232 0.561 0.0
Cd463 Cd 0.87814 0.77385 0.54691 0.0
O464 O 0.90938 0.78374 0.54214 0.0
Cd465 Cd 0.92739 0.78555 0.5301 0.0
O466 O 0.94351 0.78607 0.51554 0.0
C467 C 0.94585 0.77465 0.50989 0.0
O468 O 0.93867 0.76289 0.5132 0.0
C469 C 0.90881 0.78486 0.55534 0.0
C470 C 0.86157 0.79399 0.53708 0.0
O471 O 0.8603 0.78822 0.5493 0.0
O472 O 0.87097 0.79058 0.52968 0.0
O473 O 0.26221 0.91369 0.53926 0.0
Cd474 Cd 0.261 0.89798 0.51931 0.0
O475 O 0.26406 0.93138 0.52412 0.0
Cd476 Cd 0.26772 0.95339 0.51695 0.0
O477 O 0.27132 0.97397 0.50642 0.0
C478 C 0.27758 0.97482 0.49513 0.0
O479 O 0.28182 0.96332 0.4903 0.0
C480 C 0.26352 0.92695 0.53678 0.0
C481 C 0.23743 0.88053 0.51715 0.0
O482 O 0.24748 0.87647 0.52405 0.0
O483 O 0.23848 0.89291 0.51138 0.0
O484 O 0.10965 0.28275 0.52358 0.0
Cd485 Cd 0.11914 0.28036 0.54731 0.0
O486 O 0.10503 0.30465 0.52621 0.0
Cd487 Cd 0.10828 0.30359 0.54895 0.0
O488 O 0.1021 0.30153 0.57064 0.0
C489 C 0.09186 0.29315 0.57287 0.0
O490 O 0.08612 0.28607 0.56233 0.0
C491 C 0.10556 0.2941 0.51843 0.0
C492 C 0.14396 0.27043 0.54598 0.0
O493 O 0.14258 0.2837 0.54507 0.0
O494 O 0.13363 0.26187 0.54777 0.0
O495 O 0.25703 0.2086 0.51016 0.0
Cd496 Cd 0.25698 0.22548 0.52901 0.0
O497 O 0.25427 0.19184 0.52628 0.0
Cd498 Cd 0.25375 0.16985 0.53398 0.0
O499 O 0.25477 0.14815 0.54194 0.0
C500 C 0.26315 0.14582 0.55172 0.0
O501 O 0.27087 0.15652 0.55672 0.0
C502 C 0.25567 0.19552 0.51348 0.0
C503 C 0.23235 0.23524 0.53241 0.0
O504 O 0.24088 0.24203 0.5246 0.0
O505 O 0.23544 0.22377 0.53852 0.0
O506 O 0.93085 0.24788 0.544 0.0
Cd507 Cd 0.91664 0.24394 0.52299 0.0
O508 O 0.9381 0.26932 0.53683 0.0
Cd509 Cd 0.92977 0.26701 0.51552 0.0
O510 O 0.9337 0.26676 0.49323 0.0
C511 C 0.93534 0.27844 0.48642 0.0
O512 O 0.93342 0.29016 0.49271 0.0
C513 C 0.9377 0.25955 0.54623 0.0
C514 C 0.89167 0.23171 0.52988 0.0
O515 O 0.90064 0.22405 0.52634 0.0
O516 O 0.89449 0.24513 0.53008 0.0
O517 O 0.11888 0.79812 0.52538 0.0
Cd518 Cd 0.13001 0.79918 0.50312 0.0
O519 O 0.11471 0.77498 0.52575 0.0
Cd520 Cd 0.11962 0.7735 0.50384 0.0
O521 O 0.11223 0.77225 0.4821 0.0
C522 C 0.10243 0.77927 0.47915 0.0
O523 O 0.09814 0.78697 0.48892 0.0
C524 C 0.11449 0.78677 0.53167 0.0
C525 C 0.15339 0.81697 0.50523 0.0
O526 O 0.14256 0.82174 0.5009 0.0
O527 O 0.15318 0.80376 0.5084 0.0
H528 H 0.0977 0.31705 0.50344 0.0
H529 H 0.06705 0.27102 0.43969 0.0
H530 H 0.10233 0.27263 0.49966 0.0
H531 H 0.06701 0.31641 0.44075 0.0
H532 H 0.0815 0.2717 0.46069 0.0
H533 H 0.08787 0.31736 0.47973 0.0
C534 C 0.09675 0.30738 0.49759 0.0
C535 C 0.10073 0.29476 0.50362 0.0
C536 C 0.07847 0.28153 0.45624 0.0
C537 C 0.08941 0.29503 0.47646 0.0
C538 C 0.07021 0.28116 0.44423 0.0
C539 C 0.06568 0.29366 0.43852 0.0
C540 C 0.08212 0.29449 0.4627 0.0
C541 C 0.07019 0.30649 0.44482 0.0
C542 C 0.09116 0.30757 0.48403 0.0
C543 C 0.09934 0.28259 0.49548 0.0
N544 N 0.07802 0.30655 0.45667 0.0
N545 N 0.09367 0.283 0.48239 0.0
H546 H 0.73369 0.10665 0.49983 0.0
H547 H 0.7642 0.04617 0.45827 0.0
H548 H 0.77335 0.09487 0.50694 0.0
H549 H 0.72342 0.05492 0.45347 0.0
H550 H 0.76818 0.06555 0.47451 0.0
H551 H 0.73016 0.08916 0.48144 0.0
C552 C 0.74167 0.10042 0.49751 0.0
C553 C 0.75382 0.10219 0.505 0.0
C554 C 0.75837 0.06329 0.46986 0.0
C555 C 0.74985 0.08219 0.48393 0.0
C556 C 0.75609 0.05223 0.46054 0.0
C557 C 0.74342 0.04883 0.45455 0.0
C558 C 0.74792 0.07104 0.47328 0.0
C559 C 0.73333 0.05712 0.45787 0.0
C560 C 0.73964 0.09044 0.487 0.0
C561 C 0.7638 0.09384 0.5015 0.0
N562 N 0.73578 0.0678 0.46708 0.0
N563 N 0.76158 0.0842 0.49125 0.0
H564 H 0.00661 0.79843 0.45022 0.0
H565 H 0.9529 0.75217 0.49556 0.0
H566 H 0.99587 0.75383 0.44468 0.0
H567 H 0.96226 0.79711 0.50016 0.0
H568 H 0.96936 0.75244 0.47764 0.0
H569 H 0.99118 0.79802 0.46924 0.0
C570 C 0.00104 0.78854 0.45302 0.0
C571 C 0.00252 0.77615 0.4458 0.0
C572 C 0.96785 0.76225 0.48258 0.0
C573 C 0.98481 0.77562 0.46757 0.0
C574 C 0.95844 0.7621 0.49284 0.0
C575 C 0.95615 0.77465 0.49936 0.0
C576 C 0.97505 0.77504 0.47878 0.0
C577 C 0.96367 0.78719 0.4954 0.0
C578 C 0.99222 0.78832 0.46388 0.0
C579 C 0.99504 0.76365 0.44991 0.0
N580 N 0.97275 0.78707 0.48534 0.0
N581 N 0.98651 0.76371 0.46049 0.0
H582 H 0.29816 0.04062 0.433 0.0
H583 H 0.26984 0.00052 0.50195 0.0
H584 H 0.27717 0.06047 0.46432 0.0
H585 H 0.29027 0.98021 0.47051 0.0
H586 H 0.27307 0.02277 0.48858 0.0
H587 H 0.29599 0.01856 0.44688 0.0
C588 C 0.29313 0.04036 0.4428 0.0
C589 C 0.28782 0.05243 0.44747 0.0
C590 C 0.27687 0.01345 0.48461 0.0
C591 C 0.28529 0.0272 0.4634 0.0
C592 C 0.27504 0.00074 0.49225 0.0
C593 C 0.27977 0.98846 0.48733 0.0
C594 C 0.28348 0.01392 0.47194 0.0
C595 C 0.28643 0.9894 0.4747 0.0
C596 C 0.29189 0.02775 0.45071 0.0
C597 C 0.2814 0.05145 0.46027 0.0
N598 N 0.28807 0.0019 0.46743 0.0
N599 N 0.28031 0.03906 0.46775 0.0
H600 H 0.11047 0.81027 0.54633 0.0
H601 H 0.06292 0.76695 0.60027 0.0
H602 H 0.10369 0.76471 0.54792 0.0
H603 H 0.06539 0.8123 0.59413 0.0
H604 H 0.081 0.76608 0.58431 0.0
H605 H 0.09721 0.81122 0.56697 0.0
C606 C 0.10634 0.80045 0.55111 0.0
C607 C 0.10805 0.78739 0.54525 0.0
C608 C 0.07768 0.77623 0.58658 0.0
C609 C 0.09279 0.78843 0.56887 0.0
C610 C 0.06737 0.77675 0.59573 0.0
C611 C 0.06249 0.7897 0.5984 0.0
C612 C 0.08316 0.78875 0.58008 0.0
C613 C 0.06871 0.80206 0.59225 0.0
C614 C 0.09874 0.80101 0.56289 0.0
C615 C 0.10252 0.77502 0.55198 0.0
N616 N 0.07863 0.80126 0.58329 0.0
N617 N 0.09503 0.77585 0.56335 0.0
H618 H 0.24919 0.1211 0.54347 0.0
H619 H 0.28385 0.07357 0.60193 0.0
H620 H 0.27949 0.13747 0.57313 0.0
H621 H 0.25465 0.05642 0.57149 0.0
H622 H 0.28244 0.09701 0.59128 0.0
H623 H 0.25105 0.09733 0.55339 0.0
C624 C 0.25624 0.11971 0.55206 0.0
C625 C 0.26419 0.13132 0.55749 0.0
C626 C 0.27636 0.08813 0.58689 0.0
C627 C 0.26636 0.10413 0.56889 0.0
C628 C 0.27716 0.07471 0.59297 0.0
C629 C 0.26934 0.06299 0.58762 0.0
C630 C 0.26765 0.0899 0.57536 0.0
C631 C 0.26086 0.06516 0.57597 0.0
C632 C 0.2573 0.10612 0.55771 0.0
C633 C 0.27316 0.12886 0.5686 0.0
N634 N 0.26021 0.07836 0.57026 0.0
N635 N 0.27398 0.11556 0.57394 0.0
H636 H 0.99615 0.29082 0.60855 0.0
H637 H 0.93992 0.24088 0.56849 0.0
H638 H 0.98131 0.24954 0.62425 0.0
H639 H 0.95396 0.28286 0.55393 0.0
H640 H 0.95445 0.24406 0.58937 0.0
H641 H 0.9803 0.28824 0.58877 0.0
C642 C 0.98955 0.28121 0.60786 0.0
C643 C 0.9901 0.27036 0.61807 0.0
C644 C 0.9543 0.25259 0.58163 0.0
C645 C 0.9719 0.26733 0.5954 0.0
C646 C 0.94599 0.2508 0.56971 0.0
C647 C 0.94575 0.26159 0.55939 0.0
C648 C 0.96245 0.26527 0.58324 0.0
C649 C 0.95383 0.27422 0.56157 0.0
C650 C 0.98048 0.27975 0.59656 0.0
C651 C 0.98126 0.25817 0.61662 0.0
N652 N 0.96188 0.27567 0.5732 0.0
N653 N 0.97255 0.25697 0.60548 0.0
H654 H 0.75878 0.95402 0.50893 0.0
H655 H 0.79003 0.98572 0.5809 0.0
H656 H 0.78443 0.93213 0.53722 0.0
H657 H 0.76306 0.00721 0.55382 0.0
H658 H 0.78906 0.96665 0.56424 0.0
H659 H 0.76113 0.97418 0.52448 0.0
C660 C 0.76494 0.95346 0.51838 0.0
C661 C 0.77137 0.94132 0.5218 0.0
C662 C 0.78338 0.97555 0.5619 0.0
C663 C 0.77411 0.96438 0.53965 0.0
C664 C 0.78394 0.98648 0.57141 0.0
C665 C 0.77656 0.99808 0.5688 0.0
C666 C 0.77538 0.97618 0.54964 0.0
C667 C 0.76888 0.99846 0.55629 0.0
C668 C 0.76627 0.96498 0.52726 0.0
C669 C 0.77925 0.94123 0.53418 0.0
N670 N 0.76845 0.98764 0.5472 0.0
N671 N 0.78036 0.95255 0.54266 0.0
H672 H 0.50246 0.11786 0.28207 0.0
H673 H 0.42802 0.09706 0.30467 0.0
H674 H 0.47878 0.14712 0.30081 0.0
H675 H 0.45194 0.06847 0.28525 0.0
H676 H 0.4465 0.11548 0.30376 0.0
H677 H 0.48406 0.09956 0.28357 0.0
C678 C 0.49339 0.12045 0.28652 0.0
C679 C 0.49217 0.13407 0.29131 0.0
C680 C 0.44769 0.10517 0.29971 0.0
C681 C 0.471 0.11311 0.29305 0.0
C682 C 0.43714 0.09464 0.30023 0.0
C683 C 0.4384 0.08119 0.29502 0.0
C684 C 0.45959 0.10222 0.29394 0.0
C685 C 0.45048 0.07867 0.28938 0.0
C686 C 0.48287 0.10998 0.28737 0.0
C687 C 0.48017 0.13677 0.29698 0.0
N688 N 0.46057 0.08908 0.28899 0.0
N689 N 0.47004 0.12639 0.29769 0.0
H690 H 0.03495 0.48531 0.29116 0.0
H691 H 0.96987 0.49816 0.24456 0.0
H692 H 0.02467 0.46547 0.25162 0.0
H693 H 0.9805 0.51949 0.28325 0.0
H694 H 0.99021 0.4865 0.24683 0.0
H695 H 0.0154 0.49839 0.28829 0.0
C696 C 0.02862 0.48375 0.28185 0.0
C697 C 0.03144 0.47423 0.27164 0.0
C698 C 0.98813 0.49376 0.25481 0.0
C699 C 0.00903 0.48913 0.26832 0.0
C700 C 0.97649 0.50042 0.25353 0.0
C701 C 0.97343 0.50979 0.26375 0.0
C702 C 0.99679 0.49643 0.26643 0.0
C703 C 0.98243 0.51233 0.27512 0.0
C704 C 0.01746 0.49121 0.28023 0.0
C705 C 0.02289 0.47265 0.2598 0.0
N706 N 0.99367 0.50565 0.27618 0.0
N707 N 0.01207 0.47997 0.25849 0.0
H708 H 0.54254 0.94401 0.29887 0.0
H709 H 0.58639 0.01085 0.26849 0.0
H710 H 0.54351 0.95563 0.25489 0.0
H711 H 0.58891 0.99655 0.31172 0.0
H712 H 0.57239 0.98932 0.26294 0.0
H713 H 0.56117 0.96161 0.30343 0.0
C714 C 0.54678 0.95012 0.29013 0.0
C715 C 0.54132 0.94845 0.27649 0.0
C716 C 0.57612 0.99079 0.27361 0.0
C717 C 0.5626 0.96876 0.28167 0.0
C718 C 0.58412 0.00311 0.2768 0.0
C719 C 0.58872 0.00561 0.29063 0.0
C720 C 0.57255 0.98093 0.28435 0.0
C721 C 0.58553 0.99513 0.30092 0.0
C722 C 0.55743 0.96019 0.29275 0.0
C723 C 0.54731 0.95661 0.26559 0.0
N724 N 0.57751 0.98334 0.29761 0.0
N725 N 0.5575 0.96653 0.26844 0.0
H726 H 0.07512 0.6083 0.2805 0.0
H727 H 0.11684 0.54736 0.2545 0.0
H728 H 0.06747 0.58738 0.24108 0.0
H729 H 0.12591 0.56979 0.29287 0.0
H730 H 0.09926 0.56262 0.24896 0.0
H731 H 0.09442 0.59512 0.28472 0.0
C732 C 0.07755 0.60102 0.27268 0.0
C733 C 0.0696 0.59889 0.26045 0.0
C734 C 0.10513 0.56425 0.25856 0.0
C735 C 0.09163 0.58368 0.26527 0.0
C736 C 0.11516 0.55552 0.26174 0.0
C737 C 0.12282 0.55724 0.2742 0.0
C738 C 0.10269 0.57475 0.26794 0.0
C739 C 0.12023 0.56803 0.28317 0.0
C740 C 0.08856 0.59348 0.27511 0.0
C741 C 0.07326 0.58934 0.25068 0.0
N742 N 0.11035 0.57633 0.27989 0.0
N743 N 0.08395 0.58203 0.25334 0.0
H744 H 0.52351 0.94988 0.74945 0.0
H745 H 0.48835 0.0179 0.77019 0.0
H746 H 0.54211 0.98246 0.77614 0.0
H747 H 0.46904 0.9834 0.74639 0.0
H748 H 0.50859 0.00591 0.7713 0.0
H749 H 0.504 0.96288 0.74698 0.0
C750 C 0.52352 0.9598 0.75476 0.0
C751 C 0.53447 0.96504 0.76307 0.0
C752 C 0.49993 0.00098 0.76581 0.0
C753 C 0.51207 0.98001 0.7603 0.0
C754 C 0.48837 0.00783 0.76516 0.0
C755 C 0.47694 0.00162 0.75823 0.0
C756 C 0.50011 0.98785 0.75946 0.0
C757 C 0.47757 0.98856 0.75189 0.0
C758 C 0.51235 0.96722 0.75336 0.0
C759 C 0.53389 0.97799 0.76966 0.0
N760 N 0.48894 0.98212 0.75268 0.0
N761 N 0.52287 0.98501 0.76817 0.0
H762 H 0.05253 0.45699 0.77222 0.0
H763 H 0.0778 0.52084 0.82144 0.0
H764 H 0.0381 0.46224 0.81348 0.0
H765 H 0.09825 0.51125 0.78464 0.0
H766 H 0.06372 0.4988 0.81893 0.0
H767 H 0.06998 0.47604 0.77676 0.0
C768 C 0.05312 0.46201 0.78229 0.0
C769 C 0.04373 0.4581 0.79242 0.0
C770 C 0.07135 0.50142 0.81146 0.0
C771 C 0.06359 0.47997 0.79762 0.0
C772 C 0.07939 0.51404 0.81287 0.0
C773 C 0.08915 0.51795 0.80317 0.0
C774 C 0.07294 0.49268 0.80015 0.0
C775 C 0.09082 0.50865 0.79234 0.0
C776 C 0.06308 0.47289 0.78487 0.0
C777 C 0.04503 0.46496 0.8053 0.0
N778 N 0.08268 0.49651 0.79102 0.0
N779 N 0.05465 0.47564 0.80746 0.0
H780 H 0.60814 0.05642 0.76264 0.0
H781 H 0.56813 0.11283 0.79924 0.0
H782 H 0.62047 0.07559 0.80203 0.0
H783 H 0.55861 0.09743 0.75763 0.0
H784 H 0.58773 0.09984 0.80019 0.0
H785 H 0.59015 0.07169 0.76044 0.0
C786 C 0.60708 0.06385 0.77082 0.0
C787 C 0.61579 0.06468 0.78257 0.0
C788 C 0.58141 0.09939 0.7908 0.0
C789 C 0.59521 0.0822 0.78012 0.0
C790 C 0.57022 0.10683 0.79025 0.0
C791 C 0.56165 0.10616 0.77837 0.0
C792 C 0.58402 0.09114 0.77945 0.0
C793 C 0.5649 0.09823 0.76702 0.0
C794 C 0.59682 0.07261 0.76954 0.0
C795 C 0.61397 0.07456 0.79281 0.0
N796 N 0.57575 0.09094 0.76789 0.0
N797 N 0.60384 0.08288 0.79138 0.0
H798 H 0.98812 0.6301 0.77281 0.0
H799 H 0.92906 0.59551 0.81913 0.0
H800 H 0.97768 0.64719 0.81183 0.0
H801 H 0.93818 0.58017 0.77884 0.0
H802 H 0.94612 0.61516 0.8162 0.0
H803 H 0.96933 0.61224 0.77449 0.0
C804 C 0.98187 0.63012 0.78172 0.0
C805 C 0.98453 0.64013 0.79223 0.0
C806 C 0.94432 0.60755 0.80796 0.0
C807 C 0.96297 0.61967 0.79422 0.0
C808 C 0.93455 0.59633 0.80961 0.0
C809 C 0.93222 0.58611 0.79926 0.0
C810 C 0.95186 0.60852 0.79589 0.0
C811 C 0.93965 0.58775 0.78714 0.0
C812 C 0.97111 0.61993 0.78266 0.0
C813 C 0.97604 0.63967 0.8035 0.0
N814 N 0.94918 0.59867 0.78584 0.0
N815 N 0.96568 0.62957 0.80423 0.0
H816 H 0.27585 0.42937 0.0434 0.0
H817 H 0.25143 0.5051 0.05831 0.0
H818 H 0.25573 0.4541 0.01224 0.0
H819 H 0.27163 0.48006 0.08912 0.0
H820 H 0.25351 0.48699 0.04101 0.0
H821 H 0.27495 0.44825 0.06004 0.0
C822 C 0.27125 0.43878 0.04004 0.0
C823 C 0.26581 0.44012 0.0264 0.0
C824 C 0.25753 0.48549 0.05155 0.0
C825 C 0.26474 0.46182 0.04545 0.0
C826 C 0.25635 0.49583 0.06143 0.0
C827 C 0.26133 0.49408 0.07521 0.0
C828 C 0.26371 0.4733 0.05548 0.0
C829 C 0.26761 0.48186 0.07864 0.0
C830 C 0.27074 0.44957 0.04956 0.0
C831 C 0.26002 0.45258 0.02265 0.0
N832 N 0.26859 0.47194 0.06887 0.0
N833 N 0.2596 0.46293 0.03213 0.0
H834 H 0.22449 0.61208 0.99975 0.0
H835 H 0.25388 0.54491 0.96837 0.0
H836 H 0.25701 0.59167 0.01892 0.0
H837 H 0.21941 0.56286 0.95055 0.0
H838 H 0.2561 0.56318 0.98589 0.0
H839 H 0.22332 0.59525 0.98074 0.0
C840 C 0.2314 0.60409 0.99996 0.0
C841 C 0.24083 0.60326 0.01099 0.0
C842 C 0.24808 0.56318 0.97813 0.0
C843 C 0.23955 0.58399 0.98923 0.0
C844 C 0.2468 0.55274 0.96807 0.0
C845 C 0.23638 0.55228 0.95799 0.0
C846 C 0.23887 0.57326 0.97816 0.0
C847 C 0.22757 0.56277 0.95814 0.0
C848 C 0.23072 0.59448 0.98909 0.0
C849 C 0.24954 0.59269 0.01067 0.0
N850 N 0.22898 0.5728 0.96811 0.0
N851 N 0.24868 0.58347 0.99999 0.0
H852 H 0.44832 0.2785 0.96681 0.0
H853 H 0.52666 0.28361 0.95876 0.0
H854 H 0.47638 0.28526 0.00154 0.0
H855 H 0.49835 0.27721 0.9242 0.0
H856 H 0.50846 0.28422 0.97463 0.0
H857 H 0.46658 0.27797 0.9511 0.0
C858 C 0.45832 0.27988 0.97115 0.0
C859 C 0.4608 0.28193 0.98554 0.0
C860 C 0.50623 0.28269 0.96357 0.0
C861 C 0.48182 0.28133 0.96755 0.0
C862 C 0.51662 0.28233 0.9545 0.0
C863 C 0.51404 0.28035 0.94011 0.0
C864 C 0.49314 0.28104 0.95824 0.0
C865 C 0.50082 0.27876 0.9352 0.0
C866 C 0.46876 0.27957 0.96215 0.0
C867 C 0.47399 0.28365 0.99053 0.0
N868 N 0.49089 0.27914 0.94424 0.0
N869 N 0.484 0.28331 0.98155 0.0
H870 H 0.75722 0.5526 0.95973 0.0
H871 H 0.77552 0.47287 0.97041 0.0
H872 H 0.78703 0.53485 0.93659 0.0
H873 H 0.74887 0.49212 0.99649 0.0
H874 H 0.77816 0.4947 0.95629 0.0
H875 H 0.75229 0.52972 0.97153 0.0
C876 C 0.76266 0.54387 0.95704 0.0
C877 C 0.77263 0.5457 0.94721 0.0
C878 C 0.77169 0.49413 0.96507 0.0
C879 C 0.76705 0.51945 0.96078 0.0
C880 C 0.77017 0.48166 0.97314 0.0
C881 C 0.76203 0.48069 0.98472 0.0
C882 C 0.76501 0.50574 0.96857 0.0
C883 C 0.75531 0.49242 0.98771 0.0
C884 C 0.75986 0.5308 0.96382 0.0
C885 C 0.77931 0.53396 0.94414 0.0
N886 N 0.75699 0.50447 0.97972 0.0
N887 N 0.77645 0.52136 0.95095 0.0
H888 H 0.57168 0.77927 0.95671 0.0
H889 H 0.63278 0.81548 0.0016 0.0
H890 H 0.58777 0.82262 0.95066 0.0
H891 H 0.61413 0.77356 0.01018 0.0
H892 H 0.61917 0.81668 0.98007 0.0
H893 H 0.58992 0.77549 0.97327 0.0
C894 C 0.57915 0.78795 0.95869 0.0
C895 C 0.57806 0.80136 0.95244 0.0
C896 C 0.61817 0.80715 0.98658 0.0
C897 C 0.59893 0.79711 0.97152 0.0
C898 C 0.62596 0.80644 0.99887 0.0
C899 C 0.62446 0.79448 0.00784 0.0
C900 C 0.60878 0.79584 0.98322 0.0
C901 C 0.61552 0.78307 0.00368 0.0
C902 C 0.58956 0.78578 0.96819 0.0
C903 C 0.58811 0.81215 0.95535 0.0
N904 N 0.60792 0.78409 0.99177 0.0
N905 N 0.59803 0.80984 0.96481 0.0
H906 H 0.78736 0.55704 0.06989 0.0
H907 H 0.76086 0.63384 0.06798 0.0
H908 H 0.75805 0.5695 0.09735 0.0
H909 H 0.78822 0.62104 0.03846 0.0
H910 H 0.75977 0.61022 0.0788 0.0
H911 H 0.78788 0.58032 0.05815 0.0
C912 C 0.78102 0.56465 0.07344 0.0
C913 C 0.77267 0.56131 0.08465 0.0
C914 C 0.766 0.61255 0.06993 0.0
C915 C 0.77324 0.58796 0.07128 0.0
C916 C 0.76663 0.62606 0.06375 0.0
C917 C 0.77467 0.62945 0.0523 0.0
C918 C 0.77349 0.60233 0.06469 0.0
C919 C 0.7819 0.6189 0.04727 0.0
C920 C 0.78132 0.57793 0.06672 0.0
C921 C 0.76466 0.57158 0.08877 0.0
N922 N 0.78117 0.60583 0.05352 0.0
N923 N 0.76517 0.58443 0.08212 0.0
H924 H 0.42058 0.75517 0.09002 0.0
H925 H 0.48833 0.80224 0.07542 0.0
H926 H 0.44306 0.7525 0.05301 0.0
H927 H 0.47072 0.7988 0.11591 0.0
H928 H 0.46986 0.78679 0.06591 0.0
H929 H 0.43708 0.77368 0.09863 0.0
C930 C 0.42885 0.75866 0.08358 0.0
C931 C 0.43023 0.75254 0.07058 0.0
C932 C 0.46999 0.78946 0.07686 0.0
C933 C 0.44919 0.77358 0.0804 0.0
C934 C 0.48053 0.79832 0.08231 0.0
C935 C 0.48115 0.80173 0.09653 0.0
C936 C 0.45993 0.78397 0.08566 0.0
C937 C 0.47069 0.79638 0.10491 0.0
C938 C 0.43827 0.76919 0.08851 0.0
C939 C 0.44122 0.75732 0.06275 0.0
N940 N 0.46054 0.7877 0.09936 0.0
N941 N 0.45028 0.76752 0.0678 0.0
H942 H 0.60628 0.27764 0.05933 0.0
H943 H 0.56203 0.32208 0.10487 0.0
H944 H 0.60712 0.32315 0.05657 0.0
H945 H 0.56424 0.27713 0.11065 0.0
H946 H 0.58037 0.32305 0.08908 0.0
H947 H 0.59284 0.27755 0.07993 0.0
C948 C 0.60378 0.28764 0.06315 0.0
C949 C 0.60769 0.30041 0.05608 0.0
C950 C 0.57696 0.31299 0.09393 0.0
C951 C 0.59218 0.30037 0.07963 0.0
C952 C 0.56647 0.31243 0.10296 0.0
C953 C 0.56146 0.29946 0.10896 0.0
C954 C 0.58242 0.30048 0.09075 0.0
C955 C 0.5677 0.28734 0.10618 0.0
C956 C 0.59609 0.28758 0.07493 0.0
C957 C 0.60424 0.31304 0.0616 0.0
N958 N 0.57774 0.28812 0.09714 0.0
N959 N 0.59654 0.31268 0.07293 0.0
H960 H 0.98739 0.81218 0.58772 0.0
H961 H 0.91348 0.77524 0.58198 0.0
H962 H 0.972 0.77917 0.61624 0.0
H963 H 0.93144 0.80164 0.54917 0.0
H964 H 0.93389 0.77907 0.59626 0.0
H965 H 0.96602 0.81085 0.57508 0.0
C966 C 0.97949 0.80473 0.59141 0.0
C967 C 0.98153 0.7957 0.60302 0.0
C968 C 0.93338 0.78401 0.58592 0.0
C969 C 0.95703 0.79412 0.58855 0.0
C970 C 0.92173 0.78188 0.57779 0.0
C971 C 0.92089 0.78786 0.56423 0.0
C972 C 0.94424 0.79234 0.58053 0.0
C973 C 0.93182 0.79643 0.55936 0.0
C974 C 0.9673 0.80395 0.58415 0.0
C975 C 0.9709 0.78628 0.60731 0.0
N976 N 0.94307 0.79839 0.56749 0.0
N977 N 0.95913 0.7857 0.60005 0.0
H978 H 0.27427 0.92254 0.56284 0.0
H979 H 0.2557 0.99553 0.59298 0.0
H980 H 0.2552 0.95359 0.53768 0.0
H981 H 0.27809 0.96589 0.6164 0.0
H982 H 0.25599 0.98093 0.57235 0.0
H983 H 0.27595 0.9386 0.58248 0.0
C984 C 0.27051 0.9328 0.56143 0.0
C985 C 0.26481 0.93684 0.54853 0.0
C986 C 0.26097 0.97772 0.58196 0.0
C987 C 0.2666 0.95529 0.57101 0.0
C988 C 0.26096 0.98617 0.59372 0.0
C989 C 0.26707 0.98207 0.6064 0.0
C990 C 0.26704 0.96503 0.58294 0.0
C991 C 0.27325 0.96947 0.60684 0.0
C992 C 0.27151 0.94199 0.57263 0.0
C993 C 0.26005 0.95022 0.54729 0.0
N994 N 0.27304 0.9614 0.59532 0.0
N995 N 0.26101 0.95896 0.5584 0.0
H996 H 0.07155 0.30505 0.65893 0.0
H997 H 0.07004 0.27627 0.58078 0.0
H998 H 0.0417 0.27411 0.64238 0.0
H999 H 0.10019 0.3073 0.5968 0.0
H1000 H 0.05983 0.27509 0.60349 0.0
H1001 H 0.08253 0.30575 0.63651 0.0
C1002 C 0.06726 0.29848 0.65053 0.0
C1003 C 0.05548 0.28981 0.65238 0.0
C1004 C 0.0687 0.28214 0.60208 0.0
C1005 C 0.06803 0.29043 0.62677 0.0
C1006 C 0.07456 0.28281 0.58909 0.0
C1007 C 0.08599 0.29193 0.58685 0.0
C1008 C 0.07427 0.29065 0.61296 0.0
C1009 C 0.09138 0.30013 0.59804 0.0
C1010 C 0.07352 0.29888 0.63775 0.0
C1011 C 0.05042 0.28139 0.64124 0.0
N1012 N 0.08545 0.29932 0.6106 0.0
N1013 N 0.05671 0.28193 0.62892 0.0
H1014 H 0.7825 0.07704 0.63018 0.0
H1015 H 0.76075 0.1192 0.5609 0.0
H1016 H 0.76079 0.05695 0.59534 0.0
H1017 H 0.78722 0.13761 0.59316 0.0
H1018 H 0.76063 0.09632 0.57319 0.0
H1019 H 0.78416 0.09936 0.61679 0.0
C1020 C 0.77817 0.0773 0.61965 0.0
C1021 C 0.77166 0.06505 0.6138 0.0
C1022 C 0.76658 0.10532 0.5775 0.0
C1023 C 0.7734 0.09064 0.59842 0.0
C1024 C 0.7668 0.11838 0.57037 0.0
C1025 C 0.7743 0.13028 0.57579 0.0
C1026 C 0.77378 0.10419 0.59025 0.0
C1027 C 0.78136 0.1287 0.58856 0.0
C1028 C 0.77914 0.09005 0.612 0.0
C1029 C 0.7662 0.06602 0.60013 0.0
N1030 N 0.78092 0.11592 0.59535 0.0
N1031 N 0.76714 0.07861 0.59293 0.0
H1032 H 0.94271 0.25648 0.47139 0.0
H1033 H 0.98766 0.30825 0.42214 0.0
H1034 H 0.94243 0.3019 0.47012 0.0
H1035 H 0.9889 0.26296 0.42431 0.0
H1036 H 0.96807 0.30568 0.43626 0.0
H1037 H 0.95646 0.25824 0.45091 0.0
C1038 C 0.94536 0.26681 0.46668 0.0
C1039 C 0.9416 0.27909 0.47265 0.0
C1040 C 0.97251 0.29628 0.43349 0.0
C1041 C 0.95745 0.28118 0.44926 0.0
C1042 C 0.9837 0.29774 0.42539 0.0
C1043 C 0.99009 0.28582 0.42224 0.0
C1044 C 0.96771 0.28282 0.43855 0.0
C1045 C 0.98441 0.27246 0.42663 0.0
C1046 C 0.95324 0.26781 0.45499 0.0
C1047 C 0.94523 0.29216 0.466 0.0
N1048 N 0.97366 0.27134 0.43474 0.0
N1049 N 0.95311 0.29288 0.45479 0.0
H1050 H 0.72662 0.95031 0.43693 0.0
H1051 H 0.77842 0.90615 0.47982 0.0
H1052 H 0.76627 0.96734 0.44836 0.0
H1053 H 0.74248 0.88686 0.46043 0.0
H1054 H 0.77374 0.92893 0.46915 0.0
H1055 H 0.73189 0.9271 0.44601 0.0
C1056 C 0.73645 0.94916 0.44126 0.0
C1057 C 0.746 0.96081 0.44191 0.0
C1058 C 0.76687 0.91972 0.46722 0.0
C1059 C 0.75205 0.93432 0.45244 0.0
C1060 C 0.76946 0.90676 0.47345 0.0
C1061 C 0.76067 0.89471 0.47125 0.0
C1062 C 0.75537 0.92062 0.45876 0.0
C1063 C 0.74947 0.89595 0.46244 0.0
C1064 C 0.73945 0.93591 0.44643 0.0
C1065 C 0.75859 0.95867 0.44763 0.0
N1066 N 0.74708 0.9087 0.45661 0.0
N1067 N 0.76121 0.94573 0.45276 0.0
H1068 H 0.07214 0.75358 0.39658 0.0
H1069 H 0.08088 0.79249 0.47014 0.0
H1070 H 0.0446 0.78084 0.41177 0.0
H1071 H 0.10748 0.76309 0.45689 0.0
H1072 H 0.06822 0.78925 0.44813 0.0
H1073 H 0.08595 0.7578 0.41792 0.0
C1074 C 0.06896 0.76037 0.40445 0.0
C1075 C 0.05702 0.76654 0.4026 0.0
C1076 C 0.07684 0.78353 0.44999 0.0
C1077 C 0.07279 0.77155 0.42691 0.0
C1078 C 0.08411 0.78539 0.46257 0.0
C1079 C 0.09524 0.778 0.46541 0.0
C1080 C 0.08069 0.77419 0.44012 0.0
C1081 C 0.09895 0.76898 0.45516 0.0
C1082 C 0.07683 0.76278 0.41662 0.0
C1083 C 0.05344 0.7754 0.41302 0.0
N1084 N 0.09166 0.76729 0.44298 0.0
N1085 N 0.06127 0.77762 0.42472 0.0
H1086 H 0.28152 0.1447 0.44802 0.0
H1087 H 0.24148 0.16974 0.51171 0.0
H1088 H 0.24878 0.11963 0.46655 0.0
H1089 H 0.2709 0.19717 0.49047 0.0
H1090 H 0.24366 0.15152 0.49466 0.0
H1091 H 0.27733 0.16445 0.46265 0.0
C1092 C 0.27337 0.14339 0.45505 0.0
C1093 C 0.26556 0.13044 0.45613 0.0
C1094 C 0.24964 0.16152 0.49368 0.0
C1095 C 0.26078 0.15293 0.47296 0.0
C1096 C 0.24851 0.17185 0.50353 0.0
C1097 C 0.25629 0.1848 0.50271 0.0
C1098 C 0.25867 0.16413 0.48294 0.0
C1099 C 0.26481 0.18725 0.49152 0.0
C1100 C 0.271 0.15466 0.46341 0.0
C1101 C 0.25512 0.12936 0.4654 0.0
N1102 N 0.26589 0.17695 0.48214 0.0
N1103 N 0.25312 0.1404 0.47353 0.0
H1104 H 0.64088 0.00895 0.77044 0.0
H1105 H 0.61631 0.93246 0.80184 0.0
H1106 H 0.66232 0.98662 0.8024 0.0
H1107 H 0.59424 0.95423 0.76999 0.0
H1108 H 0.63246 0.95305 0.80323 0.0
H1109 H 0.62291 0.98997 0.77118 0.0
C1110 C 0.64169 0.00023 0.77784 0.0
C1111 C 0.65302 0.99951 0.78657 0.0
C1112 C 0.62402 0.95343 0.79604 0.0
C1113 C 0.63265 0.97753 0.78718 0.0
C1114 C 0.61478 0.94166 0.79524 0.0
C1115 C 0.60382 0.94168 0.7859 0.0
C1116 C 0.62241 0.96531 0.78729 0.0
C1117 C 0.60235 0.95388 0.77759 0.0
C1118 C 0.63148 0.98931 0.77814 0.0
C1119 C 0.65376 0.98762 0.7955 0.0
N1120 N 0.6116 0.96518 0.77841 0.0
N1121 N 0.64374 0.97712 0.79556 0.0
H1122 H 0.03758 0.65973 0.79705 0.0
H1123 H 0.09768 0.61133 0.79496 0.0
H1124 H 0.07337 0.67243 0.77549 0.0
H1125 H 0.05996 0.59753 0.8123 0.0
H1126 H 0.08942 0.63409 0.78843 0.0
H1127 H 0.04592 0.63708 0.80315 0.0
C1128 C 0.04704 0.65762 0.79327 0.0
C1129 C 0.05458 0.66782 0.78534 0.0
C1130 C 0.08297 0.62607 0.79367 0.0
C1131 C 0.06452 0.64206 0.79283 0.0
C1132 C 0.08769 0.61309 0.79744 0.0
C1133 C 0.0795 0.60249 0.80418 0.0
C1134 C 0.06999 0.62848 0.79672 0.0
C1135 C 0.06663 0.60536 0.8071 0.0
C1136 C 0.05192 0.64474 0.79695 0.0
C1137 C 0.06717 0.66479 0.78149 0.0
N1138 N 0.06229 0.61805 0.80336 0.0
N1139 N 0.07174 0.65218 0.78525 0.0
H1140 H 0.47555 0.10352 0.76606 0.0
H1141 H 0.43767 0.03208 0.73674 0.0
H1142 H 0.49282 0.07558 0.73862 0.0
H1143 H 0.41973 0.06068 0.7628 0.0
H1144 H 0.45765 0.04848 0.73642 0.0
H1145 H 0.45461 0.08871 0.76396 0.0
C1146 C 0.47492 0.09434 0.75951 0.0
C1147 C 0.48599 0.09074 0.75259 0.0
C1148 C 0.44935 0.05119 0.74221 0.0
C1149 C 0.46208 0.0737 0.75019 0.0
C1150 C 0.43801 0.04173 0.74254 0.0
C1151 C 0.4272 0.04483 0.75016 0.0
C1152 C 0.44987 0.06387 0.74953 0.0
C1153 C 0.42791 0.05783 0.75689 0.0
C1154 C 0.46296 0.08588 0.75832 0.0
C1155 C 0.48458 0.07874 0.74421 0.0
N1156 N 0.4391 0.06682 0.75653 0.0
N1157 N 0.47288 0.07061 0.74333 0.0
H1158 H 0.96212 0.44884 0.78297 0.0
H1159 H 0.92283 0.49772 0.82954 0.0
H1160 H 0.96478 0.44892 0.82817 0.0
H1161 H 0.92053 0.49812 0.78432 0.0
H1162 H 0.93504 0.47683 0.82934 0.0
H1163 H 0.94386 0.46371 0.78337 0.0
C1164 C 0.95873 0.45179 0.79299 0.0
C1165 C 0.96515 0.44782 0.80555 0.0
C1166 C 0.93171 0.48137 0.81946 0.0
C1167 C 0.94432 0.46497 0.80608 0.0
C1168 C 0.92471 0.4933 0.81957 0.0
C1169 C 0.92084 0.49985 0.80692 0.0
C1170 C 0.93495 0.47598 0.80661 0.0
C1171 C 0.92346 0.49355 0.79433 0.0
C1172 C 0.94831 0.46032 0.79321 0.0
C1173 C 0.96025 0.45187 0.81822 0.0
N1174 N 0.93051 0.48209 0.79449 0.0
N1175 N 0.95026 0.46038 0.81815 0.0
H1176 H 0.60199 0.10124 0.29365 0.0
H1177 H 0.54555 0.15051 0.26822 0.0
H1178 H 0.56598 0.08613 0.27132 0.0
H1179 H 0.58165 0.16638 0.28981 0.0
H1180 H 0.55304 0.12685 0.26922 0.0
H1181 H 0.59496 0.12521 0.29225 0.0
C1182 C 0.59263 0.10295 0.28844 0.0
C1183 C 0.58456 0.09164 0.28261 0.0
C1184 C 0.55932 0.13548 0.27381 0.0
C1185 C 0.57645 0.11902 0.28099 0.0
C1186 C 0.55496 0.14897 0.2734 0.0
C1187 C 0.56282 0.16034 0.27931 0.0
C1188 C 0.57168 0.13333 0.28012 0.0
C1189 C 0.57524 0.15786 0.28523 0.0
C1190 C 0.58862 0.11664 0.28764 0.0
C1191 C 0.57253 0.0945 0.27598 0.0
N1192 N 0.57926 0.1446 0.28557 0.0
N1193 N 0.56884 0.10787 0.27538 0.0
H1194 H 0.99166 0.58455 0.22926 0.0
H1195 H 0.91877 0.57211 0.25849 0.0
H1196 H 0.97805 0.60914 0.2622 0.0
H1197 H 0.9361 0.54199 0.23366 0.0
H1198 H 0.93917 0.58792 0.25709 0.0
H1199 H 0.97007 0.57102 0.22794 0.0
C1200 C 0.9841 0.58721 0.23613 0.0
C1201 C 0.98672 0.59794 0.24595 0.0
C1202 C 0.93851 0.57785 0.25196 0.0
C1203 C 0.96196 0.58243 0.24448 0.0
C1204 C 0.92687 0.56886 0.2527 0.0
C1205 C 0.92591 0.5556 0.24646 0.0
C1206 C 0.94916 0.57361 0.24474 0.0
C1207 C 0.93662 0.55192 0.23902 0.0
C1208 C 0.97178 0.57943 0.2354 0.0
C1209 C 0.9765 0.60091 0.25455 0.0
N1210 N 0.94782 0.56087 0.23839 0.0
N1211 N 0.96459 0.59316 0.25365 0.0
H1212 H 0.46111 0.94265 0.27207 0.0
H1213 H 0.42446 0.9909 0.3219 0.0
H1214 H 0.46429 0.94045 0.31725 0.0
H1215 H 0.42197 0.99393 0.27673 0.0
H1216 H 0.43571 0.96947 0.32037 0.0
H1217 H 0.44359 0.95835 0.27356 0.0
C1218 C 0.45799 0.94528 0.28231 0.0
C1219 C 0.46435 0.94041 0.29456 0.0
C1220 C 0.43254 0.9747 0.31078 0.0
C1221 C 0.44435 0.95849 0.29633 0.0
C1222 C 0.42608 0.98695 0.31165 0.0
C1223 C 0.42246 0.99438 0.29942 0.0
C1224 C 0.43548 0.96989 0.29759 0.0
C1225 C 0.42473 0.98865 0.28644 0.0
C1226 C 0.44799 0.95428 0.28315 0.0
C1227 C 0.4598 0.94409 0.30753 0.0
N1228 N 0.43126 0.97687 0.28586 0.0
N1229 N 0.45021 0.95306 0.30807 0.0
H1230 H 0.14872 0.48683 0.31595 0.0
H1231 H 0.10705 0.43878 0.26269 0.0
H1232 H 0.14973 0.49725 0.27177 0.0
H1233 H 0.08901 0.45046 0.30023 0.0
H1234 H 0.12488 0.45766 0.26666 0.0
H1235 H 0.12866 0.47079 0.31151 0.0
C1236 C 0.14464 0.48581 0.30535 0.0
C1237 C 0.15076 0.49341 0.29421 0.0
C1238 C 0.11693 0.45616 0.27393 0.0
C1239 C 0.12821 0.47496 0.28906 0.0
C1240 C 0.10683 0.4454 0.27171 0.0
C1241 C 0.09657 0.44318 0.28112 0.0
C1242 C 0.11699 0.46439 0.28589 0.0
C1243 C 0.0967 0.45198 0.29268 0.0
C1244 C 0.13322 0.47675 0.30285 0.0
C1245 C 0.14517 0.4917 0.28065 0.0
N1246 N 0.10691 0.4621 0.29489 0.0
N1247 N 0.13431 0.48247 0.27841 0.0
H1248 H 0.75725 0.67403 0.02138 0.0
H1249 H 0.78398 0.63995 0.95354 0.0
H1250 H 0.78571 0.69637 0.99454 0.0
H1251 H 0.75343 0.61948 0.97918 0.0
H1252 H 0.78457 0.66094 0.96796 0.0
H1253 H 0.75563 0.65404 0.00573 0.0
C1254 C 0.76331 0.67463 0.01228 0.0
C1255 C 0.77191 0.68667 0.00945 0.0
C1256 C 0.77769 0.65187 0.97037 0.0
C1257 C 0.76985 0.664 0.99122 0.0
C1258 C 0.77735 0.63989 0.96213 0.0
C1259 C 0.76869 0.62791 0.96519 0.0
C1260 C 0.76935 0.65183 0.98175 0.0
C1261 C 0.76031 0.62844 0.97645 0.0
C1262 C 0.76226 0.66328 0.00324 0.0
C1263 C 0.77904 0.68719 0.99714 0.0
N1264 N 0.7609 0.64015 0.98434 0.0
N1265 N 0.77794 0.67596 0.98852 0.0
H1266 H 0.78795 0.49242 0.09938 0.0
H1267 H 0.74664 0.444 0.04388 0.0
H1268 H 0.74827 0.47484 0.1073 0.0
H1269 H 0.7864 0.43589 0.05635 0.0
H1270 H 0.74728 0.4619 0.06207 0.0
H1271 H 0.78758 0.47802 0.07826 0.0
C1272 C 0.7791 0.48575 0.0965 0.0
C1273 C 0.76813 0.48472 0.10502 0.0
C1274 C 0.7559 0.45632 0.06063 0.0
C1275 C 0.76757 0.46863 0.081 0.0
C1276 C 0.75558 0.4462 0.05026 0.0
C1277 C 0.76649 0.43851 0.04869 0.0
C1278 C 0.76733 0.45898 0.06916 0.0
C1279 C 0.77778 0.44159 0.05733 0.0
C1280 C 0.77892 0.47753 0.08456 0.0
C1281 C 0.75693 0.47584 0.10099 0.0
N1282 N 0.77795 0.45166 0.06719 0.0
N1283 N 0.75689 0.46816 0.0892 0.0
H1284 H 0.60996 0.82923 0.07449 0.0
H1285 H 0.56105 0.7995 0.13419 0.0
H1286 H 0.61152 0.78829 0.09492 0.0
H1287 H 0.55529 0.83615 0.10774 0.0
H1288 H 0.58222 0.79771 0.1234 0.0
H1289 H 0.59274 0.83429 0.09016 0.0
C1290 C 0.60682 0.82136 0.08239 0.0
C1291 C 0.61207 0.80822 0.08324 0.0
C1292 C 0.57638 0.80624 0.12009 0.0
C1293 C 0.59227 0.81394 0.10119 0.0
C1294 C 0.56432 0.80731 0.12628 0.0
C1295 C 0.55629 0.81789 0.12174 0.0
C1296 C 0.58048 0.81586 0.10935 0.0
C1297 C 0.56106 0.82772 0.11146 0.0
C1298 C 0.59695 0.82425 0.09132 0.0
C1299 C 0.60766 0.7985 0.09379 0.0
N1300 N 0.57279 0.8264 0.10555 0.0
N1301 N 0.59791 0.8015 0.10226 0.0
H1302 H 0.23328 0.56812 0.13498 0.0
H1303 H 0.2607 0.6166 0.07062 0.0
H1304 H 0.25795 0.55329 0.10387 0.0
H1305 H 0.2365 0.63079 0.10248 0.0
H1306 H 0.25889 0.59296 0.08166 0.0
H1307 H 0.23366 0.59082 0.12245 0.0
C1308 C 0.23873 0.5696 0.12545 0.0
C1309 C 0.24545 0.55869 0.12038 0.0
C1310 C 0.25386 0.60121 0.08614 0.0
C1311 C 0.24598 0.58479 0.10594 0.0
C1312 C 0.25475 0.61467 0.07973 0.0
C1313 C 0.2485 0.62561 0.08546 0.0
C1314 C 0.24674 0.59872 0.09842 0.0
C1315 C 0.24143 0.62265 0.09768 0.0
C1316 C 0.23892 0.58258 0.11827 0.0
C1317 C 0.25234 0.56124 0.10797 0.0
N1318 N 0.24075 0.60952 0.10373 0.0
N1319 N 0.25246 0.57405 0.10119 0.0
H1320 H 0.42014 0.28252 0.074 0.0
H1321 H 0.49428 0.31912 0.07544 0.0
H1322 H 0.43872 0.30298 0.03804 0.0
H1323 H 0.47666 0.29666 0.11098 0.0
H1324 H 0.47349 0.3147 0.0621 0.0
H1325 H 0.44015 0.28912 0.08822 0.0
C1326 C 0.42845 0.2884 0.0691 0.0
C1327 C 0.42791 0.29188 0.05473 0.0
C1328 C 0.47413 0.31078 0.07283 0.0
C1329 C 0.45081 0.29951 0.07093 0.0
C1330 C 0.48602 0.31331 0.08048 0.0
C1331 C 0.48725 0.30818 0.09435 0.0
C1332 C 0.46336 0.30305 0.07906 0.0
C1333 C 0.47617 0.30077 0.10031 0.0
C1334 C 0.43987 0.29213 0.07721 0.0
C1335 C 0.4389 0.29959 0.04893 0.0
N1336 N 0.4647 0.29838 0.09261 0.0
N1337 N 0.44991 0.3031 0.05704 0.0
H1338 H 0.2831 0.41137 0.98575 0.0
H1339 H 0.24272 0.46177 0.9351 0.0
H1340 H 0.25429 0.39572 0.95432 0.0
H1341 H 0.27209 0.47703 0.96624 0.0
H1342 H 0.24746 0.43753 0.94116 0.0
H1343 H 0.27983 0.43555 0.97801 0.0
C1344 C 0.27596 0.41305 0.97733 0.0
C1345 C 0.26867 0.40158 0.97093 0.0
C1346 C 0.25291 0.44619 0.94661 0.0
C1347 C 0.26508 0.42919 0.96176 0.0
C1348 C 0.25021 0.46004 0.94315 0.0
C1349 C 0.25697 0.47145 0.95021 0.0
C1350 C 0.26242 0.44375 0.95723 0.0
C1351 C 0.26659 0.46857 0.96054 0.0
C1352 C 0.2742 0.42685 0.9728 0.0
C1353 C 0.26002 0.40431 0.95961 0.0
N1354 N 0.26898 0.45502 0.96378 0.0
N1355 N 0.25837 0.41785 0.95546 0.0
H1356 H 0.61555 0.29006 0.96541 0.0
H1357 H 0.55439 0.26428 0.91417 0.0
H1358 H 0.57878 0.26935 0.97982 0.0
H1359 H 0.58977 0.28822 0.90013 0.0
H1360 H 0.56332 0.26554 0.93824 0.0
H1361 H 0.60657 0.28878 0.94133 0.0
C1362 C 0.6056 0.28521 0.96351 0.0
C1363 C 0.5979 0.27982 0.97466 0.0
C1364 C 0.5691 0.27062 0.92991 0.0
C1365 C 0.58755 0.27833 0.94711 0.0
C1366 C 0.56391 0.27008 0.91618 0.0
C1367 C 0.57118 0.27652 0.90518 0.0
C1368 C 0.58171 0.27754 0.93265 0.0
C1369 C 0.58379 0.2832 0.90833 0.0
C1370 C 0.60047 0.28451 0.94976 0.0
C1371 C 0.58507 0.27366 0.97157 0.0
N1372 N 0.58864 0.28357 0.92177 0.0
N1373 N 0.58031 0.27309 0.9581 0.0
H1374 H 0.49747 0.80159 0.95798 0.0
H1375 H 0.44365 0.73989 0.98252 0.0
H1376 H 0.49254 0.76008 0.94016 0.0
H1377 H 0.45251 0.77908 0.00424 0.0
H1378 H 0.4591 0.74855 0.96461 0.0
H1379 H 0.47852 0.79496 0.97251 0.0
C1380 C 0.4923 0.79114 0.95697 0.0
C1381 C 0.49671 0.78131 0.94795 0.0
C1382 C 0.4576 0.7553 0.97324 0.0
C1383 C 0.47506 0.77364 0.96463 0.0
C1384 C 0.44876 0.75037 0.98348 0.0
C1385 C 0.44687 0.75871 0.995 0.0
C1386 C 0.4646 0.76868 0.9745 0.0
C1387 C 0.45373 0.77223 0.99562 0.0
C1388 C 0.48151 0.78735 0.96532 0.0
C1389 C 0.48958 0.76796 0.94706 0.0
N1390 N 0.46235 0.77676 0.98557 0.0
N1391 N 0.47919 0.76448 0.95538 0.0
H1392 H 0.05784 0.31606 0.35856 0.0
H1393 H 0.05083 0.38959 0.31736 0.0
H1394 H 0.03728 0.34959 0.37447 0.0
H1395 H 0.07616 0.3587 0.30463 0.0
H1396 H 0.04531 0.37485 0.33806 0.0
H1397 H 0.06421 0.33126 0.33842 0.0
C1398 C 0.05468 0.32662 0.35783 0.0
C1399 C 0.04699 0.33155 0.36822 0.0
C1400 C 0.05211 0.37131 0.33076 0.0
C1401 C 0.05422 0.349 0.34515 0.0
C1402 C 0.05526 0.37972 0.31893 0.0
C1403 C 0.06396 0.37536 0.30923 0.0
C1404 C 0.05764 0.35839 0.33289 0.0
C1405 C 0.06941 0.36248 0.31183 0.0
C1406 C 0.05834 0.33531 0.34634 0.0
C1407 C 0.04321 0.34535 0.36673 0.0
N1408 N 0.06612 0.35442 0.32338 0.0
N1409 N 0.04681 0.35357 0.35539 0.0
H1410 H 0.70658 0.02616 0.3785 0.0
H1411 H 0.62957 0.03303 0.36304 0.0
H1412 H 0.67682 0.01639 0.40917 0.0
H1413 H 0.65847 0.03697 0.33094 0.0
H1414 H 0.64693 0.02806 0.38033 0.0
H1415 H 0.68927 0.03126 0.36117 0.0
C1416 C 0.69641 0.02509 0.3816 0.0
C1417 C 0.69315 0.02083 0.39532 0.0
C1418 C 0.64948 0.03 0.36951 0.0
C1419 C 0.67328 0.0267 0.37552 0.0
C1420 C 0.63957 0.03287 0.35962 0.0
C1421 C 0.64256 0.03541 0.3455 0.0
C1422 C 0.66251 0.02974 0.36528 0.0
C1423 C 0.65571 0.03505 0.3417 0.0
C1424 C 0.68653 0.02798 0.37169 0.0
C1425 C 0.67979 0.01961 0.39872 0.0
N1426 N 0.66519 0.03229 0.35153 0.0
N1427 N 0.67036 0.02256 0.3889 0.0
H1428 H 0.02572 0.65088 0.30915 0.0
H1429 H 0.05372 0.73184 0.31878 0.0
H1430 H 0.04734 0.67582 0.27766 0.0
H1431 H 0.02717 0.70888 0.34735 0.0
H1432 H 0.05296 0.71083 0.3045 0.0
H1433 H 0.02751 0.67148 0.32412 0.0
C1434 C 0.03086 0.66068 0.30539 0.0
C1435 C 0.03636 0.66163 0.29211 0.0
C1436 C 0.04732 0.71037 0.31391 0.0
C1437 C 0.03848 0.68524 0.30923 0.0
C1438 C 0.04778 0.72236 0.3221 0.0
C1439 C 0.04047 0.72214 0.33427 0.0
C1440 C 0.03953 0.69804 0.31793 0.0
C1441 C 0.03294 0.70955 0.33803 0.0
C1442 C 0.03186 0.67244 0.31394 0.0
C1443 C 0.04291 0.6746 0.28779 0.0
N1444 N 0.03266 0.69801 0.32989 0.0
N1445 N 0.04379 0.68589 0.29633 0.0
H1446 H 0.36937 0.08686 0.3239 0.0
H1447 H 0.31363 0.05832 0.37524 0.0
H1448 H 0.36662 0.04357 0.33919 0.0
H1449 H 0.33501 0.0992 0.38147 0.0
H1450 H 0.32974 0.0532 0.35805 0.0
H1451 H 0.35347 0.09217 0.34127 0.0
C1452 C 0.36538 0.07848 0.33088 0.0
C1453 C 0.36931 0.06477 0.33018 0.0
C1454 C 0.33085 0.06328 0.36319 0.0
C1455 C 0.35103 0.0707 0.34971 0.0
C1456 C 0.32166 0.06624 0.37291 0.0
C1457 C 0.32304 0.07919 0.37977 0.0
C1458 C 0.34124 0.0735 0.36005 0.0
C1459 C 0.33366 0.08906 0.37644 0.0
C1460 C 0.35639 0.08153 0.34078 0.0
C1461 C 0.36389 0.05429 0.33948 0.0
N1462 N 0.34231 0.08608 0.36669 0.0
N1463 N 0.35489 0.05744 0.34878 0.0
H1464 H 0.06115 0.74608 0.73558 0.0
H1465 H 0.02047 0.73999 0.6624 0.0
H1466 H 0.0276 0.71547 0.72855 0.0
H1467 H 0.04537 0.77729 0.67451 0.0
H1468 H 0.02488 0.72924 0.68549 0.0
H1469 H 0.05751 0.75596 0.71199 0.0
C1470 C 0.05307 0.74137 0.72904 0.0
C1471 C 0.04464 0.72996 0.73406 0.0
C1472 C 0.02937 0.73978 0.68308 0.0
C1473 C 0.04044 0.74122 0.70706 0.0
C1474 C 0.02688 0.74591 0.6699 0.0
C1475 C 0.03253 0.75958 0.66654 0.0
C1476 C 0.03769 0.7473 0.6929 0.0
C1477 C 0.04075 0.76676 0.67667 0.0
C1478 C 0.05097 0.74706 0.71561 0.0
C1479 C 0.03431 0.72431 0.72513 0.0
N1480 N 0.04312 0.76052 0.68937 0.0
N1481 N 0.03251 0.72999 0.71205 0.0
H1482 H 0.34929 0.03839 0.72485 0.0
H1483 H 0.30315 0.98126 0.68231 0.0
H1484 H 0.3593 0.99569 0.72019 0.0
H1485 H 0.30236 0.0261 0.67428 0.0
H1486 H 0.3229 0.98613 0.69745 0.0
H1487 H 0.33119 0.03399 0.70747 0.0
C1488 C 0.34773 0.02812 0.72012 0.0
C1489 C 0.35579 0.01737 0.724 0.0
C1490 C 0.31845 0.99489 0.69229 0.0
C1491 C 0.33502 0.01223 0.70426 0.0
C1492 C 0.30716 0.99213 0.68369 0.0
C1493 C 0.30109 0.0033 0.67706 0.0
C1494 C 0.32358 0.00893 0.69446 0.0
C1495 C 0.30674 0.01717 0.67918 0.0
C1496 C 0.33742 0.02563 0.71017 0.0
C1497 C 0.35334 0.00427 0.71749 0.0
N1498 N 0.31759 0.01961 0.68781 0.0
N1499 N 0.34308 0.00202 0.70805 0.0
H1500 H 0.0514 0.32618 0.73446 0.0
H1501 H 0.01351 0.39613 0.72984 0.0
H1502 H 0.02263 0.33413 0.70154 0.0
H1503 H 0.03137 0.38062 0.76823 0.0
H1504 H 0.01925 0.37515 0.718 0.0
H1505 H 0.04669 0.3479 0.74565 0.0
C1506 C 0.04415 0.33253 0.72954 0.0
C1507 C 0.03736 0.32831 0.71707 0.0
C1508 C 0.02191 0.37636 0.72901 0.0
C1509 C 0.03198 0.35319 0.72979 0.0
C1510 C 0.01868 0.38835 0.73577 0.0
C1511 C 0.02193 0.3901 0.75006 0.0
C1512 C 0.0286 0.36616 0.73655 0.0
C1513 C 0.02862 0.37966 0.75722 0.0
C1514 C 0.04143 0.34489 0.73597 0.0
C1515 C 0.02804 0.33695 0.71118 0.0
N1516 N 0.03176 0.36816 0.75038 0.0
N1517 N 0.02564 0.349 0.71758 0.0
H1518 H 0.72777 0.03223 0.67655 0.0
H1519 H 0.73182 0.02002 0.7595 0.0
H1520 H 0.7645 0.02891 0.69993 0.0
H1521 H 0.69849 0.03654 0.73767 0.0
H1522 H 0.74342 0.02108 0.73749 0.0
H1523 H 0.71631 0.03178 0.69862 0.0
C1524 C 0.73343 0.03142 0.68632 0.0
C1525 C 0.74711 0.0306 0.6864 0.0
C1526 C 0.73358 0.0245 0.73754 0.0
C1527 C 0.73405 0.02998 0.71167 0.0
C1528 C 0.72693 0.02385 0.75008 0.0
C1529 C 0.71417 0.0282 0.75042 0.0
C1530 C 0.72735 0.02937 0.7252 0.0
C1531 C 0.70833 0.03311 0.73789 0.0
C1532 C 0.72688 0.03121 0.69891 0.0
C1533 C 0.75395 0.0296 0.69938 0.0
N1534 N 0.71494 0.0335 0.72578 0.0
N1535 N 0.74733 0.02923 0.71149 0.0
H1536 H 0.36613 0.30672 0.00142 0.0
H1537 H 0.29902 0.34095 0.01509 0.0
H1538 H 0.34756 0.30462 0.04138 0.0
H1539 H 0.31389 0.33621 0.97394 0.0
H1540 H 0.31836 0.33063 0.0254 0.0
H1541 H 0.34869 0.3205 0.99175 0.0
C1542 C 0.35846 0.30926 0.0082 0.0
C1543 C 0.35826 0.30442 0.02222 0.0
C1544 C 0.31742 0.33192 0.01412 0.0
C1545 C 0.33824 0.32018 0.01119 0.0
C1546 C 0.3064 0.33785 0.00822 0.0
C1547 C 0.30478 0.33936 0.99362 0.0
C1548 C 0.32694 0.32751 0.00536 0.0
C1549 C 0.31468 0.33517 0.98525 0.0
C1550 C 0.34847 0.3171 0.00266 0.0
C1551 C 0.34807 0.30806 0.0305 0.0
N1552 N 0.32531 0.3294 0.99124 0.0
N1553 N 0.33844 0.31566 0.02485 0.0
H1554 H 0.29584 0.69316 0.09792 0.0
H1555 H 0.35716 0.71044 0.04836 0.0
H1556 H 0.29321 0.68809 0.05311 0.0
H1557 H 0.36135 0.70352 0.09309 0.0
H1558 H 0.33322 0.70583 0.04998 0.0
H1559 H 0.31943 0.70043 0.09633 0.0
C1560 C 0.30021 0.69364 0.08774 0.0
C1561 C 0.29256 0.68994 0.07563 0.0
C1562 C 0.33939 0.70538 0.05944 0.0
C1563 C 0.31952 0.69832 0.07375 0.0
C1564 C 0.35304 0.70807 0.05854 0.0
C1565 C 0.36127 0.70729 0.0706 0.0
C1566 C 0.3339 0.70201 0.07251 0.0
C1567 C 0.35539 0.70416 0.08351 0.0
C1568 C 0.31368 0.69776 0.08685 0.0
C1569 C 0.29875 0.69077 0.06272 0.0
N1570 N 0.34206 0.70162 0.08412 0.0
N1571 N 0.31187 0.69488 0.06212 0.0
H1572 H 0.6767 0.31851 0.02647 0.0
H1573 H 0.72151 0.39026 0.00949 0.0
H1574 H 0.66108 0.35587 0.00839 0.0
H1575 H 0.73502 0.35624 0.03545 0.0
H1576 H 0.69964 0.37727 0.00764 0.0
H1577 H 0.6985 0.33161 0.02847 0.0
C1578 C 0.67785 0.32946 0.02291 0.0
C1579 C 0.66704 0.3361 0.01726 0.0
C1580 C 0.70738 0.37267 0.01376 0.0
C1581 C 0.692 0.35115 0.01949 0.0
C1582 C 0.71988 0.38006 0.0148 0.0
C1583 C 0.73012 0.37433 0.02264 0.0
C1584 C 0.70511 0.35938 0.0205 0.0
C1585 C 0.72742 0.36108 0.02932 0.0
C1586 C 0.6903 0.33695 0.02409 0.0
C1587 C 0.66913 0.35033 0.01284 0.0
N1588 N 0.7152 0.35403 0.02805 0.0
N1589 N 0.68137 0.35736 0.01401 0.0
H1590 H 0.67799 0.76548 0.05523 0.0
H1591 H 0.74963 0.76898 0.02304 0.0
H1592 H 0.697 0.80293 0.03529 0.0
H1593 H 0.73404 0.73479 0.05012 0.0
H1594 H 0.72981 0.78097 0.02621 0.0
H1595 H 0.6979 0.75349 0.05236 0.0
C1596 C 0.68636 0.77119 0.05027 0.0
C1597 C 0.68583 0.78524 0.04549 0.0
C1598 C 0.73073 0.77085 0.03147 0.0
C1599 C 0.7086 0.77154 0.0421 0.0
C1600 C 0.74203 0.76398 0.02963 0.0
C1601 C 0.7435 0.75086 0.03633 0.0
C1602 C 0.72076 0.76453 0.03999 0.0
C1603 C 0.73334 0.7449 0.04478 0.0
C1604 C 0.69772 0.76434 0.04865 0.0
C1605 C 0.69697 0.79211 0.03915 0.0
N1606 N 0.72238 0.75177 0.04634 0.0
N1607 N 0.70787 0.78518 0.0376 0.0
H1608 H 0.55328 0.87216 0.81694 0.0
H1609 H 0.5708 0.85931 0.89732 0.0
H1610 H 0.59355 0.8773 0.83304 0.0
H1611 H 0.54113 0.83167 0.87569 0.0
H1612 H 0.57728 0.87018 0.87472 0.0
H1613 H 0.54656 0.86126 0.83951 0.0
C1614 C 0.56068 0.87105 0.82525 0.0
C1615 C 0.57399 0.87559 0.82316 0.0
C1616 C 0.56935 0.86174 0.87497 0.0
C1617 C 0.56636 0.86344 0.84889 0.0
C1618 C 0.56561 0.85559 0.88782 0.0
C1619 C 0.55544 0.84456 0.88833 0.0
C1620 C 0.56264 0.85708 0.86262 0.0
C1621 C 0.54907 0.84009 0.87572 0.0
C1622 C 0.55686 0.86479 0.83804 0.0
C1623 C 0.58321 0.87387 0.83422 0.0
N1624 N 0.5527 0.84647 0.86335 0.0
N1625 N 0.5792 0.86805 0.84668 0.0
H1626 H 0.20911 0.53647 0.87348 0.0
H1627 H 0.13532 0.55159 0.85034 0.0
H1628 H 0.17632 0.52997 0.90099 0.0
H1629 H 0.16566 0.54748 0.82078 0.0
H1630 H 0.15083 0.54619 0.86945 0.0
H1631 H 0.1939 0.54294 0.85444 0.0
C1632 C 0.19872 0.53643 0.87553 0.0
C1633 C 0.19398 0.53263 0.88885 0.0
C1634 C 0.1541 0.54649 0.85879 0.0
C1635 C 0.17654 0.5401 0.86713 0.0
C1636 C 0.14526 0.54962 0.84787 0.0
C1637 C 0.14918 0.54996 0.83393 0.0
C1638 C 0.167 0.54378 0.85578 0.0
C1639 C 0.16219 0.54729 0.83137 0.0
C1640 C 0.19004 0.5401 0.86465 0.0
C1641 C 0.18041 0.53276 0.89089 0.0
N1642 N 0.17064 0.54433 0.84219 0.0
N1643 N 0.17218 0.53647 0.88016 0.0
H1644 H 0.57152 0.22494 0.848 0.0
H1645 H 0.52409 0.18105 0.79462 0.0
H1646 H 0.53557 0.24102 0.8319 0.0
H1647 H 0.54398 0.16048 0.82902 0.0
H1648 H 0.53051 0.20399 0.80537 0.0
H1649 H 0.56395 0.20181 0.83832 0.0
C1650 C 0.56204 0.22359 0.84243 0.0
C1651 C 0.55413 0.23486 0.84076 0.0
C1652 C 0.53339 0.19442 0.81056 0.0
C1653 C 0.54558 0.20863 0.82949 0.0
C1654 C 0.5298 0.18137 0.80443 0.0
C1655 C 0.53351 0.16888 0.81097 0.0
C1656 C 0.54104 0.19496 0.8231 0.0
C1657 C 0.54087 0.16987 0.82369 0.0
C1658 C 0.55772 0.21041 0.83698 0.0
C1659 C 0.54191 0.23256 0.83348 0.0
N1660 N 0.54454 0.18271 0.82926 0.0
N1661 N 0.53806 0.21972 0.82796 0.0
H1662 H 0.84012 0.57721 0.9092 0.0
H1663 H 0.85731 0.56409 0.82977 0.0
H1664 H 0.8113 0.57629 0.87484 0.0
H1665 H 0.88438 0.559 0.86502 0.0
H1666 H 0.84069 0.57 0.84589 0.0
H1667 H 0.85686 0.57204 0.89293 0.0
C1668 C 0.83731 0.57597 0.89823 0.0
C1669 C 0.82427 0.57717 0.89339 0.0
C1670 C 0.85027 0.56758 0.8501 0.0
C1671 C 0.84341 0.57124 0.87468 0.0
C1672 C 0.85977 0.56423 0.8409 0.0
C1673 C 0.87226 0.56102 0.84605 0.0
C1674 C 0.85329 0.56782 0.86457 0.0
C1675 C 0.87488 0.56136 0.86058 0.0
C1676 C 0.84687 0.57298 0.88894 0.0
C1677 C 0.82122 0.57543 0.87904 0.0
N1678 N 0.86549 0.56472 0.86931 0.0
N1679 N 0.83071 0.57256 0.8702 0.0
H1680 H 0.53206 0.21288 0.23433 0.0
H1681 H 0.54607 0.28079 0.18428 0.0
H1682 H 0.56519 0.24408 0.24105 0.0
H1683 H 0.52276 0.24299 0.17071 0.0
H1684 H 0.55147 0.26857 0.20633 0.0
H1685 H 0.52685 0.22479 0.21203 0.0
C1686 C 0.53825 0.22222 0.23111 0.0
C1687 C 0.54908 0.22749 0.23956 0.0
C1688 C 0.54519 0.26295 0.19851 0.0
C1689 C 0.54309 0.24123 0.21415 0.0
C1690 C 0.54206 0.26994 0.18595 0.0
C1691 C 0.53396 0.2629 0.17563 0.0
C1692 C 0.54004 0.24889 0.20086 0.0
C1693 C 0.52907 0.24881 0.17835 0.0
C1694 C 0.53528 0.22898 0.21837 0.0
C1695 C 0.55677 0.23962 0.23485 0.0
N1696 N 0.53214 0.24228 0.19074 0.0
N1697 N 0.55357 0.24614 0.2225 0.0
H1698 H 0.84769 0.54664 0.219 0.0
H1699 H 0.80469 0.48512 0.17887 0.0
H1700 H 0.85962 0.50438 0.21697 0.0
H1701 H 0.80041 0.52932 0.17029 0.0
H1702 H 0.82448 0.49181 0.19339 0.0
H1703 H 0.82993 0.54046 0.20166 0.0
C1704 C 0.84663 0.53609 0.21484 0.0
C1705 C 0.85512 0.52599 0.21948 0.0
C1706 C 0.81928 0.50004 0.18822 0.0
C1707 C 0.83473 0.51881 0.19976 0.0
C1708 C 0.80796 0.49623 0.17997 0.0
C1709 C 0.80085 0.50668 0.17341 0.0
C1710 C 0.82341 0.51441 0.19012 0.0
C1711 C 0.80558 0.52091 0.17515 0.0
C1712 C 0.83651 0.53258 0.20492 0.0
C1713 C 0.85331 0.5125 0.21369 0.0
N1714 N 0.81648 0.52436 0.18346 0.0
N1715 N 0.84323 0.50925 0.20424 0.0
H1716 H 0.51177 0.87645 0.24112 0.0
H1717 H 0.50787 0.85662 0.15998 0.0
H1718 H 0.50308 0.90582 0.20751 0.0
H1719 H 0.51776 0.82762 0.19347 0.0
H1720 H 0.50595 0.87473 0.17725 0.0
H1721 H 0.5139 0.85839 0.22384 0.0
C1722 C 0.51032 0.87911 0.2301 0.0
C1723 C 0.50724 0.89268 0.22576 0.0
C1724 C 0.50855 0.86441 0.18083 0.0
C1725 C 0.50965 0.87202 0.20591 0.0
C1726 C 0.50964 0.85405 0.17097 0.0
C1727 C 0.51298 0.84057 0.17528 0.0
C1728 C 0.51079 0.86128 0.19513 0.0
C1729 C 0.51517 0.83786 0.18966 0.0
C1730 C 0.51154 0.86878 0.22024 0.0
C1731 C 0.50547 0.89551 0.21134 0.0
N1732 N 0.51402 0.84812 0.19906 0.0
N1733 N 0.50669 0.88527 0.20195 0.0
H1734 H 0.20971 0.52747 0.19031 0.0
H1735 H 0.22549 0.50757 0.27018 0.0
H1736 H 0.24869 0.51901 0.20554 0.0
H1737 H 0.19305 0.53157 0.25715 0.0
H1738 H 0.23341 0.50967 0.24626 0.0
H1739 H 0.20259 0.52702 0.2145 0.0
C1740 C 0.21678 0.52554 0.19875 0.0
C1741 C 0.22981 0.52326 0.19592 0.0
C1742 C 0.22461 0.51454 0.24868 0.0
C1743 C 0.22169 0.5226 0.22358 0.0
C1744 C 0.22006 0.51331 0.2623 0.0
C1745 C 0.20859 0.5194 0.26565 0.0
C1746 C 0.21751 0.52169 0.23829 0.0
C1747 C 0.20195 0.52675 0.25503 0.0
C1748 C 0.21272 0.52534 0.21254 0.0
C1749 C 0.23856 0.52086 0.20726 0.0
N1750 N 0.20645 0.52759 0.2418 0.0
N1751 N 0.23431 0.52047 0.2206 0.0
H1752 H 0.84172 0.8048 0.55069 0.0
H1753 H 0.80728 0.83253 0.48027 0.0
H1754 H 0.8593 0.80477 0.5103 0.0
H1755 H 0.79323 0.83915 0.5214 0.0
H1756 H 0.82694 0.82338 0.49114 0.0
H1757 H 0.82446 0.81841 0.54035 0.0
C1758 C 0.84203 0.80777 0.53967 0.0
C1759 C 0.85192 0.80354 0.53133 0.0
C1760 C 0.81963 0.82696 0.4978 0.0
C1761 C 0.8321 0.81902 0.51938 0.0
C1762 C 0.80838 0.83218 0.49159 0.0
C1763 C 0.79853 0.83651 0.49994 0.0
C1764 C 0.82099 0.82592 0.51247 0.0
C1765 C 0.80054 0.83588 0.51456 0.0
C1766 C 0.83216 0.81556 0.53377 0.0
C1767 C 0.85185 0.80775 0.51712 0.0
N1768 N 0.81146 0.83054 0.52035 0.0
N1769 N 0.84201 0.81513 0.51157 0.0
H1770 H 0.88082 0.20464 0.52547 0.0
H1771 H 0.81576 0.21287 0.56726 0.0
H1772 H 0.8725 0.24404 0.54309 0.0
H1773 H 0.81809 0.18019 0.53721 0.0
H1774 H 0.83773 0.22314 0.56088 0.0
H1775 H 0.85893 0.19419 0.53201 0.0
C1776 C 0.8744 0.21109 0.53073 0.0
C1777 C 0.87847 0.22524 0.53372 0.0
C1778 C 0.83342 0.21373 0.55568 0.0
C1779 C 0.85351 0.21332 0.54132 0.0
C1780 C 0.82091 0.20783 0.55936 0.0
C1781 C 0.81508 0.19567 0.55273 0.0
C1782 C 0.84023 0.20732 0.54547 0.0
C1783 C 0.82219 0.18961 0.54254 0.0
C1784 C 0.86191 0.20513 0.53441 0.0
C1785 C 0.86974 0.23311 0.54053 0.0
N1786 N 0.83443 0.19546 0.53926 0.0
N1787 N 0.8577 0.22702 0.54417 0.0
H1788 H 0.23262 0.85312 0.5266 0.0
H1789 H 0.15737 0.84514 0.4981 0.0
H1790 H 0.21399 0.88649 0.50435 0.0
H1791 H 0.17747 0.81048 0.5159 0.0
H1792 H 0.17775 0.86071 0.50109 0.0
H1793 H 0.2122 0.83764 0.52368 0.0
C1794 C 0.22423 0.85721 0.52113 0.0
C1795 C 0.22503 0.87113 0.5157 0.0
C1796 C 0.17771 0.8497 0.50432 0.0
C1797 C 0.2016 0.85344 0.51231 0.0
C1798 C 0.16607 0.8408 0.50262 0.0
C1799 C 0.16571 0.82647 0.50674 0.0
C1800 C 0.18907 0.84427 0.51026 0.0
C1801 C 0.1773 0.82144 0.51255 0.0
C1802 C 0.21257 0.84834 0.51944 0.0
C1803 C 0.21383 0.87584 0.50869 0.0
N1804 N 0.18849 0.83033 0.51416 0.0
N1805 N 0.20258 0.86701 0.50721 0.0
H1806 H 0.22414 0.26083 0.52394 0.0
H1807 H 0.15076 0.24342 0.55047 0.0
H1808 H 0.21103 0.22179 0.5455 0.0
H1809 H 0.16696 0.28539 0.53825 0.0
H1810 H 0.17231 0.23481 0.54735 0.0
H1811 H 0.20272 0.26951 0.5276 0.0
C1812 C 0.21675 0.25407 0.52942 0.0
C1813 C 0.21938 0.24056 0.53442 0.0
C1814 C 0.17116 0.24591 0.54541 0.0
C1815 C 0.19483 0.25042 0.53861 0.0
C1816 C 0.15885 0.25083 0.54716 0.0
C1817 C 0.15705 0.26515 0.54462 0.0
C1818 C 0.18171 0.25534 0.54093 0.0
C1819 C 0.1679 0.27427 0.54037 0.0
C1820 C 0.20454 0.25905 0.53155 0.0
C1821 C 0.20944 0.23228 0.54148 0.0
N1822 N 0.17974 0.2692 0.53859 0.0
N1823 N 0.19759 0.23732 0.54333 0.0
loop_
_geom_bond_atom_site_label_1
_geom_bond_atom_site_label_2
_geom_bond_distance
_geom_bond_site_symmetry_2
_ccdc_geom_bond_type
O0 Cd1 2.300 . S
O0 C7 1.275 . S
Cd1 O0 2.300 . S
Cd1 O9 2.381 . S
Cd1 O10 2.378 . S
O2 Cd3 2.385 . S
O2 C7 1.255 . S
Cd3 O2 2.385 . S
Cd3 O4 2.317 . S
O4 Cd3 2.317 . S
O4 C5 1.232 . S
C5 O4 1.232 . S
C5 O6 1.218 . S
O6 C5 1.218 . S
C7 O0 1.275 . S
C7 O2 1.255 . S
C8 O9 1.258 . S
C8 O10 1.256 . S
O9 Cd1 2.381 . S
O9 C8 1.258 . S
O10 Cd1 2.378 . S
O10 C8 1.256 . S
O11 Cd12 2.300 . S
O11 C18 1.275 . S
Cd12 O11 2.300 . S
Cd12 O20 2.381 . S
Cd12 O21 2.378 . S
O13 Cd14 2.385 . S
O13 C18 1.255 . S
Cd14 O13 2.385 . S
Cd14 O15 2.317 1_545 S
O15 Cd14 2.317 1_565 S
O15 C16 1.232 . S
C16 O15 1.232 . S
C16 O17 1.218 . S
O17 C16 1.218 . S
C18 O11 1.275 . S
C18 O13 1.255 . S
C19 O20 1.258 . S
C19 O21 1.256 . S
O20 Cd12 2.381 . S
O20 C19 1.258 . S
O21 Cd12 2.378 . S
O21 C19 1.256 . S
O22 Cd23 2.300 . S
O22 C29 1.275 . S
Cd23 O22 2.300 . S
Cd23 O31 2.381 . S
Cd23 O32 2.378 . S
O24 Cd25 2.385 . S
O24 C29 1.255 . S
Cd25 O24 2.385 . S
Cd25 O26 2.355 . S
O26 Cd25 2.355 . S
O26 C27 1.216 1_455 S
C27 O26 1.216 1_655 S
C27 O28 1.218 1_655 S
O28 C27 1.218 1_455 S
C29 O22 1.275 . S
C29 O24 1.255 . S
C30 O31 1.258 . S
C30 O32 1.256 . S
O31 Cd23 2.381 . S
O31 C30 1.258 . S
O32 Cd23 2.378 . S
O32 C30 1.256 . S
O33 Cd34 2.300 . S
O33 C40 1.275 . S
Cd34 O33 2.300 . S
Cd34 O42 2.381 . S
Cd34 O43 2.378 . S
O35 Cd36 2.385 . S
O35 C40 1.255 . S
Cd36 O35 2.385 . S
Cd36 O37 2.317 . S
O37 Cd36 2.317 . S
O37 C38 1.232 . S
C38 O37 1.232 . S
C38 O39 1.218 . S
O39 C38 1.218 . S
C40 O33 1.275 . S
C40 O35 1.255 . S
C41 O42 1.258 . S
C41 O43 1.256 . S
O42 Cd34 2.381 . S
O42 C41 1.258 . S
O43 Cd34 2.378 . S
O43 C41 1.256 . S
O44 Cd45 2.300 . S
O44 C51 1.275 . S
Cd45 O44 2.300 . S
Cd45 O53 2.381 . S
Cd45 O54 2.378 . S
O46 Cd47 2.385 . S
O46 C51 1.255 . S
Cd47 O46 2.385 . S
Cd47 O48 2.317 . S
O48 Cd47 2.317 . S
O48 C49 1.232 . S
C49 O48 1.232 . S
C49 O50 1.218 . S
O50 C49 1.218 . S
C51 O44 1.275 . S
C51 O46 1.255 . S
C52 O53 1.258 . S
C52 O54 1.256 . S
O53 Cd45 2.381 . S
O53 C52 1.258 . S
O54 Cd45 2.378 . S
O54 C52 1.256 . S
O55 Cd56 2.300 . S
O55 C62 1.275 . S
Cd56 O55 2.300 . S
Cd56 O64 2.381 . S
Cd56 O65 2.378 . S
O57 Cd58 2.385 . S
O57 C62 1.255 . S
Cd58 O57 2.385 . S
Cd58 O59 2.317 . S
O59 Cd58 2.317 . S
O59 C60 1.232 . S
C60 O59 1.232 . S
C60 O61 1.218 . S
O61 C60 1.218 . S
C62 O55 1.275 . S
C62 O57 1.255 . S
C63 O64 1.258 . S
C63 O65 1.256 . S
O64 Cd56 2.381 . S
O64 C63 1.258 . S
O65 Cd56 2.378 . S
O65 C63 1.256 . S
O66 Cd67 2.300 . S
O66 C73 1.275 . S
Cd67 O66 2.300 . S
Cd67 O75 2.381 . S
Cd67 O76 2.378 . S
O68 Cd69 2.385 . S
O68 C73 1.255 . S
Cd69 O68 2.385 . S
Cd69 O70 2.317 1_455 S
O70 Cd69 2.317 1_655 S
O70 C71 1.232 . S
C71 O70 1.232 . S
C71 O72 1.218 . S
O72 C71 1.218 . S
C73 O66 1.275 . S
C73 O68 1.255 . S
C74 O75 1.258 . S
C74 O76 1.256 . S
O75 Cd67 2.381 . S
O75 C74 1.258 . S
O76 Cd67 2.378 . S
O76 C74 1.256 . S
O77 Cd78 2.300 . S
O77 C84 1.275 . S
Cd78 O77 2.300 . S
Cd78 O86 2.381 . S
Cd78 O87 2.378 . S
O79 Cd80 2.385 . S
O79 C84 1.255 . S
Cd80 O79 2.385 . S
Cd80 O81 2.271 1_545 S
O81 Cd80 2.271 1_565 S
O81 C82 1.254 . S
C82 O81 1.254 . S
C82 O83 1.218 1_565 S
O83 C82 1.218 1_545 S
C84 O77 1.275 . S
C84 O79 1.255 . S
C85 O86 1.258 . S
C85 O87 1.256 . S
O86 Cd78 2.381 . S
O86 C85 1.258 . S
O87 Cd78 2.378 . S
O87 C85 1.256 . S
O88 Cd89 2.300 . S
O88 C95 1.275 . S
Cd89 O88 2.300 . S
Cd89 O97 2.381 . S
Cd89 O98 2.378 . S
O90 Cd91 2.385 . S
O90 C95 1.255 . S
Cd91 O90 2.385 . S
Cd91 O92 2.317 . S
O92 Cd91 2.317 . S
O92 C93 1.232 . S
C93 O92 1.232 . S
C93 O94 1.218 . S
O94 C93 1.218 . S
C95 O88 1.275 . S
C95 O90 1.255 . S
C96 O97 1.258 . S
C96 O98 1.256 . S
O97 Cd89 2.381 . S
O97 C96 1.258 . S
O98 Cd89 2.378 . S
O98 C96 1.256 . S
O99 Cd100 2.300 . S
O99 C106 1.275 . S
Cd100 O99 2.300 . S
Cd100 O108 2.381 . S
Cd100 O109 2.378 . S
O101 Cd102 2.385 . S
O101 C106 1.255 . S
Cd102 O101 2.385 . S
Cd102 O103 2.317 . S
O103 Cd102 2.317 . S
O103 C104 1.232 . S
C104 O103 1.232 . S
C104 O105 1.218 . S
O105 C104 1.218 . S
C106 O99 1.275 . S
C106 O101 1.255 . S
C107 O108 1.258 . S
C107 O109 1.256 . S
O108 Cd100 2.381 . S
O108 C107 1.258 . S
O109 Cd100 2.378 . S
O109 C107 1.256 . S
O110 Cd111 2.300 . S
O110 C117 1.275 . S
Cd111 O110 2.300 . S
Cd111 O119 2.381 . S
Cd111 O120 2.378 . S
O112 Cd113 2.385 . S
O112 C117 1.255 . S
Cd113 O112 2.385 . S
Cd113 O114 2.317 . S
O114 Cd113 2.317 . S
O114 C115 1.232 . S
C115 O114 1.232 . S
C115 O116 1.218 . S
O116 C115 1.218 . S
C117 O110 1.275 . S
C117 O112 1.255 . S
C118 O119 1.258 . S
C118 O120 1.256 . S
O119 Cd111 2.381 . S
O119 C118 1.258 . S
O120 Cd111 2.378 . S
O120 C118 1.256 . S
O121 Cd122 2.300 . S
O121 C128 1.275 . S
Cd122 O121 2.300 . S
Cd122 O130 2.381 . S
Cd122 O131 2.378 . S
O123 Cd124 2.385 . S
O123 C128 1.255 . S
Cd124 O123 2.385 . S
Cd124 O125 2.317 . S
O125 Cd124 2.317 . S
O125 C126 1.232 . S
C126 O125 1.232 . S
C126 O127 1.218 . S
O127 C126 1.218 . S
C128 O121 1.275 . S
C128 O123 1.255 . S
C129 O130 1.258 . S
C129 O131 1.256 . S
O130 Cd122 2.381 . S
O130 C129 1.258 . S
O131 Cd122 2.378 . S
O131 C129 1.256 . S
O132 Cd133 2.300 . S
O132 C139 1.275 . S
Cd133 O132 2.300 . S
Cd133 O141 2.381 . S
Cd133 O142 2.378 . S
O134 Cd135 2.385 . S
O134 C139 1.255 . S
Cd135 O134 2.385 . S
Cd135 O136 2.317 1_545 S
O136 Cd135 2.317 1_565 S
O136 C137 1.232 . S
C137 O136 1.232 . S
C137 O138 1.218 . S
O138 C137 1.218 . S
C139 O132 1.275 . S
C139 O134 1.255 . S
C140 O141 1.258 . S
C140 O142 1.256 . S
O141 Cd133 2.381 . S
O141 C140 1.258 . S
O142 Cd133 2.378 . S
O142 C140 1.256 . S
O143 Cd144 2.300 . S
O143 C150 1.275 . S
Cd144 O143 2.300 . S
Cd144 O152 2.381 . S
Cd144 O153 2.378 . S
O145 Cd146 2.385 . S
O145 C150 1.255 . S
Cd146 O145 2.385 . S
Cd146 O147 2.317 1_455 S
O147 Cd146 2.317 1_655 S
O147 C148 1.232 . S
C148 O147 1.232 . S
C148 O149 1.218 . S
O149 C148 1.218 . S
C150 O143 1.275 . S
C150 O145 1.255 . S
C151 O152 1.258 . S
C151 O153 1.256 . S
O152 Cd144 2.381 . S
O152 C151 1.258 . S
O153 Cd144 2.378 . S
O153 C151 1.256 . S
O154 Cd155 2.300 . S
O154 C161 1.275 . S
Cd155 O154 2.300 . S
Cd155 O163 2.381 . S
Cd155 O164 2.378 . S
O156 Cd157 2.385 . S
O156 C161 1.255 . S
Cd157 O156 2.385 . S
Cd157 O158 2.317 . S
O158 Cd157 2.317 . S
O158 C159 1.232 . S
C159 O158 1.232 . S
C159 O160 1.218 . S
O160 C159 1.218 . S
C161 O154 1.275 . S
C161 O156 1.255 . S
C162 O163 1.258 . S
C162 O164 1.256 . S
O163 Cd155 2.381 . S
O163 C162 1.258 . S
O164 Cd155 2.378 . S
O164 C162 1.256 . S
O165 Cd166 2.300 . S
O165 C172 1.275 . S
Cd166 O165 2.300 . S
Cd166 O174 2.381 . S
Cd166 O175 2.378 . S
O167 Cd168 2.385 . S
O167 C172 1.255 . S
Cd168 O167 2.385 . S
Cd168 O169 2.317 1_455 S
O169 Cd168 2.317 1_655 S
O169 C170 1.232 . S
C170 O169 1.232 . S
C170 O171 1.218 . S
O171 C170 1.218 . S
C172 O165 1.275 . S
C172 O167 1.255 . S
C173 O174 1.258 . S
C173 O175 1.256 . S
O174 Cd166 2.381 . S
O174 C173 1.258 . S
O175 Cd166 2.378 . S
O175 C173 1.256 . S
O176 Cd177 2.300 . S
O176 C183 1.275 . S
Cd177 O176 2.300 . S
Cd177 O185 2.381 . S
Cd177 O186 2.378 . S
O178 Cd179 2.385 . S
O178 C183 1.255 . S
Cd179 O178 2.385 . S
Cd179 O180 2.317 . S
O180 Cd179 2.317 . S
O180 C181 1.232 . S
C181 O180 1.232 . S
C181 O182 1.218 . S
O182 C181 1.218 . S
C183 O176 1.275 . S
C183 O178 1.255 . S
C184 O185 1.258 . S
C184 O186 1.256 . S
O185 Cd177 2.381 . S
O185 C184 1.258 . S
O186 Cd177 2.378 . S
O186 C184 1.256 . S
O187 Cd188 2.300 . S
O187 C194 1.275 . S
Cd188 O187 2.300 . S
Cd188 O196 2.381 . S
Cd188 O197 2.378 . S
O189 Cd190 2.385 . S
O189 C194 1.255 . S
Cd190 O189 2.385 . S
Cd190 O191 2.317 . S
O191 Cd190 2.317 . S
O191 C192 1.232 . S
C192 O191 1.232 . S
C192 O193 1.218 . S
O193 C192 1.218 . S
C194 O187 1.275 . S
C194 O189 1.255 . S
C195 O196 1.258 . S
C195 O197 1.256 . S
O196 Cd188 2.381 . S
O196 C195 1.258 . S
O197 Cd188 2.378 . S
O197 C195 1.256 . S
O198 Cd199 2.300 . S
O198 C205 1.275 . S
Cd199 O198 2.300 . S
Cd199 O207 2.381 . S
Cd199 O208 2.378 . S
O200 Cd201 2.385 1_554 S
O200 C205 1.255 . S
Cd201 O200 2.385 1_556 S
Cd201 O202 2.317 . S
O202 Cd201 2.317 . S
O202 C203 1.232 . S
C203 O202 1.232 . S
C203 O204 1.218 . S
O204 C203 1.218 . S
C205 O198 1.275 . S
C205 O200 1.255 . S
C206 O207 1.258 . S
C206 O208 1.256 . S
O207 Cd199 2.381 . S
O207 C206 1.258 . S
O208 Cd199 2.378 . S
O208 C206 1.256 . S
O209 Cd210 2.300 . S
O209 C216 1.275 . S
Cd210 O209 2.300 . S
Cd210 O218 2.381 . S
Cd210 O219 2.378 . S
O211 Cd212 2.385 . S
O211 C216 1.255 . S
Cd212 O211 2.385 . S
Cd212 O213 2.317 . S
O213 Cd212 2.317 . S
O213 C214 1.230 1_554 S
C214 O213 1.230 1_556 S
C214 O215 1.215 1_556 S
O215 C214 1.215 1_554 S
C216 O209 1.275 . S
C216 O211 1.255 . S
C217 O218 1.258 . S
C217 O219 1.256 . S
O218 Cd210 2.381 . S
O218 C217 1.258 . S
O219 Cd210 2.378 . S
O219 C217 1.256 . S
O220 Cd221 2.300 . S
O220 C227 1.275 . S
Cd221 O220 2.300 . S
Cd221 O229 2.381 . S
Cd221 O230 2.378 . S
O222 Cd223 2.385 . S
O222 C227 1.255 . S
Cd223 O222 2.385 . S
Cd223 O224 2.317 . S
O224 Cd223 2.317 . S
O224 C225 1.232 . S
C225 O224 1.232 . S
C225 O226 1.218 . S
O226 C225 1.218 . S
C227 O220 1.275 . S
C227 O222 1.255 . S
C228 O229 1.258 . S
C228 O230 1.256 . S
O229 Cd221 2.381 . S
O229 C228 1.258 . S
O230 Cd221 2.378 . S
O230 C228 1.256 . S
O231 Cd232 2.300 . S
O231 C238 1.275 . S
Cd232 O231 2.300 . S
Cd232 O240 2.381 . S
Cd232 O241 2.378 . S
O233 Cd234 2.385 . S
O233 C238 1.255 . S
Cd234 O233 2.385 . S
Cd234 O235 2.317 . S
O235 Cd234 2.317 . S
O235 C236 1.232 . S
C236 O235 1.232 . S
C236 O237 1.218 . S
O237 C236 1.218 . S
C238 O231 1.275 . S
C238 O233 1.255 . S
C239 O240 1.258 . S
C239 O241 1.256 . S
O240 Cd232 2.381 . S
O240 C239 1.258 . S
O241 Cd232 2.378 . S
O241 C239 1.256 . S
O242 Cd243 2.300 . S
O242 C249 1.275 . S
Cd243 O242 2.300 . S
Cd243 O251 2.381 . S
Cd243 O252 2.378 . S
O244 Cd245 2.385 . S
O244 C249 1.255 . S
Cd245 O244 2.385 . S
Cd245 O246 2.317 . S
O246 Cd245 2.317 . S
O246 C247 1.232 . S
C247 O246 1.232 . S
C247 O248 1.218 . S
O248 C247 1.218 . S
C249 O242 1.275 . S
C249 O244 1.255 . S
C250 O251 1.258 . S
C250 O252 1.256 . S
O251 Cd243 2.381 . S
O251 C250 1.258 . S
O252 Cd243 2.378 . S
O252 C250 1.256 . S
O253 Cd254 2.300 . S
O253 C260 1.275 . S
Cd254 O253 2.300 . S
Cd254 O262 2.381 . S
Cd254 O263 2.378 . S
O255 Cd256 2.385 . S
O255 C260 1.255 . S
Cd256 O255 2.385 . S
Cd256 O257 2.317 1_554 S
O257 Cd256 2.317 1_556 S
O257 C258 1.232 . S
C258 O257 1.232 . S
C258 O259 1.192 1_556 S
O259 C258 1.192 1_554 S
C260 O253 1.275 . S
C260 O255 1.255 . S
C261 O262 1.258 . S
C261 O263 1.256 . S
O262 Cd254 2.381 . S
O262 C261 1.258 . S
O263 Cd254 2.378 . S
O263 C261 1.256 . S
O264 Cd265 2.300 . S
O264 C271 1.275 . S
Cd265 O264 2.300 . S
Cd265 O273 2.381 . S
Cd265 O274 2.378 . S
O266 Cd267 2.385 . S
O266 C271 1.255 . S
Cd267 O266 2.385 . S
Cd267 O268 2.317 . S
O268 Cd267 2.317 . S
O268 C269 1.232 . S
C269 O268 1.232 . S
C269 O270 1.218 . S
O270 C269 1.218 . S
C271 O264 1.275 . S
C271 O266 1.255 . S
C272 O273 1.258 . S
C272 O274 1.256 . S
O273 Cd265 2.381 . S
O273 C272 1.258 . S
O274 Cd265 2.378 . S
O274 C272 1.256 . S
O275 Cd276 2.300 . S
O275 C282 1.275 . S
Cd276 O275 2.300 . S
Cd276 O284 2.381 . S
Cd276 O285 2.378 . S
O277 Cd278 2.385 . S
O277 C282 1.255 . S
Cd278 O277 2.385 . S
Cd278 O279 2.317 . S
O279 Cd278 2.317 . S
O279 C280 1.232 . S
C280 O279 1.232 . S
C280 O281 1.218 . S
O281 C280 1.218 . S
C282 O275 1.275 . S
C282 O277 1.255 . S
C283 O284 1.258 . S
C283 O285 1.256 . S
O284 Cd276 2.381 . S
O284 C283 1.258 . S
O285 Cd276 2.378 . S
O285 C283 1.256 . S
O286 Cd287 2.300 . S
O286 C293 1.275 . S
Cd287 O286 2.300 . S
Cd287 O295 2.381 . S
Cd287 O296 2.378 . S
O288 Cd289 2.385 . S
O288 C293 1.255 . S
Cd289 O288 2.385 . S
Cd289 O290 2.317 . S
O290 Cd289 2.317 . S
O290 C291 1.232 . S
C291 O290 1.232 . S
C291 O292 1.218 . S
O292 C291 1.218 . S
C293 O286 1.275 . S
C293 O288 1.255 . S
C294 O295 1.258 . S
C294 O296 1.256 . S
O295 Cd287 2.381 . S
O295 C294 1.258 . S
O296 Cd287 2.378 . S
O296 C294 1.256 . S
O297 Cd298 2.300 . S
O297 C304 1.275 . S
Cd298 O297 2.300 . S
Cd298 O306 2.381 . S
Cd298 O307 2.378 . S
O299 Cd300 2.385 . S
O299 C304 1.255 . S
Cd300 O299 2.385 . S
Cd300 O301 2.317 . S
O301 Cd300 2.317 . S
O301 C302 1.232 . S
C302 O301 1.232 . S
C302 O303 1.218 . S
O303 C302 1.218 . S
C304 O297 1.275 . S
C304 O299 1.255 . S
C305 O306 1.258 . S
C305 O307 1.256 . S
O306 Cd298 2.381 . S
O306 C305 1.258 . S
O307 Cd298 2.378 . S
O307 C305 1.256 . S
O308 Cd309 2.300 . S
O308 C315 1.275 . S
Cd309 O308 2.300 . S
Cd309 O317 2.381 . S
Cd309 O318 2.378 . S
O310 Cd311 2.385 . S
O310 C315 1.255 . S
Cd311 O310 2.385 . S
Cd311 O312 2.317 . S
O312 Cd311 2.317 . S
O312 C313 1.232 . S
C313 O312 1.232 . S
C313 O314 1.218 . S
O314 C313 1.218 . S
C315 O308 1.275 . S
C315 O310 1.255 . S
C316 O317 1.258 . S
C316 O318 1.256 . S
O317 Cd309 2.381 . S
O317 C316 1.258 . S
O318 Cd309 2.378 . S
O318 C316 1.256 . S
O319 Cd320 2.300 . S
O319 C326 1.275 . S
Cd320 O319 2.300 . S
Cd320 O328 2.381 . S
Cd320 O329 2.378 . S
O321 Cd322 2.385 . S
O321 C326 1.255 . S
Cd322 O321 2.385 . S
Cd322 O323 2.317 . S
O323 Cd322 2.317 . S
O323 C324 1.232 . S
C324 O323 1.232 . S
C324 O325 1.218 . S
O325 C324 1.218 . S
C326 O319 1.275 . S
C326 O321 1.255 . S
C327 O328 1.258 . S
C327 O329 1.256 . S
O328 Cd320 2.381 . S
O328 C327 1.258 . S
O329 Cd320 2.378 . S
O329 C327 1.256 . S
O330 Cd331 2.300 . S
O330 C337 1.275 . S
Cd331 O330 2.300 . S
Cd331 O339 2.381 . S
Cd331 O340 2.378 . S
O332 Cd333 2.385 . S
O332 C337 1.255 . S
Cd333 O332 2.385 . S
Cd333 O334 2.317 . S
O334 Cd333 2.317 . S
O334 C335 1.232 . S
C335 O334 1.232 . S
C335 O336 1.218 . S
O336 C335 1.218 . S
C337 O330 1.275 . S
C337 O332 1.255 . S
C338 O339 1.258 . S
C338 O340 1.256 . S
O339 Cd331 2.381 . S
O339 C338 1.258 . S
O340 Cd331 2.378 . S
O340 C338 1.256 . S
O341 Cd342 2.300 . S
O341 C348 1.275 . S
Cd342 O341 2.300 . S
Cd342 O350 2.381 . S
Cd342 O351 2.378 . S
O343 Cd344 2.385 . S
O343 C348 1.255 . S
Cd344 O343 2.385 . S
Cd344 O345 2.317 . S
O345 Cd344 2.317 . S
O345 C346 1.232 . S
C346 O345 1.232 . S
C346 O347 1.218 . S
O347 C346 1.218 . S
C348 O341 1.275 . S
C348 O343 1.255 . S
C349 O350 1.258 . S
C349 O351 1.256 . S
O350 Cd342 2.381 . S
O350 C349 1.258 . S
O351 Cd342 2.378 . S
O351 C349 1.256 . S
O352 Cd353 2.300 . S
O352 C359 1.275 . S
Cd353 O352 2.300 . S
Cd353 O361 2.381 . S
Cd353 O362 2.378 . S
O354 Cd355 2.385 . S
O354 C359 1.255 . S
Cd355 O354 2.385 . S
Cd355 O356 2.317 . S
O356 Cd355 2.317 . S
O356 C357 1.232 . S
C357 O356 1.232 . S
C357 O358 1.218 . S
O358 C357 1.218 . S
C359 O352 1.275 . S
C359 O354 1.255 . S
C360 O361 1.258 . S
C360 O362 1.256 . S
O361 Cd353 2.381 . S
O361 C360 1.258 . S
O362 Cd353 2.378 . S
O362 C360 1.256 . S
O363 Cd364 2.300 . S
O363 C370 1.275 . S
Cd364 O363 2.300 . S
Cd364 O372 2.381 . S
Cd364 O373 2.378 . S
O365 Cd366 2.385 . S
O365 C370 1.255 . S
Cd366 O365 2.385 . S
Cd366 O367 2.317 . S
O367 Cd366 2.317 . S
O367 C368 1.232 . S
C368 O367 1.232 . S
C368 O369 1.218 . S
O369 C368 1.218 . S
C370 O363 1.275 . S
C370 O365 1.255 . S
C371 O372 1.258 . S
C371 O373 1.256 . S
O372 Cd364 2.381 . S
O372 C371 1.258 . S
O373 Cd364 2.378 . S
O373 C371 1.256 . S
O374 Cd375 2.300 . S
O374 C381 1.275 . S
Cd375 O374 2.300 . S
Cd375 O383 2.381 . S
Cd375 O384 2.378 . S
O376 Cd377 2.385 . S
O376 C381 1.255 . S
Cd377 O376 2.385 . S
Cd377 O378 2.317 . S
O378 Cd377 2.317 . S
O378 C379 1.232 . S
C379 O378 1.232 . S
C379 O380 1.218 . S
O380 C379 1.218 . S
C381 O374 1.275 . S
C381 O376 1.255 . S
C382 O383 1.258 . S
C382 O384 1.256 . S
O383 Cd375 2.381 . S
O383 C382 1.258 . S
O384 Cd375 2.378 . S
O384 C382 1.256 . S
O385 Cd386 2.300 . S
O385 C392 1.275 . S
Cd386 O385 2.300 . S
Cd386 O394 2.381 . S
Cd386 O395 2.378 . S
O387 Cd388 2.385 . S
O387 C392 1.255 . S
Cd388 O387 2.385 . S
Cd388 O389 2.317 . S
O389 Cd388 2.317 . S
O389 C390 1.232 . S
C390 O389 1.232 . S
C390 O391 1.218 . S
O391 C390 1.218 . S
C392 O385 1.275 . S
C392 O387 1.255 . S
C393 O394 1.258 . S
C393 O395 1.256 . S
O394 Cd386 2.381 . S
O394 C393 1.258 . S
O395 Cd386 2.378 . S
O395 C393 1.256 . S
O396 Cd397 2.300 . S
O396 C403 1.275 . S
Cd397 O396 2.300 . S
Cd397 O405 2.381 . S
Cd397 O406 2.378 . S
O398 Cd399 2.385 . S
O398 C403 1.255 . S
Cd399 O398 2.385 . S
Cd399 O400 2.317 . S
O400 Cd399 2.317 . S
O400 C401 1.232 . S
C401 O400 1.232 . S
C401 O402 1.218 . S
O402 C401 1.218 . S
C403 O396 1.275 . S
C403 O398 1.255 . S
C404 O405 1.258 . S
C404 O406 1.256 . S
O405 Cd397 2.381 . S
O405 C404 1.258 . S
O406 Cd397 2.378 . S
O406 C404 1.256 . S
O407 Cd408 2.300 . S
O407 C414 1.275 . S
Cd408 O407 2.300 . S
Cd408 O416 2.381 . S
Cd408 O417 2.378 . S
O409 Cd410 2.385 . S
O409 C414 1.255 . S
Cd410 O409 2.385 . S
Cd410 O411 2.317 . S
O411 Cd410 2.317 . S
O411 C412 1.232 . S
C412 O411 1.232 . S
C412 O413 1.218 . S
O413 C412 1.218 . S
C414 O407 1.275 . S
C414 O409 1.255 . S
C415 O416 1.258 . S
C415 O417 1.256 . S
O416 Cd408 2.381 . S
O416 C415 1.258 . S
O417 Cd408 2.378 . S
O417 C415 1.256 . S
O418 Cd419 2.300 . S
O418 C425 1.275 . S
Cd419 O418 2.300 . S
Cd419 O427 2.381 . S
Cd419 O428 2.378 . S
O420 Cd421 2.385 . S
O420 C425 1.255 . S
Cd421 O420 2.385 . S
Cd421 O422 2.317 . S
O422 Cd421 2.317 . S
O422 C423 1.232 . S
C423 O422 1.232 . S
C423 O424 1.218 . S
O424 C423 1.218 . S
C425 O418 1.275 . S
C425 O420 1.255 . S
C426 O427 1.258 . S
C426 O428 1.256 . S
O427 Cd419 2.381 . S
O427 C426 1.258 . S
O428 Cd419 2.378 . S
O428 C426 1.256 . S
O429 Cd430 2.300 . S
O429 C436 1.275 . S
Cd430 O429 2.300 . S
Cd430 O438 2.381 . S
Cd430 O439 2.378 . S
O431 Cd432 2.385 . S
O431 C436 1.255 . S
Cd432 O431 2.385 . S
Cd432 O433 2.317 . S
O433 Cd432 2.317 . S
O433 C434 1.232 . S
C434 O433 1.232 . S
C434 O435 1.218 . S
O435 C434 1.218 . S
C436 O429 1.275 . S
C436 O431 1.255 . S
C437 O438 1.258 . S
C437 O439 1.256 . S
O438 Cd430 2.381 . S
O438 C437 1.258 . S
O439 Cd430 2.378 . S
O439 C437 1.256 . S
O440 Cd441 2.300 . S
O440 C447 1.275 . S
Cd441 O440 2.300 . S
Cd441 O449 2.381 . S
Cd441 O450 2.378 . S
O442 Cd443 2.385 . S
O442 C447 1.255 . S
Cd443 O442 2.385 . S
Cd443 O444 2.317 . S
O444 Cd443 2.317 . S
O444 C445 1.232 . S
C445 O444 1.232 . S
C445 O446 1.218 . S
O446 C445 1.218 . S
C447 O440 1.275 . S
C447 O442 1.255 . S
C448 O449 1.258 . S
C448 O450 1.256 . S
O449 Cd441 2.381 . S
O449 C448 1.258 . S
O450 Cd441 2.378 . S
O450 C448 1.256 . S
O451 Cd452 2.300 . S
O451 C458 1.275 . S
Cd452 O451 2.300 . S
Cd452 O460 2.381 . S
Cd452 O461 2.378 . S
O453 Cd454 2.385 . S
O453 C458 1.255 . S
Cd454 O453 2.385 . S
Cd454 O455 2.317 . S
O455 Cd454 2.317 . S
O455 C456 1.232 . S
C456 O455 1.232 . S
C456 O457 1.218 . S
O457 C456 1.218 . S
C458 O451 1.275 . S
C458 O453 1.255 . S
C459 O460 1.258 . S
C459 O461 1.256 . S
O460 Cd452 2.381 . S
O460 C459 1.258 . S
O461 Cd452 2.378 . S
O461 C459 1.256 . S
O462 Cd463 2.300 . S
O462 C469 1.275 . S
Cd463 O462 2.300 . S
Cd463 O471 2.381 . S
Cd463 O472 2.378 . S
O464 Cd465 2.385 . S
O464 C469 1.255 . S
Cd465 O464 2.385 . S
Cd465 O466 2.317 . S
O466 Cd465 2.317 . S
O466 C467 1.232 . S
C467 O466 1.232 . S
C467 O468 1.218 . S
O468 C467 1.218 . S
C469 O462 1.275 . S
C469 O464 1.255 . S
C470 O471 1.258 . S
C470 O472 1.256 . S
O471 Cd463 2.381 . S
O471 C470 1.258 . S
O472 Cd463 2.378 . S
O472 C470 1.256 . S
O473 Cd474 2.300 . S
O473 C480 1.275 . S
Cd474 O473 2.300 . S
Cd474 O482 2.381 . S
Cd474 O483 2.378 . S
O475 Cd476 2.385 . S
O475 C480 1.255 . S
Cd476 O475 2.385 . S
Cd476 O477 2.317 . S
O477 Cd476 2.317 . S
O477 C478 1.232 . S
C478 O477 1.232 . S
C478 O479 1.218 . S
O479 C478 1.218 . S
C480 O473 1.275 . S
C480 O475 1.255 . S
C481 O482 1.258 . S
C481 O483 1.256 . S
O482 Cd474 2.381 . S
O482 C481 1.258 . S
O483 Cd474 2.378 . S
O483 C481 1.256 . S
O484 Cd485 2.300 . S
O484 C491 1.275 . S
Cd485 O484 2.300 . S
Cd485 O493 2.381 . S
Cd485 O494 2.378 . S
O486 Cd487 2.385 . S
O486 C491 1.255 . S
Cd487 O486 2.385 . S
Cd487 O488 2.317 . S
O488 Cd487 2.317 . S
O488 C489 1.232 . S
C489 O488 1.232 . S
C489 O490 1.218 . S
O490 C489 1.218 . S
C491 O484 1.275 . S
C491 O486 1.255 . S
C492 O493 1.258 . S
C492 O494 1.256 . S
O493 Cd485 2.381 . S
O493 C492 1.258 . S
O494 Cd485 2.378 . S
O494 C492 1.256 . S
O495 Cd496 2.300 . S
O495 C502 1.275 . S
Cd496 O495 2.300 . S
Cd496 O504 2.381 . S
Cd496 O505 2.378 . S
O497 Cd498 2.385 . S
O497 C502 1.255 . S
Cd498 O497 2.385 . S
Cd498 O499 2.317 . S
O499 Cd498 2.317 . S
O499 C500 1.232 . S
C500 O499 1.232 . S
C500 O501 1.218 . S
O501 C500 1.218 . S
C502 O495 1.275 . S
C502 O497 1.255 . S
C503 O504 1.258 . S
C503 O505 1.256 . S
O504 Cd496 2.381 . S
O504 C503 1.258 . S
O505 Cd496 2.378 . S
O505 C503 1.256 . S
O506 Cd507 2.300 . S
O506 C513 1.275 . S
Cd507 O506 2.300 . S
Cd507 O515 2.381 . S
Cd507 O516 2.378 . S
O508 Cd509 2.385 . S
O508 C513 1.255 . S
Cd509 O508 2.385 . S
Cd509 O510 2.317 . S
O510 Cd509 2.317 . S
O510 C511 1.232 . S
C511 O510 1.232 . S
C511 O512 1.218 . S
O512 C511 1.218 . S
C513 O506 1.275 . S
C513 O508 1.255 . S
C514 O515 1.258 . S
C514 O516 1.256 . S
O515 Cd507 2.381 . S
O515 C514 1.258 . S
O516 Cd507 2.378 . S
O516 C514 1.256 . S
O517 Cd518 2.300 . S
O517 C524 1.275 . S
Cd518 O517 2.300 . S
Cd518 O526 2.381 . S
Cd518 O527 2.378 . S
O519 Cd520 2.385 . S
O519 C524 1.255 . S
Cd520 O519 2.385 . S
Cd520 O521 2.317 . S
O521 Cd520 2.317 . S
O521 C522 1.232 . S
C522 O521 1.232 . S
C522 O523 1.218 . S
O523 C522 1.218 . S
C524 O517 1.275 . S
C524 O519 1.255 . S
C525 O526 1.258 . S
C525 O527 1.256 . S
O526 Cd518 2.381 . S
O526 C525 1.258 . S
O527 Cd518 2.378 . S
O527 C525 1.256 . S
H528 C534 0.930 . S
H529 C538 0.930 . S
H530 C543 0.929 . S
H531 C541 0.929 . S
H532 C536 0.929 . S
H533 C542 0.929 . S
C534 H528 0.930 . S
C534 C535 1.367 . S
C534 C542 1.378 . S
C535 C534 1.367 . S
C535 C543 1.433 . S
C536 H532 0.929 . S
C536 C538 1.378 . S
C536 C540 1.350 . S
C537 C540 1.463 . S
C537 C542 1.350 . S
C537 N545 1.427 . S
C538 H529 0.930 . S
C538 C536 1.378 . S
C538 C539 1.367 . S
C539 C538 1.367 . S
C539 C541 1.433 . S
C540 C536 1.350 . S
C540 C537 1.463 . S
C540 N544 1.427 . S
C541 H531 0.929 . S
C541 C539 1.433 . S
C541 N544 1.384 . S
C542 H533 0.929 . S
C542 C534 1.378 . S
C542 C537 1.350 . S
C543 H530 0.929 . S
C543 C535 1.433 . S
C543 N545 1.384 . S
N544 C540 1.427 . S
N544 C541 1.384 . S
N545 C537 1.427 . S
N545 C543 1.384 . S
H546 C552 0.930 . S
H547 C556 0.930 . S
H548 C561 0.929 . S
H549 C559 0.929 . S
H550 C554 0.929 . S
H551 C560 0.929 . S
C552 H546 0.930 . S
C552 C553 1.367 . S
C552 C560 1.378 . S
C553 C552 1.367 . S
C553 C561 1.433 . S
C554 H550 0.929 . S
C554 C556 1.378 . S
C554 C558 1.350 . S
C555 C558 1.463 . S
C555 C560 1.350 . S
C555 N563 1.427 . S
C556 H547 0.930 . S
C556 C554 1.378 . S
C556 C557 1.367 . S
C557 C556 1.367 . S
C557 C559 1.433 . S
C558 C554 1.350 . S
C558 C555 1.463 . S
C558 N562 1.427 . S
C559 H549 0.929 . S
C559 C557 1.433 . S
C559 N562 1.384 . S
C560 H551 0.929 . S
C560 C552 1.378 . S
C560 C555 1.350 . S
C561 H548 0.929 . S
C561 C553 1.433 . S
C561 N563 1.384 . S
N562 C558 1.427 . S
N562 C559 1.384 . S
N563 C555 1.427 . S
N563 C561 1.384 . S
H564 C570 0.930 . S
H565 C574 0.930 . S
H566 C579 0.929 . S
H567 C577 0.929 . S
H568 C572 0.929 . S
H569 C578 0.929 . S
C570 H564 0.930 . S
C570 C571 1.367 . S
C570 C578 1.378 . S
C571 C570 1.367 . S
C571 C579 1.433 . S
C572 H568 0.929 . S
C572 C574 1.378 . S
C572 C576 1.350 . S
C573 C576 1.463 . S
C573 C578 1.350 . S
C573 N581 1.427 . S
C574 H565 0.930 . S
C574 C572 1.378 . S
C574 C575 1.367 . S
C575 C574 1.367 . S
C575 C577 1.433 . S
C576 C572 1.350 . S
C576 C573 1.463 . S
C576 N580 1.427 . S
C577 H567 0.929 . S
C577 C575 1.433 . S
C577 N580 1.384 . S
C578 H569 0.929 . S
C578 C570 1.378 . S
C578 C573 1.350 . S
C579 H566 0.929 . S
C579 C571 1.433 . S
C579 N581 1.384 . S
N580 C576 1.427 . S
N580 C577 1.384 . S
N581 C573 1.427 . S
N581 C579 1.384 . S
H582 C588 0.930 . S
H583 C592 0.936 . S
H584 C597 0.929 . S
H585 C595 0.929 . S
H586 C590 0.929 . S
H587 C596 0.929 . S
C588 H582 0.930 . S
C588 C589 1.367 . S
C588 C596 1.378 . S
C589 C588 1.367 . S
C589 C597 1.433 . S
C590 H586 0.929 . S
C590 C592 1.320 1_545 S
C590 C594 1.350 . S
C591 C594 1.463 . S
C591 C596 1.350 . S
C591 N599 1.427 . S
C592 H583 0.936 . S
C592 C590 1.320 1_565 S
C592 C593 1.423 . S
C593 C592 1.423 . S
C593 C595 1.433 . S
C594 C590 1.350 . S
C594 C591 1.463 . S
C594 N598 1.427 . S
C595 H585 0.929 . S
C595 C593 1.433 . S
C595 N598 1.384 1_565 S
C596 H587 0.929 . S
C596 C588 1.378 . S
C596 C591 1.350 . S
C597 H584 0.929 . S
C597 C589 1.433 . S
C597 N599 1.384 . S
N598 C594 1.427 . S
N598 C595 1.384 1_545 S
N599 C591 1.427 . S
N599 C597 1.384 . S
H600 C606 0.930 . S
H601 C610 0.930 . S
H602 C615 0.929 . S
H603 C613 0.929 . S
H604 C608 0.929 . S
H605 C614 0.929 . S
C606 H600 0.930 . S
C606 C607 1.367 . S
C606 C614 1.378 . S
C607 C606 1.367 . S
C607 C615 1.433 . S
C608 H604 0.929 . S
C608 C610 1.378 . S
C608 C612 1.350 . S
C609 C612 1.463 . S
C609 C614 1.350 . S
C609 N617 1.427 . S
C610 H601 0.930 . S
C610 C608 1.378 . S
C610 C611 1.367 . S
C611 C610 1.367 . S
C611 C613 1.433 . S
C612 C608 1.350 . S
C612 C609 1.463 . S
C612 N616 1.427 . S
C613 H603 0.929 . S
C613 C611 1.433 . S
C613 N616 1.384 . S
C614 H605 0.929 . S
C614 C606 1.378 . S
C614 C609 1.350 . S
C615 H602 0.929 . S
C615 C607 1.433 . S
C615 N617 1.384 . S
N616 C612 1.427 . S
N616 C613 1.384 . S
N617 C609 1.427 . S
N617 C615 1.384 . S
H618 C624 0.930 . S
H619 C628 0.930 . S
H620 C633 0.929 . S
H621 C631 0.929 . S
H622 C626 0.929 . S
H623 C632 0.929 . S
C624 H618 0.930 . S
C624 C625 1.367 . S
C624 C632 1.378 . S
C625 C624 1.367 . S
C625 C633 1.433 . S
C626 H622 0.929 . S
C626 C628 1.378 . S
C626 C630 1.350 . S
C627 C630 1.463 . S
C627 C632 1.350 . S
C627 N635 1.427 . S
C628 H619 0.930 . S
C628 C626 1.378 . S
C628 C629 1.367 . S
C629 C628 1.367 . S
C629 C631 1.433 . S
C630 C626 1.350 . S
C630 C627 1.463 . S
C630 N634 1.427 . S
C631 H621 0.929 . S
C631 C629 1.433 . S
C631 N634 1.384 . S
C632 H623 0.929 . S
C632 C624 1.378 . S
C632 C627 1.350 . S
C633 H620 0.929 . S
C633 C625 1.433 . S
C633 N635 1.384 . S
N634 C630 1.427 . S
N634 C631 1.384 . S
N635 C627 1.427 . S
N635 C633 1.384 . S
H636 C642 0.930 . S
H637 C646 0.930 . S
H638 C651 0.929 . S
H639 C649 0.929 . S
H640 C644 0.929 . S
H641 C650 0.929 . S
C642 H636 0.930 . S
C642 C643 1.367 . S
C642 C650 1.378 . S
C643 C642 1.367 . S
C643 C651 1.433 . S
C644 H640 0.929 . S
C644 C646 1.378 . S
C644 C648 1.350 . S
C645 C648 1.463 . S
C645 C650 1.350 . S
C645 N653 1.427 . S
C646 H637 0.930 . S
C646 C644 1.378 . S
C646 C647 1.367 . S
C647 C646 1.367 . S
C647 C649 1.433 . S
C648 C644 1.350 . S
C648 C645 1.463 . S
C648 N652 1.427 . S
C649 H639 0.929 . S
C649 C647 1.433 . S
C649 N652 1.384 . S
C650 H641 0.929 . S
C650 C642 1.378 . S
C650 C645 1.350 . S
C651 H638 0.929 . S
C651 C643 1.433 . S
C651 N653 1.384 . S
N652 C648 1.427 . S
N652 C649 1.384 . S
N653 C645 1.427 . S
N653 C651 1.384 . S
H654 C660 0.930 . S
H655 C664 0.930 . S
H656 C669 0.929 . S
H657 C667 0.929 . S
H658 C662 0.929 . S
H659 C668 0.929 . S
C660 H654 0.930 . S
C660 C661 1.367 . S
C660 C668 1.378 . S
C661 C660 1.367 . S
C661 C669 1.433 . S
C662 H658 0.929 . S
C662 C664 1.378 . S
C662 C666 1.350 . S
C663 C666 1.463 . S
C663 C668 1.350 . S
C663 N671 1.427 . S
C664 H655 0.930 . S
C664 C662 1.378 . S
C664 C665 1.367 . S
C665 C664 1.367 . S
C665 C667 1.433 . S
C666 C662 1.350 . S
C666 C663 1.463 . S
C666 N670 1.427 . S
C667 H657 0.929 . S
C667 C665 1.433 . S
C667 N670 1.384 . S
C668 H659 0.929 . S
C668 C660 1.378 . S
C668 C663 1.350 . S
C669 H656 0.929 . S
C669 C661 1.433 . S
C669 N671 1.384 . S
N670 C666 1.427 . S
N670 C667 1.384 . S
N671 C663 1.427 . S
N671 C669 1.384 . S
H672 C678 0.930 . S
H673 C682 0.930 . S
H674 C687 0.929 . S
H675 C685 0.929 . S
H676 C680 0.929 . S
H677 C686 0.929 . S
C678 H672 0.930 . S
C678 C679 1.367 . S
C678 C686 1.378 . S
C679 C678 1.367 . S
C679 C687 1.433 . S
C680 H676 0.929 . S
C680 C682 1.378 . S
C680 C684 1.350 . S
C681 C684 1.463 . S
C681 C686 1.350 . S
C681 N689 1.427 . S
C682 H673 0.930 . S
C682 C680 1.378 . S
C682 C683 1.367 . S
C683 C682 1.367 . S
C683 C685 1.433 . S
C684 C680 1.350 . S
C684 C681 1.463 . S
C684 N688 1.427 . S
C685 H675 0.929 . S
C685 C683 1.433 . S
C685 N688 1.384 . S
C686 H677 0.929 . S
C686 C678 1.378 . S
C686 C681 1.350 . S
C687 H674 0.929 . S
C687 C679 1.433 . S
C687 N689 1.384 . S
N688 C684 1.427 . S
N688 C685 1.384 . S
N689 C681 1.427 . S
N689 C687 1.384 . S
H690 C696 0.930 . S
H691 C700 0.930 . S
H692 C705 0.929 . S
H693 C703 0.929 . S
H694 C698 0.929 . S
H695 C704 0.894 1_655 S
C696 H690 0.930 . S
C696 C697 1.367 . S
C696 C704 1.378 . S
C697 C696 1.367 . S
C697 C705 1.433 . S
C698 H694 0.929 . S
C698 C700 1.378 . S
C698 C702 1.350 . S
C699 C702 1.411 1_455 S
C699 C704 1.365 . S
C699 N707 1.466 . S
C700 H691 0.930 . S
C700 C698 1.378 . S
C700 C701 1.367 . S
C701 C700 1.367 . S
C701 C703 1.433 . S
C702 C698 1.350 . S
C702 C699 1.411 1_655 S
C702 N706 1.427 . S
C703 H693 0.929 . S
C703 C701 1.433 . S
C703 N706 1.384 . S
C704 H695 0.894 1_455 S
C704 C696 1.378 . S
C704 C699 1.365 . S
C705 H692 0.929 . S
C705 C697 1.433 . S
C705 N707 1.384 . S
N706 C702 1.427 . S
N706 C703 1.384 . S
N707 C699 1.466 . S
N707 C705 1.384 . S
H708 C714 0.930 . S
H709 C718 0.930 . S
H710 C723 0.929 . S
H711 C721 0.929 . S
H712 C716 0.929 . S
H713 C722 0.929 . S
C714 H708 0.930 . S
C714 C715 1.367 . S
C714 C722 1.378 . S
C715 C714 1.367 . S
C715 C723 1.433 . S
C716 H712 0.929 . S
C716 C718 1.378 . S
C716 C720 1.350 1_545 S
C717 C720 1.463 . S
C717 C722 1.350 . S
C717 N725 1.427 . S
C718 H709 0.930 . S
C718 C716 1.378 . S
C718 C719 1.367 . S
C719 C718 1.367 . S
C719 C721 1.433 . S
C720 C716 1.350 1_565 S
C720 C717 1.463 . S
C720 N724 1.427 . S
C721 H711 0.929 . S
C721 C719 1.433 . S
C721 N724 1.384 1_545 S
C722 H713 0.929 . S
C722 C714 1.378 . S
C722 C717 1.350 . S
C723 H710 0.929 . S
C723 C715 1.433 . S
C723 N725 1.384 . S
N724 C720 1.427 . S
N724 C721 1.384 1_565 S
N725 C717 1.427 . S
N725 C723 1.384 . S
H726 C732 0.930 . S
H727 C736 0.930 . S
H728 C741 0.929 . S
H729 C739 0.929 . S
H730 C734 0.929 . S
H731 C740 0.929 . S
C732 H726 0.930 . S
C732 C733 1.367 . S
C732 C740 1.378 . S
C733 C732 1.367 . S
C733 C741 1.433 . S
C734 H730 0.929 . S
C734 C736 1.378 . S
C734 C738 1.350 . S
C735 C738 1.463 . S
C735 C740 1.350 . S
C735 N743 1.427 . S
C736 H727 0.930 . S
C736 C734 1.378 . S
C736 C737 1.367 . S
C737 C736 1.367 . S
C737 C739 1.433 . S
C738 C734 1.350 . S
C738 C735 1.463 . S
C738 N742 1.427 . S
C739 H729 0.929 . S
C739 C737 1.433 . S
C739 N742 1.384 . S
C740 H731 0.929 . S
C740 C732 1.378 . S
C740 C735 1.350 . S
C741 H728 0.929 . S
C741 C733 1.433 . S
C741 N743 1.384 . S
N742 C738 1.427 . S
N742 C739 1.384 . S
N743 C735 1.427 . S
N743 C741 1.384 . S
H744 C750 0.930 . S
H745 C754 0.930 . S
H746 C759 0.929 . S
H747 C757 0.929 . S
H748 C752 0.929 . S
H749 C758 0.929 . S
C750 H744 0.930 . S
C750 C751 1.367 . S
C750 C758 1.378 . S
C751 C750 1.367 . S
C751 C759 1.433 . S
C752 H748 0.929 . S
C752 C754 1.378 . S
C752 C756 1.350 . S
C753 C756 1.463 . S
C753 C758 1.350 . S
C753 N761 1.427 . S
C754 H745 0.930 . S
C754 C752 1.378 . S
C754 C755 1.367 . S
C755 C754 1.367 . S
C755 C757 1.433 . S
C756 C752 1.350 . S
C756 C753 1.463 . S
C756 N760 1.427 . S
C757 H747 0.929 . S
C757 C755 1.433 . S
C757 N760 1.384 . S
C758 H749 0.929 . S
C758 C750 1.378 . S
C758 C753 1.350 . S
C759 H746 0.929 . S
C759 C751 1.433 . S
C759 N761 1.384 . S
N760 C756 1.427 . S
N760 C757 1.384 . S
N761 C753 1.427 . S
N761 C759 1.384 . S
H762 C768 0.930 . S
H763 C772 0.930 . S
H764 C777 0.929 . S
H765 C775 0.929 . S
H766 C770 0.929 . S
H767 C776 0.929 . S
C768 H762 0.930 . S
C768 C769 1.367 . S
C768 C776 1.378 . S
C769 C768 1.367 . S
C769 C777 1.433 . S
C770 H766 0.929 . S
C770 C772 1.378 . S
C770 C774 1.350 . S
C771 C774 1.463 . S
C771 C776 1.350 . S
C771 N779 1.427 . S
C772 H763 0.930 . S
C772 C770 1.378 . S
C772 C773 1.367 . S
C773 C772 1.367 . S
C773 C775 1.433 . S
C774 C770 1.350 . S
C774 C771 1.463 . S
C774 N778 1.427 . S
C775 H765 0.929 . S
C775 C773 1.433 . S
C775 N778 1.384 . S
C776 H767 0.929 . S
C776 C768 1.378 . S
C776 C771 1.350 . S
C777 H764 0.929 . S
C777 C769 1.433 . S
C777 N779 1.384 . S
N778 C774 1.427 . S
N778 C775 1.384 . S
N779 C771 1.427 . S
N779 C777 1.384 . S
H780 C786 0.930 . S
H781 C790 0.930 . S
H782 C795 0.929 . S
H783 C793 0.929 . S
H784 C788 0.929 . S
H785 C794 0.929 . S
C786 H780 0.930 . S
C786 C787 1.367 . S
C786 C794 1.378 . S
C787 C786 1.367 . S
C787 C795 1.433 . S
C788 H784 0.929 . S
C788 C790 1.378 . S
C788 C792 1.350 . S
C789 C792 1.463 . S
C789 C794 1.350 . S
C789 N797 1.427 . S
C790 H781 0.930 . S
C790 C788 1.378 . S
C790 C791 1.367 . S
C791 C790 1.367 . S
C791 C793 1.433 . S
C792 C788 1.350 . S
C792 C789 1.463 . S
C792 N796 1.427 . S
C793 H783 0.929 . S
C793 C791 1.433 . S
C793 N796 1.384 . S
C794 H785 0.929 . S
C794 C786 1.378 . S
C794 C789 1.350 . S
C795 H782 0.929 . S
C795 C787 1.433 . S
C795 N797 1.384 . S
N796 C792 1.427 . S
N796 C793 1.384 . S
N797 C789 1.427 . S
N797 C795 1.384 . S
H798 C804 0.930 . S
H799 C808 0.930 . S
H800 C813 0.929 . S
H801 C811 0.929 . S
H802 C806 0.929 . S
H803 C812 0.929 . S
C804 H798 0.930 . S
C804 C805 1.367 . S
C804 C812 1.378 . S
C805 C804 1.367 . S
C805 C813 1.433 . S
C806 H802 0.929 . S
C806 C808 1.378 . S
C806 C810 1.350 . S
C807 C810 1.463 . S
C807 C812 1.350 . S
C807 N815 1.427 . S
C808 H799 0.930 . S
C808 C806 1.378 . S
C808 C809 1.367 . S
C809 C808 1.367 . S
C809 C811 1.433 . S
C810 C806 1.350 . S
C810 C807 1.463 . S
C810 N814 1.427 . S
C811 H801 0.929 . S
C811 C809 1.433 . S
C811 N814 1.384 . S
C812 H803 0.929 . S
C812 C804 1.378 . S
C812 C807 1.350 . S
C813 H800 0.929 . S
C813 C805 1.433 . S
C813 N815 1.384 . S
N814 C810 1.427 . S
N814 C811 1.384 . S
N815 C807 1.427 . S
N815 C813 1.384 . S
H816 C822 0.930 . S
H817 C826 0.930 . S
H818 C831 0.929 . S
H819 C829 0.929 . S
H820 C824 0.929 . S
H821 C830 0.929 . S
C822 H816 0.930 . S
C822 C823 1.367 . S
C822 C830 1.378 . S
C823 C822 1.367 . S
C823 C831 1.433 . S
C824 H820 0.929 . S
C824 C826 1.378 . S
C824 C828 1.350 . S
C825 C828 1.463 . S
C825 C830 1.350 . S
C825 N833 1.427 . S
C826 H817 0.930 . S
C826 C824 1.378 . S
C826 C827 1.367 . S
C827 C826 1.367 . S
C827 C829 1.433 . S
C828 C824 1.350 . S
C828 C825 1.463 . S
C828 N832 1.427 . S
C829 H819 0.929 . S
C829 C827 1.433 . S
C829 N832 1.384 . S
C830 H821 0.929 . S
C830 C822 1.378 . S
C830 C825 1.350 . S
C831 H818 0.929 . S
C831 C823 1.433 . S
C831 N833 1.384 . S
N832 C828 1.427 . S
N832 C829 1.384 . S
N833 C825 1.427 . S
N833 C831 1.384 . S
H834 C840 0.930 . S
H835 C844 0.930 . S
H836 C849 0.929 . S
H837 C847 0.929 . S
H838 C842 0.929 . S
H839 C848 0.929 . S
C840 H834 0.930 . S
C840 C841 1.367 . S
C840 C848 1.378 . S
C841 C840 1.367 . S
C841 C849 1.433 1_556 S
C842 H838 0.929 . S
C842 C844 1.378 . S
C842 C846 1.350 . S
C843 C846 1.463 . S
C843 C848 1.350 . S
C843 N851 1.427 . S
C844 H835 0.930 . S
C844 C842 1.378 . S
C844 C845 1.367 . S
C845 C844 1.367 . S
C845 C847 1.433 . S
C846 C842 1.350 . S
C846 C843 1.463 . S
C846 N850 1.427 . S
C847 H837 0.929 . S
C847 C845 1.433 . S
C847 N850 1.384 . S
C848 H839 0.929 . S
C848 C840 1.378 . S
C848 C843 1.350 . S
C849 H836 0.929 . S
C849 C841 1.433 1_554 S
C849 N851 1.384 1_554 S
N850 C846 1.427 . S
N850 C847 1.384 . S
N851 C843 1.427 . S
N851 C849 1.384 1_556 S
H852 C858 0.930 . S
H853 C862 0.930 . S
H854 C867 0.929 . S
H855 C865 0.929 . S
H856 C860 0.929 . S
H857 C866 0.929 . S
C858 H852 0.930 . S
C858 C859 1.367 . S
C858 C866 1.378 . S
C859 C858 1.367 . S
C859 C867 1.433 . S
C860 H856 0.929 . S
C860 C862 1.378 . S
C860 C864 1.350 . S
C861 C864 1.463 . S
C861 C866 1.350 . S
C861 N869 1.427 . S
C862 H853 0.930 . S
C862 C860 1.378 . S
C862 C863 1.367 . S
C863 C862 1.367 . S
C863 C865 1.433 . S
C864 C860 1.350 . S
C864 C861 1.463 . S
C864 N868 1.427 . S
C865 H855 0.929 . S
C865 C863 1.433 . S
C865 N868 1.384 . S
C866 H857 0.929 . S
C866 C858 1.378 . S
C866 C861 1.350 . S
C867 H854 0.929 . S
C867 C859 1.433 . S
C867 N869 1.384 . S
N868 C864 1.427 . S
N868 C865 1.384 . S
N869 C861 1.427 . S
N869 C867 1.384 . S
H870 C876 0.930 . S
H871 C880 0.930 . S
H872 C885 0.929 . S
H873 C883 0.866 1_554 S
H874 C878 0.929 . S
H875 C884 0.929 . S
C876 H870 0.930 . S
C876 C877 1.367 . S
C876 C884 1.378 . S
C877 C876 1.367 . S
C877 C885 1.433 . S
C878 H874 0.929 . S
C878 C880 1.378 . S
C878 C882 1.350 . S
C879 C882 1.463 . S
C879 C884 1.350 . S
C879 N887 1.427 . S
C880 H871 0.930 . S
C880 C878 1.378 . S
C880 C881 1.367 . S
C881 C880 1.367 . S
C881 C883 1.433 . S
C882 C878 1.350 . S
C882 C879 1.463 . S
C882 N886 1.427 . S
C883 H873 0.866 1_556 S
C883 C881 1.433 . S
C883 N886 1.384 . S
C884 H875 0.929 . S
C884 C876 1.378 . S
C884 C879 1.350 . S
C885 H872 0.929 . S
C885 C877 1.433 . S
C885 N887 1.384 . S
N886 C882 1.427 . S
N886 C883 1.384 . S
N887 C879 1.427 . S
N887 C885 1.384 . S
H888 C894 0.930 . S
H889 C898 0.940 . S
H890 C903 0.929 . S
H891 C901 0.929 . S
H892 C896 0.929 . S
H893 C902 0.929 . S
C894 H888 0.930 . S
C894 C895 1.367 . S
C894 C902 1.378 . S
C895 C894 1.367 . S
C895 C903 1.433 . S
C896 H892 0.929 . S
C896 C898 1.378 1_556 S
C896 C900 1.350 . S
C897 C900 1.463 . S
C897 C902 1.350 . S
C897 N905 1.427 . S
C898 H889 0.940 . S
C898 C896 1.378 1_554 S
C898 C899 1.367 . S
C899 C898 1.367 . S
C899 C901 1.433 . S
C900 C896 1.350 . S
C900 C897 1.463 . S
C900 N904 1.427 1_556 S
C901 H891 0.929 . S
C901 C899 1.433 . S
C901 N904 1.384 . S
C902 H893 0.929 . S
C902 C894 1.378 . S
C902 C897 1.350 . S
C903 H890 0.929 . S
C903 C895 1.433 . S
C903 N905 1.384 . S
N904 C900 1.427 1_554 S
N904 C901 1.384 . S
N905 C897 1.427 . S
N905 C903 1.384 . S
H906 C912 0.930 . S
H907 C916 0.930 . S
H908 C921 0.929 . S
H909 C919 0.929 . S
H910 C914 0.929 . S
H911 C920 0.929 . S
C912 H906 0.930 . S
C912 C913 1.367 . S
C912 C920 1.378 . S
C913 C912 1.367 . S
C913 C921 1.433 . S
C914 H910 0.929 . S
C914 C916 1.378 . S
C914 C918 1.350 . S
C915 C918 1.463 . S
C915 C920 1.350 . S
C915 N923 1.427 . S
C916 H907 0.930 . S
C916 C914 1.378 . S
C916 C917 1.367 . S
C917 C916 1.367 . S
C917 C919 1.433 . S
C918 C914 1.350 . S
C918 C915 1.463 . S
C918 N922 1.427 . S
C919 H909 0.929 . S
C919 C917 1.433 . S
C919 N922 1.384 . S
C920 H911 0.929 . S
C920 C912 1.378 . S
C920 C915 1.350 . S
C921 H908 0.929 . S
C921 C913 1.433 . S
C921 N923 1.384 . S
N922 C918 1.427 . S
N922 C919 1.384 . S
N923 C915 1.427 . S
N923 C921 1.384 . S
H924 C930 0.930 . S
H925 C934 0.930 . S
H926 C939 0.929 . S
H927 C937 0.929 . S
H928 C932 0.929 . S
H929 C938 0.929 . S
C930 H924 0.930 . S
C930 C931 1.367 . S
C930 C938 1.378 . S
C931 C930 1.367 . S
C931 C939 1.433 . S
C932 H928 0.929 . S
C932 C934 1.378 . S
C932 C936 1.350 . S
C933 C936 1.463 . S
C933 C938 1.350 . S
C933 N941 1.427 . S
C934 H925 0.930 . S
C934 C932 1.378 . S
C934 C935 1.367 . S
C935 C934 1.367 . S
C935 C937 1.433 . S
C936 C932 1.350 . S
C936 C933 1.463 . S
C936 N940 1.427 . S
C937 H927 0.929 . S
C937 C935 1.433 . S
C937 N940 1.384 . S
C938 H929 0.929 . S
C938 C930 1.378 . S
C938 C933 1.350 . S
C939 H926 0.929 . S
C939 C931 1.433 . S
C939 N941 1.384 . S
N940 C936 1.427 . S
N940 C937 1.384 . S
N941 C933 1.427 . S
N941 C939 1.384 . S
H942 C948 0.930 . S
H943 C952 0.930 . S
H944 C957 0.929 . S
H945 C955 0.929 . S
H946 C950 0.929 . S
H947 C956 0.929 . S
C948 H942 0.930 . S
C948 C949 1.367 . S
C948 C956 1.378 . S
C949 C948 1.367 . S
C949 C957 1.433 . S
C950 H946 0.929 . S
C950 C952 1.378 . S
C950 C954 1.350 . S
C951 C954 1.463 . S
C951 C956 1.350 . S
C951 N959 1.427 . S
C952 H943 0.930 . S
C952 C950 1.378 . S
C952 C953 1.367 . S
C953 C952 1.367 . S
C953 C955 1.433 . S
C954 C950 1.350 . S
C954 C951 1.463 . S
C954 N958 1.427 . S
C955 H945 0.929 . S
C955 C953 1.433 . S
C955 N958 1.384 . S
C956 H947 0.929 . S
C956 C948 1.378 . S
C956 C951 1.350 . S
C957 H944 0.929 . S
C957 C949 1.433 . S
C957 N959 1.384 . S
N958 C954 1.427 . S
N958 C955 1.384 . S
N959 C951 1.427 . S
N959 C957 1.384 . S
H960 C966 0.930 . S
H961 C970 0.930 . S
H962 C975 0.929 . S
H963 C973 0.929 . S
H964 C968 0.929 . S
H965 C974 0.929 . S
C966 H960 0.930 . S
C966 C967 1.367 . S
C966 C974 1.378 . S
C967 C966 1.367 . S
C967 C975 1.433 . S
C968 H964 0.929 . S
C968 C970 1.378 . S
C968 C972 1.350 . S
C969 C972 1.463 . S
C969 C974 1.350 . S
C969 N977 1.427 . S
C970 H961 0.930 . S
C970 C968 1.378 . S
C970 C971 1.367 . S
C971 C970 1.367 . S
C971 C973 1.433 . S
C972 C968 1.350 . S
C972 C969 1.463 . S
C972 N976 1.427 . S
C973 H963 0.929 . S
C973 C971 1.433 . S
C973 N976 1.384 . S
C974 H965 0.929 . S
C974 C966 1.378 . S
C974 C969 1.350 . S
C975 H962 0.929 . S
C975 C967 1.433 . S
C975 N977 1.384 . S
N976 C972 1.427 . S
N976 C973 1.384 . S
N977 C969 1.427 . S
N977 C975 1.384 . S
H978 C984 0.930 . S
H979 C988 0.930 . S
H980 C993 0.929 . S
H981 C991 0.929 . S
H982 C986 0.929 . S
H983 C992 0.929 . S
C984 H978 0.930 . S
C984 C985 1.367 . S
C984 C992 1.378 . S
C985 C984 1.367 . S
C985 C993 1.433 . S
C986 H982 0.929 . S
C986 C988 1.378 . S
C986 C990 1.350 1_545 S
C987 C990 1.463 . S
C987 C992 1.350 . S
C987 N995 1.427 . S
C988 H979 0.930 . S
C988 C986 1.378 . S
C988 C989 1.367 . S
C989 C988 1.367 . S
C989 C991 1.433 1_545 S
C990 C986 1.350 1_565 S
C990 C987 1.463 . S
C990 N994 1.427 . S
C991 H981 0.929 . S
C991 C989 1.433 1_565 S
C991 N994 1.384 . S
C992 H983 0.929 . S
C992 C984 1.378 . S
C992 C987 1.350 . S
C993 H980 0.929 . S
C993 C985 1.433 . S
C993 N995 1.384 . S
N994 C990 1.427 . S
N994 C991 1.384 . S
N995 C987 1.427 . S
N995 C993 1.384 . S
H996 C1002 0.930 . S
H997 C1006 0.930 . S
H998 C1011 0.929 . S
H999 C1009 0.929 . S
H1000 C1004 0.929 . S
H1001 C1010 0.929 . S
C1002 H996 0.930 . S
C1002 C1003 1.367 . S
C1002 C1010 1.378 . S
C1003 C1002 1.367 . S
C1003 C1011 1.433 . S
C1004 H1000 0.929 . S
C1004 C1006 1.378 . S
C1004 C1008 1.350 . S
C1005 C1008 1.463 . S
C1005 C1010 1.350 . S
C1005 N1013 1.427 . S
C1006 H997 0.930 . S
C1006 C1004 1.378 . S
C1006 C1007 1.367 . S
C1007 C1006 1.367 . S
C1007 C1009 1.433 . S
C1008 C1004 1.350 . S
C1008 C1005 1.463 . S
C1008 N1012 1.427 . S
C1009 H999 0.929 . S
C1009 C1007 1.433 . S
C1009 N1012 1.384 . S
C1010 H1001 0.929 . S
C1010 C1002 1.378 . S
C1010 C1005 1.350 . S
C1011 H998 0.929 . S
C1011 C1003 1.433 . S
C1011 N1013 1.384 . S
N1012 C1008 1.427 . S
N1012 C1009 1.384 . S
N1013 C1005 1.427 . S
N1013 C1011 1.384 . S
H1014 C1020 0.930 . S
H1015 C1024 0.930 . S
H1016 C1029 0.929 . S
H1017 C1027 0.929 . S
H1018 C1022 0.929 . S
H1019 C1028 0.929 . S
C1020 H1014 0.930 . S
C1020 C1021 1.367 . S
C1020 C1028 1.378 . S
C1021 C1020 1.367 . S
C1021 C1029 1.433 . S
C1022 H1018 0.929 . S
C1022 C1024 1.378 . S
C1022 C1026 1.350 . S
C1023 C1026 1.463 . S
C1023 C1028 1.350 . S
C1023 N1031 1.427 . S
C1024 H1015 0.930 . S
C1024 C1022 1.378 . S
C1024 C1025 1.367 . S
C1025 C1024 1.367 . S
C1025 C1027 1.433 . S
C1026 C1022 1.350 . S
C1026 C1023 1.463 . S
C1026 N1030 1.427 . S
C1027 H1017 0.929 . S
C1027 C1025 1.433 . S
C1027 N1030 1.384 . S
C1028 H1019 0.929 . S
C1028 C1020 1.378 . S
C1028 C1023 1.350 . S
C1029 H1016 0.929 . S
C1029 C1021 1.433 . S
C1029 N1031 1.384 . S
N1030 C1026 1.427 . S
N1030 C1027 1.384 . S
N1031 C1023 1.427 . S
N1031 C1029 1.384 . S
H1032 C1038 0.930 . S
H1033 C1042 0.930 . S
H1034 C1047 0.929 . S
H1035 C1045 0.929 . S
H1036 C1040 0.929 . S
H1037 C1046 0.929 . S
C1038 H1032 0.930 . S
C1038 C1039 1.367 . S
C1038 C1046 1.378 . S
C1039 C1038 1.367 . S
C1039 C1047 1.433 . S
C1040 H1036 0.929 . S
C1040 C1042 1.378 1_655 S
C1040 C1044 1.350 . S
C1041 C1044 1.463 . S
C1041 C1046 1.350 . S
C1041 N1049 1.427 . S
C1042 H1033 0.930 . S
C1042 C1040 1.378 1_455 S
C1042 C1043 1.367 . S
C1043 C1042 1.367 . S
C1043 C1045 1.433 1_455 S
C1044 C1040 1.350 . S
C1044 C1041 1.463 . S
C1044 N1048 1.427 . S
C1045 H1035 0.929 . S
C1045 C1043 1.433 1_655 S
C1045 N1048 1.384 . S
C1046 H1037 0.929 . S
C1046 C1038 1.378 . S
C1046 C1041 1.350 . S
C1047 H1034 0.929 . S
C1047 C1039 1.433 . S
C1047 N1049 1.384 . S
N1048 C1044 1.427 . S
N1048 C1045 1.384 . S
N1049 C1041 1.427 . S
N1049 C1047 1.384 . S
H1050 C1056 0.930 . S
H1051 C1060 0.930 . S
H1052 C1065 0.929 . S
H1053 C1063 0.929 . S
H1054 C1058 0.929 . S
H1055 C1064 0.929 . S
C1056 H1050 0.930 . S
C1056 C1057 1.367 . S
C1056 C1064 1.378 . S
C1057 C1056 1.367 . S
C1057 C1065 1.433 . S
C1058 H1054 0.929 . S
C1058 C1060 1.378 . S
C1058 C1062 1.350 . S
C1059 C1062 1.463 . S
C1059 C1064 1.350 . S
C1059 N1067 1.427 . S
C1060 H1051 0.930 . S
C1060 C1058 1.378 . S
C1060 C1061 1.367 . S
C1061 C1060 1.367 . S
C1061 C1063 1.433 . S
C1062 C1058 1.350 . S
C1062 C1059 1.463 . S
C1062 N1066 1.427 . S
C1063 H1053 0.929 . S
C1063 C1061 1.433 . S
C1063 N1066 1.384 . S
C1064 H1055 0.929 . S
C1064 C1056 1.378 . S
C1064 C1059 1.350 . S
C1065 H1052 0.929 . S
C1065 C1057 1.433 . S
C1065 N1067 1.384 . S
N1066 C1062 1.427 . S
N1066 C1063 1.384 . S
N1067 C1059 1.427 . S
N1067 C1065 1.384 . S
H1068 C1074 0.930 . S
H1069 C1078 0.930 . S
H1070 C1083 0.929 . S
H1071 C1081 0.929 . S
H1072 C1076 0.929 . S
H1073 C1082 0.929 . S
C1074 H1068 0.930 . S
C1074 C1075 1.367 . S
C1074 C1082 1.378 . S
C1075 C1074 1.367 . S
C1075 C1083 1.433 . S
C1076 H1072 0.929 . S
C1076 C1078 1.378 . S
C1076 C1080 1.350 . S
C1077 C1080 1.463 . S
C1077 C1082 1.350 . S
C1077 N1085 1.427 . S
C1078 H1069 0.930 . S
C1078 C1076 1.378 . S
C1078 C1079 1.367 . S
C1079 C1078 1.367 . S
C1079 C1081 1.433 . S
C1080 C1076 1.350 . S
C1080 C1077 1.463 . S
C1080 N1084 1.427 . S
C1081 H1071 0.929 . S
C1081 C1079 1.433 . S
C1081 N1084 1.384 . S
C1082 H1073 0.929 . S
C1082 C1074 1.378 . S
C1082 C1077 1.350 . S
C1083 H1070 0.929 . S
C1083 C1075 1.433 . S
C1083 N1085 1.384 . S
N1084 C1080 1.427 . S
N1084 C1081 1.384 . S
N1085 C1077 1.427 . S
N1085 C1083 1.384 . S
H1086 C1092 0.930 . S
H1087 C1096 0.930 . S
H1088 C1101 0.929 . S
H1089 C1099 0.929 . S
H1090 C1094 0.929 . S
H1091 C1100 0.929 . S
C1092 H1086 0.930 . S
C1092 C1093 1.367 . S
C1092 C1100 1.378 . S
C1093 C1092 1.367 . S
C1093 C1101 1.433 . S
C1094 H1090 0.929 . S
C1094 C1096 1.378 . S
C1094 C1098 1.350 . S
C1095 C1098 1.463 . S
C1095 C1100 1.350 . S
C1095 N1103 1.427 . S
C1096 H1087 0.930 . S
C1096 C1094 1.378 . S
C1096 C1097 1.367 . S
C1097 C1096 1.367 . S
C1097 C1099 1.433 . S
C1098 C1094 1.350 . S
C1098 C1095 1.463 . S
C1098 N1102 1.427 . S
C1099 H1089 0.929 . S
C1099 C1097 1.433 . S
C1099 N1102 1.384 . S
C1100 H1091 0.929 . S
C1100 C1092 1.378 . S
C1100 C1095 1.350 . S
C1101 H1088 0.929 . S
C1101 C1093 1.433 . S
C1101 N1103 1.384 . S
N1102 C1098 1.427 . S
N1102 C1099 1.384 . S
N1103 C1095 1.427 . S
N1103 C1101 1.384 . S
H1104 C1110 0.930 . S
H1105 C1114 0.930 . S
H1106 C1119 0.929 . S
H1107 C1117 0.929 . S
H1108 C1112 0.929 . S
H1109 C1118 0.929 . S
C1110 H1104 0.930 . S
C1110 C1111 1.379 . S
C1110 C1118 1.378 1_545 S
C1111 C1110 1.379 . S
C1111 C1119 1.377 1_545 S
C1112 H1108 0.929 . S
C1112 C1114 1.378 . S
C1112 C1116 1.350 . S
C1113 C1116 1.463 . S
C1113 C1118 1.350 . S
C1113 N1121 1.427 . S
C1114 H1105 0.930 . S
C1114 C1112 1.378 . S
C1114 C1115 1.367 . S
C1115 C1114 1.367 . S
C1115 C1117 1.433 . S
C1116 C1112 1.350 . S
C1116 C1113 1.463 . S
C1116 N1120 1.427 . S
C1117 H1107 0.929 . S
C1117 C1115 1.433 . S
C1117 N1120 1.384 . S
C1118 H1109 0.929 . S
C1118 C1110 1.378 1_565 S
C1118 C1113 1.350 . S
C1119 H1106 0.929 . S
C1119 C1111 1.377 1_565 S
C1119 N1121 1.384 . S
N1120 C1116 1.427 . S
N1120 C1117 1.384 . S
N1121 C1113 1.427 . S
N1121 C1119 1.384 . S
H1122 C1128 0.930 . S
H1123 C1132 0.930 . S
H1124 C1137 0.929 . S
H1125 C1135 0.929 . S
H1126 C1130 0.929 . S
H1127 C1136 0.929 . S
C1128 H1122 0.930 . S
C1128 C1129 1.367 . S
C1128 C1136 1.378 . S
C1129 C1128 1.367 . S
C1129 C1137 1.433 . S
C1130 H1126 0.929 . S
C1130 C1132 1.378 . S
C1130 C1134 1.350 . S
C1131 C1134 1.463 . S
C1131 C1136 1.350 . S
C1131 N1139 1.427 . S
C1132 H1123 0.930 . S
C1132 C1130 1.378 . S
C1132 C1133 1.367 . S
C1133 C1132 1.367 . S
C1133 C1135 1.433 . S
C1134 C1130 1.350 . S
C1134 C1131 1.463 . S
C1134 N1138 1.427 . S
C1135 H1125 0.929 . S
C1135 C1133 1.433 . S
C1135 N1138 1.384 . S
C1136 H1127 0.929 . S
C1136 C1128 1.378 . S
C1136 C1131 1.350 . S
C1137 H1124 0.929 . S
C1137 C1129 1.433 . S
C1137 N1139 1.384 . S
N1138 C1134 1.427 . S
N1138 C1135 1.384 . S
N1139 C1131 1.427 . S
N1139 C1137 1.384 . S
H1140 C1146 0.930 . S
H1141 C1150 0.930 . S
H1142 C1155 0.929 . S
H1143 C1153 0.929 . S
H1144 C1148 0.929 . S
H1145 C1154 0.929 . S
C1146 H1140 0.930 . S
C1146 C1147 1.367 . S
C1146 C1154 1.378 . S
C1147 C1146 1.367 . S
C1147 C1155 1.433 . S
C1148 H1144 0.929 . S
C1148 C1150 1.378 . S
C1148 C1152 1.350 . S
C1149 C1152 1.463 . S
C1149 C1154 1.350 . S
C1149 N1157 1.427 . S
C1150 H1141 0.930 . S
C1150 C1148 1.378 . S
C1150 C1151 1.367 . S
C1151 C1150 1.367 . S
C1151 C1153 1.433 . S
C1152 C1148 1.350 . S
C1152 C1149 1.463 . S
C1152 N1156 1.427 . S
C1153 H1143 0.929 . S
C1153 C1151 1.433 . S
C1153 N1156 1.384 . S
C1154 H1145 0.929 . S
C1154 C1146 1.378 . S
C1154 C1149 1.350 . S
C1155 H1142 0.929 . S
C1155 C1147 1.433 . S
C1155 N1157 1.384 . S
N1156 C1152 1.427 . S
N1156 C1153 1.384 . S
N1157 C1149 1.427 . S
N1157 C1155 1.384 . S
H1158 C1164 0.930 . S
H1159 C1168 0.930 . S
H1160 C1173 0.929 . S
H1161 C1171 0.929 . S
H1162 C1166 0.929 . S
H1163 C1172 0.929 . S
C1164 H1158 0.930 . S
C1164 C1165 1.367 . S
C1164 C1172 1.378 . S
C1165 C1164 1.367 . S
C1165 C1173 1.433 . S
C1166 H1162 0.929 . S
C1166 C1168 1.378 . S
C1166 C1170 1.350 . S
C1167 C1170 1.463 . S
C1167 C1172 1.350 . S
C1167 N1175 1.427 . S
C1168 H1159 0.930 . S
C1168 C1166 1.378 . S
C1168 C1169 1.367 . S
C1169 C1168 1.367 . S
C1169 C1171 1.433 . S
C1170 C1166 1.350 . S
C1170 C1167 1.463 . S
C1170 N1174 1.427 . S
C1171 H1161 0.929 . S
C1171 C1169 1.433 . S
C1171 N1174 1.384 . S
C1172 H1163 0.929 . S
C1172 C1164 1.378 . S
C1172 C1167 1.350 . S
C1173 H1160 0.929 . S
C1173 C1165 1.433 . S
C1173 N1175 1.384 . S
N1174 C1170 1.427 . S
N1174 C1171 1.384 . S
N1175 C1167 1.427 . S
N1175 C1173 1.384 . S
H1176 C1182 0.930 . S
H1177 C1186 0.930 . S
H1178 C1191 0.929 . S
H1179 C1189 0.929 . S
H1180 C1184 0.929 . S
H1181 C1190 0.929 . S
C1182 H1176 0.930 . S
C1182 C1183 1.367 . S
C1182 C1190 1.378 . S
C1183 C1182 1.367 . S
C1183 C1191 1.433 . S
C1184 H1180 0.929 . S
C1184 C1186 1.378 . S
C1184 C1188 1.350 . S
C1185 C1188 1.463 . S
C1185 C1190 1.350 . S
C1185 N1193 1.427 . S
C1186 H1177 0.930 . S
C1186 C1184 1.378 . S
C1186 C1187 1.367 . S
C1187 C1186 1.367 . S
C1187 C1189 1.433 . S
C1188 C1184 1.350 . S
C1188 C1185 1.463 . S
C1188 N1192 1.427 . S
C1189 H1179 0.929 . S
C1189 C1187 1.433 . S
C1189 N1192 1.384 . S
C1190 H1181 0.929 . S
C1190 C1182 1.378 . S
C1190 C1185 1.350 . S
C1191 H1178 0.929 . S
C1191 C1183 1.433 . S
C1191 N1193 1.384 . S
N1192 C1188 1.427 . S
N1192 C1189 1.384 . S
N1193 C1185 1.427 . S
N1193 C1191 1.384 . S
H1194 C1200 0.957 . S
H1195 C1204 0.930 . S
H1196 C1209 0.932 . S
H1197 C1207 0.929 . S
H1198 C1202 0.929 . S
H1199 C1208 0.929 . S
C1200 H1194 0.957 . S
C1200 C1201 1.387 . S
C1200 C1208 1.338 1_455 S
C1201 C1200 1.387 . S
C1201 C1209 1.436 . S
C1202 H1198 0.929 . S
C1202 C1204 1.378 . S
C1202 C1206 1.350 . S
C1203 C1206 1.463 . S
C1203 C1208 1.350 . S
C1203 N1211 1.427 . S
C1204 H1195 0.930 . S
C1204 C1202 1.378 . S
C1204 C1205 1.367 . S
C1205 C1204 1.367 . S
C1205 C1207 1.433 . S
C1206 C1202 1.350 . S
C1206 C1203 1.463 . S
C1206 N1210 1.427 . S
C1207 H1197 0.929 . S
C1207 C1205 1.433 . S
C1207 N1210 1.384 . S
C1208 H1199 0.929 . S
C1208 C1200 1.338 1_655 S
C1208 C1203 1.350 . S
C1209 H1196 0.932 . S
C1209 C1201 1.436 . S
C1209 N1211 1.378 1_455 S
N1210 C1206 1.427 . S
N1210 C1207 1.384 . S
N1211 C1203 1.427 . S
N1211 C1209 1.378 1_655 S
H1212 C1218 0.930 . S
H1213 C1222 0.930 . S
H1214 C1227 0.929 . S
H1215 C1225 0.929 . S
H1216 C1220 0.929 . S
H1217 C1226 0.929 . S
C1218 H1212 0.930 . S
C1218 C1219 1.367 . S
C1218 C1226 1.378 . S
C1219 C1218 1.367 . S
C1219 C1227 1.433 . S
C1220 H1216 0.929 . S
C1220 C1222 1.378 . S
C1220 C1224 1.350 1_545 S
C1221 C1224 1.463 . S
C1221 C1226 1.350 . S
C1221 N1229 1.427 . S
C1222 H1213 0.930 . S
C1222 C1220 1.378 . S
C1222 C1223 1.367 . S
C1223 C1222 1.367 . S
C1223 C1225 1.433 . S
C1224 C1220 1.350 1_565 S
C1224 C1221 1.463 . S
C1224 N1228 1.427 . S
C1225 H1215 0.929 . S
C1225 C1223 1.433 . S
C1225 N1228 1.384 1_545 S
C1226 H1217 0.929 . S
C1226 C1218 1.378 . S
C1226 C1221 1.350 . S
C1227 H1214 0.929 . S
C1227 C1219 1.433 . S
C1227 N1229 1.384 . S
N1228 C1224 1.427 . S
N1228 C1225 1.384 1_565 S
N1229 C1221 1.427 . S
N1229 C1227 1.384 . S
H1230 C1236 0.930 . S
H1231 C1240 0.930 . S
H1232 C1245 0.929 . S
H1233 C1243 0.929 . S
H1234 C1238 0.929 . S
H1235 C1244 0.929 . S
C1236 H1230 0.930 . S
C1236 C1237 1.367 . S
C1236 C1244 1.378 . S
C1237 C1236 1.367 . S
C1237 C1245 1.433 . S
C1238 H1234 0.929 . S
C1238 C1240 1.378 . S
C1238 C1242 1.350 . S
C1239 C1242 1.463 . S
C1239 C1244 1.350 . S
C1239 N1247 1.427 . S
C1240 H1231 0.930 . S
C1240 C1238 1.378 . S
C1240 C1241 1.367 . S
C1241 C1240 1.367 . S
C1241 C1243 1.433 . S
C1242 C1238 1.350 . S
C1242 C1239 1.463 . S
C1242 N1246 1.427 . S
C1243 H1233 0.929 . S
C1243 C1241 1.433 . S
C1243 N1246 1.384 . S
C1244 H1235 0.929 . S
C1244 C1236 1.378 . S
C1244 C1239 1.350 . S
C1245 H1232 0.929 . S
C1245 C1237 1.433 . S
C1245 N1247 1.384 . S
N1246 C1242 1.427 . S
N1246 C1243 1.384 . S
N1247 C1239 1.427 . S
N1247 C1245 1.384 . S
H1248 C1254 0.930 . S
H1249 C1258 0.930 . S
H1250 C1263 0.929 . S
H1251 C1261 0.929 . S
H1252 C1256 0.929 . S
H1253 C1262 0.929 . S
C1254 H1248 0.930 . S
C1254 C1255 1.367 . S
C1254 C1262 1.378 1_554 S
C1255 C1254 1.367 . S
C1255 C1263 1.433 . S
C1256 H1252 0.929 . S
C1256 C1258 1.378 . S
C1256 C1260 1.350 . S
C1257 C1260 1.463 . S
C1257 C1262 1.350 . S
C1257 N1265 1.427 . S
C1258 H1249 0.930 . S
C1258 C1256 1.378 . S
C1258 C1259 1.367 . S
C1259 C1258 1.367 . S
C1259 C1261 1.433 . S
C1260 C1256 1.350 . S
C1260 C1257 1.463 . S
C1260 N1264 1.427 . S
C1261 H1251 0.929 . S
C1261 C1259 1.433 . S
C1261 N1264 1.384 . S
C1262 H1253 0.929 . S
C1262 C1254 1.378 1_556 S
C1262 C1257 1.350 . S
C1263 H1250 0.929 . S
C1263 C1255 1.433 . S
C1263 N1265 1.384 1_554 S
N1264 C1260 1.427 . S
N1264 C1261 1.384 . S
N1265 C1257 1.427 . S
N1265 C1263 1.384 1_556 S
H1266 C1272 0.930 . S
H1267 C1276 0.930 . S
H1268 C1281 0.929 . S
H1269 C1279 0.929 . S
H1270 C1274 0.929 . S
H1271 C1280 0.929 . S
C1272 H1266 0.930 . S
C1272 C1273 1.367 . S
C1272 C1280 1.378 . S
C1273 C1272 1.367 . S
C1273 C1281 1.433 . S
C1274 H1270 0.929 . S
C1274 C1276 1.378 . S
C1274 C1278 1.350 . S
C1275 C1278 1.463 . S
C1275 C1280 1.350 . S
C1275 N1283 1.427 . S
C1276 H1267 0.930 . S
C1276 C1274 1.378 . S
C1276 C1277 1.367 . S
C1277 C1276 1.367 . S
C1277 C1279 1.433 . S
C1278 C1274 1.350 . S
C1278 C1275 1.463 . S
C1278 N1282 1.427 . S
C1279 H1269 0.929 . S
C1279 C1277 1.433 . S
C1279 N1282 1.384 . S
C1280 H1271 0.929 . S
C1280 C1272 1.378 . S
C1280 C1275 1.350 . S
C1281 H1268 0.929 . S
C1281 C1273 1.433 . S
C1281 N1283 1.384 . S
N1282 C1278 1.427 . S
N1282 C1279 1.384 . S
N1283 C1275 1.427 . S
N1283 C1281 1.384 . S
H1284 C1290 0.930 . S
H1285 C1294 0.930 . S
H1286 C1299 0.929 . S
H1287 C1297 0.929 . S
H1288 C1292 0.929 . S
H1289 C1298 0.929 . S
C1290 H1284 0.930 . S
C1290 C1291 1.367 . S
C1290 C1298 1.378 . S
C1291 C1290 1.367 . S
C1291 C1299 1.433 . S
C1292 H1288 0.929 . S
C1292 C1294 1.378 . S
C1292 C1296 1.350 . S
C1293 C1296 1.463 . S
C1293 C1298 1.350 . S
C1293 N1301 1.427 . S
C1294 H1285 0.930 . S
C1294 C1292 1.378 . S
C1294 C1295 1.367 . S
C1295 C1294 1.367 . S
C1295 C1297 1.433 . S
C1296 C1292 1.350 . S
C1296 C1293 1.463 . S
C1296 N1300 1.427 . S
C1297 H1287 0.929 . S
C1297 C1295 1.433 . S
C1297 N1300 1.384 . S
C1298 H1289 0.929 . S
C1298 C1290 1.378 . S
C1298 C1293 1.350 . S
C1299 H1286 0.929 . S
C1299 C1291 1.433 . S
C1299 N1301 1.384 . S
N1300 C1296 1.427 . S
N1300 C1297 1.384 . S
N1301 C1293 1.427 . S
N1301 C1299 1.384 . S
H1302 C1308 0.930 . S
H1303 C1312 0.930 . S
H1304 C1317 0.929 . S
H1305 C1315 0.929 . S
H1306 C1310 0.929 . S
H1307 C1316 0.929 . S
C1308 H1302 0.930 . S
C1308 C1309 1.367 . S
C1308 C1316 1.378 . S
C1309 C1308 1.367 . S
C1309 C1317 1.433 . S
C1310 H1306 0.929 . S
C1310 C1312 1.378 . S
C1310 C1314 1.350 . S
C1311 C1314 1.463 . S
C1311 C1316 1.350 . S
C1311 N1319 1.427 . S
C1312 H1303 0.930 . S
C1312 C1310 1.378 . S
C1312 C1313 1.367 . S
C1313 C1312 1.367 . S
C1313 C1315 1.433 . S
C1314 C1310 1.350 . S
C1314 C1311 1.463 . S
C1314 N1318 1.427 . S
C1315 H1305 0.929 . S
C1315 C1313 1.433 . S
C1315 N1318 1.384 . S
C1316 H1307 0.929 . S
C1316 C1308 1.378 . S
C1316 C1311 1.350 . S
C1317 H1304 0.929 . S
C1317 C1309 1.433 . S
C1317 N1319 1.384 . S
N1318 C1314 1.427 . S
N1318 C1315 1.384 . S
N1319 C1311 1.427 . S
N1319 C1317 1.384 . S
H1320 C1326 0.930 . S
H1321 C1330 0.930 . S
H1322 C1335 0.929 . S
H1323 C1333 0.929 . S
H1324 C1328 0.929 . S
H1325 C1334 0.929 . S
C1326 H1320 0.930 . S
C1326 C1327 1.367 . S
C1326 C1334 1.378 . S
C1327 C1326 1.367 . S
C1327 C1335 1.433 . S
C1328 H1324 0.929 . S
C1328 C1330 1.378 . S
C1328 C1332 1.350 . S
C1329 C1332 1.463 . S
C1329 C1334 1.350 . S
C1329 N1337 1.427 . S
C1330 H1321 0.930 . S
C1330 C1328 1.378 . S
C1330 C1331 1.367 . S
C1331 C1330 1.367 . S
C1331 C1333 1.433 . S
C1332 C1328 1.350 . S
C1332 C1329 1.463 . S
C1332 N1336 1.427 . S
C1333 H1323 0.929 . S
C1333 C1331 1.433 . S
C1333 N1336 1.384 . S
C1334 H1325 0.929 . S
C1334 C1326 1.378 . S
C1334 C1329 1.350 . S
C1335 H1322 0.929 . S
C1335 C1327 1.433 . S
C1335 N1337 1.384 . S
N1336 C1332 1.427 . S
N1336 C1333 1.384 . S
N1337 C1329 1.427 . S
N1337 C1335 1.384 . S
H1338 C1344 0.930 . S
H1339 C1348 0.930 . S
H1340 C1353 0.929 . S
H1341 C1351 0.929 . S
H1342 C1346 0.929 . S
H1343 C1352 0.929 . S
C1344 H1338 0.930 . S
C1344 C1345 1.367 . S
C1344 C1352 1.378 1_554 S
C1345 C1344 1.367 . S
C1345 C1353 1.433 1_554 S
C1346 H1342 0.929 . S
C1346 C1348 1.378 . S
C1346 C1350 1.350 . S
C1347 C1350 1.463 . S
C1347 C1352 1.350 . S
C1347 N1355 1.427 . S
C1348 H1339 0.930 . S
C1348 C1346 1.378 . S
C1348 C1349 1.367 . S
C1349 C1348 1.367 . S
C1349 C1351 1.433 . S
C1350 C1346 1.350 . S
C1350 C1347 1.463 . S
C1350 N1354 1.427 . S
C1351 H1341 0.929 . S
C1351 C1349 1.433 . S
C1351 N1354 1.384 . S
C1352 H1343 0.929 . S
C1352 C1344 1.378 1_556 S
C1352 C1347 1.350 . S
C1353 H1340 0.929 . S
C1353 C1345 1.433 1_556 S
C1353 N1355 1.384 . S
N1354 C1350 1.427 . S
N1354 C1351 1.384 . S
N1355 C1347 1.427 . S
N1355 C1353 1.384 . S
H1356 C1362 0.930 . S
H1357 C1366 0.930 . S
H1358 C1371 0.929 . S
H1359 C1369 0.929 . S
H1360 C1364 0.929 . S
H1361 C1370 0.929 . S
C1362 H1356 0.930 . S
C1362 C1363 1.367 . S
C1362 C1370 1.378 . S
C1363 C1362 1.367 . S
C1363 C1371 1.433 . S
C1364 H1360 0.929 . S
C1364 C1366 1.378 . S
C1364 C1368 1.350 . S
C1365 C1368 1.463 . S
C1365 C1370 1.350 . S
C1365 N1373 1.427 . S
C1366 H1357 0.930 . S
C1366 C1364 1.378 . S
C1366 C1367 1.367 . S
C1367 C1366 1.367 . S
C1367 C1369 1.433 . S
C1368 C1364 1.350 . S
C1368 C1365 1.463 . S
C1368 N1372 1.427 . S
C1369 H1359 0.929 . S
C1369 C1367 1.433 . S
C1369 N1372 1.384 . S
C1370 H1361 0.929 . S
C1370 C1362 1.378 . S
C1370 C1365 1.350 . S
C1371 H1358 0.929 . S
C1371 C1363 1.433 . S
C1371 N1373 1.384 . S
N1372 C1368 1.427 . S
N1372 C1369 1.384 . S
N1373 C1365 1.427 . S
N1373 C1371 1.384 . S
H1374 C1380 0.930 . S
H1375 C1384 0.943 . S
H1376 C1389 0.929 . S
H1377 C1387 0.929 . S
H1378 C1382 0.929 . S
H1379 C1388 0.929 . S
C1380 H1374 0.930 . S
C1380 C1381 1.367 . S
C1380 C1388 1.378 . S
C1381 C1380 1.367 . S
C1381 C1389 1.433 . S
C1382 H1378 0.929 . S
C1382 C1384 1.366 1_556 S
C1382 C1386 1.350 . S
C1383 C1386 1.463 . S
C1383 C1388 1.350 . S
C1383 N1391 1.427 . S
C1384 H1375 0.943 . S
C1384 C1382 1.366 1_554 S
C1384 C1385 1.366 1_554 S
C1385 C1384 1.366 1_556 S
C1385 C1387 1.490 . S
C1386 C1382 1.350 . S
C1386 C1383 1.463 . S
C1386 N1390 1.427 . S
C1387 H1377 0.929 . S
C1387 C1385 1.490 . S
C1387 N1390 1.384 . S
C1388 H1379 0.929 . S
C1388 C1380 1.378 . S
C1388 C1383 1.350 . S
C1389 H1376 0.929 . S
C1389 C1381 1.433 . S
C1389 N1391 1.384 . S
N1390 C1386 1.427 . S
N1390 C1387 1.384 . S
N1391 C1383 1.427 . S
N1391 C1389 1.384 . S
H1392 C1398 0.930 . S
H1393 C1402 0.930 . S
H1394 C1407 0.929 . S
H1395 C1405 0.929 . S
H1396 C1400 0.929 . S
H1397 C1406 0.929 . S
C1398 H1392 0.930 . S
C1398 C1399 1.367 . S
C1398 C1406 1.378 . S
C1399 C1398 1.367 . S
C1399 C1407 1.433 . S
C1400 H1396 0.929 . S
C1400 C1402 1.378 . S
C1400 C1404 1.350 . S
C1401 C1404 1.463 . S
C1401 C1406 1.350 . S
C1401 N1409 1.427 . S
C1402 H1393 0.930 . S
C1402 C1400 1.378 . S
C1402 C1403 1.367 . S
C1403 C1402 1.367 . S
C1403 C1405 1.433 . S
C1404 C1400 1.350 . S
C1404 C1401 1.463 . S
C1404 N1408 1.427 . S
C1405 H1395 0.929 . S
C1405 C1403 1.433 . S
C1405 N1408 1.384 . S
C1406 H1397 0.929 . S
C1406 C1398 1.378 . S
C1406 C1401 1.350 . S
C1407 H1394 0.929 . S
C1407 C1399 1.433 . S
C1407 N1409 1.384 . S
N1408 C1404 1.427 . S
N1408 C1405 1.384 . S
N1409 C1401 1.427 . S
N1409 C1407 1.384 . S
H1410 C1416 0.930 . S
H1411 C1420 0.930 . S
H1412 C1425 0.929 . S
H1413 C1423 0.929 . S
H1414 C1418 0.929 . S
H1415 C1424 0.929 . S
C1416 H1410 0.930 . S
C1416 C1417 1.367 . S
C1416 C1424 1.378 . S
C1417 C1416 1.367 . S
C1417 C1425 1.433 . S
C1418 H1414 0.929 . S
C1418 C1420 1.378 . S
C1418 C1422 1.350 . S
C1419 C1422 1.463 . S
C1419 C1424 1.350 . S
C1419 N1427 1.427 . S
C1420 H1411 0.930 . S
C1420 C1418 1.378 . S
C1420 C1421 1.367 . S
C1421 C1420 1.367 . S
C1421 C1423 1.433 . S
C1422 C1418 1.350 . S
C1422 C1419 1.463 . S
C1422 N1426 1.427 . S
C1423 H1413 0.929 . S
C1423 C1421 1.433 . S
C1423 N1426 1.384 . S
C1424 H1415 0.929 . S
C1424 C1416 1.378 . S
C1424 C1419 1.350 . S
C1425 H1412 0.929 . S
C1425 C1417 1.433 . S
C1425 N1427 1.384 . S
N1426 C1422 1.427 . S
N1426 C1423 1.384 . S
N1427 C1419 1.427 . S
N1427 C1425 1.384 . S
H1428 C1434 0.930 . S
H1429 C1438 0.930 . S
H1430 C1443 0.929 . S
H1431 C1441 0.929 . S
H1432 C1436 0.929 . S
H1433 C1442 0.929 . S
C1434 H1428 0.930 . S
C1434 C1435 1.367 . S
C1434 C1442 1.378 . S
C1435 C1434 1.367 . S
C1435 C1443 1.433 . S
C1436 H1432 0.929 . S
C1436 C1438 1.378 . S
C1436 C1440 1.350 . S
C1437 C1440 1.463 . S
C1437 C1442 1.350 . S
C1437 N1445 1.427 . S
C1438 H1429 0.930 . S
C1438 C1436 1.378 . S
C1438 C1439 1.367 . S
C1439 C1438 1.367 . S
C1439 C1441 1.433 . S
C1440 C1436 1.350 . S
C1440 C1437 1.463 . S
C1440 N1444 1.427 . S
C1441 H1431 0.929 . S
C1441 C1439 1.433 . S
C1441 N1444 1.384 . S
C1442 H1433 0.929 . S
C1442 C1434 1.378 . S
C1442 C1437 1.350 . S
C1443 H1430 0.929 . S
C1443 C1435 1.433 . S
C1443 N1445 1.384 . S
N1444 C1440 1.427 . S
N1444 C1441 1.384 . S
N1445 C1437 1.427 . S
N1445 C1443 1.384 . S
H1446 C1452 0.930 . S
H1447 C1456 0.930 . S
H1448 C1461 0.929 . S
H1449 C1459 0.929 . S
H1450 C1454 0.929 . S
H1451 C1460 0.929 . S
C1452 H1446 0.930 . S
C1452 C1453 1.367 . S
C1452 C1460 1.378 . S
C1453 C1452 1.367 . S
C1453 C1461 1.433 . S
C1454 H1450 0.929 . S
C1454 C1456 1.378 . S
C1454 C1458 1.350 . S
C1455 C1458 1.463 . S
C1455 C1460 1.350 . S
C1455 N1463 1.427 . S
C1456 H1447 0.930 . S
C1456 C1454 1.378 . S
C1456 C1457 1.367 . S
C1457 C1456 1.367 . S
C1457 C1459 1.433 . S
C1458 C1454 1.350 . S
C1458 C1455 1.463 . S
C1458 N1462 1.427 . S
C1459 H1449 0.929 . S
C1459 C1457 1.433 . S
C1459 N1462 1.384 . S
C1460 H1451 0.929 . S
C1460 C1452 1.378 . S
C1460 C1455 1.350 . S
C1461 H1448 0.929 . S
C1461 C1453 1.433 . S
C1461 N1463 1.384 . S
N1462 C1458 1.427 . S
N1462 C1459 1.384 . S
N1463 C1455 1.427 . S
N1463 C1461 1.384 . S
H1464 C1470 0.930 . S
H1465 C1474 0.930 . S
H1466 C1479 0.929 . S
H1467 C1477 0.929 . S
H1468 C1472 0.929 . S
H1469 C1478 0.929 . S
C1470 H1464 0.930 . S
C1470 C1471 1.367 . S
C1470 C1478 1.378 . S
C1471 C1470 1.367 . S
C1471 C1479 1.433 . S
C1472 H1468 0.929 . S
C1472 C1474 1.378 . S
C1472 C1476 1.350 . S
C1473 C1476 1.463 . S
C1473 C1478 1.350 . S
C1473 N1481 1.427 . S
C1474 H1465 0.930 . S
C1474 C1472 1.378 . S
C1474 C1475 1.367 . S
C1475 C1474 1.367 . S
C1475 C1477 1.433 . S
C1476 C1472 1.350 . S
C1476 C1473 1.463 . S
C1476 N1480 1.427 . S
C1477 H1467 0.929 . S
C1477 C1475 1.433 . S
C1477 N1480 1.384 . S
C1478 H1469 0.929 . S
C1478 C1470 1.378 . S
C1478 C1473 1.350 . S
C1479 H1466 0.929 . S
C1479 C1471 1.433 . S
C1479 N1481 1.384 . S
N1480 C1476 1.427 . S
N1480 C1477 1.384 . S
N1481 C1473 1.427 . S
N1481 C1479 1.384 . S
H1482 C1488 0.930 . S
H1483 C1492 0.930 . S
H1484 C1497 0.985 . S
H1485 C1495 0.929 . S
H1486 C1490 0.929 . S
H1487 C1496 0.929 . S
C1488 H1482 0.930 . S
C1488 C1489 1.367 . S
C1488 C1496 1.378 . S
C1489 C1488 1.367 . S
C1489 C1497 1.433 . S
C1490 H1486 0.929 . S
C1490 C1492 1.378 . S
C1490 C1494 1.350 . S
C1491 C1494 1.463 . S
C1491 C1496 1.350 . S
C1491 N1499 1.427 . S
C1492 H1483 0.930 . S
C1492 C1490 1.378 . S
C1492 C1493 1.367 . S
C1493 C1492 1.367 . S
C1493 C1495 1.433 . S
C1494 C1490 1.350 . S
C1494 C1491 1.463 . S
C1494 N1498 1.427 . S
C1495 H1485 0.929 . S
C1495 C1493 1.433 . S
C1495 N1498 1.384 . S
C1496 H1487 0.929 . S
C1496 C1488 1.378 . S
C1496 C1491 1.350 . S
C1497 H1484 0.985 . S
C1497 C1489 1.433 . S
C1497 N1499 1.384 . S
N1498 C1494 1.427 . S
N1498 C1495 1.384 . S
N1499 C1491 1.427 . S
N1499 C1497 1.384 . S
H1500 C1506 0.930 1_655 S
H1501 C1510 0.930 . S
H1502 C1515 0.929 . S
H1503 C1513 0.929 1_655 S
H1504 C1508 0.929 . S
H1505 C1514 0.929 1_655 S
C1506 H1500 0.930 1_455 S
C1506 C1507 1.367 . S
C1506 C1514 1.378 . S
C1507 C1506 1.367 . S
C1507 C1515 1.433 . S
C1508 H1504 0.929 . S
C1508 C1510 1.378 . S
C1508 C1512 1.350 . S
C1509 C1512 1.463 . S
C1509 C1514 1.350 . S
C1509 N1517 1.427 . S
C1510 H1501 0.930 . S
C1510 C1508 1.378 . S
C1510 C1511 1.367 . S
C1511 C1510 1.367 . S
C1511 C1513 1.433 . S
C1512 C1508 1.350 . S
C1512 C1509 1.463 . S
C1512 N1516 1.427 . S
C1513 H1503 0.929 1_455 S
C1513 C1511 1.433 . S
C1513 N1516 1.384 . S
C1514 H1505 0.929 1_455 S
C1514 C1506 1.378 . S
C1514 C1509 1.350 . S
C1515 H1502 0.929 . S
C1515 C1507 1.433 . S
C1515 N1517 1.384 . S
N1516 C1512 1.427 . S
N1516 C1513 1.384 . S
N1517 C1509 1.427 . S
N1517 C1515 1.384 . S
H1518 C1524 0.930 . S
H1519 C1528 0.930 . S
H1520 C1533 0.929 . S
H1521 C1531 0.929 . S
H1522 C1526 0.929 . S
H1523 C1532 0.929 . S
C1524 H1518 0.930 . S
C1524 C1525 1.367 . S
C1524 C1532 1.378 . S
C1525 C1524 1.367 . S
C1525 C1533 1.433 . S
C1526 H1522 0.929 . S
C1526 C1528 1.378 . S
C1526 C1530 1.350 . S
C1527 C1530 1.463 . S
C1527 C1532 1.350 . S
C1527 N1535 1.427 . S
C1528 H1519 0.930 . S
C1528 C1526 1.378 . S
C1528 C1529 1.367 . S
C1529 C1528 1.367 . S
C1529 C1531 1.433 . S
C1530 C1526 1.350 . S
C1530 C1527 1.463 . S
C1530 N1534 1.427 . S
C1531 H1521 0.929 . S
C1531 C1529 1.433 . S
C1531 N1534 1.384 . S
C1532 H1523 0.929 . S
C1532 C1524 1.378 . S
C1532 C1527 1.350 . S
C1533 H1520 0.929 . S
C1533 C1525 1.433 . S
C1533 N1535 1.384 . S
N1534 C1530 1.427 . S
N1534 C1531 1.384 . S
N1535 C1527 1.427 . S
N1535 C1533 1.384 . S
H1536 C1542 0.863 1_556 S
H1537 C1546 0.930 . S
H1538 C1551 0.929 . S
H1539 C1549 0.935 . S
H1540 C1544 0.929 . S
H1541 C1550 0.929 1_556 S
C1542 H1536 0.863 1_554 S
C1542 C1543 1.424 . S
C1542 C1550 1.392 . S
C1543 C1542 1.424 . S
C1543 C1551 1.433 . S
C1544 H1540 0.929 . S
C1544 C1546 1.378 . S
C1544 C1548 1.350 . S
C1545 C1548 1.463 . S
C1545 C1550 1.350 . S
C1545 N1553 1.427 . S
C1546 H1537 0.930 . S
C1546 C1544 1.378 . S
C1546 C1547 1.367 . S
C1547 C1546 1.367 . S
C1547 C1549 1.433 . S
C1548 C1544 1.350 . S
C1548 C1545 1.463 . S
C1548 N1552 1.427 . S
C1549 H1539 0.935 . S
C1549 C1547 1.433 . S
C1549 N1552 1.384 . S
C1550 H1541 0.929 1_554 S
C1550 C1542 1.392 . S
C1550 C1545 1.350 . S
C1551 H1538 0.929 . S
C1551 C1543 1.433 . S
C1551 N1553 1.384 . S
N1552 C1548 1.427 . S
N1552 C1549 1.384 . S
N1553 C1545 1.427 . S
N1553 C1551 1.384 . S
H1554 C1560 0.930 . S
H1555 C1564 0.930 . S
H1556 C1569 0.929 . S
H1557 C1567 0.929 . S
H1558 C1562 0.929 . S
H1559 C1568 0.929 . S
C1560 H1554 0.930 . S
C1560 C1561 1.367 . S
C1560 C1568 1.378 . S
C1561 C1560 1.367 . S
C1561 C1569 1.433 . S
C1562 H1558 0.929 . S
C1562 C1564 1.378 . S
C1562 C1566 1.350 . S
C1563 C1566 1.463 . S
C1563 C1568 1.350 . S
C1563 N1571 1.427 . S
C1564 H1555 0.930 . S
C1564 C1562 1.378 . S
C1564 C1565 1.367 . S
C1565 C1564 1.367 . S
C1565 C1567 1.433 . S
C1566 C1562 1.350 . S
C1566 C1563 1.463 . S
C1566 N1570 1.427 . S
C1567 H1557 0.929 . S
C1567 C1565 1.433 . S
C1567 N1570 1.384 . S
C1568 H1559 0.929 . S
C1568 C1560 1.378 . S
C1568 C1563 1.350 . S
C1569 H1556 0.929 . S
C1569 C1561 1.433 . S
C1569 N1571 1.384 . S
N1570 C1566 1.427 . S
N1570 C1567 1.384 . S
N1571 C1563 1.427 . S
N1571 C1569 1.384 . S
H1572 C1578 0.930 . S
H1573 C1582 0.930 . S
H1574 C1587 0.929 . S
H1575 C1585 0.929 . S
H1576 C1580 0.929 . S
H1577 C1586 0.929 . S
C1578 H1572 0.930 . S
C1578 C1579 1.367 . S
C1578 C1586 1.378 . S
C1579 C1578 1.367 . S
C1579 C1587 1.433 . S
C1580 H1576 0.929 . S
C1580 C1582 1.378 . S
C1580 C1584 1.350 . S
C1581 C1584 1.463 . S
C1581 C1586 1.350 . S
C1581 N1589 1.427 . S
C1582 H1573 0.930 . S
C1582 C1580 1.378 . S
C1582 C1583 1.367 . S
C1583 C1582 1.367 . S
C1583 C1585 1.433 . S
C1584 C1580 1.350 . S
C1584 C1581 1.463 . S
C1584 N1588 1.427 . S
C1585 H1575 0.929 . S
C1585 C1583 1.433 . S
C1585 N1588 1.384 . S
C1586 H1577 0.929 . S
C1586 C1578 1.378 . S
C1586 C1581 1.350 . S
C1587 H1574 0.929 . S
C1587 C1579 1.433 . S
C1587 N1589 1.384 . S
N1588 C1584 1.427 . S
N1588 C1585 1.384 . S
N1589 C1581 1.427 . S
N1589 C1587 1.384 . S
H1590 C1596 0.930 . S
H1591 C1600 0.930 . S
H1592 C1605 0.929 . S
H1593 C1603 0.929 . S
H1594 C1598 0.929 . S
H1595 C1604 0.929 . S
C1596 H1590 0.930 . S
C1596 C1597 1.367 . S
C1596 C1604 1.378 . S
C1597 C1596 1.367 . S
C1597 C1605 1.433 . S
C1598 H1594 0.929 . S
C1598 C1600 1.378 . S
C1598 C1602 1.350 . S
C1599 C1602 1.463 . S
C1599 C1604 1.350 . S
C1599 N1607 1.427 . S
C1600 H1591 0.930 . S
C1600 C1598 1.378 . S
C1600 C1601 1.367 . S
C1601 C1600 1.367 . S
C1601 C1603 1.433 . S
C1602 C1598 1.350 . S
C1602 C1599 1.463 . S
C1602 N1606 1.427 . S
C1603 H1593 0.929 . S
C1603 C1601 1.433 . S
C1603 N1606 1.384 . S
C1604 H1595 0.929 . S
C1604 C1596 1.378 . S
C1604 C1599 1.350 . S
C1605 H1592 0.929 . S
C1605 C1597 1.433 . S
C1605 N1607 1.384 . S
N1606 C1602 1.427 . S
N1606 C1603 1.384 . S
N1607 C1599 1.427 . S
N1607 C1605 1.384 . S
H1608 C1614 0.930 . S
H1609 C1618 0.930 . S
H1610 C1623 0.929 . S
H1611 C1621 0.929 . S
H1612 C1616 0.929 . S
H1613 C1622 0.929 . S
C1614 H1608 0.930 . S
C1614 C1615 1.367 . S
C1614 C1622 1.378 . S
C1615 C1614 1.367 . S
C1615 C1623 1.433 . S
C1616 H1612 0.929 . S
C1616 C1618 1.378 . S
C1616 C1620 1.350 . S
C1617 C1620 1.463 . S
C1617 C1622 1.350 . S
C1617 N1625 1.427 . S
C1618 H1609 0.930 . S
C1618 C1616 1.378 . S
C1618 C1619 1.367 . S
C1619 C1618 1.367 . S
C1619 C1621 1.433 . S
C1620 C1616 1.350 . S
C1620 C1617 1.463 . S
C1620 N1624 1.427 . S
C1621 H1611 0.929 . S
C1621 C1619 1.433 . S
C1621 N1624 1.384 . S
C1622 H1613 0.929 . S
C1622 C1614 1.378 . S
C1622 C1617 1.350 . S
C1623 H1610 0.929 . S
C1623 C1615 1.433 . S
C1623 N1625 1.384 . S
N1624 C1620 1.427 . S
N1624 C1621 1.384 . S
N1625 C1617 1.427 . S
N1625 C1623 1.384 . S
H1626 C1632 0.930 . S
H1627 C1636 0.930 . S
H1628 C1641 0.929 . S
H1629 C1639 0.929 . S
H1630 C1634 0.929 . S
H1631 C1640 0.929 . S
C1632 H1626 0.930 . S
C1632 C1633 1.367 . S
C1632 C1640 1.378 . S
C1633 C1632 1.367 . S
C1633 C1641 1.433 . S
C1634 H1630 0.929 . S
C1634 C1636 1.378 . S
C1634 C1638 1.350 . S
C1635 C1638 1.463 . S
C1635 C1640 1.350 . S
C1635 N1643 1.427 . S
C1636 H1627 0.930 . S
C1636 C1634 1.378 . S
C1636 C1637 1.367 . S
C1637 C1636 1.367 . S
C1637 C1639 1.433 . S
C1638 C1634 1.350 . S
C1638 C1635 1.463 . S
C1638 N1642 1.427 . S
C1639 H1629 0.929 . S
C1639 C1637 1.433 . S
C1639 N1642 1.384 . S
C1640 H1631 0.929 . S
C1640 C1632 1.378 . S
C1640 C1635 1.350 . S
C1641 H1628 0.929 . S
C1641 C1633 1.433 . S
C1641 N1643 1.384 . S
N1642 C1638 1.427 . S
N1642 C1639 1.384 . S
N1643 C1635 1.427 . S
N1643 C1641 1.384 . S
H1644 C1650 0.930 . S
H1645 C1654 0.930 . S
H1646 C1659 0.929 . S
H1647 C1657 0.929 . S
H1648 C1652 0.929 . S
H1649 C1658 0.929 . S
C1650 H1644 0.930 . S
C1650 C1651 1.367 . S
C1650 C1658 1.378 . S
C1651 C1650 1.367 . S
C1651 C1659 1.433 . S
C1652 H1648 0.929 . S
C1652 C1654 1.378 . S
C1652 C1656 1.350 . S
C1653 C1656 1.463 . S
C1653 C1658 1.350 . S
C1653 N1661 1.427 . S
C1654 H1645 0.930 . S
C1654 C1652 1.378 . S
C1654 C1655 1.367 . S
C1655 C1654 1.367 . S
C1655 C1657 1.433 . S
C1656 C1652 1.350 . S
C1656 C1653 1.463 . S
C1656 N1660 1.427 . S
C1657 H1647 0.929 . S
C1657 C1655 1.433 . S
C1657 N1660 1.384 . S
C1658 H1649 0.929 . S
C1658 C1650 1.378 . S
C1658 C1653 1.350 . S
C1659 H1646 0.929 . S
C1659 C1651 1.433 . S
C1659 N1661 1.384 . S
N1660 C1656 1.427 . S
N1660 C1657 1.384 . S
N1661 C1653 1.427 . S
N1661 C1659 1.384 . S
H1662 C1668 0.930 . S
H1663 C1672 0.930 . S
H1664 C1677 0.929 . S
H1665 C1675 0.929 . S
H1666 C1670 0.929 . S
H1667 C1676 0.929 . S
C1668 H1662 0.930 . S
C1668 C1669 1.367 . S
C1668 C1676 1.378 . S
C1669 C1668 1.367 . S
C1669 C1677 1.433 . S
C1670 H1666 0.929 . S
C1670 C1672 1.378 . S
C1670 C1674 1.350 . S
C1671 C1674 1.463 . S
C1671 C1676 1.350 . S
C1671 N1679 1.427 . S
C1672 H1663 0.930 . S
C1672 C1670 1.378 . S
C1672 C1673 1.367 . S
C1673 C1672 1.367 . S
C1673 C1675 1.433 . S
C1674 C1670 1.350 . S
C1674 C1671 1.463 . S
C1674 N1678 1.427 . S
C1675 H1665 0.929 . S
C1675 C1673 1.433 . S
C1675 N1678 1.384 . S
C1676 H1667 0.929 . S
C1676 C1668 1.378 . S
C1676 C1671 1.350 . S
C1677 H1664 0.929 . S
C1677 C1669 1.433 . S
C1677 N1679 1.384 . S
N1678 C1674 1.427 . S
N1678 C1675 1.384 . S
N1679 C1671 1.427 . S
N1679 C1677 1.384 . S
H1680 C1686 0.930 . S
H1681 C1690 0.930 . S
H1682 C1695 0.929 . S
H1683 C1693 0.929 . S
H1684 C1688 0.929 . S
H1685 C1694 0.929 . S
C1686 H1680 0.930 . S
C1686 C1687 1.367 . S
C1686 C1694 1.378 . S
C1687 C1686 1.367 . S
C1687 C1695 1.433 . S
C1688 H1684 0.929 . S
C1688 C1690 1.378 . S
C1688 C1692 1.350 . S
C1689 C1692 1.463 . S
C1689 C1694 1.350 . S
C1689 N1697 1.427 . S
C1690 H1681 0.930 . S
C1690 C1688 1.378 . S
C1690 C1691 1.367 . S
C1691 C1690 1.367 . S
C1691 C1693 1.433 . S
C1692 C1688 1.350 . S
C1692 C1689 1.463 . S
C1692 N1696 1.427 . S
C1693 H1683 0.929 . S
C1693 C1691 1.433 . S
C1693 N1696 1.384 . S
C1694 H1685 0.929 . S
C1694 C1686 1.378 . S
C1694 C1689 1.350 . S
C1695 H1682 0.929 . S
C1695 C1687 1.433 . S
C1695 N1697 1.384 . S
N1696 C1692 1.427 . S
N1696 C1693 1.384 . S
N1697 C1689 1.427 . S
N1697 C1695 1.384 . S
H1698 C1704 0.930 . S
H1699 C1708 0.930 . S
H1700 C1713 0.929 . S
H1701 C1711 0.929 . S
H1702 C1706 0.929 . S
H1703 C1712 0.929 . S
C1704 H1698 0.930 . S
C1704 C1705 1.367 . S
C1704 C1712 1.378 . S
C1705 C1704 1.367 . S
C1705 C1713 1.433 . S
C1706 H1702 0.929 . S
C1706 C1708 1.378 . S
C1706 C1710 1.350 . S
C1707 C1710 1.463 . S
C1707 C1712 1.350 . S
C1707 N1715 1.427 . S
C1708 H1699 0.930 . S
C1708 C1706 1.378 . S
C1708 C1709 1.367 . S
C1709 C1708 1.367 . S
C1709 C1711 1.433 . S
C1710 C1706 1.350 . S
C1710 C1707 1.463 . S
C1710 N1714 1.427 . S
C1711 H1701 0.929 . S
C1711 C1709 1.433 . S
C1711 N1714 1.384 . S
C1712 H1703 0.929 . S
C1712 C1704 1.378 . S
C1712 C1707 1.350 . S
C1713 H1700 0.929 . S
C1713 C1705 1.433 . S
C1713 N1715 1.384 . S
N1714 C1710 1.427 . S
N1714 C1711 1.384 . S
N1715 C1707 1.427 . S
N1715 C1713 1.384 . S
H1716 C1722 0.930 . S
H1717 C1726 0.930 . S
H1718 C1731 0.929 . S
H1719 C1729 0.929 . S
H1720 C1724 0.929 . S
H1721 C1730 0.929 . S
C1722 H1716 0.930 . S
C1722 C1723 1.367 . S
C1722 C1730 1.378 . S
C1723 C1722 1.367 . S
C1723 C1731 1.433 . S
C1724 H1720 0.929 . S
C1724 C1726 1.378 . S
C1724 C1728 1.350 . S
C1725 C1728 1.463 . S
C1725 C1730 1.350 . S
C1725 N1733 1.427 . S
C1726 H1717 0.930 . S
C1726 C1724 1.378 . S
C1726 C1727 1.367 . S
C1727 C1726 1.367 . S
C1727 C1729 1.433 . S
C1728 C1724 1.350 . S
C1728 C1725 1.463 . S
C1728 N1732 1.427 . S
C1729 H1719 0.929 . S
C1729 C1727 1.433 . S
C1729 N1732 1.384 . S
C1730 H1721 0.929 . S
C1730 C1722 1.378 . S
C1730 C1725 1.350 . S
C1731 H1718 0.929 . S
C1731 C1723 1.433 . S
C1731 N1733 1.384 . S
N1732 C1728 1.427 . S
N1732 C1729 1.384 . S
N1733 C1725 1.427 . S
N1733 C1731 1.384 . S
H1734 C1740 0.930 . S
H1735 C1744 0.930 . S
H1736 C1749 0.929 . S
H1737 C1747 0.929 . S
H1738 C1742 0.929 . S
H1739 C1748 0.929 . S
C1740 H1734 0.930 . S
C1740 C1741 1.367 . S
C1740 C1748 1.378 . S
C1741 C1740 1.367 . S
C1741 C1749 1.433 . S
C1742 H1738 0.929 . S
C1742 C1744 1.378 . S
C1742 C1746 1.350 . S
C1743 C1746 1.463 . S
C1743 C1748 1.350 . S
C1743 N1751 1.427 . S
C1744 H1735 0.930 . S
C1744 C1742 1.378 . S
C1744 C1745 1.367 . S
C1745 C1744 1.367 . S
C1745 C1747 1.433 . S
C1746 C1742 1.350 . S
C1746 C1743 1.463 . S
C1746 N1750 1.427 . S
C1747 H1737 0.929 . S
C1747 C1745 1.433 . S
C1747 N1750 1.384 . S
C1748 H1739 0.929 . S
C1748 C1740 1.378 . S
C1748 C1743 1.350 . S
C1749 H1736 0.929 . S
C1749 C1741 1.433 . S
C1749 N1751 1.384 . S
N1750 C1746 1.427 . S
N1750 C1747 1.384 . S
N1751 C1743 1.427 . S
N1751 C1749 1.384 . S
H1752 C1758 0.930 . S
H1753 C1762 0.930 . S
H1754 C1767 0.929 . S
H1755 C1765 0.929 . S
H1756 C1760 0.929 . S
H1757 C1766 0.929 . S
C1758 H1752 0.930 . S
C1758 C1759 1.367 . S
C1758 C1766 1.378 . S
C1759 C1758 1.367 . S
C1759 C1767 1.433 . S
C1760 H1756 0.929 . S
C1760 C1762 1.378 . S
C1760 C1764 1.350 . S
C1761 C1764 1.463 . S
C1761 C1766 1.350 . S
C1761 N1769 1.427 . S
C1762 H1753 0.930 . S
C1762 C1760 1.378 . S
C1762 C1763 1.367 . S
C1763 C1762 1.367 . S
C1763 C1765 1.433 . S
C1764 C1760 1.350 . S
C1764 C1761 1.463 . S
C1764 N1768 1.427 . S
C1765 H1755 0.929 . S
C1765 C1763 1.433 . S
C1765 N1768 1.384 . S
C1766 H1757 0.929 . S
C1766 C1758 1.378 . S
C1766 C1761 1.350 . S
C1767 H1754 0.929 . S
C1767 C1759 1.433 . S
C1767 N1769 1.384 . S
N1768 C1764 1.427 . S
N1768 C1765 1.384 . S
N1769 C1761 1.427 . S
N1769 C1767 1.384 . S
H1770 C1776 0.930 . S
H1771 C1780 0.930 . S
H1772 C1785 0.929 . S
H1773 C1783 0.929 . S
H1774 C1778 0.929 . S
H1775 C1784 0.929 . S
C1776 H1770 0.930 . S
C1776 C1777 1.367 . S
C1776 C1784 1.378 . S
C1777 C1776 1.367 . S
C1777 C1785 1.433 . S
C1778 H1774 0.929 . S
C1778 C1780 1.378 . S
C1778 C1782 1.350 . S
C1779 C1782 1.463 . S
C1779 C1784 1.350 . S
C1779 N1787 1.427 . S
C1780 H1771 0.930 . S
C1780 C1778 1.378 . S
C1780 C1781 1.367 . S
C1781 C1780 1.367 . S
C1781 C1783 1.433 . S
C1782 C1778 1.350 . S
C1782 C1779 1.463 . S
C1782 N1786 1.427 . S
C1783 H1773 0.929 . S
C1783 C1781 1.433 . S
C1783 N1786 1.384 . S
C1784 H1775 0.929 . S
C1784 C1776 1.378 . S
C1784 C1779 1.350 . S
C1785 H1772 0.929 . S
C1785 C1777 1.433 . S
C1785 N1787 1.384 . S
N1786 C1782 1.427 . S
N1786 C1783 1.384 . S
N1787 C1779 1.427 . S
N1787 C1785 1.384 . S
H1788 C1794 0.930 . S
H1789 C1798 0.930 . S
H1790 C1803 0.929 . S
H1791 C1801 0.929 . S
H1792 C1796 0.929 . S
H1793 C1802 0.929 . S
C1794 H1788 0.930 . S
C1794 C1795 1.367 . S
C1794 C1802 1.378 . S
C1795 C1794 1.367 . S
C1795 C1803 1.433 . S
C1796 H1792 0.929 . S
C1796 C1798 1.378 . S
C1796 C1800 1.350 . S
C1797 C1800 1.463 . S
C1797 C1802 1.350 . S
C1797 N1805 1.427 . S
C1798 H1789 0.930 . S
C1798 C1796 1.378 . S
C1798 C1799 1.367 . S
C1799 C1798 1.367 . S
C1799 C1801 1.433 . S
C1800 C1796 1.350 . S
C1800 C1797 1.463 . S
C1800 N1804 1.427 . S
C1801 H1791 0.929 . S
C1801 C1799 1.433 . S
C1801 N1804 1.384 . S
C1802 H1793 0.929 . S
C1802 C1794 1.378 . S
C1802 C1797 1.350 . S
C1803 H1790 0.929 . S
C1803 C1795 1.433 . S
C1803 N1805 1.384 . S
N1804 C1800 1.427 . S
N1804 C1801 1.384 . S
N1805 C1797 1.427 . S
N1805 C1803 1.384 . S
H1806 C1812 0.930 . S
H1807 C1816 0.930 . S
H1808 C1821 0.929 . S
H1809 C1819 0.929 . S
H1810 C1814 0.929 . S
H1811 C1820 0.929 . S
C1812 H1806 0.930 . S
C1812 C1813 1.367 . S
C1812 C1820 1.378 . S
C1813 C1812 1.367 . S
C1813 C1821 1.433 . S
C1814 H1810 0.929 . S
C1814 C1816 1.378 . S
C1814 C1818 1.350 . S
C1815 C1818 1.463 . S
C1815 C1820 1.350 . S
C1815 N1823 1.427 . S
C1816 H1807 0.930 . S
C1816 C1814 1.378 . S
C1816 C1817 1.367 . S
C1817 C1816 1.367 . S
C1817 C1819 1.433 . S
C1818 C1814 1.350 . S
C1818 C1815 1.463 . S
C1818 N1822 1.427 . S
C1819 H1809 0.929 . S
C1819 C1817 1.433 . S
C1819 N1822 1.384 . S
C1820 H1811 0.929 . S
C1820 C1812 1.378 . S
C1820 C1815 1.350 . S
C1821 H1808 0.929 . S
C1821 C1813 1.433 . S
C1821 N1823 1.384 . S
N1822 C1818 1.427 . S
N1822 C1819 1.384 . S
N1823 C1815 1.427 . S
N1823 C1821 1.384 . S
C535 C491 1.670 . S
C539 C7 1.690 . S
C553 C456 1.382 . S
C557 C18 1.770 . S
C571 C27 1.081 . S
C575 C467 1.065 . S
C589 C40 1.729 . S
C593 C478 1.395 . S
C607 C524 1.861 . S
C611 C51 1.872 . S
C625 C500 1.305 . S
C629 C60 1.299 . S
C643 C71 1.130 . S
C647 C513 1.488 . S
C661 C445 1.277 . S
C665 C82 1.291 . S
C679 C434 1.210 . S
C683 C95 1.597 . S
C697 C104 1.093 . S
C701 C401 1.175 . S
C715 C414 1.753 . S
C719 C117 1.745 . S
C733 C128 1.758 . S
C737 C423 1.328 . S
C751 C368 1.105 . S
C755 C137 1.202 . S
C769 C150 1.750 . S
C773 C381 1.744 . S
C787 C159 1.323 . S
C791 C392 1.757 . S
C805 C170 1.208 . S
C809 C359 1.597 . S
C823 C181 1.291 . S
C827 C346 1.262 . S
C841 C192 1.394 1_556 S
C845 C282 1.776 . S
C859 C203 1.082 . S
C863 C291 1.062 . S
C877 C304 1.738 . S
C881 C214 1.428 . S
C895 C271 1.689 . S
C899 C227 1.665 . S
C913 C324 1.294 . S
C917 C236 1.301 . S
C931 C249 1.487 . S
C935 C335 1.138 . S
C949 C260 1.863 . S
C953 C315 1.873 . S
C967 C49 1.621 1_655 S
C971 C469 1.635 . S
C985 C480 1.576 . S
C989 C62 1.527 . S
C1003 C73 1.784 . S
C1007 C489 1.837 . S
C1021 C84 1.637 . S
C1025 C458 1.629 . S
C1039 C511 1.462 . S
C1043 C5 1.483 . S
C1057 C16 1.446 . S
C1061 C447 1.451 . S
C1075 C29 1.660 . S
C1079 C522 1.706 . S
C1093 C38 1.556 . S
C1097 C502 1.539 . S
C1111 C161 1.715 . S
C1115 C370 1.706 . S
C1129 C172 1.776 . S
C1133 C379 1.805 . S
C1147 C390 1.351 . S
C1151 C139 1.408 . S
C1165 C148 1.484 . S
C1169 C357 1.461 . S
C1183 C115 1.816 . S
C1187 C436 1.763 . S
C1201 C126 1.330 . S
C1205 C403 1.420 . S
C1219 C412 1.492 . S
C1223 C93 1.470 . S
C1237 C425 1.682 . S
C1241 C106 1.714 . S
C1255 C238 1.540 . S
C1259 C302 1.554 . S
C1273 C326 1.522 . S
C1277 C216 1.570 . S
C1291 C225 1.824 . S
C1295 C337 1.798 . S
C1309 C348 1.631 . S
C1313 C194 1.623 . S
C1327 C205 1.635 . S
C1331 C313 1.620 . S
C1345 C183 1.451 . S
C1349 C280 1.447 . S
C1363 C258 1.707 . S
C1367 C293 1.659 . S
C1381 C269 1.489 . S
C1385 C247 1.419 1_556 S
C1399 C8 1.656 . S
C1403 C107 1.611 . S
C1417 C19 1.720 . S
C1421 C118 1.724 . S
C1435 C129 1.554 . S
C1439 C30 1.531 . S
C1453 C96 1.660 . S
C1457 C41 1.657 . S
C1471 C173 1.749 . S
C1475 C52 1.791 . S
C1489 C140 1.594 . S
C1493 C63 1.512 . S
C1507 C74 1.675 . S
C1511 C151 1.707 . S
C1525 C85 1.714 . S
C1529 C162 1.708 . S
C1543 C206 1.556 . S
C1547 C184 1.523 . S
C1561 C195 1.561 . S
C1565 C250 1.607 . S
C1579 C261 1.752 . S
C1583 C217 1.732 . S
C1597 C228 1.733 . S
C1601 C239 1.706 . S
C1615 C371 1.617 . S
C1619 C272 1.657 . S
C1633 C283 1.720 . S
C1637 C382 1.724 . S
C1651 C294 1.523 . S
C1655 C393 1.554 . S
C1669 C305 1.656 . S
C1673 C360 1.659 . S
C1687 C437 1.742 . S
C1691 C316 1.790 . S
C1705 C404 1.594 . S
C1709 C327 1.514 . S
C1723 C415 1.709 . S
C1727 C338 1.668 . S
C1741 C349 1.715 . S
C1745 C426 1.705 . S
C1759 C470 1.556 . S
C1763 C448 1.520 . S
C1777 C514 1.608 . S
C1781 C459 1.565 . S
C1795 C481 1.734 . S
C1799 C525 1.752 . S
C1813 C503 1.701 . S
C1817 C492 1.733 . S
