# Generated by pormake.
# Topology ofo, (3)-cn, num edge types: 1
# Building blocks:
#     Node 0, Type 0, BuildingBlock: OLANEW_clean_sbu_2, # of connection points: 3
#     Node 1, Type 0, BuildingBlock: OLANEW_clean_sbu_2, # of connection points: 3
#     Node 2, Type 0, BuildingBlock: OLANEW_clean_sbu_2, # of connection points: 3
#     Node 3, Type 0, BuildingBlock: OLANEW_clean_sbu_2, # of connection points: 3
#     Node 4, Type 0, BuildingBlock: OLANEW_clean_sbu_2, # of connection points: 3
#     Node 5, Type 0, BuildingBlock: OLANEW_clean_sbu_2, # of connection points: 3
#     Node 6, Type 0, BuildingBlock: OLANEW_clean_sbu_2, # of connection points: 3
#     Node 7, Type 0, BuildingBlock: OLANEW_clean_sbu_2, # of connection points: 3
#     Node 8, Type 0, BuildingBlock: OLANEW_clean_sbu_2, # of connection points: 3
#     Node 9, Type 0, BuildingBlock: OLANEW_clean_sbu_2, # of connection points: 3
#     Node 10, Type 0, BuildingBlock: OLANEW_clean_sbu_2, # of connection points: 3
#     Node 11, Type 0, BuildingBlock: OLANEW_clean_sbu_2, # of connection points: 3
#     Edge 12, Type (0, 0), BuildingBlock: ZUJKAS_clean_linker_0, # of connection points: 2
#     Edge 13, Type (0, 0), BuildingBlock: ZUJKAS_clean_linker_0, # of connection points: 2
#     Edge 14, Type (0, 0), BuildingBlock: ZUJKAS_clean_linker_0, # of connection points: 2
#     Edge 15, Type (0, 0), BuildingBlock: ZUJKAS_clean_linker_0, # of connection points: 2
#     Edge 16, Type (0, 0), BuildingBlock: ZUJKAS_clean_linker_0, # of connection points: 2
#     Edge 17, Type (0, 0), BuildingBlock: ZUJKAS_clean_linker_0, # of connection points: 2
#     Edge 18, Type (0, 0), BuildingBlock: ZUJKAS_clean_linker_0, # of connection points: 2
#     Edge 19, Type (0, 0), BuildingBlock: ZUJKAS_clean_linker_0, # of connection points: 2
#     Edge 20, Type (0, 0), BuildingBlock: ZUJKAS_clean_linker_0, # of connection points: 2
#     Edge 21, Type (0, 0), BuildingBlock: ZUJKAS_clean_linker_0, # of connection points: 2
#     Edge 22, Type (0, 0), BuildingBlock: ZUJKAS_clean_linker_0, # of connection points: 2
#     Edge 23, Type (0, 0), BuildingBlock: ZUJKAS_clean_linker_0, # of connection points: 2
#     Edge 24, Type (0, 0), BuildingBlock: ZUJKAS_clean_linker_0, # of connection points: 2
#     Edge 25, Type (0, 0), BuildingBlock: ZUJKAS_clean_linker_0, # of connection points: 2
#     Edge 26, Type (0, 0), BuildingBlock: ZUJKAS_clean_linker_0, # of connection points: 2
#     Edge 27, Type (0, 0), BuildingBlock: ZUJKAS_clean_linker_0, # of connection points: 2
#     Edge 28, Type (0, 0), BuildingBlock: ZUJKAS_clean_linker_0, # of connection points: 2
#     Edge 29, Type (0, 0), BuildingBlock: ZUJKAS_clean_linker_0, # of connection points: 2
# Relax obj value: 0.000
# Max RMSD: 0.054
# Mean RMSD: 0.054
data_MOF--net-ofo--node1-OLANEW_clean_sbu_2--edge1-ZUJKAS_clean_linker_0
_symmetry_space_group_name_H-M    P1
_symmetry_Int_Tables_number       1
_symmetry_cell_setting            triclinic
loop_
_symmetry_equiv_pos_as_xyz
'x, y, z'
_cell_length_a     29.217876
_cell_length_b     29.226287
_cell_length_c     100.42641
_cell_angle_alpha  89.920471
_cell_angle_beta   90.072953
_cell_angle_gamma 119.97
loop_
_atom_site_label
_atom_site_type_symbol
_atom_site_fract_x
_atom_site_fract_y
_atom_site_fract_z
_atom_type_partial_charge
O0 O 0.45475 0.20862 0.06454 0.0
Cd1 Cd 0.44838 0.28793 0.06841 0.0
O2 O 0.40529 0.16654 0.08181 0.0
Cd3 Cd 0.40447 0.23625 0.08938 0.0
O4 O 0.43253 0.29997 0.10403 0.0
C5 C 0.47516 0.30916 0.10973 0.0
O6 O 0.49766 0.28199 0.10598 0.0
C7 C 0.4315 0.16711 0.07165 0.0
C8 C 0.37394 0.29205 0.05174 0.0
O9 O 0.42237 0.3124 0.04818 0.0
O10 O 0.36072 0.26973 0.06319 0.0
O11 O 0.27323 0.50454 0.7039 0.0
Cd12 Cd 0.19186 0.50161 0.69674 0.0
O13 O 0.23966 0.48331 0.72387 0.0
Cd14 Cd 0.23086 0.47053 0.74542 0.0
O15 O 0.19586 0.46694 0.76494 0.0
C16 C 0.19993 0.50953 0.76938 0.0
O17 O 0.2262 0.55299 0.76234 0.0
C18 C 0.27843 0.4958 0.71606 0.0
C19 C 0.1101 0.40151 0.6898 0.0
O20 O 0.14294 0.43239 0.68104 0.0
O21 O 0.11659 0.41763 0.70189 0.0
O22 O 0.75255 0.27385 0.38096 0.0
Cd23 Cd 0.6731 0.18681 0.38003 0.0
O24 O 0.76706 0.2439 0.39943 0.0
Cd25 Cd 0.79761 0.24151 0.4191 0.0
O26 O 0.76927 0.20532 0.43867 0.0
C27 C 0.72061 0.17014 0.43906 0.0
O28 O 0.69303 0.15796 0.42798 0.0
C29 C 0.78112 0.28167 0.3912 0.0
C30 C 0.68918 0.10929 0.36853 0.0
O31 O 0.66909 0.13221 0.36178 0.0
O32 O 0.70227 0.12345 0.38065 0.0
O33 O 0.55592 0.74031 0.0379 0.0
Cd34 Cd 0.5764 0.669 0.03631 0.0
O35 O 0.55151 0.72187 0.05904 0.0
Cd36 Cd 0.53579 0.71824 0.08042 0.0
O37 O 0.5179 0.68328 0.10034 0.0
C38 C 0.4761 0.63871 0.10162 0.0
O39 O 0.44548 0.61751 0.09119 0.0
C40 C 0.54752 0.74935 0.04976 0.0
C41 C 0.66098 0.68904 0.01983 0.0
O42 O 0.61334 0.66348 0.01552 0.0
O43 O 0.66866 0.7061 0.03184 0.0
O44 O 0.80806 0.57096 0.7124 0.0
Cd45 Cd 0.89924 0.58994 0.71013 0.0
O46 O 0.82535 0.57428 0.73358 0.0
Cd47 Cd 0.81992 0.56856 0.75529 0.0
O48 O 0.85042 0.56297 0.77477 0.0
C49 C 0.84617 0.51906 0.77811 0.0
O50 O 0.82149 0.47843 0.77008 0.0
C51 C 0.79248 0.5672 0.72437 0.0
C52 C 0.95997 0.66752 0.6915 0.0
O53 O 0.9365 0.61844 0.68838 0.0
O54 O 0.95384 0.67991 0.70334 0.0
O55 O 0.2658 0.79846 0.37109 0.0
Cd56 Cd 0.34278 0.8835 0.36526 0.0
O57 O 0.27949 0.82003 0.39217 0.0
Cd58 Cd 0.27178 0.80987 0.41378 0.0
O59 O 0.29378 0.82045 0.43486 0.0
C60 C 0.34272 0.84309 0.43772 0.0
O61 O 0.37729 0.85853 0.42798 0.0
C62 C 0.25273 0.78647 0.38321 0.0
C63 C 0.31878 0.95395 0.35252 0.0
O64 O 0.32409 0.91942 0.34589 0.0
O65 O 0.32396 0.9546 0.36521 0.0
O66 O 0.71257 0.52802 0.30356 0.0
Cd67 Cd 0.6395 0.54592 0.30499 0.0
O68 O 0.71269 0.54929 0.28273 0.0
Cd69 Cd 0.72876 0.55643 0.26134 0.0
O70 O 0.707 0.55113 0.24034 0.0
C71 C 0.66746 0.50781 0.23663 0.0
O72 O 0.6442 0.4694 0.24536 0.0
C73 C 0.73183 0.53389 0.29193 0.0
C74 C 0.6658 0.64236 0.31667 0.0
O75 O 0.64254 0.59936 0.3234 0.0
O76 O 0.67739 0.6399 0.30449 0.0
O77 O 0.24997 0.75298 0.93963 0.0
Cd78 Cd 0.16226 0.68087 0.93354 0.0
O79 O 0.24792 0.80429 0.92386 0.0
Cd80 Cd 0.17555 0.74187 0.91482 0.0
O81 O 0.1334 0.68002 0.90002 0.0
C82 C 0.15741 0.65579 0.89653 0.0
O83 O 0.20208 0.66773 0.9025 0.0
C84 C 0.27134 0.79742 0.9337 0.0
C85 C 0.083 0.68804 0.94717 0.0
O86 O 0.10048 0.65831 0.95145 0.0
O87 O 0.10283 0.7142 0.93642 0.0
O88 O 0.42229 0.23929 0.59417 0.0
Cd89 Cd 0.408 0.15239 0.58782 0.0
O90 O 0.39301 0.24975 0.57487 0.0
Cd91 Cd 0.3885 0.17937 0.56592 0.0
O92 O 0.40965 0.13411 0.55245 0.0
C93 C 0.44594 0.12408 0.55556 0.0
O94 O 0.46805 0.13819 0.56737 0.0
C95 C 0.41034 0.2665 0.58652 0.0
C96 C 0.33356 0.07238 0.60404 0.0
O97 O 0.38313 0.09329 0.60642 0.0
O98 O 0.31922 0.0893 0.59399 0.0
O99 O 0.19387 0.44608 0.27134 0.0
Cd100 Cd 0.27078 0.43636 0.2665 0.0
O101 O 0.14018 0.38183 0.258 0.0
Cd102 Cd 0.20501 0.37597 0.24893 0.0
O103 O 0.26369 0.3934 0.23334 0.0
C104 C 0.24635 0.37428 0.22186 0.0
O105 O 0.19528 0.34266 0.22031 0.0
C106 C 0.14782 0.41692 0.26659 0.0
C107 C 0.27232 0.35622 0.2814 0.0
O108 O 0.29189 0.40314 0.28604 0.0
O109 O 0.25174 0.34709 0.26974 0.0
O110 O 0.83293 0.23864 0.94958 0.0
Cd111 Cd 0.921 0.31576 0.94687 0.0
O112 O 0.83439 0.20802 0.92969 0.0
Cd113 Cd 0.90674 0.27798 0.92303 0.0
O114 O 0.9402 0.33919 0.90767 0.0
C115 C 0.90812 0.35345 0.90352 0.0
O116 O 0.8615 0.33304 0.90922 0.0
C117 C 0.81122 0.20292 0.94076 0.0
C118 C 0.994 0.31182 0.9641 0.0
O119 O 0.9675 0.33393 0.96762 0.0
O120 O 0.98604 0.29168 0.95241 0.0
O121 O 0.50441 0.78226 0.64251 0.0
Cd122 Cd 0.51471 0.86586 0.65045 0.0
O123 O 0.51161 0.81261 0.62225 0.0
Cd124 Cd 0.50811 0.81226 0.60045 0.0
O125 O 0.50201 0.82556 0.57924 0.0
C126 C 0.46249 0.8289 0.57524 0.0
O127 O 0.4265 0.82341 0.58393 0.0
C128 C 0.50456 0.7752 0.63003 0.0
C129 C 0.61895 0.94289 0.65571 0.0
O130 O 0.58944 0.91155 0.66489 0.0
O131 O 0.59936 0.93722 0.644 0.0
H132 H 0.4421 0.37554 0.11974 0.0
H133 H 0.47652 0.43247 0.13945 0.0
H134 H 0.59024 0.38112 0.14527 0.0
H135 H 0.55774 0.32622 0.12553 0.0
H136 H 0.47539 0.40538 0.16428 0.0
H137 H 0.68352 0.53516 0.15089 0.0
H138 H 0.63445 0.49514 0.13864 0.0
H139 H 0.66749 0.46816 0.14835 0.0
C140 C 0.47507 0.3772 0.12511 0.0
C141 C 0.49729 0.34645 0.12104 0.0
C142 C 0.49466 0.40972 0.13636 0.0
C143 C 0.53677 0.41205 0.1437 0.0
C144 C 0.55904 0.38159 0.13955 0.0
H145 H 0.59352 0.41639 0.22497 0.0
H146 H 0.55981 0.40363 0.20229 0.0
C147 C 0.53994 0.34965 0.1283 0.0
C148 C 0.55454 0.44178 0.15642 0.0
H149 H 0.66606 0.51548 0.17477 0.0
C150 C 0.517 0.43059 0.16647 0.0
C151 C 0.60868 0.47611 0.15927 0.0
C152 C 0.65063 0.49478 0.14863 0.0
C153 C 0.5325 0.44868 0.17954 0.0
C154 C 0.58698 0.47698 0.18274 0.0
C155 C 0.62428 0.49247 0.17244 0.0
C156 C 0.60605 0.48611 0.19673 0.0
C157 C 0.49023 0.43613 0.18983 0.0
C158 C 0.64487 0.53645 0.20107 0.0
C159 C 0.66513 0.5437 0.21402 0.0
C160 C 0.64688 0.5007 0.22286 0.0
C161 C 0.60812 0.45044 0.21847 0.0
C162 C 0.58831 0.44317 0.20552 0.0
H163 H 0.45518 0.43515 0.18522 0.0
H164 H 0.4771 0.39641 0.19408 0.0
H165 H 0.50471 0.46551 0.19803 0.0
H166 H 0.65962 0.57008 0.19442 0.0
H167 H 0.69493 0.58295 0.21712 0.0
H168 H 0.12615 0.42557 0.78402 0.0
H169 H 0.08725 0.42857 0.8054 0.0
H170 H 0.18172 0.59866 0.80525 0.0
H171 H 0.21881 0.59601 0.78379 0.0
H172 H 0.13062 0.45896 0.82825 0.0
H173 H 0.04516 0.5839 0.81667 0.0
H174 H 0.06541 0.55494 0.80374 0.0
H175 H 0.11217 0.61774 0.811 0.0
C176 C 0.1381 0.4636 0.7885 0.0
C177 C 0.17553 0.51058 0.7822 0.0
C178 C 0.11569 0.46527 0.80069 0.0
C179 C 0.13051 0.51391 0.80683 0.0
C180 C 0.16799 0.56071 0.80053 0.0
H181 H 0.21167 0.61608 0.88365 0.0
H182 H 0.18912 0.56795 0.86282 0.0
C183 C 0.18978 0.55912 0.7883 0.0
C184 C 0.11169 0.51631 0.82042 0.0
H185 H 0.07972 0.59268 0.83946 0.0
C186 C 0.11824 0.48732 0.83066 0.0
C187 C 0.09305 0.55127 0.82366 0.0
C188 C 0.0779 0.5781 0.81312 0.0
C189 C 0.11262 0.49687 0.84408 0.0
C190 C 0.10236 0.53804 0.84735 0.0
C191 C 0.08957 0.56245 0.83708 0.0
C192 C 0.11217 0.5615 0.86093 0.0
C193 C 0.11962 0.46372 0.85452 0.0
C194 C 0.07725 0.57552 0.86681 0.0
C195 C 0.09078 0.6045 0.87868 0.0
C196 C 0.13958 0.62003 0.88488 0.0
C197 C 0.17357 0.60441 0.87923 0.0
C198 C 0.16035 0.57616 0.86733 0.0
H199 H 0.10062 0.42189 0.85123 0.0
H200 H 0.16238 0.47786 0.85581 0.0
H201 H 0.10263 0.46518 0.86427 0.0
H202 H 0.04028 0.56551 0.86201 0.0
H203 H 0.06371 0.61594 0.88279 0.0
H204 H 0.76594 0.17852 0.46353 0.0
H205 H 0.72067 0.14783 0.48493 0.0
H206 H 0.56999 0.08087 0.46496 0.0
H207 H 0.61476 0.10958 0.44359 0.0
H208 H 0.66329 0.18346 0.49524 0.0
H209 H 0.53558 0.96706 0.49155 0.0
H210 H 0.5877 0.00435 0.47971 0.0
H211 H 0.52388 0.99918 0.47787 0.0
C212 C 0.72316 0.15624 0.46368 0.0
C213 C 0.69397 0.14682 0.45187 0.0
C214 C 0.69731 0.13854 0.47592 0.0
C215 C 0.64181 0.11134 0.47659 0.0
C216 C 0.6127 0.10032 0.46473 0.0
H217 H 0.41174 0.0941 0.52997 0.0
H218 H 0.45973 0.08028 0.51195 0.0
C219 C 0.63848 0.11741 0.45249 0.0
C220 C 0.6147 0.10178 0.48966 0.0
H221 H 0.50916 0.011 0.5078 0.0
C222 C 0.63033 0.1454 0.49809 0.0
C223 C 0.57133 0.05218 0.49338 0.0
C224 C 0.55407 0.003 0.48519 0.0
C225 C 0.60234 0.14163 0.50974 0.0
C226 C 0.55778 0.09271 0.51316 0.0
C227 C 0.54314 0.04846 0.50506 0.0
C228 C 0.52375 0.08884 0.52449 0.0
C229 C 0.61909 0.19071 0.51797 0.0
C230 C 0.54279 0.09581 0.53758 0.0
C231 C 0.51557 0.10388 0.54791 0.0
C232 C 0.46895 0.10524 0.54527 0.0
C233 C 0.44784 0.0939 0.53231 0.0
C234 C 0.47504 0.08572 0.52201 0.0
H235 H 0.64977 0.22695 0.51292 0.0
H236 H 0.5846 0.1957 0.52017 0.0
H237 H 0.63548 0.18678 0.5276 0.0
H238 H 0.5802 0.09795 0.53968 0.0
H239 H 0.53265 0.11194 0.5578 0.0
H240 H 0.21878 0.34944 0.19582 0.0
H241 H 0.27345 0.3901 0.17628 0.0
H242 H 0.40859 0.48192 0.20148 0.0
H243 H 0.35353 0.44224 0.22122 0.0
H244 H 0.39186 0.54259 0.18423 0.0
H245 H 0.38439 0.37644 0.1561 0.0
H246 H 0.32003 0.36319 0.16102 0.0
H247 H 0.36762 0.37137 0.17356 0.0
C248 C 0.26036 0.37746 0.19724 0.0
C249 C 0.28166 0.39287 0.2101 0.0
C250 C 0.29178 0.40034 0.18602 0.0
C251 C 0.34537 0.43852 0.18738 0.0
C252 C 0.3674 0.45229 0.20019 0.0
H253 H 0.53775 0.66209 0.124 0.0
H254 H 0.51447 0.61406 0.14519 0.0
C255 C 0.33586 0.42958 0.21146 0.0
C256 C 0.3759 0.46874 0.17554 0.0
H257 H 0.40418 0.45421 0.14339 0.0
C258 C 0.39568 0.5235 0.17538 0.0
C259 C 0.38069 0.44375 0.164 0.0
C260 C 0.36253 0.38553 0.16371 0.0
C261 C 0.41684 0.55338 0.16375 0.0
C262 C 0.41937 0.52793 0.15202 0.0
C263 C 0.4021 0.47364 0.15237 0.0
C264 C 0.43538 0.55583 0.13904 0.0
C265 C 0.43319 0.61123 0.16392 0.0
C266 C 0.39931 0.53814 0.12843 0.0
C267 C 0.41267 0.56504 0.11629 0.0
C268 C 0.46241 0.61038 0.11452 0.0
C269 C 0.49886 0.62768 0.1251 0.0
C270 C 0.48559 0.60037 0.13723 0.0
H271 H 0.4179 0.62181 0.17282 0.0
H272 H 0.47694 0.63529 0.1641 0.0
H273 H 0.41887 0.62211 0.15487 0.0
H274 H 0.36035 0.50385 0.12961 0.0
H275 H 0.38373 0.55056 0.10834 0.0
H276 H 0.91862 0.5979 0.79416 0.0
H277 H 0.95629 0.58818 0.81506 0.0
H278 H 0.86214 0.41865 0.81163 0.0
H279 H 0.8262 0.42807 0.79058 0.0
H280 H 0.91093 0.55003 0.83738 0.0
H281 H 0.99787 0.42929 0.82206 0.0
H282 H 0.97841 0.46258 0.8101 0.0
H283 H 0.93089 0.39826 0.81643 0.0
C284 C 0.90645 0.55856 0.79781 0.0
C285 C 0.86946 0.51372 0.79071 0.0
C286 C 0.92819 0.55306 0.80972 0.0
C287 C 0.9132 0.50266 0.81479 0.0
C288 C 0.87607 0.45795 0.80771 0.0
H289 H 0.84276 0.38114 0.89113 0.0
H290 H 0.85743 0.42878 0.87032 0.0
C291 C 0.85492 0.4634 0.79574 0.0
C292 C 0.93161 0.49627 0.82811 0.0
H293 H 0.9676 0.41807 0.84515 0.0
C294 C 0.92442 0.52199 0.83902 0.0
C295 C 0.95119 0.46128 0.83035 0.0
C296 C 0.96565 0.43689 0.81907 0.0
C297 C 0.93114 0.50971 0.85212 0.0
C298 C 0.94371 0.46944 0.85438 0.0
C299 C 0.95628 0.44775 0.84347 0.0
C300 C 0.93775 0.44497 0.8677 0.0
C301 C 0.92355 0.53933 0.8634 0.0
C302 C 0.97758 0.437 0.87312 0.0
C303 C 0.96893 0.40872 0.88502 0.0
C304 C 0.92013 0.38776 0.89166 0.0
C305 C 0.88093 0.39697 0.88635 0.0
C306 C 0.88947 0.42477 0.87447 0.0
H307 H 0.93663 0.5807 0.86042 0.0
H308 H 0.88091 0.52014 0.86589 0.0
H309 H 0.94579 0.53999 0.87244 0.0
H310 H 0.01489 0.45175 0.868 0.0
H311 H 0.99992 0.40224 0.88884 0.0
H312 H 0.37773 0.82699 0.56317 0.0
H313 H 0.36664 0.83939 0.53957 0.0
H314 H 0.52323 0.86647 0.53153 0.0
H315 H 0.53422 0.85281 0.55511 0.0
H316 H 0.42246 0.92331 0.52248 0.0
H317 H 0.43326 0.74734 0.50604 0.0
H318 H 0.42649 0.75972 0.52331 0.0
H319 H 0.48974 0.79505 0.51524 0.0
C320 C 0.40986 0.83555 0.5564 0.0
C321 C 0.45664 0.83829 0.561 0.0
C322 C 0.4035 0.84282 0.54291 0.0
C323 C 0.44376 0.85303 0.53376 0.0
C324 C 0.49119 0.85746 0.53838 0.0
H325 H 0.44321 0.88027 0.44701 0.0
H326 H 0.47219 0.88958 0.47023 0.0
C327 C 0.49746 0.84981 0.55186 0.0
C328 C 0.43519 0.85756 0.51937 0.0
H329 H 0.42472 0.799 0.48924 0.0
C330 C 0.42302 0.89619 0.5152 0.0
C331 C 0.43613 0.82223 0.50989 0.0
C332 C 0.44664 0.77843 0.51382 0.0
C333 C 0.41108 0.89991 0.50183 0.0
C334 C 0.41124 0.86406 0.49245 0.0
C335 C 0.42481 0.82647 0.49651 0.0
C336 C 0.39456 0.86274 0.47848 0.0
C337 C 0.39842 0.94206 0.49777 0.0
C338 C 0.34126 0.84437 0.47548 0.0
C339 C 0.32441 0.83852 0.46224 0.0
C340 C 0.36066 0.851 0.45176 0.0
C341 C 0.41425 0.87029 0.45483 0.0
C342 C 0.43097 0.87576 0.46808 0.0
H343 H 0.40803 0.97181 0.50575 0.0
H344 H 0.42062 0.96249 0.48863 0.0
H345 H 0.35563 0.92348 0.49549 0.0
H346 H 0.31247 0.83335 0.4834 0.0
H347 H 0.28291 0.82364 0.46023 0.0
H348 H 0.38876 0.07298 0.08505 0.0
H349 H 0.40569 1.00008 0.08132 0.0
H350 H 0.50511 0.08314 0.04785 0.0
H351 H 0.48889 0.15654 0.05155 0.0
H352 H 0.38884 0.93573 0.05876 0.0
H353 H 0.60135 0.05353 0.07214 0.0
H354 H 0.55469 0.07514 0.07586 0.0
H355 H 0.58067 0.08217 0.0593 0.0
C356 C 0.41398 0.0757 0.07683 0.0
C357 C 0.43781 0.12087 0.06866 0.0
C358 C 0.42359 0.03395 0.07472 0.0
C359 C 0.45738 0.03666 0.06446 0.0
C360 C 0.47972 0.08076 0.05599 0.0
H361 H 0.50283 0.78722 0.03239 0.0
H362 H 0.47917 0.85536 0.03633 0.0
C363 C 0.47012 0.12253 0.05808 0.0
C364 C 0.4699 0.99371 0.06278 0.0
H365 H 0.57168 0.96784 0.06342 0.0
C366 C 0.42877 0.94265 0.05979 0.0
C367 C 0.52191 0.00275 0.06435 0.0
C368 C 0.5672 0.05622 0.06821 0.0
C369 C 0.43846 0.90054 0.05807 0.0
C370 C 0.49075 0.90999 0.05921 0.0
C371 C 0.53169 0.96081 0.06246 0.0
C372 C 0.50399 0.8678 0.05694 0.0
C373 C 0.39258 0.84619 0.0552 0.0
C374 C 0.52695 0.85303 0.06714 0.0
C375 C 0.54078 0.81423 0.0649 0.0
C376 C 0.53208 0.78967 0.0524 0.0
C377 C 0.50967 0.80508 0.04216 0.0
C378 C 0.49574 0.84373 0.04442 0.0
H379 H 0.35427 0.84277 0.05806 0.0
H380 H 0.39126 0.83819 0.04437 0.0
H381 H 0.39704 0.81541 0.06058 0.0
H382 H 0.53434 0.8717 0.07683 0.0
H383 H 0.55952 0.80463 0.07285 0.0
H384 H 0.29853 0.4508 0.73786 0.0
H385 H 0.38407 0.46104 0.74458 0.0
H386 H 0.45866 0.56454 0.71113 0.0
H387 H 0.3742 0.55524 0.70451 0.0
H388 H 0.44872 0.43506 0.72902 0.0
H389 H 0.55573 0.64689 0.7424 0.0
H390 H 0.48453 0.60873 0.74129 0.0
H391 H 0.52378 0.6352 0.72649 0.0
C392 C 0.33335 0.47665 0.73213 0.0
C393 C 0.32964 0.50272 0.72075 0.0
C394 C 0.38211 0.48217 0.73592 0.0
C395 C 0.4279 0.51436 0.72849 0.0
C396 C 0.42414 0.54048 0.71718 0.0
H397 H 0.70842 0.5204 0.70763 0.0
H398 H 0.61875 0.50323 0.71131 0.0
C399 C 0.37564 0.53472 0.71335 0.0
C400 C 0.47929 0.5184 0.73182 0.0
H401 H 0.60971 0.609 0.73636 0.0
C402 C 0.48378 0.4729 0.73091 0.0
C403 C 0.5249 0.56763 0.73448 0.0
C404 C 0.522 0.61731 0.73637 0.0
C405 C 0.53327 0.47596 0.73164 0.0
C406 C 0.57938 0.52589 0.73315 0.0
C407 C 0.57444 0.5708 0.73504 0.0
C408 C 0.6331 0.53312 0.73149 0.0
C409 C 0.53584 0.42586 0.73043 0.0
C410 C 0.67146 0.55661 0.74153 0.0
C411 C 0.72315 0.56673 0.73942 0.0
C412 C 0.7374 0.55404 0.72718 0.0
C413 C 0.69875 0.53046 0.71719 0.0
C414 C 0.64726 0.52014 0.71933 0.0
H415 H 0.49833 0.39094 0.73373 0.0
H416 H 0.5422 0.41974 0.71984 0.0
H417 H 0.5689 0.42807 0.7364 0.0
H418 H 0.66157 0.56769 0.75092 0.0
H419 H 0.75215 0.58605 0.7472 0.0
H420 H 0.22403 0.69409 0.37061 0.0
H421 H 0.14562 0.60814 0.37455 0.0
H422 H 0.0997 0.67442 0.40672 0.0
H423 H 0.17976 0.7603 0.40316 0.0
H424 H 0.07673 0.57599 0.41273 0.0
H425 H 0.00327 0.57642 0.36198 0.0
H426 H 0.06657 0.58067 0.36154 0.0
H427 H 0.06004 0.63335 0.3689 0.0
C428 C 0.19745 0.69019 0.37861 0.0
C429 C 0.20776 0.73386 0.38654 0.0
C430 C 0.15246 0.64114 0.3808 0.0
C431 C 0.11584 0.63511 0.39066 0.0
C432 C 0.12717 0.67818 0.39898 0.0
H433 H 0.79346 0.37682 0.3843 0.0
H434 H 0.87299 0.46331 0.38608 0.0
C435 C 0.17295 0.72717 0.39697 0.0
C436 C 0.065 0.58449 0.39189 0.0
H437 H 0.95918 0.49497 0.37376 0.0
C438 C 0.05074 0.5584 0.40424 0.0
C439 C 0.03044 0.562 0.3809 0.0
C440 C 0.04055 0.58987 0.36764 0.0
C441 C 0.00349 0.50994 0.40582 0.0
C442 C 0.97044 0.4861 0.39462 0.0
C443 C 0.9845 0.51275 0.38235 0.0
C444 C 0.92062 0.43409 0.39525 0.0
C445 C 0.98909 0.4856 0.41952 0.0
C446 C 0.92018 0.38861 0.40006 0.0
C447 C 0.87406 0.3391 0.39935 0.0
C448 C 0.82814 0.33407 0.39346 0.0
C449 C 0.8284 0.37956 0.38884 0.0
C450 C 0.87391 0.42902 0.38985 0.0
H451 H 0.00822 0.51596 0.42742 0.0
H452 H 0.94569 0.46456 0.42111 0.0
H453 H 0.00315 0.45687 0.42066 0.0
H454 H 0.9559 0.39095 0.4039 0.0
H455 H 0.87509 0.3045 0.4028 0.0
H456 H 0.74829 0.46119 0.30464 0.0
H457 H 0.81828 0.44026 0.30058 0.0
H458 H 0.88173 0.55817 0.26956 0.0
H459 H 0.81082 0.5782 0.27336 0.0
H460 H 0.88107 0.47143 0.26183 0.0
H461 H 0.96886 0.5236 0.31225 0.0
H462 H 0.9004 0.47381 0.31273 0.0
H463 H 0.91938 0.53891 0.30664 0.0
C464 C 0.77721 0.48265 0.29696 0.0
C465 C 0.77391 0.52109 0.28926 0.0
C466 C 0.81743 0.47093 0.29471 0.0
C467 C 0.85601 0.49838 0.28495 0.0
C468 C 0.85249 0.53651 0.27716 0.0
H469 H 0.15485 0.5028 0.27931 0.0
H470 H 0.08381 0.5219 0.2836 0.0
C471 C 0.81177 0.54772 0.27928 0.0
C472 C 0.8994 0.48667 0.2827 0.0
H473 H 0.99796 0.47689 0.2984 0.0
C474 C 0.90681 0.4729 0.26982 0.0
C475 C 0.93361 0.48942 0.29306 0.0
C476 C 0.93058 0.50779 0.30691 0.0
C477 C 0.9469 0.46112 0.26704 0.0
C478 C 0.97945 0.46138 0.27755 0.0
C479 C 0.97253 0.47588 0.29039 0.0
C480 C 0.02201 0.4484 0.27535 0.0
C481 C 0.95472 0.44989 0.25281 0.0
C482 C 0.01084 0.40012 0.2696 0.0
C483 C 0.05154 0.38937 0.26697 0.0
C484 C 0.10409 0.42623 0.27031 0.0
C485 C 0.11482 0.47353 0.27661 0.0
C486 C 0.07422 0.48455 0.27906 0.0
H487 H 0.93802 0.46672 0.24566 0.0
H488 H 0.99725 0.46631 0.2505 0.0
H489 H 0.93405 0.40654 0.25124 0.0
H490 H 0.97067 0.37085 0.26704 0.0
H491 H 0.04187 0.35232 0.26224 0.0
H492 H 0.75168 0.12366 0.92327 0.0
H493 H 0.6602 0.05345 0.92581 0.0
H494 H 0.65718 0.1073 0.96559 0.0
H495 H 0.74878 0.17872 0.96304 0.0
H496 H 0.61086 0.97158 0.94359 0.0
H497 H 0.53325 0.11026 0.94777 0.0
H498 H 0.60009 0.13154 0.94264 0.0
H499 H 0.58213 0.119 0.95992 0.0
C500 C 0.73183 0.12053 0.93261 0.0
C501 C 0.75749 0.15723 0.9429 0.0
C502 C 0.67946 0.08025 0.93405 0.0
C503 C 0.65157 0.07569 0.9458 0.0
C504 C 0.67763 0.1108 0.95633 0.0
H505 H 0.33279 0.79812 0.95451 0.0
H506 H 0.42407 0.8656 0.95953 0.0
C507 C 0.73009 0.15138 0.95488 0.0
C508 C 0.59481 0.03505 0.94669 0.0
H509 H 0.47108 0.01946 0.94855 0.0
C510 C 0.58023 0.9819 0.94481 0.0
C511 C 0.555 0.04881 0.94815 0.0
C512 C 0.56813 0.10549 0.94963 0.0
C513 C 0.52694 0.94224 0.94397 0.0
C514 C 0.48713 0.95603 0.94535 0.0
C515 C 0.50169 0.00899 0.9476 0.0
C516 C 0.43044 0.917 0.94323 0.0
C517 C 0.51388 0.88639 0.94097 0.0
C518 C 0.40302 0.92458 0.93278 0.0
C519 C 0.3508 0.88651 0.92998 0.0
C520 C 0.32485 0.83992 0.93758 0.0
C521 C 0.35174 0.83332 0.94839 0.0
C522 C 0.40402 0.87169 0.95123 0.0
H523 H 0.54889 0.88463 0.93736 0.0
H524 H 0.49955 0.86231 0.95018 0.0
H525 H 0.48222 0.86822 0.93334 0.0
H526 H 0.42256 0.95936 0.92651 0.0
H527 H 0.33132 0.89303 0.92161 0.0
H528 H 0.53959 0.75393 0.60673 0.0
H529 H 0.5213 0.66748 0.59851 0.0
H530 H 0.4315 0.59375 0.63401 0.0
H531 H 0.44833 0.67967 0.6421 0.0
H532 H 0.54676 0.59597 0.61102 0.0
H533 H 0.33051 0.50674 0.60356 0.0
H534 H 0.37415 0.57702 0.60537 0.0
H535 H 0.35338 0.53486 0.61978 0.0
C536 C 0.51483 0.7192 0.61261 0.0
C537 C 0.49426 0.72346 0.62489 0.0
C538 C 0.50497 0.66992 0.60799 0.0
C539 C 0.47422 0.62414 0.61555 0.0
C540 C 0.45438 0.62844 0.6279 0.0
H541 H 0.45187 0.31737 0.61016 0.0
H542 H 0.46768 0.40445 0.61699 0.0
C543 C 0.46435 0.67761 0.63254 0.0
C544 C 0.46409 0.57197 0.61074 0.0
H545 H 0.36522 0.44857 0.60232 0.0
C546 C 0.50713 0.56378 0.60905 0.0
C547 C 0.41237 0.53028 0.60807 0.0
C548 C 0.36492 0.5376 0.60916 0.0
C549 C 0.4997 0.51453 0.60501 0.0
C550 C 0.44782 0.47231 0.60278 0.0
C551 C 0.40489 0.48087 0.60419 0.0
C552 C 0.43731 0.41911 0.5988 0.0
C553 C 0.54743 0.50822 0.60304 0.0
C554 C 0.41365 0.39792 0.58647 0.0
C555 C 0.40434 0.34811 0.58256 0.0
C556 C 0.4182 0.31834 0.59095 0.0
C557 C 0.44091 0.33928 0.60343 0.0
C558 C 0.45029 0.38919 0.60732 0.0
H559 H 0.58427 0.54699 0.60201 0.0
H560 H 0.55197 0.48765 0.6118 0.0
H561 H 0.54273 0.48409 0.59406 0.0
H562 H 0.40305 0.42028 0.57979 0.0
H563 H 0.38666 0.33318 0.5729 0.0
H564 H 0.05638 0.26821 0.95947 0.0
H565 H 0.12 0.26459 0.97466 0.0
H566 H 0.08238 0.34612 0.00464 0.0
H567 H 0.01911 0.35053 0.98946 0.0
H568 H 0.19062 0.38688 0.00125 0.0
H569 H 0.08585 0.16905 0.00741 0.0
H570 H 0.09808 0.19081 0.99039 0.0
H571 H 0.05452 0.20339 0.00037 0.0
C572 C 0.0615 0.28526 0.9693 0.0
C573 C 0.03251 0.30949 0.97327 0.0
C574 C 0.09767 0.28288 0.978 0.0
C575 C 0.1053 0.30436 0.99084 0.0
C576 C 0.07686 0.32905 0.99479 0.0
H577 H 0.26866 0.2529 0.05651 0.0
H578 H 0.20381 0.25727 0.04191 0.0
C579 C 0.04069 0.33147 0.9861 0.0
C580 C 0.14377 0.30213 7e-05 0.0
H581 H 0.17281 0.21692 0.01626 0.0
C582 C 0.18669 0.34975 0.00457 0.0
C583 C 0.13813 0.25362 0.00452 0.0
C584 C 0.09142 0.20127 0.00054 0.0
C585 C 0.2247 0.35017 0.01322 0.0
C586 C 0.22 0.30167 0.01731 0.0
C587 C 0.17656 0.25405 0.01301 0.0
C588 C 0.25958 0.29946 0.02613 0.0
C589 C 0.2691 0.40252 0.01805 0.0
C590 C 0.3123 0.3212 0.02203 0.0
C591 C 0.34947 0.31885 0.03035 0.0
C592 C 0.33452 0.29439 0.0429 0.0
C593 C 0.28152 0.27214 0.04692 0.0
C594 C 0.24439 0.27454 0.03859 0.0
H595 H 0.25955 0.43464 0.01685 0.0
H596 H 0.27811 0.40024 0.0287 0.0
H597 H 0.30518 0.41325 0.01215 0.0
H598 H 0.32463 0.33968 0.01234 0.0
H599 H 0.38989 0.3361 0.02691 0.0
H600 H 0.66718 0.97273 0.68002 0.0
H601 H 0.75468 0.04756 0.685 0.0
H602 H 0.78176 0.0838 0.64312 0.0
H603 H 0.69384 0.00983 0.63807 0.0
H604 H 0.85496 0.07238 0.6772 0.0
H605 H 0.80671 0.2225 0.65871 0.0
H606 H 0.75688 0.15444 0.66136 0.0
H607 H 0.79707 0.17336 0.6466 0.0
C608 C 0.6918 0.9965 0.67186 0.0
C609 C 0.67334 0.98569 0.65866 0.0
C610 C 0.74182 0.03921 0.67473 0.0
C611 C 0.77429 0.07184 0.66446 0.0
C612 C 0.75682 0.0599 0.65122 0.0
H613 H 0.07979 0.36106 0.66473 0.0
H614 H 0.00087 0.27849 0.65836 0.0
C615 C 0.70667 0.01743 0.64835 0.0
C616 C 0.82592 0.11894 0.66765 0.0
H617 H 0.89536 0.25342 0.66509 0.0
C618 C 0.86383 0.11197 0.67456 0.0
C619 C 0.8373 0.17058 0.66423 0.0
C620 C 0.79722 0.18091 0.65743 0.0
C621 C 0.91302 0.1553 0.67805 0.0
C622 C 0.92426 0.20681 0.67462 0.0
C623 C 0.88662 0.21376 0.66762 0.0
C624 C 0.97414 0.2544 0.67857 0.0
C625 C 0.95278 0.14571 0.68526 0.0
C626 C 0.98519 0.26804 0.69205 0.0
C627 C 0.03008 0.31528 0.69573 0.0
C628 C 0.06469 0.34974 0.68598 0.0
C629 C 0.05403 0.33535 0.67249 0.0
C630 C 0.00896 0.28824 0.66882 0.0
H631 H 0.94329 0.10399 0.68436 0.0
H632 H 0.99322 0.17189 0.68134 0.0
H633 H 0.95271 0.1547 0.69599 0.0
H634 H 0.9583 0.24285 0.69971 0.0
H635 H 0.0371 0.32523 0.7062 0.0
H636 H 0.75978 0.07831 0.37563 0.0
H637 H 0.7683 0.00565 0.36626 0.0
H638 H 0.63821 0.96855 0.33962 0.0
H639 H 0.63198 0.04313 0.34837 0.0
H640 H 0.70685 0.9069 0.36678 0.0
H641 H 0.73551 0.96227 0.31371 0.0
H642 H 0.73793 0.0069 0.32642 0.0
H643 H 0.67548 0.95784 0.31946 0.0
C644 C 0.7336 0.05506 0.36763 0.0
C645 C 0.69554 0.06656 0.36263 0.0
C646 C 0.73841 0.0135 0.36229 0.0
C647 C 0.70465 0.98208 0.35201 0.0
C648 C 0.66612 0.99325 0.34717 0.0
H649 H 0.61383 0.65764 0.3371 0.0
H650 H 0.62806 0.74157 0.34588 0.0
C651 C 0.66223 0.03564 0.35226 0.0
C652 C 0.70741 0.93567 0.34695 0.0
H653 H 0.70398 0.8703 0.31851 0.0
C654 C 0.70706 0.89939 0.35621 0.0
C655 C 0.709 0.92614 0.33318 0.0
C656 C 0.71515 0.96575 0.32266 0.0
C657 C 0.70619 0.85309 0.3521 0.0
C658 C 0.70295 0.84132 0.33833 0.0
C659 C 0.70545 0.87859 0.32907 0.0
C660 C 0.69547 0.79016 0.33329 0.0
C661 C 0.7095 0.81786 0.3626 0.0
C662 C 0.72718 0.78913 0.32291 0.0
C663 C 0.71783 0.74107 0.31755 0.0
C664 C 0.67719 0.6931 0.32264 0.0
C665 C 0.64598 0.69403 0.33314 0.0
C666 C 0.65443 0.74208 0.33825 0.0
H667 H 0.73156 0.84106 0.37149 0.0
H668 H 0.66904 0.78856 0.36592 0.0
H669 H 0.72924 0.79647 0.35878 0.0
H670 H 0.75893 0.82558 0.31885 0.0
H671 H 0.74247 0.74144 0.30945 0.0
H672 H 0.76582 0.76 0.02331 0.0
H673 H 0.84003 0.76866 0.0101 0.0
H674 H 0.73139 0.64121 0.98474 0.0
H675 H 0.6571 0.63413 0.99752 0.0
H676 H 0.87271 0.70192 0.00706 0.0
H677 H 0.82254 0.74309 0.9571 0.0
H678 H 0.78871 0.74512 0.9719 0.0
H679 H 0.76932 0.68315 0.96373 0.0
C680 C 0.75778 0.73442 0.01478 0.0
C681 C 0.70567 0.69658 0.0114 0.0
C682 C 0.8002 0.73934 0.00725 0.0
C683 C 0.79139 0.70618 0.99627 0.0
C684 C 0.73927 0.66841 0.99288 0.0
H685 H 0.0157 0.62088 0.96603 0.0
H686 H 0.94629 0.62753 0.97789 0.0
C687 C 0.69679 0.66412 0.00026 0.0
C688 C 0.83673 0.70859 0.98895 0.0
H689 H 0.88523 0.71262 0.9578 0.0
C690 C 0.87573 0.7049 0.99629 0.0
C691 C 0.84135 0.71339 0.97492 0.0
C692 C 0.80352 0.72201 0.96649 0.0
C693 C 0.91829 0.70439 0.98999 0.0
C694 C 0.92091 0.70553 0.9759 0.0
C695 C 0.88282 0.71083 0.96858 0.0
C696 C 0.96261 0.70105 0.96857 0.0
C697 C 0.96035 0.70347 0.99854 0.0
C698 C 0.99349 0.7389 0.95895 0.0
C699 C 0.03233 0.73445 0.95191 0.0
C700 C 0.04132 0.69227 0.95444 0.0
C701 C 0.01014 0.65419 0.96399 0.0
C702 C 0.97072 0.65819 0.97085 0.0
H703 H 0.96226 0.72057 0.00854 0.0
H704 H 0.95069 0.66195 0.0 0.0
H705 H 0.99993 0.72577 0.99384 0.0
H706 H 0.98778 0.77215 0.95695 0.0
H707 H 0.05574 0.76441 0.94461 0.0
H708 H 0.35006 0.01158 0.6219 0.0
H709 H 0.28455 0.94093 0.63598 0.0
H710 H 0.163 0.96859 0.62023 0.0
H711 H 0.22792 0.03771 0.60571 0.0
H712 H 0.22606 0.94296 0.65536 0.0
H713 H 0.09275 0.81239 0.61585 0.0
H714 H 0.15692 0.86815 0.61223 0.0
H715 H 0.10119 0.87743 0.615 0.0
C716 C 0.30929 0.00234 0.62137 0.0
C717 C 0.29404 0.02992 0.61263 0.0
C718 C 0.27187 0.96196 0.62943 0.0
C719 C 0.21857 0.94866 0.629 0.0
C720 C 0.20349 0.97691 0.62045 0.0
H721 H 0.99674 0.77366 0.69273 0.0
H722 H 0.05779 0.84188 0.67737 0.0
C723 C 0.24074 0.01672 0.61223 0.0
C724 C 0.17932 0.90654 0.63784 0.0
H725 H 0.05976 0.79266 0.63808 0.0
C726 C 0.18984 0.90993 0.65156 0.0
C727 C 0.13238 0.86296 0.63288 0.0
C728 C 0.12037 0.85464 0.61817 0.0
C729 C 0.15465 0.87137 0.66046 0.0
C730 C 0.10654 0.82914 0.65558 0.0
C731 C 0.09626 0.8254 0.64185 0.0
C732 C 0.06704 0.78764 0.66451 0.0
C733 C 0.17024 0.87566 0.67494 0.0
C734 C 0.04974 0.73415 0.66202 0.0
C735 C 0.01383 0.69498 0.6706 0.0
C736 C 0.99488 0.7086 0.6819 0.0
C737 C 0.01117 0.76202 0.68419 0.0
C738 C 0.04641 0.80109 0.67548 0.0
H739 H 0.21376 0.89982 0.67624 0.0
H740 H 0.15208 0.89527 0.68054 0.0
H741 H 0.15658 0.83613 0.6794 0.0
H742 H 0.06482 0.72275 0.65357 0.0
H743 H 0.00202 0.65415 0.66857 0.0
H744 H 0.31953 0.04023 0.3633 0.0
H745 H 0.3074 0.10717 0.35168 0.0
H746 H 0.28355 0.02338 0.31471 0.0
H747 H 0.29585 0.95635 0.3262 0.0
H748 H 0.37144 0.16873 0.32845 0.0
H749 H 0.15581 0.05151 0.3181 0.0
H750 H 0.18707 0.0342 0.33116 0.0
H751 H 0.1941 0.02064 0.3141 0.0
C752 C 0.31124 0.03576 0.35272 0.0
C753 C 0.30863 0.99294 0.34567 0.0
C754 C 0.30441 0.07407 0.3461 0.0
C755 C 0.29415 0.06988 0.33238 0.0
C756 C 0.2908 0.0269 0.32534 0.0
H757 H 0.24656 0.25721 0.27302 0.0
H758 H 0.25244 0.18874 0.28566 0.0
C759 C 0.29804 0.98878 0.33192 0.0
C760 C 0.28944 0.11178 0.32529 0.0
H761 H 0.20283 0.13606 0.30816 0.0
C762 C 0.33457 0.16183 0.32407 0.0
C763 C 0.24136 0.1023 0.31953 0.0
C764 C 0.19159 0.04941 0.32082 0.0
C765 C 0.3332 0.20255 0.31697 0.0
C766 C 0.28495 0.19329 0.31126 0.0
C767 C 0.23974 0.14316 0.31255 0.0
C768 C 0.28073 0.23481 0.30374 0.0
C769 C 0.38386 0.2545 0.31531 0.0
C770 C 0.29383 0.28318 0.30976 0.0
C771 C 0.29099 0.3226 0.30252 0.0
C772 C 0.27418 0.31407 0.28917 0.0
C773 C 0.25976 0.26508 0.28327 0.0
C774 C 0.26305 0.22587 0.29049 0.0
H775 H 0.41915 0.25016 0.31688 0.0
H776 H 0.3864 0.27138 0.30525 0.0
H777 H 0.38515 0.28301 0.3228 0.0
H778 H 0.30622 0.29047 0.32008 0.0
H779 H 0.30187 0.35969 0.3074 0.0
loop_
_geom_bond_atom_site_label_1
_geom_bond_atom_site_label_2
_geom_bond_distance
_geom_bond_site_symmetry_2
_ccdc_geom_bond_type
O0 Cd1 2.300 . S
O0 C7 1.275 . S
Cd1 O0 2.300 . S
Cd1 O9 2.381 . S
Cd1 O10 2.378 . S
O2 Cd3 2.385 . S
O2 C7 1.255 . S
Cd3 O2 2.385 . S
Cd3 O4 2.317 . S
O4 Cd3 2.317 . S
O4 C5 1.232 . S
C5 O4 1.232 . S
C5 O6 1.218 . S
O6 C5 1.218 . S
C7 O0 1.275 . S
C7 O2 1.255 . S
C8 O9 1.258 . S
C8 O10 1.256 . S
O9 Cd1 2.381 . S
O9 C8 1.258 . S
O10 Cd1 2.378 . S
O10 C8 1.256 . S
O11 Cd12 2.300 . S
O11 C18 1.275 . S
Cd12 O11 2.300 . S
Cd12 O20 2.381 . S
Cd12 O21 2.378 . S
O13 Cd14 2.385 . S
O13 C18 1.255 . S
Cd14 O13 2.385 . S
Cd14 O15 2.317 . S
O15 Cd14 2.317 . S
O15 C16 1.232 . S
C16 O15 1.232 . S
C16 O17 1.218 . S
O17 C16 1.218 . S
C18 O11 1.275 . S
C18 O13 1.255 . S
C19 O20 1.258 . S
C19 O21 1.256 . S
O20 Cd12 2.381 . S
O20 C19 1.258 . S
O21 Cd12 2.378 . S
O21 C19 1.256 . S
O22 Cd23 2.300 . S
O22 C29 1.275 . S
Cd23 O22 2.300 . S
Cd23 O31 2.381 . S
Cd23 O32 2.378 . S
O24 Cd25 2.385 . S
O24 C29 1.255 . S
Cd25 O24 2.385 . S
Cd25 O26 2.317 . S
O26 Cd25 2.317 . S
O26 C27 1.232 . S
C27 O26 1.232 . S
C27 O28 1.218 . S
O28 C27 1.218 . S
C29 O22 1.275 . S
C29 O24 1.255 . S
C30 O31 1.258 . S
C30 O32 1.256 . S
O31 Cd23 2.381 . S
O31 C30 1.258 . S
O32 Cd23 2.378 . S
O32 C30 1.256 . S
O33 Cd34 2.300 . S
O33 C40 1.275 . S
Cd34 O33 2.300 . S
Cd34 O42 2.381 . S
Cd34 O43 2.378 . S
O35 Cd36 2.385 . S
O35 C40 1.255 . S
Cd36 O35 2.385 . S
Cd36 O37 2.317 . S
O37 Cd36 2.317 . S
O37 C38 1.232 . S
C38 O37 1.232 . S
C38 O39 1.218 . S
O39 C38 1.218 . S
C40 O33 1.275 . S
C40 O35 1.255 . S
C41 O42 1.258 . S
C41 O43 1.256 . S
O42 Cd34 2.381 . S
O42 C41 1.258 . S
O43 Cd34 2.378 . S
O43 C41 1.256 . S
O44 Cd45 2.300 . S
O44 C51 1.275 . S
Cd45 O44 2.300 . S
Cd45 O53 2.381 . S
Cd45 O54 2.378 . S
O46 Cd47 2.385 . S
O46 C51 1.255 . S
Cd47 O46 2.385 . S
Cd47 O48 2.317 . S
O48 Cd47 2.317 . S
O48 C49 1.232 . S
C49 O48 1.232 . S
C49 O50 1.218 . S
O50 C49 1.218 . S
C51 O44 1.275 . S
C51 O46 1.255 . S
C52 O53 1.258 . S
C52 O54 1.256 . S
O53 Cd45 2.381 . S
O53 C52 1.258 . S
O54 Cd45 2.378 . S
O54 C52 1.256 . S
O55 Cd56 2.300 . S
O55 C62 1.275 . S
Cd56 O55 2.300 . S
Cd56 O64 2.381 . S
Cd56 O65 2.378 . S
O57 Cd58 2.385 . S
O57 C62 1.255 . S
Cd58 O57 2.385 . S
Cd58 O59 2.317 . S
O59 Cd58 2.317 . S
O59 C60 1.232 . S
C60 O59 1.232 . S
C60 O61 1.218 . S
O61 C60 1.218 . S
C62 O55 1.275 . S
C62 O57 1.255 . S
C63 O64 1.258 . S
C63 O65 1.256 . S
O64 Cd56 2.381 . S
O64 C63 1.258 . S
O65 Cd56 2.378 . S
O65 C63 1.256 . S
O66 Cd67 2.300 . S
O66 C73 1.275 . S
Cd67 O66 2.300 . S
Cd67 O75 2.381 . S
Cd67 O76 2.378 . S
O68 Cd69 2.385 . S
O68 C73 1.255 . S
Cd69 O68 2.385 . S
Cd69 O70 2.317 . S
O70 Cd69 2.317 . S
O70 C71 1.232 . S
C71 O70 1.232 . S
C71 O72 1.218 . S
O72 C71 1.218 . S
C73 O66 1.275 . S
C73 O68 1.255 . S
C74 O75 1.258 . S
C74 O76 1.256 . S
O75 Cd67 2.381 . S
O75 C74 1.258 . S
O76 Cd67 2.378 . S
O76 C74 1.256 . S
O77 Cd78 2.300 . S
O77 C84 1.275 . S
Cd78 O77 2.300 . S
Cd78 O86 2.381 . S
Cd78 O87 2.378 . S
O79 Cd80 2.385 . S
O79 C84 1.255 . S
Cd80 O79 2.385 . S
Cd80 O81 2.317 . S
O81 Cd80 2.317 . S
O81 C82 1.232 . S
C82 O81 1.232 . S
C82 O83 1.218 . S
O83 C82 1.218 . S
C84 O77 1.275 . S
C84 O79 1.255 . S
C85 O86 1.258 . S
C85 O87 1.256 . S
O86 Cd78 2.381 . S
O86 C85 1.258 . S
O87 Cd78 2.378 . S
O87 C85 1.256 . S
O88 Cd89 2.300 . S
O88 C95 1.275 . S
Cd89 O88 2.300 . S
Cd89 O97 2.381 . S
Cd89 O98 2.378 . S
O90 Cd91 2.385 . S
O90 C95 1.255 . S
Cd91 O90 2.385 . S
Cd91 O92 2.317 . S
O92 Cd91 2.317 . S
O92 C93 1.232 . S
C93 O92 1.232 . S
C93 O94 1.218 . S
O94 C93 1.218 . S
C95 O88 1.275 . S
C95 O90 1.255 . S
C96 O97 1.258 . S
C96 O98 1.256 . S
O97 Cd89 2.381 . S
O97 C96 1.258 . S
O98 Cd89 2.378 . S
O98 C96 1.256 . S
O99 Cd100 2.300 . S
O99 C106 1.275 . S
Cd100 O99 2.300 . S
Cd100 O108 2.381 . S
Cd100 O109 2.378 . S
O101 Cd102 2.385 . S
O101 C106 1.255 . S
Cd102 O101 2.385 . S
Cd102 O103 2.317 . S
O103 Cd102 2.317 . S
O103 C104 1.232 . S
C104 O103 1.232 . S
C104 O105 1.218 . S
O105 C104 1.218 . S
C106 O99 1.275 . S
C106 O101 1.255 . S
C107 O108 1.258 . S
C107 O109 1.256 . S
O108 Cd100 2.381 . S
O108 C107 1.258 . S
O109 Cd100 2.378 . S
O109 C107 1.256 . S
O110 Cd111 2.300 . S
O110 C117 1.275 . S
Cd111 O110 2.300 . S
Cd111 O119 2.381 . S
Cd111 O120 2.378 . S
O112 Cd113 2.385 . S
O112 C117 1.255 . S
Cd113 O112 2.385 . S
Cd113 O114 2.317 . S
O114 Cd113 2.317 . S
O114 C115 1.232 . S
C115 O114 1.232 . S
C115 O116 1.218 . S
O116 C115 1.218 . S
C117 O110 1.275 . S
C117 O112 1.255 . S
C118 O119 1.258 . S
C118 O120 1.256 . S
O119 Cd111 2.381 . S
O119 C118 1.258 . S
O120 Cd111 2.378 . S
O120 C118 1.256 . S
O121 Cd122 2.300 . S
O121 C128 1.275 . S
Cd122 O121 2.300 . S
Cd122 O130 2.381 . S
Cd122 O131 2.378 . S
O123 Cd124 2.385 . S
O123 C128 1.255 . S
Cd124 O123 2.385 . S
Cd124 O125 2.317 . S
O125 Cd124 2.317 . S
O125 C126 1.232 . S
C126 O125 1.232 . S
C126 O127 1.218 . S
O127 C126 1.218 . S
C128 O121 1.275 . S
C128 O123 1.255 . S
C129 O130 1.258 . S
C129 O131 1.256 . S
O130 Cd122 2.381 . S
O130 C129 1.258 . S
O131 Cd122 2.378 . S
O131 C129 1.256 . S
H132 C140 0.929 . S
H133 C142 0.930 . S
H134 C144 0.930 . S
H135 C147 0.929 . S
H136 C150 0.930 . S
H137 C152 0.960 . S
H138 C152 0.960 . S
H139 C152 0.960 . S
C140 H132 0.929 . S
C140 C141 1.377 . S
C140 C142 1.384 . S
C141 C140 1.377 . S
C141 C147 1.390 . S
C142 H133 0.930 . S
C142 C140 1.384 . S
C142 C143 1.372 . S
C143 C142 1.372 . S
C143 C144 1.400 . S
C143 C148 1.490 . S
C144 H134 0.930 . S
C144 C143 1.400 . S
C144 C147 1.386 . S
H145 C161 0.930 . S
H146 C162 0.931 . S
C147 H135 0.929 . S
C147 C141 1.390 . S
C147 C144 1.386 . S
C148 C143 1.490 . S
C148 C150 1.395 . S
C148 C151 1.403 . S
H149 C155 0.930 . S
C150 H136 0.930 . S
C150 C148 1.395 . S
C150 C153 1.403 . S
C151 C148 1.403 . S
C151 C152 1.524 . S
C151 C155 1.400 . S
C152 H137 0.960 . S
C152 H138 0.960 . S
C152 H139 0.960 . S
C152 C151 1.524 . S
C153 C150 1.403 . S
C153 C154 1.392 . S
C153 C157 1.495 . S
C154 C153 1.392 . S
C154 C155 1.385 . S
C154 C156 1.478 . S
C155 H149 0.930 . S
C155 C151 1.400 . S
C155 C154 1.385 . S
C156 C154 1.478 . S
C156 C158 1.381 . S
C156 C162 1.383 . S
C157 C153 1.495 . S
C157 H163 0.959 . S
C157 H164 0.961 . S
C157 H165 0.960 . S
C158 C156 1.381 . S
C158 C159 1.394 . S
C158 H166 0.930 . S
C159 C158 1.394 . S
C159 C160 1.383 . S
C159 H167 0.929 . S
C160 C159 1.383 . S
C160 C161 1.377 . S
C161 H145 0.930 . S
C161 C160 1.377 . S
C161 C162 1.379 . S
C162 H146 0.931 . S
C162 C156 1.383 . S
C162 C161 1.379 . S
H163 C157 0.959 . S
H164 C157 0.961 . S
H165 C157 0.960 . S
H166 C158 0.930 . S
H167 C159 0.929 . S
H168 C176 0.929 . S
H169 C178 0.930 . S
H170 C180 0.930 . S
H171 C183 0.929 . S
H172 C186 0.930 . S
H173 C188 0.960 . S
H174 C188 0.960 . S
H175 C188 0.960 . S
C176 H168 0.929 . S
C176 C177 1.377 . S
C176 C178 1.384 . S
C177 C176 1.377 . S
C177 C183 1.390 . S
C178 H169 0.930 . S
C178 C176 1.384 . S
C178 C179 1.372 . S
C179 C178 1.372 . S
C179 C180 1.400 . S
C179 C184 1.490 . S
C180 H170 0.930 . S
C180 C179 1.400 . S
C180 C183 1.386 . S
H181 C197 0.930 . S
H182 C198 0.931 . S
C183 H171 0.929 . S
C183 C177 1.390 . S
C183 C180 1.386 . S
C184 C179 1.490 . S
C184 C186 1.395 . S
C184 C187 1.403 . S
H185 C191 0.930 . S
C186 H172 0.930 . S
C186 C184 1.395 . S
C186 C189 1.403 . S
C187 C184 1.403 . S
C187 C188 1.524 . S
C187 C191 1.400 . S
C188 H173 0.960 . S
C188 H174 0.960 . S
C188 H175 0.960 . S
C188 C187 1.524 . S
C189 C186 1.403 . S
C189 C190 1.392 . S
C189 C193 1.495 . S
C190 C189 1.392 . S
C190 C191 1.385 . S
C190 C192 1.478 . S
C191 H185 0.930 . S
C191 C187 1.400 . S
C191 C190 1.385 . S
C192 C190 1.478 . S
C192 C194 1.381 . S
C192 C198 1.383 . S
C193 C189 1.495 . S
C193 H199 0.959 . S
C193 H200 0.961 . S
C193 H201 0.960 . S
C194 C192 1.381 . S
C194 C195 1.394 . S
C194 H202 0.930 . S
C195 C194 1.394 . S
C195 C196 1.383 . S
C195 H203 0.929 . S
C196 C195 1.383 . S
C196 C197 1.377 . S
C197 H181 0.930 . S
C197 C196 1.377 . S
C197 C198 1.379 . S
C198 H182 0.931 . S
C198 C192 1.383 . S
C198 C197 1.379 . S
H199 C193 0.959 . S
H200 C193 0.961 . S
H201 C193 0.960 . S
H202 C194 0.930 . S
H203 C195 0.929 . S
H204 C212 0.929 . S
H205 C214 0.930 . S
H206 C216 0.930 . S
H207 C219 0.929 . S
H208 C222 0.930 . S
H209 C224 0.960 . S
H210 C224 0.960 . S
H211 C224 0.960 . S
C212 H204 0.929 . S
C212 C213 1.377 . S
C212 C214 1.384 . S
C213 C212 1.377 . S
C213 C219 1.390 . S
C214 H205 0.930 . S
C214 C212 1.384 . S
C214 C215 1.372 . S
C215 C214 1.372 . S
C215 C216 1.400 . S
C215 C220 1.490 . S
C216 H206 0.930 . S
C216 C215 1.400 . S
C216 C219 1.386 . S
H217 C233 0.930 . S
H218 C234 0.931 . S
C219 H207 0.929 . S
C219 C213 1.390 . S
C219 C216 1.386 . S
C220 C215 1.490 . S
C220 C222 1.395 . S
C220 C223 1.403 . S
H221 C227 0.930 . S
C222 H208 0.930 . S
C222 C220 1.395 . S
C222 C225 1.403 . S
C223 C220 1.403 . S
C223 C224 1.524 . S
C223 C227 1.400 . S
C224 H209 0.960 . S
C224 H210 0.960 . S
C224 H211 0.960 . S
C224 C223 1.524 . S
C225 C222 1.403 . S
C225 C226 1.392 . S
C225 C229 1.495 . S
C226 C225 1.392 . S
C226 C227 1.385 . S
C226 C228 1.478 . S
C227 H221 0.930 . S
C227 C223 1.400 . S
C227 C226 1.385 . S
C228 C226 1.478 . S
C228 C230 1.381 . S
C228 C234 1.383 . S
C229 C225 1.495 . S
C229 H235 0.959 . S
C229 H236 0.961 . S
C229 H237 0.960 . S
C230 C228 1.381 . S
C230 C231 1.394 . S
C230 H238 0.930 . S
C231 C230 1.394 . S
C231 C232 1.383 . S
C231 H239 0.929 . S
C232 C231 1.383 . S
C232 C233 1.377 . S
C233 H217 0.930 . S
C233 C232 1.377 . S
C233 C234 1.379 . S
C234 H218 0.931 . S
C234 C228 1.383 . S
C234 C233 1.379 . S
H235 C229 0.959 . S
H236 C229 0.961 . S
H237 C229 0.960 . S
H238 C230 0.930 . S
H239 C231 0.929 . S
H240 C248 0.929 . S
H241 C250 0.930 . S
H242 C252 0.930 . S
H243 C255 0.929 . S
H244 C258 0.930 . S
H245 C260 0.960 . S
H246 C260 0.960 . S
H247 C260 0.960 . S
C248 H240 0.929 . S
C248 C249 1.377 . S
C248 C250 1.384 . S
C249 C248 1.377 . S
C249 C255 1.390 . S
C250 H241 0.930 . S
C250 C248 1.384 . S
C250 C251 1.372 . S
C251 C250 1.372 . S
C251 C252 1.400 . S
C251 C256 1.490 . S
C252 H242 0.930 . S
C252 C251 1.400 . S
C252 C255 1.386 . S
H253 C269 0.930 . S
H254 C270 0.931 . S
C255 H243 0.929 . S
C255 C249 1.390 . S
C255 C252 1.386 . S
C256 C251 1.490 . S
C256 C258 1.395 . S
C256 C259 1.403 . S
H257 C263 0.930 . S
C258 H244 0.930 . S
C258 C256 1.395 . S
C258 C261 1.403 . S
C259 C256 1.403 . S
C259 C260 1.524 . S
C259 C263 1.400 . S
C260 H245 0.960 . S
C260 H246 0.960 . S
C260 H247 0.960 . S
C260 C259 1.524 . S
C261 C258 1.403 . S
C261 C262 1.392 . S
C261 C265 1.495 . S
C262 C261 1.392 . S
C262 C263 1.385 . S
C262 C264 1.478 . S
C263 H257 0.930 . S
C263 C259 1.400 . S
C263 C262 1.385 . S
C264 C262 1.478 . S
C264 C266 1.381 . S
C264 C270 1.383 . S
C265 C261 1.495 . S
C265 H271 0.959 . S
C265 H272 0.961 . S
C265 H273 0.960 . S
C266 C264 1.381 . S
C266 C267 1.394 . S
C266 H274 0.930 . S
C267 C266 1.394 . S
C267 C268 1.383 . S
C267 H275 0.929 . S
C268 C267 1.383 . S
C268 C269 1.377 . S
C269 H253 0.930 . S
C269 C268 1.377 . S
C269 C270 1.379 . S
C270 H254 0.931 . S
C270 C264 1.383 . S
C270 C269 1.379 . S
H271 C265 0.959 . S
H272 C265 0.961 . S
H273 C265 0.960 . S
H274 C266 0.930 . S
H275 C267 0.929 . S
H276 C284 0.929 . S
H277 C286 0.930 . S
H278 C288 0.930 . S
H279 C291 0.929 . S
H280 C294 0.930 . S
H281 C296 0.960 . S
H282 C296 0.960 . S
H283 C296 0.960 . S
C284 H276 0.929 . S
C284 C285 1.377 . S
C284 C286 1.384 . S
C285 C284 1.377 . S
C285 C291 1.390 . S
C286 H277 0.930 . S
C286 C284 1.384 . S
C286 C287 1.372 . S
C287 C286 1.372 . S
C287 C288 1.400 . S
C287 C292 1.490 . S
C288 H278 0.930 . S
C288 C287 1.400 . S
C288 C291 1.386 . S
H289 C305 0.930 . S
H290 C306 0.931 . S
C291 H279 0.929 . S
C291 C285 1.390 . S
C291 C288 1.386 . S
C292 C287 1.490 . S
C292 C294 1.395 . S
C292 C295 1.403 . S
H293 C299 0.930 . S
C294 H280 0.930 . S
C294 C292 1.395 . S
C294 C297 1.403 . S
C295 C292 1.403 . S
C295 C296 1.524 . S
C295 C299 1.400 . S
C296 H281 0.960 . S
C296 H282 0.960 . S
C296 H283 0.960 . S
C296 C295 1.524 . S
C297 C294 1.403 . S
C297 C298 1.392 . S
C297 C301 1.495 . S
C298 C297 1.392 . S
C298 C299 1.385 . S
C298 C300 1.478 . S
C299 H293 0.930 . S
C299 C295 1.400 . S
C299 C298 1.385 . S
C300 C298 1.478 . S
C300 C302 1.381 . S
C300 C306 1.383 . S
C301 C297 1.495 . S
C301 H307 0.959 . S
C301 H308 0.961 . S
C301 H309 0.960 . S
C302 C300 1.381 . S
C302 C303 1.394 . S
C302 H310 0.930 . S
C303 C302 1.394 . S
C303 C304 1.383 . S
C303 H311 0.929 . S
C304 C303 1.383 . S
C304 C305 1.377 . S
C305 H289 0.930 . S
C305 C304 1.377 . S
C305 C306 1.379 . S
C306 H290 0.931 . S
C306 C300 1.383 . S
C306 C305 1.379 . S
H307 C301 0.959 . S
H308 C301 0.961 . S
H309 C301 0.960 . S
H310 C302 0.930 . S
H311 C303 0.929 . S
H312 C320 0.929 . S
H313 C322 0.930 . S
H314 C324 0.930 . S
H315 C327 0.929 . S
H316 C330 0.930 . S
H317 C332 0.960 . S
H318 C332 0.960 . S
H319 C332 0.960 . S
C320 H312 0.929 . S
C320 C321 1.377 . S
C320 C322 1.384 . S
C321 C320 1.377 . S
C321 C327 1.390 . S
C322 H313 0.930 . S
C322 C320 1.384 . S
C322 C323 1.372 . S
C323 C322 1.372 . S
C323 C324 1.400 . S
C323 C328 1.490 . S
C324 H314 0.930 . S
C324 C323 1.400 . S
C324 C327 1.386 . S
H325 C341 0.930 . S
H326 C342 0.931 . S
C327 H315 0.929 . S
C327 C321 1.390 . S
C327 C324 1.386 . S
C328 C323 1.490 . S
C328 C330 1.395 . S
C328 C331 1.403 . S
H329 C335 0.930 . S
C330 H316 0.930 . S
C330 C328 1.395 . S
C330 C333 1.403 . S
C331 C328 1.403 . S
C331 C332 1.524 . S
C331 C335 1.400 . S
C332 H317 0.960 . S
C332 H318 0.960 . S
C332 H319 0.960 . S
C332 C331 1.524 . S
C333 C330 1.403 . S
C333 C334 1.392 . S
C333 C337 1.495 . S
C334 C333 1.392 . S
C334 C335 1.385 . S
C334 C336 1.478 . S
C335 H329 0.930 . S
C335 C331 1.400 . S
C335 C334 1.385 . S
C336 C334 1.478 . S
C336 C338 1.381 . S
C336 C342 1.383 . S
C337 C333 1.495 . S
C337 H343 0.959 . S
C337 H344 0.961 . S
C337 H345 0.960 . S
C338 C336 1.381 . S
C338 C339 1.394 . S
C338 H346 0.930 . S
C339 C338 1.394 . S
C339 C340 1.383 . S
C339 H347 0.929 . S
C340 C339 1.383 . S
C340 C341 1.377 . S
C341 H325 0.930 . S
C341 C340 1.377 . S
C341 C342 1.379 . S
C342 H326 0.931 . S
C342 C336 1.383 . S
C342 C341 1.379 . S
H343 C337 0.959 . S
H344 C337 0.961 . S
H345 C337 0.960 . S
H346 C338 0.930 . S
H347 C339 0.929 . S
H348 C356 0.929 . S
H349 C358 0.930 . S
H350 C360 0.930 . S
H351 C363 0.929 . S
H352 C366 0.930 . S
H353 C368 0.960 . S
H354 C368 0.960 . S
H355 C368 0.960 . S
C356 H348 0.929 . S
C356 C357 1.377 . S
C356 C358 1.384 . S
C357 C356 1.377 . S
C357 C363 1.390 . S
C358 H349 0.930 . S
C358 C356 1.384 . S
C358 C359 1.372 . S
C359 C358 1.372 . S
C359 C360 1.400 . S
C359 C364 1.490 . S
C360 H350 0.930 . S
C360 C359 1.400 . S
C360 C363 1.386 . S
H361 C377 0.930 . S
H362 C378 0.931 . S
C363 H351 0.929 . S
C363 C357 1.390 . S
C363 C360 1.386 . S
C364 C359 1.490 . S
C364 C366 1.395 . S
C364 C367 1.403 . S
H365 C371 0.930 . S
C366 H352 0.930 . S
C366 C364 1.395 . S
C366 C369 1.403 1_545 S
C367 C364 1.403 . S
C367 C368 1.524 . S
C367 C371 1.400 1_545 S
C368 H353 0.960 . S
C368 H354 0.960 . S
C368 H355 0.960 . S
C368 C367 1.524 . S
C369 C366 1.403 1_565 S
C369 C370 1.392 . S
C369 C373 1.495 . S
C370 C369 1.392 . S
C370 C371 1.385 . S
C370 C372 1.478 . S
C371 H365 0.930 . S
C371 C367 1.400 1_565 S
C371 C370 1.385 . S
C372 C370 1.478 . S
C372 C374 1.381 . S
C372 C378 1.383 . S
C373 C369 1.495 . S
C373 H379 0.959 . S
C373 H380 0.961 . S
C373 H381 0.960 . S
C374 C372 1.381 . S
C374 C375 1.394 . S
C374 H382 0.930 . S
C375 C374 1.394 . S
C375 C376 1.383 . S
C375 H383 0.929 . S
C376 C375 1.383 . S
C376 C377 1.377 . S
C377 H361 0.930 . S
C377 C376 1.377 . S
C377 C378 1.379 . S
C378 H362 0.931 . S
C378 C372 1.383 . S
C378 C377 1.379 . S
H379 C373 0.959 . S
H380 C373 0.961 . S
H381 C373 0.960 . S
H382 C374 0.930 . S
H383 C375 0.929 . S
H384 C392 0.929 . S
H385 C394 0.930 . S
H386 C396 0.930 . S
H387 C399 0.929 . S
H388 C402 0.930 . S
H389 C404 0.960 . S
H390 C404 0.960 . S
H391 C404 0.960 . S
C392 H384 0.929 . S
C392 C393 1.377 . S
C392 C394 1.384 . S
C393 C392 1.377 . S
C393 C399 1.390 . S
C394 H385 0.930 . S
C394 C392 1.384 . S
C394 C395 1.372 . S
C395 C394 1.372 . S
C395 C396 1.400 . S
C395 C400 1.490 . S
C396 H386 0.930 . S
C396 C395 1.400 . S
C396 C399 1.386 . S
H397 C413 0.930 . S
H398 C414 0.931 . S
C399 H387 0.929 . S
C399 C393 1.390 . S
C399 C396 1.386 . S
C400 C395 1.490 . S
C400 C402 1.395 . S
C400 C403 1.403 . S
H401 C407 0.930 . S
C402 H388 0.930 . S
C402 C400 1.395 . S
C402 C405 1.403 . S
C403 C400 1.403 . S
C403 C404 1.524 . S
C403 C407 1.400 . S
C404 H389 0.960 . S
C404 H390 0.960 . S
C404 H391 0.960 . S
C404 C403 1.524 . S
C405 C402 1.403 . S
C405 C406 1.392 . S
C405 C409 1.495 . S
C406 C405 1.392 . S
C406 C407 1.385 . S
C406 C408 1.478 . S
C407 H401 0.930 . S
C407 C403 1.400 . S
C407 C406 1.385 . S
C408 C406 1.478 . S
C408 C410 1.381 . S
C408 C414 1.383 . S
C409 C405 1.495 . S
C409 H415 0.959 . S
C409 H416 0.961 . S
C409 H417 0.960 . S
C410 C408 1.381 . S
C410 C411 1.394 . S
C410 H418 0.930 . S
C411 C410 1.394 . S
C411 C412 1.383 . S
C411 H419 0.929 . S
C412 C411 1.383 . S
C412 C413 1.377 . S
C413 H397 0.930 . S
C413 C412 1.377 . S
C413 C414 1.379 . S
C414 H398 0.931 . S
C414 C408 1.383 . S
C414 C413 1.379 . S
H415 C409 0.959 . S
H416 C409 0.961 . S
H417 C409 0.960 . S
H418 C410 0.930 . S
H419 C411 0.929 . S
H420 C428 0.929 . S
H421 C430 0.930 . S
H422 C432 0.930 . S
H423 C435 0.929 . S
H424 C438 0.930 . S
H425 C440 0.960 . S
H426 C440 0.960 1_455 S
H427 C440 0.960 . S
C428 H420 0.929 . S
C428 C429 1.377 . S
C428 C430 1.384 . S
C429 C428 1.377 . S
C429 C435 1.390 . S
C430 H421 0.930 . S
C430 C428 1.384 . S
C430 C431 1.372 . S
C431 C430 1.372 . S
C431 C432 1.400 . S
C431 C436 1.490 . S
C432 H422 0.930 . S
C432 C431 1.400 . S
C432 C435 1.386 . S
H433 C449 0.930 . S
H434 C450 0.931 . S
C435 H423 0.929 . S
C435 C429 1.390 . S
C435 C432 1.386 . S
C436 C431 1.490 . S
C436 C438 1.395 . S
C436 C439 1.403 1_455 S
H437 C443 0.930 . S
C438 H424 0.930 . S
C438 C436 1.395 . S
C438 C441 1.403 . S
C439 C436 1.403 1_655 S
C439 C440 1.524 . S
C439 C443 1.400 . S
C440 H425 0.960 . S
C440 H426 0.960 1_655 S
C440 H427 0.960 . S
C440 C439 1.524 . S
C441 C438 1.403 . S
C441 C442 1.392 1_455 S
C441 C445 1.495 . S
C442 C441 1.392 1_655 S
C442 C443 1.385 . S
C442 C444 1.478 . S
C443 H437 0.930 . S
C443 C439 1.400 . S
C443 C442 1.385 . S
C444 C442 1.478 . S
C444 C446 1.381 . S
C444 C450 1.383 . S
C445 C441 1.495 . S
C445 H451 0.959 . S
C445 H452 0.961 1_455 S
C445 H453 0.960 . S
C446 C444 1.381 . S
C446 C447 1.394 . S
C446 H454 0.930 . S
C447 C446 1.394 . S
C447 C448 1.383 . S
C447 H455 0.929 . S
C448 C447 1.383 . S
C448 C449 1.377 . S
C449 H433 0.930 . S
C449 C448 1.377 . S
C449 C450 1.379 . S
C450 H434 0.931 . S
C450 C444 1.383 . S
C450 C449 1.379 . S
H451 C445 0.959 . S
H452 C445 0.961 1_655 S
H453 C445 0.960 . S
H454 C446 0.930 . S
H455 C447 0.929 . S
H456 C464 0.929 . S
H457 C466 0.930 . S
H458 C468 0.930 . S
H459 C471 0.929 . S
H460 C474 0.930 . S
H461 C476 0.960 . S
H462 C476 0.960 1_655 S
H463 C476 0.960 . S
C464 H456 0.929 . S
C464 C465 1.377 . S
C464 C466 1.384 . S
C465 C464 1.377 . S
C465 C471 1.390 . S
C466 H457 0.930 . S
C466 C464 1.384 . S
C466 C467 1.372 . S
C467 C466 1.372 . S
C467 C468 1.400 . S
C467 C472 1.490 . S
C468 H458 0.930 . S
C468 C467 1.400 . S
C468 C471 1.386 . S
H469 C485 0.930 . S
H470 C486 0.931 . S
C471 H459 0.929 . S
C471 C465 1.390 . S
C471 C468 1.386 . S
C472 C467 1.490 . S
C472 C474 1.395 . S
C472 C475 1.403 1_655 S
H473 C479 0.930 . S
C474 H460 0.930 . S
C474 C472 1.395 . S
C474 C477 1.403 . S
C475 C472 1.403 1_455 S
C475 C476 1.524 . S
C475 C479 1.400 . S
C476 H461 0.960 . S
C476 H462 0.960 1_455 S
C476 H463 0.960 . S
C476 C475 1.524 . S
C477 C474 1.403 . S
C477 C478 1.392 1_655 S
C477 C481 1.495 . S
C478 C477 1.392 1_455 S
C478 C479 1.385 . S
C478 C480 1.478 . S
C479 H473 0.930 . S
C479 C475 1.400 . S
C479 C478 1.385 . S
C480 C478 1.478 . S
C480 C482 1.381 . S
C480 C486 1.383 . S
C481 C477 1.495 . S
C481 H487 0.959 . S
C481 H488 0.961 . S
C481 H489 0.960 . S
C482 C480 1.381 . S
C482 C483 1.394 . S
C482 H490 0.930 . S
C483 C482 1.394 . S
C483 C484 1.383 . S
C483 H491 0.929 . S
C484 C483 1.383 . S
C484 C485 1.377 . S
C485 H469 0.930 . S
C485 C484 1.377 . S
C485 C486 1.379 . S
C486 H470 0.931 . S
C486 C480 1.383 . S
C486 C485 1.379 . S
H487 C481 0.959 . S
H488 C481 0.961 . S
H489 C481 0.960 . S
H490 C482 0.930 . S
H491 C483 0.929 . S
H492 C500 0.929 . S
H493 C502 0.930 . S
H494 C504 0.930 . S
H495 C507 0.929 . S
H496 C510 0.930 . S
H497 C512 0.960 . S
H498 C512 0.960 . S
H499 C512 0.960 . S
C500 H492 0.929 . S
C500 C501 1.377 . S
C500 C502 1.384 . S
C501 C500 1.377 . S
C501 C507 1.390 . S
C502 H493 0.930 . S
C502 C500 1.384 . S
C502 C503 1.372 . S
C503 C502 1.372 . S
C503 C504 1.400 . S
C503 C508 1.490 . S
C504 H494 0.930 . S
C504 C503 1.400 . S
C504 C507 1.386 . S
H505 C521 0.930 . S
H506 C522 0.931 . S
C507 H495 0.929 . S
C507 C501 1.390 . S
C507 C504 1.386 . S
C508 C503 1.490 . S
C508 C510 1.395 1_545 S
C508 C511 1.403 . S
H509 C515 0.930 . S
C510 H496 0.930 . S
C510 C508 1.395 1_565 S
C510 C513 1.403 . S
C511 C508 1.403 . S
C511 C512 1.524 . S
C511 C515 1.400 . S
C512 H497 0.960 . S
C512 H498 0.960 . S
C512 H499 0.960 . S
C512 C511 1.524 . S
C513 C510 1.403 . S
C513 C514 1.392 . S
C513 C517 1.495 . S
C514 C513 1.392 . S
C514 C515 1.385 1_565 S
C514 C516 1.478 . S
C515 H509 0.930 . S
C515 C511 1.400 . S
C515 C514 1.385 1_545 S
C516 C514 1.478 . S
C516 C518 1.381 . S
C516 C522 1.383 . S
C517 C513 1.495 . S
C517 H523 0.959 . S
C517 H524 0.961 . S
C517 H525 0.960 . S
C518 C516 1.381 . S
C518 C519 1.394 . S
C518 H526 0.930 . S
C519 C518 1.394 . S
C519 C520 1.383 . S
C519 H527 0.929 . S
C520 C519 1.383 . S
C520 C521 1.377 . S
C521 H505 0.930 . S
C521 C520 1.377 . S
C521 C522 1.379 . S
C522 H506 0.931 . S
C522 C516 1.383 . S
C522 C521 1.379 . S
H523 C517 0.959 . S
H524 C517 0.961 . S
H525 C517 0.960 . S
H526 C518 0.930 . S
H527 C519 0.929 . S
H528 C536 0.929 . S
H529 C538 0.930 . S
H530 C540 0.930 . S
H531 C543 0.929 . S
H532 C546 0.930 . S
H533 C548 0.960 . S
H534 C548 0.960 . S
H535 C548 0.960 . S
C536 H528 0.929 . S
C536 C537 1.377 . S
C536 C538 1.384 . S
C537 C536 1.377 . S
C537 C543 1.390 . S
C538 H529 0.930 . S
C538 C536 1.384 . S
C538 C539 1.372 . S
C539 C538 1.372 . S
C539 C540 1.400 . S
C539 C544 1.490 . S
C540 H530 0.930 . S
C540 C539 1.400 . S
C540 C543 1.386 . S
H541 C557 0.930 . S
H542 C558 0.931 . S
C543 H531 0.929 . S
C543 C537 1.390 . S
C543 C540 1.386 . S
C544 C539 1.490 . S
C544 C546 1.395 . S
C544 C547 1.403 . S
H545 C551 0.930 . S
C546 H532 0.930 . S
C546 C544 1.395 . S
C546 C549 1.403 . S
C547 C544 1.403 . S
C547 C548 1.524 . S
C547 C551 1.400 . S
C548 H533 0.960 . S
C548 H534 0.960 . S
C548 H535 0.960 . S
C548 C547 1.524 . S
C549 C546 1.403 . S
C549 C550 1.392 . S
C549 C553 1.495 . S
C550 C549 1.392 . S
C550 C551 1.385 . S
C550 C552 1.478 . S
C551 H545 0.930 . S
C551 C547 1.400 . S
C551 C550 1.385 . S
C552 C550 1.478 . S
C552 C554 1.381 . S
C552 C558 1.383 . S
C553 C549 1.495 . S
C553 H559 0.959 . S
C553 H560 0.961 . S
C553 H561 0.960 . S
C554 C552 1.381 . S
C554 C555 1.394 . S
C554 H562 0.930 . S
C555 C554 1.394 . S
C555 C556 1.383 . S
C555 H563 0.929 . S
C556 C555 1.383 . S
C556 C557 1.377 . S
C557 H541 0.930 . S
C557 C556 1.377 . S
C557 C558 1.379 . S
C558 H542 0.931 . S
C558 C552 1.383 . S
C558 C557 1.379 . S
H559 C553 0.959 . S
H560 C553 0.961 . S
H561 C553 0.960 . S
H562 C554 0.930 . S
H563 C555 0.929 . S
H564 C572 0.929 . S
H565 C574 0.930 . S
H566 C576 0.930 . S
H567 C579 0.929 . S
H568 C582 0.930 . S
H569 C584 0.960 1_554 S
H570 C584 0.960 . S
H571 C584 0.961 1_554 S
C572 H564 0.929 . S
C572 C573 1.377 1_455 S
C572 C574 1.384 . S
C573 C572 1.377 1_655 S
C573 C579 1.390 . S
C574 H565 0.930 . S
C574 C572 1.384 . S
C574 C575 1.372 . S
C575 C574 1.372 . S
C575 C576 1.400 . S
C575 C580 1.490 . S
C576 H566 0.930 . S
C576 C575 1.400 . S
C576 C579 1.386 1_455 S
H577 C593 0.930 . S
H578 C594 0.931 . S
C579 H567 0.929 . S
C579 C573 1.390 . S
C579 C576 1.386 1_655 S
C580 C575 1.490 . S
C580 C582 1.395 . S
C580 C583 1.403 . S
H581 C587 0.930 . S
C582 H568 0.930 . S
C582 C580 1.395 . S
C582 C585 1.425 . S
C583 C580 1.403 . S
C583 C584 1.524 . S
C583 C587 1.400 1_556 S
C584 H569 0.960 1_556 S
C584 H570 0.960 . S
C584 H571 0.961 1_556 S
C584 C583 1.524 . S
C585 C582 1.425 . S
C585 C586 1.372 1_556 S
C585 C589 1.495 . S
C586 C585 1.372 1_554 S
C586 C587 1.385 . S
C586 C588 1.478 . S
C587 H581 0.930 . S
C587 C583 1.400 1_554 S
C587 C586 1.385 . S
C588 C586 1.478 . S
C588 C590 1.381 . S
C588 C594 1.383 . S
C589 C585 1.495 . S
C589 H595 0.973 . S
C589 H596 0.944 1_556 S
C589 H597 0.963 . S
C590 C588 1.381 . S
C590 C591 1.394 . S
C590 H598 0.930 . S
C591 C590 1.394 . S
C591 C592 1.383 . S
C591 H599 0.929 . S
C592 C591 1.383 . S
C592 C593 1.377 . S
C593 H577 0.930 . S
C593 C592 1.377 . S
C593 C594 1.379 . S
C594 H578 0.931 . S
C594 C588 1.383 . S
C594 C593 1.379 . S
H595 C589 0.973 . S
H596 C589 0.944 1_554 S
H597 C589 0.963 . S
H598 C590 0.930 . S
H599 C591 0.929 . S
H600 C608 0.929 . S
H601 C610 0.930 1_565 S
H602 C612 0.930 . S
H603 C615 0.929 . S
H604 C618 0.930 . S
H605 C620 0.960 . S
H606 C620 0.960 . S
H607 C620 0.960 . S
C608 H600 0.929 . S
C608 C609 1.377 . S
C608 C610 1.384 1_565 S
C609 C608 1.377 . S
C609 C615 1.390 1_565 S
C610 H601 0.930 1_545 S
C610 C608 1.384 1_545 S
C610 C611 1.372 . S
C611 C610 1.372 . S
C611 C612 1.400 . S
C611 C616 1.490 . S
C612 H602 0.930 . S
C612 C611 1.400 . S
C612 C615 1.386 . S
H613 C629 0.930 . S
H614 C630 0.931 . S
C615 H603 0.929 . S
C615 C609 1.390 1_545 S
C615 C612 1.386 . S
C616 C611 1.490 . S
C616 C618 1.395 . S
C616 C619 1.403 . S
H617 C623 0.930 . S
C618 H604 0.930 . S
C618 C616 1.395 . S
C618 C621 1.403 . S
C619 C616 1.403 . S
C619 C620 1.524 . S
C619 C623 1.400 . S
C620 H605 0.960 . S
C620 H606 0.960 . S
C620 H607 0.960 . S
C620 C619 1.524 . S
C621 C618 1.403 . S
C621 C622 1.392 . S
C621 C625 1.495 . S
C622 C621 1.392 . S
C622 C623 1.385 . S
C622 C624 1.478 . S
C623 H617 0.930 . S
C623 C619 1.400 . S
C623 C622 1.385 . S
C624 C622 1.478 . S
C624 C626 1.381 . S
C624 C630 1.383 . S
C625 C621 1.495 . S
C625 H631 0.959 . S
C625 H632 0.961 . S
C625 H633 0.960 . S
C626 C624 1.381 . S
C626 C627 1.394 . S
C626 H634 0.930 . S
C627 C626 1.394 . S
C627 C628 1.383 1_655 S
C627 H635 0.929 . S
C628 C627 1.383 1_455 S
C628 C629 1.377 . S
C629 H613 0.930 . S
C629 C628 1.377 . S
C629 C630 1.379 1_455 S
C630 H614 0.931 . S
C630 C624 1.383 . S
C630 C629 1.379 1_655 S
H631 C625 0.959 . S
H632 C625 0.961 . S
H633 C625 0.960 . S
H634 C626 0.930 . S
H635 C627 0.929 . S
H636 C644 0.929 . S
H637 C646 0.930 . S
H638 C648 0.930 . S
H639 C651 0.929 . S
H640 C654 0.930 . S
H641 C656 0.960 . S
H642 C656 0.960 . S
H643 C656 0.960 . S
C644 H636 0.929 . S
C644 C645 1.377 . S
C644 C646 1.384 1_545 S
C645 C644 1.377 . S
C645 C651 1.390 1_545 S
C646 H637 0.930 . S
C646 C644 1.384 1_565 S
C646 C647 1.372 . S
C647 C646 1.372 . S
C647 C648 1.400 . S
C647 C652 1.490 . S
C648 H638 0.930 . S
C648 C647 1.400 . S
C648 C651 1.386 . S
H649 C665 0.930 . S
H650 C666 0.931 . S
C651 H639 0.929 . S
C651 C645 1.390 1_565 S
C651 C648 1.386 . S
C652 C647 1.490 . S
C652 C654 1.395 . S
C652 C655 1.403 . S
H653 C659 0.930 . S
C654 H640 0.930 . S
C654 C652 1.395 . S
C654 C657 1.403 . S
C655 C652 1.403 . S
C655 C656 1.524 . S
C655 C659 1.400 . S
C656 H641 0.960 . S
C656 H642 0.960 . S
C656 H643 0.960 . S
C656 C655 1.524 . S
C657 C654 1.403 . S
C657 C658 1.392 . S
C657 C661 1.495 . S
C658 C657 1.392 . S
C658 C659 1.385 . S
C658 C660 1.478 . S
C659 H653 0.930 . S
C659 C655 1.400 . S
C659 C658 1.385 . S
C660 C658 1.478 . S
C660 C662 1.381 . S
C660 C666 1.383 . S
C661 C657 1.495 . S
C661 H667 0.959 . S
C661 H668 0.961 . S
C661 H669 0.960 . S
C662 C660 1.381 . S
C662 C663 1.394 . S
C662 H670 0.930 . S
C663 C662 1.394 . S
C663 C664 1.383 . S
C663 H671 0.929 . S
C664 C663 1.383 . S
C664 C665 1.377 . S
C665 H649 0.930 . S
C665 C664 1.377 . S
C665 C666 1.379 . S
C666 H650 0.931 . S
C666 C660 1.383 . S
C666 C665 1.379 . S
H667 C661 0.959 . S
H668 C661 0.961 . S
H669 C661 0.960 . S
H670 C662 0.930 . S
H671 C663 0.929 . S
H672 C680 0.929 . S
H673 C682 0.930 . S
H674 C684 0.930 . S
H675 C687 0.929 . S
H676 C690 0.930 . S
H677 C692 0.960 . S
H678 C692 0.960 . S
H679 C692 0.960 . S
C680 H672 0.929 . S
C680 C681 1.377 . S
C680 C682 1.384 . S
C681 C680 1.377 . S
C681 C687 1.390 . S
C682 H673 0.930 . S
C682 C680 1.384 . S
C682 C683 1.372 . S
C683 C682 1.372 . S
C683 C684 1.400 . S
C683 C688 1.490 . S
C684 H674 0.930 . S
C684 C683 1.400 . S
C684 C687 1.386 . S
H685 C701 0.930 . S
H686 C702 0.931 . S
C687 H675 0.929 . S
C687 C681 1.390 . S
C687 C684 1.386 . S
C688 C683 1.490 . S
C688 C690 1.395 . S
C688 C691 1.403 1_554 S
H689 C695 0.930 . S
C690 H676 0.930 . S
C690 C688 1.395 . S
C690 C693 1.403 . S
C691 C688 1.403 1_556 S
C691 C692 1.524 . S
C691 C695 1.400 . S
C692 H677 0.960 . S
C692 H678 0.960 . S
C692 H679 0.960 . S
C692 C691 1.524 . S
C693 C690 1.403 . S
C693 C694 1.392 1_554 S
C693 C697 1.495 . S
C694 C693 1.392 1_556 S
C694 C695 1.385 . S
C694 C696 1.478 . S
C695 H689 0.930 . S
C695 C691 1.400 . S
C695 C694 1.385 . S
C696 C694 1.478 . S
C696 C698 1.381 . S
C696 C702 1.383 . S
C697 C693 1.495 . S
C697 H703 0.959 . S
C697 H704 0.961 . S
C697 H705 0.960 . S
C698 C696 1.381 . S
C698 C699 1.394 1_655 S
C698 H706 0.930 1_655 S
C699 C698 1.394 1_455 S
C699 C700 1.383 . S
C699 H707 0.929 . S
C700 C699 1.383 . S
C700 C701 1.377 1_455 S
C701 H685 0.930 . S
C701 C700 1.377 1_655 S
C701 C702 1.379 . S
C702 H686 0.931 . S
C702 C696 1.383 . S
C702 C701 1.379 . S
H703 C697 0.959 . S
H704 C697 0.961 . S
H705 C697 0.960 . S
H706 C698 0.930 1_455 S
H707 C699 0.929 . S
H708 C716 0.929 . S
H709 C718 0.930 . S
H710 C720 0.930 . S
H711 C723 0.929 . S
H712 C726 0.930 . S
H713 C728 0.960 . S
H714 C728 0.960 . S
H715 C728 0.960 . S
C716 H708 0.929 . S
C716 C717 1.377 1_565 S
C716 C718 1.384 . S
C717 C716 1.377 1_545 S
C717 C723 1.390 . S
C718 H709 0.930 . S
C718 C716 1.384 . S
C718 C719 1.372 . S
C719 C718 1.372 . S
C719 C720 1.400 . S
C719 C724 1.490 . S
C720 H710 0.930 . S
C720 C719 1.400 . S
C720 C723 1.386 1_565 S
H721 C737 0.930 . S
H722 C738 0.931 . S
C723 H711 0.929 . S
C723 C717 1.390 . S
C723 C720 1.386 1_545 S
C724 C719 1.490 . S
C724 C726 1.395 . S
C724 C727 1.403 . S
H725 C731 0.930 . S
C726 H712 0.930 . S
C726 C724 1.395 . S
C726 C729 1.403 . S
C727 C724 1.403 . S
C727 C728 1.524 . S
C727 C731 1.400 . S
C728 H713 0.960 . S
C728 H714 0.960 . S
C728 H715 0.960 . S
C728 C727 1.524 . S
C729 C726 1.403 . S
C729 C730 1.392 . S
C729 C733 1.495 . S
C730 C729 1.392 . S
C730 C731 1.385 . S
C730 C732 1.478 . S
C731 H725 0.930 . S
C731 C727 1.400 . S
C731 C730 1.385 . S
C732 C730 1.478 . S
C732 C734 1.381 . S
C732 C738 1.383 . S
C733 C729 1.495 . S
C733 H739 0.959 . S
C733 H740 0.961 . S
C733 H741 0.960 . S
C734 C732 1.381 . S
C734 C735 1.394 . S
C734 H742 0.930 . S
C735 C734 1.394 . S
C735 C736 1.383 1_455 S
C735 H743 0.929 . S
C736 C735 1.383 1_655 S
C736 C737 1.377 . S
C737 H721 0.930 . S
C737 C736 1.377 . S
C737 C738 1.379 1_655 S
C738 H722 0.931 . S
C738 C732 1.383 . S
C738 C737 1.379 1_455 S
H739 C733 0.959 . S
H740 C733 0.961 . S
H741 C733 0.960 . S
H742 C734 0.930 . S
H743 C735 0.929 . S
H744 C752 0.929 . S
H745 C754 0.930 . S
H746 C756 0.930 . S
H747 C759 0.929 . S
H748 C762 0.930 . S
H749 C764 0.960 . S
H750 C764 0.960 . S
H751 C764 0.960 . S
C752 H744 0.929 . S
C752 C753 1.377 1_545 S
C752 C754 1.384 . S
C753 C752 1.377 1_565 S
C753 C759 1.390 . S
C754 H745 0.930 . S
C754 C752 1.384 . S
C754 C755 1.372 . S
C755 C754 1.372 . S
C755 C756 1.400 . S
C755 C760 1.490 . S
C756 H746 0.930 . S
C756 C755 1.400 . S
C756 C759 1.386 1_545 S
H757 C773 0.930 . S
H758 C774 0.931 . S
C759 H747 0.929 . S
C759 C753 1.390 . S
C759 C756 1.386 1_565 S
C760 C755 1.490 . S
C760 C762 1.395 . S
C760 C763 1.403 . S
H761 C767 0.930 . S
C762 H748 0.930 . S
C762 C760 1.395 . S
C762 C765 1.403 . S
C763 C760 1.403 . S
C763 C764 1.524 . S
C763 C767 1.400 . S
C764 H749 0.960 . S
C764 H750 0.960 . S
C764 H751 0.960 . S
C764 C763 1.524 . S
C765 C762 1.403 . S
C765 C766 1.392 . S
C765 C769 1.495 . S
C766 C765 1.392 . S
C766 C767 1.385 . S
C766 C768 1.478 . S
C767 H761 0.930 . S
C767 C763 1.400 . S
C767 C766 1.385 . S
C768 C766 1.478 . S
C768 C770 1.381 . S
C768 C774 1.383 . S
C769 C765 1.495 . S
C769 H775 0.959 . S
C769 H776 0.961 . S
C769 H777 0.960 . S
C770 C768 1.381 . S
C770 C771 1.394 . S
C770 H778 0.930 . S
C771 C770 1.394 . S
C771 C772 1.383 . S
C771 H779 0.929 . S
C772 C771 1.383 . S
C772 C773 1.377 . S
C773 H757 0.930 . S
C773 C772 1.377 . S
C773 C774 1.379 . S
C774 H758 0.931 . S
C774 C768 1.383 . S
C774 C773 1.379 . S
H775 C769 0.959 . S
H776 C769 0.961 . S
H777 C769 0.960 . S
H778 C770 0.930 . S
H779 C771 0.929 . S
C141 C5 1.288 . S
C160 C71 1.326 . S
C177 C16 1.286 . S
C196 C82 1.329 . S
C213 C27 1.277 . S
C232 C93 1.306 . S
C249 C104 1.266 . S
C268 C38 1.230 . S
C285 C49 1.282 . S
C304 C115 1.323 . S
C321 C126 1.284 . S
C340 C60 1.268 . S
C357 C7 1.465 . S
C376 C40 1.471 . S
C393 C18 1.459 . S
C412 C51 1.476 . S
C429 C62 1.461 . S
C448 C29 1.444 . S
C465 C73 1.460 . S
C484 C106 1.439 . S
C501 C117 1.464 . S
C520 C84 1.483 . S
C537 C128 1.461 . S
C556 C95 1.481 . S
C573 C118 1.498 . S
C592 C8 1.512 . S
C609 C129 1.503 . S
C628 C19 1.488 . S
C645 C30 1.502 . S
C664 C74 1.498 . S
C681 C41 1.499 . S
C700 C85 1.506 . S
C717 C96 1.500 . S
C736 C52 1.498 . S
C753 C63 1.498 . S
C772 C107 1.511 . S
