# Generated by pormake.
# Topology wme, (6)-cn, num edge types: 1
# Building blocks:
#     Node 0, Type 0, BuildingBlock: KUMJIN_clean_sbu_0, # of connection points: 6
#     Node 1, Type 0, BuildingBlock: KUMJIN_clean_sbu_0, # of connection points: 6
#     Node 2, Type 0, BuildingBlock: KUMJIN_clean_sbu_0, # of connection points: 6
#     Node 3, Type 0, BuildingBlock: KUMJIN_clean_sbu_0, # of connection points: 6
#     Node 4, Type 0, BuildingBlock: KUMJIN_clean_sbu_0, # of connection points: 6
#     Node 5, Type 0, BuildingBlock: KUMJIN_clean_sbu_0, # of connection points: 6
#     Node 6, Type 0, BuildingBlock: KUMJIN_clean_sbu_0, # of connection points: 6
#     Node 7, Type 0, BuildingBlock: KUMJIN_clean_sbu_0, # of connection points: 6
#     Node 8, Type 0, BuildingBlock: KUMJIN_clean_sbu_0, # of connection points: 6
#     Node 9, Type 0, BuildingBlock: KUMJIN_clean_sbu_0, # of connection points: 6
#     Node 10, Type 0, BuildingBlock: KUMJIN_clean_sbu_0, # of connection points: 6
#     Node 11, Type 0, BuildingBlock: KUMJIN_clean_sbu_0, # of connection points: 6
#     Edge 12, Type (0, 0), BuildingBlock: KIFKEQ_clean_linker_1, # of connection points: 2
#     Edge 13, Type (0, 0), BuildingBlock: KIFKEQ_clean_linker_1, # of connection points: 2
#     Edge 14, Type (0, 0), BuildingBlock: KIFKEQ_clean_linker_1, # of connection points: 2
#     Edge 15, Type (0, 0), BuildingBlock: KIFKEQ_clean_linker_1, # of connection points: 2
#     Edge 16, Type (0, 0), BuildingBlock: KIFKEQ_clean_linker_1, # of connection points: 2
#     Edge 17, Type (0, 0), BuildingBlock: KIFKEQ_clean_linker_1, # of connection points: 2
#     Edge 18, Type (0, 0), BuildingBlock: KIFKEQ_clean_linker_1, # of connection points: 2
#     Edge 19, Type (0, 0), BuildingBlock: KIFKEQ_clean_linker_1, # of connection points: 2
#     Edge 20, Type (0, 0), BuildingBlock: KIFKEQ_clean_linker_1, # of connection points: 2
#     Edge 21, Type (0, 0), BuildingBlock: KIFKEQ_clean_linker_1, # of connection points: 2
#     Edge 22, Type (0, 0), BuildingBlock: KIFKEQ_clean_linker_1, # of connection points: 2
#     Edge 23, Type (0, 0), BuildingBlock: KIFKEQ_clean_linker_1, # of connection points: 2
#     Edge 24, Type (0, 0), BuildingBlock: KIFKEQ_clean_linker_1, # of connection points: 2
#     Edge 25, Type (0, 0), BuildingBlock: KIFKEQ_clean_linker_1, # of connection points: 2
#     Edge 26, Type (0, 0), BuildingBlock: KIFKEQ_clean_linker_1, # of connection points: 2
#     Edge 27, Type (0, 0), BuildingBlock: KIFKEQ_clean_linker_1, # of connection points: 2
#     Edge 28, Type (0, 0), BuildingBlock: KIFKEQ_clean_linker_1, # of connection points: 2
#     Edge 29, Type (0, 0), BuildingBlock: KIFKEQ_clean_linker_1, # of connection points: 2
#     Edge 30, Type (0, 0), BuildingBlock: KIFKEQ_clean_linker_1, # of connection points: 2
#     Edge 31, Type (0, 0), BuildingBlock: KIFKEQ_clean_linker_1, # of connection points: 2
#     Edge 32, Type (0, 0), BuildingBlock: KIFKEQ_clean_linker_1, # of connection points: 2
#     Edge 33, Type (0, 0), BuildingBlock: KIFKEQ_clean_linker_1, # of connection points: 2
#     Edge 34, Type (0, 0), BuildingBlock: KIFKEQ_clean_linker_1, # of connection points: 2
#     Edge 35, Type (0, 0), BuildingBlock: KIFKEQ_clean_linker_1, # of connection points: 2
#     Edge 36, Type (0, 0), BuildingBlock: KIFKEQ_clean_linker_1, # of connection points: 2
#     Edge 37, Type (0, 0), BuildingBlock: KIFKEQ_clean_linker_1, # of connection points: 2
#     Edge 38, Type (0, 0), BuildingBlock: KIFKEQ_clean_linker_1, # of connection points: 2
#     Edge 39, Type (0, 0), BuildingBlock: KIFKEQ_clean_linker_1, # of connection points: 2
#     Edge 40, Type (0, 0), BuildingBlock: KIFKEQ_clean_linker_1, # of connection points: 2
#     Edge 41, Type (0, 0), BuildingBlock: KIFKEQ_clean_linker_1, # of connection points: 2
#     Edge 42, Type (0, 0), BuildingBlock: KIFKEQ_clean_linker_1, # of connection points: 2
#     Edge 43, Type (0, 0), BuildingBlock: KIFKEQ_clean_linker_1, # of connection points: 2
#     Edge 44, Type (0, 0), BuildingBlock: KIFKEQ_clean_linker_1, # of connection points: 2
#     Edge 45, Type (0, 0), BuildingBlock: KIFKEQ_clean_linker_1, # of connection points: 2
#     Edge 46, Type (0, 0), BuildingBlock: KIFKEQ_clean_linker_1, # of connection points: 2
#     Edge 47, Type (0, 0), BuildingBlock: KIFKEQ_clean_linker_1, # of connection points: 2
# Relax obj value: 0.094
# Max RMSD: 0.208
# Mean RMSD: 0.208
data_MOF--net-wme--node1-KUMJIN_clean_sbu_0--edge1-KIFKEQ_clean_linker_1
_symmetry_space_group_name_H-M    P1
_symmetry_Int_Tables_number       1
_symmetry_cell_setting            triclinic
loop_
_symmetry_equiv_pos_as_xyz
'x, y, z'
_cell_length_a     38.779438
_cell_length_b     38.79394
_cell_length_c     55.7517
_cell_angle_alpha  89.996842
_cell_angle_beta   90.051389
_cell_angle_gamma 120.02319
loop_
_atom_site_label
_atom_site_type_symbol
_atom_site_fract_x
_atom_site_fract_y
_atom_site_fract_z
_atom_type_partial_charge
Eu0 Eu 0.21401 0.37674 0.10496 0.0
C1 C 0.32856 0.36148 0.17954 0.0
C2 C 0.3945 0.3985 0.1623 0.0
C3 C 0.38657 0.39359 0.20562 0.0
C4 C 0.35276 0.37569 0.15961 0.0
C5 C 0.34516 0.36979 0.2028 0.0
C6 C 0.41121 0.40792 0.1854 0.0
C7 C 0.27888 0.32878 0.21868 0.0
N8 N 0.28876 0.33854 0.17616 0.0
C9 C 0.26387 0.32131 0.19527 0.0
C10 C 0.31968 0.35343 0.22249 0.0
Eu11 Eu 0.26483 0.32964 0.13619 0.0
N12 N 0.33561 0.36584 0.13759 0.0
C13 C 0.35883 0.37571 0.11751 0.0
C14 C 0.41824 0.4104 0.14172 0.0
C15 C 0.40032 0.39848 0.11924 0.0
H16 H 0.23223 0.30261 0.19258 0.0
H17 H 0.41843 0.40695 0.10319 0.0
H18 H 0.44317 0.42565 0.18782 0.0
H19 H 0.25893 0.31572 0.23377 0.0
H20 H 0.34576 0.36708 0.09994 0.0
H21 H 0.06249 0.31264 0.13929 0.0
H22 H 0.4504 0.42803 0.143 0.0
H23 H 0.24514 0.3993 0.04804 0.0
H24 H 0.1357 0.34666 0.14167 0.0
H25 H 0.21699 0.38409 0.00705 0.0
H26 H 0.39987 0.40053 0.22333 0.0
H27 H 1.02874 0.28946 0.10011 0.0
H28 H 0.03405 0.2841 0.05554 0.0
H29 H 0.33124 0.3592 0.24064 0.0
H30 H 0.0762 0.30279 0.0195 0.0
N31 N 0.1435 0.34137 0.10434 0.0
C32 C 0.12139 0.33632 0.12448 0.0
C33 C 0.0609 0.30386 0.10108 0.0
C34 C 0.08374 0.31051 0.08037 0.0
C35 C 0.07985 0.31712 0.1232 0.0
C36 C 0.1256 0.33012 0.08257 0.0
H37 H 0.14441 0.34063 1.00123 0.0
N38 N 0.18932 0.36299 0.06509 0.0
C39 C 0.19763 0.37149 0.02242 0.0
C40 C 0.14926 0.34082 0.06232 0.0
C41 C 0.21346 0.38002 0.04562 0.0
C42 C 0.15666 0.34681 0.01921 0.0
C43 C 0.1318 0.33194 0.03928 0.0
O44 O 0.23484 0.43777 0.09274 0.0
O45 O 0.27061 0.38624 0.12153 0.0
O46 O 0.26472 0.37518 0.16099 0.0
O47 O 0.20873 0.37616 0.1466 0.0
O48 O 0.27607 0.41725 0.09032 0.0
O49 O 0.19223 0.41391 0.12139 0.0
O50 O 0.24331 0.26818 0.14824 0.0
O51 O 0.20759 0.32088 0.12057 0.0
O52 O 0.22094 0.33416 0.07866 0.0
O53 O 0.27567 0.33494 0.09619 0.0
O54 O 0.20317 0.29155 0.15228 0.0
O55 O 0.27897 0.29002 0.11618 0.0
C56 C 0.29561 0.41131 0.10695 0.0
C57 C 0.18743 0.45955 0.09498 0.0
C58 C 0.16053 0.5054 0.09352 0.0
C59 C 0.18358 0.49108 0.10519 0.0
C60 C 0.14226 0.48791 0.0715 0.0
C61 C 0.16844 0.44312 0.0731 0.0
C62 C 0.14611 0.45713 0.06152 0.0
C63 C 0.23463 0.38158 0.16404 0.0
C64 C 0.21118 0.4436 0.10664 0.0
C65 C 0.09015 0.31023 0.03704 0.0
C66 C 0.06615 0.29963 0.05755 0.0
C67 C 0.1832 0.29709 0.13584 0.0
C68 C 0.27874 0.23568 0.13586 0.0
C69 C 0.25651 0.19379 0.13356 0.0
C70 C 0.27511 0.17066 0.13624 0.0
C71 C 0.31598 0.18999 0.14164 0.0
C72 C 0.31935 0.25414 0.14162 0.0
C73 C 0.33776 0.23133 0.14452 0.0
C74 C 0.25109 0.32684 0.07793 0.0
C75 C 0.25987 0.25981 0.13058 0.0
H76 H 0.1981 0.50403 0.12209 0.0
H77 H 0.12539 0.49854 0.06159 0.0
H78 H 0.17123 0.41966 0.06468 0.0
H79 H 0.13195 0.44426 0.04454 0.0
H80 H 0.22514 0.17935 0.12901 0.0
H81 H 0.33099 0.17299 0.14389 0.0
H82 H 0.3369 0.28621 0.14349 0.0
H83 H 0.36917 0.2458 0.14882 0.0
Eu84 Eu 0.85623 0.19629 0.60637 0.0
C85 C 0.98955 0.31808 0.67635 0.0
C86 C 1.01533 0.38221 0.65706 0.0
C87 C 1.0159 0.37819 0.70056 0.0
C88 C 0.99731 0.34039 0.65571 0.0
C89 C 0.99925 0.33672 0.69903 0.0
C90 C 1.02393 0.4009 0.6796 0.0
C91 C 0.97726 0.27227 0.71689 0.0
N92 N 0.9735 0.27815 0.67422 0.0
C93 C 0.96824 0.2552 0.694 0.0
C94 C 0.99248 0.31318 0.71944 0.0
Eu95 Eu 0.95613 0.25081 0.63511 0.0
N96 N 0.98882 0.32139 0.63425 0.0
C97 C 1.00021 0.34275 0.61341 0.0
C98 C 1.02502 0.40404 0.63572 0.0
C99 C 1.01794 0.38424 0.61381 0.0
H100 H 0.9561 0.22351 0.69227 0.0
H101 H 1.02597 0.40089 0.5972 0.0
H102 H 0.03748 0.43295 0.68101 0.0
H103 H 0.97225 0.25384 0.73253 0.0
H104 H 0.99485 0.32802 0.59629 0.0
H105 H 0.77139 0.04992 0.64818 0.0
H106 H 0.03877 0.43619 0.63598 0.0
H107 H 0.85477 0.21693 0.54824 0.0
H108 H 0.80777 0.12312 0.6465 0.0
H109 H 0.84118 0.183 0.50889 0.0
H110 H 1.0233 0.39304 0.71781 0.0
H111 H 0.7642 1.01073 0.61162 0.0
H112 H 0.77463 1.00975 0.56724 0.0
H113 H 0.99941 0.32633 0.73719 0.0
H114 H 0.79419 0.04632 0.52901 0.0
N115 N 0.82265 0.12584 0.60955 0.0
C116 C 0.80524 0.10657 0.63043 0.0
C117 C 0.78051 0.04295 0.61081 0.0
C118 C 0.79615 0.06279 0.58913 0.0
C119 C 0.78437 0.06496 0.63145 0.0
C120 C 0.81678 0.1048 0.58902 0.0
H121 H 0.81807 0.11093 0.50701 0.0
N122 N 0.84167 0.16507 0.56816 0.0
C123 C 0.83731 0.16641 0.52524 0.0
C124 C 0.82701 0.12522 0.56757 0.0
C125 C 0.84489 0.18549 0.5475 0.0
C126 C 0.8245 0.12579 0.52425 0.0
C127 C 0.81805 0.10441 0.5456 0.0
O128 O 0.81075 0.208 0.59118 0.0
O129 O 0.90431 0.25477 0.62028 0.0
O130 O 0.912 0.25208 0.66051 0.0
O131 O 0.85445 0.19469 0.64811 0.0
O132 O 0.87632 0.2566 0.58933 0.0
O133 O 0.80287 0.18389 0.62672 0.0
O134 O 0.99485 0.22739 0.6462 0.0
O135 O 0.90741 0.19205 0.62121 0.0
O136 O 0.90386 0.20291 0.57889 0.0
O137 O 0.96124 0.25682 0.59475 0.0
O138 O 0.93402 0.19077 0.65311 0.0
O139 O 1.01227 0.26911 0.61674 0.0
C140 C 0.90306 0.27815 0.60491 0.0
C141 C 0.74437 0.16335 0.60386 0.0
C142 C 0.67246 0.13907 0.60661 0.0
C143 C 0.71249 0.16924 0.61072 0.0
C144 C 0.66507 0.10343 0.59556 0.0
C145 C 0.73568 0.12781 0.59232 0.0
C146 C 0.69644 0.09804 0.58835 0.0
C147 C 0.87585 0.22207 0.66466 0.0
C148 C 0.78652 0.19314 0.60934 0.0
C149 C 0.80085 0.06281 0.54569 0.0
C150 C 0.78974 0.04198 0.56745 0.0
C151 C 0.90792 0.16926 0.63727 0.0
C152 C 0.06385 0.26405 0.6366 0.0
C153 C 0.08209 0.24056 0.6342 0.0
C154 C 0.1232 0.2571 0.63846 0.0
C155 C 0.14567 0.29717 0.64548 0.0
C156 C 0.08672 0.30381 0.64399 0.0
C157 C 0.12743 0.32019 0.64844 0.0
C158 C 0.94194 0.23139 0.57729 0.0
C159 C 1.02163 0.24717 0.6299 0.0
H160 H 0.71873 0.19677 0.61939 0.0
H161 H 0.63486 0.08001 0.59191 0.0
H162 H 0.75925 0.12296 0.58633 0.0
H163 H 0.69031 0.07069 0.57952 0.0
H164 H 0.06458 0.20984 0.6284 0.0
H165 H 0.17733 0.31056 0.64887 0.0
H166 H 0.07322 0.32227 0.64599 0.0
H167 H 0.14502 0.35097 0.65399 0.0
Eu168 Eu 0.67773 0.8502 0.10667 0.0
C169 C 0.6949 0.98192 0.18007 0.0
C170 C 0.65757 1.01047 0.16277 0.0
C171 C 0.66338 1.00842 0.20608 0.0
C172 C 0.68027 0.99145 0.16012 0.0
C173 C 0.68707 0.99071 0.20329 0.0
C174 C 0.64866 1.0183 0.18585 0.0
C175 C 0.7282 0.96559 0.21921 0.0
N176 N 0.71769 0.9649 0.17672 0.0
C177 C 0.73522 0.95757 0.19583 0.0
C178 C 0.70372 0.98191 0.22299 0.0
Eu179 Eu 0.72565 0.94894 0.13681 0.0
N180 N 0.68957 0.98358 0.1381 0.0
C181 C 0.67929 0.99646 0.11797 0.0
C182 C 0.64523 0.02183 0.14215 0.0
C183 C 0.65662 1.01527 0.11966 0.0
H184 H 0.75378 0.94449 0.19315 0.0
H185 H 0.64781 0.02453 0.10359 0.0
H186 H 0.63102 0.03261 0.18823 0.0
H187 H 0.74147 0.95893 0.2343 0.0
H188 H 0.68752 0.99158 0.10041 0.0
H189 H 0.74178 0.7641 0.14325 0.0
H190 H 0.62767 0.03641 0.1434 0.0
H191 H 0.65518 0.85677 0.04942 0.0
H192 H 0.70806 0.80356 0.1446 0.0
H193 H 0.67011 0.8421 0.00881 0.0
H194 H 0.6568 1.01516 0.22378 0.0
H195 H 0.76445 0.75163 0.10449 0.0
H196 H 0.76949 0.76036 0.05976 0.0
H197 H 0.69829 0.98806 0.24113 0.0
H198 H 0.75083 0.78252 0.02312 0.0
N199 N 0.71291 0.8149 0.10705 0.0
C200 C 0.71813 0.79876 0.12756 0.0
C201 C 0.75012 0.76947 0.10498 0.0
C202 C 0.74336 0.78478 0.0839 0.0
C203 C 0.73717 0.77625 0.12688 0.0
C204 C 0.72393 0.80724 0.0855 0.0
H205 H 0.71326 0.81247 0.00393 0.0
N206 N 0.6914 0.83778 0.06715 0.0
C207 C 0.68271 0.83589 0.02442 0.0
C208 C 0.71333 0.81956 0.06492 0.0
C209 C 0.67435 0.84417 0.0474 0.0
C210 C 0.7072 0.81931 0.02174 0.0
C211 C 0.72203 0.81 0.04213 0.0
O212 O 0.61683 0.80973 0.09428 0.0
O213 O 0.66863 0.8978 0.12271 0.0
O214 O 0.68041 0.9043 0.16208 0.0
O215 O 0.67826 0.84646 0.14839 0.0
O216 O 0.63715 0.87146 0.09173 0.0
O217 O 0.64027 0.79182 0.12365 0.0
O218 O 0.78728 0.98955 0.14841 0.0
O219 O 0.73395 0.90009 0.12153 0.0
O220 O 0.71976 0.89888 0.07982 0.0
O221 O 0.71954 0.95345 0.09679 0.0
O222 O 0.76409 0.92565 0.15289 0.0
O223 O 0.76471 1.00203 0.11612 0.0
C224 C 0.64339 0.89739 0.10812 0.0
C225 C 0.5952 0.74068 0.09741 0.0
C226 C 0.55032 0.66781 0.09696 0.0
C227 C 0.56424 0.7055 0.10809 0.0
C228 C 0.56765 0.66643 0.07504 0.0
C229 C 0.61142 0.73763 0.07558 0.0
C230 C 0.59785 0.70092 0.06457 0.0
C231 C 0.67335 0.86768 0.16554 0.0
C232 C 0.61084 0.78064 0.10861 0.0
C233 C 0.74353 0.78978 0.04046 0.0
C234 C 0.75409 0.7771 0.06132 0.0
C235 C 0.75803 0.89971 0.13664 0.0
C236 C 0.81903 0.05702 0.13518 0.0
C237 C 0.86092 0.07684 0.13289 0.0
C238 C 0.88382 0.11866 0.13494 0.0
C239 C 0.86431 0.1402 0.1397 0.0
C240 C 0.80035 0.07916 0.1403 0.0
C241 C 0.82296 0.12052 0.14258 0.0
C242 C 0.72707 0.93631 0.07867 0.0
C243 C 0.79517 1.01385 0.13044 0.0
H244 H 0.55138 0.70743 0.12492 0.0
H245 H 0.55729 0.63856 0.06559 0.0
H246 H 0.63437 0.76372 0.06677 0.0
H247 H 0.61059 0.69922 0.04764 0.0
H248 H 0.87552 0.05991 0.12884 0.0
H249 H 0.88118 0.17231 0.14146 0.0
H250 H 0.76826 0.06452 0.14214 0.0
H251 H 0.80833 0.13746 0.14638 0.0
Eu252 Eu 0.85135 0.66575 0.60372 0.0
C253 C 0.73455 0.6801 0.67582 0.0
C254 C 0.66918 0.63972 0.65818 0.0
C255 C 0.67618 0.64727 0.70149 0.0
C256 C 0.7108 0.66399 0.65574 0.0
C257 C 0.71744 0.67249 0.6989 0.0
C258 C 0.6521 0.63088 0.68117 0.0
C259 C 0.78281 0.71722 0.71504 0.0
N260 N 0.77433 0.7043 0.67272 0.0
C261 C 0.79839 0.72395 0.6918 0.0
C262 C 0.74223 0.69104 0.71865 0.0
Eu263 Eu 0.79855 0.71238 0.63292 0.0
N264 N 0.72819 0.67326 0.63378 0.0
C265 C 0.7054 0.66145 0.61347 0.0
C266 C 0.64587 0.62573 0.63742 0.0
C267 C 0.66404 0.63708 0.61497 0.0
H268 H 0.82981 0.7441 0.68923 0.0
H269 H 0.64623 0.62698 0.5988 0.0
H270 H 0.62022 0.61204 0.6834 0.0
H271 H 0.80213 0.73214 0.73015 0.0
H272 H 0.719 0.66986 0.596 0.0
H273 H 0.99823 0.72897 0.6454 0.0
H274 H 0.61382 0.60688 0.63853 0.0
H275 H 0.82776 0.64513 0.54578 0.0
H276 H 0.92513 0.69518 0.64427 0.0
H277 H 0.86099 0.66134 0.5062 0.0
H278 H 0.66252 0.64081 0.71909 0.0
H279 H 0.03688 0.75272 0.60784 0.0
H280 H 0.03727 0.75889 0.563 0.0
H281 H 0.73025 0.68589 0.73668 0.0
H282 H 0.99985 0.74153 0.52504 0.0
N283 N 0.92188 0.70095 0.60649 0.0
C284 C 0.94141 0.70569 0.62772 0.0
C285 C 1.00468 0.73828 0.60723 0.0
C286 C 0.98455 0.73207 0.58541 0.0
C287 C 0.98298 0.72477 0.62845 0.0
C288 C 0.94255 0.71263 0.5856 0.0
H289 H 0.93413 0.70467 0.50367 0.0
N290 N 0.88125 0.68099 0.56521 0.0
C291 C 0.87837 0.67353 0.52237 0.0
C292 C 0.92156 0.70287 0.56429 0.0
C293 C 0.85966 0.66449 0.54477 0.0
C294 C 0.91964 0.6981 0.52102 0.0
C295 C 0.94189 0.71226 0.54216 0.0
O296 O 0.8312 0.60524 0.59066 0.0
O297 O 0.79348 0.65557 0.6187 0.0
O298 O 0.79871 0.66918 0.65938 0.0
O299 O 0.85349 0.66524 0.64558 0.0
O300 O 0.79093 0.62691 0.58696 0.0
O301 O 0.87068 0.6271 0.62095 0.0
O302 O 0.82701 0.77658 0.63917 0.0
O303 O 0.85612 0.72148 0.61796 0.0
O304 O 0.84568 0.70811 0.57656 0.0
O305 O 0.7909 0.70951 0.59263 0.0
O306 O 0.8598 0.75082 0.64964 0.0
O307 O 0.77205 0.74703 0.61932 0.0
C308 C 0.76979 0.63114 0.60329 0.0
C309 C 0.87761 0.58237 0.59476 0.0
C310 C 0.90378 0.53584 0.59423 0.0
C311 C 0.87991 0.54998 0.60504 0.0
C312 C 0.9244 0.55436 0.57298 0.0
C313 C 0.89892 0.59974 0.57365 0.0
C314 C 0.92204 0.58593 0.56293 0.0
C315 C 0.8277 0.66127 0.66276 0.0
C316 C 0.85307 0.59824 0.60548 0.0
C317 C 0.98371 0.73369 0.54187 0.0
C318 C 1.00501 0.7435 0.56347 0.0
C319 C 0.88013 0.7453 0.63336 0.0
C320 C 0.78614 0.8053 0.64135 0.0
C321 C 0.80233 0.84601 0.63553 0.0
C322 C 0.79178 0.87053 0.64883 0.0
C323 C 0.76499 0.8531 0.66812 0.0
C324 C 0.75902 0.78897 0.6603 0.0
C325 C 0.74861 0.81278 0.67359 0.0
C326 C 0.81681 0.71731 0.5752 0.0
C327 C 0.79941 0.78063 0.62854 0.0
H328 H 0.86358 0.53621 0.62133 0.0
H329 H 0.94198 0.54394 0.5637 0.0
H330 H 0.89736 0.62379 0.56515 0.0
H331 H 0.938 0.59959 0.54653 0.0
H332 H 0.82297 0.85833 0.62068 0.0
H333 H 0.757 0.87067 0.67944 0.0
H334 H 0.7463 0.75792 0.66505 0.0
H335 H 0.72808 0.80003 0.68845 0.0
Eu336 Eu 0.20557 0.84303 0.10604 0.0
C337 C 0.06784 0.72083 0.17358 0.0
C338 C 0.04248 0.65708 0.1539 0.0
C339 C 0.03937 0.66015 0.19733 0.0
C340 C 0.06107 0.69896 0.15284 0.0
C341 C 0.05652 0.7017 0.19606 0.0
C342 C 0.03237 0.63787 0.17628 0.0
C343 C 0.07779 0.76585 0.21418 0.0
N344 N 0.08429 0.76082 0.17169 0.0
C345 C 0.08843 0.7834 0.19147 0.0
C346 C 0.06212 0.72484 0.21653 0.0
Eu347 Eu 0.10451 0.78919 0.13303 0.0
N348 N 0.07091 0.71848 0.13154 0.0
C349 C 0.06026 0.69753 0.11053 0.0
C350 C 0.03365 0.63568 0.13242 0.0
C351 C 0.04205 0.65599 0.11064 0.0
H352 H 0.10098 0.81518 0.18986 0.0
H353 H 0.03461 0.63969 0.09389 0.0
H354 H 1.01836 0.60576 0.17745 0.0
H355 H 0.08189 0.78398 0.22985 0.0
H356 H 0.06645 0.71248 0.09347 0.0
H357 H 0.2892 0.99088 0.14612 0.0
H358 H 1.01948 0.6035 0.13245 0.0
H359 H 0.20031 0.81721 0.04807 0.0
H360 H 0.2496 0.91765 0.14581 0.0
H361 H 0.21662 0.84935 0.00819 0.0
H362 H 0.03073 0.64492 0.21444 0.0
H363 H 0.3043 0.02832 0.10806 0.0
H364 H 0.29829 0.02736 0.0632 0.0
H365 H 0.05389 0.71129 0.23413 0.0
H366 H 0.27769 0.98884 0.02566 0.0
N367 N 0.24088 0.91343 0.10801 0.0
C368 C 0.25556 0.93355 0.12907 0.0
C369 C 0.28643 0.99614 0.10782 0.0
C370 C 0.27243 0.97536 0.08621 0.0
C371 C 0.27815 0.97511 0.12933 0.0
C372 C 0.24984 0.93339 0.08686 0.0
H373 H 0.24763 0.92252 0.00498 0.0
N374 N 0.21969 0.87143 0.06707 0.0
C375 C 0.22265 0.86723 0.02422 0.0
C376 C 0.23842 0.91174 0.06575 0.0
C377 C 0.21347 0.84914 0.04679 0.0
C378 C 0.24005 0.90853 0.02248 0.0
C379 C 0.249 0.93141 0.0434 0.0
O380 O 0.24643 0.82295 0.09403 0.0
O381 O 0.15722 0.78476 0.12028 0.0
O382 O 0.14733 0.78873 0.16008 0.0
O383 O 0.20635 0.84468 0.14772 0.0
O384 O 0.18519 0.78257 0.08929 0.0
O385 O 0.26349 0.86371 0.12369 0.0
O386 O 0.06303 0.80927 0.14405 0.0
O387 O 0.15443 0.84765 0.12015 0.0
O388 O 0.15911 0.84039 0.07904 0.0
O389 O 0.10336 0.7828 0.09263 0.0
O390 O 0.12567 0.8496 0.15069 0.0
O391 O 0.05274 0.77618 0.11109 0.0
C392 C 0.15865 0.76131 0.10502 0.0
C393 C 0.31537 0.87038 0.09788 0.0
C394 C 0.38821 0.89804 0.09789 0.0
C395 C 0.35029 0.87419 0.10873 0.0
C396 C 0.39007 0.91726 0.07608 0.0
C397 C 0.31891 0.8901 0.07616 0.0
C398 C 0.35584 0.91334 0.06543 0.0
C399 C 0.18383 0.81815 0.16437 0.0
C400 C 0.27512 0.84581 0.1087 0.0
C401 C 0.2696 0.97321 0.04266 0.0
C402 C 0.28138 0.99514 0.06403 0.0
C403 C 0.15319 0.87088 0.13554 0.0
C404 C 0.99642 0.77393 0.12945 0.0
C405 C 0.97679 0.79627 0.12822 0.0
C406 C 0.93489 0.77726 0.12979 0.0
C407 C 0.91309 0.73577 0.13299 0.0
C408 C 0.97402 0.73266 0.13303 0.0
C409 C 0.93258 0.71377 0.13481 0.0
C410 C 0.12236 0.80994 0.07598 0.0
C411 C 0.03985 0.79375 0.1255 0.0
H412 H 0.34798 0.85899 0.12547 0.0
H413 H 0.41812 0.93483 0.06683 0.0
H414 H 0.29302 0.88716 0.06717 0.0
H415 H 0.3579 0.92812 0.04858 0.0
H416 H 0.99395 0.82817 0.12539 0.0
H417 H 0.88092 0.72042 0.13438 0.0
H418 H 0.98853 0.71501 0.1341 0.0
H419 H 0.91544 0.68188 0.13744 0.0
Eu420 Eu 0.37914 0.19192 0.60788 0.0
C421 C 0.36119 0.04586 0.67085 0.0
C422 C 0.4067 0.02817 0.65247 0.0
C423 C 0.39042 1.01449 0.69475 0.0
C424 C 0.38185 0.04502 0.65098 0.0
C425 C 0.36447 0.02977 0.69286 0.0
C426 C 0.41157 1.01376 0.67458 0.0
C427 C 0.31394 0.04225 0.70895 0.0
N428 N 0.33635 0.06072 0.66836 0.0
C429 C 0.31189 0.05804 0.68678 0.0
C430 C 0.34077 0.02857 0.71212 0.0
Eu431 Eu 0.33508 0.08836 0.63064 0.0
N432 N 0.37596 0.05869 0.62987 0.0
C433 C 0.39172 0.05351 0.60919 0.0
C434 C 0.42494 0.02522 0.63156 0.0
C435 C 0.41692 0.03741 0.60976 0.0
H436 H 0.29114 0.06865 0.68467 0.0
H437 H 0.43018 0.03451 0.59337 0.0
H438 H 0.43079 1.00104 0.67612 0.0
H439 H 0.29498 0.04085 0.72359 0.0
H440 H 0.38607 0.06275 0.59215 0.0
H441 H 0.31263 0.26493 0.65803 0.0
H442 H 0.44436 1.01264 0.63196 0.0
H443 H 0.39821 0.19751 0.54906 0.0
H444 H 0.34911 0.22882 0.65267 0.0
H445 H 0.37823 0.21706 0.51156 0.0
H446 H 0.39363 1.00234 0.71155 0.0
H447 H 0.28525 0.28187 0.62284 0.0
H448 H 0.27725 0.28131 0.57812 0.0
H449 H 0.34235 1.01638 0.7293 0.0
H450 H 0.29393 0.26699 0.5382 0.0
N451 N 0.34094 0.22323 0.61479 0.0
C452 C 0.33685 0.2353 0.63711 0.0
C453 C 0.30075 0.26539 0.62035 0.0
C454 C 0.30644 0.25447 0.59741 0.0
C455 C 0.3163 0.25603 0.64025 0.0
C456 C 0.32721 0.23339 0.59515 0.0
H457 H 0.33197 0.2435 0.51319 0.0
N458 N 0.36149 0.21029 0.57131 0.0
C459 C 0.36634 0.21957 0.52861 0.0
C460 C 0.33743 0.22623 0.57269 0.0
C461 C 0.37757 0.20857 0.54981 0.0
C462 C 0.34009 0.23432 0.5296 0.0
C463 C 0.32614 0.23883 0.55186 0.0
O464 O 0.43545 0.23986 0.59315 0.0
O465 O 0.39182 0.14436 0.62004 0.0
O466 O 0.37263 0.12707 0.66089 0.0
O467 O 0.38012 0.18872 0.64957 0.0
O468 O 0.42195 0.17668 0.58992 0.0
O469 O 0.41895 0.24432 0.62935 0.0
O470 O 0.27108 0.04715 0.63549 0.0
O471 O 0.3241 0.13762 0.61943 0.0
O472 O 0.33901 0.14625 0.57891 0.0
O473 O 0.34564 0.09265 0.59076 0.0
O474 O 0.29348 0.10551 0.64921 0.0
O475 O 0.3028 0.03651 0.60735 0.0
C476 C 0.41838 0.14967 0.60482 0.0
C477 C 0.45683 0.30504 0.60831 0.0
C478 C 0.50573 0.37664 0.61134 0.0
C479 C 0.49586 0.33627 0.61372 0.0
C480 C 0.47631 0.38503 0.60341 0.0
C481 C 0.42878 0.31485 0.59988 0.0
C482 C 0.4383 0.35437 0.59758 0.0
C483 C 0.38192 0.16414 0.66573 0.0
C484 C 0.44454 0.26243 0.61215 0.0
C485 C 0.30309 0.25733 0.554 0.0
C486 C 0.29354 0.26544 0.57673 0.0
C487 C 0.29892 0.13393 0.63504 0.0
C488 C 0.24461 0.98027 0.62278 0.0
C489 C 0.20267 0.96135 0.62178 0.0
C490 C 0.17912 0.91969 0.62429 0.0
C491 C 0.19806 0.89734 0.62812 0.0
C492 C 0.2628 0.95738 0.62707 0.0
C493 C 0.23955 0.91614 0.62971 0.0
C494 C 0.33582 0.11098 0.57462 0.0
C495 C 0.26879 0.0235 0.61828 0.0
H496 H 0.51812 0.32929 0.61998 0.0
H497 H 0.48304 0.41552 0.60116 0.0
H498 H 0.39938 0.29197 0.59508 0.0
H499 H 0.41609 0.36128 0.59116 0.0
H500 H 0.18842 0.97887 0.61851 0.0
H501 H 0.18066 0.86531 0.63022 0.0
H502 H 0.29493 0.97131 0.62812 0.0
H503 H 0.25376 0.89862 0.63288 0.0
Eu504 Eu 0.67734 0.84628 0.40062 0.0
C505 C 0.68822 0.71855 0.33529 0.0
C506 C 0.64819 0.65584 0.35578 0.0
C507 C 0.65492 0.65695 0.31241 0.0
C508 C 0.67254 0.69766 0.35628 0.0
C509 C 0.68012 0.69843 0.31312 0.0
C510 C 0.63895 0.63569 0.33371 0.0
C511 C 0.72408 0.76153 0.29419 0.0
N512 N 0.71235 0.75855 0.3366 0.0
C513 C 0.73124 0.7801 0.3166 0.0
C514 C 0.69808 0.72055 0.2924 0.0
Eu515 Eu 0.72139 0.78848 0.37484 0.0
N516 N 0.68214 0.71806 0.37729 0.0
C517 C 0.67044 0.69809 0.3986 0.0
C518 C 0.63445 0.63547 0.37752 0.0
C519 C 0.64604 0.65667 0.39903 0.0
H520 H 0.75107 0.81185 0.31779 0.0
H521 H 0.63609 0.64116 0.41597 0.0
H522 H 0.62006 0.60362 0.33296 0.0
H523 H 0.73845 0.77886 0.27832 0.0
H524 H 0.67887 0.71388 0.41542 0.0
H525 H 0.74258 0.98961 0.35458 0.0
H526 H 0.61555 0.60338 0.3779 0.0
H527 H 0.65637 0.82887 0.45907 0.0
H528 H 0.70589 0.91669 0.35804 0.0
H529 H 0.67603 0.86542 0.4976 0.0
H530 H 0.6481 0.64097 0.29554 0.0
H531 H 0.77097 0.0313 0.39073 0.0
H532 H 0.77984 0.03538 0.43548 0.0
H533 H 0.69256 0.70622 0.27502 0.0
H534 H 0.76249 1.00138 0.47455 0.0
N535 N 0.71481 0.91644 0.39569 0.0
C536 C 0.7185 0.93425 0.37397 0.0
C537 C 0.75531 0.99917 0.39235 0.0
C538 C 0.74982 0.98085 0.41474 0.0
C539 C 0.73918 0.97574 0.37192 0.0
C540 C 0.72874 0.93887 0.41587 0.0
H541 H 0.72317 0.93804 0.49793 0.0
N542 N 0.69392 0.87984 0.43809 0.0
C543 C 0.68835 0.88109 0.48093 0.0
C544 C 0.71831 0.91987 0.43781 0.0
C545 C 0.67727 0.86052 0.45913 0.0
C546 C 0.7151 0.92203 0.48105 0.0
C547 C 0.72959 0.94213 0.45928 0.0
O548 O 0.61985 0.83494 0.4151 0.0
O549 O 0.66568 0.7867 0.38798 0.0
O550 O 0.67861 0.78796 0.34757 0.0
O551 O 0.67768 0.84549 0.35884 0.0
O552 O 0.63663 0.78744 0.41876 0.0
O553 O 0.6371 0.85885 0.37956 0.0
O554 O 0.78364 0.81034 0.36477 0.0
O555 O 0.73215 0.84796 0.38728 0.0
O556 O 0.71849 0.84131 0.42882 0.0
O557 O 0.71907 0.78471 0.41532 0.0
O558 O 0.7613 0.84778 0.35634 0.0
O559 O 0.7579 0.77023 0.39489 0.0
C560 C 0.64064 0.76462 0.40358 0.0
C561 C 0.59797 0.87905 0.40152 0.0
C562 C 0.54874 0.90138 0.39913 0.0
C563 C 0.55927 0.87158 0.39552 0.0
C564 C 0.57725 0.93819 0.40888 0.0
C565 C 0.6251 0.91584 0.41172 0.0
C566 C 0.61495 0.94518 0.41524 0.0
C567 C 0.67253 0.81781 0.3427 0.0
C568 C 0.61091 0.84954 0.3966 0.0
C569 C 0.75321 0.98378 0.45826 0.0
C570 C 0.7631 1.00314 0.43601 0.0
C571 C 0.7565 0.87005 0.37148 0.0
C572 C 0.81389 0.7725 0.37592 0.0
C573 C 0.85575 0.79565 0.37736 0.0
C574 C 0.87956 0.7781 0.37386 0.0
C575 C 0.86101 0.73727 0.36854 0.0
C576 C 0.796 0.73193 0.3702 0.0
C577 C 0.81955 0.71449 0.3665 0.0
C578 C 0.72664 0.81202 0.43177 0.0
C579 C 0.78958 0.79083 0.38174 0.0
H580 H 0.53777 0.84313 0.38787 0.0
H581 H 0.57001 0.96138 0.41213 0.0
H582 H 0.65428 0.922 0.41697 0.0
H583 H 0.63641 0.97347 0.42305 0.0
H584 H 0.86972 0.827 0.38185 0.0
H585 H 0.87868 0.72308 0.36575 0.0
H586 H 0.76389 0.7137 0.3689 0.0
H587 H 0.80561 0.68312 0.36224 0.0
Eu588 Eu 0.85989 0.67145 0.8982 0.0
C589 C 0.99511 0.68348 0.82849 0.0
C590 C 1.01921 0.6427 0.84646 0.0
C591 C 1.02211 0.65154 0.80321 0.0
C592 C 1.0017 0.66688 0.84862 0.0
C593 C 1.00565 0.67641 0.80555 0.0
C594 C 1.02887 0.63471 0.82364 0.0
C595 C 0.9844 0.72033 0.78904 0.0
N596 N 0.97907 0.70724 0.83138 0.0
C597 C 0.97453 0.72649 0.81215 0.0
C598 C 0.99972 0.6949 0.78569 0.0
Eu599 Eu 0.96054 0.71441 0.8708 0.0
N600 N 0.99197 0.67521 0.87037 0.0
C601 C 1.00109 0.662 0.89082 0.0
C602 C 1.02701 0.62775 0.86731 0.0
C603 C 1.01827 0.6378 0.88961 0.0
H604 H 0.96233 0.74589 0.81444 0.0
H605 H 1.02455 0.62674 0.90589 0.0
H606 H 0.04208 0.616 0.82162 0.0
H607 H 0.97998 0.73503 0.77383 0.0
H608 H 0.99423 0.66891 0.90822 0.0
H609 H 0.781 0.73777 0.85442 0.0
H610 H 0.04027 0.60895 0.86642 0.0
H611 H 0.85992 0.65112 0.95651 0.0
H612 H 0.8177 0.70148 0.85669 0.0
H613 H 0.84431 0.67034 0.99558 0.0
H614 H 1.03017 0.64555 0.78574 0.0
H615 H 0.76804 0.76485 0.89124 0.0
H616 H 0.774 0.7729 0.93602 0.0
H617 H 1.00731 0.69013 0.76777 0.0
H618 H 0.79235 0.7555 0.97452 0.0
N619 N 0.8277 0.70951 0.89434 0.0
C620 C 0.81306 0.71365 0.8729 0.0
C621 C 0.78487 0.74949 0.89234 0.0
C622 C 0.79841 0.74373 0.91442 0.0
C623 C 0.79196 0.73409 0.87153 0.0
C624 C 0.81965 0.72296 0.91488 0.0
H625 H 0.81804 0.71676 0.99694 0.0
N626 N 0.845 0.68824 0.93621 0.0
C627 C 0.84008 0.68257 0.97913 0.0
C628 C 0.82906 0.71236 0.93652 0.0
C629 C 0.84884 0.67174 0.95702 0.0
C630 C 0.82544 0.70891 0.97982 0.0
C631 C 0.81873 0.72331 0.95833 0.0
O632 O 0.81301 0.61469 0.91309 0.0
O633 O 0.90646 0.65882 0.88424 0.0
O634 O 0.91682 0.67162 0.84419 0.0
O635 O 0.85949 0.67216 0.85634 0.0
O636 O 0.87668 0.62875 0.91491 0.0
O637 O 0.80651 0.63164 0.87742 0.0
O638 O 1.0023 0.77681 0.86158 0.0
O639 O 0.91301 0.72599 0.8847 0.0
O640 O 0.90849 0.71118 0.92606 0.0
O641 O 0.96178 0.70683 0.91077 0.0
O642 O 0.94145 0.75572 0.85379 0.0
O643 O 1.01454 0.74976 0.89185 0.0
C644 C 0.90292 0.63274 0.89929 0.0
C645 C 0.747 0.5932 0.89944 0.0
C646 C 0.67526 0.5444 0.89704 0.0
C647 C 0.71553 0.55451 0.89362 0.0
C648 C 0.66724 0.57329 0.90641 0.0
C649 C 0.7376 0.62068 0.90933 0.0
C650 C 0.69816 0.61094 0.91264 0.0
C651 C 0.88098 0.6662 0.83983 0.0
C652 C 0.78943 0.60575 0.89459 0.0
C653 C 0.80025 0.74653 0.95796 0.0
C654 C 0.78983 0.75648 0.93603 0.0
C655 C 0.91509 0.75096 0.86943 0.0
C656 C 0.06988 0.80585 0.87401 0.0
C657 C 0.08932 0.84775 0.87581 0.0
C658 C 0.13102 0.87101 0.87321 0.0
C659 C 0.15283 0.85179 0.86839 0.0
C660 C 0.09224 0.78742 0.86882 0.0
C661 C 0.13349 0.81037 0.866 0.0
C662 C 0.94494 0.71604 0.92825 0.0
C663 C 1.0268 0.78191 0.879 0.0
H664 H 0.72225 0.5327 0.88623 0.0
H665 H 0.63685 0.56637 0.90948 0.0
H666 H 0.76077 0.64982 0.9145 0.0
H667 H 0.69154 0.63269 0.92018 0.0
H668 H 0.0722 0.86215 0.87988 0.0
H669 H 0.18487 0.86892 0.8662 0.0
H670 H 0.07787 0.75532 0.86726 0.0
H671 H 0.15062 0.79597 0.86213 0.0
Eu672 Eu 0.20093 0.8447 0.39976 0.0
C673 C 0.33369 0.98909 0.34027 0.0
C674 C 0.39397 1.00371 0.36138 0.0
C675 C 0.39644 1.01719 0.31866 0.0
C676 C 0.35249 0.9888 0.36114 0.0
C677 C 0.35556 1.00442 0.3189 0.0
C678 C 0.41563 1.01678 0.33989 0.0
C679 C 0.29607 0.99781 0.30057 0.0
N680 N 0.29442 0.97711 0.3413 0.0
C681 C 0.27589 0.98315 0.32228 0.0
C682 C 0.33595 1.00784 0.29873 0.0
Eu683 Eu 0.2605 0.94909 0.37768 0.0
N684 N 0.33064 0.97653 0.38155 0.0
C685 C 0.34922 0.98183 0.40322 0.0
C686 C 0.41262 1.0064 0.38334 0.0
C687 C 0.39023 0.9961 0.4044 0.0
H688 H 0.24519 0.97581 0.32374 0.0
H689 H 0.40449 0.99899 0.42157 0.0
H690 H 0.44742 0.02787 0.33966 0.0
H691 H 0.28091 1.00147 0.28532 0.0
H692 H 0.33257 0.97392 0.41972 0.0
H693 H 0.05961 0.77153 0.35111 0.0
H694 H 0.44437 1.01752 0.38431 0.0
H695 H 0.21646 0.83793 0.45816 0.0
H696 H 0.13233 0.80812 0.35562 0.0
H697 H 0.17822 0.81713 0.49605 0.0
H698 H 0.4137 0.02861 0.30236 0.0
H699 H 1.01643 0.75325 0.38687 0.0
H700 H 1.01044 0.7528 0.43172 0.0
H701 H 0.35165 1.01947 0.28197 0.0
H702 H 0.04281 0.76634 0.47125 0.0
N703 N 0.13107 0.81273 0.39366 0.0
C704 C 0.11416 0.80112 0.37146 0.0
C705 C 0.04849 0.76998 0.38901 0.0
C706 C 0.06586 0.78051 0.41179 0.0
C707 C 0.07276 0.78009 0.36879 0.0
C708 C 0.1078 0.80187 0.41359 0.0
H709 H 0.10529 0.78983 0.49542 0.0
N710 N 0.16604 0.82489 0.43666 0.0
C711 C 0.16315 0.81475 0.47926 0.0
C712 C 0.12593 0.80857 0.43581 0.0
C713 C 0.18468 0.82646 0.45782 0.0
C714 C 0.12203 0.79953 0.47884 0.0
C715 C 0.10276 0.7953 0.45688 0.0
O716 O 0.21165 0.79761 0.41334 0.0
O717 O 0.26127 0.89297 0.38779 0.0
O718 O 0.25442 0.91099 0.34583 0.0
O719 O 0.2031 0.84797 0.35819 0.0
O720 O 0.25893 0.86139 0.41828 0.0
O721 O 0.18824 0.79287 0.37774 0.0
O722 O 0.23786 0.99 0.37125 0.0
O723 O 0.20064 0.89928 0.38837 0.0
O724 O 0.20316 0.88834 0.42884 0.0
O725 O 0.26224 0.94489 0.41804 0.0
O726 O 0.20166 0.93291 0.35936 0.0
O727 O 0.28007 1.0022 0.39979 0.0
C728 C 0.28244 0.88829 0.40337 0.0
C729 C 0.16773 0.73233 0.39844 0.0
C730 C 0.14629 0.66109 0.39532 0.0
C731 C 0.17611 0.70166 0.39268 0.0
C732 C 0.10859 0.65194 0.4039 0.0
C733 C 0.13001 0.72182 0.40743 0.0
C734 C 0.10068 0.68208 0.41003 0.0
C735 C 0.22688 0.87358 0.34153 0.0
C736 C 0.19728 0.77508 0.39438 0.0
C737 C 0.06109 0.77652 0.45526 0.0
C738 C 0.04267 0.76885 0.43274 0.0
C739 C 0.17891 0.90369 0.37323 0.0
C740 C 0.27752 0.05733 0.38305 0.0
C741 C 0.25394 0.0756 0.3836 0.0
C742 C 0.27138 0.117 0.38039 0.0
C743 C 0.31258 0.13982 0.37631 0.0
C744 C 0.31849 0.08055 0.37851 0.0
C745 C 0.33585 0.12161 0.37516 0.0
C746 C 0.23296 0.92498 0.43328 0.0
C747 C 0.25896 1.01444 0.38822 0.0
H748 H 0.20526 0.70924 0.38594 0.0
H749 H 0.08535 0.62128 0.40641 0.0
H750 H 0.12307 0.74432 0.41242 0.0
H751 H 0.07166 0.67461 0.41692 0.0
H752 H 0.22226 0.0578 0.38711 0.0
H753 H 0.32668 0.17172 0.37376 0.0
H754 H 0.33708 0.06703 0.37781 0.0
H755 H 0.36751 0.13944 0.37181 0.0
Eu756 Eu 0.386 0.19824 0.901 0.0
C757 C 0.36774 0.31932 0.83398 0.0
C758 C 0.41039 0.38323 0.85267 0.0
C759 C 0.39854 0.37943 0.80969 0.0
C760 C 0.38601 0.3415 0.85425 0.0
C761 C 0.3729 0.33813 0.81156 0.0
C762 C 0.41735 0.40193 0.8302 0.0
C763 C 0.3243 0.2745 0.79499 0.0
N764 N 0.34301 0.27953 0.83644 0.0
C765 C 0.32026 0.25719 0.81758 0.0
C766 C 0.35118 0.31505 0.79187 0.0
Eu767 Eu 0.33819 0.25218 0.87509 0.0
N768 N 0.37805 0.32258 0.87573 0.0
C769 C 0.39108 0.34399 0.8965 0.0
C770 C 0.42601 0.40503 0.87381 0.0
C771 C 0.41579 0.38536 0.89585 0.0
H772 H 0.29943 0.22585 0.81979 0.0
H773 H 0.42697 0.40203 0.91235 0.0
H774 H 0.43628 0.4339 0.8286 0.0
H775 H 0.30678 0.25654 0.78 0.0
H776 H 0.38351 0.32929 0.91369 0.0
H777 H 0.32444 0.05508 0.8551 0.0
H778 H 0.44501 0.4371 0.87336 0.0
H779 H 0.40341 0.21769 0.95984 0.0
H780 H 0.35759 0.12803 0.85825 0.0
H781 H 0.38549 0.18124 0.99838 0.0
H782 H 0.40323 0.39437 0.79257 0.0
H783 H 0.30044 1.01358 0.8916 0.0
H784 H 0.29328 1.00964 0.93641 0.0
H785 H 0.35424 0.32839 0.77436 0.0
H786 H 0.30876 0.04395 0.97538 0.0
N787 N 0.35136 0.1282 0.89618 0.0
C788 C 0.34702 0.11042 0.87436 0.0
C789 C 0.31468 0.04566 0.89312 0.0
C790 C 0.32032 0.06404 0.91551 0.0
C791 C 0.3283 0.06899 0.87248 0.0
C792 C 0.33945 0.10598 0.91651 0.0
H793 H 0.3434 0.10784 0.99866 0.0
N794 N 0.3695 0.16565 0.93875 0.0
C795 C 0.37451 0.16515 0.98168 0.0
C796 C 0.34818 0.12527 0.93844 0.0
C797 C 0.38454 0.18567 0.95988 0.0
C798 C 0.35067 0.12374 0.98176 0.0
C799 C 0.33801 0.10319 0.95997 0.0
O800 O 0.446 0.21763 0.91469 0.0
O801 O 0.39601 0.2569 0.88739 0.0
O802 O 0.37802 0.25184 0.84615 0.0
O803 O 0.38816 0.20014 0.85922 0.0
O804 O 0.42463 0.25758 0.91889 0.0
O805 O 0.42506 0.17952 0.88372 0.0
O806 O 0.27366 0.22399 0.87013 0.0
O807 O 0.32988 0.19371 0.88781 0.0
O808 O 0.34268 0.20062 0.92846 0.0
O809 O 0.34271 0.25764 0.91549 0.0
O810 O 0.29972 0.19218 0.85694 0.0
O811 O 0.30392 0.27683 0.89178 0.0
C812 C 0.42066 0.27964 0.90308 0.0
C813 C 0.46875 0.17124 0.91016 0.0
C814 C 0.51485 0.14463 0.91043 0.0
C815 C 0.50103 0.16889 0.89982 0.0
C816 C 0.49603 0.12351 0.93149 0.0
C817 C 0.4512 0.14963 0.93115 0.0
C818 C 0.46458 0.12596 0.94163 0.0
C819 C 0.38903 0.22508 0.84232 0.0
C820 C 0.45336 0.19632 0.89964 0.0
C821 C 0.31714 0.0614 0.95904 0.0
C822 C 0.3084 0.04187 0.93685 0.0
C823 C 0.306 0.17078 0.87205 0.0
C824 C 0.24615 0.26592 0.8704 0.0
C825 C 0.20491 0.24832 0.87508 0.0
C826 C 0.18118 0.26065 0.86242 0.0
C827 C 0.19997 0.29058 0.84484 0.0
C828 C 0.26382 0.29643 0.85338 0.0
C829 C 0.24082 0.3085 0.84064 0.0
C830 C 0.33529 0.23028 0.93182 0.0
C831 C 0.27012 0.25075 0.88214 0.0
H832 H 0.51505 0.18558 0.88368 0.0
H833 H 0.50621 0.10556 0.9406 0.0
H834 H 0.4274 0.1514 0.9398 0.0
H835 H 0.45075 0.10973 0.95792 0.0
H836 H 0.19162 0.22521 0.88856 0.0
H837 H 0.18317 0.30003 0.83389 0.0
H838 H 0.29534 0.31058 0.84969 0.0
H839 H 0.25465 0.33157 0.82718 0.0
Eu840 Eu 0.2034 0.37086 0.39939 0.0
C841 C 0.0634 0.35869 0.33533 0.0
C842 C 0.04738 0.40471 0.35469 0.0
C843 C 0.03702 0.39306 0.31177 0.0
C844 C 0.06222 0.37814 0.35573 0.0
C845 C 0.04972 0.36497 0.31323 0.0
C846 C 0.0359 0.41295 0.33249 0.0
C847 C 0.05773 0.31197 0.29644 0.0
N848 N 0.07533 0.33146 0.33748 0.0
C849 C 0.07071 0.30668 0.31884 0.0
C850 C 0.04783 0.34175 0.2935 0.0
Eu851 Eu 0.10016 0.32598 0.37521 0.0
N852 N 0.07299 0.36895 0.37687 0.0
C853 C 0.06617 0.38253 0.39795 0.0
C854 C 0.04315 0.42102 0.3761 0.0
C855 C 0.05189 0.40927 0.39786 0.0
H856 H 0.07784 0.28331 0.32115 0.0
H857 H 0.04778 0.42092 0.41459 0.0
H858 H 1.02488 0.43363 0.33129 0.0
H859 H 0.05521 0.293 0.28152 0.0
H860 H 0.07287 0.37395 0.41493 0.0
H861 H 0.27737 0.30178 0.35279 0.0
H862 H 0.03202 0.44166 0.37609 0.0
H863 H 0.2092 0.39405 0.45752 0.0
H864 H 0.24105 0.33826 0.35627 0.0
H865 H 0.22894 0.37698 0.49596 0.0
H866 H 1.02684 0.39867 0.2949 0.0
H867 H 0.29432 0.27689 0.38912 0.0
H868 H 0.29381 0.27205 0.43403 0.0
H869 H 0.0375 0.34563 0.27619 0.0
H870 H 0.2793 0.2913 0.47309 0.0
N871 N 0.23514 0.33254 0.39428 0.0
C872 C 0.24743 0.3271 0.37235 0.0
C873 C 0.27768 0.29237 0.3908 0.0
C874 C 0.26659 0.29947 0.41332 0.0
C875 C 0.26832 0.30653 0.37026 0.0
C876 C 0.24527 0.32013 0.41451 0.0
H877 H 0.25559 0.33086 0.49637 0.0
N878 N 0.22205 0.35589 0.43676 0.0
C879 C 0.23147 0.36389 0.47939 0.0
C880 C 0.23807 0.33184 0.43647 0.0
C881 C 0.22034 0.37347 0.45764 0.0
C882 C 0.2463 0.3377 0.47956 0.0
C883 C 0.25081 0.32219 0.45787 0.0
O884 O 0.25021 0.42859 0.41332 0.0
O885 O 0.15565 0.38281 0.38629 0.0
O886 O 0.13965 0.35873 0.34412 0.0
O887 O 0.20186 0.3698 0.35773 0.0
O888 O 0.18608 0.41225 0.41706 0.0
O889 O 0.25604 0.41003 0.37796 0.0
O890 O 0.06095 0.26172 0.3703 0.0
O891 O 0.14914 0.31575 0.38767 0.0
O892 O 0.15838 0.33065 0.42832 0.0
O893 O 0.10183 0.33184 0.4156 0.0
O894 O 0.11747 0.28356 0.35793 0.0
O895 O 0.04302 0.29395 0.39388 0.0
C896 C 0.15964 0.40864 0.40169 0.0
C897 C 0.31595 0.44959 0.39944 0.0
C898 C 0.38752 0.49883 0.39725 0.0
C899 C 0.34717 0.48853 0.39395 0.0
C900 C 0.3959 0.46994 0.40619 0.0
C901 C 0.32572 0.42207 0.40883 0.0
C902 C 0.36523 0.43202 0.41207 0.0
C903 C 0.17714 0.36843 0.34057 0.0
C904 C 0.27341 0.43674 0.39471 0.0
C905 C 0.26951 0.29921 0.45684 0.0
C906 C 0.27771 0.28819 0.43459 0.0
C907 C 0.14567 0.28981 0.37266 0.0
C908 C 0.99179 0.23477 0.37573 0.0
C909 C 0.97271 0.19304 0.3783 0.0
C910 C 0.93293 0.16879 0.37091 0.0
C911 C 0.91248 0.1866 0.36083 0.0
C912 C 0.97102 0.25198 0.3653 0.0
C913 C 0.93153 0.22792 0.35794 0.0
C914 C 0.12132 0.32337 0.43175 0.0
C915 C 0.03312 0.25963 0.38419 0.0
H916 H 0.3402 0.51037 0.38691 0.0
H917 H 0.42638 0.47703 0.40917 0.0
H918 H 0.30282 0.39272 0.41364 0.0
H919 H 0.37209 0.41021 0.41925 0.0
H920 H 0.98865 0.1795 0.38619 0.0
H921 H 0.88187 0.16845 0.355 0.0
H922 H 0.98527 0.28394 0.36294 0.0
H923 H 0.91559 0.24135 0.34999 0.0
Eu924 Eu 0.85603 0.1958 0.89986 0.0
C925 C 0.73106 0.0577 0.83347 0.0
C926 C 0.66779 0.03327 0.85357 0.0
C927 C 0.66995 0.02998 0.8101 0.0
C928 C 0.70966 0.05128 0.85436 0.0
C929 C 0.71146 0.04658 0.8111 0.0
C930 C 0.64814 0.02334 0.83131 0.0
C931 C 0.77511 0.06707 0.79254 0.0
N932 N 0.77104 0.0737 0.8351 0.0
C933 C 0.79314 0.07754 0.81514 0.0
C934 C 0.73413 0.05188 0.79046 0.0
Eu935 Eu 0.80031 0.09399 0.87359 0.0
N936 N 0.72961 0.06101 0.87553 0.0
C937 C 0.70908 0.05085 0.89668 0.0
C938 C 0.64685 0.0249 0.87519 0.0
C939 C 0.66757 0.0332 0.89684 0.0
H940 H 0.82491 0.08973 0.81652 0.0
H941 H 0.65162 0.02616 0.91368 0.0
H942 H 0.61603 1.00979 0.83034 0.0
H943 H 0.79288 0.07096 0.77673 0.0
H944 H 0.72437 0.05708 0.91364 0.0
H945 H 1.00364 0.27851 0.85969 0.0
H946 H 0.6147 1.01122 0.87537 0.0
H947 H 0.83253 0.19601 0.95776 0.0
H948 H 0.93028 0.24173 0.86035 0.0
H949 H 0.8651 0.21005 0.99754 0.0
H950 H 0.65436 0.02151 0.79308 0.0
H951 H 0.04152 0.28735 0.89715 0.0
H952 H 0.04092 0.27819 0.94174 0.0
H953 H 0.72022 0.04381 0.77293 0.0
H954 H 1.00294 0.25916 0.97947 0.0
N955 N 0.92639 0.22869 0.89762 0.0
C956 C 0.94636 0.24513 0.87679 0.0
C957 C 1.00927 0.27089 0.8975 0.0
C958 C 0.98865 0.25592 0.91903 0.0
C959 C 0.988 0.26612 0.87635 0.0
C960 C 0.94664 0.23526 0.91857 0.0
H961 H 0.93741 0.23458 1.00048 0.0
N962 N 0.8855 0.21052 0.93859 0.0
C963 C 0.8824 0.21436 0.98145 0.0
C964 C 0.92542 0.22554 0.93977 0.0
C965 C 0.86409 0.20659 0.95893 0.0
C966 C 0.92318 0.228 0.98304 0.0
C967 C 0.94542 0.23477 0.96203 0.0
O968 O 0.84437 0.24209 0.91363 0.0
O969 O 0.79727 0.14718 0.88665 0.0
O970 O 0.79977 0.13694 0.84675 0.0
O971 O 0.85715 0.19551 0.85818 0.0
O972 O 0.79586 0.17746 0.9166 0.0
O973 O 0.87062 0.24904 0.87873 0.0
O974 O 0.82096 0.05306 0.86256 0.0
O975 O 0.85938 0.14371 0.88606 0.0
O976 O 0.85166 0.14961 0.92749 0.0
O977 O 0.79478 0.09269 0.91402 0.0
O978 O 0.85998 0.11438 0.85531 0.0
O979 O 0.78675 0.04178 0.89518 0.0
C980 C 0.77415 0.14971 0.90161 0.0
C981 C 0.89025 0.30809 0.90082 0.0
C982 C 0.91451 0.37991 0.89769 0.0
C983 C 0.8844 0.33985 0.89364 0.0
C984 C 0.95005 0.38747 0.90896 0.0
C985 C 0.92565 0.31694 0.91265 0.0
C986 C 0.95537 0.35622 0.91652 0.0
C987 C 0.82958 0.173 0.84198 0.0
C988 C 0.86056 0.2659 0.89538 0.0
C989 C 0.98706 0.25221 0.96255 0.0
C990 C 1.00868 0.26298 0.94107 0.0
C991 C 0.88184 0.1419 0.87033 0.0
C992 C 0.78601 0.98629 0.87661 0.0
C993 C 0.80932 0.96771 0.87734 0.0
C994 C 0.79133 0.92601 0.8754 0.0
C995 C 0.74985 0.90326 0.87233 0.0
C996 C 0.74474 0.96307 0.87314 0.0
C997 C 0.72684 0.92175 0.87098 0.0
C998 C 0.82172 0.11267 0.93062 0.0
C999 C 0.80502 0.0295 0.88088 0.0
H1000 H 0.85696 0.33352 0.88479 0.0
H1001 H 0.97342 0.41773 0.91253 0.0
H1002 H 0.93041 0.29349 0.91893 0.0
H1003 H 0.98262 0.36246 0.92556 0.0
H1004 H 0.84122 0.98553 0.88009 0.0
H1005 H 0.7353 0.87116 0.87073 0.0
H1006 H 0.72637 0.97682 0.87243 0.0
H1007 H 0.69495 0.90392 0.86846 0.0
H1008 H 0.17483 0.92287 0.17237 0.0
H1009 H 0.16701 0.9171 0.09521 0.0
H1010 H 0.20014 0.99456 0.17093 0.0
H1011 H 0.19298 0.98934 0.09362 0.0
H1012 H 0.2898 0.12551 0.10485 0.0
H1013 H 0.25722 0.05282 0.10275 0.0
H1014 H 0.17835 0.04331 0.16018 0.0
H1015 H 0.21023 0.11615 0.16165 0.0
C1016 C 0.17876 0.93709 0.15506 0.0
C1017 C 0.17023 0.91465 0.13388 0.0
C1018 C 0.19296 0.97813 0.15423 0.0
C1019 C 0.19872 0.99789 0.13216 0.0
C1020 C 0.1893 0.97521 0.11092 0.0
C1021 C 0.17471 0.93392 0.11178 0.0
C1022 C 0.26512 0.10779 0.11678 0.0
C1023 C 0.25258 0.12648 0.13344 0.0
C1024 C 0.24646 0.06613 0.11561 0.0
C1025 C 0.21555 0.04208 0.13156 0.0
C1026 C 0.20239 0.06088 0.14783 0.0
C1027 C 0.22041 0.10256 0.14858 0.0
H1028 H 0.26603 0.15127 0.67247 0.0
H1029 H 0.26469 0.14654 0.59524 0.0
H1030 H 0.21875 0.17548 0.67172 0.0
H1031 H 0.21703 0.17077 0.59429 0.0
H1032 H 0.18046 0.26869 0.60601 0.0
H1033 H 0.21801 0.23362 0.6032 0.0
H1034 H 0.15006 0.15778 0.66208 0.0
H1035 H 0.11157 0.19224 0.66426 0.0
C1036 C 0.25548 0.1554 0.6553 0.0
C1037 C 0.27021 0.1486 0.6339 0.0
C1038 C 0.22807 0.16892 0.65485 0.0
C1039 C 0.21417 0.17542 0.63294 0.0
C1040 C 0.22752 0.16671 0.61149 0.0
C1041 C 0.25497 0.15306 0.61198 0.0
C1042 C 0.17326 0.24414 0.6181 0.0
C1043 C 0.14324 0.23321 0.63539 0.0
C1044 C 0.19477 0.22401 0.61651 0.0
C1045 C 0.18768 0.19327 0.63267 0.0
C1046 C 0.15677 0.18168 0.64956 0.0
C1047 C 0.13456 0.20119 0.65075 0.0
H1048 H 0.92894 0.17718 0.10279 0.0
H1049 H 0.93827 0.10965 0.1613 0.0
H1050 H 1.00171 0.21752 0.10084 0.0
H1051 H 1.01111 0.15088 0.15997 0.0
H1052 H 0.12989 0.26965 0.17187 0.0
H1053 H 0.05833 0.22299 0.16993 0.0
H1054 H 0.06613 0.21601 0.09301 0.0
H1055 H 0.13844 0.26255 0.09514 0.0
C1056 C 0.94667 0.17085 0.11512 0.0
C1057 C 0.92798 0.14035 0.13223 0.0
C1058 C 0.98834 0.19396 0.11402 0.0
C1059 C 1.01232 0.18792 0.13048 0.0
C1060 C 0.99354 0.15665 0.14719 0.0
C1061 C 0.95188 0.13287 0.14789 0.0
C1062 C 0.11629 0.25822 0.15453 0.0
C1063 C 0.13948 0.27069 0.13359 0.0
C1064 C 0.07533 0.23123 0.15343 0.0
C1065 C 0.05638 0.21567 0.13133 0.0
C1066 C 0.07973 0.22765 0.11031 0.0
C1067 C 0.121 0.25449 0.11147 0.0
H1068 H 0.75589 0.91604 0.65417 0.0
H1069 H 0.86643 0.92503 0.63076 0.0
H1070 H 0.78555 0.9877 0.65048 0.0
H1071 H 0.89492 0.99697 0.62542 0.0
H1072 H 0.9029 0.12184 0.59909 0.0
H1073 H 0.87679 0.04928 0.59964 0.0
H1074 H 0.84964 0.0464 0.67487 0.0
H1075 H 0.87659 0.11853 0.67445 0.0
C1076 C 0.78649 0.93301 0.64821 0.0
C1077 C 0.80883 0.91417 0.64338 0.0
C1078 C 0.8033 0.97425 0.64582 0.0
C1079 C 0.84259 0.99799 0.63777 0.0
C1080 C 0.86448 0.97934 0.6316 0.0
C1081 C 0.84795 0.93797 0.63457 0.0
C1082 C 0.89113 0.1055 0.61565 0.0
C1083 C 0.89046 0.12545 0.63656 0.0
C1084 C 0.87665 0.06419 0.61604 0.0
C1085 C 0.86087 0.04217 0.63727 0.0
C1086 C 0.86122 0.06249 0.65822 0.0
C1087 C 0.8765 0.1037 0.65796 0.0
H1088 H 0.94546 0.84003 0.15749 0.0
H1089 H 0.87544 0.76556 0.09874 0.0
H1090 H 0.90509 0.87253 0.15777 0.0
H1091 H 0.83586 0.79876 0.09845 0.0
H1092 H 0.79071 0.88948 0.09524 0.0
H1093 H 0.83703 0.86374 0.09184 0.0
H1094 H 0.83468 0.85018 0.16879 0.0
H1095 H 0.78836 0.87533 0.17201 0.0
C1096 C 0.92184 0.83109 0.1444 0.0
C1097 C 0.91343 0.80011 0.12821 0.0
C1098 C 0.89852 0.84948 0.14463 0.0
C1099 C 0.86677 0.83789 0.12834 0.0
C1100 C 0.85978 0.80826 0.11135 0.0
C1101 C 0.88245 0.78922 0.11151 0.0
C1102 C 0.79982 0.88049 0.11133 0.0
C1103 C 0.78493 0.8831 0.13382 0.0
C1104 C 0.82651 0.86601 0.10943 0.0
C1105 C 0.83961 0.85482 0.13006 0.0
C1106 C 0.82556 0.85877 0.15256 0.0
C1107 C 0.79875 0.87288 0.1544 0.0
H1108 H 0.93511 0.77788 0.66858 0.0
H1109 H 0.92226 0.77739 0.59176 0.0
H1110 H 1.00658 0.82418 0.66485 0.0
H1111 H 0.99416 0.82373 0.58784 0.0
H1112 H 0.1299 0.86003 0.59392 0.0
H1113 H 0.05708 0.82183 0.59421 0.0
H1114 H 0.05563 0.89347 0.65304 0.0
H1115 H 0.12861 0.93249 0.65214 0.0
C1116 C 0.94771 0.78776 0.65087 0.0
C1117 C 0.92345 0.77302 0.63042 0.0
C1118 C 0.9886 0.81453 0.64872 0.0
C1119 C 1.00627 0.82762 0.62603 0.0
C1120 C 0.98165 0.8139 0.60556 0.0
C1121 C 0.94056 0.78722 0.60776 0.0
C1122 C 0.11391 0.86786 0.60669 0.0
C1123 C 0.13486 0.89909 0.62307 0.0
C1124 C 0.07218 0.84599 0.60688 0.0
C1125 C 0.0504 0.85405 0.62392 0.0
C1126 C 0.07145 0.88609 0.63988 0.0
C1127 C 0.11319 0.90861 0.63929 0.0
H1128 H 0.13301 0.88962 0.41344 0.0
H1129 H 0.12767 0.88629 0.33622 0.0
H1130 H 0.0611 0.86465 0.4152 0.0
H1131 H 0.05596 0.86109 0.33777 0.0
H1132 H 0.9269 0.76687 0.40522 0.0
H1133 H 0.99958 0.80227 0.40692 0.0
H1134 H 1.00453 0.87727 0.34825 0.0
H1135 H 0.93149 0.84247 0.3472 0.0
C1136 C 0.11631 0.88319 0.39687 0.0
C1137 C 0.13549 0.88834 0.37471 0.0
C1138 C 0.07518 0.8691 0.39783 0.0
C1139 C 0.05249 0.86048 0.37662 0.0
C1140 C 0.07234 0.86757 0.35447 0.0
C1141 C 0.11336 0.88164 0.35355 0.0
C1142 C 0.94362 0.79122 0.39288 0.0
C1143 C 0.92366 0.80182 0.37599 0.0
C1144 C 0.98531 0.81156 0.39383 0.0
C1145 C 1.00814 0.84219 0.37742 0.0
C1146 C 0.98799 0.85343 0.36092 0.0
C1147 C 0.94621 0.83371 0.36038 0.0
H1148 H 0.19176 0.91772 0.90374 0.0
H1149 H 0.11854 0.92399 0.84763 0.0
H1150 H 0.23051 0.99048 0.90533 0.0
H1151 H 0.1581 0.99695 0.84862 0.0
H1152 H 0.27392 0.11864 0.83537 0.0
H1153 H 0.22789 0.04686 0.83717 0.0
H1154 H 0.22808 0.05287 0.91451 0.0
H1155 H 0.27402 0.12511 0.91255 0.0
C1156 C 0.1839 0.93477 0.89182 0.0
C1157 C 0.15223 0.91522 0.8755 0.0
C1158 C 0.20607 0.97647 0.89274 0.0
C1159 C 0.19789 0.99968 0.87686 0.0
C1160 C 0.16555 0.98002 0.86091 0.0
C1161 C 0.14272 0.93828 0.86041 0.0
C1162 C 0.26408 0.10457 0.85275 0.0
C1163 C 0.27864 0.12717 0.87384 0.0
C1164 C 0.23747 0.0635 0.85379 0.0
C1165 C 0.22436 0.04394 0.87599 0.0
C1166 C 0.23793 0.06686 0.89712 0.0
C1167 C 0.26441 0.10814 0.89604 0.0
H1168 H 0.16415 0.25483 0.33689 0.0
H1169 H 0.15696 0.25814 0.41391 0.0
H1170 H 0.18883 0.2081 0.34013 0.0
H1171 H 0.18128 0.21087 0.41737 0.0
H1172 H 0.27994 0.17524 0.41115 0.0
H1173 H 0.24378 0.21173 0.41111 0.0
H1174 H 0.17278 0.14102 0.35133 0.0
H1175 H 0.20834 0.10357 0.35199 0.0
C1176 C 0.16778 0.24535 0.35453 0.0
C1177 C 0.16024 0.26126 0.37517 0.0
C1178 C 0.18153 0.21825 0.35642 0.0
C1179 C 0.18742 0.20583 0.37903 0.0
C1180 C 0.17779 0.22026 0.39968 0.0
C1181 C 0.16405 0.24746 0.39775 0.0
C1182 C 0.2563 0.16729 0.39819 0.0
C1183 C 0.24708 0.13682 0.38147 0.0
C1184 C 0.23551 0.18818 0.39815 0.0
C1185 C 0.20584 0.18001 0.38092 0.0
C1186 C 0.19589 0.14863 0.36461 0.0
C1187 C 0.21604 0.12701 0.36505 0.0
H1188 H 0.12616 0.18378 0.87723 0.0
H1189 H 0.13494 0.29599 0.85793 0.0
H1190 H 0.05391 0.15419 0.88144 0.0
H1191 H 0.0631 0.2651 0.85997 0.0
H1192 H 0.93278 0.17153 0.83305 0.0
H1193 H 1.00506 0.19862 0.83313 0.0
H1194 H 1.00143 0.17463 0.90889 0.0
H1195 H 0.92887 0.14851 0.90895 0.0
C1196 C 0.11316 0.20237 0.87404 0.0
C1197 C 0.13709 0.24241 0.86679 0.0
C1198 C 0.07161 0.18519 0.87632 0.0
C1199 C 0.05293 0.20732 0.8709 0.0
C1200 C 0.07664 0.24728 0.86418 0.0
C1201 C 0.11803 0.26478 0.86264 0.0
C1202 C 0.9475 0.17231 0.84974 0.0
C1203 C 0.9256 0.15927 0.87114 0.0
C1204 C 0.98874 0.18761 0.84976 0.0
C1205 C 1.00879 0.18879 0.87102 0.0
C1206 C 0.98664 0.17399 0.89227 0.0
C1207 C 0.94535 0.15953 0.89236 0.0
H1208 H 0.879 0.12279 0.40484 0.0
H1209 H 0.94017 0.11619 0.3421 0.0
H1210 H 0.84021 0.05 0.40659 0.0
H1211 H 0.90111 0.04331 0.34344 0.0
H1212 H 0.78605 0.92157 0.33443 0.0
H1213 H 0.83281 0.99312 0.33562 0.0
H1214 H 0.83986 0.98748 0.41276 0.0
H1215 H 0.79237 0.91562 0.41137 0.0
C1216 C 0.88434 0.10557 0.39159 0.0
C1217 C 0.91246 0.12487 0.37335 0.0
C1218 C 0.86216 0.06388 0.39255 0.0
C1219 C 0.86696 0.04057 0.37494 0.0
C1220 C 0.89607 0.06019 0.35708 0.0
C1221 C 0.91867 0.10187 0.35636 0.0
C1222 C 0.79763 0.93573 0.35162 0.0
C1223 C 0.78456 0.91345 0.37286 0.0
C1224 C 0.82475 0.97668 0.35233 0.0
C1225 C 0.84011 0.99633 0.37431 0.0
C1226 C 0.82822 0.97354 0.39554 0.0
C1227 C 0.80093 0.93246 0.3948 0.0
H1228 H 0.9065 0.78549 0.9103 0.0
H1229 H 0.89326 0.78275 0.83346 0.0
H1230 H 0.88223 0.83294 0.91327 0.0
H1231 H 0.86885 0.82972 0.83623 0.0
H1232 H 0.85261 0.93665 0.84629 0.0
H1233 H 0.8872 0.89826 0.84602 0.0
H1234 H 0.81899 0.83208 0.90773 0.0
H1235 H 0.78371 0.86952 0.90738 0.0
C1236 C 0.8981 0.79487 0.89409 0.0
C1237 C 0.90029 0.77939 0.87174 0.0
C1238 C 0.8844 0.82217 0.89573 0.0
C1239 C 0.87327 0.83506 0.87499 0.0
C1240 C 0.87735 0.8208 0.85257 0.0
C1241 C 0.89098 0.79357 0.85097 0.0
C1242 C 0.84532 0.91404 0.85986 0.0
C1243 C 0.81529 0.90578 0.87672 0.0
C1244 C 0.86491 0.89187 0.85965 0.0
C1245 C 0.85545 0.86147 0.87661 0.0
C1246 C 0.82685 0.85486 0.89426 0.0
C1247 C 0.80659 0.8763 0.89408 0.0
H1248 H 0.16471 0.72537 0.14631 0.0
H1249 H 0.13275 0.7037 0.07153 0.0
H1250 H 0.16302 0.66097 0.14876 0.0
H1251 H 0.12938 0.63919 0.07418 0.0
H1252 H 0.09289 0.51118 0.09357 0.0
H1253 H 0.08731 0.57027 0.10031 0.0
H1254 H 0.21014 0.63533 0.12257 0.0
H1255 H 0.21653 0.5763 0.11482 0.0
C1256 C 0.15596 0.70626 0.13067 0.0
C1257 C 0.14823 0.71926 0.10879 0.0
C1258 C 0.15547 0.66968 0.13199 0.0
C1259 C 0.14624 0.64508 0.11162 0.0
C1260 C 0.13648 0.65734 0.0902 0.0
C1261 C 0.13817 0.69418 0.0887 0.0
C1262 C 0.11883 0.5379 0.10006 0.0
C1263 C 0.15551 0.53898 0.10306 0.0
C1264 C 0.11543 0.57173 0.10407 0.0
C1265 C 0.1483 0.60756 0.11179 0.0
C1266 C 0.1842 0.60804 0.11672 0.0
C1267 C 0.18782 0.57415 0.11233 0.0
H1268 H 0.6059 0.08929 0.63253 0.0
H1269 H 0.65948 0.19922 0.59262 0.0
H1270 H 0.54326 0.09034 0.6349 0.0
H1271 H 0.59674 0.20005 0.59473 0.0
H1272 H 0.46684 0.15069 0.57016 0.0
H1273 H 0.52941 0.15081 0.57429 0.0
H1274 H 0.51036 0.13278 0.65057 0.0
H1275 H 0.44762 0.13402 0.6465 0.0
C1276 C 0.60454 0.11416 0.62474 0.0
C1277 C 0.63769 0.14422 0.61238 0.0
C1278 C 0.56867 0.11474 0.62613 0.0
C1279 C 0.56488 0.14501 0.61479 0.0
C1280 C 0.59864 0.17611 0.60348 0.0
C1281 C 0.6347 0.17589 0.60245 0.0
C1282 C 0.4757 0.14634 0.58783 0.0
C1283 C 0.45208 0.14206 0.60796 0.0
C1284 C 0.51177 0.14677 0.5902 0.0
C1285 C 0.52526 0.14256 0.61279 0.0
C1286 C 0.50084 0.13634 0.63293 0.0
C1287 C 0.46479 0.13667 0.6306 0.0
H1288 H 0.47892 0.65279 0.11728 0.0
H1289 H 0.54607 0.59524 0.0989 0.0
H1290 H 0.42027 0.58726 0.12529 0.0
H1291 H 0.4874 0.53032 0.106 0.0
H1292 H 0.35629 0.44024 0.07557 0.0
H1293 H 0.42087 0.50108 0.07913 0.0
H1294 H 0.3927 0.5166 0.15172 0.0
H1295 H 0.32818 0.45422 0.1484 0.0
C1296 C 0.48158 0.62642 0.11554 0.0
C1297 C 0.51717 0.62948 0.10695 0.0
C1298 C 0.44792 0.58883 0.12008 0.0
C1299 C 0.4491 0.55358 0.116 0.0
C1300 C 0.48541 0.55685 0.10908 0.0
C1301 C 0.51899 0.59418 0.10489 0.0
C1302 C 0.36448 0.45586 0.09258 0.0
C1303 C 0.33756 0.44204 0.11183 0.0
C1304 C 0.40136 0.49083 0.0946 0.0
C1305 C 0.41183 0.51383 0.11565 0.0
C1306 C 0.38542 0.49954 0.13526 0.0
C1307 C 0.34877 0.46363 0.13347 0.0
H1308 H 0.97085 0.52925 0.59693 0.0
H1309 H 0.84508 0.46378 0.61288 0.0
H1310 H 0.975 0.46926 0.60334 0.0
H1311 H 0.84995 0.40379 0.62039 0.0
H1312 H 0.89562 0.31332 0.64617 0.0
H1313 H 0.89713 0.3776 0.64882 0.0
H1314 H 0.93208 0.40061 0.57454 0.0
H1315 H 0.92893 0.33617 0.57165 0.0
C1316 C 0.94411 0.50225 0.60222 0.0
C1317 C 0.90735 0.50141 0.60381 0.0
C1318 C 0.94668 0.46791 0.60604 0.0
C1319 C 0.91283 0.43175 0.61222 0.0
C1320 C 0.87663 0.43134 0.61576 0.0
C1321 C 0.87387 0.46577 0.61153 0.0
C1322 C 0.90456 0.33262 0.63062 0.0
C1323 C 0.91283 0.32002 0.60877 0.0
C1324 C 0.90495 0.36914 0.63206 0.0
C1325 C 0.91453 0.39406 0.61184 0.0
C1326 C 0.92465 0.38216 0.59043 0.0
C1327 C 0.92311 0.34538 0.5888 0.0
H1328 H 0.60116 0.88827 0.14965 0.0
H1329 H 0.61415 0.92845 0.07641 0.0
H1330 H 0.53904 0.89088 0.15298 0.0
H1331 H 0.55359 0.93271 0.07999 0.0
H1332 H 0.46105 0.96603 0.10044 0.0
H1333 H 0.52568 0.97157 0.10755 0.0
H1334 H 0.46765 0.84708 0.12594 0.0
H1335 H 0.4024 0.84089 0.11786 0.0
C1336 C 0.5916 0.89912 0.13461 0.0
C1337 C 0.61282 0.90883 0.11286 0.0
C1338 C 0.55585 0.90014 0.13642 0.0
C1339 C 0.54138 0.91187 0.1167 0.0
C1340 C 0.56401 0.92373 0.09552 0.0
C1341 C 0.59881 0.92152 0.09349 0.0
C1342 C 0.4618 0.93978 0.10624 0.0
C1343 C 0.42628 0.90274 0.10801 0.0
C1344 C 0.49896 0.94311 0.11045 0.0
C1345 C 0.50182 0.90975 0.11711 0.0
C1346 C 0.46635 0.87339 0.12093 0.0
C1347 C 0.42894 0.86986 0.11636 0.0
H1348 H 0.71673 0.58583 0.56965 0.0
H1349 H 0.73105 0.59896 0.64644 0.0
H1350 H 0.65489 0.52291 0.57482 0.0
H1351 H 0.66786 0.536 0.65167 0.0
H1352 H 0.5274 0.44045 0.64097 0.0
H1353 H 0.5911 0.50328 0.64163 0.0
H1354 H 0.63931 0.45438 0.59103 0.0
H1355 H 0.57573 0.39144 0.59061 0.0
C1356 C 0.70619 0.57562 0.5877 0.0
C1357 C 0.72869 0.59765 0.60761 0.0
C1358 C 0.67093 0.53932 0.59064 0.0
C1359 C 0.65679 0.52399 0.61363 0.0
C1360 C 0.67811 0.54691 0.63371 0.0
C1361 C 0.71406 0.58317 0.63073 0.0
C1362 C 0.55201 0.44282 0.6305 0.0
C1363 C 0.54659 0.41092 0.61578 0.0
C1364 C 0.58845 0.47881 0.63086 0.0
C1365 C 0.62012 0.48404 0.61616 0.0
C1366 C 0.61532 0.45144 0.60237 0.0
C1367 C 0.57909 0.41521 0.60232 0.0
H1368 H 0.33019 0.8866 0.43778 0.0
H1369 H 0.32592 0.90169 0.36138 0.0
H1370 H 0.39259 0.88643 0.43335 0.0
H1371 H 0.38975 0.90284 0.35698 0.0
H1372 H 0.47707 0.84144 0.41544 0.0
H1373 H 0.41266 0.83899 0.41412 0.0
H1374 H 0.4644 0.94545 0.37086 0.0
H1375 H 0.52885 0.94803 0.37237 0.0
C1376 C 0.34296 0.89048 0.42002 0.0
C1377 C 0.32328 0.89461 0.39999 0.0
C1378 C 0.37858 0.89002 0.41747 0.0
C1379 C 0.39589 0.89397 0.39479 0.0
C1380 C 0.37708 0.89957 0.3747 0.0
C1381 C 0.34076 0.89929 0.37723 0.0
C1382 C 0.47442 0.86367 0.40513 0.0
C1383 C 0.50806 0.89489 0.39403 0.0
C1384 C 0.43766 0.86256 0.40456 0.0
C1385 C 0.4335 0.89231 0.39258 0.0
C1386 C 0.46652 0.92206 0.38017 0.0
C1387 C 0.50342 0.92352 0.38106 0.0
H1388 H 0.66166 0.47315 0.91521 0.0
H1389 H 0.60989 0.52438 0.86905 0.0
H1390 H 0.59892 0.40938 0.91432 0.0
H1391 H 0.54728 0.46049 0.86788 0.0
H1392 H 0.45171 0.32089 0.86043 0.0
H1393 H 0.51462 0.38437 0.8556 0.0
H1394 H 0.53083 0.39223 0.93237 0.0
H1395 H 0.468 0.33019 0.93719 0.0
C1396 C 0.6373 0.47045 0.9043 0.0
C1397 C 0.6408 0.50378 0.89218 0.0
C1398 C 0.6012 0.43408 0.90397 0.0
C1399 C 0.56792 0.42996 0.89121 0.0
C1400 C 0.57229 0.46258 0.87781 0.0
C1401 C 0.60816 0.49914 0.87848 0.0
C1402 C 0.46826 0.33678 0.87624 0.0
C1403 C 0.45464 0.32068 0.89923 0.0
C1404 C 0.50445 0.37291 0.87348 0.0
C1405 C 0.52818 0.39293 0.8936 0.0
C1406 C 0.51379 0.37723 0.91649 0.0
C1407 C 0.47755 0.34182 0.91925 0.0
H1408 H 0.20507 0.64931 0.41366 0.0
H1409 H 0.10255 0.59575 0.36704 0.0
H1410 H 0.20789 0.58758 0.41273 0.0
H1411 H 0.10546 0.53409 0.36596 0.0
H1412 H 0.14955 0.43952 0.35903 0.0
H1413 H 0.14891 0.50234 0.35402 0.0
H1414 H 0.15896 0.51972 0.43071 0.0
H1415 H 0.15839 0.45706 0.43568 0.0
C1416 C 0.18389 0.62479 0.40266 0.0
C1417 C 0.15361 0.62743 0.39046 0.0
C1418 C 0.18519 0.58926 0.40231 0.0
C1419 C 0.15657 0.55572 0.38948 0.0
C1420 C 0.12795 0.55931 0.37595 0.0
C1421 C 0.1263 0.59463 0.3766 0.0
C1422 C 0.15066 0.45639 0.37478 0.0
C1423 C 0.15346 0.44308 0.39779 0.0
C1424 C 0.15068 0.4925 0.37192 0.0
C1425 C 0.15467 0.51642 0.39197 0.0
C1426 C 0.15668 0.5025 0.41488 0.0
C1427 C 0.15596 0.46638 0.41774 0.0
H1428 H 0.71739 0.12726 0.93542 0.0
H1429 H 0.73711 0.15126 0.85965 0.0
H1430 H 0.65233 0.12276 0.93189 0.0
H1431 H 0.67219 0.1483 0.85629 0.0
H1432 H 0.58709 0.20408 0.89272 0.0
H1433 H 0.64752 0.19988 0.88563 0.0
H1434 H 0.5822 0.07429 0.90108 0.0
H1435 H 0.52169 0.07778 0.90708 0.0
C1436 C 0.70737 0.13074 0.9179 0.0
C1437 C 0.73201 0.13889 0.89777 0.0
C1438 C 0.67028 0.12843 0.91591 0.0
C1439 C 0.65739 0.13555 0.89388 0.0
C1440 C 0.68151 0.14282 0.8735 0.0
C1441 C 0.71837 0.14405 0.87538 0.0
C1442 C 0.58522 0.17532 0.89376 0.0
C1443 C 0.54948 0.14146 0.90093 0.0
C1444 C 0.61989 0.17296 0.88977 0.0
C1445 C 0.61955 0.13677 0.89298 0.0
C1446 C 0.58337 0.10256 0.89858 0.0
C1447 C 0.54877 0.10475 0.90217 0.0
H1448 H 0.45282 0.51968 0.3692 0.0
H1449 H 0.40062 0.56953 0.41605 0.0
H1450 H 0.51526 0.58365 0.3685 0.0
H1451 H 0.46315 0.63348 0.41554 0.0
H1452 H 0.59348 0.71479 0.438 0.0
H1453 H 0.53097 0.65227 0.43336 0.0
H1454 H 0.54781 0.65848 0.35666 0.0
H1455 H 0.61027 0.72217 0.36131 0.0
C1456 C 0.45443 0.54465 0.37889 0.0
C1457 C 0.42174 0.5396 0.39265 0.0
C1458 C 0.49021 0.58126 0.37849 0.0
C1459 C 0.4944 0.61352 0.3922 0.0
C1460 C 0.46104 0.60903 0.40501 0.0
C1461 C 0.42505 0.57258 0.40509 0.0
C1462 C 0.58415 0.70261 0.42014 0.0
C1463 C 0.60713 0.7233 0.40007 0.0
C1464 C 0.54809 0.66697 0.41746 0.0
C1465 C 0.53397 0.6507 0.39462 0.0
C1466 C 0.55779 0.67033 0.37451 0.0
C1467 C 0.59378 0.7066 0.37717 0.0
H1468 H 0.91518 0.60226 0.85706 0.0
H1469 H 0.90815 0.58763 0.93393 0.0
H1470 H 0.91708 0.53995 0.85291 0.0
H1471 H 0.90848 0.52529 0.92976 0.0
H1472 H 0.85533 0.39373 0.91235 0.0
H1473 H 0.85505 0.45673 0.91009 0.0
H1474 H 0.96279 0.50822 0.86807 0.0
H1475 H 0.96343 0.44535 0.8707 0.0
C1476 C 0.91498 0.58633 0.87304 0.0
C1477 C 0.912 0.60013 0.89587 0.0
C1478 C 0.91561 0.55046 0.87066 0.0
C1479 C 0.91205 0.52731 0.89101 0.0
C1480 C 0.91051 0.54201 0.91374 0.0
C1481 C 0.91069 0.57794 0.91612 0.0
C1482 C 0.87829 0.4181 0.90208 0.0
C1483 C 0.90932 0.41454 0.89169 0.0
C1484 C 0.87838 0.4543 0.90096 0.0
C1485 C 0.90912 0.48754 0.88907 0.0
C1486 C 0.93869 0.48316 0.87728 0.0
C1487 C 0.93901 0.44718 0.87879 0.0
H1488 H 0.1432 0.31471 0.3051 0.0
H1489 H 0.24002 0.43317 0.31898 0.0
H1490 H 0.1566 0.32407 0.26227 0.0
H1491 H 0.25444 0.44273 0.27569 0.0
H1492 H 0.28977 0.41789 0.19931 0.0
H1493 H 0.27784 0.41792 0.2422 0.0
H1494 H 0.15145 0.36218 0.22872 0.0
H1495 H 0.16343 0.36142 0.18567 0.0
C1496 C 0.16715 0.34299 0.29886 0.0
C1497 C 0.18995 0.3735 0.31523 0.0
C1498 C 0.17488 0.34841 0.27429 0.0
C1499 C 0.206 0.38451 0.26539 0.0
C1500 C 0.23007 0.41462 0.28192 0.0
C1501 C 0.22205 0.40916 0.30668 0.0
C1502 C 0.25945 0.4064 0.20544 0.0
C1503 C 0.22749 0.38945 0.18907 0.0
C1504 C 0.25266 0.40653 0.23008 0.0
C1505 C 0.21368 0.3896 0.239 0.0
C1506 C 0.18185 0.37487 0.22248 0.0
C1507 C 0.18868 0.3749 0.19776 0.0
H1508 H 0.89937 0.27959 0.69886 0.0
H1509 H 0.82226 0.15333 0.68791 0.0
H1510 H 0.88647 0.27094 0.74177 0.0
H1511 H 0.80923 0.1446 0.73104 0.0
H1512 H 0.77143 0.14588 0.80788 0.0
H1513 H 0.77884 0.15908 0.76499 0.0
H1514 H 0.90419 0.24216 0.77518 0.0
H1515 H 0.89674 0.22881 0.81832 0.0
C1516 C 0.8792 0.24997 0.70558 0.0
C1517 C 0.86199 0.21707 0.68992 0.0
C1518 C 0.87204 0.24501 0.73026 0.0
C1519 C 0.84719 0.20705 0.73998 0.0
C1520 C 0.82834 0.17436 0.72417 0.0
C1521 C 0.83566 0.17932 0.6994 0.0
C1522 C 0.80059 0.16725 0.80105 0.0
C1523 C 0.83361 0.18608 0.81657 0.0
C1524 C 0.80482 0.17464 0.77638 0.0
C1525 C 0.84215 0.20136 0.76652 0.0
C1526 C 0.87489 0.2216 0.78217 0.0
C1527 C 0.87066 0.21405 0.80693 0.0
H1528 H 0.63854 0.88996 0.19974 0.0
H1529 H 0.68761 0.81297 0.18825 0.0
H1530 H 0.63326 0.87576 0.24247 0.0
H1531 H 0.68245 0.79873 0.23134 0.0
H1532 H 0.64269 0.76007 0.30827 0.0
H1533 H 0.6378 0.76797 0.26532 0.0
H1534 H 0.67888 0.89293 0.27593 0.0
H1535 H 0.68379 0.88498 0.31904 0.0
C1536 C 0.64774 0.8695 0.20632 0.0
C1537 C 0.66372 0.85273 0.19056 0.0
C1538 C 0.64498 0.86163 0.23091 0.0
C1539 C 0.65792 0.83655 0.2405 0.0
C1540 C 0.67197 0.81804 0.22458 0.0
C1541 C 0.67482 0.82604 0.19985 0.0
C1542 C 0.65041 0.78925 0.30151 0.0
C1543 C 0.66396 0.82201 0.31719 0.0
C1544 C 0.64778 0.79376 0.2768 0.0
C1545 C 0.65826 0.83112 0.26703 0.0
C1546 C 0.6702 0.86358 0.28282 0.0
C1547 C 0.67298 0.85907 0.3076 0.0
H1548 H 0.77114 0.6285 0.69747 0.0
H1549 H 0.89673 0.67508 0.68534 0.0
H1550 H 0.78081 0.62503 0.74031 0.0
H1551 H 0.90651 0.67157 0.72847 0.0
H1552 H 0.90643 0.63397 0.8056 0.0
H1553 H 0.89232 0.6277 0.76284 0.0
H1554 H 0.81093 0.67186 0.77336 0.0
H1555 H 0.82517 0.6782 0.81641 0.0
C1556 C 0.80084 0.63753 0.70392 0.0
C1557 C 0.83325 0.6523 0.68792 0.0
C1558 C 0.80639 0.63581 0.72858 0.0
C1559 C 0.84449 0.64849 0.73798 0.0
C1560 C 0.87666 0.66131 0.72186 0.0
C1561 C 0.87109 0.66319 0.69709 0.0
C1562 C 0.88521 0.64207 0.79889 0.0
C1563 C 0.86714 0.65692 0.81452 0.0
C1564 C 0.87733 0.63866 0.77427 0.0
C1565 C 0.85082 0.64964 0.76451 0.0
C1566 C 0.83132 0.66283 0.78025 0.0
C1567 C 0.83938 0.66641 0.80499 0.0
H1568 H 0.24029 0.88653 0.18654 0.0
H1569 H 0.15684 0.76234 0.19997 0.0
H1570 H 0.25289 0.89752 0.22958 0.0
H1571 H 0.16851 0.77353 0.24294 0.0
H1572 H 0.22013 0.80618 0.32037 0.0
H1573 H 0.21484 0.79118 0.27712 0.0
H1574 H 0.21237 0.89926 0.26242 0.0
H1575 H 0.21668 0.9132 0.30507 0.0
C1576 C 0.22518 0.86144 0.19859 0.0
C1577 C 0.19722 0.8237 0.18978 0.0
C1578 C 0.23204 0.86778 0.22332 0.0
C1579 C 0.21121 0.83653 0.23982 0.0
C1580 C 0.18518 0.79826 0.23084 0.0
C1581 C 0.17831 0.79194 0.20615 0.0
C1582 C 0.21827 0.82646 0.30778 0.0
C1583 C 0.22016 0.86159 0.31597 0.0
C1584 C 0.21538 0.81802 0.28305 0.0
C1585 C 0.21428 0.8446 0.26618 0.0
C1586 C 0.21471 0.87888 0.2747 0.0
C1587 C 0.21738 0.88705 0.2992 0.0
H1588 H 0.40553 0.16939 0.82264 0.0
H1589 H 0.39761 0.2732 0.8044 0.0
H1590 H 0.41412 0.15973 0.78057 0.0
H1591 H 0.39982 0.2607 0.76267 0.0
H1592 H 0.40773 0.23858 0.68533 0.0
H1593 H 0.42045 0.25769 0.72718 0.0
H1594 H 0.38845 0.13667 0.74568 0.0
H1595 H 0.38194 0.12021 0.70404 0.0
C1596 C 0.40505 0.18988 0.80964 0.0
C1597 C 0.39918 0.22114 0.81704 0.0
C1598 C 0.40924 0.18399 0.78517 0.0
C1599 C 0.40623 0.20833 0.76725 0.0
C1600 C 0.40249 0.24083 0.77511 0.0
C1601 C 0.40011 0.24761 0.79947 0.0
C1602 C 0.404 0.21634 0.69842 0.0
C1603 C 0.39235 0.17737 0.69117 0.0
C1604 C 0.41072 0.22706 0.72278 0.0
C1605 C 0.40447 0.19872 0.7408 0.0
C1606 C 0.39413 0.16011 0.73312 0.0
C1607 C 0.38922 0.15006 0.70882 0.0
H1608 H 0.37978 0.27518 0.96899 0.0
H1609 H 0.25839 0.20276 0.94555 0.0
H1610 H 0.35758 0.29811 1.00316 0.0
H1611 H 0.23529 0.22434 0.98043 0.0
H1612 H 0.21301 0.30528 0.03311 0.0
H1613 H 0.23164 0.27898 0.99835 0.0
H1614 H 0.32649 0.28064 0.03993 0.0
H1615 H 0.31003 0.3085 0.0732 0.0
C1616 C 0.34811 0.26297 0.97176 0.0
C1617 C 0.32074 0.23606 0.95517 0.0
C1618 C 0.33517 0.27623 0.99133 0.0
C1619 C 0.29434 0.263 0.99495 0.0
C1620 C 0.26689 0.23553 0.97834 0.0
C1621 C 0.28 0.22246 0.95861 0.0
C1622 C 0.23812 0.3005 0.03464 0.0
C1623 C 0.26014 0.30989 0.05613 0.0
C1624 C 0.24861 0.28492 0.01477 0.0
C1625 C 0.28114 0.27801 0.01599 0.0
C1626 C 0.30212 0.28646 0.03773 0.0
C1627 C 0.29214 0.30232 0.05718 0.0
H1628 H 0.04746 0.25928 0.43403 0.0
H1629 H 0.14236 0.34348 0.47935 0.0
H1630 H 1.00343 0.23297 0.46847 0.0
H1631 H 0.09816 0.31721 0.51425 0.0
H1632 H 1.01687 0.24309 0.57525 0.0
H1633 H 0.06144 0.262 0.541 0.0
H1634 H 0.96704 0.25178 0.49504 0.0
H1635 H 0.92244 0.23292 0.52966 0.0
C1636 C 0.05905 0.27202 0.45147 0.0
C1637 C 0.09847 0.30358 0.45387 0.0
C1638 C 0.03361 0.25704 0.47128 0.0
C1639 C 0.04672 0.27319 0.49426 0.0
C1640 C 0.08688 0.3037 0.4969 0.0
C1641 C 0.11247 0.31872 0.47692 0.0
C1642 C 1.00547 0.24468 0.55783 0.0
C1643 C 0.9659 0.23642 0.55529 0.0
C1644 C 0.03123 0.25576 0.53812 0.0
C1645 C 1.01831 0.25898 0.51512 0.0
C1646 C 0.97816 0.24928 0.51239 0.0
C1647 C 0.9523 0.23813 0.53223 0.0
H1648 H 0.74772 0.91822 0.03412 0.0
H1649 H 0.74498 1.01327 0.07292 0.0
H1650 H 0.77311 0.9618 0.99875 0.0
H1651 H 0.77198 0.05634 0.03901 0.0
H1652 H 0.77634 0.11258 0.96735 0.0
H1653 H 0.75364 0.06838 1.00198 0.0
H1654 H 0.82751 1.01955 0.98025 0.0
H1655 H 0.84886 0.06329 0.94493 0.0
C1656 C 0.7524 0.9481 0.03523 0.0
C1657 C 0.74342 0.96149 0.05654 0.0
C1658 C 0.76745 0.9734 0.01501 0.0
C1659 C 0.77425 1.0128 0.01569 0.0
C1660 C 0.76621 0.02611 0.03724 0.0
C1661 C 0.75086 1.00103 0.05705 0.0
C1662 C 0.78854 0.09319 0.97041 0.0
C1663 C 0.81542 0.09236 0.954 0.0
C1664 C 0.77544 0.06756 0.99025 0.0
C1665 C 0.78885 0.04021 0.99429 0.0
C1666 C 0.81621 0.0398 0.97782 0.0
C1667 C 0.82912 0.06541 0.95783 0.0
H1668 H 0.79543 0.77386 0.57529 0.0
H1669 H 0.82529 0.70656 0.52658 0.0
H1670 H 0.77765 0.80179 0.54183 0.0
H1671 H 0.80678 0.73408 0.49269 0.0
H1672 H 0.79482 0.80932 0.43459 0.0
H1673 H 0.82088 0.79019 0.46868 0.0
H1674 H 0.72683 0.78442 0.51306 0.0
H1675 H 0.70125 0.80419 0.4787 0.0
C1676 C 0.79834 0.765 0.55736 0.0
C1677 C 0.81173 0.73764 0.55379 0.0
C1678 C 0.78781 0.78095 0.53805 0.0
C1679 C 0.79003 0.76999 0.51433 0.0
C1680 C 0.80488 0.74369 0.51062 0.0
C1681 C 0.81571 0.72783 0.5301 0.0
C1682 C 0.78006 0.80453 0.45174 0.0
C1683 C 0.74609 0.80856 0.45395 0.0
C1684 C 0.79482 0.79313 0.47131 0.0
C1685 C 0.7759 0.78509 0.49379 0.0
C1686 C 0.74268 0.7907 0.49621 0.0
C1687 C 0.728 0.80232 0.47653 0.0
H1688 H 0.9311 0.74724 0.97032 0.0
H1689 H 1.01626 0.7211 0.93723 0.0
H1690 H 0.97529 0.77345 0.00574 0.0
H1691 H 0.05918 0.74728 0.97135 0.0
H1692 H 0.10366 0.74821 0.04654 0.0
H1693 H 0.05859 0.72633 0.01227 0.0
H1694 H 0.04507 0.82978 0.01952 0.0
H1695 H 0.0907 0.85159 0.05428 0.0
C1696 C 0.95882 0.74683 0.9705 0.0
C1697 C 0.96943 0.73142 0.95074 0.0
C1698 C 0.98435 0.76221 0.99069 0.0
C1699 C 1.02082 0.76221 0.99155 0.0
C1700 C 0.0312 0.74719 0.9717 0.0
C1701 C 1.00616 0.73211 0.95186 0.0
C1702 C 0.09191 0.76683 0.04041 0.0
C1703 C 0.10175 0.80225 0.05253 0.0
C1704 C 0.06575 0.75417 0.02087 0.0
C1705 C 0.04805 0.77626 0.01296 0.0
C1706 C 0.05794 0.81192 0.02513 0.0
C1707 C 0.08466 0.82485 0.04469 0.0
H1708 H 0.24662 0.90912 0.47917 0.0
H1709 H 0.22787 0.99171 0.43741 0.0
H1710 H 0.26885 0.9556 0.51309 0.0
H1711 H 0.25096 0.03871 0.47087 0.0
H1712 H 0.27576 0.10546 0.54482 0.0
H1713 H 0.24332 0.05728 0.51193 0.0
H1714 H 0.32906 1.01806 0.52026 0.0
H1715 H 0.3608 0.06543 0.55256 0.0
C1716 C 0.24598 0.93661 0.47753 0.0
C1717 C 0.2351 0.94656 0.45573 0.0
C1718 C 0.25943 0.96371 0.49679 0.0
C1719 C 0.26252 1.0015 0.49468 0.0
C1720 C 0.249 1.01009 0.47333 0.0
C1721 C 0.23571 0.98308 0.4541 0.0
C1722 C 0.28807 0.08712 0.53918 0.0
C1723 C 0.32077 0.08923 0.55145 0.0
C1724 C 0.26928 0.05917 0.52049 0.0
C1725 C 0.28276 0.03273 0.5138 0.0
C1726 C 0.31677 0.03668 0.52534 0.0
C1727 C 0.33538 0.06436 0.54376 0.0
loop_
_geom_bond_atom_site_label_1
_geom_bond_atom_site_label_2
_geom_bond_distance
_geom_bond_site_symmetry_2
_ccdc_geom_bond_type
Eu0 N31 2.657 . S
Eu0 N38 2.609 . S
Eu0 O44 2.558 . S
Eu0 O45 2.612 . S
Eu0 O47 2.339 . S
Eu0 O48 2.563 . S
Eu0 O49 2.419 . S
Eu0 O51 2.380 . S
Eu0 O52 2.432 . S
Eu0 C64 2.848 . S
C1 C4 1.429 . S
C1 C5 1.411 . S
C1 N8 1.377 . S
C2 C4 1.420 . S
C2 C6 1.423 . S
C2 C14 1.392 . S
C3 C5 1.420 . S
C3 C6 1.351 . S
C3 H26 0.931 . S
C4 C1 1.429 . S
C4 C2 1.420 . S
C4 N12 1.362 . S
C5 C1 1.411 . S
C5 C3 1.420 . S
C5 C10 1.395 . S
C6 C2 1.423 . S
C6 C3 1.351 . S
C6 H18 0.930 . S
C7 C9 1.400 . S
C7 C10 1.386 . S
C7 H19 0.930 . S
N8 C1 1.377 . S
N8 C9 1.321 . S
N8 Eu11 2.609 . S
C9 C7 1.400 . S
C9 N8 1.321 . S
C9 H16 0.930 . S
C10 C5 1.395 . S
C10 C7 1.386 . S
C10 H29 0.930 . S
Eu11 N8 2.609 . S
Eu11 N12 2.657 . S
Eu11 O45 2.380 . S
Eu11 O46 2.432 . S
Eu11 O50 2.558 . S
Eu11 O51 2.612 . S
Eu11 O53 2.339 . S
Eu11 O54 2.563 . S
Eu11 O55 2.419 . S
Eu11 C75 2.848 . S
N12 C4 1.362 . S
N12 Eu11 2.657 . S
N12 C13 1.334 . S
C13 N12 1.334 . S
C13 C15 1.413 . S
C13 H20 0.929 . S
C14 C2 1.392 . S
C14 C15 1.367 . S
C14 H22 0.930 . S
C15 C13 1.413 . S
C15 C14 1.367 . S
C15 H17 0.930 . S
H16 C9 0.930 . S
H17 C15 0.930 . S
H18 C6 0.930 . S
H19 C7 0.930 . S
H20 C13 0.929 . S
H21 C35 0.930 . S
H22 C14 0.930 . S
H23 C41 0.930 . S
H24 C32 0.929 . S
H25 C39 0.930 . S
H26 C3 0.931 . S
H27 C33 0.930 1_655 S
H28 C66 0.930 . S
H29 C10 0.930 . S
H30 C65 0.931 1_655 S
N31 Eu0 2.657 . S
N31 C32 1.334 . S
N31 C36 1.362 . S
C32 H24 0.929 . S
C32 N31 1.334 . S
C32 C35 1.413 . S
C33 H27 0.930 1_455 S
C33 C34 1.392 . S
C33 C35 1.367 . S
C34 C33 1.392 . S
C34 C36 1.420 . S
C34 C66 1.423 1_455 S
C35 H21 0.930 . S
C35 C32 1.413 . S
C35 C33 1.367 . S
C36 N31 1.362 . S
C36 C34 1.420 . S
C36 C40 1.429 . S
H37 C42 0.930 . S
N38 Eu0 2.609 . S
N38 C40 1.377 . S
N38 C41 1.321 . S
C39 H25 0.930 . S
C39 C41 1.400 . S
C39 C42 1.386 . S
C40 C36 1.429 . S
C40 N38 1.377 . S
C40 C43 1.411 . S
C41 H23 0.930 . S
C41 N38 1.321 . S
C41 C39 1.400 . S
C42 H37 0.930 . S
C42 C39 1.386 . S
C42 C43 1.395 . S
C43 C40 1.411 . S
C43 C42 1.395 . S
C43 C65 1.420 . S
O44 Eu0 2.558 . S
O44 C64 1.257 . S
O45 Eu0 2.612 . S
O45 Eu11 2.380 . S
O45 C56 1.276 . S
O46 Eu11 2.432 . S
O46 C63 1.264 . S
O47 Eu0 2.339 . S
O47 C63 1.254 . S
O48 Eu0 2.563 . S
O48 C56 1.235 . S
O49 Eu0 2.419 . S
O49 C64 1.249 . S
O50 Eu11 2.558 . S
O50 C75 1.257 . S
O51 Eu0 2.380 . S
O51 Eu11 2.612 . S
O51 C67 1.276 . S
O52 Eu0 2.432 . S
O52 C74 1.264 . S
O53 Eu11 2.339 . S
O53 C74 1.254 . S
O54 Eu11 2.563 . S
O54 C67 1.235 . S
O55 Eu11 2.419 . S
O55 C75 1.249 . S
C56 O45 1.276 . S
C56 O48 1.235 . S
C57 C59 1.393 . S
C57 C61 1.395 . S
C57 C64 1.492 . S
C58 C59 1.392 . S
C58 C60 1.386 . S
C59 C57 1.393 . S
C59 C58 1.392 . S
C59 H76 0.930 . S
C60 C58 1.386 . S
C60 C62 1.395 . S
C60 H77 0.930 . S
C61 C57 1.395 . S
C61 C62 1.379 . S
C61 H78 0.930 . S
C62 C60 1.395 . S
C62 C61 1.379 . S
C62 H79 0.930 . S
C63 O46 1.264 . S
C63 O47 1.254 . S
C64 Eu0 2.848 . S
C64 O44 1.257 . S
C64 O49 1.249 . S
C64 C57 1.492 . S
C65 H30 0.931 1_455 S
C65 C43 1.420 . S
C65 C66 1.351 1_455 S
C66 H28 0.930 . S
C66 C34 1.423 1_655 S
C66 C65 1.351 1_655 S
C67 O51 1.276 . S
C67 O54 1.235 . S
C68 C69 1.393 . S
C68 C72 1.395 . S
C68 C75 1.492 . S
C69 C68 1.393 . S
C69 C70 1.392 . S
C69 H80 0.930 . S
C70 C69 1.392 . S
C70 C71 1.386 . S
C71 C70 1.386 . S
C71 C73 1.395 . S
C71 H81 0.930 . S
C72 C68 1.395 . S
C72 C73 1.379 . S
C72 H82 0.930 . S
C73 C71 1.395 . S
C73 C72 1.379 . S
C73 H83 0.930 . S
C74 O52 1.264 . S
C74 O53 1.254 . S
C75 Eu11 2.848 . S
C75 O50 1.257 . S
C75 O55 1.249 . S
C75 C68 1.492 . S
H76 C59 0.930 . S
H77 C60 0.930 . S
H78 C61 0.930 . S
H79 C62 0.930 . S
H80 C69 0.930 . S
H81 C71 0.930 . S
H82 C72 0.930 . S
H83 C73 0.930 . S
Eu84 N115 2.657 . S
Eu84 N122 2.609 . S
Eu84 O128 2.558 . S
Eu84 O129 2.612 . S
Eu84 O131 2.339 . S
Eu84 O132 2.563 . S
Eu84 O133 2.419 . S
Eu84 O135 2.380 . S
Eu84 O136 2.432 . S
Eu84 C148 2.848 . S
C85 C88 1.429 . S
C85 C89 1.411 . S
C85 N92 1.377 . S
C86 C88 1.420 . S
C86 C90 1.423 . S
C86 C98 1.392 . S
C87 C89 1.420 . S
C87 C90 1.351 . S
C87 H110 0.931 1_655 S
C88 C85 1.429 . S
C88 C86 1.420 . S
C88 N96 1.362 . S
C89 C85 1.411 . S
C89 C87 1.420 . S
C89 C94 1.395 . S
C90 C86 1.423 . S
C90 C87 1.351 . S
C90 H102 0.930 1_655 S
C91 C93 1.400 . S
C91 C94 1.386 . S
C91 H103 0.930 . S
N92 C85 1.377 . S
N92 C93 1.321 . S
N92 Eu95 2.609 . S
C93 C91 1.400 . S
C93 N92 1.321 . S
C93 H100 0.930 . S
C94 C89 1.395 . S
C94 C91 1.386 . S
C94 H113 0.930 . S
Eu95 N92 2.609 . S
Eu95 N96 2.657 . S
Eu95 O129 2.380 . S
Eu95 O130 2.432 . S
Eu95 O134 2.558 . S
Eu95 O135 2.612 . S
Eu95 O137 2.339 . S
Eu95 O138 2.563 . S
Eu95 O139 2.419 . S
Eu95 C159 2.848 . S
N96 C88 1.362 . S
N96 Eu95 2.657 . S
N96 C97 1.334 . S
C97 N96 1.334 . S
C97 C99 1.413 . S
C97 H104 0.929 . S
C98 C86 1.392 . S
C98 C99 1.367 . S
C98 H106 0.930 . S
C99 C97 1.413 . S
C99 C98 1.367 . S
C99 H101 0.930 . S
H100 C93 0.930 . S
H101 C99 0.930 . S
H102 C90 0.930 1_455 S
H103 C91 0.930 . S
H104 C97 0.929 . S
H105 C119 0.930 . S
H106 C98 0.930 . S
H107 C125 0.930 . S
H108 C116 0.929 . S
H109 C123 0.930 . S
H110 C87 0.931 1_455 S
H111 C117 0.930 1_565 S
H112 C150 0.930 . S
H113 C94 0.930 . S
H114 C149 0.931 1_565 S
N115 Eu84 2.657 . S
N115 C116 1.334 . S
N115 C120 1.362 . S
C116 H108 0.929 . S
C116 N115 1.334 . S
C116 C119 1.413 . S
C117 H111 0.930 1_545 S
C117 C118 1.392 . S
C117 C119 1.367 . S
C118 C117 1.392 . S
C118 C120 1.420 . S
C118 C150 1.423 1_545 S
C119 H105 0.930 . S
C119 C116 1.413 . S
C119 C117 1.367 . S
C120 N115 1.362 . S
C120 C118 1.420 . S
C120 C124 1.429 . S
H121 C126 0.930 . S
N122 Eu84 2.609 . S
N122 C124 1.377 . S
N122 C125 1.321 . S
C123 H109 0.930 . S
C123 C125 1.400 . S
C123 C126 1.386 . S
C124 C120 1.429 . S
C124 N122 1.377 . S
C124 C127 1.411 . S
C125 H107 0.930 . S
C125 N122 1.321 . S
C125 C123 1.400 . S
C126 H121 0.930 . S
C126 C123 1.386 . S
C126 C127 1.395 . S
C127 C124 1.411 . S
C127 C126 1.395 . S
C127 C149 1.420 . S
O128 Eu84 2.558 . S
O128 C148 1.257 . S
O129 Eu84 2.612 . S
O129 Eu95 2.380 . S
O129 C140 1.276 . S
O130 Eu95 2.432 . S
O130 C147 1.264 . S
O131 Eu84 2.339 . S
O131 C147 1.254 . S
O132 Eu84 2.563 . S
O132 C140 1.235 . S
O133 Eu84 2.419 . S
O133 C148 1.249 . S
O134 Eu95 2.558 . S
O134 C159 1.257 . S
O135 Eu84 2.380 . S
O135 Eu95 2.612 . S
O135 C151 1.276 . S
O136 Eu84 2.432 . S
O136 C158 1.264 . S
O137 Eu95 2.339 . S
O137 C158 1.254 . S
O138 Eu95 2.563 . S
O138 C151 1.235 . S
O139 Eu95 2.419 . S
O139 C159 1.249 . S
C140 O129 1.276 . S
C140 O132 1.235 . S
C141 C143 1.393 . S
C141 C145 1.395 . S
C141 C148 1.492 . S
C142 C143 1.392 . S
C142 C144 1.386 . S
C143 C141 1.393 . S
C143 C142 1.392 . S
C143 H160 0.930 . S
C144 C142 1.386 . S
C144 C146 1.395 . S
C144 H161 0.930 . S
C145 C141 1.395 . S
C145 C146 1.379 . S
C145 H162 0.930 . S
C146 C144 1.395 . S
C146 C145 1.379 . S
C146 H163 0.930 . S
C147 O130 1.264 . S
C147 O131 1.254 . S
C148 Eu84 2.848 . S
C148 O128 1.257 . S
C148 O133 1.249 . S
C148 C141 1.492 . S
C149 H114 0.931 1_545 S
C149 C127 1.420 . S
C149 C150 1.351 1_545 S
C150 H112 0.930 . S
C150 C118 1.423 1_565 S
C150 C149 1.351 1_565 S
C151 O135 1.276 . S
C151 O138 1.235 . S
C152 C153 1.393 . S
C152 C156 1.395 . S
C152 C159 1.492 1_455 S
C153 C152 1.393 . S
C153 C154 1.392 . S
C153 H164 0.930 . S
C154 C153 1.392 . S
C154 C155 1.386 . S
C155 C154 1.386 . S
C155 C157 1.395 . S
C155 H165 0.930 . S
C156 C152 1.395 . S
C156 C157 1.379 . S
C156 H166 0.930 . S
C157 C155 1.395 . S
C157 C156 1.379 . S
C157 H167 0.930 . S
C158 O136 1.264 . S
C158 O137 1.254 . S
C159 Eu95 2.848 . S
C159 O134 1.257 . S
C159 O139 1.249 . S
C159 C152 1.492 1_655 S
H160 C143 0.930 . S
H161 C144 0.930 . S
H162 C145 0.930 . S
H163 C146 0.930 . S
H164 C153 0.930 . S
H165 C155 0.930 . S
H166 C156 0.930 . S
H167 C157 0.930 . S
Eu168 N199 2.657 . S
Eu168 N206 2.609 . S
Eu168 O212 2.558 . S
Eu168 O213 2.612 . S
Eu168 O215 2.339 . S
Eu168 O216 2.563 . S
Eu168 O217 2.419 . S
Eu168 O219 2.380 . S
Eu168 O220 2.432 . S
Eu168 C232 2.848 . S
C169 C172 1.429 . S
C169 C173 1.411 . S
C169 N176 1.377 . S
C170 C172 1.420 . S
C170 C174 1.423 . S
C170 C182 1.392 . S
C171 C173 1.420 . S
C171 C174 1.351 . S
C171 H194 0.931 1_565 S
C172 C169 1.429 . S
C172 C170 1.420 . S
C172 N180 1.362 . S
C173 C169 1.411 . S
C173 C171 1.420 . S
C173 C178 1.395 . S
C174 C170 1.423 . S
C174 C171 1.351 . S
C174 H186 0.930 1_565 S
C175 C177 1.400 . S
C175 C178 1.386 . S
C175 H187 0.930 . S
N176 C169 1.377 . S
N176 C177 1.321 . S
N176 Eu179 2.609 . S
C177 C175 1.400 . S
C177 N176 1.321 . S
C177 H184 0.930 . S
C178 C173 1.395 . S
C178 C175 1.386 . S
C178 H197 0.930 . S
Eu179 N176 2.609 . S
Eu179 N180 2.657 . S
Eu179 O213 2.380 . S
Eu179 O214 2.432 . S
Eu179 O218 2.558 . S
Eu179 O219 2.612 . S
Eu179 O221 2.339 . S
Eu179 O222 2.563 . S
Eu179 O223 2.419 . S
Eu179 C243 2.848 . S
N180 C172 1.362 . S
N180 Eu179 2.657 . S
N180 C181 1.334 . S
C181 N180 1.334 . S
C181 C183 1.413 . S
C181 H188 0.929 . S
C182 C170 1.392 . S
C182 C183 1.367 . S
C182 H190 0.930 . S
C183 C181 1.413 . S
C183 C182 1.367 . S
C183 H185 0.930 . S
H184 C177 0.930 . S
H185 C183 0.930 . S
H186 C174 0.930 1_545 S
H187 C175 0.930 . S
H188 C181 0.929 . S
H189 C203 0.930 . S
H190 C182 0.930 . S
H191 C209 0.930 . S
H192 C200 0.929 . S
H193 C207 0.930 . S
H194 C171 0.931 1_545 S
H195 C201 0.930 . S
H196 C234 0.930 . S
H197 C178 0.930 . S
H198 C233 0.931 . S
N199 Eu168 2.657 . S
N199 C200 1.334 . S
N199 C204 1.362 . S
C200 H192 0.929 . S
C200 N199 1.334 . S
C200 C203 1.413 . S
C201 H195 0.930 . S
C201 C202 1.392 . S
C201 C203 1.367 . S
C202 C201 1.392 . S
C202 C204 1.420 . S
C202 C234 1.423 . S
C203 H189 0.930 . S
C203 C200 1.413 . S
C203 C201 1.367 . S
C204 N199 1.362 . S
C204 C202 1.420 . S
C204 C208 1.429 . S
H205 C210 0.930 . S
N206 Eu168 2.609 . S
N206 C208 1.377 . S
N206 C209 1.321 . S
C207 H193 0.930 . S
C207 C209 1.400 . S
C207 C210 1.386 . S
C208 C204 1.429 . S
C208 N206 1.377 . S
C208 C211 1.411 . S
C209 H191 0.930 . S
C209 N206 1.321 . S
C209 C207 1.400 . S
C210 H205 0.930 . S
C210 C207 1.386 . S
C210 C211 1.395 . S
C211 C208 1.411 . S
C211 C210 1.395 . S
C211 C233 1.420 . S
O212 Eu168 2.558 . S
O212 C232 1.257 . S
O213 Eu168 2.612 . S
O213 Eu179 2.380 . S
O213 C224 1.276 . S
O214 Eu179 2.432 . S
O214 C231 1.264 . S
O215 Eu168 2.339 . S
O215 C231 1.254 . S
O216 Eu168 2.563 . S
O216 C224 1.235 . S
O217 Eu168 2.419 . S
O217 C232 1.249 . S
O218 Eu179 2.558 . S
O218 C243 1.257 . S
O219 Eu168 2.380 . S
O219 Eu179 2.612 . S
O219 C235 1.276 . S
O220 Eu168 2.432 . S
O220 C242 1.264 . S
O221 Eu179 2.339 . S
O221 C242 1.254 . S
O222 Eu179 2.563 . S
O222 C235 1.235 . S
O223 Eu179 2.419 . S
O223 C243 1.249 . S
C224 O213 1.276 . S
C224 O216 1.235 . S
C225 C227 1.393 . S
C225 C229 1.395 . S
C225 C232 1.492 . S
C226 C227 1.392 . S
C226 C228 1.386 . S
C227 C225 1.393 . S
C227 C226 1.392 . S
C227 H244 0.930 . S
C228 C226 1.386 . S
C228 C230 1.395 . S
C228 H245 0.930 . S
C229 C225 1.395 . S
C229 C230 1.379 . S
C229 H246 0.930 . S
C230 C228 1.395 . S
C230 C229 1.379 . S
C230 H247 0.930 . S
C231 O214 1.264 . S
C231 O215 1.254 . S
C232 Eu168 2.848 . S
C232 O212 1.257 . S
C232 O217 1.249 . S
C232 C225 1.492 . S
C233 H198 0.931 . S
C233 C211 1.420 . S
C233 C234 1.351 . S
C234 H196 0.930 . S
C234 C202 1.423 . S
C234 C233 1.351 . S
C235 O219 1.276 . S
C235 O222 1.235 . S
C236 C237 1.393 . S
C236 C240 1.395 . S
C236 C243 1.492 1_545 S
C237 C236 1.393 . S
C237 C238 1.392 . S
C237 H248 0.930 . S
C238 C237 1.392 . S
C238 C239 1.386 . S
C239 C238 1.386 . S
C239 C241 1.395 . S
C239 H249 0.930 . S
C240 C236 1.395 . S
C240 C241 1.379 . S
C240 H250 0.930 . S
C241 C239 1.395 . S
C241 C240 1.379 . S
C241 H251 0.930 . S
C242 O220 1.264 . S
C242 O221 1.254 . S
C243 Eu179 2.848 . S
C243 O218 1.257 . S
C243 O223 1.249 . S
C243 C236 1.492 1_565 S
H244 C227 0.930 . S
H245 C228 0.930 . S
H246 C229 0.930 . S
H247 C230 0.930 . S
H248 C237 0.930 . S
H249 C239 0.930 . S
H250 C240 0.930 . S
H251 C241 0.930 . S
Eu252 N283 2.657 . S
Eu252 N290 2.609 . S
Eu252 O296 2.558 . S
Eu252 O297 2.612 . S
Eu252 O299 2.339 . S
Eu252 O300 2.563 . S
Eu252 O301 2.419 . S
Eu252 O303 2.380 . S
Eu252 O304 2.432 . S
Eu252 C316 2.848 . S
C253 C256 1.429 . S
C253 C257 1.411 . S
C253 N260 1.377 . S
C254 C256 1.420 . S
C254 C258 1.423 . S
C254 C266 1.392 . S
C255 C257 1.420 . S
C255 C258 1.351 . S
C255 H278 0.931 . S
C256 C253 1.429 . S
C256 C254 1.420 . S
C256 N264 1.362 . S
C257 C253 1.411 . S
C257 C255 1.420 . S
C257 C262 1.395 . S
C258 C254 1.423 . S
C258 C255 1.351 . S
C258 H270 0.930 . S
C259 C261 1.400 . S
C259 C262 1.386 . S
C259 H271 0.930 . S
N260 C253 1.377 . S
N260 C261 1.321 . S
N260 Eu263 2.609 . S
C261 C259 1.400 . S
C261 N260 1.321 . S
C261 H268 0.930 . S
C262 C257 1.395 . S
C262 C259 1.386 . S
C262 H281 0.930 . S
Eu263 N260 2.609 . S
Eu263 N264 2.657 . S
Eu263 O297 2.380 . S
Eu263 O298 2.432 . S
Eu263 O302 2.558 . S
Eu263 O303 2.612 . S
Eu263 O305 2.339 . S
Eu263 O306 2.563 . S
Eu263 O307 2.419 . S
Eu263 C327 2.848 . S
N264 C256 1.362 . S
N264 Eu263 2.657 . S
N264 C265 1.334 . S
C265 N264 1.334 . S
C265 C267 1.413 . S
C265 H272 0.929 . S
C266 C254 1.392 . S
C266 C267 1.367 . S
C266 H274 0.930 . S
C267 C265 1.413 . S
C267 C266 1.367 . S
C267 H269 0.930 . S
H268 C261 0.930 . S
H269 C267 0.930 . S
H270 C258 0.930 . S
H271 C259 0.930 . S
H272 C265 0.929 . S
H273 C287 0.930 . S
H274 C266 0.930 . S
H275 C293 0.930 . S
H276 C284 0.929 . S
H277 C291 0.930 . S
H278 C255 0.931 . S
H279 C285 0.930 1_455 S
H280 C318 0.930 . S
H281 C262 0.930 . S
H282 C317 0.931 1_455 S
N283 Eu252 2.657 . S
N283 C284 1.334 . S
N283 C288 1.362 . S
C284 H276 0.929 . S
C284 N283 1.334 . S
C284 C287 1.413 . S
C285 H279 0.930 1_655 S
C285 C286 1.392 . S
C285 C287 1.367 . S
C286 C285 1.392 . S
C286 C288 1.420 . S
C286 C318 1.423 1_655 S
C287 H273 0.930 . S
C287 C284 1.413 . S
C287 C285 1.367 . S
C288 N283 1.362 . S
C288 C286 1.420 . S
C288 C292 1.429 . S
H289 C294 0.930 . S
N290 Eu252 2.609 . S
N290 C292 1.377 . S
N290 C293 1.321 . S
C291 H277 0.930 . S
C291 C293 1.400 . S
C291 C294 1.386 . S
C292 C288 1.429 . S
C292 N290 1.377 . S
C292 C295 1.411 . S
C293 H275 0.930 . S
C293 N290 1.321 . S
C293 C291 1.400 . S
C294 H289 0.930 . S
C294 C291 1.386 . S
C294 C295 1.395 . S
C295 C292 1.411 . S
C295 C294 1.395 . S
C295 C317 1.420 . S
O296 Eu252 2.558 . S
O296 C316 1.257 . S
O297 Eu252 2.612 . S
O297 Eu263 2.380 . S
O297 C308 1.276 . S
O298 Eu263 2.432 . S
O298 C315 1.264 . S
O299 Eu252 2.339 . S
O299 C315 1.254 . S
O300 Eu252 2.563 . S
O300 C308 1.235 . S
O301 Eu252 2.419 . S
O301 C316 1.249 . S
O302 Eu263 2.558 . S
O302 C327 1.257 . S
O303 Eu252 2.380 . S
O303 Eu263 2.612 . S
O303 C319 1.276 . S
O304 Eu252 2.432 . S
O304 C326 1.264 . S
O305 Eu263 2.339 . S
O305 C326 1.254 . S
O306 Eu263 2.563 . S
O306 C319 1.235 . S
O307 Eu263 2.419 . S
O307 C327 1.249 . S
C308 O297 1.276 . S
C308 O300 1.235 . S
C309 C311 1.393 . S
C309 C313 1.395 . S
C309 C316 1.492 . S
C310 C311 1.392 . S
C310 C312 1.386 . S
C311 C309 1.393 . S
C311 C310 1.392 . S
C311 H328 0.930 . S
C312 C310 1.386 . S
C312 C314 1.395 . S
C312 H329 0.930 . S
C313 C309 1.395 . S
C313 C314 1.379 . S
C313 H330 0.930 . S
C314 C312 1.395 . S
C314 C313 1.379 . S
C314 H331 0.930 . S
C315 O298 1.264 . S
C315 O299 1.254 . S
C316 Eu252 2.848 . S
C316 O296 1.257 . S
C316 O301 1.249 . S
C316 C309 1.492 . S
C317 H282 0.931 1_655 S
C317 C295 1.420 . S
C317 C318 1.351 1_655 S
C318 H280 0.930 . S
C318 C286 1.423 1_455 S
C318 C317 1.351 1_455 S
C319 O303 1.276 . S
C319 O306 1.235 . S
C320 C321 1.393 . S
C320 C324 1.395 . S
C320 C327 1.492 . S
C321 C320 1.393 . S
C321 C322 1.392 . S
C321 H332 0.930 . S
C322 C321 1.392 . S
C322 C323 1.386 . S
C323 C322 1.386 . S
C323 C325 1.395 . S
C323 H333 0.930 . S
C324 C320 1.395 . S
C324 C325 1.379 . S
C324 H334 0.930 . S
C325 C323 1.395 . S
C325 C324 1.379 . S
C325 H335 0.930 . S
C326 O304 1.264 . S
C326 O305 1.254 . S
C327 Eu263 2.848 . S
C327 O302 1.257 . S
C327 O307 1.249 . S
C327 C320 1.492 . S
H328 C311 0.930 . S
H329 C312 0.930 . S
H330 C313 0.930 . S
H331 C314 0.930 . S
H332 C321 0.930 . S
H333 C323 0.930 . S
H334 C324 0.930 . S
H335 C325 0.930 . S
Eu336 N367 2.657 . S
Eu336 N374 2.609 . S
Eu336 O380 2.558 . S
Eu336 O381 2.612 . S
Eu336 O383 2.339 . S
Eu336 O384 2.563 . S
Eu336 O385 2.419 . S
Eu336 O387 2.380 . S
Eu336 O388 2.432 . S
Eu336 C400 2.848 . S
C337 C340 1.429 . S
C337 C341 1.411 . S
C337 N344 1.377 . S
C338 C340 1.420 . S
C338 C342 1.423 . S
C338 C350 1.392 . S
C339 C341 1.420 . S
C339 C342 1.351 . S
C339 H362 0.931 1_455 S
C340 C337 1.429 . S
C340 C338 1.420 . S
C340 N348 1.362 . S
C341 C337 1.411 . S
C341 C339 1.420 . S
C341 C346 1.395 . S
C342 C338 1.423 . S
C342 C339 1.351 . S
C342 H354 0.930 1_455 S
C343 C345 1.400 . S
C343 C346 1.386 . S
C343 H355 0.930 . S
N344 C337 1.377 . S
N344 C345 1.321 . S
N344 Eu347 2.609 . S
C345 C343 1.400 . S
C345 N344 1.321 . S
C345 H352 0.930 . S
C346 C341 1.395 . S
C346 C343 1.386 . S
C346 H365 0.930 . S
Eu347 N344 2.609 . S
Eu347 N348 2.657 . S
Eu347 O381 2.380 . S
Eu347 O382 2.432 . S
Eu347 O386 2.558 . S
Eu347 O387 2.612 . S
Eu347 O389 2.339 . S
Eu347 O390 2.563 . S
Eu347 O391 2.419 . S
Eu347 C411 2.848 . S
N348 C340 1.362 . S
N348 Eu347 2.657 . S
N348 C349 1.334 . S
C349 N348 1.334 . S
C349 C351 1.413 . S
C349 H356 0.929 . S
C350 C338 1.392 . S
C350 C351 1.367 . S
C350 H358 0.930 . S
C351 C349 1.413 . S
C351 C350 1.367 . S
C351 H353 0.930 . S
H352 C345 0.930 . S
H353 C351 0.930 . S
H354 C342 0.930 1_655 S
H355 C343 0.930 . S
H356 C349 0.929 . S
H357 C371 0.930 . S
H358 C350 0.930 . S
H359 C377 0.930 . S
H360 C368 0.929 . S
H361 C375 0.930 . S
H362 C339 0.931 1_655 S
H363 C369 0.930 1_545 S
H364 C402 0.930 . S
H365 C346 0.930 . S
H366 C401 0.931 1_545 S
N367 Eu336 2.657 . S
N367 C368 1.334 . S
N367 C372 1.362 . S
C368 H360 0.929 . S
C368 N367 1.334 . S
C368 C371 1.413 . S
C369 H363 0.930 1_565 S
C369 C370 1.392 . S
C369 C371 1.367 . S
C370 C369 1.392 . S
C370 C372 1.420 . S
C370 C402 1.423 1_565 S
C371 H357 0.930 . S
C371 C368 1.413 . S
C371 C369 1.367 . S
C372 N367 1.362 . S
C372 C370 1.420 . S
C372 C376 1.429 . S
H373 C378 0.930 . S
N374 Eu336 2.609 . S
N374 C376 1.377 . S
N374 C377 1.321 . S
C375 H361 0.930 . S
C375 C377 1.400 . S
C375 C378 1.386 . S
C376 C372 1.429 . S
C376 N374 1.377 . S
C376 C379 1.411 . S
C377 H359 0.930 . S
C377 N374 1.321 . S
C377 C375 1.400 . S
C378 H373 0.930 . S
C378 C375 1.386 . S
C378 C379 1.395 . S
C379 C376 1.411 . S
C379 C378 1.395 . S
C379 C401 1.420 . S
O380 Eu336 2.558 . S
O380 C400 1.257 . S
O381 Eu336 2.612 . S
O381 Eu347 2.380 . S
O381 C392 1.276 . S
O382 Eu347 2.432 . S
O382 C399 1.264 . S
O383 Eu336 2.339 . S
O383 C399 1.254 . S
O384 Eu336 2.563 . S
O384 C392 1.235 . S
O385 Eu336 2.419 . S
O385 C400 1.249 . S
O386 Eu347 2.558 . S
O386 C411 1.257 . S
O387 Eu336 2.380 . S
O387 Eu347 2.612 . S
O387 C403 1.276 . S
O388 Eu336 2.432 . S
O388 C410 1.264 . S
O389 Eu347 2.339 . S
O389 C410 1.254 . S
O390 Eu347 2.563 . S
O390 C403 1.235 . S
O391 Eu347 2.419 . S
O391 C411 1.249 . S
C392 O381 1.276 . S
C392 O384 1.235 . S
C393 C395 1.393 . S
C393 C397 1.395 . S
C393 C400 1.492 . S
C394 C395 1.392 . S
C394 C396 1.386 . S
C395 C393 1.393 . S
C395 C394 1.392 . S
C395 H412 0.930 . S
C396 C394 1.386 . S
C396 C398 1.395 . S
C396 H413 0.930 . S
C397 C393 1.395 . S
C397 C398 1.379 . S
C397 H414 0.930 . S
C398 C396 1.395 . S
C398 C397 1.379 . S
C398 H415 0.930 . S
C399 O382 1.264 . S
C399 O383 1.254 . S
C400 Eu336 2.848 . S
C400 O380 1.257 . S
C400 O385 1.249 . S
C400 C393 1.492 . S
C401 H366 0.931 1_565 S
C401 C379 1.420 . S
C401 C402 1.351 1_565 S
C402 H364 0.930 . S
C402 C370 1.423 1_545 S
C402 C401 1.351 1_545 S
C403 O387 1.276 . S
C403 O390 1.235 . S
C404 C405 1.393 . S
C404 C408 1.395 . S
C404 C411 1.492 1_655 S
C405 C404 1.393 . S
C405 C406 1.392 . S
C405 H416 0.930 . S
C406 C405 1.392 . S
C406 C407 1.386 . S
C407 C406 1.386 . S
C407 C409 1.395 . S
C407 H417 0.930 . S
C408 C404 1.395 . S
C408 C409 1.379 . S
C408 H418 0.930 . S
C409 C407 1.395 . S
C409 C408 1.379 . S
C409 H419 0.930 . S
C410 O388 1.264 . S
C410 O389 1.254 . S
C411 Eu347 2.848 . S
C411 O386 1.257 . S
C411 O391 1.249 . S
C411 C404 1.492 1_455 S
H412 C395 0.930 . S
H413 C396 0.930 . S
H414 C397 0.930 . S
H415 C398 0.930 . S
H416 C405 0.930 . S
H417 C407 0.930 . S
H418 C408 0.930 . S
H419 C409 0.930 . S
Eu420 N451 2.657 . S
Eu420 N458 2.609 . S
Eu420 O464 2.558 . S
Eu420 O465 2.612 . S
Eu420 O467 2.339 . S
Eu420 O468 2.563 . S
Eu420 O469 2.419 . S
Eu420 O471 2.380 . S
Eu420 O472 2.432 . S
Eu420 C484 2.848 . S
C421 C424 1.429 . S
C421 C425 1.411 . S
C421 N428 1.377 . S
C422 C424 1.420 . S
C422 C426 1.423 . S
C422 C434 1.392 . S
C423 C425 1.420 . S
C423 C426 1.351 . S
C423 H446 0.931 1_545 S
C424 C421 1.429 . S
C424 C422 1.420 . S
C424 N432 1.362 . S
C425 C421 1.411 . S
C425 C423 1.420 . S
C425 C430 1.395 . S
C426 C422 1.423 . S
C426 C423 1.351 . S
C426 H438 0.930 1_545 S
C427 C429 1.400 . S
C427 C430 1.386 . S
C427 H439 0.930 . S
N428 C421 1.377 . S
N428 C429 1.321 . S
N428 Eu431 2.609 . S
C429 C427 1.400 . S
C429 N428 1.321 . S
C429 H436 0.930 . S
C430 C425 1.395 . S
C430 C427 1.386 . S
C430 H449 0.930 . S
Eu431 N428 2.609 . S
Eu431 N432 2.657 . S
Eu431 O465 2.380 . S
Eu431 O466 2.432 . S
Eu431 O470 2.558 . S
Eu431 O471 2.612 . S
Eu431 O473 2.339 . S
Eu431 O474 2.563 . S
Eu431 O475 2.419 . S
Eu431 C495 2.848 . S
N432 C424 1.362 . S
N432 Eu431 2.657 . S
N432 C433 1.334 . S
C433 N432 1.334 . S
C433 C435 1.413 . S
C433 H440 0.929 . S
C434 C422 1.392 . S
C434 C435 1.367 . S
C434 H442 0.930 . S
C435 C433 1.413 . S
C435 C434 1.367 . S
C435 H437 0.930 . S
H436 C429 0.930 . S
H437 C435 0.930 . S
H438 C426 0.930 1_565 S
H439 C427 0.930 . S
H440 C433 0.929 . S
H441 C455 0.930 . S
H442 C434 0.930 . S
H443 C461 0.930 . S
H444 C452 0.929 . S
H445 C459 0.930 . S
H446 C423 0.931 1_565 S
H447 C453 0.930 . S
H448 C486 0.930 . S
H449 C430 0.930 . S
H450 C485 0.931 . S
N451 Eu420 2.657 . S
N451 C452 1.334 . S
N451 C456 1.362 . S
C452 H444 0.929 . S
C452 N451 1.334 . S
C452 C455 1.413 . S
C453 H447 0.930 . S
C453 C454 1.392 . S
C453 C455 1.367 . S
C454 C453 1.392 . S
C454 C456 1.420 . S
C454 C486 1.423 . S
C455 H441 0.930 . S
C455 C452 1.413 . S
C455 C453 1.367 . S
C456 N451 1.362 . S
C456 C454 1.420 . S
C456 C460 1.429 . S
H457 C462 0.930 . S
N458 Eu420 2.609 . S
N458 C460 1.377 . S
N458 C461 1.321 . S
C459 H445 0.930 . S
C459 C461 1.400 . S
C459 C462 1.386 . S
C460 C456 1.429 . S
C460 N458 1.377 . S
C460 C463 1.411 . S
C461 H443 0.930 . S
C461 N458 1.321 . S
C461 C459 1.400 . S
C462 H457 0.930 . S
C462 C459 1.386 . S
C462 C463 1.395 . S
C463 C460 1.411 . S
C463 C462 1.395 . S
C463 C485 1.420 . S
O464 Eu420 2.558 . S
O464 C484 1.257 . S
O465 Eu420 2.612 . S
O465 Eu431 2.380 . S
O465 C476 1.276 . S
O466 Eu431 2.432 . S
O466 C483 1.264 . S
O467 Eu420 2.339 . S
O467 C483 1.254 . S
O468 Eu420 2.563 . S
O468 C476 1.235 . S
O469 Eu420 2.419 . S
O469 C484 1.249 . S
O470 Eu431 2.558 . S
O470 C495 1.257 . S
O471 Eu420 2.380 . S
O471 Eu431 2.612 . S
O471 C487 1.276 . S
O472 Eu420 2.432 . S
O472 C494 1.264 . S
O473 Eu431 2.339 . S
O473 C494 1.254 . S
O474 Eu431 2.563 . S
O474 C487 1.235 . S
O475 Eu431 2.419 . S
O475 C495 1.249 . S
C476 O465 1.276 . S
C476 O468 1.235 . S
C477 C479 1.393 . S
C477 C481 1.395 . S
C477 C484 1.492 . S
C478 C479 1.392 . S
C478 C480 1.386 . S
C479 C477 1.393 . S
C479 C478 1.392 . S
C479 H496 0.930 . S
C480 C478 1.386 . S
C480 C482 1.395 . S
C480 H497 0.930 . S
C481 C477 1.395 . S
C481 C482 1.379 . S
C481 H498 0.930 . S
C482 C480 1.395 . S
C482 C481 1.379 . S
C482 H499 0.930 . S
C483 O466 1.264 . S
C483 O467 1.254 . S
C484 Eu420 2.848 . S
C484 O464 1.257 . S
C484 O469 1.249 . S
C484 C477 1.492 . S
C485 H450 0.931 . S
C485 C463 1.420 . S
C485 C486 1.351 . S
C486 H448 0.930 . S
C486 C454 1.423 . S
C486 C485 1.351 . S
C487 O471 1.276 . S
C487 O474 1.235 . S
C488 C489 1.393 . S
C488 C492 1.395 . S
C488 C495 1.492 1_565 S
C489 C488 1.393 . S
C489 C490 1.392 . S
C489 H500 0.930 . S
C490 C489 1.392 . S
C490 C491 1.386 . S
C491 C490 1.386 . S
C491 C493 1.395 . S
C491 H501 0.930 . S
C492 C488 1.395 . S
C492 C493 1.379 . S
C492 H502 0.930 . S
C493 C491 1.395 . S
C493 C492 1.379 . S
C493 H503 0.930 . S
C494 O472 1.264 . S
C494 O473 1.254 . S
C495 Eu431 2.848 . S
C495 O470 1.257 . S
C495 O475 1.249 . S
C495 C488 1.492 1_545 S
H496 C479 0.930 . S
H497 C480 0.930 . S
H498 C481 0.930 . S
H499 C482 0.930 . S
H500 C489 0.930 . S
H501 C491 0.930 . S
H502 C492 0.930 . S
H503 C493 0.930 . S
Eu504 N535 2.657 . S
Eu504 N542 2.609 . S
Eu504 O548 2.558 . S
Eu504 O549 2.612 . S
Eu504 O551 2.339 . S
Eu504 O552 2.563 . S
Eu504 O553 2.419 . S
Eu504 O555 2.380 . S
Eu504 O556 2.432 . S
Eu504 C568 2.848 . S
C505 C508 1.429 . S
C505 C509 1.411 . S
C505 N512 1.377 . S
C506 C508 1.420 . S
C506 C510 1.423 . S
C506 C518 1.392 . S
C507 C509 1.420 . S
C507 C510 1.351 . S
C507 H530 0.931 . S
C508 C505 1.429 . S
C508 C506 1.420 . S
C508 N516 1.362 . S
C509 C505 1.411 . S
C509 C507 1.420 . S
C509 C514 1.395 . S
C510 C506 1.423 . S
C510 C507 1.351 . S
C510 H522 0.930 . S
C511 C513 1.400 . S
C511 C514 1.386 . S
C511 H523 0.930 . S
N512 C505 1.377 . S
N512 C513 1.321 . S
N512 Eu515 2.609 . S
C513 C511 1.400 . S
C513 N512 1.321 . S
C513 H520 0.930 . S
C514 C509 1.395 . S
C514 C511 1.386 . S
C514 H533 0.930 . S
Eu515 N512 2.609 . S
Eu515 N516 2.657 . S
Eu515 O549 2.380 . S
Eu515 O550 2.432 . S
Eu515 O554 2.558 . S
Eu515 O555 2.612 . S
Eu515 O557 2.339 . S
Eu515 O558 2.563 . S
Eu515 O559 2.419 . S
Eu515 C579 2.848 . S
N516 C508 1.362 . S
N516 Eu515 2.657 . S
N516 C517 1.334 . S
C517 N516 1.334 . S
C517 C519 1.413 . S
C517 H524 0.929 . S
C518 C506 1.392 . S
C518 C519 1.367 . S
C518 H526 0.930 . S
C519 C517 1.413 . S
C519 C518 1.367 . S
C519 H521 0.930 . S
H520 C513 0.930 . S
H521 C519 0.930 . S
H522 C510 0.930 . S
H523 C511 0.930 . S
H524 C517 0.929 . S
H525 C539 0.930 . S
H526 C518 0.930 . S
H527 C545 0.930 . S
H528 C536 0.929 . S
H529 C543 0.930 . S
H530 C507 0.931 . S
H531 C537 0.930 1_545 S
H532 C570 0.930 . S
H533 C514 0.930 . S
H534 C569 0.931 1_545 S
N535 Eu504 2.657 . S
N535 C536 1.334 . S
N535 C540 1.362 . S
C536 H528 0.929 . S
C536 N535 1.334 . S
C536 C539 1.413 . S
C537 H531 0.930 1_565 S
C537 C538 1.392 . S
C537 C539 1.367 . S
C538 C537 1.392 . S
C538 C540 1.420 . S
C538 C570 1.423 1_565 S
C539 H525 0.930 . S
C539 C536 1.413 . S
C539 C537 1.367 . S
C540 N535 1.362 . S
C540 C538 1.420 . S
C540 C544 1.429 . S
H541 C546 0.930 . S
N542 Eu504 2.609 . S
N542 C544 1.377 . S
N542 C545 1.321 . S
C543 H529 0.930 . S
C543 C545 1.400 . S
C543 C546 1.386 . S
C544 C540 1.429 . S
C544 N542 1.377 . S
C544 C547 1.411 . S
C545 H527 0.930 . S
C545 N542 1.321 . S
C545 C543 1.400 . S
C546 H541 0.930 . S
C546 C543 1.386 . S
C546 C547 1.395 . S
C547 C544 1.411 . S
C547 C546 1.395 . S
C547 C569 1.420 . S
O548 Eu504 2.558 . S
O548 C568 1.257 . S
O549 Eu504 2.612 . S
O549 Eu515 2.380 . S
O549 C560 1.276 . S
O550 Eu515 2.432 . S
O550 C567 1.264 . S
O551 Eu504 2.339 . S
O551 C567 1.254 . S
O552 Eu504 2.563 . S
O552 C560 1.235 . S
O553 Eu504 2.419 . S
O553 C568 1.249 . S
O554 Eu515 2.558 . S
O554 C579 1.257 . S
O555 Eu504 2.380 . S
O555 Eu515 2.612 . S
O555 C571 1.276 . S
O556 Eu504 2.432 . S
O556 C578 1.264 . S
O557 Eu515 2.339 . S
O557 C578 1.254 . S
O558 Eu515 2.563 . S
O558 C571 1.235 . S
O559 Eu515 2.419 . S
O559 C579 1.249 . S
C560 O549 1.276 . S
C560 O552 1.235 . S
C561 C563 1.393 . S
C561 C565 1.395 . S
C561 C568 1.492 . S
C562 C563 1.392 . S
C562 C564 1.386 . S
C563 C561 1.393 . S
C563 C562 1.392 . S
C563 H580 0.930 . S
C564 C562 1.386 . S
C564 C566 1.395 . S
C564 H581 0.930 . S
C565 C561 1.395 . S
C565 C566 1.379 . S
C565 H582 0.930 . S
C566 C564 1.395 . S
C566 C565 1.379 . S
C566 H583 0.930 . S
C567 O550 1.264 . S
C567 O551 1.254 . S
C568 Eu504 2.848 . S
C568 O548 1.257 . S
C568 O553 1.249 . S
C568 C561 1.492 . S
C569 H534 0.931 1_565 S
C569 C547 1.420 . S
C569 C570 1.351 1_565 S
C570 H532 0.930 . S
C570 C538 1.423 1_545 S
C570 C569 1.351 1_545 S
C571 O555 1.276 . S
C571 O558 1.235 . S
C572 C573 1.393 . S
C572 C576 1.395 . S
C572 C579 1.492 . S
C573 C572 1.393 . S
C573 C574 1.392 . S
C573 H584 0.930 . S
C574 C573 1.392 . S
C574 C575 1.386 . S
C575 C574 1.386 . S
C575 C577 1.395 . S
C575 H585 0.930 . S
C576 C572 1.395 . S
C576 C577 1.379 . S
C576 H586 0.930 . S
C577 C575 1.395 . S
C577 C576 1.379 . S
C577 H587 0.930 . S
C578 O556 1.264 . S
C578 O557 1.254 . S
C579 Eu515 2.848 . S
C579 O554 1.257 . S
C579 O559 1.249 . S
C579 C572 1.492 . S
H580 C563 0.930 . S
H581 C564 0.930 . S
H582 C565 0.930 . S
H583 C566 0.930 . S
H584 C573 0.930 . S
H585 C575 0.930 . S
H586 C576 0.930 . S
H587 C577 0.930 . S
Eu588 N619 2.657 . S
Eu588 N626 2.609 . S
Eu588 O632 2.558 . S
Eu588 O633 2.612 . S
Eu588 O635 2.339 . S
Eu588 O636 2.563 . S
Eu588 O637 2.419 . S
Eu588 O639 2.380 . S
Eu588 O640 2.432 . S
Eu588 C652 2.848 . S
C589 C592 1.429 . S
C589 C593 1.411 . S
C589 N596 1.377 . S
C590 C592 1.420 . S
C590 C594 1.423 . S
C590 C602 1.392 . S
C591 C593 1.420 . S
C591 C594 1.351 . S
C591 H614 0.931 1_655 S
C592 C589 1.429 . S
C592 C590 1.420 . S
C592 N600 1.362 . S
C593 C589 1.411 . S
C593 C591 1.420 . S
C593 C598 1.395 . S
C594 C590 1.423 . S
C594 C591 1.351 . S
C594 H606 0.930 1_655 S
C595 C597 1.400 . S
C595 C598 1.386 . S
C595 H607 0.930 . S
N596 C589 1.377 . S
N596 C597 1.321 . S
N596 Eu599 2.609 . S
C597 C595 1.400 . S
C597 N596 1.321 . S
C597 H604 0.930 . S
C598 C593 1.395 . S
C598 C595 1.386 . S
C598 H617 0.930 . S
Eu599 N596 2.609 . S
Eu599 N600 2.657 . S
Eu599 O633 2.380 . S
Eu599 O634 2.432 . S
Eu599 O638 2.558 . S
Eu599 O639 2.612 . S
Eu599 O641 2.339 . S
Eu599 O642 2.563 . S
Eu599 O643 2.419 . S
Eu599 C663 2.848 . S
N600 C592 1.362 . S
N600 Eu599 2.657 . S
N600 C601 1.334 . S
C601 N600 1.334 . S
C601 C603 1.413 . S
C601 H608 0.929 . S
C602 C590 1.392 . S
C602 C603 1.367 . S
C602 H610 0.930 . S
C603 C601 1.413 . S
C603 C602 1.367 . S
C603 H605 0.930 . S
H604 C597 0.930 . S
H605 C603 0.930 . S
H606 C594 0.930 1_455 S
H607 C595 0.930 . S
H608 C601 0.929 . S
H609 C623 0.930 . S
H610 C602 0.930 . S
H611 C629 0.930 . S
H612 C620 0.929 . S
H613 C627 0.930 . S
H614 C591 0.931 1_455 S
H615 C621 0.930 . S
H616 C654 0.930 . S
H617 C598 0.930 . S
H618 C653 0.931 . S
N619 Eu588 2.657 . S
N619 C620 1.334 . S
N619 C624 1.362 . S
C620 H612 0.929 . S
C620 N619 1.334 . S
C620 C623 1.413 . S
C621 H615 0.930 . S
C621 C622 1.392 . S
C621 C623 1.367 . S
C622 C621 1.392 . S
C622 C624 1.420 . S
C622 C654 1.423 . S
C623 H609 0.930 . S
C623 C620 1.413 . S
C623 C621 1.367 . S
C624 N619 1.362 . S
C624 C622 1.420 . S
C624 C628 1.429 . S
H625 C630 0.930 . S
N626 Eu588 2.609 . S
N626 C628 1.377 . S
N626 C629 1.321 . S
C627 H613 0.930 . S
C627 C629 1.400 . S
C627 C630 1.386 . S
C628 C624 1.429 . S
C628 N626 1.377 . S
C628 C631 1.411 . S
C629 H611 0.930 . S
C629 N626 1.321 . S
C629 C627 1.400 . S
C630 H625 0.930 . S
C630 C627 1.386 . S
C630 C631 1.395 . S
C631 C628 1.411 . S
C631 C630 1.395 . S
C631 C653 1.420 . S
O632 Eu588 2.558 . S
O632 C652 1.257 . S
O633 Eu588 2.612 . S
O633 Eu599 2.380 . S
O633 C644 1.276 . S
O634 Eu599 2.432 . S
O634 C651 1.264 . S
O635 Eu588 2.339 . S
O635 C651 1.254 . S
O636 Eu588 2.563 . S
O636 C644 1.235 . S
O637 Eu588 2.419 . S
O637 C652 1.249 . S
O638 Eu599 2.558 . S
O638 C663 1.257 . S
O639 Eu588 2.380 . S
O639 Eu599 2.612 . S
O639 C655 1.276 . S
O640 Eu588 2.432 . S
O640 C662 1.264 . S
O641 Eu599 2.339 . S
O641 C662 1.254 . S
O642 Eu599 2.563 . S
O642 C655 1.235 . S
O643 Eu599 2.419 . S
O643 C663 1.249 . S
C644 O633 1.276 . S
C644 O636 1.235 . S
C645 C647 1.393 . S
C645 C649 1.395 . S
C645 C652 1.492 . S
C646 C647 1.392 . S
C646 C648 1.386 . S
C647 C645 1.393 . S
C647 C646 1.392 . S
C647 H664 0.930 . S
C648 C646 1.386 . S
C648 C650 1.395 . S
C648 H665 0.930 . S
C649 C645 1.395 . S
C649 C650 1.379 . S
C649 H666 0.930 . S
C650 C648 1.395 . S
C650 C649 1.379 . S
C650 H667 0.930 . S
C651 O634 1.264 . S
C651 O635 1.254 . S
C652 Eu588 2.848 . S
C652 O632 1.257 . S
C652 O637 1.249 . S
C652 C645 1.492 . S
C653 H618 0.931 . S
C653 C631 1.420 . S
C653 C654 1.351 . S
C654 H616 0.930 . S
C654 C622 1.423 . S
C654 C653 1.351 . S
C655 O639 1.276 . S
C655 O642 1.235 . S
C656 C657 1.393 . S
C656 C660 1.395 . S
C656 C663 1.492 1_455 S
C657 C656 1.393 . S
C657 C658 1.392 . S
C657 H668 0.930 . S
C658 C657 1.392 . S
C658 C659 1.386 . S
C659 C658 1.386 . S
C659 C661 1.395 . S
C659 H669 0.930 . S
C660 C656 1.395 . S
C660 C661 1.379 . S
C660 H670 0.930 . S
C661 C659 1.395 . S
C661 C660 1.379 . S
C661 H671 0.930 . S
C662 O640 1.264 . S
C662 O641 1.254 . S
C663 Eu599 2.848 . S
C663 O638 1.257 . S
C663 O643 1.249 . S
C663 C656 1.492 1_655 S
H664 C647 0.930 . S
H665 C648 0.930 . S
H666 C649 0.930 . S
H667 C650 0.930 . S
H668 C657 0.930 . S
H669 C659 0.930 . S
H670 C660 0.930 . S
H671 C661 0.930 . S
Eu672 N703 2.657 . S
Eu672 N710 2.609 . S
Eu672 O716 2.558 . S
Eu672 O717 2.612 . S
Eu672 O719 2.339 . S
Eu672 O720 2.563 . S
Eu672 O721 2.419 . S
Eu672 O723 2.380 . S
Eu672 O724 2.432 . S
Eu672 C736 2.848 . S
C673 C676 1.429 . S
C673 C677 1.411 . S
C673 N680 1.377 . S
C674 C676 1.420 . S
C674 C678 1.423 . S
C674 C686 1.392 . S
C675 C677 1.420 . S
C675 C678 1.351 . S
C675 H698 0.931 1_565 S
C676 C673 1.429 . S
C676 C674 1.420 . S
C676 N684 1.362 . S
C677 C673 1.411 . S
C677 C675 1.420 . S
C677 C682 1.395 . S
C678 C674 1.423 . S
C678 C675 1.351 . S
C678 H690 0.930 1_565 S
C679 C681 1.400 . S
C679 C682 1.386 . S
C679 H691 0.930 . S
N680 C673 1.377 . S
N680 C681 1.321 . S
N680 Eu683 2.609 . S
C681 C679 1.400 . S
C681 N680 1.321 . S
C681 H688 0.930 . S
C682 C677 1.395 . S
C682 C679 1.386 . S
C682 H701 0.930 . S
Eu683 N680 2.609 . S
Eu683 N684 2.657 . S
Eu683 O717 2.380 . S
Eu683 O718 2.432 . S
Eu683 O722 2.558 . S
Eu683 O723 2.612 . S
Eu683 O725 2.339 . S
Eu683 O726 2.563 . S
Eu683 O727 2.419 . S
Eu683 C747 2.848 . S
N684 C676 1.362 . S
N684 Eu683 2.657 . S
N684 C685 1.334 . S
C685 N684 1.334 . S
C685 C687 1.413 . S
C685 H692 0.929 . S
C686 C674 1.392 . S
C686 C687 1.367 . S
C686 H694 0.930 . S
C687 C685 1.413 . S
C687 C686 1.367 . S
C687 H689 0.930 . S
H688 C681 0.930 . S
H689 C687 0.930 . S
H690 C678 0.930 1_545 S
H691 C679 0.930 . S
H692 C685 0.929 . S
H693 C707 0.930 . S
H694 C686 0.930 . S
H695 C713 0.930 . S
H696 C704 0.929 . S
H697 C711 0.930 . S
H698 C675 0.931 1_545 S
H699 C705 0.930 1_655 S
H700 C738 0.930 . S
H701 C682 0.930 . S
H702 C737 0.931 1_655 S
N703 Eu672 2.657 . S
N703 C704 1.334 . S
N703 C708 1.362 . S
C704 H696 0.929 . S
C704 N703 1.334 . S
C704 C707 1.413 . S
C705 H699 0.930 1_455 S
C705 C706 1.392 . S
C705 C707 1.367 . S
C706 C705 1.392 . S
C706 C708 1.420 . S
C706 C738 1.423 1_455 S
C707 H693 0.930 . S
C707 C704 1.413 . S
C707 C705 1.367 . S
C708 N703 1.362 . S
C708 C706 1.420 . S
C708 C712 1.429 . S
H709 C714 0.930 . S
N710 Eu672 2.609 . S
N710 C712 1.377 . S
N710 C713 1.321 . S
C711 H697 0.930 . S
C711 C713 1.400 . S
C711 C714 1.386 . S
C712 C708 1.429 . S
C712 N710 1.377 . S
C712 C715 1.411 . S
C713 H695 0.930 . S
C713 N710 1.321 . S
C713 C711 1.400 . S
C714 H709 0.930 . S
C714 C711 1.386 . S
C714 C715 1.395 . S
C715 C712 1.411 . S
C715 C714 1.395 . S
C715 C737 1.420 . S
O716 Eu672 2.558 . S
O716 C736 1.257 . S
O717 Eu672 2.612 . S
O717 Eu683 2.380 . S
O717 C728 1.276 . S
O718 Eu683 2.432 . S
O718 C735 1.264 . S
O719 Eu672 2.339 . S
O719 C735 1.254 . S
O720 Eu672 2.563 . S
O720 C728 1.235 . S
O721 Eu672 2.419 . S
O721 C736 1.249 . S
O722 Eu683 2.558 . S
O722 C747 1.257 . S
O723 Eu672 2.380 . S
O723 Eu683 2.612 . S
O723 C739 1.276 . S
O724 Eu672 2.432 . S
O724 C746 1.264 . S
O725 Eu683 2.339 . S
O725 C746 1.254 . S
O726 Eu683 2.563 . S
O726 C739 1.235 . S
O727 Eu683 2.419 . S
O727 C747 1.249 . S
C728 O717 1.276 . S
C728 O720 1.235 . S
C729 C731 1.393 . S
C729 C733 1.395 . S
C729 C736 1.492 . S
C730 C731 1.392 . S
C730 C732 1.386 . S
C731 C729 1.393 . S
C731 C730 1.392 . S
C731 H748 0.930 . S
C732 C730 1.386 . S
C732 C734 1.395 . S
C732 H749 0.930 . S
C733 C729 1.395 . S
C733 C734 1.379 . S
C733 H750 0.930 . S
C734 C732 1.395 . S
C734 C733 1.379 . S
C734 H751 0.930 . S
C735 O718 1.264 . S
C735 O719 1.254 . S
C736 Eu672 2.848 . S
C736 O716 1.257 . S
C736 O721 1.249 . S
C736 C729 1.492 . S
C737 H702 0.931 1_455 S
C737 C715 1.420 . S
C737 C738 1.351 1_455 S
C738 H700 0.930 . S
C738 C706 1.423 1_655 S
C738 C737 1.351 1_655 S
C739 O723 1.276 . S
C739 O726 1.235 . S
C740 C741 1.393 . S
C740 C744 1.395 . S
C740 C747 1.492 1_545 S
C741 C740 1.393 . S
C741 C742 1.392 . S
C741 H752 0.930 . S
C742 C741 1.392 . S
C742 C743 1.386 . S
C743 C742 1.386 . S
C743 C745 1.395 . S
C743 H753 0.930 . S
C744 C740 1.395 . S
C744 C745 1.379 . S
C744 H754 0.930 . S
C745 C743 1.395 . S
C745 C744 1.379 . S
C745 H755 0.930 . S
C746 O724 1.264 . S
C746 O725 1.254 . S
C747 Eu683 2.848 . S
C747 O722 1.257 . S
C747 O727 1.249 . S
C747 C740 1.492 1_565 S
H748 C731 0.930 . S
H749 C732 0.930 . S
H750 C733 0.930 . S
H751 C734 0.930 . S
H752 C741 0.930 . S
H753 C743 0.930 . S
H754 C744 0.930 . S
H755 C745 0.930 . S
Eu756 N787 2.657 . S
Eu756 N794 2.609 . S
Eu756 O800 2.558 . S
Eu756 O801 2.612 . S
Eu756 O803 2.339 . S
Eu756 O804 2.563 . S
Eu756 O805 2.419 . S
Eu756 O807 2.380 . S
Eu756 O808 2.432 . S
Eu756 C820 2.848 . S
C757 C760 1.429 . S
C757 C761 1.411 . S
C757 N764 1.377 . S
C758 C760 1.420 . S
C758 C762 1.423 . S
C758 C770 1.392 . S
C759 C761 1.420 . S
C759 C762 1.351 . S
C759 H782 0.931 . S
C760 C757 1.429 . S
C760 C758 1.420 . S
C760 N768 1.362 . S
C761 C757 1.411 . S
C761 C759 1.420 . S
C761 C766 1.395 . S
C762 C758 1.423 . S
C762 C759 1.351 . S
C762 H774 0.930 . S
C763 C765 1.400 . S
C763 C766 1.386 . S
C763 H775 0.930 . S
N764 C757 1.377 . S
N764 C765 1.321 . S
N764 Eu767 2.609 . S
C765 C763 1.400 . S
C765 N764 1.321 . S
C765 H772 0.930 . S
C766 C761 1.395 . S
C766 C763 1.386 . S
C766 H785 0.930 . S
Eu767 N764 2.609 . S
Eu767 N768 2.657 . S
Eu767 O801 2.380 . S
Eu767 O802 2.432 . S
Eu767 O806 2.558 . S
Eu767 O807 2.612 . S
Eu767 O809 2.339 . S
Eu767 O810 2.563 . S
Eu767 O811 2.419 . S
Eu767 C831 2.848 . S
N768 C760 1.362 . S
N768 Eu767 2.657 . S
N768 C769 1.334 . S
C769 N768 1.334 . S
C769 C771 1.413 . S
C769 H776 0.929 . S
C770 C758 1.392 . S
C770 C771 1.367 . S
C770 H778 0.930 . S
C771 C769 1.413 . S
C771 C770 1.367 . S
C771 H773 0.930 . S
H772 C765 0.930 . S
H773 C771 0.930 . S
H774 C762 0.930 . S
H775 C763 0.930 . S
H776 C769 0.929 . S
H777 C791 0.930 . S
H778 C770 0.930 . S
H779 C797 0.930 . S
H780 C788 0.929 . S
H781 C795 0.930 . S
H782 C759 0.931 . S
H783 C789 0.930 1_565 S
H784 C822 0.930 . S
H785 C766 0.930 . S
H786 C821 0.931 1_565 S
N787 Eu756 2.657 . S
N787 C788 1.334 . S
N787 C792 1.362 . S
C788 H780 0.929 . S
C788 N787 1.334 . S
C788 C791 1.413 . S
C789 H783 0.930 1_545 S
C789 C790 1.392 . S
C789 C791 1.367 . S
C790 C789 1.392 . S
C790 C792 1.420 . S
C790 C822 1.423 1_545 S
C791 H777 0.930 . S
C791 C788 1.413 . S
C791 C789 1.367 . S
C792 N787 1.362 . S
C792 C790 1.420 . S
C792 C796 1.429 . S
H793 C798 0.930 . S
N794 Eu756 2.609 . S
N794 C796 1.377 . S
N794 C797 1.321 . S
C795 H781 0.930 . S
C795 C797 1.400 . S
C795 C798 1.386 . S
C796 C792 1.429 . S
C796 N794 1.377 . S
C796 C799 1.411 . S
C797 H779 0.930 . S
C797 N794 1.321 . S
C797 C795 1.400 . S
C798 H793 0.930 . S
C798 C795 1.386 . S
C798 C799 1.395 . S
C799 C796 1.411 . S
C799 C798 1.395 . S
C799 C821 1.420 . S
O800 Eu756 2.558 . S
O800 C820 1.257 . S
O801 Eu756 2.612 . S
O801 Eu767 2.380 . S
O801 C812 1.276 . S
O802 Eu767 2.432 . S
O802 C819 1.264 . S
O803 Eu756 2.339 . S
O803 C819 1.254 . S
O804 Eu756 2.563 . S
O804 C812 1.235 . S
O805 Eu756 2.419 . S
O805 C820 1.249 . S
O806 Eu767 2.558 . S
O806 C831 1.257 . S
O807 Eu756 2.380 . S
O807 Eu767 2.612 . S
O807 C823 1.276 . S
O808 Eu756 2.432 . S
O808 C830 1.264 . S
O809 Eu767 2.339 . S
O809 C830 1.254 . S
O810 Eu767 2.563 . S
O810 C823 1.235 . S
O811 Eu767 2.419 . S
O811 C831 1.249 . S
C812 O801 1.276 . S
C812 O804 1.235 . S
C813 C815 1.393 . S
C813 C817 1.395 . S
C813 C820 1.492 . S
C814 C815 1.392 . S
C814 C816 1.386 . S
C815 C813 1.393 . S
C815 C814 1.392 . S
C815 H832 0.930 . S
C816 C814 1.386 . S
C816 C818 1.395 . S
C816 H833 0.930 . S
C817 C813 1.395 . S
C817 C818 1.379 . S
C817 H834 0.930 . S
C818 C816 1.395 . S
C818 C817 1.379 . S
C818 H835 0.930 . S
C819 O802 1.264 . S
C819 O803 1.254 . S
C820 Eu756 2.848 . S
C820 O800 1.257 . S
C820 O805 1.249 . S
C820 C813 1.492 . S
C821 H786 0.931 1_545 S
C821 C799 1.420 . S
C821 C822 1.351 1_545 S
C822 H784 0.930 . S
C822 C790 1.423 1_565 S
C822 C821 1.351 1_565 S
C823 O807 1.276 . S
C823 O810 1.235 . S
C824 C825 1.393 . S
C824 C828 1.395 . S
C824 C831 1.492 . S
C825 C824 1.393 . S
C825 C826 1.392 . S
C825 H836 0.930 . S
C826 C825 1.392 . S
C826 C827 1.386 . S
C827 C826 1.386 . S
C827 C829 1.395 . S
C827 H837 0.930 . S
C828 C824 1.395 . S
C828 C829 1.379 . S
C828 H838 0.930 . S
C829 C827 1.395 . S
C829 C828 1.379 . S
C829 H839 0.930 . S
C830 O808 1.264 . S
C830 O809 1.254 . S
C831 Eu767 2.848 . S
C831 O806 1.257 . S
C831 O811 1.249 . S
C831 C824 1.492 . S
H832 C815 0.930 . S
H833 C816 0.930 . S
H834 C817 0.930 . S
H835 C818 0.930 . S
H836 C825 0.930 . S
H837 C827 0.930 . S
H838 C828 0.930 . S
H839 C829 0.930 . S
Eu840 N871 2.657 . S
Eu840 N878 2.609 . S
Eu840 O884 2.558 . S
Eu840 O885 2.612 . S
Eu840 O887 2.339 . S
Eu840 O888 2.563 . S
Eu840 O889 2.419 . S
Eu840 O891 2.380 . S
Eu840 O892 2.432 . S
Eu840 C904 2.848 . S
C841 C844 1.429 . S
C841 C845 1.411 . S
C841 N848 1.377 . S
C842 C844 1.420 . S
C842 C846 1.423 . S
C842 C854 1.392 . S
C843 C845 1.420 . S
C843 C846 1.351 . S
C843 H866 0.931 1_455 S
C844 C841 1.429 . S
C844 C842 1.420 . S
C844 N852 1.362 . S
C845 C841 1.411 . S
C845 C843 1.420 . S
C845 C850 1.395 . S
C846 C842 1.423 . S
C846 C843 1.351 . S
C846 H858 0.930 1_455 S
C847 C849 1.400 . S
C847 C850 1.386 . S
C847 H859 0.930 . S
N848 C841 1.377 . S
N848 C849 1.321 . S
N848 Eu851 2.609 . S
C849 C847 1.400 . S
C849 N848 1.321 . S
C849 H856 0.930 . S
C850 C845 1.395 . S
C850 C847 1.386 . S
C850 H869 0.930 . S
Eu851 N848 2.609 . S
Eu851 N852 2.657 . S
Eu851 O885 2.380 . S
Eu851 O886 2.432 . S
Eu851 O890 2.558 . S
Eu851 O891 2.612 . S
Eu851 O893 2.339 . S
Eu851 O894 2.563 . S
Eu851 O895 2.419 . S
Eu851 C915 2.848 . S
N852 C844 1.362 . S
N852 Eu851 2.657 . S
N852 C853 1.334 . S
C853 N852 1.334 . S
C853 C855 1.413 . S
C853 H860 0.929 . S
C854 C842 1.392 . S
C854 C855 1.367 . S
C854 H862 0.930 . S
C855 C853 1.413 . S
C855 C854 1.367 . S
C855 H857 0.930 . S
H856 C849 0.930 . S
H857 C855 0.930 . S
H858 C846 0.930 1_655 S
H859 C847 0.930 . S
H860 C853 0.929 . S
H861 C875 0.930 . S
H862 C854 0.930 . S
H863 C881 0.930 . S
H864 C872 0.929 . S
H865 C879 0.930 . S
H866 C843 0.931 1_655 S
H867 C873 0.930 . S
H868 C906 0.930 . S
H869 C850 0.930 . S
H870 C905 0.931 . S
N871 Eu840 2.657 . S
N871 C872 1.334 . S
N871 C876 1.362 . S
C872 H864 0.929 . S
C872 N871 1.334 . S
C872 C875 1.413 . S
C873 H867 0.930 . S
C873 C874 1.392 . S
C873 C875 1.367 . S
C874 C873 1.392 . S
C874 C876 1.420 . S
C874 C906 1.423 . S
C875 H861 0.930 . S
C875 C872 1.413 . S
C875 C873 1.367 . S
C876 N871 1.362 . S
C876 C874 1.420 . S
C876 C880 1.429 . S
H877 C882 0.930 . S
N878 Eu840 2.609 . S
N878 C880 1.377 . S
N878 C881 1.321 . S
C879 H865 0.930 . S
C879 C881 1.400 . S
C879 C882 1.386 . S
C880 C876 1.429 . S
C880 N878 1.377 . S
C880 C883 1.411 . S
C881 H863 0.930 . S
C881 N878 1.321 . S
C881 C879 1.400 . S
C882 H877 0.930 . S
C882 C879 1.386 . S
C882 C883 1.395 . S
C883 C880 1.411 . S
C883 C882 1.395 . S
C883 C905 1.420 . S
O884 Eu840 2.558 . S
O884 C904 1.257 . S
O885 Eu840 2.612 . S
O885 Eu851 2.380 . S
O885 C896 1.276 . S
O886 Eu851 2.432 . S
O886 C903 1.264 . S
O887 Eu840 2.339 . S
O887 C903 1.254 . S
O888 Eu840 2.563 . S
O888 C896 1.235 . S
O889 Eu840 2.419 . S
O889 C904 1.249 . S
O890 Eu851 2.558 . S
O890 C915 1.257 . S
O891 Eu840 2.380 . S
O891 Eu851 2.612 . S
O891 C907 1.276 . S
O892 Eu840 2.432 . S
O892 C914 1.264 . S
O893 Eu851 2.339 . S
O893 C914 1.254 . S
O894 Eu851 2.563 . S
O894 C907 1.235 . S
O895 Eu851 2.419 . S
O895 C915 1.249 . S
C896 O885 1.276 . S
C896 O888 1.235 . S
C897 C899 1.393 . S
C897 C901 1.395 . S
C897 C904 1.492 . S
C898 C899 1.392 . S
C898 C900 1.386 . S
C899 C897 1.393 . S
C899 C898 1.392 . S
C899 H916 0.930 . S
C900 C898 1.386 . S
C900 C902 1.395 . S
C900 H917 0.930 . S
C901 C897 1.395 . S
C901 C902 1.379 . S
C901 H918 0.930 . S
C902 C900 1.395 . S
C902 C901 1.379 . S
C902 H919 0.930 . S
C903 O886 1.264 . S
C903 O887 1.254 . S
C904 Eu840 2.848 . S
C904 O884 1.257 . S
C904 O889 1.249 . S
C904 C897 1.492 . S
C905 H870 0.931 . S
C905 C883 1.420 . S
C905 C906 1.351 . S
C906 H868 0.930 . S
C906 C874 1.423 . S
C906 C905 1.351 . S
C907 O891 1.276 . S
C907 O894 1.235 . S
C908 C909 1.393 . S
C908 C912 1.395 . S
C908 C915 1.492 1_655 S
C909 C908 1.393 . S
C909 C910 1.392 . S
C909 H920 0.930 . S
C910 C909 1.392 . S
C910 C911 1.386 . S
C911 C910 1.386 . S
C911 C913 1.395 . S
C911 H921 0.930 . S
C912 C908 1.395 . S
C912 C913 1.379 . S
C912 H922 0.930 . S
C913 C911 1.395 . S
C913 C912 1.379 . S
C913 H923 0.930 . S
C914 O892 1.264 . S
C914 O893 1.254 . S
C915 Eu851 2.848 . S
C915 O890 1.257 . S
C915 O895 1.249 . S
C915 C908 1.492 1_455 S
H916 C899 0.930 . S
H917 C900 0.930 . S
H918 C901 0.930 . S
H919 C902 0.930 . S
H920 C909 0.930 . S
H921 C911 0.930 . S
H922 C912 0.930 . S
H923 C913 0.930 . S
Eu924 N955 2.657 . S
Eu924 N962 2.609 . S
Eu924 O968 2.558 . S
Eu924 O969 2.612 . S
Eu924 O971 2.339 . S
Eu924 O972 2.563 . S
Eu924 O973 2.419 . S
Eu924 O975 2.380 . S
Eu924 O976 2.432 . S
Eu924 C988 2.848 . S
C925 C928 1.429 . S
C925 C929 1.411 . S
C925 N932 1.377 . S
C926 C928 1.420 . S
C926 C930 1.423 . S
C926 C938 1.392 . S
C927 C929 1.420 . S
C927 C930 1.351 . S
C927 H950 0.931 1_545 S
C928 C925 1.429 . S
C928 C926 1.420 . S
C928 N936 1.362 . S
C929 C925 1.411 . S
C929 C927 1.420 . S
C929 C934 1.395 . S
C930 C926 1.423 . S
C930 C927 1.351 . S
C930 H942 0.930 1_545 S
C931 C933 1.400 . S
C931 C934 1.386 . S
C931 H943 0.930 . S
N932 C925 1.377 . S
N932 C933 1.321 . S
N932 Eu935 2.609 . S
C933 C931 1.400 . S
C933 N932 1.321 . S
C933 H940 0.930 . S
C934 C929 1.395 . S
C934 C931 1.386 . S
C934 H953 0.930 . S
Eu935 N932 2.609 . S
Eu935 N936 2.657 . S
Eu935 O969 2.380 . S
Eu935 O970 2.432 . S
Eu935 O974 2.558 . S
Eu935 O975 2.612 . S
Eu935 O977 2.339 . S
Eu935 O978 2.563 . S
Eu935 O979 2.419 . S
Eu935 C999 2.848 . S
N936 C928 1.362 . S
N936 Eu935 2.657 . S
N936 C937 1.334 . S
C937 N936 1.334 . S
C937 C939 1.413 . S
C937 H944 0.929 . S
C938 C926 1.392 . S
C938 C939 1.367 . S
C938 H946 0.930 . S
C939 C937 1.413 . S
C939 C938 1.367 . S
C939 H941 0.930 . S
H940 C933 0.930 . S
H941 C939 0.930 . S
H942 C930 0.930 1_565 S
H943 C931 0.930 . S
H944 C937 0.929 . S
H945 C959 0.930 . S
H946 C938 0.930 . S
H947 C965 0.930 . S
H948 C956 0.929 . S
H949 C963 0.930 . S
H950 C927 0.931 1_565 S
H951 C957 0.930 1_455 S
H952 C990 0.930 . S
H953 C934 0.930 . S
H954 C989 0.931 1_455 S
N955 Eu924 2.657 . S
N955 C956 1.334 . S
N955 C960 1.362 . S
C956 H948 0.929 . S
C956 N955 1.334 . S
C956 C959 1.413 . S
C957 H951 0.930 1_655 S
C957 C958 1.392 . S
C957 C959 1.367 . S
C958 C957 1.392 . S
C958 C960 1.420 . S
C958 C990 1.423 1_655 S
C959 H945 0.930 . S
C959 C956 1.413 . S
C959 C957 1.367 . S
C960 N955 1.362 . S
C960 C958 1.420 . S
C960 C964 1.429 . S
H961 C966 0.930 . S
N962 Eu924 2.609 . S
N962 C964 1.377 . S
N962 C965 1.321 . S
C963 H949 0.930 . S
C963 C965 1.400 . S
C963 C966 1.386 . S
C964 C960 1.429 . S
C964 N962 1.377 . S
C964 C967 1.411 . S
C965 H947 0.930 . S
C965 N962 1.321 . S
C965 C963 1.400 . S
C966 H961 0.930 . S
C966 C963 1.386 . S
C966 C967 1.395 . S
C967 C964 1.411 . S
C967 C966 1.395 . S
C967 C989 1.420 . S
O968 Eu924 2.558 . S
O968 C988 1.257 . S
O969 Eu924 2.612 . S
O969 Eu935 2.380 . S
O969 C980 1.276 . S
O970 Eu935 2.432 . S
O970 C987 1.264 . S
O971 Eu924 2.339 . S
O971 C987 1.254 . S
O972 Eu924 2.563 . S
O972 C980 1.235 . S
O973 Eu924 2.419 . S
O973 C988 1.249 . S
O974 Eu935 2.558 . S
O974 C999 1.257 . S
O975 Eu924 2.380 . S
O975 Eu935 2.612 . S
O975 C991 1.276 . S
O976 Eu924 2.432 . S
O976 C998 1.264 . S
O977 Eu935 2.339 . S
O977 C998 1.254 . S
O978 Eu935 2.563 . S
O978 C991 1.235 . S
O979 Eu935 2.419 . S
O979 C999 1.249 . S
C980 O969 1.276 . S
C980 O972 1.235 . S
C981 C983 1.393 . S
C981 C985 1.395 . S
C981 C988 1.492 . S
C982 C983 1.392 . S
C982 C984 1.386 . S
C983 C981 1.393 . S
C983 C982 1.392 . S
C983 H1000 0.930 . S
C984 C982 1.386 . S
C984 C986 1.395 . S
C984 H1001 0.930 . S
C985 C981 1.395 . S
C985 C986 1.379 . S
C985 H1002 0.930 . S
C986 C984 1.395 . S
C986 C985 1.379 . S
C986 H1003 0.930 . S
C987 O970 1.264 . S
C987 O971 1.254 . S
C988 Eu924 2.848 . S
C988 O968 1.257 . S
C988 O973 1.249 . S
C988 C981 1.492 . S
C989 H954 0.931 1_655 S
C989 C967 1.420 . S
C989 C990 1.351 1_655 S
C990 H952 0.930 . S
C990 C958 1.423 1_455 S
C990 C989 1.351 1_455 S
C991 O975 1.276 . S
C991 O978 1.235 . S
C992 C993 1.393 . S
C992 C996 1.395 . S
C992 C999 1.492 1_565 S
C993 C992 1.393 . S
C993 C994 1.392 . S
C993 H1004 0.930 . S
C994 C993 1.392 . S
C994 C995 1.386 . S
C995 C994 1.386 . S
C995 C997 1.395 . S
C995 H1005 0.930 . S
C996 C992 1.395 . S
C996 C997 1.379 . S
C996 H1006 0.930 . S
C997 C995 1.395 . S
C997 C996 1.379 . S
C997 H1007 0.930 . S
C998 O976 1.264 . S
C998 O977 1.254 . S
C999 Eu935 2.848 . S
C999 O974 1.257 . S
C999 O979 1.249 . S
C999 C992 1.492 1_545 S
H1000 C983 0.930 . S
H1001 C984 0.930 . S
H1002 C985 0.930 . S
H1003 C986 0.930 . S
H1004 C993 0.930 . S
H1005 C995 0.930 . S
H1006 C996 0.930 . S
H1007 C997 0.930 . S
H1008 C1016 0.950 . S
H1009 C1021 0.950 . S
H1010 C1018 0.950 . S
H1011 C1020 0.950 . S
H1012 C1022 0.950 . S
H1013 C1024 0.950 . S
H1014 C1026 0.950 . S
H1015 C1027 0.950 . S
C1016 H1008 0.950 . S
C1016 C1017 1.386 . S
C1016 C1018 1.391 . S
C1017 C1016 1.386 . S
C1017 C1021 1.393 . S
C1018 H1010 0.950 . S
C1018 C1016 1.391 . S
C1018 C1019 1.400 . S
C1019 C1018 1.400 . S
C1019 C1020 1.398 . S
C1019 C1025 1.491 1_565 S
C1020 H1011 0.950 . S
C1020 C1019 1.398 . S
C1020 C1021 1.391 . S
C1021 H1009 0.950 . S
C1021 C1017 1.393 . S
C1021 C1020 1.391 . S
C1022 H1012 0.950 . S
C1022 C1023 1.386 . S
C1022 C1024 1.391 . S
C1023 C1022 1.386 . S
C1023 C1027 1.393 . S
C1024 H1013 0.950 . S
C1024 C1022 1.391 . S
C1024 C1025 1.400 . S
C1025 C1019 1.491 1_545 S
C1025 C1024 1.400 . S
C1025 C1026 1.398 . S
C1026 H1014 0.950 . S
C1026 C1025 1.398 . S
C1026 C1027 1.391 . S
C1027 H1015 0.950 . S
C1027 C1023 1.393 . S
C1027 C1026 1.391 . S
H1028 C1036 0.950 . S
H1029 C1041 0.950 . S
H1030 C1038 0.950 . S
H1031 C1040 0.950 . S
H1032 C1042 0.950 . S
H1033 C1044 0.950 . S
H1034 C1046 0.950 . S
H1035 C1047 0.950 . S
C1036 H1028 0.950 . S
C1036 C1037 1.386 . S
C1036 C1038 1.391 . S
C1037 C1036 1.386 . S
C1037 C1041 1.393 . S
C1038 H1030 0.950 . S
C1038 C1036 1.391 . S
C1038 C1039 1.400 . S
C1039 C1038 1.400 . S
C1039 C1040 1.398 . S
C1039 C1045 1.491 . S
C1040 H1031 0.950 . S
C1040 C1039 1.398 . S
C1040 C1041 1.391 . S
C1041 H1029 0.950 . S
C1041 C1037 1.393 . S
C1041 C1040 1.391 . S
C1042 H1032 0.950 . S
C1042 C1043 1.386 . S
C1042 C1044 1.391 . S
C1043 C1042 1.386 . S
C1043 C1047 1.393 . S
C1044 H1033 0.950 . S
C1044 C1042 1.391 . S
C1044 C1045 1.400 . S
C1045 C1039 1.491 . S
C1045 C1044 1.400 . S
C1045 C1046 1.398 . S
C1046 H1034 0.950 . S
C1046 C1045 1.398 . S
C1046 C1047 1.391 . S
C1047 H1035 0.950 . S
C1047 C1043 1.393 . S
C1047 C1046 1.391 . S
H1048 C1056 0.950 . S
H1049 C1061 0.950 . S
H1050 C1058 0.950 . S
H1051 C1060 0.950 . S
H1052 C1062 0.950 . S
H1053 C1064 0.950 . S
H1054 C1066 0.950 . S
H1055 C1067 0.950 . S
C1056 H1048 0.950 . S
C1056 C1057 1.386 . S
C1056 C1058 1.391 . S
C1057 C1056 1.386 . S
C1057 C1061 1.393 . S
C1058 H1050 0.950 . S
C1058 C1056 1.391 . S
C1058 C1059 1.400 . S
C1059 C1058 1.400 . S
C1059 C1060 1.398 . S
C1059 C1065 1.491 1_655 S
C1060 H1051 0.950 . S
C1060 C1059 1.398 . S
C1060 C1061 1.391 . S
C1061 H1049 0.950 . S
C1061 C1057 1.393 . S
C1061 C1060 1.391 . S
C1062 H1052 0.950 . S
C1062 C1063 1.386 . S
C1062 C1064 1.391 . S
C1063 C1062 1.386 . S
C1063 C1067 1.393 . S
C1064 H1053 0.950 . S
C1064 C1062 1.391 . S
C1064 C1065 1.400 . S
C1065 C1059 1.491 1_455 S
C1065 C1064 1.400 . S
C1065 C1066 1.398 . S
C1066 H1054 0.950 . S
C1066 C1065 1.398 . S
C1066 C1067 1.391 . S
C1067 H1055 0.950 . S
C1067 C1063 1.393 . S
C1067 C1066 1.391 . S
H1068 C1076 0.950 . S
H1069 C1081 0.950 . S
H1070 C1078 0.950 . S
H1071 C1080 0.950 . S
H1072 C1082 0.950 . S
H1073 C1084 0.950 . S
H1074 C1086 0.950 1_565 S
H1075 C1087 0.950 . S
C1076 H1068 0.950 . S
C1076 C1077 1.386 . S
C1076 C1078 1.391 . S
C1077 C1076 1.386 . S
C1077 C1081 1.393 . S
C1078 H1070 0.950 . S
C1078 C1076 1.391 . S
C1078 C1079 1.400 . S
C1079 C1078 1.400 . S
C1079 C1080 1.398 . S
C1079 C1085 1.491 1_565 S
C1080 H1071 0.950 . S
C1080 C1079 1.398 . S
C1080 C1081 1.391 . S
C1081 H1069 0.950 . S
C1081 C1077 1.393 . S
C1081 C1080 1.391 . S
C1082 H1072 0.950 . S
C1082 C1083 1.386 . S
C1082 C1084 1.391 . S
C1083 C1082 1.386 . S
C1083 C1087 1.393 . S
C1084 H1073 0.950 . S
C1084 C1082 1.391 . S
C1084 C1085 1.400 . S
C1085 C1079 1.491 1_545 S
C1085 C1084 1.400 . S
C1085 C1086 1.398 . S
C1086 H1074 0.950 1_545 S
C1086 C1085 1.398 . S
C1086 C1087 1.391 . S
C1087 H1075 0.950 . S
C1087 C1083 1.393 . S
C1087 C1086 1.391 . S
H1088 C1096 0.950 . S
H1089 C1101 0.950 . S
H1090 C1098 0.950 . S
H1091 C1100 0.950 . S
H1092 C1102 0.950 . S
H1093 C1104 0.950 . S
H1094 C1106 0.950 . S
H1095 C1107 0.950 . S
C1096 H1088 0.950 . S
C1096 C1097 1.386 . S
C1096 C1098 1.391 . S
C1097 C1096 1.386 . S
C1097 C1101 1.393 . S
C1098 H1090 0.950 . S
C1098 C1096 1.391 . S
C1098 C1099 1.400 . S
C1099 C1098 1.400 . S
C1099 C1100 1.398 . S
C1099 C1105 1.491 . S
C1100 H1091 0.950 . S
C1100 C1099 1.398 . S
C1100 C1101 1.391 . S
C1101 H1089 0.950 . S
C1101 C1097 1.393 . S
C1101 C1100 1.391 . S
C1102 H1092 0.950 . S
C1102 C1103 1.386 . S
C1102 C1104 1.391 . S
C1103 C1102 1.386 . S
C1103 C1107 1.393 . S
C1104 H1093 0.950 . S
C1104 C1102 1.391 . S
C1104 C1105 1.400 . S
C1105 C1099 1.491 . S
C1105 C1104 1.400 . S
C1105 C1106 1.398 . S
C1106 H1094 0.950 . S
C1106 C1105 1.398 . S
C1106 C1107 1.391 . S
C1107 H1095 0.950 . S
C1107 C1103 1.393 . S
C1107 C1106 1.391 . S
H1108 C1116 0.950 . S
H1109 C1121 0.950 . S
H1110 C1118 0.950 . S
H1111 C1120 0.950 . S
H1112 C1122 0.950 . S
H1113 C1124 0.950 . S
H1114 C1126 0.950 . S
H1115 C1127 0.950 . S
C1116 H1108 0.950 . S
C1116 C1117 1.386 . S
C1116 C1118 1.391 . S
C1117 C1116 1.386 . S
C1117 C1121 1.393 . S
C1118 H1110 0.950 . S
C1118 C1116 1.391 . S
C1118 C1119 1.400 . S
C1119 C1118 1.400 . S
C1119 C1120 1.398 . S
C1119 C1125 1.491 1_655 S
C1120 H1111 0.950 . S
C1120 C1119 1.398 . S
C1120 C1121 1.391 . S
C1121 H1109 0.950 . S
C1121 C1117 1.393 . S
C1121 C1120 1.391 . S
C1122 H1112 0.950 . S
C1122 C1123 1.386 . S
C1122 C1124 1.391 . S
C1123 C1122 1.386 . S
C1123 C1127 1.393 . S
C1124 H1113 0.950 . S
C1124 C1122 1.391 . S
C1124 C1125 1.400 . S
C1125 C1119 1.491 1_455 S
C1125 C1124 1.400 . S
C1125 C1126 1.398 . S
C1126 H1114 0.950 . S
C1126 C1125 1.398 . S
C1126 C1127 1.391 . S
C1127 H1115 0.950 . S
C1127 C1123 1.393 . S
C1127 C1126 1.391 . S
H1128 C1136 0.950 . S
H1129 C1141 0.950 . S
H1130 C1138 0.950 . S
H1131 C1140 0.950 1_655 S
H1132 C1142 0.950 . S
H1133 C1144 0.950 . S
H1134 C1146 0.950 . S
H1135 C1147 0.950 . S
C1136 H1128 0.950 . S
C1136 C1137 1.386 . S
C1136 C1138 1.391 . S
C1137 C1136 1.386 . S
C1137 C1141 1.393 . S
C1138 H1130 0.950 . S
C1138 C1136 1.391 . S
C1138 C1139 1.400 . S
C1139 C1138 1.400 . S
C1139 C1140 1.398 . S
C1139 C1145 1.491 1_455 S
C1140 H1131 0.950 1_455 S
C1140 C1139 1.398 . S
C1140 C1141 1.391 . S
C1141 H1129 0.950 . S
C1141 C1137 1.393 . S
C1141 C1140 1.391 . S
C1142 H1132 0.950 . S
C1142 C1143 1.386 . S
C1142 C1144 1.391 . S
C1143 C1142 1.386 . S
C1143 C1147 1.393 . S
C1144 H1133 0.950 . S
C1144 C1142 1.391 . S
C1144 C1145 1.400 . S
C1145 C1139 1.491 1_655 S
C1145 C1144 1.400 . S
C1145 C1146 1.398 . S
C1146 H1134 0.950 . S
C1146 C1145 1.398 . S
C1146 C1147 1.391 . S
C1147 H1135 0.950 . S
C1147 C1143 1.393 . S
C1147 C1146 1.391 . S
H1148 C1156 0.950 . S
H1149 C1161 0.950 . S
H1150 C1158 0.950 . S
H1151 C1160 0.950 . S
H1152 C1162 0.950 . S
H1153 C1164 0.950 . S
H1154 C1166 0.950 . S
H1155 C1167 0.950 . S
C1156 H1148 0.950 . S
C1156 C1157 1.386 . S
C1156 C1158 1.391 . S
C1157 C1156 1.386 . S
C1157 C1161 1.393 . S
C1158 H1150 0.950 . S
C1158 C1156 1.391 . S
C1158 C1159 1.400 . S
C1159 C1158 1.400 . S
C1159 C1160 1.398 . S
C1159 C1165 1.491 1_565 S
C1160 H1151 0.950 . S
C1160 C1159 1.398 . S
C1160 C1161 1.391 . S
C1161 H1149 0.950 . S
C1161 C1157 1.393 . S
C1161 C1160 1.391 . S
C1162 H1152 0.950 . S
C1162 C1163 1.386 . S
C1162 C1164 1.391 . S
C1163 C1162 1.386 . S
C1163 C1167 1.393 . S
C1164 H1153 0.950 . S
C1164 C1162 1.391 . S
C1164 C1165 1.400 . S
C1165 C1159 1.491 1_545 S
C1165 C1164 1.400 . S
C1165 C1166 1.398 . S
C1166 H1154 0.950 . S
C1166 C1165 1.398 . S
C1166 C1167 1.391 . S
C1167 H1155 0.950 . S
C1167 C1163 1.393 . S
C1167 C1166 1.391 . S
H1168 C1176 0.950 . S
H1169 C1181 0.950 . S
H1170 C1178 0.950 . S
H1171 C1180 0.950 . S
H1172 C1182 0.950 . S
H1173 C1184 0.950 . S
H1174 C1186 0.950 . S
H1175 C1187 0.950 . S
C1176 H1168 0.950 . S
C1176 C1177 1.386 . S
C1176 C1178 1.391 . S
C1177 C1176 1.386 . S
C1177 C1181 1.393 . S
C1178 H1170 0.950 . S
C1178 C1176 1.391 . S
C1178 C1179 1.400 . S
C1179 C1178 1.400 . S
C1179 C1180 1.398 . S
C1179 C1185 1.491 . S
C1180 H1171 0.950 . S
C1180 C1179 1.398 . S
C1180 C1181 1.391 . S
C1181 H1169 0.950 . S
C1181 C1177 1.393 . S
C1181 C1180 1.391 . S
C1182 H1172 0.950 . S
C1182 C1183 1.386 . S
C1182 C1184 1.391 . S
C1183 C1182 1.386 . S
C1183 C1187 1.393 . S
C1184 H1173 0.950 . S
C1184 C1182 1.391 . S
C1184 C1185 1.400 . S
C1185 C1179 1.491 . S
C1185 C1184 1.400 . S
C1185 C1186 1.398 . S
C1186 H1174 0.950 . S
C1186 C1185 1.398 . S
C1186 C1187 1.391 . S
C1187 H1175 0.950 . S
C1187 C1183 1.393 . S
C1187 C1186 1.391 . S
H1188 C1196 0.950 . S
H1189 C1201 0.950 . S
H1190 C1198 0.950 . S
H1191 C1200 0.950 . S
H1192 C1202 0.950 . S
H1193 C1204 0.944 1_455 S
H1194 C1206 0.950 . S
H1195 C1207 0.950 . S
C1196 H1188 0.950 . S
C1196 C1197 1.386 . S
C1196 C1198 1.391 . S
C1197 C1196 1.386 . S
C1197 C1201 1.393 . S
C1198 H1190 0.950 . S
C1198 C1196 1.391 . S
C1198 C1199 1.400 . S
C1199 C1198 1.400 . S
C1199 C1200 1.398 . S
C1199 C1205 1.491 1_455 S
C1200 H1191 0.950 . S
C1200 C1199 1.398 . S
C1200 C1201 1.391 . S
C1201 H1189 0.950 . S
C1201 C1197 1.393 . S
C1201 C1200 1.391 . S
C1202 H1192 0.950 . S
C1202 C1203 1.386 . S
C1202 C1204 1.391 . S
C1203 C1202 1.386 . S
C1203 C1207 1.393 . S
C1204 H1193 0.944 1_655 S
C1204 C1202 1.391 . S
C1204 C1205 1.400 . S
C1205 C1199 1.491 1_655 S
C1205 C1204 1.400 . S
C1205 C1206 1.398 . S
C1206 H1194 0.950 . S
C1206 C1205 1.398 . S
C1206 C1207 1.391 . S
C1207 H1195 0.950 . S
C1207 C1203 1.393 . S
C1207 C1206 1.391 . S
H1208 C1216 0.950 . S
H1209 C1221 0.950 . S
H1210 C1218 0.950 . S
H1211 C1220 0.950 . S
H1212 C1222 0.950 . S
H1213 C1224 0.950 . S
H1214 C1226 0.950 1_545 S
H1215 C1227 0.950 . S
C1216 H1208 0.950 . S
C1216 C1217 1.386 . S
C1216 C1218 1.391 . S
C1217 C1216 1.386 . S
C1217 C1221 1.393 . S
C1218 H1210 0.950 . S
C1218 C1216 1.391 . S
C1218 C1219 1.400 . S
C1219 C1218 1.400 . S
C1219 C1220 1.398 . S
C1219 C1225 1.491 1_545 S
C1220 H1211 0.950 . S
C1220 C1219 1.398 . S
C1220 C1221 1.391 . S
C1221 H1209 0.950 . S
C1221 C1217 1.393 . S
C1221 C1220 1.391 . S
C1222 H1212 0.950 . S
C1222 C1223 1.386 . S
C1222 C1224 1.391 . S
C1223 C1222 1.386 . S
C1223 C1227 1.393 . S
C1224 H1213 0.950 . S
C1224 C1222 1.391 . S
C1224 C1225 1.400 . S
C1225 C1219 1.491 1_565 S
C1225 C1224 1.400 . S
C1225 C1226 1.398 . S
C1226 H1214 0.950 1_565 S
C1226 C1225 1.398 . S
C1226 C1227 1.391 . S
C1227 H1215 0.950 . S
C1227 C1223 1.393 . S
C1227 C1226 1.391 . S
H1228 C1236 0.950 . S
H1229 C1241 0.950 . S
H1230 C1238 0.950 . S
H1231 C1240 0.950 . S
H1232 C1242 0.950 . S
H1233 C1244 0.950 . S
H1234 C1246 0.950 . S
H1235 C1247 0.950 . S
C1236 H1228 0.950 . S
C1236 C1237 1.386 . S
C1236 C1238 1.391 . S
C1237 C1236 1.386 . S
C1237 C1241 1.393 . S
C1238 H1230 0.950 . S
C1238 C1236 1.391 . S
C1238 C1239 1.400 . S
C1239 C1238 1.400 . S
C1239 C1240 1.398 . S
C1239 C1245 1.491 . S
C1240 H1231 0.950 . S
C1240 C1239 1.398 . S
C1240 C1241 1.391 . S
C1241 H1229 0.950 . S
C1241 C1237 1.393 . S
C1241 C1240 1.391 . S
C1242 H1232 0.950 . S
C1242 C1243 1.386 . S
C1242 C1244 1.391 . S
C1243 C1242 1.386 . S
C1243 C1247 1.393 . S
C1244 H1233 0.950 . S
C1244 C1242 1.391 . S
C1244 C1245 1.400 . S
C1245 C1239 1.491 . S
C1245 C1244 1.400 . S
C1245 C1246 1.398 . S
C1246 H1234 0.950 . S
C1246 C1245 1.398 . S
C1246 C1247 1.391 . S
C1247 H1235 0.950 . S
C1247 C1243 1.393 . S
C1247 C1246 1.391 . S
H1248 C1256 0.950 . S
H1249 C1261 0.950 . S
H1250 C1258 0.950 . S
H1251 C1260 0.950 . S
H1252 C1262 0.950 . S
H1253 C1264 0.950 . S
H1254 C1266 0.950 . S
H1255 C1267 0.950 . S
C1256 H1248 0.950 . S
C1256 C1257 1.386 . S
C1256 C1258 1.391 . S
C1257 C1256 1.386 . S
C1257 C1261 1.393 . S
C1258 H1250 0.950 . S
C1258 C1256 1.391 . S
C1258 C1259 1.400 . S
C1259 C1258 1.400 . S
C1259 C1260 1.398 . S
C1259 C1265 1.491 . S
C1260 H1251 0.950 . S
C1260 C1259 1.398 . S
C1260 C1261 1.391 . S
C1261 H1249 0.950 . S
C1261 C1257 1.393 . S
C1261 C1260 1.391 . S
C1262 H1252 0.950 . S
C1262 C1263 1.386 . S
C1262 C1264 1.391 . S
C1263 C1262 1.386 . S
C1263 C1267 1.393 . S
C1264 H1253 0.950 . S
C1264 C1262 1.391 . S
C1264 C1265 1.400 . S
C1265 C1259 1.491 . S
C1265 C1264 1.400 . S
C1265 C1266 1.398 . S
C1266 H1254 0.950 . S
C1266 C1265 1.398 . S
C1266 C1267 1.391 . S
C1267 H1255 0.950 . S
C1267 C1263 1.393 . S
C1267 C1266 1.391 . S
H1268 C1276 0.950 . S
H1269 C1281 0.950 . S
H1270 C1278 0.950 . S
H1271 C1280 0.950 . S
H1272 C1282 0.950 . S
H1273 C1284 0.950 . S
H1274 C1286 0.950 . S
H1275 C1287 0.950 . S
C1276 H1268 0.950 . S
C1276 C1277 1.386 . S
C1276 C1278 1.391 . S
C1277 C1276 1.386 . S
C1277 C1281 1.393 . S
C1278 H1270 0.950 . S
C1278 C1276 1.391 . S
C1278 C1279 1.400 . S
C1279 C1278 1.400 . S
C1279 C1280 1.398 . S
C1279 C1285 1.491 . S
C1280 H1271 0.950 . S
C1280 C1279 1.398 . S
C1280 C1281 1.391 . S
C1281 H1269 0.950 . S
C1281 C1277 1.393 . S
C1281 C1280 1.391 . S
C1282 H1272 0.950 . S
C1282 C1283 1.386 . S
C1282 C1284 1.391 . S
C1283 C1282 1.386 . S
C1283 C1287 1.393 . S
C1284 H1273 0.950 . S
C1284 C1282 1.391 . S
C1284 C1285 1.400 . S
C1285 C1279 1.491 . S
C1285 C1284 1.400 . S
C1285 C1286 1.398 . S
C1286 H1274 0.950 . S
C1286 C1285 1.398 . S
C1286 C1287 1.391 . S
C1287 H1275 0.950 . S
C1287 C1283 1.393 . S
C1287 C1286 1.391 . S
H1288 C1296 0.950 . S
H1289 C1301 0.950 . S
H1290 C1298 0.950 . S
H1291 C1300 0.950 . S
H1292 C1302 0.950 . S
H1293 C1304 0.950 . S
H1294 C1306 0.950 . S
H1295 C1307 0.950 . S
C1296 H1288 0.950 . S
C1296 C1297 1.386 . S
C1296 C1298 1.391 . S
C1297 C1296 1.386 . S
C1297 C1301 1.393 . S
C1298 H1290 0.950 . S
C1298 C1296 1.391 . S
C1298 C1299 1.400 . S
C1299 C1298 1.400 . S
C1299 C1300 1.398 . S
C1299 C1305 1.491 . S
C1300 H1291 0.950 . S
C1300 C1299 1.398 . S
C1300 C1301 1.391 . S
C1301 H1289 0.950 . S
C1301 C1297 1.393 . S
C1301 C1300 1.391 . S
C1302 H1292 0.950 . S
C1302 C1303 1.386 . S
C1302 C1304 1.391 . S
C1303 C1302 1.386 . S
C1303 C1307 1.393 . S
C1304 H1293 0.950 . S
C1304 C1302 1.391 . S
C1304 C1305 1.400 . S
C1305 C1299 1.491 . S
C1305 C1304 1.400 . S
C1305 C1306 1.398 . S
C1306 H1294 0.950 . S
C1306 C1305 1.398 . S
C1306 C1307 1.391 . S
C1307 H1295 0.950 . S
C1307 C1303 1.393 . S
C1307 C1306 1.391 . S
H1308 C1316 0.950 . S
H1309 C1321 0.950 . S
H1310 C1318 0.950 . S
H1311 C1320 0.950 . S
H1312 C1322 0.950 . S
H1313 C1324 0.950 . S
H1314 C1326 0.950 . S
H1315 C1327 0.950 . S
C1316 H1308 0.950 . S
C1316 C1317 1.386 . S
C1316 C1318 1.391 . S
C1317 C1316 1.386 . S
C1317 C1321 1.393 . S
C1318 H1310 0.950 . S
C1318 C1316 1.391 . S
C1318 C1319 1.400 . S
C1319 C1318 1.400 . S
C1319 C1320 1.398 . S
C1319 C1325 1.491 . S
C1320 H1311 0.950 . S
C1320 C1319 1.398 . S
C1320 C1321 1.391 . S
C1321 H1309 0.950 . S
C1321 C1317 1.393 . S
C1321 C1320 1.391 . S
C1322 H1312 0.950 . S
C1322 C1323 1.386 . S
C1322 C1324 1.391 . S
C1323 C1322 1.386 . S
C1323 C1327 1.393 . S
C1324 H1313 0.950 . S
C1324 C1322 1.391 . S
C1324 C1325 1.400 . S
C1325 C1319 1.491 . S
C1325 C1324 1.400 . S
C1325 C1326 1.398 . S
C1326 H1314 0.950 . S
C1326 C1325 1.398 . S
C1326 C1327 1.391 . S
C1327 H1315 0.950 . S
C1327 C1323 1.393 . S
C1327 C1326 1.391 . S
H1328 C1336 0.950 . S
H1329 C1341 0.950 . S
H1330 C1338 0.950 . S
H1331 C1340 0.950 . S
H1332 C1342 0.950 . S
H1333 C1344 0.950 . S
H1334 C1346 0.950 . S
H1335 C1347 0.950 . S
C1336 H1328 0.950 . S
C1336 C1337 1.386 . S
C1336 C1338 1.391 . S
C1337 C1336 1.386 . S
C1337 C1341 1.393 . S
C1338 H1330 0.950 . S
C1338 C1336 1.391 . S
C1338 C1339 1.400 . S
C1339 C1338 1.400 . S
C1339 C1340 1.398 . S
C1339 C1345 1.491 . S
C1340 H1331 0.950 . S
C1340 C1339 1.398 . S
C1340 C1341 1.391 . S
C1341 H1329 0.950 . S
C1341 C1337 1.393 . S
C1341 C1340 1.391 . S
C1342 H1332 0.950 . S
C1342 C1343 1.386 . S
C1342 C1344 1.391 . S
C1343 C1342 1.386 . S
C1343 C1347 1.393 . S
C1344 H1333 0.950 . S
C1344 C1342 1.391 . S
C1344 C1345 1.400 . S
C1345 C1339 1.491 . S
C1345 C1344 1.400 . S
C1345 C1346 1.398 . S
C1346 H1334 0.950 . S
C1346 C1345 1.398 . S
C1346 C1347 1.391 . S
C1347 H1335 0.950 . S
C1347 C1343 1.393 . S
C1347 C1346 1.391 . S
H1348 C1356 0.950 . S
H1349 C1361 0.950 . S
H1350 C1358 0.950 . S
H1351 C1360 0.950 . S
H1352 C1362 0.950 . S
H1353 C1364 0.950 . S
H1354 C1366 0.950 . S
H1355 C1367 0.950 . S
C1356 H1348 0.950 . S
C1356 C1357 1.386 . S
C1356 C1358 1.391 . S
C1357 C1356 1.386 . S
C1357 C1361 1.393 . S
C1358 H1350 0.950 . S
C1358 C1356 1.391 . S
C1358 C1359 1.400 . S
C1359 C1358 1.400 . S
C1359 C1360 1.398 . S
C1359 C1365 1.491 . S
C1360 H1351 0.950 . S
C1360 C1359 1.398 . S
C1360 C1361 1.391 . S
C1361 H1349 0.950 . S
C1361 C1357 1.393 . S
C1361 C1360 1.391 . S
C1362 H1352 0.950 . S
C1362 C1363 1.386 . S
C1362 C1364 1.391 . S
C1363 C1362 1.386 . S
C1363 C1367 1.393 . S
C1364 H1353 0.950 . S
C1364 C1362 1.391 . S
C1364 C1365 1.400 . S
C1365 C1359 1.491 . S
C1365 C1364 1.400 . S
C1365 C1366 1.398 . S
C1366 H1354 0.950 . S
C1366 C1365 1.398 . S
C1366 C1367 1.391 . S
C1367 H1355 0.950 . S
C1367 C1363 1.393 . S
C1367 C1366 1.391 . S
H1368 C1376 0.950 . S
H1369 C1381 0.950 . S
H1370 C1378 0.950 . S
H1371 C1380 0.950 . S
H1372 C1382 0.950 . S
H1373 C1384 0.950 . S
H1374 C1386 0.950 . S
H1375 C1387 0.950 . S
C1376 H1368 0.950 . S
C1376 C1377 1.386 . S
C1376 C1378 1.391 . S
C1377 C1376 1.386 . S
C1377 C1381 1.393 . S
C1378 H1370 0.950 . S
C1378 C1376 1.391 . S
C1378 C1379 1.400 . S
C1379 C1378 1.400 . S
C1379 C1380 1.398 . S
C1379 C1385 1.491 . S
C1380 H1371 0.950 . S
C1380 C1379 1.398 . S
C1380 C1381 1.391 . S
C1381 H1369 0.950 . S
C1381 C1377 1.393 . S
C1381 C1380 1.391 . S
C1382 H1372 0.950 . S
C1382 C1383 1.386 . S
C1382 C1384 1.391 . S
C1383 C1382 1.386 . S
C1383 C1387 1.393 . S
C1384 H1373 0.950 . S
C1384 C1382 1.391 . S
C1384 C1385 1.400 . S
C1385 C1379 1.491 . S
C1385 C1384 1.400 . S
C1385 C1386 1.398 . S
C1386 H1374 0.950 . S
C1386 C1385 1.398 . S
C1386 C1387 1.391 . S
C1387 H1375 0.950 . S
C1387 C1383 1.393 . S
C1387 C1386 1.391 . S
H1388 C1396 0.950 . S
H1389 C1401 0.950 . S
H1390 C1398 0.950 . S
H1391 C1400 0.950 . S
H1392 C1402 0.950 . S
H1393 C1404 0.950 . S
H1394 C1406 0.950 . S
H1395 C1407 0.950 . S
C1396 H1388 0.950 . S
C1396 C1397 1.386 . S
C1396 C1398 1.391 . S
C1397 C1396 1.386 . S
C1397 C1401 1.393 . S
C1398 H1390 0.950 . S
C1398 C1396 1.391 . S
C1398 C1399 1.400 . S
C1399 C1398 1.400 . S
C1399 C1400 1.398 . S
C1399 C1405 1.491 . S
C1400 H1391 0.950 . S
C1400 C1399 1.398 . S
C1400 C1401 1.391 . S
C1401 H1389 0.950 . S
C1401 C1397 1.393 . S
C1401 C1400 1.391 . S
C1402 H1392 0.950 . S
C1402 C1403 1.386 . S
C1402 C1404 1.391 . S
C1403 C1402 1.386 . S
C1403 C1407 1.393 . S
C1404 H1393 0.950 . S
C1404 C1402 1.391 . S
C1404 C1405 1.400 . S
C1405 C1399 1.491 . S
C1405 C1404 1.400 . S
C1405 C1406 1.398 . S
C1406 H1394 0.950 . S
C1406 C1405 1.398 . S
C1406 C1407 1.391 . S
C1407 H1395 0.950 . S
C1407 C1403 1.393 . S
C1407 C1406 1.391 . S
H1408 C1416 0.950 . S
H1409 C1421 0.950 . S
H1410 C1418 0.950 . S
H1411 C1420 0.950 . S
H1412 C1422 0.950 . S
H1413 C1424 0.950 . S
H1414 C1426 0.950 . S
H1415 C1427 0.950 . S
C1416 H1408 0.950 . S
C1416 C1417 1.386 . S
C1416 C1418 1.391 . S
C1417 C1416 1.386 . S
C1417 C1421 1.393 . S
C1418 H1410 0.950 . S
C1418 C1416 1.391 . S
C1418 C1419 1.400 . S
C1419 C1418 1.400 . S
C1419 C1420 1.398 . S
C1419 C1425 1.491 . S
C1420 H1411 0.950 . S
C1420 C1419 1.398 . S
C1420 C1421 1.391 . S
C1421 H1409 0.950 . S
C1421 C1417 1.393 . S
C1421 C1420 1.391 . S
C1422 H1412 0.950 . S
C1422 C1423 1.386 . S
C1422 C1424 1.391 . S
C1423 C1422 1.386 . S
C1423 C1427 1.393 . S
C1424 H1413 0.950 . S
C1424 C1422 1.391 . S
C1424 C1425 1.400 . S
C1425 C1419 1.491 . S
C1425 C1424 1.400 . S
C1425 C1426 1.398 . S
C1426 H1414 0.950 . S
C1426 C1425 1.398 . S
C1426 C1427 1.391 . S
C1427 H1415 0.950 . S
C1427 C1423 1.393 . S
C1427 C1426 1.391 . S
H1428 C1436 0.950 . S
H1429 C1441 0.950 . S
H1430 C1438 0.950 . S
H1431 C1440 0.950 . S
H1432 C1442 0.950 . S
H1433 C1444 0.950 . S
H1434 C1446 0.950 . S
H1435 C1447 0.950 . S
C1436 H1428 0.950 . S
C1436 C1437 1.386 . S
C1436 C1438 1.391 . S
C1437 C1436 1.386 . S
C1437 C1441 1.393 . S
C1438 H1430 0.950 . S
C1438 C1436 1.391 . S
C1438 C1439 1.400 . S
C1439 C1438 1.400 . S
C1439 C1440 1.398 . S
C1439 C1445 1.491 . S
C1440 H1431 0.950 . S
C1440 C1439 1.398 . S
C1440 C1441 1.391 . S
C1441 H1429 0.950 . S
C1441 C1437 1.393 . S
C1441 C1440 1.391 . S
C1442 H1432 0.950 . S
C1442 C1443 1.386 . S
C1442 C1444 1.391 . S
C1443 C1442 1.386 . S
C1443 C1447 1.393 . S
C1444 H1433 0.950 . S
C1444 C1442 1.391 . S
C1444 C1445 1.400 . S
C1445 C1439 1.491 . S
C1445 C1444 1.400 . S
C1445 C1446 1.398 . S
C1446 H1434 0.950 . S
C1446 C1445 1.398 . S
C1446 C1447 1.391 . S
C1447 H1435 0.950 . S
C1447 C1443 1.393 . S
C1447 C1446 1.391 . S
H1448 C1456 0.950 . S
H1449 C1461 0.950 . S
H1450 C1458 0.950 . S
H1451 C1460 0.950 . S
H1452 C1462 0.950 . S
H1453 C1464 0.950 . S
H1454 C1466 0.950 . S
H1455 C1467 0.950 . S
C1456 H1448 0.950 . S
C1456 C1457 1.386 . S
C1456 C1458 1.391 . S
C1457 C1456 1.386 . S
C1457 C1461 1.393 . S
C1458 H1450 0.950 . S
C1458 C1456 1.391 . S
C1458 C1459 1.400 . S
C1459 C1458 1.400 . S
C1459 C1460 1.398 . S
C1459 C1465 1.491 . S
C1460 H1451 0.950 . S
C1460 C1459 1.398 . S
C1460 C1461 1.391 . S
C1461 H1449 0.950 . S
C1461 C1457 1.393 . S
C1461 C1460 1.391 . S
C1462 H1452 0.950 . S
C1462 C1463 1.386 . S
C1462 C1464 1.391 . S
C1463 C1462 1.386 . S
C1463 C1467 1.393 . S
C1464 H1453 0.950 . S
C1464 C1462 1.391 . S
C1464 C1465 1.400 . S
C1465 C1459 1.491 . S
C1465 C1464 1.400 . S
C1465 C1466 1.398 . S
C1466 H1454 0.950 . S
C1466 C1465 1.398 . S
C1466 C1467 1.391 . S
C1467 H1455 0.950 . S
C1467 C1463 1.393 . S
C1467 C1466 1.391 . S
H1468 C1476 0.950 . S
H1469 C1481 0.950 . S
H1470 C1478 0.950 . S
H1471 C1480 0.950 . S
H1472 C1482 0.950 . S
H1473 C1484 0.950 . S
H1474 C1486 0.950 . S
H1475 C1487 0.950 . S
C1476 H1468 0.950 . S
C1476 C1477 1.386 . S
C1476 C1478 1.391 . S
C1477 C1476 1.386 . S
C1477 C1481 1.393 . S
C1478 H1470 0.950 . S
C1478 C1476 1.391 . S
C1478 C1479 1.400 . S
C1479 C1478 1.400 . S
C1479 C1480 1.398 . S
C1479 C1485 1.491 . S
C1480 H1471 0.950 . S
C1480 C1479 1.398 . S
C1480 C1481 1.391 . S
C1481 H1469 0.950 . S
C1481 C1477 1.393 . S
C1481 C1480 1.391 . S
C1482 H1472 0.950 . S
C1482 C1483 1.386 . S
C1482 C1484 1.391 . S
C1483 C1482 1.386 . S
C1483 C1487 1.393 . S
C1484 H1473 0.950 . S
C1484 C1482 1.391 . S
C1484 C1485 1.400 . S
C1485 C1479 1.491 . S
C1485 C1484 1.400 . S
C1485 C1486 1.398 . S
C1486 H1474 0.950 . S
C1486 C1485 1.398 . S
C1486 C1487 1.391 . S
C1487 H1475 0.950 . S
C1487 C1483 1.393 . S
C1487 C1486 1.391 . S
H1488 C1496 0.950 . S
H1489 C1501 0.950 . S
H1490 C1498 0.950 . S
H1491 C1500 0.950 . S
H1492 C1502 0.950 . S
H1493 C1504 0.950 . S
H1494 C1506 0.950 . S
H1495 C1507 0.950 . S
C1496 H1488 0.950 . S
C1496 C1497 1.386 . S
C1496 C1498 1.391 . S
C1497 C1496 1.386 . S
C1497 C1501 1.393 . S
C1498 H1490 0.950 . S
C1498 C1496 1.391 . S
C1498 C1499 1.400 . S
C1499 C1498 1.400 . S
C1499 C1500 1.398 . S
C1499 C1505 1.491 . S
C1500 H1491 0.950 . S
C1500 C1499 1.398 . S
C1500 C1501 1.391 . S
C1501 H1489 0.950 . S
C1501 C1497 1.393 . S
C1501 C1500 1.391 . S
C1502 H1492 0.950 . S
C1502 C1503 1.386 . S
C1502 C1504 1.391 . S
C1503 C1502 1.386 . S
C1503 C1507 1.393 . S
C1504 H1493 0.950 . S
C1504 C1502 1.391 . S
C1504 C1505 1.400 . S
C1505 C1499 1.491 . S
C1505 C1504 1.400 . S
C1505 C1506 1.398 . S
C1506 H1494 0.950 . S
C1506 C1505 1.398 . S
C1506 C1507 1.391 . S
C1507 H1495 0.950 . S
C1507 C1503 1.393 . S
C1507 C1506 1.391 . S
H1508 C1516 0.950 . S
H1509 C1521 0.950 . S
H1510 C1518 0.950 . S
H1511 C1520 0.950 . S
H1512 C1522 0.950 . S
H1513 C1524 0.950 . S
H1514 C1526 0.950 . S
H1515 C1527 0.950 . S
C1516 H1508 0.950 . S
C1516 C1517 1.386 . S
C1516 C1518 1.391 . S
C1517 C1516 1.386 . S
C1517 C1521 1.393 . S
C1518 H1510 0.950 . S
C1518 C1516 1.391 . S
C1518 C1519 1.400 . S
C1519 C1518 1.400 . S
C1519 C1520 1.398 . S
C1519 C1525 1.491 . S
C1520 H1511 0.950 . S
C1520 C1519 1.398 . S
C1520 C1521 1.391 . S
C1521 H1509 0.950 . S
C1521 C1517 1.393 . S
C1521 C1520 1.391 . S
C1522 H1512 0.950 . S
C1522 C1523 1.386 . S
C1522 C1524 1.391 . S
C1523 C1522 1.386 . S
C1523 C1527 1.393 . S
C1524 H1513 0.950 . S
C1524 C1522 1.391 . S
C1524 C1525 1.400 . S
C1525 C1519 1.491 . S
C1525 C1524 1.400 . S
C1525 C1526 1.398 . S
C1526 H1514 0.950 . S
C1526 C1525 1.398 . S
C1526 C1527 1.391 . S
C1527 H1515 0.950 . S
C1527 C1523 1.393 . S
C1527 C1526 1.391 . S
H1528 C1536 0.950 . S
H1529 C1541 0.950 . S
H1530 C1538 0.950 . S
H1531 C1540 0.950 . S
H1532 C1542 0.950 . S
H1533 C1544 0.950 . S
H1534 C1546 0.950 . S
H1535 C1547 0.950 . S
C1536 H1528 0.950 . S
C1536 C1537 1.386 . S
C1536 C1538 1.391 . S
C1537 C1536 1.386 . S
C1537 C1541 1.393 . S
C1538 H1530 0.950 . S
C1538 C1536 1.391 . S
C1538 C1539 1.400 . S
C1539 C1538 1.400 . S
C1539 C1540 1.398 . S
C1539 C1545 1.491 . S
C1540 H1531 0.950 . S
C1540 C1539 1.398 . S
C1540 C1541 1.391 . S
C1541 H1529 0.950 . S
C1541 C1537 1.393 . S
C1541 C1540 1.391 . S
C1542 H1532 0.950 . S
C1542 C1543 1.386 . S
C1542 C1544 1.391 . S
C1543 C1542 1.386 . S
C1543 C1547 1.393 . S
C1544 H1533 0.950 . S
C1544 C1542 1.391 . S
C1544 C1545 1.400 . S
C1545 C1539 1.491 . S
C1545 C1544 1.400 . S
C1545 C1546 1.398 . S
C1546 H1534 0.950 . S
C1546 C1545 1.398 . S
C1546 C1547 1.391 . S
C1547 H1535 0.950 . S
C1547 C1543 1.393 . S
C1547 C1546 1.391 . S
H1548 C1556 0.950 . S
H1549 C1561 0.950 . S
H1550 C1558 0.950 . S
H1551 C1560 0.950 . S
H1552 C1562 0.950 . S
H1553 C1564 0.950 . S
H1554 C1566 0.950 . S
H1555 C1567 0.950 . S
C1556 H1548 0.950 . S
C1556 C1557 1.386 . S
C1556 C1558 1.391 . S
C1557 C1556 1.386 . S
C1557 C1561 1.393 . S
C1558 H1550 0.950 . S
C1558 C1556 1.391 . S
C1558 C1559 1.400 . S
C1559 C1558 1.400 . S
C1559 C1560 1.398 . S
C1559 C1565 1.491 . S
C1560 H1551 0.950 . S
C1560 C1559 1.398 . S
C1560 C1561 1.391 . S
C1561 H1549 0.950 . S
C1561 C1557 1.393 . S
C1561 C1560 1.391 . S
C1562 H1552 0.950 . S
C1562 C1563 1.386 . S
C1562 C1564 1.391 . S
C1563 C1562 1.386 . S
C1563 C1567 1.393 . S
C1564 H1553 0.950 . S
C1564 C1562 1.391 . S
C1564 C1565 1.400 . S
C1565 C1559 1.491 . S
C1565 C1564 1.400 . S
C1565 C1566 1.398 . S
C1566 H1554 0.950 . S
C1566 C1565 1.398 . S
C1566 C1567 1.391 . S
C1567 H1555 0.950 . S
C1567 C1563 1.393 . S
C1567 C1566 1.391 . S
H1568 C1576 0.950 . S
H1569 C1581 0.950 . S
H1570 C1578 0.950 . S
H1571 C1580 0.950 . S
H1572 C1582 0.950 . S
H1573 C1584 0.950 . S
H1574 C1586 0.950 . S
H1575 C1587 0.950 . S
C1576 H1568 0.950 . S
C1576 C1577 1.386 . S
C1576 C1578 1.391 . S
C1577 C1576 1.386 . S
C1577 C1581 1.393 . S
C1578 H1570 0.950 . S
C1578 C1576 1.391 . S
C1578 C1579 1.400 . S
C1579 C1578 1.400 . S
C1579 C1580 1.398 . S
C1579 C1585 1.491 . S
C1580 H1571 0.950 . S
C1580 C1579 1.398 . S
C1580 C1581 1.391 . S
C1581 H1569 0.950 . S
C1581 C1577 1.393 . S
C1581 C1580 1.391 . S
C1582 H1572 0.950 . S
C1582 C1583 1.386 . S
C1582 C1584 1.391 . S
C1583 C1582 1.386 . S
C1583 C1587 1.393 . S
C1584 H1573 0.950 . S
C1584 C1582 1.391 . S
C1584 C1585 1.400 . S
C1585 C1579 1.491 . S
C1585 C1584 1.400 . S
C1585 C1586 1.398 . S
C1586 H1574 0.950 . S
C1586 C1585 1.398 . S
C1586 C1587 1.391 . S
C1587 H1575 0.950 . S
C1587 C1583 1.393 . S
C1587 C1586 1.391 . S
H1588 C1596 0.950 . S
H1589 C1601 0.950 . S
H1590 C1598 0.950 . S
H1591 C1600 0.950 . S
H1592 C1602 0.950 . S
H1593 C1604 0.950 . S
H1594 C1606 0.950 . S
H1595 C1607 0.950 . S
C1596 H1588 0.950 . S
C1596 C1597 1.386 . S
C1596 C1598 1.391 . S
C1597 C1596 1.386 . S
C1597 C1601 1.393 . S
C1598 H1590 0.950 . S
C1598 C1596 1.391 . S
C1598 C1599 1.400 . S
C1599 C1598 1.400 . S
C1599 C1600 1.398 . S
C1599 C1605 1.491 . S
C1600 H1591 0.950 . S
C1600 C1599 1.398 . S
C1600 C1601 1.391 . S
C1601 H1589 0.950 . S
C1601 C1597 1.393 . S
C1601 C1600 1.391 . S
C1602 H1592 0.950 . S
C1602 C1603 1.386 . S
C1602 C1604 1.391 . S
C1603 C1602 1.386 . S
C1603 C1607 1.393 . S
C1604 H1593 0.950 . S
C1604 C1602 1.391 . S
C1604 C1605 1.400 . S
C1605 C1599 1.491 . S
C1605 C1604 1.400 . S
C1605 C1606 1.398 . S
C1606 H1594 0.950 . S
C1606 C1605 1.398 . S
C1606 C1607 1.391 . S
C1607 H1595 0.950 . S
C1607 C1603 1.393 . S
C1607 C1606 1.391 . S
H1608 C1616 0.950 . S
H1609 C1621 0.950 . S
H1610 C1618 0.950 1_554 S
H1611 C1620 0.950 . S
H1612 C1622 0.950 . S
H1613 C1624 0.950 1_556 S
H1614 C1626 0.950 . S
H1615 C1627 0.950 . S
C1616 H1608 0.950 . S
C1616 C1617 1.386 . S
C1616 C1618 1.391 . S
C1617 C1616 1.386 . S
C1617 C1621 1.393 . S
C1618 H1610 0.950 1_556 S
C1618 C1616 1.391 . S
C1618 C1619 1.400 . S
C1619 C1618 1.400 . S
C1619 C1620 1.398 . S
C1619 C1625 1.491 1_556 S
C1620 H1611 0.950 . S
C1620 C1619 1.398 . S
C1620 C1621 1.391 . S
C1621 H1609 0.950 . S
C1621 C1617 1.393 . S
C1621 C1620 1.391 . S
C1622 H1612 0.950 . S
C1622 C1623 1.386 . S
C1622 C1624 1.391 . S
C1623 C1622 1.386 . S
C1623 C1627 1.393 . S
C1624 H1613 0.950 1_554 S
C1624 C1622 1.391 . S
C1624 C1625 1.400 . S
C1625 C1619 1.491 1_554 S
C1625 C1624 1.400 . S
C1625 C1626 1.398 . S
C1626 H1614 0.950 . S
C1626 C1625 1.398 . S
C1626 C1627 1.391 . S
C1627 H1615 0.950 . S
C1627 C1623 1.393 . S
C1627 C1626 1.391 . S
H1628 C1636 0.950 . S
H1629 C1641 0.950 . S
H1630 C1638 0.950 1_655 S
H1631 C1640 0.950 . S
H1632 C1642 0.950 . S
H1633 C1644 0.950 1_455 S
H1634 C1646 0.950 . S
H1635 C1647 0.950 . S
C1636 H1628 0.950 . S
C1636 C1637 1.386 . S
C1636 C1638 1.391 . S
C1637 C1636 1.386 . S
C1637 C1641 1.393 . S
C1638 H1630 0.950 1_455 S
C1638 C1636 1.391 . S
C1638 C1639 1.400 . S
C1639 C1638 1.400 . S
C1639 C1640 1.398 . S
C1639 C1645 1.491 1_455 S
C1640 H1631 0.950 . S
C1640 C1639 1.398 . S
C1640 C1641 1.391 . S
C1641 H1629 0.950 . S
C1641 C1637 1.393 . S
C1641 C1640 1.391 . S
C1642 H1632 0.950 . S
C1642 C1643 1.386 . S
C1642 C1644 1.391 . S
C1643 C1642 1.386 . S
C1643 C1647 1.393 . S
C1644 H1633 0.950 1_655 S
C1644 C1642 1.391 . S
C1644 C1645 1.400 . S
C1645 C1639 1.491 1_655 S
C1645 C1644 1.400 . S
C1645 C1646 1.398 . S
C1646 H1634 0.950 . S
C1646 C1645 1.398 . S
C1646 C1647 1.391 . S
C1647 H1635 0.950 . S
C1647 C1643 1.393 . S
C1647 C1646 1.391 . S
H1648 C1656 0.950 . S
H1649 C1661 0.950 . S
H1650 C1658 0.942 1_556 S
H1651 C1660 0.950 1_545 S
H1652 C1662 0.950 . S
H1653 C1664 0.942 1_554 S
H1654 C1666 0.950 1_565 S
H1655 C1667 0.950 . S
C1656 H1648 0.950 . S
C1656 C1657 1.386 . S
C1656 C1658 1.397 . S
C1657 C1656 1.386 . S
C1657 C1661 1.393 . S
C1658 H1650 0.942 1_554 S
C1658 C1656 1.397 . S
C1658 C1659 1.403 . S
C1659 C1658 1.403 . S
C1659 C1660 1.398 . S
C1659 C1665 1.491 1_564 S
C1660 H1651 0.950 1_565 S
C1660 C1659 1.398 . S
C1660 C1661 1.391 . S
C1661 H1649 0.950 . S
C1661 C1657 1.393 . S
C1661 C1660 1.391 . S
C1662 H1652 0.950 . S
C1662 C1663 1.386 . S
C1662 C1664 1.397 . S
C1663 C1662 1.386 . S
C1663 C1667 1.393 . S
C1664 H1653 0.942 1_556 S
C1664 C1662 1.397 . S
C1664 C1665 1.403 . S
C1665 C1659 1.491 1_546 S
C1665 C1664 1.403 . S
C1665 C1666 1.398 . S
C1666 H1654 0.950 1_545 S
C1666 C1665 1.398 . S
C1666 C1667 1.391 . S
C1667 H1655 0.950 . S
C1667 C1663 1.393 . S
C1667 C1666 1.391 . S
H1668 C1676 0.950 . S
H1669 C1681 0.950 . S
H1670 C1678 0.950 . S
H1671 C1680 0.950 . S
H1672 C1682 0.950 . S
H1673 C1684 0.950 . S
H1674 C1686 0.950 . S
H1675 C1687 0.950 . S
C1676 H1668 0.950 . S
C1676 C1677 1.386 . S
C1676 C1678 1.391 . S
C1677 C1676 1.386 . S
C1677 C1681 1.393 . S
C1678 H1670 0.950 . S
C1678 C1676 1.391 . S
C1678 C1679 1.400 . S
C1679 C1678 1.400 . S
C1679 C1680 1.398 . S
C1679 C1685 1.491 . S
C1680 H1671 0.950 . S
C1680 C1679 1.398 . S
C1680 C1681 1.391 . S
C1681 H1669 0.950 . S
C1681 C1677 1.393 . S
C1681 C1680 1.391 . S
C1682 H1672 0.950 . S
C1682 C1683 1.386 . S
C1682 C1684 1.391 . S
C1683 C1682 1.386 . S
C1683 C1687 1.393 . S
C1684 H1673 0.950 . S
C1684 C1682 1.391 . S
C1684 C1685 1.400 . S
C1685 C1679 1.491 . S
C1685 C1684 1.400 . S
C1685 C1686 1.398 . S
C1686 H1674 0.950 . S
C1686 C1685 1.398 . S
C1686 C1687 1.391 . S
C1687 H1675 0.950 . S
C1687 C1683 1.393 . S
C1687 C1686 1.391 . S
H1688 C1696 0.950 . S
H1689 C1701 0.950 . S
H1690 C1698 0.950 1_554 S
H1691 C1700 0.950 1_455 S
H1692 C1702 0.950 . S
H1693 C1704 0.950 1_556 S
H1694 C1706 0.950 1_655 S
H1695 C1707 0.950 . S
C1696 H1688 0.950 . S
C1696 C1697 1.386 . S
C1696 C1698 1.391 . S
C1697 C1696 1.386 . S
C1697 C1701 1.393 . S
C1698 H1690 0.950 1_556 S
C1698 C1696 1.391 . S
C1698 C1699 1.400 . S
C1699 C1698 1.400 . S
C1699 C1700 1.398 . S
C1699 C1705 1.491 1_656 S
C1700 H1691 0.950 1_655 S
C1700 C1699 1.398 . S
C1700 C1701 1.391 . S
C1701 H1689 0.950 . S
C1701 C1697 1.393 . S
C1701 C1700 1.391 . S
C1702 H1692 0.950 . S
C1702 C1703 1.386 . S
C1702 C1704 1.391 . S
C1703 C1702 1.386 . S
C1703 C1707 1.393 . S
C1704 H1693 0.950 1_554 S
C1704 C1702 1.391 . S
C1704 C1705 1.400 . S
C1705 C1699 1.491 1_454 S
C1705 C1704 1.400 . S
C1705 C1706 1.398 . S
C1706 H1694 0.950 1_455 S
C1706 C1705 1.398 . S
C1706 C1707 1.391 . S
C1707 H1695 0.950 . S
C1707 C1703 1.393 . S
C1707 C1706 1.391 . S
H1708 C1716 0.950 . S
H1709 C1721 0.950 . S
H1710 C1718 0.950 . S
H1711 C1720 0.950 . S
H1712 C1722 0.950 . S
H1713 C1724 0.950 . S
H1714 C1726 0.950 . S
H1715 C1727 0.950 . S
C1716 H1708 0.950 . S
C1716 C1717 1.386 . S
C1716 C1718 1.391 . S
C1717 C1716 1.386 . S
C1717 C1721 1.393 . S
C1718 H1710 0.950 . S
C1718 C1716 1.391 . S
C1718 C1719 1.400 . S
C1719 C1718 1.400 . S
C1719 C1720 1.398 . S
C1719 C1725 1.491 1_565 S
C1720 H1711 0.950 . S
C1720 C1719 1.398 . S
C1720 C1721 1.391 . S
C1721 H1709 0.950 . S
C1721 C1717 1.393 . S
C1721 C1720 1.391 . S
C1722 H1712 0.950 . S
C1722 C1723 1.386 . S
C1722 C1724 1.391 . S
C1723 C1722 1.386 . S
C1723 C1727 1.393 . S
C1724 H1713 0.950 . S
C1724 C1722 1.391 . S
C1724 C1725 1.400 . S
C1725 C1719 1.491 1_545 S
C1725 C1724 1.400 . S
C1725 C1726 1.398 . S
C1726 H1714 0.950 . S
C1726 C1725 1.398 . S
C1726 C1727 1.391 . S
C1727 H1715 0.950 . S
C1727 C1723 1.393 . S
C1727 C1726 1.391 . S
C1017 C403 1.350 . S
C1023 C70 1.265 . S
C1037 C487 1.343 . S
C1043 C154 1.275 . S
C1057 C238 1.244 . S
C1063 C67 1.342 . S
C1077 C322 1.237 . S
C1083 C151 1.357 . S
C1097 C406 1.264 . S
C1103 C235 1.351 . S
C1117 C319 1.347 . S
C1123 C490 1.270 . S
C1137 C739 1.332 . S
C1143 C574 1.281 . S
C1157 C658 1.240 . S
C1163 C823 1.346 . S
C1177 C907 1.346 . S
C1183 C742 1.272 . S
C1197 C826 1.275 . S
C1203 C991 1.328 . S
C1217 C910 1.236 . S
C1223 C571 1.356 . S
C1237 C655 1.347 . S
C1243 C994 1.239 . S
C1257 C392 1.424 . S
C1263 C58 1.314 . S
C1277 C142 1.350 . S
C1283 C476 1.400 . S
C1297 C226 1.308 . S
C1303 C56 1.422 . S
C1317 C310 1.336 . S
C1323 C140 1.390 . S
C1337 C224 1.423 . S
C1343 C394 1.311 . S
C1357 C308 1.409 . S
C1363 C478 1.305 . S
C1377 C728 1.390 . S
C1383 C562 1.336 . S
C1397 C646 1.305 . S
C1403 C812 1.409 . S
C1417 C730 1.305 . S
C1423 C896 1.408 . S
C1437 C980 1.390 . S
C1443 C814 1.336 . S
C1457 C898 1.349 . S
C1463 C560 1.405 . S
C1477 C644 1.413 . S
C1483 C982 1.344 . S
C1497 C903 1.893 . S
C1503 C63 1.878 . S
C1517 C147 1.899 . S
C1523 C987 1.875 . S
C1537 C231 1.900 . S
C1543 C567 1.875 . S
C1557 C315 1.899 . S
C1563 C651 1.877 . S
C1577 C399 1.877 . S
C1583 C735 1.893 . S
C1597 C819 1.879 . S
C1603 C483 1.891 . S
C1617 C830 2.018 . S
C1623 C74 2.031 . S
C1637 C914 2.039 . S
C1643 C158 2.021 . S
C1657 C242 2.022 . S
C1663 C998 2.040 . S
C1677 C326 2.038 . S
C1683 C578 2.019 . S
C1697 C662 2.025 . S
C1703 C410 2.041 . S
C1717 C746 2.023 . S
C1723 C494 2.021 . S
