# Generated by pormake.
# Topology lta, (4)-cn, num edge types: 1
# Building blocks:
#     Node 0, Type 0, BuildingBlock: TATPOV_clean_sbu_0, # of connection points: 4
#     Node 1, Type 0, BuildingBlock: TATPOV_clean_sbu_0, # of connection points: 4
#     Node 2, Type 0, BuildingBlock: TATPOV_clean_sbu_0, # of connection points: 4
#     Node 3, Type 0, BuildingBlock: TATPOV_clean_sbu_0, # of connection points: 4
#     Node 4, Type 0, BuildingBlock: TATPOV_clean_sbu_0, # of connection points: 4
#     Node 5, Type 0, BuildingBlock: TATPOV_clean_sbu_0, # of connection points: 4
#     Node 6, Type 0, BuildingBlock: TATPOV_clean_sbu_0, # of connection points: 4
#     Node 7, Type 0, BuildingBlock: TATPOV_clean_sbu_0, # of connection points: 4
#     Node 8, Type 0, BuildingBlock: TATPOV_clean_sbu_0, # of connection points: 4
#     Node 9, Type 0, BuildingBlock: TATPOV_clean_sbu_0, # of connection points: 4
#     Node 10, Type 0, BuildingBlock: TATPOV_clean_sbu_0, # of connection points: 4
#     Node 11, Type 0, BuildingBlock: TATPOV_clean_sbu_0, # of connection points: 4
#     Node 12, Type 0, BuildingBlock: TATPOV_clean_sbu_0, # of connection points: 4
#     Node 13, Type 0, BuildingBlock: TATPOV_clean_sbu_0, # of connection points: 4
#     Node 14, Type 0, BuildingBlock: TATPOV_clean_sbu_0, # of connection points: 4
#     Node 15, Type 0, BuildingBlock: TATPOV_clean_sbu_0, # of connection points: 4
#     Node 16, Type 0, BuildingBlock: TATPOV_clean_sbu_0, # of connection points: 4
#     Node 17, Type 0, BuildingBlock: TATPOV_clean_sbu_0, # of connection points: 4
#     Node 18, Type 0, BuildingBlock: TATPOV_clean_sbu_0, # of connection points: 4
#     Node 19, Type 0, BuildingBlock: TATPOV_clean_sbu_0, # of connection points: 4
#     Node 20, Type 0, BuildingBlock: TATPOV_clean_sbu_0, # of connection points: 4
#     Node 21, Type 0, BuildingBlock: TATPOV_clean_sbu_0, # of connection points: 4
#     Node 22, Type 0, BuildingBlock: TATPOV_clean_sbu_0, # of connection points: 4
#     Node 23, Type 0, BuildingBlock: TATPOV_clean_sbu_0, # of connection points: 4
#     Edge 24, Type (0, 0), BuildingBlock: EZIPEK_clean_linker_0, # of connection points: 2
#     Edge 25, Type (0, 0), BuildingBlock: EZIPEK_clean_linker_0, # of connection points: 2
#     Edge 26, Type (0, 0), BuildingBlock: EZIPEK_clean_linker_0, # of connection points: 2
#     Edge 27, Type (0, 0), BuildingBlock: EZIPEK_clean_linker_0, # of connection points: 2
#     Edge 28, Type (0, 0), BuildingBlock: EZIPEK_clean_linker_0, # of connection points: 2
#     Edge 29, Type (0, 0), BuildingBlock: EZIPEK_clean_linker_0, # of connection points: 2
#     Edge 30, Type (0, 0), BuildingBlock: EZIPEK_clean_linker_0, # of connection points: 2
#     Edge 31, Type (0, 0), BuildingBlock: EZIPEK_clean_linker_0, # of connection points: 2
#     Edge 32, Type (0, 0), BuildingBlock: EZIPEK_clean_linker_0, # of connection points: 2
#     Edge 33, Type (0, 0), BuildingBlock: EZIPEK_clean_linker_0, # of connection points: 2
#     Edge 34, Type (0, 0), BuildingBlock: EZIPEK_clean_linker_0, # of connection points: 2
#     Edge 35, Type (0, 0), BuildingBlock: EZIPEK_clean_linker_0, # of connection points: 2
#     Edge 36, Type (0, 0), BuildingBlock: EZIPEK_clean_linker_0, # of connection points: 2
#     Edge 37, Type (0, 0), BuildingBlock: EZIPEK_clean_linker_0, # of connection points: 2
#     Edge 38, Type (0, 0), BuildingBlock: EZIPEK_clean_linker_0, # of connection points: 2
#     Edge 39, Type (0, 0), BuildingBlock: EZIPEK_clean_linker_0, # of connection points: 2
#     Edge 40, Type (0, 0), BuildingBlock: EZIPEK_clean_linker_0, # of connection points: 2
#     Edge 41, Type (0, 0), BuildingBlock: EZIPEK_clean_linker_0, # of connection points: 2
#     Edge 42, Type (0, 0), BuildingBlock: EZIPEK_clean_linker_0, # of connection points: 2
#     Edge 43, Type (0, 0), BuildingBlock: EZIPEK_clean_linker_0, # of connection points: 2
#     Edge 44, Type (0, 0), BuildingBlock: EZIPEK_clean_linker_0, # of connection points: 2
#     Edge 45, Type (0, 0), BuildingBlock: EZIPEK_clean_linker_0, # of connection points: 2
#     Edge 46, Type (0, 0), BuildingBlock: EZIPEK_clean_linker_0, # of connection points: 2
#     Edge 47, Type (0, 0), BuildingBlock: EZIPEK_clean_linker_0, # of connection points: 2
#     Edge 48, Type (0, 0), BuildingBlock: EZIPEK_clean_linker_0, # of connection points: 2
#     Edge 49, Type (0, 0), BuildingBlock: EZIPEK_clean_linker_0, # of connection points: 2
#     Edge 50, Type (0, 0), BuildingBlock: EZIPEK_clean_linker_0, # of connection points: 2
#     Edge 51, Type (0, 0), BuildingBlock: EZIPEK_clean_linker_0, # of connection points: 2
#     Edge 52, Type (0, 0), BuildingBlock: EZIPEK_clean_linker_0, # of connection points: 2
#     Edge 53, Type (0, 0), BuildingBlock: EZIPEK_clean_linker_0, # of connection points: 2
#     Edge 54, Type (0, 0), BuildingBlock: EZIPEK_clean_linker_0, # of connection points: 2
#     Edge 55, Type (0, 0), BuildingBlock: EZIPEK_clean_linker_0, # of connection points: 2
#     Edge 56, Type (0, 0), BuildingBlock: EZIPEK_clean_linker_0, # of connection points: 2
#     Edge 57, Type (0, 0), BuildingBlock: EZIPEK_clean_linker_0, # of connection points: 2
#     Edge 58, Type (0, 0), BuildingBlock: EZIPEK_clean_linker_0, # of connection points: 2
#     Edge 59, Type (0, 0), BuildingBlock: EZIPEK_clean_linker_0, # of connection points: 2
#     Edge 60, Type (0, 0), BuildingBlock: EZIPEK_clean_linker_0, # of connection points: 2
#     Edge 61, Type (0, 0), BuildingBlock: EZIPEK_clean_linker_0, # of connection points: 2
#     Edge 62, Type (0, 0), BuildingBlock: EZIPEK_clean_linker_0, # of connection points: 2
#     Edge 63, Type (0, 0), BuildingBlock: EZIPEK_clean_linker_0, # of connection points: 2
#     Edge 64, Type (0, 0), BuildingBlock: EZIPEK_clean_linker_0, # of connection points: 2
#     Edge 65, Type (0, 0), BuildingBlock: EZIPEK_clean_linker_0, # of connection points: 2
#     Edge 66, Type (0, 0), BuildingBlock: EZIPEK_clean_linker_0, # of connection points: 2
#     Edge 67, Type (0, 0), BuildingBlock: EZIPEK_clean_linker_0, # of connection points: 2
#     Edge 68, Type (0, 0), BuildingBlock: EZIPEK_clean_linker_0, # of connection points: 2
#     Edge 69, Type (0, 0), BuildingBlock: EZIPEK_clean_linker_0, # of connection points: 2
#     Edge 70, Type (0, 0), BuildingBlock: EZIPEK_clean_linker_0, # of connection points: 2
#     Edge 71, Type (0, 0), BuildingBlock: EZIPEK_clean_linker_0, # of connection points: 2
# Relax obj value: 0.189
# Max RMSD: 0.079
# Mean RMSD: 0.079
data_MOF--net-lta--node1-TATPOV_clean_sbu_0--edge1-EZIPEK_clean_linker_0
_symmetry_space_group_name_H-M    P1
_symmetry_Int_Tables_number       1
_symmetry_cell_setting            triclinic
loop_
_symmetry_equiv_pos_as_xyz
'x, y, z'
_cell_length_a     43.260625
_cell_length_b     43.104839
_cell_length_c     43.036118
_cell_angle_alpha  90.477625
_cell_angle_beta   89.940822
_cell_angle_gamma 89.731227
loop_
_atom_site_label
_atom_site_type_symbol
_atom_site_fract_x
_atom_site_fract_y
_atom_site_fract_z
_atom_type_partial_charge
Zn0 Zn 0.0649 0.33198 0.48035 0.0
Zn1 Zn 0.10509 0.2858 0.48286 0.0
O2 O 0.11722 0.30874 0.44206 0.0
O3 O 0.08287 0.34671 0.44057 0.0
O4 O 0.13623 0.25058 0.48615 0.0
O5 O 0.07955 0.34972 0.52048 0.0
O6 O 0.11333 0.31135 0.52352 0.0
C7 C 0.1057 0.3325 0.42879 0.0
C8 C 0.0349 0.27355 0.47999 0.0
O9 O 0.0625 0.26301 0.48109 0.0
O10 O 0.02981 0.30242 0.47967 0.0
C11 C 0.15 0.23832 0.46293 0.0
O12 O 0.14401 0.24827 0.4348 0.0
C13 C 0.10118 0.33611 0.53467 0.0
Zn14 Zn 0.62554 0.0574 0.48383 0.0
Zn15 Zn 0.6688 0.10057 0.48679 0.0
O16 O 0.64656 0.11144 0.44552 0.0
O17 O 0.61164 0.07432 0.44292 0.0
O18 O 0.70258 0.1325 0.49107 0.0
O19 O 0.60583 0.07289 0.52291 0.0
O20 O 0.64169 0.109 0.52605 0.0
C21 C 0.62426 0.09806 0.43153 0.0
C22 C 0.68549 0.0307 0.48445 0.0
O23 O 0.69378 0.05906 0.48491 0.0
O24 O 0.65717 0.02365 0.4848 0.0
C25 C 0.717 0.14299 0.46769 0.0
O26 O 0.70968 0.13329 0.43964 0.0
C27 C 0.61745 0.09606 0.53666 0.0
Zn28 Zn 0.88495 0.6248 0.47223 0.0
Zn29 Zn 0.84504 0.66425 0.48731 0.0
O30 O 0.82953 0.64282 0.44581 0.0
O31 O 0.8685 0.61289 0.4316 0.0
O32 O 0.81085 0.69564 0.49512 0.0
O33 O 0.8755 0.59887 0.50878 0.0
O34 O 0.84623 0.63655 0.52716 0.0
C35 C 0.842 0.6239 0.42643 0.0
C36 C 0.91301 0.6827 0.47948 0.0
O37 O 0.88511 0.6911 0.48433 0.0
O38 O 0.9195 0.65456 0.47425 0.0
C39 C 0.81219 0.72187 0.48186 0.0
O40 O 0.83616 0.72833 0.46435 0.0
C41 C 0.85947 0.61028 0.53068 0.0
Zn42 Zn 0.33623 0.87319 0.50198 0.0
Zn43 Zn 0.28615 0.84197 0.48465 0.0
O44 O 0.31213 0.83596 0.4451 0.0
O45 O 0.35469 0.86012 0.46025 0.0
O46 O 0.25315 0.80958 0.48577 0.0
O47 O 0.31322 0.83634 0.52685 0.0
O48 O 0.3128 0.83625 0.52643 0.0
C49 C 0.33959 0.84519 0.43977 0.0
C50 C 0.28048 0.91116 0.48986 0.0
O51 O 0.2669 0.8856 0.48374 0.0
O52 O 0.30868 0.91159 0.49815 0.0
C53 C 0.22502 0.81474 0.47922 0.0
O54 O 0.21624 0.84247 0.47026 0.0
C55 C 0.316 0.8229 0.5527 0.0
Zn56 Zn 0.05728 0.61967 0.47492 0.0
Zn57 Zn 0.0988 0.66441 0.47397 0.0
O58 O 0.11057 0.64081 0.51422 0.0
O59 O 0.07552 0.60375 0.51436 0.0
O60 O 0.12943 0.69899 0.47108 0.0
O61 O 0.07228 0.60303 0.43412 0.0
O62 O 0.10752 0.63979 0.43322 0.0
C63 C 0.09848 0.61702 0.5267 0.0
C64 C 0.0294 0.67952 0.47735 0.0
O65 O 0.05732 0.68871 0.47635 0.0
O66 O 0.02316 0.65091 0.47681 0.0
C67 C 0.13959 0.71333 0.4948 0.0
O68 O 0.13044 0.70519 0.52267 0.0
C69 C 0.09492 0.61597 0.42103 0.0
Zn70 Zn 0.33596 0.06879 0.48811 0.0
Zn71 Zn 0.29489 0.10337 0.47326 0.0
O72 O 0.31354 0.12195 0.5148 0.0
O73 O 0.34189 0.08286 0.53093 0.0
O74 O 0.2617 0.13492 0.46292 0.0
O75 O 0.36527 0.08315 0.4561 0.0
O76 O 0.32397 0.10241 0.43387 0.0
C77 C 0.33052 0.10945 0.53555 0.0
C78 C 0.28289 0.03415 0.47963 0.0
O79 O 0.27124 0.06139 0.47853 0.0
O80 O 0.31181 0.03051 0.48112 0.0
C81 C 0.24024 0.14047 0.48243 0.0
O82 O 0.23939 0.12502 0.50859 0.0
C83 C 0.35249 0.09471 0.43248 0.0
Zn84 Zn 0.88864 0.33522 0.47328 0.0
Zn85 Zn 0.84697 0.29054 0.47369 0.0
O86 O 0.83772 0.31433 0.51488 0.0
O87 O 0.8726 0.35152 0.51377 0.0
O88 O 0.81387 0.25766 0.47232 0.0
O89 O 0.87232 0.35231 0.43371 0.0
O90 O 0.83689 0.31569 0.43383 0.0
C91 C 0.85032 0.33818 0.52708 0.0
C92 C 0.91672 0.27541 0.4732 0.0
O93 O 0.8888 0.26596 0.47354 0.0
O94 O 0.92268 0.30406 0.47277 0.0
C95 C 0.81708 0.23053 0.48322 0.0
O96 O 0.84313 0.22249 0.49663 0.0
C97 C 0.84912 0.33945 0.42144 0.0
Zn98 Zn 0.63403 0.89683 0.45817 0.0
Zn99 Zn 0.66345 0.85133 0.46547 0.0
O100 O 0.63015 0.84713 0.50012 0.0
O101 O 0.62111 0.89696 0.50313 0.0
O102 O 0.69241 0.81474 0.47005 0.0
O103 O 0.60661 0.87886 0.42569 0.0
O104 O 0.64323 0.8435 0.42202 0.0
C105 C 0.61704 0.87004 0.51375 0.0
C106 C 0.69148 0.91713 0.45892 0.0
O107 O 0.69288 0.89014 0.47091 0.0
O108 O 0.66714 0.92522 0.44501 0.0
C109 C 0.71553 0.81532 0.48827 0.0
O110 O 0.71987 0.83955 0.50642 0.0
C111 C 0.61844 0.85583 0.41172 0.0
Zn112 Zn 0.49702 0.05938 0.31641 0.0
Zn113 Zn 0.491 0.10469 0.28858 0.0
O114 O 0.45635 0.11043 0.32182 0.0
O115 O 0.45107 0.06034 0.32553 0.0
O116 O 0.48938 0.14062 0.259 0.0
O117 O 0.52737 0.07654 0.34682 0.0
O118 O 0.53399 0.11052 0.30972 0.0
C119 C 0.44143 0.0873 0.33226 0.0
C120 C 0.49642 0.03922 0.25934 0.0
O121 O 0.48352 0.06592 0.25916 0.0
O122 O 0.51243 0.03177 0.28261 0.0
C123 C 0.46852 0.14326 0.23844 0.0
O124 O 0.44553 0.12346 0.23774 0.0
C125 C 0.54258 0.09857 0.33531 0.0
Zn126 Zn 0.88262 0.48598 0.33787 0.0
Zn127 Zn 0.84346 0.48447 0.29087 0.0
O128 O 0.83268 0.44389 0.31383 0.0
O129 O 0.86617 0.44527 0.35247 0.0
O130 O 0.81365 0.48556 0.25538 0.0
O131 O 0.86417 0.52548 0.35413 0.0
O132 O 0.8315 0.52486 0.31485 0.0
C133 C 0.84449 0.43186 0.33805 0.0
C134 C 0.91355 0.48433 0.27936 0.0
O135 O 0.88611 0.48323 0.26866 0.0
O136 O 0.91825 0.48641 0.30829 0.0
C137 C 0.80679 0.46174 0.23934 0.0
O138 O 0.81952 0.43482 0.24575 0.0
C139 C 0.84188 0.53754 0.33955 0.0
Zn140 Zn 0.47208 0.9001 0.33016 0.0
Zn141 Zn 0.46779 0.85641 0.28673 0.0
O142 O 0.50953 0.84492 0.30731 0.0
O143 O 0.51325 0.88228 0.3425 0.0
O144 O 0.46264 0.82481 0.25243 0.0
O145 O 0.43387 0.88497 0.35119 0.0
O146 O 0.43023 0.848 0.31562 0.0
C147 C 0.52412 0.85821 0.32939 0.0
C148 C 0.46917 0.92622 0.27012 0.0
O149 O 0.46837 0.89774 0.26193 0.0
O150 O 0.46999 0.9337 0.29856 0.0
C151 C 0.48509 0.81811 0.23449 0.0
O152 O 0.51204 0.83135 0.23897 0.0
C153 C 0.42031 0.86138 0.34027 0.0
Zn154 Zn 0.06275 0.46874 0.3361 0.0
Zn155 Zn 0.10236 0.4693 0.28931 0.0
O156 O 0.11202 0.5107 0.31232 0.0
O157 O 0.0782 0.50989 0.35074 0.0
O158 O 0.13245 0.46711 0.25335 0.0
O159 O 0.08063 0.42984 0.35308 0.0
O160 O 0.11377 0.42936 0.31409 0.0
C161 C 0.09981 0.52321 0.33634 0.0
C162 C 0.03212 0.46903 0.27783 0.0
O163 O 0.0596 0.47008 0.26714 0.0
O164 O 0.02731 0.46741 0.30673 0.0
C165 C 0.1515 0.48834 0.2464 0.0
O166 O 0.1521 0.51425 0.26261 0.0
C167 C 0.10302 0.41732 0.33882 0.0
Zn168 Zn 0.47066 0.89072 0.63095 0.0
Zn169 Zn 0.48234 0.85156 0.66271 0.0
O170 O 0.4436 0.83851 0.63579 0.0
O171 O 0.42485 0.88546 0.63403 0.0
O172 O 0.48984 0.81662 0.69292 0.0
O173 O 0.49453 0.87065 0.59601 0.0
O174 O 0.52214 0.85523 0.63539 0.0
C175 C 0.4214 0.85685 0.6289 0.0
C176 C 0.48406 0.91823 0.68418 0.0
O177 O 0.47606 0.89078 0.69152 0.0
O178 O 0.49007 0.92406 0.65615 0.0
C179 C 0.4686 0.81043 0.71232 0.0
O180 O 0.44251 0.82612 0.71143 0.0
C181 C 0.52015 0.86118 0.60648 0.0
Zn182 Zn 0.05818 0.47962 0.62583 0.0
Zn183 Zn 0.10179 0.48125 0.6689 0.0
O184 O 0.11197 0.44009 0.6456 0.0
O185 O 0.07483 0.43874 0.61051 0.0
O186 O 0.1359 0.48463 0.70057 0.0
O187 O 0.07333 0.51887 0.60677 0.0
O188 O 0.10969 0.52066 0.64258 0.0
C189 C 0.09854 0.42675 0.6228 0.0
C190 C 0.03261 0.48023 0.68691 0.0
O191 O 0.06099 0.48025 0.69509 0.0
O192 O 0.02533 0.48064 0.65848 0.0
C193 C 0.1376 0.46789 0.72463 0.0
O194 O 0.11627 0.44708 0.73014 0.0
C195 C 0.09654 0.53202 0.61872 0.0
Zn196 Zn 0.46586 0.06488 0.62071 0.0
Zn197 Zn 0.46952 0.10547 0.66709 0.0
O198 O 0.51003 0.11436 0.64326 0.0
O199 O 0.50655 0.08053 0.60464 0.0
O200 O 0.46916 0.13682 0.70141 0.0
O201 O 0.42616 0.08385 0.60587 0.0
O202 O 0.42925 0.11782 0.64426 0.0
C203 C 0.52104 0.10187 0.61866 0.0
C204 C 0.46847 0.03568 0.6802 0.0
O205 O 0.47009 0.0635 0.69024 0.0
O206 O 0.46581 0.03009 0.65143 0.0
C207 C 0.48349 0.13371 0.7269 0.0
O208 O 0.5007 0.10902 0.73166 0.0
C209 C 0.41539 0.10708 0.62044 0.0
Zn210 Zn 0.89412 0.46565 0.64194 0.0
Zn211 Zn 0.85087 0.47097 0.6724 0.0
O212 O 0.84593 0.506 0.63945 0.0
O213 O 0.89557 0.51246 0.63739 0.0
O214 O 0.81429 0.47472 0.70175 0.0
O215 O 0.87315 0.43822 0.61061 0.0
O216 O 0.84344 0.42838 0.65066 0.0
C217 C 0.86889 0.52183 0.63015 0.0
C218 C 0.91691 0.46071 0.69751 0.0
O219 O 0.89108 0.47498 0.70054 0.0
O220 O 0.9222 0.44616 0.67251 0.0
C221 C 0.81579 0.48654 0.72887 0.0
O222 O 0.8419 0.49847 0.73878 0.0
C223 C 0.85278 0.42167 0.62331 0.0
Zn224 Zn 0.33412 0.48014 0.06554 0.0
Zn225 Zn 0.28967 0.48749 0.10683 0.0
O226 O 0.31094 0.44657 0.12062 0.0
O227 O 0.3487 0.4417 0.08642 0.0
O228 O 0.25696 0.49337 0.13954 0.0
O229 O 0.35268 0.52107 0.07622 0.0
O230 O 0.31619 0.52756 0.11156 0.0
C231 C 0.33423 0.43181 0.10981 0.0
C232 C 0.27412 0.4789 0.03795 0.0
O233 O 0.2647 0.48339 0.06571 0.0
O234 O 0.30266 0.47676 0.03198 0.0
C235 C 0.23667 0.47263 0.14377 0.0
O236 O 0.2368 0.44746 0.12635 0.0
C237 C 0.3403 0.53715 0.09755 0.0
Zn238 Zn 0.33421 0.46941 0.89239 0.0
Zn239 Zn 0.28961 0.46747 0.8506 0.0
O240 O 0.31135 0.50936 0.84073 0.0
O241 O 0.348 0.51041 0.87639 0.0
O242 O 0.25489 0.46371 0.81947 0.0
O243 O 0.35313 0.43037 0.87617 0.0
O244 O 0.3162 0.42802 0.84093 0.0
C245 C 0.33428 0.52276 0.85369 0.0
C246 C 0.27501 0.46783 0.92067 0.0
O247 O 0.26565 0.46774 0.8926 0.0
O248 O 0.30356 0.46802 0.92681 0.0
C249 C 0.24071 0.48687 0.8081 0.0
O250 O 0.24903 0.51512 0.81603 0.0
C251 C 0.34059 0.41688 0.85331 0.0
Zn252 Zn 0.48896 0.33378 0.89021 0.0
Zn253 Zn 0.48742 0.28667 0.85068 0.0
O254 O 0.44626 0.3087 0.84006 0.0
O255 O 0.44778 0.34779 0.87347 0.0
O256 O 0.48949 0.25091 0.82118 0.0
O257 O 0.52789 0.34986 0.87084 0.0
O258 O 0.52642 0.3109 0.83742 0.0
C259 C 0.43424 0.33314 0.85186 0.0
C260 C 0.48822 0.2755 0.92121 0.0
O261 O 0.48717 0.26492 0.8935 0.0
O262 O 0.49007 0.30439 0.92621 0.0
C263 C 0.46748 0.23191 0.81751 0.0
O264 O 0.44177 0.23551 0.83343 0.0
C265 C 0.53913 0.33551 0.84768 0.0
Zn266 Zn 0.61568 0.47077 0.88633 0.0
Zn267 Zn 0.6585 0.4847 0.85032 0.0
O268 O 0.63889 0.44368 0.83168 0.0
O269 O 0.60512 0.43089 0.86765 0.0
O270 O 0.69357 0.49395 0.82049 0.0
O271 O 0.5907 0.50761 0.87611 0.0
O272 O 0.63084 0.52513 0.85045 0.0
C273 C 0.61871 0.42499 0.84237 0.0
C274 C 0.67084 0.47445 0.91968 0.0
O275 O 0.68168 0.479 0.89252 0.0
O276 O 0.64216 0.47111 0.92373 0.0
C277 C 0.71026 0.47164 0.81043 0.0
O278 O 0.70417 0.44322 0.81931 0.0
C279 C 0.60368 0.52926 0.8615 0.0
Zn280 Zn 0.4583 0.64231 0.89464 0.0
Zn281 Zn 0.46319 0.66961 0.84915 0.0
O282 O 0.49874 0.63693 0.8451 0.0
O283 O 0.50492 0.63649 0.89518 0.0
O284 O 0.46566 0.69775 0.8118 0.0
O285 O 0.42995 0.61024 0.87673 0.0
O286 O 0.42084 0.64734 0.84329 0.0
C287 C 0.51452 0.62849 0.86857 0.0
C288 C 0.45477 0.69936 0.91422 0.0
O289 O 0.46829 0.70006 0.88782 0.0
O290 O 0.44007 0.67527 0.92145 0.0
C291 C 0.48362 0.72098 0.81109 0.0
O292 O 0.50249 0.72621 0.83443 0.0
C293 C 0.41377 0.62122 0.85499 0.0
Zn294 Zn 0.61777 0.47525 0.07833 0.0
Zn295 Zn 0.65958 0.47744 0.10953 0.0
O296 O 0.64251 0.52197 0.11808 0.0
O297 O 0.60067 0.51682 0.08959 0.0
O298 O 0.69077 0.46924 0.14294 0.0
O299 O 0.62403 0.44107 0.11499 0.0
O300 O 0.62422 0.44153 0.11484 0.0
C301 C 0.61722 0.533 0.10756 0.0
C302 C 0.67104 0.47251 0.04112 0.0
O303 O 0.68339 0.4753 0.06781 0.0
O304 O 0.64197 0.47111 0.03868 0.0
C305 C 0.71821 0.47927 0.14061 0.0
O306 O 0.72642 0.4951 0.11603 0.0
C307 C 0.62676 0.41342 0.10531 0.0
Zn308 Zn 0.48404 0.63162 0.05352 0.0
Zn309 Zn 0.48169 0.67491 0.09763 0.0
O310 O 0.44147 0.65041 0.10605 0.0
O311 O 0.4439 0.61443 0.06934 0.0
O312 O 0.48264 0.70681 0.1321 0.0
O313 O 0.52404 0.6148 0.06957 0.0
O314 O 0.52191 0.6501 0.10685 0.0
C315 C 0.43022 0.62664 0.09242 0.0
C316 C 0.48121 0.69255 0.02824 0.0
O317 O 0.48033 0.70074 0.0568 0.0
O318 O 0.48347 0.66421 0.02073 0.0
C319 C 0.46932 0.73309 0.1309 0.0
O320 O 0.45338 0.74075 0.10615 0.0
C321 C 0.5353 0.62703 0.0938 0.0
Zn322 Zn 0.46061 0.32826 0.06452 0.0
Zn323 Zn 0.46735 0.29033 0.10762 0.0
O324 O 0.50583 0.31783 0.11586 0.0
O325 O 0.50298 0.34456 0.07268 0.0
O326 O 0.46745 0.25818 0.14133 0.0
O327 O 0.42418 0.34985 0.08246 0.0
O328 O 0.42624 0.31369 0.1182 0.0
C329 C 0.51712 0.3379 0.0975 0.0
C330 C 0.46425 0.27062 0.03791 0.0
O331 O 0.47104 0.2643 0.06606 0.0
O332 O 0.45527 0.29756 0.03092 0.0
C333 C 0.48489 0.23442 0.14162 0.0
O334 O 0.50524 0.23011 0.1193 0.0
C335 C 0.4132 0.33746 0.10649 0.0
C336 C 0.13818 0.39257 0.37672 0.0
C337 C 0.11651 0.38896 0.35239 0.0
C338 C 0.10266 0.33765 0.37167 0.0
C339 C 0.11842 0.34482 0.39956 0.0
N340 N 0.15561 0.3752 0.42754 0.0
N341 N 0.08243 0.35671 0.32255 0.0
C342 C 0.13837 0.3707 0.40132 0.0
C343 C 0.10073 0.36056 0.34812 0.0
N344 N 0.15736 0.41764 0.37666 0.0
N345 N 0.08861 0.30949 0.3687 0.0
H346 H 0.0818 0.37306 0.30477 0.0
H347 H 0.06792 0.33787 0.3189 0.0
H348 H 0.09015 0.29277 0.38607 0.0
H349 H 0.07746 0.30184 0.34868 0.0
H350 H 0.17469 0.4215 0.39295 0.0
H351 H 0.15715 0.43366 0.35858 0.0
H352 H 0.1686 0.39496 0.43209 0.0
H353 H 0.15653 0.3587 0.44515 0.0
C354 C 0.58663 0.13058 0.40239 0.0
C355 C 0.61198 0.10968 0.40181 0.0
C356 C 0.5979 0.0919 0.34965 0.0
C357 C 0.57025 0.10943 0.35218 0.0
N358 N 0.5422 0.152 0.37504 0.0
N359 N 0.64747 0.07801 0.37263 0.0
C360 C 0.56619 0.13136 0.37651 0.0
C361 C 0.6197 0.09314 0.37434 0.0
N362 N 0.58118 0.14796 0.42854 0.0
N363 N 0.60214 0.07278 0.32451 0.0
H364 H 0.66351 0.07901 0.39073 0.0
H365 H 0.65563 0.06661 0.35284 0.0
H366 H 0.58688 0.07265 0.30572 0.0
H367 H 0.62016 0.05686 0.32233 0.0
H368 H 0.56145 0.1614 0.43215 0.0
H369 H 0.59661 0.14839 0.44718 0.0
H370 H 0.5385 0.16983 0.39107 0.0
H371 H 0.52717 0.15259 0.35608 0.0
C372 C 0.83967 0.61881 0.36958 0.0
C373 C 0.82586 0.61221 0.39852 0.0
C374 C 0.80712 0.56272 0.37807 0.0
C375 C 0.82776 0.56597 0.35279 0.0
N376 N 0.85887 0.59828 0.32029 0.0
N377 N 0.79071 0.5821 0.42885 0.0
C378 C 0.84182 0.59486 0.34675 0.0
C379 C 0.8068 0.58587 0.40185 0.0
N380 N 0.85207 0.64749 0.36513 0.0
N381 N 0.78917 0.53681 0.37968 0.0
H382 H 0.78978 0.59947 0.44587 0.0
H383 H 0.7785 0.56221 0.43451 0.0
H384 H 0.7895 0.51987 0.36218 0.0
H385 H 0.7727 0.53299 0.39683 0.0
H386 H 0.86179 0.65479 0.34434 0.0
H387 H 0.85045 0.66479 0.38223 0.0
H388 H 0.87215 0.61768 0.31538 0.0
H389 H 0.85974 0.58103 0.30311 0.0
C390 C 0.34637 0.86331 0.38514 0.0
C391 C 0.3536 0.84148 0.40858 0.0
C392 C 0.39987 0.8249 0.38006 0.0
C393 C 0.39417 0.84872 0.35821 0.0
N394 N 0.35872 0.88408 0.33421 0.0
N395 N 0.38117 0.79587 0.42451 0.0
C396 C 0.36607 0.8656 0.35878 0.0
C397 C 0.37833 0.82021 0.40457 0.0
N398 N 0.3219 0.88312 0.38914 0.0
N399 N 0.4268 0.80825 0.37843 0.0
H400 H 0.36542 0.79221 0.44251 0.0
H401 H 0.39725 0.77803 0.42177 0.0
H402 H 0.4424 0.81044 0.36008 0.0
H403 H 0.43428 0.79311 0.39558 0.0
H404 H 0.31744 0.90204 0.37493 0.0
H405 H 0.30646 0.8813 0.40765 0.0
H406 H 0.33759 0.89543 0.33178 0.0
H407 H 0.37303 0.8858 0.31475 0.0
C408 C 0.09328 0.58853 0.60743 0.0
C409 C 0.10876 0.5598 0.60314 0.0
C410 C 0.13 0.57719 0.55361 0.0
C411 C 0.11066 0.6037 0.55572 0.0
N412 N 0.08195 0.63994 0.58701 0.0
N413 N 0.14881 0.52999 0.57812 0.0
C414 C 0.09533 0.61133 0.5838 0.0
C415 C 0.1299 0.55546 0.57832 0.0
N416 N 0.07531 0.59295 0.63322 0.0
N417 N 0.14666 0.57208 0.52706 0.0
H418 H 0.14878 0.51396 0.59617 0.0
H419 H 0.16589 0.52579 0.56157 0.0
H420 H 0.14771 0.58849 0.50938 0.0
H421 H 0.15901 0.55184 0.52224 0.0
H422 H 0.06096 0.61207 0.63682 0.0
H423 H 0.07465 0.57681 0.65117 0.0
H424 H 0.07137 0.64795 0.60727 0.0
H425 H 0.08357 0.65664 0.56964 0.0
C426 C 0.33411 0.11014 0.59227 0.0
C427 C 0.3402 0.12571 0.56421 0.0
C428 C 0.38945 0.14407 0.58484 0.0
C429 C 0.38684 0.12166 0.60856 0.0
N430 N 0.3553 0.08865 0.63993 0.0
N431 N 0.36791 0.16491 0.5369 0.0
C432 C 0.35825 0.10703 0.61442 0.0
C433 C 0.36568 0.14597 0.56204 0.0
N434 N 0.30587 0.09675 0.59617 0.0
N435 N 0.41534 0.16202 0.58353 0.0
H436 H 0.35001 0.16669 0.52076 0.0
H437 H 0.38664 0.17918 0.53227 0.0
H438 H 0.43261 0.16069 0.6004 0.0
H439 H 0.41919 0.17903 0.56701 0.0
H440 H 0.29898 0.08533 0.6162 0.0
H441 H 0.28857 0.09903 0.57939 0.0
H442 H 0.336 0.07518 0.64467 0.0
H443 H 0.37274 0.08703 0.6566 0.0
C444 C 0.85684 0.36563 0.60889 0.0
C445 C 0.84118 0.3944 0.60599 0.0
C446 C 0.82015 0.37849 0.55564 0.0
C447 C 0.83919 0.35171 0.55667 0.0
N448 N 0.86792 0.31469 0.58641 0.0
N449 N 0.80116 0.42483 0.58239 0.0
C450 C 0.85465 0.34341 0.58435 0.0
C451 C 0.82022 0.39948 0.58132 0.0
N452 N 0.87529 0.36064 0.63413 0.0
N453 N 0.80368 0.38455 0.52928 0.0
H454 H 0.80108 0.4402 0.60127 0.0
H455 H 0.78402 0.42941 0.56611 0.0
H456 H 0.80249 0.3687 0.51084 0.0
H457 H 0.79175 0.40514 0.52531 0.0
H458 H 0.88998 0.34164 0.63649 0.0
H459 H 0.87625 0.37624 0.65279 0.0
H460 H 0.87828 0.30613 0.6064 0.0
H461 H 0.86634 0.29838 0.5684 0.0
C462 C 0.57102 0.83997 0.58403 0.0
C463 C 0.54772 0.86333 0.58587 0.0
C464 C 0.56702 0.8859 0.53817 0.0
C465 C 0.59312 0.86584 0.53835 0.0
N466 N 0.62281 0.82721 0.56609 0.0
N467 N 0.53305 0.91547 0.57113 0.0
C468 C 0.59606 0.84373 0.56263 0.0
C469 C 0.54882 0.88856 0.56507 0.0
N470 N 0.56885 0.81386 0.6016 0.0
N471 N 0.5582 0.90114 0.51189 0.0
H472 H 0.52149 0.91958 0.59207 0.0
H473 H 0.53504 0.93496 0.55705 0.0
H474 H 0.56823 0.89691 0.49021 0.0
H475 H 0.53804 0.91449 0.51092 0.0
H476 H 0.58367 0.7949 0.59879 0.0
H477 H 0.55071 0.81004 0.61702 0.0
H478 H 0.62693 0.81289 0.58505 0.0
H479 H 0.64203 0.8302 0.55184 0.0
C480 C 0.38784 0.0657 0.39778 0.0
C481 C 0.37005 0.09286 0.40276 0.0
C482 C 0.39452 0.11523 0.35651 0.0
C483 C 0.41669 0.0906 0.35639 0.0
N484 N 0.43934 0.04882 0.38666 0.0
N485 N 0.35834 0.14549 0.38786 0.0
C486 C 0.41474 0.0675 0.37968 0.0
C487 C 0.37368 0.11829 0.38229 0.0
N488 N 0.3794 0.03819 0.41073 0.0
N489 N 0.39256 0.13496 0.33196 0.0
H490 H 0.34295 0.1484 0.40632 0.0
H491 H 0.36265 0.16568 0.37546 0.0
H492 H 0.40628 0.13259 0.31216 0.0
H493 H 0.37514 0.1516 0.32994 0.0
H494 H 0.39115 0.01748 0.40597 0.0
H495 H 0.35873 0.03559 0.42298 0.0
H496 H 0.43876 0.03304 0.40491 0.0
H497 H 0.46149 0.05232 0.37781 0.0
C498 C 0.85228 0.35079 0.36504 0.0
C499 C 0.83596 0.35394 0.39342 0.0
C500 C 0.81316 0.40288 0.37637 0.0
C501 C 0.83339 0.40214 0.3505 0.0
N502 N 0.86456 0.3729 0.31457 0.0
N503 N 0.79414 0.37666 0.42249 0.0
C504 C 0.85006 0.37486 0.34273 0.0
C505 C 0.81367 0.37773 0.39756 0.0
N506 N 0.87119 0.32567 0.36062 0.0
N507 N 0.79522 0.42859 0.38146 0.0
H508 H 0.79451 0.35825 0.43809 0.0
H509 H 0.77633 0.39246 0.42658 0.0
H510 H 0.79395 0.4466 0.36541 0.0
H511 H 0.782 0.43242 0.40133 0.0
H512 H 0.88605 0.32281 0.3418 0.0
H513 H 0.87198 0.30745 0.37646 0.0
H514 H 0.87635 0.35335 0.30651 0.0
H515 H 0.86283 0.39059 0.29821 0.0
C516 C 0.58109 0.86168 0.33396 0.0
C517 C 0.5536 0.84571 0.34131 0.0
C518 C 0.57853 0.82292 0.38681 0.0
C519 C 0.60283 0.84445 0.38337 0.0
N520 N 0.631 0.88042 0.35206 0.0
N521 N 0.52675 0.80742 0.37114 0.0
C522 C 0.60566 0.86203 0.35589 0.0
C523 C 0.55286 0.82441 0.3662 0.0
N524 N 0.58291 0.87718 0.30647 0.0
N525 N 0.57977 0.80209 0.41052 0.0
H526 H 0.50824 0.80756 0.3556 0.0
H527 H 0.52308 0.79369 0.39054 0.0
H528 H 0.5986 0.80106 0.42564 0.0
H529 H 0.56369 0.78457 0.41386 0.0
H530 H 0.60263 0.88838 0.29861 0.0
H531 H 0.56488 0.87679 0.29034 0.0
H532 H 0.63358 0.89629 0.33419 0.0
H533 H 0.6496 0.87985 0.3675 0.0
C534 C 0.08726 0.60329 0.36519 0.0
C535 C 0.10649 0.60204 0.39175 0.0
C536 C 0.13223 0.55544 0.37157 0.0
C537 C 0.10956 0.55393 0.34794 0.0
N538 N 0.07247 0.57971 0.31575 0.0
N539 N 0.15311 0.58387 0.41593 0.0
C540 C 0.08968 0.57939 0.34235 0.0
C541 C 0.13136 0.58062 0.39317 0.0
N542 N 0.06562 0.62637 0.36308 0.0
N543 N 0.15299 0.53165 0.37436 0.0
H544 H 0.15253 0.60223 0.43187 0.0
H545 H 0.17275 0.57001 0.41777 0.0
H546 H 0.15437 0.5137 0.35797 0.0
H547 H 0.16843 0.52934 0.39271 0.0
H548 H 0.04873 0.62748 0.34595 0.0
H549 H 0.06461 0.64465 0.37915 0.0
H550 H 0.05814 0.59796 0.30922 0.0
H551 H 0.0744 0.56215 0.29898 0.0
C552 C 0.35377 0.8622 0.57397 0.0
C553 C 0.34083 0.83215 0.5749 0.0
C554 C 0.37789 0.81897 0.6162 0.0
C555 C 0.39435 0.84673 0.60997 0.0
N556 N 0.40193 0.88928 0.57405 0.0
N557 N 0.34127 0.78084 0.59684 0.0
C558 C 0.38352 0.86676 0.58623 0.0
C559 C 0.35304 0.81016 0.59612 0.0
N560 N 0.3372 0.88687 0.56321 0.0
N561 N 0.3849 0.80177 0.64177 0.0
H562 H 0.32239 0.77402 0.58339 0.0
H563 H 0.35144 0.76288 0.60932 0.0
H564 H 0.4021 0.80801 0.65753 0.0
H565 H 0.37172 0.78297 0.64893 0.0
H566 H 0.34568 0.90949 0.564 0.0
H567 H 0.31378 0.88527 0.55771 0.0
H568 H 0.39487 0.90291 0.5554 0.0
H569 H 0.42533 0.89137 0.57944 0.0
C570 C 0.09318 0.37007 0.61436 0.0
C571 C 0.11036 0.3974 0.60923 0.0
C572 C 0.13408 0.37384 0.56302 0.0
C573 C 0.11167 0.35009 0.56427 0.0
N574 N 0.07336 0.32181 0.59256 0.0
N575 N 0.15052 0.42444 0.58215 0.0
C576 C 0.09284 0.3466 0.59092 0.0
C577 C 0.13258 0.39862 0.58506 0.0
N578 N 0.07663 0.36737 0.64124 0.0
N579 N 0.15583 0.37299 0.53999 0.0
H580 H 0.15036 0.44227 0.59871 0.0
H581 H 0.16503 0.4286 0.56337 0.0
H582 H 0.15687 0.35486 0.52379 0.0
H583 H 0.174 0.38859 0.53826 0.0
H584 H 0.06458 0.34757 0.64754 0.0
H585 H 0.07701 0.38456 0.65848 0.0
H586 H 0.05661 0.31905 0.60967 0.0
H587 H 0.07387 0.30392 0.57605 0.0
C588 C 0.55193 0.13174 0.58036 0.0
C589 C 0.55126 0.11124 0.60588 0.0
C590 C 0.60245 0.09104 0.59221 0.0
C591 C 0.60108 0.10826 0.56436 0.0
N592 N 0.58047 0.15127 0.53583 0.0
N593 N 0.57836 0.07861 0.64174 0.0
C594 C 0.57791 0.13112 0.56003 0.0
C595 C 0.57769 0.09356 0.61388 0.0
N596 N 0.52686 0.15026 0.57476 0.0
N597 N 0.62662 0.07107 0.59675 0.0
H598 H 0.56025 0.08043 0.65772 0.0
H599 H 0.59737 0.0664 0.65006 0.0
H600 H 0.64549 0.07008 0.58161 0.0
H601 H 0.62796 0.05535 0.6149 0.0
H602 H 0.52407 0.16362 0.55494 0.0
H603 H 0.50826 0.15179 0.59019 0.0
H604 H 0.56534 0.16963 0.53191 0.0
H605 H 0.59942 0.15088 0.5208 0.0
C606 C 0.89051 0.5537 0.5864 0.0
C607 C 0.86564 0.54763 0.60719 0.0
C608 C 0.83471 0.58659 0.57917 0.0
C609 C 0.86107 0.59417 0.56111 0.0
N610 N 0.91684 0.59409 0.55893 0.0
N611 N 0.81677 0.56601 0.62824 0.0
C612 C 0.88995 0.58111 0.56904 0.0
C613 C 0.83844 0.56643 0.60519 0.0
N614 N 0.91313 0.53223 0.58032 0.0
N615 N 0.80617 0.59738 0.57108 0.0
H616 H 0.81965 0.55352 0.64866 0.0
H617 H 0.79779 0.581 0.62868 0.0
H618 H 0.8026 0.61215 0.55238 0.0
H619 H 0.78593 0.58979 0.58169 0.0
H620 H 0.93051 0.53603 0.56398 0.0
H621 H 0.91176 0.50914 0.5871 0.0
H622 H 0.93847 0.58578 0.56576 0.0
H623 H 0.91722 0.61504 0.54692 0.0
C624 C 0.37118 0.40294 0.1428 0.0
C625 C 0.34488 0.40235 0.12334 0.0
C626 C 0.35713 0.34952 0.10641 0.0
C627 C 0.38616 0.35251 0.12119 0.0
N628 N 0.41726 0.37589 0.16099 0.0
N629 N 0.30707 0.37308 0.09514 0.0
C630 C 0.39167 0.37703 0.14249 0.0
C631 C 0.33567 0.37455 0.10844 0.0
N632 N 0.37737 0.42919 0.15962 0.0
N633 N 0.35135 0.32364 0.08889 0.0
H634 H 0.29144 0.39157 0.09674 0.0
H635 H 0.29807 0.35335 0.08451 0.0
H636 H 0.36674 0.3049 0.08823 0.0
H637 H 0.33182 0.32063 0.07515 0.0
H638 H 0.39747 0.43274 0.17236 0.0
H639 H 0.36184 0.44781 0.16053 0.0
H640 H 0.42256 0.3924 0.17789 0.0
H641 H 0.43226 0.35685 0.16067 0.0
C642 C 0.35971 0.60424 0.86464 0.0
C643 C 0.38607 0.60379 0.84508 0.0
C644 C 0.36927 0.55498 0.82121 0.0
C645 C 0.34532 0.55346 0.8436 0.0
N646 N 0.31159 0.57937 0.87974 0.0
N647 N 0.41158 0.58477 0.79914 0.0
C648 C 0.33831 0.57935 0.86279 0.0
C649 C 0.38911 0.58126 0.82114 0.0
N650 N 0.35636 0.62757 0.8861 0.0
N651 N 0.37405 0.53035 0.80157 0.0
H652 H 0.42622 0.60395 0.79904 0.0
H653 H 0.41428 0.57025 0.7799 0.0
H654 H 0.35897 0.51152 0.80068 0.0
H655 H 0.39292 0.52816 0.78671 0.0
H656 H 0.33961 0.62789 0.90346 0.0
H657 H 0.37112 0.64666 0.8868 0.0
H658 H 0.30386 0.59805 0.89314 0.0
H659 H 0.2958 0.56115 0.87833 0.0
C660 C 0.40372 0.36859 0.81844 0.0
C661 C 0.40406 0.34516 0.84127 0.0
C662 C 0.35254 0.361 0.85888 0.0
C663 C 0.35566 0.38839 0.84132 0.0
N664 N 0.38039 0.41678 0.80059 0.0
N665 N 0.37764 0.31485 0.87946 0.0
C666 C 0.37969 0.39126 0.81919 0.0
C667 C 0.37763 0.33957 0.85979 0.0
N668 N 0.42703 0.3695 0.79703 0.0
N669 N 0.32596 0.35641 0.87533 0.0
H670 H 0.39544 0.2984 0.87939 0.0
H671 H 0.36055 0.31068 0.89589 0.0
H672 H 0.30755 0.37215 0.8745 0.0
H673 H 0.32116 0.33645 0.88781 0.0
H674 H 0.42787 0.38503 0.77869 0.0
H675 H 0.44466 0.35287 0.79649 0.0
H676 H 0.39862 0.42226 0.78589 0.0
H677 H 0.36232 0.43293 0.80027 0.0
C678 C 0.6184 0.36829 0.84122 0.0
C679 C 0.60981 0.39607 0.82633 0.0
C680 C 0.56099 0.3729 0.81009 0.0
C681 C 0.5662 0.34911 0.83201 0.0
N682 N 0.60121 0.31942 0.86324 0.0
N683 N 0.57792 0.42276 0.78988 0.0
C684 C 0.59581 0.34481 0.84525 0.0
C685 C 0.58304 0.39717 0.80764 0.0
N686 N 0.64752 0.36582 0.85312 0.0
N687 N 0.53432 0.37279 0.79316 0.0
H688 H 0.59454 0.44015 0.78795 0.0
H689 H 0.55791 0.42678 0.77714 0.0
H690 H 0.51821 0.35493 0.79497 0.0
H691 H 0.52888 0.38903 0.77626 0.0
H692 H 0.6562 0.34609 0.86386 0.0
H693 H 0.66367 0.38353 0.8502 0.0
H694 H 0.62141 0.31573 0.87579 0.0
H695 H 0.5849 0.3018 0.86551 0.0
C696 C 0.57444 0.56828 0.89151 0.0
C697 C 0.58816 0.56011 0.86283 0.0
C698 C 0.56015 0.6036 0.83919 0.0
C699 C 0.54082 0.6058 0.86607 0.0
N700 N 0.52517 0.57981 0.91373 0.0
N701 N 0.59284 0.56957 0.80786 0.0
C702 C 0.54685 0.58556 0.8914 0.0
C703 C 0.58096 0.57781 0.83612 0.0
N704 N 0.58683 0.55814 0.91879 0.0
N705 N 0.55955 0.62623 0.81722 0.0
H706 H 0.60839 0.55122 0.80497 0.0
H707 H 0.58566 0.57978 0.78719 0.0
H708 H 0.54644 0.64645 0.81965 0.0
H709 H 0.57483 0.62658 0.79849 0.0
H710 H 0.57813 0.56512 0.94038 0.0
H711 H 0.60766 0.5458 0.91955 0.0
H712 H 0.52887 0.56379 0.93141 0.0
H713 H 0.5021 0.58654 0.91186 0.0
C714 C 0.58314 0.56872 0.13712 0.0
C715 C 0.60666 0.56487 0.11462 0.0
C716 C 0.59089 0.61314 0.08966 0.0
C717 C 0.56326 0.61257 0.10727 0.0
N718 N 0.53405 0.59303 0.15053 0.0
N719 N 0.63679 0.58492 0.07257 0.0
C720 C 0.56011 0.59192 0.13257 0.0
C721 C 0.61226 0.58815 0.09236 0.0
N722 N 0.58249 0.54929 0.16201 0.0
N723 N 0.59592 0.63721 0.06988 0.0
H724 H 0.65319 0.56727 0.07517 0.0
H725 H 0.64067 0.59905 0.0535 0.0
H726 H 0.58029 0.65565 0.068 0.0
H727 H 0.61625 0.64025 0.05737 0.0
H728 H 0.56713 0.5516 0.18051 0.0
H729 H 0.59939 0.53222 0.16517 0.0
H730 H 0.52852 0.57654 0.16713 0.0
H731 H 0.51732 0.61034 0.14821 0.0
C732 C 0.37815 0.56796 0.12862 0.0
C733 C 0.35481 0.56714 0.10555 0.0
C734 C 0.37499 0.61438 0.08209 0.0
C735 C 0.40067 0.61273 0.10245 0.0
N736 N 0.42279 0.59472 0.15026 0.0
N737 N 0.32508 0.5933 0.06668 0.0
C738 C 0.40067 0.59195 0.12779 0.0
C739 C 0.35112 0.59195 0.08457 0.0
N740 N 0.37977 0.54461 0.14985 0.0
N741 N 0.37448 0.63651 0.05953 0.0
H742 H 0.30745 0.57696 0.06861 0.0
H743 H 0.31977 0.61145 0.0518 0.0
H744 H 0.39102 0.65404 0.05846 0.0
H745 H 0.35825 0.63743 0.04174 0.0
H746 H 0.39792 0.5416 0.16537 0.0
H747 H 0.36279 0.52757 0.15144 0.0
H748 H 0.42329 0.58163 0.17045 0.0
H749 H 0.43955 0.61203 0.14977 0.0
C750 C 0.57109 0.40436 0.09222 0.0
C751 C 0.59921 0.39286 0.10437 0.0
C752 C 0.57372 0.34289 0.11371 0.0
C753 C 0.54489 0.35656 0.10538 0.0
N754 N 0.51585 0.40393 0.0975 0.0
N755 N 0.62685 0.35176 0.13004 0.0
C756 C 0.54351 0.38859 0.09853 0.0
C757 C 0.60043 0.36223 0.11624 0.0
N758 N 0.57096 0.4284 0.07187 0.0
N759 N 0.5761 0.31157 0.1176 0.0
H760 H 0.64688 0.3651 0.13139 0.0
H761 H 0.62813 0.33086 0.14196 0.0
H762 H 0.5573 0.29667 0.11573 0.0
H763 H 0.59715 0.30013 0.12046 0.0
H764 H 0.55087 0.43638 0.06112 0.0
H765 H 0.59131 0.4361 0.0617 0.0
H766 H 0.51436 0.42785 0.09421 0.0
H767 H 0.49502 0.39341 0.10354 0.0
C768 C -0.00629 0.24841 0.44944 0.0
C769 C 0.00763 0.2531 0.47878 0.0
C770 C 0.95719 0.24976 0.50406 0.0
C771 C 0.94337 0.25395 0.47466 0.0
N772 N 0.94594 0.24893 0.41934 0.0
N773 N 0.0049 0.25026 0.53422 0.0
C774 C 0.96089 0.24953 0.44724 0.0
C775 C -0.00999 0.25012 0.50627 0.0
N776 N 0.0122 0.24505 0.42391 0.0
N777 N 0.93865 0.2476 0.52961 0.0
H778 H 0.02901 0.25003 0.53554 0.0
H779 H -0.00618 0.25041 0.55568 0.0
H780 H 0.91458 0.2475 0.52761 0.0
H781 H 0.9467 0.24416 0.55208 0.0
H782 H 0.00408 0.24132 0.40146 0.0
H783 H 0.03626 0.24436 0.42591 0.0
H784 H 0.95693 0.24775 0.39786 0.0
H785 H 0.92181 0.2493 0.41811 0.0
C786 C 0.71694 -0.00375 0.45048 0.0
C787 C 0.70798 0.00498 0.48097 0.0
C788 C 0.71537 0.95156 0.49809 0.0
C789 C 0.7137 0.94214 0.46665 0.0
N790 N 0.72435 0.95351 0.41355 0.0
N791 N 0.70555 -0.00667 0.53527 0.0
C792 C 0.71944 0.96406 0.44312 0.0
C793 C 0.7104 -0.01658 0.50547 0.0
N794 N 0.72065 0.01863 0.42857 0.0
N795 N 0.72021 0.92987 0.52044 0.0
H796 H 0.70278 0.01686 0.54067 0.0
H797 H 0.70377 -0.02144 0.55419 0.0
H798 H 0.72478 0.90674 0.51467 0.0
H799 H 0.72274 0.93517 0.54394 0.0
H800 H 0.72694 0.01424 0.40562 0.0
H801 H 0.71885 0.04218 0.43416 0.0
H802 H 0.72709 0.96766 0.3943 0.0
H803 H 0.72608 0.92974 0.40876 0.0
C804 C 0.95543 0.70569 0.5095 0.0
C805 C 0.93911 0.70446 0.48113 0.0
C806 C -0.01278 0.70861 0.45197 0.0
C807 C 0.00321 0.70143 0.47962 0.0
N808 N 0.00566 0.70306 0.53515 0.0
N809 N 0.93709 0.71594 0.42701 0.0
C810 C -0.01173 0.7042 0.50874 0.0
C811 C 0.95442 0.71064 0.4529 0.0
N812 N 0.93914 0.70552 0.53666 0.0
N813 N 0.00347 0.71091 0.42489 0.0
H814 H 0.91298 0.7171 0.42825 0.0
H815 H 0.94618 0.72051 0.40515 0.0
H816 H 0.02759 0.7097 0.4246 0.0
H817 H -0.00648 0.71453 0.40324 0.0
H818 H 0.94907 0.70507 0.55865 0.0
H819 H 0.91501 0.70671 0.53675 0.0
H820 H -0.0033 0.70427 0.55756 0.0
H821 H 0.02978 0.70204 0.53418 0.0
C822 C 0.26097 -0.01228 0.45422 0.0
C823 C 0.26386 0.00592 0.48148 0.0
C824 C 0.25955 0.95958 0.51351 0.0
C825 C 0.26444 0.94133 0.48645 0.0
N826 N 0.2637 0.93619 0.43078 0.0
N827 N 0.25923 0.01135 0.53671 0.0
C828 C 0.26227 0.9548 0.45658 0.0
C829 C 0.26002 -0.00754 0.51108 0.0
N830 N 0.25846 0.00232 0.42631 0.0
N831 N 0.25565 0.94513 0.54135 0.0
H832 H 0.2587 0.03549 0.53478 0.0
H833 H 0.25917 0.00352 0.5595 0.0
H834 H 0.25509 0.92097 0.543 0.0
H835 H 0.25101 0.9566 0.5622 0.0
H836 H 0.25517 -0.00904 0.40516 0.0
H837 H 0.25757 0.02649 0.42491 0.0
H838 H 0.26522 0.94432 0.40815 0.0
H839 H 0.26344 0.91205 0.4322 0.0
C840 C 0.44754 0.97389 0.24631 0.0
C841 C 0.47155 0.95149 0.24722 0.0
C842 C 0.509 -0.00946 0.23153 0.0
C843 C 0.48657 0.01353 0.23845 0.0
N844 N 0.43294 0.02732 0.23525 0.0
N845 N 0.52197 0.93542 0.22995 0.0
C846 C 0.45508 0.00516 0.23947 0.0
C847 C 0.50117 0.95874 0.23536 0.0
N848 N 0.41822 0.96542 0.25416 0.0
N849 N 0.5382 -0.00021 0.2242 0.0
H850 H 0.51612 0.91214 0.23268 0.0
H851 H 0.54407 0.93876 0.22109 0.0
H852 H 0.54332 0.02328 0.22139 0.0
H853 H 0.55684 -0.01517 0.22079 0.0
H854 H 0.40007 -0.01891 0.25727 0.0
H855 H 0.41251 0.94228 0.25818 0.0
H856 H 0.40936 0.02264 0.2346 0.0
H857 H 0.43872 0.04994 0.22913 0.0
C858 C 0.95277 0.45091 0.25385 0.0
C859 C 0.94094 0.48115 0.25908 0.0
C860 C -0.00724 0.50273 0.25404 0.0
C861 C 0.00474 0.47243 0.25772 0.0
N862 N -0.00156 0.4175 0.25313 0.0
N863 N 0.94721 0.5362 0.25646 0.0
C864 C -0.01464 0.44637 0.25402 0.0
C865 C 0.96022 0.50729 0.25571 0.0
N866 N 0.93265 0.42679 0.25072 0.0
N867 N 0.01281 0.52689 0.25105 0.0
H868 H 0.92324 0.53928 0.25698 0.0
H869 H 0.95966 0.55678 0.25645 0.0
H870 H 0.03668 0.52327 0.24992 0.0
H871 H 0.00609 0.54982 0.2478 0.0
H872 H 0.93929 0.40394 0.24638 0.0
H873 H 0.90876 0.43033 0.25062 0.0
H874 H -0.01396 0.39689 0.25271 0.0
H875 H 0.02243 0.41453 0.25267 0.0
C876 C 0.50716 0.96484 0.70764 0.0
C877 C 0.48125 0.9451 0.70556 0.0
C878 C 0.44638 -0.01034 0.70631 0.0
C879 C 0.47223 0.0089 0.70106 0.0
N880 N 0.52658 0.01785 0.70724 0.0
N881 N 0.42759 0.93752 0.71667 0.0
C882 C 0.50253 -0.00251 0.70608 0.0
C883 C 0.45125 0.95728 0.71028 0.0
N884 N 0.53594 0.95179 0.70835 0.0
N885 N 0.41741 0.00228 0.70516 0.0
H886 H 0.43148 0.91384 0.7198 0.0
H887 H 0.40506 0.94469 0.72139 0.0
H888 H 0.41397 0.02618 0.70315 0.0
H889 H 0.39714 -0.01059 0.70583 0.0
H890 H 0.55647 0.96422 0.70766 0.0
H891 H 0.53884 0.92776 0.70983 0.0
H892 H 0.54945 0.01147 0.71115 0.0
H893 H 0.52307 0.04179 0.70606 0.0
C894 C 0.96514 0.44199 0.72179 0.0
C895 C 0.94403 0.46681 0.71783 0.0
C896 C -0.01332 0.50326 0.71326 0.0
C897 C 0.00706 0.47768 0.70964 0.0
N898 N 0.01885 0.42445 0.72051 0.0
N899 N 0.93468 0.52111 0.72616 0.0
C900 C -0.00263 0.4476 0.71815 0.0
C901 C 0.95492 0.49762 0.7196 0.0
N902 N 0.95364 0.41296 0.72636 0.0
N903 N -0.00249 0.5325 0.70838 0.0
H904 H 0.91172 0.5167 0.73202 0.0
H905 H 0.94121 0.54417 0.72899 0.0
H906 H 0.02099 0.53672 0.70475 0.0
H907 H -0.01655 0.55212 0.70728 0.0
H908 H 0.96702 0.39291 0.72766 0.0
H909 H 0.92993 0.40942 0.72923 0.0
H910 H 0.01378 0.40174 0.7266 0.0
H911 H 0.04243 0.42872 0.71785 0.0
C912 C 0.24713 0.49864 0.96027 0.0
C913 C 0.25347 0.46909 0.94723 0.0
C914 C 0.24996 0.44556 -0.00156 0.0
C915 C 0.2527 0.47557 0.01153 0.0
N916 N 0.24501 0.53036 0.00747 0.0
N917 N 0.25225 0.41381 0.9513 0.0
C918 C 0.24729 0.50206 -0.00681 0.0
C919 C 0.251 0.44218 0.96556 0.0
N920 N 0.24325 0.52327 0.94093 0.0
N921 N 0.24871 0.42068 0.01779 0.0
H922 H 0.25266 0.41172 0.92709 0.0
H923 H 0.25249 0.39277 0.96294 0.0
H924 H 0.24816 0.42364 0.04192 0.0
H925 H 0.24666 0.39778 0.01034 0.0
H926 H 0.23852 0.5458 0.94839 0.0
H927 H 0.24327 0.52039 0.9168 0.0
H928 H 0.2429 0.55131 -0.00415 0.0
H929 H 0.24484 0.53244 0.03167 0.0
C930 C 0.5096 0.25339 0.96991 0.0
C931 C 0.48487 0.25506 0.94847 0.0
C932 C 0.44786 0.24421 -0.01018 0.0
C933 C 0.47167 0.24956 0.01162 0.0
N934 N 0.52556 0.24534 0.02356 0.0
N935 N 0.43266 0.2414 0.93535 0.0
C936 C 0.50284 0.24873 0.00188 0.0
C937 C 0.45472 0.24612 0.95753 0.0
N938 N 0.53904 0.2584 0.95973 0.0
N939 N 0.41849 0.24007 0.00055 0.0
H940 H 0.43764 0.24274 0.91168 0.0
H941 H 0.41024 0.2342 0.94006 0.0
H942 H 0.41398 0.23831 0.02434 0.0
H943 H 0.39902 0.23845 -0.01351 0.0
H944 H 0.55807 0.26064 0.97432 0.0
H945 H 0.5441 0.26076 0.93613 0.0
H946 H 0.54896 0.24346 0.01823 0.0
H947 H 0.52035 0.2417 0.04693 0.0
C948 C 0.69555 0.50119 0.96398 0.0
C949 C 0.69059 0.47316 0.94755 0.0
C950 C 0.69266 0.444 -0.00408 0.0
C951 C 0.68947 0.4724 0.01226 0.0
N952 N 0.69474 0.52777 0.01419 0.0
N953 N 0.69258 0.41771 0.94551 0.0
C954 C 0.69413 0.50099 -0.00298 0.0
C955 C 0.69276 0.44436 0.96289 0.0
N956 N 0.69974 0.52786 0.94766 0.0
N957 N 0.69384 0.41701 0.01228 0.0
H958 H 0.69325 0.41829 0.92125 0.0
H959 H 0.69218 0.39547 0.95465 0.0
H960 H 0.69394 0.41703 0.03655 0.0
H961 H 0.6963 0.3951 0.00229 0.0
H962 H 0.70414 0.5494 0.95773 0.0
H963 H 0.70072 0.52772 0.92342 0.0
H964 H 0.69557 0.5499 0.00482 0.0
H965 H 0.69447 0.52756 0.03845 0.0
C966 C 0.43898 0.72639 0.96251 0.0
C967 C 0.46235 0.72116 0.94004 0.0
C968 C 0.50125 0.71787 -0.01925 0.0
C969 C 0.47706 0.715 0.00271 0.0
N970 N 0.42481 0.7271 0.01739 0.0
N971 N 0.51567 0.72897 0.92725 0.0
C972 C 0.44654 0.72371 -0.00541 0.0
C973 C 0.49364 0.72319 0.94909 0.0
N974 N 0.40944 0.73113 0.9525 0.0
N975 N 0.53104 0.71323 -0.00994 0.0
H976 H 0.50973 0.73409 0.90436 0.0
H977 H 0.53899 0.73186 0.93237 0.0
H978 H 0.53665 0.71032 0.01347 0.0
H979 H 0.54973 0.71167 0.97488 0.0
H980 H 0.39032 0.73345 0.96701 0.0
H981 H 0.40451 0.73313 0.92882 0.0
H982 H 0.40189 0.73325 0.01345 0.0
H983 H 0.43047 0.72528 0.04087 0.0
C984 C 0.19911 0.21873 0.48731 0.0
C985 C 0.1733 0.21333 0.46764 0.0
C986 C 0.1935 0.16136 0.45488 0.0
C987 C 0.21756 0.16571 0.47683 0.0
N988 N 0.24169 0.19697 0.51668 0.0
N989 N 0.14302 0.17778 0.43671 0.0
C990 C 0.21978 0.19389 0.49398 0.0
C991 C 0.16978 0.18423 0.45232 0.0
N992 N 0.20487 0.24803 0.49825 0.0
N993 N 0.19327 0.13535 0.43648 0.0
H994 H 0.12473 0.19351 0.43501 0.0
H995 H 0.13765 0.15591 0.42787 0.0
H996 H 0.20936 0.11741 0.43868 0.0
H997 H 0.17852 0.13252 0.41757 0.0
H998 H 0.22504 0.25415 0.50991 0.0
H999 H 0.19089 0.26709 0.49317 0.0
H1000 H 0.24195 0.21529 0.53261 0.0
H1001 H 0.25857 0.1802 0.52097 0.0
C1002 C 0.73747 0.19372 0.48822 0.0
C1003 C 0.74271 0.16526 0.47213 0.0
C1004 C 0.79614 0.18075 0.46143 0.0
C1005 C 0.79169 0.20781 0.47989 0.0
N1006 N 0.76002 0.23748 0.51556 0.0
N1007 N 0.77875 0.12882 0.44903 0.0
C1008 C 0.76287 0.21359 0.49464 0.0
C1009 C 0.77253 0.15797 0.46024 0.0
N1010 N 0.70805 0.20246 0.49614 0.0
N1011 N 0.82244 0.17731 0.44406 0.0
H1012 H 0.76241 0.11111 0.44856 0.0
H1013 H 0.8009 0.12126 0.44308 0.0
H1014 H 0.84024 0.19354 0.44411 0.0
H1015 H 0.82537 0.1598 0.42747 0.0
H1016 H 0.70247 0.22437 0.50493 0.0
H1017 H 0.6887 0.18895 0.49125 0.0
H1018 H 0.74062 0.24076 0.52959 0.0
H1019 H 0.77815 0.25244 0.521 0.0
C1020 C 0.77338 0.75645 0.45614 0.0
C1021 C 0.78599 0.74421 0.48391 0.0
C1022 C 0.74863 0.77496 0.51429 0.0
C1023 C 0.7392 0.79029 0.48678 0.0
N1024 N 0.74798 0.80012 0.43222 0.0
N1025 N 0.78893 0.74562 0.53998 0.0
C1026 C 0.75297 0.78225 0.45784 0.0
C1027 C 0.77445 0.75437 0.51321 0.0
N1028 N 0.77995 0.74278 0.42811 0.0
N1029 N 0.73239 0.77931 0.54125 0.0
H1030 H 0.80834 0.73121 0.54025 0.0
H1031 H 0.78346 0.75499 0.5617 0.0
H1032 H 0.713 0.79371 0.54279 0.0
H1033 H 0.7363 0.76634 0.56119 0.0
H1034 H 0.76896 0.74904 0.40754 0.0
H1035 H 0.79367 0.72292 0.42588 0.0
H1036 H 0.76008 0.79699 0.41147 0.0
H1037 H 0.73435 0.82013 0.43255 0.0
C1038 C 0.18867 0.73507 0.47304 0.0
C1039 C 0.16129 0.73945 0.4908 0.0
C1040 C 0.17668 0.79288 0.50261 0.0
C1041 C 0.20231 0.78942 0.48226 0.0
N1042 N 0.22901 0.75935 0.44292 0.0
N1043 N 0.12585 0.7746 0.51677 0.0
C1044 C 0.20725 0.76111 0.46594 0.0
C1045 C 0.15431 0.76894 0.50403 0.0
N1046 N 0.19772 0.70589 0.4641 0.0
N1047 N 0.17431 0.81836 0.52161 0.0
H1048 H 0.10837 0.75805 0.51741 0.0
H1049 H 0.11852 0.79661 0.52382 0.0
H1050 H 0.19049 0.83622 0.52181 0.0
H1051 H 0.15791 0.82035 0.53927 0.0
H1052 H 0.21907 0.70112 0.45387 0.0
H1053 H 0.18538 0.68599 0.46975 0.0
H1054 H 0.23136 0.74023 0.42812 0.0
H1055 H 0.24262 0.77816 0.43651 0.0
C1056 C 0.47583 0.19846 0.22162 0.0
C1057 C 0.47199 0.1667 0.21362 0.0
C1058 C 0.47377 0.17989 0.15832 0.0
C1059 C 0.48103 0.21101 0.16636 0.0
N1060 N 0.49463 0.24875 0.20572 0.0
N1061 N 0.47424 0.12628 0.17436 0.0
C1062 C 0.48361 0.22001 0.19806 0.0
C1063 C 0.47282 0.15712 0.18196 0.0
N1064 N 0.47095 0.20827 0.25152 0.0
N1065 N 0.46653 0.17222 0.12832 0.0
H1066 H 0.47475 0.10871 0.19086 0.0
H1067 H 0.47816 0.11822 0.1518 0.0
H1068 H 0.46622 0.18828 0.11034 0.0
H1069 H 0.45782 0.15061 0.12188 0.0
H1070 H 0.47029 0.23159 0.25805 0.0
H1071 H 0.46456 0.1933 0.26931 0.0
H1072 H 0.50006 0.25538 0.22838 0.0
H1073 H 0.50121 0.26497 0.18915 0.0
C1074 C 0.75407 0.47706 0.22109 0.0
C1075 C 0.78367 0.46444 0.2142 0.0
C1076 C 0.76861 0.4577 0.1597 0.0
C1077 C 0.74061 0.47386 0.16594 0.0
N1078 N 0.70909 0.50404 0.20148 0.0
N1079 N 0.82116 0.44734 0.17602 0.0
C1080 C 0.73392 0.48491 0.19636 0.0
C1081 C 0.79152 0.45586 0.18326 0.0
N1082 N 0.74473 0.48054 0.25129 0.0
N1083 N 0.77292 0.44323 0.13163 0.0
H1084 H 0.83882 0.44623 0.19244 0.0
H1085 H 0.82891 0.44413 0.15329 0.0
H1086 H 0.7565 0.44368 0.11391 0.0
H1087 H 0.79144 0.42836 0.12699 0.0
H1088 H 0.72224 0.48667 0.25758 0.0
H1089 H 0.75844 0.47417 0.27013 0.0
H1090 H 0.70513 0.51546 0.22255 0.0
H1091 H 0.69408 0.51099 0.18389 0.0
C1092 C 0.46203 0.74676 0.18721 0.0
C1093 C 0.47251 0.75521 0.15721 0.0
C1094 C 0.48776 0.80622 0.17733 0.0
C1095 C 0.48057 0.79647 0.20793 0.0
N1096 N 0.466 0.75535 0.24273 0.0
N1097 N 0.50072 0.79066 0.12472 0.0
C1098 C 0.46901 0.76616 0.21311 0.0
C1099 C 0.48684 0.78433 0.1525 0.0
N1100 N 0.44451 0.72072 0.19084 0.0
N1101 N 0.49418 0.83669 0.17168 0.0
H1102 H 0.50095 0.77512 0.10602 0.0
H1103 H 0.51448 0.81009 0.12121 0.0
H1104 H 0.49411 0.85376 0.189 0.0
H1105 H 0.49645 0.84563 0.14938 0.0
H1106 H 0.43345 0.7152 0.21157 0.0
H1107 H 0.43856 0.70611 0.17237 0.0
H1108 H 0.4608 0.73236 0.24777 0.0
H1109 H 0.47162 0.76849 0.26236 0.0
C1110 C 0.19623 0.46052 0.22137 0.0
C1111 C 0.173 0.48389 0.21991 0.0
C1112 C 0.19104 0.4993 0.16819 0.0
C1113 C 0.21424 0.47596 0.16959 0.0
N1114 N 0.24168 0.43647 0.19791 0.0
N1115 N 0.14471 0.52219 0.19083 0.0
C1116 C 0.21736 0.45683 0.19616 0.0
C1117 C 0.16958 0.50257 0.19311 0.0
N1118 N 0.19794 0.44186 0.24691 0.0
N1119 N 0.18989 0.51863 0.14313 0.0
H1120 H 0.12833 0.52498 0.20845 0.0
H1121 H 0.13877 0.53414 0.1708 0.0
H1122 H 0.20383 0.51566 0.12353 0.0
H1123 H 0.1763 0.53856 0.14214 0.0
H1124 H 0.21175 0.42214 0.24839 0.0
H1125 H 0.18453 0.44536 0.26678 0.0
H1126 H 0.24735 0.4237 0.21749 0.0
H1127 H 0.25776 0.43333 0.18008 0.0
C1128 C 0.47139 0.77476 0.79277 0.0
C1129 C 0.48081 0.74391 0.7857 0.0
C1130 C 0.48077 0.75609 0.73005 0.0
C1131 C 0.47394 0.78757 0.73741 0.0
N1132 N 0.46966 0.82822 0.77613 0.0
N1133 N 0.49968 0.70639 0.74832 0.0
C1134 C 0.47122 0.7973 0.76889 0.0
C1135 C 0.48699 0.73488 0.7545 0.0
N1136 N 0.46122 0.78228 0.82198 0.0
N1137 N 0.47999 0.74612 0.69983 0.0
H1138 H 0.50465 0.69033 0.76564 0.0
H1139 H 0.50779 0.69972 0.72646 0.0
H1140 H 0.47523 0.76083 0.6813 0.0
H1141 H 0.48142 0.72283 0.69331 0.0
H1142 H 0.45084 0.80348 0.8275 0.0
H1143 H 0.46032 0.76638 0.84009 0.0
H1144 H 0.47091 0.83676 0.79881 0.0
H1145 H 0.47033 0.84559 0.75941 0.0
C1146 C 0.18486 0.495 0.79408 0.0
C1147 C 0.21422 0.4819 0.78676 0.0
C1148 C 0.19205 0.45654 0.74066 0.0
C1149 C 0.16366 0.47209 0.74641 0.0
N1150 N 0.13392 0.50965 0.77569 0.0
N1151 N 0.24719 0.45459 0.75028 0.0
C1152 C 0.16033 0.4924 0.77227 0.0
C1153 C 0.21821 0.46371 0.75933 0.0
N1154 N 0.17991 0.50851 0.82253 0.0
N1155 N 0.19387 0.43457 0.71762 0.0
H1156 H 0.26708 0.46012 0.76279 0.0
H1157 H 0.25193 0.44408 0.72893 0.0
H1158 H 0.17534 0.42921 0.70306 0.0
H1159 H 0.21287 0.41994 0.71454 0.0
H1160 H 0.15819 0.51556 0.83038 0.0
H1161 H 0.19691 0.51001 0.83963 0.0
H1162 H 0.13158 0.52754 0.79194 0.0
H1163 H 0.11508 0.50769 0.76068 0.0
C1164 C 0.48777 0.18929 0.7429 0.0
C1165 C 0.48065 0.15829 0.75086 0.0
C1166 C 0.46713 0.17517 0.80365 0.0
C1167 C 0.47083 0.2065 0.79449 0.0
N1168 N 0.47818 0.24364 0.75342 0.0
N1169 N 0.45799 0.12225 0.78696 0.0
C1170 C 0.47936 0.21366 0.76354 0.0
C1171 C 0.46883 0.15129 0.78076 0.0
N1172 N 0.50353 0.1954 0.71609 0.0
N1173 N 0.46325 0.16806 0.8343 0.0
H1174 H 0.45834 0.10417 0.77073 0.0
H1175 H 0.44605 0.11689 0.80724 0.0
H1176 H 0.46246 0.1848 0.85192 0.0
H1177 H 0.46374 0.14542 0.84257 0.0
H1178 H 0.51205 0.21728 0.71075 0.0
H1179 H 0.51094 0.17804 0.70073 0.0
H1180 H 0.48118 0.24969 0.73022 0.0
H1181 H 0.47097 0.26214 0.76746 0.0
C1182 C 0.73397 0.49296 0.76142 0.0
C1183 C 0.73748 0.47746 0.79023 0.0
C1184 C 0.79179 0.46639 0.77778 0.0
C1185 C 0.789 0.48408 0.75026 0.0
N1186 N 0.75918 0.51905 0.71861 0.0
N1187 N 0.77151 0.45595 0.82902 0.0
C1188 C 0.76057 0.49881 0.74286 0.0
C1189 C 0.76692 0.46605 0.79934 0.0
N1190 N 0.70515 0.50074 0.751 0.0
N1191 N 0.81763 0.44873 0.78274 0.0
H1192 H 0.7542 0.45633 0.84591 0.0
H1193 H 0.79322 0.45031 0.83782 0.0
H1194 H 0.83621 0.44779 0.76731 0.0
H1195 H 0.81936 0.4327 0.80065 0.0
H1196 H 0.70091 0.509 0.72873 0.0
H1197 H 0.68502 0.49639 0.76354 0.0
H1198 H 0.74002 0.53304 0.71414 0.0
H1199 H 0.77819 0.52395 0.70459 0.0
loop_
_geom_bond_atom_site_label_1
_geom_bond_atom_site_label_2
_geom_bond_distance
_geom_bond_site_symmetry_2
_ccdc_geom_bond_type
Zn0 O3 2.031 . S
Zn0 O5 2.049 . S
Zn0 O10 2.067 . S
Zn1 O2 1.962 . S
Zn1 O4 1.986 . S
Zn1 O6 1.996 . S
Zn1 O9 1.943 . S
O2 Zn1 1.962 . S
O2 C7 1.254 . S
O3 Zn0 2.031 . S
O3 C7 1.269 . S
O4 Zn1 1.986 . S
O4 C11 1.262 . S
O5 Zn0 2.049 . S
O5 C13 1.260 . S
O6 Zn1 1.996 . S
O6 C13 1.257 . S
C7 O2 1.254 . S
C7 O3 1.269 . S
C8 O9 1.249 . S
C8 O10 1.270 . S
O9 Zn1 1.943 . S
O9 C8 1.249 . S
O10 Zn0 2.067 . S
O10 C8 1.270 . S
C11 O4 1.262 . S
C11 O12 1.232 . S
O12 C11 1.232 . S
C13 O5 1.260 . S
C13 O6 1.257 . S
Zn14 O17 2.031 . S
Zn14 O19 2.049 . S
Zn14 O24 2.067 . S
Zn15 O16 1.962 . S
Zn15 O18 1.986 . S
Zn15 O20 1.996 . S
Zn15 O23 1.943 . S
O16 Zn15 1.962 . S
O16 C21 1.254 . S
O17 Zn14 2.031 . S
O17 C21 1.269 . S
O18 Zn15 1.986 . S
O18 C25 1.262 . S
O19 Zn14 2.049 . S
O19 C27 1.260 . S
O20 Zn15 1.996 . S
O20 C27 1.257 . S
C21 O16 1.254 . S
C21 O17 1.269 . S
C22 O23 1.249 . S
C22 O24 1.270 . S
O23 Zn15 1.943 . S
O23 C22 1.249 . S
O24 Zn14 2.067 . S
O24 C22 1.270 . S
C25 O18 1.262 . S
C25 O26 1.232 . S
O26 C25 1.232 . S
C27 O19 1.260 . S
C27 O20 1.257 . S
Zn28 O31 2.031 . S
Zn28 O33 2.049 . S
Zn28 O38 2.067 . S
Zn29 O30 1.962 . S
Zn29 O32 1.986 . S
Zn29 O34 1.996 . S
Zn29 O37 1.943 . S
O30 Zn29 1.962 . S
O30 C35 1.254 . S
O31 Zn28 2.031 . S
O31 C35 1.269 . S
O32 Zn29 1.986 . S
O32 C39 1.262 . S
O33 Zn28 2.049 . S
O33 C41 1.260 . S
O34 Zn29 1.996 . S
O34 C41 1.257 . S
C35 O30 1.254 . S
C35 O31 1.269 . S
C36 O37 1.249 . S
C36 O38 1.270 . S
O37 Zn29 1.943 . S
O37 C36 1.249 . S
O38 Zn28 2.067 . S
O38 C36 1.270 . S
C39 O32 1.262 . S
C39 O40 1.232 . S
O40 C39 1.232 . S
C41 O33 1.260 . S
C41 O34 1.257 . S
Zn42 O45 2.031 . S
Zn42 O47 2.049 . S
Zn42 O52 2.067 . S
Zn43 O44 1.962 . S
Zn43 O46 1.986 . S
Zn43 O48 1.996 . S
Zn43 O51 1.943 . S
O44 Zn43 1.962 . S
O44 C49 1.254 . S
O45 Zn42 2.031 . S
O45 C49 1.269 . S
O46 Zn43 1.986 . S
O46 C53 1.262 . S
O47 Zn42 2.049 . S
O47 C55 1.260 . S
O48 Zn43 1.996 . S
O48 C55 1.257 . S
C49 O44 1.254 . S
C49 O45 1.269 . S
C50 O51 1.249 . S
C50 O52 1.270 . S
O51 Zn43 1.943 . S
O51 C50 1.249 . S
O52 Zn42 2.067 . S
O52 C50 1.270 . S
C53 O46 1.262 . S
C53 O54 1.232 . S
O54 C53 1.232 . S
C55 O47 1.260 . S
C55 O48 1.257 . S
Zn56 O59 2.031 . S
Zn56 O61 2.049 . S
Zn56 O66 2.067 . S
Zn57 O58 1.962 . S
Zn57 O60 1.986 . S
Zn57 O62 1.996 . S
Zn57 O65 1.943 . S
O58 Zn57 1.962 . S
O58 C63 1.254 . S
O59 Zn56 2.031 . S
O59 C63 1.269 . S
O60 Zn57 1.986 . S
O60 C67 1.262 . S
O61 Zn56 2.049 . S
O61 C69 1.260 . S
O62 Zn57 1.996 . S
O62 C69 1.257 . S
C63 O58 1.254 . S
C63 O59 1.269 . S
C64 O65 1.249 . S
C64 O66 1.270 . S
O65 Zn57 1.943 . S
O65 C64 1.249 . S
O66 Zn56 2.067 . S
O66 C64 1.270 . S
C67 O60 1.262 . S
C67 O68 1.232 . S
O68 C67 1.232 . S
C69 O61 1.260 . S
C69 O62 1.257 . S
Zn70 O73 2.031 . S
Zn70 O75 2.049 . S
Zn70 O80 2.067 . S
Zn71 O72 1.962 . S
Zn71 O74 1.986 . S
Zn71 O76 1.996 . S
Zn71 O79 1.943 . S
O72 Zn71 1.962 . S
O72 C77 1.254 . S
O73 Zn70 2.031 . S
O73 C77 1.269 . S
O74 Zn71 1.986 . S
O74 C81 1.262 . S
O75 Zn70 2.049 . S
O75 C83 1.260 . S
O76 Zn71 1.996 . S
O76 C83 1.257 . S
C77 O72 1.254 . S
C77 O73 1.269 . S
C78 O79 1.249 . S
C78 O80 1.270 . S
O79 Zn71 1.943 . S
O79 C78 1.249 . S
O80 Zn70 2.067 . S
O80 C78 1.270 . S
C81 O74 1.262 . S
C81 O82 1.232 . S
O82 C81 1.232 . S
C83 O75 1.260 . S
C83 O76 1.257 . S
Zn84 O87 2.031 . S
Zn84 O89 2.049 . S
Zn84 O94 2.067 . S
Zn85 O86 1.962 . S
Zn85 O88 1.986 . S
Zn85 O90 1.996 . S
Zn85 O93 1.943 . S
O86 Zn85 1.962 . S
O86 C91 1.254 . S
O87 Zn84 2.031 . S
O87 C91 1.269 . S
O88 Zn85 1.986 . S
O88 C95 1.262 . S
O89 Zn84 2.049 . S
O89 C97 1.260 . S
O90 Zn85 1.996 . S
O90 C97 1.257 . S
C91 O86 1.254 . S
C91 O87 1.269 . S
C92 O93 1.249 . S
C92 O94 1.270 . S
O93 Zn85 1.943 . S
O93 C92 1.249 . S
O94 Zn84 2.067 . S
O94 C92 1.270 . S
C95 O88 1.262 . S
C95 O96 1.232 . S
O96 C95 1.232 . S
C97 O89 1.260 . S
C97 O90 1.257 . S
Zn98 O101 2.031 . S
Zn98 O103 2.049 . S
Zn98 O108 2.067 . S
Zn99 O100 1.962 . S
Zn99 O102 1.986 . S
Zn99 O104 1.996 . S
Zn99 O107 1.943 . S
O100 Zn99 1.962 . S
O100 C105 1.254 . S
O101 Zn98 2.031 . S
O101 C105 1.269 . S
O102 Zn99 1.986 . S
O102 C109 1.262 . S
O103 Zn98 2.049 . S
O103 C111 1.260 . S
O104 Zn99 1.996 . S
O104 C111 1.257 . S
C105 O100 1.254 . S
C105 O101 1.269 . S
C106 O107 1.249 . S
C106 O108 1.270 . S
O107 Zn99 1.943 . S
O107 C106 1.249 . S
O108 Zn98 2.067 . S
O108 C106 1.270 . S
C109 O102 1.262 . S
C109 O110 1.232 . S
O110 C109 1.232 . S
C111 O103 1.260 . S
C111 O104 1.257 . S
Zn112 O115 2.031 . S
Zn112 O117 2.049 . S
Zn112 O122 2.067 . S
Zn113 O114 1.962 . S
Zn113 O116 1.986 . S
Zn113 O118 1.996 . S
Zn113 O121 1.943 . S
O114 Zn113 1.962 . S
O114 C119 1.254 . S
O115 Zn112 2.031 . S
O115 C119 1.269 . S
O116 Zn113 1.986 . S
O116 C123 1.262 . S
O117 Zn112 2.049 . S
O117 C125 1.260 . S
O118 Zn113 1.996 . S
O118 C125 1.257 . S
C119 O114 1.254 . S
C119 O115 1.269 . S
C120 O121 1.249 . S
C120 O122 1.270 . S
O121 Zn113 1.943 . S
O121 C120 1.249 . S
O122 Zn112 2.067 . S
O122 C120 1.270 . S
C123 O116 1.262 . S
C123 O124 1.232 . S
O124 C123 1.232 . S
C125 O117 1.260 . S
C125 O118 1.257 . S
Zn126 O129 2.031 . S
Zn126 O131 2.049 . S
Zn126 O136 2.067 . S
Zn127 O128 1.962 . S
Zn127 O130 1.986 . S
Zn127 O132 1.996 . S
Zn127 O135 1.943 . S
O128 Zn127 1.962 . S
O128 C133 1.254 . S
O129 Zn126 2.031 . S
O129 C133 1.269 . S
O130 Zn127 1.986 . S
O130 C137 1.262 . S
O131 Zn126 2.049 . S
O131 C139 1.260 . S
O132 Zn127 1.996 . S
O132 C139 1.257 . S
C133 O128 1.254 . S
C133 O129 1.269 . S
C134 O135 1.249 . S
C134 O136 1.270 . S
O135 Zn127 1.943 . S
O135 C134 1.249 . S
O136 Zn126 2.067 . S
O136 C134 1.270 . S
C137 O130 1.262 . S
C137 O138 1.232 . S
O138 C137 1.232 . S
C139 O131 1.260 . S
C139 O132 1.257 . S
Zn140 O143 2.031 . S
Zn140 O145 2.049 . S
Zn140 O150 2.067 . S
Zn141 O142 1.962 . S
Zn141 O144 1.986 . S
Zn141 O146 1.996 . S
Zn141 O149 1.943 . S
O142 Zn141 1.962 . S
O142 C147 1.254 . S
O143 Zn140 2.031 . S
O143 C147 1.269 . S
O144 Zn141 1.986 . S
O144 C151 1.262 . S
O145 Zn140 2.049 . S
O145 C153 1.260 . S
O146 Zn141 1.996 . S
O146 C153 1.257 . S
C147 O142 1.254 . S
C147 O143 1.269 . S
C148 O149 1.249 . S
C148 O150 1.270 . S
O149 Zn141 1.943 . S
O149 C148 1.249 . S
O150 Zn140 2.067 . S
O150 C148 1.270 . S
C151 O144 1.262 . S
C151 O152 1.232 . S
O152 C151 1.232 . S
C153 O145 1.260 . S
C153 O146 1.257 . S
Zn154 O157 2.031 . S
Zn154 O159 2.049 . S
Zn154 O164 2.067 . S
Zn155 O156 1.962 . S
Zn155 O158 1.986 . S
Zn155 O160 1.996 . S
Zn155 O163 1.943 . S
O156 Zn155 1.962 . S
O156 C161 1.254 . S
O157 Zn154 2.031 . S
O157 C161 1.269 . S
O158 Zn155 1.986 . S
O158 C165 1.262 . S
O159 Zn154 2.049 . S
O159 C167 1.260 . S
O160 Zn155 1.996 . S
O160 C167 1.257 . S
C161 O156 1.254 . S
C161 O157 1.269 . S
C162 O163 1.249 . S
C162 O164 1.270 . S
O163 Zn155 1.943 . S
O163 C162 1.249 . S
O164 Zn154 2.067 . S
O164 C162 1.270 . S
C165 O158 1.262 . S
C165 O166 1.232 . S
O166 C165 1.232 . S
C167 O159 1.260 . S
C167 O160 1.257 . S
Zn168 O171 2.031 . S
Zn168 O173 2.049 . S
Zn168 O178 2.067 . S
Zn169 O170 1.962 . S
Zn169 O172 1.986 . S
Zn169 O174 1.996 . S
Zn169 O177 1.943 . S
O170 Zn169 1.962 . S
O170 C175 1.254 . S
O171 Zn168 2.031 . S
O171 C175 1.269 . S
O172 Zn169 1.986 . S
O172 C179 1.262 . S
O173 Zn168 2.049 . S
O173 C181 1.260 . S
O174 Zn169 1.996 . S
O174 C181 1.257 . S
C175 O170 1.254 . S
C175 O171 1.269 . S
C176 O177 1.249 . S
C176 O178 1.270 . S
O177 Zn169 1.943 . S
O177 C176 1.249 . S
O178 Zn168 2.067 . S
O178 C176 1.270 . S
C179 O172 1.262 . S
C179 O180 1.232 . S
O180 C179 1.232 . S
C181 O173 1.260 . S
C181 O174 1.257 . S
Zn182 O185 2.031 . S
Zn182 O187 2.049 . S
Zn182 O192 2.067 . S
Zn183 O184 1.962 . S
Zn183 O186 1.986 . S
Zn183 O188 1.996 . S
Zn183 O191 1.943 . S
O184 Zn183 1.962 . S
O184 C189 1.254 . S
O185 Zn182 2.031 . S
O185 C189 1.269 . S
O186 Zn183 1.986 . S
O186 C193 1.262 . S
O187 Zn182 2.049 . S
O187 C195 1.260 . S
O188 Zn183 1.996 . S
O188 C195 1.257 . S
C189 O184 1.254 . S
C189 O185 1.269 . S
C190 O191 1.249 . S
C190 O192 1.270 . S
O191 Zn183 1.943 . S
O191 C190 1.249 . S
O192 Zn182 2.067 . S
O192 C190 1.270 . S
C193 O186 1.262 . S
C193 O194 1.232 . S
O194 C193 1.232 . S
C195 O187 1.260 . S
C195 O188 1.257 . S
Zn196 O199 2.031 . S
Zn196 O201 2.049 . S
Zn196 O206 2.067 . S
Zn197 O198 1.962 . S
Zn197 O200 1.986 . S
Zn197 O202 1.996 . S
Zn197 O205 1.943 . S
O198 Zn197 1.962 . S
O198 C203 1.254 . S
O199 Zn196 2.031 . S
O199 C203 1.269 . S
O200 Zn197 1.986 . S
O200 C207 1.262 . S
O201 Zn196 2.049 . S
O201 C209 1.260 . S
O202 Zn197 1.996 . S
O202 C209 1.257 . S
C203 O198 1.254 . S
C203 O199 1.269 . S
C204 O205 1.249 . S
C204 O206 1.270 . S
O205 Zn197 1.943 . S
O205 C204 1.249 . S
O206 Zn196 2.067 . S
O206 C204 1.270 . S
C207 O200 1.262 . S
C207 O208 1.232 . S
O208 C207 1.232 . S
C209 O201 1.260 . S
C209 O202 1.257 . S
Zn210 O213 2.031 . S
Zn210 O215 2.049 . S
Zn210 O220 2.067 . S
Zn211 O212 1.962 . S
Zn211 O214 1.986 . S
Zn211 O216 1.996 . S
Zn211 O219 1.943 . S
O212 Zn211 1.962 . S
O212 C217 1.254 . S
O213 Zn210 2.031 . S
O213 C217 1.269 . S
O214 Zn211 1.986 . S
O214 C221 1.262 . S
O215 Zn210 2.049 . S
O215 C223 1.260 . S
O216 Zn211 1.996 . S
O216 C223 1.257 . S
C217 O212 1.254 . S
C217 O213 1.269 . S
C218 O219 1.249 . S
C218 O220 1.270 . S
O219 Zn211 1.943 . S
O219 C218 1.249 . S
O220 Zn210 2.067 . S
O220 C218 1.270 . S
C221 O214 1.262 . S
C221 O222 1.232 . S
O222 C221 1.232 . S
C223 O215 1.260 . S
C223 O216 1.257 . S
Zn224 O227 2.031 . S
Zn224 O229 2.049 . S
Zn224 O234 2.067 . S
Zn225 O226 1.962 . S
Zn225 O228 1.986 . S
Zn225 O230 1.996 . S
Zn225 O233 1.943 . S
O226 Zn225 1.962 . S
O226 C231 1.254 . S
O227 Zn224 2.031 . S
O227 C231 1.269 . S
O228 Zn225 1.986 . S
O228 C235 1.262 . S
O229 Zn224 2.049 . S
O229 C237 1.260 . S
O230 Zn225 1.996 . S
O230 C237 1.257 . S
C231 O226 1.254 . S
C231 O227 1.269 . S
C232 O233 1.249 . S
C232 O234 1.270 . S
O233 Zn225 1.943 . S
O233 C232 1.249 . S
O234 Zn224 2.067 . S
O234 C232 1.270 . S
C235 O228 1.262 . S
C235 O236 1.232 . S
O236 C235 1.232 . S
C237 O229 1.260 . S
C237 O230 1.257 . S
Zn238 O241 2.031 . S
Zn238 O243 2.049 . S
Zn238 O248 2.067 . S
Zn239 O240 1.962 . S
Zn239 O242 1.986 . S
Zn239 O244 1.996 . S
Zn239 O247 1.943 . S
O240 Zn239 1.962 . S
O240 C245 1.254 . S
O241 Zn238 2.031 . S
O241 C245 1.269 . S
O242 Zn239 1.986 . S
O242 C249 1.262 . S
O243 Zn238 2.049 . S
O243 C251 1.260 . S
O244 Zn239 1.996 . S
O244 C251 1.257 . S
C245 O240 1.254 . S
C245 O241 1.269 . S
C246 O247 1.249 . S
C246 O248 1.270 . S
O247 Zn239 1.943 . S
O247 C246 1.249 . S
O248 Zn238 2.067 . S
O248 C246 1.270 . S
C249 O242 1.262 . S
C249 O250 1.232 . S
O250 C249 1.232 . S
C251 O243 1.260 . S
C251 O244 1.257 . S
Zn252 O255 2.031 . S
Zn252 O257 2.049 . S
Zn252 O262 2.067 . S
Zn253 O254 1.962 . S
Zn253 O256 1.986 . S
Zn253 O258 1.996 . S
Zn253 O261 1.943 . S
O254 Zn253 1.962 . S
O254 C259 1.254 . S
O255 Zn252 2.031 . S
O255 C259 1.269 . S
O256 Zn253 1.986 . S
O256 C263 1.262 . S
O257 Zn252 2.049 . S
O257 C265 1.260 . S
O258 Zn253 1.996 . S
O258 C265 1.257 . S
C259 O254 1.254 . S
C259 O255 1.269 . S
C260 O261 1.249 . S
C260 O262 1.270 . S
O261 Zn253 1.943 . S
O261 C260 1.249 . S
O262 Zn252 2.067 . S
O262 C260 1.270 . S
C263 O256 1.262 . S
C263 O264 1.232 . S
O264 C263 1.232 . S
C265 O257 1.260 . S
C265 O258 1.257 . S
Zn266 O269 2.031 . S
Zn266 O271 2.049 . S
Zn266 O276 2.067 . S
Zn267 O268 1.962 . S
Zn267 O270 1.986 . S
Zn267 O272 1.996 . S
Zn267 O275 1.943 . S
O268 Zn267 1.962 . S
O268 C273 1.254 . S
O269 Zn266 2.031 . S
O269 C273 1.269 . S
O270 Zn267 1.986 . S
O270 C277 1.262 . S
O271 Zn266 2.049 . S
O271 C279 1.260 . S
O272 Zn267 1.996 . S
O272 C279 1.257 . S
C273 O268 1.254 . S
C273 O269 1.269 . S
C274 O275 1.249 . S
C274 O276 1.270 . S
O275 Zn267 1.943 . S
O275 C274 1.249 . S
O276 Zn266 2.067 . S
O276 C274 1.270 . S
C277 O270 1.262 . S
C277 O278 1.232 . S
O278 C277 1.232 . S
C279 O271 1.260 . S
C279 O272 1.257 . S
Zn280 O283 2.031 . S
Zn280 O285 2.049 . S
Zn280 O290 2.067 . S
Zn281 O282 1.962 . S
Zn281 O284 1.986 . S
Zn281 O286 1.996 . S
Zn281 O289 1.943 . S
O282 Zn281 1.962 . S
O282 C287 1.254 . S
O283 Zn280 2.031 . S
O283 C287 1.269 . S
O284 Zn281 1.986 . S
O284 C291 1.262 . S
O285 Zn280 2.049 . S
O285 C293 1.260 . S
O286 Zn281 1.996 . S
O286 C293 1.257 . S
C287 O282 1.254 . S
C287 O283 1.269 . S
C288 O289 1.249 . S
C288 O290 1.270 . S
O289 Zn281 1.943 . S
O289 C288 1.249 . S
O290 Zn280 2.067 . S
O290 C288 1.270 . S
C291 O284 1.262 . S
C291 O292 1.232 . S
O292 C291 1.232 . S
C293 O285 1.260 . S
C293 O286 1.257 . S
Zn294 O297 2.031 . S
Zn294 O299 2.049 . S
Zn294 O304 2.067 . S
Zn295 O296 1.962 . S
Zn295 O298 1.986 . S
Zn295 O300 1.996 . S
Zn295 O303 1.943 . S
O296 Zn295 1.962 . S
O296 C301 1.254 . S
O297 Zn294 2.031 . S
O297 C301 1.269 . S
O298 Zn295 1.986 . S
O298 C305 1.262 . S
O299 Zn294 2.049 . S
O299 C307 1.260 . S
O300 Zn295 1.996 . S
O300 C307 1.257 . S
C301 O296 1.254 . S
C301 O297 1.269 . S
C302 O303 1.249 . S
C302 O304 1.270 . S
O303 Zn295 1.943 . S
O303 C302 1.249 . S
O304 Zn294 2.067 . S
O304 C302 1.270 . S
C305 O298 1.262 . S
C305 O306 1.232 . S
O306 C305 1.232 . S
C307 O299 1.260 . S
C307 O300 1.257 . S
Zn308 O311 2.031 . S
Zn308 O313 2.049 . S
Zn308 O318 2.067 . S
Zn309 O310 1.962 . S
Zn309 O312 1.986 . S
Zn309 O314 1.996 . S
Zn309 O317 1.943 . S
O310 Zn309 1.962 . S
O310 C315 1.254 . S
O311 Zn308 2.031 . S
O311 C315 1.269 . S
O312 Zn309 1.986 . S
O312 C319 1.262 . S
O313 Zn308 2.049 . S
O313 C321 1.260 . S
O314 Zn309 1.996 . S
O314 C321 1.257 . S
C315 O310 1.254 . S
C315 O311 1.269 . S
C316 O317 1.249 . S
C316 O318 1.270 . S
O317 Zn309 1.943 . S
O317 C316 1.249 . S
O318 Zn308 2.067 . S
O318 C316 1.270 . S
C319 O312 1.262 . S
C319 O320 1.232 . S
O320 C319 1.232 . S
C321 O313 1.260 . S
C321 O314 1.257 . S
Zn322 O325 2.031 . S
Zn322 O327 2.049 . S
Zn322 O332 2.067 . S
Zn323 O324 1.962 . S
Zn323 O326 1.986 . S
Zn323 O328 1.996 . S
Zn323 O331 1.943 . S
O324 Zn323 1.962 . S
O324 C329 1.254 . S
O325 Zn322 2.031 . S
O325 C329 1.269 . S
O326 Zn323 1.986 . S
O326 C333 1.262 . S
O327 Zn322 2.049 . S
O327 C335 1.260 . S
O328 Zn323 1.996 . S
O328 C335 1.257 . S
C329 O324 1.254 . S
C329 O325 1.269 . S
C330 O331 1.249 . S
C330 O332 1.270 . S
O331 Zn323 1.943 . S
O331 C330 1.249 . S
O332 Zn322 2.067 . S
O332 C330 1.270 . S
C333 O326 1.262 . S
C333 O334 1.232 . S
O334 C333 1.232 . S
C335 O327 1.260 . S
C335 O328 1.257 . S
C336 C337 1.363 . S
C336 C342 1.379 . S
C336 N344 1.356 . S
C337 C336 1.363 . S
C337 C343 1.363 . S
C338 C339 1.363 . S
C338 C343 1.379 . S
C338 N345 1.356 . S
C339 C338 1.363 . S
C339 C342 1.363 . S
N340 C342 1.356 . S
N340 H352 0.984 . S
N340 H353 0.985 . S
N341 C343 1.356 . S
N341 H346 0.984 . S
N341 H347 0.985 . S
C342 C336 1.379 . S
C342 C339 1.363 . S
C342 N340 1.356 . S
C343 C337 1.363 . S
C343 C338 1.379 . S
C343 N341 1.356 . S
N344 C336 1.356 . S
N344 H350 0.984 . S
N344 H351 0.984 . S
N345 C338 1.356 . S
N345 H348 0.984 . S
N345 H349 0.985 . S
H346 N341 0.984 . S
H347 N341 0.985 . S
H348 N345 0.984 . S
H349 N345 0.985 . S
H350 N344 0.984 . S
H351 N344 0.984 . S
H352 N340 0.984 . S
H353 N340 0.985 . S
C354 C355 1.363 . S
C354 C360 1.379 . S
C354 N362 1.356 . S
C355 C354 1.363 . S
C355 C361 1.363 . S
C356 C357 1.363 . S
C356 C361 1.379 . S
C356 N363 1.356 . S
C357 C356 1.363 . S
C357 C360 1.363 . S
N358 C360 1.356 . S
N358 H370 0.984 . S
N358 H371 0.985 . S
N359 C361 1.356 . S
N359 H364 0.984 . S
N359 H365 0.985 . S
C360 C354 1.379 . S
C360 C357 1.363 . S
C360 N358 1.356 . S
C361 C355 1.363 . S
C361 C356 1.379 . S
C361 N359 1.356 . S
N362 C354 1.356 . S
N362 H368 0.984 . S
N362 H369 0.984 . S
N363 C356 1.356 . S
N363 H366 0.984 . S
N363 H367 0.985 . S
H364 N359 0.984 . S
H365 N359 0.985 . S
H366 N363 0.984 . S
H367 N363 0.985 . S
H368 N362 0.984 . S
H369 N362 0.984 . S
H370 N358 0.984 . S
H371 N358 0.985 . S
C372 C373 1.363 . S
C372 C378 1.379 . S
C372 N380 1.356 . S
C373 C372 1.363 . S
C373 C379 1.363 . S
C374 C375 1.363 . S
C374 C379 1.379 . S
C374 N381 1.356 . S
C375 C374 1.363 . S
C375 C378 1.363 . S
N376 C378 1.356 . S
N376 H388 0.984 . S
N376 H389 0.985 . S
N377 C379 1.356 . S
N377 H382 0.984 . S
N377 H383 0.985 . S
C378 C372 1.379 . S
C378 C375 1.363 . S
C378 N376 1.356 . S
C379 C373 1.363 . S
C379 C374 1.379 . S
C379 N377 1.356 . S
N380 C372 1.356 . S
N380 H386 0.984 . S
N380 H387 0.984 . S
N381 C374 1.356 . S
N381 H384 0.984 . S
N381 H385 0.985 . S
H382 N377 0.984 . S
H383 N377 0.985 . S
H384 N381 0.984 . S
H385 N381 0.985 . S
H386 N380 0.984 . S
H387 N380 0.984 . S
H388 N376 0.984 . S
H389 N376 0.985 . S
C390 C391 1.363 . S
C390 C396 1.379 . S
C390 N398 1.356 . S
C391 C390 1.363 . S
C391 C397 1.363 . S
C392 C393 1.363 . S
C392 C397 1.379 . S
C392 N399 1.356 . S
C393 C392 1.363 . S
C393 C396 1.363 . S
N394 C396 1.356 . S
N394 H406 0.984 . S
N394 H407 0.985 . S
N395 C397 1.356 . S
N395 H400 0.984 . S
N395 H401 0.985 . S
C396 C390 1.379 . S
C396 C393 1.363 . S
C396 N394 1.356 . S
C397 C391 1.363 . S
C397 C392 1.379 . S
C397 N395 1.356 . S
N398 C390 1.356 . S
N398 H404 0.984 . S
N398 H405 0.984 . S
N399 C392 1.356 . S
N399 H402 0.984 . S
N399 H403 0.985 . S
H400 N395 0.984 . S
H401 N395 0.985 . S
H402 N399 0.984 . S
H403 N399 0.985 . S
H404 N398 0.984 . S
H405 N398 0.984 . S
H406 N394 0.984 . S
H407 N394 0.985 . S
C408 C409 1.363 . S
C408 C414 1.379 . S
C408 N416 1.356 . S
C409 C408 1.363 . S
C409 C415 1.363 . S
C410 C411 1.363 . S
C410 C415 1.379 . S
C410 N417 1.356 . S
C411 C410 1.363 . S
C411 C414 1.363 . S
N412 C414 1.356 . S
N412 H424 0.984 . S
N412 H425 0.985 . S
N413 C415 1.356 . S
N413 H418 0.984 . S
N413 H419 0.985 . S
C414 C408 1.379 . S
C414 C411 1.363 . S
C414 N412 1.356 . S
C415 C409 1.363 . S
C415 C410 1.379 . S
C415 N413 1.356 . S
N416 C408 1.356 . S
N416 H422 0.984 . S
N416 H423 0.984 . S
N417 C410 1.356 . S
N417 H420 0.984 . S
N417 H421 0.985 . S
H418 N413 0.984 . S
H419 N413 0.985 . S
H420 N417 0.984 . S
H421 N417 0.985 . S
H422 N416 0.984 . S
H423 N416 0.984 . S
H424 N412 0.984 . S
H425 N412 0.985 . S
C426 C427 1.363 . S
C426 C432 1.379 . S
C426 N434 1.356 . S
C427 C426 1.363 . S
C427 C433 1.363 . S
C428 C429 1.363 . S
C428 C433 1.379 . S
C428 N435 1.356 . S
C429 C428 1.363 . S
C429 C432 1.363 . S
N430 C432 1.356 . S
N430 H442 0.984 . S
N430 H443 0.985 . S
N431 C433 1.356 . S
N431 H436 0.984 . S
N431 H437 0.985 . S
C432 C426 1.379 . S
C432 C429 1.363 . S
C432 N430 1.356 . S
C433 C427 1.363 . S
C433 C428 1.379 . S
C433 N431 1.356 . S
N434 C426 1.356 . S
N434 H440 0.984 . S
N434 H441 0.984 . S
N435 C428 1.356 . S
N435 H438 0.984 . S
N435 H439 0.985 . S
H436 N431 0.984 . S
H437 N431 0.985 . S
H438 N435 0.984 . S
H439 N435 0.985 . S
H440 N434 0.984 . S
H441 N434 0.984 . S
H442 N430 0.984 . S
H443 N430 0.985 . S
C444 C445 1.363 . S
C444 C450 1.379 . S
C444 N452 1.356 . S
C445 C444 1.363 . S
C445 C451 1.363 . S
C446 C447 1.363 . S
C446 C451 1.379 . S
C446 N453 1.356 . S
C447 C446 1.363 . S
C447 C450 1.363 . S
N448 C450 1.356 . S
N448 H460 0.984 . S
N448 H461 0.985 . S
N449 C451 1.356 . S
N449 H454 0.984 . S
N449 H455 0.985 . S
C450 C444 1.379 . S
C450 C447 1.363 . S
C450 N448 1.356 . S
C451 C445 1.363 . S
C451 C446 1.379 . S
C451 N449 1.356 . S
N452 C444 1.356 . S
N452 H458 0.984 . S
N452 H459 0.984 . S
N453 C446 1.356 . S
N453 H456 0.984 . S
N453 H457 0.985 . S
H454 N449 0.984 . S
H455 N449 0.985 . S
H456 N453 0.984 . S
H457 N453 0.985 . S
H458 N452 0.984 . S
H459 N452 0.984 . S
H460 N448 0.984 . S
H461 N448 0.985 . S
C462 C463 1.363 . S
C462 C468 1.379 . S
C462 N470 1.356 . S
C463 C462 1.363 . S
C463 C469 1.363 . S
C464 C465 1.363 . S
C464 C469 1.379 . S
C464 N471 1.356 . S
C465 C464 1.363 . S
C465 C468 1.363 . S
N466 C468 1.356 . S
N466 H478 0.984 . S
N466 H479 0.985 . S
N467 C469 1.356 . S
N467 H472 0.984 . S
N467 H473 0.985 . S
C468 C462 1.379 . S
C468 C465 1.363 . S
C468 N466 1.356 . S
C469 C463 1.363 . S
C469 C464 1.379 . S
C469 N467 1.356 . S
N470 C462 1.356 . S
N470 H476 0.984 . S
N470 H477 0.984 . S
N471 C464 1.356 . S
N471 H474 0.984 . S
N471 H475 0.985 . S
H472 N467 0.984 . S
H473 N467 0.985 . S
H474 N471 0.984 . S
H475 N471 0.985 . S
H476 N470 0.984 . S
H477 N470 0.984 . S
H478 N466 0.984 . S
H479 N466 0.985 . S
C480 C481 1.363 . S
C480 C486 1.379 . S
C480 N488 1.356 . S
C481 C480 1.363 . S
C481 C487 1.363 . S
C482 C483 1.363 . S
C482 C487 1.379 . S
C482 N489 1.356 . S
C483 C482 1.363 . S
C483 C486 1.363 . S
N484 C486 1.356 . S
N484 H496 0.984 . S
N484 H497 0.985 . S
N485 C487 1.356 . S
N485 H490 0.984 . S
N485 H491 0.985 . S
C486 C480 1.379 . S
C486 C483 1.363 . S
C486 N484 1.356 . S
C487 C481 1.363 . S
C487 C482 1.379 . S
C487 N485 1.356 . S
N488 C480 1.356 . S
N488 H494 0.984 . S
N488 H495 0.984 . S
N489 C482 1.356 . S
N489 H492 0.984 . S
N489 H493 0.985 . S
H490 N485 0.984 . S
H491 N485 0.985 . S
H492 N489 0.984 . S
H493 N489 0.985 . S
H494 N488 0.984 . S
H495 N488 0.984 . S
H496 N484 0.984 . S
H497 N484 0.985 . S
C498 C499 1.363 . S
C498 C504 1.379 . S
C498 N506 1.356 . S
C499 C498 1.363 . S
C499 C505 1.363 . S
C500 C501 1.363 . S
C500 C505 1.379 . S
C500 N507 1.356 . S
C501 C500 1.363 . S
C501 C504 1.363 . S
N502 C504 1.356 . S
N502 H514 0.984 . S
N502 H515 0.985 . S
N503 C505 1.356 . S
N503 H508 0.984 . S
N503 H509 0.985 . S
C504 C498 1.379 . S
C504 C501 1.363 . S
C504 N502 1.356 . S
C505 C499 1.363 . S
C505 C500 1.379 . S
C505 N503 1.356 . S
N506 C498 1.356 . S
N506 H512 0.984 . S
N506 H513 0.984 . S
N507 C500 1.356 . S
N507 H510 0.984 . S
N507 H511 0.985 . S
H508 N503 0.984 . S
H509 N503 0.985 . S
H510 N507 0.984 . S
H511 N507 0.985 . S
H512 N506 0.984 . S
H513 N506 0.984 . S
H514 N502 0.984 . S
H515 N502 0.985 . S
C516 C517 1.363 . S
C516 C522 1.379 . S
C516 N524 1.356 . S
C517 C516 1.363 . S
C517 C523 1.363 . S
C518 C519 1.363 . S
C518 C523 1.379 . S
C518 N525 1.356 . S
C519 C518 1.363 . S
C519 C522 1.363 . S
N520 C522 1.356 . S
N520 H532 0.984 . S
N520 H533 0.985 . S
N521 C523 1.356 . S
N521 H526 0.984 . S
N521 H527 0.985 . S
C522 C516 1.379 . S
C522 C519 1.363 . S
C522 N520 1.356 . S
C523 C517 1.363 . S
C523 C518 1.379 . S
C523 N521 1.356 . S
N524 C516 1.356 . S
N524 H530 0.984 . S
N524 H531 0.984 . S
N525 C518 1.356 . S
N525 H528 0.984 . S
N525 H529 0.985 . S
H526 N521 0.984 . S
H527 N521 0.985 . S
H528 N525 0.984 . S
H529 N525 0.985 . S
H530 N524 0.984 . S
H531 N524 0.984 . S
H532 N520 0.984 . S
H533 N520 0.985 . S
C534 C535 1.363 . S
C534 C540 1.379 . S
C534 N542 1.356 . S
C535 C534 1.363 . S
C535 C541 1.363 . S
C536 C537 1.363 . S
C536 C541 1.379 . S
C536 N543 1.356 . S
C537 C536 1.363 . S
C537 C540 1.363 . S
N538 C540 1.356 . S
N538 H550 0.984 . S
N538 H551 0.985 . S
N539 C541 1.356 . S
N539 H544 0.984 . S
N539 H545 0.985 . S
C540 C534 1.379 . S
C540 C537 1.363 . S
C540 N538 1.356 . S
C541 C535 1.363 . S
C541 C536 1.379 . S
C541 N539 1.356 . S
N542 C534 1.356 . S
N542 H548 0.984 . S
N542 H549 0.984 . S
N543 C536 1.356 . S
N543 H546 0.984 . S
N543 H547 0.985 . S
H544 N539 0.984 . S
H545 N539 0.985 . S
H546 N543 0.984 . S
H547 N543 0.985 . S
H548 N542 0.984 . S
H549 N542 0.984 . S
H550 N538 0.984 . S
H551 N538 0.985 . S
C552 C553 1.363 . S
C552 C558 1.379 . S
C552 N560 1.356 . S
C553 C552 1.363 . S
C553 C559 1.363 . S
C554 C555 1.363 . S
C554 C559 1.379 . S
C554 N561 1.356 . S
C555 C554 1.363 . S
C555 C558 1.363 . S
N556 C558 1.356 . S
N556 H568 0.984 . S
N556 H569 0.985 . S
N557 C559 1.356 . S
N557 H562 0.984 . S
N557 H563 0.985 . S
C558 C552 1.379 . S
C558 C555 1.363 . S
C558 N556 1.356 . S
C559 C553 1.363 . S
C559 C554 1.379 . S
C559 N557 1.356 . S
N560 C552 1.356 . S
N560 H566 0.984 . S
N560 H567 0.984 . S
N561 C554 1.356 . S
N561 H564 0.984 . S
N561 H565 0.985 . S
H562 N557 0.984 . S
H563 N557 0.985 . S
H564 N561 0.984 . S
H565 N561 0.985 . S
H566 N560 0.984 . S
H567 N560 0.984 . S
H568 N556 0.984 . S
H569 N556 0.985 . S
C570 C571 1.363 . S
C570 C576 1.379 . S
C570 N578 1.356 . S
C571 C570 1.363 . S
C571 C577 1.363 . S
C572 C573 1.363 . S
C572 C577 1.379 . S
C572 N579 1.356 . S
C573 C572 1.363 . S
C573 C576 1.363 . S
N574 C576 1.356 . S
N574 H586 0.984 . S
N574 H587 0.985 . S
N575 C577 1.356 . S
N575 H580 0.984 . S
N575 H581 0.985 . S
C576 C570 1.379 . S
C576 C573 1.363 . S
C576 N574 1.356 . S
C577 C571 1.363 . S
C577 C572 1.379 . S
C577 N575 1.356 . S
N578 C570 1.356 . S
N578 H584 0.984 . S
N578 H585 0.984 . S
N579 C572 1.356 . S
N579 H582 0.984 . S
N579 H583 0.985 . S
H580 N575 0.984 . S
H581 N575 0.985 . S
H582 N579 0.984 . S
H583 N579 0.985 . S
H584 N578 0.984 . S
H585 N578 0.984 . S
H586 N574 0.984 . S
H587 N574 0.985 . S
C588 C589 1.363 . S
C588 C594 1.379 . S
C588 N596 1.356 . S
C589 C588 1.363 . S
C589 C595 1.363 . S
C590 C591 1.363 . S
C590 C595 1.379 . S
C590 N597 1.356 . S
C591 C590 1.363 . S
C591 C594 1.363 . S
N592 C594 1.356 . S
N592 H604 0.984 . S
N592 H605 0.985 . S
N593 C595 1.356 . S
N593 H598 0.984 . S
N593 H599 0.985 . S
C594 C588 1.379 . S
C594 C591 1.363 . S
C594 N592 1.356 . S
C595 C589 1.363 . S
C595 C590 1.379 . S
C595 N593 1.356 . S
N596 C588 1.356 . S
N596 H602 0.984 . S
N596 H603 0.984 . S
N597 C590 1.356 . S
N597 H600 0.984 . S
N597 H601 0.985 . S
H598 N593 0.984 . S
H599 N593 0.985 . S
H600 N597 0.984 . S
H601 N597 0.985 . S
H602 N596 0.984 . S
H603 N596 0.984 . S
H604 N592 0.984 . S
H605 N592 0.985 . S
C606 C607 1.363 . S
C606 C612 1.379 . S
C606 N614 1.356 . S
C607 C606 1.363 . S
C607 C613 1.363 . S
C608 C609 1.363 . S
C608 C613 1.379 . S
C608 N615 1.356 . S
C609 C608 1.363 . S
C609 C612 1.363 . S
N610 C612 1.356 . S
N610 H622 0.984 . S
N610 H623 0.985 . S
N611 C613 1.356 . S
N611 H616 0.984 . S
N611 H617 0.985 . S
C612 C606 1.379 . S
C612 C609 1.363 . S
C612 N610 1.356 . S
C613 C607 1.363 . S
C613 C608 1.379 . S
C613 N611 1.356 . S
N614 C606 1.356 . S
N614 H620 0.984 . S
N614 H621 0.984 . S
N615 C608 1.356 . S
N615 H618 0.984 . S
N615 H619 0.985 . S
H616 N611 0.984 . S
H617 N611 0.985 . S
H618 N615 0.984 . S
H619 N615 0.985 . S
H620 N614 0.984 . S
H621 N614 0.984 . S
H622 N610 0.984 . S
H623 N610 0.985 . S
C624 C625 1.363 . S
C624 C630 1.379 . S
C624 N632 1.356 . S
C625 C624 1.363 . S
C625 C631 1.363 . S
C626 C627 1.363 . S
C626 C631 1.379 . S
C626 N633 1.356 . S
C627 C626 1.363 . S
C627 C630 1.363 . S
N628 C630 1.356 . S
N628 H640 0.984 . S
N628 H641 0.985 . S
N629 C631 1.356 . S
N629 H634 0.984 . S
N629 H635 0.985 . S
C630 C624 1.379 . S
C630 C627 1.363 . S
C630 N628 1.356 . S
C631 C625 1.363 . S
C631 C626 1.379 . S
C631 N629 1.356 . S
N632 C624 1.356 . S
N632 H638 0.984 . S
N632 H639 0.984 . S
N633 C626 1.356 . S
N633 H636 0.984 . S
N633 H637 0.985 . S
H634 N629 0.984 . S
H635 N629 0.985 . S
H636 N633 0.984 . S
H637 N633 0.985 . S
H638 N632 0.984 . S
H639 N632 0.984 . S
H640 N628 0.984 . S
H641 N628 0.985 . S
C642 C643 1.363 . S
C642 C648 1.379 . S
C642 N650 1.356 . S
C643 C642 1.363 . S
C643 C649 1.363 . S
C644 C645 1.363 . S
C644 C649 1.379 . S
C644 N651 1.356 . S
C645 C644 1.363 . S
C645 C648 1.363 . S
N646 C648 1.356 . S
N646 H658 0.984 . S
N646 H659 0.985 . S
N647 C649 1.356 . S
N647 H652 0.984 . S
N647 H653 0.985 . S
C648 C642 1.379 . S
C648 C645 1.363 . S
C648 N646 1.356 . S
C649 C643 1.363 . S
C649 C644 1.379 . S
C649 N647 1.356 . S
N650 C642 1.356 . S
N650 H656 0.984 . S
N650 H657 0.984 . S
N651 C644 1.356 . S
N651 H654 0.984 . S
N651 H655 0.985 . S
H652 N647 0.984 . S
H653 N647 0.985 . S
H654 N651 0.984 . S
H655 N651 0.985 . S
H656 N650 0.984 . S
H657 N650 0.984 . S
H658 N646 0.984 . S
H659 N646 0.985 . S
C660 C661 1.363 . S
C660 C666 1.379 . S
C660 N668 1.356 . S
C661 C660 1.363 . S
C661 C667 1.363 . S
C662 C663 1.363 . S
C662 C667 1.379 . S
C662 N669 1.356 . S
C663 C662 1.363 . S
C663 C666 1.363 . S
N664 C666 1.356 . S
N664 H676 0.984 . S
N664 H677 0.985 . S
N665 C667 1.356 . S
N665 H670 0.984 . S
N665 H671 0.985 . S
C666 C660 1.379 . S
C666 C663 1.363 . S
C666 N664 1.356 . S
C667 C661 1.363 . S
C667 C662 1.379 . S
C667 N665 1.356 . S
N668 C660 1.356 . S
N668 H674 0.984 . S
N668 H675 0.984 . S
N669 C662 1.356 . S
N669 H672 0.984 . S
N669 H673 0.985 . S
H670 N665 0.984 . S
H671 N665 0.985 . S
H672 N669 0.984 . S
H673 N669 0.985 . S
H674 N668 0.984 . S
H675 N668 0.984 . S
H676 N664 0.984 . S
H677 N664 0.985 . S
C678 C679 1.363 . S
C678 C684 1.379 . S
C678 N686 1.356 . S
C679 C678 1.363 . S
C679 C685 1.363 . S
C680 C681 1.363 . S
C680 C685 1.379 . S
C680 N687 1.356 . S
C681 C680 1.363 . S
C681 C684 1.363 . S
N682 C684 1.356 . S
N682 H694 0.984 . S
N682 H695 0.985 . S
N683 C685 1.356 . S
N683 H688 0.984 . S
N683 H689 0.985 . S
C684 C678 1.379 . S
C684 C681 1.363 . S
C684 N682 1.356 . S
C685 C679 1.363 . S
C685 C680 1.379 . S
C685 N683 1.356 . S
N686 C678 1.356 . S
N686 H692 0.984 . S
N686 H693 0.984 . S
N687 C680 1.356 . S
N687 H690 0.984 . S
N687 H691 0.985 . S
H688 N683 0.984 . S
H689 N683 0.985 . S
H690 N687 0.984 . S
H691 N687 0.985 . S
H692 N686 0.984 . S
H693 N686 0.984 . S
H694 N682 0.984 . S
H695 N682 0.985 . S
C696 C697 1.363 . S
C696 C702 1.379 . S
C696 N704 1.356 . S
C697 C696 1.363 . S
C697 C703 1.363 . S
C698 C699 1.363 . S
C698 C703 1.379 . S
C698 N705 1.356 . S
C699 C698 1.363 . S
C699 C702 1.363 . S
N700 C702 1.356 . S
N700 H712 0.984 . S
N700 H713 0.985 . S
N701 C703 1.356 . S
N701 H706 0.984 . S
N701 H707 0.985 . S
C702 C696 1.379 . S
C702 C699 1.363 . S
C702 N700 1.356 . S
C703 C697 1.363 . S
C703 C698 1.379 . S
C703 N701 1.356 . S
N704 C696 1.356 . S
N704 H710 0.984 . S
N704 H711 0.984 . S
N705 C698 1.356 . S
N705 H708 0.984 . S
N705 H709 0.985 . S
H706 N701 0.984 . S
H707 N701 0.985 . S
H708 N705 0.984 . S
H709 N705 0.985 . S
H710 N704 0.984 . S
H711 N704 0.984 . S
H712 N700 0.984 . S
H713 N700 0.985 . S
C714 C715 1.363 . S
C714 C720 1.379 . S
C714 N722 1.356 . S
C715 C714 1.363 . S
C715 C721 1.363 . S
C716 C717 1.363 . S
C716 C721 1.379 . S
C716 N723 1.356 . S
C717 C716 1.363 . S
C717 C720 1.363 . S
N718 C720 1.356 . S
N718 H730 0.984 . S
N718 H731 0.985 . S
N719 C721 1.356 . S
N719 H724 0.984 . S
N719 H725 0.985 . S
C720 C714 1.379 . S
C720 C717 1.363 . S
C720 N718 1.356 . S
C721 C715 1.363 . S
C721 C716 1.379 . S
C721 N719 1.356 . S
N722 C714 1.356 . S
N722 H728 0.984 . S
N722 H729 0.984 . S
N723 C716 1.356 . S
N723 H726 0.984 . S
N723 H727 0.985 . S
H724 N719 0.984 . S
H725 N719 0.985 . S
H726 N723 0.984 . S
H727 N723 0.985 . S
H728 N722 0.984 . S
H729 N722 0.984 . S
H730 N718 0.984 . S
H731 N718 0.985 . S
C732 C733 1.363 . S
C732 C738 1.379 . S
C732 N740 1.356 . S
C733 C732 1.363 . S
C733 C739 1.363 . S
C734 C735 1.363 . S
C734 C739 1.379 . S
C734 N741 1.356 . S
C735 C734 1.363 . S
C735 C738 1.363 . S
N736 C738 1.356 . S
N736 H748 0.984 . S
N736 H749 0.985 . S
N737 C739 1.356 . S
N737 H742 0.984 . S
N737 H743 0.985 . S
C738 C732 1.379 . S
C738 C735 1.363 . S
C738 N736 1.356 . S
C739 C733 1.363 . S
C739 C734 1.379 . S
C739 N737 1.356 . S
N740 C732 1.356 . S
N740 H746 0.984 . S
N740 H747 0.984 . S
N741 C734 1.356 . S
N741 H744 0.984 . S
N741 H745 0.985 . S
H742 N737 0.984 . S
H743 N737 0.985 . S
H744 N741 0.984 . S
H745 N741 0.985 . S
H746 N740 0.984 . S
H747 N740 0.984 . S
H748 N736 0.984 . S
H749 N736 0.985 . S
C750 C751 1.363 . S
C750 C756 1.379 . S
C750 N758 1.356 . S
C751 C750 1.363 . S
C751 C757 1.363 . S
C752 C753 1.363 . S
C752 C757 1.379 . S
C752 N759 1.356 . S
C753 C752 1.363 . S
C753 C756 1.363 . S
N754 C756 1.356 . S
N754 H766 0.984 . S
N754 H767 0.985 . S
N755 C757 1.356 . S
N755 H760 0.984 . S
N755 H761 0.985 . S
C756 C750 1.379 . S
C756 C753 1.363 . S
C756 N754 1.356 . S
C757 C751 1.363 . S
C757 C752 1.379 . S
C757 N755 1.356 . S
N758 C750 1.356 . S
N758 H764 0.984 . S
N758 H765 0.984 . S
N759 C752 1.356 . S
N759 H762 0.984 . S
N759 H763 0.985 . S
H760 N755 0.984 . S
H761 N755 0.985 . S
H762 N759 0.984 . S
H763 N759 0.985 . S
H764 N758 0.984 . S
H765 N758 0.984 . S
H766 N754 0.984 . S
H767 N754 0.985 . S
C768 C769 1.363 . S
C768 C774 1.379 1_455 S
C768 N776 1.356 . S
C769 C768 1.363 . S
C769 C775 1.363 . S
C770 C771 1.363 . S
C770 C775 1.379 1_655 S
C770 N777 1.356 . S
C771 C770 1.363 . S
C771 C774 1.363 . S
N772 C774 1.356 . S
N772 H784 0.984 . S
N772 H785 0.985 . S
N773 C775 1.356 . S
N773 H778 0.984 . S
N773 H779 0.985 . S
C774 C768 1.379 1_655 S
C774 C771 1.363 . S
C774 N772 1.356 . S
C775 C769 1.363 . S
C775 C770 1.379 1_455 S
C775 N773 1.356 . S
N776 C768 1.356 . S
N776 H782 0.984 . S
N776 H783 0.984 . S
N777 C770 1.356 . S
N777 H780 0.984 . S
N777 H781 0.985 . S
H778 N773 0.984 . S
H779 N773 0.985 . S
H780 N777 0.984 . S
H781 N777 0.985 . S
H782 N776 0.984 . S
H783 N776 0.984 . S
H784 N772 0.984 . S
H785 N772 0.985 . S
C786 C787 1.363 . S
C786 C792 1.379 1_545 S
C786 N794 1.356 . S
C787 C786 1.363 . S
C787 C793 1.363 . S
C788 C789 1.363 . S
C788 C793 1.379 1_565 S
C788 N795 1.356 . S
C789 C788 1.363 . S
C789 C792 1.363 . S
N790 C792 1.356 . S
N790 H802 0.984 . S
N790 H803 0.985 . S
N791 C793 1.356 . S
N791 H796 0.984 . S
N791 H797 0.985 . S
C792 C786 1.379 1_565 S
C792 C789 1.363 . S
C792 N790 1.356 . S
C793 C787 1.363 . S
C793 C788 1.379 1_545 S
C793 N791 1.356 . S
N794 C786 1.356 . S
N794 H800 0.984 . S
N794 H801 0.984 . S
N795 C788 1.356 . S
N795 H798 0.984 . S
N795 H799 0.985 . S
H796 N791 0.984 . S
H797 N791 0.985 . S
H798 N795 0.984 . S
H799 N795 0.985 . S
H800 N794 0.984 . S
H801 N794 0.984 . S
H802 N790 0.984 . S
H803 N790 0.985 . S
C804 C805 1.363 . S
C804 C810 1.379 1_655 S
C804 N812 1.356 . S
C805 C804 1.363 . S
C805 C811 1.363 . S
C806 C807 1.363 . S
C806 C811 1.379 1_455 S
C806 N813 1.356 . S
C807 C806 1.363 . S
C807 C810 1.363 . S
N808 C810 1.356 . S
N808 H820 0.984 . S
N808 H821 0.985 . S
N809 C811 1.356 . S
N809 H814 0.984 . S
N809 H815 0.985 . S
C810 C804 1.379 1_455 S
C810 C807 1.363 . S
C810 N808 1.356 . S
C811 C805 1.363 . S
C811 C806 1.379 1_655 S
C811 N809 1.356 . S
N812 C804 1.356 . S
N812 H818 0.984 . S
N812 H819 0.984 . S
N813 C806 1.356 . S
N813 H816 0.984 . S
N813 H817 0.985 . S
H814 N809 0.984 . S
H815 N809 0.985 . S
H816 N813 0.984 . S
H817 N813 0.985 . S
H818 N812 0.984 . S
H819 N812 0.984 . S
H820 N808 0.984 . S
H821 N808 0.985 . S
C822 C823 1.363 . S
C822 C828 1.379 1_545 S
C822 N830 1.356 . S
C823 C822 1.363 . S
C823 C829 1.363 . S
C824 C825 1.363 . S
C824 C829 1.379 1_565 S
C824 N831 1.356 . S
C825 C824 1.363 . S
C825 C828 1.363 . S
N826 C828 1.356 . S
N826 H838 0.984 . S
N826 H839 0.985 . S
N827 C829 1.356 . S
N827 H832 0.984 . S
N827 H833 0.985 . S
C828 C822 1.379 1_565 S
C828 C825 1.363 . S
C828 N826 1.356 . S
C829 C823 1.363 . S
C829 C824 1.379 1_545 S
C829 N827 1.356 . S
N830 C822 1.356 . S
N830 H836 0.984 . S
N830 H837 0.984 . S
N831 C824 1.356 . S
N831 H834 0.984 . S
N831 H835 0.985 . S
H832 N827 0.984 . S
H833 N827 0.985 . S
H834 N831 0.984 . S
H835 N831 0.985 . S
H836 N830 0.984 . S
H837 N830 0.984 . S
H838 N826 0.984 . S
H839 N826 0.985 . S
C840 C841 1.363 . S
C840 C846 1.379 1_565 S
C840 N848 1.356 . S
C841 C840 1.363 . S
C841 C847 1.363 . S
C842 C843 1.363 . S
C842 C847 1.379 1_545 S
C842 N849 1.356 . S
C843 C842 1.363 . S
C843 C846 1.363 . S
N844 C846 1.356 . S
N844 H856 0.984 . S
N844 H857 0.985 . S
N845 C847 1.356 . S
N845 H850 0.984 . S
N845 H851 0.985 . S
C846 C840 1.379 1_545 S
C846 C843 1.363 . S
C846 N844 1.356 . S
C847 C841 1.363 . S
C847 C842 1.379 1_565 S
C847 N845 1.356 . S
N848 C840 1.356 . S
N848 H854 0.984 . S
N848 H855 0.984 . S
N849 C842 1.356 . S
N849 H852 0.984 . S
N849 H853 0.985 . S
H850 N845 0.984 . S
H851 N845 0.985 . S
H852 N849 0.984 . S
H853 N849 0.985 . S
H854 N848 0.984 . S
H855 N848 0.984 . S
H856 N844 0.984 . S
H857 N844 0.985 . S
C858 C859 1.363 . S
C858 C864 1.379 1_655 S
C858 N866 1.356 . S
C859 C858 1.363 . S
C859 C865 1.363 . S
C860 C861 1.363 . S
C860 C865 1.379 1_455 S
C860 N867 1.356 . S
C861 C860 1.363 . S
C861 C864 1.363 . S
N862 C864 1.356 . S
N862 H874 0.984 . S
N862 H875 0.985 . S
N863 C865 1.356 . S
N863 H868 0.984 . S
N863 H869 0.985 . S
C864 C858 1.379 1_455 S
C864 C861 1.363 . S
C864 N862 1.356 . S
C865 C859 1.363 . S
C865 C860 1.379 1_655 S
C865 N863 1.356 . S
N866 C858 1.356 . S
N866 H872 0.984 . S
N866 H873 0.984 . S
N867 C860 1.356 . S
N867 H870 0.984 . S
N867 H871 0.985 . S
H868 N863 0.984 . S
H869 N863 0.985 . S
H870 N867 0.984 . S
H871 N867 0.985 . S
H872 N866 0.984 . S
H873 N866 0.984 . S
H874 N862 0.984 . S
H875 N862 0.985 . S
C876 C877 1.363 . S
C876 C882 1.379 1_565 S
C876 N884 1.356 . S
C877 C876 1.363 . S
C877 C883 1.363 . S
C878 C879 1.363 . S
C878 C883 1.379 1_545 S
C878 N885 1.356 . S
C879 C878 1.363 . S
C879 C882 1.363 . S
N880 C882 1.356 . S
N880 H892 0.984 . S
N880 H893 0.985 . S
N881 C883 1.356 . S
N881 H886 0.984 . S
N881 H887 0.985 . S
C882 C876 1.379 1_545 S
C882 C879 1.363 . S
C882 N880 1.356 . S
C883 C877 1.363 . S
C883 C878 1.379 1_565 S
C883 N881 1.356 . S
N884 C876 1.356 . S
N884 H890 0.984 . S
N884 H891 0.984 . S
N885 C878 1.356 . S
N885 H888 0.984 . S
N885 H889 0.985 . S
H886 N881 0.984 . S
H887 N881 0.985 . S
H888 N885 0.984 . S
H889 N885 0.985 . S
H890 N884 0.984 . S
H891 N884 0.984 . S
H892 N880 0.984 . S
H893 N880 0.985 . S
C894 C895 1.363 . S
C894 C900 1.379 1_655 S
C894 N902 1.356 . S
C895 C894 1.363 . S
C895 C901 1.363 . S
C896 C897 1.363 . S
C896 C901 1.379 1_455 S
C896 N903 1.356 . S
C897 C896 1.363 . S
C897 C900 1.363 . S
N898 C900 1.356 . S
N898 H910 0.984 . S
N898 H911 0.985 . S
N899 C901 1.356 . S
N899 H904 0.984 . S
N899 H905 0.985 . S
C900 C894 1.379 1_455 S
C900 C897 1.363 . S
C900 N898 1.356 . S
C901 C895 1.363 . S
C901 C896 1.379 1_655 S
C901 N899 1.356 . S
N902 C894 1.356 . S
N902 H908 0.984 . S
N902 H909 0.984 . S
N903 C896 1.356 . S
N903 H906 0.984 . S
N903 H907 0.985 . S
H904 N899 0.984 . S
H905 N899 0.985 . S
H906 N903 0.984 . S
H907 N903 0.985 . S
H908 N902 0.984 . S
H909 N902 0.984 . S
H910 N898 0.984 . S
H911 N898 0.985 . S
C912 C913 1.363 . S
C912 C918 1.379 1_556 S
C912 N920 1.356 . S
C913 C912 1.363 . S
C913 C919 1.363 . S
C914 C915 1.363 . S
C914 C919 1.379 1_554 S
C914 N921 1.356 . S
C915 C914 1.363 . S
C915 C918 1.363 . S
N916 C918 1.356 . S
N916 H928 0.984 . S
N916 H929 0.985 . S
N917 C919 1.356 . S
N917 H922 0.984 . S
N917 H923 0.985 . S
C918 C912 1.379 1_554 S
C918 C915 1.363 . S
C918 N916 1.356 . S
C919 C913 1.363 . S
C919 C914 1.379 1_556 S
C919 N917 1.356 . S
N920 C912 1.356 . S
N920 H926 0.984 . S
N920 H927 0.984 . S
N921 C914 1.356 . S
N921 H924 0.984 . S
N921 H925 0.985 . S
H922 N917 0.984 . S
H923 N917 0.985 . S
H924 N921 0.984 . S
H925 N921 0.985 . S
H926 N920 0.984 . S
H927 N920 0.984 . S
H928 N916 0.984 . S
H929 N916 0.985 . S
C930 C931 1.363 . S
C930 C936 1.379 1_556 S
C930 N938 1.356 . S
C931 C930 1.363 . S
C931 C937 1.363 . S
C932 C933 1.363 . S
C932 C937 1.379 1_554 S
C932 N939 1.356 . S
C933 C932 1.363 . S
C933 C936 1.363 . S
N934 C936 1.356 . S
N934 H946 0.984 . S
N934 H947 0.985 . S
N935 C937 1.356 . S
N935 H940 0.984 . S
N935 H941 0.985 . S
C936 C930 1.379 1_554 S
C936 C933 1.363 . S
C936 N934 1.356 . S
C937 C931 1.363 . S
C937 C932 1.379 1_556 S
C937 N935 1.356 . S
N938 C930 1.356 . S
N938 H944 0.984 . S
N938 H945 0.984 . S
N939 C932 1.356 . S
N939 H942 0.984 . S
N939 H943 0.985 . S
H940 N935 0.984 . S
H941 N935 0.985 . S
H942 N939 0.984 . S
H943 N939 0.985 . S
H944 N938 0.984 . S
H945 N938 0.984 . S
H946 N934 0.984 . S
H947 N934 0.985 . S
C948 C949 1.363 . S
C948 C954 1.379 1_556 S
C948 N956 1.356 . S
C949 C948 1.363 . S
C949 C955 1.363 . S
C950 C951 1.363 . S
C950 C955 1.379 1_554 S
C950 N957 1.356 . S
C951 C950 1.363 . S
C951 C954 1.363 . S
N952 C954 1.356 . S
N952 H964 0.984 . S
N952 H965 0.985 . S
N953 C955 1.356 . S
N953 H958 0.984 . S
N953 H959 0.985 . S
C954 C948 1.379 1_554 S
C954 C951 1.363 . S
C954 N952 1.356 . S
C955 C949 1.363 . S
C955 C950 1.379 1_556 S
C955 N953 1.356 . S
N956 C948 1.356 . S
N956 H962 0.984 . S
N956 H963 0.984 . S
N957 C950 1.356 . S
N957 H960 0.984 . S
N957 H961 0.985 . S
H958 N953 0.984 . S
H959 N953 0.985 . S
H960 N957 0.984 . S
H961 N957 0.985 . S
H962 N956 0.984 . S
H963 N956 0.984 . S
H964 N952 0.984 . S
H965 N952 0.985 . S
C966 C967 1.363 . S
C966 C972 1.379 1_556 S
C966 N974 1.356 . S
C967 C966 1.363 . S
C967 C973 1.363 . S
C968 C969 1.363 . S
C968 C973 1.379 1_554 S
C968 N975 1.356 . S
C969 C968 1.363 . S
C969 C972 1.363 . S
N970 C972 1.356 . S
N970 H982 0.984 . S
N970 H983 0.985 . S
N971 C973 1.356 . S
N971 H976 0.984 . S
N971 H977 0.985 . S
C972 C966 1.379 1_554 S
C972 C969 1.363 . S
C972 N970 1.356 . S
C973 C967 1.363 . S
C973 C968 1.379 1_556 S
C973 N971 1.356 . S
N974 C966 1.356 . S
N974 H980 0.984 . S
N974 H981 0.984 . S
N975 C968 1.356 . S
N975 H978 0.984 . S
N975 H979 0.985 . S
H976 N971 0.984 . S
H977 N971 0.985 . S
H978 N975 0.984 . S
H979 N975 0.985 . S
H980 N974 0.984 . S
H981 N974 0.984 . S
H982 N970 0.984 . S
H983 N970 0.985 . S
C984 C985 1.363 . S
C984 C990 1.379 . S
C984 N992 1.356 . S
C985 C984 1.363 . S
C985 C991 1.363 . S
C986 C987 1.363 . S
C986 C991 1.379 . S
C986 N993 1.356 . S
C987 C986 1.363 . S
C987 C990 1.363 . S
N988 C990 1.356 . S
N988 H1000 0.984 . S
N988 H1001 0.985 . S
N989 C991 1.356 . S
N989 H994 0.984 . S
N989 H995 0.985 . S
C990 C984 1.379 . S
C990 C987 1.363 . S
C990 N988 1.356 . S
C991 C985 1.363 . S
C991 C986 1.379 . S
C991 N989 1.356 . S
N992 C984 1.356 . S
N992 H998 0.984 . S
N992 H999 0.984 . S
N993 C986 1.356 . S
N993 H996 0.984 . S
N993 H997 0.985 . S
H994 N989 0.984 . S
H995 N989 0.985 . S
H996 N993 0.984 . S
H997 N993 0.985 . S
H998 N992 0.984 . S
H999 N992 0.984 . S
H1000 N988 0.984 . S
H1001 N988 0.985 . S
C1002 C1003 1.363 . S
C1002 C1008 1.379 . S
C1002 N1010 1.356 . S
C1003 C1002 1.363 . S
C1003 C1009 1.363 . S
C1004 C1005 1.363 . S
C1004 C1009 1.379 . S
C1004 N1011 1.356 . S
C1005 C1004 1.363 . S
C1005 C1008 1.363 . S
N1006 C1008 1.356 . S
N1006 H1018 0.984 . S
N1006 H1019 0.985 . S
N1007 C1009 1.356 . S
N1007 H1012 0.984 . S
N1007 H1013 0.985 . S
C1008 C1002 1.379 . S
C1008 C1005 1.363 . S
C1008 N1006 1.356 . S
C1009 C1003 1.363 . S
C1009 C1004 1.379 . S
C1009 N1007 1.356 . S
N1010 C1002 1.356 . S
N1010 H1016 0.984 . S
N1010 H1017 0.984 . S
N1011 C1004 1.356 . S
N1011 H1014 0.984 . S
N1011 H1015 0.985 . S
H1012 N1007 0.984 . S
H1013 N1007 0.985 . S
H1014 N1011 0.984 . S
H1015 N1011 0.985 . S
H1016 N1010 0.984 . S
H1017 N1010 0.984 . S
H1018 N1006 0.984 . S
H1019 N1006 0.985 . S
C1020 C1021 1.363 . S
C1020 C1026 1.379 . S
C1020 N1028 1.356 . S
C1021 C1020 1.363 . S
C1021 C1027 1.363 . S
C1022 C1023 1.363 . S
C1022 C1027 1.379 . S
C1022 N1029 1.356 . S
C1023 C1022 1.363 . S
C1023 C1026 1.363 . S
N1024 C1026 1.356 . S
N1024 H1036 0.984 . S
N1024 H1037 0.985 . S
N1025 C1027 1.356 . S
N1025 H1030 0.984 . S
N1025 H1031 0.985 . S
C1026 C1020 1.379 . S
C1026 C1023 1.363 . S
C1026 N1024 1.356 . S
C1027 C1021 1.363 . S
C1027 C1022 1.379 . S
C1027 N1025 1.356 . S
N1028 C1020 1.356 . S
N1028 H1034 0.984 . S
N1028 H1035 0.984 . S
N1029 C1022 1.356 . S
N1029 H1032 0.984 . S
N1029 H1033 0.985 . S
H1030 N1025 0.984 . S
H1031 N1025 0.985 . S
H1032 N1029 0.984 . S
H1033 N1029 0.985 . S
H1034 N1028 0.984 . S
H1035 N1028 0.984 . S
H1036 N1024 0.984 . S
H1037 N1024 0.985 . S
C1038 C1039 1.363 . S
C1038 C1044 1.379 . S
C1038 N1046 1.356 . S
C1039 C1038 1.363 . S
C1039 C1045 1.363 . S
C1040 C1041 1.363 . S
C1040 C1045 1.379 . S
C1040 N1047 1.356 . S
C1041 C1040 1.363 . S
C1041 C1044 1.363 . S
N1042 C1044 1.356 . S
N1042 H1054 0.984 . S
N1042 H1055 0.985 . S
N1043 C1045 1.356 . S
N1043 H1048 0.984 . S
N1043 H1049 0.985 . S
C1044 C1038 1.379 . S
C1044 C1041 1.363 . S
C1044 N1042 1.356 . S
C1045 C1039 1.363 . S
C1045 C1040 1.379 . S
C1045 N1043 1.356 . S
N1046 C1038 1.356 . S
N1046 H1052 0.984 . S
N1046 H1053 0.984 . S
N1047 C1040 1.356 . S
N1047 H1050 0.984 . S
N1047 H1051 0.985 . S
H1048 N1043 0.984 . S
H1049 N1043 0.985 . S
H1050 N1047 0.984 . S
H1051 N1047 0.985 . S
H1052 N1046 0.984 . S
H1053 N1046 0.984 . S
H1054 N1042 0.984 . S
H1055 N1042 0.985 . S
C1056 C1057 1.363 . S
C1056 C1062 1.379 . S
C1056 N1064 1.356 . S
C1057 C1056 1.363 . S
C1057 C1063 1.363 . S
C1058 C1059 1.363 . S
C1058 C1063 1.379 . S
C1058 N1065 1.356 . S
C1059 C1058 1.363 . S
C1059 C1062 1.363 . S
N1060 C1062 1.356 . S
N1060 H1072 0.984 . S
N1060 H1073 0.985 . S
N1061 C1063 1.356 . S
N1061 H1066 0.984 . S
N1061 H1067 0.985 . S
C1062 C1056 1.379 . S
C1062 C1059 1.363 . S
C1062 N1060 1.356 . S
C1063 C1057 1.363 . S
C1063 C1058 1.379 . S
C1063 N1061 1.356 . S
N1064 C1056 1.356 . S
N1064 H1070 0.984 . S
N1064 H1071 0.984 . S
N1065 C1058 1.356 . S
N1065 H1068 0.984 . S
N1065 H1069 0.985 . S
H1066 N1061 0.984 . S
H1067 N1061 0.985 . S
H1068 N1065 0.984 . S
H1069 N1065 0.985 . S
H1070 N1064 0.984 . S
H1071 N1064 0.984 . S
H1072 N1060 0.984 . S
H1073 N1060 0.985 . S
C1074 C1075 1.363 . S
C1074 C1080 1.379 . S
C1074 N1082 1.356 . S
C1075 C1074 1.363 . S
C1075 C1081 1.363 . S
C1076 C1077 1.363 . S
C1076 C1081 1.379 . S
C1076 N1083 1.356 . S
C1077 C1076 1.363 . S
C1077 C1080 1.363 . S
N1078 C1080 1.356 . S
N1078 H1090 0.984 . S
N1078 H1091 0.985 . S
N1079 C1081 1.356 . S
N1079 H1084 0.984 . S
N1079 H1085 0.985 . S
C1080 C1074 1.379 . S
C1080 C1077 1.363 . S
C1080 N1078 1.356 . S
C1081 C1075 1.363 . S
C1081 C1076 1.379 . S
C1081 N1079 1.356 . S
N1082 C1074 1.356 . S
N1082 H1088 0.984 . S
N1082 H1089 0.984 . S
N1083 C1076 1.356 . S
N1083 H1086 0.984 . S
N1083 H1087 0.985 . S
H1084 N1079 0.984 . S
H1085 N1079 0.985 . S
H1086 N1083 0.984 . S
H1087 N1083 0.985 . S
H1088 N1082 0.984 . S
H1089 N1082 0.984 . S
H1090 N1078 0.984 . S
H1091 N1078 0.985 . S
C1092 C1093 1.363 . S
C1092 C1098 1.379 . S
C1092 N1100 1.356 . S
C1093 C1092 1.363 . S
C1093 C1099 1.363 . S
C1094 C1095 1.363 . S
C1094 C1099 1.379 . S
C1094 N1101 1.356 . S
C1095 C1094 1.363 . S
C1095 C1098 1.363 . S
N1096 C1098 1.356 . S
N1096 H1108 0.984 . S
N1096 H1109 0.985 . S
N1097 C1099 1.356 . S
N1097 H1102 0.984 . S
N1097 H1103 0.985 . S
C1098 C1092 1.379 . S
C1098 C1095 1.363 . S
C1098 N1096 1.356 . S
C1099 C1093 1.363 . S
C1099 C1094 1.379 . S
C1099 N1097 1.356 . S
N1100 C1092 1.356 . S
N1100 H1106 0.984 . S
N1100 H1107 0.984 . S
N1101 C1094 1.356 . S
N1101 H1104 0.984 . S
N1101 H1105 0.985 . S
H1102 N1097 0.984 . S
H1103 N1097 0.985 . S
H1104 N1101 0.984 . S
H1105 N1101 0.985 . S
H1106 N1100 0.984 . S
H1107 N1100 0.984 . S
H1108 N1096 0.984 . S
H1109 N1096 0.985 . S
C1110 C1111 1.363 . S
C1110 C1116 1.379 . S
C1110 N1118 1.356 . S
C1111 C1110 1.363 . S
C1111 C1117 1.363 . S
C1112 C1113 1.363 . S
C1112 C1117 1.379 . S
C1112 N1119 1.356 . S
C1113 C1112 1.363 . S
C1113 C1116 1.363 . S
N1114 C1116 1.356 . S
N1114 H1126 0.984 . S
N1114 H1127 0.985 . S
N1115 C1117 1.356 . S
N1115 H1120 0.984 . S
N1115 H1121 0.985 . S
C1116 C1110 1.379 . S
C1116 C1113 1.363 . S
C1116 N1114 1.356 . S
C1117 C1111 1.363 . S
C1117 C1112 1.379 . S
C1117 N1115 1.356 . S
N1118 C1110 1.356 . S
N1118 H1124 0.984 . S
N1118 H1125 0.984 . S
N1119 C1112 1.356 . S
N1119 H1122 0.984 . S
N1119 H1123 0.985 . S
H1120 N1115 0.984 . S
H1121 N1115 0.985 . S
H1122 N1119 0.984 . S
H1123 N1119 0.985 . S
H1124 N1118 0.984 . S
H1125 N1118 0.984 . S
H1126 N1114 0.984 . S
H1127 N1114 0.985 . S
C1128 C1129 1.363 . S
C1128 C1134 1.379 . S
C1128 N1136 1.356 . S
C1129 C1128 1.363 . S
C1129 C1135 1.363 . S
C1130 C1131 1.363 . S
C1130 C1135 1.379 . S
C1130 N1137 1.356 . S
C1131 C1130 1.363 . S
C1131 C1134 1.363 . S
N1132 C1134 1.356 . S
N1132 H1144 0.984 . S
N1132 H1145 0.985 . S
N1133 C1135 1.356 . S
N1133 H1138 0.984 . S
N1133 H1139 0.985 . S
C1134 C1128 1.379 . S
C1134 C1131 1.363 . S
C1134 N1132 1.356 . S
C1135 C1129 1.363 . S
C1135 C1130 1.379 . S
C1135 N1133 1.356 . S
N1136 C1128 1.356 . S
N1136 H1142 0.984 . S
N1136 H1143 0.984 . S
N1137 C1130 1.356 . S
N1137 H1140 0.984 . S
N1137 H1141 0.985 . S
H1138 N1133 0.984 . S
H1139 N1133 0.985 . S
H1140 N1137 0.984 . S
H1141 N1137 0.985 . S
H1142 N1136 0.984 . S
H1143 N1136 0.984 . S
H1144 N1132 0.984 . S
H1145 N1132 0.985 . S
C1146 C1147 1.363 . S
C1146 C1152 1.379 . S
C1146 N1154 1.356 . S
C1147 C1146 1.363 . S
C1147 C1153 1.363 . S
C1148 C1149 1.363 . S
C1148 C1153 1.379 . S
C1148 N1155 1.356 . S
C1149 C1148 1.363 . S
C1149 C1152 1.363 . S
N1150 C1152 1.356 . S
N1150 H1162 0.984 . S
N1150 H1163 0.985 . S
N1151 C1153 1.356 . S
N1151 H1156 0.984 . S
N1151 H1157 0.985 . S
C1152 C1146 1.379 . S
C1152 C1149 1.363 . S
C1152 N1150 1.356 . S
C1153 C1147 1.363 . S
C1153 C1148 1.379 . S
C1153 N1151 1.356 . S
N1154 C1146 1.356 . S
N1154 H1160 0.984 . S
N1154 H1161 0.984 . S
N1155 C1148 1.356 . S
N1155 H1158 0.984 . S
N1155 H1159 0.985 . S
H1156 N1151 0.984 . S
H1157 N1151 0.985 . S
H1158 N1155 0.984 . S
H1159 N1155 0.985 . S
H1160 N1154 0.984 . S
H1161 N1154 0.984 . S
H1162 N1150 0.984 . S
H1163 N1150 0.985 . S
C1164 C1165 1.363 . S
C1164 C1170 1.379 . S
C1164 N1172 1.356 . S
C1165 C1164 1.363 . S
C1165 C1171 1.363 . S
C1166 C1167 1.363 . S
C1166 C1171 1.379 . S
C1166 N1173 1.356 . S
C1167 C1166 1.363 . S
C1167 C1170 1.363 . S
N1168 C1170 1.356 . S
N1168 H1180 0.984 . S
N1168 H1181 0.985 . S
N1169 C1171 1.356 . S
N1169 H1174 0.984 . S
N1169 H1175 0.985 . S
C1170 C1164 1.379 . S
C1170 C1167 1.363 . S
C1170 N1168 1.356 . S
C1171 C1165 1.363 . S
C1171 C1166 1.379 . S
C1171 N1169 1.356 . S
N1172 C1164 1.356 . S
N1172 H1178 0.984 . S
N1172 H1179 0.984 . S
N1173 C1166 1.356 . S
N1173 H1176 0.984 . S
N1173 H1177 0.985 . S
H1174 N1169 0.984 . S
H1175 N1169 0.985 . S
H1176 N1173 0.984 . S
H1177 N1173 0.985 . S
H1178 N1172 0.984 . S
H1179 N1172 0.984 . S
H1180 N1168 0.984 . S
H1181 N1168 0.985 . S
C1182 C1183 1.363 . S
C1182 C1188 1.379 . S
C1182 N1190 1.356 . S
C1183 C1182 1.363 . S
C1183 C1189 1.363 . S
C1184 C1185 1.363 . S
C1184 C1189 1.379 . S
C1184 N1191 1.356 . S
C1185 C1184 1.363 . S
C1185 C1188 1.363 . S
N1186 C1188 1.356 . S
N1186 H1198 0.984 . S
N1186 H1199 0.985 . S
N1187 C1189 1.356 . S
N1187 H1192 0.984 . S
N1187 H1193 0.985 . S
C1188 C1182 1.379 . S
C1188 C1185 1.363 . S
C1188 N1186 1.356 . S
C1189 C1183 1.363 . S
C1189 C1184 1.379 . S
C1189 N1187 1.356 . S
N1190 C1182 1.356 . S
N1190 H1196 0.984 . S
N1190 H1197 0.984 . S
N1191 C1184 1.356 . S
N1191 H1194 0.984 . S
N1191 H1195 0.985 . S
H1192 N1187 0.984 . S
H1193 N1187 0.985 . S
H1194 N1191 0.984 . S
H1195 N1191 0.985 . S
H1196 N1190 0.984 . S
H1197 N1190 0.984 . S
H1198 N1186 0.984 . S
H1199 N1186 0.985 . S
C337 C167 1.327 . S
C339 C7 1.487 . S
C355 C21 1.488 . S
C357 C125 1.327 . S
C373 C35 1.487 . S
C375 C139 1.327 . S
C391 C49 1.488 . S
C393 C153 1.327 . S
C409 C195 1.327 . S
C411 C63 1.488 . S
C427 C77 1.487 . S
C429 C209 1.327 . S
C445 C223 1.327 . S
C447 C91 1.488 . S
C463 C181 1.327 . S
C465 C105 1.487 . S
C481 C83 1.327 . S
C483 C119 1.487 . S
C499 C97 1.327 . S
C501 C133 1.488 . S
C517 C147 1.487 . S
C519 C111 1.327 . S
C535 C69 1.327 . S
C537 C161 1.488 . S
C553 C55 1.327 . S
C555 C175 1.488 . S
C571 C189 1.487 . S
C573 C13 1.327 . S
C589 C203 1.488 . S
C591 C27 1.327 . S
C607 C217 1.487 . S
C609 C41 1.327 . S
C625 C231 1.487 . S
C627 C335 1.327 . S
C643 C293 1.327 . S
C645 C245 1.488 . S
C661 C259 1.488 . S
C663 C251 1.327 . S
C679 C273 1.488 . S
C681 C265 1.327 . S
C697 C279 1.327 . S
C699 C287 1.487 . S
C715 C301 1.488 . S
C717 C321 1.327 . S
C733 C237 1.327 . S
C735 C315 1.488 . S
C751 C307 1.327 . S
C753 C329 1.488 . S
C769 C8 1.283 . S
C771 C92 1.283 . S
C787 C22 1.283 . S
C789 C106 1.283 . S
C805 C36 1.283 . S
C807 C64 1.283 . S
C823 C78 1.283 . S
C825 C50 1.283 . S
C841 C148 1.283 . S
C843 C120 1.283 . S
C859 C134 1.283 . S
C861 C162 1.283 . S
C877 C176 1.283 . S
C879 C204 1.283 . S
C895 C218 1.283 . S
C897 C190 1.283 . S
C913 C246 1.283 . S
C915 C232 1.283 . S
C931 C260 1.283 . S
C933 C330 1.283 . S
C949 C274 1.283 . S
C951 C302 1.283 . S
C967 C288 1.283 . S
C969 C316 1.283 . S
C985 C11 1.167 . S
C987 C81 1.167 . S
C1003 C25 1.166 . S
C1005 C95 1.166 . S
C1021 C39 1.167 . S
C1023 C109 1.167 . S
C1039 C67 1.166 . S
C1041 C53 1.166 . S
C1057 C123 1.167 . S
C1059 C333 1.167 . S
C1075 C137 1.166 . S
C1077 C305 1.166 . S
C1093 C319 1.166 . S
C1095 C151 1.166 . S
C1111 C165 1.167 . S
C1113 C235 1.167 . S
C1129 C291 1.167 . S
C1131 C179 1.167 . S
C1147 C249 1.166 . S
C1149 C193 1.166 . S
C1165 C207 1.166 . S
C1167 C263 1.166 . S
C1183 C277 1.167 . S
C1185 C221 1.167 . S
