# Generated by pormake.
# Topology ooa, (5)-cn, num edge types: 1
# Building blocks:
#     Node 0, Type 0, BuildingBlock: XOMCOT_clean_sbu_1, # of connection points: 5
#     Node 1, Type 0, BuildingBlock: XOMCOT_clean_sbu_1, # of connection points: 5
#     Node 2, Type 0, BuildingBlock: XOMCOT_clean_sbu_1, # of connection points: 5
#     Node 3, Type 0, BuildingBlock: XOMCOT_clean_sbu_1, # of connection points: 5
#     Node 4, Type 0, BuildingBlock: XOMCOT_clean_sbu_1, # of connection points: 5
#     Node 5, Type 0, BuildingBlock: XOMCOT_clean_sbu_1, # of connection points: 5
#     Node 6, Type 0, BuildingBlock: XOMCOT_clean_sbu_1, # of connection points: 5
#     Node 7, Type 0, BuildingBlock: XOMCOT_clean_sbu_1, # of connection points: 5
#     Edge 8, Type (0, 0), BuildingBlock: EYOCIG_clean_linker_4, # of connection points: 2
#     Edge 9, Type (0, 0), BuildingBlock: EYOCIG_clean_linker_4, # of connection points: 2
#     Edge 10, Type (0, 0), BuildingBlock: EYOCIG_clean_linker_4, # of connection points: 2
#     Edge 11, Type (0, 0), BuildingBlock: EYOCIG_clean_linker_4, # of connection points: 2
#     Edge 12, Type (0, 0), BuildingBlock: EYOCIG_clean_linker_4, # of connection points: 2
#     Edge 13, Type (0, 0), BuildingBlock: EYOCIG_clean_linker_4, # of connection points: 2
#     Edge 14, Type (0, 0), BuildingBlock: EYOCIG_clean_linker_4, # of connection points: 2
#     Edge 15, Type (0, 0), BuildingBlock: EYOCIG_clean_linker_4, # of connection points: 2
#     Edge 16, Type (0, 0), BuildingBlock: EYOCIG_clean_linker_4, # of connection points: 2
#     Edge 17, Type (0, 0), BuildingBlock: EYOCIG_clean_linker_4, # of connection points: 2
#     Edge 18, Type (0, 0), BuildingBlock: EYOCIG_clean_linker_4, # of connection points: 2
#     Edge 19, Type (0, 0), BuildingBlock: EYOCIG_clean_linker_4, # of connection points: 2
#     Edge 20, Type (0, 0), BuildingBlock: EYOCIG_clean_linker_4, # of connection points: 2
#     Edge 21, Type (0, 0), BuildingBlock: EYOCIG_clean_linker_4, # of connection points: 2
#     Edge 22, Type (0, 0), BuildingBlock: EYOCIG_clean_linker_4, # of connection points: 2
#     Edge 23, Type (0, 0), BuildingBlock: EYOCIG_clean_linker_4, # of connection points: 2
#     Edge 24, Type (0, 0), BuildingBlock: EYOCIG_clean_linker_4, # of connection points: 2
#     Edge 25, Type (0, 0), BuildingBlock: EYOCIG_clean_linker_4, # of connection points: 2
#     Edge 26, Type (0, 0), BuildingBlock: EYOCIG_clean_linker_4, # of connection points: 2
#     Edge 27, Type (0, 0), BuildingBlock: EYOCIG_clean_linker_4, # of connection points: 2
# Relax obj value: 0.418
# Max RMSD: 0.219
# Mean RMSD: 0.219
data_MOF--net-ooa--node1-XOMCOT_clean_sbu_1--edge1-EYOCIG_clean_linker_4
_symmetry_space_group_name_H-M    P1
_symmetry_Int_Tables_number       1
_symmetry_cell_setting            triclinic
loop_
_symmetry_equiv_pos_as_xyz
'x, y, z'
_cell_length_a     23.8949
_cell_length_b     25.498183
_cell_length_c     39.782505
_cell_angle_alpha  89.990175
_cell_angle_beta   89.985232
_cell_angle_gamma 89.98513
loop_
_atom_site_label
_atom_site_type_symbol
_atom_site_fract_x
_atom_site_fract_y
_atom_site_fract_z
_atom_type_partial_charge
C0 C 0.09306 0.11228 0.1158 0.0
C1 C 0.12977 0.07222 0.12281 0.0
N2 N 0.16761 0.07061 0.09792 0.0
N3 N 0.10837 0.13567 0.08675 0.0
C4 C 0.15406 0.10913 0.07633 0.0
H5 H 0.05622 0.12248 0.13018 0.0
Co6 Co 0.06575 0.18555 0.06434 0.0
C7 C 0.16648 0.25387 0.04213 0.0
O8 O 0.15086 0.29594 0.05859 0.0
N9 N 0.0179 0.23374 0.04169 0.0
C10 C 0.96871 0.30272 0.02335 0.0
C11 C 0.01953 0.28612 0.0364 0.0
C12 C 0.96549 0.21987 0.0318 0.0
N13 N 0.93498 0.26077 0.02065 0.0
O14 O 0.05692 0.13656 0.02863 0.0
H15 H 0.05363 0.3115 0.04332 0.0
H16 H 0.94866 0.18078 0.03425 0.0
O17 O 0.13589 0.2125 0.04249 0.0
C18 C 0.02358 0.09994 0.03714 0.0
O19 O 0.99561 0.1038 0.06542 0.0
N20 N 0.07202 0.22986 0.102 0.0
C21 C 0.07117 0.24512 0.17121 0.0
C22 C 0.12189 0.2428 0.15381 0.0
C23 C 0.12152 0.23495 0.11903 0.0
C24 C 0.02241 0.23724 0.11833 0.0
C25 C 0.02106 0.24507 0.15311 0.0
H26 H 0.16071 0.22541 0.10699 0.0
H27 H 0.98342 0.23052 0.10526 0.0
H28 H 0.1753 0.11621 0.05272 0.0
H29 H 0.12775 0.04525 0.1438 0.0
H30 H 0.95681 0.34271 0.01765 0.0
H31 H 0.16131 0.242 0.16726 0.0
H32 H 0.98113 0.24634 0.166 0.0
C33 C 0.44024 0.84928 0.11524 0.0
C34 C 0.40347 0.88927 0.12227 0.0
N35 N 0.36542 0.89063 0.0975 0.0
N36 N 0.42477 0.82567 0.08631 0.0
C37 C 0.37891 0.85202 0.07597 0.0
H38 H 0.4772 0.83923 0.12955 0.0
Co39 Co 0.46732 0.77558 0.06404 0.0
C40 C 0.3665 0.70722 0.04203 0.0
O41 O 0.38197 0.66528 0.05867 0.0
N42 N 0.51513 0.72718 0.04157 0.0
C43 C 0.56414 0.65806 0.02326 0.0
C44 C 0.51331 0.67481 0.03623 0.0
C45 C 0.56765 0.74088 0.03178 0.0
N46 N 0.59806 0.6999 0.02065 0.0
O47 O 0.47623 0.82428 0.02818 0.0
H48 H 0.47904 0.64954 0.04303 0.0
H49 H 0.58461 0.77991 0.03426 0.0
O50 O 0.39718 0.74854 0.04227 0.0
C51 C 0.50963 0.86094 0.03652 0.0
O52 O 0.53762 0.85728 0.0648 0.0
N53 N 0.46096 0.73157 0.10186 0.0
C54 C 0.4617 0.717 0.17115 0.0
C55 C 0.41101 0.71919 0.15372 0.0
C56 C 0.41144 0.72667 0.11891 0.0
C57 C 0.51055 0.72432 0.11824 0.0
C58 C 0.51184 0.71685 0.15306 0.0
H59 H 0.37227 0.73611 0.10682 0.0
H60 H 0.54956 0.7309 0.10515 0.0
H61 H 0.35745 0.8447 0.05246 0.0
H62 H 0.40556 0.91634 0.1432 0.0
H63 H 0.57591 0.61804 0.01753 0.0
H64 H 0.37157 0.72013 0.16716 0.0
H65 H 0.55176 0.71568 0.16596 0.0
C66 C 0.0939 0.34913 0.39487 0.0
C67 C 0.13078 0.38907 0.38798 0.0
N68 N 0.16851 0.39045 0.41292 0.0
N69 N 0.10899 0.32556 0.4239 0.0
C70 C 0.15473 0.35189 0.43443 0.0
H71 H 0.05709 0.33912 0.38042 0.0
Co72 Co 0.06615 0.27568 0.44618 0.0
C73 C 0.16678 0.20709 0.46828 0.0
O74 O 0.15119 0.16511 0.45173 0.0
N75 N 0.01813 0.2275 0.46869 0.0
C76 C 0.96884 0.15857 0.487 0.0
C77 C 0.01971 0.17511 0.47398 0.0
C78 C 0.9657 0.24142 0.47856 0.0
N79 N 0.93513 0.20056 0.4897 0.0
O80 O 0.05733 0.32449 0.48196 0.0
H81 H 0.05384 0.14971 0.4671 0.0
H82 H 0.94892 0.28054 0.47614 0.0
O83 O 0.13617 0.24847 0.46799 0.0
C84 C 0.02402 0.36115 0.47345 0.0
O85 O 0.99618 0.35736 0.44513 0.0
N86 N 0.07237 0.23157 0.40842 0.0
C87 C 0.07144 0.21688 0.33915 0.0
C88 C 0.12218 0.21889 0.35655 0.0
C89 C 0.12185 0.22643 0.39135 0.0
C90 C 0.02273 0.22449 0.39208 0.0
C91 C 0.02134 0.21696 0.35727 0.0
H92 H 0.16107 0.23574 0.40342 0.0
H93 H 0.98376 0.23126 0.40518 0.0
H94 H 0.17583 0.34464 0.45806 0.0
H95 H 0.12896 0.41614 0.36703 0.0
H96 H 0.9569 0.11859 0.4927 0.0
H97 H 0.1616 0.21965 0.34308 0.0
H98 H 0.9814 0.21594 0.3444 0.0
C99 C 0.43974 0.61291 0.39467 0.0
C100 C 0.40316 0.57271 0.3878 0.0
N101 N 0.36555 0.57098 0.41281 0.0
N102 N 0.42457 0.63627 0.42375 0.0
C103 C 0.37909 0.60958 0.43432 0.0
H104 H 0.47643 0.62321 0.38017 0.0
Co105 Co 0.46719 0.68625 0.44605 0.0
C106 C 0.36636 0.75453 0.4682 0.0
O107 O 0.38185 0.79653 0.45162 0.0
N108 N 0.51504 0.73449 0.4686 0.0
C109 C 0.56398 0.80333 0.48735 0.0
C110 C 0.51314 0.78676 0.47431 0.0
C111 C 0.5676 0.72068 0.47823 0.0
N112 N 0.59796 0.76148 0.48963 0.0
O113 O 0.47619 0.63738 0.48181 0.0
H114 H 0.47876 0.81209 0.4678 0.0
H115 H 0.58459 0.68168 0.4755 0.0
O116 O 0.39705 0.71321 0.46792 0.0
C117 C 0.50956 0.60075 0.47333 0.0
O118 O 0.53736 0.6045 0.44498 0.0
N119 N 0.46077 0.73047 0.40833 0.0
C120 C 0.46154 0.74552 0.33909 0.0
C121 C 0.41084 0.74314 0.3565 0.0
C122 C 0.41125 0.73542 0.39129 0.0
C123 C 0.51035 0.73792 0.39197 0.0
C124 C 0.51166 0.74564 0.35718 0.0
H125 H 0.3721 0.72584 0.40336 0.0
H126 H 0.54937 0.73132 0.40504 0.0
H127 H 0.35803 0.6166 0.458 0.0
H128 H 0.40512 0.54573 0.36681 0.0
H129 H 0.57567 0.84325 0.4934 0.0
H130 H 0.37141 0.74222 0.34306 0.0
H131 H 0.55158 0.74696 0.34428 0.0
C132 C 0.93702 0.84783 0.89505 0.0
C133 C 0.89986 0.88777 0.88866 0.0
N134 N 0.8631 0.8892 0.91413 0.0
N135 N 0.92303 0.8243 0.92429 0.0
C136 C 0.8777 0.85066 0.93545 0.0
H137 H 0.97329 0.83782 0.8801 0.0
Co138 Co 0.96659 0.77457 0.94619 0.0
C139 C 0.86657 0.70558 0.96862 0.0
O140 O 0.88212 0.66374 0.95189 0.0
N141 N 1.01523 0.72655 0.96839 0.0
C142 C 0.06467 0.65802 0.98715 0.0
C143 C 1.01368 0.6743 0.97419 0.0
C144 C 0.06777 0.74065 0.97789 0.0
N145 N 0.09842 0.70004 0.98931 0.0
O146 O 0.97581 0.82335 0.98196 0.0
H147 H 0.97933 0.64882 0.96788 0.0
H148 H 0.08447 0.77974 0.97514 0.0
O149 O 0.89706 0.74701 0.96834 0.0
C150 C 1.00882 0.86009 0.97317 0.0
O151 O 0.03597 0.85639 0.94459 0.0
N152 N 0.96002 0.73051 0.90839 0.0
C153 C 0.9602 0.7161 0.83909 0.0
C154 C 0.90965 0.71792 0.85671 0.0
C155 C 0.91037 0.72532 0.89153 0.0
C156 C 1.00949 0.72358 0.89182 0.0
C157 C 1.0105 0.7162 0.85699 0.0
H158 H 0.87125 0.73449 0.90378 0.0
H159 H 0.04859 0.73037 0.90475 0.0
H160 H 0.85754 0.84348 0.95939 0.0
H161 H 0.90089 0.91483 0.86769 0.0
H162 H 0.07659 0.61819 0.99333 0.0
H163 H 0.87008 0.71866 0.84342 0.0
H164 H 0.0503 0.7153 0.84394 0.0
C165 C 0.59542 0.11418 0.89437 0.0
C166 C 0.63203 0.07379 0.88795 0.0
N167 N 0.66843 0.07156 0.91357 0.0
N168 N 0.60942 0.13717 0.92377 0.0
C169 C 0.6542 0.11008 0.93498 0.0
H170 H 0.55941 0.12476 0.87936 0.0
Co171 Co 0.56616 0.18679 0.946 0.0
C172 C 0.6665 0.25521 0.9686 0.0
O173 O 0.65098 0.29729 0.95211 0.0
N174 N 0.51782 0.23466 0.96853 0.0
C175 C 0.46861 0.30303 0.98776 0.0
C176 C 0.51954 0.28681 0.97464 0.0
C177 C 0.46526 0.22054 0.978 0.0
N178 N 0.43475 0.26106 0.9897 0.0
O179 O 0.55693 0.13758 0.98155 0.0
H180 H 0.55395 0.31231 0.96845 0.0
H181 H 0.44844 0.18154 0.97502 0.0
O182 O 0.63592 0.21384 0.96816 0.0
C183 C 0.52388 0.10094 0.97266 0.0
O184 O 0.49662 0.10495 0.94414 0.0
N185 N 0.57273 0.23132 0.90842 0.0
C186 C 0.57229 0.24635 0.83917 0.0
C187 C 0.62291 0.24426 0.85669 0.0
C188 C 0.62233 0.23656 0.89149 0.0
C189 C 0.52321 0.23861 0.89197 0.0
C190 C 0.52207 0.2463 0.85717 0.0
H191 H 0.66146 0.22714 0.90363 0.0
H192 H 0.48414 0.23183 0.90495 0.0
H193 H 0.67409 0.11664 0.95907 0.0
H194 H 0.63079 0.04695 0.86688 0.0
H195 H 0.45682 0.34279 0.99417 0.0
H196 H 0.66242 0.24349 0.84332 0.0
H197 H 0.48222 0.24741 0.8442 0.0
C198 C 0.93811 0.6134 0.6155 0.0
C199 C 0.90118 0.5734 0.62218 0.0
N200 N 0.86397 0.57185 0.59695 0.0
N201 N 0.92356 0.63683 0.58633 0.0
C202 C 0.8781 0.61037 0.5755 0.0
H203 H 0.97461 0.62351 0.6302 0.0
Co204 Co 0.96672 0.68662 0.56419 0.0
C205 C 0.86639 0.75524 0.54174 0.0
O206 O 0.88194 0.79721 0.55832 0.0
N207 N 1.01504 0.73468 0.54178 0.0
C208 C 0.06434 0.80335 0.52308 0.0
C209 C 1.01343 0.78698 0.53613 0.0
C210 C 0.06753 0.72065 0.53211 0.0
N211 N 0.0981 0.76134 0.52073 0.0
O212 O 0.97593 0.63768 0.52851 0.0
H213 H 0.97917 0.81245 0.54267 0.0
H214 H 0.08431 0.68157 0.53476 0.0
O215 O 0.89694 0.71383 0.5421 0.0
C216 C 1.00914 0.60107 0.53725 0.0
O217 O 0.03656 0.60497 0.56572 0.0
N218 N 0.96011 0.73085 0.60189 0.0
C219 C 0.96033 0.74551 0.67118 0.0
C220 C 0.90977 0.74349 0.6536 0.0
C221 C 0.91047 0.73597 0.61879 0.0
C222 C 1.00958 0.73799 0.61841 0.0
C223 C 1.01061 0.7455 0.65323 0.0
H224 H 0.87137 0.72663 0.60659 0.0
H225 H 0.04868 0.73126 0.60545 0.0
H226 H 0.8575 0.61747 0.5517 0.0
H227 H 0.90264 0.5464 0.64317 0.0
H228 H 0.07623 0.84322 0.51704 0.0
H229 H 0.87022 0.74268 0.66692 0.0
H230 H 0.05042 0.74654 0.66625 0.0
C231 C 0.59452 0.34815 0.61585 0.0
C232 C 0.63117 0.38837 0.62254 0.0
N233 N 0.66823 0.39032 0.59724 0.0
N234 N 0.60912 0.32497 0.58661 0.0
C235 C 0.65432 0.3518 0.57575 0.0
H236 H 0.55813 0.33775 0.63059 0.0
Co237 Co 0.56617 0.27519 0.56434 0.0
C238 C 0.66669 0.20674 0.5419 0.0
O239 O 0.65111 0.16465 0.55835 0.0
N240 N 0.51805 0.22715 0.54181 0.0
C241 C 0.46881 0.15846 0.52312 0.0
C242 C 0.51966 0.17484 0.53622 0.0
C243 C 0.46561 0.24118 0.53205 0.0
N244 N 0.43507 0.20047 0.52067 0.0
O245 O 0.55713 0.32423 0.52868 0.0
H246 H 0.55385 0.14937 0.54287 0.0
H247 H 0.44882 0.28027 0.53466 0.0
O248 O 0.63611 0.24813 0.54234 0.0
C249 C 0.52394 0.36088 0.53737 0.0
O250 O 0.49635 0.35699 0.56579 0.0
N251 N 0.5726 0.23086 0.602 0.0
C252 C 0.57207 0.21645 0.67131 0.0
C253 C 0.62271 0.21827 0.65378 0.0
C254 C 0.62217 0.22566 0.61896 0.0
C255 C 0.52305 0.22382 0.61847 0.0
C256 C 0.52186 0.21646 0.6533 0.0
H257 H 0.66133 0.23492 0.60679 0.0
H258 H 0.48402 0.23059 0.60545 0.0
H259 H 0.67484 0.34499 0.55187 0.0
H260 H 0.62956 0.41527 0.64357 0.0
H261 H 0.45692 0.11857 0.51713 0.0
H262 H 0.66221 0.21905 0.66715 0.0
H263 H 0.482 0.21555 0.66628 0.0
C264 C 0.01953 0.00635 0.01003 0.0
C265 C 0.02418 0.0504 0.02041 0.0
C266 C 1.01355 0.95357 1.00038 0.0
C267 C 1.00865 0.90955 0.98999 0.0
C268 C 0.51941 0.00719 0.99955 0.0
C269 C 0.52416 0.05129 0.98926 0.0
C270 C 0.51356 0.95439 0.0092 0.0
C271 C 0.50896 0.91038 0.01967 0.0
C272 C 1.01382 0.50747 0.51021 0.0
C273 C 1.00893 0.55153 0.52054 0.0
C274 C 0.01983 0.45469 0.5006 0.0
C275 C 0.02455 0.41064 0.49022 0.0
C276 C 0.51378 0.50728 0.5006 0.0
C277 C 0.50908 0.55128 0.49014 0.0
C278 C 0.51967 0.45451 0.5103 0.0
C279 C 0.52435 0.41045 0.52068 0.0
C280 C 0.28701 0.96083 0.09202 0.0
C281 C 0.32285 0.92783 0.09384 0.0
C282 C 0.24566 0.00011 0.09215 0.0
C283 C 0.20995 0.03321 0.09415 0.0
C284 C 0.24668 0.46077 0.41878 0.0
C285 C 0.21095 0.42771 0.41681 0.0
C286 C 0.28786 0.5002 0.41875 0.0
C287 C 0.32338 0.53345 0.41671 0.0
C288 C 0.7855 0.9599 0.92085 0.0
C289 C 0.82092 0.92657 0.91861 0.0
C290 C 0.74484 -0.0002 0.92066 0.0
C291 C 0.70991 0.03353 0.91814 0.0
C292 C 0.74536 0.46152 0.59079 0.0
C293 C 0.71009 0.42805 0.59303 0.0
C294 C 0.78624 0.5012 0.59069 0.0
C295 C 0.82175 0.53445 0.5928 0.0
C296 C 0.27124 0.25413 0.01828 0.0
C297 C 0.22327 0.25202 0.0287 0.0
C298 C 0.32868 0.25744 0.00795 0.0
C299 C 0.37774 0.25975 0.99958 0.0
C300 C 0.20447 0.70363 0.00759 0.0
C301 C 0.15543 0.70135 0.99921 0.0
C302 C 0.26187 0.70693 0.01799 0.0
C303 C 0.30979 0.70905 0.02849 0.0
C304 C 0.329 0.20379 0.50242 0.0
C305 C 0.37806 0.20164 0.51079 0.0
C306 C 0.27155 0.20692 0.49209 0.0
C307 C 0.22358 0.20893 0.48168 0.0
C308 C 0.20418 0.75792 0.50247 0.0
C309 C 0.15512 0.76013 0.51084 0.0
C310 C 0.26162 0.75471 0.49211 0.0
C311 C 0.30959 0.75265 0.48167 0.0
C312 C 0.70427 0.70256 1.00266 0.0
C313 C 0.65514 0.70069 0.01091 0.0
C314 C 0.76178 0.70545 0.99242 0.0
C315 C 0.80975 0.70738 0.98201 0.0
C316 C 0.77131 0.25502 0.99235 0.0
C317 C 0.72332 0.25318 0.98196 0.0
C318 C 0.82881 0.2579 1.00259 0.0
C319 C 0.87791 0.25983 0.01088 0.0
C320 C 0.76161 0.75539 0.51795 0.0
C321 C 0.80959 0.75338 0.52835 0.0
C322 C 0.70412 0.75847 0.5077 0.0
C323 C 0.65502 0.76051 0.49942 0.0
C324 C 0.82898 0.20366 0.50782 0.0
C325 C 0.87808 0.2016 0.49951 0.0
C326 C 0.7715 0.20672 0.51811 0.0
C327 C 0.72351 0.20867 0.52851 0.0
C328 C 0.07039 0.22729 0.27281 0.0
C329 C 0.07069 0.22254 0.30303 0.0
C330 C 0.07028 0.23507 0.23757 0.0
C331 C 0.07044 0.23966 0.20735 0.0
C332 C 0.46257 0.72748 0.23749 0.0
C333 C 0.46239 0.7227 0.20727 0.0
C334 C 0.46252 0.73532 0.27273 0.0
C335 C 0.46229 0.73997 0.30295 0.0
C336 C 0.96076 0.73488 0.73752 0.0
C337 C 0.96073 0.73972 0.7073 0.0
C338 C 0.96069 0.72686 0.77275 0.0
C339 C 0.96055 0.72196 0.80296 0.0
C340 C 0.57146 0.2275 0.73762 0.0
C341 C 0.57155 0.22246 0.70741 0.0
C342 C 0.57155 0.23566 0.77283 0.0
C343 C 0.57176 0.24053 0.80305 0.0
loop_
_geom_bond_atom_site_label_1
_geom_bond_atom_site_label_2
_geom_bond_distance
_geom_bond_site_symmetry_2
_ccdc_geom_bond_type
C0 C1 1.351 . S
C0 N3 1.368 . S
C0 H5 0.931 . S
C1 C0 1.351 . S
C1 N2 1.373 . S
C1 H29 0.930 . S
N2 C1 1.373 . S
N2 C4 1.340 . S
N3 C0 1.368 . S
N3 C4 1.321 . S
N3 Co6 2.135 . S
C4 N2 1.340 . S
C4 N3 1.321 . S
C4 H28 0.930 . S
H5 C0 0.931 . S
Co6 N3 2.135 . S
Co6 N9 2.121 . S
Co6 O14 2.055 . S
Co6 O17 2.039 . S
Co6 N20 2.140 . S
C7 O8 1.227 . S
C7 O17 1.265 . S
O8 C7 1.227 . S
N9 Co6 2.121 . S
N9 C11 1.375 . S
N9 C12 1.313 1_455 S
C10 C11 1.338 1_655 S
C10 N13 1.377 . S
C10 H30 0.930 . S
C11 N9 1.375 . S
C11 C10 1.338 1_455 S
C11 H15 0.931 . S
C12 N9 1.313 1_655 S
C12 N13 1.344 . S
C12 H16 0.930 . S
N13 C10 1.377 . S
N13 C12 1.344 . S
O14 Co6 2.055 . S
O14 C18 1.252 1_455 S
H15 C11 0.931 . S
H16 C12 0.930 . S
O17 Co6 2.039 . S
O17 C7 1.265 . S
C18 O14 1.252 1_655 S
C18 O19 1.227 . S
O19 C18 1.227 . S
N20 Co6 2.140 . S
N20 C23 1.346 . S
N20 C24 1.345 . S
C21 C22 1.387 . S
C21 C25 1.391 . S
C22 C21 1.387 . S
C22 C23 1.369 . S
C22 H31 0.929 . S
C23 N20 1.346 . S
C23 C22 1.369 . S
C23 H26 0.928 . S
C24 N20 1.345 . S
C24 C25 1.371 . S
C24 H27 0.931 1_455 S
C25 C21 1.391 . S
C25 C24 1.371 . S
C25 H32 0.930 1_455 S
H26 C23 0.928 . S
H27 C24 0.931 1_655 S
H28 C4 0.930 . S
H29 C1 0.930 . S
H30 C10 0.930 . S
H31 C22 0.929 . S
H32 C25 0.930 1_655 S
C33 C34 1.351 . S
C33 N36 1.368 . S
C33 H38 0.931 . S
C34 C33 1.351 . S
C34 N35 1.373 . S
C34 H62 0.930 . S
N35 C34 1.373 . S
N35 C37 1.340 . S
N36 C33 1.368 . S
N36 C37 1.321 . S
N36 Co39 2.135 . S
C37 N35 1.340 . S
C37 N36 1.321 . S
C37 H61 0.930 . S
H38 C33 0.931 . S
Co39 N36 2.135 . S
Co39 N42 2.121 . S
Co39 O47 2.055 . S
Co39 O50 2.039 . S
Co39 N53 2.140 . S
C40 O41 1.227 . S
C40 O50 1.265 . S
O41 C40 1.227 . S
N42 Co39 2.121 . S
N42 C44 1.375 . S
N42 C45 1.313 . S
C43 C44 1.338 . S
C43 N46 1.377 . S
C43 H63 0.930 . S
C44 N42 1.375 . S
C44 C43 1.338 . S
C44 H48 0.931 . S
C45 N42 1.313 . S
C45 N46 1.344 . S
C45 H49 0.930 . S
N46 C43 1.377 . S
N46 C45 1.344 . S
O47 Co39 2.055 . S
O47 C51 1.253 . S
H48 C44 0.931 . S
H49 C45 0.930 . S
O50 Co39 2.039 . S
O50 C40 1.265 . S
C51 O47 1.253 . S
C51 O52 1.227 . S
O52 C51 1.227 . S
N53 Co39 2.140 . S
N53 C56 1.346 . S
N53 C57 1.345 . S
C54 C55 1.387 . S
C54 C58 1.391 . S
C55 C54 1.387 . S
C55 C56 1.369 . S
C55 H64 0.929 . S
C56 N53 1.346 . S
C56 C55 1.369 . S
C56 H59 0.928 . S
C57 N53 1.345 . S
C57 C58 1.371 . S
C57 H60 0.931 . S
C58 C54 1.391 . S
C58 C57 1.371 . S
C58 H65 0.930 . S
H59 C56 0.928 . S
H60 C57 0.931 . S
H61 C37 0.930 . S
H62 C34 0.930 . S
H63 C43 0.930 . S
H64 C55 0.929 . S
H65 C58 0.930 . S
C66 C67 1.351 . S
C66 N69 1.368 . S
C66 H71 0.931 . S
C67 C66 1.351 . S
C67 N68 1.373 . S
C67 H95 0.930 . S
N68 C67 1.373 . S
N68 C70 1.340 . S
N69 C66 1.368 . S
N69 C70 1.321 . S
N69 Co72 2.135 . S
C70 N68 1.340 . S
C70 N69 1.321 . S
C70 H94 0.930 . S
H71 C66 0.931 . S
Co72 N69 2.135 . S
Co72 N75 2.121 . S
Co72 O80 2.055 . S
Co72 O83 2.039 . S
Co72 N86 2.140 . S
C73 O74 1.227 . S
C73 O83 1.265 . S
O74 C73 1.227 . S
N75 Co72 2.121 . S
N75 C77 1.375 . S
N75 C78 1.313 1_455 S
C76 C77 1.338 1_655 S
C76 N79 1.377 . S
C76 H96 0.930 . S
C77 N75 1.375 . S
C77 C76 1.338 1_455 S
C77 H81 0.931 . S
C78 N75 1.313 1_655 S
C78 N79 1.344 . S
C78 H82 0.930 . S
N79 C76 1.377 . S
N79 C78 1.344 . S
O80 Co72 2.055 . S
O80 C84 1.252 1_455 S
H81 C77 0.931 . S
H82 C78 0.930 . S
O83 Co72 2.039 . S
O83 C73 1.265 . S
C84 O80 1.252 1_655 S
C84 O85 1.227 . S
O85 C84 1.227 . S
N86 Co72 2.140 . S
N86 C89 1.346 . S
N86 C90 1.345 . S
C87 C88 1.387 . S
C87 C91 1.391 . S
C88 C87 1.387 . S
C88 C89 1.369 . S
C88 H97 0.929 . S
C89 N86 1.346 . S
C89 C88 1.369 . S
C89 H92 0.928 . S
C90 N86 1.345 . S
C90 C91 1.371 . S
C90 H93 0.931 1_455 S
C91 C87 1.391 . S
C91 C90 1.371 . S
C91 H98 0.930 1_455 S
H92 C89 0.928 . S
H93 C90 0.931 1_655 S
H94 C70 0.930 . S
H95 C67 0.930 . S
H96 C76 0.930 . S
H97 C88 0.929 . S
H98 C91 0.930 1_655 S
C99 C100 1.351 . S
C99 N102 1.368 . S
C99 H104 0.931 . S
C100 C99 1.351 . S
C100 N101 1.373 . S
C100 H128 0.930 . S
N101 C100 1.373 . S
N101 C103 1.340 . S
N102 C99 1.368 . S
N102 C103 1.321 . S
N102 Co105 2.135 . S
C103 N101 1.340 . S
C103 N102 1.321 . S
C103 H127 0.930 . S
H104 C99 0.931 . S
Co105 N102 2.135 . S
Co105 N108 2.121 . S
Co105 O113 2.055 . S
Co105 O116 2.039 . S
Co105 N119 2.140 . S
C106 O107 1.227 . S
C106 O116 1.265 . S
O107 C106 1.227 . S
N108 Co105 2.121 . S
N108 C110 1.375 . S
N108 C111 1.313 . S
C109 C110 1.338 . S
C109 N112 1.377 . S
C109 H129 0.930 . S
C110 N108 1.375 . S
C110 C109 1.338 . S
C110 H114 0.931 . S
C111 N108 1.313 . S
C111 N112 1.344 . S
C111 H115 0.930 . S
N112 C109 1.377 . S
N112 C111 1.344 . S
O113 Co105 2.055 . S
O113 C117 1.253 . S
H114 C110 0.931 . S
H115 C111 0.930 . S
O116 Co105 2.039 . S
O116 C106 1.265 . S
C117 O113 1.253 . S
C117 O118 1.227 . S
O118 C117 1.227 . S
N119 Co105 2.140 . S
N119 C122 1.346 . S
N119 C123 1.345 . S
C120 C121 1.387 . S
C120 C124 1.391 . S
C121 C120 1.387 . S
C121 C122 1.369 . S
C121 H130 0.929 . S
C122 N119 1.346 . S
C122 C121 1.369 . S
C122 H125 0.928 . S
C123 N119 1.345 . S
C123 C124 1.371 . S
C123 H126 0.931 . S
C124 C120 1.391 . S
C124 C123 1.371 . S
C124 H131 0.930 . S
H125 C122 0.928 . S
H126 C123 0.931 . S
H127 C103 0.930 . S
H128 C100 0.930 . S
H129 C109 0.930 . S
H130 C121 0.929 . S
H131 C124 0.930 . S
C132 C133 1.351 . S
C132 N135 1.368 . S
C132 H137 0.931 . S
C133 C132 1.351 . S
C133 N134 1.373 . S
C133 H161 0.930 . S
N134 C133 1.373 . S
N134 C136 1.340 . S
N135 C132 1.368 . S
N135 C136 1.321 . S
N135 Co138 2.135 . S
C136 N134 1.340 . S
C136 N135 1.321 . S
C136 H160 0.930 . S
H137 C132 0.931 . S
Co138 N135 2.135 . S
Co138 N141 2.121 . S
Co138 O146 2.055 . S
Co138 O149 2.039 . S
Co138 N152 2.140 . S
C139 O140 1.227 . S
C139 O149 1.265 . S
O140 C139 1.227 . S
N141 Co138 2.121 . S
N141 C143 1.375 . S
N141 C144 1.313 1_655 S
C142 C143 1.338 1_455 S
C142 N145 1.377 . S
C142 H162 0.930 . S
C143 N141 1.375 . S
C143 C142 1.338 1_655 S
C143 H147 0.931 . S
C144 N141 1.313 1_455 S
C144 N145 1.344 . S
C144 H148 0.930 . S
N145 C142 1.377 . S
N145 C144 1.344 . S
O146 Co138 2.055 . S
O146 C150 1.252 1_655 S
H147 C143 0.931 . S
H148 C144 0.930 . S
O149 Co138 2.039 . S
O149 C139 1.265 . S
C150 O146 1.252 1_455 S
C150 O151 1.227 . S
O151 C150 1.227 . S
N152 Co138 2.140 . S
N152 C155 1.346 . S
N152 C156 1.345 . S
C153 C154 1.387 . S
C153 C157 1.391 . S
C154 C153 1.387 . S
C154 C155 1.369 . S
C154 H163 0.929 . S
C155 N152 1.346 . S
C155 C154 1.369 . S
C155 H158 0.928 . S
C156 N152 1.345 . S
C156 C157 1.371 . S
C156 H159 0.931 1_655 S
C157 C153 1.391 . S
C157 C156 1.371 . S
C157 H164 0.930 1_655 S
H158 C155 0.928 . S
H159 C156 0.931 1_455 S
H160 C136 0.930 . S
H161 C133 0.930 . S
H162 C142 0.930 . S
H163 C154 0.929 . S
H164 C157 0.930 1_455 S
C165 C166 1.351 . S
C165 N168 1.368 . S
C165 H170 0.931 . S
C166 C165 1.351 . S
C166 N167 1.373 . S
C166 H194 0.930 . S
N167 C166 1.373 . S
N167 C169 1.340 . S
N168 C165 1.368 . S
N168 C169 1.321 . S
N168 Co171 2.135 . S
C169 N167 1.340 . S
C169 N168 1.321 . S
C169 H193 0.930 . S
H170 C165 0.931 . S
Co171 N168 2.135 . S
Co171 N174 2.121 . S
Co171 O179 2.055 . S
Co171 O182 2.039 . S
Co171 N185 2.140 . S
C172 O173 1.227 . S
C172 O182 1.265 . S
O173 C172 1.227 . S
N174 Co171 2.121 . S
N174 C176 1.375 . S
N174 C177 1.313 . S
C175 C176 1.338 . S
C175 N178 1.377 . S
C175 H195 0.930 . S
C176 N174 1.375 . S
C176 C175 1.338 . S
C176 H180 0.931 . S
C177 N174 1.313 . S
C177 N178 1.344 . S
C177 H181 0.930 . S
N178 C175 1.377 . S
N178 C177 1.344 . S
O179 Co171 2.055 . S
O179 C183 1.253 . S
H180 C176 0.931 . S
H181 C177 0.930 . S
O182 Co171 2.039 . S
O182 C172 1.265 . S
C183 O179 1.253 . S
C183 O184 1.227 . S
O184 C183 1.227 . S
N185 Co171 2.140 . S
N185 C188 1.346 . S
N185 C189 1.345 . S
C186 C187 1.387 . S
C186 C190 1.391 . S
C187 C186 1.387 . S
C187 C188 1.369 . S
C187 H196 0.929 . S
C188 N185 1.346 . S
C188 C187 1.369 . S
C188 H191 0.928 . S
C189 N185 1.345 . S
C189 C190 1.371 . S
C189 H192 0.931 . S
C190 C186 1.391 . S
C190 C189 1.371 . S
C190 H197 0.930 . S
H191 C188 0.928 . S
H192 C189 0.931 . S
H193 C169 0.930 . S
H194 C166 0.930 . S
H195 C175 0.930 . S
H196 C187 0.929 . S
H197 C190 0.930 . S
C198 C199 1.351 . S
C198 N201 1.368 . S
C198 H203 0.931 . S
C199 C198 1.351 . S
C199 N200 1.373 . S
C199 H227 0.930 . S
N200 C199 1.373 . S
N200 C202 1.340 . S
N201 C198 1.368 . S
N201 C202 1.321 . S
N201 Co204 2.135 . S
C202 N200 1.340 . S
C202 N201 1.321 . S
C202 H226 0.930 . S
H203 C198 0.931 . S
Co204 N201 2.135 . S
Co204 N207 2.121 . S
Co204 O212 2.055 . S
Co204 O215 2.039 . S
Co204 N218 2.140 . S
C205 O206 1.227 . S
C205 O215 1.265 . S
O206 C205 1.227 . S
N207 Co204 2.121 . S
N207 C209 1.375 . S
N207 C210 1.313 1_655 S
C208 C209 1.338 1_455 S
C208 N211 1.377 . S
C208 H228 0.930 . S
C209 N207 1.375 . S
C209 C208 1.338 1_655 S
C209 H213 0.931 . S
C210 N207 1.313 1_455 S
C210 N211 1.344 . S
C210 H214 0.930 . S
N211 C208 1.377 . S
N211 C210 1.344 . S
O212 Co204 2.055 . S
O212 C216 1.252 1_655 S
H213 C209 0.931 . S
H214 C210 0.930 . S
O215 Co204 2.039 . S
O215 C205 1.265 . S
C216 O212 1.252 1_455 S
C216 O217 1.227 . S
O217 C216 1.227 . S
N218 Co204 2.140 . S
N218 C221 1.346 . S
N218 C222 1.345 . S
C219 C220 1.387 . S
C219 C223 1.391 . S
C220 C219 1.387 . S
C220 C221 1.369 . S
C220 H229 0.929 . S
C221 N218 1.346 . S
C221 C220 1.369 . S
C221 H224 0.928 . S
C222 N218 1.345 . S
C222 C223 1.371 . S
C222 H225 0.931 1_655 S
C223 C219 1.391 . S
C223 C222 1.371 . S
C223 H230 0.930 1_655 S
H224 C221 0.928 . S
H225 C222 0.931 1_455 S
H226 C202 0.930 . S
H227 C199 0.930 . S
H228 C208 0.930 . S
H229 C220 0.929 . S
H230 C223 0.930 1_455 S
C231 C232 1.351 . S
C231 N234 1.368 . S
C231 H236 0.931 . S
C232 C231 1.351 . S
C232 N233 1.373 . S
C232 H260 0.930 . S
N233 C232 1.373 . S
N233 C235 1.340 . S
N234 C231 1.368 . S
N234 C235 1.321 . S
N234 Co237 2.135 . S
C235 N233 1.340 . S
C235 N234 1.321 . S
C235 H259 0.930 . S
H236 C231 0.931 . S
Co237 N234 2.135 . S
Co237 N240 2.121 . S
Co237 O245 2.055 . S
Co237 O248 2.039 . S
Co237 N251 2.140 . S
C238 O239 1.227 . S
C238 O248 1.265 . S
O239 C238 1.227 . S
N240 Co237 2.121 . S
N240 C242 1.375 . S
N240 C243 1.313 . S
C241 C242 1.338 . S
C241 N244 1.377 . S
C241 H261 0.930 . S
C242 N240 1.375 . S
C242 C241 1.338 . S
C242 H246 0.931 . S
C243 N240 1.313 . S
C243 N244 1.344 . S
C243 H247 0.930 . S
N244 C241 1.377 . S
N244 C243 1.344 . S
O245 Co237 2.055 . S
O245 C249 1.253 . S
H246 C242 0.931 . S
H247 C243 0.930 . S
O248 Co237 2.039 . S
O248 C238 1.265 . S
C249 O245 1.253 . S
C249 O250 1.227 . S
O250 C249 1.227 . S
N251 Co237 2.140 . S
N251 C254 1.346 . S
N251 C255 1.345 . S
C252 C253 1.387 . S
C252 C256 1.391 . S
C253 C252 1.387 . S
C253 C254 1.369 . S
C253 H262 0.929 . S
C254 N251 1.346 . S
C254 C253 1.369 . S
C254 H257 0.928 . S
C255 N251 1.345 . S
C255 C256 1.371 . S
C255 H258 0.931 . S
C256 C252 1.391 . S
C256 C255 1.371 . S
C256 H263 0.930 . S
H257 C254 0.928 . S
H258 C255 0.931 . S
H259 C235 0.930 . S
H260 C232 0.930 . S
H261 C241 0.930 . S
H262 C253 0.929 . S
H263 C256 0.930 . S
C264 C265 1.169 1_455 S
C264 C266 1.381 1_544 S
C265 C264 1.169 1_655 S
C266 C264 1.381 1_566 S
C266 C267 1.170 . S
C267 C266 1.170 . S
C268 C269 1.170 . S
C268 C270 1.380 1_546 S
C269 C268 1.170 . S
C270 C268 1.380 1_564 S
C270 C271 1.170 . S
C271 C270 1.170 . S
C272 C273 1.170 . S
C272 C274 1.380 . S
C273 C272 1.170 . S
C274 C272 1.380 . S
C274 C275 1.170 1_455 S
C275 C274 1.170 1_655 S
C276 C277 1.170 . S
C276 C278 1.380 . S
C277 C276 1.170 . S
C278 C276 1.380 . S
C278 C279 1.170 . S
C279 C278 1.170 . S
C280 C281 1.170 . S
C280 C282 1.380 1_565 S
C281 C280 1.170 . S
C282 C280 1.380 1_545 S
C282 C283 1.170 . S
C283 C282 1.170 . S
C284 C285 1.170 . S
C284 C286 1.380 . S
C285 C284 1.170 . S
C286 C284 1.380 . S
C286 C287 1.170 . S
C287 C286 1.170 . S
C288 C289 1.170 . S
C288 C290 1.380 1_565 S
C289 C288 1.170 . S
C290 C288 1.380 1_545 S
C290 C291 1.170 . S
C291 C290 1.170 . S
C292 C293 1.170 . S
C292 C294 1.380 . S
C293 C292 1.170 . S
C294 C292 1.380 . S
C294 C295 1.170 . S
C295 C294 1.170 . S
C296 C297 1.170 . S
C296 C298 1.380 . S
C297 C296 1.170 . S
C298 C296 1.380 . S
C298 C299 1.170 1_554 S
C299 C298 1.170 1_556 S
C300 C301 1.170 . S
C300 C302 1.380 1_556 S
C301 C300 1.170 . S
C302 C300 1.380 1_554 S
C302 C303 1.170 . S
C303 C302 1.170 . S
C304 C305 1.170 . S
C304 C306 1.380 . S
C305 C304 1.170 . S
C306 C304 1.380 . S
C306 C307 1.170 . S
C307 C306 1.170 . S
C308 C309 1.170 . S
C308 C310 1.380 . S
C309 C308 1.170 . S
C310 C308 1.380 . S
C310 C311 1.170 . S
C311 C310 1.170 . S
C312 C313 1.176 . S
C312 C314 1.375 1_554 S
C313 C312 1.176 . S
C314 C312 1.375 1_556 S
C314 C315 1.170 . S
C315 C314 1.170 . S
C316 C317 1.170 . S
C316 C318 1.380 1_556 S
C317 C316 1.170 . S
C318 C316 1.380 1_554 S
C318 C319 1.170 . S
C319 C318 1.170 . S
C320 C321 1.170 . S
C320 C322 1.380 . S
C321 C320 1.170 . S
C322 C320 1.380 . S
C322 C323 1.170 . S
C323 C322 1.170 . S
C324 C325 1.170 . S
C324 C326 1.380 . S
C325 C324 1.170 . S
C326 C324 1.380 . S
C326 C327 1.170 . S
C327 C326 1.170 . S
C328 C329 1.170 . S
C328 C330 1.380 . S
C329 C328 1.170 . S
C330 C328 1.380 . S
C330 C331 1.170 . S
C331 C330 1.170 . S
C332 C333 1.170 . S
C332 C334 1.380 . S
C333 C332 1.170 . S
C334 C332 1.380 . S
C334 C335 1.170 . S
C335 C334 1.170 . S
C336 C337 1.170 . S
C336 C338 1.380 . S
C337 C336 1.170 . S
C338 C336 1.380 . S
C338 C339 1.170 . S
C339 C338 1.170 . S
C340 C341 1.170 . S
C340 C342 1.380 . S
C341 C340 1.170 . S
C342 C340 1.380 . S
C342 C343 1.170 . S
C343 C342 1.170 . S
C265 C18 1.271 . S
C267 C150 1.325 . S
C269 C183 1.310 . S
C271 C51 1.271 . S
C273 C216 1.320 . S
C275 C84 1.268 . S
C277 C117 1.315 . S
C279 C249 1.269 . S
C281 N35 0.815 . S
C283 N2 0.831 . S
C285 N68 0.867 . S
C287 N101 0.777 . S
C289 N134 0.862 . S
C291 N167 0.761 . S
C293 N233 0.782 . S
C295 N200 0.881 . S
C297 C7 1.803 . S
C299 N178 1.917 . S
C301 N145 1.914 . S
C303 C40 1.841 . S
C305 N244 1.911 . S
C307 C73 1.813 . S
C309 N211 1.926 . S
C311 C106 1.823 . S
C313 N46 1.926 . S
C315 C139 1.838 . S
C317 C172 1.842 . S
C319 N13 1.924 . S
C321 C205 1.815 . S
C323 N112 1.918 . S
C325 N79 1.920 . S
C327 C238 1.834 . S
C329 C87 1.504 . S
C331 C21 1.524 . S
C333 C54 1.503 . S
C335 C120 1.525 . S
C337 C219 1.509 . S
C339 C153 1.502 . S
C341 C252 1.503 . S
C343 C186 1.525 . S
