# Generated by pormake.
# Topology rkf, (6)-cn, num edge types: 1
# Building blocks:
#     Node 0, Type 0, BuildingBlock: BETDEL_clean_sbu_0, # of connection points: 6
#     Node 1, Type 0, BuildingBlock: BETDEL_clean_sbu_0, # of connection points: 6
#     Node 2, Type 0, BuildingBlock: BETDEL_clean_sbu_0, # of connection points: 6
#     Node 3, Type 0, BuildingBlock: BETDEL_clean_sbu_0, # of connection points: 6
#     Node 4, Type 0, BuildingBlock: BETDEL_clean_sbu_0, # of connection points: 6
#     Node 5, Type 0, BuildingBlock: BETDEL_clean_sbu_0, # of connection points: 6
#     Edge 6, Type (0, 0), BuildingBlock: XUDNAN_clean_linker_2, # of connection points: 2
#     Edge 7, Type (0, 0), BuildingBlock: XUDNAN_clean_linker_2, # of connection points: 2
#     Edge 8, Type (0, 0), BuildingBlock: XUDNAN_clean_linker_2, # of connection points: 2
#     Edge 9, Type (0, 0), BuildingBlock: XUDNAN_clean_linker_2, # of connection points: 2
#     Edge 10, Type (0, 0), BuildingBlock: XUDNAN_clean_linker_2, # of connection points: 2
#     Edge 11, Type (0, 0), BuildingBlock: XUDNAN_clean_linker_2, # of connection points: 2
#     Edge 12, Type (0, 0), BuildingBlock: XUDNAN_clean_linker_2, # of connection points: 2
#     Edge 13, Type (0, 0), BuildingBlock: XUDNAN_clean_linker_2, # of connection points: 2
#     Edge 14, Type (0, 0), BuildingBlock: XUDNAN_clean_linker_2, # of connection points: 2
#     Edge 15, Type (0, 0), BuildingBlock: XUDNAN_clean_linker_2, # of connection points: 2
#     Edge 16, Type (0, 0), BuildingBlock: XUDNAN_clean_linker_2, # of connection points: 2
#     Edge 17, Type (0, 0), BuildingBlock: XUDNAN_clean_linker_2, # of connection points: 2
#     Edge 18, Type (0, 0), BuildingBlock: XUDNAN_clean_linker_2, # of connection points: 2
#     Edge 19, Type (0, 0), BuildingBlock: XUDNAN_clean_linker_2, # of connection points: 2
#     Edge 20, Type (0, 0), BuildingBlock: XUDNAN_clean_linker_2, # of connection points: 2
#     Edge 21, Type (0, 0), BuildingBlock: XUDNAN_clean_linker_2, # of connection points: 2
#     Edge 22, Type (0, 0), BuildingBlock: XUDNAN_clean_linker_2, # of connection points: 2
#     Edge 23, Type (0, 0), BuildingBlock: XUDNAN_clean_linker_2, # of connection points: 2
# Relax obj value: 0.374
# Max RMSD: 0.269
# Mean RMSD: 0.269
data_MOF--net-rkf--node1-BETDEL_clean_sbu_0--edge1-XUDNAN_clean_linker_2
_symmetry_space_group_name_H-M    P1
_symmetry_Int_Tables_number       1
_symmetry_cell_setting            triclinic
loop_
_symmetry_equiv_pos_as_xyz
'x, y, z'
_cell_length_a     24.69601
_cell_length_b     24.318744
_cell_length_c     40.587111
_cell_angle_alpha  90.128239
_cell_angle_beta   90.151574
_cell_angle_gamma 121.05176
loop_
_atom_site_label
_atom_site_type_symbol
_atom_site_fract_x
_atom_site_fract_y
_atom_site_fract_z
_atom_type_partial_charge
Dy0 Dy 0.26071 0.01927 0.08475 0.0
C1 C 0.26068 0.20813 0.99571 0.0
C2 C 0.21553 0.93802 0.13746 0.0
Dy3 Dy 0.28669 0.1395 1.04017 0.0
O4 O 0.18903 0.96652 0.1238 0.0
O5 O 0.26799 0.95294 0.12191 0.0
O6 O 0.18788 0.95109 1.05044 0.0
O7 O 0.205 0.04572 0.05403 0.0
C8 C 0.17779 -0.00643 1.03754 0.0
C9 C 0.38718 0.13911 0.06512 0.0
O10 O 0.2699 0.17388 0.08834 0.0
O11 O 0.26511 0.09236 0.12091 0.0
O12 O 0.31337 0.23172 1.01245 0.0
O13 O 0.22288 0.14915 1.00443 0.0
O14 O 0.38993 0.16837 1.03766 0.0
O15 O 0.33401 0.11772 0.07789 0.0
O16 O 0.30561 0.0038 1.03913 0.0
O17 O 0.29327 0.07397 1.00442 0.0
C18 C 0.26553 0.147 0.1175 0.0
C19 C 0.30503 0.02709 1.00913 0.0
Dy20 Dy 0.22944 0.27875 0.41672 0.0
C21 C 0.08463 0.33521 0.32494 0.0
C22 C 0.25906 0.22069 0.46625 0.0
Dy23 Dy 0.16404 0.34147 0.37488 0.0
O24 O 0.20339 0.20041 0.45384 0.0
O25 O 0.30017 0.2737 0.45122 0.0
O26 O 0.16709 0.1892 0.38825 0.0
O27 O 0.13627 0.25299 0.39958 0.0
C28 C 0.12329 0.20291 0.38415 0.0
C29 C 0.27978 0.42502 0.39865 0.0
O30 O 0.13328 0.35096 0.42542 0.0
O31 O 0.20728 0.33454 0.45309 0.0
O32 O 0.14281 0.38183 0.32947 0.0
O33 O 0.06896 0.29512 0.34917 0.0
O34 O 0.23784 0.44069 0.39101 0.0
O35 O 0.25843 0.36752 0.38988 0.0
O36 O 0.27759 0.2869 0.36832 0.0
O37 O 0.21047 0.30958 0.33768 0.0
C38 C 0.16461 0.35241 0.45249 0.0
C39 C 0.25551 0.29502 0.33976 0.0
Dy40 Dy 0.01793 0.27549 0.74108 0.0
C41 C 0.8212 0.10509 0.64714 0.0
C42 C 0.09528 0.2965 0.79414 0.0
Dy43 Dy 0.89382 0.19344 0.6956 0.0
O44 O 0.06403 0.24355 0.77736 0.0
O45 O 0.08615 0.34056 0.7812 0.0
O46 O 0.07471 0.2604 0.70441 0.0
O47 O -0.02213 0.18999 0.70908 0.0
C48 C 0.02739 0.20865 0.69209 0.0
C49 C 0.90697 0.29929 0.72396 0.0
O50 O 0.85696 0.13968 0.74375 0.0
O51 O 0.94119 0.21388 0.77646 0.0
O52 O 0.80589 0.10089 0.67819 0.0
O53 O 0.87433 0.1584 0.64281 0.0
O54 O 0.8702 0.27243 0.6983 0.0
O55 O 0.92573 0.26337 0.73411 0.0
O56 O 0.04029 0.34703 0.7005 0.0
O57 O -0.03255 0.26993 0.66335 0.0
C58 C 0.88454 0.16149 0.77307 0.0
C59 C 0.01633 0.32817 0.67016 0.0
Dy60 Dy 0.7885 0.03726 0.07548 0.0
C61 C 0.69938 0.82179 0.98539 0.0
C62 C 0.83894 0.13289 0.12286 0.0
Dy63 Dy 0.71382 0.9028 1.03689 0.0
O64 O 0.86174 0.13674 0.09355 0.0
O65 O 0.78639 0.07797 0.12559 0.0
O66 O 0.87553 0.06022 1.04704 0.0
O67 O 0.80647 0.9649 0.05761 0.0
C68 C 0.85528 0.0002 1.0414 0.0
C69 C 0.6431 0.94184 0.06672 0.0
O70 O 0.71651 0.86367 0.08609 0.0
O71 O 0.75923 0.96109 0.11503 0.0
O72 O 0.66498 0.8473 0.99063 0.0
O73 O 0.73851 0.83669 1.00996 0.0
O74 O 0.62233 0.88129 0.06043 0.0
O75 O 0.69587 0.97666 0.05336 0.0
O76 O 0.76499 0.06961 1.02826 0.0
O77 O 0.74868 0.97994 0.99844 0.0
C78 C 0.73387 0.89756 0.11398 0.0
C79 C 0.75829 0.0388 0.99987 0.0
Dy80 Dy 0.77077 0.76373 0.41261 0.0
C81 C 0.94881 0.73771 0.33025 0.0
C82 C 0.72327 0.81494 0.45654 0.0
Dy83 Dy 0.85041 0.71821 0.36998 0.0
O84 O 0.76326 0.84538 0.43313 0.0
O85 O 0.7038 0.75381 0.45398 0.0
O86 O 0.86421 0.85596 0.41638 0.0
O87 O 0.84228 0.80134 0.37468 0.0
C88 C 0.88234 0.85379 0.38677 0.0
C89 C 0.73508 0.62545 0.38689 0.0
O90 O 0.89053 0.72573 0.42137 0.0
O91 O 0.81364 0.7331 0.45112 0.0
O92 O 0.8953 0.68336 0.33297 0.0
O93 O 0.94909 0.77937 0.35047 0.0
O94 O 0.7671 0.61963 0.36291 0.0
O95 O 0.77099 0.67549 0.40343 0.0
O96 O 0.71935 0.74504 0.36391 0.0
O97 O 0.79679 0.74063 0.33221 0.0
C98 C 0.86431 0.72776 0.44974 0.0
C99 C 0.74416 0.7431 0.33497 0.0
Dy100 Dy 0.01162 0.81188 0.75079 0.0
C101 C 0.21665 0.95621 0.65975 0.0
C102 C 0.91913 0.78808 0.79562 0.0
Dy103 Dy 0.14271 0.87751 0.71058 0.0
O104 O 0.96084 0.84372 0.78397 0.0
O105 O 0.92767 0.74351 0.78288 0.0
O106 O -0.01765 0.86421 0.71728 0.0
O107 O 0.07819 0.90445 0.72901 0.0
C108 C 0.03956 0.90975 0.71102 0.0
C109 C 0.10975 0.76501 0.7384 0.0
O110 O 0.17961 0.91269 0.76214 0.0
O111 O 0.08673 0.83902 0.78955 0.0
O112 O 0.22229 0.97295 0.69069 0.0
O113 O 0.17397 0.89576 0.65735 0.0
O114 O 0.1679 0.80563 0.72894 0.0
O115 O 0.07419 0.78423 0.72829 0.0
O116 O -0.02572 0.75267 0.70452 0.0
O117 O 0.06477 0.82059 0.67339 0.0
C118 C 0.14818 0.8828 0.78941 0.0
C119 C 0.00535 0.7718 0.67599 0.0
H120 H 0.85092 0.88934 1.04358 0.0
H121 H 0.91661 0.05912 0.98471 0.0
H122 H -0.01545 0.03222 0.95327 0.0
H123 H -0.03109 0.91822 0.06947 0.0
H124 H -0.03015 0.84452 0.07008 0.0
H125 H 0.89631 0.84089 0.06883 0.0
H126 H 0.86285 0.77417 1.01236 0.0
H127 H 0.93368 0.77216 1.02077 0.0
H128 H 0.92408 0.79947 0.98159 0.0
H129 H 0.07721 0.02602 0.95021 0.0
H130 H 0.17473 0.04611 0.978 0.0
H131 H 0.06478 0.89133 1.04524 0.0
C132 C 0.87747 0.91814 1.02269 0.0
C133 C 0.88064 0.9763 1.01669 0.0
C134 C 0.91516 0.01467 0.98985 0.0
C135 C 0.95297 -0.00116 0.97154 0.0
C136 C 0.95768 0.94638 0.98153 0.0
C137 C 0.91887 0.90485 1.00618 0.0
C138 C 0.94709 0.86837 1.02144 0.0
C139 C 0.94562 0.86838 0.05965 0.0
C140 C 0.91472 0.79939 1.00826 0.0
C141 C 0.01286 0.90701 1.0077 0.0
C142 C 0.01627 0.94644 0.9821 0.0
C143 C 0.07449 -0.00485 0.97006 0.0
C144 C 0.12948 0.00821 0.98669 0.0
C145 C 0.12494 0.97362 1.01524 0.0
C146 C 0.06756 0.91906 1.0238 0.0
H147 H 0.85146 0.94391 0.39249 0.0
H148 H 0.95118 0.88098 0.3308 0.0
H149 H -0.01298 0.97533 0.29566 0.0
H150 H 0.84997 0.061 0.31471 0.0
H151 H 0.85548 0.11702 0.34563 0.0
H152 H 0.8017 0.03199 0.35084 0.0
H153 H 0.84806 0.03376 0.40657 0.0
H154 H 0.90115 0.11822 0.40337 0.0
H155 H 0.93188 0.06622 0.41133 0.0
H156 H 0.05358 0.08592 0.28935 0.0
H157 H 0.13899 0.16738 0.32325 0.0
H158 H 0.00489 0.17736 0.38648 0.0
C159 C 0.88005 0.95026 0.37107 0.0
C160 C 0.90282 0.90883 0.36534 0.0
C161 C 0.9367 0.91492 0.33649 0.0
C162 C 0.9552 0.96729 0.3158 0.0
C163 C 0.93861 0.01262 0.32411 0.0
C164 C 0.89832 0.00246 0.35031 0.0
C165 C 0.90112 0.06377 0.35991 0.0
C166 C 0.84914 0.06881 0.34163 0.0
C167 C 0.8955 0.07087 0.39753 0.0
C168 C 0.96533 0.11064 0.34566 0.0
C169 C -0.01975 0.08142 0.32037 0.0
C170 C 0.04225 0.10817 0.30913 0.0
C171 C 0.0909 0.15394 0.32879 0.0
C172 C 0.07662 0.17538 0.35779 0.0
C173 C 0.01464 0.15973 0.36412 0.0
H174 H 0.14675 0.02099 0.69699 0.0
H175 H -0.03275 0.87805 0.65604 0.0
H176 H -0.02545 0.95357 0.61455 0.0
H177 H 0.13975 0.1246 0.7105 0.0
H178 H 0.20609 0.19748 0.69451 0.0
H179 H 0.21299 0.12891 0.70001 0.0
H180 H 0.24562 0.13857 0.6404 0.0
H181 H 0.23375 0.20437 0.63297 0.0
H182 H 0.19449 0.13396 0.60734 0.0
H183 H 0.95413 0.03669 0.62013 0.0
H184 H 0.93751 0.10937 0.65411 0.0
H185 H 0.13732 0.2239 0.67394 0.0
C186 C 0.11184 0.00561 0.67755 0.0
C187 C 0.05573 0.94587 0.68015 0.0
C188 C 0.00984 0.92491 0.65502 0.0
C189 C 0.01427 0.96751 0.63094 0.0
C190 C 0.06383 0.03117 0.63304 0.0
C191 C 0.11587 0.04921 0.65356 0.0
C192 C 0.15472 0.12171 0.65707 0.0
C193 C 0.17946 0.1443 0.69265 0.0
C194 C 0.21026 0.15118 0.63289 0.0
C195 C 0.10565 0.1375 0.64627 0.0
C196 C 0.05475 0.08545 0.63061 0.0
C197 C -0.00515 0.07894 0.63042 0.0
C198 C -0.01485 0.12058 0.64983 0.0
C199 C 0.03629 0.17218 0.66618 0.0
C200 C 0.09776 0.18447 0.66119 0.0
H201 H 0.18068 0.14613 0.94499 0.0
H202 H 0.31105 0.33741 0.98199 0.0
H203 H 0.28401 0.38361 0.93441 0.0
H204 H 0.21844 0.18477 0.85906 0.0
H205 H 0.13851 0.12984 0.84561 0.0
H206 H 0.16801 0.11371 0.88268 0.0
H207 H 0.07533 0.10581 0.91519 0.0
H208 H 0.04492 0.12322 0.87898 0.0
H209 H 0.06262 0.17227 0.91557 0.0
H210 H 0.23584 0.40695 0.88216 0.0
H211 H 0.17982 0.40454 0.83051 0.0
H212 H 0.08805 0.19721 0.82814 0.0
C213 C 0.20353 0.19784 0.94322 0.0
C214 C 0.24731 0.23824 0.96743 0.0
C215 C 0.27707 0.30561 0.9638 0.0
C216 C 0.26189 0.33213 0.93685 0.0
C217 C 0.21792 0.29058 0.91342 0.0
C218 C 0.19018 0.2248 0.91627 0.0
C219 C 0.1459 0.18976 0.88779 0.0
C220 C 0.16915 0.15236 0.86758 0.0
C221 C 0.07812 0.14516 0.9001 0.0
C222 C 0.1516 0.24574 0.86853 0.0
C223 C 0.19306 0.30375 0.88353 0.0
C224 C 0.20385 0.36166 0.87019 0.0
C225 C 0.17182 0.35997 0.84088 0.0
C226 C 0.13008 0.30086 0.82505 0.0
C227 C 0.12025 0.24339 0.83931 0.0
H228 H -0.02616 0.22479 0.30728 0.0
H229 H 0.11446 0.41242 0.27072 0.0
H230 H 0.0619 0.38432 0.21609 0.0
H231 H 0.96506 0.13922 0.23453 0.0
H232 H 0.88146 0.08219 0.23768 0.0
H233 H 0.92737 0.11993 0.27411 0.0
H234 H 0.85158 0.16087 0.28946 0.0
H235 H 0.8059 0.12184 0.25297 0.0
H236 H 0.83702 0.20635 0.25954 0.0
H237 H 3e-05 0.33108 0.1635 0.0
H238 H 0.93215 0.25917 0.11858 0.0
H239 H 0.82905 0.10725 0.18937 0.0
C240 C -0.00734 0.2606 0.28802 0.0
C241 C 0.04796 0.32139 0.29354 0.0
C242 C 0.07185 0.36603 0.26733 0.0
C243 C 0.04231 0.35033 0.23613 0.0
C244 C -0.01141 0.28967 0.23133 0.0
C245 C 0.96371 0.24562 0.25665 0.0
C246 C 0.90768 0.18246 0.24451 0.0
C247 C 0.92118 0.12767 0.24787 0.0
C248 C 0.84692 0.16695 0.2627 0.0
C249 C 0.90478 0.19767 0.20851 0.0
C250 C 0.95216 0.25969 0.20131 0.0
C251 C 0.96211 0.28292 0.16909 0.0
C252 C 0.92326 0.24174 0.14368 0.0
C253 C 0.87434 0.17809 0.15047 0.0
C254 C 0.86471 0.15627 0.18348 0.0
H255 H 0.85662 0.10969 0.58278 0.0
H256 H 0.71647 0.98347 0.65351 0.0
H257 H 0.67105 0.89601 0.61175 0.0
H258 H 0.75596 0.05212 0.50976 0.0
H259 H 0.81829 0.05931 0.4837 0.0
H260 H 0.83714 0.11189 0.51872 0.0
H261 H 0.91274 0.07639 0.5409 0.0
H262 H 0.89422 0.02375 0.50598 0.0
H263 H 0.88338 -0.00774 0.54717 0.0
H264 H 0.64607 0.81893 0.56201 0.0
H265 H 0.64289 0.76318 0.50994 0.0
H266 H 0.7967 0.94223 0.47183 0.0
C267 C 0.81568 0.06397 0.58938 0.0
C268 C 0.78973 0.05375 0.62145 0.0
C269 C 0.73683 -0.00724 0.62909 0.0
C270 C 0.71082 0.9427 0.60548 0.0
C271 C 0.73798 0.95422 0.57414 0.0
C272 C 0.78912 0.01371 0.5661 0.0
C273 C 0.81122 0.01369 0.53123 0.0
C274 C 0.80526 0.06212 0.50957 0.0
C275 C 0.87941 0.02731 0.53134 0.0
C276 C 0.76449 0.94506 0.52069 0.0
C277 C 0.72279 0.91108 0.54577 0.0
C278 C 0.67796 0.84559 0.54213 0.0
C279 C 0.67622 0.81421 0.5124 0.0
C280 C 0.71848 0.84833 0.48642 0.0
C281 C 0.76253 0.91484 0.49078 0.0
H282 H 0.7509 0.7471 0.96858 0.0
H283 H 0.67513 0.85772 0.92682 0.0
H284 H 0.71129 0.84804 0.87185 0.0
H285 H 0.88256 0.80275 0.92639 0.0
H286 H 0.88186 0.7303 0.91564 0.0
H287 H 0.83881 0.73094 0.95103 0.0
H288 H 0.73495 0.63748 0.93102 0.0
H289 H 0.77553 0.63059 0.8958 0.0
H290 H 0.7074 0.63838 0.88998 0.0
H291 H 0.7734 0.84565 0.82443 0.0
H292 H 0.84793 0.84074 0.78602 0.0
H293 H 0.87582 0.7213 0.85464 0.0
C294 C 0.73986 0.76706 0.94759 0.0
C295 C 0.70962 0.8028 0.95207 0.0
C296 C 0.69715 0.8293 0.92409 0.0
C297 C 0.71771 0.82417 0.89265 0.0
C298 C 0.74866 0.79012 0.8891 0.0
C299 C 0.7577 0.75991 0.91551 0.0
C300 C 0.79369 0.72756 0.90456 0.0
C301 C 0.85298 0.74946 0.92562 0.0
C302 C 0.75031 0.65414 0.90539 0.0
C303 C 0.81006 0.75098 0.86921 0.0
C304 C 0.78189 0.78553 0.86064 0.0
C305 C 0.79405 0.81704 0.83052 0.0
C306 C 0.83663 0.81409 0.80885 0.0
C307 C 0.86653 0.77947 0.81699 0.0
C308 C 0.85202 0.74631 0.84734 0.0
H309 H 0.02617 0.85636 0.30509 0.0
H310 H -0.02524 0.65818 0.29325 0.0
H311 H 0.04793 0.68928 0.24555 0.0
H312 H 0.02147 0.88248 0.22149 0.0
H313 H 0.08505 0.96471 0.22131 0.0
H314 H 0.0387 0.93131 0.25794 0.0
H315 H 0.13658 0.96132 0.29244 0.0
H316 H 0.18785 -0.00447 0.25744 0.0
H317 H 0.18876 0.93336 0.28071 0.0
H318 H 0.12737 0.74547 0.19685 0.0
H319 H 0.1903 0.81526 0.15007 0.0
H320 H 0.17838 0.97217 0.19235 0.0
C321 C 0.0312 0.81954 0.29299 0.0
C322 C -0.00423 0.75502 0.30337 0.0
C323 C 0.00222 0.70809 0.28603 0.0
C324 C 0.04376 0.72545 0.25893 0.0
C325 C 0.0776 0.78977 0.24908 0.0
C326 C 0.07069 0.83566 0.2655 0.0
C327 C 0.10613 0.89992 0.24844 0.0
C328 C 0.06017 0.92088 0.23663 0.0
C329 C 0.15783 0.95052 0.27114 0.0
C330 C 0.13448 0.88375 0.21971 0.0
C331 C 0.11884 0.82037 0.22063 0.0
C332 C 0.13981 0.79513 0.19611 0.0
C333 C 0.176 0.83514 0.16975 0.0
C334 C 0.18967 0.89917 0.16782 0.0
C335 C 0.16914 0.92354 0.19339 0.0
H336 H 0.158 0.94343 0.60054 0.0
H337 H 0.32868 0.07213 0.65495 0.0
H338 H 0.36368 0.15047 0.60903 0.0
H339 H 0.23058 0.98504 0.51731 0.0
H340 H 0.16105 0.97826 0.4987 0.0
H341 H 0.15355 0.92966 0.53384 0.0
H342 H 0.09274 0.97399 0.56595 0.0
H343 H 0.09834 0.01927 0.5298 0.0
H344 H 0.12666 0.05959 0.56869 0.0
H345 H 0.37546 0.21918 0.55798 0.0
H346 H 0.36228 0.27043 0.50816 0.0
H347 H 0.18111 0.09851 0.48899 0.0
C348 C 0.20338 -0.01241 0.6025 0.0
C349 C 0.24117 0.00126 0.63119 0.0
C350 C 0.29941 0.06028 0.6331 0.0
C351 C 0.31964 0.10499 0.60704 0.0
C352 C 0.28042 0.09079 0.57944 0.0
C353 C 0.22341 0.03328 0.57708 0.0
C354 C 0.18843 0.0305 0.54563 0.0
C355 C 0.18311 0.97774 0.52251 0.0
C356 C 0.12274 0.02026 0.55303 0.0
C357 C 0.2328 0.0968 0.53153 0.0
C358 C 0.28638 0.13042 0.55089 0.0
C359 C 0.3338 0.19291 0.54265 0.0
C360 C 0.32606 0.22174 0.51423 0.0
C361 C 0.27079 0.18872 0.49456 0.0
C362 C 0.224 0.1252 0.50343 0.0
H363 H 0.48882 0.15155 1.0312 0.0
H364 H 0.37816 0.07186 0.11994 0.0
H365 H 0.43403 0.01434 0.13154 0.0
H366 H 0.49038 0.01609 1.00645 0.0
H367 H 0.57076 0.05745 0.99191 0.0
H368 H 0.52664 0.09758 0.99201 0.0
H369 H 0.61351 0.18995 1.02755 0.0
H370 H 0.65848 0.15057 1.02709 0.0
H371 H 0.63788 0.17144 0.06578 0.0
H372 H 0.49114 0.95369 0.12919 0.0
H373 H 0.5577 0.90678 0.11688 0.0
H374 H 0.63548 0.03213 1.03237 0.0
C375 C 0.47774 0.12344 0.0535 0.0
C376 C 0.42905 0.11553 0.07453 0.0
C377 C 0.41514 0.07792 0.10337 0.0
C378 C 0.44657 0.04512 0.11021 0.0
C379 C 0.49267 0.05166 0.0883 0.0
C380 C 0.50936 0.09107 0.06096 0.0
C381 C 0.55925 0.08824 1.04087 0.0
C382 C 0.53529 0.06334 1.00575 0.0
C383 C 0.62094 0.15396 1.04031 0.0
C384 C 0.56671 0.04005 0.06075 0.0
C385 C 0.52766 0.01904 0.0879 0.0
C386 C 0.52306 0.97077 0.10843 0.0
C387 C 0.56041 0.94413 0.10123 0.0
C388 C 0.60192 0.96684 0.07415 0.0
C389 C 0.60497 0.01515 0.05373 0.0
H390 H 0.37717 0.48243 0.44386 0.0
H391 H 0.3314 0.466 0.33977 0.0
H392 H 0.44445 0.52005 0.32603 0.0
H393 H 0.52918 0.64662 0.43586 0.0
H394 H 0.56841 0.62746 0.46731 0.0
H395 H 0.48425 0.59446 0.46935 0.0
H396 H 0.46714 0.48014 0.47227 0.0
H397 H 0.55097 0.51254 0.46942 0.0
H398 H 0.49819 0.45317 0.44003 0.0
H399 H 0.55489 0.5509 0.32328 0.0
H400 H 0.66692 0.58623 0.33086 0.0
H401 H 0.6492 0.60124 0.43637 0.0
C402 C 0.39164 0.4929 0.41836 0.0
C403 C 0.3465 0.47096 0.39272 0.0
C404 C 0.36601 0.48345 0.35953 0.0
C405 C 0.42986 0.51377 0.35154 0.0
C406 C 0.47343 0.53278 0.37715 0.0
C407 C 0.45589 0.52533 0.40992 0.0
C408 C 0.51328 0.54934 0.43227 0.0
C409 C 0.52443 0.60796 0.45239 0.0
C410 C 0.50698 0.49558 0.45482 0.0
C411 C 0.56476 0.56803 0.40682 0.0
C412 C 0.54005 0.55701 0.37528 0.0
C413 C 0.57562 0.56238 0.3477 0.0
C414 C 0.63899 0.58189 0.3523 0.0
C415 C 0.66665 0.5979 0.38405 0.0
C416 C 0.62915 0.59064 0.41177 0.0
H417 H 0.89399 0.39435 0.69552 0.0
H418 H -0.01467 0.35593 0.77608 0.0
H419 H 0.04647 0.47129 0.7899 0.0
H420 H 0.02593 0.5385 0.6695 0.0
H421 H -0.01666 0.57854 0.66031 0.0
H422 H 0.94362 0.4924 0.65795 0.0
H423 H 0.85879 0.48246 0.69904 0.0
H424 H 0.89804 0.5687 0.70121 0.0
H425 H 0.8832 0.52271 0.73839 0.0
H426 H 0.10622 0.59254 0.79107 0.0
H427 H 0.15045 0.70956 0.78308 0.0
H428 H 0.0152 0.66673 0.7044 0.0
C429 C 0.92585 0.41019 0.71647 0.0
C430 C 0.93546 0.3666 0.73459 0.0
C431 C -0.02214 0.38891 0.76171 0.0
C432 C 0.01273 0.45427 0.76979 0.0
C433 C 0.00377 0.49652 0.75084 0.0
C434 C 0.9605 0.4753 0.72513 0.0
C435 C 0.96069 0.53081 0.70833 0.0
C436 C -0.02046 0.53531 0.67187 0.0
C437 C 0.89635 0.52586 0.71198 0.0
C438 C 0.01142 0.58631 0.72821 0.0
C439 C 0.03616 0.56584 0.7525 0.0
C440 C 0.08643 0.60917 0.77254 0.0
C441 C 0.11146 0.67524 0.76781 0.0
C442 C 0.08532 0.69651 0.74363 0.0
C443 C 0.0349 0.65149 0.72367 0.0
H444 H 0.2376 0.09916 0.18029 0.0
H445 H 0.30285 0.27453 0.12472 0.0
H446 H 0.31935 0.33422 0.17689 0.0
H447 H 0.15339 0.13472 0.24282 0.0
H448 H 0.17207 0.09408 0.27385 0.0
H449 H 0.16562 0.07061 0.23119 0.0
H450 H 0.28116 0.08946 0.23639 0.0
H451 H 0.28491 0.11523 0.27848 0.0
H452 H 0.34421 0.16737 0.24936 0.0
H453 H 0.32667 0.37401 0.23538 0.0
H454 H 0.31341 0.38842 0.29449 0.0
H455 H 0.24679 0.18791 0.31203 0.0
C456 C 0.25528 0.15015 0.17896 0.0
C457 C 0.26916 0.18215 0.14827 0.0
C458 C 0.29155 0.24878 0.14781 0.0
C459 C 0.30163 0.2832 0.17738 0.0
C460 C 0.28895 0.25032 0.2072 0.0
C461 C 0.26534 0.1851 0.20813 0.0
C462 C 0.25264 0.16039 0.24322 0.0
C463 C 0.18174 0.11207 0.24811 0.0
C464 C 0.2931 0.13136 0.25242 0.0
C465 C 0.27341 0.22192 0.26212 0.0
C466 C 0.29427 0.27334 0.24084 0.0
C467 C 0.31133 0.33428 0.25223 0.0
C468 C 0.30427 0.34219 0.28589 0.0
C469 C 0.281 0.28976 0.30789 0.0
C470 C 0.26708 0.2293 0.29598 0.0
H471 H 0.0523 0.3272 0.47978 0.0
H472 H 0.25444 0.42859 0.49693 0.0
H473 H 0.23879 0.45486 0.55351 0.0
H474 H 0.01563 0.42986 0.53526 0.0
H475 H 0.94379 0.36042 0.54943 0.0
H476 H -0.02864 0.36209 0.50813 0.0
H477 H -0.03054 0.25604 0.51915 0.0
H478 H 0.94161 0.25399 0.56019 0.0
H479 H 0.01256 0.25156 0.55394 0.0
H480 H 0.20081 0.45331 0.61081 0.0
H481 H 0.14304 0.41821 0.66363 0.0
H482 H -0.03422 0.32021 0.60972 0.0
C483 C 0.09322 0.35721 0.49507 0.0
C484 C 0.15457 0.37673 0.48392 0.0
C485 C 0.20702 0.41362 0.50501 0.0
C486 C 0.19864 0.42911 0.53714 0.0
C487 C 0.13741 0.40738 0.54797 0.0
C488 C 0.08551 0.37234 0.52751 0.0
C489 C 0.02449 0.34668 0.54653 0.0
C490 C -0.01341 0.37657 0.53409 0.0
C491 C -0.01523 0.27274 0.54486 0.0
C492 C 0.05022 0.37032 0.58097 0.0
C493 C 0.11542 0.40638 0.58128 0.0
C494 C 0.14966 0.42658 0.61083 0.0
C495 C 0.11651 0.40689 0.6408 0.0
C496 C 0.04996 0.36692 0.64085 0.0
C497 C 0.01669 0.35151 0.61052 0.0
H498 H 0.93512 0.18825 0.8348 0.0
H499 H 0.75671 0.07333 0.78305 0.0
H500 H 0.70171 0.03968 0.83699 0.0
H501 H 0.9052 0.08207 0.90107 0.0
H502 H 0.94664 0.14644 0.93044 0.0
H503 H -0.03176 0.15947 0.88761 0.0
H504 H 0.95233 0.25646 0.88769 0.0
H505 H 0.92793 0.24212 0.93016 0.0
H506 H 0.87674 0.2449 0.89932 0.0
H507 H 0.66792 0.01759 0.89767 0.0
H508 H 0.6601 -0.00039 0.95792 0.0
H509 H 0.86091 0.13351 0.96836 0.0
C510 C 0.88435 0.15593 0.83447 0.0
C511 C 0.85022 0.1336 0.80445 0.0
C512 C 0.78399 0.09084 0.8056 0.0
C513 C 0.75237 0.07213 0.83615 0.0
C514 C 0.78765 0.09708 0.86517 0.0
C515 C 0.85233 0.13766 0.86439 0.0
C516 C 0.88042 0.15667 0.89867 0.0
C517 C 0.92787 0.13475 0.90485 0.0
C518 C 0.91116 0.22935 0.90427 0.0
C519 C 0.82168 0.11942 0.9193 0.0
C520 C 0.76838 0.08587 0.89959 0.0
C521 C 0.70919 0.04458 0.91319 0.0
C522 C 0.70502 0.03527 0.94746 0.0
C523 C 0.75952 0.06724 0.96777 0.0
C524 C 0.81816 0.11108 0.95357 0.0
H525 H 0.78689 0.94832 0.17471 0.0
H526 H 0.65658 0.76871 0.12548 0.0
H527 H 0.63623 0.71167 0.17843 0.0
H528 H 0.85548 0.8837 0.22772 0.0
H529 H 0.86427 0.93463 0.26214 0.0
H530 H 0.86518 0.96154 0.22082 0.0
H531 H 0.77344 0.98001 0.23567 0.0
H532 H 0.77339 0.95314 0.27703 0.0
H533 H 0.7017 0.91497 0.25283 0.0
H534 H 0.63205 0.67317 0.23643 0.0
H535 H 0.65298 0.65493 0.29374 0.0
H536 H 0.78765 0.8582 0.30534 0.0
C537 C 0.75371 0.89704 0.17506 0.0
C538 C 0.72313 0.86309 0.14579 0.0
C539 C 0.68076 0.79586 0.14741 0.0
C540 C 0.6685 0.76305 0.17747 0.0
C541 C 0.69911 0.79795 0.20582 0.0
C542 C 0.7414 0.86339 0.20484 0.0
C543 C 0.77114 0.88886 0.23847 0.0
C544 C 0.84328 0.9189 0.23718 0.0
C545 C 0.75387 0.9371 0.25178 0.0
C546 C 0.73962 0.82731 0.25838 0.0
C547 C 0.69743 0.77562 0.2392 0.0
C548 C 0.66439 0.71338 0.25177 0.0
C549 C 0.67612 0.70341 0.28446 0.0
C550 C 0.72039 0.75529 0.30416 0.0
C551 C 0.75192 0.81806 0.29104 0.0
H552 H 0.83246 0.74995 0.51039 0.0
H553 H 0.95341 0.69337 0.46243 0.0
H554 H -0.00821 0.68301 0.51735 0.0
H555 H 0.94096 0.84626 0.57183 0.0
H556 H 0.88126 0.8249 0.60281 0.0
H557 H 0.86151 0.82312 0.56 0.0
H558 H 0.77157 0.70424 0.56629 0.0
H559 H 0.79211 0.70548 0.60904 0.0
H560 H 0.78986 0.64604 0.58152 0.0
H561 H 0.02167 0.68654 0.57755 0.0
H562 H 0.04738 0.71248 0.6366 0.0
H563 H 0.90349 0.76283 0.64446 0.0
C564 C 0.86646 0.73451 0.51115 0.0
C565 C 0.88948 0.72181 0.48194 0.0
C566 C 0.93495 0.70314 0.4844 0.0
C567 C 0.9566 0.69673 0.51549 0.0
C568 C 0.93213 0.70901 0.54374 0.0
C569 C 0.88836 0.72797 0.54171 0.0
C570 C 0.87239 0.74279 0.57533 0.0
C571 C 0.89012 0.81344 0.57761 0.0
C572 C 0.80232 0.69688 0.58351 0.0
C573 C 0.91471 0.73008 0.59689 0.0
C574 C 0.94845 0.71009 0.57825 0.0
C575 C -0.00534 0.70093 0.59236 0.0
C576 C 0.00859 0.71526 0.62592 0.0
C577 C -0.02383 0.73798 0.64501 0.0
C578 C 0.92725 0.74335 0.6306 0.0
H579 H 0.23942 -0.00292 0.81868 0.0
H580 H 0.13117 0.79113 0.83291 0.0
H581 H 0.17653 0.8047 0.88867 0.0
H582 H 0.38142 0.03133 0.86827 0.0
H583 H 0.39012 0.10386 0.88551 0.0
H584 H 0.35701 0.07781 0.84482 0.0
H585 H 0.2568 0.07938 0.86234 0.0
H586 H 0.29016 0.10629 0.90275 0.0
H587 H 0.21352 0.03471 0.89813 0.0
H588 H 0.223 0.84112 0.94581 0.0
H589 H 0.25977 0.89816 0.99933 0.0
H590 H 0.34027 0.07991 0.94826 0.0
C591 C 0.22693 0.9549 0.83321 0.0
C592 C 0.18234 0.89298 0.82125 0.0
C593 C 0.16544 0.83904 0.8415 0.0
C594 C 0.19125 0.84621 0.8732 0.0
C595 C 0.23408 0.90782 0.88468 0.0
C596 C 0.25173 0.96133 0.86531 0.0
C597 C 0.29284 0.02241 0.88489 0.0
C598 C 0.3593 0.06113 0.86998 0.0
C599 C 0.26146 0.06304 0.88716 0.0
C600 C 0.29452 -0.00507 0.91824 0.0
C601 C 0.26098 0.92872 0.91762 0.0
C602 C 0.25061 0.89303 0.94643 0.0
C603 C 0.27241 0.92578 0.9768 0.0
C604 C 0.30386 -0.00646 0.97814 0.0
C605 C 0.31752 0.02808 0.94812 0.0
loop_
_geom_bond_atom_site_label_1
_geom_bond_atom_site_label_2
_geom_bond_distance
_geom_bond_site_symmetry_2
_ccdc_geom_bond_type
Dy0 O4 2.398 1_545 S
Dy0 O5 2.491 1_545 S
Dy0 O6 2.403 . S
Dy0 O7 2.664 1_554 S
Dy0 O11 2.326 . S
Dy0 O15 2.310 . S
Dy0 O16 2.351 1_544 S
C1 O12 1.185 . S
C1 O13 1.355 . S
C2 O4 1.185 . S
C2 O5 1.355 . S
Dy3 O7 2.310 . S
Dy3 O10 2.351 1_556 S
Dy3 O12 2.398 . S
Dy3 O13 2.491 . S
Dy3 O14 2.403 . S
Dy3 O15 2.664 1_556 S
Dy3 O17 2.326 . S
O4 Dy0 2.398 1_565 S
O4 C2 1.185 . S
O5 Dy0 2.491 1_565 S
O5 C2 1.355 . S
O6 Dy0 2.403 . S
O6 C8 1.254 . S
O7 Dy0 2.664 1_556 S
O7 Dy3 2.310 . S
O7 C8 1.268 1_556 S
C8 O6 1.254 . S
C8 O7 1.268 1_554 S
C9 O14 1.236 1_554 S
C9 O15 1.278 . S
O10 Dy3 2.351 1_554 S
O10 C18 1.249 . S
O11 Dy0 2.326 . S
O11 C18 1.267 . S
O12 C1 1.185 . S
O12 Dy3 2.398 . S
O13 C1 1.355 . S
O13 Dy3 2.491 . S
O14 Dy3 2.403 . S
O14 C9 1.236 1_556 S
O15 Dy0 2.310 . S
O15 Dy3 2.664 1_554 S
O15 C9 1.278 . S
O16 Dy0 2.351 1_566 S
O16 C19 1.249 1_565 S
O17 Dy3 2.326 . S
O17 C19 1.267 . S
C18 O10 1.249 . S
C18 O11 1.267 . S
C19 O16 1.249 1_545 S
C19 O17 1.267 . S
Dy20 O24 2.398 . S
Dy20 O25 2.491 . S
Dy20 O26 2.403 . S
Dy20 O27 2.664 . S
Dy20 O31 2.326 . S
Dy20 O35 2.310 . S
Dy20 O36 2.351 . S
C21 O32 1.185 . S
C21 O33 1.355 . S
C22 O24 1.185 . S
C22 O25 1.355 . S
Dy23 O27 2.310 . S
Dy23 O30 2.351 . S
Dy23 O32 2.398 . S
Dy23 O33 2.491 . S
Dy23 O34 2.403 . S
Dy23 O35 2.664 . S
Dy23 O37 2.326 . S
O24 Dy20 2.398 . S
O24 C22 1.185 . S
O25 Dy20 2.491 . S
O25 C22 1.355 . S
O26 Dy20 2.403 . S
O26 C28 1.254 . S
O27 Dy20 2.664 . S
O27 Dy23 2.310 . S
O27 C28 1.268 . S
C28 O26 1.254 . S
C28 O27 1.268 . S
C29 O34 1.254 . S
C29 O35 1.268 . S
O30 Dy23 2.351 . S
O30 C38 1.249 . S
O31 Dy20 2.326 . S
O31 C38 1.267 . S
O32 C21 1.185 . S
O32 Dy23 2.398 . S
O33 C21 1.355 . S
O33 Dy23 2.491 . S
O34 Dy23 2.403 . S
O34 C29 1.254 . S
O35 Dy20 2.310 . S
O35 Dy23 2.664 . S
O35 C29 1.268 . S
O36 Dy20 2.351 . S
O36 C39 1.249 . S
O37 Dy23 2.326 . S
O37 C39 1.267 . S
C38 O30 1.249 . S
C38 O31 1.267 . S
C39 O36 1.249 . S
C39 O37 1.267 . S
Dy40 O44 2.398 . S
Dy40 O45 2.491 . S
Dy40 O46 2.403 . S
Dy40 O47 2.664 1_455 S
Dy40 O51 2.326 1_455 S
Dy40 O55 2.310 . S
Dy40 O56 2.351 . S
C41 O52 1.185 . S
C41 O53 1.355 . S
C42 O44 1.185 . S
C42 O45 1.355 . S
Dy43 O47 2.310 . S
Dy43 O50 2.351 . S
Dy43 O52 2.398 . S
Dy43 O53 2.491 . S
Dy43 O54 2.403 . S
Dy43 O55 2.664 1_655 S
Dy43 O57 2.326 1_655 S
O44 Dy40 2.398 . S
O44 C42 1.185 . S
O45 Dy40 2.491 . S
O45 C42 1.355 . S
O46 Dy40 2.403 . S
O46 C48 1.254 . S
O47 Dy40 2.664 1_655 S
O47 Dy43 2.310 . S
O47 C48 1.268 1_655 S
C48 O46 1.254 . S
C48 O47 1.268 1_455 S
C49 O54 1.254 . S
C49 O55 1.268 1_655 S
O50 Dy43 2.351 . S
O50 C58 1.249 . S
O51 Dy40 2.326 1_655 S
O51 C58 1.267 . S
O52 C41 1.185 . S
O52 Dy43 2.398 . S
O53 C41 1.355 . S
O53 Dy43 2.491 . S
O54 Dy43 2.403 . S
O54 C49 1.254 . S
O55 Dy40 2.310 . S
O55 Dy43 2.664 1_455 S
O55 C49 1.268 1_455 S
O56 Dy40 2.351 . S
O56 C59 1.249 . S
O57 Dy43 2.326 1_455 S
O57 C59 1.267 . S
C58 O50 1.249 . S
C58 O51 1.267 . S
C59 O56 1.249 . S
C59 O57 1.267 . S
Dy60 O64 2.398 . S
Dy60 O65 2.491 . S
Dy60 O66 2.403 . S
Dy60 O67 2.664 1_544 S
Dy60 O71 2.326 1_545 S
Dy60 O75 2.310 . S
Dy60 O76 2.351 1_554 S
C61 O72 1.185 . S
C61 O73 1.355 . S
C62 O64 1.185 . S
C62 O65 1.355 . S
Dy63 O67 2.310 . S
Dy63 O70 2.351 1_556 S
Dy63 O72 2.398 . S
Dy63 O73 2.491 . S
Dy63 O74 2.403 . S
Dy63 O75 2.664 1_566 S
Dy63 O77 2.326 1_565 S
O64 Dy60 2.398 . S
O64 C62 1.185 . S
O65 Dy60 2.491 . S
O65 C62 1.355 . S
O66 Dy60 2.403 . S
O66 C68 1.254 . S
O67 Dy60 2.664 1_566 S
O67 Dy63 2.310 . S
O67 C68 1.268 1_566 S
C68 O66 1.254 . S
C68 O67 1.268 1_544 S
C69 O74 1.236 1_554 S
C69 O75 1.278 1_565 S
O70 Dy63 2.351 1_554 S
O70 C78 1.249 . S
O71 Dy60 2.326 1_565 S
O71 C78 1.267 . S
O72 C61 1.185 . S
O72 Dy63 2.398 . S
O73 C61 1.355 . S
O73 Dy63 2.491 . S
O74 Dy63 2.403 . S
O74 C69 1.236 1_556 S
O75 Dy60 2.310 . S
O75 Dy63 2.664 1_544 S
O75 C69 1.278 1_545 S
O76 Dy60 2.351 1_556 S
O76 C79 1.249 . S
O77 Dy63 2.326 1_545 S
O77 C79 1.267 . S
C78 O70 1.249 . S
C78 O71 1.267 . S
C79 O76 1.249 . S
C79 O77 1.267 . S
Dy80 O84 2.398 . S
Dy80 O85 2.491 . S
Dy80 O86 2.403 . S
Dy80 O87 2.664 . S
Dy80 O91 2.326 . S
Dy80 O95 2.310 . S
Dy80 O96 2.351 . S
C81 O92 1.185 . S
C81 O93 1.355 . S
C82 O84 1.185 . S
C82 O85 1.355 . S
Dy83 O87 2.310 . S
Dy83 O90 2.351 . S
Dy83 O92 2.398 . S
Dy83 O93 2.491 . S
Dy83 O94 2.403 . S
Dy83 O95 2.664 . S
Dy83 O97 2.326 . S
O84 Dy80 2.398 . S
O84 C82 1.185 . S
O85 Dy80 2.491 . S
O85 C82 1.355 . S
O86 Dy80 2.403 . S
O86 C88 1.254 . S
O87 Dy80 2.664 . S
O87 Dy83 2.310 . S
O87 C88 1.268 . S
C88 O86 1.254 . S
C88 O87 1.268 . S
C89 O94 1.254 . S
C89 O95 1.268 . S
O90 Dy83 2.351 . S
O90 C98 1.249 . S
O91 Dy80 2.326 . S
O91 C98 1.267 . S
O92 C81 1.185 . S
O92 Dy83 2.398 . S
O93 C81 1.355 . S
O93 Dy83 2.491 . S
O94 Dy83 2.403 . S
O94 C89 1.254 . S
O95 Dy80 2.310 . S
O95 Dy83 2.664 . S
O95 C89 1.268 . S
O96 Dy80 2.351 . S
O96 C99 1.249 . S
O97 Dy83 2.326 . S
O97 C99 1.267 . S
C98 O90 1.249 . S
C98 O91 1.267 . S
C99 O96 1.249 . S
C99 O97 1.267 . S
Dy100 O104 2.398 1_455 S
Dy100 O105 2.491 1_455 S
Dy100 O106 2.403 . S
Dy100 O107 2.664 . S
Dy100 O111 2.326 . S
Dy100 O115 2.310 . S
Dy100 O116 2.351 1_455 S
C101 O112 1.185 . S
C101 O113 1.355 . S
C102 O104 1.185 . S
C102 O105 1.355 . S
Dy103 O107 2.310 . S
Dy103 O110 2.351 . S
Dy103 O112 2.398 . S
Dy103 O113 2.491 . S
Dy103 O114 2.403 . S
Dy103 O115 2.664 . S
Dy103 O117 2.326 . S
O104 Dy100 2.398 1_655 S
O104 C102 1.185 . S
O105 Dy100 2.491 1_655 S
O105 C102 1.355 . S
O106 Dy100 2.403 . S
O106 C108 1.254 . S
O107 Dy100 2.664 . S
O107 Dy103 2.310 . S
O107 C108 1.268 . S
C108 O106 1.254 . S
C108 O107 1.268 . S
C109 O114 1.254 . S
C109 O115 1.268 . S
O110 Dy103 2.351 . S
O110 C118 1.249 . S
O111 Dy100 2.326 . S
O111 C118 1.267 . S
O112 C101 1.185 . S
O112 Dy103 2.398 . S
O113 C101 1.355 . S
O113 Dy103 2.491 . S
O114 Dy103 2.403 . S
O114 C109 1.254 . S
O115 Dy100 2.310 . S
O115 Dy103 2.664 . S
O115 C109 1.268 . S
O116 Dy100 2.351 1_655 S
O116 C119 1.249 1_655 S
O117 Dy103 2.326 . S
O117 C119 1.267 . S
C118 O110 1.249 . S
C118 O111 1.267 . S
C119 O116 1.249 1_455 S
C119 O117 1.267 . S
H120 C132 0.930 . S
H121 C134 0.930 . S
H122 C135 0.930 . S
H123 C139 0.959 1_545 S
H124 C139 0.959 . S
H125 C139 0.961 1_655 S
H126 C140 0.960 1_655 S
H127 C140 0.961 . S
H128 C140 0.959 1_556 S
H129 C143 0.929 . S
H130 C144 0.931 . S
H131 C146 0.930 . S
C132 H120 0.930 . S
C132 C133 1.399 1_554 S
C132 C137 1.399 . S
C133 C132 1.399 1_556 S
C133 C134 1.376 1_565 S
C134 H121 0.930 . S
C134 C133 1.376 1_545 S
C134 C135 1.388 . S
C135 H122 0.930 . S
C135 C134 1.388 . S
C135 C136 1.390 1_655 S
C136 C135 1.390 1_455 S
C136 C137 1.394 1_446 S
C136 C142 1.465 . S
C137 C132 1.399 . S
C137 C136 1.394 1_664 S
C137 C138 1.516 1_655 S
C138 C137 1.516 1_455 S
C138 C139 1.502 . S
C138 C140 1.561 . S
C138 C141 1.526 1_565 S
C139 H123 0.959 1_565 S
C139 H124 0.959 . S
C139 H125 0.961 1_455 S
C139 C138 1.502 . S
C140 H126 0.960 1_455 S
C140 H127 0.961 . S
C140 H128 0.959 1_554 S
C140 C138 1.561 . S
C141 C138 1.526 1_545 S
C141 C142 1.396 1_554 S
C141 C146 1.390 . S
C142 C136 1.465 . S
C142 C141 1.396 1_556 S
C142 C143 1.399 . S
C143 H129 0.929 . S
C143 C142 1.399 . S
C143 C144 1.385 . S
C144 H130 0.931 . S
C144 C143 1.385 . S
C144 C145 1.389 . S
C145 C144 1.389 . S
C145 C146 1.387 1_556 S
C146 H131 0.930 . S
C146 C141 1.390 . S
C146 C145 1.387 1_554 S
H147 C159 0.930 . S
H148 C161 0.930 . S
H149 C162 0.930 . S
H150 C166 0.959 . S
H151 C166 0.959 . S
H152 C166 0.961 . S
H153 C167 0.960 . S
H154 C167 0.961 . S
H155 C167 0.959 . S
H156 C170 0.929 . S
H157 C171 0.931 . S
H158 C173 0.930 . S
C159 H147 0.930 . S
C159 C160 1.399 . S
C159 C164 1.399 1_655 S
C160 C159 1.399 . S
C160 C161 1.376 . S
C161 H148 0.930 . S
C161 C160 1.376 . S
C161 C162 1.388 1_655 S
C162 H149 0.930 . S
C162 C161 1.388 1_455 S
C162 C163 1.390 1_565 S
C163 C162 1.390 1_545 S
C163 C164 1.394 1_545 S
C163 C169 1.465 . S
C164 C159 1.399 1_455 S
C164 C163 1.394 1_565 S
C164 C165 1.516 1_565 S
C165 C164 1.516 1_545 S
C165 C166 1.502 1_455 S
C165 C167 1.561 . S
C165 C168 1.526 . S
C166 H150 0.959 . S
C166 H151 0.959 . S
C166 H152 0.961 . S
C166 C165 1.502 1_655 S
C167 H153 0.960 . S
C167 H154 0.961 . S
C167 H155 0.959 . S
C167 C165 1.561 . S
C168 C165 1.526 . S
C168 C169 1.396 . S
C168 C173 1.390 . S
C169 C163 1.465 . S
C169 C168 1.396 . S
C169 C170 1.399 . S
C170 H156 0.929 . S
C170 C169 1.399 . S
C170 C171 1.385 . S
C171 H157 0.931 . S
C171 C170 1.385 . S
C171 C172 1.389 . S
C172 C171 1.389 . S
C172 C173 1.387 . S
C173 H158 0.930 . S
C173 C168 1.390 . S
C173 C172 1.387 . S
H174 C186 0.930 1_545 S
H175 C188 0.930 . S
H176 C189 0.930 1_655 S
H177 C193 0.959 . S
H178 C193 0.959 . S
H179 C193 0.961 . S
H180 C194 0.960 . S
H181 C194 0.961 . S
H182 C194 0.959 . S
H183 C197 0.929 1_565 S
H184 C198 0.931 . S
H185 C200 0.930 . S
C186 H174 0.930 1_565 S
C186 C187 1.399 . S
C186 C191 1.399 1_565 S
C187 C186 1.399 . S
C187 C188 1.376 . S
C188 H175 0.930 . S
C188 C187 1.376 . S
C188 C189 1.388 . S
C189 H176 0.930 1_455 S
C189 C188 1.388 . S
C189 C190 1.390 . S
C190 C189 1.390 . S
C190 C191 1.394 1_565 S
C190 C196 1.465 1_565 S
C191 C186 1.399 1_545 S
C191 C190 1.394 1_545 S
C191 C192 1.516 . S
C192 C191 1.516 . S
C192 C193 1.502 . S
C192 C194 1.561 . S
C192 C195 1.526 . S
C193 H177 0.959 . S
C193 H178 0.959 . S
C193 H179 0.961 . S
C193 C192 1.502 . S
C194 H180 0.960 . S
C194 H181 0.961 . S
C194 H182 0.959 . S
C194 C192 1.561 . S
C195 C192 1.526 . S
C195 C196 1.396 . S
C195 C200 1.390 . S
C196 C190 1.465 1_545 S
C196 C195 1.396 . S
C196 C197 1.399 1_455 S
C197 H183 0.929 1_545 S
C197 C196 1.399 1_655 S
C197 C198 1.385 . S
C198 H184 0.931 . S
C198 C197 1.385 . S
C198 C199 1.389 . S
C199 C198 1.389 . S
C199 C200 1.387 1_655 S
C200 H185 0.930 . S
C200 C195 1.390 . S
C200 C199 1.387 1_455 S
H201 C213 0.930 . S
H202 C215 0.930 . S
H203 C216 0.930 . S
H204 C220 0.959 . S
H205 C220 0.959 . S
H206 C220 0.961 . S
H207 C221 0.960 . S
H208 C221 0.961 . S
H209 C221 0.959 . S
H210 C224 0.929 . S
H211 C225 0.931 . S
H212 C227 0.930 . S
C213 H201 0.930 . S
C213 C214 1.399 . S
C213 C218 1.399 . S
C214 C213 1.399 . S
C214 C215 1.376 . S
C215 H202 0.930 . S
C215 C214 1.376 . S
C215 C216 1.388 . S
C216 H203 0.930 . S
C216 C215 1.388 . S
C216 C217 1.390 . S
C217 C216 1.390 . S
C217 C218 1.394 . S
C217 C223 1.465 . S
C218 C213 1.399 . S
C218 C217 1.394 . S
C218 C219 1.516 . S
C219 C218 1.516 . S
C219 C220 1.502 . S
C219 C221 1.561 . S
C219 C222 1.526 . S
C220 H204 0.959 . S
C220 H205 0.959 . S
C220 H206 0.961 . S
C220 C219 1.502 . S
C221 H207 0.960 . S
C221 H208 0.961 . S
C221 H209 0.959 . S
C221 C219 1.561 . S
C222 C219 1.526 . S
C222 C223 1.396 . S
C222 C227 1.390 . S
C223 C217 1.465 . S
C223 C222 1.396 . S
C223 C224 1.399 . S
C224 H210 0.929 . S
C224 C223 1.399 . S
C224 C225 1.385 . S
C225 H211 0.931 . S
C225 C224 1.385 . S
C225 C226 1.389 . S
C226 C225 1.389 . S
C226 C227 1.387 . S
C227 H212 0.930 . S
C227 C222 1.390 . S
C227 C226 1.387 . S
H228 C240 0.930 . S
H229 C242 0.930 . S
H230 C243 0.930 . S
H231 C247 0.959 . S
H232 C247 0.959 . S
H233 C247 0.961 . S
H234 C248 0.960 . S
H235 C248 0.961 . S
H236 C248 0.959 . S
H237 C251 0.929 . S
H238 C252 0.931 . S
H239 C254 0.930 . S
C240 H228 0.930 . S
C240 C241 1.399 . S
C240 C245 1.399 . S
C241 C240 1.399 . S
C241 C242 1.376 . S
C242 H229 0.930 . S
C242 C241 1.376 . S
C242 C243 1.388 . S
C243 H230 0.930 . S
C243 C242 1.388 . S
C243 C244 1.390 . S
C244 C243 1.390 . S
C244 C245 1.394 . S
C244 C250 1.465 . S
C245 C240 1.399 . S
C245 C244 1.394 . S
C245 C246 1.516 1_455 S
C246 C245 1.516 1_655 S
C246 C247 1.502 . S
C246 C248 1.561 . S
C246 C249 1.526 . S
C247 H231 0.959 . S
C247 H232 0.959 . S
C247 H233 0.961 . S
C247 C246 1.502 . S
C248 H234 0.960 . S
C248 H235 0.961 . S
C248 H236 0.959 . S
C248 C246 1.561 . S
C249 C246 1.526 . S
C249 C250 1.396 1_655 S
C249 C254 1.390 . S
C250 C244 1.465 . S
C250 C249 1.396 1_455 S
C250 C251 1.399 . S
C251 H237 0.929 . S
C251 C250 1.399 . S
C251 C252 1.385 1_455 S
C252 H238 0.931 . S
C252 C251 1.385 1_655 S
C252 C253 1.389 . S
C253 C252 1.389 . S
C253 C254 1.387 . S
C254 H239 0.930 . S
C254 C249 1.390 . S
C254 C253 1.387 . S
H255 C267 0.930 . S
H256 C269 0.930 . S
H257 C270 0.930 1_565 S
H258 C274 0.959 . S
H259 C274 0.959 . S
H260 C274 0.961 . S
H261 C275 0.960 . S
H262 C275 0.961 . S
H263 C275 0.959 . S
H264 C278 0.929 . S
H265 C279 0.931 . S
H266 C281 0.930 . S
C267 H255 0.930 . S
C267 C268 1.399 . S
C267 C272 1.399 . S
C268 C267 1.399 . S
C268 C269 1.376 . S
C269 H256 0.930 . S
C269 C268 1.376 . S
C269 C270 1.388 . S
C270 H257 0.930 1_545 S
C270 C269 1.388 . S
C270 C271 1.390 . S
C271 C270 1.390 . S
C271 C272 1.394 . S
C271 C277 1.465 1_545 S
C272 C267 1.399 . S
C272 C271 1.394 . S
C272 C273 1.516 . S
C273 C272 1.516 . S
C273 C274 1.502 . S
C273 C275 1.561 . S
C273 C276 1.526 1_545 S
C274 H258 0.959 . S
C274 H259 0.959 . S
C274 H260 0.961 . S
C274 C273 1.502 . S
C275 H261 0.960 . S
C275 H262 0.961 . S
C275 H263 0.959 . S
C275 C273 1.561 . S
C276 C273 1.526 1_565 S
C276 C277 1.396 . S
C276 C281 1.390 . S
C277 C271 1.465 1_565 S
C277 C276 1.396 . S
C277 C278 1.399 . S
C278 H264 0.929 . S
C278 C277 1.399 . S
C278 C279 1.385 . S
C279 H265 0.931 . S
C279 C278 1.385 . S
C279 C280 1.389 . S
C280 C279 1.389 . S
C280 C281 1.387 . S
C281 H266 0.930 . S
C281 C276 1.390 . S
C281 C280 1.387 . S
H282 C294 0.930 . S
H283 C296 0.930 . S
H284 C297 0.930 . S
H285 C301 0.959 . S
H286 C301 0.959 . S
H287 C301 0.961 . S
H288 C302 0.960 . S
H289 C302 0.961 . S
H290 C302 0.959 . S
H291 C305 0.929 . S
H292 C306 0.931 1_455 S
H293 C308 0.930 . S
C294 H282 0.930 . S
C294 C295 1.399 . S
C294 C299 1.399 . S
C295 C294 1.399 . S
C295 C296 1.376 . S
C296 H283 0.930 . S
C296 C295 1.376 . S
C296 C297 1.388 . S
C297 H284 0.930 . S
C297 C296 1.388 . S
C297 C298 1.390 . S
C298 C297 1.390 . S
C298 C299 1.394 . S
C298 C304 1.465 . S
C299 C294 1.399 . S
C299 C298 1.394 . S
C299 C300 1.516 . S
C300 C299 1.516 . S
C300 C301 1.502 . S
C300 C302 1.561 . S
C300 C303 1.526 . S
C301 H285 0.959 . S
C301 H286 0.959 . S
C301 H287 0.961 . S
C301 C300 1.502 . S
C302 H288 0.960 . S
C302 H289 0.961 . S
C302 H290 0.959 . S
C302 C300 1.561 . S
C303 C300 1.526 . S
C303 C304 1.396 . S
C303 C308 1.390 . S
C304 C298 1.465 . S
C304 C303 1.396 . S
C304 C305 1.399 . S
C305 H291 0.929 . S
C305 C304 1.399 . S
C305 C306 1.385 . S
C306 H292 0.931 1_655 S
C306 C305 1.385 . S
C306 C307 1.389 . S
C307 C306 1.389 . S
C307 C308 1.387 . S
C308 H293 0.930 . S
C308 C303 1.390 . S
C308 C307 1.387 . S
H309 C321 0.930 . S
H310 C323 0.930 . S
H311 C324 0.930 . S
H312 C328 0.959 . S
H313 C328 0.959 1_545 S
H314 C328 0.961 . S
H315 C329 0.960 . S
H316 C329 0.961 1_545 S
H317 C329 0.959 . S
H318 C332 0.929 . S
H319 C333 0.931 . S
H320 C335 0.930 1_545 S
C321 H309 0.930 . S
C321 C322 1.399 . S
C321 C326 1.399 1_655 S
C322 C321 1.399 . S
C322 C323 1.376 . S
C323 H310 0.930 . S
C323 C322 1.376 . S
C323 C324 1.388 1_655 S
C324 H311 0.930 . S
C324 C323 1.388 1_455 S
C324 C325 1.390 . S
C325 C324 1.390 . S
C325 C326 1.394 . S
C325 C331 1.465 . S
C326 C321 1.399 1_455 S
C326 C325 1.394 . S
C326 C327 1.516 . S
C327 C326 1.516 . S
C327 C328 1.502 . S
C327 C329 1.561 . S
C327 C330 1.526 . S
C328 H312 0.959 . S
C328 H313 0.959 1_565 S
C328 H314 0.961 . S
C328 C327 1.502 . S
C329 H315 0.960 . S
C329 H316 0.961 1_565 S
C329 H317 0.959 . S
C329 C327 1.561 . S
C330 C327 1.526 . S
C330 C331 1.396 . S
C330 C335 1.390 . S
C331 C325 1.465 . S
C331 C330 1.396 . S
C331 C332 1.399 . S
C332 H318 0.929 . S
C332 C331 1.399 . S
C332 C333 1.385 . S
C333 H319 0.931 . S
C333 C332 1.385 . S
C333 C334 1.389 . S
C334 C333 1.389 . S
C334 C335 1.387 . S
C335 H320 0.930 1_565 S
C335 C330 1.390 . S
C335 C334 1.387 . S
H336 C348 0.930 . S
H337 C350 0.920 1_565 S
H338 C351 0.930 . S
H339 C355 0.959 1_565 S
H340 C355 0.959 . S
H341 C355 0.961 1_565 S
H342 C356 0.960 . S
H343 C356 0.961 . S
H344 C356 0.959 . S
H345 C359 0.929 . S
H346 C360 0.931 . S
H347 C362 0.930 . S
C348 H336 0.930 . S
C348 C349 1.399 . S
C348 C353 1.399 1_565 S
C349 C348 1.399 . S
C349 C350 1.376 1_565 S
C350 H337 0.920 1_545 S
C350 C349 1.376 1_545 S
C350 C351 1.388 . S
C351 H338 0.930 . S
C351 C350 1.388 . S
C351 C352 1.390 . S
C352 C351 1.390 . S
C352 C353 1.394 . S
C352 C358 1.465 . S
C353 C348 1.399 1_545 S
C353 C352 1.394 . S
C353 C354 1.516 . S
C354 C353 1.516 . S
C354 C355 1.502 . S
C354 C356 1.561 . S
C354 C357 1.526 . S
C355 H339 0.959 1_545 S
C355 H340 0.959 . S
C355 H341 0.961 1_545 S
C355 C354 1.502 . S
C356 H342 0.960 . S
C356 H343 0.961 . S
C356 H344 0.959 . S
C356 C354 1.561 . S
C357 C354 1.526 . S
C357 C358 1.396 . S
C357 C362 1.390 . S
C358 C352 1.465 . S
C358 C357 1.396 . S
C358 C359 1.399 . S
C359 H345 0.929 . S
C359 C358 1.399 . S
C359 C360 1.385 . S
C360 H346 0.931 . S
C360 C359 1.385 . S
C360 C361 1.389 . S
C361 C360 1.389 . S
C361 C362 1.387 . S
C362 H347 0.930 . S
C362 C357 1.390 . S
C362 C361 1.387 . S
H363 C375 0.930 . S
H364 C377 0.930 . S
H365 C378 0.930 . S
H366 C382 0.959 . S
H367 C382 0.959 . S
H368 C382 0.961 . S
H369 C383 0.960 . S
H370 C383 0.961 . S
H371 C383 0.959 . S
H372 C386 0.929 . S
H373 C387 0.931 . S
H374 C389 0.930 . S
C375 H363 0.930 . S
C375 C376 1.399 1_556 S
C375 C380 1.399 . S
C376 C375 1.399 1_554 S
C376 C377 1.376 . S
C377 H364 0.930 . S
C377 C376 1.376 . S
C377 C378 1.388 . S
C378 H365 0.930 . S
C378 C377 1.388 . S
C378 C379 1.390 . S
C379 C378 1.390 . S
C379 C380 1.394 1_554 S
C379 C385 1.465 . S
C380 C375 1.399 . S
C380 C379 1.394 1_556 S
C380 C381 1.516 . S
C381 C380 1.516 . S
C381 C382 1.502 1_545 S
C381 C383 1.561 . S
C381 C384 1.526 . S
C382 H366 0.959 . S
C382 H367 0.959 . S
C382 H368 0.961 . S
C382 C381 1.502 1_565 S
C383 H369 0.960 . S
C383 H370 0.961 . S
C383 H371 0.959 . S
C383 C381 1.561 . S
C384 C381 1.526 . S
C384 C385 1.396 1_556 S
C384 C389 1.390 1_545 S
C385 C379 1.465 . S
C385 C384 1.396 1_554 S
C385 C386 1.399 . S
C386 H372 0.929 . S
C386 C385 1.399 . S
C386 C387 1.385 . S
C387 H373 0.931 . S
C387 C386 1.385 . S
C387 C388 1.389 . S
C388 C387 1.389 . S
C388 C389 1.387 1_544 S
C389 H374 0.930 . S
C389 C384 1.390 1_565 S
C389 C388 1.387 1_566 S
H390 C402 0.930 . S
H391 C404 0.930 . S
H392 C405 0.930 . S
H393 C409 0.959 . S
H394 C409 0.959 . S
H395 C409 0.961 . S
H396 C410 0.960 . S
H397 C410 0.961 . S
H398 C410 0.959 . S
H399 C413 0.929 . S
H400 C414 0.931 . S
H401 C416 0.930 . S
C402 H390 0.930 . S
C402 C403 1.399 . S
C402 C407 1.399 . S
C403 C402 1.399 . S
C403 C404 1.376 . S
C404 H391 0.930 . S
C404 C403 1.376 . S
C404 C405 1.388 . S
C405 H392 0.930 . S
C405 C404 1.388 . S
C405 C406 1.390 . S
C406 C405 1.390 . S
C406 C407 1.394 . S
C406 C412 1.465 . S
C407 C402 1.399 . S
C407 C406 1.394 . S
C407 C408 1.516 . S
C408 C407 1.516 . S
C408 C409 1.502 . S
C408 C410 1.561 . S
C408 C411 1.526 . S
C409 H393 0.959 . S
C409 H394 0.959 . S
C409 H395 0.961 . S
C409 C408 1.502 . S
C410 H396 0.960 . S
C410 H397 0.961 . S
C410 H398 0.959 . S
C410 C408 1.561 . S
C411 C408 1.526 . S
C411 C412 1.396 . S
C411 C416 1.390 . S
C412 C406 1.465 . S
C412 C411 1.396 . S
C412 C413 1.399 . S
C413 H399 0.929 . S
C413 C412 1.399 . S
C413 C414 1.385 . S
C414 H400 0.931 . S
C414 C413 1.385 . S
C414 C415 1.389 . S
C415 C414 1.389 . S
C415 C416 1.387 . S
C416 H401 0.930 . S
C416 C411 1.390 . S
C416 C415 1.387 . S
H417 C429 0.930 . S
H418 C431 0.930 . S
H419 C432 0.930 . S
H420 C436 0.959 . S
H421 C436 0.959 . S
H422 C436 0.961 . S
H423 C437 0.960 . S
H424 C437 0.961 . S
H425 C437 0.959 . S
H426 C440 0.929 . S
H427 C441 0.931 . S
H428 C443 0.930 . S
C429 H417 0.930 . S
C429 C430 1.399 1_655 S
C429 C434 1.399 1_655 S
C430 C429 1.399 1_455 S
C430 C431 1.376 . S
C431 H418 0.930 . S
C431 C430 1.376 . S
C431 C432 1.388 . S
C432 H419 0.930 . S
C432 C431 1.388 . S
C432 C433 1.390 . S
C433 C432 1.390 . S
C433 C434 1.394 . S
C433 C439 1.465 . S
C434 C429 1.399 1_455 S
C434 C433 1.394 . S
C434 C435 1.516 . S
C435 C434 1.516 . S
C435 C436 1.502 1_455 S
C435 C437 1.561 . S
C435 C438 1.526 . S
C436 H420 0.959 . S
C436 H421 0.959 . S
C436 H422 0.961 . S
C436 C435 1.502 1_655 S
C437 H423 0.960 . S
C437 H424 0.961 . S
C437 H425 0.959 . S
C437 C435 1.561 . S
C438 C435 1.526 . S
C438 C439 1.396 . S
C438 C443 1.390 . S
C439 C433 1.465 . S
C439 C438 1.396 . S
C439 C440 1.399 . S
C440 H426 0.929 . S
C440 C439 1.399 . S
C440 C441 1.385 . S
C441 H427 0.931 . S
C441 C440 1.385 . S
C441 C442 1.389 . S
C442 C441 1.389 . S
C442 C443 1.387 . S
C443 H428 0.930 . S
C443 C438 1.390 . S
C443 C442 1.387 . S
H444 C456 0.930 . S
H445 C458 0.930 . S
H446 C459 0.930 . S
H447 C463 0.959 . S
H448 C463 0.959 . S
H449 C463 0.961 . S
H450 C464 0.960 . S
H451 C464 0.961 . S
H452 C464 0.959 . S
H453 C467 0.929 . S
H454 C468 0.931 . S
H455 C470 0.930 . S
C456 H444 0.930 . S
C456 C457 1.399 . S
C456 C461 1.399 . S
C457 C456 1.399 . S
C457 C458 1.376 . S
C458 H445 0.930 . S
C458 C457 1.376 . S
C458 C459 1.388 . S
C459 H446 0.930 . S
C459 C458 1.388 . S
C459 C460 1.390 . S
C460 C459 1.390 . S
C460 C461 1.394 . S
C460 C466 1.465 . S
C461 C456 1.399 . S
C461 C460 1.394 . S
C461 C462 1.516 . S
C462 C461 1.516 . S
C462 C463 1.502 . S
C462 C464 1.561 . S
C462 C465 1.526 . S
C463 H447 0.959 . S
C463 H448 0.959 . S
C463 H449 0.961 . S
C463 C462 1.502 . S
C464 H450 0.960 . S
C464 H451 0.961 . S
C464 H452 0.959 . S
C464 C462 1.561 . S
C465 C462 1.526 . S
C465 C466 1.396 . S
C465 C470 1.390 . S
C466 C460 1.465 . S
C466 C465 1.396 . S
C466 C467 1.399 . S
C467 H453 0.929 . S
C467 C466 1.399 . S
C467 C468 1.385 . S
C468 H454 0.931 . S
C468 C467 1.385 . S
C468 C469 1.389 . S
C469 C468 1.389 . S
C469 C470 1.387 . S
C470 H455 0.930 . S
C470 C465 1.390 . S
C470 C469 1.387 . S
H471 C483 0.930 . S
H472 C485 0.930 . S
H473 C486 0.930 . S
H474 C490 0.959 . S
H475 C490 0.959 . S
H476 C490 0.961 . S
H477 C491 0.961 1_655 S
H478 C491 0.961 1_655 S
H479 C491 0.959 1_655 S
H480 C494 0.929 . S
H481 C495 0.931 . S
H482 C497 0.930 . S
C483 H471 0.930 . S
C483 C484 1.399 . S
C483 C488 1.399 . S
C484 C483 1.399 . S
C484 C485 1.376 . S
C485 H472 0.930 . S
C485 C484 1.376 . S
C485 C486 1.388 . S
C486 H473 0.930 . S
C486 C485 1.388 . S
C486 C487 1.390 . S
C487 C486 1.390 . S
C487 C488 1.394 . S
C487 C493 1.465 . S
C488 C483 1.399 . S
C488 C487 1.394 . S
C488 C489 1.516 . S
C489 C488 1.516 . S
C489 C490 1.502 . S
C489 C491 1.561 . S
C489 C492 1.526 . S
C490 H474 0.959 . S
C490 H475 0.959 . S
C490 H476 0.961 . S
C490 C489 1.502 . S
C491 H477 0.961 1_455 S
C491 H478 0.961 1_455 S
C491 H479 0.959 1_455 S
C491 C489 1.561 . S
C492 C489 1.526 . S
C492 C493 1.396 . S
C492 C497 1.390 . S
C493 C487 1.465 . S
C493 C492 1.396 . S
C493 C494 1.399 . S
C494 H480 0.929 . S
C494 C493 1.399 . S
C494 C495 1.385 . S
C495 H481 0.931 . S
C495 C494 1.385 . S
C495 C496 1.389 . S
C496 C495 1.389 . S
C496 C497 1.387 . S
C497 H482 0.930 . S
C497 C492 1.390 . S
C497 C496 1.387 . S
H498 C510 0.930 . S
H499 C512 0.930 . S
H500 C513 0.930 . S
H501 C517 0.959 . S
H502 C517 0.959 . S
H503 C517 0.961 . S
H504 C518 0.960 . S
H505 C518 0.961 . S
H506 C518 0.959 . S
H507 C521 0.929 . S
H508 C522 0.931 . S
H509 C524 0.930 . S
C510 H498 0.930 . S
C510 C511 1.399 . S
C510 C515 1.399 . S
C511 C510 1.399 . S
C511 C512 1.376 . S
C512 H499 0.930 . S
C512 C511 1.376 . S
C512 C513 1.388 . S
C513 H500 0.930 . S
C513 C512 1.388 . S
C513 C514 1.390 . S
C514 C513 1.390 . S
C514 C515 1.394 . S
C514 C520 1.465 . S
C515 C510 1.399 . S
C515 C514 1.394 . S
C515 C516 1.516 . S
C516 C515 1.516 . S
C516 C517 1.502 1_655 S
C516 C518 1.561 . S
C516 C519 1.526 . S
C517 H501 0.959 . S
C517 H502 0.959 . S
C517 H503 0.961 . S
C517 C516 1.502 1_455 S
C518 H504 0.960 . S
C518 H505 0.961 . S
C518 H506 0.959 . S
C518 C516 1.561 . S
C519 C516 1.526 . S
C519 C520 1.396 . S
C519 C524 1.390 . S
C520 C514 1.465 . S
C520 C519 1.396 . S
C520 C521 1.399 . S
C521 H507 0.929 . S
C521 C520 1.399 . S
C521 C522 1.385 . S
C522 H508 0.931 . S
C522 C521 1.385 . S
C522 C523 1.389 . S
C523 C522 1.389 . S
C523 C524 1.387 . S
C524 H509 0.930 . S
C524 C519 1.390 . S
C524 C523 1.387 . S
H525 C537 0.930 . S
H526 C539 0.930 . S
H527 C540 0.930 . S
H528 C544 0.959 1_565 S
H529 C544 0.959 . S
H530 C544 0.961 . S
H531 C545 0.960 . S
H532 C545 0.961 . S
H533 C545 0.959 1_565 S
H534 C548 0.929 . S
H535 C549 0.931 . S
H536 C551 0.930 . S
C537 H525 0.930 . S
C537 C538 1.399 . S
C537 C542 1.399 . S
C538 C537 1.399 . S
C538 C539 1.376 . S
C539 H526 0.930 . S
C539 C538 1.376 . S
C539 C540 1.388 . S
C540 H527 0.930 . S
C540 C539 1.388 . S
C540 C541 1.390 . S
C541 C540 1.390 . S
C541 C542 1.394 . S
C541 C547 1.465 . S
C542 C537 1.399 . S
C542 C541 1.394 . S
C542 C543 1.516 . S
C543 C542 1.516 . S
C543 C544 1.502 1_565 S
C543 C545 1.561 1_565 S
C543 C546 1.526 . S
C544 H528 0.959 1_545 S
C544 H529 0.959 . S
C544 H530 0.961 . S
C544 C543 1.502 1_545 S
C545 H531 0.960 . S
C545 H532 0.961 . S
C545 H533 0.959 1_545 S
C545 C543 1.561 1_545 S
C546 C543 1.526 . S
C546 C547 1.396 . S
C546 C551 1.390 . S
C547 C541 1.465 . S
C547 C546 1.396 . S
C547 C548 1.399 . S
C548 H534 0.929 . S
C548 C547 1.399 . S
C548 C549 1.385 . S
C549 H535 0.931 . S
C549 C548 1.385 . S
C549 C550 1.389 . S
C550 C549 1.389 . S
C550 C551 1.387 . S
C551 H536 0.930 . S
C551 C546 1.390 . S
C551 C550 1.387 . S
H552 C564 0.930 . S
H553 C566 0.930 . S
H554 C567 0.930 1_455 S
H555 C571 0.959 . S
H556 C571 0.959 . S
H557 C571 0.961 . S
H558 C572 0.960 . S
H559 C572 0.961 . S
H560 C572 0.959 1_455 S
H561 C575 0.929 . S
H562 C576 0.931 . S
H563 C578 0.930 . S
C564 H552 0.930 . S
C564 C565 1.399 . S
C564 C569 1.399 . S
C565 C564 1.399 . S
C565 C566 1.376 . S
C566 H553 0.930 . S
C566 C565 1.376 . S
C566 C567 1.388 . S
C567 H554 0.930 1_655 S
C567 C566 1.388 . S
C567 C568 1.390 . S
C568 C567 1.390 . S
C568 C569 1.394 . S
C568 C574 1.465 . S
C569 C564 1.399 . S
C569 C568 1.394 . S
C569 C570 1.516 . S
C570 C569 1.516 . S
C570 C571 1.502 . S
C570 C572 1.561 . S
C570 C573 1.526 . S
C571 H555 0.959 . S
C571 H556 0.959 . S
C571 H557 0.961 . S
C571 C570 1.502 . S
C572 H558 0.960 . S
C572 H559 0.961 . S
C572 H560 0.959 1_655 S
C572 C570 1.561 . S
C573 C570 1.526 . S
C573 C574 1.396 . S
C573 C578 1.390 . S
C574 C568 1.465 . S
C574 C573 1.396 . S
C574 C575 1.399 1_655 S
C575 H561 0.929 . S
C575 C574 1.399 1_455 S
C575 C576 1.385 . S
C576 H562 0.931 . S
C576 C575 1.385 . S
C576 C577 1.389 1_455 S
C577 C576 1.389 1_655 S
C577 C578 1.387 . S
C578 H563 0.930 . S
C578 C573 1.390 . S
C578 C577 1.387 . S
H579 C591 0.930 1_545 S
H580 C593 0.930 . S
H581 C594 0.930 . S
H582 C598 0.959 . S
H583 C598 0.959 . S
H584 C598 0.961 . S
H585 C599 0.960 . S
H586 C599 0.961 . S
H587 C599 0.959 . S
H588 C602 0.929 . S
H589 C603 0.931 . S
H590 C605 0.930 . S
C591 H579 0.930 1_565 S
C591 C592 1.399 . S
C591 C596 1.399 . S
C592 C591 1.399 . S
C592 C593 1.376 . S
C593 H580 0.930 . S
C593 C592 1.376 . S
C593 C594 1.388 . S
C594 H581 0.930 . S
C594 C593 1.388 . S
C594 C595 1.390 . S
C595 C594 1.390 . S
C595 C596 1.394 . S
C595 C601 1.465 . S
C596 C591 1.399 . S
C596 C595 1.394 . S
C596 C597 1.516 1_565 S
C597 C596 1.516 1_545 S
C597 C598 1.502 . S
C597 C599 1.561 . S
C597 C600 1.526 1_545 S
C598 H582 0.959 . S
C598 H583 0.959 . S
C598 H584 0.961 . S
C598 C597 1.502 . S
C599 H585 0.960 . S
C599 H586 0.961 . S
C599 H587 0.959 . S
C599 C597 1.561 . S
C600 C597 1.526 1_565 S
C600 C601 1.396 . S
C600 C605 1.390 1_565 S
C601 C595 1.465 . S
C601 C600 1.396 . S
C601 C602 1.399 . S
C602 H588 0.929 . S
C602 C601 1.399 . S
C602 C603 1.385 . S
C603 H589 0.931 . S
C603 C602 1.385 . S
C603 C604 1.389 . S
C604 C603 1.389 . S
C604 C605 1.387 1_565 S
C605 H590 0.930 . S
C605 C600 1.390 1_545 S
C605 C604 1.387 1_545 S
C133 C68 1.314 1_566 S
C145 C8 1.366 1_556 S
C160 C88 1.373 . S
C172 C28 1.299 . S
C187 C108 1.253 . S
C199 C48 1.354 1_655 S
C214 C1 1.387 . S
C226 C42 1.411 . S
C241 C21 1.447 . S
C253 C62 1.318 . S
C268 C41 1.374 . S
C280 C82 1.421 . S
C295 C61 1.412 . S
C307 C102 1.347 . S
C322 C81 1.413 . S
C334 C2 1.383 . S
C349 C101 1.391 . S
C361 C22 1.407 . S
C376 C9 1.129 . S
C388 C69 1.147 1_545 S
C403 C29 1.106 . S
C415 C89 1.088 . S
C430 C49 1.108 1_455 S
C442 C109 1.089 . S
C457 C18 1.885 . S
C469 C39 1.882 . S
C484 C38 1.835 . S
C496 C59 1.909 . S
C511 C58 1.873 . S
C523 C79 1.880 . S
C538 C78 1.887 . S
C550 C99 1.884 . S
C565 C98 1.836 . S
C577 C119 1.896 1_655 S
C592 C118 1.852 . S
C604 C19 1.910 1_565 S
