# Generated by pormake.
# Topology can, (4)-cn, num edge types: 1
# Building blocks:
#     Node 0, Type 0, BuildingBlock: QUQFOY_clean_sbu_3, # of connection points: 4
#     Node 1, Type 0, BuildingBlock: QUQFOY_clean_sbu_3, # of connection points: 4
#     Node 2, Type 0, BuildingBlock: QUQFOY_clean_sbu_3, # of connection points: 4
#     Node 3, Type 0, BuildingBlock: QUQFOY_clean_sbu_3, # of connection points: 4
#     Node 4, Type 0, BuildingBlock: QUQFOY_clean_sbu_3, # of connection points: 4
#     Node 5, Type 0, BuildingBlock: QUQFOY_clean_sbu_3, # of connection points: 4
#     Node 6, Type 0, BuildingBlock: QUQFOY_clean_sbu_3, # of connection points: 4
#     Node 7, Type 0, BuildingBlock: QUQFOY_clean_sbu_3, # of connection points: 4
#     Node 8, Type 0, BuildingBlock: QUQFOY_clean_sbu_3, # of connection points: 4
#     Node 9, Type 0, BuildingBlock: QUQFOY_clean_sbu_3, # of connection points: 4
#     Node 10, Type 0, BuildingBlock: QUQFOY_clean_sbu_3, # of connection points: 4
#     Node 11, Type 0, BuildingBlock: QUQFOY_clean_sbu_3, # of connection points: 4
#     Edge 12, Type (0, 0), BuildingBlock: ZUJKAS_clean_linker_0, # of connection points: 2
#     Edge 13, Type (0, 0), BuildingBlock: ZUJKAS_clean_linker_0, # of connection points: 2
#     Edge 14, Type (0, 0), BuildingBlock: ZUJKAS_clean_linker_0, # of connection points: 2
#     Edge 15, Type (0, 0), BuildingBlock: ZUJKAS_clean_linker_0, # of connection points: 2
#     Edge 16, Type (0, 0), BuildingBlock: ZUJKAS_clean_linker_0, # of connection points: 2
#     Edge 17, Type (0, 0), BuildingBlock: ZUJKAS_clean_linker_0, # of connection points: 2
#     Edge 18, Type (0, 0), BuildingBlock: ZUJKAS_clean_linker_0, # of connection points: 2
#     Edge 19, Type (0, 0), BuildingBlock: ZUJKAS_clean_linker_0, # of connection points: 2
#     Edge 20, Type (0, 0), BuildingBlock: ZUJKAS_clean_linker_0, # of connection points: 2
#     Edge 21, Type (0, 0), BuildingBlock: ZUJKAS_clean_linker_0, # of connection points: 2
#     Edge 22, Type (0, 0), BuildingBlock: ZUJKAS_clean_linker_0, # of connection points: 2
#     Edge 23, Type (0, 0), BuildingBlock: ZUJKAS_clean_linker_0, # of connection points: 2
#     Edge 24, Type (0, 0), BuildingBlock: ZUJKAS_clean_linker_0, # of connection points: 2
#     Edge 25, Type (0, 0), BuildingBlock: ZUJKAS_clean_linker_0, # of connection points: 2
#     Edge 26, Type (0, 0), BuildingBlock: ZUJKAS_clean_linker_0, # of connection points: 2
#     Edge 27, Type (0, 0), BuildingBlock: ZUJKAS_clean_linker_0, # of connection points: 2
#     Edge 28, Type (0, 0), BuildingBlock: ZUJKAS_clean_linker_0, # of connection points: 2
#     Edge 29, Type (0, 0), BuildingBlock: ZUJKAS_clean_linker_0, # of connection points: 2
#     Edge 30, Type (0, 0), BuildingBlock: ZUJKAS_clean_linker_0, # of connection points: 2
#     Edge 31, Type (0, 0), BuildingBlock: ZUJKAS_clean_linker_0, # of connection points: 2
#     Edge 32, Type (0, 0), BuildingBlock: ZUJKAS_clean_linker_0, # of connection points: 2
#     Edge 33, Type (0, 0), BuildingBlock: ZUJKAS_clean_linker_0, # of connection points: 2
#     Edge 34, Type (0, 0), BuildingBlock: ZUJKAS_clean_linker_0, # of connection points: 2
#     Edge 35, Type (0, 0), BuildingBlock: ZUJKAS_clean_linker_0, # of connection points: 2
# Relax obj value: 0.050
# Max RMSD: 0.036
# Mean RMSD: 0.036
data_MOF--net-can--node1-QUQFOY_clean_sbu_3--edge1-ZUJKAS_clean_linker_0
_symmetry_space_group_name_H-M    P1
_symmetry_Int_Tables_number       1
_symmetry_cell_setting            triclinic
loop_
_symmetry_equiv_pos_as_xyz
'x, y, z'
_cell_length_a     72.721095
_cell_length_b     72.79367
_cell_length_c     36.572575
_cell_angle_alpha  90.109149
_cell_angle_beta   89.93568
_cell_angle_gamma 119.96505
loop_
_atom_site_label
_atom_site_type_symbol
_atom_site_fract_x
_atom_site_fract_y
_atom_site_fract_z
_atom_type_partial_charge
C0 C 0.01473 0.35417 0.29915 0.0
O1 O 0.00045 0.34938 0.27508 0.0
Cd2 Cd 0.00715 0.3621 0.21339 0.0
O3 O 0.03428 0.36618 0.29131 0.0
Cd4 Cd 0.05636 0.38524 0.23773 0.0
C5 C 0.03309 0.41562 0.23075 0.0
O6 O 0.03587 0.35745 0.19364 0.0
O7 O 0.06041 0.38695 0.17129 0.0
O8 O 0.083 0.37683 0.2591 0.0
C9 C 0.04603 0.36793 0.1658 0.0
O10 O 0.01686 0.39946 0.21751 0.0
C11 C 0.09851 0.39558 0.25551 0.0
O12 O 0.04898 0.41434 0.24198 0.0
O13 O 0.09423 0.40962 0.24489 0.0
C14 C 0.6575 0.01564 0.79516 0.0
O15 O 0.64834 0.00093 0.77168 0.0
Cd16 Cd 0.64158 0.00697 0.71018 0.0
O17 O 0.66398 0.03488 0.78657 0.0
Cd18 Cd 0.66521 0.05557 0.73219 0.0
C19 C 0.61159 0.03039 0.72722 0.0
O20 O 0.67451 0.03611 0.68919 0.0
O21 O 0.66552 0.05754 0.66539 0.0
O22 O 0.69995 0.08312 0.75268 0.0
C23 C 0.67285 0.04514 0.66088 0.0
O24 O 0.61235 0.01458 0.71404 0.0
C25 C 0.69633 0.09831 0.74816 0.0
O26 O 0.62841 0.04681 0.738 0.0
O27 O 0.67789 0.09352 0.73721 0.0
C28 C 0.63406 0.66148 0.3062 0.0
O29 O 0.64025 0.65182 0.285 0.0
Cd30 Cd 0.62892 0.6433 0.22285 0.0
O31 O 0.62161 0.66778 0.2947 0.0
Cd32 Cd 0.60379 0.66823 0.23749 0.0
C33 C 0.57484 0.61463 0.23601 0.0
O34 O 0.63298 0.67527 0.19673 0.0
O35 O 0.60305 0.66648 0.17094 0.0
O36 O 0.61192 0.70389 0.25346 0.0
C37 C 0.62264 0.67269 0.16751 0.0
O38 O 0.5918 0.61486 0.22632 0.0
C39 C 0.5933 0.70068 0.24801 0.0
O40 O 0.57502 0.63179 0.24362 0.0
O41 O 0.57931 0.68209 0.23842 0.0
C42 C 0.9733 0.63675 0.79728 0.0
O43 O 0.98837 0.64186 0.77467 0.0
Cd44 Cd 0.98368 0.63165 0.7114 0.0
O45 O 0.95403 0.62558 0.78716 0.0
Cd46 Cd 0.93376 0.60856 0.73106 0.0
C47 C 0.95658 0.57773 0.72281 0.0
O48 O 0.95599 0.63764 0.69024 0.0
O49 O 0.93158 0.60917 0.66465 0.0
O50 O 0.90649 0.61636 0.75151 0.0
C51 C 0.94641 0.62818 0.66124 0.0
O52 O 0.97336 0.59407 0.71157 0.0
C53 C 0.89113 0.59774 0.74588 0.0
O54 O 0.94061 0.57907 0.73339 0.0
O55 O 0.89575 0.58405 0.73449 0.0
C56 C 0.33707 0.97852 0.29665 0.0
O57 O 0.34608 0.99357 0.27381 0.0
Cd58 Cd 0.35113 0.98823 0.21092 0.0
O59 O 0.32987 0.95935 0.28662 0.0
Cd60 Cd 0.32707 0.93952 0.22991 0.0
C61 C 0.38043 0.96358 0.22181 0.0
O62 O 0.3172 0.96023 0.19066 0.0
O63 O 0.32493 0.93874 0.16328 0.0
O64 O 0.29362 0.91187 0.25537 0.0
C65 C 0.31785 0.95145 0.16117 0.0
O66 O 0.37986 0.97979 0.21027 0.0
C67 C 0.29594 0.89661 0.2443 0.0
O68 O 0.36361 0.94727 0.23282 0.0
O69 O 0.31303 0.90134 0.22753 0.0
C70 C 0.35479 0.33187 0.79944 0.0
O71 O 0.34932 0.34081 0.77543 0.0
Cd72 Cd 0.36146 0.34668 0.71342 0.0
O73 O 0.36724 0.32488 0.79132 0.0
Cd74 Cd 0.38622 0.32221 0.73717 0.0
C75 C 0.41512 0.37586 0.729 0.0
O76 O 0.35777 0.31365 0.69405 0.0
O77 O 0.38734 0.31964 0.67042 0.0
O78 O 0.379 0.28769 0.75911 0.0
C79 C 0.36805 0.31431 0.66569 0.0
O80 O 0.39851 0.37523 0.71628 0.0
C81 C 0.39788 0.29135 0.75492 0.0
O82 O 0.41459 0.35908 0.74033 0.0
O83 O 0.41149 0.30968 0.74362 0.0
C84 C 0.63634 0.97511 0.17569 0.0
O85 O 0.64233 0.99124 0.19612 0.0
Cd86 Cd 0.63173 0.98906 0.2587 0.0
O87 O 0.62425 0.95652 0.18805 0.0
Cd88 Cd 0.60673 0.93927 0.2459 0.0
C89 C 0.57781 0.96407 0.24681 0.0
O90 O 0.6366 0.96167 0.28521 0.0
O91 O 0.60707 0.94102 0.31254 0.0
O92 O 0.61401 0.91111 0.22999 0.0
C93 C 0.62677 0.95413 0.31493 0.0
O94 O 0.59466 0.98073 0.25688 0.0
C95 C 0.59542 0.89603 0.23673 0.0
O96 O 0.57815 0.9472 0.23893 0.0
O97 O 0.58185 0.90108 0.24702 0.0
C98 C 0.65401 0.63627 0.68568 0.0
O99 O 0.6445 0.64138 0.70922 0.0
Cd100 Cd 0.63796 0.62869 0.77072 0.0
O101 O 0.66117 0.62405 0.69422 0.0
Cd102 Cd 0.6633 0.60531 0.74904 0.0
C103 C 0.60986 0.57514 0.75389 0.0
O104 O 0.67129 0.63372 0.79214 0.0
O105 O 0.66288 0.60346 0.81583 0.0
O106 O 0.69861 0.6136 0.72945 0.0
C107 C 0.66959 0.62304 0.82048 0.0
O108 O 0.60985 0.59138 0.76696 0.0
C109 C 0.69557 0.59503 0.73451 0.0
O110 O 0.62704 0.57629 0.7431 0.0
O111 O 0.67723 0.58106 0.7452 0.0
C112 C 0.02027 0.65729 0.17858 0.0
O113 O 0.00501 0.64779 0.20097 0.0
Cd114 Cd 0.0089 0.6416 0.26391 0.0
O115 O 0.03943 0.66473 0.18897 0.0
Cd116 Cd 0.05902 0.66744 0.24601 0.0
C117 C 0.03541 0.6139 0.25262 0.0
O118 O 0.03662 0.67504 0.28523 0.0
O119 O 0.0597 0.66974 0.31271 0.0
O120 O 0.08623 0.70173 0.22285 0.0
C121 C 0.04531 0.67465 0.31495 0.0
O122 O 0.01877 0.61399 0.26326 0.0
C123 C 0.10173 0.69965 0.23334 0.0
O124 O 0.05183 0.631 0.24271 0.0
O125 O 0.09733 0.68224 0.24845 0.0
C126 C 0.35711 0.0183 0.68003 0.0
O127 O 0.35063 0.00235 0.70097 0.0
Cd128 Cd 0.3601 0.00514 0.76425 0.0
O129 O 0.369 0.03699 0.69227 0.0
Cd130 Cd 0.38529 0.05436 0.75088 0.0
C131 C 0.41405 0.02949 0.75516 0.0
O132 O 0.35455 0.03257 0.78918 0.0
O133 O 0.38386 0.05281 0.81748 0.0
O134 O 0.37903 0.08297 0.73312 0.0
C135 C 0.364 0.04029 0.81914 0.0
O136 O 0.39704 0.01296 0.76504 0.0
C137 C 0.39749 0.0978 0.74142 0.0
O138 O 0.41385 0.04629 0.74631 0.0
O139 O 0.41051 0.09239 0.7532 0.0
C140 C 0.33334 0.35659 0.17914 0.0
O141 O 0.34377 0.35107 0.19979 0.0
Cd142 Cd 0.3523 0.36163 0.26237 0.0
O143 O 0.32623 0.36828 0.19125 0.0
Cd144 Cd 0.32543 0.3855 0.24912 0.0
C145 C 0.37927 0.41574 0.25123 0.0
O146 O 0.31976 0.35619 0.28832 0.0
O147 O 0.32497 0.38464 0.31571 0.0
O148 O 0.28976 0.37745 0.23263 0.0
C149 C 0.32081 0.36559 0.31807 0.0
O150 O 0.37978 0.39907 0.25995 0.0
C151 C 0.29286 0.39589 0.23961 0.0
O152 O 0.36173 0.41492 0.24421 0.0
O153 O 0.31136 0.40968 0.24999 0.0
C154 C 0.96866 0.33394 0.67822 0.0
O155 O 0.98471 0.3446 0.69858 0.0
Cd156 Cd 0.98284 0.35359 0.76098 0.0
O157 O 0.94992 0.32691 0.69054 0.0
Cd158 Cd 0.93224 0.32674 0.74833 0.0
C159 C 0.95564 0.38044 0.74886 0.0
O160 O 0.95592 0.32133 0.78772 0.0
O161 O 0.93346 0.32762 0.81523 0.0
O162 O 0.90483 0.29085 0.73312 0.0
C163 C 0.94813 0.32311 0.81757 0.0
O164 O 0.97273 0.38098 0.75849 0.0
C165 C 0.88935 0.29383 0.73959 0.0
O166 O 0.93903 0.3629 0.74146 0.0
O167 O 0.89385 0.31238 0.74931 0.0
H168 H 0.01027 0.33146 0.14587 0.0
H169 H -0.00375 0.32057 0.08413 0.0
H170 H 0.05184 0.37475 0.03978 0.0
H171 H 0.06576 0.38606 0.10158 0.0
H172 H 0.01574 0.37273 0.01748 0.0
H173 H 0.00946 0.29436 -0.0025 0.0
H174 H -0.00291 0.2958 0.03906 0.0
H175 H 0.02532 0.31241 0.03339 0.0
C176 C 0.01971 0.34083 0.12291 0.0
C177 C 0.03902 0.35972 0.1285 0.0
C178 C 0.01174 0.33447 0.08762 0.0
C179 C 0.02311 0.34672 0.05737 0.0
C180 C 0.04288 0.36505 0.0628 0.0
H181 H 0.98352 0.31998 0.8296 0.0
H182 H 0.00191 0.32452 0.8878 0.0
C183 C 0.05078 0.3715 0.09808 0.0
C184 C 0.01317 0.34197 0.02078 0.0
H185 H 0.98894 0.30295 0.95667 0.0
C186 C 0.01011 0.35755 0.004 0.0
C187 C 0.00596 0.32222 0.00319 0.0
C188 C 0.00981 0.30532 0.01904 0.0
C189 C -0.0005 0.35373 0.97055 0.0
C190 C 0.99133 0.33362 0.95388 0.0
C191 C 0.99496 0.31823 0.96995 0.0
C192 C 0.97904 0.3285 0.91965 0.0
C193 C -0.00283 0.3713 0.95332 0.0
C194 C 0.9598 0.32856 0.9187 0.0
C195 C 0.94934 0.3261 0.88558 0.0
C196 C 0.95792 0.32338 0.85295 0.0
C197 C 0.97661 0.32218 0.85428 0.0
C198 C 0.9871 0.32472 0.88746 0.0
H199 H 0.00885 0.38709 0.96452 0.0
H200 H -0.00076 0.37156 0.9232 0.0
H201 H 0.98102 0.36862 0.95904 0.0
H202 H 0.95318 0.3311 0.94348 0.0
H203 H 0.93483 0.32687 0.88542 0.0
H204 H 0.66909 0.97966 0.32847 0.0
H205 H 0.68591 0.99501 0.38725 0.0
H206 H 0.62457 0.96308 0.43978 0.0
H207 H 0.60784 0.94718 0.38164 0.0
H208 H 0.68048 0.02176 0.42752 0.0
H209 H 0.65861 0.95098 0.51116 0.0
H210 H 0.65596 0.94962 0.46201 0.0
H211 H 0.63523 0.94867 0.49049 0.0
C212 C 0.65927 0.97566 0.35272 0.0
C213 C 0.63716 0.96223 0.35054 0.0
C214 C 0.66889 0.98441 0.38623 0.0
C215 C 0.65656 0.97988 0.41801 0.0
C216 C 0.63451 0.96627 0.41586 0.0
H217 H 0.65978 0.05275 0.59578 0.0
H218 H 0.6615 0.03888 0.53599 0.0
C219 C 0.62492 0.95735 0.38252 0.0
C220 C 0.66617 0.99089 0.45278 0.0
H221 H 0.66395 0.98238 0.54459 0.0
C222 C 0.67732 0.01315 0.45308 0.0
C223 C 0.66263 0.97974 0.48603 0.0
C224 C 0.65267 0.95593 0.48731 0.0
C225 C 0.6834 0.0245 0.48603 0.0
C226 C 0.67756 0.01324 0.51944 0.0
C227 C 0.66806 0.99105 0.51901 0.0
C228 C 0.679 0.02379 0.55481 0.0
C229 C 0.69557 0.04841 0.48462 0.0
C230 C 0.68794 0.01966 0.58547 0.0
C231 C 0.68649 0.02715 0.61991 0.0
C232 C 0.67617 0.03898 0.62416 0.0
C233 C 0.66795 0.04379 0.59326 0.0
C234 C 0.66913 0.03604 0.55897 0.0
H235 H 0.70586 0.05408 0.45996 0.0
H236 H 0.6842 0.05435 0.48279 0.0
H237 H 0.70563 0.05536 0.50925 0.0
H238 H 0.69551 0.01013 0.58292 0.0
H239 H 0.69305 0.02329 0.6433 0.0
H240 H 0.60182 0.65705 0.1032 0.0
H241 H 0.61697 0.65495 0.04494 0.0
H242 H 0.67985 0.68855 0.09156 0.0
H243 H 0.66464 0.68994 0.15062 0.0
H244 H 0.64457 0.68384 -0.00142 0.0
H245 H 0.67799 0.63562 0.05438 0.0
H246 H 0.66029 0.64122 0.08042 0.0
H247 H 0.68777 0.66114 0.07537 0.0
C248 C 0.61888 0.6641 0.10104 0.0
C249 C 0.63205 0.67341 0.13151 0.0
C250 C 0.62753 0.66292 0.06771 0.0
C251 C 0.6495 0.67123 0.06414 0.0
C252 C 0.66281 0.68154 0.09402 0.0
H253 H 0.68954 0.66485 0.8394 0.0
H254 H 0.68952 0.67982 0.89943 0.0
C255 C 0.65412 0.68243 0.12762 0.0
C256 C 0.65803 0.66824 0.02932 0.0
H257 H 0.68214 0.64282 -0.00853 0.0
C258 C 0.65298 0.67506 -0.00304 0.0
C259 C 0.6689 0.65667 0.02745 0.0
C260 C 0.67393 0.64806 0.06118 0.0
C261 C 0.6575 0.6697 0.96262 0.0
C262 C 0.66811 0.65787 0.96072 0.0
C263 C 0.67412 0.65198 -0.00689 0.0
C264 C 0.67084 0.64933 0.9257 0.0
C265 C 0.64965 0.67562 0.9289 0.0
C266 C 0.66146 0.6273 0.92122 0.0
C267 C 0.66188 0.61876 0.8873 0.0
C268 C 0.67148 0.63212 0.8572 0.0
C269 C 0.68175 0.65421 0.8621 0.0
C270 C 0.68166 0.66276 0.89626 0.0
H271 H 0.63768 0.68034 0.93562 0.0
H272 H 0.66321 0.68927 0.91525 0.0
H273 H 0.64245 0.66221 0.90922 0.0
H274 H 0.65311 0.61665 0.94365 0.0
H275 H 0.6539 0.60167 0.88433 0.0
H276 H 0.06028 0.67343 0.38265 0.0
H277 H 0.04287 0.67039 0.44136 0.0
H278 H 0.99288 0.67508 0.38664 0.0
H279 H 0.01028 0.67835 0.32772 0.0
H280 H 0.00723 0.69774 0.45701 0.0
H281 H 0.98681 0.61328 0.46111 0.0
H282 H 0.01451 0.63198 0.45465 0.0
H283 H -0.00427 0.62902 0.41998 0.0
C284 C 0.04575 0.67413 0.38314 0.0
C285 C 0.03645 0.67578 0.35058 0.0
C286 C 0.03585 0.6724 0.41665 0.0
C287 C 0.01649 0.6722 0.41806 0.0
C288 C 0.00781 0.67515 0.38593 0.0
H289 H 0.92761 0.61254 0.59537 0.0
H290 H 0.9428 0.62545 0.53484 0.0
C291 C 0.01773 0.67695 0.35236 0.0
C292 C 0.00438 0.66692 0.4525 0.0
H293 H 0.97926 0.62694 0.51414 0.0
C294 C 0.001 0.68226 0.46956 0.0
C295 C -0.00402 0.64657 0.46819 0.0
C296 C -0.00177 0.62916 0.44996 0.0
C297 C 0.98987 0.6779 0.50275 0.0
C298 C 0.98222 0.6578 0.51916 0.0
C299 C 0.98519 0.64236 0.50151 0.0
C300 C 0.97164 0.65237 0.55519 0.0
C301 C 0.98628 0.69473 0.51981 0.0
C302 C 0.98266 0.66352 0.58658 0.0
C303 C 0.97398 0.65623 0.6212 0.0
C304 C 0.95429 0.63752 0.62489 0.0
C305 C 0.94289 0.62693 0.59335 0.0
C306 C 0.9515 0.6343 0.55878 0.0
H307 H 0.9875 0.7065 0.49923 0.0
H308 H 0.97045 0.6876 0.53311 0.0
H309 H -0.00144 0.70332 0.54099 0.0
H310 H -0.00159 0.67723 0.58443 0.0
H311 H 0.98314 0.66468 0.64506 0.0
H312 H 0.32125 0.01717 0.83122 0.0
H313 H 0.30321 0.00329 0.88975 0.0
H314 H 0.36388 0.03241 0.94452 0.0
H315 H 0.38182 0.04692 0.88669 0.0
H316 H 0.30535 0.97569 0.93117 0.0
H317 H 0.33167 0.04736 0.0145 0.0
H318 H 0.33491 0.04862 0.96545 0.0
H319 H 0.35463 0.0482 -0.00513 0.0
C320 C 0.33067 0.0209 0.85591 0.0
C321 C 0.35293 0.03311 0.85446 0.0
C322 C 0.32035 0.01301 0.88929 0.0
C323 C 0.33214 0.01716 0.92166 0.0
C324 C 0.35436 0.0296 0.92018 0.0
H325 H 0.32758 0.94295 0.09374 0.0
H326 H 0.32451 0.95723 0.03549 0.0
C327 C 0.36464 0.03769 0.88699 0.0
C328 C 0.32175 0.00664 0.95636 0.0
H329 H 0.32549 0.01548 0.0482 0.0
C330 C 0.30926 0.98444 0.95671 0.0
C331 C 0.32615 0.01798 0.98966 0.0
C332 C 0.33736 0.04188 -0.00903 0.0
C333 C 0.30296 0.97322 0.98972 0.0
C334 C 0.30999 0.98449 0.02306 0.0
C335 C 0.32053 0.00674 0.02266 0.0
C336 C 0.30919 0.97378 0.0579 0.0
C337 C 0.28946 0.94938 0.98837 0.0
C338 C 0.302 0.97864 0.09015 0.0
C339 C 0.30426 0.97089 0.12377 0.0
C340 C 0.31367 0.9581 0.12559 0.0
C341 C 0.32015 0.95265 0.09317 0.0
C342 C 0.31816 0.96062 0.05973 0.0
H343 H 0.2784 0.94431 0.96473 0.0
H344 H 0.29984 0.94238 0.98461 0.0
H345 H 0.28006 0.9429 0.01381 0.0
H346 H 0.29519 0.98891 0.08943 0.0
H347 H 0.29906 0.97528 0.14838 0.0
H348 H 0.32078 0.32864 0.33107 0.0
H349 H 0.32429 0.31512 0.39028 0.0
H350 H 0.32307 0.36717 0.4446 0.0
H351 H 0.32001 0.38102 0.38553 0.0
H352 H 0.35751 0.36368 0.46261 0.0
H353 H 0.28388 0.28558 0.47554 0.0
H354 H 0.29794 0.28914 0.43334 0.0
H355 H 0.28649 0.3055 0.44327 0.0
C356 C 0.32089 0.33699 0.35569 0.0
C357 C 0.32029 0.35597 0.35373 0.0
C358 C 0.32274 0.32916 0.38948 0.0
C359 C 0.32374 0.34005 0.42177 0.0
C360 C 0.32226 0.35852 0.41993 0.0
H361 H 0.33002 0.31086 0.64792 0.0
H362 H 0.31828 0.31466 0.58718 0.0
C363 C 0.32056 0.36642 0.3862 0.0
C364 C 0.32869 0.33364 0.457 0.0
H365 H 0.31146 0.2931 0.51846 0.0
C366 C 0.3474 0.34828 0.47488 0.0
C367 C 0.3154 0.31356 0.4729 0.0
C368 C 0.2947 0.29758 0.45548 0.0
C369 C 0.35327 0.34341 0.50829 0.0
C370 C 0.34031 0.32314 0.52376 0.0
C371 C 0.32147 0.3085 0.50612 0.0
C372 C 0.34577 0.31744 0.55916 0.0
C373 C 0.37308 0.36018 0.5271 0.0
C374 C 0.36469 0.31693 0.5631 0.0
C375 C 0.37153 0.31495 0.59773 0.0
C376 C 0.35943 0.31327 0.62883 0.0
C377 C 0.33975 0.31228 0.62445 0.0
C378 C 0.33298 0.31438 0.58982 0.0
H379 H 0.37841 0.37625 0.51592 0.0
H380 H 0.37043 0.36042 0.55696 0.0
H381 H 0.38609 0.35659 0.52298 0.0
H382 H 0.37457 0.31893 0.53955 0.0
H383 H 0.38664 0.3155 0.60024 0.0
H384 H 0.01234 0.65756 0.83004 0.0
H385 H 0.01994 0.66438 0.89534 0.0
H386 H 0.95308 0.63681 0.91774 0.0
H387 H 0.94523 0.62966 0.85264 0.0
H388 H 0.00946 0.68708 0.94803 0.0
H389 H 0.97163 0.60088 0.97801 0.0
H390 H 0.97848 0.61135 0.93222 0.0
H391 H 0.95511 0.60869 0.95397 0.0
C392 C -0.00075 0.65309 0.84878 0.0
C393 C 0.97815 0.64281 0.83618 0.0
C394 C 0.00364 0.65705 0.88604 0.0
C395 C 0.98703 0.65077 0.91124 0.0
C396 C 0.96606 0.64143 0.89866 0.0
H397 H 0.98151 0.64406 0.14734 0.0
H398 H 0.97363 0.64472 0.08266 0.0
C399 C 0.96163 0.63741 0.86145 0.0
C400 C 0.99157 0.653 0.95083 0.0
H401 H 0.98352 0.62415 0.02855 0.0
C402 C 0.00381 0.67337 0.96573 0.0
C403 C 0.98421 0.63502 0.97363 0.0
C404 C 0.97178 0.61272 0.95871 0.0
C405 C 0.00865 0.67625 0.00318 0.0
C406 C 0.00129 0.65825 0.02594 0.0
C407 C 0.98902 0.6379 0.01098 0.0
C408 C 0.00643 0.65994 0.06529 0.0
C409 C 0.02132 0.69847 0.01818 0.0
C410 C 0.02751 0.66839 0.07687 0.0
C411 C 0.0321 0.66804 0.11385 0.0
C412 C 0.01564 0.65907 0.1398 0.0
C413 C 0.99457 0.65103 0.1281 0.0
C414 C 0.99002 0.65142 0.09117 0.0
H415 H 0.02098 0.71031 -0.00051 0.0
H416 H 0.01523 0.69974 0.04537 0.0
H417 H 0.03811 0.70255 0.02152 0.0
H418 H 0.04036 0.67464 0.05718 0.0
H419 H 0.0485 0.67432 0.12192 0.0
H420 H 0.31944 0.95049 0.35322 0.0
H421 H 0.31939 0.95873 0.41796 0.0
H422 H 0.35114 0.0255 0.39283 0.0
H423 H 0.35151 0.01749 0.32802 0.0
H424 H 0.37093 0.01453 0.44696 0.0
H425 H 0.28495 0.9797 0.47581 0.0
H426 H 0.29173 0.96193 0.45326 0.0
H427 H 0.29567 0.98536 0.42999 0.0
C428 C 0.32619 0.96692 0.36135 0.0
C429 C 0.33556 0.98334 0.33545 0.0
C430 C 0.32599 0.97158 0.39834 0.0
C431 C 0.33501 0.9927 0.41002 0.0
C432 C 0.34398 0.00909 0.38423 0.0
H433 H 0.36659 0.04868 0.62799 0.0
H434 H 0.35992 0.04338 0.56228 0.0
C435 C 0.34419 0.00447 0.34723 0.0
C436 C 0.33679 -0.00227 0.44942 0.0
H437 H 0.30794 0.98913 0.52757 0.0
C438 C 0.35718 0.00922 0.46457 0.0
C439 C 0.31878 0.99063 0.47217 0.0
C440 C 0.29653 0.97888 0.457 0.0
C441 C 0.36009 0.01326 0.50218 0.0
C442 C 0.34209 0.00596 0.52504 0.0
C443 C 0.32167 0.99472 0.50985 0.0
C444 C 0.34426 0.00916 0.56501 0.0
C445 C 0.38239 0.02464 0.51729 0.0
C446 C 0.33689 0.99161 0.58831 0.0
C447 C 0.34054 0.99455 0.62589 0.0
C448 C 0.35162 0.01512 0.64074 0.0
C449 C 0.35821 0.03264 0.6174 0.0
C450 C 0.35448 0.02967 0.57985 0.0
H451 H 0.39409 0.02486 0.49746 0.0
H452 H 0.38699 0.04131 0.52358 0.0
H453 H 0.38339 0.01707 0.54296 0.0
H454 H 0.32889 0.97565 0.57729 0.0
H455 H 0.33517 0.98071 0.64312 0.0
H456 H 0.32749 0.34419 0.82635 0.0
H457 H 0.31784 0.34467 0.89024 0.0
H458 H 0.3559 0.31725 0.92271 0.0
H459 H 0.36546 0.31641 0.85891 0.0
H460 H 0.31562 0.29999 0.95908 0.0
H461 H 0.36181 0.38822 0.96215 0.0
H462 H 0.34198 0.37667 0.92698 0.0
H463 H 0.3646 0.37293 0.9259 0.0
C464 C 0.33368 0.33809 0.84701 0.0
C465 C 0.34746 0.3305 0.83758 0.0
C466 C 0.32817 0.33843 0.88347 0.0
C467 C 0.33645 0.33131 0.91108 0.0
C468 C 0.34943 0.32287 0.90169 0.0
H469 H 0.34745 0.33295 0.14339 0.0
H470 H 0.3448 0.32485 0.07822 0.0
C471 C 0.35492 0.32247 0.86524 0.0
C472 C 0.33258 0.33371 0.94995 0.0
H473 H 0.34408 0.37097 0.01612 0.0
C474 C 0.3217 0.31548 0.97159 0.0
C475 C 0.34057 0.35397 0.96602 0.0
C476 C 0.35304 0.37411 0.94424 0.0
C477 C 0.31871 0.31699 0.00915 0.0
C478 C 0.32715 0.33726 0.02535 0.0
C479 C 0.33757 0.35546 0.0035 0.0
C480 C 0.32666 0.34018 0.06525 0.0
C481 C 0.30657 0.29691 0.03112 0.0
C482 C 0.3175 0.35166 0.07947 0.0
C483 C 0.31915 0.35651 0.1167 0.0
C484 C 0.33014 0.35008 0.14029 0.0
C485 C 0.33885 0.33812 0.12603 0.0
C486 C 0.33719 0.3333 0.08881 0.0
H487 H 0.29588 0.28326 0.01349 0.0
H488 H 0.31797 0.29309 0.04437 0.0
H489 H 0.29697 0.2988 0.05286 0.0
H490 H 0.30945 0.35724 0.06161 0.0
H491 H 0.31223 0.36571 0.12679 0.0
H492 H 0.93815 0.31266 0.62631 0.0
H493 H 0.94351 0.30932 0.56118 0.0
H494 H 0.01133 0.34411 0.57711 0.0
H495 H 0.0062 0.34734 0.64223 0.0
H496 H 0.96462 0.34375 0.51522 0.0
H497 H 0.00309 0.2945 0.513 0.0
H498 H 0.98881 0.29596 0.55233 0.0
H499 H 0.01563 0.31665 0.54375 0.0
C500 C 0.95422 0.31934 0.61609 0.0
C501 C 0.97176 0.33036 0.63946 0.0
C502 C 0.95722 0.31736 0.57889 0.0
C503 C 0.97779 0.32621 0.56449 0.0
C504 C 0.99532 0.33675 0.58785 0.0
H505 H 0.04057 0.36385 0.35887 0.0
H506 H 0.02985 0.35413 0.42245 0.0
C507 C 0.99234 0.33874 0.62503 0.0
C508 C 0.98102 0.32643 0.52458 0.0
H509 H 0.00629 0.31416 0.45845 0.0
C510 C 0.97342 0.33699 0.50266 0.0
C511 C 0.9926 0.31766 0.50846 0.0
C512 C 0.00034 0.30538 0.53055 0.0
C513 C 0.97789 0.33984 0.46517 0.0
C514 C 0.98993 0.33154 0.44918 0.0
C515 C -0.00295 0.32048 0.4709 0.0
C516 C -0.00368 0.33539 0.41037 0.0
C517 C 0.9705 0.35254 0.44334 0.0
C518 C 0.98102 0.32754 0.38256 0.0
C519 C 0.98705 0.33316 0.3462 0.0
C520 C 0.00852 0.34661 0.3371 0.0
C521 C 0.0239 0.35358 0.36494 0.0
C522 C 0.01783 0.348 0.40128 0.0
H523 H 0.96536 0.36151 0.46121 0.0
H524 H 0.98331 0.36393 0.42502 0.0
H525 H 0.9568 0.34163 0.42607 0.0
H526 H 0.96437 0.31748 0.38908 0.0
H527 H 0.97483 0.32734 0.32539 0.0
H528 H 0.67541 0.04281 0.85283 0.0
H529 H 0.67618 0.03361 0.9167 0.0
H530 H 0.64576 0.96737 0.88771 0.0
H531 H 0.64465 0.97634 0.8237 0.0
H532 H 0.62529 0.9765 0.94263 0.0
H533 H 0.71118 0.01312 0.97303 0.0
H534 H 0.70416 0.03097 0.9517 0.0
H535 H 0.70086 0.00814 0.92694 0.0
C536 C 0.66916 0.0263 0.85988 0.0
C537 C 0.65985 0.0103 0.83319 0.0
C538 C 0.66979 0.0211 0.89638 0.0
C539 C 0.66129 -0.00015 0.90676 0.0
C540 C 0.65254 0.98388 0.88009 0.0
H541 H 0.62873 0.9443 0.12533 0.0
H542 H 0.63647 0.94892 0.05986 0.0
C543 C 0.65189 0.98905 0.84358 0.0
C544 C 0.65941 0.9942 0.94586 0.0
H545 H 0.68782 0.00353 0.02466 0.0
C546 C 0.63896 0.9821 0.96052 0.0
C547 C 0.67729 0.00168 0.969 0.0
C548 C 0.69963 0.01404 0.95435 0.0
C549 C 0.63583 0.97798 -0.00194 0.0
C550 C 0.6537 0.98585 0.02136 0.0
C551 C 0.67419 -0.00248 0.00662 0.0
C552 C 0.65125 0.98311 0.06136 0.0
C553 C 0.61342 0.96606 0.01265 0.0
C554 C 0.6578 0.00089 0.08394 0.0
C555 C 0.65354 -0.00165 0.12137 0.0
C556 C 0.64263 0.97794 0.13678 0.0
C557 C 0.63694 0.96021 0.11425 0.0
C558 C 0.6413 0.9628 0.07685 0.0
H559 H 0.60166 0.96516 -0.00769 0.0
H560 H 0.60937 0.94963 0.01958 0.0
H561 H 0.61188 0.9737 0.03789 0.0
H562 H 0.66557 0.0167 0.07239 0.0
H563 H 0.65824 0.01233 0.13798 0.0
H564 H 0.6243 0.68183 0.35912 0.0
H565 H 0.63229 0.68398 0.42439 0.0
H566 H 0.66587 0.64987 0.4066 0.0
H567 H 0.65827 0.64789 0.3413 0.0
H568 H 0.61832 0.64868 0.46773 0.0
H569 H 0.70599 0.69768 0.47456 0.0
H570 H 0.69099 0.69708 0.43479 0.0
H571 H 0.69687 0.67616 0.44255 0.0
C572 C 0.63369 0.67508 0.36897 0.0
C573 C 0.64056 0.66458 0.34503 0.0
C574 C 0.63826 0.67637 0.40625 0.0
C575 C 0.64988 0.66732 0.42018 0.0
C576 C 0.6573 0.65738 0.39625 0.0
H577 H 0.67065 0.62626 0.6269 0.0
H578 H 0.67089 0.63638 0.56312 0.0
C579 C 0.65277 0.65611 0.35896 0.0
C580 C 0.65221 0.66615 0.46008 0.0
H581 H 0.68851 0.67713 0.52783 0.0
C582 C 0.63366 0.65518 0.48101 0.0
C583 C 0.67225 0.67454 0.47714 0.0
C584 C 0.69267 0.6872 0.45617 0.0
C585 C 0.63458 0.65167 0.51841 0.0
C586 C 0.65461 0.65969 0.53535 0.0
C587 C 0.6732 0.67104 0.51463 0.0
C588 C 0.65642 0.65552 0.57425 0.0
C589 C 0.61411 0.63869 0.53916 0.0
C590 C 0.6487 0.66343 0.60156 0.0
C591 C 0.64841 0.65761 0.63797 0.0
C592 C 0.65597 0.64386 0.64765 0.0
C593 C 0.66459 0.63676 0.62034 0.0
C594 C 0.66482 0.64257 0.58392 0.0
H595 H 0.60033 0.62997 0.52055 0.0
H596 H 0.6152 0.62705 0.55731 0.0
H597 H 0.61102 0.64937 0.55652 0.0
H598 H 0.64246 0.67373 0.59458 0.0
H599 H 0.64186 0.66354 0.65837 0.0
H600 H 0.06694 0.60708 0.22709 0.0
H601 H 0.06664 0.57338 0.22366 0.0
H602 H 0.00402 0.54117 0.27118 0.0
H603 H 0.00414 0.57476 0.27496 0.0
H604 H 0.03374 0.53065 0.30258 0.0
H605 H 0.03035 0.52456 0.1509 0.0
H606 H 0.05119 0.54917 0.16907 0.0
H607 H 0.02397 0.54214 0.1757 0.0
C608 C 0.05309 0.59285 0.23684 0.0
C609 C 0.03551 0.59362 0.25115 0.0
C610 C 0.05292 0.5736 0.23469 0.0
C611 C 0.0352 0.55481 0.24673 0.0
C612 C 0.0178 0.55553 0.26159 0.0
H613 H 0.00303 0.42487 0.20647 0.0
H614 H 0.0036 0.45866 0.2112 0.0
C615 C 0.0179 0.57474 0.26366 0.0
C616 C 0.03484 0.53437 0.2441 0.0
H617 H 0.03497 0.49893 0.18302 0.0
C618 C 0.034 0.52368 0.27648 0.0
C619 C 0.03494 0.52528 0.20996 0.0
C620 C 0.03498 0.53574 0.17435 0.0
C621 C 0.03354 0.50418 0.27563 0.0
C622 C 0.03413 0.49533 0.24151 0.0
C623 C 0.03469 0.50589 0.20912 0.0
C624 C 0.03392 0.47497 0.23883 0.0
C625 C 0.0321 0.49305 0.31117 0.0
C626 C 0.05092 0.47308 0.25246 0.0
C627 C 0.05068 0.45382 0.24977 0.0
C628 C 0.03344 0.4361 0.23332 0.0
C629 C 0.01652 0.43815 0.21941 0.0
C630 C 0.01682 0.45745 0.22203 0.0
H631 H 0.02698 0.49947 0.33414 0.0
H632 H 0.0208 0.47576 0.30877 0.0
H633 H 0.04794 0.49525 0.31801 0.0
H634 H 0.06442 0.48655 0.265 0.0
H635 H 0.06401 0.45283 0.26065 0.0
H636 H 0.42115 -0.00269 0.77535 0.0
H637 H 0.45445 -0.00326 0.77136 0.0
H638 H 0.48577 0.06004 0.72705 0.0
H639 H 0.45262 0.06081 0.73073 0.0
H640 H 0.49278 0.02983 0.68767 0.0
H641 H 0.50784 0.03079 0.83694 0.0
H642 H 0.48194 0.01089 0.82162 0.0
H643 H 0.48964 0.03842 0.81828 0.0
C644 C 0.43513 0.01116 0.76487 0.0
C645 C 0.43421 0.02913 0.75344 0.0
C646 C 0.45415 0.01081 0.76277 0.0
C647 C 0.47256 0.02843 0.74925 0.0
C648 C 0.47171 0.04633 0.73767 0.0
H649 H 0.60367 0.05999 0.75816 0.0
H650 H 0.56961 0.05888 0.7629 0.0
C651 C 0.45275 0.04673 0.73987 0.0
C652 C 0.49266 0.02809 0.74642 0.0
H653 H 0.53126 0.02666 0.79727 0.0
C654 C 0.5012 0.0291 0.71158 0.0
C655 C 0.50363 0.02733 0.77775 0.0
C656 C 0.49545 0.02696 0.81584 0.0
C657 C 0.52045 0.02926 0.70719 0.0
C658 C 0.53126 0.0282 0.73849 0.0
C659 C 0.52279 0.02731 0.77335 0.0
C660 C 0.55173 0.0286 0.73564 0.0
C661 C 0.52929 0.03099 0.66921 0.0
C662 C 0.55286 0.01181 0.71903 0.0
C663 C 0.57229 0.01234 0.7163 0.0
C664 C 0.59094 0.0297 0.73018 0.0
C665 C 0.58966 0.04642 0.74706 0.0
C666 C 0.57021 0.04581 0.74988 0.0
H667 H 0.52135 0.03603 0.64889 0.0
H668 H 0.54661 0.04247 0.66873 0.0
H669 H 0.52687 0.01529 0.66068 0.0
H670 H 0.53868 -0.00175 0.70833 0.0
H671 H 0.57269 -0.00083 0.70326 0.0
H672 H 0.53476 0.60829 0.2458 0.0
H673 H 0.50147 0.5744 0.24875 0.0
H674 H 0.53588 0.5409 0.23416 0.0
H675 H 0.56927 0.57465 0.231 0.0
H676 H 0.48621 0.54003 0.19094 0.0
H677 H 0.49775 0.51585 0.32948 0.0
H678 H 0.51132 0.54318 0.31469 0.0
H679 H 0.51973 0.52533 0.29814 0.0
C680 C 0.53529 0.59373 0.24335 0.0
C681 C 0.55469 0.59418 0.23823 0.0
C682 C 0.51626 0.57441 0.24497 0.0
C683 C 0.51633 0.55526 0.24195 0.0
C684 C 0.5356 0.55559 0.23688 0.0
H685 H 0.41986 0.42279 0.25493 0.0
H686 H 0.45291 0.45675 0.25139 0.0
C687 C 0.55463 0.57488 0.23497 0.0
C688 C 0.49619 0.53488 0.24341 0.0
H689 H 0.46775 0.49099 0.29621 0.0
C690 C 0.48207 0.52929 0.21395 0.0
C691 C 0.49105 0.52098 0.2734 0.0
C692 C 0.50564 0.52658 0.30593 0.0
C693 C 0.46295 0.50986 0.21341 0.0
C694 C 0.45765 0.49599 0.24362 0.0
C695 C 0.47184 0.50166 0.2731 0.0
C696 C 0.43752 0.47546 0.2452 0.0
C697 C 0.44892 0.50417 0.18007 0.0
C698 C 0.4179 0.47474 0.24328 0.0
C699 C 0.39897 0.45534 0.245 0.0
C700 C 0.39931 0.43631 0.24922 0.0
C701 C 0.41902 0.43713 0.25166 0.0
C702 C 0.43793 0.45653 0.24966 0.0
H703 H 0.45792 0.51338 0.15571 0.0
H704 H 0.44149 0.487 0.17364 0.0
H705 H 0.43609 0.50787 0.18536 0.0
H706 H 0.41721 0.48921 0.24079 0.0
H707 H 0.38408 0.45529 0.24339 0.0
H708 H 0.98634 0.56811 0.69803 0.0
H709 H 0.98508 0.53394 0.70142 0.0
H710 H 0.92388 0.50632 0.75387 0.0
H711 H 0.92494 0.54039 0.75076 0.0
H712 H 0.95463 0.49839 0.78916 0.0
H713 H 0.94633 0.47962 0.64059 0.0
H714 H 0.96759 0.50554 0.65277 0.0
H715 H 0.94058 0.499 0.66022 0.0
C716 C 0.97255 0.55476 0.71015 0.0
C717 C 0.95572 0.55698 0.72407 0.0
C718 C 0.97183 0.53524 0.71189 0.0
C719 C 0.95429 0.51762 0.72753 0.0
C720 C 0.9375 0.51976 0.74154 0.0
H721 H 0.92334 0.38594 0.72325 0.0
H722 H 0.92265 0.41912 0.71876 0.0
C723 C 0.93814 0.53923 0.73968 0.0
C724 C 0.95374 0.49711 0.73033 0.0
H725 H 0.95247 0.45715 0.67941 0.0
C726 C 0.95409 0.48931 0.76521 0.0
C727 C 0.95283 0.48529 0.69899 0.0
C728 C 0.95163 0.49263 0.66098 0.0
C729 C 0.95397 0.47012 0.76958 0.0
C730 C 0.95365 0.45858 0.73822 0.0
C731 C 0.95287 0.46616 0.70336 0.0
C732 C 0.95413 0.43859 0.74109 0.0
C733 C 0.95402 0.46221 0.80767 0.0
C734 C 0.97217 0.43867 0.7548 0.0
C735 C 0.97267 0.41979 0.75731 0.0
C736 C 0.95511 0.40047 0.74614 0.0
C737 C 0.9371 0.40051 0.73223 0.0
C738 C 0.93667 0.41943 0.72957 0.0
H739 H 0.94959 0.47042 0.82857 0.0
H740 H 0.94285 0.44487 0.80961 0.0
H741 H 0.97017 0.46515 0.81418 0.0
H742 H 0.98591 0.45338 0.76335 0.0
H743 H 0.98682 0.42035 0.76806 0.0
H744 H 0.41924 0.99451 0.19697 0.0
H745 H 0.45304 0.99489 0.20022 0.0
H746 H 0.42183 0.93371 0.25264 0.0
H747 H 0.38798 0.93314 0.24969 0.0
H748 H 0.4601 0.96554 0.2877 0.0
H749 H 0.47041 0.95758 0.13886 0.0
H750 H 0.46482 0.97817 0.15158 0.0
H751 H 0.44509 0.95092 0.15879 0.0
C752 C 0.41952 0.98109 0.20906 0.0
C753 C 0.40088 0.96377 0.223 0.0
C754 C 0.43883 0.98131 0.21074 0.0
C755 C 0.43982 0.96424 0.22634 0.0
C756 C 0.42132 0.94699 0.24038 0.0
H757 H 0.53962 0.93265 0.22102 0.0
H758 H 0.50631 0.93312 0.21658 0.0
C759 C 0.402 0.9467 0.23859 0.0
C760 C 0.46025 0.96453 0.22888 0.0
H761 H 0.49895 0.96352 0.17753 0.0
C762 C 0.46864 0.96512 0.26366 0.0
C763 C 0.47116 0.96378 0.19741 0.0
C764 C 0.4624 0.96241 0.15949 0.0
C765 C 0.48782 0.96515 0.26782 0.0
C766 C 0.49891 0.96475 0.23634 0.0
C767 C 0.49043 0.96398 0.20156 0.0
C768 C 0.51915 0.96469 0.239 0.0
C769 C 0.49593 0.96524 0.30582 0.0
C770 C 0.53739 0.98239 0.25278 0.0
C771 C 0.55648 0.98222 0.25531 0.0
C772 C 0.55763 0.96432 0.24407 0.0
C773 C 0.53929 0.94666 0.23005 0.0
C774 C 0.52025 0.9469 0.22741 0.0
H775 H 0.48348 0.96117 0.32692 0.0
H776 H 0.50183 0.95384 0.30777 0.0
H777 H 0.50938 0.9813 0.31203 0.0
H778 H 0.53688 0.99637 0.26142 0.0
H779 H 0.5703 0.99611 0.26612 0.0
H780 H 0.57033 0.5661 0.77692 0.0
H781 H 0.53719 0.53219 0.77263 0.0
H782 H 0.5705 0.50403 0.72087 0.0
H783 H 0.6037 0.53785 0.72475 0.0
H784 H 0.5321 0.49546 0.68552 0.0
H785 H 0.52139 0.4787 0.83463 0.0
H786 H 0.52558 0.50427 0.82138 0.0
H787 H 0.54642 0.49815 0.81498 0.0
C788 C 0.57065 0.5527 0.76466 0.0
C789 C 0.58971 0.55469 0.7513 0.0
C790 C 0.55171 0.53332 0.76241 0.0
C791 C 0.5515 0.5156 0.74685 0.0
C792 C 0.5704 0.51755 0.73311 0.0
H793 H 0.45315 0.38362 0.75741 0.0
H794 H 0.48627 0.41758 0.76076 0.0
C795 C 0.58935 0.53688 0.73542 0.0
C796 C 0.53152 0.49504 0.74438 0.0
H797 H 0.49309 0.45543 0.796 0.0
C798 C 0.52355 0.48667 0.70963 0.0
C799 C 0.5206 0.48358 0.77594 0.0
C800 C 0.52897 0.49148 0.81389 0.0
C801 C 0.50473 0.46718 0.70558 0.0
C802 C 0.49355 0.45595 0.73714 0.0
C803 C 0.50166 0.46419 0.77189 0.0
C804 C 0.47351 0.43546 0.73468 0.0
C805 C 0.49713 0.45858 0.66763 0.0
C806 C 0.45536 0.43436 0.71919 0.0
C807 C 0.43639 0.415 0.71724 0.0
C808 C 0.43524 0.39638 0.73087 0.0
C809 C 0.45348 0.39761 0.74655 0.0
C810 C 0.47241 0.41699 0.74856 0.0
H811 H 0.50989 0.46659 0.64692 0.0
H812 H 0.4912 0.44126 0.66656 0.0
H813 H 0.48384 0.4612 0.66008 0.0
H814 H 0.45582 0.44853 0.70887 0.0
H815 H 0.42264 0.41465 0.70512 0.0
H816 H 0.11217 0.36943 0.28195 0.0
H817 H 0.14853 0.37585 0.28228 0.0
H818 H 0.17113 0.4387 0.23946 0.0
H819 H 0.13478 0.43245 0.23906 0.0
H820 H 0.183 0.41265 0.19849 0.0
H821 H 0.20113 0.41454 0.34624 0.0
H822 H 0.1759 0.39257 0.33291 0.0
H823 H 0.18043 0.41913 0.32928 0.0
C824 C 0.12492 0.38477 0.27326 0.0
C825 C 0.12063 0.40042 0.26039 0.0
C826 C 0.14568 0.38844 0.27363 0.0
C827 C 0.16247 0.4078 0.26116 0.0
C828 C 0.15835 0.42371 0.24938 0.0
H829 H 0.29303 0.43141 0.26437 0.0
H830 H 0.26283 0.43751 0.26746 0.0
C831 C 0.1376 0.42011 0.24924 0.0
C832 C 0.18389 0.41052 0.25715 0.0
H833 H 0.22332 0.40886 0.30475 0.0
C834 C 0.192 0.41216 0.22173 0.0
C835 C 0.1956 0.41004 0.28755 0.0
C836 C 0.18795 0.40917 0.3262 0.0
C837 C 0.2111 0.41226 0.2158 0.0
C838 C 0.22219 0.41057 0.24607 0.0
C839 C 0.21464 0.41001 0.2816 0.0
C840 C 0.24085 0.40785 0.24135 0.0
C841 C 0.21907 0.41376 0.17721 0.0
C842 C 0.2384 0.38921 0.22547 0.0
C843 C 0.25551 0.38561 0.22386 0.0
C844 C 0.27538 0.40063 0.23808 0.0
C845 C 0.27793 0.41958 0.25305 0.0
C846 C 0.26073 0.42308 0.25492 0.0
H847 H 0.21186 0.42031 0.15825 0.0
H848 H 0.23662 0.42388 0.17605 0.0
H849 H 0.21482 0.39767 0.16746 0.0
H850 H 0.22306 0.37715 0.21532 0.0
H851 H 0.25305 0.37085 0.21222 0.0
H852 H 0.85337 0.29421 0.76031 0.0
H853 H 0.81711 0.26393 0.76256 0.0
H854 H 0.83915 0.2235 0.71787 0.0
H855 H 0.87534 0.25356 0.71543 0.0
H856 H 0.79997 0.21893 0.68632 0.0
H857 H 0.79989 0.21458 0.83848 0.0
H858 H 0.80703 0.23977 0.8181 0.0
H859 H 0.82411 0.22878 0.81241 0.0
C860 C 0.85045 0.27891 0.75062 0.0
C861 C 0.86721 0.27621 0.73791 0.0
C862 C 0.82977 0.26166 0.75207 0.0
C863 C 0.8256 0.24153 0.74075 0.0
C864 C 0.84214 0.23896 0.7268 0.0
H865 H 0.7363 0.11275 0.77439 0.0
H866 H 0.76573 0.14929 0.77463 0.0
C867 C 0.86279 0.25613 0.72549 0.0
C868 C 0.80423 0.22281 0.74457 0.0
H869 H 0.77008 0.18795 0.80769 0.0
C870 C 0.79321 0.21228 0.7128 0.0
C871 C 0.79569 0.21422 0.77925 0.0
C872 C 0.80725 0.22476 0.81413 0.0
C873 C 0.77407 0.19296 0.71476 0.0
C874 C 0.76577 0.18411 0.74943 0.0
C875 C 0.77648 0.19494 0.78123 0.0
C876 C 0.74724 0.16259 0.75298 0.0
C877 C 0.76339 0.18161 0.6798 0.0
C878 C 0.72701 0.15817 0.74171 0.0
C879 C 0.71012 0.13728 0.7416 0.0
C880 C 0.71329 0.12058 0.75268 0.0
C881 C 0.73338 0.12526 0.76553 0.0
C882 C 0.75019 0.14611 0.76576 0.0
H883 H 0.77348 0.18915 0.65539 0.0
H884 H 0.75943 0.16478 0.68095 0.0
H885 H 0.74834 0.18182 0.67635 0.0
H886 H 0.72443 0.17078 0.73213 0.0
H887 H 0.6948 0.13417 0.73165 0.0
H888 H 0.55648 0.69994 0.22947 0.0
H889 H 0.55019 0.73005 0.22837 0.0
H890 H 0.61313 0.77082 0.27081 0.0
H891 H 0.61955 0.74094 0.27212 0.0
H892 H 0.57916 0.7757 0.30376 0.0
H893 H 0.58108 0.77883 0.15144 0.0
H894 H 0.56319 0.75384 0.17259 0.0
H895 H 0.5913 0.76465 0.17698 0.0
C896 C 0.56888 0.71527 0.23895 0.0
C897 C 0.58857 0.71814 0.25062 0.0
C898 C 0.56528 0.73243 0.23816 0.0
C899 C 0.5813 0.75262 0.24912 0.0
C900 C 0.60061 0.75532 0.26217 0.0
H901 H 0.62068 0.88098 0.21162 0.0
H902 H 0.61356 0.84446 0.21354 0.0
C903 C 0.60425 0.73825 0.26283 0.0
C904 C 0.57857 0.77131 0.2455 0.0
H905 H 0.5785 0.80575 0.1824 0.0
C906 C 0.57865 0.78214 0.2773 0.0
C907 C 0.57812 0.77964 0.21084 0.0
C908 C 0.57853 0.76879 0.17589 0.0
C909 C 0.57896 0.80153 0.27533 0.0
C910 C 0.57904 0.81012 0.24066 0.0
C911 C 0.57829 0.79896 0.20888 0.0
C912 C 0.58218 0.83169 0.23688 0.0
C913 C 0.58027 0.81322 0.31024 0.0
C914 C 0.56665 0.83641 0.2486 0.0
C915 C 0.57064 0.85729 0.24748 0.0
C916 C 0.59026 0.8737 0.23468 0.0
C917 C 0.60546 0.86872 0.22177 0.0
C918 C 0.60141 0.84787 0.22277 0.0
H919 H 0.58302 0.80578 0.33454 0.0
H920 H 0.59327 0.82997 0.30847 0.0
H921 H 0.56517 0.81327 0.31433 0.0
H922 H 0.55162 0.82403 0.25921 0.0
H923 H 0.55861 0.86065 0.25752 0.0
H924 H 0.87661 0.62298 0.77358 0.0
H925 H 0.84009 0.6161 0.77314 0.0
H926 H 0.81889 0.5545 0.72549 0.0
H927 H 0.8554 0.5612 0.72586 0.0
H928 H 0.80676 0.58115 0.68687 0.0
H929 H 0.78721 0.57503 0.83467 0.0
H930 H 0.81236 0.59759 0.82284 0.0
H931 H 0.80833 0.57132 0.81686 0.0
C932 C 0.86414 0.60782 0.76359 0.0
C933 C 0.86887 0.59265 0.74969 0.0
C934 C 0.84329 0.60389 0.76351 0.0
C935 C 0.82685 0.58474 0.74956 0.0
C936 C 0.8314 0.56932 0.73656 0.0
H937 H 0.69568 0.55905 0.75522 0.0
H938 H 0.72607 0.55322 0.75594 0.0
C939 C 0.85224 0.57317 0.73685 0.0
C940 C 0.80531 0.58171 0.74568 0.0
H941 H 0.76498 0.58115 0.79421 0.0
C942 C 0.79744 0.58082 0.71031 0.0
C943 C 0.79318 0.58109 0.77633 0.0
C944 C 0.80057 0.58111 0.81486 0.0
C945 C 0.77817 0.58041 0.70477 0.0
C946 C 0.76664 0.58102 0.7354 0.0
C947 C 0.77397 0.58081 0.77079 0.0
C948 C 0.74779 0.58346 0.73141 0.0
C949 C 0.77046 0.57973 0.66625 0.0
C950 C 0.75 0.60232 0.71708 0.0
C951 C 0.73277 0.60576 0.71681 0.0
C952 C 0.71303 0.59037 0.73088 0.0
C953 C 0.71068 0.57117 0.74407 0.0
C954 C 0.72799 0.56782 0.74459 0.0
H955 H 0.77795 0.57377 0.64662 0.0
H956 H 0.75294 0.5695 0.66456 0.0
H957 H 0.77462 0.59599 0.65779 0.0
H958 H 0.76527 0.6147 0.70729 0.0
H959 H 0.73508 0.62071 0.70653 0.0
H960 H 0.26454 0.88026 0.29548 0.0
H961 H 0.23393 0.84434 0.29744 0.0
H962 H 0.25717 0.82784 0.20135 0.0
H963 H 0.28838 0.86326 0.20078 0.0
H964 H 0.20428 0.82772 0.25077 0.0
H965 H 0.23907 0.7756 0.25817 0.0
H966 H 0.25473 0.80383 0.26545 0.0
H967 H 0.24953 0.79305 0.21974 0.0
C968 C 0.26332 0.86876 0.27536 0.0
C969 C 0.2788 0.87445 0.24807 0.0
C970 C 0.24583 0.84827 0.27642 0.0
C971 C 0.2433 0.83323 0.24979 0.0
C972 C 0.25902 0.83885 0.2229 0.0
H973 H 0.11774 0.73336 0.1868 0.0
H974 H 0.15302 0.76498 0.18892 0.0
C975 C 0.27679 0.85918 0.22241 0.0
C976 C 0.22324 0.81256 0.2479 0.0
H977 H 0.20292 0.75928 0.23693 0.0
C978 C 0.20403 0.81274 0.24822 0.0
C979 C 0.2228 0.79294 0.24495 0.0
C980 C 0.24265 0.79132 0.24747 0.0
C981 C 0.18446 0.794 0.24519 0.0
C982 C 0.18407 0.77454 0.23983 0.0
C983 C 0.20324 0.77425 0.24023 0.0
C984 C 0.16386 0.75429 0.23505 0.0
C985 C 0.16444 0.7953 0.2487 0.0
C986 C 0.15883 0.73714 0.25843 0.0
C987 C 0.13895 0.71879 0.25643 0.0
C988 C 0.1237 0.71745 0.23135 0.0
C989 C 0.12913 0.73414 0.20671 0.0
C990 C 0.14919 0.75227 0.20814 0.0
H991 H 0.16734 0.80968 0.26407 0.0
H992 H 0.15873 0.79626 0.22104 0.0
H993 H 0.15171 0.78117 0.26287 0.0
H994 H 0.16996 0.73825 0.27919 0.0
H995 H 0.13516 0.70614 0.27577 0.0
H996 H 0.37269 0.2517 0.7826 0.0
H997 H 0.37999 0.22239 0.78342 0.0
H998 H 0.44232 0.26329 0.73877 0.0
H999 H 0.43516 0.29278 0.73779 0.0
H1000 H 0.41743 0.22535 0.6991 0.0
H1001 H 0.41915 0.20956 0.84688 0.0
H1002 H 0.3966 0.21189 0.83377 0.0
H1003 H 0.42286 0.23447 0.82977 0.0
C1004 C 0.38811 0.25459 0.7736 0.0
C1005 C 0.40333 0.27452 0.76003 0.0
C1006 C 0.39229 0.23786 0.77428 0.0
C1007 C 0.41176 0.24077 0.76148 0.0
C1008 C 0.42726 0.26081 0.74899 0.0
H1009 H 0.43316 0.13235 0.76795 0.0
H1010 H 0.44045 0.16904 0.77058 0.0
C1011 C 0.42314 0.27762 0.7485 0.0
C1012 C 0.41492 0.22233 0.75775 0.0
H1013 H 0.41288 0.18123 0.80572 0.0
C1014 C 0.41683 0.21589 0.72244 0.0
C1015 C 0.41434 0.21017 0.78826 0.0
C1016 C 0.41334 0.21696 0.82686 0.0
C1017 C 0.41692 0.19689 0.71669 0.0
C1018 C 0.4149 0.18403 0.74702 0.0
C1019 C 0.41426 0.19108 0.78249 0.0
C1020 C 0.41165 0.16245 0.74243 0.0
C1021 C 0.41868 0.19047 0.67818 0.0
C1022 C 0.3931 0.14673 0.72558 0.0
C1023 C 0.38883 0.1258 0.7242 0.0
C1024 C 0.40306 0.12026 0.73968 0.0
C1025 C 0.42194 0.13617 0.75565 0.0
C1026 C 0.42612 0.1571 0.75725 0.0
H1027 H 0.426 0.20437 0.65955 0.0
H1028 H 0.42824 0.18243 0.67737 0.0
H1029 H 0.40257 0.17923 0.66771 0.0
H1030 H 0.38157 0.15052 0.71452 0.0
H1031 H 0.37414 0.1139 0.71178 0.0
loop_
_geom_bond_atom_site_label_1
_geom_bond_atom_site_label_2
_geom_bond_distance
_geom_bond_site_symmetry_2
_ccdc_geom_bond_type
C0 O1 1.306 . S
C0 O3 1.160 . S
O1 C0 1.306 . S
O1 Cd2 2.228 . S
Cd2 O1 2.228 . S
Cd2 O6 2.273 . S
Cd2 O10 2.277 . S
O3 C0 1.160 . S
O3 Cd4 2.203 . S
Cd4 O3 2.203 . S
Cd4 O6 2.411 . S
Cd4 O7 2.333 . S
Cd4 O8 2.352 . S
Cd4 O12 2.277 . S
Cd4 O13 2.356 . S
C5 O10 1.209 . S
C5 O12 1.226 . S
O6 Cd2 2.273 . S
O6 Cd4 2.411 . S
O6 C9 1.320 . S
O7 Cd4 2.333 . S
O7 C9 1.214 . S
O8 Cd4 2.352 . S
O8 C11 1.258 . S
C9 O6 1.320 . S
C9 O7 1.214 . S
O10 Cd2 2.277 . S
O10 C5 1.209 . S
C11 O8 1.258 . S
C11 O13 1.282 . S
O12 Cd4 2.277 . S
O12 C5 1.226 . S
O13 Cd4 2.356 . S
O13 C11 1.282 . S
C14 O15 1.306 . S
C14 O17 1.160 . S
O15 C14 1.306 . S
O15 Cd16 2.228 . S
Cd16 O15 2.228 . S
Cd16 O20 2.273 . S
Cd16 O24 2.277 . S
O17 C14 1.160 . S
O17 Cd18 2.203 . S
Cd18 O17 2.203 . S
Cd18 O20 2.411 . S
Cd18 O21 2.333 . S
Cd18 O22 2.352 . S
Cd18 O26 2.277 . S
Cd18 O27 2.356 . S
C19 O24 1.209 . S
C19 O26 1.226 . S
O20 Cd16 2.273 . S
O20 Cd18 2.411 . S
O20 C23 1.320 . S
O21 Cd18 2.333 . S
O21 C23 1.214 . S
O22 Cd18 2.352 . S
O22 C25 1.258 . S
C23 O20 1.320 . S
C23 O21 1.214 . S
O24 Cd16 2.277 . S
O24 C19 1.209 . S
C25 O22 1.258 . S
C25 O27 1.282 . S
O26 Cd18 2.277 . S
O26 C19 1.226 . S
O27 Cd18 2.356 . S
O27 C25 1.282 . S
C28 O29 1.306 . S
C28 O31 1.160 . S
O29 C28 1.306 . S
O29 Cd30 2.228 . S
Cd30 O29 2.228 . S
Cd30 O34 2.273 . S
Cd30 O38 2.277 . S
O31 C28 1.160 . S
O31 Cd32 2.203 . S
Cd32 O31 2.203 . S
Cd32 O34 2.411 . S
Cd32 O35 2.333 . S
Cd32 O36 2.352 . S
Cd32 O40 2.277 . S
Cd32 O41 2.356 . S
C33 O38 1.209 . S
C33 O40 1.226 . S
O34 Cd30 2.273 . S
O34 Cd32 2.411 . S
O34 C37 1.320 . S
O35 Cd32 2.333 . S
O35 C37 1.214 . S
O36 Cd32 2.352 . S
O36 C39 1.258 . S
C37 O34 1.320 . S
C37 O35 1.214 . S
O38 Cd30 2.277 . S
O38 C33 1.209 . S
C39 O36 1.258 . S
C39 O41 1.282 . S
O40 Cd32 2.277 . S
O40 C33 1.226 . S
O41 Cd32 2.356 . S
O41 C39 1.282 . S
C42 O43 1.306 . S
C42 O45 1.160 . S
O43 C42 1.306 . S
O43 Cd44 2.228 . S
Cd44 O43 2.228 . S
Cd44 O48 2.273 . S
Cd44 O52 2.277 . S
O45 C42 1.160 . S
O45 Cd46 2.203 . S
Cd46 O45 2.203 . S
Cd46 O48 2.411 . S
Cd46 O49 2.333 . S
Cd46 O50 2.352 . S
Cd46 O54 2.277 . S
Cd46 O55 2.356 . S
C47 O52 1.209 . S
C47 O54 1.226 . S
O48 Cd44 2.273 . S
O48 Cd46 2.411 . S
O48 C51 1.320 . S
O49 Cd46 2.333 . S
O49 C51 1.214 . S
O50 Cd46 2.352 . S
O50 C53 1.258 . S
C51 O48 1.320 . S
C51 O49 1.214 . S
O52 Cd44 2.277 . S
O52 C47 1.209 . S
C53 O50 1.258 . S
C53 O55 1.282 . S
O54 Cd46 2.277 . S
O54 C47 1.226 . S
O55 Cd46 2.356 . S
O55 C53 1.282 . S
C56 O57 1.306 . S
C56 O59 1.160 . S
O57 C56 1.306 . S
O57 Cd58 2.228 . S
Cd58 O57 2.228 . S
Cd58 O62 2.273 . S
Cd58 O66 2.277 . S
O59 C56 1.160 . S
O59 Cd60 2.203 . S
Cd60 O59 2.203 . S
Cd60 O62 2.411 . S
Cd60 O63 2.333 . S
Cd60 O64 2.352 . S
Cd60 O68 2.277 . S
Cd60 O69 2.356 . S
C61 O66 1.209 . S
C61 O68 1.226 . S
O62 Cd58 2.273 . S
O62 Cd60 2.411 . S
O62 C65 1.320 . S
O63 Cd60 2.333 . S
O63 C65 1.214 . S
O64 Cd60 2.352 . S
O64 C67 1.258 . S
C65 O62 1.320 . S
C65 O63 1.214 . S
O66 Cd58 2.277 . S
O66 C61 1.209 . S
C67 O64 1.258 . S
C67 O69 1.282 . S
O68 Cd60 2.277 . S
O68 C61 1.226 . S
O69 Cd60 2.356 . S
O69 C67 1.282 . S
C70 O71 1.306 . S
C70 O73 1.160 . S
O71 C70 1.306 . S
O71 Cd72 2.228 . S
Cd72 O71 2.228 . S
Cd72 O76 2.273 . S
Cd72 O80 2.277 . S
O73 C70 1.160 . S
O73 Cd74 2.203 . S
Cd74 O73 2.203 . S
Cd74 O76 2.411 . S
Cd74 O77 2.333 . S
Cd74 O78 2.352 . S
Cd74 O82 2.277 . S
Cd74 O83 2.356 . S
C75 O80 1.209 . S
C75 O82 1.226 . S
O76 Cd72 2.273 . S
O76 Cd74 2.411 . S
O76 C79 1.320 . S
O77 Cd74 2.333 . S
O77 C79 1.214 . S
O78 Cd74 2.352 . S
O78 C81 1.258 . S
C79 O76 1.320 . S
C79 O77 1.214 . S
O80 Cd72 2.277 . S
O80 C75 1.209 . S
C81 O78 1.258 . S
C81 O83 1.282 . S
O82 Cd74 2.277 . S
O82 C75 1.226 . S
O83 Cd74 2.356 . S
O83 C81 1.282 . S
C84 O85 1.306 . S
C84 O87 1.160 . S
O85 C84 1.306 . S
O85 Cd86 2.228 . S
Cd86 O85 2.228 . S
Cd86 O90 2.273 . S
Cd86 O94 2.277 . S
O87 C84 1.160 . S
O87 Cd88 2.203 . S
Cd88 O87 2.203 . S
Cd88 O90 2.411 . S
Cd88 O91 2.333 . S
Cd88 O92 2.352 . S
Cd88 O96 2.277 . S
Cd88 O97 2.356 . S
C89 O94 1.209 . S
C89 O96 1.226 . S
O90 Cd86 2.273 . S
O90 Cd88 2.411 . S
O90 C93 1.320 . S
O91 Cd88 2.333 . S
O91 C93 1.214 . S
O92 Cd88 2.352 . S
O92 C95 1.258 . S
C93 O90 1.320 . S
C93 O91 1.214 . S
O94 Cd86 2.277 . S
O94 C89 1.209 . S
C95 O92 1.258 . S
C95 O97 1.282 . S
O96 Cd88 2.277 . S
O96 C89 1.226 . S
O97 Cd88 2.356 . S
O97 C95 1.282 . S
C98 O99 1.306 . S
C98 O101 1.160 . S
O99 C98 1.306 . S
O99 Cd100 2.228 . S
Cd100 O99 2.228 . S
Cd100 O104 2.273 . S
Cd100 O108 2.277 . S
O101 C98 1.160 . S
O101 Cd102 2.203 . S
Cd102 O101 2.203 . S
Cd102 O104 2.411 . S
Cd102 O105 2.333 . S
Cd102 O106 2.352 . S
Cd102 O110 2.277 . S
Cd102 O111 2.356 . S
C103 O108 1.209 . S
C103 O110 1.226 . S
O104 Cd100 2.273 . S
O104 Cd102 2.411 . S
O104 C107 1.320 . S
O105 Cd102 2.333 . S
O105 C107 1.214 . S
O106 Cd102 2.352 . S
O106 C109 1.258 . S
C107 O104 1.320 . S
C107 O105 1.214 . S
O108 Cd100 2.277 . S
O108 C103 1.209 . S
C109 O106 1.258 . S
C109 O111 1.282 . S
O110 Cd102 2.277 . S
O110 C103 1.226 . S
O111 Cd102 2.356 . S
O111 C109 1.282 . S
C112 O113 1.306 . S
C112 O115 1.160 . S
O113 C112 1.306 . S
O113 Cd114 2.228 . S
Cd114 O113 2.228 . S
Cd114 O118 2.273 . S
Cd114 O122 2.277 . S
O115 C112 1.160 . S
O115 Cd116 2.203 . S
Cd116 O115 2.203 . S
Cd116 O118 2.411 . S
Cd116 O119 2.333 . S
Cd116 O120 2.352 . S
Cd116 O124 2.277 . S
Cd116 O125 2.356 . S
C117 O122 1.209 . S
C117 O124 1.226 . S
O118 Cd114 2.273 . S
O118 Cd116 2.411 . S
O118 C121 1.320 . S
O119 Cd116 2.333 . S
O119 C121 1.214 . S
O120 Cd116 2.352 . S
O120 C123 1.258 . S
C121 O118 1.320 . S
C121 O119 1.214 . S
O122 Cd114 2.277 . S
O122 C117 1.209 . S
C123 O120 1.258 . S
C123 O125 1.282 . S
O124 Cd116 2.277 . S
O124 C117 1.226 . S
O125 Cd116 2.356 . S
O125 C123 1.282 . S
C126 O127 1.306 . S
C126 O129 1.160 . S
O127 C126 1.306 . S
O127 Cd128 2.228 . S
Cd128 O127 2.228 . S
Cd128 O132 2.273 . S
Cd128 O136 2.277 . S
O129 C126 1.160 . S
O129 Cd130 2.203 . S
Cd130 O129 2.203 . S
Cd130 O132 2.411 . S
Cd130 O133 2.333 . S
Cd130 O134 2.352 . S
Cd130 O138 2.277 . S
Cd130 O139 2.356 . S
C131 O136 1.209 . S
C131 O138 1.226 . S
O132 Cd128 2.273 . S
O132 Cd130 2.411 . S
O132 C135 1.320 . S
O133 Cd130 2.333 . S
O133 C135 1.214 . S
O134 Cd130 2.352 . S
O134 C137 1.258 . S
C135 O132 1.320 . S
C135 O133 1.214 . S
O136 Cd128 2.277 . S
O136 C131 1.209 . S
C137 O134 1.258 . S
C137 O139 1.282 . S
O138 Cd130 2.277 . S
O138 C131 1.226 . S
O139 Cd130 2.356 . S
O139 C137 1.282 . S
C140 O141 1.306 . S
C140 O143 1.160 . S
O141 C140 1.306 . S
O141 Cd142 2.228 . S
Cd142 O141 2.228 . S
Cd142 O146 2.273 . S
Cd142 O150 2.277 . S
O143 C140 1.160 . S
O143 Cd144 2.203 . S
Cd144 O143 2.203 . S
Cd144 O146 2.411 . S
Cd144 O147 2.333 . S
Cd144 O148 2.352 . S
Cd144 O152 2.277 . S
Cd144 O153 2.356 . S
C145 O150 1.209 . S
C145 O152 1.226 . S
O146 Cd142 2.273 . S
O146 Cd144 2.411 . S
O146 C149 1.320 . S
O147 Cd144 2.333 . S
O147 C149 1.214 . S
O148 Cd144 2.352 . S
O148 C151 1.258 . S
C149 O146 1.320 . S
C149 O147 1.214 . S
O150 Cd142 2.277 . S
O150 C145 1.209 . S
C151 O148 1.258 . S
C151 O153 1.282 . S
O152 Cd144 2.277 . S
O152 C145 1.226 . S
O153 Cd144 2.356 . S
O153 C151 1.282 . S
C154 O155 1.306 . S
C154 O157 1.160 . S
O155 C154 1.306 . S
O155 Cd156 2.228 . S
Cd156 O155 2.228 . S
Cd156 O160 2.273 . S
Cd156 O164 2.277 . S
O157 C154 1.160 . S
O157 Cd158 2.203 . S
Cd158 O157 2.203 . S
Cd158 O160 2.411 . S
Cd158 O161 2.333 . S
Cd158 O162 2.352 . S
Cd158 O166 2.277 . S
Cd158 O167 2.356 . S
C159 O164 1.209 . S
C159 O166 1.226 . S
O160 Cd156 2.273 . S
O160 Cd158 2.411 . S
O160 C163 1.320 . S
O161 Cd158 2.333 . S
O161 C163 1.214 . S
O162 Cd158 2.352 . S
O162 C165 1.258 . S
C163 O160 1.320 . S
C163 O161 1.214 . S
O164 Cd156 2.277 . S
O164 C159 1.209 . S
C165 O162 1.258 . S
C165 O167 1.282 . S
O166 Cd158 2.277 . S
O166 C159 1.226 . S
O167 Cd158 2.356 . S
O167 C165 1.282 . S
H168 C176 0.929 1_655 S
H169 C178 0.966 . S
H170 C180 0.930 . S
H171 C183 0.929 . S
H172 C186 0.930 . S
H173 C188 0.960 . S
H174 C188 0.960 . S
H175 C188 0.960 . S
C176 H168 0.929 1_455 S
C176 C177 1.377 . S
C176 C178 1.374 1_455 S
C177 C176 1.377 . S
C177 C183 1.390 . S
C178 H169 0.966 . S
C178 C176 1.374 1_655 S
C178 C179 1.347 1_655 S
C179 C178 1.347 1_455 S
C179 C180 1.400 . S
C179 C184 1.490 . S
C180 H170 0.930 . S
C180 C179 1.400 . S
C180 C183 1.386 . S
H181 C197 0.930 1_455 S
H182 C198 0.928 1_455 S
C183 H171 0.929 . S
C183 C177 1.390 . S
C183 C180 1.386 . S
C184 C179 1.490 . S
C184 C186 1.395 1_455 S
C184 C187 1.403 . S
H185 C191 0.930 . S
C186 H172 0.930 . S
C186 C184 1.395 1_655 S
C186 C189 1.403 1_554 S
C187 C184 1.403 . S
C187 C188 1.524 . S
C187 C191 1.400 1_454 S
C188 H173 0.960 . S
C188 H174 0.960 . S
C188 H175 0.960 . S
C188 C187 1.524 . S
C189 C186 1.403 1_556 S
C189 C190 1.392 . S
C189 C193 1.495 . S
C190 C189 1.392 . S
C190 C191 1.385 . S
C190 C192 1.478 . S
C191 H185 0.930 . S
C191 C187 1.400 1_656 S
C191 C190 1.385 . S
C192 C190 1.478 . S
C192 C194 1.381 . S
C192 C198 1.385 . S
C193 C189 1.495 . S
C193 H199 0.959 . S
C193 H200 0.961 . S
C193 H201 0.960 . S
C194 C192 1.381 . S
C194 C195 1.394 . S
C194 H202 0.930 . S
C195 C194 1.394 . S
C195 C196 1.383 . S
C195 H203 0.929 . S
C196 C195 1.383 . S
C196 C197 1.377 . S
C197 H181 0.930 1_655 S
C197 C196 1.377 . S
C197 C198 1.380 . S
C198 H182 0.928 1_655 S
C198 C192 1.385 . S
C198 C197 1.380 . S
H199 C193 0.959 . S
H200 C193 0.961 . S
H201 C193 0.960 . S
H202 C194 0.930 . S
H203 C195 0.929 . S
H204 C212 0.929 . S
H205 C214 0.936 . S
H206 C216 0.930 . S
H207 C219 0.929 . S
H208 C222 0.930 . S
H209 C224 0.960 . S
H210 C224 0.960 . S
H211 C224 0.960 . S
C212 H204 0.929 . S
C212 C213 1.377 . S
C212 C214 1.384 . S
C213 C212 1.377 . S
C213 C219 1.390 . S
C214 H205 0.936 . S
C214 C212 1.384 . S
C214 C215 1.372 . S
C215 C214 1.372 . S
C215 C216 1.400 . S
C215 C220 1.490 . S
C216 H206 0.930 . S
C216 C215 1.400 . S
C216 C219 1.386 . S
H217 C233 0.930 . S
H218 C234 0.931 . S
C219 H207 0.929 . S
C219 C213 1.390 . S
C219 C216 1.386 . S
C220 C215 1.490 . S
C220 C222 1.395 1_565 S
C220 C223 1.403 . S
H221 C227 0.930 . S
C222 H208 0.930 . S
C222 C220 1.395 1_545 S
C222 C225 1.403 . S
C223 C220 1.403 . S
C223 C224 1.524 . S
C223 C227 1.400 . S
C224 H209 0.960 . S
C224 H210 0.960 . S
C224 H211 0.960 . S
C224 C223 1.524 . S
C225 C222 1.403 . S
C225 C226 1.392 . S
C225 C229 1.495 . S
C226 C225 1.392 . S
C226 C227 1.385 1_545 S
C226 C228 1.478 . S
C227 H221 0.930 . S
C227 C223 1.400 . S
C227 C226 1.385 1_565 S
C228 C226 1.478 . S
C228 C230 1.381 . S
C228 C234 1.383 . S
C229 C225 1.495 . S
C229 H235 0.959 . S
C229 H236 0.961 . S
C229 H237 0.960 . S
C230 C228 1.381 . S
C230 C231 1.394 . S
C230 H238 0.930 . S
C231 C230 1.394 . S
C231 C232 1.383 . S
C231 H239 0.929 . S
C232 C231 1.383 . S
C232 C233 1.377 . S
C233 H217 0.930 . S
C233 C232 1.377 . S
C233 C234 1.379 . S
C234 H218 0.931 . S
C234 C228 1.383 . S
C234 C233 1.379 . S
H235 C229 0.959 . S
H236 C229 0.961 . S
H237 C229 0.960 . S
H238 C230 0.930 . S
H239 C231 0.929 . S
H240 C248 0.929 . S
H241 C250 0.930 . S
H242 C252 0.930 . S
H243 C255 0.929 . S
H244 C258 0.930 . S
H245 C260 0.960 . S
H246 C260 0.960 . S
H247 C260 0.960 . S
C248 H240 0.929 . S
C248 C249 1.377 . S
C248 C250 1.384 . S
C249 C248 1.377 . S
C249 C255 1.390 . S
C250 H241 0.930 . S
C250 C248 1.384 . S
C250 C251 1.372 . S
C251 C250 1.372 . S
C251 C252 1.400 . S
C251 C256 1.490 . S
C252 H242 0.930 . S
C252 C251 1.400 . S
C252 C255 1.386 . S
H253 C269 0.930 . S
H254 C270 0.931 . S
C255 H243 0.929 . S
C255 C249 1.390 . S
C255 C252 1.386 . S
C256 C251 1.490 . S
C256 C258 1.395 . S
C256 C259 1.403 . S
H257 C263 0.930 . S
C258 H244 0.930 . S
C258 C256 1.395 . S
C258 C261 1.403 1_554 S
C259 C256 1.403 . S
C259 C260 1.524 . S
C259 C263 1.400 1_554 S
C260 H245 0.960 . S
C260 H246 0.960 . S
C260 H247 0.960 . S
C260 C259 1.524 . S
C261 C258 1.403 1_556 S
C261 C262 1.392 . S
C261 C265 1.495 . S
C262 C261 1.392 . S
C262 C263 1.385 . S
C262 C264 1.478 . S
C263 H257 0.930 . S
C263 C259 1.400 1_556 S
C263 C262 1.385 . S
C264 C262 1.478 . S
C264 C266 1.381 . S
C264 C270 1.383 . S
C265 C261 1.495 . S
C265 H271 0.959 . S
C265 H272 0.961 . S
C265 H273 0.960 . S
C266 C264 1.381 . S
C266 C267 1.394 . S
C266 H274 0.930 . S
C267 C266 1.394 . S
C267 C268 1.383 . S
C267 H275 0.929 . S
C268 C267 1.383 . S
C268 C269 1.377 . S
C269 H253 0.930 . S
C269 C268 1.377 . S
C269 C270 1.379 . S
C270 H254 0.931 . S
C270 C264 1.383 . S
C270 C269 1.379 . S
H271 C265 0.959 . S
H272 C265 0.961 . S
H273 C265 0.960 . S
H274 C266 0.930 . S
H275 C267 0.929 . S
H276 C284 0.929 . S
H277 C286 0.930 . S
H278 C288 0.923 1_655 S
H279 C291 0.929 1_655 S
H280 C294 0.930 . S
H281 C296 0.960 . S
H282 C296 0.960 1_455 S
H283 C296 0.960 . S
C284 H276 0.929 . S
C284 C285 1.377 . S
C284 C286 1.384 . S
C285 C284 1.377 . S
C285 C291 1.390 . S
C286 H277 0.930 . S
C286 C284 1.384 . S
C286 C287 1.372 . S
C287 C286 1.372 . S
C287 C288 1.404 . S
C287 C292 1.490 . S
C288 H278 0.923 1_455 S
C288 C287 1.404 . S
C288 C291 1.388 . S
H289 C305 0.930 . S
H290 C306 0.931 . S
C291 H279 0.929 1_455 S
C291 C285 1.390 . S
C291 C288 1.388 . S
C292 C287 1.490 . S
C292 C294 1.395 . S
C292 C295 1.407 1_455 S
H293 C299 0.930 . S
C294 H280 0.930 . S
C294 C292 1.395 . S
C294 C297 1.403 . S
C295 C292 1.407 1_655 S
C295 C296 1.505 . S
C295 C299 1.416 . S
C296 H281 0.960 . S
C296 H282 0.960 1_655 S
C296 H283 0.960 . S
C296 C295 1.505 . S
C297 C294 1.403 . S
C297 C298 1.392 1_455 S
C297 C301 1.495 . S
C298 C297 1.392 1_655 S
C298 C299 1.385 . S
C298 C300 1.478 . S
C299 H293 0.930 . S
C299 C295 1.416 . S
C299 C298 1.385 . S
C300 C298 1.478 . S
C300 C302 1.381 1_655 S
C300 C306 1.383 . S
C301 C297 1.495 . S
C301 H307 0.959 . S
C301 H308 0.961 1_455 S
C301 H309 0.960 . S
C302 C300 1.381 1_455 S
C302 C303 1.394 1_455 S
C302 H310 0.930 . S
C303 C302 1.394 1_655 S
C303 C304 1.383 . S
C303 H311 0.929 1_655 S
C304 C303 1.383 . S
C304 C305 1.377 . S
C305 H289 0.930 . S
C305 C304 1.377 . S
C305 C306 1.379 . S
C306 H290 0.931 . S
C306 C300 1.383 . S
C306 C305 1.379 . S
H307 C301 0.959 . S
H308 C301 0.961 1_655 S
H309 C301 0.960 . S
H310 C302 0.930 . S
H311 C303 0.929 1_455 S
H312 C320 0.929 . S
H313 C322 0.930 . S
H314 C324 0.930 . S
H315 C327 0.929 . S
H316 C330 0.930 . S
H317 C332 0.960 1_554 S
H318 C332 0.960 . S
H319 C332 0.960 . S
C320 H312 0.929 . S
C320 C321 1.377 . S
C320 C322 1.384 . S
C321 C320 1.377 . S
C321 C327 1.390 . S
C322 H313 0.930 . S
C322 C320 1.384 . S
C322 C323 1.372 . S
C323 C322 1.372 . S
C323 C324 1.400 . S
C323 C328 1.490 . S
C324 H314 0.930 . S
C324 C323 1.400 . S
C324 C327 1.386 . S
H325 C341 0.930 . S
H326 C342 0.931 . S
C327 H315 0.929 . S
C327 C321 1.390 . S
C327 C324 1.386 . S
C328 C323 1.490 . S
C328 C330 1.395 1_545 S
C328 C331 1.403 . S
H329 C335 0.930 . S
C330 H316 0.930 . S
C330 C328 1.395 1_565 S
C330 C333 1.403 1_556 S
C331 C328 1.403 . S
C331 C332 1.524 . S
C331 C335 1.400 1_556 S
C332 H317 0.960 1_556 S
C332 H318 0.960 . S
C332 H319 0.960 . S
C332 C331 1.524 . S
C333 C330 1.403 1_554 S
C333 C334 1.392 . S
C333 C337 1.495 . S
C334 C333 1.392 . S
C334 C335 1.385 1_565 S
C334 C336 1.478 . S
C335 H329 0.930 . S
C335 C331 1.400 1_554 S
C335 C334 1.385 1_545 S
C336 C334 1.478 . S
C336 C338 1.381 . S
C336 C342 1.383 . S
C337 C333 1.495 . S
C337 H343 0.959 1_554 S
C337 H344 0.961 . S
C337 H345 0.960 . S
C338 C336 1.381 . S
C338 C339 1.394 . S
C338 H346 0.930 . S
C339 C338 1.394 . S
C339 C340 1.383 . S
C339 H347 0.929 . S
C340 C339 1.383 . S
C340 C341 1.377 . S
C341 H325 0.930 . S
C341 C340 1.377 . S
C341 C342 1.379 . S
C342 H326 0.931 . S
C342 C336 1.383 . S
C342 C341 1.379 . S
H343 C337 0.959 1_556 S
H344 C337 0.961 . S
H345 C337 0.960 . S
H346 C338 0.930 . S
H347 C339 0.929 . S
H348 C356 0.929 . S
H349 C358 0.930 . S
H350 C360 0.930 . S
H351 C363 0.929 . S
H352 C366 0.930 . S
H353 C368 0.960 . S
H354 C368 0.960 . S
H355 C368 0.960 . S
C356 H348 0.929 . S
C356 C357 1.377 . S
C356 C358 1.384 . S
C357 C356 1.377 . S
C357 C363 1.390 . S
C358 H349 0.930 . S
C358 C356 1.384 . S
C358 C359 1.372 . S
C359 C358 1.372 . S
C359 C360 1.400 . S
C359 C364 1.490 . S
C360 H350 0.930 . S
C360 C359 1.400 . S
C360 C363 1.386 . S
H361 C377 0.930 . S
H362 C378 0.931 . S
C363 H351 0.929 . S
C363 C357 1.390 . S
C363 C360 1.386 . S
C364 C359 1.490 . S
C364 C366 1.395 . S
C364 C367 1.403 . S
H365 C371 0.930 . S
C366 H352 0.930 . S
C366 C364 1.395 . S
C366 C369 1.403 . S
C367 C364 1.403 . S
C367 C368 1.524 . S
C367 C371 1.400 . S
C368 H353 0.960 . S
C368 H354 0.960 . S
C368 H355 0.960 . S
C368 C367 1.524 . S
C369 C366 1.403 . S
C369 C370 1.392 . S
C369 C373 1.495 . S
C370 C369 1.392 . S
C370 C371 1.385 . S
C370 C372 1.478 . S
C371 H365 0.930 . S
C371 C367 1.400 . S
C371 C370 1.385 . S
C372 C370 1.478 . S
C372 C374 1.381 . S
C372 C378 1.383 . S
C373 C369 1.495 . S
C373 H379 0.959 . S
C373 H380 0.961 . S
C373 H381 0.960 . S
C374 C372 1.381 . S
C374 C375 1.394 . S
C374 H382 0.930 . S
C375 C374 1.394 . S
C375 C376 1.383 . S
C375 H383 0.929 . S
C376 C375 1.383 . S
C376 C377 1.377 . S
C377 H361 0.930 . S
C377 C376 1.377 . S
C377 C378 1.379 . S
C378 H362 0.931 . S
C378 C372 1.383 . S
C378 C377 1.379 . S
H379 C373 0.959 . S
H380 C373 0.961 . S
H381 C373 0.960 . S
H382 C374 0.930 . S
H383 C375 0.929 . S
H384 C392 0.929 . S
H385 C394 0.930 1_455 S
H386 C396 0.930 . S
H387 C399 0.929 . S
H388 C402 0.930 . S
H389 C404 0.960 1_554 S
H390 C404 0.960 . S
H391 C404 0.960 . S
C392 H384 0.929 . S
C392 C393 1.377 . S
C392 C394 1.384 . S
C393 C392 1.377 . S
C393 C399 1.390 . S
C394 H385 0.930 1_655 S
C394 C392 1.384 . S
C394 C395 1.372 . S
C395 C394 1.372 . S
C395 C396 1.400 . S
C395 C400 1.490 . S
C396 H386 0.930 . S
C396 C395 1.400 . S
C396 C399 1.386 . S
H397 C413 0.930 . S
H398 C414 0.931 . S
C399 H387 0.929 . S
C399 C393 1.390 . S
C399 C396 1.386 . S
C400 C395 1.490 . S
C400 C402 1.395 1_655 S
C400 C403 1.403 . S
H401 C407 0.930 . S
C402 H388 0.930 . S
C402 C400 1.395 1_455 S
C402 C405 1.403 1_556 S
C403 C400 1.403 . S
C403 C404 1.524 . S
C403 C407 1.400 1_556 S
C404 H389 0.960 1_556 S
C404 H390 0.960 . S
C404 H391 0.960 . S
C404 C403 1.524 . S
C405 C402 1.403 1_554 S
C405 C406 1.392 . S
C405 C409 1.495 . S
C406 C405 1.392 . S
C406 C407 1.385 1_455 S
C406 C408 1.478 . S
C407 H401 0.930 . S
C407 C403 1.400 1_554 S
C407 C406 1.385 1_655 S
C408 C406 1.478 . S
C408 C410 1.381 . S
C408 C414 1.383 . S
C409 C405 1.495 . S
C409 H415 0.959 1_554 S
C409 H416 0.961 . S
C409 H417 0.960 . S
C410 C408 1.381 . S
C410 C411 1.394 . S
C410 H418 0.930 . S
C411 C410 1.394 . S
C411 C412 1.383 . S
C411 H419 0.929 . S
C412 C411 1.383 . S
C412 C413 1.377 . S
C413 H397 0.930 . S
C413 C412 1.377 . S
C413 C414 1.379 . S
C414 H398 0.931 . S
C414 C408 1.383 . S
C414 C413 1.379 . S
H415 C409 0.959 1_556 S
H416 C409 0.961 . S
H417 C409 0.960 . S
H418 C410 0.930 . S
H419 C411 0.929 . S
H420 C428 0.929 . S
H421 C430 0.930 . S
H422 C432 0.930 1_545 S
H423 C435 0.922 1_545 S
H424 C438 0.930 . S
H425 C440 0.960 . S
H426 C440 0.960 . S
H427 C440 0.960 . S
C428 H420 0.929 . S
C428 C429 1.377 . S
C428 C430 1.384 . S
C429 C428 1.377 . S
C429 C435 1.390 . S
C430 H421 0.930 . S
C430 C428 1.384 . S
C430 C431 1.372 . S
C431 C430 1.372 . S
C431 C432 1.400 . S
C431 C436 1.490 . S
C432 H422 0.930 1_565 S
C432 C431 1.400 . S
C432 C435 1.386 . S
H433 C449 0.930 . S
H434 C450 0.931 . S
C435 H423 0.922 1_565 S
C435 C429 1.390 . S
C435 C432 1.386 . S
C436 C431 1.490 . S
C436 C438 1.395 . S
C436 C439 1.403 . S
H437 C443 0.930 . S
C438 H424 0.930 . S
C438 C436 1.395 . S
C438 C441 1.403 1_565 S
C439 C436 1.403 . S
C439 C440 1.524 . S
C439 C443 1.400 1_565 S
C440 H425 0.960 . S
C440 H426 0.960 . S
C440 H427 0.960 . S
C440 C439 1.524 . S
C441 C438 1.403 1_545 S
C441 C442 1.392 . S
C441 C445 1.495 . S
C442 C441 1.392 . S
C442 C443 1.385 . S
C442 C444 1.478 . S
C443 H437 0.930 . S
C443 C439 1.400 1_545 S
C443 C442 1.385 . S
C444 C442 1.478 . S
C444 C446 1.422 . S
C444 C450 1.383 . S
C445 C441 1.495 . S
C445 H451 0.959 . S
C445 H452 0.961 . S
C445 H453 0.960 1_545 S
C446 C444 1.422 . S
C446 C447 1.412 . S
C446 H454 0.872 1_545 S
C447 C446 1.412 . S
C447 C448 1.383 . S
C447 H455 0.929 1_545 S
C448 C447 1.383 . S
C448 C449 1.377 . S
C449 H433 0.930 . S
C449 C448 1.377 . S
C449 C450 1.379 . S
C450 H434 0.931 . S
C450 C444 1.383 . S
C450 C449 1.379 . S
H451 C445 0.959 . S
H452 C445 0.961 . S
H453 C445 0.960 1_565 S
H454 C446 0.872 1_565 S
H455 C447 0.929 1_565 S
H456 C464 0.929 . S
H457 C466 0.930 . S
H458 C468 0.930 . S
H459 C471 0.929 . S
H460 C474 0.930 . S
H461 C476 0.960 . S
H462 C476 0.960 . S
H463 C476 0.960 . S
C464 H456 0.929 . S
C464 C465 1.377 . S
C464 C466 1.384 . S
C465 C464 1.377 . S
C465 C471 1.390 . S
C466 H457 0.930 . S
C466 C464 1.384 . S
C466 C467 1.372 . S
C467 C466 1.372 . S
C467 C468 1.400 . S
C467 C472 1.490 . S
C468 H458 0.930 . S
C468 C467 1.400 . S
C468 C471 1.386 . S
H469 C485 0.930 . S
H470 C486 0.931 . S
C471 H459 0.929 . S
C471 C465 1.390 . S
C471 C468 1.386 . S
C472 C467 1.490 . S
C472 C474 1.395 . S
C472 C475 1.403 . S
H473 C479 0.930 . S
C474 H460 0.930 . S
C474 C472 1.395 . S
C474 C477 1.403 1_556 S
C475 C472 1.403 . S
C475 C476 1.524 . S
C475 C479 1.400 1_556 S
C476 H461 0.960 . S
C476 H462 0.960 . S
C476 H463 0.960 . S
C476 C475 1.524 . S
C477 C474 1.403 1_554 S
C477 C478 1.392 . S
C477 C481 1.495 . S
C478 C477 1.392 . S
C478 C479 1.385 . S
C478 C480 1.478 . S
C479 H473 0.930 . S
C479 C475 1.400 1_554 S
C479 C478 1.385 . S
C480 C478 1.478 . S
C480 C482 1.381 . S
C480 C486 1.383 . S
C481 C477 1.495 . S
C481 H487 0.959 . S
C481 H488 0.961 . S
C481 H489 0.960 . S
C482 C480 1.381 . S
C482 C483 1.394 . S
C482 H490 0.930 . S
C483 C482 1.394 . S
C483 C484 1.383 . S
C483 H491 0.929 . S
C484 C483 1.383 . S
C484 C485 1.377 . S
C485 H469 0.930 . S
C485 C484 1.377 . S
C485 C486 1.379 . S
C486 H470 0.931 . S
C486 C480 1.383 . S
C486 C485 1.379 . S
H487 C481 0.959 . S
H488 C481 0.961 . S
H489 C481 0.960 . S
H490 C482 0.930 . S
H491 C483 0.929 . S
H492 C500 0.929 . S
H493 C502 0.930 . S
H494 C504 0.969 . S
H495 C507 0.929 1_455 S
H496 C510 0.930 . S
H497 C512 0.960 . S
H498 C512 0.960 . S
H499 C512 0.960 . S
C500 H492 0.929 . S
C500 C501 1.377 . S
C500 C502 1.384 . S
C501 C500 1.377 . S
C501 C507 1.390 . S
C502 H493 0.930 . S
C502 C500 1.384 . S
C502 C503 1.372 . S
C503 C502 1.372 . S
C503 C504 1.374 1_655 S
C503 C508 1.490 . S
C504 H494 0.969 . S
C504 C503 1.374 1_455 S
C504 C507 1.375 1_455 S
H505 C521 0.930 . S
H506 C522 0.931 . S
C507 H495 0.929 1_655 S
C507 C501 1.390 . S
C507 C504 1.375 1_655 S
C508 C503 1.490 . S
C508 C510 1.395 . S
C508 C511 1.403 1_655 S
H509 C515 0.930 . S
C510 H496 0.930 . S
C510 C508 1.395 . S
C510 C513 1.403 . S
C511 C508 1.403 1_455 S
C511 C512 1.524 . S
C511 C515 1.400 . S
C512 H497 0.960 . S
C512 H498 0.960 . S
C512 H499 0.960 . S
C512 C511 1.524 . S
C513 C510 1.403 . S
C513 C514 1.392 1_655 S
C513 C517 1.495 . S
C514 C513 1.392 1_455 S
C514 C515 1.385 . S
C514 C516 1.478 . S
C515 H509 0.930 . S
C515 C511 1.400 . S
C515 C514 1.385 . S
C516 C514 1.478 . S
C516 C518 1.381 1_455 S
C516 C522 1.383 . S
C517 C513 1.495 . S
C517 H523 0.959 . S
C517 H524 0.961 . S
C517 H525 0.960 . S
C518 C516 1.381 1_655 S
C518 C519 1.394 1_655 S
C518 H526 0.930 . S
C519 C518 1.394 1_455 S
C519 C520 1.383 . S
C519 H527 0.929 1_455 S
C520 C519 1.383 . S
C520 C521 1.377 . S
C521 H505 0.930 . S
C521 C520 1.377 . S
C521 C522 1.379 . S
C522 H506 0.931 . S
C522 C516 1.383 . S
C522 C521 1.379 . S
H523 C517 0.959 . S
H524 C517 0.961 . S
H525 C517 0.960 . S
H526 C518 0.930 . S
H527 C519 0.929 1_655 S
H528 C536 0.929 . S
H529 C538 0.930 . S
H530 C540 0.930 . S
H531 C543 0.929 . S
H532 C546 0.930 . S
H533 C548 0.960 1_554 S
H534 C548 0.960 . S
H535 C548 0.960 . S
C536 H528 0.929 . S
C536 C537 1.377 . S
C536 C538 1.384 . S
C537 C536 1.377 . S
C537 C543 1.390 . S
C538 H529 0.930 . S
C538 C536 1.384 . S
C538 C539 1.372 . S
C539 C538 1.372 . S
C539 C540 1.400 . S
C539 C544 1.490 . S
C540 H530 0.930 . S
C540 C539 1.400 . S
C540 C543 1.386 . S
H541 C557 0.930 . S
H542 C558 0.931 . S
C543 H531 0.929 . S
C543 C537 1.390 . S
C543 C540 1.386 . S
C544 C539 1.490 . S
C544 C546 1.395 1_545 S
C544 C547 1.403 . S
H545 C551 0.930 . S
C546 H532 0.930 . S
C546 C544 1.395 1_565 S
C546 C549 1.403 1_556 S
C547 C544 1.403 . S
C547 C548 1.524 . S
C547 C551 1.400 1_556 S
C548 H533 0.960 1_556 S
C548 H534 0.960 . S
C548 H535 0.960 . S
C548 C547 1.524 . S
C549 C546 1.403 1_554 S
C549 C550 1.392 . S
C549 C553 1.495 . S
C550 C549 1.392 . S
C550 C551 1.385 1_565 S
C550 C552 1.478 . S
C551 H545 0.930 . S
C551 C547 1.400 1_554 S
C551 C550 1.385 1_545 S
C552 C550 1.478 . S
C552 C554 1.381 . S
C552 C558 1.383 . S
C553 C549 1.495 . S
C553 H559 0.959 1_554 S
C553 H560 0.961 . S
C553 H561 0.960 . S
C554 C552 1.381 . S
C554 C555 1.394 . S
C554 H562 0.930 . S
C555 C554 1.394 . S
C555 C556 1.383 . S
C555 H563 0.929 . S
C556 C555 1.383 . S
C556 C557 1.377 . S
C557 H541 0.930 . S
C557 C556 1.377 . S
C557 C558 1.379 . S
C558 H542 0.931 . S
C558 C552 1.383 . S
C558 C557 1.379 . S
H559 C553 0.959 1_556 S
H560 C553 0.961 . S
H561 C553 0.960 . S
H562 C554 0.930 . S
H563 C555 0.929 . S
H564 C572 0.929 . S
H565 C574 0.930 . S
H566 C576 0.930 . S
H567 C579 0.929 . S
H568 C582 0.930 . S
H569 C584 0.960 . S
H570 C584 0.960 . S
H571 C584 0.960 . S
C572 H564 0.929 . S
C572 C573 1.377 . S
C572 C574 1.384 . S
C573 C572 1.377 . S
C573 C579 1.390 . S
C574 H565 0.930 . S
C574 C572 1.384 . S
C574 C575 1.372 . S
C575 C574 1.372 . S
C575 C576 1.400 . S
C575 C580 1.490 . S
C576 H566 0.930 . S
C576 C575 1.400 . S
C576 C579 1.386 . S
H577 C593 0.930 . S
H578 C594 0.931 . S
C579 H567 0.929 . S
C579 C573 1.390 . S
C579 C576 1.386 . S
C580 C575 1.490 . S
C580 C582 1.395 . S
C580 C583 1.403 . S
H581 C587 0.930 . S
C582 H568 0.930 . S
C582 C580 1.395 . S
C582 C585 1.403 . S
C583 C580 1.403 . S
C583 C584 1.524 . S
C583 C587 1.400 . S
C584 H569 0.960 . S
C584 H570 0.960 . S
C584 H571 0.960 . S
C584 C583 1.524 . S
C585 C582 1.403 . S
C585 C586 1.392 . S
C585 C589 1.495 . S
C586 C585 1.392 . S
C586 C587 1.385 . S
C586 C588 1.478 . S
C587 H581 0.930 . S
C587 C583 1.400 . S
C587 C586 1.385 . S
C588 C586 1.478 . S
C588 C590 1.381 . S
C588 C594 1.383 . S
C589 C585 1.495 . S
C589 H595 0.959 . S
C589 H596 0.961 . S
C589 H597 0.960 . S
C590 C588 1.381 . S
C590 C591 1.394 . S
C590 H598 0.930 . S
C591 C590 1.394 . S
C591 C592 1.383 . S
C591 H599 0.929 . S
C592 C591 1.383 . S
C592 C593 1.377 . S
C593 H577 0.930 . S
C593 C592 1.377 . S
C593 C594 1.379 . S
C594 H578 0.931 . S
C594 C588 1.383 . S
C594 C593 1.379 . S
H595 C589 0.959 . S
H596 C589 0.961 . S
H597 C589 0.960 . S
H598 C590 0.930 . S
H599 C591 0.929 . S
H600 C608 0.929 . S
H601 C610 0.930 . S
H602 C612 0.930 . S
H603 C615 0.929 . S
H604 C618 0.930 . S
H605 C620 0.971 . S
H606 C620 0.960 . S
H607 C620 0.960 . S
C608 H600 0.929 . S
C608 C609 1.377 . S
C608 C610 1.384 . S
C609 C608 1.377 . S
C609 C615 1.390 . S
C610 H601 0.930 . S
C610 C608 1.384 . S
C610 C611 1.372 . S
C611 C610 1.372 . S
C611 C612 1.400 . S
C611 C616 1.490 . S
C612 H602 0.930 . S
C612 C611 1.400 . S
C612 C615 1.386 . S
H613 C629 0.930 . S
H614 C630 0.931 . S
C615 H603 0.929 . S
C615 C609 1.390 . S
C615 C612 1.386 . S
C616 C611 1.490 . S
C616 C618 1.395 . S
C616 C619 1.403 . S
H617 C623 0.930 . S
C618 H604 0.930 . S
C618 C616 1.395 . S
C618 C621 1.403 . S
C619 C616 1.403 . S
C619 C620 1.524 . S
C619 C623 1.400 . S
C620 H605 0.971 . S
C620 H606 0.960 . S
C620 H607 0.960 . S
C620 C619 1.524 . S
C621 C618 1.403 . S
C621 C622 1.392 . S
C621 C625 1.495 . S
C622 C621 1.392 . S
C622 C623 1.385 . S
C622 C624 1.478 . S
C623 H617 0.930 . S
C623 C619 1.400 . S
C623 C622 1.385 . S
C624 C622 1.478 . S
C624 C626 1.381 . S
C624 C630 1.383 . S
C625 C621 1.495 . S
C625 H631 0.959 . S
C625 H632 0.961 . S
C625 H633 0.960 . S
C626 C624 1.381 . S
C626 C627 1.394 . S
C626 H634 0.930 . S
C627 C626 1.394 . S
C627 C628 1.383 . S
C627 H635 0.929 . S
C628 C627 1.383 . S
C628 C629 1.377 . S
C629 H613 0.930 . S
C629 C628 1.377 . S
C629 C630 1.379 . S
C630 H614 0.931 . S
C630 C624 1.383 . S
C630 C629 1.379 . S
H631 C625 0.959 . S
H632 C625 0.961 . S
H633 C625 0.960 . S
H634 C626 0.930 . S
H635 C627 0.929 . S
H636 C644 0.929 . S
H637 C646 0.930 . S
H638 C648 0.930 . S
H639 C651 0.929 . S
H640 C654 0.930 . S
H641 C656 0.960 . S
H642 C656 0.960 . S
H643 C656 0.960 . S
C644 H636 0.929 . S
C644 C645 1.377 . S
C644 C646 1.384 . S
C645 C644 1.377 . S
C645 C651 1.390 . S
C646 H637 0.930 . S
C646 C644 1.384 . S
C646 C647 1.372 . S
C647 C646 1.372 . S
C647 C648 1.400 . S
C647 C652 1.490 . S
C648 H638 0.930 . S
C648 C647 1.400 . S
C648 C651 1.386 . S
H649 C665 0.930 . S
H650 C666 0.931 . S
C651 H639 0.929 . S
C651 C645 1.390 . S
C651 C648 1.386 . S
C652 C647 1.490 . S
C652 C654 1.395 . S
C652 C655 1.403 . S
H653 C659 0.930 . S
C654 H640 0.930 . S
C654 C652 1.395 . S
C654 C657 1.403 . S
C655 C652 1.403 . S
C655 C656 1.524 . S
C655 C659 1.400 . S
C656 H641 0.960 . S
C656 H642 0.960 . S
C656 H643 0.960 . S
C656 C655 1.524 . S
C657 C654 1.403 . S
C657 C658 1.392 . S
C657 C661 1.495 . S
C658 C657 1.392 . S
C658 C659 1.385 . S
C658 C660 1.478 . S
C659 H653 0.930 . S
C659 C655 1.400 . S
C659 C658 1.385 . S
C660 C658 1.478 . S
C660 C662 1.381 . S
C660 C666 1.383 . S
C661 C657 1.495 . S
C661 H667 0.959 . S
C661 H668 0.961 . S
C661 H669 0.960 . S
C662 C660 1.381 . S
C662 C663 1.394 . S
C662 H670 0.930 . S
C663 C662 1.394 . S
C663 C664 1.383 . S
C663 H671 0.929 . S
C664 C663 1.383 . S
C664 C665 1.377 . S
C665 H649 0.930 . S
C665 C664 1.377 . S
C665 C666 1.379 . S
C666 H650 0.931 . S
C666 C660 1.383 . S
C666 C665 1.379 . S
H667 C661 0.959 . S
H668 C661 0.961 . S
H669 C661 0.960 . S
H670 C662 0.930 . S
H671 C663 0.929 . S
H672 C680 0.929 . S
H673 C682 0.930 . S
H674 C684 0.930 . S
H675 C687 0.929 . S
H676 C690 0.930 . S
H677 C692 0.960 . S
H678 C692 0.960 . S
H679 C692 0.960 . S
C680 H672 0.929 . S
C680 C681 1.377 . S
C680 C682 1.384 . S
C681 C680 1.377 . S
C681 C687 1.390 . S
C682 H673 0.930 . S
C682 C680 1.384 . S
C682 C683 1.372 . S
C683 C682 1.372 . S
C683 C684 1.400 . S
C683 C688 1.490 . S
C684 H674 0.930 . S
C684 C683 1.400 . S
C684 C687 1.386 . S
H685 C701 0.930 . S
H686 C702 0.931 . S
C687 H675 0.929 . S
C687 C681 1.390 . S
C687 C684 1.386 . S
C688 C683 1.490 . S
C688 C690 1.395 . S
C688 C691 1.403 . S
H689 C695 0.930 . S
C690 H676 0.930 . S
C690 C688 1.395 . S
C690 C693 1.403 . S
C691 C688 1.403 . S
C691 C692 1.524 . S
C691 C695 1.400 . S
C692 H677 0.960 . S
C692 H678 0.960 . S
C692 H679 0.960 . S
C692 C691 1.524 . S
C693 C690 1.403 . S
C693 C694 1.392 . S
C693 C697 1.495 . S
C694 C693 1.392 . S
C694 C695 1.385 . S
C694 C696 1.478 . S
C695 H689 0.930 . S
C695 C691 1.400 . S
C695 C694 1.385 . S
C696 C694 1.478 . S
C696 C698 1.381 . S
C696 C702 1.383 . S
C697 C693 1.495 . S
C697 H703 0.959 . S
C697 H704 0.961 . S
C697 H705 0.960 . S
C698 C696 1.381 . S
C698 C699 1.394 . S
C698 H706 0.930 . S
C699 C698 1.394 . S
C699 C700 1.383 . S
C699 H707 0.929 . S
C700 C699 1.383 . S
C700 C701 1.377 . S
C701 H685 0.930 . S
C701 C700 1.377 . S
C701 C702 1.379 . S
C702 H686 0.931 . S
C702 C696 1.383 . S
C702 C701 1.379 . S
H703 C697 0.959 . S
H704 C697 0.961 . S
H705 C697 0.960 . S
H706 C698 0.930 . S
H707 C699 0.929 . S
H708 C716 0.929 . S
H709 C718 0.930 . S
H710 C720 0.930 . S
H711 C723 0.929 . S
H712 C726 0.930 . S
H713 C728 0.960 . S
H714 C728 0.960 . S
H715 C728 0.960 . S
C716 H708 0.929 . S
C716 C717 1.377 . S
C716 C718 1.384 . S
C717 C716 1.377 . S
C717 C723 1.390 . S
C718 H709 0.930 . S
C718 C716 1.384 . S
C718 C719 1.372 . S
C719 C718 1.372 . S
C719 C720 1.400 . S
C719 C724 1.490 . S
C720 H710 0.930 . S
C720 C719 1.400 . S
C720 C723 1.386 . S
H721 C737 0.930 . S
H722 C738 0.931 . S
C723 H711 0.929 . S
C723 C717 1.390 . S
C723 C720 1.386 . S
C724 C719 1.490 . S
C724 C726 1.395 . S
C724 C727 1.403 . S
H725 C731 0.930 . S
C726 H712 0.930 . S
C726 C724 1.395 . S
C726 C729 1.403 . S
C727 C724 1.403 . S
C727 C728 1.524 . S
C727 C731 1.400 . S
C728 H713 0.960 . S
C728 H714 0.960 . S
C728 H715 0.960 . S
C728 C727 1.524 . S
C729 C726 1.403 . S
C729 C730 1.392 . S
C729 C733 1.495 . S
C730 C729 1.392 . S
C730 C731 1.385 . S
C730 C732 1.478 . S
C731 H725 0.930 . S
C731 C727 1.400 . S
C731 C730 1.385 . S
C732 C730 1.478 . S
C732 C734 1.381 . S
C732 C738 1.383 . S
C733 C729 1.495 . S
C733 H739 0.959 . S
C733 H740 0.961 . S
C733 H741 0.960 . S
C734 C732 1.381 . S
C734 C735 1.394 . S
C734 H742 0.930 . S
C735 C734 1.394 . S
C735 C736 1.383 . S
C735 H743 0.929 . S
C736 C735 1.383 . S
C736 C737 1.377 . S
C737 H721 0.930 . S
C737 C736 1.377 . S
C737 C738 1.379 . S
C738 H722 0.931 . S
C738 C732 1.383 . S
C738 C737 1.379 . S
H739 C733 0.959 . S
H740 C733 0.961 . S
H741 C733 0.960 . S
H742 C734 0.930 . S
H743 C735 0.929 . S
H744 C752 0.929 . S
H745 C754 0.930 . S
H746 C756 0.930 . S
H747 C759 0.929 . S
H748 C762 0.930 . S
H749 C764 0.960 . S
H750 C764 0.960 . S
H751 C764 0.960 . S
C752 H744 0.929 . S
C752 C753 1.377 . S
C752 C754 1.384 . S
C753 C752 1.377 . S
C753 C759 1.390 . S
C754 H745 0.930 . S
C754 C752 1.384 . S
C754 C755 1.372 . S
C755 C754 1.372 . S
C755 C756 1.400 . S
C755 C760 1.490 . S
C756 H746 0.930 . S
C756 C755 1.400 . S
C756 C759 1.386 . S
H757 C773 0.930 . S
H758 C774 0.931 . S
C759 H747 0.929 . S
C759 C753 1.390 . S
C759 C756 1.386 . S
C760 C755 1.490 . S
C760 C762 1.395 . S
C760 C763 1.403 . S
H761 C767 0.930 . S
C762 H748 0.930 . S
C762 C760 1.395 . S
C762 C765 1.403 . S
C763 C760 1.403 . S
C763 C764 1.524 . S
C763 C767 1.400 . S
C764 H749 0.960 . S
C764 H750 0.960 . S
C764 H751 0.960 . S
C764 C763 1.524 . S
C765 C762 1.403 . S
C765 C766 1.392 . S
C765 C769 1.495 . S
C766 C765 1.392 . S
C766 C767 1.385 . S
C766 C768 1.478 . S
C767 H761 0.930 . S
C767 C763 1.400 . S
C767 C766 1.385 . S
C768 C766 1.478 . S
C768 C770 1.381 . S
C768 C774 1.383 . S
C769 C765 1.495 . S
C769 H775 0.959 . S
C769 H776 0.961 . S
C769 H777 0.960 . S
C770 C768 1.381 . S
C770 C771 1.394 . S
C770 H778 0.930 . S
C771 C770 1.394 . S
C771 C772 1.383 . S
C771 H779 0.929 . S
C772 C771 1.383 . S
C772 C773 1.377 . S
C773 H757 0.930 . S
C773 C772 1.377 . S
C773 C774 1.379 . S
C774 H758 0.931 . S
C774 C768 1.383 . S
C774 C773 1.379 . S
H775 C769 0.959 . S
H776 C769 0.961 . S
H777 C769 0.960 . S
H778 C770 0.930 . S
H779 C771 0.929 . S
H780 C788 0.929 . S
H781 C790 0.930 . S
H782 C792 0.930 . S
H783 C795 0.929 . S
H784 C798 0.930 . S
H785 C800 0.960 . S
H786 C800 0.960 . S
H787 C800 0.960 . S
C788 H780 0.929 . S
C788 C789 1.377 . S
C788 C790 1.384 . S
C789 C788 1.377 . S
C789 C795 1.390 . S
C790 H781 0.930 . S
C790 C788 1.384 . S
C790 C791 1.372 . S
C791 C790 1.372 . S
C791 C792 1.400 . S
C791 C796 1.490 . S
C792 H782 0.930 . S
C792 C791 1.400 . S
C792 C795 1.386 . S
H793 C809 0.930 . S
H794 C810 0.931 . S
C795 H783 0.929 . S
C795 C789 1.390 . S
C795 C792 1.386 . S
C796 C791 1.490 . S
C796 C798 1.395 . S
C796 C799 1.403 . S
H797 C803 0.930 . S
C798 H784 0.930 . S
C798 C796 1.395 . S
C798 C801 1.403 . S
C799 C796 1.403 . S
C799 C800 1.524 . S
C799 C803 1.400 . S
C800 H785 0.960 . S
C800 H786 0.960 . S
C800 H787 0.960 . S
C800 C799 1.524 . S
C801 C798 1.403 . S
C801 C802 1.392 . S
C801 C805 1.495 . S
C802 C801 1.392 . S
C802 C803 1.385 . S
C802 C804 1.478 . S
C803 H797 0.930 . S
C803 C799 1.400 . S
C803 C802 1.385 . S
C804 C802 1.478 . S
C804 C806 1.381 . S
C804 C810 1.383 . S
C805 C801 1.495 . S
C805 H811 0.959 . S
C805 H812 0.961 . S
C805 H813 0.960 . S
C806 C804 1.381 . S
C806 C807 1.394 . S
C806 H814 0.930 . S
C807 C806 1.394 . S
C807 C808 1.383 . S
C807 H815 0.929 . S
C808 C807 1.383 . S
C808 C809 1.377 . S
C809 H793 0.930 . S
C809 C808 1.377 . S
C809 C810 1.379 . S
C810 H794 0.931 . S
C810 C804 1.383 . S
C810 C809 1.379 . S
H811 C805 0.959 . S
H812 C805 0.961 . S
H813 C805 0.960 . S
H814 C806 0.930 . S
H815 C807 0.929 . S
H816 C824 0.929 . S
H817 C826 0.930 . S
H818 C828 0.930 . S
H819 C831 0.929 . S
H820 C834 0.930 . S
H821 C836 0.960 . S
H822 C836 0.960 . S
H823 C836 0.960 . S
C824 H816 0.929 . S
C824 C825 1.377 . S
C824 C826 1.384 . S
C825 C824 1.377 . S
C825 C831 1.390 . S
C826 H817 0.930 . S
C826 C824 1.384 . S
C826 C827 1.372 . S
C827 C826 1.372 . S
C827 C828 1.400 . S
C827 C832 1.490 . S
C828 H818 0.930 . S
C828 C827 1.400 . S
C828 C831 1.386 . S
H829 C845 0.930 . S
H830 C846 0.931 . S
C831 H819 0.929 . S
C831 C825 1.390 . S
C831 C828 1.386 . S
C832 C827 1.490 . S
C832 C834 1.395 . S
C832 C835 1.403 . S
H833 C839 0.930 . S
C834 H820 0.930 . S
C834 C832 1.395 . S
C834 C837 1.403 . S
C835 C832 1.403 . S
C835 C836 1.524 . S
C835 C839 1.400 . S
C836 H821 0.960 . S
C836 H822 0.960 . S
C836 H823 0.960 . S
C836 C835 1.524 . S
C837 C834 1.403 . S
C837 C838 1.392 . S
C837 C841 1.495 . S
C838 C837 1.392 . S
C838 C839 1.385 . S
C838 C840 1.478 . S
C839 H833 0.930 . S
C839 C835 1.400 . S
C839 C838 1.385 . S
C840 C838 1.478 . S
C840 C842 1.381 . S
C840 C846 1.383 . S
C841 C837 1.495 . S
C841 H847 0.959 . S
C841 H848 0.961 . S
C841 H849 0.960 . S
C842 C840 1.381 . S
C842 C843 1.394 . S
C842 H850 0.930 . S
C843 C842 1.394 . S
C843 C844 1.383 . S
C843 H851 0.929 . S
C844 C843 1.383 . S
C844 C845 1.377 . S
C845 H829 0.930 . S
C845 C844 1.377 . S
C845 C846 1.379 . S
C846 H830 0.931 . S
C846 C840 1.383 . S
C846 C845 1.379 . S
H847 C841 0.959 . S
H848 C841 0.961 . S
H849 C841 0.960 . S
H850 C842 0.930 . S
H851 C843 0.929 . S
H852 C860 0.929 . S
H853 C862 0.930 . S
H854 C864 0.930 . S
H855 C867 0.929 . S
H856 C870 0.930 . S
H857 C872 0.960 . S
H858 C872 0.960 . S
H859 C872 0.960 . S
C860 H852 0.929 . S
C860 C861 1.377 . S
C860 C862 1.384 . S
C861 C860 1.377 . S
C861 C867 1.390 . S
C862 H853 0.930 . S
C862 C860 1.384 . S
C862 C863 1.372 . S
C863 C862 1.372 . S
C863 C864 1.400 . S
C863 C868 1.490 . S
C864 H854 0.930 . S
C864 C863 1.400 . S
C864 C867 1.386 . S
H865 C881 0.930 . S
H866 C882 0.931 . S
C867 H855 0.929 . S
C867 C861 1.390 . S
C867 C864 1.386 . S
C868 C863 1.490 . S
C868 C870 1.395 . S
C868 C871 1.403 . S
H869 C875 0.930 . S
C870 H856 0.930 . S
C870 C868 1.395 . S
C870 C873 1.403 . S
C871 C868 1.403 . S
C871 C872 1.524 . S
C871 C875 1.400 . S
C872 H857 0.960 . S
C872 H858 0.960 . S
C872 H859 0.960 . S
C872 C871 1.524 . S
C873 C870 1.403 . S
C873 C874 1.392 . S
C873 C877 1.495 . S
C874 C873 1.392 . S
C874 C875 1.385 . S
C874 C876 1.478 . S
C875 H869 0.930 . S
C875 C871 1.400 . S
C875 C874 1.385 . S
C876 C874 1.478 . S
C876 C878 1.381 . S
C876 C882 1.383 . S
C877 C873 1.495 . S
C877 H883 0.959 . S
C877 H884 0.961 . S
C877 H885 0.960 . S
C878 C876 1.381 . S
C878 C879 1.394 . S
C878 H886 0.930 . S
C879 C878 1.394 . S
C879 C880 1.383 . S
C879 H887 0.929 . S
C880 C879 1.383 . S
C880 C881 1.377 . S
C881 H865 0.930 . S
C881 C880 1.377 . S
C881 C882 1.379 . S
C882 H866 0.931 . S
C882 C876 1.383 . S
C882 C881 1.379 . S
H883 C877 0.959 . S
H884 C877 0.961 . S
H885 C877 0.960 . S
H886 C878 0.930 . S
H887 C879 0.929 . S
H888 C896 0.929 . S
H889 C898 0.930 . S
H890 C900 0.930 . S
H891 C903 0.929 . S
H892 C906 0.930 . S
H893 C908 0.960 . S
H894 C908 0.960 . S
H895 C908 0.960 . S
C896 H888 0.929 . S
C896 C897 1.377 . S
C896 C898 1.384 . S
C897 C896 1.377 . S
C897 C903 1.390 . S
C898 H889 0.930 . S
C898 C896 1.384 . S
C898 C899 1.372 . S
C899 C898 1.372 . S
C899 C900 1.400 . S
C899 C904 1.490 . S
C900 H890 0.930 . S
C900 C899 1.400 . S
C900 C903 1.386 . S
H901 C917 0.930 . S
H902 C918 0.931 . S
C903 H891 0.929 . S
C903 C897 1.390 . S
C903 C900 1.386 . S
C904 C899 1.490 . S
C904 C906 1.395 . S
C904 C907 1.403 . S
H905 C911 0.930 . S
C906 H892 0.930 . S
C906 C904 1.395 . S
C906 C909 1.403 . S
C907 C904 1.403 . S
C907 C908 1.524 . S
C907 C911 1.400 . S
C908 H893 0.960 . S
C908 H894 0.960 . S
C908 H895 0.960 . S
C908 C907 1.524 . S
C909 C906 1.403 . S
C909 C910 1.392 . S
C909 C913 1.495 . S
C910 C909 1.392 . S
C910 C911 1.385 . S
C910 C912 1.478 . S
C911 H905 0.930 . S
C911 C907 1.400 . S
C911 C910 1.385 . S
C912 C910 1.478 . S
C912 C914 1.381 . S
C912 C918 1.383 . S
C913 C909 1.495 . S
C913 H919 0.959 . S
C913 H920 0.961 . S
C913 H921 0.960 . S
C914 C912 1.381 . S
C914 C915 1.394 . S
C914 H922 0.930 . S
C915 C914 1.394 . S
C915 C916 1.383 . S
C915 H923 0.929 . S
C916 C915 1.383 . S
C916 C917 1.377 . S
C917 H901 0.930 . S
C917 C916 1.377 . S
C917 C918 1.379 . S
C918 H902 0.931 . S
C918 C912 1.383 . S
C918 C917 1.379 . S
H919 C913 0.959 . S
H920 C913 0.961 . S
H921 C913 0.960 . S
H922 C914 0.930 . S
H923 C915 0.929 . S
H924 C932 0.929 . S
H925 C934 0.930 . S
H926 C936 0.930 . S
H927 C939 0.929 . S
H928 C942 0.930 . S
H929 C944 0.960 . S
H930 C944 0.960 . S
H931 C944 0.960 . S
C932 H924 0.929 . S
C932 C933 1.377 . S
C932 C934 1.384 . S
C933 C932 1.377 . S
C933 C939 1.390 . S
C934 H925 0.930 . S
C934 C932 1.384 . S
C934 C935 1.372 . S
C935 C934 1.372 . S
C935 C936 1.400 . S
C935 C940 1.490 . S
C936 H926 0.930 . S
C936 C935 1.400 . S
C936 C939 1.386 . S
H937 C953 0.930 . S
H938 C954 0.931 . S
C939 H927 0.929 . S
C939 C933 1.390 . S
C939 C936 1.386 . S
C940 C935 1.490 . S
C940 C942 1.395 . S
C940 C943 1.403 . S
H941 C947 0.930 . S
C942 H928 0.930 . S
C942 C940 1.395 . S
C942 C945 1.403 . S
C943 C940 1.403 . S
C943 C944 1.524 . S
C943 C947 1.400 . S
C944 H929 0.960 . S
C944 H930 0.960 . S
C944 H931 0.960 . S
C944 C943 1.524 . S
C945 C942 1.403 . S
C945 C946 1.392 . S
C945 C949 1.495 . S
C946 C945 1.392 . S
C946 C947 1.385 . S
C946 C948 1.478 . S
C947 H941 0.930 . S
C947 C943 1.400 . S
C947 C946 1.385 . S
C948 C946 1.478 . S
C948 C950 1.381 . S
C948 C954 1.383 . S
C949 C945 1.495 . S
C949 H955 0.959 . S
C949 H956 0.961 . S
C949 H957 0.960 . S
C950 C948 1.381 . S
C950 C951 1.394 . S
C950 H958 0.930 . S
C951 C950 1.394 . S
C951 C952 1.383 . S
C951 H959 0.929 . S
C952 C951 1.383 . S
C952 C953 1.377 . S
C953 H937 0.930 . S
C953 C952 1.377 . S
C953 C954 1.379 . S
C954 H938 0.931 . S
C954 C948 1.383 . S
C954 C953 1.379 . S
H955 C949 0.959 . S
H956 C949 0.961 . S
H957 C949 0.960 . S
H958 C950 0.930 . S
H959 C951 0.929 . S
H960 C968 0.929 . S
H961 C970 0.930 . S
H962 C972 0.930 . S
H963 C975 0.929 . S
H964 C978 0.930 . S
H965 C980 0.960 . S
H966 C980 0.960 . S
H967 C980 0.960 . S
C968 H960 0.929 . S
C968 C969 1.377 . S
C968 C970 1.384 . S
C969 C968 1.377 . S
C969 C975 1.390 . S
C970 H961 0.930 . S
C970 C968 1.384 . S
C970 C971 1.372 . S
C971 C970 1.372 . S
C971 C972 1.400 . S
C971 C976 1.490 . S
C972 H962 0.930 . S
C972 C971 1.400 . S
C972 C975 1.386 . S
H973 C989 0.930 . S
H974 C990 0.931 . S
C975 H963 0.929 . S
C975 C969 1.390 . S
C975 C972 1.386 . S
C976 C971 1.490 . S
C976 C978 1.395 . S
C976 C979 1.403 . S
H977 C983 0.930 . S
C978 H964 0.930 . S
C978 C976 1.395 . S
C978 C981 1.403 . S
C979 C976 1.403 . S
C979 C980 1.524 . S
C979 C983 1.400 . S
C980 H965 0.960 . S
C980 H966 0.960 . S
C980 H967 0.960 . S
C980 C979 1.524 . S
C981 C978 1.403 . S
C981 C982 1.392 . S
C981 C985 1.495 . S
C982 C981 1.392 . S
C982 C983 1.385 . S
C982 C984 1.478 . S
C983 H977 0.930 . S
C983 C979 1.400 . S
C983 C982 1.385 . S
C984 C982 1.478 . S
C984 C986 1.381 . S
C984 C990 1.383 . S
C985 C981 1.495 . S
C985 H991 0.959 . S
C985 H992 0.961 . S
C985 H993 0.960 . S
C986 C984 1.381 . S
C986 C987 1.394 . S
C986 H994 0.930 . S
C987 C986 1.394 . S
C987 C988 1.383 . S
C987 H995 0.929 . S
C988 C987 1.383 . S
C988 C989 1.377 . S
C989 H973 0.930 . S
C989 C988 1.377 . S
C989 C990 1.379 . S
C990 H974 0.931 . S
C990 C984 1.383 . S
C990 C989 1.379 . S
H991 C985 0.959 . S
H992 C985 0.961 . S
H993 C985 0.960 . S
H994 C986 0.930 . S
H995 C987 0.929 . S
H996 C1004 0.929 . S
H997 C1006 0.930 . S
H998 C1008 0.930 . S
H999 C1011 0.929 . S
H1000 C1014 0.930 . S
H1001 C1016 0.960 . S
H1002 C1016 0.960 . S
H1003 C1016 0.960 . S
C1004 H996 0.929 . S
C1004 C1005 1.377 . S
C1004 C1006 1.384 . S
C1005 C1004 1.377 . S
C1005 C1011 1.390 . S
C1006 H997 0.930 . S
C1006 C1004 1.384 . S
C1006 C1007 1.372 . S
C1007 C1006 1.372 . S
C1007 C1008 1.400 . S
C1007 C1012 1.490 . S
C1008 H998 0.930 . S
C1008 C1007 1.400 . S
C1008 C1011 1.386 . S
H1009 C1025 0.930 . S
H1010 C1026 0.931 . S
C1011 H999 0.929 . S
C1011 C1005 1.390 . S
C1011 C1008 1.386 . S
C1012 C1007 1.490 . S
C1012 C1014 1.395 . S
C1012 C1015 1.403 . S
H1013 C1019 0.930 . S
C1014 H1000 0.930 . S
C1014 C1012 1.395 . S
C1014 C1017 1.403 . S
C1015 C1012 1.403 . S
C1015 C1016 1.524 . S
C1015 C1019 1.400 . S
C1016 H1001 0.960 . S
C1016 H1002 0.960 . S
C1016 H1003 0.960 . S
C1016 C1015 1.524 . S
C1017 C1014 1.403 . S
C1017 C1018 1.392 . S
C1017 C1021 1.495 . S
C1018 C1017 1.392 . S
C1018 C1019 1.385 . S
C1018 C1020 1.478 . S
C1019 H1013 0.930 . S
C1019 C1015 1.400 . S
C1019 C1018 1.385 . S
C1020 C1018 1.478 . S
C1020 C1022 1.381 . S
C1020 C1026 1.383 . S
C1021 C1017 1.495 . S
C1021 H1027 0.959 . S
C1021 H1028 0.961 . S
C1021 H1029 0.960 . S
C1022 C1020 1.381 . S
C1022 C1023 1.394 . S
C1022 H1030 0.930 . S
C1023 C1022 1.394 . S
C1023 C1024 1.383 . S
C1023 H1031 0.929 . S
C1024 C1023 1.383 . S
C1024 C1025 1.377 . S
C1025 H1009 0.930 . S
C1025 C1024 1.377 . S
C1025 C1026 1.379 . S
C1026 H1010 0.931 . S
C1026 C1020 1.383 . S
C1026 C1025 1.379 . S
H1027 C1021 0.959 . S
H1028 C1021 0.961 . S
H1029 C1021 0.960 . S
H1030 C1022 0.930 . S
H1031 C1023 0.929 . S
C177 C9 1.321 . S
C196 C163 1.305 . S
C213 C93 1.318 . S
C232 C23 1.300 . S
C249 C37 1.320 . S
C268 C107 1.318 . S
C285 C121 1.314 . S
C304 C51 1.326 . S
C321 C135 1.315 . S
C340 C65 1.310 . S
C357 C149 1.321 . S
C376 C79 1.315 . S
C393 C42 1.229 . S
C412 C112 1.235 . S
C429 C56 1.234 . S
C448 C126 1.214 . S
C465 C70 1.233 . S
C484 C140 1.239 . S
C501 C154 1.235 . S
C520 C0 1.215 . S
C537 C14 1.232 . S
C556 C84 1.220 . S
C573 C28 1.235 . S
C592 C98 1.215 . S
C609 C117 1.704 . S
C628 C5 1.700 . S
C645 C131 1.704 . S
C664 C19 1.700 . S
C681 C33 1.704 . S
C700 C145 1.700 . S
C717 C47 1.704 . S
C736 C159 1.700 . S
C753 C61 1.704 . S
C772 C89 1.700 . S
C789 C103 1.704 . S
C808 C75 1.701 . S
C825 C11 1.620 . S
C844 C151 1.620 . S
C861 C165 1.619 . S
C880 C25 1.604 . S
C897 C39 1.616 . S
C916 C95 1.622 . S
C933 C53 1.621 . S
C952 C109 1.616 . S
C969 C67 1.617 . S
C988 C123 1.625 . S
C1005 C81 1.620 . S
C1024 C137 1.607 . S
