# Generated by pormake.
# Topology uoh, (4)-cn, num edge types: 1
# Building blocks:
#     Node 0, Type 0, BuildingBlock: TATPOV_clean_sbu_0, # of connection points: 4
#     Node 1, Type 0, BuildingBlock: TATPOV_clean_sbu_0, # of connection points: 4
#     Node 2, Type 0, BuildingBlock: TATPOV_clean_sbu_0, # of connection points: 4
#     Node 3, Type 0, BuildingBlock: TATPOV_clean_sbu_0, # of connection points: 4
#     Node 4, Type 0, BuildingBlock: TATPOV_clean_sbu_0, # of connection points: 4
#     Node 5, Type 0, BuildingBlock: TATPOV_clean_sbu_0, # of connection points: 4
#     Node 6, Type 0, BuildingBlock: TATPOV_clean_sbu_0, # of connection points: 4
#     Node 7, Type 0, BuildingBlock: TATPOV_clean_sbu_0, # of connection points: 4
#     Node 8, Type 0, BuildingBlock: TATPOV_clean_sbu_0, # of connection points: 4
#     Node 9, Type 0, BuildingBlock: TATPOV_clean_sbu_0, # of connection points: 4
#     Node 10, Type 0, BuildingBlock: TATPOV_clean_sbu_0, # of connection points: 4
#     Node 11, Type 0, BuildingBlock: TATPOV_clean_sbu_0, # of connection points: 4
#     Node 12, Type 0, BuildingBlock: TATPOV_clean_sbu_0, # of connection points: 4
#     Node 13, Type 0, BuildingBlock: TATPOV_clean_sbu_0, # of connection points: 4
#     Node 14, Type 0, BuildingBlock: TATPOV_clean_sbu_0, # of connection points: 4
#     Node 15, Type 0, BuildingBlock: TATPOV_clean_sbu_0, # of connection points: 4
#     Node 16, Type 0, BuildingBlock: TATPOV_clean_sbu_0, # of connection points: 4
#     Node 17, Type 0, BuildingBlock: TATPOV_clean_sbu_0, # of connection points: 4
#     Node 18, Type 0, BuildingBlock: TATPOV_clean_sbu_0, # of connection points: 4
#     Node 19, Type 0, BuildingBlock: TATPOV_clean_sbu_0, # of connection points: 4
#     Node 20, Type 0, BuildingBlock: TATPOV_clean_sbu_0, # of connection points: 4
#     Node 21, Type 0, BuildingBlock: TATPOV_clean_sbu_0, # of connection points: 4
#     Node 22, Type 0, BuildingBlock: TATPOV_clean_sbu_0, # of connection points: 4
#     Node 23, Type 0, BuildingBlock: TATPOV_clean_sbu_0, # of connection points: 4
#     Node 24, Type 0, BuildingBlock: TATPOV_clean_sbu_0, # of connection points: 4
#     Node 25, Type 0, BuildingBlock: TATPOV_clean_sbu_0, # of connection points: 4
#     Node 26, Type 0, BuildingBlock: TATPOV_clean_sbu_0, # of connection points: 4
#     Node 27, Type 0, BuildingBlock: TATPOV_clean_sbu_0, # of connection points: 4
#     Node 28, Type 0, BuildingBlock: TATPOV_clean_sbu_0, # of connection points: 4
#     Node 29, Type 0, BuildingBlock: TATPOV_clean_sbu_0, # of connection points: 4
#     Node 30, Type 0, BuildingBlock: TATPOV_clean_sbu_0, # of connection points: 4
#     Node 31, Type 0, BuildingBlock: TATPOV_clean_sbu_0, # of connection points: 4
#     Node 32, Type 0, BuildingBlock: TATPOV_clean_sbu_0, # of connection points: 4
#     Node 33, Type 0, BuildingBlock: TATPOV_clean_sbu_0, # of connection points: 4
#     Node 34, Type 0, BuildingBlock: TATPOV_clean_sbu_0, # of connection points: 4
#     Node 35, Type 0, BuildingBlock: TATPOV_clean_sbu_0, # of connection points: 4
#     Edge 36, Type (0, 0), BuildingBlock: AJUNOK_clean_linker_0, # of connection points: 2
#     Edge 37, Type (0, 0), BuildingBlock: AJUNOK_clean_linker_0, # of connection points: 2
#     Edge 38, Type (0, 0), BuildingBlock: AJUNOK_clean_linker_0, # of connection points: 2
#     Edge 39, Type (0, 0), BuildingBlock: AJUNOK_clean_linker_0, # of connection points: 2
#     Edge 40, Type (0, 0), BuildingBlock: AJUNOK_clean_linker_0, # of connection points: 2
#     Edge 41, Type (0, 0), BuildingBlock: AJUNOK_clean_linker_0, # of connection points: 2
#     Edge 42, Type (0, 0), BuildingBlock: AJUNOK_clean_linker_0, # of connection points: 2
#     Edge 43, Type (0, 0), BuildingBlock: AJUNOK_clean_linker_0, # of connection points: 2
#     Edge 44, Type (0, 0), BuildingBlock: AJUNOK_clean_linker_0, # of connection points: 2
#     Edge 45, Type (0, 0), BuildingBlock: AJUNOK_clean_linker_0, # of connection points: 2
#     Edge 46, Type (0, 0), BuildingBlock: AJUNOK_clean_linker_0, # of connection points: 2
#     Edge 47, Type (0, 0), BuildingBlock: AJUNOK_clean_linker_0, # of connection points: 2
#     Edge 48, Type (0, 0), BuildingBlock: AJUNOK_clean_linker_0, # of connection points: 2
#     Edge 49, Type (0, 0), BuildingBlock: AJUNOK_clean_linker_0, # of connection points: 2
#     Edge 50, Type (0, 0), BuildingBlock: AJUNOK_clean_linker_0, # of connection points: 2
#     Edge 51, Type (0, 0), BuildingBlock: AJUNOK_clean_linker_0, # of connection points: 2
#     Edge 52, Type (0, 0), BuildingBlock: AJUNOK_clean_linker_0, # of connection points: 2
#     Edge 53, Type (0, 0), BuildingBlock: AJUNOK_clean_linker_0, # of connection points: 2
#     Edge 54, Type (0, 0), BuildingBlock: AJUNOK_clean_linker_0, # of connection points: 2
#     Edge 55, Type (0, 0), BuildingBlock: AJUNOK_clean_linker_0, # of connection points: 2
#     Edge 56, Type (0, 0), BuildingBlock: AJUNOK_clean_linker_0, # of connection points: 2
#     Edge 57, Type (0, 0), BuildingBlock: AJUNOK_clean_linker_0, # of connection points: 2
#     Edge 58, Type (0, 0), BuildingBlock: AJUNOK_clean_linker_0, # of connection points: 2
#     Edge 59, Type (0, 0), BuildingBlock: AJUNOK_clean_linker_0, # of connection points: 2
#     Edge 60, Type (0, 0), BuildingBlock: AJUNOK_clean_linker_0, # of connection points: 2
#     Edge 61, Type (0, 0), BuildingBlock: AJUNOK_clean_linker_0, # of connection points: 2
#     Edge 62, Type (0, 0), BuildingBlock: AJUNOK_clean_linker_0, # of connection points: 2
#     Edge 63, Type (0, 0), BuildingBlock: AJUNOK_clean_linker_0, # of connection points: 2
#     Edge 64, Type (0, 0), BuildingBlock: AJUNOK_clean_linker_0, # of connection points: 2
#     Edge 65, Type (0, 0), BuildingBlock: AJUNOK_clean_linker_0, # of connection points: 2
#     Edge 66, Type (0, 0), BuildingBlock: AJUNOK_clean_linker_0, # of connection points: 2
#     Edge 67, Type (0, 0), BuildingBlock: AJUNOK_clean_linker_0, # of connection points: 2
#     Edge 68, Type (0, 0), BuildingBlock: AJUNOK_clean_linker_0, # of connection points: 2
#     Edge 69, Type (0, 0), BuildingBlock: AJUNOK_clean_linker_0, # of connection points: 2
#     Edge 70, Type (0, 0), BuildingBlock: AJUNOK_clean_linker_0, # of connection points: 2
#     Edge 71, Type (0, 0), BuildingBlock: AJUNOK_clean_linker_0, # of connection points: 2
#     Edge 72, Type (0, 0), BuildingBlock: AJUNOK_clean_linker_0, # of connection points: 2
#     Edge 73, Type (0, 0), BuildingBlock: AJUNOK_clean_linker_0, # of connection points: 2
#     Edge 74, Type (0, 0), BuildingBlock: AJUNOK_clean_linker_0, # of connection points: 2
#     Edge 75, Type (0, 0), BuildingBlock: AJUNOK_clean_linker_0, # of connection points: 2
#     Edge 76, Type (0, 0), BuildingBlock: AJUNOK_clean_linker_0, # of connection points: 2
#     Edge 77, Type (0, 0), BuildingBlock: AJUNOK_clean_linker_0, # of connection points: 2
#     Edge 78, Type (0, 0), BuildingBlock: AJUNOK_clean_linker_0, # of connection points: 2
#     Edge 79, Type (0, 0), BuildingBlock: AJUNOK_clean_linker_0, # of connection points: 2
#     Edge 80, Type (0, 0), BuildingBlock: AJUNOK_clean_linker_0, # of connection points: 2
#     Edge 81, Type (0, 0), BuildingBlock: AJUNOK_clean_linker_0, # of connection points: 2
#     Edge 82, Type (0, 0), BuildingBlock: AJUNOK_clean_linker_0, # of connection points: 2
#     Edge 83, Type (0, 0), BuildingBlock: AJUNOK_clean_linker_0, # of connection points: 2
#     Edge 84, Type (0, 0), BuildingBlock: AJUNOK_clean_linker_0, # of connection points: 2
#     Edge 85, Type (0, 0), BuildingBlock: AJUNOK_clean_linker_0, # of connection points: 2
#     Edge 86, Type (0, 0), BuildingBlock: AJUNOK_clean_linker_0, # of connection points: 2
#     Edge 87, Type (0, 0), BuildingBlock: AJUNOK_clean_linker_0, # of connection points: 2
#     Edge 88, Type (0, 0), BuildingBlock: AJUNOK_clean_linker_0, # of connection points: 2
#     Edge 89, Type (0, 0), BuildingBlock: AJUNOK_clean_linker_0, # of connection points: 2
#     Edge 90, Type (0, 0), BuildingBlock: AJUNOK_clean_linker_0, # of connection points: 2
#     Edge 91, Type (0, 0), BuildingBlock: AJUNOK_clean_linker_0, # of connection points: 2
#     Edge 92, Type (0, 0), BuildingBlock: AJUNOK_clean_linker_0, # of connection points: 2
#     Edge 93, Type (0, 0), BuildingBlock: AJUNOK_clean_linker_0, # of connection points: 2
#     Edge 94, Type (0, 0), BuildingBlock: AJUNOK_clean_linker_0, # of connection points: 2
#     Edge 95, Type (0, 0), BuildingBlock: AJUNOK_clean_linker_0, # of connection points: 2
#     Edge 96, Type (0, 0), BuildingBlock: AJUNOK_clean_linker_0, # of connection points: 2
#     Edge 97, Type (0, 0), BuildingBlock: AJUNOK_clean_linker_0, # of connection points: 2
#     Edge 98, Type (0, 0), BuildingBlock: AJUNOK_clean_linker_0, # of connection points: 2
#     Edge 99, Type (0, 0), BuildingBlock: AJUNOK_clean_linker_0, # of connection points: 2
#     Edge 100, Type (0, 0), BuildingBlock: AJUNOK_clean_linker_0, # of connection points: 2
#     Edge 101, Type (0, 0), BuildingBlock: AJUNOK_clean_linker_0, # of connection points: 2
#     Edge 102, Type (0, 0), BuildingBlock: AJUNOK_clean_linker_0, # of connection points: 2
#     Edge 103, Type (0, 0), BuildingBlock: AJUNOK_clean_linker_0, # of connection points: 2
#     Edge 104, Type (0, 0), BuildingBlock: AJUNOK_clean_linker_0, # of connection points: 2
#     Edge 105, Type (0, 0), BuildingBlock: AJUNOK_clean_linker_0, # of connection points: 2
#     Edge 106, Type (0, 0), BuildingBlock: AJUNOK_clean_linker_0, # of connection points: 2
#     Edge 107, Type (0, 0), BuildingBlock: AJUNOK_clean_linker_0, # of connection points: 2
# Relax obj value: 0.197
# Max RMSD: 0.256
# Mean RMSD: 0.256
data_MOF--net-uoh--node1-TATPOV_clean_sbu_0--edge1-AJUNOK_clean_linker_0
_symmetry_space_group_name_H-M    P1
_symmetry_Int_Tables_number       1
_symmetry_cell_setting            triclinic
loop_
_symmetry_equiv_pos_as_xyz
'x, y, z'
_cell_length_a     64.94499
_cell_length_b     64.978576
_cell_length_c     20.411998
_cell_angle_alpha  89.956487
_cell_angle_beta   89.991183
_cell_angle_gamma 120.00516
loop_
_atom_site_label
_atom_site_type_symbol
_atom_site_fract_x
_atom_site_fract_y
_atom_site_fract_z
_atom_type_partial_charge
Zn0 Zn 0.23704 0.0986 0.17479 0.0
Zn1 Zn 0.23986 0.1416 0.19268 0.0
O2 O 0.22251 0.13087 0.1055 0.0
O3 O 0.2178 0.09516 0.09293 0.0
O4 O 0.23782 0.17044 0.21821 0.0
O5 O 0.22095 0.08595 0.2627 0.0
O6 O 0.22377 0.12089 0.272 0.0
C7 C 0.21478 0.11188 0.07221 0.0
C8 C 0.28549 0.1402 0.17306 0.0
O9 O 0.27504 0.1521 0.18332 0.0
O10 O 0.27339 0.11773 0.16837 0.0
C11 C 0.23738 0.18553 0.17954 0.0
O12 O 0.24052 0.18402 0.11656 0.0
C13 C 0.21729 0.10038 0.29522 0.0
Zn14 Zn 0.90875 0.13867 0.16765 0.0
Zn15 Zn 0.86578 0.09866 0.18666 0.0
O16 O 0.87563 0.09189 0.09814 0.0
O17 O 0.91137 0.12287 0.08481 0.0
O18 O 0.83713 0.06812 0.21551 0.0
O19 O 0.92222 0.13531 0.25418 0.0
O20 O 0.88718 0.10338 0.26437 0.0
C21 C 0.89444 0.10328 0.06403 0.0
C22 C 0.86731 0.14574 0.16805 0.0
O23 O 0.85536 0.12339 0.17814 0.0
O24 O 0.88979 0.15606 0.16301 0.0
C25 C 0.82203 0.05143 0.17965 0.0
O26 O 0.82341 0.05416 0.11574 0.0
C27 C 0.90785 0.11722 0.28688 0.0
Zn28 Zn 0.87061 0.76905 0.17639 0.0
Zn29 Zn 0.91154 0.76732 0.19261 0.0
O30 O 0.91677 0.78396 0.10453 0.0
O31 O 0.88511 0.78768 0.0929 0.0
O32 O 0.9431 0.77055 0.21732 0.0
O33 O 0.87426 0.78552 0.26354 0.0
O34 O 0.90672 0.7832 0.27203 0.0
C35 C 0.90484 0.79097 0.07132 0.0
C36 C 0.86506 0.72106 0.17627 0.0
O37 O 0.88751 0.73189 0.18498 0.0
O38 O 0.85428 0.73279 0.17206 0.0
C39 C 0.96052 0.77634 0.17879 0.0
O40 O 0.95762 0.77825 0.11586 0.0
C41 C 0.8926 0.78953 0.29543 0.0
Zn42 Zn 0.10768 0.24165 0.29232 0.0
Zn43 Zn 0.14914 0.24132 0.27382 0.0
O44 O 0.13768 0.22415 0.36123 0.0
O45 O 0.10309 0.22215 0.37432 0.0
O46 O 0.177 0.23765 0.24733 0.0
O47 O 0.09423 0.22591 0.20471 0.0
O48 O 0.12804 0.22631 0.19435 0.0
C49 C 0.11889 0.21771 0.39474 0.0
C50 C 0.15114 0.28859 0.29411 0.0
O51 O 0.16173 0.27687 0.28375 0.0
O52 O 0.12862 0.27781 0.29863 0.0
C53 C 0.19054 0.23425 0.28515 0.0
O54 O 0.18773 0.23454 0.34883 0.0
C55 C 0.10779 0.22115 0.1716 0.0
Zn56 Zn 0.77029 0.8678 0.30059 0.0
Zn57 Zn 0.77087 0.90965 0.28148 0.0
O58 O 0.7876 0.91542 0.36946 0.0
O59 O 0.78944 0.88279 0.38303 0.0
O60 O 0.77455 0.94112 0.25465 0.0
O61 O 0.78655 0.87018 0.21371 0.0
O62 O 0.78647 0.90373 0.20313 0.0
C63 C 0.7938 0.90301 0.40349 0.0
C64 C 0.72339 0.86435 0.30054 0.0
O65 O 0.73529 0.88667 0.2903 0.0
O66 O 0.73405 0.85252 0.30569 0.0
C67 C 0.775 0.95694 0.29208 0.0
O68 O 0.77131 0.95257 0.3551 0.0
C69 C 0.79171 0.88866 0.18081 0.0
Zn70 Zn 0.1466 0.90645 0.29711 0.0
Zn71 Zn 0.10439 0.86473 0.28107 0.0
O72 O 0.099 0.87662 0.36783 0.0
O73 O 0.13186 0.91106 0.3797 0.0
O74 O 0.07287 0.83669 0.25535 0.0
O75 O 0.14343 0.91931 0.20917 0.0
O76 O 0.10985 0.88551 0.20155 0.0
C77 C 0.11156 0.8955 0.40065 0.0
C78 C 0.15005 0.863 0.29912 0.0
O79 O 0.12763 0.85243 0.29033 0.0
O80 O 0.1619 0.88552 0.3026 0.0
C81 C 0.05507 0.82466 0.29231 0.0
O82 O 0.05716 0.82906 0.3555 0.0
C83 C 0.12469 0.90564 0.17777 0.0
Zn84 Zn 0.7714 0.90428 0.80089 0.0
Zn85 Zn 0.77147 0.86281 0.78199 0.0
O86 O 0.78824 0.8738 0.87002 0.0
O87 O 0.79064 0.90853 0.88313 0.0
O88 O 0.77541 0.83516 0.75526 0.0
O89 O 0.78744 0.9181 0.71382 0.0
O90 O 0.78686 0.88424 0.7032 0.0
C91 C 0.7947 0.89249 0.90385 0.0
C92 C 0.72424 0.86098 0.80146 0.0
O93 O 0.73587 0.85028 0.79107 0.0
O94 O 0.73517 0.88347 0.80648 0.0
C95 C 0.7766 0.82022 0.79289 0.0
O96 O 0.77327 0.82108 0.85604 0.0
C97 C 0.79222 0.90458 0.6807 0.0
Zn98 Zn 0.10597 0.86886 0.79501 0.0
Zn99 Zn 0.149 0.90935 0.77858 0.0
O100 O 0.13829 0.91501 0.86717 0.0
O101 O 0.10273 0.88362 0.87914 0.0
O102 O 0.17775 0.94033 0.75283 0.0
O103 O 0.09313 0.87317 0.70858 0.0
O104 O 0.12818 0.90525 0.70005 0.0
C105 C 0.11938 0.90322 0.90064 0.0
C106 C 0.14771 0.86225 0.79303 0.0
O107 O 0.15961 0.88471 0.78499 0.0
O108 O 0.12522 0.85176 0.79765 0.0
C109 C 0.19051 0.95761 0.79054 0.0
O110 O 0.18651 0.95503 0.85393 0.0
C111 C 0.10759 0.89153 0.67693 0.0
Zn112 Zn 0.14373 0.24179 0.78938 0.0
Zn113 Zn 0.10188 0.24128 0.7708 0.0
O114 O 0.09633 0.22506 0.8597 0.0
O115 O 0.12892 0.22307 0.87264 0.0
O116 O 0.07037 0.23721 0.74261 0.0
O117 O 0.14129 0.2252 0.70307 0.0
O118 O 0.10773 0.22534 0.69332 0.0
C119 C 0.10884 0.21898 0.89373 0.0
C120 C 0.14724 0.28874 0.7879 0.0
O121 O 0.12487 0.27693 0.7782 0.0
O122 O 0.15898 0.27799 0.79324 0.0
C123 C 0.05354 0.23518 0.77872 0.0
O124 O 0.05659 0.2373 0.84247 0.0
C125 C 0.12261 0.21986 0.67095 0.0
Zn126 Zn 0.90766 0.76567 0.67625 0.0
Zn127 Zn 0.86561 0.76547 0.69249 0.0
O128 O 0.8771 0.78252 0.60512 0.0
O129 O 0.91182 0.78466 0.59323 0.0
O130 O 0.83736 0.76853 0.71871 0.0
O131 O 0.92062 0.78216 0.76352 0.0
O132 O 0.88656 0.78141 0.77122 0.0
C133 C 0.89601 0.78901 0.57215 0.0
C134 C 0.86464 0.71842 0.67552 0.0
O135 O 0.85379 0.73 0.68415 0.0
O136 O 0.88718 0.7294 0.67168 0.0
C137 C 0.82492 0.77369 0.68158 0.0
O138 O 0.82899 0.77551 0.6182 0.0
C139 C 0.90684 0.78715 0.7947 0.0
Zn140 Zn 0.23625 0.13914 0.67588 0.0
Zn141 Zn 0.23914 0.09902 0.69396 0.0
O142 O 0.22229 0.09255 0.60605 0.0
O143 O 0.2176 0.12356 0.59308 0.0
O144 O 0.23718 0.06823 0.71993 0.0
O145 O 0.21965 0.13545 0.76303 0.0
O146 O 0.22271 0.10347 0.77265 0.0
C147 C 0.21478 0.10392 0.57228 0.0
C148 C 0.28475 0.1461 0.67615 0.0
O149 O 0.2743 0.12372 0.68573 0.0
O150 O 0.27264 0.15646 0.67119 0.0
C151 C 0.23702 0.05268 0.68192 0.0
O152 O 0.24027 0.05717 0.61886 0.0
C153 C 0.21601 0.11736 0.79558 0.0
Zn154 Zn 0.86945 0.10112 0.66505 0.0
Zn155 Zn 0.91113 0.14258 0.68361 0.0
O156 O 0.91712 0.13108 0.59685 0.0
O157 O 0.88468 0.09643 0.5838 0.0
O158 O 0.94264 0.17057 0.7093 0.0
O159 O 0.87159 0.08789 0.7533 0.0
O160 O 0.90506 0.12163 0.76346 0.0
C161 C 0.90494 0.11229 0.56339 0.0
C162 C 0.86582 0.14445 0.66134 0.0
O163 O 0.8881 0.15505 0.67239 0.0
O164 O 0.85411 0.12194 0.65716 0.0
C165 C 0.95828 0.18558 0.67067 0.0
O166 O 0.95355 0.18435 0.60779 0.0
C167 C 0.88991 0.10143 0.78638 0.0
Zn168 Zn 0.90457 0.43733 0.48775 0.0
Zn169 Zn 0.90801 0.48072 0.50333 0.0
O170 O 0.89181 0.46959 0.41505 0.0
O171 O 0.8862 0.4335 0.40409 0.0
O172 O 0.90555 0.50988 0.52189 0.0
O173 O 0.88764 0.42515 0.57454 0.0
O174 O 0.89098 0.46037 0.58266 0.0
C175 C 0.88401 0.45054 0.38204 0.0
C176 C 0.95338 0.47867 0.48916 0.0
O177 O 0.94326 0.49096 0.49784 0.0
O178 O 0.94093 0.45623 0.4841 0.0
C179 C 0.90887 0.51837 0.57957 0.0
O180 O 0.91669 0.50957 0.62475 0.0
C181 C 0.88395 0.43977 0.60601 0.0
Zn182 Zn 0.57655 0.47537 0.50892 0.0
Zn183 Zn 0.53398 0.4347 0.52762 0.0
O184 O 0.54468 0.42842 0.43974 0.0
O185 O 0.58003 0.45999 0.42636 0.0
O186 O 0.50547 0.40377 0.55524 0.0
O187 O 0.58976 0.4723 0.59622 0.0
O188 O 0.55506 0.43991 0.60654 0.0
C189 C 0.56352 0.44011 0.40592 0.0
C190 C 0.53437 0.48122 0.50847 0.0
O191 O 0.52283 0.45886 0.51854 0.0
O192 O 0.55686 0.49199 0.50359 0.0
C193 C 0.4932 0.38575 0.51931 0.0
O194 O 0.49757 0.3873 0.45611 0.0
C195 C 0.57558 0.45422 0.62928 0.0
Zn196 Zn 0.53503 0.1005 0.50503 0.0
Zn197 Zn 0.57732 0.10102 0.51833 0.0
O198 O 0.58191 0.11793 0.43114 0.0
O199 O 0.54894 0.11945 0.42181 0.0
O200 O 0.6091 0.1046 0.54133 0.0
O201 O 0.53928 0.1174 0.59152 0.0
O202 O 0.57292 0.11721 0.59735 0.0
C203 C 0.56905 0.12417 0.39941 0.0
C204 C 0.5314 0.05355 0.50477 0.0
O205 O 0.5539 0.06541 0.51178 0.0
O206 O 0.51959 0.06427 0.50148 0.0
C207 C 0.62509 0.10652 0.50186 0.0
O208 O 0.62064 0.10437 0.43873 0.0
C209 C 0.5584 0.12287 0.62146 0.0
Zn210 Zn 0.77173 0.56686 0.64181 0.0
Zn211 Zn 0.81454 0.56938 0.626 0.0
O212 O 0.80276 0.55248 0.71348 0.0
O213 O 0.76702 0.5478 0.72447 0.0
O214 O 0.8433 0.56633 0.60648 0.0
O215 O 0.75943 0.55064 0.55451 0.0
O216 O 0.79445 0.55354 0.54518 0.0
C217 C 0.78366 0.54489 0.74626 0.0
C218 C 0.81365 0.61523 0.64271 0.0
O219 O 0.82561 0.60477 0.6337 0.0
O220 O 0.79116 0.60313 0.64709 0.0
C221 C 0.85829 0.56777 0.64886 0.0
O222 O 0.85661 0.57384 0.70912 0.0
C223 C 0.77393 0.54711 0.52189 0.0
Zn224 Zn 0.43478 0.20055 0.64203 0.0
Zn225 Zn 0.43552 0.2428 0.62672 0.0
O226 O 0.45235 0.24759 0.71423 0.0
O227 O 0.45382 0.21463 0.72496 0.0
O228 O 0.43957 0.27457 0.60123 0.0
O229 O 0.45125 0.20381 0.55517 0.0
O230 O 0.45106 0.23739 0.5476 0.0
C231 C 0.45849 0.23479 0.74665 0.0
C232 C 0.38795 0.19742 0.643 0.0
O233 O 0.39986 0.21986 0.63477 0.0
O234 O 0.39861 0.18555 0.64651 0.0
C235 C 0.4452 0.29218 0.63874 0.0
O236 O 0.44686 0.28965 0.70202 0.0
C237 C 0.45649 0.22264 0.52397 0.0
Zn238 Zn 0.80852 0.23823 0.62082 0.0
Zn239 Zn 0.76821 0.1956 0.60208 0.0
O240 O 0.76186 0.20562 0.69103 0.0
O241 O 0.79305 0.24123 0.70386 0.0
O242 O 0.73725 0.16738 0.57358 0.0
O243 O 0.80551 0.25192 0.53438 0.0
O244 O 0.77318 0.21716 0.52438 0.0
C245 C 0.77345 0.22441 0.725 0.0
C246 C 0.81496 0.1964 0.62004 0.0
O247 O 0.79259 0.18461 0.61001 0.0
O248 O 0.82544 0.21886 0.62526 0.0
C249 C 0.7204 0.15269 0.60985 0.0
O250 O 0.72329 0.1541 0.67368 0.0
C251 C 0.78723 0.2378 0.50201 0.0
Zn252 Zn 0.4355 0.23616 0.1418 0.0
Zn253 Zn 0.43662 0.19495 0.12701 0.0
O254 O 0.45295 0.20752 0.21476 0.0
O255 O 0.45433 0.24187 0.22541 0.0
O256 O 0.44164 0.16738 0.10741 0.0
O257 O 0.452 0.24913 0.05498 0.0
O258 O 0.45208 0.21548 0.04666 0.0
C259 C 0.45893 0.22637 0.24736 0.0
C260 C 0.38879 0.19222 0.14135 0.0
O261 O 0.40078 0.18176 0.13334 0.0
O262 O 0.39937 0.21472 0.14561 0.0
C263 C 0.44267 0.1536 0.14977 0.0
O264 O 0.43856 0.15596 0.21155 0.0
C265 C 0.45728 0.23567 0.02332 0.0
Zn266 Zn 0.77182 0.19991 0.12397 0.0
Zn267 Zn 0.81323 0.2418 0.10509 0.0
O268 O 0.80173 0.24766 0.19224 0.0
O269 O 0.76721 0.215 0.20552 0.0
O270 O 0.84076 0.27327 0.07643 0.0
O271 O 0.75818 0.20176 0.03612 0.0
O272 O 0.79193 0.23521 0.02584 0.0
C273 C 0.78294 0.2353 0.22577 0.0
C274 C 0.8155 0.19674 0.12697 0.0
O275 O 0.82605 0.21904 0.11617 0.0
O276 O 0.79298 0.18496 0.13113 0.0
C277 C 0.85253 0.29162 0.11162 0.0
O278 O 0.84836 0.29021 0.17492 0.0
C279 C 0.77174 0.22007 0.00295 0.0
Zn280 Zn 0.81141 0.57118 0.14078 0.0
Zn281 Zn 0.7692 0.57045 0.12468 0.0
O282 O 0.76387 0.55343 0.21197 0.0
O283 O 0.7968 0.55197 0.22336 0.0
O284 O 0.73767 0.56697 0.09922 0.0
O285 O 0.80826 0.55474 0.05392 0.0
O286 O 0.77456 0.55471 0.04599 0.0
C287 C 0.77656 0.54726 0.24476 0.0
C288 C 0.81474 0.61796 0.14195 0.0
O289 O 0.79233 0.606 0.13322 0.0
O290 O 0.82668 0.60739 0.14565 0.0
C291 C 0.72162 0.56578 0.13718 0.0
O292 O 0.72567 0.5684 0.20049 0.0
C293 C 0.78944 0.54939 0.02254 0.0
Zn294 Zn 0.57527 0.10567 0.00366 0.0
Zn295 Zn 0.53256 0.10386 0.01665 0.0
O296 O 0.54531 0.12035 0.92936 0.0
O297 O 0.58083 0.12433 0.91987 0.0
O298 O 0.50378 0.10747 0.0305 0.0
O299 O 0.58694 0.12222 0.09081 0.0
O300 O 0.55208 0.1198 0.09811 0.0
C301 C 0.56449 0.12755 0.89724 0.0
C302 C 0.53286 0.05758 0.00371 0.0
O303 O 0.52111 0.06834 0.01109 0.0
O304 O 0.55538 0.06942 -0.00016 0.0
C305 C 0.49394 0.1043 0.0863 0.0
O306 O 0.50133 0.09624 0.13458 0.0
C307 C 0.57241 0.12604 0.12236 0.0
Zn308 Zn 0.90883 0.47711 -0.01417 0.0
Zn309 Zn 0.90686 0.4343 0.00172 0.0
O310 O 0.88968 0.42956 0.91479 0.0
O311 O 0.88939 0.46311 0.90351 0.0
O312 O 0.90246 0.40239 0.02747 0.0
O313 O 0.89281 0.47444 0.07308 0.0
O314 O 0.89195 0.44037 0.08124 0.0
C315 C 0.88396 0.44268 0.88228 0.0
C316 C 0.95501 0.47904 0.98403 0.0
O317 O 0.94262 0.45666 -0.00734 0.0
O318 O 0.94489 0.49141 0.98048 0.0
C319 C 0.89775 0.38496 -0.00987 0.0
O320 O 0.89697 0.38759 0.92653 0.0
C321 C 0.88726 0.45565 0.10487 0.0
Zn322 Zn 0.53749 0.43747 0.01002 0.0
Zn323 Zn 0.57893 0.4793 0.02873 0.0
O324 O 0.58513 0.46872 0.94064 0.0
O325 O 0.55296 0.43382 0.92764 0.0
O326 O 0.6101 0.50698 0.05802 0.0
O327 O 0.53986 0.4237 0.09728 0.0
O328 O 0.5731 0.45769 0.10661 0.0
C329 C 0.573 0.44999 0.90683 0.0
C330 C 0.53317 0.48048 0.00911 0.0
O331 O 0.55551 0.49138 0.01949 0.0
O332 O 0.52176 0.45798 0.00437 0.0
C333 C 0.62738 0.52148 0.02265 0.0
O334 O 0.62502 0.52022 0.95864 0.0
C335 C 0.55841 0.43733 0.1294 0.0
Zn336 Zn 0.57271 0.76814 0.84016 0.0
Zn337 Zn 0.57558 0.81133 0.85704 0.0
O338 O 0.55857 0.80062 0.76928 0.0
O339 O 0.55399 0.76491 0.75733 0.0
O340 O 0.57342 0.84001 0.8845 0.0
O341 O 0.55621 0.75539 0.92759 0.0
O342 O 0.55914 0.79042 0.93566 0.0
C343 C 0.55104 0.7816 0.73615 0.0
C344 C 0.62119 0.80977 0.83894 0.0
O345 O 0.61081 0.82178 0.84833 0.0
O346 O 0.60903 0.78729 0.83484 0.0
C347 C 0.56701 0.85179 0.84864 0.0
O348 O 0.56375 0.84706 0.78571 0.0
C349 C 0.55237 0.7699 0.95913 0.0
Zn350 Zn 0.24296 0.80735 0.82597 0.0
Zn351 Zn 0.2012 0.76516 0.84081 0.0
O352 O 0.21343 0.76014 0.75405 0.0
O353 O 0.2479 0.79306 0.74328 0.0
O354 O 0.17296 0.7336 0.86513 0.0
O355 O 0.25564 0.80372 0.91341 0.0
O356 O 0.22177 0.77017 0.92046 0.0
C357 C 0.23244 0.77285 0.72177 0.0
C358 C 0.19954 0.81084 0.8239 0.0
O359 O 0.18892 0.7884 0.83208 0.0
O360 O 0.22208 0.82267 0.82082 0.0
C361 C 0.16023 0.71661 0.82648 0.0
O362 O 0.16418 0.71976 0.76316 0.0
C363 C 0.24192 0.78487 0.94438 0.0
Zn364 Zn 0.20456 0.4399 0.82972 0.0
Zn365 Zn 0.24474 0.43731 0.84859 0.0
O366 O 0.25159 0.45482 0.76135 0.0
O367 O 0.22052 0.45944 0.74853 0.0
O368 O 0.27556 0.43941 0.87585 0.0
O369 O 0.20721 0.45552 0.91769 0.0
O370 O 0.23947 0.45297 0.928 0.0
C371 C 0.24029 0.46251 0.72793 0.0
C372 C 0.19803 0.39164 0.8266 0.0
O373 O 0.22032 0.40211 0.83782 0.0
O374 O 0.18758 0.40366 0.82201 0.0
C375 C 0.29184 0.44077 0.83854 0.0
O376 O 0.2883 0.43881 0.77498 0.0
C377 C 0.22518 0.45918 0.95086 0.0
Zn378 Zn 0.43772 0.90711 0.97843 0.0
Zn379 Zn 0.47963 0.90676 0.96381 0.0
O380 O 0.46766 0.8897 0.05102 0.0
O381 O 0.43323 0.88827 0.06171 0.0
O382 O 0.50799 0.90377 0.93804 0.0
O383 O 0.42486 0.89025 0.89179 0.0
O384 O 0.45879 0.89071 0.88504 0.0
C385 C 0.44866 0.88349 0.08331 0.0
C386 C 0.48089 0.95411 0.97826 0.0
O387 O 0.49154 0.94228 0.97102 0.0
O388 O 0.45836 0.94337 0.98179 0.0
C389 C 0.51913 0.89646 0.97336 0.0
O390 O 0.51351 0.89196 0.03562 0.0
C391 C 0.4386 0.88509 0.86105 0.0
Zn392 Zn 0.1061 0.53332 0.95386 0.0
Zn393 Zn 0.10468 0.57421 0.93543 0.0
O394 O 0.12096 0.58025 0.02434 0.0
O395 O 0.12454 0.54856 0.03717 0.0
O396 O 0.10777 0.60525 0.90659 0.0
O397 O 0.12287 0.53636 0.86739 0.0
O398 O 0.12107 0.56904 0.85793 0.0
C399 C 0.12777 0.56832 0.05833 0.0
C400 C 0.05821 0.52787 0.95199 0.0
O401 O 0.06924 0.55027 0.94255 0.0
O402 O 0.06977 0.51695 0.95742 0.0
C403 C 0.11074 0.62254 0.94214 0.0
O404 O 0.11006 0.62023 0.00615 0.0
C405 C 0.12735 0.5548 0.83529 0.0
Zn406 Zn 0.47326 0.57211 0.96949 0.0
Zn407 Zn 0.43344 0.52902 0.95068 0.0
O408 O 0.42659 0.5388 0.03937 0.0
O409 O 0.45734 0.57471 0.0521 0.0
O410 O 0.40292 0.50043 0.92111 0.0
O411 O 0.47007 0.58555 0.88277 0.0
O412 O 0.43815 0.55046 0.87297 0.0
C413 C 0.43786 0.55768 0.0732 0.0
C414 C 0.4807 0.53091 0.96954 0.0
O415 O 0.45836 0.51876 0.95925 0.0
O416 O 0.4908 0.55335 0.97459 0.0
C417 C 0.38551 0.48604 0.95633 0.0
O418 O 0.38744 0.48795 0.02037 0.0
C419 C 0.45191 0.57115 0.85043 0.0
Zn420 Zn 0.10423 0.57099 0.45656 0.0
Zn421 Zn 0.1034 0.52883 0.4387 0.0
O422 O 0.12071 0.54027 0.52578 0.0
O423 O 0.12352 0.57519 0.53882 0.0
O424 O 0.10637 0.50042 0.41376 0.0
O425 O 0.12029 0.5839 0.36878 0.0
O426 O 0.11894 0.54963 0.35902 0.0
C427 C 0.12759 0.55913 0.55917 0.0
C428 C 0.05667 0.52826 0.4578 0.0
O429 O 0.06796 0.51718 0.448 0.0
O430 O 0.06795 0.55077 0.46235 0.0
C431 C 0.10978 0.48725 0.45307 0.0
O432 O 0.10951 0.4907 0.51638 0.0
C433 C 0.12465 0.56999 0.33602 0.0
Zn434 Zn 0.43682 0.53321 0.47161 0.0
Zn435 Zn 0.47781 0.57548 0.45284 0.0
O436 O 0.46622 0.58094 0.54035 0.0
O437 O 0.43205 0.54789 0.55378 0.0
O438 O 0.50541 0.60712 0.42568 0.0
O439 O 0.4231 0.53523 0.38412 0.0
O440 O 0.45649 0.56904 0.3736 0.0
C441 C 0.44755 0.56829 0.57405 0.0
C442 C 0.48075 0.53064 0.47262 0.0
O443 O 0.49094 0.55296 0.46244 0.0
O444 O 0.45826 0.51855 0.47742 0.0
C445 C 0.51798 0.62485 0.46225 0.0
O446 O 0.51428 0.62277 0.52581 0.0
C447 C 0.43634 0.55366 0.35097 0.0
Zn448 Zn 0.47372 0.90186 0.47862 0.0
Zn449 Zn 0.43302 0.90407 0.46417 0.0
O450 O 0.42877 0.88779 0.55194 0.0
O451 O 0.45986 0.88311 0.56221 0.0
O452 O 0.40082 0.90058 0.44799 0.0
O453 O 0.46918 0.8854 0.39126 0.0
O454 O 0.43676 0.88785 0.38373 0.0
C455 C 0.44042 0.88034 0.58457 0.0
C456 C 0.47972 0.95013 0.47804 0.0
O457 O 0.45726 0.9395 0.46974 0.0
O458 O 0.49026 0.93817 0.48273 0.0
C459 C 0.39473 0.90359 0.39118 0.0
O460 O 0.4107 0.91159 0.34417 0.0
C461 C 0.45077 0.88147 0.35985 0.0
Zn462 Zn 0.24447 0.43996 0.33168 0.0
Zn463 Zn 0.20156 0.43712 0.35072 0.0
O464 O 0.21157 0.45389 0.26238 0.0
O465 O 0.24728 0.45859 0.24904 0.0
O466 O 0.17287 0.43906 0.37893 0.0
O467 O 0.25786 0.45655 0.41844 0.0
O468 O 0.22288 0.45361 0.42877 0.0
C469 C 0.2304 0.46135 0.22834 0.0
C470 C 0.20294 0.39152 0.33197 0.0
O471 O 0.19102 0.40194 0.34214 0.0
O472 O 0.22541 0.40364 0.32681 0.0
C473 C 0.15754 0.44018 0.34284 0.0
O474 O 0.15875 0.43841 0.27904 0.0
C475 C 0.24353 0.46028 0.45128 0.0
Zn476 Zn 0.57232 0.80846 0.3396 0.0
Zn477 Zn 0.5742 0.76766 0.35659 0.0
O478 O 0.5572 0.76189 0.26897 0.0
O479 O 0.55335 0.79344 0.25686 0.0
O480 O 0.57129 0.73638 0.3827 0.0
O481 O 0.55619 0.80514 0.42734 0.0
O482 O 0.55835 0.77262 0.43589 0.0
C483 C 0.55001 0.77366 0.23572 0.0
C484 C 0.62036 0.81416 0.33795 0.0
O485 O 0.6096 0.79177 0.3476 0.0
O486 O 0.60858 0.82488 0.33382 0.0
C487 C 0.56573 0.7188 0.3451 0.0
O488 O 0.5638 0.72129 0.28193 0.0
C489 C 0.55211 0.78679 0.45929 0.0
Zn490 Zn 0.20665 0.7683 0.32746 0.0
Zn491 Zn 0.24768 0.81086 0.34175 0.0
O492 O 0.25212 0.79889 0.25378 0.0
O493 O 0.22025 0.76364 0.24327 0.0
O494 O 0.27966 0.83935 0.36181 0.0
O495 O 0.21116 0.75582 0.4139 0.0
O496 O 0.24366 0.7906 0.42193 0.0
C497 C 0.23996 0.77989 0.2211 0.0
C498 C 0.20107 0.81069 0.32881 0.0
O499 O 0.2236 0.82233 0.33596 0.0
O500 O 0.19028 0.78819 0.32479 0.0
C501 C 0.29491 0.85271 0.31965 0.0
O502 O 0.28922 0.84939 0.25726 0.0
C503 C 0.22961 0.77013 0.44539 0.0
C504 C 0.20226 0.09267 0.89647 0.0
C505 C 0.20772 0.11399 0.8644 0.0
C506 C 0.20179 0.09122 0.96477 0.0
C507 C 0.20683 0.11106 0.00365 0.0
H508 H 0.20021 0.07752 0.86888 0.0
H509 H 0.19948 0.07503 -0.01313 0.0
S510 S 0.21479 0.16857 0.94345 0.0
N511 N 0.21287 0.15357 0.87627 0.0
N512 N 0.21177 0.15079 0.00504 0.0
C513 C 0.20876 0.13128 0.97222 0.0
C514 C 0.20927 0.13277 0.90236 0.0
C515 C 0.91393 0.11061 0.88824 0.0
C516 C 0.89242 0.09593 0.85536 0.0
C517 C 0.91516 0.1109 0.95657 0.0
C518 C 0.89489 0.09659 -0.00523 0.0
H519 H 0.92957 0.12329 0.86133 0.0
H520 H 0.93166 0.12387 0.97941 0.0
S521 S 0.83611 0.0502 0.93197 0.0
N522 N 0.85177 0.06316 0.8655 0.0
N523 N 0.85408 0.06362 -0.0057 0.0
C524 C 0.87419 0.07948 0.96236 0.0
C525 C 0.87295 0.07919 0.89245 0.0
C526 C 0.92684 0.7922 0.96981 0.0
C527 C 0.91127 0.79807 0.00203 0.0
C528 C 0.92726 0.79109 0.90133 0.0
C529 C 0.91215 0.79585 0.86294 0.0
H530 H 0.93719 0.7863 -0.00261 0.0
H531 H 0.93786 0.78438 0.87895 0.0
S532 S 0.87365 0.81903 0.92265 0.0
N533 N 0.88451 0.81389 -0.01014 0.0
N534 N 0.88532 0.81181 0.86116 0.0
C535 C 0.89905 0.80491 0.89417 0.0
C536 C 0.89862 0.80605 0.96381 0.0
C537 C 0.13909 0.21592 0.49671 0.0
C538 C 0.11781 0.20994 0.46347 0.0
C539 C 0.14009 0.21662 0.56529 0.0
C540 C 0.11983 0.2113 0.60267 0.0
H541 H 0.15559 0.22232 0.46994 0.0
H542 H 0.15728 0.2235 0.5886 0.0
S543 S 0.05847 0.18748 0.53959 0.0
N544 N 0.07504 0.19335 0.47325 0.0
N545 N 0.07691 0.19459 0.60213 0.0
C546 C 0.09785 0.20204 0.57024 0.0
C547 C 0.09684 0.20135 0.50052 0.0
C548 C 0.80697 0.89473 0.50982 0.0
C549 C 0.80155 0.90958 0.47239 0.0
C550 C 0.80638 0.89501 0.57819 0.0
C551 C 0.80036 0.91017 0.61182 0.0
H552 H 0.80977 0.88137 0.48637 0.0
H553 H 0.80883 0.88191 0.60453 0.0
S554 S 0.79173 0.95741 0.5371 0.0
N555 N 0.79533 0.94358 0.47416 0.0
N556 N 0.79407 0.944 0.60305 0.0
C557 C 0.79829 0.92744 0.57538 0.0
C558 C 0.79894 0.92719 0.50544 0.0
C559 C 0.08726 0.87508 0.57033 0.0
C560 C 0.10275 0.89492 0.60821 0.0
C561 C 0.08827 0.87612 0.50178 0.0
C562 C 0.10483 0.89703 0.46904 0.0
H563 H 0.0759 0.85804 0.59339 0.0
H564 H 0.07757 0.85981 0.47483 0.0
S565 S 0.14382 0.95569 0.54614 0.0
N566 N 0.13104 0.93739 0.60835 0.0
N567 N 0.13296 0.93937 0.47951 0.0
C568 C 0.1179 0.9178 0.50636 0.0
C569 C 0.11686 0.91673 0.57607 0.0
C570 C 0.80653 0.91265 0.07883 0.0
C571 C 0.80024 0.89135 0.1123 0.0
C572 C 0.80754 0.91371 0.01048 0.0
C573 C 0.80223 0.89351 0.97294 0.0
H574 H 0.80888 0.92815 0.10517 0.0
H575 H 0.8105 0.92995 -0.01291 0.0
S576 S 0.792 0.83568 0.03755 0.0
N577 N 0.79395 0.85125 0.1035 0.0
N578 N 0.79599 0.85329 0.97468 0.0
C579 C 0.79942 0.87321 0.00599 0.0
C580 C 0.79835 0.87211 0.0759 0.0
C581 C 0.14171 0.92551 0.07078 0.0
C582 C 0.12162 0.91085 0.1091 0.0
C583 C 0.14032 0.92496 0.00225 0.0
C584 C 0.11881 0.9097 0.96992 0.0
H585 H 0.15902 0.93587 0.09336 0.0
H586 H 0.15667 0.93497 0.97479 0.0
S587 S 0.05988 0.8732 0.04879 0.0
N588 N 0.0787 0.8847 0.11045 0.0
N589 N 0.07608 0.88364 0.98171 0.0
C590 C 0.09805 0.89745 0.00794 0.0
C591 C 0.09947 0.89802 0.07761 0.0
C592 C 0.11759 0.20642 0.00046 0.0
C593 C 0.10258 0.21166 0.96309 0.0
C594 C 0.11746 0.20719 0.06884 0.0
C595 C 0.10228 0.21318 0.10259 0.0
H596 H 0.13092 0.20359 0.97692 0.0
H597 H 0.13064 0.20483 0.09505 0.0
S598 S 0.05489 0.22167 0.02828 0.0
N599 N 0.0686 0.21792 0.96523 0.0
N600 N 0.06844 0.21946 0.0941 0.0
C601 C 0.08496 0.21519 0.06629 0.0
C602 C 0.08507 0.21438 -0.00365 0.0
C603 C 0.87553 0.79244 0.40214 0.0
C604 C 0.89562 0.79737 0.36444 0.0
C605 C 0.87644 0.79235 0.4707 0.0
C606 C 0.89744 0.79715 0.50365 0.0
H607 H 0.85848 0.78647 0.37887 0.0
H608 H 0.86 0.78635 0.49749 0.0
S609 S 0.95651 0.81812 0.42717 0.0
N610 N 0.93825 0.81238 0.36478 0.0
N611 N 0.93997 0.81221 0.49362 0.0
C612 C 0.91836 0.80532 0.46655 0.0
C613 C 0.91743 0.80541 0.39684 0.0
C614 C 0.20246 0.11192 0.46416 0.0
C615 C 0.20735 0.09704 0.50327 0.0
C616 C 0.20331 0.11116 0.39589 0.0
C617 C 0.209 0.09545 0.36404 0.0
H618 H 0.19991 0.12566 0.48615 0.0
H619 H 0.20127 0.12427 0.36821 0.0
S620 S 0.21611 0.04797 0.44344 0.0
N621 N 0.21264 0.06247 0.50489 0.0
N622 N 0.21442 0.06118 0.37617 0.0
C623 C 0.21054 0.07821 0.4021 0.0
C624 C 0.20965 0.07897 0.47194 0.0
C625 C 0.89634 0.09128 0.45634 0.0
C626 C 0.91172 0.11103 0.49472 0.0
C627 C 0.89695 0.09263 0.38802 0.0
C628 C 0.913 0.11376 0.35543 0.0
H629 H 0.8823 0.07531 0.47894 0.0
H630 H 0.88342 0.0776 0.36093 0.0
S631 S 0.96189 0.16784 0.43279 0.0
N632 N 0.94718 0.15031 0.49489 0.0
N633 N 0.94817 0.15291 0.36608 0.0
C634 C 0.93076 0.13236 0.39276 0.0
C635 C 0.93017 0.13096 0.46265 0.0
C636 C 0.87246 0.43127 0.20618 0.0
C637 C 0.8789 0.45275 0.17354 0.0
C638 C 0.87147 0.42991 0.27448 0.0
C639 C 0.87692 0.44999 0.31276 0.0
H640 H 0.86995 0.41583 0.17919 0.0
H641 H 0.86834 0.41352 0.29721 0.0
S642 S 0.88777 0.50833 0.2505 0.0
N643 N 0.88561 0.49296 0.18393 0.0
N644 N 0.88364 0.49041 0.31269 0.0
C645 C 0.88 0.47054 0.28056 0.0
C646 C 0.88103 0.47193 0.21073 0.0
C647 C 0.54117 0.41743 0.23618 0.0
C648 C 0.56134 0.43187 0.19791 0.0
C649 C 0.54251 0.41807 0.30473 0.0
C650 C 0.56406 0.43322 0.33707 0.0
H651 H 0.52385 0.40726 0.21352 0.0
H652 H 0.52611 0.40832 0.33216 0.0
S653 S 0.62314 0.46892 0.25839 0.0
N654 N 0.60433 0.45753 0.19666 0.0
N655 N 0.60687 0.45876 0.32544 0.0
C656 C 0.58487 0.44514 0.29914 0.0
C657 C 0.5835 0.44448 0.22946 0.0
C658 C 0.55895 0.13631 0.29406 0.0
C659 C 0.57521 0.13278 0.33103 0.0
C660 C 0.55977 0.13672 0.22571 0.0
C661 C 0.57689 0.13364 0.19174 0.0
H662 H 0.54423 0.13677 0.31758 0.0
H663 H 0.54568 0.13753 0.19956 0.0
S664 S 0.62798 0.13151 0.26604 0.0
N665 N 0.6123 0.13196 0.32912 0.0
N666 N 0.61377 0.13259 0.20023 0.0
C667 C 0.59532 0.13367 0.2281 0.0
C668 C 0.5945 0.13327 0.29799 0.0
C669 C 0.76302 0.5331 0.85394 0.0
C670 C 0.78279 0.53756 0.81544 0.0
C671 C 0.76461 0.53453 0.92215 0.0
C672 C 0.78602 0.54043 0.95445 0.0
H673 H 0.74682 0.53056 0.83136 0.0
H674 H 0.74949 0.53286 0.94919 0.0
S675 S 0.84028 0.54591 0.8772 0.0
N676 N 0.8224 0.54215 0.81523 0.0
N677 N 0.82548 0.54511 0.94385 0.0
C678 C 0.80469 0.54134 0.91726 0.0
C679 C 0.80304 0.5398 0.8475 0.0
C680 C 0.46111 0.25657 0.84959 0.0
C681 C 0.46637 0.24094 0.81542 0.0
C682 C 0.46065 0.25669 0.91816 0.0
C683 C 0.46546 0.2412 0.95464 0.0
H684 H 0.45514 0.26717 0.8236 0.0
H685 H 0.45437 0.26738 0.94221 0.0
S686 S 0.48745 0.2025 0.88874 0.0
N687 N 0.48185 0.21379 0.82319 0.0
N688 N 0.48099 0.21401 0.95213 0.0
C689 C 0.47401 0.22805 0.92123 0.0
C690 C 0.47449 0.22794 0.85147 0.0
C691 C 0.78145 0.24517 0.83241 0.0
C692 C 0.76691 0.22495 0.79442 0.0
C693 C 0.78118 0.244 0.90076 0.0
C694 C 0.7663 0.22259 0.9339 0.0
H695 H 0.79455 0.26159 0.80939 0.0
H696 H 0.79401 0.25959 0.92745 0.0
S697 S 0.72007 0.16648 0.85791 0.0
N698 N 0.73362 0.18433 0.79538 0.0
N699 N 0.7332 0.18211 0.9242 0.0
C700 C 0.74941 0.20318 0.89701 0.0
C701 C 0.74968 0.20438 0.82708 0.0
C702 C 0.46064 0.20581 0.41832 0.0
C703 C 0.46498 0.22578 0.45553 0.0
C704 C 0.46141 0.20682 0.34979 0.0
C705 C 0.46646 0.22782 0.3164 0.0
H706 H 0.45452 0.18875 0.44171 0.0
H707 H 0.45583 0.19046 0.32318 0.0
S708 S 0.48624 0.2867 0.39206 0.0
N709 N 0.47985 0.26841 0.45471 0.0
N710 N 0.48117 0.27027 0.32585 0.0
C711 C 0.47408 0.24866 0.35327 0.0
C712 C 0.47334 0.24764 0.42298 0.0
C713 C 0.80414 0.25837 0.39578 0.0
C714 C 0.78411 0.24318 0.43358 0.0
C715 C 0.803 0.25782 0.3272 0.0
C716 C 0.7818 0.24204 0.29439 0.0
H717 H 0.82132 0.26908 0.41881 0.0
H718 H 0.81939 0.26817 0.30015 0.0
S719 S 0.72285 0.20421 0.37172 0.0
N720 N 0.74136 0.21607 0.43389 0.0
N721 N 0.7392 0.21505 0.30504 0.0
C722 C 0.76096 0.22934 0.33185 0.0
C723 C 0.76214 0.22989 0.40156 0.0
C724 C 0.78541 0.53496 0.419 0.0
C725 C 0.76904 0.53927 0.45274 0.0
C726 C 0.78596 0.5348 0.35063 0.0
C727 C 0.7702 0.53901 0.31338 0.0
H728 H 0.79914 0.53356 0.44531 0.0
H729 H 0.80015 0.53336 0.32718 0.0
S730 S 0.71936 0.54387 0.37816 0.0
N731 N 0.73331 0.54241 0.44406 0.0
N732 N 0.73428 0.54201 0.31516 0.0
C733 C 0.75157 0.53982 0.3464 0.0
C734 C 0.75102 0.53999 0.41632 0.0
C735 C 0.54263 0.1282 0.72745 0.0
C736 C 0.56223 0.13204 0.68918 0.0
C737 C 0.54425 0.12956 0.79582 0.0
C738 C 0.5655 0.13472 0.828 0.0
H739 H 0.52537 0.12198 0.70518 0.0
H740 H 0.52812 0.12434 0.82341 0.0
S741 S 0.6237 0.15367 0.74862 0.0
N742 N 0.60485 0.14679 0.68719 0.0
N743 N 0.60787 0.14925 0.81584 0.0
C744 C 0.58602 0.14199 0.78982 0.0
C745 C 0.58438 0.14063 0.72023 0.0
C746 C 0.87929 0.4188 0.712 0.0
C747 C 0.87572 0.43496 0.67472 0.0
C748 C 0.87921 0.41949 0.78055 0.0
C749 C 0.87559 0.43639 0.81389 0.0
H750 H 0.88439 0.40707 0.68849 0.0
H751 H 0.88424 0.40823 0.80708 0.0
S752 S 0.85808 0.47738 0.73845 0.0
N753 N 0.86301 0.4644 0.67574 0.0
N754 N 0.86287 0.46574 0.80461 0.0
C755 C 0.86863 0.45023 0.77714 0.0
C756 C 0.86872 0.44951 0.70742 0.0
C757 C 0.56506 0.43012 0.73136 0.0
C758 C 0.58072 0.45128 0.69828 0.0
C759 C 0.56453 0.42898 0.79972 0.0
C760 C 0.5796 0.44898 0.83776 0.0
H761 H 0.55181 0.41481 0.70455 0.0
H762 H 0.55084 0.41286 0.82264 0.0
S763 S 0.62845 0.50641 0.77464 0.0
N764 N 0.61505 0.49103 0.70823 0.0
N765 N 0.61415 0.48887 0.83708 0.0
C766 C 0.59757 0.46914 0.80525 0.0
C767 C 0.5981 0.4703 0.73532 0.0
C768 C 0.54918 0.80233 0.63515 0.0
C769 C 0.54342 0.78091 0.66736 0.0
C770 C 0.54951 0.80368 0.56661 0.0
C771 C 0.54409 0.78365 0.52817 0.0
H772 H 0.55554 0.81866 0.6626 0.0
H773 H 0.55616 0.82095 0.544 0.0
S774 S 0.52109 0.72208 0.58839 0.0
N775 N 0.52708 0.73825 0.65552 0.0
N776 N 0.52779 0.74084 0.52676 0.0
C777 C 0.53521 0.76156 0.55968 0.0
C778 C 0.53483 0.76017 0.62936 0.0
C779 C 0.21277 0.7494 0.55135 0.0
C780 C 0.23275 0.76514 0.51416 0.0
C781 C 0.21353 0.75003 0.6199 0.0
C782 C 0.23429 0.76644 0.65333 0.0
H783 H 0.19583 0.73809 0.52779 0.0
H784 H 0.19711 0.73915 0.64635 0.0
S785 S 0.29327 0.80593 0.57814 0.0
N786 N 0.27522 0.79349 0.51532 0.0
N787 N 0.27668 0.79467 0.64424 0.0
C788 C 0.25522 0.77975 0.61667 0.0
C789 C 0.25444 0.77911 0.54693 0.0
C790 C 0.23306 0.47448 0.55208 0.0
C791 C 0.24871 0.46876 0.51987 0.0
C792 C 0.2324 0.47529 0.62037 0.0
C793 C 0.24729 0.4703 0.65915 0.0
H794 H 0.21989 0.4765 0.52467 0.0
H795 H 0.21867 0.4778 0.64263 0.0
S796 S 0.29634 0.46165 0.59827 0.0
N797 N 0.28304 0.46339 0.53128 0.0
N798 N 0.28191 0.46506 0.66004 0.0
C799 C 0.26536 0.46808 0.62744 0.0
C800 C 0.26603 0.46724 0.55757 0.0
C801 C 0.46722 0.87877 0.18495 0.0
C802 C 0.44663 0.87494 0.15153 0.0
C803 C 0.46777 0.87824 0.25348 0.0
C804 C 0.44774 0.87385 0.29066 0.0
H805 H 0.48367 0.88434 0.15864 0.0
H806 H 0.4846 0.88348 0.27719 0.0
S807 S 0.38758 0.85554 0.22622 0.0
N808 N 0.40432 0.86127 0.16029 0.0
N809 N 0.40538 0.86027 0.28911 0.0
C810 C 0.4262 0.86671 0.25766 0.0
C811 C 0.42563 0.86725 0.18796 0.0
C812 C 0.13991 0.55973 0.16598 0.0
C813 C 0.13488 0.57472 0.12775 0.0
C814 C 0.13889 0.56 0.23431 0.0
C815 C 0.13289 0.57532 0.26716 0.0
H816 H 0.14274 0.54631 0.14316 0.0
H817 H 0.14108 0.54684 0.26119 0.0
S818 S 0.12508 0.62279 0.19054 0.0
N819 N 0.12892 0.60887 0.12824 0.0
N820 N 0.1269 0.60929 0.25701 0.0
C821 C 0.13113 0.59263 0.23007 0.0
C822 C 0.13217 0.59236 0.16018 0.0
C823 C 0.44539 0.57856 0.18033 0.0
C824 C 0.43119 0.55818 0.14251 0.0
C825 C 0.44517 0.57748 0.2487 0.0
C826 C 0.43067 0.556 0.28201 0.0
H827 H 0.45825 0.59506 0.15717 0.0
H828 H 0.4578 0.59321 0.27527 0.0
S829 S 0.38523 0.49937 0.20649 0.0
N830 N 0.39849 0.51725 0.14382 0.0
N831 N 0.39814 0.51522 0.27265 0.0
C832 C 0.41402 0.53638 0.24528 0.0
C833 C 0.41425 0.53748 0.17535 0.0
C834 C 0.13021 0.53775 0.72861 0.0
C835 C 0.13559 0.55785 0.76664 0.0
C836 C 0.13029 0.53888 0.66005 0.0
C837 C 0.13571 0.56014 0.6275 0.0
H838 H 0.1237 0.52055 0.75157 0.0
H839 H 0.12389 0.52247 0.63295 0.0
S840 S 0.15812 0.61919 0.70506 0.0
N841 N 0.15176 0.60066 0.76712 0.0
N842 N 0.15189 0.6028 0.63829 0.0
C843 C 0.14437 0.581 0.66497 0.0
C844 C 0.1443 0.57985 0.73466 0.0
C845 C 0.46858 0.59167 0.74399 0.0
C846 C 0.44866 0.5763 0.7819 0.0
C847 C 0.46743 0.59101 0.67541 0.0
C848 C 0.44631 0.57493 0.64271 0.0
H849 H 0.48572 0.60264 0.76697 0.0
H850 H 0.48376 0.60154 0.64829 0.0
S851 S 0.38755 0.53643 0.72027 0.0
N852 N 0.40603 0.54863 0.78236 0.0
N853 N 0.40383 0.54739 0.65352 0.0
C854 C 0.42554 0.562 0.68024 0.0
C855 C 0.42673 0.56266 0.74994 0.0
C856 C 0.44935 0.87072 0.76102 0.0
C857 C 0.43339 0.8761 0.79294 0.0
C858 C 0.4497 0.8693 0.69282 0.0
C859 C 0.43413 0.87325 0.65395 0.0
H860 H 0.46297 0.86945 0.78837 0.0
H861 H 0.46366 0.86715 0.67057 0.0
S862 S 0.38414 0.88042 0.71456 0.0
N863 N 0.39812 0.87988 0.78151 0.0
N864 N 0.39866 0.87707 0.65292 0.0
C865 C 0.41582 0.87509 0.68561 0.0
C866 C 0.41549 0.87657 0.75533 0.0
C867 C 0.25094 0.47414 0.12054 0.0
C868 C 0.2309 0.46868 0.15921 0.0
C869 C 0.24954 0.47334 0.05223 0.0
C870 C 0.2281 0.46719 0.01985 0.0
H871 H 0.26733 0.47712 0.14294 0.0
H872 H 0.26494 0.47584 0.0249 0.0
S873 S 0.17256 0.45816 0.0979 0.0
N874 N 0.19052 0.46208 0.15979 0.0
N875 N 0.18789 0.4605 0.03102 0.0
C876 C 0.20895 0.46499 0.05746 0.0
C877 C 0.21036 0.46578 0.12734 0.0
C878 C 0.54851 0.74994 0.06654 0.0
C879 C 0.54392 0.76506 0.02767 0.0
C880 C 0.54781 0.75084 0.13504 0.0
C881 C 0.54253 0.76692 0.16677 0.0
H882 H 0.5548 0.73895 0.04439 0.0
H883 H 0.55356 0.74043 0.1629 0.0
S884 S 0.5223 0.80496 0.08625 0.0
N885 N 0.52881 0.79258 0.02512 0.0
N886 N 0.52745 0.79427 0.15379 0.0
C887 C 0.53472 0.77964 0.1282 0.0
C888 C 0.53546 0.77873 0.05856 0.0
C889 C 0.26197 0.80018 0.11922 0.0
C890 C 0.24622 0.77892 0.1519 0.0
C891 C 0.26239 0.8015 0.05073 0.0
C892 C 0.24712 0.78158 0.01281 0.0
H893 H 0.2725 0.81648 0.14639 0.0
H894 H 0.27317 0.81871 0.02793 0.0
S895 S 0.20808 0.7202 0.07408 0.0
N896 N 0.21908 0.73638 0.14089 0.0
N897 N 0.21991 0.73885 0.01211 0.0
C898 C 0.23381 0.75954 0.04459 0.0
C899 C 0.23337 0.7582 0.11427 0.0
C900 C 0.21564 0.21529 0.29873 0.0
C901 C 0.20621 0.22585 0.25741 0.0
C902 C 0.22692 0.20347 0.27306 0.0
C903 C 0.22936 0.20181 0.20496 0.0
H904 H 0.21331 0.21507 0.35132 0.0
H905 H 0.2329 0.19474 0.30704 0.0
S906 S 0.21094 0.22959 0.07581 0.0
N907 N 0.20249 0.23625 0.14506 0.0
N908 N 0.22368 0.21405 0.09692 0.0
C909 C 0.2216 0.21382 0.16322 0.0
C910 C 0.21002 0.2258 0.18939 0.0
C911 C 0.78486 0.98453 0.19676 0.0
C912 C 0.78318 0.98107 0.26515 0.0
C913 C 0.79608 0.00737 0.16939 0.0
C914 C 0.80626 0.02774 0.20927 0.0
H915 H 0.77827 0.96948 0.16384 0.0
H916 H 0.79784 0.009 0.11659 0.0
S917 S 0.80381 0.02851 0.3911 0.0
N918 N 0.79044 1.00002 0.37204 0.0
N919 N 0.81158 0.04294 0.32069 0.0
C920 C 0.80326 0.02455 0.27766 0.0
C921 C 0.7917 1.00124 0.30556 0.0
C922 C 0.98803 0.78764 0.27497 0.0
C923 C 0.98465 0.78503 0.20661 0.0
C924 C 0.01085 0.79933 0.30246 0.0
C925 C 0.03131 0.80889 0.26283 0.0
H926 H 0.97296 0.78158 0.30771 0.0
H927 H 0.01238 0.80175 0.35509 0.0
S928 S 0.03229 0.8037 0.0816 0.0
N929 N 1.00378 0.79068 0.10038 0.0
N930 N 0.04664 0.81256 0.15188 0.0
C931 C 0.0282 0.80495 0.19468 0.0
C932 C 1.00491 0.79306 0.16665 0.0
C933 C 0.79945 0.79236 0.67067 0.0
C934 C 0.80911 0.78169 0.71076 0.0
C935 C 0.78785 0.80365 0.69768 0.0
C936 C 0.7853 0.80468 0.76596 0.0
H937 H 0.80176 0.79299 0.61801 0.0
H938 H 0.78162 0.81241 0.66459 0.0
S939 S 0.80452 0.77665 0.89229 0.0
N940 N 0.81314 0.77071 0.82224 0.0
N941 N 0.79135 0.79193 0.87283 0.0
C942 C 0.79341 0.79267 0.80648 0.0
C943 C 0.80531 0.78119 0.77895 0.0
C944 C 0.22671 0.02468 0.77639 0.0
C945 C 0.22922 0.02854 0.70819 0.0
C946 C 0.21554 1.0017 0.80279 0.0
C947 C 0.2063 0.98156 0.76215 0.0
H948 H 0.23252 0.0395 0.80985 0.0
H949 H 0.21312 0.99978 0.8554 0.0
S950 S 0.21144 0.98194 0.58069 0.0
N951 N 0.22392 0.01027 0.60086 0.0
N952 N 0.20294 0.96708 0.65036 0.0
C953 C 0.21025 0.98518 0.69408 0.0
C954 C 0.22172 0.00865 0.66716 0.0
C955 C 0.98642 0.20435 0.76434 0.0
C956 C 0.98257 0.2018 0.69616 0.0
C957 C 0.00942 0.21645 0.79059 0.0
C958 C 0.02957 0.22635 0.74978 0.0
H959 H 0.97155 0.19621 0.79803 0.0
H960 H 0.01135 0.217 0.84338 0.0
S961 S 0.02929 0.22727 0.56771 0.0
N962 N 1.00092 0.21223 0.58822 0.0
N963 N 0.04414 0.23489 0.63744 0.0
C964 C 0.02599 0.22524 0.68144 0.0
C965 C 1.00251 0.21302 0.65467 0.0
C966 C 0.87678 0.55349 0.56637 0.0
C967 C 0.8748 0.55894 0.632 0.0
C968 C 0.88904 0.54162 0.54956 0.0
C969 C 0.89983 0.53461 0.59765 0.0
H970 H 0.86803 0.55762 0.52759 0.0
H971 H 0.88915 0.53706 0.49858 0.0
S972 S 0.90234 0.54714 0.77599 0.0
N973 N 0.88659 0.55833 0.74484 0.0
N974 N 0.90969 0.53608 0.71331 0.0
C975 C 0.89935 0.54132 0.66304 0.0
C976 C 0.88683 0.55346 0.68019 0.0
C977 C 0.45634 0.31892 0.54085 0.0
C978 C 0.4538 0.31608 0.60939 0.0
C979 C 0.46789 0.3415 0.5119 0.0
C980 C 0.47738 0.36225 0.55016 0.0
H981 H 0.45034 0.30362 0.50911 0.0
H982 H 0.4703 0.34261 0.45925 0.0
S983 S 0.47217 0.36463 0.73105 0.0
N984 N 0.45932 0.336 0.71419 0.0
N985 N 0.48094 0.37843 0.65991 0.0
C986 C 0.47345 0.35967 0.6184 0.0
C987 C 0.4617 0.33662 0.64794 0.0
C988 C 0.65331 0.11596 0.59546 0.0
C989 C 0.64943 0.11469 0.52727 0.0
C990 C 0.67632 0.12698 0.62169 0.0
C991 C 0.69647 0.13736 0.58087 0.0
H992 H 0.63846 0.10918 0.62923 0.0
H993 H 0.67824 0.12836 0.67447 0.0
S994 S 0.69617 0.13611 0.39881 0.0
N995 N 0.66779 0.12267 0.41934 0.0
N996 N 0.71102 0.14342 0.46852 0.0
C997 C 0.69288 0.13486 0.51253 0.0
C998 C 0.66939 0.12352 0.48578 0.0
C999 C 0.45873 0.12692 0.18006 0.0
C1000 C 0.45219 0.13782 0.13107 0.0
C1001 C 0.47109 0.115 0.16467 0.0
C1002 C 0.47744 0.11345 0.09964 0.0
H1003 H 0.45522 0.12846 0.23117 0.0
H1004 H 0.4766 0.10786 0.20462 0.0
S1005 S 0.46135 0.13582 0.95196 0.0
N1006 N 0.45066 0.14394 0.01384 0.0
N1007 N 0.47385 0.12157 -0.01498 0.0
C1008 C 0.4696 0.12286 0.04968 0.0
C1009 C 0.457 0.13502 0.06535 0.0
C1010 C 0.88776 0.35848 0.08828 0.0
C1011 C 0.88968 0.36116 0.01962 0.0
C1012 C 0.87692 0.33598 0.11771 0.0
C1013 C 0.86754 0.31514 0.07986 0.0
H1014 H 0.8938 0.37383 0.11983 0.0
H1015 H 0.87503 0.33498 0.17053 0.0
S1016 S 0.87115 0.31241 0.89854 0.0
N1017 N 0.88358 0.34104 0.91491 0.0
N1018 N 0.8633 0.29878 0.97009 0.0
C1019 C 0.87081 0.3176 0.01136 0.0
C1020 C 0.88184 0.34057 0.98132 0.0
C1021 C 0.69438 0.55704 0.04155 0.0
C1022 C 0.69761 0.55811 0.11 0.0
C1023 C 0.67163 0.54649 0.01372 0.0
C1024 C 0.65112 0.53641 0.05313 0.0
H1025 H 0.70952 0.56363 0.00886 0.0
H1026 H 0.67018 0.54523 0.96083 0.0
S1027 S 0.6498 0.53738 0.23513 0.0
N1028 N 0.67833 0.55032 0.2166 0.0
N1029 N 0.63558 0.53047 0.16441 0.0
C1030 C 0.6541 0.53875 0.12168 0.0
C1031 C 0.67733 0.54961 0.15007 0.0
C1032 C 0.54372 0.87665 0.97875 0.0
C1033 C 0.53506 0.88904 0.94193 0.0
C1034 C 0.55533 0.8659 0.94854 0.0
C1035 C 0.55873 0.867 0.88014 0.0
H1036 H 0.54058 0.87426 0.03105 0.0
H1037 H 0.56059 0.85565 0.97897 0.0
S1038 S 0.54292 0.90051 0.76262 0.0
N1039 N 0.53336 0.90425 0.83409 0.0
N1040 N 0.55503 0.8839 0.7775 0.0
C1041 C 0.55171 0.88075 0.8433 0.0
C1042 C 0.53994 0.8918 0.87411 0.0
C1043 C 0.13004 0.66677 0.95081 0.0
C1044 C 0.11938 0.64623 0.91162 0.0
C1045 C 0.1421 0.68948 0.9227 0.0
C1046 C 0.14398 0.69265 0.85418 0.0
H1047 H 0.13014 0.66535 0.00368 0.0
H1048 H 0.15088 0.7046 0.95527 0.0
S1049 S 0.11584 0.64476 0.7298 0.0
N1050 N 0.10902 0.63062 0.80067 0.0
N1051 N 0.13168 0.67328 0.74793 0.0
C1052 C 0.13191 0.67234 0.81444 0.0
C1053 C 0.11964 0.64916 0.84311 0.0
C1054 C 0.31865 0.44964 0.93531 0.0
C1055 C 0.31571 0.4484 0.86674 0.0
C1056 C 0.34128 0.46048 0.96393 0.0
C1057 C 0.36198 0.47066 0.92523 0.0
H1058 H 0.30336 0.44306 0.96745 0.0
H1059 H 0.34248 0.46191 0.01683 0.0
S1060 S 0.36412 0.46904 0.74342 0.0
N1061 N 0.3355 0.45595 0.76093 0.0
N1062 N 0.37802 0.47632 0.81461 0.0
C1063 C 0.3593 0.46803 0.85666 0.0
C1064 C 0.3362 0.45689 0.82747 0.0
C1065 C 0.1196 0.46916 0.35839 0.0
C1066 C 0.11806 0.47127 0.42672 0.0
C1067 C 0.13106 0.4577 0.33156 0.0
C1068 C 0.14156 0.44793 0.37192 0.0
H1069 H 0.11282 0.47734 0.32502 0.0
H1070 H 0.13277 0.45764 0.27878 0.0
S1071 S 0.13912 0.44514 0.55377 0.0
N1072 N 0.1255 0.45997 0.53405 0.0
N1073 N 0.14705 0.43847 0.48367 0.0
C1074 C 0.13859 0.44831 0.44023 0.0
C1075 C 0.12683 0.45994 0.4676 0.0
C1076 C 0.54265 0.66914 0.47099 0.0
C1077 C 0.53366 0.64853 0.43226 0.0
C1078 C 0.55419 0.69182 0.4426 0.0
C1079 C 0.55725 0.69489 0.3742 0.0
H1080 H 0.53982 0.66781 0.52348 0.0
H1081 H 0.55977 0.707 0.47456 0.0
S1082 S 0.54041 0.64682 0.25182 0.0
N1083 N 0.53117 0.63277 0.32248 0.0
N1084 N 0.5528 0.67537 0.26924 0.0
C1085 C 0.54986 0.67451 0.33532 0.0
C1086 C 0.5381 0.65136 0.36427 0.0
C1087 C 0.36199 0.89195 0.30946 0.0
C1088 C 0.36921 0.89413 0.37536 0.0
C1089 C 0.33788 0.87962 0.29213 0.0
C1090 C 0.31994 0.86897 0.33996 0.0
H1091 H 0.37505 0.89887 0.27046 0.0
H1092 H 0.33339 0.87758 0.24054 0.0
S1093 S 0.32923 0.8726 0.52022 0.0
N1094 N 0.35632 0.88686 0.48919 0.0
N1095 N 0.31106 0.86375 0.45677 0.0
C1096 C 0.32685 0.87241 0.40634 0.0
C1097 C 0.35144 0.88496 0.42399 0.0
C1098 C 0.32504 0.1777 0.17007 0.0
C1099 C 0.3118 0.15277 0.16498 0.0
C1100 C 0.34976 0.19016 0.16175 0.0
C1101 C 0.36244 0.17831 0.14801 0.0
H1102 H 0.31629 0.1878 0.18058 0.0
H1103 H 0.35897 0.20933 0.16656 0.0
S1104 S 0.33628 0.11309 0.12864 0.0
N1105 N 0.31331 0.11661 0.14453 0.0
N1106 N 0.35974 0.14006 0.129 0.0
C1107 C 0.34945 0.15336 0.14249 0.0
C1108 C 0.3242 0.14062 0.15096 0.0
C1109 C 0.81736 0.15974 0.14867 0.0
C1110 C 0.82938 0.18441 0.13691 0.0
C1111 C 0.82977 0.14756 0.15953 0.0
C1112 C 0.85479 0.15947 0.15911 0.0
H1113 H 0.79811 0.1496 0.14954 0.0
H1114 H 0.81954 0.12857 0.16785 0.0
S1115 S 0.89493 0.2242 0.1318 0.0
N1116 N 0.86791 0.22043 0.12631 0.0
N1117 N 0.89122 0.19759 0.14668 0.0
C1118 C 0.8671 0.1842 0.1478 0.0
C1119 C 0.85443 0.19663 0.13668 0.0
C1120 C 0.85179 0.65729 0.15867 0.0
C1121 C 0.82696 0.64424 0.14995 0.0
C1122 C 0.86384 0.68197 0.16778 0.0
C1123 C 0.85161 0.69475 0.16858 0.0
H1124 H 0.86215 0.64841 0.15852 0.0
H1125 H 0.88296 0.69106 0.17388 0.0
S1126 S 0.78636 0.66907 0.14898 0.0
N1127 N 0.79046 0.64605 0.14337 0.0
N1128 N 0.81303 0.69234 0.16048 0.0
C1129 C 0.82672 0.68194 0.16018 0.0
C1130 C 0.81444 0.65676 0.15084 0.0
C1131 C 0.16539 0.3521 0.32524 0.0
C1132 C 0.1904 0.36526 0.32348 0.0
C1133 C 0.15298 0.32747 0.31525 0.0
C1134 C 0.16498 0.31483 0.30305 0.0
H1135 H 0.15519 0.36085 0.33406 0.0
H1136 H 0.13374 0.31831 0.3172 0.0
S1137 S 0.2305 0.34075 0.29409 0.0
N1138 N 0.22681 0.36365 0.30903 0.0
N1139 N 0.20349 0.31743 0.29029 0.0
C1140 C 0.19002 0.32772 0.30136 0.0
C1141 C 0.2027 0.35286 0.31159 0.0
C1142 C 0.65956 0.81548 0.33084 0.0
C1143 C 0.64664 0.82758 0.32913 0.0
C1144 C 0.68422 0.82748 0.32097 0.0
C1145 C 0.69712 0.85212 0.30892 0.0
H1146 H 0.65059 0.79651 0.33967 0.0
H1147 H 0.6932 0.81723 0.323 0.0
S1148 S 0.67188 0.89229 0.29967 0.0
N1149 N 0.64876 0.86581 0.31454 0.0
N1150 N 0.69501 0.88828 0.29602 0.0
C1151 C 0.68446 0.8645 0.30707 0.0
C1152 C 0.6593 0.85227 0.3172 0.0
C1153 C 0.19966 0.84846 0.31949 0.0
C1154 C 0.18749 0.82348 0.32282 0.0
C1155 C 0.18742 0.86098 0.31163 0.0
C1156 C 0.16244 0.84909 0.30672 0.0
H1157 H 0.21888 0.85855 0.32243 0.0
H1158 H 0.19774 0.88019 0.30917 0.0
S1159 S 0.12192 0.78373 0.31476 0.0
N1160 N 0.1488 0.78726 0.32208 0.0
N1161 N 0.12588 0.81076 0.30729 0.0
C1162 C 0.14998 0.82409 0.31053 0.0
C1163 C 0.16246 0.81132 0.3186 0.0
C1164 C 0.68543 0.85943 0.82206 0.0
C1165 C 0.69796 0.8473 0.81003 0.0
C1166 C 0.66078 0.84717 0.83194 0.0
C1167 C 0.64747 0.82217 0.83026 0.0
H1168 H 0.69471 0.87867 0.82402 0.0
H1169 H 0.65212 0.85747 0.84071 0.0
S1170 S 0.67162 0.78176 0.80099 0.0
N1171 N 0.69508 0.80869 0.79728 0.0
N1172 N 0.64881 0.78564 0.81581 0.0
C1173 C 0.65975 0.80975 0.81841 0.0
C1174 C 0.68491 0.82228 0.80828 0.0
C1175 C 0.19772 0.8482 0.80941 0.0
C1176 C 0.1857 0.82329 0.81629 0.0
C1177 C 0.18531 0.86051 0.80119 0.0
C1178 C 0.16029 0.8485 0.79951 0.0
H1179 H 0.21696 0.85841 0.81045 0.0
H1180 H 0.19551 0.87967 0.79661 0.0
S1181 S 0.12017 0.78318 0.81372 0.0
N1182 N 0.14718 0.78695 0.81978 0.0
N1183 N 0.12388 0.81005 0.80437 0.0
C1184 C 0.14799 0.82354 0.80589 0.0
C1185 C 0.16066 0.81098 0.81429 0.0
C1186 C 0.19623 0.35223 0.82083 0.0
C1187 C 0.18446 0.36543 0.8168 0.0
C1188 C 0.18411 0.32762 0.81062 0.0
C1189 C 0.15964 0.31502 0.79593 0.0
H1190 H 0.21504 0.36094 0.83195 0.0
H1191 H 0.1941 0.31842 0.81473 0.0
S1192 S 0.1204 0.3411 0.77885 0.0
N1193 N 0.14677 0.36394 0.79641 0.0
N1194 N 0.12405 0.31774 0.77729 0.0
C1195 C 0.14761 0.32797 0.79142 0.0
C1196 C 0.15997 0.35309 0.80186 0.0
C1197 C 0.86328 0.67947 0.66003 0.0
C1198 C 0.85105 0.69211 0.66792 0.0
C1199 C 0.85108 0.65476 0.65137 0.0
C1200 C 0.82606 0.64154 0.6502 0.0
H1201 H 0.88253 0.68868 0.6605 0.0
H1202 H 0.86143 0.64598 0.64588 0.0
S1203 S 0.78543 0.66605 0.66753 0.0
N1204 N 0.81233 0.68944 0.67327 0.0
N1205 N 0.78942 0.64311 0.65699 0.0
C1206 C 0.81355 0.65395 0.65778 0.0
C1207 C 0.82601 0.67915 0.66666 0.0
C1208 C 0.32413 0.14792 0.6686 0.0
C1209 C 0.31106 0.15986 0.66852 0.0
C1210 C 0.34883 0.1602 0.65982 0.0
C1211 C 0.36165 0.18501 0.65059 0.0
H1212 H 0.31525 0.12884 0.67519 0.0
H1213 H 0.3579 0.15003 0.66039 0.0
S1214 S 0.33602 0.2249 0.64701 0.0
N1215 N 0.31293 0.19814 0.65885 0.0
N1216 N 0.35931 0.22117 0.64238 0.0
C1217 C 0.34885 0.19725 0.65052 0.0
C1218 C 0.32362 0.18472 0.6595 0.0
C1219 C 0.82873 0.14631 0.64053 0.0
C1220 C 0.85348 0.1583 0.65118 0.0
C1221 C 0.81658 0.15875 0.62961 0.0
C1222 C 0.82859 0.18376 0.62883 0.0
H1223 H 0.81852 0.12708 0.64068 0.0
H1224 H 0.79752 0.14858 0.62225 0.0
S1225 S 0.89357 0.2238 0.6525 0.0
N1226 N 0.88968 0.19677 0.65915 0.0
N1227 N 0.86691 0.22013 0.63864 0.0
C1228 C 0.85341 0.19603 0.63891 0.0
C1229 C 0.8658 0.18333 0.6501 0.0
C1230 C 0.01814 0.52751 0.47645 0.0
C1231 C 0.03035 0.515 0.46552 0.0
C1232 C 0.9934 0.51563 0.48473 0.0
C1233 C 0.97971 0.49067 0.48249 0.0
H1234 H 0.02772 0.54675 0.47861 0.0
H1235 H 0.98499 0.52621 0.4926 0.0
S1236 S 1.00296 0.44935 0.45618 0.0
N1237 N 0.02676 0.47606 0.45359 0.0
N1238 N 0.98037 0.45374 0.46914 0.0
C1239 C 0.99168 0.47787 0.47197 0.0
C1240 C 0.01692 0.48999 0.46347 0.0
C1241 C 0.48351 0.49411 0.49387 0.0
C1242 C 0.49505 0.51869 0.48093 0.0
C1243 C 0.49637 0.4823 0.50327 0.0
C1244 C 0.52137 0.49451 0.50015 0.0
H1245 H 0.46431 0.48376 0.49695 0.0
H1246 H 0.4865 0.46337 0.51283 0.0
S1247 S 0.56034 0.55911 0.46787 0.0
N1248 N 0.53311 0.55491 0.46565 0.0
N1249 N 0.55726 0.53278 0.48327 0.0
C1250 C 0.5332 0.51914 0.48736 0.0
C1251 C 0.52007 0.53119 0.47774 0.0
C1252 C 0.49403 0.0144 0.48921 0.0
C1253 C 0.51884 0.0272 0.49868 0.0
C1254 C 0.48166 0.98963 0.4821 0.0
C1255 C 0.49351 0.97648 0.48417 0.0
H1256 H 0.48395 0.02355 0.48711 0.0
H1257 H 0.46258 0.98076 0.47514 0.0
S1258 S 0.5585 1.00135 0.50761 0.0
N1259 N 0.55488 0.02473 0.50957 0.0
N1260 N 0.5317 0.97827 0.49624 0.0
C1261 C 0.51836 0.98903 0.49352 0.0
C1262 C 0.53098 0.01431 0.50078 0.0
C1263 C 0.49519 0.01811 -5e-05 0.0
C1264 C 0.5202 0.03121 -0.00212 0.0
C1265 C 0.48274 0.99332 -0.00677 0.0
C1266 C 0.49472 0.98047 0.98414 0.0
H1267 H 0.48503 0.02703 0.00664 0.0
H1268 H 0.46351 0.9842 -0.0047 0.0
S1269 S 0.56022 0.0062 0.97536 0.0
N1270 N 0.55657 0.02933 -0.01378 0.0
N1271 N 0.53319 0.98285 0.9736 0.0
C1272 C 0.51975 0.99332 0.98204 0.0
C1273 C 0.53246 0.01861 -0.01108 0.0
C1274 C 0.9946 0.51548 0.96489 0.0
C1275 C 0.98128 0.49081 0.97634 0.0
C1276 C 0.0193 0.52715 0.95642 0.0
C1277 C 0.03187 0.51472 0.95904 0.0
H1278 H 0.98592 0.526 0.96234 0.0
H1279 H 0.02859 0.54616 0.94807 0.0
S1280 S 1.00548 0.4498 -0.01278 0.0
N1281 N 0.9826 0.45425 -0.01053 0.0
N1282 N 0.02898 0.47613 0.97359 0.0
C1283 C 0.01879 0.48999 0.97023 0.0
C1284 C 0.99357 0.47808 0.97888 0.0
C1285 C 0.49572 0.48163 -0.01182 0.0
C1286 C 0.5204 0.49396 -0.0 0.0
C1287 C 0.48318 0.49371 0.97766 0.0
C1288 C 0.49473 0.51869 0.97848 0.0
H1289 H 0.48586 0.46239 -0.0131 0.0
H1290 H 0.4642 0.48326 0.96918 0.0
S1291 S 0.5593 0.55959 0.00654 0.0
N1292 N 0.55601 0.53276 0.0114 0.0
N1293 N 0.53252 0.55545 -0.00834 0.0
C1294 C 0.51946 0.53132 -0.00997 0.0
C1295 C 0.53224 0.51898 0.00081 0.0
loop_
_geom_bond_atom_site_label_1
_geom_bond_atom_site_label_2
_geom_bond_distance
_geom_bond_site_symmetry_2
_ccdc_geom_bond_type
Zn0 O3 2.031 . S
Zn0 O5 2.049 . S
Zn0 O10 2.067 . S
Zn1 O2 1.962 . S
Zn1 O4 1.986 . S
Zn1 O6 1.996 . S
Zn1 O9 1.943 . S
O2 Zn1 1.962 . S
O2 C7 1.254 . S
O3 Zn0 2.031 . S
O3 C7 1.269 . S
O4 Zn1 1.986 . S
O4 C11 1.262 . S
O5 Zn0 2.049 . S
O5 C13 1.260 . S
O6 Zn1 1.996 . S
O6 C13 1.257 . S
C7 O2 1.254 . S
C7 O3 1.269 . S
C8 O9 1.249 . S
C8 O10 1.270 . S
O9 Zn1 1.943 . S
O9 C8 1.249 . S
O10 Zn0 2.067 . S
O10 C8 1.270 . S
C11 O4 1.262 . S
C11 O12 1.232 . S
O12 C11 1.232 . S
C13 O5 1.260 . S
C13 O6 1.257 . S
Zn14 O17 2.031 . S
Zn14 O19 2.049 . S
Zn14 O24 2.067 . S
Zn15 O16 1.962 . S
Zn15 O18 1.986 . S
Zn15 O20 1.996 . S
Zn15 O23 1.943 . S
O16 Zn15 1.962 . S
O16 C21 1.254 . S
O17 Zn14 2.031 . S
O17 C21 1.269 . S
O18 Zn15 1.986 . S
O18 C25 1.262 . S
O19 Zn14 2.049 . S
O19 C27 1.260 . S
O20 Zn15 1.996 . S
O20 C27 1.257 . S
C21 O16 1.254 . S
C21 O17 1.269 . S
C22 O23 1.249 . S
C22 O24 1.270 . S
O23 Zn15 1.943 . S
O23 C22 1.249 . S
O24 Zn14 2.067 . S
O24 C22 1.270 . S
C25 O18 1.262 . S
C25 O26 1.232 . S
O26 C25 1.232 . S
C27 O19 1.260 . S
C27 O20 1.257 . S
Zn28 O31 2.031 . S
Zn28 O33 2.049 . S
Zn28 O38 2.067 . S
Zn29 O30 1.962 . S
Zn29 O32 1.986 . S
Zn29 O34 1.996 . S
Zn29 O37 1.943 . S
O30 Zn29 1.962 . S
O30 C35 1.254 . S
O31 Zn28 2.031 . S
O31 C35 1.269 . S
O32 Zn29 1.986 . S
O32 C39 1.262 . S
O33 Zn28 2.049 . S
O33 C41 1.260 . S
O34 Zn29 1.996 . S
O34 C41 1.257 . S
C35 O30 1.254 . S
C35 O31 1.269 . S
C36 O37 1.249 . S
C36 O38 1.270 . S
O37 Zn29 1.943 . S
O37 C36 1.249 . S
O38 Zn28 2.067 . S
O38 C36 1.270 . S
C39 O32 1.262 . S
C39 O40 1.232 . S
O40 C39 1.232 . S
C41 O33 1.260 . S
C41 O34 1.257 . S
Zn42 O45 2.031 . S
Zn42 O47 2.049 . S
Zn42 O52 2.067 . S
Zn43 O44 1.962 . S
Zn43 O46 1.986 . S
Zn43 O48 1.996 . S
Zn43 O51 1.943 . S
O44 Zn43 1.962 . S
O44 C49 1.254 . S
O45 Zn42 2.031 . S
O45 C49 1.269 . S
O46 Zn43 1.986 . S
O46 C53 1.262 . S
O47 Zn42 2.049 . S
O47 C55 1.260 . S
O48 Zn43 1.996 . S
O48 C55 1.257 . S
C49 O44 1.254 . S
C49 O45 1.269 . S
C50 O51 1.249 . S
C50 O52 1.270 . S
O51 Zn43 1.943 . S
O51 C50 1.249 . S
O52 Zn42 2.067 . S
O52 C50 1.270 . S
C53 O46 1.262 . S
C53 O54 1.232 . S
O54 C53 1.232 . S
C55 O47 1.260 . S
C55 O48 1.257 . S
Zn56 O59 2.031 . S
Zn56 O61 2.049 . S
Zn56 O66 2.067 . S
Zn57 O58 1.962 . S
Zn57 O60 1.986 . S
Zn57 O62 1.996 . S
Zn57 O65 1.943 . S
O58 Zn57 1.962 . S
O58 C63 1.254 . S
O59 Zn56 2.031 . S
O59 C63 1.269 . S
O60 Zn57 1.986 . S
O60 C67 1.262 . S
O61 Zn56 2.049 . S
O61 C69 1.260 . S
O62 Zn57 1.996 . S
O62 C69 1.257 . S
C63 O58 1.254 . S
C63 O59 1.269 . S
C64 O65 1.249 . S
C64 O66 1.270 . S
O65 Zn57 1.943 . S
O65 C64 1.249 . S
O66 Zn56 2.067 . S
O66 C64 1.270 . S
C67 O60 1.262 . S
C67 O68 1.232 . S
O68 C67 1.232 . S
C69 O61 1.260 . S
C69 O62 1.257 . S
Zn70 O73 2.031 . S
Zn70 O75 2.049 . S
Zn70 O80 2.067 . S
Zn71 O72 1.962 . S
Zn71 O74 1.986 . S
Zn71 O76 1.996 . S
Zn71 O79 1.943 . S
O72 Zn71 1.962 . S
O72 C77 1.254 . S
O73 Zn70 2.031 . S
O73 C77 1.269 . S
O74 Zn71 1.986 . S
O74 C81 1.262 . S
O75 Zn70 2.049 . S
O75 C83 1.260 . S
O76 Zn71 1.996 . S
O76 C83 1.257 . S
C77 O72 1.254 . S
C77 O73 1.269 . S
C78 O79 1.249 . S
C78 O80 1.270 . S
O79 Zn71 1.943 . S
O79 C78 1.249 . S
O80 Zn70 2.067 . S
O80 C78 1.270 . S
C81 O74 1.262 . S
C81 O82 1.232 . S
O82 C81 1.232 . S
C83 O75 1.260 . S
C83 O76 1.257 . S
Zn84 O87 2.031 . S
Zn84 O89 2.049 . S
Zn84 O94 2.067 . S
Zn85 O86 1.962 . S
Zn85 O88 1.986 . S
Zn85 O90 1.996 . S
Zn85 O93 1.943 . S
O86 Zn85 1.962 . S
O86 C91 1.254 . S
O87 Zn84 2.031 . S
O87 C91 1.269 . S
O88 Zn85 1.986 . S
O88 C95 1.262 . S
O89 Zn84 2.049 . S
O89 C97 1.260 . S
O90 Zn85 1.996 . S
O90 C97 1.257 . S
C91 O86 1.254 . S
C91 O87 1.269 . S
C92 O93 1.249 . S
C92 O94 1.270 . S
O93 Zn85 1.943 . S
O93 C92 1.249 . S
O94 Zn84 2.067 . S
O94 C92 1.270 . S
C95 O88 1.262 . S
C95 O96 1.232 . S
O96 C95 1.232 . S
C97 O89 1.260 . S
C97 O90 1.257 . S
Zn98 O101 2.031 . S
Zn98 O103 2.049 . S
Zn98 O108 2.067 . S
Zn99 O100 1.962 . S
Zn99 O102 1.986 . S
Zn99 O104 1.996 . S
Zn99 O107 1.943 . S
O100 Zn99 1.962 . S
O100 C105 1.254 . S
O101 Zn98 2.031 . S
O101 C105 1.269 . S
O102 Zn99 1.986 . S
O102 C109 1.262 . S
O103 Zn98 2.049 . S
O103 C111 1.260 . S
O104 Zn99 1.996 . S
O104 C111 1.257 . S
C105 O100 1.254 . S
C105 O101 1.269 . S
C106 O107 1.249 . S
C106 O108 1.270 . S
O107 Zn99 1.943 . S
O107 C106 1.249 . S
O108 Zn98 2.067 . S
O108 C106 1.270 . S
C109 O102 1.262 . S
C109 O110 1.232 . S
O110 C109 1.232 . S
C111 O103 1.260 . S
C111 O104 1.257 . S
Zn112 O115 2.031 . S
Zn112 O117 2.049 . S
Zn112 O122 2.067 . S
Zn113 O114 1.962 . S
Zn113 O116 1.986 . S
Zn113 O118 1.996 . S
Zn113 O121 1.943 . S
O114 Zn113 1.962 . S
O114 C119 1.254 . S
O115 Zn112 2.031 . S
O115 C119 1.269 . S
O116 Zn113 1.986 . S
O116 C123 1.262 . S
O117 Zn112 2.049 . S
O117 C125 1.260 . S
O118 Zn113 1.996 . S
O118 C125 1.257 . S
C119 O114 1.254 . S
C119 O115 1.269 . S
C120 O121 1.249 . S
C120 O122 1.270 . S
O121 Zn113 1.943 . S
O121 C120 1.249 . S
O122 Zn112 2.067 . S
O122 C120 1.270 . S
C123 O116 1.262 . S
C123 O124 1.232 . S
O124 C123 1.232 . S
C125 O117 1.260 . S
C125 O118 1.257 . S
Zn126 O129 2.031 . S
Zn126 O131 2.049 . S
Zn126 O136 2.067 . S
Zn127 O128 1.962 . S
Zn127 O130 1.986 . S
Zn127 O132 1.996 . S
Zn127 O135 1.943 . S
O128 Zn127 1.962 . S
O128 C133 1.254 . S
O129 Zn126 2.031 . S
O129 C133 1.269 . S
O130 Zn127 1.986 . S
O130 C137 1.262 . S
O131 Zn126 2.049 . S
O131 C139 1.260 . S
O132 Zn127 1.996 . S
O132 C139 1.257 . S
C133 O128 1.254 . S
C133 O129 1.269 . S
C134 O135 1.249 . S
C134 O136 1.270 . S
O135 Zn127 1.943 . S
O135 C134 1.249 . S
O136 Zn126 2.067 . S
O136 C134 1.270 . S
C137 O130 1.262 . S
C137 O138 1.232 . S
O138 C137 1.232 . S
C139 O131 1.260 . S
C139 O132 1.257 . S
Zn140 O143 2.031 . S
Zn140 O145 2.049 . S
Zn140 O150 2.067 . S
Zn141 O142 1.962 . S
Zn141 O144 1.986 . S
Zn141 O146 1.996 . S
Zn141 O149 1.943 . S
O142 Zn141 1.962 . S
O142 C147 1.254 . S
O143 Zn140 2.031 . S
O143 C147 1.269 . S
O144 Zn141 1.986 . S
O144 C151 1.262 . S
O145 Zn140 2.049 . S
O145 C153 1.260 . S
O146 Zn141 1.996 . S
O146 C153 1.257 . S
C147 O142 1.254 . S
C147 O143 1.269 . S
C148 O149 1.249 . S
C148 O150 1.270 . S
O149 Zn141 1.943 . S
O149 C148 1.249 . S
O150 Zn140 2.067 . S
O150 C148 1.270 . S
C151 O144 1.262 . S
C151 O152 1.232 . S
O152 C151 1.232 . S
C153 O145 1.260 . S
C153 O146 1.257 . S
Zn154 O157 2.031 . S
Zn154 O159 2.049 . S
Zn154 O164 2.067 . S
Zn155 O156 1.962 . S
Zn155 O158 1.986 . S
Zn155 O160 1.996 . S
Zn155 O163 1.943 . S
O156 Zn155 1.962 . S
O156 C161 1.254 . S
O157 Zn154 2.031 . S
O157 C161 1.269 . S
O158 Zn155 1.986 . S
O158 C165 1.262 . S
O159 Zn154 2.049 . S
O159 C167 1.260 . S
O160 Zn155 1.996 . S
O160 C167 1.257 . S
C161 O156 1.254 . S
C161 O157 1.269 . S
C162 O163 1.249 . S
C162 O164 1.270 . S
O163 Zn155 1.943 . S
O163 C162 1.249 . S
O164 Zn154 2.067 . S
O164 C162 1.270 . S
C165 O158 1.262 . S
C165 O166 1.232 . S
O166 C165 1.232 . S
C167 O159 1.260 . S
C167 O160 1.257 . S
Zn168 O171 2.031 . S
Zn168 O173 2.049 . S
Zn168 O178 2.067 . S
Zn169 O170 1.962 . S
Zn169 O172 1.986 . S
Zn169 O174 1.996 . S
Zn169 O177 1.943 . S
O170 Zn169 1.962 . S
O170 C175 1.254 . S
O171 Zn168 2.031 . S
O171 C175 1.269 . S
O172 Zn169 1.986 . S
O172 C179 1.262 . S
O173 Zn168 2.049 . S
O173 C181 1.260 . S
O174 Zn169 1.996 . S
O174 C181 1.257 . S
C175 O170 1.254 . S
C175 O171 1.269 . S
C176 O177 1.249 . S
C176 O178 1.270 . S
O177 Zn169 1.943 . S
O177 C176 1.249 . S
O178 Zn168 2.067 . S
O178 C176 1.270 . S
C179 O172 1.262 . S
C179 O180 1.232 . S
O180 C179 1.232 . S
C181 O173 1.260 . S
C181 O174 1.257 . S
Zn182 O185 2.031 . S
Zn182 O187 2.049 . S
Zn182 O192 2.067 . S
Zn183 O184 1.962 . S
Zn183 O186 1.986 . S
Zn183 O188 1.996 . S
Zn183 O191 1.943 . S
O184 Zn183 1.962 . S
O184 C189 1.254 . S
O185 Zn182 2.031 . S
O185 C189 1.269 . S
O186 Zn183 1.986 . S
O186 C193 1.262 . S
O187 Zn182 2.049 . S
O187 C195 1.260 . S
O188 Zn183 1.996 . S
O188 C195 1.257 . S
C189 O184 1.254 . S
C189 O185 1.269 . S
C190 O191 1.249 . S
C190 O192 1.270 . S
O191 Zn183 1.943 . S
O191 C190 1.249 . S
O192 Zn182 2.067 . S
O192 C190 1.270 . S
C193 O186 1.262 . S
C193 O194 1.232 . S
O194 C193 1.232 . S
C195 O187 1.260 . S
C195 O188 1.257 . S
Zn196 O199 2.031 . S
Zn196 O201 2.049 . S
Zn196 O206 2.067 . S
Zn197 O198 1.962 . S
Zn197 O200 1.986 . S
Zn197 O202 1.996 . S
Zn197 O205 1.943 . S
O198 Zn197 1.962 . S
O198 C203 1.254 . S
O199 Zn196 2.031 . S
O199 C203 1.269 . S
O200 Zn197 1.986 . S
O200 C207 1.262 . S
O201 Zn196 2.049 . S
O201 C209 1.260 . S
O202 Zn197 1.996 . S
O202 C209 1.257 . S
C203 O198 1.254 . S
C203 O199 1.269 . S
C204 O205 1.249 . S
C204 O206 1.270 . S
O205 Zn197 1.943 . S
O205 C204 1.249 . S
O206 Zn196 2.067 . S
O206 C204 1.270 . S
C207 O200 1.262 . S
C207 O208 1.232 . S
O208 C207 1.232 . S
C209 O201 1.260 . S
C209 O202 1.257 . S
Zn210 O213 2.031 . S
Zn210 O215 2.049 . S
Zn210 O220 2.067 . S
Zn211 O212 1.962 . S
Zn211 O214 1.986 . S
Zn211 O216 1.996 . S
Zn211 O219 1.943 . S
O212 Zn211 1.962 . S
O212 C217 1.254 . S
O213 Zn210 2.031 . S
O213 C217 1.269 . S
O214 Zn211 1.986 . S
O214 C221 1.262 . S
O215 Zn210 2.049 . S
O215 C223 1.260 . S
O216 Zn211 1.996 . S
O216 C223 1.257 . S
C217 O212 1.254 . S
C217 O213 1.269 . S
C218 O219 1.249 . S
C218 O220 1.270 . S
O219 Zn211 1.943 . S
O219 C218 1.249 . S
O220 Zn210 2.067 . S
O220 C218 1.270 . S
C221 O214 1.262 . S
C221 O222 1.232 . S
O222 C221 1.232 . S
C223 O215 1.260 . S
C223 O216 1.257 . S
Zn224 O227 2.031 . S
Zn224 O229 2.049 . S
Zn224 O234 2.067 . S
Zn225 O226 1.962 . S
Zn225 O228 1.986 . S
Zn225 O230 1.996 . S
Zn225 O233 1.943 . S
O226 Zn225 1.962 . S
O226 C231 1.254 . S
O227 Zn224 2.031 . S
O227 C231 1.269 . S
O228 Zn225 1.986 . S
O228 C235 1.262 . S
O229 Zn224 2.049 . S
O229 C237 1.260 . S
O230 Zn225 1.996 . S
O230 C237 1.257 . S
C231 O226 1.254 . S
C231 O227 1.269 . S
C232 O233 1.249 . S
C232 O234 1.270 . S
O233 Zn225 1.943 . S
O233 C232 1.249 . S
O234 Zn224 2.067 . S
O234 C232 1.270 . S
C235 O228 1.262 . S
C235 O236 1.232 . S
O236 C235 1.232 . S
C237 O229 1.260 . S
C237 O230 1.257 . S
Zn238 O241 2.031 . S
Zn238 O243 2.049 . S
Zn238 O248 2.067 . S
Zn239 O240 1.962 . S
Zn239 O242 1.986 . S
Zn239 O244 1.996 . S
Zn239 O247 1.943 . S
O240 Zn239 1.962 . S
O240 C245 1.254 . S
O241 Zn238 2.031 . S
O241 C245 1.269 . S
O242 Zn239 1.986 . S
O242 C249 1.262 . S
O243 Zn238 2.049 . S
O243 C251 1.260 . S
O244 Zn239 1.996 . S
O244 C251 1.257 . S
C245 O240 1.254 . S
C245 O241 1.269 . S
C246 O247 1.249 . S
C246 O248 1.270 . S
O247 Zn239 1.943 . S
O247 C246 1.249 . S
O248 Zn238 2.067 . S
O248 C246 1.270 . S
C249 O242 1.262 . S
C249 O250 1.232 . S
O250 C249 1.232 . S
C251 O243 1.260 . S
C251 O244 1.257 . S
Zn252 O255 2.031 . S
Zn252 O257 2.049 . S
Zn252 O262 2.067 . S
Zn253 O254 1.962 . S
Zn253 O256 1.986 . S
Zn253 O258 1.996 . S
Zn253 O261 1.943 . S
O254 Zn253 1.962 . S
O254 C259 1.254 . S
O255 Zn252 2.031 . S
O255 C259 1.269 . S
O256 Zn253 1.986 . S
O256 C263 1.262 . S
O257 Zn252 2.049 . S
O257 C265 1.260 . S
O258 Zn253 1.996 . S
O258 C265 1.257 . S
C259 O254 1.254 . S
C259 O255 1.269 . S
C260 O261 1.249 . S
C260 O262 1.270 . S
O261 Zn253 1.943 . S
O261 C260 1.249 . S
O262 Zn252 2.067 . S
O262 C260 1.270 . S
C263 O256 1.262 . S
C263 O264 1.232 . S
O264 C263 1.232 . S
C265 O257 1.260 . S
C265 O258 1.257 . S
Zn266 O269 2.031 . S
Zn266 O271 2.049 . S
Zn266 O276 2.067 . S
Zn267 O268 1.962 . S
Zn267 O270 1.986 . S
Zn267 O272 1.996 . S
Zn267 O275 1.943 . S
O268 Zn267 1.962 . S
O268 C273 1.254 . S
O269 Zn266 2.031 . S
O269 C273 1.269 . S
O270 Zn267 1.986 . S
O270 C277 1.262 . S
O271 Zn266 2.049 . S
O271 C279 1.260 . S
O272 Zn267 1.996 . S
O272 C279 1.257 . S
C273 O268 1.254 . S
C273 O269 1.269 . S
C274 O275 1.249 . S
C274 O276 1.270 . S
O275 Zn267 1.943 . S
O275 C274 1.249 . S
O276 Zn266 2.067 . S
O276 C274 1.270 . S
C277 O270 1.262 . S
C277 O278 1.232 . S
O278 C277 1.232 . S
C279 O271 1.260 . S
C279 O272 1.257 . S
Zn280 O283 2.031 . S
Zn280 O285 2.049 . S
Zn280 O290 2.067 . S
Zn281 O282 1.962 . S
Zn281 O284 1.986 . S
Zn281 O286 1.996 . S
Zn281 O289 1.943 . S
O282 Zn281 1.962 . S
O282 C287 1.254 . S
O283 Zn280 2.031 . S
O283 C287 1.269 . S
O284 Zn281 1.986 . S
O284 C291 1.262 . S
O285 Zn280 2.049 . S
O285 C293 1.260 . S
O286 Zn281 1.996 . S
O286 C293 1.257 . S
C287 O282 1.254 . S
C287 O283 1.269 . S
C288 O289 1.249 . S
C288 O290 1.270 . S
O289 Zn281 1.943 . S
O289 C288 1.249 . S
O290 Zn280 2.067 . S
O290 C288 1.270 . S
C291 O284 1.262 . S
C291 O292 1.232 . S
O292 C291 1.232 . S
C293 O285 1.260 . S
C293 O286 1.257 . S
Zn294 O297 2.031 1_554 S
Zn294 O299 2.049 . S
Zn294 O304 2.067 . S
Zn295 O296 1.962 1_554 S
Zn295 O298 1.986 . S
Zn295 O300 1.996 . S
Zn295 O303 1.943 . S
O296 Zn295 1.962 1_556 S
O296 C301 1.254 . S
O297 Zn294 2.031 1_556 S
O297 C301 1.269 . S
O298 Zn295 1.986 . S
O298 C305 1.262 . S
O299 Zn294 2.049 . S
O299 C307 1.260 . S
O300 Zn295 1.996 . S
O300 C307 1.257 . S
C301 O296 1.254 . S
C301 O297 1.269 . S
C302 O303 1.249 . S
C302 O304 1.270 . S
O303 Zn295 1.943 . S
O303 C302 1.249 . S
O304 Zn294 2.067 . S
O304 C302 1.270 . S
C305 O298 1.262 . S
C305 O306 1.232 1_554 S
O306 C305 1.232 1_556 S
C307 O299 1.260 . S
C307 O300 1.257 . S
Zn308 O311 2.031 1_554 S
Zn308 O313 2.049 . S
Zn308 O318 2.067 . S
Zn309 O310 1.962 1_554 S
Zn309 O312 1.986 . S
Zn309 O314 1.996 . S
Zn309 O317 1.943 . S
O310 Zn309 1.962 1_556 S
O310 C315 1.254 . S
O311 Zn308 2.031 1_556 S
O311 C315 1.269 . S
O312 Zn309 1.986 . S
O312 C319 1.262 . S
O313 Zn308 2.049 . S
O313 C321 1.260 . S
O314 Zn309 1.996 . S
O314 C321 1.257 . S
C315 O310 1.254 . S
C315 O311 1.269 . S
C316 O317 1.249 . S
C316 O318 1.270 . S
O317 Zn309 1.943 . S
O317 C316 1.249 . S
O318 Zn308 2.067 . S
O318 C316 1.270 . S
C319 O312 1.262 . S
C319 O320 1.232 1_554 S
O320 C319 1.232 1_556 S
C321 O313 1.260 . S
C321 O314 1.257 . S
Zn322 O325 2.031 1_554 S
Zn322 O327 2.049 . S
Zn322 O332 2.067 . S
Zn323 O324 1.962 1_554 S
Zn323 O326 1.986 . S
Zn323 O328 1.996 . S
Zn323 O331 1.943 . S
O324 Zn323 1.962 1_556 S
O324 C329 1.254 . S
O325 Zn322 2.031 1_556 S
O325 C329 1.269 . S
O326 Zn323 1.986 . S
O326 C333 1.262 . S
O327 Zn322 2.049 . S
O327 C335 1.260 . S
O328 Zn323 1.996 . S
O328 C335 1.257 . S
C329 O324 1.254 . S
C329 O325 1.269 . S
C330 O331 1.249 . S
C330 O332 1.270 . S
O331 Zn323 1.943 . S
O331 C330 1.249 . S
O332 Zn322 2.067 . S
O332 C330 1.270 . S
C333 O326 1.262 . S
C333 O334 1.232 1_554 S
O334 C333 1.232 1_556 S
C335 O327 1.260 . S
C335 O328 1.257 . S
Zn336 O339 2.031 . S
Zn336 O341 2.049 . S
Zn336 O346 2.067 . S
Zn337 O338 1.962 . S
Zn337 O340 1.986 . S
Zn337 O342 1.996 . S
Zn337 O345 1.943 . S
O338 Zn337 1.962 . S
O338 C343 1.254 . S
O339 Zn336 2.031 . S
O339 C343 1.269 . S
O340 Zn337 1.986 . S
O340 C347 1.262 . S
O341 Zn336 2.049 . S
O341 C349 1.260 . S
O342 Zn337 1.996 . S
O342 C349 1.257 . S
C343 O338 1.254 . S
C343 O339 1.269 . S
C344 O345 1.249 . S
C344 O346 1.270 . S
O345 Zn337 1.943 . S
O345 C344 1.249 . S
O346 Zn336 2.067 . S
O346 C344 1.270 . S
C347 O340 1.262 . S
C347 O348 1.232 . S
O348 C347 1.232 . S
C349 O341 1.260 . S
C349 O342 1.257 . S
Zn350 O353 2.031 . S
Zn350 O355 2.049 . S
Zn350 O360 2.067 . S
Zn351 O352 1.962 . S
Zn351 O354 1.986 . S
Zn351 O356 1.996 . S
Zn351 O359 1.943 . S
O352 Zn351 1.962 . S
O352 C357 1.254 . S
O353 Zn350 2.031 . S
O353 C357 1.269 . S
O354 Zn351 1.986 . S
O354 C361 1.262 . S
O355 Zn350 2.049 . S
O355 C363 1.260 . S
O356 Zn351 1.996 . S
O356 C363 1.257 . S
C357 O352 1.254 . S
C357 O353 1.269 . S
C358 O359 1.249 . S
C358 O360 1.270 . S
O359 Zn351 1.943 . S
O359 C358 1.249 . S
O360 Zn350 2.067 . S
O360 C358 1.270 . S
C361 O354 1.262 . S
C361 O362 1.232 . S
O362 C361 1.232 . S
C363 O355 1.260 . S
C363 O356 1.257 . S
Zn364 O367 2.031 . S
Zn364 O369 2.049 . S
Zn364 O374 2.067 . S
Zn365 O366 1.962 . S
Zn365 O368 1.986 . S
Zn365 O370 1.996 . S
Zn365 O373 1.943 . S
O366 Zn365 1.962 . S
O366 C371 1.254 . S
O367 Zn364 2.031 . S
O367 C371 1.269 . S
O368 Zn365 1.986 . S
O368 C375 1.262 . S
O369 Zn364 2.049 . S
O369 C377 1.260 . S
O370 Zn365 1.996 . S
O370 C377 1.257 . S
C371 O366 1.254 . S
C371 O367 1.269 . S
C372 O373 1.249 . S
C372 O374 1.270 . S
O373 Zn365 1.943 . S
O373 C372 1.249 . S
O374 Zn364 2.067 . S
O374 C372 1.270 . S
C375 O368 1.262 . S
C375 O376 1.232 . S
O376 C375 1.232 . S
C377 O369 1.260 . S
C377 O370 1.257 . S
Zn378 O381 2.031 1_556 S
Zn378 O383 2.049 . S
Zn378 O388 2.067 . S
Zn379 O380 1.962 1_556 S
Zn379 O382 1.986 . S
Zn379 O384 1.996 . S
Zn379 O387 1.943 . S
O380 Zn379 1.962 1_554 S
O380 C385 1.254 . S
O381 Zn378 2.031 1_554 S
O381 C385 1.269 . S
O382 Zn379 1.986 . S
O382 C389 1.262 . S
O383 Zn378 2.049 . S
O383 C391 1.260 . S
O384 Zn379 1.996 . S
O384 C391 1.257 . S
C385 O380 1.254 . S
C385 O381 1.269 . S
C386 O387 1.249 . S
C386 O388 1.270 . S
O387 Zn379 1.943 . S
O387 C386 1.249 . S
O388 Zn378 2.067 . S
O388 C386 1.270 . S
C389 O382 1.262 . S
C389 O390 1.232 1_556 S
O390 C389 1.232 1_554 S
C391 O383 1.260 . S
C391 O384 1.257 . S
Zn392 O395 2.031 1_556 S
Zn392 O397 2.049 . S
Zn392 O402 2.067 . S
Zn393 O394 1.962 1_556 S
Zn393 O396 1.986 . S
Zn393 O398 1.996 . S
Zn393 O401 1.943 . S
O394 Zn393 1.962 1_554 S
O394 C399 1.254 . S
O395 Zn392 2.031 1_554 S
O395 C399 1.269 . S
O396 Zn393 1.986 . S
O396 C403 1.262 . S
O397 Zn392 2.049 . S
O397 C405 1.260 . S
O398 Zn393 1.996 . S
O398 C405 1.257 . S
C399 O394 1.254 . S
C399 O395 1.269 . S
C400 O401 1.249 . S
C400 O402 1.270 . S
O401 Zn393 1.943 . S
O401 C400 1.249 . S
O402 Zn392 2.067 . S
O402 C400 1.270 . S
C403 O396 1.262 . S
C403 O404 1.232 1_556 S
O404 C403 1.232 1_554 S
C405 O397 1.260 . S
C405 O398 1.257 . S
Zn406 O409 2.031 1_556 S
Zn406 O411 2.049 . S
Zn406 O416 2.067 . S
Zn407 O408 1.962 1_556 S
Zn407 O410 1.986 . S
Zn407 O412 1.996 . S
Zn407 O415 1.943 . S
O408 Zn407 1.962 1_554 S
O408 C413 1.254 . S
O409 Zn406 2.031 1_554 S
O409 C413 1.269 . S
O410 Zn407 1.986 . S
O410 C417 1.262 . S
O411 Zn406 2.049 . S
O411 C419 1.260 . S
O412 Zn407 1.996 . S
O412 C419 1.257 . S
C413 O408 1.254 . S
C413 O409 1.269 . S
C414 O415 1.249 . S
C414 O416 1.270 . S
O415 Zn407 1.943 . S
O415 C414 1.249 . S
O416 Zn406 2.067 . S
O416 C414 1.270 . S
C417 O410 1.262 . S
C417 O418 1.232 1_556 S
O418 C417 1.232 1_554 S
C419 O411 1.260 . S
C419 O412 1.257 . S
Zn420 O423 2.031 . S
Zn420 O425 2.049 . S
Zn420 O430 2.067 . S
Zn421 O422 1.962 . S
Zn421 O424 1.986 . S
Zn421 O426 1.996 . S
Zn421 O429 1.943 . S
O422 Zn421 1.962 . S
O422 C427 1.254 . S
O423 Zn420 2.031 . S
O423 C427 1.269 . S
O424 Zn421 1.986 . S
O424 C431 1.262 . S
O425 Zn420 2.049 . S
O425 C433 1.260 . S
O426 Zn421 1.996 . S
O426 C433 1.257 . S
C427 O422 1.254 . S
C427 O423 1.269 . S
C428 O429 1.249 . S
C428 O430 1.270 . S
O429 Zn421 1.943 . S
O429 C428 1.249 . S
O430 Zn420 2.067 . S
O430 C428 1.270 . S
C431 O424 1.262 . S
C431 O432 1.232 . S
O432 C431 1.232 . S
C433 O425 1.260 . S
C433 O426 1.257 . S
Zn434 O437 2.031 . S
Zn434 O439 2.049 . S
Zn434 O444 2.067 . S
Zn435 O436 1.962 . S
Zn435 O438 1.986 . S
Zn435 O440 1.996 . S
Zn435 O443 1.943 . S
O436 Zn435 1.962 . S
O436 C441 1.254 . S
O437 Zn434 2.031 . S
O437 C441 1.269 . S
O438 Zn435 1.986 . S
O438 C445 1.262 . S
O439 Zn434 2.049 . S
O439 C447 1.260 . S
O440 Zn435 1.996 . S
O440 C447 1.257 . S
C441 O436 1.254 . S
C441 O437 1.269 . S
C442 O443 1.249 . S
C442 O444 1.270 . S
O443 Zn435 1.943 . S
O443 C442 1.249 . S
O444 Zn434 2.067 . S
O444 C442 1.270 . S
C445 O438 1.262 . S
C445 O446 1.232 . S
O446 C445 1.232 . S
C447 O439 1.260 . S
C447 O440 1.257 . S
Zn448 O451 2.031 . S
Zn448 O453 2.049 . S
Zn448 O458 2.067 . S
Zn449 O450 1.962 . S
Zn449 O452 1.986 . S
Zn449 O454 1.996 . S
Zn449 O457 1.943 . S
O450 Zn449 1.962 . S
O450 C455 1.254 . S
O451 Zn448 2.031 . S
O451 C455 1.269 . S
O452 Zn449 1.986 . S
O452 C459 1.262 . S
O453 Zn448 2.049 . S
O453 C461 1.260 . S
O454 Zn449 1.996 . S
O454 C461 1.257 . S
C455 O450 1.254 . S
C455 O451 1.269 . S
C456 O457 1.249 . S
C456 O458 1.270 . S
O457 Zn449 1.943 . S
O457 C456 1.249 . S
O458 Zn448 2.067 . S
O458 C456 1.270 . S
C459 O452 1.262 . S
C459 O460 1.232 . S
O460 C459 1.232 . S
C461 O453 1.260 . S
C461 O454 1.257 . S
Zn462 O465 2.031 . S
Zn462 O467 2.049 . S
Zn462 O472 2.067 . S
Zn463 O464 1.962 . S
Zn463 O466 1.986 . S
Zn463 O468 1.996 . S
Zn463 O471 1.943 . S
O464 Zn463 1.962 . S
O464 C469 1.254 . S
O465 Zn462 2.031 . S
O465 C469 1.269 . S
O466 Zn463 1.986 . S
O466 C473 1.262 . S
O467 Zn462 2.049 . S
O467 C475 1.260 . S
O468 Zn463 1.996 . S
O468 C475 1.257 . S
C469 O464 1.254 . S
C469 O465 1.269 . S
C470 O471 1.249 . S
C470 O472 1.270 . S
O471 Zn463 1.943 . S
O471 C470 1.249 . S
O472 Zn462 2.067 . S
O472 C470 1.270 . S
C473 O466 1.262 . S
C473 O474 1.232 . S
O474 C473 1.232 . S
C475 O467 1.260 . S
C475 O468 1.257 . S
Zn476 O479 2.031 . S
Zn476 O481 2.049 . S
Zn476 O486 2.067 . S
Zn477 O478 1.962 . S
Zn477 O480 1.986 . S
Zn477 O482 1.996 . S
Zn477 O485 1.943 . S
O478 Zn477 1.962 . S
O478 C483 1.254 . S
O479 Zn476 2.031 . S
O479 C483 1.269 . S
O480 Zn477 1.986 . S
O480 C487 1.262 . S
O481 Zn476 2.049 . S
O481 C489 1.260 . S
O482 Zn477 1.996 . S
O482 C489 1.257 . S
C483 O478 1.254 . S
C483 O479 1.269 . S
C484 O485 1.249 . S
C484 O486 1.270 . S
O485 Zn477 1.943 . S
O485 C484 1.249 . S
O486 Zn476 2.067 . S
O486 C484 1.270 . S
C487 O480 1.262 . S
C487 O488 1.232 . S
O488 C487 1.232 . S
C489 O481 1.260 . S
C489 O482 1.257 . S
Zn490 O493 2.031 . S
Zn490 O495 2.049 . S
Zn490 O500 2.067 . S
Zn491 O492 1.962 . S
Zn491 O494 1.986 . S
Zn491 O496 1.996 . S
Zn491 O499 1.943 . S
O492 Zn491 1.962 . S
O492 C497 1.254 . S
O493 Zn490 2.031 . S
O493 C497 1.269 . S
O494 Zn491 1.986 . S
O494 C501 1.262 . S
O495 Zn490 2.049 . S
O495 C503 1.260 . S
O496 Zn491 1.996 . S
O496 C503 1.257 . S
C497 O492 1.254 . S
C497 O493 1.269 . S
C498 O499 1.249 . S
C498 O500 1.270 . S
O499 Zn491 1.943 . S
O499 C498 1.249 . S
O500 Zn490 2.067 . S
O500 C498 1.270 . S
C501 O494 1.262 . S
C501 O502 1.232 . S
O502 C501 1.232 . S
C503 O495 1.260 . S
C503 O496 1.257 . S
C504 C505 1.369 . S
C504 C506 1.419 1_556 S
C504 H508 0.930 . S
C505 C504 1.369 . S
C505 C514 1.429 . S
C506 C504 1.419 1_554 S
C506 C507 1.363 . S
C506 H509 0.929 . S
C507 C506 1.363 . S
C507 C513 1.428 . S
H508 C504 0.930 . S
H509 C506 0.929 . S
S510 N511 1.613 . S
S510 N512 1.610 1_556 S
N511 S510 1.613 . S
N511 C514 1.350 . S
N512 S510 1.610 1_554 S
N512 C513 1.351 . S
C513 C507 1.428 . S
C513 N512 1.351 . S
C513 C514 1.434 1_554 S
C514 C505 1.429 . S
C514 N511 1.350 . S
C514 C513 1.434 1_556 S
C515 C516 1.369 . S
C515 C517 1.419 1_556 S
C515 H519 0.930 . S
C516 C515 1.369 . S
C516 C525 1.429 . S
C517 C515 1.419 1_554 S
C517 C518 1.363 . S
C517 H520 0.929 . S
C518 C517 1.363 . S
C518 C524 1.437 . S
H519 C515 0.930 . S
H520 C517 0.929 . S
S521 N522 1.613 . S
S521 N523 1.610 1_556 S
N522 S521 1.613 . S
N522 C525 1.350 . S
N523 S521 1.610 1_554 S
N523 C524 1.356 . S
C524 C518 1.437 . S
C524 N523 1.356 . S
C524 C525 1.419 1_554 S
C525 C516 1.429 . S
C525 N522 1.350 . S
C525 C524 1.419 1_556 S
C526 C527 1.375 . S
C526 C528 1.408 1_554 S
C526 H530 0.935 . S
C527 C526 1.375 . S
C527 C536 1.429 . S
C528 C526 1.408 1_556 S
C528 C529 1.363 . S
C528 H531 0.929 . S
C529 C528 1.363 . S
C529 C535 1.428 . S
H530 C526 0.935 . S
H531 C528 0.929 . S
S532 N533 1.613 1_556 S
S532 N534 1.610 . S
N533 S532 1.613 1_554 S
N533 C536 1.350 . S
N534 S532 1.610 . S
N534 C535 1.351 . S
C535 C529 1.428 . S
C535 N534 1.351 . S
C535 C536 1.434 1_556 S
C536 C527 1.429 . S
C536 N533 1.350 . S
C536 C535 1.434 1_554 S
C537 C538 1.369 . S
C537 C539 1.419 . S
C537 H541 0.930 . S
C538 C537 1.369 . S
C538 C547 1.429 . S
C539 C537 1.419 . S
C539 C540 1.363 . S
C539 H542 0.929 . S
C540 C539 1.363 . S
C540 C546 1.428 . S
H541 C537 0.930 . S
H542 C539 0.929 . S
S543 N544 1.613 . S
S543 N545 1.610 . S
N544 S543 1.613 . S
N544 C547 1.350 . S
N545 S543 1.610 . S
N545 C546 1.351 . S
C546 C540 1.428 . S
C546 N545 1.351 . S
C546 C547 1.434 . S
C547 C538 1.429 . S
C547 N544 1.350 . S
C547 C546 1.434 . S
C548 C549 1.369 . S
C548 C550 1.419 . S
C548 H552 0.930 . S
C549 C548 1.369 . S
C549 C558 1.429 . S
C550 C548 1.419 . S
C550 C551 1.363 . S
C550 H553 0.929 . S
C551 C550 1.363 . S
C551 C557 1.428 . S
H552 C548 0.930 . S
H553 C550 0.929 . S
S554 N555 1.613 . S
S554 N556 1.610 . S
N555 S554 1.613 . S
N555 C558 1.350 . S
N556 S554 1.610 . S
N556 C557 1.351 . S
C557 C551 1.428 . S
C557 N556 1.351 . S
C557 C558 1.434 . S
C558 C549 1.429 . S
C558 N555 1.350 . S
C558 C557 1.434 . S
C559 C560 1.369 . S
C559 C561 1.419 . S
C559 H563 0.930 . S
C560 C559 1.369 . S
C560 C569 1.429 . S
C561 C559 1.419 . S
C561 C562 1.363 . S
C561 H564 0.929 . S
C562 C561 1.363 . S
C562 C568 1.428 . S
H563 C559 0.930 . S
H564 C561 0.929 . S
S565 N566 1.613 . S
S565 N567 1.610 . S
N566 S565 1.613 . S
N566 C569 1.350 . S
N567 S565 1.610 . S
N567 C568 1.351 . S
C568 C562 1.428 . S
C568 N567 1.351 . S
C568 C569 1.434 . S
C569 C560 1.429 . S
C569 N566 1.350 . S
C569 C568 1.434 . S
C570 C571 1.369 . S
C570 C572 1.419 1_554 S
C570 H574 0.930 . S
C571 C570 1.369 . S
C571 C580 1.429 . S
C572 C570 1.419 1_556 S
C572 C573 1.363 . S
C572 H575 0.929 . S
C573 C572 1.363 . S
C573 C579 1.428 . S
H574 C570 0.930 . S
H575 C572 0.929 . S
S576 N577 1.613 . S
S576 N578 1.610 1_554 S
N577 S576 1.613 . S
N577 C580 1.350 . S
N578 S576 1.610 1_556 S
N578 C579 1.351 . S
C579 C573 1.428 . S
C579 N578 1.351 . S
C579 C580 1.434 1_556 S
C580 C571 1.429 . S
C580 N577 1.350 . S
C580 C579 1.434 1_554 S
C581 C582 1.369 . S
C581 C583 1.419 1_554 S
C581 H585 0.930 . S
C582 C581 1.369 . S
C582 C591 1.429 . S
C583 C581 1.419 1_556 S
C583 C584 1.363 . S
C583 H586 0.929 . S
C584 C583 1.363 . S
C584 C590 1.428 . S
H585 C581 0.930 . S
H586 C583 0.929 . S
S587 N588 1.613 . S
S587 N589 1.610 1_554 S
N588 S587 1.613 . S
N588 C591 1.350 . S
N589 S587 1.610 1_556 S
N589 C590 1.351 . S
C590 C584 1.428 . S
C590 N589 1.351 . S
C590 C591 1.434 1_556 S
C591 C582 1.429 . S
C591 N588 1.350 . S
C591 C590 1.434 1_554 S
C592 C593 1.369 . S
C592 C594 1.419 1_556 S
C592 H596 0.930 . S
C593 C592 1.369 . S
C593 C602 1.429 . S
C594 C592 1.419 1_554 S
C594 C595 1.363 . S
C594 H597 0.929 . S
C595 C594 1.363 . S
C595 C601 1.428 . S
H596 C592 0.930 . S
H597 C594 0.929 . S
S598 N599 1.613 1_554 S
S598 N600 1.610 . S
N599 S598 1.613 1_556 S
N599 C602 1.350 . S
N600 S598 1.610 . S
N600 C601 1.351 . S
C601 C595 1.428 . S
C601 N600 1.351 . S
C601 C602 1.434 1_554 S
C602 C593 1.429 . S
C602 N599 1.350 . S
C602 C601 1.434 1_556 S
C603 C604 1.369 . S
C603 C605 1.419 . S
C603 H607 0.930 . S
C604 C603 1.369 . S
C604 C613 1.429 . S
C605 C603 1.419 . S
C605 C606 1.363 . S
C605 H608 0.929 . S
C606 C605 1.363 . S
C606 C612 1.428 . S
H607 C603 0.930 . S
H608 C605 0.929 . S
S609 N610 1.613 . S
S609 N611 1.610 . S
N610 S609 1.613 . S
N610 C613 1.350 . S
N611 S609 1.610 . S
N611 C612 1.351 . S
C612 C606 1.428 . S
C612 N611 1.351 . S
C612 C613 1.434 . S
C613 C604 1.429 . S
C613 N610 1.350 . S
C613 C612 1.434 . S
C614 C615 1.369 . S
C614 C616 1.419 . S
C614 H618 0.930 . S
C615 C614 1.369 . S
C615 C624 1.429 . S
C616 C614 1.419 . S
C616 C617 1.363 . S
C616 H619 0.929 . S
C617 C616 1.363 . S
C617 C623 1.428 . S
H618 C614 0.930 . S
H619 C616 0.929 . S
S620 N621 1.613 . S
S620 N622 1.610 . S
N621 S620 1.613 . S
N621 C624 1.350 . S
N622 S620 1.610 . S
N622 C623 1.351 . S
C623 C617 1.428 . S
C623 N622 1.351 . S
C623 C624 1.434 . S
C624 C615 1.429 . S
C624 N621 1.350 . S
C624 C623 1.434 . S
C625 C626 1.369 . S
C625 C627 1.419 . S
C625 H629 0.930 . S
C626 C625 1.369 . S
C626 C635 1.429 . S
C627 C625 1.419 . S
C627 C628 1.363 . S
C627 H630 0.929 . S
C628 C627 1.363 . S
C628 C634 1.428 . S
H629 C625 0.930 . S
H630 C627 0.929 . S
S631 N632 1.613 . S
S631 N633 1.610 . S
N632 S631 1.613 . S
N632 C635 1.350 . S
N633 S631 1.610 . S
N633 C634 1.351 . S
C634 C628 1.428 . S
C634 N633 1.351 . S
C634 C635 1.434 . S
C635 C626 1.429 . S
C635 N632 1.350 . S
C635 C634 1.434 . S
C636 C637 1.369 . S
C636 C638 1.419 . S
C636 H640 0.930 . S
C637 C636 1.369 . S
C637 C646 1.429 . S
C638 C636 1.419 . S
C638 C639 1.363 . S
C638 H641 0.929 . S
C639 C638 1.363 . S
C639 C645 1.428 . S
H640 C636 0.930 . S
H641 C638 0.929 . S
S642 N643 1.613 . S
S642 N644 1.610 . S
N643 S642 1.613 . S
N643 C646 1.350 . S
N644 S642 1.610 . S
N644 C645 1.351 . S
C645 C639 1.428 . S
C645 N644 1.351 . S
C645 C646 1.434 . S
C646 C637 1.429 . S
C646 N643 1.350 . S
C646 C645 1.434 . S
C647 C648 1.369 . S
C647 C649 1.419 . S
C647 H651 0.930 . S
C648 C647 1.369 . S
C648 C657 1.429 . S
C649 C647 1.419 . S
C649 C650 1.363 . S
C649 H652 0.929 . S
C650 C649 1.363 . S
C650 C656 1.428 . S
H651 C647 0.930 . S
H652 C649 0.929 . S
S653 N654 1.613 . S
S653 N655 1.610 . S
N654 S653 1.613 . S
N654 C657 1.350 . S
N655 S653 1.610 . S
N655 C656 1.351 . S
C656 C650 1.428 . S
C656 N655 1.351 . S
C656 C657 1.434 . S
C657 C648 1.429 . S
C657 N654 1.350 . S
C657 C656 1.434 . S
C658 C659 1.369 . S
C658 C660 1.419 . S
C658 H662 0.930 . S
C659 C658 1.369 . S
C659 C668 1.429 . S
C660 C658 1.419 . S
C660 C661 1.363 . S
C660 H663 0.929 . S
C661 C660 1.363 . S
C661 C667 1.428 . S
H662 C658 0.930 . S
H663 C660 0.929 . S
S664 N665 1.613 . S
S664 N666 1.610 . S
N665 S664 1.613 . S
N665 C668 1.350 . S
N666 S664 1.610 . S
N666 C667 1.351 . S
C667 C661 1.428 . S
C667 N666 1.351 . S
C667 C668 1.434 . S
C668 C659 1.429 . S
C668 N665 1.350 . S
C668 C667 1.434 . S
C669 C670 1.369 . S
C669 C671 1.419 . S
C669 H673 0.930 . S
C670 C669 1.369 . S
C670 C679 1.429 . S
C671 C669 1.419 . S
C671 C672 1.363 . S
C671 H674 0.929 . S
C672 C671 1.363 . S
C672 C678 1.428 . S
H673 C669 0.930 . S
H674 C671 0.929 . S
S675 N676 1.613 . S
S675 N677 1.610 . S
N676 S675 1.613 . S
N676 C679 1.350 . S
N677 S675 1.610 . S
N677 C678 1.351 . S
C678 C672 1.428 . S
C678 N677 1.351 . S
C678 C679 1.434 . S
C679 C670 1.429 . S
C679 N676 1.350 . S
C679 C678 1.434 . S
C680 C681 1.369 . S
C680 C682 1.419 . S
C680 H684 0.930 . S
C681 C680 1.369 . S
C681 C690 1.429 . S
C682 C680 1.419 . S
C682 C683 1.363 . S
C682 H685 0.929 . S
C683 C682 1.363 . S
C683 C689 1.428 . S
H684 C680 0.930 . S
H685 C682 0.929 . S
S686 N687 1.613 . S
S686 N688 1.610 . S
N687 S686 1.613 . S
N687 C690 1.350 . S
N688 S686 1.610 . S
N688 C689 1.351 . S
C689 C683 1.428 . S
C689 N688 1.351 . S
C689 C690 1.434 . S
C690 C681 1.429 . S
C690 N687 1.350 . S
C690 C689 1.434 . S
C691 C692 1.369 . S
C691 C693 1.419 . S
C691 H695 0.930 . S
C692 C691 1.369 . S
C692 C701 1.429 . S
C693 C691 1.419 . S
C693 C694 1.363 . S
C693 H696 0.929 . S
C694 C693 1.363 . S
C694 C700 1.428 . S
H695 C691 0.930 . S
H696 C693 0.929 . S
S697 N698 1.613 . S
S697 N699 1.610 . S
N698 S697 1.613 . S
N698 C701 1.350 . S
N699 S697 1.610 . S
N699 C700 1.351 . S
C700 C694 1.428 . S
C700 N699 1.351 . S
C700 C701 1.434 . S
C701 C692 1.429 . S
C701 N698 1.350 . S
C701 C700 1.434 . S
C702 C703 1.369 . S
C702 C704 1.419 . S
C702 H706 0.930 . S
C703 C702 1.369 . S
C703 C712 1.429 . S
C704 C702 1.419 . S
C704 C705 1.363 . S
C704 H707 0.929 . S
C705 C704 1.363 . S
C705 C711 1.428 . S
H706 C702 0.930 . S
H707 C704 0.929 . S
S708 N709 1.613 . S
S708 N710 1.610 . S
N709 S708 1.613 . S
N709 C712 1.350 . S
N710 S708 1.610 . S
N710 C711 1.351 . S
C711 C705 1.428 . S
C711 N710 1.351 . S
C711 C712 1.434 . S
C712 C703 1.429 . S
C712 N709 1.350 . S
C712 C711 1.434 . S
C713 C714 1.369 . S
C713 C715 1.419 . S
C713 H717 0.930 . S
C714 C713 1.369 . S
C714 C723 1.429 . S
C715 C713 1.419 . S
C715 C716 1.363 . S
C715 H718 0.929 . S
C716 C715 1.363 . S
C716 C722 1.428 . S
H717 C713 0.930 . S
H718 C715 0.929 . S
S719 N720 1.613 . S
S719 N721 1.610 . S
N720 S719 1.613 . S
N720 C723 1.350 . S
N721 S719 1.610 . S
N721 C722 1.351 . S
C722 C716 1.428 . S
C722 N721 1.351 . S
C722 C723 1.434 . S
C723 C714 1.429 . S
C723 N720 1.350 . S
C723 C722 1.434 . S
C724 C725 1.369 . S
C724 C726 1.419 . S
C724 H728 0.930 . S
C725 C724 1.369 . S
C725 C734 1.429 . S
C726 C724 1.419 . S
C726 C727 1.363 . S
C726 H729 0.929 . S
C727 C726 1.363 . S
C727 C733 1.428 . S
H728 C724 0.930 . S
H729 C726 0.929 . S
S730 N731 1.613 . S
S730 N732 1.610 . S
N731 S730 1.613 . S
N731 C734 1.350 . S
N732 S730 1.610 . S
N732 C733 1.351 . S
C733 C727 1.428 . S
C733 N732 1.351 . S
C733 C734 1.434 . S
C734 C725 1.429 . S
C734 N731 1.350 . S
C734 C733 1.434 . S
C735 C736 1.369 . S
C735 C737 1.419 . S
C735 H739 0.930 . S
C736 C735 1.369 . S
C736 C745 1.429 . S
C737 C735 1.419 . S
C737 C738 1.363 . S
C737 H740 0.929 . S
C738 C737 1.363 . S
C738 C744 1.428 . S
H739 C735 0.930 . S
H740 C737 0.929 . S
S741 N742 1.613 . S
S741 N743 1.610 . S
N742 S741 1.613 . S
N742 C745 1.350 . S
N743 S741 1.610 . S
N743 C744 1.351 . S
C744 C738 1.428 . S
C744 N743 1.351 . S
C744 C745 1.434 . S
C745 C736 1.429 . S
C745 N742 1.350 . S
C745 C744 1.434 . S
C746 C747 1.369 . S
C746 C748 1.419 . S
C746 H750 0.930 . S
C747 C746 1.369 . S
C747 C756 1.429 . S
C748 C746 1.419 . S
C748 C749 1.363 . S
C748 H751 0.929 . S
C749 C748 1.363 . S
C749 C755 1.428 . S
H750 C746 0.930 . S
H751 C748 0.929 . S
S752 N753 1.613 . S
S752 N754 1.610 . S
N753 S752 1.613 . S
N753 C756 1.350 . S
N754 S752 1.610 . S
N754 C755 1.351 . S
C755 C749 1.428 . S
C755 N754 1.351 . S
C755 C756 1.434 . S
C756 C747 1.429 . S
C756 N753 1.350 . S
C756 C755 1.434 . S
C757 C758 1.369 . S
C757 C759 1.419 . S
C757 H761 0.930 . S
C758 C757 1.369 . S
C758 C767 1.429 . S
C759 C757 1.419 . S
C759 C760 1.363 . S
C759 H762 0.929 . S
C760 C759 1.363 . S
C760 C766 1.428 . S
H761 C757 0.930 . S
H762 C759 0.929 . S
S763 N764 1.613 . S
S763 N765 1.610 . S
N764 S763 1.613 . S
N764 C767 1.350 . S
N765 S763 1.610 . S
N765 C766 1.351 . S
C766 C760 1.428 . S
C766 N765 1.351 . S
C766 C767 1.434 . S
C767 C758 1.429 . S
C767 N764 1.350 . S
C767 C766 1.434 . S
C768 C769 1.369 . S
C768 C770 1.419 . S
C768 H772 0.930 . S
C769 C768 1.369 . S
C769 C778 1.429 . S
C770 C768 1.419 . S
C770 C771 1.363 . S
C770 H773 0.929 . S
C771 C770 1.363 . S
C771 C777 1.428 . S
H772 C768 0.930 . S
H773 C770 0.929 . S
S774 N775 1.613 . S
S774 N776 1.610 . S
N775 S774 1.613 . S
N775 C778 1.350 . S
N776 S774 1.610 . S
N776 C777 1.351 . S
C777 C771 1.428 . S
C777 N776 1.351 . S
C777 C778 1.434 . S
C778 C769 1.429 . S
C778 N775 1.350 . S
C778 C777 1.434 . S
C779 C780 1.369 . S
C779 C781 1.419 . S
C779 H783 0.930 . S
C780 C779 1.369 . S
C780 C789 1.429 . S
C781 C779 1.419 . S
C781 C782 1.363 . S
C781 H784 0.929 . S
C782 C781 1.363 . S
C782 C788 1.428 . S
H783 C779 0.930 . S
H784 C781 0.929 . S
S785 N786 1.613 . S
S785 N787 1.610 . S
N786 S785 1.613 . S
N786 C789 1.350 . S
N787 S785 1.610 . S
N787 C788 1.351 . S
C788 C782 1.428 . S
C788 N787 1.351 . S
C788 C789 1.434 . S
C789 C780 1.429 . S
C789 N786 1.350 . S
C789 C788 1.434 . S
C790 C791 1.369 . S
C790 C792 1.419 . S
C790 H794 0.930 . S
C791 C790 1.369 . S
C791 C800 1.429 . S
C792 C790 1.419 . S
C792 C793 1.363 . S
C792 H795 0.929 . S
C793 C792 1.363 . S
C793 C799 1.428 . S
H794 C790 0.930 . S
H795 C792 0.929 . S
S796 N797 1.613 . S
S796 N798 1.610 . S
N797 S796 1.613 . S
N797 C800 1.350 . S
N798 S796 1.610 . S
N798 C799 1.351 . S
C799 C793 1.428 . S
C799 N798 1.351 . S
C799 C800 1.434 . S
C800 C791 1.429 . S
C800 N797 1.350 . S
C800 C799 1.434 . S
C801 C802 1.369 . S
C801 C803 1.419 . S
C801 H805 0.930 . S
C802 C801 1.369 . S
C802 C811 1.429 . S
C803 C801 1.419 . S
C803 C804 1.363 . S
C803 H806 0.929 . S
C804 C803 1.363 . S
C804 C810 1.428 . S
H805 C801 0.930 . S
H806 C803 0.929 . S
S807 N808 1.613 . S
S807 N809 1.610 . S
N808 S807 1.613 . S
N808 C811 1.350 . S
N809 S807 1.610 . S
N809 C810 1.351 . S
C810 C804 1.428 . S
C810 N809 1.351 . S
C810 C811 1.434 . S
C811 C802 1.429 . S
C811 N808 1.350 . S
C811 C810 1.434 . S
C812 C813 1.369 . S
C812 C814 1.419 . S
C812 H816 0.930 . S
C813 C812 1.369 . S
C813 C822 1.429 . S
C814 C812 1.419 . S
C814 C815 1.363 . S
C814 H817 0.929 . S
C815 C814 1.363 . S
C815 C821 1.428 . S
H816 C812 0.930 . S
H817 C814 0.929 . S
S818 N819 1.613 . S
S818 N820 1.610 . S
N819 S818 1.613 . S
N819 C822 1.350 . S
N820 S818 1.610 . S
N820 C821 1.351 . S
C821 C815 1.428 . S
C821 N820 1.351 . S
C821 C822 1.434 . S
C822 C813 1.429 . S
C822 N819 1.350 . S
C822 C821 1.434 . S
C823 C824 1.369 . S
C823 C825 1.419 . S
C823 H827 0.930 . S
C824 C823 1.369 . S
C824 C833 1.429 . S
C825 C823 1.419 . S
C825 C826 1.363 . S
C825 H828 0.929 . S
C826 C825 1.363 . S
C826 C832 1.428 . S
H827 C823 0.930 . S
H828 C825 0.929 . S
S829 N830 1.613 . S
S829 N831 1.610 . S
N830 S829 1.613 . S
N830 C833 1.350 . S
N831 S829 1.610 . S
N831 C832 1.351 . S
C832 C826 1.428 . S
C832 N831 1.351 . S
C832 C833 1.434 . S
C833 C824 1.429 . S
C833 N830 1.350 . S
C833 C832 1.434 . S
C834 C835 1.369 . S
C834 C836 1.419 . S
C834 H838 0.930 . S
C835 C834 1.369 . S
C835 C844 1.429 . S
C836 C834 1.419 . S
C836 C837 1.363 . S
C836 H839 0.929 . S
C837 C836 1.363 . S
C837 C843 1.428 . S
H838 C834 0.930 . S
H839 C836 0.929 . S
S840 N841 1.613 . S
S840 N842 1.610 . S
N841 S840 1.613 . S
N841 C844 1.350 . S
N842 S840 1.610 . S
N842 C843 1.351 . S
C843 C837 1.428 . S
C843 N842 1.351 . S
C843 C844 1.434 . S
C844 C835 1.429 . S
C844 N841 1.350 . S
C844 C843 1.434 . S
C845 C846 1.369 . S
C845 C847 1.419 . S
C845 H849 0.930 . S
C846 C845 1.369 . S
C846 C855 1.429 . S
C847 C845 1.419 . S
C847 C848 1.363 . S
C847 H850 0.929 . S
C848 C847 1.363 . S
C848 C854 1.428 . S
H849 C845 0.930 . S
H850 C847 0.929 . S
S851 N852 1.613 . S
S851 N853 1.610 . S
N852 S851 1.613 . S
N852 C855 1.350 . S
N853 S851 1.610 . S
N853 C854 1.351 . S
C854 C848 1.428 . S
C854 N853 1.351 . S
C854 C855 1.434 . S
C855 C846 1.429 . S
C855 N852 1.350 . S
C855 C854 1.434 . S
C856 C857 1.369 . S
C856 C858 1.419 . S
C856 H860 0.930 . S
C857 C856 1.369 . S
C857 C866 1.429 . S
C858 C856 1.419 . S
C858 C859 1.363 . S
C858 H861 0.929 . S
C859 C858 1.363 . S
C859 C865 1.428 . S
H860 C856 0.930 . S
H861 C858 0.929 . S
S862 N863 1.613 . S
S862 N864 1.610 . S
N863 S862 1.613 . S
N863 C866 1.350 . S
N864 S862 1.610 . S
N864 C865 1.351 . S
C865 C859 1.428 . S
C865 N864 1.351 . S
C865 C866 1.434 . S
C866 C857 1.429 . S
C866 N863 1.350 . S
C866 C865 1.434 . S
C867 C868 1.369 . S
C867 C869 1.419 . S
C867 H871 0.930 . S
C868 C867 1.369 . S
C868 C877 1.429 . S
C869 C867 1.419 . S
C869 C870 1.363 . S
C869 H872 0.929 . S
C870 C869 1.363 . S
C870 C876 1.428 . S
H871 C867 0.930 . S
H872 C869 0.929 . S
S873 N874 1.613 . S
S873 N875 1.610 . S
N874 S873 1.613 . S
N874 C877 1.350 . S
N875 S873 1.610 . S
N875 C876 1.351 . S
C876 C870 1.428 . S
C876 N875 1.351 . S
C876 C877 1.434 . S
C877 C868 1.429 . S
C877 N874 1.350 . S
C877 C876 1.434 . S
C878 C879 1.369 . S
C878 C880 1.419 . S
C878 H882 0.930 . S
C879 C878 1.369 . S
C879 C888 1.429 . S
C880 C878 1.419 . S
C880 C881 1.363 . S
C880 H883 0.929 . S
C881 C880 1.363 . S
C881 C887 1.428 . S
H882 C878 0.930 . S
H883 C880 0.929 . S
S884 N885 1.613 . S
S884 N886 1.610 . S
N885 S884 1.613 . S
N885 C888 1.350 . S
N886 S884 1.610 . S
N886 C887 1.351 . S
C887 C881 1.428 . S
C887 N886 1.351 . S
C887 C888 1.434 . S
C888 C879 1.429 . S
C888 N885 1.350 . S
C888 C887 1.434 . S
C889 C890 1.369 . S
C889 C891 1.419 . S
C889 H893 0.930 . S
C890 C889 1.369 . S
C890 C899 1.429 . S
C891 C889 1.419 . S
C891 C892 1.363 . S
C891 H894 0.929 . S
C892 C891 1.363 . S
C892 C898 1.428 . S
H893 C889 0.930 . S
H894 C891 0.929 . S
S895 N896 1.613 . S
S895 N897 1.610 . S
N896 S895 1.613 . S
N896 C899 1.350 . S
N897 S895 1.610 . S
N897 C898 1.351 . S
C898 C892 1.428 . S
C898 N897 1.351 . S
C898 C899 1.434 . S
C899 C890 1.429 . S
C899 N896 1.350 . S
C899 C898 1.434 . S
C900 C901 1.369 . S
C900 C902 1.419 . S
C900 H904 0.930 . S
C901 C900 1.369 . S
C901 C910 1.429 . S
C902 C900 1.419 . S
C902 C903 1.363 . S
C902 H905 0.929 . S
C903 C902 1.363 . S
C903 C909 1.428 . S
H904 C900 0.930 . S
H905 C902 0.929 . S
S906 N907 1.613 . S
S906 N908 1.610 . S
N907 S906 1.613 . S
N907 C910 1.350 . S
N908 S906 1.610 . S
N908 C909 1.351 . S
C909 C903 1.428 . S
C909 N908 1.351 . S
C909 C910 1.434 . S
C910 C901 1.429 . S
C910 N907 1.350 . S
C910 C909 1.434 . S
C911 C912 1.369 . S
C911 C913 1.419 1_565 S
C911 H915 0.930 . S
C912 C911 1.369 . S
C912 C921 1.429 . S
C913 C911 1.419 1_545 S
C913 C914 1.363 . S
C913 H916 0.929 . S
C914 C913 1.363 . S
C914 C920 1.428 . S
H915 C911 0.930 . S
H916 C913 0.929 . S
S917 N918 1.613 1_545 S
S917 N919 1.610 . S
N918 S917 1.613 1_565 S
N918 C921 1.350 . S
N919 S917 1.610 . S
N919 C920 1.351 . S
C920 C914 1.428 . S
C920 N919 1.351 . S
C920 C921 1.434 1_545 S
C921 C912 1.429 . S
C921 N918 1.350 . S
C921 C920 1.434 1_565 S
C922 C923 1.369 . S
C922 C924 1.419 1_655 S
C922 H926 0.930 . S
C923 C922 1.369 . S
C923 C932 1.429 . S
C924 C922 1.419 1_455 S
C924 C925 1.363 . S
C924 H927 0.929 . S
C925 C924 1.363 . S
C925 C931 1.428 . S
H926 C922 0.930 . S
H927 C924 0.929 . S
S928 N929 1.613 1_455 S
S928 N930 1.610 . S
N929 S928 1.613 1_655 S
N929 C932 1.350 . S
N930 S928 1.610 . S
N930 C931 1.351 . S
C931 C925 1.428 . S
C931 N930 1.351 . S
C931 C932 1.434 1_455 S
C932 C923 1.429 . S
C932 N929 1.350 . S
C932 C931 1.434 1_655 S
C933 C934 1.369 . S
C933 C935 1.419 . S
C933 H937 0.930 . S
C934 C933 1.369 . S
C934 C943 1.429 . S
C935 C933 1.419 . S
C935 C936 1.363 . S
C935 H938 0.929 . S
C936 C935 1.363 . S
C936 C942 1.428 . S
H937 C933 0.930 . S
H938 C935 0.929 . S
S939 N940 1.613 . S
S939 N941 1.610 . S
N940 S939 1.613 . S
N940 C943 1.350 . S
N941 S939 1.610 . S
N941 C942 1.351 . S
C942 C936 1.428 . S
C942 N941 1.351 . S
C942 C943 1.434 . S
C943 C934 1.429 . S
C943 N940 1.350 . S
C943 C942 1.434 . S
C944 C945 1.369 . S
C944 C946 1.419 1_545 S
C944 H948 0.930 . S
C945 C944 1.369 . S
C945 C954 1.429 . S
C946 C944 1.419 1_565 S
C946 C947 1.363 . S
C946 H949 0.929 . S
C947 C946 1.363 . S
C947 C953 1.428 . S
H948 C944 0.930 . S
H949 C946 0.929 . S
S950 N951 1.613 1_565 S
S950 N952 1.610 . S
N951 S950 1.613 1_545 S
N951 C954 1.350 . S
N952 S950 1.610 . S
N952 C953 1.351 . S
C953 C947 1.428 . S
C953 N952 1.351 . S
C953 C954 1.434 1_565 S
C954 C945 1.429 . S
C954 N951 1.350 . S
C954 C953 1.434 1_545 S
C955 C956 1.369 . S
C955 C957 1.419 1_655 S
C955 H959 0.930 . S
C956 C955 1.369 . S
C956 C965 1.429 . S
C957 C955 1.419 1_455 S
C957 C958 1.363 . S
C957 H960 0.929 . S
C958 C957 1.363 . S
C958 C964 1.428 . S
H959 C955 0.930 . S
H960 C957 0.929 . S
S961 N962 1.613 1_455 S
S961 N963 1.610 . S
N962 S961 1.613 1_655 S
N962 C965 1.350 . S
N963 S961 1.610 . S
N963 C964 1.351 . S
C964 C958 1.428 . S
C964 N963 1.351 . S
C964 C965 1.434 1_455 S
C965 C956 1.429 . S
C965 N962 1.350 . S
C965 C964 1.434 1_655 S
C966 C967 1.369 . S
C966 C968 1.419 . S
C966 H970 0.930 . S
C967 C966 1.369 . S
C967 C976 1.429 . S
C968 C966 1.419 . S
C968 C969 1.363 . S
C968 H971 0.929 . S
C969 C968 1.363 . S
C969 C975 1.428 . S
H970 C966 0.930 . S
H971 C968 0.929 . S
S972 N973 1.613 . S
S972 N974 1.610 . S
N973 S972 1.613 . S
N973 C976 1.350 . S
N974 S972 1.610 . S
N974 C975 1.351 . S
C975 C969 1.428 . S
C975 N974 1.351 . S
C975 C976 1.434 . S
C976 C967 1.429 . S
C976 N973 1.350 . S
C976 C975 1.434 . S
C977 C978 1.369 . S
C977 C979 1.419 . S
C977 H981 0.930 . S
C978 C977 1.369 . S
C978 C987 1.429 . S
C979 C977 1.419 . S
C979 C980 1.363 . S
C979 H982 0.929 . S
C980 C979 1.363 . S
C980 C986 1.428 . S
H981 C977 0.930 . S
H982 C979 0.929 . S
S983 N984 1.613 . S
S983 N985 1.610 . S
N984 S983 1.613 . S
N984 C987 1.350 . S
N985 S983 1.610 . S
N985 C986 1.351 . S
C986 C980 1.428 . S
C986 N985 1.351 . S
C986 C987 1.434 . S
C987 C978 1.429 . S
C987 N984 1.350 . S
C987 C986 1.434 . S
C988 C989 1.369 . S
C988 C990 1.419 . S
C988 H992 0.930 . S
C989 C988 1.369 . S
C989 C998 1.429 . S
C990 C988 1.419 . S
C990 C991 1.363 . S
C990 H993 0.929 . S
C991 C990 1.363 . S
C991 C997 1.428 . S
H992 C988 0.930 . S
H993 C990 0.929 . S
S994 N995 1.613 . S
S994 N996 1.610 . S
N995 S994 1.613 . S
N995 C998 1.350 . S
N996 S994 1.610 . S
N996 C997 1.351 . S
C997 C991 1.428 . S
C997 N996 1.351 . S
C997 C998 1.434 . S
C998 C989 1.429 . S
C998 N995 1.350 . S
C998 C997 1.434 . S
C999 C1000 1.369 . S
C999 C1001 1.419 . S
C999 H1003 0.930 . S
C1000 C999 1.369 . S
C1000 C1009 1.429 . S
C1001 C999 1.419 . S
C1001 C1002 1.363 . S
C1001 H1004 0.929 . S
C1002 C1001 1.363 . S
C1002 C1008 1.428 . S
H1003 C999 0.930 . S
H1004 C1001 0.929 . S
S1005 N1006 1.613 . S
S1005 N1007 1.610 . S
N1006 S1005 1.613 . S
N1006 C1009 1.350 . S
N1007 S1005 1.610 . S
N1007 C1008 1.351 . S
C1008 C1002 1.428 . S
C1008 N1007 1.351 . S
C1008 C1009 1.434 . S
C1009 C1000 1.429 . S
C1009 N1006 1.350 . S
C1009 C1008 1.434 . S
C1010 C1011 1.369 . S
C1010 C1012 1.419 . S
C1010 H1014 0.930 . S
C1011 C1010 1.369 . S
C1011 C1020 1.429 . S
C1012 C1010 1.419 . S
C1012 C1013 1.363 . S
C1012 H1015 0.929 . S
C1013 C1012 1.363 . S
C1013 C1019 1.428 . S
H1014 C1010 0.930 . S
H1015 C1012 0.929 . S
S1016 N1017 1.613 . S
S1016 N1018 1.610 . S
N1017 S1016 1.613 . S
N1017 C1020 1.350 1_556 S
N1018 S1016 1.610 . S
N1018 C1019 1.351 1_556 S
C1019 C1013 1.428 . S
C1019 N1018 1.351 1_554 S
C1019 C1020 1.434 . S
C1020 C1011 1.429 . S
C1020 N1017 1.350 1_554 S
C1020 C1019 1.434 . S
C1021 C1022 1.369 . S
C1021 C1023 1.419 . S
C1021 H1025 0.930 . S
C1022 C1021 1.369 . S
C1022 C1031 1.429 . S
C1023 C1021 1.419 . S
C1023 C1024 1.363 . S
C1023 H1026 0.929 1_554 S
C1024 C1023 1.363 . S
C1024 C1030 1.428 . S
H1025 C1021 0.930 . S
H1026 C1023 0.929 1_556 S
S1027 N1028 1.613 . S
S1027 N1029 1.610 . S
N1028 S1027 1.613 . S
N1028 C1031 1.350 . S
N1029 S1027 1.610 . S
N1029 C1030 1.351 . S
C1030 C1024 1.428 . S
C1030 N1029 1.351 . S
C1030 C1031 1.434 . S
C1031 C1022 1.429 . S
C1031 N1028 1.350 . S
C1031 C1030 1.434 . S
C1032 C1033 1.369 . S
C1032 C1034 1.419 . S
C1032 H1036 0.930 1_556 S
C1033 C1032 1.369 . S
C1033 C1042 1.429 . S
C1034 C1032 1.419 . S
C1034 C1035 1.363 . S
C1034 H1037 0.929 . S
C1035 C1034 1.363 . S
C1035 C1041 1.428 . S
H1036 C1032 0.930 1_554 S
H1037 C1034 0.929 . S
S1038 N1039 1.613 . S
S1038 N1040 1.610 . S
N1039 S1038 1.613 . S
N1039 C1042 1.350 . S
N1040 S1038 1.610 . S
N1040 C1041 1.351 . S
C1041 C1035 1.428 . S
C1041 N1040 1.351 . S
C1041 C1042 1.434 . S
C1042 C1033 1.429 . S
C1042 N1039 1.350 . S
C1042 C1041 1.434 . S
C1043 C1044 1.369 . S
C1043 C1045 1.419 . S
C1043 H1047 0.930 . S
C1044 C1043 1.369 . S
C1044 C1053 1.429 . S
C1045 C1043 1.419 . S
C1045 C1046 1.363 . S
C1045 H1048 0.929 . S
C1046 C1045 1.363 . S
C1046 C1052 1.428 . S
H1047 C1043 0.930 . S
H1048 C1045 0.929 . S
S1049 N1050 1.613 . S
S1049 N1051 1.610 . S
N1050 S1049 1.613 . S
N1050 C1053 1.350 . S
N1051 S1049 1.610 . S
N1051 C1052 1.351 . S
C1052 C1046 1.428 . S
C1052 N1051 1.351 . S
C1052 C1053 1.434 . S
C1053 C1044 1.429 . S
C1053 N1050 1.350 . S
C1053 C1052 1.434 . S
C1054 C1055 1.369 . S
C1054 C1056 1.419 . S
C1054 H1058 0.930 . S
C1055 C1054 1.369 . S
C1055 C1064 1.429 . S
C1056 C1054 1.419 . S
C1056 C1057 1.363 . S
C1056 H1059 0.918 1_556 S
C1057 C1056 1.363 . S
C1057 C1063 1.428 . S
H1058 C1054 0.930 . S
H1059 C1056 0.918 1_554 S
S1060 N1061 1.613 . S
S1060 N1062 1.610 . S
N1061 S1060 1.613 . S
N1061 C1064 1.350 . S
N1062 S1060 1.610 . S
N1062 C1063 1.351 . S
C1063 C1057 1.428 . S
C1063 N1062 1.351 . S
C1063 C1064 1.434 . S
C1064 C1055 1.429 . S
C1064 N1061 1.350 . S
C1064 C1063 1.434 . S
C1065 C1066 1.369 . S
C1065 C1067 1.419 . S
C1065 H1069 0.930 . S
C1066 C1065 1.369 . S
C1066 C1075 1.429 . S
C1067 C1065 1.419 . S
C1067 C1068 1.363 . S
C1067 H1070 0.929 . S
C1068 C1067 1.363 . S
C1068 C1074 1.428 . S
H1069 C1065 0.930 . S
H1070 C1067 0.929 . S
S1071 N1072 1.613 . S
S1071 N1073 1.610 . S
N1072 S1071 1.613 . S
N1072 C1075 1.350 . S
N1073 S1071 1.610 . S
N1073 C1074 1.351 . S
C1074 C1068 1.428 . S
C1074 N1073 1.351 . S
C1074 C1075 1.434 . S
C1075 C1066 1.429 . S
C1075 N1072 1.350 . S
C1075 C1074 1.434 . S
C1076 C1077 1.369 . S
C1076 C1078 1.419 . S
C1076 H1080 0.930 . S
C1077 C1076 1.369 . S
C1077 C1086 1.429 . S
C1078 C1076 1.419 . S
C1078 C1079 1.363 . S
C1078 H1081 0.929 . S
C1079 C1078 1.363 . S
C1079 C1085 1.428 . S
H1080 C1076 0.930 . S
H1081 C1078 0.929 . S
S1082 N1083 1.613 . S
S1082 N1084 1.610 . S
N1083 S1082 1.613 . S
N1083 C1086 1.350 . S
N1084 S1082 1.610 . S
N1084 C1085 1.351 . S
C1085 C1079 1.428 . S
C1085 N1084 1.351 . S
C1085 C1086 1.434 . S
C1086 C1077 1.429 . S
C1086 N1083 1.350 . S
C1086 C1085 1.434 . S
C1087 C1088 1.369 . S
C1087 C1089 1.419 . S
C1087 H1091 0.930 . S
C1088 C1087 1.369 . S
C1088 C1097 1.429 . S
C1089 C1087 1.419 . S
C1089 C1090 1.363 . S
C1089 H1092 0.929 . S
C1090 C1089 1.363 . S
C1090 C1096 1.428 . S
H1091 C1087 0.930 . S
H1092 C1089 0.929 . S
S1093 N1094 1.613 . S
S1093 N1095 1.610 . S
N1094 S1093 1.613 . S
N1094 C1097 1.350 . S
N1095 S1093 1.610 . S
N1095 C1096 1.351 . S
C1096 C1090 1.428 . S
C1096 N1095 1.351 . S
C1096 C1097 1.434 . S
C1097 C1088 1.429 . S
C1097 N1094 1.350 . S
C1097 C1096 1.434 . S
C1098 C1099 1.369 . S
C1098 C1100 1.419 . S
C1098 H1102 0.930 . S
C1099 C1098 1.369 . S
C1099 C1108 1.429 . S
C1100 C1098 1.419 . S
C1100 C1101 1.363 . S
C1100 H1103 0.929 . S
C1101 C1100 1.363 . S
C1101 C1107 1.428 . S
H1102 C1098 0.930 . S
H1103 C1100 0.929 . S
S1104 N1105 1.613 . S
S1104 N1106 1.610 . S
N1105 S1104 1.613 . S
N1105 C1108 1.350 . S
N1106 S1104 1.610 . S
N1106 C1107 1.351 . S
C1107 C1101 1.428 . S
C1107 N1106 1.351 . S
C1107 C1108 1.434 . S
C1108 C1099 1.429 . S
C1108 N1105 1.350 . S
C1108 C1107 1.434 . S
C1109 C1110 1.369 . S
C1109 C1111 1.419 . S
C1109 H1113 0.930 . S
C1110 C1109 1.369 . S
C1110 C1119 1.429 . S
C1111 C1109 1.419 . S
C1111 C1112 1.363 . S
C1111 H1114 0.929 . S
C1112 C1111 1.363 . S
C1112 C1118 1.428 . S
H1113 C1109 0.930 . S
H1114 C1111 0.929 . S
S1115 N1116 1.613 . S
S1115 N1117 1.610 . S
N1116 S1115 1.613 . S
N1116 C1119 1.350 . S
N1117 S1115 1.610 . S
N1117 C1118 1.351 . S
C1118 C1112 1.428 . S
C1118 N1117 1.351 . S
C1118 C1119 1.434 . S
C1119 C1110 1.429 . S
C1119 N1116 1.350 . S
C1119 C1118 1.434 . S
C1120 C1121 1.369 . S
C1120 C1122 1.419 . S
C1120 H1124 0.930 . S
C1121 C1120 1.369 . S
C1121 C1130 1.429 . S
C1122 C1120 1.419 . S
C1122 C1123 1.363 . S
C1122 H1125 0.929 . S
C1123 C1122 1.363 . S
C1123 C1129 1.428 . S
H1124 C1120 0.930 . S
H1125 C1122 0.929 . S
S1126 N1127 1.613 . S
S1126 N1128 1.610 . S
N1127 S1126 1.613 . S
N1127 C1130 1.350 . S
N1128 S1126 1.610 . S
N1128 C1129 1.351 . S
C1129 C1123 1.428 . S
C1129 N1128 1.351 . S
C1129 C1130 1.434 . S
C1130 C1121 1.429 . S
C1130 N1127 1.350 . S
C1130 C1129 1.434 . S
C1131 C1132 1.369 . S
C1131 C1133 1.419 . S
C1131 H1135 0.930 . S
C1132 C1131 1.369 . S
C1132 C1141 1.429 . S
C1133 C1131 1.419 . S
C1133 C1134 1.363 . S
C1133 H1136 0.929 . S
C1134 C1133 1.363 . S
C1134 C1140 1.428 . S
H1135 C1131 0.930 . S
H1136 C1133 0.929 . S
S1137 N1138 1.613 . S
S1137 N1139 1.610 . S
N1138 S1137 1.613 . S
N1138 C1141 1.350 . S
N1139 S1137 1.610 . S
N1139 C1140 1.351 . S
C1140 C1134 1.428 . S
C1140 N1139 1.351 . S
C1140 C1141 1.434 . S
C1141 C1132 1.429 . S
C1141 N1138 1.350 . S
C1141 C1140 1.434 . S
C1142 C1143 1.369 . S
C1142 C1144 1.419 . S
C1142 H1146 0.930 . S
C1143 C1142 1.369 . S
C1143 C1152 1.429 . S
C1144 C1142 1.419 . S
C1144 C1145 1.363 . S
C1144 H1147 0.929 . S
C1145 C1144 1.363 . S
C1145 C1151 1.428 . S
H1146 C1142 0.930 . S
H1147 C1144 0.929 . S
S1148 N1149 1.613 . S
S1148 N1150 1.610 . S
N1149 S1148 1.613 . S
N1149 C1152 1.350 . S
N1150 S1148 1.610 . S
N1150 C1151 1.351 . S
C1151 C1145 1.428 . S
C1151 N1150 1.351 . S
C1151 C1152 1.434 . S
C1152 C1143 1.429 . S
C1152 N1149 1.350 . S
C1152 C1151 1.434 . S
C1153 C1154 1.369 . S
C1153 C1155 1.419 . S
C1153 H1157 0.930 . S
C1154 C1153 1.369 . S
C1154 C1163 1.429 . S
C1155 C1153 1.419 . S
C1155 C1156 1.363 . S
C1155 H1158 0.929 . S
C1156 C1155 1.363 . S
C1156 C1162 1.428 . S
H1157 C1153 0.930 . S
H1158 C1155 0.929 . S
S1159 N1160 1.613 . S
S1159 N1161 1.610 . S
N1160 S1159 1.613 . S
N1160 C1163 1.350 . S
N1161 S1159 1.610 . S
N1161 C1162 1.351 . S
C1162 C1156 1.428 . S
C1162 N1161 1.351 . S
C1162 C1163 1.434 . S
C1163 C1154 1.429 . S
C1163 N1160 1.350 . S
C1163 C1162 1.434 . S
C1164 C1165 1.369 . S
C1164 C1166 1.419 . S
C1164 H1168 0.930 . S
C1165 C1164 1.369 . S
C1165 C1174 1.429 . S
C1166 C1164 1.419 . S
C1166 C1167 1.363 . S
C1166 H1169 0.929 . S
C1167 C1166 1.363 . S
C1167 C1173 1.428 . S
H1168 C1164 0.930 . S
H1169 C1166 0.929 . S
S1170 N1171 1.613 . S
S1170 N1172 1.610 . S
N1171 S1170 1.613 . S
N1171 C1174 1.350 . S
N1172 S1170 1.610 . S
N1172 C1173 1.351 . S
C1173 C1167 1.428 . S
C1173 N1172 1.351 . S
C1173 C1174 1.434 . S
C1174 C1165 1.429 . S
C1174 N1171 1.350 . S
C1174 C1173 1.434 . S
C1175 C1176 1.369 . S
C1175 C1177 1.419 . S
C1175 H1179 0.930 . S
C1176 C1175 1.369 . S
C1176 C1185 1.429 . S
C1177 C1175 1.419 . S
C1177 C1178 1.363 . S
C1177 H1180 0.929 . S
C1178 C1177 1.363 . S
C1178 C1184 1.428 . S
H1179 C1175 0.930 . S
H1180 C1177 0.929 . S
S1181 N1182 1.613 . S
S1181 N1183 1.610 . S
N1182 S1181 1.613 . S
N1182 C1185 1.350 . S
N1183 S1181 1.610 . S
N1183 C1184 1.351 . S
C1184 C1178 1.428 . S
C1184 N1183 1.351 . S
C1184 C1185 1.434 . S
C1185 C1176 1.429 . S
C1185 N1182 1.350 . S
C1185 C1184 1.434 . S
C1186 C1187 1.369 . S
C1186 C1188 1.419 . S
C1186 H1190 0.930 . S
C1187 C1186 1.369 . S
C1187 C1196 1.429 . S
C1188 C1186 1.419 . S
C1188 C1189 1.363 . S
C1188 H1191 0.929 . S
C1189 C1188 1.363 . S
C1189 C1195 1.428 . S
H1190 C1186 0.930 . S
H1191 C1188 0.929 . S
S1192 N1193 1.613 . S
S1192 N1194 1.610 . S
N1193 S1192 1.613 . S
N1193 C1196 1.350 . S
N1194 S1192 1.610 . S
N1194 C1195 1.351 . S
C1195 C1189 1.428 . S
C1195 N1194 1.351 . S
C1195 C1196 1.434 . S
C1196 C1187 1.429 . S
C1196 N1193 1.350 . S
C1196 C1195 1.434 . S
C1197 C1198 1.369 . S
C1197 C1199 1.419 . S
C1197 H1201 0.930 . S
C1198 C1197 1.369 . S
C1198 C1207 1.429 . S
C1199 C1197 1.419 . S
C1199 C1200 1.363 . S
C1199 H1202 0.929 . S
C1200 C1199 1.363 . S
C1200 C1206 1.428 . S
H1201 C1197 0.930 . S
H1202 C1199 0.929 . S
S1203 N1204 1.613 . S
S1203 N1205 1.610 . S
N1204 S1203 1.613 . S
N1204 C1207 1.350 . S
N1205 S1203 1.610 . S
N1205 C1206 1.351 . S
C1206 C1200 1.428 . S
C1206 N1205 1.351 . S
C1206 C1207 1.434 . S
C1207 C1198 1.429 . S
C1207 N1204 1.350 . S
C1207 C1206 1.434 . S
C1208 C1209 1.369 . S
C1208 C1210 1.419 . S
C1208 H1212 0.930 . S
C1209 C1208 1.369 . S
C1209 C1218 1.429 . S
C1210 C1208 1.419 . S
C1210 C1211 1.363 . S
C1210 H1213 0.929 . S
C1211 C1210 1.363 . S
C1211 C1217 1.428 . S
H1212 C1208 0.930 . S
H1213 C1210 0.929 . S
S1214 N1215 1.613 . S
S1214 N1216 1.610 . S
N1215 S1214 1.613 . S
N1215 C1218 1.350 . S
N1216 S1214 1.610 . S
N1216 C1217 1.351 . S
C1217 C1211 1.428 . S
C1217 N1216 1.351 . S
C1217 C1218 1.434 . S
C1218 C1209 1.429 . S
C1218 N1215 1.350 . S
C1218 C1217 1.434 . S
C1219 C1220 1.369 . S
C1219 C1221 1.419 . S
C1219 H1223 0.930 . S
C1220 C1219 1.369 . S
C1220 C1229 1.429 . S
C1221 C1219 1.419 . S
C1221 C1222 1.363 . S
C1221 H1224 0.929 . S
C1222 C1221 1.363 . S
C1222 C1228 1.428 . S
H1223 C1219 0.930 . S
H1224 C1221 0.929 . S
S1225 N1226 1.613 . S
S1225 N1227 1.610 . S
N1226 S1225 1.613 . S
N1226 C1229 1.350 . S
N1227 S1225 1.610 . S
N1227 C1228 1.351 . S
C1228 C1222 1.428 . S
C1228 N1227 1.351 . S
C1228 C1229 1.434 . S
C1229 C1220 1.429 . S
C1229 N1226 1.350 . S
C1229 C1228 1.434 . S
C1230 C1231 1.369 . S
C1230 C1232 1.419 . S
C1230 H1234 0.930 . S
C1231 C1230 1.369 . S
C1231 C1240 1.429 1_455 S
C1232 C1230 1.419 . S
C1232 C1233 1.363 1_455 S
C1232 H1235 0.929 . S
C1233 C1232 1.363 1_655 S
C1233 C1239 1.428 . S
H1234 C1230 0.930 . S
H1235 C1232 0.929 . S
S1236 N1237 1.613 . S
S1236 N1238 1.610 . S
N1237 S1236 1.613 . S
N1237 C1240 1.350 . S
N1238 S1236 1.610 . S
N1238 C1239 1.351 . S
C1239 C1233 1.428 . S
C1239 N1238 1.351 . S
C1239 C1240 1.434 . S
C1240 C1231 1.429 1_655 S
C1240 N1237 1.350 . S
C1240 C1239 1.434 . S
C1241 C1242 1.369 . S
C1241 C1243 1.419 . S
C1241 H1245 0.930 . S
C1242 C1241 1.369 . S
C1242 C1251 1.429 . S
C1243 C1241 1.419 . S
C1243 C1244 1.363 . S
C1243 H1246 0.929 . S
C1244 C1243 1.363 . S
C1244 C1250 1.428 . S
H1245 C1241 0.930 . S
H1246 C1243 0.929 . S
S1247 N1248 1.613 . S
S1247 N1249 1.610 . S
N1248 S1247 1.613 . S
N1248 C1251 1.350 . S
N1249 S1247 1.610 . S
N1249 C1250 1.351 . S
C1250 C1244 1.428 . S
C1250 N1249 1.351 . S
C1250 C1251 1.434 . S
C1251 C1242 1.429 . S
C1251 N1248 1.350 . S
C1251 C1250 1.434 . S
C1252 C1253 1.369 . S
C1252 C1254 1.419 1_545 S
C1252 H1256 0.930 . S
C1253 C1252 1.369 . S
C1253 C1262 1.429 . S
C1254 C1252 1.419 1_565 S
C1254 C1255 1.363 . S
C1254 H1257 0.929 . S
C1255 C1254 1.363 . S
C1255 C1261 1.428 . S
H1256 C1252 0.930 . S
H1257 C1254 0.929 . S
S1258 N1259 1.613 . S
S1258 N1260 1.585 1_545 S
N1259 S1258 1.613 . S
N1259 C1262 1.350 . S
N1260 S1258 1.585 1_565 S
N1260 C1261 1.363 . S
C1261 C1255 1.428 . S
C1261 N1260 1.363 . S
C1261 C1262 1.434 1_565 S
C1262 C1253 1.429 . S
C1262 N1259 1.350 . S
C1262 C1261 1.434 1_545 S
C1263 C1264 1.369 1_556 S
C1263 C1265 1.419 1_545 S
C1263 H1267 0.930 . S
C1264 C1263 1.369 1_554 S
C1264 C1273 1.429 . S
C1265 C1263 1.419 1_565 S
C1265 C1266 1.363 . S
C1265 H1268 0.929 . S
C1266 C1265 1.363 . S
C1266 C1272 1.428 1_556 S
H1267 C1263 0.930 . S
H1268 C1265 0.929 . S
S1269 N1270 1.613 1_565 S
S1269 N1271 1.610 . S
N1270 S1269 1.613 1_545 S
N1270 C1273 1.350 . S
N1271 S1269 1.610 . S
N1271 C1272 1.351 . S
C1272 C1266 1.428 1_554 S
C1272 N1271 1.351 . S
C1272 C1273 1.434 1_565 S
C1273 C1264 1.429 . S
C1273 N1270 1.350 . S
C1273 C1272 1.434 1_545 S
C1274 C1275 1.369 . S
C1274 C1276 1.419 1_655 S
C1274 H1278 0.930 . S
C1275 C1274 1.369 . S
C1275 C1284 1.429 1_554 S
C1276 C1274 1.419 1_455 S
C1276 C1277 1.363 1_554 S
C1276 H1279 0.929 . S
C1277 C1276 1.363 1_556 S
C1277 C1283 1.428 . S
H1278 C1274 0.930 . S
H1279 C1276 0.929 . S
S1280 N1281 1.613 1_455 S
S1280 N1282 1.610 . S
N1281 S1280 1.613 1_655 S
N1281 C1284 1.350 . S
N1282 S1280 1.610 . S
N1282 C1283 1.351 . S
C1283 C1277 1.428 . S
C1283 N1282 1.351 . S
C1283 C1284 1.434 1_455 S
C1284 C1275 1.429 1_556 S
C1284 N1281 1.350 . S
C1284 C1283 1.434 1_655 S
C1285 C1286 1.369 . S
C1285 C1287 1.419 . S
C1285 H1289 0.930 . S
C1286 C1285 1.369 . S
C1286 C1295 1.429 1_554 S
C1287 C1285 1.419 . S
C1287 C1288 1.363 1_554 S
C1287 H1290 0.929 . S
C1288 C1287 1.363 1_556 S
C1288 C1294 1.428 . S
H1289 C1285 0.930 . S
H1290 C1287 0.929 . S
S1291 N1292 1.613 . S
S1291 N1293 1.610 . S
N1292 S1291 1.613 . S
N1292 C1295 1.350 . S
N1293 S1291 1.610 . S
N1293 C1294 1.351 . S
C1294 C1288 1.428 . S
C1294 N1293 1.351 . S
C1294 C1295 1.434 . S
C1295 C1286 1.429 1_556 S
C1295 N1292 1.350 . S
C1295 C1294 1.434 . S
C505 C153 1.305 . S
C507 C7 1.292 . S
C516 C167 1.307 . S
C518 C21 1.294 . S
C527 C35 1.290 . S
C529 C139 1.306 . S
C538 C49 1.297 . S
C540 C125 1.310 . S
C549 C63 1.291 . S
C551 C97 1.306 . S
C560 C111 1.307 . S
C562 C77 1.292 . S
C571 C69 1.306 . S
C573 C91 1.292 . S
C582 C83 1.309 . S
C584 C105 1.294 . S
C593 C119 1.290 . S
C595 C55 1.306 . S
C604 C41 1.306 . S
C606 C133 1.292 . S
C615 C147 1.291 . S
C617 C13 1.306 . S
C626 C161 1.292 . S
C628 C27 1.306 . S
C637 C321 1.304 . S
C639 C175 1.290 . S
C648 C335 1.310 . S
C650 C189 1.295 . S
C659 C203 1.298 . S
C661 C307 1.310 . S
C670 C217 1.293 . S
C672 C293 1.306 1_556 S
C681 C231 1.296 . S
C683 C265 1.310 1_556 S
C692 C245 1.290 . S
C694 C279 1.305 1_556 S
C703 C237 1.305 . S
C705 C259 1.291 . S
C714 C251 1.308 . S
C716 C273 1.294 . S
C725 C223 1.308 . S
C727 C287 1.294 . S
C736 C209 1.307 . S
C738 C301 1.293 . S
C747 C181 1.308 . S
C749 C315 1.294 . S
C758 C195 1.304 . S
C760 C329 1.290 . S
C769 C343 1.296 . S
C771 C489 1.309 . S
C780 C503 1.311 . S
C782 C357 1.297 . S
C791 C475 1.305 . S
C793 C371 1.290 . S
C802 C385 1.292 . S
C804 C461 1.307 . S
C813 C399 1.297 . S
C815 C433 1.310 . S
C824 C413 1.289 . S
C826 C447 1.305 . S
C835 C405 1.311 . S
C837 C427 1.297 . S
C846 C419 1.310 . S
C848 C441 1.296 . S
C857 C391 1.306 . S
C859 C455 1.292 . S
C868 C469 1.290 . S
C870 C377 1.306 1_554 S
C879 C349 1.307 1_554 S
C881 C483 1.293 . S
C890 C497 1.292 . S
C892 C363 1.307 1_554 S
C901 C53 1.385 . S
C903 C11 1.385 . S
C912 C67 1.384 . S
C914 C25 1.384 . S
C923 C39 1.386 . S
C925 C81 1.385 . S
C934 C137 1.384 . S
C936 C95 1.384 . S
C945 C151 1.382 . S
C947 C109 1.383 . S
C956 C165 1.382 . S
C958 C123 1.383 . S
C967 C221 1.387 . S
C969 C179 1.386 . S
C978 C235 1.383 . S
C980 C193 1.384 . S
C989 C207 1.383 . S
C991 C249 1.383 . S
C1000 C263 1.383 . S
C1002 C305 1.383 . S
C1011 C319 1.384 . S
C1013 C277 1.384 . S
C1022 C291 1.384 . S
C1024 C333 1.384 . S
C1033 C389 1.385 . S
C1035 C347 1.385 . S
C1044 C403 1.385 . S
C1046 C361 1.385 . S
C1055 C375 1.386 . S
C1057 C417 1.385 . S
C1066 C431 1.383 . S
C1068 C473 1.384 . S
C1077 C445 1.384 . S
C1079 C487 1.384 . S
C1088 C459 1.382 . S
C1090 C501 1.382 . S
C1099 C8 1.330 . S
C1101 C260 1.344 . S
C1110 C274 1.344 . S
C1112 C22 1.333 . S
C1121 C288 1.344 . S
C1123 C36 1.332 . S
C1132 C470 1.334 . S
C1134 C50 1.340 . S
C1143 C484 1.330 . S
C1145 C64 1.343 . S
C1154 C498 1.336 . S
C1156 C78 1.339 . S
C1165 C92 1.339 . S
C1167 C344 1.339 . S
C1176 C358 1.340 . S
C1178 C106 1.336 . S
C1187 C372 1.330 . S
C1189 C120 1.343 . S
C1198 C134 1.341 . S
C1200 C218 1.337 . S
C1209 C148 1.333 . S
C1211 C232 1.341 . S
C1220 C162 1.343 . S
C1222 C246 1.334 . S
C1231 C428 1.344 . S
C1233 C176 1.333 . S
C1242 C442 1.342 . S
C1244 C190 1.334 . S
C1253 C204 1.335 . S
C1255 C456 1.339 . S
C1264 C302 1.332 . S
C1266 C386 1.343 . S
C1275 C316 1.346 . S
C1277 C400 1.332 . S
C1286 C330 1.342 . S
C1288 C414 1.336 . S
