# Generated by pormake.
# Topology vcc, (6)-cn, num edge types: 1
# Building blocks:
#     Node 0, Type 0, BuildingBlock: KUMBOL_clean_sbu_0, # of connection points: 6
#     Node 1, Type 0, BuildingBlock: KUMBOL_clean_sbu_0, # of connection points: 6
#     Node 2, Type 0, BuildingBlock: KUMBOL_clean_sbu_0, # of connection points: 6
#     Node 3, Type 0, BuildingBlock: KUMBOL_clean_sbu_0, # of connection points: 6
#     Node 4, Type 0, BuildingBlock: KUMBOL_clean_sbu_0, # of connection points: 6
#     Node 5, Type 0, BuildingBlock: KUMBOL_clean_sbu_0, # of connection points: 6
#     Node 6, Type 0, BuildingBlock: KUMBOL_clean_sbu_0, # of connection points: 6
#     Node 7, Type 0, BuildingBlock: KUMBOL_clean_sbu_0, # of connection points: 6
#     Node 8, Type 0, BuildingBlock: KUMBOL_clean_sbu_0, # of connection points: 6
#     Node 9, Type 0, BuildingBlock: KUMBOL_clean_sbu_0, # of connection points: 6
#     Node 10, Type 0, BuildingBlock: KUMBOL_clean_sbu_0, # of connection points: 6
#     Node 11, Type 0, BuildingBlock: KUMBOL_clean_sbu_0, # of connection points: 6
#     Node 12, Type 0, BuildingBlock: KUMBOL_clean_sbu_0, # of connection points: 6
#     Node 13, Type 0, BuildingBlock: KUMBOL_clean_sbu_0, # of connection points: 6
#     Node 14, Type 0, BuildingBlock: KUMBOL_clean_sbu_0, # of connection points: 6
#     Node 15, Type 0, BuildingBlock: KUMBOL_clean_sbu_0, # of connection points: 6
#     Node 16, Type 0, BuildingBlock: KUMBOL_clean_sbu_0, # of connection points: 6
#     Node 17, Type 0, BuildingBlock: KUMBOL_clean_sbu_0, # of connection points: 6
#     Node 18, Type 0, BuildingBlock: KUMBOL_clean_sbu_0, # of connection points: 6
#     Node 19, Type 0, BuildingBlock: KUMBOL_clean_sbu_0, # of connection points: 6
#     Node 20, Type 0, BuildingBlock: KUMBOL_clean_sbu_0, # of connection points: 6
#     Node 21, Type 0, BuildingBlock: KUMBOL_clean_sbu_0, # of connection points: 6
#     Node 22, Type 0, BuildingBlock: KUMBOL_clean_sbu_0, # of connection points: 6
#     Node 23, Type 0, BuildingBlock: KUMBOL_clean_sbu_0, # of connection points: 6
#     Node 24, Type 0, BuildingBlock: KUMBOL_clean_sbu_0, # of connection points: 6
#     Node 25, Type 0, BuildingBlock: KUMBOL_clean_sbu_0, # of connection points: 6
#     Node 26, Type 0, BuildingBlock: KUMBOL_clean_sbu_0, # of connection points: 6
#     Node 27, Type 0, BuildingBlock: KUMBOL_clean_sbu_0, # of connection points: 6
#     Node 28, Type 0, BuildingBlock: KUMBOL_clean_sbu_0, # of connection points: 6
#     Node 29, Type 0, BuildingBlock: KUMBOL_clean_sbu_0, # of connection points: 6
#     Node 30, Type 0, BuildingBlock: KUMBOL_clean_sbu_0, # of connection points: 6
#     Node 31, Type 0, BuildingBlock: KUMBOL_clean_sbu_0, # of connection points: 6
#     Edge 32, Type (0, 0), BuildingBlock: MIFKUJ_clean_linker_0, # of connection points: 2
#     Edge 33, Type (0, 0), BuildingBlock: MIFKUJ_clean_linker_0, # of connection points: 2
#     Edge 34, Type (0, 0), BuildingBlock: MIFKUJ_clean_linker_0, # of connection points: 2
#     Edge 35, Type (0, 0), BuildingBlock: MIFKUJ_clean_linker_0, # of connection points: 2
#     Edge 36, Type (0, 0), BuildingBlock: MIFKUJ_clean_linker_0, # of connection points: 2
#     Edge 37, Type (0, 0), BuildingBlock: MIFKUJ_clean_linker_0, # of connection points: 2
#     Edge 38, Type (0, 0), BuildingBlock: MIFKUJ_clean_linker_0, # of connection points: 2
#     Edge 39, Type (0, 0), BuildingBlock: MIFKUJ_clean_linker_0, # of connection points: 2
#     Edge 40, Type (0, 0), BuildingBlock: MIFKUJ_clean_linker_0, # of connection points: 2
#     Edge 41, Type (0, 0), BuildingBlock: MIFKUJ_clean_linker_0, # of connection points: 2
#     Edge 42, Type (0, 0), BuildingBlock: MIFKUJ_clean_linker_0, # of connection points: 2
#     Edge 43, Type (0, 0), BuildingBlock: MIFKUJ_clean_linker_0, # of connection points: 2
#     Edge 44, Type (0, 0), BuildingBlock: MIFKUJ_clean_linker_0, # of connection points: 2
#     Edge 45, Type (0, 0), BuildingBlock: MIFKUJ_clean_linker_0, # of connection points: 2
#     Edge 46, Type (0, 0), BuildingBlock: MIFKUJ_clean_linker_0, # of connection points: 2
#     Edge 47, Type (0, 0), BuildingBlock: MIFKUJ_clean_linker_0, # of connection points: 2
#     Edge 48, Type (0, 0), BuildingBlock: MIFKUJ_clean_linker_0, # of connection points: 2
#     Edge 49, Type (0, 0), BuildingBlock: MIFKUJ_clean_linker_0, # of connection points: 2
#     Edge 50, Type (0, 0), BuildingBlock: MIFKUJ_clean_linker_0, # of connection points: 2
#     Edge 51, Type (0, 0), BuildingBlock: MIFKUJ_clean_linker_0, # of connection points: 2
#     Edge 52, Type (0, 0), BuildingBlock: MIFKUJ_clean_linker_0, # of connection points: 2
#     Edge 53, Type (0, 0), BuildingBlock: MIFKUJ_clean_linker_0, # of connection points: 2
#     Edge 54, Type (0, 0), BuildingBlock: MIFKUJ_clean_linker_0, # of connection points: 2
#     Edge 55, Type (0, 0), BuildingBlock: MIFKUJ_clean_linker_0, # of connection points: 2
#     Edge 56, Type (0, 0), BuildingBlock: MIFKUJ_clean_linker_0, # of connection points: 2
#     Edge 57, Type (0, 0), BuildingBlock: MIFKUJ_clean_linker_0, # of connection points: 2
#     Edge 58, Type (0, 0), BuildingBlock: MIFKUJ_clean_linker_0, # of connection points: 2
#     Edge 59, Type (0, 0), BuildingBlock: MIFKUJ_clean_linker_0, # of connection points: 2
#     Edge 60, Type (0, 0), BuildingBlock: MIFKUJ_clean_linker_0, # of connection points: 2
#     Edge 61, Type (0, 0), BuildingBlock: MIFKUJ_clean_linker_0, # of connection points: 2
#     Edge 62, Type (0, 0), BuildingBlock: MIFKUJ_clean_linker_0, # of connection points: 2
#     Edge 63, Type (0, 0), BuildingBlock: MIFKUJ_clean_linker_0, # of connection points: 2
#     Edge 64, Type (0, 0), BuildingBlock: MIFKUJ_clean_linker_0, # of connection points: 2
#     Edge 65, Type (0, 0), BuildingBlock: MIFKUJ_clean_linker_0, # of connection points: 2
#     Edge 66, Type (0, 0), BuildingBlock: MIFKUJ_clean_linker_0, # of connection points: 2
#     Edge 67, Type (0, 0), BuildingBlock: MIFKUJ_clean_linker_0, # of connection points: 2
#     Edge 68, Type (0, 0), BuildingBlock: MIFKUJ_clean_linker_0, # of connection points: 2
#     Edge 69, Type (0, 0), BuildingBlock: MIFKUJ_clean_linker_0, # of connection points: 2
#     Edge 70, Type (0, 0), BuildingBlock: MIFKUJ_clean_linker_0, # of connection points: 2
#     Edge 71, Type (0, 0), BuildingBlock: MIFKUJ_clean_linker_0, # of connection points: 2
#     Edge 72, Type (0, 0), BuildingBlock: MIFKUJ_clean_linker_0, # of connection points: 2
#     Edge 73, Type (0, 0), BuildingBlock: MIFKUJ_clean_linker_0, # of connection points: 2
#     Edge 74, Type (0, 0), BuildingBlock: MIFKUJ_clean_linker_0, # of connection points: 2
#     Edge 75, Type (0, 0), BuildingBlock: MIFKUJ_clean_linker_0, # of connection points: 2
#     Edge 76, Type (0, 0), BuildingBlock: MIFKUJ_clean_linker_0, # of connection points: 2
#     Edge 77, Type (0, 0), BuildingBlock: MIFKUJ_clean_linker_0, # of connection points: 2
#     Edge 78, Type (0, 0), BuildingBlock: MIFKUJ_clean_linker_0, # of connection points: 2
#     Edge 79, Type (0, 0), BuildingBlock: MIFKUJ_clean_linker_0, # of connection points: 2
#     Edge 80, Type (0, 0), BuildingBlock: MIFKUJ_clean_linker_0, # of connection points: 2
#     Edge 81, Type (0, 0), BuildingBlock: MIFKUJ_clean_linker_0, # of connection points: 2
#     Edge 82, Type (0, 0), BuildingBlock: MIFKUJ_clean_linker_0, # of connection points: 2
#     Edge 83, Type (0, 0), BuildingBlock: MIFKUJ_clean_linker_0, # of connection points: 2
#     Edge 84, Type (0, 0), BuildingBlock: MIFKUJ_clean_linker_0, # of connection points: 2
#     Edge 85, Type (0, 0), BuildingBlock: MIFKUJ_clean_linker_0, # of connection points: 2
#     Edge 86, Type (0, 0), BuildingBlock: MIFKUJ_clean_linker_0, # of connection points: 2
#     Edge 87, Type (0, 0), BuildingBlock: MIFKUJ_clean_linker_0, # of connection points: 2
#     Edge 88, Type (0, 0), BuildingBlock: MIFKUJ_clean_linker_0, # of connection points: 2
#     Edge 89, Type (0, 0), BuildingBlock: MIFKUJ_clean_linker_0, # of connection points: 2
#     Edge 90, Type (0, 0), BuildingBlock: MIFKUJ_clean_linker_0, # of connection points: 2
#     Edge 91, Type (0, 0), BuildingBlock: MIFKUJ_clean_linker_0, # of connection points: 2
#     Edge 92, Type (0, 0), BuildingBlock: MIFKUJ_clean_linker_0, # of connection points: 2
#     Edge 93, Type (0, 0), BuildingBlock: MIFKUJ_clean_linker_0, # of connection points: 2
#     Edge 94, Type (0, 0), BuildingBlock: MIFKUJ_clean_linker_0, # of connection points: 2
#     Edge 95, Type (0, 0), BuildingBlock: MIFKUJ_clean_linker_0, # of connection points: 2
#     Edge 96, Type (0, 0), BuildingBlock: MIFKUJ_clean_linker_0, # of connection points: 2
#     Edge 97, Type (0, 0), BuildingBlock: MIFKUJ_clean_linker_0, # of connection points: 2
#     Edge 98, Type (0, 0), BuildingBlock: MIFKUJ_clean_linker_0, # of connection points: 2
#     Edge 99, Type (0, 0), BuildingBlock: MIFKUJ_clean_linker_0, # of connection points: 2
#     Edge 100, Type (0, 0), BuildingBlock: MIFKUJ_clean_linker_0, # of connection points: 2
#     Edge 101, Type (0, 0), BuildingBlock: MIFKUJ_clean_linker_0, # of connection points: 2
#     Edge 102, Type (0, 0), BuildingBlock: MIFKUJ_clean_linker_0, # of connection points: 2
#     Edge 103, Type (0, 0), BuildingBlock: MIFKUJ_clean_linker_0, # of connection points: 2
#     Edge 104, Type (0, 0), BuildingBlock: MIFKUJ_clean_linker_0, # of connection points: 2
#     Edge 105, Type (0, 0), BuildingBlock: MIFKUJ_clean_linker_0, # of connection points: 2
#     Edge 106, Type (0, 0), BuildingBlock: MIFKUJ_clean_linker_0, # of connection points: 2
#     Edge 107, Type (0, 0), BuildingBlock: MIFKUJ_clean_linker_0, # of connection points: 2
#     Edge 108, Type (0, 0), BuildingBlock: MIFKUJ_clean_linker_0, # of connection points: 2
#     Edge 109, Type (0, 0), BuildingBlock: MIFKUJ_clean_linker_0, # of connection points: 2
#     Edge 110, Type (0, 0), BuildingBlock: MIFKUJ_clean_linker_0, # of connection points: 2
#     Edge 111, Type (0, 0), BuildingBlock: MIFKUJ_clean_linker_0, # of connection points: 2
#     Edge 112, Type (0, 0), BuildingBlock: MIFKUJ_clean_linker_0, # of connection points: 2
#     Edge 113, Type (0, 0), BuildingBlock: MIFKUJ_clean_linker_0, # of connection points: 2
#     Edge 114, Type (0, 0), BuildingBlock: MIFKUJ_clean_linker_0, # of connection points: 2
#     Edge 115, Type (0, 0), BuildingBlock: MIFKUJ_clean_linker_0, # of connection points: 2
#     Edge 116, Type (0, 0), BuildingBlock: MIFKUJ_clean_linker_0, # of connection points: 2
#     Edge 117, Type (0, 0), BuildingBlock: MIFKUJ_clean_linker_0, # of connection points: 2
#     Edge 118, Type (0, 0), BuildingBlock: MIFKUJ_clean_linker_0, # of connection points: 2
#     Edge 119, Type (0, 0), BuildingBlock: MIFKUJ_clean_linker_0, # of connection points: 2
#     Edge 120, Type (0, 0), BuildingBlock: MIFKUJ_clean_linker_0, # of connection points: 2
#     Edge 121, Type (0, 0), BuildingBlock: MIFKUJ_clean_linker_0, # of connection points: 2
#     Edge 122, Type (0, 0), BuildingBlock: MIFKUJ_clean_linker_0, # of connection points: 2
#     Edge 123, Type (0, 0), BuildingBlock: MIFKUJ_clean_linker_0, # of connection points: 2
#     Edge 124, Type (0, 0), BuildingBlock: MIFKUJ_clean_linker_0, # of connection points: 2
#     Edge 125, Type (0, 0), BuildingBlock: MIFKUJ_clean_linker_0, # of connection points: 2
#     Edge 126, Type (0, 0), BuildingBlock: MIFKUJ_clean_linker_0, # of connection points: 2
#     Edge 127, Type (0, 0), BuildingBlock: MIFKUJ_clean_linker_0, # of connection points: 2
# Relax obj value: 0.159
# Max RMSD: 0.181
# Mean RMSD: 0.180
data_MOF--net-vcc--node1-KUMBOL_clean_sbu_0--edge1-MIFKUJ_clean_linker_0
_symmetry_space_group_name_H-M    P1
_symmetry_Int_Tables_number       1
_symmetry_cell_setting            triclinic
loop_
_symmetry_equiv_pos_as_xyz
'x, y, z'
_cell_length_a     48.121508
_cell_length_b     75.512216
_cell_length_c     67.436607
_cell_angle_alpha  89.982729
_cell_angle_beta   90.037553
_cell_angle_gamma 89.996494
loop_
_atom_site_label
_atom_site_type_symbol
_atom_site_fract_x
_atom_site_fract_y
_atom_site_fract_z
_atom_type_partial_charge
Gd0 Gd 0.30905 0.99426 0.10586 0.0
Gd1 Gd 0.3659 0.0095 0.07759 0.0
C2 C 0.45422 0.00594 0.10084 0.0
C3 C 0.47062 0.03591 0.09556 0.0
C4 C 0.4217 0.02881 0.09051 0.0
C5 C 0.42716 0.01113 0.09507 0.0
C6 C 0.44353 0.04135 0.09092 0.0
C7 C 0.47592 0.0183 0.10062 0.0
C8 C 0.45885 0.98841 0.10658 0.0
C9 C 0.43673 0.97657 0.10686 0.0
N10 N 0.40626 0.99902 0.09385 0.0
C11 C 0.41053 0.9821 0.10046 0.0
H12 H 0.39402 0.97274 0.10151 0.0
C13 C 0.3903 0.05087 0.07945 0.0
N14 N 0.39553 0.03366 0.08502 0.0
C15 C 0.41103 0.06375 0.0804 0.0
C16 C 0.4378 0.05896 0.08605 0.0
H17 H 0.37015 0.05463 0.07368 0.0
H18 H 0.49693 0.01436 0.10439 0.0
H19 H 0.28599 0.03599 0.09254 0.0
H20 H 0.47927 0.98399 0.11121 0.0
H21 H 0.43984 0.9631 0.1119 0.0
H22 H 0.48765 0.04529 0.09533 0.0
H23 H 0.30323 0.94915 0.0965 0.0
H24 H 0.20231 0.02906 0.07396 0.0
H25 H 0.24112 0.04859 0.08366 0.0
H26 H 0.19269 0.96668 0.06625 0.0
H27 H 0.40655 0.07727 0.07611 0.0
H28 H 0.45404 0.06891 0.08623 0.0
H29 H 0.18476 0.9987 0.0672 0.0
H30 H 0.26797 0.92942 0.08452 0.0
N31 N 0.27341 0.0091 0.08875 0.0
C32 C 0.22221 0.02332 0.07787 0.0
C33 C 0.24403 0.03438 0.08339 0.0
C34 C 0.22646 0.00503 0.07702 0.0
C35 C 0.25272 0.99812 0.08243 0.0
C36 C 0.26966 0.02705 0.0886 0.0
N37 N 0.28225 0.97318 0.08806 0.0
C38 C 0.25738 0.97984 0.08175 0.0
C39 C 0.26506 0.94351 0.08295 0.0
C40 C 0.23988 0.95011 0.07622 0.0
C41 C 0.28582 0.95511 0.08909 0.0
C42 C 0.23559 0.96839 0.0758 0.0
H43 H 0.22351 0.94097 0.07212 0.0
O44 O 0.29077 0.97381 0.12368 0.0
O45 O 0.35505 0.00107 0.10903 0.0
O46 O 0.36366 0.97991 0.07204 0.0
O47 O 0.33573 0.97091 0.09816 0.0
O48 O 0.33647 0.99218 0.134 0.0
O49 O 0.27405 0.00065 0.12448 0.0
O50 O 0.37151 0.02632 0.05245 0.0
O51 O 0.31987 0.00233 0.07489 0.0
O52 O 0.31478 0.02247 0.11694 0.0
O53 O 0.35003 0.03262 0.09611 0.0
O54 O 0.33736 0.0107 0.04984 0.0
O55 O 0.39778 0.00214 0.05598 0.0
C56 C 0.36036 0.99784 0.12778 0.0
C57 C 0.20961 0.97535 0.07054 0.0
C58 C 0.20506 0.99358 0.07117 0.0
C59 C 0.27192 0.98436 0.13089 0.0
C60 C 0.26741 0.98214 0.15169 0.0
C61 C 0.2527 0.96727 0.15834 0.0
C62 C 0.28001 0.99374 0.16495 0.0
C63 C 0.2786 0.99012 0.18495 0.0
C64 C 0.25142 0.96364 0.17852 0.0
C65 C 0.26463 0.97495 0.19181 0.0
C66 C 0.35152 0.96742 0.08267 0.0
C67 C 0.3141 0.00464 0.05617 0.0
C68 C 0.39194 0.01654 0.04583 0.0
C69 C 0.40724 0.02231 0.02843 0.0
C70 C 0.41471 0.04015 1.02613 0.0
C71 C 0.41063 0.01046 1.01282 0.0
C72 C 0.41995 0.0165 0.99438 0.0
C73 C 0.42526 0.04609 1.00806 0.0
C74 C 0.42756 0.03439 0.99213 0.0
C75 C 0.33211 0.03497 0.11078 0.0
H76 H 0.24301 0.95826 0.14792 0.0
H77 H 0.29118 0.00535 0.15979 0.0
H78 H 0.24053 0.95203 0.18378 0.0
H79 H 0.26375 0.97209 0.20746 0.0
H80 H 0.41173 0.04952 0.03809 0.0
H81 H 0.40431 0.99677 1.01469 0.0
H82 H 0.43064 0.0599 1.00617 0.0
H83 H 0.43415 0.03952 0.97789 0.0
Gd84 Gd 0.95796 0.25669 0.10494 0.0
Gd85 Gd 0.90402 0.24121 0.07719 0.0
C86 C 0.81743 0.24302 0.10467 0.0
C87 C 0.80246 0.21251 0.10161 0.0
C88 C 0.84962 0.2209 0.09221 0.0
C89 C 0.84399 0.23837 0.09733 0.0
C90 C 0.82874 0.20784 0.09429 0.0
C91 C 0.79679 0.23005 0.10671 0.0
C92 C 0.81207 0.26066 0.10948 0.0
C93 C 0.83307 0.27315 0.10762 0.0
N94 N 0.86404 0.25087 0.09474 0.0
C95 C 0.85894 0.26802 0.10028 0.0
H96 H 0.87447 0.27798 0.09961 0.0
C97 C 0.87989 0.19991 0.07764 0.0
N98 N 0.87487 0.21676 0.08441 0.0
C99 C 0.8602 0.18651 0.08004 0.0
C100 C 0.83448 0.19049 0.08836 0.0
H101 H 0.89922 0.19682 0.07022 0.0
H102 H 0.77629 0.23349 0.11214 0.0
H103 H 0.98004 0.21451 0.08917 0.0
H104 H 0.79183 0.26474 0.11467 0.0
H105 H 0.82935 0.28679 0.11175 0.0
H106 H 0.78621 0.20267 0.10313 0.0
H107 H 0.96429 0.30103 0.0924 0.0
H108 H 0.06516 0.22042 0.07386 0.0
H109 H 0.02411 0.20143 0.07941 0.0
H110 H 0.07896 0.28286 0.07221 0.0
H111 H 0.86462 0.1732 0.075 0.0
H112 H 0.81897 0.18017 0.08973 0.0
H113 H 0.08596 0.25074 0.07428 0.0
H114 H 1.00072 0.32061 0.08143 0.0
N115 N 0.99495 0.24117 0.08951 0.0
C116 C 0.0455 0.22638 0.07797 0.0
C117 C 0.02244 0.21563 0.08119 0.0
C118 C 0.04268 0.24474 0.07935 0.0
C119 C 0.0165 0.25191 0.08424 0.0
C120 C 0.9973 0.22322 0.0871 0.0
N121 N 0.98697 0.27695 0.08783 0.0
C122 C 0.0125 0.2702 0.08355 0.0
C123 C 1.00422 0.30645 0.08156 0.0
C124 C 0.03041 0.29972 0.07738 0.0
C125 C 0.98291 0.29495 0.0871 0.0
C126 C 0.0349 0.28148 0.07847 0.0
H127 H 0.04714 0.30874 0.07367 0.0
O128 O 0.9696 0.27908 0.12289 0.0
O129 O 0.91275 0.24896 0.10875 0.0
O130 O 0.90733 0.2707 0.07024 0.0
O131 O 0.93068 0.27987 0.09811 0.0
O132 O 0.93185 0.25661 0.13394 0.0
O133 O 0.99367 0.25459 0.12392 0.0
O134 O 0.89508 0.22676 0.05055 0.0
O135 O 0.94733 0.25359 0.0718 0.0
O136 O 0.95418 0.2282 0.11607 0.0
O137 O 0.91969 0.21771 0.09506 0.0
O138 O 0.93936 0.23021 0.05773 0.0
O139 O 0.8728 0.2518 0.05678 0.0
C140 C 0.90783 0.25134 0.12767 0.0
C141 C 0.06135 0.27433 0.07526 0.0
C142 C 0.06528 0.25604 0.07607 0.0
C143 C 0.99052 0.27068 0.13073 0.0
C144 C 0.99347 0.27288 0.15179 0.0
C145 C 0.99931 0.28976 0.15942 0.0
C146 C 0.99084 0.25828 0.1643 0.0
C147 C 0.99511 0.2605 0.18433 0.0
C148 C 1.00315 0.29195 0.17971 0.0
C149 C 1.00142 0.27726 0.1921 0.0
C150 C 0.91684 0.28345 0.0818 0.0
C151 C 0.95733 0.24297 0.05832 0.0
C152 C 0.87597 0.238 0.04533 0.0
C153 C 0.85901 0.2345 0.02808 0.0
C154 C 0.84557 0.21819 1.02552 0.0
C155 C 0.85976 0.2468 1.0128 0.0
C156 C 0.84852 0.24258 0.99437 0.0
C157 C 0.83297 0.21426 1.00738 0.0
C158 C 0.83467 0.22634 0.99171 0.0
C159 C 0.93745 0.21541 0.10976 0.0
H160 H 1.00111 0.30112 0.14969 0.0
H161 H 0.98603 0.24521 0.15856 0.0
H162 H 1.00787 0.30487 0.18575 0.0
H163 H 1.00538 0.27876 0.2077 0.0
H164 H 0.84539 0.20844 0.03731 0.0
H165 H 0.87086 0.25919 1.01483 0.0
H166 H 0.82284 0.20161 1.00522 0.0
H167 H 0.82631 0.22268 0.97737 0.0
Gd168 Gd 0.3108 0.25483 0.1981 0.0
Gd169 Gd 0.36974 0.24025 0.22513 0.0
C170 C 0.45619 0.24619 0.20013 0.0
C171 C 0.47471 0.21655 0.20442 0.0
C172 C 0.42571 0.22232 0.21096 0.0
C173 C 0.4298 0.24022 0.20642 0.0
C174 C 0.44833 0.2104 0.20999 0.0
C175 C 0.47862 0.23435 0.19948 0.0
C176 C 0.45926 0.26389 0.19442 0.0
C177 C 0.43623 0.27507 0.19446 0.0
N178 N 0.40794 0.25164 0.20757 0.0
C179 C 0.4106 0.2687 0.20102 0.0
H180 H 0.39308 0.27751 0.20052 0.0
C181 C 0.39643 0.19946 0.22295 0.0
N182 N 0.40009 0.21671 0.21692 0.0
C183 C 0.41802 0.1872 0.22167 0.0
C184 C 0.44409 0.19268 0.21518 0.0
H185 H 0.37691 0.19523 0.22937 0.0
H186 H 0.49909 0.23881 0.19503 0.0
H187 H 0.28903 0.21685 0.22005 0.0
H188 H 0.47918 0.26893 0.1895 0.0
H189 H 0.43822 0.28865 0.18953 0.0
H190 H 0.49231 0.2076 0.20389 0.0
H191 H 0.30261 0.29981 0.19295 0.0
H192 H 0.20575 0.22623 0.23924 0.0
H193 H 0.24525 0.20582 0.23424 0.0
H194 H 0.19241 0.28811 0.22828 0.0
H195 H 0.41476 0.17363 0.2263 0.0
H196 H 0.46098 0.1832 0.21467 0.0
H197 H 0.1863 0.2568 0.23686 0.0
H198 H 0.26591 0.32161 0.19921 0.0
N199 N 0.27489 0.24347 0.21754 0.0
C200 C 0.22509 0.23125 0.23324 0.0
C201 C 0.24735 0.21968 0.23046 0.0
C202 C 0.22802 0.24916 0.22835 0.0
C203 C 0.25359 0.25509 0.22052 0.0
C204 C 0.27219 0.226 0.22242 0.0
N205 N 0.28182 0.27858 0.20788 0.0
C206 C 0.25725 0.27304 0.21585 0.0
C207 C 0.26336 0.30809 0.20427 0.0
C208 C 0.23861 0.30278 0.21309 0.0
C209 C 0.28444 0.29572 0.20123 0.0
C210 C 0.23506 0.28508 0.21864 0.0
H211 H 0.22202 0.31234 0.21498 0.0
O212 O 0.29325 0.27005 0.17421 0.0
O213 O 0.3569 0.24825 0.19381 0.0
O214 O 0.36826 0.26967 0.23069 0.0
O215 O 0.3304 0.27916 0.21194 0.0
O216 O 0.33756 0.25853 0.17006 0.0
O217 O 0.27535 0.24436 0.18228 0.0
O218 O 0.38158 0.22416 0.25026 0.0
O219 O 0.32369 0.24754 0.22938 0.0
O220 O 0.31486 0.22558 0.19 0.0
O221 O 0.35389 0.2166 0.20767 0.0
O222 O 0.34254 0.23756 0.25312 0.0
O223 O 0.40357 0.24909 0.24383 0.0
C224 C 0.36141 0.25208 0.17511 0.0
C225 C 0.20964 0.27905 0.22624 0.0
C226 C 0.20613 0.26119 0.23106 0.0
C227 C 0.27265 0.25895 0.172 0.0
C228 C 0.26151 0.25735 0.15239 0.0
C229 C 0.2352 0.26447 0.14834 0.0
C230 C 0.2777 0.25002 0.13748 0.0
C231 C 0.26762 0.25001 0.11827 0.0
C232 C 0.22494 0.26419 0.12904 0.0
C233 C 0.24115 0.25699 0.11395 0.0
C234 C 0.3514 0.28217 0.22413 0.0
C235 C 0.31914 0.24455 0.24823 0.0
C236 C 0.40282 0.23439 0.25418 0.0
C237 C 0.4137 0.23449 0.27418 0.0
C238 C 0.43669 0.22375 0.27852 0.0
C239 C 0.40174 0.245 0.28884 0.0
C240 C 0.41321 0.24499 0.30785 0.0
C241 C 0.44798 0.22368 0.29756 0.0
C242 C 0.43635 0.23436 0.31224 0.0
C243 C 0.33348 0.21345 0.19502 0.0
H244 H 0.22295 0.2705 0.16001 0.0
H245 H 0.29847 0.24517 0.14063 0.0
H246 H 0.20485 0.26992 0.12572 0.0
H247 H 0.23361 0.25749 0.0988 0.0
H248 H 0.44589 0.21546 0.26716 0.0
H249 H 0.38375 0.25314 0.2855 0.0
H250 H 0.46569 0.21537 0.30093 0.0
H251 H 0.44511 0.23417 0.32704 0.0
Gd252 Gd 0.95647 0.99482 0.19601 0.0
Gd253 Gd 0.9006 0.0111 0.22512 0.0
C254 C 0.81469 0.00467 0.19868 0.0
C255 C 0.79692 0.03469 0.20031 0.0
C256 C 0.84551 0.02874 0.20825 0.0
C257 C 0.84112 0.01072 0.20481 0.0
C258 C 0.82321 0.04082 0.20609 0.0
C259 C 0.79267 0.0167 0.19666 0.0
C260 C 0.81092 0.9866 0.19512 0.0
C261 C 0.83334 0.9751 0.1968 0.0
N262 N 0.86225 0.99905 0.20797 0.0
C263 C 0.859 0.98158 0.20308 0.0
H264 H 0.87605 0.97248 0.20343 0.0
C265 C 0.87428 0.05165 0.22053 0.0
N266 N 0.87078 0.03431 0.2149 0.0
C267 C 0.85312 0.06407 0.21804 0.0
C268 C 0.82748 0.05865 0.21075 0.0
H269 H 0.89289 0.05578 0.22817 0.0
H270 H 0.77214 0.01219 0.19246 0.0
H271 H 0.97723 0.03515 0.21559 0.0
H272 H 0.79089 0.98137 0.1909 0.0
H273 H 0.83088 0.9612 0.19333 0.0
H274 H 0.77956 0.04375 0.19892 0.0
H275 H 0.96883 0.95023 0.19793 0.0
H276 H 0.06333 0.03095 0.22885 0.0
H277 H 0.02074 0.04894 0.22572 0.0
H278 H 0.08162 0.96904 0.22403 0.0
H279 H 0.85627 0.07767 0.22257 0.0
H280 H 0.81079 0.06822 0.20944 0.0
H281 H 0.08571 0.00119 0.22825 0.0
H282 H 1.00744 0.93044 0.20559 0.0
N283 N 0.9947 0.00958 0.21071 0.0
C284 C 0.04422 0.02479 0.22385 0.0
C285 C 0.02026 0.03499 0.22205 0.0
C286 C 0.04294 0.00662 0.22016 0.0
C287 C 0.01752 0.99921 0.2137 0.0
C288 C 0.99551 0.0271 0.21577 0.0
N289 N 0.98993 0.97389 0.20686 0.0
C290 C 0.01505 0.98091 0.21175 0.0
C291 C 1.0098 0.94457 0.20774 0.0
C292 C 0.03521 0.95152 0.21367 0.0
C293 C 0.98759 0.95595 0.20396 0.0
C294 C 0.03821 0.96985 0.21556 0.0
H295 H 0.0525 0.94266 0.21645 0.0
O296 O 0.96144 0.97418 0.17448 0.0
O297 O 0.91067 0.00237 0.19405 0.0
O298 O 0.90147 0.98195 0.23242 0.0
O299 O 0.9374 0.97154 0.21241 0.0
O300 O 0.92739 0.99376 0.16864 0.0
O301 O 0.98876 0.99739 0.17398 0.0
O302 O 0.89205 0.02888 0.24953 0.0
O303 O 0.94643 0.00262 0.22781 0.0
O304 O 0.95222 0.02364 0.18601 0.0
O305 O 0.91959 0.03454 0.2085 0.0
O306 O 0.92903 0.01243 0.25235 0.0
O307 O 0.86664 0.00493 0.24496 0.0
C308 C 0.90428 -0.00032 0.17544 0.0
C309 C 0.06368 0.97734 0.22116 0.0
C310 C 0.06604 0.99566 0.22347 0.0
C311 C 0.98132 0.98258 0.16524 0.0
C312 C 0.97841 0.98283 0.14375 0.0
C313 C 0.97125 0.96714 0.13376 0.0
C314 C 0.98264 0.99849 0.1331 0.0
C315 C 0.9795 0.99847 0.11265 0.0
C316 C 0.96809 0.96718 0.11325 0.0
C317 C 0.9721 0.98282 0.10268 0.0
C318 C 0.91755 0.96909 0.22571 0.0
C319 C 0.95205 0.00545 0.2466 0.0
C320 C 0.86997 0.01987 0.25457 0.0
C321 C 0.85924 0.0216 0.27457 0.0
C322 C 0.84374 0.03677 0.27913 0.0
C323 C 0.86364 0.00852 0.28889 0.0
C324 C 0.85199 0.01053 0.30778 0.0
C325 C 0.83234 0.03885 0.29794 0.0
C326 C 0.83635 0.02578 0.31223 0.0
C327 C 0.93655 0.03668 0.19316 0.0
H328 H 0.9682 0.95488 0.14183 0.0
H329 H 0.9891 0.01056 0.14049 0.0
H330 H 0.9629 0.95505 0.10553 0.0
H331 H 0.97075 0.98255 0.08666 0.0
H332 H 0.84037 0.04698 0.26807 0.0
H333 H 0.87586 0.99687 0.28535 0.0
H334 H 0.82047 0.05061 0.30147 0.0
H335 H 0.82772 0.02774 0.3269 0.0
Gd336 Gd 0.65295 0.98916 0.97519 0.0
Gd337 Gd 0.71039 0.00394 0.94648 0.0
C338 C 0.78854 0.9969 0.9831 0.0
C339 C 0.80641 0.02692 0.98456 0.0
C340 C 0.76147 0.02113 0.96908 0.0
C341 C 0.76456 0.00303 0.97311 0.0
C342 C 0.78288 0.03308 0.97442 0.0
C343 C 0.80919 0.00893 0.98893 0.0
C344 C 0.79143 0.97875 0.98668 0.0
C345 C 0.77089 0.96709 0.98025 0.0
N346 N 0.74482 0.99135 0.96672 0.0
C347 C 0.74772 0.97359 0.97014 0.0
H348 H 0.73229 0.96431 0.96528 0.0
C349 C 0.73868 0.04375 0.9511 0.0
N350 N 0.73897 0.02686 0.95857 0.0
C351 C 0.7589 0.05606 0.95647 0.0
C352 C 0.78091 0.05078 0.96845 0.0
H353 H 0.72347 0.04756 0.9401 0.0
H354 H 0.82774 0.00438 0.9965 0.0
H355 H 0.62138 0.02828 0.96017 0.0
H356 H 0.80953 0.9736 0.99431 0.0
H357 H 0.773 0.95302 0.98296 0.0
H358 H 0.82298 0.03592 0.98866 0.0
H359 H 0.64541 0.94502 0.98126 0.0
H360 H 0.53798 0.01641 0.94565 0.0
H361 H 0.5752 0.0381 0.95182 0.0
H362 H 0.53262 0.95364 0.94961 0.0
H363 H 0.75806 0.06943 0.9507 0.0
H364 H 0.79704 0.06024 0.97214 0.0
H365 H 0.52271 0.98509 0.94426 0.0
H366 H 0.61032 0.92208 0.97538 0.0
N367 N 0.61181 0.00063 0.96062 0.0
C368 C 0.55856 0.01182 0.94969 0.0
C369 C 0.5794 0.0241 0.95333 0.0
C370 C 0.56443 0.99378 0.95139 0.0
C371 C 0.59157 0.98841 0.95695 0.0
C372 C 0.60598 0.01829 0.95847 0.0
N373 N 0.62269 0.96558 0.96679 0.0
C374 C 0.59723 0.9705 0.95991 0.0
C375 C 0.60653 0.93553 0.97052 0.0
C376 C 0.58103 0.94014 0.96235 0.0
C377 C 0.62672 0.94854 0.9733 0.0
C378 C 0.57578 0.95782 0.95748 0.0
H379 H 0.56506 0.93012 0.96076 0.0
O380 O 0.64714 0.97292 1.00075 0.0
O381 O 0.69846 0.99721 0.97803 0.0
O382 O 0.70467 0.97521 0.93705 0.0
O383 O 0.67003 0.96514 0.9583 0.0
O384 O 0.6821 0.98589 1.0022 0.0
O385 O 0.62152 0.99724 0.99697 0.0
O386 O 0.72774 0.01911 0.9223 0.0
O387 O 0.664 0.99763 0.94367 0.0
O388 O 0.65704 0.01877 0.98085 0.0
O389 O 0.68879 0.02882 0.95729 0.0
O390 O 0.6828 0.00544 0.91835 0.0
O391 O 0.74772 0.99475 0.93231 0.0
C392 C 0.70445 0.99371 0.99659 0.0
C393 C 0.54922 0.9632 0.95141 0.0
C394 C 0.54356 0.98112 0.94841 0.0
C395 C 0.62709 0.98296 1.00735 0.0
C396 C 0.61172 0.97736 1.0248 0.0
C397 C 0.60459 0.95951 0.02741 0.0
C398 C 0.60826 0.98938 0.04026 0.0
C399 C 0.59995 0.98346 0.05904 0.0
C400 C 0.59471 0.95367 0.04569 0.0
C401 C 0.59286 0.96547 0.06157 0.0
C402 C 0.6882 0.9625 0.94379 0.0
C403 C 0.65877 0.0003 0.92477 0.0
C404 C 0.74932 0.00867 0.92091 0.0
C405 C 0.75959 0.00533 0.90134 0.0
C406 C 0.78608 0.0114 0.89604 0.0
C407 C 0.74299 0.99626 0.88792 0.0
C408 C 0.7527 0.99347 0.86887 0.0
C409 C 0.79604 0.00833 0.87696 0.0
C410 C 0.77935 -0.0006 0.86332 0.0
C411 C 0.67058 0.03171 0.97167 0.0
H412 H 0.60746 0.95003 1.01553 0.0
H413 H 0.61386 0.00312 0.03791 0.0
H414 H 0.58963 0.93984 0.04781 0.0
H415 H 0.58703 0.96028 0.07593 0.0
H416 H 0.79883 0.01859 0.90656 0.0
H417 H 0.72214 0.99215 0.89197 0.0
H418 H 0.81626 0.01325 0.87261 0.0
H419 H 0.78655 0.99796 0.84818 0.0
Gd420 Gd 0.11772 0.75775 0.9752 0.0
Gd421 Gd 0.06134 0.74255 0.94736 0.0
C422 C 0.97706 0.7517 0.9755 0.0
C423 C 0.95809 0.72195 0.97654 0.0
C424 C 1.00597 0.72671 0.96589 0.0
C425 C 1.00268 0.74498 0.96858 0.0
C426 C 0.98346 0.71513 0.9698 0.0
C427 C 0.95489 0.74014 0.97936 0.0
C428 C 0.97426 0.76993 0.97822 0.0
C429 C 0.99691 0.78101 0.97499 0.0
N430 N 0.02418 0.75616 0.9643 0.0
C431 C 0.02182 0.77391 0.96801 0.0
H432 H 0.03898 0.78278 0.96595 0.0
C433 C 0.03297 0.70261 0.95442 0.0
N434 N 0.03063 0.72031 0.95898 0.0
C435 C 0.01149 0.69076 0.95843 0.0
C436 C 0.98667 0.69701 0.96626 0.0
H437 H 0.05105 0.69748 0.94685 0.0
H438 H 0.93507 0.74516 0.9845 0.0
H439 H 0.14414 0.72056 0.95317 0.0
H440 H 0.9547 0.7756 0.98282 0.0
H441 H 0.99508 0.7951 0.97761 0.0
H442 H 0.94066 0.71324 0.97945 0.0
H443 H 0.1255 0.80127 0.98409 0.0
H444 H 0.2282 0.73158 0.93821 0.0
H445 H 0.18974 0.71028 0.94228 0.0
H446 H 0.23751 0.79352 0.95021 0.0
H447 H 0.01383 0.67686 0.95488 0.0
H448 H 0.96982 0.68781 0.96898 0.0
H449 H 0.2455 0.76258 0.94074 0.0
H450 H 0.16175 0.82407 0.98042 0.0
N451 N 0.15634 0.74741 0.95701 0.0
C452 C 0.20812 0.73621 0.94331 0.0
C453 C 0.18657 0.72413 0.94576 0.0
C454 C 0.20356 0.75409 0.94753 0.0
C455 C 0.17708 0.75945 0.9544 0.0
C456 C 0.16065 0.73001 0.95236 0.0
N457 N 0.1476 0.78165 0.96779 0.0
C458 C 0.17251 0.77702 0.95974 0.0
C459 C 0.16493 0.81099 0.97426 0.0
C460 C 0.19008 0.80668 0.9653 0.0
C461 C 0.14425 0.79812 0.97597 0.0
C462 C 0.19443 0.78946 0.95837 0.0
H463 H 0.20642 0.81654 0.96454 0.0
O464 O 0.12925 0.77156 1.00209 0.0
O465 O 0.07353 0.74629 0.98023 0.0
O466 O 0.06512 0.77163 0.93855 0.0
O467 O 0.10259 0.78151 0.95738 0.0
O468 O 0.08421 0.76781 0.99681 0.0
O469 O 0.15129 0.74733 0.99346 0.0
O470 O 0.05015 0.72402 0.92431 0.0
O471 O 0.10693 0.74976 0.9439 0.0
O472 O 0.11554 0.72853 0.9823 0.0
O473 O 0.08275 0.71826 0.95983 0.0
O474 O 0.08815 0.7418 0.91878 0.0
O475 O 0.02532 0.7479 0.92936 0.0
C476 C 0.06457 0.75624 0.99472 0.0
C477 C 0.22048 0.78417 0.95116 0.0
C478 C 0.22505 0.76654 0.9458 0.0
C479 C 0.15059 0.76126 1.00491 0.0
C480 C 0.16395 0.76099 1.02414 0.0
C481 C 0.18818 0.77102 0.02699 0.0
C482 C 0.15182 0.752 0.03995 0.0
C483 C 0.16382 0.7532 0.05872 0.0
C484 C 0.20019 0.77213 0.04578 0.0
C485 C 0.18797 0.76329 0.0617 0.0
C486 C 0.08279 0.7842 0.94404 0.0
C487 C 0.11191 0.74735 0.92503 0.0
C488 C 0.02756 0.7328 0.91997 0.0
C489 C 0.01894 0.73268 0.89955 0.0
C490 C 0.99978 0.71986 0.89326 0.0
C491 C 0.0294 0.74522 0.88641 0.0
C492 C 0.02054 0.74493 0.86686 0.0
C493 C 0.99098 0.71959 0.87359 0.0
C494 C 1.00133 0.73212 0.86035 0.0
C495 C 0.1013 0.7156 0.97395 0.0
H496 H 0.19749 0.77821 1.01475 0.0
H497 H 0.13286 0.74448 0.03775 0.0
H498 H 0.21874 0.77999 0.04806 0.0
H499 H 0.19719 0.76435 0.07632 0.0
H500 H 0.99173 0.71009 0.90355 0.0
H501 H 0.04451 0.75496 0.89128 0.0
H502 H 0.97637 0.70965 0.86859 0.0
H503 H 0.99483 0.73166 0.84496 0.0
Gd504 Gd 0.65347 0.75836 0.82752 0.0
Gd505 Gd 0.70954 0.74183 0.85589 0.0
C506 C 0.79683 0.75374 0.83428 0.0
C507 C 0.81685 0.72431 0.83204 0.0
C508 C 0.76769 0.72793 0.83982 0.0
C509 C 0.77082 0.7463 0.83933 0.0
C510 C 0.79084 0.71682 0.83618 0.0
C511 C 0.81984 0.74268 0.83107 0.0
C512 C 0.79875 0.77205 0.83173 0.0
C513 C 0.77489 0.78241 0.83324 0.0
N514 N 0.7481 0.75679 0.8422 0.0
C515 C 0.74958 0.77451 0.83824 0.0
H516 H 0.73148 0.78274 0.8385 0.0
C517 C 0.73951 0.7029 0.84594 0.0
N518 N 0.74222 0.72093 0.84382 0.0
C519 C 0.76164 0.6915 0.84211 0.0
C520 C 0.78741 0.69847 0.8371 0.0
H521 H 0.72068 0.69707 0.8517 0.0
H522 H 0.83996 0.74822 0.82739 0.0
H523 H 0.62853 0.72081 0.85092 0.0
H524 H 0.81831 0.77822 0.82779 0.0
H525 H 0.77594 0.79651 0.83046 0.0
H526 H 0.83479 0.71596 0.82938 0.0
H527 H 0.6469 0.80329 0.82454 0.0
H528 H 0.54333 0.73021 0.86387 0.0
H529 H 0.58363 0.71001 0.86244 0.0
H530 H 0.53182 0.79203 0.85155 0.0
H531 H 0.759 0.67733 0.84371 0.0
H532 H 0.8047 0.68958 0.83447 0.0
H533 H 0.5243 0.76073 0.85977 0.0
H534 H 0.60987 0.82519 0.82824 0.0
N535 N 0.6142 0.74692 0.84423 0.0
C536 C 0.56312 0.73507 0.85848 0.0
C537 C 0.58575 0.72362 0.85763 0.0
C538 C 0.56652 0.75281 0.85306 0.0
C539 C 0.59277 0.75853 0.84615 0.0
C540 C 0.61125 0.7298 0.85062 0.0
N541 N 0.62294 0.78172 0.836 0.0
C542 C 0.59728 0.77637 0.84204 0.0
C543 C 0.60616 0.81161 0.8326 0.0
C544 C 0.58004 0.8064 0.83928 0.0
C545 C 0.62732 0.7991 0.83087 0.0
C546 C 0.57525 0.78863 0.84399 0.0
H547 H 0.56358 0.81614 0.84042 0.0
O548 O 0.64573 0.77551 0.80256 0.0
O549 O 0.69947 0.75007 0.82443 0.0
O550 O 0.70455 0.77061 0.86651 0.0
O551 O 0.67193 0.78179 0.8441 0.0
O552 O 0.68228 0.76106 0.80066 0.0
O553 O 0.62338 0.74986 0.80543 0.0
O554 O 0.71517 0.72059 0.87681 0.0
O555 O 0.66367 0.74939 0.85888 0.0
O556 O 0.65266 0.72923 0.82096 0.0
O557 O 0.68986 0.71878 0.83944 0.0
O558 O 0.68207 0.74053 0.88366 0.0
O559 O 0.74322 0.74354 0.87674 0.0
C560 C 0.7051 0.75352 0.80575 0.0
C561 C 0.54896 0.78281 0.85017 0.0
C562 C 0.54463 0.76497 0.85474 0.0
C563 C 0.62759 0.76442 0.79526 0.0
C564 C 0.61276 0.76837 0.77699 0.0
C565 C 0.60521 0.78586 0.77265 0.0
C566 C 0.61022 0.75517 0.76257 0.0
C567 C 0.60157 0.75954 0.74332 0.0
C568 C 0.59563 0.79022 0.7538 0.0
C569 C 0.59422 0.77725 0.73912 0.0
C570 C 0.68875 0.78369 0.85948 0.0
C571 C 0.65835 0.74634 0.8777 0.0
C572 C 0.73714 0.72808 0.88452 0.0
C573 C 0.74 0.7264 0.90573 0.0
C574 C 0.74456 0.70956 0.91394 0.0
C575 C 0.73955 0.74142 0.9177 0.0
C576 C 0.74433 0.73961 0.9378 0.0
C577 C 0.74877 0.70778 0.93427 0.0
C578 C 0.74879 0.7228 0.94624 0.0
C579 C 0.66908 0.71636 0.82694 0.0
H580 H 0.60749 0.79622 0.78366 0.0
H581 H 0.6164 0.74173 0.76611 0.0
H582 H 0.59026 0.80379 0.75033 0.0
H583 H 0.5883 0.78132 0.72431 0.0
H584 H 0.7451 0.69789 0.9046 0.0
H585 H 0.73613 0.75448 0.91145 0.0
H586 H 0.75239 0.69484 0.94069 0.0
H587 H 0.75256 0.72141 0.96201 0.0
Gd588 Gd 0.11502 0.9896 0.82822 0.0
Gd589 Gd 0.06051 0.00371 0.85706 0.0
C590 C 0.97853 0.994 0.82471 0.0
C591 C 0.96323 0.02389 0.81755 0.0
C592 C 1.00872 0.01882 0.83262 0.0
C593 C 1.00352 0.00063 0.83295 0.0
C594 C 0.98838 0.03054 0.82491 0.0
C595 C 0.9584 0.00569 0.81733 0.0
C596 C 0.97442 0.97572 0.82389 0.0
C597 C 0.99495 0.96443 0.83097 0.0
N598 N 0.02295 0.9894 0.84071 0.0
C599 C 0.01901 0.97147 0.83943 0.0
H600 H 0.03415 0.9622 0.84448 0.0
C601 C 0.03751 0.04314 0.84074 0.0
N602 N 0.03314 0.02514 0.84004 0.0
C603 C 0.01819 0.05504 0.83303 0.0
C604 C 0.99352 0.04874 0.82506 0.0
H605 H 0.05466 0.04884 0.84869 0.0
H606 H 0.93901 0.00076 0.8113 0.0
H607 H 0.1458 0.02507 0.85102 0.0
H608 H 0.95566 0.97019 0.81752 0.0
H609 H 0.99221 0.95023 0.83002 0.0
H610 H 0.94739 0.03274 0.81186 0.0
H611 H 0.11971 0.94635 0.81636 0.0
H612 H 0.22921 0.01106 0.86425 0.0
H613 H 0.19158 0.03326 0.86321 0.0
H614 H 0.23424 0.9497 0.84753 0.0
H615 H 0.02194 0.06915 0.83395 0.0
H616 H 0.9783 0.05807 0.81947 0.0
H617 H 0.24475 0.97996 0.85855 0.0
H618 H 0.15434 0.92224 0.81853 0.0
N619 N 0.15629 0.99829 0.84452 0.0
C620 C 0.20888 0.00732 0.85874 0.0
C621 C 0.18773 0.01987 0.85817 0.0
C622 C 0.20348 0.99003 0.85242 0.0
C623 C 0.17664 0.98582 0.84525 0.0
C624 C 0.16153 0.01512 0.85103 0.0
N625 N 0.14508 0.9651 0.83149 0.0
C626 C 0.17072 0.96871 0.83896 0.0
C627 C 0.15915 0.93521 0.82444 0.0
C628 C 0.18519 0.93853 0.83273 0.0
C629 C 0.13955 0.94883 0.8234 0.0
C630 C 0.19148 0.95549 0.83973 0.0
H631 H 0.20052 0.92802 0.83322 0.0
O632 O 0.12128 0.97919 0.79893 0.0
O633 O 0.0711 0.00096 0.82402 0.0
O634 O 0.0661 0.9746 0.86557 0.0
O635 O 0.10304 0.96534 0.84592 0.0
O636 O 0.07931 0.97753 0.80982 0.0
O637 O 0.14425 0.00284 0.80869 0.0
O638 O 0.04291 0.02437 0.87493 0.0
O639 O 0.10657 0.99695 0.86023 0.0
O640 O 0.10939 0.01902 0.82294 0.0
O641 O 0.08806 0.02719 0.85193 0.0
O642 O 0.08748 0.00507 0.88517 0.0
O643 O 0.02906 0.99724 0.87883 0.0
C644 C 0.0612 0.99022 0.81068 0.0
C645 C 0.21806 0.95967 0.84693 0.0
C646 C 0.22408 0.97691 0.85316 0.0
C647 C 0.13887 0.99166 0.79447 0.0
C648 C 0.15957 0.98786 0.77964 0.0
C649 C 0.18086 0.97536 0.78196 0.0
C650 C 0.15444 0.99547 0.76135 0.0
C651 C 0.16933 0.99019 0.74481 0.0
C652 C 0.19673 0.97045 0.76542 0.0
C653 C 0.19067 0.97761 0.74672 0.0
C654 C 0.08386 0.96232 0.85943 0.0
C655 C 0.11156 -0.00019 0.87914 0.0
C656 C 0.02877 0.01341 0.88581 0.0
C657 C 0.03294 0.01538 0.90714 0.0
C658 C 0.04551 0.03073 0.91498 0.0
C659 C 0.02562 0.00147 0.91975 0.0
C660 C 0.03176 0.00259 0.9398 0.0
C661 C 0.05151 0.03181 0.93515 0.0
C662 C 0.04483 0.01772 0.94756 0.0
C663 C 0.10082 0.03129 0.83533 0.0
H664 H 0.18465 0.96917 0.79618 0.0
H665 H 0.13725 0.00471 0.75967 0.0
H666 H 0.21312 0.96073 0.76698 0.0
H667 H 0.20233 0.97331 0.73386 0.0
H668 H 0.05104 0.0418 0.90555 0.0
H669 H 0.01515 0.9898 0.91407 0.0
H670 H 0.06117 0.0436 0.94115 0.0
H671 H 0.04896 0.01883 0.96331 0.0
Gd672 Gd 0.31044 0.49505 0.60594 0.0
Gd673 Gd 0.3659 0.51028 0.57702 0.0
C674 C 0.455 0.50819 0.59948 0.0
C675 C 0.46928 0.53888 0.5971 0.0
C676 C 0.42137 0.53058 0.58965 0.0
C677 C 0.42772 0.51296 0.59362 0.0
C678 C 0.4423 0.54366 0.59127 0.0
C679 C 0.47565 0.5212 0.60107 0.0
C680 C 0.46061 0.49052 0.60417 0.0
C681 C 0.43918 0.47818 0.60365 0.0
N682 N 0.40719 0.50059 0.59257 0.0
C683 C 0.41256 0.48349 0.59795 0.0
H684 H 0.39668 0.47377 0.59807 0.0
C685 C 0.38993 0.55173 0.57691 0.0
N686 N 0.39526 0.53486 0.58348 0.0
C687 C 0.40964 0.56517 0.57891 0.0
C688 C 0.43587 0.56116 0.58634 0.0
H689 H 0.37065 0.55472 0.5694 0.0
H690 H 0.49659 0.51773 0.60555 0.0
H691 H 0.28277 0.53549 0.59357 0.0
H692 H 0.48123 0.48637 0.60868 0.0
H693 H 0.44312 0.46452 0.60765 0.0
H694 H 0.48551 0.54877 0.59835 0.0
H695 H 0.30789 0.44928 0.59855 0.0
H696 H 0.19928 0.52504 0.57664 0.0
H697 H 0.23638 0.54618 0.58548 0.0
H698 H 0.19529 0.46228 0.57084 0.0
H699 H 0.40487 0.57849 0.57407 0.0
H700 H 0.45135 0.57154 0.58746 0.0
H701 H 0.18439 0.49396 0.57091 0.0
H702 H 0.27502 0.42811 0.58596 0.0
N703 N 0.27318 0.50818 0.5891 0.0
C704 C 0.21997 0.52017 0.57989 0.0
C705 C 0.24084 0.53214 0.58489 0.0
C706 C 0.22607 0.50209 0.57893 0.0
C707 C 0.25332 0.4963 0.58347 0.0
C708 C 0.26744 0.52593 0.5894 0.0
N709 N 0.28516 0.47248 0.58926 0.0
C710 C 0.25965 0.47817 0.58305 0.0
C711 C 0.27065 0.44212 0.58458 0.0
C712 C 0.24477 0.44777 0.57812 0.0
C713 C 0.29016 0.45455 0.59082 0.0
C714 C 0.23869 0.46584 0.57787 0.0
H715 H 0.22918 0.43801 0.5742 0.0
O716 O 0.292 0.47517 0.62476 0.0
O717 O 0.35671 0.50211 0.60937 0.0
O718 O 0.36113 0.48078 0.57125 0.0
O719 O 0.3386 0.47208 0.59973 0.0
O720 O 0.33636 0.49412 0.63423 0.0
O721 O 0.27602 0.50222 0.62469 0.0
O722 O 0.37566 0.52529 0.55076 0.0
O723 O 0.31981 0.50309 0.57436 0.0
O724 O 0.31656 0.52365 0.61613 0.0
O725 O 0.34762 0.53444 0.59262 0.0
O726 O 0.33727 0.5127 0.54964 0.0
O727 O 0.39629 0.49936 0.55661 0.0
C728 C 0.36069 0.49939 0.62855 0.0
C729 C 0.21171 0.47171 0.57375 0.0
C730 C 0.20545 0.48973 0.57409 0.0
C731 C 0.27337 0.48611 0.63155 0.0
C732 C 0.26713 0.4844 0.6523 0.0
C733 C 0.25064 0.47016 0.65861 0.0
C734 C 0.2778 0.49656 0.66585 0.0
C735 C 0.27219 0.49429 0.68579 0.0
C736 C 0.24527 0.46785 0.67872 0.0
C737 C 0.2563 0.47979 0.69233 0.0
C738 C 0.3513 0.46835 0.58301 0.0
C739 C 0.31423 0.50595 0.55559 0.0
C740 C 0.39396 0.51346 0.54535 0.0
C741 C 0.41027 0.51587 0.52756 0.0
C742 C 0.42517 0.53156 0.52438 0.0
C743 C 0.40824 0.50317 0.51268 0.0
C744 C 0.42049 0.50622 0.49427 0.0
C745 C 0.43827 0.5344 0.5062 0.0
C746 C 0.43586 0.52182 0.49111 0.0
C747 C 0.33136 0.53673 0.60827 0.0
H748 H 0.24228 0.46076 0.64802 0.0
H749 H 0.29061 0.50756 0.66099 0.0
H750 H 0.23288 0.45677 0.68375 0.0
H751 H 0.25274 0.47768 0.70796 0.0
H752 H 0.42632 0.54162 0.53581 0.0
H753 H 0.39593 0.49132 0.5151 0.0
H754 H 0.44962 0.54656 0.50361 0.0
H755 H 0.44505 0.52457 0.47677 0.0
Gd756 Gd 0.96192 0.75628 0.60604 0.0
Gd757 Gd 0.90401 0.74178 0.57814 0.0
C758 C 0.81626 0.74628 0.60079 0.0
C759 C 0.79926 0.71627 0.59667 0.0
C760 C 0.84834 0.72281 0.59129 0.0
C761 C 0.84326 0.74067 0.59541 0.0
C762 C 0.82618 0.71051 0.59196 0.0
C763 C 0.79431 0.73408 0.60103 0.0
C764 C 0.81214 0.76396 0.60621 0.0
C765 C 0.83474 0.77546 0.60693 0.0
N766 N 0.86482 0.75239 0.59512 0.0
C767 C 0.86104 0.76942 0.60141 0.0
H768 H 0.87802 0.77851 0.60246 0.0
C769 C 0.87906 0.70028 0.58037 0.0
N770 N 0.87445 0.71758 0.58596 0.0
C771 C 0.85798 0.68765 0.58158 0.0
C772 C 0.83143 0.69278 0.58736 0.0
H773 H 0.89881 0.6963 0.57412 0.0
H774 H 0.77344 0.73825 0.60484 0.0
H775 H 0.9849 0.71583 0.58992 0.0
H776 H 0.79173 0.76873 0.6104 0.0
H777 H 0.8319 0.78904 0.61165 0.0
H778 H 0.78205 0.70702 0.59698 0.0
H779 H 0.97097 0.80146 0.60403 0.0
H780 H 0.06436 0.72372 0.56403 0.0
H781 H 0.02737 0.70369 0.5758 0.0
H782 H 0.07453 0.78641 0.56186 0.0
H783 H 0.862 0.67407 0.5773 0.0
H784 H 0.81494 0.68301 0.58773 0.0
H785 H 0.0814 0.75441 0.55863 0.0
H786 H 1.0044 0.82244 0.59092 0.0
N787 N 0.99705 0.74279 0.58703 0.0
C788 C 0.04554 0.72923 0.57032 0.0
C789 C 0.02478 0.71788 0.57701 0.0
C790 C 0.04168 0.74753 0.57161 0.0
C791 C 0.01683 0.75411 0.58004 0.0
C792 C 1.00054 0.7249 0.58521 0.0
N793 N 0.98916 0.77858 0.59049 0.0
C794 C 0.01264 0.77237 0.58157 0.0
C795 C 1.00665 0.80847 0.58767 0.0
C796 C 0.03008 0.80235 0.57783 0.0
C797 C 0.98684 0.7964 0.59438 0.0
C798 C 0.03364 0.78416 0.57503 0.0
H799 H 0.04584 0.81172 0.57318 0.0
O800 O 0.97937 0.77485 0.62688 0.0
O801 O 0.9155 0.74965 0.60998 0.0
O802 O 0.908 0.77125 0.5722 0.0
O803 O 0.93679 0.7804 0.59778 0.0
O804 O 0.93612 0.75743 0.63458 0.0
O805 O 0.99745 0.74853 0.62358 0.0
O806 O 0.89013 0.72629 0.55312 0.0
O807 O 0.94975 0.74895 0.57473 0.0
O808 O 0.95635 0.72752 0.61563 0.0
O809 O 0.92092 0.71792 0.5947 0.0
O810 O 0.93242 0.73835 0.55048 0.0
O811 O 0.87118 0.75226 0.55954 0.0
C812 C 0.91169 0.75223 0.62912 0.0
C813 C 0.0582 0.77753 0.5667 0.0
C814 C 0.06218 0.7593 0.56496 0.0
C815 C 0.99897 0.76398 0.63227 0.0
C816 C 1.00557 0.76403 0.65315 0.0
C817 C 0.02425 0.77678 0.66029 0.0
C818 C 0.9931 0.75191 0.666 0.0
C819 C 0.9997 0.7525 0.68603 0.0
C820 C 0.03068 0.77738 0.68039 0.0
C821 C 0.0185 0.76525 0.69328 0.0
C822 C 0.92039 0.78383 0.58256 0.0
C823 C 0.9554 0.74546 0.5562 0.0
C824 C 0.86997 0.73744 0.54945 0.0
C825 C 0.8577 0.73748 0.52992 0.0
C826 C 0.83414 0.727 0.52645 0.0
C827 C 0.86997 0.74695 0.51457 0.0
C828 C 0.85895 0.74563 0.49554 0.0
C829 C 0.82294 0.72588 0.50741 0.0
C830 C 0.83545 0.7351 0.49188 0.0
C831 C 0.93925 0.71512 0.60892 0.0
H832 H 0.03369 0.78629 0.65031 0.0
H833 H 0.9783 0.74224 0.66053 0.0
H834 H 0.04496 0.78727 0.68599 0.0
H835 H 0.02343 0.76591 0.70895 0.0
H836 H 0.82469 0.71952 0.5384 0.0
H837 H 0.88849 0.7548 0.51727 0.0
H838 H 0.80489 0.7177 0.50466 0.0
H839 H 0.82702 0.73393 0.47703 0.0
Gd840 Gd 0.31201 0.75672 0.69854 0.0
Gd841 Gd 0.36856 0.74032 0.72621 0.0
C842 C 0.45637 0.7473 0.70462 0.0
C843 C 0.47364 0.71714 0.70516 0.0
C844 C 0.42436 0.7229 0.71074 0.0
C845 C 0.42924 0.74103 0.70865 0.0
C846 C 0.44673 0.71084 0.70896 0.0
C847 C 0.47846 0.73529 0.70306 0.0
C848 C 0.46048 0.7655 0.70196 0.0
C849 C 0.43771 0.77691 0.70234 0.0
N850 N 0.40759 0.75256 0.7104 0.0
C851 C 0.41125 0.77014 0.70625 0.0
H852 H 0.39397 0.77902 0.70531 0.0
C853 C 0.39401 0.69944 0.7194 0.0
N854 N 0.39834 0.71714 0.71554 0.0
C855 C 0.41529 0.68709 0.71704 0.0
C856 C 0.44176 0.69279 0.71182 0.0
H857 H 0.37453 0.69479 0.72547 0.0
H858 H 0.49938 0.7399 0.70011 0.0
H859 H 0.29017 0.71589 0.71609 0.0
H860 H 0.48096 0.77077 0.69884 0.0
H861 H 0.44045 0.79088 0.69934 0.0
H862 H 0.491 0.70805 0.70401 0.0
H863 H 0.3012 0.80157 0.69974 0.0
H864 H 0.20813 0.72256 0.73802 0.0
H865 H 0.24782 0.70327 0.72972 0.0
H866 H 0.19277 0.78482 0.73504 0.0
H867 H 0.41151 0.67322 0.72011 0.0
H868 H 0.45844 0.6832 0.71066 0.0
H869 H 0.18796 0.75283 0.73996 0.0
H870 H 0.26408 0.82187 0.70895 0.0
N871 N 0.27527 0.74249 0.71555 0.0
C872 C 0.22688 0.72832 0.73189 0.0
C873 C 0.24918 0.71739 0.72715 0.0
C874 C 0.22916 0.74658 0.72904 0.0
C875 C 0.25409 0.75349 0.72107 0.0
C876 C 0.27329 0.72469 0.71903 0.0
N877 N 0.28139 0.77841 0.71154 0.0
C878 C 0.25714 0.7718 0.71888 0.0
C879 C 0.26199 0.80789 0.71218 0.0
C880 C 0.23768 0.80141 0.72055 0.0
C881 C 0.28336 0.79619 0.70738 0.0
C882 C 0.23483 0.78323 0.7238 0.0
H883 H 0.22095 0.81052 0.72399 0.0
O884 O 0.3042 0.77685 0.67672 0.0
O885 O 0.35824 0.74953 0.69468 0.0
O886 O 0.36702 0.76942 0.73435 0.0
O887 O 0.33338 0.7802 0.71279 0.0
O888 O 0.33773 0.75595 0.66975 0.0
O889 O 0.27526 0.7546 0.68063 0.0
O890 O 0.38019 0.72229 0.74988 0.0
O891 O 0.32343 0.74903 0.7298 0.0
O892 O 0.31579 0.72818 0.68771 0.0
O893 O 0.34903 0.7172 0.70963 0.0
O894 O 0.33942 0.73652 0.7532 0.0
O895 O 0.40149 0.74785 0.74618 0.0
C896 C 0.36226 0.7512 0.6754 0.0
C897 C 0.21003 0.77622 0.73132 0.0
C898 C 0.20725 0.75799 0.73402 0.0
C899 C 0.28064 0.76958 0.67156 0.0
C900 C 0.27436 0.77029 0.65084 0.0
C901 C 0.26564 0.78643 0.64266 0.0
C902 C 0.27662 0.75508 0.63928 0.0
C903 C 0.26928 0.75598 0.61955 0.0
C904 C 0.25896 0.78735 0.62266 0.0
C905 C 0.26071 0.77212 0.61115 0.0
C906 C 0.35211 0.78251 0.72686 0.0
C907 C 0.31703 0.74466 0.74798 0.0
C908 C 0.40076 0.73252 0.75526 0.0
C909 C 0.41088 0.73162 0.77547 0.0
C910 C 0.43105 0.71887 0.78007 0.0
C911 C 0.40241 0.74389 0.7897 0.0
C912 C 0.41475 0.74366 0.80845 0.0
C913 C 0.44312 0.71853 0.79885 0.0
C914 C 0.43515 0.73097 0.81301 0.0
C915 C 0.33186 0.71521 0.69448 0.0
H916 H 0.26402 0.79823 0.65174 0.0
H917 H 0.28376 0.74266 0.64557 0.0
H918 H 0.25239 0.79976 0.61613 0.0
H919 H 0.25559 0.77277 0.59568 0.0
H920 H 0.43777 0.70937 0.76901 0.0
H921 H 0.38676 0.75374 0.78612 0.0
H922 H 0.45874 0.70871 0.80238 0.0
H923 H 0.44458 0.73056 0.8276 0.0
Gd924 Gd 0.96038 0.49581 0.69798 0.0
Gd925 Gd 0.90244 0.51016 0.72575 0.0
C926 C 0.81377 0.50188 0.70455 0.0
C927 C 0.79416 0.5313 0.7081 0.0
C928 C 0.84355 0.52641 0.71419 0.0
C929 C 0.84015 0.50848 0.7102 0.0
C930 C 0.82041 0.53794 0.71332 0.0
C931 C 0.79084 0.51333 0.70376 0.0
C932 C 0.81144 0.48411 0.69897 0.0
C933 C 0.83522 0.47362 0.69802 0.0
N934 N 0.86288 0.49773 0.71039 0.0
C935 C 0.86092 0.48075 0.70345 0.0
H936 H 0.879 0.47263 0.70151 0.0
C937 C 0.87215 0.54971 0.72555 0.0
N938 N 0.86917 0.53252 0.71935 0.0
C939 C 0.85004 0.56164 0.7245 0.0
C940 C 0.82409 0.55577 0.71819 0.0
H941 H 0.89164 0.55423 0.73176 0.0
H942 H 0.77052 0.50847 0.69948 0.0
H943 H 0.98335 0.53345 0.71945 0.0
H944 H 0.79161 0.47858 0.69453 0.0
H945 H 0.83386 0.46008 0.69286 0.0
H946 H 0.77625 0.53998 0.70739 0.0
H947 H 0.96817 0.45112 0.69049 0.0
H948 H 0.06505 0.52239 0.74069 0.0
H949 H 0.02704 0.54362 0.73466 0.0
H950 H 0.07611 0.46037 0.72982 0.0
H951 H 0.85288 0.57526 0.72908 0.0
H952 H 0.80684 0.56499 0.7177 0.0
H953 H 0.08336 0.49157 0.73777 0.0
H954 H 1.00366 0.4286 0.69743 0.0
N955 N 0.99584 0.50642 0.71814 0.0
C956 C 0.04562 0.51769 0.73457 0.0
C957 C 0.02422 0.52975 0.73115 0.0
C958 C 0.04187 0.49979 0.72987 0.0
C959 C 0.01624 0.4943 0.72178 0.0
C960 C 0.99944 0.52393 0.72261 0.0
N961 N 0.98814 0.47144 0.70742 0.0
C962 C 0.01216 0.47645 0.71662 0.0
C963 C 1.00613 0.44189 0.70319 0.0
C964 C 0.03017 0.44657 0.71336 0.0
C965 C 0.98575 0.45464 0.69971 0.0
C966 C 0.03381 0.46406 0.71967 0.0
H967 H 0.04635 0.43676 0.71549 0.0
O968 O 0.98055 0.4819 0.6742 0.0
O969 O 0.91409 0.50219 0.69382 0.0
O970 O 0.90484 0.48077 0.73139 0.0
O971 O 0.9403 0.47107 0.71067 0.0
O972 O 0.93426 0.49296 0.66966 0.0
O973 O 0.99602 0.50778 0.68385 0.0
O974 O 0.89427 0.52596 0.75168 0.0
O975 O 0.94822 0.50261 0.72929 0.0
O976 O 0.95505 0.52508 0.69004 0.0
O977 O 0.917 0.53442 0.70856 0.0
O978 O 0.93149 0.51434 0.75276 0.0
O979 O 0.87263 0.50015 0.74713 0.0
C980 C 0.91017 0.49903 0.67479 0.0
C981 C 0.05914 0.46963 0.72779 0.0
C982 C 0.06324 0.48742 0.73254 0.0
C983 C 1.00056 0.49359 0.67327 0.0
C984 C 0.01309 0.49613 0.65429 0.0
C985 C 0.04123 0.4919 0.65171 0.0
C986 C 0.99649 0.50089 0.63839 0.0
C987 C 1.00776 0.50064 0.6196 0.0
C988 C 0.0528 0.49234 0.63279 0.0
C989 C 0.03601 0.49658 0.61664 0.0
C990 C 0.92059 0.46813 0.72392 0.0
C991 C 0.95405 0.50639 0.74778 0.0
C992 C 0.87555 0.51462 0.7577 0.0
C993 C 0.85998 0.51774 0.77569 0.0
C994 C 0.8473 0.53413 0.77928 0.0
C995 C 0.8602 0.50468 0.79022 0.0
C996 C 0.84877 0.5081 0.80881 0.0
C997 C 0.83476 0.53736 0.79758 0.0
C998 C 0.83563 0.52444 0.81241 0.0
C999 C 0.937 0.53745 0.69548 0.0
H1000 H 0.05393 0.48784 0.6642 0.0
H1001 H 0.97447 0.50344 0.64046 0.0
H1002 H 0.07436 0.48877 0.63057 0.0
H1003 H 0.0446 0.49594 0.6018 0.0
H1004 H 0.84739 0.54442 0.76807 0.0
H1005 H 0.87068 0.4922 0.78743 0.0
H1006 H 0.82512 0.55005 0.80048 0.0
H1007 H 0.82712 0.52749 0.82687 0.0
Gd1008 Gd 0.65128 0.48861 0.47621 0.0
Gd1009 Gd 0.70766 0.50472 0.44869 0.0
C1010 C 0.79218 0.49586 0.47579 0.0
C1011 C 0.81148 0.52555 0.47562 0.0
C1012 C 0.76291 0.52087 0.46663 0.0
C1013 C 0.76624 0.50261 0.46952 0.0
C1014 C 0.78571 0.53241 0.46969 0.0
C1015 C 0.81471 0.50737 0.47866 0.0
C1016 C 0.79485 0.47765 0.4789 0.0
C1017 C 0.77186 0.46666 0.47655 0.0
N1018 N 0.74436 0.49148 0.46619 0.0
C1019 C 0.74665 0.47381 0.47015 0.0
H1020 H 0.72932 0.46505 0.46843 0.0
C1021 C 0.73518 0.54501 0.45606 0.0
N1022 N 0.73785 0.52728 0.4604 0.0
C1023 C 0.75697 0.55683 0.45932 0.0
C1024 C 0.78233 0.55052 0.46619 0.0
H1025 H 0.71667 0.55012 0.44897 0.0
H1026 H 0.83478 0.50232 0.48327 0.0
H1027 H 0.62671 0.52734 0.45445 0.0
H1028 H 0.81455 0.47196 0.48317 0.0
H1029 H 0.77368 0.45259 0.47933 0.0
H1030 H 0.82917 0.53422 0.47782 0.0
H1031 H 0.64464 0.44292 0.47428 0.0
H1032 H 0.53938 0.51998 0.44882 0.0
H1033 H 0.58043 0.53964 0.44864 0.0
H1034 H 0.52805 0.45737 0.45431 0.0
H1035 H 0.75444 0.57073 0.45584 0.0
H1036 H 0.7994 0.5597 0.46826 0.0
H1037 H 0.52023 0.48929 0.45053 0.0
H1038 H 0.60721 0.42192 0.46917 0.0
N1039 N 0.61243 0.50114 0.46029 0.0
C1040 C 0.55976 0.51453 0.4519 0.0
C1041 C 0.58283 0.52568 0.4519 0.0
C1042 C 0.56347 0.49632 0.45476 0.0
C1043 C 0.5905 0.48983 0.4587 0.0
C1044 C 0.60918 0.51868 0.45576 0.0
N1045 N 0.62113 0.46572 0.46505 0.0
C1046 C 0.59508 0.47168 0.46061 0.0
C1047 C 0.60366 0.43578 0.46623 0.0
C1048 C 0.57715 0.44171 0.46149 0.0
C1049 C 0.62526 0.44792 0.46841 0.0
C1050 C 0.57246 0.45981 0.45889 0.0
H1051 H 0.56028 0.43225 0.46046 0.0
O1052 O 0.63978 0.46995 0.49924 0.0
O1053 O 0.69692 0.49675 0.48016 0.0
O1054 O 0.70275 0.47628 0.43799 0.0
O1055 O 0.67253 0.4651 0.46165 0.0
O1056 O 0.6784 0.48689 0.50426 0.0
O1057 O 0.61839 0.49557 0.49651 0.0
O1058 O 0.72118 0.52325 0.42669 0.0
O1059 O 0.66146 0.49756 0.44447 0.0
O1060 O 0.65276 0.51771 0.48408 0.0
O1061 O 0.68666 0.52839 0.46267 0.0
O1062 O 0.68153 0.50628 0.42015 0.0
O1063 O 0.7437 0.49826 0.43111 0.0
C1064 C 0.70173 0.49376 0.49901 0.0
C1065 C 0.54559 0.46632 0.45538 0.0
C1066 C 0.5411 0.4845 0.45336 0.0
C1067 C 0.61949 0.4801 0.50527 0.0
C1068 C 0.61041 0.47879 0.52575 0.0
C1069 C 0.59358 0.46437 0.53097 0.0
C1070 C 0.61634 0.49203 0.53963 0.0
C1071 C 0.60468 0.49102 0.55861 0.0
C1072 C 0.5823 0.46326 0.54993 0.0
C1073 C 0.58766 0.47657 0.56369 0.0
C1074 C 0.68816 0.46314 0.44573 0.0
C1075 C 0.65744 0.50039 0.42536 0.0
C1076 C 0.74338 0.51393 0.42273 0.0
C1077 C 0.75267 0.51497 0.40277 0.0
C1078 C 0.7722 0.52796 0.39763 0.0
C1079 C 0.74034 0.50426 0.38861 0.0
C1080 C 0.74703 0.50693 0.36901 0.0
C1081 C 0.7789 0.53056 0.3778 0.0
C1082 C 0.76598 0.52019 0.36346 0.0
C1083 C 0.66789 0.53073 0.47669 0.0
H1084 H 0.5888 0.45412 0.52023 0.0
H1085 H 0.62938 0.50318 0.5356 0.0
H1086 H 0.56925 0.45214 0.55391 0.0
H1087 H 0.57884 0.47548 0.57842 0.0
H1088 H 0.78157 0.53633 0.40886 0.0
H1089 H 0.72516 0.49428 0.39275 0.0
H1090 H 0.79357 0.54074 0.37356 0.0
H1091 H 0.77043 0.52247 0.34804 0.0
Gd1092 Gd 0.11556 0.25837 0.47558 0.0
Gd1093 Gd 0.06201 0.24178 0.44799 0.0
C1094 C 0.97799 0.25405 0.47663 0.0
C1095 C 0.95819 0.22467 0.47964 0.0
C1096 C 1.00605 0.22832 0.46859 0.0
C1097 C 1.00301 0.2467 0.4693 0.0
C1098 C 0.98337 0.21723 0.47358 0.0
C1099 C 0.95568 0.24297 0.48166 0.0
C1100 C 0.97583 0.27238 0.47853 0.0
C1101 C 0.99824 0.283 0.47332 0.0
N1102 N 0.02418 0.25734 0.46288 0.0
C1103 C 0.02227 0.27531 0.46555 0.0
H1104 H 0.03927 0.28402 0.46264 0.0
C1105 C 0.03223 0.20331 0.45895 0.0
N1106 N 0.0303 0.22127 0.4619 0.0
C1107 C 0.01062 0.19193 0.46409 0.0
C1108 C 0.98608 0.1989 0.47151 0.0
H1109 H 0.0499 0.19747 0.4516 0.0
H1110 H 0.93616 0.24847 0.48679 0.0
H1111 H 0.14239 0.22027 0.45436 0.0
H1112 H 0.95709 0.27845 0.48429 0.0
H1113 H 0.99707 0.2972 0.47531 0.0
H1114 H 0.94037 0.21633 0.4825 0.0
H1115 H 0.12249 0.30327 0.47748 0.0
H1116 H 0.22956 0.22828 0.44968 0.0
H1117 H 0.1889 0.20829 0.44921 0.0
H1118 H 0.23945 0.291 0.45581 0.0
H1119 H 0.01261 0.17782 0.46165 0.0
H1120 H 0.96905 0.19006 0.47506 0.0
H1121 H 0.24794 0.25919 0.45132 0.0
H1122 H 0.1595 0.32529 0.47289 0.0
N1123 N 0.156 0.24646 0.46095 0.0
C1124 C 0.20906 0.23353 0.45278 0.0
C1125 C 0.18622 0.2222 0.4526 0.0
C1126 C 0.20496 0.25167 0.45584 0.0
C1127 C 0.17783 0.25787 0.45998 0.0
C1128 C 0.15968 0.229 0.45621 0.0
N1129 N 0.147 0.28142 0.46749 0.0
C1130 C 0.17304 0.27586 0.46269 0.0
C1131 C 0.16352 0.31148 0.46971 0.0
C1132 C 0.19007 0.306 0.46427 0.0
C1133 C 0.1424 0.29895 0.47183 0.0
C1134 C 0.19527 0.28801 0.46109 0.0
H1135 H 0.20658 0.3157 0.4631 0.0
O1136 O 0.12361 0.27533 0.501 0.0
O1137 O 0.07271 0.24554 0.48082 0.0
O1138 O 0.06464 0.27045 0.43666 0.0
O1139 O 0.10074 0.28108 0.4562 0.0
O1140 O 0.0793 0.26925 0.49442 0.0
O1141 O 0.14475 0.24945 0.49774 0.0
O1142 O 0.05856 0.22013 0.42732 0.0
O1143 O 0.10751 0.24963 0.44395 0.0
O1144 O 0.11501 0.22936 0.48444 0.0
O1145 O 0.08445 0.21811 0.46131 0.0
O1146 O 0.08707 0.24336 0.41898 0.0
O1147 O 0.0258 0.24021 0.42949 0.0
C1148 C 0.06202 0.25614 0.49391 0.0
C1149 C 0.22217 0.28185 0.45695 0.0
C1150 C 0.22704 0.26373 0.45448 0.0
C1151 C 0.14233 0.2643 0.50749 0.0
C1152 C 0.15724 0.26721 0.52578 0.0
C1153 C 0.17268 0.28269 0.52891 0.0
C1154 C 0.15558 0.25431 0.5404 0.0
C1155 C 0.16873 0.25689 0.55855 0.0
C1156 C 0.18666 0.28509 0.54688 0.0
C1157 C 0.18465 0.27225 0.56174 0.0
C1158 C 0.08208 0.28326 0.44206 0.0
C1159 C 0.11163 0.24787 0.42474 0.0
C1160 C 0.03432 0.22555 0.4211 0.0
C1161 C 0.02975 0.22426 0.40018 0.0
C1162 C 0.02208 0.20789 0.39207 0.0
C1163 C 0.03146 0.2394 0.38848 0.0
C1164 C 0.02383 0.23833 0.36881 0.0
C1165 C 0.01498 0.20682 0.37213 0.0
C1166 C 0.01539 0.2221 0.3606 0.0
C1167 C 0.10201 0.21589 0.47613 0.0
H1168 H 0.174 0.29276 0.5175 0.0
H1169 H 0.14325 0.24248 0.53789 0.0
H1170 H 0.19861 0.29702 0.54941 0.0
H1171 H 0.19467 0.27457 0.57589 0.0
H1172 H 0.02104 0.19612 0.40124 0.0
H1173 H 0.03783 0.25202 0.39472 0.0
H1174 H 1.00867 0.1943 0.36575 0.0
H1175 H 1.00902 0.22141 0.34531 0.0
Gd1176 Gd 0.6542 0.25822 0.32719 0.0
Gd1177 Gd 0.70829 0.24382 0.35631 0.0
C1178 C 0.78885 0.24874 0.32234 0.0
C1179 C 0.80312 0.21806 0.31941 0.0
C1180 C 0.75787 0.22523 0.33353 0.0
C1181 C 0.76363 0.24334 0.33121 0.0
C1182 C 0.77785 0.21254 0.32761 0.0
C1183 C 0.80853 0.23606 0.31669 0.0
C1184 C 0.79389 0.26681 0.31964 0.0
C1185 C 0.77427 0.27914 0.32591 0.0
N1186 N 0.74499 0.25567 0.3377 0.0
C1187 C 0.75001 0.27336 0.3352 0.0
H1188 H 0.73547 0.28318 0.34012 0.0
C1189 C 0.72946 0.20239 0.34659 0.0
N1190 N 0.73372 0.22003 0.3424 0.0
C1191 C 0.74824 0.1895 0.34036 0.0
C1192 C 0.7725 0.19457 0.33078 0.0
H1193 H 0.71254 0.19799 0.35585 0.0
H1194 H 0.82823 0.24012 0.31042 0.0
H1195 H 0.62021 0.22054 0.34165 0.0
H1196 H 0.81292 0.27139 0.31274 0.0
H1197 H 0.778 0.29316 0.32383 0.0
H1198 H 0.81881 0.20843 0.3154 0.0
H1199 H 0.64539 0.30138 0.31627 0.0
H1200 H 0.54445 0.23478 0.36907 0.0
H1201 H 0.57799 0.21197 0.35855 0.0
H1202 H 0.53969 0.29725 0.35998 0.0
H1203 H 0.74449 0.17567 0.3437 0.0
H1204 H 0.78742 0.18453 0.32648 0.0
H1205 H 0.53045 0.26647 0.3695 0.0
H1206 H 0.61178 0.32526 0.32284 0.0
N1207 N 0.61409 0.24831 0.3444 0.0
C1208 C 0.5639 0.23874 0.3623 0.0
C1209 C 0.58277 0.22585 0.35645 0.0
C1210 C 0.56975 0.25653 0.35848 0.0
C1211 C 0.59537 0.26104 0.34946 0.0
C1212 C 0.60747 0.23086 0.34719 0.0
N1213 N 0.62447 0.28237 0.33423 0.0
C1214 C 0.60069 0.2785 0.34422 0.0
C1215 C 0.60853 0.31225 0.32915 0.0
C1216 C 0.58496 0.3088 0.34046 0.0
C1217 C 0.62763 0.2987 0.32563 0.0
C1218 C 0.58037 0.29169 0.34768 0.0
H1219 H 0.56985 0.31923 0.34282 0.0
O1220 O 0.64548 0.27119 0.29963 0.0
O1221 O 0.69796 0.24633 0.32277 0.0
O1222 O 0.70335 0.2728 0.36504 0.0
O1223 O 0.66997 0.28286 0.34302 0.0
O1224 O 0.6889 0.26879 0.30687 0.0
O1225 O 0.62296 0.24665 0.3073 0.0
O1226 O 0.72809 0.2264 0.37754 0.0
O1227 O 0.6628 0.25138 0.35939 0.0
O1228 O 0.6612 0.22868 0.3214 0.0
O1229 O 0.68078 0.22037 0.35109 0.0
O1230 O 0.68084 0.24188 0.38437 0.0
O1231 O 0.74317 0.25342 0.37326 0.0
C1232 C 0.70731 0.25635 0.30841 0.0
C1233 C 0.55545 0.28728 0.35726 0.0
C1234 C 0.55016 0.26976 0.36266 0.0
C1235 C 0.62664 0.25966 0.29483 0.0
C1236 C 0.60867 0.26315 0.27804 0.0
C1237 C 0.59599 0.27969 0.27515 0.0
C1238 C 0.60829 0.25051 0.26312 0.0
C1239 C 0.59689 0.25453 0.24468 0.0
C1240 C 0.58314 0.28346 0.25703 0.0
C1241 C 0.58384 0.271 0.2417 0.0
C1242 C 0.68763 0.2856 0.35771 0.0
C1243 C 0.65734 0.24817 0.37814 0.0
C1244 C 0.74759 0.23793 0.38125 0.0
C1245 C 0.75993 0.2377 0.40066 0.0
C1246 C 0.78552 0.22914 0.40329 0.0
C1247 C 0.7463 0.24555 0.41654 0.0
C1248 C 0.75802 0.24439 0.43529 0.0
C1249 C 0.79741 0.22822 0.42209 0.0
C1250 C 0.78358 0.23572 0.43816 0.0
C1251 C 0.66929 0.21631 0.33402 0.0
H1252 H 0.59672 0.28975 0.28659 0.0
H1253 H 0.61886 0.23796 0.26535 0.0
H1254 H 0.57368 0.29628 0.25458 0.0
H1255 H 0.5754 0.27452 0.22734 0.0
H1256 H 0.79608 0.22303 0.39085 0.0
H1257 H 0.72626 0.25189 0.41446 0.0
H1258 H 0.81698 0.22142 0.42427 0.0
H1259 H 0.7924 0.23441 0.45286 0.0
Gd1260 Gd 0.11527 0.48935 0.32738 0.0
Gd1261 Gd 0.05961 0.50347 0.35507 0.0
C1262 C 0.98052 0.49873 0.31932 0.0
C1263 C 0.96591 0.52938 0.31659 0.0
C1264 C 0.01041 0.52222 0.33202 0.0
C1265 C 1.00521 0.50412 0.32894 0.0
C1266 C 0.99041 0.53489 0.32599 0.0
C1267 C 0.96103 0.51141 0.31322 0.0
C1268 C 0.9759 0.48065 0.31622 0.0
C1269 C 0.99544 0.46833 0.32274 0.0
N1270 N 0.02386 0.49181 0.33549 0.0
C1271 C 0.01928 0.47412 0.33259 0.0
H1272 H 0.03391 0.46439 0.33772 0.0
C1273 C 0.0374 0.54488 0.34688 0.0
N1274 N 0.03399 0.5274 0.34168 0.0
C1275 C 0.01841 0.55773 0.3409 0.0
C1276 C 0.99495 0.55278 0.33025 0.0
H1277 H 0.05376 0.54907 0.3568 0.0
H1278 H 0.9419 0.50743 0.30601 0.0
H1279 H 0.14234 0.52606 0.3512 0.0
H1280 H 0.95725 0.47606 0.30883 0.0
H1281 H 0.992 0.45433 0.32038 0.0
H1282 H 0.95036 0.53895 0.31206 0.0
H1283 H 0.12299 0.44509 0.32016 0.0
H1284 H 0.22791 0.51617 0.36138 0.0
H1285 H 0.1878 0.53653 0.36154 0.0
H1286 H 0.23786 0.45446 0.34828 0.0
H1287 H 0.02136 0.57135 0.3453 0.0
H1288 H 0.97994 0.5628 0.32604 0.0
H1289 H 0.24619 0.48561 0.35678 0.0
H1290 H 0.15913 0.4224 0.32433 0.0
N1291 N 0.15554 0.49998 0.3438 0.0
C1292 C 0.20774 0.51146 0.35659 0.0
C1293 C 0.1852 0.52298 0.35662 0.0
C1294 C 0.20382 0.49385 0.35098 0.0
C1295 C 0.17714 0.48836 0.34458 0.0
C1296 C 0.15919 0.51698 0.35033 0.0
N1297 N 0.14665 0.46575 0.33365 0.0
C1298 C 0.17238 0.47071 0.3399 0.0
C1299 C 0.16306 0.43587 0.32903 0.0
C1300 C 0.18913 0.44065 0.3362 0.0
C1301 C 0.14236 0.44872 0.32719 0.0
C1302 C 0.19429 0.45828 0.3413 0.0
H1303 H 0.20536 0.43073 0.33719 0.0
O1304 O 0.12459 0.47531 0.3006 0.0
O1305 O 0.07172 0.50112 0.322 0.0
O1306 O 0.06467 0.47464 0.36428 0.0
O1307 O 0.09982 0.46491 0.34364 0.0
O1308 O 0.08142 0.47878 0.30627 0.0
O1309 O 0.14541 0.50089 0.30664 0.0
O1310 O 0.03851 0.5198 0.37668 0.0
O1311 O 0.1054 0.49632 0.35954 0.0
O1312 O 0.10958 0.51892 0.32139 0.0
O1313 O 0.08597 0.5274 0.34955 0.0
O1314 O 0.08528 0.50551 0.38377 0.0
O1315 O 0.02332 0.49331 0.36976 0.0
C1316 C 0.06302 0.49122 0.3074 0.0
C1317 C 0.22083 0.46381 0.34731 0.0
C1318 C 0.22561 0.48156 0.35204 0.0
C1319 C 0.14278 0.48707 0.29512 0.0
C1320 C 0.15985 0.48372 0.27781 0.0
C1321 C 0.17279 0.46727 0.27489 0.0
C1322 C 0.15937 0.49622 0.2627 0.0
C1323 C 0.16999 0.49205 0.24403 0.0
C1324 C 0.1849 0.46339 0.25659 0.0
C1325 C 0.18321 0.47562 0.24107 0.0
C1326 C 0.08133 0.46204 0.35769 0.0
C1327 C 0.10946 0.49957 0.37851 0.0
C1328 C 0.01878 0.50812 0.37914 0.0
C1329 C 1.00801 0.50616 0.39881 0.0
C1330 C 0.98019 0.51046 0.40264 0.0
C1331 C 0.02545 0.50024 0.41379 0.0
C1332 C 0.01531 0.49916 0.43289 0.0
C1333 C 0.96981 0.50892 0.42184 0.0
C1334 C 0.98739 0.50334 0.43704 0.0
C1335 C 0.09938 0.53134 0.33315 0.0
H1336 H 0.17286 0.45736 0.28652 0.0
H1337 H 0.14883 0.50875 0.26508 0.0
H1338 H 0.19455 0.45062 0.25416 0.0
H1339 H 0.19108 0.47191 0.22661 0.0
H1340 H 0.96671 0.51514 0.39087 0.0
H1341 H 0.04714 0.49737 0.4108 0.0
H1342 H 0.94849 0.51249 0.42503 0.0
H1343 H 0.97968 0.50306 0.45214 0.0
Gd1344 Gd 0.81314 0.99587 0.60654 0.0
Gd1345 Gd 0.86884 0.01054 0.57784 0.0
C1346 C 0.95173 0.00906 0.61016 0.0
C1347 C 0.96574 0.03985 0.6092 0.0
C1348 C 0.91978 0.03124 0.5972 0.0
C1349 C 0.92578 0.01354 0.60159 0.0
C1350 C 0.94022 0.04441 0.60058 0.0
C1351 C 0.9714 0.02228 0.6141 0.0
C1352 C 0.95775 0.99128 0.61395 0.0
C1353 C 0.93855 0.97833 0.60881 0.0
N1354 N 0.90724 0.00064 0.59654 0.0
C1355 C 0.91358 0.98323 0.59984 0.0
H1356 H 0.90005 0.97283 0.59539 0.0
C1357 C 0.89114 0.05237 0.58117 0.0
N1358 N 0.89527 0.03544 0.58818 0.0
C1359 C 0.91059 0.0657 0.58446 0.0
C1360 C 0.93523 0.06171 0.5942 0.0
H1361 H 0.87332 0.05552 0.57206 0.0
H1362 H 0.99142 0.01897 0.62048 0.0
H1363 H 0.7909 0.03519 0.58672 0.0
H1364 H 0.97741 0.98738 0.62046 0.0
H1365 H 0.94322 0.96449 0.61133 0.0
H1366 H 0.98156 0.04981 0.61177 0.0
H1367 H 0.80747 0.94981 0.60469 0.0
H1368 H 0.70798 0.02629 0.56718 0.0
H1369 H 0.74711 0.04663 0.57357 0.0
H1370 H 0.69642 0.96375 0.57215 0.0
H1371 H 0.90698 0.07888 0.57873 0.0
H1372 H 0.95082 0.07193 0.59601 0.0
H1373 H 0.68924 0.99555 0.56706 0.0
H1374 H 0.77213 0.92864 0.59504 0.0
N1375 N 0.77774 0.00829 0.58725 0.0
C1376 C 0.72747 0.02106 0.57271 0.0
C1377 C 0.74953 0.03258 0.57625 0.0
C1378 C 0.73084 0.00293 0.57615 0.0
C1379 C 0.75662 0.99673 0.58342 0.0
C1380 C 0.77454 0.02598 0.58369 0.0
N1381 N 0.78576 0.97261 0.59338 0.0
C1382 C 0.76076 0.97853 0.58641 0.0
C1383 C 0.76888 0.94256 0.59217 0.0
C1384 C 0.74353 0.94839 0.58478 0.0
C1385 C 0.78952 0.95481 0.5969 0.0
C1386 C 0.73903 0.9665 0.58206 0.0
H1387 H 0.72735 0.93882 0.5816 0.0
O1388 O 0.7919 0.97907 0.6276 0.0
O1389 O 0.8591 0.00275 0.60986 0.0
O1390 O 0.86357 0.98098 0.57152 0.0
O1391 O 0.83884 0.97211 0.59923 0.0
O1392 O 0.84058 0.99272 0.63448 0.0
O1393 O 0.77914 0.00669 0.62339 0.0
O1394 O 0.88211 0.02693 0.55349 0.0
O1395 O 0.82304 0.00268 0.57426 0.0
O1396 O 0.82088 0.02402 0.61699 0.0
O1397 O 0.84648 0.03462 0.5906 0.0
O1398 O 0.84192 0.01185 0.54969 0.0
O1399 O 0.90366 0.00189 0.55965 0.0
C1400 C 0.86423 0.99905 0.62858 0.0
C1401 C 0.71332 0.97282 0.57529 0.0
C1402 C 0.70921 0.99094 0.57241 0.0
C1403 C 0.77322 0.99123 0.63102 0.0
C1404 C 0.75967 0.99105 0.64989 0.0
C1405 C 0.73338 0.98318 0.65161 0.0
C1406 C 0.77297 0.99828 0.6662 0.0
C1407 C 0.76009 0.99739 0.68449 0.0
C1408 C 0.72029 0.98257 0.67002 0.0
C1409 C 0.73369 0.98962 0.68655 0.0
C1410 C 0.85243 0.96851 0.58283 0.0
C1411 C 0.81847 0.00526 0.55522 0.0
C1412 C 0.90338 0.01681 0.54973 0.0
C1413 C 0.91555 0.01786 0.5301 0.0
C1414 C 0.93397 0.03183 0.52624 0.0
C1415 C 0.90803 0.00613 0.51504 0.0
C1416 C 0.91934 0.00828 0.49606 0.0
C1417 C 0.94507 0.03404 0.50735 0.0
C1418 C 0.93783 0.02232 0.49228 0.0
C1419 C 0.83369 0.03707 0.60773 0.0
H1420 H 0.7232 0.97743 0.6388 0.0
H1421 H 0.79365 0.00389 0.66481 0.0
H1422 H 0.70014 0.97635 0.67154 0.0
H1423 H 0.72398 0.98855 0.701 0.0
H1424 H 0.93945 0.04117 0.53781 0.0
H1425 H 0.89331 0.99558 0.51801 0.0
H1426 H 0.959 0.04497 0.50433 0.0
H1427 H 0.9461 0.02449 0.47753 0.0
Gd1428 Gd 0.46194 0.25574 0.60671 0.0
Gd1429 Gd 0.40423 0.2415 0.5778 0.0
C1430 C 0.31634 0.24669 0.60213 0.0
C1431 C 0.29987 0.21639 0.6006 0.0
C1432 C 0.34815 0.22318 0.59249 0.0
C1433 C 0.34312 0.24109 0.59608 0.0
C1434 C 0.32631 0.21075 0.59455 0.0
C1435 C 0.29492 0.23428 0.60439 0.0
C1436 C 0.3115 0.26469 0.60532 0.0
C1437 C 0.33304 0.2767 0.6027 0.0
N1438 N 0.36385 0.25309 0.59306 0.0
C1439 C 0.35915 0.27066 0.59676 0.0
H1440 H 0.37514 0.28033 0.59564 0.0
C1441 C 0.3778 0.20077 0.58002 0.0
N1442 N 0.37365 0.21801 0.58592 0.0
C1443 C 0.35705 0.18805 0.58234 0.0
C1444 C 0.33122 0.19303 0.58971 0.0
H1445 H 0.39723 0.19682 0.57327 0.0
H1446 H 0.27426 0.23843 0.60881 0.0
H1447 H 0.48457 0.21588 0.58836 0.0
H1448 H 0.29124 0.26946 0.60988 0.0
H1449 H 0.32967 0.29066 0.60545 0.0
H1450 H 0.28293 0.20703 0.60208 0.0
H1451 H 0.47286 0.30034 0.60968 0.0
H1452 H 0.56271 0.22509 0.56078 0.0
H1453 H 0.52603 0.20454 0.57191 0.0
H1454 H 0.57451 0.28764 0.56411 0.0
H1455 H 0.36077 0.17448 0.57792 0.0
H1456 H 0.31494 0.18319 0.59105 0.0
H1457 H 0.58033 0.25591 0.55779 0.0
H1458 H 0.50691 0.32198 0.59841 0.0
N1459 N 0.4971 0.24298 0.58716 0.0
C1460 C 0.54437 0.23027 0.56807 0.0
C1461 C 0.52377 0.21863 0.57439 0.0
C1462 C 0.54107 0.24846 0.57108 0.0
C1463 C 0.51678 0.25463 0.58064 0.0
C1464 C 0.5002 0.2252 0.58395 0.0
N1465 N 0.48999 0.27864 0.59347 0.0
C1466 C 0.51306 0.2728 0.58373 0.0
C1467 C 0.50853 0.30833 0.59365 0.0
C1468 C 0.53133 0.30275 0.58269 0.0
C1469 C 0.48849 0.29603 0.59935 0.0
C1470 C 0.53417 0.28482 0.57796 0.0
H1471 H 0.54726 0.31226 0.57873 0.0
O1472 O 0.47785 0.27278 0.62966 0.0
O1473 O 0.41554 0.24963 0.60924 0.0
O1474 O 0.40892 0.27088 0.57174 0.0
O1475 O 0.43881 0.28021 0.59677 0.0
O1476 O 0.4343 0.25596 0.63499 0.0
O1477 O 0.49834 0.24764 0.62305 0.0
O1478 O 0.39738 0.2253 0.55235 0.0
O1479 O 0.4496 0.24979 0.57503 0.0
O1480 O 0.45726 0.22671 0.61499 0.0
O1481 O 0.41904 0.21806 0.59613 0.0
O1482 O 0.43474 0.23623 0.55186 0.0
O1483 O 0.37342 0.25035 0.55598 0.0
C1484 C 0.41014 0.25151 0.62818 0.0
C1485 C 0.55816 0.27858 0.56849 0.0
C1486 C 0.56154 0.2605 0.565 0.0
C1487 C 0.49907 0.26246 0.63305 0.0
C1488 C 0.50787 0.2613 0.65333 0.0
C1489 C 0.52929 0.27248 0.65979 0.0
C1490 C 0.49405 0.25013 0.6665 0.0
C1491 C 0.50133 0.25055 0.68638 0.0
C1492 C 0.53649 0.27287 0.67974 0.0
C1493 C 0.52223 0.26213 0.69306 0.0
C1494 C 0.42204 0.28349 0.58167 0.0
C1495 C 0.45663 0.24478 0.55716 0.0
C1496 C 0.37811 0.23591 0.54564 0.0
C1497 C 0.36265 0.23086 0.52805 0.0
C1498 C 0.3544 0.21322 0.52531 0.0
C1499 C 0.36016 0.24306 0.51266 0.0
C1500 C 0.35129 0.23749 0.4939 0.0
C1501 C 0.34421 0.20776 0.50697 0.0
C1502 C 0.34306 0.21971 0.49122 0.0
C1503 C 0.43874 0.21477 0.6093 0.0
H1504 H 0.53987 0.28119 0.64948 0.0
H1505 H 0.47722 0.2417 0.66146 0.0
H1506 H 0.55253 0.28178 0.68495 0.0
H1507 H 0.52675 0.26323 0.70867 0.0
H1508 H 0.35662 0.20361 0.53713 0.0
H1509 H 0.36679 0.25662 0.51504 0.0
H1510 H 0.33827 0.19408 0.50472 0.0
H1511 H 0.33678 0.21481 0.47682 0.0
Gd1512 Gd 0.81147 0.25603 0.69662 0.0
Gd1513 Gd 0.86864 0.24018 0.7243 0.0
C1514 C 0.95309 0.24383 0.69516 0.0
C1515 C 0.96987 0.21369 0.69825 0.0
C1516 C 0.92187 0.22076 0.70689 0.0
C1517 C 0.92677 0.23851 0.70228 0.0
C1518 C 0.94363 0.20825 0.70494 0.0
C1519 C 0.97457 0.2314 0.69335 0.0
C1520 C 0.95736 0.26161 0.69039 0.0
C1521 C 0.93557 0.27361 0.69217 0.0
N1522 N 0.90625 0.25064 0.70524 0.0
C1523 C 0.91008 0.26789 0.69966 0.0
H1524 H 0.89342 0.27728 0.70026 0.0
C1525 C 0.89264 0.19876 0.72067 0.0
N1526 N 0.89667 0.21589 0.71435 0.0
C1527 C 0.91325 0.18594 0.71841 0.0
C1528 C 0.93888 0.1907 0.71055 0.0
H1529 H 0.87409 0.19509 0.7287 0.0
H1530 H 0.995 0.23538 0.68826 0.0
H1531 H 0.78888 0.2175 0.71736 0.0
H1532 H 0.97738 0.26615 0.68522 0.0
H1533 H 0.93843 0.28731 0.68792 0.0
H1534 H 0.98682 0.2043 0.69701 0.0
H1535 H 0.80411 0.30138 0.69371 0.0
H1536 H 0.70498 0.22656 0.73501 0.0
H1537 H 0.7446 0.20622 0.73022 0.0
H1538 H 0.69263 0.2888 0.72644 0.0
H1539 H 0.90973 0.17255 0.72354 0.0
H1540 H 0.95515 0.18083 0.70942 0.0
H1541 H 0.68587 0.25723 0.73342 0.0
H1542 H 0.76765 0.32307 0.70073 0.0
N1543 N 0.77506 0.2442 0.71526 0.0
C1544 C 0.72458 0.23169 0.72957 0.0
C1545 C 0.7469 0.22016 0.72692 0.0
C1546 C 0.7278 0.24971 0.72535 0.0
C1547 C 0.75371 0.25578 0.71821 0.0
C1548 C 0.77209 0.22664 0.71962 0.0
N1549 N 0.7826 0.27959 0.70711 0.0
C1550 C 0.75769 0.27387 0.71436 0.0
C1551 C 0.76473 0.30937 0.70495 0.0
C1552 C 0.73957 0.30382 0.71296 0.0
C1553 C 0.78573 0.29701 0.70155 0.0
C1554 C 0.73557 0.28591 0.71742 0.0
H1555 H 0.72307 0.31339 0.71512 0.0
O1556 O 0.79406 0.27194 0.67321 0.0
O1557 O 0.85672 0.24802 0.69282 0.0
O1558 O 0.86809 0.2697 0.73025 0.0
O1559 O 0.83195 0.27993 0.71032 0.0
O1560 O 0.83994 0.26068 0.66938 0.0
O1561 O 0.77658 0.24584 0.68005 0.0
O1562 O 0.88142 0.22365 0.74885 0.0
O1563 O 0.82284 0.24841 0.72833 0.0
O1564 O 0.81757 0.22747 0.6867 0.0
O1565 O 0.84703 0.21625 0.71086 0.0
O1566 O 0.84196 0.23902 0.75248 0.0
O1567 O 0.90331 0.24855 0.74258 0.0
C1568 C 0.86257 0.25267 0.67457 0.0
C1569 C 0.70982 0.27973 0.72425 0.0
C1570 C 0.70593 0.26173 0.72816 0.0
C1571 C 0.77388 0.26067 0.6702 0.0
C1572 C 0.76372 0.25941 0.65029 0.0
C1573 C 0.73901 0.26818 0.64532 0.0
C1574 C 0.77923 0.25053 0.63606 0.0
C1575 C 0.77022 0.25075 0.61658 0.0
C1576 C 0.72994 0.26831 0.62573 0.0
C1577 C 0.74572 0.25978 0.6113 0.0
C1578 C 0.85215 0.28252 0.72321 0.0
C1579 C 0.81846 0.24576 0.74733 0.0
C1580 C 0.90262 0.23382 0.75283 0.0
C1581 C 0.91374 0.2336 0.77284 0.0
C1582 C 0.93304 0.22036 0.77764 0.0
C1583 C 0.90565 0.24602 0.78707 0.0
C1584 C 0.91741 0.24535 0.80607 0.0
C1585 C 0.94453 0.2196 0.79656 0.0
C1586 C 0.93685 0.23207 0.81074 0.0
C1587 C 0.83139 0.21421 0.69491 0.0
H1588 H 0.72715 0.27522 0.65649 0.0
H1589 H 0.79866 0.24412 0.63999 0.0
H1590 H 0.7112 0.27536 0.62166 0.0
H1591 H 0.73943 0.26075 0.59596 0.0
H1592 H 0.93918 0.2106 0.7667 0.0
H1593 H 0.89039 0.25608 0.7834 0.0
H1594 H 0.95928 0.20929 0.80027 0.0
H1595 H 0.94557 0.23106 0.82552 0.0
Gd1596 Gd 0.45792 0.99556 0.69858 0.0
Gd1597 Gd 0.39926 0.01091 0.72511 0.0
C1598 C 0.31461 0.0081 0.69628 0.0
C1599 C 0.2978 0.03813 0.70074 0.0
C1600 C 0.34561 0.03073 0.70949 0.0
C1601 C 0.34076 0.01312 0.70401 0.0
C1602 C 0.3239 0.04329 0.70802 0.0
C1603 C 0.29321 0.02063 0.69485 0.0
C1604 C 0.31065 0.99058 0.69017 0.0
C1605 C 0.33254 0.97857 0.69147 0.0
N1606 N 0.36148 0.00096 0.70607 0.0
C1607 C 0.35789 0.98398 0.6995 0.0
H1608 H 0.37461 0.97457 0.69993 0.0
C1609 C 0.37491 0.0522 0.72438 0.0
N1610 N 0.37087 0.03541 0.71705 0.0
C1611 C 0.35421 0.06506 0.72281 0.0
C1612 C 0.32863 0.06061 0.71455 0.0
H1613 H 0.39414 0.05559 0.73181 0.0
H1614 H 0.27294 0.01691 0.68921 0.0
H1615 H 0.47956 0.03444 0.71898 0.0
H1616 H 0.2909 0.98627 0.68413 0.0
H1617 H 0.32987 0.96508 0.68637 0.0
H1618 H 0.28092 0.04758 0.69973 0.0
H1619 H 0.46582 0.95011 0.69648 0.0
H1620 H 0.56174 0.02544 0.74054 0.0
H1621 H 0.52275 0.04579 0.73361 0.0
H1622 H 0.57495 0.9632 0.73285 0.0
H1623 H 0.35778 0.07829 0.72843 0.0
H1624 H 0.31241 0.07054 0.71374 0.0
H1625 H 0.58096 0.99479 0.74007 0.0
H1626 H 0.50212 0.92867 0.70447 0.0
N1627 N 0.49349 0.00769 0.71786 0.0
C1628 C 0.54263 0.02027 0.73431 0.0
C1629 C 0.52067 0.03182 0.7304 0.0
C1630 C 0.5397 0.00221 0.73024 0.0
C1631 C 0.51441 0.99608 0.72211 0.0
C1632 C 0.49617 0.02531 0.72203 0.0
N1633 N 0.48635 0.97213 0.71029 0.0
C1634 C 0.51077 0.97796 0.71827 0.0
C1635 C 0.50465 0.9424 0.70877 0.0
C1636 C 0.52924 0.94806 0.71755 0.0
C1637 C 0.48371 0.95464 0.70478 0.0
C1638 C 0.53274 0.96598 0.72215 0.0
H1639 H 0.5457 0.93856 0.72023 0.0
O1640 O 0.4742 0.97849 0.67598 0.0
O1641 O 0.41215 0.00271 0.69386 0.0
O1642 O 0.39939 0.98142 0.73062 0.0
O1643 O 0.43684 0.97166 0.71177 0.0
O1644 O 0.43175 0.99261 0.6701 0.0
O1645 O 0.49454 0.0038 0.6826 0.0
O1646 O 0.38655 0.02613 0.75059 0.0
O1647 O 0.44473 0.00275 0.72966 0.0
O1648 O 0.45411 0.02466 0.68951 0.0
O1649 O 0.41598 0.03441 0.70776 0.0
O1650 O 0.42715 0.0142 0.75301 0.0
O1651 O 0.36402 0.00189 0.74233 0.0
C1652 C 0.40792 0.99912 0.67506 0.0
C1653 C 0.55789 0.97222 0.72998 0.0
C1654 C 0.56135 0.99023 0.73403 0.0
C1655 C 0.49592 0.98859 0.67333 0.0
C1656 C 0.5068 0.98883 0.65371 0.0
C1657 C 0.52966 0.97806 0.64916 0.0
C1658 C 0.49333 0.99868 0.63926 0.0
C1659 C 0.50263 0.99755 0.61999 0.0
C1660 C 0.53896 0.97699 0.62968 0.0
C1661 C 0.52525 0.98664 0.61507 0.0
C1662 C 0.4159 0.9688 0.72394 0.0
C1663 C 0.45001 0.0064 0.74823 0.0
C1664 C 0.36465 0.01619 0.75334 0.0
C1665 C 0.35326 0.01537 0.77311 0.0
C1666 C 0.3301 0.0259 0.77761 0.0
C1667 C 0.3654 0.00472 0.78755 0.0
C1668 C 0.35392 0.00429 0.80652 0.0
C1669 C 0.31882 0.02559 0.79662 0.0
C1670 C 0.33061 0.01474 0.81108 0.0
C1671 C 0.436 0.03712 0.69466 0.0
H1672 H 0.53982 0.97027 0.66056 0.0
H1673 H 0.47535 0.00673 0.64289 0.0
H1674 H 0.5563 0.96852 0.62587 0.0
H1675 H 0.5317 0.98542 0.59987 0.0
H1676 H 0.32089 0.03439 0.76643 0.0
H1677 H 0.38365 0.99687 0.78407 0.0
H1678 H 0.30108 0.03381 0.80018 0.0
H1679 H 0.32197 0.01478 0.82592 0.0
Gd1680 Gd 0.15093 0.98776 0.47575 0.0
Gd1681 Gd 0.20711 0.00311 0.44755 0.0
C1682 C 0.28977 0.99433 0.47726 0.0
C1683 C 0.30443 0.02434 0.48444 0.0
C1684 C 0.25739 0.01875 0.47229 0.0
C1685 C 0.26318 0.00056 0.47158 0.0
C1686 C 0.27826 0.03069 0.47875 0.0
C1687 C 0.31019 0.00626 0.48364 0.0
C1688 C 0.29543 0.97621 0.47608 0.0
C1689 C 0.27482 0.96464 0.46963 0.0
N1690 N 0.24347 0.98906 0.46472 0.0
C1691 C 0.24891 0.97128 0.46402 0.0
H1692 H 0.23399 0.96197 0.4587 0.0
C1693 C 0.22829 0.04289 0.46388 0.0
N1694 N 0.23251 0.0249 0.46534 0.0
C1695 C 0.24785 0.05496 0.47089 0.0
C1696 C 0.27293 0.04886 0.47838 0.0
H1697 H 0.21117 0.04843 0.4557 0.0
H1698 H 0.33069 0.00165 0.48784 0.0
H1699 H 0.11397 0.0244 0.46389 0.0
H1700 H 0.3156 0.971 0.48021 0.0
H1701 H 0.27897 0.95058 0.46878 0.0
H1702 H 0.32066 0.03339 0.4891 0.0
H1703 H 0.14949 0.94297 0.4827 0.0
H1704 H 0.0339 0.00803 0.44528 0.0
H1705 H 0.06695 0.03182 0.45374 0.0
H1706 H 0.03776 0.9453 0.44817 0.0
H1707 H 0.24413 0.06905 0.46949 0.0
H1708 H 0.28852 0.05834 0.48306 0.0
H1709 H 0.02372 0.976 0.44252 0.0
H1710 H 0.11736 0.91839 0.47692 0.0
N1711 N 0.10987 0.99667 0.45963 0.0
C1712 C 0.05511 0.00468 0.44918 0.0
C1713 C 0.07368 0.01815 0.45389 0.0
C1714 C 0.06385 0.98703 0.45014 0.0
C1715 C 0.0917 0.98323 0.45564 0.0
C1716 C 0.10095 0.01389 0.45911 0.0
N1717 N 0.12533 0.96209 0.46682 0.0
C1718 C 0.09971 0.96562 0.45901 0.0
C1719 C 0.1124 0.93146 0.47137 0.0
C1720 C 0.08682 0.9347 0.46255 0.0
C1721 C 0.13094 0.9454 0.47406 0.0
C1722 C 0.07992 0.95187 0.45667 0.0
H1723 H 0.07185 0.92404 0.46139 0.0
O1724 O 0.13742 0.97213 0.50085 0.0
O1725 O 0.19663 0.99517 0.47893 0.0
O1726 O 0.20064 0.975 0.43618 0.0
O1727 O 0.17173 0.96406 0.4608 0.0
O1728 O 0.17856 0.98669 0.50401 0.0
O1729 O 0.11674 0.99721 0.49367 0.0
O1730 O 0.22572 0.02357 0.42993 0.0
O1731 O 0.16072 0.99647 0.44368 0.0
O1732 O 0.15571 0.01731 0.4816 0.0
O1733 O 0.17901 0.02625 0.45337 0.0
O1734 O 0.18183 0.00361 0.41873 0.0
O1735 O 0.24271 0.99679 0.42945 0.0
C1736 C 0.20194 0.99287 0.49775 0.0
C1737 C 0.05301 0.95573 0.45 0.0
C1738 C 0.04499 0.97323 0.44681 0.0
C1739 C 0.11605 0.98247 0.50378 0.0
C1740 C 0.10327 0.98261 0.52308 0.0
C1741 C 0.07877 0.97292 0.52607 0.0
C1742 C 0.11575 0.99164 0.53863 0.0
C1743 C 0.10415 0.99054 0.55747 0.0
C1744 C 0.06695 0.97206 0.54492 0.0
C1745 C 0.07977 0.98074 0.56072 0.0
C1746 C 0.18639 0.96189 0.44438 0.0
C1747 C 0.15719 0.9989 0.42441 0.0
C1748 C 0.24509 0.01314 0.42326 0.0
C1749 C 0.25107 0.01557 0.40268 0.0
C1750 C 0.26694 0.03023 0.39684 0.0
C1751 C 0.2388 0.00444 0.3888 0.0
C1752 C 0.24171 0.00835 0.36896 0.0
C1753 C 0.26976 0.03413 0.37681 0.0
C1754 C 0.25684 0.02332 0.36288 0.0
C1755 C 0.16517 0.0298 0.46968 0.0
H1756 H 0.06907 0.96586 0.5139 0.0
H1757 H 0.13493 0.99891 0.53626 0.0
H1758 H 0.04819 0.96446 0.54734 0.0
H1759 H 0.07093 0.9797 0.57545 0.0
H1760 H 0.27636 0.03887 0.40777 0.0
H1761 H 0.22671 0.993 0.39334 0.0
H1762 H 0.28158 0.04558 0.37214 0.0
H1763 H 0.25877 0.02642 0.34734 0.0
Gd1764 Gd 0.61854 0.75822 0.47452 0.0
Gd1765 Gd 0.56147 0.74186 0.44692 0.0
C1766 C 0.47501 0.7534 0.47138 0.0
C1767 C 0.45489 0.72397 0.47315 0.0
C1768 C 0.50339 0.72778 0.4636 0.0
C1769 C 0.50053 0.74609 0.465 0.0
C1770 C 0.48052 0.71659 0.46778 0.0
C1771 C 0.45215 0.74231 0.47499 0.0
C1772 C 0.47343 0.77161 0.47475 0.0
C1773 C 0.49723 0.78194 0.47277 0.0
N1774 N 0.5231 0.75659 0.46162 0.0
C1775 C 0.52207 0.77415 0.46654 0.0
H1776 H 0.54025 0.78232 0.46627 0.0
C1777 C 0.53155 0.70288 0.45692 0.0
N1778 N 0.52867 0.72091 0.45892 0.0
C1779 C 0.50961 0.69139 0.46103 0.0
C1780 C 0.48397 0.69826 0.46654 0.0
H1781 H 0.55045 0.69704 0.4513 0.0
H1782 H 0.43239 0.74777 0.47967 0.0
H1783 H 0.64286 0.72023 0.45175 0.0
H1784 H 0.45425 0.7777 0.47969 0.0
H1785 H 0.49654 0.79592 0.47626 0.0
H1786 H 0.43715 0.71558 0.47627 0.0
H1787 H 0.6251 0.80323 0.4762 0.0
H1788 H 0.72997 0.7282 0.44466 0.0
H1789 H 0.68909 0.70837 0.44442 0.0
H1790 H 0.74092 0.79068 0.45261 0.0
H1791 H 0.51236 0.67723 0.45946 0.0
H1792 H 0.4669 0.6893 0.46958 0.0
H1793 H 0.74889 0.75894 0.44725 0.0
H1794 H 0.66197 0.82512 0.47127 0.0
N1795 N 0.65721 0.74634 0.45799 0.0
C1796 C 0.70966 0.73346 0.44829 0.0
C1797 C 0.68666 0.72221 0.44818 0.0
C1798 C 0.70593 0.75155 0.45202 0.0
C1799 C 0.679 0.75778 0.45665 0.0
C1800 C 0.6604 0.72896 0.45277 0.0
N1801 N 0.64845 0.78149 0.46468 0.0
C1802 C 0.67435 0.77583 0.45949 0.0
C1803 C 0.66559 0.81139 0.46746 0.0
C1804 C 0.69192 0.80583 0.46165 0.0
C1805 C 0.64431 0.79897 0.46948 0.0
C1806 C 0.69675 0.78787 0.45798 0.0
H1807 H 0.70862 0.81542 0.46071 0.0
O1808 O 0.62984 0.77554 0.49891 0.0
O1809 O 0.57301 0.74965 0.47833 0.0
O1810 O 0.56407 0.77073 0.43693 0.0
O1811 O 0.59926 0.78144 0.45763 0.0
O1812 O 0.5902 0.76122 0.50183 0.0
O1813 O 0.65175 0.75034 0.49424 0.0
O1814 O 0.55951 0.71994 0.42663 0.0
O1815 O 0.60773 0.74892 0.44312 0.0
O1816 O 0.61834 0.72915 0.48203 0.0
O1817 O 0.58197 0.71884 0.46265 0.0
O1818 O 0.5863 0.74524 0.41809 0.0
O1819 O 0.52778 0.74079 0.42589 0.0
C1820 C 0.56737 0.7535 0.49686 0.0
C1821 C 0.72352 0.78162 0.45361 0.0
C1822 C 0.72811 0.76353 0.4507 0.0
C1823 C 0.65065 0.76534 0.50393 0.0
C1824 C 0.66087 0.76583 0.5242 0.0
C1825 C 0.68357 0.77685 0.52841 0.0
C1826 C 0.64944 0.75514 0.53904 0.0
C1827 C 0.66123 0.75531 0.55803 0.0
C1828 C 0.69513 0.77706 0.54736 0.0
C1829 C 0.68411 0.76625 0.56214 0.0
C1830 C 0.58069 0.78364 0.44326 0.0
C1831 C 0.61132 0.74875 0.42366 0.0
C1832 C 0.53742 0.72622 0.41779 0.0
C1833 C 0.53863 0.72573 0.39633 0.0
C1834 C 0.54182 0.70939 0.38669 0.0
C1835 C 0.53735 0.74143 0.38541 0.0
C1836 C 0.5391 0.74076 0.36494 0.0
C1837 C 0.54389 0.70877 0.3661 0.0
C1838 C 0.54242 0.72442 0.3552 0.0
C1839 C 0.60215 0.71633 0.47557 0.0
H1840 H 0.69253 0.78515 0.51695 0.0
H1841 H 0.63183 0.74665 0.5358 0.0
H1842 H 0.71269 0.78555 0.55057 0.0
H1843 H 0.69321 0.76652 0.57684 0.0
H1844 H 0.54276 0.69717 0.3951 0.0
H1845 H 0.53439 0.75411 0.39266 0.0
H1846 H 0.54611 0.69619 0.35859 0.0
H1847 H 0.54269 0.72378 0.33915 0.0
Gd1848 Gd 0.15305 0.75739 0.32767 0.0
Gd1849 Gd 0.20957 0.74252 0.35466 0.0
C1850 C 0.29046 0.75309 0.32217 0.0
C1851 C 0.30624 0.72333 0.31482 0.0
C1852 C 0.2602 0.72805 0.3291 0.0
C1853 C 0.26514 0.7463 0.32966 0.0
C1854 C 0.28103 0.71649 0.32178 0.0
C1855 C 0.31088 0.74155 0.31491 0.0
C1856 C 0.29486 0.77136 0.32235 0.0
C1857 C 0.27432 0.7825 0.32973 0.0
N1858 N 0.24558 0.75738 0.33754 0.0
C1859 C 0.24984 0.77531 0.33735 0.0
H1860 H 0.23497 0.78443 0.34311 0.0
C1861 C 0.23214 0.70346 0.33753 0.0
N1862 N 0.23593 0.7215 0.3365 0.0
C1863 C 0.25207 0.69174 0.33038 0.0
C1864 C 0.27655 0.69823 0.32237 0.0
H1865 H 0.21526 0.69765 0.34563 0.0
H1866 H 0.33051 0.7466 0.30944 0.0
H1867 H 0.1249 0.72086 0.35074 0.0
H1868 H 0.31399 0.77701 0.31672 0.0
H1869 H 0.27748 0.79669 0.3298 0.0
H1870 H 0.32244 0.71459 0.30944 0.0
H1871 H 0.14828 0.80178 0.31961 0.0
H1872 H 0.0443 0.73502 0.37048 0.0
H1873 H 0.08094 0.7126 0.3657 0.0
H1874 H 0.03759 0.79666 0.35619 0.0
H1875 H 0.24905 0.67766 0.332 0.0
H1876 H 0.29226 0.68901 0.31728 0.0
H1877 H 0.02835 0.76614 0.36666 0.0
H1878 H 0.11395 0.82546 0.32471 0.0
N1879 N 0.11495 0.74819 0.34722 0.0
C1880 C 0.06403 0.73889 0.36407 0.0
C1881 C 0.08461 0.72621 0.36137 0.0
C1882 C 0.06908 0.75641 0.35844 0.0
C1883 C 0.09521 0.76086 0.35017 0.0
C1884 C 0.10984 0.73104 0.35272 0.0
N1885 N 0.12546 0.78233 0.33584 0.0
C1886 C 0.10063 0.7783 0.34447 0.0
C1887 C 0.11009 0.81235 0.33059 0.0
C1888 C 0.08499 0.80855 0.33989 0.0
C1889 C 0.12976 0.79896 0.32813 0.0
C1890 C 0.07975 0.79136 0.34662 0.0
H1891 H 0.06943 0.81886 0.34126 0.0
O1892 O 0.13777 0.77113 0.30166 0.0
O1893 O 0.19672 0.74595 0.32209 0.0
O1894 O 0.20372 0.77086 0.36574 0.0
O1895 O 0.17151 0.78147 0.34307 0.0
O1896 O 0.18515 0.76626 0.30403 0.0
O1897 O 0.1188 0.74594 0.31098 0.0
O1898 O 0.22627 0.72128 0.37205 0.0
O1899 O 0.164 0.7499 0.35929 0.0
O1900 O 0.1579 0.72805 0.32084 0.0
O1901 O 0.1818 0.71927 0.34878 0.0
O1902 O 0.18405 0.74101 0.38368 0.0
O1903 O 0.24533 0.74736 0.37344 0.0
C1904 C 0.20548 0.75534 0.3071 0.0
C1905 C 0.05385 0.78682 0.35469 0.0
C1906 C 0.04856 0.76943 0.36059 0.0
C1907 C 0.11715 0.76008 0.29989 0.0
C1908 C 0.10014 0.76026 0.28227 0.0
C1909 C 0.07639 0.77102 0.28158 0.0
C1910 C 0.10936 0.75153 0.26541 0.0
C1911 C 0.09535 0.75394 0.24755 0.0
C1912 C 0.06201 0.77314 0.26375 0.0
C1913 C 0.07162 0.76475 0.24665 0.0
C1914 C 0.18803 0.78377 0.3585 0.0
C1915 C 0.15989 0.74682 0.37824 0.0
C1916 C 0.24542 0.73105 0.38007 0.0
C1917 C 0.24799 0.72844 0.40122 0.0
C1918 C 0.25102 0.71112 0.4086 0.0
C1919 C 0.24469 0.74267 0.41415 0.0
C1920 C 0.24289 0.73944 0.43427 0.0
C1921 C 0.24899 0.70796 0.42886 0.0
C1922 C 0.24438 0.72208 0.44166 0.0
C1923 C 0.16782 0.71551 0.33253 0.0
H1924 H 0.06948 0.77811 0.29465 0.0
H1925 H 0.12829 0.74372 0.26595 0.0
H1926 H 0.04389 0.78161 0.26307 0.0
H1927 H 0.06087 0.76683 0.23272 0.0
H1928 H 0.25391 0.70004 0.39861 0.0
H1929 H 0.2431 0.75616 0.40872 0.0
H1930 H 0.25075 0.69462 0.43461 0.0
H1931 H 0.2426 0.71959 0.45737 0.0
Gd1932 Gd 0.61709 0.98893 0.32641 0.0
Gd1933 Gd 0.5605 0.00314 0.35513 0.0
C1934 C 0.48117 0.99494 0.32032 0.0
C1935 C 0.46404 0.02497 0.31686 0.0
C1936 C 0.50983 0.01966 0.33134 0.0
C1937 C 0.50599 0.00137 0.32897 0.0
C1938 C 0.48842 0.03149 0.32556 0.0
C1939 C 0.46047 0.0068 0.31419 0.0
C1940 C 0.47742 0.97666 0.31847 0.0
C1941 C 0.49799 0.96517 0.32518 0.0
N1942 N 0.52578 0.98986 0.3357 0.0
C1943 C 0.52206 0.97199 0.33384 0.0
H1944 H 0.53714 0.96276 0.33922 0.0
C1945 C 0.53478 0.0434 0.34574 0.0
N1946 N 0.53312 0.0258 0.34064 0.0
C1947 C 0.51449 0.05548 0.3399 0.0
C1948 C 0.49131 0.04954 0.32961 0.0
H1949 H 0.55043 0.04808 0.35583 0.0
H1950 H 0.44129 0.00201 0.3077 0.0
H1951 H 0.64858 0.02803 0.34124 0.0
H1952 H 0.45864 0.97128 0.31196 0.0
H1953 H 0.49521 0.951 0.32385 0.0
H1954 H 0.44746 0.03389 0.31253 0.0
H1955 H 0.62274 0.94381 0.32291 0.0
H1956 H 0.73221 0.0158 0.35463 0.0
H1957 H 0.69504 0.0377 0.34906 0.0
H1958 H 0.7365 0.95301 0.35212 0.0
H1959 H 0.51613 0.06926 0.3442 0.0
H1960 H 0.47514 0.0589 0.32566 0.0
H1961 H 0.74705 0.98447 0.35633 0.0
H1962 H 0.65787 0.92129 0.3286 0.0
N1963 N 0.65745 0.0003 0.34185 0.0
C1964 C 0.71137 0.0113 0.35119 0.0
C1965 C 0.69052 0.02369 0.34797 0.0
C1966 C 0.70514 0.99326 0.34999 0.0
C1967 C 0.67764 0.98794 0.34527 0.0
C1968 C 0.66367 0.01797 0.34344 0.0
N1969 N 0.64585 0.96494 0.33635 0.0
C1970 C 0.67159 0.96994 0.34281 0.0
C1971 C 0.66177 0.93475 0.3333 0.0
C1972 C 0.68757 0.93948 0.34083 0.0
C1973 C 0.64148 0.94765 0.33063 0.0
C1974 C 0.69305 0.95723 0.34515 0.0
H1975 H 0.7036 0.92948 0.34224 0.0
O1976 O 0.62885 0.97215 0.30162 0.0
O1977 O 0.57136 0.99618 0.32349 0.0
O1978 O 0.56808 0.97495 0.36577 0.0
O1979 O 0.59669 0.96475 0.34066 0.0
O1980 O 0.58912 0.98746 0.29838 0.0
O1981 O 0.65007 0.99763 0.30705 0.0
O1982 O 0.54196 0.02056 0.37665 0.0
O1983 O 0.60716 0.99706 0.35856 0.0
O1984 O 0.6116 0.01835 0.3201 0.0
O1985 O 0.58483 0.02739 0.34677 0.0
O1986 O 0.58671 0.00418 0.38366 0.0
O1987 O 0.52387 0.99456 0.37068 0.0
C1988 C 0.5659 0.9938 0.30467 0.0
C1989 C 0.71992 0.96261 0.35045 0.0
C1990 C 0.72596 0.98053 0.35278 0.0
C1991 C 0.64968 0.98259 0.29742 0.0
C1992 C 0.66388 0.98123 0.27859 0.0
C1993 C 0.68561 0.96902 0.27646 0.0
C1994 C 0.65627 0.99213 0.26287 0.0
C1995 C 0.67055 0.99093 0.24493 0.0
C1996 C 0.69995 0.96787 0.25852 0.0
C1997 C 0.69252 0.97886 0.24274 0.0
C1998 C 0.5825 0.96216 0.3572 0.0
C1999 C 0.61124 -0.00051 0.37774 0.0
C2000 C 0.52115 0.00982 0.3796 0.0
C2001 C 0.51062 0.0092 0.39935 0.0
C2002 C 0.48658 0.01882 0.40398 0.0
C2003 C 0.52479 -0.00047 0.41366 0.0
C2004 C 0.51482 -0.00043 0.43283 0.0
C2005 C 0.47672 0.01888 0.42334 0.0
C2006 C 0.49097 0.00934 0.43776 0.0
C2007 C 0.60001 0.03092 0.331 0.0
H2008 H 0.69149 0.96046 0.28867 0.0
H2009 H 0.63915 0.00138 0.26452 0.0
H2010 H 0.71665 0.95839 0.25682 0.0
H2011 H 0.70333 0.97764 0.22871 0.0
H2012 H 0.47577 0.0264 0.3927 0.0
H2013 H 0.54365 0.99236 0.41 0.0
H2014 H 0.45843 0.02648 0.42722 0.0
H2015 H 0.48403 0.00982 0.45289 0.0
Gd2016 Gd 0.81088 0.4949 0.10515 0.0
Gd2017 Gd 0.86795 0.51002 0.07712 0.0
C2018 C 0.95248 0.50772 0.10675 0.0
C2019 C 0.96742 0.53831 0.10471 0.0
C2020 C 0.9203 0.53024 0.09471 0.0
C2021 C 0.92601 0.51248 0.09923 0.0
C2022 C 0.9413 0.54318 0.09728 0.0
C2023 C 0.97296 0.52068 0.10947 0.0
C2024 C 0.95815 0.48992 0.11072 0.0
C2025 C 0.93792 0.47722 0.10704 0.0
N2026 N 0.90661 0.49977 0.0953 0.0
C2027 C 0.91233 0.48236 0.09921 0.0
H2028 H 0.89772 0.47214 0.09633 0.0
C2029 C 0.89096 0.5517 0.07976 0.0
N2030 N 0.8953 0.53471 0.08653 0.0
C2031 C 0.91083 0.56488 0.08261 0.0
C2032 C 0.93607 0.56063 0.09143 0.0
H2033 H 0.87217 0.55503 0.07175 0.0
H2034 H 0.99342 0.51714 0.1149 0.0
H2035 H 0.78489 0.53563 0.09144 0.0
H2036 H 0.9782 0.48582 0.11643 0.0
H2037 H 0.94213 0.46338 0.10999 0.0
H2038 H 0.98375 0.54807 0.10648 0.0
H2039 H 0.80765 0.44934 0.09676 0.0
H2040 H 0.70092 0.52616 0.07499 0.0
H2041 H 0.73858 0.54687 0.08393 0.0
H2042 H 0.69584 0.46359 0.06707 0.0
H2043 H 0.90696 0.57822 0.07742 0.0
H2044 H 0.95177 0.57082 0.09308 0.0
H2045 H 0.68553 0.49532 0.06832 0.0
H2046 H 0.77421 0.42849 0.0842 0.0
N2047 N 0.77415 0.50844 0.08799 0.0
C2048 C 0.7214 0.52105 0.07842 0.0
C2049 C 0.74256 0.53277 0.08353 0.0
C2050 C 0.72705 0.50291 0.07733 0.0
C2051 C 0.75404 0.49681 0.08215 0.0
C2052 C 0.76899 0.52624 0.08802 0.0
N2053 N 0.78533 0.47276 0.08782 0.0
C2054 C 0.75996 0.47867 0.08155 0.0
C2055 C 0.77018 0.44255 0.08284 0.0
C2056 C 0.74449 0.44844 0.07625 0.0
C2057 C 0.79001 0.45478 0.0891 0.0
C2058 C 0.73886 0.46657 0.07592 0.0
H2059 H 0.72874 0.43884 0.0722 0.0
O2060 O 0.79337 0.47427 0.12321 0.0
O2061 O 0.85689 0.50143 0.10842 0.0
O2062 O 0.86284 0.48075 0.07027 0.0
O2063 O 0.83887 0.472 0.09825 0.0
O2064 O 0.83748 0.49461 0.13393 0.0
O2065 O 0.7755 0.50082 0.12357 0.0
O2066 O 0.88049 0.52604 0.05213 0.0
O2067 O 0.8218 0.50321 0.07388 0.0
O2068 O 0.81554 0.52348 0.1155 0.0
O2069 O 0.84983 0.53358 0.09392 0.0
O2070 O 0.84036 0.51162 0.04897 0.0
O2071 O 0.90293 0.50141 0.05939 0.0
C2072 C 0.86172 0.49933 0.12742 0.0
C2073 C 0.71224 0.47276 0.07107 0.0
C2074 C 0.70633 0.49082 0.07186 0.0
C2075 C 0.77352 0.48444 0.12972 0.0
C2076 C 0.767 0.48203 0.15019 0.0
C2077 C 0.74868 0.46848 0.15577 0.0
C2078 C 0.78033 0.49243 0.16424 0.0
C2079 C 0.77594 0.48893 0.18401 0.0
C2080 C 0.74427 0.46503 0.17578 0.0
C2081 C 0.75819 0.47512 0.18992 0.0
C2082 C 0.85191 0.46832 0.08161 0.0
C2083 C 0.81676 0.50565 0.05502 0.0
C2084 C 0.90215 0.51602 0.04888 0.0
C2085 C 0.9148 0.51632 0.02941 0.0
C2086 C 0.93535 0.52903 1.02562 0.0
C2087 C 0.90655 0.50454 1.01462 0.0
C2088 C 0.91927 0.50533 0.996 0.0
C2089 C 0.94789 0.52989 1.00703 0.0
C2090 C 0.93995 0.51806 0.99224 0.0
C2091 C 0.83207 0.53613 0.10864 0.0
H2092 H 0.73832 0.46045 0.1447 0.0
H2093 H 0.79422 0.50305 0.15985 0.0
H2094 H 0.73037 0.45452 0.18031 0.0
H2095 H 0.75504 0.47238 0.20544 0.0
H2096 H 0.94158 0.53833 0.03703 0.0
H2097 H 0.89028 0.49493 1.01753 0.0
H2098 H 0.96357 0.53981 1.00405 0.0
H2099 H 0.94941 0.51912 0.97771 0.0
Gd2100 Gd 0.4609 0.75587 0.10682 0.0
Gd2101 Gd 0.40523 0.74088 0.07765 0.0
C2102 C 0.3166 0.74796 0.09678 0.0
C2103 C 0.29733 0.71899 0.08958 0.0
C2104 C 0.34739 0.72359 0.0884 0.0
C2105 C 0.34357 0.74133 0.09342 0.0
C2106 C 0.32419 0.71218 0.08699 0.0
C2107 C 0.29363 0.73694 0.09381 0.0
C2108 C 0.31342 0.76567 0.1024 0.0
C2109 C 0.33684 0.77611 0.10533 0.0
N2110 N 0.36593 0.75229 0.09411 0.0
C2111 C 0.36302 0.76919 0.10109 0.0
H2112 H 0.38053 0.77747 0.1039 0.0
C2113 C 0.37698 0.70086 0.07682 0.0
N2114 N 0.37331 0.71781 0.0836 0.0
C2115 C 0.35499 0.68881 0.07657 0.0
C2116 C 0.32841 0.6945 0.08162 0.0
H2117 H 0.39687 0.69672 0.07095 0.0
H2118 H 0.27292 0.74234 0.09426 0.0
H2119 H 0.48815 0.71416 0.09743 0.0
H2120 H 0.29311 0.77136 0.10487 0.0
H2121 H 0.33473 0.78962 0.11048 0.0
H2122 H 0.27924 0.71062 0.08764 0.0
H2123 H 0.46615 0.80083 0.09656 0.0
H2124 H 0.56947 0.72201 0.07499 0.0
H2125 H 0.53253 0.7022 0.0872 0.0
H2126 H 0.57548 0.7841 0.06385 0.0
H2127 H 0.35831 0.67537 0.07152 0.0
H2128 H 0.31113 0.68535 0.08052 0.0
H2129 H 0.58505 0.75234 0.06627 0.0
H2130 H 0.49928 0.82067 0.08196 0.0
N2131 N 0.4984 0.7412 0.09132 0.0
C2132 C 0.54962 0.72753 0.07939 0.0
C2133 C 0.52885 0.71632 0.08629 0.0
C2134 C 0.54441 0.74567 0.07787 0.0
C2135 C 0.51817 0.7523 0.08382 0.0
C2136 C 0.50331 0.72335 0.09214 0.0
N2137 N 0.4877 0.77683 0.0887 0.0
C2138 C 0.51257 0.7704 0.08222 0.0
C2139 C 0.50303 0.80658 0.08137 0.0
C2140 C 0.52809 0.80016 0.07425 0.0
C2141 C 0.48341 0.79486 0.08897 0.0
C2142 C 0.53337 0.78199 0.07491 0.0
H2143 H 0.54363 0.80941 0.06895 0.0
O2144 O 0.4759 0.77751 0.1245 0.0
O2145 O 0.41484 0.7488 0.10955 0.0
O2146 O 0.40994 0.77022 0.07114 0.0
O2147 O 0.43373 0.77894 0.09912 0.0
O2148 O 0.43349 0.75689 0.1348 0.0
O2149 O 0.49425 0.75131 0.12751 0.0
O2150 O 0.39664 0.7259 0.05146 0.0
O2151 O 0.45112 0.74793 0.07547 0.0
O2152 O 0.45429 0.72724 0.11707 0.0
O2153 O 0.42082 0.71673 0.09487 0.0
O2154 O 0.43495 0.73688 0.05109 0.0
O2155 O 0.37463 0.75146 0.05678 0.0
C2156 C 0.40954 0.75162 0.12843 0.0
C2157 C 0.55932 0.77532 0.06921 0.0
C2158 C 0.56482 0.75725 0.07068 0.0
C2159 C 0.49263 0.76743 0.13459 0.0
C2160 C 0.48994 0.76906 0.15598 0.0
C2161 C 0.48104 0.78506 0.16463 0.0
C2162 C 0.49481 0.75425 0.16783 0.0
C2163 C 0.48998 0.7552 0.18795 0.0
C2164 C 0.47633 0.78597 0.18499 0.0
C2165 C 0.48072 0.77103 0.19668 0.0
C2166 C 0.42055 0.78266 0.08254 0.0
C2167 C 0.45758 0.74406 0.05716 0.0
C2168 C 0.37772 0.73724 0.0458 0.0
C2169 C 0.36111 0.73342 0.02843 0.0
C2170 C 0.34927 0.71664 1.02565 0.0
C2171 C 0.36106 0.74577 1.01316 0.0
C2172 C 0.35121 0.74105 0.99442 0.0
C2173 C 0.33779 0.71221 1.00732 0.0
C2174 C 0.33911 0.72424 0.99163 0.0
C2175 C 0.43813 0.71435 0.11003 0.0
H2176 H 0.47745 0.79674 0.15566 0.0
H2177 H 0.50254 0.74197 0.16155 0.0
H2178 H 0.46955 0.79825 0.19169 0.0
H2179 H 0.47797 0.77195 0.21259 0.0
H2180 H 0.34961 0.70688 0.0374 0.0
H2181 H 0.37058 0.75862 1.01554 0.0
H2182 H 0.32897 0.69919 1.00502 0.0
H2183 H 0.3318 0.72008 0.97717 0.0
Gd2184 Gd 0.81004 0.75668 0.19642 0.0
Gd2185 Gd 0.86476 0.7417 0.22419 0.0
C2186 C 0.95356 0.74689 0.20373 0.0
C2187 C 0.97101 0.71707 0.20859 0.0
C2188 C 0.92191 0.72335 0.21355 0.0
C2189 C 0.92655 0.74102 0.20864 0.0
C2190 C 0.94425 0.71125 0.21365 0.0
C2191 C 0.97566 0.73483 0.2037 0.0
C2192 C 0.95747 0.76468 0.19857 0.0
C2193 C 0.93456 0.77595 0.19741 0.0
N2194 N 0.90469 0.75243 0.20839 0.0
C2195 C 0.90813 0.76947 0.20205 0.0
H2196 H 0.8906 0.77804 0.19999 0.0
C2197 C 0.8914 0.70131 0.22579 0.0
N2198 N 0.89594 0.71818 0.21901 0.0
C2199 C 0.91275 0.68878 0.22563 0.0
C2200 C 0.93927 0.69375 0.21945 0.0
H2201 H 0.87122 0.6976 0.23152 0.0
H2202 H 0.99637 0.73916 0.19976 0.0
H2203 H 0.78773 0.71508 0.21301 0.0
H2204 H 0.9779 0.76967 0.19478 0.0
H2205 H 0.93715 0.78954 0.19266 0.0
H2206 H 0.98828 0.70793 0.20865 0.0
H2207 H 0.79918 0.80164 0.20065 0.0
H2208 H 0.70442 0.72107 0.23248 0.0
H2209 H 0.74486 0.70214 0.22513 0.0
H2210 H 0.68873 0.78329 0.23106 0.0
H2211 H 0.90888 0.67541 0.23071 0.0
H2212 H 0.95593 0.68409 0.21972 0.0
H2213 H 0.68376 0.75115 0.23445 0.0
H2214 H 0.76197 0.82136 0.21019 0.0
N2215 N 0.7723 0.74167 0.21187 0.0
C2216 C 0.72336 0.727 0.2269 0.0
C2217 C 0.74607 0.71628 0.22264 0.0
C2218 C 0.72558 0.7453 0.22449 0.0
C2219 C 0.75082 0.75247 0.21733 0.0
C2220 C 0.77044 0.7238 0.21522 0.0
N2221 N 0.77864 0.77771 0.20996 0.0
C2222 C 0.75397 0.77083 0.21617 0.0
C2223 C 0.75955 0.80723 0.21232 0.0
C2224 C 0.7346 0.8004 0.21922 0.0
C2225 C 0.78113 0.79573 0.20745 0.0
C2226 C 0.73145 0.78209 0.22111 0.0
H2227 H 0.7177 0.80937 0.22268 0.0
O2228 O 0.80416 0.77804 0.17572 0.0
O2229 O 0.85581 0.74945 0.19222 0.0
O2230 O 0.86326 0.7708 0.23174 0.0
O2231 O 0.83299 0.78083 0.2078 0.0
O2232 O 0.8346 0.75442 0.16726 0.0
O2233 O 0.7743 0.75625 0.17717 0.0
O2234 O 0.87333 0.72769 0.2516 0.0
O2235 O 0.82112 0.75353 0.22936 0.0
O2236 O 0.8133 0.72744 0.18722 0.0
O2237 O 0.85273 0.71848 0.20454 0.0
O2238 O 0.82954 0.7302 0.2434 0.0
O2239 O 0.89552 0.75258 0.24431 0.0
C2240 C 0.85948 0.7505 0.17287 0.0
C2241 C 0.70619 0.77482 0.22743 0.0
C2242 C 0.70333 0.75652 0.22926 0.0
C2243 C 0.7812 0.77127 0.16879 0.0
C2244 C 0.77816 0.77236 0.14756 0.0
C2245 C 0.774 0.78897 0.13872 0.0
C2246 C 0.77951 0.75705 0.13607 0.0
C2247 C 0.77622 0.75837 0.11578 0.0
C2248 C 0.77112 0.79026 0.11823 0.0
C2249 C 0.77215 0.77497 0.10671 0.0
C2250 C 0.85011 0.78371 0.22267 0.0
C2251 C 0.81131 0.7428 0.24273 0.0
C2252 C 0.89311 0.73884 0.25592 0.0
C2253 C 0.90915 0.73723 0.27389 0.0
C2254 C 0.93366 0.72722 0.27437 0.0
C2255 C 0.89883 0.74504 0.291 0.0
C2256 C 0.91259 0.74255 0.30892 0.0
C2257 C 0.9477 0.7249 0.29233 0.0
C2258 C 0.93706 0.73242 0.30966 0.0
C2259 C 0.83234 0.71529 0.19184 0.0
H2260 H 0.77301 0.80087 0.14768 0.0
H2261 H 0.78276 0.74417 0.14282 0.0
H2262 H 0.76787 0.80303 0.11131 0.0
H2263 H 0.76943 0.77599 0.0908 0.0
H2264 H 0.94167 0.7211 0.26101 0.0
H2265 H 0.87969 0.75266 0.29049 0.0
H2266 H 0.9666 0.71715 0.29285 0.0
H2267 H 0.94793 0.73048 0.32357 0.0
Gd2268 Gd 0.45801 0.49334 0.19712 0.0
Gd2269 Gd 0.40083 0.51005 0.22465 0.0
C2270 C 0.31495 0.50502 0.19812 0.0
C2271 C 0.29762 0.53505 0.2013 0.0
C2272 C 0.34616 0.52855 0.20875 0.0
C2273 C 0.34136 0.51065 0.20476 0.0
C2274 C 0.32413 0.54085 0.20702 0.0
C2275 C 0.29307 0.51723 0.19677 0.0
C2276 C 0.31127 0.48727 0.19282 0.0
C2277 C 0.33375 0.47568 0.19366 0.0
N2278 N 0.36252 0.49883 0.20691 0.0
C2279 C 0.35934 0.4817 0.20072 0.0
H2280 H 0.37651 0.47261 0.20066 0.0
C2281 C 0.37645 0.55129 0.2197 0.0
N2282 N 0.37191 0.53386 0.21475 0.0
C2283 C 0.3554 0.56388 0.21781 0.0
C2284 C 0.3291 0.55864 0.21154 0.0
H2285 H 0.39603 0.55544 0.2261 0.0
H2286 H 0.27255 0.51303 0.19209 0.0
H2287 H 0.47929 0.53311 0.21742 0.0
H2288 H 0.29134 0.48249 0.18757 0.0
H2289 H 0.33138 0.46206 0.18897 0.0
H2290 H 0.28045 0.54429 0.20022 0.0
H2291 H 0.46785 0.4482 0.20123 0.0
H2292 H 0.56551 0.52798 0.23046 0.0
H2293 H 0.52336 0.54646 0.22754 0.0
H2294 H 0.58182 0.4658 0.22575 0.0
H2295 H 0.35924 0.57753 0.22185 0.0
H2296 H 0.31264 0.56839 0.21054 0.0
H2297 H 0.58705 0.49792 0.22971 0.0
H2298 H 0.50581 0.42806 0.20893 0.0
N2299 N 0.49628 0.50745 0.21241 0.0
C2300 C 0.5462 0.52205 0.22552 0.0
C2301 C 0.52249 0.53253 0.22385 0.0
C2302 C 0.54439 0.50389 0.22184 0.0
C2303 C 0.51872 0.49679 0.21546 0.0
C2304 C 0.4975 0.52493 0.21758 0.0
N2305 N 0.49011 0.47185 0.20902 0.0
C2306 C 0.51556 0.47852 0.21369 0.0
C2307 C 0.50878 0.44219 0.21067 0.0
C2308 C 0.53461 0.44886 0.21607 0.0
C2309 C 0.48692 0.45384 0.20686 0.0
C2310 C 0.53834 0.46716 0.21757 0.0
H2311 H 0.5516 0.43977 0.21887 0.0
O2312 O 0.46369 0.47213 0.17649 0.0
O2313 O 0.41217 0.50121 0.19363 0.0
O2314 O 0.39991 0.48082 0.23134 0.0
O2315 O 0.43779 0.47051 0.21333 0.0
O2316 O 0.43064 0.49241 0.16905 0.0
O2317 O 0.49108 0.4953 0.17556 0.0
O2318 O 0.39051 0.52772 0.24883 0.0
O2319 O 0.44639 0.50137 0.2284 0.0
O2320 O 0.45593 0.5224 0.18759 0.0
O2321 O 0.4193 0.5329 0.20702 0.0
O2322 O 0.42913 0.51239 0.25215 0.0
O2323 O 0.36674 0.50315 0.24401 0.0
C2324 C 0.40692 0.49829 0.17482 0.0
C2325 C 0.56415 0.47434 0.2229 0.0
C2326 C 0.56716 0.49263 0.22507 0.0
C2327 C 0.48423 0.48008 0.16749 0.0
C2328 C 0.48306 0.4791 0.14597 0.0
C2329 C 0.47536 0.46306 0.13688 0.0
C2330 C 0.48972 0.49386 0.1344 0.0
C2331 C 0.48832 0.49259 0.11393 0.0
C2332 C 0.47376 0.46191 0.11633 0.0
C2333 C 0.48022 0.47665 0.10485 0.0
C2334 C 0.41666 0.46802 0.22546 0.0
C2335 C 0.45201 0.50485 0.247 0.0
C2336 C 0.36883 0.51821 0.25359 0.0
C2337 C 0.35788 0.51945 0.27357 0.0
C2338 C 0.34027 0.53367 0.27807 0.0
C2339 C 0.3641 0.50674 0.28792 0.0
C2340 C 0.35234 0.50816 0.30684 0.0
C2341 C 0.32868 0.53515 0.29691 0.0
C2342 C 0.33462 0.52244 0.31127 0.0
C2343 C 0.43873 0.53518 0.19339 0.0
H2344 H 0.47057 0.45145 0.14569 0.0
H2345 H 0.49638 0.50619 0.14113 0.0
H2346 H 0.46792 0.44957 0.10931 0.0
H2347 H 0.47981 0.47551 0.08887 0.0
H2348 H 0.33544 0.5436 0.26697 0.0
H2349 H 0.37795 0.49585 0.2844 0.0
H2350 H 0.31521 0.5462 0.30041 0.0
H2351 H 0.32595 0.52402 0.32599 0.0
Gd2352 Gd 0.15097 0.48856 0.97607 0.0
Gd2353 Gd 0.20791 0.50412 0.9475 0.0
C2354 C 0.2919 0.49695 0.97635 0.0
C2355 C 0.30819 0.52721 0.97931 0.0
C2356 C 0.26089 0.52134 0.96792 0.0
C2357 C 0.26551 0.50309 0.97009 0.0
C2358 C 0.28262 0.53343 0.97221 0.0
C2359 C 0.31285 0.50907 0.98128 0.0
C2360 C 0.29705 0.47872 0.97665 0.0
C2361 C 0.27611 0.46697 0.97117 0.0
N2362 N 0.2453 0.49133 0.96466 0.0
C2363 C 0.25012 0.4735 0.96554 0.0
H2364 H 0.23433 0.46408 0.96174 0.0
C2365 C 0.23421 0.54461 0.95405 0.0
N2366 N 0.23658 0.52717 0.95977 0.0
C2367 C 0.25473 0.55696 0.95863 0.0
C2368 C 0.27891 0.5514 0.96798 0.0
H2369 H 0.21656 0.54914 0.94548 0.0
H2370 H 0.33311 0.50451 0.98612 0.0
H2371 H 0.12356 0.52587 0.95446 0.0
H2372 H 0.31715 0.47359 0.98105 0.0
H2373 H 0.27987 0.45284 0.97149 0.0
H2374 H 0.32497 0.53634 0.98257 0.0
H2375 H 0.14623 0.44364 0.98152 0.0
H2376 H 0.03884 0.5143 0.94205 0.0
H2377 H 0.07721 0.53584 0.94486 0.0
H2378 H 0.03169 0.45209 0.95258 0.0
H2379 H 0.25221 0.57069 0.95433 0.0
H2380 H 0.29518 0.56096 0.97097 0.0
H2381 H 0.02206 0.48336 0.94585 0.0
H2382 H 0.11047 0.42075 0.97718 0.0
N2383 N 0.11195 0.49891 0.9586 0.0
C2384 C 0.05931 0.5098 0.94649 0.0
C2385 C 0.08081 0.52201 0.94822 0.0
C2386 C 0.06446 0.49191 0.95039 0.0
C2387 C 0.09147 0.48665 0.95621 0.0
C2388 C 0.10715 0.51629 0.95409 0.0
N2389 N 0.12241 0.46415 0.96772 0.0
C2390 C 0.09689 0.46887 0.96064 0.0
C2391 C 0.1065 0.43414 0.97222 0.0
C2392 C 0.08063 0.43868 0.96455 0.0
C2393 C 0.12688 0.44714 0.97431 0.0
C2394 C 0.0753 0.45623 0.95913 0.0
H2395 H 0.06455 0.42867 0.96356 0.0
O2396 O 0.13952 0.47279 1.00182 0.0
O2397 O 0.19728 0.49546 0.97885 0.0
O2398 O 0.20285 0.47532 0.93788 0.0
O2399 O 0.16744 0.46517 0.95852 0.0
O2400 O 0.1794 0.48644 1.00369 0.0
O2401 O 0.11779 0.49791 0.99477 0.0
O2402 O 0.22097 0.52191 0.92434 0.0
O2403 O 0.16169 0.49778 0.94483 0.0
O2404 O 0.15239 0.51785 0.98235 0.0
O2405 O 0.18726 0.52797 0.9614 0.0
O2406 O 0.18011 0.50569 0.91946 0.0
O2407 O 0.24382 0.49731 0.92999 0.0
C2408 C 0.20275 0.49272 0.99765 0.0
C2409 C 0.04856 0.46156 0.95337 0.0
C2410 C 0.0431 0.47936 0.94935 0.0
C2411 C 0.11878 0.48348 1.00553 0.0
C2412 C 0.10368 0.48267 1.02408 0.0
C2413 C 0.08387 0.46931 0.02686 0.0
C2414 C 0.10883 0.49503 0.03898 0.0
C2415 C 0.09414 0.49406 0.05683 0.0
C2416 C 0.06898 0.46842 0.04456 0.0
C2417 C 0.07404 0.48075 0.05953 0.0
C2418 C 0.18578 0.46273 0.94419 0.0
C2419 C 0.15627 0.50045 0.92598 0.0
C2420 C 0.24308 0.51246 0.9206 0.0
C2421 C 0.25275 0.5126 0.90053 0.0
C2422 C 0.27175 0.52572 0.89483 0.0
C2423 C 0.24255 0.50036 0.88694 0.0
C2424 C 0.25113 0.5015 0.86739 0.0
C2425 C 0.28016 0.52688 0.87517 0.0
C2426 C 0.26955 0.51494 0.86141 0.0
C2427 C 0.16786 0.53062 0.97489 0.0
H2428 H 0.07993 0.45963 1.01533 0.0
H2429 H 0.12452 0.50517 0.03681 0.0
H2430 H 0.05378 0.45804 0.04677 0.0
H2431 H 0.06295 0.47954 0.07345 0.0
H2432 H 0.27958 0.53523 0.90551 0.0
H2433 H 0.22757 0.49039 0.89141 0.0
H2434 H 0.29434 0.5372 0.87052 0.0
H2435 H 0.27495 0.51645 0.84601 0.0
Gd2436 Gd 0.61669 0.25867 0.97572 0.0
Gd2437 Gd 0.56151 0.2436 0.94672 0.0
C2438 C 0.47606 0.25057 0.97146 0.0
C2439 C 0.46092 0.22022 0.97593 0.0
C2440 C 0.50934 0.22647 0.96761 0.0
C2441 C 0.50344 0.24464 0.96761 0.0
C2442 C 0.48792 0.2142 0.97196 0.0
C2443 C 0.45497 0.2383 0.97552 0.0
C2444 C 0.47058 0.26877 0.97122 0.0
C2445 C 0.4922 0.28066 0.96781 0.0
N2446 N 0.52402 0.25649 0.96335 0.0
C2447 C 0.51889 0.27429 0.96389 0.0
H2448 H 0.53484 0.28376 0.96081 0.0
C2449 C 0.53995 0.20286 0.96008 0.0
N2450 N 0.5351 0.22076 0.96197 0.0
C2451 C 0.51985 0.19043 0.96533 0.0
C2452 C 0.49371 0.19609 0.97126 0.0
H2453 H 0.55815 0.19771 0.95284 0.0
H2454 H 0.43391 0.24268 0.9784 0.0
H2455 H 0.6513 0.2199 0.96547 0.0
H2456 H 0.44987 0.27378 0.97406 0.0
H2457 H 0.48825 0.29477 0.96792 0.0
H2458 H 0.44429 0.21093 0.97895 0.0
H2459 H 0.62101 0.30405 0.97809 0.0
H2460 H 0.73211 0.23331 0.94625 0.0
H2461 H 0.69732 0.21091 0.95565 0.0
H2462 H 0.73278 0.29609 0.94511 0.0
H2463 H 0.52406 0.17642 0.96368 0.0
H2464 H 0.47778 0.18636 0.97446 0.0
H2465 H 0.74476 0.26477 0.94202 0.0
H2466 H 0.65429 0.32712 0.96973 0.0
N2467 N 0.65717 0.24755 0.96024 0.0
C2468 C 0.7112 0.23745 0.94999 0.0
C2469 C 0.69165 0.22478 0.95525 0.0
C2470 C 0.7038 0.25534 0.95008 0.0
C2471 C 0.67628 0.26022 0.95534 0.0
C2472 C 0.66482 0.23005 0.9604 0.0
N2473 N 0.64398 0.28292 0.96445 0.0
C2474 C 0.66944 0.27819 0.95723 0.0
C2475 C 0.65859 0.31352 0.96567 0.0
C2476 C 0.68402 0.30901 0.95742 0.0
C2477 C 0.63927 0.30029 0.96975 0.0
C2478 C 0.69008 0.29124 0.95366 0.0
H2479 H 0.6994 0.31926 0.95498 0.0
O2480 O 0.62987 0.27601 0.9996 0.0
O2481 O 0.5704 0.25167 0.97895 0.0
O2482 O 0.5687 0.27174 0.93589 0.0
O2483 O 0.59417 0.28248 0.96229 0.0
O2484 O 0.58996 0.25971 1.0039 0.0
O2485 O 0.65028 0.25036 0.99478 0.0
O2486 O 0.54318 0.22443 0.92682 0.0
O2487 O 0.60782 0.25026 0.94368 0.0
O2488 O 0.61003 0.2293 0.98249 0.0
O2489 O 0.58916 0.22055 0.95333 0.0
O2490 O 0.5879 0.24289 0.91837 0.0
O2491 O 0.52749 0.25157 0.92805 0.0
C2492 C 0.56602 0.25407 0.99807 0.0
C2493 C 0.71683 0.28623 0.9477 0.0
C2494 C 0.72368 0.26838 0.94597 0.0
C2495 C 0.65054 0.26554 1.00409 0.0
C2496 C 0.6621 0.26614 1.02389 0.0
C2497 C 0.6831 0.2785 0.0279 0.0
C2498 C 0.65352 0.25423 0.03844 0.0
C2499 C 0.66637 0.25452 0.05701 0.0
C2500 C 0.69576 0.27886 0.04647 0.0
C2501 C 0.68753 0.26685 0.06101 0.0
C2502 C 0.58171 0.28481 0.94499 0.0
C2503 C 0.61216 0.24782 0.92458 0.0
C2504 C 0.52447 0.23568 0.92069 0.0
C2505 C 0.517 0.23469 0.90009 0.0
C2506 C 0.49684 0.22237 0.89418 0.0
C2507 C 0.52949 0.24596 0.88638 0.0
C2508 C 0.52193 0.24472 0.86662 0.0
C2509 C 0.48944 0.2211 0.87429 0.0
C2510 C 0.50218 0.23213 0.86048 0.0
C2511 C 0.60094 0.21679 0.97038 0.0
H2512 H 0.68982 0.28776 1.01658 0.0
H2513 H 0.6371 0.24478 0.03533 0.0
H2514 H 0.7119 0.28844 0.0496 0.0
H2515 H 0.6972 0.26744 0.07552 0.0
H2516 H 0.48703 0.21372 0.90493 0.0
H2517 H 0.54516 0.25545 0.89098 0.0
H2518 H 0.47415 0.21147 0.86956 0.0
H2519 H 0.49708 0.23066 0.84497 0.0
Gd2520 Gd 0.15407 0.2571 0.82743 0.0
Gd2521 Gd 0.20981 0.244 0.85567 0.0
C2522 C 0.2905 0.25091 0.82204 0.0
C2523 C 0.30685 0.22061 0.81952 0.0
C2524 C 0.26095 0.22673 0.83333 0.0
C2525 C 0.26553 0.24494 0.83084 0.0
C2526 C 0.2819 0.21452 0.82777 0.0
C2527 C 0.31106 0.2387 0.81656 0.0
C2528 C 0.29424 0.26905 0.81894 0.0
C2529 C 0.27346 0.28087 0.82452 0.0
N2530 N 0.2458 0.25679 0.83685 0.0
C2531 C 0.2494 0.27455 0.83365 0.0
H2532 H 0.23374 0.28403 0.83764 0.0
C2533 C 0.23321 0.2032 0.84549 0.0
N2534 N 0.23664 0.22094 0.84154 0.0
C2535 C 0.25329 0.19085 0.84009 0.0
C2536 C 0.27766 0.19647 0.83109 0.0
H2537 H 0.21624 0.19833 0.85436 0.0
H2538 H 0.33043 0.24313 0.81004 0.0
H2539 H 0.1223 0.2197 0.84537 0.0
H2540 H 0.31304 0.27406 0.81211 0.0
H2541 H 0.27608 0.29491 0.82195 0.0
H2542 H 0.32311 0.2114 0.81538 0.0
H2543 H 0.14827 0.30076 0.81768 0.0
H2544 H 0.03988 0.23318 0.86131 0.0
H2545 H 0.07671 0.21084 0.85685 0.0
H2546 H 0.03476 0.29533 0.84977 0.0
H2547 H 0.25042 0.17706 0.8437 0.0
H2548 H 0.29342 0.1868 0.82729 0.0
H2549 H 0.02431 0.26437 0.85759 0.0
H2550 H 0.11337 0.32449 0.82155 0.0
N2551 N 0.11314 0.24725 0.84336 0.0
C2552 C 0.06034 0.2373 0.85641 0.0
C2553 C 0.081 0.22466 0.85385 0.0
C2554 C 0.06613 0.25505 0.85228 0.0
C2555 C 0.0931 0.25979 0.84581 0.0
C2556 C 0.10728 0.22987 0.84731 0.0
N2557 N 0.12405 0.28134 0.83274 0.0
C2558 C 0.09879 0.27726 0.84058 0.0
C2559 C 0.10908 0.31132 0.82709 0.0
C2560 C 0.0835 0.30753 0.83578 0.0
C2561 C 0.12883 0.29789 0.82508 0.0
C2562 C 0.07778 0.29028 0.84212 0.0
H2563 H 0.06793 0.31786 0.83684 0.0
O2564 O 0.14577 0.26926 0.79924 0.0
O2565 O 0.19824 0.24605 0.82241 0.0
O2566 O 0.20566 0.27317 0.86341 0.0
O2567 O 0.16564 0.28093 0.84636 0.0
O2568 O 0.18815 0.26884 0.80746 0.0
O2569 O 0.12426 0.24453 0.80759 0.0
O2570 O 0.2282 0.22601 0.87684 0.0
O2571 O 0.16384 0.2501 0.85925 0.0
O2572 O 0.16086 0.22766 0.82219 0.0
O2573 O 0.18318 0.21999 0.85105 0.0
O2574 O 0.1838 0.24453 0.88478 0.0
O2575 O 0.2463 0.25209 0.87171 0.0
C2576 C 0.20673 0.25643 0.80815 0.0
C2577 C 0.05122 0.28557 0.84887 0.0
C2578 C 0.04532 0.26797 0.85358 0.0
C2579 C 0.12819 0.25689 0.79436 0.0
C2580 C 0.10794 0.26043 0.77896 0.0
C2581 C 0.09311 0.27636 0.77751 0.0
C2582 C 0.10817 0.24858 0.76326 0.0
C2583 C 0.09619 0.25312 0.74519 0.0
C2584 C 0.07892 0.28034 0.75991 0.0
C2585 C 0.08083 0.26891 0.74361 0.0
C2586 C 0.18623 0.28479 0.85859 0.0
C2587 C 0.15919 0.24845 0.87833 0.0
C2588 C 0.24908 0.23663 0.88013 0.0
C2589 C 0.25982 0.23688 0.89988 0.0
C2590 C 0.28541 0.22879 0.90394 0.0
C2591 C 0.24442 0.24491 0.91471 0.0
C2592 C 0.25432 0.24443 0.9339 0.0
C2593 C 0.29561 0.22868 0.92327 0.0
C2594 C 0.28001 0.23645 0.93833 0.0
C2595 C 0.17031 0.21557 0.83459 0.0
H2596 H 0.09325 0.28584 0.78956 0.0
H2597 H 0.12023 0.23646 0.76449 0.0
H2598 H 0.06769 0.29271 0.75855 0.0
H2599 H 0.07164 0.27281 0.7296 0.0
H2600 H 0.29727 0.2225 0.89223 0.0
H2601 H 0.2244 0.25087 0.91149 0.0
H2602 H 0.31522 0.22232 0.92662 0.0
H2603 H 0.28748 0.23581 0.95348 0.0
Gd2604 Gd 0.61905 0.48825 0.82733 0.0
Gd2605 Gd 0.56159 0.5047 0.85495 0.0
C2606 C 0.47394 0.49382 0.83299 0.0
C2607 C 0.45566 0.52347 0.82858 0.0
C2608 C 0.50466 0.51915 0.83673 0.0
C2609 C 0.50054 0.50089 0.83725 0.0
C2610 C 0.48203 0.53055 0.83245 0.0
C2611 C 0.45162 0.50518 0.82886 0.0
C2612 C 0.47056 0.47546 0.83257 0.0
C2613 C 0.49352 0.46456 0.83553 0.0
N2614 N 0.52238 0.49001 0.84157 0.0
C2615 C 0.51939 0.47206 0.83979 0.0
H2616 H 0.53659 0.46321 0.84124 0.0
C2617 C 0.53345 0.54387 0.84289 0.0
N2618 N 0.53018 0.52581 0.84127 0.0
C2619 C 0.51196 0.55552 0.83819 0.0
C2620 C 0.48615 0.54885 0.83286 0.0
H2621 H 0.55216 0.54967 0.84888 0.0
H2622 H 0.43112 0.49993 0.82574 0.0
H2623 H 0.64278 0.52519 0.85269 0.0
H2624 H 0.45054 0.46957 0.8293 0.0
H2625 H 0.49135 0.45033 0.83444 0.0
H2626 H 0.43815 0.53207 0.82548 0.0
H2627 H 0.62519 0.44321 0.82433 0.0
H2628 H 0.72826 0.51578 0.8652 0.0
H2629 H 0.68781 0.53591 0.86443 0.0
H2630 H 0.7397 0.4541 0.85215 0.0
H2631 H 0.51508 0.56968 0.83945 0.0
H2632 H 0.46928 0.55795 0.82976 0.0
H2633 H 0.74737 0.48535 0.86046 0.0
H2634 H 0.66155 0.42099 0.82921 0.0
N2635 N 0.65737 0.49936 0.84532 0.0
C2636 C 0.70845 0.51099 0.85976 0.0
C2637 C 0.68572 0.5224 0.85928 0.0
C2638 C 0.70507 0.49333 0.85404 0.0
C2639 C 0.67878 0.48769 0.84712 0.0
C2640 C 0.6602 0.51632 0.85215 0.0
N2641 N 0.64846 0.46454 0.83689 0.0
C2642 C 0.67414 0.46983 0.84303 0.0
C2643 C 0.66522 0.43459 0.83356 0.0
C2644 C 0.69133 0.43978 0.84024 0.0
C2645 C 0.64423 0.44719 0.83152 0.0
C2646 C 0.69616 0.45754 0.84491 0.0
H2647 H 0.70783 0.43007 0.84128 0.0
O2648 O 0.62842 0.47061 0.80296 0.0
O2649 O 0.57299 0.49592 0.82401 0.0
O2650 O 0.5665 0.47607 0.86571 0.0
O2651 O 0.59925 0.46487 0.84346 0.0
O2652 O 0.59177 0.48826 0.79912 0.0
O2653 O 0.65311 0.49479 0.80773 0.0
O2654 O 0.55592 0.52652 0.87491 0.0
O2655 O 0.60751 0.49702 0.85856 0.0
O2656 O 0.62062 0.51755 0.82111 0.0
O2657 O 0.5827 0.52751 0.8392 0.0
O2658 O 0.58816 0.50542 0.88315 0.0
O2659 O 0.52822 0.5035 0.87627 0.0
C2660 C 0.56799 0.4939 0.80509 0.0
C2661 C 0.72256 0.46334 0.85091 0.0
C2662 C 0.72698 0.48116 0.85551 0.0
C2663 C 0.65028 0.47988 0.79799 0.0
C2664 C 0.66031 0.47875 0.77772 0.0
C2665 C 0.6765 0.46403 0.77256 0.0
C2666 C 0.65453 0.49189 0.76371 0.0
C2667 C 0.66522 0.49033 0.74445 0.0
C2668 C 0.68701 0.46241 0.75344 0.0
C2669 C 0.68142 0.47546 0.73941 0.0
C2670 C 0.5821 0.46291 0.85871 0.0
C2671 C 0.61211 0.4998 0.87753 0.0
C2672 C 0.53552 0.5187 0.88419 0.0
C2673 C 0.53777 0.51937 0.90563 0.0
C2674 C 0.54156 0.53582 0.91495 0.0
C2675 C 0.53727 0.50378 0.9168 0.0
C2676 C 0.54026 0.5047 0.93719 0.0
C2677 C 0.54478 0.53667 0.93543 0.0
C2678 C 0.54387 0.52116 0.94655 0.0
C2679 C 0.60385 0.53024 0.82717 0.0
H2680 H 0.68102 0.4538 0.78338 0.0
H2681 H 0.64189 0.50321 0.76778 0.0
H2682 H 0.69935 0.45097 0.74945 0.0
H2683 H 0.68924 0.47371 0.72448 0.0
H2684 H 0.54206 0.54796 0.90637 0.0
H2685 H 0.53398 0.491 0.90984 0.0
H2686 H 0.54736 0.54934 0.94271 0.0
H2687 H 0.54464 0.52202 0.96249 0.0
H2688 H 0.41571 0.80044 0.04696 0.0
H2689 H 0.40537 0.83221 0.04217 0.0
H2690 H 0.39854 0.83878 0.10548 0.0
H2691 H 0.40928 0.80753 0.11031 0.0
H2692 H 0.35271 0.85174 0.0835 0.0
H2693 H 0.45289 0.85587 0.08589 0.0
H2694 H 0.50176 0.85151 0.076 0.0
H2695 H 0.48333 0.87084 1.01761 0.0
H2696 H 0.43445 0.8757 0.02727 0.0
H2697 H 0.35304 0.94098 0.11003 0.0
H2698 H 0.3632 0.90976 0.10496 0.0
H2699 H 0.3774 0.91948 0.04276 0.0
H2700 H 0.36738 0.95116 0.04785 0.0
H2701 H 0.4168 0.89784 0.05798 0.0
H2702 H 0.31668 0.89572 0.05711 0.0
H2703 H 0.26851 0.90083 0.06818 0.0
H2704 H 0.28766 0.87805 0.12492 0.0
H2705 H 0.33572 0.87227 0.11393 0.0
C2706 C 0.41191 0.80872 0.05978 0.0
C2707 C 0.41315 0.80149 0.07899 0.0
C2708 C 0.40631 0.82686 0.05706 0.0
C2709 C 0.40136 0.83789 0.0735 0.0
C2710 C 0.40243 0.83057 0.0926 0.0
C2711 C 0.40849 0.81267 0.09532 0.0
C2712 C 0.39315 0.85678 0.07116 0.0
C2713 C 0.36678 0.86182 0.07793 0.0
C2714 C 0.41115 0.86989 0.06342 0.0
C2715 C 0.43991 0.86578 0.05717 0.0
C2716 C 0.45914 0.85888 0.07083 0.0
C2717 C 0.48687 0.85642 0.06531 0.0
C2718 C 0.49554 0.86061 0.04611 0.0
C2719 C 0.47654 0.86745 0.03243 0.0
C2720 C 0.44886 0.87014 0.03794 0.0
C2721 C 0.35814 0.93652 0.0952 0.0
C2722 C 0.35909 0.94856 0.07928 0.0
C2723 C 0.3638 0.91858 0.0923 0.0
C2724 C 0.37039 0.91209 0.07338 0.0
C2725 C 0.37209 0.92413 0.05748 0.0
C2726 C 0.36648 0.94222 0.0604 0.0
C2727 C 0.37653 0.89285 0.07072 0.0
C2728 C 0.40247 0.88772 0.06308 0.0
C2729 C 0.35823 0.87958 0.07778 0.0
C2730 C 0.3298 0.88373 0.08476 0.0
C2731 C 0.31065 0.89192 0.07199 0.0
C2732 C 0.28333 0.89482 0.07821 0.0
C2733 C 0.27509 0.88994 0.09732 0.0
C2734 C 0.29408 0.8819 0.11016 0.0
C2735 C 0.32129 0.87867 0.10388 0.0
H2736 H 0.25397 0.89232 0.10214 0.0
H2737 H 0.51704 0.85871 0.04189 0.0
H2738 H 0.86847 0.44379 0.10846 0.0
H2739 H 0.87797 0.41233 0.10298 0.0
H2740 H 0.85822 0.41837 0.041 0.0
H2741 H 0.84954 0.45026 0.04632 0.0
H2742 H 0.83326 0.38559 0.06804 0.0
H2743 H 0.91589 0.41529 0.04331 0.0
H2744 H 0.95232 0.43804 0.04659 0.0
H2745 H 0.98095 0.41364 0.10038 0.0
H2746 H 0.94416 0.391 0.09769 0.0
H2747 H 0.89467 0.29872 0.04796 0.0
H2748 H 0.8832 0.33022 0.04278 0.0
H2749 H 0.91048 0.34209 0.10217 0.0
H2750 H 0.92065 0.31098 0.10779 0.0
H2751 H 0.93172 0.36601 0.0705 0.0
H2752 H 0.84918 0.34164 0.10016 0.0
H2753 H 0.81188 0.31935 0.10249 0.0
H2754 H 0.78339 0.33348 0.04423 0.0
H2755 H 0.82087 0.35572 0.04147 0.0
C2756 C 0.8663 0.43844 0.09363 0.0
C2757 C 0.85869 0.44949 0.07774 0.0
C2758 C 0.87154 0.42046 0.09056 0.0
C2759 C 0.86867 0.41301 0.07162 0.0
C2760 C 0.86047 0.42388 0.05574 0.0
C2761 C 0.85586 0.44208 0.05873 0.0
C2762 C 0.87601 0.39408 0.0686 0.0
C2763 C 0.85478 0.38132 0.06793 0.0
C2764 C 0.90406 0.38849 0.06925 0.0
C2765 C 0.9271 0.40153 0.07038 0.0
C2766 C 0.92982 0.41484 0.05591 0.0
C2767 C 0.95053 0.42773 0.05767 0.0
C2768 C 0.9689 0.42732 0.07372 0.0
C2769 C 0.96668 0.41396 0.08797 0.0
C2770 C 0.9459 0.40109 0.08633 0.0
C2771 C 0.89807 0.30805 0.05992 0.0
C2772 C 0.90896 0.30228 0.07819 0.0
C2773 C 0.89171 0.32603 0.0569 0.0
C2774 C 0.89645 0.33852 0.07201 0.0
C2775 C 0.90715 0.33276 0.0902 0.0
C2776 C 0.9129 0.31488 0.09336 0.0
C2777 C 0.889 0.35752 0.06956 0.0
C2778 C 0.91022 0.37028 0.06969 0.0
C2779 C 0.86098 0.36311 0.06876 0.0
C2780 C 0.83795 0.35019 0.07052 0.0
C2781 C 0.83506 0.33991 0.0878 0.0
C2782 C 0.8139 0.3273 0.08921 0.0
C2783 C 0.79533 0.32496 0.07349 0.0
C2784 C 0.79783 0.3353 0.05638 0.0
C2785 C 0.81901 0.34792 0.05488 0.0
H2786 H 0.77897 0.31517 0.07459 0.0
H2787 H 0.98488 0.43733 0.07508 0.0
H2788 H 0.4524 0.44101 0.23449 0.0
H2789 H 0.44184 0.40938 0.23598 0.0
H2790 H 0.35447 0.42115 0.2304 0.0
H2791 H 0.36512 0.4528 0.22867 0.0
H2792 H 0.36168 0.39588 0.25632 0.0
H2793 H 0.39478 0.40688 0.19082 0.0
H2794 H 0.42698 0.41669 0.16462 0.0
H2795 H 0.48785 0.37914 0.18461 0.0
H2796 H 0.45628 0.36937 0.21124 0.0
H2797 H 0.31541 0.31005 0.22846 0.0
H2798 H 0.32669 0.34141 0.23059 0.0
H2799 H 0.41371 0.32833 0.23543 0.0
H2800 H 0.40246 0.29687 0.23175 0.0
H2801 H 0.40733 0.35423 0.20977 0.0
H2802 H 0.37161 0.34322 0.27548 0.0
H2803 H 0.33711 0.33355 0.30026 0.0
H2804 H 0.27846 0.37139 0.27769 0.0
H2805 H 0.3124 0.38107 0.25255 0.0
C2806 C 0.43101 0.43684 0.23325 0.0
C2807 C 0.40975 0.44938 0.23053 0.0
C2808 C 0.42495 0.41873 0.23423 0.0
C2809 C 0.3974 0.41276 0.23263 0.0
C2810 C 0.37594 0.42537 0.23135 0.0
C2811 C 0.38205 0.4435 0.23041 0.0
C2812 C 0.39092 0.39342 0.23237 0.0
C2813 C 0.37147 0.38681 0.24599 0.0
C2814 C 0.40401 0.38146 0.21909 0.0
C2815 C 0.42326 0.38757 0.20326 0.0
C2816 C 0.41516 0.40087 0.18982 0.0
C2817 C 0.4333 0.4064 0.17485 0.0
C2818 C 0.45949 0.3986 0.173 0.0
C2819 C 0.4676 0.38523 0.18611 0.0
C2820 C 0.4496 0.3797 0.20116 0.0
C2821 C 0.33696 0.31383 0.22945 0.0
C2822 C 0.35802 0.30094 0.229 0.0
C2823 C 0.34341 0.33182 0.23118 0.0
C2824 C 0.37113 0.33739 0.23318 0.0
C2825 C 0.39217 0.32446 0.23374 0.0
C2826 C 0.38568 0.30643 0.23178 0.0
C2827 C 0.37824 0.35666 0.23386 0.0
C2828 C 0.39774 0.36328 0.22022 0.0
C2829 C 0.36493 0.36867 0.24694 0.0
C2830 C 0.34449 0.36276 0.26201 0.0
C2831 C 0.35128 0.34937 0.27569 0.0
C2832 C 0.33182 0.3439 0.28981 0.0
C2833 C 0.3056 0.35182 0.29052 0.0
C2834 C 0.29877 0.36524 0.27711 0.0
C2835 C 0.3181 0.37073 0.26293 0.0
H2836 H 0.29058 0.34759 0.30148 0.0
H2837 H 0.47346 0.40287 0.16137 0.0
H2838 H 0.81434 0.8096 0.23496 0.0
H2839 H 0.82403 0.8412 0.23875 0.0
H2840 H 0.91073 0.83132 0.22661 0.0
H2841 H 0.9011 0.79978 0.22382 0.0
H2842 H 0.90902 0.8543 0.25256 0.0
H2843 H 0.85916 0.84841 0.19124 0.0
H2844 H 0.82008 0.84035 0.16935 0.0
H2845 H 0.76622 0.87536 0.20155 0.0
H2846 H 0.80482 0.88337 0.2239 0.0
H2847 H 0.95236 0.94044 0.22732 0.0
H2848 H 0.93972 0.90948 0.22803 0.0
H2849 H 0.85486 0.92396 0.24102 0.0
H2850 H 0.86707 0.95528 0.2372 0.0
H2851 H 0.85333 0.89894 0.21615 0.0
H2852 H 0.9089 0.90545 0.27644 0.0
H2853 H 0.95148 0.91351 0.29477 0.0
H2854 H 0.99877 0.87678 0.25981 0.0
H2855 H 0.95662 0.86869 0.24111 0.0
C2856 C 0.83533 0.81425 0.23274 0.0
C2857 C 0.85665 0.80231 0.2279 0.0
C2858 C 0.84093 0.83235 0.235 0.0
C2859 C 0.86798 0.83893 0.23216 0.0
C2860 C 0.88956 0.82677 0.22854 0.0
C2861 C 0.88401 0.80865 0.22676 0.0
C2862 C 0.87409 0.85834 0.23312 0.0
C2863 C 0.89692 0.86401 0.24443 0.0
C2864 C 0.85812 0.87121 0.22283 0.0
C2865 C 0.83483 0.86631 0.20943 0.0
C2866 C 0.83892 0.85426 0.19378 0.0
C2867 C 0.81685 0.84971 0.18128 0.0
C2868 C 0.79066 0.85729 0.1841 0.0
C2869 C 0.78649 0.86945 0.19942 0.0
C2870 C 0.80846 0.87399 0.21202 0.0
C2871 C 0.93088 0.93713 0.22958 0.0
C2872 C 0.91065 0.95045 0.2311 0.0
C2873 C 0.92371 0.91925 0.23075 0.0
C2874 C 0.89629 0.91409 0.23492 0.0
C2875 C 0.87619 0.92744 0.23771 0.0
C2876 C 0.88326 0.94541 0.23576 0.0
C2877 C 0.88842 0.89489 0.2355 0.0
C2878 C 0.86523 0.88925 0.22446 0.0
C2879 C 0.90449 0.88195 0.24562 0.0
C2880 C 0.9296 0.88653 0.25733 0.0
C2881 C 0.92839 0.89912 0.27265 0.0
C2882 C 0.95247 0.90371 0.28309 0.0
C2883 C 0.97782 0.89569 0.27844 0.0
C2884 C 0.97914 0.883 0.2634 0.0
C2885 C 0.95516 0.87839 0.25291 0.0
H2886 H 0.99643 0.8993 0.28649 0.0
H2887 H 0.77362 0.85377 0.17439 0.0
H2888 H 0.62788 0.04428 0.99549 0.0
H2889 H 0.61346 0.07517 1.00048 0.0
H2890 H 0.68093 0.09272 0.96338 0.0
H2891 H 0.69466 0.06254 0.95812 0.0
H2892 H 0.67734 0.11426 0.99317 0.0
H2893 H 0.61418 0.0904 0.94516 0.0
H2894 H 0.57971 0.06919 0.93217 0.0
H2895 H 0.52439 0.08192 0.98004 0.0
H2896 H 0.55863 0.10323 0.99332 0.0
H2897 H 0.62332 0.19294 0.9449 0.0
H2898 H 0.63198 0.16131 0.95034 0.0
H2899 H 0.59956 0.16574 1.00967 0.0
H2900 H 0.59192 0.19775 1.00454 0.0
H2901 H 0.58246 0.13335 0.97381 0.0
H2902 H 0.65167 0.16135 1.01834 0.0
H2903 H 0.68782 0.18399 1.02374 0.0
H2904 H 0.73474 0.16323 0.97485 0.0
H2905 H 0.69843 0.14077 0.96882 0.0
C2906 C 0.63986 0.05471 0.98854 0.0
C2907 C 0.66282 0.05056 0.97636 0.0
C2908 C 0.63147 0.07243 0.99136 0.0
C2909 C 0.64602 0.08644 0.98224 0.0
C2910 C 0.66934 0.08231 0.97072 0.0
C2911 C 0.67736 0.06476 0.96771 0.0
C2912 C 0.63683 0.10537 0.98377 0.0
C2913 C 0.65646 0.11832 0.98916 0.0
C2914 C 0.60974 0.11093 0.97828 0.0
C2915 C 0.58903 0.09826 0.97034 0.0
C2916 C 0.59471 0.08861 0.95296 0.0
C2917 C 0.5752 0.07661 0.94552 0.0
C2918 C 0.5499 0.07418 0.95531 0.0
C2919 C 0.54401 0.08381 0.97249 0.0
C2920 C 0.56343 0.09589 0.97996 0.0
C2921 C 0.61828 0.1872 0.95918 0.0
C2922 C 0.60742 0.19786 0.97443 0.0
C2923 C 0.62304 0.16911 0.96221 0.0
C2924 C 0.61637 0.16113 0.98038 0.0
C2925 C 0.60492 0.17163 0.99555 0.0
C2926 C 0.60085 0.18992 0.99269 0.0
C2927 C 0.62285 0.14201 0.98355 0.0
C2928 C 0.60294 0.12912 0.97861 0.0
C2929 C 0.64991 0.13648 0.9889 0.0
C2930 C 0.67217 0.14954 0.99299 0.0
C2931 C 0.66954 0.16174 1.00861 0.0
C2932 C 0.69007 0.17453 1.0118 0.0
C2933 C 0.71352 0.17509 0.9996 0.0
C2934 C 0.71654 0.16281 0.98425 0.0
C2935 C 0.69598 0.15006 0.98094 0.0
H2936 H 0.72939 0.185 1.00208 0.0
H2937 H 0.53486 0.06483 0.94956 0.0
H2938 H 0.06558 0.68807 0.98055 0.0
H2939 H 0.07702 0.65666 0.98304 0.0
H2940 H 0.16427 0.66972 0.98365 0.0
H2941 H 0.15274 0.7012 0.98052 0.0
H2942 H 0.15178 0.64341 0.9565 0.0
H2943 H 0.132 0.65636 1.02478 0.0
H2944 H 0.1039 0.66723 0.0528 0.0
H2945 H 0.04033 0.62919 0.03927 0.0
H2946 H 0.0678 0.61832 1.01092 0.0
H2947 H 0.20358 0.55831 0.98106 0.0
H2948 H 0.19225 0.58978 0.98211 0.0
H2949 H 0.10504 0.57678 0.98394 0.0
H2950 H 0.11648 0.54523 0.98196 0.0
H2951 H 0.11729 0.60313 1.00914 0.0
H2952 H 0.13521 0.5901 0.94131 0.0
H2953 H 0.16082 0.57952 0.91199 0.0
H2954 H 0.22507 0.61777 0.92282 0.0
H2955 H 0.20018 0.62832 0.9525 0.0
C2956 C 0.08715 0.68424 0.98073 0.0
C2957 C 0.1082 0.69704 0.97918 0.0
C2958 C 0.0937 0.66628 0.98257 0.0
C2959 C 0.12154 0.66078 0.98326 0.0
C2960 C 0.14264 0.67364 0.98286 0.0
C2961 C 0.13602 0.69164 0.98111 0.0
C2962 C 0.12863 0.64161 0.98371 0.0
C2963 C 0.14469 0.63464 0.9682 0.0
C2964 C 0.11842 0.63007 0.99856 0.0
C2965 C 0.10185 0.63664 1.01559 0.0
C2966 C 0.11191 0.65043 0.02765 0.0
C2967 C 0.0961 0.65657 0.04361 0.0
C2968 C 0.07032 0.64893 0.04778 0.0
C2969 C 0.06029 0.63512 0.03601 0.0
C2970 C 0.07596 0.62896 1.01998 0.0
C2971 C 0.18205 0.56214 0.98091 0.0
C2972 C 0.161 0.54928 0.97991 0.0
C2973 C 0.17554 0.58016 0.98189 0.0
C2974 C 0.14774 0.58571 0.98236 0.0
C2975 C 0.12666 0.57284 0.98315 0.0
C2976 C 0.13323 0.55478 0.982 0.0
C2977 C 0.14074 0.60492 0.98205 0.0
C2978 C 0.12458 0.6119 0.9975 0.0
C2979 C 0.15062 0.61644 0.967 0.0
C2980 C 0.16599 0.60982 0.94937 0.0
C2981 C 0.155 0.59609 0.93764 0.0
C2982 C 0.16936 0.59013 0.92091 0.0
C2983 C 0.19461 0.59791 0.91559 0.0
C2984 C 0.20555 0.6117 0.927 0.0
C2985 C 0.19134 0.61766 0.9438 0.0
H2986 H 0.20565 0.59331 0.9026 0.0
H2987 H 0.05814 0.65369 0.06017 0.0
H2988 H 0.6176 0.70256 0.81833 0.0
H2989 H 0.60524 0.67132 0.81445 0.0
H2990 H 0.69169 0.65691 0.81997 0.0
H2991 H 0.70409 0.68809 0.82146 0.0
H2992 H 0.6709 0.63543 0.79653 0.0
H2993 H 0.64053 0.65564 0.86064 0.0
H2994 H 0.61521 0.67576 0.88308 0.0
H2995 H 0.53794 0.66091 0.8559 0.0
H2996 H 0.56286 0.64085 0.83311 0.0
H2997 H 0.65483 0.54647 0.82808 0.0
H2998 H 0.6644 0.57817 0.82663 0.0
H2999 H 0.57818 0.58839 0.81335 0.0
H3000 H 0.56851 0.5566 0.81528 0.0
H3001 H 0.59674 0.61195 0.84033 0.0
H3002 H 0.63051 0.59022 0.77693 0.0
H3003 H 0.6583 0.56934 0.75697 0.0
H3004 H 0.73265 0.58667 0.7864 0.0
H3005 H 0.70524 0.60752 0.80666 0.0
C3006 C 0.63401 0.69275 0.81842 0.0
C3007 C 0.66184 0.69781 0.82144 0.0
C3008 C 0.62687 0.67481 0.81647 0.0
C3009 C 0.64733 0.66151 0.81788 0.0
C3010 C 0.67528 0.66672 0.81935 0.0
C3011 C 0.68241 0.68463 0.82077 0.0
C3012 C 0.63987 0.64223 0.8183 0.0
C3013 C 0.65482 0.63037 0.80627 0.0
C3014 C 0.61873 0.63538 0.83083 0.0
C3015 C 0.60357 0.64683 0.84508 0.0
C3016 C 0.61814 0.65667 0.85945 0.0
C3017 C 0.60387 0.66808 0.87221 0.0
C3018 C 0.57499 0.66962 0.8709 0.0
C3019 C 0.56031 0.65969 0.8569 0.0
C3020 C 0.57449 0.64828 0.84407 0.0
C3021 C 0.63789 0.55541 0.82482 0.0
C3022 C 0.61067 0.549 0.8225 0.0
C3023 C 0.6434 0.57362 0.82393 0.0
C3024 C 0.62201 0.58584 0.81991 0.0
C3025 C 0.595 0.57936 0.81679 0.0
C3026 C 0.58945 0.56116 0.81797 0.0
C3027 C 0.62792 0.60528 0.81865 0.0
C3028 C 0.61269 0.61711 0.83054 0.0
C3029 C 0.64919 0.6121 0.80632 0.0
C3030 C 0.66584 0.60039 0.7933 0.0
C3031 C 0.6528 0.5896 0.77908 0.0
C3032 C 0.66847 0.57775 0.76775 0.0
C3033 C 0.69722 0.57667 0.77042 0.0
C3034 C 0.71039 0.58754 0.78432 0.0
C3035 C 0.69481 0.59941 0.79569 0.0
H3036 H 0.7093 0.56742 0.76171 0.0
H3037 H 0.56399 0.67851 0.88074 0.0
H3038 H 0.16268 0.19007 0.86242 0.0
H3039 H 0.15221 0.15887 0.85746 0.0
H3040 H 0.15265 0.1666 0.79407 0.0
H3041 H 0.16219 0.19832 0.79908 0.0
H3042 H 0.11131 0.14519 0.80377 0.0
H3043 H 0.21051 0.14128 0.81794 0.0
H3044 H 0.25458 0.14615 0.83589 0.0
H3045 H 0.21638 0.12914 0.89019 0.0
H3046 H 0.17247 0.12345 0.87236 0.0
H3047 H 0.11129 0.04762 0.79959 0.0
H3048 H 0.12281 0.07904 0.79406 0.0
H3049 H 0.11749 0.08849 0.85702 0.0
H3050 H 0.10618 0.05747 0.86258 0.0
H3051 H 0.16582 0.10037 0.8409 0.0
H3052 H 0.06749 0.10229 0.82636 0.0
H3053 H 0.02472 0.09483 0.80804 0.0
H3054 H 0.06037 0.11537 0.75441 0.0
H3055 H 0.10357 0.12271 0.77235 0.0
C3056 C 0.16073 0.18514 0.8474 0.0
C3057 C 0.1636 0.19662 0.83115 0.0
C3058 C 0.15493 0.16721 0.84455 0.0
C3059 C 0.15246 0.16013 0.82536 0.0
C3060 C 0.15473 0.17165 0.80902 0.0
C3061 C 0.16016 0.18976 0.8119 0.0
C3062 C 0.14674 0.14082 0.82275 0.0
C3063 C 0.12358 0.13534 0.81155 0.0
C3064 C 0.16244 0.12785 0.83298 0.0
C3065 C 0.18823 0.13216 0.84389 0.0
C3066 C 0.21151 0.13872 0.83373 0.0
C3067 C 0.23648 0.1415 0.84386 0.0
C3068 C 0.23818 0.13819 0.86422 0.0
C3069 C 0.21502 0.1318 0.87445 0.0
C3070 C 0.19018 0.12863 0.86431 0.0
C3071 C 0.11262 0.05646 0.8122 0.0
C3072 C 0.10792 0.05008 0.83154 0.0
C3073 C 0.11893 0.0744 0.809 0.0
C3074 C 0.12086 0.08613 0.82513 0.0
C3075 C 0.11604 0.07971 0.84435 0.0
C3076 C 0.10958 0.06195 0.84751 0.0
C3077 C 0.12985 0.10483 0.82264 0.0
C3078 C 0.15379 0.11017 0.83281 0.0
C3079 C 0.11477 0.1175 0.81148 0.0
C3080 C 0.08897 0.1128 0.80064 0.0
C3081 C 0.06639 0.105 0.8106 0.0
C3082 C 0.04202 0.10084 0.8003 0.0
C3083 C 0.03988 0.10454 0.78006 0.0
C3084 C 0.06209 0.11245 0.77008 0.0
C3085 C 0.08652 0.11661 0.78031 0.0
H3086 H 0.02098 0.10135 0.77212 0.0
H3087 H 0.2575 0.14047 0.87205 0.0
H3088 H 0.39239 0.29748 0.55008 0.0
H3089 H 0.3773 0.32835 0.54559 0.0
H3090 H 0.42016 0.34287 0.59938 0.0
H3091 H 0.43244 0.31238 0.6049 0.0
H3092 H 0.37119 0.35526 0.60063 0.0
H3093 H 0.44301 0.35418 0.54938 0.0
H3094 H 0.46421 0.34335 0.51835 0.0
H3095 H 0.38986 0.35653 0.48633 0.0
H3096 H 0.36817 0.36731 0.51722 0.0
H3097 H 0.37961 0.44628 0.60748 0.0
H3098 H 0.39051 0.41519 0.60251 0.0
H3099 H 0.34661 0.41596 0.54665 0.0
H3100 H 0.33874 0.448 0.5506 0.0
H3101 H 0.38689 0.39442 0.54272 0.0
H3102 H 0.31786 0.39892 0.5947 0.0
H3103 H 0.29865 0.41014 0.62621 0.0
H3104 H 0.36955 0.38998 0.65766 0.0
H3105 H 0.38927 0.37878 0.62636 0.0
C3106 C 0.39876 0.30732 0.56085 0.0
C3107 C 0.41455 0.30235 0.57759 0.0
C3108 C 0.39028 0.32502 0.55817 0.0
C3109 C 0.3978 0.33811 0.57203 0.0
C3110 C 0.41408 0.33315 0.58838 0.0
C3111 C 0.42181 0.31558 0.59131 0.0
C3112 C 0.38736 0.35674 0.57093 0.0
C3113 C 0.37485 0.36382 0.58797 0.0
C3114 C 0.39083 0.36783 0.55416 0.0
C3115 C 0.40387 0.36134 0.53564 0.0
C3116 C 0.43113 0.35464 0.53575 0.0
C3117 C 0.44325 0.34855 0.51818 0.0
C3118 C 0.42836 0.34919 0.5004 0.0
C3119 C 0.40135 0.356 0.50013 0.0
C3120 C 0.38915 0.36212 0.51765 0.0
C3121 C 0.37292 0.43996 0.59388 0.0
C3122 C 0.3588 0.44963 0.57925 0.0
C3123 C 0.37861 0.422 0.59122 0.0
C3124 C 0.36847 0.41283 0.57455 0.0
C3125 C 0.35456 0.42256 0.55973 0.0
C3126 C 0.35007 0.44087 0.56196 0.0
C3127 C 0.37233 0.39317 0.57295 0.0
C3128 C 0.38304 0.38583 0.55532 0.0
C3129 C 0.36739 0.38173 0.58928 0.0
C3130 C 0.35504 0.38804 0.60817 0.0
C3131 C 0.32933 0.39688 0.60834 0.0
C3132 C 0.31837 0.40325 0.62617 0.0
C3133 C 0.33287 0.40077 0.64392 0.0
C3134 C 0.35831 0.39186 0.64391 0.0
C3135 C 0.36934 0.38546 0.62614 0.0
H3136 H 0.32439 0.40576 0.6577 0.0
H3137 H 0.43776 0.34445 0.48682 0.0
H3138 H 0.84401 0.94905 0.54891 0.0
H3139 H 0.85263 0.91705 0.54427 0.0
H3140 H 0.88443 0.91367 0.60391 0.0
H3141 H 0.87473 0.94521 0.60885 0.0
H3142 H 0.91931 0.89957 0.56687 0.0
H3143 H 0.8353 0.89533 0.60602 0.0
H3144 H 0.78611 0.89953 0.61503 0.0
H3145 H 0.76086 0.87715 0.55933 0.0
H3146 H 0.81003 0.87281 0.55001 0.0
H3147 H 0.92802 0.81251 0.60692 0.0
H3148 H 0.91797 0.8435 0.60028 0.0
H3149 H 0.88232 0.82943 0.54385 0.0
H3150 H 0.8944 0.79817 0.54971 0.0
H3151 H 0.84844 0.85214 0.57251 0.0
H3152 H 0.93594 0.84993 0.53895 0.0
H3153 H 0.98581 0.84364 0.53441 0.0
H3154 H 1.00568 0.87766 0.58341 0.0
H3155 H 0.95591 0.88389 0.58851 0.0
C3156 C 0.85298 0.94143 0.56093 0.0
C3157 C 0.85914 0.94962 0.57912 0.0
C3158 C 0.85764 0.92317 0.55835 0.0
C3159 C 0.86907 0.91297 0.57379 0.0
C3160 C 0.87546 0.92124 0.59185 0.0
C3161 C 0.87007 0.93928 0.59461 0.0
C3162 C 0.87593 0.8939 0.57101 0.0
C3163 C 0.90383 0.88918 0.56805 0.0
C3164 C 0.85569 0.88036 0.57229 0.0
C3165 C 0.82631 0.88419 0.57711 0.0
C3166 C 0.81928 0.89166 0.59552 0.0
C3167 C 0.79141 0.89388 0.60077 0.0
C3168 C 0.77037 0.88874 0.58769 0.0
C3169 C 0.77718 0.88125 0.56938 0.0
C3170 C 0.80504 0.87889 0.56412 0.0
C3171 C 0.91911 0.81592 0.59271 0.0
C3172 C 0.91307 0.80275 0.57855 0.0
C3173 C 0.91302 0.83373 0.58905 0.0
C3174 C 0.89983 0.83886 0.57144 0.0
C3175 C 0.89286 0.82579 0.55745 0.0
C3176 C 0.89968 0.80792 0.56087 0.0
C3177 C 0.89192 0.85777 0.56861 0.0
C3178 C 0.86386 0.8625 0.5707 0.0
C3179 C 0.91214 0.87132 0.56694 0.0
C3180 C 0.94209 0.86723 0.56424 0.0
C3181 C 0.95089 0.85588 0.54894 0.0
C3182 C 0.97917 0.85237 0.54623 0.0
C3183 C 0.99889 0.8602 0.55865 0.0
C3184 C 0.99038 0.87157 0.57382 0.0
C3185 C 0.96213 0.8751 0.57662 0.0
H3186 H 0.02077 0.8575 0.55649 0.0
H3187 H 0.7488 0.89048 0.59179 0.0
H3188 H 0.45209 0.94248 0.73416 0.0
H3189 H 0.44259 0.91075 0.73651 0.0
H3190 H 0.35528 0.92103 0.72746 0.0
H3191 H 0.36486 0.95277 0.72526 0.0
H3192 H 0.36021 0.89732 0.75385 0.0
H3193 H 0.40132 0.90513 0.69012 0.0
H3194 H 0.43689 0.91419 0.66587 0.0
H3195 H 0.49549 0.87843 0.69239 0.0
H3196 H 0.46047 0.86944 0.7171 0.0
H3197 H 0.31672 0.81048 0.73155 0.0
H3198 H 0.32813 0.84168 0.73133 0.0
H3199 H 0.41488 0.82855 0.73841 0.0
H3200 H 0.40336 0.797 0.73579 0.0
H3201 H 0.41185 0.8537 0.71317 0.0
H3202 H 0.36587 0.8459 0.77694 0.0
H3203 H 0.32753 0.83851 0.79982 0.0
H3204 H 0.27415 0.87534 0.76975 0.0
H3205 H 0.31188 0.88268 0.74648 0.0
C3206 C 0.43096 0.93793 0.73233 0.0
C3207 C 0.40941 0.95006 0.72866 0.0
C3208 C 0.42551 0.91976 0.73377 0.0
C3209 C 0.39831 0.9133 0.73149 0.0
C3210 C 0.37653 0.92556 0.72898 0.0
C3211 C 0.382 0.94376 0.72774 0.0
C3212 C 0.39236 0.89387 0.73209 0.0
C3213 C 0.37133 0.88782 0.74477 0.0
C3214 C 0.40717 0.88133 0.72052 0.0
C3215 C 0.42833 0.88678 0.70567 0.0
C3216 C 0.42187 0.89933 0.69094 0.0
C3217 C 0.44194 0.90444 0.67708 0.0
C3218 C 0.46846 0.89694 0.67763 0.0
C3219 C 0.47496 0.88428 0.69202 0.0
C3220 C 0.45501 0.87918 0.70597 0.0
C3221 C 0.33825 0.81416 0.73217 0.0
C3222 C 0.35908 0.80116 0.73224 0.0
C3223 C 0.34482 0.83216 0.73283 0.0
C3224 C 0.37248 0.83776 0.735 0.0
C3225 C 0.39335 0.82472 0.73653 0.0
C3226 C 0.38673 0.80662 0.7352 0.0
C3227 C 0.37961 0.8571 0.73501 0.0
C3228 C 0.40087 0.86317 0.72238 0.0
C3229 C 0.36458 0.86976 0.7463 0.0
C3230 C 0.34172 0.86482 0.75996 0.0
C3231 C 0.34588 0.85229 0.7751 0.0
C3232 C 0.32426 0.84812 0.78814 0.0
C3233 C 0.29851 0.85653 0.78628 0.0
C3234 C 0.29413 0.86889 0.7712 0.0
C3235 C 0.31561 0.87305 0.75809 0.0
H3236 H 0.28202 0.85361 0.79663 0.0
H3237 H 0.48395 0.90089 0.66688 0.0
H3238 H 0.90354 0.29807 0.7253 0.0
H3239 H 0.91391 0.32959 0.72733 0.0
H3240 H 0.82676 0.34093 0.73555 0.0
H3241 H 0.81628 0.30934 0.73236 0.0
H3242 H 0.84647 0.36414 0.71134 0.0
H3243 H 0.87851 0.34281 0.77495 0.0
H3244 H 0.90502 0.32222 0.79618 0.0
H3245 H 0.98093 0.33828 0.76797 0.0
H3246 H 0.95484 0.35888 0.7465 0.0
H3247 H 0.86985 0.45448 0.73475 0.0
H3248 H 0.85714 0.4233 0.7386 0.0
H3249 H 0.94229 0.40814 0.72814 0.0
H3250 H 0.9552 0.43923 0.72579 0.0
H3251 H 0.92151 0.38721 0.75469 0.0
H3252 H 0.89035 0.40743 0.69054 0.0
H3253 H 0.86474 0.42756 0.66824 0.0
H3254 H 0.78797 0.4133 0.69646 0.0
H3255 H 0.81319 0.39325 0.71911 0.0
C3256 C 0.88657 0.30723 0.72757 0.0
C3257 C 0.85897 0.30121 0.72809 0.0
C3258 C 0.89254 0.32535 0.7289 0.0
C3259 C 0.87119 0.33785 0.73179 0.0
C3260 C 0.84367 0.33171 0.73313 0.0
C3261 C 0.83765 0.31362 0.73127 0.0
C3262 C 0.87749 0.35726 0.73312 0.0
C3263 C 0.86256 0.36917 0.7211 0.0
C3264 C 0.89887 0.36399 0.74548 0.0
C3265 C 0.91472 0.35235 0.75911 0.0
C3266 C 0.90087 0.34198 0.77333 0.0
C3267 C 0.91581 0.33029 0.78537 0.0
C3268 C 0.94464 0.32893 0.78341 0.0
C3269 C 0.95861 0.33936 0.7695 0.0
C3270 C 0.94377 0.35109 0.75743 0.0
C3271 C 0.88593 0.44453 0.7334 0.0
C3272 C 0.91344 0.4494 0.72881 0.0
C3273 C 0.87858 0.42664 0.73548 0.0
C3274 C 0.89852 0.4132 0.73293 0.0
C3275 C 0.9263 0.41814 0.72974 0.0
C3276 C 0.93364 0.43599 0.72789 0.0
C3277 C 0.89054 0.39405 0.73291 0.0
C3278 C 0.9052 0.38218 0.74511 0.0
C3279 C 0.86898 0.38737 0.72066 0.0
C3280 C 0.85367 0.39894 0.70661 0.0
C3281 C 0.86801 0.40862 0.69201 0.0
C3282 C 0.85357 0.42002 0.67932 0.0
C3283 C 0.82475 0.42171 0.68094 0.0
C3284 C 0.8103 0.41196 0.69522 0.0
C3285 C 0.82464 0.40056 0.70797 0.0
H3286 H 0.81362 0.43059 0.67114 0.0
H3287 H 0.95615 0.31981 0.79268 0.0
H3288 H 0.70337 0.55851 0.48264 0.0
H3289 H 0.69188 0.58988 0.48351 0.0
H3290 H 0.60474 0.57671 0.48635 0.0
H3291 H 0.61639 0.54519 0.48417 0.0
H3292 H 0.61357 0.60265 0.45951 0.0
H3293 H 0.64242 0.59171 0.52689 0.0
H3294 H 0.67439 0.58158 0.55316 0.0
H3295 H 0.73603 0.6187 0.53336 0.0
H3296 H 0.70461 0.62885 0.50678 0.0
H3297 H 0.5662 0.68914 0.48345 0.0
H3298 H 0.57693 0.65754 0.48482 0.0
H3299 H 0.66444 0.66965 0.48237 0.0
H3300 H 0.65362 0.70128 0.48063 0.0
H3301 H 0.65504 0.64418 0.5082 0.0
H3302 H 0.62817 0.65558 0.44147 0.0
H3303 H 0.59863 0.66564 0.41381 0.0
H3304 H 0.53604 0.62785 0.43013 0.0
H3305 H 0.56489 0.61783 0.45821 0.0
C3306 C 0.68179 0.56227 0.4828 0.0
C3307 C 0.66086 0.54933 0.48199 0.0
C3308 C 0.67518 0.58027 0.48381 0.0
C3309 C 0.64736 0.58579 0.48479 0.0
C3310 C 0.62637 0.57284 0.48528 0.0
C3311 C 0.63306 0.55478 0.48413 0.0
C3312 C 0.64026 0.60504 0.48499 0.0
C3313 C 0.6222 0.61169 0.47038 0.0
C3314 C 0.65239 0.617 0.49868 0.0
C3315 C 0.67122 0.61094 0.51474 0.0
C3316 C 0.66287 0.59762 0.52805 0.0
C3317 C 0.68088 0.59188 0.543 0.0
C3318 C 0.70724 0.59946 0.5449 0.0
C3319 C 0.71562 0.61282 0.53186 0.0
C3320 C 0.69771 0.61858 0.51686 0.0
C3321 C 0.58766 0.68506 0.48273 0.0
C3322 C 0.60893 0.69769 0.48077 0.0
C3323 C 0.59382 0.66697 0.48371 0.0
C3324 C 0.62148 0.66111 0.48298 0.0
C3325 C 0.64289 0.67379 0.48258 0.0
C3326 C 0.63667 0.69191 0.4816 0.0
C3327 C 0.62809 0.6418 0.48286 0.0
C3328 C 0.64618 0.63515 0.4974 0.0
C3329 C 0.61622 0.62991 0.46894 0.0
C3330 C 0.59858 0.63612 0.45219 0.0
C3331 C 0.60795 0.64956 0.43936 0.0
C3332 C 0.59135 0.65524 0.42356 0.0
C3333 C 0.56543 0.64744 0.42026 0.0
C3334 C 0.55608 0.63393 0.43274 0.0
C3335 C 0.57255 0.62826 0.44863 0.0
H3336 H 0.55264 0.65182 0.40799 0.0
H3337 H 0.72114 0.59502 0.5565 0.0
H3338 H 0.19075 0.05185 0.49595 0.0
H3339 H 0.18546 0.08392 0.49859 0.0
H3340 H 0.11723 0.08175 0.45685 0.0
H3341 H 0.12681 0.05066 0.45123 0.0
H3342 H 0.13768 0.10822 0.44881 0.0
H3343 H 0.11833 0.08802 0.5158 0.0
H3344 H 0.12845 0.07341 0.54775 0.0
H3345 H 0.19842 0.10781 0.55659 0.0
H3346 H 0.189 0.12241 0.52456 0.0
H3347 H 0.06836 0.18679 0.47994 0.0
H3348 H 0.08232 0.15582 0.47993 0.0
H3349 H 0.16764 0.17158 0.48775 0.0
H3350 H 0.15371 0.20289 0.48624 0.0
H3351 H 0.14378 0.14049 0.51261 0.0
H3352 H 0.15305 0.1627 0.445 0.0
H3353 H 0.13534 0.17695 0.41462 0.0
H3354 H 0.07226 0.137 0.4094 0.0
H3355 H 0.08911 0.12277 0.44002 0.0
C3356 C 0.17461 0.05834 0.48742 0.0
C3357 C 0.15861 0.04861 0.47384 0.0
C3358 C 0.17122 0.07675 0.48915 0.0
C3359 C 0.15017 0.08568 0.47851 0.0
C3360 C 0.13373 0.07562 0.46533 0.0
C3361 C 0.13862 0.05755 0.46249 0.0
C3362 C 0.14562 0.10541 0.48023 0.0
C3363 C 0.1385 0.11496 0.46298 0.0
C3364 C 0.14758 0.11493 0.49843 0.0
C3365 C 0.15314 0.10615 0.51769 0.0
C3366 C 0.13596 0.09238 0.52452 0.0
C3367 C 0.14159 0.0841 0.54263 0.0
C3368 C 0.16411 0.08964 0.55416 0.0
C3369 C 0.18103 0.1035 0.54763 0.0
C3370 C 0.17557 0.11177 0.52949 0.0
C3371 C 0.09012 0.18379 0.48085 0.0
C3372 C 0.10999 0.19741 0.48147 0.0
C3373 C 0.09806 0.166 0.48136 0.0
C3374 C 0.12612 0.16139 0.48321 0.0
C3375 C 0.14589 0.17488 0.48592 0.0
C3376 C 0.13788 0.19277 0.48505 0.0
C3377 C 0.13456 0.1425 0.48156 0.0
C3378 C 0.14272 0.13335 0.49867 0.0
C3379 C 0.13219 0.13313 0.46348 0.0
C3380 C 0.12219 0.14177 0.44499 0.0
C3381 C 0.13519 0.15707 0.43754 0.0
C3382 C 0.12532 0.16513 0.42023 0.0
C3383 C 0.10264 0.15792 0.41011 0.0
C3384 C 0.08979 0.14261 0.41727 0.0
C3385 C 0.09949 0.13455 0.43461 0.0
H3386 H 0.09507 0.16416 0.39671 0.0
H3387 H 0.16842 0.08322 0.56818 0.0
H3388 H 0.64049 0.19425 0.35796 0.0
H3389 H 0.63001 0.16304 0.35289 0.0
H3390 H 0.67505 0.16395 0.29755 0.0
H3391 H 0.68302 0.19598 0.30176 0.0
H3392 H 0.63382 0.14242 0.29339 0.0
H3393 H 0.70349 0.14701 0.34512 0.0
H3394 H 0.72267 0.15831 0.37663 0.0
H3395 H 0.65197 0.13797 0.40808 0.0
H3396 H 0.63229 0.12668 0.37678 0.0
H3397 H 0.62746 0.04573 0.29883 0.0
H3398 H 0.64256 0.07665 0.29488 0.0
H3399 H 0.60428 0.08971 0.35084 0.0
H3400 H 0.5925 0.05908 0.35586 0.0
H3401 H 0.65109 0.10311 0.35095 0.0
H3402 H 0.57824 0.10187 0.30027 0.0
H3403 H 0.55659 0.09117 0.26932 0.0
H3404 H 0.63016 0.10497 0.23678 0.0
H3405 H 0.6523 0.11562 0.26758 0.0
C3406 C 0.64778 0.18785 0.34456 0.0
C3407 C 0.66237 0.19751 0.33019 0.0
C3408 C 0.64216 0.16989 0.34178 0.0
C3409 C 0.6526 0.16077 0.32518 0.0
C3410 C 0.66688 0.17053 0.31057 0.0
C3411 C 0.67146 0.18881 0.31296 0.0
C3412 C 0.64883 0.14111 0.32349 0.0
C3413 C 0.63794 0.13379 0.30591 0.0
C3414 C 0.6541 0.12964 0.33973 0.0
C3415 C 0.66643 0.13601 0.3586 0.0
C3416 C 0.69207 0.14495 0.35876 0.0
C3417 C 0.703 0.15136 0.37658 0.0
C3418 C 0.68855 0.14885 0.39434 0.0
C3419 C 0.66318 0.13987 0.39433 0.0
C3420 C 0.65217 0.13341 0.37657 0.0
C3421 C 0.62217 0.05526 0.31021 0.0
C3422 C 0.60774 0.04984 0.32737 0.0
C3423 C 0.63061 0.07301 0.30785 0.0
C3424 C 0.62427 0.08577 0.32242 0.0
C3425 C 0.60947 0.08031 0.33928 0.0
C3426 C 0.60197 0.06266 0.34192 0.0
C3427 C 0.63429 0.10456 0.32138 0.0
C3428 C 0.64698 0.11168 0.33837 0.0
C3429 C 0.63034 0.11575 0.30471 0.0
C3430 C 0.61702 0.10934 0.28625 0.0
C3431 C 0.58985 0.10251 0.28654 0.0
C3432 C 0.57748 0.09648 0.26902 0.0
C3433 C 0.59203 0.09734 0.25111 0.0
C3434 C 0.61894 0.10428 0.25067 0.0
C3435 C 0.63139 0.11033 0.26814 0.0
H3436 H 0.58242 0.09266 0.23757 0.0
H3437 H 0.69702 0.15387 0.40811 0.0
H3438 H 0.16756 0.68854 0.35928 0.0
H3439 H 0.15814 0.65731 0.35352 0.0
H3440 H 0.142 0.66811 0.2918 0.0
H3441 H 0.15197 0.69972 0.29742 0.0
H3442 H 0.1013 0.64661 0.31024 0.0
H3443 H 0.20013 0.64561 0.30184 0.0
H3444 H 0.24964 0.65082 0.30927 0.0
H3445 H 0.24069 0.62414 0.36514 0.0
H3446 H 0.19121 0.61854 0.35791 0.0
H3447 H 0.10142 0.54908 0.29754 0.0
H3448 H 0.11168 0.58078 0.29232 0.0
H3449 H 0.12328 0.58743 0.35526 0.0
H3450 H 0.1123 0.55619 0.36058 0.0
H3451 H 0.16845 0.59978 0.32934 0.0
H3452 H 0.06969 0.60489 0.3408 0.0
H3453 H 0.01933 0.60106 0.33545 0.0
H3454 H 0.02748 0.6204 0.27591 0.0
H3455 H 0.07783 0.62475 0.28103 0.0
C3456 C 0.16225 0.68433 0.34439 0.0
C3457 C 0.16074 0.69665 0.32876 0.0
C3458 C 0.15697 0.66641 0.34113 0.0
C3459 C 0.14984 0.66028 0.32217 0.0
C3460 C 0.14769 0.67253 0.30653 0.0
C3461 C 0.15322 0.69058 0.30977 0.0
C3462 C 0.14333 0.64118 0.31931 0.0
C3463 C 0.11621 0.63633 0.31387 0.0
C3464 C 0.16253 0.62776 0.32458 0.0
C3465 C 0.19192 0.63179 0.32939 0.0
C3466 C 0.20866 0.64098 0.31578 0.0
C3467 C 0.23677 0.64388 0.31989 0.0
C3468 C 0.24828 0.63789 0.33771 0.0
C3469 C 0.23174 0.62882 0.35137 0.0
C3470 C 0.20371 0.62569 0.34722 0.0
C3471 C 0.10616 0.55737 0.3102 0.0
C3472 C 0.1062 0.55019 0.32945 0.0
C3473 C 0.11177 0.57546 0.30723 0.0
C3474 C 0.11809 0.58646 0.32343 0.0
C3475 C 0.11829 0.57921 0.34258 0.0
C3476 C 0.11206 0.56136 0.34559 0.0
C3477 C 0.12632 0.60527 0.32067 0.0
C3478 C 0.15376 0.61003 0.32516 0.0
C3479 C 0.10735 0.61857 0.31475 0.0
C3480 C 0.07761 0.61473 0.31114 0.0
C3481 C 0.06085 0.60799 0.32644 0.0
C3482 C 0.03229 0.60582 0.32349 0.0
C3483 C 0.02031 0.61017 0.30526 0.0
C3484 C 0.03683 0.61687 0.28997 0.0
C3485 C 0.06535 0.61926 0.29291 0.0
H3486 H 0.99818 0.60851 0.30305 0.0
H3487 H 0.27001 0.64025 0.3409 0.0
H3488 H 0.32339 0.98669 0.20862 0.0
H3489 H 0.31502 0.9919 0.24372 0.0
H3490 H 0.24723 0.02694 0.22904 0.0
H3491 H 0.25545 0.02153 0.19386 0.0
H3492 H 0.29333 0.02446 0.27154 0.0
H3493 H 0.21147 0.00268 0.23237 0.0
H3494 H 0.1849 0.98444 0.20868 0.0
H3495 H 0.22734 0.93781 0.22899 0.0
H3496 H 0.25452 0.95587 0.25254 0.0
H3497 H 0.19706 0.01298 0.34551 0.0
H3498 H 0.20448 0.0084 0.31016 0.0
H3499 H 0.27201 0.97263 0.32312 0.0
H3500 H 0.26476 0.97739 0.35853 0.0
H3501 H 0.22547 0.97563 0.28147 0.0
H3502 H 0.30807 0.99706 0.31993 0.0
H3503 H 0.33475 0.01498 0.34389 0.0
H3504 H 0.29129 0.06174 0.3251 0.0
H3505 H 0.26403 0.044 0.30129 0.0
C3506 C 0.30823 0.99659 0.2129 0.0
C3507 C 0.28886 0.00289 0.19916 0.0
C3508 C 0.30311 0.99929 0.23286 0.0
C3509 C 0.27949 0.00884 0.23843 0.0
C3510 C 0.26487 0.01897 0.22459 0.0
C3511 C 0.26998 0.01617 0.20459 0.0
C3512 C 0.26732 0.00508 0.25753 0.0
C3513 C 0.27819 0.01398 0.27378 0.0
C3514 C 0.24833 0.99092 0.26011 0.0
C3515 C 0.23574 0.98074 0.24367 0.0
C3516 C 0.21585 0.98866 0.23127 0.0
C3517 C 0.20039 0.9783 0.21807 0.0
C3518 C 0.20444 0.95998 0.21732 0.0
C3519 C 0.22422 0.952 0.22957 0.0
C3520 C 0.23977 0.9623 0.24275 0.0
C3521 C 0.21195 0.00307 0.34078 0.0
C3522 C 0.23139 0.99622 0.35413 0.0
C3523 C 0.2165 0.00072 0.3207 0.0
C3524 C 0.23974 0.99105 0.31459 0.0
C3525 C 0.25459 0.9806 0.328 0.0
C3526 C 0.25006 0.98304 0.34811 0.0
C3527 C 0.25148 0.99501 0.29542 0.0
C3528 C 0.24057 0.98613 0.2792 0.0
C3529 C 0.27051 0.00913 0.29286 0.0
C3530 C 0.28335 0.01909 0.30936 0.0
C3531 C 0.30355 0.01104 0.3214 0.0
C3532 C 0.31905 0.02121 0.33475 0.0
C3533 C 0.31471 0.03948 0.33602 0.0
C3534 C 0.29463 0.0476 0.32412 0.0
C3535 C 0.27904 0.03747 0.31079 0.0
H3536 H 0.32688 0.04735 0.34626 0.0
H3537 H 0.19228 0.95198 0.20722 0.0
H3538 H 0.98052 0.25785 0.35647 0.0
H3539 H 0.97771 0.26296 0.32093 0.0
H3540 H 0.06682 0.25826 0.31639 0.0
H3541 H 0.06952 0.25249 0.35201 0.0
H3542 H 0.01312 0.28135 0.28681 0.0
H3543 H 0.06625 0.22711 0.30734 0.0
H3544 H 0.07667 0.20007 0.32644 0.0
H3545 H 0.9917 0.1834 0.32104 0.0
H3546 H 0.98059 0.21066 0.30249 0.0
H3547 H 0.03849 0.24132 0.19679 0.0
H3548 H 0.0422 0.23627 0.23232 0.0
H3549 H 0.95331 0.24156 0.23807 0.0
H3550 H 0.94973 0.24729 0.20247 0.0
H3551 H 1.00762 0.21807 0.26691 0.0
H3552 H 0.95386 0.27269 0.2477 0.0
H3553 H 0.94314 0.29971 0.22863 0.0
H3554 H 0.0288 0.31545 0.23151 0.0
H3555 H 0.04014 0.28819 0.25005 0.0
C3556 C 0.99963 0.25928 0.34812 0.0
C3557 C 0.02499 0.25382 0.35622 0.0
C3558 C 0.99798 0.26187 0.32784 0.0
C3559 C 0.02195 0.25971 0.31638 0.0
C3560 C 0.04814 0.25909 0.32529 0.0
C3561 C 0.0497 0.25623 0.3456 0.0
C3562 C 0.01852 0.25435 0.29594 0.0
C3563 C 0.01229 0.26754 0.2823 0.0
C3564 C 0.01656 0.23623 0.29061 0.0
C3565 C 0.02238 0.22131 0.30425 0.0
C3566 C 0.04956 0.21805 0.3109 0.0
C3567 C 0.05567 0.20255 0.32141 0.0
C3568 C 0.03484 0.19006 0.32502 0.0
C3569 C 1.0078 0.1931 0.31829 0.0
C3570 C 1.00155 0.20864 0.30792 0.0
C3571 C 0.0196 0.24005 0.20542 0.0
C3572 C 0.99406 0.24549 0.19761 0.0
C3573 C 0.02176 0.23746 0.22567 0.0
C3574 C 0.99813 0.23973 0.23745 0.0
C3575 C 0.97172 0.24058 0.22891 0.0
C3576 C 0.96964 0.24344 0.20863 0.0
C3577 C 1.00214 0.24506 0.25784 0.0
C3578 C 1.00848 0.23187 0.27143 0.0
C3579 C 1.00411 0.26317 0.26316 0.0
C3580 C 0.99801 0.27804 0.24955 0.0
C3581 C 0.97057 0.28156 0.24363 0.0
C3582 C 0.96432 0.29705 0.23313 0.0
C3583 C 0.98529 0.30926 0.2288 0.0
C3584 C 0.0126 0.30596 0.23481 0.0
C3585 C 0.01897 0.29043 0.24516 0.0
H3586 H 0.98037 0.32129 0.22079 0.0
H3587 H 0.03967 0.17801 0.33302 0.0
H3588 H 0.2241 0.22299 0.95614 0.0
H3589 H 0.21991 0.22788 0.99097 0.0
H3590 H 0.23726 0.28368 0.98251 0.0
H3591 H 0.24548 0.27784 0.94733 0.0
H3592 H 0.27815 0.2699 0.99859 0.0
H3593 H 0.18227 0.26385 1.01159 0.0
H3594 H 0.13912 0.24932 1.00119 0.0
H3595 H 0.16621 0.20054 0.02748 0.0
H3596 H 0.2112 0.21409 0.0358 0.0
H3597 H 0.3013 0.27271 0.10026 0.0
H3598 H 0.30214 0.27311 0.06482 0.0
H3599 H 0.27828 0.21788 0.06355 0.0
H3600 H 0.27373 0.21845 0.09955 0.0
H3601 H 0.23658 0.23663 0.0544 0.0
H3602 H 0.33371 0.24034 0.03014 0.0
H3603 H 0.38127 0.25254 0.03215 0.0
H3604 H 0.34889 0.30534 0.02815 0.0
H3605 H 0.30131 0.29346 1.02533 0.0
C3606 C 0.22544 0.23646 0.96163 0.0
C3607 C 0.23634 0.24989 0.94984 0.0
C3608 C 0.22258 0.23942 0.98167 0.0
C3609 C 0.22909 0.25615 0.98956 0.0
C3610 C 0.23292 0.27059 0.97669 0.0
C3611 C 0.23746 0.26734 0.95667 0.0
C3612 C 0.24121 0.25673 1.00955 0.0
C3613 C 0.26866 0.263 1.01097 0.0
C3614 C 0.22923 0.24733 1.02552 0.0
C3615 C 0.2004 0.24009 1.02431 0.0
C3616 C 0.17911 0.25004 1.01528 0.0
C3617 C 0.15444 0.24186 1.00943 0.0
C3618 C 0.1497 0.22407 1.01391 0.0
C3619 C 0.16985 0.21436 1.0241 0.0
C3620 C 0.19519 0.22223 0.02914 0.0
C3621 C 0.29809 0.26034 0.09242 0.0
C3622 C 0.28616 0.24585 0.10205 0.0
C3623 C 0.29883 0.26047 0.07193 0.0
C3624 C 0.2891 0.24568 0.0614 0.0
C3625 C 0.28492 0.22961 0.0715 0.0
C3626 C 0.28255 0.22983 0.09204 0.0
C3627 C 0.274 0.24876 0.04274 0.0
C3628 C 0.24586 0.24353 0.04195 0.0
C3629 C 0.28523 0.25906 0.02728 0.0
C3630 C 0.31403 0.26601 0.02773 0.0
C3631 C 0.33681 0.25454 0.02972 0.0
C3632 C 0.36373 0.2614 0.03104 0.0
C3633 C 0.36807 0.27969 0.03071 0.0
C3634 C 0.34553 0.29118 0.02851 0.0
C3635 C 0.31862 0.28439 0.02681 0.0
H3636 H 0.38892 0.28495 0.03198 0.0
H3637 H 0.13046 0.21781 1.00944 0.0
H3638 H 0.94932 0.02485 0.09482 0.0
H3639 H 0.96319 0.03615 0.06234 0.0
H3640 H 0.04469 0.0135 0.07099 0.0
H3641 H 0.03243 0.00537 0.10408 0.0
H3642 H 0.04646 0.02145 0.03863 0.0
H3643 H 0.94509 0.98153 0.05578 0.0
H3644 H 0.89449 0.98583 0.05872 0.0
H3645 H 0.90073 0.0359 0.0291 0.0
H3646 H 0.95114 0.03133 1.0247 0.0
H3647 H 0.05936 0.97513 0.95666 0.0
H3648 H 0.0512 0.96782 0.99163 0.0
H3649 H 0.97146 0.99426 0.98762 0.0
H3650 H 0.97986 0.00056 0.95341 0.0
H3651 H 0.97055 0.98096 1.01881 0.0
H3652 H 0.07628 0.02139 1.00737 0.0
H3653 H 0.12676 0.01629 1.00995 0.0
H3654 H 0.11211 0.96312 0.02987 0.0
H3655 H 0.06156 0.96829 0.02872 0.0
C3656 C 0.97071 0.0235 0.09008 0.0
C3657 C 0.98955 0.01337 0.10107 0.0
C3658 C 0.97838 0.02933 0.07125 0.0
C3659 C 1.00323 0.02298 0.06295 0.0
C3660 C 0.02436 0.01752 0.07616 0.0
C3661 C 0.0174 0.01271 0.09535 0.0
C3662 C 1.00355 0.01479 0.04283 0.0
C3663 C 0.02951 0.01307 0.03366 0.0
C3664 C 0.98181 0.00323 0.03677 0.0
C3665 C 0.95209 0.00656 0.04093 0.0
C3666 C 0.93577 0.99365 0.05034 0.0
C3667 C 0.90708 0.99606 0.05213 0.0
C3668 C 0.89452 0.01141 0.04482 0.0
C3669 C 0.91053 0.02416 0.03511 0.0
C3670 C 0.9391 0.02159 0.03277 0.0
C3671 C 0.03983 0.97855 0.96353 0.0
C3672 C 0.02108 0.98937 0.95343 0.0
C3673 C 0.03527 0.97474 0.9835 0.0
C3674 C 0.01208 0.98212 0.99306 0.0
C3675 C 0.99029 0.98891 0.9812 0.0
C3676 C 0.99487 0.99254 0.96137 0.0
C3677 C 0.01318 0.98811 1.01403 0.0
C3678 C 0.98754 0.98936 1.02371 0.0
C3679 C 0.03519 0.99924 1.02044 0.0
C3680 C 0.065 0.99504 1.01729 0.0
C3681 C 0.08381 0.00851 1.01199 0.0
C3682 C 0.11244 0.00574 1.01363 0.0
C3683 C 0.12264 0.98937 1.02002 0.0
C3684 C 0.1042 0.97577 1.02485 0.0
C3685 C 0.07553 0.97866 1.02385 0.0
H3686 H 0.14483 0.98722 1.02112 0.0
H3687 H 0.87231 0.01324 0.04634 0.0
H3688 H 0.71451 0.01474 0.8535 0.0
H3689 H 0.71231 0.01669 0.81813 0.0
H3690 H 0.7424 0.96287 0.81334 0.0
H3691 H 0.74858 0.96213 0.84919 0.0
H3692 H 0.78161 0.98391 0.80511 0.0
H3693 H 0.68435 0.98391 0.7856 0.0
H3694 H 0.63587 0.99347 0.79076 0.0
H3695 H 0.65964 0.04761 0.78121 0.0
H3696 H 0.70831 0.03845 0.7764 0.0
H3697 H 0.78749 0.9745 0.70686 0.0
H3698 H 0.795 0.97834 0.74175 0.0
H3699 H 0.77671 0.03427 0.73629 0.0
H3700 H 0.76732 0.02988 0.70092 0.0
H3701 H 0.73549 0.01794 0.75172 0.0
H3702 H 0.83237 0.01671 0.76703 0.0
H3703 H 0.8804 0.00651 0.76139 0.0
H3704 H 0.85691 0.95351 0.77707 0.0
H3705 H 0.80871 0.96328 0.78265 0.0
C3706 C 0.71882 0.0029 0.84495 0.0
C3707 C 0.7331 0.98869 0.85348 0.0
C3708 C 0.71737 0.00395 0.8245 0.0
C3709 C 0.72846 0.99016 0.81301 0.0
C3710 C 0.73474 0.97388 0.82207 0.0
C3711 C 0.73799 0.97331 0.84253 0.0
C3712 C 0.74266 0.9948 0.79442 0.0
C3713 C 0.77131 0.99099 0.79319 0.0
C3714 C 0.72986 0.00524 0.77968 0.0
C3715 C 0.70008 0.01047 0.78069 0.0
C3716 C 0.67924 0.99785 0.78453 0.0
C3717 C 0.65172 0.00321 0.78747 0.0
C3718 C 0.64469 0.02113 0.78635 0.0
C3719 C 0.6651 0.03372 0.78207 0.0
C3720 C 0.69265 0.02845 0.77918 0.0
C3721 C 0.78647 0.98775 0.71302 0.0
C3722 C 0.77588 0.00178 0.70196 0.0
C3723 C 0.79136 0.99011 0.73298 0.0
C3724 C 0.78565 0.00657 0.74177 0.0
C3725 C 0.78079 0.02143 0.72972 0.0
C3726 C 0.77521 0.01895 0.70968 0.0
C3727 C 0.77401 0.00612 0.76183 0.0
C3728 C 0.74585 0.01093 0.76367 0.0
C3729 C 0.7872 0.99645 0.77703 0.0
C3730 C 0.81684 0.99082 0.77546 0.0
C3731 C 0.83746 0.00291 0.76946 0.0
C3732 C 0.86473 0.99718 0.76623 0.0
C3733 C 0.87173 0.9794 0.76899 0.0
C3734 C 0.85151 0.96731 0.77511 0.0
C3735 C 0.82423 0.97297 0.77843 0.0
H3736 H 0.89278 0.97497 0.76627 0.0
H3737 H 0.62343 0.02527 0.78879 0.0
H3738 H 0.06629 0.73844 0.84588 0.0
H3739 H 0.06566 0.74428 0.81087 0.0
H3740 H 1.00221 0.78408 0.81953 0.0
H3741 H 1.00129 0.77684 0.85476 0.0
H3742 H 0.98049 0.75519 0.80591 0.0
H3743 H 0.06107 0.78873 0.78715 0.0
H3744 H 0.11078 0.79551 0.7916 0.0
H3745 H 0.13243 0.7437 0.77049 0.0
H3746 H 0.08285 0.73642 0.76632 0.0
H3747 H 0.95182 0.75834 0.70527 0.0
H3748 H 0.9533 0.7551 0.74081 0.0
H3749 H 0.01939 0.71669 0.73515 0.0
H3750 H 0.019 0.72105 0.69939 0.0
H3751 H 0.03966 0.74688 0.74661 0.0
H3752 H 0.96274 0.71165 0.76938 0.0
H3753 H 0.9139 0.70175 0.76903 0.0
H3754 H 0.88698 0.75422 0.78421 0.0
H3755 H 0.93568 0.76444 0.7847 0.0
C3756 C 0.05372 0.74934 0.84048 0.0
C3757 C 0.03299 0.75669 0.85239 0.0
C3758 C 0.05341 0.75282 0.82033 0.0
C3759 C 0.03298 0.76414 0.81249 0.0
C3760 C 0.01756 0.77495 0.82535 0.0
C3761 C 0.01714 0.77093 0.84547 0.0
C3762 C 0.02116 0.75955 0.79303 0.0
C3763 C 0.99326 0.75387 0.79274 0.0
C3764 C 0.0382 0.75688 0.77629 0.0
C3765 C 0.0681 0.76204 0.77636 0.0
C3766 C 0.07641 0.77882 0.78329 0.0
C3767 C 0.10459 0.78272 0.78587 0.0
C3768 C 0.12475 0.77004 0.78133 0.0
C3769 C 0.11679 0.75352 0.77395 0.0
C3770 C 0.08863 0.74952 0.7714 0.0
C3771 C 0.96513 0.74819 0.71153 0.0
C3772 C 0.98636 0.74068 0.70015 0.0
C3773 C 0.96608 0.74632 0.73199 0.0
C3774 C 0.98749 0.73629 0.74063 0.0
C3775 C 1.00332 0.72492 0.72867 0.0
C3776 C 1.00287 0.72722 0.70821 0.0
C3777 C 0.9991 0.74236 0.75964 0.0
C3778 C 0.02687 0.74837 0.75975 0.0
C3779 C 0.98211 0.74513 0.77634 0.0
C3780 C 0.95288 0.73881 0.77706 0.0
C3781 C 0.94642 0.72106 0.77272 0.0
C3782 C 0.91876 0.71538 0.77255 0.0
C3783 C 0.89736 0.72734 0.77662 0.0
C3784 C 0.90359 0.74496 0.7811 0.0
C3785 C 0.93123 0.75068 0.78146 0.0
H3786 H 0.87594 0.72297 0.77623 0.0
H3787 H 0.14655 0.77302 0.78354 0.0
H3788 H 0.70238 0.75445 0.95801 0.0
H3789 H 0.71032 0.76282 0.99219 0.0
H3790 H 0.79835 0.76689 0.98068 0.0
H3791 H 0.7902 0.75839 0.94633 0.0
H3792 H 0.78184 0.73484 0.99739 0.0
H3793 H 0.76937 0.79645 1.0099 0.0
H3794 H 0.74464 0.82455 1.00412 0.0
H3795 H 0.67144 0.80321 0.03155 0.0
H3796 H 0.69557 0.77482 0.03717 0.0
H3797 H 0.81895 0.74359 0.09617 0.0
H3798 H 0.81141 0.7354 0.06187 0.0
H3799 H 0.72339 0.7306 0.07303 0.0
H3800 H 0.73114 0.73881 0.1075 0.0
H3801 H 0.7399 0.76309 0.05655 0.0
H3802 H 0.75213 0.70153 0.04391 0.0
H3803 H 0.77688 0.6735 0.05008 0.0
H3804 H 0.85038 0.69479 1.02301 0.0
H3805 H 0.82625 0.72312 1.01703 0.0
C3806 C 0.72304 0.7586 0.96242 0.0
C3807 C 0.74592 0.75514 0.9503 0.0
C3808 C 0.72766 0.76339 0.98197 0.0
C3809 C 0.75509 0.7646 0.98892 0.0
C3810 C 0.77715 0.76559 0.97545 0.0
C3811 C 0.77249 0.76081 0.95587 0.0
C3812 C 0.76051 0.75794 1.00888 0.0
C3813 C 0.77329 0.74119 1.01046 0.0
C3814 C 0.74807 0.76588 1.02549 0.0
C3815 C 0.73431 0.78347 1.02397 0.0
C3816 C 0.74803 0.79776 1.01479 0.0
C3817 C 0.73409 0.81372 1.01147 0.0
C3818 C 0.70648 0.81566 1.01746 0.0
C3819 C 0.69285 0.80169 0.02695 0.0
C3820 C 0.70669 0.78566 0.03027 0.0
C3821 C 0.79841 0.73928 0.09166 0.0
C3822 C 0.77536 0.74254 0.1037 0.0
C3823 C 0.79401 0.73464 0.07203 0.0
C3824 C 0.76666 0.73331 0.06498 0.0
C3825 C 0.74452 0.73201 0.07835 0.0
C3826 C 0.74899 0.73659 0.09802 0.0
C3827 C 0.76124 0.74002 0.04504 0.0
C3828 C 0.74846 0.75675 0.04347 0.0
C3829 C 0.77364 0.73207 0.02844 0.0
C3830 C 0.78735 0.71447 0.03 0.0
C3831 C 0.77354 0.70021 0.03916 0.0
C3832 C 0.78749 0.68429 0.04271 0.0
C3833 C 0.81519 0.68237 0.03695 0.0
C3834 C 0.82889 0.6963 0.02743 0.0
C3835 C 0.81506 0.71229 1.0239 0.0
H3836 H 0.82604 0.67008 0.03987 0.0
H3837 H 0.69565 0.82799 1.01473 0.0
H3838 H 0.27074 0.4698 0.85453 0.0
H3839 H 0.26969 0.46293 0.81909 0.0
H3840 H 0.20683 0.5031 0.81085 0.0
H3841 H 0.20558 0.50822 0.84608 0.0
H3842 H 0.21172 0.48779 0.77915 0.0
H3843 H 0.30136 0.51873 0.81788 0.0
H3844 H 0.34033 0.51331 0.841 0.0
H3845 H 0.35012 0.46087 0.81738 0.0
H3846 H 0.31055 0.46591 0.79469 0.0
H3847 H 0.25027 0.52593 0.69663 0.0
H3848 H 0.24908 0.53386 0.73175 0.0
H3849 H 0.31478 0.49606 0.74285 0.0
H3850 H 0.31774 0.48981 0.70799 0.0
H3851 H 0.30783 0.51096 0.77353 0.0
H3852 H 0.22093 0.48046 0.73267 0.0
H3853 H 0.18142 0.48561 0.70995 0.0
H3854 H 0.1669 0.53624 0.73703 0.0
H3855 H 0.20706 0.53155 0.75927 0.0
C3856 C 0.25524 0.47606 0.8452 0.0
C3857 C 0.23912 0.49008 0.8524 0.0
C3858 C 0.25521 0.47253 0.82494 0.0
C3859 C 0.2405 0.48388 0.81228 0.0
C3860 C 0.2194 0.49464 0.82023 0.0
C3861 C 0.21855 0.4976 0.84048 0.0
C3862 C 0.25198 0.48918 0.79292 0.0
C3863 C 0.23297 0.49246 0.77768 0.0
C3864 C 0.27952 0.4958 0.79117 0.0
C3865 C 0.30192 0.49229 0.80565 0.0
C3866 C 0.31123 0.50584 0.81822 0.0
C3867 C 0.33355 0.5029 0.83109 0.0
C3868 C 0.34739 0.48663 0.83092 0.0
C3869 C 0.33905 0.47334 0.81778 0.0
C3870 C 0.31655 0.4762 0.80504 0.0
C3871 C 0.26581 0.52046 0.70653 0.0
C3872 C 0.28311 0.50662 0.7003 0.0
C3873 C 0.26463 0.52461 0.72662 0.0
C3874 C 0.27964 0.51414 0.74005 0.0
C3875 C 0.30191 0.50383 0.73294 0.0
C3876 C 0.30378 0.5002 0.71288 0.0
C3877 C 0.26782 0.50915 0.75944 0.0
C3878 C 0.28666 0.50611 0.77484 0.0
C3879 C 0.24024 0.50258 0.76122 0.0
C3880 C 0.21787 0.50608 0.74673 0.0
C3881 C 0.20996 0.49296 0.73314 0.0
C3882 C 0.18731 0.49572 0.72052 0.0
C3883 C 0.17191 0.51138 0.72183 0.0
C3884 C 0.17912 0.52426 0.73579 0.0
C3885 C 0.20193 0.5216 0.74829 0.0
H3886 H 0.15418 0.51342 0.71221 0.0
H3887 H 0.36481 0.48441 0.84077 0.0
H3888 H 0.28688 0.75952 0.44331 0.0
H3889 H 0.2964 0.76535 0.47824 0.0
H3890 H 0.20977 0.75675 0.49177 0.0
H3891 H 0.20039 0.75079 0.45697 0.0
H3892 H 0.23934 0.77826 0.51883 0.0
H3893 H 0.2483 0.71003 0.49666 0.0
H3894 H 0.26946 0.6873 0.47509 0.0
H3895 H 0.3456 0.71693 0.47362 0.0
H3896 H 0.32473 0.73981 0.49516 0.0
H3897 H 0.22772 0.73432 0.60799 0.0
H3898 H 0.22329 0.73118 0.5721 0.0
H3899 H 0.31106 0.74134 0.56573 0.0
H3900 H 0.31547 0.74406 0.60155 0.0
H3901 H 0.28409 0.72075 0.53503 0.0
H3902 H 0.2721 0.79102 0.5545 0.0
H3903 H 0.24912 0.81387 0.57489 0.0
H3904 H 0.17747 0.78044 0.58115 0.0
H3905 H 0.1999 0.75757 0.56049 0.0
C3906 C 0.2696 0.76024 0.45358 0.0
C3907 C 0.24324 0.75403 0.44813 0.0
C3908 C 0.27516 0.76323 0.47347 0.0
C3909 C 0.25401 0.76044 0.48727 0.0
C3910 C 0.22637 0.75848 0.48109 0.0
C3911 C 0.2209 0.75534 0.46125 0.0
C3912 C 0.26074 0.75551 0.50747 0.0
C3913 C 0.24947 0.76582 0.52249 0.0
C3914 C 0.27342 0.73907 0.5119 0.0
C3915 C 0.28464 0.72691 0.49678 0.0
C3916 C 0.26936 0.71184 0.49136 0.0
C3917 C 0.28136 0.69887 0.47929 0.0
C3918 C 0.30876 0.70077 0.4728 0.0
C3919 C 0.32422 0.71563 0.47838 0.0
C3920 C 0.31227 0.72865 0.4904 0.0
C3921 C 0.24636 0.73442 0.59899 0.0
C3922 C 0.27151 0.74058 0.60685 0.0
C3923 C 0.24365 0.73321 0.57855 0.0
C3924 C 0.26647 0.73746 0.56667 0.0
C3925 C 0.29308 0.73877 0.57496 0.0
C3926 C 0.29571 0.73989 0.5954 0.0
C3927 C 0.26239 0.74343 0.54644 0.0
C3928 C 0.27424 0.73329 0.53145 0.0
C3929 C 0.2501 0.76003 0.54202 0.0
C3930 C 0.23826 0.77222 0.55688 0.0
C3931 C 0.2517 0.78842 0.56062 0.0
C3932 C 0.23864 0.80146 0.572 0.0
C3933 C 0.21199 0.79852 0.57953 0.0
C3934 C 0.19832 0.78255 0.57563 0.0
C3935 C 0.21127 0.76949 0.56419 0.0
H3936 H 0.20185 0.80866 0.58826 0.0
H3937 H 0.31809 0.69065 0.46359 0.0
H3938 H 0.03928 0.52601 0.45118 0.0
H3939 H 0.04172 0.52611 0.48641 0.0
H3940 H 0.04115 0.46873 0.48693 0.0
H3941 H 0.03329 0.46909 0.45115 0.0
H3942 H 0.99605 0.47862 0.49956 0.0
H3943 H 0.08867 0.50166 0.51494 0.0
H3944 H 0.12681 0.52277 0.50822 0.0
H3945 H 0.07335 0.56639 0.52178 0.0
H3946 H 0.0347 0.54586 0.52821 0.0
H3947 H 0.98884 0.47242 0.60071 0.0
H3948 H 0.98372 0.47229 0.56543 0.0
H3949 H 0.97706 0.52949 0.5654 0.0
H3950 H 0.9863 0.52948 0.60106 0.0
H3951 H 0.02385 0.52056 0.55227 0.0
H3952 H 0.93268 0.49701 0.54068 0.0
H3953 H 0.89719 0.47573 0.55168 0.0
H3954 H 0.94706 0.43255 0.53083 0.0
H3955 H 0.98427 0.45331 0.52164 0.0
C3956 C 0.0413 0.51341 0.45878 0.0
C3957 C 0.03472 0.49764 0.44913 0.0
C3958 C 0.04321 0.51339 0.47918 0.0
C3959 C 0.04071 0.49736 0.48962 0.0
C3960 C 0.04212 0.48127 0.47914 0.0
C3961 C 0.03791 0.48139 0.45874 0.0
C3962 C 0.02705 0.49768 0.50914 0.0
C3963 C 1.00261 0.4875 0.5113 0.0
C3964 C 0.0344 0.51005 0.52395 0.0
C3965 C 0.05872 0.52214 0.52214 0.0
C3966 C 0.08508 0.51573 0.51667 0.0
C3967 C 0.10676 0.52759 0.51281 0.0
C3968 C 0.10253 0.5458 0.51459 0.0
C3969 C 0.07665 0.55227 0.52046 0.0
C3970 C 0.05487 0.54053 0.52429 0.0
C3971 C 0.98475 0.48487 0.59322 0.0
C3972 C 0.98926 0.50096 0.60281 0.0
C3973 C 0.98128 0.48484 0.57295 0.0
C3974 C 0.98085 0.50099 0.56262 0.0
C3975 C 0.9781 0.51695 0.57318 0.0
C3976 C 0.98329 0.517 0.59344 0.0
C3977 C 0.99324 0.50133 0.54277 0.0
C3978 C 0.01735 0.51167 0.5405 0.0
C3979 C 0.98563 0.48905 0.52797 0.0
C3980 C 0.96144 0.47685 0.5304 0.0
C3981 C 0.93612 0.483 0.53829 0.0
C3982 C 0.91574 0.47099 0.54439 0.0
C3983 C 0.91958 0.45285 0.54159 0.0
C3984 C 0.94399 0.44663 0.53285 0.0
C3985 C 0.9649 0.45852 0.52736 0.0
H3986 H 0.90373 0.4436 0.54633 0.0
H3987 H 0.11931 0.55491 0.5114 0.0
H3988 H 0.8185 0.48137 0.20831 0.0
H3989 H 0.81235 0.48791 0.24334 0.0
H3990 H 0.75243 0.52836 0.22865 0.0
H3991 H 0.75825 0.52156 0.1935 0.0
H3992 H 0.79903 0.52091 0.27135 0.0
H3993 H 0.71196 0.50891 0.23259 0.0
H3994 H 0.6815 0.49441 0.20808 0.0
H3995 H 0.71135 0.44342 0.22656 0.0
H3996 H 0.74267 0.4577 0.25073 0.0
H3997 H 0.70317 0.51529 0.34643 0.0
H3998 H 0.70807 0.51083 0.31087 0.0
H3999 H 0.76935 0.4702 0.32146 0.0
H4000 H 0.76495 0.47501 0.35713 0.0
H4001 H 0.72073 0.4788 0.2807 0.0
H4002 H 0.80947 0.49026 0.31791 0.0
H4003 H 0.84078 0.50431 0.34221 0.0
H4004 H 0.80857 0.5555 0.32667 0.0
H4005 H 0.77649 0.54165 0.30269 0.0
C4006 C 0.80572 0.49256 0.21254 0.0
C4007 C 0.78776 0.50043 0.19886 0.0
C4008 C 0.80191 0.49612 0.23245 0.0
C4009 C 0.78075 0.50778 0.23805 0.0
C4010 C 0.76806 0.51884 0.22417 0.0
C4011 C 0.77178 0.51519 0.2042 0.0
C4012 C 0.76796 0.50498 0.25714 0.0
C4013 C 0.7816 0.51197 0.27349 0.0
C4014 C 0.7459 0.49272 0.25951 0.0
C4015 C 0.73051 0.48445 0.24289 0.0
C4016 C 0.71286 0.49468 0.23088 0.0
C4017 C 0.69517 0.48647 0.21722 0.0
C4018 C 0.69459 0.46801 0.21568 0.0
C4019 C 0.71188 0.45772 0.22769 0.0
C4020 C 0.72977 0.46587 0.24125 0.0
C4021 C 0.71601 0.50447 0.34116 0.0
C4022 C 0.73468 0.496 0.35388 0.0
C4023 C 0.71912 0.50214 0.32095 0.0
C4024 C 0.74022 0.49099 0.31411 0.0
C4025 C 0.75374 0.47931 0.32693 0.0
C4026 C 0.75081 0.48179 0.34718 0.0
C4027 C 0.7519 0.49466 0.29487 0.0
C4028 C 0.73805 0.48782 0.27853 0.0
C4029 C 0.77389 0.50695 0.29251 0.0
C4030 C 0.78978 0.51483 0.3091 0.0
C4031 C 0.80831 0.50442 0.32021 0.0
C4032 C 0.82648 0.51238 0.33374 0.0
C4033 C 0.82661 0.53078 0.33604 0.0
C4034 C 0.80839 0.54125 0.32494 0.0
C4035 C 0.79007 0.53334 0.3115 0.0
H4036 H 0.84082 0.53692 0.34641 0.0
H4037 H 0.6807 0.46169 0.20523 0.0
H4038 H 0.74988 0.27806 0.44867 0.0
H4039 H 0.74012 0.2851 0.4835 0.0
H4040 H 0.72188 0.2298 0.49416 0.0
H4041 H 0.73075 0.22319 0.4599 0.0
H4042 H 0.70971 0.24585 0.52485 0.0
H4043 H 0.80653 0.25302 0.48102 0.0
H4044 H 0.83382 0.27404 0.46072 0.0
H4045 H 0.80536 0.31723 0.49685 0.0
H4046 H 0.7777 0.29644 0.5171 0.0
H4047 H 0.77141 0.21706 0.60215 0.0
H4048 H 0.77825 0.21177 0.56671 0.0
H4049 H 0.81116 0.26478 0.56081 0.0
H4050 H 0.80791 0.26886 0.59594 0.0
H4051 H 0.81174 0.2544 0.52864 0.0
H4052 H 0.71392 0.24634 0.57286 0.0
H4053 H 0.68641 0.22473 0.59214 0.0
H4054 H 0.71368 0.18298 0.55353 0.0
H4055 H 0.74203 0.20435 0.53457 0.0
C4056 C 0.74234 0.26775 0.45846 0.0
C4057 C 0.74217 0.25002 0.45238 0.0
C4058 C 0.73674 0.27173 0.47825 0.0
C4059 C 0.73256 0.25777 0.49169 0.0
C4060 C 0.72627 0.24081 0.48434 0.0
C4061 C 0.73172 0.23686 0.46476 0.0
C4062 C 0.74538 0.25809 0.51151 0.0
C4063 C 0.73185 0.24839 0.52628 0.0
C4064 C 0.77439 0.2609 0.51307 0.0
C4065 C 0.78975 0.2733 0.50022 0.0
C4066 C 0.80593 0.26703 0.48441 0.0
C4067 C 0.82145 0.27888 0.47296 0.0
C4068 C 0.82122 0.29697 0.47743 0.0
C4069 C 0.80538 0.30325 0.49332 0.0
C4070 C 0.7897 0.29146 0.50471 0.0
C4071 C 0.78199 0.22695 0.59329 0.0
C4072 C 0.78782 0.24371 0.60106 0.0
C4073 C 0.78521 0.22416 0.57301 0.0
C4074 C 0.79155 0.2387 0.56085 0.0
C4075 C 0.80449 0.25353 0.56956 0.0
C4076 C 0.8026 0.25601 0.58982 0.0
C4077 C 0.77622 0.24186 0.54213 0.0
C4078 C 0.78947 0.25224 0.52777 0.0
C4079 C 0.74688 0.23958 0.54095 0.0
C4080 C 0.73112 0.22675 0.55306 0.0
C4081 C 0.71473 0.23247 0.56899 0.0
C4082 C 0.69883 0.22029 0.57973 0.0
C4083 C 0.6986 0.20243 0.57424 0.0
C4084 C 0.71417 0.19675 0.55795 0.0
C4085 C 0.73025 0.20887 0.54729 0.0
H4086 H 0.68613 0.19304 0.58247 0.0
H4087 H 0.8334 0.30611 0.46865 0.0
H4088 H 0.50823 0.27816 0.85517 0.0
H4089 H 0.51005 0.28623 0.82008 0.0
H4090 H 0.56447 0.24168 0.8095 0.0
H4091 H 0.56533 0.23531 0.84435 0.0
H4092 H 0.56075 0.25551 0.77846 0.0
H4093 H 0.4662 0.2386 0.82117 0.0
H4094 H 0.4302 0.25036 0.84375 0.0
H4095 H 0.43253 0.30027 0.81322 0.0
H4096 H 0.46925 0.28887 0.79104 0.0
H4097 H 0.51146 0.21706 0.69948 0.0
H4098 H 0.50882 0.21119 0.73508 0.0
H4099 H 0.45761 0.25774 0.74208 0.0
H4100 H 0.4572 0.26195 0.70674 0.0
H4101 H 0.45944 0.24409 0.77429 0.0
H4102 H 0.55763 0.26088 0.73381 0.0
H4103 H 0.59369 0.24877 0.71155 0.0
H4104 H 0.58541 0.19783 0.73929 0.0
H4105 H 0.54851 0.20961 0.76106 0.0
C4106 C 0.52218 0.27106 0.84539 0.0
C4107 C 0.53553 0.2556 0.85178 0.0
C4108 C 0.52261 0.27532 0.82529 0.0
C4109 C 0.53456 0.26329 0.81194 0.0
C4110 C 0.55373 0.25078 0.81926 0.0
C4111 C 0.55433 0.24703 0.83934 0.0
C4112 C 0.52118 0.25923 0.79269 0.0
C4113 C 0.5385 0.25327 0.77744 0.0
C4114 C 0.49211 0.25607 0.79123 0.0
C4115 C 0.4714 0.2632 0.80527 0.0
C4116 C 0.45968 0.25225 0.81983 0.0
C4117 C 0.43901 0.2588 0.83241 0.0
C4118 C 0.42936 0.27615 0.83011 0.0
C4119 C 0.44029 0.28693 0.81518 0.0
C4120 C 0.46112 0.28046 0.80269 0.0
C4121 C 0.49787 0.22508 0.7086 0.0
C4122 C 0.48572 0.2405 0.70098 0.0
C4123 C 0.49715 0.22212 0.72898 0.0
C4124 C 0.48594 0.23524 0.74132 0.0
C4125 C 0.4677 0.2478 0.73301 0.0
C4126 C 0.46729 0.25024 0.71265 0.0
C4127 C 0.49915 0.2399 0.76042 0.0
C4128 C 0.48172 0.24617 0.77544 0.0
C4129 C 0.52819 0.24313 0.76182 0.0
C4130 C 0.54903 0.2358 0.74797 0.0
C4131 C 0.56273 0.24694 0.73451 0.0
C4132 C 0.5835 0.24018 0.72215 0.0
C4133 C 0.59147 0.22244 0.72373 0.0
C4134 C 0.57885 0.21148 0.73779 0.0
C4135 C 0.55788 0.21817 0.75002 0.0
H4136 H 0.6077 0.21725 0.71427 0.0
H4137 H 0.4132 0.28117 0.83975 0.0
H4138 H 0.4609 0.9844 0.59842 0.0
H4139 H 0.46309 0.98807 0.56266 0.0
H4140 H 0.51412 0.03458 0.57002 0.0
H4141 H 0.51327 0.03027 0.60598 0.0
H4142 H 0.46452 0.01538 0.53058 0.0
H4143 H 0.55824 0.02291 0.56368 0.0
H4144 H 0.59412 0.01711 0.58894 0.0
H4145 H 0.582 0.96112 0.58201 0.0
H4146 H 0.54494 0.96667 0.55748 0.0
H4147 H 0.55733 0.01384 0.45265 0.0
H4148 H 0.55609 0.0121 0.48863 0.0
H4149 H 0.50562 0.96501 0.48507 0.0
H4150 H 0.50546 0.96738 0.44889 0.0
H4151 H 0.55575 0.98542 0.52254 0.0
H4152 H 0.46142 0.97714 0.49101 0.0
H4153 H 0.42433 0.98214 0.46643 0.0
H4154 H 0.43667 0.03832 0.47082 0.0
H4155 H 0.47485 0.03355 0.49469 0.0
C4156 C 0.47092 0.9961 0.59242 0.0
C4157 C 0.488 0.00663 0.60434 0.0
C4158 C 0.47246 0.99806 0.57207 0.0
C4159 C 0.49043 0.01082 0.56419 0.0
C4160 C 0.50151 0.02409 0.57625 0.0
C4161 C 0.50047 0.02189 0.59666 0.0
C4162 C 0.50229 0.00728 0.54487 0.0
C4163 C 0.48467 0.00912 0.52866 0.0
C4164 C 0.52816 0.99844 0.54289 0.0
C4165 C 0.54778 0.99527 0.55948 0.0
C4166 C 0.5623 0.00941 0.56819 0.0
C4167 C 0.58309 0.00615 0.58223 0.0
C4168 C 0.59015 0.98876 0.58723 0.0
C4169 C 0.57639 0.97459 0.57825 0.0
C4170 C 0.55526 0.9778 0.56445 0.0
C4171 C 0.54768 0.00242 0.45953 0.0
C4172 C 0.53042 0.9912 0.44856 0.0
C4173 C 0.54664 0.00157 0.48002 0.0
C4174 C 0.52914 0.98914 0.48898 0.0
C4175 C 0.51795 0.97519 0.47798 0.0
C4176 C 0.51845 0.97628 0.45744 0.0
C4177 C 0.51792 0.99346 0.5083 0.0
C4178 C 0.53567 0.99177 0.52445 0.0
C4179 C 0.49205 0.00229 0.51028 0.0
C4180 C 0.47197 0.00491 0.49389 0.0
C4181 C 0.4571 0.99049 0.48608 0.0
C4182 C 0.43562 0.99331 0.47245 0.0
C4183 C 0.42827 0.01053 0.46695 0.0
C4184 C 0.44249 0.02498 0.47498 0.0
C4185 C 0.46427 0.02221 0.48838 0.0
H4186 H 0.41149 0.01268 0.45652 0.0
H4187 H 0.60642 0.98627 0.59797 0.0
H4188 H 0.54172 0.74947 0.19995 0.0
H4189 H 0.55006 0.74215 0.23406 0.0
H4190 H 0.46665 0.72128 0.23907 0.0
H4191 H 0.45838 0.72918 0.20427 0.0
H4192 H 0.47157 0.75329 0.25573 0.0
H4193 H 0.52445 0.69943 0.25978 0.0
H4194 H 0.56046 0.67971 0.24606 0.0
H4195 H 0.6228 0.7191 0.25742 0.0
H4196 H 0.58707 0.73928 0.27056 0.0
H4197 H 0.48809 0.75284 0.35789 0.0
H4198 H 0.47609 0.75923 0.32409 0.0
H4199 H 0.56209 0.77124 0.31135 0.0
H4200 H 0.57443 0.76245 0.34495 0.0
H4201 H 0.55105 0.73994 0.29974 0.0
H4202 H 0.50023 0.79481 0.29359 0.0
H4203 H 0.46496 0.81609 0.30516 0.0
H4204 H 0.40071 0.77765 0.29522 0.0
H4205 H 0.43561 0.75598 0.28405 0.0
C4206 C 0.52596 0.74207 0.20791 0.0
C4207 C 0.49898 0.74078 0.20051 0.0
C4208 C 0.5307 0.73778 0.22752 0.0
C4209 C 0.50852 0.73178 0.23927 0.0
C4210 C 0.48369 0.72634 0.23024 0.0
C4211 C 0.47891 0.73088 0.21055 0.0
C4212 C 0.50836 0.73729 0.26008 0.0
C4213 C 0.48862 0.75013 0.26565 0.0
C4214 C 0.53118 0.73365 0.27244 0.0
C4215 C 0.55309 0.72078 0.26651 0.0
C4216 C 0.54588 0.70382 0.25955 0.0
C4217 C 0.56622 0.69261 0.25171 0.0
C4218 C 0.59392 0.69812 0.25095 0.0
C4219 C 0.60137 0.71481 0.25813 0.0
C4220 C 0.58108 0.72612 0.26584 0.0
C4221 C 0.50412 0.75807 0.34823 0.0
C4222 C 0.53217 0.7563 0.35327 0.0
C4223 C 0.49721 0.76188 0.32874 0.0
C4224 C 0.51852 0.76474 0.3149 0.0
C4225 C 0.54554 0.76837 0.32176 0.0
C4226 C 0.55266 0.76349 0.34099 0.0
C4227 C 0.51529 0.75685 0.29506 0.0
C4228 C 0.53413 0.74332 0.28987 0.0
C4229 C 0.4919 0.76012 0.28295 0.0
C4230 C 0.47066 0.77369 0.28809 0.0
C4231 C 0.4786 0.79087 0.29387 0.0
C4232 C 0.45865 0.803 0.30042 0.0
C4233 C 0.43062 0.7982 0.30098 0.0
C4234 C 0.42244 0.78134 0.29479 0.0
C4235 C 0.4423 0.76913 0.28832 0.0
H4236 H 0.41524 0.80757 0.30619 0.0
H4237 H 0.6096 0.68948 0.24473 0.0
H4238 H 0.45861 0.51875 0.09641 0.0
H4239 H 0.46763 0.52438 0.06093 0.0
H4240 H 0.55063 0.50367 0.06882 0.0
H4241 H 0.5411 0.4982 0.10328 0.0
H4242 H 0.55018 0.51899 0.03698 0.0
H4243 H 0.46932 0.46638 0.05546 0.0
H4244 H 0.4194 0.45943 0.05869 0.0
H4245 H 0.39866 0.5075 0.02806 0.0
H4246 H 0.44845 0.5149 1.02516 0.0
H4247 H 0.5773 0.48162 0.95399 0.0
H4248 H 0.56873 0.46965 0.98716 0.0
H4249 H 0.48245 0.48476 0.9818 0.0
H4250 H 0.49013 0.49353 0.94812 0.0
H4251 H 0.48528 0.4726 1.01338 0.0
H4252 H 0.56377 0.52492 0.99253 0.0
H4253 H 0.61125 0.52722 0.97864 0.0
H4254 H 0.6355 0.4807 1.01098 0.0
H4255 H 0.58786 0.47783 1.02423 0.0
C4256 C 0.479 0.51633 0.09033 0.0
C4257 C 0.49847 0.50691 0.10149 0.0
C4258 C 0.48408 0.5193 0.07025 0.0
C4259 C 0.50888 0.51304 0.06195 0.0
C4260 C 0.53083 0.50809 0.07463 0.0
C4261 C 0.52559 0.5051 0.09453 0.0
C4262 C 0.51028 0.50673 0.0413 0.0
C4263 C 0.53551 0.50926 0.03139 0.0
C4264 C 0.49171 0.49353 0.03433 0.0
C4265 C 0.46256 0.49156 0.0409 0.0
C4266 C 0.45405 0.47582 0.05023 0.0
C4267 C 0.42581 0.47166 0.05168 0.0
C4268 C 0.40589 0.48296 0.04345 0.0
C4269 C 0.41412 0.49874 0.03437 0.0
C4270 C 0.44232 0.50305 0.0331 0.0
C4271 C 0.55622 0.48105 0.95959 0.0
C4272 C 0.53446 0.48926 0.94934 0.0
C4273 C 0.55147 0.47481 0.97874 0.0
C4274 C 0.52601 0.47868 0.98789 0.0
C4275 C 0.50296 0.4825 0.9757 0.0
C4276 C 0.50725 0.48763 0.95624 0.0
C4277 C 0.52476 0.48517 1.00865 0.0
C4278 C 0.4998 0.4825 1.01879 0.0
C4279 C 0.54338 0.49839 1.01568 0.0
C4280 C 0.572 0.50053 1.00821 0.0
C4281 C 0.57907 0.51492 0.99607 0.0
C4282 C 0.60601 0.51638 0.98846 0.0
C4283 C 0.62619 0.50384 0.99355 0.0
C4284 C 0.61971 0.49018 1.00672 0.0
C4285 C 0.59276 0.4886 1.01421 0.0
H4286 H 0.64689 0.50476 0.98742 0.0
H4287 H 0.38407 0.47955 0.04425 0.0
H4288 H 0.45735 0.01338 0.96424 0.0
H4289 H 0.4489 -0.00053 0.93206 0.0
H4290 H 0.37097 0.9788 0.95318 0.0
H4291 H 0.3784 0.99325 0.98516 0.0
H4292 H 0.42221 0.96058 0.91815 0.0
H4293 H 0.33046 0.00758 0.91481 0.0
H4294 H 0.31214 0.036 0.9273 0.0
H4295 H 0.3953 0.05468 0.93697 0.0
H4296 H 0.41404 0.02668 0.92382 0.0
H4297 H 0.33135 0.97754 0.82766 0.0
H4298 H 0.34865 0.96657 0.85956 0.0
H4299 H 0.42293 0.99791 0.85251 0.0
H4300 H 0.40596 0.00863 0.8205 0.0
H4301 H 0.36831 0.0061 0.88147 0.0
H4302 H 0.44651 0.96751 0.86184 0.0
H4303 H 0.46405 0.94129 0.84397 0.0
H4304 H 0.40792 0.908 0.87659 0.0
H4305 H 0.38993 0.93412 0.89453 0.0
C4306 C 0.43866 0.00561 0.96216 0.0
C4307 C 0.41825 0.00479 0.97697 0.0
C4308 C 0.43407 0.9975 0.94394 0.0
C4309 C 0.409 0.98867 0.94042 0.0
C4310 C 0.39006 0.98604 0.95579 0.0
C4311 C 0.39453 0.99418 0.97402 0.0
C4312 C 0.40049 0.98552 0.91999 0.0
C4313 C 0.41021 0.9704 0.91012 0.0
C4314 C 0.38457 0.99835 0.90975 0.0
C4315 C 0.37365 0.01471 0.91912 0.0
C4316 C 0.34482 0.0177 0.91978 0.0
C4317 C 0.33436 0.03383 0.92673 0.0
C4318 C 0.35254 0.04707 0.93314 0.0
C4319 C 0.38122 0.0443 0.93233 0.0
C4320 C 0.39178 0.02827 0.92517 0.0
C4321 C 0.35192 0.98135 0.8326 0.0
C4322 C 0.3673 0.994 0.8221 0.0
C4323 C 0.36188 0.97496 0.85058 0.0
C4324 C 0.38703 0.98138 0.85809 0.0
C4325 C 0.40376 0.99256 0.84657 0.0
C4326 C 0.39397 0.99879 0.82848 0.0
C4327 C 0.39097 0.98158 0.87949 0.0
C4328 C 0.37986 0.99608 0.8896 0.0
C4329 C 0.40567 0.96836 0.88974 0.0
C4330 C 0.41681 0.9527 0.87938 0.0
C4331 C 0.43784 0.9546 0.8651 0.0
C4332 C 0.44788 0.93977 0.85499 0.0
C4333 C 0.43707 0.92299 0.85912 0.0
C4334 C 0.41627 0.921 0.87342 0.0
C4335 C 0.40619 0.9358 0.88358 0.0
H4336 H 0.44484 0.91152 0.85126 0.0
H4337 H 0.3444 0.0595 0.9386 0.0
H4338 H 0.81261 0.2543 0.96622 0.0
H4339 H 0.82536 0.26734 0.93431 0.0
H4340 H 0.91125 0.26938 0.95249 0.0
H4341 H 0.89877 0.25626 0.98435 0.0
H4342 H 0.88697 0.29763 0.92091 0.0
H4343 H 0.90735 0.23595 0.93529 0.0
H4344 H 0.89687 0.20716 0.95086 0.0
H4345 H 0.82083 0.20384 0.91772 0.0
H4346 H 0.83059 0.23285 0.90229 0.0
H4347 H 0.94952 0.26552 0.83019 0.0
H4348 H 0.93542 0.27733 0.86237 0.0
H4349 H 0.85023 0.26348 0.8497 0.0
H4350 H 0.86428 0.25154 0.81754 0.0
H4351 H 0.87715 0.24355 0.87957 0.0
H4352 H 0.86258 0.3052 0.86214 0.0
H4353 H 0.8765 0.33367 0.84722 0.0
H4354 H 0.94784 0.3358 0.88544 0.0
H4355 H 0.9344 0.30727 0.90052 0.0
C4356 C 0.83401 0.25808 0.9636 0.0
C4357 C 0.85477 0.25402 0.97739 0.0
C4358 C 0.84119 0.26576 0.94561 0.0
C4359 C 0.86917 0.26916 0.94126 0.0
C4360 C 0.88954 0.26701 0.95584 0.0
C4361 C 0.88237 0.25936 0.97389 0.0
C4362 C 0.87739 0.26978 0.92046 0.0
C4363 C 0.88514 0.28587 0.91178 0.0
C4364 C 0.87522 0.25427 0.9089 0.0
C4365 C 0.86949 0.23667 0.91786 0.0
C4366 C 0.88824 0.22917 0.9315 0.0
C4367 C 0.88246 0.21281 0.94028 0.0
C4368 C 0.85814 0.2037 0.93535 0.0
C4369 C 0.83961 0.21093 0.92157 0.0
C4370 C 0.84525 0.22734 0.91282 0.0
C4371 C 0.92765 0.26571 0.83399 0.0
C4372 C 0.908 0.25739 0.82176 0.0
C4373 C 0.9196 0.27259 0.85223 0.0
C4374 C 0.89188 0.27114 0.8583 0.0
C4375 C 0.87171 0.26476 0.84508 0.0
C4376 C 0.87974 0.25794 0.82679 0.0
C4377 C 0.88561 0.27164 0.87955 0.0
C4378 C 0.87877 0.25547 0.8885 0.0
C4379 C 0.88953 0.28693 0.89126 0.0
C4380 C 0.89756 0.3041 0.88237 0.0
C4381 C 0.88131 0.31171 0.86728 0.0
C4382 C 0.88908 0.32787 0.85883 0.0
C4383 C 0.91305 0.33654 0.86536 0.0
C4384 C 0.92926 0.32908 0.88041 0.0
C4385 C 0.92154 0.31295 0.88895 0.0
H4386 H 0.91904 0.34904 0.85878 0.0
H4387 H 0.8537 0.19103 0.94214 0.0
H4388 H 0.36608 0.23734 0.32741 0.0
H4389 H 0.35066 0.2507 0.35841 0.0
H4390 H 0.41614 0.28968 0.354 0.0
H4391 H 0.43247 0.27553 0.32343 0.0
H4392 H 0.42081 0.26914 0.38524 0.0
H4393 H 0.34207 0.30153 0.35642 0.0
H4394 H 0.30051 0.30218 0.33492 0.0
H4395 H 0.26352 0.2604 0.36911 0.0
H4396 H 0.30479 0.25946 0.39073 0.0
H4397 H 0.39111 0.26286 0.48666 0.0
H4398 H 0.39852 0.27898 0.45577 0.0
H4399 H 0.32568 0.25386 0.43093 0.0
H4400 H 0.31637 0.23961 0.46224 0.0
H4401 H 0.3288 0.28181 0.4147 0.0
H4402 H 0.39793 0.23839 0.43241 0.0
H4403 H 0.43883 0.22278 0.44569 0.0
H4404 H 0.4916 0.26527 0.4265 0.0
H4405 H 0.45084 0.28175 0.41441 0.0
C4406 C 0.37648 0.24912 0.33282 0.0
C4407 C 0.40043 0.25546 0.32348 0.0
C4408 C 0.36745 0.25694 0.35032 0.0
C4409 C 0.38197 0.27142 0.35832 0.0
C4410 C 0.40449 0.27868 0.34789 0.0
C4411 C 0.41388 0.27059 0.33061 0.0
C4412 C 0.3782 0.27581 0.3794 0.0
C4413 C 0.4009 0.27246 0.39185 0.0
C4414 C 0.35186 0.27924 0.3877 0.0
C4415 C 0.32645 0.28059 0.3753 0.0
C4416 C 0.32501 0.29257 0.35941 0.0
C4417 C 0.30152 0.29295 0.34718 0.0
C4418 C 0.27938 0.28139 0.3507 0.0
C4419 C 0.2806 0.26943 0.36648 0.0
C4420 C 0.30397 0.26904 0.37878 0.0
C4421 C 0.37602 0.26137 0.47488 0.0
C4422 C 0.35345 0.24956 0.47671 0.0
C4423 C 0.38058 0.27041 0.45713 0.0
C4424 C 0.36327 0.26723 0.4408 0.0
C4425 C 0.33956 0.25656 0.44321 0.0
C4426 C 0.33446 0.24808 0.46107 0.0
C4427 C 0.37076 0.27316 0.42061 0.0
C4428 C 0.34905 0.2791 0.40832 0.0
C4429 C 0.39741 0.27005 0.41225 0.0
C4430 C 0.42105 0.26158 0.42294 0.0
C4431 C 0.41805 0.24477 0.43171 0.0
C4432 C 0.4413 0.23569 0.43894 0.0
C4433 C 0.46781 0.243 0.4369 0.0
C4434 C 0.47106 0.25962 0.42813 0.0
C4435 C 0.44784 0.26898 0.42142 0.0
H4436 H 0.48583 0.23583 0.4422 0.0
H4437 H 0.26129 0.28171 0.3412 0.0
H4438 H 0.90211 0.99774 0.31971 0.0
H4439 H 0.91161 0.98404 0.35193 0.0
H4440 H 0.82358 0.98087 0.36342 0.0
H4441 H 0.81398 0.99453 0.33132 0.0
H4442 H 0.85728 0.00728 0.38463 0.0
H4443 H 0.85591 0.94489 0.36734 0.0
H4444 H 0.87154 0.91847 0.34898 0.0
H4445 H 0.9546 0.92599 0.37072 0.0
H4446 H 0.93956 0.9526 0.38898 0.0
H4447 H 0.86634 0.00045 0.48532 0.0
H4448 H 0.85178 0.98893 0.45306 0.0
H4449 H 0.93759 0.97993 0.43735 0.0
H4450 H 0.95217 0.99111 0.46971 0.0
H4451 H 0.90363 0.95689 0.41833 0.0
H4452 H 0.91211 0.01861 0.43051 0.0
H4453 H 0.90428 0.04744 0.44665 0.0
H4454 H 0.81785 0.04523 0.43099 0.0
H4455 H 0.82498 0.0161 0.41524 0.0
C4456 C 0.88482 0.9933 0.32873 0.0
C4457 C 0.85736 0.99748 0.32345 0.0
C4458 C 0.89026 0.98539 0.34702 0.0
C4459 C 0.86823 0.9816 0.35993 0.0
C4460 C 0.84074 0.98367 0.3535 0.0
C4461 C 0.83531 0.99161 0.33532 0.0
C4462 C 0.87356 0.98086 0.38131 0.0
C4463 C 0.86668 0.99606 0.39216 0.0
C4464 C 0.88754 0.96669 0.39057 0.0
C4465 C 0.89663 0.95082 0.3794 0.0
C4466 C 0.87757 0.94102 0.36803 0.0
C4467 C 0.88631 0.92598 0.35769 0.0
C4468 C 0.91405 0.92058 0.35865 0.0
C4469 C 0.93312 0.9302 0.36997 0.0
C4470 C 0.92449 0.94524 0.38034 0.0
C4471 C 0.88195 0.99528 0.4753 0.0
C4472 C 0.91036 0.99696 0.47961 0.0
C4473 C 0.87365 0.98875 0.45693 0.0
C4474 C 0.89373 0.98403 0.44281 0.0
C4475 C 0.92188 0.98363 0.44808 0.0
C4476 C 0.93018 0.99015 0.46642 0.0
C4477 C 0.88616 0.98298 0.42177 0.0
C4478 C 0.89333 0.96782 0.4109 0.0
C4479 C 0.87349 0.99755 0.41215 0.0
C4480 C 0.86898 0.01494 0.42205 0.0
C4481 C 0.89133 0.0241 0.4308 0.0
C4482 C 0.88703 0.04054 0.43983 0.0
C4483 C 0.86056 0.04813 0.43992 0.0
C4484 C 0.83832 0.03929 0.43099 0.0
C4485 C 0.84246 0.02278 0.42206 0.0
H4486 H 0.8573 0.06089 0.44684 0.0
H4487 H 0.92077 0.90891 0.35065 0.0
H4488 H 0.56689 0.98405 0.09205 0.0
H4489 H 0.57686 0.99875 0.12308 0.0
H4490 H 0.64549 0.02645 0.09586 0.0
H4491 H 0.63813 0.00992 0.06557 0.0
H4492 H 0.66297 0.01057 0.12542 0.0
H4493 H 0.58284 0.04958 0.1195 0.0
H4494 H 0.53368 0.05721 0.11331 0.0
H4495 H 0.50785 0.01915 0.15688 0.0
H4496 H 0.55677 0.01138 0.1634 0.0
H4497 H 0.69788 0.01692 0.22507 0.0
H4498 H 0.68309 0.03085 0.19386 0.0
H4499 H 0.60689 0.00056 0.19562 0.0
H4500 H 0.62105 0.98749 0.22708 0.0
H4501 H 0.59759 0.03037 0.17766 0.0
H4502 H 0.66745 0.98407 0.17561 0.0
H4503 H 0.71292 0.96991 0.18142 0.0
H4504 H 0.75388 0.01312 0.15211 0.0
H4505 H 0.70862 0.02772 0.14647 0.0
C4506 C 0.58403 0.99333 0.09258 0.0
C4507 C 0.60189 0.99549 0.07634 0.0
C4508 C 0.58923 0.0022 0.11026 0.0
C4509 C 0.61161 0.01407 0.11178 0.0
C4510 C 0.62795 0.01748 0.095 0.0
C4511 C 0.62348 0.00807 0.07756 0.0
C4512 C 0.62134 0.01977 0.13156 0.0
C4513 C 0.64889 0.01563 0.13664 0.0
C4514 C 0.60285 0.02572 0.14642 0.0
C4515 C 0.57345 0.03012 0.14213 0.0
C4516 C 0.56666 0.04286 0.12774 0.0
C4517 C 0.53885 0.04723 0.12422 0.0
C4518 C 0.51773 0.03886 0.13494 0.0
C4519 C 0.52427 0.02581 0.14884 0.0
C4520 C 0.55201 0.02151 0.15253 0.0
C4521 C 0.67772 0.0137 0.21889 0.0
C4522 C 0.66066 0.00106 0.22795 0.0
C4523 C 0.66924 0.02167 0.20125 0.0
C4524 C 0.64416 0.01649 0.19233 0.0
C4525 C 0.62627 0.00481 0.2023 0.0
C4526 C 0.63444 0.9972 0.22009 0.0
C4527 C 0.63852 0.0204 0.17136 0.0
C4528 C 0.61195 0.02635 0.16611 0.0
C4529 C 0.65745 0.01529 0.15639 0.0
C4530 C 0.68474 0.00708 0.16083 0.0
C4531 C 0.68619 0.99067 0.17066 0.0
C4532 C 0.71188 0.98255 0.17389 0.0
C4533 C 0.73619 0.99058 0.16702 0.0
C4534 C 0.73497 0.00692 0.15734 0.0
C4535 C 0.70933 0.01515 0.15419 0.0
H4536 H 0.75592 0.98403 0.16895 0.0
H4537 H 0.49626 0.04249 0.13253 0.0
H4538 H 0.12917 0.76807 0.08513 0.0
H4539 H 0.11583 0.75556 0.11725 0.0
H4540 H 0.15698 0.7066 0.10224 0.0
H4541 H 0.17005 0.71909 0.06988 0.0
H4542 H 0.09578 0.71364 0.13339 0.0
H4543 H 0.20147 0.71538 0.12655 0.0
H4544 H 0.24518 0.72854 0.11553 0.0
H4545 H 0.21541 0.78041 0.13128 0.0
H4546 H 0.1716 0.76713 0.1433 0.0
H4547 H 0.10503 0.71928 0.23938 0.0
H4548 H 0.12272 0.70716 0.20794 0.0
H4549 H 0.1313 0.76037 0.18509 0.0
H4550 H 0.11375 0.77231 0.21622 0.0
H4551 H 0.1735 0.73801 0.17359 0.0
H4552 H 0.0715 0.73661 0.18456 0.0
H4553 H 0.03657 0.72309 0.20648 0.0
H4554 H 0.05728 0.67154 0.18411 0.0
H4555 H 0.09427 0.68462 0.16343 0.0
C4556 C 0.13431 0.75441 0.08847 0.0
C4557 C 0.15072 0.74446 0.07551 0.0
C4558 C 0.12648 0.74724 0.1066 0.0
C4559 C 0.13533 0.73017 0.11185 0.0
C4560 C 0.14967 0.71967 0.09815 0.0
C4561 C 0.15732 0.72682 0.0799 0.0
C4562 C 0.13633 0.72579 0.13293 0.0
C4563 C 0.11303 0.71845 0.14224 0.0
C4564 C 0.15874 0.73211 0.14438 0.0
C4565 C 0.18339 0.74034 0.13544 0.0
C4566 C 0.20415 0.72961 0.12734 0.0
C4567 C 0.229 0.73713 0.121 0.0
C4568 C 0.23304 0.75545 0.12236 0.0
C4569 C 0.21217 0.76626 0.13011 0.0
C4570 C 0.1874 0.75873 0.13679 0.0
C4571 C 0.11106 0.72824 0.22759 0.0
C4572 C 0.10732 0.74658 0.22958 0.0
C4573 C 0.12131 0.72137 0.20989 0.0
C4574 C 0.12792 0.73292 0.19432 0.0
C4575 C 0.12616 0.7513 0.19701 0.0
C4576 C 0.11576 0.7581 0.21454 0.0
C4577 C 0.1327 0.72646 0.1742 0.0
C4578 C 0.15692 0.73209 0.16489 0.0
C4579 C 0.11094 0.7188 0.16296 0.0
C4580 C 0.08587 0.71153 0.17268 0.0
C4581 C 0.06858 0.72239 0.1843 0.0
C4582 C 0.04861 0.71479 0.19667 0.0
C4583 C 0.04462 0.69646 0.19665 0.0
C4584 C 0.06051 0.68572 0.18418 0.0
C4585 C 0.0812 0.69319 0.1723 0.0
H4586 H 0.02925 0.69054 0.20629 0.0
H4587 H 0.25239 0.7613 0.11772 0.0
H4588 H 0.63892 0.73199 0.73804 0.0
H4589 H 0.64544 0.71454 0.708 0.0
H4590 H 0.57541 0.74142 0.6813 0.0
H4591 H 0.56627 0.75648 0.71198 0.0
H4592 H 0.57851 0.71404 0.6642 0.0
H4593 H 0.65565 0.75383 0.68772 0.0
H4594 H 0.69643 0.76001 0.70871 0.0
H4595 H 0.73656 0.71304 0.6871 0.0
H4596 H 0.6952 0.70595 0.66698 0.0
H4597 H 0.61402 0.76163 0.5783 0.0
H4598 H 0.60041 0.74802 0.60967 0.0
H4599 H 0.66868 0.7111 0.60473 0.0
H4600 H 0.68314 0.72553 0.57384 0.0
H4601 H 0.67175 0.72805 0.63751 0.0
H4602 H 0.59448 0.69804 0.60479 0.0
H4603 H 0.55251 0.69684 0.5837 0.0
H4604 H 0.51232 0.73513 0.62097 0.0
H4605 H 0.55402 0.7368 0.64205 0.0
C4606 C 0.6241 0.73355 0.72609 0.0
C4607 C 0.60263 0.74625 0.72713 0.0
C4608 C 0.6282 0.72374 0.70873 0.0
C4609 C 0.612 0.72731 0.69187 0.0
C4610 C 0.58879 0.73852 0.6938 0.0
C4611 C 0.58384 0.74754 0.71134 0.0
C4612 C 0.62036 0.72176 0.67158 0.0
C4613 C 0.59898 0.71709 0.65838 0.0
C4614 C 0.64746 0.72474 0.6639 0.0
C4615 C 0.67197 0.72907 0.67634 0.0
C4616 C 0.67298 0.74467 0.68769 0.0
C4617 C 0.69621 0.74831 0.69947 0.0
C4618 C 0.71909 0.7369 0.69927 0.0
C4619 C 0.71872 0.72177 0.68739 0.0
C4620 C 0.69525 0.71782 0.67601 0.0
C4621 C 0.62547 0.75025 0.5837 0.0
C4622 C 0.6495 0.74451 0.57395 0.0
C4623 C 0.61758 0.74234 0.60149 0.0
C4624 C 0.63327 0.7283 0.60943 0.0
C4625 C 0.65618 0.72179 0.5988 0.0
C4626 C 0.66441 0.72997 0.58123 0.0
C4627 C 0.62891 0.7228 0.63024 0.0
C4628 C 0.65139 0.7247 0.64333 0.0
C4629 C 0.60241 0.71855 0.63785 0.0
C4630 C 0.57735 0.71742 0.62507 0.0
C4631 C 0.57672 0.70623 0.60844 0.0
C4632 C 0.55298 0.7055 0.59648 0.0
C4633 C 0.52979 0.71589 0.60105 0.0
C4634 C 0.53028 0.72709 0.61749 0.0
C4635 C 0.55391 0.72788 0.62947 0.0
H4636 H 0.51135 0.71524 0.59196 0.0
H4637 H 0.73719 0.73976 0.7082 0.0
H4638 H 0.16446 0.0246 0.73428 0.0
H4639 H 0.14827 0.03626 0.70237 0.0
H4640 H 0.13453 0.98292 0.68167 0.0
H4641 H 0.15094 0.9712 0.71348 0.0
H4642 H 0.18509 0.00915 0.66906 0.0
H4643 H 0.08495 0.99592 0.67129 0.0
H4644 H 0.03418 0.99806 0.67595 0.0
H4645 H 0.03786 0.05423 0.66659 0.0
H4646 H 0.0886 0.05242 0.6619 0.0
H4647 H 0.1312 0.97287 0.58583 0.0
H4648 H 0.15071 0.98515 0.61611 0.0
H4649 H 0.13038 0.038 0.59612 0.0
H4650 H 0.11044 0.02545 0.56559 0.0
H4651 H 0.10361 0.02781 0.62937 0.0
H4652 H 0.19813 0.02736 0.60824 0.0
H4653 H 0.23705 0.01368 0.59064 0.0
H4654 H 0.23753 0.97035 0.6318 0.0
H4655 H 0.1975 0.98332 0.64922 0.0
C4656 C 0.15775 0.01544 0.72288 0.0
C4657 C 0.16012 0.99706 0.72567 0.0
C4658 C 0.14778 0.02211 0.70502 0.0
C4659 C 0.13993 0.01042 0.69 0.0
C4660 C 0.14009 0.99208 0.6934 0.0
C4661 C 0.15031 0.9854 0.71117 0.0
C4662 C 0.14181 0.01635 0.66955 0.0
C4663 C 0.16742 0.01346 0.66027 0.0
C4664 C 0.11891 0.0224 0.65855 0.0
C4665 C 0.09061 0.02411 0.66673 0.0
C4666 C 0.07508 0.00881 0.67098 0.0
C4667 C 0.04625 0.00991 0.67326 0.0
C4668 C 0.03289 0.02625 0.67133 0.0
C4669 C 0.04831 0.0416 0.66798 0.0
C4670 C 0.07708 0.04056 0.66563 0.0
C4671 C 0.13154 0.98711 0.58781 0.0
C4672 C 0.11895 0.99833 0.57403 0.0
C4673 C 0.14316 0.99417 0.60482 0.0
C4674 C 0.14233 0.01252 0.60813 0.0
C4675 C 0.13153 0.02385 0.59357 0.0
C4676 C 0.11994 0.01674 0.57642 0.0
C4677 C 0.14605 0.01876 0.62849 0.0
C4678 C 0.12184 0.02445 0.6381 0.0
C4679 C 0.16956 0.01376 0.63968 0.0
C4680 C 0.1949 0.00648 0.63015 0.0
C4681 C 0.20652 0.01494 0.61359 0.0
C4682 C 0.22874 0.0072 0.60356 0.0
C4683 C 0.24001 0.9912 0.61015 0.0
C4684 C 0.22893 0.98282 0.62679 0.0
C4685 C 0.2064 0.99035 0.63674 0.0
H4686 H 0.25719 0.98522 0.60235 0.0
H4687 H 0.01059 0.02709 0.67216 0.0
H4688 H 0.36983 0.49439 0.48245 0.0
H4689 H 0.35892 0.48081 0.45049 0.0
H4690 H 0.44641 0.47762 0.43705 0.0
H4691 H 0.45747 0.49135 0.46892 0.0
H4692 H 0.41137 0.50429 0.41726 0.0
H4693 H 0.4135 0.44176 0.4341 0.0
H4694 H 0.39826 0.41518 0.45233 0.0
H4695 H 0.31499 0.42249 0.43091 0.0
H4696 H 0.32961 0.44928 0.41282 0.0
H4697 H 0.40451 0.49842 0.31749 0.0
H4698 H 0.4177 0.48558 0.34937 0.0
H4699 H 0.33117 0.47795 0.36387 0.0
H4700 H 0.31788 0.49049 0.33182 0.0
H4701 H 0.36504 0.45402 0.38335 0.0
H4702 H 0.35611 0.51584 0.37166 0.0
H4703 H 0.36374 0.54485 0.35585 0.0
H4704 H 0.45018 0.54274 0.37154 0.0
H4705 H 0.44326 0.51342 0.3869 0.0
C4706 C 0.38676 0.49007 0.47302 0.0
C4707 C 0.41449 0.49418 0.47775 0.0
C4708 C 0.38048 0.48215 0.45491 0.0
C4709 C 0.40192 0.47826 0.44159 0.0
C4710 C 0.42972 0.48045 0.44735 0.0
C4711 C 0.43599 0.48849 0.46533 0.0
C4712 C 0.39564 0.47772 0.42037 0.0
C4713 C 0.40197 0.49309 0.40969 0.0
C4714 C 0.38147 0.46361 0.41113 0.0
C4715 C 0.37264 0.44763 0.42223 0.0
C4716 C 0.39187 0.43783 0.43346 0.0
C4717 C 0.38335 0.42269 0.44372 0.0
C4718 C 0.35566 0.41717 0.44281 0.0
C4719 C 0.33643 0.42678 0.43162 0.0
C4720 C 0.34483 0.44194 0.42135 0.0
C4721 C 0.38839 0.49322 0.32708 0.0
C4722 C 0.3602 0.49578 0.32262 0.0
C4723 C 0.39594 0.48591 0.34523 0.0
C4724 C 0.37531 0.48129 0.35898 0.0
C4725 C 0.34728 0.48157 0.35341 0.0
C4726 C 0.33973 0.48888 0.33526 0.0
C4727 C 0.38236 0.48017 0.38009 0.0
C4728 C 0.37532 0.46491 0.39084 0.0
C4729 C 0.39488 0.49473 0.38979 0.0
C4730 C 0.39927 0.5122 0.38005 0.0
C4731 C 0.37686 0.52138 0.37142 0.0
C4732 C 0.38104 0.53792 0.36259 0.0
C4733 C 0.40746 0.5456 0.36261 0.0
C4734 C 0.42975 0.53674 0.37144 0.0
C4735 C 0.42573 0.52012 0.38015 0.0
H4736 H 0.41063 0.55844 0.35586 0.0
H4737 H 0.34913 0.40542 0.45074 0.0
H4738 H 0.88977 0.72964 0.46783 0.0
H4739 H 0.90664 0.74274 0.43718 0.0
H4740 H 0.87699 0.79406 0.45613 0.0
H4741 H 0.85968 0.78066 0.48697 0.0
H4742 H 0.8511 0.78147 0.42402 0.0
H4743 H 0.94649 0.78876 0.44198 0.0
H4744 H 0.98943 0.7788 0.45851 0.0
H4745 H 0.99406 0.73401 0.41949 0.0
H4746 H 0.95074 0.7433 0.40313 0.0
H4747 H 0.90499 0.77744 0.31633 0.0
H4748 H 0.89293 0.7907 0.34848 0.0
H4749 H 0.88144 0.73847 0.37311 0.0
H4750 H 0.89408 0.72523 0.34125 0.0
H4751 H 0.93301 0.76777 0.38234 0.0
H4752 H 0.83359 0.74796 0.38832 0.0
H4753 H 0.78258 0.74779 0.38428 0.0
H4754 H 0.78209 0.80461 0.38211 0.0
H4755 H 0.83307 0.80507 0.38613 0.0
C4756 C 0.88767 0.7438 0.4656 0.0
C4757 C 0.87317 0.75423 0.47918 0.0
C4758 C 0.89776 0.75137 0.44833 0.0
C4759 C 0.8934 0.76945 0.44455 0.0
C4760 C 0.88088 0.78016 0.459 0.0
C4761 C 0.8708 0.77254 0.47638 0.0
C4762 C 0.8949 0.77547 0.42391 0.0
C4763 C 0.86937 0.7793 0.41488 0.0
C4764 C 0.91851 0.77201 0.41212 0.0
C4765 C 0.94551 0.76692 0.42113 0.0
C4766 C 0.95674 0.77684 0.43685 0.0
C4767 C 0.98111 0.77128 0.44622 0.0
C4768 C 0.99458 0.75593 0.43984 0.0
C4769 C 0.98371 0.74601 0.42422 0.0
C4770 C 0.95926 0.75143 0.41488 0.0
C4771 C 0.89915 0.76891 0.32856 0.0
C4772 C 0.90109 0.75044 0.32685 0.0
C4773 C 0.89193 0.77646 0.34668 0.0
C4774 C 0.8861 0.76549 0.36287 0.0
C4775 C 0.88547 0.74705 0.36055 0.0
C4776 C 0.89312 0.73952 0.34259 0.0
C4777 C 0.88887 0.77241 0.38292 0.0
C4778 C 0.9153 0.77119 0.39155 0.0
C4779 C 0.86578 0.77692 0.39455 0.0
C4780 C 0.83705 0.77655 0.38706 0.0
C4781 C 0.82266 0.76037 0.38628 0.0
C4782 C 0.79375 0.76023 0.38431 0.0
C4783 C 0.77918 0.7762 0.38316 0.0
C4784 C 0.79347 0.79228 0.3831 0.0
C4785 C 0.82235 0.79249 0.38512 0.0
H4786 H 0.75682 0.77621 0.3827 0.0
H4787 H 0.01337 0.75168 0.44701 0.0
H4788 H 0.36394 0.74565 0.82517 0.0
H4789 H 0.35311 0.75991 0.85668 0.0
H4790 H 0.43459 0.78394 0.85735 0.0
H4791 H 0.44582 0.76888 0.82624 0.0
H4792 H 0.42787 0.76141 0.8865 0.0
H4793 H 0.3702 0.80995 0.8608 0.0
H4794 H 0.33136 0.82366 0.84238 0.0
H4795 H 0.27339 0.78939 0.87187 0.0
H4796 H 0.31177 0.77544 0.89034 0.0
H4797 H 0.39809 0.76064 0.98733 0.0
H4798 H 0.41027 0.77577 0.95671 0.0
H4799 H 0.33059 0.76134 0.93189 0.0
H4800 H 0.31727 0.74777 0.96306 0.0
H4801 H 0.34484 0.78955 0.91629 0.0
H4802 H 0.39267 0.73466 0.93179 0.0
H4803 H 0.42469 0.71486 0.94982 0.0
H4804 H 0.49283 0.7497 0.93692 0.0
H4805 H 0.46107 0.76994 0.91917 0.0
C4806 C 0.37902 0.75455 0.83173 0.0
C4807 C 0.40576 0.75609 0.82374 0.0
C4808 C 0.37276 0.76287 0.84959 0.0
C4809 C 0.39306 0.77306 0.85931 0.0
C4810 C 0.41867 0.77619 0.85002 0.0
C4811 C 0.42512 0.76756 0.83239 0.0
C4812 C 0.3904 0.77628 0.88074 0.0
C4813 C 0.41011 0.76805 0.89307 0.0
C4814 C 0.36658 0.78414 0.88918 0.0
C4815 C 0.34386 0.79181 0.87707 0.0
C4816 C 0.34921 0.80526 0.86322 0.0
C4817 C 0.32725 0.8131 0.85283 0.0
C4818 C 0.29994 0.80755 0.85617 0.0
C4819 C 0.29452 0.79382 0.86948 0.0
C4820 C 0.31635 0.78598 0.87993 0.0
C4821 C 0.38265 0.76137 0.97566 0.0
C4822 C 0.35681 0.75272 0.9774 0.0
C4823 C 0.38984 0.76987 0.95809 0.0
C4824 C 0.37173 0.76919 0.94186 0.0
C4825 C 0.34505 0.76191 0.94419 0.0
C4826 C 0.33756 0.75388 0.96189 0.0
C4827 C 0.38122 0.77371 0.92175 0.0
C4828 C 0.36312 0.78351 0.90973 0.0
C4829 C 0.40537 0.766 0.91336 0.0
C4830 C 0.42434 0.75405 0.92454 0.0
C4831 C 0.4144 0.73824 0.93303 0.0
C4832 C 0.43252 0.72692 0.94317 0.0
C4833 C 0.46074 0.73108 0.94461 0.0
C4834 C 0.47092 0.74657 0.9359 0.0
C4835 C 0.45285 0.758 0.92586 0.0
H4836 H 0.47475 0.72226 0.95236 0.0
H4837 H 0.28293 0.81399 0.84858 0.0
H4838 H 0.89789 0.49269 0.81855 0.0
H4839 H 0.90899 0.47833 0.84997 0.0
H4840 H 0.82293 0.48161 0.86733 0.0
H4841 H 0.81152 0.49587 0.83581 0.0
H4842 H 0.8733 0.50691 0.88248 0.0
H4843 H 0.83717 0.44714 0.87255 0.0
H4844 H 0.83658 0.41787 0.85641 0.0
H4845 H 0.92127 0.40912 0.87397 0.0
H4846 H 0.92253 0.43853 0.8899 0.0
H4847 H 0.86651 0.50233 0.98263 0.0
H4848 H 0.85287 0.49099 0.9501 0.0
H4849 H 0.93647 0.47226 0.9403 0.0
H4850 H 0.95027 0.4837 0.97282 0.0
H4851 H 0.89159 0.45183 0.9205 0.0
H4852 H 0.92975 0.51024 0.92927 0.0
H4853 H 0.93422 0.53998 0.94395 0.0
H4854 H 0.85096 0.5525 0.9258 0.0
H4855 H 0.84567 0.5226 0.91159 0.0
C4856 C 0.88109 0.48954 0.82864 0.0
C4857 C 0.8539 0.49562 0.82508 0.0
C4858 C 0.88746 0.48117 0.84645 0.0
C4859 C 0.86668 0.47886 0.8607 0.0
C4860 C 0.83903 0.48309 0.85622 0.0
C4861 C 0.83264 0.49149 0.83845 0.0
C4862 C 0.87473 0.47841 0.88153 0.0
C4863 C 0.87694 0.49486 0.89091 0.0
C4864 C 0.88076 0.46269 0.89192 0.0
C4865 C 0.88005 0.44514 0.88216 0.0
C4866 C 0.8558 0.4391 0.87271 0.0
C4867 C 0.85531 0.42245 0.86367 0.0
C4868 C 0.8789 0.41167 0.8641 0.0
C4869 C 0.90303 0.41751 0.8736 0.0
C4870 C 0.90364 0.43416 0.88265 0.0
C4871 C 0.8816 0.49509 0.97388 0.0
C4872 C 0.90949 0.49409 0.9798 0.0
C4873 C 0.87381 0.48861 0.95541 0.0
C4874 C 0.89388 0.48108 0.94293 0.0
C4875 C 0.92085 0.47803 0.94989 0.0
C4876 C 0.92873 0.48468 0.96828 0.0
C4877 C 0.88852 0.48028 0.92164 0.0
C4878 C 0.88761 0.46381 0.91208 0.0
C4879 C 0.8841 0.49607 0.91082 0.0
C4880 C 0.88711 0.51399 0.91974 0.0
C4881 C 0.9122 0.51918 0.92875 0.0
C4882 C 0.91491 0.53611 0.93693 0.0
C4883 C 0.89283 0.54809 0.93591 0.0
C4884 C 0.868 0.54317 0.92669 0.0
C4885 C 0.8651 0.52621 0.91863 0.0
H4886 H 0.89501 0.56122 0.94217 0.0
H4887 H 0.87846 0.39876 0.85712 0.0
H4888 H 0.61417 0.5043 0.73625 0.0
H4889 H 0.60062 0.51842 0.70513 0.0
H4890 H 0.68641 0.51874 0.68634 0.0
H4891 H 0.70013 0.50546 0.71774 0.0
H4892 H 0.66057 0.54372 0.66783 0.0
H4893 H 0.6462 0.48233 0.68112 0.0
H4894 H 0.62818 0.45572 0.69794 0.0
H4895 H 0.54458 0.47159 0.68446 0.0
H4896 H 0.5621 0.49855 0.66794 0.0
H4897 H 0.65533 0.50058 0.57272 0.0
H4898 H 0.66376 0.51502 0.60466 0.0
H4899 H 0.57602 0.52575 0.61031 0.0
H4900 H 0.56755 0.51105 0.57861 0.0
H4901 H 0.59732 0.50038 0.63599 0.0
H4902 H 0.62195 0.55925 0.61338 0.0
H4903 H 0.64899 0.58047 0.59336 0.0
H4904 H 0.72453 0.56228 0.62054 0.0
H4905 H 0.69799 0.54083 0.64051 0.0
C4906 C 0.63024 0.50817 0.72587 0.0
C4907 C 0.65808 0.50332 0.72899 0.0
C4908 C 0.62247 0.51618 0.70808 0.0
C4909 C 0.64242 0.51905 0.69323 0.0
C4910 C 0.67064 0.51643 0.69751 0.0
C4911 C 0.67843 0.50865 0.71535 0.0
C4912 C 0.63394 0.52114 0.67236 0.0
C4913 C 0.6465 0.5344 0.66083 0.0
C4914 C 0.61608 0.50865 0.66324 0.0
C4915 C 0.60544 0.49267 0.67366 0.0
C4916 C 0.62395 0.48029 0.68199 0.0
C4917 C 0.61383 0.46512 0.69143 0.0
C4918 C 0.58524 0.46201 0.69235 0.0
C4919 C 0.56671 0.47407 0.68383 0.0
C4920 C 0.57672 0.48932 0.67448 0.0
C4921 C 0.63811 0.50678 0.5804 0.0
C4922 C 0.61077 0.50449 0.57365 0.0
C4923 C 0.64293 0.51511 0.59854 0.0
C4924 C 0.62043 0.52131 0.60982 0.0
C4925 C 0.59358 0.52105 0.60174 0.0
C4926 C 0.58875 0.51259 0.58376 0.0
C4927 C 0.62356 0.52315 0.63142 0.0
C4928 C 0.61038 0.51027 0.64306 0.0
C4929 C 0.64209 0.53529 0.64028 0.0
C4930 C 0.65796 0.54836 0.62839 0.0
C4931 C 0.64434 0.5597 0.615 0.0
C4932 C 0.65958 0.57179 0.60367 0.0
C4933 C 0.68845 0.57272 0.60565 0.0
C4934 C 0.70216 0.56158 0.61901 0.0
C4935 C 0.68702 0.54947 0.63036 0.0
H4936 H 0.70019 0.58208 0.59685 0.0
H4937 H 0.57745 0.45022 0.69958 0.0
H4938 H 0.06284 0.24157 0.71503 0.0
H4939 H 0.0784 0.22873 0.68356 0.0
H4940 H 0.16306 0.22863 0.70475 0.0
H4941 H 0.14799 0.24192 0.73569 0.0
H4942 H 0.15283 0.2509 0.67353 0.0
H4943 H 0.13762 0.18869 0.68857 0.0
H4944 H 0.10921 0.16437 0.70226 0.0
H4945 H 0.04333 0.17707 0.66168 0.0
H4946 H 0.07146 0.2014 0.64769 0.0
H4947 H 0.20627 0.24102 0.58283 0.0
H4948 H 0.1957 0.22629 0.61426 0.0
H4949 H 0.10796 0.23057 0.6019 0.0
H4950 H 0.11834 0.24508 0.57049 0.0
H4951 H 0.12335 0.20177 0.6293 0.0
H4952 H 0.12958 0.26488 0.61885 0.0
H4953 H 0.15082 0.29213 0.60557 0.0
H4954 H 0.22517 0.28182 0.63889 0.0
H4955 H 0.20449 0.25428 0.65205 0.0
C4956 C 0.08463 0.23843 0.71303 0.0
C4957 C 0.10418 0.24286 0.72758 0.0
C4958 C 0.09342 0.23082 0.6953 0.0
C4959 C 0.1218 0.22766 0.69206 0.0
C4960 C 0.14104 0.23078 0.7072 0.0
C4961 C 0.13234 0.23844 0.7248 0.0
C4962 C 0.13191 0.22566 0.67174 0.0
C4963 C 0.14724 0.23983 0.66404 0.0
C4964 C 0.12315 0.21175 0.65928 0.0
C4965 C 0.10663 0.19677 0.66708 0.0
C4966 C 0.11709 0.18624 0.68255 0.0
C4967 C 0.10106 0.17246 0.69035 0.0
C4968 C 0.07449 0.16917 0.68283 0.0
C4969 C 0.06396 0.17959 0.66742 0.0
C4970 C 0.07999 0.1933 0.65948 0.0
C4971 C 0.18483 0.23821 0.58658 0.0
C4972 C 0.1631 0.2445 0.57473 0.0
C4973 C 0.17883 0.22958 0.60426 0.0
C4974 C 0.15111 0.22764 0.61029 0.0
C4975 C 0.12944 0.23187 0.5973 0.0
C4976 C 0.13543 0.24035 0.57953 0.0
C4977 C 0.14507 0.22667 0.63147 0.0
C4978 C 0.12996 0.21235 0.6391 0.0
C4979 C 0.15319 0.24079 0.64395 0.0
C4980 C 0.1657 0.25737 0.63615 0.0
C4981 C 0.15058 0.26832 0.62316 0.0
C4982 C 0.16247 0.28384 0.6157 0.0
C4983 C 0.18937 0.28867 0.62132 0.0
C4984 C 0.20437 0.27802 0.63448 0.0
C4985 C 0.19259 0.26245 0.64194 0.0
H4986 H 0.19855 0.30069 0.61554 0.0
H4987 H 0.06205 0.15856 0.68896 0.0
H4988 H 0.614 0.25277 0.07123 0.0
H4989 H 0.60093 0.24119 0.10377 0.0
H4990 H 0.68321 0.21936 0.11108 0.0
H4991 H 0.69648 0.23113 0.07859 0.0
H4992 H 0.63929 0.20033 0.13167 0.0
H4993 H 0.67802 0.25781 0.12103 0.0
H4994 H 0.68269 0.28764 0.10674 0.0
H4995 H 0.60444 0.3027 0.13213 0.0
H4996 H 0.59864 0.27271 0.14586 0.0
H4997 H 0.64648 0.23988 0.23482 0.0
H4998 H 0.65831 0.22614 0.20323 0.0
H4999 H 0.57253 0.22928 0.18509 0.0
H5000 H 0.56035 0.24293 0.2168 0.0
H5001 H 0.62454 0.25491 0.17125 0.0
H5002 H 0.58655 0.19492 0.17998 0.0
H5003 H 0.5866 0.16563 0.19612 0.0
H5004 H 0.67121 0.15743 0.1781 0.0
H5005 H 0.6718 0.18685 0.16216 0.0
C5006 C 0.62885 0.24483 0.07944 0.0
C5007 C 0.65635 0.24306 0.0729 0.0
C5008 C 0.62138 0.23823 0.09792 0.0
C5009 C 0.64141 0.22983 0.10975 0.0
C5010 C 0.66767 0.2259 0.10203 0.0
C5011 C 0.67527 0.23271 0.08366 0.0
C5012 C 0.63711 0.22886 0.13115 0.0
C5013 C 0.63601 0.21222 0.14038 0.0
C5014 C 0.63395 0.24455 0.14242 0.0
C5015 C 0.63745 0.26268 0.13396 0.0
C5016 C 0.66141 0.26727 0.12315 0.0
C5017 C 0.66434 0.28428 0.11521 0.0
C5018 C 0.64376 0.29701 0.11836 0.0
C5019 C 0.62033 0.2928 0.12961 0.0
C5020 C 0.61718 0.27576 0.13743 0.0
C5021 C 0.62989 0.23684 0.22449 0.0
C5022 C 0.60252 0.24266 0.22795 0.0
C5023 C 0.63669 0.22882 0.20659 0.0
C5024 C 0.61618 0.22659 0.19213 0.0
C5025 C 0.5884 0.23066 0.19639 0.0
C5026 C 0.58157 0.23872 0.21425 0.0
C5027 C 0.62457 0.22643 0.17138 0.0
C5028 C 0.62738 0.24302 0.16242 0.0
C5029 C 0.62981 0.21083 0.16061 0.0
C5030 C 0.62931 0.19317 0.17011 0.0
C5031 C 0.60527 0.18698 0.17968 0.0
C5032 C 0.60516 0.17032 0.18874 0.0
C5033 C 0.62892 0.1597 0.1882 0.0
C5034 C 0.65283 0.16569 0.17854 0.0
C5035 C 0.65305 0.18234 0.16949 0.0
H5036 H 0.62878 0.1468 0.19521 0.0
H5037 H 0.64606 0.31017 0.11221 0.0
H5038 H 0.14597 0.49965 0.07103 0.0
H5039 H 0.15755 0.51189 0.10347 0.0
H5040 H 0.07182 0.526 0.11279 0.0
H5041 H 0.05989 0.51386 0.08012 0.0
H5042 H 0.125 0.54827 0.13225 0.0
H5043 H 0.0753 0.49172 0.124 0.0
H5044 H 0.06802 0.46239 0.10897 0.0
H5045 H 0.14863 0.44579 0.12894 0.0
H5046 H 0.15704 0.47536 0.14311 0.0
H5047 H 0.12077 0.50837 0.23596 0.0
H5048 H 0.1073 0.52225 0.20483 0.0
H5049 H 0.19037 0.51493 0.18239 0.0
H5050 H 0.20447 0.50157 0.21382 0.0
H5051 H 0.13228 0.49258 0.17105 0.0
H5052 H 0.18551 0.54748 0.17509 0.0
H5053 H 0.19704 0.57633 0.19001 0.0
H5054 H 0.11345 0.59424 0.18017 0.0
H5055 H 0.10127 0.56527 0.16559 0.0
C5056 C 0.12978 0.50601 0.07963 0.0
C5057 C 0.10194 0.50551 0.07346 0.0
C5058 C 0.13644 0.51292 0.09811 0.0
C5059 C 0.11536 0.51927 0.11047 0.0
C5060 C 0.08821 0.52101 0.1033 0.0
C5061 C 0.08141 0.51392 0.08485 0.0
C5062 C 0.12052 0.51987 0.13181 0.0
C5063 C 0.12625 0.53617 0.14088 0.0
C5064 C 0.12237 0.50391 0.14276 0.0
C5065 C 0.11726 0.48612 0.13392 0.0
C5066 C 0.09189 0.48208 0.12459 0.0
C5067 C 0.08748 0.46533 0.11632 0.0
C5068 C 0.10797 0.45229 0.11779 0.0
C5069 C 0.13284 0.45594 0.12764 0.0
C5070 C 0.13751 0.47275 0.13566 0.0
C5071 C 0.13661 0.51056 0.22482 0.0
C5072 C 0.16368 0.50374 0.22715 0.0
C5073 C 0.12886 0.51862 0.20712 0.0
C5074 C 0.14803 0.51986 0.19162 0.0
C5075 C 0.17561 0.51447 0.1945 0.0
C5076 C 0.18346 0.50653 0.21225 0.0
C5077 C 0.13762 0.52086 0.17133 0.0
C5078 C 0.13065 0.50473 0.1625 0.0
C5079 C 0.13516 0.53682 0.16066 0.0
C5080 C 0.14235 0.5541 0.16962 0.0
C5081 C 0.16945 0.55744 0.17644 0.0
C5082 C 0.17614 0.57385 0.18475 0.0
C5083 C 0.15595 0.58709 0.18613 0.0
C5084 C 0.12904 0.58395 0.17917 0.0
C5085 C 0.12223 0.56753 0.17089 0.0
H5086 H 0.16119 0.5998 0.19252 0.0
H5087 H 0.10447 0.43931 0.11146 0.0
H5088 H 0.37707 0.19149 0.18648 0.0
H5089 H 0.3764 0.16141 0.17358 0.0
H5090 H 0.28735 0.16418 0.16755 0.0
H5091 H 0.28788 0.19432 0.18161 0.0
H5092 H 0.30304 0.132 0.18302 0.0
H5093 H 0.33061 0.15809 0.11535 0.0
H5094 H 0.35973 0.17559 0.09254 0.0
H5095 H 0.43279 0.16069 0.12514 0.0
H5096 H 0.40411 0.1422 0.1474 0.0
H5097 H 0.28694 0.05421 0.12378 0.0
H5098 H 0.28662 0.08415 0.13777 0.0
H5099 H 0.37619 0.08557 0.13496 0.0
H5100 H 0.37631 0.0561 0.12002 0.0
H5101 H 0.36031 0.11552 0.12479 0.0
H5102 H 0.33481 0.08 0.18019 0.0
H5103 H 0.30729 0.05681 0.19683 0.0
H5104 H 0.2332 0.08778 0.18916 0.0
H5105 H 0.26022 0.11104 0.17216 0.0
C5106 C 0.35721 0.18567 0.18282 0.0
C5107 C 0.33247 0.19534 0.18568 0.0
C5108 C 0.35692 0.16846 0.17491 0.0
C5109 C 0.33189 0.16031 0.16917 0.0
C5110 C 0.30705 0.17001 0.17176 0.0
C5111 C 0.30735 0.18733 0.17974 0.0
C5112 C 0.33175 0.14165 0.16102 0.0
C5113 C 0.31536 0.12848 0.17016 0.0
C5114 C 0.34846 0.1365 0.14469 0.0
C5115 C 0.36522 0.14926 0.13329 0.0
C5116 C 0.35283 0.15882 0.11781 0.0
C5117 C 0.36929 0.16868 0.10482 0.0
C5118 C 0.39808 0.16946 0.10753 0.0
C5119 C 0.41048 0.1602 0.12314 0.0
C5120 C 0.39417 0.14989 0.13583 0.0
C5121 C 0.30655 0.0609 0.12618 0.0
C5122 C 0.33162 0.05278 0.12053 0.0
C5123 C 0.30641 0.07807 0.13438 0.0
C5124 C 0.33143 0.08733 0.13789 0.0
C5125 C 0.35649 0.079 0.13244 0.0
C5126 C 0.35656 0.06207 0.12382 0.0
C5127 C 0.33162 0.10577 0.14671 0.0
C5128 C 0.34807 0.1189 0.13776 0.0
C5129 C 0.31551 0.11065 0.16351 0.0
C5130 C 0.2995 0.09723 0.1748 0.0
C5131 C 0.31265 0.08188 0.18206 0.0
C5132 C 0.29713 0.0687 0.19152 0.0
C5133 C 0.26851 0.07081 0.19402 0.0
C5134 C 0.25538 0.08616 0.18721 0.0
C5135 C 0.27078 0.09937 0.17768 0.0
H5136 H 0.25651 0.06055 0.20126 0.0
H5137 H 0.41078 0.17716 0.09747 0.0
H5138 H 0.95235 0.04655 0.15521 0.0
H5139 H 0.95248 0.07642 0.14061 0.0
H5140 H 0.92525 0.09826 0.19632 0.0
H5141 H 0.9265 0.06882 0.21107 0.0
H5142 H 0.89603 0.11342 0.16611 0.0
H5143 H 0.99171 0.10369 0.18163 0.0
H5144 H 0.03609 0.08736 0.18159 0.0
H5145 H 0.03899 0.09022 0.11802 0.0
H5146 H 0.99442 0.10641 0.11769 0.0
H5147 H 0.93468 0.20535 0.14895 0.0
H5148 H 0.93366 0.17498 0.16245 0.0
H5149 H 0.94358 0.15393 0.10351 0.0
H5150 H 0.94345 0.18415 0.08997 0.0
H5151 H 0.98052 0.13839 0.13461 0.0
H5152 H 0.88442 0.14935 0.11985 0.0
H5153 H 0.84044 0.16603 0.12096 0.0
H5154 H 0.83898 0.16175 0.18441 0.0
H5155 H 0.8831 0.14506 0.18371 0.0
C5156 C 0.94662 0.05772 0.16442 0.0
C5157 C 0.9387 0.055 0.18431 0.0
C5158 C 0.94656 0.07487 0.156 0.0
C5159 C 0.93857 0.08983 0.16722 0.0
C5160 C 0.93101 0.0871 0.1871 0.0
C5161 C 0.93144 0.07007 0.19554 0.0
C5162 C 0.93881 0.10833 0.15855 0.0
C5163 C 0.91464 0.11887 0.15941 0.0
C5164 C 0.96281 0.11568 0.14952 0.0
C5165 C 0.98964 0.10609 0.14962 0.0
C5166 C 1.00174 0.10073 0.16763 0.0
C5167 C 0.02693 0.09152 0.16769 0.0
C5168 C 0.04032 0.08771 0.14981 0.0
C5169 C 0.02857 0.09316 0.13185 0.0
C5170 C 1.00337 0.10237 0.13172 0.0
C5171 C 0.93693 0.19423 0.13893 0.0
C5172 C 0.93944 0.19719 0.1184 0.0
C5173 C 0.93615 0.17685 0.14663 0.0
C5174 C 0.93858 0.16201 0.13405 0.0
C5175 C 0.94172 0.16503 0.11359 0.0
C5176 C 0.94167 0.18234 0.10585 0.0
C5177 C 0.93782 0.14341 0.14216 0.0
C5178 C 0.9619 0.13288 0.14124 0.0
C5179 C 0.9138 0.13616 0.15124 0.0
C5180 C 0.88726 0.14615 0.15175 0.0
C5181 C 0.87488 0.15211 0.13406 0.0
C5182 C 0.84989 0.16154 0.1346 0.0
C5183 C 0.83702 0.16506 0.15273 0.0
C5184 C 0.84903 0.15906 0.17037 0.0
C5185 C 0.87399 0.14957 0.16991 0.0
H5186 H 0.81768 0.17238 0.15311 0.0
H5187 H 0.05982 0.08058 0.14988 0.0
H5188 H 0.67417 0.7947 0.89695 0.0
H5189 H 0.67266 0.82525 0.90992 0.0
H5190 H 0.70544 0.8446 0.85458 0.0
H5191 H 0.70573 0.81424 0.84136 0.0
H5192 H 0.73334 0.85853 0.88911 0.0
H5193 H 0.64336 0.85113 0.86264 0.0
H5194 H 0.59486 0.84275 0.8559 0.0
H5195 H 0.57199 0.8568 0.91525 0.0
H5196 H 0.6205 0.86421 0.92288 0.0
H5197 H 0.71067 0.95244 0.90763 0.0
H5198 H 0.71191 0.92275 0.89265 0.0
H5199 H 0.67158 0.90123 0.94429 0.0
H5200 H 0.67164 0.93039 0.95956 0.0
H5201 H 0.64714 0.88932 0.90966 0.0
H5202 H 0.74004 0.89338 0.93632 0.0
H5203 H 0.78582 0.90764 0.94032 0.0
H5204 H 0.79998 0.90378 0.87759 0.0
H5205 H 0.75413 0.88965 0.87322 0.0
C5206 C 0.68134 0.80546 0.88765 0.0
C5207 C 0.69068 0.80194 0.86825 0.0
C5208 C 0.6802 0.82299 0.895 0.0
C5209 C 0.68892 0.83745 0.8833 0.0
C5210 C 0.69862 0.83384 0.86401 0.0
C5211 C 0.69896 0.81641 0.85648 0.0
C5212 C 0.68884 0.8562 0.89129 0.0
C5213 C 0.71433 0.86519 0.89346 0.0
C5214 C 0.6642 0.8652 0.89715 0.0
C5215 C 0.63596 0.8579 0.89349 0.0
C5216 C 0.62833 0.85171 0.87456 0.0
C5217 C 0.60075 0.84711 0.87056 0.0
C5218 C 0.58048 0.84882 0.88522 0.0
C5219 C 0.58777 0.85509 0.90398 0.0
C5220 C 0.61537 0.85933 0.90823 0.0
C5221 C 0.70224 0.94139 0.91591 0.0
C5222 C 0.69031 0.94419 0.93478 0.0
C5223 C 0.70294 0.92433 0.90726 0.0
C5224 C 0.69165 0.90953 0.91718 0.0
C5225 C 0.6801 0.91229 0.93607 0.0
C5226 C 0.67979 0.92922 0.94478 0.0
C5227 C 0.69148 0.89121 0.90805 0.0
C5228 C 0.66601 0.88238 0.90556 0.0
C5229 C 0.71595 0.88239 0.9018 0.0
C5230 C 0.74362 0.8906 0.90442 0.0
C5231 C 0.75288 0.89566 0.92337 0.0
C5232 C 0.77883 0.9037 0.92571 0.0
C5233 C 0.79577 0.90664 0.90921 0.0
C5234 C 0.78683 0.90149 0.89035 0.0
C5235 C 0.76088 0.89345 0.88794 0.0
H5236 H 0.81585 0.91289 0.91105 0.0
H5237 H 0.55907 0.8455 0.88197 0.0
H5238 H 0.0513 0.79525 0.91174 0.0
H5239 H 0.04966 0.82483 0.8966 0.0
H5240 H 0.10835 0.84381 0.93998 0.0
H5241 H 0.10834 0.81511 0.95567 0.0
H5242 H 0.07194 0.86781 0.9354 0.0
H5243 H 0.1261 0.83357 0.88869 0.0
H5244 H 0.13265 0.80743 0.86725 0.0
H5245 H 0.06076 0.82203 0.83321 0.0
H5246 H 0.05368 0.84821 0.85457 0.0
H5247 H 0.11199 0.94922 0.89134 0.0
H5248 H 0.11186 0.91881 0.90428 0.0
H5249 H 0.05316 0.90358 0.85902 0.0
H5250 H 0.05425 0.93381 0.84567 0.0
H5251 H 0.08791 0.87732 0.86355 0.0
H5252 H 0.03412 0.91151 0.9092 0.0
H5253 H 0.02268 0.93527 0.93292 0.0
H5254 H 0.09074 0.91939 0.97009 0.0
H5255 H 0.10296 0.89576 0.94638 0.0
C5256 C 0.06377 0.80574 0.91812 0.0
C5257 C 0.08058 0.80237 0.93485 0.0
C5258 C 0.06304 0.8227 0.90929 0.0
C5259 C 0.07941 0.83673 0.91676 0.0
C5260 C 0.09563 0.83341 0.93365 0.0
C5261 C 0.09599 0.81666 0.94256 0.0
C5262 C 0.07966 0.85494 0.90747 0.0
C5263 C 0.07586 0.86983 0.91972 0.0
C5264 C 0.08401 0.85783 0.8869 0.0
C5265 C 0.08931 0.84281 0.87325 0.0
C5266 C 0.11175 0.83124 0.87658 0.0
C5267 C 0.11553 0.8164 0.86448 0.0
C5268 C 0.09711 0.81306 0.84889 0.0
C5269 C 0.07502 0.82465 0.84528 0.0
C5270 C 0.07117 0.83952 0.85734 0.0
C5271 C 0.09885 0.9394 0.88432 0.0
C5272 C 0.08243 0.94408 0.8679 0.0
C5273 C 0.09875 0.92195 0.8917 0.0
C5274 C 0.082 0.90871 0.88299 0.0
C5275 C 0.06613 0.91338 0.86622 0.0
C5276 C 0.06644 0.9308 0.85873 0.0
C5277 C 0.08057 0.89023 0.89161 0.0
C5278 C 0.08415 0.87531 0.87925 0.0
C5279 C 0.07597 0.88724 0.91214 0.0
C5280 C 0.06951 0.90193 0.92598 0.0
C5281 C 0.04685 0.91322 0.92232 0.0
C5282 C 0.0402 0.92664 0.93577 0.0
C5283 C 0.05588 0.92877 0.95303 0.0
C5284 C 0.07855 0.91768 0.95673 0.0
C5285 C 0.08538 0.90429 0.94329 0.0
H5286 H 0.05036 0.93896 0.96357 0.0
H5287 H 0.09996 0.80151 0.8396 0.0
H5288 H 0.34254 0.70573 0.65609 0.0
H5289 H 0.345 0.6759 0.64197 0.0
H5290 H 0.31974 0.65381 0.69817 0.0
H5291 H 0.3199 0.68364 0.71266 0.0
H5292 H 0.35312 0.63181 0.68404 0.0
H5293 H 0.27423 0.66034 0.65191 0.0
H5294 H 0.25314 0.68499 0.63313 0.0
H5295 H 0.30993 0.67593 0.5851 0.0
H5296 H 0.33149 0.65132 0.60367 0.0
H5297 H 0.31466 0.54669 0.64597 0.0
H5298 H 0.31409 0.57647 0.66054 0.0
H5299 H 0.34405 0.59823 0.60545 0.0
H5300 H 0.34254 0.56891 0.5906 0.0
H5301 H 0.30898 0.62018 0.61888 0.0
H5302 H 0.38715 0.59163 0.6496 0.0
H5303 H 0.40987 0.56726 0.66782 0.0
H5304 H 0.35615 0.57624 0.71763 0.0
H5305 H 0.33294 0.60058 0.69962 0.0
C5306 C 0.33715 0.6945 0.66534 0.0
C5307 C 0.33023 0.69714 0.68536 0.0
C5308 C 0.33842 0.67731 0.65723 0.0
C5309 C 0.33151 0.6622 0.66861 0.0
C5310 C 0.32493 0.66495 0.68877 0.0
C5311 C 0.32468 0.68211 0.69706 0.0
C5312 C 0.33091 0.64369 0.65962 0.0
C5313 C 0.34306 0.62934 0.66992 0.0
C5314 C 0.31859 0.64004 0.64086 0.0
C5315 C 0.3045 0.65406 0.6292 0.0
C5316 C 0.28211 0.66357 0.6373 0.0
C5317 C 0.27014 0.67756 0.62672 0.0
C5318 C 0.28023 0.68205 0.60795 0.0
C5319 C 0.30214 0.67244 0.59964 0.0
C5320 C 0.31419 0.65844 0.61016 0.0
C5321 C 0.32096 0.55782 0.6369 0.0
C5322 C 0.32947 0.55507 0.61713 0.0
C5323 C 0.32096 0.57495 0.64535 0.0
C5324 C 0.32978 0.58989 0.63441 0.0
C5325 C 0.33744 0.58716 0.61451 0.0
C5326 C 0.33709 0.57014 0.60603 0.0
C5327 C 0.33084 0.60832 0.6434 0.0
C5328 C 0.31891 0.62265 0.63306 0.0
C5329 C 0.34347 0.61193 0.66203 0.0
C5330 C 0.35821 0.59786 0.67323 0.0
C5331 C 0.38019 0.58841 0.66444 0.0
C5332 C 0.39314 0.57459 0.67472 0.0
C5333 C 0.38442 0.57018 0.69386 0.0
C5334 C 0.36288 0.57967 0.70281 0.0
C5335 C 0.34986 0.59351 0.69259 0.0
H5336 H 0.39438 0.55943 0.70175 0.0
H5337 H 0.27106 0.69296 0.59984 0.0
H5338 H 0.97474 0.68753 0.60023 0.0
H5339 H 0.97408 0.65738 0.61365 0.0
H5340 H 0.90358 0.67099 0.65006 0.0
H5341 H 0.90445 0.70126 0.63667 0.0
H5342 H 0.93825 0.65298 0.67149 0.0
H5343 H 0.89866 0.64374 0.60803 0.0
H5344 H 0.89361 0.64393 0.57166 0.0
H5345 H 0.96739 0.61237 0.56592 0.0
H5346 H 0.97316 0.61222 0.60226 0.0
H5347 H 0.90198 0.56602 0.70062 0.0
H5348 H 0.90354 0.59513 0.68608 0.0
H5349 H 0.97667 0.58043 0.6532 0.0
H5350 H 0.97515 0.55069 0.66814 0.0
H5351 H 0.9412 0.59889 0.62991 0.0
H5352 H 0.97825 0.60855 0.69556 0.0
H5353 H 0.97892 0.60816 0.73212 0.0
H5354 H 0.904 0.63902 0.73355 0.0
H5355 H 0.90264 0.63938 0.697 0.0
C5356 C 0.95931 0.68419 0.61127 0.0
C5357 C 0.94005 0.69697 0.61773 0.0
C5358 C 0.95868 0.66678 0.61877 0.0
C5359 C 0.93867 0.66161 0.63289 0.0
C5360 C 0.91935 0.67445 0.63928 0.0
C5361 C 0.91989 0.69182 0.63168 0.0
C5362 C 0.93856 0.64315 0.64158 0.0
C5363 C 0.93853 0.64119 0.66231 0.0
C5364 C 0.93937 0.62753 0.6298 0.0
C5365 C 0.93657 0.62818 0.60789 0.0
C5366 C 0.91405 0.63705 0.59902 0.0
C5367 C 0.91099 0.6371 0.5784 0.0
C5368 C 0.93021 0.62822 0.56648 0.0
C5369 C 0.95255 0.61928 0.57516 0.0
C5370 C 0.95573 0.61922 0.59577 0.0
C5371 C 0.91874 0.56876 0.69068 0.0
C5372 C 0.93867 0.55569 0.68617 0.0
C5373 C 0.91961 0.58571 0.68221 0.0
C5374 C 0.94057 0.59042 0.66875 0.0
C5375 C 0.96034 0.57736 0.66369 0.0
C5376 C 0.9595 0.56028 0.67234 0.0
C5377 C 0.94119 0.60878 0.6598 0.0
C5378 C 0.94114 0.61071 0.63904 0.0
C5379 C 0.93974 0.6244 0.67153 0.0
C5380 C 0.9402 0.62382 0.69352 0.0
C5381 C 0.96175 0.61508 0.70366 0.0
C5382 C 0.96228 0.61491 0.72439 0.0
C5383 C 0.94147 0.62352 0.73515 0.0
C5384 C 0.92007 0.63233 0.7252 0.0
C5385 C 0.91942 0.63252 0.70448 0.0
H5386 H 0.94197 0.6234 0.7512 0.0
H5387 H 0.92776 0.62821 0.55053 0.0
H5388 H 0.66814 0.31707 0.34228 0.0
H5389 H 0.66687 0.34613 0.35745 0.0
H5390 H 0.71302 0.32606 0.40749 0.0
H5391 H 0.71187 0.29628 0.39299 0.0
H5392 H 0.6772 0.34743 0.4212 0.0
H5393 H 0.74033 0.35422 0.36559 0.0
H5394 H 0.75367 0.35307 0.33028 0.0
H5395 H 0.68729 0.38877 0.31565 0.0
H5396 H 0.67334 0.38996 0.35081 0.0
H5397 H 0.70728 0.43239 0.46261 0.0
H5398 H 0.70821 0.40262 0.44823 0.0
H5399 H 0.6701 0.42294 0.39486 0.0
H5400 H 0.67163 0.4529 0.40875 0.0
H5401 H 0.70198 0.40106 0.38279 0.0
H5402 H 0.63546 0.39289 0.43613 0.0
H5403 H 0.61699 0.39189 0.4703 0.0
H5404 H 0.68525 0.35914 0.48842 0.0
H5405 H 0.70372 0.35947 0.4543 0.0
C5406 C 0.67746 0.31858 0.35669 0.0
C5407 C 0.6895 0.30396 0.36644 0.0
C5408 C 0.67736 0.33554 0.36526 0.0
C5409 C 0.69039 0.33877 0.38361 0.0
C5410 C 0.70282 0.32421 0.39332 0.0
C5411 C 0.70237 0.3071 0.3849 0.0
C5412 C 0.69058 0.35711 0.39278 0.0
C5413 C 0.68306 0.35911 0.41282 0.0
C5414 C 0.69711 0.37271 0.38191 0.0
C5415 C 0.7057 0.37208 0.36081 0.0
C5416 C 0.72852 0.36176 0.35482 0.0
C5417 C 0.73618 0.3611 0.33484 0.0
C5418 C 0.72132 0.37082 0.32073 0.0
C5419 C 0.69878 0.38124 0.32658 0.0
C5420 C 0.69101 0.38193 0.34653 0.0
C5421 C 0.69943 0.43047 0.44771 0.0
C5422 C 0.68983 0.44507 0.43671 0.0
C5423 C 0.69943 0.41328 0.43954 0.0
C5424 C 0.6886 0.40998 0.42041 0.0
C5425 C 0.67879 0.42473 0.40954 0.0
C5426 C 0.67967 0.44199 0.41747 0.0
C5427 C 0.68847 0.39152 0.41133 0.0
C5428 C 0.69606 0.38946 0.39127 0.0
C5429 C 0.68155 0.3759 0.4221 0.0
C5430 C 0.67117 0.37643 0.44276 0.0
C5431 C 0.64667 0.38564 0.44746 0.0
C5432 C 0.63617 0.38516 0.46679 0.0
C5433 C 0.65015 0.37571 0.48156 0.0
C5434 C 0.67453 0.36655 0.477 0.0
C5435 C 0.68494 0.36679 0.45766 0.0
H5436 H 0.64196 0.37538 0.4965 0.0
H5437 H 0.72728 0.37029 0.30527 0.0
H5438 H 0.08291 0.2933 0.40255 0.0
H5439 H 0.08484 0.32367 0.38896 0.0
H5440 H 0.0793 0.34488 0.44813 0.0
H5441 H 0.07831 0.31473 0.46165 0.0
H5442 H 0.04281 0.36183 0.42163 0.0
H5443 H 0.13689 0.34689 0.42728 0.0
H5444 H 0.18294 0.33309 0.42376 0.0
H5445 H 0.18182 0.34359 0.3612 0.0
H5446 H 0.13512 0.35667 0.36412 0.0
H5447 H 0.06973 0.45279 0.39632 0.0
H5448 H 0.0709 0.42324 0.41143 0.0
H5449 H 0.09078 0.40038 0.35459 0.0
H5450 H 0.09026 0.4299 0.33967 0.0
H5451 H 0.12127 0.38482 0.38163 0.0
H5452 H 0.02222 0.39813 0.37829 0.0
H5453 H 0.9819 0.41729 0.38539 0.0
H5454 H 0.9986 0.41355 0.44782 0.0
H5455 H 0.03915 0.39446 0.44106 0.0
C5456 C 0.08179 0.30445 0.41261 0.0
C5457 C 0.08011 0.30151 0.43321 0.0
C5458 C 0.08319 0.32186 0.40485 0.0
C5459 C 0.08229 0.33679 0.41745 0.0
C5460 C 0.08003 0.33377 0.43798 0.0
C5461 C 0.0794 0.31645 0.44573 0.0
C5462 C 0.0829 0.3555 0.40935 0.0
C5463 C 0.06011 0.36677 0.41293 0.0
C5464 C 0.10547 0.36233 0.39809 0.0
C5465 C 0.13211 0.35254 0.39589 0.0
C5466 C 0.14601 0.34581 0.41266 0.0
C5467 C 0.17238 0.33821 0.41079 0.0
C5468 C 0.18536 0.33753 0.39229 0.0
C5469 C 0.17181 0.34421 0.37555 0.0
C5470 C 0.14525 0.35155 0.37728 0.0
C5471 C 0.07409 0.44145 0.38701 0.0
C5472 C 0.07998 0.44385 0.36673 0.0
C5473 C 0.07473 0.42444 0.39568 0.0
C5474 C 0.08057 0.40921 0.38424 0.0
C5475 C 0.08632 0.41169 0.36394 0.0
C5476 C 0.08605 0.42869 0.35536 0.0
C5477 C 0.08078 0.39078 0.3932 0.0
C5478 C 0.10381 0.37964 0.38997 0.0
C5479 C 0.05875 0.38414 0.40507 0.0
C5480 C 0.03371 0.39493 0.40917 0.0
C5481 C 0.01724 0.40138 0.39353 0.0
C5482 C 0.99439 0.41225 0.39749 0.0
C5483 C 0.98771 0.41665 0.41704 0.0
C5484 C 1.00378 0.41011 0.43268 0.0
C5485 C 0.02665 0.39923 0.4288 0.0
H5486 H 0.97007 0.42512 0.42007 0.0
H5487 H 0.20585 0.33175 0.39089 0.0
H5488 H 0.83477 0.06918 0.58825 0.0
H5489 H 0.83507 0.09894 0.60252 0.0
H5490 H 0.83063 0.07644 0.66124 0.0
H5491 H 0.8299 0.04664 0.64688 0.0
H5492 H 0.79855 0.10272 0.66115 0.0
H5493 H 0.89321 0.09783 0.64062 0.0
H5494 H 0.93375 0.09335 0.61901 0.0
H5495 H 0.90455 0.13414 0.57979 0.0
H5496 H 0.86414 0.13924 0.60159 0.0
H5497 H 0.83509 0.18185 0.71346 0.0
H5498 H 0.83569 0.15237 0.6984 0.0
H5499 H 0.82398 0.17572 0.64068 0.0
H5500 H 0.82373 0.20537 0.65573 0.0
H5501 H 0.86447 0.14953 0.6401 0.0
H5502 H 0.77114 0.1554 0.66432 0.0
H5503 H 0.73481 0.16084 0.68934 0.0
H5504 H 0.76473 0.11702 0.72389 0.0
H5505 H 0.80162 0.11154 0.69927 0.0
C5506 C 0.83417 0.07054 0.60421 0.0
C5507 C 0.83256 0.05539 0.61636 0.0
C5508 C 0.83444 0.08768 0.61244 0.0
C5509 C 0.83342 0.09025 0.63313 0.0
C5510 C 0.83147 0.07508 0.64526 0.0
C5511 C 0.83096 0.05794 0.63701 0.0
C5512 C 0.83324 0.10864 0.6421 0.0
C5513 C 0.81333 0.11279 0.65667 0.0
C5514 C 0.85196 0.12223 0.63619 0.0
C5515 C 0.87546 0.11872 0.62257 0.0
C5516 C 0.89528 0.10571 0.62728 0.0
C5517 C 0.91831 0.10313 0.61503 0.0
C5518 C 0.92158 0.11327 0.59786 0.0
C5519 C 0.90194 0.12621 0.59303 0.0
C5520 C 0.87905 0.12904 0.6054 0.0
C5521 C 0.83278 0.18077 0.69755 0.0
C5522 C 0.82948 0.1961 0.68586 0.0
C5523 C 0.83291 0.16382 0.68893 0.0
C5524 C 0.82976 0.16163 0.66832 0.0
C5525 C 0.82645 0.17692 0.65659 0.0
C5526 C 0.82605 0.19391 0.66525 0.0
C5527 C 0.8299 0.14344 0.65909 0.0
C5528 C 0.84974 0.13938 0.64448 0.0
C5529 C 0.81143 0.12985 0.66519 0.0
C5530 C 0.78933 0.13318 0.68004 0.0
C5531 C 0.77016 0.14703 0.67735 0.0
C5532 C 0.74944 0.15011 0.69145 0.0
C5533 C 0.74751 0.13931 0.70822 0.0
C5534 C 0.76629 0.1254 0.71092 0.0
C5535 C 0.78711 0.12231 0.69689 0.0
H5536 H 0.73142 0.14169 0.7191 0.0
H5537 H 0.93938 0.11117 0.58834 0.0
H5538 H 0.39484 0.19433 0.62086 0.0
H5539 H 0.3954 0.16423 0.63455 0.0
H5540 H 0.48478 0.16354 0.63102 0.0
H5541 H 0.48434 0.19393 0.6177 0.0
H5542 H 0.45393 0.13051 0.61618 0.0
H5543 H 0.46212 0.16984 0.67269 0.0
H5544 H 0.44667 0.1956 0.69224 0.0
H5545 H 0.36741 0.17089 0.70171 0.0
H5546 H 0.38221 0.14511 0.68182 0.0
H5547 H 0.48083 0.05403 0.67684 0.0
H5548 H 0.48215 0.08398 0.66237 0.0
H5549 H 0.39557 0.09108 0.67648 0.0
H5550 H 0.3938 0.06109 0.68955 0.0
H5551 H 0.42496 0.12119 0.68603 0.0
H5552 H 0.41236 0.08358 0.63069 0.0
H5553 H 0.42213 0.05792 0.60924 0.0
H5554 H 0.50285 0.07899 0.59585 0.0
H5555 H 0.49371 0.1047 0.61753 0.0
C5556 C 0.41464 0.18774 0.62286 0.0
C5557 C 0.43955 0.19656 0.61807 0.0
C5558 C 0.41492 0.1705 0.63073 0.0
C5559 C 0.44012 0.16145 0.63375 0.0
C5560 C 0.46505 0.17014 0.62875 0.0
C5561 C 0.4648 0.18758 0.62127 0.0
C5562 C 0.4404 0.14332 0.643 0.0
C5563 C 0.44812 0.12853 0.63156 0.0
C5564 C 0.4317 0.1405 0.66284 0.0
C5565 C 0.4232 0.15559 0.67561 0.0
C5566 C 0.44134 0.16993 0.67884 0.0
C5567 C 0.4327 0.18454 0.68997 0.0
C5568 C 0.40604 0.1849 0.69816 0.0
C5569 C 0.38804 0.17059 0.69533 0.0
C5570 C 0.39656 0.15597 0.68413 0.0
C5571 C 0.46208 0.06196 0.67686 0.0
C5572 C 0.43744 0.0552 0.68522 0.0
C5573 C 0.46285 0.07917 0.66863 0.0
C5574 C 0.43904 0.09011 0.66857 0.0
C5575 C 0.41445 0.08326 0.6767 0.0
C5576 C 0.41357 0.06605 0.68453 0.0
C5577 C 0.43928 0.10834 0.65937 0.0
C5578 C 0.43123 0.12314 0.67074 0.0
C5579 C 0.44708 0.11114 0.63933 0.0
C5580 C 0.45249 0.09598 0.6259 0.0
C5581 C 0.43228 0.0827 0.62328 0.0
C5582 C 0.43769 0.06814 0.61108 0.0
C5583 C 0.46312 0.06681 0.60123 0.0
C5584 C 0.48317 0.08005 0.60352 0.0
C5585 C 0.47788 0.09463 0.61575 0.0
H5586 H 0.46725 0.05556 0.59175 0.0
H5587 H 0.39935 0.19625 0.70672 0.0
H5588 H 0.18556 0.81588 0.33948 0.0
H5589 H 0.18538 0.84564 0.35401 0.0
H5590 H 0.19251 0.82294 0.41242 0.0
H5591 H 0.19312 0.79304 0.39783 0.0
H5592 H 0.15188 0.85035 0.41011 0.0
H5593 H 0.24691 0.84119 0.39227 0.0
H5594 H 0.28623 0.83428 0.3702 0.0
H5595 H 0.26532 0.87866 0.33327 0.0
H5596 H 0.22543 0.88559 0.35487 0.0
H5597 H 0.18352 0.92963 0.46341 0.0
H5598 H 0.18238 0.9 0.44899 0.0
H5599 H 0.19249 0.92251 0.39069 0.0
H5600 H 0.19331 0.95235 0.40521 0.0
H5601 H 0.22352 0.89488 0.39266 0.0
H5602 H 0.12808 0.90382 0.40892 0.0
H5603 H 0.08607 0.90973 0.42866 0.0
H5604 H 0.10599 0.86631 0.46728 0.0
H5605 H 0.1481 0.86005 0.44765 0.0
C5606 C 0.18713 0.81718 0.35543 0.0
C5607 C 0.18949 0.80197 0.36744 0.0
C5608 C 0.18712 0.83428 0.36375 0.0
C5609 C 0.18902 0.83674 0.3844 0.0
C5610 C 0.19106 0.82154 0.39647 0.0
C5611 C 0.19165 0.80441 0.38809 0.0
C5612 C 0.18904 0.85511 0.3933 0.0
C5613 C 0.16781 0.86 0.40653 0.0
C5614 C 0.20919 0.86805 0.38822 0.0
C5615 C 0.23294 0.86377 0.37506 0.0
C5616 C 0.25045 0.84934 0.3793 0.0
C5617 C 0.27289 0.84544 0.3669 0.0
C5618 C 0.27822 0.85599 0.35031 0.0
C5619 C 0.26112 0.87047 0.34609 0.0
C5620 C 0.23857 0.87437 0.3584 0.0
C5621 C 0.18495 0.92838 0.44748 0.0
C5622 C 0.1879 0.94358 0.43552 0.0
C5623 C 0.18436 0.91127 0.43917 0.0
C5624 C 0.18671 0.9087 0.41855 0.0
C5625 C 0.19044 0.92388 0.4066 0.0
C5626 C 0.19103 0.94104 0.41495 0.0
C5627 C 0.18632 0.89027 0.4096 0.0
C5628 C 0.20751 0.88532 0.39631 0.0
C5629 C 0.16595 0.87732 0.41452 0.0
C5630 C 0.14145 0.88161 0.42695 0.0
C5631 C 0.12371 0.89567 0.42177 0.0
C5632 C 0.09979 0.89902 0.43288 0.0
C5633 C 0.09343 0.88845 0.44929 0.0
C5634 C 0.11098 0.8745 0.4546 0.0
C5635 C 0.13483 0.87101 0.44344 0.0
H5636 H 0.07486 0.89103 0.45786 0.0
H5637 H 0.29566 0.85299 0.34076 0.0
H5638 H 0.58751 0.81577 0.46175 0.0
H5639 H 0.58878 0.84529 0.44709 0.0
H5640 H 0.56792 0.82309 0.39011 0.0
H5641 H 0.56805 0.79321 0.40473 0.0
H5642 H 0.60768 0.84769 0.38565 0.0
H5643 H 0.5204 0.84648 0.42122 0.0
H5644 H 0.49056 0.84298 0.45068 0.0
H5645 H 0.53499 0.88463 0.48024 0.0
H5646 H 0.56543 0.88817 0.45111 0.0
H5647 H 0.58044 0.93023 0.33753 0.0
H5648 H 0.58007 0.90033 0.35147 0.0
H5649 H 0.58415 0.92237 0.41045 0.0
H5650 H 0.5828 0.95228 0.3964 0.0
H5651 H 0.55324 0.89731 0.41393 0.0
H5652 H 0.64246 0.89803 0.38266 0.0
H5653 H 0.67788 0.90079 0.35644 0.0
H5654 H 0.63592 0.86126 0.32183 0.0
H5655 H 0.60046 0.85806 0.348 0.0
C5656 C 0.58361 0.81705 0.44604 0.0
C5657 C 0.57816 0.80191 0.43445 0.0
C5658 C 0.58388 0.83412 0.43765 0.0
C5659 C 0.5782 0.83675 0.41738 0.0
C5660 C 0.57238 0.82164 0.40577 0.0
C5661 C 0.57218 0.80449 0.41419 0.0
C5662 C 0.57862 0.85515 0.40835 0.0
C5663 C 0.59541 0.85847 0.39167 0.0
C5664 C 0.56368 0.86964 0.41653 0.0
C5665 C 0.54534 0.86748 0.43403 0.0
C5666 C 0.52394 0.8548 0.43406 0.0
C5667 C 0.50691 0.85281 0.4507 0.0
C5668 C 0.51091 0.86355 0.46734 0.0
C5669 C 0.53194 0.8763 0.46736 0.0
C5670 C 0.54908 0.8783 0.45079 0.0
C5671 C 0.58131 0.9287 0.35348 0.0
C5672 C 0.58161 0.94377 0.36579 0.0
C5673 C 0.58141 0.91145 0.36154 0.0
C5674 C 0.58271 0.90862 0.38222 0.0
C5675 C 0.58304 0.92379 0.39449 0.0
C5676 C 0.58224 0.94104 0.38644 0.0
C5677 C 0.58245 0.89006 0.39112 0.0
C5678 C 0.56562 0.88664 0.4078 0.0
C5679 C 0.59797 0.87561 0.38325 0.0
C5680 C 0.6186 0.87799 0.36716 0.0
C5681 C 0.64064 0.89005 0.36938 0.0
C5682 C 0.6608 0.89162 0.35457 0.0
C5683 C 0.65902 0.88133 0.3374 0.0
C5684 C 0.63721 0.8693 0.33509 0.0
C5685 C 0.61715 0.86753 0.34995 0.0
H5686 H 0.6746 0.88264 0.32592 0.0
H5687 H 0.49767 0.86201 0.48019 0.0
H5688 H 0.87545 0.55637 0.1216 0.0
H5689 H 0.87461 0.58656 0.13515 0.0
H5690 H 0.78556 0.58784 0.12886 0.0
H5691 H 0.78619 0.55734 0.1161 0.0
H5692 H 0.8184 0.62072 0.1144 0.0
H5693 H 0.8041 0.58228 0.17086 0.0
H5694 H 0.81664 0.55663 0.19163 0.0
H5695 H 0.8957 0.58033 0.20458 0.0
H5696 H 0.88386 0.60598 0.18348 0.0
H5697 H 0.78902 0.69871 0.17171 0.0
H5698 H 0.78793 0.66851 0.15801 0.0
H5699 H 0.87196 0.65997 0.17788 0.0
H5700 H 0.87352 0.69005 0.1907 0.0
H5701 H 0.84162 0.6305 0.18527 0.0
H5702 H 0.8589 0.66791 0.13012 0.0
H5703 H 0.85051 0.69357 0.10831 0.0
H5704 H 0.77115 0.67219 0.09176 0.0
H5705 H 0.77883 0.64653 0.11381 0.0
C5706 C 0.85567 0.56309 0.12302 0.0
C5707 C 0.83093 0.55437 0.11754 0.0
C5708 C 0.85521 0.58041 0.13079 0.0
C5709 C 0.83004 0.58972 0.13289 0.0
C5710 C 0.8053 0.5811 0.12726 0.0
C5711 C 0.80568 0.56356 0.12003 0.0
C5712 C 0.82948 0.60804 0.14188 0.0
C5713 C 0.82301 0.62281 0.12997 0.0
C5714 C 0.83643 0.61102 0.16205 0.0
C5715 C 0.8432 0.59598 0.17541 0.0
C5716 C 0.82424 0.58198 0.17801 0.0
C5717 C 0.83122 0.56744 0.18985 0.0
C5718 C 0.85699 0.56683 0.19937 0.0
C5719 C 0.87577 0.58081 0.19716 0.0
C5720 C 0.86892 0.59536 0.18526 0.0
C5721 C 0.80731 0.69045 0.17311 0.0
C5722 C 0.8312 0.69698 0.18277 0.0
C5723 C 0.80666 0.67307 0.16531 0.0
C5724 C 0.82984 0.66166 0.16691 0.0
C5725 C 0.85359 0.66818 0.17658 0.0
C5726 C 0.85435 0.68554 0.18412 0.0
C5727 C 0.82992 0.64328 0.1579 0.0
C5728 C 0.83665 0.62847 0.16975 0.0
C5729 C 0.82368 0.6403 0.13758 0.0
C5730 C 0.81932 0.65537 0.12377 0.0
C5731 C 0.83958 0.66871 0.12191 0.0
C5732 C 0.83495 0.68327 0.10952 0.0
C5733 C 0.81027 0.68453 0.09869 0.0
C5734 C 0.79024 0.6712 0.10018 0.0
C5735 C 0.79472 0.65664 0.11263 0.0
H5736 H 0.8067 0.69581 0.08911 0.0
H5737 H 0.86238 0.55554 0.2085 0.0
H5738 H 0.40362 0.55015 0.16653 0.0
H5739 H 0.40391 0.58055 0.15343 0.0
H5740 H 0.47685 0.59217 0.18818 0.0
H5741 H 0.47684 0.56164 0.20096 0.0
H5742 H 0.43846 0.62017 0.18966 0.0
H5743 H 0.48221 0.5846 0.14018 0.0
H5744 H 0.48853 0.561 0.11539 0.0
H5745 H 0.41814 0.58026 0.08273 0.0
H5746 H 0.4107 0.60361 0.10775 0.0
H5747 H 0.47373 0.70161 0.13939 0.0
H5748 H 0.47523 0.67178 0.154 0.0
H5749 H 0.40711 0.65577 0.11662 0.0
H5750 H 0.4057 0.68498 0.10232 0.0
H5751 H 0.44387 0.63016 0.11707 0.0
H5752 H 0.39779 0.66441 0.16687 0.0
H5753 H 0.39433 0.69072 0.1884 0.0
H5754 H 0.46936 0.67549 0.2184 0.0
H5755 H 0.47341 0.64915 0.19687 0.0
C5756 C 0.41998 0.55912 0.17112 0.0
C5757 C 0.44065 0.55327 0.18437 0.0
C5758 C 0.42004 0.57659 0.16373 0.0
C5759 C 0.44051 0.58887 0.16964 0.0
C5760 C 0.46083 0.58311 0.18326 0.0
C5761 C 0.46102 0.56553 0.19042 0.0
C5762 C 0.44122 0.60742 0.16111 0.0
C5763 C 0.43996 0.62228 0.17379 0.0
C5764 C 0.44253 0.61051 0.14035 0.0
C5765 C 0.44575 0.59578 0.12597 0.0
C5766 C 0.46771 0.5836 0.12795 0.0
C5767 C 0.47151 0.57027 0.11384 0.0
C5768 C 0.45376 0.56914 0.09752 0.0
C5769 C 0.4318 0.58111 0.09545 0.0
C5770 C 0.42773 0.59437 0.10962 0.0
C5771 C 0.45905 0.69177 0.13424 0.0
C5772 C 0.43961 0.69608 0.11931 0.0
C5773 C 0.45987 0.67461 0.1427 0.0
C5774 C 0.44116 0.66125 0.13657 0.0
C5775 C 0.42198 0.66555 0.12167 0.0
C5776 C 0.42119 0.68256 0.11335 0.0
C5777 C 0.44112 0.64287 0.14554 0.0
C5778 C 0.44231 0.62804 0.13294 0.0
C5779 C 0.43943 0.63983 0.16627 0.0
C5780 C 0.43597 0.65485 0.18023 0.0
C5781 C 0.4135 0.66664 0.17812 0.0
C5782 C 0.41146 0.68157 0.19028 0.0
C5783 C 0.43164 0.68479 0.20474 0.0
C5784 C 0.45374 0.67297 0.20719 0.0
C5785 C 0.45588 0.65801 0.19505 0.0
H5786 H 0.43015 0.69643 0.21405 0.0
H5787 H 0.45733 0.55914 0.08636 0.0
H5788 H 0.14195 0.44124 0.93512 0.0
H5789 H 0.14234 0.41141 0.92132 0.0
H5790 H 0.23181 0.41326 0.91779 0.0
H5791 H 0.23125 0.44351 0.93122 0.0
H5792 H 0.2153 0.39806 0.88682 0.0
H5793 H 0.18974 0.38754 0.95498 0.0
H5794 H 0.16212 0.39042 0.98563 0.0
H5795 H 0.08919 0.37286 0.95463 0.0
H5796 H 0.1163 0.37005 0.92376 0.0
H5797 H 0.23153 0.30394 0.87181 0.0
H5798 H 0.23213 0.33408 0.88563 0.0
H5799 H 0.14308 0.337 0.87965 0.0
H5800 H 0.1424 0.30704 0.86588 0.0
H5801 H 0.15964 0.34924 0.91572 0.0
H5802 H 0.18441 0.35974 0.84811 0.0
H5803 H 0.21113 0.35697 0.81708 0.0
H5804 H 0.28491 0.37449 0.84708 0.0
H5805 H 0.25869 0.37715 0.87836 0.0
C5806 C 0.16179 0.4352 0.93176 0.0
C5807 C 0.18662 0.4447 0.93482 0.0
C5808 C 0.16201 0.41799 0.92382 0.0
C5809 C 0.18716 0.4095 0.91894 0.0
C5810 C 0.21201 0.41921 0.92152 0.0
C5811 C 0.21174 0.43659 0.92923 0.0
C5812 C 0.18749 0.3909 0.91051 0.0
C5813 C 0.20351 0.38737 0.89348 0.0
C5814 C 0.17143 0.37676 0.91853 0.0
C5815 C 0.15502 0.37876 0.93701 0.0
C5816 C 0.16777 0.38444 0.95466 0.0
C5817 C 0.15221 0.38601 0.97209 0.0
C5818 C 0.12392 0.38184 0.97207 0.0
C5819 C 0.11111 0.37609 0.95463 0.0
C5820 C 0.12656 0.37449 0.93717 0.0
C5821 C 0.21207 0.311 0.87343 0.0
C5822 C 0.18695 0.30303 0.86748 0.0
C5823 C 0.21244 0.32833 0.88125 0.0
C5824 C 0.18766 0.33807 0.8836 0.0
C5825 C 0.16255 0.32996 0.87797 0.0
C5826 C 0.16221 0.31279 0.86992 0.0
C5827 C 0.18771 0.35649 0.8923 0.0
C5828 C 0.17163 0.35996 0.90927 0.0
C5829 C 0.20369 0.37054 0.88427 0.0
C5830 C 0.21967 0.36841 0.86564 0.0
C5831 C 0.20642 0.36278 0.84815 0.0
C5832 C 0.22145 0.36129 0.8305 0.0
C5833 C 0.24972 0.36549 0.83012 0.0
C5834 C 0.26302 0.37119 0.8474 0.0
C5835 C 0.24809 0.3727 0.86509 0.0
H5836 H 0.26131 0.36438 0.81643 0.0
H5837 H 0.11193 0.38307 0.98557 0.0
H5838 H 0.57709 0.31684 0.96424 0.0
H5839 H 0.57733 0.34674 0.94987 0.0
H5840 H 0.58568 0.32438 0.89141 0.0
H5841 H 0.58479 0.29439 0.90574 0.0
H5842 H 0.62245 0.35421 0.89886 0.0
H5843 H 0.52635 0.33909 0.90359 0.0
H5844 H 0.48317 0.32935 0.91988 0.0
H5845 H 0.48708 0.37393 0.9593 0.0
H5846 H 0.53072 0.38372 0.94355 0.0
H5847 H 0.58999 0.43056 0.84079 0.0
H5848 H 0.59171 0.40124 0.85585 0.0
H5849 H 0.56913 0.42381 0.91226 0.0
H5850 H 0.56839 0.45352 0.89721 0.0
H5851 H 0.54102 0.39388 0.90655 0.0
H5852 H 0.63645 0.40983 0.90098 0.0
H5853 H 0.67994 0.41939 0.88494 0.0
H5854 H 0.67816 0.37348 0.84742 0.0
H5855 H 0.63424 0.36387 0.86283 0.0
C5856 C 0.57893 0.31826 0.94832 0.0
C5857 C 0.58075 0.30312 0.93619 0.0
C5858 C 0.57904 0.33543 0.94008 0.0
C5859 C 0.58151 0.33802 0.91946 0.0
C5860 C 0.58376 0.3229 0.90733 0.0
C5861 C 0.583 0.3057 0.91554 0.0
C5862 C 0.5811 0.35644 0.91063 0.0
C5863 C 0.6045 0.3628 0.90033 0.0
C5864 C 0.55805 0.36799 0.91289 0.0
C5865 C 0.53205 0.362 0.92257 0.0
C5866 C 0.51824 0.34669 0.91592 0.0
C5867 C 0.49364 0.34118 0.92502 0.0
C5868 C 0.48244 0.35098 0.94066 0.0
C5869 C 0.49583 0.36632 0.94722 0.0
C5870 C 0.52052 0.37184 0.93823 0.0
C5871 C 0.58608 0.42947 0.8565 0.0
C5872 C 0.57995 0.44469 0.8678 0.0
C5873 C 0.58685 0.41251 0.86515 0.0
C5874 C 0.58123 0.41006 0.88544 0.0
C5875 C 0.57388 0.42516 0.89664 0.0
C5876 C 0.57332 0.44221 0.88797 0.0
C5877 C 0.58238 0.39178 0.89469 0.0
C5878 C 0.55908 0.38539 0.9051 0.0
C5879 C 0.60561 0.38025 0.89254 0.0
C5880 C 0.6318 0.38621 0.88295 0.0
C5881 C 0.6451 0.40187 0.88914 0.0
C5882 C 0.6699 0.40728 0.8802 0.0
C5883 C 0.68184 0.39702 0.86522 0.0
C5884 C 0.6689 0.38141 0.85904 0.0
C5885 C 0.64402 0.37599 0.86786 0.0
H5886 H 0.70115 0.40113 0.85842 0.0
H5887 H 0.46333 0.34672 0.94765 0.0
H5888 H 0.3109 0.97965 1.02558 0.0
H5889 H 0.27971 0.97768 0.99668 0.0
H5890 H 0.23097 0.02047 1.0198 0.0
H5891 H 0.26376 0.02342 0.04759 0.0
H5892 H 0.19761 0.98457 0.99786 0.0
H5893 H 0.25894 0.03718 0.98187 0.0
H5894 H 0.30751 0.04664 0.98735 0.0
H5895 H 0.33651 -0.00063 0.95886 0.0
H5896 H 0.28838 0.98981 0.95297 0.0
H5897 H 0.11596 0.01795 0.9143 0.0
H5898 H 0.14894 0.01728 0.94169 0.0
H5899 H 0.19885 0.97961 0.91016 0.0
H5900 H 0.16425 0.9793 0.88289 0.0
H5901 H 0.23344 0.01126 0.93569 0.0
H5902 H 0.18118 0.95568 0.95702 0.0
H5903 H 0.13673 0.93925 0.95772 0.0
H5904 H 0.09457 0.98633 0.97708 0.0
H5905 H 0.13855 0.0029 0.97603 0.0
C5906 C 0.29292 0.98827 1.02523 0.0
C5907 C 0.28936 0.00065 0.04108 0.0
C5908 C 0.27477 0.98723 1.00812 0.0
C5909 C 0.2513 0.99849 1.00528 0.0
C5910 C 0.2477 0.01095 1.02097 0.0
C5911 C 0.26647 0.01233 0.03775 0.0
C5912 C 0.23274 0.99836 0.98553 0.0
C5913 C 0.20579 0.99066 0.98453 0.0
C5914 C 0.24199 0.00554 0.96701 0.0
C5915 C 0.2702 0.01303 0.96654 0.0
C5916 C 0.27579 0.02911 0.97624 0.0
C5917 C 0.30325 0.03438 0.97963 0.0
C5918 C 0.32519 0.02356 0.97354 0.0
C5919 C 0.31965 0.00769 0.96366 0.0
C5920 C 0.2923 0.00247 0.96001 0.0
C5921 C 0.13403 0.00955 0.91258 0.0
C5922 C 0.13678 -0.00061 0.89475 0.0
C5923 C 0.15344 0.00917 0.92885 0.0
C5924 C 0.1779 0.99866 0.92902 0.0
C5925 C 0.18113 0.98837 0.91124 0.0
C5926 C 0.1611 0.98848 0.89491 0.0
C5927 C 0.19781 0.99782 0.94815 0.0
C5928 C 0.22511 0.00531 0.94904 0.0
C5929 C 0.18918 0.99013 0.96655 0.0
C5930 C 0.16293 0.98033 0.967 0.0
C5931 C 0.16232 0.96241 0.96151 0.0
C5932 C 0.13724 0.9531 0.96186 0.0
C5933 C 0.11286 0.96167 0.96769 0.0
C5934 C 0.11339 0.97962 0.97268 0.0
C5935 C 0.13835 0.98897 0.97226 0.0
H5936 H 0.09359 0.95441 0.96837 0.0
H5937 H 0.34646 0.02749 0.97638 0.0
H5938 H 0.1127 0.22607 0.88755 0.0
H5939 H 0.07926 0.22705 0.91499 0.0
H5940 H 0.11771 0.27463 0.9364 0.0
H5941 H 0.14997 0.2741 0.90808 0.0
H5942 H 0.10513 0.25982 0.96892 0.0
H5943 H 0.03904 0.26973 0.91863 0.0
H5944 H 1.00883 0.26717 0.88938 0.0
H5945 H 0.98705 0.21409 0.90609 0.0
H5946 H 0.0161 0.21672 0.93616 0.0
H5947 H 0.99459 0.27218 0.04621 0.0
H5948 H 0.02755 0.27401 1.01823 0.0
H5949 H 1.00053 0.22297 0.99797 0.0
H5950 H 0.96972 0.22049 0.02668 0.0
H5951 H 1.00685 0.24105 0.96496 0.0
H5952 H 0.07492 0.23309 1.01641 0.0
H5953 H 0.1037 0.23849 0.04589 0.0
H5954 H 0.11874 0.29189 0.02671 0.0
H5955 H 0.09124 0.28639 0.99637 0.0
C5956 C 0.11299 0.23761 0.89698 0.0
C5957 C 0.13357 0.2509 0.89333 0.0
C5958 C 0.09373 0.23794 0.91363 0.0
C5959 C 0.09409 0.25115 0.92891 0.0
C5960 C 0.11527 0.26414 0.92561 0.0
C5961 C 0.13405 0.26398 0.90871 0.0
C5962 C 0.07404 0.25095 0.94822 0.0
C5963 C 0.08355 0.25592 0.96753 0.0
C5964 C 0.04519 0.24579 0.94825 0.0
C5965 C 0.03026 0.24326 0.92934 0.0
C5966 C 0.02826 0.25738 0.91585 0.0
C5967 C 0.01119 0.25595 0.89918 0.0
C5968 C 0.99656 0.24031 0.89554 0.0
C5969 C 0.99866 0.22613 0.90879 0.0
C5970 C 0.01524 0.22763 0.92574 0.0
C5971 C 0.99621 0.26087 0.03651 0.0
C5972 C 0.97906 0.24575 0.04037 0.0
C5973 C 0.01536 0.26205 1.01975 0.0
C5974 C 0.0181 0.24858 1.00482 0.0
C5975 C 1.00027 0.23385 1.00841 0.0
C5976 C 0.98207 0.23241 1.02543 0.0
C5977 C 0.03801 0.24972 0.98556 0.0
C5978 C 0.02847 0.2449 0.96627 0.0
C5979 C 0.06658 0.2554 0.98549 0.0
C5980 C 0.08063 0.25944 1.00438 0.0
C5981 C 0.08389 0.24609 1.01868 0.0
C5982 C 0.10014 0.24915 0.03547 0.0
C5983 C 0.11255 0.26568 0.03846 0.0
C5984 C 0.10894 0.27914 1.02448 0.0
C5985 C 0.09325 0.27601 1.00737 0.0
H5986 H 0.12523 0.26797 0.05147 0.0
H5987 H 0.98335 0.23925 0.8826 0.0
H5988 H 0.31695 0.22867 0.28471 0.0
H5989 H 0.2877 0.23199 0.31314 0.0
H5990 H 0.23469 0.26748 0.28081 0.0
H5991 H 0.26923 0.26771 0.25396 0.0
H5992 H 0.21594 0.27436 0.31233 0.0
H5993 H 0.22662 0.21128 0.3034 0.0
H5994 H 0.2539 0.18397 0.29829 0.0
H5995 H 0.29827 0.19352 0.35253 0.0
H5996 H 0.2713 0.22092 0.35791 0.0
H5997 H 0.1051 0.25588 0.38489 0.0
H5998 H 0.13701 0.25609 0.3567 0.0
H5999 H 0.20514 0.24507 0.39584 0.0
H6000 H 0.17315 0.24504 0.4238 0.0
H6001 H 0.21364 0.22534 0.36108 0.0
H6002 H 0.19156 0.28602 0.37182 0.0
H6003 H 0.15559 0.30862 0.37706 0.0
H6004 H 0.1273 0.3021 0.31716 0.0
H6005 H 0.16121 0.278 0.31217 0.0
C6006 C 0.29885 0.23705 0.28298 0.0
C6007 C 0.29522 0.24638 0.26475 0.0
C6008 C 0.28077 0.23857 0.29987 0.0
C6009 C 0.25558 0.24856 0.30006 0.0
C6010 C 0.25229 0.25864 0.28209 0.0
C6011 C 0.27189 0.25812 0.26555 0.0
C6012 C 0.2344 0.24892 0.31877 0.0
C6013 C 0.21571 0.26332 0.32256 0.0
C6014 C 0.23213 0.23505 0.33352 0.0
C6015 C 0.24708 0.21813 0.33099 0.0
C6016 C 0.24207 0.20746 0.31429 0.0
C6017 C 0.25753 0.19202 0.31132 0.0
C6018 C 0.27783 0.18703 0.32506 0.0
C6019 C 0.28252 0.19739 0.34191 0.0
C6020 C 0.2671 0.21284 0.34497 0.0
C6021 C 0.12693 0.25379 0.38801 0.0
C6022 C 0.13522 0.25078 0.40816 0.0
C6023 C 0.14571 0.25383 0.37128 0.0
C6024 C 0.1748 0.25064 0.37298 0.0
C6025 C 0.18336 0.24762 0.39298 0.0
C6026 C 0.16444 0.24782 0.40975 0.0
C6027 C 0.19564 0.25061 0.3544 0.0
C6028 C 0.2141 0.23631 0.35072 0.0
C6029 C 0.19701 0.2643 0.33956 0.0
C6030 C 0.17884 0.28006 0.34166 0.0
C6031 C 0.17767 0.28935 0.35973 0.0
C6032 C 0.15752 0.30239 0.36272 0.0
C6033 C 0.1395 0.30707 0.34736 0.0
C6034 C 0.14136 0.29851 0.32903 0.0
C6035 C 0.16083 0.28498 0.32619 0.0
H6036 H 0.124 0.31724 0.34971 0.0
H6037 H 0.28992 0.17514 0.32266 0.0
H6038 H 1.00647 0.98628 0.24856 0.0
H6039 H 0.04108 0.98598 0.2749 0.0
H6040 H 0.98375 0.01396 0.31258 0.0
H6041 H 0.95257 0.01736 0.28502 0.0
H6042 H 0.01962 0.02097 0.33151 0.0
H6043 H 0.02211 0.95983 0.30904 0.0
H6044 H 0.03021 0.93484 0.28613 0.0
H6045 H 0.11408 0.95238 0.27678 0.0
H6046 H 0.10633 0.9776 0.29937 0.0
H6047 H 0.09686 0.00446 0.42278 0.0
H6048 H 0.0644 0.00319 0.39522 0.0
H6049 H 0.13203 0.9902 0.35633 0.0
H6050 H 0.16369 0.98993 0.38471 0.0
H6051 H 0.09283 0.97563 0.33838 0.0
H6052 H 0.08726 0.03577 0.36476 0.0
H6053 H 0.07629 0.05896 0.38935 0.0
H6054 H 0.99259 0.03964 0.39368 0.0
H6055 H 1.00317 0.0162 0.36938 0.0
C6056 C 1.0018 0.99355 0.26171 0.0
C6057 C 0.97624 0.00306 0.2628 0.0
C6058 C 0.02164 0.99251 0.27801 0.0
C6059 C 0.01664 -0.0004 0.29753 0.0
C6060 C 0.99049 0.00841 0.29863 0.0
C6061 C 0.97169 0.01025 0.28216 0.0
C6062 C 0.03723 0.99836 0.31649 0.0
C6063 C 0.03493 0.01055 0.33266 0.0
C6064 C 0.0591 0.98553 0.31964 0.0
C6065 C 0.06348 0.97074 0.30561 0.0
C6066 C 0.04219 0.95842 0.30196 0.0
C6067 C 0.04673 0.94423 0.28903 0.0
C6068 C 0.0726 0.94208 0.27993 0.0
C6069 C 0.094 0.95412 0.28374 0.0
C6070 C 0.08953 0.96838 0.29656 0.0
C6071 C 0.10494 0.00031 0.409 0.0
C6072 C 0.13378 0.99631 0.40767 0.0
C6073 C 0.086 0.00029 0.39225 0.0
C6074 C 0.09447 0.99697 0.37225 0.0
C6075 C 0.12332 0.99285 0.37082 0.0
C6076 C 0.14199 0.99265 0.38765 0.0
C6077 C 0.0743 0.99784 0.35324 0.0
C6078 C 0.07698 0.98575 0.33709 0.0
C6079 C 0.0521 0.01036 0.35039 0.0
C6080 C 0.04613 0.02411 0.36544 0.0
C6081 C 0.06661 0.03638 0.37111 0.0
C6082 C 0.06044 0.04958 0.38498 0.0
C6083 C 0.0338 0.05074 0.39311 0.0
C6084 C 0.01325 0.0387 0.38743 0.0
C6085 C 0.01933 0.02545 0.37363 0.0
H6086 H 0.02904 0.06101 0.40378 0.0
H6087 H 0.07609 0.93106 0.26999 0.0
H6088 H 0.87169 0.97266 0.15923 0.0
H6089 H 0.83937 0.97266 0.13123 0.0
H6090 H 0.84738 0.02918 0.12654 0.0
H6091 H 0.87887 0.02913 0.15553 0.0
H6092 H 0.79883 0.02421 0.11097 0.0
H6093 H 0.87983 0.99149 0.09553 0.0
H6094 H 0.91549 0.96837 0.09781 0.0
H6095 H 0.85359 0.9282 0.08924 0.0
H6096 H 0.81725 0.95117 0.08701 0.0
H6097 H 0.73527 0.02417 1.01085 0.0
H6098 H 0.76692 0.02659 0.0396 0.0
H6099 H 0.76115 0.9704 0.04871 0.0
H6100 H 0.72993 0.9681 1.02011 0.0
H6101 H 0.80959 0.97636 0.06146 0.0
H6102 H 0.72813 0.00921 0.07911 0.0
H6103 H 0.69265 0.03265 0.07638 0.0
H6104 H 0.75614 0.07245 0.08049 0.0
H6105 H 0.79206 0.04923 0.08291 0.0
C6106 C 0.86593 0.98534 0.15295 0.0
C6107 C 0.8778 0.00096 0.16135 0.0
C6108 C 0.84748 0.98531 0.13603 0.0
C6109 C 0.84022 0.00086 0.12507 0.0
C6110 C 0.85159 0.01663 0.1337 0.0
C6111 C 0.86984 0.01666 0.15094 0.0
C6112 C 0.82207 0.00048 0.10491 0.0
C6113 C 0.80183 0.0137 0.10024 0.0
C6114 C 0.82409 0.98698 0.08983 0.0
C6115 C 0.84573 0.97308 0.09131 0.0
C6116 C 0.8737 0.97772 0.09436 0.0
C6117 C 0.89409 0.96462 0.09563 0.0
C6118 C 0.88687 0.94679 0.09384 0.0
C6119 C 0.85917 0.94203 0.09068 0.0
C6120 C 0.83865 0.95509 0.08937 0.0
C6121 C 0.74121 0.01213 1.01846 0.0
C6122 C 0.72985 0.99572 1.01167 0.0
C6123 C 0.75935 0.01356 0.03569 0.0
C6124 C 0.76733 0.99876 0.04784 0.0
C6125 C 0.75644 0.98242 0.04063 0.0
C6126 C 0.73822 0.98104 1.02365 0.0
C6127 C 0.78611 -9e-05 0.06765 0.0
C6128 C 0.80653 0.98682 0.07223 0.0
C6129 C 0.78425 0.01352 0.08259 0.0
C6130 C 0.7628 0.02748 0.08094 0.0
C6131 C 0.73454 0.02296 0.07926 0.0
C6132 C 0.71435 0.03621 0.07779 0.0
C6133 C 0.72214 0.05403 0.07821 0.0
C6134 C 0.75014 0.05864 0.08011 0.0
C6135 C 0.77043 0.04544 0.08152 0.0
H6136 H 0.70647 0.06427 0.0771 0.0
H6137 H 0.90276 0.93668 0.09481 0.0
H6138 H 0.02141 0.72926 1.00306 0.0
H6139 H 0.9863 0.72824 0.02979 0.0
H6140 H 0.02381 0.77374 0.05678 0.0
H6141 H 0.05621 0.77615 0.02895 0.0
H6142 H 0.01162 0.74103 0.08505 0.0
H6143 H 0.96394 0.7821 0.04122 0.0
H6144 H 0.93839 0.79257 1.01179 0.0
H6145 H 0.88142 0.74905 1.01703 0.0
H6146 H 0.90635 0.73851 0.04675 0.0
H6147 H 0.92145 0.74947 0.17192 0.0
H6148 H 0.95312 0.75073 0.14429 0.0
H6149 H 0.88408 0.74457 0.10437 0.0
H6150 H 0.85244 0.74556 0.13239 0.0
H6151 H 0.91222 0.75693 0.08088 0.0
H6152 H 0.95521 0.71335 0.12044 0.0
H6153 H 0.97954 0.69738 0.1472 0.0
H6154 H 0.04406 0.73667 0.14721 0.0
H6155 H 0.01975 0.75314 0.12082 0.0
C6156 C 0.02153 0.73977 1.01383 0.0
C6157 C 0.04186 0.75352 1.01201 0.0
C6158 C 1.00129 0.73892 0.02991 0.0
C6159 C 1.00088 0.75107 0.04624 0.0
C6160 C 0.02206 0.76415 0.04492 0.0
C6161 C 0.0412 0.76549 0.02848 0.0
C6162 C 0.98024 0.74987 0.06489 0.0
C6163 C 0.98992 0.74474 0.08396 0.0
C6164 C 0.95101 0.75379 0.06459 0.0
C6165 C 0.93734 0.75934 0.04597 0.0
C6166 C 0.94624 0.77461 0.03592 0.0
C6167 C 0.93167 0.78066 1.01932 0.0
C6168 C 0.90844 0.7714 1.01243 0.0
C6169 C 0.89952 0.75616 1.02229 0.0
C6170 C 0.91378 0.75019 0.03907 0.0
C6171 C 0.91239 0.74862 0.1577 0.0
C6172 C 0.88289 0.74776 0.156 0.0
C6173 C 0.93137 0.7489 0.14094 0.0
C6174 C 0.92277 0.74745 0.12061 0.0
C6175 C 0.89325 0.74598 0.11892 0.0
C6176 C 0.87444 0.74632 0.13567 0.0
C6177 C 0.94332 0.74786 0.10158 0.0
C6178 C 0.93376 0.75303 0.08232 0.0
C6179 C 0.97246 0.74318 0.10151 0.0
C6180 C 0.98545 0.73459 0.11886 0.0
C6181 C 0.97428 0.71878 0.12644 0.0
C6182 C 0.98808 0.70963 0.14149 0.0
C6183 C 0.01325 0.71602 0.14886 0.0
C6184 C 0.02447 0.73178 0.14153 0.0
C6185 C 0.01062 0.74108 0.12659 0.0
H6186 H 0.0241 0.70859 0.16006 0.0
H6187 H 0.89731 0.77606 0.99949 0.0
H6188 H 0.91525 0.76119 0.66871 0.0
H6189 H 0.88285 0.76021 0.69643 0.0
H6190 H 0.81986 0.73911 0.65819 0.0
H6191 H 0.85382 0.73779 0.63104 0.0
H6192 H 0.80144 0.77143 0.68893 0.0
H6193 H 0.83062 0.70783 0.69419 0.0
H6194 H 0.86987 0.687 0.69048 0.0
H6195 H 0.91914 0.71873 0.72992 0.0
H6196 H 0.87988 0.73952 0.7342 0.0
H6197 H 0.69946 0.75921 0.76581 0.0
H6198 H 0.73009 0.75739 0.73777 0.0
H6199 H 0.79692 0.74114 0.77581 0.0
H6200 H 0.76443 0.7404 0.80361 0.0
H6201 H 0.81496 0.72919 0.74432 0.0
H6202 H 0.77742 0.78753 0.74708 0.0
H6203 H 0.74097 0.81044 0.74802 0.0
H6204 H 0.71283 0.79469 0.69024 0.0
H6205 H 0.74857 0.77137 0.68914 0.0
C6206 C 0.89451 0.75637 0.6656 0.0
C6207 C 0.88789 0.75082 0.64581 0.0
C6208 C 0.87545 0.75585 0.68208 0.0
C6209 C 0.84748 0.75013 0.68034 0.0
C6210 C 0.84055 0.74423 0.66079 0.0
C6211 C 0.86026 0.74404 0.64442 0.0
C6212 C 0.82672 0.74983 0.69883 0.0
C6213 C 0.80428 0.76192 0.70079 0.0
C6214 C 0.82986 0.73825 0.71548 0.0
C6215 C 0.85227 0.72496 0.71479 0.0
C6216 C 0.84967 0.71012 0.70238 0.0
C6217 C 0.8719 0.69837 0.70014 0.0
C6218 C 0.89689 0.70145 0.71014 0.0
C6219 C 0.89962 0.71623 0.72246 0.0
C6220 C 0.87733 0.72793 0.72491 0.0
C6221 C 0.7207 0.75534 0.76885 0.0
C6222 C 0.72844 0.75116 0.78883 0.0
C6223 C 0.73907 0.75452 0.75206 0.0
C6224 C 0.76783 0.75023 0.75339 0.0
C6225 C 0.77569 0.74523 0.77314 0.0
C6226 C 0.75666 0.74532 0.78998 0.0
C6227 C 0.78856 0.75069 0.73458 0.0
C6228 C 0.81146 0.73871 0.73257 0.0
C6229 C 0.78606 0.76279 0.71798 0.0
C6230 C 0.76533 0.77737 0.71824 0.0
C6231 C 0.76338 0.78887 0.73461 0.0
C6232 C 0.74277 0.80192 0.73519 0.0
C6233 C 0.72447 0.80394 0.71927 0.0
C6234 C 0.72693 0.79305 0.70262 0.0
C6235 C 0.74732 0.77988 0.70204 0.0
H6236 H 0.70847 0.81401 0.71977 0.0
H6237 H 0.91419 0.69245 0.70822 0.0
H6238 H 0.88633 0.97195 0.6516 0.0
H6239 H 0.91793 0.97198 0.6799 0.0
H6240 H 0.93131 0.02781 0.67226 0.0
H6241 H 0.89993 0.02753 0.64309 0.0
H6242 H 0.97567 0.01948 0.69115 0.0
H6243 H 0.88856 0.00388 0.71312 0.0
H6244 H 0.8437 0.98855 0.71326 0.0
H6245 H 0.88455 0.93922 0.72578 0.0
H6246 H 0.9301 0.95429 0.72499 0.0
H6247 H 0.04031 0.02195 0.79124 0.0
H6248 H 1.00969 0.02507 0.76198 0.0
H6249 H 1.00073 0.96854 0.75917 0.0
H6250 H 0.03151 0.96548 0.78804 0.0
H6251 H 0.95178 0.9801 0.74712 0.0
H6252 H 0.04187 0.99837 0.72404 0.0
H6253 H 0.08455 0.01644 0.72373 0.0
H6254 H 0.03581 0.06354 0.71575 0.0
H6255 H 0.99277 0.04573 0.71612 0.0
C6256 C 0.89633 0.98434 0.65536 0.0
C6257 C 0.8901 -0.00046 0.64355 0.0
C6258 C 0.91453 0.98447 0.67243 0.0
C6259 C 0.92769 1e-05 0.68008 0.0
C6260 C 0.92225 0.01528 0.66792 0.0
C6261 C 0.90402 0.01511 0.65054 0.0
C6262 C 0.94601 0.0 0.70033 0.0
C6263 C 0.9703 0.01062 0.70308 0.0
C6264 C 0.93985 0.98933 0.71753 0.0
C6265 C 0.91274 0.98017 0.71876 0.0
C6266 C 0.88802 0.98974 0.7158 0.0
C6267 C 0.86243 0.98108 0.71597 0.0
C6268 C 0.86114 0.96288 0.71955 0.0
C6269 C 0.88556 0.95332 0.72298 0.0
C6270 C 0.91132 0.96191 0.72262 0.0
C6271 C 0.03184 0.01004 0.78465 0.0
C6272 C 0.03932 0.99333 0.79307 0.0
C6273 C 0.01402 0.01183 0.76728 0.0
C6274 C 1.00194 0.99709 0.7569 0.0
C6275 C 1.00886 0.98052 0.76579 0.0
C6276 C 0.027 0.97873 0.78283 0.0
C6277 C 0.98282 0.99858 0.73725 0.0
C6278 C 0.95798 0.98844 0.73483 0.0
C6279 C 0.98836 0.00994 0.72052 0.0
C6280 C 0.01407 0.02073 0.72031 0.0
C6281 C 0.04023 0.0126 0.72241 0.0
C6282 C 0.06449 0.02279 0.7222 0.0
C6283 C 0.06287 0.04114 0.71983 0.0
C6284 C 0.037 0.04933 0.71766 0.0
C6285 C 0.01266 0.03919 0.71782 0.0
H6286 H 0.08169 0.04899 0.71957 0.0
H6287 H 0.84124 0.95621 0.71972 0.0
H6288 H 0.25795 0.51876 0.54998 0.0
H6289 H 0.2253 0.51468 0.52239 0.0
H6290 H 0.28726 0.48468 0.49143 0.0
H6291 H 0.31814 0.48681 0.52041 0.0
H6292 H 0.26344 0.50794 0.46414 0.0
H6293 H 0.22557 0.4652 0.50678 0.0
H6294 H 0.20319 0.45018 0.53496 0.0
H6295 H 0.13325 0.48529 0.53062 0.0
H6296 H 0.1552 0.50026 0.50211 0.0
H6297 H 0.16558 0.48277 0.3809 0.0
H6298 H 0.20029 0.48395 0.40785 0.0
H6299 H 0.14211 0.51235 0.44402 0.0
H6300 H 0.10925 0.51303 0.41655 0.0
H6301 H 0.16564 0.48818 0.46804 0.0
H6302 H 0.20653 0.53078 0.42417 0.0
H6303 H 0.22947 0.54305 0.39452 0.0
H6304 H 0.29537 0.50506 0.40032 0.0
H6305 H 0.27262 0.49236 0.42984 0.0
C6306 C 0.26388 0.50975 0.53848 0.0
C6307 C 0.2905 0.50147 0.53969 0.0
C6308 C 0.24518 0.50799 0.52167 0.0
C6309 C 0.25242 0.49902 0.50374 0.0
C6310 C 0.27958 0.49149 0.50444 0.0
C6311 C 0.2976 0.49257 0.52163 0.0
C6312 C 0.23274 0.49816 0.48449 0.0
C6313 C 0.24216 0.50336 0.46529 0.0
C6314 C 0.20429 0.49236 0.48458 0.0
C6315 C 0.19226 0.48422 0.50263 0.0
C6316 C 0.20567 0.46996 0.51205 0.0
C6317 C 0.19291 0.46128 0.52792 0.0
C6318 C 0.16681 0.46679 0.5346 0.0
C6319 C 0.15348 0.48105 0.52547 0.0
C6320 C 0.16604 0.48962 0.50946 0.0
C6321 C 0.16051 0.49038 0.39383 0.0
C6322 C 0.13398 0.49889 0.39477 0.0
C6323 C 0.18063 0.49063 0.41006 0.0
C6324 C 0.17526 0.4985 0.42907 0.0
C6325 C 0.14838 0.50623 0.43021 0.0
C6326 C 0.12901 0.50661 0.41387 0.0
C6327 C 0.19606 0.49831 0.44776 0.0
C6328 C 0.18687 0.49285 0.46691 0.0
C6329 C 0.22485 0.50356 0.44751 0.0
C6330 C 0.23761 0.51043 0.42906 0.0
C6331 C 0.22566 0.52483 0.41894 0.0
C6332 C 0.23873 0.53194 0.40222 0.0
C6333 C 0.26384 0.52483 0.39553 0.0
C6334 C 0.27589 0.51054 0.40549 0.0
C6335 C 0.26289 0.50337 0.42221 0.0
H6336 H 0.27397 0.53041 0.38264 0.0
H6337 H 0.15687 0.46 0.54682 0.0
H6338 H 0.14809 0.72324 0.40838 0.0
H6339 H 0.11675 0.72424 0.43667 0.0
H6340 H 0.08283 0.77332 0.41542 0.0
H6341 H 0.11578 0.77268 0.3872 0.0
H6342 H 0.0784 0.7771 0.45365 0.0
H6343 H 0.04658 0.72619 0.41918 0.0
H6344 H 0.04802 0.69713 0.40254 0.0
H6345 H 0.08125 0.67335 0.45534 0.0
H6346 H 0.08019 0.70231 0.47225 0.0
H6347 H 0.97105 0.77489 0.53239 0.0
H6348 H 1.00132 0.77642 0.50331 0.0
H6349 H 0.02762 0.72281 0.51391 0.0
H6350 H 0.99454 0.72084 0.54134 0.0
H6351 H 0.03589 0.7224 0.48016 0.0
H6352 H 0.06675 0.77523 0.51485 0.0
H6353 H 0.06164 0.80465 0.53041 0.0
H6354 H 0.0277 0.82545 0.47632 0.0
H6355 H 0.03253 0.79621 0.46045 0.0
C6356 C 0.13365 0.73422 0.40912 0.0
C6357 C 0.13485 0.74738 0.39391 0.0
C6358 C 0.115 0.73477 0.42588 0.0
C6359 C 0.09547 0.74864 0.4293 0.0
C6360 C 0.09663 0.76206 0.41417 0.0
C6361 C 0.1156 0.76152 0.39725 0.0
C6362 C 0.07527 0.74909 0.44847 0.0
C6363 C 0.06912 0.76497 0.45912 0.0
C6364 C 0.06223 0.73374 0.45714 0.0
C6365 C 0.06358 0.71644 0.4469 0.0
C6366 C 0.05439 0.71478 0.42719 0.0
C6367 C 0.05508 0.69832 0.41772 0.0
C6368 C 0.06478 0.68341 0.42786 0.0
C6369 C 0.07379 0.68492 0.44749 0.0
C6370 C 0.07313 0.70135 0.45703 0.0
C6371 C 0.98394 0.7635 0.52915 0.0
C6372 C 0.98079 0.74808 0.54122 0.0
C6373 C 1.00206 0.76438 0.51193 0.0
C6374 C 0.01934 0.75002 0.50532 0.0
C6375 C 0.01591 0.73461 0.51747 0.0
C6376 C 0.99698 0.73355 0.53415 0.0
C6377 C 0.03927 0.75037 0.48589 0.0
C6378 C 0.04546 0.73456 0.4751 0.0
C6379 C 0.05218 0.76584 0.4771 0.0
C6380 C 0.04951 0.78343 0.48658 0.0
C6381 C 0.05808 0.78606 0.50631 0.0
C6382 C 0.05525 0.80271 0.51518 0.0
C6383 C 0.0442 0.81687 0.5044 0.0
C6384 C 0.03612 0.81445 0.48468 0.0
C6385 C 0.03888 0.79784 0.47575 0.0
H6386 H 0.04201 0.82974 0.5113 0.0
H6387 H 0.06527 0.67067 0.42052 0.0
H6388 H 0.27506 0.77212 0.7563 0.0
H6389 H 0.23997 0.77331 0.78276 0.0
H6390 H 0.27074 0.72394 0.80584 0.0
H6391 H 0.30241 0.72167 0.77794 0.0
H6392 H 0.22657 0.72172 0.81949 0.0
H6393 H 0.27508 0.77828 0.82184 0.0
H6394 H 0.28853 0.80762 0.80883 0.0
H6395 H 0.2027 0.82289 0.80578 0.0
H6396 H 0.18864 0.79337 0.81772 0.0
H6397 H 0.15363 0.72315 0.91314 0.0
H6398 H 0.18797 0.7245 0.88686 0.0
H6399 H 0.15585 0.77526 0.86912 0.0
H6400 H 0.12482 0.77502 0.89809 0.0
H6401 H 0.19896 0.77766 0.85189 0.0
H6402 H 0.1502 0.72143 0.84614 0.0
H6403 H 0.13496 0.69178 0.85712 0.0
H6404 H 0.21995 0.6763 0.86596 0.0
H6405 H 0.23564 0.70591 0.8553 0.0
C6406 C 0.27345 0.76091 0.76616 0.0
C6407 C 0.29163 0.74618 0.7632 0.0
C6408 C 0.25363 0.76196 0.78248 0.0
C6409 C 0.25168 0.749 0.79811 0.0
C6410 C 0.2701 0.73447 0.79499 0.0
C6411 C 0.28893 0.73314 0.77843 0.0
C6412 C 0.23157 0.74995 0.81732 0.0
C6413 C 0.22131 0.7342 0.82644 0.0
C6414 C 0.22223 0.76576 0.82741 0.0
C6415 C 0.23081 0.7835 0.82036 0.0
C6416 C 0.25907 0.78782 0.81817 0.0
C6417 C 0.26678 0.80444 0.81085 0.0
C6418 C 0.24645 0.81705 0.80643 0.0
C6419 C 0.21839 0.81306 0.80914 0.0
C6420 C 0.21054 0.79634 0.816 0.0
C6421 C 0.15514 0.73535 0.90485 0.0
C6422 C 0.13734 0.74968 0.91012 0.0
C6423 C 0.17427 0.73572 0.88832 0.0
C6424 C 0.17536 0.74969 0.87395 0.0
C6425 C 0.15704 0.76399 0.87898 0.0
C6426 C 0.13886 0.76394 0.8962 0.0
C6427 C 0.19453 0.74937 0.85421 0.0
C6428 C 0.2045 0.76521 0.84498 0.0
C6429 C 0.20351 0.73365 0.84384 0.0
C6430 C 0.19404 0.71591 0.85014 0.0
C6431 C 0.16559 0.7117 0.85048 0.0
C6432 C 0.15689 0.69492 0.85668 0.0
C6433 C 0.17647 0.68219 0.86229 0.0
C6434 C 0.20481 0.68619 0.86167 0.0
C6435 C 0.21361 0.70296 0.85557 0.0
H6436 H 0.16969 0.66921 0.86707 0.0
H6437 H 0.25237 0.82993 0.80091 0.0
H6438 H 0.11254 0.52391 0.91477 0.0
H6439 H 0.07924 0.52267 0.88723 0.0
H6440 H 0.11422 0.47307 0.8689 0.0
H6441 H 0.1455 0.47351 0.8979 0.0
H6442 H 0.10616 0.49228 0.83492 0.0
H6443 H 0.04173 0.47594 0.88361 0.0
H6444 H 0.01166 0.47517 0.91301 0.0
H6445 H 0.98054 0.527 0.89907 0.0
H6446 H 1.00973 0.52775 0.86895 0.0
H6447 H 0.99662 0.47907 0.75594 0.0
H6448 H 0.03085 0.47734 0.78325 0.0
H6449 H 0.99881 0.52583 0.80726 0.0
H6450 H 0.96692 0.52839 0.77921 0.0
H6451 H 1.00559 0.50533 0.83838 0.0
H6452 H 0.07414 0.52079 0.78898 0.0
H6453 H 0.10708 0.51972 0.76095 0.0
H6454 H 0.13004 0.46663 0.7767 0.0
H6455 H 0.09801 0.46761 0.80526 0.0
C6456 C 0.1118 0.51186 0.90617 0.0
C6457 C 0.13076 0.49791 0.91103 0.0
C6458 C 0.09284 0.51142 0.88943 0.0
C6459 C 0.09257 0.49761 0.87495 0.0
C6460 C 0.11238 0.484 0.8792 0.0
C6461 C 0.1305 0.48412 0.89646 0.0
C6462 C 0.07324 0.49792 0.85544 0.0
C6463 C 0.08407 0.4949 0.83605 0.0
C6464 C 0.04389 0.50153 0.85538 0.0
C6465 C 0.02839 0.50207 0.87429 0.0
C6466 C 0.0289 0.48733 0.887 0.0
C6467 C 0.01185 0.48685 0.90374 0.0
C6468 C 0.99462 0.5012 0.9082 0.0
C6469 C 0.99413 0.51598 0.89573 0.0
C6470 C 0.01078 0.51639 0.87873 0.0
C6471 C 0.99779 0.49008 0.76612 0.0
C6472 C 0.97908 0.50464 0.76347 0.0
C6473 C 0.01749 0.48885 0.78256 0.0
C6474 C 0.01896 0.50153 0.79841 0.0
C6475 C 0.99964 0.51564 0.79598 0.0
C6476 C 0.98091 0.51717 0.77933 0.0
C6477 C 0.03851 0.49997 0.81773 0.0
C6478 C 0.02768 0.50277 0.83718 0.0
C6479 C 0.06778 0.4959 0.81782 0.0
C6480 C 0.08339 0.49418 0.79906 0.0
C6481 C 0.08584 0.50878 0.78626 0.0
C6482 C 0.10469 0.5083 0.77049 0.0
C6483 C 0.1207 0.49315 0.7671 0.0
C6484 C 0.1177 0.47837 0.77937 0.0
C6485 C 0.09932 0.47892 0.79541 0.0
H6486 H 0.13523 0.49281 0.75486 0.0
H6487 H 0.98146 0.50078 0.9212 0.0
H6488 H 0.75211 0.51635 0.50349 0.0
H6489 H 0.78694 0.51675 0.53026 0.0
H6490 H 0.73692 0.4804 0.56358 0.0
H6491 H 0.70494 0.47779 0.53563 0.0
H6492 H 0.75787 0.51262 0.58781 0.0
H6493 H 0.79581 0.46216 0.55194 0.0
H6494 H 0.81421 0.4471 0.52223 0.0
H6495 H 0.87415 0.48863 0.51441 0.0
H6496 H 0.85633 0.50379 0.54427 0.0
H6497 H 0.84909 0.50527 0.67427 0.0
H6498 H 0.81619 0.50328 0.64748 0.0
H6499 H 0.88404 0.49889 0.60625 0.0
H6500 H 0.91626 0.49776 0.63391 0.0
H6501 H 0.85279 0.48777 0.58431 0.0
H6502 H 0.81663 0.53902 0.62008 0.0
H6503 H 0.79764 0.55538 0.64875 0.0
H6504 H 0.73272 0.51676 0.65488 0.0
H6505 H 0.75134 0.50019 0.62627 0.0
C6506 C 0.74948 0.50712 0.5154 0.0
C6507 C 0.72589 0.49564 0.51529 0.0
C6508 C 0.76929 0.50796 0.5317 0.0
C6509 C 0.76586 0.49845 0.54991 0.0
C6510 C 0.74154 0.48786 0.55027 0.0
C6511 C 0.72278 0.48635 0.53369 0.0
C6512 C 0.78659 0.49957 0.5684 0.0
C6513 C 0.77862 0.50709 0.58687 0.0
C6514 C 0.81437 0.49287 0.56833 0.0
C6515 C 0.82488 0.48402 0.55032 0.0
C6516 C 0.81294 0.46804 0.54387 0.0
C6517 C 0.82335 0.45945 0.52709 0.0
C6518 C 0.84562 0.46677 0.51663 0.0
C6519 C 0.85708 0.4829 0.52265 0.0
C6520 C 0.84694 0.49144 0.53956 0.0
C6521 C 0.85744 0.50325 0.65997 0.0
C6522 C 0.88664 0.50096 0.65789 0.0
C6523 C 0.83788 0.50282 0.64357 0.0
C6524 C 0.84581 0.50142 0.62308 0.0
C6525 C 0.87524 0.49981 0.62095 0.0
C6526 C 0.89446 0.49935 0.63746 0.0
C6527 C 0.82471 0.50128 0.60434 0.0
C6528 C 0.83241 0.4937 0.58561 0.0
C6529 C 0.79675 0.50838 0.60409 0.0
C6530 C 0.78559 0.51827 0.62124 0.0
C6531 C 0.79835 0.53402 0.62759 0.0
C6532 C 0.78764 0.54333 0.64381 0.0
C6533 C 0.76404 0.53708 0.65366 0.0
C6534 C 0.75103 0.52155 0.64727 0.0
C6535 C 0.76162 0.51222 0.63105 0.0
H6536 H 0.7558 0.54429 0.66622 0.0
H6537 H 0.85382 0.46004 0.50374 0.0
H6538 H 0.0362 0.2246 0.5112 0.0
H6539 H 1.00579 0.22183 0.54047 0.0
H6540 H 1.00499 0.27855 0.54648 0.0
H6541 H 0.03608 0.28105 0.51811 0.0
H6542 H 0.99959 0.27254 0.58002 0.0
H6543 H 0.93953 0.2386 0.53502 0.0
H6544 H 0.92354 0.21429 0.51346 0.0
H6545 H 0.95381 0.17601 0.55521 0.0
H6546 H 0.96831 0.20011 0.5777 0.0
H6547 H 0.88643 0.27903 0.65136 0.0
H6548 H 0.91838 0.27795 0.62323 0.0
H6549 H 0.92797 0.22189 0.63149 0.0
H6550 H 0.89569 0.2231 0.66012 0.0
H6551 H 0.93045 0.22546 0.59245 0.0
H6552 H 0.98583 0.25846 0.63827 0.0
H6553 H 1.00026 0.28212 0.66139 0.0
H6554 H 0.97989 0.32155 0.61798 0.0
H6555 H 0.96618 0.29819 0.59434 0.0
C6556 C 0.02948 0.23662 0.51851 0.0
C6557 C 0.03966 0.25319 0.51124 0.0
C6558 C 0.01131 0.23505 0.53578 0.0
C6559 C 1.00142 0.24993 0.54716 0.0
C6560 C 0.01135 0.26636 0.53939 0.0
C6561 C 0.02959 0.26788 0.52244 0.0
C6562 C 0.98227 0.24898 0.56694 0.0
C6563 C 0.98419 0.26224 0.58201 0.0
C6564 C 0.96204 0.2355 0.57186 0.0
C6565 C 0.95558 0.22113 0.55778 0.0
C6566 C 0.94315 0.225 0.53945 0.0
C6567 C 0.93429 0.21126 0.52709 0.0
C6568 C 0.93845 0.19363 0.53262 0.0
C6569 C 0.95095 0.18967 0.55079 0.0
C6570 C 0.95924 0.20336 0.56344 0.0
C6571 C 0.89582 0.26638 0.64785 0.0
C6572 C 0.88824 0.25138 0.65957 0.0
C6573 C 0.91465 0.26574 0.63117 0.0
C6574 C 0.92735 0.24986 0.62412 0.0
C6575 C 0.91965 0.23466 0.6357 0.0
C6576 C 0.90101 0.23538 0.65277 0.0
C6577 C 0.94731 0.24935 0.60487 0.0
C6578 C 0.94567 0.23583 0.59012 0.0
C6579 C 0.96787 0.26256 0.60018 0.0
C6580 C 0.97459 0.27661 0.61467 0.0
C6581 C 0.98411 0.27219 0.63375 0.0
C6582 C 0.99222 0.28552 0.64692 0.0
C6583 C 0.99052 0.30329 0.64129 0.0
C6584 C 0.98101 0.30778 0.62238 0.0
C6585 C 0.97323 0.29451 0.60904 0.0
H6586 H 0.99682 0.31357 0.65153 0.0
H6587 H 0.9316 0.18304 0.52297 0.0
H6588 H 0.73578 0.22485 0.29239 0.0
H6589 H 0.76738 0.22209 0.26371 0.0
H6590 H 0.76326 0.27842 0.25488 0.0
H6591 H 0.73164 0.28095 0.28295 0.0
H6592 H 0.76865 0.27095 0.2214 0.0
H6593 H 0.83385 0.24173 0.26799 0.0
H6594 H 0.85267 0.21885 0.29052 0.0
H6595 H 0.82441 0.17799 0.25121 0.0
H6596 H 0.807 0.20062 0.22786 0.0
H6597 H 0.87847 0.27838 0.14684 0.0
H6598 H 0.84685 0.27787 0.17525 0.0
H6599 H 0.84811 0.221 0.17462 0.0
H6600 H 0.88014 0.22166 0.14596 0.0
H6601 H 0.84324 0.22686 0.21172 0.0
H6602 H 0.78279 0.25394 0.16449 0.0
H6603 H 0.76412 0.27505 0.13991 0.0
H6604 H 0.78073 0.31829 0.17941 0.0
H6605 H 0.79852 0.29741 0.20456 0.0
C6606 C 0.74174 0.23683 0.28467 0.0
C6607 C 0.73012 0.25331 0.2912 0.0
C6608 C 0.76052 0.23525 0.26768 0.0
C6609 C 0.76933 0.24999 0.25562 0.0
C6610 C 0.75784 0.26632 0.26254 0.0
C6611 C 0.73922 0.26786 0.27931 0.0
C6612 C 0.7887 0.249 0.23589 0.0
C6613 C 0.78525 0.26136 0.21999 0.0
C6614 C 0.8105 0.23633 0.23172 0.0
C6615 C 0.81849 0.22283 0.24648 0.0
C6616 C 0.8313 0.22786 0.26431 0.0
C6617 C 0.84193 0.21496 0.27712 0.0
C6618 C 0.8391 0.197 0.27255 0.0
C6619 C 0.82624 0.1919 0.25489 0.0
C6620 C 0.81625 0.20475 0.24177 0.0
C6621 C 0.87139 0.26559 0.15204 0.0
C6622 C 0.88182 0.25012 0.14236 0.0
C6623 C 0.85277 0.26527 0.16893 0.0
C6624 C 0.84317 0.24937 0.17824 0.0
C6625 C 0.85384 0.2338 0.16868 0.0
C6626 C 0.87233 0.23415 0.15154 0.0
C6627 C 0.82353 0.24915 0.19775 0.0
C6628 C 0.82684 0.23658 0.21342 0.0
C6629 C 0.80136 0.2615 0.20169 0.0
C6630 C 0.79243 0.27416 0.18624 0.0
C6631 C 0.78281 0.26798 0.16782 0.0
C6632 C 0.77231 0.27988 0.15382 0.0
C6633 C 0.77177 0.29801 0.15793 0.0
C6634 C 0.78139 0.30426 0.17618 0.0
C6635 C 0.7915 0.2924 0.19036 0.0
H6636 H 0.76364 0.30719 0.14704 0.0
H6637 H 0.84716 0.18706 0.2826 0.0
H6638 H 0.89841 0.47306 0.14164 0.0
H6639 H 0.93095 0.47316 0.16956 0.0
H6640 H 0.91367 0.52827 0.17951 0.0
H6641 H 0.88205 0.52824 0.15066 0.0
H6642 H 0.96234 0.52611 0.19456 0.0
H6643 H 0.88936 0.48515 0.20963 0.0
H6644 H 0.85909 0.45912 0.20488 0.0
H6645 H 0.93055 0.42508 0.20427 0.0
H6646 H 0.96129 0.45092 0.20871 0.0
H6647 H 0.03298 0.52253 0.2928 0.0
H6648 H 1.0004 0.5255 0.2647 0.0
H6649 H 0.01065 0.47022 0.25147 0.0
H6650 H 0.0417 0.46718 0.27994 0.0
H6651 H 0.96381 0.4739 0.23881 0.0
H6652 H 0.037 0.51515 0.22384 0.0
H6653 H 0.06697 0.54129 0.22872 0.0
H6654 H 0.9951 0.575 0.22945 0.0
H6655 H 0.96465 0.54902 0.22495 0.0
C6656 C 0.90212 0.48554 0.14908 0.0
C6657 C 0.88769 0.50085 0.1421 0.0
C6658 C 0.92069 0.4855 0.16602 0.0
C6659 C 0.92565 0.50061 0.17838 0.0
C6660 C 0.91148 0.51606 0.17125 0.0
C6661 C 0.89309 0.51612 0.15408 0.0
C6662 C 0.94458 0.50017 0.19827 0.0
C6663 C 0.96207 0.51458 0.20413 0.0
C6664 C 0.94606 0.4855 0.21194 0.0
C6665 C 0.92763 0.46998 0.2093 0.0
C6666 C 0.89862 0.47212 0.20837 0.0
C6667 C 0.88138 0.4574 0.20573 0.0
C6668 C 0.89289 0.44047 0.20422 0.0
C6669 C 0.92167 0.43821 0.2054 0.0
C6670 C 0.93901 0.45288 0.20797 0.0
C6671 C 0.02818 0.5108 0.28425 0.0
C6672 C 0.04084 0.49439 0.28988 0.0
C6673 C 1.00936 0.51259 0.26736 0.0
C6674 C 1.00209 0.49824 0.25427 0.0
C6675 C 0.01463 0.48195 0.26022 0.0
C6676 C 0.03311 0.48017 0.27704 0.0
C6677 C 0.98217 0.49963 0.23493 0.0
C6678 C 0.96429 0.4854 0.22922 0.0
C6679 C 0.98035 0.51449 0.22148 0.0
C6680 C 0.99853 0.5301 0.22434 0.0
C6681 C 0.02757 0.52812 0.22521 0.0
C6682 C 0.04464 0.54291 0.22791 0.0
C6683 C 0.03294 0.55979 0.22947 0.0
C6684 C 1.00413 0.56191 0.22832 0.0
C6685 C 0.98695 0.54715 0.22573 0.0
H6686 H 0.04619 0.57122 0.23152 0.0
H6687 H 0.87951 0.42909 0.20219 0.0
H6688 H 0.7703 0.98111 0.54974 0.0
H6689 H 0.73423 0.98134 0.52473 0.0
H6690 H 0.78178 0.01964 0.49169 0.0
H6691 H 0.81268 0.02282 0.51957 0.0
H6692 H 0.74686 0.02304 0.47157 0.0
H6693 H 0.75243 0.95986 0.48849 0.0
H6694 H 0.74779 0.93339 0.50978 0.0
H6695 H 0.66309 0.94722 0.52246 0.0
H6696 H 0.66742 0.97394 0.50161 0.0
H6697 H 0.67102 0.00745 0.3794 0.0
H6698 H 0.70382 0.00631 0.4068 0.0
H6699 H 0.63854 0.98788 0.44496 0.0
H6700 H 0.60648 0.9878 0.41673 0.0
H6701 H 0.68019 0.97422 0.4617 0.0
H6702 H 0.67681 0.03577 0.43999 0.0
H6703 H 0.68389 0.06093 0.41717 0.0
H6704 H 0.76989 0.04687 0.4108 0.0
H6705 H 0.76325 0.02152 0.43336 0.0
C6706 C 0.77172 0.99099 0.53841 0.0
C6707 C 0.79401 0.00341 0.53909 0.0
C6708 C 0.7515 0.99013 0.52237 0.0
C6709 C 0.75363 1e-05 0.50414 0.0
C6710 C 0.77705 0.01169 0.50454 0.0
C6711 C 0.79576 0.01348 0.52117 0.0
C6712 C 0.73293 0.99865 0.48509 0.0
C6713 C 0.73312 0.01185 0.46981 0.0
C6714 C 0.71282 0.98482 0.48098 0.0
C6715 C 0.71043 0.96905 0.49383 0.0
C6716 C 0.73289 0.95728 0.49593 0.0
C6717 C 0.73033 0.94227 0.50795 0.0
C6718 C 0.70521 0.93868 0.51755 0.0
C6719 C 0.68259 0.95009 0.51515 0.0
C6720 C 0.68513 0.96521 0.50332 0.0
C6721 C 0.66354 0.00219 0.39295 0.0
C6722 C 0.6352 0.99678 0.39412 0.0
C6723 C 0.68267 0.00219 0.40963 0.0
C6724 C 0.67495 0.99736 0.42942 0.0
C6725 C 0.64668 0.99176 0.43064 0.0
C6726 C 0.62779 0.99165 0.4139 0.0
C6727 C 0.69529 0.9982 0.44842 0.0
C6728 C 0.69465 0.98508 0.46365 0.0
C6729 C 0.71572 0.01172 0.45215 0.0
C6730 C 0.71941 0.02663 0.43816 0.0
C6731 C 0.69715 0.03796 0.43357 0.0
C6732 C 0.70111 0.05227 0.42071 0.0
C6733 C 0.7273 0.05547 0.4125 0.0
C6734 C 0.7496 0.04435 0.41712 0.0
C6735 C 0.74574 0.03001 0.42992 0.0
H6736 H 0.73033 0.06658 0.4026 0.0
H6737 H 0.70324 0.92703 0.52679 0.0
H6738 H 0.48367 0.27567 0.54054 0.0
H6739 H 0.51514 0.27784 0.51162 0.0
H6740 H 0.51762 0.22112 0.50769 0.0
H6741 H 0.48596 0.21904 0.53611 0.0
H6742 H 0.56887 0.23208 0.49649 0.0
H6743 H 0.47843 0.25331 0.47896 0.0
H6744 H 0.43836 0.27337 0.47932 0.0
H6745 H 0.48947 0.31587 0.45804 0.0
H6746 H 0.53038 0.29626 0.45842 0.0
H6747 H 0.63571 0.2215 0.40196 0.0
H6748 H 0.60343 0.22198 0.42982 0.0
H6749 H 0.58815 0.27729 0.41965 0.0
H6750 H 0.62012 0.27651 0.39085 0.0
H6751 H 0.54364 0.26905 0.4386 0.0
H6752 H 0.63159 0.25476 0.46116 0.0
H6753 H 0.67649 0.23977 0.46263 0.0
H6754 H 0.63633 0.19101 0.47862 0.0
H6755 H 0.59056 0.20569 0.47622 0.0
C6756 C 0.49139 0.26351 0.53406 0.0
C6757 C 0.48207 0.24704 0.54214 0.0
C6758 C 0.50954 0.26477 0.51682 0.0
C6759 C 0.51975 0.24967 0.5061 0.0
C6760 C 0.51106 0.23333 0.51467 0.0
C6761 C 0.49262 0.23211 0.53154 0.0
C6762 C 0.53817 0.25051 0.48615 0.0
C6763 C 0.56263 0.24006 0.48389 0.0
C6764 C 0.53239 0.26139 0.469 0.0
C6765 C 0.50776 0.27328 0.46899 0.0
C6766 C 0.4814 0.26702 0.47476 0.0
C6767 C 0.45843 0.27832 0.47475 0.0
C6768 C 0.4613 0.2959 0.4687 0.0
C6769 C 0.48725 0.30224 0.46274 0.0
C6770 C 0.5104 0.29103 0.46291 0.0
C6771 C 0.62514 0.23385 0.40506 0.0
C6772 C 0.6311 0.24875 0.39272 0.0
C6773 C 0.60652 0.23426 0.42187 0.0
C6774 C 0.59266 0.24985 0.42871 0.0
C6775 C 0.59777 0.26477 0.41596 0.0
C6776 C 0.61637 0.26429 0.39882 0.0
C6777 C 0.57419 0.25036 0.44886 0.0
C6778 C 0.54975 0.26099 0.45116 0.0
C6779 C 0.58052 0.24031 0.46651 0.0
C6780 C 0.60766 0.23127 0.46823 0.0
C6781 C 0.63227 0.2408 0.46484 0.0
C6782 C 0.65794 0.23233 0.46585 0.0
C6783 C 0.65947 0.2144 0.47085 0.0
C6784 C 0.63515 0.20489 0.47473 0.0
C6785 C 0.60927 0.21327 0.47343 0.0
H6786 H 0.67948 0.20789 0.4717 0.0
H6787 H 0.44342 0.3046 0.46859 0.0
H6788 H 0.81859 0.23192 0.78483 0.0
H6789 H 0.7894 0.23515 0.81322 0.0
H6790 H 0.73202 0.26648 0.77937 0.0
H6791 H 0.76612 0.26718 0.75235 0.0
H6792 H 0.71416 0.27442 0.81097 0.0
H6793 H 0.73194 0.21072 0.80534 0.0
H6794 H 0.76373 0.18518 0.80215 0.0
H6795 H 0.80556 0.20061 0.85572 0.0
H6796 H 0.77408 0.22623 0.85917 0.0
H6797 H 0.60765 0.26236 0.88706 0.0
H6798 H 0.63857 0.26241 0.85854 0.0
H6799 H 0.70301 0.23909 0.89409 0.0
H6800 H 0.67021 0.23705 0.92178 0.0
H6801 H 0.71553 0.22693 0.86155 0.0
H6802 H 0.69621 0.28935 0.86836 0.0
H6803 H 0.6646 0.31489 0.872 0.0
H6804 H 0.62489 0.30157 0.81694 0.0
H6805 H 0.65619 0.27589 0.81304 0.0
C6806 C 0.7996 0.23937 0.78274 0.0
C6807 C 0.79473 0.24767 0.76401 0.0
C6808 C 0.78158 0.24077 0.79966 0.0
C6809 C 0.7553 0.24952 0.79949 0.0
C6810 C 0.75064 0.25858 0.78101 0.0
C6811 C 0.77005 0.25825 0.76435 0.0
C6812 C 0.73433 0.24976 0.81831 0.0
C6813 C 0.71471 0.2637 0.82162 0.0
C6814 C 0.73335 0.23642 0.83373 0.0
C6815 C 0.75078 0.22037 0.83245 0.0
C6816 C 0.74777 0.20853 0.81651 0.0
C6817 C 0.76579 0.19411 0.81462 0.0
C6818 C 0.78667 0.19129 0.8287 0.0
C6819 C 0.78937 0.20279 0.84483 0.0
C6820 C 0.7714 0.21723 0.8468 0.0
C6821 C 0.6287 0.25772 0.88937 0.0
C6822 C 0.63608 0.25112 0.90855 0.0
C6823 C 0.64711 0.25785 0.87245 0.0
C6824 C 0.67511 0.25159 0.87303 0.0
C6825 C 0.68247 0.24465 0.8921 0.0
C6826 C 0.66358 0.24412 0.90891 0.0
C6827 C 0.6956 0.25151 0.85411 0.0
C6828 C 0.71504 0.2376 0.85081 0.0
C6829 C 0.69624 0.26479 0.83872 0.0
C6830 C 0.67846 0.28069 0.84045 0.0
C6831 C 0.6808 0.29193 0.857 0.0
C6832 C 0.66291 0.30639 0.85913 0.0
C6833 C 0.64274 0.30984 0.84472 0.0
C6834 C 0.64055 0.29889 0.82808 0.0
C6835 C 0.65841 0.28441 0.82586 0.0
H6836 H 0.62882 0.32099 0.84645 0.0
H6837 H 0.80074 0.1802 0.82713 0.0
H6838 H 0.49424 0.97993 0.7551 0.0
H6839 H 0.5301 0.97884 0.78069 0.0
H6840 H 0.4919 0.02357 0.8094 0.0
H6841 H 0.46046 0.02666 0.78158 0.0
H6842 H 0.53098 0.02669 0.8267 0.0
H6843 H 0.50401 0.9644 0.82018 0.0
H6844 H 0.49933 0.93551 0.80334 0.0
H6845 H 0.58665 0.93553 0.79024 0.0
H6846 H 0.59174 0.96455 0.80668 0.0
H6847 H 0.60572 0.0177 0.91987 0.0
H6848 H 0.57154 0.01615 0.89333 0.0
H6849 H 0.62409 0.97957 0.86211 0.0
H6850 H 0.65623 0.97941 0.89041 0.0
H6851 H 0.5801 0.97191 0.84583 0.0
H6852 H 0.60531 0.03396 0.85512 0.0
H6853 H 0.60836 0.06212 0.87362 0.0
H6854 H 0.52016 0.06129 0.88322 0.0
H6855 H 0.51667 0.03302 0.86507 0.0
C6856 C 0.49463 0.99046 0.76585 0.0
C6857 C 0.47469 0.0044 0.76416 0.0
C6858 C 0.51481 0.98921 0.78194 0.0
C6859 C 0.5152 0.00076 0.79898 0.0
C6860 C 0.49437 0.01421 0.79743 0.0
C6861 C 0.47547 0.016 0.78088 0.0
C6862 C 0.53598 -0.0006 0.81799 0.0
C6863 C 0.54082 0.01431 0.83064 0.0
C6864 C 0.55131 0.98395 0.82457 0.0
C6865 C 0.54815 0.96674 0.81437 0.0
C6866 C 0.52215 0.95827 0.8136 0.0
C6867 C 0.51943 0.9419 0.8041 0.0
C6868 C 0.54265 0.93374 0.79564 0.0
C6869 C 0.56866 0.94192 0.79668 0.0
C6870 C 0.57146 0.95835 0.80603 0.0
C6871 C 0.60924 0.00812 0.90843 0.0
C6872 C 0.63364 0.99742 0.90946 0.0
C6873 C 0.58984 0.00797 0.89191 0.0
C6874 C 0.59402 0.99812 0.87395 0.0
C6875 C 0.61861 0.98749 0.87489 0.0
C6876 C 0.63751 0.98728 0.89171 0.0
C6877 C 0.57397 0.999 0.85463 0.0
C6878 C 0.56964 0.98412 0.84188 0.0
C6879 C 0.55859 0.01435 0.84813 0.0
C6880 C 0.5608 0.03131 0.85895 0.0
C6881 C 0.58662 0.03977 0.86126 0.0
C6882 C 0.58841 0.05573 0.8717 0.0
C6883 C 0.56449 0.06346 0.87965 0.0
C6884 C 0.53869 0.05527 0.87713 0.0
C6885 C 0.5368 0.03928 0.86679 0.0
H6886 H 0.56593 0.07581 0.88772 0.0
H6887 H 0.54051 0.92104 0.78835 0.0
H6888 H 0.25303 0.97467 0.5051 0.0
H6889 H 0.28788 0.9785 0.53084 0.0
H6890 H 0.23828 0.01984 0.55676 0.0
H6891 H 0.20591 0.01767 0.5288 0.0
H6892 H 0.28025 0.02702 0.57399 0.0
H6893 H 0.25577 0.96398 0.57065 0.0
H6894 H 0.25283 0.93492 0.55397 0.0
H6895 H 0.34056 0.9363 0.54241 0.0
H6896 H 0.34392 0.96545 0.55876 0.0
H6897 H 0.35867 0.02215 0.66872 0.0
H6898 H 0.32412 0.02152 0.64193 0.0
H6899 H 0.37093 0.98049 0.61291 0.0
H6900 H 0.40225 0.9793 0.64102 0.0
H6901 H 0.32971 0.97373 0.59758 0.0
H6902 H 0.35413 0.03659 0.60249 0.0
H6903 H 0.35662 0.06554 0.61944 0.0
H6904 H 0.26847 0.06434 0.62924 0.0
H6905 H 0.26557 0.03534 0.61266 0.0
C6906 C 0.25027 0.98548 0.51531 0.0
C6907 C 0.22686 0.99679 0.51276 0.0
C6908 C 0.26999 0.98707 0.53145 0.0
C6909 C 0.26666 0.99893 0.54792 0.0
C6910 C 0.24294 0.01019 0.54543 0.0
C6911 C 0.22392 0.00907 0.52875 0.0
C6912 C 0.28669 -0.00058 0.56728 0.0
C6913 C 0.29067 0.01509 0.57892 0.0
C6914 C 0.30206 0.98455 0.5751 0.0
C6915 C 0.30003 0.96692 0.56574 0.0
C6916 C 0.2744 0.95805 0.56456 0.0
C6917 C 0.27266 0.94161 0.55511 0.0
C6918 C 0.29647 0.9338 0.54709 0.0
C6919 C 0.32212 0.94238 0.54857 0.0
C6920 C 0.32395 0.95886 0.5579 0.0
C6921 C 0.36089 0.01215 0.65743 0.0
C6922 C 0.38349 -6e-05 0.65885 0.0
C6923 C 0.34125 0.01234 0.64091 0.0
C6924 C 0.34361 0.00119 0.62363 0.0
C6925 C 0.36663 0.98937 0.6251 0.0
C6926 C 0.38535 0.98874 0.6418 0.0
C6927 C 0.3234 0.0013 0.60438 0.0
C6928 C 0.3195 0.98573 0.59266 0.0
C6929 C 0.30796 0.01622 0.59669 0.0
C6930 C 0.3097 0.0337 0.60651 0.0
C6931 C 0.33532 0.0425 0.60831 0.0
C6932 C 0.3368 0.0589 0.61788 0.0
C6933 C 0.31273 0.06675 0.62545 0.0
C6934 C 0.28711 0.05823 0.62343 0.0
C6935 C 0.28555 0.0418 0.61396 0.0
H6936 H 0.31392 0.07944 0.63285 0.0
H6937 H 0.29508 0.92108 0.53977 0.0
H6938 H 0.42384 0.75418 0.67359 0.0
H6939 H 0.45549 0.75301 0.64575 0.0
H6940 H 0.38673 0.74218 0.60709 0.0
H6941 H 0.35519 0.74284 0.63554 0.0
H6942 H 0.42701 0.7254 0.58995 0.0
H6943 H 0.42994 0.78549 0.61429 0.0
H6944 H 0.43944 0.81006 0.63741 0.0
H6945 H 0.52489 0.79409 0.64145 0.0
H6946 H 0.51583 0.76925 0.61865 0.0
H6947 H 0.51368 0.73376 0.49991 0.0
H6948 H 0.47896 0.73412 0.52612 0.0
H6949 H 0.53544 0.76403 0.5626 0.0
H6950 H 0.56655 0.76687 0.53483 0.0
H6951 H 0.49938 0.77105 0.58142 0.0
H6952 H 0.49819 0.70952 0.55975 0.0
H6953 H 0.48967 0.68372 0.53829 0.0
H6954 H 0.40491 0.69999 0.53027 0.0
H6955 H 0.41293 0.72595 0.55171 0.0
C6956 C 0.4149 0.75095 0.65979 0.0
C6957 C 0.38562 0.7481 0.65857 0.0
C6958 C 0.43365 0.7507 0.64292 0.0
C6959 C 0.42481 0.74779 0.62294 0.0
C6960 C 0.39568 0.74453 0.62158 0.0
C6961 C 0.37709 0.74487 0.63848 0.0
C6962 C 0.44503 0.74819 0.60392 0.0
C6963 C 0.44272 0.73557 0.58826 0.0
C6964 C 0.46694 0.76082 0.60062 0.0
C6965 C 0.47206 0.77532 0.61498 0.0
C6966 C 0.45066 0.78706 0.62032 0.0
C6967 C 0.45599 0.80107 0.63334 0.0
C6968 C 0.48272 0.80359 0.64096 0.0
C6969 C 0.50416 0.79208 0.63561 0.0
C6970 C 0.49892 0.77801 0.62268 0.0
C6971 C 0.51807 0.74162 0.51268 0.0
C6972 C 0.5433 0.75151 0.51328 0.0
C6973 C 0.49822 0.74094 0.529 0.0
C6974 C 0.50297 0.74873 0.54822 0.0
C6975 C 0.52888 0.75792 0.5489 0.0
C6976 C 0.54763 0.75944 0.53232 0.0
C6977 C 0.48235 0.74783 0.56725 0.0
C6978 C 0.4843 0.76053 0.58296 0.0
C6979 C 0.46065 0.73494 0.57083 0.0
C6980 C 0.45625 0.71978 0.55727 0.0
C6981 C 0.47773 0.70762 0.55348 0.0
C6982 C 0.473 0.69297 0.54126 0.0
C6983 C 0.44678 0.69024 0.53289 0.0
C6984 C 0.42524 0.70216 0.5367 0.0
C6985 C 0.42988 0.71685 0.54886 0.0
H6986 H 0.44315 0.67886 0.52347 0.0
H6987 H 0.48683 0.8145 0.65094 0.0
H6988 H 0.39753 0.77531 0.15817 0.0
H6989 H 0.36518 0.77506 0.18575 0.0
H6990 H 0.33051 0.72615 0.1646 0.0
H6991 H 0.36292 0.72687 0.13593 0.0
H6992 H 0.28959 0.73747 0.18484 0.0
H6993 H 0.37911 0.73553 0.21515 0.0
H6994 H 0.42706 0.74364 0.22413 0.0
H6995 H 0.40067 0.79625 0.23877 0.0
H6996 H 0.3522 0.78831 0.23058 0.0
H6997 H 0.22021 0.72499 0.28268 0.0
H6998 H 0.25153 0.72311 0.25366 0.0
H6999 H 0.2763 0.7771 0.26289 0.0
H7000 H 0.2443 0.77914 0.29115 0.0
H7001 H 0.32209 0.76164 0.24901 0.0
H7002 H 0.22881 0.75867 0.22277 0.0
H7003 H 0.18225 0.74522 0.21978 0.0
H7004 H 0.21885 0.69665 0.1995 0.0
H7005 H 0.26563 0.70964 0.20279 0.0
C7006 C 0.38289 0.76443 0.15886 0.0
C7007 C 0.3838 0.75137 0.14354 0.0
C7008 C 0.36413 0.76406 0.17554 0.0
C7009 C 0.34464 0.7502 0.17918 0.0
C7010 C 0.34469 0.73723 0.16348 0.0
C7011 C 0.36357 0.73771 0.14643 0.0
C7012 C 0.32506 0.74963 0.19878 0.0
C7013 C 0.29739 0.74267 0.19875 0.0
C7014 C 0.33307 0.75621 0.21809 0.0
C7015 C 0.36216 0.76141 0.22198 0.0
C7016 C 0.38359 0.74889 0.22007 0.0
C7017 C 0.41085 0.75344 0.22507 0.0
C7018 C 0.41704 0.7705 0.23171 0.0
C7019 C 0.39588 0.78306 0.23352 0.0
C7020 C 0.36847 0.77852 0.22885 0.0
C7021 C 0.23249 0.73653 0.27893 0.0
C7022 C 0.22903 0.75223 0.29057 0.0
C7023 C 0.25069 0.73552 0.26166 0.0
C7024 C 0.26729 0.75004 0.2546 0.0
C7025 C 0.26454 0.76539 0.2668 0.0
C7026 C 0.24584 0.76654 0.28359 0.0
C7027 C 0.28672 0.74963 0.23502 0.0
C7028 C 0.31432 0.75652 0.23505 0.0
C7029 C 0.27885 0.74255 0.21595 0.0
C7030 C 0.25072 0.73505 0.21326 0.0
C7031 C 0.22692 0.74509 0.21776 0.0
C7032 C 0.2005 0.73754 0.21604 0.0
C7033 C 0.19768 0.72005 0.20958 0.0
C7034 C 0.22115 0.71016 0.2046 0.0
C7035 C 0.24759 0.7176 0.2064 0.0
H7036 H 0.17736 0.7141 0.20839 0.0
H7037 H 0.43815 0.77395 0.23566 0.0
H7038 H 0.52866 0.96865 0.28896 0.0
H7039 H 0.49507 0.97054 0.26196 0.0
H7040 H 0.51458 0.02569 0.25445 0.0
H7041 H 0.54617 0.02402 0.28324 0.0
H7042 H 0.46888 0.0257 0.23753 0.0
H7043 H 0.53581 0.98112 0.22187 0.0
H7044 H 0.5631 0.95393 0.22761 0.0
H7045 H 0.4879 0.92341 0.23038 0.0
H7046 H 0.46014 0.95047 0.22495 0.0
H7047 H 0.4022 0.02486 0.13736 0.0
H7048 H 0.43517 0.02582 0.16562 0.0
H7049 H 0.4094 0.97365 0.18312 0.0
H7050 H 0.37696 0.97276 0.15523 0.0
H7051 H 0.45978 0.97336 0.19392 0.0
H7052 H 0.39352 0.01978 0.20729 0.0
H7053 H 0.36868 0.0478 0.20093 0.0
H7054 H 0.44623 0.07593 0.20032 0.0
H7055 H 0.47157 0.04803 0.20633 0.0
C7056 C 0.52519 0.9815 0.28231 0.0
C7057 C 0.54011 0.99628 0.29003 0.0
C7058 C 0.50613 0.98252 0.26574 0.0
C7059 C 0.5017 0.99816 0.25411 0.0
C7060 C 0.51643 0.0131 0.26199 0.0
C7061 C 0.53489 0.01218 0.2791 0.0
C7062 C 0.48279 0.99875 0.23419 0.0
C7063 C 0.46753 0.01411 0.22811 0.0
C7064 C 0.47935 0.98415 0.22058 0.0
C7065 C 0.49592 0.96782 0.22316 0.0
C7066 C 0.52512 0.9686 0.2237 0.0
C7067 C 0.54065 0.95323 0.22695 0.0
C7068 C 0.52723 0.93696 0.2294 0.0
C7069 C 0.49825 0.93603 0.22851 0.0
C7070 C 0.4826 0.95137 0.22534 0.0
C7071 C 0.40383 0.0133 0.14679 0.0
C7072 C 0.38629 0.99844 0.14268 0.0
C7073 C 0.42283 0.01397 0.16371 0.0
C7074 C 0.42581 -0.00011 0.178 0.0
C7075 C 0.40882 0.98501 0.17334 0.0
C7076 C 0.3898 0.98446 0.15676 0.0
C7077 C 0.44567 0.00019 0.19737 0.0
C7078 C 0.46112 0.98495 0.20335 0.0
C7079 C 0.44966 0.01502 0.21058 0.0
C7080 C 0.43447 0.03178 0.20702 0.0
C7081 C 0.40529 0.03192 0.20565 0.0
C7082 C 0.39112 0.04779 0.20212 0.0
C7083 C 0.40588 0.06363 0.20015 0.0
C7084 C 0.43483 0.06365 0.20178 0.0
C7085 C 0.44911 0.04781 0.20524 0.0
H7086 H 0.39487 0.07589 0.19742 0.0
H7087 H 0.53929 0.92508 0.23196 0.0
H7088 H 0.66404 0.47876 0.88242 0.0
H7089 H 0.69877 0.48009 0.9089 0.0
H7090 H 0.64614 0.51604 0.94118 0.0
H7091 H 0.61482 0.51723 0.91317 0.0
H7092 H 0.68615 0.52441 0.957 0.0
H7093 H 0.67199 0.46074 0.94683 0.0
H7094 H 0.67388 0.43301 0.92742 0.0
H7095 H 0.76118 0.44068 0.91746 0.0
H7096 H 0.7597 0.46858 0.93647 0.0
H7097 H 0.76249 0.52087 0.0493 0.0
H7098 H 0.72841 0.51679 1.02315 0.0
H7099 H 0.78584 0.4828 0.99254 0.0
H7100 H 0.81736 0.48435 1.02108 0.0
H7101 H 0.74489 0.47335 0.97543 0.0
H7102 H 0.75994 0.53589 0.9859 0.0
H7103 H 0.75941 0.56376 1.00501 0.0
H7104 H 0.6713 0.55886 1.01337 0.0
H7105 H 0.6714 0.53089 0.99467 0.0
C7106 C 0.6606 0.48801 0.89427 0.0
C7107 C 0.63643 0.49893 0.89375 0.0
C7108 C 0.68033 0.48806 0.91069 0.0
C7109 C 0.67644 0.49794 0.92877 0.0
C7110 C 0.65172 0.5083 0.92829 0.0
C7111 C 0.63298 0.50887 0.91165 0.0
C7112 C 0.69678 0.49791 0.94787 0.0
C7113 C 0.69835 0.51286 0.96084 0.0
C7114 C 0.71479 0.48365 0.95407 0.0
C7115 C 0.71565 0.46682 0.94287 0.0
C7116 C 0.69155 0.45651 0.94045 0.0
C7117 C 0.69255 0.44079 0.92949 0.0
C7118 C 0.71762 0.43512 0.92118 0.0
C7119 C 0.74176 0.44512 0.92384 0.0
C7120 C 0.74084 0.46089 0.93467 0.0
C7121 C 0.76708 0.51119 0.03818 0.0
C7122 C 0.79248 0.5016 0.03954 0.0
C7123 C 0.74778 0.50968 1.0218 0.0
C7124 C 0.75344 0.49991 1.00404 0.0
C7125 C 0.77922 0.49053 1.00518 0.0
C7126 C 0.79779 0.49138 1.02209 0.0
C7127 C 0.73369 0.49969 0.98467 0.0
C7128 C 0.73237 0.48478 0.97164 0.0
C7129 C 0.71592 0.51402 0.97834 0.0
C7130 C 0.71576 0.53111 0.98913 0.0
C7131 C 0.74047 0.54074 0.99186 0.0
C7132 C 0.74026 0.55655 1.00267 0.0
C7133 C 0.71537 0.56303 1.01048 0.0
C7134 C 0.69061 0.55378 1.00742 0.0
C7135 C 0.69074 0.53792 0.99675 0.0
H7136 H 0.71525 0.57526 1.01885 0.0
H7137 H 0.71836 0.42294 0.91273 0.0
H7138 H 0.60766 0.76861 0.88272 0.0
H7139 H 0.57347 0.76838 0.9098 0.0
H7140 H 0.6212 0.72833 0.9398 0.0
H7141 H 0.65263 0.72701 0.91184 0.0
H7142 H 0.57903 0.72131 0.95484 0.0
H7143 H 0.60417 0.78468 0.94854 0.0
H7144 H 0.60519 0.81337 0.93086 0.0
H7145 H 0.5168 0.81087 0.92249 0.0
H7146 H 0.51531 0.78213 0.93977 0.0
H7147 H 0.50813 0.72548 0.04965 0.0
H7148 H 0.54087 0.72775 1.0222 0.0
H7149 H 0.49069 0.76891 0.99641 0.0
H7150 H 0.46055 0.76825 1.02572 0.0
H7151 H 0.53168 0.77541 0.97829 0.0
H7152 H 0.50353 0.7147 0.98293 0.0
H7153 H 0.49743 0.68556 0.99892 0.0
H7154 H 0.58556 0.68175 1.00808 0.0
H7155 H 0.59213 0.71095 0.99232 0.0
C7156 C 0.61037 0.75903 0.89442 0.0
C7157 C 0.63345 0.74716 0.89347 0.0
C7158 C 0.59084 0.75939 0.91101 0.0
C7159 C 0.59357 0.74862 0.9286 0.0
C7160 C 0.61677 0.73697 0.92741 0.0
C7161 C 0.63551 0.73627 0.91078 0.0
C7162 C 0.57362 0.74896 0.94794 0.0
C7163 C 0.5694 0.73348 0.9598 0.0
C7164 C 0.55855 0.76403 0.95551 0.0
C7165 C 0.5597 0.78122 0.94519 0.0
C7166 C 0.58501 0.79026 0.94284 0.0
C7167 C 0.58566 0.80649 0.93288 0.0
C7168 C 0.56106 0.81383 0.92553 0.0
C7169 C 0.5358 0.80508 0.92814 0.0
C7170 C 0.53505 0.78883 0.93796 0.0
C7171 C 0.50496 0.73598 0.03905 0.0
C7172 C 0.48216 0.74772 0.04194 0.0
C7173 C 0.5234 0.7367 1.0221 0.0
C7174 C 0.5192 0.74813 1.00536 0.0
C7175 C 0.49608 0.75977 1.00816 0.0
C7176 C 0.4784 0.75951 1.02556 0.0
C7177 C 0.53788 0.74792 0.98543 0.0
C7178 C 0.54169 0.76332 0.97345 0.0
C7179 C 0.55209 0.73267 0.97748 0.0
C7180 C 0.54828 0.71504 0.9866 0.0
C7181 C 0.52159 0.70763 0.98835 0.0
C7182 C 0.51805 0.69113 0.99741 0.0
C7183 C 0.54109 0.68183 1.00455 0.0
C7184 C 0.56773 0.68898 1.00258 0.0
C7185 C 0.57138 0.7055 0.99358 0.0
H7186 H 0.53831 0.66907 1.01159 0.0
H7187 H 0.56141 0.82628 0.9178 0.0
H7188 H 0.60279 0.75525 0.38365 0.0
H7189 H 0.63294 0.75615 0.35481 0.0
H7190 H 0.70404 0.74835 0.3922 0.0
H7191 H 0.67358 0.74772 0.42094 0.0
H7192 H 0.72464 0.76692 0.36232 0.0
H7193 H 0.66695 0.71362 0.35436 0.0
H7194 H 0.62095 0.69916 0.35248 0.0
H7195 H 0.59715 0.73442 0.30557 0.0
H7196 H 0.64283 0.74895 0.30702 0.0
H7197 H 0.79929 0.7204 0.27453 0.0
H7198 H 0.76765 0.72282 0.3029 0.0
H7199 H 0.74069 0.77371 0.2822 0.0
H7200 H 0.77354 0.77168 0.25403 0.0
H7201 H 0.69696 0.73386 0.30223 0.0
H7202 H 0.74463 0.79447 0.33139 0.0
H7203 H 0.78948 0.81042 0.33119 0.0
H7204 H 0.83325 0.76096 0.33496 0.0
H7205 H 0.78866 0.74479 0.33508 0.0
C7206 C 0.62487 0.75384 0.38632 0.0
C7207 C 0.63428 0.75159 0.40638 0.0
C7208 C 0.64273 0.75407 0.36905 0.0
C7209 C 0.67216 0.75174 0.36985 0.0
C7210 C 0.68196 0.75009 0.38981 0.0
C7211 C 0.66385 0.74988 0.40713 0.0
C7212 C 0.69191 0.75083 0.35049 0.0
C7213 C 0.71837 0.75938 0.34953 0.0
C7214 C 0.68504 0.74169 0.33237 0.0
C7215 C 0.65827 0.73229 0.33075 0.0
C7216 C 0.65191 0.71816 0.34353 0.0
C7217 C 0.62588 0.70997 0.34254 0.0
C7218 C 0.60617 0.71577 0.32877 0.0
C7219 C 0.61243 0.72979 0.31603 0.0
C7220 C 0.63842 0.73796 0.31687 0.0
C7221 C 0.78661 0.73221 0.27555 0.0
C7222 C 0.78954 0.74549 0.26053 0.0
C7223 C 0.76795 0.73357 0.29227 0.0
C7224 C 0.75023 0.74834 0.29561 0.0
C7225 C 0.75316 0.76185 0.28081 0.0
C7226 C 0.77223 0.76057 0.26407 0.0
C7227 C 0.73 0.74961 0.31449 0.0
C7228 C 0.70352 0.74117 0.31525 0.0
C7229 C 0.73678 0.75889 0.33238 0.0
C7230 C 0.76344 0.76849 0.33334 0.0
C7231 C 0.76386 0.78705 0.33231 0.0
C7232 C 0.78921 0.79611 0.3321 0.0
C7233 C 0.81422 0.78671 0.33304 0.0
C7234 C 0.81391 0.76823 0.33418 0.0
C7235 C 0.78862 0.75912 0.33428 0.0
H7236 H 0.83381 0.79374 0.33295 0.0
H7237 H 0.5861 0.70937 0.32794 0.0
H7238 H 0.50442 0.48388 0.25014 0.0
H7239 H 0.53951 0.48379 0.27617 0.0
H7240 H 0.48574 0.51618 0.31208 0.0
H7241 H 0.45447 0.51925 0.28443 0.0
H7242 H 0.52177 0.52205 0.33114 0.0
H7243 H 0.51996 0.46012 0.31165 0.0
H7244 H 0.52611 0.43389 0.29023 0.0
H7245 H 0.61101 0.44856 0.27959 0.0
H7246 H 0.60521 0.47503 0.30063 0.0
H7247 H 0.59569 0.50221 0.42346 0.0
H7248 H 0.56435 0.50183 0.39536 0.0
H7249 H 0.63365 0.49293 0.35666 0.0
H7250 H 0.66505 0.49337 0.38526 0.0
H7251 H 0.59226 0.47518 0.33963 0.0
H7252 H 0.59146 0.53562 0.36354 0.0
H7253 H 0.58294 0.56014 0.38694 0.0
H7254 H 0.4975 0.54446 0.39223 0.0
H7255 H 0.50556 0.51973 0.36906 0.0
C7256 C 0.50083 0.49216 0.26273 0.0
C7257 C 0.47631 0.50277 0.26322 0.0
C7258 C 0.52083 0.49126 0.27896 0.0
C7259 C 0.51691 0.4996 0.298 0.0
C7260 C 0.4917 0.50956 0.29854 0.0
C7261 C 0.47283 0.51125 0.28203 0.0
C7262 C 0.53766 0.49846 0.31698 0.0
C7263 C 0.53639 0.51126 0.33263 0.0
C7264 C 0.55878 0.48518 0.32062 0.0
C7265 C 0.56197 0.46971 0.30739 0.0
C7266 C 0.53984 0.45782 0.30458 0.0
C7267 C 0.54327 0.44292 0.29251 0.0
C7268 C 0.56889 0.43961 0.28348 0.0
C7269 C 0.59113 0.4512 0.28648 0.0
C7270 C 0.58775 0.46618 0.29841 0.0
C7271 C 0.6049 0.49979 0.40955 0.0
C7272 C 0.63429 0.49753 0.40831 0.0
C7273 C 0.58629 0.49987 0.39259 0.0
C7274 C 0.59536 0.49763 0.37256 0.0
C7275 C 0.62458 0.4948 0.3712 0.0
C7276 C 0.64307 0.495 0.38817 0.0
C7277 C 0.57522 0.4983 0.35354 0.0
C7278 C 0.57696 0.4856 0.33794 0.0
C7279 C 0.55379 0.51124 0.35028 0.0
C7280 C 0.54924 0.52569 0.36476 0.0
C7281 C 0.57095 0.53728 0.36988 0.0
C7282 C 0.56617 0.55125 0.38305 0.0
C7283 C 0.53972 0.55382 0.39111 0.0
C7284 C 0.51799 0.54243 0.38602 0.0
C7285 C 0.52266 0.52843 0.37288 0.0
H7286 H 0.53605 0.56468 0.40124 0.0
H7287 H 0.57154 0.42803 0.27421 0.0
H7288 H 0.39912 0.4773 0.142 0.0
H7289 H 0.36615 0.47775 0.11453 0.0
H7290 H 0.32352 0.5215 0.14131 0.0
H7291 H 0.35801 0.52174 0.16864 0.0
H7292 H 0.28449 0.4899 0.12049 0.0
H7293 H 0.33974 0.54047 0.08577 0.0
H7294 H 0.38526 0.55499 0.08143 0.0
H7295 H 0.42473 0.50404 0.07809 0.0
H7296 H 0.37946 0.48937 0.08212 0.0
H7297 H 0.20247 0.51534 0.03054 0.0
H7298 H 0.23288 0.51693 0.05988 0.0
H7299 H 0.28785 0.47907 0.03337 0.0
H7300 H 0.25544 0.47595 1.00548 0.0
H7301 H 0.31978 0.50893 0.05487 0.0
H7302 H 0.24682 0.46763 0.06857 0.0
H7303 H 0.19858 0.45771 0.07339 0.0
H7304 H 0.18946 0.4938 0.12214 0.0
H7305 H 0.23701 0.50475 0.11684 0.0
C7306 C 0.38263 0.48704 0.14262 0.0
C7307 C 0.38171 0.49884 0.15923 0.0
C7308 C 0.36334 0.48736 0.12626 0.0
C7309 C 0.34101 0.49959 0.1247 0.0
C7310 C 0.33964 0.51151 0.14127 0.0
C7311 C 0.35951 0.51139 0.15768 0.0
C7312 C 0.32072 0.49995 0.10574 0.0
C7313 C 0.29247 0.4943 0.1063 0.0
C7314 C 0.32933 0.5054 0.08635 0.0
C7315 C 0.35649 0.5139 0.08412 0.0
C7316 C 0.35824 0.53244 0.08405 0.0
C7317 C 0.38395 0.5407 0.08164 0.0
C7318 C 0.40788 0.53048 0.07932 0.0
C7319 C 0.40624 0.512 0.07983 0.0
C7320 C 0.38057 0.50369 0.08211 0.0
C7321 C 0.22153 0.50771 0.0303 0.0
C7322 C 0.22691 0.49682 1.01334 0.0
C7323 C 0.23923 0.5085 0.04772 0.0
C7324 C 0.26424 0.4985 0.04981 0.0
C7325 C 0.26978 0.4876 0.03296 0.0
C7326 C 0.25133 0.48629 1.01596 0.0
C7327 C 0.28334 0.49873 0.0694 0.0
C7328 C 0.31152 0.50449 0.06898 0.0
C7329 C 0.27417 0.49372 0.089 0.0
C7330 C 0.24539 0.4873 0.09201 0.0
C7331 C 0.23435 0.47377 0.08002 0.0
C7332 C 0.20708 0.46795 0.08283 0.0
C7333 C 0.19083 0.47528 0.09787 0.0
C7334 C 0.2019 0.4883 0.11029 0.0
C7335 C 0.22897 0.49441 0.1073 0.0
H7336 H 0.16967 0.47085 0.09984 0.0
H7337 H 0.4276 0.5369 0.07702 0.0
H7338 H 0.36321 0.26795 0.13823 0.0
H7339 H 0.39587 0.26668 0.11057 0.0
H7340 H 0.44952 0.23311 0.1447 0.0
H7341 H 0.4145 0.23225 0.1714 0.0
H7342 H 0.47854 0.26637 0.11741 0.0
H7343 H 0.41818 0.21607 0.1154 0.0
H7344 H 0.3705 0.20466 0.116 0.0
H7345 H 0.35668 0.22476 0.05735 0.0
H7346 H 0.40306 0.23869 0.05767 0.0
H7347 H 0.57261 0.24193 0.03661 0.0
H7348 H 0.54143 0.24068 0.06526 0.0
H7349 H 0.4739 0.25843 0.02883 0.0
H7350 H 0.50637 0.26205 1.00119 0.0
H7351 H 0.45262 0.23184 0.05774 0.0
H7352 H 0.49976 0.28782 0.06419 0.0
H7353 H 0.54221 0.30617 0.06331 0.0
H7354 H 0.57864 0.27383 0.10872 0.0
H7355 H 0.53624 0.2557 0.11034 0.0
C7356 C 0.38204 0.26035 0.14044 0.0
C7357 C 0.38587 0.25129 0.15893 0.0
C7358 C 0.40129 0.25972 0.12406 0.0
C7359 C 0.42683 0.25032 0.1247 0.0
C7360 C 0.43105 0.24116 0.1431 0.0
C7361 C 0.41089 0.24111 0.15922 0.0
C7362 C 0.44703 0.24897 0.10584 0.0
C7363 C 0.47259 0.25848 0.10468 0.0
C7364 C 0.44042 0.2393 0.088 0.0
C7365 C 0.41382 0.22924 0.08693 0.0
C7366 C 0.40473 0.21871 0.10291 0.0
C7367 C 0.37781 0.21183 0.10313 0.0
C7368 C 0.36046 0.21405 0.08673 0.0
C7369 C 0.36999 0.22328 0.07015 0.0
C7370 C 0.39642 0.23099 0.0703 0.0
C7371 C 0.55096 0.24518 0.03413 0.0
C7372 C 0.54259 0.25044 1.01458 0.0
C7373 C 0.53264 0.24456 0.05114 0.0
C7374 C 0.50384 0.24895 0.05028 0.0
C7375 C 0.49521 0.25421 0.03087 0.0
C7376 C 0.51403 0.25553 1.01406 0.0
C7377 C 0.48403 0.24915 0.06947 0.0
C7378 C 0.4585 0.23955 0.07061 0.0
C7379 C 0.49027 0.25885 0.08722 0.0
C7380 C 0.5149 0.27047 0.08743 0.0
C7381 C 0.51677 0.28481 0.07417 0.0
C7382 C 0.54079 0.2952 0.0736 0.0
C7383 C 0.56309 0.2913 0.08614 0.0
C7384 C 0.56127 0.27708 0.09933 0.0
C7385 C 0.53718 0.2668 0.10018 0.0
H7386 H 0.58182 0.29922 0.08556 0.0
H7387 H 0.33974 0.20847 0.08681 0.0
H7388 H 0.36311 0.27346 0.63675 0.0
H7389 H 0.32893 0.27216 0.66339 0.0
H7390 H 0.36862 0.22538 0.68617 0.0
H7391 H 0.40065 0.22568 0.65779 0.0
H7392 H 0.32351 0.22114 0.70211 0.0
H7393 H 0.36658 0.27922 0.70414 0.0
H7394 H 0.37885 0.30893 0.6916 0.0
H7395 H 0.29245 0.32077 0.6827 0.0
H7396 H 0.27972 0.29106 0.69488 0.0
H7397 H 0.24323 0.22702 0.79606 0.0
H7398 H 0.27708 0.22519 0.76909 0.0
H7399 H 0.24917 0.27577 0.74742 0.0
H7400 H 0.21917 0.2787 0.77621 0.0
H7401 H 0.29021 0.27725 0.73118 0.0
H7402 H 0.24627 0.219 0.72886 0.0
H7403 H 0.23394 0.18904 0.74059 0.0
H7404 H 0.32029 0.17696 0.74927 0.0
H7405 H 0.33309 0.20696 0.73803 0.0
C7406 C 0.36365 0.26207 0.64637 0.0
C7407 C 0.38433 0.24885 0.64291 0.0
C7408 C 0.34435 0.26178 0.66294 0.0
C7409 C 0.34511 0.24896 0.67868 0.0
C7410 C 0.36592 0.23574 0.67524 0.0
C7411 C 0.38471 0.2358 0.65833 0.0
C7412 C 0.32534 0.24938 0.69823 0.0
C7413 C 0.31662 0.23364 0.70828 0.0
C7414 C 0.31453 0.26513 0.70761 0.0
C7415 C 0.32225 0.28288 0.7002 0.0
C7416 C 0.35024 0.28814 0.69941 0.0
C7417 C 0.35727 0.30497 0.69235 0.0
C7418 C 0.33645 0.31671 0.6863 0.0
C7419 C 0.30856 0.31165 0.68732 0.0
C7420 C 0.30143 0.29482 0.69427 0.0
C7421 C 0.2449 0.23822 0.78619 0.0
C7422 C 0.22815 0.25349 0.79004 0.0
C7423 C 0.26416 0.23686 0.76955 0.0
C7424 C 0.26698 0.25005 0.75422 0.0
C7425 C 0.24942 0.265 0.75796 0.0
C7426 C 0.23132 0.26668 0.77501 0.0
C7427 C 0.28736 0.24898 0.73494 0.0
C7428 C 0.29654 0.26467 0.72499 0.0
C7429 C 0.29834 0.23314 0.72564 0.0
C7430 C 0.29057 0.21533 0.73294 0.0
C7431 C 0.26259 0.21 0.73344 0.0
C7432 C 0.25553 0.19302 0.74002 0.0
C7433 C 0.27631 0.18114 0.74576 0.0
C7434 C 0.3042 0.18621 0.74495 0.0
C7435 C 0.31136 0.20322 0.73856 0.0
H7436 H 0.2708 0.16797 0.75076 0.0
H7437 H 0.34193 0.32973 0.68087 0.0
H7438 H 0.57375 0.5074 0.76734 0.0
H7439 H 0.54299 0.50831 0.73889 0.0
H7440 H 0.4759 0.48907 0.77498 0.0
H7441 H 0.50855 0.4856 0.80256 0.0
H7442 H 0.45963 0.47821 0.74353 0.0
H7443 H 0.49107 0.53919 0.74591 0.0
H7444 H 0.52676 0.56264 0.74736 0.0
H7445 H 0.56386 0.54273 0.69391 0.0
H7446 H 0.52848 0.5191 0.69223 0.0
H7447 H 0.35585 0.49244 0.66844 0.0
H7448 H 0.38714 0.49369 0.69625 0.0
H7449 H 0.45328 0.51029 0.65782 0.0
H7450 H 0.42005 0.51152 0.6302 0.0
H7451 H 0.4706 0.52245 0.68993 0.0
H7452 H 0.43912 0.46171 0.68746 0.0
H7453 H 0.40323 0.43839 0.68574 0.0
H7454 H 0.36627 0.45799 0.73938 0.0
H7455 H 0.40195 0.48141 0.74139 0.0
C7456 C 0.55222 0.50382 0.76977 0.0
C7457 C 0.54425 0.49787 0.78907 0.0
C7458 C 0.53382 0.50455 0.75288 0.0
C7459 C 0.5051 0.49981 0.75359 0.0
C7460 C 0.49705 0.49354 0.77283 0.0
C7461 C 0.51595 0.49224 0.78961 0.0
C7462 C 0.48455 0.50051 0.73466 0.0
C7463 C 0.46228 0.48823 0.7322 0.0
C7464 C 0.48655 0.51292 0.71839 0.0
C7465 C 0.50724 0.52737 0.719 0.0
C7466 C 0.50683 0.53985 0.73446 0.0
C7467 C 0.52702 0.55315 0.73534 0.0
C7468 C 0.54759 0.55415 0.72076 0.0
C7469 C 0.54791 0.54193 0.7052 0.0
C7470 C 0.52777 0.52861 0.70424 0.0
C7471 C 0.37707 0.49627 0.66526 0.0
C7472 C 0.38441 0.50085 0.64532 0.0
C7473 C 0.39585 0.49663 0.68187 0.0
C7474 C 0.42459 0.50091 0.68033 0.0
C7475 C 0.43208 0.50621 0.66059 0.0
C7476 C 0.41268 0.50646 0.64394 0.0
C7477 C 0.4456 0.50025 0.69898 0.0
C7478 C 0.46796 0.51249 0.70134 0.0
C7479 C 0.44372 0.48781 0.71518 0.0
C7480 C 0.42308 0.47332 0.71451 0.0
C7481 C 0.42338 0.46098 0.69891 0.0
C7482 C 0.40307 0.44777 0.69788 0.0
C7483 C 0.38247 0.44672 0.71243 0.0
C7484 C 0.38226 0.4588 0.72814 0.0
C7485 C 0.40258 0.472 0.72927 0.0
H7486 H 0.36668 0.43655 0.71155 0.0
H7487 H 0.56326 0.56441 0.72151 0.0
loop_
_geom_bond_atom_site_label_1
_geom_bond_atom_site_label_2
_geom_bond_distance
_geom_bond_site_symmetry_2
_ccdc_geom_bond_type
Gd0 N31 2.661 1_565 S
Gd0 N37 2.601 . S
Gd0 O44 2.545 . S
Gd0 O45 2.606 1_565 S
Gd0 O47 2.429 . S
Gd0 O48 2.545 . S
Gd0 O49 2.412 1_565 S
Gd0 O51 2.362 . S
Gd0 O52 2.324 1_565 S
Gd0 C59 2.828 . S
Gd1 N10 2.661 1_545 S
Gd1 N14 2.601 . S
Gd1 O45 2.362 . S
Gd1 O46 2.324 1_545 S
Gd1 O50 2.545 . S
Gd1 O51 2.606 1_545 S
Gd1 O53 2.429 . S
Gd1 O54 2.545 . S
Gd1 O55 2.412 1_545 S
Gd1 C68 2.828 . S
C2 C5 1.417 . S
C2 C7 1.431 . S
C2 C8 1.412 1_545 S
C3 C6 1.437 . S
C3 C7 1.317 . S
C3 H22 0.929 . S
C4 C5 1.426 . S
C4 C6 1.413 . S
C4 N14 1.359 . S
C5 C2 1.417 . S
C5 C4 1.426 . S
C5 N10 1.350 1_545 S
C6 C3 1.437 . S
C6 C4 1.413 . S
C6 C16 1.391 . S
C7 C2 1.431 . S
C7 C3 1.317 . S
C7 H18 0.930 . S
C8 C2 1.412 1_565 S
C8 C9 1.355 . S
C8 H20 0.930 . S
C9 C8 1.355 . S
C9 C11 1.402 . S
C9 H21 0.930 . S
N10 Gd1 2.661 1_565 S
N10 C5 1.350 1_565 S
N10 C11 1.307 . S
C11 C9 1.402 . S
C11 N10 1.307 . S
C11 H12 0.930 . S
H12 C11 0.930 . S
C13 N14 1.334 . S
C13 C15 1.394 . S
C13 H17 0.930 . S
N14 Gd1 2.601 . S
N14 C4 1.359 . S
N14 C13 1.334 . S
C15 C13 1.394 . S
C15 C16 1.359 . S
C15 H27 0.930 . S
C16 C6 1.391 . S
C16 C15 1.359 . S
C16 H28 0.929 . S
H17 C13 0.930 . S
H18 C7 0.930 . S
H19 C36 0.930 . S
H20 C8 0.930 . S
H21 C9 0.930 . S
H22 C3 0.929 . S
H23 C41 0.930 . S
H24 C32 0.930 . S
H25 C33 0.930 . S
H26 C57 0.929 . S
H27 C15 0.930 . S
H28 C16 0.929 . S
H29 C58 0.930 . S
H30 C39 0.930 . S
N31 Gd0 2.661 1_545 S
N31 C35 1.350 1_545 S
N31 C36 1.307 . S
C32 H24 0.930 . S
C32 C33 1.355 . S
C32 C34 1.412 1_545 S
C33 H25 0.930 . S
C33 C32 1.355 . S
C33 C36 1.402 . S
C34 C32 1.412 1_565 S
C34 C35 1.417 . S
C34 C58 1.431 . S
C35 N31 1.350 1_565 S
C35 C34 1.417 . S
C35 C38 1.426 . S
C36 H19 0.930 . S
C36 N31 1.307 . S
C36 C33 1.402 . S
N37 Gd0 2.601 . S
N37 C38 1.359 . S
N37 C41 1.334 . S
C38 C35 1.426 . S
C38 N37 1.359 . S
C38 C42 1.413 . S
C39 H30 0.930 . S
C39 C40 1.359 . S
C39 C41 1.394 . S
C40 C39 1.359 . S
C40 C42 1.391 . S
C40 H43 0.929 . S
C41 H23 0.930 . S
C41 N37 1.334 . S
C41 C39 1.394 . S
C42 C38 1.413 . S
C42 C40 1.391 . S
C42 C57 1.437 . S
H43 C40 0.929 . S
O44 Gd0 2.545 . S
O44 C59 1.258 . S
O45 Gd0 2.606 1_545 S
O45 Gd1 2.362 . S
O45 C56 1.285 . S
O46 Gd1 2.324 1_565 S
O46 C66 1.254 . S
O47 Gd0 2.429 . S
O47 C66 1.268 . S
O48 Gd0 2.545 . S
O48 C56 1.248 1_565 S
O49 Gd0 2.412 1_545 S
O49 C59 1.252 1_545 S
O50 Gd1 2.545 . S
O50 C68 1.258 . S
O51 Gd0 2.362 . S
O51 Gd1 2.606 1_565 S
O51 C67 1.285 1_565 S
O52 Gd0 2.324 1_545 S
O52 C75 1.254 . S
O53 Gd1 2.429 . S
O53 C75 1.268 . S
O54 Gd1 2.545 . S
O54 C67 1.248 . S
O55 Gd1 2.412 1_565 S
O55 C68 1.252 1_565 S
C56 O45 1.285 . S
C56 O48 1.248 1_545 S
C57 H26 0.929 . S
C57 C42 1.437 . S
C57 C58 1.317 . S
C58 H29 0.930 . S
C58 C34 1.431 . S
C58 C57 1.317 . S
C59 Gd0 2.828 . S
C59 O44 1.258 . S
C59 O49 1.252 1_565 S
C59 C60 1.497 . S
C60 C59 1.497 . S
C60 C61 1.395 . S
C60 C62 1.380 1_565 S
C61 C60 1.395 . S
C61 C64 1.398 . S
C61 H76 0.930 . S
C62 C60 1.380 1_545 S
C62 C63 1.391 . S
C62 H77 0.930 . S
C63 C62 1.391 . S
C63 C65 1.387 1_545 S
C64 C61 1.398 . S
C64 C65 1.380 . S
C64 H78 0.930 . S
C65 C63 1.387 1_565 S
C65 C64 1.380 . S
C65 H79 0.930 . S
C66 O46 1.254 . S
C66 O47 1.268 . S
C67 O51 1.285 1_545 S
C67 O54 1.248 . S
C68 Gd1 2.828 . S
C68 O50 1.258 . S
C68 O55 1.252 1_545 S
C68 C69 1.497 1_554 S
C69 C68 1.497 1_556 S
C69 C70 1.395 . S
C69 C71 1.380 1_545 S
C70 C69 1.395 . S
C70 C73 1.398 . S
C70 H80 0.930 . S
C71 C69 1.380 1_565 S
C71 C72 1.394 . S
C71 H81 0.930 . S
C72 C71 1.394 . S
C72 C74 1.337 1_565 S
C73 C70 1.398 . S
C73 C74 1.380 . S
C73 H82 0.930 . S
C74 C72 1.337 1_545 S
C74 C73 1.380 . S
C74 H83 0.930 . S
C75 O52 1.254 . S
C75 O53 1.268 . S
H76 C61 0.930 . S
H77 C62 0.930 . S
H78 C64 0.930 . S
H79 C65 0.930 . S
H80 C70 0.930 . S
H81 C71 0.930 . S
H82 C73 0.930 . S
H83 C74 0.930 . S
Gd84 N115 2.661 . S
Gd84 N121 2.601 . S
Gd84 O128 2.545 . S
Gd84 O129 2.606 . S
Gd84 O131 2.429 . S
Gd84 O132 2.545 . S
Gd84 O133 2.412 . S
Gd84 O135 2.362 . S
Gd84 O136 2.324 . S
Gd84 C143 2.828 . S
Gd85 N94 2.661 . S
Gd85 N98 2.601 . S
Gd85 O129 2.362 . S
Gd85 O130 2.324 . S
Gd85 O134 2.545 . S
Gd85 O135 2.606 . S
Gd85 O137 2.429 . S
Gd85 O138 2.545 . S
Gd85 O139 2.412 . S
Gd85 C152 2.828 . S
C86 C89 1.417 . S
C86 C91 1.431 . S
C86 C92 1.412 . S
C87 C90 1.437 . S
C87 C91 1.317 . S
C87 H106 0.929 . S
C88 C89 1.426 . S
C88 C90 1.413 . S
C88 N98 1.359 . S
C89 C86 1.417 . S
C89 C88 1.426 . S
C89 N94 1.350 . S
C90 C87 1.437 . S
C90 C88 1.413 . S
C90 C100 1.391 . S
C91 C86 1.431 . S
C91 C87 1.317 . S
C91 H102 0.930 . S
C92 C86 1.412 . S
C92 C93 1.355 . S
C92 H104 0.930 . S
C93 C92 1.355 . S
C93 C95 1.402 . S
C93 H105 0.930 . S
N94 Gd85 2.661 . S
N94 C89 1.350 . S
N94 C95 1.307 . S
C95 C93 1.402 . S
C95 N94 1.307 . S
C95 H96 0.930 . S
H96 C95 0.930 . S
C97 N98 1.334 . S
C97 C99 1.394 . S
C97 H101 0.930 . S
N98 Gd85 2.601 . S
N98 C88 1.359 . S
N98 C97 1.334 . S
C99 C97 1.394 . S
C99 C100 1.359 . S
C99 H111 0.930 . S
C100 C90 1.391 . S
C100 C99 1.359 . S
C100 H112 0.929 . S
H101 C97 0.930 . S
H102 C91 0.930 . S
H103 C120 0.909 1_655 S
H104 C92 0.930 . S
H105 C93 0.930 . S
H106 C87 0.929 . S
H107 C125 0.930 . S
H108 C116 0.930 . S
H109 C117 0.930 . S
H110 C141 0.929 . S
H111 C99 0.930 . S
H112 C100 0.929 . S
H113 C142 0.930 . S
H114 C123 0.924 1_655 S
N115 Gd84 2.661 . S
N115 C119 1.350 1_655 S
N115 C120 1.303 1_655 S
C116 H108 0.930 . S
C116 C117 1.355 . S
C116 C118 1.412 . S
C117 H109 0.930 . S
C117 C116 1.355 . S
C117 C120 1.427 . S
C118 C116 1.412 . S
C118 C119 1.417 . S
C118 C142 1.431 . S
C119 N115 1.350 1_455 S
C119 C118 1.417 . S
C119 C122 1.426 . S
C120 H103 0.909 1_455 S
C120 N115 1.303 1_455 S
C120 C117 1.427 . S
N121 Gd84 2.601 . S
N121 C122 1.359 1_655 S
N121 C125 1.334 . S
C122 C119 1.426 . S
C122 N121 1.359 1_455 S
C122 C126 1.413 . S
C123 H114 0.924 1_455 S
C123 C124 1.359 . S
C123 C125 1.394 1_455 S
C124 C123 1.359 . S
C124 C126 1.391 . S
C124 H127 0.929 . S
C125 H107 0.930 . S
C125 N121 1.334 . S
C125 C123 1.394 1_655 S
C126 C122 1.413 . S
C126 C124 1.391 . S
C126 C141 1.437 . S
H127 C124 0.929 . S
O128 Gd84 2.545 . S
O128 C143 1.258 . S
O129 Gd84 2.606 . S
O129 Gd85 2.362 . S
O129 C140 1.284 . S
O130 Gd85 2.324 . S
O130 C150 1.254 . S
O131 Gd84 2.429 . S
O131 C150 1.268 . S
O132 Gd84 2.545 . S
O132 C140 1.250 . S
O133 Gd84 2.412 . S
O133 C143 1.252 . S
O134 Gd85 2.545 . S
O134 C152 1.258 . S
O135 Gd84 2.362 . S
O135 Gd85 2.606 . S
O135 C151 1.284 . S
O136 Gd84 2.324 . S
O136 C159 1.254 . S
O137 Gd85 2.429 . S
O137 C159 1.268 . S
O138 Gd85 2.545 . S
O138 C151 1.250 . S
O139 Gd85 2.412 . S
O139 C152 1.252 . S
C140 O129 1.284 . S
C140 O132 1.250 . S
C141 H110 0.929 . S
C141 C126 1.437 . S
C141 C142 1.317 . S
C142 H113 0.930 . S
C142 C118 1.431 . S
C142 C141 1.317 . S
C143 Gd84 2.828 . S
C143 O128 1.258 . S
C143 O133 1.252 . S
C143 C144 1.497 . S
C144 C143 1.497 . S
C144 C145 1.395 . S
C144 C146 1.380 . S
C145 C144 1.395 . S
C145 C148 1.398 . S
C145 H160 0.930 . S
C146 C144 1.380 . S
C146 C147 1.391 . S
C146 H161 0.930 . S
C147 C146 1.391 . S
C147 C149 1.387 . S
C148 C145 1.398 . S
C148 C149 1.380 . S
C148 H162 0.930 1_655 S
C149 C147 1.387 . S
C149 C148 1.380 . S
C149 H163 0.930 1_655 S
C150 O130 1.254 . S
C150 O131 1.268 . S
C151 O135 1.284 . S
C151 O138 1.250 . S
C152 Gd85 2.828 . S
C152 O134 1.258 . S
C152 O139 1.252 . S
C152 C153 1.497 1_554 S
C153 C152 1.497 1_556 S
C153 C154 1.395 . S
C153 C155 1.380 . S
C154 C153 1.395 . S
C154 C157 1.398 . S
C154 H164 0.930 . S
C155 C153 1.380 . S
C155 C156 1.391 . S
C155 H165 0.930 . S
C156 C155 1.391 . S
C156 C158 1.387 . S
C157 C154 1.398 . S
C157 C158 1.380 . S
C157 H166 0.930 . S
C158 C156 1.387 . S
C158 C157 1.380 . S
C158 H167 0.930 . S
C159 O136 1.254 . S
C159 O137 1.268 . S
H160 C145 0.930 . S
H161 C146 0.930 . S
H162 C148 0.930 1_455 S
H163 C149 0.930 1_455 S
H164 C154 0.930 . S
H165 C155 0.930 . S
H166 C157 0.930 . S
H167 C158 0.930 . S
Gd168 N199 2.661 . S
Gd168 N205 2.601 . S
Gd168 O212 2.545 . S
Gd168 O213 2.606 . S
Gd168 O215 2.429 . S
Gd168 O216 2.545 . S
Gd168 O217 2.412 . S
Gd168 O219 2.362 . S
Gd168 O220 2.324 . S
Gd168 C227 2.828 . S
Gd169 N178 2.661 . S
Gd169 N182 2.601 . S
Gd169 O213 2.362 . S
Gd169 O214 2.324 . S
Gd169 O218 2.545 . S
Gd169 O219 2.606 . S
Gd169 O221 2.429 . S
Gd169 O222 2.545 . S
Gd169 O223 2.412 . S
Gd169 C236 2.828 . S
C170 C173 1.417 . S
C170 C175 1.431 . S
C170 C176 1.412 . S
C171 C174 1.437 . S
C171 C175 1.317 . S
C171 H190 0.929 . S
C172 C173 1.426 . S
C172 C174 1.413 . S
C172 N182 1.359 . S
C173 C170 1.417 . S
C173 C172 1.426 . S
C173 N178 1.350 . S
C174 C171 1.437 . S
C174 C172 1.413 . S
C174 C184 1.391 . S
C175 C170 1.431 . S
C175 C171 1.317 . S
C175 H186 0.930 . S
C176 C170 1.412 . S
C176 C177 1.355 . S
C176 H188 0.930 . S
C177 C176 1.355 . S
C177 C179 1.402 . S
C177 H189 0.930 . S
N178 Gd169 2.661 . S
N178 C173 1.350 . S
N178 C179 1.307 . S
C179 C177 1.402 . S
C179 N178 1.307 . S
C179 H180 0.930 . S
H180 C179 0.930 . S
C181 N182 1.334 . S
C181 C183 1.394 . S
C181 H185 0.930 . S
N182 Gd169 2.601 . S
N182 C172 1.359 . S
N182 C181 1.334 . S
C183 C181 1.394 . S
C183 C184 1.359 . S
C183 H195 0.930 . S
C184 C174 1.391 . S
C184 C183 1.359 . S
C184 H196 0.929 . S
H185 C181 0.930 . S
H186 C175 0.930 . S
H187 C204 0.930 . S
H188 C176 0.930 . S
H189 C177 0.930 . S
H190 C171 0.929 . S
H191 C209 0.930 . S
H192 C200 0.930 . S
H193 C201 0.930 . S
H194 C225 0.929 . S
H195 C183 0.930 . S
H196 C184 0.929 . S
H197 C226 0.930 . S
H198 C207 0.930 . S
N199 Gd168 2.661 . S
N199 C203 1.350 . S
N199 C204 1.307 . S
C200 H192 0.930 . S
C200 C201 1.355 . S
C200 C202 1.412 . S
C201 H193 0.930 . S
C201 C200 1.355 . S
C201 C204 1.402 . S
C202 C200 1.412 . S
C202 C203 1.417 . S
C202 C226 1.431 . S
C203 N199 1.350 . S
C203 C202 1.417 . S
C203 C206 1.426 . S
C204 H187 0.930 . S
C204 N199 1.307 . S
C204 C201 1.402 . S
N205 Gd168 2.601 . S
N205 C206 1.359 . S
N205 C209 1.334 . S
C206 C203 1.426 . S
C206 N205 1.359 . S
C206 C210 1.413 . S
C207 H198 0.930 . S
C207 C208 1.359 . S
C207 C209 1.394 . S
C208 C207 1.359 . S
C208 C210 1.391 . S
C208 H211 0.929 . S
C209 H191 0.930 . S
C209 N205 1.334 . S
C209 C207 1.394 . S
C210 C206 1.413 . S
C210 C208 1.391 . S
C210 C225 1.437 . S
H211 C208 0.929 . S
O212 Gd168 2.545 . S
O212 C227 1.258 . S
O213 Gd168 2.606 . S
O213 Gd169 2.362 . S
O213 C224 1.284 . S
O214 Gd169 2.324 . S
O214 C234 1.254 . S
O215 Gd168 2.429 . S
O215 C234 1.268 . S
O216 Gd168 2.545 . S
O216 C224 1.250 . S
O217 Gd168 2.412 . S
O217 C227 1.252 . S
O218 Gd169 2.545 . S
O218 C236 1.258 . S
O219 Gd168 2.362 . S
O219 Gd169 2.606 . S
O219 C235 1.284 . S
O220 Gd168 2.324 . S
O220 C243 1.254 . S
O221 Gd169 2.429 . S
O221 C243 1.268 . S
O222 Gd169 2.545 . S
O222 C235 1.250 . S
O223 Gd169 2.412 . S
O223 C236 1.252 . S
C224 O213 1.284 . S
C224 O216 1.250 . S
C225 H194 0.929 . S
C225 C210 1.437 . S
C225 C226 1.317 . S
C226 H197 0.930 . S
C226 C202 1.431 . S
C226 C225 1.317 . S
C227 Gd168 2.828 . S
C227 O212 1.258 . S
C227 O217 1.252 . S
C227 C228 1.497 . S
C228 C227 1.497 . S
C228 C229 1.395 . S
C228 C230 1.380 . S
C229 C228 1.395 . S
C229 C232 1.398 . S
C229 H244 0.930 . S
C230 C228 1.380 . S
C230 C231 1.391 . S
C230 H245 0.930 . S
C231 C230 1.391 . S
C231 C233 1.387 . S
C232 C229 1.398 . S
C232 C233 1.380 . S
C232 H246 0.930 . S
C233 C231 1.387 . S
C233 C232 1.380 . S
C233 H247 0.930 . S
C234 O214 1.254 . S
C234 O215 1.268 . S
C235 O219 1.284 . S
C235 O222 1.250 . S
C236 Gd169 2.828 . S
C236 O218 1.258 . S
C236 O223 1.252 . S
C236 C237 1.497 . S
C237 C236 1.497 . S
C237 C238 1.395 . S
C237 C239 1.380 . S
C238 C237 1.395 . S
C238 C241 1.398 . S
C238 H248 0.930 . S
C239 C237 1.380 . S
C239 C240 1.391 . S
C239 H249 0.930 . S
C240 C239 1.391 . S
C240 C242 1.387 . S
C241 C238 1.398 . S
C241 C242 1.380 . S
C241 H250 0.930 . S
C242 C240 1.387 . S
C242 C241 1.380 . S
C242 H251 0.930 . S
C243 O220 1.254 . S
C243 O221 1.268 . S
H244 C229 0.930 . S
H245 C230 0.930 . S
H246 C232 0.930 . S
H247 C233 0.930 . S
H248 C238 0.930 . S
H249 C239 0.930 . S
H250 C241 0.930 . S
H251 C242 0.930 . S
Gd252 N283 2.661 1_565 S
Gd252 N289 2.601 . S
Gd252 O296 2.545 . S
Gd252 O297 2.606 1_565 S
Gd252 O299 2.429 . S
Gd252 O300 2.545 . S
Gd252 O301 2.412 1_565 S
Gd252 O303 2.362 . S
Gd252 O304 2.324 1_565 S
Gd252 C311 2.828 . S
Gd253 N262 2.661 1_545 S
Gd253 N266 2.601 . S
Gd253 O297 2.362 . S
Gd253 O298 2.324 1_545 S
Gd253 O302 2.545 . S
Gd253 O303 2.606 1_545 S
Gd253 O305 2.429 . S
Gd253 O306 2.545 . S
Gd253 O307 2.412 1_545 S
Gd253 C320 2.828 . S
C254 C257 1.417 . S
C254 C259 1.431 . S
C254 C260 1.412 1_545 S
C255 C258 1.437 . S
C255 C259 1.317 . S
C255 H274 0.929 . S
C256 C257 1.426 . S
C256 C258 1.413 . S
C256 N266 1.359 . S
C257 C254 1.417 . S
C257 C256 1.426 . S
C257 N262 1.350 1_545 S
C258 C255 1.437 . S
C258 C256 1.413 . S
C258 C268 1.391 . S
C259 C254 1.431 . S
C259 C255 1.317 . S
C259 H270 0.930 . S
C260 C254 1.412 1_565 S
C260 C261 1.355 . S
C260 H272 0.930 . S
C261 C260 1.355 . S
C261 C263 1.402 . S
C261 H273 0.930 . S
N262 Gd253 2.661 1_565 S
N262 C257 1.350 1_565 S
N262 C263 1.307 . S
C263 C261 1.402 . S
C263 N262 1.307 . S
C263 H264 0.930 . S
H264 C263 0.930 . S
C265 N266 1.334 . S
C265 C267 1.394 . S
C265 H269 0.930 . S
N266 Gd253 2.601 . S
N266 C256 1.359 . S
N266 C265 1.334 . S
C267 C265 1.394 . S
C267 C268 1.359 . S
C267 H279 0.930 . S
C268 C258 1.391 . S
C268 C267 1.359 . S
C268 H280 0.929 . S
H269 C265 0.930 . S
H270 C259 0.930 . S
H271 C288 0.944 . S
H272 C260 0.930 . S
H273 C261 0.930 . S
H274 C255 0.929 . S
H275 C293 0.930 . S
H276 C284 0.930 . S
H277 C285 0.930 . S
H278 C309 0.929 . S
H279 C267 0.930 . S
H280 C268 0.929 . S
H281 C310 0.930 . S
H282 C291 0.930 1_655 S
N283 Gd252 2.661 1_545 S
N283 C287 1.350 1_645 S
N283 C288 1.310 . S
C284 H276 0.930 . S
C284 C285 1.355 . S
C284 C286 1.412 1_545 S
C285 H277 0.930 . S
C285 C284 1.355 . S
C285 C288 1.386 1_455 S
C286 C284 1.412 1_565 S
C286 C287 1.417 . S
C286 C310 1.431 . S
C287 N283 1.350 1_465 S
C287 C286 1.417 . S
C287 C290 1.426 . S
C288 H271 0.944 . S
C288 N283 1.310 . S
C288 C285 1.386 1_655 S
N289 Gd252 2.601 . S
N289 C290 1.359 1_655 S
N289 C293 1.334 . S
C290 C287 1.426 . S
C290 N289 1.359 1_455 S
C290 C294 1.413 . S
C291 H282 0.930 1_455 S
C291 C292 1.359 . S
C291 C293 1.394 1_455 S
C292 C291 1.359 . S
C292 C294 1.391 . S
C292 H295 0.929 . S
C293 H275 0.930 . S
C293 N289 1.334 . S
C293 C291 1.394 1_655 S
C294 C290 1.413 . S
C294 C292 1.391 . S
C294 C309 1.437 . S
H295 C292 0.929 . S
O296 Gd252 2.545 . S
O296 C311 1.258 . S
O297 Gd252 2.606 1_545 S
O297 Gd253 2.362 . S
O297 C308 1.285 . S
O298 Gd253 2.324 1_565 S
O298 C318 1.254 . S
O299 Gd252 2.429 . S
O299 C318 1.268 . S
O300 Gd252 2.545 . S
O300 C308 1.248 1_565 S
O301 Gd252 2.412 1_545 S
O301 C311 1.252 1_545 S
O302 Gd253 2.545 . S
O302 C320 1.258 . S
O303 Gd252 2.362 . S
O303 Gd253 2.606 1_565 S
O303 C319 1.285 1_565 S
O304 Gd252 2.324 1_545 S
O304 C327 1.254 . S
O305 Gd253 2.429 . S
O305 C327 1.268 . S
O306 Gd253 2.545 . S
O306 C319 1.248 . S
O307 Gd253 2.412 1_565 S
O307 C320 1.252 1_565 S
C308 O297 1.285 . S
C308 O300 1.248 1_545 S
C309 H278 0.929 . S
C309 C294 1.437 . S
C309 C310 1.317 . S
C310 H281 0.930 . S
C310 C286 1.431 . S
C310 C309 1.317 . S
C311 Gd252 2.828 . S
C311 O296 1.258 . S
C311 O301 1.252 1_565 S
C311 C312 1.497 . S
C312 C311 1.497 . S
C312 C313 1.395 . S
C312 C314 1.380 1_565 S
C313 C312 1.395 . S
C313 C316 1.398 . S
C313 H328 0.930 . S
C314 C312 1.380 1_545 S
C314 C315 1.391 . S
C314 H329 0.930 . S
C315 C314 1.391 . S
C315 C317 1.387 1_545 S
C316 C313 1.398 . S
C316 C317 1.380 . S
C316 H330 0.930 1_655 S
C317 C315 1.387 1_565 S
C317 C316 1.380 . S
C317 H331 0.930 . S
C318 O298 1.254 . S
C318 O299 1.268 . S
C319 O303 1.285 1_545 S
C319 O306 1.248 . S
C320 Gd253 2.828 . S
C320 O302 1.258 . S
C320 O307 1.252 1_545 S
C320 C321 1.497 . S
C321 C320 1.497 . S
C321 C322 1.395 . S
C321 C323 1.380 1_545 S
C322 C321 1.395 . S
C322 C325 1.398 . S
C322 H332 0.930 . S
C323 C321 1.380 1_565 S
C323 C324 1.394 . S
C323 H333 0.930 . S
C324 C323 1.394 . S
C324 C326 1.337 1_565 S
C325 C322 1.398 . S
C325 C326 1.380 . S
C325 H334 0.930 . S
C326 C324 1.337 1_545 S
C326 C325 1.380 . S
C326 H335 0.930 . S
C327 O304 1.254 . S
C327 O305 1.268 . S
H328 C313 0.930 . S
H329 C314 0.930 . S
H330 C316 0.930 1_455 S
H331 C317 0.930 . S
H332 C322 0.930 . S
H333 C323 0.930 . S
H334 C325 0.930 . S
H335 C326 0.930 . S
Gd336 N367 2.661 1_565 S
Gd336 N373 2.601 . S
Gd336 O380 2.545 . S
Gd336 O381 2.606 1_565 S
Gd336 O383 2.429 . S
Gd336 O384 2.545 . S
Gd336 O385 2.412 1_565 S
Gd336 O387 2.362 . S
Gd336 O388 2.324 1_565 S
Gd336 C395 2.828 . S
Gd337 N346 2.661 1_545 S
Gd337 N350 2.601 . S
Gd337 O381 2.362 . S
Gd337 O382 2.324 1_545 S
Gd337 O386 2.545 . S
Gd337 O387 2.606 1_545 S
Gd337 O389 2.429 . S
Gd337 O390 2.545 . S
Gd337 O391 2.412 1_545 S
Gd337 C404 2.828 . S
C338 C341 1.417 . S
C338 C343 1.431 . S
C338 C344 1.412 1_545 S
C339 C342 1.437 . S
C339 C343 1.317 . S
C339 H358 0.929 . S
C340 C341 1.426 . S
C340 C342 1.413 . S
C340 N350 1.359 . S
C341 C338 1.417 . S
C341 C340 1.426 . S
C341 N346 1.350 1_545 S
C342 C339 1.437 . S
C342 C340 1.413 . S
C342 C352 1.391 . S
C343 C338 1.431 . S
C343 C339 1.317 . S
C343 H354 0.930 . S
C344 C338 1.412 1_565 S
C344 C345 1.355 . S
C344 H356 0.930 . S
C345 C344 1.355 . S
C345 C347 1.402 . S
C345 H357 0.930 . S
N346 Gd337 2.661 1_565 S
N346 C341 1.350 1_565 S
N346 C347 1.307 . S
C347 C345 1.402 . S
C347 N346 1.307 . S
C347 H348 0.930 . S
H348 C347 0.930 . S
C349 N350 1.334 . S
C349 C351 1.394 . S
C349 H353 0.930 . S
N350 Gd337 2.601 . S
N350 C340 1.359 . S
N350 C349 1.334 . S
C351 C349 1.394 . S
C351 C352 1.359 . S
C351 H363 0.930 . S
C352 C342 1.391 . S
C352 C351 1.359 . S
C352 H364 0.929 . S
H353 C349 0.930 . S
H354 C343 0.930 . S
H355 C372 0.930 . S
H356 C344 0.930 . S
H357 C345 0.930 . S
H358 C339 0.929 . S
H359 C377 0.930 . S
H360 C368 0.930 . S
H361 C369 0.930 . S
H362 C393 0.929 . S
H363 C351 0.930 . S
H364 C352 0.929 . S
H365 C394 0.930 . S
H366 C375 0.930 . S
N367 Gd336 2.661 1_545 S
N367 C371 1.350 1_545 S
N367 C372 1.307 . S
C368 H360 0.930 . S
C368 C369 1.355 . S
C368 C370 1.412 1_545 S
C369 H361 0.930 . S
C369 C368 1.355 . S
C369 C372 1.402 . S
C370 C368 1.412 1_565 S
C370 C371 1.417 . S
C370 C394 1.431 . S
C371 N367 1.350 1_565 S
C371 C370 1.417 . S
C371 C374 1.426 . S
C372 H355 0.930 . S
C372 N367 1.307 . S
C372 C369 1.402 . S
N373 Gd336 2.601 . S
N373 C374 1.359 . S
N373 C377 1.334 . S
C374 C371 1.426 . S
C374 N373 1.359 . S
C374 C378 1.413 . S
C375 H366 0.930 . S
C375 C376 1.359 . S
C375 C377 1.394 . S
C376 C375 1.359 . S
C376 C378 1.391 . S
C376 H379 0.929 . S
C377 H359 0.930 . S
C377 N373 1.334 . S
C377 C375 1.394 . S
C378 C374 1.413 . S
C378 C376 1.391 . S
C378 C393 1.437 . S
H379 C376 0.929 . S
O380 Gd336 2.545 . S
O380 C395 1.258 . S
O381 Gd336 2.606 1_545 S
O381 Gd337 2.362 . S
O381 C392 1.285 1_545 S
O382 Gd337 2.324 1_565 S
O382 C402 1.254 . S
O383 Gd336 2.429 . S
O383 C402 1.268 . S
O384 Gd336 2.545 . S
O384 C392 1.248 . S
O385 Gd336 2.412 1_545 S
O385 C395 1.252 1_545 S
O386 Gd337 2.545 . S
O386 C404 1.258 . S
O387 Gd336 2.362 . S
O387 Gd337 2.606 1_565 S
O387 C403 1.285 . S
O388 Gd336 2.324 1_545 S
O388 C411 1.254 . S
O389 Gd337 2.429 . S
O389 C411 1.268 . S
O390 Gd337 2.545 . S
O390 C403 1.248 1_545 S
O391 Gd337 2.412 1_565 S
O391 C404 1.252 1_565 S
C392 O381 1.285 1_565 S
C392 O384 1.248 . S
C393 H362 0.929 . S
C393 C378 1.437 . S
C393 C394 1.317 . S
C394 H365 0.930 . S
C394 C370 1.431 . S
C394 C393 1.317 . S
C395 Gd336 2.828 . S
C395 O380 1.258 . S
C395 O385 1.252 1_565 S
C395 C396 1.497 1_556 S
C396 C395 1.497 1_554 S
C396 C397 1.395 . S
C396 C398 1.380 1_565 S
C397 C396 1.395 . S
C397 C400 1.398 . S
C397 H412 0.930 . S
C398 C396 1.380 1_545 S
C398 C399 1.394 . S
C398 H413 0.930 . S
C399 C398 1.394 . S
C399 C401 1.337 1_545 S
C400 C397 1.398 . S
C400 C401 1.380 . S
C400 H414 0.930 . S
C401 C399 1.337 1_565 S
C401 C400 1.380 . S
C401 H415 0.930 . S
C402 O382 1.254 . S
C402 O383 1.268 . S
C403 O387 1.285 . S
C403 O390 1.248 1_565 S
C404 Gd337 2.828 . S
C404 O386 1.258 . S
C404 O391 1.252 1_545 S
C404 C405 1.497 . S
C405 C404 1.497 . S
C405 C406 1.395 . S
C405 C407 1.380 1_545 S
C406 C405 1.395 . S
C406 C409 1.398 . S
C406 H416 0.930 . S
C407 C405 1.380 1_565 S
C407 C408 1.391 . S
C407 H417 0.930 . S
C408 C407 1.391 . S
C408 C410 1.387 1_565 S
C409 C406 1.398 . S
C409 C410 1.380 . S
C409 H418 0.930 . S
C410 C408 1.387 1_545 S
C410 C409 1.380 . S
C410 H419 0.930 . S
C411 O388 1.254 . S
C411 O389 1.268 . S
H412 C397 0.930 . S
H413 C398 0.930 . S
H414 C400 0.930 . S
H415 C401 0.930 . S
H416 C406 0.930 . S
H417 C407 0.930 . S
H418 C409 0.930 . S
H419 C410 0.930 . S
Gd420 N451 2.661 . S
Gd420 N457 2.601 . S
Gd420 O464 2.545 . S
Gd420 O465 2.606 . S
Gd420 O467 2.429 . S
Gd420 O468 2.545 . S
Gd420 O469 2.412 . S
Gd420 O471 2.362 . S
Gd420 O472 2.324 . S
Gd420 C479 2.828 . S
Gd421 N430 2.661 . S
Gd421 N434 2.601 . S
Gd421 O465 2.362 . S
Gd421 O466 2.324 . S
Gd421 O470 2.545 . S
Gd421 O471 2.606 . S
Gd421 O473 2.429 . S
Gd421 O474 2.545 . S
Gd421 O475 2.412 . S
Gd421 C488 2.828 . S
C422 C425 1.417 . S
C422 C427 1.431 . S
C422 C428 1.412 . S
C423 C426 1.437 . S
C423 C427 1.317 . S
C423 H442 0.929 . S
C424 C425 1.426 . S
C424 C426 1.413 . S
C424 N434 1.359 1_655 S
C425 C422 1.417 . S
C425 C424 1.426 . S
C425 N430 1.350 1_655 S
C426 C423 1.437 . S
C426 C424 1.413 . S
C426 C436 1.391 . S
C427 C422 1.431 . S
C427 C423 1.317 . S
C427 H438 0.930 . S
C428 C422 1.412 . S
C428 C429 1.355 . S
C428 H440 0.930 . S
C429 C428 1.355 . S
C429 C431 1.427 . S
C429 H441 0.930 . S
N430 Gd421 2.661 . S
N430 C425 1.350 1_455 S
N430 C431 1.303 1_455 S
C431 C429 1.427 . S
C431 N430 1.303 1_655 S
C431 H432 0.909 1_655 S
H432 C431 0.909 1_455 S
C433 N434 1.334 . S
C433 C435 1.394 1_455 S
C433 H437 0.930 . S
N434 Gd421 2.601 . S
N434 C424 1.359 1_455 S
N434 C433 1.334 . S
C435 C433 1.394 1_655 S
C435 C436 1.359 . S
C435 H447 0.924 1_655 S
C436 C426 1.391 . S
C436 C435 1.359 . S
C436 H448 0.929 . S
H437 C433 0.930 . S
H438 C427 0.930 . S
H439 C456 0.930 . S
H440 C428 0.930 . S
H441 C429 0.930 . S
H442 C423 0.929 . S
H443 C461 0.930 . S
H444 C452 0.930 . S
H445 C453 0.930 . S
H446 C477 0.929 . S
H447 C435 0.924 1_455 S
H448 C436 0.929 . S
H449 C478 0.930 . S
H450 C459 0.930 . S
N451 Gd420 2.661 . S
N451 C455 1.350 . S
N451 C456 1.307 . S
C452 H444 0.930 . S
C452 C453 1.355 . S
C452 C454 1.412 . S
C453 H445 0.930 . S
C453 C452 1.355 . S
C453 C456 1.402 . S
C454 C452 1.412 . S
C454 C455 1.417 . S
C454 C478 1.431 . S
C455 N451 1.350 . S
C455 C454 1.417 . S
C455 C458 1.426 . S
C456 H439 0.930 . S
C456 N451 1.307 . S
C456 C453 1.402 . S
N457 Gd420 2.601 . S
N457 C458 1.359 . S
N457 C461 1.334 . S
C458 C455 1.426 . S
C458 N457 1.359 . S
C458 C462 1.413 . S
C459 H450 0.930 . S
C459 C460 1.359 . S
C459 C461 1.394 . S
C460 C459 1.359 . S
C460 C462 1.391 . S
C460 H463 0.929 . S
C461 H443 0.930 . S
C461 N457 1.334 . S
C461 C459 1.394 . S
C462 C458 1.413 . S
C462 C460 1.391 . S
C462 C477 1.437 . S
H463 C460 0.929 . S
O464 Gd420 2.545 . S
O464 C479 1.258 . S
O465 Gd420 2.606 . S
O465 Gd421 2.362 . S
O465 C476 1.284 . S
O466 Gd421 2.324 . S
O466 C486 1.254 . S
O467 Gd420 2.429 . S
O467 C486 1.268 . S
O468 Gd420 2.545 . S
O468 C476 1.250 . S
O469 Gd420 2.412 . S
O469 C479 1.252 . S
O470 Gd421 2.545 . S
O470 C488 1.258 . S
O471 Gd420 2.362 . S
O471 Gd421 2.606 . S
O471 C487 1.284 . S
O472 Gd420 2.324 . S
O472 C495 1.254 . S
O473 Gd421 2.429 . S
O473 C495 1.268 . S
O474 Gd421 2.545 . S
O474 C487 1.250 . S
O475 Gd421 2.412 . S
O475 C488 1.252 . S
C476 O465 1.284 . S
C476 O468 1.250 . S
C477 H446 0.929 . S
C477 C462 1.437 . S
C477 C478 1.317 . S
C478 H449 0.930 . S
C478 C454 1.431 . S
C478 C477 1.317 . S
C479 Gd420 2.828 . S
C479 O464 1.258 . S
C479 O469 1.252 . S
C479 C480 1.497 1_556 S
C480 C479 1.497 1_554 S
C480 C481 1.395 . S
C480 C482 1.380 . S
C481 C480 1.395 . S
C481 C484 1.398 . S
C481 H496 0.930 . S
C482 C480 1.380 . S
C482 C483 1.391 . S
C482 H497 0.930 . S
C483 C482 1.391 . S
C483 C485 1.387 . S
C484 C481 1.398 . S
C484 C485 1.380 . S
C484 H498 0.930 . S
C485 C483 1.387 . S
C485 C484 1.380 . S
C485 H499 0.930 . S
C486 O466 1.254 . S
C486 O467 1.268 . S
C487 O471 1.284 . S
C487 O474 1.250 . S
C488 Gd421 2.828 . S
C488 O470 1.258 . S
C488 O475 1.252 . S
C488 C489 1.497 . S
C489 C488 1.497 . S
C489 C490 1.395 . S
C489 C491 1.380 . S
C490 C489 1.395 . S
C490 C493 1.398 . S
C490 H500 0.930 . S
C491 C489 1.380 . S
C491 C492 1.391 . S
C491 H501 0.930 . S
C492 C491 1.391 . S
C492 C494 1.387 . S
C493 C490 1.398 . S
C493 C494 1.380 . S
C493 H502 0.930 1_455 S
C494 C492 1.387 . S
C494 C493 1.380 . S
C494 H503 0.930 1_455 S
C495 O472 1.254 . S
C495 O473 1.268 . S
H496 C481 0.930 . S
H497 C482 0.930 . S
H498 C484 0.930 . S
H499 C485 0.930 . S
H500 C490 0.930 . S
H501 C491 0.930 . S
H502 C493 0.930 1_655 S
H503 C494 0.930 1_655 S
Gd504 N535 2.661 . S
Gd504 N541 2.601 . S
Gd504 O548 2.545 . S
Gd504 O549 2.606 . S
Gd504 O551 2.429 . S
Gd504 O552 2.545 . S
Gd504 O553 2.412 . S
Gd504 O555 2.362 . S
Gd504 O556 2.324 . S
Gd504 C563 2.828 . S
Gd505 N514 2.661 . S
Gd505 N518 2.601 . S
Gd505 O549 2.362 . S
Gd505 O550 2.324 . S
Gd505 O554 2.545 . S
Gd505 O555 2.606 . S
Gd505 O557 2.429 . S
Gd505 O558 2.545 . S
Gd505 O559 2.412 . S
Gd505 C572 2.828 . S
C506 C509 1.417 . S
C506 C511 1.431 . S
C506 C512 1.412 . S
C507 C510 1.437 . S
C507 C511 1.317 . S
C507 H526 0.929 . S
C508 C509 1.426 . S
C508 C510 1.413 . S
C508 N518 1.359 . S
C509 C506 1.417 . S
C509 C508 1.426 . S
C509 N514 1.350 . S
C510 C507 1.437 . S
C510 C508 1.413 . S
C510 C520 1.391 . S
C511 C506 1.431 . S
C511 C507 1.317 . S
C511 H522 0.930 . S
C512 C506 1.412 . S
C512 C513 1.355 . S
C512 H524 0.930 . S
C513 C512 1.355 . S
C513 C515 1.402 . S
C513 H525 0.930 . S
N514 Gd505 2.661 . S
N514 C509 1.350 . S
N514 C515 1.307 . S
C515 C513 1.402 . S
C515 N514 1.307 . S
C515 H516 0.930 . S
H516 C515 0.930 . S
C517 N518 1.334 . S
C517 C519 1.394 . S
C517 H521 0.930 . S
N518 Gd505 2.601 . S
N518 C508 1.359 . S
N518 C517 1.334 . S
C519 C517 1.394 . S
C519 C520 1.359 . S
C519 H531 0.930 . S
C520 C510 1.391 . S
C520 C519 1.359 . S
C520 H532 0.929 . S
H521 C517 0.930 . S
H522 C511 0.930 . S
H523 C540 0.930 . S
H524 C512 0.930 . S
H525 C513 0.930 . S
H526 C507 0.929 . S
H527 C545 0.930 . S
H528 C536 0.930 . S
H529 C537 0.930 . S
H530 C561 0.929 . S
H531 C519 0.930 . S
H532 C520 0.929 . S
H533 C562 0.930 . S
H534 C543 0.930 . S
N535 Gd504 2.661 . S
N535 C539 1.350 . S
N535 C540 1.307 . S
C536 H528 0.930 . S
C536 C537 1.355 . S
C536 C538 1.412 . S
C537 H529 0.930 . S
C537 C536 1.355 . S
C537 C540 1.402 . S
C538 C536 1.412 . S
C538 C539 1.417 . S
C538 C562 1.431 . S
C539 N535 1.350 . S
C539 C538 1.417 . S
C539 C542 1.426 . S
C540 H523 0.930 . S
C540 N535 1.307 . S
C540 C537 1.402 . S
N541 Gd504 2.601 . S
N541 C542 1.359 . S
N541 C545 1.334 . S
C542 C539 1.426 . S
C542 N541 1.359 . S
C542 C546 1.413 . S
C543 H534 0.930 . S
C543 C544 1.359 . S
C543 C545 1.394 . S
C544 C543 1.359 . S
C544 C546 1.391 . S
C544 H547 0.929 . S
C545 H527 0.930 . S
C545 N541 1.334 . S
C545 C543 1.394 . S
C546 C542 1.413 . S
C546 C544 1.391 . S
C546 C561 1.437 . S
H547 C544 0.929 . S
O548 Gd504 2.545 . S
O548 C563 1.258 . S
O549 Gd504 2.606 . S
O549 Gd505 2.362 . S
O549 C560 1.284 . S
O550 Gd505 2.324 . S
O550 C570 1.254 . S
O551 Gd504 2.429 . S
O551 C570 1.268 . S
O552 Gd504 2.545 . S
O552 C560 1.250 . S
O553 Gd504 2.412 . S
O553 C563 1.252 . S
O554 Gd505 2.545 . S
O554 C572 1.258 . S
O555 Gd504 2.362 . S
O555 Gd505 2.606 . S
O555 C571 1.284 . S
O556 Gd504 2.324 . S
O556 C579 1.254 . S
O557 Gd505 2.429 . S
O557 C579 1.268 . S
O558 Gd505 2.545 . S
O558 C571 1.250 . S
O559 Gd505 2.412 . S
O559 C572 1.252 . S
C560 O549 1.284 . S
C560 O552 1.250 . S
C561 H530 0.929 . S
C561 C546 1.437 . S
C561 C562 1.317 . S
C562 H533 0.930 . S
C562 C538 1.431 . S
C562 C561 1.317 . S
C563 Gd504 2.828 . S
C563 O548 1.258 . S
C563 O553 1.252 . S
C563 C564 1.497 . S
C564 C563 1.497 . S
C564 C565 1.395 . S
C564 C566 1.380 . S
C565 C564 1.395 . S
C565 C568 1.398 . S
C565 H580 0.930 . S
C566 C564 1.380 . S
C566 C567 1.391 . S
C566 H581 0.930 . S
C567 C566 1.391 . S
C567 C569 1.387 . S
C568 C565 1.398 . S
C568 C569 1.380 . S
C568 H582 0.930 . S
C569 C567 1.387 . S
C569 C568 1.380 . S
C569 H583 0.930 . S
C570 O550 1.254 . S
C570 O551 1.268 . S
C571 O555 1.284 . S
C571 O558 1.250 . S
C572 Gd505 2.828 . S
C572 O554 1.258 . S
C572 O559 1.252 . S
C572 C573 1.497 . S
C573 C572 1.497 . S
C573 C574 1.395 . S
C573 C575 1.380 . S
C574 C573 1.395 . S
C574 C577 1.398 . S
C574 H584 0.930 . S
C575 C573 1.380 . S
C575 C576 1.391 . S
C575 H585 0.930 . S
C576 C575 1.391 . S
C576 C578 1.387 . S
C577 C574 1.398 . S
C577 C578 1.380 . S
C577 H586 0.930 . S
C578 C576 1.387 . S
C578 C577 1.380 . S
C578 H587 0.930 . S
C579 O556 1.254 . S
C579 O557 1.268 . S
H580 C565 0.930 . S
H581 C566 0.930 . S
H582 C568 0.930 . S
H583 C569 0.930 . S
H584 C574 0.930 . S
H585 C575 0.930 . S
H586 C577 0.930 . S
H587 C578 0.930 . S
Gd588 N619 2.661 1_565 S
Gd588 N625 2.601 . S
Gd588 O632 2.545 . S
Gd588 O633 2.606 1_565 S
Gd588 O635 2.429 . S
Gd588 O636 2.545 . S
Gd588 O637 2.412 1_565 S
Gd588 O639 2.362 . S
Gd588 O640 2.324 1_565 S
Gd588 C647 2.828 . S
Gd589 N598 2.661 1_545 S
Gd589 N602 2.601 . S
Gd589 O633 2.362 . S
Gd589 O634 2.324 1_545 S
Gd589 O638 2.545 . S
Gd589 O639 2.606 1_545 S
Gd589 O641 2.429 . S
Gd589 O642 2.545 . S
Gd589 O643 2.412 1_545 S
Gd589 C656 2.828 . S
C590 C593 1.417 . S
C590 C595 1.431 . S
C590 C596 1.412 1_545 S
C591 C594 1.437 . S
C591 C595 1.317 . S
C591 H610 0.929 . S
C592 C593 1.426 . S
C592 C594 1.413 . S
C592 N602 1.359 1_655 S
C593 C590 1.417 . S
C593 C592 1.426 . S
C593 N598 1.350 1_645 S
C594 C591 1.437 . S
C594 C592 1.413 . S
C594 C604 1.391 . S
C595 C590 1.431 . S
C595 C591 1.317 . S
C595 H606 0.930 . S
C596 C590 1.412 1_565 S
C596 C597 1.355 . S
C596 H608 0.930 . S
C597 C596 1.355 . S
C597 C599 1.386 1_655 S
C597 H609 0.930 . S
N598 Gd589 2.661 1_565 S
N598 C593 1.350 1_465 S
N598 C599 1.310 . S
C599 C597 1.386 1_455 S
C599 N598 1.310 . S
C599 H600 0.944 . S
H600 C599 0.944 . S
C601 N602 1.334 . S
C601 C603 1.394 1_455 S
C601 H605 0.930 . S
N602 Gd589 2.601 . S
N602 C592 1.359 1_455 S
N602 C601 1.334 . S
C603 C601 1.394 1_655 S
C603 C604 1.359 . S
C603 H615 0.930 1_655 S
C604 C594 1.391 . S
C604 C603 1.359 . S
C604 H616 0.929 . S
H605 C601 0.930 . S
H606 C595 0.930 . S
H607 C624 0.930 . S
H608 C596 0.930 . S
H609 C597 0.930 . S
H610 C591 0.929 . S
H611 C629 0.930 . S
H612 C620 0.930 . S
H613 C621 0.930 . S
H614 C645 0.929 . S
H615 C603 0.930 1_455 S
H616 C604 0.929 . S
H617 C646 0.930 . S
H618 C627 0.930 . S
N619 Gd588 2.661 1_545 S
N619 C623 1.350 1_545 S
N619 C624 1.307 . S
C620 H612 0.930 . S
C620 C621 1.355 . S
C620 C622 1.412 1_545 S
C621 H613 0.930 . S
C621 C620 1.355 . S
C621 C624 1.402 . S
C622 C620 1.412 1_565 S
C622 C623 1.417 . S
C622 C646 1.431 . S
C623 N619 1.350 1_565 S
C623 C622 1.417 . S
C623 C626 1.426 . S
C624 H607 0.930 . S
C624 N619 1.307 . S
C624 C621 1.402 . S
N625 Gd588 2.601 . S
N625 C626 1.359 . S
N625 C629 1.334 . S
C626 C623 1.426 . S
C626 N625 1.359 . S
C626 C630 1.413 . S
C627 H618 0.930 . S
C627 C628 1.359 . S
C627 C629 1.394 . S
C628 C627 1.359 . S
C628 C630 1.391 . S
C628 H631 0.929 . S
C629 H611 0.930 . S
C629 N625 1.334 . S
C629 C627 1.394 . S
C630 C626 1.413 . S
C630 C628 1.391 . S
C630 C645 1.437 . S
H631 C628 0.929 . S
O632 Gd588 2.545 . S
O632 C647 1.258 . S
O633 Gd588 2.606 1_545 S
O633 Gd589 2.362 . S
O633 C644 1.285 1_545 S
O634 Gd589 2.324 1_565 S
O634 C654 1.254 . S
O635 Gd588 2.429 . S
O635 C654 1.268 . S
O636 Gd588 2.545 . S
O636 C644 1.248 . S
O637 Gd588 2.412 1_545 S
O637 C647 1.252 1_545 S
O638 Gd589 2.545 . S
O638 C656 1.258 . S
O639 Gd588 2.362 . S
O639 Gd589 2.606 1_565 S
O639 C655 1.285 . S
O640 Gd588 2.324 1_545 S
O640 C663 1.254 . S
O641 Gd589 2.429 . S
O641 C663 1.268 . S
O642 Gd589 2.545 . S
O642 C655 1.248 1_545 S
O643 Gd589 2.412 1_565 S
O643 C656 1.252 1_565 S
C644 O633 1.285 1_565 S
C644 O636 1.248 . S
C645 H614 0.929 . S
C645 C630 1.437 . S
C645 C646 1.317 . S
C646 H617 0.930 . S
C646 C622 1.431 . S
C646 C645 1.317 . S
C647 Gd588 2.828 . S
C647 O632 1.258 . S
C647 O637 1.252 1_565 S
C647 C648 1.497 . S
C648 C647 1.497 . S
C648 C649 1.395 . S
C648 C650 1.380 1_565 S
C649 C648 1.395 . S
C649 C652 1.398 . S
C649 H664 0.930 . S
C650 C648 1.380 1_545 S
C650 C651 1.394 . S
C650 H665 0.930 . S
C651 C650 1.394 . S
C651 C653 1.337 1_545 S
C652 C649 1.398 . S
C652 C653 1.380 . S
C652 H666 0.930 . S
C653 C651 1.337 1_565 S
C653 C652 1.380 . S
C653 H667 0.930 . S
C654 O634 1.254 . S
C654 O635 1.268 . S
C655 O639 1.285 . S
C655 O642 1.248 1_565 S
C656 Gd589 2.828 . S
C656 O638 1.258 . S
C656 O643 1.252 1_545 S
C656 C657 1.497 . S
C657 C656 1.497 . S
C657 C658 1.395 . S
C657 C659 1.380 1_545 S
C658 C657 1.395 . S
C658 C661 1.398 . S
C658 H668 0.930 . S
C659 C657 1.380 1_565 S
C659 C660 1.391 . S
C659 H669 0.930 . S
C660 C659 1.391 . S
C660 C662 1.387 1_565 S
C661 C658 1.398 . S
C661 C662 1.380 . S
C661 H670 0.930 1_455 S
C662 C660 1.387 1_545 S
C662 C661 1.380 . S
C662 H671 0.930 . S
C663 O640 1.254 . S
C663 O641 1.268 . S
H664 C649 0.930 . S
H665 C650 0.930 . S
H666 C652 0.930 . S
H667 C653 0.930 . S
H668 C658 0.930 . S
H669 C659 0.930 . S
H670 C661 0.930 1_655 S
H671 C662 0.930 . S
Gd672 N703 2.661 . S
Gd672 N709 2.601 . S
Gd672 O716 2.545 . S
Gd672 O717 2.606 . S
Gd672 O719 2.429 . S
Gd672 O720 2.545 . S
Gd672 O721 2.412 . S
Gd672 O723 2.362 . S
Gd672 O724 2.324 . S
Gd672 C731 2.828 . S
Gd673 N682 2.661 . S
Gd673 N686 2.601 . S
Gd673 O717 2.362 . S
Gd673 O718 2.324 . S
Gd673 O722 2.545 . S
Gd673 O723 2.606 . S
Gd673 O725 2.429 . S
Gd673 O726 2.545 . S
Gd673 O727 2.412 . S
Gd673 C740 2.828 . S
C674 C677 1.417 . S
C674 C679 1.431 . S
C674 C680 1.412 . S
C675 C678 1.437 . S
C675 C679 1.317 . S
C675 H694 0.929 . S
C676 C677 1.426 . S
C676 C678 1.413 . S
C676 N686 1.359 . S
C677 C674 1.417 . S
C677 C676 1.426 . S
C677 N682 1.350 . S
C678 C675 1.437 . S
C678 C676 1.413 . S
C678 C688 1.391 . S
C679 C674 1.431 . S
C679 C675 1.317 . S
C679 H690 0.930 . S
C680 C674 1.412 . S
C680 C681 1.355 . S
C680 H692 0.930 . S
C681 C680 1.355 . S
C681 C683 1.402 . S
C681 H693 0.930 . S
N682 Gd673 2.661 . S
N682 C677 1.350 . S
N682 C683 1.307 . S
C683 C681 1.402 . S
C683 N682 1.307 . S
C683 H684 0.930 . S
H684 C683 0.930 . S
C685 N686 1.334 . S
C685 C687 1.394 . S
C685 H689 0.930 . S
N686 Gd673 2.601 . S
N686 C676 1.359 . S
N686 C685 1.334 . S
C687 C685 1.394 . S
C687 C688 1.359 . S
C687 H699 0.930 . S
C688 C678 1.391 . S
C688 C687 1.359 . S
C688 H700 0.929 . S
H689 C685 0.930 . S
H690 C679 0.930 . S
H691 C708 0.930 . S
H692 C680 0.930 . S
H693 C681 0.930 . S
H694 C675 0.929 . S
H695 C713 0.930 . S
H696 C704 0.930 . S
H697 C705 0.930 . S
H698 C729 0.929 . S
H699 C687 0.930 . S
H700 C688 0.929 . S
H701 C730 0.930 . S
H702 C711 0.930 . S
N703 Gd672 2.661 . S
N703 C707 1.350 . S
N703 C708 1.307 . S
C704 H696 0.930 . S
C704 C705 1.355 . S
C704 C706 1.412 . S
C705 H697 0.930 . S
C705 C704 1.355 . S
C705 C708 1.402 . S
C706 C704 1.412 . S
C706 C707 1.417 . S
C706 C730 1.431 . S
C707 N703 1.350 . S
C707 C706 1.417 . S
C707 C710 1.426 . S
C708 H691 0.930 . S
C708 N703 1.307 . S
C708 C705 1.402 . S
N709 Gd672 2.601 . S
N709 C710 1.359 . S
N709 C713 1.334 . S
C710 C707 1.426 . S
C710 N709 1.359 . S
C710 C714 1.413 . S
C711 H702 0.930 . S
C711 C712 1.359 . S
C711 C713 1.394 . S
C712 C711 1.359 . S
C712 C714 1.391 . S
C712 H715 0.929 . S
C713 H695 0.930 . S
C713 N709 1.334 . S
C713 C711 1.394 . S
C714 C710 1.413 . S
C714 C712 1.391 . S
C714 C729 1.437 . S
H715 C712 0.929 . S
O716 Gd672 2.545 . S
O716 C731 1.258 . S
O717 Gd672 2.606 . S
O717 Gd673 2.362 . S
O717 C728 1.284 . S
O718 Gd673 2.324 . S
O718 C738 1.254 . S
O719 Gd672 2.429 . S
O719 C738 1.268 . S
O720 Gd672 2.545 . S
O720 C728 1.250 . S
O721 Gd672 2.412 . S
O721 C731 1.252 . S
O722 Gd673 2.545 . S
O722 C740 1.258 . S
O723 Gd672 2.362 . S
O723 Gd673 2.606 . S
O723 C739 1.284 . S
O724 Gd672 2.324 . S
O724 C747 1.254 . S
O725 Gd673 2.429 . S
O725 C747 1.268 . S
O726 Gd673 2.545 . S
O726 C739 1.250 . S
O727 Gd673 2.412 . S
O727 C740 1.252 . S
C728 O717 1.284 . S
C728 O720 1.250 . S
C729 H698 0.929 . S
C729 C714 1.437 . S
C729 C730 1.317 . S
C730 H701 0.930 . S
C730 C706 1.431 . S
C730 C729 1.317 . S
C731 Gd672 2.828 . S
C731 O716 1.258 . S
C731 O721 1.252 . S
C731 C732 1.497 . S
C732 C731 1.497 . S
C732 C733 1.395 . S
C732 C734 1.380 . S
C733 C732 1.395 . S
C733 C736 1.398 . S
C733 H748 0.930 . S
C734 C732 1.380 . S
C734 C735 1.391 . S
C734 H749 0.930 . S
C735 C734 1.391 . S
C735 C737 1.387 . S
C736 C733 1.398 . S
C736 C737 1.380 . S
C736 H750 0.930 . S
C737 C735 1.387 . S
C737 C736 1.380 . S
C737 H751 0.930 . S
C738 O718 1.254 . S
C738 O719 1.268 . S
C739 O723 1.284 . S
C739 O726 1.250 . S
C740 Gd673 2.828 . S
C740 O722 1.258 . S
C740 O727 1.252 . S
C740 C741 1.497 . S
C741 C740 1.497 . S
C741 C742 1.395 . S
C741 C743 1.380 . S
C742 C741 1.395 . S
C742 C745 1.398 . S
C742 H752 0.930 . S
C743 C741 1.380 . S
C743 C744 1.391 . S
C743 H753 0.930 . S
C744 C743 1.391 . S
C744 C746 1.387 . S
C745 C742 1.398 . S
C745 C746 1.380 . S
C745 H754 0.930 . S
C746 C744 1.387 . S
C746 C745 1.380 . S
C746 H755 0.930 . S
C747 O724 1.254 . S
C747 O725 1.268 . S
H748 C733 0.930 . S
H749 C734 0.930 . S
H750 C736 0.930 . S
H751 C737 0.930 . S
H752 C742 0.930 . S
H753 C743 0.930 . S
H754 C745 0.930 . S
H755 C746 0.930 . S
Gd756 N787 2.661 . S
Gd756 N793 2.601 . S
Gd756 O800 2.545 . S
Gd756 O801 2.606 . S
Gd756 O803 2.429 . S
Gd756 O804 2.545 . S
Gd756 O805 2.412 . S
Gd756 O807 2.362 . S
Gd756 O808 2.324 . S
Gd756 C815 2.828 . S
Gd757 N766 2.661 . S
Gd757 N770 2.601 . S
Gd757 O801 2.362 . S
Gd757 O802 2.324 . S
Gd757 O806 2.545 . S
Gd757 O807 2.606 . S
Gd757 O809 2.429 . S
Gd757 O810 2.545 . S
Gd757 O811 2.412 . S
Gd757 C824 2.828 . S
C758 C761 1.417 . S
C758 C763 1.431 . S
C758 C764 1.412 . S
C759 C762 1.437 . S
C759 C763 1.317 . S
C759 H778 0.929 . S
C760 C761 1.426 . S
C760 C762 1.413 . S
C760 N770 1.359 . S
C761 C758 1.417 . S
C761 C760 1.426 . S
C761 N766 1.350 . S
C762 C759 1.437 . S
C762 C760 1.413 . S
C762 C772 1.391 . S
C763 C758 1.431 . S
C763 C759 1.317 . S
C763 H774 0.930 . S
C764 C758 1.412 . S
C764 C765 1.355 . S
C764 H776 0.930 . S
C765 C764 1.355 . S
C765 C767 1.402 . S
C765 H777 0.930 . S
N766 Gd757 2.661 . S
N766 C761 1.350 . S
N766 C767 1.307 . S
C767 C765 1.402 . S
C767 N766 1.307 . S
C767 H768 0.930 . S
H768 C767 0.930 . S
C769 N770 1.334 . S
C769 C771 1.394 . S
C769 H773 0.930 . S
N770 Gd757 2.601 . S
N770 C760 1.359 . S
N770 C769 1.334 . S
C771 C769 1.394 . S
C771 C772 1.359 . S
C771 H783 0.930 . S
C772 C762 1.391 . S
C772 C771 1.359 . S
C772 H784 0.929 . S
H773 C769 0.930 . S
H774 C763 0.930 . S
H775 C792 0.915 1_655 S
H776 C764 0.930 . S
H777 C765 0.930 . S
H778 C759 0.929 . S
H779 C797 0.930 . S
H780 C788 0.930 . S
H781 C789 0.930 . S
H782 C813 0.929 . S
H783 C771 0.930 . S
H784 C772 0.929 . S
H785 C814 0.930 . S
H786 C795 0.924 1_655 S
N787 Gd756 2.661 . S
N787 C791 1.350 1_655 S
N787 C792 1.304 1_655 S
C788 H780 0.930 . S
C788 C789 1.355 . S
C788 C790 1.412 . S
C789 H781 0.930 . S
C789 C788 1.355 . S
C789 C792 1.420 . S
C790 C788 1.412 . S
C790 C791 1.417 . S
C790 C814 1.431 . S
C791 N787 1.350 1_455 S
C791 C790 1.417 . S
C791 C794 1.426 . S
C792 H775 0.915 1_455 S
C792 N787 1.304 1_455 S
C792 C789 1.420 . S
N793 Gd756 2.601 . S
N793 C794 1.359 1_655 S
N793 C797 1.334 . S
C794 C791 1.426 . S
C794 N793 1.359 1_455 S
C794 C798 1.413 . S
C795 H786 0.924 1_455 S
C795 C796 1.359 . S
C795 C797 1.394 1_455 S
C796 C795 1.359 . S
C796 C798 1.391 . S
C796 H799 0.929 . S
C797 H779 0.930 . S
C797 N793 1.334 . S
C797 C795 1.394 1_655 S
C798 C794 1.413 . S
C798 C796 1.391 . S
C798 C813 1.437 . S
H799 C796 0.929 . S
O800 Gd756 2.545 . S
O800 C815 1.258 . S
O801 Gd756 2.606 . S
O801 Gd757 2.362 . S
O801 C812 1.284 . S
O802 Gd757 2.324 . S
O802 C822 1.254 . S
O803 Gd756 2.429 . S
O803 C822 1.268 . S
O804 Gd756 2.545 . S
O804 C812 1.250 . S
O805 Gd756 2.412 . S
O805 C815 1.252 . S
O806 Gd757 2.545 . S
O806 C824 1.258 . S
O807 Gd756 2.362 . S
O807 Gd757 2.606 . S
O807 C823 1.284 . S
O808 Gd756 2.324 . S
O808 C831 1.254 . S
O809 Gd757 2.429 . S
O809 C831 1.268 . S
O810 Gd757 2.545 . S
O810 C823 1.250 . S
O811 Gd757 2.412 . S
O811 C824 1.252 . S
C812 O801 1.284 . S
C812 O804 1.250 . S
C813 H782 0.929 . S
C813 C798 1.437 . S
C813 C814 1.317 . S
C814 H785 0.930 . S
C814 C790 1.431 . S
C814 C813 1.317 . S
C815 Gd756 2.828 . S
C815 O800 1.258 . S
C815 O805 1.252 . S
C815 C816 1.497 . S
C816 C815 1.497 . S
C816 C817 1.395 . S
C816 C818 1.380 . S
C817 C816 1.395 . S
C817 C820 1.398 . S
C817 H832 0.930 . S
C818 C816 1.380 . S
C818 C819 1.391 . S
C818 H833 0.930 . S
C819 C818 1.391 . S
C819 C821 1.387 . S
C820 C817 1.398 . S
C820 C821 1.380 . S
C820 H834 0.930 1_655 S
C821 C819 1.387 . S
C821 C820 1.380 . S
C821 H835 0.929 . S
C822 O802 1.254 . S
C822 O803 1.268 . S
C823 O807 1.284 . S
C823 O810 1.250 . S
C824 Gd757 2.828 . S
C824 O806 1.258 . S
C824 O811 1.252 . S
C824 C825 1.497 . S
C825 C824 1.497 . S
C825 C826 1.395 . S
C825 C827 1.380 . S
C826 C825 1.395 . S
C826 C829 1.398 . S
C826 H836 0.930 . S
C827 C825 1.380 . S
C827 C828 1.391 . S
C827 H837 0.930 . S
C828 C827 1.391 . S
C828 C830 1.387 . S
C829 C826 1.398 . S
C829 C830 1.380 . S
C829 H838 0.930 . S
C830 C828 1.387 . S
C830 C829 1.380 . S
C830 H839 0.930 . S
C831 O808 1.254 . S
C831 O809 1.268 . S
H832 C817 0.930 . S
H833 C818 0.930 . S
H834 C820 0.930 1_455 S
H835 C821 0.929 . S
H836 C826 0.930 . S
H837 C827 0.930 . S
H838 C829 0.930 . S
H839 C830 0.930 . S
Gd840 N871 2.661 . S
Gd840 N877 2.601 . S
Gd840 O884 2.545 . S
Gd840 O885 2.606 . S
Gd840 O887 2.429 . S
Gd840 O888 2.545 . S
Gd840 O889 2.412 . S
Gd840 O891 2.362 . S
Gd840 O892 2.324 . S
Gd840 C899 2.828 . S
Gd841 N850 2.661 . S
Gd841 N854 2.601 . S
Gd841 O885 2.362 . S
Gd841 O886 2.324 . S
Gd841 O890 2.545 . S
Gd841 O891 2.606 . S
Gd841 O893 2.429 . S
Gd841 O894 2.545 . S
Gd841 O895 2.412 . S
Gd841 C908 2.828 . S
C842 C845 1.417 . S
C842 C847 1.431 . S
C842 C848 1.412 . S
C843 C846 1.437 . S
C843 C847 1.317 . S
C843 H862 0.929 . S
C844 C845 1.426 . S
C844 C846 1.413 . S
C844 N854 1.359 . S
C845 C842 1.417 . S
C845 C844 1.426 . S
C845 N850 1.350 . S
C846 C843 1.437 . S
C846 C844 1.413 . S
C846 C856 1.391 . S
C847 C842 1.431 . S
C847 C843 1.317 . S
C847 H858 0.930 . S
C848 C842 1.412 . S
C848 C849 1.355 . S
C848 H860 0.930 . S
C849 C848 1.355 . S
C849 C851 1.402 . S
C849 H861 0.930 . S
N850 Gd841 2.661 . S
N850 C845 1.350 . S
N850 C851 1.307 . S
C851 C849 1.402 . S
C851 N850 1.307 . S
C851 H852 0.930 . S
H852 C851 0.930 . S
C853 N854 1.334 . S
C853 C855 1.394 . S
C853 H857 0.930 . S
N854 Gd841 2.601 . S
N854 C844 1.359 . S
N854 C853 1.334 . S
C855 C853 1.394 . S
C855 C856 1.359 . S
C855 H867 0.930 . S
C856 C846 1.391 . S
C856 C855 1.359 . S
C856 H868 0.929 . S
H857 C853 0.930 . S
H858 C847 0.930 . S
H859 C876 0.930 . S
H860 C848 0.930 . S
H861 C849 0.930 . S
H862 C843 0.929 . S
H863 C881 0.930 . S
H864 C872 0.930 . S
H865 C873 0.930 . S
H866 C897 0.929 . S
H867 C855 0.930 . S
H868 C856 0.929 . S
H869 C898 0.930 . S
H870 C879 0.930 . S
N871 Gd840 2.661 . S
N871 C875 1.350 . S
N871 C876 1.307 . S
C872 H864 0.930 . S
C872 C873 1.355 . S
C872 C874 1.412 . S
C873 H865 0.930 . S
C873 C872 1.355 . S
C873 C876 1.402 . S
C874 C872 1.412 . S
C874 C875 1.417 . S
C874 C898 1.431 . S
C875 N871 1.350 . S
C875 C874 1.417 . S
C875 C878 1.426 . S
C876 H859 0.930 . S
C876 N871 1.307 . S
C876 C873 1.402 . S
N877 Gd840 2.601 . S
N877 C878 1.359 . S
N877 C881 1.334 . S
C878 C875 1.426 . S
C878 N877 1.359 . S
C878 C882 1.413 . S
C879 H870 0.930 . S
C879 C880 1.359 . S
C879 C881 1.394 . S
C880 C879 1.359 . S
C880 C882 1.391 . S
C880 H883 0.929 . S
C881 H863 0.930 . S
C881 N877 1.334 . S
C881 C879 1.394 . S
C882 C878 1.413 . S
C882 C880 1.391 . S
C882 C897 1.437 . S
H883 C880 0.929 . S
O884 Gd840 2.545 . S
O884 C899 1.258 . S
O885 Gd840 2.606 . S
O885 Gd841 2.362 . S
O885 C896 1.284 . S
O886 Gd841 2.324 . S
O886 C906 1.254 . S
O887 Gd840 2.429 . S
O887 C906 1.268 . S
O888 Gd840 2.545 . S
O888 C896 1.250 . S
O889 Gd840 2.412 . S
O889 C899 1.252 . S
O890 Gd841 2.545 . S
O890 C908 1.258 . S
O891 Gd840 2.362 . S
O891 Gd841 2.606 . S
O891 C907 1.284 . S
O892 Gd840 2.324 . S
O892 C915 1.254 . S
O893 Gd841 2.429 . S
O893 C915 1.268 . S
O894 Gd841 2.545 . S
O894 C907 1.250 . S
O895 Gd841 2.412 . S
O895 C908 1.252 . S
C896 O885 1.284 . S
C896 O888 1.250 . S
C897 H866 0.929 . S
C897 C882 1.437 . S
C897 C898 1.317 . S
C898 H869 0.930 . S
C898 C874 1.431 . S
C898 C897 1.317 . S
C899 Gd840 2.828 . S
C899 O884 1.258 . S
C899 O889 1.252 . S
C899 C900 1.497 . S
C900 C899 1.497 . S
C900 C901 1.395 . S
C900 C902 1.380 . S
C901 C900 1.395 . S
C901 C904 1.398 . S
C901 H916 0.930 . S
C902 C900 1.380 . S
C902 C903 1.391 . S
C902 H917 0.930 . S
C903 C902 1.391 . S
C903 C905 1.387 . S
C904 C901 1.398 . S
C904 C905 1.380 . S
C904 H918 0.930 . S
C905 C903 1.387 . S
C905 C904 1.380 . S
C905 H919 0.930 . S
C906 O886 1.254 . S
C906 O887 1.268 . S
C907 O891 1.284 . S
C907 O894 1.250 . S
C908 Gd841 2.828 . S
C908 O890 1.258 . S
C908 O895 1.252 . S
C908 C909 1.497 . S
C909 C908 1.497 . S
C909 C910 1.395 . S
C909 C911 1.380 . S
C910 C909 1.395 . S
C910 C913 1.398 . S
C910 H920 0.930 . S
C911 C909 1.380 . S
C911 C912 1.391 . S
C911 H921 0.930 . S
C912 C911 1.391 . S
C912 C914 1.387 . S
C913 C910 1.398 . S
C913 C914 1.380 . S
C913 H922 0.930 . S
C914 C912 1.387 . S
C914 C913 1.380 . S
C914 H923 0.930 . S
C915 O892 1.254 . S
C915 O893 1.268 . S
H916 C901 0.930 . S
H917 C902 0.930 . S
H918 C904 0.930 . S
H919 C905 0.930 . S
H920 C910 0.930 . S
H921 C911 0.930 . S
H922 C913 0.930 . S
H923 C914 0.930 . S
Gd924 N955 2.661 . S
Gd924 N961 2.601 . S
Gd924 O968 2.545 . S
Gd924 O969 2.606 . S
Gd924 O971 2.429 . S
Gd924 O972 2.545 . S
Gd924 O973 2.412 . S
Gd924 O975 2.362 . S
Gd924 O976 2.324 . S
Gd924 C983 2.828 . S
Gd925 N934 2.661 . S
Gd925 N938 2.601 . S
Gd925 O969 2.362 . S
Gd925 O970 2.324 . S
Gd925 O974 2.545 . S
Gd925 O975 2.606 . S
Gd925 O977 2.429 . S
Gd925 O978 2.545 . S
Gd925 O979 2.412 . S
Gd925 C992 2.828 . S
C926 C929 1.417 . S
C926 C931 1.431 . S
C926 C932 1.412 . S
C927 C930 1.437 . S
C927 C931 1.317 . S
C927 H946 0.929 . S
C928 C929 1.426 . S
C928 C930 1.413 . S
C928 N938 1.359 . S
C929 C926 1.417 . S
C929 C928 1.426 . S
C929 N934 1.350 . S
C930 C927 1.437 . S
C930 C928 1.413 . S
C930 C940 1.391 . S
C931 C926 1.431 . S
C931 C927 1.317 . S
C931 H942 0.930 . S
C932 C926 1.412 . S
C932 C933 1.355 . S
C932 H944 0.930 . S
C933 C932 1.355 . S
C933 C935 1.402 . S
C933 H945 0.930 . S
N934 Gd925 2.661 . S
N934 C929 1.350 . S
N934 C935 1.307 . S
C935 C933 1.402 . S
C935 N934 1.307 . S
C935 H936 0.930 . S
H936 C935 0.930 . S
C937 N938 1.334 . S
C937 C939 1.394 . S
C937 H941 0.930 . S
N938 Gd925 2.601 . S
N938 C928 1.359 . S
N938 C937 1.334 . S
C939 C937 1.394 . S
C939 C940 1.359 . S
C939 H951 0.930 . S
C940 C930 1.391 . S
C940 C939 1.359 . S
C940 H952 0.929 . S
H941 C937 0.930 . S
H942 C931 0.930 . S
H943 C960 0.928 1_655 S
H944 C932 0.930 . S
H945 C933 0.930 . S
H946 C927 0.929 . S
H947 C965 0.930 . S
H948 C956 0.930 . S
H949 C957 0.930 . S
H950 C981 0.929 . S
H951 C939 0.930 . S
H952 C940 0.929 . S
H953 C982 0.930 . S
H954 C963 0.930 1_655 S
N955 Gd924 2.661 . S
N955 C959 1.350 1_655 S
N955 C960 1.307 1_655 S
C956 H948 0.930 . S
C956 C957 1.355 . S
C956 C958 1.412 . S
C957 H949 0.930 . S
C957 C956 1.355 . S
C957 C960 1.404 . S
C958 C956 1.412 . S
C958 C959 1.417 . S
C958 C982 1.431 . S
C959 N955 1.350 1_455 S
C959 C958 1.417 . S
C959 C962 1.426 . S
C960 H943 0.928 1_455 S
C960 N955 1.307 1_455 S
C960 C957 1.404 . S
N961 Gd924 2.601 . S
N961 C962 1.359 1_655 S
N961 C965 1.334 . S
C962 C959 1.426 . S
C962 N961 1.359 1_455 S
C962 C966 1.413 . S
C963 H954 0.930 1_455 S
C963 C964 1.359 . S
C963 C965 1.394 1_455 S
C964 C963 1.359 . S
C964 C966 1.391 . S
C964 H967 0.929 . S
C965 H947 0.930 . S
C965 N961 1.334 . S
C965 C963 1.394 1_655 S
C966 C962 1.413 . S
C966 C964 1.391 . S
C966 C981 1.437 . S
H967 C964 0.929 . S
O968 Gd924 2.545 . S
O968 C983 1.258 . S
O969 Gd924 2.606 . S
O969 Gd925 2.362 . S
O969 C980 1.284 . S
O970 Gd925 2.324 . S
O970 C990 1.254 . S
O971 Gd924 2.429 . S
O971 C990 1.268 . S
O972 Gd924 2.545 . S
O972 C980 1.250 . S
O973 Gd924 2.412 . S
O973 C983 1.252 . S
O974 Gd925 2.545 . S
O974 C992 1.258 . S
O975 Gd924 2.362 . S
O975 Gd925 2.606 . S
O975 C991 1.284 . S
O976 Gd924 2.324 . S
O976 C999 1.254 . S
O977 Gd925 2.429 . S
O977 C999 1.268 . S
O978 Gd925 2.545 . S
O978 C991 1.250 . S
O979 Gd925 2.412 . S
O979 C992 1.252 . S
C980 O969 1.284 . S
C980 O972 1.250 . S
C981 H950 0.929 . S
C981 C966 1.437 . S
C981 C982 1.317 . S
C982 H953 0.930 . S
C982 C958 1.431 . S
C982 C981 1.317 . S
C983 Gd924 2.828 . S
C983 O968 1.258 . S
C983 O973 1.252 . S
C983 C984 1.497 . S
C984 C983 1.497 . S
C984 C985 1.395 . S
C984 C986 1.380 . S
C985 C984 1.395 . S
C985 C988 1.398 . S
C985 H1000 0.930 . S
C986 C984 1.380 . S
C986 C987 1.391 . S
C986 H1001 0.930 . S
C987 C986 1.391 . S
C987 C989 1.387 . S
C988 C985 1.398 . S
C988 C989 1.380 . S
C988 H1002 0.930 1_655 S
C989 C987 1.387 . S
C989 C988 1.380 . S
C989 H1003 0.938 . S
C990 O970 1.254 . S
C990 O971 1.268 . S
C991 O975 1.284 . S
C991 O978 1.250 . S
C992 Gd925 2.828 . S
C992 O974 1.258 . S
C992 O979 1.252 . S
C992 C993 1.497 . S
C993 C992 1.497 . S
C993 C994 1.395 . S
C993 C995 1.380 . S
C994 C993 1.395 . S
C994 C997 1.398 . S
C994 H1004 0.930 . S
C995 C993 1.380 . S
C995 C996 1.391 . S
C995 H1005 0.930 . S
C996 C995 1.391 . S
C996 C998 1.387 . S
C997 C994 1.398 . S
C997 C998 1.380 . S
C997 H1006 0.930 . S
C998 C996 1.387 . S
C998 C997 1.380 . S
C998 H1007 0.930 . S
C999 O976 1.254 . S
C999 O977 1.268 . S
H1000 C985 0.930 . S
H1001 C986 0.930 . S
H1002 C988 0.930 1_455 S
H1003 C989 0.938 . S
H1004 C994 0.930 . S
H1005 C995 0.930 . S
H1006 C997 0.930 . S
H1007 C998 0.930 . S
Gd1008 N1039 2.661 . S
Gd1008 N1045 2.601 . S
Gd1008 O1052 2.545 . S
Gd1008 O1053 2.606 . S
Gd1008 O1055 2.429 . S
Gd1008 O1056 2.545 . S
Gd1008 O1057 2.412 . S
Gd1008 O1059 2.362 . S
Gd1008 O1060 2.324 . S
Gd1008 C1067 2.828 . S
Gd1009 N1018 2.661 . S
Gd1009 N1022 2.601 . S
Gd1009 O1053 2.362 . S
Gd1009 O1054 2.324 . S
Gd1009 O1058 2.545 . S
Gd1009 O1059 2.606 . S
Gd1009 O1061 2.429 . S
Gd1009 O1062 2.545 . S
Gd1009 O1063 2.412 . S
Gd1009 C1076 2.828 . S
C1010 C1013 1.417 . S
C1010 C1015 1.431 . S
C1010 C1016 1.412 . S
C1011 C1014 1.437 . S
C1011 C1015 1.317 . S
C1011 H1030 0.929 . S
C1012 C1013 1.426 . S
C1012 C1014 1.413 . S
C1012 N1022 1.359 . S
C1013 C1010 1.417 . S
C1013 C1012 1.426 . S
C1013 N1018 1.350 . S
C1014 C1011 1.437 . S
C1014 C1012 1.413 . S
C1014 C1024 1.391 . S
C1015 C1010 1.431 . S
C1015 C1011 1.317 . S
C1015 H1026 0.930 . S
C1016 C1010 1.412 . S
C1016 C1017 1.355 . S
C1016 H1028 0.930 . S
C1017 C1016 1.355 . S
C1017 C1019 1.402 . S
C1017 H1029 0.930 . S
N1018 Gd1009 2.661 . S
N1018 C1013 1.350 . S
N1018 C1019 1.307 . S
C1019 C1017 1.402 . S
C1019 N1018 1.307 . S
C1019 H1020 0.930 . S
H1020 C1019 0.930 . S
C1021 N1022 1.334 . S
C1021 C1023 1.394 . S
C1021 H1025 0.930 . S
N1022 Gd1009 2.601 . S
N1022 C1012 1.359 . S
N1022 C1021 1.334 . S
C1023 C1021 1.394 . S
C1023 C1024 1.359 . S
C1023 H1035 0.930 . S
C1024 C1014 1.391 . S
C1024 C1023 1.359 . S
C1024 H1036 0.929 . S
H1025 C1021 0.930 . S
H1026 C1015 0.930 . S
H1027 C1044 0.930 . S
H1028 C1016 0.930 . S
H1029 C1017 0.930 . S
H1030 C1011 0.929 . S
H1031 C1049 0.930 . S
H1032 C1040 0.930 . S
H1033 C1041 0.930 . S
H1034 C1065 0.929 . S
H1035 C1023 0.930 . S
H1036 C1024 0.929 . S
H1037 C1066 0.930 . S
H1038 C1047 0.930 . S
N1039 Gd1008 2.661 . S
N1039 C1043 1.350 . S
N1039 C1044 1.307 . S
C1040 H1032 0.930 . S
C1040 C1041 1.355 . S
C1040 C1042 1.412 . S
C1041 H1033 0.930 . S
C1041 C1040 1.355 . S
C1041 C1044 1.402 . S
C1042 C1040 1.412 . S
C1042 C1043 1.417 . S
C1042 C1066 1.431 . S
C1043 N1039 1.350 . S
C1043 C1042 1.417 . S
C1043 C1046 1.426 . S
C1044 H1027 0.930 . S
C1044 N1039 1.307 . S
C1044 C1041 1.402 . S
N1045 Gd1008 2.601 . S
N1045 C1046 1.359 . S
N1045 C1049 1.334 . S
C1046 C1043 1.426 . S
C1046 N1045 1.359 . S
C1046 C1050 1.413 . S
C1047 H1038 0.930 . S
C1047 C1048 1.359 . S
C1047 C1049 1.394 . S
C1048 C1047 1.359 . S
C1048 C1050 1.391 . S
C1048 H1051 0.929 . S
C1049 H1031 0.930 . S
C1049 N1045 1.334 . S
C1049 C1047 1.394 . S
C1050 C1046 1.413 . S
C1050 C1048 1.391 . S
C1050 C1065 1.437 . S
H1051 C1048 0.929 . S
O1052 Gd1008 2.545 . S
O1052 C1067 1.258 . S
O1053 Gd1008 2.606 . S
O1053 Gd1009 2.362 . S
O1053 C1064 1.284 . S
O1054 Gd1009 2.324 . S
O1054 C1074 1.254 . S
O1055 Gd1008 2.429 . S
O1055 C1074 1.268 . S
O1056 Gd1008 2.545 . S
O1056 C1064 1.250 . S
O1057 Gd1008 2.412 . S
O1057 C1067 1.252 . S
O1058 Gd1009 2.545 . S
O1058 C1076 1.258 . S
O1059 Gd1008 2.362 . S
O1059 Gd1009 2.606 . S
O1059 C1075 1.284 . S
O1060 Gd1008 2.324 . S
O1060 C1083 1.254 . S
O1061 Gd1009 2.429 . S
O1061 C1083 1.268 . S
O1062 Gd1009 2.545 . S
O1062 C1075 1.250 . S
O1063 Gd1009 2.412 . S
O1063 C1076 1.252 . S
C1064 O1053 1.284 . S
C1064 O1056 1.250 . S
C1065 H1034 0.929 . S
C1065 C1050 1.437 . S
C1065 C1066 1.317 . S
C1066 H1037 0.930 . S
C1066 C1042 1.431 . S
C1066 C1065 1.317 . S
C1067 Gd1008 2.828 . S
C1067 O1052 1.258 . S
C1067 O1057 1.252 . S
C1067 C1068 1.497 . S
C1068 C1067 1.497 . S
C1068 C1069 1.395 . S
C1068 C1070 1.380 . S
C1069 C1068 1.395 . S
C1069 C1072 1.398 . S
C1069 H1084 0.930 . S
C1070 C1068 1.380 . S
C1070 C1071 1.391 . S
C1070 H1085 0.930 . S
C1071 C1070 1.391 . S
C1071 C1073 1.387 . S
C1072 C1069 1.398 . S
C1072 C1073 1.380 . S
C1072 H1086 0.930 . S
C1073 C1071 1.387 . S
C1073 C1072 1.380 . S
C1073 H1087 0.930 . S
C1074 O1054 1.254 . S
C1074 O1055 1.268 . S
C1075 O1059 1.284 . S
C1075 O1062 1.250 . S
C1076 Gd1009 2.828 . S
C1076 O1058 1.258 . S
C1076 O1063 1.252 . S
C1076 C1077 1.497 . S
C1077 C1076 1.497 . S
C1077 C1078 1.395 . S
C1077 C1079 1.380 . S
C1078 C1077 1.395 . S
C1078 C1081 1.398 . S
C1078 H1088 0.930 . S
C1079 C1077 1.380 . S
C1079 C1080 1.391 . S
C1079 H1089 0.930 . S
C1080 C1079 1.391 . S
C1080 C1082 1.387 . S
C1081 C1078 1.398 . S
C1081 C1082 1.380 . S
C1081 H1090 0.930 . S
C1082 C1080 1.387 . S
C1082 C1081 1.380 . S
C1082 H1091 0.930 . S
C1083 O1060 1.254 . S
C1083 O1061 1.268 . S
H1084 C1069 0.930 . S
H1085 C1070 0.930 . S
H1086 C1072 0.930 . S
H1087 C1073 0.930 . S
H1088 C1078 0.930 . S
H1089 C1079 0.930 . S
H1090 C1081 0.930 . S
H1091 C1082 0.930 . S
Gd1092 N1123 2.661 . S
Gd1092 N1129 2.601 . S
Gd1092 O1136 2.545 . S
Gd1092 O1137 2.606 . S
Gd1092 O1139 2.429 . S
Gd1092 O1140 2.545 . S
Gd1092 O1141 2.412 . S
Gd1092 O1143 2.362 . S
Gd1092 O1144 2.324 . S
Gd1092 C1151 2.828 . S
Gd1093 N1102 2.661 . S
Gd1093 N1106 2.601 . S
Gd1093 O1137 2.362 . S
Gd1093 O1138 2.324 . S
Gd1093 O1142 2.545 . S
Gd1093 O1143 2.606 . S
Gd1093 O1145 2.429 . S
Gd1093 O1146 2.545 . S
Gd1093 O1147 2.412 . S
Gd1093 C1160 2.828 . S
C1094 C1097 1.417 . S
C1094 C1099 1.431 . S
C1094 C1100 1.412 . S
C1095 C1098 1.437 . S
C1095 C1099 1.317 . S
C1095 H1114 0.929 . S
C1096 C1097 1.426 . S
C1096 C1098 1.413 . S
C1096 N1106 1.359 1_655 S
C1097 C1094 1.417 . S
C1097 C1096 1.426 . S
C1097 N1102 1.350 1_655 S
C1098 C1095 1.437 . S
C1098 C1096 1.413 . S
C1098 C1108 1.391 . S
C1099 C1094 1.431 . S
C1099 C1095 1.317 . S
C1099 H1110 0.930 . S
C1100 C1094 1.412 . S
C1100 C1101 1.355 . S
C1100 H1112 0.930 . S
C1101 C1100 1.355 . S
C1101 C1103 1.420 . S
C1101 H1113 0.930 . S
N1102 Gd1093 2.661 . S
N1102 C1097 1.350 1_455 S
N1102 C1103 1.304 1_455 S
C1103 C1101 1.420 . S
C1103 N1102 1.304 1_655 S
C1103 H1104 0.915 1_655 S
H1104 C1103 0.915 1_455 S
C1105 N1106 1.334 . S
C1105 C1107 1.394 1_455 S
C1105 H1109 0.930 . S
N1106 Gd1093 2.601 . S
N1106 C1096 1.359 1_455 S
N1106 C1105 1.334 . S
C1107 C1105 1.394 1_655 S
C1107 C1108 1.359 . S
C1107 H1119 0.924 1_655 S
C1108 C1098 1.391 . S
C1108 C1107 1.359 . S
C1108 H1120 0.929 . S
H1109 C1105 0.930 . S
H1110 C1099 0.930 . S
H1111 C1128 0.930 . S
H1112 C1100 0.930 . S
H1113 C1101 0.930 . S
H1114 C1095 0.929 . S
H1115 C1133 0.930 . S
H1116 C1124 0.930 . S
H1117 C1125 0.930 . S
H1118 C1149 0.929 . S
H1119 C1107 0.924 1_455 S
H1120 C1108 0.929 . S
H1121 C1150 0.930 . S
H1122 C1131 0.930 . S
N1123 Gd1092 2.661 . S
N1123 C1127 1.350 . S
N1123 C1128 1.307 . S
C1124 H1116 0.930 . S
C1124 C1125 1.355 . S
C1124 C1126 1.412 . S
C1125 H1117 0.930 . S
C1125 C1124 1.355 . S
C1125 C1128 1.402 . S
C1126 C1124 1.412 . S
C1126 C1127 1.417 . S
C1126 C1150 1.431 . S
C1127 N1123 1.350 . S
C1127 C1126 1.417 . S
C1127 C1130 1.426 . S
C1128 H1111 0.930 . S
C1128 N1123 1.307 . S
C1128 C1125 1.402 . S
N1129 Gd1092 2.601 . S
N1129 C1130 1.359 . S
N1129 C1133 1.334 . S
C1130 C1127 1.426 . S
C1130 N1129 1.359 . S
C1130 C1134 1.413 . S
C1131 H1122 0.930 . S
C1131 C1132 1.359 . S
C1131 C1133 1.394 . S
C1132 C1131 1.359 . S
C1132 C1134 1.391 . S
C1132 H1135 0.929 . S
C1133 H1115 0.930 . S
C1133 N1129 1.334 . S
C1133 C1131 1.394 . S
C1134 C1130 1.413 . S
C1134 C1132 1.391 . S
C1134 C1149 1.437 . S
H1135 C1132 0.929 . S
O1136 Gd1092 2.545 . S
O1136 C1151 1.258 . S
O1137 Gd1092 2.606 . S
O1137 Gd1093 2.362 . S
O1137 C1148 1.284 . S
O1138 Gd1093 2.324 . S
O1138 C1158 1.254 . S
O1139 Gd1092 2.429 . S
O1139 C1158 1.268 . S
O1140 Gd1092 2.545 . S
O1140 C1148 1.250 . S
O1141 Gd1092 2.412 . S
O1141 C1151 1.252 . S
O1142 Gd1093 2.545 . S
O1142 C1160 1.258 . S
O1143 Gd1092 2.362 . S
O1143 Gd1093 2.606 . S
O1143 C1159 1.284 . S
O1144 Gd1092 2.324 . S
O1144 C1167 1.254 . S
O1145 Gd1093 2.429 . S
O1145 C1167 1.268 . S
O1146 Gd1093 2.545 . S
O1146 C1159 1.250 . S
O1147 Gd1093 2.412 . S
O1147 C1160 1.252 . S
C1148 O1137 1.284 . S
C1148 O1140 1.250 . S
C1149 H1118 0.929 . S
C1149 C1134 1.437 . S
C1149 C1150 1.317 . S
C1150 H1121 0.930 . S
C1150 C1126 1.431 . S
C1150 C1149 1.317 . S
C1151 Gd1092 2.828 . S
C1151 O1136 1.258 . S
C1151 O1141 1.252 . S
C1151 C1152 1.497 . S
C1152 C1151 1.497 . S
C1152 C1153 1.395 . S
C1152 C1154 1.380 . S
C1153 C1152 1.395 . S
C1153 C1156 1.398 . S
C1153 H1168 0.930 . S
C1154 C1152 1.380 . S
C1154 C1155 1.391 . S
C1154 H1169 0.930 . S
C1155 C1154 1.391 . S
C1155 C1157 1.387 . S
C1156 C1153 1.398 . S
C1156 C1157 1.380 . S
C1156 H1170 0.930 . S
C1157 C1155 1.387 . S
C1157 C1156 1.380 . S
C1157 H1171 0.930 . S
C1158 O1138 1.254 . S
C1158 O1139 1.268 . S
C1159 O1143 1.284 . S
C1159 O1146 1.250 . S
C1160 Gd1093 2.828 . S
C1160 O1142 1.258 . S
C1160 O1147 1.252 . S
C1160 C1161 1.497 . S
C1161 C1160 1.497 . S
C1161 C1162 1.395 . S
C1161 C1163 1.380 . S
C1162 C1161 1.395 . S
C1162 C1165 1.398 . S
C1162 H1172 0.930 . S
C1163 C1161 1.380 . S
C1163 C1164 1.391 . S
C1163 H1173 0.930 . S
C1164 C1163 1.391 . S
C1164 C1166 1.387 . S
C1165 C1162 1.398 . S
C1165 C1166 1.380 . S
C1165 H1174 0.930 1_455 S
C1166 C1164 1.387 . S
C1166 C1165 1.380 . S
C1166 H1175 0.929 . S
C1167 O1144 1.254 . S
C1167 O1145 1.268 . S
H1168 C1153 0.930 . S
H1169 C1154 0.930 . S
H1170 C1156 0.930 . S
H1171 C1157 0.930 . S
H1172 C1162 0.930 . S
H1173 C1163 0.930 . S
H1174 C1165 0.930 1_655 S
H1175 C1166 0.929 . S
Gd1176 N1207 2.661 . S
Gd1176 N1213 2.601 . S
Gd1176 O1220 2.545 . S
Gd1176 O1221 2.606 . S
Gd1176 O1223 2.429 . S
Gd1176 O1224 2.545 . S
Gd1176 O1225 2.412 . S
Gd1176 O1227 2.362 . S
Gd1176 O1228 2.324 . S
Gd1176 C1235 2.828 . S
Gd1177 N1186 2.661 . S
Gd1177 N1190 2.601 . S
Gd1177 O1221 2.362 . S
Gd1177 O1222 2.324 . S
Gd1177 O1226 2.545 . S
Gd1177 O1227 2.606 . S
Gd1177 O1229 2.429 . S
Gd1177 O1230 2.545 . S
Gd1177 O1231 2.412 . S
Gd1177 C1244 2.828 . S
C1178 C1181 1.417 . S
C1178 C1183 1.431 . S
C1178 C1184 1.412 . S
C1179 C1182 1.437 . S
C1179 C1183 1.317 . S
C1179 H1198 0.929 . S
C1180 C1181 1.426 . S
C1180 C1182 1.413 . S
C1180 N1190 1.359 . S
C1181 C1178 1.417 . S
C1181 C1180 1.426 . S
C1181 N1186 1.350 . S
C1182 C1179 1.437 . S
C1182 C1180 1.413 . S
C1182 C1192 1.391 . S
C1183 C1178 1.431 . S
C1183 C1179 1.317 . S
C1183 H1194 0.930 . S
C1184 C1178 1.412 . S
C1184 C1185 1.355 . S
C1184 H1196 0.930 . S
C1185 C1184 1.355 . S
C1185 C1187 1.402 . S
C1185 H1197 0.930 . S
N1186 Gd1177 2.661 . S
N1186 C1181 1.350 . S
N1186 C1187 1.307 . S
C1187 C1185 1.402 . S
C1187 N1186 1.307 . S
C1187 H1188 0.930 . S
H1188 C1187 0.930 . S
C1189 N1190 1.334 . S
C1189 C1191 1.394 . S
C1189 H1193 0.930 . S
N1190 Gd1177 2.601 . S
N1190 C1180 1.359 . S
N1190 C1189 1.334 . S
C1191 C1189 1.394 . S
C1191 C1192 1.359 . S
C1191 H1203 0.930 . S
C1192 C1182 1.391 . S
C1192 C1191 1.359 . S
C1192 H1204 0.929 . S
H1193 C1189 0.930 . S
H1194 C1183 0.930 . S
H1195 C1212 0.930 . S
H1196 C1184 0.930 . S
H1197 C1185 0.930 . S
H1198 C1179 0.929 . S
H1199 C1217 0.930 . S
H1200 C1208 0.930 . S
H1201 C1209 0.930 . S
H1202 C1233 0.929 . S
H1203 C1191 0.930 . S
H1204 C1192 0.929 . S
H1205 C1234 0.930 . S
H1206 C1215 0.930 . S
N1207 Gd1176 2.661 . S
N1207 C1211 1.350 . S
N1207 C1212 1.307 . S
C1208 H1200 0.930 . S
C1208 C1209 1.355 . S
C1208 C1210 1.412 . S
C1209 H1201 0.930 . S
C1209 C1208 1.355 . S
C1209 C1212 1.402 . S
C1210 C1208 1.412 . S
C1210 C1211 1.417 . S
C1210 C1234 1.431 . S
C1211 N1207 1.350 . S
C1211 C1210 1.417 . S
C1211 C1214 1.426 . S
C1212 H1195 0.930 . S
C1212 N1207 1.307 . S
C1212 C1209 1.402 . S
N1213 Gd1176 2.601 . S
N1213 C1214 1.359 . S
N1213 C1217 1.334 . S
C1214 C1211 1.426 . S
C1214 N1213 1.359 . S
C1214 C1218 1.413 . S
C1215 H1206 0.930 . S
C1215 C1216 1.359 . S
C1215 C1217 1.394 . S
C1216 C1215 1.359 . S
C1216 C1218 1.391 . S
C1216 H1219 0.929 . S
C1217 H1199 0.930 . S
C1217 N1213 1.334 . S
C1217 C1215 1.394 . S
C1218 C1214 1.413 . S
C1218 C1216 1.391 . S
C1218 C1233 1.437 . S
H1219 C1216 0.929 . S
O1220 Gd1176 2.545 . S
O1220 C1235 1.258 . S
O1221 Gd1176 2.606 . S
O1221 Gd1177 2.362 . S
O1221 C1232 1.284 . S
O1222 Gd1177 2.324 . S
O1222 C1242 1.254 . S
O1223 Gd1176 2.429 . S
O1223 C1242 1.268 . S
O1224 Gd1176 2.545 . S
O1224 C1232 1.250 . S
O1225 Gd1176 2.412 . S
O1225 C1235 1.252 . S
O1226 Gd1177 2.545 . S
O1226 C1244 1.258 . S
O1227 Gd1176 2.362 . S
O1227 Gd1177 2.606 . S
O1227 C1243 1.284 . S
O1228 Gd1176 2.324 . S
O1228 C1251 1.254 . S
O1229 Gd1177 2.429 . S
O1229 C1251 1.268 . S
O1230 Gd1177 2.545 . S
O1230 C1243 1.250 . S
O1231 Gd1177 2.412 . S
O1231 C1244 1.252 . S
C1232 O1221 1.284 . S
C1232 O1224 1.250 . S
C1233 H1202 0.929 . S
C1233 C1218 1.437 . S
C1233 C1234 1.317 . S
C1234 H1205 0.930 . S
C1234 C1210 1.431 . S
C1234 C1233 1.317 . S
C1235 Gd1176 2.828 . S
C1235 O1220 1.258 . S
C1235 O1225 1.252 . S
C1235 C1236 1.497 . S
C1236 C1235 1.497 . S
C1236 C1237 1.395 . S
C1236 C1238 1.380 . S
C1237 C1236 1.395 . S
C1237 C1240 1.398 . S
C1237 H1252 0.930 . S
C1238 C1236 1.380 . S
C1238 C1239 1.391 . S
C1238 H1253 0.930 . S
C1239 C1238 1.391 . S
C1239 C1241 1.387 . S
C1240 C1237 1.398 . S
C1240 C1241 1.380 . S
C1240 H1254 0.930 . S
C1241 C1239 1.387 . S
C1241 C1240 1.380 . S
C1241 H1255 0.930 . S
C1242 O1222 1.254 . S
C1242 O1223 1.268 . S
C1243 O1227 1.284 . S
C1243 O1230 1.250 . S
C1244 Gd1177 2.828 . S
C1244 O1226 1.258 . S
C1244 O1231 1.252 . S
C1244 C1245 1.497 . S
C1245 C1244 1.497 . S
C1245 C1246 1.395 . S
C1245 C1247 1.380 . S
C1246 C1245 1.395 . S
C1246 C1249 1.398 . S
C1246 H1256 0.930 . S
C1247 C1245 1.380 . S
C1247 C1248 1.391 . S
C1247 H1257 0.930 . S
C1248 C1247 1.391 . S
C1248 C1250 1.387 . S
C1249 C1246 1.398 . S
C1249 C1250 1.380 . S
C1249 H1258 0.930 . S
C1250 C1248 1.387 . S
C1250 C1249 1.380 . S
C1250 H1259 0.930 . S
C1251 O1228 1.254 . S
C1251 O1229 1.268 . S
H1252 C1237 0.930 . S
H1253 C1238 0.930 . S
H1254 C1240 0.930 . S
H1255 C1241 0.930 . S
H1256 C1246 0.930 . S
H1257 C1247 0.930 . S
H1258 C1249 0.930 . S
H1259 C1250 0.930 . S
Gd1260 N1291 2.661 . S
Gd1260 N1297 2.601 . S
Gd1260 O1304 2.545 . S
Gd1260 O1305 2.606 . S
Gd1260 O1307 2.429 . S
Gd1260 O1308 2.545 . S
Gd1260 O1309 2.412 . S
Gd1260 O1311 2.362 . S
Gd1260 O1312 2.324 . S
Gd1260 C1319 2.828 . S
Gd1261 N1270 2.661 . S
Gd1261 N1274 2.601 . S
Gd1261 O1305 2.362 . S
Gd1261 O1306 2.324 . S
Gd1261 O1310 2.545 . S
Gd1261 O1311 2.606 . S
Gd1261 O1313 2.429 . S
Gd1261 O1314 2.545 . S
Gd1261 O1315 2.412 . S
Gd1261 C1328 2.828 . S
C1262 C1265 1.417 . S
C1262 C1267 1.431 . S
C1262 C1268 1.412 . S
C1263 C1266 1.437 . S
C1263 C1267 1.317 . S
C1263 H1282 0.929 . S
C1264 C1265 1.426 . S
C1264 C1266 1.413 . S
C1264 N1274 1.359 1_655 S
C1265 C1262 1.417 . S
C1265 C1264 1.426 . S
C1265 N1270 1.350 1_655 S
C1266 C1263 1.437 . S
C1266 C1264 1.413 . S
C1266 C1276 1.391 . S
C1267 C1262 1.431 . S
C1267 C1263 1.317 . S
C1267 H1278 0.930 . S
C1268 C1262 1.412 . S
C1268 C1269 1.355 . S
C1268 H1280 0.930 . S
C1269 C1268 1.355 . S
C1269 C1271 1.404 . S
C1269 H1281 0.930 . S
N1270 Gd1261 2.661 . S
N1270 C1265 1.350 1_455 S
N1270 C1271 1.307 1_455 S
C1271 C1269 1.404 . S
C1271 N1270 1.307 1_655 S
C1271 H1272 0.928 1_655 S
H1272 C1271 0.928 1_455 S
C1273 N1274 1.334 . S
C1273 C1275 1.394 1_455 S
C1273 H1277 0.930 . S
N1274 Gd1261 2.601 . S
N1274 C1264 1.359 1_455 S
N1274 C1273 1.334 . S
C1275 C1273 1.394 1_655 S
C1275 C1276 1.359 . S
C1275 H1287 0.930 1_655 S
C1276 C1266 1.391 . S
C1276 C1275 1.359 . S
C1276 H1288 0.929 . S
H1277 C1273 0.930 . S
H1278 C1267 0.930 . S
H1279 C1296 0.930 . S
H1280 C1268 0.930 . S
H1281 C1269 0.930 . S
H1282 C1263 0.929 . S
H1283 C1301 0.930 . S
H1284 C1292 0.930 . S
H1285 C1293 0.930 . S
H1286 C1317 0.929 . S
H1287 C1275 0.930 1_455 S
H1288 C1276 0.929 . S
H1289 C1318 0.930 . S
H1290 C1299 0.930 . S
N1291 Gd1260 2.661 . S
N1291 C1295 1.350 . S
N1291 C1296 1.307 . S
C1292 H1284 0.930 . S
C1292 C1293 1.355 . S
C1292 C1294 1.412 . S
C1293 H1285 0.930 . S
C1293 C1292 1.355 . S
C1293 C1296 1.402 . S
C1294 C1292 1.412 . S
C1294 C1295 1.417 . S
C1294 C1318 1.431 . S
C1295 N1291 1.350 . S
C1295 C1294 1.417 . S
C1295 C1298 1.426 . S
C1296 H1279 0.930 . S
C1296 N1291 1.307 . S
C1296 C1293 1.402 . S
N1297 Gd1260 2.601 . S
N1297 C1298 1.359 . S
N1297 C1301 1.334 . S
C1298 C1295 1.426 . S
C1298 N1297 1.359 . S
C1298 C1302 1.413 . S
C1299 H1290 0.930 . S
C1299 C1300 1.359 . S
C1299 C1301 1.394 . S
C1300 C1299 1.359 . S
C1300 C1302 1.391 . S
C1300 H1303 0.929 . S
C1301 H1283 0.930 . S
C1301 N1297 1.334 . S
C1301 C1299 1.394 . S
C1302 C1298 1.413 . S
C1302 C1300 1.391 . S
C1302 C1317 1.437 . S
H1303 C1300 0.929 . S
O1304 Gd1260 2.545 . S
O1304 C1319 1.258 . S
O1305 Gd1260 2.606 . S
O1305 Gd1261 2.362 . S
O1305 C1316 1.284 . S
O1306 Gd1261 2.324 . S
O1306 C1326 1.254 . S
O1307 Gd1260 2.429 . S
O1307 C1326 1.268 . S
O1308 Gd1260 2.545 . S
O1308 C1316 1.250 . S
O1309 Gd1260 2.412 . S
O1309 C1319 1.252 . S
O1310 Gd1261 2.545 . S
O1310 C1328 1.258 . S
O1311 Gd1260 2.362 . S
O1311 Gd1261 2.606 . S
O1311 C1327 1.284 . S
O1312 Gd1260 2.324 . S
O1312 C1335 1.254 . S
O1313 Gd1261 2.429 . S
O1313 C1335 1.268 . S
O1314 Gd1261 2.545 . S
O1314 C1327 1.250 . S
O1315 Gd1261 2.412 . S
O1315 C1328 1.252 . S
C1316 O1305 1.284 . S
C1316 O1308 1.250 . S
C1317 H1286 0.929 . S
C1317 C1302 1.437 . S
C1317 C1318 1.317 . S
C1318 H1289 0.930 . S
C1318 C1294 1.431 . S
C1318 C1317 1.317 . S
C1319 Gd1260 2.828 . S
C1319 O1304 1.258 . S
C1319 O1309 1.252 . S
C1319 C1320 1.497 . S
C1320 C1319 1.497 . S
C1320 C1321 1.395 . S
C1320 C1322 1.380 . S
C1321 C1320 1.395 . S
C1321 C1324 1.398 . S
C1321 H1336 0.930 . S
C1322 C1320 1.380 . S
C1322 C1323 1.391 . S
C1322 H1337 0.930 . S
C1323 C1322 1.391 . S
C1323 C1325 1.387 . S
C1324 C1321 1.398 . S
C1324 C1325 1.380 . S
C1324 H1338 0.930 . S
C1325 C1323 1.387 . S
C1325 C1324 1.380 . S
C1325 H1339 0.930 . S
C1326 O1306 1.254 . S
C1326 O1307 1.268 . S
C1327 O1311 1.284 . S
C1327 O1314 1.250 . S
C1328 Gd1261 2.828 . S
C1328 O1310 1.258 . S
C1328 O1315 1.252 . S
C1328 C1329 1.497 . S
C1329 C1328 1.497 . S
C1329 C1330 1.395 . S
C1329 C1331 1.380 . S
C1330 C1329 1.395 . S
C1330 C1333 1.398 . S
C1330 H1340 0.930 . S
C1331 C1329 1.380 . S
C1331 C1332 1.391 . S
C1331 H1341 0.930 . S
C1332 C1331 1.391 . S
C1332 C1334 1.387 . S
C1333 C1330 1.398 . S
C1333 C1334 1.380 . S
C1333 H1342 0.930 1_455 S
C1334 C1332 1.387 . S
C1334 C1333 1.380 . S
C1334 H1343 0.938 . S
C1335 O1312 1.254 . S
C1335 O1313 1.268 . S
H1336 C1321 0.930 . S
H1337 C1322 0.930 . S
H1338 C1324 0.930 . S
H1339 C1325 0.930 . S
H1340 C1330 0.930 . S
H1341 C1331 0.930 . S
H1342 C1333 0.930 1_655 S
H1343 C1334 0.938 . S
Gd1344 N1375 2.661 1_565 S
Gd1344 N1381 2.601 . S
Gd1344 O1388 2.545 . S
Gd1344 O1389 2.606 1_565 S
Gd1344 O1391 2.429 . S
Gd1344 O1392 2.545 . S
Gd1344 O1393 2.412 1_565 S
Gd1344 O1395 2.362 . S
Gd1344 O1396 2.324 1_565 S
Gd1344 C1403 2.828 . S
Gd1345 N1354 2.661 1_545 S
Gd1345 N1358 2.601 . S
Gd1345 O1389 2.362 . S
Gd1345 O1390 2.324 1_545 S
Gd1345 O1394 2.545 . S
Gd1345 O1395 2.606 1_545 S
Gd1345 O1397 2.429 . S
Gd1345 O1398 2.545 . S
Gd1345 O1399 2.412 1_545 S
Gd1345 C1412 2.828 . S
C1346 C1349 1.417 . S
C1346 C1351 1.431 . S
C1346 C1352 1.412 1_545 S
C1347 C1350 1.437 . S
C1347 C1351 1.317 . S
C1347 H1366 0.929 . S
C1348 C1349 1.426 . S
C1348 C1350 1.413 . S
C1348 N1358 1.359 . S
C1349 C1346 1.417 . S
C1349 C1348 1.426 . S
C1349 N1354 1.350 1_545 S
C1350 C1347 1.437 . S
C1350 C1348 1.413 . S
C1350 C1360 1.391 . S
C1351 C1346 1.431 . S
C1351 C1347 1.317 . S
C1351 H1362 0.930 . S
C1352 C1346 1.412 1_565 S
C1352 C1353 1.355 . S
C1352 H1364 0.930 . S
C1353 C1352 1.355 . S
C1353 C1355 1.402 . S
C1353 H1365 0.930 . S
N1354 Gd1345 2.661 1_565 S
N1354 C1349 1.350 1_565 S
N1354 C1355 1.307 . S
C1355 C1353 1.402 . S
C1355 N1354 1.307 . S
C1355 H1356 0.930 . S
H1356 C1355 0.930 . S
C1357 N1358 1.334 . S
C1357 C1359 1.394 . S
C1357 H1361 0.930 . S
N1358 Gd1345 2.601 . S
N1358 C1348 1.359 . S
N1358 C1357 1.334 . S
C1359 C1357 1.394 . S
C1359 C1360 1.359 . S
C1359 H1371 0.930 . S
C1360 C1350 1.391 . S
C1360 C1359 1.359 . S
C1360 H1372 0.929 . S
H1361 C1357 0.930 . S
H1362 C1351 0.930 . S
H1363 C1380 0.930 . S
H1364 C1352 0.930 . S
H1365 C1353 0.930 . S
H1366 C1347 0.929 . S
H1367 C1385 0.930 . S
H1368 C1376 0.930 . S
H1369 C1377 0.930 . S
H1370 C1401 0.929 . S
H1371 C1359 0.930 . S
H1372 C1360 0.929 . S
H1373 C1402 0.930 . S
H1374 C1383 0.930 . S
N1375 Gd1344 2.661 1_545 S
N1375 C1379 1.350 1_545 S
N1375 C1380 1.307 . S
C1376 H1368 0.930 . S
C1376 C1377 1.355 . S
C1376 C1378 1.412 1_545 S
C1377 H1369 0.930 . S
C1377 C1376 1.355 . S
C1377 C1380 1.402 . S
C1378 C1376 1.412 1_565 S
C1378 C1379 1.417 . S
C1378 C1402 1.431 . S
C1379 N1375 1.350 1_565 S
C1379 C1378 1.417 . S
C1379 C1382 1.426 . S
C1380 H1363 0.930 . S
C1380 N1375 1.307 . S
C1380 C1377 1.402 . S
N1381 Gd1344 2.601 . S
N1381 C1382 1.359 . S
N1381 C1385 1.334 . S
C1382 C1379 1.426 . S
C1382 N1381 1.359 . S
C1382 C1386 1.413 . S
C1383 H1374 0.930 . S
C1383 C1384 1.359 . S
C1383 C1385 1.394 . S
C1384 C1383 1.359 . S
C1384 C1386 1.391 . S
C1384 H1387 0.929 . S
C1385 H1367 0.930 . S
C1385 N1381 1.334 . S
C1385 C1383 1.394 . S
C1386 C1382 1.413 . S
C1386 C1384 1.391 . S
C1386 C1401 1.437 . S
H1387 C1384 0.929 . S
O1388 Gd1344 2.545 . S
O1388 C1403 1.258 . S
O1389 Gd1344 2.606 1_545 S
O1389 Gd1345 2.362 . S
O1389 C1400 1.285 . S
O1390 Gd1345 2.324 1_565 S
O1390 C1410 1.254 . S
O1391 Gd1344 2.429 . S
O1391 C1410 1.268 . S
O1392 Gd1344 2.545 . S
O1392 C1400 1.248 1_565 S
O1393 Gd1344 2.412 1_545 S
O1393 C1403 1.252 1_545 S
O1394 Gd1345 2.545 . S
O1394 C1412 1.258 . S
O1395 Gd1344 2.362 . S
O1395 Gd1345 2.606 1_565 S
O1395 C1411 1.285 1_565 S
O1396 Gd1344 2.324 1_545 S
O1396 C1419 1.254 . S
O1397 Gd1345 2.429 . S
O1397 C1419 1.268 . S
O1398 Gd1345 2.545 . S
O1398 C1411 1.248 . S
O1399 Gd1345 2.412 1_565 S
O1399 C1412 1.252 1_565 S
C1400 O1389 1.285 . S
C1400 O1392 1.248 1_545 S
C1401 H1370 0.929 . S
C1401 C1386 1.437 . S
C1401 C1402 1.317 . S
C1402 H1373 0.930 . S
C1402 C1378 1.431 . S
C1402 C1401 1.317 . S
C1403 Gd1344 2.828 . S
C1403 O1388 1.258 . S
C1403 O1393 1.252 1_565 S
C1403 C1404 1.497 . S
C1404 C1403 1.497 . S
C1404 C1405 1.395 . S
C1404 C1406 1.380 1_565 S
C1405 C1404 1.395 . S
C1405 C1408 1.398 . S
C1405 H1420 0.930 . S
C1406 C1404 1.380 1_545 S
C1406 C1407 1.391 . S
C1406 H1421 0.930 . S
C1407 C1406 1.391 . S
C1407 C1409 1.387 1_545 S
C1408 C1405 1.398 . S
C1408 C1409 1.380 . S
C1408 H1422 0.930 . S
C1409 C1407 1.387 1_565 S
C1409 C1408 1.380 . S
C1409 H1423 0.930 . S
C1410 O1390 1.254 . S
C1410 O1391 1.268 . S
C1411 O1395 1.285 1_545 S
C1411 O1398 1.248 . S
C1412 Gd1345 2.828 . S
C1412 O1394 1.258 . S
C1412 O1399 1.252 1_545 S
C1412 C1413 1.497 . S
C1413 C1412 1.497 . S
C1413 C1414 1.395 . S
C1413 C1415 1.380 1_545 S
C1414 C1413 1.395 . S
C1414 C1417 1.398 . S
C1414 H1424 0.930 . S
C1415 C1413 1.380 1_565 S
C1415 C1416 1.394 . S
C1415 H1425 0.930 . S
C1416 C1415 1.394 . S
C1416 C1418 1.337 1_565 S
C1417 C1414 1.398 . S
C1417 C1418 1.380 . S
C1417 H1426 0.930 . S
C1418 C1416 1.337 1_545 S
C1418 C1417 1.380 . S
C1418 H1427 0.930 . S
C1419 O1396 1.254 . S
C1419 O1397 1.268 . S
H1420 C1405 0.930 . S
H1421 C1406 0.930 . S
H1422 C1408 0.930 . S
H1423 C1409 0.930 . S
H1424 C1414 0.930 . S
H1425 C1415 0.930 . S
H1426 C1417 0.930 . S
H1427 C1418 0.930 . S
Gd1428 N1459 2.661 . S
Gd1428 N1465 2.601 . S
Gd1428 O1472 2.545 . S
Gd1428 O1473 2.606 . S
Gd1428 O1475 2.429 . S
Gd1428 O1476 2.545 . S
Gd1428 O1477 2.412 . S
Gd1428 O1479 2.362 . S
Gd1428 O1480 2.324 . S
Gd1428 C1487 2.828 . S
Gd1429 N1438 2.661 . S
Gd1429 N1442 2.601 . S
Gd1429 O1473 2.362 . S
Gd1429 O1474 2.324 . S
Gd1429 O1478 2.545 . S
Gd1429 O1479 2.606 . S
Gd1429 O1481 2.429 . S
Gd1429 O1482 2.545 . S
Gd1429 O1483 2.412 . S
Gd1429 C1496 2.828 . S
C1430 C1433 1.417 . S
C1430 C1435 1.431 . S
C1430 C1436 1.412 . S
C1431 C1434 1.437 . S
C1431 C1435 1.317 . S
C1431 H1450 0.929 . S
C1432 C1433 1.426 . S
C1432 C1434 1.413 . S
C1432 N1442 1.359 . S
C1433 C1430 1.417 . S
C1433 C1432 1.426 . S
C1433 N1438 1.350 . S
C1434 C1431 1.437 . S
C1434 C1432 1.413 . S
C1434 C1444 1.391 . S
C1435 C1430 1.431 . S
C1435 C1431 1.317 . S
C1435 H1446 0.930 . S
C1436 C1430 1.412 . S
C1436 C1437 1.355 . S
C1436 H1448 0.930 . S
C1437 C1436 1.355 . S
C1437 C1439 1.402 . S
C1437 H1449 0.930 . S
N1438 Gd1429 2.661 . S
N1438 C1433 1.350 . S
N1438 C1439 1.307 . S
C1439 C1437 1.402 . S
C1439 N1438 1.307 . S
C1439 H1440 0.930 . S
H1440 C1439 0.930 . S
C1441 N1442 1.334 . S
C1441 C1443 1.394 . S
C1441 H1445 0.930 . S
N1442 Gd1429 2.601 . S
N1442 C1432 1.359 . S
N1442 C1441 1.334 . S
C1443 C1441 1.394 . S
C1443 C1444 1.359 . S
C1443 H1455 0.930 . S
C1444 C1434 1.391 . S
C1444 C1443 1.359 . S
C1444 H1456 0.929 . S
H1445 C1441 0.930 . S
H1446 C1435 0.930 . S
H1447 C1464 0.930 . S
H1448 C1436 0.930 . S
H1449 C1437 0.930 . S
H1450 C1431 0.929 . S
H1451 C1469 0.930 . S
H1452 C1460 0.930 . S
H1453 C1461 0.930 . S
H1454 C1485 0.929 . S
H1455 C1443 0.930 . S
H1456 C1444 0.929 . S
H1457 C1486 0.930 . S
H1458 C1467 0.930 . S
N1459 Gd1428 2.661 . S
N1459 C1463 1.350 . S
N1459 C1464 1.307 . S
C1460 H1452 0.930 . S
C1460 C1461 1.355 . S
C1460 C1462 1.412 . S
C1461 H1453 0.930 . S
C1461 C1460 1.355 . S
C1461 C1464 1.402 . S
C1462 C1460 1.412 . S
C1462 C1463 1.417 . S
C1462 C1486 1.431 . S
C1463 N1459 1.350 . S
C1463 C1462 1.417 . S
C1463 C1466 1.426 . S
C1464 H1447 0.930 . S
C1464 N1459 1.307 . S
C1464 C1461 1.402 . S
N1465 Gd1428 2.601 . S
N1465 C1466 1.359 . S
N1465 C1469 1.334 . S
C1466 C1463 1.426 . S
C1466 N1465 1.359 . S
C1466 C1470 1.413 . S
C1467 H1458 0.930 . S
C1467 C1468 1.359 . S
C1467 C1469 1.394 . S
C1468 C1467 1.359 . S
C1468 C1470 1.391 . S
C1468 H1471 0.929 . S
C1469 H1451 0.930 . S
C1469 N1465 1.334 . S
C1469 C1467 1.394 . S
C1470 C1466 1.413 . S
C1470 C1468 1.391 . S
C1470 C1485 1.437 . S
H1471 C1468 0.929 . S
O1472 Gd1428 2.545 . S
O1472 C1487 1.258 . S
O1473 Gd1428 2.606 . S
O1473 Gd1429 2.362 . S
O1473 C1484 1.284 . S
O1474 Gd1429 2.324 . S
O1474 C1494 1.254 . S
O1475 Gd1428 2.429 . S
O1475 C1494 1.268 . S
O1476 Gd1428 2.545 . S
O1476 C1484 1.250 . S
O1477 Gd1428 2.412 . S
O1477 C1487 1.252 . S
O1478 Gd1429 2.545 . S
O1478 C1496 1.258 . S
O1479 Gd1428 2.362 . S
O1479 Gd1429 2.606 . S
O1479 C1495 1.284 . S
O1480 Gd1428 2.324 . S
O1480 C1503 1.254 . S
O1481 Gd1429 2.429 . S
O1481 C1503 1.268 . S
O1482 Gd1429 2.545 . S
O1482 C1495 1.250 . S
O1483 Gd1429 2.412 . S
O1483 C1496 1.252 . S
C1484 O1473 1.284 . S
C1484 O1476 1.250 . S
C1485 H1454 0.929 . S
C1485 C1470 1.437 . S
C1485 C1486 1.317 . S
C1486 H1457 0.930 . S
C1486 C1462 1.431 . S
C1486 C1485 1.317 . S
C1487 Gd1428 2.828 . S
C1487 O1472 1.258 . S
C1487 O1477 1.252 . S
C1487 C1488 1.497 . S
C1488 C1487 1.497 . S
C1488 C1489 1.395 . S
C1488 C1490 1.380 . S
C1489 C1488 1.395 . S
C1489 C1492 1.398 . S
C1489 H1504 0.930 . S
C1490 C1488 1.380 . S
C1490 C1491 1.391 . S
C1490 H1505 0.930 . S
C1491 C1490 1.391 . S
C1491 C1493 1.387 . S
C1492 C1489 1.398 . S
C1492 C1493 1.380 . S
C1492 H1506 0.930 . S
C1493 C1491 1.387 . S
C1493 C1492 1.380 . S
C1493 H1507 0.930 . S
C1494 O1474 1.254 . S
C1494 O1475 1.268 . S
C1495 O1479 1.284 . S
C1495 O1482 1.250 . S
C1496 Gd1429 2.828 . S
C1496 O1478 1.258 . S
C1496 O1483 1.252 . S
C1496 C1497 1.497 . S
C1497 C1496 1.497 . S
C1497 C1498 1.395 . S
C1497 C1499 1.380 . S
C1498 C1497 1.395 . S
C1498 C1501 1.398 . S
C1498 H1508 0.930 . S
C1499 C1497 1.380 . S
C1499 C1500 1.391 . S
C1499 H1509 0.930 . S
C1500 C1499 1.391 . S
C1500 C1502 1.387 . S
C1501 C1498 1.398 . S
C1501 C1502 1.380 . S
C1501 H1510 0.930 . S
C1502 C1500 1.387 . S
C1502 C1501 1.380 . S
C1502 H1511 0.930 . S
C1503 O1480 1.254 . S
C1503 O1481 1.268 . S
H1504 C1489 0.930 . S
H1505 C1490 0.930 . S
H1506 C1492 0.930 . S
H1507 C1493 0.930 . S
H1508 C1498 0.930 . S
H1509 C1499 0.930 . S
H1510 C1501 0.930 . S
H1511 C1502 0.930 . S
Gd1512 N1543 2.661 . S
Gd1512 N1549 2.601 . S
Gd1512 O1556 2.545 . S
Gd1512 O1557 2.606 . S
Gd1512 O1559 2.429 . S
Gd1512 O1560 2.545 . S
Gd1512 O1561 2.412 . S
Gd1512 O1563 2.362 . S
Gd1512 O1564 2.324 . S
Gd1512 C1571 2.828 . S
Gd1513 N1522 2.661 . S
Gd1513 N1526 2.601 . S
Gd1513 O1557 2.362 . S
Gd1513 O1558 2.324 . S
Gd1513 O1562 2.545 . S
Gd1513 O1563 2.606 . S
Gd1513 O1565 2.429 . S
Gd1513 O1566 2.545 . S
Gd1513 O1567 2.412 . S
Gd1513 C1580 2.828 . S
C1514 C1517 1.417 . S
C1514 C1519 1.431 . S
C1514 C1520 1.412 . S
C1515 C1518 1.437 . S
C1515 C1519 1.317 . S
C1515 H1534 0.929 . S
C1516 C1517 1.426 . S
C1516 C1518 1.413 . S
C1516 N1526 1.359 . S
C1517 C1514 1.417 . S
C1517 C1516 1.426 . S
C1517 N1522 1.350 . S
C1518 C1515 1.437 . S
C1518 C1516 1.413 . S
C1518 C1528 1.391 . S
C1519 C1514 1.431 . S
C1519 C1515 1.317 . S
C1519 H1530 0.930 . S
C1520 C1514 1.412 . S
C1520 C1521 1.355 . S
C1520 H1532 0.930 . S
C1521 C1520 1.355 . S
C1521 C1523 1.402 . S
C1521 H1533 0.930 . S
N1522 Gd1513 2.661 . S
N1522 C1517 1.350 . S
N1522 C1523 1.307 . S
C1523 C1521 1.402 . S
C1523 N1522 1.307 . S
C1523 H1524 0.930 . S
H1524 C1523 0.930 . S
C1525 N1526 1.334 . S
C1525 C1527 1.394 . S
C1525 H1529 0.930 . S
N1526 Gd1513 2.601 . S
N1526 C1516 1.359 . S
N1526 C1525 1.334 . S
C1527 C1525 1.394 . S
C1527 C1528 1.359 . S
C1527 H1539 0.930 . S
C1528 C1518 1.391 . S
C1528 C1527 1.359 . S
C1528 H1540 0.929 . S
H1529 C1525 0.930 . S
H1530 C1519 0.930 . S
H1531 C1548 0.930 . S
H1532 C1520 0.930 . S
H1533 C1521 0.930 . S
H1534 C1515 0.929 . S
H1535 C1553 0.930 . S
H1536 C1544 0.930 . S
H1537 C1545 0.930 . S
H1538 C1569 0.929 . S
H1539 C1527 0.930 . S
H1540 C1528 0.929 . S
H1541 C1570 0.930 . S
H1542 C1551 0.930 . S
N1543 Gd1512 2.661 . S
N1543 C1547 1.350 . S
N1543 C1548 1.307 . S
C1544 H1536 0.930 . S
C1544 C1545 1.355 . S
C1544 C1546 1.412 . S
C1545 H1537 0.930 . S
C1545 C1544 1.355 . S
C1545 C1548 1.402 . S
C1546 C1544 1.412 . S
C1546 C1547 1.417 . S
C1546 C1570 1.431 . S
C1547 N1543 1.350 . S
C1547 C1546 1.417 . S
C1547 C1550 1.426 . S
C1548 H1531 0.930 . S
C1548 N1543 1.307 . S
C1548 C1545 1.402 . S
N1549 Gd1512 2.601 . S
N1549 C1550 1.359 . S
N1549 C1553 1.334 . S
C1550 C1547 1.426 . S
C1550 N1549 1.359 . S
C1550 C1554 1.413 . S
C1551 H1542 0.930 . S
C1551 C1552 1.359 . S
C1551 C1553 1.394 . S
C1552 C1551 1.359 . S
C1552 C1554 1.391 . S
C1552 H1555 0.929 . S
C1553 H1535 0.930 . S
C1553 N1549 1.334 . S
C1553 C1551 1.394 . S
C1554 C1550 1.413 . S
C1554 C1552 1.391 . S
C1554 C1569 1.437 . S
H1555 C1552 0.929 . S
O1556 Gd1512 2.545 . S
O1556 C1571 1.258 . S
O1557 Gd1512 2.606 . S
O1557 Gd1513 2.362 . S
O1557 C1568 1.284 . S
O1558 Gd1513 2.324 . S
O1558 C1578 1.254 . S
O1559 Gd1512 2.429 . S
O1559 C1578 1.268 . S
O1560 Gd1512 2.545 . S
O1560 C1568 1.250 . S
O1561 Gd1512 2.412 . S
O1561 C1571 1.252 . S
O1562 Gd1513 2.545 . S
O1562 C1580 1.258 . S
O1563 Gd1512 2.362 . S
O1563 Gd1513 2.606 . S
O1563 C1579 1.284 . S
O1564 Gd1512 2.324 . S
O1564 C1587 1.254 . S
O1565 Gd1513 2.429 . S
O1565 C1587 1.268 . S
O1566 Gd1513 2.545 . S
O1566 C1579 1.250 . S
O1567 Gd1513 2.412 . S
O1567 C1580 1.252 . S
C1568 O1557 1.284 . S
C1568 O1560 1.250 . S
C1569 H1538 0.929 . S
C1569 C1554 1.437 . S
C1569 C1570 1.317 . S
C1570 H1541 0.930 . S
C1570 C1546 1.431 . S
C1570 C1569 1.317 . S
C1571 Gd1512 2.828 . S
C1571 O1556 1.258 . S
C1571 O1561 1.252 . S
C1571 C1572 1.497 . S
C1572 C1571 1.497 . S
C1572 C1573 1.395 . S
C1572 C1574 1.380 . S
C1573 C1572 1.395 . S
C1573 C1576 1.398 . S
C1573 H1588 0.930 . S
C1574 C1572 1.380 . S
C1574 C1575 1.391 . S
C1574 H1589 0.930 . S
C1575 C1574 1.391 . S
C1575 C1577 1.387 . S
C1576 C1573 1.398 . S
C1576 C1577 1.380 . S
C1576 H1590 0.930 . S
C1577 C1575 1.387 . S
C1577 C1576 1.380 . S
C1577 H1591 0.930 . S
C1578 O1558 1.254 . S
C1578 O1559 1.268 . S
C1579 O1563 1.284 . S
C1579 O1566 1.250 . S
C1580 Gd1513 2.828 . S
C1580 O1562 1.258 . S
C1580 O1567 1.252 . S
C1580 C1581 1.497 . S
C1581 C1580 1.497 . S
C1581 C1582 1.395 . S
C1581 C1583 1.380 . S
C1582 C1581 1.395 . S
C1582 C1585 1.398 . S
C1582 H1592 0.930 . S
C1583 C1581 1.380 . S
C1583 C1584 1.391 . S
C1583 H1593 0.930 . S
C1584 C1583 1.391 . S
C1584 C1586 1.387 . S
C1585 C1582 1.398 . S
C1585 C1586 1.380 . S
C1585 H1594 0.930 . S
C1586 C1584 1.387 . S
C1586 C1585 1.380 . S
C1586 H1595 0.930 . S
C1587 O1564 1.254 . S
C1587 O1565 1.268 . S
H1588 C1573 0.930 . S
H1589 C1574 0.930 . S
H1590 C1576 0.930 . S
H1591 C1577 0.930 . S
H1592 C1582 0.930 . S
H1593 C1583 0.930 . S
H1594 C1585 0.930 . S
H1595 C1586 0.930 . S
Gd1596 N1627 2.661 1_565 S
Gd1596 N1633 2.601 . S
Gd1596 O1640 2.545 . S
Gd1596 O1641 2.606 1_565 S
Gd1596 O1643 2.429 . S
Gd1596 O1644 2.545 . S
Gd1596 O1645 2.412 1_565 S
Gd1596 O1647 2.362 . S
Gd1596 O1648 2.324 1_565 S
Gd1596 C1655 2.828 . S
Gd1597 N1606 2.661 1_545 S
Gd1597 N1610 2.601 . S
Gd1597 O1641 2.362 . S
Gd1597 O1642 2.324 1_545 S
Gd1597 O1646 2.545 . S
Gd1597 O1647 2.606 1_545 S
Gd1597 O1649 2.429 . S
Gd1597 O1650 2.545 . S
Gd1597 O1651 2.412 1_545 S
Gd1597 C1664 2.828 . S
C1598 C1601 1.417 . S
C1598 C1603 1.431 . S
C1598 C1604 1.412 1_545 S
C1599 C1602 1.437 . S
C1599 C1603 1.317 . S
C1599 H1618 0.929 . S
C1600 C1601 1.426 . S
C1600 C1602 1.413 . S
C1600 N1610 1.359 . S
C1601 C1598 1.417 . S
C1601 C1600 1.426 . S
C1601 N1606 1.350 1_545 S
C1602 C1599 1.437 . S
C1602 C1600 1.413 . S
C1602 C1612 1.391 . S
C1603 C1598 1.431 . S
C1603 C1599 1.317 . S
C1603 H1614 0.930 . S
C1604 C1598 1.412 1_565 S
C1604 C1605 1.355 . S
C1604 H1616 0.930 . S
C1605 C1604 1.355 . S
C1605 C1607 1.402 . S
C1605 H1617 0.930 . S
N1606 Gd1597 2.661 1_565 S
N1606 C1601 1.350 1_565 S
N1606 C1607 1.307 . S
C1607 C1605 1.402 . S
C1607 N1606 1.307 . S
C1607 H1608 0.930 . S
H1608 C1607 0.930 . S
C1609 N1610 1.334 . S
C1609 C1611 1.394 . S
C1609 H1613 0.930 . S
N1610 Gd1597 2.601 . S
N1610 C1600 1.359 . S
N1610 C1609 1.334 . S
C1611 C1609 1.394 . S
C1611 C1612 1.359 . S
C1611 H1623 0.930 . S
C1612 C1602 1.391 . S
C1612 C1611 1.359 . S
C1612 H1624 0.929 . S
H1613 C1609 0.930 . S
H1614 C1603 0.930 . S
H1615 C1632 0.930 . S
H1616 C1604 0.930 . S
H1617 C1605 0.930 . S
H1618 C1599 0.929 . S
H1619 C1637 0.930 . S
H1620 C1628 0.930 . S
H1621 C1629 0.930 . S
H1622 C1653 0.929 . S
H1623 C1611 0.930 . S
H1624 C1612 0.929 . S
H1625 C1654 0.930 . S
H1626 C1635 0.930 . S
N1627 Gd1596 2.661 1_545 S
N1627 C1631 1.350 1_545 S
N1627 C1632 1.307 . S
C1628 H1620 0.930 . S
C1628 C1629 1.355 . S
C1628 C1630 1.412 1_545 S
C1629 H1621 0.930 . S
C1629 C1628 1.355 . S
C1629 C1632 1.402 . S
C1630 C1628 1.412 1_565 S
C1630 C1631 1.417 . S
C1630 C1654 1.431 . S
C1631 N1627 1.350 1_565 S
C1631 C1630 1.417 . S
C1631 C1634 1.426 . S
C1632 H1615 0.930 . S
C1632 N1627 1.307 . S
C1632 C1629 1.402 . S
N1633 Gd1596 2.601 . S
N1633 C1634 1.359 . S
N1633 C1637 1.334 . S
C1634 C1631 1.426 . S
C1634 N1633 1.359 . S
C1634 C1638 1.413 . S
C1635 H1626 0.930 . S
C1635 C1636 1.359 . S
C1635 C1637 1.394 . S
C1636 C1635 1.359 . S
C1636 C1638 1.391 . S
C1636 H1639 0.929 . S
C1637 H1619 0.930 . S
C1637 N1633 1.334 . S
C1637 C1635 1.394 . S
C1638 C1634 1.413 . S
C1638 C1636 1.391 . S
C1638 C1653 1.437 . S
H1639 C1636 0.929 . S
O1640 Gd1596 2.545 . S
O1640 C1655 1.258 . S
O1641 Gd1596 2.606 1_545 S
O1641 Gd1597 2.362 . S
O1641 C1652 1.285 . S
O1642 Gd1597 2.324 1_565 S
O1642 C1662 1.254 . S
O1643 Gd1596 2.429 . S
O1643 C1662 1.268 . S
O1644 Gd1596 2.545 . S
O1644 C1652 1.248 1_565 S
O1645 Gd1596 2.412 1_545 S
O1645 C1655 1.252 1_545 S
O1646 Gd1597 2.545 . S
O1646 C1664 1.258 . S
O1647 Gd1596 2.362 . S
O1647 Gd1597 2.606 1_565 S
O1647 C1663 1.285 1_565 S
O1648 Gd1596 2.324 1_545 S
O1648 C1671 1.254 . S
O1649 Gd1597 2.429 . S
O1649 C1671 1.268 . S
O1650 Gd1597 2.545 . S
O1650 C1663 1.248 . S
O1651 Gd1597 2.412 1_565 S
O1651 C1664 1.252 1_565 S
C1652 O1641 1.285 . S
C1652 O1644 1.248 1_545 S
C1653 H1622 0.929 . S
C1653 C1638 1.437 . S
C1653 C1654 1.317 . S
C1654 H1625 0.930 . S
C1654 C1630 1.431 . S
C1654 C1653 1.317 . S
C1655 Gd1596 2.828 . S
C1655 O1640 1.258 . S
C1655 O1645 1.252 1_565 S
C1655 C1656 1.497 . S
C1656 C1655 1.497 . S
C1656 C1657 1.395 . S
C1656 C1658 1.380 1_565 S
C1657 C1656 1.395 . S
C1657 C1660 1.398 . S
C1657 H1672 0.930 . S
C1658 C1656 1.380 1_545 S
C1658 C1659 1.391 . S
C1658 H1673 0.930 . S
C1659 C1658 1.391 . S
C1659 C1661 1.387 1_545 S
C1660 C1657 1.398 . S
C1660 C1661 1.380 . S
C1660 H1674 0.930 . S
C1661 C1659 1.387 1_565 S
C1661 C1660 1.380 . S
C1661 H1675 0.930 . S
C1662 O1642 1.254 . S
C1662 O1643 1.268 . S
C1663 O1647 1.285 1_545 S
C1663 O1650 1.248 . S
C1664 Gd1597 2.828 . S
C1664 O1646 1.258 . S
C1664 O1651 1.252 1_545 S
C1664 C1665 1.497 . S
C1665 C1664 1.497 . S
C1665 C1666 1.395 . S
C1665 C1667 1.380 1_545 S
C1666 C1665 1.395 . S
C1666 C1669 1.398 . S
C1666 H1676 0.930 . S
C1667 C1665 1.380 1_565 S
C1667 C1668 1.394 . S
C1667 H1677 0.930 . S
C1668 C1667 1.394 . S
C1668 C1670 1.337 1_565 S
C1669 C1666 1.398 . S
C1669 C1670 1.380 . S
C1669 H1678 0.930 . S
C1670 C1668 1.337 1_545 S
C1670 C1669 1.380 . S
C1670 H1679 0.930 . S
C1671 O1648 1.254 . S
C1671 O1649 1.268 . S
H1672 C1657 0.930 . S
H1673 C1658 0.930 . S
H1674 C1660 0.930 . S
H1675 C1661 0.930 . S
H1676 C1666 0.930 . S
H1677 C1667 0.930 . S
H1678 C1669 0.930 . S
H1679 C1670 0.930 . S
Gd1680 N1711 2.661 1_565 S
Gd1680 N1717 2.601 . S
Gd1680 O1724 2.545 . S
Gd1680 O1725 2.606 1_565 S
Gd1680 O1727 2.429 . S
Gd1680 O1728 2.545 . S
Gd1680 O1729 2.412 1_565 S
Gd1680 O1731 2.362 . S
Gd1680 O1732 2.324 1_565 S
Gd1680 C1739 2.828 . S
Gd1681 N1690 2.661 1_545 S
Gd1681 N1694 2.601 . S
Gd1681 O1725 2.362 . S
Gd1681 O1726 2.324 1_545 S
Gd1681 O1730 2.545 . S
Gd1681 O1731 2.606 1_545 S
Gd1681 O1733 2.429 . S
Gd1681 O1734 2.545 . S
Gd1681 O1735 2.412 1_545 S
Gd1681 C1748 2.828 . S
C1682 C1685 1.417 . S
C1682 C1687 1.431 . S
C1682 C1688 1.412 1_545 S
C1683 C1686 1.437 . S
C1683 C1687 1.317 . S
C1683 H1702 0.929 . S
C1684 C1685 1.426 . S
C1684 C1686 1.413 . S
C1684 N1694 1.359 . S
C1685 C1682 1.417 . S
C1685 C1684 1.426 . S
C1685 N1690 1.350 1_545 S
C1686 C1683 1.437 . S
C1686 C1684 1.413 . S
C1686 C1696 1.391 . S
C1687 C1682 1.431 . S
C1687 C1683 1.317 . S
C1687 H1698 0.930 . S
C1688 C1682 1.412 1_565 S
C1688 C1689 1.355 . S
C1688 H1700 0.930 . S
C1689 C1688 1.355 . S
C1689 C1691 1.402 . S
C1689 H1701 0.930 . S
N1690 Gd1681 2.661 1_565 S
N1690 C1685 1.350 1_565 S
N1690 C1691 1.307 . S
C1691 C1689 1.402 . S
C1691 N1690 1.307 . S
C1691 H1692 0.930 . S
H1692 C1691 0.930 . S
C1693 N1694 1.334 . S
C1693 C1695 1.394 . S
C1693 H1697 0.930 . S
N1694 Gd1681 2.601 . S
N1694 C1684 1.359 . S
N1694 C1693 1.334 . S
C1695 C1693 1.394 . S
C1695 C1696 1.359 . S
C1695 H1707 0.930 . S
C1696 C1686 1.391 . S
C1696 C1695 1.359 . S
C1696 H1708 0.929 . S
H1697 C1693 0.930 . S
H1698 C1687 0.930 . S
H1699 C1716 0.930 . S
H1700 C1688 0.930 . S
H1701 C1689 0.930 . S
H1702 C1683 0.929 . S
H1703 C1721 0.930 . S
H1704 C1712 0.930 . S
H1705 C1713 0.930 . S
H1706 C1737 0.929 . S
H1707 C1695 0.930 . S
H1708 C1696 0.929 . S
H1709 C1738 0.930 . S
H1710 C1719 0.930 . S
N1711 Gd1680 2.661 1_545 S
N1711 C1715 1.350 1_545 S
N1711 C1716 1.307 . S
C1712 H1704 0.930 . S
C1712 C1713 1.355 . S
C1712 C1714 1.412 1_545 S
C1713 H1705 0.930 . S
C1713 C1712 1.355 . S
C1713 C1716 1.402 . S
C1714 C1712 1.412 1_565 S
C1714 C1715 1.417 . S
C1714 C1738 1.431 . S
C1715 N1711 1.350 1_565 S
C1715 C1714 1.417 . S
C1715 C1718 1.426 . S
C1716 H1699 0.930 . S
C1716 N1711 1.307 . S
C1716 C1713 1.402 . S
N1717 Gd1680 2.601 . S
N1717 C1718 1.359 . S
N1717 C1721 1.334 . S
C1718 C1715 1.426 . S
C1718 N1717 1.359 . S
C1718 C1722 1.413 . S
C1719 H1710 0.930 . S
C1719 C1720 1.359 . S
C1719 C1721 1.394 . S
C1720 C1719 1.359 . S
C1720 C1722 1.391 . S
C1720 H1723 0.929 . S
C1721 H1703 0.930 . S
C1721 N1717 1.334 . S
C1721 C1719 1.394 . S
C1722 C1718 1.413 . S
C1722 C1720 1.391 . S
C1722 C1737 1.437 . S
H1723 C1720 0.929 . S
O1724 Gd1680 2.545 . S
O1724 C1739 1.258 . S
O1725 Gd1680 2.606 1_545 S
O1725 Gd1681 2.362 . S
O1725 C1736 1.285 1_545 S
O1726 Gd1681 2.324 1_565 S
O1726 C1746 1.254 . S
O1727 Gd1680 2.429 . S
O1727 C1746 1.268 . S
O1728 Gd1680 2.545 . S
O1728 C1736 1.248 . S
O1729 Gd1680 2.412 1_545 S
O1729 C1739 1.252 1_545 S
O1730 Gd1681 2.545 . S
O1730 C1748 1.258 . S
O1731 Gd1680 2.362 . S
O1731 Gd1681 2.606 1_565 S
O1731 C1747 1.285 . S
O1732 Gd1680 2.324 1_545 S
O1732 C1755 1.254 . S
O1733 Gd1681 2.429 . S
O1733 C1755 1.268 . S
O1734 Gd1681 2.545 . S
O1734 C1747 1.248 1_545 S
O1735 Gd1681 2.412 1_565 S
O1735 C1748 1.252 1_565 S
C1736 O1725 1.285 1_565 S
C1736 O1728 1.248 . S
C1737 H1706 0.929 . S
C1737 C1722 1.437 . S
C1737 C1738 1.317 . S
C1738 H1709 0.930 . S
C1738 C1714 1.431 . S
C1738 C1737 1.317 . S
C1739 Gd1680 2.828 . S
C1739 O1724 1.258 . S
C1739 O1729 1.252 1_565 S
C1739 C1740 1.497 . S
C1740 C1739 1.497 . S
C1740 C1741 1.395 . S
C1740 C1742 1.380 1_565 S
C1741 C1740 1.395 . S
C1741 C1744 1.398 . S
C1741 H1756 0.930 . S
C1742 C1740 1.380 1_545 S
C1742 C1743 1.394 . S
C1742 H1757 0.930 . S
C1743 C1742 1.394 . S
C1743 C1745 1.337 1_545 S
C1744 C1741 1.398 . S
C1744 C1745 1.380 . S
C1744 H1758 0.930 . S
C1745 C1743 1.337 1_565 S
C1745 C1744 1.380 . S
C1745 H1759 0.930 . S
C1746 O1726 1.254 . S
C1746 O1727 1.268 . S
C1747 O1731 1.285 . S
C1747 O1734 1.248 1_565 S
C1748 Gd1681 2.828 . S
C1748 O1730 1.258 . S
C1748 O1735 1.252 1_545 S
C1748 C1749 1.497 . S
C1749 C1748 1.497 . S
C1749 C1750 1.395 . S
C1749 C1751 1.380 1_545 S
C1750 C1749 1.395 . S
C1750 C1753 1.398 . S
C1750 H1760 0.930 . S
C1751 C1749 1.380 1_565 S
C1751 C1752 1.391 . S
C1751 H1761 0.930 . S
C1752 C1751 1.391 . S
C1752 C1754 1.387 1_565 S
C1753 C1750 1.398 . S
C1753 C1754 1.380 . S
C1753 H1762 0.930 . S
C1754 C1752 1.387 1_545 S
C1754 C1753 1.380 . S
C1754 H1763 0.930 . S
C1755 O1732 1.254 . S
C1755 O1733 1.268 . S
H1756 C1741 0.930 . S
H1757 C1742 0.930 . S
H1758 C1744 0.930 . S
H1759 C1745 0.930 . S
H1760 C1750 0.930 . S
H1761 C1751 0.930 . S
H1762 C1753 0.930 . S
H1763 C1754 0.930 . S
Gd1764 N1795 2.661 . S
Gd1764 N1801 2.601 . S
Gd1764 O1808 2.545 . S
Gd1764 O1809 2.606 . S
Gd1764 O1811 2.429 . S
Gd1764 O1812 2.545 . S
Gd1764 O1813 2.412 . S
Gd1764 O1815 2.362 . S
Gd1764 O1816 2.324 . S
Gd1764 C1823 2.828 . S
Gd1765 N1774 2.661 . S
Gd1765 N1778 2.601 . S
Gd1765 O1809 2.362 . S
Gd1765 O1810 2.324 . S
Gd1765 O1814 2.545 . S
Gd1765 O1815 2.606 . S
Gd1765 O1817 2.429 . S
Gd1765 O1818 2.545 . S
Gd1765 O1819 2.412 . S
Gd1765 C1832 2.828 . S
C1766 C1769 1.417 . S
C1766 C1771 1.431 . S
C1766 C1772 1.412 . S
C1767 C1770 1.437 . S
C1767 C1771 1.317 . S
C1767 H1786 0.929 . S
C1768 C1769 1.426 . S
C1768 C1770 1.413 . S
C1768 N1778 1.359 . S
C1769 C1766 1.417 . S
C1769 C1768 1.426 . S
C1769 N1774 1.350 . S
C1770 C1767 1.437 . S
C1770 C1768 1.413 . S
C1770 C1780 1.391 . S
C1771 C1766 1.431 . S
C1771 C1767 1.317 . S
C1771 H1782 0.930 . S
C1772 C1766 1.412 . S
C1772 C1773 1.355 . S
C1772 H1784 0.930 . S
C1773 C1772 1.355 . S
C1773 C1775 1.402 . S
C1773 H1785 0.930 . S
N1774 Gd1765 2.661 . S
N1774 C1769 1.350 . S
N1774 C1775 1.307 . S
C1775 C1773 1.402 . S
C1775 N1774 1.307 . S
C1775 H1776 0.930 . S
H1776 C1775 0.930 . S
C1777 N1778 1.334 . S
C1777 C1779 1.394 . S
C1777 H1781 0.930 . S
N1778 Gd1765 2.601 . S
N1778 C1768 1.359 . S
N1778 C1777 1.334 . S
C1779 C1777 1.394 . S
C1779 C1780 1.359 . S
C1779 H1791 0.930 . S
C1780 C1770 1.391 . S
C1780 C1779 1.359 . S
C1780 H1792 0.929 . S
H1781 C1777 0.930 . S
H1782 C1771 0.930 . S
H1783 C1800 0.930 . S
H1784 C1772 0.930 . S
H1785 C1773 0.930 . S
H1786 C1767 0.929 . S
H1787 C1805 0.930 . S
H1788 C1796 0.930 . S
H1789 C1797 0.930 . S
H1790 C1821 0.929 . S
H1791 C1779 0.930 . S
H1792 C1780 0.929 . S
H1793 C1822 0.930 . S
H1794 C1803 0.930 . S
N1795 Gd1764 2.661 . S
N1795 C1799 1.350 . S
N1795 C1800 1.307 . S
C1796 H1788 0.930 . S
C1796 C1797 1.355 . S
C1796 C1798 1.412 . S
C1797 H1789 0.930 . S
C1797 C1796 1.355 . S
C1797 C1800 1.402 . S
C1798 C1796 1.412 . S
C1798 C1799 1.417 . S
C1798 C1822 1.431 . S
C1799 N1795 1.350 . S
C1799 C1798 1.417 . S
C1799 C1802 1.426 . S
C1800 H1783 0.930 . S
C1800 N1795 1.307 . S
C1800 C1797 1.402 . S
N1801 Gd1764 2.601 . S
N1801 C1802 1.359 . S
N1801 C1805 1.334 . S
C1802 C1799 1.426 . S
C1802 N1801 1.359 . S
C1802 C1806 1.413 . S
C1803 H1794 0.930 . S
C1803 C1804 1.359 . S
C1803 C1805 1.394 . S
C1804 C1803 1.359 . S
C1804 C1806 1.391 . S
C1804 H1807 0.929 . S
C1805 H1787 0.930 . S
C1805 N1801 1.334 . S
C1805 C1803 1.394 . S
C1806 C1802 1.413 . S
C1806 C1804 1.391 . S
C1806 C1821 1.437 . S
H1807 C1804 0.929 . S
O1808 Gd1764 2.545 . S
O1808 C1823 1.258 . S
O1809 Gd1764 2.606 . S
O1809 Gd1765 2.362 . S
O1809 C1820 1.284 . S
O1810 Gd1765 2.324 . S
O1810 C1830 1.254 . S
O1811 Gd1764 2.429 . S
O1811 C1830 1.268 . S
O1812 Gd1764 2.545 . S
O1812 C1820 1.250 . S
O1813 Gd1764 2.412 . S
O1813 C1823 1.252 . S
O1814 Gd1765 2.545 . S
O1814 C1832 1.258 . S
O1815 Gd1764 2.362 . S
O1815 Gd1765 2.606 . S
O1815 C1831 1.284 . S
O1816 Gd1764 2.324 . S
O1816 C1839 1.254 . S
O1817 Gd1765 2.429 . S
O1817 C1839 1.268 . S
O1818 Gd1765 2.545 . S
O1818 C1831 1.250 . S
O1819 Gd1765 2.412 . S
O1819 C1832 1.252 . S
C1820 O1809 1.284 . S
C1820 O1812 1.250 . S
C1821 H1790 0.929 . S
C1821 C1806 1.437 . S
C1821 C1822 1.317 . S
C1822 H1793 0.930 . S
C1822 C1798 1.431 . S
C1822 C1821 1.317 . S
C1823 Gd1764 2.828 . S
C1823 O1808 1.258 . S
C1823 O1813 1.252 . S
C1823 C1824 1.497 . S
C1824 C1823 1.497 . S
C1824 C1825 1.395 . S
C1824 C1826 1.380 . S
C1825 C1824 1.395 . S
C1825 C1828 1.398 . S
C1825 H1840 0.930 . S
C1826 C1824 1.380 . S
C1826 C1827 1.391 . S
C1826 H1841 0.930 . S
C1827 C1826 1.391 . S
C1827 C1829 1.387 . S
C1828 C1825 1.398 . S
C1828 C1829 1.380 . S
C1828 H1842 0.930 . S
C1829 C1827 1.387 . S
C1829 C1828 1.380 . S
C1829 H1843 0.930 . S
C1830 O1810 1.254 . S
C1830 O1811 1.268 . S
C1831 O1815 1.284 . S
C1831 O1818 1.250 . S
C1832 Gd1765 2.828 . S
C1832 O1814 1.258 . S
C1832 O1819 1.252 . S
C1832 C1833 1.497 . S
C1833 C1832 1.497 . S
C1833 C1834 1.395 . S
C1833 C1835 1.380 . S
C1834 C1833 1.395 . S
C1834 C1837 1.398 . S
C1834 H1844 0.930 . S
C1835 C1833 1.380 . S
C1835 C1836 1.391 . S
C1835 H1845 0.930 . S
C1836 C1835 1.391 . S
C1836 C1838 1.387 . S
C1837 C1834 1.398 . S
C1837 C1838 1.380 . S
C1837 H1846 0.930 . S
C1838 C1836 1.387 . S
C1838 C1837 1.380 . S
C1838 H1847 0.930 . S
C1839 O1816 1.254 . S
C1839 O1817 1.268 . S
H1840 C1825 0.930 . S
H1841 C1826 0.930 . S
H1842 C1828 0.930 . S
H1843 C1829 0.930 . S
H1844 C1834 0.930 . S
H1845 C1835 0.930 . S
H1846 C1837 0.930 . S
H1847 C1838 0.930 . S
Gd1848 N1879 2.661 . S
Gd1848 N1885 2.601 . S
Gd1848 O1892 2.545 . S
Gd1848 O1893 2.606 . S
Gd1848 O1895 2.429 . S
Gd1848 O1896 2.545 . S
Gd1848 O1897 2.412 . S
Gd1848 O1899 2.362 . S
Gd1848 O1900 2.324 . S
Gd1848 C1907 2.828 . S
Gd1849 N1858 2.661 . S
Gd1849 N1862 2.601 . S
Gd1849 O1893 2.362 . S
Gd1849 O1894 2.324 . S
Gd1849 O1898 2.545 . S
Gd1849 O1899 2.606 . S
Gd1849 O1901 2.429 . S
Gd1849 O1902 2.545 . S
Gd1849 O1903 2.412 . S
Gd1849 C1916 2.828 . S
C1850 C1853 1.417 . S
C1850 C1855 1.431 . S
C1850 C1856 1.412 . S
C1851 C1854 1.437 . S
C1851 C1855 1.317 . S
C1851 H1870 0.929 . S
C1852 C1853 1.426 . S
C1852 C1854 1.413 . S
C1852 N1862 1.359 . S
C1853 C1850 1.417 . S
C1853 C1852 1.426 . S
C1853 N1858 1.350 . S
C1854 C1851 1.437 . S
C1854 C1852 1.413 . S
C1854 C1864 1.391 . S
C1855 C1850 1.431 . S
C1855 C1851 1.317 . S
C1855 H1866 0.930 . S
C1856 C1850 1.412 . S
C1856 C1857 1.355 . S
C1856 H1868 0.930 . S
C1857 C1856 1.355 . S
C1857 C1859 1.402 . S
C1857 H1869 0.930 . S
N1858 Gd1849 2.661 . S
N1858 C1853 1.350 . S
N1858 C1859 1.307 . S
C1859 C1857 1.402 . S
C1859 N1858 1.307 . S
C1859 H1860 0.930 . S
H1860 C1859 0.930 . S
C1861 N1862 1.334 . S
C1861 C1863 1.394 . S
C1861 H1865 0.930 . S
N1862 Gd1849 2.601 . S
N1862 C1852 1.359 . S
N1862 C1861 1.334 . S
C1863 C1861 1.394 . S
C1863 C1864 1.359 . S
C1863 H1875 0.930 . S
C1864 C1854 1.391 . S
C1864 C1863 1.359 . S
C1864 H1876 0.929 . S
H1865 C1861 0.930 . S
H1866 C1855 0.930 . S
H1867 C1884 0.930 . S
H1868 C1856 0.930 . S
H1869 C1857 0.930 . S
H1870 C1851 0.929 . S
H1871 C1889 0.930 . S
H1872 C1880 0.930 . S
H1873 C1881 0.930 . S
H1874 C1905 0.929 . S
H1875 C1863 0.930 . S
H1876 C1864 0.929 . S
H1877 C1906 0.930 . S
H1878 C1887 0.930 . S
N1879 Gd1848 2.661 . S
N1879 C1883 1.350 . S
N1879 C1884 1.307 . S
C1880 H1872 0.930 . S
C1880 C1881 1.355 . S
C1880 C1882 1.412 . S
C1881 H1873 0.930 . S
C1881 C1880 1.355 . S
C1881 C1884 1.402 . S
C1882 C1880 1.412 . S
C1882 C1883 1.417 . S
C1882 C1906 1.431 . S
C1883 N1879 1.350 . S
C1883 C1882 1.417 . S
C1883 C1886 1.426 . S
C1884 H1867 0.930 . S
C1884 N1879 1.307 . S
C1884 C1881 1.402 . S
N1885 Gd1848 2.601 . S
N1885 C1886 1.359 . S
N1885 C1889 1.334 . S
C1886 C1883 1.426 . S
C1886 N1885 1.359 . S
C1886 C1890 1.413 . S
C1887 H1878 0.930 . S
C1887 C1888 1.359 . S
C1887 C1889 1.394 . S
C1888 C1887 1.359 . S
C1888 C1890 1.391 . S
C1888 H1891 0.929 . S
C1889 H1871 0.930 . S
C1889 N1885 1.334 . S
C1889 C1887 1.394 . S
C1890 C1886 1.413 . S
C1890 C1888 1.391 . S
C1890 C1905 1.437 . S
H1891 C1888 0.929 . S
O1892 Gd1848 2.545 . S
O1892 C1907 1.258 . S
O1893 Gd1848 2.606 . S
O1893 Gd1849 2.362 . S
O1893 C1904 1.284 . S
O1894 Gd1849 2.324 . S
O1894 C1914 1.254 . S
O1895 Gd1848 2.429 . S
O1895 C1914 1.268 . S
O1896 Gd1848 2.545 . S
O1896 C1904 1.250 . S
O1897 Gd1848 2.412 . S
O1897 C1907 1.252 . S
O1898 Gd1849 2.545 . S
O1898 C1916 1.258 . S
O1899 Gd1848 2.362 . S
O1899 Gd1849 2.606 . S
O1899 C1915 1.284 . S
O1900 Gd1848 2.324 . S
O1900 C1923 1.254 . S
O1901 Gd1849 2.429 . S
O1901 C1923 1.268 . S
O1902 Gd1849 2.545 . S
O1902 C1915 1.250 . S
O1903 Gd1849 2.412 . S
O1903 C1916 1.252 . S
C1904 O1893 1.284 . S
C1904 O1896 1.250 . S
C1905 H1874 0.929 . S
C1905 C1890 1.437 . S
C1905 C1906 1.317 . S
C1906 H1877 0.930 . S
C1906 C1882 1.431 . S
C1906 C1905 1.317 . S
C1907 Gd1848 2.828 . S
C1907 O1892 1.258 . S
C1907 O1897 1.252 . S
C1907 C1908 1.497 . S
C1908 C1907 1.497 . S
C1908 C1909 1.395 . S
C1908 C1910 1.380 . S
C1909 C1908 1.395 . S
C1909 C1912 1.398 . S
C1909 H1924 0.930 . S
C1910 C1908 1.380 . S
C1910 C1911 1.391 . S
C1910 H1925 0.930 . S
C1911 C1910 1.391 . S
C1911 C1913 1.387 . S
C1912 C1909 1.398 . S
C1912 C1913 1.380 . S
C1912 H1926 0.930 . S
C1913 C1911 1.387 . S
C1913 C1912 1.380 . S
C1913 H1927 0.930 . S
C1914 O1894 1.254 . S
C1914 O1895 1.268 . S
C1915 O1899 1.284 . S
C1915 O1902 1.250 . S
C1916 Gd1849 2.828 . S
C1916 O1898 1.258 . S
C1916 O1903 1.252 . S
C1916 C1917 1.497 . S
C1917 C1916 1.497 . S
C1917 C1918 1.395 . S
C1917 C1919 1.380 . S
C1918 C1917 1.395 . S
C1918 C1921 1.398 . S
C1918 H1928 0.930 . S
C1919 C1917 1.380 . S
C1919 C1920 1.391 . S
C1919 H1929 0.930 . S
C1920 C1919 1.391 . S
C1920 C1922 1.387 . S
C1921 C1918 1.398 . S
C1921 C1922 1.380 . S
C1921 H1930 0.930 . S
C1922 C1920 1.387 . S
C1922 C1921 1.380 . S
C1922 H1931 0.930 . S
C1923 O1900 1.254 . S
C1923 O1901 1.268 . S
H1924 C1909 0.930 . S
H1925 C1910 0.930 . S
H1926 C1912 0.930 . S
H1927 C1913 0.930 . S
H1928 C1918 0.930 . S
H1929 C1919 0.930 . S
H1930 C1921 0.930 . S
H1931 C1922 0.930 . S
Gd1932 N1963 2.661 1_565 S
Gd1932 N1969 2.601 . S
Gd1932 O1976 2.545 . S
Gd1932 O1977 2.606 1_565 S
Gd1932 O1979 2.429 . S
Gd1932 O1980 2.545 . S
Gd1932 O1981 2.412 1_565 S
Gd1932 O1983 2.362 . S
Gd1932 O1984 2.324 1_565 S
Gd1932 C1991 2.828 . S
Gd1933 N1942 2.661 1_545 S
Gd1933 N1946 2.601 . S
Gd1933 O1977 2.362 . S
Gd1933 O1978 2.324 1_545 S
Gd1933 O1982 2.545 . S
Gd1933 O1983 2.606 1_545 S
Gd1933 O1985 2.429 . S
Gd1933 O1986 2.545 . S
Gd1933 O1987 2.412 1_545 S
Gd1933 C2000 2.828 . S
C1934 C1937 1.417 . S
C1934 C1939 1.431 . S
C1934 C1940 1.412 1_545 S
C1935 C1938 1.437 . S
C1935 C1939 1.317 . S
C1935 H1954 0.929 . S
C1936 C1937 1.426 . S
C1936 C1938 1.413 . S
C1936 N1946 1.359 . S
C1937 C1934 1.417 . S
C1937 C1936 1.426 . S
C1937 N1942 1.350 1_545 S
C1938 C1935 1.437 . S
C1938 C1936 1.413 . S
C1938 C1948 1.391 . S
C1939 C1934 1.431 . S
C1939 C1935 1.317 . S
C1939 H1950 0.930 . S
C1940 C1934 1.412 1_565 S
C1940 C1941 1.355 . S
C1940 H1952 0.930 . S
C1941 C1940 1.355 . S
C1941 C1943 1.402 . S
C1941 H1953 0.930 . S
N1942 Gd1933 2.661 1_565 S
N1942 C1937 1.350 1_565 S
N1942 C1943 1.307 . S
C1943 C1941 1.402 . S
C1943 N1942 1.307 . S
C1943 H1944 0.930 . S
H1944 C1943 0.930 . S
C1945 N1946 1.334 . S
C1945 C1947 1.394 . S
C1945 H1949 0.930 . S
N1946 Gd1933 2.601 . S
N1946 C1936 1.359 . S
N1946 C1945 1.334 . S
C1947 C1945 1.394 . S
C1947 C1948 1.359 . S
C1947 H1959 0.930 . S
C1948 C1938 1.391 . S
C1948 C1947 1.359 . S
C1948 H1960 0.929 . S
H1949 C1945 0.930 . S
H1950 C1939 0.930 . S
H1951 C1968 0.930 . S
H1952 C1940 0.930 . S
H1953 C1941 0.930 . S
H1954 C1935 0.929 . S
H1955 C1973 0.930 . S
H1956 C1964 0.930 . S
H1957 C1965 0.930 . S
H1958 C1989 0.929 . S
H1959 C1947 0.930 . S
H1960 C1948 0.929 . S
H1961 C1990 0.930 . S
H1962 C1971 0.930 . S
N1963 Gd1932 2.661 1_545 S
N1963 C1967 1.350 1_545 S
N1963 C1968 1.307 . S
C1964 H1956 0.930 . S
C1964 C1965 1.355 . S
C1964 C1966 1.412 1_545 S
C1965 H1957 0.930 . S
C1965 C1964 1.355 . S
C1965 C1968 1.402 . S
C1966 C1964 1.412 1_565 S
C1966 C1967 1.417 . S
C1966 C1990 1.431 . S
C1967 N1963 1.350 1_565 S
C1967 C1966 1.417 . S
C1967 C1970 1.426 . S
C1968 H1951 0.930 . S
C1968 N1963 1.307 . S
C1968 C1965 1.402 . S
N1969 Gd1932 2.601 . S
N1969 C1970 1.359 . S
N1969 C1973 1.334 . S
C1970 C1967 1.426 . S
C1970 N1969 1.359 . S
C1970 C1974 1.413 . S
C1971 H1962 0.930 . S
C1971 C1972 1.359 . S
C1971 C1973 1.394 . S
C1972 C1971 1.359 . S
C1972 C1974 1.391 . S
C1972 H1975 0.929 . S
C1973 H1955 0.930 . S
C1973 N1969 1.334 . S
C1973 C1971 1.394 . S
C1974 C1970 1.413 . S
C1974 C1972 1.391 . S
C1974 C1989 1.437 . S
H1975 C1972 0.929 . S
O1976 Gd1932 2.545 . S
O1976 C1991 1.258 . S
O1977 Gd1932 2.606 1_545 S
O1977 Gd1933 2.362 . S
O1977 C1988 1.285 1_545 S
O1978 Gd1933 2.324 1_565 S
O1978 C1998 1.254 . S
O1979 Gd1932 2.429 . S
O1979 C1998 1.268 . S
O1980 Gd1932 2.545 . S
O1980 C1988 1.248 . S
O1981 Gd1932 2.412 1_545 S
O1981 C1991 1.252 1_545 S
O1982 Gd1933 2.545 . S
O1982 C2000 1.258 . S
O1983 Gd1932 2.362 . S
O1983 Gd1933 2.606 1_565 S
O1983 C1999 1.285 . S
O1984 Gd1932 2.324 1_545 S
O1984 C2007 1.254 . S
O1985 Gd1933 2.429 . S
O1985 C2007 1.268 . S
O1986 Gd1933 2.545 . S
O1986 C1999 1.248 1_545 S
O1987 Gd1933 2.412 1_565 S
O1987 C2000 1.252 1_565 S
C1988 O1977 1.285 1_565 S
C1988 O1980 1.248 . S
C1989 H1958 0.929 . S
C1989 C1974 1.437 . S
C1989 C1990 1.317 . S
C1990 H1961 0.930 . S
C1990 C1966 1.431 . S
C1990 C1989 1.317 . S
C1991 Gd1932 2.828 . S
C1991 O1976 1.258 . S
C1991 O1981 1.252 1_565 S
C1991 C1992 1.497 . S
C1992 C1991 1.497 . S
C1992 C1993 1.395 . S
C1992 C1994 1.380 1_565 S
C1993 C1992 1.395 . S
C1993 C1996 1.398 . S
C1993 H2008 0.930 . S
C1994 C1992 1.380 1_545 S
C1994 C1995 1.394 . S
C1994 H2009 0.930 . S
C1995 C1994 1.394 . S
C1995 C1997 1.337 1_545 S
C1996 C1993 1.398 . S
C1996 C1997 1.380 . S
C1996 H2010 0.930 . S
C1997 C1995 1.337 1_565 S
C1997 C1996 1.380 . S
C1997 H2011 0.930 . S
C1998 O1978 1.254 . S
C1998 O1979 1.268 . S
C1999 O1983 1.285 . S
C1999 O1986 1.248 1_565 S
C2000 Gd1933 2.828 . S
C2000 O1982 1.258 . S
C2000 O1987 1.252 1_545 S
C2000 C2001 1.497 . S
C2001 C2000 1.497 . S
C2001 C2002 1.395 . S
C2001 C2003 1.380 1_545 S
C2002 C2001 1.395 . S
C2002 C2005 1.398 . S
C2002 H2012 0.930 . S
C2003 C2001 1.380 1_565 S
C2003 C2004 1.391 . S
C2003 H2013 0.930 . S
C2004 C2003 1.391 . S
C2004 C2006 1.387 1_565 S
C2005 C2002 1.398 . S
C2005 C2006 1.380 . S
C2005 H2014 0.930 . S
C2006 C2004 1.387 1_545 S
C2006 C2005 1.380 . S
C2006 H2015 0.930 . S
C2007 O1984 1.254 . S
C2007 O1985 1.268 . S
H2008 C1993 0.930 . S
H2009 C1994 0.930 . S
H2010 C1996 0.930 . S
H2011 C1997 0.930 . S
H2012 C2002 0.930 . S
H2013 C2003 0.930 . S
H2014 C2005 0.930 . S
H2015 C2006 0.930 . S
Gd2016 N2047 2.661 . S
Gd2016 N2053 2.601 . S
Gd2016 O2060 2.545 . S
Gd2016 O2061 2.606 . S
Gd2016 O2063 2.429 . S
Gd2016 O2064 2.545 . S
Gd2016 O2065 2.412 . S
Gd2016 O2067 2.362 . S
Gd2016 O2068 2.324 . S
Gd2016 C2075 2.828 . S
Gd2017 N2026 2.661 . S
Gd2017 N2030 2.601 . S
Gd2017 O2061 2.362 . S
Gd2017 O2062 2.324 . S
Gd2017 O2066 2.545 . S
Gd2017 O2067 2.606 . S
Gd2017 O2069 2.429 . S
Gd2017 O2070 2.545 . S
Gd2017 O2071 2.412 . S
Gd2017 C2084 2.828 . S
C2018 C2021 1.417 . S
C2018 C2023 1.431 . S
C2018 C2024 1.412 . S
C2019 C2022 1.437 . S
C2019 C2023 1.317 . S
C2019 H2038 0.929 . S
C2020 C2021 1.426 . S
C2020 C2022 1.413 . S
C2020 N2030 1.359 . S
C2021 C2018 1.417 . S
C2021 C2020 1.426 . S
C2021 N2026 1.350 . S
C2022 C2019 1.437 . S
C2022 C2020 1.413 . S
C2022 C2032 1.391 . S
C2023 C2018 1.431 . S
C2023 C2019 1.317 . S
C2023 H2034 0.930 . S
C2024 C2018 1.412 . S
C2024 C2025 1.355 . S
C2024 H2036 0.930 . S
C2025 C2024 1.355 . S
C2025 C2027 1.402 . S
C2025 H2037 0.930 . S
N2026 Gd2017 2.661 . S
N2026 C2021 1.350 . S
N2026 C2027 1.307 . S
C2027 C2025 1.402 . S
C2027 N2026 1.307 . S
C2027 H2028 0.930 . S
H2028 C2027 0.930 . S
C2029 N2030 1.334 . S
C2029 C2031 1.394 . S
C2029 H2033 0.930 . S
N2030 Gd2017 2.601 . S
N2030 C2020 1.359 . S
N2030 C2029 1.334 . S
C2031 C2029 1.394 . S
C2031 C2032 1.359 . S
C2031 H2043 0.930 . S
C2032 C2022 1.391 . S
C2032 C2031 1.359 . S
C2032 H2044 0.929 . S
H2033 C2029 0.930 . S
H2034 C2023 0.930 . S
H2035 C2052 0.930 . S
H2036 C2024 0.930 . S
H2037 C2025 0.930 . S
H2038 C2019 0.929 . S
H2039 C2057 0.930 . S
H2040 C2048 0.930 . S
H2041 C2049 0.930 . S
H2042 C2073 0.929 . S
H2043 C2031 0.930 . S
H2044 C2032 0.929 . S
H2045 C2074 0.930 . S
H2046 C2055 0.930 . S
N2047 Gd2016 2.661 . S
N2047 C2051 1.350 . S
N2047 C2052 1.307 . S
C2048 H2040 0.930 . S
C2048 C2049 1.355 . S
C2048 C2050 1.412 . S
C2049 H2041 0.930 . S
C2049 C2048 1.355 . S
C2049 C2052 1.402 . S
C2050 C2048 1.412 . S
C2050 C2051 1.417 . S
C2050 C2074 1.431 . S
C2051 N2047 1.350 . S
C2051 C2050 1.417 . S
C2051 C2054 1.426 . S
C2052 H2035 0.930 . S
C2052 N2047 1.307 . S
C2052 C2049 1.402 . S
N2053 Gd2016 2.601 . S
N2053 C2054 1.359 . S
N2053 C2057 1.334 . S
C2054 C2051 1.426 . S
C2054 N2053 1.359 . S
C2054 C2058 1.413 . S
C2055 H2046 0.930 . S
C2055 C2056 1.359 . S
C2055 C2057 1.394 . S
C2056 C2055 1.359 . S
C2056 C2058 1.391 . S
C2056 H2059 0.929 . S
C2057 H2039 0.930 . S
C2057 N2053 1.334 . S
C2057 C2055 1.394 . S
C2058 C2054 1.413 . S
C2058 C2056 1.391 . S
C2058 C2073 1.437 . S
H2059 C2056 0.929 . S
O2060 Gd2016 2.545 . S
O2060 C2075 1.258 . S
O2061 Gd2016 2.606 . S
O2061 Gd2017 2.362 . S
O2061 C2072 1.284 . S
O2062 Gd2017 2.324 . S
O2062 C2082 1.254 . S
O2063 Gd2016 2.429 . S
O2063 C2082 1.268 . S
O2064 Gd2016 2.545 . S
O2064 C2072 1.250 . S
O2065 Gd2016 2.412 . S
O2065 C2075 1.252 . S
O2066 Gd2017 2.545 . S
O2066 C2084 1.258 . S
O2067 Gd2016 2.362 . S
O2067 Gd2017 2.606 . S
O2067 C2083 1.284 . S
O2068 Gd2016 2.324 . S
O2068 C2091 1.254 . S
O2069 Gd2017 2.429 . S
O2069 C2091 1.268 . S
O2070 Gd2017 2.545 . S
O2070 C2083 1.250 . S
O2071 Gd2017 2.412 . S
O2071 C2084 1.252 . S
C2072 O2061 1.284 . S
C2072 O2064 1.250 . S
C2073 H2042 0.929 . S
C2073 C2058 1.437 . S
C2073 C2074 1.317 . S
C2074 H2045 0.930 . S
C2074 C2050 1.431 . S
C2074 C2073 1.317 . S
C2075 Gd2016 2.828 . S
C2075 O2060 1.258 . S
C2075 O2065 1.252 . S
C2075 C2076 1.497 . S
C2076 C2075 1.497 . S
C2076 C2077 1.395 . S
C2076 C2078 1.380 . S
C2077 C2076 1.395 . S
C2077 C2080 1.398 . S
C2077 H2092 0.930 . S
C2078 C2076 1.380 . S
C2078 C2079 1.391 . S
C2078 H2093 0.930 . S
C2079 C2078 1.391 . S
C2079 C2081 1.387 . S
C2080 C2077 1.398 . S
C2080 C2081 1.380 . S
C2080 H2094 0.930 . S
C2081 C2079 1.387 . S
C2081 C2080 1.380 . S
C2081 H2095 0.930 . S
C2082 O2062 1.254 . S
C2082 O2063 1.268 . S
C2083 O2067 1.284 . S
C2083 O2070 1.250 . S
C2084 Gd2017 2.828 . S
C2084 O2066 1.258 . S
C2084 O2071 1.252 . S
C2084 C2085 1.497 1_554 S
C2085 C2084 1.497 1_556 S
C2085 C2086 1.395 . S
C2085 C2087 1.380 . S
C2086 C2085 1.395 . S
C2086 C2089 1.398 . S
C2086 H2096 0.930 . S
C2087 C2085 1.380 . S
C2087 C2088 1.391 . S
C2087 H2097 0.930 . S
C2088 C2087 1.391 . S
C2088 C2090 1.387 . S
C2089 C2086 1.398 . S
C2089 C2090 1.380 . S
C2089 H2098 0.930 . S
C2090 C2088 1.387 . S
C2090 C2089 1.380 . S
C2090 H2099 0.930 . S
C2091 O2068 1.254 . S
C2091 O2069 1.268 . S
H2092 C2077 0.930 . S
H2093 C2078 0.930 . S
H2094 C2080 0.930 . S
H2095 C2081 0.930 . S
H2096 C2086 0.930 . S
H2097 C2087 0.930 . S
H2098 C2089 0.930 . S
H2099 C2090 0.930 . S
Gd2100 N2131 2.661 . S
Gd2100 N2137 2.601 . S
Gd2100 O2144 2.545 . S
Gd2100 O2145 2.606 . S
Gd2100 O2147 2.429 . S
Gd2100 O2148 2.545 . S
Gd2100 O2149 2.412 . S
Gd2100 O2151 2.362 . S
Gd2100 O2152 2.324 . S
Gd2100 C2159 2.828 . S
Gd2101 N2110 2.661 . S
Gd2101 N2114 2.601 . S
Gd2101 O2145 2.362 . S
Gd2101 O2146 2.324 . S
Gd2101 O2150 2.545 . S
Gd2101 O2151 2.606 . S
Gd2101 O2153 2.429 . S
Gd2101 O2154 2.545 . S
Gd2101 O2155 2.412 . S
Gd2101 C2168 2.828 . S
C2102 C2105 1.417 . S
C2102 C2107 1.431 . S
C2102 C2108 1.412 . S
C2103 C2106 1.437 . S
C2103 C2107 1.317 . S
C2103 H2122 0.929 . S
C2104 C2105 1.426 . S
C2104 C2106 1.413 . S
C2104 N2114 1.359 . S
C2105 C2102 1.417 . S
C2105 C2104 1.426 . S
C2105 N2110 1.350 . S
C2106 C2103 1.437 . S
C2106 C2104 1.413 . S
C2106 C2116 1.391 . S
C2107 C2102 1.431 . S
C2107 C2103 1.317 . S
C2107 H2118 0.930 . S
C2108 C2102 1.412 . S
C2108 C2109 1.355 . S
C2108 H2120 0.930 . S
C2109 C2108 1.355 . S
C2109 C2111 1.402 . S
C2109 H2121 0.930 . S
N2110 Gd2101 2.661 . S
N2110 C2105 1.350 . S
N2110 C2111 1.307 . S
C2111 C2109 1.402 . S
C2111 N2110 1.307 . S
C2111 H2112 0.930 . S
H2112 C2111 0.930 . S
C2113 N2114 1.334 . S
C2113 C2115 1.394 . S
C2113 H2117 0.930 . S
N2114 Gd2101 2.601 . S
N2114 C2104 1.359 . S
N2114 C2113 1.334 . S
C2115 C2113 1.394 . S
C2115 C2116 1.359 . S
C2115 H2127 0.930 . S
C2116 C2106 1.391 . S
C2116 C2115 1.359 . S
C2116 H2128 0.929 . S
H2117 C2113 0.930 . S
H2118 C2107 0.930 . S
H2119 C2136 0.930 . S
H2120 C2108 0.930 . S
H2121 C2109 0.930 . S
H2122 C2103 0.929 . S
H2123 C2141 0.930 . S
H2124 C2132 0.930 . S
H2125 C2133 0.930 . S
H2126 C2157 0.929 . S
H2127 C2115 0.930 . S
H2128 C2116 0.929 . S
H2129 C2158 0.930 . S
H2130 C2139 0.930 . S
N2131 Gd2100 2.661 . S
N2131 C2135 1.350 . S
N2131 C2136 1.307 . S
C2132 H2124 0.930 . S
C2132 C2133 1.355 . S
C2132 C2134 1.412 . S
C2133 H2125 0.930 . S
C2133 C2132 1.355 . S
C2133 C2136 1.402 . S
C2134 C2132 1.412 . S
C2134 C2135 1.417 . S
C2134 C2158 1.431 . S
C2135 N2131 1.350 . S
C2135 C2134 1.417 . S
C2135 C2138 1.426 . S
C2136 H2119 0.930 . S
C2136 N2131 1.307 . S
C2136 C2133 1.402 . S
N2137 Gd2100 2.601 . S
N2137 C2138 1.359 . S
N2137 C2141 1.334 . S
C2138 C2135 1.426 . S
C2138 N2137 1.359 . S
C2138 C2142 1.413 . S
C2139 H2130 0.930 . S
C2139 C2140 1.359 . S
C2139 C2141 1.394 . S
C2140 C2139 1.359 . S
C2140 C2142 1.391 . S
C2140 H2143 0.929 . S
C2141 H2123 0.930 . S
C2141 N2137 1.334 . S
C2141 C2139 1.394 . S
C2142 C2138 1.413 . S
C2142 C2140 1.391 . S
C2142 C2157 1.437 . S
H2143 C2140 0.929 . S
O2144 Gd2100 2.545 . S
O2144 C2159 1.258 . S
O2145 Gd2100 2.606 . S
O2145 Gd2101 2.362 . S
O2145 C2156 1.284 . S
O2146 Gd2101 2.324 . S
O2146 C2166 1.254 . S
O2147 Gd2100 2.429 . S
O2147 C2166 1.268 . S
O2148 Gd2100 2.545 . S
O2148 C2156 1.250 . S
O2149 Gd2100 2.412 . S
O2149 C2159 1.252 . S
O2150 Gd2101 2.545 . S
O2150 C2168 1.258 . S
O2151 Gd2100 2.362 . S
O2151 Gd2101 2.606 . S
O2151 C2167 1.284 . S
O2152 Gd2100 2.324 . S
O2152 C2175 1.254 . S
O2153 Gd2101 2.429 . S
O2153 C2175 1.268 . S
O2154 Gd2101 2.545 . S
O2154 C2167 1.250 . S
O2155 Gd2101 2.412 . S
O2155 C2168 1.252 . S
C2156 O2145 1.284 . S
C2156 O2148 1.250 . S
C2157 H2126 0.929 . S
C2157 C2142 1.437 . S
C2157 C2158 1.317 . S
C2158 H2129 0.930 . S
C2158 C2134 1.431 . S
C2158 C2157 1.317 . S
C2159 Gd2100 2.828 . S
C2159 O2144 1.258 . S
C2159 O2149 1.252 . S
C2159 C2160 1.497 . S
C2160 C2159 1.497 . S
C2160 C2161 1.395 . S
C2160 C2162 1.380 . S
C2161 C2160 1.395 . S
C2161 C2164 1.398 . S
C2161 H2176 0.930 . S
C2162 C2160 1.380 . S
C2162 C2163 1.391 . S
C2162 H2177 0.930 . S
C2163 C2162 1.391 . S
C2163 C2165 1.387 . S
C2164 C2161 1.398 . S
C2164 C2165 1.380 . S
C2164 H2178 0.930 . S
C2165 C2163 1.387 . S
C2165 C2164 1.380 . S
C2165 H2179 0.930 . S
C2166 O2146 1.254 . S
C2166 O2147 1.268 . S
C2167 O2151 1.284 . S
C2167 O2154 1.250 . S
C2168 Gd2101 2.828 . S
C2168 O2150 1.258 . S
C2168 O2155 1.252 . S
C2168 C2169 1.497 1_554 S
C2169 C2168 1.497 1_556 S
C2169 C2170 1.395 . S
C2169 C2171 1.380 . S
C2170 C2169 1.395 . S
C2170 C2173 1.398 . S
C2170 H2180 0.930 . S
C2171 C2169 1.380 . S
C2171 C2172 1.391 . S
C2171 H2181 0.930 . S
C2172 C2171 1.391 . S
C2172 C2174 1.387 . S
C2173 C2170 1.398 . S
C2173 C2174 1.380 . S
C2173 H2182 0.930 . S
C2174 C2172 1.387 . S
C2174 C2173 1.380 . S
C2174 H2183 0.930 . S
C2175 O2152 1.254 . S
C2175 O2153 1.268 . S
H2176 C2161 0.930 . S
H2177 C2162 0.930 . S
H2178 C2164 0.930 . S
H2179 C2165 0.930 . S
H2180 C2170 0.930 . S
H2181 C2171 0.930 . S
H2182 C2173 0.930 . S
H2183 C2174 0.930 . S
Gd2184 N2215 2.661 . S
Gd2184 N2221 2.601 . S
Gd2184 O2228 2.545 . S
Gd2184 O2229 2.606 . S
Gd2184 O2231 2.429 . S
Gd2184 O2232 2.545 . S
Gd2184 O2233 2.412 . S
Gd2184 O2235 2.362 . S
Gd2184 O2236 2.324 . S
Gd2184 C2243 2.828 . S
Gd2185 N2194 2.661 . S
Gd2185 N2198 2.601 . S
Gd2185 O2229 2.362 . S
Gd2185 O2230 2.324 . S
Gd2185 O2234 2.545 . S
Gd2185 O2235 2.606 . S
Gd2185 O2237 2.429 . S
Gd2185 O2238 2.545 . S
Gd2185 O2239 2.412 . S
Gd2185 C2252 2.828 . S
C2186 C2189 1.417 . S
C2186 C2191 1.431 . S
C2186 C2192 1.412 . S
C2187 C2190 1.437 . S
C2187 C2191 1.317 . S
C2187 H2206 0.929 . S
C2188 C2189 1.426 . S
C2188 C2190 1.413 . S
C2188 N2198 1.359 . S
C2189 C2186 1.417 . S
C2189 C2188 1.426 . S
C2189 N2194 1.350 . S
C2190 C2187 1.437 . S
C2190 C2188 1.413 . S
C2190 C2200 1.391 . S
C2191 C2186 1.431 . S
C2191 C2187 1.317 . S
C2191 H2202 0.930 . S
C2192 C2186 1.412 . S
C2192 C2193 1.355 . S
C2192 H2204 0.930 . S
C2193 C2192 1.355 . S
C2193 C2195 1.402 . S
C2193 H2205 0.930 . S
N2194 Gd2185 2.661 . S
N2194 C2189 1.350 . S
N2194 C2195 1.307 . S
C2195 C2193 1.402 . S
C2195 N2194 1.307 . S
C2195 H2196 0.930 . S
H2196 C2195 0.930 . S
C2197 N2198 1.334 . S
C2197 C2199 1.394 . S
C2197 H2201 0.930 . S
N2198 Gd2185 2.601 . S
N2198 C2188 1.359 . S
N2198 C2197 1.334 . S
C2199 C2197 1.394 . S
C2199 C2200 1.359 . S
C2199 H2211 0.930 . S
C2200 C2190 1.391 . S
C2200 C2199 1.359 . S
C2200 H2212 0.929 . S
H2201 C2197 0.930 . S
H2202 C2191 0.930 . S
H2203 C2220 0.930 . S
H2204 C2192 0.930 . S
H2205 C2193 0.930 . S
H2206 C2187 0.929 . S
H2207 C2225 0.930 . S
H2208 C2216 0.930 . S
H2209 C2217 0.930 . S
H2210 C2241 0.929 . S
H2211 C2199 0.930 . S
H2212 C2200 0.929 . S
H2213 C2242 0.930 . S
H2214 C2223 0.930 . S
N2215 Gd2184 2.661 . S
N2215 C2219 1.350 . S
N2215 C2220 1.307 . S
C2216 H2208 0.930 . S
C2216 C2217 1.355 . S
C2216 C2218 1.412 . S
C2217 H2209 0.930 . S
C2217 C2216 1.355 . S
C2217 C2220 1.402 . S
C2218 C2216 1.412 . S
C2218 C2219 1.417 . S
C2218 C2242 1.431 . S
C2219 N2215 1.350 . S
C2219 C2218 1.417 . S
C2219 C2222 1.426 . S
C2220 H2203 0.930 . S
C2220 N2215 1.307 . S
C2220 C2217 1.402 . S
N2221 Gd2184 2.601 . S
N2221 C2222 1.359 . S
N2221 C2225 1.334 . S
C2222 C2219 1.426 . S
C2222 N2221 1.359 . S
C2222 C2226 1.413 . S
C2223 H2214 0.930 . S
C2223 C2224 1.359 . S
C2223 C2225 1.394 . S
C2224 C2223 1.359 . S
C2224 C2226 1.391 . S
C2224 H2227 0.929 . S
C2225 H2207 0.930 . S
C2225 N2221 1.334 . S
C2225 C2223 1.394 . S
C2226 C2222 1.413 . S
C2226 C2224 1.391 . S
C2226 C2241 1.437 . S
H2227 C2224 0.929 . S
O2228 Gd2184 2.545 . S
O2228 C2243 1.258 . S
O2229 Gd2184 2.606 . S
O2229 Gd2185 2.362 . S
O2229 C2240 1.284 . S
O2230 Gd2185 2.324 . S
O2230 C2250 1.254 . S
O2231 Gd2184 2.429 . S
O2231 C2250 1.268 . S
O2232 Gd2184 2.545 . S
O2232 C2240 1.250 . S
O2233 Gd2184 2.412 . S
O2233 C2243 1.252 . S
O2234 Gd2185 2.545 . S
O2234 C2252 1.258 . S
O2235 Gd2184 2.362 . S
O2235 Gd2185 2.606 . S
O2235 C2251 1.284 . S
O2236 Gd2184 2.324 . S
O2236 C2259 1.254 . S
O2237 Gd2185 2.429 . S
O2237 C2259 1.268 . S
O2238 Gd2185 2.545 . S
O2238 C2251 1.250 . S
O2239 Gd2185 2.412 . S
O2239 C2252 1.252 . S
C2240 O2229 1.284 . S
C2240 O2232 1.250 . S
C2241 H2210 0.929 . S
C2241 C2226 1.437 . S
C2241 C2242 1.317 . S
C2242 H2213 0.930 . S
C2242 C2218 1.431 . S
C2242 C2241 1.317 . S
C2243 Gd2184 2.828 . S
C2243 O2228 1.258 . S
C2243 O2233 1.252 . S
C2243 C2244 1.497 . S
C2244 C2243 1.497 . S
C2244 C2245 1.395 . S
C2244 C2246 1.380 . S
C2245 C2244 1.395 . S
C2245 C2248 1.398 . S
C2245 H2260 0.930 . S
C2246 C2244 1.380 . S
C2246 C2247 1.391 . S
C2246 H2261 0.930 . S
C2247 C2246 1.391 . S
C2247 C2249 1.387 . S
C2248 C2245 1.398 . S
C2248 C2249 1.380 . S
C2248 H2262 0.930 . S
C2249 C2247 1.387 . S
C2249 C2248 1.380 . S
C2249 H2263 0.930 . S
C2250 O2230 1.254 . S
C2250 O2231 1.268 . S
C2251 O2235 1.284 . S
C2251 O2238 1.250 . S
C2252 Gd2185 2.828 . S
C2252 O2234 1.258 . S
C2252 O2239 1.252 . S
C2252 C2253 1.497 . S
C2253 C2252 1.497 . S
C2253 C2254 1.395 . S
C2253 C2255 1.380 . S
C2254 C2253 1.395 . S
C2254 C2257 1.398 . S
C2254 H2264 0.930 . S
C2255 C2253 1.380 . S
C2255 C2256 1.391 . S
C2255 H2265 0.930 . S
C2256 C2255 1.391 . S
C2256 C2258 1.387 . S
C2257 C2254 1.398 . S
C2257 C2258 1.380 . S
C2257 H2266 0.930 . S
C2258 C2256 1.387 . S
C2258 C2257 1.380 . S
C2258 H2267 0.930 . S
C2259 O2236 1.254 . S
C2259 O2237 1.268 . S
H2260 C2245 0.930 . S
H2261 C2246 0.930 . S
H2262 C2248 0.930 . S
H2263 C2249 0.930 . S
H2264 C2254 0.930 . S
H2265 C2255 0.930 . S
H2266 C2257 0.930 . S
H2267 C2258 0.930 . S
Gd2268 N2299 2.661 . S
Gd2268 N2305 2.601 . S
Gd2268 O2312 2.545 . S
Gd2268 O2313 2.606 . S
Gd2268 O2315 2.429 . S
Gd2268 O2316 2.545 . S
Gd2268 O2317 2.412 . S
Gd2268 O2319 2.362 . S
Gd2268 O2320 2.324 . S
Gd2268 C2327 2.828 . S
Gd2269 N2278 2.661 . S
Gd2269 N2282 2.601 . S
Gd2269 O2313 2.362 . S
Gd2269 O2314 2.324 . S
Gd2269 O2318 2.545 . S
Gd2269 O2319 2.606 . S
Gd2269 O2321 2.429 . S
Gd2269 O2322 2.545 . S
Gd2269 O2323 2.412 . S
Gd2269 C2336 2.828 . S
C2270 C2273 1.417 . S
C2270 C2275 1.431 . S
C2270 C2276 1.412 . S
C2271 C2274 1.437 . S
C2271 C2275 1.317 . S
C2271 H2290 0.929 . S
C2272 C2273 1.426 . S
C2272 C2274 1.413 . S
C2272 N2282 1.359 . S
C2273 C2270 1.417 . S
C2273 C2272 1.426 . S
C2273 N2278 1.350 . S
C2274 C2271 1.437 . S
C2274 C2272 1.413 . S
C2274 C2284 1.391 . S
C2275 C2270 1.431 . S
C2275 C2271 1.317 . S
C2275 H2286 0.930 . S
C2276 C2270 1.412 . S
C2276 C2277 1.355 . S
C2276 H2288 0.930 . S
C2277 C2276 1.355 . S
C2277 C2279 1.402 . S
C2277 H2289 0.930 . S
N2278 Gd2269 2.661 . S
N2278 C2273 1.350 . S
N2278 C2279 1.307 . S
C2279 C2277 1.402 . S
C2279 N2278 1.307 . S
C2279 H2280 0.930 . S
H2280 C2279 0.930 . S
C2281 N2282 1.334 . S
C2281 C2283 1.394 . S
C2281 H2285 0.930 . S
N2282 Gd2269 2.601 . S
N2282 C2272 1.359 . S
N2282 C2281 1.334 . S
C2283 C2281 1.394 . S
C2283 C2284 1.359 . S
C2283 H2295 0.930 . S
C2284 C2274 1.391 . S
C2284 C2283 1.359 . S
C2284 H2296 0.929 . S
H2285 C2281 0.930 . S
H2286 C2275 0.930 . S
H2287 C2304 0.930 . S
H2288 C2276 0.930 . S
H2289 C2277 0.930 . S
H2290 C2271 0.929 . S
H2291 C2309 0.930 . S
H2292 C2300 0.930 . S
H2293 C2301 0.930 . S
H2294 C2325 0.929 . S
H2295 C2283 0.930 . S
H2296 C2284 0.929 . S
H2297 C2326 0.930 . S
H2298 C2307 0.930 . S
N2299 Gd2268 2.661 . S
N2299 C2303 1.350 . S
N2299 C2304 1.307 . S
C2300 H2292 0.930 . S
C2300 C2301 1.355 . S
C2300 C2302 1.412 . S
C2301 H2293 0.930 . S
C2301 C2300 1.355 . S
C2301 C2304 1.402 . S
C2302 C2300 1.412 . S
C2302 C2303 1.417 . S
C2302 C2326 1.431 . S
C2303 N2299 1.350 . S
C2303 C2302 1.417 . S
C2303 C2306 1.426 . S
C2304 H2287 0.930 . S
C2304 N2299 1.307 . S
C2304 C2301 1.402 . S
N2305 Gd2268 2.601 . S
N2305 C2306 1.359 . S
N2305 C2309 1.334 . S
C2306 C2303 1.426 . S
C2306 N2305 1.359 . S
C2306 C2310 1.413 . S
C2307 H2298 0.930 . S
C2307 C2308 1.359 . S
C2307 C2309 1.394 . S
C2308 C2307 1.359 . S
C2308 C2310 1.391 . S
C2308 H2311 0.929 . S
C2309 H2291 0.930 . S
C2309 N2305 1.334 . S
C2309 C2307 1.394 . S
C2310 C2306 1.413 . S
C2310 C2308 1.391 . S
C2310 C2325 1.437 . S
H2311 C2308 0.929 . S
O2312 Gd2268 2.545 . S
O2312 C2327 1.258 . S
O2313 Gd2268 2.606 . S
O2313 Gd2269 2.362 . S
O2313 C2324 1.284 . S
O2314 Gd2269 2.324 . S
O2314 C2334 1.254 . S
O2315 Gd2268 2.429 . S
O2315 C2334 1.268 . S
O2316 Gd2268 2.545 . S
O2316 C2324 1.250 . S
O2317 Gd2268 2.412 . S
O2317 C2327 1.252 . S
O2318 Gd2269 2.545 . S
O2318 C2336 1.258 . S
O2319 Gd2268 2.362 . S
O2319 Gd2269 2.606 . S
O2319 C2335 1.284 . S
O2320 Gd2268 2.324 . S
O2320 C2343 1.254 . S
O2321 Gd2269 2.429 . S
O2321 C2343 1.268 . S
O2322 Gd2269 2.545 . S
O2322 C2335 1.250 . S
O2323 Gd2269 2.412 . S
O2323 C2336 1.252 . S
C2324 O2313 1.284 . S
C2324 O2316 1.250 . S
C2325 H2294 0.929 . S
C2325 C2310 1.437 . S
C2325 C2326 1.317 . S
C2326 H2297 0.930 . S
C2326 C2302 1.431 . S
C2326 C2325 1.317 . S
C2327 Gd2268 2.828 . S
C2327 O2312 1.258 . S
C2327 O2317 1.252 . S
C2327 C2328 1.497 . S
C2328 C2327 1.497 . S
C2328 C2329 1.395 . S
C2328 C2330 1.380 . S
C2329 C2328 1.395 . S
C2329 C2332 1.398 . S
C2329 H2344 0.930 . S
C2330 C2328 1.380 . S
C2330 C2331 1.391 . S
C2330 H2345 0.930 . S
C2331 C2330 1.391 . S
C2331 C2333 1.387 . S
C2332 C2329 1.398 . S
C2332 C2333 1.380 . S
C2332 H2346 0.930 . S
C2333 C2331 1.387 . S
C2333 C2332 1.380 . S
C2333 H2347 0.930 . S
C2334 O2314 1.254 . S
C2334 O2315 1.268 . S
C2335 O2319 1.284 . S
C2335 O2322 1.250 . S
C2336 Gd2269 2.828 . S
C2336 O2318 1.258 . S
C2336 O2323 1.252 . S
C2336 C2337 1.497 . S
C2337 C2336 1.497 . S
C2337 C2338 1.395 . S
C2337 C2339 1.380 . S
C2338 C2337 1.395 . S
C2338 C2341 1.398 . S
C2338 H2348 0.930 . S
C2339 C2337 1.380 . S
C2339 C2340 1.391 . S
C2339 H2349 0.930 . S
C2340 C2339 1.391 . S
C2340 C2342 1.387 . S
C2341 C2338 1.398 . S
C2341 C2342 1.380 . S
C2341 H2350 0.930 . S
C2342 C2340 1.387 . S
C2342 C2341 1.380 . S
C2342 H2351 0.930 . S
C2343 O2320 1.254 . S
C2343 O2321 1.268 . S
H2344 C2329 0.930 . S
H2345 C2330 0.930 . S
H2346 C2332 0.930 . S
H2347 C2333 0.930 . S
H2348 C2338 0.930 . S
H2349 C2339 0.930 . S
H2350 C2341 0.930 . S
H2351 C2342 0.930 . S
Gd2352 N2383 2.661 . S
Gd2352 N2389 2.601 . S
Gd2352 O2396 2.545 . S
Gd2352 O2397 2.606 . S
Gd2352 O2399 2.429 . S
Gd2352 O2400 2.545 . S
Gd2352 O2401 2.412 . S
Gd2352 O2403 2.362 . S
Gd2352 O2404 2.324 . S
Gd2352 C2411 2.828 . S
Gd2353 N2362 2.661 . S
Gd2353 N2366 2.601 . S
Gd2353 O2397 2.362 . S
Gd2353 O2398 2.324 . S
Gd2353 O2402 2.545 . S
Gd2353 O2403 2.606 . S
Gd2353 O2405 2.429 . S
Gd2353 O2406 2.545 . S
Gd2353 O2407 2.412 . S
Gd2353 C2420 2.828 . S
C2354 C2357 1.417 . S
C2354 C2359 1.431 . S
C2354 C2360 1.412 . S
C2355 C2358 1.437 . S
C2355 C2359 1.317 . S
C2355 H2374 0.929 . S
C2356 C2357 1.426 . S
C2356 C2358 1.413 . S
C2356 N2366 1.359 . S
C2357 C2354 1.417 . S
C2357 C2356 1.426 . S
C2357 N2362 1.350 . S
C2358 C2355 1.437 . S
C2358 C2356 1.413 . S
C2358 C2368 1.391 . S
C2359 C2354 1.431 . S
C2359 C2355 1.317 . S
C2359 H2370 0.930 . S
C2360 C2354 1.412 . S
C2360 C2361 1.355 . S
C2360 H2372 0.930 . S
C2361 C2360 1.355 . S
C2361 C2363 1.402 . S
C2361 H2373 0.930 . S
N2362 Gd2353 2.661 . S
N2362 C2357 1.350 . S
N2362 C2363 1.307 . S
C2363 C2361 1.402 . S
C2363 N2362 1.307 . S
C2363 H2364 0.930 . S
H2364 C2363 0.930 . S
C2365 N2366 1.334 . S
C2365 C2367 1.394 . S
C2365 H2369 0.930 . S
N2366 Gd2353 2.601 . S
N2366 C2356 1.359 . S
N2366 C2365 1.334 . S
C2367 C2365 1.394 . S
C2367 C2368 1.359 . S
C2367 H2379 0.930 . S
C2368 C2358 1.391 . S
C2368 C2367 1.359 . S
C2368 H2380 0.929 . S
H2369 C2365 0.930 . S
H2370 C2359 0.930 . S
H2371 C2388 0.930 . S
H2372 C2360 0.930 . S
H2373 C2361 0.930 . S
H2374 C2355 0.929 . S
H2375 C2393 0.930 . S
H2376 C2384 0.930 . S
H2377 C2385 0.930 . S
H2378 C2409 0.929 . S
H2379 C2367 0.930 . S
H2380 C2368 0.929 . S
H2381 C2410 0.930 . S
H2382 C2391 0.930 . S
N2383 Gd2352 2.661 . S
N2383 C2387 1.350 . S
N2383 C2388 1.307 . S
C2384 H2376 0.930 . S
C2384 C2385 1.355 . S
C2384 C2386 1.412 . S
C2385 H2377 0.930 . S
C2385 C2384 1.355 . S
C2385 C2388 1.402 . S
C2386 C2384 1.412 . S
C2386 C2387 1.417 . S
C2386 C2410 1.431 . S
C2387 N2383 1.350 . S
C2387 C2386 1.417 . S
C2387 C2390 1.426 . S
C2388 H2371 0.930 . S
C2388 N2383 1.307 . S
C2388 C2385 1.402 . S
N2389 Gd2352 2.601 . S
N2389 C2390 1.359 . S
N2389 C2393 1.334 . S
C2390 C2387 1.426 . S
C2390 N2389 1.359 . S
C2390 C2394 1.413 . S
C2391 H2382 0.930 . S
C2391 C2392 1.359 . S
C2391 C2393 1.394 . S
C2392 C2391 1.359 . S
C2392 C2394 1.391 . S
C2392 H2395 0.929 . S
C2393 H2375 0.930 . S
C2393 N2389 1.334 . S
C2393 C2391 1.394 . S
C2394 C2390 1.413 . S
C2394 C2392 1.391 . S
C2394 C2409 1.437 . S
H2395 C2392 0.929 . S
O2396 Gd2352 2.545 . S
O2396 C2411 1.258 . S
O2397 Gd2352 2.606 . S
O2397 Gd2353 2.362 . S
O2397 C2408 1.284 . S
O2398 Gd2353 2.324 . S
O2398 C2418 1.254 . S
O2399 Gd2352 2.429 . S
O2399 C2418 1.268 . S
O2400 Gd2352 2.545 . S
O2400 C2408 1.250 . S
O2401 Gd2352 2.412 . S
O2401 C2411 1.252 . S
O2402 Gd2353 2.545 . S
O2402 C2420 1.258 . S
O2403 Gd2352 2.362 . S
O2403 Gd2353 2.606 . S
O2403 C2419 1.284 . S
O2404 Gd2352 2.324 . S
O2404 C2427 1.254 . S
O2405 Gd2353 2.429 . S
O2405 C2427 1.268 . S
O2406 Gd2353 2.545 . S
O2406 C2419 1.250 . S
O2407 Gd2353 2.412 . S
O2407 C2420 1.252 . S
C2408 O2397 1.284 . S
C2408 O2400 1.250 . S
C2409 H2378 0.929 . S
C2409 C2394 1.437 . S
C2409 C2410 1.317 . S
C2410 H2381 0.930 . S
C2410 C2386 1.431 . S
C2410 C2409 1.317 . S
C2411 Gd2352 2.828 . S
C2411 O2396 1.258 . S
C2411 O2401 1.252 . S
C2411 C2412 1.497 1_556 S
C2412 C2411 1.497 1_554 S
C2412 C2413 1.395 . S
C2412 C2414 1.380 . S
C2413 C2412 1.395 . S
C2413 C2416 1.398 . S
C2413 H2428 0.930 . S
C2414 C2412 1.380 . S
C2414 C2415 1.391 . S
C2414 H2429 0.930 . S
C2415 C2414 1.391 . S
C2415 C2417 1.387 . S
C2416 C2413 1.398 . S
C2416 C2417 1.380 . S
C2416 H2430 0.930 . S
C2417 C2415 1.387 . S
C2417 C2416 1.380 . S
C2417 H2431 0.930 . S
C2418 O2398 1.254 . S
C2418 O2399 1.268 . S
C2419 O2403 1.284 . S
C2419 O2406 1.250 . S
C2420 Gd2353 2.828 . S
C2420 O2402 1.258 . S
C2420 O2407 1.252 . S
C2420 C2421 1.497 . S
C2421 C2420 1.497 . S
C2421 C2422 1.395 . S
C2421 C2423 1.380 . S
C2422 C2421 1.395 . S
C2422 C2425 1.398 . S
C2422 H2432 0.930 . S
C2423 C2421 1.380 . S
C2423 C2424 1.391 . S
C2423 H2433 0.930 . S
C2424 C2423 1.391 . S
C2424 C2426 1.387 . S
C2425 C2422 1.398 . S
C2425 C2426 1.380 . S
C2425 H2434 0.930 . S
C2426 C2424 1.387 . S
C2426 C2425 1.380 . S
C2426 H2435 0.930 . S
C2427 O2404 1.254 . S
C2427 O2405 1.268 . S
H2428 C2413 0.930 . S
H2429 C2414 0.930 . S
H2430 C2416 0.930 . S
H2431 C2417 0.930 . S
H2432 C2422 0.930 . S
H2433 C2423 0.930 . S
H2434 C2425 0.930 . S
H2435 C2426 0.930 . S
Gd2436 N2467 2.661 . S
Gd2436 N2473 2.601 . S
Gd2436 O2480 2.545 . S
Gd2436 O2481 2.606 . S
Gd2436 O2483 2.429 . S
Gd2436 O2484 2.545 . S
Gd2436 O2485 2.412 . S
Gd2436 O2487 2.362 . S
Gd2436 O2488 2.324 . S
Gd2436 C2495 2.828 . S
Gd2437 N2446 2.661 . S
Gd2437 N2450 2.601 . S
Gd2437 O2481 2.362 . S
Gd2437 O2482 2.324 . S
Gd2437 O2486 2.545 . S
Gd2437 O2487 2.606 . S
Gd2437 O2489 2.429 . S
Gd2437 O2490 2.545 . S
Gd2437 O2491 2.412 . S
Gd2437 C2504 2.828 . S
C2438 C2441 1.417 . S
C2438 C2443 1.431 . S
C2438 C2444 1.412 . S
C2439 C2442 1.437 . S
C2439 C2443 1.317 . S
C2439 H2458 0.929 . S
C2440 C2441 1.426 . S
C2440 C2442 1.413 . S
C2440 N2450 1.359 . S
C2441 C2438 1.417 . S
C2441 C2440 1.426 . S
C2441 N2446 1.350 . S
C2442 C2439 1.437 . S
C2442 C2440 1.413 . S
C2442 C2452 1.391 . S
C2443 C2438 1.431 . S
C2443 C2439 1.317 . S
C2443 H2454 0.930 . S
C2444 C2438 1.412 . S
C2444 C2445 1.355 . S
C2444 H2456 0.930 . S
C2445 C2444 1.355 . S
C2445 C2447 1.402 . S
C2445 H2457 0.930 . S
N2446 Gd2437 2.661 . S
N2446 C2441 1.350 . S
N2446 C2447 1.307 . S
C2447 C2445 1.402 . S
C2447 N2446 1.307 . S
C2447 H2448 0.930 . S
H2448 C2447 0.930 . S
C2449 N2450 1.334 . S
C2449 C2451 1.394 . S
C2449 H2453 0.930 . S
N2450 Gd2437 2.601 . S
N2450 C2440 1.359 . S
N2450 C2449 1.334 . S
C2451 C2449 1.394 . S
C2451 C2452 1.359 . S
C2451 H2463 0.930 . S
C2452 C2442 1.391 . S
C2452 C2451 1.359 . S
C2452 H2464 0.929 . S
H2453 C2449 0.930 . S
H2454 C2443 0.930 . S
H2455 C2472 0.930 . S
H2456 C2444 0.930 . S
H2457 C2445 0.930 . S
H2458 C2439 0.929 . S
H2459 C2477 0.930 . S
H2460 C2468 0.930 . S
H2461 C2469 0.930 . S
H2462 C2493 0.929 . S
H2463 C2451 0.930 . S
H2464 C2452 0.929 . S
H2465 C2494 0.930 . S
H2466 C2475 0.930 . S
N2467 Gd2436 2.661 . S
N2467 C2471 1.350 . S
N2467 C2472 1.307 . S
C2468 H2460 0.930 . S
C2468 C2469 1.355 . S
C2468 C2470 1.412 . S
C2469 H2461 0.930 . S
C2469 C2468 1.355 . S
C2469 C2472 1.402 . S
C2470 C2468 1.412 . S
C2470 C2471 1.417 . S
C2470 C2494 1.431 . S
C2471 N2467 1.350 . S
C2471 C2470 1.417 . S
C2471 C2474 1.426 . S
C2472 H2455 0.930 . S
C2472 N2467 1.307 . S
C2472 C2469 1.402 . S
N2473 Gd2436 2.601 . S
N2473 C2474 1.359 . S
N2473 C2477 1.334 . S
C2474 C2471 1.426 . S
C2474 N2473 1.359 . S
C2474 C2478 1.413 . S
C2475 H2466 0.930 . S
C2475 C2476 1.359 . S
C2475 C2477 1.394 . S
C2476 C2475 1.359 . S
C2476 C2478 1.391 . S
C2476 H2479 0.929 . S
C2477 H2459 0.930 . S
C2477 N2473 1.334 . S
C2477 C2475 1.394 . S
C2478 C2474 1.413 . S
C2478 C2476 1.391 . S
C2478 C2493 1.437 . S
H2479 C2476 0.929 . S
O2480 Gd2436 2.545 . S
O2480 C2495 1.258 . S
O2481 Gd2436 2.606 . S
O2481 Gd2437 2.362 . S
O2481 C2492 1.284 . S
O2482 Gd2437 2.324 . S
O2482 C2502 1.254 . S
O2483 Gd2436 2.429 . S
O2483 C2502 1.268 . S
O2484 Gd2436 2.545 . S
O2484 C2492 1.250 . S
O2485 Gd2436 2.412 . S
O2485 C2495 1.252 . S
O2486 Gd2437 2.545 . S
O2486 C2504 1.258 . S
O2487 Gd2436 2.362 . S
O2487 Gd2437 2.606 . S
O2487 C2503 1.284 . S
O2488 Gd2436 2.324 . S
O2488 C2511 1.254 . S
O2489 Gd2437 2.429 . S
O2489 C2511 1.268 . S
O2490 Gd2437 2.545 . S
O2490 C2503 1.250 . S
O2491 Gd2437 2.412 . S
O2491 C2504 1.252 . S
C2492 O2481 1.284 . S
C2492 O2484 1.250 . S
C2493 H2462 0.929 . S
C2493 C2478 1.437 . S
C2493 C2494 1.317 . S
C2494 H2465 0.930 . S
C2494 C2470 1.431 . S
C2494 C2493 1.317 . S
C2495 Gd2436 2.828 . S
C2495 O2480 1.258 . S
C2495 O2485 1.252 . S
C2495 C2496 1.497 1_556 S
C2496 C2495 1.497 1_554 S
C2496 C2497 1.395 . S
C2496 C2498 1.380 . S
C2497 C2496 1.395 . S
C2497 C2500 1.398 . S
C2497 H2512 0.930 . S
C2498 C2496 1.380 . S
C2498 C2499 1.391 . S
C2498 H2513 0.930 . S
C2499 C2498 1.391 . S
C2499 C2501 1.387 . S
C2500 C2497 1.398 . S
C2500 C2501 1.380 . S
C2500 H2514 0.930 . S
C2501 C2499 1.387 . S
C2501 C2500 1.380 . S
C2501 H2515 0.930 . S
C2502 O2482 1.254 . S
C2502 O2483 1.268 . S
C2503 O2487 1.284 . S
C2503 O2490 1.250 . S
C2504 Gd2437 2.828 . S
C2504 O2486 1.258 . S
C2504 O2491 1.252 . S
C2504 C2505 1.497 . S
C2505 C2504 1.497 . S
C2505 C2506 1.395 . S
C2505 C2507 1.380 . S
C2506 C2505 1.395 . S
C2506 C2509 1.398 . S
C2506 H2516 0.930 . S
C2507 C2505 1.380 . S
C2507 C2508 1.391 . S
C2507 H2517 0.930 . S
C2508 C2507 1.391 . S
C2508 C2510 1.387 . S
C2509 C2506 1.398 . S
C2509 C2510 1.380 . S
C2509 H2518 0.930 . S
C2510 C2508 1.387 . S
C2510 C2509 1.380 . S
C2510 H2519 0.930 . S
C2511 O2488 1.254 . S
C2511 O2489 1.268 . S
H2512 C2497 0.930 . S
H2513 C2498 0.930 . S
H2514 C2500 0.930 . S
H2515 C2501 0.930 . S
H2516 C2506 0.930 . S
H2517 C2507 0.930 . S
H2518 C2509 0.930 . S
H2519 C2510 0.930 . S
Gd2520 N2551 2.661 . S
Gd2520 N2557 2.601 . S
Gd2520 O2564 2.545 . S
Gd2520 O2565 2.606 . S
Gd2520 O2567 2.429 . S
Gd2520 O2568 2.545 . S
Gd2520 O2569 2.412 . S
Gd2520 O2571 2.362 . S
Gd2520 O2572 2.324 . S
Gd2520 C2579 2.828 . S
Gd2521 N2530 2.661 . S
Gd2521 N2534 2.601 . S
Gd2521 O2565 2.362 . S
Gd2521 O2566 2.324 . S
Gd2521 O2570 2.545 . S
Gd2521 O2571 2.606 . S
Gd2521 O2573 2.429 . S
Gd2521 O2574 2.545 . S
Gd2521 O2575 2.412 . S
Gd2521 C2588 2.828 . S
C2522 C2525 1.417 . S
C2522 C2527 1.431 . S
C2522 C2528 1.412 . S
C2523 C2526 1.437 . S
C2523 C2527 1.317 . S
C2523 H2542 0.929 . S
C2524 C2525 1.426 . S
C2524 C2526 1.413 . S
C2524 N2534 1.359 . S
C2525 C2522 1.417 . S
C2525 C2524 1.426 . S
C2525 N2530 1.350 . S
C2526 C2523 1.437 . S
C2526 C2524 1.413 . S
C2526 C2536 1.391 . S
C2527 C2522 1.431 . S
C2527 C2523 1.317 . S
C2527 H2538 0.930 . S
C2528 C2522 1.412 . S
C2528 C2529 1.355 . S
C2528 H2540 0.930 . S
C2529 C2528 1.355 . S
C2529 C2531 1.402 . S
C2529 H2541 0.930 . S
N2530 Gd2521 2.661 . S
N2530 C2525 1.350 . S
N2530 C2531 1.307 . S
C2531 C2529 1.402 . S
C2531 N2530 1.307 . S
C2531 H2532 0.930 . S
H2532 C2531 0.930 . S
C2533 N2534 1.334 . S
C2533 C2535 1.394 . S
C2533 H2537 0.930 . S
N2534 Gd2521 2.601 . S
N2534 C2524 1.359 . S
N2534 C2533 1.334 . S
C2535 C2533 1.394 . S
C2535 C2536 1.359 . S
C2535 H2547 0.930 . S
C2536 C2526 1.391 . S
C2536 C2535 1.359 . S
C2536 H2548 0.929 . S
H2537 C2533 0.930 . S
H2538 C2527 0.930 . S
H2539 C2556 0.930 . S
H2540 C2528 0.930 . S
H2541 C2529 0.930 . S
H2542 C2523 0.929 . S
H2543 C2561 0.930 . S
H2544 C2552 0.930 . S
H2545 C2553 0.930 . S
H2546 C2577 0.929 . S
H2547 C2535 0.930 . S
H2548 C2536 0.929 . S
H2549 C2578 0.930 . S
H2550 C2559 0.930 . S
N2551 Gd2520 2.661 . S
N2551 C2555 1.350 . S
N2551 C2556 1.307 . S
C2552 H2544 0.930 . S
C2552 C2553 1.355 . S
C2552 C2554 1.412 . S
C2553 H2545 0.930 . S
C2553 C2552 1.355 . S
C2553 C2556 1.402 . S
C2554 C2552 1.412 . S
C2554 C2555 1.417 . S
C2554 C2578 1.431 . S
C2555 N2551 1.350 . S
C2555 C2554 1.417 . S
C2555 C2558 1.426 . S
C2556 H2539 0.930 . S
C2556 N2551 1.307 . S
C2556 C2553 1.402 . S
N2557 Gd2520 2.601 . S
N2557 C2558 1.359 . S
N2557 C2561 1.334 . S
C2558 C2555 1.426 . S
C2558 N2557 1.359 . S
C2558 C2562 1.413 . S
C2559 H2550 0.930 . S
C2559 C2560 1.359 . S
C2559 C2561 1.394 . S
C2560 C2559 1.359 . S
C2560 C2562 1.391 . S
C2560 H2563 0.929 . S
C2561 H2543 0.930 . S
C2561 N2557 1.334 . S
C2561 C2559 1.394 . S
C2562 C2558 1.413 . S
C2562 C2560 1.391 . S
C2562 C2577 1.437 . S
H2563 C2560 0.929 . S
O2564 Gd2520 2.545 . S
O2564 C2579 1.258 . S
O2565 Gd2520 2.606 . S
O2565 Gd2521 2.362 . S
O2565 C2576 1.284 . S
O2566 Gd2521 2.324 . S
O2566 C2586 1.254 . S
O2567 Gd2520 2.429 . S
O2567 C2586 1.268 . S
O2568 Gd2520 2.545 . S
O2568 C2576 1.250 . S
O2569 Gd2520 2.412 . S
O2569 C2579 1.252 . S
O2570 Gd2521 2.545 . S
O2570 C2588 1.258 . S
O2571 Gd2520 2.362 . S
O2571 Gd2521 2.606 . S
O2571 C2587 1.284 . S
O2572 Gd2520 2.324 . S
O2572 C2595 1.254 . S
O2573 Gd2521 2.429 . S
O2573 C2595 1.268 . S
O2574 Gd2521 2.545 . S
O2574 C2587 1.250 . S
O2575 Gd2521 2.412 . S
O2575 C2588 1.252 . S
C2576 O2565 1.284 . S
C2576 O2568 1.250 . S
C2577 H2546 0.929 . S
C2577 C2562 1.437 . S
C2577 C2578 1.317 . S
C2578 H2549 0.930 . S
C2578 C2554 1.431 . S
C2578 C2577 1.317 . S
C2579 Gd2520 2.828 . S
C2579 O2564 1.258 . S
C2579 O2569 1.252 . S
C2579 C2580 1.497 . S
C2580 C2579 1.497 . S
C2580 C2581 1.395 . S
C2580 C2582 1.380 . S
C2581 C2580 1.395 . S
C2581 C2584 1.398 . S
C2581 H2596 0.930 . S
C2582 C2580 1.380 . S
C2582 C2583 1.391 . S
C2582 H2597 0.930 . S
C2583 C2582 1.391 . S
C2583 C2585 1.387 . S
C2584 C2581 1.398 . S
C2584 C2585 1.380 . S
C2584 H2598 0.930 . S
C2585 C2583 1.387 . S
C2585 C2584 1.380 . S
C2585 H2599 0.930 . S
C2586 O2566 1.254 . S
C2586 O2567 1.268 . S
C2587 O2571 1.284 . S
C2587 O2574 1.250 . S
C2588 Gd2521 2.828 . S
C2588 O2570 1.258 . S
C2588 O2575 1.252 . S
C2588 C2589 1.497 . S
C2589 C2588 1.497 . S
C2589 C2590 1.395 . S
C2589 C2591 1.380 . S
C2590 C2589 1.395 . S
C2590 C2593 1.398 . S
C2590 H2600 0.930 . S
C2591 C2589 1.380 . S
C2591 C2592 1.391 . S
C2591 H2601 0.930 . S
C2592 C2591 1.391 . S
C2592 C2594 1.387 . S
C2593 C2590 1.398 . S
C2593 C2594 1.380 . S
C2593 H2602 0.930 . S
C2594 C2592 1.387 . S
C2594 C2593 1.380 . S
C2594 H2603 0.930 . S
C2595 O2572 1.254 . S
C2595 O2573 1.268 . S
H2596 C2581 0.930 . S
H2597 C2582 0.930 . S
H2598 C2584 0.930 . S
H2599 C2585 0.930 . S
H2600 C2590 0.930 . S
H2601 C2591 0.930 . S
H2602 C2593 0.930 . S
H2603 C2594 0.930 . S
Gd2604 N2635 2.661 . S
Gd2604 N2641 2.601 . S
Gd2604 O2648 2.545 . S
Gd2604 O2649 2.606 . S
Gd2604 O2651 2.429 . S
Gd2604 O2652 2.545 . S
Gd2604 O2653 2.412 . S
Gd2604 O2655 2.362 . S
Gd2604 O2656 2.324 . S
Gd2604 C2663 2.828 . S
Gd2605 N2614 2.661 . S
Gd2605 N2618 2.601 . S
Gd2605 O2649 2.362 . S
Gd2605 O2650 2.324 . S
Gd2605 O2654 2.545 . S
Gd2605 O2655 2.606 . S
Gd2605 O2657 2.429 . S
Gd2605 O2658 2.545 . S
Gd2605 O2659 2.412 . S
Gd2605 C2672 2.828 . S
C2606 C2609 1.417 . S
C2606 C2611 1.431 . S
C2606 C2612 1.412 . S
C2607 C2610 1.437 . S
C2607 C2611 1.317 . S
C2607 H2626 0.929 . S
C2608 C2609 1.426 . S
C2608 C2610 1.413 . S
C2608 N2618 1.359 . S
C2609 C2606 1.417 . S
C2609 C2608 1.426 . S
C2609 N2614 1.350 . S
C2610 C2607 1.437 . S
C2610 C2608 1.413 . S
C2610 C2620 1.391 . S
C2611 C2606 1.431 . S
C2611 C2607 1.317 . S
C2611 H2622 0.930 . S
C2612 C2606 1.412 . S
C2612 C2613 1.355 . S
C2612 H2624 0.930 . S
C2613 C2612 1.355 . S
C2613 C2615 1.402 . S
C2613 H2625 0.930 . S
N2614 Gd2605 2.661 . S
N2614 C2609 1.350 . S
N2614 C2615 1.307 . S
C2615 C2613 1.402 . S
C2615 N2614 1.307 . S
C2615 H2616 0.930 . S
H2616 C2615 0.930 . S
C2617 N2618 1.334 . S
C2617 C2619 1.394 . S
C2617 H2621 0.930 . S
N2618 Gd2605 2.601 . S
N2618 C2608 1.359 . S
N2618 C2617 1.334 . S
C2619 C2617 1.394 . S
C2619 C2620 1.359 . S
C2619 H2631 0.930 . S
C2620 C2610 1.391 . S
C2620 C2619 1.359 . S
C2620 H2632 0.929 . S
H2621 C2617 0.930 . S
H2622 C2611 0.930 . S
H2623 C2640 0.930 . S
H2624 C2612 0.930 . S
H2625 C2613 0.930 . S
H2626 C2607 0.929 . S
H2627 C2645 0.930 . S
H2628 C2636 0.930 . S
H2629 C2637 0.930 . S
H2630 C2661 0.929 . S
H2631 C2619 0.930 . S
H2632 C2620 0.929 . S
H2633 C2662 0.930 . S
H2634 C2643 0.930 . S
N2635 Gd2604 2.661 . S
N2635 C2639 1.350 . S
N2635 C2640 1.307 . S
C2636 H2628 0.930 . S
C2636 C2637 1.355 . S
C2636 C2638 1.412 . S
C2637 H2629 0.930 . S
C2637 C2636 1.355 . S
C2637 C2640 1.402 . S
C2638 C2636 1.412 . S
C2638 C2639 1.417 . S
C2638 C2662 1.431 . S
C2639 N2635 1.350 . S
C2639 C2638 1.417 . S
C2639 C2642 1.426 . S
C2640 H2623 0.930 . S
C2640 N2635 1.307 . S
C2640 C2637 1.402 . S
N2641 Gd2604 2.601 . S
N2641 C2642 1.359 . S
N2641 C2645 1.334 . S
C2642 C2639 1.426 . S
C2642 N2641 1.359 . S
C2642 C2646 1.413 . S
C2643 H2634 0.930 . S
C2643 C2644 1.359 . S
C2643 C2645 1.394 . S
C2644 C2643 1.359 . S
C2644 C2646 1.391 . S
C2644 H2647 0.929 . S
C2645 H2627 0.930 . S
C2645 N2641 1.334 . S
C2645 C2643 1.394 . S
C2646 C2642 1.413 . S
C2646 C2644 1.391 . S
C2646 C2661 1.437 . S
H2647 C2644 0.929 . S
O2648 Gd2604 2.545 . S
O2648 C2663 1.258 . S
O2649 Gd2604 2.606 . S
O2649 Gd2605 2.362 . S
O2649 C2660 1.284 . S
O2650 Gd2605 2.324 . S
O2650 C2670 1.254 . S
O2651 Gd2604 2.429 . S
O2651 C2670 1.268 . S
O2652 Gd2604 2.545 . S
O2652 C2660 1.250 . S
O2653 Gd2604 2.412 . S
O2653 C2663 1.252 . S
O2654 Gd2605 2.545 . S
O2654 C2672 1.258 . S
O2655 Gd2604 2.362 . S
O2655 Gd2605 2.606 . S
O2655 C2671 1.284 . S
O2656 Gd2604 2.324 . S
O2656 C2679 1.254 . S
O2657 Gd2605 2.429 . S
O2657 C2679 1.268 . S
O2658 Gd2605 2.545 . S
O2658 C2671 1.250 . S
O2659 Gd2605 2.412 . S
O2659 C2672 1.252 . S
C2660 O2649 1.284 . S
C2660 O2652 1.250 . S
C2661 H2630 0.929 . S
C2661 C2646 1.437 . S
C2661 C2662 1.317 . S
C2662 H2633 0.930 . S
C2662 C2638 1.431 . S
C2662 C2661 1.317 . S
C2663 Gd2604 2.828 . S
C2663 O2648 1.258 . S
C2663 O2653 1.252 . S
C2663 C2664 1.497 . S
C2664 C2663 1.497 . S
C2664 C2665 1.395 . S
C2664 C2666 1.380 . S
C2665 C2664 1.395 . S
C2665 C2668 1.398 . S
C2665 H2680 0.930 . S
C2666 C2664 1.380 . S
C2666 C2667 1.391 . S
C2666 H2681 0.930 . S
C2667 C2666 1.391 . S
C2667 C2669 1.387 . S
C2668 C2665 1.398 . S
C2668 C2669 1.380 . S
C2668 H2682 0.930 . S
C2669 C2667 1.387 . S
C2669 C2668 1.380 . S
C2669 H2683 0.930 . S
C2670 O2650 1.254 . S
C2670 O2651 1.268 . S
C2671 O2655 1.284 . S
C2671 O2658 1.250 . S
C2672 Gd2605 2.828 . S
C2672 O2654 1.258 . S
C2672 O2659 1.252 . S
C2672 C2673 1.497 . S
C2673 C2672 1.497 . S
C2673 C2674 1.395 . S
C2673 C2675 1.380 . S
C2674 C2673 1.395 . S
C2674 C2677 1.398 . S
C2674 H2684 0.930 . S
C2675 C2673 1.380 . S
C2675 C2676 1.391 . S
C2675 H2685 0.930 . S
C2676 C2675 1.391 . S
C2676 C2678 1.387 . S
C2677 C2674 1.398 . S
C2677 C2678 1.380 . S
C2677 H2686 0.930 . S
C2678 C2676 1.387 . S
C2678 C2677 1.380 . S
C2678 H2687 0.930 . S
C2679 O2656 1.254 . S
C2679 O2657 1.268 . S
H2680 C2665 0.930 . S
H2681 C2666 0.930 . S
H2682 C2668 0.930 . S
H2683 C2669 0.930 . S
H2684 C2674 0.930 . S
H2685 C2675 0.930 . S
H2686 C2677 0.930 . S
H2687 C2678 0.930 . S
H2688 C2706 0.951 . S
H2689 C2708 0.951 . S
H2690 C2710 0.950 . S
H2691 C2711 0.950 . S
H2692 C2713 0.950 . S
H2693 C2716 0.950 . S
H2694 C2717 0.950 . S
H2695 C2719 0.950 1_556 S
H2696 C2720 0.950 . S
H2697 C2721 0.951 . S
H2698 C2723 0.951 . S
H2699 C2725 0.950 . S
H2700 C2726 0.950 . S
H2701 C2728 0.950 . S
H2702 C2731 0.950 . S
H2703 C2732 0.950 . S
H2704 C2734 0.950 . S
H2705 C2735 0.950 . S
C2706 H2688 0.951 . S
C2706 C2707 1.366 . S
C2706 C2708 1.388 . S
C2707 C2706 1.366 . S
C2707 C2711 1.385 . S
C2708 H2689 0.951 . S
C2708 C2706 1.388 . S
C2708 C2709 1.366 . S
C2709 C2708 1.366 . S
C2709 C2710 1.414 . S
C2709 C2712 1.499 . S
C2710 H2690 0.950 . S
C2710 C2709 1.414 . S
C2710 C2711 1.374 . S
C2711 H2691 0.950 . S
C2711 C2707 1.385 . S
C2711 C2710 1.374 . S
C2712 C2709 1.499 . S
C2712 C2713 1.373 . S
C2712 C2714 1.389 . S
C2713 H2692 0.950 . S
C2713 C2712 1.373 . S
C2713 C2729 1.377 . S
C2714 C2712 1.389 . S
C2714 C2715 1.524 . S
C2714 C2728 1.377 . S
C2715 C2714 1.524 . S
C2715 C2716 1.397 . S
C2715 C2720 1.363 . S
C2716 H2693 0.950 . S
C2716 C2715 1.397 . S
C2716 C2717 1.334 . S
C2717 H2694 0.950 . S
C2717 C2716 1.334 . S
C2717 C2718 1.287 . S
C2718 C2717 1.287 . S
C2718 C2719 1.524 . S
C2718 H2737 0.913 . S
C2719 H2695 0.950 1_554 S
C2719 C2718 1.524 . S
C2719 C2720 1.415 . S
C2720 H2696 0.950 . S
C2720 C2715 1.363 . S
C2720 C2719 1.415 . S
C2721 H2697 0.951 . S
C2721 C2722 1.366 . S
C2721 C2723 1.388 . S
C2722 C2721 1.366 . S
C2722 C2726 1.385 . S
C2723 H2698 0.951 . S
C2723 C2721 1.388 . S
C2723 C2724 1.366 . S
C2724 C2723 1.366 . S
C2724 C2725 1.414 . S
C2724 C2727 1.499 . S
C2725 H2699 0.950 . S
C2725 C2724 1.414 . S
C2725 C2726 1.374 . S
C2726 H2700 0.950 . S
C2726 C2722 1.385 . S
C2726 C2725 1.374 . S
C2727 C2724 1.499 . S
C2727 C2728 1.373 . S
C2727 C2729 1.389 . S
C2728 H2701 0.950 . S
C2728 C2714 1.377 . S
C2728 C2727 1.373 . S
C2729 C2713 1.377 . S
C2729 C2727 1.389 . S
C2729 C2730 1.524 . S
C2730 C2729 1.524 . S
C2730 C2731 1.397 . S
C2730 C2735 1.363 . S
C2731 H2702 0.950 . S
C2731 C2730 1.397 . S
C2731 C2732 1.334 . S
C2732 H2703 0.950 . S
C2732 C2731 1.334 . S
C2732 C2733 1.287 . S
C2733 C2732 1.287 . S
C2733 C2734 1.524 . S
C2733 H2736 0.999 . S
C2734 H2704 0.950 . S
C2734 C2733 1.524 . S
C2734 C2735 1.415 . S
C2735 H2705 0.950 . S
C2735 C2730 1.363 . S
C2735 C2734 1.415 . S
H2736 C2733 0.999 . S
H2737 C2718 0.913 . S
H2738 C2756 0.951 . S
H2739 C2758 0.951 . S
H2740 C2760 0.950 . S
H2741 C2761 0.950 . S
H2742 C2763 0.950 . S
H2743 C2766 0.950 . S
H2744 C2767 0.950 . S
H2745 C2769 0.950 . S
H2746 C2770 0.950 . S
H2747 C2771 0.951 . S
H2748 C2773 0.951 . S
H2749 C2775 0.950 . S
H2750 C2776 0.950 . S
H2751 C2778 0.950 . S
H2752 C2781 0.950 . S
H2753 C2782 0.950 . S
H2754 C2784 0.950 . S
H2755 C2785 0.950 . S
C2756 H2738 0.951 . S
C2756 C2757 1.366 . S
C2756 C2758 1.388 . S
C2757 C2756 1.366 . S
C2757 C2761 1.385 . S
C2758 H2739 0.951 . S
C2758 C2756 1.388 . S
C2758 C2759 1.366 . S
C2759 C2758 1.366 . S
C2759 C2760 1.414 . S
C2759 C2762 1.499 . S
C2760 H2740 0.950 . S
C2760 C2759 1.414 . S
C2760 C2761 1.374 . S
C2761 H2741 0.950 . S
C2761 C2757 1.385 . S
C2761 C2760 1.374 . S
C2762 C2759 1.499 . S
C2762 C2763 1.373 . S
C2762 C2764 1.389 . S
C2763 H2742 0.950 . S
C2763 C2762 1.373 . S
C2763 C2779 1.377 . S
C2764 C2762 1.389 . S
C2764 C2765 1.524 . S
C2764 C2778 1.377 . S
C2765 C2764 1.524 . S
C2765 C2766 1.397 . S
C2765 C2770 1.363 . S
C2766 H2743 0.950 . S
C2766 C2765 1.397 . S
C2766 C2767 1.334 . S
C2767 H2744 0.950 . S
C2767 C2766 1.334 . S
C2767 C2768 1.287 . S
C2768 C2767 1.287 . S
C2768 C2769 1.524 . S
C2768 H2787 0.913 . S
C2769 H2745 0.950 . S
C2769 C2768 1.524 . S
C2769 C2770 1.415 . S
C2770 H2746 0.950 . S
C2770 C2765 1.363 . S
C2770 C2769 1.415 . S
C2771 H2747 0.951 . S
C2771 C2772 1.366 . S
C2771 C2773 1.388 . S
C2772 C2771 1.366 . S
C2772 C2776 1.385 . S
C2773 H2748 0.951 . S
C2773 C2771 1.388 . S
C2773 C2774 1.366 . S
C2774 C2773 1.366 . S
C2774 C2775 1.414 . S
C2774 C2777 1.499 . S
C2775 H2749 0.950 . S
C2775 C2774 1.414 . S
C2775 C2776 1.374 . S
C2776 H2750 0.950 . S
C2776 C2772 1.385 . S
C2776 C2775 1.374 . S
C2777 C2774 1.499 . S
C2777 C2778 1.373 . S
C2777 C2779 1.389 . S
C2778 H2751 0.950 . S
C2778 C2764 1.377 . S
C2778 C2777 1.373 . S
C2779 C2763 1.377 . S
C2779 C2777 1.389 . S
C2779 C2780 1.524 . S
C2780 C2779 1.524 . S
C2780 C2781 1.397 . S
C2780 C2785 1.363 . S
C2781 H2752 0.950 . S
C2781 C2780 1.397 . S
C2781 C2782 1.334 . S
C2782 H2753 0.950 . S
C2782 C2781 1.334 . S
C2782 C2783 1.287 . S
C2783 C2782 1.287 . S
C2783 C2784 1.524 . S
C2783 H2786 0.999 . S
C2784 H2754 0.950 . S
C2784 C2783 1.524 . S
C2784 C2785 1.415 . S
C2785 H2755 0.950 . S
C2785 C2780 1.363 . S
C2785 C2784 1.415 . S
H2786 C2783 0.999 . S
H2787 C2768 0.913 . S
H2788 C2806 0.951 . S
H2789 C2808 0.951 . S
H2790 C2810 0.950 . S
H2791 C2811 0.950 . S
H2792 C2813 0.950 . S
H2793 C2816 0.950 . S
H2794 C2817 0.950 . S
H2795 C2819 0.950 . S
H2796 C2820 0.950 . S
H2797 C2821 0.951 . S
H2798 C2823 0.951 . S
H2799 C2825 0.950 . S
H2800 C2826 0.950 . S
H2801 C2828 0.950 . S
H2802 C2831 0.950 . S
H2803 C2832 0.950 . S
H2804 C2834 0.950 . S
H2805 C2835 0.950 . S
C2806 H2788 0.951 . S
C2806 C2807 1.366 . S
C2806 C2808 1.388 . S
C2807 C2806 1.366 . S
C2807 C2811 1.385 . S
C2808 H2789 0.951 . S
C2808 C2806 1.388 . S
C2808 C2809 1.366 . S
C2809 C2808 1.366 . S
C2809 C2810 1.414 . S
C2809 C2812 1.499 . S
C2810 H2790 0.950 . S
C2810 C2809 1.414 . S
C2810 C2811 1.374 . S
C2811 H2791 0.950 . S
C2811 C2807 1.385 . S
C2811 C2810 1.374 . S
C2812 C2809 1.499 . S
C2812 C2813 1.373 . S
C2812 C2814 1.389 . S
C2813 H2792 0.950 . S
C2813 C2812 1.373 . S
C2813 C2829 1.377 . S
C2814 C2812 1.389 . S
C2814 C2815 1.524 . S
C2814 C2828 1.377 . S
C2815 C2814 1.524 . S
C2815 C2816 1.397 . S
C2815 C2820 1.363 . S
C2816 H2793 0.950 . S
C2816 C2815 1.397 . S
C2816 C2817 1.334 . S
C2817 H2794 0.950 . S
C2817 C2816 1.334 . S
C2817 C2818 1.287 . S
C2818 C2817 1.287 . S
C2818 C2819 1.524 . S
C2818 H2837 0.913 . S
C2819 H2795 0.950 . S
C2819 C2818 1.524 . S
C2819 C2820 1.415 . S
C2820 H2796 0.950 . S
C2820 C2815 1.363 . S
C2820 C2819 1.415 . S
C2821 H2797 0.951 . S
C2821 C2822 1.366 . S
C2821 C2823 1.388 . S
C2822 C2821 1.366 . S
C2822 C2826 1.385 . S
C2823 H2798 0.951 . S
C2823 C2821 1.388 . S
C2823 C2824 1.366 . S
C2824 C2823 1.366 . S
C2824 C2825 1.414 . S
C2824 C2827 1.499 . S
C2825 H2799 0.950 . S
C2825 C2824 1.414 . S
C2825 C2826 1.374 . S
C2826 H2800 0.950 . S
C2826 C2822 1.385 . S
C2826 C2825 1.374 . S
C2827 C2824 1.499 . S
C2827 C2828 1.373 . S
C2827 C2829 1.389 . S
C2828 H2801 0.950 . S
C2828 C2814 1.377 . S
C2828 C2827 1.373 . S
C2829 C2813 1.377 . S
C2829 C2827 1.389 . S
C2829 C2830 1.524 . S
C2830 C2829 1.524 . S
C2830 C2831 1.397 . S
C2830 C2835 1.363 . S
C2831 H2802 0.950 . S
C2831 C2830 1.397 . S
C2831 C2832 1.334 . S
C2832 H2803 0.950 . S
C2832 C2831 1.334 . S
C2832 C2833 1.287 . S
C2833 C2832 1.287 . S
C2833 C2834 1.524 . S
C2833 H2836 0.999 . S
C2834 H2804 0.950 . S
C2834 C2833 1.524 . S
C2834 C2835 1.415 . S
C2835 H2805 0.950 . S
C2835 C2830 1.363 . S
C2835 C2834 1.415 . S
H2836 C2833 0.999 . S
H2837 C2818 0.913 . S
H2838 C2856 0.951 . S
H2839 C2858 0.951 . S
H2840 C2860 0.950 . S
H2841 C2861 0.950 . S
H2842 C2863 0.950 . S
H2843 C2866 0.950 . S
H2844 C2867 0.950 . S
H2845 C2869 0.950 . S
H2846 C2870 0.950 . S
H2847 C2871 0.951 . S
H2848 C2873 0.951 . S
H2849 C2875 0.950 . S
H2850 C2876 0.950 . S
H2851 C2878 0.950 . S
H2852 C2881 0.950 . S
H2853 C2882 0.950 . S
H2854 C2884 0.950 . S
H2855 C2885 0.950 . S
C2856 H2838 0.951 . S
C2856 C2857 1.366 . S
C2856 C2858 1.388 . S
C2857 C2856 1.366 . S
C2857 C2861 1.385 . S
C2858 H2839 0.951 . S
C2858 C2856 1.388 . S
C2858 C2859 1.366 . S
C2859 C2858 1.366 . S
C2859 C2860 1.414 . S
C2859 C2862 1.499 . S
C2860 H2840 0.950 . S
C2860 C2859 1.414 . S
C2860 C2861 1.374 . S
C2861 H2841 0.950 . S
C2861 C2857 1.385 . S
C2861 C2860 1.374 . S
C2862 C2859 1.499 . S
C2862 C2863 1.373 . S
C2862 C2864 1.389 . S
C2863 H2842 0.950 . S
C2863 C2862 1.373 . S
C2863 C2879 1.377 . S
C2864 C2862 1.389 . S
C2864 C2865 1.524 . S
C2864 C2878 1.377 . S
C2865 C2864 1.524 . S
C2865 C2866 1.397 . S
C2865 C2870 1.363 . S
C2866 H2843 0.950 . S
C2866 C2865 1.397 . S
C2866 C2867 1.334 . S
C2867 H2844 0.950 . S
C2867 C2866 1.334 . S
C2867 C2868 1.287 . S
C2868 C2867 1.287 . S
C2868 C2869 1.524 . S
C2868 H2887 0.913 . S
C2869 H2845 0.950 . S
C2869 C2868 1.524 . S
C2869 C2870 1.415 . S
C2870 H2846 0.950 . S
C2870 C2865 1.363 . S
C2870 C2869 1.415 . S
C2871 H2847 0.951 . S
C2871 C2872 1.366 . S
C2871 C2873 1.388 . S
C2872 C2871 1.366 . S
C2872 C2876 1.385 . S
C2873 H2848 0.951 . S
C2873 C2871 1.388 . S
C2873 C2874 1.366 . S
C2874 C2873 1.366 . S
C2874 C2875 1.414 . S
C2874 C2877 1.499 . S
C2875 H2849 0.950 . S
C2875 C2874 1.414 . S
C2875 C2876 1.374 . S
C2876 H2850 0.950 . S
C2876 C2872 1.385 . S
C2876 C2875 1.374 . S
C2877 C2874 1.499 . S
C2877 C2878 1.373 . S
C2877 C2879 1.389 . S
C2878 H2851 0.950 . S
C2878 C2864 1.377 . S
C2878 C2877 1.373 . S
C2879 C2863 1.377 . S
C2879 C2877 1.389 . S
C2879 C2880 1.524 . S
C2880 C2879 1.524 . S
C2880 C2881 1.397 . S
C2880 C2885 1.363 . S
C2881 H2852 0.950 . S
C2881 C2880 1.397 . S
C2881 C2882 1.334 . S
C2882 H2853 0.950 . S
C2882 C2881 1.334 . S
C2882 C2883 1.287 . S
C2883 C2882 1.287 . S
C2883 C2884 1.524 . S
C2883 H2886 0.999 . S
C2884 H2854 0.950 . S
C2884 C2883 1.524 . S
C2884 C2885 1.415 . S
C2885 H2855 0.950 . S
C2885 C2880 1.363 . S
C2885 C2884 1.415 . S
H2886 C2883 0.999 . S
H2887 C2868 0.913 . S
H2888 C2906 0.951 . S
H2889 C2908 0.951 . S
H2890 C2910 0.950 . S
H2891 C2911 0.950 . S
H2892 C2913 0.950 . S
H2893 C2916 0.950 . S
H2894 C2917 0.950 . S
H2895 C2919 0.950 . S
H2896 C2920 0.950 . S
H2897 C2921 0.951 . S
H2898 C2923 0.951 . S
H2899 C2925 0.950 . S
H2900 C2926 0.950 . S
H2901 C2928 0.950 . S
H2902 C2931 0.950 . S
H2903 C2932 0.950 . S
H2904 C2934 0.950 . S
H2905 C2935 0.950 . S
C2906 H2888 0.951 . S
C2906 C2907 1.366 . S
C2906 C2908 1.388 . S
C2907 C2906 1.366 . S
C2907 C2911 1.385 . S
C2908 H2889 0.951 . S
C2908 C2906 1.388 . S
C2908 C2909 1.366 . S
C2909 C2908 1.366 . S
C2909 C2910 1.414 . S
C2909 C2912 1.499 . S
C2910 H2890 0.950 . S
C2910 C2909 1.414 . S
C2910 C2911 1.374 . S
C2911 H2891 0.950 . S
C2911 C2907 1.385 . S
C2911 C2910 1.374 . S
C2912 C2909 1.499 . S
C2912 C2913 1.373 . S
C2912 C2914 1.389 . S
C2913 H2892 0.950 . S
C2913 C2912 1.373 . S
C2913 C2929 1.377 . S
C2914 C2912 1.389 . S
C2914 C2915 1.524 . S
C2914 C2928 1.377 . S
C2915 C2914 1.524 . S
C2915 C2916 1.397 . S
C2915 C2920 1.363 . S
C2916 H2893 0.950 . S
C2916 C2915 1.397 . S
C2916 C2917 1.334 . S
C2917 H2894 0.950 . S
C2917 C2916 1.334 . S
C2917 C2918 1.287 . S
C2918 C2917 1.287 . S
C2918 C2919 1.524 . S
C2918 H2937 0.913 . S
C2919 H2895 0.950 . S
C2919 C2918 1.524 . S
C2919 C2920 1.415 . S
C2920 H2896 0.950 . S
C2920 C2915 1.363 . S
C2920 C2919 1.415 . S
C2921 H2897 0.951 . S
C2921 C2922 1.366 . S
C2921 C2923 1.388 . S
C2922 C2921 1.366 . S
C2922 C2926 1.385 . S
C2923 H2898 0.951 . S
C2923 C2921 1.388 . S
C2923 C2924 1.366 . S
C2924 C2923 1.366 . S
C2924 C2925 1.414 . S
C2924 C2927 1.499 . S
C2925 H2899 0.950 . S
C2925 C2924 1.414 . S
C2925 C2926 1.374 . S
C2926 H2900 0.950 . S
C2926 C2922 1.385 . S
C2926 C2925 1.374 . S
C2927 C2924 1.499 . S
C2927 C2928 1.373 . S
C2927 C2929 1.389 . S
C2928 H2901 0.950 . S
C2928 C2914 1.377 . S
C2928 C2927 1.373 . S
C2929 C2913 1.377 . S
C2929 C2927 1.389 . S
C2929 C2930 1.524 . S
C2930 C2929 1.524 . S
C2930 C2931 1.397 . S
C2930 C2935 1.363 . S
C2931 H2902 0.950 . S
C2931 C2930 1.397 . S
C2931 C2932 1.334 . S
C2932 H2903 0.950 . S
C2932 C2931 1.334 . S
C2932 C2933 1.287 . S
C2933 C2932 1.287 . S
C2933 C2934 1.524 . S
C2933 H2936 0.999 . S
C2934 H2904 0.950 . S
C2934 C2933 1.524 . S
C2934 C2935 1.415 . S
C2935 H2905 0.950 . S
C2935 C2930 1.363 . S
C2935 C2934 1.415 . S
H2936 C2933 0.999 . S
H2937 C2918 0.913 . S
H2938 C2956 0.951 . S
H2939 C2958 0.951 . S
H2940 C2960 0.950 . S
H2941 C2961 0.950 . S
H2942 C2963 0.950 . S
H2943 C2966 0.950 . S
H2944 C2967 0.950 . S
H2945 C2969 0.950 . S
H2946 C2970 0.950 . S
H2947 C2971 0.951 . S
H2948 C2973 0.951 . S
H2949 C2975 0.950 . S
H2950 C2976 0.950 . S
H2951 C2978 0.950 . S
H2952 C2981 0.950 . S
H2953 C2982 0.950 . S
H2954 C2984 0.950 . S
H2955 C2985 0.950 . S
C2956 H2938 0.951 . S
C2956 C2957 1.366 . S
C2956 C2958 1.388 . S
C2957 C2956 1.366 . S
C2957 C2961 1.385 . S
C2958 H2939 0.951 . S
C2958 C2956 1.388 . S
C2958 C2959 1.366 . S
C2959 C2958 1.366 . S
C2959 C2960 1.414 . S
C2959 C2962 1.499 . S
C2960 H2940 0.950 . S
C2960 C2959 1.414 . S
C2960 C2961 1.374 . S
C2961 H2941 0.950 . S
C2961 C2957 1.385 . S
C2961 C2960 1.374 . S
C2962 C2959 1.499 . S
C2962 C2963 1.373 . S
C2962 C2964 1.389 . S
C2963 H2942 0.950 . S
C2963 C2962 1.373 . S
C2963 C2979 1.377 . S
C2964 C2962 1.389 . S
C2964 C2965 1.524 . S
C2964 C2978 1.377 . S
C2965 C2964 1.524 . S
C2965 C2966 1.397 . S
C2965 C2970 1.363 . S
C2966 H2943 0.950 . S
C2966 C2965 1.397 . S
C2966 C2967 1.334 1_556 S
C2967 H2944 0.950 . S
C2967 C2966 1.334 1_554 S
C2967 C2968 1.287 . S
C2968 C2967 1.287 . S
C2968 C2969 1.524 . S
C2968 H2987 0.913 . S
C2969 H2945 0.950 . S
C2969 C2968 1.524 . S
C2969 C2970 1.415 1_554 S
C2970 H2946 0.950 . S
C2970 C2965 1.363 . S
C2970 C2969 1.415 1_556 S
C2971 H2947 0.951 . S
C2971 C2972 1.366 . S
C2971 C2973 1.388 . S
C2972 C2971 1.366 . S
C2972 C2976 1.385 . S
C2973 H2948 0.951 . S
C2973 C2971 1.388 . S
C2973 C2974 1.366 . S
C2974 C2973 1.366 . S
C2974 C2975 1.414 . S
C2974 C2977 1.499 . S
C2975 H2949 0.950 . S
C2975 C2974 1.414 . S
C2975 C2976 1.374 . S
C2976 H2950 0.950 . S
C2976 C2972 1.385 . S
C2976 C2975 1.374 . S
C2977 C2974 1.499 . S
C2977 C2978 1.373 . S
C2977 C2979 1.389 . S
C2978 H2951 0.950 . S
C2978 C2964 1.377 . S
C2978 C2977 1.373 . S
C2979 C2963 1.377 . S
C2979 C2977 1.389 . S
C2979 C2980 1.524 . S
C2980 C2979 1.524 . S
C2980 C2981 1.397 . S
C2980 C2985 1.363 . S
C2981 H2952 0.950 . S
C2981 C2980 1.397 . S
C2981 C2982 1.334 . S
C2982 H2953 0.950 . S
C2982 C2981 1.334 . S
C2982 C2983 1.287 . S
C2983 C2982 1.287 . S
C2983 C2984 1.524 . S
C2983 H2986 0.999 . S
C2984 H2954 0.950 . S
C2984 C2983 1.524 . S
C2984 C2985 1.415 . S
C2985 H2955 0.950 . S
C2985 C2980 1.363 . S
C2985 C2984 1.415 . S
H2986 C2983 0.999 . S
H2987 C2968 0.913 . S
H2988 C3006 0.951 . S
H2989 C3008 0.951 . S
H2990 C3010 0.950 . S
H2991 C3011 0.950 . S
H2992 C3013 0.950 . S
H2993 C3016 0.950 . S
H2994 C3017 0.950 . S
H2995 C3019 0.950 . S
H2996 C3020 0.950 . S
H2997 C3021 0.951 . S
H2998 C3023 0.951 . S
H2999 C3025 0.950 . S
H3000 C3026 0.950 . S
H3001 C3028 0.950 . S
H3002 C3031 0.950 . S
H3003 C3032 0.950 . S
H3004 C3034 0.950 . S
H3005 C3035 0.950 . S
C3006 H2988 0.951 . S
C3006 C3007 1.366 . S
C3006 C3008 1.388 . S
C3007 C3006 1.366 . S
C3007 C3011 1.385 . S
C3008 H2989 0.951 . S
C3008 C3006 1.388 . S
C3008 C3009 1.366 . S
C3009 C3008 1.366 . S
C3009 C3010 1.414 . S
C3009 C3012 1.499 . S
C3010 H2990 0.950 . S
C3010 C3009 1.414 . S
C3010 C3011 1.374 . S
C3011 H2991 0.950 . S
C3011 C3007 1.385 . S
C3011 C3010 1.374 . S
C3012 C3009 1.499 . S
C3012 C3013 1.373 . S
C3012 C3014 1.389 . S
C3013 H2992 0.950 . S
C3013 C3012 1.373 . S
C3013 C3029 1.377 . S
C3014 C3012 1.389 . S
C3014 C3015 1.524 . S
C3014 C3028 1.377 . S
C3015 C3014 1.524 . S
C3015 C3016 1.397 . S
C3015 C3020 1.363 . S
C3016 H2993 0.950 . S
C3016 C3015 1.397 . S
C3016 C3017 1.334 . S
C3017 H2994 0.950 . S
C3017 C3016 1.334 . S
C3017 C3018 1.287 . S
C3018 C3017 1.287 . S
C3018 C3019 1.524 . S
C3018 H3037 0.913 . S
C3019 H2995 0.950 . S
C3019 C3018 1.524 . S
C3019 C3020 1.415 . S
C3020 H2996 0.950 . S
C3020 C3015 1.363 . S
C3020 C3019 1.415 . S
C3021 H2997 0.951 . S
C3021 C3022 1.366 . S
C3021 C3023 1.388 . S
C3022 C3021 1.366 . S
C3022 C3026 1.385 . S
C3023 H2998 0.951 . S
C3023 C3021 1.388 . S
C3023 C3024 1.366 . S
C3024 C3023 1.366 . S
C3024 C3025 1.414 . S
C3024 C3027 1.499 . S
C3025 H2999 0.950 . S
C3025 C3024 1.414 . S
C3025 C3026 1.374 . S
C3026 H3000 0.950 . S
C3026 C3022 1.385 . S
C3026 C3025 1.374 . S
C3027 C3024 1.499 . S
C3027 C3028 1.373 . S
C3027 C3029 1.389 . S
C3028 H3001 0.950 . S
C3028 C3014 1.377 . S
C3028 C3027 1.373 . S
C3029 C3013 1.377 . S
C3029 C3027 1.389 . S
C3029 C3030 1.524 . S
C3030 C3029 1.524 . S
C3030 C3031 1.397 . S
C3030 C3035 1.363 . S
C3031 H3002 0.950 . S
C3031 C3030 1.397 . S
C3031 C3032 1.334 . S
C3032 H3003 0.950 . S
C3032 C3031 1.334 . S
C3032 C3033 1.287 . S
C3033 C3032 1.287 . S
C3033 C3034 1.524 . S
C3033 H3036 0.999 . S
C3034 H3004 0.950 . S
C3034 C3033 1.524 . S
C3034 C3035 1.415 . S
C3035 H3005 0.950 . S
C3035 C3030 1.363 . S
C3035 C3034 1.415 . S
H3036 C3033 0.999 . S
H3037 C3018 0.913 . S
H3038 C3056 0.951 . S
H3039 C3058 0.951 . S
H3040 C3060 0.950 . S
H3041 C3061 0.950 . S
H3042 C3063 0.950 . S
H3043 C3066 0.950 . S
H3044 C3067 0.950 . S
H3045 C3069 0.950 . S
H3046 C3070 0.950 . S
H3047 C3071 0.951 . S
H3048 C3073 0.951 . S
H3049 C3075 0.950 . S
H3050 C3076 0.950 . S
H3051 C3078 0.950 . S
H3052 C3081 0.950 . S
H3053 C3082 0.950 . S
H3054 C3084 0.950 . S
H3055 C3085 0.950 . S
C3056 H3038 0.951 . S
C3056 C3057 1.366 . S
C3056 C3058 1.388 . S
C3057 C3056 1.366 . S
C3057 C3061 1.385 . S
C3058 H3039 0.951 . S
C3058 C3056 1.388 . S
C3058 C3059 1.366 . S
C3059 C3058 1.366 . S
C3059 C3060 1.414 . S
C3059 C3062 1.499 . S
C3060 H3040 0.950 . S
C3060 C3059 1.414 . S
C3060 C3061 1.374 . S
C3061 H3041 0.950 . S
C3061 C3057 1.385 . S
C3061 C3060 1.374 . S
C3062 C3059 1.499 . S
C3062 C3063 1.373 . S
C3062 C3064 1.389 . S
C3063 H3042 0.950 . S
C3063 C3062 1.373 . S
C3063 C3079 1.377 . S
C3064 C3062 1.389 . S
C3064 C3065 1.524 . S
C3064 C3078 1.377 . S
C3065 C3064 1.524 . S
C3065 C3066 1.397 . S
C3065 C3070 1.363 . S
C3066 H3043 0.950 . S
C3066 C3065 1.397 . S
C3066 C3067 1.334 . S
C3067 H3044 0.950 . S
C3067 C3066 1.334 . S
C3067 C3068 1.287 . S
C3068 C3067 1.287 . S
C3068 C3069 1.524 . S
C3068 H3087 0.913 . S
C3069 H3045 0.950 . S
C3069 C3068 1.524 . S
C3069 C3070 1.415 . S
C3070 H3046 0.950 . S
C3070 C3065 1.363 . S
C3070 C3069 1.415 . S
C3071 H3047 0.951 . S
C3071 C3072 1.366 . S
C3071 C3073 1.388 . S
C3072 C3071 1.366 . S
C3072 C3076 1.385 . S
C3073 H3048 0.951 . S
C3073 C3071 1.388 . S
C3073 C3074 1.366 . S
C3074 C3073 1.366 . S
C3074 C3075 1.414 . S
C3074 C3077 1.499 . S
C3075 H3049 0.950 . S
C3075 C3074 1.414 . S
C3075 C3076 1.374 . S
C3076 H3050 0.950 . S
C3076 C3072 1.385 . S
C3076 C3075 1.374 . S
C3077 C3074 1.499 . S
C3077 C3078 1.373 . S
C3077 C3079 1.389 . S
C3078 H3051 0.950 . S
C3078 C3064 1.377 . S
C3078 C3077 1.373 . S
C3079 C3063 1.377 . S
C3079 C3077 1.389 . S
C3079 C3080 1.524 . S
C3080 C3079 1.524 . S
C3080 C3081 1.397 . S
C3080 C3085 1.363 . S
C3081 H3052 0.950 . S
C3081 C3080 1.397 . S
C3081 C3082 1.334 . S
C3082 H3053 0.950 . S
C3082 C3081 1.334 . S
C3082 C3083 1.287 . S
C3083 C3082 1.287 . S
C3083 C3084 1.524 . S
C3083 H3086 0.999 . S
C3084 H3054 0.950 . S
C3084 C3083 1.524 . S
C3084 C3085 1.415 . S
C3085 H3055 0.950 . S
C3085 C3080 1.363 . S
C3085 C3084 1.415 . S
H3086 C3083 0.999 . S
H3087 C3068 0.913 . S
H3088 C3106 0.951 . S
H3089 C3108 0.951 . S
H3090 C3110 0.950 . S
H3091 C3111 0.950 . S
H3092 C3113 0.950 . S
H3093 C3116 0.950 . S
H3094 C3117 0.950 . S
H3095 C3119 0.950 . S
H3096 C3120 0.950 . S
H3097 C3121 0.951 . S
H3098 C3123 0.951 . S
H3099 C3125 0.950 . S
H3100 C3126 0.950 . S
H3101 C3128 0.950 . S
H3102 C3131 0.950 . S
H3103 C3132 0.950 . S
H3104 C3134 0.950 . S
H3105 C3135 0.950 . S
C3106 H3088 0.951 . S
C3106 C3107 1.366 . S
C3106 C3108 1.388 . S
C3107 C3106 1.366 . S
C3107 C3111 1.385 . S
C3108 H3089 0.951 . S
C3108 C3106 1.388 . S
C3108 C3109 1.366 . S
C3109 C3108 1.366 . S
C3109 C3110 1.414 . S
C3109 C3112 1.499 . S
C3110 H3090 0.950 . S
C3110 C3109 1.414 . S
C3110 C3111 1.374 . S
C3111 H3091 0.950 . S
C3111 C3107 1.385 . S
C3111 C3110 1.374 . S
C3112 C3109 1.499 . S
C3112 C3113 1.373 . S
C3112 C3114 1.389 . S
C3113 H3092 0.950 . S
C3113 C3112 1.373 . S
C3113 C3129 1.377 . S
C3114 C3112 1.389 . S
C3114 C3115 1.524 . S
C3114 C3128 1.377 . S
C3115 C3114 1.524 . S
C3115 C3116 1.397 . S
C3115 C3120 1.363 . S
C3116 H3093 0.950 . S
C3116 C3115 1.397 . S
C3116 C3117 1.334 . S
C3117 H3094 0.950 . S
C3117 C3116 1.334 . S
C3117 C3118 1.287 . S
C3118 C3117 1.287 . S
C3118 C3119 1.524 . S
C3118 H3137 0.913 . S
C3119 H3095 0.950 . S
C3119 C3118 1.524 . S
C3119 C3120 1.415 . S
C3120 H3096 0.950 . S
C3120 C3115 1.363 . S
C3120 C3119 1.415 . S
C3121 H3097 0.951 . S
C3121 C3122 1.366 . S
C3121 C3123 1.388 . S
C3122 C3121 1.366 . S
C3122 C3126 1.385 . S
C3123 H3098 0.951 . S
C3123 C3121 1.388 . S
C3123 C3124 1.366 . S
C3124 C3123 1.366 . S
C3124 C3125 1.414 . S
C3124 C3127 1.499 . S
C3125 H3099 0.950 . S
C3125 C3124 1.414 . S
C3125 C3126 1.374 . S
C3126 H3100 0.950 . S
C3126 C3122 1.385 . S
C3126 C3125 1.374 . S
C3127 C3124 1.499 . S
C3127 C3128 1.373 . S
C3127 C3129 1.389 . S
C3128 H3101 0.950 . S
C3128 C3114 1.377 . S
C3128 C3127 1.373 . S
C3129 C3113 1.377 . S
C3129 C3127 1.389 . S
C3129 C3130 1.524 . S
C3130 C3129 1.524 . S
C3130 C3131 1.397 . S
C3130 C3135 1.363 . S
C3131 H3102 0.950 . S
C3131 C3130 1.397 . S
C3131 C3132 1.334 . S
C3132 H3103 0.950 . S
C3132 C3131 1.334 . S
C3132 C3133 1.287 . S
C3133 C3132 1.287 . S
C3133 C3134 1.524 . S
C3133 H3136 0.999 . S
C3134 H3104 0.950 . S
C3134 C3133 1.524 . S
C3134 C3135 1.415 . S
C3135 H3105 0.950 . S
C3135 C3130 1.363 . S
C3135 C3134 1.415 . S
H3136 C3133 0.999 . S
H3137 C3118 0.913 . S
H3138 C3156 0.951 . S
H3139 C3158 0.951 . S
H3140 C3160 0.950 . S
H3141 C3161 0.950 . S
H3142 C3163 0.950 . S
H3143 C3166 0.950 . S
H3144 C3167 0.950 . S
H3145 C3169 0.950 . S
H3146 C3170 0.950 . S
H3147 C3171 0.951 . S
H3148 C3173 0.951 . S
H3149 C3175 0.950 . S
H3150 C3176 0.950 . S
H3151 C3178 0.950 . S
H3152 C3181 0.950 . S
H3153 C3182 0.950 . S
H3154 C3184 0.950 . S
H3155 C3185 0.950 . S
C3156 H3138 0.951 . S
C3156 C3157 1.366 . S
C3156 C3158 1.388 . S
C3157 C3156 1.366 . S
C3157 C3161 1.385 . S
C3158 H3139 0.951 . S
C3158 C3156 1.388 . S
C3158 C3159 1.366 . S
C3159 C3158 1.366 . S
C3159 C3160 1.414 . S
C3159 C3162 1.499 . S
C3160 H3140 0.950 . S
C3160 C3159 1.414 . S
C3160 C3161 1.374 . S
C3161 H3141 0.950 . S
C3161 C3157 1.385 . S
C3161 C3160 1.374 . S
C3162 C3159 1.499 . S
C3162 C3163 1.373 . S
C3162 C3164 1.389 . S
C3163 H3142 0.950 . S
C3163 C3162 1.373 . S
C3163 C3179 1.377 . S
C3164 C3162 1.389 . S
C3164 C3165 1.524 . S
C3164 C3178 1.377 . S
C3165 C3164 1.524 . S
C3165 C3166 1.397 . S
C3165 C3170 1.363 . S
C3166 H3143 0.950 . S
C3166 C3165 1.397 . S
C3166 C3167 1.334 . S
C3167 H3144 0.950 . S
C3167 C3166 1.334 . S
C3167 C3168 1.287 . S
C3168 C3167 1.287 . S
C3168 C3169 1.524 . S
C3168 H3187 0.913 . S
C3169 H3145 0.950 . S
C3169 C3168 1.524 . S
C3169 C3170 1.415 . S
C3170 H3146 0.950 . S
C3170 C3165 1.363 . S
C3170 C3169 1.415 . S
C3171 H3147 0.951 . S
C3171 C3172 1.366 . S
C3171 C3173 1.388 . S
C3172 C3171 1.366 . S
C3172 C3176 1.385 . S
C3173 H3148 0.951 . S
C3173 C3171 1.388 . S
C3173 C3174 1.366 . S
C3174 C3173 1.366 . S
C3174 C3175 1.414 . S
C3174 C3177 1.499 . S
C3175 H3149 0.950 . S
C3175 C3174 1.414 . S
C3175 C3176 1.374 . S
C3176 H3150 0.950 . S
C3176 C3172 1.385 . S
C3176 C3175 1.374 . S
C3177 C3174 1.499 . S
C3177 C3178 1.373 . S
C3177 C3179 1.389 . S
C3178 H3151 0.950 . S
C3178 C3164 1.377 . S
C3178 C3177 1.373 . S
C3179 C3163 1.377 . S
C3179 C3177 1.389 . S
C3179 C3180 1.524 . S
C3180 C3179 1.524 . S
C3180 C3181 1.397 . S
C3180 C3185 1.363 . S
C3181 H3152 0.950 . S
C3181 C3180 1.397 . S
C3181 C3182 1.334 . S
C3182 H3153 0.950 . S
C3182 C3181 1.334 . S
C3182 C3183 1.287 . S
C3183 C3182 1.287 . S
C3183 C3184 1.524 . S
C3183 H3186 0.999 1_655 S
C3184 H3154 0.950 . S
C3184 C3183 1.524 . S
C3184 C3185 1.415 . S
C3185 H3155 0.950 . S
C3185 C3180 1.363 . S
C3185 C3184 1.415 . S
H3186 C3183 0.999 1_455 S
H3187 C3168 0.913 . S
H3188 C3206 0.951 . S
H3189 C3208 0.951 . S
H3190 C3210 0.950 . S
H3191 C3211 0.950 . S
H3192 C3213 0.950 . S
H3193 C3216 0.950 . S
H3194 C3217 0.950 . S
H3195 C3219 0.950 . S
H3196 C3220 0.950 . S
H3197 C3221 0.951 . S
H3198 C3223 0.951 . S
H3199 C3225 0.950 . S
H3200 C3226 0.950 . S
H3201 C3228 0.950 . S
H3202 C3231 0.950 . S
H3203 C3232 0.950 . S
H3204 C3234 0.950 . S
H3205 C3235 0.950 . S
C3206 H3188 0.951 . S
C3206 C3207 1.366 . S
C3206 C3208 1.388 . S
C3207 C3206 1.366 . S
C3207 C3211 1.385 . S
C3208 H3189 0.951 . S
C3208 C3206 1.388 . S
C3208 C3209 1.366 . S
C3209 C3208 1.366 . S
C3209 C3210 1.414 . S
C3209 C3212 1.499 . S
C3210 H3190 0.950 . S
C3210 C3209 1.414 . S
C3210 C3211 1.374 . S
C3211 H3191 0.950 . S
C3211 C3207 1.385 . S
C3211 C3210 1.374 . S
C3212 C3209 1.499 . S
C3212 C3213 1.373 . S
C3212 C3214 1.389 . S
C3213 H3192 0.950 . S
C3213 C3212 1.373 . S
C3213 C3229 1.377 . S
C3214 C3212 1.389 . S
C3214 C3215 1.524 . S
C3214 C3228 1.377 . S
C3215 C3214 1.524 . S
C3215 C3216 1.397 . S
C3215 C3220 1.363 . S
C3216 H3193 0.950 . S
C3216 C3215 1.397 . S
C3216 C3217 1.334 . S
C3217 H3194 0.950 . S
C3217 C3216 1.334 . S
C3217 C3218 1.287 . S
C3218 C3217 1.287 . S
C3218 C3219 1.524 . S
C3218 H3237 0.913 . S
C3219 H3195 0.950 . S
C3219 C3218 1.524 . S
C3219 C3220 1.415 . S
C3220 H3196 0.950 . S
C3220 C3215 1.363 . S
C3220 C3219 1.415 . S
C3221 H3197 0.951 . S
C3221 C3222 1.366 . S
C3221 C3223 1.388 . S
C3222 C3221 1.366 . S
C3222 C3226 1.385 . S
C3223 H3198 0.951 . S
C3223 C3221 1.388 . S
C3223 C3224 1.366 . S
C3224 C3223 1.366 . S
C3224 C3225 1.414 . S
C3224 C3227 1.499 . S
C3225 H3199 0.950 . S
C3225 C3224 1.414 . S
C3225 C3226 1.374 . S
C3226 H3200 0.950 . S
C3226 C3222 1.385 . S
C3226 C3225 1.374 . S
C3227 C3224 1.499 . S
C3227 C3228 1.373 . S
C3227 C3229 1.389 . S
C3228 H3201 0.950 . S
C3228 C3214 1.377 . S
C3228 C3227 1.373 . S
C3229 C3213 1.377 . S
C3229 C3227 1.389 . S
C3229 C3230 1.524 . S
C3230 C3229 1.524 . S
C3230 C3231 1.397 . S
C3230 C3235 1.363 . S
C3231 H3202 0.950 . S
C3231 C3230 1.397 . S
C3231 C3232 1.334 . S
C3232 H3203 0.950 . S
C3232 C3231 1.334 . S
C3232 C3233 1.287 . S
C3233 C3232 1.287 . S
C3233 C3234 1.524 . S
C3233 H3236 0.999 . S
C3234 H3204 0.950 . S
C3234 C3233 1.524 . S
C3234 C3235 1.415 . S
C3235 H3205 0.950 . S
C3235 C3230 1.363 . S
C3235 C3234 1.415 . S
H3236 C3233 0.999 . S
H3237 C3218 0.913 . S
H3238 C3256 0.951 . S
H3239 C3258 0.951 . S
H3240 C3260 0.950 . S
H3241 C3261 0.950 . S
H3242 C3263 0.950 . S
H3243 C3266 0.950 . S
H3244 C3267 0.950 . S
H3245 C3269 0.950 . S
H3246 C3270 0.950 . S
H3247 C3271 0.951 . S
H3248 C3273 0.951 . S
H3249 C3275 0.950 . S
H3250 C3276 0.950 . S
H3251 C3278 0.950 . S
H3252 C3281 0.950 . S
H3253 C3282 0.950 . S
H3254 C3284 0.950 . S
H3255 C3285 0.950 . S
C3256 H3238 0.951 . S
C3256 C3257 1.366 . S
C3256 C3258 1.388 . S
C3257 C3256 1.366 . S
C3257 C3261 1.385 . S
C3258 H3239 0.951 . S
C3258 C3256 1.388 . S
C3258 C3259 1.366 . S
C3259 C3258 1.366 . S
C3259 C3260 1.414 . S
C3259 C3262 1.499 . S
C3260 H3240 0.950 . S
C3260 C3259 1.414 . S
C3260 C3261 1.374 . S
C3261 H3241 0.950 . S
C3261 C3257 1.385 . S
C3261 C3260 1.374 . S
C3262 C3259 1.499 . S
C3262 C3263 1.373 . S
C3262 C3264 1.389 . S
C3263 H3242 0.950 . S
C3263 C3262 1.373 . S
C3263 C3279 1.377 . S
C3264 C3262 1.389 . S
C3264 C3265 1.524 . S
C3264 C3278 1.377 . S
C3265 C3264 1.524 . S
C3265 C3266 1.397 . S
C3265 C3270 1.363 . S
C3266 H3243 0.950 . S
C3266 C3265 1.397 . S
C3266 C3267 1.334 . S
C3267 H3244 0.950 . S
C3267 C3266 1.334 . S
C3267 C3268 1.287 . S
C3268 C3267 1.287 . S
C3268 C3269 1.524 . S
C3268 H3287 0.913 . S
C3269 H3245 0.950 . S
C3269 C3268 1.524 . S
C3269 C3270 1.415 . S
C3270 H3246 0.950 . S
C3270 C3265 1.363 . S
C3270 C3269 1.415 . S
C3271 H3247 0.951 . S
C3271 C3272 1.366 . S
C3271 C3273 1.388 . S
C3272 C3271 1.366 . S
C3272 C3276 1.385 . S
C3273 H3248 0.951 . S
C3273 C3271 1.388 . S
C3273 C3274 1.366 . S
C3274 C3273 1.366 . S
C3274 C3275 1.414 . S
C3274 C3277 1.499 . S
C3275 H3249 0.950 . S
C3275 C3274 1.414 . S
C3275 C3276 1.374 . S
C3276 H3250 0.950 . S
C3276 C3272 1.385 . S
C3276 C3275 1.374 . S
C3277 C3274 1.499 . S
C3277 C3278 1.373 . S
C3277 C3279 1.389 . S
C3278 H3251 0.950 . S
C3278 C3264 1.377 . S
C3278 C3277 1.373 . S
C3279 C3263 1.377 . S
C3279 C3277 1.389 . S
C3279 C3280 1.524 . S
C3280 C3279 1.524 . S
C3280 C3281 1.397 . S
C3280 C3285 1.363 . S
C3281 H3252 0.950 . S
C3281 C3280 1.397 . S
C3281 C3282 1.334 . S
C3282 H3253 0.950 . S
C3282 C3281 1.334 . S
C3282 C3283 1.287 . S
C3283 C3282 1.287 . S
C3283 C3284 1.524 . S
C3283 H3286 0.999 . S
C3284 H3254 0.950 . S
C3284 C3283 1.524 . S
C3284 C3285 1.415 . S
C3285 H3255 0.950 . S
C3285 C3280 1.363 . S
C3285 C3284 1.415 . S
H3286 C3283 0.999 . S
H3287 C3268 0.913 . S
H3288 C3306 0.951 . S
H3289 C3308 0.951 . S
H3290 C3310 0.950 . S
H3291 C3311 0.950 . S
H3292 C3313 0.950 . S
H3293 C3316 0.950 . S
H3294 C3317 0.950 . S
H3295 C3319 0.950 . S
H3296 C3320 0.950 . S
H3297 C3321 0.951 . S
H3298 C3323 0.951 . S
H3299 C3325 0.950 . S
H3300 C3326 0.950 . S
H3301 C3328 0.950 . S
H3302 C3331 0.950 . S
H3303 C3332 0.950 . S
H3304 C3334 0.950 . S
H3305 C3335 0.950 . S
C3306 H3288 0.951 . S
C3306 C3307 1.366 . S
C3306 C3308 1.388 . S
C3307 C3306 1.366 . S
C3307 C3311 1.385 . S
C3308 H3289 0.951 . S
C3308 C3306 1.388 . S
C3308 C3309 1.366 . S
C3309 C3308 1.366 . S
C3309 C3310 1.414 . S
C3309 C3312 1.499 . S
C3310 H3290 0.950 . S
C3310 C3309 1.414 . S
C3310 C3311 1.374 . S
C3311 H3291 0.950 . S
C3311 C3307 1.385 . S
C3311 C3310 1.374 . S
C3312 C3309 1.499 . S
C3312 C3313 1.373 . S
C3312 C3314 1.389 . S
C3313 H3292 0.950 . S
C3313 C3312 1.373 . S
C3313 C3329 1.377 . S
C3314 C3312 1.389 . S
C3314 C3315 1.524 . S
C3314 C3328 1.377 . S
C3315 C3314 1.524 . S
C3315 C3316 1.397 . S
C3315 C3320 1.363 . S
C3316 H3293 0.950 . S
C3316 C3315 1.397 . S
C3316 C3317 1.334 . S
C3317 H3294 0.950 . S
C3317 C3316 1.334 . S
C3317 C3318 1.287 . S
C3318 C3317 1.287 . S
C3318 C3319 1.524 . S
C3318 H3337 0.913 . S
C3319 H3295 0.950 . S
C3319 C3318 1.524 . S
C3319 C3320 1.415 . S
C3320 H3296 0.950 . S
C3320 C3315 1.363 . S
C3320 C3319 1.415 . S
C3321 H3297 0.951 . S
C3321 C3322 1.366 . S
C3321 C3323 1.388 . S
C3322 C3321 1.366 . S
C3322 C3326 1.385 . S
C3323 H3298 0.951 . S
C3323 C3321 1.388 . S
C3323 C3324 1.366 . S
C3324 C3323 1.366 . S
C3324 C3325 1.414 . S
C3324 C3327 1.499 . S
C3325 H3299 0.950 . S
C3325 C3324 1.414 . S
C3325 C3326 1.374 . S
C3326 H3300 0.950 . S
C3326 C3322 1.385 . S
C3326 C3325 1.374 . S
C3327 C3324 1.499 . S
C3327 C3328 1.373 . S
C3327 C3329 1.389 . S
C3328 H3301 0.950 . S
C3328 C3314 1.377 . S
C3328 C3327 1.373 . S
C3329 C3313 1.377 . S
C3329 C3327 1.389 . S
C3329 C3330 1.524 . S
C3330 C3329 1.524 . S
C3330 C3331 1.397 . S
C3330 C3335 1.363 . S
C3331 H3302 0.950 . S
C3331 C3330 1.397 . S
C3331 C3332 1.334 . S
C3332 H3303 0.950 . S
C3332 C3331 1.334 . S
C3332 C3333 1.287 . S
C3333 C3332 1.287 . S
C3333 C3334 1.524 . S
C3333 H3336 0.999 . S
C3334 H3304 0.950 . S
C3334 C3333 1.524 . S
C3334 C3335 1.415 . S
C3335 H3305 0.950 . S
C3335 C3330 1.363 . S
C3335 C3334 1.415 . S
H3336 C3333 0.999 . S
H3337 C3318 0.913 . S
H3338 C3356 0.951 . S
H3339 C3358 0.951 . S
H3340 C3360 0.950 . S
H3341 C3361 0.950 . S
H3342 C3363 0.950 . S
H3343 C3366 0.950 . S
H3344 C3367 0.950 . S
H3345 C3369 0.950 . S
H3346 C3370 0.950 . S
H3347 C3371 0.951 . S
H3348 C3373 0.951 . S
H3349 C3375 0.950 . S
H3350 C3376 0.950 . S
H3351 C3378 0.950 . S
H3352 C3381 0.950 . S
H3353 C3382 0.950 . S
H3354 C3384 0.950 . S
H3355 C3385 0.950 . S
C3356 H3338 0.951 . S
C3356 C3357 1.366 . S
C3356 C3358 1.388 . S
C3357 C3356 1.366 . S
C3357 C3361 1.385 . S
C3358 H3339 0.951 . S
C3358 C3356 1.388 . S
C3358 C3359 1.366 . S
C3359 C3358 1.366 . S
C3359 C3360 1.414 . S
C3359 C3362 1.499 . S
C3360 H3340 0.950 . S
C3360 C3359 1.414 . S
C3360 C3361 1.374 . S
C3361 H3341 0.950 . S
C3361 C3357 1.385 . S
C3361 C3360 1.374 . S
C3362 C3359 1.499 . S
C3362 C3363 1.373 . S
C3362 C3364 1.389 . S
C3363 H3342 0.950 . S
C3363 C3362 1.373 . S
C3363 C3379 1.377 . S
C3364 C3362 1.389 . S
C3364 C3365 1.524 . S
C3364 C3378 1.377 . S
C3365 C3364 1.524 . S
C3365 C3366 1.397 . S
C3365 C3370 1.363 . S
C3366 H3343 0.950 . S
C3366 C3365 1.397 . S
C3366 C3367 1.334 . S
C3367 H3344 0.950 . S
C3367 C3366 1.334 . S
C3367 C3368 1.287 . S
C3368 C3367 1.287 . S
C3368 C3369 1.524 . S
C3368 H3387 0.913 . S
C3369 H3345 0.950 . S
C3369 C3368 1.524 . S
C3369 C3370 1.415 . S
C3370 H3346 0.950 . S
C3370 C3365 1.363 . S
C3370 C3369 1.415 . S
C3371 H3347 0.951 . S
C3371 C3372 1.366 . S
C3371 C3373 1.388 . S
C3372 C3371 1.366 . S
C3372 C3376 1.385 . S
C3373 H3348 0.951 . S
C3373 C3371 1.388 . S
C3373 C3374 1.366 . S
C3374 C3373 1.366 . S
C3374 C3375 1.414 . S
C3374 C3377 1.499 . S
C3375 H3349 0.950 . S
C3375 C3374 1.414 . S
C3375 C3376 1.374 . S
C3376 H3350 0.950 . S
C3376 C3372 1.385 . S
C3376 C3375 1.374 . S
C3377 C3374 1.499 . S
C3377 C3378 1.373 . S
C3377 C3379 1.389 . S
C3378 H3351 0.950 . S
C3378 C3364 1.377 . S
C3378 C3377 1.373 . S
C3379 C3363 1.377 . S
C3379 C3377 1.389 . S
C3379 C3380 1.524 . S
C3380 C3379 1.524 . S
C3380 C3381 1.397 . S
C3380 C3385 1.363 . S
C3381 H3352 0.950 . S
C3381 C3380 1.397 . S
C3381 C3382 1.334 . S
C3382 H3353 0.950 . S
C3382 C3381 1.334 . S
C3382 C3383 1.287 . S
C3383 C3382 1.287 . S
C3383 C3384 1.524 . S
C3383 H3386 0.999 . S
C3384 H3354 0.950 . S
C3384 C3383 1.524 . S
C3384 C3385 1.415 . S
C3385 H3355 0.950 . S
C3385 C3380 1.363 . S
C3385 C3384 1.415 . S
H3386 C3383 0.999 . S
H3387 C3368 0.913 . S
H3388 C3406 0.951 . S
H3389 C3408 0.951 . S
H3390 C3410 0.950 . S
H3391 C3411 0.950 . S
H3392 C3413 0.950 . S
H3393 C3416 0.950 . S
H3394 C3417 0.950 . S
H3395 C3419 0.950 . S
H3396 C3420 0.950 . S
H3397 C3421 0.951 . S
H3398 C3423 0.951 . S
H3399 C3425 0.950 . S
H3400 C3426 0.950 . S
H3401 C3428 0.950 . S
H3402 C3431 0.950 . S
H3403 C3432 0.950 . S
H3404 C3434 0.950 . S
H3405 C3435 0.950 . S
C3406 H3388 0.951 . S
C3406 C3407 1.366 . S
C3406 C3408 1.388 . S
C3407 C3406 1.366 . S
C3407 C3411 1.385 . S
C3408 H3389 0.951 . S
C3408 C3406 1.388 . S
C3408 C3409 1.366 . S
C3409 C3408 1.366 . S
C3409 C3410 1.414 . S
C3409 C3412 1.499 . S
C3410 H3390 0.950 . S
C3410 C3409 1.414 . S
C3410 C3411 1.374 . S
C3411 H3391 0.950 . S
C3411 C3407 1.385 . S
C3411 C3410 1.374 . S
C3412 C3409 1.499 . S
C3412 C3413 1.373 . S
C3412 C3414 1.389 . S
C3413 H3392 0.950 . S
C3413 C3412 1.373 . S
C3413 C3429 1.377 . S
C3414 C3412 1.389 . S
C3414 C3415 1.524 . S
C3414 C3428 1.377 . S
C3415 C3414 1.524 . S
C3415 C3416 1.397 . S
C3415 C3420 1.363 . S
C3416 H3393 0.950 . S
C3416 C3415 1.397 . S
C3416 C3417 1.334 . S
C3417 H3394 0.950 . S
C3417 C3416 1.334 . S
C3417 C3418 1.287 . S
C3418 C3417 1.287 . S
C3418 C3419 1.524 . S
C3418 H3437 0.913 . S
C3419 H3395 0.950 . S
C3419 C3418 1.524 . S
C3419 C3420 1.415 . S
C3420 H3396 0.950 . S
C3420 C3415 1.363 . S
C3420 C3419 1.415 . S
C3421 H3397 0.951 . S
C3421 C3422 1.366 . S
C3421 C3423 1.388 . S
C3422 C3421 1.366 . S
C3422 C3426 1.385 . S
C3423 H3398 0.951 . S
C3423 C3421 1.388 . S
C3423 C3424 1.366 . S
C3424 C3423 1.366 . S
C3424 C3425 1.414 . S
C3424 C3427 1.499 . S
C3425 H3399 0.950 . S
C3425 C3424 1.414 . S
C3425 C3426 1.374 . S
C3426 H3400 0.950 . S
C3426 C3422 1.385 . S
C3426 C3425 1.374 . S
C3427 C3424 1.499 . S
C3427 C3428 1.373 . S
C3427 C3429 1.389 . S
C3428 H3401 0.950 . S
C3428 C3414 1.377 . S
C3428 C3427 1.373 . S
C3429 C3413 1.377 . S
C3429 C3427 1.389 . S
C3429 C3430 1.524 . S
C3430 C3429 1.524 . S
C3430 C3431 1.397 . S
C3430 C3435 1.363 . S
C3431 H3402 0.950 . S
C3431 C3430 1.397 . S
C3431 C3432 1.334 . S
C3432 H3403 0.950 . S
C3432 C3431 1.334 . S
C3432 C3433 1.287 . S
C3433 C3432 1.287 . S
C3433 C3434 1.524 . S
C3433 H3436 0.999 . S
C3434 H3404 0.950 . S
C3434 C3433 1.524 . S
C3434 C3435 1.415 . S
C3435 H3405 0.950 . S
C3435 C3430 1.363 . S
C3435 C3434 1.415 . S
H3436 C3433 0.999 . S
H3437 C3418 0.913 . S
H3438 C3456 0.951 . S
H3439 C3458 0.951 . S
H3440 C3460 0.950 . S
H3441 C3461 0.950 . S
H3442 C3463 0.950 . S
H3443 C3466 0.950 . S
H3444 C3467 0.950 . S
H3445 C3469 0.950 . S
H3446 C3470 0.950 . S
H3447 C3471 0.951 . S
H3448 C3473 0.951 . S
H3449 C3475 0.950 . S
H3450 C3476 0.950 . S
H3451 C3478 0.950 . S
H3452 C3481 0.950 . S
H3453 C3482 0.950 . S
H3454 C3484 0.950 . S
H3455 C3485 0.950 . S
C3456 H3438 0.951 . S
C3456 C3457 1.366 . S
C3456 C3458 1.388 . S
C3457 C3456 1.366 . S
C3457 C3461 1.385 . S
C3458 H3439 0.951 . S
C3458 C3456 1.388 . S
C3458 C3459 1.366 . S
C3459 C3458 1.366 . S
C3459 C3460 1.414 . S
C3459 C3462 1.499 . S
C3460 H3440 0.950 . S
C3460 C3459 1.414 . S
C3460 C3461 1.374 . S
C3461 H3441 0.950 . S
C3461 C3457 1.385 . S
C3461 C3460 1.374 . S
C3462 C3459 1.499 . S
C3462 C3463 1.373 . S
C3462 C3464 1.389 . S
C3463 H3442 0.950 . S
C3463 C3462 1.373 . S
C3463 C3479 1.377 . S
C3464 C3462 1.389 . S
C3464 C3465 1.524 . S
C3464 C3478 1.377 . S
C3465 C3464 1.524 . S
C3465 C3466 1.397 . S
C3465 C3470 1.363 . S
C3466 H3443 0.950 . S
C3466 C3465 1.397 . S
C3466 C3467 1.334 . S
C3467 H3444 0.950 . S
C3467 C3466 1.334 . S
C3467 C3468 1.287 . S
C3468 C3467 1.287 . S
C3468 C3469 1.524 . S
C3468 H3487 0.913 . S
C3469 H3445 0.950 . S
C3469 C3468 1.524 . S
C3469 C3470 1.415 . S
C3470 H3446 0.950 . S
C3470 C3465 1.363 . S
C3470 C3469 1.415 . S
C3471 H3447 0.951 . S
C3471 C3472 1.366 . S
C3471 C3473 1.388 . S
C3472 C3471 1.366 . S
C3472 C3476 1.385 . S
C3473 H3448 0.951 . S
C3473 C3471 1.388 . S
C3473 C3474 1.366 . S
C3474 C3473 1.366 . S
C3474 C3475 1.414 . S
C3474 C3477 1.499 . S
C3475 H3449 0.950 . S
C3475 C3474 1.414 . S
C3475 C3476 1.374 . S
C3476 H3450 0.950 . S
C3476 C3472 1.385 . S
C3476 C3475 1.374 . S
C3477 C3474 1.499 . S
C3477 C3478 1.373 . S
C3477 C3479 1.389 . S
C3478 H3451 0.950 . S
C3478 C3464 1.377 . S
C3478 C3477 1.373 . S
C3479 C3463 1.377 . S
C3479 C3477 1.389 . S
C3479 C3480 1.524 . S
C3480 C3479 1.524 . S
C3480 C3481 1.397 . S
C3480 C3485 1.363 . S
C3481 H3452 0.950 . S
C3481 C3480 1.397 . S
C3481 C3482 1.334 . S
C3482 H3453 0.950 . S
C3482 C3481 1.334 . S
C3482 C3483 1.287 . S
C3483 C3482 1.287 . S
C3483 C3484 1.524 . S
C3483 H3486 0.999 1_455 S
C3484 H3454 0.950 . S
C3484 C3483 1.524 . S
C3484 C3485 1.415 . S
C3485 H3455 0.950 . S
C3485 C3480 1.363 . S
C3485 C3484 1.415 . S
H3486 C3483 0.999 1_655 S
H3487 C3468 0.913 . S
H3488 C3506 0.951 . S
H3489 C3508 0.951 . S
H3490 C3510 0.950 . S
H3491 C3511 0.950 . S
H3492 C3513 0.950 . S
H3493 C3516 0.950 . S
H3494 C3517 0.950 . S
H3495 C3519 0.950 . S
H3496 C3520 0.950 . S
H3497 C3521 0.951 . S
H3498 C3523 0.951 . S
H3499 C3525 0.950 . S
H3500 C3526 0.950 . S
H3501 C3528 0.950 . S
H3502 C3531 0.950 . S
H3503 C3532 0.950 . S
H3504 C3534 0.950 . S
H3505 C3535 0.950 . S
C3506 H3488 0.951 . S
C3506 C3507 1.366 1_565 S
C3506 C3508 1.388 . S
C3507 C3506 1.366 1_545 S
C3507 C3511 1.385 . S
C3508 H3489 0.951 . S
C3508 C3506 1.388 . S
C3508 C3509 1.366 1_565 S
C3509 C3508 1.366 1_545 S
C3509 C3510 1.414 . S
C3509 C3512 1.499 . S
C3510 H3490 0.950 . S
C3510 C3509 1.414 . S
C3510 C3511 1.374 . S
C3511 H3491 0.950 . S
C3511 C3507 1.385 . S
C3511 C3510 1.374 . S
C3512 C3509 1.499 . S
C3512 C3513 1.373 . S
C3512 C3514 1.389 1_545 S
C3513 H3492 0.950 . S
C3513 C3512 1.373 . S
C3513 C3529 1.377 . S
C3514 C3512 1.389 1_565 S
C3514 C3515 1.524 . S
C3514 C3528 1.377 . S
C3515 C3514 1.524 . S
C3515 C3516 1.397 . S
C3515 C3520 1.363 . S
C3516 H3493 0.950 . S
C3516 C3515 1.397 . S
C3516 C3517 1.334 . S
C3517 H3494 0.950 . S
C3517 C3516 1.334 . S
C3517 C3518 1.287 . S
C3518 C3517 1.287 . S
C3518 C3519 1.524 . S
C3518 H3537 0.913 . S
C3519 H3495 0.950 . S
C3519 C3518 1.524 . S
C3519 C3520 1.415 . S
C3520 H3496 0.950 . S
C3520 C3515 1.363 . S
C3520 C3519 1.415 . S
C3521 H3497 0.951 . S
C3521 C3522 1.366 1_545 S
C3521 C3523 1.388 . S
C3522 C3521 1.366 1_565 S
C3522 C3526 1.385 . S
C3523 H3498 0.951 . S
C3523 C3521 1.388 . S
C3523 C3524 1.366 1_545 S
C3524 C3523 1.366 1_565 S
C3524 C3525 1.414 . S
C3524 C3527 1.499 . S
C3525 H3499 0.950 . S
C3525 C3524 1.414 . S
C3525 C3526 1.374 . S
C3526 H3500 0.950 . S
C3526 C3522 1.385 . S
C3526 C3525 1.374 . S
C3527 C3524 1.499 . S
C3527 C3528 1.373 . S
C3527 C3529 1.389 1_565 S
C3528 H3501 0.950 . S
C3528 C3514 1.377 . S
C3528 C3527 1.373 . S
C3529 C3513 1.377 . S
C3529 C3527 1.389 1_545 S
C3529 C3530 1.524 . S
C3530 C3529 1.524 . S
C3530 C3531 1.397 . S
C3530 C3535 1.363 . S
C3531 H3502 0.950 . S
C3531 C3530 1.397 . S
C3531 C3532 1.334 . S
C3532 H3503 0.950 . S
C3532 C3531 1.334 . S
C3532 C3533 1.287 . S
C3533 C3532 1.287 . S
C3533 C3534 1.524 . S
C3533 H3536 0.999 . S
C3534 H3504 0.950 . S
C3534 C3533 1.524 . S
C3534 C3535 1.415 . S
C3535 H3505 0.950 . S
C3535 C3530 1.363 . S
C3535 C3534 1.415 . S
H3536 C3533 0.999 . S
H3537 C3518 0.913 . S
H3538 C3556 0.932 1_655 S
H3539 C3558 0.951 . S
H3540 C3560 0.950 . S
H3541 C3561 0.950 . S
H3542 C3563 0.950 . S
H3543 C3566 0.950 . S
H3544 C3567 0.950 . S
H3545 C3569 0.950 . S
H3546 C3570 0.950 . S
H3547 C3571 0.936 1_455 S
H3548 C3573 0.951 . S
H3549 C3575 0.950 . S
H3550 C3576 0.950 . S
H3551 C3578 0.950 . S
H3552 C3581 0.950 . S
H3553 C3582 0.950 . S
H3554 C3584 0.950 . S
H3555 C3585 0.950 . S
C3556 H3538 0.932 1_455 S
C3556 C3557 1.391 . S
C3556 C3558 1.382 1_455 S
C3557 C3556 1.391 . S
C3557 C3561 1.385 . S
C3558 H3539 0.951 . S
C3558 C3556 1.382 1_655 S
C3558 C3559 1.366 1_655 S
C3559 C3558 1.366 1_455 S
C3559 C3560 1.414 . S
C3559 C3562 1.499 . S
C3560 H3540 0.950 . S
C3560 C3559 1.414 . S
C3560 C3561 1.374 . S
C3561 H3541 0.950 . S
C3561 C3557 1.385 . S
C3561 C3560 1.374 . S
C3562 C3559 1.499 . S
C3562 C3563 1.373 . S
C3562 C3564 1.389 . S
C3563 H3542 0.950 . S
C3563 C3562 1.373 . S
C3563 C3579 1.377 1_455 S
C3564 C3562 1.389 . S
C3564 C3565 1.524 . S
C3564 C3578 1.377 1_455 S
C3565 C3564 1.524 . S
C3565 C3566 1.397 . S
C3565 C3570 1.363 1_455 S
C3566 H3543 0.950 . S
C3566 C3565 1.397 . S
C3566 C3567 1.334 . S
C3567 H3544 0.950 . S
C3567 C3566 1.334 . S
C3567 C3568 1.287 . S
C3568 C3567 1.287 . S
C3568 C3569 1.524 1_455 S
C3568 H3587 0.913 . S
C3569 H3545 0.950 . S
C3569 C3568 1.524 1_655 S
C3569 C3570 1.415 . S
C3570 H3546 0.950 . S
C3570 C3565 1.363 1_655 S
C3570 C3569 1.415 . S
C3571 H3547 0.936 1_655 S
C3571 C3572 1.385 . S
C3571 C3573 1.384 1_655 S
C3572 C3571 1.385 . S
C3572 C3576 1.385 . S
C3573 H3548 0.951 . S
C3573 C3571 1.384 1_455 S
C3573 C3574 1.366 1_455 S
C3574 C3573 1.366 1_655 S
C3574 C3575 1.414 . S
C3574 C3577 1.499 . S
C3575 H3549 0.950 . S
C3575 C3574 1.414 . S
C3575 C3576 1.374 . S
C3576 H3550 0.950 . S
C3576 C3572 1.385 . S
C3576 C3575 1.374 . S
C3577 C3574 1.499 . S
C3577 C3578 1.373 . S
C3577 C3579 1.389 . S
C3578 H3551 0.950 . S
C3578 C3564 1.377 1_655 S
C3578 C3577 1.373 . S
C3579 C3563 1.377 1_655 S
C3579 C3577 1.389 . S
C3579 C3580 1.524 . S
C3580 C3579 1.524 . S
C3580 C3581 1.397 . S
C3580 C3585 1.363 1_655 S
C3581 H3552 0.950 . S
C3581 C3580 1.397 . S
C3581 C3582 1.334 . S
C3582 H3553 0.950 . S
C3582 C3581 1.334 . S
C3582 C3583 1.287 . S
C3583 C3582 1.287 . S
C3583 C3584 1.524 1_655 S
C3583 H3586 0.999 . S
C3584 H3554 0.950 . S
C3584 C3583 1.524 1_455 S
C3584 C3585 1.415 . S
C3585 H3555 0.950 . S
C3585 C3580 1.363 1_455 S
C3585 C3584 1.415 . S
H3586 C3583 0.999 . S
H3587 C3568 0.913 . S
H3588 C3606 0.951 . S
H3589 C3608 0.951 . S
H3590 C3610 0.950 . S
H3591 C3611 0.950 . S
H3592 C3613 0.950 . S
H3593 C3616 0.950 . S
H3594 C3617 0.950 . S
H3595 C3619 0.950 . S
H3596 C3620 0.950 . S
H3597 C3621 0.951 . S
H3598 C3623 0.951 . S
H3599 C3625 0.950 . S
H3600 C3626 0.950 . S
H3601 C3628 0.950 . S
H3602 C3631 0.950 . S
H3603 C3632 0.950 . S
H3604 C3634 0.950 . S
H3605 C3635 0.950 . S
C3606 H3588 0.951 . S
C3606 C3607 1.366 . S
C3606 C3608 1.388 . S
C3607 C3606 1.366 . S
C3607 C3611 1.385 . S
C3608 H3589 0.951 . S
C3608 C3606 1.388 . S
C3608 C3609 1.366 . S
C3609 C3608 1.366 . S
C3609 C3610 1.414 . S
C3609 C3612 1.499 . S
C3610 H3590 0.950 . S
C3610 C3609 1.414 . S
C3610 C3611 1.374 . S
C3611 H3591 0.950 . S
C3611 C3607 1.385 . S
C3611 C3610 1.374 . S
C3612 C3609 1.499 . S
C3612 C3613 1.373 . S
C3612 C3614 1.389 . S
C3613 H3592 0.950 . S
C3613 C3612 1.373 . S
C3613 C3629 1.377 1_556 S
C3614 C3612 1.389 . S
C3614 C3615 1.524 . S
C3614 C3628 1.377 1_556 S
C3615 C3614 1.524 . S
C3615 C3616 1.397 . S
C3615 C3620 1.363 . S
C3616 H3593 0.950 . S
C3616 C3615 1.397 . S
C3616 C3617 1.334 . S
C3617 H3594 0.950 . S
C3617 C3616 1.334 . S
C3617 C3618 1.287 . S
C3618 C3617 1.287 . S
C3618 C3619 1.524 . S
C3618 H3637 0.913 . S
C3619 H3595 0.950 . S
C3619 C3618 1.524 . S
C3619 C3620 1.415 . S
C3620 H3596 0.950 . S
C3620 C3615 1.363 . S
C3620 C3619 1.415 . S
C3621 H3597 0.951 . S
C3621 C3622 1.366 . S
C3621 C3623 1.388 . S
C3622 C3621 1.366 . S
C3622 C3626 1.385 . S
C3623 H3598 0.951 . S
C3623 C3621 1.388 . S
C3623 C3624 1.366 . S
C3624 C3623 1.366 . S
C3624 C3625 1.414 . S
C3624 C3627 1.499 . S
C3625 H3599 0.950 . S
C3625 C3624 1.414 . S
C3625 C3626 1.374 . S
C3626 H3600 0.950 . S
C3626 C3622 1.385 . S
C3626 C3625 1.374 . S
C3627 C3624 1.499 . S
C3627 C3628 1.373 . S
C3627 C3629 1.389 . S
C3628 H3601 0.950 . S
C3628 C3614 1.377 1_554 S
C3628 C3627 1.373 . S
C3629 C3613 1.377 1_554 S
C3629 C3627 1.389 . S
C3629 C3630 1.524 . S
C3630 C3629 1.524 . S
C3630 C3631 1.397 . S
C3630 C3635 1.363 . S
C3631 H3602 0.950 . S
C3631 C3630 1.397 . S
C3631 C3632 1.334 . S
C3632 H3603 0.950 . S
C3632 C3631 1.334 . S
C3632 C3633 1.287 . S
C3633 C3632 1.287 . S
C3633 C3634 1.524 . S
C3633 H3636 0.999 . S
C3634 H3604 0.950 . S
C3634 C3633 1.524 . S
C3634 C3635 1.415 . S
C3635 H3605 0.950 . S
C3635 C3630 1.363 . S
C3635 C3634 1.415 . S
H3636 C3633 0.999 . S
H3637 C3618 0.913 . S
H3638 C3656 0.951 . S
H3639 C3658 0.951 . S
H3640 C3660 0.950 1_455 S
H3641 C3661 0.950 . S
H3642 C3663 0.950 . S
H3643 C3666 0.950 . S
H3644 C3667 0.950 1_565 S
H3645 C3669 0.934 1_556 S
H3646 C3670 0.918 1_556 S
H3647 C3671 0.951 . S
H3648 C3673 0.951 . S
H3649 C3675 0.950 1_655 S
H3650 C3676 0.950 . S
H3651 C3678 0.950 . S
H3652 C3681 0.950 . S
H3653 C3682 0.950 1_545 S
H3654 C3684 0.934 1_554 S
H3655 C3685 0.918 1_554 S
C3656 H3638 0.951 . S
C3656 C3657 1.366 . S
C3656 C3658 1.388 . S
C3657 C3656 1.366 . S
C3657 C3661 1.385 1_545 S
C3658 H3639 0.951 . S
C3658 C3656 1.388 . S
C3658 C3659 1.366 . S
C3659 C3658 1.366 . S
C3659 C3660 1.414 1_545 S
C3659 C3662 1.499 . S
C3660 H3640 0.950 1_655 S
C3660 C3659 1.414 1_565 S
C3660 C3661 1.374 . S
C3661 H3641 0.950 . S
C3661 C3657 1.385 1_565 S
C3661 C3660 1.374 . S
C3662 C3659 1.499 . S
C3662 C3663 1.373 1_645 S
C3662 C3664 1.389 . S
C3663 H3642 0.950 . S
C3663 C3662 1.373 1_465 S
C3663 C3679 1.377 1_554 S
C3664 C3662 1.389 . S
C3664 C3665 1.524 . S
C3664 C3678 1.377 1_554 S
C3665 C3664 1.524 . S
C3665 C3666 1.397 1_545 S
C3665 C3670 1.388 . S
C3666 H3643 0.950 . S
C3666 C3665 1.397 1_565 S
C3666 C3667 1.334 1_565 S
C3667 H3644 0.950 1_545 S
C3667 C3666 1.334 1_545 S
C3667 C3668 1.287 . S
C3668 C3667 1.287 . S
C3668 C3669 1.524 . S
C3668 H3687 0.913 . S
C3669 H3645 0.934 1_554 S
C3669 C3668 1.524 . S
C3669 C3670 1.425 . S
C3670 H3646 0.918 1_554 S
C3670 C3665 1.388 . S
C3670 C3669 1.425 . S
C3671 H3647 0.951 . S
C3671 C3672 1.366 . S
C3671 C3673 1.388 . S
C3672 C3671 1.366 . S
C3672 C3676 1.385 1_565 S
C3673 H3648 0.951 . S
C3673 C3671 1.388 . S
C3673 C3674 1.366 . S
C3674 C3673 1.366 . S
C3674 C3675 1.414 1_565 S
C3674 C3677 1.499 . S
C3675 H3649 0.950 1_455 S
C3675 C3674 1.414 1_545 S
C3675 C3676 1.374 . S
C3676 H3650 0.950 . S
C3676 C3672 1.385 1_545 S
C3676 C3675 1.374 . S
C3677 C3674 1.499 . S
C3677 C3678 1.373 1_465 S
C3677 C3679 1.389 . S
C3678 H3651 0.950 . S
C3678 C3664 1.377 1_556 S
C3678 C3677 1.373 1_645 S
C3679 C3663 1.377 1_556 S
C3679 C3677 1.389 . S
C3679 C3680 1.524 . S
C3680 C3679 1.524 . S
C3680 C3681 1.397 1_565 S
C3680 C3685 1.388 . S
C3681 H3652 0.950 . S
C3681 C3680 1.397 1_545 S
C3681 C3682 1.334 1_545 S
C3682 H3653 0.950 1_565 S
C3682 C3681 1.334 1_565 S
C3682 C3683 1.287 . S
C3683 C3682 1.287 . S
C3683 C3684 1.524 . S
C3683 H3686 0.999 . S
C3684 H3654 0.934 1_556 S
C3684 C3683 1.524 . S
C3684 C3685 1.425 . S
C3685 H3655 0.918 1_556 S
C3685 C3680 1.388 . S
C3685 C3684 1.425 . S
H3686 C3683 0.999 . S
H3687 C3668 0.913 . S
H3688 C3706 0.951 . S
H3689 C3708 0.951 . S
H3690 C3710 0.950 . S
H3691 C3711 0.950 . S
H3692 C3713 0.950 . S
H3693 C3716 0.950 1_565 S
H3694 C3717 0.950 . S
H3695 C3719 0.950 . S
H3696 C3720 0.950 . S
H3697 C3721 0.951 . S
H3698 C3723 0.951 . S
H3699 C3725 0.950 . S
H3700 C3726 0.950 . S
H3701 C3728 0.950 . S
H3702 C3731 0.950 1_545 S
H3703 C3732 0.950 . S
H3704 C3734 0.950 . S
H3705 C3735 0.950 . S
C3706 H3688 0.951 . S
C3706 C3707 1.366 1_545 S
C3706 C3708 1.388 . S
C3707 C3706 1.366 1_565 S
C3707 C3711 1.385 . S
C3708 H3689 0.951 . S
C3708 C3706 1.388 . S
C3708 C3709 1.366 1_545 S
C3709 C3708 1.366 1_565 S
C3709 C3710 1.414 . S
C3709 C3712 1.499 . S
C3710 H3690 0.950 . S
C3710 C3709 1.414 . S
C3710 C3711 1.374 . S
C3711 H3691 0.950 . S
C3711 C3707 1.385 . S
C3711 C3710 1.374 . S
C3712 C3709 1.499 . S
C3712 C3713 1.373 . S
C3712 C3714 1.389 1_565 S
C3713 H3692 0.950 . S
C3713 C3712 1.373 . S
C3713 C3729 1.377 . S
C3714 C3712 1.389 1_545 S
C3714 C3715 1.524 . S
C3714 C3728 1.377 . S
C3715 C3714 1.524 . S
C3715 C3716 1.397 . S
C3715 C3720 1.363 . S
C3716 H3693 0.950 1_545 S
C3716 C3715 1.397 . S
C3716 C3717 1.334 . S
C3717 H3694 0.950 . S
C3717 C3716 1.334 . S
C3717 C3718 1.287 . S
C3718 C3717 1.287 . S
C3718 C3719 1.524 . S
C3718 H3737 0.913 . S
C3719 H3695 0.950 . S
C3719 C3718 1.524 . S
C3719 C3720 1.415 . S
C3720 H3696 0.950 . S
C3720 C3715 1.363 . S
C3720 C3719 1.415 . S
C3721 H3697 0.951 . S
C3721 C3722 1.366 1_565 S
C3721 C3723 1.388 . S
C3722 C3721 1.366 1_545 S
C3722 C3726 1.385 . S
C3723 H3698 0.951 . S
C3723 C3721 1.388 . S
C3723 C3724 1.366 1_565 S
C3724 C3723 1.366 1_545 S
C3724 C3725 1.414 . S
C3724 C3727 1.499 . S
C3725 H3699 0.950 . S
C3725 C3724 1.414 . S
C3725 C3726 1.374 . S
C3726 H3700 0.950 . S
C3726 C3722 1.385 . S
C3726 C3725 1.374 . S
C3727 C3724 1.499 . S
C3727 C3728 1.373 . S
C3727 C3729 1.389 1_545 S
C3728 H3701 0.950 . S
C3728 C3714 1.377 . S
C3728 C3727 1.373 . S
C3729 C3713 1.377 . S
C3729 C3727 1.389 1_565 S
C3729 C3730 1.524 . S
C3730 C3729 1.524 . S
C3730 C3731 1.397 . S
C3730 C3735 1.363 . S
C3731 H3702 0.950 1_565 S
C3731 C3730 1.397 . S
C3731 C3732 1.334 . S
C3732 H3703 0.950 . S
C3732 C3731 1.334 . S
C3732 C3733 1.287 . S
C3733 C3732 1.287 . S
C3733 C3734 1.524 . S
C3733 H3736 0.999 . S
C3734 H3704 0.950 . S
C3734 C3733 1.524 . S
C3734 C3735 1.415 . S
C3735 H3705 0.950 . S
C3735 C3730 1.363 . S
C3735 C3734 1.415 . S
H3736 C3733 0.999 . S
H3737 C3718 0.913 . S
H3738 C3756 0.951 . S
H3739 C3758 0.951 . S
H3740 C3760 0.950 . S
H3741 C3761 0.950 1_655 S
H3742 C3763 0.950 . S
H3743 C3766 0.950 . S
H3744 C3767 0.950 . S
H3745 C3769 0.950 . S
H3746 C3770 0.950 . S
H3747 C3771 0.951 . S
H3748 C3773 0.951 . S
H3749 C3775 0.950 . S
H3750 C3776 0.950 1_455 S
H3751 C3778 0.950 . S
H3752 C3781 0.950 . S
H3753 C3782 0.950 . S
H3754 C3784 0.950 . S
H3755 C3785 0.950 . S
C3756 H3738 0.951 . S
C3756 C3757 1.366 . S
C3756 C3758 1.388 . S
C3757 C3756 1.366 . S
C3757 C3761 1.385 . S
C3758 H3739 0.951 . S
C3758 C3756 1.388 . S
C3758 C3759 1.366 . S
C3759 C3758 1.366 . S
C3759 C3760 1.414 1_455 S
C3759 C3762 1.499 . S
C3760 H3740 0.950 . S
C3760 C3759 1.414 1_655 S
C3760 C3761 1.374 1_655 S
C3761 H3741 0.950 1_455 S
C3761 C3757 1.385 . S
C3761 C3760 1.374 1_455 S
C3762 C3759 1.499 . S
C3762 C3763 1.373 1_455 S
C3762 C3764 1.389 . S
C3763 H3742 0.950 . S
C3763 C3762 1.373 1_655 S
C3763 C3779 1.377 . S
C3764 C3762 1.389 . S
C3764 C3765 1.524 . S
C3764 C3778 1.377 . S
C3765 C3764 1.524 . S
C3765 C3766 1.397 . S
C3765 C3770 1.363 . S
C3766 H3743 0.950 . S
C3766 C3765 1.397 . S
C3766 C3767 1.334 . S
C3767 H3744 0.950 . S
C3767 C3766 1.334 . S
C3767 C3768 1.287 . S
C3768 C3767 1.287 . S
C3768 C3769 1.524 . S
C3768 H3787 0.913 . S
C3769 H3745 0.950 . S
C3769 C3768 1.524 . S
C3769 C3770 1.415 . S
C3770 H3746 0.950 . S
C3770 C3765 1.363 . S
C3770 C3769 1.415 . S
C3771 H3747 0.951 . S
C3771 C3772 1.366 . S
C3771 C3773 1.388 . S
C3772 C3771 1.366 . S
C3772 C3776 1.385 . S
C3773 H3748 0.951 . S
C3773 C3771 1.388 . S
C3773 C3774 1.366 . S
C3774 C3773 1.366 . S
C3774 C3775 1.414 1_655 S
C3774 C3777 1.499 . S
C3775 H3749 0.950 . S
C3775 C3774 1.414 1_455 S
C3775 C3776 1.374 1_455 S
C3776 H3750 0.950 1_655 S
C3776 C3772 1.385 . S
C3776 C3775 1.374 1_655 S
C3777 C3774 1.499 . S
C3777 C3778 1.373 1_655 S
C3777 C3779 1.389 . S
C3778 H3751 0.950 . S
C3778 C3764 1.377 . S
C3778 C3777 1.373 1_455 S
C3779 C3763 1.377 . S
C3779 C3777 1.389 . S
C3779 C3780 1.524 . S
C3780 C3779 1.524 . S
C3780 C3781 1.397 . S
C3780 C3785 1.363 . S
C3781 H3752 0.950 . S
C3781 C3780 1.397 . S
C3781 C3782 1.334 . S
C3782 H3753 0.950 . S
C3782 C3781 1.334 . S
C3782 C3783 1.287 . S
C3783 C3782 1.287 . S
C3783 C3784 1.524 . S
C3783 H3786 0.999 . S
C3784 H3754 0.950 . S
C3784 C3783 1.524 . S
C3784 C3785 1.415 . S
C3785 H3755 0.950 . S
C3785 C3780 1.363 . S
C3785 C3784 1.415 . S
H3786 C3783 0.999 . S
H3787 C3768 0.913 . S
H3788 C3806 0.951 . S
H3789 C3808 0.951 . S
H3790 C3810 0.950 . S
H3791 C3811 0.950 . S
H3792 C3813 0.950 . S
H3793 C3816 0.950 . S
H3794 C3817 0.950 . S
H3795 C3819 0.950 . S
H3796 C3820 0.950 1_554 S
H3797 C3821 0.951 . S
H3798 C3823 0.951 . S
H3799 C3825 0.950 . S
H3800 C3826 0.950 . S
H3801 C3828 0.950 . S
H3802 C3831 0.950 . S
H3803 C3832 0.950 . S
H3804 C3834 0.950 . S
H3805 C3835 0.950 1_556 S
C3806 H3788 0.951 . S
C3806 C3807 1.366 . S
C3806 C3808 1.388 . S
C3807 C3806 1.366 . S
C3807 C3811 1.385 . S
C3808 H3789 0.951 . S
C3808 C3806 1.388 . S
C3808 C3809 1.366 . S
C3809 C3808 1.366 . S
C3809 C3810 1.414 . S
C3809 C3812 1.499 . S
C3810 H3790 0.950 . S
C3810 C3809 1.414 . S
C3810 C3811 1.374 . S
C3811 H3791 0.950 . S
C3811 C3807 1.385 . S
C3811 C3810 1.374 . S
C3812 C3809 1.499 . S
C3812 C3813 1.373 . S
C3812 C3814 1.389 . S
C3813 H3792 0.950 . S
C3813 C3812 1.373 . S
C3813 C3829 1.377 1_556 S
C3814 C3812 1.389 . S
C3814 C3815 1.524 . S
C3814 C3828 1.377 1_556 S
C3815 C3814 1.524 . S
C3815 C3816 1.397 . S
C3815 C3820 1.363 . S
C3816 H3793 0.950 . S
C3816 C3815 1.397 . S
C3816 C3817 1.334 . S
C3817 H3794 0.950 . S
C3817 C3816 1.334 . S
C3817 C3818 1.287 . S
C3818 C3817 1.287 . S
C3818 C3819 1.524 . S
C3818 H3837 0.913 . S
C3819 H3795 0.950 . S
C3819 C3818 1.524 . S
C3819 C3820 1.415 . S
C3820 H3796 0.950 1_556 S
C3820 C3815 1.363 . S
C3820 C3819 1.415 . S
C3821 H3797 0.951 . S
C3821 C3822 1.366 . S
C3821 C3823 1.388 . S
C3822 C3821 1.366 . S
C3822 C3826 1.385 . S
C3823 H3798 0.951 . S
C3823 C3821 1.388 . S
C3823 C3824 1.366 . S
C3824 C3823 1.366 . S
C3824 C3825 1.414 . S
C3824 C3827 1.499 . S
C3825 H3799 0.950 . S
C3825 C3824 1.414 . S
C3825 C3826 1.374 . S
C3826 H3800 0.950 . S
C3826 C3822 1.385 . S
C3826 C3825 1.374 . S
C3827 C3824 1.499 . S
C3827 C3828 1.373 . S
C3827 C3829 1.389 . S
C3828 H3801 0.950 . S
C3828 C3814 1.377 1_554 S
C3828 C3827 1.373 . S
C3829 C3813 1.377 1_554 S
C3829 C3827 1.389 . S
C3829 C3830 1.524 . S
C3830 C3829 1.524 . S
C3830 C3831 1.397 . S
C3830 C3835 1.363 . S
C3831 H3802 0.950 . S
C3831 C3830 1.397 . S
C3831 C3832 1.334 . S
C3832 H3803 0.950 . S
C3832 C3831 1.334 . S
C3832 C3833 1.287 . S
C3833 C3832 1.287 . S
C3833 C3834 1.524 . S
C3833 H3836 0.999 . S
C3834 H3804 0.950 . S
C3834 C3833 1.524 . S
C3834 C3835 1.415 . S
C3835 H3805 0.950 1_554 S
C3835 C3830 1.363 . S
C3835 C3834 1.415 . S
H3836 C3833 0.999 . S
H3837 C3818 0.913 . S
H3838 C3856 0.951 . S
H3839 C3858 0.951 . S
H3840 C3860 0.950 . S
H3841 C3861 0.950 . S
H3842 C3863 0.950 . S
H3843 C3866 0.950 . S
H3844 C3867 0.950 . S
H3845 C3869 0.950 . S
H3846 C3870 0.950 . S
H3847 C3871 0.951 . S
H3848 C3873 0.951 . S
H3849 C3875 0.950 . S
H3850 C3876 0.950 . S
H3851 C3878 0.950 . S
H3852 C3881 0.950 . S
H3853 C3882 0.950 . S
H3854 C3884 0.950 . S
H3855 C3885 0.950 . S
C3856 H3838 0.951 . S
C3856 C3857 1.366 . S
C3856 C3858 1.388 . S
C3857 C3856 1.366 . S
C3857 C3861 1.385 . S
C3858 H3839 0.951 . S
C3858 C3856 1.388 . S
C3858 C3859 1.366 . S
C3859 C3858 1.366 . S
C3859 C3860 1.414 . S
C3859 C3862 1.499 . S
C3860 H3840 0.950 . S
C3860 C3859 1.414 . S
C3860 C3861 1.374 . S
C3861 H3841 0.950 . S
C3861 C3857 1.385 . S
C3861 C3860 1.374 . S
C3862 C3859 1.499 . S
C3862 C3863 1.373 . S
C3862 C3864 1.389 . S
C3863 H3842 0.950 . S
C3863 C3862 1.373 . S
C3863 C3879 1.377 . S
C3864 C3862 1.389 . S
C3864 C3865 1.524 . S
C3864 C3878 1.377 . S
C3865 C3864 1.524 . S
C3865 C3866 1.397 . S
C3865 C3870 1.363 . S
C3866 H3843 0.950 . S
C3866 C3865 1.397 . S
C3866 C3867 1.334 . S
C3867 H3844 0.950 . S
C3867 C3866 1.334 . S
C3867 C3868 1.287 . S
C3868 C3867 1.287 . S
C3868 C3869 1.524 . S
C3868 H3887 0.913 . S
C3869 H3845 0.950 . S
C3869 C3868 1.524 . S
C3869 C3870 1.415 . S
C3870 H3846 0.950 . S
C3870 C3865 1.363 . S
C3870 C3869 1.415 . S
C3871 H3847 0.951 . S
C3871 C3872 1.366 . S
C3871 C3873 1.388 . S
C3872 C3871 1.366 . S
C3872 C3876 1.385 . S
C3873 H3848 0.951 . S
C3873 C3871 1.388 . S
C3873 C3874 1.366 . S
C3874 C3873 1.366 . S
C3874 C3875 1.414 . S
C3874 C3877 1.499 . S
C3875 H3849 0.950 . S
C3875 C3874 1.414 . S
C3875 C3876 1.374 . S
C3876 H3850 0.950 . S
C3876 C3872 1.385 . S
C3876 C3875 1.374 . S
C3877 C3874 1.499 . S
C3877 C3878 1.373 . S
C3877 C3879 1.389 . S
C3878 H3851 0.950 . S
C3878 C3864 1.377 . S
C3878 C3877 1.373 . S
C3879 C3863 1.377 . S
C3879 C3877 1.389 . S
C3879 C3880 1.524 . S
C3880 C3879 1.524 . S
C3880 C3881 1.397 . S
C3880 C3885 1.363 . S
C3881 H3852 0.950 . S
C3881 C3880 1.397 . S
C3881 C3882 1.334 . S
C3882 H3853 0.950 . S
C3882 C3881 1.334 . S
C3882 C3883 1.287 . S
C3883 C3882 1.287 . S
C3883 C3884 1.524 . S
C3883 H3886 0.999 . S
C3884 H3854 0.950 . S
C3884 C3883 1.524 . S
C3884 C3885 1.415 . S
C3885 H3855 0.950 . S
C3885 C3880 1.363 . S
C3885 C3884 1.415 . S
H3886 C3883 0.999 . S
H3887 C3868 0.913 . S
H3888 C3906 0.951 . S
H3889 C3908 0.951 . S
H3890 C3910 0.950 . S
H3891 C3911 0.950 . S
H3892 C3913 0.950 . S
H3893 C3916 0.950 . S
H3894 C3917 0.950 . S
H3895 C3919 0.950 . S
H3896 C3920 0.950 . S
H3897 C3921 0.951 . S
H3898 C3923 0.951 . S
H3899 C3925 0.950 . S
H3900 C3926 0.950 . S
H3901 C3928 0.950 . S
H3902 C3931 0.950 . S
H3903 C3932 0.950 . S
H3904 C3934 0.950 . S
H3905 C3935 0.950 . S
C3906 H3888 0.951 . S
C3906 C3907 1.366 . S
C3906 C3908 1.388 . S
C3907 C3906 1.366 . S
C3907 C3911 1.385 . S
C3908 H3889 0.951 . S
C3908 C3906 1.388 . S
C3908 C3909 1.366 . S
C3909 C3908 1.366 . S
C3909 C3910 1.414 . S
C3909 C3912 1.499 . S
C3910 H3890 0.950 . S
C3910 C3909 1.414 . S
C3910 C3911 1.374 . S
C3911 H3891 0.950 . S
C3911 C3907 1.385 . S
C3911 C3910 1.374 . S
C3912 C3909 1.499 . S
C3912 C3913 1.373 . S
C3912 C3914 1.389 . S
C3913 H3892 0.950 . S
C3913 C3912 1.373 . S
C3913 C3929 1.377 . S
C3914 C3912 1.389 . S
C3914 C3915 1.524 . S
C3914 C3928 1.377 . S
C3915 C3914 1.524 . S
C3915 C3916 1.397 . S
C3915 C3920 1.363 . S
C3916 H3893 0.950 . S
C3916 C3915 1.397 . S
C3916 C3917 1.334 . S
C3917 H3894 0.950 . S
C3917 C3916 1.334 . S
C3917 C3918 1.287 . S
C3918 C3917 1.287 . S
C3918 C3919 1.524 . S
C3918 H3937 0.913 . S
C3919 H3895 0.950 . S
C3919 C3918 1.524 . S
C3919 C3920 1.415 . S
C3920 H3896 0.950 . S
C3920 C3915 1.363 . S
C3920 C3919 1.415 . S
C3921 H3897 0.951 . S
C3921 C3922 1.366 . S
C3921 C3923 1.388 . S
C3922 C3921 1.366 . S
C3922 C3926 1.385 . S
C3923 H3898 0.951 . S
C3923 C3921 1.388 . S
C3923 C3924 1.366 . S
C3924 C3923 1.366 . S
C3924 C3925 1.414 . S
C3924 C3927 1.499 . S
C3925 H3899 0.950 . S
C3925 C3924 1.414 . S
C3925 C3926 1.374 . S
C3926 H3900 0.950 . S
C3926 C3922 1.385 . S
C3926 C3925 1.374 . S
C3927 C3924 1.499 . S
C3927 C3928 1.373 . S
C3927 C3929 1.389 . S
C3928 H3901 0.950 . S
C3928 C3914 1.377 . S
C3928 C3927 1.373 . S
C3929 C3913 1.377 . S
C3929 C3927 1.389 . S
C3929 C3930 1.524 . S
C3930 C3929 1.524 . S
C3930 C3931 1.397 . S
C3930 C3935 1.363 . S
C3931 H3902 0.950 . S
C3931 C3930 1.397 . S
C3931 C3932 1.334 . S
C3932 H3903 0.950 . S
C3932 C3931 1.334 . S
C3932 C3933 1.287 . S
C3933 C3932 1.287 . S
C3933 C3934 1.524 . S
C3933 H3936 0.999 . S
C3934 H3904 0.950 . S
C3934 C3933 1.524 . S
C3934 C3935 1.415 . S
C3935 H3905 0.950 . S
C3935 C3930 1.363 . S
C3935 C3934 1.415 . S
H3936 C3933 0.999 . S
H3937 C3918 0.913 . S
H3938 C3956 0.951 . S
H3939 C3958 0.951 . S
H3940 C3960 0.950 . S
H3941 C3961 0.950 . S
H3942 C3963 0.950 . S
H3943 C3966 0.950 . S
H3944 C3967 0.950 . S
H3945 C3969 0.950 . S
H3946 C3970 0.950 . S
H3947 C3971 0.951 . S
H3948 C3973 0.951 . S
H3949 C3975 0.950 . S
H3950 C3976 0.950 . S
H3951 C3978 0.950 . S
H3952 C3981 0.950 . S
H3953 C3982 0.950 . S
H3954 C3984 0.950 . S
H3955 C3985 0.950 . S
C3956 H3938 0.951 . S
C3956 C3957 1.366 . S
C3956 C3958 1.388 . S
C3957 C3956 1.366 . S
C3957 C3961 1.385 . S
C3958 H3939 0.951 . S
C3958 C3956 1.388 . S
C3958 C3959 1.366 . S
C3959 C3958 1.366 . S
C3959 C3960 1.414 . S
C3959 C3962 1.499 . S
C3960 H3940 0.950 . S
C3960 C3959 1.414 . S
C3960 C3961 1.374 . S
C3961 H3941 0.950 . S
C3961 C3957 1.385 . S
C3961 C3960 1.374 . S
C3962 C3959 1.499 . S
C3962 C3963 1.373 1_455 S
C3962 C3964 1.389 . S
C3963 H3942 0.950 . S
C3963 C3962 1.373 1_655 S
C3963 C3979 1.377 . S
C3964 C3962 1.389 . S
C3964 C3965 1.524 . S
C3964 C3978 1.377 . S
C3965 C3964 1.524 . S
C3965 C3966 1.397 . S
C3965 C3970 1.363 . S
C3966 H3943 0.950 . S
C3966 C3965 1.397 . S
C3966 C3967 1.334 . S
C3967 H3944 0.950 . S
C3967 C3966 1.334 . S
C3967 C3968 1.287 . S
C3968 C3967 1.287 . S
C3968 C3969 1.524 . S
C3968 H3987 0.913 . S
C3969 H3945 0.950 . S
C3969 C3968 1.524 . S
C3969 C3970 1.415 . S
C3970 H3946 0.950 . S
C3970 C3965 1.363 . S
C3970 C3969 1.415 . S
C3971 H3947 0.951 . S
C3971 C3972 1.366 . S
C3971 C3973 1.388 . S
C3972 C3971 1.366 . S
C3972 C3976 1.385 . S
C3973 H3948 0.951 . S
C3973 C3971 1.388 . S
C3973 C3974 1.366 . S
C3974 C3973 1.366 . S
C3974 C3975 1.414 . S
C3974 C3977 1.499 . S
C3975 H3949 0.950 . S
C3975 C3974 1.414 . S
C3975 C3976 1.374 . S
C3976 H3950 0.950 . S
C3976 C3972 1.385 . S
C3976 C3975 1.374 . S
C3977 C3974 1.499 . S
C3977 C3978 1.373 1_655 S
C3977 C3979 1.389 . S
C3978 H3951 0.950 . S
C3978 C3964 1.377 . S
C3978 C3977 1.373 1_455 S
C3979 C3963 1.377 . S
C3979 C3977 1.389 . S
C3979 C3980 1.524 . S
C3980 C3979 1.524 . S
C3980 C3981 1.397 . S
C3980 C3985 1.363 . S
C3981 H3952 0.950 . S
C3981 C3980 1.397 . S
C3981 C3982 1.334 . S
C3982 H3953 0.950 . S
C3982 C3981 1.334 . S
C3982 C3983 1.287 . S
C3983 C3982 1.287 . S
C3983 C3984 1.524 . S
C3983 H3986 0.999 . S
C3984 H3954 0.950 . S
C3984 C3983 1.524 . S
C3984 C3985 1.415 . S
C3985 H3955 0.950 . S
C3985 C3980 1.363 . S
C3985 C3984 1.415 . S
H3986 C3983 0.999 . S
H3987 C3968 0.913 . S
H3988 C4006 0.951 . S
H3989 C4008 0.951 . S
H3990 C4010 0.950 . S
H3991 C4011 0.950 . S
H3992 C4013 0.950 . S
H3993 C4016 0.950 . S
H3994 C4017 0.950 . S
H3995 C4019 0.950 . S
H3996 C4020 0.950 . S
H3997 C4021 0.951 . S
H3998 C4023 0.951 . S
H3999 C4025 0.950 . S
H4000 C4026 0.950 . S
H4001 C4028 0.950 . S
H4002 C4031 0.950 . S
H4003 C4032 0.950 . S
H4004 C4034 0.950 . S
H4005 C4035 0.950 . S
C4006 H3988 0.951 . S
C4006 C4007 1.366 . S
C4006 C4008 1.388 . S
C4007 C4006 1.366 . S
C4007 C4011 1.385 . S
C4008 H3989 0.951 . S
C4008 C4006 1.388 . S
C4008 C4009 1.366 . S
C4009 C4008 1.366 . S
C4009 C4010 1.414 . S
C4009 C4012 1.499 . S
C4010 H3990 0.950 . S
C4010 C4009 1.414 . S
C4010 C4011 1.374 . S
C4011 H3991 0.950 . S
C4011 C4007 1.385 . S
C4011 C4010 1.374 . S
C4012 C4009 1.499 . S
C4012 C4013 1.373 . S
C4012 C4014 1.389 . S
C4013 H3992 0.950 . S
C4013 C4012 1.373 . S
C4013 C4029 1.377 . S
C4014 C4012 1.389 . S
C4014 C4015 1.524 . S
C4014 C4028 1.377 . S
C4015 C4014 1.524 . S
C4015 C4016 1.397 . S
C4015 C4020 1.363 . S
C4016 H3993 0.950 . S
C4016 C4015 1.397 . S
C4016 C4017 1.334 . S
C4017 H3994 0.950 . S
C4017 C4016 1.334 . S
C4017 C4018 1.287 . S
C4018 C4017 1.287 . S
C4018 C4019 1.524 . S
C4018 H4037 0.913 . S
C4019 H3995 0.950 . S
C4019 C4018 1.524 . S
C4019 C4020 1.415 . S
C4020 H3996 0.950 . S
C4020 C4015 1.363 . S
C4020 C4019 1.415 . S
C4021 H3997 0.951 . S
C4021 C4022 1.366 . S
C4021 C4023 1.388 . S
C4022 C4021 1.366 . S
C4022 C4026 1.385 . S
C4023 H3998 0.951 . S
C4023 C4021 1.388 . S
C4023 C4024 1.366 . S
C4024 C4023 1.366 . S
C4024 C4025 1.414 . S
C4024 C4027 1.499 . S
C4025 H3999 0.950 . S
C4025 C4024 1.414 . S
C4025 C4026 1.374 . S
C4026 H4000 0.950 . S
C4026 C4022 1.385 . S
C4026 C4025 1.374 . S
C4027 C4024 1.499 . S
C4027 C4028 1.373 . S
C4027 C4029 1.389 . S
C4028 H4001 0.950 . S
C4028 C4014 1.377 . S
C4028 C4027 1.373 . S
C4029 C4013 1.377 . S
C4029 C4027 1.389 . S
C4029 C4030 1.524 . S
C4030 C4029 1.524 . S
C4030 C4031 1.397 . S
C4030 C4035 1.363 . S
C4031 H4002 0.950 . S
C4031 C4030 1.397 . S
C4031 C4032 1.334 . S
C4032 H4003 0.950 . S
C4032 C4031 1.334 . S
C4032 C4033 1.287 . S
C4033 C4032 1.287 . S
C4033 C4034 1.524 . S
C4033 H4036 0.999 . S
C4034 H4004 0.950 . S
C4034 C4033 1.524 . S
C4034 C4035 1.415 . S
C4035 H4005 0.950 . S
C4035 C4030 1.363 . S
C4035 C4034 1.415 . S
H4036 C4033 0.999 . S
H4037 C4018 0.913 . S
H4038 C4056 0.951 . S
H4039 C4058 0.951 . S
H4040 C4060 0.950 . S
H4041 C4061 0.950 . S
H4042 C4063 0.950 . S
H4043 C4066 0.950 . S
H4044 C4067 0.950 . S
H4045 C4069 0.950 . S
H4046 C4070 0.950 . S
H4047 C4071 0.951 . S
H4048 C4073 0.951 . S
H4049 C4075 0.950 . S
H4050 C4076 0.950 . S
H4051 C4078 0.950 . S
H4052 C4081 0.950 . S
H4053 C4082 0.950 . S
H4054 C4084 0.950 . S
H4055 C4085 0.950 . S
C4056 H4038 0.951 . S
C4056 C4057 1.366 . S
C4056 C4058 1.388 . S
C4057 C4056 1.366 . S
C4057 C4061 1.385 . S
C4058 H4039 0.951 . S
C4058 C4056 1.388 . S
C4058 C4059 1.366 . S
C4059 C4058 1.366 . S
C4059 C4060 1.414 . S
C4059 C4062 1.499 . S
C4060 H4040 0.950 . S
C4060 C4059 1.414 . S
C4060 C4061 1.374 . S
C4061 H4041 0.950 . S
C4061 C4057 1.385 . S
C4061 C4060 1.374 . S
C4062 C4059 1.499 . S
C4062 C4063 1.373 . S
C4062 C4064 1.389 . S
C4063 H4042 0.950 . S
C4063 C4062 1.373 . S
C4063 C4079 1.377 . S
C4064 C4062 1.389 . S
C4064 C4065 1.524 . S
C4064 C4078 1.377 . S
C4065 C4064 1.524 . S
C4065 C4066 1.397 . S
C4065 C4070 1.363 . S
C4066 H4043 0.950 . S
C4066 C4065 1.397 . S
C4066 C4067 1.334 . S
C4067 H4044 0.950 . S
C4067 C4066 1.334 . S
C4067 C4068 1.287 . S
C4068 C4067 1.287 . S
C4068 C4069 1.524 . S
C4068 H4087 0.913 . S
C4069 H4045 0.950 . S
C4069 C4068 1.524 . S
C4069 C4070 1.415 . S
C4070 H4046 0.950 . S
C4070 C4065 1.363 . S
C4070 C4069 1.415 . S
C4071 H4047 0.951 . S
C4071 C4072 1.366 . S
C4071 C4073 1.388 . S
C4072 C4071 1.366 . S
C4072 C4076 1.385 . S
C4073 H4048 0.951 . S
C4073 C4071 1.388 . S
C4073 C4074 1.366 . S
C4074 C4073 1.366 . S
C4074 C4075 1.414 . S
C4074 C4077 1.499 . S
C4075 H4049 0.950 . S
C4075 C4074 1.414 . S
C4075 C4076 1.374 . S
C4076 H4050 0.950 . S
C4076 C4072 1.385 . S
C4076 C4075 1.374 . S
C4077 C4074 1.499 . S
C4077 C4078 1.373 . S
C4077 C4079 1.389 . S
C4078 H4051 0.950 . S
C4078 C4064 1.377 . S
C4078 C4077 1.373 . S
C4079 C4063 1.377 . S
C4079 C4077 1.389 . S
C4079 C4080 1.524 . S
C4080 C4079 1.524 . S
C4080 C4081 1.397 . S
C4080 C4085 1.363 . S
C4081 H4052 0.950 . S
C4081 C4080 1.397 . S
C4081 C4082 1.334 . S
C4082 H4053 0.950 . S
C4082 C4081 1.334 . S
C4082 C4083 1.287 . S
C4083 C4082 1.287 . S
C4083 C4084 1.524 . S
C4083 H4086 0.999 . S
C4084 H4054 0.950 . S
C4084 C4083 1.524 . S
C4084 C4085 1.415 . S
C4085 H4055 0.950 . S
C4085 C4080 1.363 . S
C4085 C4084 1.415 . S
H4086 C4083 0.999 . S
H4087 C4068 0.913 . S
H4088 C4106 0.951 . S
H4089 C4108 0.951 . S
H4090 C4110 0.950 . S
H4091 C4111 0.950 . S
H4092 C4113 0.950 . S
H4093 C4116 0.950 . S
H4094 C4117 0.950 . S
H4095 C4119 0.950 . S
H4096 C4120 0.950 . S
H4097 C4121 0.951 . S
H4098 C4123 0.951 . S
H4099 C4125 0.950 . S
H4100 C4126 0.950 . S
H4101 C4128 0.950 . S
H4102 C4131 0.950 . S
H4103 C4132 0.950 . S
H4104 C4134 0.950 . S
H4105 C4135 0.950 . S
C4106 H4088 0.951 . S
C4106 C4107 1.366 . S
C4106 C4108 1.388 . S
C4107 C4106 1.366 . S
C4107 C4111 1.385 . S
C4108 H4089 0.951 . S
C4108 C4106 1.388 . S
C4108 C4109 1.366 . S
C4109 C4108 1.366 . S
C4109 C4110 1.414 . S
C4109 C4112 1.499 . S
C4110 H4090 0.950 . S
C4110 C4109 1.414 . S
C4110 C4111 1.374 . S
C4111 H4091 0.950 . S
C4111 C4107 1.385 . S
C4111 C4110 1.374 . S
C4112 C4109 1.499 . S
C4112 C4113 1.373 . S
C4112 C4114 1.389 . S
C4113 H4092 0.950 . S
C4113 C4112 1.373 . S
C4113 C4129 1.377 . S
C4114 C4112 1.389 . S
C4114 C4115 1.524 . S
C4114 C4128 1.377 . S
C4115 C4114 1.524 . S
C4115 C4116 1.397 . S
C4115 C4120 1.363 . S
C4116 H4093 0.950 . S
C4116 C4115 1.397 . S
C4116 C4117 1.334 . S
C4117 H4094 0.950 . S
C4117 C4116 1.334 . S
C4117 C4118 1.287 . S
C4118 C4117 1.287 . S
C4118 C4119 1.524 . S
C4118 H4137 0.913 . S
C4119 H4095 0.950 . S
C4119 C4118 1.524 . S
C4119 C4120 1.415 . S
C4120 H4096 0.950 . S
C4120 C4115 1.363 . S
C4120 C4119 1.415 . S
C4121 H4097 0.951 . S
C4121 C4122 1.366 . S
C4121 C4123 1.388 . S
C4122 C4121 1.366 . S
C4122 C4126 1.385 . S
C4123 H4098 0.951 . S
C4123 C4121 1.388 . S
C4123 C4124 1.366 . S
C4124 C4123 1.366 . S
C4124 C4125 1.414 . S
C4124 C4127 1.499 . S
C4125 H4099 0.950 . S
C4125 C4124 1.414 . S
C4125 C4126 1.374 . S
C4126 H4100 0.950 . S
C4126 C4122 1.385 . S
C4126 C4125 1.374 . S
C4127 C4124 1.499 . S
C4127 C4128 1.373 . S
C4127 C4129 1.389 . S
C4128 H4101 0.950 . S
C4128 C4114 1.377 . S
C4128 C4127 1.373 . S
C4129 C4113 1.377 . S
C4129 C4127 1.389 . S
C4129 C4130 1.524 . S
C4130 C4129 1.524 . S
C4130 C4131 1.397 . S
C4130 C4135 1.363 . S
C4131 H4102 0.950 . S
C4131 C4130 1.397 . S
C4131 C4132 1.334 . S
C4132 H4103 0.950 . S
C4132 C4131 1.334 . S
C4132 C4133 1.287 . S
C4133 C4132 1.287 . S
C4133 C4134 1.524 . S
C4133 H4136 0.999 . S
C4134 H4104 0.950 . S
C4134 C4133 1.524 . S
C4134 C4135 1.415 . S
C4135 H4105 0.950 . S
C4135 C4130 1.363 . S
C4135 C4134 1.415 . S
H4136 C4133 0.999 . S
H4137 C4118 0.913 . S
H4138 C4156 0.951 . S
H4139 C4158 0.951 . S
H4140 C4160 0.950 . S
H4141 C4161 0.950 . S
H4142 C4163 0.950 . S
H4143 C4166 0.950 . S
H4144 C4167 0.950 . S
H4145 C4169 0.950 . S
H4146 C4170 0.950 . S
H4147 C4171 0.951 . S
H4148 C4173 0.951 . S
H4149 C4175 0.950 . S
H4150 C4176 0.950 . S
H4151 C4178 0.950 . S
H4152 C4181 0.950 . S
H4153 C4182 0.950 . S
H4154 C4184 0.950 . S
H4155 C4185 0.950 . S
C4156 H4138 0.951 . S
C4156 C4157 1.366 1_565 S
C4156 C4158 1.388 . S
C4157 C4156 1.366 1_545 S
C4157 C4161 1.385 . S
C4158 H4139 0.951 . S
C4158 C4156 1.388 . S
C4158 C4159 1.366 1_565 S
C4159 C4158 1.366 1_545 S
C4159 C4160 1.414 . S
C4159 C4162 1.499 . S
C4160 H4140 0.950 . S
C4160 C4159 1.414 . S
C4160 C4161 1.374 . S
C4161 H4141 0.950 . S
C4161 C4157 1.385 . S
C4161 C4160 1.374 . S
C4162 C4159 1.499 . S
C4162 C4163 1.373 . S
C4162 C4164 1.389 1_545 S
C4163 H4142 0.950 . S
C4163 C4162 1.373 . S
C4163 C4179 1.377 . S
C4164 C4162 1.389 1_565 S
C4164 C4165 1.524 . S
C4164 C4178 1.377 . S
C4165 C4164 1.524 . S
C4165 C4166 1.397 1_565 S
C4165 C4170 1.363 . S
C4166 H4143 0.950 . S
C4166 C4165 1.397 1_545 S
C4166 C4167 1.334 . S
C4167 H4144 0.950 . S
C4167 C4166 1.334 . S
C4167 C4168 1.287 1_545 S
C4168 C4167 1.287 1_565 S
C4168 C4169 1.524 . S
C4168 H4187 0.913 . S
C4169 H4145 0.950 . S
C4169 C4168 1.524 . S
C4169 C4170 1.415 . S
C4170 H4146 0.950 . S
C4170 C4165 1.363 . S
C4170 C4169 1.415 . S
C4171 H4147 0.951 . S
C4171 C4172 1.366 1_545 S
C4171 C4173 1.388 . S
C4172 C4171 1.366 1_565 S
C4172 C4176 1.385 . S
C4173 H4148 0.951 . S
C4173 C4171 1.388 . S
C4173 C4174 1.366 1_545 S
C4174 C4173 1.366 1_565 S
C4174 C4175 1.414 . S
C4174 C4177 1.499 . S
C4175 H4149 0.950 . S
C4175 C4174 1.414 . S
C4175 C4176 1.374 . S
C4176 H4150 0.950 . S
C4176 C4172 1.385 . S
C4176 C4175 1.374 . S
C4177 C4174 1.499 . S
C4177 C4178 1.373 . S
C4177 C4179 1.389 1_565 S
C4178 H4151 0.950 . S
C4178 C4164 1.377 . S
C4178 C4177 1.373 . S
C4179 C4163 1.377 . S
C4179 C4177 1.389 1_545 S
C4179 C4180 1.524 . S
C4180 C4179 1.524 . S
C4180 C4181 1.397 1_545 S
C4180 C4185 1.363 . S
C4181 H4152 0.950 . S
C4181 C4180 1.397 1_565 S
C4181 C4182 1.334 . S
C4182 H4153 0.950 . S
C4182 C4181 1.334 . S
C4182 C4183 1.287 1_565 S
C4183 C4182 1.287 1_545 S
C4183 C4184 1.524 . S
C4183 H4186 0.999 . S
C4184 H4154 0.950 . S
C4184 C4183 1.524 . S
C4184 C4185 1.415 . S
C4185 H4155 0.950 . S
C4185 C4180 1.363 . S
C4185 C4184 1.415 . S
H4186 C4183 0.999 . S
H4187 C4168 0.913 . S
H4188 C4206 0.951 . S
H4189 C4208 0.951 . S
H4190 C4210 0.950 . S
H4191 C4211 0.950 . S
H4192 C4213 0.950 . S
H4193 C4216 0.950 . S
H4194 C4217 0.950 . S
H4195 C4219 0.950 . S
H4196 C4220 0.950 . S
H4197 C4221 0.951 . S
H4198 C4223 0.951 . S
H4199 C4225 0.950 . S
H4200 C4226 0.950 . S
H4201 C4228 0.950 . S
H4202 C4231 0.950 . S
H4203 C4232 0.950 . S
H4204 C4234 0.950 . S
H4205 C4235 0.950 . S
C4206 H4188 0.951 . S
C4206 C4207 1.366 . S
C4206 C4208 1.388 . S
C4207 C4206 1.366 . S
C4207 C4211 1.385 . S
C4208 H4189 0.951 . S
C4208 C4206 1.388 . S
C4208 C4209 1.366 . S
C4209 C4208 1.366 . S
C4209 C4210 1.414 . S
C4209 C4212 1.499 . S
C4210 H4190 0.950 . S
C4210 C4209 1.414 . S
C4210 C4211 1.374 . S
C4211 H4191 0.950 . S
C4211 C4207 1.385 . S
C4211 C4210 1.374 . S
C4212 C4209 1.499 . S
C4212 C4213 1.373 . S
C4212 C4214 1.389 . S
C4213 H4192 0.950 . S
C4213 C4212 1.373 . S
C4213 C4229 1.377 . S
C4214 C4212 1.389 . S
C4214 C4215 1.524 . S
C4214 C4228 1.377 . S
C4215 C4214 1.524 . S
C4215 C4216 1.397 . S
C4215 C4220 1.363 . S
C4216 H4193 0.950 . S
C4216 C4215 1.397 . S
C4216 C4217 1.334 . S
C4217 H4194 0.950 . S
C4217 C4216 1.334 . S
C4217 C4218 1.287 . S
C4218 C4217 1.287 . S
C4218 C4219 1.524 . S
C4218 H4237 0.913 . S
C4219 H4195 0.950 . S
C4219 C4218 1.524 . S
C4219 C4220 1.415 . S
C4220 H4196 0.950 . S
C4220 C4215 1.363 . S
C4220 C4219 1.415 . S
C4221 H4197 0.951 . S
C4221 C4222 1.366 . S
C4221 C4223 1.388 . S
C4222 C4221 1.366 . S
C4222 C4226 1.385 . S
C4223 H4198 0.951 . S
C4223 C4221 1.388 . S
C4223 C4224 1.366 . S
C4224 C4223 1.366 . S
C4224 C4225 1.414 . S
C4224 C4227 1.499 . S
C4225 H4199 0.950 . S
C4225 C4224 1.414 . S
C4225 C4226 1.374 . S
C4226 H4200 0.950 . S
C4226 C4222 1.385 . S
C4226 C4225 1.374 . S
C4227 C4224 1.499 . S
C4227 C4228 1.373 . S
C4227 C4229 1.389 . S
C4228 H4201 0.950 . S
C4228 C4214 1.377 . S
C4228 C4227 1.373 . S
C4229 C4213 1.377 . S
C4229 C4227 1.389 . S
C4229 C4230 1.524 . S
C4230 C4229 1.524 . S
C4230 C4231 1.397 . S
C4230 C4235 1.363 . S
C4231 H4202 0.950 . S
C4231 C4230 1.397 . S
C4231 C4232 1.334 . S
C4232 H4203 0.950 . S
C4232 C4231 1.334 . S
C4232 C4233 1.287 . S
C4233 C4232 1.287 . S
C4233 C4234 1.524 . S
C4233 H4236 0.999 . S
C4234 H4204 0.950 . S
C4234 C4233 1.524 . S
C4234 C4235 1.415 . S
C4235 H4205 0.950 . S
C4235 C4230 1.363 . S
C4235 C4234 1.415 . S
H4236 C4233 0.999 . S
H4237 C4218 0.913 . S
H4238 C4256 0.951 . S
H4239 C4258 0.951 . S
H4240 C4260 0.950 . S
H4241 C4261 0.950 . S
H4242 C4263 0.950 . S
H4243 C4266 0.950 . S
H4244 C4267 0.950 . S
H4245 C4269 0.950 . S
H4246 C4270 0.950 1_556 S
H4247 C4271 0.951 . S
H4248 C4273 0.951 . S
H4249 C4275 0.950 . S
H4250 C4276 0.950 . S
H4251 C4278 0.950 . S
H4252 C4281 0.950 . S
H4253 C4282 0.950 . S
H4254 C4284 0.950 . S
H4255 C4285 0.950 1_554 S
C4256 H4238 0.951 . S
C4256 C4257 1.366 . S
C4256 C4258 1.388 . S
C4257 C4256 1.366 . S
C4257 C4261 1.385 . S
C4258 H4239 0.951 . S
C4258 C4256 1.388 . S
C4258 C4259 1.366 . S
C4259 C4258 1.366 . S
C4259 C4260 1.414 . S
C4259 C4262 1.499 . S
C4260 H4240 0.950 . S
C4260 C4259 1.414 . S
C4260 C4261 1.374 . S
C4261 H4241 0.950 . S
C4261 C4257 1.385 . S
C4261 C4260 1.374 . S
C4262 C4259 1.499 . S
C4262 C4263 1.373 . S
C4262 C4264 1.389 . S
C4263 H4242 0.950 . S
C4263 C4262 1.373 . S
C4263 C4279 1.377 1_554 S
C4264 C4262 1.389 . S
C4264 C4265 1.524 . S
C4264 C4278 1.377 1_554 S
C4265 C4264 1.524 . S
C4265 C4266 1.397 . S
C4265 C4270 1.363 . S
C4266 H4243 0.950 . S
C4266 C4265 1.397 . S
C4266 C4267 1.334 . S
C4267 H4244 0.950 . S
C4267 C4266 1.334 . S
C4267 C4268 1.287 . S
C4268 C4267 1.287 . S
C4268 C4269 1.524 . S
C4268 H4287 0.913 . S
C4269 H4245 0.950 . S
C4269 C4268 1.524 . S
C4269 C4270 1.415 . S
C4270 H4246 0.950 1_554 S
C4270 C4265 1.363 . S
C4270 C4269 1.415 . S
C4271 H4247 0.951 . S
C4271 C4272 1.366 . S
C4271 C4273 1.388 . S
C4272 C4271 1.366 . S
C4272 C4276 1.385 . S
C4273 H4248 0.951 . S
C4273 C4271 1.388 . S
C4273 C4274 1.366 . S
C4274 C4273 1.366 . S
C4274 C4275 1.414 . S
C4274 C4277 1.499 . S
C4275 H4249 0.950 . S
C4275 C4274 1.414 . S
C4275 C4276 1.374 . S
C4276 H4250 0.950 . S
C4276 C4272 1.385 . S
C4276 C4275 1.374 . S
C4277 C4274 1.499 . S
C4277 C4278 1.373 . S
C4277 C4279 1.389 . S
C4278 H4251 0.950 . S
C4278 C4264 1.377 1_556 S
C4278 C4277 1.373 . S
C4279 C4263 1.377 1_556 S
C4279 C4277 1.389 . S
C4279 C4280 1.524 . S
C4280 C4279 1.524 . S
C4280 C4281 1.397 . S
C4280 C4285 1.363 . S
C4281 H4252 0.950 . S
C4281 C4280 1.397 . S
C4281 C4282 1.334 . S
C4282 H4253 0.950 . S
C4282 C4281 1.334 . S
C4282 C4283 1.287 . S
C4283 C4282 1.287 . S
C4283 C4284 1.524 . S
C4283 H4286 0.999 . S
C4284 H4254 0.950 . S
C4284 C4283 1.524 . S
C4284 C4285 1.415 . S
C4285 H4255 0.950 1_556 S
C4285 C4280 1.363 . S
C4285 C4284 1.415 . S
H4286 C4283 0.999 . S
H4287 C4268 0.913 . S
H4288 C4306 0.951 . S
H4289 C4308 0.951 . S
H4290 C4310 0.950 . S
H4291 C4311 0.950 . S
H4292 C4313 0.950 . S
H4293 C4316 0.950 . S
H4294 C4317 0.950 . S
H4295 C4319 0.950 . S
H4296 C4320 0.950 . S
H4297 C4321 0.951 . S
H4298 C4323 0.951 . S
H4299 C4325 0.950 . S
H4300 C4326 0.950 . S
H4301 C4328 0.950 . S
H4302 C4331 0.950 . S
H4303 C4332 0.950 . S
H4304 C4334 0.950 . S
H4305 C4335 0.950 . S
C4306 H4288 0.951 . S
C4306 C4307 1.366 1_545 S
C4306 C4308 1.388 . S
C4307 C4306 1.366 1_565 S
C4307 C4311 1.385 . S
C4308 H4289 0.951 . S
C4308 C4306 1.388 . S
C4308 C4309 1.366 1_545 S
C4309 C4308 1.366 1_565 S
C4309 C4310 1.414 . S
C4309 C4312 1.499 . S
C4310 H4290 0.950 . S
C4310 C4309 1.414 . S
C4310 C4311 1.374 . S
C4311 H4291 0.950 . S
C4311 C4307 1.385 . S
C4311 C4310 1.374 . S
C4312 C4309 1.499 . S
C4312 C4313 1.373 . S
C4312 C4314 1.389 1_565 S
C4313 H4292 0.950 . S
C4313 C4312 1.373 . S
C4313 C4329 1.377 . S
C4314 C4312 1.389 1_545 S
C4314 C4315 1.524 . S
C4314 C4328 1.377 . S
C4315 C4314 1.524 . S
C4315 C4316 1.397 . S
C4315 C4320 1.363 . S
C4316 H4293 0.950 . S
C4316 C4315 1.397 . S
C4316 C4317 1.334 . S
C4317 H4294 0.950 . S
C4317 C4316 1.334 . S
C4317 C4318 1.287 . S
C4318 C4317 1.287 . S
C4318 C4319 1.524 . S
C4318 H4337 0.913 . S
C4319 H4295 0.950 . S
C4319 C4318 1.524 . S
C4319 C4320 1.415 . S
C4320 H4296 0.950 . S
C4320 C4315 1.363 . S
C4320 C4319 1.415 . S
C4321 H4297 0.951 . S
C4321 C4322 1.366 . S
C4321 C4323 1.388 . S
C4322 C4321 1.366 . S
C4322 C4326 1.385 1_565 S
C4323 H4298 0.951 . S
C4323 C4321 1.388 . S
C4323 C4324 1.366 . S
C4324 C4323 1.366 . S
C4324 C4325 1.414 1_565 S
C4324 C4327 1.499 . S
C4325 H4299 0.950 . S
C4325 C4324 1.414 1_545 S
C4325 C4326 1.374 . S
C4326 H4300 0.950 . S
C4326 C4322 1.385 1_545 S
C4326 C4325 1.374 . S
C4327 C4324 1.499 . S
C4327 C4328 1.373 1_565 S
C4327 C4329 1.389 . S
C4328 H4301 0.950 . S
C4328 C4314 1.377 . S
C4328 C4327 1.373 1_545 S
C4329 C4313 1.377 . S
C4329 C4327 1.389 . S
C4329 C4330 1.524 . S
C4330 C4329 1.524 . S
C4330 C4331 1.397 . S
C4330 C4335 1.363 . S
C4331 H4302 0.950 . S
C4331 C4330 1.397 . S
C4331 C4332 1.334 . S
C4332 H4303 0.950 . S
C4332 C4331 1.334 . S
C4332 C4333 1.287 . S
C4333 C4332 1.287 . S
C4333 C4334 1.524 . S
C4333 H4336 0.999 . S
C4334 H4304 0.950 . S
C4334 C4333 1.524 . S
C4334 C4335 1.415 . S
C4335 H4305 0.950 . S
C4335 C4330 1.363 . S
C4335 C4334 1.415 . S
H4336 C4333 0.999 . S
H4337 C4318 0.913 . S
H4338 C4356 0.951 . S
H4339 C4358 0.951 . S
H4340 C4360 0.950 . S
H4341 C4361 0.950 . S
H4342 C4363 0.950 . S
H4343 C4366 0.950 . S
H4344 C4367 0.950 . S
H4345 C4369 0.950 . S
H4346 C4370 0.950 . S
H4347 C4371 0.951 . S
H4348 C4373 0.951 . S
H4349 C4375 0.950 . S
H4350 C4376 0.950 . S
H4351 C4378 0.950 . S
H4352 C4381 0.950 . S
H4353 C4382 0.950 . S
H4354 C4384 0.950 . S
H4355 C4385 0.950 . S
C4356 H4338 0.951 . S
C4356 C4357 1.366 . S
C4356 C4358 1.388 . S
C4357 C4356 1.366 . S
C4357 C4361 1.385 . S
C4358 H4339 0.951 . S
C4358 C4356 1.388 . S
C4358 C4359 1.366 . S
C4359 C4358 1.366 . S
C4359 C4360 1.414 . S
C4359 C4362 1.499 . S
C4360 H4340 0.950 . S
C4360 C4359 1.414 . S
C4360 C4361 1.374 . S
C4361 H4341 0.950 . S
C4361 C4357 1.385 . S
C4361 C4360 1.374 . S
C4362 C4359 1.499 . S
C4362 C4363 1.373 . S
C4362 C4364 1.389 . S
C4363 H4342 0.950 . S
C4363 C4362 1.373 . S
C4363 C4379 1.377 . S
C4364 C4362 1.389 . S
C4364 C4365 1.524 . S
C4364 C4378 1.377 . S
C4365 C4364 1.524 . S
C4365 C4366 1.397 . S
C4365 C4370 1.363 . S
C4366 H4343 0.950 . S
C4366 C4365 1.397 . S
C4366 C4367 1.334 . S
C4367 H4344 0.950 . S
C4367 C4366 1.334 . S
C4367 C4368 1.287 . S
C4368 C4367 1.287 . S
C4368 C4369 1.524 . S
C4368 H4387 0.913 . S
C4369 H4345 0.950 . S
C4369 C4368 1.524 . S
C4369 C4370 1.415 . S
C4370 H4346 0.950 . S
C4370 C4365 1.363 . S
C4370 C4369 1.415 . S
C4371 H4347 0.951 . S
C4371 C4372 1.366 . S
C4371 C4373 1.388 . S
C4372 C4371 1.366 . S
C4372 C4376 1.385 . S
C4373 H4348 0.951 . S
C4373 C4371 1.388 . S
C4373 C4374 1.366 . S
C4374 C4373 1.366 . S
C4374 C4375 1.414 . S
C4374 C4377 1.499 . S
C4375 H4349 0.950 . S
C4375 C4374 1.414 . S
C4375 C4376 1.374 . S
C4376 H4350 0.950 . S
C4376 C4372 1.385 . S
C4376 C4375 1.374 . S
C4377 C4374 1.499 . S
C4377 C4378 1.373 . S
C4377 C4379 1.389 . S
C4378 H4351 0.950 . S
C4378 C4364 1.377 . S
C4378 C4377 1.373 . S
C4379 C4363 1.377 . S
C4379 C4377 1.389 . S
C4379 C4380 1.524 . S
C4380 C4379 1.524 . S
C4380 C4381 1.397 . S
C4380 C4385 1.363 . S
C4381 H4352 0.950 . S
C4381 C4380 1.397 . S
C4381 C4382 1.334 . S
C4382 H4353 0.950 . S
C4382 C4381 1.334 . S
C4382 C4383 1.287 . S
C4383 C4382 1.287 . S
C4383 C4384 1.524 . S
C4383 H4386 0.999 . S
C4384 H4354 0.950 . S
C4384 C4383 1.524 . S
C4384 C4385 1.415 . S
C4385 H4355 0.950 . S
C4385 C4380 1.363 . S
C4385 C4384 1.415 . S
H4386 C4383 0.999 . S
H4387 C4368 0.913 . S
H4388 C4406 0.951 . S
H4389 C4408 0.951 . S
H4390 C4410 0.950 . S
H4391 C4411 0.950 . S
H4392 C4413 0.950 . S
H4393 C4416 0.950 . S
H4394 C4417 0.950 . S
H4395 C4419 0.950 . S
H4396 C4420 0.950 . S
H4397 C4421 0.951 . S
H4398 C4423 0.951 . S
H4399 C4425 0.950 . S
H4400 C4426 0.950 . S
H4401 C4428 0.950 . S
H4402 C4431 0.950 . S
H4403 C4432 0.950 . S
H4404 C4434 0.950 . S
H4405 C4435 0.950 . S
C4406 H4388 0.951 . S
C4406 C4407 1.366 . S
C4406 C4408 1.388 . S
C4407 C4406 1.366 . S
C4407 C4411 1.385 . S
C4408 H4389 0.951 . S
C4408 C4406 1.388 . S
C4408 C4409 1.366 . S
C4409 C4408 1.366 . S
C4409 C4410 1.414 . S
C4409 C4412 1.499 . S
C4410 H4390 0.950 . S
C4410 C4409 1.414 . S
C4410 C4411 1.374 . S
C4411 H4391 0.950 . S
C4411 C4407 1.385 . S
C4411 C4410 1.374 . S
C4412 C4409 1.499 . S
C4412 C4413 1.373 . S
C4412 C4414 1.389 . S
C4413 H4392 0.950 . S
C4413 C4412 1.373 . S
C4413 C4429 1.377 . S
C4414 C4412 1.389 . S
C4414 C4415 1.524 . S
C4414 C4428 1.377 . S
C4415 C4414 1.524 . S
C4415 C4416 1.397 . S
C4415 C4420 1.363 . S
C4416 H4393 0.950 . S
C4416 C4415 1.397 . S
C4416 C4417 1.334 . S
C4417 H4394 0.950 . S
C4417 C4416 1.334 . S
C4417 C4418 1.287 . S
C4418 C4417 1.287 . S
C4418 C4419 1.524 . S
C4418 H4437 0.913 . S
C4419 H4395 0.950 . S
C4419 C4418 1.524 . S
C4419 C4420 1.415 . S
C4420 H4396 0.950 . S
C4420 C4415 1.363 . S
C4420 C4419 1.415 . S
C4421 H4397 0.951 . S
C4421 C4422 1.366 . S
C4421 C4423 1.388 . S
C4422 C4421 1.366 . S
C4422 C4426 1.385 . S
C4423 H4398 0.951 . S
C4423 C4421 1.388 . S
C4423 C4424 1.366 . S
C4424 C4423 1.366 . S
C4424 C4425 1.414 . S
C4424 C4427 1.499 . S
C4425 H4399 0.950 . S
C4425 C4424 1.414 . S
C4425 C4426 1.374 . S
C4426 H4400 0.950 . S
C4426 C4422 1.385 . S
C4426 C4425 1.374 . S
C4427 C4424 1.499 . S
C4427 C4428 1.373 . S
C4427 C4429 1.389 . S
C4428 H4401 0.950 . S
C4428 C4414 1.377 . S
C4428 C4427 1.373 . S
C4429 C4413 1.377 . S
C4429 C4427 1.389 . S
C4429 C4430 1.524 . S
C4430 C4429 1.524 . S
C4430 C4431 1.397 . S
C4430 C4435 1.363 . S
C4431 H4402 0.950 . S
C4431 C4430 1.397 . S
C4431 C4432 1.334 . S
C4432 H4403 0.950 . S
C4432 C4431 1.334 . S
C4432 C4433 1.287 . S
C4433 C4432 1.287 . S
C4433 C4434 1.524 . S
C4433 H4436 0.999 . S
C4434 H4404 0.950 . S
C4434 C4433 1.524 . S
C4434 C4435 1.415 . S
C4435 H4405 0.950 . S
C4435 C4430 1.363 . S
C4435 C4434 1.415 . S
H4436 C4433 0.999 . S
H4437 C4418 0.913 . S
H4438 C4456 0.951 . S
H4439 C4458 0.951 . S
H4440 C4460 0.950 . S
H4441 C4461 0.950 . S
H4442 C4463 0.950 . S
H4443 C4466 0.950 . S
H4444 C4467 0.950 . S
H4445 C4469 0.950 . S
H4446 C4470 0.950 . S
H4447 C4471 0.951 . S
H4448 C4473 0.951 . S
H4449 C4475 0.950 . S
H4450 C4476 0.950 . S
H4451 C4478 0.950 . S
H4452 C4481 0.950 . S
H4453 C4482 0.950 . S
H4454 C4484 0.950 . S
H4455 C4485 0.950 . S
C4456 H4438 0.951 . S
C4456 C4457 1.366 . S
C4456 C4458 1.388 . S
C4457 C4456 1.366 . S
C4457 C4461 1.385 . S
C4458 H4439 0.951 . S
C4458 C4456 1.388 . S
C4458 C4459 1.366 . S
C4459 C4458 1.366 . S
C4459 C4460 1.414 . S
C4459 C4462 1.499 . S
C4460 H4440 0.950 . S
C4460 C4459 1.414 . S
C4460 C4461 1.374 . S
C4461 H4441 0.950 . S
C4461 C4457 1.385 . S
C4461 C4460 1.374 . S
C4462 C4459 1.499 . S
C4462 C4463 1.373 1_565 S
C4462 C4464 1.389 . S
C4463 H4442 0.950 . S
C4463 C4462 1.373 1_545 S
C4463 C4479 1.377 . S
C4464 C4462 1.389 . S
C4464 C4465 1.524 . S
C4464 C4478 1.377 . S
C4465 C4464 1.524 . S
C4465 C4466 1.397 . S
C4465 C4470 1.363 . S
C4466 H4443 0.950 . S
C4466 C4465 1.397 . S
C4466 C4467 1.334 . S
C4467 H4444 0.950 . S
C4467 C4466 1.334 . S
C4467 C4468 1.287 . S
C4468 C4467 1.287 . S
C4468 C4469 1.524 . S
C4468 H4487 0.913 . S
C4469 H4445 0.950 . S
C4469 C4468 1.524 . S
C4469 C4470 1.415 . S
C4470 H4446 0.950 . S
C4470 C4465 1.363 . S
C4470 C4469 1.415 . S
C4471 H4447 0.951 . S
C4471 C4472 1.366 . S
C4471 C4473 1.388 . S
C4472 C4471 1.366 . S
C4472 C4476 1.385 . S
C4473 H4448 0.951 . S
C4473 C4471 1.388 . S
C4473 C4474 1.366 . S
C4474 C4473 1.366 . S
C4474 C4475 1.414 . S
C4474 C4477 1.499 . S
C4475 H4449 0.950 . S
C4475 C4474 1.414 . S
C4475 C4476 1.374 . S
C4476 H4450 0.950 . S
C4476 C4472 1.385 . S
C4476 C4475 1.374 . S
C4477 C4474 1.499 . S
C4477 C4478 1.373 . S
C4477 C4479 1.389 1_565 S
C4478 H4451 0.950 . S
C4478 C4464 1.377 . S
C4478 C4477 1.373 . S
C4479 C4463 1.377 . S
C4479 C4477 1.389 1_545 S
C4479 C4480 1.524 . S
C4480 C4479 1.524 . S
C4480 C4481 1.397 . S
C4480 C4485 1.363 . S
C4481 H4452 0.950 . S
C4481 C4480 1.397 . S
C4481 C4482 1.334 . S
C4482 H4453 0.950 . S
C4482 C4481 1.334 . S
C4482 C4483 1.287 . S
C4483 C4482 1.287 . S
C4483 C4484 1.524 . S
C4483 H4486 0.999 . S
C4484 H4454 0.950 . S
C4484 C4483 1.524 . S
C4484 C4485 1.415 . S
C4485 H4455 0.950 . S
C4485 C4480 1.363 . S
C4485 C4484 1.415 . S
H4486 C4483 0.999 . S
H4487 C4468 0.913 . S
H4488 C4506 0.951 . S
H4489 C4508 0.951 . S
H4490 C4510 0.950 . S
H4491 C4511 0.950 . S
H4492 C4513 0.950 . S
H4493 C4516 0.950 . S
H4494 C4517 0.950 . S
H4495 C4519 0.950 . S
H4496 C4520 0.950 1_565 S
H4497 C4521 0.951 . S
H4498 C4523 0.951 . S
H4499 C4525 0.950 . S
H4500 C4526 0.950 . S
H4501 C4528 0.950 . S
H4502 C4531 0.950 . S
H4503 C4532 0.950 . S
H4504 C4534 0.950 . S
H4505 C4535 0.950 . S
C4506 H4488 0.951 . S
C4506 C4507 1.366 1_565 S
C4506 C4508 1.388 . S
C4507 C4506 1.366 1_545 S
C4507 C4511 1.385 . S
C4508 H4489 0.951 . S
C4508 C4506 1.388 . S
C4508 C4509 1.366 1_565 S
C4509 C4508 1.366 1_545 S
C4509 C4510 1.414 . S
C4509 C4512 1.499 . S
C4510 H4490 0.950 . S
C4510 C4509 1.414 . S
C4510 C4511 1.374 . S
C4511 H4491 0.950 . S
C4511 C4507 1.385 . S
C4511 C4510 1.374 . S
C4512 C4509 1.499 . S
C4512 C4513 1.373 . S
C4512 C4514 1.389 . S
C4513 H4492 0.950 . S
C4513 C4512 1.373 . S
C4513 C4529 1.377 . S
C4514 C4512 1.389 . S
C4514 C4515 1.524 . S
C4514 C4528 1.377 . S
C4515 C4514 1.524 . S
C4515 C4516 1.397 . S
C4515 C4520 1.363 . S
C4516 H4493 0.950 . S
C4516 C4515 1.397 . S
C4516 C4517 1.334 . S
C4517 H4494 0.950 . S
C4517 C4516 1.334 . S
C4517 C4518 1.287 . S
C4518 C4517 1.287 . S
C4518 C4519 1.524 . S
C4518 H4537 0.913 . S
C4519 H4495 0.950 . S
C4519 C4518 1.524 . S
C4519 C4520 1.415 . S
C4520 H4496 0.950 1_545 S
C4520 C4515 1.363 . S
C4520 C4519 1.415 . S
C4521 H4497 0.951 . S
C4521 C4522 1.366 . S
C4521 C4523 1.388 . S
C4522 C4521 1.366 . S
C4522 C4526 1.385 1_545 S
C4523 H4498 0.951 . S
C4523 C4521 1.388 . S
C4523 C4524 1.366 . S
C4524 C4523 1.366 . S
C4524 C4525 1.414 1_545 S
C4524 C4527 1.499 . S
C4525 H4499 0.950 . S
C4525 C4524 1.414 1_565 S
C4525 C4526 1.374 . S
C4526 H4500 0.950 . S
C4526 C4522 1.385 1_565 S
C4526 C4525 1.374 . S
C4527 C4524 1.499 . S
C4527 C4528 1.373 . S
C4527 C4529 1.389 . S
C4528 H4501 0.950 . S
C4528 C4514 1.377 . S
C4528 C4527 1.373 . S
C4529 C4513 1.377 . S
C4529 C4527 1.389 . S
C4529 C4530 1.524 . S
C4530 C4529 1.524 . S
C4530 C4531 1.397 1_545 S
C4530 C4535 1.363 . S
C4531 H4502 0.950 . S
C4531 C4530 1.397 1_565 S
C4531 C4532 1.334 . S
C4532 H4503 0.950 . S
C4532 C4531 1.334 . S
C4532 C4533 1.287 . S
C4533 C4532 1.287 . S
C4533 C4534 1.524 1_565 S
C4533 H4536 0.999 . S
C4534 H4504 0.950 . S
C4534 C4533 1.524 1_545 S
C4534 C4535 1.415 . S
C4535 H4505 0.950 . S
C4535 C4530 1.363 . S
C4535 C4534 1.415 . S
H4536 C4533 0.999 . S
H4537 C4518 0.913 . S
H4538 C4556 0.951 . S
H4539 C4558 0.951 . S
H4540 C4560 0.950 . S
H4541 C4561 0.950 . S
H4542 C4563 0.950 . S
H4543 C4566 0.950 . S
H4544 C4567 0.950 . S
H4545 C4569 0.950 . S
H4546 C4570 0.950 . S
H4547 C4571 0.951 . S
H4548 C4573 0.951 . S
H4549 C4575 0.950 . S
H4550 C4576 0.950 . S
H4551 C4578 0.950 . S
H4552 C4581 0.950 . S
H4553 C4582 0.950 . S
H4554 C4584 0.950 . S
H4555 C4585 0.950 . S
C4556 H4538 0.951 . S
C4556 C4557 1.366 . S
C4556 C4558 1.388 . S
C4557 C4556 1.366 . S
C4557 C4561 1.385 . S
C4558 H4539 0.951 . S
C4558 C4556 1.388 . S
C4558 C4559 1.366 . S
C4559 C4558 1.366 . S
C4559 C4560 1.414 . S
C4559 C4562 1.499 . S
C4560 H4540 0.950 . S
C4560 C4559 1.414 . S
C4560 C4561 1.374 . S
C4561 H4541 0.950 . S
C4561 C4557 1.385 . S
C4561 C4560 1.374 . S
C4562 C4559 1.499 . S
C4562 C4563 1.373 . S
C4562 C4564 1.389 . S
C4563 H4542 0.950 . S
C4563 C4562 1.373 . S
C4563 C4579 1.377 . S
C4564 C4562 1.389 . S
C4564 C4565 1.524 . S
C4564 C4578 1.377 . S
C4565 C4564 1.524 . S
C4565 C4566 1.397 . S
C4565 C4570 1.363 . S
C4566 H4543 0.950 . S
C4566 C4565 1.397 . S
C4566 C4567 1.334 . S
C4567 H4544 0.950 . S
C4567 C4566 1.334 . S
C4567 C4568 1.287 . S
C4568 C4567 1.287 . S
C4568 C4569 1.524 . S
C4568 H4587 0.913 . S
C4569 H4545 0.950 . S
C4569 C4568 1.524 . S
C4569 C4570 1.415 . S
C4570 H4546 0.950 . S
C4570 C4565 1.363 . S
C4570 C4569 1.415 . S
C4571 H4547 0.951 . S
C4571 C4572 1.366 . S
C4571 C4573 1.388 . S
C4572 C4571 1.366 . S
C4572 C4576 1.385 . S
C4573 H4548 0.951 . S
C4573 C4571 1.388 . S
C4573 C4574 1.366 . S
C4574 C4573 1.366 . S
C4574 C4575 1.414 . S
C4574 C4577 1.499 . S
C4575 H4549 0.950 . S
C4575 C4574 1.414 . S
C4575 C4576 1.374 . S
C4576 H4550 0.950 . S
C4576 C4572 1.385 . S
C4576 C4575 1.374 . S
C4577 C4574 1.499 . S
C4577 C4578 1.373 . S
C4577 C4579 1.389 . S
C4578 H4551 0.950 . S
C4578 C4564 1.377 . S
C4578 C4577 1.373 . S
C4579 C4563 1.377 . S
C4579 C4577 1.389 . S
C4579 C4580 1.524 . S
C4580 C4579 1.524 . S
C4580 C4581 1.397 . S
C4580 C4585 1.363 . S
C4581 H4552 0.950 . S
C4581 C4580 1.397 . S
C4581 C4582 1.334 . S
C4582 H4553 0.950 . S
C4582 C4581 1.334 . S
C4582 C4583 1.287 . S
C4583 C4582 1.287 . S
C4583 C4584 1.524 . S
C4583 H4586 0.999 . S
C4584 H4554 0.950 . S
C4584 C4583 1.524 . S
C4584 C4585 1.415 . S
C4585 H4555 0.950 . S
C4585 C4580 1.363 . S
C4585 C4584 1.415 . S
H4586 C4583 0.999 . S
H4587 C4568 0.913 . S
H4588 C4606 0.951 . S
H4589 C4608 0.951 . S
H4590 C4610 0.950 . S
H4591 C4611 0.950 . S
H4592 C4613 0.950 . S
H4593 C4616 0.950 . S
H4594 C4617 0.950 . S
H4595 C4619 0.950 . S
H4596 C4620 0.950 . S
H4597 C4621 0.951 . S
H4598 C4623 0.951 . S
H4599 C4625 0.950 . S
H4600 C4626 0.950 . S
H4601 C4628 0.950 . S
H4602 C4631 0.950 . S
H4603 C4632 0.950 . S
H4604 C4634 0.950 . S
H4605 C4635 0.950 . S
C4606 H4588 0.951 . S
C4606 C4607 1.366 . S
C4606 C4608 1.388 . S
C4607 C4606 1.366 . S
C4607 C4611 1.385 . S
C4608 H4589 0.951 . S
C4608 C4606 1.388 . S
C4608 C4609 1.366 . S
C4609 C4608 1.366 . S
C4609 C4610 1.414 . S
C4609 C4612 1.499 . S
C4610 H4590 0.950 . S
C4610 C4609 1.414 . S
C4610 C4611 1.374 . S
C4611 H4591 0.950 . S
C4611 C4607 1.385 . S
C4611 C4610 1.374 . S
C4612 C4609 1.499 . S
C4612 C4613 1.373 . S
C4612 C4614 1.389 . S
C4613 H4592 0.950 . S
C4613 C4612 1.373 . S
C4613 C4629 1.377 . S
C4614 C4612 1.389 . S
C4614 C4615 1.524 . S
C4614 C4628 1.377 . S
C4615 C4614 1.524 . S
C4615 C4616 1.397 . S
C4615 C4620 1.363 . S
C4616 H4593 0.950 . S
C4616 C4615 1.397 . S
C4616 C4617 1.334 . S
C4617 H4594 0.950 . S
C4617 C4616 1.334 . S
C4617 C4618 1.287 . S
C4618 C4617 1.287 . S
C4618 C4619 1.524 . S
C4618 H4637 0.913 . S
C4619 H4595 0.950 . S
C4619 C4618 1.524 . S
C4619 C4620 1.415 . S
C4620 H4596 0.950 . S
C4620 C4615 1.363 . S
C4620 C4619 1.415 . S
C4621 H4597 0.951 . S
C4621 C4622 1.366 . S
C4621 C4623 1.388 . S
C4622 C4621 1.366 . S
C4622 C4626 1.385 . S
C4623 H4598 0.951 . S
C4623 C4621 1.388 . S
C4623 C4624 1.366 . S
C4624 C4623 1.366 . S
C4624 C4625 1.414 . S
C4624 C4627 1.499 . S
C4625 H4599 0.950 . S
C4625 C4624 1.414 . S
C4625 C4626 1.374 . S
C4626 H4600 0.950 . S
C4626 C4622 1.385 . S
C4626 C4625 1.374 . S
C4627 C4624 1.499 . S
C4627 C4628 1.373 . S
C4627 C4629 1.389 . S
C4628 H4601 0.950 . S
C4628 C4614 1.377 . S
C4628 C4627 1.373 . S
C4629 C4613 1.377 . S
C4629 C4627 1.389 . S
C4629 C4630 1.524 . S
C4630 C4629 1.524 . S
C4630 C4631 1.397 . S
C4630 C4635 1.363 . S
C4631 H4602 0.950 . S
C4631 C4630 1.397 . S
C4631 C4632 1.334 . S
C4632 H4603 0.950 . S
C4632 C4631 1.334 . S
C4632 C4633 1.287 . S
C4633 C4632 1.287 . S
C4633 C4634 1.524 . S
C4633 H4636 0.999 . S
C4634 H4604 0.950 . S
C4634 C4633 1.524 . S
C4634 C4635 1.415 . S
C4635 H4605 0.950 . S
C4635 C4630 1.363 . S
C4635 C4634 1.415 . S
H4636 C4633 0.999 . S
H4637 C4618 0.913 . S
H4638 C4656 0.951 . S
H4639 C4658 0.951 . S
H4640 C4660 0.950 . S
H4641 C4661 0.950 . S
H4642 C4663 0.950 1_565 S
H4643 C4666 0.950 1_565 S
H4644 C4667 0.950 . S
H4645 C4669 0.950 . S
H4646 C4670 0.950 . S
H4647 C4671 0.951 . S
H4648 C4673 0.951 . S
H4649 C4675 0.950 . S
H4650 C4676 0.950 . S
H4651 C4678 0.950 . S
H4652 C4681 0.950 . S
H4653 C4682 0.950 . S
H4654 C4684 0.950 . S
H4655 C4685 0.950 . S
C4656 H4638 0.951 . S
C4656 C4657 1.366 . S
C4656 C4658 1.388 . S
C4657 C4656 1.366 . S
C4657 C4661 1.385 1_545 S
C4658 H4639 0.951 . S
C4658 C4656 1.388 . S
C4658 C4659 1.366 . S
C4659 C4658 1.366 . S
C4659 C4660 1.414 1_545 S
C4659 C4662 1.499 . S
C4660 H4640 0.950 . S
C4660 C4659 1.414 1_565 S
C4660 C4661 1.374 . S
C4661 H4641 0.950 . S
C4661 C4657 1.385 1_565 S
C4661 C4660 1.374 . S
C4662 C4659 1.499 . S
C4662 C4663 1.373 . S
C4662 C4664 1.389 . S
C4663 H4642 0.950 1_545 S
C4663 C4662 1.373 . S
C4663 C4679 1.377 . S
C4664 C4662 1.389 . S
C4664 C4665 1.524 . S
C4664 C4678 1.377 . S
C4665 C4664 1.524 . S
C4665 C4666 1.397 . S
C4665 C4670 1.363 . S
C4666 H4643 0.950 1_545 S
C4666 C4665 1.397 . S
C4666 C4667 1.334 . S
C4667 H4644 0.950 . S
C4667 C4666 1.334 . S
C4667 C4668 1.287 . S
C4668 C4667 1.287 . S
C4668 C4669 1.524 . S
C4668 H4687 0.913 . S
C4669 H4645 0.950 . S
C4669 C4668 1.524 . S
C4669 C4670 1.415 . S
C4670 H4646 0.950 . S
C4670 C4665 1.363 . S
C4670 C4669 1.415 . S
C4671 H4647 0.951 . S
C4671 C4672 1.366 1_565 S
C4671 C4673 1.388 . S
C4672 C4671 1.366 1_545 S
C4672 C4676 1.385 . S
C4673 H4648 0.951 . S
C4673 C4671 1.388 . S
C4673 C4674 1.366 1_565 S
C4674 C4673 1.366 1_545 S
C4674 C4675 1.414 . S
C4674 C4677 1.499 . S
C4675 H4649 0.950 . S
C4675 C4674 1.414 . S
C4675 C4676 1.374 . S
C4676 H4650 0.950 . S
C4676 C4672 1.385 . S
C4676 C4675 1.374 . S
C4677 C4674 1.499 . S
C4677 C4678 1.373 . S
C4677 C4679 1.389 . S
C4678 H4651 0.950 . S
C4678 C4664 1.377 . S
C4678 C4677 1.373 . S
C4679 C4663 1.377 . S
C4679 C4677 1.389 . S
C4679 C4680 1.524 1_545 S
C4680 C4679 1.524 1_565 S
C4680 C4681 1.397 1_565 S
C4680 C4685 1.363 . S
C4681 H4652 0.950 . S
C4681 C4680 1.397 1_545 S
C4681 C4682 1.334 . S
C4682 H4653 0.950 . S
C4682 C4681 1.334 . S
C4682 C4683 1.287 1_545 S
C4683 C4682 1.287 1_565 S
C4683 C4684 1.524 . S
C4683 H4686 0.999 . S
C4684 H4654 0.950 . S
C4684 C4683 1.524 . S
C4684 C4685 1.415 . S
C4685 H4655 0.950 . S
C4685 C4680 1.363 . S
C4685 C4684 1.415 . S
H4686 C4683 0.999 . S
H4687 C4668 0.913 . S
H4688 C4706 0.951 . S
H4689 C4708 0.951 . S
H4690 C4710 0.950 . S
H4691 C4711 0.950 . S
H4692 C4713 0.950 . S
H4693 C4716 0.950 . S
H4694 C4717 0.950 . S
H4695 C4719 0.950 . S
H4696 C4720 0.950 . S
H4697 C4721 0.951 . S
H4698 C4723 0.951 . S
H4699 C4725 0.950 . S
H4700 C4726 0.950 . S
H4701 C4728 0.950 . S
H4702 C4731 0.950 . S
H4703 C4732 0.950 . S
H4704 C4734 0.950 . S
H4705 C4735 0.950 . S
C4706 H4688 0.951 . S
C4706 C4707 1.366 . S
C4706 C4708 1.388 . S
C4707 C4706 1.366 . S
C4707 C4711 1.385 . S
C4708 H4689 0.951 . S
C4708 C4706 1.388 . S
C4708 C4709 1.366 . S
C4709 C4708 1.366 . S
C4709 C4710 1.414 . S
C4709 C4712 1.499 . S
C4710 H4690 0.950 . S
C4710 C4709 1.414 . S
C4710 C4711 1.374 . S
C4711 H4691 0.950 . S
C4711 C4707 1.385 . S
C4711 C4710 1.374 . S
C4712 C4709 1.499 . S
C4712 C4713 1.373 . S
C4712 C4714 1.389 . S
C4713 H4692 0.950 . S
C4713 C4712 1.373 . S
C4713 C4729 1.377 . S
C4714 C4712 1.389 . S
C4714 C4715 1.524 . S
C4714 C4728 1.377 . S
C4715 C4714 1.524 . S
C4715 C4716 1.397 . S
C4715 C4720 1.363 . S
C4716 H4693 0.950 . S
C4716 C4715 1.397 . S
C4716 C4717 1.334 . S
C4717 H4694 0.950 . S
C4717 C4716 1.334 . S
C4717 C4718 1.287 . S
C4718 C4717 1.287 . S
C4718 C4719 1.524 . S
C4718 H4737 0.913 . S
C4719 H4695 0.950 . S
C4719 C4718 1.524 . S
C4719 C4720 1.415 . S
C4720 H4696 0.950 . S
C4720 C4715 1.363 . S
C4720 C4719 1.415 . S
C4721 H4697 0.951 . S
C4721 C4722 1.366 . S
C4721 C4723 1.388 . S
C4722 C4721 1.366 . S
C4722 C4726 1.385 . S
C4723 H4698 0.951 . S
C4723 C4721 1.388 . S
C4723 C4724 1.366 . S
C4724 C4723 1.366 . S
C4724 C4725 1.414 . S
C4724 C4727 1.499 . S
C4725 H4699 0.950 . S
C4725 C4724 1.414 . S
C4725 C4726 1.374 . S
C4726 H4700 0.950 . S
C4726 C4722 1.385 . S
C4726 C4725 1.374 . S
C4727 C4724 1.499 . S
C4727 C4728 1.373 . S
C4727 C4729 1.389 . S
C4728 H4701 0.950 . S
C4728 C4714 1.377 . S
C4728 C4727 1.373 . S
C4729 C4713 1.377 . S
C4729 C4727 1.389 . S
C4729 C4730 1.524 . S
C4730 C4729 1.524 . S
C4730 C4731 1.397 . S
C4730 C4735 1.363 . S
C4731 H4702 0.950 . S
C4731 C4730 1.397 . S
C4731 C4732 1.334 . S
C4732 H4703 0.950 . S
C4732 C4731 1.334 . S
C4732 C4733 1.287 . S
C4733 C4732 1.287 . S
C4733 C4734 1.524 . S
C4733 H4736 0.999 . S
C4734 H4704 0.950 . S
C4734 C4733 1.524 . S
C4734 C4735 1.415 . S
C4735 H4705 0.950 . S
C4735 C4730 1.363 . S
C4735 C4734 1.415 . S
H4736 C4733 0.999 . S
H4737 C4718 0.913 . S
H4738 C4756 0.951 . S
H4739 C4758 0.951 . S
H4740 C4760 0.950 . S
H4741 C4761 0.950 . S
H4742 C4763 0.950 . S
H4743 C4766 0.950 . S
H4744 C4767 0.950 . S
H4745 C4769 0.950 . S
H4746 C4770 0.950 . S
H4747 C4771 0.951 . S
H4748 C4773 0.951 . S
H4749 C4775 0.950 . S
H4750 C4776 0.950 . S
H4751 C4778 0.950 . S
H4752 C4781 0.950 . S
H4753 C4782 0.950 . S
H4754 C4784 0.950 . S
H4755 C4785 0.950 . S
C4756 H4738 0.951 . S
C4756 C4757 1.366 . S
C4756 C4758 1.388 . S
C4757 C4756 1.366 . S
C4757 C4761 1.385 . S
C4758 H4739 0.951 . S
C4758 C4756 1.388 . S
C4758 C4759 1.366 . S
C4759 C4758 1.366 . S
C4759 C4760 1.414 . S
C4759 C4762 1.499 . S
C4760 H4740 0.950 . S
C4760 C4759 1.414 . S
C4760 C4761 1.374 . S
C4761 H4741 0.950 . S
C4761 C4757 1.385 . S
C4761 C4760 1.374 . S
C4762 C4759 1.499 . S
C4762 C4763 1.373 . S
C4762 C4764 1.389 . S
C4763 H4742 0.950 . S
C4763 C4762 1.373 . S
C4763 C4779 1.377 . S
C4764 C4762 1.389 . S
C4764 C4765 1.524 . S
C4764 C4778 1.377 . S
C4765 C4764 1.524 . S
C4765 C4766 1.397 . S
C4765 C4770 1.363 . S
C4766 H4743 0.950 . S
C4766 C4765 1.397 . S
C4766 C4767 1.334 . S
C4767 H4744 0.950 . S
C4767 C4766 1.334 . S
C4767 C4768 1.287 . S
C4768 C4767 1.287 . S
C4768 C4769 1.524 . S
C4768 H4787 0.913 . S
C4769 H4745 0.950 . S
C4769 C4768 1.524 . S
C4769 C4770 1.415 . S
C4770 H4746 0.950 . S
C4770 C4765 1.363 . S
C4770 C4769 1.415 . S
C4771 H4747 0.951 . S
C4771 C4772 1.366 . S
C4771 C4773 1.388 . S
C4772 C4771 1.366 . S
C4772 C4776 1.385 . S
C4773 H4748 0.951 . S
C4773 C4771 1.388 . S
C4773 C4774 1.366 . S
C4774 C4773 1.366 . S
C4774 C4775 1.414 . S
C4774 C4777 1.499 . S
C4775 H4749 0.950 . S
C4775 C4774 1.414 . S
C4775 C4776 1.374 . S
C4776 H4750 0.950 . S
C4776 C4772 1.385 . S
C4776 C4775 1.374 . S
C4777 C4774 1.499 . S
C4777 C4778 1.373 . S
C4777 C4779 1.389 . S
C4778 H4751 0.950 . S
C4778 C4764 1.377 . S
C4778 C4777 1.373 . S
C4779 C4763 1.377 . S
C4779 C4777 1.389 . S
C4779 C4780 1.524 . S
C4780 C4779 1.524 . S
C4780 C4781 1.397 . S
C4780 C4785 1.363 . S
C4781 H4752 0.950 . S
C4781 C4780 1.397 . S
C4781 C4782 1.334 . S
C4782 H4753 0.950 . S
C4782 C4781 1.334 . S
C4782 C4783 1.287 . S
C4783 C4782 1.287 . S
C4783 C4784 1.524 . S
C4783 H4786 0.999 . S
C4784 H4754 0.950 . S
C4784 C4783 1.524 . S
C4784 C4785 1.415 . S
C4785 H4755 0.950 . S
C4785 C4780 1.363 . S
C4785 C4784 1.415 . S
H4786 C4783 0.999 . S
H4787 C4768 0.913 . S
H4788 C4806 0.951 . S
H4789 C4808 0.951 . S
H4790 C4810 0.950 . S
H4791 C4811 0.950 . S
H4792 C4813 0.950 . S
H4793 C4816 0.950 . S
H4794 C4817 0.950 . S
H4795 C4819 0.950 . S
H4796 C4820 0.950 . S
H4797 C4821 0.951 . S
H4798 C4823 0.951 . S
H4799 C4825 0.950 . S
H4800 C4826 0.950 . S
H4801 C4828 0.950 . S
H4802 C4831 0.950 . S
H4803 C4832 0.950 . S
H4804 C4834 0.950 . S
H4805 C4835 0.950 . S
C4806 H4788 0.951 . S
C4806 C4807 1.366 . S
C4806 C4808 1.388 . S
C4807 C4806 1.366 . S
C4807 C4811 1.385 . S
C4808 H4789 0.951 . S
C4808 C4806 1.388 . S
C4808 C4809 1.366 . S
C4809 C4808 1.366 . S
C4809 C4810 1.414 . S
C4809 C4812 1.499 . S
C4810 H4790 0.950 . S
C4810 C4809 1.414 . S
C4810 C4811 1.374 . S
C4811 H4791 0.950 . S
C4811 C4807 1.385 . S
C4811 C4810 1.374 . S
C4812 C4809 1.499 . S
C4812 C4813 1.373 . S
C4812 C4814 1.389 . S
C4813 H4792 0.950 . S
C4813 C4812 1.373 . S
C4813 C4829 1.377 . S
C4814 C4812 1.389 . S
C4814 C4815 1.524 . S
C4814 C4828 1.377 . S
C4815 C4814 1.524 . S
C4815 C4816 1.397 . S
C4815 C4820 1.363 . S
C4816 H4793 0.950 . S
C4816 C4815 1.397 . S
C4816 C4817 1.334 . S
C4817 H4794 0.950 . S
C4817 C4816 1.334 . S
C4817 C4818 1.287 . S
C4818 C4817 1.287 . S
C4818 C4819 1.524 . S
C4818 H4837 0.913 . S
C4819 H4795 0.950 . S
C4819 C4818 1.524 . S
C4819 C4820 1.415 . S
C4820 H4796 0.950 . S
C4820 C4815 1.363 . S
C4820 C4819 1.415 . S
C4821 H4797 0.951 . S
C4821 C4822 1.366 . S
C4821 C4823 1.388 . S
C4822 C4821 1.366 . S
C4822 C4826 1.385 . S
C4823 H4798 0.951 . S
C4823 C4821 1.388 . S
C4823 C4824 1.366 . S
C4824 C4823 1.366 . S
C4824 C4825 1.414 . S
C4824 C4827 1.499 . S
C4825 H4799 0.950 . S
C4825 C4824 1.414 . S
C4825 C4826 1.374 . S
C4826 H4800 0.950 . S
C4826 C4822 1.385 . S
C4826 C4825 1.374 . S
C4827 C4824 1.499 . S
C4827 C4828 1.373 . S
C4827 C4829 1.389 . S
C4828 H4801 0.950 . S
C4828 C4814 1.377 . S
C4828 C4827 1.373 . S
C4829 C4813 1.377 . S
C4829 C4827 1.389 . S
C4829 C4830 1.524 . S
C4830 C4829 1.524 . S
C4830 C4831 1.397 . S
C4830 C4835 1.363 . S
C4831 H4802 0.950 . S
C4831 C4830 1.397 . S
C4831 C4832 1.334 . S
C4832 H4803 0.950 . S
C4832 C4831 1.334 . S
C4832 C4833 1.287 . S
C4833 C4832 1.287 . S
C4833 C4834 1.524 . S
C4833 H4836 0.999 . S
C4834 H4804 0.950 . S
C4834 C4833 1.524 . S
C4834 C4835 1.415 . S
C4835 H4805 0.950 . S
C4835 C4830 1.363 . S
C4835 C4834 1.415 . S
H4836 C4833 0.999 . S
H4837 C4818 0.913 . S
H4838 C4856 0.951 . S
H4839 C4858 0.951 . S
H4840 C4860 0.950 . S
H4841 C4861 0.950 . S
H4842 C4863 0.950 . S
H4843 C4866 0.950 . S
H4844 C4867 0.950 . S
H4845 C4869 0.950 . S
H4846 C4870 0.950 . S
H4847 C4871 0.951 . S
H4848 C4873 0.951 . S
H4849 C4875 0.950 . S
H4850 C4876 0.950 . S
H4851 C4878 0.950 . S
H4852 C4881 0.950 . S
H4853 C4882 0.950 . S
H4854 C4884 0.950 . S
H4855 C4885 0.950 . S
C4856 H4838 0.951 . S
C4856 C4857 1.366 . S
C4856 C4858 1.388 . S
C4857 C4856 1.366 . S
C4857 C4861 1.385 . S
C4858 H4839 0.951 . S
C4858 C4856 1.388 . S
C4858 C4859 1.366 . S
C4859 C4858 1.366 . S
C4859 C4860 1.414 . S
C4859 C4862 1.499 . S
C4860 H4840 0.950 . S
C4860 C4859 1.414 . S
C4860 C4861 1.374 . S
C4861 H4841 0.950 . S
C4861 C4857 1.385 . S
C4861 C4860 1.374 . S
C4862 C4859 1.499 . S
C4862 C4863 1.373 . S
C4862 C4864 1.389 . S
C4863 H4842 0.950 . S
C4863 C4862 1.373 . S
C4863 C4879 1.377 . S
C4864 C4862 1.389 . S
C4864 C4865 1.524 . S
C4864 C4878 1.377 . S
C4865 C4864 1.524 . S
C4865 C4866 1.397 . S
C4865 C4870 1.363 . S
C4866 H4843 0.950 . S
C4866 C4865 1.397 . S
C4866 C4867 1.334 . S
C4867 H4844 0.950 . S
C4867 C4866 1.334 . S
C4867 C4868 1.287 . S
C4868 C4867 1.287 . S
C4868 C4869 1.524 . S
C4868 H4887 0.913 . S
C4869 H4845 0.950 . S
C4869 C4868 1.524 . S
C4869 C4870 1.415 . S
C4870 H4846 0.950 . S
C4870 C4865 1.363 . S
C4870 C4869 1.415 . S
C4871 H4847 0.951 . S
C4871 C4872 1.366 . S
C4871 C4873 1.388 . S
C4872 C4871 1.366 . S
C4872 C4876 1.385 . S
C4873 H4848 0.951 . S
C4873 C4871 1.388 . S
C4873 C4874 1.366 . S
C4874 C4873 1.366 . S
C4874 C4875 1.414 . S
C4874 C4877 1.499 . S
C4875 H4849 0.950 . S
C4875 C4874 1.414 . S
C4875 C4876 1.374 . S
C4876 H4850 0.950 . S
C4876 C4872 1.385 . S
C4876 C4875 1.374 . S
C4877 C4874 1.499 . S
C4877 C4878 1.373 . S
C4877 C4879 1.389 . S
C4878 H4851 0.950 . S
C4878 C4864 1.377 . S
C4878 C4877 1.373 . S
C4879 C4863 1.377 . S
C4879 C4877 1.389 . S
C4879 C4880 1.524 . S
C4880 C4879 1.524 . S
C4880 C4881 1.397 . S
C4880 C4885 1.363 . S
C4881 H4852 0.950 . S
C4881 C4880 1.397 . S
C4881 C4882 1.334 . S
C4882 H4853 0.950 . S
C4882 C4881 1.334 . S
C4882 C4883 1.287 . S
C4883 C4882 1.287 . S
C4883 C4884 1.524 . S
C4883 H4886 0.999 . S
C4884 H4854 0.950 . S
C4884 C4883 1.524 . S
C4884 C4885 1.415 . S
C4885 H4855 0.950 . S
C4885 C4880 1.363 . S
C4885 C4884 1.415 . S
H4886 C4883 0.999 . S
H4887 C4868 0.913 . S
H4888 C4906 0.951 . S
H4889 C4908 0.951 . S
H4890 C4910 0.950 . S
H4891 C4911 0.950 . S
H4892 C4913 0.950 . S
H4893 C4916 0.950 . S
H4894 C4917 0.950 . S
H4895 C4919 0.950 . S
H4896 C4920 0.950 . S
H4897 C4921 0.951 . S
H4898 C4923 0.951 . S
H4899 C4925 0.950 . S
H4900 C4926 0.950 . S
H4901 C4928 0.950 . S
H4902 C4931 0.950 . S
H4903 C4932 0.950 . S
H4904 C4934 0.950 . S
H4905 C4935 0.950 . S
C4906 H4888 0.951 . S
C4906 C4907 1.366 . S
C4906 C4908 1.388 . S
C4907 C4906 1.366 . S
C4907 C4911 1.385 . S
C4908 H4889 0.951 . S
C4908 C4906 1.388 . S
C4908 C4909 1.366 . S
C4909 C4908 1.366 . S
C4909 C4910 1.414 . S
C4909 C4912 1.499 . S
C4910 H4890 0.950 . S
C4910 C4909 1.414 . S
C4910 C4911 1.374 . S
C4911 H4891 0.950 . S
C4911 C4907 1.385 . S
C4911 C4910 1.374 . S
C4912 C4909 1.499 . S
C4912 C4913 1.373 . S
C4912 C4914 1.389 . S
C4913 H4892 0.950 . S
C4913 C4912 1.373 . S
C4913 C4929 1.377 . S
C4914 C4912 1.389 . S
C4914 C4915 1.524 . S
C4914 C4928 1.377 . S
C4915 C4914 1.524 . S
C4915 C4916 1.397 . S
C4915 C4920 1.363 . S
C4916 H4893 0.950 . S
C4916 C4915 1.397 . S
C4916 C4917 1.334 . S
C4917 H4894 0.950 . S
C4917 C4916 1.334 . S
C4917 C4918 1.287 . S
C4918 C4917 1.287 . S
C4918 C4919 1.524 . S
C4918 H4937 0.913 . S
C4919 H4895 0.950 . S
C4919 C4918 1.524 . S
C4919 C4920 1.415 . S
C4920 H4896 0.950 . S
C4920 C4915 1.363 . S
C4920 C4919 1.415 . S
C4921 H4897 0.951 . S
C4921 C4922 1.366 . S
C4921 C4923 1.388 . S
C4922 C4921 1.366 . S
C4922 C4926 1.385 . S
C4923 H4898 0.951 . S
C4923 C4921 1.388 . S
C4923 C4924 1.366 . S
C4924 C4923 1.366 . S
C4924 C4925 1.414 . S
C4924 C4927 1.499 . S
C4925 H4899 0.950 . S
C4925 C4924 1.414 . S
C4925 C4926 1.374 . S
C4926 H4900 0.950 . S
C4926 C4922 1.385 . S
C4926 C4925 1.374 . S
C4927 C4924 1.499 . S
C4927 C4928 1.373 . S
C4927 C4929 1.389 . S
C4928 H4901 0.950 . S
C4928 C4914 1.377 . S
C4928 C4927 1.373 . S
C4929 C4913 1.377 . S
C4929 C4927 1.389 . S
C4929 C4930 1.524 . S
C4930 C4929 1.524 . S
C4930 C4931 1.397 . S
C4930 C4935 1.363 . S
C4931 H4902 0.950 . S
C4931 C4930 1.397 . S
C4931 C4932 1.334 . S
C4932 H4903 0.950 . S
C4932 C4931 1.334 . S
C4932 C4933 1.287 . S
C4933 C4932 1.287 . S
C4933 C4934 1.524 . S
C4933 H4936 0.999 . S
C4934 H4904 0.950 . S
C4934 C4933 1.524 . S
C4934 C4935 1.415 . S
C4935 H4905 0.950 . S
C4935 C4930 1.363 . S
C4935 C4934 1.415 . S
H4936 C4933 0.999 . S
H4937 C4918 0.913 . S
H4938 C4956 0.951 . S
H4939 C4958 0.951 . S
H4940 C4960 0.950 . S
H4941 C4961 0.950 . S
H4942 C4963 0.950 . S
H4943 C4966 0.950 . S
H4944 C4967 0.950 . S
H4945 C4969 0.950 . S
H4946 C4970 0.950 . S
H4947 C4971 0.951 . S
H4948 C4973 0.951 . S
H4949 C4975 0.950 . S
H4950 C4976 0.950 . S
H4951 C4978 0.950 . S
H4952 C4981 0.950 . S
H4953 C4982 0.950 . S
H4954 C4984 0.950 . S
H4955 C4985 0.950 . S
C4956 H4938 0.951 . S
C4956 C4957 1.366 . S
C4956 C4958 1.388 . S
C4957 C4956 1.366 . S
C4957 C4961 1.385 . S
C4958 H4939 0.951 . S
C4958 C4956 1.388 . S
C4958 C4959 1.366 . S
C4959 C4958 1.366 . S
C4959 C4960 1.414 . S
C4959 C4962 1.499 . S
C4960 H4940 0.950 . S
C4960 C4959 1.414 . S
C4960 C4961 1.374 . S
C4961 H4941 0.950 . S
C4961 C4957 1.385 . S
C4961 C4960 1.374 . S
C4962 C4959 1.499 . S
C4962 C4963 1.373 . S
C4962 C4964 1.389 . S
C4963 H4942 0.950 . S
C4963 C4962 1.373 . S
C4963 C4979 1.377 . S
C4964 C4962 1.389 . S
C4964 C4965 1.524 . S
C4964 C4978 1.377 . S
C4965 C4964 1.524 . S
C4965 C4966 1.397 . S
C4965 C4970 1.363 . S
C4966 H4943 0.950 . S
C4966 C4965 1.397 . S
C4966 C4967 1.334 . S
C4967 H4944 0.950 . S
C4967 C4966 1.334 . S
C4967 C4968 1.287 . S
C4968 C4967 1.287 . S
C4968 C4969 1.524 . S
C4968 H4987 0.913 . S
C4969 H4945 0.950 . S
C4969 C4968 1.524 . S
C4969 C4970 1.415 . S
C4970 H4946 0.950 . S
C4970 C4965 1.363 . S
C4970 C4969 1.415 . S
C4971 H4947 0.951 . S
C4971 C4972 1.366 . S
C4971 C4973 1.388 . S
C4972 C4971 1.366 . S
C4972 C4976 1.385 . S
C4973 H4948 0.951 . S
C4973 C4971 1.388 . S
C4973 C4974 1.366 . S
C4974 C4973 1.366 . S
C4974 C4975 1.414 . S
C4974 C4977 1.499 . S
C4975 H4949 0.950 . S
C4975 C4974 1.414 . S
C4975 C4976 1.374 . S
C4976 H4950 0.950 . S
C4976 C4972 1.385 . S
C4976 C4975 1.374 . S
C4977 C4974 1.499 . S
C4977 C4978 1.373 . S
C4977 C4979 1.389 . S
C4978 H4951 0.950 . S
C4978 C4964 1.377 . S
C4978 C4977 1.373 . S
C4979 C4963 1.377 . S
C4979 C4977 1.389 . S
C4979 C4980 1.524 . S
C4980 C4979 1.524 . S
C4980 C4981 1.397 . S
C4980 C4985 1.363 . S
C4981 H4952 0.950 . S
C4981 C4980 1.397 . S
C4981 C4982 1.334 . S
C4982 H4953 0.950 . S
C4982 C4981 1.334 . S
C4982 C4983 1.287 . S
C4983 C4982 1.287 . S
C4983 C4984 1.524 . S
C4983 H4986 0.999 . S
C4984 H4954 0.950 . S
C4984 C4983 1.524 . S
C4984 C4985 1.415 . S
C4985 H4955 0.950 . S
C4985 C4980 1.363 . S
C4985 C4984 1.415 . S
H4986 C4983 0.999 . S
H4987 C4968 0.913 . S
H4988 C5006 0.951 . S
H4989 C5008 0.951 . S
H4990 C5010 0.950 . S
H4991 C5011 0.950 . S
H4992 C5013 0.950 . S
H4993 C5016 0.950 . S
H4994 C5017 0.950 . S
H4995 C5019 0.950 . S
H4996 C5020 0.950 . S
H4997 C5021 0.951 . S
H4998 C5023 0.951 . S
H4999 C5025 0.950 . S
H5000 C5026 0.950 . S
H5001 C5028 0.950 . S
H5002 C5031 0.950 . S
H5003 C5032 0.950 . S
H5004 C5034 0.950 . S
H5005 C5035 0.950 . S
C5006 H4988 0.951 . S
C5006 C5007 1.366 . S
C5006 C5008 1.388 . S
C5007 C5006 1.366 . S
C5007 C5011 1.385 . S
C5008 H4989 0.951 . S
C5008 C5006 1.388 . S
C5008 C5009 1.366 . S
C5009 C5008 1.366 . S
C5009 C5010 1.414 . S
C5009 C5012 1.499 . S
C5010 H4990 0.950 . S
C5010 C5009 1.414 . S
C5010 C5011 1.374 . S
C5011 H4991 0.950 . S
C5011 C5007 1.385 . S
C5011 C5010 1.374 . S
C5012 C5009 1.499 . S
C5012 C5013 1.373 . S
C5012 C5014 1.389 . S
C5013 H4992 0.950 . S
C5013 C5012 1.373 . S
C5013 C5029 1.377 . S
C5014 C5012 1.389 . S
C5014 C5015 1.524 . S
C5014 C5028 1.377 . S
C5015 C5014 1.524 . S
C5015 C5016 1.397 . S
C5015 C5020 1.363 . S
C5016 H4993 0.950 . S
C5016 C5015 1.397 . S
C5016 C5017 1.334 . S
C5017 H4994 0.950 . S
C5017 C5016 1.334 . S
C5017 C5018 1.287 . S
C5018 C5017 1.287 . S
C5018 C5019 1.524 . S
C5018 H5037 0.913 . S
C5019 H4995 0.950 . S
C5019 C5018 1.524 . S
C5019 C5020 1.415 . S
C5020 H4996 0.950 . S
C5020 C5015 1.363 . S
C5020 C5019 1.415 . S
C5021 H4997 0.951 . S
C5021 C5022 1.366 . S
C5021 C5023 1.388 . S
C5022 C5021 1.366 . S
C5022 C5026 1.385 . S
C5023 H4998 0.951 . S
C5023 C5021 1.388 . S
C5023 C5024 1.366 . S
C5024 C5023 1.366 . S
C5024 C5025 1.414 . S
C5024 C5027 1.499 . S
C5025 H4999 0.950 . S
C5025 C5024 1.414 . S
C5025 C5026 1.374 . S
C5026 H5000 0.950 . S
C5026 C5022 1.385 . S
C5026 C5025 1.374 . S
C5027 C5024 1.499 . S
C5027 C5028 1.373 . S
C5027 C5029 1.389 . S
C5028 H5001 0.950 . S
C5028 C5014 1.377 . S
C5028 C5027 1.373 . S
C5029 C5013 1.377 . S
C5029 C5027 1.389 . S
C5029 C5030 1.524 . S
C5030 C5029 1.524 . S
C5030 C5031 1.397 . S
C5030 C5035 1.363 . S
C5031 H5002 0.950 . S
C5031 C5030 1.397 . S
C5031 C5032 1.334 . S
C5032 H5003 0.950 . S
C5032 C5031 1.334 . S
C5032 C5033 1.287 . S
C5033 C5032 1.287 . S
C5033 C5034 1.524 . S
C5033 H5036 0.999 . S
C5034 H5004 0.950 . S
C5034 C5033 1.524 . S
C5034 C5035 1.415 . S
C5035 H5005 0.950 . S
C5035 C5030 1.363 . S
C5035 C5034 1.415 . S
H5036 C5033 0.999 . S
H5037 C5018 0.913 . S
H5038 C5056 0.951 . S
H5039 C5058 0.951 . S
H5040 C5060 0.950 . S
H5041 C5061 0.950 . S
H5042 C5063 0.950 . S
H5043 C5066 0.950 . S
H5044 C5067 0.950 . S
H5045 C5069 0.950 . S
H5046 C5070 0.950 . S
H5047 C5071 0.951 . S
H5048 C5073 0.951 . S
H5049 C5075 0.950 . S
H5050 C5076 0.950 . S
H5051 C5078 0.950 . S
H5052 C5081 0.950 . S
H5053 C5082 0.950 . S
H5054 C5084 0.950 . S
H5055 C5085 0.950 . S
C5056 H5038 0.951 . S
C5056 C5057 1.366 . S
C5056 C5058 1.388 . S
C5057 C5056 1.366 . S
C5057 C5061 1.385 . S
C5058 H5039 0.951 . S
C5058 C5056 1.388 . S
C5058 C5059 1.366 . S
C5059 C5058 1.366 . S
C5059 C5060 1.414 . S
C5059 C5062 1.499 . S
C5060 H5040 0.950 . S
C5060 C5059 1.414 . S
C5060 C5061 1.374 . S
C5061 H5041 0.950 . S
C5061 C5057 1.385 . S
C5061 C5060 1.374 . S
C5062 C5059 1.499 . S
C5062 C5063 1.373 . S
C5062 C5064 1.389 . S
C5063 H5042 0.950 . S
C5063 C5062 1.373 . S
C5063 C5079 1.377 . S
C5064 C5062 1.389 . S
C5064 C5065 1.524 . S
C5064 C5078 1.377 . S
C5065 C5064 1.524 . S
C5065 C5066 1.397 . S
C5065 C5070 1.363 . S
C5066 H5043 0.950 . S
C5066 C5065 1.397 . S
C5066 C5067 1.334 . S
C5067 H5044 0.950 . S
C5067 C5066 1.334 . S
C5067 C5068 1.287 . S
C5068 C5067 1.287 . S
C5068 C5069 1.524 . S
C5068 H5087 0.913 . S
C5069 H5045 0.950 . S
C5069 C5068 1.524 . S
C5069 C5070 1.415 . S
C5070 H5046 0.950 . S
C5070 C5065 1.363 . S
C5070 C5069 1.415 . S
C5071 H5047 0.951 . S
C5071 C5072 1.366 . S
C5071 C5073 1.388 . S
C5072 C5071 1.366 . S
C5072 C5076 1.385 . S
C5073 H5048 0.951 . S
C5073 C5071 1.388 . S
C5073 C5074 1.366 . S
C5074 C5073 1.366 . S
C5074 C5075 1.414 . S
C5074 C5077 1.499 . S
C5075 H5049 0.950 . S
C5075 C5074 1.414 . S
C5075 C5076 1.374 . S
C5076 H5050 0.950 . S
C5076 C5072 1.385 . S
C5076 C5075 1.374 . S
C5077 C5074 1.499 . S
C5077 C5078 1.373 . S
C5077 C5079 1.389 . S
C5078 H5051 0.950 . S
C5078 C5064 1.377 . S
C5078 C5077 1.373 . S
C5079 C5063 1.377 . S
C5079 C5077 1.389 . S
C5079 C5080 1.524 . S
C5080 C5079 1.524 . S
C5080 C5081 1.397 . S
C5080 C5085 1.363 . S
C5081 H5052 0.950 . S
C5081 C5080 1.397 . S
C5081 C5082 1.334 . S
C5082 H5053 0.950 . S
C5082 C5081 1.334 . S
C5082 C5083 1.287 . S
C5083 C5082 1.287 . S
C5083 C5084 1.524 . S
C5083 H5086 0.999 . S
C5084 H5054 0.950 . S
C5084 C5083 1.524 . S
C5084 C5085 1.415 . S
C5085 H5055 0.950 . S
C5085 C5080 1.363 . S
C5085 C5084 1.415 . S
H5086 C5083 0.999 . S
H5087 C5068 0.913 . S
H5088 C5106 0.951 . S
H5089 C5108 0.951 . S
H5090 C5110 0.950 . S
H5091 C5111 0.950 . S
H5092 C5113 0.950 . S
H5093 C5116 0.950 . S
H5094 C5117 0.950 . S
H5095 C5119 0.950 . S
H5096 C5120 0.950 . S
H5097 C5121 0.951 . S
H5098 C5123 0.951 . S
H5099 C5125 0.950 . S
H5100 C5126 0.950 . S
H5101 C5128 0.950 . S
H5102 C5131 0.950 . S
H5103 C5132 0.950 . S
H5104 C5134 0.950 . S
H5105 C5135 0.950 . S
C5106 H5088 0.951 . S
C5106 C5107 1.366 . S
C5106 C5108 1.388 . S
C5107 C5106 1.366 . S
C5107 C5111 1.385 . S
C5108 H5089 0.951 . S
C5108 C5106 1.388 . S
C5108 C5109 1.366 . S
C5109 C5108 1.366 . S
C5109 C5110 1.414 . S
C5109 C5112 1.499 . S
C5110 H5090 0.950 . S
C5110 C5109 1.414 . S
C5110 C5111 1.374 . S
C5111 H5091 0.950 . S
C5111 C5107 1.385 . S
C5111 C5110 1.374 . S
C5112 C5109 1.499 . S
C5112 C5113 1.373 . S
C5112 C5114 1.389 . S
C5113 H5092 0.950 . S
C5113 C5112 1.373 . S
C5113 C5129 1.377 . S
C5114 C5112 1.389 . S
C5114 C5115 1.524 . S
C5114 C5128 1.377 . S
C5115 C5114 1.524 . S
C5115 C5116 1.397 . S
C5115 C5120 1.363 . S
C5116 H5093 0.950 . S
C5116 C5115 1.397 . S
C5116 C5117 1.334 . S
C5117 H5094 0.950 . S
C5117 C5116 1.334 . S
C5117 C5118 1.287 . S
C5118 C5117 1.287 . S
C5118 C5119 1.524 . S
C5118 H5137 0.913 . S
C5119 H5095 0.950 . S
C5119 C5118 1.524 . S
C5119 C5120 1.415 . S
C5120 H5096 0.950 . S
C5120 C5115 1.363 . S
C5120 C5119 1.415 . S
C5121 H5097 0.951 . S
C5121 C5122 1.366 . S
C5121 C5123 1.388 . S
C5122 C5121 1.366 . S
C5122 C5126 1.385 . S
C5123 H5098 0.951 . S
C5123 C5121 1.388 . S
C5123 C5124 1.366 . S
C5124 C5123 1.366 . S
C5124 C5125 1.414 . S
C5124 C5127 1.499 . S
C5125 H5099 0.950 . S
C5125 C5124 1.414 . S
C5125 C5126 1.374 . S
C5126 H5100 0.950 . S
C5126 C5122 1.385 . S
C5126 C5125 1.374 . S
C5127 C5124 1.499 . S
C5127 C5128 1.373 . S
C5127 C5129 1.389 . S
C5128 H5101 0.950 . S
C5128 C5114 1.377 . S
C5128 C5127 1.373 . S
C5129 C5113 1.377 . S
C5129 C5127 1.389 . S
C5129 C5130 1.524 . S
C5130 C5129 1.524 . S
C5130 C5131 1.397 . S
C5130 C5135 1.363 . S
C5131 H5102 0.950 . S
C5131 C5130 1.397 . S
C5131 C5132 1.334 . S
C5132 H5103 0.950 . S
C5132 C5131 1.334 . S
C5132 C5133 1.287 . S
C5133 C5132 1.287 . S
C5133 C5134 1.524 . S
C5133 H5136 0.999 . S
C5134 H5104 0.950 . S
C5134 C5133 1.524 . S
C5134 C5135 1.415 . S
C5135 H5105 0.950 . S
C5135 C5130 1.363 . S
C5135 C5134 1.415 . S
H5136 C5133 0.999 . S
H5137 C5118 0.913 . S
H5138 C5156 0.951 . S
H5139 C5158 0.951 . S
H5140 C5160 0.950 . S
H5141 C5161 0.950 . S
H5142 C5163 0.950 . S
H5143 C5166 0.950 . S
H5144 C5167 0.950 . S
H5145 C5169 0.950 . S
H5146 C5170 0.950 . S
H5147 C5171 0.951 . S
H5148 C5173 0.951 . S
H5149 C5175 0.950 . S
H5150 C5176 0.950 . S
H5151 C5178 0.950 . S
H5152 C5181 0.950 . S
H5153 C5182 0.950 . S
H5154 C5184 0.950 . S
H5155 C5185 0.950 . S
C5156 H5138 0.951 . S
C5156 C5157 1.366 . S
C5156 C5158 1.388 . S
C5157 C5156 1.366 . S
C5157 C5161 1.385 . S
C5158 H5139 0.951 . S
C5158 C5156 1.388 . S
C5158 C5159 1.366 . S
C5159 C5158 1.366 . S
C5159 C5160 1.414 . S
C5159 C5162 1.499 . S
C5160 H5140 0.950 . S
C5160 C5159 1.414 . S
C5160 C5161 1.374 . S
C5161 H5141 0.950 . S
C5161 C5157 1.385 . S
C5161 C5160 1.374 . S
C5162 C5159 1.499 . S
C5162 C5163 1.373 . S
C5162 C5164 1.389 . S
C5163 H5142 0.950 . S
C5163 C5162 1.373 . S
C5163 C5179 1.377 . S
C5164 C5162 1.389 . S
C5164 C5165 1.524 . S
C5164 C5178 1.377 . S
C5165 C5164 1.524 . S
C5165 C5166 1.397 . S
C5165 C5170 1.363 . S
C5166 H5143 0.950 . S
C5166 C5165 1.397 . S
C5166 C5167 1.334 1_655 S
C5167 H5144 0.950 . S
C5167 C5166 1.334 1_455 S
C5167 C5168 1.287 . S
C5168 C5167 1.287 . S
C5168 C5169 1.524 . S
C5168 H5187 0.913 . S
C5169 H5145 0.950 . S
C5169 C5168 1.524 . S
C5169 C5170 1.415 1_455 S
C5170 H5146 0.950 . S
C5170 C5165 1.363 . S
C5170 C5169 1.415 1_655 S
C5171 H5147 0.951 . S
C5171 C5172 1.366 . S
C5171 C5173 1.388 . S
C5172 C5171 1.366 . S
C5172 C5176 1.385 . S
C5173 H5148 0.951 . S
C5173 C5171 1.388 . S
C5173 C5174 1.366 . S
C5174 C5173 1.366 . S
C5174 C5175 1.414 . S
C5174 C5177 1.499 . S
C5175 H5149 0.950 . S
C5175 C5174 1.414 . S
C5175 C5176 1.374 . S
C5176 H5150 0.950 . S
C5176 C5172 1.385 . S
C5176 C5175 1.374 . S
C5177 C5174 1.499 . S
C5177 C5178 1.373 . S
C5177 C5179 1.389 . S
C5178 H5151 0.950 . S
C5178 C5164 1.377 . S
C5178 C5177 1.373 . S
C5179 C5163 1.377 . S
C5179 C5177 1.389 . S
C5179 C5180 1.524 . S
C5180 C5179 1.524 . S
C5180 C5181 1.397 . S
C5180 C5185 1.363 . S
C5181 H5152 0.950 . S
C5181 C5180 1.397 . S
C5181 C5182 1.334 . S
C5182 H5153 0.950 . S
C5182 C5181 1.334 . S
C5182 C5183 1.287 . S
C5183 C5182 1.287 . S
C5183 C5184 1.524 . S
C5183 H5186 0.999 . S
C5184 H5154 0.950 . S
C5184 C5183 1.524 . S
C5184 C5185 1.415 . S
C5185 H5155 0.950 . S
C5185 C5180 1.363 . S
C5185 C5184 1.415 . S
H5186 C5183 0.999 . S
H5187 C5168 0.913 . S
H5188 C5206 0.951 . S
H5189 C5208 0.951 . S
H5190 C5210 0.950 . S
H5191 C5211 0.950 . S
H5192 C5213 0.950 . S
H5193 C5216 0.950 . S
H5194 C5217 0.950 . S
H5195 C5219 0.950 . S
H5196 C5220 0.950 . S
H5197 C5221 0.951 . S
H5198 C5223 0.951 . S
H5199 C5225 0.950 . S
H5200 C5226 0.950 . S
H5201 C5228 0.950 . S
H5202 C5231 0.950 . S
H5203 C5232 0.950 . S
H5204 C5234 0.950 . S
H5205 C5235 0.950 . S
C5206 H5188 0.951 . S
C5206 C5207 1.366 . S
C5206 C5208 1.388 . S
C5207 C5206 1.366 . S
C5207 C5211 1.385 . S
C5208 H5189 0.951 . S
C5208 C5206 1.388 . S
C5208 C5209 1.366 . S
C5209 C5208 1.366 . S
C5209 C5210 1.414 . S
C5209 C5212 1.499 . S
C5210 H5190 0.950 . S
C5210 C5209 1.414 . S
C5210 C5211 1.374 . S
C5211 H5191 0.950 . S
C5211 C5207 1.385 . S
C5211 C5210 1.374 . S
C5212 C5209 1.499 . S
C5212 C5213 1.373 . S
C5212 C5214 1.389 . S
C5213 H5192 0.950 . S
C5213 C5212 1.373 . S
C5213 C5229 1.377 . S
C5214 C5212 1.389 . S
C5214 C5215 1.524 . S
C5214 C5228 1.377 . S
C5215 C5214 1.524 . S
C5215 C5216 1.397 . S
C5215 C5220 1.363 . S
C5216 H5193 0.950 . S
C5216 C5215 1.397 . S
C5216 C5217 1.334 . S
C5217 H5194 0.950 . S
C5217 C5216 1.334 . S
C5217 C5218 1.287 . S
C5218 C5217 1.287 . S
C5218 C5219 1.524 . S
C5218 H5237 0.913 . S
C5219 H5195 0.950 . S
C5219 C5218 1.524 . S
C5219 C5220 1.415 . S
C5220 H5196 0.950 . S
C5220 C5215 1.363 . S
C5220 C5219 1.415 . S
C5221 H5197 0.951 . S
C5221 C5222 1.366 . S
C5221 C5223 1.388 . S
C5222 C5221 1.366 . S
C5222 C5226 1.385 . S
C5223 H5198 0.951 . S
C5223 C5221 1.388 . S
C5223 C5224 1.366 . S
C5224 C5223 1.366 . S
C5224 C5225 1.414 . S
C5224 C5227 1.499 . S
C5225 H5199 0.950 . S
C5225 C5224 1.414 . S
C5225 C5226 1.374 . S
C5226 H5200 0.950 . S
C5226 C5222 1.385 . S
C5226 C5225 1.374 . S
C5227 C5224 1.499 . S
C5227 C5228 1.373 . S
C5227 C5229 1.389 . S
C5228 H5201 0.950 . S
C5228 C5214 1.377 . S
C5228 C5227 1.373 . S
C5229 C5213 1.377 . S
C5229 C5227 1.389 . S
C5229 C5230 1.524 . S
C5230 C5229 1.524 . S
C5230 C5231 1.397 . S
C5230 C5235 1.363 . S
C5231 H5202 0.950 . S
C5231 C5230 1.397 . S
C5231 C5232 1.334 . S
C5232 H5203 0.950 . S
C5232 C5231 1.334 . S
C5232 C5233 1.287 . S
C5233 C5232 1.287 . S
C5233 C5234 1.524 . S
C5233 H5236 0.999 . S
C5234 H5204 0.950 . S
C5234 C5233 1.524 . S
C5234 C5235 1.415 . S
C5235 H5205 0.950 . S
C5235 C5230 1.363 . S
C5235 C5234 1.415 . S
H5236 C5233 0.999 . S
H5237 C5218 0.913 . S
H5238 C5256 0.951 . S
H5239 C5258 0.951 . S
H5240 C5260 0.950 . S
H5241 C5261 0.950 . S
H5242 C5263 0.950 . S
H5243 C5266 0.950 . S
H5244 C5267 0.950 . S
H5245 C5269 0.950 . S
H5246 C5270 0.950 . S
H5247 C5271 0.951 . S
H5248 C5273 0.951 . S
H5249 C5275 0.950 . S
H5250 C5276 0.950 . S
H5251 C5278 0.950 . S
H5252 C5281 0.950 . S
H5253 C5282 0.950 . S
H5254 C5284 0.950 . S
H5255 C5285 0.950 . S
C5256 H5238 0.951 . S
C5256 C5257 1.366 . S
C5256 C5258 1.388 . S
C5257 C5256 1.366 . S
C5257 C5261 1.385 . S
C5258 H5239 0.951 . S
C5258 C5256 1.388 . S
C5258 C5259 1.366 . S
C5259 C5258 1.366 . S
C5259 C5260 1.414 . S
C5259 C5262 1.499 . S
C5260 H5240 0.950 . S
C5260 C5259 1.414 . S
C5260 C5261 1.374 . S
C5261 H5241 0.950 . S
C5261 C5257 1.385 . S
C5261 C5260 1.374 . S
C5262 C5259 1.499 . S
C5262 C5263 1.373 . S
C5262 C5264 1.389 . S
C5263 H5242 0.950 . S
C5263 C5262 1.373 . S
C5263 C5279 1.377 . S
C5264 C5262 1.389 . S
C5264 C5265 1.524 . S
C5264 C5278 1.377 . S
C5265 C5264 1.524 . S
C5265 C5266 1.397 . S
C5265 C5270 1.363 . S
C5266 H5243 0.950 . S
C5266 C5265 1.397 . S
C5266 C5267 1.334 . S
C5267 H5244 0.950 . S
C5267 C5266 1.334 . S
C5267 C5268 1.287 . S
C5268 C5267 1.287 . S
C5268 C5269 1.524 . S
C5268 H5287 0.913 . S
C5269 H5245 0.950 . S
C5269 C5268 1.524 . S
C5269 C5270 1.415 . S
C5270 H5246 0.950 . S
C5270 C5265 1.363 . S
C5270 C5269 1.415 . S
C5271 H5247 0.951 . S
C5271 C5272 1.366 . S
C5271 C5273 1.388 . S
C5272 C5271 1.366 . S
C5272 C5276 1.385 . S
C5273 H5248 0.951 . S
C5273 C5271 1.388 . S
C5273 C5274 1.366 . S
C5274 C5273 1.366 . S
C5274 C5275 1.414 . S
C5274 C5277 1.499 . S
C5275 H5249 0.950 . S
C5275 C5274 1.414 . S
C5275 C5276 1.374 . S
C5276 H5250 0.950 . S
C5276 C5272 1.385 . S
C5276 C5275 1.374 . S
C5277 C5274 1.499 . S
C5277 C5278 1.373 . S
C5277 C5279 1.389 . S
C5278 H5251 0.950 . S
C5278 C5264 1.377 . S
C5278 C5277 1.373 . S
C5279 C5263 1.377 . S
C5279 C5277 1.389 . S
C5279 C5280 1.524 . S
C5280 C5279 1.524 . S
C5280 C5281 1.397 . S
C5280 C5285 1.363 . S
C5281 H5252 0.950 . S
C5281 C5280 1.397 . S
C5281 C5282 1.334 . S
C5282 H5253 0.950 . S
C5282 C5281 1.334 . S
C5282 C5283 1.287 . S
C5283 C5282 1.287 . S
C5283 C5284 1.524 . S
C5283 H5286 0.999 . S
C5284 H5254 0.950 . S
C5284 C5283 1.524 . S
C5284 C5285 1.415 . S
C5285 H5255 0.950 . S
C5285 C5280 1.363 . S
C5285 C5284 1.415 . S
H5286 C5283 0.999 . S
H5287 C5268 0.913 . S
H5288 C5306 0.951 . S
H5289 C5308 0.951 . S
H5290 C5310 0.950 . S
H5291 C5311 0.950 . S
H5292 C5313 0.950 . S
H5293 C5316 0.950 . S
H5294 C5317 0.950 . S
H5295 C5319 0.950 . S
H5296 C5320 0.950 . S
H5297 C5321 0.951 . S
H5298 C5323 0.951 . S
H5299 C5325 0.950 . S
H5300 C5326 0.950 . S
H5301 C5328 0.950 . S
H5302 C5331 0.950 . S
H5303 C5332 0.950 . S
H5304 C5334 0.950 . S
H5305 C5335 0.950 . S
C5306 H5288 0.951 . S
C5306 C5307 1.366 . S
C5306 C5308 1.388 . S
C5307 C5306 1.366 . S
C5307 C5311 1.385 . S
C5308 H5289 0.951 . S
C5308 C5306 1.388 . S
C5308 C5309 1.366 . S
C5309 C5308 1.366 . S
C5309 C5310 1.414 . S
C5309 C5312 1.499 . S
C5310 H5290 0.950 . S
C5310 C5309 1.414 . S
C5310 C5311 1.374 . S
C5311 H5291 0.950 . S
C5311 C5307 1.385 . S
C5311 C5310 1.374 . S
C5312 C5309 1.499 . S
C5312 C5313 1.373 . S
C5312 C5314 1.389 . S
C5313 H5292 0.950 . S
C5313 C5312 1.373 . S
C5313 C5329 1.377 . S
C5314 C5312 1.389 . S
C5314 C5315 1.524 . S
C5314 C5328 1.377 . S
C5315 C5314 1.524 . S
C5315 C5316 1.397 . S
C5315 C5320 1.363 . S
C5316 H5293 0.950 . S
C5316 C5315 1.397 . S
C5316 C5317 1.334 . S
C5317 H5294 0.950 . S
C5317 C5316 1.334 . S
C5317 C5318 1.287 . S
C5318 C5317 1.287 . S
C5318 C5319 1.524 . S
C5318 H5337 0.913 . S
C5319 H5295 0.950 . S
C5319 C5318 1.524 . S
C5319 C5320 1.415 . S
C5320 H5296 0.950 . S
C5320 C5315 1.363 . S
C5320 C5319 1.415 . S
C5321 H5297 0.951 . S
C5321 C5322 1.366 . S
C5321 C5323 1.388 . S
C5322 C5321 1.366 . S
C5322 C5326 1.385 . S
C5323 H5298 0.951 . S
C5323 C5321 1.388 . S
C5323 C5324 1.366 . S
C5324 C5323 1.366 . S
C5324 C5325 1.414 . S
C5324 C5327 1.499 . S
C5325 H5299 0.950 . S
C5325 C5324 1.414 . S
C5325 C5326 1.374 . S
C5326 H5300 0.950 . S
C5326 C5322 1.385 . S
C5326 C5325 1.374 . S
C5327 C5324 1.499 . S
C5327 C5328 1.373 . S
C5327 C5329 1.389 . S
C5328 H5301 0.950 . S
C5328 C5314 1.377 . S
C5328 C5327 1.373 . S
C5329 C5313 1.377 . S
C5329 C5327 1.389 . S
C5329 C5330 1.524 . S
C5330 C5329 1.524 . S
C5330 C5331 1.397 . S
C5330 C5335 1.363 . S
C5331 H5302 0.950 . S
C5331 C5330 1.397 . S
C5331 C5332 1.334 . S
C5332 H5303 0.950 . S
C5332 C5331 1.334 . S
C5332 C5333 1.287 . S
C5333 C5332 1.287 . S
C5333 C5334 1.524 . S
C5333 H5336 0.999 . S
C5334 H5304 0.950 . S
C5334 C5333 1.524 . S
C5334 C5335 1.415 . S
C5335 H5305 0.950 . S
C5335 C5330 1.363 . S
C5335 C5334 1.415 . S
H5336 C5333 0.999 . S
H5337 C5318 0.913 . S
H5338 C5356 0.951 . S
H5339 C5358 0.951 . S
H5340 C5360 0.950 . S
H5341 C5361 0.950 . S
H5342 C5363 0.950 . S
H5343 C5366 0.950 . S
H5344 C5367 0.950 . S
H5345 C5369 0.950 . S
H5346 C5370 0.950 . S
H5347 C5371 0.951 . S
H5348 C5373 0.951 . S
H5349 C5375 0.950 . S
H5350 C5376 0.950 . S
H5351 C5378 0.950 . S
H5352 C5381 0.950 . S
H5353 C5382 0.950 . S
H5354 C5384 0.950 . S
H5355 C5385 0.950 . S
C5356 H5338 0.951 . S
C5356 C5357 1.366 . S
C5356 C5358 1.388 . S
C5357 C5356 1.366 . S
C5357 C5361 1.385 . S
C5358 H5339 0.951 . S
C5358 C5356 1.388 . S
C5358 C5359 1.366 . S
C5359 C5358 1.366 . S
C5359 C5360 1.414 . S
C5359 C5362 1.499 . S
C5360 H5340 0.950 . S
C5360 C5359 1.414 . S
C5360 C5361 1.374 . S
C5361 H5341 0.950 . S
C5361 C5357 1.385 . S
C5361 C5360 1.374 . S
C5362 C5359 1.499 . S
C5362 C5363 1.373 . S
C5362 C5364 1.389 . S
C5363 H5342 0.950 . S
C5363 C5362 1.373 . S
C5363 C5379 1.377 . S
C5364 C5362 1.389 . S
C5364 C5365 1.524 . S
C5364 C5378 1.377 . S
C5365 C5364 1.524 . S
C5365 C5366 1.397 . S
C5365 C5370 1.363 . S
C5366 H5343 0.950 . S
C5366 C5365 1.397 . S
C5366 C5367 1.334 . S
C5367 H5344 0.950 . S
C5367 C5366 1.334 . S
C5367 C5368 1.287 . S
C5368 C5367 1.287 . S
C5368 C5369 1.524 . S
C5368 H5387 0.913 . S
C5369 H5345 0.950 . S
C5369 C5368 1.524 . S
C5369 C5370 1.415 . S
C5370 H5346 0.950 . S
C5370 C5365 1.363 . S
C5370 C5369 1.415 . S
C5371 H5347 0.951 . S
C5371 C5372 1.366 . S
C5371 C5373 1.388 . S
C5372 C5371 1.366 . S
C5372 C5376 1.385 . S
C5373 H5348 0.951 . S
C5373 C5371 1.388 . S
C5373 C5374 1.366 . S
C5374 C5373 1.366 . S
C5374 C5375 1.414 . S
C5374 C5377 1.499 . S
C5375 H5349 0.950 . S
C5375 C5374 1.414 . S
C5375 C5376 1.374 . S
C5376 H5350 0.950 . S
C5376 C5372 1.385 . S
C5376 C5375 1.374 . S
C5377 C5374 1.499 . S
C5377 C5378 1.373 . S
C5377 C5379 1.389 . S
C5378 H5351 0.950 . S
C5378 C5364 1.377 . S
C5378 C5377 1.373 . S
C5379 C5363 1.377 . S
C5379 C5377 1.389 . S
C5379 C5380 1.524 . S
C5380 C5379 1.524 . S
C5380 C5381 1.397 . S
C5380 C5385 1.363 . S
C5381 H5352 0.950 . S
C5381 C5380 1.397 . S
C5381 C5382 1.334 . S
C5382 H5353 0.950 . S
C5382 C5381 1.334 . S
C5382 C5383 1.287 . S
C5383 C5382 1.287 . S
C5383 C5384 1.524 . S
C5383 H5386 0.999 . S
C5384 H5354 0.950 . S
C5384 C5383 1.524 . S
C5384 C5385 1.415 . S
C5385 H5355 0.950 . S
C5385 C5380 1.363 . S
C5385 C5384 1.415 . S
H5386 C5383 0.999 . S
H5387 C5368 0.913 . S
H5388 C5406 0.951 . S
H5389 C5408 0.951 . S
H5390 C5410 0.950 . S
H5391 C5411 0.950 . S
H5392 C5413 0.950 . S
H5393 C5416 0.950 . S
H5394 C5417 0.950 . S
H5395 C5419 0.950 . S
H5396 C5420 0.950 . S
H5397 C5421 0.951 . S
H5398 C5423 0.951 . S
H5399 C5425 0.950 . S
H5400 C5426 0.950 . S
H5401 C5428 0.950 . S
H5402 C5431 0.950 . S
H5403 C5432 0.950 . S
H5404 C5434 0.950 . S
H5405 C5435 0.950 . S
C5406 H5388 0.951 . S
C5406 C5407 1.366 . S
C5406 C5408 1.388 . S
C5407 C5406 1.366 . S
C5407 C5411 1.385 . S
C5408 H5389 0.951 . S
C5408 C5406 1.388 . S
C5408 C5409 1.366 . S
C5409 C5408 1.366 . S
C5409 C5410 1.414 . S
C5409 C5412 1.499 . S
C5410 H5390 0.950 . S
C5410 C5409 1.414 . S
C5410 C5411 1.374 . S
C5411 H5391 0.950 . S
C5411 C5407 1.385 . S
C5411 C5410 1.374 . S
C5412 C5409 1.499 . S
C5412 C5413 1.373 . S
C5412 C5414 1.389 . S
C5413 H5392 0.950 . S
C5413 C5412 1.373 . S
C5413 C5429 1.377 . S
C5414 C5412 1.389 . S
C5414 C5415 1.524 . S
C5414 C5428 1.377 . S
C5415 C5414 1.524 . S
C5415 C5416 1.397 . S
C5415 C5420 1.363 . S
C5416 H5393 0.950 . S
C5416 C5415 1.397 . S
C5416 C5417 1.334 . S
C5417 H5394 0.950 . S
C5417 C5416 1.334 . S
C5417 C5418 1.287 . S
C5418 C5417 1.287 . S
C5418 C5419 1.524 . S
C5418 H5437 0.913 . S
C5419 H5395 0.950 . S
C5419 C5418 1.524 . S
C5419 C5420 1.415 . S
C5420 H5396 0.950 . S
C5420 C5415 1.363 . S
C5420 C5419 1.415 . S
C5421 H5397 0.951 . S
C5421 C5422 1.366 . S
C5421 C5423 1.388 . S
C5422 C5421 1.366 . S
C5422 C5426 1.385 . S
C5423 H5398 0.951 . S
C5423 C5421 1.388 . S
C5423 C5424 1.366 . S
C5424 C5423 1.366 . S
C5424 C5425 1.414 . S
C5424 C5427 1.499 . S
C5425 H5399 0.950 . S
C5425 C5424 1.414 . S
C5425 C5426 1.374 . S
C5426 H5400 0.950 . S
C5426 C5422 1.385 . S
C5426 C5425 1.374 . S
C5427 C5424 1.499 . S
C5427 C5428 1.373 . S
C5427 C5429 1.389 . S
C5428 H5401 0.950 . S
C5428 C5414 1.377 . S
C5428 C5427 1.373 . S
C5429 C5413 1.377 . S
C5429 C5427 1.389 . S
C5429 C5430 1.524 . S
C5430 C5429 1.524 . S
C5430 C5431 1.397 . S
C5430 C5435 1.363 . S
C5431 H5402 0.950 . S
C5431 C5430 1.397 . S
C5431 C5432 1.334 . S
C5432 H5403 0.950 . S
C5432 C5431 1.334 . S
C5432 C5433 1.287 . S
C5433 C5432 1.287 . S
C5433 C5434 1.524 . S
C5433 H5436 0.999 . S
C5434 H5404 0.950 . S
C5434 C5433 1.524 . S
C5434 C5435 1.415 . S
C5435 H5405 0.950 . S
C5435 C5430 1.363 . S
C5435 C5434 1.415 . S
H5436 C5433 0.999 . S
H5437 C5418 0.913 . S
H5438 C5456 0.951 . S
H5439 C5458 0.951 . S
H5440 C5460 0.950 . S
H5441 C5461 0.950 . S
H5442 C5463 0.950 . S
H5443 C5466 0.950 . S
H5444 C5467 0.950 . S
H5445 C5469 0.950 . S
H5446 C5470 0.950 . S
H5447 C5471 0.951 . S
H5448 C5473 0.951 . S
H5449 C5475 0.950 . S
H5450 C5476 0.950 . S
H5451 C5478 0.950 . S
H5452 C5481 0.950 . S
H5453 C5482 0.950 . S
H5454 C5484 0.950 . S
H5455 C5485 0.950 . S
C5456 H5438 0.951 . S
C5456 C5457 1.366 . S
C5456 C5458 1.388 . S
C5457 C5456 1.366 . S
C5457 C5461 1.385 . S
C5458 H5439 0.951 . S
C5458 C5456 1.388 . S
C5458 C5459 1.366 . S
C5459 C5458 1.366 . S
C5459 C5460 1.414 . S
C5459 C5462 1.499 . S
C5460 H5440 0.950 . S
C5460 C5459 1.414 . S
C5460 C5461 1.374 . S
C5461 H5441 0.950 . S
C5461 C5457 1.385 . S
C5461 C5460 1.374 . S
C5462 C5459 1.499 . S
C5462 C5463 1.373 . S
C5462 C5464 1.389 . S
C5463 H5442 0.950 . S
C5463 C5462 1.373 . S
C5463 C5479 1.377 . S
C5464 C5462 1.389 . S
C5464 C5465 1.524 . S
C5464 C5478 1.377 . S
C5465 C5464 1.524 . S
C5465 C5466 1.397 . S
C5465 C5470 1.363 . S
C5466 H5443 0.950 . S
C5466 C5465 1.397 . S
C5466 C5467 1.334 . S
C5467 H5444 0.950 . S
C5467 C5466 1.334 . S
C5467 C5468 1.287 . S
C5468 C5467 1.287 . S
C5468 C5469 1.524 . S
C5468 H5487 0.913 . S
C5469 H5445 0.950 . S
C5469 C5468 1.524 . S
C5469 C5470 1.415 . S
C5470 H5446 0.950 . S
C5470 C5465 1.363 . S
C5470 C5469 1.415 . S
C5471 H5447 0.951 . S
C5471 C5472 1.366 . S
C5471 C5473 1.388 . S
C5472 C5471 1.366 . S
C5472 C5476 1.385 . S
C5473 H5448 0.951 . S
C5473 C5471 1.388 . S
C5473 C5474 1.366 . S
C5474 C5473 1.366 . S
C5474 C5475 1.414 . S
C5474 C5477 1.499 . S
C5475 H5449 0.950 . S
C5475 C5474 1.414 . S
C5475 C5476 1.374 . S
C5476 H5450 0.950 . S
C5476 C5472 1.385 . S
C5476 C5475 1.374 . S
C5477 C5474 1.499 . S
C5477 C5478 1.373 . S
C5477 C5479 1.389 . S
C5478 H5451 0.950 . S
C5478 C5464 1.377 . S
C5478 C5477 1.373 . S
C5479 C5463 1.377 . S
C5479 C5477 1.389 . S
C5479 C5480 1.524 . S
C5480 C5479 1.524 . S
C5480 C5481 1.397 . S
C5480 C5485 1.363 . S
C5481 H5452 0.950 . S
C5481 C5480 1.397 . S
C5481 C5482 1.334 1_455 S
C5482 H5453 0.950 . S
C5482 C5481 1.334 1_655 S
C5482 C5483 1.287 . S
C5483 C5482 1.287 . S
C5483 C5484 1.524 . S
C5483 H5486 0.999 . S
C5484 H5454 0.950 . S
C5484 C5483 1.524 . S
C5484 C5485 1.415 1_655 S
C5485 H5455 0.950 . S
C5485 C5480 1.363 . S
C5485 C5484 1.415 1_455 S
H5486 C5483 0.999 . S
H5487 C5468 0.913 . S
H5488 C5506 0.951 . S
H5489 C5508 0.951 . S
H5490 C5510 0.950 . S
H5491 C5511 0.950 . S
H5492 C5513 0.950 . S
H5493 C5516 0.950 . S
H5494 C5517 0.950 . S
H5495 C5519 0.950 . S
H5496 C5520 0.950 . S
H5497 C5521 0.951 . S
H5498 C5523 0.951 . S
H5499 C5525 0.950 . S
H5500 C5526 0.950 . S
H5501 C5528 0.950 . S
H5502 C5531 0.950 . S
H5503 C5532 0.950 . S
H5504 C5534 0.950 . S
H5505 C5535 0.950 . S
C5506 H5488 0.951 . S
C5506 C5507 1.366 . S
C5506 C5508 1.388 . S
C5507 C5506 1.366 . S
C5507 C5511 1.385 . S
C5508 H5489 0.951 . S
C5508 C5506 1.388 . S
C5508 C5509 1.366 . S
C5509 C5508 1.366 . S
C5509 C5510 1.414 . S
C5509 C5512 1.499 . S
C5510 H5490 0.950 . S
C5510 C5509 1.414 . S
C5510 C5511 1.374 . S
C5511 H5491 0.950 . S
C5511 C5507 1.385 . S
C5511 C5510 1.374 . S
C5512 C5509 1.499 . S
C5512 C5513 1.373 . S
C5512 C5514 1.389 . S
C5513 H5492 0.950 . S
C5513 C5512 1.373 . S
C5513 C5529 1.377 . S
C5514 C5512 1.389 . S
C5514 C5515 1.524 . S
C5514 C5528 1.377 . S
C5515 C5514 1.524 . S
C5515 C5516 1.397 . S
C5515 C5520 1.363 . S
C5516 H5493 0.950 . S
C5516 C5515 1.397 . S
C5516 C5517 1.334 . S
C5517 H5494 0.950 . S
C5517 C5516 1.334 . S
C5517 C5518 1.287 . S
C5518 C5517 1.287 . S
C5518 C5519 1.524 . S
C5518 H5537 0.913 . S
C5519 H5495 0.950 . S
C5519 C5518 1.524 . S
C5519 C5520 1.415 . S
C5520 H5496 0.950 . S
C5520 C5515 1.363 . S
C5520 C5519 1.415 . S
C5521 H5497 0.951 . S
C5521 C5522 1.366 . S
C5521 C5523 1.388 . S
C5522 C5521 1.366 . S
C5522 C5526 1.385 . S
C5523 H5498 0.951 . S
C5523 C5521 1.388 . S
C5523 C5524 1.366 . S
C5524 C5523 1.366 . S
C5524 C5525 1.414 . S
C5524 C5527 1.499 . S
C5525 H5499 0.950 . S
C5525 C5524 1.414 . S
C5525 C5526 1.374 . S
C5526 H5500 0.950 . S
C5526 C5522 1.385 . S
C5526 C5525 1.374 . S
C5527 C5524 1.499 . S
C5527 C5528 1.373 . S
C5527 C5529 1.389 . S
C5528 H5501 0.950 . S
C5528 C5514 1.377 . S
C5528 C5527 1.373 . S
C5529 C5513 1.377 . S
C5529 C5527 1.389 . S
C5529 C5530 1.524 . S
C5530 C5529 1.524 . S
C5530 C5531 1.397 . S
C5530 C5535 1.363 . S
C5531 H5502 0.950 . S
C5531 C5530 1.397 . S
C5531 C5532 1.334 . S
C5532 H5503 0.950 . S
C5532 C5531 1.334 . S
C5532 C5533 1.287 . S
C5533 C5532 1.287 . S
C5533 C5534 1.524 . S
C5533 H5536 0.999 . S
C5534 H5504 0.950 . S
C5534 C5533 1.524 . S
C5534 C5535 1.415 . S
C5535 H5505 0.950 . S
C5535 C5530 1.363 . S
C5535 C5534 1.415 . S
H5536 C5533 0.999 . S
H5537 C5518 0.913 . S
H5538 C5556 0.951 . S
H5539 C5558 0.951 . S
H5540 C5560 0.950 . S
H5541 C5561 0.950 . S
H5542 C5563 0.950 . S
H5543 C5566 0.950 . S
H5544 C5567 0.950 . S
H5545 C5569 0.950 . S
H5546 C5570 0.950 . S
H5547 C5571 0.951 . S
H5548 C5573 0.951 . S
H5549 C5575 0.950 . S
H5550 C5576 0.950 . S
H5551 C5578 0.950 . S
H5552 C5581 0.950 . S
H5553 C5582 0.950 . S
H5554 C5584 0.950 . S
H5555 C5585 0.950 . S
C5556 H5538 0.951 . S
C5556 C5557 1.366 . S
C5556 C5558 1.388 . S
C5557 C5556 1.366 . S
C5557 C5561 1.385 . S
C5558 H5539 0.951 . S
C5558 C5556 1.388 . S
C5558 C5559 1.366 . S
C5559 C5558 1.366 . S
C5559 C5560 1.414 . S
C5559 C5562 1.499 . S
C5560 H5540 0.950 . S
C5560 C5559 1.414 . S
C5560 C5561 1.374 . S
C5561 H5541 0.950 . S
C5561 C5557 1.385 . S
C5561 C5560 1.374 . S
C5562 C5559 1.499 . S
C5562 C5563 1.373 . S
C5562 C5564 1.389 . S
C5563 H5542 0.950 . S
C5563 C5562 1.373 . S
C5563 C5579 1.377 . S
C5564 C5562 1.389 . S
C5564 C5565 1.524 . S
C5564 C5578 1.377 . S
C5565 C5564 1.524 . S
C5565 C5566 1.397 . S
C5565 C5570 1.363 . S
C5566 H5543 0.950 . S
C5566 C5565 1.397 . S
C5566 C5567 1.334 . S
C5567 H5544 0.950 . S
C5567 C5566 1.334 . S
C5567 C5568 1.287 . S
C5568 C5567 1.287 . S
C5568 C5569 1.524 . S
C5568 H5587 0.913 . S
C5569 H5545 0.950 . S
C5569 C5568 1.524 . S
C5569 C5570 1.415 . S
C5570 H5546 0.950 . S
C5570 C5565 1.363 . S
C5570 C5569 1.415 . S
C5571 H5547 0.951 . S
C5571 C5572 1.366 . S
C5571 C5573 1.388 . S
C5572 C5571 1.366 . S
C5572 C5576 1.385 . S
C5573 H5548 0.951 . S
C5573 C5571 1.388 . S
C5573 C5574 1.366 . S
C5574 C5573 1.366 . S
C5574 C5575 1.414 . S
C5574 C5577 1.499 . S
C5575 H5549 0.950 . S
C5575 C5574 1.414 . S
C5575 C5576 1.374 . S
C5576 H5550 0.950 . S
C5576 C5572 1.385 . S
C5576 C5575 1.374 . S
C5577 C5574 1.499 . S
C5577 C5578 1.373 . S
C5577 C5579 1.389 . S
C5578 H5551 0.950 . S
C5578 C5564 1.377 . S
C5578 C5577 1.373 . S
C5579 C5563 1.377 . S
C5579 C5577 1.389 . S
C5579 C5580 1.524 . S
C5580 C5579 1.524 . S
C5580 C5581 1.397 . S
C5580 C5585 1.363 . S
C5581 H5552 0.950 . S
C5581 C5580 1.397 . S
C5581 C5582 1.334 . S
C5582 H5553 0.950 . S
C5582 C5581 1.334 . S
C5582 C5583 1.287 . S
C5583 C5582 1.287 . S
C5583 C5584 1.524 . S
C5583 H5586 0.999 . S
C5584 H5554 0.950 . S
C5584 C5583 1.524 . S
C5584 C5585 1.415 . S
C5585 H5555 0.950 . S
C5585 C5580 1.363 . S
C5585 C5584 1.415 . S
H5586 C5583 0.999 . S
H5587 C5568 0.913 . S
H5588 C5606 0.951 . S
H5589 C5608 0.951 . S
H5590 C5610 0.950 . S
H5591 C5611 0.950 . S
H5592 C5613 0.950 . S
H5593 C5616 0.950 . S
H5594 C5617 0.950 . S
H5595 C5619 0.950 . S
H5596 C5620 0.950 . S
H5597 C5621 0.951 . S
H5598 C5623 0.951 . S
H5599 C5625 0.950 . S
H5600 C5626 0.950 . S
H5601 C5628 0.950 . S
H5602 C5631 0.950 . S
H5603 C5632 0.950 . S
H5604 C5634 0.950 . S
H5605 C5635 0.950 . S
C5606 H5588 0.951 . S
C5606 C5607 1.366 . S
C5606 C5608 1.388 . S
C5607 C5606 1.366 . S
C5607 C5611 1.385 . S
C5608 H5589 0.951 . S
C5608 C5606 1.388 . S
C5608 C5609 1.366 . S
C5609 C5608 1.366 . S
C5609 C5610 1.414 . S
C5609 C5612 1.499 . S
C5610 H5590 0.950 . S
C5610 C5609 1.414 . S
C5610 C5611 1.374 . S
C5611 H5591 0.950 . S
C5611 C5607 1.385 . S
C5611 C5610 1.374 . S
C5612 C5609 1.499 . S
C5612 C5613 1.373 . S
C5612 C5614 1.389 . S
C5613 H5592 0.950 . S
C5613 C5612 1.373 . S
C5613 C5629 1.377 . S
C5614 C5612 1.389 . S
C5614 C5615 1.524 . S
C5614 C5628 1.377 . S
C5615 C5614 1.524 . S
C5615 C5616 1.397 . S
C5615 C5620 1.363 . S
C5616 H5593 0.950 . S
C5616 C5615 1.397 . S
C5616 C5617 1.334 . S
C5617 H5594 0.950 . S
C5617 C5616 1.334 . S
C5617 C5618 1.287 . S
C5618 C5617 1.287 . S
C5618 C5619 1.524 . S
C5618 H5637 0.913 . S
C5619 H5595 0.950 . S
C5619 C5618 1.524 . S
C5619 C5620 1.415 . S
C5620 H5596 0.950 . S
C5620 C5615 1.363 . S
C5620 C5619 1.415 . S
C5621 H5597 0.951 . S
C5621 C5622 1.366 . S
C5621 C5623 1.388 . S
C5622 C5621 1.366 . S
C5622 C5626 1.385 . S
C5623 H5598 0.951 . S
C5623 C5621 1.388 . S
C5623 C5624 1.366 . S
C5624 C5623 1.366 . S
C5624 C5625 1.414 . S
C5624 C5627 1.499 . S
C5625 H5599 0.950 . S
C5625 C5624 1.414 . S
C5625 C5626 1.374 . S
C5626 H5600 0.950 . S
C5626 C5622 1.385 . S
C5626 C5625 1.374 . S
C5627 C5624 1.499 . S
C5627 C5628 1.373 . S
C5627 C5629 1.389 . S
C5628 H5601 0.950 . S
C5628 C5614 1.377 . S
C5628 C5627 1.373 . S
C5629 C5613 1.377 . S
C5629 C5627 1.389 . S
C5629 C5630 1.524 . S
C5630 C5629 1.524 . S
C5630 C5631 1.397 . S
C5630 C5635 1.363 . S
C5631 H5602 0.950 . S
C5631 C5630 1.397 . S
C5631 C5632 1.334 . S
C5632 H5603 0.950 . S
C5632 C5631 1.334 . S
C5632 C5633 1.287 . S
C5633 C5632 1.287 . S
C5633 C5634 1.524 . S
C5633 H5636 0.999 . S
C5634 H5604 0.950 . S
C5634 C5633 1.524 . S
C5634 C5635 1.415 . S
C5635 H5605 0.950 . S
C5635 C5630 1.363 . S
C5635 C5634 1.415 . S
H5636 C5633 0.999 . S
H5637 C5618 0.913 . S
H5638 C5656 0.951 . S
H5639 C5658 0.951 . S
H5640 C5660 0.950 . S
H5641 C5661 0.950 . S
H5642 C5663 0.950 . S
H5643 C5666 0.950 . S
H5644 C5667 0.950 . S
H5645 C5669 0.950 . S
H5646 C5670 0.950 . S
H5647 C5671 0.951 . S
H5648 C5673 0.951 . S
H5649 C5675 0.950 . S
H5650 C5676 0.950 . S
H5651 C5678 0.950 . S
H5652 C5681 0.950 . S
H5653 C5682 0.950 . S
H5654 C5684 0.950 . S
H5655 C5685 0.950 . S
C5656 H5638 0.951 . S
C5656 C5657 1.366 . S
C5656 C5658 1.388 . S
C5657 C5656 1.366 . S
C5657 C5661 1.385 . S
C5658 H5639 0.951 . S
C5658 C5656 1.388 . S
C5658 C5659 1.366 . S
C5659 C5658 1.366 . S
C5659 C5660 1.414 . S
C5659 C5662 1.499 . S
C5660 H5640 0.950 . S
C5660 C5659 1.414 . S
C5660 C5661 1.374 . S
C5661 H5641 0.950 . S
C5661 C5657 1.385 . S
C5661 C5660 1.374 . S
C5662 C5659 1.499 . S
C5662 C5663 1.373 . S
C5662 C5664 1.389 . S
C5663 H5642 0.950 . S
C5663 C5662 1.373 . S
C5663 C5679 1.377 . S
C5664 C5662 1.389 . S
C5664 C5665 1.524 . S
C5664 C5678 1.377 . S
C5665 C5664 1.524 . S
C5665 C5666 1.397 . S
C5665 C5670 1.363 . S
C5666 H5643 0.950 . S
C5666 C5665 1.397 . S
C5666 C5667 1.334 . S
C5667 H5644 0.950 . S
C5667 C5666 1.334 . S
C5667 C5668 1.287 . S
C5668 C5667 1.287 . S
C5668 C5669 1.524 . S
C5668 H5687 0.913 . S
C5669 H5645 0.950 . S
C5669 C5668 1.524 . S
C5669 C5670 1.415 . S
C5670 H5646 0.950 . S
C5670 C5665 1.363 . S
C5670 C5669 1.415 . S
C5671 H5647 0.951 . S
C5671 C5672 1.366 . S
C5671 C5673 1.388 . S
C5672 C5671 1.366 . S
C5672 C5676 1.385 . S
C5673 H5648 0.951 . S
C5673 C5671 1.388 . S
C5673 C5674 1.366 . S
C5674 C5673 1.366 . S
C5674 C5675 1.414 . S
C5674 C5677 1.499 . S
C5675 H5649 0.950 . S
C5675 C5674 1.414 . S
C5675 C5676 1.374 . S
C5676 H5650 0.950 . S
C5676 C5672 1.385 . S
C5676 C5675 1.374 . S
C5677 C5674 1.499 . S
C5677 C5678 1.373 . S
C5677 C5679 1.389 . S
C5678 H5651 0.950 . S
C5678 C5664 1.377 . S
C5678 C5677 1.373 . S
C5679 C5663 1.377 . S
C5679 C5677 1.389 . S
C5679 C5680 1.524 . S
C5680 C5679 1.524 . S
C5680 C5681 1.397 . S
C5680 C5685 1.363 . S
C5681 H5652 0.950 . S
C5681 C5680 1.397 . S
C5681 C5682 1.334 . S
C5682 H5653 0.950 . S
C5682 C5681 1.334 . S
C5682 C5683 1.287 . S
C5683 C5682 1.287 . S
C5683 C5684 1.524 . S
C5683 H5686 0.999 . S
C5684 H5654 0.950 . S
C5684 C5683 1.524 . S
C5684 C5685 1.415 . S
C5685 H5655 0.950 . S
C5685 C5680 1.363 . S
C5685 C5684 1.415 . S
H5686 C5683 0.999 . S
H5687 C5668 0.913 . S
H5688 C5706 0.951 . S
H5689 C5708 0.951 . S
H5690 C5710 0.950 . S
H5691 C5711 0.950 . S
H5692 C5713 0.950 . S
H5693 C5716 0.950 . S
H5694 C5717 0.950 . S
H5695 C5719 0.950 . S
H5696 C5720 0.950 . S
H5697 C5721 0.951 . S
H5698 C5723 0.951 . S
H5699 C5725 0.950 . S
H5700 C5726 0.950 . S
H5701 C5728 0.950 . S
H5702 C5731 0.950 . S
H5703 C5732 0.950 . S
H5704 C5734 0.950 . S
H5705 C5735 0.950 . S
C5706 H5688 0.951 . S
C5706 C5707 1.366 . S
C5706 C5708 1.388 . S
C5707 C5706 1.366 . S
C5707 C5711 1.385 . S
C5708 H5689 0.951 . S
C5708 C5706 1.388 . S
C5708 C5709 1.366 . S
C5709 C5708 1.366 . S
C5709 C5710 1.414 . S
C5709 C5712 1.499 . S
C5710 H5690 0.950 . S
C5710 C5709 1.414 . S
C5710 C5711 1.374 . S
C5711 H5691 0.950 . S
C5711 C5707 1.385 . S
C5711 C5710 1.374 . S
C5712 C5709 1.499 . S
C5712 C5713 1.373 . S
C5712 C5714 1.389 . S
C5713 H5692 0.950 . S
C5713 C5712 1.373 . S
C5713 C5729 1.377 . S
C5714 C5712 1.389 . S
C5714 C5715 1.524 . S
C5714 C5728 1.377 . S
C5715 C5714 1.524 . S
C5715 C5716 1.397 . S
C5715 C5720 1.363 . S
C5716 H5693 0.950 . S
C5716 C5715 1.397 . S
C5716 C5717 1.334 . S
C5717 H5694 0.950 . S
C5717 C5716 1.334 . S
C5717 C5718 1.287 . S
C5718 C5717 1.287 . S
C5718 C5719 1.524 . S
C5718 H5737 0.913 . S
C5719 H5695 0.950 . S
C5719 C5718 1.524 . S
C5719 C5720 1.415 . S
C5720 H5696 0.950 . S
C5720 C5715 1.363 . S
C5720 C5719 1.415 . S
C5721 H5697 0.951 . S
C5721 C5722 1.366 . S
C5721 C5723 1.388 . S
C5722 C5721 1.366 . S
C5722 C5726 1.385 . S
C5723 H5698 0.951 . S
C5723 C5721 1.388 . S
C5723 C5724 1.366 . S
C5724 C5723 1.366 . S
C5724 C5725 1.414 . S
C5724 C5727 1.499 . S
C5725 H5699 0.950 . S
C5725 C5724 1.414 . S
C5725 C5726 1.374 . S
C5726 H5700 0.950 . S
C5726 C5722 1.385 . S
C5726 C5725 1.374 . S
C5727 C5724 1.499 . S
C5727 C5728 1.373 . S
C5727 C5729 1.389 . S
C5728 H5701 0.950 . S
C5728 C5714 1.377 . S
C5728 C5727 1.373 . S
C5729 C5713 1.377 . S
C5729 C5727 1.389 . S
C5729 C5730 1.524 . S
C5730 C5729 1.524 . S
C5730 C5731 1.397 . S
C5730 C5735 1.363 . S
C5731 H5702 0.950 . S
C5731 C5730 1.397 . S
C5731 C5732 1.334 . S
C5732 H5703 0.950 . S
C5732 C5731 1.334 . S
C5732 C5733 1.287 . S
C5733 C5732 1.287 . S
C5733 C5734 1.524 . S
C5733 H5736 0.999 . S
C5734 H5704 0.950 . S
C5734 C5733 1.524 . S
C5734 C5735 1.415 . S
C5735 H5705 0.950 . S
C5735 C5730 1.363 . S
C5735 C5734 1.415 . S
H5736 C5733 0.999 . S
H5737 C5718 0.913 . S
H5738 C5756 0.951 . S
H5739 C5758 0.951 . S
H5740 C5760 0.950 . S
H5741 C5761 0.950 . S
H5742 C5763 0.950 . S
H5743 C5766 0.950 . S
H5744 C5767 0.950 . S
H5745 C5769 0.950 . S
H5746 C5770 0.950 . S
H5747 C5771 0.951 . S
H5748 C5773 0.951 . S
H5749 C5775 0.950 . S
H5750 C5776 0.950 . S
H5751 C5778 0.950 . S
H5752 C5781 0.950 . S
H5753 C5782 0.950 . S
H5754 C5784 0.950 . S
H5755 C5785 0.950 . S
C5756 H5738 0.951 . S
C5756 C5757 1.366 . S
C5756 C5758 1.388 . S
C5757 C5756 1.366 . S
C5757 C5761 1.385 . S
C5758 H5739 0.951 . S
C5758 C5756 1.388 . S
C5758 C5759 1.366 . S
C5759 C5758 1.366 . S
C5759 C5760 1.414 . S
C5759 C5762 1.499 . S
C5760 H5740 0.950 . S
C5760 C5759 1.414 . S
C5760 C5761 1.374 . S
C5761 H5741 0.950 . S
C5761 C5757 1.385 . S
C5761 C5760 1.374 . S
C5762 C5759 1.499 . S
C5762 C5763 1.373 . S
C5762 C5764 1.389 . S
C5763 H5742 0.950 . S
C5763 C5762 1.373 . S
C5763 C5779 1.377 . S
C5764 C5762 1.389 . S
C5764 C5765 1.524 . S
C5764 C5778 1.377 . S
C5765 C5764 1.524 . S
C5765 C5766 1.397 . S
C5765 C5770 1.363 . S
C5766 H5743 0.950 . S
C5766 C5765 1.397 . S
C5766 C5767 1.334 . S
C5767 H5744 0.950 . S
C5767 C5766 1.334 . S
C5767 C5768 1.287 . S
C5768 C5767 1.287 . S
C5768 C5769 1.524 . S
C5768 H5787 0.913 . S
C5769 H5745 0.950 . S
C5769 C5768 1.524 . S
C5769 C5770 1.415 . S
C5770 H5746 0.950 . S
C5770 C5765 1.363 . S
C5770 C5769 1.415 . S
C5771 H5747 0.951 . S
C5771 C5772 1.366 . S
C5771 C5773 1.388 . S
C5772 C5771 1.366 . S
C5772 C5776 1.385 . S
C5773 H5748 0.951 . S
C5773 C5771 1.388 . S
C5773 C5774 1.366 . S
C5774 C5773 1.366 . S
C5774 C5775 1.414 . S
C5774 C5777 1.499 . S
C5775 H5749 0.950 . S
C5775 C5774 1.414 . S
C5775 C5776 1.374 . S
C5776 H5750 0.950 . S
C5776 C5772 1.385 . S
C5776 C5775 1.374 . S
C5777 C5774 1.499 . S
C5777 C5778 1.373 . S
C5777 C5779 1.389 . S
C5778 H5751 0.950 . S
C5778 C5764 1.377 . S
C5778 C5777 1.373 . S
C5779 C5763 1.377 . S
C5779 C5777 1.389 . S
C5779 C5780 1.524 . S
C5780 C5779 1.524 . S
C5780 C5781 1.397 . S
C5780 C5785 1.363 . S
C5781 H5752 0.950 . S
C5781 C5780 1.397 . S
C5781 C5782 1.334 . S
C5782 H5753 0.950 . S
C5782 C5781 1.334 . S
C5782 C5783 1.287 . S
C5783 C5782 1.287 . S
C5783 C5784 1.524 . S
C5783 H5786 0.999 . S
C5784 H5754 0.950 . S
C5784 C5783 1.524 . S
C5784 C5785 1.415 . S
C5785 H5755 0.950 . S
C5785 C5780 1.363 . S
C5785 C5784 1.415 . S
H5786 C5783 0.999 . S
H5787 C5768 0.913 . S
H5788 C5806 0.951 . S
H5789 C5808 0.951 . S
H5790 C5810 0.950 . S
H5791 C5811 0.950 . S
H5792 C5813 0.950 . S
H5793 C5816 0.950 . S
H5794 C5817 0.950 . S
H5795 C5819 0.950 . S
H5796 C5820 0.950 . S
H5797 C5821 0.951 . S
H5798 C5823 0.951 . S
H5799 C5825 0.950 . S
H5800 C5826 0.950 . S
H5801 C5828 0.950 . S
H5802 C5831 0.950 . S
H5803 C5832 0.950 . S
H5804 C5834 0.950 . S
H5805 C5835 0.950 . S
C5806 H5788 0.951 . S
C5806 C5807 1.366 . S
C5806 C5808 1.388 . S
C5807 C5806 1.366 . S
C5807 C5811 1.385 . S
C5808 H5789 0.951 . S
C5808 C5806 1.388 . S
C5808 C5809 1.366 . S
C5809 C5808 1.366 . S
C5809 C5810 1.414 . S
C5809 C5812 1.499 . S
C5810 H5790 0.950 . S
C5810 C5809 1.414 . S
C5810 C5811 1.374 . S
C5811 H5791 0.950 . S
C5811 C5807 1.385 . S
C5811 C5810 1.374 . S
C5812 C5809 1.499 . S
C5812 C5813 1.373 . S
C5812 C5814 1.389 . S
C5813 H5792 0.950 . S
C5813 C5812 1.373 . S
C5813 C5829 1.377 . S
C5814 C5812 1.389 . S
C5814 C5815 1.524 . S
C5814 C5828 1.377 . S
C5815 C5814 1.524 . S
C5815 C5816 1.397 . S
C5815 C5820 1.363 . S
C5816 H5793 0.950 . S
C5816 C5815 1.397 . S
C5816 C5817 1.334 . S
C5817 H5794 0.950 . S
C5817 C5816 1.334 . S
C5817 C5818 1.287 . S
C5818 C5817 1.287 . S
C5818 C5819 1.524 . S
C5818 H5837 0.913 . S
C5819 H5795 0.950 . S
C5819 C5818 1.524 . S
C5819 C5820 1.415 . S
C5820 H5796 0.950 . S
C5820 C5815 1.363 . S
C5820 C5819 1.415 . S
C5821 H5797 0.951 . S
C5821 C5822 1.366 . S
C5821 C5823 1.388 . S
C5822 C5821 1.366 . S
C5822 C5826 1.385 . S
C5823 H5798 0.951 . S
C5823 C5821 1.388 . S
C5823 C5824 1.366 . S
C5824 C5823 1.366 . S
C5824 C5825 1.414 . S
C5824 C5827 1.499 . S
C5825 H5799 0.950 . S
C5825 C5824 1.414 . S
C5825 C5826 1.374 . S
C5826 H5800 0.950 . S
C5826 C5822 1.385 . S
C5826 C5825 1.374 . S
C5827 C5824 1.499 . S
C5827 C5828 1.373 . S
C5827 C5829 1.389 . S
C5828 H5801 0.950 . S
C5828 C5814 1.377 . S
C5828 C5827 1.373 . S
C5829 C5813 1.377 . S
C5829 C5827 1.389 . S
C5829 C5830 1.524 . S
C5830 C5829 1.524 . S
C5830 C5831 1.397 . S
C5830 C5835 1.363 . S
C5831 H5802 0.950 . S
C5831 C5830 1.397 . S
C5831 C5832 1.334 . S
C5832 H5803 0.950 . S
C5832 C5831 1.334 . S
C5832 C5833 1.287 . S
C5833 C5832 1.287 . S
C5833 C5834 1.524 . S
C5833 H5836 0.999 . S
C5834 H5804 0.950 . S
C5834 C5833 1.524 . S
C5834 C5835 1.415 . S
C5835 H5805 0.950 . S
C5835 C5830 1.363 . S
C5835 C5834 1.415 . S
H5836 C5833 0.999 . S
H5837 C5818 0.913 . S
H5838 C5856 0.951 . S
H5839 C5858 0.951 . S
H5840 C5860 0.950 . S
H5841 C5861 0.950 . S
H5842 C5863 0.950 . S
H5843 C5866 0.950 . S
H5844 C5867 0.950 . S
H5845 C5869 0.950 . S
H5846 C5870 0.950 . S
H5847 C5871 0.951 . S
H5848 C5873 0.951 . S
H5849 C5875 0.950 . S
H5850 C5876 0.950 . S
H5851 C5878 0.950 . S
H5852 C5881 0.950 . S
H5853 C5882 0.950 . S
H5854 C5884 0.950 . S
H5855 C5885 0.950 . S
C5856 H5838 0.951 . S
C5856 C5857 1.366 . S
C5856 C5858 1.388 . S
C5857 C5856 1.366 . S
C5857 C5861 1.385 . S
C5858 H5839 0.951 . S
C5858 C5856 1.388 . S
C5858 C5859 1.366 . S
C5859 C5858 1.366 . S
C5859 C5860 1.414 . S
C5859 C5862 1.499 . S
C5860 H5840 0.950 . S
C5860 C5859 1.414 . S
C5860 C5861 1.374 . S
C5861 H5841 0.950 . S
C5861 C5857 1.385 . S
C5861 C5860 1.374 . S
C5862 C5859 1.499 . S
C5862 C5863 1.373 . S
C5862 C5864 1.389 . S
C5863 H5842 0.950 . S
C5863 C5862 1.373 . S
C5863 C5879 1.377 . S
C5864 C5862 1.389 . S
C5864 C5865 1.524 . S
C5864 C5878 1.377 . S
C5865 C5864 1.524 . S
C5865 C5866 1.397 . S
C5865 C5870 1.363 . S
C5866 H5843 0.950 . S
C5866 C5865 1.397 . S
C5866 C5867 1.334 . S
C5867 H5844 0.950 . S
C5867 C5866 1.334 . S
C5867 C5868 1.287 . S
C5868 C5867 1.287 . S
C5868 C5869 1.524 . S
C5868 H5887 0.913 . S
C5869 H5845 0.950 . S
C5869 C5868 1.524 . S
C5869 C5870 1.415 . S
C5870 H5846 0.950 . S
C5870 C5865 1.363 . S
C5870 C5869 1.415 . S
C5871 H5847 0.951 . S
C5871 C5872 1.366 . S
C5871 C5873 1.388 . S
C5872 C5871 1.366 . S
C5872 C5876 1.385 . S
C5873 H5848 0.951 . S
C5873 C5871 1.388 . S
C5873 C5874 1.366 . S
C5874 C5873 1.366 . S
C5874 C5875 1.414 . S
C5874 C5877 1.499 . S
C5875 H5849 0.950 . S
C5875 C5874 1.414 . S
C5875 C5876 1.374 . S
C5876 H5850 0.950 . S
C5876 C5872 1.385 . S
C5876 C5875 1.374 . S
C5877 C5874 1.499 . S
C5877 C5878 1.373 . S
C5877 C5879 1.389 . S
C5878 H5851 0.950 . S
C5878 C5864 1.377 . S
C5878 C5877 1.373 . S
C5879 C5863 1.377 . S
C5879 C5877 1.389 . S
C5879 C5880 1.524 . S
C5880 C5879 1.524 . S
C5880 C5881 1.397 . S
C5880 C5885 1.363 . S
C5881 H5852 0.950 . S
C5881 C5880 1.397 . S
C5881 C5882 1.334 . S
C5882 H5853 0.950 . S
C5882 C5881 1.334 . S
C5882 C5883 1.287 . S
C5883 C5882 1.287 . S
C5883 C5884 1.524 . S
C5883 H5886 0.999 . S
C5884 H5854 0.950 . S
C5884 C5883 1.524 . S
C5884 C5885 1.415 . S
C5885 H5855 0.950 . S
C5885 C5880 1.363 . S
C5885 C5884 1.415 . S
H5886 C5883 0.999 . S
H5887 C5868 0.913 . S
H5888 C5906 0.951 . S
H5889 C5908 0.951 . S
H5890 C5910 0.950 . S
H5891 C5911 0.950 . S
H5892 C5913 0.950 . S
H5893 C5916 0.950 . S
H5894 C5917 0.950 . S
H5895 C5919 0.950 . S
H5896 C5920 0.950 1_565 S
H5897 C5921 0.951 . S
H5898 C5923 0.951 . S
H5899 C5925 0.950 . S
H5900 C5926 0.950 . S
H5901 C5928 0.950 . S
H5902 C5931 0.950 . S
H5903 C5932 0.950 . S
H5904 C5934 0.950 . S
H5905 C5935 0.985 . S
C5906 H5888 0.951 . S
C5906 C5907 1.366 1_556 S
C5906 C5908 1.388 . S
C5907 C5906 1.366 1_554 S
C5907 C5911 1.385 1_565 S
C5908 H5889 0.951 . S
C5908 C5906 1.388 . S
C5908 C5909 1.366 . S
C5909 C5908 1.366 . S
C5909 C5910 1.414 1_565 S
C5909 C5912 1.499 . S
C5910 H5890 0.950 . S
C5910 C5909 1.414 1_545 S
C5910 C5911 1.374 1_556 S
C5911 H5891 0.950 . S
C5911 C5907 1.385 1_545 S
C5911 C5910 1.374 1_554 S
C5912 C5909 1.499 . S
C5912 C5913 1.373 . S
C5912 C5914 1.389 1_565 S
C5913 H5892 0.950 . S
C5913 C5912 1.373 . S
C5913 C5929 1.377 . S
C5914 C5912 1.389 1_545 S
C5914 C5915 1.524 . S
C5914 C5928 1.377 . S
C5915 C5914 1.524 . S
C5915 C5916 1.397 . S
C5915 C5920 1.363 . S
C5916 H5893 0.950 . S
C5916 C5915 1.397 . S
C5916 C5917 1.334 . S
C5917 H5894 0.950 . S
C5917 C5916 1.334 . S
C5917 C5918 1.287 . S
C5918 C5917 1.287 . S
C5918 C5919 1.524 . S
C5918 H5937 0.913 . S
C5919 H5895 0.950 . S
C5919 C5918 1.524 . S
C5919 C5920 1.415 . S
C5920 H5896 0.950 1_545 S
C5920 C5915 1.363 . S
C5920 C5919 1.415 . S
C5921 H5897 0.951 . S
C5921 C5922 1.366 1_545 S
C5921 C5923 1.388 . S
C5922 C5921 1.366 1_565 S
C5922 C5926 1.385 . S
C5923 H5898 0.951 . S
C5923 C5921 1.388 . S
C5923 C5924 1.366 1_545 S
C5924 C5923 1.366 1_565 S
C5924 C5925 1.414 . S
C5924 C5927 1.499 . S
C5925 H5899 0.950 . S
C5925 C5924 1.414 . S
C5925 C5926 1.374 . S
C5926 H5900 0.950 . S
C5926 C5922 1.385 . S
C5926 C5925 1.374 . S
C5927 C5924 1.499 . S
C5927 C5928 1.373 1_565 S
C5927 C5929 1.389 . S
C5928 H5901 0.950 . S
C5928 C5914 1.377 . S
C5928 C5927 1.373 1_545 S
C5929 C5913 1.377 . S
C5929 C5927 1.389 . S
C5929 C5930 1.524 . S
C5930 C5929 1.524 . S
C5930 C5931 1.397 . S
C5930 C5935 1.363 . S
C5931 H5902 0.950 . S
C5931 C5930 1.397 . S
C5931 C5932 1.334 . S
C5932 H5903 0.950 . S
C5932 C5931 1.334 . S
C5932 C5933 1.287 . S
C5933 C5932 1.287 . S
C5933 C5934 1.524 . S
C5933 H5936 0.999 . S
C5934 H5904 0.950 . S
C5934 C5933 1.524 . S
C5934 C5935 1.415 . S
C5935 H5905 0.985 . S
C5935 C5930 1.363 . S
C5935 C5934 1.415 . S
H5936 C5933 0.999 . S
H5937 C5918 0.913 . S
H5938 C5956 0.951 . S
H5939 C5958 0.951 . S
H5940 C5960 0.950 . S
H5941 C5961 0.950 . S
H5942 C5963 0.950 . S
H5943 C5966 0.950 . S
H5944 C5967 0.955 . S
H5945 C5969 0.950 . S
H5946 C5970 0.950 . S
H5947 C5971 0.952 . S
H5948 C5973 0.951 . S
H5949 C5975 0.950 . S
H5950 C5976 0.961 . S
H5951 C5978 0.922 1_655 S
H5952 C5981 0.950 . S
H5953 C5982 0.950 . S
H5954 C5984 0.950 . S
H5955 C5985 0.950 . S
C5956 H5938 0.951 . S
C5956 C5957 1.366 . S
C5956 C5958 1.388 . S
C5957 C5956 1.366 . S
C5957 C5961 1.385 . S
C5958 H5939 0.951 . S
C5958 C5956 1.388 . S
C5958 C5959 1.366 . S
C5959 C5958 1.366 . S
C5959 C5960 1.414 . S
C5959 C5962 1.499 . S
C5960 H5940 0.950 . S
C5960 C5959 1.414 . S
C5960 C5961 1.374 . S
C5961 H5941 0.950 . S
C5961 C5957 1.385 . S
C5961 C5960 1.374 . S
C5962 C5959 1.499 . S
C5962 C5963 1.373 . S
C5962 C5964 1.389 . S
C5963 H5942 0.950 . S
C5963 C5962 1.373 . S
C5963 C5979 1.377 . S
C5964 C5962 1.389 . S
C5964 C5965 1.524 . S
C5964 C5978 1.377 . S
C5965 C5964 1.524 . S
C5965 C5966 1.397 . S
C5965 C5970 1.363 1_455 S
C5966 H5943 0.950 . S
C5966 C5965 1.397 . S
C5966 C5967 1.358 . S
C5967 H5944 0.955 . S
C5967 C5966 1.358 . S
C5967 C5968 1.260 1_455 S
C5968 C5967 1.260 1_655 S
C5968 C5969 1.524 . S
C5968 H5987 0.913 . S
C5969 H5945 0.950 . S
C5969 C5968 1.524 . S
C5969 C5970 1.415 . S
C5970 H5946 0.950 . S
C5970 C5965 1.363 1_655 S
C5970 C5969 1.415 . S
C5971 H5947 0.952 . S
C5971 C5972 1.358 1_455 S
C5971 C5973 1.395 1_554 S
C5972 C5971 1.358 1_655 S
C5972 C5976 1.385 1_554 S
C5973 H5948 0.951 . S
C5973 C5971 1.395 1_556 S
C5973 C5974 1.366 . S
C5974 C5973 1.366 . S
C5974 C5975 1.414 1_455 S
C5974 C5977 1.499 . S
C5975 H5949 0.950 . S
C5975 C5974 1.414 1_655 S
C5975 C5976 1.374 . S
C5976 H5950 0.961 . S
C5976 C5972 1.385 1_556 S
C5976 C5975 1.374 . S
C5977 C5974 1.499 . S
C5977 C5978 1.373 . S
C5977 C5979 1.389 . S
C5978 H5951 0.922 1_455 S
C5978 C5964 1.377 . S
C5978 C5977 1.373 . S
C5979 C5963 1.377 . S
C5979 C5977 1.389 . S
C5979 C5980 1.524 . S
C5980 C5979 1.524 . S
C5980 C5981 1.397 . S
C5980 C5985 1.363 . S
C5981 H5952 0.950 . S
C5981 C5980 1.397 . S
C5981 C5982 1.334 1_556 S
C5982 H5953 0.950 . S
C5982 C5981 1.334 1_554 S
C5982 C5983 1.287 . S
C5983 C5982 1.287 . S
C5983 C5984 1.524 1_554 S
C5983 H5986 0.999 . S
C5984 H5954 0.950 . S
C5984 C5983 1.524 1_556 S
C5984 C5985 1.415 . S
C5985 H5955 0.950 . S
C5985 C5980 1.363 . S
C5985 C5984 1.415 . S
H5986 C5983 0.999 . S
H5987 C5968 0.913 . S
H5988 C6006 0.951 . S
H5989 C6008 0.951 . S
H5990 C6010 0.950 . S
H5991 C6011 0.950 . S
H5992 C6013 0.950 . S
H5993 C6016 0.950 . S
H5994 C6017 0.950 . S
H5995 C6019 0.950 . S
H5996 C6020 0.950 . S
H5997 C6021 0.951 . S
H5998 C6023 0.951 . S
H5999 C6025 0.950 . S
H6000 C6026 0.950 . S
H6001 C6028 0.950 . S
H6002 C6031 0.950 . S
H6003 C6032 0.950 . S
H6004 C6034 0.950 . S
H6005 C6035 0.950 . S
C6006 H5988 0.951 . S
C6006 C6007 1.366 . S
C6006 C6008 1.388 . S
C6007 C6006 1.366 . S
C6007 C6011 1.385 . S
C6008 H5989 0.951 . S
C6008 C6006 1.388 . S
C6008 C6009 1.366 . S
C6009 C6008 1.366 . S
C6009 C6010 1.414 . S
C6009 C6012 1.499 . S
C6010 H5990 0.950 . S
C6010 C6009 1.414 . S
C6010 C6011 1.374 . S
C6011 H5991 0.950 . S
C6011 C6007 1.385 . S
C6011 C6010 1.374 . S
C6012 C6009 1.499 . S
C6012 C6013 1.373 . S
C6012 C6014 1.389 . S
C6013 H5992 0.950 . S
C6013 C6012 1.373 . S
C6013 C6029 1.377 . S
C6014 C6012 1.389 . S
C6014 C6015 1.524 . S
C6014 C6028 1.377 . S
C6015 C6014 1.524 . S
C6015 C6016 1.397 . S
C6015 C6020 1.363 . S
C6016 H5993 0.950 . S
C6016 C6015 1.397 . S
C6016 C6017 1.334 . S
C6017 H5994 0.950 . S
C6017 C6016 1.334 . S
C6017 C6018 1.287 . S
C6018 C6017 1.287 . S
C6018 C6019 1.524 . S
C6018 H6037 0.913 . S
C6019 H5995 0.950 . S
C6019 C6018 1.524 . S
C6019 C6020 1.415 . S
C6020 H5996 0.950 . S
C6020 C6015 1.363 . S
C6020 C6019 1.415 . S
C6021 H5997 0.951 . S
C6021 C6022 1.366 . S
C6021 C6023 1.388 . S
C6022 C6021 1.366 . S
C6022 C6026 1.385 . S
C6023 H5998 0.951 . S
C6023 C6021 1.388 . S
C6023 C6024 1.366 . S
C6024 C6023 1.366 . S
C6024 C6025 1.414 . S
C6024 C6027 1.499 . S
C6025 H5999 0.950 . S
C6025 C6024 1.414 . S
C6025 C6026 1.374 . S
C6026 H6000 0.950 . S
C6026 C6022 1.385 . S
C6026 C6025 1.374 . S
C6027 C6024 1.499 . S
C6027 C6028 1.373 . S
C6027 C6029 1.389 . S
C6028 H6001 0.950 . S
C6028 C6014 1.377 . S
C6028 C6027 1.373 . S
C6029 C6013 1.377 . S
C6029 C6027 1.389 . S
C6029 C6030 1.524 . S
C6030 C6029 1.524 . S
C6030 C6031 1.397 . S
C6030 C6035 1.363 . S
C6031 H6002 0.950 . S
C6031 C6030 1.397 . S
C6031 C6032 1.334 . S
C6032 H6003 0.950 . S
C6032 C6031 1.334 . S
C6032 C6033 1.287 . S
C6033 C6032 1.287 . S
C6033 C6034 1.524 . S
C6033 H6036 0.999 . S
C6034 H6004 0.950 . S
C6034 C6033 1.524 . S
C6034 C6035 1.415 . S
C6035 H6005 0.950 . S
C6035 C6030 1.363 . S
C6035 C6034 1.415 . S
H6036 C6033 0.999 . S
H6037 C6018 0.913 . S
H6038 C6056 0.951 . S
H6039 C6058 0.951 . S
H6040 C6060 0.950 . S
H6041 C6061 0.950 . S
H6042 C6063 0.950 . S
H6043 C6066 0.950 . S
H6044 C6067 0.950 . S
H6045 C6069 0.950 . S
H6046 C6070 0.950 . S
H6047 C6071 0.951 . S
H6048 C6073 0.951 . S
H6049 C6075 0.950 . S
H6050 C6076 0.950 . S
H6051 C6078 0.950 . S
H6052 C6081 0.950 . S
H6053 C6082 0.950 . S
H6054 C6084 0.950 . S
H6055 C6085 0.950 1_655 S
C6056 H6038 0.951 . S
C6056 C6057 1.366 1_455 S
C6056 C6058 1.388 . S
C6057 C6056 1.366 1_655 S
C6057 C6061 1.385 . S
C6058 H6039 0.951 . S
C6058 C6056 1.388 . S
C6058 C6059 1.366 . S
C6059 C6058 1.366 . S
C6059 C6060 1.414 1_455 S
C6059 C6062 1.499 . S
C6060 H6040 0.950 . S
C6060 C6059 1.414 1_655 S
C6060 C6061 1.374 . S
C6061 H6041 0.950 . S
C6061 C6057 1.385 . S
C6061 C6060 1.374 . S
C6062 C6059 1.499 . S
C6062 C6063 1.373 1_565 S
C6062 C6064 1.389 . S
C6063 H6042 0.950 . S
C6063 C6062 1.373 1_545 S
C6063 C6079 1.377 . S
C6064 C6062 1.389 . S
C6064 C6065 1.524 . S
C6064 C6078 1.377 . S
C6065 C6064 1.524 . S
C6065 C6066 1.397 . S
C6065 C6070 1.363 . S
C6066 H6043 0.950 . S
C6066 C6065 1.397 . S
C6066 C6067 1.334 . S
C6067 H6044 0.950 . S
C6067 C6066 1.334 . S
C6067 C6068 1.287 . S
C6068 C6067 1.287 . S
C6068 C6069 1.524 . S
C6068 H6087 0.913 . S
C6069 H6045 0.950 . S
C6069 C6068 1.524 . S
C6069 C6070 1.415 . S
C6070 H6046 0.950 . S
C6070 C6065 1.363 . S
C6070 C6069 1.415 . S
C6071 H6047 0.951 . S
C6071 C6072 1.366 . S
C6071 C6073 1.388 . S
C6072 C6071 1.366 . S
C6072 C6076 1.385 . S
C6073 H6048 0.951 . S
C6073 C6071 1.388 . S
C6073 C6074 1.366 . S
C6074 C6073 1.366 . S
C6074 C6075 1.414 . S
C6074 C6077 1.499 . S
C6075 H6049 0.950 . S
C6075 C6074 1.414 . S
C6075 C6076 1.374 . S
C6076 H6050 0.950 . S
C6076 C6072 1.385 . S
C6076 C6075 1.374 . S
C6077 C6074 1.499 . S
C6077 C6078 1.373 . S
C6077 C6079 1.389 1_565 S
C6078 H6051 0.950 . S
C6078 C6064 1.377 . S
C6078 C6077 1.373 . S
C6079 C6063 1.377 . S
C6079 C6077 1.389 1_545 S
C6079 C6080 1.524 . S
C6080 C6079 1.524 . S
C6080 C6081 1.397 . S
C6080 C6085 1.363 . S
C6081 H6052 0.950 . S
C6081 C6080 1.397 . S
C6081 C6082 1.334 . S
C6082 H6053 0.950 . S
C6082 C6081 1.334 . S
C6082 C6083 1.287 . S
C6083 C6082 1.287 . S
C6083 C6084 1.524 1_455 S
C6083 H6086 0.999 . S
C6084 H6054 0.950 . S
C6084 C6083 1.524 1_655 S
C6084 C6085 1.415 1_655 S
C6085 H6055 0.950 1_455 S
C6085 C6080 1.363 . S
C6085 C6084 1.415 1_455 S
H6086 C6083 0.999 . S
H6087 C6068 0.913 . S
H6088 C6106 0.951 . S
H6089 C6108 0.951 . S
H6090 C6110 0.950 . S
H6091 C6111 0.950 . S
H6092 C6113 0.950 . S
H6093 C6116 0.950 . S
H6094 C6117 0.950 . S
H6095 C6119 0.950 . S
H6096 C6120 0.950 . S
H6097 C6121 0.951 . S
H6098 C6123 0.951 . S
H6099 C6125 0.950 . S
H6100 C6126 0.947 1_556 S
H6101 C6128 0.950 . S
H6102 C6131 0.950 . S
H6103 C6132 0.950 . S
H6104 C6134 0.950 . S
H6105 C6135 0.950 . S
C6106 H6088 0.951 . S
C6106 C6107 1.366 1_565 S
C6106 C6108 1.388 . S
C6107 C6106 1.366 1_545 S
C6107 C6111 1.385 . S
C6108 H6089 0.951 . S
C6108 C6106 1.388 . S
C6108 C6109 1.366 1_565 S
C6109 C6108 1.366 1_545 S
C6109 C6110 1.414 . S
C6109 C6112 1.499 . S
C6110 H6090 0.950 . S
C6110 C6109 1.414 . S
C6110 C6111 1.374 . S
C6111 H6091 0.950 . S
C6111 C6107 1.385 . S
C6111 C6110 1.374 . S
C6112 C6109 1.499 . S
C6112 C6113 1.373 . S
C6112 C6114 1.389 1_545 S
C6113 H6092 0.950 . S
C6113 C6112 1.373 . S
C6113 C6129 1.377 . S
C6114 C6112 1.389 1_565 S
C6114 C6115 1.524 . S
C6114 C6128 1.377 . S
C6115 C6114 1.524 . S
C6115 C6116 1.397 . S
C6115 C6120 1.363 . S
C6116 H6093 0.950 . S
C6116 C6115 1.397 . S
C6116 C6117 1.334 . S
C6117 H6094 0.950 . S
C6117 C6116 1.334 . S
C6117 C6118 1.287 . S
C6118 C6117 1.287 . S
C6118 C6119 1.524 . S
C6118 H6137 0.913 . S
C6119 H6095 0.950 . S
C6119 C6118 1.524 . S
C6119 C6120 1.415 . S
C6120 H6096 0.950 . S
C6120 C6115 1.363 . S
C6120 C6119 1.415 . S
C6121 H6097 0.951 . S
C6121 C6122 1.366 . S
C6121 C6123 1.388 1_556 S
C6122 C6121 1.366 . S
C6122 C6126 1.385 1_546 S
C6123 H6098 0.951 . S
C6123 C6121 1.388 1_554 S
C6123 C6124 1.366 . S
C6124 C6123 1.366 . S
C6124 C6125 1.414 1_545 S
C6124 C6127 1.499 . S
C6125 H6099 0.950 . S
C6125 C6124 1.414 1_565 S
C6125 C6126 1.374 . S
C6126 H6100 0.947 1_554 S
C6126 C6122 1.385 1_564 S
C6126 C6125 1.374 . S
C6127 C6124 1.499 . S
C6127 C6128 1.373 1_545 S
C6127 C6129 1.389 . S
C6128 H6101 0.950 . S
C6128 C6114 1.377 . S
C6128 C6127 1.373 1_565 S
C6129 C6113 1.377 . S
C6129 C6127 1.389 . S
C6129 C6130 1.524 . S
C6130 C6129 1.524 . S
C6130 C6131 1.397 . S
C6130 C6135 1.363 . S
C6131 H6102 0.950 . S
C6131 C6130 1.397 . S
C6131 C6132 1.334 . S
C6132 H6103 0.950 . S
C6132 C6131 1.334 . S
C6132 C6133 1.287 . S
C6133 C6132 1.287 . S
C6133 C6134 1.524 . S
C6133 H6136 0.999 . S
C6134 H6104 0.950 . S
C6134 C6133 1.524 . S
C6134 C6135 1.415 . S
C6135 H6105 0.950 . S
C6135 C6130 1.363 . S
C6135 C6134 1.415 . S
H6136 C6133 0.999 . S
H6137 C6118 0.913 . S
H6138 C6156 0.951 . S
H6139 C6158 0.951 . S
H6140 C6160 0.950 . S
H6141 C6161 0.950 . S
H6142 C6163 0.910 1_455 S
H6143 C6166 0.950 . S
H6144 C6167 0.950 1_556 S
H6145 C6169 0.950 . S
H6146 C6170 0.950 . S
H6147 C6171 0.951 . S
H6148 C6173 0.951 . S
H6149 C6175 0.950 . S
H6150 C6176 0.950 . S
H6151 C6178 0.950 . S
H6152 C6181 0.950 . S
H6153 C6182 0.950 . S
H6154 C6184 0.950 . S
H6155 C6185 0.950 . S
C6156 H6138 0.951 . S
C6156 C6157 1.366 1_655 S
C6156 C6158 1.388 1_556 S
C6157 C6156 1.366 1_455 S
C6157 C6161 1.385 1_556 S
C6158 H6139 0.951 . S
C6158 C6156 1.388 1_554 S
C6158 C6159 1.366 . S
C6159 C6158 1.366 . S
C6159 C6160 1.414 1_655 S
C6159 C6162 1.499 . S
C6160 H6140 0.950 . S
C6160 C6159 1.414 1_455 S
C6160 C6161 1.374 . S
C6161 H6141 0.950 . S
C6161 C6157 1.385 1_554 S
C6161 C6160 1.374 . S
C6162 C6159 1.499 . S
C6162 C6163 1.373 . S
C6162 C6164 1.389 . S
C6163 H6142 0.910 1_655 S
C6163 C6162 1.373 . S
C6163 C6179 1.377 . S
C6164 C6162 1.389 . S
C6164 C6165 1.524 . S
C6164 C6178 1.377 . S
C6165 C6164 1.524 . S
C6165 C6166 1.397 . S
C6165 C6170 1.363 . S
C6166 H6143 0.950 . S
C6166 C6165 1.397 . S
C6166 C6167 1.334 . S
C6167 H6144 0.950 1_554 S
C6167 C6166 1.334 . S
C6167 C6168 1.287 1_554 S
C6168 C6167 1.287 1_556 S
C6168 C6169 1.524 1_556 S
C6168 H6187 0.913 . S
C6169 H6145 0.950 . S
C6169 C6168 1.524 1_554 S
C6169 C6170 1.415 . S
C6170 H6146 0.950 . S
C6170 C6165 1.363 . S
C6170 C6169 1.415 . S
C6171 H6147 0.951 . S
C6171 C6172 1.366 . S
C6171 C6173 1.388 . S
C6172 C6171 1.366 . S
C6172 C6176 1.385 . S
C6173 H6148 0.951 . S
C6173 C6171 1.388 . S
C6173 C6174 1.366 . S
C6174 C6173 1.366 . S
C6174 C6175 1.414 . S
C6174 C6177 1.499 . S
C6175 H6149 0.950 . S
C6175 C6174 1.414 . S
C6175 C6176 1.374 . S
C6176 H6150 0.950 . S
C6176 C6172 1.385 . S
C6176 C6175 1.374 . S
C6177 C6174 1.499 . S
C6177 C6178 1.373 . S
C6177 C6179 1.389 . S
C6178 H6151 0.950 . S
C6178 C6164 1.377 . S
C6178 C6177 1.373 . S
C6179 C6163 1.377 . S
C6179 C6177 1.389 . S
C6179 C6180 1.524 . S
C6180 C6179 1.524 . S
C6180 C6181 1.397 . S
C6180 C6185 1.363 1_655 S
C6181 H6152 0.950 . S
C6181 C6180 1.397 . S
C6181 C6182 1.334 . S
C6182 H6153 0.950 . S
C6182 C6181 1.334 . S
C6182 C6183 1.287 1_655 S
C6183 C6182 1.287 1_455 S
C6183 C6184 1.524 . S
C6183 H6186 0.999 . S
C6184 H6154 0.950 . S
C6184 C6183 1.524 . S
C6184 C6185 1.415 . S
C6185 H6155 0.950 . S
C6185 C6180 1.363 1_455 S
C6185 C6184 1.415 . S
H6186 C6183 0.999 . S
H6187 C6168 0.913 . S
H6188 C6206 0.951 . S
H6189 C6208 0.951 . S
H6190 C6210 0.950 . S
H6191 C6211 0.950 . S
H6192 C6213 0.950 . S
H6193 C6216 0.950 . S
H6194 C6217 0.950 . S
H6195 C6219 0.950 . S
H6196 C6220 0.950 . S
H6197 C6221 0.951 . S
H6198 C6223 0.951 . S
H6199 C6225 0.950 . S
H6200 C6226 0.950 . S
H6201 C6228 0.950 . S
H6202 C6231 0.950 . S
H6203 C6232 0.950 . S
H6204 C6234 0.950 . S
H6205 C6235 0.950 . S
C6206 H6188 0.951 . S
C6206 C6207 1.366 . S
C6206 C6208 1.388 . S
C6207 C6206 1.366 . S
C6207 C6211 1.385 . S
C6208 H6189 0.951 . S
C6208 C6206 1.388 . S
C6208 C6209 1.366 . S
C6209 C6208 1.366 . S
C6209 C6210 1.414 . S
C6209 C6212 1.499 . S
C6210 H6190 0.950 . S
C6210 C6209 1.414 . S
C6210 C6211 1.374 . S
C6211 H6191 0.950 . S
C6211 C6207 1.385 . S
C6211 C6210 1.374 . S
C6212 C6209 1.499 . S
C6212 C6213 1.373 . S
C6212 C6214 1.389 . S
C6213 H6192 0.950 . S
C6213 C6212 1.373 . S
C6213 C6229 1.377 . S
C6214 C6212 1.389 . S
C6214 C6215 1.524 . S
C6214 C6228 1.377 . S
C6215 C6214 1.524 . S
C6215 C6216 1.397 . S
C6215 C6220 1.363 . S
C6216 H6193 0.950 . S
C6216 C6215 1.397 . S
C6216 C6217 1.334 . S
C6217 H6194 0.950 . S
C6217 C6216 1.334 . S
C6217 C6218 1.287 . S
C6218 C6217 1.287 . S
C6218 C6219 1.524 . S
C6218 H6237 0.913 . S
C6219 H6195 0.950 . S
C6219 C6218 1.524 . S
C6219 C6220 1.415 . S
C6220 H6196 0.950 . S
C6220 C6215 1.363 . S
C6220 C6219 1.415 . S
C6221 H6197 0.951 . S
C6221 C6222 1.366 . S
C6221 C6223 1.388 . S
C6222 C6221 1.366 . S
C6222 C6226 1.385 . S
C6223 H6198 0.951 . S
C6223 C6221 1.388 . S
C6223 C6224 1.366 . S
C6224 C6223 1.366 . S
C6224 C6225 1.414 . S
C6224 C6227 1.499 . S
C6225 H6199 0.950 . S
C6225 C6224 1.414 . S
C6225 C6226 1.374 . S
C6226 H6200 0.950 . S
C6226 C6222 1.385 . S
C6226 C6225 1.374 . S
C6227 C6224 1.499 . S
C6227 C6228 1.373 . S
C6227 C6229 1.389 . S
C6228 H6201 0.950 . S
C6228 C6214 1.377 . S
C6228 C6227 1.373 . S
C6229 C6213 1.377 . S
C6229 C6227 1.389 . S
C6229 C6230 1.524 . S
C6230 C6229 1.524 . S
C6230 C6231 1.397 . S
C6230 C6235 1.363 . S
C6231 H6202 0.950 . S
C6231 C6230 1.397 . S
C6231 C6232 1.334 . S
C6232 H6203 0.950 . S
C6232 C6231 1.334 . S
C6232 C6233 1.287 . S
C6233 C6232 1.287 . S
C6233 C6234 1.524 . S
C6233 H6236 0.999 . S
C6234 H6204 0.950 . S
C6234 C6233 1.524 . S
C6234 C6235 1.415 . S
C6235 H6205 0.950 . S
C6235 C6230 1.363 . S
C6235 C6234 1.415 . S
H6236 C6233 0.999 . S
H6237 C6218 0.913 . S
H6238 C6256 0.951 . S
H6239 C6258 0.951 . S
H6240 C6260 0.950 . S
H6241 C6261 0.950 . S
H6242 C6263 0.950 . S
H6243 C6266 0.950 1_545 S
H6244 C6267 0.950 . S
H6245 C6269 0.950 . S
H6246 C6270 0.950 . S
H6247 C6271 0.951 . S
H6248 C6273 0.951 . S
H6249 C6275 0.950 . S
H6250 C6276 0.950 . S
H6251 C6278 0.950 . S
H6252 C6281 0.906 1_565 S
H6253 C6282 0.950 . S
H6254 C6284 0.950 . S
H6255 C6285 0.950 1_655 S
C6256 H6238 0.951 . S
C6256 C6257 1.366 1_565 S
C6256 C6258 1.388 . S
C6257 C6256 1.366 1_545 S
C6257 C6261 1.385 . S
C6258 H6239 0.951 . S
C6258 C6256 1.388 . S
C6258 C6259 1.366 1_565 S
C6259 C6258 1.366 1_545 S
C6259 C6260 1.414 . S
C6259 C6262 1.499 . S
C6260 H6240 0.950 . S
C6260 C6259 1.414 . S
C6260 C6261 1.374 . S
C6261 H6241 0.950 . S
C6261 C6257 1.385 . S
C6261 C6260 1.374 . S
C6262 C6259 1.499 . S
C6262 C6263 1.373 . S
C6262 C6264 1.389 1_545 S
C6263 H6242 0.950 . S
C6263 C6262 1.373 . S
C6263 C6279 1.377 . S
C6264 C6262 1.389 1_565 S
C6264 C6265 1.524 . S
C6264 C6278 1.377 . S
C6265 C6264 1.524 . S
C6265 C6266 1.397 . S
C6265 C6270 1.363 . S
C6266 H6243 0.950 1_565 S
C6266 C6265 1.397 . S
C6266 C6267 1.334 . S
C6267 H6244 0.950 . S
C6267 C6266 1.334 . S
C6267 C6268 1.287 . S
C6268 C6267 1.287 . S
C6268 C6269 1.524 . S
C6268 H6287 0.913 . S
C6269 H6245 0.950 . S
C6269 C6268 1.524 . S
C6269 C6270 1.415 . S
C6270 H6246 0.950 . S
C6270 C6265 1.363 . S
C6270 C6269 1.415 . S
C6271 H6247 0.951 . S
C6271 C6272 1.366 . S
C6271 C6273 1.388 1_455 S
C6272 C6271 1.366 . S
C6272 C6276 1.385 1_545 S
C6273 H6248 0.951 . S
C6273 C6271 1.388 1_655 S
C6273 C6274 1.366 . S
C6274 C6273 1.366 . S
C6274 C6275 1.414 1_545 S
C6274 C6277 1.499 . S
C6275 H6249 0.950 . S
C6275 C6274 1.414 1_565 S
C6275 C6276 1.374 1_655 S
C6276 H6250 0.950 . S
C6276 C6272 1.385 1_565 S
C6276 C6275 1.374 1_455 S
C6277 C6274 1.499 . S
C6277 C6278 1.373 1_545 S
C6277 C6279 1.389 . S
C6278 H6251 0.950 . S
C6278 C6264 1.377 . S
C6278 C6277 1.373 1_565 S
C6279 C6263 1.377 . S
C6279 C6277 1.389 . S
C6279 C6280 1.524 1_655 S
C6280 C6279 1.524 1_455 S
C6280 C6281 1.397 . S
C6280 C6285 1.363 . S
C6281 H6252 0.906 1_545 S
C6281 C6280 1.397 . S
C6281 C6282 1.334 . S
C6282 H6253 0.950 . S
C6282 C6281 1.334 . S
C6282 C6283 1.287 . S
C6283 C6282 1.287 . S
C6283 C6284 1.524 . S
C6283 H6286 0.999 . S
C6284 H6254 0.950 . S
C6284 C6283 1.524 . S
C6284 C6285 1.415 . S
C6285 H6255 0.950 1_455 S
C6285 C6280 1.363 . S
C6285 C6284 1.415 . S
H6286 C6283 0.999 . S
H6287 C6268 0.913 . S
H6288 C6306 0.951 . S
H6289 C6308 0.951 . S
H6290 C6310 0.950 . S
H6291 C6311 0.950 . S
H6292 C6313 0.950 . S
H6293 C6316 0.950 . S
H6294 C6317 0.950 . S
H6295 C6319 0.950 . S
H6296 C6320 0.950 . S
H6297 C6321 0.951 . S
H6298 C6323 0.951 . S
H6299 C6325 0.950 . S
H6300 C6326 0.950 . S
H6301 C6328 0.950 . S
H6302 C6331 0.950 . S
H6303 C6332 0.950 . S
H6304 C6334 0.950 . S
H6305 C6335 0.950 . S
C6306 H6288 0.951 . S
C6306 C6307 1.366 . S
C6306 C6308 1.388 . S
C6307 C6306 1.366 . S
C6307 C6311 1.385 . S
C6308 H6289 0.951 . S
C6308 C6306 1.388 . S
C6308 C6309 1.366 . S
C6309 C6308 1.366 . S
C6309 C6310 1.414 . S
C6309 C6312 1.499 . S
C6310 H6290 0.950 . S
C6310 C6309 1.414 . S
C6310 C6311 1.374 . S
C6311 H6291 0.950 . S
C6311 C6307 1.385 . S
C6311 C6310 1.374 . S
C6312 C6309 1.499 . S
C6312 C6313 1.373 . S
C6312 C6314 1.389 . S
C6313 H6292 0.950 . S
C6313 C6312 1.373 . S
C6313 C6329 1.377 . S
C6314 C6312 1.389 . S
C6314 C6315 1.524 . S
C6314 C6328 1.377 . S
C6315 C6314 1.524 . S
C6315 C6316 1.397 . S
C6315 C6320 1.363 . S
C6316 H6293 0.950 . S
C6316 C6315 1.397 . S
C6316 C6317 1.334 . S
C6317 H6294 0.950 . S
C6317 C6316 1.334 . S
C6317 C6318 1.287 . S
C6318 C6317 1.287 . S
C6318 C6319 1.524 . S
C6318 H6337 0.913 . S
C6319 H6295 0.950 . S
C6319 C6318 1.524 . S
C6319 C6320 1.415 . S
C6320 H6296 0.950 . S
C6320 C6315 1.363 . S
C6320 C6319 1.415 . S
C6321 H6297 0.951 . S
C6321 C6322 1.366 . S
C6321 C6323 1.388 . S
C6322 C6321 1.366 . S
C6322 C6326 1.385 . S
C6323 H6298 0.951 . S
C6323 C6321 1.388 . S
C6323 C6324 1.366 . S
C6324 C6323 1.366 . S
C6324 C6325 1.414 . S
C6324 C6327 1.499 . S
C6325 H6299 0.950 . S
C6325 C6324 1.414 . S
C6325 C6326 1.374 . S
C6326 H6300 0.950 . S
C6326 C6322 1.385 . S
C6326 C6325 1.374 . S
C6327 C6324 1.499 . S
C6327 C6328 1.373 . S
C6327 C6329 1.389 . S
C6328 H6301 0.950 . S
C6328 C6314 1.377 . S
C6328 C6327 1.373 . S
C6329 C6313 1.377 . S
C6329 C6327 1.389 . S
C6329 C6330 1.524 . S
C6330 C6329 1.524 . S
C6330 C6331 1.397 . S
C6330 C6335 1.363 . S
C6331 H6302 0.950 . S
C6331 C6330 1.397 . S
C6331 C6332 1.334 . S
C6332 H6303 0.950 . S
C6332 C6331 1.334 . S
C6332 C6333 1.287 . S
C6333 C6332 1.287 . S
C6333 C6334 1.524 . S
C6333 H6336 0.999 . S
C6334 H6304 0.950 . S
C6334 C6333 1.524 . S
C6334 C6335 1.415 . S
C6335 H6305 0.950 . S
C6335 C6330 1.363 . S
C6335 C6334 1.415 . S
H6336 C6333 0.999 . S
H6337 C6318 0.913 . S
H6338 C6356 0.951 . S
H6339 C6358 0.951 . S
H6340 C6360 0.950 . S
H6341 C6361 0.950 . S
H6342 C6363 0.950 . S
H6343 C6366 0.950 . S
H6344 C6367 0.950 . S
H6345 C6369 0.950 . S
H6346 C6370 0.950 . S
H6347 C6371 0.951 . S
H6348 C6373 0.951 . S
H6349 C6375 0.950 . S
H6350 C6376 0.950 . S
H6351 C6378 0.950 . S
H6352 C6381 0.950 . S
H6353 C6382 0.950 . S
H6354 C6384 0.950 . S
H6355 C6385 0.950 . S
C6356 H6338 0.951 . S
C6356 C6357 1.366 . S
C6356 C6358 1.388 . S
C6357 C6356 1.366 . S
C6357 C6361 1.385 . S
C6358 H6339 0.951 . S
C6358 C6356 1.388 . S
C6358 C6359 1.366 . S
C6359 C6358 1.366 . S
C6359 C6360 1.414 . S
C6359 C6362 1.499 . S
C6360 H6340 0.950 . S
C6360 C6359 1.414 . S
C6360 C6361 1.374 . S
C6361 H6341 0.950 . S
C6361 C6357 1.385 . S
C6361 C6360 1.374 . S
C6362 C6359 1.499 . S
C6362 C6363 1.373 . S
C6362 C6364 1.389 . S
C6363 H6342 0.950 . S
C6363 C6362 1.373 . S
C6363 C6379 1.377 . S
C6364 C6362 1.389 . S
C6364 C6365 1.524 . S
C6364 C6378 1.377 . S
C6365 C6364 1.524 . S
C6365 C6366 1.397 . S
C6365 C6370 1.363 . S
C6366 H6343 0.950 . S
C6366 C6365 1.397 . S
C6366 C6367 1.334 . S
C6367 H6344 0.950 . S
C6367 C6366 1.334 . S
C6367 C6368 1.287 . S
C6368 C6367 1.287 . S
C6368 C6369 1.524 . S
C6368 H6387 0.913 . S
C6369 H6345 0.950 . S
C6369 C6368 1.524 . S
C6369 C6370 1.415 . S
C6370 H6346 0.950 . S
C6370 C6365 1.363 . S
C6370 C6369 1.415 . S
C6371 H6347 0.951 . S
C6371 C6372 1.366 . S
C6371 C6373 1.388 . S
C6372 C6371 1.366 . S
C6372 C6376 1.385 1_655 S
C6373 H6348 0.951 . S
C6373 C6371 1.388 . S
C6373 C6374 1.366 1_655 S
C6374 C6373 1.366 1_455 S
C6374 C6375 1.414 . S
C6374 C6377 1.499 . S
C6375 H6349 0.950 . S
C6375 C6374 1.414 . S
C6375 C6376 1.374 . S
C6376 H6350 0.950 . S
C6376 C6372 1.385 1_455 S
C6376 C6375 1.374 . S
C6377 C6374 1.499 . S
C6377 C6378 1.373 . S
C6377 C6379 1.389 . S
C6378 H6351 0.950 . S
C6378 C6364 1.377 . S
C6378 C6377 1.373 . S
C6379 C6363 1.377 . S
C6379 C6377 1.389 . S
C6379 C6380 1.524 . S
C6380 C6379 1.524 . S
C6380 C6381 1.397 . S
C6380 C6385 1.363 . S
C6381 H6352 0.950 . S
C6381 C6380 1.397 . S
C6381 C6382 1.334 . S
C6382 H6353 0.950 . S
C6382 C6381 1.334 . S
C6382 C6383 1.287 . S
C6383 C6382 1.287 . S
C6383 C6384 1.524 . S
C6383 H6386 0.999 . S
C6384 H6354 0.950 . S
C6384 C6383 1.524 . S
C6384 C6385 1.415 . S
C6385 H6355 0.950 . S
C6385 C6380 1.363 . S
C6385 C6384 1.415 . S
H6386 C6383 0.999 . S
H6387 C6368 0.913 . S
H6388 C6406 0.951 . S
H6389 C6408 0.951 . S
H6390 C6410 0.950 . S
H6391 C6411 0.950 . S
H6392 C6413 0.950 . S
H6393 C6416 0.950 . S
H6394 C6417 0.950 . S
H6395 C6419 0.950 . S
H6396 C6420 0.950 . S
H6397 C6421 0.951 . S
H6398 C6423 0.951 . S
H6399 C6425 0.950 . S
H6400 C6426 0.950 . S
H6401 C6428 0.950 . S
H6402 C6431 0.950 . S
H6403 C6432 0.950 . S
H6404 C6434 0.950 . S
H6405 C6435 0.950 . S
C6406 H6388 0.951 . S
C6406 C6407 1.366 . S
C6406 C6408 1.388 . S
C6407 C6406 1.366 . S
C6407 C6411 1.385 . S
C6408 H6389 0.951 . S
C6408 C6406 1.388 . S
C6408 C6409 1.366 . S
C6409 C6408 1.366 . S
C6409 C6410 1.414 . S
C6409 C6412 1.499 . S
C6410 H6390 0.950 . S
C6410 C6409 1.414 . S
C6410 C6411 1.374 . S
C6411 H6391 0.950 . S
C6411 C6407 1.385 . S
C6411 C6410 1.374 . S
C6412 C6409 1.499 . S
C6412 C6413 1.373 . S
C6412 C6414 1.389 . S
C6413 H6392 0.950 . S
C6413 C6412 1.373 . S
C6413 C6429 1.377 . S
C6414 C6412 1.389 . S
C6414 C6415 1.524 . S
C6414 C6428 1.377 . S
C6415 C6414 1.524 . S
C6415 C6416 1.397 . S
C6415 C6420 1.363 . S
C6416 H6393 0.950 . S
C6416 C6415 1.397 . S
C6416 C6417 1.334 . S
C6417 H6394 0.950 . S
C6417 C6416 1.334 . S
C6417 C6418 1.287 . S
C6418 C6417 1.287 . S
C6418 C6419 1.524 . S
C6418 H6437 0.913 . S
C6419 H6395 0.950 . S
C6419 C6418 1.524 . S
C6419 C6420 1.415 . S
C6420 H6396 0.950 . S
C6420 C6415 1.363 . S
C6420 C6419 1.415 . S
C6421 H6397 0.951 . S
C6421 C6422 1.366 . S
C6421 C6423 1.388 . S
C6422 C6421 1.366 . S
C6422 C6426 1.385 . S
C6423 H6398 0.951 . S
C6423 C6421 1.388 . S
C6423 C6424 1.366 . S
C6424 C6423 1.366 . S
C6424 C6425 1.414 . S
C6424 C6427 1.499 . S
C6425 H6399 0.950 . S
C6425 C6424 1.414 . S
C6425 C6426 1.374 . S
C6426 H6400 0.950 . S
C6426 C6422 1.385 . S
C6426 C6425 1.374 . S
C6427 C6424 1.499 . S
C6427 C6428 1.373 . S
C6427 C6429 1.389 . S
C6428 H6401 0.950 . S
C6428 C6414 1.377 . S
C6428 C6427 1.373 . S
C6429 C6413 1.377 . S
C6429 C6427 1.389 . S
C6429 C6430 1.524 . S
C6430 C6429 1.524 . S
C6430 C6431 1.397 . S
C6430 C6435 1.363 . S
C6431 H6402 0.950 . S
C6431 C6430 1.397 . S
C6431 C6432 1.334 . S
C6432 H6403 0.950 . S
C6432 C6431 1.334 . S
C6432 C6433 1.287 . S
C6433 C6432 1.287 . S
C6433 C6434 1.524 . S
C6433 H6436 0.999 . S
C6434 H6404 0.950 . S
C6434 C6433 1.524 . S
C6434 C6435 1.415 . S
C6435 H6405 0.950 . S
C6435 C6430 1.363 . S
C6435 C6434 1.415 . S
H6436 C6433 0.999 . S
H6437 C6418 0.913 . S
H6438 C6456 0.951 . S
H6439 C6458 0.951 . S
H6440 C6460 0.950 . S
H6441 C6461 0.950 . S
H6442 C6463 0.950 . S
H6443 C6466 0.950 . S
H6444 C6467 0.950 . S
H6445 C6469 0.950 . S
H6446 C6470 0.950 . S
H6447 C6471 0.951 . S
H6448 C6473 0.951 . S
H6449 C6475 0.950 . S
H6450 C6476 0.950 . S
H6451 C6478 0.950 1_655 S
H6452 C6481 0.950 . S
H6453 C6482 0.950 . S
H6454 C6484 0.950 . S
H6455 C6485 0.950 . S
C6456 H6438 0.951 . S
C6456 C6457 1.366 . S
C6456 C6458 1.388 . S
C6457 C6456 1.366 . S
C6457 C6461 1.385 . S
C6458 H6439 0.951 . S
C6458 C6456 1.388 . S
C6458 C6459 1.366 . S
C6459 C6458 1.366 . S
C6459 C6460 1.414 . S
C6459 C6462 1.499 . S
C6460 H6440 0.950 . S
C6460 C6459 1.414 . S
C6460 C6461 1.374 . S
C6461 H6441 0.950 . S
C6461 C6457 1.385 . S
C6461 C6460 1.374 . S
C6462 C6459 1.499 . S
C6462 C6463 1.373 . S
C6462 C6464 1.389 . S
C6463 H6442 0.950 . S
C6463 C6462 1.373 . S
C6463 C6479 1.377 . S
C6464 C6462 1.389 . S
C6464 C6465 1.524 . S
C6464 C6478 1.377 . S
C6465 C6464 1.524 . S
C6465 C6466 1.397 . S
C6465 C6470 1.363 1_455 S
C6466 H6443 0.950 . S
C6466 C6465 1.397 . S
C6466 C6467 1.334 . S
C6467 H6444 0.950 . S
C6467 C6466 1.334 . S
C6467 C6468 1.287 1_455 S
C6468 C6467 1.287 1_655 S
C6468 C6469 1.524 . S
C6468 H6487 0.913 . S
C6469 H6445 0.950 . S
C6469 C6468 1.524 . S
C6469 C6470 1.415 . S
C6470 H6446 0.950 . S
C6470 C6465 1.363 1_655 S
C6470 C6469 1.415 . S
C6471 H6447 0.951 . S
C6471 C6472 1.366 1_455 S
C6471 C6473 1.388 . S
C6472 C6471 1.366 1_655 S
C6472 C6476 1.385 . S
C6473 H6448 0.951 . S
C6473 C6471 1.388 . S
C6473 C6474 1.366 . S
C6474 C6473 1.366 . S
C6474 C6475 1.414 1_455 S
C6474 C6477 1.499 . S
C6475 H6449 0.950 . S
C6475 C6474 1.414 1_655 S
C6475 C6476 1.374 . S
C6476 H6450 0.950 . S
C6476 C6472 1.385 . S
C6476 C6475 1.374 . S
C6477 C6474 1.499 . S
C6477 C6478 1.373 . S
C6477 C6479 1.389 . S
C6478 H6451 0.950 1_455 S
C6478 C6464 1.377 . S
C6478 C6477 1.373 . S
C6479 C6463 1.377 . S
C6479 C6477 1.389 . S
C6479 C6480 1.524 . S
C6480 C6479 1.524 . S
C6480 C6481 1.397 . S
C6480 C6485 1.363 . S
C6481 H6452 0.950 . S
C6481 C6480 1.397 . S
C6481 C6482 1.334 . S
C6482 H6453 0.950 . S
C6482 C6481 1.334 . S
C6482 C6483 1.287 . S
C6483 C6482 1.287 . S
C6483 C6484 1.524 . S
C6483 H6486 0.999 . S
C6484 H6454 0.950 . S
C6484 C6483 1.524 . S
C6484 C6485 1.415 . S
C6485 H6455 0.950 . S
C6485 C6480 1.363 . S
C6485 C6484 1.415 . S
H6486 C6483 0.999 . S
H6487 C6468 0.913 . S
H6488 C6506 0.951 . S
H6489 C6508 0.951 . S
H6490 C6510 0.950 . S
H6491 C6511 0.950 . S
H6492 C6513 0.950 . S
H6493 C6516 0.950 . S
H6494 C6517 0.950 . S
H6495 C6519 0.950 . S
H6496 C6520 0.950 . S
H6497 C6521 0.951 . S
H6498 C6523 0.951 . S
H6499 C6525 0.950 . S
H6500 C6526 0.950 . S
H6501 C6528 0.950 . S
H6502 C6531 0.950 . S
H6503 C6532 0.950 . S
H6504 C6534 0.950 . S
H6505 C6535 0.950 . S
C6506 H6488 0.951 . S
C6506 C6507 1.366 . S
C6506 C6508 1.388 . S
C6507 C6506 1.366 . S
C6507 C6511 1.385 . S
C6508 H6489 0.951 . S
C6508 C6506 1.388 . S
C6508 C6509 1.366 . S
C6509 C6508 1.366 . S
C6509 C6510 1.414 . S
C6509 C6512 1.499 . S
C6510 H6490 0.950 . S
C6510 C6509 1.414 . S
C6510 C6511 1.374 . S
C6511 H6491 0.950 . S
C6511 C6507 1.385 . S
C6511 C6510 1.374 . S
C6512 C6509 1.499 . S
C6512 C6513 1.373 . S
C6512 C6514 1.389 . S
C6513 H6492 0.950 . S
C6513 C6512 1.373 . S
C6513 C6529 1.377 . S
C6514 C6512 1.389 . S
C6514 C6515 1.524 . S
C6514 C6528 1.377 . S
C6515 C6514 1.524 . S
C6515 C6516 1.397 . S
C6515 C6520 1.363 . S
C6516 H6493 0.950 . S
C6516 C6515 1.397 . S
C6516 C6517 1.334 . S
C6517 H6494 0.950 . S
C6517 C6516 1.334 . S
C6517 C6518 1.287 . S
C6518 C6517 1.287 . S
C6518 C6519 1.524 . S
C6518 H6537 0.913 . S
C6519 H6495 0.950 . S
C6519 C6518 1.524 . S
C6519 C6520 1.415 . S
C6520 H6496 0.950 . S
C6520 C6515 1.363 . S
C6520 C6519 1.415 . S
C6521 H6497 0.951 . S
C6521 C6522 1.366 . S
C6521 C6523 1.388 . S
C6522 C6521 1.366 . S
C6522 C6526 1.385 . S
C6523 H6498 0.951 . S
C6523 C6521 1.388 . S
C6523 C6524 1.366 . S
C6524 C6523 1.366 . S
C6524 C6525 1.414 . S
C6524 C6527 1.499 . S
C6525 H6499 0.950 . S
C6525 C6524 1.414 . S
C6525 C6526 1.374 . S
C6526 H6500 0.950 . S
C6526 C6522 1.385 . S
C6526 C6525 1.374 . S
C6527 C6524 1.499 . S
C6527 C6528 1.373 . S
C6527 C6529 1.389 . S
C6528 H6501 0.950 . S
C6528 C6514 1.377 . S
C6528 C6527 1.373 . S
C6529 C6513 1.377 . S
C6529 C6527 1.389 . S
C6529 C6530 1.524 . S
C6530 C6529 1.524 . S
C6530 C6531 1.397 . S
C6530 C6535 1.363 . S
C6531 H6502 0.950 . S
C6531 C6530 1.397 . S
C6531 C6532 1.334 . S
C6532 H6503 0.950 . S
C6532 C6531 1.334 . S
C6532 C6533 1.287 . S
C6533 C6532 1.287 . S
C6533 C6534 1.524 . S
C6533 H6536 0.999 . S
C6534 H6504 0.950 . S
C6534 C6533 1.524 . S
C6534 C6535 1.415 . S
C6535 H6505 0.950 . S
C6535 C6530 1.363 . S
C6535 C6534 1.415 . S
H6536 C6533 0.999 . S
H6537 C6518 0.913 . S
H6538 C6556 0.951 . S
H6539 C6558 0.951 . S
H6540 C6560 0.950 . S
H6541 C6561 0.950 . S
H6542 C6563 0.950 . S
H6543 C6566 0.950 . S
H6544 C6567 0.950 . S
H6545 C6569 0.950 . S
H6546 C6570 0.950 . S
H6547 C6571 0.951 . S
H6548 C6573 0.951 . S
H6549 C6575 0.950 . S
H6550 C6576 0.950 . S
H6551 C6578 0.950 . S
H6552 C6581 0.950 . S
H6553 C6582 0.950 . S
H6554 C6584 0.950 . S
H6555 C6585 0.950 . S
C6556 H6538 0.951 . S
C6556 C6557 1.366 . S
C6556 C6558 1.388 1_455 S
C6557 C6556 1.366 . S
C6557 C6561 1.385 . S
C6558 H6539 0.951 . S
C6558 C6556 1.388 1_655 S
C6558 C6559 1.366 . S
C6559 C6558 1.366 . S
C6559 C6560 1.414 . S
C6559 C6562 1.499 . S
C6560 H6540 0.950 . S
C6560 C6559 1.414 . S
C6560 C6561 1.374 1_655 S
C6561 H6541 0.950 . S
C6561 C6557 1.385 . S
C6561 C6560 1.374 1_455 S
C6562 C6559 1.499 . S
C6562 C6563 1.373 . S
C6562 C6564 1.389 . S
C6563 H6542 0.950 . S
C6563 C6562 1.373 . S
C6563 C6579 1.377 . S
C6564 C6562 1.389 . S
C6564 C6565 1.524 . S
C6564 C6578 1.377 . S
C6565 C6564 1.524 . S
C6565 C6566 1.397 . S
C6565 C6570 1.363 . S
C6566 H6543 0.950 . S
C6566 C6565 1.397 . S
C6566 C6567 1.334 . S
C6567 H6544 0.950 . S
C6567 C6566 1.334 . S
C6567 C6568 1.287 . S
C6568 C6567 1.287 . S
C6568 C6569 1.524 . S
C6568 H6587 0.913 . S
C6569 H6545 0.950 . S
C6569 C6568 1.524 . S
C6569 C6570 1.415 . S
C6570 H6546 0.950 . S
C6570 C6565 1.363 . S
C6570 C6569 1.415 . S
C6571 H6547 0.951 . S
C6571 C6572 1.366 . S
C6571 C6573 1.388 . S
C6572 C6571 1.366 . S
C6572 C6576 1.385 . S
C6573 H6548 0.951 . S
C6573 C6571 1.388 . S
C6573 C6574 1.366 . S
C6574 C6573 1.366 . S
C6574 C6575 1.414 . S
C6574 C6577 1.499 . S
C6575 H6549 0.950 . S
C6575 C6574 1.414 . S
C6575 C6576 1.374 . S
C6576 H6550 0.950 . S
C6576 C6572 1.385 . S
C6576 C6575 1.374 . S
C6577 C6574 1.499 . S
C6577 C6578 1.373 . S
C6577 C6579 1.389 . S
C6578 H6551 0.950 . S
C6578 C6564 1.377 . S
C6578 C6577 1.373 . S
C6579 C6563 1.377 . S
C6579 C6577 1.389 . S
C6579 C6580 1.524 . S
C6580 C6579 1.524 . S
C6580 C6581 1.397 . S
C6580 C6585 1.363 . S
C6581 H6552 0.950 . S
C6581 C6580 1.397 . S
C6581 C6582 1.334 . S
C6582 H6553 0.950 . S
C6582 C6581 1.334 . S
C6582 C6583 1.287 . S
C6583 C6582 1.287 . S
C6583 C6584 1.524 . S
C6583 H6586 0.999 . S
C6584 H6554 0.950 . S
C6584 C6583 1.524 . S
C6584 C6585 1.415 . S
C6585 H6555 0.950 . S
C6585 C6580 1.363 . S
C6585 C6584 1.415 . S
H6586 C6583 0.999 . S
H6587 C6568 0.913 . S
H6588 C6606 0.951 . S
H6589 C6608 0.951 . S
H6590 C6610 0.950 . S
H6591 C6611 0.950 . S
H6592 C6613 0.950 . S
H6593 C6616 0.950 . S
H6594 C6617 0.950 . S
H6595 C6619 0.950 . S
H6596 C6620 0.950 . S
H6597 C6621 0.951 . S
H6598 C6623 0.951 . S
H6599 C6625 0.950 . S
H6600 C6626 0.950 . S
H6601 C6628 0.950 . S
H6602 C6631 0.950 . S
H6603 C6632 0.950 . S
H6604 C6634 0.950 . S
H6605 C6635 0.950 . S
C6606 H6588 0.951 . S
C6606 C6607 1.366 . S
C6606 C6608 1.388 . S
C6607 C6606 1.366 . S
C6607 C6611 1.385 . S
C6608 H6589 0.951 . S
C6608 C6606 1.388 . S
C6608 C6609 1.366 . S
C6609 C6608 1.366 . S
C6609 C6610 1.414 . S
C6609 C6612 1.499 . S
C6610 H6590 0.950 . S
C6610 C6609 1.414 . S
C6610 C6611 1.374 . S
C6611 H6591 0.950 . S
C6611 C6607 1.385 . S
C6611 C6610 1.374 . S
C6612 C6609 1.499 . S
C6612 C6613 1.373 . S
C6612 C6614 1.389 . S
C6613 H6592 0.950 . S
C6613 C6612 1.373 . S
C6613 C6629 1.377 . S
C6614 C6612 1.389 . S
C6614 C6615 1.524 . S
C6614 C6628 1.377 . S
C6615 C6614 1.524 . S
C6615 C6616 1.397 . S
C6615 C6620 1.363 . S
C6616 H6593 0.950 . S
C6616 C6615 1.397 . S
C6616 C6617 1.334 . S
C6617 H6594 0.950 . S
C6617 C6616 1.334 . S
C6617 C6618 1.287 . S
C6618 C6617 1.287 . S
C6618 C6619 1.524 . S
C6618 H6637 0.913 . S
C6619 H6595 0.950 . S
C6619 C6618 1.524 . S
C6619 C6620 1.415 . S
C6620 H6596 0.950 . S
C6620 C6615 1.363 . S
C6620 C6619 1.415 . S
C6621 H6597 0.951 . S
C6621 C6622 1.366 . S
C6621 C6623 1.388 . S
C6622 C6621 1.366 . S
C6622 C6626 1.385 . S
C6623 H6598 0.951 . S
C6623 C6621 1.388 . S
C6623 C6624 1.366 . S
C6624 C6623 1.366 . S
C6624 C6625 1.414 . S
C6624 C6627 1.499 . S
C6625 H6599 0.950 . S
C6625 C6624 1.414 . S
C6625 C6626 1.374 . S
C6626 H6600 0.950 . S
C6626 C6622 1.385 . S
C6626 C6625 1.374 . S
C6627 C6624 1.499 . S
C6627 C6628 1.373 . S
C6627 C6629 1.389 . S
C6628 H6601 0.950 . S
C6628 C6614 1.377 . S
C6628 C6627 1.373 . S
C6629 C6613 1.377 . S
C6629 C6627 1.389 . S
C6629 C6630 1.524 . S
C6630 C6629 1.524 . S
C6630 C6631 1.397 . S
C6630 C6635 1.363 . S
C6631 H6602 0.950 . S
C6631 C6630 1.397 . S
C6631 C6632 1.334 . S
C6632 H6603 0.950 . S
C6632 C6631 1.334 . S
C6632 C6633 1.287 . S
C6633 C6632 1.287 . S
C6633 C6634 1.524 . S
C6633 H6636 0.999 . S
C6634 H6604 0.950 . S
C6634 C6633 1.524 . S
C6634 C6635 1.415 . S
C6635 H6605 0.950 . S
C6635 C6630 1.363 . S
C6635 C6634 1.415 . S
H6636 C6633 0.999 . S
H6637 C6618 0.913 . S
H6638 C6656 0.951 . S
H6639 C6658 0.951 . S
H6640 C6660 0.950 . S
H6641 C6661 0.950 . S
H6642 C6663 0.950 . S
H6643 C6666 0.950 . S
H6644 C6667 0.950 . S
H6645 C6669 0.950 . S
H6646 C6670 0.950 . S
H6647 C6671 0.951 . S
H6648 C6673 0.951 . S
H6649 C6675 0.950 . S
H6650 C6676 0.950 . S
H6651 C6678 0.950 . S
H6652 C6681 0.950 . S
H6653 C6682 0.950 . S
H6654 C6684 0.950 . S
H6655 C6685 0.950 . S
C6656 H6638 0.951 . S
C6656 C6657 1.366 . S
C6656 C6658 1.388 . S
C6657 C6656 1.366 . S
C6657 C6661 1.385 . S
C6658 H6639 0.951 . S
C6658 C6656 1.388 . S
C6658 C6659 1.366 . S
C6659 C6658 1.366 . S
C6659 C6660 1.414 . S
C6659 C6662 1.499 . S
C6660 H6640 0.950 . S
C6660 C6659 1.414 . S
C6660 C6661 1.374 . S
C6661 H6641 0.950 . S
C6661 C6657 1.385 . S
C6661 C6660 1.374 . S
C6662 C6659 1.499 . S
C6662 C6663 1.373 . S
C6662 C6664 1.389 . S
C6663 H6642 0.950 . S
C6663 C6662 1.373 . S
C6663 C6679 1.377 . S
C6664 C6662 1.389 . S
C6664 C6665 1.524 . S
C6664 C6678 1.377 . S
C6665 C6664 1.524 . S
C6665 C6666 1.397 . S
C6665 C6670 1.363 . S
C6666 H6643 0.950 . S
C6666 C6665 1.397 . S
C6666 C6667 1.334 . S
C6667 H6644 0.950 . S
C6667 C6666 1.334 . S
C6667 C6668 1.287 . S
C6668 C6667 1.287 . S
C6668 C6669 1.524 . S
C6668 H6687 0.913 . S
C6669 H6645 0.950 . S
C6669 C6668 1.524 . S
C6669 C6670 1.415 . S
C6670 H6646 0.950 . S
C6670 C6665 1.363 . S
C6670 C6669 1.415 . S
C6671 H6647 0.951 . S
C6671 C6672 1.365 1_655 S
C6671 C6673 1.388 . S
C6672 C6671 1.365 1_455 S
C6672 C6676 1.385 . S
C6673 H6648 0.951 . S
C6673 C6671 1.388 . S
C6673 C6674 1.366 . S
C6674 C6673 1.366 . S
C6674 C6675 1.414 1_655 S
C6674 C6677 1.499 . S
C6675 H6649 0.950 . S
C6675 C6674 1.414 1_455 S
C6675 C6676 1.374 . S
C6676 H6650 0.950 . S
C6676 C6672 1.385 . S
C6676 C6675 1.374 . S
C6677 C6674 1.499 . S
C6677 C6678 1.373 . S
C6677 C6679 1.389 . S
C6678 H6651 0.950 . S
C6678 C6664 1.377 . S
C6678 C6677 1.373 . S
C6679 C6663 1.377 . S
C6679 C6677 1.389 . S
C6679 C6680 1.524 . S
C6680 C6679 1.524 . S
C6680 C6681 1.397 1_655 S
C6680 C6685 1.363 . S
C6681 H6652 0.950 . S
C6681 C6680 1.397 1_455 S
C6681 C6682 1.334 . S
C6682 H6653 0.950 . S
C6682 C6681 1.334 . S
C6682 C6683 1.287 . S
C6683 C6682 1.287 . S
C6683 C6684 1.524 1_455 S
C6683 H6686 0.999 . S
C6684 H6654 0.950 . S
C6684 C6683 1.524 1_655 S
C6684 C6685 1.415 . S
C6685 H6655 0.950 . S
C6685 C6680 1.363 . S
C6685 C6684 1.415 . S
H6686 C6683 0.999 . S
H6687 C6668 0.913 . S
H6688 C6706 0.951 . S
H6689 C6708 0.951 . S
H6690 C6710 0.957 . S
H6691 C6711 0.955 . S
H6692 C6713 0.950 . S
H6693 C6716 0.950 . S
H6694 C6717 0.950 . S
H6695 C6719 0.950 . S
H6696 C6720 0.950 . S
H6697 C6721 0.954 . S
H6698 C6723 0.951 1_545 S
H6699 C6725 0.950 . S
H6700 C6726 0.950 . S
H6701 C6728 0.950 . S
H6702 C6731 0.950 . S
H6703 C6732 0.950 . S
H6704 C6734 0.950 . S
H6705 C6735 0.950 . S
C6706 H6688 0.951 . S
C6706 C6707 1.366 . S
C6706 C6708 1.388 . S
C6707 C6706 1.366 . S
C6707 C6711 1.385 . S
C6708 H6689 0.951 . S
C6708 C6706 1.388 . S
C6708 C6709 1.366 . S
C6709 C6708 1.366 . S
C6709 C6710 1.414 . S
C6709 C6712 1.499 . S
C6710 H6690 0.957 . S
C6710 C6709 1.414 . S
C6710 C6711 1.374 . S
C6711 H6691 0.955 . S
C6711 C6707 1.385 . S
C6711 C6710 1.374 . S
C6712 C6709 1.499 . S
C6712 C6713 1.373 1_565 S
C6712 C6714 1.389 . S
C6713 H6692 0.950 . S
C6713 C6712 1.373 1_545 S
C6713 C6729 1.377 . S
C6714 C6712 1.389 . S
C6714 C6715 1.524 . S
C6714 C6728 1.377 . S
C6715 C6714 1.524 . S
C6715 C6716 1.397 . S
C6715 C6720 1.363 . S
C6716 H6693 0.950 . S
C6716 C6715 1.397 . S
C6716 C6717 1.334 . S
C6717 H6694 0.950 . S
C6717 C6716 1.334 . S
C6717 C6718 1.287 . S
C6718 C6717 1.287 . S
C6718 C6719 1.524 . S
C6718 H6737 0.913 . S
C6719 H6695 0.950 . S
C6719 C6718 1.524 . S
C6719 C6720 1.415 . S
C6720 H6696 0.950 . S
C6720 C6715 1.363 . S
C6720 C6719 1.415 . S
C6721 H6697 0.954 . S
C6721 C6722 1.366 . S
C6721 C6723 1.388 . S
C6722 C6721 1.366 . S
C6722 C6726 1.385 . S
C6723 H6698 0.951 1_565 S
C6723 C6721 1.388 . S
C6723 C6724 1.366 . S
C6724 C6723 1.366 . S
C6724 C6725 1.414 . S
C6724 C6727 1.499 . S
C6725 H6699 0.950 . S
C6725 C6724 1.414 . S
C6725 C6726 1.374 . S
C6726 H6700 0.950 . S
C6726 C6722 1.385 . S
C6726 C6725 1.374 . S
C6727 C6724 1.499 . S
C6727 C6728 1.373 . S
C6727 C6729 1.389 1_565 S
C6728 H6701 0.950 . S
C6728 C6714 1.377 . S
C6728 C6727 1.373 . S
C6729 C6713 1.377 . S
C6729 C6727 1.389 1_545 S
C6729 C6730 1.524 . S
C6730 C6729 1.524 . S
C6730 C6731 1.397 . S
C6730 C6735 1.363 . S
C6731 H6702 0.950 . S
C6731 C6730 1.397 . S
C6731 C6732 1.334 . S
C6732 H6703 0.950 . S
C6732 C6731 1.334 . S
C6732 C6733 1.287 . S
C6733 C6732 1.287 . S
C6733 C6734 1.524 . S
C6733 H6736 0.999 . S
C6734 H6704 0.950 . S
C6734 C6733 1.524 . S
C6734 C6735 1.415 . S
C6735 H6705 0.950 . S
C6735 C6730 1.363 . S
C6735 C6734 1.415 . S
H6736 C6733 0.999 . S
H6737 C6718 0.913 . S
H6738 C6756 0.951 . S
H6739 C6758 0.951 . S
H6740 C6760 0.950 . S
H6741 C6761 0.950 . S
H6742 C6763 0.950 . S
H6743 C6766 0.950 . S
H6744 C6767 0.950 . S
H6745 C6769 0.950 . S
H6746 C6770 0.950 . S
H6747 C6771 0.951 . S
H6748 C6773 0.951 . S
H6749 C6775 0.950 . S
H6750 C6776 0.950 . S
H6751 C6778 0.950 . S
H6752 C6781 0.950 . S
H6753 C6782 0.950 . S
H6754 C6784 0.950 . S
H6755 C6785 0.950 . S
C6756 H6738 0.951 . S
C6756 C6757 1.366 . S
C6756 C6758 1.388 . S
C6757 C6756 1.366 . S
C6757 C6761 1.385 . S
C6758 H6739 0.951 . S
C6758 C6756 1.388 . S
C6758 C6759 1.366 . S
C6759 C6758 1.366 . S
C6759 C6760 1.414 . S
C6759 C6762 1.499 . S
C6760 H6740 0.950 . S
C6760 C6759 1.414 . S
C6760 C6761 1.374 . S
C6761 H6741 0.950 . S
C6761 C6757 1.385 . S
C6761 C6760 1.374 . S
C6762 C6759 1.499 . S
C6762 C6763 1.373 . S
C6762 C6764 1.389 . S
C6763 H6742 0.950 . S
C6763 C6762 1.373 . S
C6763 C6779 1.377 . S
C6764 C6762 1.389 . S
C6764 C6765 1.524 . S
C6764 C6778 1.377 . S
C6765 C6764 1.524 . S
C6765 C6766 1.397 . S
C6765 C6770 1.363 . S
C6766 H6743 0.950 . S
C6766 C6765 1.397 . S
C6766 C6767 1.334 . S
C6767 H6744 0.950 . S
C6767 C6766 1.334 . S
C6767 C6768 1.287 . S
C6768 C6767 1.287 . S
C6768 C6769 1.524 . S
C6768 H6787 0.913 . S
C6769 H6745 0.950 . S
C6769 C6768 1.524 . S
C6769 C6770 1.415 . S
C6770 H6746 0.950 . S
C6770 C6765 1.363 . S
C6770 C6769 1.415 . S
C6771 H6747 0.951 . S
C6771 C6772 1.366 . S
C6771 C6773 1.388 . S
C6772 C6771 1.366 . S
C6772 C6776 1.385 . S
C6773 H6748 0.951 . S
C6773 C6771 1.388 . S
C6773 C6774 1.366 . S
C6774 C6773 1.366 . S
C6774 C6775 1.414 . S
C6774 C6777 1.499 . S
C6775 H6749 0.950 . S
C6775 C6774 1.414 . S
C6775 C6776 1.374 . S
C6776 H6750 0.950 . S
C6776 C6772 1.385 . S
C6776 C6775 1.374 . S
C6777 C6774 1.499 . S
C6777 C6778 1.373 . S
C6777 C6779 1.389 . S
C6778 H6751 0.950 . S
C6778 C6764 1.377 . S
C6778 C6777 1.373 . S
C6779 C6763 1.377 . S
C6779 C6777 1.389 . S
C6779 C6780 1.524 . S
C6780 C6779 1.524 . S
C6780 C6781 1.397 . S
C6780 C6785 1.363 . S
C6781 H6752 0.950 . S
C6781 C6780 1.397 . S
C6781 C6782 1.334 . S
C6782 H6753 0.950 . S
C6782 C6781 1.334 . S
C6782 C6783 1.287 . S
C6783 C6782 1.287 . S
C6783 C6784 1.524 . S
C6783 H6786 0.999 . S
C6784 H6754 0.950 . S
C6784 C6783 1.524 . S
C6784 C6785 1.415 . S
C6785 H6755 0.950 . S
C6785 C6780 1.363 . S
C6785 C6784 1.415 . S
H6786 C6783 0.999 . S
H6787 C6768 0.913 . S
H6788 C6806 0.951 . S
H6789 C6808 0.951 . S
H6790 C6810 0.950 . S
H6791 C6811 0.950 . S
H6792 C6813 0.950 . S
H6793 C6816 0.950 . S
H6794 C6817 0.950 . S
H6795 C6819 0.950 . S
H6796 C6820 0.950 . S
H6797 C6821 0.951 . S
H6798 C6823 0.951 . S
H6799 C6825 0.950 . S
H6800 C6826 0.950 . S
H6801 C6828 0.950 . S
H6802 C6831 0.950 . S
H6803 C6832 0.950 . S
H6804 C6834 0.950 . S
H6805 C6835 0.950 . S
C6806 H6788 0.951 . S
C6806 C6807 1.366 . S
C6806 C6808 1.388 . S
C6807 C6806 1.366 . S
C6807 C6811 1.385 . S
C6808 H6789 0.951 . S
C6808 C6806 1.388 . S
C6808 C6809 1.366 . S
C6809 C6808 1.366 . S
C6809 C6810 1.414 . S
C6809 C6812 1.499 . S
C6810 H6790 0.950 . S
C6810 C6809 1.414 . S
C6810 C6811 1.374 . S
C6811 H6791 0.950 . S
C6811 C6807 1.385 . S
C6811 C6810 1.374 . S
C6812 C6809 1.499 . S
C6812 C6813 1.373 . S
C6812 C6814 1.389 . S
C6813 H6792 0.950 . S
C6813 C6812 1.373 . S
C6813 C6829 1.377 . S
C6814 C6812 1.389 . S
C6814 C6815 1.524 . S
C6814 C6828 1.377 . S
C6815 C6814 1.524 . S
C6815 C6816 1.397 . S
C6815 C6820 1.363 . S
C6816 H6793 0.950 . S
C6816 C6815 1.397 . S
C6816 C6817 1.334 . S
C6817 H6794 0.950 . S
C6817 C6816 1.334 . S
C6817 C6818 1.287 . S
C6818 C6817 1.287 . S
C6818 C6819 1.524 . S
C6818 H6837 0.913 . S
C6819 H6795 0.950 . S
C6819 C6818 1.524 . S
C6819 C6820 1.415 . S
C6820 H6796 0.950 . S
C6820 C6815 1.363 . S
C6820 C6819 1.415 . S
C6821 H6797 0.951 . S
C6821 C6822 1.366 . S
C6821 C6823 1.388 . S
C6822 C6821 1.366 . S
C6822 C6826 1.385 . S
C6823 H6798 0.951 . S
C6823 C6821 1.388 . S
C6823 C6824 1.366 . S
C6824 C6823 1.366 . S
C6824 C6825 1.414 . S
C6824 C6827 1.499 . S
C6825 H6799 0.950 . S
C6825 C6824 1.414 . S
C6825 C6826 1.374 . S
C6826 H6800 0.950 . S
C6826 C6822 1.385 . S
C6826 C6825 1.374 . S
C6827 C6824 1.499 . S
C6827 C6828 1.373 . S
C6827 C6829 1.389 . S
C6828 H6801 0.950 . S
C6828 C6814 1.377 . S
C6828 C6827 1.373 . S
C6829 C6813 1.377 . S
C6829 C6827 1.389 . S
C6829 C6830 1.524 . S
C6830 C6829 1.524 . S
C6830 C6831 1.397 . S
C6830 C6835 1.363 . S
C6831 H6802 0.950 . S
C6831 C6830 1.397 . S
C6831 C6832 1.334 . S
C6832 H6803 0.950 . S
C6832 C6831 1.334 . S
C6832 C6833 1.287 . S
C6833 C6832 1.287 . S
C6833 C6834 1.524 . S
C6833 H6836 0.999 . S
C6834 H6804 0.950 . S
C6834 C6833 1.524 . S
C6834 C6835 1.415 . S
C6835 H6805 0.950 . S
C6835 C6830 1.363 . S
C6835 C6834 1.415 . S
H6836 C6833 0.999 . S
H6837 C6818 0.913 . S
H6838 C6856 0.951 . S
H6839 C6858 0.951 . S
H6840 C6860 0.950 . S
H6841 C6861 0.950 . S
H6842 C6863 0.950 . S
H6843 C6866 0.950 . S
H6844 C6867 0.950 . S
H6845 C6869 0.950 . S
H6846 C6870 0.950 . S
H6847 C6871 0.951 . S
H6848 C6873 0.951 . S
H6849 C6875 0.950 . S
H6850 C6876 0.950 . S
H6851 C6878 0.950 . S
H6852 C6881 0.950 . S
H6853 C6882 0.950 . S
H6854 C6884 0.950 . S
H6855 C6885 0.950 . S
C6856 H6838 0.951 . S
C6856 C6857 1.366 . S
C6856 C6858 1.388 . S
C6857 C6856 1.366 . S
C6857 C6861 1.385 1_565 S
C6858 H6839 0.951 . S
C6858 C6856 1.388 . S
C6858 C6859 1.366 . S
C6859 C6858 1.366 . S
C6859 C6860 1.414 1_565 S
C6859 C6862 1.499 . S
C6860 H6840 0.950 . S
C6860 C6859 1.414 1_545 S
C6860 C6861 1.374 . S
C6861 H6841 0.950 . S
C6861 C6857 1.385 1_545 S
C6861 C6860 1.374 . S
C6862 C6859 1.499 . S
C6862 C6863 1.373 1_565 S
C6862 C6864 1.389 . S
C6863 H6842 0.950 . S
C6863 C6862 1.373 1_545 S
C6863 C6879 1.377 . S
C6864 C6862 1.389 . S
C6864 C6865 1.524 . S
C6864 C6878 1.377 . S
C6865 C6864 1.524 . S
C6865 C6866 1.397 . S
C6865 C6870 1.363 . S
C6866 H6843 0.950 . S
C6866 C6865 1.397 . S
C6866 C6867 1.334 . S
C6867 H6844 0.950 . S
C6867 C6866 1.334 . S
C6867 C6868 1.287 . S
C6868 C6867 1.287 . S
C6868 C6869 1.524 . S
C6868 H6887 0.913 . S
C6869 H6845 0.950 . S
C6869 C6868 1.524 . S
C6869 C6870 1.415 . S
C6870 H6846 0.950 . S
C6870 C6865 1.363 . S
C6870 C6869 1.415 . S
C6871 H6847 0.951 . S
C6871 C6872 1.366 1_545 S
C6871 C6873 1.388 . S
C6872 C6871 1.366 1_565 S
C6872 C6876 1.385 . S
C6873 H6848 0.951 . S
C6873 C6871 1.388 . S
C6873 C6874 1.366 1_545 S
C6874 C6873 1.366 1_565 S
C6874 C6875 1.414 . S
C6874 C6877 1.499 . S
C6875 H6849 0.950 . S
C6875 C6874 1.414 . S
C6875 C6876 1.374 . S
C6876 H6850 0.950 . S
C6876 C6872 1.385 . S
C6876 C6875 1.374 . S
C6877 C6874 1.499 . S
C6877 C6878 1.373 . S
C6877 C6879 1.389 1_565 S
C6878 H6851 0.950 . S
C6878 C6864 1.377 . S
C6878 C6877 1.373 . S
C6879 C6863 1.377 . S
C6879 C6877 1.389 1_545 S
C6879 C6880 1.524 . S
C6880 C6879 1.524 . S
C6880 C6881 1.397 . S
C6880 C6885 1.363 . S
C6881 H6852 0.950 . S
C6881 C6880 1.397 . S
C6881 C6882 1.334 . S
C6882 H6853 0.950 . S
C6882 C6881 1.334 . S
C6882 C6883 1.287 . S
C6883 C6882 1.287 . S
C6883 C6884 1.524 . S
C6883 H6886 0.999 . S
C6884 H6854 0.950 . S
C6884 C6883 1.524 . S
C6884 C6885 1.415 . S
C6885 H6855 0.950 . S
C6885 C6880 1.363 . S
C6885 C6884 1.415 . S
H6886 C6883 0.999 . S
H6887 C6868 0.913 . S
H6888 C6906 0.951 . S
H6889 C6908 0.951 . S
H6890 C6910 0.950 . S
H6891 C6911 0.950 . S
H6892 C6913 0.950 . S
H6893 C6916 0.950 . S
H6894 C6917 0.950 . S
H6895 C6919 0.950 . S
H6896 C6920 0.950 . S
H6897 C6921 0.951 . S
H6898 C6923 0.951 . S
H6899 C6925 0.950 . S
H6900 C6926 0.950 . S
H6901 C6928 0.950 . S
H6902 C6931 0.950 . S
H6903 C6932 0.950 . S
H6904 C6934 0.950 . S
H6905 C6935 0.950 . S
C6906 H6888 0.951 . S
C6906 C6907 1.366 1_565 S
C6906 C6908 1.388 . S
C6907 C6906 1.366 1_545 S
C6907 C6911 1.385 . S
C6908 H6889 0.951 . S
C6908 C6906 1.388 . S
C6908 C6909 1.366 1_565 S
C6909 C6908 1.366 1_545 S
C6909 C6910 1.414 . S
C6909 C6912 1.499 . S
C6910 H6890 0.950 . S
C6910 C6909 1.414 . S
C6910 C6911 1.374 . S
C6911 H6891 0.950 . S
C6911 C6907 1.385 . S
C6911 C6910 1.374 . S
C6912 C6909 1.499 . S
C6912 C6913 1.373 . S
C6912 C6914 1.389 1_545 S
C6913 H6892 0.950 . S
C6913 C6912 1.373 . S
C6913 C6929 1.377 . S
C6914 C6912 1.389 1_565 S
C6914 C6915 1.524 . S
C6914 C6928 1.377 . S
C6915 C6914 1.524 . S
C6915 C6916 1.397 . S
C6915 C6920 1.363 . S
C6916 H6893 0.950 . S
C6916 C6915 1.397 . S
C6916 C6917 1.334 . S
C6917 H6894 0.950 . S
C6917 C6916 1.334 . S
C6917 C6918 1.287 . S
C6918 C6917 1.287 . S
C6918 C6919 1.524 . S
C6918 H6937 0.913 . S
C6919 H6895 0.950 . S
C6919 C6918 1.524 . S
C6919 C6920 1.415 . S
C6920 H6896 0.950 . S
C6920 C6915 1.363 . S
C6920 C6919 1.415 . S
C6921 H6897 0.951 . S
C6921 C6922 1.366 . S
C6921 C6923 1.388 . S
C6922 C6921 1.366 . S
C6922 C6926 1.385 1_545 S
C6923 H6898 0.951 . S
C6923 C6921 1.388 . S
C6923 C6924 1.366 . S
C6924 C6923 1.366 . S
C6924 C6925 1.414 1_545 S
C6924 C6927 1.499 . S
C6925 H6899 0.950 . S
C6925 C6924 1.414 1_565 S
C6925 C6926 1.374 . S
C6926 H6900 0.950 . S
C6926 C6922 1.385 1_565 S
C6926 C6925 1.374 . S
C6927 C6924 1.499 . S
C6927 C6928 1.373 1_545 S
C6927 C6929 1.389 . S
C6928 H6901 0.950 . S
C6928 C6914 1.377 . S
C6928 C6927 1.373 1_565 S
C6929 C6913 1.377 . S
C6929 C6927 1.389 . S
C6929 C6930 1.524 . S
C6930 C6929 1.524 . S
C6930 C6931 1.397 . S
C6930 C6935 1.363 . S
C6931 H6902 0.950 . S
C6931 C6930 1.397 . S
C6931 C6932 1.334 . S
C6932 H6903 0.950 . S
C6932 C6931 1.334 . S
C6932 C6933 1.287 . S
C6933 C6932 1.287 . S
C6933 C6934 1.524 . S
C6933 H6936 0.999 . S
C6934 H6904 0.950 . S
C6934 C6933 1.524 . S
C6934 C6935 1.415 . S
C6935 H6905 0.950 . S
C6935 C6930 1.363 . S
C6935 C6934 1.415 . S
H6936 C6933 0.999 . S
H6937 C6918 0.913 . S
H6938 C6956 0.951 . S
H6939 C6958 0.951 . S
H6940 C6960 0.950 . S
H6941 C6961 0.950 . S
H6942 C6963 0.950 . S
H6943 C6966 0.950 . S
H6944 C6967 0.950 . S
H6945 C6969 0.950 . S
H6946 C6970 0.950 . S
H6947 C6971 0.951 . S
H6948 C6973 0.951 . S
H6949 C6975 0.950 . S
H6950 C6976 0.950 . S
H6951 C6978 0.950 . S
H6952 C6981 0.950 . S
H6953 C6982 0.950 . S
H6954 C6984 0.950 . S
H6955 C6985 0.950 . S
C6956 H6938 0.951 . S
C6956 C6957 1.366 . S
C6956 C6958 1.388 . S
C6957 C6956 1.366 . S
C6957 C6961 1.385 . S
C6958 H6939 0.951 . S
C6958 C6956 1.388 . S
C6958 C6959 1.366 . S
C6959 C6958 1.366 . S
C6959 C6960 1.414 . S
C6959 C6962 1.499 . S
C6960 H6940 0.950 . S
C6960 C6959 1.414 . S
C6960 C6961 1.374 . S
C6961 H6941 0.950 . S
C6961 C6957 1.385 . S
C6961 C6960 1.374 . S
C6962 C6959 1.499 . S
C6962 C6963 1.373 . S
C6962 C6964 1.389 . S
C6963 H6942 0.950 . S
C6963 C6962 1.373 . S
C6963 C6979 1.377 . S
C6964 C6962 1.389 . S
C6964 C6965 1.524 . S
C6964 C6978 1.377 . S
C6965 C6964 1.524 . S
C6965 C6966 1.397 . S
C6965 C6970 1.363 . S
C6966 H6943 0.950 . S
C6966 C6965 1.397 . S
C6966 C6967 1.334 . S
C6967 H6944 0.950 . S
C6967 C6966 1.334 . S
C6967 C6968 1.287 . S
C6968 C6967 1.287 . S
C6968 C6969 1.524 . S
C6968 H6987 0.913 . S
C6969 H6945 0.950 . S
C6969 C6968 1.524 . S
C6969 C6970 1.415 . S
C6970 H6946 0.950 . S
C6970 C6965 1.363 . S
C6970 C6969 1.415 . S
C6971 H6947 0.951 . S
C6971 C6972 1.366 . S
C6971 C6973 1.388 . S
C6972 C6971 1.366 . S
C6972 C6976 1.385 . S
C6973 H6948 0.951 . S
C6973 C6971 1.388 . S
C6973 C6974 1.366 . S
C6974 C6973 1.366 . S
C6974 C6975 1.414 . S
C6974 C6977 1.499 . S
C6975 H6949 0.950 . S
C6975 C6974 1.414 . S
C6975 C6976 1.374 . S
C6976 H6950 0.950 . S
C6976 C6972 1.385 . S
C6976 C6975 1.374 . S
C6977 C6974 1.499 . S
C6977 C6978 1.373 . S
C6977 C6979 1.389 . S
C6978 H6951 0.950 . S
C6978 C6964 1.377 . S
C6978 C6977 1.373 . S
C6979 C6963 1.377 . S
C6979 C6977 1.389 . S
C6979 C6980 1.524 . S
C6980 C6979 1.524 . S
C6980 C6981 1.397 . S
C6980 C6985 1.363 . S
C6981 H6952 0.950 . S
C6981 C6980 1.397 . S
C6981 C6982 1.334 . S
C6982 H6953 0.950 . S
C6982 C6981 1.334 . S
C6982 C6983 1.287 . S
C6983 C6982 1.287 . S
C6983 C6984 1.524 . S
C6983 H6986 0.999 . S
C6984 H6954 0.950 . S
C6984 C6983 1.524 . S
C6984 C6985 1.415 . S
C6985 H6955 0.950 . S
C6985 C6980 1.363 . S
C6985 C6984 1.415 . S
H6986 C6983 0.999 . S
H6987 C6968 0.913 . S
H6988 C7006 0.951 . S
H6989 C7008 0.951 . S
H6990 C7010 0.950 . S
H6991 C7011 0.950 . S
H6992 C7013 0.950 . S
H6993 C7016 0.950 . S
H6994 C7017 0.950 . S
H6995 C7019 0.950 . S
H6996 C7020 0.950 . S
H6997 C7021 0.951 . S
H6998 C7023 0.951 . S
H6999 C7025 0.950 . S
H7000 C7026 0.950 . S
H7001 C7028 0.950 . S
H7002 C7031 0.950 . S
H7003 C7032 0.950 . S
H7004 C7034 0.950 . S
H7005 C7035 0.950 . S
C7006 H6988 0.951 . S
C7006 C7007 1.366 . S
C7006 C7008 1.388 . S
C7007 C7006 1.366 . S
C7007 C7011 1.385 . S
C7008 H6989 0.951 . S
C7008 C7006 1.388 . S
C7008 C7009 1.366 . S
C7009 C7008 1.366 . S
C7009 C7010 1.414 . S
C7009 C7012 1.499 . S
C7010 H6990 0.950 . S
C7010 C7009 1.414 . S
C7010 C7011 1.374 . S
C7011 H6991 0.950 . S
C7011 C7007 1.385 . S
C7011 C7010 1.374 . S
C7012 C7009 1.499 . S
C7012 C7013 1.373 . S
C7012 C7014 1.389 . S
C7013 H6992 0.950 . S
C7013 C7012 1.373 . S
C7013 C7029 1.377 . S
C7014 C7012 1.389 . S
C7014 C7015 1.524 . S
C7014 C7028 1.377 . S
C7015 C7014 1.524 . S
C7015 C7016 1.397 . S
C7015 C7020 1.363 . S
C7016 H6993 0.950 . S
C7016 C7015 1.397 . S
C7016 C7017 1.334 . S
C7017 H6994 0.950 . S
C7017 C7016 1.334 . S
C7017 C7018 1.287 . S
C7018 C7017 1.287 . S
C7018 C7019 1.524 . S
C7018 H7037 0.913 . S
C7019 H6995 0.950 . S
C7019 C7018 1.524 . S
C7019 C7020 1.415 . S
C7020 H6996 0.950 . S
C7020 C7015 1.363 . S
C7020 C7019 1.415 . S
C7021 H6997 0.951 . S
C7021 C7022 1.366 . S
C7021 C7023 1.388 . S
C7022 C7021 1.366 . S
C7022 C7026 1.385 . S
C7023 H6998 0.951 . S
C7023 C7021 1.388 . S
C7023 C7024 1.366 . S
C7024 C7023 1.366 . S
C7024 C7025 1.414 . S
C7024 C7027 1.499 . S
C7025 H6999 0.950 . S
C7025 C7024 1.414 . S
C7025 C7026 1.374 . S
C7026 H7000 0.950 . S
C7026 C7022 1.385 . S
C7026 C7025 1.374 . S
C7027 C7024 1.499 . S
C7027 C7028 1.373 . S
C7027 C7029 1.389 . S
C7028 H7001 0.950 . S
C7028 C7014 1.377 . S
C7028 C7027 1.373 . S
C7029 C7013 1.377 . S
C7029 C7027 1.389 . S
C7029 C7030 1.524 . S
C7030 C7029 1.524 . S
C7030 C7031 1.397 . S
C7030 C7035 1.363 . S
C7031 H7002 0.950 . S
C7031 C7030 1.397 . S
C7031 C7032 1.334 . S
C7032 H7003 0.950 . S
C7032 C7031 1.334 . S
C7032 C7033 1.287 . S
C7033 C7032 1.287 . S
C7033 C7034 1.524 . S
C7033 H7036 0.999 . S
C7034 H7004 0.950 . S
C7034 C7033 1.524 . S
C7034 C7035 1.415 . S
C7035 H7005 0.950 . S
C7035 C7030 1.363 . S
C7035 C7034 1.415 . S
H7036 C7033 0.999 . S
H7037 C7018 0.913 . S
H7038 C7056 0.951 . S
H7039 C7058 0.951 . S
H7040 C7060 0.950 . S
H7041 C7061 0.950 . S
H7042 C7063 0.950 . S
H7043 C7066 0.950 . S
H7044 C7067 0.950 . S
H7045 C7069 0.950 . S
H7046 C7070 0.950 . S
H7047 C7071 0.951 . S
H7048 C7073 0.951 . S
H7049 C7075 0.950 . S
H7050 C7076 0.950 . S
H7051 C7078 0.950 . S
H7052 C7081 0.950 . S
H7053 C7082 0.950 . S
H7054 C7084 0.950 . S
H7055 C7085 0.950 . S
C7056 H7038 0.951 . S
C7056 C7057 1.366 1_565 S
C7056 C7058 1.388 . S
C7057 C7056 1.366 1_545 S
C7057 C7061 1.385 . S
C7058 H7039 0.951 . S
C7058 C7056 1.388 . S
C7058 C7059 1.366 1_565 S
C7059 C7058 1.366 1_545 S
C7059 C7060 1.414 . S
C7059 C7062 1.499 . S
C7060 H7040 0.950 . S
C7060 C7059 1.414 . S
C7060 C7061 1.374 . S
C7061 H7041 0.950 . S
C7061 C7057 1.385 . S
C7061 C7060 1.374 . S
C7062 C7059 1.499 . S
C7062 C7063 1.373 . S
C7062 C7064 1.389 1_545 S
C7063 H7042 0.950 . S
C7063 C7062 1.373 . S
C7063 C7079 1.377 . S
C7064 C7062 1.389 1_565 S
C7064 C7065 1.524 . S
C7064 C7078 1.377 . S
C7065 C7064 1.524 . S
C7065 C7066 1.397 . S
C7065 C7070 1.363 . S
C7066 H7043 0.950 . S
C7066 C7065 1.397 . S
C7066 C7067 1.334 . S
C7067 H7044 0.950 . S
C7067 C7066 1.334 . S
C7067 C7068 1.287 . S
C7068 C7067 1.287 . S
C7068 C7069 1.524 . S
C7068 H7087 0.913 . S
C7069 H7045 0.950 . S
C7069 C7068 1.524 . S
C7069 C7070 1.415 . S
C7070 H7046 0.950 . S
C7070 C7065 1.363 . S
C7070 C7069 1.415 . S
C7071 H7047 0.951 . S
C7071 C7072 1.366 . S
C7071 C7073 1.388 . S
C7072 C7071 1.366 . S
C7072 C7076 1.385 1_545 S
C7073 H7048 0.951 . S
C7073 C7071 1.388 . S
C7073 C7074 1.366 . S
C7074 C7073 1.366 . S
C7074 C7075 1.414 1_545 S
C7074 C7077 1.499 . S
C7075 H7049 0.950 . S
C7075 C7074 1.414 1_565 S
C7075 C7076 1.374 . S
C7076 H7050 0.950 . S
C7076 C7072 1.385 1_565 S
C7076 C7075 1.374 . S
C7077 C7074 1.499 . S
C7077 C7078 1.373 1_545 S
C7077 C7079 1.389 . S
C7078 H7051 0.950 . S
C7078 C7064 1.377 . S
C7078 C7077 1.373 1_565 S
C7079 C7063 1.377 . S
C7079 C7077 1.389 . S
C7079 C7080 1.524 . S
C7080 C7079 1.524 . S
C7080 C7081 1.397 . S
C7080 C7085 1.363 . S
C7081 H7052 0.950 . S
C7081 C7080 1.397 . S
C7081 C7082 1.334 . S
C7082 H7053 0.950 . S
C7082 C7081 1.334 . S
C7082 C7083 1.287 . S
C7083 C7082 1.287 . S
C7083 C7084 1.524 . S
C7083 H7086 0.999 . S
C7084 H7054 0.950 . S
C7084 C7083 1.524 . S
C7084 C7085 1.415 . S
C7085 H7055 0.950 . S
C7085 C7080 1.363 . S
C7085 C7084 1.415 . S
H7086 C7083 0.999 . S
H7087 C7068 0.913 . S
H7088 C7106 0.951 . S
H7089 C7108 0.951 . S
H7090 C7110 0.950 . S
H7091 C7111 0.950 . S
H7092 C7113 0.950 . S
H7093 C7116 0.950 . S
H7094 C7117 0.950 . S
H7095 C7119 0.950 . S
H7096 C7120 0.950 . S
H7097 C7121 0.951 . S
H7098 C7123 0.951 . S
H7099 C7125 0.950 . S
H7100 C7126 0.950 . S
H7101 C7128 0.950 . S
H7102 C7131 0.950 . S
H7103 C7132 0.950 . S
H7104 C7134 0.950 . S
H7105 C7135 0.950 . S
C7106 H7088 0.951 . S
C7106 C7107 1.366 . S
C7106 C7108 1.388 . S
C7107 C7106 1.366 . S
C7107 C7111 1.385 . S
C7108 H7089 0.951 . S
C7108 C7106 1.388 . S
C7108 C7109 1.366 . S
C7109 C7108 1.366 . S
C7109 C7110 1.414 . S
C7109 C7112 1.499 . S
C7110 H7090 0.950 . S
C7110 C7109 1.414 . S
C7110 C7111 1.374 . S
C7111 H7091 0.950 . S
C7111 C7107 1.385 . S
C7111 C7110 1.374 . S
C7112 C7109 1.499 . S
C7112 C7113 1.373 . S
C7112 C7114 1.389 . S
C7113 H7092 0.950 . S
C7113 C7112 1.373 . S
C7113 C7129 1.377 . S
C7114 C7112 1.389 . S
C7114 C7115 1.524 . S
C7114 C7128 1.377 . S
C7115 C7114 1.524 . S
C7115 C7116 1.397 . S
C7115 C7120 1.363 . S
C7116 H7093 0.950 . S
C7116 C7115 1.397 . S
C7116 C7117 1.334 . S
C7117 H7094 0.950 . S
C7117 C7116 1.334 . S
C7117 C7118 1.287 . S
C7118 C7117 1.287 . S
C7118 C7119 1.524 . S
C7118 H7137 0.913 . S
C7119 H7095 0.950 . S
C7119 C7118 1.524 . S
C7119 C7120 1.415 . S
C7120 H7096 0.950 . S
C7120 C7115 1.363 . S
C7120 C7119 1.415 . S
C7121 H7097 0.951 . S
C7121 C7122 1.366 . S
C7121 C7123 1.388 1_554 S
C7122 C7121 1.366 . S
C7122 C7126 1.385 1_554 S
C7123 H7098 0.951 . S
C7123 C7121 1.388 1_556 S
C7123 C7124 1.366 . S
C7124 C7123 1.366 . S
C7124 C7125 1.414 . S
C7124 C7127 1.499 . S
C7125 H7099 0.950 . S
C7125 C7124 1.414 . S
C7125 C7126 1.374 . S
C7126 H7100 0.950 . S
C7126 C7122 1.385 1_556 S
C7126 C7125 1.374 . S
C7127 C7124 1.499 . S
C7127 C7128 1.373 . S
C7127 C7129 1.389 . S
C7128 H7101 0.950 . S
C7128 C7114 1.377 . S
C7128 C7127 1.373 . S
C7129 C7113 1.377 . S
C7129 C7127 1.389 . S
C7129 C7130 1.524 . S
C7130 C7129 1.524 . S
C7130 C7131 1.397 . S
C7130 C7135 1.363 . S
C7131 H7102 0.950 . S
C7131 C7130 1.397 . S
C7131 C7132 1.334 . S
C7132 H7103 0.950 . S
C7132 C7131 1.334 . S
C7132 C7133 1.287 . S
C7133 C7132 1.287 . S
C7133 C7134 1.524 . S
C7133 H7136 0.999 . S
C7134 H7104 0.950 . S
C7134 C7133 1.524 . S
C7134 C7135 1.415 . S
C7135 H7105 0.950 . S
C7135 C7130 1.363 . S
C7135 C7134 1.415 . S
H7136 C7133 0.999 . S
H7137 C7118 0.913 . S
H7138 C7156 0.951 . S
H7139 C7158 0.951 . S
H7140 C7160 0.950 . S
H7141 C7161 0.950 . S
H7142 C7163 0.950 . S
H7143 C7166 0.950 . S
H7144 C7167 0.950 . S
H7145 C7169 0.950 . S
H7146 C7170 0.950 . S
H7147 C7171 0.951 . S
H7148 C7173 0.951 . S
H7149 C7175 0.950 . S
H7150 C7176 0.950 . S
H7151 C7178 0.950 . S
H7152 C7181 0.950 . S
H7153 C7182 0.950 . S
H7154 C7184 0.950 . S
H7155 C7185 0.950 . S
C7156 H7138 0.951 . S
C7156 C7157 1.366 . S
C7156 C7158 1.388 . S
C7157 C7156 1.366 . S
C7157 C7161 1.385 . S
C7158 H7139 0.951 . S
C7158 C7156 1.388 . S
C7158 C7159 1.366 . S
C7159 C7158 1.366 . S
C7159 C7160 1.414 . S
C7159 C7162 1.499 . S
C7160 H7140 0.950 . S
C7160 C7159 1.414 . S
C7160 C7161 1.374 . S
C7161 H7141 0.950 . S
C7161 C7157 1.385 . S
C7161 C7160 1.374 . S
C7162 C7159 1.499 . S
C7162 C7163 1.373 . S
C7162 C7164 1.389 . S
C7163 H7142 0.950 . S
C7163 C7162 1.373 . S
C7163 C7179 1.377 . S
C7164 C7162 1.389 . S
C7164 C7165 1.524 . S
C7164 C7178 1.377 . S
C7165 C7164 1.524 . S
C7165 C7166 1.397 . S
C7165 C7170 1.363 . S
C7166 H7143 0.950 . S
C7166 C7165 1.397 . S
C7166 C7167 1.334 . S
C7167 H7144 0.950 . S
C7167 C7166 1.334 . S
C7167 C7168 1.287 . S
C7168 C7167 1.287 . S
C7168 C7169 1.524 . S
C7168 H7187 0.913 . S
C7169 H7145 0.950 . S
C7169 C7168 1.524 . S
C7169 C7170 1.415 . S
C7170 H7146 0.950 . S
C7170 C7165 1.363 . S
C7170 C7169 1.415 . S
C7171 H7147 0.951 . S
C7171 C7172 1.366 . S
C7171 C7173 1.388 1_554 S
C7172 C7171 1.366 . S
C7172 C7176 1.385 1_554 S
C7173 H7148 0.951 . S
C7173 C7171 1.388 1_556 S
C7173 C7174 1.366 . S
C7174 C7173 1.366 . S
C7174 C7175 1.414 . S
C7174 C7177 1.499 . S
C7175 H7149 0.950 . S
C7175 C7174 1.414 . S
C7175 C7176 1.374 . S
C7176 H7150 0.950 . S
C7176 C7172 1.385 1_556 S
C7176 C7175 1.374 . S
C7177 C7174 1.499 . S
C7177 C7178 1.373 . S
C7177 C7179 1.389 . S
C7178 H7151 0.950 . S
C7178 C7164 1.377 . S
C7178 C7177 1.373 . S
C7179 C7163 1.377 . S
C7179 C7177 1.389 . S
C7179 C7180 1.524 . S
C7180 C7179 1.524 . S
C7180 C7181 1.397 . S
C7180 C7185 1.363 . S
C7181 H7152 0.950 . S
C7181 C7180 1.397 . S
C7181 C7182 1.334 . S
C7182 H7153 0.950 . S
C7182 C7181 1.334 . S
C7182 C7183 1.287 . S
C7183 C7182 1.287 . S
C7183 C7184 1.524 . S
C7183 H7186 0.999 . S
C7184 H7154 0.950 . S
C7184 C7183 1.524 . S
C7184 C7185 1.415 . S
C7185 H7155 0.950 . S
C7185 C7180 1.363 . S
C7185 C7184 1.415 . S
H7186 C7183 0.999 . S
H7187 C7168 0.913 . S
H7188 C7206 0.951 . S
H7189 C7208 0.951 . S
H7190 C7210 0.950 . S
H7191 C7211 0.950 . S
H7192 C7213 0.950 . S
H7193 C7216 0.950 . S
H7194 C7217 0.950 . S
H7195 C7219 0.950 . S
H7196 C7220 0.950 . S
H7197 C7221 0.951 . S
H7198 C7223 0.951 . S
H7199 C7225 0.950 . S
H7200 C7226 0.950 . S
H7201 C7228 0.950 . S
H7202 C7231 0.950 . S
H7203 C7232 0.950 . S
H7204 C7234 0.950 . S
H7205 C7235 0.950 . S
C7206 H7188 0.951 . S
C7206 C7207 1.366 . S
C7206 C7208 1.388 . S
C7207 C7206 1.366 . S
C7207 C7211 1.385 . S
C7208 H7189 0.951 . S
C7208 C7206 1.388 . S
C7208 C7209 1.366 . S
C7209 C7208 1.366 . S
C7209 C7210 1.414 . S
C7209 C7212 1.499 . S
C7210 H7190 0.950 . S
C7210 C7209 1.414 . S
C7210 C7211 1.374 . S
C7211 H7191 0.950 . S
C7211 C7207 1.385 . S
C7211 C7210 1.374 . S
C7212 C7209 1.499 . S
C7212 C7213 1.373 . S
C7212 C7214 1.389 . S
C7213 H7192 0.950 . S
C7213 C7212 1.373 . S
C7213 C7229 1.377 . S
C7214 C7212 1.389 . S
C7214 C7215 1.524 . S
C7214 C7228 1.377 . S
C7215 C7214 1.524 . S
C7215 C7216 1.397 . S
C7215 C7220 1.363 . S
C7216 H7193 0.950 . S
C7216 C7215 1.397 . S
C7216 C7217 1.334 . S
C7217 H7194 0.950 . S
C7217 C7216 1.334 . S
C7217 C7218 1.287 . S
C7218 C7217 1.287 . S
C7218 C7219 1.524 . S
C7218 H7237 0.913 . S
C7219 H7195 0.950 . S
C7219 C7218 1.524 . S
C7219 C7220 1.415 . S
C7220 H7196 0.950 . S
C7220 C7215 1.363 . S
C7220 C7219 1.415 . S
C7221 H7197 0.951 . S
C7221 C7222 1.366 . S
C7221 C7223 1.388 . S
C7222 C7221 1.366 . S
C7222 C7226 1.385 . S
C7223 H7198 0.951 . S
C7223 C7221 1.388 . S
C7223 C7224 1.366 . S
C7224 C7223 1.366 . S
C7224 C7225 1.414 . S
C7224 C7227 1.499 . S
C7225 H7199 0.950 . S
C7225 C7224 1.414 . S
C7225 C7226 1.374 . S
C7226 H7200 0.950 . S
C7226 C7222 1.385 . S
C7226 C7225 1.374 . S
C7227 C7224 1.499 . S
C7227 C7228 1.373 . S
C7227 C7229 1.389 . S
C7228 H7201 0.950 . S
C7228 C7214 1.377 . S
C7228 C7227 1.373 . S
C7229 C7213 1.377 . S
C7229 C7227 1.389 . S
C7229 C7230 1.524 . S
C7230 C7229 1.524 . S
C7230 C7231 1.397 . S
C7230 C7235 1.363 . S
C7231 H7202 0.950 . S
C7231 C7230 1.397 . S
C7231 C7232 1.334 . S
C7232 H7203 0.950 . S
C7232 C7231 1.334 . S
C7232 C7233 1.287 . S
C7233 C7232 1.287 . S
C7233 C7234 1.524 . S
C7233 H7236 0.999 . S
C7234 H7204 0.950 . S
C7234 C7233 1.524 . S
C7234 C7235 1.415 . S
C7235 H7205 0.950 . S
C7235 C7230 1.363 . S
C7235 C7234 1.415 . S
H7236 C7233 0.999 . S
H7237 C7218 0.913 . S
H7238 C7256 0.951 . S
H7239 C7258 0.951 . S
H7240 C7260 0.950 . S
H7241 C7261 0.950 . S
H7242 C7263 0.950 . S
H7243 C7266 0.950 . S
H7244 C7267 0.950 . S
H7245 C7269 0.950 . S
H7246 C7270 0.950 . S
H7247 C7271 0.951 . S
H7248 C7273 0.951 . S
H7249 C7275 0.950 . S
H7250 C7276 0.950 . S
H7251 C7278 0.950 . S
H7252 C7281 0.950 . S
H7253 C7282 0.950 . S
H7254 C7284 0.950 . S
H7255 C7285 0.950 . S
C7256 H7238 0.951 . S
C7256 C7257 1.366 . S
C7256 C7258 1.388 . S
C7257 C7256 1.366 . S
C7257 C7261 1.385 . S
C7258 H7239 0.951 . S
C7258 C7256 1.388 . S
C7258 C7259 1.366 . S
C7259 C7258 1.366 . S
C7259 C7260 1.414 . S
C7259 C7262 1.499 . S
C7260 H7240 0.950 . S
C7260 C7259 1.414 . S
C7260 C7261 1.374 . S
C7261 H7241 0.950 . S
C7261 C7257 1.385 . S
C7261 C7260 1.374 . S
C7262 C7259 1.499 . S
C7262 C7263 1.373 . S
C7262 C7264 1.389 . S
C7263 H7242 0.950 . S
C7263 C7262 1.373 . S
C7263 C7279 1.377 . S
C7264 C7262 1.389 . S
C7264 C7265 1.524 . S
C7264 C7278 1.377 . S
C7265 C7264 1.524 . S
C7265 C7266 1.397 . S
C7265 C7270 1.363 . S
C7266 H7243 0.950 . S
C7266 C7265 1.397 . S
C7266 C7267 1.334 . S
C7267 H7244 0.950 . S
C7267 C7266 1.334 . S
C7267 C7268 1.287 . S
C7268 C7267 1.287 . S
C7268 C7269 1.524 . S
C7268 H7287 0.913 . S
C7269 H7245 0.950 . S
C7269 C7268 1.524 . S
C7269 C7270 1.415 . S
C7270 H7246 0.950 . S
C7270 C7265 1.363 . S
C7270 C7269 1.415 . S
C7271 H7247 0.951 . S
C7271 C7272 1.366 . S
C7271 C7273 1.388 . S
C7272 C7271 1.366 . S
C7272 C7276 1.385 . S
C7273 H7248 0.951 . S
C7273 C7271 1.388 . S
C7273 C7274 1.366 . S
C7274 C7273 1.366 . S
C7274 C7275 1.414 . S
C7274 C7277 1.499 . S
C7275 H7249 0.950 . S
C7275 C7274 1.414 . S
C7275 C7276 1.374 . S
C7276 H7250 0.950 . S
C7276 C7272 1.385 . S
C7276 C7275 1.374 . S
C7277 C7274 1.499 . S
C7277 C7278 1.373 . S
C7277 C7279 1.389 . S
C7278 H7251 0.950 . S
C7278 C7264 1.377 . S
C7278 C7277 1.373 . S
C7279 C7263 1.377 . S
C7279 C7277 1.389 . S
C7279 C7280 1.524 . S
C7280 C7279 1.524 . S
C7280 C7281 1.397 . S
C7280 C7285 1.363 . S
C7281 H7252 0.950 . S
C7281 C7280 1.397 . S
C7281 C7282 1.334 . S
C7282 H7253 0.950 . S
C7282 C7281 1.334 . S
C7282 C7283 1.287 . S
C7283 C7282 1.287 . S
C7283 C7284 1.524 . S
C7283 H7286 0.999 . S
C7284 H7254 0.950 . S
C7284 C7283 1.524 . S
C7284 C7285 1.415 . S
C7285 H7255 0.950 . S
C7285 C7280 1.363 . S
C7285 C7284 1.415 . S
H7286 C7283 0.999 . S
H7287 C7268 0.913 . S
H7288 C7306 0.951 . S
H7289 C7308 0.951 . S
H7290 C7310 0.950 . S
H7291 C7311 0.950 . S
H7292 C7313 0.950 . S
H7293 C7316 0.950 . S
H7294 C7317 0.950 . S
H7295 C7319 0.950 . S
H7296 C7320 0.950 . S
H7297 C7321 0.951 . S
H7298 C7323 0.951 . S
H7299 C7325 0.950 . S
H7300 C7326 0.950 . S
H7301 C7328 0.950 . S
H7302 C7331 0.950 . S
H7303 C7332 0.950 . S
H7304 C7334 0.950 . S
H7305 C7335 0.950 . S
C7306 H7288 0.951 . S
C7306 C7307 1.366 . S
C7306 C7308 1.388 . S
C7307 C7306 1.366 . S
C7307 C7311 1.385 . S
C7308 H7289 0.951 . S
C7308 C7306 1.388 . S
C7308 C7309 1.366 . S
C7309 C7308 1.366 . S
C7309 C7310 1.414 . S
C7309 C7312 1.499 . S
C7310 H7290 0.950 . S
C7310 C7309 1.414 . S
C7310 C7311 1.374 . S
C7311 H7291 0.950 . S
C7311 C7307 1.385 . S
C7311 C7310 1.374 . S
C7312 C7309 1.499 . S
C7312 C7313 1.373 . S
C7312 C7314 1.389 . S
C7313 H7292 0.950 . S
C7313 C7312 1.373 . S
C7313 C7329 1.377 . S
C7314 C7312 1.389 . S
C7314 C7315 1.524 . S
C7314 C7328 1.377 . S
C7315 C7314 1.524 . S
C7315 C7316 1.397 . S
C7315 C7320 1.363 . S
C7316 H7293 0.950 . S
C7316 C7315 1.397 . S
C7316 C7317 1.334 . S
C7317 H7294 0.950 . S
C7317 C7316 1.334 . S
C7317 C7318 1.287 . S
C7318 C7317 1.287 . S
C7318 C7319 1.524 . S
C7318 H7337 0.913 . S
C7319 H7295 0.950 . S
C7319 C7318 1.524 . S
C7319 C7320 1.415 . S
C7320 H7296 0.950 . S
C7320 C7315 1.363 . S
C7320 C7319 1.415 . S
C7321 H7297 0.951 . S
C7321 C7322 1.366 1_554 S
C7321 C7323 1.388 . S
C7322 C7321 1.366 1_556 S
C7322 C7326 1.385 . S
C7323 H7298 0.951 . S
C7323 C7321 1.388 . S
C7323 C7324 1.366 . S
C7324 C7323 1.366 . S
C7324 C7325 1.414 . S
C7324 C7327 1.499 . S
C7325 H7299 0.950 . S
C7325 C7324 1.414 . S
C7325 C7326 1.374 1_554 S
C7326 H7300 0.950 . S
C7326 C7322 1.385 . S
C7326 C7325 1.374 1_556 S
C7327 C7324 1.499 . S
C7327 C7328 1.373 . S
C7327 C7329 1.389 . S
C7328 H7301 0.950 . S
C7328 C7314 1.377 . S
C7328 C7327 1.373 . S
C7329 C7313 1.377 . S
C7329 C7327 1.389 . S
C7329 C7330 1.524 . S
C7330 C7329 1.524 . S
C7330 C7331 1.397 . S
C7330 C7335 1.363 . S
C7331 H7302 0.950 . S
C7331 C7330 1.397 . S
C7331 C7332 1.334 . S
C7332 H7303 0.950 . S
C7332 C7331 1.334 . S
C7332 C7333 1.287 . S
C7333 C7332 1.287 . S
C7333 C7334 1.524 . S
C7333 H7336 0.999 . S
C7334 H7304 0.950 . S
C7334 C7333 1.524 . S
C7334 C7335 1.415 . S
C7335 H7305 0.950 . S
C7335 C7330 1.363 . S
C7335 C7334 1.415 . S
H7336 C7333 0.999 . S
H7337 C7318 0.913 . S
H7338 C7356 0.951 . S
H7339 C7358 0.951 . S
H7340 C7360 0.950 . S
H7341 C7361 0.950 . S
H7342 C7363 0.950 . S
H7343 C7366 0.950 . S
H7344 C7367 0.950 . S
H7345 C7369 0.950 . S
H7346 C7370 0.950 . S
H7347 C7371 0.951 . S
H7348 C7373 0.951 . S
H7349 C7375 0.950 . S
H7350 C7376 0.950 . S
H7351 C7378 0.950 . S
H7352 C7381 0.950 . S
H7353 C7382 0.950 . S
H7354 C7384 0.950 . S
H7355 C7385 0.950 . S
C7356 H7338 0.951 . S
C7356 C7357 1.366 . S
C7356 C7358 1.388 . S
C7357 C7356 1.366 . S
C7357 C7361 1.385 . S
C7358 H7339 0.951 . S
C7358 C7356 1.388 . S
C7358 C7359 1.366 . S
C7359 C7358 1.366 . S
C7359 C7360 1.414 . S
C7359 C7362 1.499 . S
C7360 H7340 0.950 . S
C7360 C7359 1.414 . S
C7360 C7361 1.374 . S
C7361 H7341 0.950 . S
C7361 C7357 1.385 . S
C7361 C7360 1.374 . S
C7362 C7359 1.499 . S
C7362 C7363 1.373 . S
C7362 C7364 1.389 . S
C7363 H7342 0.950 . S
C7363 C7362 1.373 . S
C7363 C7379 1.377 . S
C7364 C7362 1.389 . S
C7364 C7365 1.524 . S
C7364 C7378 1.377 . S
C7365 C7364 1.524 . S
C7365 C7366 1.397 . S
C7365 C7370 1.363 . S
C7366 H7343 0.950 . S
C7366 C7365 1.397 . S
C7366 C7367 1.334 . S
C7367 H7344 0.950 . S
C7367 C7366 1.334 . S
C7367 C7368 1.287 . S
C7368 C7367 1.287 . S
C7368 C7369 1.524 . S
C7368 H7387 0.913 . S
C7369 H7345 0.950 . S
C7369 C7368 1.524 . S
C7369 C7370 1.415 . S
C7370 H7346 0.950 . S
C7370 C7365 1.363 . S
C7370 C7369 1.415 . S
C7371 H7347 0.951 . S
C7371 C7372 1.366 1_554 S
C7371 C7373 1.388 . S
C7372 C7371 1.366 1_556 S
C7372 C7376 1.385 . S
C7373 H7348 0.951 . S
C7373 C7371 1.388 . S
C7373 C7374 1.366 . S
C7374 C7373 1.366 . S
C7374 C7375 1.414 . S
C7374 C7377 1.499 . S
C7375 H7349 0.950 . S
C7375 C7374 1.414 . S
C7375 C7376 1.374 1_554 S
C7376 H7350 0.950 . S
C7376 C7372 1.385 . S
C7376 C7375 1.374 1_556 S
C7377 C7374 1.499 . S
C7377 C7378 1.373 . S
C7377 C7379 1.389 . S
C7378 H7351 0.950 . S
C7378 C7364 1.377 . S
C7378 C7377 1.373 . S
C7379 C7363 1.377 . S
C7379 C7377 1.389 . S
C7379 C7380 1.524 . S
C7380 C7379 1.524 . S
C7380 C7381 1.397 . S
C7380 C7385 1.363 . S
C7381 H7352 0.950 . S
C7381 C7380 1.397 . S
C7381 C7382 1.334 . S
C7382 H7353 0.950 . S
C7382 C7381 1.334 . S
C7382 C7383 1.287 . S
C7383 C7382 1.287 . S
C7383 C7384 1.524 . S
C7383 H7386 0.999 . S
C7384 H7354 0.950 . S
C7384 C7383 1.524 . S
C7384 C7385 1.415 . S
C7385 H7355 0.950 . S
C7385 C7380 1.363 . S
C7385 C7384 1.415 . S
H7386 C7383 0.999 . S
H7387 C7368 0.913 . S
H7388 C7406 0.951 . S
H7389 C7408 0.951 . S
H7390 C7410 0.950 . S
H7391 C7411 0.950 . S
H7392 C7413 0.950 . S
H7393 C7416 0.950 . S
H7394 C7417 0.950 . S
H7395 C7419 0.950 . S
H7396 C7420 0.950 . S
H7397 C7421 0.951 . S
H7398 C7423 0.951 . S
H7399 C7425 0.950 . S
H7400 C7426 0.950 . S
H7401 C7428 0.950 . S
H7402 C7431 0.950 . S
H7403 C7432 0.950 . S
H7404 C7434 0.950 . S
H7405 C7435 0.950 . S
C7406 H7388 0.951 . S
C7406 C7407 1.366 . S
C7406 C7408 1.388 . S
C7407 C7406 1.366 . S
C7407 C7411 1.385 . S
C7408 H7389 0.951 . S
C7408 C7406 1.388 . S
C7408 C7409 1.366 . S
C7409 C7408 1.366 . S
C7409 C7410 1.414 . S
C7409 C7412 1.499 . S
C7410 H7390 0.950 . S
C7410 C7409 1.414 . S
C7410 C7411 1.374 . S
C7411 H7391 0.950 . S
C7411 C7407 1.385 . S
C7411 C7410 1.374 . S
C7412 C7409 1.499 . S
C7412 C7413 1.373 . S
C7412 C7414 1.389 . S
C7413 H7392 0.950 . S
C7413 C7412 1.373 . S
C7413 C7429 1.377 . S
C7414 C7412 1.389 . S
C7414 C7415 1.524 . S
C7414 C7428 1.377 . S
C7415 C7414 1.524 . S
C7415 C7416 1.397 . S
C7415 C7420 1.363 . S
C7416 H7393 0.950 . S
C7416 C7415 1.397 . S
C7416 C7417 1.334 . S
C7417 H7394 0.950 . S
C7417 C7416 1.334 . S
C7417 C7418 1.287 . S
C7418 C7417 1.287 . S
C7418 C7419 1.524 . S
C7418 H7437 0.913 . S
C7419 H7395 0.950 . S
C7419 C7418 1.524 . S
C7419 C7420 1.415 . S
C7420 H7396 0.950 . S
C7420 C7415 1.363 . S
C7420 C7419 1.415 . S
C7421 H7397 0.951 . S
C7421 C7422 1.366 . S
C7421 C7423 1.388 . S
C7422 C7421 1.366 . S
C7422 C7426 1.385 . S
C7423 H7398 0.951 . S
C7423 C7421 1.388 . S
C7423 C7424 1.366 . S
C7424 C7423 1.366 . S
C7424 C7425 1.414 . S
C7424 C7427 1.499 . S
C7425 H7399 0.950 . S
C7425 C7424 1.414 . S
C7425 C7426 1.374 . S
C7426 H7400 0.950 . S
C7426 C7422 1.385 . S
C7426 C7425 1.374 . S
C7427 C7424 1.499 . S
C7427 C7428 1.373 . S
C7427 C7429 1.389 . S
C7428 H7401 0.950 . S
C7428 C7414 1.377 . S
C7428 C7427 1.373 . S
C7429 C7413 1.377 . S
C7429 C7427 1.389 . S
C7429 C7430 1.524 . S
C7430 C7429 1.524 . S
C7430 C7431 1.397 . S
C7430 C7435 1.363 . S
C7431 H7402 0.950 . S
C7431 C7430 1.397 . S
C7431 C7432 1.334 . S
C7432 H7403 0.950 . S
C7432 C7431 1.334 . S
C7432 C7433 1.287 . S
C7433 C7432 1.287 . S
C7433 C7434 1.524 . S
C7433 H7436 0.999 . S
C7434 H7404 0.950 . S
C7434 C7433 1.524 . S
C7434 C7435 1.415 . S
C7435 H7405 0.950 . S
C7435 C7430 1.363 . S
C7435 C7434 1.415 . S
H7436 C7433 0.999 . S
H7437 C7418 0.913 . S
H7438 C7456 0.951 . S
H7439 C7458 0.951 . S
H7440 C7460 0.950 . S
H7441 C7461 0.950 . S
H7442 C7463 0.950 . S
H7443 C7466 0.950 . S
H7444 C7467 0.950 . S
H7445 C7469 0.950 . S
H7446 C7470 0.950 . S
H7447 C7471 0.951 . S
H7448 C7473 0.951 . S
H7449 C7475 0.950 . S
H7450 C7476 0.950 . S
H7451 C7478 0.950 . S
H7452 C7481 0.950 . S
H7453 C7482 0.950 . S
H7454 C7484 0.950 . S
H7455 C7485 0.950 . S
C7456 H7438 0.951 . S
C7456 C7457 1.366 . S
C7456 C7458 1.388 . S
C7457 C7456 1.366 . S
C7457 C7461 1.385 . S
C7458 H7439 0.951 . S
C7458 C7456 1.388 . S
C7458 C7459 1.366 . S
C7459 C7458 1.366 . S
C7459 C7460 1.414 . S
C7459 C7462 1.499 . S
C7460 H7440 0.950 . S
C7460 C7459 1.414 . S
C7460 C7461 1.374 . S
C7461 H7441 0.950 . S
C7461 C7457 1.385 . S
C7461 C7460 1.374 . S
C7462 C7459 1.499 . S
C7462 C7463 1.373 . S
C7462 C7464 1.389 . S
C7463 H7442 0.950 . S
C7463 C7462 1.373 . S
C7463 C7479 1.377 . S
C7464 C7462 1.389 . S
C7464 C7465 1.524 . S
C7464 C7478 1.377 . S
C7465 C7464 1.524 . S
C7465 C7466 1.397 . S
C7465 C7470 1.363 . S
C7466 H7443 0.950 . S
C7466 C7465 1.397 . S
C7466 C7467 1.334 . S
C7467 H7444 0.950 . S
C7467 C7466 1.334 . S
C7467 C7468 1.287 . S
C7468 C7467 1.287 . S
C7468 C7469 1.524 . S
C7468 H7487 0.913 . S
C7469 H7445 0.950 . S
C7469 C7468 1.524 . S
C7469 C7470 1.415 . S
C7470 H7446 0.950 . S
C7470 C7465 1.363 . S
C7470 C7469 1.415 . S
C7471 H7447 0.951 . S
C7471 C7472 1.366 . S
C7471 C7473 1.388 . S
C7472 C7471 1.366 . S
C7472 C7476 1.385 . S
C7473 H7448 0.951 . S
C7473 C7471 1.388 . S
C7473 C7474 1.366 . S
C7474 C7473 1.366 . S
C7474 C7475 1.414 . S
C7474 C7477 1.499 . S
C7475 H7449 0.950 . S
C7475 C7474 1.414 . S
C7475 C7476 1.374 . S
C7476 H7450 0.950 . S
C7476 C7472 1.385 . S
C7476 C7475 1.374 . S
C7477 C7474 1.499 . S
C7477 C7478 1.373 . S
C7477 C7479 1.389 . S
C7478 H7451 0.950 . S
C7478 C7464 1.377 . S
C7478 C7477 1.373 . S
C7479 C7463 1.377 . S
C7479 C7477 1.389 . S
C7479 C7480 1.524 . S
C7480 C7479 1.524 . S
C7480 C7481 1.397 . S
C7480 C7485 1.363 . S
C7481 H7452 0.950 . S
C7481 C7480 1.397 . S
C7481 C7482 1.334 . S
C7482 H7453 0.950 . S
C7482 C7481 1.334 . S
C7482 C7483 1.287 . S
C7483 C7482 1.287 . S
C7483 C7484 1.524 . S
C7483 H7486 0.999 . S
C7484 H7454 0.950 . S
C7484 C7483 1.524 . S
C7484 C7485 1.415 . S
C7485 H7455 0.950 . S
C7485 C7480 1.363 . S
C7485 C7484 1.415 . S
H7486 C7483 0.999 . S
H7487 C7468 0.913 . S
C2707 C2166 1.349 . S
C2722 C66 1.355 . S
C2757 C2082 1.261 . S
C2772 C150 1.261 . S
C2807 C2334 1.261 . S
C2822 C234 1.259 . S
C2857 C2250 1.350 . S
C2872 C318 1.355 . S
C2907 C411 1.350 . S
C2922 C2511 1.356 . S
C2957 C495 1.259 . S
C2972 C2427 1.261 . S
C3007 C579 1.261 . S
C3022 C2679 1.260 . S
C3057 C2595 1.349 . S
C3072 C663 1.355 . S
C3107 C1494 1.259 . S
C3122 C738 1.261 . S
C3157 C1410 1.349 . S
C3172 C822 1.356 . S
C3207 C1662 1.349 . S
C3222 C906 1.356 . S
C3257 C1578 1.259 . S
C3272 C990 1.261 . S
C3307 C1083 1.259 . S
C3322 C1839 1.260 . S
C3357 C1755 1.348 . S
C3372 C1167 1.357 . S
C3407 C1251 1.350 . S
C3422 C2007 1.355 . S
C3457 C1923 1.259 . S
C3472 C1335 1.260 . S
C3507 C63 0.673 . S
C3522 C1752 0.659 . S
C3557 C1164 0.658 . S
C3572 C147 0.658 . S
C3607 C2592 0.656 . S
C3622 C231 0.655 . S
C3657 C315 0.671 . S
C3672 C660 0.657 . S
C3707 C408 0.671 . S
C3722 C1407 0.657 . S
C3757 C492 0.654 . S
C3772 C819 0.655 . S
C3807 C576 0.654 . S
C3822 C2247 0.654 . S
C3857 C2424 0.662 . S
C3872 C735 0.662 . S
C3907 C1920 0.658 . S
C3922 C903 0.658 . S
C3957 C1332 0.662 . S
C3972 C987 0.662 . S
C4007 C2079 0.663 . S
C4022 C1080 0.663 . S
C4057 C1248 0.656 . S
C4072 C1575 0.655 . S
C4107 C2508 0.657 . S
C4122 C1491 0.656 . S
C4157 C1659 0.672 . S
C4172 C2004 0.658 . S
C4207 C2163 0.655 . S
C4222 C1836 0.655 . S
C4257 C2331 0.662 . S
C4272 C2676 0.662 . S
C4307 C72 0.736 . S
C4322 C1668 0.733 . S
C4357 C156 0.677 . S
C4372 C1584 0.673 . S
C4407 C240 0.674 . S
C4422 C1500 0.676 . S
C4457 C324 0.733 . S
C4472 C1416 0.737 . S
C4507 C399 0.734 . S
C4522 C1995 0.736 . S
C4557 C483 0.676 . S
C4572 C1911 0.675 . S
C4607 C567 0.676 . S
C4622 C1827 0.674 . S
C4657 C651 0.734 . S
C4672 C1743 0.734 . S
C4707 C744 0.683 . S
C4722 C2340 0.686 . S
C4757 C828 0.677 . S
C4772 C2256 0.677 . S
C4807 C912 0.676 . S
C4822 C2172 0.679 . S
C4857 C996 0.683 . S
C4872 C2088 0.686 . S
C4907 C2667 0.686 . S
C4922 C1071 0.683 . S
C4957 C2583 0.675 . S
C4972 C1155 0.679 . S
C5007 C2499 0.679 . S
C5022 C1239 0.675 . S
C5057 C2415 0.686 . S
C5072 C1323 0.683 . S
C5107 C243 2.173 . S
C5122 C75 2.166 . S
C5157 C327 2.173 . S
C5172 C159 2.166 . S
C5207 C570 2.173 . S
C5222 C402 2.166 . S
C5257 C486 2.173 . S
C5272 C654 2.166 . S
C5307 C915 2.261 . S
C5322 C747 2.261 . S
C5357 C831 2.262 . S
C5372 C999 2.262 . S
C5407 C1242 2.262 . S
C5422 C1074 2.261 . S
C5457 C1158 2.261 . S
C5472 C1326 2.261 . S
C5507 C1419 2.172 . S
C5522 C1587 2.167 . S
C5557 C1503 2.173 . S
C5572 C1671 2.166 . S
C5607 C1914 2.173 . S
C5622 C1746 2.166 . S
C5657 C1830 2.173 . S
C5672 C1998 2.166 . S
C5707 C2091 2.261 . S
C5722 C2259 2.261 . S
C5757 C2343 2.261 . S
C5772 C2175 2.261 . S
C5807 C2418 2.261 . S
C5822 C2586 2.262 . S
C5857 C2502 2.262 . S
C5872 C2670 2.261 . S
C5907 C67 2.544 1_565 S
C5922 C655 2.542 . S
C5957 C2587 2.558 . S
C5972 C151 2.542 . S
C6007 C235 2.543 . S
C6022 C1159 2.558 . S
C6057 C319 2.543 1_565 S
C6072 C1747 2.542 . S
C6107 C308 2.544 . S
C6122 C392 2.545 1_545 S
C6157 C476 2.543 . S
C6172 C2240 2.558 . S
C6207 C812 2.558 . S
C6222 C560 2.543 . S
C6257 C1400 2.544 . S
C6272 C644 2.545 1_545 S
C6307 C739 2.540 . S
C6322 C1327 2.551 . S
C6357 C1915 2.564 . S
C6372 C823 2.548 . S
C6407 C907 2.548 . S
C6422 C487 2.564 . S
C6457 C2419 2.550 . S
C6472 C991 2.540 . S
C6507 C1064 2.540 . S
C6522 C980 2.550 . S
C6557 C1148 2.548 . S
C6572 C1568 2.564 . S
C6607 C1232 2.548 . S
C6622 C140 2.564 . S
C6657 C2072 2.551 . S
C6672 C1316 2.540 . S
C6707 C1411 2.543 1_565 S
C6722 C1999 2.542 . S
C6757 C1495 2.543 . S
C6772 C1243 2.558 . S
C6807 C1579 2.543 . S
C6822 C2503 2.558 . S
C6857 C1663 2.543 1_565 S
C6872 C403 2.542 . S
C6907 C1736 2.544 1_545 S
C6922 C1652 2.542 . S
C6957 C896 2.558 . S
C6972 C1820 2.542 . S
C7007 C2156 2.558 . S
C7022 C1904 2.543 . S
C7057 C1988 2.544 1_545 S
C7072 C56 2.542 . S
C7107 C2671 2.550 . S
C7122 C2083 2.541 . S
C7157 C571 2.564 . S
C7172 C2167 2.549 . S
C7207 C1831 2.564 . S
C7222 C2251 2.548 . S
C7257 C2335 2.540 . S
C7272 C1075 2.551 . S
C7307 C2324 2.551 . S
C7322 C2408 2.541 . S
C7357 C224 2.564 . S
C7372 C2492 2.549 . S
C7407 C1484 2.564 . S
C7422 C2576 2.548 . S
C7457 C2660 2.540 . S
C7472 C728 2.551 . S
