# Generated by pormake.
# Topology fcu, (12)-cn, num edge types: 1
# Building blocks:
#     Node 0, Type 0, BuildingBlock: UKIBUN_clean_sbu_0, # of connection points: 12
#     Node 1, Type 0, BuildingBlock: UKIBUN_clean_sbu_0, # of connection points: 12
#     Node 2, Type 0, BuildingBlock: UKIBUN_clean_sbu_0, # of connection points: 12
#     Node 3, Type 0, BuildingBlock: UKIBUN_clean_sbu_0, # of connection points: 12
#     Edge 4, Type (0, 0), BuildingBlock: KIFKEQ_clean_linker_1, # of connection points: 2
#     Edge 5, Type (0, 0), BuildingBlock: KIFKEQ_clean_linker_1, # of connection points: 2
#     Edge 6, Type (0, 0), BuildingBlock: KIFKEQ_clean_linker_1, # of connection points: 2
#     Edge 7, Type (0, 0), BuildingBlock: KIFKEQ_clean_linker_1, # of connection points: 2
#     Edge 8, Type (0, 0), BuildingBlock: KIFKEQ_clean_linker_1, # of connection points: 2
#     Edge 9, Type (0, 0), BuildingBlock: KIFKEQ_clean_linker_1, # of connection points: 2
#     Edge 10, Type (0, 0), BuildingBlock: KIFKEQ_clean_linker_1, # of connection points: 2
#     Edge 11, Type (0, 0), BuildingBlock: KIFKEQ_clean_linker_1, # of connection points: 2
#     Edge 12, Type (0, 0), BuildingBlock: KIFKEQ_clean_linker_1, # of connection points: 2
#     Edge 13, Type (0, 0), BuildingBlock: KIFKEQ_clean_linker_1, # of connection points: 2
#     Edge 14, Type (0, 0), BuildingBlock: KIFKEQ_clean_linker_1, # of connection points: 2
#     Edge 15, Type (0, 0), BuildingBlock: KIFKEQ_clean_linker_1, # of connection points: 2
#     Edge 16, Type (0, 0), BuildingBlock: KIFKEQ_clean_linker_1, # of connection points: 2
#     Edge 17, Type (0, 0), BuildingBlock: KIFKEQ_clean_linker_1, # of connection points: 2
#     Edge 18, Type (0, 0), BuildingBlock: KIFKEQ_clean_linker_1, # of connection points: 2
#     Edge 19, Type (0, 0), BuildingBlock: KIFKEQ_clean_linker_1, # of connection points: 2
#     Edge 20, Type (0, 0), BuildingBlock: KIFKEQ_clean_linker_1, # of connection points: 2
#     Edge 21, Type (0, 0), BuildingBlock: KIFKEQ_clean_linker_1, # of connection points: 2
#     Edge 22, Type (0, 0), BuildingBlock: KIFKEQ_clean_linker_1, # of connection points: 2
#     Edge 23, Type (0, 0), BuildingBlock: KIFKEQ_clean_linker_1, # of connection points: 2
#     Edge 24, Type (0, 0), BuildingBlock: KIFKEQ_clean_linker_1, # of connection points: 2
#     Edge 25, Type (0, 0), BuildingBlock: KIFKEQ_clean_linker_1, # of connection points: 2
#     Edge 26, Type (0, 0), BuildingBlock: KIFKEQ_clean_linker_1, # of connection points: 2
#     Edge 27, Type (0, 0), BuildingBlock: KIFKEQ_clean_linker_1, # of connection points: 2
# Relax obj value: 0.006
# Max RMSD: 0.049
# Mean RMSD: 0.049
data_MOF--net-fcu--node1-UKIBUN_clean_sbu_0--edge1-KIFKEQ_clean_linker_1
_symmetry_space_group_name_H-M    P1
_symmetry_Int_Tables_number       1
_symmetry_cell_setting            triclinic
loop_
_symmetry_equiv_pos_as_xyz
'x, y, z'
_cell_length_a     26.846802
_cell_length_b     26.846734
_cell_length_c     26.846869
_cell_angle_alpha  89.99779
_cell_angle_beta   89.997652
_cell_angle_gamma 90.001082
loop_
_atom_site_label
_atom_site_type_symbol
_atom_site_fract_x
_atom_site_fract_y
_atom_site_fract_z
_atom_type_partial_charge
C0 C -0.00128 0.11414 0.11535 0.0
C1 C 0.88109 0.11479 -0.00118 0.0
O2 O 0.04037 0.03977 0.03991 0.0
O3 O 0.95604 0.95558 0.04004 0.0
O4 O 0.04025 0.95542 0.03952 0.0
O5 O 0.95604 0.0398 0.04048 0.0
Hf6 Hf -0.00147 0.99746 0.08756 0.0
O7 O 0.03977 0.04018 0.9557 0.0
Hf8 Hf -0.00205 0.08759 -0.00166 0.0
O9 O 0.03963 0.95596 0.95518 0.0
Hf10 Hf 0.08758 0.9977 0.99727 0.0
O11 O 0.95543 0.04032 0.95624 0.0
Hf12 Hf 0.99777 0.90816 0.99734 0.0
Hf13 Hf 0.90816 -0.00212 -0.00156 0.0
O14 O 0.9554 0.95599 0.95571 0.0
Hf15 Hf 0.99722 -0.00153 0.90813 0.0
C16 C 0.8809 0.88108 0.9977 0.0
C17 C 0.11488 0.11455 -0.00205 0.0
C18 C 0.11457 0.88081 0.99703 0.0
C19 C 0.11556 0.99715 0.11395 0.0
O20 O 0.06981 -0.0021 0.12872 0.0
O21 O 0.92776 -0.00207 0.12974 0.0
C22 C 0.88182 0.99748 0.1155 0.0
O23 O 0.92593 -0.00063 0.86698 0.0
O24 O -0.00113 0.867 0.92602 0.0
O25 O 0.99656 0.86614 0.06816 0.0
O26 O 0.06802 -0.00063 0.86598 0.0
O27 O -0.00198 0.12974 0.92759 0.0
O28 O -0.00215 0.12888 0.06959 0.0
O29 O 0.86654 0.06896 -0.00186 0.0
O30 O 0.86645 0.9269 -0.00063 0.0
C31 C 0.11395 -0.00134 0.88022 0.0
O32 O 0.12914 0.92661 0.99594 0.0
O33 O 0.12934 0.06868 -0.00184 0.0
C34 C 0.8802 -0.00178 0.88176 0.0
O35 O 0.99648 0.06975 0.86691 0.0
O36 O -0.0008 0.92616 0.12879 0.0
O37 O -0.00054 0.06824 0.12963 0.0
O38 O 0.99647 0.92768 0.86604 0.0
O39 O 0.86598 0.99698 0.92769 0.0
O40 O 0.12874 0.99777 0.92596 0.0
C41 C 0.9977 0.88175 0.88027 0.0
O42 O 0.12977 0.99645 0.06802 0.0
O43 O 0.06906 0.12914 0.99773 0.0
O44 O 0.86702 0.99725 0.06976 0.0
O45 O 0.06872 0.86638 -0.00174 0.0
O46 O 0.92671 0.86654 0.99603 0.0
O47 O 0.92694 0.12928 -0.00072 0.0
C48 C 0.9972 0.1155 0.88167 0.0
C49 C -0.00217 0.8804 0.11407 0.0
C50 C 0.99708 0.6156 0.61388 0.0
C51 C 0.88027 0.614 0.4976 0.0
O52 O 0.03976 0.54054 0.53966 0.0
O53 O 0.95598 0.45574 0.54032 0.0
O54 O 0.04019 0.45635 0.54023 0.0
O55 O 0.95541 0.54012 0.53973 0.0
Hf56 Hf 0.99779 0.49856 0.58756 0.0
O57 O 0.03975 0.53998 0.45537 0.0
Hf58 Hf 0.99732 0.58757 0.49722 0.0
O59 O 0.0403 0.4556 0.45596 0.0
Hf60 Hf 0.08757 0.49839 0.49775 0.0
O61 O 0.95553 0.53936 0.45546 0.0
Hf62 Hf -0.0016 0.40814 0.49846 0.0
Hf63 Hf 0.90815 0.49731 0.49794 0.0
O64 O 0.95596 0.45518 0.45602 0.0
Hf65 Hf -0.00208 0.49717 0.40813 0.0
C66 C 0.88172 0.38026 0.49847 0.0
C67 C 0.11401 0.61543 0.49718 0.0
C68 C 0.11545 0.3817 0.49814 0.0
C69 C 0.11471 0.49895 0.61466 0.0
O70 O 0.06887 0.49969 0.62918 0.0
O71 O 0.92679 0.49916 0.62926 0.0
C72 C 0.88097 0.49781 0.61476 0.0
O73 O 0.92685 0.49602 0.36652 0.0
O74 O -0.00165 0.36592 0.42773 0.0
O75 O -0.00091 0.36705 0.56979 0.0
O76 O 0.06892 0.49663 0.36643 0.0
O77 O 0.99655 0.62868 0.42589 0.0
O78 O 0.99758 0.62982 0.56794 0.0
O79 O 0.86603 0.56808 0.4987 0.0
O80 O 0.86693 0.42601 0.49852 0.0
C81 C 0.11474 0.49795 0.38093 0.0
O82 O 0.12969 0.42762 0.49705 0.0
O83 O 0.12879 0.56968 0.4972 0.0
C84 C 0.881 0.49671 0.38103 0.0
O85 O -0.00187 0.56793 0.36593 0.0
O86 O 0.99745 0.4278 0.62974 0.0
O87 O 0.99678 0.56987 0.6287 0.0
O88 O -0.00109 0.42588 0.36699 0.0
O89 O 0.8665 0.4976 0.42688 0.0
O90 O 0.12925 0.4992 0.42675 0.0
C91 C -0.00123 0.38013 0.38179 0.0
O92 O 0.12921 0.49805 0.56881 0.0
O93 O 0.06809 0.6297 0.49731 0.0
O94 O 0.86647 0.4965 0.56895 0.0
O95 O 0.0697 0.36694 0.49913 0.0
O96 O 0.92764 0.366 0.49827 0.0
O97 O 0.92602 0.62877 0.49659 0.0
C98 C 0.99721 0.61387 0.38015 0.0
C99 C -0.00165 0.38186 0.61553 0.0
C100 C 0.49801 0.11507 0.61439 0.0
C101 C 0.38181 0.11545 0.49708 0.0
O102 O 0.54007 0.03985 0.54019 0.0
O103 O 0.45514 0.95611 0.53982 0.0
O104 O 0.53937 0.95552 0.54037 0.0
O105 O 0.45574 0.04034 0.5395 0.0
Hf106 Hf 0.49726 -0.00185 0.58754 0.0
O107 O 0.54061 0.03959 0.4559 0.0
Hf108 Hf 0.49854 0.08757 0.49763 0.0
O109 O 0.53993 0.95536 0.4561 0.0
Hf110 Hf 0.58757 0.99718 0.49849 0.0
O111 O 0.45628 0.04021 0.45534 0.0
Hf112 Hf 0.49718 0.90814 0.49805 0.0
Hf113 Hf 0.40814 -0.00164 0.49717 0.0
O114 O 0.45571 0.95587 0.45544 0.0
Hf115 Hf 0.49844 0.99773 0.40813 0.0
C116 C 0.38017 0.88171 0.49769 0.0
C117 C 0.6156 0.11387 0.49799 0.0
C118 C 0.61387 0.88012 0.49857 0.0
C119 C 0.61394 0.99759 0.61552 0.0
O120 O 0.56802 -0.00109 0.62972 0.0
O121 O 0.42595 -0.00108 0.62869 0.0
C122 C 0.3802 -0.0012 0.61389 0.0
O123 O 0.42772 -0.00188 0.36591 0.0
O124 O 0.49626 0.86637 0.42707 0.0
O125 O 0.49644 0.8667 0.56921 0.0
O126 O 0.56977 -0.00152 0.367 0.0
O127 O 0.49915 0.12912 0.42652 0.0
O128 O 0.49958 0.12944 0.56854 0.0
O129 O 0.36702 0.0697 0.49605 0.0
O130 O 0.36595 0.92763 0.49666 0.0
C131 C 0.61551 0.99733 0.38177 0.0
O132 O 0.62867 0.92586 0.49939 0.0
O133 O 0.62979 0.06793 0.49915 0.0
C134 C 0.38179 0.99771 0.38015 0.0
O135 O 0.49798 0.06865 0.3663 0.0
O136 O 0.49753 0.92722 0.6294 0.0
O137 O 0.49647 0.06929 0.629 0.0
O138 O 0.49918 0.92658 0.36664 0.0
O139 O 0.36698 0.99746 0.42589 0.0
O140 O 0.62972 0.99624 0.4277 0.0
C141 C 0.49772 0.88077 0.38121 0.0
O142 O 0.62872 0.99638 0.56978 0.0
O143 O 0.56986 0.12867 0.4969 0.0
O144 O 0.36597 -0.00166 0.56795 0.0
O145 O 0.56793 0.86592 0.49761 0.0
O146 O 0.42591 0.86694 0.49868 0.0
O147 O 0.42774 0.12968 0.49823 0.0
C148 C 0.4986 0.11451 0.38071 0.0
C149 C 0.4969 0.88134 0.61501 0.0
C150 C 0.49791 0.61431 0.1151 0.0
C151 C 0.38069 0.61444 0.99778 0.0
O152 O 0.53986 0.53995 0.04011 0.0
O153 O 0.45585 0.45544 0.03983 0.0
O154 O 0.54016 0.45567 0.03985 0.0
O155 O 0.45562 0.53971 0.04015 0.0
Hf156 Hf 0.49788 0.49749 0.08757 0.0
O157 O 0.53991 0.54028 0.95586 0.0
Hf158 Hf 0.49758 0.58757 -0.00185 0.0
O159 O 0.54013 0.45599 0.95554 0.0
Hf160 Hf 0.58759 0.49809 -0.00216 0.0
O161 O 0.45559 0.54005 0.95584 0.0
Hf162 Hf 0.49816 0.40814 0.99755 0.0
Hf163 Hf 0.40816 0.49763 -0.00215 0.0
O164 O 0.45588 0.45577 0.95558 0.0
Hf165 Hf 0.49787 0.49822 0.90814 0.0
C166 C 0.38131 0.38069 -0.00213 0.0
C167 C 0.61443 0.61503 -0.00201 0.0
C168 C 0.61507 0.38128 -0.00188 0.0
C169 C 0.61476 0.49726 0.1147 0.0
O170 O 0.56892 0.49622 0.12921 0.0
O171 O 0.42685 0.49725 0.12923 0.0
C172 C 0.38101 0.49804 0.11472 0.0
O173 O 0.42683 0.49943 0.8665 0.0
O174 O 0.49933 0.36677 0.92638 0.0
O175 O 0.49835 0.3662 0.06845 0.0
O176 O 0.5689 0.49847 0.86646 0.0
O177 O 0.49649 0.6295 0.92724 0.0
O178 O 0.49712 0.62896 0.06931 0.0
O179 O 0.3663 0.56856 0.99666 0.0
O180 O 0.36672 0.42649 -0.00099 0.0
C181 C 0.61474 0.49814 0.88097 0.0
O182 O 0.62947 0.42715 0.99751 0.0
O183 O 0.62903 0.56922 -0.00172 0.0
C184 C 0.381 0.49797 0.88098 0.0
O185 O 0.49867 0.56936 0.86672 0.0
O186 O 0.49705 0.42635 0.12898 0.0
O187 O 0.49873 0.56842 0.12948 0.0
O188 O 0.4971 0.4273 0.86624 0.0
O189 O 0.36651 0.49643 0.92681 0.0
O190 O 0.62925 0.49784 0.92681 0.0
C191 C 0.49824 0.38141 0.88059 0.0
O192 O 0.62926 0.49847 0.06887 0.0
O193 O 0.56854 0.62943 0.99763 0.0
O194 O 0.36651 0.49873 0.06888 0.0
O195 O 0.56926 0.36667 -0.00149 0.0
O196 O 0.42719 0.3663 0.99667 0.0
O197 O 0.42648 0.62904 -0.00105 0.0
C198 C 0.49756 0.61515 0.88135 0.0
C199 C 0.49766 0.38056 0.11433 0.0
H200 H 0.02695 0.10452 0.21281 0.0
H201 H 0.97053 0.21162 0.10662 0.0
H202 H 0.02783 0.16861 0.27695 0.0
H203 H 0.9699 0.27526 0.17112 0.0
H204 H 0.02347 0.38992 0.28342 0.0
H205 H 0.02429 0.3256 0.21966 0.0
H206 H 0.97409 0.21752 0.32795 0.0
H207 H 0.97475 0.28154 0.39214 0.0
C208 C 0.01432 0.14164 0.20324 0.0
C209 C -0.00122 0.15295 0.15453 0.0
C210 C 0.01461 0.17837 0.24012 0.0
C211 C -0.00107 0.22718 0.22929 0.0
C212 C 0.98309 0.23834 0.18061 0.0
C213 C 0.98324 0.20175 0.14363 0.0
C214 C 0.01254 0.35245 0.29367 0.0
C215 C -0.00094 0.34094 0.34295 0.0
C216 C 0.01278 0.31557 0.25699 0.0
C217 C -0.00087 0.26632 0.26854 0.0
C218 C 0.98558 0.25484 0.31785 0.0
C219 C 0.98575 0.29165 0.35465 0.0
H220 H 0.7842 0.9699 0.1064 0.0
H221 H 0.89157 0.02423 0.21339 0.0
H222 H 0.72049 0.96888 0.17081 0.0
H223 H 0.8274 0.0248 0.27745 0.0
H224 H 0.71387 0.97229 0.39204 0.0
H225 H 0.77793 0.97132 0.32792 0.0
H226 H 0.6704 0.02292 0.21975 0.0
H227 H 0.60601 0.02231 0.28342 0.0
C228 C 0.79412 0.98207 0.14357 0.0
C229 C 0.84301 0.99717 0.1547 0.0
C230 C 0.75748 0.9817 0.18051 0.0
C231 C 0.76867 0.9969 0.22939 0.0
C232 C 0.81759 0.01208 0.24046 0.0
C233 C 0.85438 0.01198 0.20362 0.0
C234 C 0.70388 0.98349 0.35459 0.0
C235 C 0.65472 0.99729 0.34292 0.0
C236 C 0.74073 0.98316 0.31782 0.0
C237 C 0.72944 0.99706 0.26857 0.0
C238 C 0.68031 0.01114 0.25703 0.0
C239 C 0.64337 0.01103 0.29367 0.0
H240 H 0.97232 0.78218 0.1038 0.0
H241 H 0.02311 0.88971 0.21238 0.0
H242 H 0.97119 0.71807 0.16785 0.0
H243 H 0.02354 0.82525 0.27601 0.0
H244 H 0.96993 0.71159 0.38931 0.0
H245 H 0.96919 0.77536 0.32496 0.0
H246 H 0.02458 0.66831 0.21819 0.0
H247 H 0.02378 0.6041 0.28219 0.0
C248 C 0.98365 0.79209 0.14124 0.0
C249 C 0.9977 0.84118 0.15292 0.0
C250 C 0.98323 0.75521 0.17797 0.0
C251 C 0.99728 0.76639 0.22719 0.0
C252 C 0.01162 0.81544 0.23875 0.0
C253 C 0.01162 0.85242 0.20214 0.0
C254 C 0.98203 0.70164 0.35212 0.0
C255 C 0.99694 0.6527 0.34095 0.0
C256 C 0.98183 0.73832 0.31522 0.0
C257 C 0.99697 0.72712 0.26633 0.0
C258 C 0.01192 0.67814 0.2552 0.0
C259 C 0.01169 0.64132 0.292 0.0
H260 H 0.28464 0.96858 0.38887 0.0
H261 H 0.39115 0.02624 0.28278 0.0
H262 H 0.22093 0.96762 0.32444 0.0
H263 H 0.32697 0.02685 0.2187 0.0
H264 H 0.21433 0.97388 0.10336 0.0
H265 H 0.2784 0.9732 0.16747 0.0
H266 H 0.17003 0.02164 0.27627 0.0
H267 H 0.10566 0.02077 0.2126 0.0
C268 C 0.29435 0.98149 0.35189 0.0
C269 C 0.343 0.99746 0.34098 0.0
C270 C 0.25772 0.98115 0.31495 0.0
C271 C 0.26868 0.99728 0.26631 0.0
C272 C 0.31736 0.01339 0.25549 0.0
C273 C 0.35415 0.01325 0.29231 0.0
C274 C 0.20414 0.98442 0.14096 0.0
C275 C 0.15476 0.99724 0.1528 0.0
C276 C 0.241 0.98428 0.17772 0.0
C277 C 0.22947 0.99736 0.22713 0.0
C278 C 0.18012 0.01048 0.23885 0.0
C279 C 0.14319 0.01022 0.20221 0.0
H280 H 0.02262 0.78336 0.88975 0.0
H281 H 0.97284 0.8921 0.78188 0.0
H282 H 0.02317 0.71971 0.82532 0.0
H283 H 0.97183 0.82802 0.7178 0.0
H284 H 0.02429 0.71336 0.60413 0.0
H285 H 0.02522 0.7774 0.66832 0.0
H286 H 0.96886 0.67097 0.77524 0.0
H287 H 0.96949 0.60659 0.7115 0.0
C288 C 0.01139 0.79364 0.85238 0.0
C289 C 0.99772 0.84292 0.84104 0.0
C290 C 0.01146 0.75702 0.81542 0.0
C291 C 0.99743 0.76861 0.76629 0.0
C292 C 0.98364 0.81788 0.75501 0.0
C293 C 0.98398 0.85463 0.79187 0.0
C294 C 0.01199 0.70365 0.64132 0.0
C295 C 0.99691 0.6548 0.65268 0.0
C296 C 0.01231 0.74046 0.67812 0.0
C297 C 0.99712 0.72944 0.72705 0.0
C298 C 0.98168 0.68063 0.73824 0.0
C299 C 0.98182 0.64371 0.70158 0.0
H300 H 0.21175 0.97162 0.88921 0.0
H301 H 0.10412 0.02594 0.78247 0.0
H302 H 0.27545 0.97119 0.82479 0.0
H303 H 0.16827 0.02705 0.71839 0.0
H304 H 0.28178 0.97412 0.60371 0.0
H305 H 0.21772 0.97355 0.66786 0.0
H306 H 0.32538 0.02543 0.77577 0.0
H307 H 0.38976 0.02447 0.71204 0.0
C308 C 0.20176 0.98391 0.85209 0.0
C309 C 0.15279 -0.00119 0.84103 0.0
C310 C 0.2384 0.98389 0.81515 0.0
C311 C 0.22713 -0.0008 0.76633 0.0
C312 C 0.17815 0.01425 0.75534 0.0
C313 C 0.14137 0.01383 0.79218 0.0
C314 C 0.29178 0.98549 0.64111 0.0
C315 C 0.34098 -0.00082 0.65272 0.0
C316 C 0.25495 0.98539 0.67789 0.0
C317 C 0.2663 -0.00057 0.72708 0.0
C318 C 0.31545 0.01352 0.73854 0.0
C319 C 0.35237 0.01318 0.70188 0.0
H320 H 0.97089 0.39156 0.71322 0.0
H321 H 0.02616 0.28428 0.60662 0.0
H322 H 0.96984 0.32736 0.77725 0.0
H323 H 0.02664 0.22052 0.67101 0.0
H324 H 0.97229 0.10603 0.78329 0.0
H325 H 0.97196 0.17046 0.7196 0.0
H326 H 0.02332 0.27792 0.82796 0.0
H327 H 0.02218 0.21383 0.89205 0.0
C328 C 0.98325 0.35439 0.70354 0.0
C329 C -0.00153 0.34306 0.65473 0.0
C330 C 0.98286 0.31759 0.74035 0.0
C331 C -0.00186 0.26868 0.72937 0.0
C332 C 0.01375 0.25752 0.68062 0.0
C333 C 0.01369 0.29418 0.6437 0.0
C334 C 0.98358 0.14339 0.79356 0.0
C335 C 0.99721 0.15472 0.84284 0.0
C336 C 0.98362 0.18034 0.75693 0.0
C337 C 0.99773 0.22945 0.76854 0.0
C338 C 0.01147 0.24072 0.81782 0.0
C339 C 0.01102 0.20386 0.85457 0.0
H340 H 0.60366 0.02246 0.7139 0.0
H341 H 0.71224 0.97237 0.60601 0.0
H342 H 0.66779 0.0234 0.77795 0.0
H343 H 0.77593 0.97177 0.6704 0.0
H344 H 0.88916 0.02566 0.78406 0.0
H345 H 0.82475 0.0262 0.72036 0.0
H346 H 0.71839 0.96995 0.82739 0.0
H347 H 0.78244 0.97097 0.89154 0.0
C348 C 0.64111 0.01125 0.7039 0.0
C349 C 0.65278 0.99748 0.65473 0.0
C350 C 0.67788 0.01155 0.74074 0.0
C351 C 0.72712 0.99767 0.72942 0.0
C352 C 0.73865 0.98355 0.6803 0.0
C353 C 0.702 0.98367 0.64338 0.0
C354 C 0.85205 0.01333 0.79403 0.0
C355 C 0.841 -0.00173 0.84295 0.0
C356 C 0.81512 0.01341 0.75739 0.0
C357 C 0.76632 -0.00201 0.76862 0.0
C358 C 0.75533 0.98283 0.81756 0.0
C359 C 0.79216 0.98319 0.85434 0.0
H360 H 0.28303 0.3905 0.02309 0.0
H361 H 0.39122 0.28234 0.97278 0.0
H362 H 0.21916 0.32626 0.02386 0.0
H363 H 0.32694 0.21847 0.97197 0.0
H364 H 0.21268 0.10496 0.02489 0.0
H365 H 0.27665 0.16917 0.02565 0.0
H366 H 0.16989 0.27615 0.97006 0.0
H367 H 0.10553 0.21234 0.97089 0.0
C368 C 0.29314 0.35311 0.01179 0.0
C369 C 0.34233 0.34162 -0.00207 0.0
C370 C 0.25639 0.31626 0.01199 0.0
C371 C 0.26778 0.2671 -0.0021 0.0
C372 C 0.31696 0.25569 0.98385 0.0
C373 C 0.35382 0.29243 0.98409 0.0
C374 C 0.20286 0.14217 0.01276 0.0
C375 C 0.15394 0.1535 -0.00208 0.0
C376 C 0.23964 0.17899 0.01296 0.0
C377 C 0.22854 0.22792 -0.00213 0.0
C378 C 0.17963 0.23913 0.98277 0.0
C379 C 0.14272 0.20244 0.98303 0.0
H380 H 0.28248 0.60451 0.97221 0.0
H381 H 0.39038 0.7127 0.02309 0.0
H382 H 0.21861 0.66878 0.97108 0.0
H383 H 0.32614 0.77657 0.0235 0.0
H384 H 0.2124 0.89013 0.96997 0.0
H385 H 0.27621 0.82579 0.96929 0.0
H386 H 0.16916 0.71903 0.02473 0.0
H387 H 0.10495 0.78296 0.02385 0.0
C388 C 0.29252 0.64191 0.98356 0.0
C389 C 0.34162 0.65341 0.99766 0.0
C390 C 0.25578 0.67877 0.98314 0.0
C391 C 0.26713 0.72794 0.99724 0.0
C392 C 0.31621 0.73934 0.01158 0.0
C393 C 0.35305 0.70259 0.01158 0.0
C394 C 0.20246 0.85294 0.98209 0.0
C395 C 0.15351 0.84173 0.99694 0.0
C396 C 0.23916 0.81605 0.98192 0.0
C397 C 0.22794 0.76715 0.99704 0.0
C398 C 0.17899 0.75603 0.01204 0.0
C399 C 0.14217 0.7928 0.01177 0.0
H400 H 0.71326 0.39092 0.97244 0.0
H401 H 0.60533 0.28336 0.02456 0.0
H402 H 0.77714 0.32661 0.97209 0.0
H403 H 0.66956 0.21946 0.02572 0.0
H404 H 0.78305 0.10533 0.97264 0.0
H405 H 0.71929 0.16971 0.97188 0.0
H406 H 0.82666 0.27673 0.02616 0.0
H407 H 0.89083 0.21272 0.02539 0.0
C408 C 0.70323 0.35365 0.98425 0.0
C409 C 0.65412 0.34231 -0.00156 0.0
C410 C 0.73997 0.31678 0.98427 0.0
C411 C 0.7286 0.26777 -0.00108 0.0
C412 C 0.67951 0.25655 0.01338 0.0
C413 C 0.64267 0.2933 0.01293 0.0
C414 C 0.79307 0.14258 0.98451 0.0
C415 C 0.84211 0.15385 -0.00101 0.0
C416 C 0.7564 0.1795 0.9843 0.0
C417 C 0.76773 0.22849 -0.00099 0.0
C418 C 0.81675 0.23965 0.01377 0.0
C419 C 0.85354 0.20284 0.01355 0.0
H420 H 0.88939 0.78408 0.96771 0.0
H421 H 0.784 0.88991 0.02787 0.0
H422 H 0.82498 0.72031 0.96705 0.0
H423 H 0.72003 0.82569 0.02878 0.0
H424 H 0.60392 0.71405 0.97584 0.0
H425 H 0.66819 0.77792 0.97505 0.0
H426 H 0.77726 0.66878 0.02108 0.0
H427 H 0.71336 0.60459 0.02038 0.0
C428 C 0.85259 0.79363 0.98121 0.0
C429 C 0.84185 0.84214 0.99775 0.0
C430 C 0.81566 0.75696 0.98106 0.0
C431 C 0.76724 0.76775 -0.00207 0.0
C432 C 0.75663 0.81624 0.01471 0.0
C433 C 0.79341 0.85305 0.01439 0.0
C434 C 0.6416 0.70364 0.98586 0.0
C435 C 0.65343 0.6541 -0.00193 0.0
C436 C 0.67846 0.74038 0.98564 0.0
C437 C 0.72799 0.7286 -0.00197 0.0
C438 C 0.73972 0.67909 0.01051 0.0
C439 C 0.70296 0.64226 0.01033 0.0
H440 H 0.60459 0.52187 0.78233 0.0
H441 H 0.71332 0.47423 0.89118 0.0
H442 H 0.66884 0.52245 0.71843 0.0
H443 H 0.77722 0.47337 0.82693 0.0
H444 H 0.88998 0.52666 0.71206 0.0
H445 H 0.82567 0.52746 0.77594 0.0
H446 H 0.71978 0.46821 0.67008 0.0
H447 H 0.78368 0.46892 0.60578 0.0
C448 C 0.64211 0.51112 0.79258 0.0
C449 C 0.65376 0.49807 0.84195 0.0
C450 C 0.67896 0.51123 0.75583 0.0
C451 C 0.72828 0.4979 0.76744 0.0
C452 C 0.73985 0.48465 0.81679 0.0
C453 C 0.7031 0.48493 0.85363 0.0
C454 C 0.853 0.51371 0.70242 0.0
C455 C 0.84198 0.49779 0.65377 0.0
C456 C 0.81613 0.51395 0.73915 0.0
C457 C 0.76748 0.49784 0.72825 0.0
C458 C 0.75659 0.48169 0.67961 0.0
C459 C 0.79332 0.48188 0.64276 0.0
H460 H 0.105 0.52474 0.71282 0.0
H461 H 0.21287 0.47328 0.60489 0.0
H462 H 0.16927 0.52539 0.77671 0.0
H463 H 0.27672 0.47234 0.66916 0.0
H464 H 0.39065 0.52461 0.78305 0.0
H465 H 0.32639 0.52581 0.7192 0.0
H466 H 0.21904 0.47143 0.8262 0.0
H467 H 0.28291 0.47182 0.89048 0.0
C468 C 0.14233 0.51317 0.70278 0.0
C469 C 0.15375 0.49902 0.65367 0.0
C470 C 0.17918 0.5133 0.73953 0.0
C471 C 0.22826 0.49884 0.72821 0.0
C472 C 0.23958 0.48452 0.67909 0.0
C473 C 0.20285 0.48483 0.64223 0.0
C474 C 0.35335 0.51283 0.79298 0.0
C475 C 0.34198 0.49816 0.84195 0.0
C476 C 0.3165 0.5133 0.75625 0.0
C477 C 0.26745 0.49865 0.76743 0.0
C478 C 0.25617 0.48377 0.81639 0.0
C479 C 0.29291 0.48375 0.85325 0.0
H480 H 0.21215 0.52643 0.39006 0.0
H481 H 0.10565 0.46962 0.28348 0.0
H482 H 0.27604 0.52724 0.32577 0.0
H483 H 0.16995 0.46892 0.2196 0.0
H484 H 0.28247 0.52222 0.10462 0.0
H485 H 0.21858 0.52298 0.16886 0.0
H486 H 0.32683 0.47319 0.27715 0.0
H487 H 0.39109 0.47392 0.21328 0.0
C488 C 0.20246 0.51369 0.35301 0.0
C489 C 0.15374 0.49802 0.34192 0.0
C490 C 0.2392 0.51394 0.31616 0.0
C491 C 0.22825 0.49808 0.26744 0.0
C492 C 0.17954 0.4822 0.25646 0.0
C493 C 0.14268 0.48238 0.29319 0.0
C494 C 0.29268 0.51138 0.14212 0.0
C495 C 0.34199 0.49811 0.15375 0.0
C496 C 0.25593 0.51158 0.17896 0.0
C497 C 0.26746 0.4981 0.22826 0.0
C498 C 0.31675 0.48461 0.23981 0.0
C499 C 0.3536 0.48481 0.20307 0.0
H500 H 0.71243 0.52486 0.10551 0.0
H501 H 0.60543 0.46927 0.21224 0.0
H502 H 0.77631 0.52535 0.16981 0.0
H503 H 0.66971 0.46819 0.27612 0.0
H504 H 0.78249 0.52104 0.39104 0.0
H505 H 0.71864 0.52185 0.32678 0.0
H506 H 0.82678 0.47138 0.21867 0.0
H507 H 0.89102 0.47213 0.28257 0.0
C508 C 0.70263 0.5123 0.14259 0.0
C509 C 0.65377 0.49707 0.15371 0.0
C510 C 0.73936 0.51236 0.17945 0.0
C511 C 0.72827 0.49674 0.22823 0.0
C512 C 0.67943 0.48128 0.23923 0.0
C513 C 0.64257 0.48167 0.20249 0.0
C514 C 0.79268 0.51003 0.35358 0.0
C515 C 0.84196 0.49658 0.34201 0.0
C516 C 0.75595 0.51026 0.31672 0.0
C517 C 0.76745 0.49663 0.26746 0.0
C518 C 0.81671 0.48293 0.25598 0.0
C519 C 0.85355 0.48311 0.29274 0.0
H520 H 0.28216 0.89172 0.47141 0.0
H521 H 0.3894 0.78374 0.52408 0.0
H522 H 0.2181 0.82756 0.47043 0.0
H523 H 0.32501 0.72002 0.52459 0.0
H524 H 0.21194 0.60618 0.47071 0.0
H525 H 0.27565 0.67061 0.47004 0.0
H526 H 0.16808 0.77756 0.5241 0.0
H527 H 0.10396 0.71345 0.52327 0.0
C528 C 0.29199 0.8544 0.4832 0.0
C529 C 0.34098 0.84288 0.49772 0.0
C530 C 0.25516 0.81762 0.48285 0.0
C531 C 0.26631 0.76854 0.49743 0.0
C532 C 0.31525 0.75717 0.51227 0.0
C533 C 0.35218 0.79382 0.5122 0.0
C534 C 0.20187 0.64342 0.48254 0.0
C535 C 0.15282 0.65463 0.49703 0.0
C536 C 0.2385 0.68037 0.48237 0.0
C537 C 0.22712 0.72934 0.49714 0.0
C538 C 0.17804 0.74048 0.51173 0.0
C539 C 0.14128 0.70363 0.51146 0.0
H540 H 0.21378 0.39197 0.47306 0.0
H541 H 0.10603 0.28343 0.52352 0.0
H542 H 0.27784 0.32787 0.47205 0.0
H543 H 0.17045 0.21974 0.52405 0.0
H544 H 0.39165 0.21327 0.52414 0.0
H545 H 0.32748 0.2773 0.52532 0.0
H546 H 0.22028 0.17086 0.46959 0.0
H547 H 0.284 0.10646 0.46998 0.0
C548 C 0.20382 0.35453 0.48435 0.0
C549 C 0.15468 0.34286 0.49822 0.0
C550 C 0.24067 0.31777 0.484 0.0
C551 C 0.2294 0.26854 0.49795 0.0
C552 C 0.18032 0.25701 0.5122 0.0
C553 C 0.14337 0.29365 0.51213 0.0
C554 C 0.3544 0.20353 0.51205 0.0
C555 C 0.34298 0.15467 0.49706 0.0
C556 C 0.31761 0.24035 0.51251 0.0
C557 C 0.26862 0.22934 0.49755 0.0
C558 C 0.25735 0.18052 0.48222 0.0
C559 C 0.294 0.14359 0.48221 0.0
H560 H 0.88926 0.7118 0.47044 0.0
H561 H 0.78244 0.6041 0.52449 0.0
H562 H 0.8248 0.77547 0.4699 0.0
H563 H 0.71835 0.6682 0.5255 0.0
H564 H 0.60366 0.78185 0.47325 0.0
H565 H 0.66784 0.71784 0.47212 0.0
H566 H 0.77583 0.82521 0.52443 0.0
H567 H 0.71209 0.88956 0.52404 0.0
C568 C 0.85212 0.70178 0.48263 0.0
C569 C 0.84106 0.65281 0.49753 0.0
C570 C 0.81516 0.7384 0.48255 0.0
C571 C 0.76632 0.72709 0.49779 0.0
C572 C 0.75531 0.6781 0.51276 0.0
C573 C 0.79217 0.64135 0.51241 0.0
C574 C 0.64108 0.79181 0.4846 0.0
C575 C 0.6527 0.84091 0.49863 0.0
C576 C 0.67788 0.755 0.48417 0.0
C577 C 0.7271 0.76627 0.49818 0.0
C578 C 0.73857 0.81533 0.51254 0.0
C579 C 0.7019 0.85224 0.51255 0.0
H580 H 0.7138 0.10377 0.52365 0.0
H581 H 0.60623 0.21198 0.47212 0.0
H582 H 0.77783 0.16795 0.52462 0.0
H583 H 0.67059 0.27571 0.47158 0.0
H584 H 0.78389 0.38938 0.52535 0.0
H585 H 0.72021 0.32491 0.52602 0.0
H586 H 0.82759 0.21824 0.47107 0.0
H587 H 0.89169 0.28236 0.47192 0.0
C588 C 0.70388 0.14114 0.51212 0.0
C589 C 0.65481 0.1527 0.49792 0.0
C590 C 0.74069 0.17794 0.51245 0.0
C591 C 0.72946 0.22709 0.49819 0.0
C592 C 0.68043 0.23851 0.48367 0.0
C593 C 0.64352 0.20185 0.48375 0.0
C594 C 0.79392 0.35218 0.51333 0.0
C595 C 0.84292 0.34105 0.4986 0.0
C596 C 0.7573 0.31522 0.51349 0.0
C597 C 0.76864 0.26632 0.49848 0.0
C598 C 0.81767 0.25525 0.48364 0.0
C599 C 0.85441 0.29211 0.48392 0.0
H600 H 0.52244 0.28287 0.89051 0.0
H601 H 0.47408 0.39163 0.78202 0.0
H602 H 0.52308 0.21905 0.82624 0.0
H603 H 0.47316 0.32741 0.7181 0.0
H604 H 0.52606 0.21261 0.60505 0.0
H605 H 0.52686 0.27657 0.66926 0.0
H606 H 0.46902 0.17044 0.77567 0.0
H607 H 0.46978 0.10607 0.71189 0.0
C608 C 0.51155 0.29313 0.85304 0.0
C609 C 0.49827 0.34246 0.84148 0.0
C610 C 0.51167 0.25641 0.81618 0.0
C611 C 0.49809 0.26797 0.76692 0.0
C612 C 0.48463 0.31729 0.75542 0.0
C613 C 0.48493 0.35412 0.79219 0.0
C614 C 0.51344 0.20292 0.64213 0.0
C615 C 0.49796 0.15416 0.65332 0.0
C616 C 0.51367 0.2397 0.67895 0.0
C617 C 0.49797 0.22876 0.72773 0.0
C618 C 0.4822 0.18003 0.73878 0.0
C619 C 0.48242 0.14312 0.7021 0.0
H620 H 0.52353 0.89104 0.7129 0.0
H621 H 0.46995 0.7835 0.60569 0.0
H622 H 0.5244 0.82683 0.77686 0.0
H623 H 0.46927 0.71969 0.67005 0.0
H624 H 0.52303 0.60555 0.78313 0.0
H625 H 0.52347 0.66984 0.71929 0.0
H626 H 0.47083 0.77726 0.82708 0.0
H627 H 0.47193 0.71334 0.89132 0.0
C628 C 0.5115 0.8538 0.70306 0.0
C629 C 0.49677 0.84242 0.65411 0.0
C630 C 0.51178 0.81699 0.73984 0.0
C631 C 0.49687 0.768 0.72872 0.0
C632 C 0.48183 0.75676 0.6798 0.0
C633 C 0.482 0.79345 0.64289 0.0
C634 C 0.51147 0.64287 0.79324 0.0
C635 C 0.49747 0.65425 0.84241 0.0
C636 C 0.51149 0.67973 0.75651 0.0
C637 C 0.49709 0.7288 0.76792 0.0
C638 C 0.48293 0.7401 0.81709 0.0
C639 C 0.48334 0.70334 0.85393 0.0
H640 H 0.52538 0.60491 0.21281 0.0
H641 H 0.47015 0.71189 0.10588 0.0
H642 H 0.5261 0.66921 0.27673 0.0
H643 H 0.46931 0.77574 0.17016 0.0
H644 H 0.52248 0.89053 0.28277 0.0
H645 H 0.52328 0.82617 0.21903 0.0
H646 H 0.47232 0.71834 0.32721 0.0
H647 H 0.47307 0.78232 0.39135 0.0
C648 C 0.51297 0.64205 0.20303 0.0
C649 C 0.49782 0.65325 0.15417 0.0
C650 C 0.51316 0.67891 0.23977 0.0
C651 C 0.49774 0.72775 0.2287 0.0
C652 C 0.48229 0.73881 0.17987 0.0
C653 C 0.48255 0.70208 0.14301 0.0
C654 C 0.51138 0.85311 0.293 0.0
C655 C 0.49775 0.84165 0.34226 0.0
C656 C 0.5116 0.8162 0.25632 0.0
C657 C 0.49778 0.76699 0.26786 0.0
C658 C 0.48398 0.75561 0.31711 0.0
C659 C 0.48417 0.79242 0.35389 0.0
H660 H 0.52562 0.21232 0.38994 0.0
H661 H 0.47157 0.1048 0.28295 0.0
H662 H 0.52617 0.27611 0.32554 0.0
H663 H 0.47061 0.16898 0.21894 0.0
H664 H 0.52331 0.2824 0.10438 0.0
H665 H 0.52438 0.21848 0.16864 0.0
H666 H 0.4717 0.32592 0.27639 0.0
H667 H 0.47211 0.39019 0.21252 0.0
C668 C 0.51344 0.20238 0.35278 0.0
C669 C 0.49859 0.15342 0.34162 0.0
C670 C 0.51354 0.23905 0.31586 0.0
C671 C 0.49835 0.22779 0.26699 0.0
C672 C 0.48334 0.17882 0.25593 0.0
C673 C 0.48368 0.14203 0.29273 0.0
C674 C 0.51185 0.29239 0.14176 0.0
C675 C 0.49768 0.34147 0.15327 0.0
C676 C 0.51225 0.25564 0.17861 0.0
C677 C 0.49809 0.26696 0.22777 0.0
C678 C 0.48367 0.31602 0.23916 0.0
C679 C 0.48367 0.35287 0.20243 0.0
loop_
_geom_bond_atom_site_label_1
_geom_bond_atom_site_label_2
_geom_bond_distance
_geom_bond_site_symmetry_2
_ccdc_geom_bond_type
C0 O28 1.281 . S
C0 O37 1.281 . S
C1 O29 1.281 . S
C1 O47 1.281 . S
O2 Hf6 2.202 . S
O2 Hf8 2.202 . S
O2 Hf10 2.202 . S
O3 Hf6 2.202 1_665 S
O3 Hf12 2.202 1_655 S
O3 Hf13 2.202 1_565 S
O4 Hf6 2.072 1_565 S
O4 Hf10 2.072 1_565 S
O4 Hf12 2.072 . S
O5 Hf6 2.072 1_655 S
O5 Hf8 2.072 1_655 S
O5 Hf13 2.072 . S
Hf6 O2 2.202 . S
Hf6 O3 2.202 1_445 S
Hf6 O4 2.072 1_545 S
Hf6 O5 2.072 1_455 S
Hf6 O20 2.209 1_545 S
Hf6 O21 2.209 1_455 S
Hf6 O36 2.209 1_545 S
Hf6 O37 2.209 1_455 S
O7 Hf8 2.072 1_556 S
O7 Hf10 2.072 1_556 S
O7 Hf15 2.072 . S
Hf8 O2 2.202 . S
Hf8 O5 2.072 1_455 S
Hf8 O7 2.072 1_554 S
Hf8 O11 2.202 1_454 S
Hf8 O27 2.209 1_554 S
Hf8 O28 2.209 1_455 S
Hf8 O43 2.209 1_554 S
Hf8 O47 2.209 1_455 S
O9 Hf10 2.202 1_566 S
O9 Hf12 2.202 1_556 S
O9 Hf15 2.202 1_565 S
Hf10 O2 2.202 . S
Hf10 O4 2.072 1_545 S
Hf10 O7 2.072 1_554 S
Hf10 O9 2.202 1_544 S
Hf10 O32 2.209 1_545 S
Hf10 O33 2.209 1_554 S
Hf10 O40 2.209 1_554 S
Hf10 O42 2.209 1_545 S
O11 Hf8 2.202 1_656 S
O11 Hf13 2.202 1_556 S
O11 Hf15 2.202 1_655 S
Hf12 O3 2.202 1_455 S
Hf12 O4 2.072 . S
Hf12 O9 2.202 1_554 S
Hf12 O14 2.072 1_454 S
Hf12 O24 2.209 1_454 S
Hf12 O25 2.209 . S
Hf12 O45 2.209 . S
Hf12 O46 2.209 1_454 S
Hf13 O3 2.202 1_545 S
Hf13 O5 2.072 . S
Hf13 O11 2.202 1_554 S
Hf13 O14 2.072 1_544 S
Hf13 O29 2.209 . S
Hf13 O30 2.209 1_544 S
Hf13 O39 2.209 1_544 S
Hf13 O44 2.209 . S
O14 Hf12 2.072 1_656 S
O14 Hf13 2.072 1_566 S
O14 Hf15 2.072 1_665 S
Hf15 O7 2.072 . S
Hf15 O9 2.202 1_545 S
Hf15 O11 2.202 1_455 S
Hf15 O14 2.072 1_445 S
Hf15 O23 2.209 1_445 S
Hf15 O26 2.209 . S
Hf15 O35 2.209 . S
Hf15 O38 2.209 1_445 S
C16 O30 1.281 . S
C16 O46 1.281 . S
C17 O33 1.281 . S
C17 O43 1.281 . S
C18 O32 1.281 . S
C18 O45 1.281 . S
C19 O20 1.281 . S
C19 O42 1.281 . S
O20 Hf6 2.209 1_565 S
O20 C19 1.281 . S
O21 Hf6 2.209 1_655 S
O21 C22 1.281 . S
C22 O21 1.281 . S
C22 O44 1.281 . S
O23 Hf15 2.209 1_665 S
O23 C34 1.281 . S
O24 Hf12 2.209 1_656 S
O24 C41 1.281 . S
O25 Hf12 2.209 . S
O25 C49 1.281 . S
O26 Hf15 2.209 . S
O26 C31 1.281 . S
O27 Hf8 2.209 1_556 S
O27 C48 1.281 . S
O28 C0 1.281 . S
O28 Hf8 2.209 1_655 S
O29 C1 1.281 . S
O29 Hf13 2.209 . S
O30 Hf13 2.209 1_566 S
O30 C16 1.281 . S
C31 O26 1.281 . S
C31 O40 1.281 . S
O32 Hf10 2.209 1_565 S
O32 C18 1.281 . S
O33 Hf10 2.209 1_556 S
O33 C17 1.281 . S
C34 O23 1.281 . S
C34 O39 1.281 . S
O35 Hf15 2.209 . S
O35 C48 1.281 . S
O36 Hf6 2.209 1_565 S
O36 C49 1.281 . S
O37 C0 1.281 . S
O37 Hf6 2.209 1_655 S
O38 Hf15 2.209 1_665 S
O38 C41 1.281 . S
O39 Hf13 2.209 1_566 S
O39 C34 1.281 . S
O40 Hf10 2.209 1_556 S
O40 C31 1.281 . S
C41 O24 1.281 . S
C41 O38 1.281 . S
O42 Hf10 2.209 1_565 S
O42 C19 1.281 . S
O43 Hf8 2.209 1_556 S
O43 C17 1.281 . S
O44 Hf13 2.209 . S
O44 C22 1.281 . S
O45 Hf12 2.209 . S
O45 C18 1.281 . S
O46 Hf12 2.209 1_656 S
O46 C16 1.281 . S
O47 C1 1.281 . S
O47 Hf8 2.209 1_655 S
C48 O27 1.281 . S
C48 O35 1.281 . S
C49 O25 1.281 . S
C49 O36 1.281 . S
C50 O78 1.281 . S
C50 O87 1.281 . S
C51 O79 1.281 . S
C51 O97 1.281 . S
O52 Hf56 2.202 . S
O52 Hf58 2.202 . S
O52 Hf60 2.202 . S
O53 Hf56 2.202 1_655 S
O53 Hf62 2.202 1_655 S
O53 Hf63 2.202 . S
O54 Hf56 2.072 . S
O54 Hf60 2.072 . S
O54 Hf62 2.072 . S
O55 Hf56 2.072 1_655 S
O55 Hf58 2.072 1_655 S
O55 Hf63 2.072 . S
Hf56 O52 2.202 . S
Hf56 O53 2.202 1_455 S
Hf56 O54 2.072 . S
Hf56 O55 2.072 1_455 S
Hf56 O70 2.209 . S
Hf56 O71 2.209 1_455 S
Hf56 O86 2.209 . S
Hf56 O87 2.209 1_455 S
O57 Hf58 2.072 . S
O57 Hf60 2.072 . S
O57 Hf65 2.072 . S
Hf58 O52 2.202 . S
Hf58 O55 2.072 1_455 S
Hf58 O57 2.072 . S
Hf58 O61 2.202 1_455 S
Hf58 O77 2.209 . S
Hf58 O78 2.209 1_455 S
Hf58 O93 2.209 . S
Hf58 O97 2.209 1_455 S
O59 Hf60 2.202 . S
O59 Hf62 2.202 . S
O59 Hf65 2.202 . S
Hf60 O52 2.202 . S
Hf60 O54 2.072 . S
Hf60 O57 2.072 . S
Hf60 O59 2.202 . S
Hf60 O82 2.209 . S
Hf60 O83 2.209 . S
Hf60 O90 2.209 . S
Hf60 O92 2.209 . S
O61 Hf58 2.202 1_655 S
O61 Hf63 2.202 . S
O61 Hf65 2.202 1_655 S
Hf62 O53 2.202 1_455 S
Hf62 O54 2.072 . S
Hf62 O59 2.202 . S
Hf62 O64 2.072 1_455 S
Hf62 O74 2.209 1_455 S
Hf62 O75 2.209 . S
Hf62 O95 2.209 . S
Hf62 O96 2.209 1_455 S
Hf63 O53 2.202 . S
Hf63 O55 2.072 . S
Hf63 O61 2.202 . S
Hf63 O64 2.072 . S
Hf63 O79 2.209 . S
Hf63 O80 2.209 . S
Hf63 O89 2.209 . S
Hf63 O94 2.209 . S
O64 Hf62 2.072 1_655 S
O64 Hf63 2.072 . S
O64 Hf65 2.072 1_655 S
Hf65 O57 2.072 . S
Hf65 O59 2.202 . S
Hf65 O61 2.202 1_455 S
Hf65 O64 2.072 1_455 S
Hf65 O73 2.209 1_455 S
Hf65 O76 2.209 . S
Hf65 O85 2.209 . S
Hf65 O88 2.209 1_455 S
C66 O80 1.281 . S
C66 O96 1.281 . S
C67 O83 1.281 . S
C67 O93 1.281 . S
C68 O82 1.281 . S
C68 O95 1.281 . S
C69 O70 1.281 . S
C69 O92 1.281 . S
O70 Hf56 2.209 . S
O70 C69 1.281 . S
O71 Hf56 2.209 1_655 S
O71 C72 1.281 . S
C72 O71 1.281 . S
C72 O94 1.281 . S
O73 Hf65 2.209 1_655 S
O73 C84 1.281 . S
O74 Hf62 2.209 1_655 S
O74 C91 1.281 . S
O75 Hf62 2.209 . S
O75 C99 1.281 . S
O76 Hf65 2.209 . S
O76 C81 1.281 . S
O77 Hf58 2.209 . S
O77 C98 1.281 . S
O78 C50 1.281 . S
O78 Hf58 2.209 1_655 S
O79 C51 1.281 . S
O79 Hf63 2.209 . S
O80 Hf63 2.209 . S
O80 C66 1.281 . S
C81 O76 1.281 . S
C81 O90 1.281 . S
O82 Hf60 2.209 . S
O82 C68 1.281 . S
O83 Hf60 2.209 . S
O83 C67 1.281 . S
C84 O73 1.281 . S
C84 O89 1.281 . S
O85 Hf65 2.209 . S
O85 C98 1.281 . S
O86 Hf56 2.209 . S
O86 C99 1.281 . S
O87 C50 1.281 . S
O87 Hf56 2.209 1_655 S
O88 Hf65 2.209 1_655 S
O88 C91 1.281 . S
O89 Hf63 2.209 . S
O89 C84 1.281 . S
O90 Hf60 2.209 . S
O90 C81 1.281 . S
C91 O74 1.281 . S
C91 O88 1.281 . S
O92 Hf60 2.209 . S
O92 C69 1.281 . S
O93 Hf58 2.209 . S
O93 C67 1.281 . S
O94 Hf63 2.209 . S
O94 C72 1.281 . S
O95 Hf62 2.209 . S
O95 C68 1.281 . S
O96 Hf62 2.209 1_655 S
O96 C66 1.281 . S
O97 C51 1.281 . S
O97 Hf58 2.209 1_655 S
C98 O77 1.281 . S
C98 O85 1.281 . S
C99 O75 1.281 . S
C99 O86 1.281 . S
C100 O128 1.281 . S
C100 O137 1.281 . S
C101 O129 1.281 . S
C101 O147 1.281 . S
O102 Hf106 2.202 . S
O102 Hf108 2.202 . S
O102 Hf110 2.202 . S
O103 Hf106 2.202 1_565 S
O103 Hf112 2.202 . S
O103 Hf113 2.202 1_565 S
O104 Hf106 2.072 1_565 S
O104 Hf110 2.072 1_565 S
O104 Hf112 2.072 . S
O105 Hf106 2.072 . S
O105 Hf108 2.072 . S
O105 Hf113 2.072 . S
Hf106 O102 2.202 . S
Hf106 O103 2.202 1_545 S
Hf106 O104 2.072 1_545 S
Hf106 O105 2.072 . S
Hf106 O120 2.209 1_545 S
Hf106 O121 2.209 . S
Hf106 O136 2.209 1_545 S
Hf106 O137 2.209 . S
O107 Hf108 2.072 . S
O107 Hf110 2.072 . S
O107 Hf115 2.072 . S
Hf108 O102 2.202 . S
Hf108 O105 2.072 . S
Hf108 O107 2.072 . S
Hf108 O111 2.202 . S
Hf108 O127 2.209 . S
Hf108 O128 2.209 . S
Hf108 O143 2.209 . S
Hf108 O147 2.209 . S
O109 Hf110 2.202 1_565 S
O109 Hf112 2.202 . S
O109 Hf115 2.202 1_565 S
Hf110 O102 2.202 . S
Hf110 O104 2.072 1_545 S
Hf110 O107 2.072 . S
Hf110 O109 2.202 1_545 S
Hf110 O132 2.209 1_545 S
Hf110 O133 2.209 . S
Hf110 O140 2.209 . S
Hf110 O142 2.209 1_545 S
O111 Hf108 2.202 . S
O111 Hf113 2.202 . S
O111 Hf115 2.202 . S
Hf112 O103 2.202 . S
Hf112 O104 2.072 . S
Hf112 O109 2.202 . S
Hf112 O114 2.072 . S
Hf112 O124 2.209 . S
Hf112 O125 2.209 . S
Hf112 O145 2.209 . S
Hf112 O146 2.209 . S
Hf113 O103 2.202 1_545 S
Hf113 O105 2.072 . S
Hf113 O111 2.202 . S
Hf113 O114 2.072 1_545 S
Hf113 O129 2.209 . S
Hf113 O130 2.209 1_545 S
Hf113 O139 2.209 1_545 S
Hf113 O144 2.209 . S
O114 Hf112 2.072 . S
O114 Hf113 2.072 1_565 S
O114 Hf115 2.072 1_565 S
Hf115 O107 2.072 . S
Hf115 O109 2.202 1_545 S
Hf115 O111 2.202 . S
Hf115 O114 2.072 1_545 S
Hf115 O123 2.209 1_545 S
Hf115 O126 2.209 . S
Hf115 O135 2.209 . S
Hf115 O138 2.209 1_545 S
C116 O130 1.281 . S
C116 O146 1.281 . S
C117 O133 1.281 . S
C117 O143 1.281 . S
C118 O132 1.281 . S
C118 O145 1.281 . S
C119 O120 1.281 . S
C119 O142 1.281 . S
O120 Hf106 2.209 1_565 S
O120 C119 1.281 . S
O121 Hf106 2.209 . S
O121 C122 1.281 . S
C122 O121 1.281 . S
C122 O144 1.281 . S
O123 Hf115 2.209 1_565 S
O123 C134 1.281 . S
O124 Hf112 2.209 . S
O124 C141 1.281 . S
O125 Hf112 2.209 . S
O125 C149 1.281 . S
O126 Hf115 2.209 . S
O126 C131 1.281 . S
O127 Hf108 2.209 . S
O127 C148 1.281 . S
O128 C100 1.281 . S
O128 Hf108 2.209 . S
O129 C101 1.281 . S
O129 Hf113 2.209 . S
O130 Hf113 2.209 1_565 S
O130 C116 1.281 . S
C131 O126 1.281 . S
C131 O140 1.281 . S
O132 Hf110 2.209 1_565 S
O132 C118 1.281 . S
O133 Hf110 2.209 . S
O133 C117 1.281 . S
C134 O123 1.281 . S
C134 O139 1.281 . S
O135 Hf115 2.209 . S
O135 C148 1.281 . S
O136 Hf106 2.209 1_565 S
O136 C149 1.281 . S
O137 C100 1.281 . S
O137 Hf106 2.209 . S
O138 Hf115 2.209 1_565 S
O138 C141 1.281 . S
O139 Hf113 2.209 1_565 S
O139 C134 1.281 . S
O140 Hf110 2.209 . S
O140 C131 1.281 . S
C141 O124 1.281 . S
C141 O138 1.281 . S
O142 Hf110 2.209 1_565 S
O142 C119 1.281 . S
O143 Hf108 2.209 . S
O143 C117 1.281 . S
O144 Hf113 2.209 . S
O144 C122 1.281 . S
O145 Hf112 2.209 . S
O145 C118 1.281 . S
O146 Hf112 2.209 . S
O146 C116 1.281 . S
O147 C101 1.281 . S
O147 Hf108 2.209 . S
C148 O127 1.281 . S
C148 O135 1.281 . S
C149 O125 1.281 . S
C149 O136 1.281 . S
C150 O178 1.281 . S
C150 O187 1.281 . S
C151 O179 1.281 . S
C151 O197 1.281 . S
O152 Hf156 2.202 . S
O152 Hf158 2.202 . S
O152 Hf160 2.202 . S
O153 Hf156 2.202 . S
O153 Hf162 2.202 . S
O153 Hf163 2.202 . S
O154 Hf156 2.072 . S
O154 Hf160 2.072 . S
O154 Hf162 2.072 . S
O155 Hf156 2.072 . S
O155 Hf158 2.072 . S
O155 Hf163 2.072 . S
Hf156 O152 2.202 . S
Hf156 O153 2.202 . S
Hf156 O154 2.072 . S
Hf156 O155 2.072 . S
Hf156 O170 2.209 . S
Hf156 O171 2.209 . S
Hf156 O186 2.209 . S
Hf156 O187 2.209 . S
O157 Hf158 2.072 1_556 S
O157 Hf160 2.072 1_556 S
O157 Hf165 2.072 . S
Hf158 O152 2.202 . S
Hf158 O155 2.072 . S
Hf158 O157 2.072 1_554 S
Hf158 O161 2.202 1_554 S
Hf158 O177 2.209 1_554 S
Hf158 O178 2.209 . S
Hf158 O193 2.209 1_554 S
Hf158 O197 2.209 . S
O159 Hf160 2.202 1_556 S
O159 Hf162 2.202 1_556 S
O159 Hf165 2.202 . S
Hf160 O152 2.202 . S
Hf160 O154 2.072 . S
Hf160 O157 2.072 1_554 S
Hf160 O159 2.202 1_554 S
Hf160 O182 2.209 . S
Hf160 O183 2.209 1_554 S
Hf160 O190 2.209 1_554 S
Hf160 O192 2.209 . S
O161 Hf158 2.202 1_556 S
O161 Hf163 2.202 1_556 S
O161 Hf165 2.202 . S
Hf162 O153 2.202 . S
Hf162 O154 2.072 . S
Hf162 O159 2.202 1_554 S
Hf162 O164 2.072 1_554 S
Hf162 O174 2.209 1_554 S
Hf162 O175 2.209 . S
Hf162 O195 2.209 . S
Hf162 O196 2.209 1_554 S
Hf163 O153 2.202 . S
Hf163 O155 2.072 . S
Hf163 O161 2.202 1_554 S
Hf163 O164 2.072 1_554 S
Hf163 O179 2.209 . S
Hf163 O180 2.209 1_554 S
Hf163 O189 2.209 1_554 S
Hf163 O194 2.209 . S
O164 Hf162 2.072 1_556 S
O164 Hf163 2.072 1_556 S
O164 Hf165 2.072 . S
Hf165 O157 2.072 . S
Hf165 O159 2.202 . S
Hf165 O161 2.202 . S
Hf165 O164 2.072 . S
Hf165 O173 2.209 . S
Hf165 O176 2.209 . S
Hf165 O185 2.209 . S
Hf165 O188 2.209 . S
C166 O180 1.281 . S
C166 O196 1.281 . S
C167 O183 1.281 . S
C167 O193 1.281 . S
C168 O182 1.281 . S
C168 O195 1.281 . S
C169 O170 1.281 . S
C169 O192 1.281 . S
O170 Hf156 2.209 . S
O170 C169 1.281 . S
O171 Hf156 2.209 . S
O171 C172 1.281 . S
C172 O171 1.281 . S
C172 O194 1.281 . S
O173 Hf165 2.209 . S
O173 C184 1.281 . S
O174 Hf162 2.209 1_556 S
O174 C191 1.281 . S
O175 Hf162 2.209 . S
O175 C199 1.281 . S
O176 Hf165 2.209 . S
O176 C181 1.281 . S
O177 Hf158 2.209 1_556 S
O177 C198 1.281 . S
O178 C150 1.281 . S
O178 Hf158 2.209 . S
O179 C151 1.281 . S
O179 Hf163 2.209 . S
O180 Hf163 2.209 1_556 S
O180 C166 1.281 . S
C181 O176 1.281 . S
C181 O190 1.281 . S
O182 Hf160 2.209 . S
O182 C168 1.281 . S
O183 Hf160 2.209 1_556 S
O183 C167 1.281 . S
C184 O173 1.281 . S
C184 O189 1.281 . S
O185 Hf165 2.209 . S
O185 C198 1.281 . S
O186 Hf156 2.209 . S
O186 C199 1.281 . S
O187 C150 1.281 . S
O187 Hf156 2.209 . S
O188 Hf165 2.209 . S
O188 C191 1.281 . S
O189 Hf163 2.209 1_556 S
O189 C184 1.281 . S
O190 Hf160 2.209 1_556 S
O190 C181 1.281 . S
C191 O174 1.281 . S
C191 O188 1.281 . S
O192 Hf160 2.209 . S
O192 C169 1.281 . S
O193 Hf158 2.209 1_556 S
O193 C167 1.281 . S
O194 Hf163 2.209 . S
O194 C172 1.281 . S
O195 Hf162 2.209 . S
O195 C168 1.281 . S
O196 Hf162 2.209 1_556 S
O196 C166 1.281 . S
O197 C151 1.281 . S
O197 Hf158 2.209 . S
C198 O177 1.281 . S
C198 O185 1.281 . S
C199 O175 1.281 . S
C199 O186 1.281 . S
H200 C208 0.950 . S
H201 C213 0.950 . S
H202 C210 0.950 . S
H203 C212 0.950 . S
H204 C214 0.950 . S
H205 C216 0.950 . S
H206 C218 0.950 . S
H207 C219 0.950 . S
C208 H200 0.950 . S
C208 C209 1.386 1_455 S
C208 C210 1.391 . S
C209 C208 1.386 1_655 S
C209 C213 1.393 . S
C210 H202 0.950 . S
C210 C208 1.391 . S
C210 C211 1.400 1_455 S
C211 C210 1.400 1_655 S
C211 C212 1.398 . S
C211 C217 1.491 . S
C212 H203 0.950 . S
C212 C211 1.398 . S
C212 C213 1.391 . S
C213 H201 0.950 . S
C213 C209 1.393 . S
C213 C212 1.391 . S
C214 H204 0.950 . S
C214 C215 1.386 . S
C214 C216 1.391 . S
C215 C214 1.386 . S
C215 C219 1.393 1_655 S
C216 H205 0.950 . S
C216 C214 1.391 . S
C216 C217 1.400 . S
C217 C211 1.491 . S
C217 C216 1.400 . S
C217 C218 1.398 1_655 S
C218 H206 0.950 . S
C218 C217 1.398 1_455 S
C218 C219 1.391 . S
C219 H207 0.950 . S
C219 C215 1.393 1_455 S
C219 C218 1.391 . S
H220 C228 0.950 . S
H221 C233 0.950 . S
H222 C230 0.950 . S
H223 C232 0.950 . S
H224 C234 0.950 . S
H225 C236 0.950 . S
H226 C238 0.950 . S
H227 C239 0.950 . S
C228 H220 0.950 . S
C228 C229 1.386 1_565 S
C228 C230 1.391 . S
C229 C228 1.386 1_545 S
C229 C233 1.393 . S
C230 H222 0.950 . S
C230 C228 1.391 . S
C230 C231 1.400 1_565 S
C231 C230 1.400 1_545 S
C231 C232 1.398 . S
C231 C237 1.491 . S
C232 H223 0.950 . S
C232 C231 1.398 . S
C232 C233 1.391 . S
C233 H221 0.950 . S
C233 C229 1.393 . S
C233 C232 1.391 . S
C234 H224 0.950 . S
C234 C235 1.386 . S
C234 C236 1.391 . S
C235 C234 1.386 . S
C235 C239 1.393 1_545 S
C236 H225 0.950 . S
C236 C234 1.391 . S
C236 C237 1.400 . S
C237 C231 1.491 . S
C237 C236 1.400 . S
C237 C238 1.398 1_545 S
C238 H226 0.950 . S
C238 C237 1.398 1_565 S
C238 C239 1.391 . S
C239 H227 0.950 . S
C239 C235 1.393 1_565 S
C239 C238 1.391 . S
H240 C248 0.950 . S
H241 C253 0.950 . S
H242 C250 0.950 . S
H243 C252 0.950 . S
H244 C254 0.950 1_655 S
H245 C256 0.950 1_655 S
H246 C258 0.950 . S
H247 C259 0.950 . S
C248 H240 0.950 . S
C248 C249 1.386 . S
C248 C250 1.391 . S
C249 C248 1.386 . S
C249 C253 1.393 . S
C250 H242 0.950 . S
C250 C248 1.391 . S
C250 C251 1.400 . S
C251 C250 1.400 . S
C251 C252 1.398 . S
C251 C257 1.491 . S
C252 H243 0.950 . S
C252 C251 1.398 . S
C252 C253 1.391 . S
C253 H241 0.950 . S
C253 C249 1.393 . S
C253 C252 1.391 . S
C254 H244 0.950 1_455 S
C254 C255 1.386 . S
C254 C256 1.391 . S
C255 C254 1.386 . S
C255 C259 1.393 . S
C256 H245 0.950 1_455 S
C256 C254 1.391 . S
C256 C257 1.400 . S
C257 C251 1.491 . S
C257 C256 1.400 . S
C257 C258 1.398 . S
C258 H246 0.950 . S
C258 C257 1.398 . S
C258 C259 1.391 . S
C259 H247 0.950 . S
C259 C255 1.393 . S
C259 C258 1.391 . S
H260 C268 0.950 . S
H261 C273 0.950 . S
H262 C270 0.950 . S
H263 C272 0.950 . S
H264 C274 0.950 . S
H265 C276 0.950 . S
H266 C278 0.950 . S
H267 C279 0.950 . S
C268 H260 0.950 . S
C268 C269 1.386 . S
C268 C270 1.391 . S
C269 C268 1.386 . S
C269 C273 1.393 1_565 S
C270 H262 0.950 . S
C270 C268 1.391 . S
C270 C271 1.400 . S
C271 C270 1.400 . S
C271 C272 1.398 1_565 S
C271 C277 1.491 . S
C272 H263 0.950 . S
C272 C271 1.398 1_545 S
C272 C273 1.391 . S
C273 H261 0.950 . S
C273 C269 1.393 1_545 S
C273 C272 1.391 . S
C274 H264 0.950 . S
C274 C275 1.386 1_545 S
C274 C276 1.391 . S
C275 C274 1.386 1_565 S
C275 C279 1.393 . S
C276 H265 0.950 . S
C276 C274 1.391 . S
C276 C277 1.400 1_545 S
C277 C271 1.491 . S
C277 C276 1.400 1_565 S
C277 C278 1.398 . S
C278 H266 0.950 . S
C278 C277 1.398 . S
C278 C279 1.391 . S
C279 H267 0.950 . S
C279 C275 1.393 . S
C279 C278 1.391 . S
H280 C288 0.950 . S
H281 C293 0.950 . S
H282 C290 0.950 . S
H283 C292 0.950 . S
H284 C294 0.950 . S
H285 C296 0.950 . S
H286 C298 0.950 . S
H287 C299 0.950 . S
C288 H280 0.950 . S
C288 C289 1.386 . S
C288 C290 1.391 . S
C289 C288 1.386 . S
C289 C293 1.393 1_655 S
C290 H282 0.950 . S
C290 C288 1.391 . S
C290 C291 1.400 . S
C291 C290 1.400 . S
C291 C292 1.398 1_655 S
C291 C297 1.491 . S
C292 H283 0.950 . S
C292 C291 1.398 1_455 S
C292 C293 1.391 . S
C293 H281 0.950 . S
C293 C289 1.393 1_455 S
C293 C292 1.391 . S
C294 H284 0.950 . S
C294 C295 1.386 1_455 S
C294 C296 1.391 . S
C295 C294 1.386 1_655 S
C295 C299 1.393 . S
C296 H285 0.950 . S
C296 C294 1.391 . S
C296 C297 1.400 1_455 S
C297 C291 1.491 . S
C297 C296 1.400 1_655 S
C297 C298 1.398 . S
C298 H286 0.950 . S
C298 C297 1.398 . S
C298 C299 1.391 . S
C299 H287 0.950 . S
C299 C295 1.393 . S
C299 C298 1.391 . S
H300 C308 0.950 . S
H301 C313 0.950 . S
H302 C310 0.950 . S
H303 C312 0.950 . S
H304 C314 0.950 . S
H305 C316 0.950 . S
H306 C318 0.950 . S
H307 C319 0.950 . S
C308 H300 0.950 . S
C308 C309 1.386 1_565 S
C308 C310 1.391 . S
C309 C308 1.386 1_545 S
C309 C313 1.393 . S
C310 H302 0.950 . S
C310 C308 1.391 . S
C310 C311 1.400 1_565 S
C311 C310 1.400 1_545 S
C311 C312 1.398 . S
C311 C317 1.491 . S
C312 H303 0.950 . S
C312 C311 1.398 . S
C312 C313 1.391 . S
C313 H301 0.950 . S
C313 C309 1.393 . S
C313 C312 1.391 . S
C314 H304 0.950 . S
C314 C315 1.386 . S
C314 C316 1.391 . S
C315 C314 1.386 . S
C315 C319 1.393 1_545 S
C316 H305 0.950 . S
C316 C314 1.391 . S
C316 C317 1.400 . S
C317 C311 1.491 . S
C317 C316 1.400 . S
C317 C318 1.398 1_545 S
C318 H306 0.950 . S
C318 C317 1.398 1_565 S
C318 C319 1.391 . S
C319 H307 0.950 . S
C319 C315 1.393 1_565 S
C319 C318 1.391 . S
H320 C328 0.950 . S
H321 C333 0.950 . S
H322 C330 0.950 . S
H323 C332 0.950 . S
H324 C334 0.950 . S
H325 C336 0.950 . S
H326 C338 0.950 . S
H327 C339 0.950 . S
C328 H320 0.950 . S
C328 C329 1.386 1_655 S
C328 C330 1.391 . S
C329 C328 1.386 1_455 S
C329 C333 1.393 . S
C330 H322 0.950 . S
C330 C328 1.391 . S
C330 C331 1.400 1_655 S
C331 C330 1.400 1_455 S
C331 C332 1.398 . S
C331 C337 1.491 . S
C332 H323 0.950 . S
C332 C331 1.398 . S
C332 C333 1.391 . S
C333 H321 0.950 . S
C333 C329 1.393 . S
C333 C332 1.391 . S
C334 H324 0.950 . S
C334 C335 1.386 . S
C334 C336 1.391 . S
C335 C334 1.386 . S
C335 C339 1.393 1_455 S
C336 H325 0.950 . S
C336 C334 1.391 . S
C336 C337 1.400 . S
C337 C331 1.491 . S
C337 C336 1.400 . S
C337 C338 1.398 1_455 S
C338 H326 0.950 . S
C338 C337 1.398 1_655 S
C338 C339 1.391 . S
C339 H327 0.950 . S
C339 C335 1.393 1_655 S
C339 C338 1.391 . S
H340 C348 0.950 . S
H341 C353 0.950 . S
H342 C350 0.950 . S
H343 C352 0.950 . S
H344 C354 0.950 . S
H345 C356 0.950 . S
H346 C358 0.950 . S
H347 C359 0.950 . S
C348 H340 0.950 . S
C348 C349 1.386 . S
C348 C350 1.391 . S
C349 C348 1.386 . S
C349 C353 1.393 1_565 S
C350 H342 0.950 . S
C350 C348 1.391 . S
C350 C351 1.400 . S
C351 C350 1.400 . S
C351 C352 1.398 1_565 S
C351 C357 1.491 . S
C352 H343 0.950 . S
C352 C351 1.398 1_545 S
C352 C353 1.391 . S
C353 H341 0.950 . S
C353 C349 1.393 1_545 S
C353 C352 1.391 . S
C354 H344 0.950 . S
C354 C355 1.386 1_545 S
C354 C356 1.391 . S
C355 C354 1.386 1_565 S
C355 C359 1.393 . S
C356 H345 0.950 . S
C356 C354 1.391 . S
C356 C357 1.400 1_545 S
C357 C351 1.491 . S
C357 C356 1.400 1_565 S
C357 C358 1.398 . S
C358 H346 0.950 . S
C358 C357 1.398 . S
C358 C359 1.391 . S
C359 H347 0.950 . S
C359 C355 1.393 . S
C359 C358 1.391 . S
H360 C368 0.950 . S
H361 C373 0.950 . S
H362 C370 0.950 . S
H363 C372 0.950 . S
H364 C374 0.950 . S
H365 C376 0.950 . S
H366 C378 0.950 . S
H367 C379 0.950 . S
C368 H360 0.950 . S
C368 C369 1.386 . S
C368 C370 1.391 . S
C369 C368 1.386 . S
C369 C373 1.393 1_556 S
C370 H362 0.950 . S
C370 C368 1.391 . S
C370 C371 1.400 . S
C371 C370 1.400 . S
C371 C372 1.398 1_556 S
C371 C377 1.491 . S
C372 H363 0.950 . S
C372 C371 1.398 1_554 S
C372 C373 1.391 . S
C373 H361 0.950 . S
C373 C369 1.393 1_554 S
C373 C372 1.391 . S
C374 H364 0.950 . S
C374 C375 1.386 1_554 S
C374 C376 1.391 . S
C375 C374 1.386 1_556 S
C375 C379 1.393 . S
C376 H365 0.950 . S
C376 C374 1.391 . S
C376 C377 1.400 1_554 S
C377 C371 1.491 . S
C377 C376 1.400 1_556 S
C377 C378 1.398 . S
C378 H366 0.950 . S
C378 C377 1.398 . S
C378 C379 1.391 . S
C379 H367 0.950 . S
C379 C375 1.393 . S
C379 C378 1.391 . S
H380 C388 0.950 . S
H381 C393 0.950 . S
H382 C390 0.950 . S
H383 C392 0.950 . S
H384 C394 0.950 . S
H385 C396 0.950 . S
H386 C398 0.950 . S
H387 C399 0.950 . S
C388 H380 0.950 . S
C388 C389 1.386 . S
C388 C390 1.391 . S
C389 C388 1.386 . S
C389 C393 1.393 1_554 S
C390 H382 0.950 . S
C390 C388 1.391 . S
C390 C391 1.400 . S
C391 C390 1.400 . S
C391 C392 1.398 1_554 S
C391 C397 1.491 . S
C392 H383 0.950 . S
C392 C391 1.398 1_556 S
C392 C393 1.391 . S
C393 H381 0.950 . S
C393 C389 1.393 1_556 S
C393 C392 1.391 . S
C394 H384 0.950 . S
C394 C395 1.386 1_556 S
C394 C396 1.391 . S
C395 C394 1.386 1_554 S
C395 C399 1.393 . S
C396 H385 0.950 . S
C396 C394 1.391 . S
C396 C397 1.400 1_556 S
C397 C391 1.491 . S
C397 C396 1.400 1_554 S
C397 C398 1.398 . S
C398 H386 0.950 . S
C398 C397 1.398 . S
C398 C399 1.391 . S
C399 H387 0.950 . S
C399 C395 1.393 . S
C399 C398 1.391 . S
H400 C408 0.950 . S
H401 C413 0.950 . S
H402 C410 0.950 . S
H403 C412 0.950 . S
H404 C414 0.950 . S
H405 C416 0.950 . S
H406 C418 0.950 . S
H407 C419 0.950 . S
C408 H400 0.950 . S
C408 C409 1.386 . S
C408 C410 1.391 . S
C409 C408 1.386 . S
C409 C413 1.393 1_554 S
C410 H402 0.950 . S
C410 C408 1.391 . S
C410 C411 1.400 . S
C411 C410 1.400 . S
C411 C412 1.398 1_554 S
C411 C417 1.491 . S
C412 H403 0.950 . S
C412 C411 1.398 1_556 S
C412 C413 1.391 . S
C413 H401 0.950 . S
C413 C409 1.393 1_556 S
C413 C412 1.391 . S
C414 H404 0.950 . S
C414 C415 1.386 1_556 S
C414 C416 1.391 . S
C415 C414 1.386 1_554 S
C415 C419 1.393 . S
C416 H405 0.950 . S
C416 C414 1.391 . S
C416 C417 1.400 1_556 S
C417 C411 1.491 . S
C417 C416 1.400 1_554 S
C417 C418 1.398 . S
C418 H406 0.950 . S
C418 C417 1.398 . S
C418 C419 1.391 . S
C419 H407 0.950 . S
C419 C415 1.393 . S
C419 C418 1.391 . S
H420 C428 0.950 . S
H421 C433 0.950 . S
H422 C430 0.950 . S
H423 C432 0.950 . S
H424 C434 0.950 . S
H425 C436 0.950 . S
H426 C438 0.950 . S
H427 C439 0.950 . S
C428 H420 0.950 . S
C428 C429 1.386 . S
C428 C430 1.391 . S
C429 C428 1.386 . S
C429 C433 1.393 1_556 S
C430 H422 0.950 . S
C430 C428 1.391 . S
C430 C431 1.400 . S
C431 C430 1.400 . S
C431 C432 1.398 1_556 S
C431 C437 1.491 . S
C432 H423 0.950 . S
C432 C431 1.398 1_554 S
C432 C433 1.391 . S
C433 H421 0.950 . S
C433 C429 1.393 1_554 S
C433 C432 1.391 . S
C434 H424 0.950 . S
C434 C435 1.386 1_554 S
C434 C436 1.391 . S
C435 C434 1.386 1_556 S
C435 C439 1.393 . S
C436 H425 0.950 . S
C436 C434 1.391 . S
C436 C437 1.400 1_554 S
C437 C431 1.491 . S
C437 C436 1.400 1_556 S
C437 C438 1.398 . S
C438 H426 0.950 . S
C438 C437 1.398 . S
C438 C439 1.391 . S
C439 H427 0.950 . S
C439 C435 1.393 . S
C439 C438 1.391 . S
H440 C448 0.950 . S
H441 C453 0.950 . S
H442 C450 0.950 . S
H443 C452 0.950 . S
H444 C454 0.950 . S
H445 C456 0.950 . S
H446 C458 0.950 . S
H447 C459 0.950 . S
C448 H440 0.950 . S
C448 C449 1.386 . S
C448 C450 1.391 . S
C449 C448 1.386 . S
C449 C453 1.393 . S
C450 H442 0.950 . S
C450 C448 1.391 . S
C450 C451 1.400 . S
C451 C450 1.400 . S
C451 C452 1.398 . S
C451 C457 1.491 . S
C452 H443 0.950 . S
C452 C451 1.398 . S
C452 C453 1.391 . S
C453 H441 0.950 . S
C453 C449 1.393 . S
C453 C452 1.391 . S
C454 H444 0.950 . S
C454 C455 1.386 . S
C454 C456 1.391 . S
C455 C454 1.386 . S
C455 C459 1.393 . S
C456 H445 0.950 . S
C456 C454 1.391 . S
C456 C457 1.400 . S
C457 C451 1.491 . S
C457 C456 1.400 . S
C457 C458 1.398 . S
C458 H446 0.950 . S
C458 C457 1.398 . S
C458 C459 1.391 . S
C459 H447 0.950 . S
C459 C455 1.393 . S
C459 C458 1.391 . S
H460 C468 0.950 . S
H461 C473 0.950 . S
H462 C470 0.950 . S
H463 C472 0.950 . S
H464 C474 0.950 . S
H465 C476 0.950 . S
H466 C478 0.950 . S
H467 C479 0.950 . S
C468 H460 0.950 . S
C468 C469 1.386 . S
C468 C470 1.391 . S
C469 C468 1.386 . S
C469 C473 1.393 . S
C470 H462 0.950 . S
C470 C468 1.391 . S
C470 C471 1.400 . S
C471 C470 1.400 . S
C471 C472 1.398 . S
C471 C477 1.491 . S
C472 H463 0.950 . S
C472 C471 1.398 . S
C472 C473 1.391 . S
C473 H461 0.950 . S
C473 C469 1.393 . S
C473 C472 1.391 . S
C474 H464 0.950 . S
C474 C475 1.386 . S
C474 C476 1.391 . S
C475 C474 1.386 . S
C475 C479 1.393 . S
C476 H465 0.950 . S
C476 C474 1.391 . S
C476 C477 1.400 . S
C477 C471 1.491 . S
C477 C476 1.400 . S
C477 C478 1.398 . S
C478 H466 0.950 . S
C478 C477 1.398 . S
C478 C479 1.391 . S
C479 H467 0.950 . S
C479 C475 1.393 . S
C479 C478 1.391 . S
H480 C488 0.950 . S
H481 C493 0.950 . S
H482 C490 0.950 . S
H483 C492 0.950 . S
H484 C494 0.950 . S
H485 C496 0.950 . S
H486 C498 0.950 . S
H487 C499 0.950 . S
C488 H480 0.950 . S
C488 C489 1.386 . S
C488 C490 1.391 . S
C489 C488 1.386 . S
C489 C493 1.393 . S
C490 H482 0.950 . S
C490 C488 1.391 . S
C490 C491 1.400 . S
C491 C490 1.400 . S
C491 C492 1.398 . S
C491 C497 1.491 . S
C492 H483 0.950 . S
C492 C491 1.398 . S
C492 C493 1.391 . S
C493 H481 0.950 . S
C493 C489 1.393 . S
C493 C492 1.391 . S
C494 H484 0.950 . S
C494 C495 1.386 . S
C494 C496 1.391 . S
C495 C494 1.386 . S
C495 C499 1.393 . S
C496 H485 0.950 . S
C496 C494 1.391 . S
C496 C497 1.400 . S
C497 C491 1.491 . S
C497 C496 1.400 . S
C497 C498 1.398 . S
C498 H486 0.950 . S
C498 C497 1.398 . S
C498 C499 1.391 . S
C499 H487 0.950 . S
C499 C495 1.393 . S
C499 C498 1.391 . S
H500 C508 0.950 . S
H501 C513 0.950 . S
H502 C510 0.950 . S
H503 C512 0.950 . S
H504 C514 0.950 . S
H505 C516 0.950 . S
H506 C518 0.950 . S
H507 C519 0.950 . S
C508 H500 0.950 . S
C508 C509 1.386 . S
C508 C510 1.391 . S
C509 C508 1.386 . S
C509 C513 1.393 . S
C510 H502 0.950 . S
C510 C508 1.391 . S
C510 C511 1.400 . S
C511 C510 1.400 . S
C511 C512 1.398 . S
C511 C517 1.491 . S
C512 H503 0.950 . S
C512 C511 1.398 . S
C512 C513 1.391 . S
C513 H501 0.950 . S
C513 C509 1.393 . S
C513 C512 1.391 . S
C514 H504 0.950 . S
C514 C515 1.386 . S
C514 C516 1.391 . S
C515 C514 1.386 . S
C515 C519 1.393 . S
C516 H505 0.950 . S
C516 C514 1.391 . S
C516 C517 1.400 . S
C517 C511 1.491 . S
C517 C516 1.400 . S
C517 C518 1.398 . S
C518 H506 0.950 . S
C518 C517 1.398 . S
C518 C519 1.391 . S
C519 H507 0.950 . S
C519 C515 1.393 . S
C519 C518 1.391 . S
H520 C528 0.950 . S
H521 C533 0.950 . S
H522 C530 0.950 . S
H523 C532 0.950 . S
H524 C534 0.950 . S
H525 C536 0.950 . S
H526 C538 0.950 . S
H527 C539 0.950 . S
C528 H520 0.950 . S
C528 C529 1.386 . S
C528 C530 1.391 . S
C529 C528 1.386 . S
C529 C533 1.393 . S
C530 H522 0.950 . S
C530 C528 1.391 . S
C530 C531 1.400 . S
C531 C530 1.400 . S
C531 C532 1.398 . S
C531 C537 1.491 . S
C532 H523 0.950 . S
C532 C531 1.398 . S
C532 C533 1.391 . S
C533 H521 0.950 . S
C533 C529 1.393 . S
C533 C532 1.391 . S
C534 H524 0.950 . S
C534 C535 1.386 . S
C534 C536 1.391 . S
C535 C534 1.386 . S
C535 C539 1.393 . S
C536 H525 0.950 . S
C536 C534 1.391 . S
C536 C537 1.400 . S
C537 C531 1.491 . S
C537 C536 1.400 . S
C537 C538 1.398 . S
C538 H526 0.950 . S
C538 C537 1.398 . S
C538 C539 1.391 . S
C539 H527 0.950 . S
C539 C535 1.393 . S
C539 C538 1.391 . S
H540 C548 0.950 . S
H541 C553 0.950 . S
H542 C550 0.950 . S
H543 C552 0.950 . S
H544 C554 0.950 . S
H545 C556 0.950 . S
H546 C558 0.950 . S
H547 C559 0.950 . S
C548 H540 0.950 . S
C548 C549 1.386 . S
C548 C550 1.391 . S
C549 C548 1.386 . S
C549 C553 1.393 . S
C550 H542 0.950 . S
C550 C548 1.391 . S
C550 C551 1.400 . S
C551 C550 1.400 . S
C551 C552 1.398 . S
C551 C557 1.491 . S
C552 H543 0.950 . S
C552 C551 1.398 . S
C552 C553 1.391 . S
C553 H541 0.950 . S
C553 C549 1.393 . S
C553 C552 1.391 . S
C554 H544 0.950 . S
C554 C555 1.386 . S
C554 C556 1.391 . S
C555 C554 1.386 . S
C555 C559 1.393 . S
C556 H545 0.950 . S
C556 C554 1.391 . S
C556 C557 1.400 . S
C557 C551 1.491 . S
C557 C556 1.400 . S
C557 C558 1.398 . S
C558 H546 0.950 . S
C558 C557 1.398 . S
C558 C559 1.391 . S
C559 H547 0.950 . S
C559 C555 1.393 . S
C559 C558 1.391 . S
H560 C568 0.950 . S
H561 C573 0.950 . S
H562 C570 0.950 . S
H563 C572 0.950 . S
H564 C574 0.950 . S
H565 C576 0.950 . S
H566 C578 0.950 . S
H567 C579 0.950 . S
C568 H560 0.950 . S
C568 C569 1.386 . S
C568 C570 1.391 . S
C569 C568 1.386 . S
C569 C573 1.393 . S
C570 H562 0.950 . S
C570 C568 1.391 . S
C570 C571 1.400 . S
C571 C570 1.400 . S
C571 C572 1.398 . S
C571 C577 1.491 . S
C572 H563 0.950 . S
C572 C571 1.398 . S
C572 C573 1.391 . S
C573 H561 0.950 . S
C573 C569 1.393 . S
C573 C572 1.391 . S
C574 H564 0.950 . S
C574 C575 1.386 . S
C574 C576 1.391 . S
C575 C574 1.386 . S
C575 C579 1.393 . S
C576 H565 0.950 . S
C576 C574 1.391 . S
C576 C577 1.400 . S
C577 C571 1.491 . S
C577 C576 1.400 . S
C577 C578 1.398 . S
C578 H566 0.950 . S
C578 C577 1.398 . S
C578 C579 1.391 . S
C579 H567 0.950 . S
C579 C575 1.393 . S
C579 C578 1.391 . S
H580 C588 0.950 . S
H581 C593 0.950 . S
H582 C590 0.950 . S
H583 C592 0.950 . S
H584 C594 0.950 . S
H585 C596 0.950 . S
H586 C598 0.950 . S
H587 C599 0.950 . S
C588 H580 0.950 . S
C588 C589 1.386 . S
C588 C590 1.391 . S
C589 C588 1.386 . S
C589 C593 1.393 . S
C590 H582 0.950 . S
C590 C588 1.391 . S
C590 C591 1.400 . S
C591 C590 1.400 . S
C591 C592 1.398 . S
C591 C597 1.491 . S
C592 H583 0.950 . S
C592 C591 1.398 . S
C592 C593 1.391 . S
C593 H581 0.950 . S
C593 C589 1.393 . S
C593 C592 1.391 . S
C594 H584 0.950 . S
C594 C595 1.386 . S
C594 C596 1.391 . S
C595 C594 1.386 . S
C595 C599 1.393 . S
C596 H585 0.950 . S
C596 C594 1.391 . S
C596 C597 1.400 . S
C597 C591 1.491 . S
C597 C596 1.400 . S
C597 C598 1.398 . S
C598 H586 0.950 . S
C598 C597 1.398 . S
C598 C599 1.391 . S
C599 H587 0.950 . S
C599 C595 1.393 . S
C599 C598 1.391 . S
H600 C608 0.950 . S
H601 C613 0.950 . S
H602 C610 0.950 . S
H603 C612 0.950 . S
H604 C614 0.950 . S
H605 C616 0.950 . S
H606 C618 0.950 . S
H607 C619 0.950 . S
C608 H600 0.950 . S
C608 C609 1.386 . S
C608 C610 1.391 . S
C609 C608 1.386 . S
C609 C613 1.393 . S
C610 H602 0.950 . S
C610 C608 1.391 . S
C610 C611 1.400 . S
C611 C610 1.400 . S
C611 C612 1.398 . S
C611 C617 1.491 . S
C612 H603 0.950 . S
C612 C611 1.398 . S
C612 C613 1.391 . S
C613 H601 0.950 . S
C613 C609 1.393 . S
C613 C612 1.391 . S
C614 H604 0.950 . S
C614 C615 1.386 . S
C614 C616 1.391 . S
C615 C614 1.386 . S
C615 C619 1.393 . S
C616 H605 0.950 . S
C616 C614 1.391 . S
C616 C617 1.400 . S
C617 C611 1.491 . S
C617 C616 1.400 . S
C617 C618 1.398 . S
C618 H606 0.950 . S
C618 C617 1.398 . S
C618 C619 1.391 . S
C619 H607 0.950 . S
C619 C615 1.393 . S
C619 C618 1.391 . S
H620 C628 0.950 . S
H621 C633 0.950 . S
H622 C630 0.950 . S
H623 C632 0.950 . S
H624 C634 0.950 . S
H625 C636 0.950 . S
H626 C638 0.950 . S
H627 C639 0.950 . S
C628 H620 0.950 . S
C628 C629 1.386 . S
C628 C630 1.391 . S
C629 C628 1.386 . S
C629 C633 1.393 . S
C630 H622 0.950 . S
C630 C628 1.391 . S
C630 C631 1.400 . S
C631 C630 1.400 . S
C631 C632 1.398 . S
C631 C637 1.491 . S
C632 H623 0.950 . S
C632 C631 1.398 . S
C632 C633 1.391 . S
C633 H621 0.950 . S
C633 C629 1.393 . S
C633 C632 1.391 . S
C634 H624 0.950 . S
C634 C635 1.386 . S
C634 C636 1.391 . S
C635 C634 1.386 . S
C635 C639 1.393 . S
C636 H625 0.950 . S
C636 C634 1.391 . S
C636 C637 1.400 . S
C637 C631 1.491 . S
C637 C636 1.400 . S
C637 C638 1.398 . S
C638 H626 0.950 . S
C638 C637 1.398 . S
C638 C639 1.391 . S
C639 H627 0.950 . S
C639 C635 1.393 . S
C639 C638 1.391 . S
H640 C648 0.950 . S
H641 C653 0.950 . S
H642 C650 0.950 . S
H643 C652 0.950 . S
H644 C654 0.950 . S
H645 C656 0.950 . S
H646 C658 0.950 . S
H647 C659 0.950 . S
C648 H640 0.950 . S
C648 C649 1.386 . S
C648 C650 1.391 . S
C649 C648 1.386 . S
C649 C653 1.393 . S
C650 H642 0.950 . S
C650 C648 1.391 . S
C650 C651 1.400 . S
C651 C650 1.400 . S
C651 C652 1.398 . S
C651 C657 1.491 . S
C652 H643 0.950 . S
C652 C651 1.398 . S
C652 C653 1.391 . S
C653 H641 0.950 . S
C653 C649 1.393 . S
C653 C652 1.391 . S
C654 H644 0.950 . S
C654 C655 1.386 . S
C654 C656 1.391 . S
C655 C654 1.386 . S
C655 C659 1.393 . S
C656 H645 0.950 . S
C656 C654 1.391 . S
C656 C657 1.400 . S
C657 C651 1.491 . S
C657 C656 1.400 . S
C657 C658 1.398 . S
C658 H646 0.950 . S
C658 C657 1.398 . S
C658 C659 1.391 . S
C659 H647 0.950 . S
C659 C655 1.393 . S
C659 C658 1.391 . S
H660 C668 0.950 . S
H661 C673 0.950 . S
H662 C670 0.950 . S
H663 C672 0.950 . S
H664 C674 0.950 . S
H665 C676 0.950 . S
H666 C678 0.950 . S
H667 C679 0.950 . S
C668 H660 0.950 . S
C668 C669 1.386 . S
C668 C670 1.391 . S
C669 C668 1.386 . S
C669 C673 1.393 . S
C670 H662 0.950 . S
C670 C668 1.391 . S
C670 C671 1.400 . S
C671 C670 1.400 . S
C671 C672 1.398 . S
C671 C677 1.491 . S
C672 H663 0.950 . S
C672 C671 1.398 . S
C672 C673 1.391 . S
C673 H661 0.950 . S
C673 C669 1.393 . S
C673 C672 1.391 . S
C674 H664 0.950 . S
C674 C675 1.386 . S
C674 C676 1.391 . S
C675 C674 1.386 . S
C675 C679 1.393 . S
C676 H665 0.950 . S
C676 C674 1.391 . S
C676 C677 1.400 . S
C677 C671 1.491 . S
C677 C676 1.400 . S
C677 C678 1.398 . S
C678 H666 0.950 . S
C678 C677 1.398 . S
C678 C679 1.391 . S
C679 H667 0.950 . S
C679 C675 1.393 . S
C679 C678 1.391 . S
C209 C0 1.495 . S
C215 C91 1.492 . S
C229 C22 1.494 . S
C235 C131 1.496 . S
C249 C49 1.497 . S
C255 C98 1.494 . S
C269 C134 1.495 . S
C275 C19 1.492 . S
C289 C41 1.496 . S
C295 C50 1.498 . S
C309 C31 1.494 . S
C315 C122 1.497 . S
C329 C99 1.495 . S
C335 C48 1.496 . S
C349 C119 1.496 . S
C355 C34 1.498 . S
C369 C166 1.497 . S
C375 C17 1.491 . S
C389 C151 1.497 . S
C395 C18 1.494 . S
C409 C168 1.497 . S
C415 C1 1.494 . S
C429 C16 1.495 . S
C435 C167 1.500 . S
C449 C181 1.496 . S
C455 C72 1.499 . S
C469 C69 1.497 . S
C475 C184 1.494 . S
C489 C81 1.494 . S
C495 C172 1.493 . S
C509 C169 1.495 . S
C515 C84 1.496 . S
C529 C116 1.497 . S
C535 C67 1.494 . S
C549 C68 1.496 . S
C555 C101 1.491 . S
C569 C51 1.494 . S
C575 C118 1.501 . S
C589 C117 1.497 . S
C595 C66 1.494 . S
C609 C191 1.496 . S
C615 C100 1.495 . S
C629 C149 1.494 . S
C635 C198 1.501 . S
C649 C150 1.495 . S
C655 C141 1.496 . S
C669 C148 1.497 . S
C675 C199 1.491 . S
