# Generated by pormake.
# Topology wir, (6)-cn, num edge types: 1
# Building blocks:
#     Node 0, Type 0, BuildingBlock: CIFDUS_clean_sbu_1, # of connection points: 6
#     Node 1, Type 0, BuildingBlock: CIFDUS_clean_sbu_1, # of connection points: 6
#     Node 2, Type 0, BuildingBlock: CIFDUS_clean_sbu_1, # of connection points: 6
#     Node 3, Type 0, BuildingBlock: CIFDUS_clean_sbu_1, # of connection points: 6
#     Node 4, Type 0, BuildingBlock: CIFDUS_clean_sbu_1, # of connection points: 6
#     Node 5, Type 0, BuildingBlock: CIFDUS_clean_sbu_1, # of connection points: 6
#     Node 6, Type 0, BuildingBlock: CIFDUS_clean_sbu_1, # of connection points: 6
#     Node 7, Type 0, BuildingBlock: CIFDUS_clean_sbu_1, # of connection points: 6
#     Node 8, Type 0, BuildingBlock: CIFDUS_clean_sbu_1, # of connection points: 6
#     Node 9, Type 0, BuildingBlock: CIFDUS_clean_sbu_1, # of connection points: 6
#     Node 10, Type 0, BuildingBlock: CIFDUS_clean_sbu_1, # of connection points: 6
#     Node 11, Type 0, BuildingBlock: CIFDUS_clean_sbu_1, # of connection points: 6
#     Node 12, Type 0, BuildingBlock: CIFDUS_clean_sbu_1, # of connection points: 6
#     Node 13, Type 0, BuildingBlock: CIFDUS_clean_sbu_1, # of connection points: 6
#     Node 14, Type 0, BuildingBlock: CIFDUS_clean_sbu_1, # of connection points: 6
#     Node 15, Type 0, BuildingBlock: CIFDUS_clean_sbu_1, # of connection points: 6
#     Node 16, Type 0, BuildingBlock: CIFDUS_clean_sbu_1, # of connection points: 6
#     Node 17, Type 0, BuildingBlock: CIFDUS_clean_sbu_1, # of connection points: 6
#     Node 18, Type 0, BuildingBlock: CIFDUS_clean_sbu_1, # of connection points: 6
#     Node 19, Type 0, BuildingBlock: CIFDUS_clean_sbu_1, # of connection points: 6
#     Node 20, Type 0, BuildingBlock: CIFDUS_clean_sbu_1, # of connection points: 6
#     Node 21, Type 0, BuildingBlock: CIFDUS_clean_sbu_1, # of connection points: 6
#     Node 22, Type 0, BuildingBlock: CIFDUS_clean_sbu_1, # of connection points: 6
#     Node 23, Type 0, BuildingBlock: CIFDUS_clean_sbu_1, # of connection points: 6
#     Node 24, Type 0, BuildingBlock: CIFDUS_clean_sbu_1, # of connection points: 6
#     Node 25, Type 0, BuildingBlock: CIFDUS_clean_sbu_1, # of connection points: 6
#     Node 26, Type 0, BuildingBlock: CIFDUS_clean_sbu_1, # of connection points: 6
#     Node 27, Type 0, BuildingBlock: CIFDUS_clean_sbu_1, # of connection points: 6
#     Node 28, Type 0, BuildingBlock: CIFDUS_clean_sbu_1, # of connection points: 6
#     Node 29, Type 0, BuildingBlock: CIFDUS_clean_sbu_1, # of connection points: 6
#     Node 30, Type 0, BuildingBlock: CIFDUS_clean_sbu_1, # of connection points: 6
#     Node 31, Type 0, BuildingBlock: CIFDUS_clean_sbu_1, # of connection points: 6
#     Edge 32, Type (0, 0), BuildingBlock: EZIPEK_clean_linker_0, # of connection points: 2
#     Edge 33, Type (0, 0), BuildingBlock: EZIPEK_clean_linker_0, # of connection points: 2
#     Edge 34, Type (0, 0), BuildingBlock: EZIPEK_clean_linker_0, # of connection points: 2
#     Edge 35, Type (0, 0), BuildingBlock: EZIPEK_clean_linker_0, # of connection points: 2
#     Edge 36, Type (0, 0), BuildingBlock: EZIPEK_clean_linker_0, # of connection points: 2
#     Edge 37, Type (0, 0), BuildingBlock: EZIPEK_clean_linker_0, # of connection points: 2
#     Edge 38, Type (0, 0), BuildingBlock: EZIPEK_clean_linker_0, # of connection points: 2
#     Edge 39, Type (0, 0), BuildingBlock: EZIPEK_clean_linker_0, # of connection points: 2
#     Edge 40, Type (0, 0), BuildingBlock: EZIPEK_clean_linker_0, # of connection points: 2
#     Edge 41, Type (0, 0), BuildingBlock: EZIPEK_clean_linker_0, # of connection points: 2
#     Edge 42, Type (0, 0), BuildingBlock: EZIPEK_clean_linker_0, # of connection points: 2
#     Edge 43, Type (0, 0), BuildingBlock: EZIPEK_clean_linker_0, # of connection points: 2
#     Edge 44, Type (0, 0), BuildingBlock: EZIPEK_clean_linker_0, # of connection points: 2
#     Edge 45, Type (0, 0), BuildingBlock: EZIPEK_clean_linker_0, # of connection points: 2
#     Edge 46, Type (0, 0), BuildingBlock: EZIPEK_clean_linker_0, # of connection points: 2
#     Edge 47, Type (0, 0), BuildingBlock: EZIPEK_clean_linker_0, # of connection points: 2
#     Edge 48, Type (0, 0), BuildingBlock: EZIPEK_clean_linker_0, # of connection points: 2
#     Edge 49, Type (0, 0), BuildingBlock: EZIPEK_clean_linker_0, # of connection points: 2
#     Edge 50, Type (0, 0), BuildingBlock: EZIPEK_clean_linker_0, # of connection points: 2
#     Edge 51, Type (0, 0), BuildingBlock: EZIPEK_clean_linker_0, # of connection points: 2
#     Edge 52, Type (0, 0), BuildingBlock: EZIPEK_clean_linker_0, # of connection points: 2
#     Edge 53, Type (0, 0), BuildingBlock: EZIPEK_clean_linker_0, # of connection points: 2
#     Edge 54, Type (0, 0), BuildingBlock: EZIPEK_clean_linker_0, # of connection points: 2
#     Edge 55, Type (0, 0), BuildingBlock: EZIPEK_clean_linker_0, # of connection points: 2
#     Edge 56, Type (0, 0), BuildingBlock: EZIPEK_clean_linker_0, # of connection points: 2
#     Edge 57, Type (0, 0), BuildingBlock: EZIPEK_clean_linker_0, # of connection points: 2
#     Edge 58, Type (0, 0), BuildingBlock: EZIPEK_clean_linker_0, # of connection points: 2
#     Edge 59, Type (0, 0), BuildingBlock: EZIPEK_clean_linker_0, # of connection points: 2
#     Edge 60, Type (0, 0), BuildingBlock: EZIPEK_clean_linker_0, # of connection points: 2
#     Edge 61, Type (0, 0), BuildingBlock: EZIPEK_clean_linker_0, # of connection points: 2
#     Edge 62, Type (0, 0), BuildingBlock: EZIPEK_clean_linker_0, # of connection points: 2
#     Edge 63, Type (0, 0), BuildingBlock: EZIPEK_clean_linker_0, # of connection points: 2
#     Edge 64, Type (0, 0), BuildingBlock: EZIPEK_clean_linker_0, # of connection points: 2
#     Edge 65, Type (0, 0), BuildingBlock: EZIPEK_clean_linker_0, # of connection points: 2
#     Edge 66, Type (0, 0), BuildingBlock: EZIPEK_clean_linker_0, # of connection points: 2
#     Edge 67, Type (0, 0), BuildingBlock: EZIPEK_clean_linker_0, # of connection points: 2
#     Edge 68, Type (0, 0), BuildingBlock: EZIPEK_clean_linker_0, # of connection points: 2
#     Edge 69, Type (0, 0), BuildingBlock: EZIPEK_clean_linker_0, # of connection points: 2
#     Edge 70, Type (0, 0), BuildingBlock: EZIPEK_clean_linker_0, # of connection points: 2
#     Edge 71, Type (0, 0), BuildingBlock: EZIPEK_clean_linker_0, # of connection points: 2
#     Edge 72, Type (0, 0), BuildingBlock: EZIPEK_clean_linker_0, # of connection points: 2
#     Edge 73, Type (0, 0), BuildingBlock: EZIPEK_clean_linker_0, # of connection points: 2
#     Edge 74, Type (0, 0), BuildingBlock: EZIPEK_clean_linker_0, # of connection points: 2
#     Edge 75, Type (0, 0), BuildingBlock: EZIPEK_clean_linker_0, # of connection points: 2
#     Edge 76, Type (0, 0), BuildingBlock: EZIPEK_clean_linker_0, # of connection points: 2
#     Edge 77, Type (0, 0), BuildingBlock: EZIPEK_clean_linker_0, # of connection points: 2
#     Edge 78, Type (0, 0), BuildingBlock: EZIPEK_clean_linker_0, # of connection points: 2
#     Edge 79, Type (0, 0), BuildingBlock: EZIPEK_clean_linker_0, # of connection points: 2
#     Edge 80, Type (0, 0), BuildingBlock: EZIPEK_clean_linker_0, # of connection points: 2
#     Edge 81, Type (0, 0), BuildingBlock: EZIPEK_clean_linker_0, # of connection points: 2
#     Edge 82, Type (0, 0), BuildingBlock: EZIPEK_clean_linker_0, # of connection points: 2
#     Edge 83, Type (0, 0), BuildingBlock: EZIPEK_clean_linker_0, # of connection points: 2
#     Edge 84, Type (0, 0), BuildingBlock: EZIPEK_clean_linker_0, # of connection points: 2
#     Edge 85, Type (0, 0), BuildingBlock: EZIPEK_clean_linker_0, # of connection points: 2
#     Edge 86, Type (0, 0), BuildingBlock: EZIPEK_clean_linker_0, # of connection points: 2
#     Edge 87, Type (0, 0), BuildingBlock: EZIPEK_clean_linker_0, # of connection points: 2
#     Edge 88, Type (0, 0), BuildingBlock: EZIPEK_clean_linker_0, # of connection points: 2
#     Edge 89, Type (0, 0), BuildingBlock: EZIPEK_clean_linker_0, # of connection points: 2
#     Edge 90, Type (0, 0), BuildingBlock: EZIPEK_clean_linker_0, # of connection points: 2
#     Edge 91, Type (0, 0), BuildingBlock: EZIPEK_clean_linker_0, # of connection points: 2
#     Edge 92, Type (0, 0), BuildingBlock: EZIPEK_clean_linker_0, # of connection points: 2
#     Edge 93, Type (0, 0), BuildingBlock: EZIPEK_clean_linker_0, # of connection points: 2
#     Edge 94, Type (0, 0), BuildingBlock: EZIPEK_clean_linker_0, # of connection points: 2
#     Edge 95, Type (0, 0), BuildingBlock: EZIPEK_clean_linker_0, # of connection points: 2
#     Edge 96, Type (0, 0), BuildingBlock: EZIPEK_clean_linker_0, # of connection points: 2
#     Edge 97, Type (0, 0), BuildingBlock: EZIPEK_clean_linker_0, # of connection points: 2
#     Edge 98, Type (0, 0), BuildingBlock: EZIPEK_clean_linker_0, # of connection points: 2
#     Edge 99, Type (0, 0), BuildingBlock: EZIPEK_clean_linker_0, # of connection points: 2
#     Edge 100, Type (0, 0), BuildingBlock: EZIPEK_clean_linker_0, # of connection points: 2
#     Edge 101, Type (0, 0), BuildingBlock: EZIPEK_clean_linker_0, # of connection points: 2
#     Edge 102, Type (0, 0), BuildingBlock: EZIPEK_clean_linker_0, # of connection points: 2
#     Edge 103, Type (0, 0), BuildingBlock: EZIPEK_clean_linker_0, # of connection points: 2
#     Edge 104, Type (0, 0), BuildingBlock: EZIPEK_clean_linker_0, # of connection points: 2
#     Edge 105, Type (0, 0), BuildingBlock: EZIPEK_clean_linker_0, # of connection points: 2
#     Edge 106, Type (0, 0), BuildingBlock: EZIPEK_clean_linker_0, # of connection points: 2
#     Edge 107, Type (0, 0), BuildingBlock: EZIPEK_clean_linker_0, # of connection points: 2
#     Edge 108, Type (0, 0), BuildingBlock: EZIPEK_clean_linker_0, # of connection points: 2
#     Edge 109, Type (0, 0), BuildingBlock: EZIPEK_clean_linker_0, # of connection points: 2
#     Edge 110, Type (0, 0), BuildingBlock: EZIPEK_clean_linker_0, # of connection points: 2
#     Edge 111, Type (0, 0), BuildingBlock: EZIPEK_clean_linker_0, # of connection points: 2
#     Edge 112, Type (0, 0), BuildingBlock: EZIPEK_clean_linker_0, # of connection points: 2
#     Edge 113, Type (0, 0), BuildingBlock: EZIPEK_clean_linker_0, # of connection points: 2
#     Edge 114, Type (0, 0), BuildingBlock: EZIPEK_clean_linker_0, # of connection points: 2
#     Edge 115, Type (0, 0), BuildingBlock: EZIPEK_clean_linker_0, # of connection points: 2
#     Edge 116, Type (0, 0), BuildingBlock: EZIPEK_clean_linker_0, # of connection points: 2
#     Edge 117, Type (0, 0), BuildingBlock: EZIPEK_clean_linker_0, # of connection points: 2
#     Edge 118, Type (0, 0), BuildingBlock: EZIPEK_clean_linker_0, # of connection points: 2
#     Edge 119, Type (0, 0), BuildingBlock: EZIPEK_clean_linker_0, # of connection points: 2
#     Edge 120, Type (0, 0), BuildingBlock: EZIPEK_clean_linker_0, # of connection points: 2
#     Edge 121, Type (0, 0), BuildingBlock: EZIPEK_clean_linker_0, # of connection points: 2
#     Edge 122, Type (0, 0), BuildingBlock: EZIPEK_clean_linker_0, # of connection points: 2
#     Edge 123, Type (0, 0), BuildingBlock: EZIPEK_clean_linker_0, # of connection points: 2
#     Edge 124, Type (0, 0), BuildingBlock: EZIPEK_clean_linker_0, # of connection points: 2
#     Edge 125, Type (0, 0), BuildingBlock: EZIPEK_clean_linker_0, # of connection points: 2
#     Edge 126, Type (0, 0), BuildingBlock: EZIPEK_clean_linker_0, # of connection points: 2
#     Edge 127, Type (0, 0), BuildingBlock: EZIPEK_clean_linker_0, # of connection points: 2
# Relax obj value: 0.204
# Max RMSD: 0.167
# Mean RMSD: 0.167
data_MOF--net-wir--node1-CIFDUS_clean_sbu_1--edge1-EZIPEK_clean_linker_0
_symmetry_space_group_name_H-M    P1
_symmetry_Int_Tables_number       1
_symmetry_cell_setting            triclinic
loop_
_symmetry_equiv_pos_as_xyz
'x, y, z'
_cell_length_a     30.080716
_cell_length_b     30.066848
_cell_length_c     59.348165
_cell_angle_alpha  90.467782
_cell_angle_beta   90.057079
_cell_angle_gamma 89.870753
loop_
_atom_site_label
_atom_site_type_symbol
_atom_site_fract_x
_atom_site_fract_y
_atom_site_fract_z
_atom_type_partial_charge
O0 O 0.20745 0.11709 0.26984 0.0
Mn1 Mn 0.1964 0.16194 0.29702 0.0
O2 O 0.20357 0.04896 0.28541 0.0
Mn3 Mn 0.18674 0.06413 0.31368 0.0
O4 O 0.18407 0.19978 0.32614 0.0
O5 O 0.23243 0.20917 0.27713 0.0
Mn6 Mn 0.21336 0.25124 0.29619 0.0
O7 O 0.13722 0.1909 0.28297 0.0
O8 O 0.23756 0.24676 0.32429 0.0
O9 O 0.25515 0.13634 0.31508 0.0
O10 O 0.23145 0.07548 0.33365 0.0
O11 O 0.24494 0.2842 0.27818 0.0
O12 O 0.15235 0.26109 0.29316 0.0
C13 C 0.12492 0.09463 0.31917 0.0
C14 C 0.21142 0.07413 0.2688 0.0
C15 C 0.21147 0.22501 0.33628 0.0
C16 C 0.24956 0.24599 0.26817 0.0
C17 C 0.12534 0.23242 0.28523 0.0
C18 C 0.26003 0.10576 0.33063 0.0
O19 O 0.15883 0.11439 0.31071 0.0
O20 O 0.13049 0.05289 0.32358 0.0
O21 O 0.09902 0.86803 0.53644 0.0
Mn22 Mn 0.12394 0.9297 0.54857 0.0
O23 O 0.03156 0.88326 0.54722 0.0
Mn24 Mn 0.04104 0.94444 0.54506 0.0
O25 O 0.15252 0.98932 0.56355 0.0
O26 O 0.16499 0.89412 0.56681 0.0
Mn27 Mn 0.21993 0.91184 0.56844 0.0
O28 O 0.17114 0.93006 0.52268 0.0
O29 O 0.21345 0.96559 0.58291 0.0
O30 O 0.08156 0.92884 0.57685 0.0
O31 O 0.0353 0.98098 0.56955 0.0
O32 O 0.2172 0.85668 0.58236 0.0
O33 O 0.2378 0.91495 0.53895 0.0
C34 C 0.04192 0.97235 0.51608 0.0
C35 C 0.05947 0.85489 0.54048 0.0
C36 C 0.18506 0.99558 0.57797 0.0
C37 C 0.17595 0.85784 0.57623 0.0
C38 C 0.21352 0.92353 0.52197 0.0
C39 C 0.05347 0.95753 0.58396 0.0
O40 O 0.08141 0.96606 0.52596 0.0
O41 O 1.00439 0.96024 0.52471 0.0
O42 O 0.41577 0.84108 0.78305 0.0
Mn43 Mn 0.3574 0.87334 0.79451 0.0
O44 O 0.40125 0.7768 0.79957 0.0
Mn45 Mn 0.34006 0.78687 0.80022 0.0
O46 O 0.29946 0.90529 0.80912 0.0
O47 O 0.39623 0.92396 0.80479 0.0
Mn48 Mn 0.37006 0.97545 0.80134 0.0
O49 O 0.3494 0.90674 0.76358 0.0
O50 O 0.32215 0.97358 0.82035 0.0
O51 O 0.36622 0.84561 0.82695 0.0
O52 O 0.31178 0.79959 0.8264 0.0
O53 O 0.4248 0.98884 0.8128 0.0
O54 O 0.35857 0.9801 0.77141 0.0
C55 C 0.30369 0.7814 0.77303 0.0
C56 C 0.42793 0.80184 0.78907 0.0
C57 C 0.2945 0.94175 0.82095 0.0
C58 C 0.42891 0.94599 0.8134 0.0
C59 C 0.35062 0.94815 0.75792 0.0
C60 C 0.3367 0.82404 0.83775 0.0
O61 O 0.31905 0.82167 0.7786 0.0
O62 O 0.31208 0.74639 0.78493 0.0
O63 O 0.42919 0.16112 0.04165 0.0
Mn64 Mn 0.39569 0.10679 0.05684 0.0
O65 O 0.49737 0.14516 0.05477 0.0
Mn66 Mn 0.48398 0.08672 0.06239 0.0
O67 O 0.36719 0.05017 0.07401 0.0
O68 O 0.34751 0.14665 0.06922 0.0
Mn69 Mn 0.29617 0.1196 0.07055 0.0
O70 O 0.35515 0.09499 0.02814 0.0
O71 O 0.30341 0.07345 0.09017 0.0
O72 O 0.42702 0.12582 0.08653 0.0
O73 O 0.47331 0.07319 0.09207 0.0
O74 O 0.28539 0.1766 0.08071 0.0
O75 O 0.28443 0.10434 0.04108 0.0
C76 C 0.48325 0.04493 0.03595 0.0
C77 C 0.47116 0.17072 0.04395 0.0
C78 C 0.33378 0.04452 0.08765 0.0
C79 C 0.32736 0.18163 0.07677 0.0
C80 C 0.31226 0.09583 0.02543 0.0
C81 C 0.45146 0.10496 0.1001 0.0
O82 O 0.44599 0.06639 0.04156 0.0
O83 O 0.5181 0.04766 0.04876 0.0
O84 O 0.10073 0.84587 0.17804 0.0
Mn85 Mn 0.16257 0.87584 0.16736 0.0
O86 O 0.11704 0.77455 0.18366 0.0
Mn87 Mn 0.17345 0.78196 0.17341 0.0
O88 O 0.22043 0.90535 0.15243 0.0
O89 O 0.12527 0.92062 0.15237 0.0
Mn90 Mn 0.14255 0.97528 0.15402 0.0
O91 O 0.17205 0.91994 0.19486 0.0
O92 O 0.19737 0.97267 0.13969 0.0
O93 O 0.15633 0.8405 0.13809 0.0
O94 O 0.18387 0.77372 0.14361 0.0
O95 O 0.09067 0.97592 0.13744 0.0
O96 O 0.14084 0.98485 0.18446 0.0
C97 C 0.22131 0.794 0.1945 0.0
C98 C 0.08861 0.80496 0.18147 0.0
C99 C 0.22647 0.94178 0.14106 0.0
C100 C 0.09224 0.93345 0.14068 0.0
C101 C 0.1639 0.9619 0.19801 0.0
C102 C 0.17051 0.80373 0.13073 0.0
O103 O 0.2011 0.82879 0.18523 0.0
O104 O 0.21124 0.75315 0.18934 0.0
O105 O 0.43938 0.86711 0.4254 0.0
Mn106 Mn 0.41315 0.93309 0.41687 0.0
O107 O 0.50946 0.87473 0.43718 0.0
Mn108 Mn 0.50259 0.93462 0.44314 0.0
O109 O 0.38814 0.99599 0.40349 0.0
O110 O 0.36817 0.90054 0.39811 0.0
Mn111 Mn 0.31617 0.92726 0.39952 0.0
O112 O 0.36757 0.93232 0.44363 0.0
O113 O 0.32345 0.9807 0.38575 0.0
O114 O 0.45945 0.9349 0.39194 0.0
O115 O 0.52176 0.93967 0.41288 0.0
O116 O 0.30587 0.87916 0.3818 0.0
O117 O 0.29856 0.92735 0.42885 0.0
C118 C 0.47868 0.95206 0.45404 0.0
C119 C 0.47829 0.85042 0.43027 0.0
C120 C 0.35574 1.00654 0.38976 0.0
C121 C 0.34807 0.87293 0.38494 0.0
C122 C 0.32502 0.92975 0.44543 0.0
C123 C 0.50175 0.93759 0.39377 0.0
O124 O 0.45599 0.96842 0.43694 0.0
O125 O 0.4609 0.91989 0.46512 0.0
O126 O 0.42246 0.17749 0.67435 0.0
Mn127 Mn 0.36182 0.15115 0.66106 0.0
O128 O 0.40079 0.24703 0.67083 0.0
Mn129 Mn 0.34075 0.23312 0.6665 0.0
O130 O 0.29997 0.12918 0.64445 0.0
O131 O 0.39723 0.10805 0.64083 0.0
Mn132 Mn 0.35771 0.06342 0.64268 0.0
O133 O 0.35845 0.10481 0.68706 0.0
O134 O 0.32057 0.07651 0.61982 0.0
O135 O 0.37257 0.19573 0.6342 0.0
O136 O 0.31409 0.23411 0.6386 0.0
O137 O 0.41033 0.03553 0.64373 0.0
O138 O 0.3266 0.05047 0.66833 0.0
C139 C 0.30483 0.22733 0.69357 0.0
C140 C 0.43175 0.21952 0.67478 0.0
C141 C 0.29223 0.10491 0.62641 0.0
C142 C 0.4258 0.07517 0.64099 0.0
C143 C 0.33903 0.06719 0.68663 0.0
C144 C 0.34577 0.22409 0.62623 0.0
O145 O 0.32298 0.19064 0.68464 0.0
O146 O 0.30906 0.26598 0.68446 0.0
O147 O 0.09175 0.1602 0.9224 0.0
Mn148 Mn 0.13077 0.10615 0.91024 0.0
O149 O 0.02681 0.139 0.90646 0.0
Mn150 Mn 0.04229 0.07925 0.90133 0.0
O151 O 0.1643 0.05054 0.89441 0.0
O152 O 0.17961 0.1476 0.90123 0.0
Mn153 Mn 0.23172 0.12137 0.90257 0.0
O154 O 0.16551 0.09714 0.94116 0.0
O155 O 0.22958 0.07648 0.88154 0.0
O156 O 0.10268 0.11893 0.87883 0.0
O157 O 0.06377 0.06017 0.87389 0.0
O158 O 0.2432 0.17841 0.89369 0.0
O159 O 0.23839 0.10484 0.93192 0.0
C160 C 0.04618 0.0413 0.92938 0.0
C161 C 0.05019 0.16758 0.91734 0.0
C162 C 0.19916 0.04736 0.88152 0.0
C163 C 0.20037 0.18243 0.89447 0.0
C164 C 0.20766 0.09706 0.94602 0.0
C165 C 0.08372 0.0922 0.86524 0.0
O166 O 0.08011 0.06594 0.92307 0.0
O167 O 1.01141 0.03929 0.91648 0.0
O168 O 0.91334 0.84266 0.67788 0.0
Mn169 Mn 0.85425 0.87488 0.66524 0.0
O170 O 0.89582 0.77148 0.6709 0.0
Mn171 Mn 0.83603 0.78273 0.66493 0.0
O172 O 0.79438 0.9038 0.64976 0.0
O173 O 0.89333 0.9233 0.65243 0.0
Mn174 Mn 0.86286 0.97289 0.65058 0.0
O175 O 0.84773 0.91597 0.69399 0.0
O176 O 0.81826 0.96278 0.63024 0.0
O177 O 0.86389 0.84072 0.63484 0.0
O178 O 0.81642 0.7872 0.63584 0.0
O179 O 0.91876 0.9875 0.64125 0.0
O180 O 0.84617 0.9858 0.67962 0.0
C181 C 0.79563 0.79105 0.69135 0.0
C182 C 0.92402 0.80059 0.67723 0.0
C183 C 0.78858 0.9342 0.63432 0.0
C184 C 0.92705 0.94607 0.64539 0.0
C185 C 0.844 0.95877 0.69598 0.0
C186 C 0.8423 0.8107 0.62458 0.0
O187 O 0.81662 0.82619 0.68291 0.0
O188 O 0.79939 0.75239 0.68171 0.0
O189 O 0.94238 0.17841 0.42382 0.0
Mn190 Mn 0.91113 0.12155 0.40966 0.0
O191 O 1.00962 0.15275 0.41825 0.0
Mn192 Mn 0.99001 0.09381 0.41523 0.0
O193 O 0.87912 0.06623 0.3921 0.0
O194 O 0.87511 0.16228 0.39139 0.0
Mn195 Mn 0.81874 0.147 0.38902 0.0
O196 O 0.86338 0.12155 0.43465 0.0
O197 O 0.82602 0.09805 0.37018 0.0
O198 O 0.95658 0.125 0.38293 0.0
O199 O 0.99036 0.06397 0.38808 0.0
O200 O 0.82315 0.20841 0.38466 0.0
O201 O 0.79765 0.13223 0.4173 0.0
C202 C 0.9806 0.06055 0.44244 0.0
C203 C 0.98455 0.18523 0.42311 0.0
C204 C 0.84993 0.06452 0.37565 0.0
C205 C 0.86421 0.20329 0.39053 0.0
C206 C 0.82091 0.12406 0.43469 0.0
C207 C 0.98257 0.09538 0.3753 0.0
O208 O 0.94503 0.07845 0.43269 0.0
O209 O 0.02032 0.06351 0.43436 0.0
O210 O 0.60816 0.18454 0.16651 0.0
Mn211 Mn 0.67464 0.15633 0.15904 0.0
O212 O 0.61716 0.22539 0.19626 0.0
Mn213 Mn 0.66505 0.23386 0.17809 0.0
O214 O 0.73656 0.12651 0.14655 0.0
O215 O 0.64044 0.11716 0.1379 0.0
Mn216 Mn 0.66295 0.06402 0.13458 0.0
O217 O 0.6684 0.10676 0.18369 0.0
O218 O 0.71463 0.07661 0.11998 0.0
O219 O 0.68589 0.20079 0.1335 0.0
O220 O 0.65203 0.25611 0.14988 0.0
O221 O 0.60711 0.0622 0.12156 0.0
O222 O 0.66935 0.04214 0.16362 0.0
C223 C 0.72432 0.23567 0.19219 0.0
C224 C 0.59083 0.20911 0.18227 0.0
C225 C 0.74448 0.10075 0.12899 0.0
C226 C 0.60381 0.10215 0.12964 0.0
C227 C 0.66962 0.06379 0.18222 0.0
C228 C 0.67046 0.23976 0.13276 0.0
O229 O 0.71168 0.19687 0.18288 0.0
O230 O 0.70119 0.27168 0.19012 0.0
O231 O 0.59028 0.87927 0.92965 0.0
Mn232 Mn 0.6212 0.93545 0.91639 0.0
O233 O 0.52347 0.90572 0.92302 0.0
Mn234 Mn 0.54303 0.96481 0.92052 0.0
O235 O 0.65286 0.99156 0.89976 0.0
O236 O 0.6571 0.89444 0.89744 0.0
Mn237 Mn 0.7124 0.91186 0.89404 0.0
O238 O 0.66937 0.93548 0.94104 0.0
O239 O 0.70297 0.96054 0.87578 0.0
O240 O 0.57728 0.9307 0.88944 0.0
O241 O 0.54547 0.99313 0.893 0.0
O242 O 0.71073 0.85043 0.88957 0.0
O243 O 0.73399 0.92785 0.92202 0.0
C244 C 0.54871 0.99448 0.94972 0.0
C245 C 0.54819 0.87309 0.92819 0.0
C246 C 0.68071 0.99419 0.88282 0.0
C247 C 0.67001 0.8538 0.89632 0.0
C248 C 0.71185 0.93464 0.93994 0.0
C249 C 0.55418 0.96084 0.88058 0.0
O250 O 0.58557 0.97739 0.94041 0.0
O251 O 0.51121 0.99603 0.93907 0.0
O252 O 0.92446 0.18276 0.79026 0.0
Mn253 Mn 0.86496 0.15397 0.80392 0.0
O254 O 0.91186 0.25312 0.80162 0.0
Mn255 Mn 0.85192 0.24553 0.80836 0.0
O256 O 0.80472 0.12982 0.8202 0.0
O257 O 0.89873 0.10284 0.81685 0.0
Mn258 Mn 0.86867 0.05336 0.81762 0.0
O259 O 0.85235 0.11449 0.77509 0.0
O260 O 0.82168 0.06425 0.83639 0.0
O261 O 0.88416 0.18422 0.83365 0.0
O262 O 0.83751 0.23733 0.83829 0.0
O263 O 0.9241 0.03942 0.82875 0.0
O264 O 0.85522 0.0432 0.78788 0.0
C265 C 0.80999 0.24435 0.7815 0.0
C266 C 0.93735 0.22404 0.79256 0.0
C267 C 0.79543 0.09679 0.83358 0.0
C268 C 0.93168 0.08103 0.82497 0.0
C269 C 0.85019 0.0717 0.77229 0.0
C270 C 0.86611 0.21199 0.84672 0.0
O271 O 0.82948 0.20689 0.78825 0.0
O272 O 0.8154 0.28048 0.79323 0.0
O273 O 0.61359 0.17289 0.53458 0.0
Mn274 Mn 0.63896 0.10938 0.5465 0.0
O275 O 0.54093 0.16268 0.52948 0.0
Mn276 Mn 0.54772 0.10291 0.52269 0.0
O277 O 0.66402 0.04877 0.56225 0.0
O278 O 0.68418 0.14392 0.56404 0.0
Mn279 Mn 0.73685 0.11826 0.56379 0.0
O280 O 0.68386 0.1064 0.5199 0.0
O281 O 0.72902 0.06638 0.57928 0.0
O282 O 0.59292 0.11124 0.57192 0.0
O283 O 0.53161 0.08946 0.55264 0.0
O284 O 0.74457 0.17078 0.57923 0.0
O285 O 0.75317 0.11448 0.53395 0.0
C286 C 0.57029 0.08529 0.51104 0.0
C287 C 0.57365 0.18836 0.53142 0.0
C288 C 0.69671 0.03993 0.57612 0.0
C289 C 0.70267 0.17585 0.57502 0.0
C290 C 0.72613 0.10979 0.51763 0.0
C291 C 0.55239 0.09828 0.57108 0.0
O292 O 0.59633 0.07133 0.52752 0.0
O293 O 0.58502 0.11652 0.4984 0.0
O294 O 0.62722 0.84361 0.28513 0.0
Mn295 Mn 0.68312 0.8814 0.29657 0.0
O296 O 0.64718 0.77602 0.29859 0.0
Mn297 Mn 0.7066 0.78892 0.30468 0.0
O298 O 0.74093 0.91465 0.31083 0.0
O299 O 0.64493 0.93249 0.307 0.0
Mn300 Mn 0.66913 0.98425 0.30161 0.0
O301 O 0.69059 0.91359 0.26488 0.0
O302 O 0.72137 0.98599 0.31781 0.0
O303 O 0.66937 0.85575 0.3285 0.0
O304 O 0.72064 0.80616 0.33383 0.0
O305 O 0.61714 0.99695 0.31639 0.0
O306 O 0.67352 0.98632 0.27109 0.0
C307 C 0.74485 0.79446 0.27555 0.0
C308 C 0.61932 0.80154 0.28871 0.0
C309 C 0.74853 0.95378 0.31969 0.0
C310 C 0.61444 0.9541 0.31774 0.0
C311 C 0.68374 0.95405 0.25815 0.0
C312 C 0.69129 0.83154 0.34199 0.0
O313 O 0.72102 0.82805 0.28364 0.0
O314 O 0.74732 0.75952 0.28814 0.0
O315 O 0.94116 0.87382 0.0305 0.0
Mn316 Mn 0.90726 0.92986 0.04383 0.0
O317 O 1.00749 0.89832 0.04144 0.0
Mn318 Mn 0.98922 0.95815 0.04479 0.0
O319 O 0.87816 0.98935 0.06035 0.0
O320 O 0.86276 0.89064 0.06101 0.0
Mn321 Mn 0.81587 0.92718 0.05625 0.0
O322 O 0.86911 0.93261 0.01529 0.0
O323 O 0.82031 0.96446 0.08027 0.0
O324 O 0.94434 0.9204 0.07259 0.0
O325 O 0.973 0.98391 0.07203 0.0
O326 O 0.79531 0.87172 0.05157 0.0
O327 O 0.80759 0.95831 0.03014 0.0
C328 C 0.98562 0.99039 0.01596 0.0
C329 C 0.98335 0.86709 0.03327 0.0
C330 C 0.84922 0.99422 0.07676 0.0
C331 C 0.83447 0.85861 0.0573 0.0
C332 C 0.83049 0.94859 0.0132 0.0
C333 C 0.96463 0.95034 0.08318 0.0
O334 O 0.94998 0.96919 0.0234 0.0
O335 O 0.02127 0.99357 0.02807 0.0
O336 O 0.68495 0.61615 0.77607 0.0
Mn337 Mn 0.67627 0.65606 0.80482 0.0
O338 O 0.71465 0.55741 0.7921 0.0
Mn339 Mn 0.6814 0.56352 0.81792 0.0
O340 O 0.66158 0.69351 0.83443 0.0
O341 O 0.7125 0.7042 0.78554 0.0
Mn342 Mn 0.69221 0.74445 0.805 0.0
O343 O 0.6169 0.68257 0.79141 0.0
O344 O 0.71461 0.74079 0.83373 0.0
O345 O 0.73744 0.63266 0.82173 0.0
O346 O 0.71646 0.57423 0.84226 0.0
O347 O 0.72413 0.77941 0.78819 0.0
O348 O 0.6312 0.75283 0.80073 0.0
C349 C 0.61234 0.57421 0.81462 0.0
C350 C 0.70337 0.5779 0.77465 0.0
C351 C 0.68446 0.72287 0.84475 0.0
C352 C 0.72969 0.74192 0.77764 0.0
C353 C 0.60438 0.72342 0.79363 0.0
C354 C 0.74448 0.60459 0.83823 0.0
O355 O 0.63973 0.60657 0.81995 0.0
O356 O 0.62984 0.53504 0.81299 0.0
O357 O 0.5954 0.35628 0.03414 0.0
Mn358 Mn 0.62209 0.42238 0.03972 0.0
O359 O 0.52529 0.36544 0.02314 0.0
Mn360 Mn 0.52483 0.42207 0.03411 0.0
O361 O 0.64926 0.48611 0.05032 0.0
O362 O 0.67485 0.39264 0.05293 0.0
Mn363 Mn 0.7255 0.41872 0.0474 0.0
O364 O 0.65521 0.42165 0.00871 0.0
O365 O 0.71929 0.47206 0.06243 0.0
O366 O 0.59259 0.42395 0.0712 0.0
O367 O 0.51985 0.4291 0.06444 0.0
O368 O 0.73912 0.36857 0.06379 0.0
O369 O 0.72894 0.41911 0.01653 0.0
C370 C 0.53455 0.47247 0.01257 0.0
C371 C 0.55737 0.34012 0.02789 0.0
C372 C 0.68485 0.49666 0.06188 0.0
C373 C 0.69648 0.36322 0.06383 0.0
C374 C 0.69639 0.41998 0.00281 0.0
C375 C 0.55258 0.42823 0.0778 0.0
O376 O 0.56895 0.45355 0.02278 0.0
O377 O 0.49454 0.46065 0.01797 0.0
O378 O 0.93707 0.35667 0.2818 0.0
Mn379 Mn 0.87621 0.38387 0.29391 0.0
O380 O 0.9222 0.28882 0.29327 0.0
Mn381 Mn 0.86106 0.29859 0.29469 0.0
O382 O 0.81373 0.4089 0.30924 0.0
O383 O 0.91236 0.43276 0.31051 0.0
Mn384 Mn 0.87079 0.47515 0.3061 0.0
O385 O 0.87088 0.42156 0.2647 0.0
O386 O 0.83389 0.46799 0.32983 0.0
O387 O 0.88674 0.34913 0.3241 0.0
O388 O 0.833 0.30303 0.32208 0.0
O389 O 0.92242 0.50406 0.30314 0.0
O390 O 0.83974 0.48094 0.27959 0.0
C391 C 0.82621 0.29536 0.2667 0.0
C392 C 0.94969 0.31645 0.28559 0.0
C393 C 0.80603 0.43755 0.32563 0.0
C394 C 0.94004 0.46584 0.30742 0.0
C395 C 0.85085 0.45862 0.26258 0.0
C396 C 0.86095 0.32241 0.33407 0.0
O397 O 0.83918 0.3355 0.27408 0.0
O398 O 0.8357 0.25935 0.27753 0.0
O399 O 0.93798 0.66544 0.53882 0.0
Mn400 Mn 0.90583 0.60639 0.55086 0.0
O401 O 1.00791 0.65293 0.55119 0.0
Mn402 Mn 1.00015 0.59285 0.55788 0.0
O403 O 0.87694 0.54654 0.56607 0.0
O404 O 0.85183 0.64129 0.56064 0.0
Mn405 Mn 0.80228 0.61193 0.55678 0.0
O406 O 0.87428 0.59499 0.51959 0.0
O407 O 0.80617 0.56379 0.57548 0.0
O408 O 0.93135 0.6234 0.58237 0.0
O409 O 0.98632 0.57788 0.58713 0.0
O410 O 0.78532 0.66631 0.56837 0.0
O411 O 0.80018 0.60116 0.52637 0.0
C412 C 0.99756 0.55037 0.53049 0.0
C413 C 0.97911 0.6781 0.54183 0.0
C414 C 0.83962 0.53806 0.57663 0.0
C415 C 0.82771 0.67334 0.56848 0.0
C416 C 0.83312 0.59551 0.5132 0.0
C417 C 0.95841 0.60442 0.59555 0.0
O418 O 0.96154 0.57162 0.53778 0.0
O419 O 0.0336 0.55441 0.5423 0.0
O420 O 0.61852 0.34463 0.68378 0.0
Mn421 Mn 0.67498 0.37733 0.66916 0.0
O422 O 0.6362 0.27512 0.67442 0.0
Mn423 Mn 0.69584 0.28829 0.6691 0.0
O424 O 0.73187 0.40829 0.65124 0.0
O425 O 0.63471 0.42325 0.6532 0.0
Mn426 Mn 0.66627 0.47283 0.65922 0.0
O427 O 0.68225 0.41534 0.69872 0.0
O428 O 0.70426 0.47073 0.63549 0.0
O429 O 0.66388 0.34186 0.63932 0.0
O430 O 0.71623 0.29308 0.64019 0.0
O431 O 0.60834 0.48735 0.6637 0.0
O432 O 0.69733 0.48171 0.68527 0.0
C433 C 0.7359 0.29477 0.69577 0.0
C434 C 0.60826 0.30273 0.68256 0.0
C435 C 0.73438 0.44101 0.63654 0.0
C436 C 0.59946 0.44796 0.65636 0.0
C437 C 0.69504 0.45546 0.70147 0.0
C438 C 0.6888 0.31473 0.62888 0.0
O439 O 0.71562 0.33097 0.68767 0.0
O440 O 0.73139 0.25653 0.68581 0.0
O441 O 0.93003 0.35689 0.92032 0.0
Mn442 Mn 0.90455 0.42284 0.9139 0.0
O443 O 0.97474 0.35932 0.94964 0.0
Mn444 Mn 0.97562 0.42106 0.94937 0.0
O445 O 0.87933 0.48716 0.90161 0.0
O446 O 0.87798 0.39608 0.88637 0.0
Mn447 Mn 0.82479 0.41588 0.87966 0.0
O448 O 0.84554 0.41159 0.93107 0.0
O449 O 0.84071 0.47046 0.86967 0.0
O450 O 0.96374 0.43422 0.89746 0.0
O451 O 1.01559 0.43579 0.92499 0.0
O452 O 0.82964 0.36128 0.86557 0.0
O453 O 0.7903 0.41721 0.90556 0.0
C454 C 0.96377 0.44718 0.95738 0.0
C455 C 0.95734 0.33766 0.93388 0.0
C456 C 0.85915 0.49866 0.88277 0.0
C457 C 0.8662 0.35948 0.877 0.0
C458 C 0.80423 0.4133 0.92568 0.0
C459 C 1.00416 0.43747 0.90424 0.0
O460 O 0.92799 0.4525 0.94377 0.0
O461 O 0.95837 0.43419 0.97814 0.0
O462 O 0.90269 0.68336 0.16841 0.0
Mn463 Mn 0.84444 0.65346 0.15503 0.0
O464 O 0.88551 0.75321 0.1591 0.0
Mn465 Mn 0.82497 0.74163 0.15649 0.0
O466 O 0.7851 0.6267 0.1384 0.0
O467 O 0.88276 0.6069 0.13891 0.0
Mn468 Mn 0.85556 0.55517 0.1402 0.0
O469 O 0.83869 0.61101 0.18293 0.0
O470 O 0.80492 0.56039 0.12333 0.0
O471 O 0.85377 0.69009 0.12584 0.0
O472 O 0.80031 0.73724 0.12851 0.0
O473 O 0.907 0.54266 0.12548 0.0
O474 O 0.84958 0.54099 0.16986 0.0
C475 C 0.79078 0.73747 0.18512 0.0
C476 C 0.91313 0.72499 0.16669 0.0
C477 C 0.77792 0.59269 0.12495 0.0
C478 C 0.91294 0.58513 0.12759 0.0
C479 C 0.84241 0.56863 0.18571 0.0
C480 C 0.82675 0.71604 0.11624 0.0
O481 O 0.80764 0.70012 0.17599 0.0
O482 O 0.79381 0.77507 0.17471 0.0
O483 O 0.61344 0.67334 0.41992 0.0
Mn484 Mn 0.64351 0.61418 0.4071 0.0
O485 O 0.54612 0.64944 0.41086 0.0
Mn486 Mn 0.56349 0.58916 0.40948 0.0
O487 O 0.67055 0.55374 0.39143 0.0
O488 O 0.68466 0.65162 0.38865 0.0
Mn489 Mn 0.73723 0.62692 0.38565 0.0
O490 O 0.69167 0.61159 0.43261 0.0
O491 O 0.72746 0.57563 0.36942 0.0
O492 O 0.60128 0.62105 0.37935 0.0
O493 O 0.5703 0.55882 0.3824 0.0
O494 O 0.74105 0.68171 0.37202 0.0
O495 O 0.7579 0.61955 0.41487 0.0
C496 C 0.5659 0.55859 0.43865 0.0
C497 C 0.57134 0.68083 0.41739 0.0
C498 C 0.70006 0.54611 0.37565 0.0
C499 C 0.70034 0.68614 0.37869 0.0
C500 C 0.73455 0.61334 0.43252 0.0
C501 C 0.57928 0.59046 0.36994 0.0
O502 O 0.60347 0.5759 0.43051 0.0
O503 O 0.52924 0.55908 0.42736 0.0
O504 O 0.41396 0.34518 0.16922 0.0
Mn505 Mn 0.35934 0.38427 0.15727 0.0
O506 O 0.39332 0.27978 0.15403 0.0
Mn507 Mn 0.33336 0.29369 0.1487 0.0
O508 O 0.30103 0.41611 0.14198 0.0
O509 O 0.40082 0.43558 0.14779 0.0
Mn510 Mn 0.36632 0.48274 0.15298 0.0
O511 O 0.35055 0.41457 0.18914 0.0
O512 O 0.32122 0.48487 0.13239 0.0
O513 O 0.37287 0.35759 0.12538 0.0
O514 O 0.31539 0.31587 0.12126 0.0
O515 O 0.41751 0.50786 0.14522 0.0
O516 O 0.35143 0.48796 0.18244 0.0
C517 C 0.29691 0.29904 0.1782 0.0
C518 C 0.42081 0.30271 0.16582 0.0
C519 C 0.2942 0.45292 0.13096 0.0
C520 C 0.42852 0.46676 0.14137 0.0
C521 C 0.34835 0.45547 0.19567 0.0
C522 C 0.34719 0.33605 0.11229 0.0
O523 O 0.32098 0.33219 0.17038 0.0
O524 O 0.29316 0.26434 0.16527 0.0
O525 O 0.4409 0.67853 0.91878 0.0
Mn526 Mn 0.41476 0.61616 0.90632 0.0
O527 O 0.51464 0.67263 0.91734 0.0
Mn528 Mn 0.51217 0.61467 0.90805 0.0
O529 O 0.38785 0.55418 0.8925 0.0
O530 O 0.36319 0.64907 0.89142 0.0
Mn531 Mn 0.31699 0.61404 0.89809 0.0
O532 O 0.38138 0.61206 0.93703 0.0
O533 O 0.32458 0.57496 0.87499 0.0
O534 O 0.44356 0.61761 0.87433 0.0
O535 O 0.51547 0.60452 0.87806 0.0
O536 O 0.29837 0.67134 0.90162 0.0
O537 O 0.31692 0.58534 0.92515 0.0
C538 C 0.50403 0.56557 0.93126 0.0
C539 C 0.4802 0.69468 0.92244 0.0
C540 C 0.35664 0.54777 0.87734 0.0
C541 C 0.33746 0.68294 0.89514 0.0
C542 C 0.34292 0.59587 0.94087 0.0
C543 C 0.48135 0.60865 0.86596 0.0
O544 O 0.46873 0.58458 0.92204 0.0
O545 O 0.54328 0.57671 0.92436 0.0
O546 O 0.10885 0.67162 0.67142 0.0
Mn547 Mn 0.17018 0.64642 0.65873 0.0
O548 O 0.12797 0.74118 0.66483 0.0
Mn549 Mn 0.18927 0.72869 0.66415 0.0
O550 O 0.23141 0.62272 0.64324 0.0
O551 O 0.13677 0.60495 0.63914 0.0
Mn552 Mn 0.16029 0.55229 0.6354 0.0
O553 O 0.17329 0.597 0.68314 0.0
O554 O 0.21194 0.56547 0.6202 0.0
O555 O 0.16252 0.69105 0.63205 0.0
O556 O 0.22105 0.72824 0.6375 0.0
O557 O 0.10382 0.5506 0.62247 0.0
O558 O 0.16694 0.53112 0.66452 0.0
C559 C 0.22081 0.72323 0.69296 0.0
C560 C 0.09814 0.71311 0.66995 0.0
C561 C 0.24009 0.59419 0.62706 0.0
C562 C 0.10097 0.59086 0.6301 0.0
C563 C 0.17143 0.55419 0.68254 0.0
C564 C 0.19084 0.71785 0.62428 0.0
O565 O 0.20627 0.68613 0.68298 0.0
O566 O 0.21532 0.76202 0.68421 0.0
O567 O 0.10554 0.37619 0.42334 0.0
Mn568 Mn 0.13313 0.43703 0.41076 0.0
O569 O 0.03481 0.38894 0.41536 0.0
Mn570 Mn 0.0435 0.44996 0.41429 0.0
O571 O 0.15923 0.49898 0.39532 0.0
O572 O 0.17966 0.40242 0.39216 0.0
Mn573 Mn 0.22621 0.43884 0.39689 0.0
O574 O 0.17509 0.43813 0.43913 0.0
O575 O 0.21663 0.47603 0.37382 0.0
O576 O 0.09629 0.43332 0.38049 0.0
O577 O 0.04111 0.47751 0.38734 0.0
O578 O 0.24765 0.38314 0.39943 0.0
O579 O 0.2329 0.46972 0.42346 0.0
C580 C 0.0489 0.48536 0.44271 0.0
C581 C 0.06467 0.36285 0.42255 0.0
C582 C 0.18685 0.50464 0.37826 0.0
C583 C 0.20813 0.37004 0.39441 0.0
C584 C 0.21351 0.45596 0.4407 0.0
C585 C 0.06669 0.45977 0.37332 0.0
O586 O 0.08631 0.47103 0.43269 0.0
O587 O 1.01026 0.47753 0.43392 0.0
O588 O 0.4357 0.67636 0.29103 0.0
Mn589 Mn 0.3671 0.65444 0.29641 0.0
O590 O 0.43643 0.71505 0.26077 0.0
Mn591 Mn 0.38657 0.72819 0.27681 0.0
O592 O 0.30285 0.62872 0.30812 0.0
O593 O 0.39561 0.61528 0.3186 0.0
Mn594 Mn 0.37206 0.562 0.32015 0.0
O595 O 0.37303 0.6042 0.27202 0.0
O596 O 0.32213 0.57962 0.33545 0.0
O597 O 0.35662 0.7018 0.32085 0.0
O598 O 0.396 0.75318 0.30472 0.0
O599 O 0.4318 0.55652 0.32747 0.0
O600 O 0.35957 0.54155 0.29152 0.0
C601 C 0.32996 0.7355 0.2616 0.0
C602 C 0.45836 0.6969 0.27591 0.0
C603 C 0.29344 0.60473 0.32603 0.0
C604 C 0.43385 0.59744 0.32114 0.0
C605 C 0.36504 0.56223 0.27319 0.0
C606 C 0.37424 0.73981 0.3214 0.0
O607 O 0.33646 0.69625 0.27157 0.0
O608 O 0.35759 0.76832 0.2629 0.0
O609 O 0.10739 0.67822 0.02348 0.0
Mn610 Mn 0.13234 0.6163 0.03802 0.0
O611 O 0.03559 0.66605 0.01935 0.0
Mn612 Mn 0.04316 0.60581 0.01311 0.0
O613 O 0.16021 0.55785 0.05604 0.0
O614 O 0.17073 0.65327 0.05903 0.0
Mn615 Mn 0.22399 0.62653 0.05631 0.0
O616 O 0.17982 0.61439 0.01233 0.0
O617 O 0.21429 0.58636 0.07843 0.0
O618 O 0.0825 0.6175 0.06184 0.0
O619 O 0.0225 0.5935 0.04245 0.0
O620 O 0.23276 0.68615 0.0528 0.0
O621 O 0.24102 0.59712 0.03072 0.0
C622 C 0.06544 0.5888 0.00145 0.0
C623 C 0.06743 0.69303 0.01998 0.0
C624 C 0.18801 0.55473 0.07327 0.0
C625 C 0.19162 0.69063 0.05815 0.0
C626 C 0.22028 0.60178 0.01261 0.0
C627 C 0.04174 0.60558 0.0608 0.0
O628 O 0.09311 0.5761 0.01773 0.0
O629 O 0.07805 0.62026 -0.01172 0.0
O630 O 0.12 0.35203 0.7922 0.0
Mn631 Mn 0.18066 0.38252 0.80102 0.0
O632 O 0.14404 0.28759 0.80436 0.0
Mn633 Mn 0.20419 0.30459 0.80318 0.0
O634 O 0.24287 0.41025 0.81249 0.0
O635 O 0.14805 0.43183 0.8183 0.0
Mn636 Mn 0.1732 0.4825 0.81021 0.0
O637 O 0.18052 0.4196 0.77103 0.0
O638 O 0.22979 0.48183 0.82183 0.0
O639 O 0.17584 0.34835 0.83208 0.0
O640 O 0.23947 0.32441 0.82673 0.0
O641 O 0.12949 0.50001 0.8291 0.0
O642 O 0.1671 0.49101 0.78 0.0
C643 C 0.23176 0.29516 0.77382 0.0
C644 C 0.11209 0.31101 0.79681 0.0
C645 C 0.25481 0.44779 0.82162 0.0
C646 C 0.12451 0.45748 0.83152 0.0
C647 C 0.17355 0.46036 0.76564 0.0
C648 C 0.20952 0.32976 0.84057 0.0
O649 O 0.21525 0.33532 0.77877 0.0
O650 O 0.23183 0.26314 0.78818 0.0
O651 O 0.45274 0.37527 0.5344 0.0
Mn652 Mn 0.41763 0.4334 0.54538 0.0
O653 O 0.52179 0.39636 0.54356 0.0
Mn654 Mn 0.50741 0.45539 0.54859 0.0
O655 O 0.38467 0.4911 0.56024 0.0
O656 O 0.36954 0.39331 0.5567 0.0
Mn657 Mn 0.31683 0.41776 0.55547 0.0
O658 O 0.38025 0.43888 0.51511 0.0
O659 O 0.32007 0.46586 0.57465 0.0
O660 O 0.44756 0.42529 0.57705 0.0
O661 O 0.49887 0.47559 0.57717 0.0
O662 O 0.3078 0.36177 0.56663 0.0
O663 O 0.30823 0.42971 0.52576 0.0
C664 C 0.50344 0.49462 0.52223 0.0
C665 C 0.49467 0.3664 0.53722 0.0
C666 C 0.34997 0.49549 0.57334 0.0
C667 C 0.35063 0.35892 0.56518 0.0
C668 C 0.33784 0.43729 0.51104 0.0
C669 C 0.47333 0.451 0.58799 0.0
O670 O 0.46689 0.47326 0.52895 0.0
O671 O 0.54035 0.49187 0.53344 0.0
C672 C 0.24142 0.25711 0.3705 0.0
C673 C 0.20315 0.24337 0.35905 0.0
C674 C 0.16278 0.30718 0.37495 0.0
C675 C 0.20427 0.32628 0.38189 0.0
N676 N 0.28402 0.32296 0.37379 0.0
N677 N 0.12478 0.24993 0.35356 0.0
C678 C 0.24424 0.30196 0.37698 0.0
C679 C 0.16279 0.26623 0.36281 0.0
N680 N 0.27797 0.2303 0.37094 0.0
N681 N 0.12338 0.32787 0.3792 0.0
H682 H 0.12255 0.21675 0.34882 0.0
H683 H 0.09585 0.26836 0.35127 0.0
H684 H 0.12092 0.35954 0.38548 0.0
H685 H 0.09235 0.31314 0.37719 0.0
H686 H 0.30617 0.2382 0.38041 0.0
H687 H 0.27849 0.19947 0.36283 0.0
H688 H 0.31321 0.306 0.36964 0.0
H689 H 0.28625 0.35672 0.37015 0.0
C690 C 0.03719 0.96508 0.62533 0.0
C691 C 0.02662 0.94723 0.60376 0.0
C692 C 0.97035 0.90143 0.62053 0.0
C693 C 0.971 0.92805 0.63972 0.0
N694 N 1.0111 0.9775 0.66385 0.0
N695 N 0.97116 0.90899 0.58074 0.0
C696 C 1.00764 0.95643 0.64351 0.0
C697 C 0.99018 0.91773 0.60115 0.0
N698 N 0.07284 0.99256 0.62784 0.0
N699 N 0.94782 0.86268 0.62058 0.0
H700 H 0.97828 0.92732 0.56646 0.0
H701 H 0.94314 0.88887 0.57893 0.0
H702 H 0.93893 0.84944 0.636 0.0
H703 H 0.94398 0.8424 0.60642 0.0
H704 H 0.0843 1.00413 0.64336 0.0
H705 H 0.09109 1.00353 0.61404 0.0
H706 H 0.03474 1.00162 0.66767 0.0
H707 H 0.98904 0.97028 0.67692 0.0
C708 C 0.38244 0.78969 0.86678 0.0
C709 C 0.34189 0.8102 0.8614 0.0
C710 C 0.30102 0.74966 0.87762 0.0
C711 C 0.3413 0.72651 0.88277 0.0
N712 N 0.42095 0.72234 0.87597 0.0
N713 N 0.26461 0.81903 0.87025 0.0
C714 C 0.38251 0.74615 0.87596 0.0
C715 C 0.30266 0.79453 0.87137 0.0
N716 N 0.42083 0.81198 0.86268 0.0
N717 N 0.26233 0.72698 0.87365 0.0
H718 H 0.26243 0.84802 0.86092 0.0
H719 H 0.23603 0.81053 0.87919 0.0
H720 H 0.26172 0.69284 0.87042 0.0
H721 H 0.23275 0.74237 0.86885 0.0
H722 H 0.4521 0.80075 0.86752 0.0
H723 H 0.4203 0.84483 0.85728 0.0
H724 H 0.45056 0.73272 0.86866 0.0
H725 H 0.4224 0.68995 0.881 0.0
C726 C 0.5469 0.16003 0.121 0.0
C727 C 0.55943 0.12178 0.1331 0.0
C728 C 0.48144 0.104 0.13792 0.0
C729 C 0.47235 0.1296 0.11886 0.0
N730 N 0.49203 0.19368 0.09682 0.0
N731 N 0.53777 0.06096 0.15694 0.0
C732 C 0.50301 0.16307 0.11272 0.0
C733 C 0.52626 0.09533 0.14328 0.0
N734 N 0.57749 0.19168 0.11651 0.0
N735 N 0.44715 0.08742 0.15007 0.0
H736 H 0.57081 0.05441 0.16107 0.0
H737 H 0.51487 0.03826 0.16322 0.0
H738 H 0.4148 0.09807 0.14673 0.0
H739 H 0.45138 0.0691 0.16475 0.0
H740 H 0.57042 0.22251 0.10947 0.0
H741 H 0.60955 0.18751 0.12217 0.0
H742 H 0.5145 0.21552 0.08953 0.0
H743 H 0.46014 0.19648 0.09032 0.0
C744 C 0.1322 0.77307 0.09816 0.0
C745 C 0.17009 0.79432 0.10686 0.0
C746 C 0.21892 0.74705 0.08618 0.0
C747 C 0.182 0.72603 0.07531 0.0
N748 N 0.10172 0.71787 0.07303 0.0
N749 N 0.24671 0.814 0.10339 0.0
C750 C 0.13782 0.73898 0.08173 0.0
C751 C 0.21206 0.78699 0.09769 0.0
N752 N 0.09136 0.78487 0.10641 0.0
N753 N 0.25819 0.72508 0.08969 0.0
H754 H 0.24259 0.84134 0.11413 0.0
H755 H 0.27807 0.8106 0.09605 0.0
H756 H 0.26123 0.69066 0.08796 0.0
H757 H 0.28471 0.73913 0.09855 0.0
H758 H 0.06155 0.76926 0.10242 0.0
H759 H 0.08747 0.81132 0.11772 0.0
H760 H 0.0688 0.72651 0.07608 0.0
H761 H 0.10468 0.692 0.06182 0.0
C762 C 0.54239 0.92742 0.33261 0.0
C763 C 0.58807 0.93548 0.3359 0.0
C764 C 0.57458 0.9534 0.37498 0.0
C765 C 0.53002 0.93789 0.37312 0.0
N766 N 0.47637 0.89803 0.34943 0.0
N767 N 0.64952 0.94359 0.36166 0.0
C768 C 0.51504 0.92117 0.35174 0.0
C769 C 0.60483 0.94274 0.35776 0.0
N770 N 0.52495 0.92664 0.31136 0.0
N771 N 0.58718 0.98248 0.39161 0.0
H772 H 0.67261 0.93655 0.34903 0.0
H773 H 0.66281 0.94687 0.37783 0.0
H774 H 0.56443 0.99886 0.40202 0.0
H775 H 0.61905 0.99598 0.39249 0.0
H776 H 0.49083 0.92596 0.30825 0.0
H777 H 0.54478 0.92883 0.29698 0.0
H778 H 0.46593 0.88454 0.3341 0.0
H779 H 0.45734 0.88722 0.36282 0.0
C780 C 0.37745 0.28239 0.57207 0.0
C781 C 0.37328 0.32692 0.57943 0.0
C782 C 0.36317 0.30438 0.61804 0.0
C783 C 0.36244 0.2588 0.61074 0.0
N784 N 0.38033 0.20411 0.58209 0.0
N785 N 0.37649 0.38117 0.60911 0.0
C786 C 0.37417 0.2476 0.58818 0.0
C787 C 0.37195 0.33782 0.6024 0.0
N788 N 0.38176 0.27394 0.54955 0.0
N789 N 0.35251 0.31671 0.63954 0.0
H790 H 0.37923 0.40683 0.59761 0.0
H791 H 0.38238 0.39109 0.62571 0.0
H792 H 0.35178 0.29528 0.65287 0.0
H793 H 0.34316 0.34883 0.64427 0.0
H794 H 0.38077 0.24232 0.54232 0.0
H795 H 0.3857 0.29969 0.538 0.0
H796 H 0.39163 0.19396 0.5663 0.0
H797 H 0.37662 0.17795 0.59335 0.0
C798 C 0.05407 0.08127 0.82683 0.0
C799 C 0.06119 0.11036 0.84534 0.0
C800 C 0.98364 0.12904 0.84672 0.0
C801 C 0.97564 0.09948 0.8286 0.0
N802 N 1.00452 0.0589 0.7966 0.0
N803 N 0.03807 0.17888 0.86274 0.0
C804 C 1.01155 0.08 0.81673 0.0
C805 C 0.0278 0.14132 0.851 0.0
N806 N 0.08598 0.05145 0.82081 0.0
N807 N 0.95074 0.14101 0.86135 0.0
H808 H 0.07114 0.18841 0.86466 0.0
H809 H 1.01425 0.20168 0.86826 0.0
H810 H 0.9184 0.12885 0.85998 0.0
H811 H 0.95705 0.15961 0.87592 0.0
H812 H 0.08125 0.02631 0.80886 0.0
H813 H 0.11604 0.05044 0.8293 0.0
H814 H 0.03033 0.04686 0.78655 0.0
H815 H 0.97313 0.05762 0.78909 0.0
C816 C 0.88347 0.74768 0.61052 0.0
C817 C 0.86277 0.78813 0.60518 0.0
C818 C 0.8364 0.75568 0.57 0.0
C819 C 0.84566 0.71306 0.5792 0.0
N820 N 0.87118 0.66902 0.61071 0.0
N821 N 0.83514 0.83606 0.57676 0.0
C822 C 0.86815 0.70889 0.59997 0.0
C823 C 0.8441 0.79397 0.58372 0.0
N824 N 0.9158 0.74658 0.6265 0.0
N825 N 0.82022 0.75891 0.54856 0.0
H826 H 0.84396 0.86345 0.58675 0.0
H827 H 0.82083 0.84387 0.56133 0.0
H828 H 0.81578 0.73104 0.5382 0.0
H829 H 0.81287 0.78882 0.54071 0.0
H830 H 0.93203 0.71754 0.63136 0.0
H831 H 0.9295 0.77595 0.63267 0.0
H832 H 0.88329 0.66629 0.62711 0.0
H833 H 0.85797 0.63959 0.60415 0.0
C834 C 0.06329 0.11302 0.36842 0.0
C835 C 1.01868 0.10911 0.36016 0.0
C836 C 0.04587 0.11549 0.32173 0.0
C837 C 0.08936 0.11776 0.33047 0.0
N838 N 0.13806 0.13634 0.36112 0.0
N839 N 0.96742 0.12414 0.32978 0.0
C840 C 0.09696 0.12437 0.35346 0.0
C841 C 1.00973 0.11649 0.33701 0.0
N842 N 0.07519 0.10272 0.38995 0.0
N843 N 0.03964 0.11121 0.29907 0.0
H844 H 0.94112 0.1282 0.34102 0.0
H845 H 0.95957 0.13177 0.31316 0.0
H846 H 0.06629 0.11271 0.28782 0.0
H847 H 1.00879 0.10491 0.29173 0.0
H848 H 0.10806 0.09897 0.3952 0.0
H849 H 0.05355 0.09434 0.40245 0.0
H850 H 0.14398 0.1471 0.37761 0.0
H851 H 0.16506 0.13953 0.35041 0.0
C852 C 0.67114 0.28769 0.07339 0.0
C853 C 0.67623 0.33283 0.07954 0.0
C854 C 0.68654 0.3141 0.1185 0.0
C855 C 0.6772 0.26897 0.11334 0.0
N856 N 0.65982 0.21191 0.08543 0.0
N857 N 0.67562 0.3903 0.10791 0.0
C858 C 0.66902 0.25523 0.09064 0.0
C859 C 0.67858 0.34633 0.10219 0.0
N860 N 0.6704 0.27607 0.05109 0.0
N861 N 0.70667 0.32571 0.13837 0.0
H862 H 0.67082 0.41486 0.09585 0.0
H863 H 0.67349 0.40144 0.12456 0.0
H864 H 0.71856 0.30213 0.14968 0.0
H865 H 0.71707 0.358 0.14207 0.0
H866 H 0.67173 0.24341 0.04517 0.0
H867 H 0.66999 0.29985 0.03836 0.0
H868 H 0.64738 0.20166 0.06986 0.0
H869 H 0.66379 0.18588 0.09666 0.0
C870 C 0.44462 0.93299 0.85238 0.0
C871 C 0.45914 0.92775 0.83 0.0
C872 C 0.53651 0.93277 0.8417 0.0
C873 C 0.52161 0.94716 0.86334 0.0
N874 N 0.4613 0.94978 0.89091 0.0
N875 N 0.51635 0.91684 0.80267 0.0
C876 C 0.47566 0.94374 0.86923 0.0
C877 C 0.50454 0.92493 0.82453 0.0
N878 N 0.40004 0.93285 0.85679 0.0
N879 N 0.58079 0.92625 0.83773 0.0
H880 H 0.49261 0.90891 0.79042 0.0
H881 H 0.5487 0.91867 0.79657 0.0
H882 H 0.60485 0.92934 0.85027 0.0
H883 H 0.59361 0.914 0.82264 0.0
H884 H 0.38528 0.94396 0.87164 0.0
H885 H 0.37721 0.9226 0.84472 0.0
H886 H 0.43049 0.93955 0.89683 0.0
H887 H 0.48025 0.96249 0.90388 0.0
C888 C 0.92624 0.26112 0.85678 0.0
C889 C 0.89423 0.23092 0.86465 0.0
C890 C 0.87069 0.28455 0.89272 0.0
C891 C 0.88998 0.31779 0.87902 0.0
N892 N 0.93562 0.33808 0.84738 0.0
N893 N 0.85511 0.20534 0.89674 0.0
C894 C 0.91958 0.30636 0.86153 0.0
C895 C 0.87341 0.23975 0.88529 0.0
N896 N 0.95933 0.24721 0.84285 0.0
N897 N 0.84675 0.29664 0.91127 0.0
H898 H 0.86002 0.17271 0.89111 0.0
H899 H 0.83849 0.20854 0.91203 0.0
H900 H 0.84552 0.32958 0.9168 0.0
H901 H 0.82923 0.27454 0.92129 0.0
H902 H 0.98517 0.268 0.83785 0.0
H903 H 0.96215 0.21409 0.83787 0.0
H904 H 0.95193 0.33032 0.83235 0.0
H905 H 0.93111 0.37205 0.85041 0.0
C906 C 0.50273 0.04971 0.59248 0.0
C907 C 0.52855 0.08871 0.59214 0.0
C908 C 0.49637 0.11039 0.62836 0.0
C909 C 0.46339 0.07772 0.62534 0.0
N910 N 0.42824 0.02601 0.59882 0.0
N911 N 0.54339 0.16103 0.60866 0.0
C912 C 0.4646 0.04944 0.60597 0.0
C913 C 0.52434 0.12029 0.60997 0.0
N914 N 0.51332 1.0139 0.57923 0.0
N915 N 0.50105 0.13185 0.64853 0.0
H916 H 0.56324 0.16988 0.59523 0.0
H917 H 0.53543 0.1868 0.6198 0.0
H918 H 0.48233 0.12306 0.66259 0.0
H919 H 0.52678 0.15424 0.65174 0.0
H920 H 0.49588 0.98399 0.58002 0.0
H921 H 0.54227 1.01276 0.56953 0.0
H922 H 0.42818 1.00774 0.5838 0.0
H923 H 0.39662 0.02997 0.60569 0.0
C924 C 0.69632 0.80968 0.38167 0.0
C925 C 0.66917 0.81625 0.36281 0.0
C926 C 0.64423 0.74019 0.3635 0.0
C927 C 0.67943 0.7304 0.37857 0.0
N928 N 0.73125 0.75642 0.40674 0.0
N929 N 0.59684 0.79881 0.3491 0.0
C930 C 0.70229 0.7657 0.3897 0.0
C931 C 0.63533 0.78526 0.3588 0.0
N932 N 0.71565 0.84579 0.39144 0.0
N933 N 0.62337 0.70736 0.35165 0.0
H934 H 0.59127 0.83254 0.34604 0.0
H935 H 0.56994 0.77752 0.34669 0.0
H936 H 0.6324 0.67414 0.35321 0.0
H937 H 0.60006 0.71382 0.33907 0.0
H938 H 0.73637 0.84468 0.40547 0.0
H939 H 0.70714 0.8776 0.38598 0.0
H940 H 0.7509 0.78004 0.41485 0.0
H941 H 0.73527 0.72419 0.41274 0.0
C942 C 0.07279 0.90644 0.10503 0.0
C943 C 0.06329 0.90417 0.12803 0.0
C944 C 0.98508 0.91442 0.11948 0.0
C945 C 0.99828 0.93439 0.09891 0.0
N946 N 0.06065 0.95492 0.07424 0.0
N947 N 1.00944 0.8993 0.15754 0.0
C948 C 0.04361 0.93126 0.09182 0.0
C949 C 1.01871 0.90388 0.13523 0.0
N950 N 0.11347 0.89431 0.09711 0.0
N951 N 0.94137 0.90686 0.12421 0.0
H952 H 0.03467 0.89363 0.16923 0.0
H953 H 0.97782 0.90385 0.16435 0.0
H954 H 0.91577 0.91436 0.11301 0.0
H955 H 0.93113 0.88957 0.13844 0.0
H956 H 0.1211 0.89262 0.07998 0.0
H957 H 0.13829 0.8836 0.10781 0.0
H958 H 0.09394 0.95349 0.06946 0.0
H959 H 0.04538 0.98207 0.067 0.0
C960 C 0.65717 0.77423 0.90164 0.0
C961 C 0.63981 0.81529 0.89422 0.0
C962 C 0.64095 0.79143 0.85622 0.0
C963 C 0.66272 0.75096 0.86223 0.0
N964 N 0.67129 0.69673 0.89172 0.0
N965 N 0.58309 0.84057 0.86928 0.0
C966 C 0.66408 0.7395 0.88542 0.0
C967 C 0.61904 0.81481 0.87333 0.0
N968 N 0.67017 0.77032 0.92347 0.0
N969 N 0.64533 0.81092 0.83575 0.0
H970 H 0.56515 0.85422 0.88263 0.0
H971 H 0.56906 0.84257 0.8533 0.0
H972 H 0.67009 0.80209 0.82445 0.0
H973 H 0.62972 0.84097 0.83196 0.0
H974 H 0.6871 0.74263 0.92958 0.0
H975 H 0.66476 0.79626 0.93498 0.0
H976 H 0.67115 0.68675 0.9085 0.0
H977 H 0.67158 0.67101 0.87982 0.0
C978 C 0.49768 0.42149 0.13268 0.0
C979 C 0.46935 0.45819 0.12827 0.0
C980 C 0.52359 0.48534 0.10147 0.0
C981 C 0.54283 0.4428 0.10065 0.0
N982 N 0.551 0.36987 0.11623 0.0
N983 N 0.45156 0.51887 0.1028 0.0
C984 C 0.53142 0.41081 0.11683 0.0
C985 C 0.48158 0.48933 0.11146 0.0
N986 N 0.49376 0.39825 0.15208 0.0
N987 N 0.5416 0.51929 0.08944 0.0
H988 H 0.41771 0.51799 0.10648 0.0
H989 H 0.45904 0.5397 0.08936 0.0
H990 H 0.57069 0.51515 0.08007 0.0
H991 H 0.52936 0.55174 0.09037 0.0
H992 H 0.5166 0.37376 0.15642 0.0
H993 H 0.47166 0.40769 0.16478 0.0
H994 H 0.54039 0.34346 0.12614 0.0
H995 H 0.57667 0.36246 0.10495 0.0
C996 C 0.91966 0.23586 0.36799 0.0
C997 C 0.89652 0.23978 0.38817 0.0
C998 C 0.87496 0.31376 0.37572 0.0
C999 C 0.87851 0.2974 0.35323 0.0
N1000 N 0.90066 0.23403 0.3293 0.0
N1001 N 0.86513 0.29089 0.41476 0.0
C1002 C 0.90062 0.25612 0.34941 0.0
C1003 C 0.87999 0.28252 0.39351 0.0
N1004 N 0.95733 0.21163 0.36631 0.0
N1005 N 0.8673 0.35765 0.37992 0.0
H1006 H 0.86854 0.267 0.42735 0.0
H1007 H 0.84849 0.32003 0.41932 0.0
H1008 H 0.86659 0.38085 0.36693 0.0
H1009 H 0.86636 0.37106 0.39616 0.0
H1010 H 0.97423 0.20788 0.35112 0.0
H1011 H 0.9735 0.20121 0.38073 0.0
H1012 H 0.91673 0.20349 0.32724 0.0
H1013 H 0.87936 0.24179 0.31619 0.0
C1014 C 1.00579 0.66056 0.61078 0.0
C1015 C 0.9731 0.6289 0.61581 0.0
C1016 C 0.02279 0.59532 0.6427 0.0
C1017 C 0.05863 0.61458 0.63073 0.0
N1018 N 0.08388 0.66706 0.60294 0.0
N1019 N 0.94347 0.58513 0.64548 0.0
C1020 C 0.05038 0.64947 0.6154 0.0
C1021 C 0.9792 0.60338 0.63518 0.0
N1022 N 0.99463 0.69689 0.59865 0.0
N1023 N 0.02951 0.56716 0.66018 0.0
H1024 H 0.9113 0.59277 0.64009 0.0
H1025 H 0.94649 0.56487 0.65961 0.0
H1026 H 0.06101 0.55949 0.66645 0.0
H1027 H 0.06101 0.55949 0.66645 0.0
H1028 H 1.01689 0.72252 0.59538 0.0
H1029 H 0.96177 0.7019 0.59382 0.0
H1030 H 0.0787 0.68997 0.5901 0.0
H1031 H 0.11622 0.65512 0.60405 0.0
C1032 C 0.65507 0.21404 0.60259 0.0
C1033 C 0.67983 0.21563 0.58249 0.0
C1034 C 0.69594 0.29366 0.58851 0.0
C1035 C 0.67185 0.29167 0.60888 0.0
N1036 N 0.61216 0.25716 0.62909 0.0
N1037 N 0.70997 0.25878 0.55222 0.0
C1038 C 0.64501 0.2544 0.61345 0.0
C1039 C 0.69452 0.25658 0.57377 0.0
N1040 N 0.64399 0.1744 0.61211 0.0
N1041 N 0.72377 0.32837 0.58455 0.0
H1042 H 0.70949 0.23107 0.54148 0.0
H1043 H 0.71894 0.2886 0.54465 0.0
H1044 H 0.72757 0.35403 0.59625 0.0
H1045 H 0.74525 0.32959 0.57081 0.0
H1046 H 0.6306 0.17213 0.62826 0.0
H1047 H 0.65021 0.14384 0.60427 0.0
H1048 H 0.59138 0.23076 0.63309 0.0
H1049 H 0.60325 0.28755 0.63614 0.0
C1050 C 0.06474 0.41231 0.85 0.0
C1051 C 0.10065 0.44213 0.85157 0.0
C1052 C 0.07537 0.46772 0.88851 0.0
C1053 C 0.03948 0.43748 0.88706 0.0
N1054 N 1.01393 0.36764 0.87117 0.0
N1055 N 0.15005 0.48348 0.87594 0.0
C1056 C 0.03842 0.40544 0.86932 0.0
C1057 C 0.10936 0.4648 0.87215 0.0
N1058 N 0.05346 0.39304 0.82993 0.0
N1059 N 0.07602 0.50066 0.9045 0.0
H1060 H 0.17615 0.48022 0.86445 0.0
H1061 H 0.15912 0.49744 0.89141 0.0
H1062 H 0.05049 0.50564 0.91612 0.0
H1063 H 0.09987 0.52576 0.90473 0.0
H1064 H 0.02502 0.37361 0.82791 0.0
H1065 H 0.07013 0.40004 0.81502 0.0
H1066 H 1.01844 0.34078 0.86015 0.0
H1067 H 0.99337 0.3612 0.88487 0.0
C1068 C 0.7962 0.79426 0.07605 0.0
C1069 C 0.83685 0.81534 0.06979 0.0
C1070 C 0.87674 0.75534 0.08929 0.0
C1071 C 0.83531 0.73463 0.09377 0.0
N1072 N 0.75896 0.72527 0.08285 0.0
N1073 N 0.9175 0.8102 0.06894 0.0
C1074 C 0.79704 0.74972 0.08267 0.0
C1075 C 0.87766 0.79368 0.07549 0.0
N1076 N 0.75824 0.81812 0.08015 0.0
N1077 N 0.91465 0.74164 0.09987 0.0
H1078 H 0.92118 0.84253 0.06393 0.0
H1079 H 0.94688 0.7917 0.06905 0.0
H1080 H 0.91716 0.71182 0.10837 0.0
H1081 H 0.94377 0.76035 0.10048 0.0
H1082 H 0.7288 0.8034 0.08558 0.0
H1083 H 0.75833 0.85242 0.08284 0.0
H1084 H 0.73074 0.73482 0.07383 0.0
H1085 H 0.75681 0.6949 0.09105 0.0
C1086 C 0.5522 0.60639 0.33053 0.0
C1087 C 0.54458 0.6044 0.35412 0.0
C1088 C 0.47397 0.63968 0.34797 0.0
C1089 C 0.47372 0.62337 0.326 0.0
N1090 N 0.51584 0.59782 0.29414 0.0
N1091 N 0.48745 0.60845 0.3835 0.0
C1092 C 0.51437 0.60973 0.31629 0.0
C1093 C 0.50294 0.61923 0.36272 0.0
N1094 N 0.59412 0.6053 0.32198 0.0
N1095 N 0.44144 0.66702 0.35552 0.0
H1096 H 0.50092 0.58298 0.39278 0.0
H1097 H 0.4563 0.61851 0.3894 0.0
H1098 H 0.41847 0.67945 0.34426 0.0
H1099 H 0.4414 0.68027 0.37184 0.0
H1100 H 0.60069 0.60859 0.30483 0.0
H1101 H 0.62194 0.60665 0.33244 0.0
H1102 H 0.54395 0.58386 0.2866 0.0
H1103 H 0.48783 0.60081 0.28383 0.0
C1104 C 0.39473 0.27716 0.09993 0.0
C1105 C 0.36695 0.31212 0.09301 0.0
C1106 C 0.33129 0.26119 0.06647 0.0
C1107 C 0.34789 0.22538 0.07948 0.0
N1108 N 0.3888 0.20143 0.11231 0.0
N1109 N 0.3181 0.34083 0.06501 0.0
C1110 C 0.37881 0.23346 0.09698 0.0
C1111 C 0.33899 0.30526 0.07423 0.0
N1112 N 0.43261 0.28619 0.11164 0.0
N1113 N 0.30826 0.25287 0.04706 0.0
H1114 H 0.32694 0.37285 0.06993 0.0
H1115 H 0.29301 0.33859 0.05296 0.0
H1116 H 0.30258 0.22061 0.04114 0.0
H1117 H 0.29802 0.27762 0.03603 0.0
H1118 H 0.45387 0.26141 0.11748 0.0
H1119 H 0.44363 0.31884 0.11396 0.0
H1120 H 0.40873 0.20771 0.12635 0.0
H1121 H 0.37444 0.16989 0.11185 0.0
C1122 C 0.49759 0.62026 0.82604 0.0
C1123 C 0.48483 0.59091 0.84305 0.0
C1124 C 0.54747 0.54394 0.8367 0.0
C1125 C 0.56493 0.57598 0.82138 0.0
N1126 N 0.54318 0.6284 0.7928 0.0
N1127 N 0.48057 0.51449 0.85348 0.0
C1128 C 0.53586 0.60945 0.81313 0.0
C1129 C 0.50253 0.54783 0.84287 0.0
N1130 N 0.47463 0.65884 0.82321 0.0
N1131 N 0.57397 0.51463 0.84804 0.0
H1132 H 0.44931 0.51984 0.86063 0.0
H1133 H 0.49217 0.48176 0.85345 0.0
H1134 H 0.60852 0.5159 0.84811 0.0
H1135 H 0.56157 0.49324 0.86025 0.0
H1136 H 0.48395 0.68302 0.8117 0.0
H1137 H 0.44647 0.66601 0.8329 0.0
H1138 H 0.52039 0.64984 0.7853 0.0
H1139 H 0.56924 0.61788 0.78253 0.0
C1140 C 0.16764 0.74392 0.58576 0.0
C1141 C 0.17405 0.7526 0.60915 0.0
C1142 C 0.13534 0.8225 0.60451 0.0
C1143 C 0.14577 0.82157 0.58165 0.0
N1144 N 0.1628 0.77818 0.54886 0.0
N1145 N 0.17059 0.8088 0.63946 0.0
C1146 C 0.15706 0.78038 0.5716 0.0
C1147 C 0.15927 0.79406 0.61843 0.0
N1148 N 0.17305 0.70215 0.57709 0.0
N1149 N 0.10902 0.85501 0.61323 0.0
H1150 H 0.19419 0.79397 0.64946 0.0
H1151 H 0.16198 0.84026 0.64558 0.0
H1152 H 0.09136 0.87587 0.60286 0.0
H1153 H 0.10071 0.85712 0.63025 0.0
H1154 H 0.16568 0.69389 0.56043 0.0
H1155 H 0.18105 0.67509 0.58714 0.0
H1156 H 0.17591 0.75057 0.54047 0.0
H1157 H 0.15619 0.80559 0.53871 0.0
C1158 C 0.0487 0.42914 0.33436 0.0
C1159 C 0.05547 0.46557 0.34926 0.0
C1160 C 0.99224 0.50392 0.33463 0.0
C1161 C 0.98282 0.46734 0.31991 0.0
N1162 N 1.01522 0.40664 0.29887 0.0
N1163 N 0.051 0.54486 0.35306 0.0
C1164 C 1.01508 0.43309 0.31756 0.0
C1165 C 0.03436 0.50605 0.34461 0.0
N1166 N 0.07341 0.39138 0.33628 0.0
N1167 N 0.96012 0.53294 0.34185 0.0
H1168 H 0.08138 0.54568 0.36162 0.0
H1169 H 0.03654 0.57564 0.34959 0.0
H1170 H 0.92624 0.52765 0.33947 0.0
H1171 H 0.9667 0.55826 0.3535 0.0
H1172 H 0.06614 0.36224 0.32738 0.0
H1173 H 0.10121 0.38977 0.34671 0.0
H1174 H 0.0401 0.38329 0.29563 0.0
H1175 H 0.99406 0.41315 0.28536 0.0
C1176 C 0.37126 0.79631 0.3788 0.0
C1177 C 0.3705 0.84053 0.37114 0.0
C1178 C 0.36136 0.81701 0.33266 0.0
C1179 C 0.36564 0.77217 0.33953 0.0
N1180 N 0.36026 0.71861 0.36977 0.0
N1181 N 0.37518 0.89404 0.34146 0.0
C1182 C 0.36717 0.76121 0.36283 0.0
C1183 C 0.37013 0.85096 0.34817 0.0
N1184 N 0.37487 0.7886 0.40139 0.0
N1185 N 0.34422 0.82685 0.31192 0.0
H1186 H 0.38081 0.91987 0.35298 0.0
H1187 H 0.37858 0.9031 0.32463 0.0
H1188 H 0.33133 0.80238 0.30123 0.0
H1189 H 0.33699 0.85909 0.30673 0.0
H1190 H 0.3794 0.7574 0.40847 0.0
H1191 H 0.37645 0.81457 0.41312 0.0
H1192 H 0.35883 0.70893 0.38652 0.0
H1193 H 0.35201 0.69272 0.35892 0.0
C1194 C 0.93972 0.62724 0.09447 0.0
C1195 C 0.94929 0.60538 0.11491 0.0
C1196 C 0.02353 0.58721 0.10118 0.0
C1197 C 1.014 0.61059 0.08112 0.0
N1198 N 0.9709 0.66903 0.06398 0.0
N1199 N 1.00408 0.57658 0.14044 0.0
C1200 C 0.97474 0.63623 0.07957 0.0
C1201 C 0.99289 0.59005 0.11929 0.0
N1202 N 0.89703 0.63588 0.08824 0.0
N1203 N 0.0593 0.55939 0.1023 0.0
H1204 H 0.98159 0.57854 0.15382 0.0
H1205 H 0.03645 0.56798 0.14498 0.0
H1206 H 0.08103 0.55458 0.08882 0.0
H1207 H 0.06491 0.53822 0.11583 0.0
H1208 H 0.88849 0.64781 0.07235 0.0
H1209 H 0.87034 0.62774 0.09844 0.0
H1210 H 0.94313 0.68972 0.0629 0.0
H1211 H 0.998 0.6792 0.05449 0.0
C1212 C 0.20644 0.24834 0.84806 0.0
C1213 C 0.20215 0.29276 0.85635 0.0
C1214 C 0.1799 0.26209 0.89253 0.0
C1215 C 0.17975 0.21918 0.88251 0.0
N1216 N 0.17394 0.17595 0.84846 0.0
N1217 N 0.17542 0.34168 0.88597 0.0
C1218 C 0.18362 0.2149 0.85915 0.0
C1219 C 0.1851 0.29984 0.87841 0.0
N1220 N 0.2373 0.23603 0.83232 0.0
N1221 N 0.17646 0.26627 0.91534 0.0
H1222 H 0.17978 0.36976 0.87603 0.0
H1223 H 0.16037 0.34784 0.9015 0.0
H1224 H 0.17089 0.23866 0.92553 0.0
H1225 H 0.18041 0.29646 0.92385 0.0
H1226 H 0.24086 0.20318 0.82677 0.0
H1227 H 0.26493 0.25517 0.82839 0.0
H1228 H 0.17555 0.17249 0.83095 0.0
H1229 H 0.16127 0.14907 0.85717 0.0
C1230 C 0.49752 0.48404 0.62308 0.0
C1231 C 0.48444 0.44485 0.61204 0.0
C1232 C 0.53989 0.40363 0.6339 0.0
C1233 C 0.55948 0.44484 0.64087 0.0
N1234 N 0.56458 0.523 0.63037 0.0
N1235 N 0.48491 0.36511 0.61063 0.0
C1236 C 0.53995 0.48517 0.63287 0.0
C1237 C 0.50244 0.40371 0.61903 0.0
N1238 N 0.47337 0.52207 0.62048 0.0
N1239 N 0.55846 0.36459 0.64026 0.0
H1240 H 0.45745 0.36455 0.6001 0.0
H1241 H 0.49725 0.33334 0.61339 0.0
H1242 H 0.58729 0.36332 0.64949 0.0
H1243 H 0.54506 0.33346 0.63704 0.0
H1244 H 0.48078 0.55129 0.62931 0.0
H1245 H 0.44464 0.52295 0.61066 0.0
H1246 H 0.55162 0.55216 0.62355 0.0
H1247 H 0.59924 0.52293 0.63067 0.0
C1248 C 0.05066 0.24918 0.30207 0.0
C1249 C 0.07777 0.2486 0.28261 0.0
C1250 C 0.02161 0.29694 0.26403 0.0
C1251 C 0.9973 0.30051 0.28452 0.0
N1252 N 0.99751 0.29014 0.3247 0.0
N1253 N 0.09183 0.2781 0.24576 0.0
C1254 C 1.01456 0.27956 0.304 0.0
C1255 C 0.06404 0.27444 0.26376 0.0
N1256 N 0.05933 0.22005 0.31884 0.0
N1257 N 1.00378 0.31378 0.24475 0.0
H1258 H 0.1218 0.26077 0.24485 0.0
H1259 H 0.08631 0.29994 0.23251 0.0
H1260 H 0.97371 0.33113 0.24461 0.0
H1261 H 1.01743 0.30828 0.22885 0.0
H1262 H 0.03894 0.21582 0.33279 0.0
H1263 H 0.08577 0.19797 0.31768 0.0
H1264 H 1.0116 0.2793 0.33974 0.0
H1265 H 0.97268 0.31409 0.32689 0.0
C1266 C 0.98403 0.75861 0.55266 0.0
C1267 C 0.99505 0.7249 0.53705 0.0
C1268 C 0.05211 0.77649 0.52174 0.0
C1269 C 0.04422 0.80689 0.53987 0.0
N1270 N 1.01514 0.81346 0.57755 0.0
N1271 N 0.04553 0.70003 0.50802 0.0
C1272 C 1.01392 0.79387 0.55678 0.0
C1273 C 0.03113 0.73327 0.52197 0.0
N1274 N 0.94468 0.7576 0.56368 0.0
N1275 N 0.07826 0.78885 0.50413 0.0
H1276 H 0.02969 0.66926 0.50715 0.0
H1277 H 0.07433 0.70233 0.49836 0.0
H1278 H 0.09403 0.81963 0.50352 0.0
H1279 H 0.08173 0.76974 0.48951 0.0
H1280 H 0.93442 0.78376 0.57407 0.0
H1281 H 0.92152 0.73285 0.5604 0.0
H1282 H 0.99724 0.80076 0.59106 0.0
H1283 H 0.03848 0.83761 0.58185 0.0
C1284 C 0.49204 0.76232 0.76904 0.0
C1285 C 0.47537 0.78657 0.78792 0.0
C1286 C 0.53713 0.75844 0.8108 0.0
C1287 C 0.55683 0.73818 0.79155 0.0
N1288 N 0.55464 0.72346 0.75167 0.0
N1289 N 0.48729 0.81504 0.82519 0.0
C1290 C 0.53468 0.7408 0.77041 0.0
C1291 C 0.49979 0.7869 0.80825 0.0
N1292 N 0.46665 0.75903 0.75004 0.0
N1293 N 0.55279 0.74847 0.83178 0.0
H1294 H 0.46087 0.8372 0.82344 0.0
H1295 H 0.50527 0.81929 0.83997 0.0
H1296 H 0.57832 0.72552 0.83431 0.0
H1297 H 0.53715 0.75869 0.84661 0.0
H1298 H 0.47423 0.738 0.73656 0.0
H1299 H 0.43663 0.77609 0.74834 0.0
H1300 H 0.54293 0.72852 0.73537 0.0
H1301 H 0.5842 0.70539 0.75246 0.0
C1302 C 0.47494 0.25418 0.04405 0.0
C1303 C 0.49156 0.21351 0.03573 0.0
C1304 C 0.55739 0.25514 0.02158 0.0
C1305 C 0.54277 0.29359 0.03337 0.0
N1306 N 0.49538 0.32212 0.06281 0.0
N1307 N 0.55211 0.17477 0.01711 0.0
C1308 C 0.50418 0.29035 0.04693 0.0
C1309 C 0.53412 0.21377 0.02472 0.0
N1310 N 0.43093 0.25963 0.04826 0.0
N1311 N 0.59239 0.25828 0.00711 0.0
H1312 H 0.53493 0.14476 0.01757 0.0
H1313 H 0.5846 0.17204 0.0112 0.0
H1314 H 0.61021 0.28777 0.00525 0.0
H1315 H 0.60203 0.23263 -0.00374 0.0
H1316 H 0.41767 0.29088 0.05196 0.0
H1317 H 0.40763 0.23536 0.04425 0.0
H1318 H 0.46805 0.3206 0.07354 0.0
H1319 H 0.5187 0.34637 0.06692 0.0
C1320 C 0.9641 0.77663 0.18877 0.0
C1321 C 0.95874 0.74234 0.17216 0.0
C1322 C 0.0366 0.75213 0.16094 0.0
C1323 C 0.04206 0.78783 0.177 0.0
N1324 N 1.00983 0.83584 0.2051 0.0
N1325 N 0.98801 0.70242 0.14022 0.0
C1326 C 1.00528 0.80075 0.19052 0.0
C1327 C 0.99462 0.73126 0.15784 0.0
N1328 N 0.92993 0.78505 0.20337 0.0
N1329 N 0.07206 0.73708 0.14867 0.0
H1330 H 0.95896 0.68417 0.13816 0.0
H1331 H 1.00997 0.6986 0.12678 0.0
H1332 H 0.1015 0.75458 0.14707 0.0
H1333 H 0.07277 0.70643 0.14036 0.0
H1334 H 0.93198 0.80644 0.21719 0.0
H1335 H 0.8998 0.76808 0.20254 0.0
H1336 H 0.9837 0.85019 0.21403 0.0
H1337 H 0.03983 0.85264 0.2073 0.0
C1338 C 0.51209 0.78033 0.44587 0.0
C1339 C 0.49179 0.80211 0.42722 0.0
C1340 C 0.52591 0.74541 0.40203 0.0
C1341 C 0.54942 0.7261 0.42048 0.0
N1342 N 0.56903 0.72957 0.45973 0.0
N1343 N 0.48359 0.80753 0.38711 0.0
C1344 C 0.54366 0.74493 0.44234 0.0
C1345 C 0.49948 0.78478 0.40521 0.0
N1346 N 0.50054 0.79362 0.46715 0.0
N1347 N 0.52877 0.72596 0.38121 0.0
H1348 H 0.46182 0.83422 0.38892 0.0
H1349 H 0.4933 0.80136 0.37055 0.0
H1350 H 0.55072 0.7001 0.37752 0.0
H1351 H 0.50802 0.73411 0.36783 0.0
H1352 H 0.51063 0.77738 0.4817 0.0
H1353 H 0.47712 0.8187 0.47007 0.0
H1354 H 0.56969 0.74411 0.47569 0.0
H1355 H 0.59273 0.70458 0.45761 0.0
C1356 C 0.55574 0.23868 0.6936 0.0
C1357 C 0.56184 0.2844 0.68764 0.0
C1358 C 0.48636 0.28469 0.67261 0.0
C1359 C 0.47814 0.23952 0.67913 0.0
N1360 N 0.50384 0.17952 0.70283 0.0
N1361 N 0.52158 0.35336 0.6842 0.0
C1362 C 0.51253 0.21802 0.69165 0.0
C1363 C 0.52338 0.30834 0.68156 0.0
N1364 N 0.59092 0.21524 0.70191 0.0
N1365 N 0.46115 0.30461 0.65645 0.0
H1366 H 0.54672 0.37129 0.6922 0.0
H1367 H 0.49271 0.37156 0.68098 0.0
H1368 H 0.44164 0.2864 0.64519 0.0
H1369 H 0.46533 0.33773 0.65195 0.0
H1370 H 0.59088 0.18074 0.70342 0.0
H1371 H 0.62039 0.23059 0.70701 0.0
H1372 H 0.5264 0.16463 0.71376 0.0
H1373 H 0.47257 0.16492 0.70332 0.0
C1374 C 0.98598 0.21206 0.93459 0.0
C1375 C 0.02744 0.21121 0.92282 0.0
C1376 C 0.02289 0.29227 0.91932 0.0
C1377 C 0.97902 0.29323 0.92856 0.0
N1378 N 0.91843 0.25276 0.94476 0.0
N1379 N 0.07823 0.25062 0.89901 0.0
C1380 C 0.96034 0.25256 0.93598 0.0
C1381 C 0.04368 0.2513 0.91379 0.0
N1382 N 0.97204 0.17454 0.9453 0.0
N1383 N 0.04671 0.33043 0.91705 0.0
H1384 H 0.09595 0.22184 0.89532 0.0
H1385 H 0.08639 0.27788 0.88907 0.0
H1386 H 0.03438 0.36112 0.92171 0.0
H1387 H 0.0803 0.33092 0.91274 0.0
H1388 H 0.94476 0.17358 0.95604 0.0
H1389 H 0.99007 0.1449 0.94494 0.0
H1390 H 0.90055 0.22404 0.94824 0.0
H1391 H 0.90041 0.28206 0.94729 0.0
C1392 C 0.03864 0.76803 0.65907 0.0
C1393 C 0.05105 0.73142 0.67272 0.0
C1394 C 0.97934 0.74273 0.69278 0.0
C1395 C 0.97121 0.78309 0.68075 0.0
N1396 N 1.00807 0.8417 0.66111 0.0
N1397 N 0.034 0.6885 0.70582 0.0
C1398 C 1.00536 0.7981 0.66654 0.0
C1399 C 0.02153 0.7198 0.69054 0.0
N1400 N 0.05696 0.77333 0.6383 0.0
N1401 N 0.94707 0.72667 0.70661 0.0
H1402 H 0.06415 0.67151 0.70487 0.0
H1403 H 1.01591 0.68188 0.72036 0.0
H1404 H 0.91812 0.74459 0.71019 0.0
H1405 H 0.94848 0.69521 0.7138 0.0
H1406 H 0.04532 0.79756 0.62726 0.0
H1407 H 0.07859 0.74989 0.63124 0.0
H1408 H 0.0341 0.85419 0.65146 0.0
H1409 H 0.98805 0.86532 0.66909 0.0
C1410 C 0.98674 0.26609 0.43892 0.0
C1411 C 1.00591 0.2312 0.42567 0.0
C1412 C 0.07294 0.2783 0.42188 0.0
C1413 C 0.04947 0.31641 0.42912 0.0
N1414 N 0.9841 0.34512 0.44788 0.0
N1415 N 0.06517 0.21283 0.39913 0.0
C1416 C 1.0062 0.3098 0.43856 0.0
C1417 C 0.04865 0.23953 0.41581 0.0
N1418 N 0.95187 0.25736 0.45291 0.0
N1419 N 0.11818 0.27837 0.42082 0.0
H1420 H 0.04571 0.19016 0.39031 0.0
H1421 H 0.0959 0.21835 0.39163 0.0
H1422 H 0.13723 0.30503 0.42657 0.0
H1423 H 0.13647 0.2498 0.41692 0.0
H1424 H 0.93898 0.28054 0.46429 0.0
H1425 H 0.93902 0.22562 0.45518 0.0
H1426 H 0.9504 0.34435 0.45191 0.0
H1427 H 0.99954 0.37551 0.4512 0.0
C1428 C 0.50586 0.20732 0.17831 0.0
C1429 C 0.54585 0.2321 0.17968 0.0
C1430 C 0.49955 0.30028 0.18311 0.0
C1431 C 0.46169 0.27763 0.17496 0.0
N1432 N 0.42601 0.20549 0.17278 0.0
N1433 N 0.57894 0.30621 0.18132 0.0
C1434 C 0.46408 0.2298 0.17473 0.0
C1435 C 0.54218 0.27966 0.18153 0.0
N1436 N 0.50723 0.16275 0.1825 0.0
N1437 N 0.49487 0.33953 0.19454 0.0
H1438 H 0.61121 0.29453 0.17958 0.0
H1439 H 0.57675 0.3408 0.18068 0.0
H1440 H 0.4639 0.35239 0.19899 0.0
H1441 H 0.5215 0.35549 0.20243 0.0
H1442 H 0.47908 0.14338 0.18497 0.0
H1443 H 0.53686 0.14571 0.18555 0.0
H1444 H 0.42566 0.17198 0.16827 0.0
H1445 H 0.39479 0.21855 0.17668 0.0
C1446 C 0.48454 0.81841 0.92082 0.0
C1447 C 0.52704 0.82755 0.9308 0.0
C1448 C 0.52941 0.74969 0.94338 0.0
C1449 C 0.48868 0.74084 0.9318 0.0
N1450 N 0.41795 0.77305 0.92257 0.0
N1451 N 0.57919 0.80485 0.95957 0.0
C1452 C 0.46278 0.77736 0.92502 0.0
C1453 C 0.54654 0.79404 0.94448 0.0
N1454 N 0.46623 0.84715 0.90582 0.0
N1455 N 0.55119 0.7156 0.95375 0.0
H1456 H 0.58934 0.83742 0.96263 0.0
H1457 H 0.59246 0.78252 0.97109 0.0
H1458 H 0.53628 0.68473 0.95631 0.0
H1459 H 0.58389 0.71775 0.95943 0.0
H1460 H 0.43319 0.84606 0.90077 0.0
H1461 H 0.48603 0.86724 0.89579 0.0
H1462 H 0.39695 0.79976 0.91917 0.0
H1463 H 0.40125 0.74418 0.92715 0.0
C1464 C 0.03252 0.30605 0.77902 0.0
C1465 C 0.06667 0.28846 0.79326 0.0
C1466 C 0.02189 0.21933 0.795 0.0
C1467 C 0.98372 0.24101 0.78674 0.0
N1468 N 0.95402 0.30712 0.7694 0.0
N1469 N 0.08463 0.2292 0.81951 0.0
C1470 C 0.9895 0.28517 0.77843 0.0
C1471 C 0.05888 0.24517 0.80245 0.0
N1472 N 0.0412 0.34049 0.76483 0.0
N1473 N 0.02351 0.17423 0.79559 0.0
H1474 H 0.10345 0.24979 0.83 0.0
H1475 H 0.08183 0.1969 0.82542 0.0
H1476 H 0.99818 0.15462 0.78888 0.0
H1477 H 0.05288 0.15726 0.79921 0.0
H1478 H 1.01837 0.35183 0.75297 0.0
H1479 H 0.07265 0.35381 0.76243 0.0
H1480 H 0.95434 0.3411 0.76607 0.0
H1481 H 0.92385 0.29147 0.76598 0.0
C1482 C 0.54058 0.30344 0.55348 0.0
C1483 C 0.51398 0.31994 0.53534 0.0
C1484 C 0.53822 0.25487 0.51252 0.0
C1485 C 0.56172 0.23712 0.53132 0.0
N1486 N 0.57634 0.24093 0.57087 0.0
N1487 N 0.48489 0.30875 0.49789 0.0
C1488 C 0.56084 0.26081 0.55194 0.0
C1489 C 0.51187 0.29471 0.51495 0.0
N1490 N 0.5472 0.32846 0.57251 0.0
N1491 N 0.54201 0.23376 0.49213 0.0
H1492 H 0.4672 0.33855 0.49855 0.0
H1493 H 0.47778 0.28979 0.4836 0.0
H1494 H 0.5617 0.20544 0.4899 0.0
H1495 H 0.5291 0.24602 0.47714 0.0
H1496 H 0.57167 0.32127 0.5844 0.0
H1497 H 0.53006 0.35759 0.5761 0.0
H1498 H 0.56821 0.25191 0.58704 0.0
H1499 H 0.59404 0.2113 0.57021 0.0
C1500 C 0.57552 0.74434 0.26601 0.0
C1501 C 0.57621 0.77939 0.28235 0.0
C1502 C 0.50818 0.74873 0.29869 0.0
C1503 C 0.50348 0.71743 0.28066 0.0
N1504 N 0.53195 0.6893 0.24542 0.0
N1505 N 0.53617 0.82061 0.3104 0.0
C1506 C 0.53696 0.7166 0.26373 0.0
C1507 C 0.54 0.78352 0.29725 0.0
N1508 N 0.61218 0.73676 0.25301 0.0
N1509 N 0.4842 0.74415 0.31793 0.0
H1510 H 0.55925 0.84631 0.30975 0.0
H1511 H 0.5084 0.8271 0.32034 0.0
H1512 H 0.46492 0.71642 0.32086 0.0
H1513 H 0.48813 0.76456 0.33205 0.0
H1514 H 0.61579 0.70905 0.24251 0.0
H1515 H 0.64021 0.75693 0.25387 0.0
H1516 H 0.55219 0.69095 0.23122 0.0
H1517 H 0.50606 0.66636 0.24408 0.0
C1518 C 0.99274 0.79522 0.00899 0.0
C1519 C 1.00613 0.82281 0.0275 0.0
C1520 C 0.07349 0.77546 0.03072 0.0
C1521 C 0.0543 0.74189 0.01729 0.0
N1522 N 0.99891 0.7242 -0.01074 0.0
N1523 N 0.0568 0.83037 0.05907 0.0
C1524 C 1.0147 0.7532 0.00515 0.0
C1525 C 0.04609 0.81066 0.03907 0.0
N1526 N 0.96129 0.80988 -0.00585 0.0
N1527 N 0.11795 0.77499 0.03493 0.0
H1528 H 0.03399 0.84895 0.06843 0.0
H1529 H 0.08593 0.82292 0.06765 0.0
H1530 H 0.13899 0.75125 0.02772 0.0
H1531 H 0.13405 0.80114 0.0432 0.0
H1532 H 0.95324 0.79326 0.97926 0.0
H1533 H 0.94621 0.84094 -0.00475 0.0
H1534 H 0.96702 0.72598 -0.01752 0.0
H1535 H 1.01821 0.69797 -0.01697 0.0
C1536 C 0.23384 0.24916 0.22679 0.0
C1537 C 0.26579 0.24909 0.24442 0.0
C1538 C 0.31817 0.2884 0.2195 0.0
C1539 C 0.28464 0.29206 0.20254 0.0
N1540 N 0.20818 0.2825 0.19193 0.0
N1541 N 0.33783 0.27008 0.25813 0.0
C1542 C 0.24181 0.27422 0.20684 0.0
C1543 C 0.30793 0.26883 0.24076 0.0
N1544 N 0.19581 0.22493 0.22901 0.0
N1545 N 0.36032 0.30246 0.21519 0.0
H1546 H 0.33265 0.25303 0.27316 0.0
H1547 H 0.3667 0.2891 0.25805 0.0
H1548 H 0.36783 0.32255 0.20165 0.0
H1549 H 0.38782 0.29395 0.22493 0.0
H1550 H 0.17329 0.21965 0.21593 0.0
H1551 H 0.18881 0.20636 0.2433 0.0
H1552 H 0.17507 0.27442 0.19488 0.0
H1553 H 0.21282 0.30169 0.17753 0.0
C1554 C 0.99301 0.06251 0.48271 0.0
C1555 C 0.97931 0.03714 0.46376 0.0
C1556 C 0.02226 0.97342 0.47661 0.0
C1557 C 0.03582 0.9983 0.49573 0.0
N1558 N 0.03351 0.06506 0.5182 0.0
N1559 N 0.97104 0.96711 0.44502 0.0
C1560 C 0.02129 0.04276 0.49901 0.0
C1561 C 0.99032 0.99174 0.46179 0.0
N1562 N 0.98057 0.10616 0.48419 0.0
N1563 N 0.04005 0.93215 0.47296 0.0
H1564 H 0.94755 0.98108 0.43416 0.0
H1565 H 0.97541 0.93297 0.44301 0.0
H1566 H 0.0641 0.91883 0.4837 0.0
H1567 H 0.03392 0.91297 0.45862 0.0
H1568 H 0.99246 0.12848 0.49624 0.0
H1569 H 0.95818 0.12006 0.47275 0.0
H1570 H 0.02078 0.09583 0.52309 0.0
H1571 H 0.05639 0.05184 0.52959 0.0
C1572 C 0.30591 0.76374 0.73227 0.0
C1573 C 0.2799 0.77201 0.75178 0.0
C1574 C 0.2165 0.7337 0.73419 0.0
C1575 C 0.24312 0.7244 0.71501 0.0
N1576 N 0.31446 0.72185 0.69727 0.0
N1577 N 0.21229 0.7615 0.7727 0.0
C1578 C 0.28847 0.73645 0.7147 0.0
C1579 C 0.23564 0.75592 0.75312 0.0
N1580 N 0.34708 0.78251 0.7305 0.0
N1581 N 0.17236 0.72304 0.73371 0.0
H1582 H 0.22429 0.78052 0.78618 0.0
H1583 H 0.18197 0.74626 0.77594 0.0
H1584 H 0.15836 0.70458 0.72053 0.0
H1585 H 0.1495 0.73343 0.74581 0.0
H1586 H 0.3666 0.78071 0.71605 0.0
H1587 H 0.36017 0.80343 0.74292 0.0
H1588 H 0.34871 0.72636 0.69649 0.0
H1589 H 0.30182 0.70145 0.68446 0.0
C1590 C 0.49828 0.06032 -0.00467 0.0
C1591 C 0.49308 0.02838 0.01268 0.0
C1592 C 0.53755 0.97511 -0.00989 0.0
C1593 C 0.54504 1.00841 0.97369 0.0
N1594 N 0.5421 0.08505 0.9634 0.0
N1595 N 0.51104 0.9563 0.02753 0.0
C1596 C 0.52872 0.0519 0.97744 0.0
C1597 C 0.5138 0.98599 0.01028 0.0
N1598 N 0.47327 0.09826 -0.00452 0.0
N1599 N 0.5514 0.93255 -0.01411 0.0
H1600 H 0.49092 0.96189 0.04161 0.0
H1601 H 0.5297 0.92715 0.0283 0.0
H1602 H 0.57122 0.92431 0.97206 0.0
H1603 H 0.54218 0.90537 -0.00443 0.0
H1604 H 0.47322 0.12107 -0.01763 0.0
H1605 H 0.44881 0.10461 0.00744 0.0
H1606 H 0.53482 0.11853 0.96617 0.0
H1607 H 0.56449 0.07906 0.95026 0.0
C1608 C 0.25841 0.76912 0.25143 0.0
C1609 C 0.29564 0.74327 0.24479 0.0
C1610 C 0.29395 0.7769 0.20756 0.0
C1611 C 0.25307 0.79718 0.2129 0.0
N1612 N 0.19473 0.81262 0.23947 0.0
N1613 N 0.34459 0.71642 0.21568 0.0
C1614 C 0.23525 0.79412 0.23493 0.0
C1615 C 0.31173 0.745 0.22242 0.0
N1616 N 0.24617 0.77047 0.27358 0.0
N1617 N 0.31384 0.78649 0.18752 0.0
H1618 H 0.35758 0.69235 0.22645 0.0
H1619 H 0.35581 0.71393 0.19912 0.0
H1620 H 0.29998 0.80966 0.17649 0.0
H1621 H 0.34514 0.77472 0.1829 0.0
H1622 H 0.22269 0.79265 0.28004 0.0
H1623 H 0.26116 0.75024 0.28564 0.0
H1624 H 0.17736 0.80756 0.25439 0.0
H1625 H 0.17782 0.8317 0.2276 0.0
C1626 C 0.5031 0.0592 0.48811 0.0
C1627 C 0.54666 0.04999 0.49664 0.0
C1628 C 0.54377 0.97609 0.479 0.0
C1629 C 0.50084 0.98572 0.47 0.0
N1630 N 0.43413 0.02961 0.47321 0.0
N1631 N 0.61328 1.00573 0.49288 0.0
C1632 C 0.47897 0.0255 0.47645 0.0
C1633 C 0.5683 1.00995 0.49026 0.0
N1634 N 0.48544 0.10102 0.48993 0.0
N1635 N 0.56057 0.93387 0.47784 0.0
H1636 H 0.63348 0.0313 0.49889 0.0
H1637 H 0.63151 0.9792 0.48624 0.0
H1638 H 0.54322 0.90715 0.47101 0.0
H1639 H 0.58934 0.92411 0.48626 0.0
H1640 H 0.4566 0.11084 0.48159 0.0
H1641 H 0.50165 0.12763 0.49754 0.0
H1642 H 0.41525 0.05567 0.47984 0.0
H1643 H 0.41459 1.00419 0.46647 0.0
C1644 C 0.31083 0.23987 0.73412 0.0
C1645 C 0.28287 0.22924 0.71572 0.0
C1646 C 0.22047 0.26731 0.73453 0.0
C1647 C 0.25006 0.28254 0.75159 0.0
N1648 N 0.32409 0.28767 0.76663 0.0
N1649 N 0.2115 0.23176 0.69781 0.0
C1650 C 0.29553 0.26997 0.75104 0.0
C1651 C 0.23752 0.24217 0.71597 0.0
N1652 N 0.35236 0.22152 0.73505 0.0
N1653 N 0.17598 0.27583 0.73648 0.0
H1654 H 0.22293 0.2111 0.6848 0.0
H1655 H 0.17966 0.24438 0.69527 0.0
H1656 H 0.16288 0.29611 0.7492 0.0
H1657 H 0.1519 0.26161 0.7261 0.0
H1658 H 0.37369 0.22497 0.74877 0.0
H1659 H 0.36368 0.1992 0.72276 0.0
H1660 H 0.35835 0.28288 0.7663 0.0
H1661 H 0.31369 0.3106 0.77885 0.0
C1662 C 0.02319 0.98192 0.95559 0.0
C1663 C 0.0391 0.02595 0.95277 0.0
C1664 C 1.00372 0.0481 -0.01157 0.0
C1665 C 0.99121 1.00358 -0.0078 0.0
N1666 N 0.99107 0.92678 -0.0198 0.0
N1667 N 0.05245 0.09872 0.969 0.0
C1668 C 1.00112 0.97014 0.97588 0.0
C1669 C 0.03182 0.0584 0.96996 0.0
N1670 N 0.02855 0.95159 0.9385 0.0
N1671 N 0.98832 0.08055 0.00269 0.0
H1672 H 0.075 0.10686 0.95647 0.0
H1673 H 0.05117 0.12231 -0.01807 0.0
H1674 H 0.96726 0.07337 0.01616 0.0
H1675 H 0.99246 0.11442 -0.00012 0.0
H1676 H 1.01268 0.92088 0.93792 0.0
H1677 H 0.04796 0.95806 0.92432 0.0
H1678 H 1.00284 0.89999 0.9707 0.0
H1679 H 0.97166 0.9175 -0.00616 0.0
C1680 C 0.79223 0.76091 0.7523 0.0
C1681 C 0.74762 0.74664 0.75445 0.0
C1682 C 0.73181 0.77323 0.71606 0.0
C1683 C 0.77602 0.78929 0.7143 0.0
N1684 N 0.84658 0.80461 0.73185 0.0
N1685 N 0.67344 0.74216 0.73931 0.0
C1686 C 0.80561 0.78521 0.73287 0.0
C1687 C 0.71706 0.75336 0.73648 0.0
N1688 N 0.8219 0.75026 0.76887 0.0
N1689 N 0.7044 0.77595 0.69772 0.0
H1690 H 0.66226 0.72486 0.75333 0.0
H1691 H 0.6481 0.7511 0.72828 0.0
H1692 H 0.71326 0.79341 0.68326 0.0
H1693 H 0.67383 0.76 0.69643 0.0
H1694 H 0.85591 0.75606 0.76791 0.0
H1695 H 0.81271 0.73173 0.78293 0.0
H1696 H 0.86873 0.80603 0.74531 0.0
H1697 H 0.85703 0.82301 0.71805 0.0
C1698 C 0.75854 0.26377 0.24981 0.0
C1699 C 0.7985 0.28762 0.24633 0.0
C1700 C 0.79579 0.26692 0.20613 0.0
C1701 C 0.75804 0.23981 0.21024 0.0
N1702 N 0.70883 0.2056 0.23678 0.0
N1703 N 0.85825 0.30841 0.22164 0.0
C1704 C 0.74155 0.23577 0.23245 0.0
C1705 C 0.818 0.28837 0.22455 0.0
N1706 N 0.7366 0.26857 0.26985 0.0
N1707 N 0.80926 0.27328 0.18443 0.0
H1708 H 0.87411 0.32604 0.23454 0.0
H1709 H 0.87663 0.30598 0.20682 0.0
H1710 H 0.79506 0.25594 0.17091 0.0
H1711 H 0.83291 0.29672 0.17981 0.0
H1712 H 0.70532 0.25522 0.27295 0.0
H1713 H 0.74796 0.28987 0.28259 0.0
H1714 H 0.69761 0.19842 0.25294 0.0
H1715 H 0.69609 0.18455 0.2243 0.0
C1716 C 0.80177 0.27477 0.71926 0.0
C1717 C 0.75781 0.29215 0.71839 0.0
C1718 C 0.74555 0.26684 0.75742 0.0
C1719 C 0.78997 0.25094 0.7586 0.0
N1720 N 0.86204 0.24326 0.74129 0.0
N1721 N 0.68973 0.31044 0.73762 0.0
C1722 C 0.81845 0.25567 0.73961 0.0
C1723 C 0.7304 0.29011 0.73787 0.0
N1724 N 0.82717 0.27555 0.70017 0.0
N1725 N 0.71749 0.25836 0.77498 0.0
H1726 H 0.67783 0.32769 0.72371 0.0
H1727 H 0.66931 0.31372 0.75168 0.0
H1728 H 0.72762 0.24055 0.78912 0.0
H1729 H 0.68359 0.26523 0.77484 0.0
H1730 H 0.85705 0.25843 0.69827 0.0
H1731 H 0.81726 0.29251 0.68571 0.0
H1732 H 0.88622 0.25104 0.72944 0.0
H1733 H 0.87465 0.22632 0.75513 0.0
C1734 C 0.7269 0.78915 0.23335 0.0
C1735 C 0.75856 0.78718 0.25123 0.0
C1736 C 0.80709 0.74024 0.22686 0.0
C1737 C 0.77539 0.74218 0.20913 0.0
N1738 N 0.70183 0.76044 0.19694 0.0
N1739 N 0.83268 0.76905 0.2631 0.0
C1740 C 0.73439 0.76447 0.21291 0.0
C1741 C 0.79971 0.76481 0.24734 0.0
N1742 N 0.69051 0.81604 0.23537 0.0
N1743 N 0.84387 0.71393 0.22433 0.0
H1744 H 0.82875 0.78832 0.27768 0.0
H1745 H 0.86501 0.75751 0.2609 0.0
H1746 H 0.84984 0.6951 0.20985 0.0
H1747 H 0.86654 0.70745 0.23714 0.0
H1748 H 0.66877 0.82295 0.2222 0.0
H1749 H 0.68372 0.83469 0.24972 0.0
H1750 H 0.66931 0.77151 0.1991 0.0
H1751 H 0.70641 0.74173 0.18221 0.0
C1752 C 0.51569 0.54273 -0.00662 0.0
C1753 C 0.53717 0.50065 -0.00771 0.0
C1754 C 0.52288 0.49689 0.95155 0.0
C1755 C 0.50345 0.53982 0.9524 0.0
N1756 N 0.48471 0.60599 0.97358 0.0
N1757 N 0.56746 0.44055 0.97009 0.0
C1758 C 0.50046 0.5633 0.97323 0.0
C1759 C 0.54296 0.47881 0.97121 0.0
N1760 N 0.50872 0.56222 0.01398 0.0
N1761 N 0.52121 0.47323 0.93179 0.0
H1762 H 0.58209 0.42637 -0.01576 0.0
H1763 H 0.57657 0.42493 0.95508 0.0
H1764 H 0.50571 0.48567 0.91739 0.0
H1765 H 0.53132 0.44026 0.93012 0.0
H1766 H 0.48823 0.58972 0.0166 0.0
H1767 H 0.52254 0.54954 0.02875 0.0
H1768 H 0.48682 0.62709 -0.01248 0.0
H1769 H 0.47084 0.62114 0.95948 0.0
C1770 C 0.02347 0.48816 0.50522 0.0
C1771 C 1.00406 0.53131 0.5072 0.0
C1772 C 0.03029 0.54792 0.46866 0.0
C1773 C 0.04656 0.50393 0.46612 0.0
N1774 N 0.05595 0.4306 0.48128 0.0
N1775 N 0.98342 0.60003 0.48924 0.0
C1776 C 0.04278 0.47377 0.48434 0.0
C1777 C 1.0058 0.5605 0.48841 0.0
N1778 N 0.02384 0.46104 0.5236 0.0
N1779 N 0.03894 0.57783 0.45203 0.0
H1780 H 0.96477 0.61018 0.5031 0.0
H1781 H 0.97988 0.62107 0.47551 0.0
H1782 H 0.05725 0.56916 0.4377 0.0
H1783 H 0.03199 0.61168 0.4533 0.0
H1784 H 0.04227 0.43178 0.52456 0.0
H1785 H 1.00662 0.46879 0.53839 0.0
H1786 H 0.04892 0.40515 0.4925 0.0
H1787 H 0.0727 0.41983 0.46685 0.0
C1788 C 0.06381 0.5126 -0.01876 0.0
C1789 C 0.04222 0.55286 -0.01292 0.0
C1790 C 0.98049 0.53133 0.9616 0.0
C1791 C 0.99576 0.48696 0.96155 0.0
N1792 N 0.05467 0.43522 0.97194 0.0
N1793 N 0.97734 0.60049 -0.01786 0.0
C1794 C 0.03856 0.47774 0.97128 0.0
C1795 C 0.9999 0.56233 0.97695 0.0
N1796 N 0.10871 0.50815 -0.01606 0.0
N1797 N 0.94919 0.54472 0.94643 0.0
H1798 H 0.98971 0.62537 -0.00746 0.0
H1799 H 0.9444 0.60584 0.97738 0.0
H1800 H 0.93903 0.52469 0.93302 0.0
H1801 H 0.93908 0.57773 0.94485 0.0
H1802 H 0.1264 0.4806 0.97801 0.0
H1803 H 0.12911 0.53419 -0.01079 0.0
H1804 H 0.08234 0.42635 -0.01849 0.0
H1805 H 0.03935 0.40827 0.96409 0.0
C1806 C 0.51937 0.4833 0.48168 0.0
C1807 C 0.50944 0.51361 0.49947 0.0
C1808 C 0.54836 0.57292 0.47898 0.0
C1809 C 0.56042 0.54184 0.46189 0.0
N1810 N 0.56431 0.46665 0.44853 0.0
N1811 N 0.51644 0.58637 0.51607 0.0
C1812 C 0.54808 0.49666 0.46387 0.0
C1813 C 0.52434 0.55832 0.49827 0.0
N1814 N 0.50129 0.44165 0.48188 0.0
N1815 N 0.5585 0.61679 0.47623 0.0
H1816 H 0.49622 0.57735 0.52958 0.0
H1817 H 0.53081 0.61765 0.51788 0.0
H1818 H 0.57857 0.62766 0.46308 0.0
H1819 H 0.54622 0.64234 0.48642 0.0
H1820 H 0.50425 0.41885 0.46868 0.0
H1821 H 0.47966 0.43122 0.49446 0.0
H1822 H 0.5599 0.43242 0.44962 0.0
H1823 H 0.58591 0.4761 0.43566 0.0
C1824 C 0.29146 0.10314 0.37015 0.0
C1825 C 0.29955 0.10134 0.34639 0.0
C1826 C 0.36257 0.05031 0.35387 0.0
C1827 C 0.35206 0.04991 0.37729 0.0
N1828 N 0.3167 0.08651 0.40826 0.0
N1829 N 0.34958 0.08174 0.31653 0.0
C1830 C 0.32048 0.08077 0.38551 0.0
C1831 C 0.33804 0.07839 0.33867 0.0
N1832 N 0.2534 0.1227 0.37792 0.0
N1833 N 0.3938 0.02105 0.34603 0.0
H1834 H 0.33163 0.10158 0.30538 0.0
H1835 H 0.37848 0.06815 0.30972 0.0
H1836 H 0.41287 1.00172 0.35697 0.0
H1837 H 0.39982 1.01492 0.32902 0.0
H1838 H 0.24202 0.1199 0.39441 0.0
H1839 H 0.23219 0.14037 0.36738 0.0
H1840 H 0.29662 0.11073 0.41572 0.0
H1841 H 0.3373 0.06949 0.41947 0.0
C1842 C 0.21754 0.06988 0.62736 0.0
C1843 C 0.24712 0.09839 0.61602 0.0
C1844 C 0.21311 0.07458 0.57983 0.0
C1845 C 0.19253 0.03831 0.59082 0.0
N1846 N 0.17762 1.00019 0.62572 0.0
N1847 N 0.27048 0.13178 0.5815 0.0
C1848 C 0.19427 0.03645 0.61488 0.0
C1849 C 0.24304 0.10277 0.59225 0.0
N1850 N 0.21387 0.07307 0.65022 0.0
N1851 N 0.20585 0.08046 0.55735 0.0
H1852 H 0.29106 0.15358 0.59047 0.0
H1853 H 0.27387 0.13335 0.56407 0.0
H1854 H 0.18448 0.05992 0.54815 0.0
H1855 H 0.21774 0.10749 0.54835 0.0
H1856 H 0.19069 0.0552 0.6595 0.0
H1857 H 0.23082 0.09732 0.65948 0.0
H1858 H 0.18281 0.99405 0.64276 0.0
H1859 H 0.16105 0.97454 0.61729 0.0
C1860 C 0.22945 0.97099 0.87409 0.0
C1861 C 0.20714 1.0089 0.86578 0.0
C1862 C 0.22454 0.98303 0.8272 0.0
C1863 C 0.25493 0.95141 0.83557 0.0
N1864 N 0.29232 0.92243 0.86832 0.0
N1865 N 0.19528 0.05652 0.83372 0.0
C1866 C 0.25833 0.94653 0.85943 0.0
C1867 C 0.20709 1.0161 0.84206 0.0
N1868 N 0.22576 0.96027 0.8963 0.0
N1869 N 0.21543 0.98389 0.80469 0.0
H1870 H 0.18208 0.08169 0.84383 0.0
H1871 H 0.20031 0.06535 0.81696 0.0
H1872 H 0.22884 0.96039 0.79355 0.0
H1873 H 0.19154 1.00501 0.7978 0.0
H1874 H 0.23927 0.93122 0.90296 0.0
H1875 H 0.20572 0.9784 0.90742 0.0
H1876 H 0.30047 0.92286 0.88539 0.0
H1877 H 0.31299 0.90305 0.85823 0.0
C1878 C 0.26602 0.94693 0.10366 0.0
C1879 C 0.26793 0.95026 0.12763 0.0
C1880 C 0.33006 1.00291 0.12415 0.0
C1881 C 0.3256 1.00226 0.10032 0.0
N1882 N 0.29971 0.96407 0.06738 0.0
N1883 N 0.30824 0.97286 0.16061 0.0
C1884 C 0.29748 0.97032 0.09015 0.0
C1885 C 0.30275 0.97492 0.1378 0.0
N1886 N 0.23175 0.92439 0.09379 0.0
N1887 N 0.35856 0.03278 0.13361 0.0
H1888 H 0.28815 0.9529 0.17068 0.0
H1889 H 0.33433 0.98788 0.1693 0.0
H1890 H 0.3799 0.05141 0.12359 0.0
H1891 H 0.36023 0.0397 0.1508 0.0
H1892 H 0.2248 0.92504 0.07661 0.0
H1893 H 0.20881 0.90659 0.10321 0.0
H1894 H 0.28247 0.93923 0.05876 0.0
H1895 H 0.32242 0.9814 0.05749 0.0
C1896 C 0.741 0.93083 0.59942 0.0
C1897 C 0.74509 0.94376 0.62237 0.0
C1898 C 0.69326 1.0059 0.61457 0.0
C1899 C 0.6987 0.99925 0.59094 0.0
N1900 N 0.72612 0.95339 0.56077 0.0
N1901 N 0.72087 0.9913 0.65252 0.0
C1902 C 0.72114 0.96039 0.58336 0.0
C1903 C 0.71878 0.97997 0.63022 0.0
N1904 N 0.75645 0.89008 0.59312 0.0
N1905 N 0.66475 0.03833 0.62184 0.0
H1906 H 0.73788 0.97168 0.66416 0.0
H1907 H 0.70716 0.02023 0.65932 0.0
H1908 H 0.64612 0.05728 0.61054 0.0
H1909 H 0.65669 0.04378 0.63869 0.0
H1910 H 0.7512 0.87645 0.57715 0.0
H1911 H 0.77 0.86838 0.60496 0.0
H1912 H 0.74668 0.92882 0.55396 0.0
H1913 H 0.71068 0.97371 0.54889 0.0
C1914 C 0.81364 0.98821 0.3712 0.0
C1915 C 0.84038 0.02254 0.36214 0.0
C1916 C 0.81976 0.99708 0.3237 0.0
C1917 C 0.79012 0.96533 0.3328 0.0
N1918 N 0.77145 0.92049 0.36448 0.0
N1919 N 0.87995 0.04967 0.33012 0.0
C1920 C 0.79147 0.95749 0.35634 0.0
C1921 C 0.84713 0.02336 0.33842 0.0
N1922 N 0.80686 0.9868 0.39392 0.0
N1923 N 0.82004 1.00346 0.30094 0.0
H1924 H 0.90102 0.06699 0.34097 0.0
H1925 H 0.88916 0.05055 0.31323 0.0
H1926 H 0.80217 0.98297 0.28991 0.0
H1927 H 0.83654 0.02951 0.29312 0.0
H1928 H 0.78324 0.9665 0.40147 0.0
H1929 H 0.82376 1.00762 0.40513 0.0
H1930 H 0.77596 0.90988 0.38098 0.0
H1931 H 0.75514 0.89802 0.35387 0.0
C1932 C 0.81652 0.07176 0.08032 0.0
C1933 C 0.84203 0.03692 0.08992 0.0
C1934 C 0.81917 0.06261 0.12799 0.0
C1935 C 0.78941 0.09361 0.11827 0.0
N1936 N 0.77001 0.13752 0.08625 0.0
N1937 N 0.87856 1.0082 0.12259 0.0
C1938 C 0.79237 0.10182 0.09474 0.0
C1939 C 0.84716 0.03578 0.11375 0.0
N1940 N 0.81272 0.07389 0.05743 0.0
N1941 N 0.81832 0.05692 0.15075 0.0
H1942 H 0.89981 0.98991 0.11219 0.0
H1943 H 0.88629 1.00655 0.13966 0.0
H1944 H 0.80035 0.07832 0.16124 0.0
H1945 H 0.83455 0.03127 0.1591 0.0
H1946 H 0.7906 0.09473 0.0491 0.0
H1947 H 0.83125 0.05347 0.04667 0.0
H1948 H 0.77209 0.14771 0.06958 0.0
H1949 H 0.75209 0.15915 0.09673 0.0
C1950 C 0.72082 0.06833 0.88256 0.0
C1951 C 0.69261 0.03753 0.87136 0.0
C1952 C 0.71714 0.06851 0.83478 0.0
C1953 C 0.75192 0.09166 0.84583 0.0
N1954 N 0.78463 0.11794 0.88019 0.0
N1955 N 0.65732 1.01415 0.83711 0.0
C1956 C 0.7522 0.09369 0.86979 0.0
C1957 C 0.68829 0.04022 0.8475 0.0
N1958 N 0.71794 0.07264 0.90539 0.0
N1959 N 0.71304 0.07264 0.81198 0.0
H1960 H 0.63359 0.99724 0.84647 0.0
H1961 H 0.6546 1.00967 0.81978 0.0
H1962 H 0.73366 0.09369 0.8028 0.0
H1963 H 0.68799 0.05806 0.80238 0.0
H1964 H 0.73578 0.0958 0.91485 0.0
H1965 H 0.69397 0.05572 0.9146 0.0
H1966 H 0.7911 0.11728 0.89741 0.0
H1967 H 0.80592 0.13818 0.87096 0.0
C1968 C 0.82489 0.57822 0.83918 0.0
C1969 C 0.7885 0.59892 0.85033 0.0
C1970 C 0.81733 0.57119 0.88681 0.0
C1971 C 0.84992 0.54568 0.87531 0.0
N1972 N 0.89501 0.53774 0.84231 0.0
N1973 N 0.75997 0.6284 0.88492 0.0
C1974 C 0.85749 0.55456 0.8521 0.0
C1975 C 0.78832 0.59983 0.87431 0.0
N1976 N 0.82634 0.57808 0.81619 0.0
N1977 N 0.81266 0.56604 0.90947 0.0
H1978 H 0.74162 0.65121 0.87561 0.0
H1979 H 0.7584 0.63287 0.90231 0.0
H1980 H 0.83621 0.54877 0.91888 0.0
H1981 H 0.78599 0.57852 0.91874 0.0
H1982 H 0.84845 0.55883 0.80678 0.0
H1983 H 0.80415 0.59641 0.80646 0.0
H1984 H 0.90472 0.54468 0.82588 0.0
H1985 H 0.91833 0.51982 0.85166 0.0
C1986 C 0.67885 0.53511 0.09997 0.0
C1987 C 0.68883 0.53786 0.0765 0.0
C1988 C 0.74633 0.59342 0.08546 0.0
C1989 C 0.7387 0.5885 0.10906 0.0
N1990 N 0.69004 0.56398 0.13821 0.0
N1991 N 0.72208 0.57931 0.04683 0.0
C1992 C 0.70171 0.56301 0.116 0.0
C1993 C 0.71875 0.57097 0.06933 0.0
N1994 N 0.65017 0.50315 0.10708 0.0
N1995 N 0.78258 0.61658 0.07849 0.0
H1996 H 0.7024 0.56254 0.035 0.0
H1997 H 0.74082 0.6052 0.04023 0.0
H1998 H 0.8014 0.63528 0.08977 0.0
H1999 H 0.79433 0.61642 0.06199 0.0
H2000 H 0.645 0.49519 0.12391 0.0
H2001 H 0.63287 0.48312 0.09573 0.0
H2002 H 0.66175 0.54869 0.14456 0.0
H2003 H 0.70706 0.58372 0.14992 0.0
C2004 C 0.75739 0.43757 0.36002 0.0
C2005 C 0.76128 0.44512 0.33653 0.0
C2006 C 0.70105 0.50038 0.34015 0.0
C2007 C 0.7066 0.50169 0.36391 0.0
N2008 N 0.73691 0.46745 0.39687 0.0
N2009 N 0.73274 0.4811 0.3036 0.0
C2010 C 0.73313 0.46829 0.374 0.0
C2011 C 0.73099 0.47504 0.32633 0.0
N2012 N 0.77681 0.40062 0.36871 0.0
N2013 N 0.66694 0.52388 0.33101 0.0
H2014 H 0.75269 0.46131 0.29318 0.0
H2015 H 0.71565 0.50627 0.29529 0.0
H2016 H 0.64361 0.53923 0.34147 0.0
H2017 H 0.65896 0.52347 0.31393 0.0
H2018 H 0.77371 0.39115 0.38548 0.0
H2019 H 0.79156 0.37703 0.35808 0.0
H2020 H 0.75973 0.4476 0.40537 0.0
H2021 H 0.71745 0.48788 0.40717 0.0
C2022 C 0.76325 0.4502 0.59658 0.0
C2023 C 0.77269 0.44823 0.62018 0.0
C2024 C 0.84084 0.49258 0.61294 0.0
C2025 C 0.82989 0.49582 0.58966 0.0
N2026 N 0.79022 0.46407 0.5586 0.0
N2027 N 0.82575 0.45995 0.64987 0.0
C2028 C 0.79469 0.46922 0.58136 0.0
C2029 C 0.81377 0.46627 0.62793 0.0
N2030 N 0.72238 0.43757 0.5888 0.0
N2031 N 0.87576 0.51677 0.62088 0.0
H2032 H 0.80617 0.44183 0.66099 0.0
H2033 H 0.85624 0.46944 0.65663 0.0
H2034 H 0.89637 0.5346 0.61009 0.0
H2035 H 0.88369 0.51966 0.63787 0.0
H2036 H 0.71154 0.44336 0.57241 0.0
H2037 H 0.69814 0.42364 0.59912 0.0
H2038 H 0.76751 0.44229 0.5512 0.0
H2039 H 0.81269 0.47838 0.54738 0.0
C2040 C 0.21631 0.48161 0.12387 0.0
C2041 C 0.25521 0.46098 0.11524 0.0
C2042 C 0.23097 0.48356 0.07695 0.0
C2043 C 0.19823 0.51245 0.0861 0.0
N2044 N 0.16317 0.54186 0.11954 0.0
N2045 N 0.30262 0.44883 0.08311 0.0
C2046 C 0.19108 0.51137 0.10991 0.0
C2047 C 0.2628 0.46287 0.09154 0.0
N2048 N 0.205 0.47478 0.14582 0.0
N2049 N 0.23335 0.47806 0.05415 0.0
H2050 H 0.32686 0.43392 0.09315 0.0
H2051 H 0.31262 0.45472 0.06659 0.0
H2052 H 0.21067 0.49323 0.04333 0.0
H2053 H 0.25458 0.45516 0.04641 0.0
H2054 H 0.17532 0.48613 0.15286 0.0
H2055 H 0.2236 0.45399 0.15625 0.0
H2056 H 0.16 0.54633 0.13688 0.0
H2057 H 0.1458 0.56511 0.11002 0.0
C2058 C 0.32677 0.47107 0.87263 0.0
C2059 C 0.35187 0.50625 0.86342 0.0
C2060 C 0.33063 0.48023 0.8253 0.0
C2061 C 0.29719 0.45326 0.83472 0.0
N2062 N 0.26397 0.42138 0.86768 0.0
N2063 N 0.37879 0.54412 0.83061 0.0
C2064 C 0.29645 0.44704 0.8585 0.0
C2065 C 0.35529 0.50976 0.83956 0.0
N2066 N 0.32996 0.46282 0.89515 0.0
N2067 N 0.33684 0.47912 0.80253 0.0
H2068 H 0.39641 0.56651 0.84069 0.0
H2069 H 0.37887 0.55185 0.81354 0.0
H2070 H 0.31828 0.45799 0.79211 0.0
H2071 H 0.3626 0.4956 0.79443 0.0
H2072 H 0.31473 0.436 0.90297 0.0
H2073 H 0.35141 0.48088 0.90559 0.0
H2074 H 0.25782 0.41924 0.88489 0.0
H2075 H 0.24146 0.40399 0.85768 0.0
C2076 C 0.31831 0.57266 0.57893 0.0
C2077 C 0.34124 0.53569 0.58813 0.0
C2078 C 0.31499 0.55829 0.62616 0.0
C2079 C 0.28527 0.58892 0.61638 0.0
N2080 N 0.26678 0.63468 0.58514 0.0
N2081 N 0.36384 0.49476 0.62088 0.0
C2082 C 0.29015 0.59939 0.59322 0.0
C2083 C 0.34128 0.52989 0.612 0.0
N2084 N 0.32175 0.58038 0.55636 0.0
N2085 N 0.31696 0.5559 0.64909 0.0
H2086 H 0.38525 0.47541 0.61113 0.0
H2087 H 0.36088 0.48436 0.63749 0.0
H2088 H 0.29796 0.57693 0.65936 0.0
H2089 H 0.33983 0.53657 0.65783 0.0
H2090 H 0.30507 0.60551 0.54788 0.0
H2091 H 0.34275 0.56155 0.54601 0.0
H2092 H 0.26597 0.64442 0.56838 0.0
H2093 H 0.24989 0.6559 0.59619 0.0
C2094 C 0.21712 0.5825 0.37386 0.0
C2095 C 0.19219 0.54665 0.36469 0.0
C2096 C 0.2186 0.56708 0.32648 0.0
C2097 C 0.24752 0.59928 0.33601 0.0
N2098 N 0.26315 0.6478 0.36709 0.0
N2099 N 0.15971 0.51264 0.33194 0.0
C2100 C 0.24233 0.61061 0.35918 0.0
C2101 C 0.18924 0.54239 0.34078 0.0
N2102 N 0.21959 0.58733 0.39672 0.0
N2103 N 0.22215 0.55754 0.30403 0.0
H2104 H 0.13982 0.49312 0.34225 0.0
H2105 H 0.1527 0.50955 0.31482 0.0
H2106 H 0.24214 0.57632 0.29336 0.0
H2107 H 0.20649 0.53085 0.29609 0.0
H2108 H 0.24152 0.60883 0.40487 0.0
H2109 H 0.20028 0.56835 0.4076 0.0
H2110 H 0.25986 0.66001 0.38347 0.0
H2111 H 0.28023 0.66872 0.35617 0.0
C2112 C 0.22778 1.00224 0.24982 0.0
C2113 C 0.22039 0.04883 0.24757 0.0
C2114 C 0.20088 0.0339 0.20871 0.0
C2115 C 0.18965 0.98906 0.21455 0.0
N2116 N 0.19385 0.9311 0.24267 0.0
N2117 N 0.20849 0.10966 0.22186 0.0
C2118 C 0.20436 0.97275 0.23552 0.0
C2119 C 0.20969 0.06519 0.22606 0.0
N2120 N 0.25537 0.98667 0.26621 0.0
N2121 N 0.20656 0.04567 0.18673 0.0
H2122 H 0.22237 0.13317 0.23271 0.0
H2123 H 0.19445 0.12262 0.20723 0.0
H2124 H 0.20684 0.02225 0.17373 0.0
H2125 H 0.2175 0.07707 0.18192 0.0
H2126 H 0.26317 0.95301 0.26778 0.0
H2127 H 0.27382 1.00835 0.27639 0.0
H2128 H 0.20194 0.91991 0.25876 0.0
H2129 H 0.17303 0.90979 0.23373 0.0
C2130 C 0.25395 0.886 0.4912 0.0
C2131 C 0.23756 0.9262 0.50063 0.0
C2132 C 0.28574 0.96958 0.47604 0.0
C2133 C 0.30365 0.92925 0.46749 0.0
N2134 N 0.31136 0.84973 0.46894 0.0
N2135 N 0.23996 1.00605 0.50433 0.0
C2136 C 0.2898 0.88757 0.47579 0.0
C2137 C 0.25392 0.96805 0.49364 0.0
N2138 N 0.23441 0.84654 0.49676 0.0
N2139 N 0.29835 1.00911 0.46679 0.0
H2140 H 0.21495 1.00618 0.5165 0.0
H2141 H 0.25428 0.03712 0.50192 0.0
H2142 H 0.32368 1.01133 0.45484 0.0
H2143 H 0.2828 0.03936 0.47023 0.0
H2144 H 0.24212 0.81624 0.4891 0.0
H2145 H 0.20746 0.84473 0.50779 0.0
H2146 H 0.30554 0.81846 0.4757 0.0
H2147 H 0.33813 0.85036 0.45775 0.0
C2148 C 0.38194 1.01294 0.70939 0.0
C2149 C 0.34124 0.03597 0.70557 0.0
C2150 C 0.30224 0.98448 0.73049 0.0
C2151 C 0.34311 0.96279 0.73478 0.0
N2152 N 0.41829 0.94714 0.72448 0.0
N2153 N 0.26153 0.04014 0.70935 0.0
C2154 C 0.38171 0.9739 0.72267 0.0
C2155 C 0.30091 0.02041 0.71509 0.0
N2156 N 0.42084 0.02878 0.70065 0.0
N2157 N 0.26547 0.97207 0.74236 0.0
H2158 H 0.25984 0.06858 0.69941 0.0
H2159 H 0.23051 0.02766 0.71372 0.0
H2160 H 0.26574 0.94426 0.75281 0.0
H2161 H 0.23554 0.98948 0.74241 0.0
H2162 H 0.45203 1.01592 0.70454 0.0
H2163 H 0.42265 0.05708 0.6907 0.0
H2164 H 0.44702 0.95079 0.71493 0.0
H2165 H 0.41792 0.91844 0.73429 0.0
C2166 C 0.24038 0.13484 0.97867 0.0
C2167 C 0.22449 0.09438 0.96934 0.0
C2168 C 0.2725 0.05275 -0.00468 0.0
C2169 C 0.29147 0.09336 0.00289 0.0
N2170 N 0.29972 0.1724 -0.00115 0.0
N2171 N 0.2276 1.01463 0.96706 0.0
C2172 C 0.27727 0.13423 -0.00643 0.0
C2173 C 0.241 0.05316 0.97731 0.0
N2174 N 0.22019 0.17391 0.97291 0.0
N2175 N 0.28407 1.01402 0.00568 0.0
H2176 H 0.20291 1.01416 0.95468 0.0
H2177 H 0.24197 0.98375 0.97017 0.0
H2178 H 0.30897 1.01267 0.01792 0.0
H2179 H 0.268 0.98387 0.00279 0.0
H2180 H 0.22766 0.20442 -0.0196 0.0
H2181 H 0.19281 0.1749 0.96208 0.0
H2182 H 0.2935 0.2029 -0.00872 0.0
H2183 H 0.32772 0.17243 0.00927 0.0
C2184 C 0.80361 0.99918 0.72637 0.0
C2185 C 0.844 0.98105 0.71809 0.0
C2186 C 0.88645 0.03553 0.7401 0.0
C2187 C 0.84639 0.05124 0.74982 0.0
N2188 N 0.76707 0.04711 0.75387 0.0
N2189 N 0.92385 0.97659 0.71929 0.0
C2190 C 0.80492 0.03294 0.7433 0.0
C2191 C 0.88548 0.99755 0.72577 0.0
N2192 N 0.76418 0.98473 0.71755 0.0
N2193 N 0.92535 0.05725 0.74469 0.0
H2194 H 0.92386 0.94837 0.70893 0.0
H2195 H 0.95512 0.9845 0.72566 0.0
H2196 H 0.92649 0.08564 0.75492 0.0
H2197 H 0.95548 0.04988 0.73688 0.0
H2198 H 0.7337 0.99989 0.72082 0.0
H2199 H 0.76239 0.95808 0.7062 0.0
H2200 H 0.7363 0.03176 0.75199 0.0
H2201 H 0.76707 0.07381 0.76522 0.0
C2202 C 0.74515 0.15192 0.48334 0.0
C2203 C 0.74524 0.11099 0.49498 0.0
C2204 C 0.79425 0.07762 0.46664 0.0
C2205 C 0.79706 0.11968 0.45609 0.0
N2206 N 0.78215 0.19855 0.4561 0.0
N2207 N 0.77056 0.03549 0.49922 0.0
C2208 C 0.77421 0.15731 0.46482 0.0
C2209 C 0.76994 0.0739 0.48702 0.0
N2210 N 0.71731 0.18557 0.49001 0.0
N2211 N 0.81377 0.0412 0.45683 0.0
H2212 H 0.75074 0.03081 0.51343 0.0
H2213 H 0.79189 1.00893 0.49594 0.0
H2214 H 0.83297 0.04302 0.44225 0.0
H2215 H 0.80908 1.00876 0.46229 0.0
H2216 H 0.71235 0.21446 0.48078 0.0
H2217 H 0.69616 0.18316 0.50386 0.0
H2218 H 0.77029 0.22796 0.46328 0.0
H2219 H 0.80409 0.20395 0.4428 0.0
C2220 C 0.72273 0.99116 0.22704 0.0
C2221 C 0.68505 0.96699 0.23427 0.0
C2222 C 0.63691 1.01244 0.21041 0.0
C2223 C 0.67444 0.03609 0.20264 0.0
N2224 N 0.75375 0.04642 0.20189 0.0
N2225 N 0.60885 0.94652 0.22898 0.0
C2226 C 0.71769 0.02476 0.21039 0.0
C2227 C 0.64309 0.97466 0.22428 0.0
N2228 N 0.76274 0.98336 0.23719 0.0
N2229 N 0.59533 0.02803 0.20568 0.0
H2230 H 0.61327 0.91885 0.2393 0.0
H2231 H 0.57795 0.94812 0.22109 0.0
H2232 H 0.59049 0.05834 0.1976 0.0
H2233 H 0.5663 1.01422 0.21208 0.0
H2234 H 0.79087 1.0029 0.23493 0.0
H2235 H 0.76712 0.95735 0.24854 0.0
H2236 H 0.78651 0.03687 0.20482 0.0
H2237 H 0.75062 0.07375 0.1913 0.0
C2238 C 0.78672 0.98517 -0.01641 0.0
C2239 C 0.80661 0.94577 -0.00813 0.0
C2240 C 0.75612 0.89978 0.96955 0.0
C2241 C 0.73795 0.93901 0.96044 0.0
N2242 N 0.73357 1.01861 0.95795 0.0
N2243 N 0.81545 0.86552 -0.00935 0.0
C2244 C 0.75249 0.98171 0.96728 0.0
C2245 C 0.79311 0.903 -0.01588 0.0
N2246 N 0.8003 0.02559 -0.00821 0.0
N2247 N 0.73674 0.85964 0.96477 0.0
H2248 H 0.84205 0.86555 0.00184 0.0
H2249 H 0.81013 0.83423 -0.01647 0.0
H2250 H 0.70895 0.85661 0.95433 0.0
H2251 H 0.74517 0.83002 0.97268 0.0
H2252 H 0.78454 0.05561 -0.01161 0.0
H2253 H 0.82761 0.02901 0.00253 0.0
H2254 H 0.74521 0.05087 0.96023 0.0
H2255 H 0.70572 1.01664 0.94752 0.0
C2256 C 0.74219 0.53182 0.74555 0.0
C2257 C 0.70189 0.55033 0.75385 0.0
C2258 C 0.6596 0.49218 0.73399 0.0
C2259 C 0.69929 0.47688 0.72378 0.0
N2260 N 0.7783 0.48196 0.71878 0.0
N2261 N 0.62156 0.55235 0.75316 0.0
C2262 C 0.74068 0.49646 0.72946 0.0
C2263 C 0.66037 0.53174 0.74722 0.0
N2264 N 0.78188 0.54797 0.75327 0.0
N2265 N 0.62104 0.46891 0.73086 0.0
H2266 H 0.62064 0.58187 0.76231 0.0
H2267 H 0.59047 0.54299 0.74706 0.0
H2268 H 0.61951 0.43973 0.7213 0.0
H2269 H 0.5917 0.47572 0.73954 0.0
H2270 H 0.81239 0.5328 0.75009 0.0
H2271 H 0.78405 0.57608 0.76365 0.0
H2272 H 0.80886 0.498 0.71986 0.0
H2273 H 0.77831 0.4542 0.70808 0.0
C2274 C 0.76663 0.45612 0.95625 0.0
C2275 C 0.77085 0.41589 0.94375 0.0
C2276 C 0.7125 0.3816 0.96649 0.0
C2277 C 0.70913 0.42169 0.97902 0.0
N2278 N 0.72158 0.50021 -0.01806 0.0
N2279 N 0.74192 0.34365 0.93344 0.0
C2280 C 0.73224 0.46012 0.97235 0.0
C2281 C 0.74153 0.37974 0.94759 0.0
N2282 N 0.79648 0.48983 0.9534 0.0
N2283 N 0.68989 0.34488 0.9735 0.0
H2284 H 0.76375 0.34066 0.91988 0.0
H2285 H 0.71873 0.31807 0.93418 0.0
H2286 H 0.66702 0.34623 -0.0133 0.0
H2287 H 0.69487 0.31308 0.9669 0.0
H2288 H 0.79795 0.5178 0.96383 0.0
H2289 H 0.82219 0.48841 0.94168 0.0
H2290 H 0.7346 0.53039 0.97659 0.0
H2291 H 0.69613 0.50339 -0.00618 0.0
C2292 C 0.8856 0.51415 0.23761 0.0
C2293 C 0.85082 0.48305 0.24123 0.0
C2294 C 0.80536 0.51853 0.21234 0.0
C2295 C 0.84056 0.54864 0.20818 0.0
N2296 N 0.91268 0.57836 0.21697 0.0
N2297 N 0.78053 0.45124 0.23102 0.0
C2298 C 0.88011 0.54778 0.22112 0.0
C2299 C 0.81139 0.48408 0.22831 0.0
N2300 N 0.92393 0.51079 0.24991 0.0
N2301 N 0.76612 0.52362 0.20099 0.0
H2302 H 0.78506 0.42523 0.24236 0.0
H2303 H 0.75228 0.44756 0.22107 0.0
H2304 H 0.76097 0.54943 0.1896 0.0
H2305 H 0.73774 0.50486 0.20392 0.0
H2306 H 0.94981 0.53359 0.24971 0.0
H2307 H 0.93053 0.48364 0.2602 0.0
H2308 H 0.94352 0.57921 0.22485 0.0
H2309 H 0.90851 0.60424 0.20556 0.0
C2310 C 0.76723 0.56402 0.46218 0.0
C2311 C 0.75974 0.6074 0.45369 0.0
C2312 C 0.81693 0.63731 0.47891 0.0
C2313 C 0.82074 0.59523 0.48922 0.0
N2314 N 0.79969 0.51849 0.49165 0.0
N2315 N 0.77035 0.6864 0.45694 0.0
C2316 C 0.79631 0.55836 0.48088 0.0
C2317 C 0.78295 0.64436 0.46276 0.0
N2318 N 0.7467 0.5284 0.45228 0.0
N2319 N 0.8451 0.67081 0.48515 0.0
H2320 H 0.74301 0.69228 0.44659 0.0
H2321 H 0.78328 0.7151 0.46435 0.0
H2322 H 0.87021 0.66628 0.49706 0.0
H2323 H 0.84642 0.70136 0.47704 0.0
H2324 H 0.75431 0.49545 0.45593 0.0
H2325 H 0.72291 0.53189 0.43964 0.0
H2326 H 0.77904 0.49144 0.48845 0.0
H2327 H 0.82277 0.51318 0.50452 0.0
C2328 C 0.39651 0.50404 0.24782 0.0
C2329 C 0.36163 0.5345 0.25279 0.0
C2330 C 0.31233 0.49514 0.22667 0.0
C2331 C 0.3486 0.46863 0.21952 0.0
N2332 N 0.42539 0.44696 0.22262 0.0
N2333 N 0.28743 0.56181 0.24627 0.0
C2334 C 0.39057 0.47216 0.23027 0.0
C2335 C 0.31971 0.53073 0.24206 0.0
N2336 N 0.43518 0.50569 0.25995 0.0
N2337 N 0.27104 0.48627 0.21817 0.0
H2338 H 0.29204 0.58847 0.25738 0.0
H2339 H 0.25745 0.56334 0.23755 0.0
H2340 H 0.26561 0.45994 0.20691 0.0
H2341 H 0.24208 0.50198 0.22362 0.0
H2342 H 0.4599 0.48148 0.25902 0.0
H2343 H 0.44183 0.53059 0.27183 0.0
H2344 H 0.45829 0.45181 0.22748 0.0
H2345 H 0.42136 0.42173 0.21063 0.0
C2346 C 0.30531 0.6387 0.97089 0.0
C2347 C 0.32186 0.59704 0.96322 0.0
C2348 C 0.26638 0.55806 -0.01405 0.0
C2349 C 0.24782 0.59972 -0.00779 0.0
N2350 N 0.24534 0.67954 -0.01094 0.0
N2351 N 0.32023 0.51724 0.96324 0.0
C2352 C 0.26603 0.64004 -0.01584 0.0
C2353 C 0.30324 0.5567 0.971 0.0
N2354 N 0.32728 0.67691 0.96544 0.0
N2355 N 0.24855 0.51996 -0.00548 0.0
H2356 H 0.34904 0.51575 0.95344 0.0
H2357 H 0.30594 0.48632 0.96603 0.0
H2358 H 0.21922 0.52003 0.00391 0.0
H2359 H 0.26266 0.48854 -0.00727 0.0
H2360 H 0.31931 0.70818 0.9719 0.0
H2361 H 0.35649 0.67704 0.95604 0.0
H2362 H 0.25407 0.70983 -0.01802 0.0
H2363 H 0.21669 0.68176 -0.00113 0.0
C2364 C 0.13392 0.52652 0.71706 0.0
C2365 C 0.17292 0.52919 0.70378 0.0
C2366 C 0.21147 0.47806 0.72926 0.0
C2367 C 0.17174 0.47422 0.74191 0.0
N2368 N 0.09265 0.48429 0.74461 0.0
N2369 N 0.24672 0.50288 0.69482 0.0
C2370 C 0.13209 0.49504 0.73464 0.0
C2371 C 0.211 0.5032 0.70905 0.0
N2372 N 0.09918 0.55494 0.71338 0.0
N2373 N 0.25001 0.45974 0.73717 0.0
H2374 H 0.2486 0.52298 0.68062 0.0
H2375 H 0.2734 0.48099 0.69636 0.0
H2376 H 0.25117 0.4399 0.75149 0.0
H2377 H 0.28115 0.46593 0.73025 0.0
H2378 H 0.07164 0.55724 0.72395 0.0
H2379 H 0.09975 0.57937 0.70103 0.0
H2380 H 0.06189 0.49525 0.73877 0.0
H2381 H 0.09057 0.46056 0.75732 0.0
C2382 C 0.26094 0.48848 0.47079 0.0
C2383 C 0.24301 0.44981 0.46041 0.0
C2384 C 0.30141 0.40421 0.47795 0.0
C2385 C 0.31887 0.44294 0.48838 0.0
N2386 N 0.32203 0.52217 0.49177 0.0
N2387 N 0.24858 0.37119 0.45193 0.0
C2388 C 0.30086 0.48526 0.4836 0.0
C2389 C 0.26391 0.40767 0.46342 0.0
N2390 N 0.23881 0.52802 0.46877 0.0
N2391 N 0.31963 0.36383 0.48311 0.0
H2392 H 0.21904 0.3712 0.44278 0.0
H2393 H 0.26557 0.34107 0.45085 0.0
H2394 H 0.34875 0.36109 0.49261 0.0
H2395 H 0.30568 0.33335 0.47868 0.0
H2396 H 0.24779 0.55713 0.47718 0.0
H2397 H 0.20891 0.53079 0.45993 0.0
H2398 H 0.31292 0.55464 0.48795 0.0
H2399 H 0.35147 0.51983 0.50104 0.0
loop_
_geom_bond_atom_site_label_1
_geom_bond_atom_site_label_2
_geom_bond_distance
_geom_bond_site_symmetry_2
_ccdc_geom_bond_type
O0 Mn1 2.163 . S
O0 C14 1.244 . S
Mn1 O0 2.163 . S
Mn1 O4 2.160 . S
Mn1 O5 2.221 . S
Mn1 O7 2.163 . S
Mn1 O9 2.160 . S
Mn1 O19 2.221 . S
O2 Mn3 2.087 . S
O2 C14 1.256 . S
Mn3 O2 2.087 . S
Mn3 O10 2.089 . S
Mn3 O19 2.290 . S
Mn3 O20 2.251 . S
O4 Mn1 2.160 . S
O4 C15 1.239 . S
O5 Mn1 2.221 . S
O5 Mn6 2.290 . S
O5 C16 1.278 . S
Mn6 O5 2.290 . S
Mn6 O8 2.089 . S
Mn6 O11 2.251 . S
Mn6 O12 2.087 . S
O7 Mn1 2.163 . S
O7 C17 1.244 . S
O8 Mn6 2.089 . S
O8 C15 1.256 . S
O9 Mn1 2.160 . S
O9 C18 1.239 . S
O10 Mn3 2.089 . S
O10 C18 1.256 . S
O11 Mn6 2.251 . S
O11 C16 1.241 . S
O12 Mn6 2.087 . S
O12 C17 1.256 . S
C13 O19 1.278 . S
C13 O20 1.241 . S
C14 O0 1.244 . S
C14 O2 1.256 . S
C15 O4 1.239 . S
C15 O8 1.256 . S
C16 O5 1.278 . S
C16 O11 1.241 . S
C17 O7 1.244 . S
C17 O12 1.256 . S
C18 O9 1.239 . S
C18 O10 1.256 . S
O19 Mn1 2.221 . S
O19 Mn3 2.290 . S
O19 C13 1.278 . S
O20 Mn3 2.251 . S
O20 C13 1.241 . S
O21 Mn22 2.163 . S
O21 C35 1.244 . S
Mn22 O21 2.163 . S
Mn22 O25 2.160 . S
Mn22 O26 2.221 . S
Mn22 O28 2.163 . S
Mn22 O30 2.160 . S
Mn22 O40 2.221 . S
O23 Mn24 2.087 1_455 S
O23 C35 1.256 . S
Mn24 O23 2.087 1_655 S
Mn24 O31 2.089 . S
Mn24 O40 2.290 1_655 S
Mn24 O41 2.251 1_655 S
O25 Mn22 2.160 . S
O25 C36 1.239 . S
O26 Mn22 2.221 . S
O26 Mn27 2.290 . S
O26 C37 1.278 . S
Mn27 O26 2.290 . S
Mn27 O29 2.089 . S
Mn27 O32 2.251 . S
Mn27 O33 2.087 . S
O28 Mn22 2.163 . S
O28 C38 1.244 . S
O29 Mn27 2.089 . S
O29 C36 1.256 . S
O30 Mn22 2.160 . S
O30 C39 1.239 . S
O31 Mn24 2.089 . S
O31 C39 1.256 1_655 S
O32 Mn27 2.251 . S
O32 C37 1.241 . S
O33 Mn27 2.087 . S
O33 C38 1.256 . S
C34 O40 1.278 . S
C34 O41 1.241 . S
C35 O21 1.244 . S
C35 O23 1.256 . S
C36 O25 1.239 . S
C36 O29 1.256 . S
C37 O26 1.278 . S
C37 O32 1.241 . S
C38 O28 1.244 . S
C38 O33 1.256 . S
C39 O30 1.239 . S
C39 O31 1.256 1_455 S
O40 Mn22 2.221 . S
O40 Mn24 2.290 1_455 S
O40 C34 1.278 . S
O41 Mn24 2.251 1_455 S
O41 C34 1.241 . S
O42 Mn43 2.163 . S
O42 C56 1.244 . S
Mn43 O42 2.163 . S
Mn43 O46 2.160 . S
Mn43 O47 2.221 . S
Mn43 O49 2.163 . S
Mn43 O51 2.160 . S
Mn43 O61 2.221 . S
O44 Mn45 2.087 . S
O44 C56 1.256 . S
Mn45 O44 2.087 . S
Mn45 O52 2.089 . S
Mn45 O61 2.290 . S
Mn45 O62 2.251 . S
O46 Mn43 2.160 . S
O46 C57 1.239 . S
O47 Mn43 2.221 . S
O47 Mn48 2.290 . S
O47 C58 1.278 . S
Mn48 O47 2.290 . S
Mn48 O50 2.089 . S
Mn48 O53 2.251 . S
Mn48 O54 2.087 . S
O49 Mn43 2.163 . S
O49 C59 1.244 . S
O50 Mn48 2.089 . S
O50 C57 1.256 . S
O51 Mn43 2.160 . S
O51 C60 1.239 . S
O52 Mn45 2.089 . S
O52 C60 1.256 . S
O53 Mn48 2.251 . S
O53 C58 1.241 . S
O54 Mn48 2.087 . S
O54 C59 1.256 . S
C55 O61 1.278 . S
C55 O62 1.241 . S
C56 O42 1.244 . S
C56 O44 1.256 . S
C57 O46 1.239 . S
C57 O50 1.256 . S
C58 O47 1.278 . S
C58 O53 1.241 . S
C59 O49 1.244 . S
C59 O54 1.256 . S
C60 O51 1.239 . S
C60 O52 1.256 . S
O61 Mn43 2.221 . S
O61 Mn45 2.290 . S
O61 C55 1.278 . S
O62 Mn45 2.251 . S
O62 C55 1.241 . S
O63 Mn64 2.163 . S
O63 C77 1.244 . S
Mn64 O63 2.163 . S
Mn64 O67 2.160 . S
Mn64 O68 2.221 . S
Mn64 O70 2.163 . S
Mn64 O72 2.160 . S
Mn64 O82 2.221 . S
O65 Mn66 2.087 . S
O65 C77 1.256 . S
Mn66 O65 2.087 . S
Mn66 O73 2.089 . S
Mn66 O82 2.290 . S
Mn66 O83 2.251 . S
O67 Mn64 2.160 . S
O67 C78 1.239 . S
O68 Mn64 2.221 . S
O68 Mn69 2.290 . S
O68 C79 1.278 . S
Mn69 O68 2.290 . S
Mn69 O71 2.089 . S
Mn69 O74 2.251 . S
Mn69 O75 2.087 . S
O70 Mn64 2.163 . S
O70 C80 1.244 . S
O71 Mn69 2.089 . S
O71 C78 1.256 . S
O72 Mn64 2.160 . S
O72 C81 1.239 . S
O73 Mn66 2.089 . S
O73 C81 1.256 . S
O74 Mn69 2.251 . S
O74 C79 1.241 . S
O75 Mn69 2.087 . S
O75 C80 1.256 . S
C76 O82 1.278 . S
C76 O83 1.241 . S
C77 O63 1.244 . S
C77 O65 1.256 . S
C78 O67 1.239 . S
C78 O71 1.256 . S
C79 O68 1.278 . S
C79 O74 1.241 . S
C80 O70 1.244 . S
C80 O75 1.256 . S
C81 O72 1.239 . S
C81 O73 1.256 . S
O82 Mn64 2.221 . S
O82 Mn66 2.290 . S
O82 C76 1.278 . S
O83 Mn66 2.251 . S
O83 C76 1.241 . S
O84 Mn85 2.163 . S
O84 C98 1.244 . S
Mn85 O84 2.163 . S
Mn85 O88 2.160 . S
Mn85 O89 2.221 . S
Mn85 O91 2.163 . S
Mn85 O93 2.160 . S
Mn85 O103 2.221 . S
O86 Mn87 2.087 . S
O86 C98 1.256 . S
Mn87 O86 2.087 . S
Mn87 O94 2.089 . S
Mn87 O103 2.290 . S
Mn87 O104 2.251 . S
O88 Mn85 2.160 . S
O88 C99 1.239 . S
O89 Mn85 2.221 . S
O89 Mn90 2.290 . S
O89 C100 1.278 . S
Mn90 O89 2.290 . S
Mn90 O92 2.089 . S
Mn90 O95 2.251 . S
Mn90 O96 2.087 . S
O91 Mn85 2.163 . S
O91 C101 1.244 . S
O92 Mn90 2.089 . S
O92 C99 1.256 . S
O93 Mn85 2.160 . S
O93 C102 1.239 . S
O94 Mn87 2.089 . S
O94 C102 1.256 . S
O95 Mn90 2.251 . S
O95 C100 1.241 . S
O96 Mn90 2.087 . S
O96 C101 1.256 . S
C97 O103 1.278 . S
C97 O104 1.241 . S
C98 O84 1.244 . S
C98 O86 1.256 . S
C99 O88 1.239 . S
C99 O92 1.256 . S
C100 O89 1.278 . S
C100 O95 1.241 . S
C101 O91 1.244 . S
C101 O96 1.256 . S
C102 O93 1.239 . S
C102 O94 1.256 . S
O103 Mn85 2.221 . S
O103 Mn87 2.290 . S
O103 C97 1.278 . S
O104 Mn87 2.251 . S
O104 C97 1.241 . S
O105 Mn106 2.163 . S
O105 C119 1.244 . S
Mn106 O105 2.163 . S
Mn106 O109 2.160 . S
Mn106 O110 2.221 . S
Mn106 O112 2.163 . S
Mn106 O114 2.160 . S
Mn106 O124 2.221 . S
O107 Mn108 2.087 . S
O107 C119 1.256 . S
Mn108 O107 2.087 . S
Mn108 O115 2.089 . S
Mn108 O124 2.290 . S
Mn108 O125 2.251 . S
O109 Mn106 2.160 . S
O109 C120 1.239 . S
O110 Mn106 2.221 . S
O110 Mn111 2.290 . S
O110 C121 1.278 . S
Mn111 O110 2.290 . S
Mn111 O113 2.089 . S
Mn111 O116 2.251 . S
Mn111 O117 2.087 . S
O112 Mn106 2.163 . S
O112 C122 1.244 . S
O113 Mn111 2.089 . S
O113 C120 1.256 . S
O114 Mn106 2.160 . S
O114 C123 1.239 . S
O115 Mn108 2.089 . S
O115 C123 1.256 . S
O116 Mn111 2.251 . S
O116 C121 1.241 . S
O117 Mn111 2.087 . S
O117 C122 1.256 . S
C118 O124 1.278 . S
C118 O125 1.241 . S
C119 O105 1.244 . S
C119 O107 1.256 . S
C120 O109 1.239 . S
C120 O113 1.256 . S
C121 O110 1.278 . S
C121 O116 1.241 . S
C122 O112 1.244 . S
C122 O117 1.256 . S
C123 O114 1.239 . S
C123 O115 1.256 . S
O124 Mn106 2.221 . S
O124 Mn108 2.290 . S
O124 C118 1.278 . S
O125 Mn108 2.251 . S
O125 C118 1.241 . S
O126 Mn127 2.163 . S
O126 C140 1.244 . S
Mn127 O126 2.163 . S
Mn127 O130 2.160 . S
Mn127 O131 2.221 . S
Mn127 O133 2.163 . S
Mn127 O135 2.160 . S
Mn127 O145 2.221 . S
O128 Mn129 2.087 . S
O128 C140 1.256 . S
Mn129 O128 2.087 . S
Mn129 O136 2.089 . S
Mn129 O145 2.290 . S
Mn129 O146 2.251 . S
O130 Mn127 2.160 . S
O130 C141 1.239 . S
O131 Mn127 2.221 . S
O131 Mn132 2.290 . S
O131 C142 1.278 . S
Mn132 O131 2.290 . S
Mn132 O134 2.089 . S
Mn132 O137 2.251 . S
Mn132 O138 2.087 . S
O133 Mn127 2.163 . S
O133 C143 1.244 . S
O134 Mn132 2.089 . S
O134 C141 1.256 . S
O135 Mn127 2.160 . S
O135 C144 1.239 . S
O136 Mn129 2.089 . S
O136 C144 1.256 . S
O137 Mn132 2.251 . S
O137 C142 1.241 . S
O138 Mn132 2.087 . S
O138 C143 1.256 . S
C139 O145 1.278 . S
C139 O146 1.241 . S
C140 O126 1.244 . S
C140 O128 1.256 . S
C141 O130 1.239 . S
C141 O134 1.256 . S
C142 O131 1.278 . S
C142 O137 1.241 . S
C143 O133 1.244 . S
C143 O138 1.256 . S
C144 O135 1.239 . S
C144 O136 1.256 . S
O145 Mn127 2.221 . S
O145 Mn129 2.290 . S
O145 C139 1.278 . S
O146 Mn129 2.251 . S
O146 C139 1.241 . S
O147 Mn148 2.163 . S
O147 C161 1.244 . S
Mn148 O147 2.163 . S
Mn148 O151 2.160 . S
Mn148 O152 2.221 . S
Mn148 O154 2.163 . S
Mn148 O156 2.160 . S
Mn148 O166 2.221 . S
O149 Mn150 2.087 1_455 S
O149 C161 1.256 . S
Mn150 O149 2.087 1_655 S
Mn150 O157 2.089 . S
Mn150 O166 2.290 1_655 S
Mn150 O167 2.251 1_655 S
O151 Mn148 2.160 . S
O151 C162 1.239 . S
O152 Mn148 2.221 . S
O152 Mn153 2.290 . S
O152 C163 1.278 . S
Mn153 O152 2.290 . S
Mn153 O155 2.089 . S
Mn153 O158 2.251 . S
Mn153 O159 2.087 . S
O154 Mn148 2.163 . S
O154 C164 1.244 . S
O155 Mn153 2.089 . S
O155 C162 1.256 . S
O156 Mn148 2.160 . S
O156 C165 1.239 . S
O157 Mn150 2.089 . S
O157 C165 1.256 1_655 S
O158 Mn153 2.251 . S
O158 C163 1.241 . S
O159 Mn153 2.087 . S
O159 C164 1.256 . S
C160 O166 1.278 . S
C160 O167 1.241 . S
C161 O147 1.244 . S
C161 O149 1.256 . S
C162 O151 1.239 . S
C162 O155 1.256 . S
C163 O152 1.278 . S
C163 O158 1.241 . S
C164 O154 1.244 . S
C164 O159 1.256 . S
C165 O156 1.239 . S
C165 O157 1.256 1_455 S
O166 Mn148 2.221 . S
O166 Mn150 2.290 1_455 S
O166 C160 1.278 . S
O167 Mn150 2.251 1_455 S
O167 C160 1.241 . S
O168 Mn169 2.163 . S
O168 C182 1.244 . S
Mn169 O168 2.163 . S
Mn169 O172 2.160 . S
Mn169 O173 2.221 . S
Mn169 O175 2.163 . S
Mn169 O177 2.160 . S
Mn169 O187 2.221 . S
O170 Mn171 2.087 . S
O170 C182 1.256 . S
Mn171 O170 2.087 . S
Mn171 O178 2.089 . S
Mn171 O187 2.290 . S
Mn171 O188 2.251 . S
O172 Mn169 2.160 . S
O172 C183 1.239 . S
O173 Mn169 2.221 . S
O173 Mn174 2.290 . S
O173 C184 1.278 . S
Mn174 O173 2.290 . S
Mn174 O176 2.089 . S
Mn174 O179 2.251 . S
Mn174 O180 2.087 . S
O175 Mn169 2.163 . S
O175 C185 1.244 . S
O176 Mn174 2.089 . S
O176 C183 1.256 . S
O177 Mn169 2.160 . S
O177 C186 1.239 . S
O178 Mn171 2.089 . S
O178 C186 1.256 . S
O179 Mn174 2.251 . S
O179 C184 1.241 . S
O180 Mn174 2.087 . S
O180 C185 1.256 . S
C181 O187 1.278 . S
C181 O188 1.241 . S
C182 O168 1.244 . S
C182 O170 1.256 . S
C183 O172 1.239 . S
C183 O176 1.256 . S
C184 O173 1.278 . S
C184 O179 1.241 . S
C185 O175 1.244 . S
C185 O180 1.256 . S
C186 O177 1.239 . S
C186 O178 1.256 . S
O187 Mn169 2.221 . S
O187 Mn171 2.290 . S
O187 C181 1.278 . S
O188 Mn171 2.251 . S
O188 C181 1.241 . S
O189 Mn190 2.163 . S
O189 C203 1.244 . S
Mn190 O189 2.163 . S
Mn190 O193 2.160 . S
Mn190 O194 2.221 . S
Mn190 O196 2.163 . S
Mn190 O198 2.160 . S
Mn190 O208 2.221 . S
O191 Mn192 2.087 1_655 S
O191 C203 1.256 . S
Mn192 O191 2.087 1_455 S
Mn192 O199 2.089 . S
Mn192 O208 2.290 1_455 S
Mn192 O209 2.251 1_455 S
O193 Mn190 2.160 . S
O193 C204 1.239 . S
O194 Mn190 2.221 . S
O194 Mn195 2.290 . S
O194 C205 1.278 . S
Mn195 O194 2.290 . S
Mn195 O197 2.089 . S
Mn195 O200 2.251 . S
Mn195 O201 2.087 . S
O196 Mn190 2.163 . S
O196 C206 1.244 . S
O197 Mn195 2.089 . S
O197 C204 1.256 . S
O198 Mn190 2.160 . S
O198 C207 1.239 . S
O199 Mn192 2.089 . S
O199 C207 1.256 1_455 S
O200 Mn195 2.251 . S
O200 C205 1.241 . S
O201 Mn195 2.087 . S
O201 C206 1.256 . S
C202 O208 1.278 . S
C202 O209 1.241 . S
C203 O189 1.244 . S
C203 O191 1.256 . S
C204 O193 1.239 . S
C204 O197 1.256 . S
C205 O194 1.278 . S
C205 O200 1.241 . S
C206 O196 1.244 . S
C206 O201 1.256 . S
C207 O198 1.239 . S
C207 O199 1.256 1_655 S
O208 Mn190 2.221 . S
O208 Mn192 2.290 1_655 S
O208 C202 1.278 . S
O209 Mn192 2.251 1_655 S
O209 C202 1.241 . S
O210 Mn211 2.163 . S
O210 C224 1.244 . S
Mn211 O210 2.163 . S
Mn211 O214 2.160 . S
Mn211 O215 2.221 . S
Mn211 O217 2.163 . S
Mn211 O219 2.160 . S
Mn211 O229 2.221 . S
O212 Mn213 2.087 . S
O212 C224 1.256 . S
Mn213 O212 2.087 . S
Mn213 O220 2.089 . S
Mn213 O229 2.290 . S
Mn213 O230 2.251 . S
O214 Mn211 2.160 . S
O214 C225 1.239 . S
O215 Mn211 2.221 . S
O215 Mn216 2.290 . S
O215 C226 1.278 . S
Mn216 O215 2.290 . S
Mn216 O218 2.089 . S
Mn216 O221 2.251 . S
Mn216 O222 2.087 . S
O217 Mn211 2.163 . S
O217 C227 1.244 . S
O218 Mn216 2.089 . S
O218 C225 1.256 . S
O219 Mn211 2.160 . S
O219 C228 1.239 . S
O220 Mn213 2.089 . S
O220 C228 1.256 . S
O221 Mn216 2.251 . S
O221 C226 1.241 . S
O222 Mn216 2.087 . S
O222 C227 1.256 . S
C223 O229 1.278 . S
C223 O230 1.241 . S
C224 O210 1.244 . S
C224 O212 1.256 . S
C225 O214 1.239 . S
C225 O218 1.256 . S
C226 O215 1.278 . S
C226 O221 1.241 . S
C227 O217 1.244 . S
C227 O222 1.256 . S
C228 O219 1.239 . S
C228 O220 1.256 . S
O229 Mn211 2.221 . S
O229 Mn213 2.290 . S
O229 C223 1.278 . S
O230 Mn213 2.251 . S
O230 C223 1.241 . S
O231 Mn232 2.163 . S
O231 C245 1.244 . S
Mn232 O231 2.163 . S
Mn232 O235 2.160 . S
Mn232 O236 2.221 . S
Mn232 O238 2.163 . S
Mn232 O240 2.160 . S
Mn232 O250 2.221 . S
O233 Mn234 2.087 . S
O233 C245 1.256 . S
Mn234 O233 2.087 . S
Mn234 O241 2.089 . S
Mn234 O250 2.290 . S
Mn234 O251 2.251 . S
O235 Mn232 2.160 . S
O235 C246 1.239 . S
O236 Mn232 2.221 . S
O236 Mn237 2.290 . S
O236 C247 1.278 . S
Mn237 O236 2.290 . S
Mn237 O239 2.089 . S
Mn237 O242 2.251 . S
Mn237 O243 2.087 . S
O238 Mn232 2.163 . S
O238 C248 1.244 . S
O239 Mn237 2.089 . S
O239 C246 1.256 . S
O240 Mn232 2.160 . S
O240 C249 1.239 . S
O241 Mn234 2.089 . S
O241 C249 1.256 . S
O242 Mn237 2.251 . S
O242 C247 1.241 . S
O243 Mn237 2.087 . S
O243 C248 1.256 . S
C244 O250 1.278 . S
C244 O251 1.241 . S
C245 O231 1.244 . S
C245 O233 1.256 . S
C246 O235 1.239 . S
C246 O239 1.256 . S
C247 O236 1.278 . S
C247 O242 1.241 . S
C248 O238 1.244 . S
C248 O243 1.256 . S
C249 O240 1.239 . S
C249 O241 1.256 . S
O250 Mn232 2.221 . S
O250 Mn234 2.290 . S
O250 C244 1.278 . S
O251 Mn234 2.251 . S
O251 C244 1.241 . S
O252 Mn253 2.163 . S
O252 C266 1.244 . S
Mn253 O252 2.163 . S
Mn253 O256 2.160 . S
Mn253 O257 2.221 . S
Mn253 O259 2.163 . S
Mn253 O261 2.160 . S
Mn253 O271 2.221 . S
O254 Mn255 2.087 . S
O254 C266 1.256 . S
Mn255 O254 2.087 . S
Mn255 O262 2.089 . S
Mn255 O271 2.290 . S
Mn255 O272 2.251 . S
O256 Mn253 2.160 . S
O256 C267 1.239 . S
O257 Mn253 2.221 . S
O257 Mn258 2.290 . S
O257 C268 1.278 . S
Mn258 O257 2.290 . S
Mn258 O260 2.089 . S
Mn258 O263 2.251 . S
Mn258 O264 2.087 . S
O259 Mn253 2.163 . S
O259 C269 1.244 . S
O260 Mn258 2.089 . S
O260 C267 1.256 . S
O261 Mn253 2.160 . S
O261 C270 1.239 . S
O262 Mn255 2.089 . S
O262 C270 1.256 . S
O263 Mn258 2.251 . S
O263 C268 1.241 . S
O264 Mn258 2.087 . S
O264 C269 1.256 . S
C265 O271 1.278 . S
C265 O272 1.241 . S
C266 O252 1.244 . S
C266 O254 1.256 . S
C267 O256 1.239 . S
C267 O260 1.256 . S
C268 O257 1.278 . S
C268 O263 1.241 . S
C269 O259 1.244 . S
C269 O264 1.256 . S
C270 O261 1.239 . S
C270 O262 1.256 . S
O271 Mn253 2.221 . S
O271 Mn255 2.290 . S
O271 C265 1.278 . S
O272 Mn255 2.251 . S
O272 C265 1.241 . S
O273 Mn274 2.163 . S
O273 C287 1.244 . S
Mn274 O273 2.163 . S
Mn274 O277 2.160 . S
Mn274 O278 2.221 . S
Mn274 O280 2.163 . S
Mn274 O282 2.160 . S
Mn274 O292 2.221 . S
O275 Mn276 2.087 . S
O275 C287 1.256 . S
Mn276 O275 2.087 . S
Mn276 O283 2.089 . S
Mn276 O292 2.290 . S
Mn276 O293 2.251 . S
O277 Mn274 2.160 . S
O277 C288 1.239 . S
O278 Mn274 2.221 . S
O278 Mn279 2.290 . S
O278 C289 1.278 . S
Mn279 O278 2.290 . S
Mn279 O281 2.089 . S
Mn279 O284 2.251 . S
Mn279 O285 2.087 . S
O280 Mn274 2.163 . S
O280 C290 1.244 . S
O281 Mn279 2.089 . S
O281 C288 1.256 . S
O282 Mn274 2.160 . S
O282 C291 1.239 . S
O283 Mn276 2.089 . S
O283 C291 1.256 . S
O284 Mn279 2.251 . S
O284 C289 1.241 . S
O285 Mn279 2.087 . S
O285 C290 1.256 . S
C286 O292 1.278 . S
C286 O293 1.241 . S
C287 O273 1.244 . S
C287 O275 1.256 . S
C288 O277 1.239 . S
C288 O281 1.256 . S
C289 O278 1.278 . S
C289 O284 1.241 . S
C290 O280 1.244 . S
C290 O285 1.256 . S
C291 O282 1.239 . S
C291 O283 1.256 . S
O292 Mn274 2.221 . S
O292 Mn276 2.290 . S
O292 C286 1.278 . S
O293 Mn276 2.251 . S
O293 C286 1.241 . S
O294 Mn295 2.163 . S
O294 C308 1.244 . S
Mn295 O294 2.163 . S
Mn295 O298 2.160 . S
Mn295 O299 2.221 . S
Mn295 O301 2.163 . S
Mn295 O303 2.160 . S
Mn295 O313 2.221 . S
O296 Mn297 2.087 . S
O296 C308 1.256 . S
Mn297 O296 2.087 . S
Mn297 O304 2.089 . S
Mn297 O313 2.290 . S
Mn297 O314 2.251 . S
O298 Mn295 2.160 . S
O298 C309 1.239 . S
O299 Mn295 2.221 . S
O299 Mn300 2.290 . S
O299 C310 1.278 . S
Mn300 O299 2.290 . S
Mn300 O302 2.089 . S
Mn300 O305 2.251 . S
Mn300 O306 2.087 . S
O301 Mn295 2.163 . S
O301 C311 1.244 . S
O302 Mn300 2.089 . S
O302 C309 1.256 . S
O303 Mn295 2.160 . S
O303 C312 1.239 . S
O304 Mn297 2.089 . S
O304 C312 1.256 . S
O305 Mn300 2.251 . S
O305 C310 1.241 . S
O306 Mn300 2.087 . S
O306 C311 1.256 . S
C307 O313 1.278 . S
C307 O314 1.241 . S
C308 O294 1.244 . S
C308 O296 1.256 . S
C309 O298 1.239 . S
C309 O302 1.256 . S
C310 O299 1.278 . S
C310 O305 1.241 . S
C311 O301 1.244 . S
C311 O306 1.256 . S
C312 O303 1.239 . S
C312 O304 1.256 . S
O313 Mn295 2.221 . S
O313 Mn297 2.290 . S
O313 C307 1.278 . S
O314 Mn297 2.251 . S
O314 C307 1.241 . S
O315 Mn316 2.163 . S
O315 C329 1.244 . S
Mn316 O315 2.163 . S
Mn316 O319 2.160 . S
Mn316 O320 2.221 . S
Mn316 O322 2.163 . S
Mn316 O324 2.160 . S
Mn316 O334 2.221 . S
O317 Mn318 2.087 1_655 S
O317 C329 1.256 . S
Mn318 O317 2.087 1_455 S
Mn318 O325 2.089 . S
Mn318 O334 2.290 1_455 S
Mn318 O335 2.251 1_455 S
O319 Mn316 2.160 . S
O319 C330 1.239 . S
O320 Mn316 2.221 . S
O320 Mn321 2.290 . S
O320 C331 1.278 . S
Mn321 O320 2.290 . S
Mn321 O323 2.089 . S
Mn321 O326 2.251 . S
Mn321 O327 2.087 . S
O322 Mn316 2.163 . S
O322 C332 1.244 . S
O323 Mn321 2.089 . S
O323 C330 1.256 . S
O324 Mn316 2.160 . S
O324 C333 1.239 . S
O325 Mn318 2.089 . S
O325 C333 1.256 1_455 S
O326 Mn321 2.251 . S
O326 C331 1.241 . S
O327 Mn321 2.087 . S
O327 C332 1.256 . S
C328 O334 1.278 . S
C328 O335 1.241 . S
C329 O315 1.244 . S
C329 O317 1.256 . S
C330 O319 1.239 . S
C330 O323 1.256 . S
C331 O320 1.278 . S
C331 O326 1.241 . S
C332 O322 1.244 . S
C332 O327 1.256 . S
C333 O324 1.239 . S
C333 O325 1.256 1_655 S
O334 Mn316 2.221 . S
O334 Mn318 2.290 1_655 S
O334 C328 1.278 . S
O335 Mn318 2.251 1_655 S
O335 C328 1.241 . S
O336 Mn337 2.163 . S
O336 C350 1.244 . S
Mn337 O336 2.163 . S
Mn337 O340 2.160 . S
Mn337 O341 2.221 . S
Mn337 O343 2.163 . S
Mn337 O345 2.160 . S
Mn337 O355 2.221 . S
O338 Mn339 2.087 . S
O338 C350 1.256 . S
Mn339 O338 2.087 . S
Mn339 O346 2.089 . S
Mn339 O355 2.290 . S
Mn339 O356 2.251 . S
O340 Mn337 2.160 . S
O340 C351 1.239 . S
O341 Mn337 2.221 . S
O341 Mn342 2.290 . S
O341 C352 1.278 . S
Mn342 O341 2.290 . S
Mn342 O344 2.089 . S
Mn342 O347 2.251 . S
Mn342 O348 2.087 . S
O343 Mn337 2.163 . S
O343 C353 1.244 . S
O344 Mn342 2.089 . S
O344 C351 1.256 . S
O345 Mn337 2.160 . S
O345 C354 1.239 . S
O346 Mn339 2.089 . S
O346 C354 1.256 . S
O347 Mn342 2.251 . S
O347 C352 1.241 . S
O348 Mn342 2.087 . S
O348 C353 1.256 . S
C349 O355 1.278 . S
C349 O356 1.241 . S
C350 O336 1.244 . S
C350 O338 1.256 . S
C351 O340 1.239 . S
C351 O344 1.256 . S
C352 O341 1.278 . S
C352 O347 1.241 . S
C353 O343 1.244 . S
C353 O348 1.256 . S
C354 O345 1.239 . S
C354 O346 1.256 . S
O355 Mn337 2.221 . S
O355 Mn339 2.290 . S
O355 C349 1.278 . S
O356 Mn339 2.251 . S
O356 C349 1.241 . S
O357 Mn358 2.163 . S
O357 C371 1.244 . S
Mn358 O357 2.163 . S
Mn358 O361 2.160 . S
Mn358 O362 2.221 . S
Mn358 O364 2.163 . S
Mn358 O366 2.160 . S
Mn358 O376 2.221 . S
O359 Mn360 2.087 . S
O359 C371 1.256 . S
Mn360 O359 2.087 . S
Mn360 O367 2.089 . S
Mn360 O376 2.290 . S
Mn360 O377 2.251 . S
O361 Mn358 2.160 . S
O361 C372 1.239 . S
O362 Mn358 2.221 . S
O362 Mn363 2.290 . S
O362 C373 1.278 . S
Mn363 O362 2.290 . S
Mn363 O365 2.089 . S
Mn363 O368 2.251 . S
Mn363 O369 2.087 . S
O364 Mn358 2.163 . S
O364 C374 1.244 . S
O365 Mn363 2.089 . S
O365 C372 1.256 . S
O366 Mn358 2.160 . S
O366 C375 1.239 . S
O367 Mn360 2.089 . S
O367 C375 1.256 . S
O368 Mn363 2.251 . S
O368 C373 1.241 . S
O369 Mn363 2.087 . S
O369 C374 1.256 . S
C370 O376 1.278 . S
C370 O377 1.241 . S
C371 O357 1.244 . S
C371 O359 1.256 . S
C372 O361 1.239 . S
C372 O365 1.256 . S
C373 O362 1.278 . S
C373 O368 1.241 . S
C374 O364 1.244 . S
C374 O369 1.256 . S
C375 O366 1.239 . S
C375 O367 1.256 . S
O376 Mn358 2.221 . S
O376 Mn360 2.290 . S
O376 C370 1.278 . S
O377 Mn360 2.251 . S
O377 C370 1.241 . S
O378 Mn379 2.163 . S
O378 C392 1.244 . S
Mn379 O378 2.163 . S
Mn379 O382 2.160 . S
Mn379 O383 2.221 . S
Mn379 O385 2.163 . S
Mn379 O387 2.160 . S
Mn379 O397 2.221 . S
O380 Mn381 2.087 . S
O380 C392 1.256 . S
Mn381 O380 2.087 . S
Mn381 O388 2.089 . S
Mn381 O397 2.290 . S
Mn381 O398 2.251 . S
O382 Mn379 2.160 . S
O382 C393 1.239 . S
O383 Mn379 2.221 . S
O383 Mn384 2.290 . S
O383 C394 1.278 . S
Mn384 O383 2.290 . S
Mn384 O386 2.089 . S
Mn384 O389 2.251 . S
Mn384 O390 2.087 . S
O385 Mn379 2.163 . S
O385 C395 1.244 . S
O386 Mn384 2.089 . S
O386 C393 1.256 . S
O387 Mn379 2.160 . S
O387 C396 1.239 . S
O388 Mn381 2.089 . S
O388 C396 1.256 . S
O389 Mn384 2.251 . S
O389 C394 1.241 . S
O390 Mn384 2.087 . S
O390 C395 1.256 . S
C391 O397 1.278 . S
C391 O398 1.241 . S
C392 O378 1.244 . S
C392 O380 1.256 . S
C393 O382 1.239 . S
C393 O386 1.256 . S
C394 O383 1.278 . S
C394 O389 1.241 . S
C395 O385 1.244 . S
C395 O390 1.256 . S
C396 O387 1.239 . S
C396 O388 1.256 . S
O397 Mn379 2.221 . S
O397 Mn381 2.290 . S
O397 C391 1.278 . S
O398 Mn381 2.251 . S
O398 C391 1.241 . S
O399 Mn400 2.163 . S
O399 C413 1.244 . S
Mn400 O399 2.163 . S
Mn400 O403 2.160 . S
Mn400 O404 2.221 . S
Mn400 O406 2.163 . S
Mn400 O408 2.160 . S
Mn400 O418 2.221 . S
O401 Mn402 2.087 1_655 S
O401 C413 1.256 . S
Mn402 O401 2.087 1_455 S
Mn402 O409 2.089 . S
Mn402 O418 2.290 1_455 S
Mn402 O419 2.251 1_455 S
O403 Mn400 2.160 . S
O403 C414 1.239 . S
O404 Mn400 2.221 . S
O404 Mn405 2.290 . S
O404 C415 1.278 . S
Mn405 O404 2.290 . S
Mn405 O407 2.089 . S
Mn405 O410 2.251 . S
Mn405 O411 2.087 . S
O406 Mn400 2.163 . S
O406 C416 1.244 . S
O407 Mn405 2.089 . S
O407 C414 1.256 . S
O408 Mn400 2.160 . S
O408 C417 1.239 . S
O409 Mn402 2.089 . S
O409 C417 1.256 1_455 S
O410 Mn405 2.251 . S
O410 C415 1.241 . S
O411 Mn405 2.087 . S
O411 C416 1.256 . S
C412 O418 1.278 . S
C412 O419 1.241 . S
C413 O399 1.244 . S
C413 O401 1.256 . S
C414 O403 1.239 . S
C414 O407 1.256 . S
C415 O404 1.278 . S
C415 O410 1.241 . S
C416 O406 1.244 . S
C416 O411 1.256 . S
C417 O408 1.239 . S
C417 O409 1.256 1_655 S
O418 Mn400 2.221 . S
O418 Mn402 2.290 1_655 S
O418 C412 1.278 . S
O419 Mn402 2.251 1_655 S
O419 C412 1.241 . S
O420 Mn421 2.163 . S
O420 C434 1.244 . S
Mn421 O420 2.163 . S
Mn421 O424 2.160 . S
Mn421 O425 2.221 . S
Mn421 O427 2.163 . S
Mn421 O429 2.160 . S
Mn421 O439 2.221 . S
O422 Mn423 2.087 . S
O422 C434 1.256 . S
Mn423 O422 2.087 . S
Mn423 O430 2.089 . S
Mn423 O439 2.290 . S
Mn423 O440 2.251 . S
O424 Mn421 2.160 . S
O424 C435 1.239 . S
O425 Mn421 2.221 . S
O425 Mn426 2.290 . S
O425 C436 1.278 . S
Mn426 O425 2.290 . S
Mn426 O428 2.089 . S
Mn426 O431 2.251 . S
Mn426 O432 2.087 . S
O427 Mn421 2.163 . S
O427 C437 1.244 . S
O428 Mn426 2.089 . S
O428 C435 1.256 . S
O429 Mn421 2.160 . S
O429 C438 1.239 . S
O430 Mn423 2.089 . S
O430 C438 1.256 . S
O431 Mn426 2.251 . S
O431 C436 1.241 . S
O432 Mn426 2.087 . S
O432 C437 1.256 . S
C433 O439 1.278 . S
C433 O440 1.241 . S
C434 O420 1.244 . S
C434 O422 1.256 . S
C435 O424 1.239 . S
C435 O428 1.256 . S
C436 O425 1.278 . S
C436 O431 1.241 . S
C437 O427 1.244 . S
C437 O432 1.256 . S
C438 O429 1.239 . S
C438 O430 1.256 . S
O439 Mn421 2.221 . S
O439 Mn423 2.290 . S
O439 C433 1.278 . S
O440 Mn423 2.251 . S
O440 C433 1.241 . S
O441 Mn442 2.163 . S
O441 C455 1.244 . S
Mn442 O441 2.163 . S
Mn442 O445 2.160 . S
Mn442 O446 2.221 . S
Mn442 O448 2.163 . S
Mn442 O450 2.160 . S
Mn442 O460 2.221 . S
O443 Mn444 2.087 1_655 S
O443 C455 1.256 . S
Mn444 O443 2.087 1_455 S
Mn444 O451 2.089 . S
Mn444 O460 2.290 1_455 S
Mn444 O461 2.251 1_455 S
O445 Mn442 2.160 . S
O445 C456 1.239 . S
O446 Mn442 2.221 . S
O446 Mn447 2.290 . S
O446 C457 1.278 . S
Mn447 O446 2.290 . S
Mn447 O449 2.089 . S
Mn447 O452 2.251 . S
Mn447 O453 2.087 . S
O448 Mn442 2.163 . S
O448 C458 1.244 . S
O449 Mn447 2.089 . S
O449 C456 1.256 . S
O450 Mn442 2.160 . S
O450 C459 1.239 . S
O451 Mn444 2.089 . S
O451 C459 1.256 1_455 S
O452 Mn447 2.251 . S
O452 C457 1.241 . S
O453 Mn447 2.087 . S
O453 C458 1.256 . S
C454 O460 1.278 . S
C454 O461 1.241 . S
C455 O441 1.244 . S
C455 O443 1.256 . S
C456 O445 1.239 . S
C456 O449 1.256 . S
C457 O446 1.278 . S
C457 O452 1.241 . S
C458 O448 1.244 . S
C458 O453 1.256 . S
C459 O450 1.239 . S
C459 O451 1.256 1_655 S
O460 Mn442 2.221 . S
O460 Mn444 2.290 1_655 S
O460 C454 1.278 . S
O461 Mn444 2.251 1_655 S
O461 C454 1.241 . S
O462 Mn463 2.163 . S
O462 C476 1.244 . S
Mn463 O462 2.163 . S
Mn463 O466 2.160 . S
Mn463 O467 2.221 . S
Mn463 O469 2.163 . S
Mn463 O471 2.160 . S
Mn463 O481 2.221 . S
O464 Mn465 2.087 . S
O464 C476 1.256 . S
Mn465 O464 2.087 . S
Mn465 O472 2.089 . S
Mn465 O481 2.290 . S
Mn465 O482 2.251 . S
O466 Mn463 2.160 . S
O466 C477 1.239 . S
O467 Mn463 2.221 . S
O467 Mn468 2.290 . S
O467 C478 1.278 . S
Mn468 O467 2.290 . S
Mn468 O470 2.089 . S
Mn468 O473 2.251 . S
Mn468 O474 2.087 . S
O469 Mn463 2.163 . S
O469 C479 1.244 . S
O470 Mn468 2.089 . S
O470 C477 1.256 . S
O471 Mn463 2.160 . S
O471 C480 1.239 . S
O472 Mn465 2.089 . S
O472 C480 1.256 . S
O473 Mn468 2.251 . S
O473 C478 1.241 . S
O474 Mn468 2.087 . S
O474 C479 1.256 . S
C475 O481 1.278 . S
C475 O482 1.241 . S
C476 O462 1.244 . S
C476 O464 1.256 . S
C477 O466 1.239 . S
C477 O470 1.256 . S
C478 O467 1.278 . S
C478 O473 1.241 . S
C479 O469 1.244 . S
C479 O474 1.256 . S
C480 O471 1.239 . S
C480 O472 1.256 . S
O481 Mn463 2.221 . S
O481 Mn465 2.290 . S
O481 C475 1.278 . S
O482 Mn465 2.251 . S
O482 C475 1.241 . S
O483 Mn484 2.163 . S
O483 C497 1.244 . S
Mn484 O483 2.163 . S
Mn484 O487 2.160 . S
Mn484 O488 2.221 . S
Mn484 O490 2.163 . S
Mn484 O492 2.160 . S
Mn484 O502 2.221 . S
O485 Mn486 2.087 . S
O485 C497 1.256 . S
Mn486 O485 2.087 . S
Mn486 O493 2.089 . S
Mn486 O502 2.290 . S
Mn486 O503 2.251 . S
O487 Mn484 2.160 . S
O487 C498 1.239 . S
O488 Mn484 2.221 . S
O488 Mn489 2.290 . S
O488 C499 1.278 . S
Mn489 O488 2.290 . S
Mn489 O491 2.089 . S
Mn489 O494 2.251 . S
Mn489 O495 2.087 . S
O490 Mn484 2.163 . S
O490 C500 1.244 . S
O491 Mn489 2.089 . S
O491 C498 1.256 . S
O492 Mn484 2.160 . S
O492 C501 1.239 . S
O493 Mn486 2.089 . S
O493 C501 1.256 . S
O494 Mn489 2.251 . S
O494 C499 1.241 . S
O495 Mn489 2.087 . S
O495 C500 1.256 . S
C496 O502 1.278 . S
C496 O503 1.241 . S
C497 O483 1.244 . S
C497 O485 1.256 . S
C498 O487 1.239 . S
C498 O491 1.256 . S
C499 O488 1.278 . S
C499 O494 1.241 . S
C500 O490 1.244 . S
C500 O495 1.256 . S
C501 O492 1.239 . S
C501 O493 1.256 . S
O502 Mn484 2.221 . S
O502 Mn486 2.290 . S
O502 C496 1.278 . S
O503 Mn486 2.251 . S
O503 C496 1.241 . S
O504 Mn505 2.163 . S
O504 C518 1.244 . S
Mn505 O504 2.163 . S
Mn505 O508 2.160 . S
Mn505 O509 2.221 . S
Mn505 O511 2.163 . S
Mn505 O513 2.160 . S
Mn505 O523 2.221 . S
O506 Mn507 2.087 . S
O506 C518 1.256 . S
Mn507 O506 2.087 . S
Mn507 O514 2.089 . S
Mn507 O523 2.290 . S
Mn507 O524 2.251 . S
O508 Mn505 2.160 . S
O508 C519 1.239 . S
O509 Mn505 2.221 . S
O509 Mn510 2.290 . S
O509 C520 1.278 . S
Mn510 O509 2.290 . S
Mn510 O512 2.089 . S
Mn510 O515 2.251 . S
Mn510 O516 2.087 . S
O511 Mn505 2.163 . S
O511 C521 1.244 . S
O512 Mn510 2.089 . S
O512 C519 1.256 . S
O513 Mn505 2.160 . S
O513 C522 1.239 . S
O514 Mn507 2.089 . S
O514 C522 1.256 . S
O515 Mn510 2.251 . S
O515 C520 1.241 . S
O516 Mn510 2.087 . S
O516 C521 1.256 . S
C517 O523 1.278 . S
C517 O524 1.241 . S
C518 O504 1.244 . S
C518 O506 1.256 . S
C519 O508 1.239 . S
C519 O512 1.256 . S
C520 O509 1.278 . S
C520 O515 1.241 . S
C521 O511 1.244 . S
C521 O516 1.256 . S
C522 O513 1.239 . S
C522 O514 1.256 . S
O523 Mn505 2.221 . S
O523 Mn507 2.290 . S
O523 C517 1.278 . S
O524 Mn507 2.251 . S
O524 C517 1.241 . S
O525 Mn526 2.163 . S
O525 C539 1.244 . S
Mn526 O525 2.163 . S
Mn526 O529 2.160 . S
Mn526 O530 2.221 . S
Mn526 O532 2.163 . S
Mn526 O534 2.160 . S
Mn526 O544 2.221 . S
O527 Mn528 2.087 . S
O527 C539 1.256 . S
Mn528 O527 2.087 . S
Mn528 O535 2.089 . S
Mn528 O544 2.290 . S
Mn528 O545 2.251 . S
O529 Mn526 2.160 . S
O529 C540 1.239 . S
O530 Mn526 2.221 . S
O530 Mn531 2.290 . S
O530 C541 1.278 . S
Mn531 O530 2.290 . S
Mn531 O533 2.089 . S
Mn531 O536 2.251 . S
Mn531 O537 2.087 . S
O532 Mn526 2.163 . S
O532 C542 1.244 . S
O533 Mn531 2.089 . S
O533 C540 1.256 . S
O534 Mn526 2.160 . S
O534 C543 1.239 . S
O535 Mn528 2.089 . S
O535 C543 1.256 . S
O536 Mn531 2.251 . S
O536 C541 1.241 . S
O537 Mn531 2.087 . S
O537 C542 1.256 . S
C538 O544 1.278 . S
C538 O545 1.241 . S
C539 O525 1.244 . S
C539 O527 1.256 . S
C540 O529 1.239 . S
C540 O533 1.256 . S
C541 O530 1.278 . S
C541 O536 1.241 . S
C542 O532 1.244 . S
C542 O537 1.256 . S
C543 O534 1.239 . S
C543 O535 1.256 . S
O544 Mn526 2.221 . S
O544 Mn528 2.290 . S
O544 C538 1.278 . S
O545 Mn528 2.251 . S
O545 C538 1.241 . S
O546 Mn547 2.163 . S
O546 C560 1.244 . S
Mn547 O546 2.163 . S
Mn547 O550 2.160 . S
Mn547 O551 2.221 . S
Mn547 O553 2.163 . S
Mn547 O555 2.160 . S
Mn547 O565 2.221 . S
O548 Mn549 2.087 . S
O548 C560 1.256 . S
Mn549 O548 2.087 . S
Mn549 O556 2.089 . S
Mn549 O565 2.290 . S
Mn549 O566 2.251 . S
O550 Mn547 2.160 . S
O550 C561 1.239 . S
O551 Mn547 2.221 . S
O551 Mn552 2.290 . S
O551 C562 1.278 . S
Mn552 O551 2.290 . S
Mn552 O554 2.089 . S
Mn552 O557 2.251 . S
Mn552 O558 2.087 . S
O553 Mn547 2.163 . S
O553 C563 1.244 . S
O554 Mn552 2.089 . S
O554 C561 1.256 . S
O555 Mn547 2.160 . S
O555 C564 1.239 . S
O556 Mn549 2.089 . S
O556 C564 1.256 . S
O557 Mn552 2.251 . S
O557 C562 1.241 . S
O558 Mn552 2.087 . S
O558 C563 1.256 . S
C559 O565 1.278 . S
C559 O566 1.241 . S
C560 O546 1.244 . S
C560 O548 1.256 . S
C561 O550 1.239 . S
C561 O554 1.256 . S
C562 O551 1.278 . S
C562 O557 1.241 . S
C563 O553 1.244 . S
C563 O558 1.256 . S
C564 O555 1.239 . S
C564 O556 1.256 . S
O565 Mn547 2.221 . S
O565 Mn549 2.290 . S
O565 C559 1.278 . S
O566 Mn549 2.251 . S
O566 C559 1.241 . S
O567 Mn568 2.163 . S
O567 C581 1.244 . S
Mn568 O567 2.163 . S
Mn568 O571 2.160 . S
Mn568 O572 2.221 . S
Mn568 O574 2.163 . S
Mn568 O576 2.160 . S
Mn568 O586 2.221 . S
O569 Mn570 2.087 1_455 S
O569 C581 1.256 . S
Mn570 O569 2.087 1_655 S
Mn570 O577 2.089 . S
Mn570 O586 2.290 1_655 S
Mn570 O587 2.251 1_655 S
O571 Mn568 2.160 . S
O571 C582 1.239 . S
O572 Mn568 2.221 . S
O572 Mn573 2.290 . S
O572 C583 1.278 . S
Mn573 O572 2.290 . S
Mn573 O575 2.089 . S
Mn573 O578 2.251 . S
Mn573 O579 2.087 . S
O574 Mn568 2.163 . S
O574 C584 1.244 . S
O575 Mn573 2.089 . S
O575 C582 1.256 . S
O576 Mn568 2.160 . S
O576 C585 1.239 . S
O577 Mn570 2.089 . S
O577 C585 1.256 1_655 S
O578 Mn573 2.251 . S
O578 C583 1.241 . S
O579 Mn573 2.087 . S
O579 C584 1.256 . S
C580 O586 1.278 . S
C580 O587 1.241 . S
C581 O567 1.244 . S
C581 O569 1.256 . S
C582 O571 1.239 . S
C582 O575 1.256 . S
C583 O572 1.278 . S
C583 O578 1.241 . S
C584 O574 1.244 . S
C584 O579 1.256 . S
C585 O576 1.239 . S
C585 O577 1.256 1_455 S
O586 Mn568 2.221 . S
O586 Mn570 2.290 1_455 S
O586 C580 1.278 . S
O587 Mn570 2.251 1_455 S
O587 C580 1.241 . S
O588 Mn589 2.163 . S
O588 C602 1.244 . S
Mn589 O588 2.163 . S
Mn589 O592 2.160 . S
Mn589 O593 2.221 . S
Mn589 O595 2.163 . S
Mn589 O597 2.160 . S
Mn589 O607 2.221 . S
O590 Mn591 2.087 . S
O590 C602 1.256 . S
Mn591 O590 2.087 . S
Mn591 O598 2.089 . S
Mn591 O607 2.290 . S
Mn591 O608 2.251 . S
O592 Mn589 2.160 . S
O592 C603 1.239 . S
O593 Mn589 2.221 . S
O593 Mn594 2.290 . S
O593 C604 1.278 . S
Mn594 O593 2.290 . S
Mn594 O596 2.089 . S
Mn594 O599 2.251 . S
Mn594 O600 2.087 . S
O595 Mn589 2.163 . S
O595 C605 1.244 . S
O596 Mn594 2.089 . S
O596 C603 1.256 . S
O597 Mn589 2.160 . S
O597 C606 1.239 . S
O598 Mn591 2.089 . S
O598 C606 1.256 . S
O599 Mn594 2.251 . S
O599 C604 1.241 . S
O600 Mn594 2.087 . S
O600 C605 1.256 . S
C601 O607 1.278 . S
C601 O608 1.241 . S
C602 O588 1.244 . S
C602 O590 1.256 . S
C603 O592 1.239 . S
C603 O596 1.256 . S
C604 O593 1.278 . S
C604 O599 1.241 . S
C605 O595 1.244 . S
C605 O600 1.256 . S
C606 O597 1.239 . S
C606 O598 1.256 . S
O607 Mn589 2.221 . S
O607 Mn591 2.290 . S
O607 C601 1.278 . S
O608 Mn591 2.251 . S
O608 C601 1.241 . S
O609 Mn610 2.163 . S
O609 C623 1.244 . S
Mn610 O609 2.163 . S
Mn610 O613 2.160 . S
Mn610 O614 2.221 . S
Mn610 O616 2.163 . S
Mn610 O618 2.160 . S
Mn610 O628 2.221 . S
O611 Mn612 2.087 1_455 S
O611 C623 1.256 . S
Mn612 O611 2.087 1_655 S
Mn612 O619 2.089 . S
Mn612 O628 2.290 1_655 S
Mn612 O629 2.251 1_655 S
O613 Mn610 2.160 . S
O613 C624 1.239 . S
O614 Mn610 2.221 . S
O614 Mn615 2.290 . S
O614 C625 1.278 . S
Mn615 O614 2.290 . S
Mn615 O617 2.089 . S
Mn615 O620 2.251 . S
Mn615 O621 2.087 . S
O616 Mn610 2.163 . S
O616 C626 1.244 . S
O617 Mn615 2.089 . S
O617 C624 1.256 . S
O618 Mn610 2.160 . S
O618 C627 1.239 . S
O619 Mn612 2.089 . S
O619 C627 1.256 1_655 S
O620 Mn615 2.251 . S
O620 C625 1.241 . S
O621 Mn615 2.087 . S
O621 C626 1.256 . S
C622 O628 1.278 . S
C622 O629 1.241 . S
C623 O609 1.244 . S
C623 O611 1.256 . S
C624 O613 1.239 . S
C624 O617 1.256 . S
C625 O614 1.278 . S
C625 O620 1.241 . S
C626 O616 1.244 . S
C626 O621 1.256 . S
C627 O618 1.239 . S
C627 O619 1.256 1_455 S
O628 Mn610 2.221 . S
O628 Mn612 2.290 1_455 S
O628 C622 1.278 . S
O629 Mn612 2.251 1_455 S
O629 C622 1.241 . S
O630 Mn631 2.163 . S
O630 C644 1.244 . S
Mn631 O630 2.163 . S
Mn631 O634 2.160 . S
Mn631 O635 2.221 . S
Mn631 O637 2.163 . S
Mn631 O639 2.160 . S
Mn631 O649 2.221 . S
O632 Mn633 2.087 . S
O632 C644 1.256 . S
Mn633 O632 2.087 . S
Mn633 O640 2.089 . S
Mn633 O649 2.290 . S
Mn633 O650 2.251 . S
O634 Mn631 2.160 . S
O634 C645 1.239 . S
O635 Mn631 2.221 . S
O635 Mn636 2.290 . S
O635 C646 1.278 . S
Mn636 O635 2.290 . S
Mn636 O638 2.089 . S
Mn636 O641 2.251 . S
Mn636 O642 2.087 . S
O637 Mn631 2.163 . S
O637 C647 1.244 . S
O638 Mn636 2.089 . S
O638 C645 1.256 . S
O639 Mn631 2.160 . S
O639 C648 1.239 . S
O640 Mn633 2.089 . S
O640 C648 1.256 . S
O641 Mn636 2.251 . S
O641 C646 1.241 . S
O642 Mn636 2.087 . S
O642 C647 1.256 . S
C643 O649 1.278 . S
C643 O650 1.241 . S
C644 O630 1.244 . S
C644 O632 1.256 . S
C645 O634 1.239 . S
C645 O638 1.256 . S
C646 O635 1.278 . S
C646 O641 1.241 . S
C647 O637 1.244 . S
C647 O642 1.256 . S
C648 O639 1.239 . S
C648 O640 1.256 . S
O649 Mn631 2.221 . S
O649 Mn633 2.290 . S
O649 C643 1.278 . S
O650 Mn633 2.251 . S
O650 C643 1.241 . S
O651 Mn652 2.163 . S
O651 C665 1.244 . S
Mn652 O651 2.163 . S
Mn652 O655 2.160 . S
Mn652 O656 2.221 . S
Mn652 O658 2.163 . S
Mn652 O660 2.160 . S
Mn652 O670 2.221 . S
O653 Mn654 2.087 . S
O653 C665 1.256 . S
Mn654 O653 2.087 . S
Mn654 O661 2.089 . S
Mn654 O670 2.290 . S
Mn654 O671 2.251 . S
O655 Mn652 2.160 . S
O655 C666 1.239 . S
O656 Mn652 2.221 . S
O656 Mn657 2.290 . S
O656 C667 1.278 . S
Mn657 O656 2.290 . S
Mn657 O659 2.089 . S
Mn657 O662 2.251 . S
Mn657 O663 2.087 . S
O658 Mn652 2.163 . S
O658 C668 1.244 . S
O659 Mn657 2.089 . S
O659 C666 1.256 . S
O660 Mn652 2.160 . S
O660 C669 1.239 . S
O661 Mn654 2.089 . S
O661 C669 1.256 . S
O662 Mn657 2.251 . S
O662 C667 1.241 . S
O663 Mn657 2.087 . S
O663 C668 1.256 . S
C664 O670 1.278 . S
C664 O671 1.241 . S
C665 O651 1.244 . S
C665 O653 1.256 . S
C666 O655 1.239 . S
C666 O659 1.256 . S
C667 O656 1.278 . S
C667 O662 1.241 . S
C668 O658 1.244 . S
C668 O663 1.256 . S
C669 O660 1.239 . S
C669 O661 1.256 . S
O670 Mn652 2.221 . S
O670 Mn654 2.290 . S
O670 C664 1.278 . S
O671 Mn654 2.251 . S
O671 C664 1.241 . S
C672 C673 1.363 . S
C672 C678 1.379 . S
C672 N680 1.356 . S
C673 C672 1.363 . S
C673 C679 1.363 . S
C674 C675 1.363 . S
C674 C679 1.379 . S
C674 N681 1.356 . S
C675 C674 1.363 . S
C675 C678 1.363 . S
N676 C678 1.356 . S
N676 H688 0.984 . S
N676 H689 0.985 . S
N677 C679 1.356 . S
N677 H682 0.984 . S
N677 H683 0.985 . S
C678 C672 1.379 . S
C678 C675 1.363 . S
C678 N676 1.356 . S
C679 C673 1.363 . S
C679 C674 1.379 . S
C679 N677 1.356 . S
N680 C672 1.356 . S
N680 H686 0.984 . S
N680 H687 0.984 . S
N681 C674 1.356 . S
N681 H684 0.984 . S
N681 H685 0.985 . S
H682 N677 0.984 . S
H683 N677 0.985 . S
H684 N681 0.984 . S
H685 N681 0.985 . S
H686 N680 0.984 . S
H687 N680 0.984 . S
H688 N676 0.984 . S
H689 N676 0.985 . S
C690 C691 1.363 1_655 S
C690 C696 1.379 . S
C690 N698 1.356 1_655 S
C691 C690 1.363 1_455 S
C691 C697 1.363 1_455 S
C692 C693 1.363 . S
C692 C697 1.379 . S
C692 N699 1.356 . S
C693 C692 1.363 . S
C693 C696 1.363 . S
N694 C696 1.356 . S
N694 H706 0.984 . S
N694 H707 0.985 . S
N695 C697 1.356 . S
N695 H700 0.984 1_655 S
N695 H701 0.985 . S
C696 C690 1.379 . S
C696 C693 1.363 . S
C696 N694 1.356 . S
C697 C691 1.363 1_655 S
C697 C692 1.379 . S
C697 N695 1.356 . S
N698 C690 1.356 1_455 S
N698 H704 0.984 . S
N698 H705 0.984 . S
N699 C692 1.356 . S
N699 H702 0.984 . S
N699 H703 0.985 . S
H700 N695 0.984 1_455 S
H701 N695 0.985 . S
H702 N699 0.984 . S
H703 N699 0.985 . S
H704 N698 0.984 . S
H705 N698 0.984 . S
H706 N694 0.984 . S
H707 N694 0.985 . S
C708 C709 1.363 . S
C708 C714 1.379 . S
C708 N716 1.356 . S
C709 C708 1.363 . S
C709 C715 1.363 . S
C710 C711 1.363 . S
C710 C715 1.379 . S
C710 N717 1.356 . S
C711 C710 1.363 . S
C711 C714 1.363 . S
N712 C714 1.356 . S
N712 H724 0.984 . S
N712 H725 0.985 . S
N713 C715 1.356 . S
N713 H718 0.984 . S
N713 H719 0.985 . S
C714 C708 1.379 . S
C714 C711 1.363 . S
C714 N712 1.356 . S
C715 C709 1.363 . S
C715 C710 1.379 . S
C715 N713 1.356 . S
N716 C708 1.356 . S
N716 H722 0.984 . S
N716 H723 0.984 . S
N717 C710 1.356 . S
N717 H720 0.984 . S
N717 H721 0.985 . S
H718 N713 0.984 . S
H719 N713 0.985 . S
H720 N717 0.984 . S
H721 N717 0.985 . S
H722 N716 0.984 . S
H723 N716 0.984 . S
H724 N712 0.984 . S
H725 N712 0.985 . S
C726 C727 1.363 . S
C726 C732 1.379 . S
C726 N734 1.356 . S
C727 C726 1.363 . S
C727 C733 1.363 . S
C728 C729 1.363 . S
C728 C733 1.379 . S
C728 N735 1.356 . S
C729 C728 1.363 . S
C729 C732 1.363 . S
N730 C732 1.356 . S
N730 H742 0.984 . S
N730 H743 0.985 . S
N731 C733 1.356 . S
N731 H736 0.984 . S
N731 H737 0.985 . S
C732 C726 1.379 . S
C732 C729 1.363 . S
C732 N730 1.356 . S
C733 C727 1.363 . S
C733 C728 1.379 . S
C733 N731 1.356 . S
N734 C726 1.356 . S
N734 H740 0.984 . S
N734 H741 0.984 . S
N735 C728 1.356 . S
N735 H738 0.984 . S
N735 H739 0.985 . S
H736 N731 0.984 . S
H737 N731 0.985 . S
H738 N735 0.984 . S
H739 N735 0.985 . S
H740 N734 0.984 . S
H741 N734 0.984 . S
H742 N730 0.984 . S
H743 N730 0.985 . S
C744 C745 1.363 . S
C744 C750 1.379 . S
C744 N752 1.356 . S
C745 C744 1.363 . S
C745 C751 1.363 . S
C746 C747 1.363 . S
C746 C751 1.379 . S
C746 N753 1.356 . S
C747 C746 1.363 . S
C747 C750 1.363 . S
N748 C750 1.356 . S
N748 H760 0.984 . S
N748 H761 0.985 . S
N749 C751 1.356 . S
N749 H754 0.984 . S
N749 H755 0.985 . S
C750 C744 1.379 . S
C750 C747 1.363 . S
C750 N748 1.356 . S
C751 C745 1.363 . S
C751 C746 1.379 . S
C751 N749 1.356 . S
N752 C744 1.356 . S
N752 H758 0.984 . S
N752 H759 0.984 . S
N753 C746 1.356 . S
N753 H756 0.984 . S
N753 H757 0.985 . S
H754 N749 0.984 . S
H755 N749 0.985 . S
H756 N753 0.984 . S
H757 N753 0.985 . S
H758 N752 0.984 . S
H759 N752 0.984 . S
H760 N748 0.984 . S
H761 N748 0.985 . S
C762 C763 1.363 . S
C762 C768 1.379 . S
C762 N770 1.356 . S
C763 C762 1.363 . S
C763 C769 1.363 . S
C764 C765 1.363 . S
C764 C769 1.379 . S
C764 N771 1.356 . S
C765 C764 1.363 . S
C765 C768 1.363 . S
N766 C768 1.356 . S
N766 H778 0.984 . S
N766 H779 0.985 . S
N767 C769 1.356 . S
N767 H772 0.984 . S
N767 H773 0.985 . S
C768 C762 1.379 . S
C768 C765 1.363 . S
C768 N766 1.356 . S
C769 C763 1.363 . S
C769 C764 1.379 . S
C769 N767 1.356 . S
N770 C762 1.356 . S
N770 H776 0.984 . S
N770 H777 0.984 . S
N771 C764 1.356 . S
N771 H774 0.984 . S
N771 H775 0.985 . S
H772 N767 0.984 . S
H773 N767 0.985 . S
H774 N771 0.984 . S
H775 N771 0.985 . S
H776 N770 0.984 . S
H777 N770 0.984 . S
H778 N766 0.984 . S
H779 N766 0.985 . S
C780 C781 1.363 . S
C780 C786 1.379 . S
C780 N788 1.356 . S
C781 C780 1.363 . S
C781 C787 1.363 . S
C782 C783 1.363 . S
C782 C787 1.379 . S
C782 N789 1.356 . S
C783 C782 1.363 . S
C783 C786 1.363 . S
N784 C786 1.356 . S
N784 H796 0.984 . S
N784 H797 0.985 . S
N785 C787 1.356 . S
N785 H790 0.984 . S
N785 H791 0.985 . S
C786 C780 1.379 . S
C786 C783 1.363 . S
C786 N784 1.356 . S
C787 C781 1.363 . S
C787 C782 1.379 . S
C787 N785 1.356 . S
N788 C780 1.356 . S
N788 H794 0.984 . S
N788 H795 0.984 . S
N789 C782 1.356 . S
N789 H792 0.984 . S
N789 H793 0.985 . S
H790 N785 0.984 . S
H791 N785 0.985 . S
H792 N789 0.984 . S
H793 N789 0.985 . S
H794 N788 0.984 . S
H795 N788 0.984 . S
H796 N784 0.984 . S
H797 N784 0.985 . S
C798 C799 1.363 1_655 S
C798 C804 1.379 . S
C798 N806 1.356 1_655 S
C799 C798 1.363 1_455 S
C799 C805 1.363 1_455 S
C800 C801 1.363 . S
C800 C805 1.379 . S
C800 N807 1.356 . S
C801 C800 1.363 . S
C801 C804 1.363 . S
N802 C804 1.356 . S
N802 H814 0.984 . S
N802 H815 0.985 . S
N803 C805 1.361 . S
N803 H808 0.977 1_655 S
N803 H809 0.988 . S
C804 C798 1.379 . S
C804 C801 1.363 . S
C804 N802 1.356 . S
C805 C799 1.363 1_655 S
C805 C800 1.379 . S
C805 N803 1.361 . S
N806 C798 1.356 1_455 S
N806 H812 0.984 . S
N806 H813 0.984 . S
N807 C800 1.356 . S
N807 H810 0.984 . S
N807 H811 0.985 . S
H808 N803 0.977 1_455 S
H809 N803 0.988 . S
H810 N807 0.984 . S
H811 N807 0.985 . S
H812 N806 0.984 . S
H813 N806 0.984 . S
H814 N802 0.984 . S
H815 N802 0.985 . S
C816 C817 1.363 . S
C816 C822 1.379 . S
C816 N824 1.356 . S
C817 C816 1.363 . S
C817 C823 1.363 . S
C818 C819 1.363 . S
C818 C823 1.379 . S
C818 N825 1.356 . S
C819 C818 1.363 . S
C819 C822 1.363 . S
N820 C822 1.356 . S
N820 H832 0.984 . S
N820 H833 0.985 . S
N821 C823 1.356 . S
N821 H826 0.984 . S
N821 H827 0.985 . S
C822 C816 1.379 . S
C822 C819 1.363 . S
C822 N820 1.356 . S
C823 C817 1.363 . S
C823 C818 1.379 . S
C823 N821 1.356 . S
N824 C816 1.356 . S
N824 H830 0.984 . S
N824 H831 0.984 . S
N825 C818 1.356 . S
N825 H828 0.984 . S
N825 H829 0.985 . S
H826 N821 0.984 . S
H827 N821 0.985 . S
H828 N825 0.984 . S
H829 N825 0.985 . S
H830 N824 0.984 . S
H831 N824 0.984 . S
H832 N820 0.984 . S
H833 N820 0.985 . S
C834 C835 1.363 1_455 S
C834 C840 1.379 . S
C834 N842 1.356 . S
C835 C834 1.363 1_655 S
C835 C841 1.363 . S
C836 C837 1.363 . S
C836 C841 1.379 1_455 S
C836 N843 1.356 . S
C837 C836 1.363 . S
C837 C840 1.363 . S
N838 C840 1.356 . S
N838 H850 0.984 . S
N838 H851 0.985 . S
N839 C841 1.356 . S
N839 H844 0.984 . S
N839 H845 0.985 . S
C840 C834 1.379 . S
C840 C837 1.363 . S
C840 N838 1.356 . S
C841 C835 1.363 . S
C841 C836 1.379 1_655 S
C841 N839 1.356 . S
N842 C834 1.356 . S
N842 H848 0.984 . S
N842 H849 0.984 1_455 S
N843 C836 1.356 . S
N843 H846 0.984 . S
N843 H847 0.985 . S
H844 N839 0.984 . S
H845 N839 0.985 . S
H846 N843 0.984 . S
H847 N843 0.985 . S
H848 N842 0.984 . S
H849 N842 0.984 1_655 S
H850 N838 0.984 . S
H851 N838 0.985 . S
C852 C853 1.363 . S
C852 C858 1.379 . S
C852 N860 1.356 . S
C853 C852 1.363 . S
C853 C859 1.363 . S
C854 C855 1.363 . S
C854 C859 1.379 . S
C854 N861 1.356 . S
C855 C854 1.363 . S
C855 C858 1.363 . S
N856 C858 1.356 . S
N856 H868 0.984 . S
N856 H869 0.985 . S
N857 C859 1.356 . S
N857 H862 0.984 . S
N857 H863 0.985 . S
C858 C852 1.379 . S
C858 C855 1.363 . S
C858 N856 1.356 . S
C859 C853 1.363 . S
C859 C854 1.379 . S
C859 N857 1.356 . S
N860 C852 1.356 . S
N860 H866 0.984 . S
N860 H867 0.984 . S
N861 C854 1.356 . S
N861 H864 0.984 . S
N861 H865 0.985 . S
H862 N857 0.984 . S
H863 N857 0.985 . S
H864 N861 0.984 . S
H865 N861 0.985 . S
H866 N860 0.984 . S
H867 N860 0.984 . S
H868 N856 0.984 . S
H869 N856 0.985 . S
C870 C871 1.363 . S
C870 C876 1.379 . S
C870 N878 1.356 . S
C871 C870 1.363 . S
C871 C877 1.363 . S
C872 C873 1.363 . S
C872 C877 1.379 . S
C872 N879 1.356 . S
C873 C872 1.363 . S
C873 C876 1.363 . S
N874 C876 1.356 . S
N874 H886 0.984 . S
N874 H887 0.985 . S
N875 C877 1.356 . S
N875 H880 0.984 . S
N875 H881 0.985 . S
C876 C870 1.379 . S
C876 C873 1.363 . S
C876 N874 1.356 . S
C877 C871 1.363 . S
C877 C872 1.379 . S
C877 N875 1.356 . S
N878 C870 1.356 . S
N878 H884 0.984 . S
N878 H885 0.984 . S
N879 C872 1.356 . S
N879 H882 0.984 . S
N879 H883 0.985 . S
H880 N875 0.984 . S
H881 N875 0.985 . S
H882 N879 0.984 . S
H883 N879 0.985 . S
H884 N878 0.984 . S
H885 N878 0.984 . S
H886 N874 0.984 . S
H887 N874 0.985 . S
C888 C889 1.363 . S
C888 C894 1.379 . S
C888 N896 1.356 . S
C889 C888 1.363 . S
C889 C895 1.363 . S
C890 C891 1.363 . S
C890 C895 1.379 . S
C890 N897 1.356 . S
C891 C890 1.363 . S
C891 C894 1.363 . S
N892 C894 1.356 . S
N892 H904 0.984 . S
N892 H905 0.985 . S
N893 C895 1.356 . S
N893 H898 0.984 . S
N893 H899 0.985 . S
C894 C888 1.379 . S
C894 C891 1.363 . S
C894 N892 1.356 . S
C895 C889 1.363 . S
C895 C890 1.379 . S
C895 N893 1.356 . S
N896 C888 1.356 . S
N896 H902 0.984 . S
N896 H903 0.984 . S
N897 C890 1.356 . S
N897 H900 0.984 . S
N897 H901 0.985 . S
H898 N893 0.984 . S
H899 N893 0.985 . S
H900 N897 0.984 . S
H901 N897 0.985 . S
H902 N896 0.984 . S
H903 N896 0.984 . S
H904 N892 0.984 . S
H905 N892 0.985 . S
C906 C907 1.363 . S
C906 C912 1.379 . S
C906 N914 1.356 . S
C907 C906 1.363 . S
C907 C913 1.363 . S
C908 C909 1.363 . S
C908 C913 1.379 . S
C908 N915 1.356 . S
C909 C908 1.363 . S
C909 C912 1.363 . S
N910 C912 1.356 . S
N910 H922 0.984 . S
N910 H923 0.985 . S
N911 C913 1.356 . S
N911 H916 0.984 . S
N911 H917 0.985 . S
C912 C906 1.379 . S
C912 C909 1.363 . S
C912 N910 1.356 . S
C913 C907 1.363 . S
C913 C908 1.379 . S
C913 N911 1.356 . S
N914 C906 1.356 . S
N914 H920 0.984 . S
N914 H921 0.984 . S
N915 C908 1.356 . S
N915 H918 0.984 . S
N915 H919 0.985 . S
H916 N911 0.984 . S
H917 N911 0.985 . S
H918 N915 0.984 . S
H919 N915 0.985 . S
H920 N914 0.984 . S
H921 N914 0.984 . S
H922 N910 0.984 . S
H923 N910 0.985 . S
C924 C925 1.363 . S
C924 C930 1.379 . S
C924 N932 1.356 . S
C925 C924 1.363 . S
C925 C931 1.363 . S
C926 C927 1.363 . S
C926 C931 1.379 . S
C926 N933 1.356 . S
C927 C926 1.363 . S
C927 C930 1.363 . S
N928 C930 1.356 . S
N928 H940 0.984 . S
N928 H941 0.985 . S
N929 C931 1.356 . S
N929 H934 0.984 . S
N929 H935 0.985 . S
C930 C924 1.379 . S
C930 C927 1.363 . S
C930 N928 1.356 . S
C931 C925 1.363 . S
C931 C926 1.379 . S
C931 N929 1.356 . S
N932 C924 1.356 . S
N932 H938 0.984 . S
N932 H939 0.984 . S
N933 C926 1.356 . S
N933 H936 0.984 . S
N933 H937 0.985 . S
H934 N929 0.984 . S
H935 N929 0.985 . S
H936 N933 0.984 . S
H937 N933 0.985 . S
H938 N932 0.984 . S
H939 N932 0.984 . S
H940 N928 0.984 . S
H941 N928 0.985 . S
C942 C943 1.363 . S
C942 C948 1.379 . S
C942 N950 1.356 . S
C943 C942 1.363 . S
C943 C949 1.363 . S
C944 C945 1.363 1_455 S
C944 C949 1.379 . S
C944 N951 1.356 1_455 S
C945 C944 1.363 1_655 S
C945 C948 1.363 1_655 S
N946 C948 1.356 . S
N946 H958 0.984 . S
N946 H959 0.985 1_455 S
N947 C949 1.356 . S
N947 H952 0.984 . S
N947 H953 0.985 . S
C948 C942 1.379 . S
C948 C945 1.363 1_455 S
C948 N946 1.356 . S
C949 C943 1.363 . S
C949 C944 1.379 . S
C949 N947 1.356 . S
N950 C942 1.356 . S
N950 H956 0.984 . S
N950 H957 0.984 . S
N951 C944 1.356 1_655 S
N951 H954 0.984 . S
N951 H955 0.985 . S
H952 N947 0.984 . S
H953 N947 0.985 . S
H954 N951 0.984 . S
H955 N951 0.985 . S
H956 N950 0.984 . S
H957 N950 0.984 . S
H958 N946 0.984 . S
H959 N946 0.985 1_655 S
C960 C961 1.363 . S
C960 C966 1.379 . S
C960 N968 1.356 . S
C961 C960 1.363 . S
C961 C967 1.363 . S
C962 C963 1.363 . S
C962 C967 1.379 . S
C962 N969 1.356 . S
C963 C962 1.363 . S
C963 C966 1.363 . S
N964 C966 1.356 . S
N964 H976 0.984 . S
N964 H977 0.985 . S
N965 C967 1.356 . S
N965 H970 0.984 . S
N965 H971 0.985 . S
C966 C960 1.379 . S
C966 C963 1.363 . S
C966 N964 1.356 . S
C967 C961 1.363 . S
C967 C962 1.379 . S
C967 N965 1.356 . S
N968 C960 1.356 . S
N968 H974 0.984 . S
N968 H975 0.984 . S
N969 C962 1.356 . S
N969 H972 0.984 . S
N969 H973 0.985 . S
H970 N965 0.984 . S
H971 N965 0.985 . S
H972 N969 0.984 . S
H973 N969 0.985 . S
H974 N968 0.984 . S
H975 N968 0.984 . S
H976 N964 0.984 . S
H977 N964 0.985 . S
C978 C979 1.363 . S
C978 C984 1.379 . S
C978 N986 1.356 . S
C979 C978 1.363 . S
C979 C985 1.363 . S
C980 C981 1.363 . S
C980 C985 1.379 . S
C980 N987 1.356 . S
C981 C980 1.363 . S
C981 C984 1.363 . S
N982 C984 1.356 . S
N982 H994 0.984 . S
N982 H995 0.985 . S
N983 C985 1.356 . S
N983 H988 0.984 . S
N983 H989 0.985 . S
C984 C978 1.379 . S
C984 C981 1.363 . S
C984 N982 1.356 . S
C985 C979 1.363 . S
C985 C980 1.379 . S
C985 N983 1.356 . S
N986 C978 1.356 . S
N986 H992 0.984 . S
N986 H993 0.984 . S
N987 C980 1.356 . S
N987 H990 0.984 . S
N987 H991 0.985 . S
H988 N983 0.984 . S
H989 N983 0.985 . S
H990 N987 0.984 . S
H991 N987 0.985 . S
H992 N986 0.984 . S
H993 N986 0.984 . S
H994 N982 0.984 . S
H995 N982 0.985 . S
C996 C997 1.363 . S
C996 C1002 1.379 . S
C996 N1004 1.356 . S
C997 C996 1.363 . S
C997 C1003 1.363 . S
C998 C999 1.363 . S
C998 C1003 1.379 . S
C998 N1005 1.356 . S
C999 C998 1.363 . S
C999 C1002 1.363 . S
N1000 C1002 1.356 . S
N1000 H1012 0.984 . S
N1000 H1013 0.985 . S
N1001 C1003 1.356 . S
N1001 H1006 0.984 . S
N1001 H1007 0.985 . S
C1002 C996 1.379 . S
C1002 C999 1.363 . S
C1002 N1000 1.356 . S
C1003 C997 1.363 . S
C1003 C998 1.379 . S
C1003 N1001 1.356 . S
N1004 C996 1.356 . S
N1004 H1010 0.984 . S
N1004 H1011 0.984 . S
N1005 C998 1.356 . S
N1005 H1008 0.984 . S
N1005 H1009 0.985 . S
H1006 N1001 0.984 . S
H1007 N1001 0.985 . S
H1008 N1005 0.984 . S
H1009 N1005 0.985 . S
H1010 N1004 0.984 . S
H1011 N1004 0.984 . S
H1012 N1000 0.984 . S
H1013 N1000 0.985 . S
C1014 C1015 1.363 1_455 S
C1014 C1020 1.379 . S
C1014 N1022 1.356 1_455 S
C1015 C1014 1.363 1_655 S
C1015 C1021 1.363 1_655 S
C1016 C1017 1.363 . S
C1016 C1021 1.379 . S
C1016 N1023 1.356 . S
C1017 C1016 1.363 . S
C1017 C1020 1.363 . S
N1018 C1020 1.356 . S
N1018 H1030 0.984 . S
N1018 H1031 0.985 . S
N1019 C1021 1.356 . S
N1019 H1024 0.984 1_455 S
N1019 H1025 0.985 . S
C1020 C1014 1.379 . S
C1020 C1017 1.363 . S
C1020 N1018 1.356 . S
C1021 C1015 1.363 1_455 S
C1021 C1016 1.379 . S
C1021 N1019 1.356 . S
N1022 C1014 1.356 1_655 S
N1022 H1028 0.984 . S
N1022 H1029 0.984 . S
N1023 C1016 1.356 . S
N1023 H1026 0.984 . S
N1023 H1027 0.985 . S
H1024 N1019 0.984 1_655 S
H1025 N1019 0.985 . S
H1026 N1023 0.984 . S
H1027 N1023 0.985 . S
H1028 N1022 0.984 . S
H1029 N1022 0.984 . S
H1030 N1018 0.984 . S
H1031 N1018 0.985 . S
C1032 C1033 1.363 . S
C1032 C1038 1.379 . S
C1032 N1040 1.356 . S
C1033 C1032 1.363 . S
C1033 C1039 1.363 . S
C1034 C1035 1.363 . S
C1034 C1039 1.379 . S
C1034 N1041 1.356 . S
C1035 C1034 1.363 . S
C1035 C1038 1.363 . S
N1036 C1038 1.356 . S
N1036 H1048 0.984 . S
N1036 H1049 0.985 . S
N1037 C1039 1.356 . S
N1037 H1042 0.984 . S
N1037 H1043 0.985 . S
C1038 C1032 1.379 . S
C1038 C1035 1.363 . S
C1038 N1036 1.356 . S
C1039 C1033 1.363 . S
C1039 C1034 1.379 . S
C1039 N1037 1.356 . S
N1040 C1032 1.356 . S
N1040 H1046 0.984 . S
N1040 H1047 0.984 . S
N1041 C1034 1.356 . S
N1041 H1044 0.984 . S
N1041 H1045 0.985 . S
H1042 N1037 0.984 . S
H1043 N1037 0.985 . S
H1044 N1041 0.984 . S
H1045 N1041 0.985 . S
H1046 N1040 0.984 . S
H1047 N1040 0.984 . S
H1048 N1036 0.984 . S
H1049 N1036 0.985 . S
C1050 C1051 1.363 . S
C1050 C1056 1.379 . S
C1050 N1058 1.356 . S
C1051 C1050 1.363 . S
C1051 C1057 1.363 . S
C1052 C1053 1.363 1_455 S
C1052 C1057 1.379 . S
C1052 N1059 1.356 . S
C1053 C1052 1.363 1_655 S
C1053 C1056 1.363 1_655 S
N1054 C1056 1.356 1_655 S
N1054 H1066 0.984 . S
N1054 H1067 0.985 . S
N1055 C1057 1.356 . S
N1055 H1060 0.984 . S
N1055 H1061 0.985 . S
C1056 C1050 1.379 . S
C1056 C1053 1.363 1_455 S
C1056 N1054 1.356 1_455 S
C1057 C1051 1.363 . S
C1057 C1052 1.379 . S
C1057 N1055 1.356 . S
N1058 C1050 1.356 . S
N1058 H1064 0.984 . S
N1058 H1065 0.984 . S
N1059 C1052 1.356 . S
N1059 H1062 0.984 1_455 S
N1059 H1063 0.985 . S
H1060 N1055 0.984 . S
H1061 N1055 0.985 . S
H1062 N1059 0.984 1_655 S
H1063 N1059 0.985 . S
H1064 N1058 0.984 . S
H1065 N1058 0.984 . S
H1066 N1054 0.984 . S
H1067 N1054 0.985 . S
C1068 C1069 1.363 . S
C1068 C1074 1.379 . S
C1068 N1076 1.356 . S
C1069 C1068 1.363 . S
C1069 C1075 1.363 . S
C1070 C1071 1.363 . S
C1070 C1075 1.379 . S
C1070 N1077 1.356 . S
C1071 C1070 1.363 . S
C1071 C1074 1.363 . S
N1072 C1074 1.356 . S
N1072 H1084 0.984 . S
N1072 H1085 0.985 . S
N1073 C1075 1.356 . S
N1073 H1078 0.984 . S
N1073 H1079 0.985 . S
C1074 C1068 1.379 . S
C1074 C1071 1.363 . S
C1074 N1072 1.356 . S
C1075 C1069 1.363 . S
C1075 C1070 1.379 . S
C1075 N1073 1.356 . S
N1076 C1068 1.356 . S
N1076 H1082 0.984 . S
N1076 H1083 0.984 . S
N1077 C1070 1.356 . S
N1077 H1080 0.984 . S
N1077 H1081 0.985 . S
H1078 N1073 0.984 . S
H1079 N1073 0.985 . S
H1080 N1077 0.984 . S
H1081 N1077 0.985 . S
H1082 N1076 0.984 . S
H1083 N1076 0.984 . S
H1084 N1072 0.984 . S
H1085 N1072 0.985 . S
C1086 C1087 1.363 . S
C1086 C1092 1.379 . S
C1086 N1094 1.356 . S
C1087 C1086 1.363 . S
C1087 C1093 1.363 . S
C1088 C1089 1.363 . S
C1088 C1093 1.379 . S
C1088 N1095 1.356 . S
C1089 C1088 1.363 . S
C1089 C1092 1.363 . S
N1090 C1092 1.356 . S
N1090 H1102 0.984 . S
N1090 H1103 0.985 . S
N1091 C1093 1.356 . S
N1091 H1096 0.984 . S
N1091 H1097 0.985 . S
C1092 C1086 1.379 . S
C1092 C1089 1.363 . S
C1092 N1090 1.356 . S
C1093 C1087 1.363 . S
C1093 C1088 1.379 . S
C1093 N1091 1.356 . S
N1094 C1086 1.356 . S
N1094 H1100 0.984 . S
N1094 H1101 0.984 . S
N1095 C1088 1.356 . S
N1095 H1098 0.984 . S
N1095 H1099 0.985 . S
H1096 N1091 0.984 . S
H1097 N1091 0.985 . S
H1098 N1095 0.984 . S
H1099 N1095 0.985 . S
H1100 N1094 0.984 . S
H1101 N1094 0.984 . S
H1102 N1090 0.984 . S
H1103 N1090 0.985 . S
C1104 C1105 1.363 . S
C1104 C1110 1.379 . S
C1104 N1112 1.356 . S
C1105 C1104 1.363 . S
C1105 C1111 1.363 . S
C1106 C1107 1.363 . S
C1106 C1111 1.379 . S
C1106 N1113 1.356 . S
C1107 C1106 1.363 . S
C1107 C1110 1.363 . S
N1108 C1110 1.356 . S
N1108 H1120 0.984 . S
N1108 H1121 0.985 . S
N1109 C1111 1.356 . S
N1109 H1114 0.984 . S
N1109 H1115 0.985 . S
C1110 C1104 1.379 . S
C1110 C1107 1.363 . S
C1110 N1108 1.356 . S
C1111 C1105 1.363 . S
C1111 C1106 1.379 . S
C1111 N1109 1.356 . S
N1112 C1104 1.356 . S
N1112 H1118 0.984 . S
N1112 H1119 0.984 . S
N1113 C1106 1.356 . S
N1113 H1116 0.984 . S
N1113 H1117 0.985 . S
H1114 N1109 0.984 . S
H1115 N1109 0.985 . S
H1116 N1113 0.984 . S
H1117 N1113 0.985 . S
H1118 N1112 0.984 . S
H1119 N1112 0.984 . S
H1120 N1108 0.984 . S
H1121 N1108 0.985 . S
C1122 C1123 1.363 . S
C1122 C1128 1.379 . S
C1122 N1130 1.356 . S
C1123 C1122 1.363 . S
C1123 C1129 1.363 . S
C1124 C1125 1.363 . S
C1124 C1129 1.379 . S
C1124 N1131 1.356 . S
C1125 C1124 1.363 . S
C1125 C1128 1.363 . S
N1126 C1128 1.356 . S
N1126 H1138 0.984 . S
N1126 H1139 0.985 . S
N1127 C1129 1.356 . S
N1127 H1132 0.984 . S
N1127 H1133 0.985 . S
C1128 C1122 1.379 . S
C1128 C1125 1.363 . S
C1128 N1126 1.356 . S
C1129 C1123 1.363 . S
C1129 C1124 1.379 . S
C1129 N1127 1.356 . S
N1130 C1122 1.356 . S
N1130 H1136 0.984 . S
N1130 H1137 0.984 . S
N1131 C1124 1.356 . S
N1131 H1134 0.984 . S
N1131 H1135 0.985 . S
H1132 N1127 0.984 . S
H1133 N1127 0.985 . S
H1134 N1131 0.984 . S
H1135 N1131 0.985 . S
H1136 N1130 0.984 . S
H1137 N1130 0.984 . S
H1138 N1126 0.984 . S
H1139 N1126 0.985 . S
C1140 C1141 1.363 . S
C1140 C1146 1.379 . S
C1140 N1148 1.356 . S
C1141 C1140 1.363 . S
C1141 C1147 1.363 . S
C1142 C1143 1.363 . S
C1142 C1147 1.379 . S
C1142 N1149 1.356 . S
C1143 C1142 1.363 . S
C1143 C1146 1.363 . S
N1144 C1146 1.356 . S
N1144 H1156 0.984 . S
N1144 H1157 0.985 . S
N1145 C1147 1.356 . S
N1145 H1150 0.984 . S
N1145 H1151 0.985 . S
C1146 C1140 1.379 . S
C1146 C1143 1.363 . S
C1146 N1144 1.356 . S
C1147 C1141 1.363 . S
C1147 C1142 1.379 . S
C1147 N1145 1.356 . S
N1148 C1140 1.356 . S
N1148 H1154 0.984 . S
N1148 H1155 0.984 . S
N1149 C1142 1.356 . S
N1149 H1152 0.984 . S
N1149 H1153 0.985 . S
H1150 N1145 0.984 . S
H1151 N1145 0.985 . S
H1152 N1149 0.984 . S
H1153 N1149 0.985 . S
H1154 N1148 0.984 . S
H1155 N1148 0.984 . S
H1156 N1144 0.984 . S
H1157 N1144 0.985 . S
C1158 C1159 1.362 1_655 S
C1158 C1164 1.393 . S
C1158 N1166 1.341 1_655 S
C1159 C1158 1.362 1_455 S
C1159 C1165 1.363 1_455 S
C1160 C1161 1.363 . S
C1160 C1165 1.379 . S
C1160 N1167 1.356 . S
C1161 C1160 1.363 . S
C1161 C1164 1.363 . S
N1162 C1164 1.356 . S
N1162 H1174 0.984 . S
N1162 H1175 0.985 . S
N1163 C1165 1.356 . S
N1163 H1168 0.984 1_655 S
N1163 H1169 0.985 . S
C1164 C1158 1.393 . S
C1164 C1161 1.363 . S
C1164 N1162 1.356 . S
C1165 C1159 1.363 1_655 S
C1165 C1160 1.379 . S
C1165 N1163 1.356 . S
N1166 C1158 1.341 1_455 S
N1166 H1172 0.984 . S
N1166 H1173 0.984 . S
N1167 C1160 1.356 . S
N1167 H1170 0.984 . S
N1167 H1171 0.985 . S
H1168 N1163 0.984 1_455 S
H1169 N1163 0.985 . S
H1170 N1167 0.984 . S
H1171 N1167 0.985 . S
H1172 N1166 0.984 . S
H1173 N1166 0.984 . S
H1174 N1162 0.984 . S
H1175 N1162 0.985 . S
C1176 C1177 1.363 . S
C1176 C1182 1.379 . S
C1176 N1184 1.356 . S
C1177 C1176 1.363 . S
C1177 C1183 1.363 . S
C1178 C1179 1.363 . S
C1178 C1183 1.379 . S
C1178 N1185 1.356 . S
C1179 C1178 1.363 . S
C1179 C1182 1.363 . S
N1180 C1182 1.356 . S
N1180 H1192 0.984 . S
N1180 H1193 0.985 . S
N1181 C1183 1.356 . S
N1181 H1186 0.984 . S
N1181 H1187 0.985 . S
C1182 C1176 1.379 . S
C1182 C1179 1.363 . S
C1182 N1180 1.356 . S
C1183 C1177 1.363 . S
C1183 C1178 1.379 . S
C1183 N1181 1.356 . S
N1184 C1176 1.356 . S
N1184 H1190 0.984 . S
N1184 H1191 0.984 . S
N1185 C1178 1.356 . S
N1185 H1188 0.984 . S
N1185 H1189 0.985 . S
H1186 N1181 0.984 . S
H1187 N1181 0.985 . S
H1188 N1185 0.984 . S
H1189 N1185 0.985 . S
H1190 N1184 0.984 . S
H1191 N1184 0.984 . S
H1192 N1180 0.984 . S
H1193 N1180 0.985 . S
C1194 C1195 1.363 . S
C1194 C1200 1.379 . S
C1194 N1202 1.356 . S
C1195 C1194 1.363 . S
C1195 C1201 1.363 . S
C1196 C1197 1.363 . S
C1196 C1201 1.379 1_455 S
C1196 N1203 1.356 . S
C1197 C1196 1.363 . S
C1197 C1200 1.363 1_455 S
N1198 C1200 1.356 . S
N1198 H1210 0.984 . S
N1198 H1211 0.985 . S
N1199 C1201 1.356 . S
N1199 H1204 0.984 . S
N1199 H1205 0.985 . S
C1200 C1194 1.379 . S
C1200 C1197 1.363 1_655 S
C1200 N1198 1.356 . S
C1201 C1195 1.363 . S
C1201 C1196 1.379 1_655 S
C1201 N1199 1.356 . S
N1202 C1194 1.356 . S
N1202 H1208 0.984 . S
N1202 H1209 0.984 . S
N1203 C1196 1.356 . S
N1203 H1206 0.984 . S
N1203 H1207 0.985 . S
H1204 N1199 0.984 . S
H1205 N1199 0.985 . S
H1206 N1203 0.984 . S
H1207 N1203 0.985 . S
H1208 N1202 0.984 . S
H1209 N1202 0.984 . S
H1210 N1198 0.984 . S
H1211 N1198 0.985 . S
C1212 C1213 1.363 . S
C1212 C1218 1.379 . S
C1212 N1220 1.356 . S
C1213 C1212 1.363 . S
C1213 C1219 1.363 . S
C1214 C1215 1.363 . S
C1214 C1219 1.379 . S
C1214 N1221 1.356 . S
C1215 C1214 1.363 . S
C1215 C1218 1.363 . S
N1216 C1218 1.356 . S
N1216 H1228 0.984 . S
N1216 H1229 0.985 . S
N1217 C1219 1.356 . S
N1217 H1222 0.984 . S
N1217 H1223 0.985 . S
C1218 C1212 1.379 . S
C1218 C1215 1.363 . S
C1218 N1216 1.356 . S
C1219 C1213 1.363 . S
C1219 C1214 1.379 . S
C1219 N1217 1.356 . S
N1220 C1212 1.356 . S
N1220 H1226 0.984 . S
N1220 H1227 0.984 . S
N1221 C1214 1.356 . S
N1221 H1224 0.984 . S
N1221 H1225 0.985 . S
H1222 N1217 0.984 . S
H1223 N1217 0.985 . S
H1224 N1221 0.984 . S
H1225 N1221 0.985 . S
H1226 N1220 0.984 . S
H1227 N1220 0.984 . S
H1228 N1216 0.984 . S
H1229 N1216 0.985 . S
C1230 C1231 1.363 . S
C1230 C1236 1.379 . S
C1230 N1238 1.356 . S
C1231 C1230 1.363 . S
C1231 C1237 1.363 . S
C1232 C1233 1.363 . S
C1232 C1237 1.379 . S
C1232 N1239 1.356 . S
C1233 C1232 1.363 . S
C1233 C1236 1.363 . S
N1234 C1236 1.356 . S
N1234 H1246 0.984 . S
N1234 H1247 0.985 . S
N1235 C1237 1.356 . S
N1235 H1240 0.984 . S
N1235 H1241 0.985 . S
C1236 C1230 1.379 . S
C1236 C1233 1.363 . S
C1236 N1234 1.356 . S
C1237 C1231 1.363 . S
C1237 C1232 1.379 . S
C1237 N1235 1.356 . S
N1238 C1230 1.356 . S
N1238 H1244 0.984 . S
N1238 H1245 0.984 . S
N1239 C1232 1.356 . S
N1239 H1242 0.984 . S
N1239 H1243 0.985 . S
H1240 N1235 0.984 . S
H1241 N1235 0.985 . S
H1242 N1239 0.984 . S
H1243 N1239 0.985 . S
H1244 N1238 0.984 . S
H1245 N1238 0.984 . S
H1246 N1234 0.984 . S
H1247 N1234 0.985 . S
C1248 C1249 1.363 . S
C1248 C1254 1.379 1_455 S
C1248 N1256 1.356 . S
C1249 C1248 1.363 . S
C1249 C1255 1.363 . S
C1250 C1251 1.363 . S
C1250 C1255 1.379 1_655 S
C1250 N1257 1.356 . S
C1251 C1250 1.363 . S
C1251 C1254 1.363 . S
N1252 C1254 1.356 . S
N1252 H1264 0.984 . S
N1252 H1265 0.985 . S
N1253 C1255 1.356 . S
N1253 H1258 0.984 . S
N1253 H1259 0.985 . S
C1254 C1248 1.379 1_655 S
C1254 C1251 1.363 . S
C1254 N1252 1.356 . S
C1255 C1249 1.363 . S
C1255 C1250 1.379 1_455 S
C1255 N1253 1.356 . S
N1256 C1248 1.356 . S
N1256 H1262 0.984 . S
N1256 H1263 0.984 . S
N1257 C1250 1.356 . S
N1257 H1260 0.984 . S
N1257 H1261 0.985 . S
H1258 N1253 0.984 . S
H1259 N1253 0.985 . S
H1260 N1257 0.984 . S
H1261 N1257 0.985 . S
H1262 N1256 0.984 . S
H1263 N1256 0.984 . S
H1264 N1252 0.984 . S
H1265 N1252 0.985 . S
C1266 C1267 1.363 . S
C1266 C1272 1.379 . S
C1266 N1274 1.356 . S
C1267 C1266 1.363 . S
C1267 C1273 1.363 1_655 S
C1268 C1269 1.363 . S
C1268 C1273 1.379 . S
C1268 N1275 1.356 . S
C1269 C1268 1.363 . S
C1269 C1272 1.363 1_455 S
N1270 C1272 1.356 . S
N1270 H1282 0.984 . S
N1270 H1283 0.985 1_655 S
N1271 C1273 1.356 . S
N1271 H1276 0.984 1_455 S
N1271 H1277 0.985 . S
C1272 C1266 1.379 . S
C1272 C1269 1.363 1_655 S
C1272 N1270 1.356 . S
C1273 C1267 1.363 1_455 S
C1273 C1268 1.379 . S
C1273 N1271 1.356 . S
N1274 C1266 1.356 . S
N1274 H1280 0.984 . S
N1274 H1281 0.984 . S
N1275 C1268 1.356 . S
N1275 H1278 0.984 . S
N1275 H1279 0.985 . S
H1276 N1271 0.984 1_655 S
H1277 N1271 0.985 . S
H1278 N1275 0.984 . S
H1279 N1275 0.985 . S
H1280 N1274 0.984 . S
H1281 N1274 0.984 . S
H1282 N1270 0.984 . S
H1283 N1270 0.985 1_455 S
C1284 C1285 1.363 . S
C1284 C1290 1.379 . S
C1284 N1292 1.356 . S
C1285 C1284 1.363 . S
C1285 C1291 1.363 . S
C1286 C1287 1.363 . S
C1286 C1291 1.379 . S
C1286 N1293 1.356 . S
C1287 C1286 1.363 . S
C1287 C1290 1.363 . S
N1288 C1290 1.356 . S
N1288 H1300 0.984 . S
N1288 H1301 0.985 . S
N1289 C1291 1.356 . S
N1289 H1294 0.984 . S
N1289 H1295 0.985 . S
C1290 C1284 1.379 . S
C1290 C1287 1.363 . S
C1290 N1288 1.356 . S
C1291 C1285 1.363 . S
C1291 C1286 1.379 . S
C1291 N1289 1.356 . S
N1292 C1284 1.356 . S
N1292 H1298 0.984 . S
N1292 H1299 0.984 . S
N1293 C1286 1.356 . S
N1293 H1296 0.984 . S
N1293 H1297 0.985 . S
H1294 N1289 0.984 . S
H1295 N1289 0.985 . S
H1296 N1293 0.984 . S
H1297 N1293 0.985 . S
H1298 N1292 0.984 . S
H1299 N1292 0.984 . S
H1300 N1288 0.984 . S
H1301 N1288 0.985 . S
C1302 C1303 1.363 . S
C1302 C1308 1.379 . S
C1302 N1310 1.356 . S
C1303 C1302 1.363 . S
C1303 C1309 1.363 . S
C1304 C1305 1.363 . S
C1304 C1309 1.379 . S
C1304 N1311 1.356 . S
C1305 C1304 1.363 . S
C1305 C1308 1.363 . S
N1306 C1308 1.356 . S
N1306 H1318 0.984 . S
N1306 H1319 0.985 . S
N1307 C1309 1.356 . S
N1307 H1312 0.984 . S
N1307 H1313 0.985 . S
C1308 C1302 1.379 . S
C1308 C1305 1.363 . S
C1308 N1306 1.356 . S
C1309 C1303 1.363 . S
C1309 C1304 1.379 . S
C1309 N1307 1.356 . S
N1310 C1302 1.356 . S
N1310 H1316 0.984 . S
N1310 H1317 0.984 . S
N1311 C1304 1.356 . S
N1311 H1314 0.984 . S
N1311 H1315 0.985 . S
H1312 N1307 0.984 . S
H1313 N1307 0.985 . S
H1314 N1311 0.984 . S
H1315 N1311 0.985 . S
H1316 N1310 0.984 . S
H1317 N1310 0.984 . S
H1318 N1306 0.984 . S
H1319 N1306 0.985 . S
C1320 C1321 1.363 . S
C1320 C1326 1.379 1_655 S
C1320 N1328 1.356 . S
C1321 C1320 1.363 . S
C1321 C1327 1.363 . S
C1322 C1323 1.363 . S
C1322 C1327 1.379 1_455 S
C1322 N1329 1.356 . S
C1323 C1322 1.363 . S
C1323 C1326 1.363 . S
N1324 C1326 1.356 . S
N1324 H1336 0.984 . S
N1324 H1337 0.985 . S
N1325 C1327 1.356 . S
N1325 H1330 0.984 . S
N1325 H1331 0.985 . S
C1326 C1320 1.379 1_455 S
C1326 C1323 1.363 . S
C1326 N1324 1.356 . S
C1327 C1321 1.363 . S
C1327 C1322 1.379 1_655 S
C1327 N1325 1.356 . S
N1328 C1320 1.356 . S
N1328 H1334 0.984 . S
N1328 H1335 0.984 . S
N1329 C1322 1.356 . S
N1329 H1332 0.984 . S
N1329 H1333 0.985 . S
H1330 N1325 0.984 . S
H1331 N1325 0.985 . S
H1332 N1329 0.984 . S
H1333 N1329 0.985 . S
H1334 N1328 0.984 . S
H1335 N1328 0.984 . S
H1336 N1324 0.984 . S
H1337 N1324 0.985 . S
C1338 C1339 1.363 . S
C1338 C1344 1.379 . S
C1338 N1346 1.356 . S
C1339 C1338 1.363 . S
C1339 C1345 1.363 . S
C1340 C1341 1.363 . S
C1340 C1345 1.379 . S
C1340 N1347 1.356 . S
C1341 C1340 1.363 . S
C1341 C1344 1.363 . S
N1342 C1344 1.356 . S
N1342 H1354 0.984 . S
N1342 H1355 0.985 . S
N1343 C1345 1.356 . S
N1343 H1348 0.984 . S
N1343 H1349 0.985 . S
C1344 C1338 1.379 . S
C1344 C1341 1.363 . S
C1344 N1342 1.356 . S
C1345 C1339 1.363 . S
C1345 C1340 1.379 . S
C1345 N1343 1.356 . S
N1346 C1338 1.356 . S
N1346 H1352 0.984 . S
N1346 H1353 0.984 . S
N1347 C1340 1.356 . S
N1347 H1350 0.984 . S
N1347 H1351 0.985 . S
H1348 N1343 0.984 . S
H1349 N1343 0.985 . S
H1350 N1347 0.984 . S
H1351 N1347 0.985 . S
H1352 N1346 0.984 . S
H1353 N1346 0.984 . S
H1354 N1342 0.984 . S
H1355 N1342 0.985 . S
C1356 C1357 1.363 . S
C1356 C1362 1.379 . S
C1356 N1364 1.356 . S
C1357 C1356 1.363 . S
C1357 C1363 1.363 . S
C1358 C1359 1.363 . S
C1358 C1363 1.379 . S
C1358 N1365 1.356 . S
C1359 C1358 1.363 . S
C1359 C1362 1.363 . S
N1360 C1362 1.356 . S
N1360 H1372 0.984 . S
N1360 H1373 0.985 . S
N1361 C1363 1.356 . S
N1361 H1366 0.984 . S
N1361 H1367 0.985 . S
C1362 C1356 1.379 . S
C1362 C1359 1.363 . S
C1362 N1360 1.356 . S
C1363 C1357 1.363 . S
C1363 C1358 1.379 . S
C1363 N1361 1.356 . S
N1364 C1356 1.356 . S
N1364 H1370 0.984 . S
N1364 H1371 0.984 . S
N1365 C1358 1.356 . S
N1365 H1368 0.984 . S
N1365 H1369 0.985 . S
H1366 N1361 0.984 . S
H1367 N1361 0.985 . S
H1368 N1365 0.984 . S
H1369 N1365 0.985 . S
H1370 N1364 0.984 . S
H1371 N1364 0.984 . S
H1372 N1360 0.984 . S
H1373 N1360 0.985 . S
C1374 C1375 1.363 1_655 S
C1374 C1380 1.379 . S
C1374 N1382 1.356 . S
C1375 C1374 1.363 1_455 S
C1375 C1381 1.363 . S
C1376 C1377 1.363 1_455 S
C1376 C1381 1.379 . S
C1376 N1383 1.356 . S
C1377 C1376 1.363 1_655 S
C1377 C1380 1.363 . S
N1378 C1380 1.356 . S
N1378 H1390 0.984 . S
N1378 H1391 0.985 . S
N1379 C1381 1.356 . S
N1379 H1384 0.984 . S
N1379 H1385 0.985 . S
C1380 C1374 1.379 . S
C1380 C1377 1.363 . S
C1380 N1378 1.356 . S
C1381 C1375 1.363 . S
C1381 C1376 1.379 . S
C1381 N1379 1.356 . S
N1382 C1374 1.356 . S
N1382 H1388 0.984 . S
N1382 H1389 0.984 1_655 S
N1383 C1376 1.356 . S
N1383 H1386 0.984 1_455 S
N1383 H1387 0.985 . S
H1384 N1379 0.984 . S
H1385 N1379 0.985 . S
H1386 N1383 0.984 1_655 S
H1387 N1383 0.985 . S
H1388 N1382 0.984 . S
H1389 N1382 0.984 1_455 S
H1390 N1378 0.984 . S
H1391 N1378 0.985 . S
C1392 C1393 1.363 . S
C1392 C1398 1.379 1_455 S
C1392 N1400 1.356 . S
C1393 C1392 1.363 . S
C1393 C1399 1.363 . S
C1394 C1395 1.363 . S
C1394 C1399 1.379 1_655 S
C1394 N1401 1.356 . S
C1395 C1394 1.363 . S
C1395 C1398 1.363 . S
N1396 C1398 1.356 . S
N1396 H1408 0.984 . S
N1396 H1409 0.985 . S
N1397 C1399 1.356 . S
N1397 H1402 0.984 . S
N1397 H1403 0.985 . S
C1398 C1392 1.379 1_655 S
C1398 C1395 1.363 . S
C1398 N1396 1.356 . S
C1399 C1393 1.363 . S
C1399 C1394 1.379 1_455 S
C1399 N1397 1.356 . S
N1400 C1392 1.356 . S
N1400 H1406 0.984 . S
N1400 H1407 0.984 . S
N1401 C1394 1.356 . S
N1401 H1404 0.984 . S
N1401 H1405 0.985 . S
H1402 N1397 0.984 . S
H1403 N1397 0.985 . S
H1404 N1401 0.984 . S
H1405 N1401 0.985 . S
H1406 N1400 0.984 . S
H1407 N1400 0.984 . S
H1408 N1396 0.984 . S
H1409 N1396 0.985 . S
C1410 C1411 1.363 . S
C1410 C1416 1.379 . S
C1410 N1418 1.356 . S
C1411 C1410 1.363 . S
C1411 C1417 1.363 1_655 S
C1412 C1413 1.363 . S
C1412 C1417 1.379 . S
C1412 N1419 1.356 . S
C1413 C1412 1.363 . S
C1413 C1416 1.363 1_455 S
N1414 C1416 1.356 . S
N1414 H1426 0.984 . S
N1414 H1427 0.985 1_655 S
N1415 C1417 1.356 . S
N1415 H1420 0.984 1_455 S
N1415 H1421 0.985 . S
C1416 C1410 1.379 . S
C1416 C1413 1.363 1_655 S
C1416 N1414 1.356 . S
C1417 C1411 1.363 1_455 S
C1417 C1412 1.379 . S
C1417 N1415 1.356 . S
N1418 C1410 1.356 . S
N1418 H1424 0.984 . S
N1418 H1425 0.984 . S
N1419 C1412 1.356 . S
N1419 H1422 0.984 . S
N1419 H1423 0.985 . S
H1420 N1415 0.984 1_655 S
H1421 N1415 0.985 . S
H1422 N1419 0.984 . S
H1423 N1419 0.985 . S
H1424 N1418 0.984 . S
H1425 N1418 0.984 . S
H1426 N1414 0.984 . S
H1427 N1414 0.985 1_455 S
C1428 C1429 1.363 . S
C1428 C1434 1.379 . S
C1428 N1436 1.356 . S
C1429 C1428 1.363 . S
C1429 C1435 1.363 . S
C1430 C1431 1.363 . S
C1430 C1435 1.379 . S
C1430 N1437 1.356 . S
C1431 C1430 1.363 . S
C1431 C1434 1.363 . S
N1432 C1434 1.356 . S
N1432 H1444 0.984 . S
N1432 H1445 0.985 . S
N1433 C1435 1.356 . S
N1433 H1438 0.984 . S
N1433 H1439 0.985 . S
C1434 C1428 1.379 . S
C1434 C1431 1.363 . S
C1434 N1432 1.356 . S
C1435 C1429 1.363 . S
C1435 C1430 1.379 . S
C1435 N1433 1.356 . S
N1436 C1428 1.356 . S
N1436 H1442 0.984 . S
N1436 H1443 0.984 . S
N1437 C1430 1.356 . S
N1437 H1440 0.984 . S
N1437 H1441 0.985 . S
H1438 N1433 0.984 . S
H1439 N1433 0.985 . S
H1440 N1437 0.984 . S
H1441 N1437 0.985 . S
H1442 N1436 0.984 . S
H1443 N1436 0.984 . S
H1444 N1432 0.984 . S
H1445 N1432 0.985 . S
C1446 C1447 1.363 . S
C1446 C1452 1.379 . S
C1446 N1454 1.356 . S
C1447 C1446 1.363 . S
C1447 C1453 1.363 . S
C1448 C1449 1.363 . S
C1448 C1453 1.379 . S
C1448 N1455 1.356 . S
C1449 C1448 1.363 . S
C1449 C1452 1.363 . S
N1450 C1452 1.356 . S
N1450 H1462 0.984 . S
N1450 H1463 0.985 . S
N1451 C1453 1.356 . S
N1451 H1456 0.984 . S
N1451 H1457 0.985 . S
C1452 C1446 1.379 . S
C1452 C1449 1.363 . S
C1452 N1450 1.356 . S
C1453 C1447 1.363 . S
C1453 C1448 1.379 . S
C1453 N1451 1.356 . S
N1454 C1446 1.356 . S
N1454 H1460 0.984 . S
N1454 H1461 0.984 . S
N1455 C1448 1.356 . S
N1455 H1458 0.984 . S
N1455 H1459 0.985 . S
H1456 N1451 0.984 . S
H1457 N1451 0.985 . S
H1458 N1455 0.984 . S
H1459 N1455 0.985 . S
H1460 N1454 0.984 . S
H1461 N1454 0.984 . S
H1462 N1450 0.984 . S
H1463 N1450 0.985 . S
C1464 C1465 1.363 . S
C1464 C1470 1.379 1_455 S
C1464 N1472 1.356 . S
C1465 C1464 1.363 . S
C1465 C1471 1.363 . S
C1466 C1467 1.363 . S
C1466 C1471 1.379 1_655 S
C1466 N1473 1.356 . S
C1467 C1466 1.363 . S
C1467 C1470 1.363 . S
N1468 C1470 1.356 . S
N1468 H1480 0.984 . S
N1468 H1481 0.985 . S
N1469 C1471 1.356 . S
N1469 H1474 0.984 . S
N1469 H1475 0.985 . S
C1470 C1464 1.379 1_655 S
C1470 C1467 1.363 . S
C1470 N1468 1.356 . S
C1471 C1465 1.363 . S
C1471 C1466 1.379 1_455 S
C1471 N1469 1.356 . S
N1472 C1464 1.356 . S
N1472 H1478 0.984 . S
N1472 H1479 0.984 . S
N1473 C1466 1.356 . S
N1473 H1476 0.984 . S
N1473 H1477 0.985 . S
H1474 N1469 0.984 . S
H1475 N1469 0.985 . S
H1476 N1473 0.984 . S
H1477 N1473 0.985 . S
H1478 N1472 0.984 . S
H1479 N1472 0.984 . S
H1480 N1468 0.984 . S
H1481 N1468 0.985 . S
C1482 C1483 1.363 . S
C1482 C1488 1.379 . S
C1482 N1490 1.356 . S
C1483 C1482 1.363 . S
C1483 C1489 1.363 . S
C1484 C1485 1.363 . S
C1484 C1489 1.379 . S
C1484 N1491 1.356 . S
C1485 C1484 1.363 . S
C1485 C1488 1.363 . S
N1486 C1488 1.356 . S
N1486 H1498 0.984 . S
N1486 H1499 0.985 . S
N1487 C1489 1.356 . S
N1487 H1492 0.984 . S
N1487 H1493 0.985 . S
C1488 C1482 1.379 . S
C1488 C1485 1.363 . S
C1488 N1486 1.356 . S
C1489 C1483 1.363 . S
C1489 C1484 1.379 . S
C1489 N1487 1.356 . S
N1490 C1482 1.356 . S
N1490 H1496 0.984 . S
N1490 H1497 0.984 . S
N1491 C1484 1.356 . S
N1491 H1494 0.984 . S
N1491 H1495 0.985 . S
H1492 N1487 0.984 . S
H1493 N1487 0.985 . S
H1494 N1491 0.984 . S
H1495 N1491 0.985 . S
H1496 N1490 0.984 . S
H1497 N1490 0.984 . S
H1498 N1486 0.984 . S
H1499 N1486 0.985 . S
C1500 C1501 1.363 . S
C1500 C1506 1.379 . S
C1500 N1508 1.356 . S
C1501 C1500 1.363 . S
C1501 C1507 1.363 . S
C1502 C1503 1.363 . S
C1502 C1507 1.379 . S
C1502 N1509 1.356 . S
C1503 C1502 1.363 . S
C1503 C1506 1.363 . S
N1504 C1506 1.356 . S
N1504 H1516 0.984 . S
N1504 H1517 0.985 . S
N1505 C1507 1.356 . S
N1505 H1510 0.984 . S
N1505 H1511 0.985 . S
C1506 C1500 1.379 . S
C1506 C1503 1.363 . S
C1506 N1504 1.356 . S
C1507 C1501 1.363 . S
C1507 C1502 1.379 . S
C1507 N1505 1.356 . S
N1508 C1500 1.356 . S
N1508 H1514 0.984 . S
N1508 H1515 0.984 . S
N1509 C1502 1.356 . S
N1509 H1512 0.984 . S
N1509 H1513 0.985 . S
H1510 N1505 0.984 . S
H1511 N1505 0.985 . S
H1512 N1509 0.984 . S
H1513 N1509 0.985 . S
H1514 N1508 0.984 . S
H1515 N1508 0.984 . S
H1516 N1504 0.984 . S
H1517 N1504 0.985 . S
C1518 C1519 1.363 . S
C1518 C1524 1.379 . S
C1518 N1526 1.356 . S
C1519 C1518 1.363 . S
C1519 C1525 1.363 1_655 S
C1520 C1521 1.363 . S
C1520 C1525 1.379 . S
C1520 N1527 1.356 . S
C1521 C1520 1.363 . S
C1521 C1524 1.363 1_455 S
N1522 C1524 1.356 . S
N1522 H1534 0.984 . S
N1522 H1535 0.985 1_655 S
N1523 C1525 1.356 . S
N1523 H1528 0.984 1_455 S
N1523 H1529 0.985 . S
C1524 C1518 1.379 . S
C1524 C1521 1.363 1_655 S
C1524 N1522 1.356 . S
C1525 C1519 1.363 1_455 S
C1525 C1520 1.379 . S
C1525 N1523 1.356 . S
N1526 C1518 1.356 . S
N1526 H1532 0.984 . S
N1526 H1533 0.984 . S
N1527 C1520 1.356 . S
N1527 H1530 0.984 . S
N1527 H1531 0.985 . S
H1528 N1523 0.984 1_655 S
H1529 N1523 0.985 . S
H1530 N1527 0.984 . S
H1531 N1527 0.985 . S
H1532 N1526 0.984 . S
H1533 N1526 0.984 . S
H1534 N1522 0.984 . S
H1535 N1522 0.985 1_455 S
C1536 C1537 1.363 . S
C1536 C1542 1.379 . S
C1536 N1544 1.356 . S
C1537 C1536 1.363 . S
C1537 C1543 1.363 . S
C1538 C1539 1.363 . S
C1538 C1543 1.379 . S
C1538 N1545 1.356 . S
C1539 C1538 1.363 . S
C1539 C1542 1.363 . S
N1540 C1542 1.356 . S
N1540 H1552 0.984 . S
N1540 H1553 0.985 . S
N1541 C1543 1.356 . S
N1541 H1546 0.984 . S
N1541 H1547 0.985 . S
C1542 C1536 1.379 . S
C1542 C1539 1.363 . S
C1542 N1540 1.356 . S
C1543 C1537 1.363 . S
C1543 C1538 1.379 . S
C1543 N1541 1.356 . S
N1544 C1536 1.356 . S
N1544 H1550 0.984 . S
N1544 H1551 0.984 . S
N1545 C1538 1.356 . S
N1545 H1548 0.984 . S
N1545 H1549 0.985 . S
H1546 N1541 0.984 . S
H1547 N1541 0.985 . S
H1548 N1545 0.984 . S
H1549 N1545 0.985 . S
H1550 N1544 0.984 . S
H1551 N1544 0.984 . S
H1552 N1540 0.984 . S
H1553 N1540 0.985 . S
C1554 C1555 1.362 1_565 S
C1554 C1560 1.380 . S
C1554 N1562 1.356 1_565 S
C1555 C1554 1.362 1_545 S
C1555 C1561 1.363 1_655 S
C1556 C1557 1.362 1_545 S
C1556 C1561 1.380 . S
C1556 N1563 1.356 1_545 S
C1557 C1556 1.362 1_565 S
C1557 C1560 1.363 1_455 S
N1558 C1560 1.356 . S
N1558 H1570 0.984 . S
N1558 H1571 0.985 1_655 S
N1559 C1561 1.356 . S
N1559 H1564 0.984 1_455 S
N1559 H1565 0.985 . S
C1560 C1554 1.380 . S
C1560 C1557 1.363 1_655 S
C1560 N1558 1.356 . S
C1561 C1555 1.363 1_455 S
C1561 C1556 1.380 . S
C1561 N1559 1.356 . S
N1562 C1554 1.356 1_545 S
N1562 H1568 0.984 1_545 S
N1562 H1569 0.984 . S
N1563 C1556 1.356 1_565 S
N1563 H1566 0.984 . S
N1563 H1567 0.985 1_565 S
H1564 N1559 0.984 1_655 S
H1565 N1559 0.985 . S
H1566 N1563 0.984 . S
H1567 N1563 0.985 1_545 S
H1568 N1562 0.984 1_565 S
H1569 N1562 0.984 . S
H1570 N1558 0.984 . S
H1571 N1558 0.985 1_455 S
C1572 C1573 1.363 . S
C1572 C1578 1.379 . S
C1572 N1580 1.356 . S
C1573 C1572 1.363 . S
C1573 C1579 1.363 . S
C1574 C1575 1.363 . S
C1574 C1579 1.379 . S
C1574 N1581 1.356 . S
C1575 C1574 1.363 . S
C1575 C1578 1.363 . S
N1576 C1578 1.356 . S
N1576 H1588 0.984 . S
N1576 H1589 0.985 . S
N1577 C1579 1.356 . S
N1577 H1582 0.984 . S
N1577 H1583 0.985 . S
C1578 C1572 1.379 . S
C1578 C1575 1.363 . S
C1578 N1576 1.356 . S
C1579 C1573 1.363 . S
C1579 C1574 1.379 . S
C1579 N1577 1.356 . S
N1580 C1572 1.356 . S
N1580 H1586 0.984 . S
N1580 H1587 0.984 . S
N1581 C1574 1.356 . S
N1581 H1584 0.984 . S
N1581 H1585 0.985 . S
H1582 N1577 0.984 . S
H1583 N1577 0.985 . S
H1584 N1581 0.984 . S
H1585 N1581 0.985 . S
H1586 N1580 0.984 . S
H1587 N1580 0.984 . S
H1588 N1576 0.984 . S
H1589 N1576 0.985 . S
C1590 C1591 1.363 1_556 S
C1590 C1596 1.379 . S
C1590 N1598 1.356 . S
C1591 C1590 1.363 1_554 S
C1591 C1597 1.363 1_545 S
C1592 C1593 1.363 1_554 S
C1592 C1597 1.379 . S
C1592 N1599 1.356 . S
C1593 C1592 1.363 1_556 S
C1593 C1596 1.363 1_565 S
N1594 C1596 1.356 . S
N1594 H1606 0.984 . S
N1594 H1607 0.985 1_545 S
N1595 C1597 1.356 . S
N1595 H1600 0.984 1_565 S
N1595 H1601 0.985 . S
C1596 C1590 1.379 . S
C1596 C1593 1.363 1_545 S
C1596 N1594 1.356 . S
C1597 C1591 1.363 1_565 S
C1597 C1592 1.379 . S
C1597 N1595 1.356 . S
N1598 C1590 1.356 . S
N1598 H1604 0.984 . S
N1598 H1605 0.968 1_556 S
N1599 C1592 1.356 . S
N1599 H1602 0.968 1_554 S
N1599 H1603 0.985 . S
H1600 N1595 0.984 1_545 S
H1601 N1595 0.985 . S
H1602 N1599 0.968 1_556 S
H1603 N1599 0.985 . S
H1604 N1598 0.984 . S
H1605 N1598 0.968 1_554 S
H1606 N1594 0.984 . S
H1607 N1594 0.985 1_565 S
C1608 C1609 1.363 . S
C1608 C1614 1.379 . S
C1608 N1616 1.356 . S
C1609 C1608 1.363 . S
C1609 C1615 1.363 . S
C1610 C1611 1.363 . S
C1610 C1615 1.379 . S
C1610 N1617 1.356 . S
C1611 C1610 1.363 . S
C1611 C1614 1.363 . S
N1612 C1614 1.356 . S
N1612 H1624 0.984 . S
N1612 H1625 0.985 . S
N1613 C1615 1.356 . S
N1613 H1618 0.984 . S
N1613 H1619 0.985 . S
C1614 C1608 1.379 . S
C1614 C1611 1.363 . S
C1614 N1612 1.356 . S
C1615 C1609 1.363 . S
C1615 C1610 1.379 . S
C1615 N1613 1.356 . S
N1616 C1608 1.356 . S
N1616 H1622 0.984 . S
N1616 H1623 0.984 . S
N1617 C1610 1.356 . S
N1617 H1620 0.984 . S
N1617 H1621 0.985 . S
H1618 N1613 0.984 . S
H1619 N1613 0.985 . S
H1620 N1617 0.984 . S
H1621 N1617 0.985 . S
H1622 N1616 0.984 . S
H1623 N1616 0.984 . S
H1624 N1612 0.984 . S
H1625 N1612 0.985 . S
C1626 C1627 1.363 . S
C1626 C1632 1.379 . S
C1626 N1634 1.356 . S
C1627 C1626 1.363 . S
C1627 C1633 1.363 1_545 S
C1628 C1629 1.363 . S
C1628 C1633 1.379 . S
C1628 N1635 1.356 . S
C1629 C1628 1.363 . S
C1629 C1632 1.363 1_565 S
N1630 C1632 1.356 . S
N1630 H1642 0.984 . S
N1630 H1643 0.985 . S
N1631 C1633 1.356 . S
N1631 H1636 0.984 . S
N1631 H1637 0.985 . S
C1632 C1626 1.379 . S
C1632 C1629 1.363 1_545 S
C1632 N1630 1.356 . S
C1633 C1627 1.363 1_565 S
C1633 C1628 1.379 . S
C1633 N1631 1.356 . S
N1634 C1626 1.356 . S
N1634 H1640 0.984 . S
N1634 H1641 0.984 . S
N1635 C1628 1.356 . S
N1635 H1638 0.984 . S
N1635 H1639 0.985 . S
H1636 N1631 0.984 . S
H1637 N1631 0.985 . S
H1638 N1635 0.984 . S
H1639 N1635 0.985 . S
H1640 N1634 0.984 . S
H1641 N1634 0.984 . S
H1642 N1630 0.984 . S
H1643 N1630 0.985 . S
C1644 C1645 1.363 . S
C1644 C1650 1.379 . S
C1644 N1652 1.356 . S
C1645 C1644 1.363 . S
C1645 C1651 1.363 . S
C1646 C1647 1.363 . S
C1646 C1651 1.379 . S
C1646 N1653 1.356 . S
C1647 C1646 1.363 . S
C1647 C1650 1.363 . S
N1648 C1650 1.356 . S
N1648 H1660 0.984 . S
N1648 H1661 0.985 . S
N1649 C1651 1.356 . S
N1649 H1654 0.984 . S
N1649 H1655 0.985 . S
C1650 C1644 1.379 . S
C1650 C1647 1.363 . S
C1650 N1648 1.356 . S
C1651 C1645 1.363 . S
C1651 C1646 1.379 . S
C1651 N1649 1.356 . S
N1652 C1644 1.356 . S
N1652 H1658 0.984 . S
N1652 H1659 0.984 . S
N1653 C1646 1.356 . S
N1653 H1656 0.984 . S
N1653 H1657 0.985 . S
H1654 N1649 0.984 . S
H1655 N1649 0.985 . S
H1656 N1653 0.984 . S
H1657 N1653 0.985 . S
H1658 N1652 0.984 . S
H1659 N1652 0.984 . S
H1660 N1648 0.984 . S
H1661 N1648 0.985 . S
C1662 C1663 1.363 1_565 S
C1662 C1668 1.379 1_455 S
C1662 N1670 1.356 . S
C1663 C1662 1.363 1_545 S
C1663 C1669 1.363 1_556 S
C1664 C1665 1.363 1_545 S
C1664 C1669 1.379 1_655 S
C1664 N1671 1.356 . S
C1665 C1664 1.363 1_565 S
C1665 C1668 1.363 1_554 S
N1666 C1668 1.356 . S
N1666 H1678 0.984 . S
N1666 H1679 0.985 1_556 S
N1667 C1669 1.356 . S
N1667 H1672 0.984 1_554 S
N1667 H1673 0.985 . S
C1668 C1662 1.379 1_655 S
C1668 C1665 1.363 1_556 S
C1668 N1666 1.356 . S
C1669 C1663 1.363 1_554 S
C1669 C1664 1.379 1_455 S
C1669 N1667 1.356 . S
N1670 C1662 1.356 . S
N1670 H1676 0.984 . S
N1670 H1677 0.984 . S
N1671 C1664 1.356 . S
N1671 H1674 0.984 . S
N1671 H1675 0.985 . S
H1672 N1667 0.984 1_556 S
H1673 N1667 0.985 . S
H1674 N1671 0.984 . S
H1675 N1671 0.985 . S
H1676 N1670 0.984 . S
H1677 N1670 0.984 . S
H1678 N1666 0.984 . S
H1679 N1666 0.985 1_554 S
C1680 C1681 1.363 . S
C1680 C1686 1.379 . S
C1680 N1688 1.356 . S
C1681 C1680 1.363 . S
C1681 C1687 1.363 . S
C1682 C1683 1.363 . S
C1682 C1687 1.379 . S
C1682 N1689 1.356 . S
C1683 C1682 1.363 . S
C1683 C1686 1.363 . S
N1684 C1686 1.356 . S
N1684 H1696 0.984 . S
N1684 H1697 0.985 . S
N1685 C1687 1.356 . S
N1685 H1690 0.984 . S
N1685 H1691 0.985 . S
C1686 C1680 1.379 . S
C1686 C1683 1.363 . S
C1686 N1684 1.356 . S
C1687 C1681 1.363 . S
C1687 C1682 1.379 . S
C1687 N1685 1.356 . S
N1688 C1680 1.356 . S
N1688 H1694 0.984 . S
N1688 H1695 0.984 . S
N1689 C1682 1.356 . S
N1689 H1692 0.984 . S
N1689 H1693 0.985 . S
H1690 N1685 0.984 . S
H1691 N1685 0.985 . S
H1692 N1689 0.984 . S
H1693 N1689 0.985 . S
H1694 N1688 0.984 . S
H1695 N1688 0.984 . S
H1696 N1684 0.984 . S
H1697 N1684 0.985 . S
C1698 C1699 1.363 . S
C1698 C1704 1.379 . S
C1698 N1706 1.356 . S
C1699 C1698 1.363 . S
C1699 C1705 1.363 . S
C1700 C1701 1.363 . S
C1700 C1705 1.379 . S
C1700 N1707 1.356 . S
C1701 C1700 1.363 . S
C1701 C1704 1.363 . S
N1702 C1704 1.356 . S
N1702 H1714 0.984 . S
N1702 H1715 0.985 . S
N1703 C1705 1.356 . S
N1703 H1708 0.984 . S
N1703 H1709 0.985 . S
C1704 C1698 1.379 . S
C1704 C1701 1.363 . S
C1704 N1702 1.356 . S
C1705 C1699 1.363 . S
C1705 C1700 1.379 . S
C1705 N1703 1.356 . S
N1706 C1698 1.356 . S
N1706 H1712 0.984 . S
N1706 H1713 0.984 . S
N1707 C1700 1.356 . S
N1707 H1710 0.984 . S
N1707 H1711 0.985 . S
H1708 N1703 0.984 . S
H1709 N1703 0.985 . S
H1710 N1707 0.984 . S
H1711 N1707 0.985 . S
H1712 N1706 0.984 . S
H1713 N1706 0.984 . S
H1714 N1702 0.984 . S
H1715 N1702 0.985 . S
C1716 C1717 1.363 . S
C1716 C1722 1.379 . S
C1716 N1724 1.356 . S
C1717 C1716 1.363 . S
C1717 C1723 1.363 . S
C1718 C1719 1.363 . S
C1718 C1723 1.379 . S
C1718 N1725 1.356 . S
C1719 C1718 1.363 . S
C1719 C1722 1.363 . S
N1720 C1722 1.356 . S
N1720 H1732 0.984 . S
N1720 H1733 0.985 . S
N1721 C1723 1.356 . S
N1721 H1726 0.984 . S
N1721 H1727 0.985 . S
C1722 C1716 1.379 . S
C1722 C1719 1.363 . S
C1722 N1720 1.356 . S
C1723 C1717 1.363 . S
C1723 C1718 1.379 . S
C1723 N1721 1.356 . S
N1724 C1716 1.356 . S
N1724 H1730 0.984 . S
N1724 H1731 0.984 . S
N1725 C1718 1.356 . S
N1725 H1728 0.984 . S
N1725 H1729 0.985 . S
H1726 N1721 0.984 . S
H1727 N1721 0.985 . S
H1728 N1725 0.984 . S
H1729 N1725 0.985 . S
H1730 N1724 0.984 . S
H1731 N1724 0.984 . S
H1732 N1720 0.984 . S
H1733 N1720 0.985 . S
C1734 C1735 1.363 . S
C1734 C1740 1.379 . S
C1734 N1742 1.356 . S
C1735 C1734 1.363 . S
C1735 C1741 1.363 . S
C1736 C1737 1.363 . S
C1736 C1741 1.379 . S
C1736 N1743 1.356 . S
C1737 C1736 1.363 . S
C1737 C1740 1.363 . S
N1738 C1740 1.356 . S
N1738 H1750 0.984 . S
N1738 H1751 0.985 . S
N1739 C1741 1.356 . S
N1739 H1744 0.984 . S
N1739 H1745 0.985 . S
C1740 C1734 1.379 . S
C1740 C1737 1.363 . S
C1740 N1738 1.356 . S
C1741 C1735 1.363 . S
C1741 C1736 1.379 . S
C1741 N1739 1.356 . S
N1742 C1734 1.356 . S
N1742 H1748 0.984 . S
N1742 H1749 0.984 . S
N1743 C1736 1.356 . S
N1743 H1746 0.984 . S
N1743 H1747 0.985 . S
H1744 N1739 0.984 . S
H1745 N1739 0.985 . S
H1746 N1743 0.984 . S
H1747 N1743 0.985 . S
H1748 N1742 0.984 . S
H1749 N1742 0.984 . S
H1750 N1738 0.984 . S
H1751 N1738 0.985 . S
C1752 C1753 1.363 . S
C1752 C1758 1.379 . S
C1752 N1760 1.356 . S
C1753 C1752 1.363 . S
C1753 C1759 1.363 1_554 S
C1754 C1755 1.363 . S
C1754 C1759 1.379 . S
C1754 N1761 1.356 . S
C1755 C1754 1.363 . S
C1755 C1758 1.363 1_556 S
N1756 C1758 1.356 . S
N1756 H1768 0.984 . S
N1756 H1769 0.985 1_554 S
N1757 C1759 1.356 . S
N1757 H1762 0.984 1_556 S
N1757 H1763 0.985 . S
C1758 C1752 1.379 . S
C1758 C1755 1.363 1_554 S
C1758 N1756 1.356 . S
C1759 C1753 1.363 1_556 S
C1759 C1754 1.379 . S
C1759 N1757 1.356 . S
N1760 C1752 1.356 . S
N1760 H1766 0.984 . S
N1760 H1767 0.984 . S
N1761 C1754 1.356 . S
N1761 H1764 0.984 . S
N1761 H1765 0.985 . S
H1762 N1757 0.984 1_554 S
H1763 N1757 0.985 . S
H1764 N1761 0.984 . S
H1765 N1761 0.985 . S
H1766 N1760 0.984 . S
H1767 N1760 0.984 . S
H1768 N1756 0.984 . S
H1769 N1756 0.985 1_556 S
C1770 C1771 1.363 . S
C1770 C1776 1.379 1_655 S
C1770 N1778 1.356 . S
C1771 C1770 1.363 . S
C1771 C1777 1.363 . S
C1772 C1773 1.363 . S
C1772 C1777 1.379 1_455 S
C1772 N1779 1.356 . S
C1773 C1772 1.363 . S
C1773 C1776 1.363 . S
N1774 C1776 1.356 . S
N1774 H1786 0.984 . S
N1774 H1787 0.985 . S
N1775 C1777 1.356 . S
N1775 H1780 0.984 . S
N1775 H1781 0.985 . S
C1776 C1770 1.379 1_455 S
C1776 C1773 1.363 . S
C1776 N1774 1.356 . S
C1777 C1771 1.363 . S
C1777 C1772 1.379 1_655 S
C1777 N1775 1.356 . S
N1778 C1770 1.356 . S
N1778 H1784 0.984 . S
N1778 H1785 0.984 . S
N1779 C1772 1.356 . S
N1779 H1782 0.984 . S
N1779 H1783 0.985 . S
H1780 N1775 0.984 . S
H1781 N1775 0.985 . S
H1782 N1779 0.984 . S
H1783 N1779 0.985 . S
H1784 N1778 0.984 . S
H1785 N1778 0.984 . S
H1786 N1774 0.984 . S
H1787 N1774 0.985 . S
C1788 C1789 1.389 . S
C1788 C1794 1.353 1_554 S
C1788 N1796 1.367 . S
C1789 C1788 1.389 . S
C1789 C1795 1.363 1_455 S
C1790 C1791 1.389 . S
C1790 C1795 1.353 1_556 S
C1790 N1797 1.367 . S
C1791 C1790 1.389 . S
C1791 C1794 1.363 1_655 S
N1792 C1794 1.356 1_655 S
N1792 H1804 0.984 1_655 S
N1792 H1805 0.985 . S
N1793 C1795 1.356 1_455 S
N1793 H1798 0.984 . S
N1793 H1799 0.985 1_455 S
C1794 C1788 1.353 1_556 S
C1794 C1791 1.363 1_455 S
C1794 N1792 1.356 1_455 S
C1795 C1789 1.363 1_655 S
C1795 C1790 1.353 1_554 S
C1795 N1793 1.356 1_655 S
N1796 C1788 1.367 . S
N1796 H1802 0.970 1_554 S
N1796 H1803 0.984 . S
N1797 C1790 1.367 . S
N1797 H1800 0.984 . S
N1797 H1801 0.970 1_556 S
H1798 N1793 0.984 . S
H1799 N1793 0.985 1_655 S
H1800 N1797 0.984 . S
H1801 N1797 0.970 1_554 S
H1802 N1796 0.970 1_556 S
H1803 N1796 0.984 . S
H1804 N1792 0.984 1_455 S
H1805 N1792 0.985 . S
C1806 C1807 1.363 . S
C1806 C1812 1.379 . S
C1806 N1814 1.356 . S
C1807 C1806 1.363 . S
C1807 C1813 1.363 . S
C1808 C1809 1.363 . S
C1808 C1813 1.379 . S
C1808 N1815 1.356 . S
C1809 C1808 1.363 . S
C1809 C1812 1.363 . S
N1810 C1812 1.356 . S
N1810 H1822 0.984 . S
N1810 H1823 0.985 . S
N1811 C1813 1.356 . S
N1811 H1816 0.984 . S
N1811 H1817 0.985 . S
C1812 C1806 1.379 . S
C1812 C1809 1.363 . S
C1812 N1810 1.356 . S
C1813 C1807 1.363 . S
C1813 C1808 1.379 . S
C1813 N1811 1.356 . S
N1814 C1806 1.356 . S
N1814 H1820 0.984 . S
N1814 H1821 0.984 . S
N1815 C1808 1.356 . S
N1815 H1818 0.984 . S
N1815 H1819 0.985 . S
H1816 N1811 0.984 . S
H1817 N1811 0.985 . S
H1818 N1815 0.984 . S
H1819 N1815 0.985 . S
H1820 N1814 0.984 . S
H1821 N1814 0.984 . S
H1822 N1810 0.984 . S
H1823 N1810 0.985 . S
C1824 C1825 1.363 . S
C1824 C1830 1.379 . S
C1824 N1832 1.356 . S
C1825 C1824 1.363 . S
C1825 C1831 1.363 . S
C1826 C1827 1.363 . S
C1826 C1831 1.379 . S
C1826 N1833 1.356 1_545 S
C1827 C1826 1.363 . S
C1827 C1830 1.363 . S
N1828 C1830 1.356 . S
N1828 H1840 0.984 . S
N1828 H1841 0.985 . S
N1829 C1831 1.356 . S
N1829 H1834 0.984 . S
N1829 H1835 0.985 1_545 S
C1830 C1824 1.379 . S
C1830 C1827 1.363 . S
C1830 N1828 1.356 . S
C1831 C1825 1.363 . S
C1831 C1826 1.379 . S
C1831 N1829 1.356 . S
N1832 C1824 1.356 . S
N1832 H1838 0.984 . S
N1832 H1839 0.984 . S
N1833 C1826 1.356 1_565 S
N1833 H1836 0.984 . S
N1833 H1837 0.985 . S
H1834 N1829 0.984 . S
H1835 N1829 0.985 1_565 S
H1836 N1833 0.984 . S
H1837 N1833 0.985 . S
H1838 N1832 0.984 . S
H1839 N1832 0.984 . S
H1840 N1828 0.984 . S
H1841 N1828 0.985 . S
C1842 C1843 1.363 . S
C1842 C1848 1.379 . S
C1842 N1850 1.356 . S
C1843 C1842 1.363 . S
C1843 C1849 1.363 . S
C1844 C1845 1.363 . S
C1844 C1849 1.379 . S
C1844 N1851 1.356 . S
C1845 C1844 1.363 . S
C1845 C1848 1.363 . S
N1846 C1848 1.356 1_565 S
N1846 H1858 0.984 . S
N1846 H1859 0.985 . S
N1847 C1849 1.356 . S
N1847 H1852 0.984 . S
N1847 H1853 0.985 . S
C1848 C1842 1.379 . S
C1848 C1845 1.363 . S
C1848 N1846 1.356 1_545 S
C1849 C1843 1.363 . S
C1849 C1844 1.379 . S
C1849 N1847 1.356 . S
N1850 C1842 1.356 . S
N1850 H1856 0.984 . S
N1850 H1857 0.984 . S
N1851 C1844 1.356 . S
N1851 H1854 0.984 . S
N1851 H1855 0.985 . S
H1852 N1847 0.984 . S
H1853 N1847 0.985 . S
H1854 N1851 0.984 . S
H1855 N1851 0.985 . S
H1856 N1850 0.984 . S
H1857 N1850 0.984 . S
H1858 N1846 0.984 . S
H1859 N1846 0.985 . S
C1860 C1861 1.363 . S
C1860 C1866 1.379 . S
C1860 N1868 1.356 . S
C1861 C1860 1.363 . S
C1861 C1867 1.363 . S
C1862 C1863 1.363 . S
C1862 C1867 1.379 . S
C1862 N1869 1.356 . S
C1863 C1862 1.363 . S
C1863 C1866 1.363 . S
N1864 C1866 1.356 . S
N1864 H1876 0.984 . S
N1864 H1877 0.985 . S
N1865 C1867 1.356 1_545 S
N1865 H1870 0.984 . S
N1865 H1871 0.985 . S
C1866 C1860 1.379 . S
C1866 C1863 1.363 . S
C1866 N1864 1.356 . S
C1867 C1861 1.363 . S
C1867 C1862 1.379 . S
C1867 N1865 1.356 1_565 S
N1868 C1860 1.356 . S
N1868 H1874 0.984 . S
N1868 H1875 0.984 . S
N1869 C1862 1.356 . S
N1869 H1872 0.984 . S
N1869 H1873 0.985 . S
H1870 N1865 0.984 . S
H1871 N1865 0.985 . S
H1872 N1869 0.984 . S
H1873 N1869 0.985 . S
H1874 N1868 0.984 . S
H1875 N1868 0.984 . S
H1876 N1864 0.984 . S
H1877 N1864 0.985 . S
C1878 C1879 1.363 . S
C1878 C1884 1.379 . S
C1878 N1886 1.356 . S
C1879 C1878 1.363 . S
C1879 C1885 1.363 . S
C1880 C1881 1.363 . S
C1880 C1885 1.379 . S
C1880 N1887 1.356 1_565 S
C1881 C1880 1.363 . S
C1881 C1884 1.363 . S
N1882 C1884 1.356 . S
N1882 H1894 0.984 . S
N1882 H1895 0.985 . S
N1883 C1885 1.356 . S
N1883 H1888 0.984 . S
N1883 H1889 0.985 1_565 S
C1884 C1878 1.379 . S
C1884 C1881 1.363 . S
C1884 N1882 1.356 . S
C1885 C1879 1.363 . S
C1885 C1880 1.379 . S
C1885 N1883 1.356 . S
N1886 C1878 1.356 . S
N1886 H1892 0.984 . S
N1886 H1893 0.984 . S
N1887 C1880 1.356 1_545 S
N1887 H1890 0.984 . S
N1887 H1891 0.985 . S
H1888 N1883 0.984 . S
H1889 N1883 0.985 1_545 S
H1890 N1887 0.984 . S
H1891 N1887 0.985 . S
H1892 N1886 0.984 . S
H1893 N1886 0.984 . S
H1894 N1882 0.984 . S
H1895 N1882 0.985 . S
C1896 C1897 1.363 . S
C1896 C1902 1.379 . S
C1896 N1904 1.356 . S
C1897 C1896 1.363 . S
C1897 C1903 1.363 . S
C1898 C1899 1.363 . S
C1898 C1903 1.379 . S
C1898 N1905 1.356 1_565 S
C1899 C1898 1.363 . S
C1899 C1902 1.363 . S
N1900 C1902 1.356 . S
N1900 H1912 0.984 . S
N1900 H1913 0.985 . S
N1901 C1903 1.356 . S
N1901 H1906 0.984 . S
N1901 H1907 0.985 1_565 S
C1902 C1896 1.379 . S
C1902 C1899 1.363 . S
C1902 N1900 1.356 . S
C1903 C1897 1.363 . S
C1903 C1898 1.379 . S
C1903 N1901 1.356 . S
N1904 C1896 1.356 . S
N1904 H1910 0.984 . S
N1904 H1911 0.984 . S
N1905 C1898 1.356 1_545 S
N1905 H1908 0.984 . S
N1905 H1909 0.985 . S
H1906 N1901 0.984 . S
H1907 N1901 0.985 1_545 S
H1908 N1905 0.984 . S
H1909 N1905 0.985 . S
H1910 N1904 0.984 . S
H1911 N1904 0.984 . S
H1912 N1900 0.984 . S
H1913 N1900 0.985 . S
C1914 C1915 1.363 . S
C1914 C1920 1.379 . S
C1914 N1922 1.356 . S
C1915 C1914 1.363 . S
C1915 C1921 1.363 . S
C1916 C1917 1.363 . S
C1916 C1921 1.379 . S
C1916 N1923 1.356 . S
C1917 C1916 1.363 . S
C1917 C1920 1.363 . S
N1918 C1920 1.356 . S
N1918 H1930 0.984 . S
N1918 H1931 0.985 . S
N1919 C1921 1.356 1_545 S
N1919 H1924 0.984 . S
N1919 H1925 0.985 . S
C1920 C1914 1.379 . S
C1920 C1917 1.363 . S
C1920 N1918 1.356 . S
C1921 C1915 1.363 . S
C1921 C1916 1.379 . S
C1921 N1919 1.356 1_565 S
N1922 C1914 1.356 . S
N1922 H1928 0.984 . S
N1922 H1929 0.984 . S
N1923 C1916 1.356 . S
N1923 H1926 0.984 . S
N1923 H1927 0.985 . S
H1924 N1919 0.984 . S
H1925 N1919 0.985 . S
H1926 N1923 0.984 . S
H1927 N1923 0.985 . S
H1928 N1922 0.984 . S
H1929 N1922 0.984 . S
H1930 N1918 0.984 . S
H1931 N1918 0.985 . S
C1932 C1933 1.363 . S
C1932 C1938 1.379 . S
C1932 N1940 1.356 . S
C1933 C1932 1.363 . S
C1933 C1939 1.363 . S
C1934 C1935 1.363 . S
C1934 C1939 1.379 . S
C1934 N1941 1.356 . S
C1935 C1934 1.363 . S
C1935 C1938 1.363 . S
N1936 C1938 1.356 . S
N1936 H1948 0.984 . S
N1936 H1949 0.985 . S
N1937 C1939 1.356 1_565 S
N1937 H1942 0.984 . S
N1937 H1943 0.985 . S
C1938 C1932 1.379 . S
C1938 C1935 1.363 . S
C1938 N1936 1.356 . S
C1939 C1933 1.363 . S
C1939 C1934 1.379 . S
C1939 N1937 1.356 1_545 S
N1940 C1932 1.356 . S
N1940 H1946 0.984 . S
N1940 H1947 0.984 . S
N1941 C1934 1.356 . S
N1941 H1944 0.984 . S
N1941 H1945 0.985 1_545 S
H1942 N1937 0.984 . S
H1943 N1937 0.985 . S
H1944 N1941 0.984 . S
H1945 N1941 0.985 1_565 S
H1946 N1940 0.984 . S
H1947 N1940 0.984 . S
H1948 N1936 0.984 . S
H1949 N1936 0.985 . S
C1950 C1951 1.363 . S
C1950 C1956 1.379 . S
C1950 N1958 1.356 . S
C1951 C1950 1.363 . S
C1951 C1957 1.363 . S
C1952 C1953 1.363 . S
C1952 C1957 1.379 . S
C1952 N1959 1.356 . S
C1953 C1952 1.363 . S
C1953 C1956 1.363 . S
N1954 C1956 1.356 . S
N1954 H1966 0.984 . S
N1954 H1967 0.985 . S
N1955 C1957 1.356 1_565 S
N1955 H1960 0.984 . S
N1955 H1961 0.985 . S
C1956 C1950 1.379 . S
C1956 C1953 1.363 . S
C1956 N1954 1.356 . S
C1957 C1951 1.363 . S
C1957 C1952 1.379 . S
C1957 N1955 1.356 1_545 S
N1958 C1950 1.356 . S
N1958 H1964 0.984 . S
N1958 H1965 0.984 . S
N1959 C1952 1.356 . S
N1959 H1962 0.984 . S
N1959 H1963 0.985 1_545 S
H1960 N1955 0.984 . S
H1961 N1955 0.985 . S
H1962 N1959 0.984 . S
H1963 N1959 0.985 1_565 S
H1964 N1958 0.984 . S
H1965 N1958 0.984 . S
H1966 N1954 0.984 . S
H1967 N1954 0.985 . S
C1968 C1969 1.363 . S
C1968 C1974 1.379 . S
C1968 N1976 1.356 . S
C1969 C1968 1.363 . S
C1969 C1975 1.363 . S
C1970 C1971 1.363 . S
C1970 C1975 1.379 . S
C1970 N1977 1.356 . S
C1971 C1970 1.363 . S
C1971 C1974 1.363 . S
N1972 C1974 1.356 . S
N1972 H1984 0.984 . S
N1972 H1985 0.985 . S
N1973 C1975 1.356 . S
N1973 H1978 0.984 . S
N1973 H1979 0.985 . S
C1974 C1968 1.379 . S
C1974 C1971 1.363 . S
C1974 N1972 1.356 . S
C1975 C1969 1.363 . S
C1975 C1970 1.379 . S
C1975 N1973 1.356 . S
N1976 C1968 1.356 . S
N1976 H1982 0.984 . S
N1976 H1983 0.984 . S
N1977 C1970 1.356 . S
N1977 H1980 0.984 . S
N1977 H1981 0.985 . S
H1978 N1973 0.984 . S
H1979 N1973 0.985 . S
H1980 N1977 0.984 . S
H1981 N1977 0.985 . S
H1982 N1976 0.984 . S
H1983 N1976 0.984 . S
H1984 N1972 0.984 . S
H1985 N1972 0.985 . S
C1986 C1987 1.363 . S
C1986 C1992 1.379 . S
C1986 N1994 1.356 . S
C1987 C1986 1.363 . S
C1987 C1993 1.363 . S
C1988 C1989 1.363 . S
C1988 C1993 1.379 . S
C1988 N1995 1.356 . S
C1989 C1988 1.363 . S
C1989 C1992 1.363 . S
N1990 C1992 1.356 . S
N1990 H2002 0.984 . S
N1990 H2003 0.985 . S
N1991 C1993 1.356 . S
N1991 H1996 0.984 . S
N1991 H1997 0.985 . S
C1992 C1986 1.379 . S
C1992 C1989 1.363 . S
C1992 N1990 1.356 . S
C1993 C1987 1.363 . S
C1993 C1988 1.379 . S
C1993 N1991 1.356 . S
N1994 C1986 1.356 . S
N1994 H2000 0.984 . S
N1994 H2001 0.984 . S
N1995 C1988 1.356 . S
N1995 H1998 0.984 . S
N1995 H1999 0.985 . S
H1996 N1991 0.984 . S
H1997 N1991 0.985 . S
H1998 N1995 0.984 . S
H1999 N1995 0.985 . S
H2000 N1994 0.984 . S
H2001 N1994 0.984 . S
H2002 N1990 0.984 . S
H2003 N1990 0.985 . S
C2004 C2005 1.363 . S
C2004 C2010 1.379 . S
C2004 N2012 1.356 . S
C2005 C2004 1.363 . S
C2005 C2011 1.363 . S
C2006 C2007 1.363 . S
C2006 C2011 1.379 . S
C2006 N2013 1.356 . S
C2007 C2006 1.363 . S
C2007 C2010 1.363 . S
N2008 C2010 1.356 . S
N2008 H2020 0.984 . S
N2008 H2021 0.985 . S
N2009 C2011 1.356 . S
N2009 H2014 0.984 . S
N2009 H2015 0.985 . S
C2010 C2004 1.379 . S
C2010 C2007 1.363 . S
C2010 N2008 1.356 . S
C2011 C2005 1.363 . S
C2011 C2006 1.379 . S
C2011 N2009 1.356 . S
N2012 C2004 1.356 . S
N2012 H2018 0.984 . S
N2012 H2019 0.984 . S
N2013 C2006 1.356 . S
N2013 H2016 0.984 . S
N2013 H2017 0.985 . S
H2014 N2009 0.984 . S
H2015 N2009 0.985 . S
H2016 N2013 0.984 . S
H2017 N2013 0.985 . S
H2018 N2012 0.984 . S
H2019 N2012 0.984 . S
H2020 N2008 0.984 . S
H2021 N2008 0.985 . S
C2022 C2023 1.363 . S
C2022 C2028 1.379 . S
C2022 N2030 1.356 . S
C2023 C2022 1.363 . S
C2023 C2029 1.363 . S
C2024 C2025 1.363 . S
C2024 C2029 1.379 . S
C2024 N2031 1.356 . S
C2025 C2024 1.363 . S
C2025 C2028 1.363 . S
N2026 C2028 1.356 . S
N2026 H2038 0.984 . S
N2026 H2039 0.985 . S
N2027 C2029 1.356 . S
N2027 H2032 0.984 . S
N2027 H2033 0.985 . S
C2028 C2022 1.379 . S
C2028 C2025 1.363 . S
C2028 N2026 1.356 . S
C2029 C2023 1.363 . S
C2029 C2024 1.379 . S
C2029 N2027 1.356 . S
N2030 C2022 1.356 . S
N2030 H2036 0.984 . S
N2030 H2037 0.984 . S
N2031 C2024 1.356 . S
N2031 H2034 0.984 . S
N2031 H2035 0.985 . S
H2032 N2027 0.984 . S
H2033 N2027 0.985 . S
H2034 N2031 0.984 . S
H2035 N2031 0.985 . S
H2036 N2030 0.984 . S
H2037 N2030 0.984 . S
H2038 N2026 0.984 . S
H2039 N2026 0.985 . S
C2040 C2041 1.363 . S
C2040 C2046 1.379 . S
C2040 N2048 1.356 . S
C2041 C2040 1.363 . S
C2041 C2047 1.363 . S
C2042 C2043 1.363 . S
C2042 C2047 1.379 . S
C2042 N2049 1.356 . S
C2043 C2042 1.363 . S
C2043 C2046 1.363 . S
N2044 C2046 1.356 . S
N2044 H2056 0.984 . S
N2044 H2057 0.985 . S
N2045 C2047 1.356 . S
N2045 H2050 0.984 . S
N2045 H2051 0.985 . S
C2046 C2040 1.379 . S
C2046 C2043 1.363 . S
C2046 N2044 1.356 . S
C2047 C2041 1.363 . S
C2047 C2042 1.379 . S
C2047 N2045 1.356 . S
N2048 C2040 1.356 . S
N2048 H2054 0.984 . S
N2048 H2055 0.984 . S
N2049 C2042 1.356 . S
N2049 H2052 0.984 . S
N2049 H2053 0.985 . S
H2050 N2045 0.984 . S
H2051 N2045 0.985 . S
H2052 N2049 0.984 . S
H2053 N2049 0.985 . S
H2054 N2048 0.984 . S
H2055 N2048 0.984 . S
H2056 N2044 0.984 . S
H2057 N2044 0.985 . S
C2058 C2059 1.363 . S
C2058 C2064 1.379 . S
C2058 N2066 1.356 . S
C2059 C2058 1.363 . S
C2059 C2065 1.363 . S
C2060 C2061 1.363 . S
C2060 C2065 1.379 . S
C2060 N2067 1.356 . S
C2061 C2060 1.363 . S
C2061 C2064 1.363 . S
N2062 C2064 1.356 . S
N2062 H2074 0.984 . S
N2062 H2075 0.985 . S
N2063 C2065 1.356 . S
N2063 H2068 0.984 . S
N2063 H2069 0.985 . S
C2064 C2058 1.379 . S
C2064 C2061 1.363 . S
C2064 N2062 1.356 . S
C2065 C2059 1.363 . S
C2065 C2060 1.379 . S
C2065 N2063 1.356 . S
N2066 C2058 1.356 . S
N2066 H2072 0.984 . S
N2066 H2073 0.984 . S
N2067 C2060 1.356 . S
N2067 H2070 0.984 . S
N2067 H2071 0.985 . S
H2068 N2063 0.984 . S
H2069 N2063 0.985 . S
H2070 N2067 0.984 . S
H2071 N2067 0.985 . S
H2072 N2066 0.984 . S
H2073 N2066 0.984 . S
H2074 N2062 0.984 . S
H2075 N2062 0.985 . S
C2076 C2077 1.363 . S
C2076 C2082 1.379 . S
C2076 N2084 1.356 . S
C2077 C2076 1.363 . S
C2077 C2083 1.363 . S
C2078 C2079 1.363 . S
C2078 C2083 1.379 . S
C2078 N2085 1.356 . S
C2079 C2078 1.363 . S
C2079 C2082 1.363 . S
N2080 C2082 1.356 . S
N2080 H2092 0.984 . S
N2080 H2093 0.985 . S
N2081 C2083 1.356 . S
N2081 H2086 0.984 . S
N2081 H2087 0.985 . S
C2082 C2076 1.379 . S
C2082 C2079 1.363 . S
C2082 N2080 1.356 . S
C2083 C2077 1.363 . S
C2083 C2078 1.379 . S
C2083 N2081 1.356 . S
N2084 C2076 1.356 . S
N2084 H2090 0.984 . S
N2084 H2091 0.984 . S
N2085 C2078 1.356 . S
N2085 H2088 0.984 . S
N2085 H2089 0.985 . S
H2086 N2081 0.984 . S
H2087 N2081 0.985 . S
H2088 N2085 0.984 . S
H2089 N2085 0.985 . S
H2090 N2084 0.984 . S
H2091 N2084 0.984 . S
H2092 N2080 0.984 . S
H2093 N2080 0.985 . S
C2094 C2095 1.363 . S
C2094 C2100 1.379 . S
C2094 N2102 1.356 . S
C2095 C2094 1.363 . S
C2095 C2101 1.363 . S
C2096 C2097 1.363 . S
C2096 C2101 1.379 . S
C2096 N2103 1.356 . S
C2097 C2096 1.363 . S
C2097 C2100 1.363 . S
N2098 C2100 1.356 . S
N2098 H2110 0.984 . S
N2098 H2111 0.985 . S
N2099 C2101 1.356 . S
N2099 H2104 0.984 . S
N2099 H2105 0.985 . S
C2100 C2094 1.379 . S
C2100 C2097 1.363 . S
C2100 N2098 1.356 . S
C2101 C2095 1.363 . S
C2101 C2096 1.379 . S
C2101 N2099 1.356 . S
N2102 C2094 1.356 . S
N2102 H2108 0.984 . S
N2102 H2109 0.984 . S
N2103 C2096 1.356 . S
N2103 H2106 0.984 . S
N2103 H2107 0.985 . S
H2104 N2099 0.984 . S
H2105 N2099 0.985 . S
H2106 N2103 0.984 . S
H2107 N2103 0.985 . S
H2108 N2102 0.984 . S
H2109 N2102 0.984 . S
H2110 N2098 0.984 . S
H2111 N2098 0.985 . S
C2112 C2113 1.363 1_565 S
C2112 C2118 1.379 . S
C2112 N2120 1.356 1_565 S
C2113 C2112 1.363 1_545 S
C2113 C2119 1.363 . S
C2114 C2115 1.363 1_545 S
C2114 C2119 1.379 . S
C2114 N2121 1.356 1_545 S
C2115 C2114 1.363 1_565 S
C2115 C2118 1.363 . S
N2116 C2118 1.356 . S
N2116 H2128 0.984 . S
N2116 H2129 0.985 . S
N2117 C2119 1.356 . S
N2117 H2122 0.984 . S
N2117 H2123 0.985 . S
C2118 C2112 1.379 . S
C2118 C2115 1.363 . S
C2118 N2116 1.356 . S
C2119 C2113 1.363 . S
C2119 C2114 1.379 . S
C2119 N2117 1.356 . S
N2120 C2112 1.356 1_545 S
N2120 H2126 0.984 1_545 S
N2120 H2127 0.984 . S
N2121 C2114 1.356 1_565 S
N2121 H2124 0.984 . S
N2121 H2125 0.985 1_565 S
H2122 N2117 0.984 . S
H2123 N2117 0.985 . S
H2124 N2121 0.984 . S
H2125 N2121 0.985 1_545 S
H2126 N2120 0.984 1_565 S
H2127 N2120 0.984 . S
H2128 N2116 0.984 . S
H2129 N2116 0.985 . S
C2130 C2131 1.363 . S
C2130 C2136 1.379 . S
C2130 N2138 1.356 . S
C2131 C2130 1.363 . S
C2131 C2137 1.363 . S
C2132 C2133 1.363 . S
C2132 C2137 1.379 . S
C2132 N2139 1.356 . S
C2133 C2132 1.363 . S
C2133 C2136 1.363 . S
N2134 C2136 1.356 . S
N2134 H2146 0.984 . S
N2134 H2147 0.985 . S
N2135 C2137 1.356 . S
N2135 H2140 0.984 . S
N2135 H2141 0.985 . S
C2136 C2130 1.379 . S
C2136 C2133 1.363 . S
C2136 N2134 1.356 . S
C2137 C2131 1.363 . S
C2137 C2132 1.379 . S
C2137 N2135 1.356 . S
N2138 C2130 1.356 . S
N2138 H2144 0.984 . S
N2138 H2145 0.984 . S
N2139 C2132 1.356 . S
N2139 H2142 0.984 . S
N2139 H2143 0.985 . S
H2140 N2135 0.984 . S
H2141 N2135 0.985 . S
H2142 N2139 0.984 . S
H2143 N2139 0.985 . S
H2144 N2138 0.984 . S
H2145 N2138 0.984 . S
H2146 N2134 0.984 . S
H2147 N2134 0.985 . S
C2148 C2149 1.363 . S
C2148 C2154 1.379 1_545 S
C2148 N2156 1.356 . S
C2149 C2148 1.363 . S
C2149 C2155 1.363 . S
C2150 C2151 1.363 . S
C2150 C2155 1.379 1_565 S
C2150 N2157 1.356 . S
C2151 C2150 1.363 . S
C2151 C2154 1.363 . S
N2152 C2154 1.356 . S
N2152 H2164 0.969 1_565 S
N2152 H2165 0.985 . S
N2153 C2155 1.356 . S
N2153 H2158 0.984 . S
N2153 H2159 0.969 1_545 S
C2154 C2148 1.379 1_565 S
C2154 C2151 1.363 . S
C2154 N2152 1.356 . S
C2155 C2149 1.363 . S
C2155 C2150 1.379 1_545 S
C2155 N2153 1.356 . S
N2156 C2148 1.356 . S
N2156 H2162 0.984 . S
N2156 H2163 0.984 . S
N2157 C2150 1.356 . S
N2157 H2160 0.984 . S
N2157 H2161 0.985 . S
H2158 N2153 0.984 . S
H2159 N2153 0.969 1_565 S
H2160 N2157 0.984 . S
H2161 N2157 0.985 . S
H2162 N2156 0.984 . S
H2163 N2156 0.984 . S
H2164 N2152 0.969 1_545 S
H2165 N2152 0.985 . S
C2166 C2167 1.363 . S
C2166 C2172 1.379 . S
C2166 N2174 1.356 . S
C2167 C2166 1.363 . S
C2167 C2173 1.363 1_556 S
C2168 C2169 1.363 . S
C2168 C2173 1.379 . S
C2168 N2175 1.356 . S
C2169 C2168 1.363 . S
C2169 C2172 1.363 1_554 S
N2170 C2172 1.357 1_554 S
N2170 H2182 0.986 1_554 S
N2170 H2183 0.982 . S
N2171 C2173 1.357 1_556 S
N2171 H2176 0.982 . S
N2171 H2177 0.986 1_556 S
C2172 C2166 1.379 . S
C2172 C2169 1.363 1_556 S
C2172 N2170 1.357 1_556 S
C2173 C2167 1.363 1_554 S
C2173 C2168 1.379 . S
C2173 N2171 1.357 1_554 S
N2174 C2166 1.356 . S
N2174 H2180 0.984 . S
N2174 H2181 0.984 . S
N2175 C2168 1.356 . S
N2175 H2178 0.984 . S
N2175 H2179 0.985 . S
H2176 N2171 0.982 . S
H2177 N2171 0.986 1_554 S
H2178 N2175 0.984 . S
H2179 N2175 0.985 . S
H2180 N2174 0.984 . S
H2181 N2174 0.984 . S
H2182 N2170 0.986 1_556 S
H2183 N2170 0.982 . S
C2184 C2185 1.363 . S
C2184 C2190 1.379 1_565 S
C2184 N2192 1.356 . S
C2185 C2184 1.363 . S
C2185 C2191 1.363 . S
C2186 C2187 1.363 . S
C2186 C2191 1.379 1_545 S
C2186 N2193 1.356 . S
C2187 C2186 1.363 . S
C2187 C2190 1.363 . S
N2188 C2190 1.356 . S
N2188 H2200 0.984 1_545 S
N2188 H2201 0.985 . S
N2189 C2191 1.356 . S
N2189 H2194 0.984 . S
N2189 H2195 0.985 1_565 S
C2190 C2184 1.379 1_545 S
C2190 C2187 1.363 . S
C2190 N2188 1.356 . S
C2191 C2185 1.363 . S
C2191 C2186 1.379 1_565 S
C2191 N2189 1.356 . S
N2192 C2184 1.356 . S
N2192 H2198 0.984 . S
N2192 H2199 0.984 . S
N2193 C2186 1.356 . S
N2193 H2196 0.984 . S
N2193 H2197 0.985 . S
H2194 N2189 0.984 . S
H2195 N2189 0.985 1_545 S
H2196 N2193 0.984 . S
H2197 N2193 0.985 . S
H2198 N2192 0.984 . S
H2199 N2192 0.984 . S
H2200 N2188 0.984 1_565 S
H2201 N2188 0.985 . S
C2202 C2203 1.363 . S
C2202 C2208 1.379 . S
C2202 N2210 1.356 . S
C2203 C2202 1.363 . S
C2203 C2209 1.363 . S
C2204 C2205 1.363 . S
C2204 C2209 1.379 . S
C2204 N2211 1.356 . S
C2205 C2204 1.363 . S
C2205 C2208 1.363 . S
N2206 C2208 1.356 . S
N2206 H2218 0.984 . S
N2206 H2219 0.985 . S
N2207 C2209 1.356 . S
N2207 H2212 0.984 . S
N2207 H2213 0.985 . S
C2208 C2202 1.379 . S
C2208 C2205 1.363 . S
C2208 N2206 1.356 . S
C2209 C2203 1.363 . S
C2209 C2204 1.379 . S
C2209 N2207 1.356 . S
N2210 C2202 1.356 . S
N2210 H2216 0.984 . S
N2210 H2217 0.984 . S
N2211 C2204 1.356 . S
N2211 H2214 0.984 . S
N2211 H2215 0.985 . S
H2212 N2207 0.984 . S
H2213 N2207 0.985 . S
H2214 N2211 0.984 . S
H2215 N2211 0.985 . S
H2216 N2210 0.984 . S
H2217 N2210 0.984 . S
H2218 N2206 0.984 . S
H2219 N2206 0.985 . S
C2220 C2221 1.357 1_545 S
C2220 C2226 1.385 . S
C2220 N2228 1.354 1_545 S
C2221 C2220 1.357 1_565 S
C2221 C2227 1.363 . S
C2222 C2223 1.357 1_565 S
C2222 C2227 1.385 . S
C2222 N2229 1.354 1_565 S
C2223 C2222 1.357 1_545 S
C2223 C2226 1.363 . S
N2224 C2226 1.356 . S
N2224 H2236 0.984 . S
N2224 H2237 0.985 . S
N2225 C2227 1.356 . S
N2225 H2230 0.984 . S
N2225 H2231 0.985 . S
C2226 C2220 1.385 . S
C2226 C2223 1.363 . S
C2226 N2224 1.356 . S
C2227 C2221 1.363 . S
C2227 C2222 1.385 . S
C2227 N2225 1.356 . S
N2228 C2220 1.354 1_565 S
N2228 H2234 0.984 1_565 S
N2228 H2235 0.984 . S
N2229 C2222 1.354 1_545 S
N2229 H2232 0.984 . S
N2229 H2233 0.985 1_545 S
H2230 N2225 0.984 . S
H2231 N2225 0.985 . S
H2232 N2229 0.984 . S
H2233 N2229 0.985 1_565 S
H2234 N2228 0.984 1_545 S
H2235 N2228 0.984 . S
H2236 N2224 0.984 . S
H2237 N2224 0.985 . S
C2238 C2239 1.363 . S
C2238 C2244 1.379 . S
C2238 N2246 1.356 . S
C2239 C2238 1.363 . S
C2239 C2245 1.363 1_554 S
C2240 C2241 1.363 . S
C2240 C2245 1.379 . S
C2240 N2247 1.356 . S
C2241 C2240 1.363 . S
C2241 C2244 1.363 1_556 S
N2242 C2244 1.357 1_556 S
N2242 H2254 0.986 1_556 S
N2242 H2255 0.983 . S
N2243 C2245 1.357 1_554 S
N2243 H2248 0.983 . S
N2243 H2249 0.986 1_554 S
C2244 C2238 1.379 . S
C2244 C2241 1.363 1_554 S
C2244 N2242 1.357 1_554 S
C2245 C2239 1.363 1_556 S
C2245 C2240 1.379 . S
C2245 N2243 1.357 1_556 S
N2246 C2238 1.356 . S
N2246 H2252 0.984 . S
N2246 H2253 0.984 . S
N2247 C2240 1.356 . S
N2247 H2250 0.984 . S
N2247 H2251 0.985 . S
H2248 N2243 0.983 . S
H2249 N2243 0.986 1_556 S
H2250 N2247 0.984 . S
H2251 N2247 0.985 . S
H2252 N2246 0.984 . S
H2253 N2246 0.984 . S
H2254 N2242 0.986 1_554 S
H2255 N2242 0.983 . S
C2256 C2257 1.363 . S
C2256 C2262 1.379 . S
C2256 N2264 1.356 . S
C2257 C2256 1.363 . S
C2257 C2263 1.363 . S
C2258 C2259 1.363 . S
C2258 C2263 1.379 . S
C2258 N2265 1.356 . S
C2259 C2258 1.363 . S
C2259 C2262 1.363 . S
N2260 C2262 1.356 . S
N2260 H2272 0.984 . S
N2260 H2273 0.985 . S
N2261 C2263 1.356 . S
N2261 H2266 0.984 . S
N2261 H2267 0.985 . S
C2262 C2256 1.379 . S
C2262 C2259 1.363 . S
C2262 N2260 1.356 . S
C2263 C2257 1.363 . S
C2263 C2258 1.379 . S
C2263 N2261 1.356 . S
N2264 C2256 1.356 . S
N2264 H2270 0.984 . S
N2264 H2271 0.984 . S
N2265 C2258 1.356 . S
N2265 H2268 0.984 . S
N2265 H2269 0.985 . S
H2266 N2261 0.984 . S
H2267 N2261 0.985 . S
H2268 N2265 0.984 . S
H2269 N2265 0.985 . S
H2270 N2264 0.984 . S
H2271 N2264 0.984 . S
H2272 N2260 0.984 . S
H2273 N2260 0.985 . S
C2274 C2275 1.363 1_554 S
C2274 C2280 1.379 . S
C2274 N2282 1.357 1_554 S
C2275 C2274 1.363 1_556 S
C2275 C2281 1.363 . S
C2276 C2277 1.363 1_556 S
C2276 C2281 1.379 . S
C2276 N2283 1.357 1_556 S
C2277 C2276 1.363 1_554 S
C2277 C2280 1.363 . S
N2278 C2280 1.356 . S
N2278 H2290 0.984 . S
N2278 H2291 0.985 . S
N2279 C2281 1.356 . S
N2279 H2284 0.984 . S
N2279 H2285 0.985 . S
C2280 C2274 1.379 . S
C2280 C2277 1.363 . S
C2280 N2278 1.356 . S
C2281 C2275 1.363 . S
C2281 C2276 1.379 . S
C2281 N2279 1.356 . S
N2282 C2274 1.357 1_556 S
N2282 H2288 0.986 1_556 S
N2282 H2289 0.982 . S
N2283 C2276 1.357 1_554 S
N2283 H2286 0.983 . S
N2283 H2287 0.986 1_554 S
H2284 N2279 0.984 . S
H2285 N2279 0.985 . S
H2286 N2283 0.983 . S
H2287 N2283 0.986 1_556 S
H2288 N2282 0.986 1_554 S
H2289 N2282 0.982 . S
H2290 N2278 0.984 . S
H2291 N2278 0.985 . S
C2292 C2293 1.363 . S
C2292 C2298 1.379 . S
C2292 N2300 1.356 . S
C2293 C2292 1.363 . S
C2293 C2299 1.363 . S
C2294 C2295 1.363 . S
C2294 C2299 1.379 . S
C2294 N2301 1.356 . S
C2295 C2294 1.363 . S
C2295 C2298 1.363 . S
N2296 C2298 1.356 . S
N2296 H2308 0.984 . S
N2296 H2309 0.985 . S
N2297 C2299 1.356 . S
N2297 H2302 0.984 . S
N2297 H2303 0.985 . S
C2298 C2292 1.379 . S
C2298 C2295 1.363 . S
C2298 N2296 1.356 . S
C2299 C2293 1.363 . S
C2299 C2294 1.379 . S
C2299 N2297 1.356 . S
N2300 C2292 1.356 . S
N2300 H2306 0.984 . S
N2300 H2307 0.984 . S
N2301 C2294 1.356 . S
N2301 H2304 0.984 . S
N2301 H2305 0.985 . S
H2302 N2297 0.984 . S
H2303 N2297 0.985 . S
H2304 N2301 0.984 . S
H2305 N2301 0.985 . S
H2306 N2300 0.984 . S
H2307 N2300 0.984 . S
H2308 N2296 0.984 . S
H2309 N2296 0.985 . S
C2310 C2311 1.363 . S
C2310 C2316 1.379 . S
C2310 N2318 1.356 . S
C2311 C2310 1.363 . S
C2311 C2317 1.363 . S
C2312 C2313 1.363 . S
C2312 C2317 1.379 . S
C2312 N2319 1.356 . S
C2313 C2312 1.363 . S
C2313 C2316 1.363 . S
N2314 C2316 1.356 . S
N2314 H2326 0.984 . S
N2314 H2327 0.985 . S
N2315 C2317 1.356 . S
N2315 H2320 0.984 . S
N2315 H2321 0.985 . S
C2316 C2310 1.379 . S
C2316 C2313 1.363 . S
C2316 N2314 1.356 . S
C2317 C2311 1.363 . S
C2317 C2312 1.379 . S
C2317 N2315 1.356 . S
N2318 C2310 1.356 . S
N2318 H2324 0.984 . S
N2318 H2325 0.984 . S
N2319 C2312 1.356 . S
N2319 H2322 0.984 . S
N2319 H2323 0.985 . S
H2320 N2315 0.984 . S
H2321 N2315 0.985 . S
H2322 N2319 0.984 . S
H2323 N2319 0.985 . S
H2324 N2318 0.984 . S
H2325 N2318 0.984 . S
H2326 N2314 0.984 . S
H2327 N2314 0.985 . S
C2328 C2329 1.363 . S
C2328 C2334 1.379 . S
C2328 N2336 1.356 . S
C2329 C2328 1.363 . S
C2329 C2335 1.363 . S
C2330 C2331 1.363 . S
C2330 C2335 1.379 . S
C2330 N2337 1.356 . S
C2331 C2330 1.363 . S
C2331 C2334 1.363 . S
N2332 C2334 1.356 . S
N2332 H2344 0.984 . S
N2332 H2345 0.985 . S
N2333 C2335 1.356 . S
N2333 H2338 0.984 . S
N2333 H2339 0.985 . S
C2334 C2328 1.379 . S
C2334 C2331 1.363 . S
C2334 N2332 1.356 . S
C2335 C2329 1.363 . S
C2335 C2330 1.379 . S
C2335 N2333 1.356 . S
N2336 C2328 1.356 . S
N2336 H2342 0.984 . S
N2336 H2343 0.984 . S
N2337 C2330 1.356 . S
N2337 H2340 0.984 . S
N2337 H2341 0.985 . S
H2338 N2333 0.984 . S
H2339 N2333 0.985 . S
H2340 N2337 0.984 . S
H2341 N2337 0.985 . S
H2342 N2336 0.984 . S
H2343 N2336 0.984 . S
H2344 N2332 0.984 . S
H2345 N2332 0.985 . S
C2346 C2347 1.363 1_554 S
C2346 C2352 1.379 . S
C2346 N2354 1.357 1_554 S
C2347 C2346 1.363 1_556 S
C2347 C2353 1.363 . S
C2348 C2349 1.363 1_556 S
C2348 C2353 1.379 . S
C2348 N2355 1.357 1_556 S
C2349 C2348 1.363 1_554 S
C2349 C2352 1.363 . S
N2350 C2352 1.356 . S
N2350 H2362 0.984 . S
N2350 H2363 0.985 . S
N2351 C2353 1.356 . S
N2351 H2356 0.984 . S
N2351 H2357 0.985 . S
C2352 C2346 1.379 . S
C2352 C2349 1.363 . S
C2352 N2350 1.356 . S
C2353 C2347 1.363 . S
C2353 C2348 1.379 . S
C2353 N2351 1.356 . S
N2354 C2346 1.357 1_556 S
N2354 H2360 0.986 1_556 S
N2354 H2361 0.983 . S
N2355 C2348 1.357 1_554 S
N2355 H2358 0.983 . S
N2355 H2359 0.986 1_554 S
H2356 N2351 0.984 . S
H2357 N2351 0.985 . S
H2358 N2355 0.983 . S
H2359 N2355 0.986 1_556 S
H2360 N2354 0.986 1_554 S
H2361 N2354 0.983 . S
H2362 N2350 0.984 . S
H2363 N2350 0.985 . S
C2364 C2365 1.363 . S
C2364 C2370 1.379 . S
C2364 N2372 1.356 . S
C2365 C2364 1.363 . S
C2365 C2371 1.363 . S
C2366 C2367 1.363 . S
C2366 C2371 1.379 . S
C2366 N2373 1.356 . S
C2367 C2366 1.363 . S
C2367 C2370 1.363 . S
N2368 C2370 1.356 . S
N2368 H2380 0.984 . S
N2368 H2381 0.985 . S
N2369 C2371 1.356 . S
N2369 H2374 0.984 . S
N2369 H2375 0.985 . S
C2370 C2364 1.379 . S
C2370 C2367 1.363 . S
C2370 N2368 1.356 . S
C2371 C2365 1.363 . S
C2371 C2366 1.379 . S
C2371 N2369 1.356 . S
N2372 C2364 1.356 . S
N2372 H2378 0.984 . S
N2372 H2379 0.984 . S
N2373 C2366 1.356 . S
N2373 H2376 0.984 . S
N2373 H2377 0.985 . S
H2374 N2369 0.984 . S
H2375 N2369 0.985 . S
H2376 N2373 0.984 . S
H2377 N2373 0.985 . S
H2378 N2372 0.984 . S
H2379 N2372 0.984 . S
H2380 N2368 0.984 . S
H2381 N2368 0.985 . S
C2382 C2383 1.363 . S
C2382 C2388 1.379 . S
C2382 N2390 1.356 . S
C2383 C2382 1.363 . S
C2383 C2389 1.363 . S
C2384 C2385 1.363 . S
C2384 C2389 1.379 . S
C2384 N2391 1.356 . S
C2385 C2384 1.363 . S
C2385 C2388 1.363 . S
N2386 C2388 1.356 . S
N2386 H2398 0.984 . S
N2386 H2399 0.985 . S
N2387 C2389 1.356 . S
N2387 H2392 0.984 . S
N2387 H2393 0.985 . S
C2388 C2382 1.379 . S
C2388 C2385 1.363 . S
C2388 N2386 1.356 . S
C2389 C2383 1.363 . S
C2389 C2384 1.379 . S
C2389 N2387 1.356 . S
N2390 C2382 1.356 . S
N2390 H2396 0.984 . S
N2390 H2397 0.984 . S
N2391 C2384 1.356 . S
N2391 H2394 0.984 . S
N2391 H2395 0.985 . S
H2392 N2387 0.984 . S
H2393 N2387 0.985 . S
H2394 N2391 0.984 . S
H2395 N2391 0.985 . S
H2396 N2390 0.984 . S
H2397 N2390 0.984 . S
H2398 N2386 0.984 . S
H2399 N2386 0.985 . S
C673 C15 0.752 . S
C675 C583 0.752 . S
C691 C39 0.753 . S
C693 C184 0.752 . S
C709 C60 0.752 . S
C711 C541 0.752 . S
C727 C226 0.752 . S
C729 C81 0.752 . S
C745 C102 0.752 . S
C747 C625 0.752 . S
C763 C310 0.752 . S
C765 C123 0.752 . S
C781 C667 0.752 . S
C783 C144 0.752 . S
C799 C165 0.753 . S
C801 C268 0.752 . S
C817 C186 0.752 . S
C819 C415 0.752 . S
C835 C207 0.753 . S
C837 C13 0.752 . S
C853 C373 0.752 . S
C855 C228 0.752 . S
C871 C58 0.752 . S
C873 C249 0.752 . S
C889 C270 0.752 . S
C891 C457 0.752 . S
C907 C291 0.752 . S
C909 C142 0.752 . S
C925 C312 0.752 . S
C927 C499 0.752 . S
C943 C100 0.752 . S
C945 C333 0.753 . S
C961 C247 0.752 . S
C963 C351 0.752 . S
C979 C520 0.752 . S
C981 C375 0.753 . S
C997 C205 0.752 . S
C999 C396 0.752 . S
C1015 C417 0.752 . S
C1017 C562 0.752 . S
C1033 C289 0.752 . S
C1035 C438 0.752 . S
C1051 C646 0.752 . S
C1053 C459 0.752 . S
C1069 C331 0.752 . S
C1071 C480 0.752 . S
C1087 C501 0.753 . S
C1089 C604 0.752 . S
C1105 C522 0.752 . S
C1107 C79 0.752 . S
C1123 C543 0.753 . S
C1125 C349 0.752 . S
C1141 C564 0.752 . S
C1143 C37 0.752 . S
C1159 C585 0.752 . S
C1161 C394 0.752 . S
C1177 C121 0.752 . S
C1179 C606 0.752 . S
C1195 C478 0.752 . S
C1197 C627 0.752 . S
C1213 C648 0.752 . S
C1215 C163 0.752 . S
C1231 C669 0.753 . S
C1233 C436 0.752 . S
C1249 C17 1.412 . S
C1251 C392 1.412 . S
C1267 C413 1.412 . S
C1269 C35 1.412 . S
C1285 C56 1.412 . S
C1287 C353 1.412 . S
C1303 C77 1.412 . S
C1305 C371 1.412 . S
C1321 C476 1.412 . S
C1323 C98 1.412 . S
C1339 C119 1.412 . S
C1341 C497 1.412 . S
C1357 C434 1.412 . S
C1359 C140 1.412 . S
C1375 C161 1.412 . S
C1377 C455 1.412 . S
C1393 C560 1.412 . S
C1395 C182 1.412 . S
C1411 C203 1.412 . S
C1413 C581 1.412 . S
C1429 C224 1.412 . S
C1431 C518 1.412 . S
C1447 C245 1.412 . S
C1449 C539 1.412 . S
C1465 C644 1.412 . S
C1467 C266 1.412 . S
C1483 C665 1.412 . S
C1485 C287 1.412 . S
C1501 C308 1.412 . S
C1503 C602 1.412 . S
C1519 C329 1.412 . S
C1521 C623 1.412 . S
C1537 C16 1.230 . S
C1539 C517 1.230 . S
C1555 C202 1.230 . S
C1557 C34 1.230 . S
C1573 C55 1.230 . S
C1575 C559 1.230 . S
C1591 C76 1.230 . S
C1593 C244 1.230 . S
C1609 C601 1.230 . S
C1611 C97 1.230 . S
C1627 C286 1.230 . S
C1629 C118 1.230 . S
C1645 C139 1.230 . S
C1647 C643 1.230 . S
C1663 C160 1.230 . S
C1665 C328 1.230 . S
C1681 C352 1.230 . S
C1683 C181 1.230 . S
C1699 C391 1.230 . S
C1701 C223 1.230 . S
C1717 C433 1.230 . S
C1719 C265 1.230 . S
C1735 C307 1.230 . S
C1737 C475 1.230 . S
C1753 C370 1.230 . S
C1755 C538 1.230 . S
C1771 C412 1.230 . S
C1773 C580 1.230 . S
C1789 C622 1.230 . S
C1791 C454 1.230 . S
C1807 C664 1.230 . S
C1809 C496 1.230 . S
C1825 C18 1.898 . S
C1827 C120 1.898 1_545 S
C1843 C141 1.898 . S
C1845 C36 1.898 1_545 S
C1861 C162 1.898 1_565 S
C1863 C57 1.898 . S
C1879 C99 1.898 . S
C1881 C78 1.898 1_565 S
C1897 C183 1.898 . S
C1899 C288 1.898 1_565 S
C1915 C204 1.898 1_565 S
C1917 C309 1.898 . S
C1933 C330 1.898 1_545 S
C1935 C225 1.898 . S
C1951 C246 1.898 1_545 S
C1953 C267 1.898 . S
C1969 C354 1.898 . S
C1971 C456 1.898 . S
C1987 C372 1.898 . S
C1989 C477 1.898 . S
C2005 C393 1.898 . S
C2007 C498 1.898 . S
C2023 C435 1.898 . S
C2025 C414 1.898 . S
C2041 C519 1.898 . S
C2043 C624 1.898 . S
C2059 C540 1.898 . S
C2061 C645 1.898 . S
C2077 C666 1.898 . S
C2079 C561 1.898 . S
C2095 C582 1.898 . S
C2097 C603 1.898 . S
C2113 C14 1.789 . S
C2115 C101 1.789 . S
C2131 C38 1.789 . S
C2133 C122 1.789 . S
C2149 C143 1.789 . S
C2151 C59 1.789 . S
C2167 C164 1.789 . S
C2169 C80 1.789 . S
C2185 C185 1.789 . S
C2187 C269 1.789 . S
C2203 C290 1.789 . S
C2205 C206 1.789 . S
C2221 C311 1.789 . S
C2223 C227 1.789 . S
C2239 C332 1.789 . S
C2241 C248 1.789 . S
C2257 C350 1.789 . S
C2259 C437 1.789 . S
C2275 C458 1.789 . S
C2277 C374 1.789 . S
C2293 C395 1.789 . S
C2295 C479 1.789 . S
C2311 C500 1.789 . S
C2313 C416 1.789 . S
C2329 C605 1.789 . S
C2331 C521 1.789 . S
C2347 C542 1.789 . S
C2349 C626 1.789 . S
C2365 C563 1.789 . S
C2367 C647 1.789 . S
C2383 C584 1.789 . S
C2385 C668 1.789 . S
