# Generated by pormake.
# Topology sxg, (6)-cn, num edge types: 1
# Building blocks:
#     Node 0, Type 0, BuildingBlock: PAMTUU_clean_sbu_0, # of connection points: 6
#     Node 1, Type 0, BuildingBlock: PAMTUU_clean_sbu_0, # of connection points: 6
#     Node 2, Type 0, BuildingBlock: PAMTUU_clean_sbu_0, # of connection points: 6
#     Node 3, Type 0, BuildingBlock: PAMTUU_clean_sbu_0, # of connection points: 6
#     Node 4, Type 0, BuildingBlock: PAMTUU_clean_sbu_0, # of connection points: 6
#     Node 5, Type 0, BuildingBlock: PAMTUU_clean_sbu_0, # of connection points: 6
#     Node 6, Type 0, BuildingBlock: PAMTUU_clean_sbu_0, # of connection points: 6
#     Node 7, Type 0, BuildingBlock: PAMTUU_clean_sbu_0, # of connection points: 6
#     Node 8, Type 0, BuildingBlock: PAMTUU_clean_sbu_0, # of connection points: 6
#     Node 9, Type 0, BuildingBlock: PAMTUU_clean_sbu_0, # of connection points: 6
#     Node 10, Type 0, BuildingBlock: PAMTUU_clean_sbu_0, # of connection points: 6
#     Node 11, Type 0, BuildingBlock: PAMTUU_clean_sbu_0, # of connection points: 6
#     Node 12, Type 0, BuildingBlock: PAMTUU_clean_sbu_0, # of connection points: 6
#     Node 13, Type 0, BuildingBlock: PAMTUU_clean_sbu_0, # of connection points: 6
#     Node 14, Type 0, BuildingBlock: PAMTUU_clean_sbu_0, # of connection points: 6
#     Node 15, Type 0, BuildingBlock: PAMTUU_clean_sbu_0, # of connection points: 6
#     Node 16, Type 0, BuildingBlock: PAMTUU_clean_sbu_0, # of connection points: 6
#     Node 17, Type 0, BuildingBlock: PAMTUU_clean_sbu_0, # of connection points: 6
#     Node 18, Type 0, BuildingBlock: PAMTUU_clean_sbu_0, # of connection points: 6
#     Node 19, Type 0, BuildingBlock: PAMTUU_clean_sbu_0, # of connection points: 6
#     Node 20, Type 0, BuildingBlock: PAMTUU_clean_sbu_0, # of connection points: 6
#     Node 21, Type 0, BuildingBlock: PAMTUU_clean_sbu_0, # of connection points: 6
#     Node 22, Type 0, BuildingBlock: PAMTUU_clean_sbu_0, # of connection points: 6
#     Node 23, Type 0, BuildingBlock: PAMTUU_clean_sbu_0, # of connection points: 6
#     Edge 24, Type (0, 0), BuildingBlock: ZUJKAS_clean_linker_0, # of connection points: 2
#     Edge 25, Type (0, 0), BuildingBlock: ZUJKAS_clean_linker_0, # of connection points: 2
#     Edge 26, Type (0, 0), BuildingBlock: ZUJKAS_clean_linker_0, # of connection points: 2
#     Edge 27, Type (0, 0), BuildingBlock: ZUJKAS_clean_linker_0, # of connection points: 2
#     Edge 28, Type (0, 0), BuildingBlock: ZUJKAS_clean_linker_0, # of connection points: 2
#     Edge 29, Type (0, 0), BuildingBlock: ZUJKAS_clean_linker_0, # of connection points: 2
#     Edge 30, Type (0, 0), BuildingBlock: ZUJKAS_clean_linker_0, # of connection points: 2
#     Edge 31, Type (0, 0), BuildingBlock: ZUJKAS_clean_linker_0, # of connection points: 2
#     Edge 32, Type (0, 0), BuildingBlock: ZUJKAS_clean_linker_0, # of connection points: 2
#     Edge 33, Type (0, 0), BuildingBlock: ZUJKAS_clean_linker_0, # of connection points: 2
#     Edge 34, Type (0, 0), BuildingBlock: ZUJKAS_clean_linker_0, # of connection points: 2
#     Edge 35, Type (0, 0), BuildingBlock: ZUJKAS_clean_linker_0, # of connection points: 2
#     Edge 36, Type (0, 0), BuildingBlock: ZUJKAS_clean_linker_0, # of connection points: 2
#     Edge 37, Type (0, 0), BuildingBlock: ZUJKAS_clean_linker_0, # of connection points: 2
#     Edge 38, Type (0, 0), BuildingBlock: ZUJKAS_clean_linker_0, # of connection points: 2
#     Edge 39, Type (0, 0), BuildingBlock: ZUJKAS_clean_linker_0, # of connection points: 2
#     Edge 40, Type (0, 0), BuildingBlock: ZUJKAS_clean_linker_0, # of connection points: 2
#     Edge 41, Type (0, 0), BuildingBlock: ZUJKAS_clean_linker_0, # of connection points: 2
#     Edge 42, Type (0, 0), BuildingBlock: ZUJKAS_clean_linker_0, # of connection points: 2
#     Edge 43, Type (0, 0), BuildingBlock: ZUJKAS_clean_linker_0, # of connection points: 2
#     Edge 44, Type (0, 0), BuildingBlock: ZUJKAS_clean_linker_0, # of connection points: 2
#     Edge 45, Type (0, 0), BuildingBlock: ZUJKAS_clean_linker_0, # of connection points: 2
#     Edge 46, Type (0, 0), BuildingBlock: ZUJKAS_clean_linker_0, # of connection points: 2
#     Edge 47, Type (0, 0), BuildingBlock: ZUJKAS_clean_linker_0, # of connection points: 2
#     Edge 48, Type (0, 0), BuildingBlock: ZUJKAS_clean_linker_0, # of connection points: 2
#     Edge 49, Type (0, 0), BuildingBlock: ZUJKAS_clean_linker_0, # of connection points: 2
#     Edge 50, Type (0, 0), BuildingBlock: ZUJKAS_clean_linker_0, # of connection points: 2
#     Edge 51, Type (0, 0), BuildingBlock: ZUJKAS_clean_linker_0, # of connection points: 2
#     Edge 52, Type (0, 0), BuildingBlock: ZUJKAS_clean_linker_0, # of connection points: 2
#     Edge 53, Type (0, 0), BuildingBlock: ZUJKAS_clean_linker_0, # of connection points: 2
#     Edge 54, Type (0, 0), BuildingBlock: ZUJKAS_clean_linker_0, # of connection points: 2
#     Edge 55, Type (0, 0), BuildingBlock: ZUJKAS_clean_linker_0, # of connection points: 2
#     Edge 56, Type (0, 0), BuildingBlock: ZUJKAS_clean_linker_0, # of connection points: 2
#     Edge 57, Type (0, 0), BuildingBlock: ZUJKAS_clean_linker_0, # of connection points: 2
#     Edge 58, Type (0, 0), BuildingBlock: ZUJKAS_clean_linker_0, # of connection points: 2
#     Edge 59, Type (0, 0), BuildingBlock: ZUJKAS_clean_linker_0, # of connection points: 2
#     Edge 60, Type (0, 0), BuildingBlock: ZUJKAS_clean_linker_0, # of connection points: 2
#     Edge 61, Type (0, 0), BuildingBlock: ZUJKAS_clean_linker_0, # of connection points: 2
#     Edge 62, Type (0, 0), BuildingBlock: ZUJKAS_clean_linker_0, # of connection points: 2
#     Edge 63, Type (0, 0), BuildingBlock: ZUJKAS_clean_linker_0, # of connection points: 2
#     Edge 64, Type (0, 0), BuildingBlock: ZUJKAS_clean_linker_0, # of connection points: 2
#     Edge 65, Type (0, 0), BuildingBlock: ZUJKAS_clean_linker_0, # of connection points: 2
#     Edge 66, Type (0, 0), BuildingBlock: ZUJKAS_clean_linker_0, # of connection points: 2
#     Edge 67, Type (0, 0), BuildingBlock: ZUJKAS_clean_linker_0, # of connection points: 2
#     Edge 68, Type (0, 0), BuildingBlock: ZUJKAS_clean_linker_0, # of connection points: 2
#     Edge 69, Type (0, 0), BuildingBlock: ZUJKAS_clean_linker_0, # of connection points: 2
#     Edge 70, Type (0, 0), BuildingBlock: ZUJKAS_clean_linker_0, # of connection points: 2
#     Edge 71, Type (0, 0), BuildingBlock: ZUJKAS_clean_linker_0, # of connection points: 2
#     Edge 72, Type (0, 0), BuildingBlock: ZUJKAS_clean_linker_0, # of connection points: 2
#     Edge 73, Type (0, 0), BuildingBlock: ZUJKAS_clean_linker_0, # of connection points: 2
#     Edge 74, Type (0, 0), BuildingBlock: ZUJKAS_clean_linker_0, # of connection points: 2
#     Edge 75, Type (0, 0), BuildingBlock: ZUJKAS_clean_linker_0, # of connection points: 2
#     Edge 76, Type (0, 0), BuildingBlock: ZUJKAS_clean_linker_0, # of connection points: 2
#     Edge 77, Type (0, 0), BuildingBlock: ZUJKAS_clean_linker_0, # of connection points: 2
#     Edge 78, Type (0, 0), BuildingBlock: ZUJKAS_clean_linker_0, # of connection points: 2
#     Edge 79, Type (0, 0), BuildingBlock: ZUJKAS_clean_linker_0, # of connection points: 2
#     Edge 80, Type (0, 0), BuildingBlock: ZUJKAS_clean_linker_0, # of connection points: 2
#     Edge 81, Type (0, 0), BuildingBlock: ZUJKAS_clean_linker_0, # of connection points: 2
#     Edge 82, Type (0, 0), BuildingBlock: ZUJKAS_clean_linker_0, # of connection points: 2
#     Edge 83, Type (0, 0), BuildingBlock: ZUJKAS_clean_linker_0, # of connection points: 2
#     Edge 84, Type (0, 0), BuildingBlock: ZUJKAS_clean_linker_0, # of connection points: 2
#     Edge 85, Type (0, 0), BuildingBlock: ZUJKAS_clean_linker_0, # of connection points: 2
#     Edge 86, Type (0, 0), BuildingBlock: ZUJKAS_clean_linker_0, # of connection points: 2
#     Edge 87, Type (0, 0), BuildingBlock: ZUJKAS_clean_linker_0, # of connection points: 2
#     Edge 88, Type (0, 0), BuildingBlock: ZUJKAS_clean_linker_0, # of connection points: 2
#     Edge 89, Type (0, 0), BuildingBlock: ZUJKAS_clean_linker_0, # of connection points: 2
#     Edge 90, Type (0, 0), BuildingBlock: ZUJKAS_clean_linker_0, # of connection points: 2
#     Edge 91, Type (0, 0), BuildingBlock: ZUJKAS_clean_linker_0, # of connection points: 2
#     Edge 92, Type (0, 0), BuildingBlock: ZUJKAS_clean_linker_0, # of connection points: 2
#     Edge 93, Type (0, 0), BuildingBlock: ZUJKAS_clean_linker_0, # of connection points: 2
#     Edge 94, Type (0, 0), BuildingBlock: ZUJKAS_clean_linker_0, # of connection points: 2
#     Edge 95, Type (0, 0), BuildingBlock: ZUJKAS_clean_linker_0, # of connection points: 2
# Relax obj value: 0.184
# Max RMSD: 0.263
# Mean RMSD: 0.244
data_MOF--net-sxg--node1-PAMTUU_clean_sbu_0--edge1-ZUJKAS_clean_linker_0
_symmetry_space_group_name_H-M    P1
_symmetry_Int_Tables_number       1
_symmetry_cell_setting            triclinic
loop_
_symmetry_equiv_pos_as_xyz
'x, y, z'
_cell_length_a     63.263424
_cell_length_b     68.914277
_cell_length_c     63.558351
_cell_angle_alpha  87.009074
_cell_angle_beta   96.901505
_cell_angle_gamma 86.847499
loop_
_atom_site_label
_atom_site_type_symbol
_atom_site_fract_x
_atom_site_fract_y
_atom_site_fract_z
_atom_type_partial_charge
Tb0 Tb 1.01228 0.25986 0.23335 0.0
Tb1 Tb 1.00577 0.30765 0.22571 0.0
C2 C 0.97983 0.2807 0.1968 0.0
C3 C 0.03549 0.20984 0.24987 0.0
C4 C 0.06923 0.18427 0.27016 0.0
C5 C 0.04783 0.1796 0.27016 0.0
C6 C 0.03117 0.19225 0.26009 0.0
C7 C 0.05676 0.21466 0.24984 0.0
C8 C 0.07346 0.20196 0.25978 0.0
C9 C 0.01765 0.2233 0.24014 0.0
O10 O 0.04134 0.26867 0.22131 0.0
O11 O 0.02898 0.29834 0.20472 0.0
O12 O 0.03556 0.30267 0.24627 0.0
O13 O 0.03217 0.27136 0.25967 0.0
O14 O 0.99666 0.33169 0.20419 0.0
O15 O 1.00604 0.33559 0.23738 0.0
O16 O 0.99112 0.30002 0.25401 0.0
O17 O 0.98333 0.26882 0.24693 0.0
O18 O 0.99453 0.26646 0.20185 0.0
O19 O 0.9782 0.29507 0.2093 0.0
C20 C 0.0434 0.28357 0.20805 0.0
O21 O 1.0095 0.23487 0.25301 0.0
O22 O 0.02006 0.23249 0.22221 0.0
C23 C 0.04123 0.2881 0.26034 0.0
C24 C 0.97863 0.35691 0.21994 0.0
C25 C 0.94258 0.3818 0.22381 0.0
C26 C 0.96286 0.38923 0.22384 0.0
C27 C 0.98072 0.37688 0.2219 0.0
C28 C 0.95844 0.3494 0.21977 0.0
C29 C 0.94054 0.36176 0.22159 0.0
C30 C 0.99772 0.34394 0.21919 0.0
C31 C 0.98113 0.2843 0.25795 0.0
H32 H 0.04387 0.16633 0.27827 0.0
H33 H 1.01484 0.18838 0.26049 0.0
H34 H 0.06047 0.22826 0.24219 0.0
H35 H 0.08969 0.20597 0.25917 0.0
H36 H 0.96491 0.40463 0.22527 0.0
H37 H 0.99621 0.38289 0.22215 0.0
H38 H 0.95658 0.33395 0.2185 0.0
H39 H 0.92519 0.35555 0.22175 0.0
Tb40 Tb 0.4322 0.72651 0.76865 0.0
Tb41 Tb 0.44559 0.68838 0.74361 0.0
C42 C 0.46075 0.72849 0.73169 0.0
C43 C 0.40844 0.77368 0.79015 0.0
C44 C 0.38449 0.8069 0.8014 0.0
C45 C 0.39961 0.80872 0.78699 0.0
C46 C 0.41137 0.79238 0.78147 0.0
C47 C 0.39292 0.77166 0.80408 0.0
C48 C 0.38101 0.78806 0.80955 0.0
C49 C 0.42397 0.7574 0.78703 0.0
O50 O 0.40993 0.72729 0.73967 0.0
O51 O 0.41154 0.69477 0.7329 0.0
O52 O 0.43209 0.67712 0.77109 0.0
O53 O 0.4107 0.70383 0.77703 0.0
O54 O 0.44934 0.67545 0.71495 0.0
O55 O 0.45884 0.65965 0.74498 0.0
O56 O 0.4743 0.69592 0.76376 0.0
O57 O 0.45761 0.71029 0.7894 0.0
O58 O 0.45949 0.73311 0.75133 0.0
O59 O 0.45061 0.71393 0.72417 0.0
C60 C 0.40188 0.71237 0.7301 0.0
O61 O 0.42173 0.73993 0.79506 0.0
O62 O 0.43117 0.75698 0.7687 0.0
C63 C 0.41597 0.68494 0.77947 0.0
C64 C 0.48189 0.65667 0.71917 0.0
C65 C 0.52504 0.64922 0.71352 0.0
C66 C 0.51094 0.63407 0.71296 0.0
C67 C 0.48953 0.63778 0.71582 0.0
C68 C 0.49575 0.67191 0.71925 0.0
C69 C 0.5171 0.66823 0.71638 0.0
C70 C 0.46019 0.6603 0.7247 0.0
C71 C 0.47465 0.70172 0.78321 0.0
H72 H 0.40314 0.82289 0.78062 0.0
H73 H 0.42352 0.79454 0.77107 0.0
H74 H 0.39042 0.75752 0.81129 0.0
H75 H 0.36932 0.78598 0.82046 0.0
H76 H 0.51661 0.61922 0.71107 0.0
H77 H 0.47911 0.62583 0.71601 0.0
H78 H 0.49018 0.6866 0.72203 0.0
H79 H 0.52744 0.68026 0.71661 0.0
Tb80 Tb 0.57498 0.2073 0.773 0.0
Tb81 Tb 0.56898 0.17134 0.80649 0.0
C82 C 0.55025 0.21274 0.81298 0.0
C83 C 0.57888 0.25676 0.74592 0.0
C84 C 0.58552 0.29669 0.74078 0.0
C85 C 0.59359 0.28602 0.75979 0.0
C86 C 0.59029 0.26617 0.76235 0.0
C87 C 0.56987 0.26759 0.72746 0.0
C88 C 0.5731 0.28739 0.72492 0.0
C89 C 0.57766 0.23553 0.74674 0.0
O90 O 0.59578 0.2121 0.80162 0.0
O91 O 0.60137 0.18067 0.81613 0.0
O92 O 0.58719 0.15794 0.78376 0.0
O93 O 0.59771 0.18449 0.76505 0.0
O94 O 0.5643 0.16006 0.83691 0.0
O95 O 0.56316 0.14177 0.81046 0.0
O96 O 0.53917 0.17829 0.78505 0.0
O97 O 0.55577 0.18648 0.7567 0.0
O98 O 0.55039 0.21736 0.79261 0.0
O99 O 0.56078 0.19713 0.82216 0.0
C100 C 0.60728 0.19876 0.81425 0.0
O101 O 0.59406 0.22526 0.75683 0.0
O102 O 0.55961 0.22872 0.75065 0.0
C103 C 0.59852 0.16561 0.76984 0.0
C104 C 0.53849 0.13645 0.83433 0.0
C105 C 0.49802 0.12201 0.83755 0.0
C106 C 0.51665 0.1096 0.84174 0.0
C107 C 0.5367 0.11677 0.84015 0.0
C108 C 0.52 0.149 0.83057 0.0
C109 C 0.49996 0.14187 0.83228 0.0
C110 C 0.55926 0.14326 0.82995 0.0
C111 C 0.53885 0.18064 0.76437 0.0
H112 H 0.60331 0.29275 0.77224 0.0
H113 H 0.59731 0.25804 0.77679 0.0
H114 H 0.56093 0.26058 0.71468 0.0
H115 H 0.56636 0.29531 0.71026 0.0
H116 H 0.51571 0.09429 0.84606 0.0
H117 H 0.55076 0.10684 0.8429 0.0
H118 H 0.52101 0.1642 0.82571 0.0
H119 H 0.48592 0.15175 0.82871 0.0
Tb120 Tb 0.99056 0.77905 0.27369 0.0
Tb121 Tb 1.00969 0.82177 0.2872 0.0
C122 C 0.0264 0.78375 0.31226 0.0
C123 C 0.95934 0.73474 0.25649 0.0
C124 C 0.92648 0.70948 0.24419 0.0
C125 C 0.94564 0.70882 0.23494 0.0
C126 C 0.96178 0.72126 0.24101 0.0
C127 C 0.94008 0.73584 0.26548 0.0
C128 C 0.92384 0.72338 0.25938 0.0
C129 C 0.97794 0.74588 0.26413 0.0
O130 O 0.96564 0.79339 0.28863 0.0
O131 O 0.98565 0.81457 0.30844 0.0
O132 O 0.98017 0.82953 0.26691 0.0
O133 O 0.97186 0.80079 0.25134 0.0
O134 O 0.02417 0.83839 0.31123 0.0
O135 O 1.01541 0.85082 0.27932 0.0
O136 O 0.02595 0.81373 0.26017 0.0
O137 O 0.02082 0.78083 0.26063 0.0
O138 O 1.00864 0.77557 0.30568 0.0
O139 O 0.03232 0.79879 0.30153 0.0
C140 C 0.96819 0.80496 0.30439 0.0
O141 O 0.98477 0.75831 0.25072 0.0
O142 O 0.97912 0.75226 0.28316 0.0
C143 C 0.96888 0.8198 0.25279 0.0
C144 C 0.04428 0.86421 0.29957 0.0
C145 C 0.08082 0.8863 0.30038 0.0
C146 C 0.06184 0.89406 0.30703 0.0
C147 C 0.04383 0.88313 0.30662 0.0
C148 C 0.06319 0.85619 0.29312 0.0
C149 C 0.08134 0.86713 0.2936 0.0
C150 C 0.0245 0.85368 0.29831 0.0
C151 C 0.03016 0.79617 0.25391 0.0
H152 H 0.94856 0.6982 0.2235 0.0
H153 H 0.97654 0.71993 0.234 0.0
H154 H 0.93773 0.74606 0.2775 0.0
H155 H 0.90925 0.72458 0.26667 0.0
H156 H 0.06092 0.90859 0.31271 0.0
H157 H 0.02939 0.88958 0.31167 0.0
H158 H 0.06382 0.84162 0.2875 0.0
H159 H 0.09562 0.86073 0.28824 0.0
Tb160 Tb 0.28775 0.04297 0.33472 0.0
Tb161 Tb 0.27602 0.01846 0.37804 0.0
C162 C 0.2586 1.00694 0.33371 0.0
C163 C 0.29977 0.07723 0.28739 0.0
C164 C 0.30997 0.10687 0.25818 0.0
C165 C 0.29289 0.09509 0.25287 0.0
C166 C 0.28788 0.08051 0.26727 0.0
C167 C 0.31638 0.08943 0.29313 0.0
C168 C 0.32133 0.10419 0.27871 0.0
C169 C 0.29634 0.05937 0.30037 0.0
O170 O 0.26544 0.06218 0.34787 0.0
O171 O 0.24864 0.0385 0.3651 0.0
O172 O 0.28855 0.04514 0.3898 0.0
O173 O 0.30504 0.05698 0.36157 0.0
O174 O 0.25162 1.00613 0.39276 0.0
O175 O 0.28389 1.00427 0.40849 0.0
O176 O 0.30697 1.00541 0.37216 0.0
O177 O 0.3061 0.0152 0.33691 0.0
O178 O 0.26056 0.02486 0.32616 0.0
O179 O 0.26928 1.00035 0.35175 0.0
C180 C 0.24885 0.05626 0.35631 0.0
O181 O 0.31069 0.05315 0.31612 0.0
O182 O 0.27704 0.05619 0.30436 0.0
C183 C 0.30097 0.05743 0.38153 0.0
C184 C 0.26224 0.97794 0.41519 0.0
C185 C 0.25391 0.93935 0.42809 0.0
C186 C 0.25989 0.95294 0.44318 0.0
C187 C 0.26395 0.97199 0.43678 0.0
C188 C 0.2569 0.96432 0.4 0.0
C189 C 0.25278 0.94522 0.40638 0.0
C190 C 0.26459 0.99865 0.40898 0.0
C191 C 0.31398 1.00387 0.35358 0.0
H192 H 0.28358 0.09693 0.23737 0.0
H193 H 0.27513 0.07123 0.26232 0.0
H194 H 0.32601 0.08716 0.30843 0.0
H195 H 0.33463 0.11295 0.28331 0.0
H196 H 0.26133 0.9489 0.46 0.0
H197 H 0.26806 0.98222 0.44878 0.0
H198 H 0.25542 0.96856 0.3832 0.0
H199 H 0.24808 0.93526 0.3943 0.0
Tb200 Tb 0.2565 0.01586 0.83068 0.0
Tb201 Tb 0.26959 0.02456 0.88049 0.0
C202 C 0.29414 0.04077 0.84597 0.0
C203 C 0.25331 0.98908 0.78311 0.0
C204 C 0.26522 0.95302 0.76792 0.0
C205 C 0.26825 0.97046 0.75652 0.0
C206 C 0.26229 0.98837 0.76406 0.0
C207 C 0.2503 0.97165 0.79457 0.0
C208 C 0.25605 0.95374 0.78692 0.0
C209 C 0.25003 0.00788 0.7924 0.0
O210 O 0.27113 0.98857 0.84453 0.0
O211 O 0.29098 0.99967 0.87376 0.0
O212 O 0.25032 0.99982 0.88211 0.0
O213 O 0.23331 1.00108 0.84777 0.0
O214 O 0.29395 0.03065 0.90423 0.0
O215 O 0.26141 0.02922 0.91096 0.0
O216 O 0.24065 0.04305 0.86953 0.0
O217 O 0.24287 0.04493 0.83374 0.0
O218 O 0.2889 0.02554 0.83551 0.0
O219 O 0.28312 0.04612 0.861 0.0
C220 C 0.28654 0.98608 0.86023 0.0
O221 O 0.23488 0.00938 0.80456 0.0
O222 O 0.26752 0.01486 0.80092 0.0
C223 C 0.23547 0.99437 0.86779 0.0
C224 C 0.28181 0.05253 0.92798 0.0
C225 C 0.28356 0.08836 0.94744 0.0
C226 C 0.28472 0.07068 0.9598 0.0
C227 C 0.28387 0.05293 0.95013 0.0
C228 C 0.28046 0.07008 0.91553 0.0
C229 C 0.28138 0.08784 0.92517 0.0
C230 C 0.28058 0.03385 0.91795 0.0
C231 C 0.23486 0.05128 0.85038 0.0
H232 H 0.27501 0.97024 0.74166 0.0
H233 H 0.26511 1.00167 0.75525 0.0
H234 H 0.24391 0.97187 0.80963 0.0
H235 H 0.25362 0.94047 0.79599 0.0
H236 H 0.28609 0.07055 0.97695 0.0
H237 H 0.28473 0.0395 0.95994 0.0
H238 H 0.27875 0.07003 0.89836 0.0
H239 H 0.28073 0.10112 0.91518 0.0
Tb240 Tb 0.77359 0.55473 0.68043 0.0
Tb241 Tb 0.7308 0.53561 0.65868 0.0
C242 C 0.77519 0.52251 0.64841 0.0
C243 C 0.81479 0.59045 0.69289 0.0
C244 C 0.8332 0.62673 0.6897 0.0
C245 C 0.83822 0.61188 0.67646 0.0
C246 C 0.82918 0.59392 0.6781 0.0
C247 C 0.80931 0.60548 0.70573 0.0
C248 C 0.81837 0.62346 0.7041 0.0
C249 C 0.80635 0.57097 0.69543 0.0
O250 O 0.76642 0.56939 0.64909 0.0
O251 O 0.73076 0.56421 0.64209 0.0
O252 O 0.72408 0.54844 0.68763 0.0
O253 O 0.74571 0.57339 0.6851 0.0
O254 O 0.71692 0.513 0.64222 0.0
O255 O 0.6975 0.53735 0.65091 0.0
O256 O 0.74473 0.51409 0.68371 0.0
O257 O 0.76676 0.53304 0.70438 0.0
O258 O 0.783 0.52748 0.66728 0.0
O259 O 0.75638 0.52967 0.63975 0.0
C260 C 0.74751 0.57382 0.63846 0.0
O261 O 0.78932 0.56972 0.70506 0.0
O262 O 0.80555 0.56044 0.67892 0.0
C263 C 0.72845 0.56636 0.69125 0.0
C264 C 0.68429 0.50626 0.65365 0.0
C265 C 0.66196 0.47694 0.6721 0.0
C266 C 0.67699 0.48701 0.68473 0.0
C267 C 0.68808 0.50153 0.67557 0.0
C268 C 0.66886 0.49676 0.64107 0.0
C269 C 0.65773 0.48222 0.65023 0.0
C270 C 0.69762 0.51994 0.64378 0.0
C271 C 0.75683 0.51692 0.70152 0.0
H272 H 0.84948 0.61402 0.66512 0.0
H273 H 0.83381 0.58263 0.66802 0.0
H274 H 0.7984 0.60324 0.7174 0.0
H275 H 0.81445 0.63449 0.71477 0.0
H276 H 0.68084 0.48312 0.70154 0.0
H277 H 0.70008 0.50867 0.68548 0.0
H278 H 0.66581 0.50024 0.62412 0.0
H279 H 0.64608 0.47487 0.64013 0.0
Tb280 Tb 0.73172 0.54725 0.22662 0.0
Tb281 Tb 0.75277 0.52627 0.18053 0.0
C282 C 0.76419 0.51735 0.23082 0.0
C283 C 0.70956 0.58189 0.26667 0.0
C284 C 0.70143 0.61117 0.29544 0.0
C285 C 0.72182 0.60807 0.28885 0.0
C286 C 0.72583 0.59362 0.27473 0.0
C287 C 0.68902 0.58553 0.27247 0.0
C288 C 0.68499 0.59996 0.28657 0.0
C289 C 0.7143 0.56382 0.25562 0.0
O290 O 0.7591 0.5633 0.21901 0.0
O291 O 0.77174 0.55149 0.18822 0.0
O292 O 0.7279 0.54704 0.16659 0.0
O293 O 0.72183 0.56509 0.19611 0.0
O294 O 0.77789 0.50575 0.17724 0.0
O295 O 0.75822 0.51985 0.14959 0.0
O296 O 0.72838 0.50692 0.18881 0.0
O297 O 0.71544 0.5203 0.21867 0.0
O298 O 0.75546 0.5259 0.24533 0.0
O299 O 0.75558 0.52534 0.21304 0.0
C300 C 0.77216 0.56349 0.20409 0.0
O301 O 0.70408 0.56091 0.23703 0.0
O302 O 0.73409 0.55702 0.25737 0.0
C303 C 0.71997 0.56246 0.17521 0.0
C304 C 0.77363 0.48806 0.14537 0.0
C305 C 0.77659 0.45339 0.123 0.0
C306 C 0.77682 0.47188 0.11251 0.0
C307 C 0.77539 0.4889 0.12353 0.0
C308 C 0.77326 0.46966 0.156 0.0
C309 C 0.77475 0.45254 0.14494 0.0
C310 C 0.77346 0.50656 0.15651 0.0
C311 C 0.71623 0.50667 0.20452 0.0
H312 H 0.73499 0.6162 0.29534 0.0
H313 H 0.74193 0.59111 0.27086 0.0
H314 H 0.67619 0.57663 0.26676 0.0
H315 H 0.66899 0.60206 0.29082 0.0
H316 H 0.77861 0.47326 0.09578 0.0
H317 H 0.77597 0.50283 0.11496 0.0
H318 H 0.77195 0.46846 0.17284 0.0
H319 H 0.77431 0.43863 0.15358 0.0
Tb320 Tb 0.33538 0.29417 0.08201 0.0
Tb321 Tb 0.37505 0.27153 0.06079 0.0
C322 C 0.32834 0.26442 0.04725 0.0
C323 C 0.28317 0.30527 0.10466 0.0
C324 C 0.24406 0.29932 0.12131 0.0
C325 C 0.24425 0.30825 0.1009 0.0
C326 C 0.2635 0.31124 0.09276 0.0
C327 C 0.2831 0.296 0.12492 0.0
C328 C 0.26378 0.29302 0.13311 0.0
C329 C 0.3033 0.31023 0.09619 0.0
O330 O 0.34573 0.26953 0.10413 0.0
O331 O 0.36516 0.24995 0.08392 0.0
O332 O 0.38849 0.28179 0.09085 0.0
O333 O 0.36473 0.30766 0.09411 0.0
O334 O 0.38559 0.24786 0.0443 0.0
O335 O 0.40675 0.27019 0.0539 0.0
O336 O 0.37173 0.30064 0.04507 0.0
O337 O 0.33811 0.31064 0.05223 0.0
O338 O 0.32388 0.2687 0.06617 0.0
O339 O 0.34538 0.27078 0.04011 0.0
C340 C 0.35549 0.25278 0.10094 0.0
O341 O 0.32146 0.30537 0.10775 0.0
O342 O 0.30437 0.30752 0.0762 0.0
C343 C 0.38363 0.29832 0.09904 0.0
C344 C 0.41321 0.25414 0.02304 0.0
C345 C 0.43177 0.25344 0.98461 0.0
C346 C 0.44135 0.2426 1.00302 0.0
C347 C 0.43219 0.24297 0.02196 0.0
C348 C 0.40336 0.26491 1.00476 0.0
C349 C 0.41253 0.26451 0.98567 0.0
C350 C 0.40445 0.25444 0.04356 0.0
C351 C 0.3544 0.31237 0.04131 0.0
H352 H 0.22946 0.313 0.09114 0.0
H353 H 0.26299 0.31854 0.07717 0.0
H354 H 0.29795 0.29135 0.13463 0.0
H355 H 0.26435 0.28626 0.14895 0.0
H356 H 0.4559 0.23362 1.00278 0.0
H357 H 0.44001 0.23451 0.03586 0.0
H358 H 0.38872 0.27369 1.00529 0.0
H359 H 0.40477 0.27312 0.97188 0.0
Tb360 Tb 0.82966 0.25616 0.97186 0.0
Tb361 Tb 0.83072 0.29871 0.94633 0.0
C362 C 0.85648 0.2624 0.93437 0.0
C363 C 0.82941 0.21304 1.01227 0.0
C364 C 0.83022 0.18805 0.04921 0.0
C365 C 0.84848 0.18938 0.03872 0.0
C366 C 0.84804 0.20166 0.02036 0.0
C367 C 0.81151 0.21238 0.02341 0.0
C368 C 0.81193 0.20007 0.04165 0.0
C369 C 0.82756 0.22322 0.9909 0.0
O370 O 0.85924 0.2675 0.98528 0.0
O371 O 0.85256 0.30027 0.9759 0.0
O372 O 0.80603 0.301 0.96727 0.0
O373 O 0.82079 0.27846 0.99326 0.0
O374 O 0.8398 0.31418 0.91994 0.0
O375 O 0.82477 0.32928 0.94362 0.0
O376 O 0.80706 0.28286 0.92668 0.0
O377 O 0.79906 0.26125 0.95273 0.0
O378 O 0.84214 0.2515 0.94153 0.0
O379 O 0.85803 0.28021 0.94039 0.0
C380 C 0.86333 0.28579 0.98774 0.0
O381 O 0.81138 0.23576 0.98568 0.0
O382 O 0.84481 0.22909 0.98385 0.0
C383 C 0.80937 0.29487 0.98739 0.0
C384 C 0.81989 0.34395 0.9083 0.0
C385 C 0.80264 0.37099 0.87461 0.0
C386 C 0.80784 0.37707 0.89531 0.0
C387 C 0.81643 0.36372 0.9119 0.0
C388 C 0.81383 0.33764 0.88787 0.0
C389 C 0.80529 0.35101 0.87122 0.0
C390 C 0.83205 0.33086 0.92532 0.0
C391 C 0.79488 0.26957 0.93359 0.0
H392 H 0.86276 0.18019 0.04406 0.0
H393 H 0.86198 0.2016 1.012 0.0
H394 H 0.79681 0.22079 1.01758 0.0
H395 H 0.79769 0.19956 0.04952 0.0
H396 H 0.80564 0.39225 0.89865 0.0
H397 H 0.82102 0.36899 0.92746 0.0
H398 H 0.81636 0.3225 0.88453 0.0
H399 H 0.80163 0.34578 0.85551 0.0
Tb400 Tb 0.70376 0.78677 0.47611 0.0
Tb401 Tb 0.66122 0.77069 0.4967 0.0
C402 C 0.70631 0.75368 0.51186 0.0
C403 C 0.75509 0.79518 0.45025 0.0
C404 C 0.79171 0.79426 0.4283 0.0
C405 C 0.79375 0.79159 0.45058 0.0
C406 C 0.77569 0.79212 0.4614 0.0
C407 C 0.75298 0.7971 0.42793 0.0
C408 C 0.77103 0.79659 0.41711 0.0
C409 C 0.73652 0.79954 0.46194 0.0
O410 O 0.6931 0.76481 0.45486 0.0
O411 O 0.66904 0.74909 0.47356 0.0
O412 O 0.64945 0.78426 0.46585 0.0
O413 O 0.67588 0.80522 0.46152 0.0
O414 O 0.64807 0.74834 0.5139 0.0
O415 O 0.62933 0.7748 0.5026 0.0
O416 O 0.6667 0.79865 0.51101 0.0
O417 O 0.70128 0.80274 0.50445 0.0
O418 O 0.71237 0.75844 0.49329 0.0
O419 O 0.68999 0.76321 0.51815 0.0
C420 C 0.68063 0.75043 0.45748 0.0
O421 O 0.71746 0.80079 0.45139 0.0
O422 O 0.73659 0.79155 0.48101 0.0
C423 C 0.65644 0.79957 0.45642 0.0
C424 C 0.61923 0.7579 0.53298 0.0
C425 C 0.59721 0.75752 0.56942 0.0
C426 C 0.58735 0.75202 0.54975 0.0
C427 C 0.5982 0.75224 0.53183 0.0
C428 C 0.62937 0.76329 0.55253 0.0
C429 C 0.61847 0.76304 0.5706 0.0
C430 C 0.62973 0.75813 0.51338 0.0
C431 C 0.68474 0.80745 0.51426 0.0
H432 H 0.80935 0.78945 0.45975 0.0
H433 H 0.77793 0.79087 0.47859 0.0
H434 H 0.73742 0.79983 0.41879 0.0
H435 H 0.76876 0.79893 0.39999 0.0
H436 H 0.57122 0.74729 0.5482 0.0
H437 H 0.59008 0.74796 0.51695 0.0
H438 H 0.6456 0.76777 0.55377 0.0
H439 H 0.62657 0.76749 0.5854 0.0
Tb440 Tb 0.17554 0.7305 0.55099 0.0
Tb441 Tb 0.1658 0.77426 0.56505 0.0
C442 C 0.14677 0.74025 0.58626 0.0
C443 C 0.17921 0.683 0.52326 0.0
C444 C 0.17856 0.6551 0.49224 0.0
C445 C 0.16983 0.65133 0.51125 0.0
C446 C 0.17021 0.66512 0.52659 0.0
C447 C 0.18708 0.68723 0.50388 0.0
C448 C 0.18677 0.67337 0.48851 0.0
C449 C 0.18209 0.69586 0.54107 0.0
O450 O 0.14568 0.74029 0.53188 0.0
O451 O 0.14712 0.77344 0.53369 0.0
O452 O 0.19495 0.77356 0.55055 0.0
O453 O 0.18569 0.75101 0.52689 0.0
O454 O 0.15583 0.79229 0.58802 0.0
O455 O 0.16484 0.80451 0.55862 0.0
O456 O 0.19067 0.76122 0.58973 0.0
O457 O 0.20396 0.73611 0.57181 0.0
O458 O 0.16332 0.72941 0.58204 0.0
O459 O 0.14125 0.75639 0.57475 0.0
C460 C 0.1395 0.75813 0.52446 0.0
O461 O 0.1959 0.70918 0.54024 0.0
O462 O 0.16495 0.70218 0.54877 0.0
C463 C 0.19595 0.76657 0.53197 0.0
C464 C 0.17717 0.81868 0.59018 0.0
C465 C 0.20795 0.83556 0.61799 0.0
C466 C 0.21415 0.82125 0.60464 0.0
C467 C 0.19888 0.81285 0.5909 0.0
C468 C 0.17091 0.83325 0.60306 0.0
C469 C 0.18619 0.84167 0.61686 0.0
C470 C 0.16117 0.80787 0.57791 0.0
C471 C 0.20559 0.74751 0.58775 0.0
H472 H 0.16364 0.63734 0.51477 0.0
H473 H 0.16419 0.6615 0.54148 0.0
H474 H 0.19406 0.70094 0.50086 0.0
H475 H 0.19337 0.6768 0.47391 0.0
H476 H 0.23077 0.81639 0.60499 0.0
H477 H 0.20399 0.8014 0.58125 0.0
H478 H 0.15418 0.83765 0.60293 0.0
H479 H 0.18088 0.85246 0.62718 0.0
Tb480 Tb 0.02805 0.70692 0.81609 0.0
Tb481 Tb 0.02107 0.75442 0.80666 0.0
C482 C 0.99071 0.7253 0.78294 0.0
C483 C 0.05544 0.65786 0.82191 0.0
C484 C 0.09104 0.63301 0.81647 0.0
C485 C 0.0713 0.62536 0.81918 0.0
C486 C 0.05366 0.6377 0.82188 0.0
C487 C 0.07511 0.66559 0.81939 0.0
C488 C 0.09279 0.65326 0.81677 0.0
C489 C 0.0365 0.67077 0.82341 0.0
O490 O 0.04122 0.71378 0.7867 0.0
O491 O 0.0497 0.74494 0.79285 0.0
O492 O 0.03972 0.74905 0.83796 0.0
O493 O 0.05586 0.72014 0.83115 0.0
O494 O 0.02391 0.7786 0.78593 0.0
O495 O 1.01246 0.78232 0.81609 0.0
O496 O 0.9929 0.74613 0.82072 0.0
O497 O 1.00582 0.71679 0.83783 0.0
O498 O 0.99709 0.71139 0.7976 0.0
O499 O 1.00037 0.7417 0.78168 0.0
C500 C 0.05138 0.72924 0.78211 0.0
O501 O 0.0384 0.68342 0.83798 0.0
O502 O 0.02715 0.67865 0.80538 0.0
C503 C 0.05448 0.73487 0.84321 0.0
C504 C 0.99734 0.80351 0.78711 0.0
C505 C 0.96385 0.82796 0.76465 0.0
C506 C 0.9833 0.83555 0.77242 0.0
C507 C 0.99987 0.82343 0.78353 0.0
C508 C 0.97796 0.79583 0.77955 0.0
C509 C 0.96136 0.80794 0.76846 0.0
C510 C 1.01526 0.79075 0.79789 0.0
C511 C 0.99138 0.73157 0.83462 0.0
H512 H 0.06951 0.60981 0.81927 0.0
H513 H 0.03856 0.63152 0.82372 0.0
H514 H 0.07669 0.68118 0.81914 0.0
H515 H 0.10769 0.65962 0.8145 0.0
H516 H 0.98568 0.85092 0.77006 0.0
H517 H 1.01474 0.8296 0.78921 0.0
H518 H 0.97577 0.78042 0.78203 0.0
H519 H 0.94672 0.80154 0.76251 0.0
Tb520 Tb 0.58559 0.32253 0.30131 0.0
Tb521 Tb 0.60472 0.28837 0.27348 0.0
C522 C 0.61747 0.33232 0.2699 0.0
C523 C 0.54523 0.35288 0.32298 0.0
C524 C 0.50172 0.36419 0.32305 0.0
C525 C 0.51771 0.37617 0.33124 0.0
C526 C 0.53929 0.37053 0.33121 0.0
C527 C 0.52939 0.34091 0.31471 0.0
C528 C 0.50785 0.34647 0.31482 0.0
C529 C 0.56786 0.34715 0.32246 0.0
O530 O 0.56639 0.3265 0.27008 0.0
O531 O 0.57284 0.29632 0.25759 0.0
O532 O 0.59195 0.27503 0.30157 0.0
O533 O 0.56535 0.29841 0.3005 0.0
O534 O 0.62821 0.27753 0.25547 0.0
O535 O 0.60028 0.26173 0.25928 0.0
O536 O 0.63026 0.29098 0.29878 0.0
O537 O 0.61222 0.30742 0.32261 0.0
O538 O 0.61322 0.3338 0.28942 0.0
O539 O 0.61151 0.31716 0.25917 0.0
C540 C 0.56155 0.31298 0.25669 0.0
O541 O 0.57384 0.32936 0.32966 0.0
O542 O 0.57526 0.35158 0.30463 0.0
C543 C 0.57327 0.281 0.30697 0.0
C544 C 0.63098 0.24314 0.2503 0.0
C545 C 0.65222 0.20781 0.2405 0.0
C546 C 0.63248 0.20772 0.24867 0.0
C547 C 0.62197 0.22514 0.25341 0.0
C548 C 0.65106 0.24315 0.24289 0.0
C549 C 0.66156 0.22575 0.23812 0.0
C550 C 0.61823 0.26189 0.25114 0.0
C551 C 0.62921 0.29736 0.31777 0.0
H552 H 0.51356 0.39005 0.33738 0.0
H553 H 0.55132 0.38002 0.33747 0.0
H554 H 0.5337 0.32725 0.30816 0.0
H555 H 0.49602 0.33677 0.30865 0.0
H556 H 0.62463 0.19428 0.25052 0.0
H557 H 0.60635 0.22454 0.25869 0.0
H558 H 0.65835 0.25674 0.23997 0.0
H559 H 0.67686 0.22643 0.2322 0.0
Tb560 Tb 0.46486 0.84622 0.23794 0.0
Tb561 Tb 0.45726 0.80784 0.26708 0.0
C562 C 0.43657 0.8494 0.27363 0.0
C563 C 0.49767 0.88124 0.21557 0.0
C564 C 0.53965 0.89288 0.21436 0.0
C565 C 0.52245 0.90221 0.20069 0.0
C566 C 0.50161 0.89642 0.20131 0.0
C567 C 0.51474 0.87192 0.22918 0.0
C568 C 0.53547 0.87772 0.22867 0.0
C569 C 0.47602 0.87468 0.21631 0.0
O570 O 0.48576 0.84775 0.26811 0.0
O571 O 0.48931 0.81524 0.27802 0.0
O572 O 0.46801 0.79825 0.23738 0.0
O573 O 0.48901 0.82354 0.23477 0.0
O574 O 0.43958 0.79426 0.28887 0.0
O575 O 0.46794 0.7798 0.27981 0.0
O576 O 0.42849 0.81126 0.24502 0.0
O577 O 0.43863 0.83229 0.21916 0.0
O578 O 0.43728 0.85376 0.25344 0.0
O579 O 0.44772 0.83398 0.28315 0.0
C580 C 0.49597 0.83281 0.27943 0.0
O581 O 0.4728 0.85767 0.20882 0.0
O582 O 0.46864 0.87626 0.23449 0.0
C583 C 0.4841 0.80613 0.22959 0.0
C584 C 0.44052 0.75974 0.28874 0.0
C585 C 0.42132 0.72381 0.29119 0.0
C586 C 0.44213 0.72465 0.2857 0.0
C587 C 0.45167 0.74242 0.28458 0.0
C588 C 0.41944 0.75896 0.29351 0.0
C589 C 0.40993 0.74119 0.29467 0.0
C590 C 0.4515 0.7781 0.29017 0.0
C591 C 0.42522 0.81994 0.22595 0.0
H592 H 0.52511 0.91377 0.18929 0.0
H593 H 0.48863 0.90369 0.1906 0.0
H594 H 0.51205 0.8601 0.24026 0.0
H595 H 0.54818 0.87041 0.23967 0.0
H596 H 0.4514 0.71147 0.2832 0.0
H597 H 0.46802 0.74249 0.28114 0.0
H598 H 0.41046 0.77201 0.29697 0.0
H599 H 0.39379 0.74101 0.29872 0.0
Tb600 Tb 0.02774 0.19142 0.75392 0.0
Tb601 Tb 0.04399 0.23541 0.76451 0.0
C602 C 0.06481 0.19702 0.78905 0.0
C603 C 0.99444 0.14737 0.75023 0.0
C604 C 0.95855 0.12478 0.75298 0.0
C605 C 0.97909 0.11578 0.75301 0.0
C606 C 0.99679 0.12696 0.75156 0.0
C607 C 0.97412 0.15643 0.75111 0.0
C608 C 0.95638 0.14527 0.75239 0.0
C609 C 1.01278 0.15879 0.74576 0.0
O610 O 1.00191 0.20598 0.7684 0.0
O611 O 0.0211 0.22855 0.78638 0.0
O612 O 1.01662 0.23921 0.73945 0.0
O613 O 0.02255 0.21001 0.72515 0.0
O614 O 0.05268 0.25493 0.78786 0.0
O615 O 0.05114 0.26381 0.75464 0.0
O616 O 0.06367 0.22538 0.741 0.0
O617 O 0.05886 0.19219 0.7415 0.0
O618 O 0.04619 0.18958 0.78514 0.0
O619 O 0.06846 0.2139 0.77998 0.0
C620 C 1.00404 0.21852 0.78333 0.0
O621 O 1.00822 0.1748 0.73391 0.0
O622 O 0.02761 0.1611 0.76138 0.0
C623 C 1.0143 0.22793 0.72329 0.0
C624 C 0.07517 0.28024 0.779 0.0
C625 C 0.1073 0.30652 0.79015 0.0
C626 C 0.09627 0.30728 0.76947 0.0
C627 C 0.08036 0.29438 0.76402 0.0
C628 C 0.08663 0.27909 0.79948 0.0
C629 C 0.10248 0.29202 0.80496 0.0
C630 C 0.05607 0.26875 0.77408 0.0
C631 C 0.06887 0.20765 0.73568 0.0
H632 H 0.98137 0.10007 0.75327 0.0
H633 H 1.01225 0.11963 0.75077 0.0
H634 H 0.97183 0.17216 0.75019 0.0
H635 H 0.94088 0.15269 0.75266 0.0
H636 H 0.09931 0.31836 0.75769 0.0
H637 H 0.07161 0.29594 0.74823 0.0
H638 H 0.08295 0.26856 0.81155 0.0
H639 H 0.11081 0.29078 0.82093 0.0
Tb640 Tb 0.75998 0.996 0.66081 0.0
Tb641 Tb 0.7467 0.97531 0.70598 0.0
C642 C 0.73373 0.95813 0.66129 0.0
C643 C 0.76986 0.03417 0.61954 0.0
C644 C 0.77601 0.07297 0.60532 0.0
C645 C 0.76672 0.05978 0.59127 0.0
C646 C 0.76372 0.04064 0.5983 0.0
C647 C 0.77889 0.04726 0.63377 0.0
C648 C 0.78198 0.06643 0.62673 0.0
C649 C 0.76633 0.01389 0.62651 0.0
O650 O 0.74227 0.0181 0.67615 0.0
O651 O 0.72213 0.99759 0.6932 0.0
O652 O 0.76693 0.99915 0.71584 0.0
O653 O 0.78191 1.00713 0.68519 0.0
O654 O 0.72147 0.96533 0.72157 0.0
O655 O 0.7532 0.96575 0.7383 0.0
O656 O 0.77586 0.95932 0.70114 0.0
O657 O 0.78149 0.96969 0.66692 0.0
O658 O 0.73575 0.97542 0.65221 0.0
O659 O 0.73964 0.95427 0.68175 0.0
C660 C 0.72578 0.01516 0.68627 0.0
O661 O 0.78137 1.00463 0.63971 0.0
O662 O 0.74748 0.01085 0.63184 0.0
C663 C 0.78085 0.00828 0.70559 0.0
C664 C 0.72968 0.94331 0.75229 0.0
C665 C 0.72067 0.91342 0.78193 0.0
C666 C 0.74188 0.91726 0.77931 0.0
C667 C 0.74634 0.9321 0.76476 0.0
C668 C 0.70854 0.93899 0.75438 0.0
C669 C 0.70409 0.92426 0.76893 0.0
C670 C 0.73363 0.96118 0.73948 0.0
C671 C 0.78631 0.95834 0.68449 0.0
H672 H 0.76152 0.06428 0.5748 0.0
H673 H 0.75653 0.03086 0.5871 0.0
H674 H 0.78363 0.04263 0.65029 0.0
H675 H 0.78938 0.07601 0.63801 0.0
H676 H 0.75507 0.90934 0.78913 0.0
H677 H 0.76281 0.93519 0.76381 0.0
H678 H 0.69532 0.9475 0.74524 0.0
H679 H 0.68758 0.92154 0.77021 0.0
Tb680 Tb 0.76684 0.99141 0.15934 0.0
Tb681 Tb 0.77645 0.99594 0.21029 0.0
C682 C 0.79773 0.02154 0.17754 0.0
C683 C 0.75851 0.96736 0.10896 0.0
C684 C 0.7553 0.93257 0.08762 0.0
C685 C 0.74455 0.95 0.07852 0.0
C686 C 0.7462 0.96728 0.08911 0.0
C687 C 0.76913 0.94998 0.11812 0.0
C688 C 0.76763 0.93278 0.10752 0.0
C689 C 0.75997 0.98542 0.12029 0.0
O690 O 0.78441 0.96428 0.17252 0.0
O691 O 0.80161 0.97589 0.20262 0.0
O692 O 0.75826 0.97012 0.20719 0.0
O693 O 0.74112 0.97875 0.17395 0.0
O694 O 0.79835 1.00065 0.23675 0.0
O695 O 0.76514 0.99728 0.23994 0.0
O696 O 0.74703 0.01293 0.19891 0.0
O697 O 0.75278 0.02046 0.16471 0.0
O698 O 0.79543 1.00734 0.16471 0.0
O699 O 0.78841 0.02148 0.19492 0.0
C700 C 0.79976 0.96262 0.18857 0.0
O701 O 0.74489 0.98917 0.13202 0.0
O702 O 0.77869 0.98826 0.13021 0.0
C703 C 0.74232 0.96865 0.19218 0.0
C704 C 0.7821 0.02198 0.25791 0.0
C705 C 0.78449 0.0595 0.27284 0.0
C706 C 0.79344 0.04313 0.28572 0.0
C707 C 0.79229 0.02448 0.27826 0.0
C708 C 0.77253 0.03819 0.24529 0.0
C709 C 0.77362 0.05682 0.25273 0.0
C710 C 0.78324 1.00297 0.2488 0.0
C711 C 0.74374 0.0246 0.18174 0.0
H712 H 0.73502 0.9503 0.06316 0.0
H713 H 0.73782 0.98054 0.08183 0.0
H714 H 0.77854 0.94967 0.13352 0.0
H715 H 0.77581 0.91955 0.11511 0.0
H716 H 0.80164 0.0448 0.30143 0.0
H717 H 0.79985 0.01211 0.28809 0.0
H718 H 0.76482 0.03652 0.22939 0.0
H719 H 0.76674 0.06915 0.24242 0.0
Tb720 Tb 0.29206 0.47957 0.38092 0.0
Tb721 Tb 0.25207 0.45918 0.35518 0.0
C722 C 0.29878 0.45079 0.34682 0.0
C723 C 0.33581 0.51114 0.38822 0.0
C724 C 0.35429 0.5419 0.36755 0.0
C725 C 0.34708 0.52603 0.35627 0.0
C726 C 0.33781 0.51087 0.36647 0.0
C727 C 0.34371 0.52651 0.39975 0.0
C728 C 0.35292 0.54178 0.38951 0.0
C729 C 0.32301 0.49687 0.39802 0.0
O730 O 0.27854 0.50154 0.35622 0.0
O731 O 0.25884 0.48267 0.33331 0.0
O732 O 0.23982 0.48498 0.36927 0.0
O733 O 0.26479 0.48291 0.39824 0.0
O734 O 0.23879 0.44621 0.3279 0.0
O735 O 0.22083 0.45035 0.35439 0.0
O736 O 0.25883 0.44224 0.38531 0.0
O737 O 0.29315 0.45027 0.39605 0.0
O738 O 0.30195 0.46856 0.35217 0.0
O739 O 0.28142 0.44255 0.35093 0.0
C740 C 0.26759 0.49909 0.33769 0.0
O741 O 0.30313 0.5028 0.39838 0.0
O742 O 0.32479 0.47918 0.39174 0.0
C743 C 0.24612 0.48957 0.3887 0.0
C744 C 0.21518 0.42244 0.33543 0.0
C745 C 0.20178 0.38423 0.33427 0.0
C746 C 0.19142 0.39917 0.32016 0.0
C747 C 0.19807 0.4181 0.32075 0.0
C748 C 0.22583 0.40761 0.34939 0.0
C749 C 0.21909 0.38862 0.3489 0.0
C750 C 0.22146 0.44254 0.3362 0.0
C751 C 0.27726 0.43884 0.39725 0.0
H752 H 0.34816 0.52553 0.33942 0.0
H753 H 0.33154 0.49927 0.35717 0.0
H754 H 0.34199 0.5271 0.41646 0.0
H755 H 0.35807 0.55389 0.39861 0.0
H756 H 0.17777 0.39634 0.30898 0.0
H757 H 0.18968 0.42942 0.30992 0.0
H758 H 0.23919 0.41078 0.36074 0.0
H759 H 0.2274 0.3774 0.3599 0.0
Tb760 Tb 0.27979 0.48923 0.85735 0.0
Tb761 Tb 0.30153 0.46816 0.81172 0.0
C762 C 0.31299 0.45352 0.86318 0.0
C763 C 0.25849 0.52817 0.89114 0.0
C764 C 0.255 0.56361 0.91202 0.0
C765 C 0.25694 0.54546 0.92356 0.0
C766 C 0.2586 0.52804 0.91326 0.0
C767 C 0.2568 0.54626 0.87951 0.0
C768 C 0.25504 0.56375 0.88982 0.0
C769 C 0.25875 0.50925 0.88077 0.0
O770 O 0.30387 0.5088 0.84901 0.0
O771 O 0.31739 0.49536 0.81946 0.0
O772 O 0.2774 0.48886 0.79258 0.0
O773 O 0.27741 0.49 0.82485 0.0
O774 O 0.32931 0.45393 0.80228 0.0
O775 O 0.30013 0.45878 0.78085 0.0
O776 O 0.27418 0.45201 0.81912 0.0
O777 O 0.26117 0.46382 0.84974 0.0
O778 O 0.30509 0.46902 0.87165 0.0
O779 O 0.31087 0.4505 0.84239 0.0
C780 C 0.31616 0.50909 0.83343 0.0
O781 O 0.25425 0.50943 0.86007 0.0
O782 O 0.27415 0.49623 0.88806 0.0
C783 C 0.26856 0.49753 0.80694 0.0
C784 C 0.32398 0.43277 0.7728 0.0
C785 C 0.33342 0.40257 0.7455 0.0
C786 C 0.31219 0.40921 0.747 0.0
C787 C 0.30755 0.42403 0.76041 0.0
C788 C 0.34513 0.42569 0.77197 0.0
C789 C 0.34978 0.41077 0.75863 0.0
C790 C 0.31966 0.45123 0.78339 0.0
C791 C 0.26099 0.45177 0.83393 0.0
H792 H 0.25664 0.54465 0.94058 0.0
H793 H 0.25961 0.51436 0.92264 0.0
H794 H 0.25667 0.54692 0.86245 0.0
H795 H 0.25381 0.5774 0.88038 0.0
H796 H 0.29906 0.40362 0.73708 0.0
H797 H 0.29106 0.42921 0.76031 0.0
H798 H 0.3582 0.43223 0.78106 0.0
H799 H 0.36631 0.40592 0.75837 0.0
Tb800 Tb 0.65925 0.7472 0.97962 0.0
Tb801 Tb 0.69965 0.72347 0.96026 0.0
C802 C 0.65172 0.7207 0.94106 0.0
C803 C 0.62021 0.7643 1.01658 0.0
C804 C 0.59948 0.76581 0.05376 0.0
C805 C 0.60441 0.74785 0.04531 0.0
C806 C 0.61471 0.74709 0.02696 0.0
C807 C 0.61563 0.78217 0.02519 0.0
C808 C 0.60546 0.78293 0.04356 0.0
C809 C 0.62931 0.7642 0.9961 0.0
O810 O 0.66193 0.71828 0.99583 0.0
O811 O 0.69581 0.70765 0.99008 0.0
O812 O 0.71141 0.74889 0.97591 0.0
O813 O 0.68847 0.74862 1.00081 0.0
O814 O 0.71371 0.71128 0.93515 0.0
O815 O 0.73039 0.70965 0.96691 0.0
O816 O 0.69189 0.74889 0.93862 0.0
O817 O 0.6696 0.76834 0.95631 0.0
O818 O 0.6469 0.7373 0.94907 0.0
O819 O 0.67018 0.71086 0.94692 0.0
C820 C 0.67906 0.70638 1.0004 0.0
O821 O 0.64808 0.77108 0.99559 0.0
O822 O 0.62723 0.74867 0.98531 0.0
C823 C 0.7059 0.75448 0.99402 0.0
C824 C 0.75199 0.71095 0.93874 0.0
C825 C 0.79137 0.71634 0.92243 0.0
C826 C 0.79087 0.70707 0.94262 0.0
C827 C 0.77148 0.70435 0.95059 0.0
C828 C 0.75238 0.72057 0.91871 0.0
C829 C 0.77183 0.72325 0.91068 0.0
C830 C 0.73169 0.70643 0.94707 0.0
C831 C 0.68135 0.76555 0.9407 0.0
H832 H 0.6003 0.73436 0.05287 0.0
H833 H 0.61807 0.73306 0.02076 0.0
H834 H 0.61954 0.79565 1.01743 0.0
H835 H 0.60172 0.79704 0.0494 0.0
H836 H 0.80551 0.70185 0.95235 0.0
H837 H 0.77173 0.69681 0.96602 0.0
H838 H 0.73766 0.72575 0.90906 0.0
H839 H 0.77148 0.73029 0.895 0.0
Tb840 Tb 0.20901 0.71586 0.09027 0.0
Tb841 Tb 0.20391 0.75936 0.06511 0.0
C842 C 0.22446 0.72287 0.04581 0.0
C843 C 0.21679 0.67068 0.1287 0.0
C844 C 0.22453 0.64721 0.1671 0.0
C845 C 0.21634 0.63935 0.14801 0.0
C846 C 0.2125 0.65095 0.12911 0.0
C847 C 0.22473 0.6788 0.14765 0.0
C848 C 0.22858 0.66716 0.16671 0.0
C849 C 0.21395 0.68183 0.108 0.0
O850 O 0.22998 0.73414 0.10973 0.0
O851 O 0.23558 0.75585 0.08281 0.0
O852 O 0.19248 0.7637 0.09591 0.0
O853 O 0.18607 0.73218 0.1064 0.0
O854 O 0.2187 0.78086 0.0486 0.0
O855 O 0.18637 0.78592 0.05558 0.0
O856 O 0.17415 0.74612 0.05629 0.0
O857 O 0.18608 0.71401 0.06145 0.0
O858 O 0.23007 0.71617 0.06552 0.0
O859 O 0.21163 0.73866 0.04157 0.0
C860 C 0.24108 0.74787 0.102 0.0
O861 O 0.19539 0.69083 0.10187 0.0
O862 O 0.22956 0.69222 0.10339 0.0
C863 C 0.18366 0.75109 0.10801 0.0
C864 C 0.19615 0.80373 0.02534 0.0
C865 C 0.1899 0.83017 0.98922 0.0
C866 C 0.17655 0.83151 1.00534 0.0
C867 C 0.1797 0.81849 0.0232 0.0
C868 C 0.20875 0.80166 1.0087 0.0
C869 C 0.20561 0.81472 0.9908 0.0
C870 C 0.20177 0.7928 0.04613 0.0
C871 C 0.1723 0.72783 0.05211 0.0
H872 H 0.21341 0.62404 0.1475 0.0
H873 H 0.20655 0.64437 0.11462 0.0
H874 H 0.22819 0.69402 0.14767 0.0
H875 H 0.2347 0.67377 0.1811 0.0
H876 H 0.16407 0.84303 1.00447 0.0
H877 H 0.16985 0.82051 0.03583 0.0
H878 H 0.22166 0.79052 1.00989 0.0
H879 H 0.21627 0.81333 0.97878 0.0
Tb880 Tb 0.37919 0.24152 0.54748 0.0
Tb881 Tb 0.33184 0.23068 0.56249 0.0
C882 C 0.37534 0.21688 0.58992 0.0
C883 C 0.4265 0.24897 0.51612 0.0
C884 C 0.45045 0.25054 0.4809 0.0
C885 C 0.4581 0.25816 0.50032 0.0
C886 C 0.44629 0.25738 0.51764 0.0
C887 C 0.41848 0.24168 0.49668 0.0
C888 C 0.43029 0.24251 0.47925 0.0
C889 C 0.41553 0.24685 0.53547 0.0
O890 O 0.36338 0.22434 0.52275 0.0
O891 O 0.34287 0.20747 0.54363 0.0
O892 O 0.32453 0.2489 0.53283 0.0
O893 O 0.35661 0.26291 0.53019 0.0
O894 O 0.31325 0.20876 0.57369 0.0
O895 O 0.29955 0.2379 0.56521 0.0
O896 O 0.33944 0.25706 0.57814 0.0
O897 O 0.37548 0.25914 0.57518 0.0
O898 O 0.38455 0.21828 0.57248 0.0
O899 O 0.35542 0.22334 0.59023 0.0
C900 C 0.35186 0.20943 0.52613 0.0
O901 O 0.40208 0.26089 0.53919 0.0
O902 O 0.40853 0.22986 0.53986 0.0
C903 C 0.336 0.26221 0.52474 0.0
C904 C 0.28222 0.21842 0.58973 0.0
C905 C 0.25062 0.21442 0.61775 0.0
C906 C 0.25762 0.19853 0.60677 0.0
C907 C 0.27315 0.20053 0.59298 0.0
C908 C 0.27577 0.23425 0.60107 0.0
C909 C 0.2602 0.23225 0.61495 0.0
C910 C 0.29622 0.22049 0.57265 0.0
C911 C 0.35786 0.26472 0.58328 0.0
H912 H 0.47329 0.26478 0.5022 0.0
H913 H 0.45285 0.26309 0.53243 0.0
H914 H 0.4033 0.23501 0.4951 0.0
H915 H 0.42388 0.23637 0.46467 0.0
H916 H 0.2505 0.18466 0.60813 0.0
H917 H 0.27757 0.18816 0.58423 0.0
H918 H 0.28237 0.24828 0.59886 0.0
H919 H 0.25552 0.24476 0.62332 0.0
Tb920 Tb 0.8668 0.23699 0.48335 0.0
Tb921 Tb 0.85464 0.28286 0.4868 0.0
C922 C 0.83949 0.24963 0.51703 0.0
C923 C 0.86874 0.19225 0.45687 0.0
C924 C 0.85266 0.18267 0.41578 0.0
C925 C 0.84093 0.1793 0.43285 0.0
C926 C 0.84895 0.1839 0.45324 0.0
C927 C 0.88117 0.19424 0.44002 0.0
C928 C 0.87319 0.18946 0.41963 0.0
C929 C 0.87441 0.20191 0.47682 0.0
O930 O 0.8336 0.24322 0.46829 0.0
O931 O 0.83625 0.27512 0.45797 0.0
O932 O 0.87867 0.2811 0.46437 0.0
O933 O 0.87277 0.25063 0.4535 0.0
O934 O 0.83134 0.30559 0.48787 0.0
O935 O 0.86468 0.3113 0.48859 0.0
O936 O 0.87652 0.27477 0.51513 0.0
O937 O 0.8937 0.24784 0.50368 0.0
O938 O 0.85653 0.23912 0.51412 0.0
O939 O 0.83349 0.26569 0.50502 0.0
C940 C 0.82627 0.25903 0.45648 0.0
O941 O 0.88859 0.21495 0.47622 0.0
O942 O 0.85828 0.20809 0.48624 0.0
C943 C 0.88062 0.26758 0.45068 0.0
C944 C 0.84368 0.33266 0.50633 0.0
C945 C 0.84028 0.3606 0.53676 0.0
C946 C 0.84836 0.36539 0.51762 0.0
C947 C 0.85 0.35155 0.50256 0.0
C948 C 0.83586 0.32764 0.52552 0.0
C949 C 0.83407 0.34156 0.54059 0.0
C950 C 0.8455 0.31865 0.4899 0.0
C951 C 0.89252 0.26159 0.51728 0.0
H952 H 0.82527 0.17356 0.43032 0.0
H953 H 0.8391 0.18196 0.46592 0.0
H954 H 0.89655 0.20051 0.44228 0.0
H955 H 0.88261 0.19198 0.40671 0.0
H956 H 0.85298 0.37999 0.51407 0.0
H957 H 0.85608 0.35567 0.48784 0.0
H958 H 0.83107 0.31304 0.5288 0.0
H959 H 0.82792 0.33743 0.55526 0.0
H960 H 0.06672 0.25962 0.28455 0.0
H961 H 0.09854 0.26427 0.30963 0.0
H962 H 0.08821 0.32648 0.29777 0.0
H963 H 0.0567 0.32204 0.2731 0.0
H964 H 0.1345 0.28207 0.29936 0.0
H965 H 0.10103 0.32129 0.36207 0.0
H966 H 0.08505 0.30675 0.34419 0.0
H967 H 0.08923 0.33172 0.33667 0.0
C968 C 0.07105 0.27428 0.28766 0.0
C969 C 0.05925 0.29048 0.27684 0.0
C970 C 0.0892 0.27689 0.30195 0.0
C971 C 0.09546 0.29572 0.30587 0.0
C972 C 0.08335 0.31184 0.29543 0.0
H973 H 0.18957 0.36373 0.29988 0.0
H974 H 0.16903 0.33499 0.29907 0.0
C975 C 0.06545 0.30926 0.28111 0.0
C976 C 0.11581 0.29907 0.31881 0.0
H977 H 0.13552 0.33213 0.35268 0.0
C978 C 0.1349 0.29248 0.31161 0.0
C979 C 0.1165 0.31206 0.33532 0.0
C980 C 0.09682 0.31815 0.34516 0.0
C981 C 0.15417 0.30072 0.31835 0.0
C982 C 0.15408 0.31618 0.33215 0.0
C983 C 0.13562 0.32064 0.34166 0.0
C984 C 0.17078 0.3305 0.33328 0.0
C985 C 0.17411 0.29363 0.30955 0.0
C986 C 0.17883 0.33764 0.35277 0.0
C987 C 0.19024 0.35448 0.35322 0.0
C988 C 0.19363 0.36448 0.33417 0.0
C989 C 0.18694 0.35648 0.3148 0.0
C990 C 0.17551 0.33978 0.31435 0.0
H991 H 0.17442 0.27761 0.30821 0.0
H992 H 0.17414 0.30039 0.29331 0.0
H993 H 0.18877 0.29729 0.31962 0.0
H994 H 0.17523 0.33084 0.36757 0.0
H995 H 0.19513 0.36036 0.36839 0.0
H996 H 0.33502 0.52097 0.79854 0.0
H997 H 0.35085 0.55182 0.79174 0.0
H998 H 0.3398 0.56928 0.85385 0.0
H999 H 0.32325 0.53867 0.86053 0.0
H1000 H 0.32898 0.59879 0.82577 0.0
H1001 H 0.40854 0.56862 0.81186 0.0
H1002 H 0.38772 0.55941 0.79419 0.0
H1003 H 0.38926 0.55372 0.82235 0.0
C1004 C 0.33623 0.53118 0.81095 0.0
C1005 C 0.32798 0.52706 0.83022 0.0
C1006 C 0.34539 0.54891 0.80703 0.0
C1007 C 0.34697 0.56292 0.82238 0.0
C1008 C 0.3389 0.55879 0.8417 0.0
H1009 H 0.43043 0.65844 0.8115 0.0
H1010 H 0.41238 0.63031 0.82379 0.0
C1011 C 0.32952 0.54115 0.84556 0.0
C1012 C 0.35647 0.58203 0.81809 0.0
H1013 H 0.40032 0.60216 0.8015 0.0
C1014 C 0.34466 0.5995 0.82061 0.0
C1015 C 0.37707 0.58317 0.81162 0.0
C1016 C 0.39147 0.56523 0.81006 0.0
C1017 C 0.35266 0.61789 0.81657 0.0
C1018 C 0.37288 0.61901 0.80922 0.0
C1019 C 0.38476 0.60152 0.80696 0.0
C1020 C 0.38241 0.63795 0.80409 0.0
C1021 C 0.3395 0.63589 0.82073 0.0
C1022 C 0.37151 0.65227 0.78944 0.0
C1023 C 0.38173 0.66879 0.78286 0.0
C1024 C 0.40317 0.67113 0.79049 0.0
C1025 C 0.41378 0.65721 0.80564 0.0
C1026 C 0.4035 0.64097 0.81249 0.0
H1027 H 0.32828 0.63263 0.83243 0.0
H1028 H 0.34976 0.64746 0.82675 0.0
H1029 H 0.32986 0.64157 0.80571 0.0
H1030 H 0.35549 0.65021 0.78219 0.0
H1031 H 0.3734 0.67895 0.77065 0.0
H1032 H 0.60136 0.12585 0.77375 0.0
H1033 H 0.62327 0.10323 0.75616 0.0
H1034 H 0.6488 0.15129 0.72348 0.0
H1035 H 0.62681 0.17432 0.74121 0.0
H1036 H 0.62302 0.09949 0.7117 0.0
H1037 H 0.70254 0.11743 0.7507 0.0
H1038 H 0.67807 0.12431 0.76115 0.0
H1039 H 0.68525 0.13742 0.73819 0.0
C1040 C 0.61165 0.13176 0.76291 0.0
C1041 C 0.61229 0.15203 0.75901 0.0
C1042 C 0.62417 0.11872 0.75281 0.0
C1043 C 0.63784 0.1255 0.73863 0.0
C1044 C 0.63859 0.1457 0.73459 0.0
H1045 H 0.72913 0.0541 0.67623 0.0
H1046 H 0.70742 0.08175 0.68659 0.0
C1047 C 0.62593 0.15885 0.74467 0.0
C1048 C 0.65088 0.11117 0.72801 0.0
H1049 H 0.70194 0.09271 0.7265 0.0
C1050 C 0.6403 0.0981 0.71481 0.0
C1051 C 0.67342 0.10941 0.73196 0.0
C1052 C 0.6856 0.12276 0.74637 0.0
C1053 C 0.65157 0.08318 0.70574 0.0
C1054 C 0.67406 0.0809 0.71035 0.0
C1055 C 0.68471 0.09437 0.72299 0.0
C1056 C 0.68669 0.0641 0.70315 0.0
C1057 C 0.63921 0.07002 0.69122 0.0
C1058 C 0.68239 0.04491 0.70903 0.0
C1059 C 0.69469 0.02908 0.70306 0.0
C1060 C 0.71178 0.03201 0.6912 0.0
C1061 C 0.71603 0.05125 0.68524 0.0
C1062 C 0.70367 0.06711 0.69121 0.0
H1063 H 0.62375 0.07728 0.68393 0.0
H1064 H 0.64846 0.06545 0.67834 0.0
H1065 H 0.63568 0.0568 0.70056 0.0
H1066 H 0.66976 0.04216 0.71867 0.0
H1067 H 0.69104 0.01453 0.70815 0.0
H1068 H 0.93048 0.80694 0.23522 0.0
H1069 H 0.89916 0.82721 0.21822 0.0
H1070 H 0.93522 0.87834 0.22421 0.0
H1071 H 0.96627 0.85839 0.24099 0.0
H1072 H 0.87872 0.85754 0.23759 0.0
H1073 H 0.90604 0.88594 0.16316 0.0
H1074 H 0.91888 0.86474 0.1784 0.0
H1075 H 0.92503 0.88879 0.18596 0.0
C1076 C 0.93185 0.82243 0.23239 0.0
C1077 C 0.9509 0.83103 0.23943 0.0
C1078 C 0.91392 0.83402 0.22279 0.0
C1079 C 0.91486 0.85432 0.21968 0.0
C1080 C 0.93413 0.86272 0.22601 0.0
H1081 H 0.82937 0.95252 0.22283 0.0
H1082 H 0.85492 0.92444 0.22832 0.0
C1083 C 0.95189 0.85126 0.23574 0.0
C1084 C 0.89545 0.86715 0.21176 0.0
H1085 H 0.87735 0.90485 0.17578 0.0
C1086 C 0.87825 0.86762 0.22383 0.0
C1087 C 0.89465 0.88024 0.19369 0.0
C1088 C 0.91205 0.8798 0.17943 0.0
C1089 C 0.86098 0.88154 0.21909 0.0
C1090 C 0.86093 0.89552 0.20193 0.0
C1091 C 0.87746 0.89429 0.18907 0.0
C1092 C 0.84487 0.9124 0.19826 0.0
C1093 C 0.84312 0.88148 0.23282 0.0
C1094 C 0.83085 0.91528 0.17929 0.0
C1095 C 0.81603 0.93146 0.17605 0.0
C1096 C 0.81519 0.94522 0.19161 0.0
C1097 C 0.82945 0.9423 0.21046 0.0
C1098 C 0.84405 0.92613 0.21372 0.0
H1099 H 0.84227 0.86696 0.24104 0.0
H1100 H 0.84597 0.89221 0.24511 0.0
H1101 H 0.82749 0.88562 0.22327 0.0
H1102 H 0.8313 0.90495 0.16706 0.0
H1103 H 0.80538 0.93323 0.16134 0.0
H1104 H 0.36548 0.20846 0.48631 0.0
H1105 H 0.35847 0.18409 0.45981 0.0
H1106 H 0.32423 0.15167 0.50307 0.0
H1107 H 0.33076 0.17591 0.52928 0.0
H1108 H 0.36849 0.14439 0.46004 0.0
H1109 H 0.28079 0.15761 0.45081 0.0
H1110 H 0.2985 0.17386 0.46434 0.0
H1111 H 0.29163 0.15195 0.47795 0.0
C1112 C 0.35643 0.19616 0.49018 0.0
C1113 C 0.34855 0.19437 0.50998 0.0
C1114 C 0.35244 0.18218 0.47498 0.0
C1115 C 0.34039 0.16613 0.47913 0.0
C1116 C 0.33305 0.1641 0.4991 0.0
H1117 H 0.29605 0.06234 0.42321 0.0
H1118 H 0.30677 0.08896 0.44504 0.0
C1119 C 0.33696 0.17801 0.51422 0.0
C1120 C 0.33542 0.15143 0.46284 0.0
H1121 H 0.2941 0.12832 0.43712 0.0
C1122 C 0.35221 0.14105 0.45484 0.0
C1123 C 0.31417 0.14701 0.45581 0.0
C1124 C 0.29524 0.15833 0.46249 0.0
C1125 C 0.34838 0.12592 0.44091 0.0
C1126 C 0.32716 0.12108 0.43452 0.0
C1127 C 0.31039 0.13183 0.44205 0.0
C1128 C 0.32188 0.10433 0.42097 0.0
C1129 C 0.36713 0.11471 0.43378 0.0
C1130 C 0.32682 0.10383 0.39996 0.0
C1131 C 0.32062 0.08845 0.38722 0.0
C1132 C 0.30929 0.07319 0.39518 0.0
C1133 C 0.30473 0.07369 0.41635 0.0
C1134 C 0.31084 0.08901 0.42896 0.0
H1135 H 0.38239 0.11749 0.44342 0.0
H1136 H 0.36491 0.09883 0.43478 0.0
H1137 H 0.3684 0.11917 0.41698 0.0
H1138 H 0.33501 0.11558 0.3932 0.0
H1139 H 0.32432 0.08874 0.37101 0.0
H1140 H 0.22322 0.98712 0.90669 0.0
H1141 H 0.20853 0.9575 0.92 0.0
H1142 H 0.2051 0.93514 0.85766 0.0
H1143 H 0.21979 0.965 0.84411 0.0
H1144 H 0.16924 0.93682 0.90483 0.0
H1145 H 0.24699 0.89616 0.89962 0.0
H1146 H 0.24472 0.92241 0.89926 0.0
H1147 H 0.23397 0.91022 0.87652 0.0
C1148 C 0.21889 0.9761 0.89568 0.0
C1149 C 0.22265 0.97835 0.87438 0.0
C1150 C 0.21049 0.9592 0.90331 0.0
C1151 C 0.20594 0.94409 0.88987 0.0
C1152 C 0.20861 0.94664 0.86829 0.0
H1153 H 0.19339 0.82654 0.94678 0.0
H1154 H 0.1941 0.85281 0.91932 0.0
C1155 C 0.21682 0.96374 0.86054 0.0
C1156 C 0.20021 0.92523 0.89921 0.0
H1157 H 0.2224 0.88053 0.9183 0.0
C1158 C 0.18067 0.92434 0.90744 0.0
C1159 C 0.21513 0.90898 0.90251 0.0
C1160 C 0.23645 0.90934 0.89414 0.0
C1161 C 0.17596 0.90788 0.91961 0.0
C1162 C 0.19149 0.89215 0.92418 0.0
C1163 C 0.21054 0.89261 0.9149 0.0
C1164 C 0.18928 0.87607 0.94017 0.0
C1165 C 0.15454 0.90769 0.92775 0.0
C1166 C 0.18649 0.88037 0.96104 0.0
C1167 C 0.18609 0.86545 0.9767 0.0
C1168 C 0.1887 0.84582 0.97194 0.0
C1169 C 0.1914 0.8415 0.95099 0.0
C1170 C 0.19172 0.85649 0.93526 0.0
H1171 H 0.14221 0.91669 0.91699 0.0
H1172 H 0.1492 0.89267 0.92943 0.0
H1173 H 0.1557 0.91401 0.94353 0.0
H1174 H 0.18531 0.89533 0.96544 0.0
H1175 H 0.18454 0.86937 0.99275 0.0
H1176 H 0.86864 0.38726 0.55009 0.0
H1177 H 0.8628 0.41437 0.57253 0.0
H1178 H 0.80008 0.39558 0.58009 0.0
H1179 H 0.80587 0.36841 0.55778 0.0
H1180 H 0.83231 0.44367 0.56351 0.0
H1181 H 0.82278 0.40603 0.64056 0.0
H1182 H 0.83398 0.39376 0.61964 0.0
H1183 H 0.80551 0.39746 0.61898 0.0
C1184 C 0.85369 0.38881 0.55673 0.0
C1185 C 0.83768 0.37574 0.55216 0.0
C1186 C 0.85041 0.40425 0.56959 0.0
C1187 C 0.83111 0.40687 0.57819 0.0
C1188 C 0.8153 0.39357 0.57407 0.0
H1189 H 0.7636 0.5094 0.60917 0.0
H1190 H 0.78008 0.48217 0.59281 0.0
C1191 C 0.81861 0.37807 0.56128 0.0
C1192 C 0.82674 0.42443 0.58985 0.0
H1193 H 0.80944 0.43953 0.63549 0.0
C1194 C 0.82761 0.44277 0.57938 0.0
C1195 C 0.82089 0.42327 0.61065 0.0
C1196 C 0.82094 0.40407 0.6232 0.0
C1197 C 0.82183 0.45994 0.58876 0.0
C1198 C 0.81465 0.45869 0.60898 0.0
C1199 C 0.81475 0.44043 0.61988 0.0
C1200 C 0.80568 0.47599 0.61848 0.0
C1201 C 0.82328 0.47924 0.57684 0.0
C1202 C 0.81449 0.48145 0.63847 0.0
C1203 C 0.80503 0.49702 0.64796 0.0
C1204 C 0.78647 0.50726 0.63768 0.0
C1205 C 0.77793 0.50191 0.6175 0.0
C1206 C 0.7874 0.48639 0.60805 0.0
H1207 H 0.83501 0.47818 0.5652 0.0
H1208 H 0.80748 0.48382 0.56791 0.0
H1209 H 0.82792 0.49069 0.58786 0.0
H1210 H 0.82854 0.47351 0.64683 0.0
H1211 H 0.81196 0.50071 0.66356 0.0
H1212 H 0.71411 0.60179 0.18126 0.0
H1213 H 0.70291 0.62812 0.15389 0.0
H1214 H 0.69367 0.58575 0.10661 0.0
H1215 H 0.70429 0.55962 0.13362 0.0
H1216 H 0.72241 0.63762 0.11929 0.0
H1217 H 0.63997 0.62008 0.09159 0.0
H1218 H 0.6544 0.6094 0.11606 0.0
H1219 H 0.65834 0.5994 0.09109 0.0
C1220 C 0.70914 0.59807 0.16514 0.0
C1221 C 0.71009 0.5785 0.15977 0.0
C1222 C 0.70288 0.61316 0.14944 0.0
C1223 C 0.69715 0.60901 0.12811 0.0
C1224 C 0.6975 0.58945 0.12293 0.0
H1225 H 0.71039 0.67759 1.01318 0.0
H1226 H 0.71376 0.65518 0.0446 0.0
C1227 C 0.70377 0.57445 0.13849 0.0
C1228 C 0.69245 0.6249 0.11087 0.0
H1229 H 0.65705 0.64025 0.06735 0.0
C1230 C 0.70797 0.63833 0.10812 0.0
C1231 C 0.67352 0.62613 0.09632 0.0
C1232 C 0.65552 0.61311 0.09903 0.0
C1233 C 0.70552 0.65228 0.09084 0.0
C1234 C 0.68723 0.65266 0.07551 0.0
C1235 C 0.67126 0.63983 0.07879 0.0
C1236 C 0.68461 0.66597 0.05582 0.0
C1237 C 0.7226 0.66655 0.08925 0.0
C1238 C 0.66661 0.67906 0.05095 0.0
C1239 C 0.66448 0.69184 0.03273 0.0
C1240 C 0.68027 0.69178 1.01885 0.0
C1241 C 0.69795 0.67824 0.02349 0.0
C1242 C 0.70002 0.66547 0.04163 0.0
H1243 H 0.73166 0.66845 0.10503 0.0
H1244 H 0.73408 0.66093 0.07879 0.0
H1245 H 0.71569 0.681 0.08244 0.0
H1246 H 0.65437 0.67967 0.06148 0.0
H1247 H 0.65064 0.70202 0.02978 0.0
H1248 H 0.37829 0.3218 0.13225 0.0
H1249 H 0.40613 0.33061 0.1601 0.0
H1250 H 0.45398 0.30015 0.12924 0.0
H1251 H 0.42654 0.29124 0.10176 0.0
H1252 H 0.43532 0.3021 0.18708 0.0
H1253 H 0.47886 0.35384 0.14124 0.0
H1254 H 0.45161 0.34839 0.13288 0.0
H1255 H 0.47329 0.33181 0.12827 0.0
C1256 C 0.39479 0.3173 0.13125 0.0
C1257 C 0.40016 0.30581 0.11477 0.0
C1258 C 0.41068 0.32226 0.14721 0.0
C1259 C 0.43222 0.3162 0.14667 0.0
C1260 C 0.43757 0.30524 0.12989 0.0
H1261 H 0.54423 0.28616 0.23065 0.0
H1262 H 0.51169 0.28964 0.2057 0.0
C1263 C 0.42179 0.30006 0.11421 0.0
C1264 C 0.44914 0.31996 0.1642 0.0
H1265 H 0.49784 0.33931 0.17374 0.0
C1266 C 0.44877 0.31057 0.18429 0.0
C1267 C 0.46673 0.33103 0.16063 0.0
C1268 C 0.46764 0.34201 0.13965 0.0
C1269 C 0.46602 0.31105 0.20044 0.0
C1270 C 0.48413 0.32118 0.19645 0.0
C1271 C 0.48401 0.33148 0.17678 0.0
C1272 C 0.50404 0.31961 0.21176 0.0
C1273 C 0.4651 0.30021 0.22151 0.0
C1274 C 0.51082 0.33545 0.22335 0.0
C1275 C 0.52954 0.3335 0.2379 0.0
C1276 C 0.54199 0.31574 0.24086 0.0
C1277 C 0.53521 0.30009 0.22887 0.0
C1278 C 0.51649 0.30199 0.21459 0.0
H1279 H 0.44856 0.29672 0.22376 0.0
H1280 H 0.47503 0.28635 0.22226 0.0
H1281 H 0.47162 0.30887 0.23479 0.0
H1282 H 0.50149 0.34922 0.22134 0.0
H1283 H 0.53421 0.34585 0.24683 0.0
H1284 H 0.85503 0.22874 0.91233 0.0
H1285 H 0.87875 0.21805 0.88656 0.0
H1286 H 0.91434 0.26906 0.89613 0.0
H1287 H 0.89096 0.27977 0.92163 0.0
H1288 H 0.88802 0.23914 0.84764 0.0
H1289 H 0.96058 0.22343 0.90538 0.0
H1290 H 0.93411 0.22535 0.91334 0.0
H1291 H 0.94748 0.24694 0.90732 0.0
C1292 C 0.868 0.2376 0.90906 0.0
C1293 C 0.87106 0.25509 0.91923 0.0
C1294 C 0.88151 0.23151 0.89424 0.0
C1295 C 0.89854 0.24263 0.88952 0.0
C1296 C 0.90157 0.26004 0.89967 0.0
H1297 H 1.00136 0.24589 0.81275 0.0
H1298 H 0.97495 0.25012 0.83731 0.0
C1299 C 0.88806 0.26619 0.91426 0.0
C1300 C 0.9131 0.23645 0.87383 0.0
H1301 H 0.96571 0.22595 0.86887 0.0
C1302 C 0.90497 0.23599 0.85229 0.0
C1303 C 0.93526 0.23237 0.87982 0.0
C1304 C 0.94491 0.23185 0.90274 0.0
C1305 C 0.91848 0.23247 0.83654 0.0
C1306 C 0.94076 0.22889 0.84249 0.0
C1307 C 0.94872 0.22876 0.86415 0.0
C1308 C 0.95632 0.22631 0.82661 0.0
C1309 C 0.90886 0.23354 0.81359 0.0
C1310 C 0.95488 0.21147 0.81216 0.0
C1311 C 0.97005 0.20905 0.79783 0.0
C1312 C 0.98718 0.2213 0.79776 0.0
C1313 C 0.9885 0.23612 0.81224 0.0
C1314 C 0.97335 0.23856 0.82641 0.0
H1315 H 0.89274 0.24116 0.81126 0.0
H1316 H 0.91919 0.24119 0.80334 0.0
H1317 H 0.90727 0.21856 0.80825 0.0
H1318 H 0.94225 0.20149 0.8122 0.0
H1319 H 0.96855 0.19738 0.78708 0.0
H1320 H 0.50415 0.86144 0.30746 0.0
H1321 H 0.53379 0.86077 0.33641 0.0
H1322 H 0.56142 0.80853 0.3134 0.0
H1323 H 0.53152 0.80874 0.28533 0.0
H1324 H 0.55789 0.80282 0.35313 0.0
H1325 H 0.59543 0.87293 0.34345 0.0
H1326 H 0.56732 0.87592 0.34504 0.0
H1327 H 0.57666 0.86417 0.32297 0.0
C1328 C 0.51687 0.85014 0.30835 0.0
C1329 C 0.51552 0.8351 0.29423 0.0
C1330 C 0.53388 0.84978 0.32486 0.0
C1331 C 0.55004 0.83462 0.32716 0.0
C1332 C 0.5492 0.82033 0.31215 0.0
H1333 H 0.6661 0.81636 0.41874 0.0
H1334 H 0.6406 0.82687 0.38727 0.0
C1335 C 0.53211 0.82048 0.29605 0.0
C1336 C 0.56646 0.83211 0.34629 0.0
H1337 H 0.60572 0.85433 0.37634 0.0
C1338 C 0.5684 0.81411 0.35804 0.0
C1339 C 0.58041 0.84669 0.35277 0.0
C1340 C 0.58004 0.86594 0.34029 0.0
C1341 C 0.58363 0.81028 0.37593 0.0
C1342 C 0.59697 0.8251 0.38298 0.0
C1343 C 0.59533 0.84305 0.37115 0.0
C1344 C 0.61249 0.82193 0.40268 0.0
C1345 C 0.58552 0.79015 0.38686 0.0
C1346 C 0.60523 0.81657 0.42205 0.0
C1347 C 0.61968 0.81034 0.43981 0.0
C1348 C 0.64179 0.8098 0.43883 0.0
C1349 C 0.64916 0.81671 0.41998 0.0
C1350 C 0.63459 0.82266 0.40199 0.0
H1351 H 0.57897 0.77916 0.37608 0.0
H1352 H 0.60239 0.78555 0.3927 0.0
H1353 H 0.57629 0.79019 0.40064 0.0
H1354 H 0.58829 0.81636 0.42319 0.0
H1355 H 0.61351 0.80529 0.45417 0.0
H1356 H 0.15973 0.71351 0.61974 0.0
H1357 H 0.14452 0.70974 0.65341 0.0
H1358 H 0.09601 0.75499 0.63132 0.0
H1359 H 0.11093 0.75876 0.59776 0.0
H1360 H 0.13939 0.73819 0.68327 0.0
H1361 H 0.0613 0.71121 0.65269 0.0
H1362 H 0.0836 0.71119 0.63743 0.0
H1363 H 0.06745 0.73325 0.639 0.0
C1364 C 0.14562 0.72244 0.62191 0.0
C1365 C 0.13651 0.73636 0.6059 0.0
C1366 C 0.13701 0.72035 0.64124 0.0
C1367 C 0.11896 0.73194 0.64491 0.0
C1368 C 0.10969 0.74563 0.62883 0.0
H1369 H 0.0716 0.75938 0.76437 0.0
H1370 H 0.08909 0.75959 0.73197 0.0
C1371 C 0.11832 0.7478 0.6096 0.0
C1372 C 0.11017 0.73031 0.66572 0.0
H1373 H 0.06478 0.72151 0.68804 0.0
C1374 C 0.12311 0.73443 0.68433 0.0
C1375 C 0.08899 0.72525 0.66723 0.0
C1376 C 0.07456 0.71979 0.64807 0.0
C1377 C 0.11531 0.73405 0.70423 0.0
C1378 C 0.09388 0.72964 0.7056 0.0
C1379 C 0.08113 0.72509 0.68705 0.0
C1380 C 0.08438 0.72938 0.72608 0.0
C1381 C 0.13018 0.73814 0.72365 0.0
C1382 C 0.07572 0.71242 0.73363 0.0
C1383 C 0.06567 0.71227 0.75213 0.0
C1384 C 0.06384 0.72914 0.76355 0.0
C1385 C 0.07282 0.74607 0.75615 0.0
C1386 C 0.08292 0.74619 0.73761 0.0
H1387 H 0.14717 0.73617 0.72095 0.0
H1388 H 0.12711 0.75345 0.72761 0.0
H1389 H 0.12752 0.7285 0.73751 0.0
H1390 H 0.07657 0.69926 0.72508 0.0
H1391 H 0.05897 0.69894 0.75723 0.0
H1392 H 0.97181 0.74971 0.74933 0.0
H1393 H 0.93877 0.74484 0.72603 0.0
H1394 H 0.93261 0.69039 0.76069 0.0
H1395 H 0.96511 0.69496 0.78375 0.0
H1396 H 0.93002 0.71229 0.70025 0.0
H1397 H 0.87359 0.7193 0.75949 0.0
H1398 H 0.89958 0.72922 0.76277 0.0
H1399 H 0.89666 0.70399 0.77011 0.0
C1400 C 0.96335 0.73673 0.75197 0.0
C1401 C 0.97112 0.72272 0.76841 0.0
C1402 C 0.94449 0.73403 0.73871 0.0
C1403 C 0.93308 0.71748 0.74198 0.0
C1404 C 0.94093 0.7035 0.75824 0.0
H1405 H 0.87574 0.62968 0.68867 0.0
H1406 H 0.89617 0.65803 0.69489 0.0
C1407 C 0.95967 0.70608 0.77131 0.0
C1408 C 0.91358 0.71364 0.72797 0.0
H1409 H 0.86494 0.69614 0.73223 0.0
C1410 C 0.91544 0.70937 0.70693 0.0
C1411 C 0.89435 0.71039 0.73645 0.0
C1412 C 0.89084 0.71619 0.75839 0.0
C1413 C 0.89958 0.69961 0.69509 0.0
C1414 C 0.88181 0.69368 0.70482 0.0
C1415 C 0.87874 0.70028 0.72483 0.0
C1416 C 0.86872 0.67784 0.69671 0.0
C1417 C 0.90264 0.6948 0.67274 0.0
C1418 C 0.84639 0.67938 0.69573 0.0
C1419 C 0.83459 0.66297 0.69241 0.0
C1420 C 0.84497 0.64477 0.69005 0.0
C1421 C 0.8672 0.64353 0.69001 0.0
C1422 C 0.87894 0.65984 0.69343 0.0
H1423 H 0.91042 0.70671 0.66476 0.0
H1424 H 0.91334 0.68143 0.67323 0.0
H1425 H 0.88725 0.69239 0.66314 0.0
H1426 H 0.83818 0.69307 0.69842 0.0
H1427 H 0.81745 0.66439 0.69235 0.0
H1428 H 0.63109 0.33684 0.22982 0.0
H1429 H 0.64855 0.36488 0.21529 0.0
H1430 H 0.64463 0.39359 0.27344 0.0
H1431 H 0.62791 0.36602 0.28801 0.0
H1432 H 0.63547 0.40435 0.20801 0.0
H1433 H 0.70699 0.39696 0.26755 0.0
H1434 H 0.68867 0.37788 0.26409 0.0
H1435 H 0.68303 0.39798 0.28001 0.0
C1436 C 0.63412 0.34907 0.23954 0.0
C1437 C 0.62824 0.34888 0.26024 0.0
C1438 C 0.64406 0.36515 0.23119 0.0
C1439 C 0.64842 0.3813 0.24342 0.0
C1440 C 0.64211 0.3812 0.26383 0.0
H1441 H 0.6938 0.49692 0.23771 0.0
H1442 H 0.67732 0.46642 0.24497 0.0
C1443 C 0.63236 0.36529 0.27213 0.0
C1444 C 0.65919 0.39854 0.23518 0.0
H1445 H 0.69971 0.42827 0.24883 0.0
C1446 C 0.64972 0.40939 0.21675 0.0
C1447 C 0.67787 0.40526 0.24645 0.0
C1448 C 0.68985 0.39379 0.26549 0.0
C1449 C 0.65777 0.42711 0.20997 0.0
C1450 C 0.67585 0.4342 0.22184 0.0
C1451 C 0.6857 0.42304 0.23984 0.0
C1452 C 0.6846 0.45335 0.21629 0.0
C1453 C 0.64641 0.43853 0.19062 0.0
C1454 C 0.69415 0.45639 0.19762 0.0
C1455 C 0.70374 0.4739 0.19341 0.0
C1456 C 0.70398 0.4889 0.20773 0.0
C1457 C 0.6939 0.48592 0.22616 0.0
C1458 C 0.68449 0.46838 0.23042 0.0
H1459 H 0.63062 0.43292 0.1854 0.0
H1460 H 0.64413 0.45414 0.19383 0.0
H1461 H 0.6563 0.43753 0.17738 0.0
H1462 H 0.69476 0.44498 0.18658 0.0
H1463 H 0.7114 0.47545 0.17912 0.0
H1464 H 0.41216 0.88194 0.25783 0.0
H1465 H 0.39265 0.90523 0.27685 0.0
H1466 H 0.41241 0.8715 0.33564 0.0
H1467 H 0.43253 0.848 0.31659 0.0
H1468 H 0.35941 0.89994 0.29999 0.0
H1469 H 0.42856 0.92617 0.35097 0.0
H1470 H 0.43181 0.91186 0.32845 0.0
H1471 H 0.42546 0.90038 0.35272 0.0
C1472 C 0.41248 0.87936 0.27482 0.0
C1473 C 0.42407 0.86303 0.28564 0.0
C1474 C 0.40123 0.89276 0.2857 0.0
C1475 C 0.40121 0.89035 0.30775 0.0
C1476 C 0.41249 0.87393 0.31869 0.0
H1477 H 0.32885 0.97206 0.38081 0.0
H1478 H 0.35048 0.94327 0.37259 0.0
C1479 C 0.42385 0.86041 0.30774 0.0
C1480 C 0.38901 0.90507 0.31879 0.0
H1481 H 0.39471 0.94124 0.35368 0.0
C1482 C 0.36713 0.90878 0.31192 0.0
C1483 C 0.399 0.91667 0.3344 0.0
C1484 C 0.42252 0.91376 0.34203 0.0
C1485 C 0.3552 0.92405 0.31967 0.0
C1486 C 0.36534 0.93611 0.33462 0.0
C1487 C 0.38697 0.93195 0.34224 0.0
C1488 C 0.35407 0.95411 0.34075 0.0
C1489 C 0.33186 0.92756 0.31139 0.0
C1490 C 0.34944 0.96993 0.32583 0.0
C1491 C 0.33726 0.98634 0.33047 0.0
C1492 C 0.3293 0.98739 0.35019 0.0
C1493 C 0.33472 0.97182 0.3655 0.0
C1494 C 0.34704 0.95533 0.36082 0.0
H1495 H 0.32536 0.91473 0.30358 0.0
H1496 H 0.32239 0.93112 0.32447 0.0
H1497 H 0.3298 0.94015 0.29955 0.0
H1498 H 0.35484 0.96938 0.31032 0.0
H1499 H 0.33361 0.99802 0.31827 0.0
H1500 H 0.21223 0.06819 0.87989 0.0
H1501 H 0.18358 0.09412 0.87333 0.0
H1502 H 0.19183 0.0979 0.80695 0.0
H1503 H 0.22012 0.07206 0.8132 0.0
H1504 H 0.18265 0.13319 0.85515 0.0
H1505 H 0.12837 0.08777 0.80665 0.0
H1506 H 0.15188 0.07759 0.82335 0.0
H1507 H 0.15415 0.08907 0.79772 0.0
C1508 C 0.208 0.07458 0.86391 0.0
C1509 C 0.21839 0.06783 0.84706 0.0
C1510 C 0.19164 0.08943 0.8602 0.0
C1511 C 0.1853 0.09773 0.83958 0.0
C1512 C 0.19613 0.09146 0.82291 0.0
H1513 H 0.10778 0.20206 0.79153 0.0
H1514 H 0.137 0.1787 0.8063 0.0
C1515 C 0.21241 0.07669 0.82657 0.0
C1516 C 0.16709 0.11261 0.83518 0.0
H1517 H 0.11849 0.12163 0.80551 0.0
C1518 C 0.16853 0.13064 0.84443 0.0
C1519 C 0.14853 0.1092 0.82142 0.0
C1520 C 0.14547 0.0898 0.81186 0.0
C1521 C 0.15219 0.14554 0.83976 0.0
C1522 C 0.13406 0.1424 0.82525 0.0
C1523 C 0.13241 0.12416 0.81651 0.0
C1524 C 0.11661 0.15775 0.81859 0.0
C1525 C 0.15444 0.16442 0.85056 0.0
C1526 C 0.09535 0.15388 0.82056 0.0
C1527 C 0.07859 0.16714 0.81197 0.0
C1528 C 0.08268 0.18462 0.80115 0.0
C1529 C 0.10403 0.18887 0.79996 0.0
C1530 C 0.12081 0.17552 0.80847 0.0
H1531 H 0.16561 0.16249 0.86551 0.0
H1532 H 0.16094 0.17518 0.83984 0.0
H1533 H 0.13878 0.17049 0.85425 0.0
H1534 H 0.09166 0.1403 0.82825 0.0
H1535 H 0.06238 0.16336 0.8132 0.0
H1536 H 0.7277 0.91981 0.67302 0.0
H1537 H 0.71668 0.8938 0.64995 0.0
H1538 H 0.71071 0.93441 0.59536 0.0
H1539 H 0.72122 0.96049 0.61825 0.0
H1540 H 0.67807 0.91053 0.5925 0.0
H1541 H 0.75423 0.86598 0.61263 0.0
H1542 H 0.74065 0.87097 0.63515 0.0
H1543 H 0.75084 0.89064 0.62043 0.0
C1544 C 0.7239 0.92328 0.65613 0.0
C1545 C 0.7255 0.94237 0.64762 0.0
C1546 C 0.71775 0.90829 0.64287 0.0
C1547 C 0.71322 0.91191 0.62072 0.0
C1548 C 0.71417 0.93108 0.61231 0.0
H1549 H 0.7182 0.83074 0.52187 0.0
H1550 H 0.72337 0.85537 0.54776 0.0
C1551 C 0.72024 0.94605 0.62552 0.0
C1552 C 0.70785 0.89585 0.60618 0.0
H1553 H 0.72722 0.85234 0.59017 0.0
C1554 C 0.6888 0.89777 0.59207 0.0
C1555 C 0.72188 0.87922 0.60528 0.0
C1556 C 0.74314 0.87659 0.61901 0.0
C1557 C 0.6835 0.88371 0.57721 0.0
C1558 C 0.69741 0.86696 0.57651 0.0
C1559 C 0.71638 0.86501 0.5907 0.0
C1560 C 0.69344 0.85193 0.56035 0.0
C1561 C 0.66338 0.88732 0.56186 0.0
C1562 C 0.6748 0.8415 0.55854 0.0
C1563 C 0.67168 0.82727 0.54347 0.0
C1564 C 0.6872 0.82299 0.52995 0.0
C1565 C 0.70581 0.83348 0.5319 0.0
C1566 C 0.70886 0.84765 0.54683 0.0
H1567 H 0.65735 0.90283 0.56088 0.0
H1568 H 0.66607 0.88316 0.5457 0.0
H1569 H 0.65079 0.87838 0.5673 0.0
H1570 H 0.66279 0.84412 0.569 0.0
H1571 H 0.65725 0.81945 0.54264 0.0
H1572 H 0.7987 0.16352 0.05434 0.0
H1573 H 0.79778 0.138 0.08216 0.0
H1574 H 0.85929 0.15283 0.11179 0.0
H1575 H 0.86048 0.17831 0.08353 0.0
H1576 H 0.85811 0.1147 0.11021 0.0
H1577 H 0.78529 0.14136 0.14196 0.0
H1578 H 0.77981 0.13913 0.11391 0.0
H1579 H 0.79851 0.15625 0.12401 0.0
C1580 C 0.81188 0.16161 0.06697 0.0
C1581 C 0.82955 0.17312 0.06686 0.0
C1582 C 0.8113 0.14703 0.08295 0.0
C1583 C 0.82819 0.14378 0.09945 0.0
C1584 C 0.84595 0.15518 0.09937 0.0
H1585 H 0.80168 0.05614 0.19696 0.0
H1586 H 0.81318 0.08665 0.1818 0.0
C1587 C 0.84664 0.1697 0.0832 0.0
C1588 C 0.82768 0.12766 0.11589 0.0
H1589 H 0.79477 0.10678 0.14815 0.0
C1590 C 0.84443 0.11316 0.11881 0.0
C1591 C 0.81016 0.12578 0.12763 0.0
C1592 C 0.79257 0.14161 0.12689 0.0
C1593 C 0.84344 0.09627 0.13197 0.0
C1594 C 0.82491 0.09352 0.14199 0.0
C1595 C 0.80885 0.10864 0.14023 0.0
C1596 C 0.82089 0.07456 0.15268 0.0
C1597 C 0.86221 0.0815 0.13477 0.0
C1598 C 0.82167 0.0575 0.14158 0.0
C1599 C 0.81538 0.04004 0.1503 0.0
C1600 C 0.80774 0.03925 0.1702 0.0
C1601 C 0.80758 0.05618 0.18165 0.0
C1602 C 0.81408 0.07367 0.17296 0.0
H1603 H 0.87736 0.08868 0.13358 0.0
H1604 H 0.86352 0.07312 0.15032 0.0
H1605 H 0.86033 0.07121 0.12192 0.0
H1606 H 0.82621 0.05783 0.12568 0.0
H1607 H 0.8156 0.02737 0.14092 0.0
H1608 H 0.21298 0.64533 0.47199 0.0
H1609 H 0.21822 0.6172 0.45101 0.0
H1610 H 0.15462 0.60066 0.4583 0.0
H1611 H 0.14921 0.62889 0.47935 0.0
H1612 H 0.18448 0.57067 0.4689 0.0
H1613 H 0.19599 0.60515 0.39089 0.0
H1614 H 0.21312 0.61431 0.41219 0.0
H1615 H 0.18464 0.61845 0.41101 0.0
C1616 C 0.19987 0.63603 0.46866 0.0
C1617 C 0.18065 0.63939 0.47732 0.0
C1618 C 0.2029 0.61993 0.45664 0.0
C1619 C 0.18672 0.60695 0.45285 0.0
C1620 C 0.16729 0.61053 0.46098 0.0
H1621 H 0.20929 0.51043 0.37182 0.0
H1622 H 0.19133 0.53773 0.38714 0.0
C1623 C 0.16426 0.62663 0.47305 0.0
C1624 C 0.19086 0.58882 0.44202 0.0
H1625 H 0.20937 0.57173 0.39779 0.0
C1626 C 0.1896 0.57088 0.45321 0.0
C1627 C 0.19724 0.58908 0.42143 0.0
C1628 C 0.19761 0.60778 0.40809 0.0
C1629 C 0.1956 0.55326 0.4448 0.0
C1630 C 0.20341 0.55362 0.42486 0.0
C1631 C 0.2036 0.57147 0.41319 0.0
C1632 C 0.21282 0.53589 0.41645 0.0
C1633 C 0.19375 0.53444 0.45749 0.0
C1634 C 0.23074 0.52571 0.42791 0.0
C1635 C 0.24099 0.51011 0.41925 0.0
C1636 C 0.23363 0.50446 0.39884 0.0
C1637 C 0.21532 0.51435 0.3876 0.0
C1638 C 0.20507 0.52999 0.3963 0.0
H1639 H 0.18143 0.53601 0.46845 0.0
H1640 H 0.1897 0.52248 0.44696 0.0
H1641 H 0.20924 0.53027 0.46725 0.0
H1642 H 0.2373 0.53026 0.44327 0.0
H1643 H 0.2551 0.5029 0.42831 0.0
H1644 H 0.3855 0.32423 1.0174 0.0
H1645 H 0.38144 0.34787 0.98677 0.0
H1646 H 0.31438 0.35672 0.99227 0.0
H1647 H 0.31844 0.3338 0.02321 0.0
H1648 H 0.35927 0.3488 0.94858 0.0
H1649 H 0.32978 0.41183 0.98936 0.0
H1650 H 0.34064 0.38953 1.00367 0.0
H1651 H 0.31324 0.39174 0.99166 0.0
C1652 C 0.36993 0.3314 1.01227 0.0
C1653 C 0.35238 0.32725 0.02309 0.0
C1654 C 0.36761 0.34488 0.99464 0.0
C1655 C 0.34767 0.3545 0.98732 0.0
C1656 C 0.33008 0.35007 0.99788 0.0
H1657 H 0.30881 0.41412 0.862 0.0
H1658 H 0.31879 0.38947 0.89129 0.0
C1659 C 0.33243 0.33682 1.01561 0.0
C1660 C 0.3451 0.36888 0.96849 0.0
H1661 H 0.32491 0.41483 0.9515 0.0
C1662 C 0.35192 0.3633 0.94928 0.0
C1663 C 0.33584 0.38799 0.96931 0.0
C1664 C 0.32968 0.3957 0.98967 0.0
C1665 C 0.34932 0.37606 0.93091 0.0
C1666 C 0.33905 0.39482 0.93147 0.0
C1667 C 0.3326 0.40046 0.9508 0.0
C1668 C 0.33497 0.40907 0.9125 0.0
C1669 C 0.35807 0.36938 0.91127 0.0
C1670 C 0.34059 0.42842 0.91439 0.0
C1671 C 0.33449 0.44257 0.89782 0.0
C1672 C 0.32289 0.43774 0.87873 0.0
C1673 C 0.31815 0.41822 0.87632 0.0
C1674 C 0.3239 0.40408 0.89313 0.0
H1675 H 0.37122 0.35794 0.9153 0.0
H1676 H 0.3452 0.36301 0.90088 0.0
H1677 H 0.36412 0.38166 0.9022 0.0
H1678 H 0.34915 0.43278 0.92901 0.0
H1679 H 0.33831 0.45749 0.90022 0.0
H1680 H 0.5146 0.68669 0.77662 0.0
H1681 H 0.54739 0.68414 0.80194 0.0
H1682 H 0.5129 0.71002 0.84899 0.0
H1683 H 0.48032 0.71232 0.82421 0.0
H1684 H 0.56934 0.71284 0.82224 0.0
H1685 H 0.54208 0.66248 0.88238 0.0
H1686 H 0.52813 0.66652 0.85588 0.0
H1687 H 0.52363 0.68322 0.876 0.0
C1688 C 0.51397 0.69166 0.79244 0.0
C1689 C 0.4947 0.69958 0.79836 0.0
C1690 C 0.53276 0.69022 0.80689 0.0
C1691 C 0.53259 0.69651 0.82759 0.0
C1692 C 0.51341 0.70456 0.83337 0.0
H1693 H 0.60921 0.73073 0.9347 0.0
H1694 H 0.58273 0.72186 0.90634 0.0
C1695 C 0.49473 0.70599 0.81904 0.0
C1696 C 0.55244 0.69553 0.84307 0.0
H1697 H 0.57141 0.68171 0.89468 0.0
C1698 C 0.57 0.70566 0.83791 0.0
C1699 C 0.55345 0.68606 0.86354 0.0
C1700 C 0.53589 0.67379 0.8697 0.0
C1701 C 0.58782 0.70763 0.85309 0.0
C1702 C 0.58817 0.69918 0.87391 0.0
C1703 C 0.57112 0.68825 0.87874 0.0
C1704 C 0.60471 0.70349 0.89151 0.0
C1705 C 0.60566 0.71966 0.84718 0.0
C1706 C 0.62594 0.69579 0.89292 0.0
C1707 C 0.64128 0.70074 0.90941 0.0
C1708 C 0.63563 0.71362 0.92458 0.0
C1709 C 0.61424 0.72089 0.92325 0.0
C1710 C 0.599 0.71581 0.90703 0.0
H1711 H 0.6023 0.72644 0.83079 0.0
H1712 H 0.60834 0.73133 0.85844 0.0
H1713 H 0.62064 0.71029 0.84837 0.0
H1714 H 0.63066 0.68612 0.8812 0.0
H1715 H 0.6576 0.69493 0.90992 0.0
H1716 H 0.06788 0.81387 0.25226 0.0
H1717 H 0.09486 0.80756 0.22842 0.0
H1718 H 0.0548 0.76657 0.19662 0.0
H1719 H 0.02881 0.7717 0.22156 0.0
H1720 H 0.09107 0.7517 0.19951 0.0
H1721 H 0.10012 0.82747 0.17112 0.0
H1722 H 0.10685 0.82453 0.19932 0.0
H1723 H 0.07992 0.82132 0.18757 0.0
C1724 C 0.06485 0.80358 0.24009 0.0
C1725 C 0.04618 0.7933 0.23878 0.0
C1726 C 0.08023 0.80011 0.22623 0.0
C1727 C 0.07691 0.78688 0.21011 0.0
C1728 C 0.05803 0.77683 0.20877 0.0
H1729 H 0.15309 0.7813 0.10315 0.0
H1730 H 0.12747 0.78988 0.12778 0.0
C1731 C 0.04305 0.77981 0.22304 0.0
C1732 C 0.0933 0.78272 0.19526 0.0
H1733 H 0.12663 0.80382 0.16326 0.0
C1734 C 0.09862 0.7632 0.19147 0.0
C1735 C 0.10318 0.79753 0.18427 0.0
C1736 C 0.09704 0.81886 0.18559 0.0
C1737 C 0.1132 0.75811 0.17727 0.0
C1738 C 0.12409 0.77284 0.16733 0.0
C1739 C 0.11873 0.79237 0.17101 0.0
C1740 C 0.14056 0.76833 0.15269 0.0
C1741 C 0.11594 0.73694 0.17252 0.0
C1742 C 0.15707 0.75378 0.15843 0.0
C1743 C 0.17125 0.74846 0.14406 0.0
C1744 C 0.17002 0.75818 0.12391 0.0
C1745 C 0.1545 0.7736 0.11861 0.0
C1746 C 0.13981 0.77849 0.13273 0.0
H1747 H 0.1015 0.72908 0.17506 0.0
H1748 H 0.11915 0.73525 0.1559 0.0
H1749 H 0.12945 0.7298 0.18346 0.0
H1750 H 0.15888 0.74626 0.17397 0.0
H1751 H 0.18322 0.73666 0.1487 0.0
H1752 H 0.49694 0.18293 0.77264 0.0
H1753 H 0.46475 0.18512 0.74639 0.0
H1754 H 0.50413 0.17836 0.6961 0.0
H1755 H 0.53602 0.17621 0.72194 0.0
H1756 H 0.45596 0.21391 0.71147 0.0
H1757 H 0.45797 0.13949 0.68273 0.0
H1758 H 0.47232 0.14531 0.70771 0.0
H1759 H 0.48313 0.15042 0.68323 0.0
C1760 C 0.49866 0.18151 0.75603 0.0
C1761 C 0.51906 0.17936 0.7494 0.0
C1762 C 0.48027 0.18287 0.74103 0.0
C1763 C 0.48198 0.1817 0.71925 0.0
C1764 C 0.50231 0.17897 0.71279 0.0
H1765 H 0.41646 0.20124 0.59467 0.0
H1766 H 0.43959 0.19189 0.62752 0.0
C1767 C 0.52059 0.17783 0.72763 0.0
C1768 C 0.46291 0.18467 0.70289 0.0
H1769 H 0.43747 0.16421 0.65974 0.0
C1770 C 0.45159 0.20293 0.70039 0.0
C1771 C 0.45726 0.17038 0.68837 0.0
C1772 C 0.46817 0.15023 0.69072 0.0
C1773 C 0.43568 0.20765 0.68309 0.0
C1774 C 0.43062 0.19358 0.66808 0.0
C1775 C 0.44133 0.17504 0.67114 0.0
C1776 C 0.41565 0.19828 0.64819 0.0
C1777 C 0.42532 0.22803 0.6804 0.0
C1778 C 0.39419 0.20456 0.64868 0.0
C1779 C 0.38079 0.21 0.62977 0.0
C1780 C 0.38856 0.20916 0.60995 0.0
C1781 C 0.40984 0.20216 0.60956 0.0
C1782 C 0.42316 0.19677 0.6284 0.0
H1783 H 0.43418 0.23821 0.69065 0.0
H1784 H 0.42427 0.23377 0.66363 0.0
H1785 H 0.40889 0.22779 0.6848 0.0
H1786 H 0.38783 0.20547 0.6637 0.0
H1787 H 0.36452 0.21528 0.63074 0.0
H1788 H 0.88889 0.24144 0.42149 0.0
H1789 H 0.90491 0.24661 0.38893 0.0
H1790 H 0.91189 0.30686 0.40188 0.0
H1791 H 0.89594 0.30173 0.43503 0.0
H1792 H 0.89116 0.27071 0.35399 0.0
H1793 H 0.97148 0.28979 0.38913 0.0
H1794 H 0.95266 0.27924 0.4049 0.0
H1795 H 0.94962 0.30464 0.39646 0.0
C1796 C 0.89387 0.25584 0.41762 0.0
C1797 C 0.8911 0.27118 0.43108 0.0
C1798 C 0.90305 0.25876 0.39885 0.0
C1799 C 0.90985 0.27706 0.3929 0.0
C1800 C 0.90715 0.29248 0.40624 0.0
H1801 H 0.9718 0.3142 0.28277 0.0
H1802 H 0.9535 0.31304 0.31448 0.0
C1803 C 0.89794 0.28956 0.42518 0.0
C1804 C 0.91929 0.27974 0.37252 0.0
H1805 H 0.96484 0.29106 0.35172 0.0
C1806 C 0.90727 0.2752 0.35352 0.0
C1807 C 0.94032 0.2856 0.37178 0.0
C1808 C 0.9544 0.28995 0.39164 0.0
C1809 C 0.9156 0.27637 0.33393 0.0
C1810 C 0.93675 0.2819 0.33324 0.0
C1811 C 0.94866 0.28676 0.35217 0.0
C1812 C 0.9469 0.28265 0.31313 0.0
C1813 C 0.90153 0.27191 0.3141 0.0
C1814 C 0.94931 0.26596 0.30157 0.0
C1815 C 0.95977 0.26657 0.28327 0.0
C1816 C 0.96822 0.28386 0.27616 0.0
C1817 C 0.96552 0.3006 0.28765 0.0
C1818 C 0.95507 0.29997 0.3059 0.0
H1819 H 0.88436 0.27338 0.31626 0.0
H1820 H 0.90427 0.2817 0.30038 0.0
H1821 H 0.90528 0.25668 0.31025 0.0
H1822 H 0.94356 0.25229 0.307 0.0
H1823 H 0.9617 0.25334 0.27503 0.0
H1824 H 0.24608 0.09577 0.3516 0.0
H1825 H 0.21419 0.11715 0.34056 0.0
H1826 H 0.17539 0.0676 0.34098 0.0
H1827 H 0.2073 0.04617 0.35273 0.0
H1828 H 0.18965 0.11607 0.30395 0.0
H1829 H 0.13942 0.10598 0.36894 0.0
H1830 H 0.16726 0.09779 0.3718 0.0
H1831 H 0.14746 0.08355 0.35824 0.0
C1832 C 0.23069 0.08948 0.34982 0.0
C1833 C 0.22919 0.06929 0.35308 0.0
C1834 C 0.21247 0.10171 0.34345 0.0
C1835 C 0.1923 0.09407 0.34002 0.0
C1836 C 0.19065 0.07396 0.34397 0.0
H1837 H 0.07221 0.14421 0.27217 0.0
H1838 H 0.10148 0.12229 0.28985 0.0
C1839 C 0.20892 0.0617 0.35065 0.0
C1840 C 0.17354 0.10694 0.33047 0.0
H1841 H 0.12268 0.12287 0.337 0.0
C1842 C 0.17509 0.11762 0.31131 0.0
C1843 C 0.15444 0.10894 0.33995 0.0
C1844 C 0.15206 0.0986 0.36097 0.0
C1845 C 0.15813 0.13012 0.30137 0.0
C1846 C 0.13908 0.13204 0.3108 0.0
C1847 C 0.13735 0.1213 0.32982 0.0
C1848 C 0.12092 0.14535 0.30107 0.0
C1849 C 0.16056 0.14109 0.28072 0.0
C1850 C 0.12211 0.16557 0.30173 0.0
C1851 C 0.10532 0.17817 0.29186 0.0
C1852 C 0.08701 0.17081 0.281 0.0
C1853 C 0.08587 0.15046 0.28059 0.0
C1854 C 0.10262 0.13787 0.29061 0.0
H1855 H 0.17504 0.13584 0.27388 0.0
H1856 H 0.14635 0.1397 0.26893 0.0
H1857 H 0.16176 0.15679 0.28348 0.0
H1858 H 0.13608 0.1716 0.30987 0.0
H1859 H 0.10665 0.1937 0.29291 0.0
H1860 H 0.32935 0.9791 0.85868 0.0
H1861 H 0.34685 0.94806 0.85053 0.0
H1862 H 0.28851 0.9196 0.85585 0.0
H1863 H 0.27094 0.95059 0.86316 0.0
H1864 H 0.35509 0.9115 0.8686 0.0
H1865 H 0.29769 0.90887 0.79596 0.0
H1866 H 0.29956 0.93017 0.81124 0.0
H1867 H 0.28471 0.91017 0.81945 0.0
C1868 C 0.32055 0.96605 0.85876 0.0
C1869 C 0.29889 0.96714 0.86172 0.0
C1870 C 0.33046 0.94836 0.85388 0.0
C1871 C 0.31882 0.93156 0.85191 0.0
C1872 C 0.29766 0.93242 0.85658 0.0
H1873 H 0.37332 0.81345 0.84118 0.0
H1874 H 0.35716 0.84317 0.85331 0.0
C1875 C 0.28773 0.95007 0.86112 0.0
C1876 C 0.32835 0.9134 0.84407 0.0
H1877 H 0.32015 0.88035 0.80602 0.0
C1878 C 0.34748 0.90472 0.85488 0.0
C1879 C 0.31874 0.90473 0.82583 0.0
C1880 C 0.29918 0.91406 0.8123 0.0
C1881 C 0.35698 0.88745 0.84829 0.0
C1882 C 0.34676 0.87822 0.83074 0.0
C1883 C 0.32786 0.88715 0.81968 0.0
C1884 C 0.35566 0.85964 0.82317 0.0
C1885 C 0.37818 0.87961 0.85992 0.0
C1886 C 0.35921 0.85848 0.80185 0.0
C1887 C 0.36792 0.84127 0.79467 0.0
C1888 C 0.37342 0.82472 0.80864 0.0
C1889 C 0.36923 0.82575 0.82985 0.0
C1890 C 0.36031 0.84293 0.83696 0.0
H1891 H 0.3868 0.89118 0.86822 0.0
H1892 H 0.37544 0.86819 0.87209 0.0
H1893 H 0.38854 0.87309 0.8489 0.0
H1894 H 0.35552 0.87103 0.79076 0.0
H1895 H 0.37042 0.84101 0.77813 0.0
H1896 H 0.6459 0.47373 0.71031 0.0
H1897 H 0.63227 0.44468 0.72671 0.0
H1898 H 0.64174 0.41323 0.67136 0.0
H1899 H 0.65578 0.44188 0.65512 0.0
H1900 H 0.59729 0.42142 0.71083 0.0
H1901 H 0.67586 0.38 0.72197 0.0
H1902 H 0.67306 0.40612 0.71703 0.0
H1903 H 0.66845 0.39041 0.69543 0.0
C1904 C 0.64508 0.4606 0.70167 0.0
C1905 C 0.65198 0.46007 0.68144 0.0
C1906 C 0.63721 0.44409 0.71101 0.0
C1907 C 0.63633 0.4268 0.70034 0.0
C1908 C 0.64259 0.4264 0.67994 0.0
H1909 H 0.59817 0.31225 0.70448 0.0
H1910 H 0.60967 0.34493 0.69768 0.0
C1911 C 0.65039 0.44286 0.67059 0.0
C1912 C 0.62917 0.40893 0.71045 0.0
H1913 H 0.64523 0.36148 0.72444 0.0
C1914 C 0.6078 0.40838 0.71419 0.0
C1915 C 0.64305 0.39205 0.71497 0.0
C1916 C 0.66644 0.39216 0.71235 0.0
C1917 C 0.5996 0.39094 0.72111 0.0
C1918 C 0.61324 0.37384 0.72446 0.0
C1919 C 0.63483 0.37465 0.72173 0.0
C1920 C 0.60507 0.35455 0.72874 0.0
C1921 C 0.57626 0.3906 0.72376 0.0
C1922 C 0.59864 0.34923 0.7485 0.0
C1923 C 0.59195 0.33049 0.75245 0.0
C1924 C 0.59155 0.31691 0.73664 0.0
C1925 C 0.59788 0.32246 0.71685 0.0
C1926 C 0.60461 0.34108 0.71297 0.0
H1927 H 0.56741 0.40478 0.7187 0.0
H1928 H 0.56883 0.37905 0.71438 0.0
H1929 H 0.57454 0.38712 0.7407 0.0
H1930 H 0.59912 0.35944 0.76091 0.0
H1931 H 0.58712 0.32662 0.76782 0.0
H1932 H 0.78301 0.58545 0.23792 0.0
H1933 H 0.80953 0.60965 0.24184 0.0
H1934 H 0.82585 0.59977 0.17922 0.0
H1935 H 0.79906 0.57522 0.17502 0.0
H1936 H 0.85471 0.60398 0.23903 0.0
H1937 H 0.81421 0.66033 0.17958 0.0
H1938 H 0.80014 0.64091 0.19067 0.0
H1939 H 0.81759 0.63596 0.17109 0.0
C1940 C 0.79207 0.58836 0.22481 0.0
C1941 C 0.78867 0.57829 0.20604 0.0
C1942 C 0.80735 0.60226 0.22717 0.0
C1943 C 0.81959 0.60673 0.2108 0.0
C1944 C 0.8164 0.59676 0.19201 0.0
H1945 H 0.91425 0.69496 0.2052 0.0
H1946 H 0.88929 0.66982 0.19678 0.0
C1947 C 0.80114 0.58264 0.18966 0.0
C1948 C 0.83586 0.62159 0.21391 0.0
H1949 H 0.84695 0.6678 0.19818 0.0
C1950 C 0.85307 0.6179 0.23003 0.0
C1951 C 0.8338 0.63975 0.20213 0.0
C1952 C 0.8154 0.64467 0.18496 0.0
C1953 C 0.86818 0.63181 0.23473 0.0
C1954 C 0.86577 0.65025 0.22344 0.0
C1955 C 0.8488 0.65378 0.20698 0.0
C1956 C 0.88061 0.66604 0.22856 0.0
C1957 C 0.8868 0.62641 0.25156 0.0
C1958 C 0.88382 0.67278 0.24915 0.0
C1959 C 0.89832 0.68706 0.25412 0.0
C1960 C 0.90989 0.69517 0.23857 0.0
C1961 C 0.90605 0.68886 0.21776 0.0
C1962 C 0.89161 0.67453 0.21284 0.0
H1963 H 0.88995 0.61037 0.25385 0.0
H1964 H 0.90154 0.63295 0.24746 0.0
H1965 H 0.88308 0.63186 0.26691 0.0
H1966 H 0.87518 0.66691 0.26149 0.0
H1967 H 0.90083 0.69135 0.27033 0.0
H1968 H 0.32124 0.14457 0.26323 0.0
H1969 H 0.33071 0.16807 0.23607 0.0
H1970 H 0.3234 0.12485 0.1895 0.0
H1971 H 0.31356 0.10153 0.21637 0.0
H1972 H 0.36264 0.16847 0.21181 0.0
H1973 H 0.28635 0.1689 0.15885 0.0
H1974 H 0.28979 0.1576 0.18537 0.0
H1975 H 0.29926 0.14501 0.16387 0.0
C1976 C 0.32165 0.14009 0.2472 0.0
C1977 C 0.31632 0.12123 0.24195 0.0
C1978 C 0.32704 0.15355 0.23165 0.0
C1979 C 0.32731 0.14846 0.21052 0.0
C1980 C 0.32264 0.12943 0.20544 0.0
H1981 H 0.3591 0.21319 0.09617 0.0
H1982 H 0.3539 0.18692 0.1225 0.0
C1983 C 0.31706 0.11606 0.22089 0.0
C1984 C 0.3327 0.16292 0.19388 0.0
H1985 H 0.31437 0.18513 0.14511 0.0
C1986 C 0.35203 0.17211 0.19727 0.0
C1987 C 0.31891 0.16778 0.17479 0.0
C1988 C 0.29734 0.15946 0.17056 0.0
C1989 C 0.35795 0.18583 0.18217 0.0
C1990 C 0.34421 0.19057 0.16313 0.0
C1991 C 0.32501 0.1813 0.15959 0.0
C1992 C 0.34872 0.20619 0.14745 0.0
C1993 C 0.3789 0.19516 0.18662 0.0
C1994 C 0.34756 0.22569 0.15271 0.0
C1995 C 0.35032 0.24064 0.13773 0.0
C1996 C 0.35447 0.2365 0.11709 0.0
C1997 C 0.35613 0.21689 0.11195 0.0
C1998 C 0.35307 0.20188 0.12695 0.0
H1999 H 0.38966 0.18707 0.19965 0.0
H2000 H 0.38715 0.19599 0.17216 0.0
H2001 H 0.37585 0.21023 0.19135 0.0
H2002 H 0.34401 0.22939 0.16832 0.0
H2003 H 0.34895 0.25554 0.14229 0.0
H2004 H 0.23959 0.923 0.76259 0.0
H2005 H 0.24502 0.89486 0.74197 0.0
H2006 H 0.30816 0.91202 0.73314 0.0
H2007 H 0.30228 0.94086 0.7532 0.0
H2008 H 0.288 0.90819 0.69719 0.0
H2009 H 0.27355 0.84259 0.74402 0.0
H2010 H 0.25207 0.85986 0.74678 0.0
H2011 H 0.27912 0.86505 0.75645 0.0
C2012 C 0.25487 0.92044 0.75681 0.0
C2013 C 0.27041 0.93415 0.75919 0.0
C2014 C 0.25811 0.90417 0.74521 0.0
C2015 C 0.27715 0.90107 0.73617 0.0
C2016 C 0.29337 0.91405 0.73998 0.0
H2017 H 0.24137 0.81584 0.64311 0.0
H2018 H 0.26625 0.8289 0.6706 0.0
C2019 C 0.28997 0.93054 0.7513 0.0
C2020 C 0.27795 0.88688 0.7195 0.0
H2021 H 0.25693 0.84419 0.70581 0.0
C2022 C 0.28195 0.89388 0.69928 0.0
C2023 C 0.27085 0.86789 0.72207 0.0
C2024 C 0.26895 0.85841 0.74363 0.0
C2025 C 0.27621 0.88357 0.68129 0.0
C2026 C 0.26559 0.86622 0.68354 0.0
C2027 C 0.26437 0.85789 0.70397 0.0
C2028 C 0.25259 0.85848 0.6653 0.0
C2029 C 0.2804 0.89201 0.65991 0.0
C2030 C 0.23667 0.87078 0.65324 0.0
C2031 C 0.22262 0.86344 0.63747 0.0
C2032 C 0.22396 0.84357 0.63363 0.0
C2033 C 0.24012 0.83129 0.64549 0.0
C2034 C 0.25429 0.83868 0.66126 0.0
H2035 H 0.29556 0.89952 0.66134 0.0
H2036 H 0.28129 0.88061 0.64827 0.0
H2037 H 0.26738 0.90303 0.65374 0.0
H2038 H 0.23461 0.88599 0.65648 0.0
H2039 H 0.21048 0.8733 0.6285 0.0
H2040 H 0.73762 0.48208 0.70317 0.0
H2041 H 0.74238 0.45672 0.73215 0.0
H2042 H 0.78709 0.49104 0.76818 0.0
H2043 H 0.78231 0.51647 0.73957 0.0
H2044 H 0.77935 0.43516 0.75006 0.0
H2045 H 0.74585 0.47834 0.8107 0.0
H2046 H 0.742 0.48592 0.78281 0.0
H2047 H 0.76653 0.49012 0.79892 0.0
C2048 C 0.74841 0.48428 0.71729 0.0
C2049 C 0.7595 0.50142 0.71901 0.0
C2050 C 0.75111 0.46975 0.73385 0.0
C2051 C 0.76482 0.4721 0.75252 0.0
C2052 C 0.77605 0.48908 0.75417 0.0
H2053 H 0.81733 0.40718 0.86768 0.0
H2054 H 0.8066 0.43077 0.8378 0.0
C2055 C 0.77336 0.50359 0.73768 0.0
C2056 C 0.76796 0.45665 0.77008 0.0
H2057 H 0.76596 0.44879 0.82334 0.0
C2058 C 0.77618 0.43805 0.76603 0.0
C2059 C 0.76377 0.46041 0.79093 0.0
C2060 C 0.75385 0.47972 0.7961 0.0
C2061 C 0.78117 0.42339 0.78242 0.0
C2062 C 0.77754 0.42734 0.80337 0.0
C2063 C 0.76883 0.44578 0.80731 0.0
C2064 C 0.78355 0.41286 0.82163 0.0
C2065 C 0.79105 0.40403 0.77734 0.0
C2066 C 0.77394 0.395 0.82268 0.0
C2067 C 0.77993 0.38146 0.8399 0.0
C2068 C 0.7956 0.38555 0.8565 0.0
C2069 C 0.80497 0.40359 0.85544 0.0
C2070 C 0.79896 0.41709 0.83826 0.0
H2071 H 0.79698 0.40472 0.76157 0.0
H2072 H 0.80452 0.39901 0.7896 0.0
H2073 H 0.77889 0.39301 0.77714 0.0
H2074 H 0.76171 0.39156 0.81024 0.0
H2075 H 0.77215 0.36786 0.8403 0.0
H2076 H 0.67606 0.60763 0.32769 0.0
H2077 H 0.67004 0.63047 0.35488 0.0
H2078 H 0.71274 0.66937 0.32915 0.0
H2079 H 0.71829 0.64695 0.30145 0.0
H2080 H 0.69775 0.64432 0.38637 0.0
H2081 H 0.66127 0.70612 0.33264 0.0
H2082 H 0.66497 0.68187 0.32372 0.0
H2083 H 0.68689 0.6975 0.3263 0.0
C2084 C 0.68392 0.62119 0.3275 0.0
C2085 C 0.69755 0.62539 0.31204 0.0
C2086 C 0.68059 0.63421 0.34327 0.0
C2087 C 0.69063 0.6519 0.34403 0.0
C2088 C 0.70439 0.65607 0.32878 0.0
H2089 H 0.70221 0.7496 0.42272 0.0
H2090 H 0.70309 0.72517 0.39666 0.0
C2091 C 0.70776 0.64305 0.313 0.0
C2092 C 0.68706 0.66577 0.36095 0.0
H2093 H 0.67165 0.71306 0.3686 0.0
C2094 C 0.69185 0.6593 0.38247 0.0
C2095 C 0.67924 0.68536 0.35604 0.0
C2096 C 0.67258 0.69311 0.33344 0.0
C2097 C 0.6899 0.67198 0.39902 0.0
C2098 C 0.68257 0.6917 0.39406 0.0
C2099 C 0.67732 0.69801 0.37256 0.0
C2100 C 0.68164 0.7064 0.41067 0.0
C2101 C 0.69655 0.66432 0.42165 0.0
C2102 C 0.66911 0.70431 0.42749 0.0
C2103 C 0.66856 0.71846 0.44275 0.0
C2104 C 0.68047 0.73509 0.44149 0.0
C2105 C 0.69279 0.7371 0.42448 0.0
C2106 C 0.69332 0.72306 0.40937 0.0
H2107 H 0.7063 0.65032 0.42253 0.0
H2108 H 0.70586 0.67501 0.43072 0.0
H2109 H 0.68209 0.66178 0.42945 0.0
H2110 H 0.65957 0.69183 0.42873 0.0
H2111 H 0.65883 0.71637 0.45548 0.0
H2112 H 0.20878 0.32501 0.11715 0.0
H2113 H 0.17498 0.32131 0.13146 0.0
H2114 H 0.1984 0.26505 0.16035 0.0
H2115 H 0.23227 0.26852 0.14591 0.0
H2116 H 0.14549 0.29316 0.12479 0.0
H2117 H 0.17731 0.29228 0.21013 0.0
H2118 H 0.19259 0.29991 0.18928 0.0
H2119 H 0.19016 0.27445 0.1955 0.0
C2120 C 0.20677 0.31174 0.1264 0.0
C2121 C 0.22341 0.29706 0.13031 0.0
C2122 C 0.1874 0.30971 0.13468 0.0
C2123 C 0.18415 0.29302 0.14725 0.0
C2124 C 0.20063 0.27826 0.15111 0.0
H2125 H 0.07743 0.25658 0.21205 0.0
H2126 H 0.11086 0.25851 0.19657 0.0
C2127 C 0.22004 0.28028 0.14281 0.0
C2128 C 0.16339 0.29102 0.15593 0.0
H2129 H 0.14099 0.28564 0.20212 0.0
C2130 C 0.14451 0.29157 0.14171 0.0
C2131 C 0.16203 0.2889 0.17801 0.0
C2132 C 0.18155 0.28902 0.19416 0.0
C2133 C 0.12445 0.2898 0.1489 0.0
C2134 C 0.12308 0.2878 0.17099 0.0
C2135 C 0.14197 0.28715 0.1852 0.0
C2136 C 0.10226 0.28644 0.17972 0.0
C2137 C 0.10495 0.28966 0.13273 0.0
C2138 C 0.08616 0.30152 0.17553 0.0
C2139 C 0.06692 0.30045 0.18433 0.0
C2140 C 0.06334 0.28431 0.19768 0.0
C2141 C 0.07949 0.26921 0.20179 0.0
C2142 C 0.09871 0.2703 0.19299 0.0
H2143 H 0.1092 0.28581 0.11695 0.0
H2144 H 0.09359 0.2792 0.13789 0.0
H2145 H 0.09673 0.30441 0.13086 0.0
H2146 H 0.08863 0.31434 0.16574 0.0
H2147 H 0.05499 0.31244 0.18091 0.0
H2148 H 0.77235 0.23798 0.94121 0.0
H2149 H 0.74176 0.22634 0.91993 0.0
H2150 H 0.743 0.27424 0.87374 0.0
H2151 H 0.77447 0.28585 0.89495 0.0
H2152 H 0.70295 0.24204 0.90946 0.0
H2153 H 0.73862 0.22979 0.83534 0.0
H2154 H 0.75448 0.23483 0.85974 0.0
H2155 H 0.73975 0.25432 0.84338 0.0
C2156 C 0.76628 0.24615 0.92651 0.0
C2157 C 0.77603 0.26297 0.91989 0.0
C2158 C 0.74865 0.23939 0.91429 0.0
C2159 C 0.74002 0.24918 0.89502 0.0
C2160 C 0.74956 0.26609 0.88829 0.0
H2161 H 0.62691 0.23245 0.80789 0.0
H2162 H 0.65892 0.24364 0.82751 0.0
C2163 C 0.76749 0.27283 0.90052 0.0
C2164 C 0.72075 0.2417 0.88262 0.0
H2165 H 0.70152 0.22562 0.83432 0.0
C2166 C 0.70274 0.23839 0.89305 0.0
C2167 C 0.72032 0.23679 0.86119 0.0
C2168 C 0.73938 0.23892 0.84928 0.0
C2169 C 0.68443 0.23059 0.8827 0.0
C2170 C 0.68399 0.22578 0.8613 0.0
C2171 C 0.70188 0.22919 0.85077 0.0
C2172 C 0.66469 0.21822 0.84924 0.0
C2173 C 0.66546 0.22794 0.89462 0.0
C2174 C 0.65722 0.19996 0.85469 0.0
C2175 C 0.63874 0.19334 0.84333 0.0
C2176 C 0.62729 0.20494 0.82639 0.0
C2177 C 0.63507 0.2231 0.82092 0.0
C2178 C 0.65352 0.22957 0.8321 0.0
H2179 H 0.66678 0.23565 0.9096 0.0
H2180 H 0.65046 0.23334 0.88463 0.0
H2181 H 0.6643 0.2122 0.89867 0.0
H2182 H 0.66571 0.19081 0.86772 0.0
H2183 H 0.63331 0.17929 0.84796 0.0
H2184 H 0.8288 0.81188 0.44066 0.0
H2185 H 0.85954 0.81556 0.42114 0.0
H2186 H 0.82914 0.78392 0.37036 0.0
H2187 H 0.79844 0.77994 0.38985 0.0
H2188 H 0.88731 0.7878 0.40596 0.0
H2189 H 0.8431 0.83455 0.33966 0.0
H2190 H 0.83251 0.82966 0.36441 0.0
H2191 H 0.83117 0.81197 0.34454 0.0
C2192 C 0.82871 0.80546 0.42546 0.0
C2193 C 0.81098 0.79566 0.41684 0.0
C2194 C 0.84629 0.8077 0.41425 0.0
C2195 C 0.84652 0.80034 0.39409 0.0
C2196 C 0.82913 0.79015 0.38566 0.0
H2197 H 0.92876 0.79065 0.29744 0.0
H2198 H 0.90062 0.79107 0.32032 0.0
C2199 C 0.81156 0.78788 0.39685 0.0
C2200 C 0.86492 0.80328 0.38187 0.0
H2201 H 0.87787 0.82213 0.3346 0.0
C2202 C 0.88532 0.79547 0.39045 0.0
C2203 C 0.86236 0.81341 0.36169 0.0
C2204 C 0.84116 0.82306 0.35208 0.0
C2205 C 0.90298 0.79677 0.37899 0.0
C2206 C 0.90027 0.80644 0.35854 0.0
C2207 C 0.87999 0.8147 0.35025 0.0
C2208 C 0.91776 0.80685 0.34476 0.0
C2209 C 0.92419 0.78708 0.38849 0.0
C2210 C 0.93683 0.81589 0.35065 0.0
C2211 C 0.95318 0.8157 0.33748 0.0
C2212 C 0.95074 0.80646 0.31816 0.0
C2213 C 0.9314 0.79782 0.31222 0.0
C2214 C 0.91517 0.79806 0.32529 0.0
H2215 H 0.92262 0.77696 0.40233 0.0
H2216 H 0.93169 0.77884 0.37647 0.0
H2217 H 0.93507 0.79838 0.39395 0.0
H2218 H 0.93907 0.8231 0.36542 0.0
H2219 H 0.9678 0.82253 0.34255 0.0
H2220 H 0.38082 0.74736 0.71666 0.0
H2221 H 0.34696 0.75351 0.69394 0.0
H2222 H 0.34198 0.69182 0.68847 0.0
H2223 H 0.37605 0.68543 0.71139 0.0
H2224 H 0.3364 0.74272 0.65176 0.0
H2225 H 0.28358 0.71075 0.70639 0.0
H2226 H 0.31041 0.71701 0.71533 0.0
H2227 H 0.30605 0.6952 0.70158 0.0
C2228 C 0.37258 0.73501 0.71074 0.0
C2229 C 0.38125 0.71585 0.71597 0.0
C2230 C 0.35316 0.7386 0.69769 0.0
C2231 C 0.34174 0.72316 0.68967 0.0
C2232 C 0.35032 0.70398 0.69473 0.0
H2233 H 0.24055 0.72281 0.58616 0.0
H2234 H 0.27286 0.71806 0.61134 0.0
C2235 C 0.36989 0.70035 0.70773 0.0
C2236 C 0.3212 0.72732 0.67556 0.0
H2237 H 0.26759 0.72094 0.67155 0.0
C2238 C 0.32137 0.73799 0.65613 0.0
C2239 C 0.3015 0.72139 0.68135 0.0
C2240 C 0.3002 0.71059 0.70237 0.0
C2241 C 0.30252 0.74244 0.64217 0.0
C2242 C 0.28293 0.73609 0.64771 0.0
C2243 C 0.28263 0.72579 0.66732 0.0
C2244 C 0.26288 0.73912 0.63274 0.0
C2245 C 0.30363 0.75392 0.6215 0.0
C2246 C 0.24633 0.7525 0.63645 0.0
C2247 C 0.22768 0.7554 0.6219 0.0
C2248 C 0.22516 0.74478 0.60351 0.0
C2249 C 0.24178 0.73128 0.60008 0.0
C2250 C 0.26037 0.72853 0.61447 0.0
H2251 H 0.31904 0.76087 0.62132 0.0
H2252 H 0.30188 0.74401 0.60827 0.0
H2253 H 0.2904 0.76537 0.61854 0.0
H2254 H 0.24795 0.76084 0.65047 0.0
H2255 H 0.21527 0.76592 0.62508 0.0
H2256 H 0.79158 0.92483 0.70946 0.0
H2257 H 0.82323 0.90263 0.71675 0.0
H2258 H 0.85432 0.936 0.67153 0.0
H2259 H 0.82241 0.95858 0.66409 0.0
H2260 H 0.8465 0.87976 0.6892 0.0
H2261 H 0.89421 0.93604 0.72909 0.0
H2262 H 0.86549 0.93876 0.72376 0.0
H2263 H 0.88147 0.94203 0.70251 0.0
C2264 C 0.80504 0.92742 0.70086 0.0
C2265 C 0.80455 0.94361 0.68633 0.0
C2266 C 0.82312 0.91464 0.70503 0.0
C2267 C 0.84123 0.9178 0.69493 0.0
C2268 C 0.84057 0.93344 0.67969 0.0
H2269 H 0.96692 0.85744 0.73457 0.0
H2270 H 0.93807 0.87888 0.71528 0.0
C2271 C 0.8223 0.94623 0.67534 0.0
C2272 C 0.86092 0.9051 0.70142 0.0
H2273 H 0.90993 0.90429 0.73078 0.0
C2274 C 0.8605 0.88515 0.69805 0.0
C2275 C 0.87916 0.91215 0.71298 0.0
C2276 C 0.88024 0.93338 0.71749 0.0
C2277 C 0.87762 0.87199 0.70631 0.0
C2278 C 0.89545 0.87891 0.71871 0.0
C2279 C 0.89623 0.89898 0.72136 0.0
C2280 C 0.91293 0.8655 0.72996 0.0
C2281 C 0.87639 0.8508 0.70172 0.0
C2282 C 0.90847 0.85098 0.74487 0.0
C2283 C 0.92493 0.83875 0.75598 0.0
C2284 C 0.94628 0.84086 0.7526 0.0
C2285 C 0.9507 0.85551 0.73775 0.0
C2286 C 0.93421 0.86772 0.72661 0.0
H2287 H 0.86556 0.84893 0.68695 0.0
H2288 H 0.89238 0.84398 0.70009 0.0
H2289 H 0.86997 0.84293 0.715 0.0
H2290 H 0.89225 0.84932 0.7482 0.0
H2291 H 0.92095 0.82789 0.76757 0.0
H2292 H 0.71736 0.03372 0.211 0.0
H2293 H 0.70248 0.06568 0.21814 0.0
H2294 H 0.72894 0.0912 0.16453 0.0
H2295 H 0.74407 0.05893 0.15718 0.0
H2296 H 0.72665 0.09764 0.22799 0.0
H2297 H 0.66695 0.11531 0.15699 0.0
H2298 H 0.67795 0.09081 0.16432 0.0
H2299 H 0.69355 0.10807 0.15198 0.0
C2300 C 0.71976 0.04602 0.20041 0.0
C2301 C 0.73187 0.04365 0.1834 0.0
C2302 C 0.71127 0.06436 0.20461 0.0
C2303 C 0.71447 0.08091 0.19188 0.0
C2304 C 0.72595 0.07862 0.17442 0.0
H2305 H 0.67307 0.203 0.20538 0.0
H2306 H 0.6893 0.17301 0.1937 0.0
C2307 C 0.73454 0.06014 0.17018 0.0
C2308 C 0.70673 0.1005 0.19791 0.0
H2309 H 0.67112 0.13921 0.18218 0.0
C2310 C 0.71453 0.10674 0.21793 0.0
C2311 C 0.69103 0.11248 0.18478 0.0
C2312 C 0.6817 0.10637 0.16336 0.0
C2313 C 0.70703 0.12448 0.2252 0.0
C2314 C 0.69086 0.13622 0.21236 0.0
C2315 C 0.68341 0.13021 0.19212 0.0
C2316 C 0.68125 0.15458 0.21979 0.0
C2317 C 0.71676 0.13057 0.24651 0.0
C2318 C 0.67111 0.15433 0.23832 0.0
C2319 C 0.66191 0.17153 0.24515 0.0
C2320 C 0.66253 0.18945 0.23359 0.0
C2321 C 0.6726 0.18961 0.21496 0.0
C2322 C 0.68175 0.1724 0.20812 0.0
H2323 H 0.73295 0.12345 0.25108 0.0
H2324 H 0.71789 0.14659 0.24648 0.0
H2325 H 0.70663 0.1261 0.25879 0.0
H2326 H 0.67012 0.14076 0.24743 0.0
H2327 H 0.65442 0.17077 0.25959 0.0
H2328 H 0.42269 0.6919 0.2672 0.0
H2329 H 0.4097 0.65977 0.27512 0.0
H2330 H 0.38712 0.68049 0.3318 0.0
H2331 H 0.39992 0.71248 0.324 0.0
H2332 H 0.42237 0.63522 0.30993 0.0
H2333 H 0.33577 0.6542 0.30492 0.0
H2334 H 0.35399 0.67039 0.2945 0.0
H2335 H 0.35098 0.66934 0.32235 0.0
C2336 C 0.41479 0.68961 0.28125 0.0
C2337 C 0.41218 0.70475 0.29489 0.0
C2338 C 0.40735 0.6713 0.28571 0.0
C2339 C 0.39712 0.66786 0.30385 0.0
C2340 C 0.39441 0.68298 0.3174 0.0
H2341 H 0.38764 0.56394 0.38077 0.0
H2342 H 0.3983 0.59351 0.36302 0.0
C2343 C 0.40175 0.70126 0.31292 0.0
C2344 C 0.39052 0.64818 0.30951 0.0
H2345 H 0.34852 0.62411 0.32437 0.0
C2346 C 0.40615 0.6327 0.31279 0.0
C2347 C 0.36931 0.64485 0.31291 0.0
C2348 C 0.35151 0.66054 0.30826 0.0
C2349 C 0.40134 0.61418 0.32038 0.0
C2350 C 0.38046 0.61123 0.32521 0.0
C2351 C 0.36461 0.62647 0.32095 0.0
C2352 C 0.37481 0.59272 0.33538 0.0
C2353 C 0.41867 0.59799 0.32318 0.0
C2354 C 0.35779 0.5827 0.32595 0.0
C2355 C 0.35141 0.56601 0.33623 0.0
C2356 C 0.36193 0.55902 0.35619 0.0
C2357 C 0.37914 0.56899 0.36549 0.0
C2358 C 0.38544 0.58574 0.35522 0.0
H2359 H 0.43114 0.60071 0.31266 0.0
H2360 H 0.42646 0.59712 0.33983 0.0
H2361 H 0.41209 0.58372 0.31978 0.0
H2362 H 0.34923 0.58795 0.31075 0.0
H2363 H 0.33782 0.55893 0.3288 0.0
H2364 H 0.1372 0.32177 0.76695 0.0
H2365 H 0.1622 0.34655 0.77695 0.0
H2366 H 0.13808 0.3498 0.83736 0.0
H2367 H 0.11307 0.32504 0.82751 0.0
H2368 H 0.15417 0.38412 0.78668 0.0
H2369 H 0.20166 0.34363 0.85593 0.0
H2370 H 0.18348 0.33194 0.83724 0.0
H2371 H 0.17351 0.34576 0.85758 0.0
C2372 C 0.13719 0.32773 0.78238 0.0
C2373 C 0.12313 0.32123 0.79644 0.0
C2374 C 0.15157 0.34189 0.78812 0.0
C2375 C 0.15235 0.3499 0.80808 0.0
C2376 C 0.13827 0.34353 0.82211 0.0
H2377 H 0.23083 0.44285 0.8607 0.0
H2378 H 0.20348 0.41888 0.85573 0.0
C2379 C 0.12392 0.32933 0.81642 0.0
C2380 C 0.16735 0.36538 0.81378 0.0
H2381 H 0.20914 0.37661 0.84964 0.0
C2382 C 0.16616 0.38243 0.80046 0.0
C2383 C 0.18297 0.36334 0.83187 0.0
C2384 C 0.18568 0.34512 0.8464 0.0
C2385 C 0.18015 0.39734 0.80459 0.0
C2386 C 0.19601 0.39515 0.82241 0.0
C2387 C 0.19693 0.37834 0.83604 0.0
C2388 C 0.21276 0.40944 0.82604 0.0
C2389 C 0.17786 0.41539 0.7898 0.0
C2390 C 0.22731 0.41186 0.81128 0.0
C2391 C 0.24292 0.42538 0.81409 0.0
C2392 C 0.24452 0.43697 0.83181 0.0
C2393 C 0.2301 0.43431 0.84684 0.0
C2394 C 0.21446 0.42059 0.84403 0.0
H2395 H 0.16176 0.41723 0.78052 0.0
H2396 H 0.18075 0.42861 0.79874 0.0
H2397 H 0.1898 0.41419 0.77843 0.0
H2398 H 0.22657 0.40324 0.79746 0.0
H2399 H 0.25364 0.4268 0.80211 0.0
H2400 H 0.6603 0.80219 0.93513 0.0
H2401 H 0.66474 0.82822 0.90828 0.0
H2402 H 0.71286 0.7919 0.88413 0.0
H2403 H 0.70834 0.76598 0.91025 0.0
H2404 H 0.69985 0.84838 0.90042 0.0
H2405 H 0.67373 0.80743 0.83037 0.0
H2406 H 0.66942 0.79939 0.85691 0.0
H2407 H 0.69487 0.79438 0.84765 0.0
C2408 C 0.67173 0.79972 0.92401 0.0
C2409 C 0.68372 0.7818 0.92479 0.0
C2410 C 0.67428 0.81463 0.90867 0.0
C2411 C 0.6888 0.8119 0.89378 0.0
C2412 C 0.70109 0.79422 0.89493 0.0
H2413 H 0.74056 0.8772 0.79345 0.0
H2414 H 0.73233 0.85347 0.82096 0.0
C2415 C 0.69851 0.77938 0.91007 0.0
C2416 C 0.69165 0.82748 0.87726 0.0
H2417 H 0.69278 0.83576 0.82382 0.0
C2418 C 0.69804 0.8457 0.88366 0.0
C2419 C 0.68931 0.82406 0.85531 0.0
C2420 C 0.68124 0.80532 0.84712 0.0
C2421 C 0.7029 0.86025 0.86886 0.0
C2422 C 0.70114 0.85659 0.847 0.0
C2423 C 0.69435 0.83853 0.84057 0.0
C2424 C 0.70631 0.87125 0.83054 0.0
C2425 C 0.71055 0.87921 0.87679 0.0
C2426 C 0.69432 0.8891 0.82657 0.0
C2427 C 0.69897 0.90269 0.81085 0.0
C2428 C 0.71573 0.89877 0.79863 0.0
C2429 C 0.7277 0.88083 0.80264 0.0
C2430 C 0.72294 0.8672 0.81831 0.0
H2431 H 0.71565 0.87811 0.89418 0.0
H2432 H 0.72409 0.8839 0.86856 0.0
H2433 H 0.69736 0.89066 0.87343 0.0
H2434 H 0.68121 0.89248 0.83554 0.0
H2435 H 0.68955 0.9164 0.80843 0.0
H2436 H 0.82095 0.07329 0.29178 0.0
H2437 H 0.82568 0.10514 0.30596 0.0
H2438 H 0.76008 0.12284 0.28337 0.0
H2439 H 0.75499 0.09059 0.2695 0.0
H2440 H 0.81879 0.14459 0.28765 0.0
H2441 H 0.7647 0.12665 0.34826 0.0
H2442 H 0.77477 0.10818 0.33232 0.0
H2443 H 0.75472 0.12627 0.32058 0.0
C2444 C 0.8075 0.08393 0.28986 0.0
C2445 C 0.78748 0.07934 0.27999 0.0
C2446 C 0.81031 0.1022 0.29767 0.0
C2447 C 0.79318 0.11623 0.29577 0.0
C2448 C 0.77341 0.1121 0.28503 0.0
H2449 H 0.81326 0.19556 0.39661 0.0
H2450 H 0.79588 0.18701 0.3621 0.0
C2451 C 0.77057 0.09373 0.27715 0.0
C2452 C 0.79591 0.13407 0.30735 0.0
H2453 H 0.78803 0.15102 0.35529 0.0
C2454 C 0.81164 0.14645 0.30215 0.0
C2455 C 0.78629 0.13661 0.32604 0.0
C2456 C 0.76922 0.12375 0.3323 0.0
C2457 C 0.81945 0.1601 0.31624 0.0
C2458 C 0.81158 0.161 0.33608 0.0
C2459 C 0.7942 0.15017 0.34014 0.0
C2460 C 0.82331 0.16997 0.35423 0.0
C2461 C 0.8368 0.17267 0.31021 0.0
C2462 C 0.84462 0.16354 0.36105 0.0
C2463 C 0.85455 0.1684 0.3807 0.0
C2464 C 0.84317 0.17947 0.39398 0.0
C2465 C 0.82222 0.18671 0.38673 0.0
C2466 C 0.81237 0.18202 0.36699 0.0
H2467 H 0.83466 0.17641 0.29284 0.0
H2468 H 0.83705 0.18634 0.31873 0.0
H2469 H 0.85249 0.16448 0.3142 0.0
H2470 H 0.85319 0.15373 0.35182 0.0
H2471 H 0.87068 0.1626 0.38601 0.0
H2472 H 0.20144 0.61753 0.18088 0.0
H2473 H 0.21112 0.59433 0.21135 0.0
H2474 H 0.26783 0.62441 0.22933 0.0
H2475 H 0.25865 0.64747 0.19844 0.0
H2476 H 0.25386 0.57101 0.21845 0.0
H2477 H 0.23638 0.61641 0.28503 0.0
H2478 H 0.22337 0.62166 0.25827 0.0
H2479 H 0.2508 0.62666 0.26477 0.0
C2480 C 0.21602 0.61926 0.19124 0.0
C2481 C 0.22935 0.63434 0.18699 0.0
C2482 C 0.22144 0.60603 0.20875 0.0
C2483 C 0.24015 0.60767 0.22262 0.0
C2484 C 0.2532 0.62301 0.21892 0.0
H2485 H 0.28853 0.53306 0.33687 0.0
H2486 H 0.28368 0.55961 0.30913 0.0
C2487 C 0.24786 0.63623 0.20128 0.0
C2488 C 0.24647 0.59259 0.24015 0.0
H2489 H 0.249 0.58385 0.29385 0.0
C2490 C 0.2529 0.57382 0.23495 0.0
C2491 C 0.24547 0.59638 0.26166 0.0
C2492 C 0.23856 0.61632 0.26795 0.0
C2493 C 0.2581 0.55863 0.25066 0.0
C2494 C 0.25618 0.56214 0.27215 0.0
C2495 C 0.25035 0.5811 0.27741 0.0
C2496 C 0.25921 0.54612 0.28913 0.0
C2497 C 0.26578 0.53901 0.24404 0.0
C2498 C 0.24687 0.52983 0.28735 0.0
C2499 C 0.24971 0.5146 0.30304 0.0
C2500 C 0.26475 0.51541 0.32113 0.0
C2501 C 0.27681 0.53194 0.32315 0.0
C2502 C 0.27406 0.54714 0.30731 0.0
H2503 H 0.27304 0.54038 0.22899 0.0
H2504 H 0.27772 0.53151 0.25647 0.0
H2505 H 0.25201 0.52977 0.2413 0.0
H2506 H 0.23488 0.52891 0.27382 0.0
H2507 H 0.23993 0.50226 0.30103 0.0
H2508 H 0.36788 0.40007 0.7225 0.0
H2509 H 0.37484 0.37732 0.69547 0.0
H2510 H 0.31712 0.34939 0.70455 0.0
H2511 H 0.31031 0.37157 0.73209 0.0
H2512 H 0.37814 0.33403 0.69757 0.0
H2513 H 0.31117 0.36627 0.63962 0.0
H2514 H 0.32229 0.37895 0.66215 0.0
H2515 H 0.30438 0.36003 0.66569 0.0
C2516 C 0.35679 0.38891 0.71913 0.0
C2517 C 0.3384 0.38792 0.72964 0.0
C2518 C 0.36077 0.37594 0.70348 0.0
C2519 C 0.3464 0.36175 0.6977 0.0
C2520 C 0.32831 0.36039 0.70843 0.0
H2521 H 0.32575 0.27526 0.60632 0.0
H2522 H 0.32529 0.29873 0.63336 0.0
C2523 C 0.32439 0.37323 0.72418 0.0
C2524 C 0.34996 0.34863 0.6802 0.0
H2525 H 0.32823 0.33687 0.63092 0.0
C2526 C 0.36734 0.33472 0.68291 0.0
C2527 C 0.33595 0.34953 0.661 0.0
C2528 C 0.31748 0.36458 0.65675 0.0
C2529 C 0.37052 0.32121 0.6674 0.0
C2530 C 0.35625 0.32189 0.64832 0.0
C2531 C 0.33922 0.3362 0.64545 0.0
C2532 C 0.35752 0.30714 0.6318 0.0
C2533 C 0.38861 0.30582 0.67204 0.0
C2534 C 0.37585 0.30379 0.62153 0.0
C2535 C 0.37627 0.29004 0.60584 0.0
C2536 C 0.35826 0.27948 0.59988 0.0
C2537 C 0.33999 0.28303 0.6102 0.0
C2538 C 0.33965 0.29657 0.62582 0.0
H2539 H 0.39477 0.30429 0.6892 0.0
H2540 H 0.38351 0.29146 0.6669 0.0
H2541 H 0.40193 0.30993 0.66318 0.0
H2542 H 0.38976 0.31199 0.62542 0.0
H2543 H 0.39059 0.28782 0.59828 0.0
H2544 H 0.98003 0.70274 0.86201 0.0
H2545 H 0.94631 0.70076 0.87711 0.0
H2546 H 0.92432 0.75685 0.84679 0.0
H2547 H 0.95775 0.75888 0.83142 0.0
H2548 H 0.92644 0.72463 0.90374 0.0
H2549 H 0.87605 0.72315 0.82621 0.0
H2550 H 0.90475 0.71957 0.82892 0.0
H2551 H 0.89225 0.74371 0.82827 0.0
C2552 C 0.96809 0.71472 0.85861 0.0
C2553 C 0.97168 0.73092 0.84535 0.0
C2554 C 0.94876 0.71355 0.86725 0.0
C2555 C 0.93253 0.72847 0.86275 0.0
C2556 C 0.93634 0.74492 0.85009 0.0
H2557 H 0.80389 0.74711 0.89827 0.0
H2558 H 0.83799 0.75017 0.88412 0.0
C2559 C 0.95561 0.74611 0.84144 0.0
C2560 C 0.91167 0.72686 0.87132 0.0
H2561 H 0.85786 0.72632 0.85654 0.0
C2562 C 0.91147 0.72491 0.89341 0.0
C2563 C 0.89206 0.72725 0.85787 0.0
C2564 C 0.89121 0.72835 0.834 0.0
C2565 C 0.89225 0.72368 0.90239 0.0
C2566 C 0.87265 0.72409 0.88895 0.0
C2567 C 0.87284 0.72608 0.86686 0.0
C2568 C 0.85182 0.72216 0.89748 0.0
C2569 C 0.89307 0.72236 0.92625 0.0
C2570 C 0.84802 0.70525 0.9094 0.0
C2571 C 0.82848 0.70339 0.91738 0.0
C2572 C 0.81215 0.71837 0.91362 0.0
C2573 C 0.81593 0.73519 0.90139 0.0
C2574 C 0.8355 0.73702 0.89336 0.0
H2575 H 0.90827 0.72738 0.93413 0.0
H2576 H 0.87958 0.73116 0.93138 0.0
H2577 H 0.89186 0.70697 0.93178 0.0
H2578 H 0.86011 0.69336 0.91236 0.0
H2579 H 0.82608 0.69002 0.92626 0.0
H2580 H 0.25706 0.7387 0.14415 0.0
H2581 H 0.28818 0.75179 0.16445 0.0
H2582 H 0.30012 0.78559 0.1086 0.0
H2583 H 0.2692 0.77303 0.0885 0.0
H2584 H 0.33083 0.75001 0.15893 0.0
H2585 H 0.29998 0.82717 0.15097 0.0
H2586 H 0.28323 0.80745 0.1444 0.0
H2587 H 0.30031 0.81644 0.12589 0.0
C2588 C 0.2663 0.74895 0.13622 0.0
C2589 C 0.26038 0.75488 0.11468 0.0
C2590 C 0.2841 0.75644 0.14785 0.0
C2591 C 0.29631 0.77009 0.13824 0.0
C2592 C 0.29071 0.77558 0.11663 0.0
H2593 H 0.4132 0.82876 0.18273 0.0
H2594 H 0.38237 0.81704 0.16044 0.0
C2595 C 0.27299 0.7682 0.10508 0.0
C2596 C 0.31517 0.77833 0.15048 0.0
H2597 H 0.33663 0.82113 0.1645 0.0
C2598 C 0.332 0.76556 0.16021 0.0
C2599 C 0.31692 0.79867 0.15211 0.0
C2600 C 0.29906 0.81323 0.14297 0.0
C2601 C 0.35049 0.7725 0.17125 0.0
C2602 C 0.3522 0.7928 0.17292 0.0
C2603 C 0.33547 0.8056 0.16308 0.0
C2604 C 0.37051 0.8008 0.18617 0.0
C2605 C 0.36819 0.75799 0.18087 0.0
C2606 C 0.37378 0.79611 0.20807 0.0
C2607 C 0.39116 0.80281 0.22074 0.0
C2608 C 0.40591 0.81452 0.21197 0.0
C2609 C 0.40227 0.81979 0.19007 0.0
C2610 C 0.38467 0.81305 0.1773 0.0
H2611 H 0.36719 0.74382 0.17335 0.0
H2612 H 0.38408 0.76362 0.17928 0.0
H2613 H 0.36692 0.75533 0.19803 0.0
H2614 H 0.36289 0.7871 0.21543 0.0
H2615 H 0.39308 0.79852 0.23753 0.0
H2616 H 0.21799 0.24142 0.6224 0.0
H2617 H 0.18805 0.23773 0.64296 0.0
H2618 H 0.2118 0.17907 0.66318 0.0
H2619 H 0.24231 0.18292 0.64347 0.0
H2620 H 0.15663 0.21266 0.63829 0.0
H2621 H 0.20062 0.19976 0.71916 0.0
H2622 H 0.2132 0.2086 0.69682 0.0
H2623 H 0.20886 0.18313 0.70049 0.0
C2624 C 0.21718 0.22786 0.63158 0.0
C2625 C 0.23279 0.21252 0.63123 0.0
C2626 C 0.19986 0.2257 0.64321 0.0
C2627 C 0.19767 0.2082 0.65491 0.0
C2628 C 0.21324 0.19288 0.65469 0.0
H2629 H 0.0942 0.17471 0.7298 0.0
H2630 H 0.12515 0.17287 0.70964 0.0
C2631 C 0.23061 0.19504 0.64312 0.0
C2632 C 0.17867 0.20582 0.66658 0.0
H2633 H 0.16339 0.19581 0.71574 0.0
C2634 C 0.15817 0.20897 0.65523 0.0
C2635 C 0.18053 0.20085 0.6887 0.0
C2636 C 0.20197 0.19806 0.70208 0.0
C2637 C 0.13964 0.20745 0.66531 0.0
C2638 C 0.14151 0.20283 0.68744 0.0
C2639 C 0.16194 0.19922 0.69876 0.0
C2640 C 0.12251 0.20343 0.69932 0.0
C2641 C 0.11814 0.21086 0.65216 0.0
C2642 C 0.11082 0.22116 0.70035 0.0
C2643 C 0.09334 0.22226 0.71185 0.0
C2644 C 0.08695 0.20563 0.7227 0.0
C2645 C 0.09855 0.18776 0.72154 0.0
C2646 C 0.11629 0.18671 0.7101 0.0
H2647 H 0.11919 0.20896 0.63505 0.0
H2648 H 0.10657 0.20077 0.65767 0.0
H2649 H 0.11185 0.22599 0.65378 0.0
H2650 H 0.11541 0.2343 0.69245 0.0
H2651 H 0.08487 0.23629 0.71228 0.0
H2652 H 0.66876 0.28284 0.31128 0.0
H2653 H 0.69963 0.27415 0.33731 0.0
H2654 H 0.66388 0.29172 0.38749 0.0
H2655 H 0.63268 0.30097 0.36121 0.0
H2656 H 0.70314 0.30467 0.39286 0.0
H2657 H 0.71106 0.22679 0.37717 0.0
H2658 H 0.71102 0.24172 0.35322 0.0
H2659 H 0.68767 0.24213 0.36692 0.0
C2660 C 0.66727 0.28481 0.32785 0.0
C2661 C 0.64804 0.29251 0.33409 0.0
C2662 C 0.68501 0.27964 0.3428 0.0
C2663 C 0.68403 0.2817 0.36451 0.0
C2664 C 0.665 0.28973 0.37086 0.0
H2665 H 0.793 0.23478 0.45761 0.0
H2666 H 0.7574 0.23931 0.43694 0.0
C2667 C 0.64717 0.29507 0.35581 0.0
C2668 C 0.70328 0.27629 0.38023 0.0
H2669 H 0.7425 0.24018 0.39476 0.0
C2670 C 0.71155 0.29047 0.39345 0.0
C2671 C 0.71418 0.25763 0.38147 0.0
C2672 C 0.70538 0.24114 0.3691 0.0
C2673 C 0.73087 0.28689 0.40694 0.0
C2674 C 0.74263 0.26876 0.40689 0.0
C2675 C 0.73379 0.2542 0.39456 0.0
C2676 C 0.76449 0.26507 0.41874 0.0
C2677 C 0.73848 0.30265 0.42111 0.0
C2678 C 0.78062 0.27749 0.41485 0.0
C2679 C 0.80081 0.27497 0.4266 0.0
C2680 C 0.80561 0.25976 0.4424 0.0
C2681 C 0.78985 0.24663 0.44556 0.0
C2682 C 0.76946 0.24927 0.43382 0.0
H2683 H 0.72494 0.3124 0.42462 0.0
H2684 H 0.74725 0.29639 0.43635 0.0
H2685 H 0.74935 0.31168 0.4129 0.0
H2686 H 0.77751 0.28938 0.40283 0.0
H2687 H 0.81262 0.28522 0.4235 0.0
H2688 H 0.97964 0.25463 0.16549 0.0
H2689 H 0.96026 0.25823 0.12965 0.0
H2690 H 0.93079 0.31302 0.14414 0.0
H2691 H 0.94982 0.30943 0.1801 0.0
H2692 H 0.90229 0.29067 0.12161 0.0
H2693 H 0.97559 0.29482 0.0823 0.0
H2694 H 0.97557 0.27322 0.09932 0.0
H2695 H 0.97572 0.29666 0.11053 0.0
C2696 C 0.9689 0.26738 0.16116 0.0
C2697 C 0.96642 0.28176 0.17575 0.0
C2698 C 0.95796 0.26951 0.14055 0.0
C2699 C 0.94442 0.28613 0.13396 0.0
C2700 C 0.94128 0.30015 0.14873 0.0
H2701 H 0.86352 0.3178 1.01192 0.0
H2702 H 0.8838 0.32051 0.04704 0.0
C2703 C 0.95217 0.29803 0.16935 0.0
C2704 C 0.93365 0.28894 0.11168 0.0
H2705 H 0.94329 0.29114 0.0598 0.0
C2706 C 0.91125 0.29096 0.1081 0.0
C2707 C 0.94531 0.28952 0.09399 0.0
C2708 C 0.96938 0.28864 0.09667 0.0
C2709 C 0.90023 0.29266 0.08739 0.0
C2710 C 0.91192 0.29266 0.0697 0.0
C2711 C 0.93431 0.29114 0.07331 0.0
C2712 C 0.90125 0.29252 0.04745 0.0
C2713 C 0.87615 0.29361 0.08462 0.0
C2714 C 0.90507 0.27643 0.03549 0.0
C2715 C 0.89372 0.27496 1.01543 0.0
C2716 C 0.87835 0.28964 1.00668 0.0
C2717 C 0.87541 0.30635 1.01808 0.0
C2718 C 0.88676 0.30777 0.03831 0.0
H2719 H 0.86972 0.28942 0.09961 0.0
H2720 H 0.86999 0.30873 0.07954 0.0
H2721 H 0.86998 0.28391 0.0722 0.0
H2722 H 0.91623 0.26454 0.04208 0.0
H2723 H 0.89639 0.2619 1.00709 0.0
H2724 H 0.61184 0.74616 0.61125 0.0
H2725 H 0.59102 0.74377 0.64143 0.0
H2726 H 0.53447 0.76575 0.60075 0.0
H2727 H 0.55507 0.76862 0.57073 0.0
H2728 H 0.56132 0.77462 0.65846 0.0
H2729 H 0.52158 0.71031 0.62711 0.0
H2730 H 0.54654 0.71773 0.61915 0.0
H2731 H 0.52193 0.73077 0.60842 0.0
C2732 C 0.59505 0.7508 0.60877 0.0
C2733 C 0.58515 0.75735 0.58837 0.0
C2734 C 0.58315 0.74936 0.62605 0.0
C2735 C 0.56112 0.75437 0.62331 0.0
C2736 C 0.55138 0.76155 0.6032 0.0
H2737 H 0.45222 0.74039 0.69026 0.0
H2738 H 0.47769 0.74837 0.66562 0.0
C2739 C 0.56321 0.76306 0.58599 0.0
C2740 C 0.54794 0.75135 0.64103 0.0
H2741 H 0.50801 0.7244 0.65615 0.0
C2742 C 0.54974 0.76357 0.6581 0.0
C2743 C 0.53286 0.73693 0.64055 0.0
C2744 C 0.53062 0.72304 0.62294 0.0
C2745 C 0.53627 0.76223 0.67424 0.0
C2746 C 0.52088 0.74799 0.67355 0.0
C2747 C 0.5196 0.73545 0.65672 0.0
C2748 C 0.50532 0.74604 0.68947 0.0
C2749 C 0.53813 0.77659 0.69139 0.0
C2750 C 0.51207 0.74267 0.71139 0.0
C2751 C 0.49728 0.73861 0.72567 0.0
C2752 C 0.47558 0.73747 0.71821 0.0
C2753 C 0.46881 0.74143 0.69648 0.0
C2754 C 0.48343 0.74583 0.68235 0.0
H2755 H 0.54622 0.78969 0.68646 0.0
H2756 H 0.5222 0.78129 0.69564 0.0
H2757 H 0.54778 0.76957 0.70579 0.0
H2758 H 0.52886 0.74221 0.71735 0.0
H2759 H 0.50302 0.73505 0.74225 0.0
H2760 H 0.41264 0.25186 0.94339 0.0
H2761 H 0.43018 0.2486 0.91117 0.0
H2762 H 0.49156 0.25077 0.94827 0.0
H2763 H 0.4743 0.25428 0.98033 0.0
H2764 H 0.46148 0.27259 0.89193 0.0
H2765 H 0.4937 0.19782 0.91931 0.0
H2766 H 0.47201 0.20996 0.93051 0.0
H2767 H 0.49905 0.21579 0.93841 0.0
C2768 C 0.42985 0.25194 0.94465 0.0
C2769 C 0.44204 0.25305 0.96458 0.0
C2770 C 0.43986 0.25003 0.92621 0.0
C2771 C 0.46221 0.24915 0.92735 0.0
C2772 C 0.47432 0.25107 0.94705 0.0
H2773 H 0.56243 0.22283 0.8528 0.0
H2774 H 0.53956 0.23401 0.87858 0.0
C2775 C 0.46439 0.25298 0.96541 0.0
C2776 C 0.47314 0.24528 0.90834 0.0
H2777 H 0.5077 0.2124 0.8898 0.0
C2778 C 0.47146 0.25937 0.89131 0.0
C2779 C 0.48602 0.22797 0.90748 0.0
C2780 C 0.48771 0.21191 0.92479 0.0
C2781 C 0.48314 0.25697 0.87393 0.0
C2782 C 0.49658 0.2399 0.87346 0.0
C2783 C 0.4976 0.22558 0.89019 0.0
C2784 C 0.51059 0.23669 0.85648 0.0
C2785 C 0.48163 0.273 0.85665 0.0
C2786 C 0.50217 0.2352 0.83511 0.0
C2787 C 0.51544 0.22909 0.82013 0.0
C2788 C 0.53722 0.22414 0.82642 0.0
C2789 C 0.54572 0.22666 0.84748 0.0
C2790 C 0.53262 0.23294 0.86228 0.0
H2791 H 0.47449 0.28685 0.86164 0.0
H2792 H 0.49762 0.27562 0.85194 0.0
H2793 H 0.4714 0.26861 0.84248 0.0
H2794 H 0.4852 0.23764 0.83027 0.0
H2795 H 0.5084 0.22686 0.80411 0.0
H2796 H 0.12506 0.79219 0.50107 0.0
H2797 H 0.10459 0.79559 0.46561 0.0
H2798 H 0.10145 0.73329 0.46548 0.0
H2799 H 0.1218 0.72972 0.50071 0.0
H2800 H 0.11529 0.7498 0.42864 0.0
H2801 H 0.04084 0.78863 0.44644 0.0
H2802 H 0.06508 0.79953 0.45596 0.0
H2803 H 0.05973 0.77597 0.46683 0.0
C2804 C 0.11972 0.77922 0.49367 0.0
C2805 C 0.12509 0.76068 0.50393 0.0
C2806 C 0.10796 0.78119 0.47336 0.0
C2807 C 0.1013 0.7647 0.46285 0.0
C2808 C 0.10634 0.74625 0.47321 0.0
H2809 H 1.0137 0.76127 0.34504 0.0
H2810 H 0.0319 0.7556 0.38139 0.0
C2811 C 0.11797 0.74426 0.49348 0.0
C2812 C 0.09006 0.76645 0.44069 0.0
H2813 H 0.04466 0.78539 0.41005 0.0
C2814 C 0.09982 0.75755 0.42461 0.0
C2815 C 0.06975 0.77637 0.43538 0.0
C2816 C 0.05808 0.78555 0.45204 0.0
C2817 C 0.09008 0.75862 0.40342 0.0
C2818 C 0.07003 0.76894 0.39801 0.0
C2819 C 0.06005 0.77753 0.41414 0.0
C2820 C 0.05945 0.77142 0.37563 0.0
C2821 C 0.10124 0.7485 0.38698 0.0
C2822 C 0.06889 0.78207 0.36019 0.0
C2823 C 0.05853 0.78535 0.33945 0.0
C2824 C 0.03845 0.77802 0.33354 0.0
C2825 C 0.02923 0.76694 0.3489 0.0
C2826 C 0.03955 0.76381 0.36976 0.0
H2827 H 0.11368 0.73739 0.39437 0.0
H2828 H 0.08967 0.74135 0.37582 0.0
H2829 H 0.1091 0.75943 0.37765 0.0
H2830 H 0.08407 0.7883 0.36434 0.0
H2831 H 0.06609 0.79404 0.32814 0.0
H2832 H 0.22007 0.01831 0.31019 0.0
H2833 H 0.19017 0.9976 0.3013 0.0
H2834 H 0.22985 0.94697 0.32693 0.0
H2835 H 0.2594 0.96748 0.33621 0.0
H2836 H 0.18323 0.96489 0.27749 0.0
H2837 H 0.18117 0.94575 0.36299 0.0
H2838 H 0.19662 0.965 0.35382 0.0
H2839 H 0.20666 0.94001 0.35441 0.0
C2840 C 0.22252 1.00271 0.31346 0.0
C2841 C 0.24204 0.99455 0.32403 0.0
C2842 C 0.20539 0.99089 0.30851 0.0
C2843 C 0.20757 0.97077 0.314 0.0
C2844 C 0.22756 0.9625 0.3231 0.0
H2845 H 0.12303 0.87495 0.3129 0.0
H2846 H 0.15377 0.89523 0.31465 0.0
C2847 C 0.24451 0.97425 0.32822 0.0
C2848 C 0.18885 0.95847 0.31126 0.0
H2849 H 0.15951 0.928 0.33867 0.0
C2850 C 0.17797 0.95691 0.29087 0.0
C2851 C 0.1819 0.94805 0.32874 0.0
C2852 C 0.19204 0.9499 0.35125 0.0
C2853 C 0.16072 0.94487 0.28743 0.0
C2854 C 0.15397 0.93429 0.30488 0.0
C2855 C 0.16478 0.93596 0.32526 0.0
C2856 C 0.13545 0.92175 0.30252 0.0
C2857 C 0.15016 0.94324 0.26507 0.0
C2858 C 0.11488 0.92986 0.29517 0.0
C2859 C 0.0973 0.9183 0.29414 0.0
C2860 C 0.09981 0.89833 0.30052 0.0
C2861 C 0.1205 0.89019 0.30764 0.0
C2862 C 0.13809 0.9018 0.30876 0.0
H2863 H 0.16054 0.948 0.2531 0.0
H2864 H 0.14602 0.92805 0.26233 0.0
H2865 H 0.1352 0.9527 0.26252 0.0
H2866 H 0.11234 0.94525 0.29062 0.0
H2867 H 0.08167 0.92505 0.28837 0.0
H2868 H 0.48404 0.08849 0.82103 0.0
H2869 H 0.44869 0.07576 0.82082 0.0
H2870 H 0.42827 0.12479 0.85448 0.0
H2871 H 0.46357 0.13772 0.85456 0.0
H2872 H 0.42768 0.06454 0.85352 0.0
H2873 H 0.38085 0.12543 0.80577 0.0
H2874 H 0.40958 0.12274 0.808 0.0
H2875 H 0.39662 0.13311 0.82887 0.0
C2876 C 0.47205 0.09653 0.82848 0.0
C2877 C 0.47661 0.11413 0.8378 0.0
C2878 C 0.45182 0.08928 0.82824 0.0
C2879 C 0.43568 0.09948 0.83729 0.0
C2880 C 0.44026 0.11693 0.84688 0.0
H2881 H 0.30891 0.07334 0.86417 0.0
H2882 H 0.343 0.08773 0.86103 0.0
C2883 C 0.46047 0.12426 0.847 0.0
C2884 C 0.41434 0.09147 0.8373 0.0
H2885 H 0.36099 0.10197 0.82247 0.0
C2886 C 0.41313 0.07268 0.84659 0.0
C2887 C 0.39532 0.10209 0.82822 0.0
C2888 C 0.39561 0.12188 0.81696 0.0
C2889 C 0.39344 0.06439 0.84744 0.0
C2890 C 0.37446 0.07509 0.83861 0.0
C2891 C 0.37561 0.09384 0.82926 0.0
C2892 C 0.35327 0.06709 0.83928 0.0
C2893 C 0.39302 0.04438 0.85817 0.0
C2894 C 0.34756 0.051 0.82768 0.0
C2895 C 0.32805 0.04278 0.82934 0.0
C2896 C 0.31392 0.05049 0.8427 0.0
C2897 C 0.31944 0.06699 0.8538 0.0
C2898 C 0.3389 0.07526 0.85202 0.0
H2899 H 0.40851 0.03964 0.86769 0.0
H2900 H 0.38026 0.04406 0.86873 0.0
H2901 H 0.38954 0.03371 0.84592 0.0
H2902 H 0.35835 0.04464 0.81756 0.0
H2903 H 0.32428 0.03012 0.82054 0.0
H2904 H 0.72445 0.60631 0.68925 0.0
H2905 H 0.69369 0.62668 0.69727 0.0
H2906 H 0.66434 0.57531 0.71838 0.0
H2907 H 0.69486 0.55505 0.71076 0.0
H2908 H 0.65318 0.62411 0.67743 0.0
H2909 H 0.65309 0.61205 0.76395 0.0
H2910 H 0.67635 0.60634 0.75097 0.0
H2911 H 0.65571 0.58939 0.7516 0.0
C2912 C 0.71169 0.59945 0.69617 0.0
C2913 C 0.71204 0.57908 0.69932 0.0
C2914 C 0.69412 0.61109 0.70066 0.0
C2915 C 0.67683 0.60254 0.70865 0.0
C2916 C 0.67767 0.58229 0.71268 0.0
H2917 H 0.54318 0.62476 0.68717 0.0
H2918 H 0.58112 0.61664 0.68617 0.0
C2919 C 0.6951 0.5707 0.70814 0.0
C2920 C 0.65679 0.61417 0.71046 0.0
H2921 H 0.61869 0.621 0.7435 0.0
C2922 C 0.64583 0.6238 0.69199 0.0
C2923 C 0.6473 0.614 0.7295 0.0
C2924 C 0.65886 0.60505 0.75017 0.0
C2925 C 0.62504 0.63212 0.69173 0.0
C2926 C 0.61486 0.63043 0.71032 0.0
C2927 C 0.62636 0.622 0.72915 0.0
C2928 C 0.59192 0.63617 0.71027 0.0
C2929 C 0.61404 0.6423 0.67144 0.0
C2930 C 0.58538 0.64952 0.72446 0.0
C2931 C 0.56368 0.65399 0.72527 0.0
C2932 C 0.5481 0.64508 0.71198 0.0
C2933 C 0.55474 0.63178 0.6977 0.0
C2934 C 0.57644 0.62732 0.69692 0.0
H2935 H 0.62578 0.6479 0.66132 0.0
H2936 H 0.60455 0.63179 0.66229 0.0
H2937 H 0.6031 0.65463 0.67473 0.0
H2938 H 0.59706 0.65635 0.73507 0.0
H2939 H 0.55911 0.66405 0.7367 0.0
H2940 H 0.90245 0.38248 0.20197 0.0
H2941 H 0.87161 0.40451 0.20586 0.0
H2942 H 0.90906 0.43243 0.25547 0.0
H2943 H 0.93995 0.41056 0.2516 0.0
H2944 H 0.84997 0.41079 0.24053 0.0
H2945 H 0.88617 0.47821 0.21465 0.0
H2946 H 0.89755 0.45422 0.21096 0.0
H2947 H 0.90181 0.46451 0.23645 0.0
C2948 C 0.90408 0.39326 0.21377 0.0
C2949 C 0.9237 0.3949 0.22634 0.0
C2950 C 0.88647 0.40586 0.21594 0.0
C2951 C 0.88814 0.42033 0.2307 0.0
C2952 C 0.90756 0.4217 0.24362 0.0
H2953 H 0.79929 0.51349 0.26023 0.0
H2954 H 0.82901 0.48861 0.26234 0.0
C2955 C 0.92519 0.40919 0.24138 0.0
C2956 C 0.86958 0.43399 0.23255 0.0
H2957 H 0.85299 0.48219 0.22809 0.0
C2958 C 0.8506 0.4264 0.23779 0.0
C2959 C 0.87045 0.45436 0.22896 0.0
C2960 C 0.89 0.46334 0.22225 0.0
C2961 C 0.83252 0.43866 0.23972 0.0
C2962 C 0.83342 0.459 0.2361 0.0
C2963 C 0.85243 0.46659 0.23103 0.0
C2964 C 0.81457 0.47268 0.23645 0.0
C2965 C 0.81269 0.42977 0.2458 0.0
C2966 C 0.79653 0.47176 0.22143 0.0
C2967 C 0.77968 0.48591 0.22024 0.0
C2968 C 0.78072 0.50128 0.23386 0.0
C2969 C 0.79826 0.50175 0.24952 0.0
C2970 C 0.8152 0.48764 0.25067 0.0
H2971 H 0.81629 0.41491 0.25348 0.0
H2972 H 0.80479 0.43898 0.25677 0.0
H2973 H 0.80127 0.42865 0.23129 0.0
H2974 H 0.79578 0.46047 0.21018 0.0
H2975 H 0.76596 0.48502 0.20846 0.0
H2976 H 0.32645 0.25897 1.00506 0.0
H2977 H 0.31345 0.23095 0.9866 0.0
H2978 H 0.29265 0.20749 0.0444 0.0
H2979 H 0.3051 0.23584 0.06282 0.0
H2980 H 0.33028 0.19506 0.99684 0.0
H2981 H 0.24332 0.19602 1.00128 0.0
H2982 H 0.25866 0.21695 1.00657 0.0
H2983 H 0.25869 0.19759 0.0267 0.0
C2984 C 0.31858 0.2481 1.01369 0.0
C2985 C 0.31681 0.24956 0.03538 0.0
C2986 C 0.31119 0.23208 1.00313 0.0
C2987 C 0.302 0.21713 1.01406 0.0
C2988 C 0.29926 0.21902 0.03549 0.0
H2989 H 0.30951 0.09647 0.98316 0.0
H2990 H 0.3127 0.12768 0.99941 0.0
C2991 C 0.30644 0.23521 0.04604 0.0
C2992 C 0.2978 0.19866 1.00372 0.0
H2993 H 0.25991 0.16614 0.99186 0.0
C2994 C 0.31482 0.18885 0.99561 0.0
C2995 C 0.27762 0.1906 1.00198 0.0
C2996 C 0.25847 0.20093 1.0094 0.0
C2997 C 0.31234 0.17108 0.98611 0.0
C2998 C 0.29243 0.1626 0.98517 0.0
C2999 C 0.27524 0.17257 0.99286 0.0
C3000 C 0.28926 0.14341 0.97619 0.0
C3001 C 0.33105 0.16168 0.97695 0.0
C3002 C 0.27446 0.14175 0.95818 0.0
C3003 C 0.27238 0.12384 0.949 0.0
C3004 C 0.28502 0.10724 0.95771 0.0
C3005 C 0.29941 0.10889 0.97611 0.0
C3006 C 0.30143 0.12677 0.9853 0.0
H3007 H 0.34294 0.17238 0.9737 0.0
H3008 H 0.33915 0.15022 0.98851 0.0
H3009 H 0.32573 0.15478 0.96197 0.0
H3010 H 0.26482 0.1544 0.951 0.0
H3011 H 0.26087 0.12301 0.93506 0.0
H3012 H 0.78355 0.32846 0.98107 0.0
H3013 H 0.77748 0.35283 1.00663 0.0
H3014 H 0.81559 0.31679 0.05612 0.0
H3015 H 0.82202 0.29238 0.03053 0.0
H3016 H 0.75934 0.3518 0.04405 0.0
H3017 H 0.84468 0.3679 0.05989 0.0
H3018 H 0.83474 0.35367 0.03821 0.0
H3019 H 0.83929 0.34287 0.06484 0.0
C3020 C 0.7905 0.32556 0.99743 0.0
C3021 C 0.80329 0.30836 1.00365 0.0
C3022 C 0.78702 0.33958 1.01207 0.0
C3023 C 0.79637 0.33693 0.0333 0.0
C3024 C 0.80852 0.31945 0.03978 0.0
H3025 H 0.79878 0.41834 0.13616 0.0
H3026 H 0.80281 0.38933 0.11588 0.0
C3027 C 0.81197 0.30535 0.02513 0.0
C3028 C 0.79354 0.35264 0.04837 0.0
H3029 H 0.82062 0.38479 0.07916 0.0
C3030 C 0.77277 0.35896 0.05175 0.0
C3031 C 0.81101 0.36202 0.05858 0.0
C3032 C 0.83369 0.35643 0.05512 0.0
C3033 C 0.769 0.3743 0.06493 0.0
C3034 C 0.78642 0.38404 0.07471 0.0
C3035 C 0.80722 0.37744 0.0717 0.0
C3036 C 0.78336 0.4015 0.08742 0.0
C3037 C 0.74631 0.37975 0.06844 0.0
C3038 C 0.77118 0.41818 0.0783 0.0
C3039 C 0.76871 0.43474 0.08992 0.0
C3040 C 0.77852 0.43525 0.11099 0.0
C3041 C 0.79071 0.41849 0.12013 0.0
C3042 C 0.79318 0.4019 0.10846 0.0
H3043 H 0.73593 0.36741 0.06573 0.0
H3044 H 0.74545 0.38444 0.08478 0.0
H3045 H 0.73983 0.39198 0.05702 0.0
H3046 H 0.76378 0.41852 0.06201 0.0
H3047 H 0.75904 0.44719 0.08231 0.0
H3048 H 0.73315 0.7242 0.50048 0.0
H3049 H 0.74379 0.69294 0.52032 0.0
H3050 H 0.70981 0.71131 0.57145 0.0
H3051 H 0.69953 0.74247 0.55209 0.0
H3052 H 0.74845 0.69256 0.58599 0.0
H3053 H 0.70276 0.64966 0.52644 0.0
H3054 H 0.72243 0.66426 0.51641 0.0
H3055 H 0.69965 0.67586 0.52605 0.0
C3056 C 0.72825 0.72168 0.51609 0.0
C3057 C 0.71539 0.73583 0.52462 0.0
C3058 C 0.73414 0.70372 0.52732 0.0
C3059 C 0.72723 0.69961 0.54721 0.0
C3060 C 0.71523 0.71407 0.5561 0.0
H3061 H 0.71047 0.59197 0.61769 0.0
H3062 H 0.70671 0.62193 0.59469 0.0
C3063 C 0.70936 0.73192 0.54495 0.0
C3064 C 0.73187 0.68021 0.55879 0.0
H3065 H 0.72154 0.63211 0.55644 0.0
C3066 C 0.74272 0.67931 0.57947 0.0
C3067 C 0.72406 0.66297 0.5504 0.0
C3068 C 0.71141 0.66314 0.52869 0.0
C3069 C 0.74581 0.66176 0.59204 0.0
C3070 C 0.7382 0.64448 0.58358 0.0
C3071 C 0.72748 0.64532 0.56285 0.0
C3072 C 0.74062 0.62555 0.59632 0.0
C3073 C 0.7565 0.66206 0.61457 0.0
C3074 C 0.76093 0.61731 0.60442 0.0
C3075 C 0.76313 0.60026 0.61764 0.0
C3076 C 0.74505 0.59091 0.62288 0.0
C3077 C 0.72473 0.59875 0.61402 0.0
C3078 C 0.72255 0.6159 0.60086 0.0
H3079 H 0.75638 0.67702 0.62029 0.0
H3080 H 0.74856 0.65263 0.62554 0.0
H3081 H 0.77338 0.65649 0.61529 0.0
H3082 H 0.77512 0.62421 0.60076 0.0
H3083 H 0.77905 0.59458 0.62399 0.0
H3084 H 0.18527 0.77108 0.48861 0.0
H3085 H 0.19682 0.79663 0.46474 0.0
H3086 H 0.23944 0.81569 0.51669 0.0
H3087 H 0.22822 0.79032 0.54028 0.0
H3088 H 0.19094 0.83576 0.46986 0.0
H3089 H 0.27694 0.81742 0.46953 0.0
H3090 H 0.25903 0.79998 0.47821 0.0
H3091 H 0.27002 0.81733 0.49607 0.0
C3092 C 0.19767 0.78028 0.49468 0.0
C3093 C 0.20595 0.77859 0.51628 0.0
C3094 C 0.20412 0.795 0.48109 0.0
C3095 C 0.21921 0.80802 0.48882 0.0
C3096 C 0.22817 0.80564 0.51015 0.0
H3097 H 0.23151 0.92902 0.46088 0.0
H3098 H 0.22284 0.89653 0.47286 0.0
C3099 C 0.22166 0.79113 0.52368 0.0
C3100 C 0.22399 0.8254 0.47558 0.0
H3101 H 0.26522 0.85131 0.46148 0.0
C3102 C 0.20716 0.83898 0.46769 0.0
C3103 C 0.2451 0.82963 0.47248 0.0
C3104 C 0.26377 0.8152 0.47933 0.0
C3105 C 0.21097 0.85704 0.45791 0.0
C3106 C 0.23222 0.86186 0.45626 0.0
C3107 C 0.24894 0.84782 0.46301 0.0
C3108 C 0.23746 0.88167 0.44861 0.0
C3109 C 0.19215 0.87089 0.44965 0.0
C3110 C 0.24912 0.88422 0.4313 0.0
C3111 C 0.25437 0.90287 0.42452 0.0
C3112 C 0.24828 0.91939 0.43507 0.0
C3113 C 0.23671 0.9167 0.45248 0.0
C3114 C 0.23145 0.8981 0.4592 0.0
H3115 H 0.17744 0.863 0.44589 0.0
H3116 H 0.18917 0.88114 0.46202 0.0
H3117 H 0.1952 0.87949 0.43518 0.0
H3118 H 0.25412 0.87177 0.42298 0.0
H3119 H 0.2635 0.90431 0.41122 0.0
H3120 H 0.08613 0.70736 0.85917 0.0
H3121 H 0.10557 0.70399 0.89494 0.0
H3122 H 0.07341 0.75709 0.91064 0.0
H3123 H 0.05367 0.7605 0.87492 0.0
H3124 H 0.13288 0.72785 0.91783 0.0
H3125 H 0.06033 0.71801 0.95727 0.0
H3126 H 0.06036 0.71673 0.92898 0.0
H3127 H 0.05904 0.73997 0.94055 0.0
C3128 C 0.08328 0.71846 0.87012 0.0
C3129 C 0.06818 0.73418 0.86409 0.0
C3130 C 0.09442 0.71647 0.89064 0.0
C3131 C 0.09067 0.73004 0.9057 0.0
C3132 C 0.07625 0.74617 0.89949 0.0
H3133 H 0.13701 0.75015 0.03481 0.0
H3134 H 0.11721 0.74845 0.99966 0.0
C3135 C 0.0651 0.7482 0.87895 0.0
C3136 C 0.10164 0.72719 0.92791 0.0
H3137 H 0.0924 0.722 0.97979 0.0
C3138 C 0.12405 0.72642 0.93137 0.0
C3139 C 0.09015 0.72517 0.94563 0.0
C3140 C 0.06616 0.72481 0.94299 0.0
C3141 C 0.1352 0.72446 0.95203 0.0
C3142 C 0.12366 0.72282 0.96977 0.0
C3143 C 0.10128 0.72321 0.96626 0.0
C3144 C 0.13439 0.72222 0.9921 0.0
C3145 C 0.1592 0.72495 0.95468 0.0
C3146 C 0.15009 0.70754 1.0001 0.0
C3147 C 0.16146 0.70842 0.02041 0.0
C3148 C 0.15732 0.72401 0.03308 0.0
C3149 C 0.14068 0.73796 0.0255 0.0
C3150 C 0.12934 0.73704 1.00532 0.0
H3151 H 0.16515 0.73069 0.93997 0.0
H3152 H 0.16478 0.73408 0.96788 0.0
H3153 H 0.16643 0.70996 0.95851 0.0
H3154 H 0.15398 0.69569 0.99042 0.0
H3155 H 0.17427 0.69753 0.02564 0.0
H3156 H 0.53067 0.2804 0.30762 0.0
H3157 H 0.51178 0.27084 0.33746 0.0
H3158 H 0.57139 0.24967 0.37355 0.0
H3159 H 0.59052 0.25933 0.34343 0.0
H3160 H 0.50884 0.2355 0.36195 0.0
H3161 H 0.54748 0.29186 0.41013 0.0
H3162 H 0.54835 0.29131 0.38189 0.0
H3163 H 0.5651 0.27437 0.39984 0.0
C3164 C 0.53975 0.2732 0.32169 0.0
C3165 C 0.56211 0.2705 0.32306 0.0
C3166 C 0.5289 0.26782 0.33882 0.0
C3167 C 0.54011 0.25983 0.35798 0.0
C3168 C 0.56237 0.25606 0.35906 0.0
H3169 H 0.49392 0.24373 0.48238 0.0
H3170 H 0.51564 0.2447 0.45307 0.0
C3171 C 0.57328 0.2613 0.34172 0.0
C3172 C 0.5284 0.25667 0.37692 0.0
H3173 H 0.52229 0.27381 0.42559 0.0
C3174 C 0.51189 0.24377 0.37593 0.0
C3175 C 0.53221 0.26753 0.39518 0.0
C3176 C 0.54912 0.28218 0.39691 0.0
C3177 C 0.49923 0.24138 0.39262 0.0
C3178 C 0.50271 0.25257 0.4107 0.0
C3179 C 0.51948 0.26523 0.41181 0.0
C3180 C 0.48912 0.25155 0.42853 0.0
C3181 C 0.48245 0.22663 0.3908 0.0
C3182 C 0.46683 0.25525 0.42476 0.0
C3183 C 0.45428 0.25471 0.44159 0.0
C3184 C 0.46369 0.25072 0.46273 0.0
C3185 C 0.48603 0.24712 0.46643 0.0
C3186 C 0.49853 0.24757 0.4496 0.0
H3187 H 0.48616 0.2153 0.37975 0.0
H3188 H 0.4809 0.21936 0.4065 0.0
H3189 H 0.46684 0.23411 0.38443 0.0
H3190 H 0.4591 0.25891 0.4088 0.0
H3191 H 0.43723 0.25788 0.43807 0.0
H3192 H 0.56552 0.74507 0.06324 0.0
H3193 H 0.54482 0.7485 0.09322 0.0
H3194 H 0.58593 0.79224 0.11729 0.0
H3195 H 0.60664 0.78893 0.08746 0.0
H3196 H 0.55545 0.74423 0.13733 0.0
H3197 H 0.52711 0.82036 0.11241 0.0
H3198 H 0.53983 0.80463 0.09522 0.0
H3199 H 0.55564 0.81675 0.11541 0.0
C3200 C 0.57031 0.75528 0.07503 0.0
C3201 C 0.58766 0.76688 0.07275 0.0
C3202 C 0.55839 0.75727 0.09215 0.0
C3203 C 0.5635 0.77092 0.10732 0.0
C3204 C 0.58129 0.78197 0.10551 0.0
H3205 H 0.52302 0.81491 0.21952 0.0
H3206 H 0.54099 0.80398 0.19012 0.0
C3207 C 0.59314 0.78005 0.08841 0.0
C3208 C 0.55013 0.77398 0.12483 0.0
H3209 H 0.52182 0.80925 0.14743 0.0
C3210 C 0.54789 0.75839 0.13944 0.0
C3211 C 0.54002 0.79239 0.12747 0.0
C3212 C 0.54055 0.80944 0.11168 0.0
C3213 C 0.53675 0.761 0.15713 0.0
C3214 C 0.52744 0.77962 0.16019 0.0
C3215 C 0.52907 0.79499 0.14519 0.0
C3216 C 0.51725 0.78407 0.17952 0.0
C3217 C 0.5357 0.74406 0.17289 0.0
C3218 C 0.49803 0.77617 0.18377 0.0
C3219 C 0.4876 0.78241 0.20083 0.0
C3220 C 0.49617 0.79675 0.21374 0.0
C3221 C 0.51584 0.80394 0.20987 0.0
C3222 C 0.52619 0.79771 0.193 0.0
H3223 H 0.54649 0.73145 0.17005 0.0
H3224 H 0.54001 0.74847 0.18934 0.0
H3225 H 0.51914 0.73932 0.17163 0.0
H3226 H 0.49067 0.7658 0.17343 0.0
H3227 H 0.47239 0.77673 0.20326 0.0
H3228 H 0.92374 0.2331 0.53273 0.0
H3229 H 0.9456 0.23095 0.56752 0.0
H3230 H 0.91775 0.28655 0.58153 0.0
H3231 H 0.89589 0.28882 0.54707 0.0
H3232 H 0.97548 0.25647 0.58714 0.0
H3233 H 0.90532 0.25014 0.63137 0.0
H3234 H 0.90391 0.24683 0.60326 0.0
H3235 H 0.9039 0.2709 0.61284 0.0
C3236 C 0.92244 0.24498 0.54309 0.0
C3237 C 0.90788 0.26105 0.53707 0.0
C3238 C 0.93491 0.2437 0.56302 0.0
C3239 C 0.93299 0.2584 0.57735 0.0
C3240 C 0.91918 0.27482 0.57099 0.0
H3241 H 0.98937 0.2622 0.71169 0.0
H3242 H 0.97024 0.27212 0.67627 0.0
C3243 C 0.90676 0.27612 0.55115 0.0
C3244 C 0.94507 0.25644 0.59908 0.0
H3245 H 0.9388 0.25185 0.65183 0.0
C3246 C 0.96746 0.2555 0.60127 0.0
C3247 C 0.93462 0.25536 0.61759 0.0
C3248 C 0.91062 0.2557 0.61626 0.0
C3249 C 0.97963 0.25339 0.62139 0.0
C3250 C 0.9692 0.25178 0.63988 0.0
C3251 C 0.94681 0.25321 0.63772 0.0
C3252 C 0.9812 0.24657 0.66129 0.0
C3253 C 1.00363 0.25291 0.62266 0.0
C3254 C 0.99345 0.22889 0.66472 0.0
C3255 C 1.00422 0.22323 0.68473 0.0
C3256 C 1.00301 0.23501 0.70208 0.0
C3257 C 0.99075 0.25282 0.69871 0.0
C3258 C 0.97979 0.25847 0.67849 0.0
H3259 H 1.00877 0.26052 0.60847 0.0
H3260 H 1.01074 0.25973 0.63709 0.0
H3261 H 1.01004 0.23754 0.62334 0.0
H3262 H 0.99444 0.21923 0.65191 0.0
H3263 H 1.01344 0.2094 0.68653 0.0
H3264 H 0.80559 1.00185 0.74438 0.0
H3265 H 0.83494 0.02148 0.75867 0.0
H3266 H 0.8196 0.06323 0.70537 0.0
H3267 H 0.79075 0.04374 0.69106 0.0
H3268 H 0.87021 0.03168 0.73324 0.0
H3269 H 0.82673 0.09668 0.75886 0.0
H3270 H 0.81506 0.0734 0.75651 0.0
H3271 H 0.81665 0.0889 0.7332 0.0
C3272 C 0.8082 0.01548 0.73607 0.0
C3273 C 0.79586 0.02131 0.71665 0.0
C3274 C 0.82503 0.0266 0.74414 0.0
C3275 C 0.82939 0.04391 0.73315 0.0
C3276 C 0.81643 0.05009 0.71427 0.0
H3277 H 0.91977 0.13194 0.72876 0.0
H3278 H 0.88913 0.1117 0.72632 0.0
C3279 C 0.79996 0.0389 0.70608 0.0
C3280 C 0.84843 0.05487 0.74011 0.0
H3281 H 0.86323 0.09985 0.75416 0.0
C3282 C 0.86878 0.04646 0.7382 0.0
C3283 C 0.8465 0.07424 0.74629 0.0
C3284 C 0.82508 0.08385 0.74903 0.0
C3285 C 0.88712 0.05719 0.74133 0.0
C3286 C 0.88518 0.07675 0.74714 0.0
C3287 C 0.86483 0.08491 0.7497 0.0
C3288 C 0.90379 0.08932 0.74949 0.0
C3289 C 0.90821 0.04774 0.73722 0.0
C3290 C 0.92223 0.0838 0.76364 0.0
C3291 C 0.9399 0.09535 0.76498 0.0
C3292 C 0.93941 0.11288 0.75246 0.0
C3293 C 0.92068 0.11866 0.7388 0.0
C3294 C 0.90312 0.10703 0.73733 0.0
H3295 H 0.90606 0.03487 0.72753 0.0
H3296 H 0.91759 0.05819 0.7289 0.0
H3297 H 0.91762 0.04271 0.75259 0.0
H3298 H 0.92301 0.07053 0.77367 0.0
H3299 H 0.95391 0.09059 0.77591 0.0
H3300 H 0.73547 0.94865 0.22921 0.0
H3301 H 0.70366 0.93153 0.23584 0.0
H3302 H 0.67614 0.94558 0.17106 0.0
H3303 H 0.70772 0.96214 0.16418 0.0
H3304 H 0.66286 0.94673 0.2334 0.0
H3305 H 0.66603 0.88856 0.17714 0.0
H3306 H 0.68857 0.90279 0.1846 0.0
H3307 H 0.66776 0.912 0.16407 0.0
C3308 C 0.7228 0.94777 0.2163 0.0
C3309 C 0.72421 0.95675 0.19616 0.0
C3310 C 0.70461 0.93804 0.22013 0.0
C3311 C 0.68764 0.937 0.20385 0.0
C3312 C 0.68921 0.94573 0.18372 0.0
H3313 H 0.55329 0.92978 0.20891 0.0
H3314 H 0.58983 0.93928 0.20799 0.0
C3315 C 0.7073 0.95536 0.17987 0.0
C3316 C 0.6676 0.92806 0.208 0.0
H3317 H 0.63147 0.89671 0.18789 0.0
C3318 C 0.65614 0.93557 0.22367 0.0
C3319 C 0.65895 0.91328 0.19557 0.0
C3320 C 0.6711 0.90355 0.17957 0.0
C3321 C 0.63581 0.9294 0.22651 0.0
C3322 C 0.62649 0.9157 0.21295 0.0
C3323 C 0.63842 0.90748 0.19803 0.0
C3324 C 0.60427 0.90996 0.21366 0.0
C3325 C 0.62456 0.93764 0.244 0.0
C3326 C 0.60009 0.89026 0.21637 0.0
C3327 C 0.57916 0.88474 0.21643 0.0
C3328 C 0.5619 0.89881 0.21379 0.0
C3329 C 0.56613 0.91853 0.21085 0.0
C3330 C 0.58708 0.92402 0.21066 0.0
H3331 H 0.63611 0.94266 0.25686 0.0
H3332 H 0.61391 0.9504 0.23741 0.0
H3333 H 0.61474 0.92672 0.251 0.0
H3334 H 0.61306 0.87911 0.21845 0.0
H3335 H 0.57652 0.86939 0.21832 0.0
H3336 H 0.48286 0.38217 0.35407 0.0
H3337 H 0.44536 0.39275 0.35363 0.0
H3338 H 0.43083 0.36971 0.2921 0.0
H3339 H 0.46855 0.35987 0.29195 0.0
H3340 H 0.41238 0.4056 0.29329 0.0
H3341 H 0.39553 0.36071 0.36319 0.0
H3342 H 0.4181 0.37489 0.36959 0.0
H3343 H 0.41934 0.35646 0.3506 0.0
C3344 C 0.47174 0.37943 0.34037 0.0
C3345 C 0.47875 0.37014 0.32306 0.0
C3346 C 0.45023 0.38522 0.34029 0.0
C3347 C 0.4352 0.38163 0.32304 0.0
C3348 C 0.44211 0.37242 0.30569 0.0
H3349 H 0.30153 0.41184 0.33956 0.0
H3350 H 0.33251 0.39297 0.32974 0.0
C3351 C 0.46367 0.3667 0.3057 0.0
C3352 C 0.41253 0.38852 0.32271 0.0
H3353 H 0.37134 0.38884 0.35278 0.0
C3354 C 0.40327 0.40168 0.30612 0.0
C3355 C 0.40042 0.38307 0.33914 0.0
C3356 C 0.40879 0.36783 0.3565 0.0
C3357 C 0.38276 0.41049 0.30626 0.0
C3358 C 0.37144 0.40634 0.32369 0.0
C3359 C 0.38012 0.39222 0.33955 0.0
C3360 C 0.35169 0.41782 0.32693 0.0
C3361 C 0.37358 0.4244 0.28791 0.0
C3362 C 0.35214 0.43803 0.32843 0.0
C3363 C 0.33454 0.4488 0.33394 0.0
C3364 C 0.31614 0.43956 0.33832 0.0
C3365 C 0.31543 0.41939 0.3362 0.0
C3366 C 0.33312 0.40859 0.33065 0.0
H3367 H 0.3801 0.42064 0.27306 0.0
H3368 H 0.35591 0.42439 0.28517 0.0
H3369 H 0.37804 0.43935 0.2914 0.0
H3370 H 0.36644 0.44541 0.32619 0.0
H3371 H 0.33569 0.4643 0.33547 0.0
H3372 H 0.26615 0.53039 0.82826 0.0
H3373 H 0.23578 0.55449 0.82603 0.0
H3374 H 0.20271 0.5242 0.77554 0.0
H3375 H 0.23308 0.49992 0.77794 0.0
H3376 H 0.21381 0.57901 0.79012 0.0
H3377 H 0.16287 0.52493 0.82379 0.0
H3378 H 0.19154 0.52118 0.82592 0.0
H3379 H 0.17553 0.51801 0.8012 0.0
C3380 C 0.25233 0.5289 0.81676 0.0
C3381 C 0.25154 0.51314 0.80367 0.0
C3382 C 0.23514 0.54271 0.81538 0.0
C3383 C 0.21689 0.54087 0.80092 0.0
C3384 C 0.21655 0.52567 0.78702 0.0
H3385 H 0.09156 0.60219 0.79106 0.0
H3386 H 0.12211 0.58045 0.78573 0.0
C3387 C 0.23387 0.51192 0.78831 0.0
C3388 C 0.19792 0.55436 0.80123 0.0
H3389 H 0.14741 0.55658 0.8151 0.0
C3390 C 0.19923 0.57414 0.79546 0.0
C3391 C 0.17899 0.5479 0.80827 0.0
C3392 C 0.17705 0.52689 0.81531 0.0
C3393 C 0.18201 0.58769 0.79648 0.0
C3394 C 0.1632 0.5813 0.80392 0.0
C3395 C 0.16183 0.56145 0.8094 0.0
C3396 C 0.1449 0.59497 0.80663 0.0
C3397 C 0.18404 0.60866 0.78933 0.0
C3398 C 0.14752 0.61023 0.82033 0.0
C3399 C 0.13009 0.62266 0.82342 0.0
C3400 C 0.10964 0.61993 0.81306 0.0
C3401 C 0.10705 0.60455 0.79945 0.0
C3402 C 0.12451 0.59219 0.7963 0.0
H3403 H 0.1964 0.61004 0.7784 0.0
H3404 H 0.16864 0.61534 0.7812 0.0
H3405 H 0.18884 0.61701 0.8034 0.0
H3406 H 0.16299 0.61233 0.82893 0.0
H3407 H 0.13254 0.63418 0.83426 0.0
H3408 H 0.69837 0.76912 0.03165 0.0
H3409 H 0.71207 0.79834 0.04686 0.0
H3410 H 0.75241 0.80453 0.99714 0.0
H3411 H 0.73839 0.77539 0.98142 0.0
H3412 H 0.75196 0.80979 0.06159 0.0
H3413 H 0.71573 0.85571 0.99043 0.0
H3414 H 0.70974 0.83064 0.99481 0.0
H3415 H 0.73444 0.83645 0.98541 0.0
C3416 C 0.71036 0.7765 0.02404 0.0
C3417 C 0.71708 0.77005 1.00514 0.0
C3418 C 0.7182 0.79322 0.0328 0.0
C3419 C 0.7329 0.80383 0.02288 0.0
C3420 C 0.7407 0.79677 1.00478 0.0
H3421 H 0.78704 0.90513 0.0829 0.0
H3422 H 0.7835 0.87393 0.06646 0.0
C3423 C 0.73281 0.78002 0.99593 0.0
C3424 C 0.73891 0.82282 0.03095 0.0
H3425 H 0.73377 0.87178 1.01833 0.0
C3426 C 0.74819 0.82335 0.0521 0.0
C3427 C 0.73363 0.8405 1.0186 0.0
C3428 C 0.72267 0.84093 0.99611 0.0
C3429 C 0.75201 0.84108 0.06136 0.0
C3430 C 0.7468 0.85875 0.04898 0.0
C3431 C 0.73787 0.85821 0.02773 0.0
C3432 C 0.7493 0.87799 0.05811 0.0
C3433 C 0.76075 0.84075 0.08456 0.0
C3434 C 0.73137 0.89092 0.0582 0.0
C3435 C 0.73337 0.90881 0.06741 0.0
C3436 C 0.75336 0.9141 0.07673 0.0
C3437 C 0.77138 0.90131 0.07616 0.0
C3438 C 0.76938 0.88347 0.06682 0.0
H3439 H 0.75903 0.82647 0.09293 0.0
H3440 H 0.77798 0.84341 0.08599 0.0
H3441 H 0.75254 0.8523 0.09269 0.0
H3442 H 0.71572 0.887 0.05152 0.0
H3443 H 0.71918 0.91827 0.06775 0.0
H3444 H 0.27543 0.57282 0.95057 0.0
H3445 H 0.27015 0.60224 0.96968 0.0
H3446 H 0.22439 0.62629 0.91792 0.0
H3447 H 0.22914 0.59664 0.89889 0.0
H3448 H 0.27614 0.64107 0.95866 0.0
H3449 H 0.19123 0.63169 0.9689 0.0
H3450 H 0.20829 0.61237 0.96071 0.0
H3451 H 0.19723 0.63179 0.94198 0.0
C3452 C 0.26408 0.58426 0.94326 0.0
C3453 C 0.25259 0.58215 0.92318 0.0
C3454 C 0.26118 0.60118 0.9542 0.0
C3455 C 0.2466 0.61645 0.94547 0.0
C3456 C 0.23543 0.61462 0.92523 0.0
H3457 H 0.20548 0.72344 1.00434 0.0
H3458 H 0.21126 0.69942 0.97804 0.0
C3459 C 0.23837 0.5977 0.91423 0.0
C3460 C 0.24327 0.63418 0.95763 0.0
H3461 H 0.20613 0.66006 0.98172 0.0
C3462 C 0.2608 0.64524 0.96363 0.0
C3463 C 0.22324 0.63981 0.96406 0.0
C3464 C 0.20393 0.62825 0.95877 0.0
C3465 C 0.25891 0.66155 0.97591 0.0
C3466 C 0.23903 0.66684 0.98287 0.0
C3467 C 0.22136 0.6561 0.97641 0.0
C3468 C 0.23659 0.68252 0.99804 0.0
C3469 C 0.27826 0.67305 0.98118 0.0
C3470 C 0.24888 0.6812 1.01805 0.0
C3471 C 0.24565 0.69491 0.03304 0.0
C3472 C 0.22996 0.71035 0.02852 0.0
C3473 C 0.21795 0.71197 1.00828 0.0
C3474 C 0.22113 0.69812 0.99327 0.0
H3475 H 0.28964 0.67141 0.96927 0.0
H3476 H 0.27374 0.68877 0.98198 0.0
H3477 H 0.28669 0.66754 0.99685 0.0
H3478 H 0.26055 0.66913 0.02241 0.0
H3479 H 0.25508 0.69303 0.04848 0.0
H3480 H 0.29498 0.27863 0.52121 0.0
H3481 H 0.28038 0.30773 0.4989 0.0
H3482 H 0.33937 0.31016 0.47153 0.0
H3483 H 0.35403 0.28144 0.49372 0.0
H3484 H 0.30192 0.34555 0.49971 0.0
H3485 H 0.29057 0.31588 0.41982 0.0
H3486 H 0.29136 0.30077 0.44406 0.0
H3487 H 0.31565 0.30877 0.4355 0.0
C3488 C 0.30462 0.28514 0.51009 0.0
C3489 C 0.32565 0.27773 0.50922 0.0
C3490 C 0.29633 0.30182 0.49747 0.0
C3491 C 0.30878 0.31105 0.4835 0.0
C3492 C 0.32942 0.30319 0.48204 0.0
H3493 H 0.31215 0.42675 0.42596 0.0
H3494 H 0.31799 0.39608 0.44771 0.0
C3495 C 0.33779 0.28678 0.49479 0.0
C3496 C 0.30103 0.32964 0.47139 0.0
H3497 H 0.28999 0.35039 0.42097 0.0
C3498 C 0.29905 0.3466 0.4825 0.0
C3499 C 0.29727 0.33097 0.44896 0.0
C3500 C 0.29863 0.31313 0.43631 0.0
C3501 C 0.29412 0.36495 0.47172 0.0
C3502 C 0.29121 0.36638 0.44926 0.0
C3503 C 0.29241 0.34932 0.43818 0.0
C3504 C 0.28724 0.38545 0.43692 0.0
C3505 C 0.29218 0.3827 0.48443 0.0
C3506 C 0.26806 0.38966 0.42354 0.0
C3507 C 0.26462 0.40721 0.41116 0.0
C3508 C 0.28042 0.42088 0.41164 0.0
C3509 C 0.29959 0.41666 0.42521 0.0
C3510 C 0.30294 0.39914 0.43773 0.0
H3511 H 0.28991 0.37876 0.50115 0.0
H3512 H 0.30699 0.39062 0.48453 0.0
H3513 H 0.27861 0.39274 0.4772 0.0
H3514 H 0.25576 0.3793 0.42259 0.0
H3515 H 0.24967 0.40987 0.40091 0.0
H3516 H 0.84916 0.23833 0.55853 0.0
H3517 H 0.83376 0.2113 0.57665 0.0
H3518 H 0.78463 0.20994 0.52362 0.0
H3519 H 0.79976 0.23742 0.50568 0.0
H3520 H 0.77108 0.19861 0.5643 0.0
H3521 H 0.84652 0.15923 0.55015 0.0
H3522 H 0.8502 0.18022 0.56545 0.0
H3523 H 0.83826 0.18319 0.53825 0.0
C3524 C 0.83439 0.23296 0.55128 0.0
C3525 C 0.82547 0.24015 0.53086 0.0
C3526 C 0.82578 0.21731 0.56149 0.0
C3527 C 0.80836 0.20825 0.55127 0.0
C3528 C 0.79811 0.21665 0.5318 0.0
H3529 H 0.78844 0.0851 0.56706 0.0
H3530 H 0.79435 0.11808 0.55419 0.0
C3531 C 0.80661 0.23252 0.52165 0.0
C3532 C 0.80287 0.1887 0.55944 0.0
H3533 H 0.82352 0.14178 0.56964 0.0
C3534 C 0.78252 0.18617 0.56551 0.0
C3535 C 0.81765 0.17235 0.5606 0.0
C3536 C 0.83931 0.17375 0.55309 0.0
C3537 C 0.77673 0.16782 0.57304 0.0
C3538 C 0.79179 0.15161 0.57482 0.0
C3539 C 0.81201 0.15417 0.56849 0.0
C3540 C 0.78688 0.13168 0.58255 0.0
C3541 C 0.75436 0.16587 0.5785 0.0
C3542 C 0.78079 0.12815 0.60289 0.0
C3543 C 0.77715 0.1092 0.61026 0.0
C3544 C 0.77968 0.09328 0.59753 0.0
C3545 C 0.78591 0.09693 0.57722 0.0
C3546 C 0.78946 0.11583 0.56986 0.0
H3547 H 0.74327 0.17798 0.5709 0.0
H3548 H 0.74813 0.15186 0.5735 0.0
H3549 H 0.75448 0.16625 0.59595 0.0
H3550 H 0.77914 0.13999 0.61323 0.0
H3551 H 0.77223 0.10707 0.62591 0.0
loop_
_geom_bond_atom_site_label_1
_geom_bond_atom_site_label_2
_geom_bond_distance
_geom_bond_site_symmetry_2
_ccdc_geom_bond_type
Tb0 C9 2.764 . S
Tb0 O10 2.325 . S
Tb0 O13 2.303 . S
Tb0 O17 2.322 1_455 S
Tb0 O18 2.349 1_455 S
Tb0 O21 2.415 . S
Tb0 O22 2.399 . S
Tb1 O11 2.322 1_655 S
Tb1 O12 2.349 1_655 S
Tb1 O14 2.415 . S
Tb1 O15 2.399 . S
Tb1 O16 2.325 . S
Tb1 O19 2.303 . S
Tb1 C30 2.764 . S
C2 O18 1.261 . S
C2 O19 1.257 . S
C3 C6 1.358 . S
C3 C7 1.332 . S
C3 C9 1.504 . S
C4 C5 1.373 . S
C4 C8 1.308 . S
C5 C4 1.373 . S
C5 C6 1.429 . S
C5 H32 0.932 . S
C6 C3 1.358 . S
C6 C5 1.429 . S
C6 H33 0.930 . S
C7 C3 1.332 . S
C7 C8 1.394 . S
C7 H34 0.932 . S
C8 C4 1.308 . S
C8 C7 1.394 . S
C8 H35 0.929 . S
C9 Tb0 2.764 . S
C9 C3 1.504 . S
C9 O21 1.239 . S
C9 O22 1.263 . S
O10 Tb0 2.325 . S
O10 C20 1.236 . S
O11 Tb1 2.322 1_455 S
O11 C20 1.257 . S
O12 Tb1 2.349 1_455 S
O12 C23 1.261 . S
O13 Tb0 2.303 . S
O13 C23 1.257 . S
O14 Tb1 2.415 . S
O14 C30 1.239 . S
O15 Tb1 2.399 . S
O15 C30 1.263 . S
O16 Tb1 2.325 . S
O16 C31 1.236 . S
O17 Tb0 2.322 1_655 S
O17 C31 1.257 . S
O18 Tb0 2.349 1_655 S
O18 C2 1.261 . S
O19 Tb1 2.303 . S
O19 C2 1.257 . S
C20 O10 1.236 . S
C20 O11 1.257 . S
O21 Tb0 2.415 . S
O21 C9 1.239 . S
O22 Tb0 2.399 . S
O22 C9 1.263 . S
C23 O12 1.261 . S
C23 O13 1.257 . S
C24 C27 1.358 . S
C24 C28 1.332 . S
C24 C30 1.504 . S
C25 C26 1.373 . S
C25 C29 1.308 . S
C26 C25 1.373 . S
C26 C27 1.429 . S
C26 H36 0.932 . S
C27 C24 1.358 . S
C27 C26 1.429 . S
C27 H37 0.930 . S
C28 C24 1.332 . S
C28 C29 1.394 . S
C28 H38 0.932 . S
C29 C25 1.308 . S
C29 C28 1.394 . S
C29 H39 0.929 . S
C30 Tb1 2.764 . S
C30 O14 1.239 . S
C30 O15 1.263 . S
C30 C24 1.504 . S
C31 O16 1.236 . S
C31 O17 1.257 . S
H32 C5 0.932 . S
H33 C6 0.930 . S
H34 C7 0.932 . S
H35 C8 0.929 . S
H36 C26 0.932 . S
H37 C27 0.930 . S
H38 C28 0.932 . S
H39 C29 0.929 . S
Tb40 C49 2.764 . S
Tb40 O50 2.325 . S
Tb40 O53 2.303 . S
Tb40 O57 2.322 . S
Tb40 O58 2.349 . S
Tb40 O61 2.415 . S
Tb40 O62 2.399 . S
Tb41 O51 2.322 . S
Tb41 O52 2.349 . S
Tb41 O54 2.415 . S
Tb41 O55 2.399 . S
Tb41 O56 2.325 . S
Tb41 O59 2.303 . S
Tb41 C70 2.764 . S
C42 O58 1.261 . S
C42 O59 1.257 . S
C43 C46 1.358 . S
C43 C47 1.332 . S
C43 C49 1.504 . S
C44 C45 1.373 . S
C44 C48 1.308 . S
C45 C44 1.373 . S
C45 C46 1.429 . S
C45 H72 0.932 . S
C46 C43 1.358 . S
C46 C45 1.429 . S
C46 H73 0.930 . S
C47 C43 1.332 . S
C47 C48 1.394 . S
C47 H74 0.932 . S
C48 C44 1.308 . S
C48 C47 1.394 . S
C48 H75 0.929 . S
C49 Tb40 2.764 . S
C49 C43 1.504 . S
C49 O61 1.239 . S
C49 O62 1.263 . S
O50 Tb40 2.325 . S
O50 C60 1.236 . S
O51 Tb41 2.322 . S
O51 C60 1.257 . S
O52 Tb41 2.349 . S
O52 C63 1.261 . S
O53 Tb40 2.303 . S
O53 C63 1.257 . S
O54 Tb41 2.415 . S
O54 C70 1.239 . S
O55 Tb41 2.399 . S
O55 C70 1.263 . S
O56 Tb41 2.325 . S
O56 C71 1.236 . S
O57 Tb40 2.322 . S
O57 C71 1.257 . S
O58 Tb40 2.349 . S
O58 C42 1.261 . S
O59 Tb41 2.303 . S
O59 C42 1.257 . S
C60 O50 1.236 . S
C60 O51 1.257 . S
O61 Tb40 2.415 . S
O61 C49 1.239 . S
O62 Tb40 2.399 . S
O62 C49 1.263 . S
C63 O52 1.261 . S
C63 O53 1.257 . S
C64 C67 1.358 . S
C64 C68 1.332 . S
C64 C70 1.504 . S
C65 C66 1.373 . S
C65 C69 1.308 . S
C66 C65 1.373 . S
C66 C67 1.429 . S
C66 H76 0.932 . S
C67 C64 1.358 . S
C67 C66 1.429 . S
C67 H77 0.930 . S
C68 C64 1.332 . S
C68 C69 1.394 . S
C68 H78 0.932 . S
C69 C65 1.308 . S
C69 C68 1.394 . S
C69 H79 0.929 . S
C70 Tb41 2.764 . S
C70 O54 1.239 . S
C70 O55 1.263 . S
C70 C64 1.504 . S
C71 O56 1.236 . S
C71 O57 1.257 . S
H72 C45 0.932 . S
H73 C46 0.930 . S
H74 C47 0.932 . S
H75 C48 0.929 . S
H76 C66 0.932 . S
H77 C67 0.930 . S
H78 C68 0.932 . S
H79 C69 0.929 . S
Tb80 C89 2.764 . S
Tb80 O90 2.325 . S
Tb80 O93 2.303 . S
Tb80 O97 2.322 . S
Tb80 O98 2.349 . S
Tb80 O101 2.415 . S
Tb80 O102 2.399 . S
Tb81 O91 2.322 . S
Tb81 O92 2.349 . S
Tb81 O94 2.415 . S
Tb81 O95 2.399 . S
Tb81 O96 2.325 . S
Tb81 O99 2.303 . S
Tb81 C110 2.764 . S
C82 O98 1.261 . S
C82 O99 1.257 . S
C83 C86 1.358 . S
C83 C87 1.332 . S
C83 C89 1.504 . S
C84 C85 1.373 . S
C84 C88 1.308 . S
C85 C84 1.373 . S
C85 C86 1.429 . S
C85 H112 0.932 . S
C86 C83 1.358 . S
C86 C85 1.429 . S
C86 H113 0.930 . S
C87 C83 1.332 . S
C87 C88 1.394 . S
C87 H114 0.932 . S
C88 C84 1.308 . S
C88 C87 1.394 . S
C88 H115 0.929 . S
C89 Tb80 2.764 . S
C89 C83 1.504 . S
C89 O101 1.239 . S
C89 O102 1.263 . S
O90 Tb80 2.325 . S
O90 C100 1.236 . S
O91 Tb81 2.322 . S
O91 C100 1.257 . S
O92 Tb81 2.349 . S
O92 C103 1.261 . S
O93 Tb80 2.303 . S
O93 C103 1.257 . S
O94 Tb81 2.415 . S
O94 C110 1.239 . S
O95 Tb81 2.399 . S
O95 C110 1.263 . S
O96 Tb81 2.325 . S
O96 C111 1.236 . S
O97 Tb80 2.322 . S
O97 C111 1.257 . S
O98 Tb80 2.349 . S
O98 C82 1.261 . S
O99 Tb81 2.303 . S
O99 C82 1.257 . S
C100 O90 1.236 . S
C100 O91 1.257 . S
O101 Tb80 2.415 . S
O101 C89 1.239 . S
O102 Tb80 2.399 . S
O102 C89 1.263 . S
C103 O92 1.261 . S
C103 O93 1.257 . S
C104 C107 1.358 . S
C104 C108 1.332 . S
C104 C110 1.504 . S
C105 C106 1.373 . S
C105 C109 1.308 . S
C106 C105 1.373 . S
C106 C107 1.429 . S
C106 H116 0.932 . S
C107 C104 1.358 . S
C107 C106 1.429 . S
C107 H117 0.930 . S
C108 C104 1.332 . S
C108 C109 1.394 . S
C108 H118 0.932 . S
C109 C105 1.308 . S
C109 C108 1.394 . S
C109 H119 0.929 . S
C110 Tb81 2.764 . S
C110 O94 1.239 . S
C110 O95 1.263 . S
C110 C104 1.504 . S
C111 O96 1.236 . S
C111 O97 1.257 . S
H112 C85 0.932 . S
H113 C86 0.930 . S
H114 C87 0.932 . S
H115 C88 0.929 . S
H116 C106 0.932 . S
H117 C107 0.930 . S
H118 C108 0.932 . S
H119 C109 0.929 . S
Tb120 C129 2.764 . S
Tb120 O130 2.325 . S
Tb120 O133 2.303 . S
Tb120 O137 2.322 1_655 S
Tb120 O138 2.349 1_655 S
Tb120 O141 2.415 . S
Tb120 O142 2.399 . S
Tb121 O131 2.322 . S
Tb121 O132 2.349 . S
Tb121 O134 2.415 1_655 S
Tb121 O135 2.399 1_655 S
Tb121 O136 2.325 1_655 S
Tb121 O139 2.303 1_655 S
Tb121 C150 2.764 1_655 S
C122 O138 1.261 . S
C122 O139 1.257 . S
C123 C126 1.358 . S
C123 C127 1.332 . S
C123 C129 1.504 . S
C124 C125 1.373 . S
C124 C128 1.308 . S
C125 C124 1.373 . S
C125 C126 1.429 . S
C125 H152 0.932 . S
C126 C123 1.358 . S
C126 C125 1.429 . S
C126 H153 0.930 . S
C127 C123 1.332 . S
C127 C128 1.394 . S
C127 H154 0.932 . S
C128 C124 1.308 . S
C128 C127 1.394 . S
C128 H155 0.929 . S
C129 Tb120 2.764 . S
C129 C123 1.504 . S
C129 O141 1.239 . S
C129 O142 1.263 . S
O130 Tb120 2.325 . S
O130 C140 1.236 . S
O131 Tb121 2.322 . S
O131 C140 1.257 . S
O132 Tb121 2.349 . S
O132 C143 1.261 . S
O133 Tb120 2.303 . S
O133 C143 1.257 . S
O134 Tb121 2.415 1_455 S
O134 C150 1.239 . S
O135 Tb121 2.399 1_455 S
O135 C150 1.263 . S
O136 Tb121 2.325 1_455 S
O136 C151 1.236 . S
O137 Tb120 2.322 1_455 S
O137 C151 1.257 . S
O138 Tb120 2.349 1_455 S
O138 C122 1.261 . S
O139 Tb121 2.303 1_455 S
O139 C122 1.257 . S
C140 O130 1.236 . S
C140 O131 1.257 . S
O141 Tb120 2.415 . S
O141 C129 1.239 . S
O142 Tb120 2.399 . S
O142 C129 1.263 . S
C143 O132 1.261 . S
C143 O133 1.257 . S
C144 C147 1.358 . S
C144 C148 1.332 . S
C144 C150 1.504 . S
C145 C146 1.373 . S
C145 C149 1.308 . S
C146 C145 1.373 . S
C146 C147 1.429 . S
C146 H156 0.932 . S
C147 C144 1.358 . S
C147 C146 1.429 . S
C147 H157 0.930 . S
C148 C144 1.332 . S
C148 C149 1.394 . S
C148 H158 0.932 . S
C149 C145 1.308 . S
C149 C148 1.394 . S
C149 H159 0.929 . S
C150 Tb121 2.764 1_455 S
C150 O134 1.239 . S
C150 O135 1.263 . S
C150 C144 1.504 . S
C151 O136 1.236 . S
C151 O137 1.257 . S
H152 C125 0.932 . S
H153 C126 0.930 . S
H154 C127 0.932 . S
H155 C128 0.929 . S
H156 C146 0.932 . S
H157 C147 0.930 . S
H158 C148 0.932 . S
H159 C149 0.929 . S
Tb160 C169 2.764 . S
Tb160 O170 2.325 . S
Tb160 O173 2.303 . S
Tb160 O177 2.322 1_545 S
Tb160 O178 2.349 1_545 S
Tb160 O181 2.415 . S
Tb160 O182 2.399 . S
Tb161 O171 2.322 1_565 S
Tb161 O172 2.349 1_565 S
Tb161 O174 2.415 . S
Tb161 O175 2.399 . S
Tb161 O176 2.325 . S
Tb161 O179 2.303 . S
Tb161 C190 2.764 . S
C162 O178 1.261 . S
C162 O179 1.257 . S
C163 C166 1.358 . S
C163 C167 1.332 . S
C163 C169 1.504 . S
C164 C165 1.373 . S
C164 C168 1.308 . S
C165 C164 1.373 . S
C165 C166 1.429 . S
C165 H192 0.932 . S
C166 C163 1.358 . S
C166 C165 1.429 . S
C166 H193 0.930 . S
C167 C163 1.332 . S
C167 C168 1.394 . S
C167 H194 0.932 . S
C168 C164 1.308 . S
C168 C167 1.394 . S
C168 H195 0.929 . S
C169 Tb160 2.764 . S
C169 C163 1.504 . S
C169 O181 1.239 . S
C169 O182 1.263 . S
O170 Tb160 2.325 . S
O170 C180 1.236 . S
O171 Tb161 2.322 1_545 S
O171 C180 1.257 . S
O172 Tb161 2.349 1_545 S
O172 C183 1.261 . S
O173 Tb160 2.303 . S
O173 C183 1.257 . S
O174 Tb161 2.415 . S
O174 C190 1.239 . S
O175 Tb161 2.399 . S
O175 C190 1.263 . S
O176 Tb161 2.325 . S
O176 C191 1.236 . S
O177 Tb160 2.322 1_565 S
O177 C191 1.257 . S
O178 Tb160 2.349 1_565 S
O178 C162 1.261 . S
O179 Tb161 2.303 . S
O179 C162 1.257 . S
C180 O170 1.236 . S
C180 O171 1.257 . S
O181 Tb160 2.415 . S
O181 C169 1.239 . S
O182 Tb160 2.399 . S
O182 C169 1.263 . S
C183 O172 1.261 . S
C183 O173 1.257 . S
C184 C187 1.358 . S
C184 C188 1.332 . S
C184 C190 1.504 . S
C185 C186 1.373 . S
C185 C189 1.308 . S
C186 C185 1.373 . S
C186 C187 1.429 . S
C186 H196 0.932 . S
C187 C184 1.358 . S
C187 C186 1.429 . S
C187 H197 0.930 . S
C188 C184 1.332 . S
C188 C189 1.394 . S
C188 H198 0.932 . S
C189 C185 1.308 . S
C189 C188 1.394 . S
C189 H199 0.929 . S
C190 Tb161 2.764 . S
C190 O174 1.239 . S
C190 O175 1.263 . S
C190 C184 1.504 . S
C191 O176 1.236 . S
C191 O177 1.257 . S
H192 C165 0.932 . S
H193 C166 0.930 . S
H194 C167 0.932 . S
H195 C168 0.929 . S
H196 C186 0.932 . S
H197 C187 0.930 . S
H198 C188 0.932 . S
H199 C189 0.929 . S
Tb200 C209 2.764 . S
Tb200 O210 2.325 . S
Tb200 O213 2.303 . S
Tb200 O217 2.322 1_565 S
Tb200 O218 2.349 1_565 S
Tb200 O221 2.415 . S
Tb200 O222 2.399 . S
Tb201 O211 2.322 1_545 S
Tb201 O212 2.349 1_545 S
Tb201 O214 2.415 . S
Tb201 O215 2.399 . S
Tb201 O216 2.325 . S
Tb201 O219 2.303 . S
Tb201 C230 2.764 . S
C202 O218 1.261 . S
C202 O219 1.257 . S
C203 C206 1.358 . S
C203 C207 1.332 . S
C203 C209 1.504 . S
C204 C205 1.373 . S
C204 C208 1.308 . S
C205 C204 1.373 . S
C205 C206 1.429 . S
C205 H232 0.932 . S
C206 C203 1.358 . S
C206 C205 1.429 . S
C206 H233 0.930 . S
C207 C203 1.332 . S
C207 C208 1.394 . S
C207 H234 0.932 . S
C208 C204 1.308 . S
C208 C207 1.394 . S
C208 H235 0.929 . S
C209 Tb200 2.764 . S
C209 C203 1.504 . S
C209 O221 1.239 . S
C209 O222 1.263 . S
O210 Tb200 2.325 . S
O210 C220 1.236 . S
O211 Tb201 2.322 1_565 S
O211 C220 1.257 . S
O212 Tb201 2.349 1_565 S
O212 C223 1.261 . S
O213 Tb200 2.303 . S
O213 C223 1.257 . S
O214 Tb201 2.415 . S
O214 C230 1.239 . S
O215 Tb201 2.399 . S
O215 C230 1.263 . S
O216 Tb201 2.325 . S
O216 C231 1.236 . S
O217 Tb200 2.322 1_545 S
O217 C231 1.257 . S
O218 Tb200 2.349 1_545 S
O218 C202 1.261 . S
O219 Tb201 2.303 . S
O219 C202 1.257 . S
C220 O210 1.236 . S
C220 O211 1.257 . S
O221 Tb200 2.415 . S
O221 C209 1.239 . S
O222 Tb200 2.399 . S
O222 C209 1.263 . S
C223 O212 1.261 . S
C223 O213 1.257 . S
C224 C227 1.358 . S
C224 C228 1.332 . S
C224 C230 1.504 . S
C225 C226 1.373 . S
C225 C229 1.308 . S
C226 C225 1.373 . S
C226 C227 1.429 . S
C226 H236 0.932 . S
C227 C224 1.358 . S
C227 C226 1.429 . S
C227 H237 0.930 . S
C228 C224 1.332 . S
C228 C229 1.394 . S
C228 H238 0.932 . S
C229 C225 1.308 . S
C229 C228 1.394 . S
C229 H239 0.929 . S
C230 Tb201 2.764 . S
C230 O214 1.239 . S
C230 O215 1.263 . S
C230 C224 1.504 . S
C231 O216 1.236 . S
C231 O217 1.257 . S
H232 C205 0.932 . S
H233 C206 0.930 . S
H234 C207 0.932 . S
H235 C208 0.929 . S
H236 C226 0.932 . S
H237 C227 0.930 . S
H238 C228 0.932 . S
H239 C229 0.929 . S
Tb240 C249 2.764 . S
Tb240 O250 2.325 . S
Tb240 O253 2.303 . S
Tb240 O257 2.322 . S
Tb240 O258 2.349 . S
Tb240 O261 2.415 . S
Tb240 O262 2.399 . S
Tb241 O251 2.322 . S
Tb241 O252 2.349 . S
Tb241 O254 2.415 . S
Tb241 O255 2.399 . S
Tb241 O256 2.325 . S
Tb241 O259 2.303 . S
Tb241 C270 2.764 . S
C242 O258 1.261 . S
C242 O259 1.257 . S
C243 C246 1.358 . S
C243 C247 1.332 . S
C243 C249 1.504 . S
C244 C245 1.373 . S
C244 C248 1.308 . S
C245 C244 1.373 . S
C245 C246 1.429 . S
C245 H272 0.932 . S
C246 C243 1.358 . S
C246 C245 1.429 . S
C246 H273 0.930 . S
C247 C243 1.332 . S
C247 C248 1.394 . S
C247 H274 0.932 . S
C248 C244 1.308 . S
C248 C247 1.394 . S
C248 H275 0.929 . S
C249 Tb240 2.764 . S
C249 C243 1.504 . S
C249 O261 1.239 . S
C249 O262 1.263 . S
O250 Tb240 2.325 . S
O250 C260 1.236 . S
O251 Tb241 2.322 . S
O251 C260 1.257 . S
O252 Tb241 2.349 . S
O252 C263 1.261 . S
O253 Tb240 2.303 . S
O253 C263 1.257 . S
O254 Tb241 2.415 . S
O254 C270 1.239 . S
O255 Tb241 2.399 . S
O255 C270 1.263 . S
O256 Tb241 2.325 . S
O256 C271 1.236 . S
O257 Tb240 2.322 . S
O257 C271 1.257 . S
O258 Tb240 2.349 . S
O258 C242 1.261 . S
O259 Tb241 2.303 . S
O259 C242 1.257 . S
C260 O250 1.236 . S
C260 O251 1.257 . S
O261 Tb240 2.415 . S
O261 C249 1.239 . S
O262 Tb240 2.399 . S
O262 C249 1.263 . S
C263 O252 1.261 . S
C263 O253 1.257 . S
C264 C267 1.358 . S
C264 C268 1.332 . S
C264 C270 1.504 . S
C265 C266 1.373 . S
C265 C269 1.308 . S
C266 C265 1.373 . S
C266 C267 1.429 . S
C266 H276 0.932 . S
C267 C264 1.358 . S
C267 C266 1.429 . S
C267 H277 0.930 . S
C268 C264 1.332 . S
C268 C269 1.394 . S
C268 H278 0.932 . S
C269 C265 1.308 . S
C269 C268 1.394 . S
C269 H279 0.929 . S
C270 Tb241 2.764 . S
C270 O254 1.239 . S
C270 O255 1.263 . S
C270 C264 1.504 . S
C271 O256 1.236 . S
C271 O257 1.257 . S
H272 C245 0.932 . S
H273 C246 0.930 . S
H274 C247 0.932 . S
H275 C248 0.929 . S
H276 C266 0.932 . S
H277 C267 0.930 . S
H278 C268 0.932 . S
H279 C269 0.929 . S
Tb280 C289 2.764 . S
Tb280 O290 2.325 . S
Tb280 O293 2.303 . S
Tb280 O297 2.322 . S
Tb280 O298 2.349 . S
Tb280 O301 2.415 . S
Tb280 O302 2.399 . S
Tb281 O291 2.322 . S
Tb281 O292 2.349 . S
Tb281 O294 2.415 . S
Tb281 O295 2.399 . S
Tb281 O296 2.325 . S
Tb281 O299 2.303 . S
Tb281 C310 2.764 . S
C282 O298 1.261 . S
C282 O299 1.257 . S
C283 C286 1.358 . S
C283 C287 1.332 . S
C283 C289 1.504 . S
C284 C285 1.373 . S
C284 C288 1.308 . S
C285 C284 1.373 . S
C285 C286 1.429 . S
C285 H312 0.932 . S
C286 C283 1.358 . S
C286 C285 1.429 . S
C286 H313 0.930 . S
C287 C283 1.332 . S
C287 C288 1.394 . S
C287 H314 0.932 . S
C288 C284 1.308 . S
C288 C287 1.394 . S
C288 H315 0.929 . S
C289 Tb280 2.764 . S
C289 C283 1.504 . S
C289 O301 1.239 . S
C289 O302 1.263 . S
O290 Tb280 2.325 . S
O290 C300 1.236 . S
O291 Tb281 2.322 . S
O291 C300 1.257 . S
O292 Tb281 2.349 . S
O292 C303 1.261 . S
O293 Tb280 2.303 . S
O293 C303 1.257 . S
O294 Tb281 2.415 . S
O294 C310 1.239 . S
O295 Tb281 2.399 . S
O295 C310 1.263 . S
O296 Tb281 2.325 . S
O296 C311 1.236 . S
O297 Tb280 2.322 . S
O297 C311 1.257 . S
O298 Tb280 2.349 . S
O298 C282 1.261 . S
O299 Tb281 2.303 . S
O299 C282 1.257 . S
C300 O290 1.236 . S
C300 O291 1.257 . S
O301 Tb280 2.415 . S
O301 C289 1.239 . S
O302 Tb280 2.399 . S
O302 C289 1.263 . S
C303 O292 1.261 . S
C303 O293 1.257 . S
C304 C307 1.358 . S
C304 C308 1.332 . S
C304 C310 1.504 . S
C305 C306 1.373 . S
C305 C309 1.308 . S
C306 C305 1.373 . S
C306 C307 1.429 . S
C306 H316 0.932 . S
C307 C304 1.358 . S
C307 C306 1.429 . S
C307 H317 0.930 . S
C308 C304 1.332 . S
C308 C309 1.394 . S
C308 H318 0.932 . S
C309 C305 1.308 . S
C309 C308 1.394 . S
C309 H319 0.929 . S
C310 Tb281 2.764 . S
C310 O294 1.239 . S
C310 O295 1.263 . S
C310 C304 1.504 . S
C311 O296 1.236 . S
C311 O297 1.257 . S
H312 C285 0.932 . S
H313 C286 0.930 . S
H314 C287 0.932 . S
H315 C288 0.929 . S
H316 C306 0.932 . S
H317 C307 0.930 . S
H318 C308 0.932 . S
H319 C309 0.929 . S
Tb320 C329 2.764 . S
Tb320 O330 2.325 . S
Tb320 O333 2.303 . S
Tb320 O337 2.322 . S
Tb320 O338 2.349 . S
Tb320 O341 2.415 . S
Tb320 O342 2.399 . S
Tb321 O331 2.322 . S
Tb321 O332 2.349 . S
Tb321 O334 2.415 1_554 S
Tb321 O335 2.399 . S
Tb321 O336 2.325 . S
Tb321 O339 2.303 . S
Tb321 C350 2.764 1_554 S
C322 O338 1.261 . S
C322 O339 1.257 . S
C323 C326 1.358 . S
C323 C327 1.332 . S
C323 C329 1.504 . S
C324 C325 1.373 . S
C324 C328 1.308 . S
C325 C324 1.373 . S
C325 C326 1.429 . S
C325 H352 0.932 . S
C326 C323 1.358 . S
C326 C325 1.429 . S
C326 H353 0.930 . S
C327 C323 1.332 . S
C327 C328 1.394 . S
C327 H354 0.932 . S
C328 C324 1.308 . S
C328 C327 1.394 . S
C328 H355 0.929 . S
C329 Tb320 2.764 . S
C329 C323 1.504 . S
C329 O341 1.239 . S
C329 O342 1.263 . S
O330 Tb320 2.325 . S
O330 C340 1.236 . S
O331 Tb321 2.322 . S
O331 C340 1.257 . S
O332 Tb321 2.349 . S
O332 C343 1.261 . S
O333 Tb320 2.303 . S
O333 C343 1.257 . S
O334 Tb321 2.415 1_556 S
O334 C350 1.239 . S
O335 Tb321 2.399 . S
O335 C350 1.263 1_554 S
O336 Tb321 2.325 . S
O336 C351 1.236 . S
O337 Tb320 2.322 . S
O337 C351 1.257 . S
O338 Tb320 2.349 . S
O338 C322 1.261 . S
O339 Tb321 2.303 . S
O339 C322 1.257 . S
C340 O330 1.236 . S
C340 O331 1.257 . S
O341 Tb320 2.415 . S
O341 C329 1.239 . S
O342 Tb320 2.399 . S
O342 C329 1.263 . S
C343 O332 1.261 . S
C343 O333 1.257 . S
C344 C347 1.358 . S
C344 C348 1.332 . S
C344 C350 1.504 . S
C345 C346 1.373 . S
C345 C349 1.308 . S
C346 C345 1.373 . S
C346 C347 1.429 . S
C346 H356 0.932 . S
C347 C344 1.358 . S
C347 C346 1.429 . S
C347 H357 0.930 . S
C348 C344 1.332 . S
C348 C349 1.394 . S
C348 H358 0.932 . S
C349 C345 1.308 . S
C349 C348 1.394 . S
C349 H359 0.929 . S
C350 Tb321 2.764 1_556 S
C350 O334 1.239 . S
C350 O335 1.263 1_556 S
C350 C344 1.504 . S
C351 O336 1.236 . S
C351 O337 1.257 . S
H352 C325 0.932 . S
H353 C326 0.930 . S
H354 C327 0.932 . S
H355 C328 0.929 . S
H356 C346 0.932 . S
H357 C347 0.930 . S
H358 C348 0.932 . S
H359 C349 0.929 . S
Tb360 C369 2.764 . S
Tb360 O370 2.325 . S
Tb360 O373 2.303 . S
Tb360 O377 2.322 . S
Tb360 O378 2.349 . S
Tb360 O381 2.415 . S
Tb360 O382 2.399 . S
Tb361 O371 2.322 . S
Tb361 O372 2.349 . S
Tb361 O374 2.415 . S
Tb361 O375 2.399 . S
Tb361 O376 2.325 . S
Tb361 O379 2.303 . S
Tb361 C390 2.764 . S
C362 O378 1.261 . S
C362 O379 1.257 . S
C363 C366 1.358 . S
C363 C367 1.332 . S
C363 C369 1.504 1_554 S
C364 C365 1.373 . S
C364 C368 1.308 . S
C365 C364 1.373 . S
C365 C366 1.429 . S
C365 H392 0.932 . S
C366 C363 1.358 . S
C366 C365 1.429 . S
C366 H393 0.930 1_554 S
C367 C363 1.332 . S
C367 C368 1.394 . S
C367 H394 0.932 . S
C368 C364 1.308 . S
C368 C367 1.394 . S
C368 H395 0.929 . S
C369 Tb360 2.764 . S
C369 C363 1.504 1_556 S
C369 O381 1.239 . S
C369 O382 1.263 . S
O370 Tb360 2.325 . S
O370 C380 1.236 . S
O371 Tb361 2.322 . S
O371 C380 1.257 . S
O372 Tb361 2.349 . S
O372 C383 1.261 . S
O373 Tb360 2.303 . S
O373 C383 1.257 . S
O374 Tb361 2.415 . S
O374 C390 1.239 . S
O375 Tb361 2.399 . S
O375 C390 1.263 . S
O376 Tb361 2.325 . S
O376 C391 1.236 . S
O377 Tb360 2.322 . S
O377 C391 1.257 . S
O378 Tb360 2.349 . S
O378 C362 1.261 . S
O379 Tb361 2.303 . S
O379 C362 1.257 . S
C380 O370 1.236 . S
C380 O371 1.257 . S
O381 Tb360 2.415 . S
O381 C369 1.239 . S
O382 Tb360 2.399 . S
O382 C369 1.263 . S
C383 O372 1.261 . S
C383 O373 1.257 . S
C384 C387 1.358 . S
C384 C388 1.332 . S
C384 C390 1.504 . S
C385 C386 1.373 . S
C385 C389 1.308 . S
C386 C385 1.373 . S
C386 C387 1.429 . S
C386 H396 0.932 . S
C387 C384 1.358 . S
C387 C386 1.429 . S
C387 H397 0.930 . S
C388 C384 1.332 . S
C388 C389 1.394 . S
C388 H398 0.932 . S
C389 C385 1.308 . S
C389 C388 1.394 . S
C389 H399 0.929 . S
C390 Tb361 2.764 . S
C390 O374 1.239 . S
C390 O375 1.263 . S
C390 C384 1.504 . S
C391 O376 1.236 . S
C391 O377 1.257 . S
H392 C365 0.932 . S
H393 C366 0.930 1_556 S
H394 C367 0.932 . S
H395 C368 0.929 . S
H396 C386 0.932 . S
H397 C387 0.930 . S
H398 C388 0.932 . S
H399 C389 0.929 . S
Tb400 C409 2.764 . S
Tb400 O410 2.325 . S
Tb400 O413 2.303 . S
Tb400 O417 2.322 . S
Tb400 O418 2.349 . S
Tb400 O421 2.415 . S
Tb400 O422 2.399 . S
Tb401 O411 2.322 . S
Tb401 O412 2.349 . S
Tb401 O414 2.415 . S
Tb401 O415 2.399 . S
Tb401 O416 2.325 . S
Tb401 O419 2.303 . S
Tb401 C430 2.764 . S
C402 O418 1.261 . S
C402 O419 1.257 . S
C403 C406 1.358 . S
C403 C407 1.332 . S
C403 C409 1.504 . S
C404 C405 1.373 . S
C404 C408 1.308 . S
C405 C404 1.373 . S
C405 C406 1.429 . S
C405 H432 0.932 . S
C406 C403 1.358 . S
C406 C405 1.429 . S
C406 H433 0.930 . S
C407 C403 1.332 . S
C407 C408 1.394 . S
C407 H434 0.932 . S
C408 C404 1.308 . S
C408 C407 1.394 . S
C408 H435 0.929 . S
C409 Tb400 2.764 . S
C409 C403 1.504 . S
C409 O421 1.239 . S
C409 O422 1.263 . S
O410 Tb400 2.325 . S
O410 C420 1.236 . S
O411 Tb401 2.322 . S
O411 C420 1.257 . S
O412 Tb401 2.349 . S
O412 C423 1.261 . S
O413 Tb400 2.303 . S
O413 C423 1.257 . S
O414 Tb401 2.415 . S
O414 C430 1.239 . S
O415 Tb401 2.399 . S
O415 C430 1.263 . S
O416 Tb401 2.325 . S
O416 C431 1.236 . S
O417 Tb400 2.322 . S
O417 C431 1.257 . S
O418 Tb400 2.349 . S
O418 C402 1.261 . S
O419 Tb401 2.303 . S
O419 C402 1.257 . S
C420 O410 1.236 . S
C420 O411 1.257 . S
O421 Tb400 2.415 . S
O421 C409 1.239 . S
O422 Tb400 2.399 . S
O422 C409 1.263 . S
C423 O412 1.261 . S
C423 O413 1.257 . S
C424 C427 1.358 . S
C424 C428 1.332 . S
C424 C430 1.504 . S
C425 C426 1.373 . S
C425 C429 1.308 . S
C426 C425 1.373 . S
C426 C427 1.429 . S
C426 H436 0.932 . S
C427 C424 1.358 . S
C427 C426 1.429 . S
C427 H437 0.930 . S
C428 C424 1.332 . S
C428 C429 1.394 . S
C428 H438 0.932 . S
C429 C425 1.308 . S
C429 C428 1.394 . S
C429 H439 0.929 . S
C430 Tb401 2.764 . S
C430 O414 1.239 . S
C430 O415 1.263 . S
C430 C424 1.504 . S
C431 O416 1.236 . S
C431 O417 1.257 . S
H432 C405 0.932 . S
H433 C406 0.930 . S
H434 C407 0.932 . S
H435 C408 0.929 . S
H436 C426 0.932 . S
H437 C427 0.930 . S
H438 C428 0.932 . S
H439 C429 0.929 . S
Tb440 C449 2.764 . S
Tb440 O450 2.325 . S
Tb440 O453 2.303 . S
Tb440 O457 2.322 . S
Tb440 O458 2.349 . S
Tb440 O461 2.415 . S
Tb440 O462 2.399 . S
Tb441 O451 2.322 . S
Tb441 O452 2.349 . S
Tb441 O454 2.415 . S
Tb441 O455 2.399 . S
Tb441 O456 2.325 . S
Tb441 O459 2.303 . S
Tb441 C470 2.764 . S
C442 O458 1.261 . S
C442 O459 1.257 . S
C443 C446 1.358 . S
C443 C447 1.332 . S
C443 C449 1.504 . S
C444 C445 1.373 . S
C444 C448 1.308 . S
C445 C444 1.373 . S
C445 C446 1.429 . S
C445 H472 0.932 . S
C446 C443 1.358 . S
C446 C445 1.429 . S
C446 H473 0.930 . S
C447 C443 1.332 . S
C447 C448 1.394 . S
C447 H474 0.932 . S
C448 C444 1.308 . S
C448 C447 1.394 . S
C448 H475 0.929 . S
C449 Tb440 2.764 . S
C449 C443 1.504 . S
C449 O461 1.239 . S
C449 O462 1.263 . S
O450 Tb440 2.325 . S
O450 C460 1.236 . S
O451 Tb441 2.322 . S
O451 C460 1.257 . S
O452 Tb441 2.349 . S
O452 C463 1.261 . S
O453 Tb440 2.303 . S
O453 C463 1.257 . S
O454 Tb441 2.415 . S
O454 C470 1.239 . S
O455 Tb441 2.399 . S
O455 C470 1.263 . S
O456 Tb441 2.325 . S
O456 C471 1.236 . S
O457 Tb440 2.322 . S
O457 C471 1.257 . S
O458 Tb440 2.349 . S
O458 C442 1.261 . S
O459 Tb441 2.303 . S
O459 C442 1.257 . S
C460 O450 1.236 . S
C460 O451 1.257 . S
O461 Tb440 2.415 . S
O461 C449 1.239 . S
O462 Tb440 2.399 . S
O462 C449 1.263 . S
C463 O452 1.261 . S
C463 O453 1.257 . S
C464 C467 1.358 . S
C464 C468 1.332 . S
C464 C470 1.504 . S
C465 C466 1.373 . S
C465 C469 1.308 . S
C466 C465 1.373 . S
C466 C467 1.429 . S
C466 H476 0.932 . S
C467 C464 1.358 . S
C467 C466 1.429 . S
C467 H477 0.930 . S
C468 C464 1.332 . S
C468 C469 1.394 . S
C468 H478 0.932 . S
C469 C465 1.308 . S
C469 C468 1.394 . S
C469 H479 0.929 . S
C470 Tb441 2.764 . S
C470 O454 1.239 . S
C470 O455 1.263 . S
C470 C464 1.504 . S
C471 O456 1.236 . S
C471 O457 1.257 . S
H472 C445 0.932 . S
H473 C446 0.930 . S
H474 C447 0.932 . S
H475 C448 0.929 . S
H476 C466 0.932 . S
H477 C467 0.930 . S
H478 C468 0.932 . S
H479 C469 0.929 . S
Tb480 C489 2.764 . S
Tb480 O490 2.325 . S
Tb480 O493 2.303 . S
Tb480 O497 2.322 1_455 S
Tb480 O498 2.349 1_455 S
Tb480 O501 2.415 . S
Tb480 O502 2.399 . S
Tb481 O491 2.322 1_655 S
Tb481 O492 2.349 1_655 S
Tb481 O494 2.415 . S
Tb481 O495 2.399 . S
Tb481 O496 2.325 . S
Tb481 O499 2.303 . S
Tb481 C510 2.764 . S
C482 O498 1.261 . S
C482 O499 1.257 . S
C483 C486 1.358 . S
C483 C487 1.332 . S
C483 C489 1.504 . S
C484 C485 1.373 . S
C484 C488 1.308 . S
C485 C484 1.373 . S
C485 C486 1.429 . S
C485 H512 0.932 . S
C486 C483 1.358 . S
C486 C485 1.429 . S
C486 H513 0.930 . S
C487 C483 1.332 . S
C487 C488 1.394 . S
C487 H514 0.932 . S
C488 C484 1.308 . S
C488 C487 1.394 . S
C488 H515 0.929 . S
C489 Tb480 2.764 . S
C489 C483 1.504 . S
C489 O501 1.239 . S
C489 O502 1.263 . S
O490 Tb480 2.325 . S
O490 C500 1.236 . S
O491 Tb481 2.322 1_455 S
O491 C500 1.257 . S
O492 Tb481 2.349 1_455 S
O492 C503 1.261 . S
O493 Tb480 2.303 . S
O493 C503 1.257 . S
O494 Tb481 2.415 . S
O494 C510 1.239 . S
O495 Tb481 2.399 . S
O495 C510 1.263 . S
O496 Tb481 2.325 . S
O496 C511 1.236 . S
O497 Tb480 2.322 1_655 S
O497 C511 1.257 . S
O498 Tb480 2.349 1_655 S
O498 C482 1.261 . S
O499 Tb481 2.303 . S
O499 C482 1.257 . S
C500 O490 1.236 . S
C500 O491 1.257 . S
O501 Tb480 2.415 . S
O501 C489 1.239 . S
O502 Tb480 2.399 . S
O502 C489 1.263 . S
C503 O492 1.261 . S
C503 O493 1.257 . S
C504 C507 1.358 . S
C504 C508 1.332 . S
C504 C510 1.504 . S
C505 C506 1.373 . S
C505 C509 1.308 . S
C506 C505 1.373 . S
C506 C507 1.429 . S
C506 H516 0.932 . S
C507 C504 1.358 . S
C507 C506 1.429 . S
C507 H517 0.930 . S
C508 C504 1.332 . S
C508 C509 1.394 . S
C508 H518 0.932 . S
C509 C505 1.308 . S
C509 C508 1.394 . S
C509 H519 0.929 . S
C510 Tb481 2.764 . S
C510 O494 1.239 . S
C510 O495 1.263 . S
C510 C504 1.504 . S
C511 O496 1.236 . S
C511 O497 1.257 . S
H512 C485 0.932 . S
H513 C486 0.930 . S
H514 C487 0.932 . S
H515 C488 0.929 . S
H516 C506 0.932 . S
H517 C507 0.930 . S
H518 C508 0.932 . S
H519 C509 0.929 . S
Tb520 C529 2.764 . S
Tb520 O530 2.325 . S
Tb520 O533 2.303 . S
Tb520 O537 2.322 . S
Tb520 O538 2.349 . S
Tb520 O541 2.415 . S
Tb520 O542 2.399 . S
Tb521 O531 2.322 . S
Tb521 O532 2.349 . S
Tb521 O534 2.415 . S
Tb521 O535 2.399 . S
Tb521 O536 2.325 . S
Tb521 O539 2.303 . S
Tb521 C550 2.764 . S
C522 O538 1.261 . S
C522 O539 1.257 . S
C523 C526 1.358 . S
C523 C527 1.332 . S
C523 C529 1.504 . S
C524 C525 1.373 . S
C524 C528 1.308 . S
C525 C524 1.373 . S
C525 C526 1.429 . S
C525 H552 0.932 . S
C526 C523 1.358 . S
C526 C525 1.429 . S
C526 H553 0.930 . S
C527 C523 1.332 . S
C527 C528 1.394 . S
C527 H554 0.932 . S
C528 C524 1.308 . S
C528 C527 1.394 . S
C528 H555 0.929 . S
C529 Tb520 2.764 . S
C529 C523 1.504 . S
C529 O541 1.239 . S
C529 O542 1.263 . S
O530 Tb520 2.325 . S
O530 C540 1.236 . S
O531 Tb521 2.322 . S
O531 C540 1.257 . S
O532 Tb521 2.349 . S
O532 C543 1.261 . S
O533 Tb520 2.303 . S
O533 C543 1.257 . S
O534 Tb521 2.415 . S
O534 C550 1.239 . S
O535 Tb521 2.399 . S
O535 C550 1.263 . S
O536 Tb521 2.325 . S
O536 C551 1.236 . S
O537 Tb520 2.322 . S
O537 C551 1.257 . S
O538 Tb520 2.349 . S
O538 C522 1.261 . S
O539 Tb521 2.303 . S
O539 C522 1.257 . S
C540 O530 1.236 . S
C540 O531 1.257 . S
O541 Tb520 2.415 . S
O541 C529 1.239 . S
O542 Tb520 2.399 . S
O542 C529 1.263 . S
C543 O532 1.261 . S
C543 O533 1.257 . S
C544 C547 1.358 . S
C544 C548 1.332 . S
C544 C550 1.504 . S
C545 C546 1.373 . S
C545 C549 1.308 . S
C546 C545 1.373 . S
C546 C547 1.429 . S
C546 H556 0.932 . S
C547 C544 1.358 . S
C547 C546 1.429 . S
C547 H557 0.930 . S
C548 C544 1.332 . S
C548 C549 1.394 . S
C548 H558 0.932 . S
C549 C545 1.308 . S
C549 C548 1.394 . S
C549 H559 0.929 . S
C550 Tb521 2.764 . S
C550 O534 1.239 . S
C550 O535 1.263 . S
C550 C544 1.504 . S
C551 O536 1.236 . S
C551 O537 1.257 . S
H552 C525 0.932 . S
H553 C526 0.930 . S
H554 C527 0.932 . S
H555 C528 0.929 . S
H556 C546 0.932 . S
H557 C547 0.930 . S
H558 C548 0.932 . S
H559 C549 0.929 . S
Tb560 C569 2.764 . S
Tb560 O570 2.325 . S
Tb560 O573 2.303 . S
Tb560 O577 2.322 . S
Tb560 O578 2.349 . S
Tb560 O581 2.415 . S
Tb560 O582 2.399 . S
Tb561 O571 2.322 . S
Tb561 O572 2.349 . S
Tb561 O574 2.415 . S
Tb561 O575 2.399 . S
Tb561 O576 2.325 . S
Tb561 O579 2.303 . S
Tb561 C590 2.764 . S
C562 O578 1.261 . S
C562 O579 1.257 . S
C563 C566 1.358 . S
C563 C567 1.332 . S
C563 C569 1.504 . S
C564 C565 1.373 . S
C564 C568 1.308 . S
C565 C564 1.373 . S
C565 C566 1.429 . S
C565 H592 0.932 . S
C566 C563 1.358 . S
C566 C565 1.429 . S
C566 H593 0.930 . S
C567 C563 1.332 . S
C567 C568 1.394 . S
C567 H594 0.932 . S
C568 C564 1.308 . S
C568 C567 1.394 . S
C568 H595 0.929 . S
C569 Tb560 2.764 . S
C569 C563 1.504 . S
C569 O581 1.239 . S
C569 O582 1.263 . S
O570 Tb560 2.325 . S
O570 C580 1.236 . S
O571 Tb561 2.322 . S
O571 C580 1.257 . S
O572 Tb561 2.349 . S
O572 C583 1.261 . S
O573 Tb560 2.303 . S
O573 C583 1.257 . S
O574 Tb561 2.415 . S
O574 C590 1.239 . S
O575 Tb561 2.399 . S
O575 C590 1.263 . S
O576 Tb561 2.325 . S
O576 C591 1.236 . S
O577 Tb560 2.322 . S
O577 C591 1.257 . S
O578 Tb560 2.349 . S
O578 C562 1.261 . S
O579 Tb561 2.303 . S
O579 C562 1.257 . S
C580 O570 1.236 . S
C580 O571 1.257 . S
O581 Tb560 2.415 . S
O581 C569 1.239 . S
O582 Tb560 2.399 . S
O582 C569 1.263 . S
C583 O572 1.261 . S
C583 O573 1.257 . S
C584 C587 1.358 . S
C584 C588 1.332 . S
C584 C590 1.504 . S
C585 C586 1.373 . S
C585 C589 1.308 . S
C586 C585 1.373 . S
C586 C587 1.429 . S
C586 H596 0.932 . S
C587 C584 1.358 . S
C587 C586 1.429 . S
C587 H597 0.930 . S
C588 C584 1.332 . S
C588 C589 1.394 . S
C588 H598 0.932 . S
C589 C585 1.308 . S
C589 C588 1.394 . S
C589 H599 0.929 . S
C590 Tb561 2.764 . S
C590 O574 1.239 . S
C590 O575 1.263 . S
C590 C584 1.504 . S
C591 O576 1.236 . S
C591 O577 1.257 . S
H592 C565 0.932 . S
H593 C566 0.930 . S
H594 C567 0.932 . S
H595 C568 0.929 . S
H596 C586 0.932 . S
H597 C587 0.930 . S
H598 C588 0.932 . S
H599 C589 0.929 . S
Tb600 C609 2.764 1_455 S
Tb600 O610 2.325 1_455 S
Tb600 O613 2.303 1_455 S
Tb600 O617 2.322 . S
Tb600 O618 2.349 . S
Tb600 O621 2.415 1_455 S
Tb600 O622 2.399 1_455 S
Tb601 O611 2.322 1_455 S
Tb601 O612 2.349 1_455 S
Tb601 O614 2.415 . S
Tb601 O615 2.399 . S
Tb601 O616 2.325 . S
Tb601 O619 2.303 . S
Tb601 C630 2.764 . S
C602 O618 1.261 . S
C602 O619 1.257 . S
C603 C606 1.358 . S
C603 C607 1.332 . S
C603 C609 1.504 . S
C604 C605 1.373 . S
C604 C608 1.308 . S
C605 C604 1.373 . S
C605 C606 1.429 . S
C605 H632 0.932 . S
C606 C603 1.358 . S
C606 C605 1.429 . S
C606 H633 0.930 . S
C607 C603 1.332 . S
C607 C608 1.394 . S
C607 H634 0.932 . S
C608 C604 1.308 . S
C608 C607 1.394 . S
C608 H635 0.929 . S
C609 Tb600 2.764 1_655 S
C609 C603 1.504 . S
C609 O621 1.239 . S
C609 O622 1.263 . S
O610 Tb600 2.325 1_655 S
O610 C620 1.236 . S
O611 Tb601 2.322 1_655 S
O611 C620 1.257 . S
O612 Tb601 2.349 1_655 S
O612 C623 1.261 . S
O613 Tb600 2.303 1_655 S
O613 C623 1.257 . S
O614 Tb601 2.415 . S
O614 C630 1.239 . S
O615 Tb601 2.399 . S
O615 C630 1.263 . S
O616 Tb601 2.325 . S
O616 C631 1.236 . S
O617 Tb600 2.322 . S
O617 C631 1.257 . S
O618 Tb600 2.349 . S
O618 C602 1.261 . S
O619 Tb601 2.303 . S
O619 C602 1.257 . S
C620 O610 1.236 . S
C620 O611 1.257 . S
O621 Tb600 2.415 1_655 S
O621 C609 1.239 . S
O622 Tb600 2.399 1_655 S
O622 C609 1.263 . S
C623 O612 1.261 . S
C623 O613 1.257 . S
C624 C627 1.358 . S
C624 C628 1.332 . S
C624 C630 1.504 . S
C625 C626 1.373 . S
C625 C629 1.308 . S
C626 C625 1.373 . S
C626 C627 1.429 . S
C626 H636 0.932 . S
C627 C624 1.358 . S
C627 C626 1.429 . S
C627 H637 0.930 . S
C628 C624 1.332 . S
C628 C629 1.394 . S
C628 H638 0.932 . S
C629 C625 1.308 . S
C629 C628 1.394 . S
C629 H639 0.929 . S
C630 Tb601 2.764 . S
C630 O614 1.239 . S
C630 O615 1.263 . S
C630 C624 1.504 . S
C631 O616 1.236 . S
C631 O617 1.257 . S
H632 C605 0.932 . S
H633 C606 0.930 . S
H634 C607 0.932 . S
H635 C608 0.929 . S
H636 C626 0.932 . S
H637 C627 0.930 . S
H638 C628 0.932 . S
H639 C629 0.929 . S
Tb640 C649 2.764 . S
Tb640 O650 2.325 . S
Tb640 O653 2.303 . S
Tb640 O657 2.322 1_545 S
Tb640 O658 2.349 1_545 S
Tb640 O661 2.415 . S
Tb640 O662 2.399 . S
Tb641 O651 2.322 1_565 S
Tb641 O652 2.349 1_565 S
Tb641 O654 2.415 . S
Tb641 O655 2.399 . S
Tb641 O656 2.325 . S
Tb641 O659 2.303 . S
Tb641 C670 2.764 . S
C642 O658 1.261 . S
C642 O659 1.257 . S
C643 C646 1.358 . S
C643 C647 1.332 . S
C643 C649 1.504 . S
C644 C645 1.373 . S
C644 C648 1.308 . S
C645 C644 1.373 . S
C645 C646 1.429 . S
C645 H672 0.932 . S
C646 C643 1.358 . S
C646 C645 1.429 . S
C646 H673 0.930 . S
C647 C643 1.332 . S
C647 C648 1.394 . S
C647 H674 0.932 . S
C648 C644 1.308 . S
C648 C647 1.394 . S
C648 H675 0.929 . S
C649 Tb640 2.764 . S
C649 C643 1.504 . S
C649 O661 1.239 . S
C649 O662 1.263 . S
O650 Tb640 2.325 . S
O650 C660 1.236 . S
O651 Tb641 2.322 1_545 S
O651 C660 1.257 . S
O652 Tb641 2.349 1_545 S
O652 C663 1.261 . S
O653 Tb640 2.303 . S
O653 C663 1.257 . S
O654 Tb641 2.415 . S
O654 C670 1.239 . S
O655 Tb641 2.399 . S
O655 C670 1.263 . S
O656 Tb641 2.325 . S
O656 C671 1.236 . S
O657 Tb640 2.322 1_565 S
O657 C671 1.257 . S
O658 Tb640 2.349 1_565 S
O658 C642 1.261 . S
O659 Tb641 2.303 . S
O659 C642 1.257 . S
C660 O650 1.236 . S
C660 O651 1.257 . S
O661 Tb640 2.415 . S
O661 C649 1.239 . S
O662 Tb640 2.399 . S
O662 C649 1.263 . S
C663 O652 1.261 . S
C663 O653 1.257 . S
C664 C667 1.358 . S
C664 C668 1.332 . S
C664 C670 1.504 . S
C665 C666 1.373 . S
C665 C669 1.308 . S
C666 C665 1.373 . S
C666 C667 1.429 . S
C666 H676 0.932 . S
C667 C664 1.358 . S
C667 C666 1.429 . S
C667 H677 0.930 . S
C668 C664 1.332 . S
C668 C669 1.394 . S
C668 H678 0.932 . S
C669 C665 1.308 . S
C669 C668 1.394 . S
C669 H679 0.929 . S
C670 Tb641 2.764 . S
C670 O654 1.239 . S
C670 O655 1.263 . S
C670 C664 1.504 . S
C671 O656 1.236 . S
C671 O657 1.257 . S
H672 C645 0.932 . S
H673 C646 0.930 . S
H674 C647 0.932 . S
H675 C648 0.929 . S
H676 C666 0.932 . S
H677 C667 0.930 . S
H678 C668 0.932 . S
H679 C669 0.929 . S
Tb680 C689 2.764 . S
Tb680 O690 2.325 . S
Tb680 O693 2.303 . S
Tb680 O697 2.322 1_565 S
Tb680 O698 2.349 1_565 S
Tb680 O701 2.415 . S
Tb680 O702 2.399 . S
Tb681 O691 2.322 1_545 S
Tb681 O692 2.349 1_545 S
Tb681 O694 2.415 . S
Tb681 O695 2.399 . S
Tb681 O696 2.325 . S
Tb681 O699 2.303 . S
Tb681 C710 2.764 . S
C682 O698 1.261 . S
C682 O699 1.257 . S
C683 C686 1.358 . S
C683 C687 1.332 . S
C683 C689 1.504 . S
C684 C685 1.373 . S
C684 C688 1.308 . S
C685 C684 1.373 . S
C685 C686 1.429 . S
C685 H712 0.932 . S
C686 C683 1.358 . S
C686 C685 1.429 . S
C686 H713 0.930 . S
C687 C683 1.332 . S
C687 C688 1.394 . S
C687 H714 0.932 . S
C688 C684 1.308 . S
C688 C687 1.394 . S
C688 H715 0.929 . S
C689 Tb680 2.764 . S
C689 C683 1.504 . S
C689 O701 1.239 . S
C689 O702 1.263 . S
O690 Tb680 2.325 . S
O690 C700 1.236 . S
O691 Tb681 2.322 1_565 S
O691 C700 1.257 . S
O692 Tb681 2.349 1_565 S
O692 C703 1.261 . S
O693 Tb680 2.303 . S
O693 C703 1.257 . S
O694 Tb681 2.415 . S
O694 C710 1.239 . S
O695 Tb681 2.399 . S
O695 C710 1.263 . S
O696 Tb681 2.325 . S
O696 C711 1.236 . S
O697 Tb680 2.322 1_545 S
O697 C711 1.257 . S
O698 Tb680 2.349 1_545 S
O698 C682 1.261 . S
O699 Tb681 2.303 . S
O699 C682 1.257 . S
C700 O690 1.236 . S
C700 O691 1.257 . S
O701 Tb680 2.415 . S
O701 C689 1.239 . S
O702 Tb680 2.399 . S
O702 C689 1.263 . S
C703 O692 1.261 . S
C703 O693 1.257 . S
C704 C707 1.358 . S
C704 C708 1.332 . S
C704 C710 1.504 . S
C705 C706 1.373 . S
C705 C709 1.308 . S
C706 C705 1.373 . S
C706 C707 1.429 . S
C706 H716 0.932 . S
C707 C704 1.358 . S
C707 C706 1.429 . S
C707 H717 0.930 . S
C708 C704 1.332 . S
C708 C709 1.394 . S
C708 H718 0.932 . S
C709 C705 1.308 . S
C709 C708 1.394 . S
C709 H719 0.929 . S
C710 Tb681 2.764 . S
C710 O694 1.239 . S
C710 O695 1.263 . S
C710 C704 1.504 . S
C711 O696 1.236 . S
C711 O697 1.257 . S
H712 C685 0.932 . S
H713 C686 0.930 . S
H714 C687 0.932 . S
H715 C688 0.929 . S
H716 C706 0.932 . S
H717 C707 0.930 . S
H718 C708 0.932 . S
H719 C709 0.929 . S
Tb720 C729 2.764 . S
Tb720 O730 2.325 . S
Tb720 O733 2.303 . S
Tb720 O737 2.322 . S
Tb720 O738 2.349 . S
Tb720 O741 2.415 . S
Tb720 O742 2.399 . S
Tb721 O731 2.322 . S
Tb721 O732 2.349 . S
Tb721 O734 2.415 . S
Tb721 O735 2.399 . S
Tb721 O736 2.325 . S
Tb721 O739 2.303 . S
Tb721 C750 2.764 . S
C722 O738 1.261 . S
C722 O739 1.257 . S
C723 C726 1.358 . S
C723 C727 1.332 . S
C723 C729 1.504 . S
C724 C725 1.373 . S
C724 C728 1.308 . S
C725 C724 1.373 . S
C725 C726 1.429 . S
C725 H752 0.932 . S
C726 C723 1.358 . S
C726 C725 1.429 . S
C726 H753 0.930 . S
C727 C723 1.332 . S
C727 C728 1.394 . S
C727 H754 0.932 . S
C728 C724 1.308 . S
C728 C727 1.394 . S
C728 H755 0.929 . S
C729 Tb720 2.764 . S
C729 C723 1.504 . S
C729 O741 1.239 . S
C729 O742 1.263 . S
O730 Tb720 2.325 . S
O730 C740 1.236 . S
O731 Tb721 2.322 . S
O731 C740 1.257 . S
O732 Tb721 2.349 . S
O732 C743 1.261 . S
O733 Tb720 2.303 . S
O733 C743 1.257 . S
O734 Tb721 2.415 . S
O734 C750 1.239 . S
O735 Tb721 2.399 . S
O735 C750 1.263 . S
O736 Tb721 2.325 . S
O736 C751 1.236 . S
O737 Tb720 2.322 . S
O737 C751 1.257 . S
O738 Tb720 2.349 . S
O738 C722 1.261 . S
O739 Tb721 2.303 . S
O739 C722 1.257 . S
C740 O730 1.236 . S
C740 O731 1.257 . S
O741 Tb720 2.415 . S
O741 C729 1.239 . S
O742 Tb720 2.399 . S
O742 C729 1.263 . S
C743 O732 1.261 . S
C743 O733 1.257 . S
C744 C747 1.358 . S
C744 C748 1.332 . S
C744 C750 1.504 . S
C745 C746 1.373 . S
C745 C749 1.308 . S
C746 C745 1.373 . S
C746 C747 1.429 . S
C746 H756 0.932 . S
C747 C744 1.358 . S
C747 C746 1.429 . S
C747 H757 0.930 . S
C748 C744 1.332 . S
C748 C749 1.394 . S
C748 H758 0.932 . S
C749 C745 1.308 . S
C749 C748 1.394 . S
C749 H759 0.929 . S
C750 Tb721 2.764 . S
C750 O734 1.239 . S
C750 O735 1.263 . S
C750 C744 1.504 . S
C751 O736 1.236 . S
C751 O737 1.257 . S
H752 C725 0.932 . S
H753 C726 0.930 . S
H754 C727 0.932 . S
H755 C728 0.929 . S
H756 C746 0.932 . S
H757 C747 0.930 . S
H758 C748 0.932 . S
H759 C749 0.929 . S
Tb760 C769 2.764 . S
Tb760 O770 2.325 . S
Tb760 O773 2.303 . S
Tb760 O777 2.322 . S
Tb760 O778 2.349 . S
Tb760 O781 2.415 . S
Tb760 O782 2.399 . S
Tb761 O771 2.322 . S
Tb761 O772 2.349 . S
Tb761 O774 2.415 . S
Tb761 O775 2.399 . S
Tb761 O776 2.325 . S
Tb761 O779 2.303 . S
Tb761 C790 2.764 . S
C762 O778 1.261 . S
C762 O779 1.257 . S
C763 C766 1.358 . S
C763 C767 1.332 . S
C763 C769 1.504 . S
C764 C765 1.373 . S
C764 C768 1.308 . S
C765 C764 1.373 . S
C765 C766 1.429 . S
C765 H792 0.932 . S
C766 C763 1.358 . S
C766 C765 1.429 . S
C766 H793 0.930 . S
C767 C763 1.332 . S
C767 C768 1.394 . S
C767 H794 0.932 . S
C768 C764 1.308 . S
C768 C767 1.394 . S
C768 H795 0.929 . S
C769 Tb760 2.764 . S
C769 C763 1.504 . S
C769 O781 1.239 . S
C769 O782 1.263 . S
O770 Tb760 2.325 . S
O770 C780 1.236 . S
O771 Tb761 2.322 . S
O771 C780 1.257 . S
O772 Tb761 2.349 . S
O772 C783 1.261 . S
O773 Tb760 2.303 . S
O773 C783 1.257 . S
O774 Tb761 2.415 . S
O774 C790 1.239 . S
O775 Tb761 2.399 . S
O775 C790 1.263 . S
O776 Tb761 2.325 . S
O776 C791 1.236 . S
O777 Tb760 2.322 . S
O777 C791 1.257 . S
O778 Tb760 2.349 . S
O778 C762 1.261 . S
O779 Tb761 2.303 . S
O779 C762 1.257 . S
C780 O770 1.236 . S
C780 O771 1.257 . S
O781 Tb760 2.415 . S
O781 C769 1.239 . S
O782 Tb760 2.399 . S
O782 C769 1.263 . S
C783 O772 1.261 . S
C783 O773 1.257 . S
C784 C787 1.358 . S
C784 C788 1.332 . S
C784 C790 1.504 . S
C785 C786 1.373 . S
C785 C789 1.308 . S
C786 C785 1.373 . S
C786 C787 1.429 . S
C786 H796 0.932 . S
C787 C784 1.358 . S
C787 C786 1.429 . S
C787 H797 0.930 . S
C788 C784 1.332 . S
C788 C789 1.394 . S
C788 H798 0.932 . S
C789 C785 1.308 . S
C789 C788 1.394 . S
C789 H799 0.929 . S
C790 Tb761 2.764 . S
C790 O774 1.239 . S
C790 O775 1.263 . S
C790 C784 1.504 . S
C791 O776 1.236 . S
C791 O777 1.257 . S
H792 C765 0.932 . S
H793 C766 0.930 . S
H794 C767 0.932 . S
H795 C768 0.929 . S
H796 C786 0.932 . S
H797 C787 0.930 . S
H798 C788 0.932 . S
H799 C789 0.929 . S
Tb800 C809 2.764 1_556 S
Tb800 O810 2.325 . S
Tb800 O813 2.303 . S
Tb800 O817 2.322 . S
Tb800 O818 2.349 . S
Tb800 O821 2.415 1_556 S
Tb800 O822 2.399 . S
Tb801 O811 2.322 . S
Tb801 O812 2.349 . S
Tb801 O814 2.415 . S
Tb801 O815 2.399 . S
Tb801 O816 2.325 . S
Tb801 O819 2.303 . S
Tb801 C830 2.764 . S
C802 O818 1.261 . S
C802 O819 1.257 . S
C803 C806 1.358 . S
C803 C807 1.332 . S
C803 C809 1.504 . S
C804 C805 1.373 . S
C804 C808 1.308 . S
C805 C804 1.373 . S
C805 C806 1.429 . S
C805 H832 0.932 . S
C806 C803 1.358 . S
C806 C805 1.429 . S
C806 H833 0.930 . S
C807 C803 1.332 . S
C807 C808 1.394 . S
C807 H834 0.932 . S
C808 C804 1.308 . S
C808 C807 1.394 . S
C808 H835 0.929 . S
C809 Tb800 2.764 1_554 S
C809 C803 1.504 . S
C809 O821 1.239 . S
C809 O822 1.263 1_554 S
O810 Tb800 2.325 . S
O810 C820 1.236 . S
O811 Tb801 2.322 . S
O811 C820 1.257 . S
O812 Tb801 2.349 . S
O812 C823 1.261 . S
O813 Tb800 2.303 . S
O813 C823 1.257 . S
O814 Tb801 2.415 . S
O814 C830 1.239 . S
O815 Tb801 2.399 . S
O815 C830 1.263 . S
O816 Tb801 2.325 . S
O816 C831 1.236 . S
O817 Tb800 2.322 . S
O817 C831 1.257 . S
O818 Tb800 2.349 . S
O818 C802 1.261 . S
O819 Tb801 2.303 . S
O819 C802 1.257 . S
C820 O810 1.236 . S
C820 O811 1.257 . S
O821 Tb800 2.415 1_554 S
O821 C809 1.239 . S
O822 Tb800 2.399 . S
O822 C809 1.263 1_556 S
C823 O812 1.261 . S
C823 O813 1.257 . S
C824 C827 1.358 . S
C824 C828 1.332 . S
C824 C830 1.504 . S
C825 C826 1.373 . S
C825 C829 1.308 . S
C826 C825 1.373 . S
C826 C827 1.429 . S
C826 H836 0.932 . S
C827 C824 1.358 . S
C827 C826 1.429 . S
C827 H837 0.930 . S
C828 C824 1.332 . S
C828 C829 1.394 . S
C828 H838 0.932 . S
C829 C825 1.308 . S
C829 C828 1.394 . S
C829 H839 0.929 . S
C830 Tb801 2.764 . S
C830 O814 1.239 . S
C830 O815 1.263 . S
C830 C824 1.504 . S
C831 O816 1.236 . S
C831 O817 1.257 . S
H832 C805 0.932 . S
H833 C806 0.930 . S
H834 C807 0.932 . S
H835 C808 0.929 . S
H836 C826 0.932 . S
H837 C827 0.930 . S
H838 C828 0.932 . S
H839 C829 0.929 . S
Tb840 C849 2.764 . S
Tb840 O850 2.325 . S
Tb840 O853 2.303 . S
Tb840 O857 2.322 . S
Tb840 O858 2.349 . S
Tb840 O861 2.415 . S
Tb840 O862 2.399 . S
Tb841 O851 2.322 . S
Tb841 O852 2.349 . S
Tb841 O854 2.415 . S
Tb841 O855 2.399 . S
Tb841 O856 2.325 . S
Tb841 O859 2.303 . S
Tb841 C870 2.764 . S
C842 O858 1.261 . S
C842 O859 1.257 . S
C843 C846 1.358 . S
C843 C847 1.332 . S
C843 C849 1.504 . S
C844 C845 1.373 . S
C844 C848 1.308 . S
C845 C844 1.373 . S
C845 C846 1.429 . S
C845 H872 0.932 . S
C846 C843 1.358 . S
C846 C845 1.429 . S
C846 H873 0.930 . S
C847 C843 1.332 . S
C847 C848 1.394 . S
C847 H874 0.932 . S
C848 C844 1.308 . S
C848 C847 1.394 . S
C848 H875 0.929 . S
C849 Tb840 2.764 . S
C849 C843 1.504 . S
C849 O861 1.239 . S
C849 O862 1.263 . S
O850 Tb840 2.325 . S
O850 C860 1.236 . S
O851 Tb841 2.322 . S
O851 C860 1.257 . S
O852 Tb841 2.349 . S
O852 C863 1.261 . S
O853 Tb840 2.303 . S
O853 C863 1.257 . S
O854 Tb841 2.415 . S
O854 C870 1.239 . S
O855 Tb841 2.399 . S
O855 C870 1.263 . S
O856 Tb841 2.325 . S
O856 C871 1.236 . S
O857 Tb840 2.322 . S
O857 C871 1.257 . S
O858 Tb840 2.349 . S
O858 C842 1.261 . S
O859 Tb841 2.303 . S
O859 C842 1.257 . S
C860 O850 1.236 . S
C860 O851 1.257 . S
O861 Tb840 2.415 . S
O861 C849 1.239 . S
O862 Tb840 2.399 . S
O862 C849 1.263 . S
C863 O852 1.261 . S
C863 O853 1.257 . S
C864 C867 1.358 . S
C864 C868 1.332 . S
C864 C870 1.504 1_556 S
C865 C866 1.373 . S
C865 C869 1.308 . S
C866 C865 1.373 . S
C866 C867 1.429 . S
C866 H876 0.932 . S
C867 C864 1.358 . S
C867 C866 1.429 . S
C867 H877 0.930 1_556 S
C868 C864 1.332 . S
C868 C869 1.394 . S
C868 H878 0.932 . S
C869 C865 1.308 . S
C869 C868 1.394 . S
C869 H879 0.929 . S
C870 Tb841 2.764 . S
C870 O854 1.239 . S
C870 O855 1.263 . S
C870 C864 1.504 1_554 S
C871 O856 1.236 . S
C871 O857 1.257 . S
H872 C845 0.932 . S
H873 C846 0.930 . S
H874 C847 0.932 . S
H875 C848 0.929 . S
H876 C866 0.932 . S
H877 C867 0.930 1_554 S
H878 C868 0.932 . S
H879 C869 0.929 . S
Tb880 C889 2.764 . S
Tb880 O890 2.325 . S
Tb880 O893 2.303 . S
Tb880 O897 2.322 . S
Tb880 O898 2.349 . S
Tb880 O901 2.415 . S
Tb880 O902 2.399 . S
Tb881 O891 2.322 . S
Tb881 O892 2.349 . S
Tb881 O894 2.415 . S
Tb881 O895 2.399 . S
Tb881 O896 2.325 . S
Tb881 O899 2.303 . S
Tb881 C910 2.764 . S
C882 O898 1.261 . S
C882 O899 1.257 . S
C883 C886 1.358 . S
C883 C887 1.332 . S
C883 C889 1.504 . S
C884 C885 1.373 . S
C884 C888 1.308 . S
C885 C884 1.373 . S
C885 C886 1.429 . S
C885 H912 0.932 . S
C886 C883 1.358 . S
C886 C885 1.429 . S
C886 H913 0.930 . S
C887 C883 1.332 . S
C887 C888 1.394 . S
C887 H914 0.932 . S
C888 C884 1.308 . S
C888 C887 1.394 . S
C888 H915 0.929 . S
C889 Tb880 2.764 . S
C889 C883 1.504 . S
C889 O901 1.239 . S
C889 O902 1.263 . S
O890 Tb880 2.325 . S
O890 C900 1.236 . S
O891 Tb881 2.322 . S
O891 C900 1.257 . S
O892 Tb881 2.349 . S
O892 C903 1.261 . S
O893 Tb880 2.303 . S
O893 C903 1.257 . S
O894 Tb881 2.415 . S
O894 C910 1.239 . S
O895 Tb881 2.399 . S
O895 C910 1.263 . S
O896 Tb881 2.325 . S
O896 C911 1.236 . S
O897 Tb880 2.322 . S
O897 C911 1.257 . S
O898 Tb880 2.349 . S
O898 C882 1.261 . S
O899 Tb881 2.303 . S
O899 C882 1.257 . S
C900 O890 1.236 . S
C900 O891 1.257 . S
O901 Tb880 2.415 . S
O901 C889 1.239 . S
O902 Tb880 2.399 . S
O902 C889 1.263 . S
C903 O892 1.261 . S
C903 O893 1.257 . S
C904 C907 1.358 . S
C904 C908 1.332 . S
C904 C910 1.504 . S
C905 C906 1.373 . S
C905 C909 1.308 . S
C906 C905 1.373 . S
C906 C907 1.429 . S
C906 H916 0.932 . S
C907 C904 1.358 . S
C907 C906 1.429 . S
C907 H917 0.930 . S
C908 C904 1.332 . S
C908 C909 1.394 . S
C908 H918 0.932 . S
C909 C905 1.308 . S
C909 C908 1.394 . S
C909 H919 0.929 . S
C910 Tb881 2.764 . S
C910 O894 1.239 . S
C910 O895 1.263 . S
C910 C904 1.504 . S
C911 O896 1.236 . S
C911 O897 1.257 . S
H912 C885 0.932 . S
H913 C886 0.930 . S
H914 C887 0.932 . S
H915 C888 0.929 . S
H916 C906 0.932 . S
H917 C907 0.930 . S
H918 C908 0.932 . S
H919 C909 0.929 . S
Tb920 C929 2.764 . S
Tb920 O930 2.325 . S
Tb920 O933 2.303 . S
Tb920 O937 2.322 . S
Tb920 O938 2.349 . S
Tb920 O941 2.415 . S
Tb920 O942 2.399 . S
Tb921 O931 2.322 . S
Tb921 O932 2.349 . S
Tb921 O934 2.415 . S
Tb921 O935 2.399 . S
Tb921 O936 2.325 . S
Tb921 O939 2.303 . S
Tb921 C950 2.764 . S
C922 O938 1.261 . S
C922 O939 1.257 . S
C923 C926 1.358 . S
C923 C927 1.332 . S
C923 C929 1.504 . S
C924 C925 1.373 . S
C924 C928 1.308 . S
C925 C924 1.373 . S
C925 C926 1.429 . S
C925 H952 0.932 . S
C926 C923 1.358 . S
C926 C925 1.429 . S
C926 H953 0.930 . S
C927 C923 1.332 . S
C927 C928 1.394 . S
C927 H954 0.932 . S
C928 C924 1.308 . S
C928 C927 1.394 . S
C928 H955 0.929 . S
C929 Tb920 2.764 . S
C929 C923 1.504 . S
C929 O941 1.239 . S
C929 O942 1.263 . S
O930 Tb920 2.325 . S
O930 C940 1.236 . S
O931 Tb921 2.322 . S
O931 C940 1.257 . S
O932 Tb921 2.349 . S
O932 C943 1.261 . S
O933 Tb920 2.303 . S
O933 C943 1.257 . S
O934 Tb921 2.415 . S
O934 C950 1.239 . S
O935 Tb921 2.399 . S
O935 C950 1.263 . S
O936 Tb921 2.325 . S
O936 C951 1.236 . S
O937 Tb920 2.322 . S
O937 C951 1.257 . S
O938 Tb920 2.349 . S
O938 C922 1.261 . S
O939 Tb921 2.303 . S
O939 C922 1.257 . S
C940 O930 1.236 . S
C940 O931 1.257 . S
O941 Tb920 2.415 . S
O941 C929 1.239 . S
O942 Tb920 2.399 . S
O942 C929 1.263 . S
C943 O932 1.261 . S
C943 O933 1.257 . S
C944 C947 1.358 . S
C944 C948 1.332 . S
C944 C950 1.504 . S
C945 C946 1.373 . S
C945 C949 1.308 . S
C946 C945 1.373 . S
C946 C947 1.429 . S
C946 H956 0.932 . S
C947 C944 1.358 . S
C947 C946 1.429 . S
C947 H957 0.930 . S
C948 C944 1.332 . S
C948 C949 1.394 . S
C948 H958 0.932 . S
C949 C945 1.308 . S
C949 C948 1.394 . S
C949 H959 0.929 . S
C950 Tb921 2.764 . S
C950 O934 1.239 . S
C950 O935 1.263 . S
C950 C944 1.504 . S
C951 O936 1.236 . S
C951 O937 1.257 . S
H952 C925 0.932 . S
H953 C926 0.930 . S
H954 C927 0.932 . S
H955 C928 0.929 . S
H956 C946 0.932 . S
H957 C947 0.930 . S
H958 C948 0.932 . S
H959 C949 0.929 . S
H960 C968 0.929 . S
H961 C970 0.930 . S
H962 C972 0.930 . S
H963 C975 0.929 . S
H964 C978 0.930 . S
H965 C980 0.960 . S
H966 C980 0.960 . S
H967 C980 0.960 . S
C968 H960 0.929 . S
C968 C969 1.377 . S
C968 C970 1.384 . S
C969 C968 1.377 . S
C969 C975 1.390 . S
C970 H961 0.930 . S
C970 C968 1.384 . S
C970 C971 1.372 . S
C971 C970 1.372 . S
C971 C972 1.400 . S
C971 C976 1.490 . S
C972 H962 0.930 . S
C972 C971 1.400 . S
C972 C975 1.386 . S
H973 C989 0.930 . S
H974 C990 0.931 . S
C975 H963 0.929 . S
C975 C969 1.390 . S
C975 C972 1.386 . S
C976 C971 1.490 . S
C976 C978 1.395 . S
C976 C979 1.403 . S
H977 C983 0.930 . S
C978 H964 0.930 . S
C978 C976 1.395 . S
C978 C981 1.403 . S
C979 C976 1.403 . S
C979 C980 1.524 . S
C979 C983 1.400 . S
C980 H965 0.960 . S
C980 H966 0.960 . S
C980 H967 0.960 . S
C980 C979 1.524 . S
C981 C978 1.403 . S
C981 C982 1.392 . S
C981 C985 1.495 . S
C982 C981 1.392 . S
C982 C983 1.385 . S
C982 C984 1.478 . S
C983 H977 0.930 . S
C983 C979 1.400 . S
C983 C982 1.385 . S
C984 C982 1.478 . S
C984 C986 1.381 . S
C984 C990 1.383 . S
C985 C981 1.495 . S
C985 H991 0.959 . S
C985 H992 0.961 . S
C985 H993 0.960 . S
C986 C984 1.381 . S
C986 C987 1.394 . S
C986 H994 0.930 . S
C987 C986 1.394 . S
C987 C988 1.383 . S
C987 H995 0.929 . S
C988 C987 1.383 . S
C988 C989 1.377 . S
C989 H973 0.930 . S
C989 C988 1.377 . S
C989 C990 1.379 . S
C990 H974 0.931 . S
C990 C984 1.383 . S
C990 C989 1.379 . S
H991 C985 0.959 . S
H992 C985 0.961 . S
H993 C985 0.960 . S
H994 C986 0.930 . S
H995 C987 0.929 . S
H996 C1004 0.929 . S
H997 C1006 0.930 . S
H998 C1008 0.930 . S
H999 C1011 0.929 . S
H1000 C1014 0.930 . S
H1001 C1016 0.960 . S
H1002 C1016 0.960 . S
H1003 C1016 0.960 . S
C1004 H996 0.929 . S
C1004 C1005 1.377 . S
C1004 C1006 1.384 . S
C1005 C1004 1.377 . S
C1005 C1011 1.390 . S
C1006 H997 0.930 . S
C1006 C1004 1.384 . S
C1006 C1007 1.372 . S
C1007 C1006 1.372 . S
C1007 C1008 1.400 . S
C1007 C1012 1.490 . S
C1008 H998 0.930 . S
C1008 C1007 1.400 . S
C1008 C1011 1.386 . S
H1009 C1025 0.930 . S
H1010 C1026 0.931 . S
C1011 H999 0.929 . S
C1011 C1005 1.390 . S
C1011 C1008 1.386 . S
C1012 C1007 1.490 . S
C1012 C1014 1.395 . S
C1012 C1015 1.403 . S
H1013 C1019 0.930 . S
C1014 H1000 0.930 . S
C1014 C1012 1.395 . S
C1014 C1017 1.403 . S
C1015 C1012 1.403 . S
C1015 C1016 1.524 . S
C1015 C1019 1.400 . S
C1016 H1001 0.960 . S
C1016 H1002 0.960 . S
C1016 H1003 0.960 . S
C1016 C1015 1.524 . S
C1017 C1014 1.403 . S
C1017 C1018 1.392 . S
C1017 C1021 1.495 . S
C1018 C1017 1.392 . S
C1018 C1019 1.385 . S
C1018 C1020 1.478 . S
C1019 H1013 0.930 . S
C1019 C1015 1.400 . S
C1019 C1018 1.385 . S
C1020 C1018 1.478 . S
C1020 C1022 1.381 . S
C1020 C1026 1.383 . S
C1021 C1017 1.495 . S
C1021 H1027 0.959 . S
C1021 H1028 0.961 . S
C1021 H1029 0.960 . S
C1022 C1020 1.381 . S
C1022 C1023 1.394 . S
C1022 H1030 0.930 . S
C1023 C1022 1.394 . S
C1023 C1024 1.383 . S
C1023 H1031 0.929 . S
C1024 C1023 1.383 . S
C1024 C1025 1.377 . S
C1025 H1009 0.930 . S
C1025 C1024 1.377 . S
C1025 C1026 1.379 . S
C1026 H1010 0.931 . S
C1026 C1020 1.383 . S
C1026 C1025 1.379 . S
H1027 C1021 0.959 . S
H1028 C1021 0.961 . S
H1029 C1021 0.960 . S
H1030 C1022 0.930 . S
H1031 C1023 0.929 . S
H1032 C1040 0.929 . S
H1033 C1042 0.930 . S
H1034 C1044 0.930 . S
H1035 C1047 0.929 . S
H1036 C1050 0.930 . S
H1037 C1052 0.960 . S
H1038 C1052 0.960 . S
H1039 C1052 0.960 . S
C1040 H1032 0.929 . S
C1040 C1041 1.377 . S
C1040 C1042 1.384 . S
C1041 C1040 1.377 . S
C1041 C1047 1.390 . S
C1042 H1033 0.930 . S
C1042 C1040 1.384 . S
C1042 C1043 1.372 . S
C1043 C1042 1.372 . S
C1043 C1044 1.400 . S
C1043 C1048 1.490 . S
C1044 H1034 0.930 . S
C1044 C1043 1.400 . S
C1044 C1047 1.386 . S
H1045 C1061 0.930 . S
H1046 C1062 0.931 . S
C1047 H1035 0.929 . S
C1047 C1041 1.390 . S
C1047 C1044 1.386 . S
C1048 C1043 1.490 . S
C1048 C1050 1.395 . S
C1048 C1051 1.403 . S
H1049 C1055 0.930 . S
C1050 H1036 0.930 . S
C1050 C1048 1.395 . S
C1050 C1053 1.403 . S
C1051 C1048 1.403 . S
C1051 C1052 1.524 . S
C1051 C1055 1.400 . S
C1052 H1037 0.960 . S
C1052 H1038 0.960 . S
C1052 H1039 0.960 . S
C1052 C1051 1.524 . S
C1053 C1050 1.403 . S
C1053 C1054 1.392 . S
C1053 C1057 1.495 . S
C1054 C1053 1.392 . S
C1054 C1055 1.385 . S
C1054 C1056 1.478 . S
C1055 H1049 0.930 . S
C1055 C1051 1.400 . S
C1055 C1054 1.385 . S
C1056 C1054 1.478 . S
C1056 C1058 1.381 . S
C1056 C1062 1.383 . S
C1057 C1053 1.495 . S
C1057 H1063 0.959 . S
C1057 H1064 0.961 . S
C1057 H1065 0.960 . S
C1058 C1056 1.381 . S
C1058 C1059 1.394 . S
C1058 H1066 0.930 . S
C1059 C1058 1.394 . S
C1059 C1060 1.383 . S
C1059 H1067 0.929 . S
C1060 C1059 1.383 . S
C1060 C1061 1.377 . S
C1061 H1045 0.930 . S
C1061 C1060 1.377 . S
C1061 C1062 1.379 . S
C1062 H1046 0.931 . S
C1062 C1056 1.383 . S
C1062 C1061 1.379 . S
H1063 C1057 0.959 . S
H1064 C1057 0.961 . S
H1065 C1057 0.960 . S
H1066 C1058 0.930 . S
H1067 C1059 0.929 . S
H1068 C1076 0.929 . S
H1069 C1078 0.930 . S
H1070 C1080 0.930 . S
H1071 C1083 0.929 . S
H1072 C1086 0.930 . S
H1073 C1088 0.960 . S
H1074 C1088 0.960 . S
H1075 C1088 0.960 . S
C1076 H1068 0.929 . S
C1076 C1077 1.377 . S
C1076 C1078 1.384 . S
C1077 C1076 1.377 . S
C1077 C1083 1.390 . S
C1078 H1069 0.930 . S
C1078 C1076 1.384 . S
C1078 C1079 1.372 . S
C1079 C1078 1.372 . S
C1079 C1080 1.400 . S
C1079 C1084 1.490 . S
C1080 H1070 0.930 . S
C1080 C1079 1.400 . S
C1080 C1083 1.386 . S
H1081 C1097 0.930 . S
H1082 C1098 0.931 . S
C1083 H1071 0.929 . S
C1083 C1077 1.390 . S
C1083 C1080 1.386 . S
C1084 C1079 1.490 . S
C1084 C1086 1.395 . S
C1084 C1087 1.403 . S
H1085 C1091 0.930 . S
C1086 H1072 0.930 . S
C1086 C1084 1.395 . S
C1086 C1089 1.403 . S
C1087 C1084 1.403 . S
C1087 C1088 1.524 . S
C1087 C1091 1.400 . S
C1088 H1073 0.960 . S
C1088 H1074 0.960 . S
C1088 H1075 0.960 . S
C1088 C1087 1.524 . S
C1089 C1086 1.403 . S
C1089 C1090 1.392 . S
C1089 C1093 1.495 . S
C1090 C1089 1.392 . S
C1090 C1091 1.385 . S
C1090 C1092 1.478 . S
C1091 H1085 0.930 . S
C1091 C1087 1.400 . S
C1091 C1090 1.385 . S
C1092 C1090 1.478 . S
C1092 C1094 1.381 . S
C1092 C1098 1.383 . S
C1093 C1089 1.495 . S
C1093 H1099 0.959 . S
C1093 H1100 0.961 . S
C1093 H1101 0.960 . S
C1094 C1092 1.381 . S
C1094 C1095 1.394 . S
C1094 H1102 0.930 . S
C1095 C1094 1.394 . S
C1095 C1096 1.383 . S
C1095 H1103 0.929 . S
C1096 C1095 1.383 . S
C1096 C1097 1.377 . S
C1097 H1081 0.930 . S
C1097 C1096 1.377 . S
C1097 C1098 1.379 . S
C1098 H1082 0.931 . S
C1098 C1092 1.383 . S
C1098 C1097 1.379 . S
H1099 C1093 0.959 . S
H1100 C1093 0.961 . S
H1101 C1093 0.960 . S
H1102 C1094 0.930 . S
H1103 C1095 0.929 . S
H1104 C1112 0.929 . S
H1105 C1114 0.930 . S
H1106 C1116 0.930 . S
H1107 C1119 0.929 . S
H1108 C1122 0.930 . S
H1109 C1124 0.960 . S
H1110 C1124 0.960 . S
H1111 C1124 0.960 . S
C1112 H1104 0.929 . S
C1112 C1113 1.377 . S
C1112 C1114 1.384 . S
C1113 C1112 1.377 . S
C1113 C1119 1.390 . S
C1114 H1105 0.930 . S
C1114 C1112 1.384 . S
C1114 C1115 1.372 . S
C1115 C1114 1.372 . S
C1115 C1116 1.400 . S
C1115 C1120 1.490 . S
C1116 H1106 0.930 . S
C1116 C1115 1.400 . S
C1116 C1119 1.386 . S
H1117 C1133 0.930 . S
H1118 C1134 0.931 . S
C1119 H1107 0.929 . S
C1119 C1113 1.390 . S
C1119 C1116 1.386 . S
C1120 C1115 1.490 . S
C1120 C1122 1.395 . S
C1120 C1123 1.403 . S
H1121 C1127 0.930 . S
C1122 H1108 0.930 . S
C1122 C1120 1.395 . S
C1122 C1125 1.403 . S
C1123 C1120 1.403 . S
C1123 C1124 1.524 . S
C1123 C1127 1.400 . S
C1124 H1109 0.960 . S
C1124 H1110 0.960 . S
C1124 H1111 0.960 . S
C1124 C1123 1.524 . S
C1125 C1122 1.403 . S
C1125 C1126 1.392 . S
C1125 C1129 1.495 . S
C1126 C1125 1.392 . S
C1126 C1127 1.385 . S
C1126 C1128 1.478 . S
C1127 H1121 0.930 . S
C1127 C1123 1.400 . S
C1127 C1126 1.385 . S
C1128 C1126 1.478 . S
C1128 C1130 1.381 . S
C1128 C1134 1.383 . S
C1129 C1125 1.495 . S
C1129 H1135 0.959 . S
C1129 H1136 0.961 . S
C1129 H1137 0.960 . S
C1130 C1128 1.381 . S
C1130 C1131 1.394 . S
C1130 H1138 0.930 . S
C1131 C1130 1.394 . S
C1131 C1132 1.383 . S
C1131 H1139 0.929 . S
C1132 C1131 1.383 . S
C1132 C1133 1.377 . S
C1133 H1117 0.930 . S
C1133 C1132 1.377 . S
C1133 C1134 1.379 . S
C1134 H1118 0.931 . S
C1134 C1128 1.383 . S
C1134 C1133 1.379 . S
H1135 C1129 0.959 . S
H1136 C1129 0.961 . S
H1137 C1129 0.960 . S
H1138 C1130 0.930 . S
H1139 C1131 0.929 . S
H1140 C1148 0.929 . S
H1141 C1150 0.930 . S
H1142 C1152 0.930 . S
H1143 C1155 0.929 . S
H1144 C1158 0.930 . S
H1145 C1160 0.960 . S
H1146 C1160 0.960 . S
H1147 C1160 0.960 . S
C1148 H1140 0.929 . S
C1148 C1149 1.377 . S
C1148 C1150 1.384 . S
C1149 C1148 1.377 . S
C1149 C1155 1.390 . S
C1150 H1141 0.930 . S
C1150 C1148 1.384 . S
C1150 C1151 1.372 . S
C1151 C1150 1.372 . S
C1151 C1152 1.400 . S
C1151 C1156 1.490 . S
C1152 H1142 0.930 . S
C1152 C1151 1.400 . S
C1152 C1155 1.386 . S
H1153 C1169 0.930 . S
H1154 C1170 0.931 . S
C1155 H1143 0.929 . S
C1155 C1149 1.390 . S
C1155 C1152 1.386 . S
C1156 C1151 1.490 . S
C1156 C1158 1.395 . S
C1156 C1159 1.403 . S
H1157 C1163 0.930 . S
C1158 H1144 0.930 . S
C1158 C1156 1.395 . S
C1158 C1161 1.403 . S
C1159 C1156 1.403 . S
C1159 C1160 1.524 . S
C1159 C1163 1.400 . S
C1160 H1145 0.960 . S
C1160 H1146 0.960 . S
C1160 H1147 0.960 . S
C1160 C1159 1.524 . S
C1161 C1158 1.403 . S
C1161 C1162 1.392 . S
C1161 C1165 1.495 . S
C1162 C1161 1.392 . S
C1162 C1163 1.385 . S
C1162 C1164 1.478 . S
C1163 H1157 0.930 . S
C1163 C1159 1.400 . S
C1163 C1162 1.385 . S
C1164 C1162 1.478 . S
C1164 C1166 1.381 . S
C1164 C1170 1.383 . S
C1165 C1161 1.495 . S
C1165 H1171 0.959 . S
C1165 H1172 0.961 . S
C1165 H1173 0.960 . S
C1166 C1164 1.381 . S
C1166 C1167 1.394 . S
C1166 H1174 0.930 . S
C1167 C1166 1.394 . S
C1167 C1168 1.383 . S
C1167 H1175 0.929 . S
C1168 C1167 1.383 . S
C1168 C1169 1.377 . S
C1169 H1153 0.930 . S
C1169 C1168 1.377 . S
C1169 C1170 1.379 . S
C1170 H1154 0.931 . S
C1170 C1164 1.383 . S
C1170 C1169 1.379 . S
H1171 C1165 0.959 . S
H1172 C1165 0.961 . S
H1173 C1165 0.960 . S
H1174 C1166 0.930 . S
H1175 C1167 0.929 . S
H1176 C1184 0.929 . S
H1177 C1186 0.930 . S
H1178 C1188 0.930 . S
H1179 C1191 0.929 . S
H1180 C1194 0.930 . S
H1181 C1196 0.960 . S
H1182 C1196 0.960 . S
H1183 C1196 0.960 . S
C1184 H1176 0.929 . S
C1184 C1185 1.377 . S
C1184 C1186 1.384 . S
C1185 C1184 1.377 . S
C1185 C1191 1.390 . S
C1186 H1177 0.930 . S
C1186 C1184 1.384 . S
C1186 C1187 1.372 . S
C1187 C1186 1.372 . S
C1187 C1188 1.400 . S
C1187 C1192 1.490 . S
C1188 H1178 0.930 . S
C1188 C1187 1.400 . S
C1188 C1191 1.386 . S
H1189 C1205 0.930 . S
H1190 C1206 0.931 . S
C1191 H1179 0.929 . S
C1191 C1185 1.390 . S
C1191 C1188 1.386 . S
C1192 C1187 1.490 . S
C1192 C1194 1.395 . S
C1192 C1195 1.403 . S
H1193 C1199 0.930 . S
C1194 H1180 0.930 . S
C1194 C1192 1.395 . S
C1194 C1197 1.403 . S
C1195 C1192 1.403 . S
C1195 C1196 1.524 . S
C1195 C1199 1.400 . S
C1196 H1181 0.960 . S
C1196 H1182 0.960 . S
C1196 H1183 0.960 . S
C1196 C1195 1.524 . S
C1197 C1194 1.403 . S
C1197 C1198 1.392 . S
C1197 C1201 1.495 . S
C1198 C1197 1.392 . S
C1198 C1199 1.385 . S
C1198 C1200 1.478 . S
C1199 H1193 0.930 . S
C1199 C1195 1.400 . S
C1199 C1198 1.385 . S
C1200 C1198 1.478 . S
C1200 C1202 1.381 . S
C1200 C1206 1.383 . S
C1201 C1197 1.495 . S
C1201 H1207 0.959 . S
C1201 H1208 0.961 . S
C1201 H1209 0.960 . S
C1202 C1200 1.381 . S
C1202 C1203 1.394 . S
C1202 H1210 0.930 . S
C1203 C1202 1.394 . S
C1203 C1204 1.383 . S
C1203 H1211 0.929 . S
C1204 C1203 1.383 . S
C1204 C1205 1.377 . S
C1205 H1189 0.930 . S
C1205 C1204 1.377 . S
C1205 C1206 1.379 . S
C1206 H1190 0.931 . S
C1206 C1200 1.383 . S
C1206 C1205 1.379 . S
H1207 C1201 0.959 . S
H1208 C1201 0.961 . S
H1209 C1201 0.960 . S
H1210 C1202 0.930 . S
H1211 C1203 0.929 . S
H1212 C1220 0.929 . S
H1213 C1222 0.930 . S
H1214 C1224 0.930 . S
H1215 C1227 0.929 . S
H1216 C1230 0.930 . S
H1217 C1232 0.960 . S
H1218 C1232 0.960 . S
H1219 C1232 0.960 . S
C1220 H1212 0.929 . S
C1220 C1221 1.377 . S
C1220 C1222 1.384 . S
C1221 C1220 1.377 . S
C1221 C1227 1.390 . S
C1222 H1213 0.930 . S
C1222 C1220 1.384 . S
C1222 C1223 1.372 . S
C1223 C1222 1.372 . S
C1223 C1224 1.400 . S
C1223 C1228 1.490 . S
C1224 H1214 0.930 . S
C1224 C1223 1.400 . S
C1224 C1227 1.386 . S
H1225 C1241 0.930 . S
H1226 C1242 0.931 . S
C1227 H1215 0.929 . S
C1227 C1221 1.390 . S
C1227 C1224 1.386 . S
C1228 C1223 1.490 . S
C1228 C1230 1.395 . S
C1228 C1231 1.403 . S
H1229 C1235 0.930 . S
C1230 H1216 0.930 . S
C1230 C1228 1.395 . S
C1230 C1233 1.403 . S
C1231 C1228 1.403 . S
C1231 C1232 1.524 . S
C1231 C1235 1.400 . S
C1232 H1217 0.960 . S
C1232 H1218 0.960 . S
C1232 H1219 0.960 . S
C1232 C1231 1.524 . S
C1233 C1230 1.403 . S
C1233 C1234 1.392 . S
C1233 C1237 1.495 . S
C1234 C1233 1.392 . S
C1234 C1235 1.385 . S
C1234 C1236 1.478 . S
C1235 H1229 0.930 . S
C1235 C1231 1.400 . S
C1235 C1234 1.385 . S
C1236 C1234 1.478 . S
C1236 C1238 1.381 . S
C1236 C1242 1.383 . S
C1237 C1233 1.495 . S
C1237 H1243 0.959 . S
C1237 H1244 0.961 . S
C1237 H1245 0.960 . S
C1238 C1236 1.381 . S
C1238 C1239 1.394 . S
C1238 H1246 0.930 . S
C1239 C1238 1.394 . S
C1239 C1240 1.383 . S
C1239 H1247 0.929 . S
C1240 C1239 1.383 . S
C1240 C1241 1.377 . S
C1241 H1225 0.930 . S
C1241 C1240 1.377 . S
C1241 C1242 1.379 . S
C1242 H1226 0.931 . S
C1242 C1236 1.383 . S
C1242 C1241 1.379 . S
H1243 C1237 0.959 . S
H1244 C1237 0.961 . S
H1245 C1237 0.960 . S
H1246 C1238 0.930 . S
H1247 C1239 0.929 . S
H1248 C1256 0.929 . S
H1249 C1258 0.930 . S
H1250 C1260 0.930 . S
H1251 C1263 0.929 . S
H1252 C1266 0.930 . S
H1253 C1268 0.960 . S
H1254 C1268 0.960 . S
H1255 C1268 0.960 . S
C1256 H1248 0.929 . S
C1256 C1257 1.377 . S
C1256 C1258 1.384 . S
C1257 C1256 1.377 . S
C1257 C1263 1.390 . S
C1258 H1249 0.930 . S
C1258 C1256 1.384 . S
C1258 C1259 1.372 . S
C1259 C1258 1.372 . S
C1259 C1260 1.400 . S
C1259 C1264 1.490 . S
C1260 H1250 0.930 . S
C1260 C1259 1.400 . S
C1260 C1263 1.386 . S
H1261 C1277 0.930 . S
H1262 C1278 0.931 . S
C1263 H1251 0.929 . S
C1263 C1257 1.390 . S
C1263 C1260 1.386 . S
C1264 C1259 1.490 . S
C1264 C1266 1.395 . S
C1264 C1267 1.403 . S
H1265 C1271 0.930 . S
C1266 H1252 0.930 . S
C1266 C1264 1.395 . S
C1266 C1269 1.403 . S
C1267 C1264 1.403 . S
C1267 C1268 1.524 . S
C1267 C1271 1.400 . S
C1268 H1253 0.960 . S
C1268 H1254 0.960 . S
C1268 H1255 0.960 . S
C1268 C1267 1.524 . S
C1269 C1266 1.403 . S
C1269 C1270 1.392 . S
C1269 C1273 1.495 . S
C1270 C1269 1.392 . S
C1270 C1271 1.385 . S
C1270 C1272 1.478 . S
C1271 H1265 0.930 . S
C1271 C1267 1.400 . S
C1271 C1270 1.385 . S
C1272 C1270 1.478 . S
C1272 C1274 1.381 . S
C1272 C1278 1.383 . S
C1273 C1269 1.495 . S
C1273 H1279 0.959 . S
C1273 H1280 0.961 . S
C1273 H1281 0.960 . S
C1274 C1272 1.381 . S
C1274 C1275 1.394 . S
C1274 H1282 0.930 . S
C1275 C1274 1.394 . S
C1275 C1276 1.383 . S
C1275 H1283 0.929 . S
C1276 C1275 1.383 . S
C1276 C1277 1.377 . S
C1277 H1261 0.930 . S
C1277 C1276 1.377 . S
C1277 C1278 1.379 . S
C1278 H1262 0.931 . S
C1278 C1272 1.383 . S
C1278 C1277 1.379 . S
H1279 C1273 0.959 . S
H1280 C1273 0.961 . S
H1281 C1273 0.960 . S
H1282 C1274 0.930 . S
H1283 C1275 0.929 . S
H1284 C1292 0.929 . S
H1285 C1294 0.930 . S
H1286 C1296 0.930 . S
H1287 C1299 0.929 . S
H1288 C1302 0.930 . S
H1289 C1304 0.960 . S
H1290 C1304 0.960 . S
H1291 C1304 0.960 . S
C1292 H1284 0.929 . S
C1292 C1293 1.377 . S
C1292 C1294 1.384 . S
C1293 C1292 1.377 . S
C1293 C1299 1.390 . S
C1294 H1285 0.930 . S
C1294 C1292 1.384 . S
C1294 C1295 1.372 . S
C1295 C1294 1.372 . S
C1295 C1296 1.400 . S
C1295 C1300 1.490 . S
C1296 H1286 0.930 . S
C1296 C1295 1.400 . S
C1296 C1299 1.386 . S
H1297 C1313 0.930 . S
H1298 C1314 0.931 . S
C1299 H1287 0.929 . S
C1299 C1293 1.390 . S
C1299 C1296 1.386 . S
C1300 C1295 1.490 . S
C1300 C1302 1.395 . S
C1300 C1303 1.403 . S
H1301 C1307 0.930 . S
C1302 H1288 0.930 . S
C1302 C1300 1.395 . S
C1302 C1305 1.403 . S
C1303 C1300 1.403 . S
C1303 C1304 1.524 . S
C1303 C1307 1.400 . S
C1304 H1289 0.960 . S
C1304 H1290 0.960 . S
C1304 H1291 0.960 . S
C1304 C1303 1.524 . S
C1305 C1302 1.403 . S
C1305 C1306 1.392 . S
C1305 C1309 1.495 . S
C1306 C1305 1.392 . S
C1306 C1307 1.385 . S
C1306 C1308 1.478 . S
C1307 H1301 0.930 . S
C1307 C1303 1.400 . S
C1307 C1306 1.385 . S
C1308 C1306 1.478 . S
C1308 C1310 1.381 . S
C1308 C1314 1.383 . S
C1309 C1305 1.495 . S
C1309 H1315 0.959 . S
C1309 H1316 0.961 . S
C1309 H1317 0.960 . S
C1310 C1308 1.381 . S
C1310 C1311 1.394 . S
C1310 H1318 0.930 . S
C1311 C1310 1.394 . S
C1311 C1312 1.383 . S
C1311 H1319 0.929 . S
C1312 C1311 1.383 . S
C1312 C1313 1.377 . S
C1313 H1297 0.930 . S
C1313 C1312 1.377 . S
C1313 C1314 1.379 . S
C1314 H1298 0.931 . S
C1314 C1308 1.383 . S
C1314 C1313 1.379 . S
H1315 C1309 0.959 . S
H1316 C1309 0.961 . S
H1317 C1309 0.960 . S
H1318 C1310 0.930 . S
H1319 C1311 0.929 . S
H1320 C1328 0.929 . S
H1321 C1330 0.930 . S
H1322 C1332 0.930 . S
H1323 C1335 0.929 . S
H1324 C1338 0.930 . S
H1325 C1340 0.960 . S
H1326 C1340 0.960 . S
H1327 C1340 0.960 . S
C1328 H1320 0.929 . S
C1328 C1329 1.377 . S
C1328 C1330 1.384 . S
C1329 C1328 1.377 . S
C1329 C1335 1.390 . S
C1330 H1321 0.930 . S
C1330 C1328 1.384 . S
C1330 C1331 1.372 . S
C1331 C1330 1.372 . S
C1331 C1332 1.400 . S
C1331 C1336 1.490 . S
C1332 H1322 0.930 . S
C1332 C1331 1.400 . S
C1332 C1335 1.386 . S
H1333 C1349 0.930 . S
H1334 C1350 0.931 . S
C1335 H1323 0.929 . S
C1335 C1329 1.390 . S
C1335 C1332 1.386 . S
C1336 C1331 1.490 . S
C1336 C1338 1.395 . S
C1336 C1339 1.403 . S
H1337 C1343 0.930 . S
C1338 H1324 0.930 . S
C1338 C1336 1.395 . S
C1338 C1341 1.403 . S
C1339 C1336 1.403 . S
C1339 C1340 1.524 . S
C1339 C1343 1.400 . S
C1340 H1325 0.960 . S
C1340 H1326 0.960 . S
C1340 H1327 0.960 . S
C1340 C1339 1.524 . S
C1341 C1338 1.403 . S
C1341 C1342 1.392 . S
C1341 C1345 1.495 . S
C1342 C1341 1.392 . S
C1342 C1343 1.385 . S
C1342 C1344 1.478 . S
C1343 H1337 0.930 . S
C1343 C1339 1.400 . S
C1343 C1342 1.385 . S
C1344 C1342 1.478 . S
C1344 C1346 1.381 . S
C1344 C1350 1.383 . S
C1345 C1341 1.495 . S
C1345 H1351 0.959 . S
C1345 H1352 0.961 . S
C1345 H1353 0.960 . S
C1346 C1344 1.381 . S
C1346 C1347 1.394 . S
C1346 H1354 0.930 . S
C1347 C1346 1.394 . S
C1347 C1348 1.383 . S
C1347 H1355 0.929 . S
C1348 C1347 1.383 . S
C1348 C1349 1.377 . S
C1349 H1333 0.930 . S
C1349 C1348 1.377 . S
C1349 C1350 1.379 . S
C1350 H1334 0.931 . S
C1350 C1344 1.383 . S
C1350 C1349 1.379 . S
H1351 C1345 0.959 . S
H1352 C1345 0.961 . S
H1353 C1345 0.960 . S
H1354 C1346 0.930 . S
H1355 C1347 0.929 . S
H1356 C1364 0.929 . S
H1357 C1366 0.930 . S
H1358 C1368 0.930 . S
H1359 C1371 0.929 . S
H1360 C1374 0.930 . S
H1361 C1376 0.960 . S
H1362 C1376 0.960 . S
H1363 C1376 0.960 . S
C1364 H1356 0.929 . S
C1364 C1365 1.377 . S
C1364 C1366 1.384 . S
C1365 C1364 1.377 . S
C1365 C1371 1.390 . S
C1366 H1357 0.930 . S
C1366 C1364 1.384 . S
C1366 C1367 1.372 . S
C1367 C1366 1.372 . S
C1367 C1368 1.400 . S
C1367 C1372 1.490 . S
C1368 H1358 0.930 . S
C1368 C1367 1.400 . S
C1368 C1371 1.386 . S
H1369 C1385 0.930 . S
H1370 C1386 0.931 . S
C1371 H1359 0.929 . S
C1371 C1365 1.390 . S
C1371 C1368 1.386 . S
C1372 C1367 1.490 . S
C1372 C1374 1.395 . S
C1372 C1375 1.403 . S
H1373 C1379 0.930 . S
C1374 H1360 0.930 . S
C1374 C1372 1.395 . S
C1374 C1377 1.403 . S
C1375 C1372 1.403 . S
C1375 C1376 1.524 . S
C1375 C1379 1.400 . S
C1376 H1361 0.960 . S
C1376 H1362 0.960 . S
C1376 H1363 0.960 . S
C1376 C1375 1.524 . S
C1377 C1374 1.403 . S
C1377 C1378 1.392 . S
C1377 C1381 1.495 . S
C1378 C1377 1.392 . S
C1378 C1379 1.385 . S
C1378 C1380 1.478 . S
C1379 H1373 0.930 . S
C1379 C1375 1.400 . S
C1379 C1378 1.385 . S
C1380 C1378 1.478 . S
C1380 C1382 1.381 . S
C1380 C1386 1.383 . S
C1381 C1377 1.495 . S
C1381 H1387 0.959 . S
C1381 H1388 0.961 . S
C1381 H1389 0.960 . S
C1382 C1380 1.381 . S
C1382 C1383 1.394 . S
C1382 H1390 0.930 . S
C1383 C1382 1.394 . S
C1383 C1384 1.383 . S
C1383 H1391 0.929 . S
C1384 C1383 1.383 . S
C1384 C1385 1.377 . S
C1385 H1369 0.930 . S
C1385 C1384 1.377 . S
C1385 C1386 1.379 . S
C1386 H1370 0.931 . S
C1386 C1380 1.383 . S
C1386 C1385 1.379 . S
H1387 C1381 0.959 . S
H1388 C1381 0.961 . S
H1389 C1381 0.960 . S
H1390 C1382 0.930 . S
H1391 C1383 0.929 . S
H1392 C1400 0.929 . S
H1393 C1402 0.930 . S
H1394 C1404 0.930 . S
H1395 C1407 0.929 . S
H1396 C1410 0.930 . S
H1397 C1412 0.960 . S
H1398 C1412 0.960 . S
H1399 C1412 0.960 . S
C1400 H1392 0.929 . S
C1400 C1401 1.377 . S
C1400 C1402 1.384 . S
C1401 C1400 1.377 . S
C1401 C1407 1.390 . S
C1402 H1393 0.930 . S
C1402 C1400 1.384 . S
C1402 C1403 1.372 . S
C1403 C1402 1.372 . S
C1403 C1404 1.400 . S
C1403 C1408 1.490 . S
C1404 H1394 0.930 . S
C1404 C1403 1.400 . S
C1404 C1407 1.386 . S
H1405 C1421 0.930 . S
H1406 C1422 0.931 . S
C1407 H1395 0.929 . S
C1407 C1401 1.390 . S
C1407 C1404 1.386 . S
C1408 C1403 1.490 . S
C1408 C1410 1.395 . S
C1408 C1411 1.403 . S
H1409 C1415 0.930 . S
C1410 H1396 0.930 . S
C1410 C1408 1.395 . S
C1410 C1413 1.403 . S
C1411 C1408 1.403 . S
C1411 C1412 1.524 . S
C1411 C1415 1.400 . S
C1412 H1397 0.960 . S
C1412 H1398 0.960 . S
C1412 H1399 0.960 . S
C1412 C1411 1.524 . S
C1413 C1410 1.403 . S
C1413 C1414 1.392 . S
C1413 C1417 1.495 . S
C1414 C1413 1.392 . S
C1414 C1415 1.385 . S
C1414 C1416 1.478 . S
C1415 H1409 0.930 . S
C1415 C1411 1.400 . S
C1415 C1414 1.385 . S
C1416 C1414 1.478 . S
C1416 C1418 1.381 . S
C1416 C1422 1.383 . S
C1417 C1413 1.495 . S
C1417 H1423 0.959 . S
C1417 H1424 0.961 . S
C1417 H1425 0.960 . S
C1418 C1416 1.381 . S
C1418 C1419 1.394 . S
C1418 H1426 0.930 . S
C1419 C1418 1.394 . S
C1419 C1420 1.383 . S
C1419 H1427 0.929 . S
C1420 C1419 1.383 . S
C1420 C1421 1.377 . S
C1421 H1405 0.930 . S
C1421 C1420 1.377 . S
C1421 C1422 1.379 . S
C1422 H1406 0.931 . S
C1422 C1416 1.383 . S
C1422 C1421 1.379 . S
H1423 C1417 0.959 . S
H1424 C1417 0.961 . S
H1425 C1417 0.960 . S
H1426 C1418 0.930 . S
H1427 C1419 0.929 . S
H1428 C1436 0.929 . S
H1429 C1438 0.930 . S
H1430 C1440 0.930 . S
H1431 C1443 0.929 . S
H1432 C1446 0.930 . S
H1433 C1448 0.960 . S
H1434 C1448 0.960 . S
H1435 C1448 0.960 . S
C1436 H1428 0.929 . S
C1436 C1437 1.377 . S
C1436 C1438 1.384 . S
C1437 C1436 1.377 . S
C1437 C1443 1.390 . S
C1438 H1429 0.930 . S
C1438 C1436 1.384 . S
C1438 C1439 1.372 . S
C1439 C1438 1.372 . S
C1439 C1440 1.400 . S
C1439 C1444 1.490 . S
C1440 H1430 0.930 . S
C1440 C1439 1.400 . S
C1440 C1443 1.386 . S
H1441 C1457 0.930 . S
H1442 C1458 0.931 . S
C1443 H1431 0.929 . S
C1443 C1437 1.390 . S
C1443 C1440 1.386 . S
C1444 C1439 1.490 . S
C1444 C1446 1.395 . S
C1444 C1447 1.403 . S
H1445 C1451 0.930 . S
C1446 H1432 0.930 . S
C1446 C1444 1.395 . S
C1446 C1449 1.403 . S
C1447 C1444 1.403 . S
C1447 C1448 1.524 . S
C1447 C1451 1.400 . S
C1448 H1433 0.960 . S
C1448 H1434 0.960 . S
C1448 H1435 0.960 . S
C1448 C1447 1.524 . S
C1449 C1446 1.403 . S
C1449 C1450 1.392 . S
C1449 C1453 1.495 . S
C1450 C1449 1.392 . S
C1450 C1451 1.385 . S
C1450 C1452 1.478 . S
C1451 H1445 0.930 . S
C1451 C1447 1.400 . S
C1451 C1450 1.385 . S
C1452 C1450 1.478 . S
C1452 C1454 1.381 . S
C1452 C1458 1.383 . S
C1453 C1449 1.495 . S
C1453 H1459 0.959 . S
C1453 H1460 0.961 . S
C1453 H1461 0.960 . S
C1454 C1452 1.381 . S
C1454 C1455 1.394 . S
C1454 H1462 0.930 . S
C1455 C1454 1.394 . S
C1455 C1456 1.383 . S
C1455 H1463 0.929 . S
C1456 C1455 1.383 . S
C1456 C1457 1.377 . S
C1457 H1441 0.930 . S
C1457 C1456 1.377 . S
C1457 C1458 1.379 . S
C1458 H1442 0.931 . S
C1458 C1452 1.383 . S
C1458 C1457 1.379 . S
H1459 C1453 0.959 . S
H1460 C1453 0.961 . S
H1461 C1453 0.960 . S
H1462 C1454 0.930 . S
H1463 C1455 0.929 . S
H1464 C1472 0.929 . S
H1465 C1474 0.930 . S
H1466 C1476 0.930 . S
H1467 C1479 0.929 . S
H1468 C1482 0.930 . S
H1469 C1484 0.960 . S
H1470 C1484 0.960 . S
H1471 C1484 0.960 . S
C1472 H1464 0.929 . S
C1472 C1473 1.377 . S
C1472 C1474 1.384 . S
C1473 C1472 1.377 . S
C1473 C1479 1.390 . S
C1474 H1465 0.930 . S
C1474 C1472 1.384 . S
C1474 C1475 1.372 . S
C1475 C1474 1.372 . S
C1475 C1476 1.400 . S
C1475 C1480 1.490 . S
C1476 H1466 0.930 . S
C1476 C1475 1.400 . S
C1476 C1479 1.386 . S
H1477 C1493 0.930 . S
H1478 C1494 0.931 . S
C1479 H1467 0.929 . S
C1479 C1473 1.390 . S
C1479 C1476 1.386 . S
C1480 C1475 1.490 . S
C1480 C1482 1.395 . S
C1480 C1483 1.403 . S
H1481 C1487 0.930 . S
C1482 H1468 0.930 . S
C1482 C1480 1.395 . S
C1482 C1485 1.403 . S
C1483 C1480 1.403 . S
C1483 C1484 1.524 . S
C1483 C1487 1.400 . S
C1484 H1469 0.960 . S
C1484 H1470 0.960 . S
C1484 H1471 0.960 . S
C1484 C1483 1.524 . S
C1485 C1482 1.403 . S
C1485 C1486 1.392 . S
C1485 C1489 1.495 . S
C1486 C1485 1.392 . S
C1486 C1487 1.385 . S
C1486 C1488 1.478 . S
C1487 H1481 0.930 . S
C1487 C1483 1.400 . S
C1487 C1486 1.385 . S
C1488 C1486 1.478 . S
C1488 C1490 1.381 . S
C1488 C1494 1.383 . S
C1489 C1485 1.495 . S
C1489 H1495 0.959 . S
C1489 H1496 0.961 . S
C1489 H1497 0.960 . S
C1490 C1488 1.381 . S
C1490 C1491 1.394 . S
C1490 H1498 0.930 . S
C1491 C1490 1.394 . S
C1491 C1492 1.383 . S
C1491 H1499 0.929 . S
C1492 C1491 1.383 . S
C1492 C1493 1.377 . S
C1493 H1477 0.930 . S
C1493 C1492 1.377 . S
C1493 C1494 1.379 . S
C1494 H1478 0.931 . S
C1494 C1488 1.383 . S
C1494 C1493 1.379 . S
H1495 C1489 0.959 . S
H1496 C1489 0.961 . S
H1497 C1489 0.960 . S
H1498 C1490 0.930 . S
H1499 C1491 0.929 . S
H1500 C1508 0.929 . S
H1501 C1510 0.930 . S
H1502 C1512 0.930 . S
H1503 C1515 0.929 . S
H1504 C1518 0.930 . S
H1505 C1520 0.960 . S
H1506 C1520 0.960 . S
H1507 C1520 0.960 . S
C1508 H1500 0.929 . S
C1508 C1509 1.377 . S
C1508 C1510 1.384 . S
C1509 C1508 1.377 . S
C1509 C1515 1.390 . S
C1510 H1501 0.930 . S
C1510 C1508 1.384 . S
C1510 C1511 1.372 . S
C1511 C1510 1.372 . S
C1511 C1512 1.400 . S
C1511 C1516 1.490 . S
C1512 H1502 0.930 . S
C1512 C1511 1.400 . S
C1512 C1515 1.386 . S
H1513 C1529 0.930 . S
H1514 C1530 0.931 . S
C1515 H1503 0.929 . S
C1515 C1509 1.390 . S
C1515 C1512 1.386 . S
C1516 C1511 1.490 . S
C1516 C1518 1.395 . S
C1516 C1519 1.403 . S
H1517 C1523 0.930 . S
C1518 H1504 0.930 . S
C1518 C1516 1.395 . S
C1518 C1521 1.403 . S
C1519 C1516 1.403 . S
C1519 C1520 1.524 . S
C1519 C1523 1.400 . S
C1520 H1505 0.960 . S
C1520 H1506 0.960 . S
C1520 H1507 0.960 . S
C1520 C1519 1.524 . S
C1521 C1518 1.403 . S
C1521 C1522 1.392 . S
C1521 C1525 1.495 . S
C1522 C1521 1.392 . S
C1522 C1523 1.385 . S
C1522 C1524 1.478 . S
C1523 H1517 0.930 . S
C1523 C1519 1.400 . S
C1523 C1522 1.385 . S
C1524 C1522 1.478 . S
C1524 C1526 1.381 . S
C1524 C1530 1.383 . S
C1525 C1521 1.495 . S
C1525 H1531 0.959 . S
C1525 H1532 0.961 . S
C1525 H1533 0.960 . S
C1526 C1524 1.381 . S
C1526 C1527 1.394 . S
C1526 H1534 0.930 . S
C1527 C1526 1.394 . S
C1527 C1528 1.383 . S
C1527 H1535 0.929 . S
C1528 C1527 1.383 . S
C1528 C1529 1.377 . S
C1529 H1513 0.930 . S
C1529 C1528 1.377 . S
C1529 C1530 1.379 . S
C1530 H1514 0.931 . S
C1530 C1524 1.383 . S
C1530 C1529 1.379 . S
H1531 C1525 0.959 . S
H1532 C1525 0.961 . S
H1533 C1525 0.960 . S
H1534 C1526 0.930 . S
H1535 C1527 0.929 . S
H1536 C1544 0.929 . S
H1537 C1546 0.930 . S
H1538 C1548 0.930 . S
H1539 C1551 0.929 . S
H1540 C1554 0.930 . S
H1541 C1556 0.960 . S
H1542 C1556 0.960 . S
H1543 C1556 0.960 . S
C1544 H1536 0.929 . S
C1544 C1545 1.377 . S
C1544 C1546 1.384 . S
C1545 C1544 1.377 . S
C1545 C1551 1.390 . S
C1546 H1537 0.930 . S
C1546 C1544 1.384 . S
C1546 C1547 1.372 . S
C1547 C1546 1.372 . S
C1547 C1548 1.400 . S
C1547 C1552 1.490 . S
C1548 H1538 0.930 . S
C1548 C1547 1.400 . S
C1548 C1551 1.386 . S
H1549 C1565 0.930 . S
H1550 C1566 0.931 . S
C1551 H1539 0.929 . S
C1551 C1545 1.390 . S
C1551 C1548 1.386 . S
C1552 C1547 1.490 . S
C1552 C1554 1.395 . S
C1552 C1555 1.403 . S
H1553 C1559 0.930 . S
C1554 H1540 0.930 . S
C1554 C1552 1.395 . S
C1554 C1557 1.403 . S
C1555 C1552 1.403 . S
C1555 C1556 1.524 . S
C1555 C1559 1.400 . S
C1556 H1541 0.960 . S
C1556 H1542 0.960 . S
C1556 H1543 0.960 . S
C1556 C1555 1.524 . S
C1557 C1554 1.403 . S
C1557 C1558 1.392 . S
C1557 C1561 1.495 . S
C1558 C1557 1.392 . S
C1558 C1559 1.385 . S
C1558 C1560 1.478 . S
C1559 H1553 0.930 . S
C1559 C1555 1.400 . S
C1559 C1558 1.385 . S
C1560 C1558 1.478 . S
C1560 C1562 1.381 . S
C1560 C1566 1.383 . S
C1561 C1557 1.495 . S
C1561 H1567 0.959 . S
C1561 H1568 0.961 . S
C1561 H1569 0.960 . S
C1562 C1560 1.381 . S
C1562 C1563 1.394 . S
C1562 H1570 0.930 . S
C1563 C1562 1.394 . S
C1563 C1564 1.383 . S
C1563 H1571 0.929 . S
C1564 C1563 1.383 . S
C1564 C1565 1.377 . S
C1565 H1549 0.930 . S
C1565 C1564 1.377 . S
C1565 C1566 1.379 . S
C1566 H1550 0.931 . S
C1566 C1560 1.383 . S
C1566 C1565 1.379 . S
H1567 C1561 0.959 . S
H1568 C1561 0.961 . S
H1569 C1561 0.960 . S
H1570 C1562 0.930 . S
H1571 C1563 0.929 . S
H1572 C1580 0.929 . S
H1573 C1582 0.930 . S
H1574 C1584 0.930 . S
H1575 C1587 0.929 . S
H1576 C1590 0.930 . S
H1577 C1592 0.960 . S
H1578 C1592 0.960 . S
H1579 C1592 0.960 . S
C1580 H1572 0.929 . S
C1580 C1581 1.377 . S
C1580 C1582 1.384 . S
C1581 C1580 1.377 . S
C1581 C1587 1.390 . S
C1582 H1573 0.930 . S
C1582 C1580 1.384 . S
C1582 C1583 1.372 . S
C1583 C1582 1.372 . S
C1583 C1584 1.400 . S
C1583 C1588 1.490 . S
C1584 H1574 0.930 . S
C1584 C1583 1.400 . S
C1584 C1587 1.386 . S
H1585 C1601 0.930 . S
H1586 C1602 0.931 . S
C1587 H1575 0.929 . S
C1587 C1581 1.390 . S
C1587 C1584 1.386 . S
C1588 C1583 1.490 . S
C1588 C1590 1.395 . S
C1588 C1591 1.403 . S
H1589 C1595 0.930 . S
C1590 H1576 0.930 . S
C1590 C1588 1.395 . S
C1590 C1593 1.403 . S
C1591 C1588 1.403 . S
C1591 C1592 1.524 . S
C1591 C1595 1.400 . S
C1592 H1577 0.960 . S
C1592 H1578 0.960 . S
C1592 H1579 0.960 . S
C1592 C1591 1.524 . S
C1593 C1590 1.403 . S
C1593 C1594 1.392 . S
C1593 C1597 1.495 . S
C1594 C1593 1.392 . S
C1594 C1595 1.385 . S
C1594 C1596 1.478 . S
C1595 H1589 0.930 . S
C1595 C1591 1.400 . S
C1595 C1594 1.385 . S
C1596 C1594 1.478 . S
C1596 C1598 1.381 . S
C1596 C1602 1.383 . S
C1597 C1593 1.495 . S
C1597 H1603 0.959 . S
C1597 H1604 0.961 . S
C1597 H1605 0.960 . S
C1598 C1596 1.381 . S
C1598 C1599 1.394 . S
C1598 H1606 0.930 . S
C1599 C1598 1.394 . S
C1599 C1600 1.383 . S
C1599 H1607 0.929 . S
C1600 C1599 1.383 . S
C1600 C1601 1.377 . S
C1601 H1585 0.930 . S
C1601 C1600 1.377 . S
C1601 C1602 1.379 . S
C1602 H1586 0.931 . S
C1602 C1596 1.383 . S
C1602 C1601 1.379 . S
H1603 C1597 0.959 . S
H1604 C1597 0.961 . S
H1605 C1597 0.960 . S
H1606 C1598 0.930 . S
H1607 C1599 0.929 . S
H1608 C1616 0.929 . S
H1609 C1618 0.930 . S
H1610 C1620 0.930 . S
H1611 C1623 0.929 . S
H1612 C1626 0.930 . S
H1613 C1628 0.960 . S
H1614 C1628 0.960 . S
H1615 C1628 0.960 . S
C1616 H1608 0.929 . S
C1616 C1617 1.377 . S
C1616 C1618 1.384 . S
C1617 C1616 1.377 . S
C1617 C1623 1.390 . S
C1618 H1609 0.930 . S
C1618 C1616 1.384 . S
C1618 C1619 1.372 . S
C1619 C1618 1.372 . S
C1619 C1620 1.400 . S
C1619 C1624 1.490 . S
C1620 H1610 0.930 . S
C1620 C1619 1.400 . S
C1620 C1623 1.386 . S
H1621 C1637 0.930 . S
H1622 C1638 0.931 . S
C1623 H1611 0.929 . S
C1623 C1617 1.390 . S
C1623 C1620 1.386 . S
C1624 C1619 1.490 . S
C1624 C1626 1.395 . S
C1624 C1627 1.403 . S
H1625 C1631 0.930 . S
C1626 H1612 0.930 . S
C1626 C1624 1.395 . S
C1626 C1629 1.403 . S
C1627 C1624 1.403 . S
C1627 C1628 1.524 . S
C1627 C1631 1.400 . S
C1628 H1613 0.960 . S
C1628 H1614 0.960 . S
C1628 H1615 0.960 . S
C1628 C1627 1.524 . S
C1629 C1626 1.403 . S
C1629 C1630 1.392 . S
C1629 C1633 1.495 . S
C1630 C1629 1.392 . S
C1630 C1631 1.385 . S
C1630 C1632 1.478 . S
C1631 H1625 0.930 . S
C1631 C1627 1.400 . S
C1631 C1630 1.385 . S
C1632 C1630 1.478 . S
C1632 C1634 1.381 . S
C1632 C1638 1.383 . S
C1633 C1629 1.495 . S
C1633 H1639 0.959 . S
C1633 H1640 0.961 . S
C1633 H1641 0.960 . S
C1634 C1632 1.381 . S
C1634 C1635 1.394 . S
C1634 H1642 0.930 . S
C1635 C1634 1.394 . S
C1635 C1636 1.383 . S
C1635 H1643 0.929 . S
C1636 C1635 1.383 . S
C1636 C1637 1.377 . S
C1637 H1621 0.930 . S
C1637 C1636 1.377 . S
C1637 C1638 1.379 . S
C1638 H1622 0.931 . S
C1638 C1632 1.383 . S
C1638 C1637 1.379 . S
H1639 C1633 0.959 . S
H1640 C1633 0.961 . S
H1641 C1633 0.960 . S
H1642 C1634 0.930 . S
H1643 C1635 0.929 . S
H1644 C1652 0.929 . S
H1645 C1654 0.930 . S
H1646 C1656 0.930 . S
H1647 C1659 0.929 . S
H1648 C1662 0.930 . S
H1649 C1664 0.960 . S
H1650 C1664 0.960 . S
H1651 C1664 0.960 . S
C1652 H1644 0.929 . S
C1652 C1653 1.377 . S
C1652 C1654 1.384 . S
C1653 C1652 1.377 . S
C1653 C1659 1.390 . S
C1654 H1645 0.930 . S
C1654 C1652 1.384 . S
C1654 C1655 1.372 . S
C1655 C1654 1.372 . S
C1655 C1656 1.400 . S
C1655 C1660 1.490 . S
C1656 H1646 0.930 . S
C1656 C1655 1.400 . S
C1656 C1659 1.386 . S
H1657 C1673 0.930 . S
H1658 C1674 0.931 . S
C1659 H1647 0.929 . S
C1659 C1653 1.390 . S
C1659 C1656 1.386 . S
C1660 C1655 1.490 . S
C1660 C1662 1.395 . S
C1660 C1663 1.403 . S
H1661 C1667 0.930 . S
C1662 H1648 0.930 . S
C1662 C1660 1.395 . S
C1662 C1665 1.403 . S
C1663 C1660 1.403 . S
C1663 C1664 1.524 . S
C1663 C1667 1.400 . S
C1664 H1649 0.960 . S
C1664 H1650 0.960 . S
C1664 H1651 0.960 . S
C1664 C1663 1.524 . S
C1665 C1662 1.403 . S
C1665 C1666 1.392 . S
C1665 C1669 1.495 . S
C1666 C1665 1.392 . S
C1666 C1667 1.385 . S
C1666 C1668 1.478 . S
C1667 H1661 0.930 . S
C1667 C1663 1.400 . S
C1667 C1666 1.385 . S
C1668 C1666 1.478 . S
C1668 C1670 1.381 . S
C1668 C1674 1.383 . S
C1669 C1665 1.495 . S
C1669 H1675 0.959 . S
C1669 H1676 0.961 . S
C1669 H1677 0.960 . S
C1670 C1668 1.381 . S
C1670 C1671 1.394 . S
C1670 H1678 0.930 . S
C1671 C1670 1.394 . S
C1671 C1672 1.383 . S
C1671 H1679 0.929 . S
C1672 C1671 1.383 . S
C1672 C1673 1.377 . S
C1673 H1657 0.930 . S
C1673 C1672 1.377 . S
C1673 C1674 1.379 . S
C1674 H1658 0.931 . S
C1674 C1668 1.383 . S
C1674 C1673 1.379 . S
H1675 C1669 0.959 . S
H1676 C1669 0.961 . S
H1677 C1669 0.960 . S
H1678 C1670 0.930 . S
H1679 C1671 0.929 . S
H1680 C1688 0.929 . S
H1681 C1690 0.930 . S
H1682 C1692 0.930 . S
H1683 C1695 0.929 . S
H1684 C1698 0.930 . S
H1685 C1700 0.960 . S
H1686 C1700 0.960 . S
H1687 C1700 0.960 . S
C1688 H1680 0.929 . S
C1688 C1689 1.377 . S
C1688 C1690 1.384 . S
C1689 C1688 1.377 . S
C1689 C1695 1.390 . S
C1690 H1681 0.930 . S
C1690 C1688 1.384 . S
C1690 C1691 1.372 . S
C1691 C1690 1.372 . S
C1691 C1692 1.400 . S
C1691 C1696 1.490 . S
C1692 H1682 0.930 . S
C1692 C1691 1.400 . S
C1692 C1695 1.386 . S
H1693 C1709 0.930 . S
H1694 C1710 0.931 . S
C1695 H1683 0.929 . S
C1695 C1689 1.390 . S
C1695 C1692 1.386 . S
C1696 C1691 1.490 . S
C1696 C1698 1.395 . S
C1696 C1699 1.403 . S
H1697 C1703 0.930 . S
C1698 H1684 0.930 . S
C1698 C1696 1.395 . S
C1698 C1701 1.403 . S
C1699 C1696 1.403 . S
C1699 C1700 1.524 . S
C1699 C1703 1.400 . S
C1700 H1685 0.960 . S
C1700 H1686 0.960 . S
C1700 H1687 0.960 . S
C1700 C1699 1.524 . S
C1701 C1698 1.403 . S
C1701 C1702 1.392 . S
C1701 C1705 1.495 . S
C1702 C1701 1.392 . S
C1702 C1703 1.385 . S
C1702 C1704 1.478 . S
C1703 H1697 0.930 . S
C1703 C1699 1.400 . S
C1703 C1702 1.385 . S
C1704 C1702 1.478 . S
C1704 C1706 1.381 . S
C1704 C1710 1.383 . S
C1705 C1701 1.495 . S
C1705 H1711 0.959 . S
C1705 H1712 0.961 . S
C1705 H1713 0.960 . S
C1706 C1704 1.381 . S
C1706 C1707 1.394 . S
C1706 H1714 0.930 . S
C1707 C1706 1.394 . S
C1707 C1708 1.383 . S
C1707 H1715 0.929 . S
C1708 C1707 1.383 . S
C1708 C1709 1.377 . S
C1709 H1693 0.930 . S
C1709 C1708 1.377 . S
C1709 C1710 1.379 . S
C1710 H1694 0.931 . S
C1710 C1704 1.383 . S
C1710 C1709 1.379 . S
H1711 C1705 0.959 . S
H1712 C1705 0.961 . S
H1713 C1705 0.960 . S
H1714 C1706 0.930 . S
H1715 C1707 0.929 . S
H1716 C1724 0.929 . S
H1717 C1726 0.930 . S
H1718 C1728 0.930 . S
H1719 C1731 0.929 . S
H1720 C1734 0.930 . S
H1721 C1736 0.960 . S
H1722 C1736 0.960 . S
H1723 C1736 0.960 . S
C1724 H1716 0.929 . S
C1724 C1725 1.377 . S
C1724 C1726 1.384 . S
C1725 C1724 1.377 . S
C1725 C1731 1.390 . S
C1726 H1717 0.930 . S
C1726 C1724 1.384 . S
C1726 C1727 1.372 . S
C1727 C1726 1.372 . S
C1727 C1728 1.400 . S
C1727 C1732 1.490 . S
C1728 H1718 0.930 . S
C1728 C1727 1.400 . S
C1728 C1731 1.386 . S
H1729 C1745 0.930 . S
H1730 C1746 0.931 . S
C1731 H1719 0.929 . S
C1731 C1725 1.390 . S
C1731 C1728 1.386 . S
C1732 C1727 1.490 . S
C1732 C1734 1.395 . S
C1732 C1735 1.403 . S
H1733 C1739 0.930 . S
C1734 H1720 0.930 . S
C1734 C1732 1.395 . S
C1734 C1737 1.403 . S
C1735 C1732 1.403 . S
C1735 C1736 1.524 . S
C1735 C1739 1.400 . S
C1736 H1721 0.960 . S
C1736 H1722 0.960 . S
C1736 H1723 0.960 . S
C1736 C1735 1.524 . S
C1737 C1734 1.403 . S
C1737 C1738 1.392 . S
C1737 C1741 1.495 . S
C1738 C1737 1.392 . S
C1738 C1739 1.385 . S
C1738 C1740 1.478 . S
C1739 H1733 0.930 . S
C1739 C1735 1.400 . S
C1739 C1738 1.385 . S
C1740 C1738 1.478 . S
C1740 C1742 1.381 . S
C1740 C1746 1.383 . S
C1741 C1737 1.495 . S
C1741 H1747 0.959 . S
C1741 H1748 0.961 . S
C1741 H1749 0.960 . S
C1742 C1740 1.381 . S
C1742 C1743 1.394 . S
C1742 H1750 0.930 . S
C1743 C1742 1.394 . S
C1743 C1744 1.383 . S
C1743 H1751 0.929 . S
C1744 C1743 1.383 . S
C1744 C1745 1.377 . S
C1745 H1729 0.930 . S
C1745 C1744 1.377 . S
C1745 C1746 1.379 . S
C1746 H1730 0.931 . S
C1746 C1740 1.383 . S
C1746 C1745 1.379 . S
H1747 C1741 0.959 . S
H1748 C1741 0.961 . S
H1749 C1741 0.960 . S
H1750 C1742 0.930 . S
H1751 C1743 0.929 . S
H1752 C1760 0.929 . S
H1753 C1762 0.930 . S
H1754 C1764 0.930 . S
H1755 C1767 0.929 . S
H1756 C1770 0.930 . S
H1757 C1772 0.960 . S
H1758 C1772 0.960 . S
H1759 C1772 0.960 . S
C1760 H1752 0.929 . S
C1760 C1761 1.377 . S
C1760 C1762 1.384 . S
C1761 C1760 1.377 . S
C1761 C1767 1.390 . S
C1762 H1753 0.930 . S
C1762 C1760 1.384 . S
C1762 C1763 1.372 . S
C1763 C1762 1.372 . S
C1763 C1764 1.400 . S
C1763 C1768 1.490 . S
C1764 H1754 0.930 . S
C1764 C1763 1.400 . S
C1764 C1767 1.386 . S
H1765 C1781 0.930 . S
H1766 C1782 0.931 . S
C1767 H1755 0.929 . S
C1767 C1761 1.390 . S
C1767 C1764 1.386 . S
C1768 C1763 1.490 . S
C1768 C1770 1.395 . S
C1768 C1771 1.403 . S
H1769 C1775 0.930 . S
C1770 H1756 0.930 . S
C1770 C1768 1.395 . S
C1770 C1773 1.403 . S
C1771 C1768 1.403 . S
C1771 C1772 1.524 . S
C1771 C1775 1.400 . S
C1772 H1757 0.960 . S
C1772 H1758 0.960 . S
C1772 H1759 0.960 . S
C1772 C1771 1.524 . S
C1773 C1770 1.403 . S
C1773 C1774 1.392 . S
C1773 C1777 1.495 . S
C1774 C1773 1.392 . S
C1774 C1775 1.385 . S
C1774 C1776 1.478 . S
C1775 H1769 0.930 . S
C1775 C1771 1.400 . S
C1775 C1774 1.385 . S
C1776 C1774 1.478 . S
C1776 C1778 1.381 . S
C1776 C1782 1.383 . S
C1777 C1773 1.495 . S
C1777 H1783 0.959 . S
C1777 H1784 0.961 . S
C1777 H1785 0.960 . S
C1778 C1776 1.381 . S
C1778 C1779 1.394 . S
C1778 H1786 0.930 . S
C1779 C1778 1.394 . S
C1779 C1780 1.383 . S
C1779 H1787 0.929 . S
C1780 C1779 1.383 . S
C1780 C1781 1.377 . S
C1781 H1765 0.930 . S
C1781 C1780 1.377 . S
C1781 C1782 1.379 . S
C1782 H1766 0.931 . S
C1782 C1776 1.383 . S
C1782 C1781 1.379 . S
H1783 C1777 0.959 . S
H1784 C1777 0.961 . S
H1785 C1777 0.960 . S
H1786 C1778 0.930 . S
H1787 C1779 0.929 . S
H1788 C1796 0.929 . S
H1789 C1798 0.930 . S
H1790 C1800 0.930 . S
H1791 C1803 0.929 . S
H1792 C1806 0.930 . S
H1793 C1808 0.960 . S
H1794 C1808 0.960 . S
H1795 C1808 0.960 . S
C1796 H1788 0.929 . S
C1796 C1797 1.377 . S
C1796 C1798 1.384 . S
C1797 C1796 1.377 . S
C1797 C1803 1.390 . S
C1798 H1789 0.930 . S
C1798 C1796 1.384 . S
C1798 C1799 1.372 . S
C1799 C1798 1.372 . S
C1799 C1800 1.400 . S
C1799 C1804 1.490 . S
C1800 H1790 0.930 . S
C1800 C1799 1.400 . S
C1800 C1803 1.386 . S
H1801 C1817 0.930 . S
H1802 C1818 0.931 . S
C1803 H1791 0.929 . S
C1803 C1797 1.390 . S
C1803 C1800 1.386 . S
C1804 C1799 1.490 . S
C1804 C1806 1.395 . S
C1804 C1807 1.403 . S
H1805 C1811 0.930 . S
C1806 H1792 0.930 . S
C1806 C1804 1.395 . S
C1806 C1809 1.403 . S
C1807 C1804 1.403 . S
C1807 C1808 1.524 . S
C1807 C1811 1.400 . S
C1808 H1793 0.960 . S
C1808 H1794 0.960 . S
C1808 H1795 0.960 . S
C1808 C1807 1.524 . S
C1809 C1806 1.403 . S
C1809 C1810 1.392 . S
C1809 C1813 1.495 . S
C1810 C1809 1.392 . S
C1810 C1811 1.385 . S
C1810 C1812 1.478 . S
C1811 H1805 0.930 . S
C1811 C1807 1.400 . S
C1811 C1810 1.385 . S
C1812 C1810 1.478 . S
C1812 C1814 1.381 . S
C1812 C1818 1.383 . S
C1813 C1809 1.495 . S
C1813 H1819 0.959 . S
C1813 H1820 0.961 . S
C1813 H1821 0.960 . S
C1814 C1812 1.381 . S
C1814 C1815 1.394 . S
C1814 H1822 0.930 . S
C1815 C1814 1.394 . S
C1815 C1816 1.383 . S
C1815 H1823 0.929 . S
C1816 C1815 1.383 . S
C1816 C1817 1.377 . S
C1817 H1801 0.930 . S
C1817 C1816 1.377 . S
C1817 C1818 1.379 . S
C1818 H1802 0.931 . S
C1818 C1812 1.383 . S
C1818 C1817 1.379 . S
H1819 C1813 0.959 . S
H1820 C1813 0.961 . S
H1821 C1813 0.960 . S
H1822 C1814 0.930 . S
H1823 C1815 0.929 . S
H1824 C1832 0.929 . S
H1825 C1834 0.930 . S
H1826 C1836 0.930 . S
H1827 C1839 0.929 . S
H1828 C1842 0.930 . S
H1829 C1844 0.960 . S
H1830 C1844 0.960 . S
H1831 C1844 0.960 . S
C1832 H1824 0.929 . S
C1832 C1833 1.377 . S
C1832 C1834 1.384 . S
C1833 C1832 1.377 . S
C1833 C1839 1.390 . S
C1834 H1825 0.930 . S
C1834 C1832 1.384 . S
C1834 C1835 1.372 . S
C1835 C1834 1.372 . S
C1835 C1836 1.400 . S
C1835 C1840 1.490 . S
C1836 H1826 0.930 . S
C1836 C1835 1.400 . S
C1836 C1839 1.386 . S
H1837 C1853 0.930 . S
H1838 C1854 0.931 . S
C1839 H1827 0.929 . S
C1839 C1833 1.390 . S
C1839 C1836 1.386 . S
C1840 C1835 1.490 . S
C1840 C1842 1.395 . S
C1840 C1843 1.403 . S
H1841 C1847 0.930 . S
C1842 H1828 0.930 . S
C1842 C1840 1.395 . S
C1842 C1845 1.403 . S
C1843 C1840 1.403 . S
C1843 C1844 1.524 . S
C1843 C1847 1.400 . S
C1844 H1829 0.960 . S
C1844 H1830 0.960 . S
C1844 H1831 0.960 . S
C1844 C1843 1.524 . S
C1845 C1842 1.403 . S
C1845 C1846 1.392 . S
C1845 C1849 1.495 . S
C1846 C1845 1.392 . S
C1846 C1847 1.385 . S
C1846 C1848 1.478 . S
C1847 H1841 0.930 . S
C1847 C1843 1.400 . S
C1847 C1846 1.385 . S
C1848 C1846 1.478 . S
C1848 C1850 1.381 . S
C1848 C1854 1.383 . S
C1849 C1845 1.495 . S
C1849 H1855 0.959 . S
C1849 H1856 0.961 . S
C1849 H1857 0.960 . S
C1850 C1848 1.381 . S
C1850 C1851 1.394 . S
C1850 H1858 0.930 . S
C1851 C1850 1.394 . S
C1851 C1852 1.383 . S
C1851 H1859 0.929 . S
C1852 C1851 1.383 . S
C1852 C1853 1.377 . S
C1853 H1837 0.930 . S
C1853 C1852 1.377 . S
C1853 C1854 1.379 . S
C1854 H1838 0.931 . S
C1854 C1848 1.383 . S
C1854 C1853 1.379 . S
H1855 C1849 0.959 . S
H1856 C1849 0.961 . S
H1857 C1849 0.960 . S
H1858 C1850 0.930 . S
H1859 C1851 0.929 . S
H1860 C1868 0.929 . S
H1861 C1870 0.930 . S
H1862 C1872 0.930 . S
H1863 C1875 0.929 . S
H1864 C1878 0.930 . S
H1865 C1880 0.960 . S
H1866 C1880 0.960 . S
H1867 C1880 0.960 . S
C1868 H1860 0.929 . S
C1868 C1869 1.377 . S
C1868 C1870 1.384 . S
C1869 C1868 1.377 . S
C1869 C1875 1.390 . S
C1870 H1861 0.930 . S
C1870 C1868 1.384 . S
C1870 C1871 1.372 . S
C1871 C1870 1.372 . S
C1871 C1872 1.400 . S
C1871 C1876 1.490 . S
C1872 H1862 0.930 . S
C1872 C1871 1.400 . S
C1872 C1875 1.386 . S
H1873 C1889 0.930 . S
H1874 C1890 0.931 . S
C1875 H1863 0.929 . S
C1875 C1869 1.390 . S
C1875 C1872 1.386 . S
C1876 C1871 1.490 . S
C1876 C1878 1.395 . S
C1876 C1879 1.403 . S
H1877 C1883 0.930 . S
C1878 H1864 0.930 . S
C1878 C1876 1.395 . S
C1878 C1881 1.403 . S
C1879 C1876 1.403 . S
C1879 C1880 1.524 . S
C1879 C1883 1.400 . S
C1880 H1865 0.960 . S
C1880 H1866 0.960 . S
C1880 H1867 0.960 . S
C1880 C1879 1.524 . S
C1881 C1878 1.403 . S
C1881 C1882 1.392 . S
C1881 C1885 1.495 . S
C1882 C1881 1.392 . S
C1882 C1883 1.385 . S
C1882 C1884 1.478 . S
C1883 H1877 0.930 . S
C1883 C1879 1.400 . S
C1883 C1882 1.385 . S
C1884 C1882 1.478 . S
C1884 C1886 1.381 . S
C1884 C1890 1.383 . S
C1885 C1881 1.495 . S
C1885 H1891 0.959 . S
C1885 H1892 0.961 . S
C1885 H1893 0.960 . S
C1886 C1884 1.381 . S
C1886 C1887 1.394 . S
C1886 H1894 0.930 . S
C1887 C1886 1.394 . S
C1887 C1888 1.383 . S
C1887 H1895 0.929 . S
C1888 C1887 1.383 . S
C1888 C1889 1.377 . S
C1889 H1873 0.930 . S
C1889 C1888 1.377 . S
C1889 C1890 1.379 . S
C1890 H1874 0.931 . S
C1890 C1884 1.383 . S
C1890 C1889 1.379 . S
H1891 C1885 0.959 . S
H1892 C1885 0.961 . S
H1893 C1885 0.960 . S
H1894 C1886 0.930 . S
H1895 C1887 0.929 . S
H1896 C1904 0.929 . S
H1897 C1906 0.930 . S
H1898 C1908 0.930 . S
H1899 C1911 0.929 . S
H1900 C1914 0.930 . S
H1901 C1916 0.960 . S
H1902 C1916 0.960 . S
H1903 C1916 0.960 . S
C1904 H1896 0.929 . S
C1904 C1905 1.377 . S
C1904 C1906 1.384 . S
C1905 C1904 1.377 . S
C1905 C1911 1.390 . S
C1906 H1897 0.930 . S
C1906 C1904 1.384 . S
C1906 C1907 1.372 . S
C1907 C1906 1.372 . S
C1907 C1908 1.400 . S
C1907 C1912 1.490 . S
C1908 H1898 0.930 . S
C1908 C1907 1.400 . S
C1908 C1911 1.386 . S
H1909 C1925 0.930 . S
H1910 C1926 0.931 . S
C1911 H1899 0.929 . S
C1911 C1905 1.390 . S
C1911 C1908 1.386 . S
C1912 C1907 1.490 . S
C1912 C1914 1.395 . S
C1912 C1915 1.403 . S
H1913 C1919 0.930 . S
C1914 H1900 0.930 . S
C1914 C1912 1.395 . S
C1914 C1917 1.403 . S
C1915 C1912 1.403 . S
C1915 C1916 1.524 . S
C1915 C1919 1.400 . S
C1916 H1901 0.960 . S
C1916 H1902 0.960 . S
C1916 H1903 0.960 . S
C1916 C1915 1.524 . S
C1917 C1914 1.403 . S
C1917 C1918 1.392 . S
C1917 C1921 1.495 . S
C1918 C1917 1.392 . S
C1918 C1919 1.385 . S
C1918 C1920 1.478 . S
C1919 H1913 0.930 . S
C1919 C1915 1.400 . S
C1919 C1918 1.385 . S
C1920 C1918 1.478 . S
C1920 C1922 1.381 . S
C1920 C1926 1.383 . S
C1921 C1917 1.495 . S
C1921 H1927 0.959 . S
C1921 H1928 0.961 . S
C1921 H1929 0.960 . S
C1922 C1920 1.381 . S
C1922 C1923 1.394 . S
C1922 H1930 0.930 . S
C1923 C1922 1.394 . S
C1923 C1924 1.383 . S
C1923 H1931 0.929 . S
C1924 C1923 1.383 . S
C1924 C1925 1.377 . S
C1925 H1909 0.930 . S
C1925 C1924 1.377 . S
C1925 C1926 1.379 . S
C1926 H1910 0.931 . S
C1926 C1920 1.383 . S
C1926 C1925 1.379 . S
H1927 C1921 0.959 . S
H1928 C1921 0.961 . S
H1929 C1921 0.960 . S
H1930 C1922 0.930 . S
H1931 C1923 0.929 . S
H1932 C1940 0.929 . S
H1933 C1942 0.930 . S
H1934 C1944 0.930 . S
H1935 C1947 0.929 . S
H1936 C1950 0.930 . S
H1937 C1952 0.960 . S
H1938 C1952 0.960 . S
H1939 C1952 0.960 . S
C1940 H1932 0.929 . S
C1940 C1941 1.377 . S
C1940 C1942 1.384 . S
C1941 C1940 1.377 . S
C1941 C1947 1.390 . S
C1942 H1933 0.930 . S
C1942 C1940 1.384 . S
C1942 C1943 1.372 . S
C1943 C1942 1.372 . S
C1943 C1944 1.400 . S
C1943 C1948 1.490 . S
C1944 H1934 0.930 . S
C1944 C1943 1.400 . S
C1944 C1947 1.386 . S
H1945 C1961 0.930 . S
H1946 C1962 0.931 . S
C1947 H1935 0.929 . S
C1947 C1941 1.390 . S
C1947 C1944 1.386 . S
C1948 C1943 1.490 . S
C1948 C1950 1.395 . S
C1948 C1951 1.403 . S
H1949 C1955 0.930 . S
C1950 H1936 0.930 . S
C1950 C1948 1.395 . S
C1950 C1953 1.403 . S
C1951 C1948 1.403 . S
C1951 C1952 1.524 . S
C1951 C1955 1.400 . S
C1952 H1937 0.960 . S
C1952 H1938 0.960 . S
C1952 H1939 0.960 . S
C1952 C1951 1.524 . S
C1953 C1950 1.403 . S
C1953 C1954 1.392 . S
C1953 C1957 1.495 . S
C1954 C1953 1.392 . S
C1954 C1955 1.385 . S
C1954 C1956 1.478 . S
C1955 H1949 0.930 . S
C1955 C1951 1.400 . S
C1955 C1954 1.385 . S
C1956 C1954 1.478 . S
C1956 C1958 1.381 . S
C1956 C1962 1.383 . S
C1957 C1953 1.495 . S
C1957 H1963 0.959 . S
C1957 H1964 0.961 . S
C1957 H1965 0.960 . S
C1958 C1956 1.381 . S
C1958 C1959 1.394 . S
C1958 H1966 0.930 . S
C1959 C1958 1.394 . S
C1959 C1960 1.383 . S
C1959 H1967 0.929 . S
C1960 C1959 1.383 . S
C1960 C1961 1.377 . S
C1961 H1945 0.930 . S
C1961 C1960 1.377 . S
C1961 C1962 1.379 . S
C1962 H1946 0.931 . S
C1962 C1956 1.383 . S
C1962 C1961 1.379 . S
H1963 C1957 0.959 . S
H1964 C1957 0.961 . S
H1965 C1957 0.960 . S
H1966 C1958 0.930 . S
H1967 C1959 0.929 . S
H1968 C1976 0.929 . S
H1969 C1978 0.930 . S
H1970 C1980 0.930 . S
H1971 C1983 0.929 . S
H1972 C1986 0.930 . S
H1973 C1988 0.960 . S
H1974 C1988 0.960 . S
H1975 C1988 0.960 . S
C1976 H1968 0.929 . S
C1976 C1977 1.377 . S
C1976 C1978 1.384 . S
C1977 C1976 1.377 . S
C1977 C1983 1.390 . S
C1978 H1969 0.930 . S
C1978 C1976 1.384 . S
C1978 C1979 1.372 . S
C1979 C1978 1.372 . S
C1979 C1980 1.400 . S
C1979 C1984 1.490 . S
C1980 H1970 0.930 . S
C1980 C1979 1.400 . S
C1980 C1983 1.386 . S
H1981 C1997 0.930 . S
H1982 C1998 0.931 . S
C1983 H1971 0.929 . S
C1983 C1977 1.390 . S
C1983 C1980 1.386 . S
C1984 C1979 1.490 . S
C1984 C1986 1.395 . S
C1984 C1987 1.403 . S
H1985 C1991 0.930 . S
C1986 H1972 0.930 . S
C1986 C1984 1.395 . S
C1986 C1989 1.403 . S
C1987 C1984 1.403 . S
C1987 C1988 1.524 . S
C1987 C1991 1.400 . S
C1988 H1973 0.960 . S
C1988 H1974 0.960 . S
C1988 H1975 0.960 . S
C1988 C1987 1.524 . S
C1989 C1986 1.403 . S
C1989 C1990 1.392 . S
C1989 C1993 1.495 . S
C1990 C1989 1.392 . S
C1990 C1991 1.385 . S
C1990 C1992 1.478 . S
C1991 H1985 0.930 . S
C1991 C1987 1.400 . S
C1991 C1990 1.385 . S
C1992 C1990 1.478 . S
C1992 C1994 1.381 . S
C1992 C1998 1.383 . S
C1993 C1989 1.495 . S
C1993 H1999 0.959 . S
C1993 H2000 0.961 . S
C1993 H2001 0.960 . S
C1994 C1992 1.381 . S
C1994 C1995 1.394 . S
C1994 H2002 0.930 . S
C1995 C1994 1.394 . S
C1995 C1996 1.383 . S
C1995 H2003 0.929 . S
C1996 C1995 1.383 . S
C1996 C1997 1.377 . S
C1997 H1981 0.930 . S
C1997 C1996 1.377 . S
C1997 C1998 1.379 . S
C1998 H1982 0.931 . S
C1998 C1992 1.383 . S
C1998 C1997 1.379 . S
H1999 C1993 0.959 . S
H2000 C1993 0.961 . S
H2001 C1993 0.960 . S
H2002 C1994 0.930 . S
H2003 C1995 0.929 . S
H2004 C2012 0.929 . S
H2005 C2014 0.930 . S
H2006 C2016 0.930 . S
H2007 C2019 0.929 . S
H2008 C2022 0.930 . S
H2009 C2024 0.960 . S
H2010 C2024 0.960 . S
H2011 C2024 0.960 . S
C2012 H2004 0.929 . S
C2012 C2013 1.377 . S
C2012 C2014 1.384 . S
C2013 C2012 1.377 . S
C2013 C2019 1.390 . S
C2014 H2005 0.930 . S
C2014 C2012 1.384 . S
C2014 C2015 1.372 . S
C2015 C2014 1.372 . S
C2015 C2016 1.400 . S
C2015 C2020 1.490 . S
C2016 H2006 0.930 . S
C2016 C2015 1.400 . S
C2016 C2019 1.386 . S
H2017 C2033 0.930 . S
H2018 C2034 0.931 . S
C2019 H2007 0.929 . S
C2019 C2013 1.390 . S
C2019 C2016 1.386 . S
C2020 C2015 1.490 . S
C2020 C2022 1.395 . S
C2020 C2023 1.403 . S
H2021 C2027 0.930 . S
C2022 H2008 0.930 . S
C2022 C2020 1.395 . S
C2022 C2025 1.403 . S
C2023 C2020 1.403 . S
C2023 C2024 1.524 . S
C2023 C2027 1.400 . S
C2024 H2009 0.960 . S
C2024 H2010 0.960 . S
C2024 H2011 0.960 . S
C2024 C2023 1.524 . S
C2025 C2022 1.403 . S
C2025 C2026 1.392 . S
C2025 C2029 1.495 . S
C2026 C2025 1.392 . S
C2026 C2027 1.385 . S
C2026 C2028 1.478 . S
C2027 H2021 0.930 . S
C2027 C2023 1.400 . S
C2027 C2026 1.385 . S
C2028 C2026 1.478 . S
C2028 C2030 1.381 . S
C2028 C2034 1.383 . S
C2029 C2025 1.495 . S
C2029 H2035 0.959 . S
C2029 H2036 0.961 . S
C2029 H2037 0.960 . S
C2030 C2028 1.381 . S
C2030 C2031 1.394 . S
C2030 H2038 0.930 . S
C2031 C2030 1.394 . S
C2031 C2032 1.383 . S
C2031 H2039 0.929 . S
C2032 C2031 1.383 . S
C2032 C2033 1.377 . S
C2033 H2017 0.930 . S
C2033 C2032 1.377 . S
C2033 C2034 1.379 . S
C2034 H2018 0.931 . S
C2034 C2028 1.383 . S
C2034 C2033 1.379 . S
H2035 C2029 0.959 . S
H2036 C2029 0.961 . S
H2037 C2029 0.960 . S
H2038 C2030 0.930 . S
H2039 C2031 0.929 . S
H2040 C2048 0.929 . S
H2041 C2050 0.930 . S
H2042 C2052 0.930 . S
H2043 C2055 0.929 . S
H2044 C2058 0.930 . S
H2045 C2060 0.960 . S
H2046 C2060 0.960 . S
H2047 C2060 0.960 . S
C2048 H2040 0.929 . S
C2048 C2049 1.377 . S
C2048 C2050 1.384 . S
C2049 C2048 1.377 . S
C2049 C2055 1.390 . S
C2050 H2041 0.930 . S
C2050 C2048 1.384 . S
C2050 C2051 1.372 . S
C2051 C2050 1.372 . S
C2051 C2052 1.400 . S
C2051 C2056 1.490 . S
C2052 H2042 0.930 . S
C2052 C2051 1.400 . S
C2052 C2055 1.386 . S
H2053 C2069 0.930 . S
H2054 C2070 0.931 . S
C2055 H2043 0.929 . S
C2055 C2049 1.390 . S
C2055 C2052 1.386 . S
C2056 C2051 1.490 . S
C2056 C2058 1.395 . S
C2056 C2059 1.403 . S
H2057 C2063 0.930 . S
C2058 H2044 0.930 . S
C2058 C2056 1.395 . S
C2058 C2061 1.403 . S
C2059 C2056 1.403 . S
C2059 C2060 1.524 . S
C2059 C2063 1.400 . S
C2060 H2045 0.960 . S
C2060 H2046 0.960 . S
C2060 H2047 0.960 . S
C2060 C2059 1.524 . S
C2061 C2058 1.403 . S
C2061 C2062 1.392 . S
C2061 C2065 1.495 . S
C2062 C2061 1.392 . S
C2062 C2063 1.385 . S
C2062 C2064 1.478 . S
C2063 H2057 0.930 . S
C2063 C2059 1.400 . S
C2063 C2062 1.385 . S
C2064 C2062 1.478 . S
C2064 C2066 1.381 . S
C2064 C2070 1.383 . S
C2065 C2061 1.495 . S
C2065 H2071 0.959 . S
C2065 H2072 0.961 . S
C2065 H2073 0.960 . S
C2066 C2064 1.381 . S
C2066 C2067 1.394 . S
C2066 H2074 0.930 . S
C2067 C2066 1.394 . S
C2067 C2068 1.383 . S
C2067 H2075 0.929 . S
C2068 C2067 1.383 . S
C2068 C2069 1.377 . S
C2069 H2053 0.930 . S
C2069 C2068 1.377 . S
C2069 C2070 1.379 . S
C2070 H2054 0.931 . S
C2070 C2064 1.383 . S
C2070 C2069 1.379 . S
H2071 C2065 0.959 . S
H2072 C2065 0.961 . S
H2073 C2065 0.960 . S
H2074 C2066 0.930 . S
H2075 C2067 0.929 . S
H2076 C2084 0.929 . S
H2077 C2086 0.930 . S
H2078 C2088 0.930 . S
H2079 C2091 0.929 . S
H2080 C2094 0.930 . S
H2081 C2096 0.960 . S
H2082 C2096 0.960 . S
H2083 C2096 0.960 . S
C2084 H2076 0.929 . S
C2084 C2085 1.377 . S
C2084 C2086 1.384 . S
C2085 C2084 1.377 . S
C2085 C2091 1.390 . S
C2086 H2077 0.930 . S
C2086 C2084 1.384 . S
C2086 C2087 1.372 . S
C2087 C2086 1.372 . S
C2087 C2088 1.400 . S
C2087 C2092 1.490 . S
C2088 H2078 0.930 . S
C2088 C2087 1.400 . S
C2088 C2091 1.386 . S
H2089 C2105 0.930 . S
H2090 C2106 0.931 . S
C2091 H2079 0.929 . S
C2091 C2085 1.390 . S
C2091 C2088 1.386 . S
C2092 C2087 1.490 . S
C2092 C2094 1.395 . S
C2092 C2095 1.403 . S
H2093 C2099 0.930 . S
C2094 H2080 0.930 . S
C2094 C2092 1.395 . S
C2094 C2097 1.403 . S
C2095 C2092 1.403 . S
C2095 C2096 1.524 . S
C2095 C2099 1.400 . S
C2096 H2081 0.960 . S
C2096 H2082 0.960 . S
C2096 H2083 0.960 . S
C2096 C2095 1.524 . S
C2097 C2094 1.403 . S
C2097 C2098 1.392 . S
C2097 C2101 1.495 . S
C2098 C2097 1.392 . S
C2098 C2099 1.385 . S
C2098 C2100 1.478 . S
C2099 H2093 0.930 . S
C2099 C2095 1.400 . S
C2099 C2098 1.385 . S
C2100 C2098 1.478 . S
C2100 C2102 1.381 . S
C2100 C2106 1.383 . S
C2101 C2097 1.495 . S
C2101 H2107 0.959 . S
C2101 H2108 0.961 . S
C2101 H2109 0.960 . S
C2102 C2100 1.381 . S
C2102 C2103 1.394 . S
C2102 H2110 0.930 . S
C2103 C2102 1.394 . S
C2103 C2104 1.383 . S
C2103 H2111 0.929 . S
C2104 C2103 1.383 . S
C2104 C2105 1.377 . S
C2105 H2089 0.930 . S
C2105 C2104 1.377 . S
C2105 C2106 1.379 . S
C2106 H2090 0.931 . S
C2106 C2100 1.383 . S
C2106 C2105 1.379 . S
H2107 C2101 0.959 . S
H2108 C2101 0.961 . S
H2109 C2101 0.960 . S
H2110 C2102 0.930 . S
H2111 C2103 0.929 . S
H2112 C2120 0.929 . S
H2113 C2122 0.930 . S
H2114 C2124 0.930 . S
H2115 C2127 0.929 . S
H2116 C2130 0.930 . S
H2117 C2132 0.960 . S
H2118 C2132 0.960 . S
H2119 C2132 0.960 . S
C2120 H2112 0.929 . S
C2120 C2121 1.377 . S
C2120 C2122 1.384 . S
C2121 C2120 1.377 . S
C2121 C2127 1.390 . S
C2122 H2113 0.930 . S
C2122 C2120 1.384 . S
C2122 C2123 1.372 . S
C2123 C2122 1.372 . S
C2123 C2124 1.400 . S
C2123 C2128 1.490 . S
C2124 H2114 0.930 . S
C2124 C2123 1.400 . S
C2124 C2127 1.386 . S
H2125 C2141 0.930 . S
H2126 C2142 0.931 . S
C2127 H2115 0.929 . S
C2127 C2121 1.390 . S
C2127 C2124 1.386 . S
C2128 C2123 1.490 . S
C2128 C2130 1.395 . S
C2128 C2131 1.403 . S
H2129 C2135 0.930 . S
C2130 H2116 0.930 . S
C2130 C2128 1.395 . S
C2130 C2133 1.403 . S
C2131 C2128 1.403 . S
C2131 C2132 1.524 . S
C2131 C2135 1.400 . S
C2132 H2117 0.960 . S
C2132 H2118 0.960 . S
C2132 H2119 0.960 . S
C2132 C2131 1.524 . S
C2133 C2130 1.403 . S
C2133 C2134 1.392 . S
C2133 C2137 1.495 . S
C2134 C2133 1.392 . S
C2134 C2135 1.385 . S
C2134 C2136 1.478 . S
C2135 H2129 0.930 . S
C2135 C2131 1.400 . S
C2135 C2134 1.385 . S
C2136 C2134 1.478 . S
C2136 C2138 1.381 . S
C2136 C2142 1.383 . S
C2137 C2133 1.495 . S
C2137 H2143 0.959 . S
C2137 H2144 0.961 . S
C2137 H2145 0.960 . S
C2138 C2136 1.381 . S
C2138 C2139 1.394 . S
C2138 H2146 0.930 . S
C2139 C2138 1.394 . S
C2139 C2140 1.383 . S
C2139 H2147 0.929 . S
C2140 C2139 1.383 . S
C2140 C2141 1.377 . S
C2141 H2125 0.930 . S
C2141 C2140 1.377 . S
C2141 C2142 1.379 . S
C2142 H2126 0.931 . S
C2142 C2136 1.383 . S
C2142 C2141 1.379 . S
H2143 C2137 0.959 . S
H2144 C2137 0.961 . S
H2145 C2137 0.960 . S
H2146 C2138 0.930 . S
H2147 C2139 0.929 . S
H2148 C2156 0.929 . S
H2149 C2158 0.930 . S
H2150 C2160 0.930 . S
H2151 C2163 0.929 . S
H2152 C2166 0.930 . S
H2153 C2168 0.960 . S
H2154 C2168 0.960 . S
H2155 C2168 0.960 . S
C2156 H2148 0.929 . S
C2156 C2157 1.377 . S
C2156 C2158 1.384 . S
C2157 C2156 1.377 . S
C2157 C2163 1.390 . S
C2158 H2149 0.930 . S
C2158 C2156 1.384 . S
C2158 C2159 1.372 . S
C2159 C2158 1.372 . S
C2159 C2160 1.400 . S
C2159 C2164 1.490 . S
C2160 H2150 0.930 . S
C2160 C2159 1.400 . S
C2160 C2163 1.386 . S
H2161 C2177 0.930 . S
H2162 C2178 0.931 . S
C2163 H2151 0.929 . S
C2163 C2157 1.390 . S
C2163 C2160 1.386 . S
C2164 C2159 1.490 . S
C2164 C2166 1.395 . S
C2164 C2167 1.403 . S
H2165 C2171 0.930 . S
C2166 H2152 0.930 . S
C2166 C2164 1.395 . S
C2166 C2169 1.403 . S
C2167 C2164 1.403 . S
C2167 C2168 1.524 . S
C2167 C2171 1.400 . S
C2168 H2153 0.960 . S
C2168 H2154 0.960 . S
C2168 H2155 0.960 . S
C2168 C2167 1.524 . S
C2169 C2166 1.403 . S
C2169 C2170 1.392 . S
C2169 C2173 1.495 . S
C2170 C2169 1.392 . S
C2170 C2171 1.385 . S
C2170 C2172 1.478 . S
C2171 H2165 0.930 . S
C2171 C2167 1.400 . S
C2171 C2170 1.385 . S
C2172 C2170 1.478 . S
C2172 C2174 1.381 . S
C2172 C2178 1.383 . S
C2173 C2169 1.495 . S
C2173 H2179 0.959 . S
C2173 H2180 0.961 . S
C2173 H2181 0.960 . S
C2174 C2172 1.381 . S
C2174 C2175 1.394 . S
C2174 H2182 0.930 . S
C2175 C2174 1.394 . S
C2175 C2176 1.383 . S
C2175 H2183 0.929 . S
C2176 C2175 1.383 . S
C2176 C2177 1.377 . S
C2177 H2161 0.930 . S
C2177 C2176 1.377 . S
C2177 C2178 1.379 . S
C2178 H2162 0.931 . S
C2178 C2172 1.383 . S
C2178 C2177 1.379 . S
H2179 C2173 0.959 . S
H2180 C2173 0.961 . S
H2181 C2173 0.960 . S
H2182 C2174 0.930 . S
H2183 C2175 0.929 . S
H2184 C2192 0.929 . S
H2185 C2194 0.930 . S
H2186 C2196 0.930 . S
H2187 C2199 0.929 . S
H2188 C2202 0.930 . S
H2189 C2204 0.960 . S
H2190 C2204 0.960 . S
H2191 C2204 0.960 . S
C2192 H2184 0.929 . S
C2192 C2193 1.377 . S
C2192 C2194 1.384 . S
C2193 C2192 1.377 . S
C2193 C2199 1.390 . S
C2194 H2185 0.930 . S
C2194 C2192 1.384 . S
C2194 C2195 1.372 . S
C2195 C2194 1.372 . S
C2195 C2196 1.400 . S
C2195 C2200 1.490 . S
C2196 H2186 0.930 . S
C2196 C2195 1.400 . S
C2196 C2199 1.386 . S
H2197 C2213 0.930 . S
H2198 C2214 0.931 . S
C2199 H2187 0.929 . S
C2199 C2193 1.390 . S
C2199 C2196 1.386 . S
C2200 C2195 1.490 . S
C2200 C2202 1.395 . S
C2200 C2203 1.403 . S
H2201 C2207 0.930 . S
C2202 H2188 0.930 . S
C2202 C2200 1.395 . S
C2202 C2205 1.403 . S
C2203 C2200 1.403 . S
C2203 C2204 1.524 . S
C2203 C2207 1.400 . S
C2204 H2189 0.960 . S
C2204 H2190 0.960 . S
C2204 H2191 0.960 . S
C2204 C2203 1.524 . S
C2205 C2202 1.403 . S
C2205 C2206 1.392 . S
C2205 C2209 1.495 . S
C2206 C2205 1.392 . S
C2206 C2207 1.385 . S
C2206 C2208 1.478 . S
C2207 H2201 0.930 . S
C2207 C2203 1.400 . S
C2207 C2206 1.385 . S
C2208 C2206 1.478 . S
C2208 C2210 1.381 . S
C2208 C2214 1.383 . S
C2209 C2205 1.495 . S
C2209 H2215 0.959 . S
C2209 H2216 0.961 . S
C2209 H2217 0.960 . S
C2210 C2208 1.381 . S
C2210 C2211 1.394 . S
C2210 H2218 0.930 . S
C2211 C2210 1.394 . S
C2211 C2212 1.383 . S
C2211 H2219 0.929 . S
C2212 C2211 1.383 . S
C2212 C2213 1.377 . S
C2213 H2197 0.930 . S
C2213 C2212 1.377 . S
C2213 C2214 1.379 . S
C2214 H2198 0.931 . S
C2214 C2208 1.383 . S
C2214 C2213 1.379 . S
H2215 C2209 0.959 . S
H2216 C2209 0.961 . S
H2217 C2209 0.960 . S
H2218 C2210 0.930 . S
H2219 C2211 0.929 . S
H2220 C2228 0.929 . S
H2221 C2230 0.930 . S
H2222 C2232 0.930 . S
H2223 C2235 0.929 . S
H2224 C2238 0.930 . S
H2225 C2240 0.960 . S
H2226 C2240 0.960 . S
H2227 C2240 0.960 . S
C2228 H2220 0.929 . S
C2228 C2229 1.377 . S
C2228 C2230 1.384 . S
C2229 C2228 1.377 . S
C2229 C2235 1.390 . S
C2230 H2221 0.930 . S
C2230 C2228 1.384 . S
C2230 C2231 1.372 . S
C2231 C2230 1.372 . S
C2231 C2232 1.400 . S
C2231 C2236 1.490 . S
C2232 H2222 0.930 . S
C2232 C2231 1.400 . S
C2232 C2235 1.386 . S
H2233 C2249 0.930 . S
H2234 C2250 0.931 . S
C2235 H2223 0.929 . S
C2235 C2229 1.390 . S
C2235 C2232 1.386 . S
C2236 C2231 1.490 . S
C2236 C2238 1.395 . S
C2236 C2239 1.403 . S
H2237 C2243 0.930 . S
C2238 H2224 0.930 . S
C2238 C2236 1.395 . S
C2238 C2241 1.403 . S
C2239 C2236 1.403 . S
C2239 C2240 1.524 . S
C2239 C2243 1.400 . S
C2240 H2225 0.960 . S
C2240 H2226 0.960 . S
C2240 H2227 0.960 . S
C2240 C2239 1.524 . S
C2241 C2238 1.403 . S
C2241 C2242 1.392 . S
C2241 C2245 1.495 . S
C2242 C2241 1.392 . S
C2242 C2243 1.385 . S
C2242 C2244 1.478 . S
C2243 H2237 0.930 . S
C2243 C2239 1.400 . S
C2243 C2242 1.385 . S
C2244 C2242 1.478 . S
C2244 C2246 1.381 . S
C2244 C2250 1.383 . S
C2245 C2241 1.495 . S
C2245 H2251 0.959 . S
C2245 H2252 0.961 . S
C2245 H2253 0.960 . S
C2246 C2244 1.381 . S
C2246 C2247 1.394 . S
C2246 H2254 0.930 . S
C2247 C2246 1.394 . S
C2247 C2248 1.383 . S
C2247 H2255 0.929 . S
C2248 C2247 1.383 . S
C2248 C2249 1.377 . S
C2249 H2233 0.930 . S
C2249 C2248 1.377 . S
C2249 C2250 1.379 . S
C2250 H2234 0.931 . S
C2250 C2244 1.383 . S
C2250 C2249 1.379 . S
H2251 C2245 0.959 . S
H2252 C2245 0.961 . S
H2253 C2245 0.960 . S
H2254 C2246 0.930 . S
H2255 C2247 0.929 . S
H2256 C2264 0.929 . S
H2257 C2266 0.930 . S
H2258 C2268 0.930 . S
H2259 C2271 0.929 . S
H2260 C2274 0.930 . S
H2261 C2276 0.960 . S
H2262 C2276 0.960 . S
H2263 C2276 0.960 . S
C2264 H2256 0.929 . S
C2264 C2265 1.377 . S
C2264 C2266 1.384 . S
C2265 C2264 1.377 . S
C2265 C2271 1.390 . S
C2266 H2257 0.930 . S
C2266 C2264 1.384 . S
C2266 C2267 1.372 . S
C2267 C2266 1.372 . S
C2267 C2268 1.400 . S
C2267 C2272 1.490 . S
C2268 H2258 0.930 . S
C2268 C2267 1.400 . S
C2268 C2271 1.386 . S
H2269 C2285 0.930 . S
H2270 C2286 0.931 . S
C2271 H2259 0.929 . S
C2271 C2265 1.390 . S
C2271 C2268 1.386 . S
C2272 C2267 1.490 . S
C2272 C2274 1.395 . S
C2272 C2275 1.403 . S
H2273 C2279 0.930 . S
C2274 H2260 0.930 . S
C2274 C2272 1.395 . S
C2274 C2277 1.403 . S
C2275 C2272 1.403 . S
C2275 C2276 1.524 . S
C2275 C2279 1.400 . S
C2276 H2261 0.960 . S
C2276 H2262 0.960 . S
C2276 H2263 0.960 . S
C2276 C2275 1.524 . S
C2277 C2274 1.403 . S
C2277 C2278 1.392 . S
C2277 C2281 1.495 . S
C2278 C2277 1.392 . S
C2278 C2279 1.385 . S
C2278 C2280 1.478 . S
C2279 H2273 0.930 . S
C2279 C2275 1.400 . S
C2279 C2278 1.385 . S
C2280 C2278 1.478 . S
C2280 C2282 1.381 . S
C2280 C2286 1.383 . S
C2281 C2277 1.495 . S
C2281 H2287 0.959 . S
C2281 H2288 0.961 . S
C2281 H2289 0.960 . S
C2282 C2280 1.381 . S
C2282 C2283 1.394 . S
C2282 H2290 0.930 . S
C2283 C2282 1.394 . S
C2283 C2284 1.383 . S
C2283 H2291 0.929 . S
C2284 C2283 1.383 . S
C2284 C2285 1.377 . S
C2285 H2269 0.930 . S
C2285 C2284 1.377 . S
C2285 C2286 1.379 . S
C2286 H2270 0.931 . S
C2286 C2280 1.383 . S
C2286 C2285 1.379 . S
H2287 C2281 0.959 . S
H2288 C2281 0.961 . S
H2289 C2281 0.960 . S
H2290 C2282 0.930 . S
H2291 C2283 0.929 . S
H2292 C2300 0.929 . S
H2293 C2302 0.930 . S
H2294 C2304 0.930 . S
H2295 C2307 0.929 . S
H2296 C2310 0.930 . S
H2297 C2312 0.960 . S
H2298 C2312 0.960 . S
H2299 C2312 0.960 . S
C2300 H2292 0.929 . S
C2300 C2301 1.377 . S
C2300 C2302 1.384 . S
C2301 C2300 1.377 . S
C2301 C2307 1.390 . S
C2302 H2293 0.930 . S
C2302 C2300 1.384 . S
C2302 C2303 1.372 . S
C2303 C2302 1.372 . S
C2303 C2304 1.400 . S
C2303 C2308 1.490 . S
C2304 H2294 0.930 . S
C2304 C2303 1.400 . S
C2304 C2307 1.386 . S
H2305 C2321 0.930 . S
H2306 C2322 0.931 . S
C2307 H2295 0.929 . S
C2307 C2301 1.390 . S
C2307 C2304 1.386 . S
C2308 C2303 1.490 . S
C2308 C2310 1.395 . S
C2308 C2311 1.403 . S
H2309 C2315 0.930 . S
C2310 H2296 0.930 . S
C2310 C2308 1.395 . S
C2310 C2313 1.403 . S
C2311 C2308 1.403 . S
C2311 C2312 1.524 . S
C2311 C2315 1.400 . S
C2312 H2297 0.960 . S
C2312 H2298 0.960 . S
C2312 H2299 0.960 . S
C2312 C2311 1.524 . S
C2313 C2310 1.403 . S
C2313 C2314 1.392 . S
C2313 C2317 1.495 . S
C2314 C2313 1.392 . S
C2314 C2315 1.385 . S
C2314 C2316 1.478 . S
C2315 H2309 0.930 . S
C2315 C2311 1.400 . S
C2315 C2314 1.385 . S
C2316 C2314 1.478 . S
C2316 C2318 1.381 . S
C2316 C2322 1.383 . S
C2317 C2313 1.495 . S
C2317 H2323 0.959 . S
C2317 H2324 0.961 . S
C2317 H2325 0.960 . S
C2318 C2316 1.381 . S
C2318 C2319 1.394 . S
C2318 H2326 0.930 . S
C2319 C2318 1.394 . S
C2319 C2320 1.383 . S
C2319 H2327 0.929 . S
C2320 C2319 1.383 . S
C2320 C2321 1.377 . S
C2321 H2305 0.930 . S
C2321 C2320 1.377 . S
C2321 C2322 1.379 . S
C2322 H2306 0.931 . S
C2322 C2316 1.383 . S
C2322 C2321 1.379 . S
H2323 C2317 0.959 . S
H2324 C2317 0.961 . S
H2325 C2317 0.960 . S
H2326 C2318 0.930 . S
H2327 C2319 0.929 . S
H2328 C2336 0.929 . S
H2329 C2338 0.930 . S
H2330 C2340 0.930 . S
H2331 C2343 0.929 . S
H2332 C2346 0.930 . S
H2333 C2348 0.960 . S
H2334 C2348 0.960 . S
H2335 C2348 0.960 . S
C2336 H2328 0.929 . S
C2336 C2337 1.377 . S
C2336 C2338 1.384 . S
C2337 C2336 1.377 . S
C2337 C2343 1.390 . S
C2338 H2329 0.930 . S
C2338 C2336 1.384 . S
C2338 C2339 1.372 . S
C2339 C2338 1.372 . S
C2339 C2340 1.400 . S
C2339 C2344 1.490 . S
C2340 H2330 0.930 . S
C2340 C2339 1.400 . S
C2340 C2343 1.386 . S
H2341 C2357 0.930 . S
H2342 C2358 0.931 . S
C2343 H2331 0.929 . S
C2343 C2337 1.390 . S
C2343 C2340 1.386 . S
C2344 C2339 1.490 . S
C2344 C2346 1.395 . S
C2344 C2347 1.403 . S
H2345 C2351 0.930 . S
C2346 H2332 0.930 . S
C2346 C2344 1.395 . S
C2346 C2349 1.403 . S
C2347 C2344 1.403 . S
C2347 C2348 1.524 . S
C2347 C2351 1.400 . S
C2348 H2333 0.960 . S
C2348 H2334 0.960 . S
C2348 H2335 0.960 . S
C2348 C2347 1.524 . S
C2349 C2346 1.403 . S
C2349 C2350 1.392 . S
C2349 C2353 1.495 . S
C2350 C2349 1.392 . S
C2350 C2351 1.385 . S
C2350 C2352 1.478 . S
C2351 H2345 0.930 . S
C2351 C2347 1.400 . S
C2351 C2350 1.385 . S
C2352 C2350 1.478 . S
C2352 C2354 1.381 . S
C2352 C2358 1.383 . S
C2353 C2349 1.495 . S
C2353 H2359 0.959 . S
C2353 H2360 0.961 . S
C2353 H2361 0.960 . S
C2354 C2352 1.381 . S
C2354 C2355 1.394 . S
C2354 H2362 0.930 . S
C2355 C2354 1.394 . S
C2355 C2356 1.383 . S
C2355 H2363 0.929 . S
C2356 C2355 1.383 . S
C2356 C2357 1.377 . S
C2357 H2341 0.930 . S
C2357 C2356 1.377 . S
C2357 C2358 1.379 . S
C2358 H2342 0.931 . S
C2358 C2352 1.383 . S
C2358 C2357 1.379 . S
H2359 C2353 0.959 . S
H2360 C2353 0.961 . S
H2361 C2353 0.960 . S
H2362 C2354 0.930 . S
H2363 C2355 0.929 . S
H2364 C2372 0.929 . S
H2365 C2374 0.930 . S
H2366 C2376 0.930 . S
H2367 C2379 0.929 . S
H2368 C2382 0.930 . S
H2369 C2384 0.960 . S
H2370 C2384 0.960 . S
H2371 C2384 0.960 . S
C2372 H2364 0.929 . S
C2372 C2373 1.377 . S
C2372 C2374 1.384 . S
C2373 C2372 1.377 . S
C2373 C2379 1.390 . S
C2374 H2365 0.930 . S
C2374 C2372 1.384 . S
C2374 C2375 1.372 . S
C2375 C2374 1.372 . S
C2375 C2376 1.400 . S
C2375 C2380 1.490 . S
C2376 H2366 0.930 . S
C2376 C2375 1.400 . S
C2376 C2379 1.386 . S
H2377 C2393 0.930 . S
H2378 C2394 0.931 . S
C2379 H2367 0.929 . S
C2379 C2373 1.390 . S
C2379 C2376 1.386 . S
C2380 C2375 1.490 . S
C2380 C2382 1.395 . S
C2380 C2383 1.403 . S
H2381 C2387 0.930 . S
C2382 H2368 0.930 . S
C2382 C2380 1.395 . S
C2382 C2385 1.403 . S
C2383 C2380 1.403 . S
C2383 C2384 1.524 . S
C2383 C2387 1.400 . S
C2384 H2369 0.960 . S
C2384 H2370 0.960 . S
C2384 H2371 0.960 . S
C2384 C2383 1.524 . S
C2385 C2382 1.403 . S
C2385 C2386 1.392 . S
C2385 C2389 1.495 . S
C2386 C2385 1.392 . S
C2386 C2387 1.385 . S
C2386 C2388 1.478 . S
C2387 H2381 0.930 . S
C2387 C2383 1.400 . S
C2387 C2386 1.385 . S
C2388 C2386 1.478 . S
C2388 C2390 1.381 . S
C2388 C2394 1.383 . S
C2389 C2385 1.495 . S
C2389 H2395 0.959 . S
C2389 H2396 0.961 . S
C2389 H2397 0.960 . S
C2390 C2388 1.381 . S
C2390 C2391 1.394 . S
C2390 H2398 0.930 . S
C2391 C2390 1.394 . S
C2391 C2392 1.383 . S
C2391 H2399 0.929 . S
C2392 C2391 1.383 . S
C2392 C2393 1.377 . S
C2393 H2377 0.930 . S
C2393 C2392 1.377 . S
C2393 C2394 1.379 . S
C2394 H2378 0.931 . S
C2394 C2388 1.383 . S
C2394 C2393 1.379 . S
H2395 C2389 0.959 . S
H2396 C2389 0.961 . S
H2397 C2389 0.960 . S
H2398 C2390 0.930 . S
H2399 C2391 0.929 . S
H2400 C2408 0.929 . S
H2401 C2410 0.930 . S
H2402 C2412 0.930 . S
H2403 C2415 0.929 . S
H2404 C2418 0.930 . S
H2405 C2420 0.960 . S
H2406 C2420 0.960 . S
H2407 C2420 0.960 . S
C2408 H2400 0.929 . S
C2408 C2409 1.377 . S
C2408 C2410 1.384 . S
C2409 C2408 1.377 . S
C2409 C2415 1.390 . S
C2410 H2401 0.930 . S
C2410 C2408 1.384 . S
C2410 C2411 1.372 . S
C2411 C2410 1.372 . S
C2411 C2412 1.400 . S
C2411 C2416 1.490 . S
C2412 H2402 0.930 . S
C2412 C2411 1.400 . S
C2412 C2415 1.386 . S
H2413 C2429 0.930 . S
H2414 C2430 0.931 . S
C2415 H2403 0.929 . S
C2415 C2409 1.390 . S
C2415 C2412 1.386 . S
C2416 C2411 1.490 . S
C2416 C2418 1.395 . S
C2416 C2419 1.403 . S
H2417 C2423 0.930 . S
C2418 H2404 0.930 . S
C2418 C2416 1.395 . S
C2418 C2421 1.403 . S
C2419 C2416 1.403 . S
C2419 C2420 1.524 . S
C2419 C2423 1.400 . S
C2420 H2405 0.960 . S
C2420 H2406 0.960 . S
C2420 H2407 0.960 . S
C2420 C2419 1.524 . S
C2421 C2418 1.403 . S
C2421 C2422 1.392 . S
C2421 C2425 1.495 . S
C2422 C2421 1.392 . S
C2422 C2423 1.385 . S
C2422 C2424 1.478 . S
C2423 H2417 0.930 . S
C2423 C2419 1.400 . S
C2423 C2422 1.385 . S
C2424 C2422 1.478 . S
C2424 C2426 1.381 . S
C2424 C2430 1.383 . S
C2425 C2421 1.495 . S
C2425 H2431 0.959 . S
C2425 H2432 0.961 . S
C2425 H2433 0.960 . S
C2426 C2424 1.381 . S
C2426 C2427 1.394 . S
C2426 H2434 0.930 . S
C2427 C2426 1.394 . S
C2427 C2428 1.383 . S
C2427 H2435 0.929 . S
C2428 C2427 1.383 . S
C2428 C2429 1.377 . S
C2429 H2413 0.930 . S
C2429 C2428 1.377 . S
C2429 C2430 1.379 . S
C2430 H2414 0.931 . S
C2430 C2424 1.383 . S
C2430 C2429 1.379 . S
H2431 C2425 0.959 . S
H2432 C2425 0.961 . S
H2433 C2425 0.960 . S
H2434 C2426 0.930 . S
H2435 C2427 0.929 . S
H2436 C2444 0.929 . S
H2437 C2446 0.930 . S
H2438 C2448 0.930 . S
H2439 C2451 0.929 . S
H2440 C2454 0.930 . S
H2441 C2456 0.960 . S
H2442 C2456 0.960 . S
H2443 C2456 0.960 . S
C2444 H2436 0.929 . S
C2444 C2445 1.377 . S
C2444 C2446 1.384 . S
C2445 C2444 1.377 . S
C2445 C2451 1.390 . S
C2446 H2437 0.930 . S
C2446 C2444 1.384 . S
C2446 C2447 1.372 . S
C2447 C2446 1.372 . S
C2447 C2448 1.400 . S
C2447 C2452 1.490 . S
C2448 H2438 0.930 . S
C2448 C2447 1.400 . S
C2448 C2451 1.386 . S
H2449 C2465 0.930 . S
H2450 C2466 0.931 . S
C2451 H2439 0.929 . S
C2451 C2445 1.390 . S
C2451 C2448 1.386 . S
C2452 C2447 1.490 . S
C2452 C2454 1.395 . S
C2452 C2455 1.403 . S
H2453 C2459 0.930 . S
C2454 H2440 0.930 . S
C2454 C2452 1.395 . S
C2454 C2457 1.403 . S
C2455 C2452 1.403 . S
C2455 C2456 1.524 . S
C2455 C2459 1.400 . S
C2456 H2441 0.960 . S
C2456 H2442 0.960 . S
C2456 H2443 0.960 . S
C2456 C2455 1.524 . S
C2457 C2454 1.403 . S
C2457 C2458 1.392 . S
C2457 C2461 1.495 . S
C2458 C2457 1.392 . S
C2458 C2459 1.385 . S
C2458 C2460 1.478 . S
C2459 H2453 0.930 . S
C2459 C2455 1.400 . S
C2459 C2458 1.385 . S
C2460 C2458 1.478 . S
C2460 C2462 1.381 . S
C2460 C2466 1.383 . S
C2461 C2457 1.495 . S
C2461 H2467 0.959 . S
C2461 H2468 0.961 . S
C2461 H2469 0.960 . S
C2462 C2460 1.381 . S
C2462 C2463 1.394 . S
C2462 H2470 0.930 . S
C2463 C2462 1.394 . S
C2463 C2464 1.383 . S
C2463 H2471 0.929 . S
C2464 C2463 1.383 . S
C2464 C2465 1.377 . S
C2465 H2449 0.930 . S
C2465 C2464 1.377 . S
C2465 C2466 1.379 . S
C2466 H2450 0.931 . S
C2466 C2460 1.383 . S
C2466 C2465 1.379 . S
H2467 C2461 0.959 . S
H2468 C2461 0.961 . S
H2469 C2461 0.960 . S
H2470 C2462 0.930 . S
H2471 C2463 0.929 . S
H2472 C2480 0.929 . S
H2473 C2482 0.930 . S
H2474 C2484 0.930 . S
H2475 C2487 0.929 . S
H2476 C2490 0.930 . S
H2477 C2492 0.960 . S
H2478 C2492 0.960 . S
H2479 C2492 0.960 . S
C2480 H2472 0.929 . S
C2480 C2481 1.377 . S
C2480 C2482 1.384 . S
C2481 C2480 1.377 . S
C2481 C2487 1.390 . S
C2482 H2473 0.930 . S
C2482 C2480 1.384 . S
C2482 C2483 1.372 . S
C2483 C2482 1.372 . S
C2483 C2484 1.400 . S
C2483 C2488 1.490 . S
C2484 H2474 0.930 . S
C2484 C2483 1.400 . S
C2484 C2487 1.386 . S
H2485 C2501 0.930 . S
H2486 C2502 0.931 . S
C2487 H2475 0.929 . S
C2487 C2481 1.390 . S
C2487 C2484 1.386 . S
C2488 C2483 1.490 . S
C2488 C2490 1.395 . S
C2488 C2491 1.403 . S
H2489 C2495 0.930 . S
C2490 H2476 0.930 . S
C2490 C2488 1.395 . S
C2490 C2493 1.403 . S
C2491 C2488 1.403 . S
C2491 C2492 1.524 . S
C2491 C2495 1.400 . S
C2492 H2477 0.960 . S
C2492 H2478 0.960 . S
C2492 H2479 0.960 . S
C2492 C2491 1.524 . S
C2493 C2490 1.403 . S
C2493 C2494 1.392 . S
C2493 C2497 1.495 . S
C2494 C2493 1.392 . S
C2494 C2495 1.385 . S
C2494 C2496 1.478 . S
C2495 H2489 0.930 . S
C2495 C2491 1.400 . S
C2495 C2494 1.385 . S
C2496 C2494 1.478 . S
C2496 C2498 1.381 . S
C2496 C2502 1.383 . S
C2497 C2493 1.495 . S
C2497 H2503 0.959 . S
C2497 H2504 0.961 . S
C2497 H2505 0.960 . S
C2498 C2496 1.381 . S
C2498 C2499 1.394 . S
C2498 H2506 0.930 . S
C2499 C2498 1.394 . S
C2499 C2500 1.383 . S
C2499 H2507 0.929 . S
C2500 C2499 1.383 . S
C2500 C2501 1.377 . S
C2501 H2485 0.930 . S
C2501 C2500 1.377 . S
C2501 C2502 1.379 . S
C2502 H2486 0.931 . S
C2502 C2496 1.383 . S
C2502 C2501 1.379 . S
H2503 C2497 0.959 . S
H2504 C2497 0.961 . S
H2505 C2497 0.960 . S
H2506 C2498 0.930 . S
H2507 C2499 0.929 . S
H2508 C2516 0.929 . S
H2509 C2518 0.930 . S
H2510 C2520 0.930 . S
H2511 C2523 0.929 . S
H2512 C2526 0.930 . S
H2513 C2528 0.960 . S
H2514 C2528 0.960 . S
H2515 C2528 0.960 . S
C2516 H2508 0.929 . S
C2516 C2517 1.377 . S
C2516 C2518 1.384 . S
C2517 C2516 1.377 . S
C2517 C2523 1.390 . S
C2518 H2509 0.930 . S
C2518 C2516 1.384 . S
C2518 C2519 1.372 . S
C2519 C2518 1.372 . S
C2519 C2520 1.400 . S
C2519 C2524 1.490 . S
C2520 H2510 0.930 . S
C2520 C2519 1.400 . S
C2520 C2523 1.386 . S
H2521 C2537 0.930 . S
H2522 C2538 0.931 . S
C2523 H2511 0.929 . S
C2523 C2517 1.390 . S
C2523 C2520 1.386 . S
C2524 C2519 1.490 . S
C2524 C2526 1.395 . S
C2524 C2527 1.403 . S
H2525 C2531 0.930 . S
C2526 H2512 0.930 . S
C2526 C2524 1.395 . S
C2526 C2529 1.403 . S
C2527 C2524 1.403 . S
C2527 C2528 1.524 . S
C2527 C2531 1.400 . S
C2528 H2513 0.960 . S
C2528 H2514 0.960 . S
C2528 H2515 0.960 . S
C2528 C2527 1.524 . S
C2529 C2526 1.403 . S
C2529 C2530 1.392 . S
C2529 C2533 1.495 . S
C2530 C2529 1.392 . S
C2530 C2531 1.385 . S
C2530 C2532 1.478 . S
C2531 H2525 0.930 . S
C2531 C2527 1.400 . S
C2531 C2530 1.385 . S
C2532 C2530 1.478 . S
C2532 C2534 1.381 . S
C2532 C2538 1.383 . S
C2533 C2529 1.495 . S
C2533 H2539 0.959 . S
C2533 H2540 0.961 . S
C2533 H2541 0.960 . S
C2534 C2532 1.381 . S
C2534 C2535 1.394 . S
C2534 H2542 0.930 . S
C2535 C2534 1.394 . S
C2535 C2536 1.383 . S
C2535 H2543 0.929 . S
C2536 C2535 1.383 . S
C2536 C2537 1.377 . S
C2537 H2521 0.930 . S
C2537 C2536 1.377 . S
C2537 C2538 1.379 . S
C2538 H2522 0.931 . S
C2538 C2532 1.383 . S
C2538 C2537 1.379 . S
H2539 C2533 0.959 . S
H2540 C2533 0.961 . S
H2541 C2533 0.960 . S
H2542 C2534 0.930 . S
H2543 C2535 0.929 . S
H2544 C2552 0.929 . S
H2545 C2554 0.930 . S
H2546 C2556 0.930 . S
H2547 C2559 0.929 . S
H2548 C2562 0.930 . S
H2549 C2564 0.960 . S
H2550 C2564 0.960 . S
H2551 C2564 0.960 . S
C2552 H2544 0.929 . S
C2552 C2553 1.377 . S
C2552 C2554 1.384 . S
C2553 C2552 1.377 . S
C2553 C2559 1.390 . S
C2554 H2545 0.930 . S
C2554 C2552 1.384 . S
C2554 C2555 1.372 . S
C2555 C2554 1.372 . S
C2555 C2556 1.400 . S
C2555 C2560 1.490 . S
C2556 H2546 0.930 . S
C2556 C2555 1.400 . S
C2556 C2559 1.386 . S
H2557 C2573 0.930 . S
H2558 C2574 0.931 . S
C2559 H2547 0.929 . S
C2559 C2553 1.390 . S
C2559 C2556 1.386 . S
C2560 C2555 1.490 . S
C2560 C2562 1.395 . S
C2560 C2563 1.403 . S
H2561 C2567 0.930 . S
C2562 H2548 0.930 . S
C2562 C2560 1.395 . S
C2562 C2565 1.403 . S
C2563 C2560 1.403 . S
C2563 C2564 1.524 . S
C2563 C2567 1.400 . S
C2564 H2549 0.960 . S
C2564 H2550 0.960 . S
C2564 H2551 0.960 . S
C2564 C2563 1.524 . S
C2565 C2562 1.403 . S
C2565 C2566 1.392 . S
C2565 C2569 1.495 . S
C2566 C2565 1.392 . S
C2566 C2567 1.385 . S
C2566 C2568 1.478 . S
C2567 H2561 0.930 . S
C2567 C2563 1.400 . S
C2567 C2566 1.385 . S
C2568 C2566 1.478 . S
C2568 C2570 1.381 . S
C2568 C2574 1.383 . S
C2569 C2565 1.495 . S
C2569 H2575 0.959 . S
C2569 H2576 0.961 . S
C2569 H2577 0.960 . S
C2570 C2568 1.381 . S
C2570 C2571 1.394 . S
C2570 H2578 0.930 . S
C2571 C2570 1.394 . S
C2571 C2572 1.383 . S
C2571 H2579 0.929 . S
C2572 C2571 1.383 . S
C2572 C2573 1.377 . S
C2573 H2557 0.930 . S
C2573 C2572 1.377 . S
C2573 C2574 1.379 . S
C2574 H2558 0.931 . S
C2574 C2568 1.383 . S
C2574 C2573 1.379 . S
H2575 C2569 0.959 . S
H2576 C2569 0.961 . S
H2577 C2569 0.960 . S
H2578 C2570 0.930 . S
H2579 C2571 0.929 . S
H2580 C2588 0.929 . S
H2581 C2590 0.930 . S
H2582 C2592 0.930 . S
H2583 C2595 0.929 . S
H2584 C2598 0.930 . S
H2585 C2600 0.960 . S
H2586 C2600 0.960 . S
H2587 C2600 0.960 . S
C2588 H2580 0.929 . S
C2588 C2589 1.377 . S
C2588 C2590 1.384 . S
C2589 C2588 1.377 . S
C2589 C2595 1.390 . S
C2590 H2581 0.930 . S
C2590 C2588 1.384 . S
C2590 C2591 1.372 . S
C2591 C2590 1.372 . S
C2591 C2592 1.400 . S
C2591 C2596 1.490 . S
C2592 H2582 0.930 . S
C2592 C2591 1.400 . S
C2592 C2595 1.386 . S
H2593 C2609 0.930 . S
H2594 C2610 0.931 . S
C2595 H2583 0.929 . S
C2595 C2589 1.390 . S
C2595 C2592 1.386 . S
C2596 C2591 1.490 . S
C2596 C2598 1.395 . S
C2596 C2599 1.403 . S
H2597 C2603 0.930 . S
C2598 H2584 0.930 . S
C2598 C2596 1.395 . S
C2598 C2601 1.403 . S
C2599 C2596 1.403 . S
C2599 C2600 1.524 . S
C2599 C2603 1.400 . S
C2600 H2585 0.960 . S
C2600 H2586 0.960 . S
C2600 H2587 0.960 . S
C2600 C2599 1.524 . S
C2601 C2598 1.403 . S
C2601 C2602 1.392 . S
C2601 C2605 1.495 . S
C2602 C2601 1.392 . S
C2602 C2603 1.385 . S
C2602 C2604 1.478 . S
C2603 H2597 0.930 . S
C2603 C2599 1.400 . S
C2603 C2602 1.385 . S
C2604 C2602 1.478 . S
C2604 C2606 1.381 . S
C2604 C2610 1.383 . S
C2605 C2601 1.495 . S
C2605 H2611 0.959 . S
C2605 H2612 0.961 . S
C2605 H2613 0.960 . S
C2606 C2604 1.381 . S
C2606 C2607 1.394 . S
C2606 H2614 0.930 . S
C2607 C2606 1.394 . S
C2607 C2608 1.383 . S
C2607 H2615 0.929 . S
C2608 C2607 1.383 . S
C2608 C2609 1.377 . S
C2609 H2593 0.930 . S
C2609 C2608 1.377 . S
C2609 C2610 1.379 . S
C2610 H2594 0.931 . S
C2610 C2604 1.383 . S
C2610 C2609 1.379 . S
H2611 C2605 0.959 . S
H2612 C2605 0.961 . S
H2613 C2605 0.960 . S
H2614 C2606 0.930 . S
H2615 C2607 0.929 . S
H2616 C2624 0.929 . S
H2617 C2626 0.930 . S
H2618 C2628 0.930 . S
H2619 C2631 0.929 . S
H2620 C2634 0.930 . S
H2621 C2636 0.960 . S
H2622 C2636 0.960 . S
H2623 C2636 0.960 . S
C2624 H2616 0.929 . S
C2624 C2625 1.377 . S
C2624 C2626 1.384 . S
C2625 C2624 1.377 . S
C2625 C2631 1.390 . S
C2626 H2617 0.930 . S
C2626 C2624 1.384 . S
C2626 C2627 1.372 . S
C2627 C2626 1.372 . S
C2627 C2628 1.400 . S
C2627 C2632 1.490 . S
C2628 H2618 0.930 . S
C2628 C2627 1.400 . S
C2628 C2631 1.386 . S
H2629 C2645 0.930 . S
H2630 C2646 0.931 . S
C2631 H2619 0.929 . S
C2631 C2625 1.390 . S
C2631 C2628 1.386 . S
C2632 C2627 1.490 . S
C2632 C2634 1.395 . S
C2632 C2635 1.403 . S
H2633 C2639 0.930 . S
C2634 H2620 0.930 . S
C2634 C2632 1.395 . S
C2634 C2637 1.403 . S
C2635 C2632 1.403 . S
C2635 C2636 1.524 . S
C2635 C2639 1.400 . S
C2636 H2621 0.960 . S
C2636 H2622 0.960 . S
C2636 H2623 0.960 . S
C2636 C2635 1.524 . S
C2637 C2634 1.403 . S
C2637 C2638 1.392 . S
C2637 C2641 1.495 . S
C2638 C2637 1.392 . S
C2638 C2639 1.385 . S
C2638 C2640 1.478 . S
C2639 H2633 0.930 . S
C2639 C2635 1.400 . S
C2639 C2638 1.385 . S
C2640 C2638 1.478 . S
C2640 C2642 1.381 . S
C2640 C2646 1.383 . S
C2641 C2637 1.495 . S
C2641 H2647 0.959 . S
C2641 H2648 0.961 . S
C2641 H2649 0.960 . S
C2642 C2640 1.381 . S
C2642 C2643 1.394 . S
C2642 H2650 0.930 . S
C2643 C2642 1.394 . S
C2643 C2644 1.383 . S
C2643 H2651 0.929 . S
C2644 C2643 1.383 . S
C2644 C2645 1.377 . S
C2645 H2629 0.930 . S
C2645 C2644 1.377 . S
C2645 C2646 1.379 . S
C2646 H2630 0.931 . S
C2646 C2640 1.383 . S
C2646 C2645 1.379 . S
H2647 C2641 0.959 . S
H2648 C2641 0.961 . S
H2649 C2641 0.960 . S
H2650 C2642 0.930 . S
H2651 C2643 0.929 . S
H2652 C2660 0.929 . S
H2653 C2662 0.930 . S
H2654 C2664 0.930 . S
H2655 C2667 0.929 . S
H2656 C2670 0.930 . S
H2657 C2672 0.960 . S
H2658 C2672 0.960 . S
H2659 C2672 0.960 . S
C2660 H2652 0.929 . S
C2660 C2661 1.377 . S
C2660 C2662 1.384 . S
C2661 C2660 1.377 . S
C2661 C2667 1.390 . S
C2662 H2653 0.930 . S
C2662 C2660 1.384 . S
C2662 C2663 1.372 . S
C2663 C2662 1.372 . S
C2663 C2664 1.400 . S
C2663 C2668 1.490 . S
C2664 H2654 0.930 . S
C2664 C2663 1.400 . S
C2664 C2667 1.386 . S
H2665 C2681 0.930 . S
H2666 C2682 0.931 . S
C2667 H2655 0.929 . S
C2667 C2661 1.390 . S
C2667 C2664 1.386 . S
C2668 C2663 1.490 . S
C2668 C2670 1.395 . S
C2668 C2671 1.403 . S
H2669 C2675 0.930 . S
C2670 H2656 0.930 . S
C2670 C2668 1.395 . S
C2670 C2673 1.403 . S
C2671 C2668 1.403 . S
C2671 C2672 1.524 . S
C2671 C2675 1.400 . S
C2672 H2657 0.960 . S
C2672 H2658 0.960 . S
C2672 H2659 0.960 . S
C2672 C2671 1.524 . S
C2673 C2670 1.403 . S
C2673 C2674 1.392 . S
C2673 C2677 1.495 . S
C2674 C2673 1.392 . S
C2674 C2675 1.385 . S
C2674 C2676 1.478 . S
C2675 H2669 0.930 . S
C2675 C2671 1.400 . S
C2675 C2674 1.385 . S
C2676 C2674 1.478 . S
C2676 C2678 1.381 . S
C2676 C2682 1.383 . S
C2677 C2673 1.495 . S
C2677 H2683 0.959 . S
C2677 H2684 0.961 . S
C2677 H2685 0.960 . S
C2678 C2676 1.381 . S
C2678 C2679 1.394 . S
C2678 H2686 0.930 . S
C2679 C2678 1.394 . S
C2679 C2680 1.383 . S
C2679 H2687 0.929 . S
C2680 C2679 1.383 . S
C2680 C2681 1.377 . S
C2681 H2665 0.930 . S
C2681 C2680 1.377 . S
C2681 C2682 1.379 . S
C2682 H2666 0.931 . S
C2682 C2676 1.383 . S
C2682 C2681 1.379 . S
H2683 C2677 0.959 . S
H2684 C2677 0.961 . S
H2685 C2677 0.960 . S
H2686 C2678 0.930 . S
H2687 C2679 0.929 . S
H2688 C2696 0.929 . S
H2689 C2698 0.930 . S
H2690 C2700 0.930 . S
H2691 C2703 0.929 . S
H2692 C2706 0.930 . S
H2693 C2708 0.960 . S
H2694 C2708 0.960 . S
H2695 C2708 0.960 . S
C2696 H2688 0.929 . S
C2696 C2697 1.377 . S
C2696 C2698 1.384 . S
C2697 C2696 1.377 . S
C2697 C2703 1.390 . S
C2698 H2689 0.930 . S
C2698 C2696 1.384 . S
C2698 C2699 1.372 . S
C2699 C2698 1.372 . S
C2699 C2700 1.400 . S
C2699 C2704 1.490 . S
C2700 H2690 0.930 . S
C2700 C2699 1.400 . S
C2700 C2703 1.386 . S
H2701 C2717 0.930 . S
H2702 C2718 0.931 . S
C2703 H2691 0.929 . S
C2703 C2697 1.390 . S
C2703 C2700 1.386 . S
C2704 C2699 1.490 . S
C2704 C2706 1.395 . S
C2704 C2707 1.403 . S
H2705 C2711 0.930 . S
C2706 H2692 0.930 . S
C2706 C2704 1.395 . S
C2706 C2709 1.403 . S
C2707 C2704 1.403 . S
C2707 C2708 1.524 . S
C2707 C2711 1.400 . S
C2708 H2693 0.960 . S
C2708 H2694 0.960 . S
C2708 H2695 0.960 . S
C2708 C2707 1.524 . S
C2709 C2706 1.403 . S
C2709 C2710 1.392 . S
C2709 C2713 1.495 . S
C2710 C2709 1.392 . S
C2710 C2711 1.385 . S
C2710 C2712 1.478 . S
C2711 H2705 0.930 . S
C2711 C2707 1.400 . S
C2711 C2710 1.385 . S
C2712 C2710 1.478 . S
C2712 C2714 1.381 . S
C2712 C2718 1.383 . S
C2713 C2709 1.495 . S
C2713 H2719 0.959 . S
C2713 H2720 0.961 . S
C2713 H2721 0.960 . S
C2714 C2712 1.381 . S
C2714 C2715 1.394 . S
C2714 H2722 0.930 . S
C2715 C2714 1.394 . S
C2715 C2716 1.383 . S
C2715 H2723 0.929 . S
C2716 C2715 1.383 . S
C2716 C2717 1.377 . S
C2717 H2701 0.930 . S
C2717 C2716 1.377 . S
C2717 C2718 1.379 . S
C2718 H2702 0.931 . S
C2718 C2712 1.383 . S
C2718 C2717 1.379 . S
H2719 C2713 0.959 . S
H2720 C2713 0.961 . S
H2721 C2713 0.960 . S
H2722 C2714 0.930 . S
H2723 C2715 0.929 . S
H2724 C2732 0.929 . S
H2725 C2734 0.930 . S
H2726 C2736 0.930 . S
H2727 C2739 0.929 . S
H2728 C2742 0.930 . S
H2729 C2744 0.960 . S
H2730 C2744 0.960 . S
H2731 C2744 0.960 . S
C2732 H2724 0.929 . S
C2732 C2733 1.377 . S
C2732 C2734 1.384 . S
C2733 C2732 1.377 . S
C2733 C2739 1.390 . S
C2734 H2725 0.930 . S
C2734 C2732 1.384 . S
C2734 C2735 1.372 . S
C2735 C2734 1.372 . S
C2735 C2736 1.400 . S
C2735 C2740 1.490 . S
C2736 H2726 0.930 . S
C2736 C2735 1.400 . S
C2736 C2739 1.386 . S
H2737 C2753 0.930 . S
H2738 C2754 0.931 . S
C2739 H2727 0.929 . S
C2739 C2733 1.390 . S
C2739 C2736 1.386 . S
C2740 C2735 1.490 . S
C2740 C2742 1.395 . S
C2740 C2743 1.403 . S
H2741 C2747 0.930 . S
C2742 H2728 0.930 . S
C2742 C2740 1.395 . S
C2742 C2745 1.403 . S
C2743 C2740 1.403 . S
C2743 C2744 1.524 . S
C2743 C2747 1.400 . S
C2744 H2729 0.960 . S
C2744 H2730 0.960 . S
C2744 H2731 0.960 . S
C2744 C2743 1.524 . S
C2745 C2742 1.403 . S
C2745 C2746 1.392 . S
C2745 C2749 1.495 . S
C2746 C2745 1.392 . S
C2746 C2747 1.385 . S
C2746 C2748 1.478 . S
C2747 H2741 0.930 . S
C2747 C2743 1.400 . S
C2747 C2746 1.385 . S
C2748 C2746 1.478 . S
C2748 C2750 1.381 . S
C2748 C2754 1.383 . S
C2749 C2745 1.495 . S
C2749 H2755 0.959 . S
C2749 H2756 0.961 . S
C2749 H2757 0.960 . S
C2750 C2748 1.381 . S
C2750 C2751 1.394 . S
C2750 H2758 0.930 . S
C2751 C2750 1.394 . S
C2751 C2752 1.383 . S
C2751 H2759 0.929 . S
C2752 C2751 1.383 . S
C2752 C2753 1.377 . S
C2753 H2737 0.930 . S
C2753 C2752 1.377 . S
C2753 C2754 1.379 . S
C2754 H2738 0.931 . S
C2754 C2748 1.383 . S
C2754 C2753 1.379 . S
H2755 C2749 0.959 . S
H2756 C2749 0.961 . S
H2757 C2749 0.960 . S
H2758 C2750 0.930 . S
H2759 C2751 0.929 . S
H2760 C2768 0.929 . S
H2761 C2770 0.930 . S
H2762 C2772 0.930 . S
H2763 C2775 0.929 . S
H2764 C2778 0.930 . S
H2765 C2780 0.960 . S
H2766 C2780 0.960 . S
H2767 C2780 0.960 . S
C2768 H2760 0.929 . S
C2768 C2769 1.377 . S
C2768 C2770 1.384 . S
C2769 C2768 1.377 . S
C2769 C2775 1.390 . S
C2770 H2761 0.930 . S
C2770 C2768 1.384 . S
C2770 C2771 1.372 . S
C2771 C2770 1.372 . S
C2771 C2772 1.400 . S
C2771 C2776 1.490 . S
C2772 H2762 0.930 . S
C2772 C2771 1.400 . S
C2772 C2775 1.386 . S
H2773 C2789 0.930 . S
H2774 C2790 0.931 . S
C2775 H2763 0.929 . S
C2775 C2769 1.390 . S
C2775 C2772 1.386 . S
C2776 C2771 1.490 . S
C2776 C2778 1.395 . S
C2776 C2779 1.403 . S
H2777 C2783 0.930 . S
C2778 H2764 0.930 . S
C2778 C2776 1.395 . S
C2778 C2781 1.403 . S
C2779 C2776 1.403 . S
C2779 C2780 1.524 . S
C2779 C2783 1.400 . S
C2780 H2765 0.960 . S
C2780 H2766 0.960 . S
C2780 H2767 0.960 . S
C2780 C2779 1.524 . S
C2781 C2778 1.403 . S
C2781 C2782 1.392 . S
C2781 C2785 1.495 . S
C2782 C2781 1.392 . S
C2782 C2783 1.385 . S
C2782 C2784 1.478 . S
C2783 H2777 0.930 . S
C2783 C2779 1.400 . S
C2783 C2782 1.385 . S
C2784 C2782 1.478 . S
C2784 C2786 1.381 . S
C2784 C2790 1.383 . S
C2785 C2781 1.495 . S
C2785 H2791 0.959 . S
C2785 H2792 0.961 . S
C2785 H2793 0.960 . S
C2786 C2784 1.381 . S
C2786 C2787 1.394 . S
C2786 H2794 0.930 . S
C2787 C2786 1.394 . S
C2787 C2788 1.383 . S
C2787 H2795 0.929 . S
C2788 C2787 1.383 . S
C2788 C2789 1.377 . S
C2789 H2773 0.930 . S
C2789 C2788 1.377 . S
C2789 C2790 1.379 . S
C2790 H2774 0.931 . S
C2790 C2784 1.383 . S
C2790 C2789 1.379 . S
H2791 C2785 0.959 . S
H2792 C2785 0.961 . S
H2793 C2785 0.960 . S
H2794 C2786 0.930 . S
H2795 C2787 0.929 . S
H2796 C2804 0.929 . S
H2797 C2806 0.930 . S
H2798 C2808 0.930 . S
H2799 C2811 0.929 . S
H2800 C2814 0.930 . S
H2801 C2816 0.960 . S
H2802 C2816 0.960 . S
H2803 C2816 0.960 . S
C2804 H2796 0.929 . S
C2804 C2805 1.377 . S
C2804 C2806 1.384 . S
C2805 C2804 1.377 . S
C2805 C2811 1.390 . S
C2806 H2797 0.930 . S
C2806 C2804 1.384 . S
C2806 C2807 1.372 . S
C2807 C2806 1.372 . S
C2807 C2808 1.400 . S
C2807 C2812 1.490 . S
C2808 H2798 0.930 . S
C2808 C2807 1.400 . S
C2808 C2811 1.386 . S
H2809 C2825 0.930 . S
H2810 C2826 0.931 . S
C2811 H2799 0.929 . S
C2811 C2805 1.390 . S
C2811 C2808 1.386 . S
C2812 C2807 1.490 . S
C2812 C2814 1.395 . S
C2812 C2815 1.403 . S
H2813 C2819 0.930 . S
C2814 H2800 0.930 . S
C2814 C2812 1.395 . S
C2814 C2817 1.403 . S
C2815 C2812 1.403 . S
C2815 C2816 1.524 . S
C2815 C2819 1.400 . S
C2816 H2801 0.960 . S
C2816 H2802 0.960 . S
C2816 H2803 0.960 . S
C2816 C2815 1.524 . S
C2817 C2814 1.403 . S
C2817 C2818 1.392 . S
C2817 C2821 1.495 . S
C2818 C2817 1.392 . S
C2818 C2819 1.385 . S
C2818 C2820 1.478 . S
C2819 H2813 0.930 . S
C2819 C2815 1.400 . S
C2819 C2818 1.385 . S
C2820 C2818 1.478 . S
C2820 C2822 1.381 . S
C2820 C2826 1.383 . S
C2821 C2817 1.495 . S
C2821 H2827 0.959 . S
C2821 H2828 0.961 . S
C2821 H2829 0.960 . S
C2822 C2820 1.381 . S
C2822 C2823 1.394 . S
C2822 H2830 0.930 . S
C2823 C2822 1.394 . S
C2823 C2824 1.383 . S
C2823 H2831 0.929 . S
C2824 C2823 1.383 . S
C2824 C2825 1.377 . S
C2825 H2809 0.930 . S
C2825 C2824 1.377 . S
C2825 C2826 1.379 . S
C2826 H2810 0.931 . S
C2826 C2820 1.383 . S
C2826 C2825 1.379 . S
H2827 C2821 0.959 . S
H2828 C2821 0.961 . S
H2829 C2821 0.960 . S
H2830 C2822 0.930 . S
H2831 C2823 0.929 . S
H2832 C2840 0.929 . S
H2833 C2842 0.930 . S
H2834 C2844 0.930 . S
H2835 C2847 0.929 . S
H2836 C2850 0.930 . S
H2837 C2852 0.960 . S
H2838 C2852 0.960 . S
H2839 C2852 0.960 . S
C2840 H2832 0.929 . S
C2840 C2841 1.377 . S
C2840 C2842 1.384 . S
C2841 C2840 1.377 . S
C2841 C2847 1.390 . S
C2842 H2833 0.930 . S
C2842 C2840 1.384 . S
C2842 C2843 1.372 . S
C2843 C2842 1.372 . S
C2843 C2844 1.400 . S
C2843 C2848 1.490 . S
C2844 H2834 0.930 . S
C2844 C2843 1.400 . S
C2844 C2847 1.386 . S
H2845 C2861 0.930 . S
H2846 C2862 0.931 . S
C2847 H2835 0.929 . S
C2847 C2841 1.390 . S
C2847 C2844 1.386 . S
C2848 C2843 1.490 . S
C2848 C2850 1.395 . S
C2848 C2851 1.403 . S
H2849 C2855 0.930 . S
C2850 H2836 0.930 . S
C2850 C2848 1.395 . S
C2850 C2853 1.403 . S
C2851 C2848 1.403 . S
C2851 C2852 1.524 . S
C2851 C2855 1.400 . S
C2852 H2837 0.960 . S
C2852 H2838 0.960 . S
C2852 H2839 0.960 . S
C2852 C2851 1.524 . S
C2853 C2850 1.403 . S
C2853 C2854 1.392 . S
C2853 C2857 1.495 . S
C2854 C2853 1.392 . S
C2854 C2855 1.385 . S
C2854 C2856 1.478 . S
C2855 H2849 0.930 . S
C2855 C2851 1.400 . S
C2855 C2854 1.385 . S
C2856 C2854 1.478 . S
C2856 C2858 1.381 . S
C2856 C2862 1.383 . S
C2857 C2853 1.495 . S
C2857 H2863 0.959 . S
C2857 H2864 0.961 . S
C2857 H2865 0.960 . S
C2858 C2856 1.381 . S
C2858 C2859 1.394 . S
C2858 H2866 0.930 . S
C2859 C2858 1.394 . S
C2859 C2860 1.383 . S
C2859 H2867 0.929 . S
C2860 C2859 1.383 . S
C2860 C2861 1.377 . S
C2861 H2845 0.930 . S
C2861 C2860 1.377 . S
C2861 C2862 1.379 . S
C2862 H2846 0.931 . S
C2862 C2856 1.383 . S
C2862 C2861 1.379 . S
H2863 C2857 0.959 . S
H2864 C2857 0.961 . S
H2865 C2857 0.960 . S
H2866 C2858 0.930 . S
H2867 C2859 0.929 . S
H2868 C2876 0.929 . S
H2869 C2878 0.930 . S
H2870 C2880 0.930 . S
H2871 C2883 0.929 . S
H2872 C2886 0.930 . S
H2873 C2888 0.960 . S
H2874 C2888 0.960 . S
H2875 C2888 0.960 . S
C2876 H2868 0.929 . S
C2876 C2877 1.377 . S
C2876 C2878 1.384 . S
C2877 C2876 1.377 . S
C2877 C2883 1.390 . S
C2878 H2869 0.930 . S
C2878 C2876 1.384 . S
C2878 C2879 1.372 . S
C2879 C2878 1.372 . S
C2879 C2880 1.400 . S
C2879 C2884 1.490 . S
C2880 H2870 0.930 . S
C2880 C2879 1.400 . S
C2880 C2883 1.386 . S
H2881 C2897 0.930 . S
H2882 C2898 0.931 . S
C2883 H2871 0.929 . S
C2883 C2877 1.390 . S
C2883 C2880 1.386 . S
C2884 C2879 1.490 . S
C2884 C2886 1.395 . S
C2884 C2887 1.403 . S
H2885 C2891 0.930 . S
C2886 H2872 0.930 . S
C2886 C2884 1.395 . S
C2886 C2889 1.403 . S
C2887 C2884 1.403 . S
C2887 C2888 1.524 . S
C2887 C2891 1.400 . S
C2888 H2873 0.960 . S
C2888 H2874 0.960 . S
C2888 H2875 0.960 . S
C2888 C2887 1.524 . S
C2889 C2886 1.403 . S
C2889 C2890 1.392 . S
C2889 C2893 1.495 . S
C2890 C2889 1.392 . S
C2890 C2891 1.385 . S
C2890 C2892 1.478 . S
C2891 H2885 0.930 . S
C2891 C2887 1.400 . S
C2891 C2890 1.385 . S
C2892 C2890 1.478 . S
C2892 C2894 1.381 . S
C2892 C2898 1.383 . S
C2893 C2889 1.495 . S
C2893 H2899 0.959 . S
C2893 H2900 0.961 . S
C2893 H2901 0.960 . S
C2894 C2892 1.381 . S
C2894 C2895 1.394 . S
C2894 H2902 0.930 . S
C2895 C2894 1.394 . S
C2895 C2896 1.383 . S
C2895 H2903 0.929 . S
C2896 C2895 1.383 . S
C2896 C2897 1.377 . S
C2897 H2881 0.930 . S
C2897 C2896 1.377 . S
C2897 C2898 1.379 . S
C2898 H2882 0.931 . S
C2898 C2892 1.383 . S
C2898 C2897 1.379 . S
H2899 C2893 0.959 . S
H2900 C2893 0.961 . S
H2901 C2893 0.960 . S
H2902 C2894 0.930 . S
H2903 C2895 0.929 . S
H2904 C2912 0.929 . S
H2905 C2914 0.930 . S
H2906 C2916 0.930 . S
H2907 C2919 0.929 . S
H2908 C2922 0.930 . S
H2909 C2924 0.960 . S
H2910 C2924 0.960 . S
H2911 C2924 0.960 . S
C2912 H2904 0.929 . S
C2912 C2913 1.377 . S
C2912 C2914 1.384 . S
C2913 C2912 1.377 . S
C2913 C2919 1.390 . S
C2914 H2905 0.930 . S
C2914 C2912 1.384 . S
C2914 C2915 1.372 . S
C2915 C2914 1.372 . S
C2915 C2916 1.400 . S
C2915 C2920 1.490 . S
C2916 H2906 0.930 . S
C2916 C2915 1.400 . S
C2916 C2919 1.386 . S
H2917 C2933 0.930 . S
H2918 C2934 0.931 . S
C2919 H2907 0.929 . S
C2919 C2913 1.390 . S
C2919 C2916 1.386 . S
C2920 C2915 1.490 . S
C2920 C2922 1.395 . S
C2920 C2923 1.403 . S
H2921 C2927 0.930 . S
C2922 H2908 0.930 . S
C2922 C2920 1.395 . S
C2922 C2925 1.403 . S
C2923 C2920 1.403 . S
C2923 C2924 1.524 . S
C2923 C2927 1.400 . S
C2924 H2909 0.960 . S
C2924 H2910 0.960 . S
C2924 H2911 0.960 . S
C2924 C2923 1.524 . S
C2925 C2922 1.403 . S
C2925 C2926 1.392 . S
C2925 C2929 1.495 . S
C2926 C2925 1.392 . S
C2926 C2927 1.385 . S
C2926 C2928 1.478 . S
C2927 H2921 0.930 . S
C2927 C2923 1.400 . S
C2927 C2926 1.385 . S
C2928 C2926 1.478 . S
C2928 C2930 1.381 . S
C2928 C2934 1.383 . S
C2929 C2925 1.495 . S
C2929 H2935 0.959 . S
C2929 H2936 0.961 . S
C2929 H2937 0.960 . S
C2930 C2928 1.381 . S
C2930 C2931 1.394 . S
C2930 H2938 0.930 . S
C2931 C2930 1.394 . S
C2931 C2932 1.383 . S
C2931 H2939 0.929 . S
C2932 C2931 1.383 . S
C2932 C2933 1.377 . S
C2933 H2917 0.930 . S
C2933 C2932 1.377 . S
C2933 C2934 1.379 . S
C2934 H2918 0.931 . S
C2934 C2928 1.383 . S
C2934 C2933 1.379 . S
H2935 C2929 0.959 . S
H2936 C2929 0.961 . S
H2937 C2929 0.960 . S
H2938 C2930 0.930 . S
H2939 C2931 0.929 . S
H2940 C2948 0.929 . S
H2941 C2950 0.930 . S
H2942 C2952 0.930 . S
H2943 C2955 0.929 . S
H2944 C2958 0.930 . S
H2945 C2960 0.960 . S
H2946 C2960 0.960 . S
H2947 C2960 0.960 . S
C2948 H2940 0.929 . S
C2948 C2949 1.377 . S
C2948 C2950 1.384 . S
C2949 C2948 1.377 . S
C2949 C2955 1.390 . S
C2950 H2941 0.930 . S
C2950 C2948 1.384 . S
C2950 C2951 1.372 . S
C2951 C2950 1.372 . S
C2951 C2952 1.400 . S
C2951 C2956 1.490 . S
C2952 H2942 0.930 . S
C2952 C2951 1.400 . S
C2952 C2955 1.386 . S
H2953 C2969 0.930 . S
H2954 C2970 0.931 . S
C2955 H2943 0.929 . S
C2955 C2949 1.390 . S
C2955 C2952 1.386 . S
C2956 C2951 1.490 . S
C2956 C2958 1.395 . S
C2956 C2959 1.403 . S
H2957 C2963 0.930 . S
C2958 H2944 0.930 . S
C2958 C2956 1.395 . S
C2958 C2961 1.403 . S
C2959 C2956 1.403 . S
C2959 C2960 1.524 . S
C2959 C2963 1.400 . S
C2960 H2945 0.960 . S
C2960 H2946 0.960 . S
C2960 H2947 0.960 . S
C2960 C2959 1.524 . S
C2961 C2958 1.403 . S
C2961 C2962 1.392 . S
C2961 C2965 1.495 . S
C2962 C2961 1.392 . S
C2962 C2963 1.385 . S
C2962 C2964 1.478 . S
C2963 H2957 0.930 . S
C2963 C2959 1.400 . S
C2963 C2962 1.385 . S
C2964 C2962 1.478 . S
C2964 C2966 1.381 . S
C2964 C2970 1.383 . S
C2965 C2961 1.495 . S
C2965 H2971 0.959 . S
C2965 H2972 0.961 . S
C2965 H2973 0.960 . S
C2966 C2964 1.381 . S
C2966 C2967 1.394 . S
C2966 H2974 0.930 . S
C2967 C2966 1.394 . S
C2967 C2968 1.383 . S
C2967 H2975 0.929 . S
C2968 C2967 1.383 . S
C2968 C2969 1.377 . S
C2969 H2953 0.930 . S
C2969 C2968 1.377 . S
C2969 C2970 1.379 . S
C2970 H2954 0.931 . S
C2970 C2964 1.383 . S
C2970 C2969 1.379 . S
H2971 C2965 0.959 . S
H2972 C2965 0.961 . S
H2973 C2965 0.960 . S
H2974 C2966 0.930 . S
H2975 C2967 0.929 . S
H2976 C2984 0.929 . S
H2977 C2986 0.930 . S
H2978 C2988 0.930 1_554 S
H2979 C2991 0.929 . S
H2980 C2994 0.930 . S
H2981 C2996 0.960 . S
H2982 C2996 0.960 . S
H2983 C2996 0.960 1_554 S
C2984 H2976 0.929 . S
C2984 C2985 1.377 . S
C2984 C2986 1.384 . S
C2985 C2984 1.377 . S
C2985 C2991 1.390 1_556 S
C2986 H2977 0.930 . S
C2986 C2984 1.384 . S
C2986 C2987 1.372 . S
C2987 C2986 1.372 . S
C2987 C2988 1.400 . S
C2987 C2992 1.490 . S
C2988 H2978 0.930 1_556 S
C2988 C2987 1.400 . S
C2988 C2991 1.386 1_556 S
H2989 C3005 0.930 . S
H2990 C3006 0.931 . S
C2991 H2979 0.929 . S
C2991 C2985 1.390 1_554 S
C2991 C2988 1.386 1_554 S
C2992 C2987 1.490 . S
C2992 C2994 1.395 . S
C2992 C2995 1.403 . S
H2993 C2999 0.930 . S
C2994 H2980 0.930 . S
C2994 C2992 1.395 . S
C2994 C2997 1.403 . S
C2995 C2992 1.403 . S
C2995 C2996 1.524 . S
C2995 C2999 1.400 . S
C2996 H2981 0.960 . S
C2996 H2982 0.960 . S
C2996 H2983 0.960 1_556 S
C2996 C2995 1.524 . S
C2997 C2994 1.403 . S
C2997 C2998 1.392 . S
C2997 C3001 1.495 . S
C2998 C2997 1.392 . S
C2998 C2999 1.385 . S
C2998 C3000 1.478 . S
C2999 H2993 0.930 . S
C2999 C2995 1.400 . S
C2999 C2998 1.385 . S
C3000 C2998 1.478 . S
C3000 C3002 1.381 . S
C3000 C3006 1.383 . S
C3001 C2997 1.495 . S
C3001 H3007 0.959 . S
C3001 H3008 0.961 . S
C3001 H3009 0.960 . S
C3002 C3000 1.381 . S
C3002 C3003 1.394 . S
C3002 H3010 0.930 . S
C3003 C3002 1.394 . S
C3003 C3004 1.383 . S
C3003 H3011 0.929 . S
C3004 C3003 1.383 . S
C3004 C3005 1.377 . S
C3005 H2989 0.930 . S
C3005 C3004 1.377 . S
C3005 C3006 1.379 . S
C3006 H2990 0.931 . S
C3006 C3000 1.383 . S
C3006 C3005 1.379 . S
H3007 C3001 0.959 . S
H3008 C3001 0.961 . S
H3009 C3001 0.960 . S
H3010 C3002 0.930 . S
H3011 C3003 0.929 . S
H3012 C3020 0.929 . S
H3013 C3022 0.930 . S
H3014 C3024 0.930 . S
H3015 C3027 0.929 . S
H3016 C3030 0.930 . S
H3017 C3032 0.960 . S
H3018 C3032 0.960 . S
H3019 C3032 0.960 . S
C3020 H3012 0.929 . S
C3020 C3021 1.377 . S
C3020 C3022 1.384 . S
C3021 C3020 1.377 . S
C3021 C3027 1.390 1_556 S
C3022 H3013 0.930 . S
C3022 C3020 1.384 . S
C3022 C3023 1.372 1_556 S
C3023 C3022 1.372 1_554 S
C3023 C3024 1.400 . S
C3023 C3028 1.490 . S
C3024 H3014 0.930 . S
C3024 C3023 1.400 . S
C3024 C3027 1.386 . S
H3025 C3041 0.930 . S
H3026 C3042 0.931 . S
C3027 H3015 0.929 . S
C3027 C3021 1.390 1_554 S
C3027 C3024 1.386 . S
C3028 C3023 1.490 . S
C3028 C3030 1.395 . S
C3028 C3031 1.403 . S
H3029 C3035 0.930 . S
C3030 H3016 0.930 . S
C3030 C3028 1.395 . S
C3030 C3033 1.403 . S
C3031 C3028 1.403 . S
C3031 C3032 1.524 . S
C3031 C3035 1.400 . S
C3032 H3017 0.960 . S
C3032 H3018 0.960 . S
C3032 H3019 0.960 . S
C3032 C3031 1.524 . S
C3033 C3030 1.403 . S
C3033 C3034 1.392 . S
C3033 C3037 1.495 . S
C3034 C3033 1.392 . S
C3034 C3035 1.385 . S
C3034 C3036 1.478 . S
C3035 H3029 0.930 . S
C3035 C3031 1.400 . S
C3035 C3034 1.385 . S
C3036 C3034 1.478 . S
C3036 C3038 1.381 . S
C3036 C3042 1.383 . S
C3037 C3033 1.495 . S
C3037 H3043 0.959 . S
C3037 H3044 0.961 . S
C3037 H3045 0.960 . S
C3038 C3036 1.381 . S
C3038 C3039 1.394 . S
C3038 H3046 0.930 . S
C3039 C3038 1.394 . S
C3039 C3040 1.383 . S
C3039 H3047 0.929 . S
C3040 C3039 1.383 . S
C3040 C3041 1.377 . S
C3041 H3025 0.930 . S
C3041 C3040 1.377 . S
C3041 C3042 1.379 . S
C3042 H3026 0.931 . S
C3042 C3036 1.383 . S
C3042 C3041 1.379 . S
H3043 C3037 0.959 . S
H3044 C3037 0.961 . S
H3045 C3037 0.960 . S
H3046 C3038 0.930 . S
H3047 C3039 0.929 . S
H3048 C3056 0.929 . S
H3049 C3058 0.930 . S
H3050 C3060 0.930 . S
H3051 C3063 0.929 . S
H3052 C3066 0.930 . S
H3053 C3068 0.960 . S
H3054 C3068 0.960 . S
H3055 C3068 0.960 . S
C3056 H3048 0.929 . S
C3056 C3057 1.377 . S
C3056 C3058 1.384 . S
C3057 C3056 1.377 . S
C3057 C3063 1.390 . S
C3058 H3049 0.930 . S
C3058 C3056 1.384 . S
C3058 C3059 1.372 . S
C3059 C3058 1.372 . S
C3059 C3060 1.400 . S
C3059 C3064 1.490 . S
C3060 H3050 0.930 . S
C3060 C3059 1.400 . S
C3060 C3063 1.386 . S
H3061 C3077 0.930 . S
H3062 C3078 0.931 . S
C3063 H3051 0.929 . S
C3063 C3057 1.390 . S
C3063 C3060 1.386 . S
C3064 C3059 1.490 . S
C3064 C3066 1.395 . S
C3064 C3067 1.403 . S
H3065 C3071 0.930 . S
C3066 H3052 0.930 . S
C3066 C3064 1.395 . S
C3066 C3069 1.403 . S
C3067 C3064 1.403 . S
C3067 C3068 1.524 . S
C3067 C3071 1.400 . S
C3068 H3053 0.960 . S
C3068 H3054 0.960 . S
C3068 H3055 0.960 . S
C3068 C3067 1.524 . S
C3069 C3066 1.403 . S
C3069 C3070 1.392 . S
C3069 C3073 1.495 . S
C3070 C3069 1.392 . S
C3070 C3071 1.385 . S
C3070 C3072 1.478 . S
C3071 H3065 0.930 . S
C3071 C3067 1.400 . S
C3071 C3070 1.385 . S
C3072 C3070 1.478 . S
C3072 C3074 1.381 . S
C3072 C3078 1.383 . S
C3073 C3069 1.495 . S
C3073 H3079 0.959 . S
C3073 H3080 0.961 . S
C3073 H3081 0.960 . S
C3074 C3072 1.381 . S
C3074 C3075 1.394 . S
C3074 H3082 0.930 . S
C3075 C3074 1.394 . S
C3075 C3076 1.383 . S
C3075 H3083 0.929 . S
C3076 C3075 1.383 . S
C3076 C3077 1.377 . S
C3077 H3061 0.930 . S
C3077 C3076 1.377 . S
C3077 C3078 1.379 . S
C3078 H3062 0.931 . S
C3078 C3072 1.383 . S
C3078 C3077 1.379 . S
H3079 C3073 0.959 . S
H3080 C3073 0.961 . S
H3081 C3073 0.960 . S
H3082 C3074 0.930 . S
H3083 C3075 0.929 . S
H3084 C3092 0.929 . S
H3085 C3094 0.930 . S
H3086 C3096 0.930 . S
H3087 C3099 0.929 . S
H3088 C3102 0.930 . S
H3089 C3104 0.960 . S
H3090 C3104 0.960 . S
H3091 C3104 0.960 . S
C3092 H3084 0.929 . S
C3092 C3093 1.377 . S
C3092 C3094 1.384 . S
C3093 C3092 1.377 . S
C3093 C3099 1.390 . S
C3094 H3085 0.930 . S
C3094 C3092 1.384 . S
C3094 C3095 1.372 . S
C3095 C3094 1.372 . S
C3095 C3096 1.400 . S
C3095 C3100 1.490 . S
C3096 H3086 0.930 . S
C3096 C3095 1.400 . S
C3096 C3099 1.386 . S
H3097 C3113 0.930 . S
H3098 C3114 0.931 . S
C3099 H3087 0.929 . S
C3099 C3093 1.390 . S
C3099 C3096 1.386 . S
C3100 C3095 1.490 . S
C3100 C3102 1.395 . S
C3100 C3103 1.403 . S
H3101 C3107 0.930 . S
C3102 H3088 0.930 . S
C3102 C3100 1.395 . S
C3102 C3105 1.403 . S
C3103 C3100 1.403 . S
C3103 C3104 1.524 . S
C3103 C3107 1.400 . S
C3104 H3089 0.960 . S
C3104 H3090 0.960 . S
C3104 H3091 0.960 . S
C3104 C3103 1.524 . S
C3105 C3102 1.403 . S
C3105 C3106 1.392 . S
C3105 C3109 1.495 . S
C3106 C3105 1.392 . S
C3106 C3107 1.385 . S
C3106 C3108 1.478 . S
C3107 H3101 0.930 . S
C3107 C3103 1.400 . S
C3107 C3106 1.385 . S
C3108 C3106 1.478 . S
C3108 C3110 1.381 . S
C3108 C3114 1.383 . S
C3109 C3105 1.495 . S
C3109 H3115 0.959 . S
C3109 H3116 0.961 . S
C3109 H3117 0.960 . S
C3110 C3108 1.381 . S
C3110 C3111 1.394 . S
C3110 H3118 0.930 . S
C3111 C3110 1.394 . S
C3111 C3112 1.383 . S
C3111 H3119 0.929 . S
C3112 C3111 1.383 . S
C3112 C3113 1.377 . S
C3113 H3097 0.930 . S
C3113 C3112 1.377 . S
C3113 C3114 1.379 . S
C3114 H3098 0.931 . S
C3114 C3108 1.383 . S
C3114 C3113 1.379 . S
H3115 C3109 0.959 . S
H3116 C3109 0.961 . S
H3117 C3109 0.960 . S
H3118 C3110 0.930 . S
H3119 C3111 0.929 . S
H3120 C3128 0.929 . S
H3121 C3130 0.930 . S
H3122 C3132 0.930 . S
H3123 C3135 0.929 . S
H3124 C3138 0.930 . S
H3125 C3140 0.960 . S
H3126 C3140 0.960 . S
H3127 C3140 0.960 . S
C3128 H3120 0.929 . S
C3128 C3129 1.377 . S
C3128 C3130 1.384 . S
C3129 C3128 1.377 . S
C3129 C3135 1.390 . S
C3130 H3121 0.930 . S
C3130 C3128 1.384 . S
C3130 C3131 1.372 . S
C3131 C3130 1.372 . S
C3131 C3132 1.400 . S
C3131 C3136 1.490 . S
C3132 H3122 0.930 . S
C3132 C3131 1.400 . S
C3132 C3135 1.386 . S
H3133 C3149 0.930 . S
H3134 C3150 0.931 . S
C3135 H3123 0.929 . S
C3135 C3129 1.390 . S
C3135 C3132 1.386 . S
C3136 C3131 1.490 . S
C3136 C3138 1.395 . S
C3136 C3139 1.403 . S
H3137 C3143 0.930 . S
C3138 H3124 0.930 . S
C3138 C3136 1.395 . S
C3138 C3141 1.403 . S
C3139 C3136 1.403 . S
C3139 C3140 1.524 . S
C3139 C3143 1.400 . S
C3140 H3125 0.960 . S
C3140 H3126 0.960 . S
C3140 H3127 0.960 . S
C3140 C3139 1.524 . S
C3141 C3138 1.403 . S
C3141 C3142 1.392 . S
C3141 C3145 1.495 . S
C3142 C3141 1.392 . S
C3142 C3143 1.385 . S
C3142 C3144 1.478 . S
C3143 H3137 0.930 . S
C3143 C3139 1.400 . S
C3143 C3142 1.385 . S
C3144 C3142 1.478 . S
C3144 C3146 1.381 . S
C3144 C3150 1.383 . S
C3145 C3141 1.495 . S
C3145 H3151 0.959 . S
C3145 H3152 0.961 . S
C3145 H3153 0.960 . S
C3146 C3144 1.381 . S
C3146 C3147 1.394 . S
C3146 H3154 0.930 . S
C3147 C3146 1.394 . S
C3147 C3148 1.383 . S
C3147 H3155 0.929 . S
C3148 C3147 1.383 . S
C3148 C3149 1.377 . S
C3149 H3133 0.930 . S
C3149 C3148 1.377 . S
C3149 C3150 1.379 . S
C3150 H3134 0.931 . S
C3150 C3144 1.383 . S
C3150 C3149 1.379 . S
H3151 C3145 0.959 . S
H3152 C3145 0.961 . S
H3153 C3145 0.960 . S
H3154 C3146 0.930 . S
H3155 C3147 0.929 . S
H3156 C3164 0.929 . S
H3157 C3166 0.930 . S
H3158 C3168 0.930 . S
H3159 C3171 0.929 . S
H3160 C3174 0.930 . S
H3161 C3176 0.960 . S
H3162 C3176 0.960 . S
H3163 C3176 0.960 . S
C3164 H3156 0.929 . S
C3164 C3165 1.377 . S
C3164 C3166 1.384 . S
C3165 C3164 1.377 . S
C3165 C3171 1.390 . S
C3166 H3157 0.930 . S
C3166 C3164 1.384 . S
C3166 C3167 1.372 . S
C3167 C3166 1.372 . S
C3167 C3168 1.400 . S
C3167 C3172 1.490 . S
C3168 H3158 0.930 . S
C3168 C3167 1.400 . S
C3168 C3171 1.386 . S
H3169 C3185 0.930 . S
H3170 C3186 0.931 . S
C3171 H3159 0.929 . S
C3171 C3165 1.390 . S
C3171 C3168 1.386 . S
C3172 C3167 1.490 . S
C3172 C3174 1.395 . S
C3172 C3175 1.403 . S
H3173 C3179 0.930 . S
C3174 H3160 0.930 . S
C3174 C3172 1.395 . S
C3174 C3177 1.403 . S
C3175 C3172 1.403 . S
C3175 C3176 1.524 . S
C3175 C3179 1.400 . S
C3176 H3161 0.960 . S
C3176 H3162 0.960 . S
C3176 H3163 0.960 . S
C3176 C3175 1.524 . S
C3177 C3174 1.403 . S
C3177 C3178 1.392 . S
C3177 C3181 1.495 . S
C3178 C3177 1.392 . S
C3178 C3179 1.385 . S
C3178 C3180 1.478 . S
C3179 H3173 0.930 . S
C3179 C3175 1.400 . S
C3179 C3178 1.385 . S
C3180 C3178 1.478 . S
C3180 C3182 1.381 . S
C3180 C3186 1.383 . S
C3181 C3177 1.495 . S
C3181 H3187 0.959 . S
C3181 H3188 0.961 . S
C3181 H3189 0.960 . S
C3182 C3180 1.381 . S
C3182 C3183 1.394 . S
C3182 H3190 0.930 . S
C3183 C3182 1.394 . S
C3183 C3184 1.383 . S
C3183 H3191 0.929 . S
C3184 C3183 1.383 . S
C3184 C3185 1.377 . S
C3185 H3169 0.930 . S
C3185 C3184 1.377 . S
C3185 C3186 1.379 . S
C3186 H3170 0.931 . S
C3186 C3180 1.383 . S
C3186 C3185 1.379 . S
H3187 C3181 0.959 . S
H3188 C3181 0.961 . S
H3189 C3181 0.960 . S
H3190 C3182 0.930 . S
H3191 C3183 0.929 . S
H3192 C3200 0.929 . S
H3193 C3202 0.930 . S
H3194 C3204 0.930 . S
H3195 C3207 0.929 . S
H3196 C3210 0.930 . S
H3197 C3212 0.960 . S
H3198 C3212 0.960 . S
H3199 C3212 0.960 . S
C3200 H3192 0.929 . S
C3200 C3201 1.377 . S
C3200 C3202 1.384 . S
C3201 C3200 1.377 . S
C3201 C3207 1.390 . S
C3202 H3193 0.930 . S
C3202 C3200 1.384 . S
C3202 C3203 1.372 . S
C3203 C3202 1.372 . S
C3203 C3204 1.400 . S
C3203 C3208 1.490 . S
C3204 H3194 0.930 . S
C3204 C3203 1.400 . S
C3204 C3207 1.386 . S
H3205 C3221 0.930 . S
H3206 C3222 0.931 . S
C3207 H3195 0.929 . S
C3207 C3201 1.390 . S
C3207 C3204 1.386 . S
C3208 C3203 1.490 . S
C3208 C3210 1.395 . S
C3208 C3211 1.403 . S
H3209 C3215 0.930 . S
C3210 H3196 0.930 . S
C3210 C3208 1.395 . S
C3210 C3213 1.403 . S
C3211 C3208 1.403 . S
C3211 C3212 1.524 . S
C3211 C3215 1.400 . S
C3212 H3197 0.960 . S
C3212 H3198 0.960 . S
C3212 H3199 0.960 . S
C3212 C3211 1.524 . S
C3213 C3210 1.403 . S
C3213 C3214 1.392 . S
C3213 C3217 1.495 . S
C3214 C3213 1.392 . S
C3214 C3215 1.385 . S
C3214 C3216 1.478 . S
C3215 H3209 0.930 . S
C3215 C3211 1.400 . S
C3215 C3214 1.385 . S
C3216 C3214 1.478 . S
C3216 C3218 1.381 . S
C3216 C3222 1.383 . S
C3217 C3213 1.495 . S
C3217 H3223 0.959 . S
C3217 H3224 0.961 . S
C3217 H3225 0.960 . S
C3218 C3216 1.381 . S
C3218 C3219 1.394 . S
C3218 H3226 0.930 . S
C3219 C3218 1.394 . S
C3219 C3220 1.383 . S
C3219 H3227 0.929 . S
C3220 C3219 1.383 . S
C3220 C3221 1.377 . S
C3221 H3205 0.930 . S
C3221 C3220 1.377 . S
C3221 C3222 1.379 . S
C3222 H3206 0.931 . S
C3222 C3216 1.383 . S
C3222 C3221 1.379 . S
H3223 C3217 0.959 . S
H3224 C3217 0.961 . S
H3225 C3217 0.960 . S
H3226 C3218 0.930 . S
H3227 C3219 0.929 . S
H3228 C3236 0.929 . S
H3229 C3238 0.930 . S
H3230 C3240 0.930 . S
H3231 C3243 0.929 . S
H3232 C3246 0.930 . S
H3233 C3248 0.960 . S
H3234 C3248 0.960 . S
H3235 C3248 0.960 . S
C3236 H3228 0.929 . S
C3236 C3237 1.377 . S
C3236 C3238 1.384 . S
C3237 C3236 1.377 . S
C3237 C3243 1.390 . S
C3238 H3229 0.930 . S
C3238 C3236 1.384 . S
C3238 C3239 1.372 . S
C3239 C3238 1.372 . S
C3239 C3240 1.400 . S
C3239 C3244 1.490 . S
C3240 H3230 0.930 . S
C3240 C3239 1.400 . S
C3240 C3243 1.386 . S
H3241 C3257 0.930 . S
H3242 C3258 0.931 . S
C3243 H3231 0.929 . S
C3243 C3237 1.390 . S
C3243 C3240 1.386 . S
C3244 C3239 1.490 . S
C3244 C3246 1.395 . S
C3244 C3247 1.403 . S
H3245 C3251 0.930 . S
C3246 H3232 0.930 . S
C3246 C3244 1.395 . S
C3246 C3249 1.403 . S
C3247 C3244 1.403 . S
C3247 C3248 1.524 . S
C3247 C3251 1.400 . S
C3248 H3233 0.960 . S
C3248 H3234 0.960 . S
C3248 H3235 0.960 . S
C3248 C3247 1.524 . S
C3249 C3246 1.403 . S
C3249 C3250 1.392 . S
C3249 C3253 1.495 . S
C3250 C3249 1.392 . S
C3250 C3251 1.385 . S
C3250 C3252 1.478 . S
C3251 H3245 0.930 . S
C3251 C3247 1.400 . S
C3251 C3250 1.385 . S
C3252 C3250 1.478 . S
C3252 C3254 1.381 . S
C3252 C3258 1.383 . S
C3253 C3249 1.495 . S
C3253 H3259 0.959 . S
C3253 H3260 0.961 . S
C3253 H3261 0.960 . S
C3254 C3252 1.381 . S
C3254 C3255 1.394 . S
C3254 H3262 0.930 . S
C3255 C3254 1.394 . S
C3255 C3256 1.383 . S
C3255 H3263 0.929 . S
C3256 C3255 1.383 . S
C3256 C3257 1.377 . S
C3257 H3241 0.930 . S
C3257 C3256 1.377 . S
C3257 C3258 1.379 . S
C3258 H3242 0.931 . S
C3258 C3252 1.383 . S
C3258 C3257 1.379 . S
H3259 C3253 0.959 . S
H3260 C3253 0.961 . S
H3261 C3253 0.960 . S
H3262 C3254 0.930 . S
H3263 C3255 0.929 . S
H3264 C3272 0.929 . S
H3265 C3274 0.930 . S
H3266 C3276 0.930 . S
H3267 C3279 0.929 . S
H3268 C3282 0.930 . S
H3269 C3284 0.960 . S
H3270 C3284 0.960 . S
H3271 C3284 0.960 . S
C3272 H3264 0.929 . S
C3272 C3273 1.377 . S
C3272 C3274 1.384 . S
C3273 C3272 1.377 . S
C3273 C3279 1.390 . S
C3274 H3265 0.930 . S
C3274 C3272 1.384 . S
C3274 C3275 1.372 . S
C3275 C3274 1.372 . S
C3275 C3276 1.400 . S
C3275 C3280 1.490 . S
C3276 H3266 0.930 . S
C3276 C3275 1.400 . S
C3276 C3279 1.386 . S
H3277 C3293 0.930 . S
H3278 C3294 0.931 . S
C3279 H3267 0.929 . S
C3279 C3273 1.390 . S
C3279 C3276 1.386 . S
C3280 C3275 1.490 . S
C3280 C3282 1.395 . S
C3280 C3283 1.403 . S
H3281 C3287 0.930 . S
C3282 H3268 0.930 . S
C3282 C3280 1.395 . S
C3282 C3285 1.403 . S
C3283 C3280 1.403 . S
C3283 C3284 1.524 . S
C3283 C3287 1.400 . S
C3284 H3269 0.960 . S
C3284 H3270 0.960 . S
C3284 H3271 0.960 . S
C3284 C3283 1.524 . S
C3285 C3282 1.403 . S
C3285 C3286 1.392 . S
C3285 C3289 1.495 . S
C3286 C3285 1.392 . S
C3286 C3287 1.385 . S
C3286 C3288 1.478 . S
C3287 H3281 0.930 . S
C3287 C3283 1.400 . S
C3287 C3286 1.385 . S
C3288 C3286 1.478 . S
C3288 C3290 1.381 . S
C3288 C3294 1.383 . S
C3289 C3285 1.495 . S
C3289 H3295 0.959 . S
C3289 H3296 0.961 . S
C3289 H3297 0.960 . S
C3290 C3288 1.381 . S
C3290 C3291 1.394 . S
C3290 H3298 0.930 . S
C3291 C3290 1.394 . S
C3291 C3292 1.383 . S
C3291 H3299 0.929 . S
C3292 C3291 1.383 . S
C3292 C3293 1.377 . S
C3293 H3277 0.930 . S
C3293 C3292 1.377 . S
C3293 C3294 1.379 . S
C3294 H3278 0.931 . S
C3294 C3288 1.383 . S
C3294 C3293 1.379 . S
H3295 C3289 0.959 . S
H3296 C3289 0.961 . S
H3297 C3289 0.960 . S
H3298 C3290 0.930 . S
H3299 C3291 0.929 . S
H3300 C3308 0.929 . S
H3301 C3310 0.930 . S
H3302 C3312 0.930 . S
H3303 C3315 0.929 . S
H3304 C3318 0.930 . S
H3305 C3320 0.960 . S
H3306 C3320 0.960 . S
H3307 C3320 0.960 . S
C3308 H3300 0.929 . S
C3308 C3309 1.377 . S
C3308 C3310 1.384 . S
C3309 C3308 1.377 . S
C3309 C3315 1.390 . S
C3310 H3301 0.930 . S
C3310 C3308 1.384 . S
C3310 C3311 1.372 . S
C3311 C3310 1.372 . S
C3311 C3312 1.400 . S
C3311 C3316 1.490 . S
C3312 H3302 0.930 . S
C3312 C3311 1.400 . S
C3312 C3315 1.386 . S
H3313 C3329 0.930 . S
H3314 C3330 0.931 . S
C3315 H3303 0.929 . S
C3315 C3309 1.390 . S
C3315 C3312 1.386 . S
C3316 C3311 1.490 . S
C3316 C3318 1.395 . S
C3316 C3319 1.403 . S
H3317 C3323 0.930 . S
C3318 H3304 0.930 . S
C3318 C3316 1.395 . S
C3318 C3321 1.403 . S
C3319 C3316 1.403 . S
C3319 C3320 1.524 . S
C3319 C3323 1.400 . S
C3320 H3305 0.960 . S
C3320 H3306 0.960 . S
C3320 H3307 0.960 . S
C3320 C3319 1.524 . S
C3321 C3318 1.403 . S
C3321 C3322 1.392 . S
C3321 C3325 1.495 . S
C3322 C3321 1.392 . S
C3322 C3323 1.385 . S
C3322 C3324 1.478 . S
C3323 H3317 0.930 . S
C3323 C3319 1.400 . S
C3323 C3322 1.385 . S
C3324 C3322 1.478 . S
C3324 C3326 1.381 . S
C3324 C3330 1.383 . S
C3325 C3321 1.495 . S
C3325 H3331 0.959 . S
C3325 H3332 0.961 . S
C3325 H3333 0.960 . S
C3326 C3324 1.381 . S
C3326 C3327 1.394 . S
C3326 H3334 0.930 . S
C3327 C3326 1.394 . S
C3327 C3328 1.383 . S
C3327 H3335 0.929 . S
C3328 C3327 1.383 . S
C3328 C3329 1.377 . S
C3329 H3313 0.930 . S
C3329 C3328 1.377 . S
C3329 C3330 1.379 . S
C3330 H3314 0.931 . S
C3330 C3324 1.383 . S
C3330 C3329 1.379 . S
H3331 C3325 0.959 . S
H3332 C3325 0.961 . S
H3333 C3325 0.960 . S
H3334 C3326 0.930 . S
H3335 C3327 0.929 . S
H3336 C3344 0.929 . S
H3337 C3346 0.930 . S
H3338 C3348 0.930 . S
H3339 C3351 0.929 . S
H3340 C3354 0.930 . S
H3341 C3356 0.960 . S
H3342 C3356 0.960 . S
H3343 C3356 0.960 . S
C3344 H3336 0.929 . S
C3344 C3345 1.377 . S
C3344 C3346 1.384 . S
C3345 C3344 1.377 . S
C3345 C3351 1.390 . S
C3346 H3337 0.930 . S
C3346 C3344 1.384 . S
C3346 C3347 1.372 . S
C3347 C3346 1.372 . S
C3347 C3348 1.400 . S
C3347 C3352 1.490 . S
C3348 H3338 0.930 . S
C3348 C3347 1.400 . S
C3348 C3351 1.386 . S
H3349 C3365 0.930 . S
H3350 C3366 0.931 . S
C3351 H3339 0.929 . S
C3351 C3345 1.390 . S
C3351 C3348 1.386 . S
C3352 C3347 1.490 . S
C3352 C3354 1.395 . S
C3352 C3355 1.403 . S
H3353 C3359 0.930 . S
C3354 H3340 0.930 . S
C3354 C3352 1.395 . S
C3354 C3357 1.403 . S
C3355 C3352 1.403 . S
C3355 C3356 1.524 . S
C3355 C3359 1.400 . S
C3356 H3341 0.960 . S
C3356 H3342 0.960 . S
C3356 H3343 0.960 . S
C3356 C3355 1.524 . S
C3357 C3354 1.403 . S
C3357 C3358 1.392 . S
C3357 C3361 1.495 . S
C3358 C3357 1.392 . S
C3358 C3359 1.385 . S
C3358 C3360 1.478 . S
C3359 H3353 0.930 . S
C3359 C3355 1.400 . S
C3359 C3358 1.385 . S
C3360 C3358 1.478 . S
C3360 C3362 1.381 . S
C3360 C3366 1.383 . S
C3361 C3357 1.495 . S
C3361 H3367 0.959 . S
C3361 H3368 0.961 . S
C3361 H3369 0.960 . S
C3362 C3360 1.381 . S
C3362 C3363 1.394 . S
C3362 H3370 0.930 . S
C3363 C3362 1.394 . S
C3363 C3364 1.383 . S
C3363 H3371 0.929 . S
C3364 C3363 1.383 . S
C3364 C3365 1.377 . S
C3365 H3349 0.930 . S
C3365 C3364 1.377 . S
C3365 C3366 1.379 . S
C3366 H3350 0.931 . S
C3366 C3360 1.383 . S
C3366 C3365 1.379 . S
H3367 C3361 0.959 . S
H3368 C3361 0.961 . S
H3369 C3361 0.960 . S
H3370 C3362 0.930 . S
H3371 C3363 0.929 . S
H3372 C3380 0.929 . S
H3373 C3382 0.930 . S
H3374 C3384 0.930 . S
H3375 C3387 0.929 . S
H3376 C3390 0.930 . S
H3377 C3392 0.960 . S
H3378 C3392 0.960 . S
H3379 C3392 0.960 . S
C3380 H3372 0.929 . S
C3380 C3381 1.377 . S
C3380 C3382 1.384 . S
C3381 C3380 1.377 . S
C3381 C3387 1.390 . S
C3382 H3373 0.930 . S
C3382 C3380 1.384 . S
C3382 C3383 1.372 . S
C3383 C3382 1.372 . S
C3383 C3384 1.400 . S
C3383 C3388 1.490 . S
C3384 H3374 0.930 . S
C3384 C3383 1.400 . S
C3384 C3387 1.386 . S
H3385 C3401 0.930 . S
H3386 C3402 0.931 . S
C3387 H3375 0.929 . S
C3387 C3381 1.390 . S
C3387 C3384 1.386 . S
C3388 C3383 1.490 . S
C3388 C3390 1.395 . S
C3388 C3391 1.403 . S
H3389 C3395 0.930 . S
C3390 H3376 0.930 . S
C3390 C3388 1.395 . S
C3390 C3393 1.403 . S
C3391 C3388 1.403 . S
C3391 C3392 1.524 . S
C3391 C3395 1.400 . S
C3392 H3377 0.960 . S
C3392 H3378 0.960 . S
C3392 H3379 0.960 . S
C3392 C3391 1.524 . S
C3393 C3390 1.403 . S
C3393 C3394 1.392 . S
C3393 C3397 1.495 . S
C3394 C3393 1.392 . S
C3394 C3395 1.385 . S
C3394 C3396 1.478 . S
C3395 H3389 0.930 . S
C3395 C3391 1.400 . S
C3395 C3394 1.385 . S
C3396 C3394 1.478 . S
C3396 C3398 1.381 . S
C3396 C3402 1.383 . S
C3397 C3393 1.495 . S
C3397 H3403 0.959 . S
C3397 H3404 0.961 . S
C3397 H3405 0.960 . S
C3398 C3396 1.381 . S
C3398 C3399 1.394 . S
C3398 H3406 0.930 . S
C3399 C3398 1.394 . S
C3399 C3400 1.383 . S
C3399 H3407 0.929 . S
C3400 C3399 1.383 . S
C3400 C3401 1.377 . S
C3401 H3385 0.930 . S
C3401 C3400 1.377 . S
C3401 C3402 1.379 . S
C3402 H3386 0.931 . S
C3402 C3396 1.383 . S
C3402 C3401 1.379 . S
H3403 C3397 0.959 . S
H3404 C3397 0.961 . S
H3405 C3397 0.960 . S
H3406 C3398 0.930 . S
H3407 C3399 0.929 . S
H3408 C3416 0.929 1_556 S
H3409 C3418 0.930 . S
H3410 C3420 0.930 . S
H3411 C3423 0.929 . S
H3412 C3426 0.930 . S
H3413 C3428 0.960 . S
H3414 C3428 0.960 . S
H3415 C3428 0.960 . S
C3416 H3408 0.929 1_554 S
C3416 C3417 1.377 . S
C3416 C3418 1.384 . S
C3417 C3416 1.377 . S
C3417 C3423 1.390 . S
C3418 H3409 0.930 . S
C3418 C3416 1.384 . S
C3418 C3419 1.372 . S
C3419 C3418 1.372 . S
C3419 C3420 1.400 . S
C3419 C3424 1.490 . S
C3420 H3410 0.930 . S
C3420 C3419 1.400 . S
C3420 C3423 1.386 . S
H3421 C3437 0.930 . S
H3422 C3438 0.931 . S
C3423 H3411 0.929 . S
C3423 C3417 1.390 . S
C3423 C3420 1.386 . S
C3424 C3419 1.490 . S
C3424 C3426 1.395 . S
C3424 C3427 1.403 . S
H3425 C3431 0.930 . S
C3426 H3412 0.930 . S
C3426 C3424 1.395 . S
C3426 C3429 1.403 . S
C3427 C3424 1.403 . S
C3427 C3428 1.524 . S
C3427 C3431 1.400 . S
C3428 H3413 0.960 . S
C3428 H3414 0.960 . S
C3428 H3415 0.960 . S
C3428 C3427 1.524 . S
C3429 C3426 1.403 . S
C3429 C3430 1.392 . S
C3429 C3433 1.495 . S
C3430 C3429 1.392 . S
C3430 C3431 1.385 . S
C3430 C3432 1.478 . S
C3431 H3425 0.930 . S
C3431 C3427 1.400 . S
C3431 C3430 1.385 . S
C3432 C3430 1.478 . S
C3432 C3434 1.381 . S
C3432 C3438 1.383 . S
C3433 C3429 1.495 . S
C3433 H3439 0.959 . S
C3433 H3440 0.961 . S
C3433 H3441 0.960 . S
C3434 C3432 1.381 . S
C3434 C3435 1.394 . S
C3434 H3442 0.930 . S
C3435 C3434 1.394 . S
C3435 C3436 1.383 . S
C3435 H3443 0.929 . S
C3436 C3435 1.383 . S
C3436 C3437 1.377 . S
C3437 H3421 0.930 . S
C3437 C3436 1.377 . S
C3437 C3438 1.379 . S
C3438 H3422 0.931 . S
C3438 C3432 1.383 . S
C3438 C3437 1.379 . S
H3439 C3433 0.959 . S
H3440 C3433 0.961 . S
H3441 C3433 0.960 . S
H3442 C3434 0.930 . S
H3443 C3435 0.929 . S
H3444 C3452 0.929 . S
H3445 C3454 0.930 . S
H3446 C3456 0.930 . S
H3447 C3459 0.929 . S
H3448 C3462 0.930 . S
H3449 C3464 0.960 . S
H3450 C3464 0.960 . S
H3451 C3464 0.960 . S
C3452 H3444 0.929 . S
C3452 C3453 1.377 . S
C3452 C3454 1.384 . S
C3453 C3452 1.377 . S
C3453 C3459 1.390 . S
C3454 H3445 0.930 . S
C3454 C3452 1.384 . S
C3454 C3455 1.372 . S
C3455 C3454 1.372 . S
C3455 C3456 1.400 . S
C3455 C3460 1.490 . S
C3456 H3446 0.930 . S
C3456 C3455 1.400 . S
C3456 C3459 1.386 . S
H3457 C3473 0.930 . S
H3458 C3474 0.931 . S
C3459 H3447 0.929 . S
C3459 C3453 1.390 . S
C3459 C3456 1.386 . S
C3460 C3455 1.490 . S
C3460 C3462 1.395 . S
C3460 C3463 1.403 . S
H3461 C3467 0.930 . S
C3462 H3448 0.930 . S
C3462 C3460 1.395 . S
C3462 C3465 1.403 . S
C3463 C3460 1.403 . S
C3463 C3464 1.524 . S
C3463 C3467 1.400 . S
C3464 H3449 0.960 . S
C3464 H3450 0.960 . S
C3464 H3451 0.960 . S
C3464 C3463 1.524 . S
C3465 C3462 1.403 . S
C3465 C3466 1.392 . S
C3465 C3469 1.495 . S
C3466 C3465 1.392 . S
C3466 C3467 1.385 . S
C3466 C3468 1.478 . S
C3467 H3461 0.930 . S
C3467 C3463 1.400 . S
C3467 C3466 1.385 . S
C3468 C3466 1.478 . S
C3468 C3470 1.381 1_556 S
C3468 C3474 1.383 . S
C3469 C3465 1.495 . S
C3469 H3475 0.959 . S
C3469 H3476 0.961 . S
C3469 H3477 0.960 . S
C3470 C3468 1.381 1_554 S
C3470 C3471 1.394 . S
C3470 H3478 0.930 . S
C3471 C3470 1.394 . S
C3471 C3472 1.383 . S
C3471 H3479 0.929 . S
C3472 C3471 1.383 . S
C3472 C3473 1.377 1_554 S
C3473 H3457 0.930 . S
C3473 C3472 1.377 1_556 S
C3473 C3474 1.379 . S
C3474 H3458 0.931 . S
C3474 C3468 1.383 . S
C3474 C3473 1.379 . S
H3475 C3469 0.959 . S
H3476 C3469 0.961 . S
H3477 C3469 0.960 . S
H3478 C3470 0.930 . S
H3479 C3471 0.929 . S
H3480 C3488 0.929 . S
H3481 C3490 0.930 . S
H3482 C3492 0.930 . S
H3483 C3495 0.929 . S
H3484 C3498 0.930 . S
H3485 C3500 0.960 . S
H3486 C3500 0.960 . S
H3487 C3500 0.960 . S
C3488 H3480 0.929 . S
C3488 C3489 1.377 . S
C3488 C3490 1.384 . S
C3489 C3488 1.377 . S
C3489 C3495 1.390 . S
C3490 H3481 0.930 . S
C3490 C3488 1.384 . S
C3490 C3491 1.372 . S
C3491 C3490 1.372 . S
C3491 C3492 1.400 . S
C3491 C3496 1.490 . S
C3492 H3482 0.930 . S
C3492 C3491 1.400 . S
C3492 C3495 1.386 . S
H3493 C3509 0.930 . S
H3494 C3510 0.931 . S
C3495 H3483 0.929 . S
C3495 C3489 1.390 . S
C3495 C3492 1.386 . S
C3496 C3491 1.490 . S
C3496 C3498 1.395 . S
C3496 C3499 1.403 . S
H3497 C3503 0.930 . S
C3498 H3484 0.930 . S
C3498 C3496 1.395 . S
C3498 C3501 1.403 . S
C3499 C3496 1.403 . S
C3499 C3500 1.524 . S
C3499 C3503 1.400 . S
C3500 H3485 0.960 . S
C3500 H3486 0.960 . S
C3500 H3487 0.960 . S
C3500 C3499 1.524 . S
C3501 C3498 1.403 . S
C3501 C3502 1.392 . S
C3501 C3505 1.495 . S
C3502 C3501 1.392 . S
C3502 C3503 1.385 . S
C3502 C3504 1.478 . S
C3503 H3497 0.930 . S
C3503 C3499 1.400 . S
C3503 C3502 1.385 . S
C3504 C3502 1.478 . S
C3504 C3506 1.381 . S
C3504 C3510 1.383 . S
C3505 C3501 1.495 . S
C3505 H3511 0.959 . S
C3505 H3512 0.961 . S
C3505 H3513 0.960 . S
C3506 C3504 1.381 . S
C3506 C3507 1.394 . S
C3506 H3514 0.930 . S
C3507 C3506 1.394 . S
C3507 C3508 1.383 . S
C3507 H3515 0.929 . S
C3508 C3507 1.383 . S
C3508 C3509 1.377 . S
C3509 H3493 0.930 . S
C3509 C3508 1.377 . S
C3509 C3510 1.379 . S
C3510 H3494 0.931 . S
C3510 C3504 1.383 . S
C3510 C3509 1.379 . S
H3511 C3505 0.959 . S
H3512 C3505 0.961 . S
H3513 C3505 0.960 . S
H3514 C3506 0.930 . S
H3515 C3507 0.929 . S
H3516 C3524 0.929 . S
H3517 C3526 0.930 . S
H3518 C3528 0.930 . S
H3519 C3531 0.929 . S
H3520 C3534 0.930 . S
H3521 C3536 0.960 . S
H3522 C3536 0.960 . S
H3523 C3536 0.960 . S
C3524 H3516 0.929 . S
C3524 C3525 1.377 . S
C3524 C3526 1.384 . S
C3525 C3524 1.377 . S
C3525 C3531 1.390 . S
C3526 H3517 0.930 . S
C3526 C3524 1.384 . S
C3526 C3527 1.372 . S
C3527 C3526 1.372 . S
C3527 C3528 1.400 . S
C3527 C3532 1.490 . S
C3528 H3518 0.930 . S
C3528 C3527 1.400 . S
C3528 C3531 1.386 . S
H3529 C3545 0.930 . S
H3530 C3546 0.931 . S
C3531 H3519 0.929 . S
C3531 C3525 1.390 . S
C3531 C3528 1.386 . S
C3532 C3527 1.490 . S
C3532 C3534 1.395 . S
C3532 C3535 1.403 . S
H3533 C3539 0.930 . S
C3534 H3520 0.930 . S
C3534 C3532 1.395 . S
C3534 C3537 1.403 . S
C3535 C3532 1.403 . S
C3535 C3536 1.524 . S
C3535 C3539 1.400 . S
C3536 H3521 0.960 . S
C3536 H3522 0.960 . S
C3536 H3523 0.960 . S
C3536 C3535 1.524 . S
C3537 C3534 1.403 . S
C3537 C3538 1.392 . S
C3537 C3541 1.495 . S
C3538 C3537 1.392 . S
C3538 C3539 1.385 . S
C3538 C3540 1.478 . S
C3539 H3533 0.930 . S
C3539 C3535 1.400 . S
C3539 C3538 1.385 . S
C3540 C3538 1.478 . S
C3540 C3542 1.381 . S
C3540 C3546 1.383 . S
C3541 C3537 1.495 . S
C3541 H3547 0.959 . S
C3541 H3548 0.961 . S
C3541 H3549 0.960 . S
C3542 C3540 1.381 . S
C3542 C3543 1.394 . S
C3542 H3550 0.930 . S
C3543 C3542 1.394 . S
C3543 C3544 1.383 . S
C3543 H3551 0.929 . S
C3544 C3543 1.383 . S
C3544 C3545 1.377 . S
C3545 H3529 0.930 . S
C3545 C3544 1.377 . S
C3545 C3546 1.379 . S
C3546 H3530 0.931 . S
C3546 C3540 1.383 . S
C3546 C3545 1.379 . S
H3547 C3541 0.959 . S
H3548 C3541 0.961 . S
H3549 C3541 0.960 . S
H3550 C3542 0.930 . S
H3551 C3543 0.929 . S
C969 C23 0.509 . S
C988 C745 0.126 . S
C1005 C780 2.586 . S
C1024 C63 2.420 . S
C1041 C103 1.804 . S
C1060 C660 1.922 . S
C1077 C143 1.824 . S
C1096 C700 1.977 . S
C1113 C900 2.875 . S
C1132 C183 2.729 . S
C1149 C223 0.634 . S
C1168 C865 0.625 . S
C1185 C945 0.722 . S
C1204 C242 0.712 . S
C1221 C303 1.896 . S
C1240 C820 2.083 1_554 S
C1257 C343 1.614 . S
C1276 C540 1.754 . S
C1293 C362 2.110 . S
C1312 C620 2.119 . S
C1329 C580 1.256 . S
C1348 C423 1.138 . S
C1365 C442 2.158 . S
C1384 C500 2.150 . S
C1401 C482 0.506 . S
C1420 C244 0.237 . S
C1437 C522 2.407 . S
C1456 C311 2.587 . S
C1473 C562 1.800 . S
C1492 C191 1.928 . S
C1509 C231 1.977 . S
C1528 C602 1.846 . S
C1545 C642 2.724 . S
C1564 C431 2.872 . S
C1581 C364 0.616 . S
C1600 C682 0.617 . S
C1617 C444 0.716 . S
C1636 C743 0.712 . S
C1653 C351 2.082 1_556 S
C1672 C762 1.913 . S
C1689 C71 1.755 . S
C1708 C802 1.628 . S
C1725 C151 2.119 . S
C1744 C863 2.110 . S
C1761 C111 1.256 . S
C1780 C882 1.138 . S
C1797 C943 2.157 . S
C1816 C31 2.155 . S
C1833 C180 1.077 . S
C1852 C4 1.071 . S
C1869 C220 1.527 . S
C1888 C44 1.509 . S
C1905 C265 0.400 . S
C1924 C84 0.322 . S
C1941 C300 1.830 . S
C1960 C124 1.832 . S
C1977 C164 1.495 . S
C1996 C340 1.495 . S
C2013 C204 0.570 . S
C2032 C465 0.594 . S
C2049 C271 1.036 . S
C2068 C385 1.039 . S
C2085 C284 1.971 . S
C2104 C420 1.967 . S
C2121 C324 1.539 . S
C2140 C20 1.544 . S
C2157 C391 2.896 . S
C2176 C100 2.913 . S
C2193 C404 1.534 . S
C2212 C140 1.527 . S
C2229 C60 2.463 . S
C2248 C471 2.434 . S
C2265 C671 1.073 . S
C2284 C505 1.064 . S
C2301 C711 1.532 . S
C2320 C545 1.536 . S
C2337 C585 0.357 . S
C2356 C724 0.459 . S
C2373 C625 1.836 . S
C2392 C791 1.823 . S
C2409 C831 1.488 . S
C2428 C665 1.488 . S
C2445 C705 0.573 . S
C2464 C924 0.603 . S
C2481 C844 1.038 . S
C2500 C740 1.032 . S
C2517 C785 1.971 . S
C2536 C911 1.967 . S
C2553 C511 1.548 . S
C2572 C825 1.518 . S
C2589 C860 2.898 . S
C2608 C591 2.913 . S
C2625 C905 1.535 . S
C2644 C631 1.525 . S
C2661 C551 2.463 . S
C2680 C940 2.444 . S
C2697 C2 3.089 . S
C2716 C380 3.131 1_554 S
C2733 C425 1.640 . S
C2752 C42 1.646 . S
C2769 C345 1.723 . S
C2788 C82 1.728 . S
C2805 C460 2.799 . S
C2824 C122 2.762 . S
C2841 C162 1.366 . S
C2860 C145 1.375 . S
C2877 C105 1.505 . S
C2896 C202 1.476 . S
C2913 C263 0.966 . S
C2932 C65 1.010 . S
C2949 C25 1.041 . S
C2968 C282 1.056 . S
C2985 C322 1.192 1_556 S
C3004 C225 1.196 . S
C3021 C383 1.582 . S
C3040 C305 1.733 . S
C3057 C402 2.426 . S
C3076 C260 2.465 . S
C3093 C463 1.494 . S
C3112 C185 1.616 . S
C3129 C503 3.087 . S
C3148 C871 3.136 1_556 S
C3165 C543 1.638 . S
C3184 C884 1.630 . S
C3201 C804 1.724 . S
C3220 C583 1.695 . S
C3237 C951 2.799 . S
C3256 C623 2.745 . S
C3273 C663 1.372 . S
C3292 C604 1.392 . S
C3309 C703 1.493 . S
C3328 C564 1.491 . S
C3345 C524 1.041 . S
C3364 C722 0.925 . S
C3381 C783 1.030 . S
C3400 C484 1.029 . S
C3417 C823 1.185 1_554 S
C3436 C684 1.198 . S
C3453 C764 1.736 . S
C3472 C842 1.623 . S
C3489 C903 2.430 . S
C3508 C751 2.467 . S
C3525 C922 1.493 . S
C3544 C644 1.643 . S
