# Generated by pormake.
# Topology pbz, (3)-cn, num edge types: 1
# Building blocks:
#     Node 0, Type 0, BuildingBlock: OLANEW_clean_sbu_2, # of connection points: 3
#     Node 1, Type 0, BuildingBlock: OLANEW_clean_sbu_2, # of connection points: 3
#     Node 2, Type 0, BuildingBlock: OLANEW_clean_sbu_2, # of connection points: 3
#     Node 3, Type 0, BuildingBlock: OLANEW_clean_sbu_2, # of connection points: 3
#     Node 4, Type 0, BuildingBlock: OLANEW_clean_sbu_2, # of connection points: 3
#     Node 5, Type 0, BuildingBlock: OLANEW_clean_sbu_2, # of connection points: 3
#     Node 6, Type 0, BuildingBlock: OLANEW_clean_sbu_2, # of connection points: 3
#     Node 7, Type 0, BuildingBlock: OLANEW_clean_sbu_2, # of connection points: 3
#     Node 8, Type 0, BuildingBlock: OLANEW_clean_sbu_2, # of connection points: 3
#     Node 9, Type 0, BuildingBlock: OLANEW_clean_sbu_2, # of connection points: 3
#     Node 10, Type 0, BuildingBlock: OLANEW_clean_sbu_2, # of connection points: 3
#     Node 11, Type 0, BuildingBlock: OLANEW_clean_sbu_2, # of connection points: 3
#     Node 12, Type 0, BuildingBlock: OLANEW_clean_sbu_2, # of connection points: 3
#     Node 13, Type 0, BuildingBlock: OLANEW_clean_sbu_2, # of connection points: 3
#     Node 14, Type 0, BuildingBlock: OLANEW_clean_sbu_2, # of connection points: 3
#     Node 15, Type 0, BuildingBlock: OLANEW_clean_sbu_2, # of connection points: 3
#     Node 16, Type 0, BuildingBlock: OLANEW_clean_sbu_2, # of connection points: 3
#     Node 17, Type 0, BuildingBlock: OLANEW_clean_sbu_2, # of connection points: 3
#     Node 18, Type 0, BuildingBlock: OLANEW_clean_sbu_2, # of connection points: 3
#     Node 19, Type 0, BuildingBlock: OLANEW_clean_sbu_2, # of connection points: 3
#     Node 20, Type 0, BuildingBlock: OLANEW_clean_sbu_2, # of connection points: 3
#     Node 21, Type 0, BuildingBlock: OLANEW_clean_sbu_2, # of connection points: 3
#     Node 22, Type 0, BuildingBlock: OLANEW_clean_sbu_2, # of connection points: 3
#     Node 23, Type 0, BuildingBlock: OLANEW_clean_sbu_2, # of connection points: 3
#     Edge 24, Type (0, 0), BuildingBlock: OJICUG_clean_linker_0, # of connection points: 2
#     Edge 25, Type (0, 0), BuildingBlock: OJICUG_clean_linker_0, # of connection points: 2
#     Edge 26, Type (0, 0), BuildingBlock: OJICUG_clean_linker_0, # of connection points: 2
#     Edge 27, Type (0, 0), BuildingBlock: OJICUG_clean_linker_0, # of connection points: 2
#     Edge 28, Type (0, 0), BuildingBlock: OJICUG_clean_linker_0, # of connection points: 2
#     Edge 29, Type (0, 0), BuildingBlock: OJICUG_clean_linker_0, # of connection points: 2
#     Edge 30, Type (0, 0), BuildingBlock: OJICUG_clean_linker_0, # of connection points: 2
#     Edge 31, Type (0, 0), BuildingBlock: OJICUG_clean_linker_0, # of connection points: 2
#     Edge 32, Type (0, 0), BuildingBlock: OJICUG_clean_linker_0, # of connection points: 2
#     Edge 33, Type (0, 0), BuildingBlock: OJICUG_clean_linker_0, # of connection points: 2
#     Edge 34, Type (0, 0), BuildingBlock: OJICUG_clean_linker_0, # of connection points: 2
#     Edge 35, Type (0, 0), BuildingBlock: OJICUG_clean_linker_0, # of connection points: 2
#     Edge 36, Type (0, 0), BuildingBlock: OJICUG_clean_linker_0, # of connection points: 2
#     Edge 37, Type (0, 0), BuildingBlock: OJICUG_clean_linker_0, # of connection points: 2
#     Edge 38, Type (0, 0), BuildingBlock: OJICUG_clean_linker_0, # of connection points: 2
#     Edge 39, Type (0, 0), BuildingBlock: OJICUG_clean_linker_0, # of connection points: 2
#     Edge 40, Type (0, 0), BuildingBlock: OJICUG_clean_linker_0, # of connection points: 2
#     Edge 41, Type (0, 0), BuildingBlock: OJICUG_clean_linker_0, # of connection points: 2
#     Edge 42, Type (0, 0), BuildingBlock: OJICUG_clean_linker_0, # of connection points: 2
#     Edge 43, Type (0, 0), BuildingBlock: OJICUG_clean_linker_0, # of connection points: 2
#     Edge 44, Type (0, 0), BuildingBlock: OJICUG_clean_linker_0, # of connection points: 2
#     Edge 45, Type (0, 0), BuildingBlock: OJICUG_clean_linker_0, # of connection points: 2
#     Edge 46, Type (0, 0), BuildingBlock: OJICUG_clean_linker_0, # of connection points: 2
#     Edge 47, Type (0, 0), BuildingBlock: OJICUG_clean_linker_0, # of connection points: 2
#     Edge 48, Type (0, 0), BuildingBlock: OJICUG_clean_linker_0, # of connection points: 2
#     Edge 49, Type (0, 0), BuildingBlock: OJICUG_clean_linker_0, # of connection points: 2
#     Edge 50, Type (0, 0), BuildingBlock: OJICUG_clean_linker_0, # of connection points: 2
#     Edge 51, Type (0, 0), BuildingBlock: OJICUG_clean_linker_0, # of connection points: 2
#     Edge 52, Type (0, 0), BuildingBlock: OJICUG_clean_linker_0, # of connection points: 2
#     Edge 53, Type (0, 0), BuildingBlock: OJICUG_clean_linker_0, # of connection points: 2
#     Edge 54, Type (0, 0), BuildingBlock: OJICUG_clean_linker_0, # of connection points: 2
#     Edge 55, Type (0, 0), BuildingBlock: OJICUG_clean_linker_0, # of connection points: 2
#     Edge 56, Type (0, 0), BuildingBlock: OJICUG_clean_linker_0, # of connection points: 2
#     Edge 57, Type (0, 0), BuildingBlock: OJICUG_clean_linker_0, # of connection points: 2
#     Edge 58, Type (0, 0), BuildingBlock: OJICUG_clean_linker_0, # of connection points: 2
#     Edge 59, Type (0, 0), BuildingBlock: OJICUG_clean_linker_0, # of connection points: 2
# Relax obj value: 0.059
# Max RMSD: 0.148
# Mean RMSD: 0.103
data_MOF--net-pbz--node1-OLANEW_clean_sbu_2--edge1-OJICUG_clean_linker_0
_symmetry_space_group_name_H-M    P1
_symmetry_Int_Tables_number       1
_symmetry_cell_setting            triclinic
loop_
_symmetry_equiv_pos_as_xyz
'x, y, z'
_cell_length_a     49.675045
_cell_length_b     48.603339
_cell_length_c     47.238901
_cell_angle_alpha  90.358573
_cell_angle_beta   89.947261
_cell_angle_gamma 94.661312
loop_
_atom_site_label
_atom_site_type_symbol
_atom_site_fract_x
_atom_site_fract_y
_atom_site_fract_z
_atom_type_partial_charge
O0 O 0.05193 0.2243 0.7452 0.0
Cd1 Cd 0.05045 0.17652 0.72848 0.0
O2 O 0.02285 0.21383 0.77939 0.0
Cd3 Cd 0.00839 0.17467 0.7596 0.0
O4 O 0.97641 0.15897 0.73061 0.0
C5 C 0.98128 0.1509 0.70562 0.0
O6 O 0.00648 0.1494 0.69772 0.0
C7 C 0.03937 0.23133 0.76722 0.0
C8 C 0.08272 0.14514 0.76183 0.0
O9 O 0.0923 0.15773 0.73981 0.0
O10 O 0.05786 0.14734 0.76803 0.0
O11 O 0.8954 0.59945 0.17441 0.0
Cd12 Cd 0.85067 0.57641 0.16518 0.0
O13 O 0.88659 0.59212 0.2192 0.0
Cd14 Cd 0.89229 0.59576 0.26503 0.0
O15 O 0.89097 0.59714 0.31122 0.0
C16 C 0.8756 0.61317 0.32349 0.0
O17 O 0.86124 0.62891 0.308 0.0
C18 C 0.90277 0.6017 0.20012 0.0
C19 C 0.85113 0.536 0.1231 0.0
O20 O 0.8461 0.56076 0.11711 0.0
O21 O 0.85608 0.53043 0.14897 0.0
O22 O 0.51808 0.32176 0.76479 0.0
Cd23 Cd 0.5172 0.34531 0.71935 0.0
O24 O 0.51703 0.35976 0.79019 0.0
Cd25 Cd 0.50793 0.38562 0.75439 0.0
O26 O 0.48322 0.41445 0.73321 0.0
C27 C 0.47751 0.43548 0.74744 0.0
O28 O 0.48785 0.43923 0.77291 0.0
C29 C 0.51891 0.33385 0.78876 0.0
C30 C 0.56887 0.34842 0.69576 0.0
O31 O 0.56117 0.36791 0.71146 0.0
O32 O 0.55194 0.32763 0.69079 0.0
O33 O 0.79062 0.07215 0.22567 0.0
Cd34 Cd 0.76245 0.05711 0.18527 0.0
O35 O 0.75906 0.05346 0.25339 0.0
Cd36 Cd 0.73861 0.04184 0.29303 0.0
O37 O 0.71111 0.02519 0.32582 0.0
C38 C 0.71965 0.01441 0.34818 0.0
O39 O 0.7458 0.01387 0.35199 0.0
C40 C 0.78231 0.06613 0.25047 0.0
C41 C 0.77913 0.08407 0.13567 0.0
O42 O 0.76003 0.09271 0.15075 0.0
O43 O 0.79034 0.06274 0.14411 0.0
O44 O 0.04077 0.36425 0.78235 0.0
Cd45 Cd 0.03512 0.41288 0.79208 0.0
O46 O 0.02923 0.35148 0.82559 0.0
Cd47 Cd 0.01815 0.39171 0.84027 0.0
O48 O 0.99037 0.41343 0.8664 0.0
C49 C 0.96739 0.41791 0.85641 0.0
O50 O 0.96218 0.41179 0.82974 0.0
C51 C 0.03716 0.34545 0.8009 0.0
C52 C 0.08403 0.43976 0.80946 0.0
O53 O 0.06724 0.42859 0.82745 0.0
O54 O 0.0775 0.43854 0.78322 0.0
O55 O 0.88652 0.60775 0.46044 0.0
Cd56 Cd 0.88212 0.60895 0.51189 0.0
O57 O 0.84558 0.62115 0.45813 0.0
Cd58 Cd 0.8079 0.63118 0.43799 0.0
O59 O 0.76919 0.64314 0.42223 0.0
C60 C 0.76743 0.65461 0.39827 0.0
O61 O 0.78928 0.659 0.3827 0.0
C62 C 0.86683 0.61453 0.44559 0.0
C63 C 0.86445 0.55777 0.53451 0.0
O64 O 0.84758 0.57434 0.52557 0.0
O65 O 0.88971 0.56532 0.53253 0.0
O66 O 0.52127 0.24398 0.89022 0.0
Cd67 Cd 0.52414 0.21472 0.93158 0.0
O68 O 0.52124 0.28203 0.91569 0.0
Cd69 Cd 0.51363 0.25892 0.95485 0.0
O70 O 0.48722 0.23372 0.98328 0.0
C71 C 0.49309 0.21108 0.99409 0.0
O72 O 0.51713 0.20245 0.9896 0.0
C73 C 0.5219 0.27016 0.89163 0.0
C74 C 0.57852 0.21107 0.94412 0.0
O75 O 0.56556 0.19302 0.9283 0.0
O76 O 0.56558 0.23054 0.95452 0.0
O77 O 0.97985 0.08963 0.41521 0.0
Cd78 Cd 0.00075 0.06642 0.37576 0.0
O79 O 0.94141 0.07658 0.39481 0.0
Cd80 Cd 0.89806 0.07526 0.38623 0.0
O81 O 0.8615 0.07111 0.36041 0.0
C82 C 0.85984 0.08812 0.34029 0.0
O83 O 0.87924 0.10791 0.33718 0.0
C84 C 0.95424 0.08923 0.41492 0.0
C85 C 0.02921 0.02173 0.39134 0.0
O86 O 0.04122 0.04595 0.38881 0.0
O87 O 0.00368 0.01875 0.38696 0.0
O88 O 0.29287 0.71441 0.11372 0.0
Cd89 Cd 0.25235 0.68401 0.10313 0.0
O90 O 0.30312 0.68884 0.14985 0.0
Cd91 Cd 0.26433 0.66427 0.14904 0.0
O92 O 0.22128 0.65498 0.15711 0.0
C93 C 0.21306 0.63768 0.1759 0.0
O94 O 0.23081 0.62391 0.18927 0.0
C95 C 0.30897 0.70926 0.1336 0.0
C96 C 0.26456 0.6392 0.06963 0.0
O97 O 0.25493 0.6603 0.05854 0.0
O98 O 0.2683 0.63923 0.09644 0.0
O99 O 0.21533 0.80912 0.72171 0.0
Cd100 Cd 0.17149 0.81453 0.74359 0.0
O101 O 0.20223 0.83219 0.68534 0.0
Cd102 Cd 0.2045 0.8517 0.64384 0.0
O103 O 0.19421 0.86486 0.60151 0.0
C104 C 0.20723 0.85724 0.58009 0.0
O105 O 0.22783 0.84234 0.58393 0.0
C106 C 0.22014 0.81897 0.69721 0.0
C107 C 0.17422 0.85696 0.78357 0.0
O108 O 0.17843 0.83223 0.79054 0.0
O109 O 0.16868 0.86161 0.75763 0.0
O110 O 0.35959 0.69244 0.58536 0.0
Cd111 Cd 0.35582 0.73315 0.55597 0.0
O112 O 0.36516 0.71724 0.62433 0.0
Cd113 Cd 0.35088 0.75488 0.60682 0.0
O114 O 0.31837 0.78049 0.61854 0.0
C115 C 0.31773 0.78691 0.64465 0.0
O116 O 0.33731 0.77985 0.66111 0.0
C117 C 0.36476 0.69403 0.6117 0.0
C118 C 0.39794 0.73758 0.51665 0.0
O119 O 0.40057 0.74905 0.54111 0.0
O120 O 0.37526 0.72435 0.51067 0.0
O121 O 0.45437 0.89525 0.20127 0.0
Cd122 Cd 0.41977 0.88631 0.16474 0.0
O123 O 0.46613 0.85255 0.20112 0.0
Cd124 Cd 0.43582 0.83696 0.17024 0.0
O125 O 0.40351 0.80922 0.15193 0.0
C126 C 0.40111 0.78486 0.16178 0.0
O127 O 0.4182 0.77813 0.18129 0.0
C128 C 0.46911 0.87713 0.21068 0.0
C129 C 0.4094 0.93381 0.13496 0.0
O130 O 0.39727 0.92767 0.15832 0.0
O131 O 0.42654 0.91756 0.12574 0.0
O132 O 0.14061 0.87923 0.46492 0.0
Cd133 Cd 0.11738 0.87998 0.41935 0.0
O134 O 0.17219 0.85453 0.44793 0.0
Cd135 Cd 0.1521 0.84673 0.40735 0.0
O136 O 0.13334 0.82144 0.37335 0.0
C137 C 0.11564 0.8022 0.38001 0.0
O138 O 0.10844 0.79942 0.40668 0.0
C139 C 0.16244 0.86767 0.46837 0.0
C140 C 0.0889 0.92668 0.41279 0.0
O141 O 0.11405 0.92718 0.40654 0.0
O142 O 0.07723 0.90411 0.4223 0.0
O143 O 0.31619 0.5133 0.92123 0.0
Cd144 Cd 0.30236 0.50023 0.96924 0.0
O145 O 0.27329 0.50486 0.91189 0.0
Cd146 Cd 0.23636 0.4984 0.88677 0.0
O147 O 0.19594 0.48523 0.87143 0.0
C148 C 0.18929 0.48655 0.84554 0.0
O149 O 0.20723 0.49658 0.82708 0.0
C150 C 0.29702 0.51249 0.90339 0.0
C151 C 0.29035 0.54582 0.00156 0.0
O152 O 0.31331 0.53575 0.00373 0.0
O153 O 0.27308 0.53437 0.98413 0.0
O154 O 0.61205 0.75715 0.35919 0.0
Cd155 Cd 0.61641 0.7098 0.34309 0.0
O156 O 0.57817 0.74293 0.38662 0.0
Cd157 Cd 0.54473 0.74826 0.41594 0.0
O158 O 0.51074 0.75057 0.44507 0.0
C159 C 0.48757 0.73964 0.43805 0.0
O160 O 0.4846 0.72743 0.41323 0.0
C161 C 0.59426 0.76251 0.37731 0.0
C162 C 0.66533 0.69094 0.36048 0.0
O163 O 0.66337 0.70321 0.33672 0.0
O164 O 0.64412 0.6875 0.37595 0.0
O165 O 0.40771 0.11093 0.03484 0.0
Cd166 Cd 0.37033 0.07528 0.0402 0.0
O167 O 0.38106 0.14484 0.03189 0.0
Cd168 Cd 0.34374 0.11792 0.03138 0.0
O169 O 0.30779 0.09739 0.01155 0.0
C170 C 0.29577 0.11088 0.9931 0.0
O171 O 0.30483 0.13651 0.98791 0.0
C172 C 0.4047 0.13656 0.03237 0.0
C173 C 0.38437 0.03002 0.07153 0.0
O174 O 0.38877 0.03142 0.04482 0.0
O175 O 0.37348 0.05011 0.08349 0.0
O176 O 0.09492 0.66765 0.21659 0.0
Cd177 Cd 0.05647 0.68538 0.24132 0.0
O178 O 0.10436 0.63915 0.25046 0.0
Cd179 Cd 0.0763 0.65736 0.27912 0.0
O180 O 0.07403 0.69237 0.30786 0.0
C181 C 0.0872 0.71454 0.30002 0.0
O182 O 0.09933 0.71495 0.27527 0.0
C183 C 0.10913 0.64905 0.22595 0.0
C184 C 0.00695 0.65733 0.22753 0.0
O185 O 0.02087 0.64973 0.24851 0.0
O186 O 0.0166 0.67803 0.21298 0.0
O187 O 0.35835 0.57224 0.66954 0.0
Cd188 Cd 0.34822 0.53071 0.69781 0.0
O189 O 0.36312 0.59923 0.7071 0.0
Cd190 Cd 0.35469 0.56699 0.73857 0.0
O191 O 0.34454 0.54632 0.77856 0.0
C192 C 0.32115 0.54819 0.78898 0.0
O193 O 0.30359 0.56145 0.77473 0.0
C194 C 0.3632 0.59617 0.68034 0.0
C195 C 0.39334 0.50269 0.71113 0.0
O196 O 0.37988 0.49702 0.6884 0.0
O197 O 0.38568 0.52186 0.72726 0.0
O198 O 0.60235 0.87994 0.44289 0.0
Cd199 Cd 0.60727 0.92756 0.46004 0.0
O200 O 0.58851 0.89471 0.40205 0.0
Cd201 Cd 0.57162 0.88946 0.35933 0.0
O202 O 0.55022 0.88221 0.3192 0.0
C203 C 0.53877 0.90151 0.30725 0.0
O204 O 0.54042 0.92614 0.31907 0.0
C205 C 0.59453 0.87485 0.41765 0.0
C206 C 0.6437 0.95866 0.42576 0.0
O207 O 0.6518 0.94623 0.44763 0.0
O208 O 0.61832 0.95671 0.4204 0.0
O209 O 0.20781 0.06701 0.89749 0.0
Cd210 Cd 0.17959 0.04339 0.86076 0.0
O211 O 0.21104 0.02887 0.92168 0.0
Cd212 Cd 0.18895 0.00247 0.89069 0.0
O213 O 0.17932 0.96997 0.85946 0.0
C214 C 0.18438 0.94561 0.86603 0.0
O215 O 0.19413 0.94121 0.8913 0.0
C216 C 0.21657 0.05472 0.91892 0.0
C217 C 0.1488 0.0782 0.82975 0.0
O218 O 0.13946 0.0664 0.85231 0.0
O219 O 0.17284 0.07382 0.82207 0.0
O220 O 0.88303 0.41915 0.95996 0.0
Cd221 Cd 0.8473 0.40999 0.99509 0.0
O222 O 0.85472 0.4174 0.92413 0.0
Cd223 Cd 0.82251 0.39796 0.95038 0.0
O224 O 0.81135 0.35603 0.96502 0.0
C225 C 0.82983 0.33996 0.96029 0.0
O226 O 0.85244 0.35023 0.94857 0.0
C227 C 0.87864 0.4219 0.93363 0.0
C228 C 0.84892 0.45106 0.03663 0.0
O229 O 0.86098 0.42901 0.04023 0.0
O230 O 0.83606 0.45363 0.01341 0.0
O231 O 0.90616 0.15682 0.59419 0.0
Cd232 Cd 0.87976 0.16877 0.55314 0.0
O233 O 0.87887 0.17106 0.62695 0.0
Cd234 Cd 0.85246 0.19096 0.59778 0.0
O235 O 0.8344 0.22942 0.5881 0.0
C236 C 0.81403 0.2359 0.60224 0.0
O237 O 0.803 0.21816 0.62059 0.0
C238 C 0.90014 0.15968 0.62015 0.0
C239 C 0.90142 0.14465 0.50537 0.0
O240 O 0.91076 0.16848 0.51433 0.0
O241 O 0.88133 0.13247 0.51857 0.0
O242 O 0.81191 0.36738 0.60894 0.0
Cd243 Cd 0.80617 0.41408 0.62625 0.0
O244 O 0.76964 0.35869 0.6208 0.0
Cd245 Cd 0.72998 0.33685 0.62814 0.0
O246 O 0.68771 0.33177 0.64146 0.0
C247 C 0.67866 0.3524 0.65387 0.0
O248 O 0.69499 0.37475 0.65782 0.0
C249 C 0.79153 0.35002 0.61162 0.0
C250 C 0.82625 0.45742 0.59191 0.0
O251 O 0.84155 0.44636 0.60967 0.0
O252 O 0.80163 0.44744 0.58984 0.0
O253 O 0.8344 0.20781 0.97769 0.0
Cd254 Cd 0.82576 0.15766 0.97718 0.0
O255 O 0.79065 0.20933 0.97947 0.0
Cd256 Cd 0.75075 0.22513 0.97695 0.0
O257 O 0.70741 0.22855 0.97265 0.0
C258 C 0.69354 0.20828 0.96132 0.0
O259 O 0.70591 0.18683 0.95275 0.0
C260 C 0.81404 0.22204 0.97809 0.0
C261 C 0.81142 0.13585 0.02991 0.0
O262 O 0.83592 0.13673 0.0212 0.0
O263 O 0.79377 0.14554 0.01379 0.0
C264 C 0.05199 0.30926 0.76743 0.0
C265 C 0.04049 0.31628 0.79343 0.0
H266 H 0.0611 0.27685 0.73894 0.0
C267 C 0.0308 0.295 0.81173 0.0
H268 H 0.05979 0.32516 0.75294 0.0
C269 C 0.03135 0.26737 0.80363 0.0
C270 C 0.04191 0.26036 0.7772 0.0
H271 H 0.02188 0.29965 0.83196 0.0
H272 H 0.0229 0.25152 0.81783 0.0
C273 C 0.05284 0.28157 0.75947 0.0
C274 C 0.85516 0.63256 0.39788 0.0
C275 C 0.8688 0.61418 0.41436 0.0
H276 H 0.84655 0.64667 0.35629 0.0
C277 C 0.8852 0.5959 0.4008 0.0
H278 H 0.84336 0.64773 0.40774 0.0
C279 C 0.88747 0.5956 0.37131 0.0
C280 C 0.87348 0.61369 0.35476 0.0
H281 H 0.89613 0.58164 0.41299 0.0
H282 H 0.90012 0.5811 0.36151 0.0
C283 C 0.85735 0.63222 0.36838 0.0
C284 C 0.52133 0.33086 0.84166 0.0
C285 C 0.52111 0.31772 0.81504 0.0
H286 H 0.52183 0.32623 0.88667 0.0
C287 C 0.52218 0.28893 0.81385 0.0
H288 H 0.52058 0.35302 0.84337 0.0
C289 C 0.52289 0.27357 0.8387 0.0
C290 C 0.52255 0.28664 0.86532 0.0
H291 H 0.52211 0.27815 0.7937 0.0
H292 H 0.52335 0.25137 0.83699 0.0
C293 C 0.52205 0.31549 0.86652 0.0
C294 C 0.8184 0.06161 0.32074 0.0
C295 C 0.83807 0.08403 0.3189 0.0
H296 H 0.78568 0.038 0.3003 0.0
C297 C 0.8379 0.10152 0.29533 0.0
H298 H 0.81807 0.04764 0.33853 0.0
C299 C 0.81916 0.09611 0.27357 0.0
C300 C 0.8 0.07328 0.27502 0.0
H301 H 0.85274 0.11899 0.29323 0.0
H302 H 0.81999 0.10956 0.25533 0.0
C303 C 0.79958 0.05626 0.29896 0.0
C304 C 0.33803 0.75317 0.12493 0.0
C305 C 0.33366 0.72776 0.13898 0.0
H306 H 0.36273 0.79123 0.12113 0.0
C307 C 0.35244 0.72079 0.15943 0.0
H308 H 0.32395 0.75917 0.10906 0.0
C309 C 0.37465 0.73908 0.16625 0.0
C310 C 0.37857 0.76486 0.15291 0.0
H311 H 0.34977 0.70135 0.17057 0.0
H312 H 0.38844 0.73318 0.18246 0.0
C313 C 0.36022 0.77157 0.13189 0.0
C314 C 0.27088 0.80265 0.64072 0.0
C315 C 0.29375 0.79856 0.65723 0.0
H316 H 0.22943 0.81174 0.64044 0.0
C317 C 0.29271 0.80345 0.68655 0.0
H318 H 0.27095 0.79889 0.61809 0.0
C319 C 0.269 0.811 0.69927 0.0
C320 C 0.24586 0.81414 0.68296 0.0
H321 H 0.30995 0.80057 0.69992 0.0
H322 H 0.26862 0.81384 0.72203 0.0
C323 C 0.24713 0.81032 0.65349 0.0
C324 C 0.1147 0.7833 0.33054 0.0
C325 C 0.10566 0.78136 0.3587 0.0
H326 H 0.11576 0.76384 0.28989 0.0
C327 C 0.08845 0.75831 0.36673 0.0
H328 H 0.12784 0.80084 0.3236 0.0
C329 C 0.08152 0.73703 0.34737 0.0
C330 C 0.09164 0.73838 0.31958 0.0
H331 H 0.08101 0.75624 0.38823 0.0
H332 H 0.06895 0.71914 0.35447 0.0
C333 C 0.10776 0.76205 0.3112 0.0
C334 C 0.28878 0.5403 0.8294 0.0
C335 C 0.31442 0.53746 0.81762 0.0
H336 H 0.26342 0.53537 0.86589 0.0
C337 C 0.33393 0.52547 0.83401 0.0
H338 H 0.27335 0.54964 0.81745 0.0
C339 C 0.32809 0.51703 0.86173 0.0
C340 C 0.30254 0.52014 0.87357 0.0
H341 H 0.35391 0.52303 0.82562 0.0
H342 H 0.34363 0.50818 0.87397 0.0
C343 C 0.28294 0.53179 0.8571 0.0
C344 C 0.5862 0.82405 0.42523 0.0
C345 C 0.59277 0.84619 0.40684 0.0
H346 H 0.5818 0.7802 0.43041 0.0
C347 C 0.59941 0.84057 0.3786 0.0
H348 H 0.58143 0.8278 0.44724 0.0
C349 C 0.59944 0.81334 0.36893 0.0
C350 C 0.59267 0.7912 0.38727 0.0
H351 H 0.6056 0.85716 0.36424 0.0
H352 H 0.60501 0.80958 0.34715 0.0
C353 C 0.58606 0.79681 0.41552 0.0
C354 C 0.26192 0.11158 0.95385 0.0
C355 C 0.27355 0.09727 0.9759 0.0
H356 H 0.23471 0.10948 0.91864 0.0
C357 C 0.26475 0.06942 0.98031 0.0
H358 H 0.26815 0.1331 0.94995 0.0
C359 C 0.24554 0.0559 0.96238 0.0
C360 C 0.2347 0.0699 0.93961 0.0
H361 H 0.27319 0.05782 0.99718 0.0
H362 H 0.23975 0.03423 0.96596 0.0
C363 C 0.24271 0.09805 0.93589 0.0
C364 C 0.84197 0.26422 0.96268 0.0
C365 C 0.81797 0.25242 0.97487 0.0
H366 H 0.86445 0.30085 0.94855 0.0
C367 C 0.79824 0.26987 0.98354 0.0
H368 H 0.85767 0.25142 0.95589 0.0
C369 C 0.80207 0.29841 0.97914 0.0
C370 C 0.82583 0.31004 0.96626 0.0
H371 H 0.78004 0.26165 0.99404 0.0
H372 H 0.78641 0.31133 0.98576 0.0
C373 C 0.84584 0.29263 0.95842 0.0
C374 C 0.81466 0.31249 0.58761 0.0
C375 C 0.79429 0.3204 0.60591 0.0
H376 H 0.83657 0.27958 0.57164 0.0
C377 C 0.77878 0.29987 0.62089 0.0
H378 H 0.82696 0.32785 0.57577 0.0
C379 C 0.7843 0.27218 0.61858 0.0
C380 C 0.80552 0.26443 0.60129 0.0
H381 H 0.76347 0.30527 0.63574 0.0
H382 H 0.77268 0.25703 0.63131 0.0
C383 C 0.82013 0.2848 0.58521 0.0
C384 C 0.10527 0.09935 0.82054 0.0
C385 C 0.13212 0.09591 0.81277 0.0
H386 H 0.06862 0.11751 0.81057 0.0
C387 C 0.1427 0.10911 0.78831 0.0
H388 H 0.09649 0.08946 0.83925 0.0
C389 C 0.12672 0.12523 0.77187 0.0
C390 C 0.09979 0.12845 0.77949 0.0
H391 H 0.16331 0.1069 0.78173 0.0
H392 H 0.13546 0.13501 0.75308 0.0
C393 C 0.08927 0.11541 0.80407 0.0
C394 C 0.969 0.62149 0.23772 0.0
C395 C 0.98039 0.64287 0.22048 0.0
H396 H 0.93584 0.5913 0.24448 0.0
C397 C 0.96608 0.65041 0.19647 0.0
H398 H 0.9796 0.61503 0.25625 0.0
C399 C 0.9409 0.63695 0.1899 0.0
C400 C 0.92935 0.61588 0.20737 0.0
H401 H 0.97431 0.66673 0.18268 0.0
H402 H 0.93032 0.64325 0.17128 0.0
C403 C 0.94374 0.60812 0.23121 0.0
C404 C 0.45069 0.47655 0.75334 0.0
C405 C 0.45762 0.45403 0.73681 0.0
H406 H 0.42509 0.50958 0.75818 0.0
C407 C 0.44429 0.44864 0.71088 0.0
H408 H 0.46061 0.48136 0.77338 0.0
C409 C 0.42385 0.46487 0.70215 0.0
C410 C 0.41635 0.48682 0.71916 0.0
H411 H 0.44918 0.43148 0.69761 0.0
H412 H 0.41356 0.45981 0.68236 0.0
C413 C 0.43029 0.49275 0.74462 0.0
C414 C 0.70941 0.98853 0.39321 0.0
C415 C 0.70025 0.00137 0.36887 0.0
H416 H 0.69876 0.96505 0.43034 0.0
C417 C 0.67229 0.00091 0.364 0.0
H418 H 0.73081 0.98855 0.39762 0.0
C419 C 0.65394 0.98743 0.38272 0.0
C420 C 0.66312 0.97414 0.40677 0.0
H421 H 0.66452 0.01064 0.34548 0.0
H422 H 0.63256 0.98715 0.37811 0.0
C423 C 0.69104 0.97507 0.41197 0.0
C424 C 0.12922 0.46439 0.79884 0.0
C425 C 0.11048 0.45297 0.81871 0.0
H426 H 0.1688 0.48402 0.79169 0.0
C427 C 0.11755 0.45356 0.84751 0.0
H428 H 0.12437 0.4643 0.77649 0.0
C429 C 0.14297 0.46483 0.85621 0.0
C430 C 0.16193 0.47579 0.83631 0.0
H431 H 0.10357 0.44499 0.86337 0.0
H432 H 0.14785 0.46464 0.87854 0.0
C433 C 0.15469 0.47569 0.80755 0.0
C434 C 0.71458 0.68534 0.35294 0.0
C435 C 0.69135 0.68122 0.3699 0.0
H436 H 0.75677 0.68016 0.34853 0.0
C437 C 0.69328 0.66795 0.39608 0.0
H438 H 0.71379 0.69548 0.33264 0.0
C439 C 0.71792 0.65916 0.4052 0.0
C440 C 0.7412 0.66344 0.38833 0.0
H441 H 0.67577 0.66443 0.40966 0.0
H442 H 0.7187 0.64912 0.42555 0.0
C443 C 0.73924 0.67655 0.36206 0.0
C444 C 0.4461 0.20248 0.01295 0.0
C445 C 0.47171 0.19301 0.00813 0.0
H446 H 0.405 0.19223 0.02474 0.0
C447 C 0.47585 0.16547 0.01458 0.0
H448 H 0.44228 0.22365 0.00848 0.0
C449 C 0.45437 0.14735 0.02391 0.0
C450 C 0.42836 0.15645 0.02704 0.0
H451 H 0.49537 0.15754 0.01124 0.0
H452 H 0.45793 0.12596 0.02751 0.0
C453 C 0.4247 0.18444 0.02233 0.0
C454 C 0.07288 1e-05 0.39731 0.0
C455 C 0.04451 0.99774 0.39821 0.0
H456 H 0.10915 0.97932 0.40103 0.0
C457 C 0.03089 0.9721 0.40482 0.0
H458 H 0.08398 0.01946 0.39224 0.0
C459 C 0.04532 0.94914 0.4101 0.0
C460 C 0.07367 0.95127 0.40855 0.0
H461 H 0.00903 0.9697 0.40576 0.0
H462 H 0.03422 0.92962 0.41489 0.0
C463 C 0.0873 0.97698 0.40227 0.0
C464 C 0.81262 0.09319 0.09659 0.0
C465 C 0.78776 0.09804 0.1091 0.0
H466 H 0.83978 0.10171 0.06193 0.0
C467 C 0.77104 0.11597 0.09574 0.0
H468 H 0.82599 0.07956 0.10646 0.0
C469 C 0.77876 0.12835 0.07004 0.0
C470 C 0.80358 0.12342 0.05747 0.0
H471 H 0.75174 0.12006 0.10486 0.0
H472 H 0.7653 0.14179 0.06003 0.0
C473 C 0.82056 0.10596 0.07115 0.0
C474 C 0.96481 0.14246 0.65592 0.0
C475 C 0.95923 0.14817 0.68444 0.0
H476 H 0.95043 0.1413 0.61322 0.0
C477 C 0.93292 0.15416 0.69195 0.0
H478 H 0.9848 0.13756 0.64943 0.0
C479 C 0.91322 0.1564 0.67118 0.0
C480 C 0.91935 0.15258 0.64243 0.0
H481 H 0.92784 0.15845 0.71375 0.0
H482 H 0.89355 0.1623 0.67759 0.0
C483 C 0.94507 0.1446 0.63514 0.0
C484 C 0.84099 0.51933 0.07367 0.0
C485 C 0.85092 0.51441 0.10087 0.0
H486 H 0.83238 0.50311 0.03213 0.0
C487 C 0.86038 0.48856 0.10671 0.0
H488 H 0.83351 0.53901 0.06852 0.0
C489 C 0.85993 0.46807 0.08578 0.0
C490 C 0.84975 0.47289 0.05867 0.0
H491 H 0.8682 0.48416 0.12744 0.0
H492 H 0.86735 0.44836 0.09095 0.0
C493 C 0.84027 0.49873 0.05284 0.0
C494 C 0.61469 0.37299 0.6891 0.0
C495 C 0.59669 0.34963 0.68427 0.0
H496 H 0.65455 0.39219 0.68328 0.0
C497 C 0.60574 0.32724 0.66897 0.0
H498 H 0.60837 0.3906 0.70079 0.0
C499 C 0.63232 0.3281 0.65899 0.0
C500 C 0.65038 0.35141 0.66402 0.0
H501 H 0.59237 0.30891 0.66492 0.0
H502 H 0.63873 0.31045 0.64743 0.0
C503 C 0.6412 0.37389 0.67905 0.0
C504 C 0.87316 0.51538 0.56185 0.0
C505 C 0.85498 0.5311 0.54754 0.0
H506 H 0.87834 0.47978 0.58712 0.0
C507 C 0.82752 0.52156 0.54664 0.0
H508 H 0.89445 0.52215 0.56291 0.0
C509 C 0.81832 0.49715 0.5603 0.0
C510 C 0.83636 0.4819 0.57539 0.0
H511 H 0.81302 0.53313 0.53567 0.0
H512 H 0.79696 0.49062 0.55963 0.0
C513 C 0.86392 0.49111 0.57575 0.0
C514 C 0.62142 0.18778 0.93903 0.0
C515 C 0.60775 0.20992 0.94948 0.0
H516 H 0.65913 0.16988 0.93462 0.0
C517 C 0.62245 0.23134 0.96432 0.0
H518 H 0.61069 0.17095 0.92752 0.0
C519 C 0.6503 0.23081 0.96827 0.0
C520 C 0.664 0.20878 0.95759 0.0
H521 H 0.61252 0.24872 0.9726 0.0
H522 H 0.66108 0.24772 0.97961 0.0
C523 C 0.64922 0.18718 0.94309 0.0
C524 C 0.93972 0.14149 0.47137 0.0
C525 C 0.91419 0.13116 0.48123 0.0
H526 H 0.97243 0.13611 0.44282 0.0
C527 C 0.90159 0.10721 0.46858 0.0
H528 H 0.95003 0.15981 0.48076 0.0
C529 C 0.91435 0.0938 0.44663 0.0
C530 C 0.94004 0.10393 0.43714 0.0
H531 H 0.88198 0.09866 0.4758 0.0
H532 H 0.90447 0.07503 0.43777 0.0
C533 C 0.9526 0.12787 0.44973 0.0
C534 C 0.91881 0.42524 0.86554 0.0
C535 C 0.94533 0.42466 0.87573 0.0
H536 H 0.87687 0.42515 0.87584 0.0
C537 C 0.94996 0.42738 0.90501 0.0
H538 H 0.91456 0.42346 0.84309 0.0
C539 C 0.92832 0.42837 0.92382 0.0
C540 C 0.90161 0.42666 0.91375 0.0
H541 H 0.97017 0.42729 0.91357 0.0
H542 H 0.9325 0.42899 0.94633 0.0
C543 C 0.89717 0.42622 0.88435 0.0
C544 C 0.17646 0.62122 0.2098 0.0
C545 C 0.18464 0.63649 0.18567 0.0
H546 H 0.14598 0.61291 0.24132 0.0
C547 C 0.16613 0.65281 0.17268 0.0
H548 H 0.19013 0.60826 0.2202 0.0
C549 C 0.14077 0.65542 0.18475 0.0
C550 C 0.13338 0.64182 0.21011 0.0
H551 H 0.17167 0.66461 0.15388 0.0
H552 H 0.12754 0.66925 0.17495 0.0
C553 C 0.15109 0.62387 0.22191 0.0
C554 C 0.16358 0.87964 0.5201 0.0
C555 C 0.17556 0.86776 0.49652 0.0
H556 H 0.16426 0.88578 0.56498 0.0
C557 C 0.19932 0.85436 0.50042 0.0
H558 H 0.14533 0.8902 0.51783 0.0
C559 C 0.21019 0.85183 0.52746 0.0
C560 C 0.19751 0.86261 0.55119 0.0
H561 H 0.20918 0.84512 0.48269 0.0
H562 H 0.22807 0.8407 0.52981 0.0
C563 C 0.17444 0.87708 0.54715 0.0
C564 C 0.29063 0.59804 0.06132 0.0
C565 C 0.27126 0.61548 0.05205 0.0
H566 H 0.31223 0.5626 0.05228 0.0
C567 C 0.25832 0.60996 0.02597 0.0
H568 H 0.30099 0.60188 0.0813 0.0
C569 C 0.26433 0.58714 0.00966 0.0
C570 C 0.28389 0.56986 0.01881 0.0
H571 H 0.24324 0.62303 0.01838 0.0
H572 H 0.25388 0.58319 0.98974 0.0
C573 C 0.29713 0.57564 0.04468 0.0
C574 C 0.4458 0.75247 0.50341 0.0
C575 C 0.42061 0.73901 0.49618 0.0
H576 H 0.48669 0.76326 0.49079 0.0
C577 C 0.41746 0.72634 0.46943 0.0
H578 H 0.4489 0.76245 0.52385 0.0
C579 C 0.43912 0.72682 0.45047 0.0
C580 C 0.46443 0.73994 0.45784 0.0
H581 H 0.39831 0.71581 0.46317 0.0
H582 H 0.43605 0.71665 0.43012 0.0
C583 C 0.46748 0.75292 0.48446 0.0
C584 C 0.38209 0.00195 0.11595 0.0
C585 C 0.39131 0.00574 0.08799 0.0
H586 H 0.3804 0.9762 0.15263 0.0
C587 C 0.40689 0.9859 0.07577 0.0
H588 H 0.37 0.01683 0.12596 0.0
C589 C 0.41306 0.96273 0.09115 0.0
C590 C 0.40351 0.95874 0.11896 0.0
H591 H 0.41435 0.98824 0.0543 0.0
H592 H 0.42503 0.94777 0.08109 0.0
C593 C 0.388 0.97862 0.13121 0.0
C594 C 0.50799 0.91659 0.26926 0.0
C595 C 0.52247 0.89589 0.28129 0.0
H596 H 0.47989 0.927 0.23749 0.0
C597 C 0.52044 0.86946 0.26885 0.0
H598 H 0.50916 0.9372 0.27826 0.0
C599 C 0.50372 0.86363 0.24544 0.0
C600 C 0.48858 0.88408 0.23392 0.0
H601 H 0.53142 0.85307 0.27748 0.0
H602 H 0.50226 0.84288 0.23676 0.0
C603 C 0.49121 0.91074 0.24585 0.0
C604 C 0.18592 0.89584 0.85277 0.0
C605 C 0.18071 0.9228 0.84515 0.0
H606 H 0.18792 0.85393 0.83936 0.0
C607 C 0.17274 0.92782 0.81723 0.0
H608 H 0.19207 0.89125 0.87411 0.0
C609 C 0.17045 0.90641 0.79726 0.0
C610 C 0.17599 0.87952 0.80482 0.0
H611 H 0.16859 0.94837 0.81068 0.0
H612 H 0.16451 0.911 0.77586 0.0
C613 C 0.18355 0.87443 0.83284 0.0
C614 C 0.36317 0.61866 0.63256 0.0
C615 C 0.36702 0.62081 0.66201 0.0
H616 H 0.35959 0.64013 0.59343 0.0
C617 C 0.37273 0.6471 0.67417 0.0
H618 H 0.35885 0.59871 0.62249 0.0
C619 C 0.37319 0.67077 0.65755 0.0
C620 C 0.36793 0.66876 0.62835 0.0
H621 H 0.37605 0.64953 0.69674 0.0
H622 H 0.37681 0.69071 0.66784 0.0
C623 C 0.36361 0.64241 0.61589 0.0
loop_
_geom_bond_atom_site_label_1
_geom_bond_atom_site_label_2
_geom_bond_distance
_geom_bond_site_symmetry_2
_ccdc_geom_bond_type
O0 Cd1 2.300 . S
O0 C7 1.252 1_455 S
Cd1 O0 2.300 . S
Cd1 O9 2.381 . S
Cd1 O10 2.378 . S
O2 Cd3 2.385 . S
O2 C7 1.272 . S
Cd3 O2 2.385 . S
Cd3 O4 2.317 . S
O4 Cd3 2.317 . S
O4 C5 1.232 . S
C5 O4 1.232 . S
C5 O6 1.218 . S
O6 C5 1.218 . S
C7 O0 1.252 1_655 S
C7 O2 1.272 . S
C8 O9 1.258 . S
C8 O10 1.256 . S
O9 Cd1 2.381 . S
O9 C8 1.258 . S
O10 Cd1 2.378 . S
O10 C8 1.256 . S
O11 Cd12 2.300 . S
O11 C18 1.275 . S
Cd12 O11 2.300 . S
Cd12 O20 2.381 . S
Cd12 O21 2.378 . S
O13 Cd14 2.385 . S
O13 C18 1.255 . S
Cd14 O13 2.385 . S
Cd14 O15 2.317 . S
O15 Cd14 2.317 . S
O15 C16 1.232 . S
C16 O15 1.232 . S
C16 O17 1.218 . S
O17 C16 1.218 . S
C18 O11 1.275 . S
C18 O13 1.255 . S
C19 O20 1.258 . S
C19 O21 1.256 . S
O20 Cd12 2.381 . S
O20 C19 1.258 . S
O21 Cd12 2.378 . S
O21 C19 1.256 . S
O22 Cd23 2.300 . S
O22 C29 1.275 . S
Cd23 O22 2.300 . S
Cd23 O31 2.381 . S
Cd23 O32 2.378 . S
O24 Cd25 2.385 . S
O24 C29 1.255 . S
Cd25 O24 2.385 . S
Cd25 O26 2.317 . S
O26 Cd25 2.317 . S
O26 C27 1.232 . S
C27 O26 1.232 . S
C27 O28 1.218 . S
O28 C27 1.218 . S
C29 O22 1.275 . S
C29 O24 1.255 . S
C30 O31 1.258 . S
C30 O32 1.256 . S
O31 Cd23 2.381 . S
O31 C30 1.258 . S
O32 Cd23 2.378 . S
O32 C30 1.256 . S
O33 Cd34 2.300 . S
O33 C40 1.275 . S
Cd34 O33 2.300 . S
Cd34 O42 2.381 . S
Cd34 O43 2.378 . S
O35 Cd36 2.385 1_545 S
O35 C40 1.255 . S
Cd36 O35 2.385 1_565 S
Cd36 O37 2.312 1_565 S
O37 Cd36 2.312 1_545 S
O37 C38 1.229 1_545 S
C38 O37 1.229 1_565 S
C38 O39 1.218 . S
O39 C38 1.218 . S
C40 O33 1.275 . S
C40 O35 1.255 . S
C41 O42 1.258 . S
C41 O43 1.256 . S
O42 Cd34 2.381 . S
O42 C41 1.258 . S
O43 Cd34 2.378 . S
O43 C41 1.256 . S
O44 Cd45 2.300 . S
O44 C51 1.275 1_455 S
Cd45 O44 2.300 . S
Cd45 O53 2.381 . S
Cd45 O54 2.378 . S
O46 Cd47 2.385 . S
O46 C51 1.255 . S
Cd47 O46 2.385 . S
Cd47 O48 2.317 . S
O48 Cd47 2.317 . S
O48 C49 1.232 . S
C49 O48 1.232 . S
C49 O50 1.218 . S
O50 C49 1.218 . S
C51 O44 1.275 1_655 S
C51 O46 1.255 . S
C52 O53 1.258 . S
C52 O54 1.256 . S
O53 Cd45 2.381 . S
O53 C52 1.258 . S
O54 Cd45 2.378 . S
O54 C52 1.256 . S
O55 Cd56 2.300 . S
O55 C62 1.275 . S
Cd56 O55 2.300 . S
Cd56 O64 2.381 . S
Cd56 O65 2.378 . S
O57 Cd58 2.385 . S
O57 C62 1.255 . S
Cd58 O57 2.385 . S
Cd58 O59 2.317 . S
O59 Cd58 2.317 . S
O59 C60 1.232 . S
C60 O59 1.232 . S
C60 O61 1.218 . S
O61 C60 1.218 . S
C62 O55 1.275 . S
C62 O57 1.255 . S
C63 O64 1.258 . S
C63 O65 1.256 . S
O64 Cd56 2.381 . S
O64 C63 1.258 . S
O65 Cd56 2.378 . S
O65 C63 1.256 . S
O66 Cd67 2.300 . S
O66 C73 1.275 . S
Cd67 O66 2.300 . S
Cd67 O75 2.381 . S
Cd67 O76 2.378 . S
O68 Cd69 2.385 . S
O68 C73 1.255 . S
Cd69 O68 2.385 . S
Cd69 O70 2.317 . S
O70 Cd69 2.317 . S
O70 C71 1.232 . S
C71 O70 1.232 . S
C71 O72 1.218 . S
O72 C71 1.218 . S
C73 O66 1.275 . S
C73 O68 1.255 . S
C74 O75 1.258 . S
C74 O76 1.256 . S
O75 Cd67 2.381 . S
O75 C74 1.258 . S
O76 Cd67 2.378 . S
O76 C74 1.256 . S
O77 Cd78 2.300 . S
O77 C84 1.275 . S
Cd78 O77 2.300 . S
Cd78 O86 2.425 . S
Cd78 O87 2.378 1_545 S
O79 Cd80 2.385 . S
O79 C84 1.255 . S
Cd80 O79 2.385 . S
Cd80 O81 2.317 . S
O81 Cd80 2.317 . S
O81 C82 1.232 . S
C82 O81 1.232 . S
C82 O83 1.218 . S
O83 C82 1.218 . S
C84 O77 1.275 . S
C84 O79 1.255 . S
C85 O86 1.252 1_455 S
C85 O87 1.251 1_445 S
O86 Cd78 2.425 . S
O86 C85 1.252 1_655 S
O87 Cd78 2.378 1_565 S
O87 C85 1.251 1_665 S
O88 Cd89 2.300 . S
O88 C95 1.275 . S
Cd89 O88 2.300 . S
Cd89 O97 2.381 . S
Cd89 O98 2.378 . S
O90 Cd91 2.385 . S
O90 C95 1.255 . S
Cd91 O90 2.385 . S
Cd91 O92 2.317 . S
O92 Cd91 2.317 . S
O92 C93 1.232 . S
C93 O92 1.232 . S
C93 O94 1.218 . S
O94 C93 1.218 . S
C95 O88 1.275 . S
C95 O90 1.255 . S
C96 O97 1.258 . S
C96 O98 1.256 . S
O97 Cd89 2.381 . S
O97 C96 1.258 . S
O98 Cd89 2.378 . S
O98 C96 1.256 . S
O99 Cd100 2.300 . S
O99 C106 1.275 . S
Cd100 O99 2.300 . S
Cd100 O108 2.381 . S
Cd100 O109 2.378 . S
O101 Cd102 2.385 . S
O101 C106 1.255 . S
Cd102 O101 2.385 . S
Cd102 O103 2.317 . S
O103 Cd102 2.317 . S
O103 C104 1.232 . S
C104 O103 1.232 . S
C104 O105 1.218 . S
O105 C104 1.218 . S
C106 O99 1.275 . S
C106 O101 1.255 . S
C107 O108 1.258 . S
C107 O109 1.256 . S
O108 Cd100 2.381 . S
O108 C107 1.258 . S
O109 Cd100 2.378 . S
O109 C107 1.256 . S
O110 Cd111 2.300 . S
O110 C117 1.275 . S
Cd111 O110 2.300 . S
Cd111 O119 2.381 . S
Cd111 O120 2.378 . S
O112 Cd113 2.385 . S
O112 C117 1.255 . S
Cd113 O112 2.385 . S
Cd113 O114 2.317 . S
O114 Cd113 2.317 . S
O114 C115 1.232 . S
C115 O114 1.232 . S
C115 O116 1.218 . S
O116 C115 1.218 . S
C117 O110 1.275 . S
C117 O112 1.255 . S
C118 O119 1.258 . S
C118 O120 1.256 . S
O119 Cd111 2.381 . S
O119 C118 1.258 . S
O120 Cd111 2.378 . S
O120 C118 1.256 . S
O121 Cd122 2.300 . S
O121 C128 1.275 . S
Cd122 O121 2.300 . S
Cd122 O130 2.381 . S
Cd122 O131 2.378 . S
O123 Cd124 2.385 . S
O123 C128 1.255 . S
Cd124 O123 2.385 . S
Cd124 O125 2.317 . S
O125 Cd124 2.317 . S
O125 C126 1.232 . S
C126 O125 1.232 . S
C126 O127 1.218 . S
O127 C126 1.218 . S
C128 O121 1.275 . S
C128 O123 1.255 . S
C129 O130 1.258 . S
C129 O131 1.256 . S
O130 Cd122 2.381 . S
O130 C129 1.258 . S
O131 Cd122 2.378 . S
O131 C129 1.256 . S
O132 Cd133 2.300 . S
O132 C139 1.275 . S
Cd133 O132 2.300 . S
Cd133 O141 2.381 . S
Cd133 O142 2.378 . S
O134 Cd135 2.385 . S
O134 C139 1.255 . S
Cd135 O134 2.385 . S
Cd135 O136 2.317 . S
O136 Cd135 2.317 . S
O136 C137 1.232 . S
C137 O136 1.232 . S
C137 O138 1.218 . S
O138 C137 1.218 . S
C139 O132 1.275 . S
C139 O134 1.255 . S
C140 O141 1.258 . S
C140 O142 1.256 . S
O141 Cd133 2.381 . S
O141 C140 1.258 . S
O142 Cd133 2.378 . S
O142 C140 1.256 . S
O143 Cd144 2.300 . S
O143 C150 1.275 . S
Cd144 O143 2.300 . S
Cd144 O152 2.381 . S
Cd144 O153 2.378 . S
O145 Cd146 2.385 . S
O145 C150 1.255 . S
Cd146 O145 2.385 . S
Cd146 O147 2.317 . S
O147 Cd146 2.317 . S
O147 C148 1.232 . S
C148 O147 1.232 . S
C148 O149 1.218 . S
O149 C148 1.218 . S
C150 O143 1.275 . S
C150 O145 1.255 . S
C151 O152 1.258 . S
C151 O153 1.256 . S
O152 Cd144 2.381 . S
O152 C151 1.258 . S
O153 Cd144 2.378 . S
O153 C151 1.256 . S
O154 Cd155 2.300 . S
O154 C161 1.275 . S
Cd155 O154 2.300 . S
Cd155 O163 2.381 . S
Cd155 O164 2.378 . S
O156 Cd157 2.385 . S
O156 C161 1.255 . S
Cd157 O156 2.385 . S
Cd157 O158 2.317 . S
O158 Cd157 2.317 . S
O158 C159 1.232 . S
C159 O158 1.232 . S
C159 O160 1.218 . S
O160 C159 1.218 . S
C161 O154 1.275 . S
C161 O156 1.255 . S
C162 O163 1.258 . S
C162 O164 1.256 . S
O163 Cd155 2.381 . S
O163 C162 1.258 . S
O164 Cd155 2.378 . S
O164 C162 1.256 . S
O165 Cd166 2.300 1_556 S
O165 C172 1.275 . S
Cd166 O165 2.300 1_554 S
Cd166 O174 2.381 . S
Cd166 O175 2.378 . S
O167 Cd168 2.385 . S
O167 C172 1.255 . S
Cd168 O167 2.385 . S
Cd168 O169 2.317 . S
O169 Cd168 2.317 . S
O169 C170 1.232 . S
C170 O169 1.232 . S
C170 O171 1.218 . S
O171 C170 1.218 . S
C172 O165 1.275 . S
C172 O167 1.255 . S
C173 O174 1.258 . S
C173 O175 1.256 . S
O174 Cd166 2.381 . S
O174 C173 1.258 . S
O175 Cd166 2.378 . S
O175 C173 1.256 . S
O176 Cd177 2.300 . S
O176 C183 1.275 . S
Cd177 O176 2.300 . S
Cd177 O185 2.381 . S
Cd177 O186 2.378 . S
O178 Cd179 2.385 . S
O178 C183 1.255 . S
Cd179 O178 2.385 . S
Cd179 O180 2.317 . S
O180 Cd179 2.317 . S
O180 C181 1.232 . S
C181 O180 1.232 . S
C181 O182 1.218 . S
O182 C181 1.218 . S
C183 O176 1.275 . S
C183 O178 1.255 . S
C184 O185 1.258 . S
C184 O186 1.256 . S
O185 Cd177 2.381 . S
O185 C184 1.258 . S
O186 Cd177 2.378 . S
O186 C184 1.256 . S
O187 Cd188 2.300 . S
O187 C194 1.275 . S
Cd188 O187 2.300 . S
Cd188 O196 2.381 . S
Cd188 O197 2.378 . S
O189 Cd190 2.385 . S
O189 C194 1.255 . S
Cd190 O189 2.385 . S
Cd190 O191 2.317 . S
O191 Cd190 2.317 . S
O191 C192 1.232 . S
C192 O191 1.232 . S
C192 O193 1.218 . S
O193 C192 1.218 . S
C194 O187 1.275 . S
C194 O189 1.255 . S
C195 O196 1.258 . S
C195 O197 1.256 . S
O196 Cd188 2.381 . S
O196 C195 1.258 . S
O197 Cd188 2.378 . S
O197 C195 1.256 . S
O198 Cd199 2.300 . S
O198 C205 1.275 . S
Cd199 O198 2.300 . S
Cd199 O207 2.381 . S
Cd199 O208 2.378 . S
O200 Cd201 2.385 . S
O200 C205 1.255 . S
Cd201 O200 2.385 . S
Cd201 O202 2.317 . S
O202 Cd201 2.317 . S
O202 C203 1.232 . S
C203 O202 1.232 . S
C203 O204 1.218 . S
O204 C203 1.218 . S
C205 O198 1.275 . S
C205 O200 1.255 . S
C206 O207 1.258 . S
C206 O208 1.256 . S
O207 Cd199 2.381 . S
O207 C206 1.258 . S
O208 Cd199 2.378 . S
O208 C206 1.256 . S
O209 Cd210 2.300 . S
O209 C216 1.275 . S
Cd210 O209 2.300 . S
Cd210 O218 2.381 . S
Cd210 O219 2.378 . S
O211 Cd212 2.385 . S
O211 C216 1.255 . S
Cd212 O211 2.385 . S
Cd212 O213 2.317 . S
O213 Cd212 2.317 . S
O213 C214 1.232 . S
C214 O213 1.232 . S
C214 O215 1.218 . S
O215 C214 1.218 . S
C216 O209 1.275 . S
C216 O211 1.255 . S
C217 O218 1.258 . S
C217 O219 1.256 . S
O218 Cd210 2.381 . S
O218 C217 1.258 . S
O219 Cd210 2.378 . S
O219 C217 1.256 . S
O220 Cd221 2.300 1_556 S
O220 C227 1.275 . S
Cd221 O220 2.300 1_554 S
Cd221 O229 2.381 . S
Cd221 O230 2.378 . S
O222 Cd223 2.385 . S
O222 C227 1.255 . S
Cd223 O222 2.385 . S
Cd223 O224 2.317 . S
O224 Cd223 2.317 . S
O224 C225 1.232 . S
C225 O224 1.232 . S
C225 O226 1.218 . S
O226 C225 1.218 . S
C227 O220 1.275 . S
C227 O222 1.255 . S
C228 O229 1.258 . S
C228 O230 1.256 . S
O229 Cd221 2.381 . S
O229 C228 1.258 . S
O230 Cd221 2.378 . S
O230 C228 1.256 . S
O231 Cd232 2.300 . S
O231 C238 1.275 . S
Cd232 O231 2.300 . S
Cd232 O240 2.381 . S
Cd232 O241 2.378 . S
O233 Cd234 2.385 . S
O233 C238 1.255 . S
Cd234 O233 2.385 . S
Cd234 O235 2.317 . S
O235 Cd234 2.317 . S
O235 C236 1.232 . S
C236 O235 1.232 . S
C236 O237 1.218 . S
O237 C236 1.218 . S
C238 O231 1.275 . S
C238 O233 1.255 . S
C239 O240 1.258 . S
C239 O241 1.256 . S
O240 Cd232 2.381 . S
O240 C239 1.258 . S
O241 Cd232 2.378 . S
O241 C239 1.256 . S
O242 Cd243 2.300 . S
O242 C249 1.275 . S
Cd243 O242 2.300 . S
Cd243 O251 2.381 . S
Cd243 O252 2.378 . S
O244 Cd245 2.385 . S
O244 C249 1.255 . S
Cd245 O244 2.385 . S
Cd245 O246 2.317 . S
O246 Cd245 2.317 . S
O246 C247 1.232 . S
C247 O246 1.232 . S
C247 O248 1.218 . S
O248 C247 1.218 . S
C249 O242 1.275 . S
C249 O244 1.255 . S
C250 O251 1.258 . S
C250 O252 1.256 . S
O251 Cd243 2.381 . S
O251 C250 1.258 . S
O252 Cd243 2.378 . S
O252 C250 1.256 . S
O253 Cd254 2.300 . S
O253 C260 1.275 1_554 S
Cd254 O253 2.300 . S
Cd254 O262 2.381 . S
Cd254 O263 2.378 . S
O255 Cd256 2.385 . S
O255 C260 1.255 1_554 S
Cd256 O255 2.385 . S
Cd256 O257 2.317 1_554 S
O257 Cd256 2.317 1_556 S
O257 C258 1.232 . S
C258 O257 1.232 . S
C258 O259 1.218 . S
O259 C258 1.218 . S
C260 O253 1.275 1_556 S
C260 O255 1.255 1_556 S
C261 O262 1.258 . S
C261 O263 1.256 . S
O262 Cd254 2.381 . S
O262 C261 1.258 . S
O263 Cd254 2.378 . S
O263 C261 1.256 . S
C264 C265 1.387 1_455 S
C264 H268 0.950 . S
C264 C273 1.390 . S
C265 C264 1.387 1_655 S
C265 C267 1.387 . S
H266 C273 0.950 . S
C267 C265 1.387 . S
C267 C269 1.390 . S
C267 H271 0.950 . S
H268 C264 0.950 . S
C269 C267 1.390 . S
C269 C270 1.387 . S
C269 H272 0.950 . S
C270 C269 1.387 . S
C270 C273 1.387 1_655 S
H271 C267 0.950 . S
H272 C269 0.950 . S
C273 C264 1.390 . S
C273 H266 0.950 . S
C273 C270 1.387 1_455 S
C274 C275 1.387 . S
C274 H278 0.950 . S
C274 C283 1.390 . S
C275 C274 1.387 . S
C275 C277 1.387 . S
H276 C283 0.950 . S
C277 C275 1.387 . S
C277 C279 1.390 . S
C277 H281 0.950 . S
H278 C274 0.950 . S
C279 C277 1.390 . S
C279 C280 1.387 . S
C279 H282 0.950 . S
C280 C279 1.387 . S
C280 C283 1.387 . S
H281 C277 0.950 . S
H282 C279 0.950 . S
C283 C274 1.390 . S
C283 H276 0.950 . S
C283 C280 1.387 . S
C284 C285 1.387 . S
C284 H288 0.950 . S
C284 C293 1.390 . S
C285 C284 1.387 . S
C285 C287 1.387 . S
H286 C293 0.950 . S
C287 C285 1.387 . S
C287 C289 1.390 . S
C287 H291 0.950 . S
H288 C284 0.950 . S
C289 C287 1.390 . S
C289 C290 1.387 . S
C289 H292 0.950 . S
C290 C289 1.387 . S
C290 C293 1.387 . S
H291 C287 0.950 . S
H292 C289 0.950 . S
C293 C284 1.390 . S
C293 H286 0.950 . S
C293 C290 1.387 . S
C294 C295 1.387 . S
C294 H298 0.950 . S
C294 C303 1.390 . S
C295 C294 1.387 . S
C295 C297 1.387 . S
H296 C303 0.950 . S
C297 C295 1.387 . S
C297 C299 1.390 . S
C297 H301 0.950 . S
H298 C294 0.950 . S
C299 C297 1.390 . S
C299 C300 1.387 . S
C299 H302 0.950 . S
C300 C299 1.387 . S
C300 C303 1.387 . S
H301 C297 0.950 . S
H302 C299 0.950 . S
C303 C294 1.390 . S
C303 H296 0.950 . S
C303 C300 1.387 . S
C304 C305 1.387 . S
C304 H308 0.950 . S
C304 C313 1.390 . S
C305 C304 1.387 . S
C305 C307 1.387 . S
H306 C313 0.950 . S
C307 C305 1.387 . S
C307 C309 1.390 . S
C307 H311 0.950 . S
H308 C304 0.950 . S
C309 C307 1.390 . S
C309 C310 1.387 . S
C309 H312 0.950 . S
C310 C309 1.387 . S
C310 C313 1.387 . S
H311 C307 0.950 . S
H312 C309 0.950 . S
C313 C304 1.390 . S
C313 H306 0.950 . S
C313 C310 1.387 . S
C314 C315 1.387 . S
C314 H318 0.950 . S
C314 C323 1.390 . S
C315 C314 1.387 . S
C315 C317 1.387 . S
H316 C323 0.950 . S
C317 C315 1.387 . S
C317 C319 1.390 . S
C317 H321 0.950 . S
H318 C314 0.950 . S
C319 C317 1.390 . S
C319 C320 1.387 . S
C319 H322 0.950 . S
C320 C319 1.387 . S
C320 C323 1.387 . S
H321 C317 0.950 . S
H322 C319 0.950 . S
C323 C314 1.390 . S
C323 H316 0.950 . S
C323 C320 1.387 . S
C324 C325 1.387 . S
C324 H328 0.950 . S
C324 C333 1.390 . S
C325 C324 1.387 . S
C325 C327 1.387 . S
H326 C333 0.950 . S
C327 C325 1.387 . S
C327 C329 1.390 . S
C327 H331 0.950 . S
H328 C324 0.950 . S
C329 C327 1.390 . S
C329 C330 1.387 . S
C329 H332 0.950 . S
C330 C329 1.387 . S
C330 C333 1.387 . S
H331 C327 0.950 . S
H332 C329 0.950 . S
C333 C324 1.390 . S
C333 H326 0.950 . S
C333 C330 1.387 . S
C334 C335 1.387 . S
C334 H338 0.950 . S
C334 C343 1.390 . S
C335 C334 1.387 . S
C335 C337 1.387 . S
H336 C343 0.950 . S
C337 C335 1.387 . S
C337 C339 1.390 . S
C337 H341 0.950 . S
H338 C334 0.950 . S
C339 C337 1.390 . S
C339 C340 1.387 . S
C339 H342 0.950 . S
C340 C339 1.387 . S
C340 C343 1.387 . S
H341 C337 0.950 . S
H342 C339 0.950 . S
C343 C334 1.390 . S
C343 H336 0.950 . S
C343 C340 1.387 . S
C344 C345 1.387 . S
C344 H348 0.950 . S
C344 C353 1.390 . S
C345 C344 1.387 . S
C345 C347 1.387 . S
H346 C353 0.950 . S
C347 C345 1.387 . S
C347 C349 1.390 . S
C347 H351 0.950 . S
H348 C344 0.950 . S
C349 C347 1.390 . S
C349 C350 1.387 . S
C349 H352 0.950 . S
C350 C349 1.387 . S
C350 C353 1.387 . S
H351 C347 0.950 . S
H352 C349 0.950 . S
C353 C344 1.390 . S
C353 H346 0.950 . S
C353 C350 1.387 . S
C354 C355 1.387 . S
C354 H358 0.950 . S
C354 C363 1.390 . S
C355 C354 1.387 . S
C355 C357 1.387 . S
H356 C363 0.950 . S
C357 C355 1.387 . S
C357 C359 1.390 . S
C357 H361 0.950 . S
H358 C354 0.950 . S
C359 C357 1.390 . S
C359 C360 1.387 . S
C359 H362 0.950 . S
C360 C359 1.387 . S
C360 C363 1.387 . S
H361 C357 0.950 . S
H362 C359 0.950 . S
C363 C354 1.390 . S
C363 H356 0.950 . S
C363 C360 1.387 . S
C364 C365 1.387 . S
C364 H368 0.950 . S
C364 C373 1.390 . S
C365 C364 1.387 . S
C365 C367 1.387 1_556 S
H366 C373 0.950 . S
C367 C365 1.387 1_554 S
C367 C369 1.390 . S
C367 H371 0.950 . S
H368 C364 0.950 . S
C369 C367 1.390 . S
C369 C370 1.387 1_554 S
C369 H372 0.950 . S
C370 C369 1.387 1_556 S
C370 C373 1.387 . S
H371 C367 0.950 . S
H372 C369 0.950 . S
C373 C364 1.390 . S
C373 H366 0.950 . S
C373 C370 1.387 . S
C374 C375 1.387 . S
C374 H378 0.950 . S
C374 C383 1.390 . S
C375 C374 1.387 . S
C375 C377 1.387 . S
H376 C383 0.950 . S
C377 C375 1.387 . S
C377 C379 1.390 . S
C377 H381 0.950 . S
H378 C374 0.950 . S
C379 C377 1.390 . S
C379 C380 1.387 . S
C379 H382 0.950 . S
C380 C379 1.387 . S
C380 C383 1.387 . S
H381 C377 0.950 . S
H382 C379 0.950 . S
C383 C374 1.390 . S
C383 H376 0.950 . S
C383 C380 1.387 . S
C384 C385 1.387 . S
C384 H388 0.950 . S
C384 C393 1.390 . S
C385 C384 1.387 . S
C385 C387 1.387 . S
H386 C393 0.950 . S
C387 C385 1.387 . S
C387 C389 1.390 . S
C387 H391 0.950 . S
H388 C384 0.950 . S
C389 C387 1.390 . S
C389 C390 1.387 . S
C389 H392 0.950 . S
C390 C389 1.387 . S
C390 C393 1.387 . S
H391 C387 0.950 . S
H392 C389 0.950 . S
C393 C384 1.390 . S
C393 H386 0.950 . S
C393 C390 1.387 . S
C394 C395 1.387 . S
C394 H398 0.950 . S
C394 C403 1.390 1_455 S
C395 C394 1.387 . S
C395 C397 1.387 . S
H396 C403 0.950 . S
C397 C395 1.387 . S
C397 C399 1.390 1_455 S
C397 H401 0.950 . S
H398 C394 0.950 . S
C399 C397 1.390 1_655 S
C399 C400 1.387 . S
C399 H402 0.950 . S
C400 C399 1.387 . S
C400 C403 1.387 . S
H401 C397 0.950 . S
H402 C399 0.950 . S
C403 C394 1.390 1_655 S
C403 H396 0.950 . S
C403 C400 1.387 . S
C404 C405 1.387 . S
C404 H408 0.950 . S
C404 C413 1.390 . S
C405 C404 1.387 . S
C405 C407 1.387 . S
H406 C413 0.950 . S
C407 C405 1.387 . S
C407 C409 1.390 . S
C407 H411 0.950 . S
H408 C404 0.950 . S
C409 C407 1.390 . S
C409 C410 1.387 . S
C409 H412 0.950 . S
C410 C409 1.387 . S
C410 C413 1.387 . S
H411 C407 0.950 . S
H412 C409 0.950 . S
C413 C404 1.390 . S
C413 H406 0.950 . S
C413 C410 1.387 . S
C414 C415 1.387 . S
C414 H418 0.950 1_565 S
C414 C423 1.390 . S
C415 C414 1.387 . S
C415 C417 1.387 . S
H416 C423 0.950 . S
C417 C415 1.387 . S
C417 C419 1.390 . S
C417 H421 0.950 . S
H418 C414 0.950 1_545 S
C419 C417 1.390 . S
C419 C420 1.387 . S
C419 H422 0.950 . S
C420 C419 1.387 . S
C420 C423 1.387 . S
H421 C417 0.950 . S
H422 C419 0.950 . S
C423 C414 1.390 . S
C423 H416 0.950 . S
C423 C420 1.387 . S
C424 C425 1.387 . S
C424 H428 0.950 . S
C424 C433 1.390 . S
C425 C424 1.387 . S
C425 C427 1.387 . S
H426 C433 0.950 . S
C427 C425 1.387 . S
C427 C429 1.390 . S
C427 H431 0.950 . S
H428 C424 0.950 . S
C429 C427 1.390 . S
C429 C430 1.387 . S
C429 H432 0.950 . S
C430 C429 1.387 . S
C430 C433 1.387 . S
H431 C427 0.950 . S
H432 C429 0.950 . S
C433 C424 1.390 . S
C433 H426 0.950 . S
C433 C430 1.387 . S
C434 C435 1.387 . S
C434 H438 0.950 . S
C434 C443 1.390 . S
C435 C434 1.387 . S
C435 C437 1.387 . S
H436 C443 0.950 . S
C437 C435 1.387 . S
C437 C439 1.390 . S
C437 H441 0.950 . S
H438 C434 0.950 . S
C439 C437 1.390 . S
C439 C440 1.387 . S
C439 H442 0.950 . S
C440 C439 1.387 . S
C440 C443 1.387 . S
H441 C437 0.950 . S
H442 C439 0.950 . S
C443 C434 1.390 . S
C443 H436 0.950 . S
C443 C440 1.387 . S
C444 C445 1.387 . S
C444 H448 0.950 . S
C444 C453 1.390 . S
C445 C444 1.387 . S
C445 C447 1.387 . S
H446 C453 0.950 . S
C447 C445 1.387 . S
C447 C449 1.390 . S
C447 H451 0.950 . S
H448 C444 0.950 . S
C449 C447 1.390 . S
C449 C450 1.387 . S
C449 H452 0.950 . S
C450 C449 1.387 . S
C450 C453 1.387 . S
H451 C447 0.950 . S
H452 C449 0.950 . S
C453 C444 1.390 . S
C453 H446 0.950 . S
C453 C450 1.387 . S
C454 C455 1.387 . S
C454 H458 0.950 . S
C454 C463 1.390 . S
C455 C454 1.387 . S
C455 C457 1.387 . S
H456 C463 0.950 . S
C457 C455 1.387 . S
C457 C459 1.390 . S
C457 H461 0.950 . S
H458 C454 0.950 . S
C459 C457 1.390 . S
C459 C460 1.387 . S
C459 H462 0.950 . S
C460 C459 1.387 . S
C460 C463 1.387 . S
H461 C457 0.950 . S
H462 C459 0.950 . S
C463 C454 1.390 . S
C463 H456 0.950 . S
C463 C460 1.387 . S
C464 C465 1.387 . S
C464 H468 0.950 . S
C464 C473 1.390 . S
C465 C464 1.387 . S
C465 C467 1.387 . S
H466 C473 0.950 . S
C467 C465 1.387 . S
C467 C469 1.390 . S
C467 H471 0.950 . S
H468 C464 0.950 . S
C469 C467 1.390 . S
C469 C470 1.387 . S
C469 H472 0.950 . S
C470 C469 1.387 . S
C470 C473 1.387 . S
H471 C467 0.950 . S
H472 C469 0.950 . S
C473 C464 1.390 . S
C473 H466 0.950 . S
C473 C470 1.387 . S
C474 C475 1.387 . S
C474 H478 0.950 . S
C474 C483 1.390 . S
C475 C474 1.387 . S
C475 C477 1.387 . S
H476 C483 0.950 . S
C477 C475 1.387 . S
C477 C479 1.390 . S
C477 H481 0.950 . S
H478 C474 0.950 . S
C479 C477 1.390 . S
C479 C480 1.387 . S
C479 H482 0.950 . S
C480 C479 1.387 . S
C480 C483 1.387 . S
H481 C477 0.950 . S
H482 C479 0.950 . S
C483 C474 1.390 . S
C483 H476 0.950 . S
C483 C480 1.387 . S
C484 C485 1.387 . S
C484 H488 0.950 . S
C484 C493 1.390 . S
C485 C484 1.387 . S
C485 C487 1.387 . S
H486 C493 0.950 . S
C487 C485 1.387 . S
C487 C489 1.390 . S
C487 H491 0.950 . S
H488 C484 0.950 . S
C489 C487 1.390 . S
C489 C490 1.387 . S
C489 H492 0.950 . S
C490 C489 1.387 . S
C490 C493 1.387 . S
H491 C487 0.950 . S
H492 C489 0.950 . S
C493 C484 1.390 . S
C493 H486 0.950 . S
C493 C490 1.387 . S
C494 C495 1.387 . S
C494 H498 0.950 . S
C494 C503 1.390 . S
C495 C494 1.387 . S
C495 C497 1.387 . S
H496 C503 0.950 . S
C497 C495 1.387 . S
C497 C499 1.390 . S
C497 H501 0.950 . S
H498 C494 0.950 . S
C499 C497 1.390 . S
C499 C500 1.387 . S
C499 H502 0.950 . S
C500 C499 1.387 . S
C500 C503 1.387 . S
H501 C497 0.950 . S
H502 C499 0.950 . S
C503 C494 1.390 . S
C503 H496 0.950 . S
C503 C500 1.387 . S
C504 C505 1.387 . S
C504 H508 0.950 . S
C504 C513 1.390 . S
C505 C504 1.387 . S
C505 C507 1.387 . S
H506 C513 0.950 . S
C507 C505 1.387 . S
C507 C509 1.390 . S
C507 H511 0.950 . S
H508 C504 0.950 . S
C509 C507 1.390 . S
C509 C510 1.387 . S
C509 H512 0.950 . S
C510 C509 1.387 . S
C510 C513 1.387 . S
H511 C507 0.950 . S
H512 C509 0.950 . S
C513 C504 1.390 . S
C513 H506 0.950 . S
C513 C510 1.387 . S
C514 C515 1.387 . S
C514 H518 0.950 . S
C514 C523 1.390 . S
C515 C514 1.387 . S
C515 C517 1.387 . S
H516 C523 0.950 . S
C517 C515 1.387 . S
C517 C519 1.390 . S
C517 H521 0.950 . S
H518 C514 0.950 . S
C519 C517 1.390 . S
C519 C520 1.387 . S
C519 H522 0.950 . S
C520 C519 1.387 . S
C520 C523 1.387 . S
H521 C517 0.950 . S
H522 C519 0.950 . S
C523 C514 1.390 . S
C523 H516 0.950 . S
C523 C520 1.387 . S
C524 C525 1.387 . S
C524 H528 0.950 . S
C524 C533 1.390 . S
C525 C524 1.387 . S
C525 C527 1.387 . S
H526 C533 0.950 . S
C527 C525 1.387 . S
C527 C529 1.390 . S
C527 H531 0.950 . S
H528 C524 0.950 . S
C529 C527 1.390 . S
C529 C530 1.387 . S
C529 H532 0.950 . S
C530 C529 1.387 . S
C530 C533 1.387 . S
H531 C527 0.950 . S
H532 C529 0.950 . S
C533 C524 1.390 . S
C533 H526 0.950 . S
C533 C530 1.387 . S
C534 C535 1.387 . S
C534 H538 0.950 . S
C534 C543 1.390 . S
C535 C534 1.387 . S
C535 C537 1.387 . S
H536 C543 0.950 . S
C537 C535 1.387 . S
C537 C539 1.390 . S
C537 H541 0.950 . S
H538 C534 0.950 . S
C539 C537 1.390 . S
C539 C540 1.387 . S
C539 H542 0.950 . S
C540 C539 1.387 . S
C540 C543 1.387 . S
H541 C537 0.950 . S
H542 C539 0.950 . S
C543 C534 1.390 . S
C543 H536 0.950 . S
C543 C540 1.387 . S
C544 C545 1.387 . S
C544 H548 0.950 . S
C544 C553 1.390 . S
C545 C544 1.387 . S
C545 C547 1.387 . S
H546 C553 0.950 . S
C547 C545 1.387 . S
C547 C549 1.390 . S
C547 H551 0.950 . S
H548 C544 0.950 . S
C549 C547 1.390 . S
C549 C550 1.387 . S
C549 H552 0.950 . S
C550 C549 1.387 . S
C550 C553 1.387 . S
H551 C547 0.950 . S
H552 C549 0.950 . S
C553 C544 1.390 . S
C553 H546 0.950 . S
C553 C550 1.387 . S
C554 C555 1.387 . S
C554 H558 0.950 . S
C554 C563 1.390 . S
C555 C554 1.387 . S
C555 C557 1.387 . S
H556 C563 0.950 . S
C557 C555 1.387 . S
C557 C559 1.390 . S
C557 H561 0.950 . S
H558 C554 0.950 . S
C559 C557 1.390 . S
C559 C560 1.387 . S
C559 H562 0.950 . S
C560 C559 1.387 . S
C560 C563 1.387 . S
H561 C557 0.950 . S
H562 C559 0.950 . S
C563 C554 1.390 . S
C563 H556 0.950 . S
C563 C560 1.387 . S
C564 C565 1.387 . S
C564 H568 0.950 . S
C564 C573 1.390 . S
C565 C564 1.387 . S
C565 C567 1.387 . S
H566 C573 0.950 . S
C567 C565 1.387 . S
C567 C569 1.390 . S
C567 H571 0.950 . S
H568 C564 0.950 . S
C569 C567 1.390 . S
C569 C570 1.386 . S
C569 H572 0.950 . S
C570 C569 1.386 . S
C570 C573 1.386 . S
H571 C567 0.950 . S
H572 C569 0.950 . S
C573 C564 1.390 . S
C573 H566 0.950 . S
C573 C570 1.386 . S
C574 C575 1.387 . S
C574 H578 0.950 . S
C574 C583 1.390 . S
C575 C574 1.387 . S
C575 C577 1.387 . S
H576 C583 0.950 . S
C577 C575 1.387 . S
C577 C579 1.390 . S
C577 H581 0.950 . S
H578 C574 0.950 . S
C579 C577 1.390 . S
C579 C580 1.387 . S
C579 H582 0.950 . S
C580 C579 1.387 . S
C580 C583 1.387 . S
H581 C577 0.950 . S
H582 C579 0.950 . S
C583 C574 1.390 . S
C583 H576 0.950 . S
C583 C580 1.387 . S
C584 C585 1.391 . S
C584 H588 0.954 . S
C584 C593 1.382 1_545 S
C585 C584 1.391 . S
C585 C587 1.387 . S
H586 C593 0.950 . S
C587 C585 1.387 . S
C587 C589 1.390 1_545 S
C587 H591 0.950 . S
H588 C584 0.954 . S
C589 C587 1.390 1_565 S
C589 C590 1.387 . S
C589 H592 0.950 . S
C590 C589 1.387 . S
C590 C593 1.387 . S
H591 C587 0.950 . S
H592 C589 0.950 . S
C593 C584 1.382 1_565 S
C593 H586 0.950 . S
C593 C590 1.387 . S
C594 C595 1.387 . S
C594 H598 0.950 . S
C594 C603 1.390 . S
C595 C594 1.387 . S
C595 C597 1.387 . S
H596 C603 0.950 . S
C597 C595 1.387 . S
C597 C599 1.390 . S
C597 H601 0.950 . S
H598 C594 0.950 . S
C599 C597 1.390 . S
C599 C600 1.387 . S
C599 H602 0.950 . S
C600 C599 1.387 . S
C600 C603 1.387 . S
H601 C597 0.950 . S
H602 C599 0.950 . S
C603 C594 1.390 . S
C603 H596 0.950 . S
C603 C600 1.387 . S
C604 C605 1.387 . S
C604 H608 0.950 . S
C604 C613 1.390 . S
C605 C604 1.387 . S
C605 C607 1.387 . S
H606 C613 0.950 . S
C607 C605 1.387 . S
C607 C609 1.390 . S
C607 H611 0.950 . S
H608 C604 0.950 . S
C609 C607 1.390 . S
C609 C610 1.387 . S
C609 H612 0.950 . S
C610 C609 1.387 . S
C610 C613 1.387 . S
H611 C607 0.950 . S
H612 C609 0.950 . S
C613 C604 1.390 . S
C613 H606 0.950 . S
C613 C610 1.387 . S
C614 C615 1.387 . S
C614 H618 0.950 . S
C614 C623 1.390 . S
C615 C614 1.387 . S
C615 C617 1.387 . S
H616 C623 0.950 . S
C617 C615 1.387 . S
C617 C619 1.390 . S
C617 H621 0.950 . S
H618 C614 0.950 . S
C619 C617 1.390 . S
C619 C620 1.387 . S
C619 H622 0.950 . S
C620 C619 1.387 . S
C620 C623 1.387 . S
H621 C617 0.950 . S
H622 C619 0.950 . S
C623 C614 1.390 . S
C623 H616 0.950 . S
C623 C620 1.387 . S
C265 C51 1.748 . S
C270 C7 1.761 . S
C275 C62 1.556 . S
C280 C16 1.255 . S
C285 C29 1.712 . S
C290 C73 1.708 . S
C295 C82 1.256 . S
C300 C40 1.473 . S
C305 C95 1.875 . S
C310 C126 1.424 . S
C315 C115 1.411 . S
C320 C106 1.544 . S
C325 C137 1.682 . S
C330 C181 1.720 . S
C335 C192 1.161 . S
C340 C150 1.477 . S
C345 C205 1.454 . S
C350 C161 1.477 . S
C355 C170 1.277 . S
C360 C216 1.344 . S
C365 C260 1.520 . S
C370 C225 1.612 . S
C375 C249 1.408 . S
C380 C236 1.413 . S
C385 C217 1.687 . S
C390 C8 1.686 . S
C395 C184 1.969 . S
C400 C18 1.851 . S
C405 C27 1.853 . S
C410 C195 1.928 . S
C415 C38 1.564 . S
C420 C206 1.648 . S
C425 C52 1.768 . S
C430 C148 1.609 . S
C435 C162 1.828 . S
C440 C60 1.911 . S
C445 C71 1.743 . S
C450 C172 1.816 . S
C455 C85 1.775 1_565 S
C460 C140 1.769 . S
C465 C41 1.684 . S
C470 C261 1.600 . S
C475 C5 1.661 . S
C480 C238 1.776 . S
C485 C19 1.602 . S
C490 C228 1.612 . S
C495 C30 1.923 . S
C500 C247 1.449 . S
C505 C63 1.624 . S
C510 C250 1.598 . S
C515 C74 1.876 . S
C520 C258 1.310 . S
C525 C239 1.771 . S
C530 C84 1.677 . S
C535 C49 1.745 . S
C540 C227 1.799 . S
C545 C93 1.874 . S
C550 C183 1.941 . S
C555 C139 1.900 . S
C560 C104 1.429 . S
C565 C96 1.902 . S
C570 C151 1.923 1_554 S
C575 C118 1.783 . S
C580 C159 1.456 . S
C585 C173 1.766 . S
C590 C129 1.721 . S
C595 C203 1.631 . S
C600 C128 1.871 . S
C605 C214 1.856 1_565 S
C610 C107 1.785 . S
C615 C194 1.965 . S
C620 C117 1.964 . S
