# Generated by pormake.
# Topology ict, (4)-cn, num edge types: 1
# Building blocks:
#     Node 0, Type 0, BuildingBlock: CEKHIL_clean_sbu_0, # of connection points: 4
#     Node 1, Type 0, BuildingBlock: CEKHIL_clean_sbu_0, # of connection points: 4
#     Node 2, Type 0, BuildingBlock: CEKHIL_clean_sbu_0, # of connection points: 4
#     Node 3, Type 0, BuildingBlock: CEKHIL_clean_sbu_0, # of connection points: 4
#     Node 4, Type 0, BuildingBlock: CEKHIL_clean_sbu_0, # of connection points: 4
#     Node 5, Type 0, BuildingBlock: CEKHIL_clean_sbu_0, # of connection points: 4
#     Node 6, Type 0, BuildingBlock: CEKHIL_clean_sbu_0, # of connection points: 4
#     Node 7, Type 0, BuildingBlock: CEKHIL_clean_sbu_0, # of connection points: 4
#     Node 8, Type 0, BuildingBlock: CEKHIL_clean_sbu_0, # of connection points: 4
#     Node 9, Type 0, BuildingBlock: CEKHIL_clean_sbu_0, # of connection points: 4
#     Node 10, Type 0, BuildingBlock: CEKHIL_clean_sbu_0, # of connection points: 4
#     Node 11, Type 0, BuildingBlock: CEKHIL_clean_sbu_0, # of connection points: 4
#     Node 12, Type 0, BuildingBlock: CEKHIL_clean_sbu_0, # of connection points: 4
#     Node 13, Type 0, BuildingBlock: CEKHIL_clean_sbu_0, # of connection points: 4
#     Node 14, Type 0, BuildingBlock: CEKHIL_clean_sbu_0, # of connection points: 4
#     Node 15, Type 0, BuildingBlock: CEKHIL_clean_sbu_0, # of connection points: 4
#     Node 16, Type 0, BuildingBlock: CEKHIL_clean_sbu_0, # of connection points: 4
#     Node 17, Type 0, BuildingBlock: CEKHIL_clean_sbu_0, # of connection points: 4
#     Node 18, Type 0, BuildingBlock: CEKHIL_clean_sbu_0, # of connection points: 4
#     Node 19, Type 0, BuildingBlock: CEKHIL_clean_sbu_0, # of connection points: 4
#     Node 20, Type 0, BuildingBlock: CEKHIL_clean_sbu_0, # of connection points: 4
#     Node 21, Type 0, BuildingBlock: CEKHIL_clean_sbu_0, # of connection points: 4
#     Node 22, Type 0, BuildingBlock: CEKHIL_clean_sbu_0, # of connection points: 4
#     Node 23, Type 0, BuildingBlock: CEKHIL_clean_sbu_0, # of connection points: 4
#     Node 24, Type 0, BuildingBlock: CEKHIL_clean_sbu_0, # of connection points: 4
#     Node 25, Type 0, BuildingBlock: CEKHIL_clean_sbu_0, # of connection points: 4
#     Node 26, Type 0, BuildingBlock: CEKHIL_clean_sbu_0, # of connection points: 4
#     Node 27, Type 0, BuildingBlock: CEKHIL_clean_sbu_0, # of connection points: 4
#     Node 28, Type 0, BuildingBlock: CEKHIL_clean_sbu_0, # of connection points: 4
#     Node 29, Type 0, BuildingBlock: CEKHIL_clean_sbu_0, # of connection points: 4
#     Node 30, Type 0, BuildingBlock: CEKHIL_clean_sbu_0, # of connection points: 4
#     Node 31, Type 0, BuildingBlock: CEKHIL_clean_sbu_0, # of connection points: 4
#     Node 32, Type 0, BuildingBlock: CEKHIL_clean_sbu_0, # of connection points: 4
#     Node 33, Type 0, BuildingBlock: CEKHIL_clean_sbu_0, # of connection points: 4
#     Node 34, Type 0, BuildingBlock: CEKHIL_clean_sbu_0, # of connection points: 4
#     Node 35, Type 0, BuildingBlock: CEKHIL_clean_sbu_0, # of connection points: 4
#     Edge 36, Type (0, 0), BuildingBlock: KIFKEQ_clean_linker_1, # of connection points: 2
#     Edge 37, Type (0, 0), BuildingBlock: KIFKEQ_clean_linker_1, # of connection points: 2
#     Edge 38, Type (0, 0), BuildingBlock: KIFKEQ_clean_linker_1, # of connection points: 2
#     Edge 39, Type (0, 0), BuildingBlock: KIFKEQ_clean_linker_1, # of connection points: 2
#     Edge 40, Type (0, 0), BuildingBlock: KIFKEQ_clean_linker_1, # of connection points: 2
#     Edge 41, Type (0, 0), BuildingBlock: KIFKEQ_clean_linker_1, # of connection points: 2
#     Edge 42, Type (0, 0), BuildingBlock: KIFKEQ_clean_linker_1, # of connection points: 2
#     Edge 43, Type (0, 0), BuildingBlock: KIFKEQ_clean_linker_1, # of connection points: 2
#     Edge 44, Type (0, 0), BuildingBlock: KIFKEQ_clean_linker_1, # of connection points: 2
#     Edge 45, Type (0, 0), BuildingBlock: KIFKEQ_clean_linker_1, # of connection points: 2
#     Edge 46, Type (0, 0), BuildingBlock: KIFKEQ_clean_linker_1, # of connection points: 2
#     Edge 47, Type (0, 0), BuildingBlock: KIFKEQ_clean_linker_1, # of connection points: 2
#     Edge 48, Type (0, 0), BuildingBlock: KIFKEQ_clean_linker_1, # of connection points: 2
#     Edge 49, Type (0, 0), BuildingBlock: KIFKEQ_clean_linker_1, # of connection points: 2
#     Edge 50, Type (0, 0), BuildingBlock: KIFKEQ_clean_linker_1, # of connection points: 2
#     Edge 51, Type (0, 0), BuildingBlock: KIFKEQ_clean_linker_1, # of connection points: 2
#     Edge 52, Type (0, 0), BuildingBlock: KIFKEQ_clean_linker_1, # of connection points: 2
#     Edge 53, Type (0, 0), BuildingBlock: KIFKEQ_clean_linker_1, # of connection points: 2
#     Edge 54, Type (0, 0), BuildingBlock: KIFKEQ_clean_linker_1, # of connection points: 2
#     Edge 55, Type (0, 0), BuildingBlock: KIFKEQ_clean_linker_1, # of connection points: 2
#     Edge 56, Type (0, 0), BuildingBlock: KIFKEQ_clean_linker_1, # of connection points: 2
#     Edge 57, Type (0, 0), BuildingBlock: KIFKEQ_clean_linker_1, # of connection points: 2
#     Edge 58, Type (0, 0), BuildingBlock: KIFKEQ_clean_linker_1, # of connection points: 2
#     Edge 59, Type (0, 0), BuildingBlock: KIFKEQ_clean_linker_1, # of connection points: 2
#     Edge 60, Type (0, 0), BuildingBlock: KIFKEQ_clean_linker_1, # of connection points: 2
#     Edge 61, Type (0, 0), BuildingBlock: KIFKEQ_clean_linker_1, # of connection points: 2
#     Edge 62, Type (0, 0), BuildingBlock: KIFKEQ_clean_linker_1, # of connection points: 2
#     Edge 63, Type (0, 0), BuildingBlock: KIFKEQ_clean_linker_1, # of connection points: 2
#     Edge 64, Type (0, 0), BuildingBlock: KIFKEQ_clean_linker_1, # of connection points: 2
#     Edge 65, Type (0, 0), BuildingBlock: KIFKEQ_clean_linker_1, # of connection points: 2
#     Edge 66, Type (0, 0), BuildingBlock: KIFKEQ_clean_linker_1, # of connection points: 2
#     Edge 67, Type (0, 0), BuildingBlock: KIFKEQ_clean_linker_1, # of connection points: 2
#     Edge 68, Type (0, 0), BuildingBlock: KIFKEQ_clean_linker_1, # of connection points: 2
#     Edge 69, Type (0, 0), BuildingBlock: KIFKEQ_clean_linker_1, # of connection points: 2
#     Edge 70, Type (0, 0), BuildingBlock: KIFKEQ_clean_linker_1, # of connection points: 2
#     Edge 71, Type (0, 0), BuildingBlock: KIFKEQ_clean_linker_1, # of connection points: 2
#     Edge 72, Type (0, 0), BuildingBlock: KIFKEQ_clean_linker_1, # of connection points: 2
#     Edge 73, Type (0, 0), BuildingBlock: KIFKEQ_clean_linker_1, # of connection points: 2
#     Edge 74, Type (0, 0), BuildingBlock: KIFKEQ_clean_linker_1, # of connection points: 2
#     Edge 75, Type (0, 0), BuildingBlock: KIFKEQ_clean_linker_1, # of connection points: 2
#     Edge 76, Type (0, 0), BuildingBlock: KIFKEQ_clean_linker_1, # of connection points: 2
#     Edge 77, Type (0, 0), BuildingBlock: KIFKEQ_clean_linker_1, # of connection points: 2
#     Edge 78, Type (0, 0), BuildingBlock: KIFKEQ_clean_linker_1, # of connection points: 2
#     Edge 79, Type (0, 0), BuildingBlock: KIFKEQ_clean_linker_1, # of connection points: 2
#     Edge 80, Type (0, 0), BuildingBlock: KIFKEQ_clean_linker_1, # of connection points: 2
#     Edge 81, Type (0, 0), BuildingBlock: KIFKEQ_clean_linker_1, # of connection points: 2
#     Edge 82, Type (0, 0), BuildingBlock: KIFKEQ_clean_linker_1, # of connection points: 2
#     Edge 83, Type (0, 0), BuildingBlock: KIFKEQ_clean_linker_1, # of connection points: 2
#     Edge 84, Type (0, 0), BuildingBlock: KIFKEQ_clean_linker_1, # of connection points: 2
#     Edge 85, Type (0, 0), BuildingBlock: KIFKEQ_clean_linker_1, # of connection points: 2
#     Edge 86, Type (0, 0), BuildingBlock: KIFKEQ_clean_linker_1, # of connection points: 2
#     Edge 87, Type (0, 0), BuildingBlock: KIFKEQ_clean_linker_1, # of connection points: 2
#     Edge 88, Type (0, 0), BuildingBlock: KIFKEQ_clean_linker_1, # of connection points: 2
#     Edge 89, Type (0, 0), BuildingBlock: KIFKEQ_clean_linker_1, # of connection points: 2
#     Edge 90, Type (0, 0), BuildingBlock: KIFKEQ_clean_linker_1, # of connection points: 2
#     Edge 91, Type (0, 0), BuildingBlock: KIFKEQ_clean_linker_1, # of connection points: 2
#     Edge 92, Type (0, 0), BuildingBlock: KIFKEQ_clean_linker_1, # of connection points: 2
#     Edge 93, Type (0, 0), BuildingBlock: KIFKEQ_clean_linker_1, # of connection points: 2
#     Edge 94, Type (0, 0), BuildingBlock: KIFKEQ_clean_linker_1, # of connection points: 2
#     Edge 95, Type (0, 0), BuildingBlock: KIFKEQ_clean_linker_1, # of connection points: 2
#     Edge 96, Type (0, 0), BuildingBlock: KIFKEQ_clean_linker_1, # of connection points: 2
#     Edge 97, Type (0, 0), BuildingBlock: KIFKEQ_clean_linker_1, # of connection points: 2
#     Edge 98, Type (0, 0), BuildingBlock: KIFKEQ_clean_linker_1, # of connection points: 2
#     Edge 99, Type (0, 0), BuildingBlock: KIFKEQ_clean_linker_1, # of connection points: 2
#     Edge 100, Type (0, 0), BuildingBlock: KIFKEQ_clean_linker_1, # of connection points: 2
#     Edge 101, Type (0, 0), BuildingBlock: KIFKEQ_clean_linker_1, # of connection points: 2
#     Edge 102, Type (0, 0), BuildingBlock: KIFKEQ_clean_linker_1, # of connection points: 2
#     Edge 103, Type (0, 0), BuildingBlock: KIFKEQ_clean_linker_1, # of connection points: 2
#     Edge 104, Type (0, 0), BuildingBlock: KIFKEQ_clean_linker_1, # of connection points: 2
#     Edge 105, Type (0, 0), BuildingBlock: KIFKEQ_clean_linker_1, # of connection points: 2
#     Edge 106, Type (0, 0), BuildingBlock: KIFKEQ_clean_linker_1, # of connection points: 2
#     Edge 107, Type (0, 0), BuildingBlock: KIFKEQ_clean_linker_1, # of connection points: 2
# Relax obj value: 0.096
# Max RMSD: 0.121
# Mean RMSD: 0.121
data_MOF--net-ict--node1-CEKHIL_clean_sbu_0--edge1-KIFKEQ_clean_linker_1
_symmetry_space_group_name_H-M    P1
_symmetry_Int_Tables_number       1
_symmetry_cell_setting            triclinic
loop_
_symmetry_equiv_pos_as_xyz
'x, y, z'
_cell_length_a     65.407263
_cell_length_b     65.402056
_cell_length_c     37.470958
_cell_angle_alpha  89.992714
_cell_angle_beta   90.006665
_cell_angle_gamma 120.01639
loop_
_atom_site_label
_atom_site_type_symbol
_atom_site_fract_x
_atom_site_fract_y
_atom_site_fract_z
_atom_type_partial_charge
Co0 Co 0.23413 0.21778 0.04464 0.0
O1 O 0.24465 0.22201 0.99574 0.0
O2 O 0.2681 0.23782 0.04244 0.0
C3 C 0.20359 0.22401 0.03417 0.0
O4 O 0.22993 0.21824 0.09895 0.0
Co5 Co 0.18437 0.17814 0.06763 0.0
O6 O 0.19135 0.19656 0.11235 0.0
C7 C 0.22128 0.16639 0.04817 0.0
C8 C 0.2659 0.23507 0.008 0.0
C9 C 0.21258 0.21117 0.12112 0.0
O10 O 0.23711 0.18846 0.04747 0.0
O11 O 0.19931 0.15903 0.05342 0.0
O12 O 0.22477 0.24185 0.03857 0.0
O13 O 0.20195 0.20353 0.03425 0.0
Co14 Co 0.78129 0.01746 0.04818 0.0
O15 O 0.77789 0.02252 0.9983 0.0
O16 O 0.76329 0.03349 0.04279 0.0
C17 C 0.77267 0.97959 0.04147 0.0
O18 O 0.78013 0.01435 0.1029 0.0
Co19 Co 0.81855 0.00487 0.07514 0.0
O20 O 0.79876 0.99469 0.11868 0.0
C21 C 0.83357 0.05381 0.05236 0.0
C22 C 0.76599 0.03246 0.00856 0.0
C23 C 0.78541 0.00309 0.12605 0.0
O24 O 0.81189 0.0488 0.04992 0.0
O25 O 0.83958 0.03842 0.05983 0.0
O26 O 0.75568 0.9844 0.04382 0.0
O27 O 0.7937 0.9976 0.04102 0.0
Co28 Co 0.9866 0.77 0.04228 0.0
O29 O 0.98241 0.7589 0.99388 0.0
O30 O 0.97257 0.73585 0.04145 0.0
C31 C 0.02374 0.80059 0.03418 0.0
O32 O 0.98923 0.77557 0.09658 0.0
Co33 Co 0.99494 0.82041 0.05771 0.0
O34 O 1.00134 0.81388 0.10682 0.0
C35 C 0.94922 0.78294 0.03027 0.0
C36 C 0.97337 0.73774 0.0068 0.0
C37 C 0.99629 0.79342 0.11784 0.0
O38 O 0.95427 0.76711 0.04016 0.0
O39 O 0.9641 0.8051 0.03144 0.0
O40 O 0.02043 0.77957 0.04045 0.0
O41 O 0.00478 0.80175 0.03072 0.0
Co42 Co 0.21411 0.23252 0.46288 0.0
O43 O 0.21776 0.24244 0.51206 0.0
O44 O 0.23355 0.26656 0.46607 0.0
C45 C 0.22108 0.20239 0.47275 0.0
O46 O 0.21512 0.229 0.40848 0.0
Co47 Co 0.17545 0.1826 0.43848 0.0
O48 O 0.19426 0.19053 0.39406 0.0
C49 C 0.16241 0.21846 0.45867 0.0
C50 C 0.2306 0.2639 0.50044 0.0
C51 C 0.20857 0.21195 0.38587 0.0
O52 O 0.18433 0.23469 0.45993 0.0
O53 O 0.1556 0.19667 0.45286 0.0
O54 O 0.23866 0.2238 0.46896 0.0
O55 O 0.20041 0.20028 0.47242 0.0
Co56 Co 0.76683 0.98409 0.46784 0.0
O57 O 0.75765 0.97841 0.51741 0.0
O58 O 0.73282 0.96861 0.47203 0.0
C59 C 0.79654 0.02157 0.47638 0.0
O60 O 0.76937 0.98798 0.41329 0.0
Co61 Co 0.81652 0.99612 0.44144 0.0
O62 O 0.80767 0.00688 0.39771 0.0
C63 C 0.78189 0.94718 0.46342 0.0
C64 C 0.736 0.969 0.50635 0.0
C65 C 0.78602 0.99904 0.39025 0.0
O66 O 0.7654 0.95248 0.46537 0.0
O67 O 0.80344 0.96241 0.45651 0.0
O68 O 0.77493 0.01725 0.47325 0.0
O69 O 0.79913 0.0033 0.47612 0.0
Co70 Co 0.01547 0.78162 0.46149 0.0
O71 O 0.02004 0.77556 0.51018 0.0
O72 O 0.03008 0.76204 0.46322 0.0
C73 C 0.97807 0.77419 0.46926 0.0
O74 O 0.01238 0.7838 0.40706 0.0
Co75 Co 0.00616 0.82297 0.44511 0.0
O76 O 0.99771 0.80799 0.39739 0.0
C77 C 0.05232 0.83238 0.47221 0.0
C78 C 0.02926 0.76349 0.49782 0.0
C79 C 0.00345 0.79311 0.38629 0.0
O80 O 0.04752 0.81149 0.46285 0.0
O81 O 0.03722 0.83937 0.47077 0.0
O82 O 0.98194 0.75677 0.46394 0.0
O83 O 0.99669 0.79463 0.47241 0.0
Co84 Co 0.76785 0.78548 0.9678 0.0
O85 O 0.75674 0.77853 0.01625 0.0
O86 O 0.73365 0.76617 0.96863 0.0
C87 C 0.79775 0.77782 0.97559 0.0
O88 O 0.77324 0.78826 0.91343 0.0
Co89 Co 0.81886 0.82641 0.95175 0.0
O90 O 0.81179 0.81347 0.90284 0.0
C91 C 0.78163 0.83737 0.97156 0.0
C92 C 0.73557 0.76676 1.00326 0.0
C93 C 0.79105 0.79874 0.89204 0.0
O94 O 0.76565 0.81538 0.96948 0.0
O95 O 0.80372 0.84478 0.96808 0.0
O96 O 0.77646 0.76056 0.9695 0.0
O97 O 0.79966 0.79827 0.97922 0.0
Co98 Co 0.22161 0.98746 0.96382 0.0
O99 O 0.22777 0.9834 0.01286 0.0
O100 O 0.23985 0.97156 0.96616 0.0
C101 C 0.23025 0.02537 0.97035 0.0
O102 O 0.2197 0.98951 0.9093 0.0
Co103 Co 0.18239 0.99895 0.94321 0.0
O104 O 0.19824 0.00671 0.896 0.0
C105 C 0.17015 0.9523 0.97285 0.0
C106 C 0.23895 0.97314 1.00068 0.0
C107 C 0.21202 0.99911 0.8869 0.0
O108 O 0.19106 0.95614 0.96586 0.0
O109 O 0.16409 0.96801 0.96895 0.0
O110 O 0.24722 0.02074 0.96551 0.0
O111 O 0.20945 0.00723 0.9732 0.0
Co112 Co 0.01607 0.23278 0.96781 0.0
O113 O 0.02253 0.24224 0.01724 0.0
O114 O 0.03089 0.26674 0.97173 0.0
C115 C 0.97888 0.20279 0.97741 0.0
O116 O 0.01152 0.23001 0.91343 0.0
Co117 Co 0.0041 0.1831 0.94126 0.0
O118 O 0.99292 0.19173 0.89777 0.0
C119 C 0.05334 0.21834 0.96123 0.0
C120 C 0.03118 0.26379 0.00601 0.0
C121 C 1.00056 0.21336 0.89039 0.0
O122 O 0.04785 0.23466 0.96411 0.0
O123 O 0.03818 0.19673 0.95452 0.0
O124 O 0.98291 0.22431 0.97433 0.0
O125 O 0.99729 0.20044 0.97651 0.0
Co126 Co 0.78408 0.76799 0.54767 0.0
O127 O 0.77804 0.75768 0.49869 0.0
O128 O 0.76502 0.73385 0.54546 0.0
C129 C 0.77646 0.79795 0.54039 0.0
O130 O 0.78576 0.77211 0.60225 0.0
Co131 Co 0.8244 0.8186 0.56722 0.0
O132 O 0.81181 0.80996 0.61616 0.0
C133 C 0.83599 0.7822 0.54511 0.0
C134 C 0.76628 0.73629 0.51092 0.0
C135 C 0.79641 0.78902 0.62506 0.0
O136 O 0.81406 0.76602 0.54665 0.0
O137 O 0.84317 0.80417 0.54962 0.0
O138 O 0.75913 0.77653 0.54532 0.0
O139 O 0.79704 0.80006 0.53774 0.0
Co140 Co 0.23183 0.01633 0.54388 0.0
O141 O 0.24149 0.02192 0.49448 0.0
O142 O 0.2659 0.03191 0.54042 0.0
C143 C 0.20224 0.97876 0.53524 0.0
O144 O 0.22873 0.01263 0.59845 0.0
Co145 Co 0.1817 0.00395 0.56889 0.0
O146 O 0.19026 0.99339 0.61311 0.0
C147 C 0.21653 0.0531 0.54787 0.0
C148 C 0.26305 0.03144 0.50601 0.0
C149 C 0.21187 0.00152 0.62117 0.0
O150 O 0.23306 0.04788 0.54577 0.0
O151 O 0.19496 0.03781 0.55456 0.0
O152 O 0.22384 0.98313 0.53903 0.0
O153 O 0.19964 0.99702 0.53496 0.0
Co154 Co 0.98251 0.21723 0.54888 0.0
O155 O 0.97617 0.22039 0.49952 0.0
O156 O 0.9677 0.23639 0.54508 0.0
C157 C 0.01971 0.22446 0.5392 0.0
O158 O 0.98695 0.21874 0.60328 0.0
Co159 Co 0.99435 0.17933 0.5749 0.0
O160 O 0.00538 0.19885 0.61867 0.0
C161 C 0.94526 0.16548 0.55421 0.0
C162 C 0.96747 0.23323 0.51077 0.0
C163 C 0.9978 0.21286 0.62623 0.0
O164 O 0.95071 0.18731 0.55223 0.0
O165 O 0.96043 0.159 0.56062 0.0
O166 O 0.0157 0.24194 0.54256 0.0
O167 O 1.00128 0.20369 0.53998 0.0
Co168 Co 0.90357 0.55304 0.37745 0.0
O169 O 0.91235 0.55588 0.32775 0.0
O170 O 0.93747 0.57249 0.37241 0.0
C171 C 0.87309 0.55965 0.36888 0.0
O172 O 0.90137 0.55491 0.43198 0.0
Co173 Co 0.8544 0.51474 0.40499 0.0
O174 O 0.86324 0.53454 0.44849 0.0
C175 C 0.88993 0.50154 0.38333 0.0
C176 C 0.93405 0.56893 0.33823 0.0
C177 C 0.88487 0.54888 0.45543 0.0
O178 O 0.90601 0.52345 0.38085 0.0
O179 O 0.86828 0.49474 0.39033 0.0
O180 O 0.89453 0.57736 0.37136 0.0
O181 O 0.8711 0.53903 0.36968 0.0
Co182 Co 0.45342 0.3543 0.38742 0.0
O183 O 0.44911 0.35906 0.33781 0.0
O184 O 0.43459 0.36949 0.38306 0.0
C185 C 0.44536 0.31659 0.38054 0.0
O186 O 0.45338 0.35163 0.44213 0.0
Co187 Co 0.49171 0.34271 0.41261 0.0
O188 O 0.47313 0.33295 0.45736 0.0
C189 C 0.50548 0.39119 0.38859 0.0
C190 C 0.43689 0.36852 0.34871 0.0
C191 C 0.45956 0.34102 0.46512 0.0
O192 O 0.48368 0.38595 0.3879 0.0
O193 O 0.5119 0.37604 0.3955 0.0
O194 O 0.42819 0.32106 0.38393 0.0
O195 O 0.46625 0.33483 0.37938 0.0
Co196 Co 0.65197 0.10211 0.37157 0.0
O197 O 0.64841 0.09118 0.32314 0.0
O198 O 0.63887 0.06812 0.37069 0.0
C199 C 0.68877 0.13334 0.36407 0.0
O200 O 0.6541 0.10753 0.42586 0.0
Co201 Co 0.65855 0.15187 0.38664 0.0
O202 O 0.66354 0.14517 0.43641 0.0
C203 C 0.61361 0.11356 0.35868 0.0
C204 C 0.63991 0.07008 0.33605 0.0
C205 C 0.65955 0.12501 0.44728 0.0
O206 O 0.61921 0.0982 0.36895 0.0
O207 O 0.62801 0.13584 0.35966 0.0
O208 O 0.68596 0.11252 0.37039 0.0
O209 O 0.66955 0.13396 0.36015 0.0
Co210 Co 0.88805 0.56844 0.79729 0.0
O211 O 0.89109 0.57764 0.84684 0.0
O212 O 0.90766 0.60234 0.80168 0.0
C213 C 0.89458 0.53797 0.80661 0.0
O214 O 0.88984 0.5659 0.74282 0.0
Co215 Co 0.84981 0.51917 0.77018 0.0
O216 O 0.86953 0.52773 0.72662 0.0
C217 C 0.83658 0.55485 0.79099 0.0
C218 C 0.90429 0.59922 0.83593 0.0
C219 C 0.88384 0.54933 0.71951 0.0
O220 O 0.85848 0.57093 0.79371 0.0
O221 O 0.82981 0.53318 0.78411 0.0
O222 O 0.91231 0.55936 0.80368 0.0
O223 O 0.87397 0.536 0.80563 0.0
Co224 Co 0.43927 0.31948 0.8066 0.0
O225 O 0.42825 0.31433 0.85522 0.0
O226 O 0.40517 0.30489 0.8077 0.0
C227 C 0.46929 0.35676 0.81531 0.0
O228 O 0.44429 0.32296 0.75234 0.0
Co229 Co 0.4897 0.32932 0.78797 0.0
O230 O 0.48287 0.33772 0.74034 0.0
C231 C 0.4535 0.28285 0.81542 0.0
C232 C 0.40707 0.3053 0.84231 0.0
C233 C 0.46197 0.33179 0.73053 0.0
O234 O 0.43715 0.28749 0.80706 0.0
O235 O 0.47552 0.29811 0.81326 0.0
O236 O 0.44801 0.35295 0.80995 0.0
O237 O 0.47116 0.33812 0.81758 0.0
Co238 Co 0.68565 0.11745 0.79156 0.0
O239 O 0.6895 0.11154 0.84076 0.0
O240 O 0.70162 0.09922 0.79476 0.0
C241 C 0.64754 0.10845 0.79757 0.0
O242 O 0.68373 0.11926 0.73684 0.0
Co243 Co 0.67399 0.1568 0.77175 0.0
O244 O 0.67074 0.14436 0.72282 0.0
C245 C 0.72215 0.16982 0.79518 0.0
C246 C 0.69976 0.10024 0.82922 0.0
C247 C 0.67705 0.12953 0.71398 0.0
O248 O 0.7171 0.14808 0.79339 0.0
O249 O 0.70687 0.17632 0.79039 0.0
O250 O 0.65247 0.09168 0.79297 0.0
O251 O 0.66554 0.12934 0.80075 0.0
Co252 Co 0.43466 0.12017 0.30083 0.0
O253 O 0.42338 0.11319 0.34923 0.0
O254 O 0.4004 0.10185 0.30148 0.0
C255 C 0.46362 0.11111 0.30812 0.0
O256 O 0.44011 0.12302 0.24644 0.0
Co257 Co 0.48622 0.15996 0.28498 0.0
O258 O 0.47891 0.14708 0.23604 0.0
C259 C 0.45031 0.17252 0.30574 0.0
C260 C 0.4022 0.10212 0.33611 0.0
C261 C 0.45803 0.13292 0.22514 0.0
O262 O 0.43374 0.15077 0.30312 0.0
O263 O 0.47223 0.17919 0.30218 0.0
O264 O 0.44207 0.0944 0.30203 0.0
O265 O 0.46632 0.13186 0.31217 0.0
Co266 Co 0.887 0.32054 0.29878 0.0
O267 O 0.8911 0.31519 0.34818 0.0
O268 O 0.9052 0.30466 0.30244 0.0
C269 C 0.89563 0.35836 0.30636 0.0
O270 O 0.88714 0.32372 0.24424 0.0
Co271 Co 0.84892 0.33291 0.27503 0.0
O272 O 0.86618 0.34114 0.22901 0.0
C273 C 0.83534 0.28569 0.30387 0.0
C274 C 0.90282 0.30529 0.33683 0.0
C275 C 0.8802 0.33359 0.22113 0.0
O276 O 0.85633 0.28934 0.29814 0.0
O277 O 0.82967 0.30166 0.29959 0.0
O278 O 0.91264 0.35365 0.30279 0.0
O279 O 0.87468 0.34028 0.30738 0.0
Co280 Co 0.68596 0.56867 0.29828 0.0
O281 O 0.69103 0.57772 0.34795 0.0
O282 O 0.70163 0.60269 0.30266 0.0
C283 C 0.64823 0.53918 0.30581 0.0
O284 O 0.68287 0.56633 0.24366 0.0
Co285 Co 0.67364 0.51884 0.27195 0.0
O286 O 0.6638 0.52809 0.22769 0.0
C287 C 0.72254 0.55311 0.29477 0.0
C288 C 0.70068 0.59941 0.33699 0.0
C289 C 0.67208 0.54983 0.22033 0.0
O290 O 0.71744 0.56973 0.29682 0.0
O291 O 0.7072 0.53164 0.28752 0.0
O292 O 0.65282 0.56088 0.30263 0.0
O293 O 0.66636 0.53636 0.30621 0.0
Co294 Co 0.4537 0.10011 0.88136 0.0
O295 O 0.44824 0.09015 0.83223 0.0
O296 O 0.43374 0.06607 0.87852 0.0
C297 C 0.44708 0.13072 0.87395 0.0
O298 O 0.4548 0.10399 0.93601 0.0
Co299 Co 0.49462 0.15023 0.90182 0.0
O300 O 0.48127 0.14165 0.95037 0.0
C301 C 0.50529 0.11318 0.8795 0.0
C302 C 0.43571 0.06872 0.84402 0.0
C303 C 0.46542 0.12081 0.95898 0.0
O304 O 0.48324 0.09728 0.88101 0.0
O305 O 0.51284 0.13522 0.8841 0.0
O306 O 0.42937 0.10946 0.87848 0.0
O307 O 0.46745 0.13229 0.8717 0.0
Co308 Co 0.90208 0.35056 0.87889 0.0
O309 O 0.91114 0.3564 0.82928 0.0
O310 O 0.93606 0.36556 0.87437 0.0
C311 C 0.87216 0.31315 0.87058 0.0
O312 O 0.89953 0.34663 0.93344 0.0
Co313 Co 0.85241 0.33887 0.90527 0.0
O314 O 0.8612 0.32804 0.94896 0.0
C315 C 0.88746 0.38779 0.88373 0.0
C316 C 0.93281 0.36542 0.84009 0.0
C317 C 0.88283 0.33575 0.95646 0.0
O318 O 0.90381 0.38232 0.88163 0.0
O319 O 0.86585 0.37267 0.89053 0.0
O320 O 0.89375 0.31734 0.87336 0.0
O321 O 0.86972 0.33152 0.87076 0.0
Co322 Co 0.65621 0.55396 0.87866 0.0
O323 O 0.64936 0.55675 0.82938 0.0
O324 O 0.64133 0.57306 0.875 0.0
C325 C 0.69331 0.56107 0.86829 0.0
O326 O 0.66113 0.55587 0.93297 0.0
Co327 Co 0.66836 0.51631 0.90492 0.0
O328 O 0.67956 0.536 0.9485 0.0
C329 C 0.61901 0.50229 0.88562 0.0
C330 C 0.64069 0.5696 0.84074 0.0
C331 C 0.67202 0.55006 0.95597 0.0
O332 O 0.62446 0.52408 0.88287 0.0
O333 O 0.63421 0.49585 0.89198 0.0
O334 O 0.68937 0.5786 0.87153 0.0
O335 O 0.67487 0.54033 0.86959 0.0
Co336 Co 0.56599 0.88293 0.71442 0.0
O337 O 0.57701 0.88776 0.66585 0.0
O338 O 0.6002 0.90193 0.71317 0.0
C339 C 0.53644 0.89062 0.70355 0.0
O340 O 0.56084 0.88264 0.76871 0.0
Co341 Co 0.51515 0.84367 0.73407 0.0
O342 O 0.52173 0.86198 0.77877 0.0
C343 C 0.5515 0.8309 0.71652 0.0
C344 C 0.59821 0.89998 0.67859 0.0
C345 C 0.54275 0.8759 0.78933 0.0
O346 O 0.56774 0.85284 0.7164 0.0
O347 O 0.52956 0.82397 0.72087 0.0
O348 O 0.5578 0.90794 0.7089 0.0
O349 O 0.53416 0.86989 0.70284 0.0
Co350 Co 0.11669 0.68155 0.707 0.0
O351 O 0.11019 0.68524 0.6581 0.0
O352 O 0.09699 0.69599 0.70467 0.0
C353 C 0.10944 0.64408 0.7006 0.0
O354 O 0.11936 0.67965 0.76152 0.0
Co355 Co 0.15831 0.67281 0.72402 0.0
O356 O 0.14597 0.66827 0.77335 0.0
C357 C 0.16734 0.71846 0.69533 0.0
C358 C 0.09818 0.69462 0.67012 0.0
C359 C 0.13051 0.67347 0.78355 0.0
O360 O 0.14643 0.71364 0.70457 0.0
O361 O 0.1744 0.70343 0.69716 0.0
O362 O 0.09199 0.64793 0.70582 0.0
O363 O 0.1298 0.66272 0.69688 0.0
Co364 Co 0.31747 0.43181 0.71256 0.0
O365 O 0.31095 0.42259 0.6631 0.0
O366 O 0.30304 0.39788 0.70817 0.0
C367 C 0.35438 0.46236 0.70275 0.0
O368 O 0.32217 0.43446 0.76697 0.0
Co369 Co 0.32876 0.48122 0.73967 0.0
O370 O 0.34027 0.4727 0.78289 0.0
C371 C 0.27968 0.44545 0.7197 0.0
C372 C 0.30244 0.40098 0.67397 0.0
C373 C 0.33298 0.45111 0.7901 0.0
O374 O 0.28546 0.42936 0.71668 0.0
O375 O 0.29461 0.46712 0.72647 0.0
O376 O 0.35085 0.44101 0.7057 0.0
O377 O 0.33568 0.46419 0.70407 0.0
Co378 Co 0.55108 0.89798 0.13292 0.0
O379 O 0.55838 0.90864 0.18152 0.0
O380 O 0.57132 0.93204 0.13427 0.0
C381 C 0.55764 0.86734 0.13933 0.0
O382 O 0.54772 0.89295 0.07859 0.0
Co383 Co 0.50859 0.84791 0.11718 0.0
O384 O 0.52051 0.85504 0.06754 0.0
C385 C 0.5009 0.88535 0.14602 0.0
C386 C 0.57056 0.92987 0.16887 0.0
C387 C 0.53617 0.8755 0.05691 0.0
O388 O 0.52179 0.90107 0.13604 0.0
O389 O 0.4934 0.86315 0.14452 0.0
O390 O 0.57531 0.88846 0.13359 0.0
O391 O 0.5375 0.86605 0.14361 0.0
Co392 Co 0.10208 0.65094 0.12628 0.0
O393 O 0.09167 0.6441 0.17509 0.0
O394 O 0.06794 0.63632 0.12877 0.0
C395 C 0.13212 0.68791 0.13744 0.0
O396 O 0.10656 0.65636 0.07194 0.0
Co397 Co 0.15244 0.66207 0.10441 0.0
O398 O 0.14548 0.6742 0.06046 0.0
C399 C 0.11595 0.61308 0.12249 0.0
C400 C 0.07032 0.63561 0.16317 0.0
C401 C 0.12439 0.66753 0.05077 0.0
O402 O 0.09982 0.61893 0.12285 0.0
O403 O 0.13789 0.62798 0.11788 0.0
O404 O 0.11079 0.68419 0.1331 0.0
O405 O 0.13412 0.66929 0.13706 0.0
Co406 Co 0.35151 0.44851 0.13202 0.0
O407 O 0.35748 0.44564 0.18165 0.0
O408 O 0.36581 0.4289 0.13698 0.0
C409 C 0.31452 0.44219 0.14073 0.0
O410 O 0.34735 0.44672 0.07749 0.0
Co411 Co 0.34084 0.48705 0.10478 0.0
O412 O 0.32966 0.46721 0.06132 0.0
C413 C 0.38954 0.49995 0.1263 0.0
C414 C 0.36608 0.43256 0.17115 0.0
C415 C 0.33683 0.4528 0.05421 0.0
O416 O 0.38363 0.47801 0.12865 0.0
O417 O 0.37475 0.50685 0.11941 0.0
O418 O 0.31803 0.42435 0.13807 0.0
O419 O 0.33328 0.4627 0.13995 0.0
Co420 Co 0.10195 0.44918 0.63009 0.0
O421 O 0.0912 0.44564 0.67869 0.0
O422 O 0.06775 0.42995 0.63202 0.0
C423 C 0.13162 0.44183 0.64195 0.0
O424 O 0.10691 0.44843 0.57586 0.0
Co425 Co 0.15276 0.48822 0.60946 0.0
O426 O 0.14594 0.46957 0.56509 0.0
C427 C 0.11635 0.50104 0.62623 0.0
C428 C 0.06992 0.43304 0.66644 0.0
C429 C 0.1249 0.45531 0.55495 0.0
O430 O 0.10009 0.47911 0.62637 0.0
O431 O 0.13831 0.50794 0.62228 0.0
O432 O 0.11026 0.42437 0.63722 0.0
O433 O 0.13384 0.46254 0.64154 0.0
Co434 Co 0.55139 0.65053 0.63322 0.0
O435 O 0.55649 0.64542 0.68228 0.0
O436 O 0.57073 0.63582 0.63568 0.0
C437 C 0.55869 0.6879 0.64147 0.0
O438 O 0.55068 0.65378 0.5788 0.0
Co439 Co 0.51162 0.66092 0.61156 0.0
O440 O 0.52818 0.66973 0.56492 0.0
C441 C 0.50024 0.61415 0.63964 0.0
C442 C 0.56877 0.63632 0.67018 0.0
C443 C 0.54279 0.66309 0.55624 0.0
O444 O 0.52142 0.61866 0.63304 0.0
O445 O 0.49369 0.62952 0.63625 0.0
O446 O 0.57618 0.684 0.63698 0.0
O447 O 0.53809 0.66932 0.64294 0.0
Co448 Co 0.35077 0.90103 0.63147 0.0
O449 O 0.35672 0.91023 0.68099 0.0
O450 O 0.3653 0.93499 0.6358 0.0
C451 C 0.31364 0.87068 0.64022 0.0
O452 O 0.34665 0.89832 0.57696 0.0
Co453 Co 0.33961 0.85148 0.60514 0.0
O454 O 0.32833 0.85996 0.56162 0.0
C455 C 0.38855 0.88722 0.62573 0.0
C456 C 0.36541 0.93184 0.67007 0.0
C457 C 0.33579 0.88154 0.55404 0.0
O458 O 0.38277 0.90332 0.62843 0.0
O459 O 0.37365 0.86555 0.61888 0.0
O460 O 0.3174 0.8921 0.6372 0.0
O461 O 0.33226 0.86868 0.63986 0.0
Co462 Co 0.11842 0.43513 0.21141 0.0
O463 O 0.11197 0.42412 0.16289 0.0
O464 O 0.09911 0.40094 0.21037 0.0
C465 C 0.11077 0.465 0.2034 0.0
O466 O 0.12096 0.44034 0.26573 0.0
Co467 Co 0.15947 0.48584 0.22781 0.0
O468 O 0.14711 0.4785 0.2772 0.0
C469 C 0.1692 0.44944 0.20015 0.0
C470 C 0.10025 0.4029 0.17575 0.0
C471 C 0.13179 0.45784 0.28758 0.0
O472 O 0.1484 0.43321 0.20965 0.0
O473 O 0.17593 0.47148 0.20152 0.0
O474 O 0.09348 0.44369 0.20925 0.0
O475 O 0.13125 0.46693 0.20022 0.0
Co476 Co 0.56669 0.68096 0.21353 0.0
O477 O 0.5761 0.68611 0.16405 0.0
O478 O 0.60077 0.69685 0.20975 0.0
C479 C 0.53744 0.64321 0.20568 0.0
O480 O 0.56374 0.67778 0.26816 0.0
Co481 Co 0.51648 0.66845 0.23828 0.0
O482 O 0.52524 0.65835 0.28275 0.0
C483 C 0.55086 0.71732 0.21565 0.0
C484 C 0.59773 0.69596 0.17535 0.0
C485 C 0.54688 0.66671 0.29088 0.0
O486 O 0.56756 0.71232 0.21455 0.0
O487 O 0.52931 0.70196 0.22234 0.0
O488 O 0.55914 0.64789 0.20941 0.0
O489 O 0.53454 0.66129 0.20492 0.0
Co490 Co 0.31816 0.88409 0.21197 0.0
O491 O 0.31322 0.88845 0.16242 0.0
O492 O 0.30306 0.90299 0.20801 0.0
C493 C 0.35563 0.89159 0.20439 0.0
O494 O 0.3213 0.88455 0.26659 0.0
Co495 Co 0.32963 0.84584 0.23771 0.0
O496 O 0.34015 0.86505 0.28185 0.0
C497 C 0.28084 0.83215 0.21554 0.0
C498 C 0.30392 0.90076 0.17364 0.0
C499 C 0.33218 0.87872 0.28957 0.0
O500 O 0.28636 0.85399 0.21323 0.0
O501 O 0.29586 0.82561 0.2228 0.0
O502 O 0.35152 0.90901 0.20788 0.0
O503 O 0.3372 0.87085 0.20372 0.0
H504 H 0.40581 0.29659 0.91354 0.0
H505 H 0.36132 0.29196 0.82517 0.0
H506 H 0.37184 0.27988 0.9531 0.0
H507 H 0.3273 0.27614 0.86512 0.0
H508 H 0.26724 0.22518 0.93766 0.0
H509 H 0.3011 0.24227 0.8977 0.0
H510 H 0.34487 0.2875 0.98304 0.0
H511 H 0.3111 0.26954 0.02337 0.0
C512 C 0.38876 0.29221 0.90262 0.0
C513 C 0.38625 0.29557 0.8662 0.0
C514 C 0.36924 0.28277 0.92542 0.0
C515 C 0.3467 0.27667 0.91251 0.0
C516 C 0.34426 0.28024 0.87601 0.0
C517 C 0.36379 0.28945 0.85309 0.0
C518 C 0.28411 0.23878 0.94787 0.0
C519 C 0.28652 0.24596 0.98371 0.0
C520 C 0.30354 0.24874 0.92485 0.0
C521 C 0.32585 0.26635 0.93696 0.0
C522 C 0.32813 0.2737 0.97281 0.0
C523 C 0.30873 0.26351 0.99596 0.0
H524 H 0.73272 0.0868 0.81701 0.0
H525 H 0.68768 0.08936 0.8989 0.0
H526 H 0.74918 0.07098 0.86019 0.0
H527 H 0.70299 0.0724 0.94156 0.0
H528 H 0.75056 0.06379 0.0203 0.0
H529 H 0.73523 0.08032 0.97663 0.0
H530 H 0.74269 0.03841 0.89385 0.0
H531 H 0.75922 0.02301 0.9373 0.0
C532 C 0.72612 0.08367 0.84414 0.0
C533 C 0.70899 0.08941 0.85458 0.0
C534 C 0.73545 0.07447 0.86896 0.0
C535 C 0.72757 0.07041 0.90469 0.0
C536 C 0.71002 0.07576 0.9147 0.0
C537 C 0.70104 0.08532 0.89009 0.0
C538 C 0.74892 0.05816 0.99275 0.0
C539 C 0.7561 0.04212 0.98227 0.0
C540 C 0.73996 0.06751 0.96763 0.0
C541 C 0.73754 0.06072 0.93144 0.0
C542 C 0.74463 0.04449 0.92117 0.0
C543 C 0.75396 0.03548 0.94619 0.0
H544 H 0.96523 0.73711 0.93567 0.0
H545 H 0.95952 0.6916 0.02321 0.0
H546 H 0.9487 0.70364 0.89537 0.0
H547 H 0.9438 0.65793 0.98234 0.0
H548 H 0.89351 0.59901 0.90641 0.0
H549 H 0.91036 0.63204 0.94811 0.0
H550 H 0.95685 0.67736 0.86505 0.0
H551 H 0.93919 0.64455 0.82311 0.0
C552 C 0.96069 0.71993 0.94626 0.0
C553 C 0.96375 0.71703 0.98266 0.0
C554 C 0.95133 0.70068 0.923 0.0
C555 C 0.94502 0.67796 0.93534 0.0
C556 C 0.94816 0.67507 0.97186 0.0
C557 C 0.95731 0.69438 0.9953 0.0
C558 C 0.90733 0.61606 0.8971 0.0
C559 C 0.91492 0.61921 0.8614 0.0
C560 C 0.91715 0.63499 0.92111 0.0
C561 C 0.935 0.65751 0.91011 0.0
C562 C 0.94282 0.66047 0.87444 0.0
C563 C 0.93279 0.64161 0.85035 0.0
H564 H 0.28951 0.35487 0.68678 0.0
H565 H 0.29239 0.40187 0.60351 0.0
H566 H 0.27297 0.32208 0.64461 0.0
H567 H 0.27499 0.36902 0.56166 0.0
H568 H 0.26412 0.30975 0.48618 0.0
H569 H 0.28215 0.34275 0.52799 0.0
H570 H 0.23833 0.29687 0.61272 0.0
H571 H 0.22112 0.26384 0.57126 0.0
C572 C 0.28646 0.35816 0.65951 0.0
C573 C 0.29229 0.38096 0.6485 0.0
C574 C 0.27682 0.33932 0.63531 0.0
C575 C 0.27253 0.34277 0.59958 0.0
C576 C 0.27838 0.36566 0.5887 0.0
C577 C 0.28823 0.38452 0.6128 0.0
C578 C 0.25838 0.30676 0.51376 0.0
C579 C 0.24125 0.28418 0.52542 0.0
C580 C 0.26862 0.32571 0.53775 0.0
C581 C 0.26178 0.32258 0.57392 0.0
C582 C 0.24444 0.29995 0.58535 0.0
C583 C 0.23441 0.28099 0.56146 0.0
H584 H 0.64441 0.91413 0.69388 0.0
H585 H 0.59847 0.91059 0.60853 0.0
H586 H 0.67773 0.93027 0.65251 0.0
H587 H 0.63171 0.92796 0.56769 0.0
H588 H 0.68969 0.93733 0.4927 0.0
H589 H 0.65697 0.92046 0.53481 0.0
H590 H 0.7044 0.96269 0.61938 0.0
H591 H 0.73725 0.97836 0.57748 0.0
C592 C 0.64153 0.91712 0.66636 0.0
C593 C 0.61884 0.91099 0.65439 0.0
C594 C 0.66065 0.92651 0.64259 0.0
C595 C 0.65758 0.9304 0.60643 0.0
C596 C 0.63484 0.92471 0.59492 0.0
C597 C 0.61573 0.91491 0.61847 0.0
C598 C 0.69307 0.94295 0.52032 0.0
C599 C 0.716 0.95915 0.53178 0.0
C600 C 0.67426 0.93341 0.54454 0.0
C601 C 0.67782 0.94023 0.58075 0.0
C602 C 0.70088 0.95661 0.59201 0.0
C603 C 0.71975 0.96577 0.5679 0.0
H604 H 0.04128 0.72966 0.48326 0.0
H605 H 0.03874 0.77278 0.56843 0.0
H606 H 0.05635 0.71165 0.52503 0.0
H607 H 0.05479 0.75581 0.60967 0.0
H608 H 0.06492 0.70737 0.68457 0.0
H609 H 0.047 0.72243 0.64266 0.0
H610 H 0.08976 0.71881 0.55757 0.0
H611 H 0.10664 0.70276 0.59903 0.0
C612 C 0.04412 0.73541 0.51083 0.0
C613 C 0.03876 0.75258 0.52253 0.0
C614 C 0.05289 0.7252 0.53483 0.0
C615 C 0.05684 0.73219 0.57097 0.0
C616 C 0.05156 0.74951 0.58239 0.0
C617 C 0.0425 0.75943 0.55858 0.0
C618 C 0.07037 0.70973 0.65687 0.0
C619 C 0.08715 0.70384 0.64514 0.0
C620 C 0.06022 0.7185 0.63279 0.0
C621 C 0.0669 0.72195 0.5965 0.0
C622 C 0.08375 0.71602 0.58499 0.0
C623 C 0.0936 0.70696 0.60891 0.0
H624 H 0.64416 0.7273 0.18925 0.0
H625 H 0.59655 0.68688 0.10414 0.0
H626 H 0.6769 0.74426 0.14713 0.0
H627 H 0.62938 0.70273 0.06222 0.0
H628 H 0.68932 0.75268 0.98838 0.0
H629 H 0.65601 0.73583 0.02977 0.0
H630 H 0.70199 0.73662 0.11344 0.0
H631 H 0.73523 0.75458 0.07261 0.0
C632 C 0.64077 0.72183 0.16157 0.0
C633 C 0.6178 0.70578 0.15002 0.0
C634 C 0.65958 0.73143 0.13735 0.0
C635 C 0.65598 0.72487 0.10103 0.0
C636 C 0.63291 0.70861 0.08969 0.0
C637 C 0.61405 0.69934 0.11382 0.0
C638 C 0.69219 0.74916 0.01562 0.0
C639 C 0.71488 0.75506 0.02729 0.0
C640 C 0.67308 0.73938 0.0394 0.0
C641 C 0.67617 0.73491 0.07527 0.0
C642 C 0.69888 0.74031 0.08645 0.0
C643 C 0.71798 0.75044 0.06289 0.0
H644 H 0.31366 0.90902 0.10264 0.0
H645 H 0.27356 0.91708 0.18736 0.0
H646 H 0.29917 0.92733 0.06084 0.0
H647 H 0.2579 0.93419 0.1453 0.0
H648 H 0.25005 0.984 0.07073 0.0
H649 H 0.26655 0.96738 0.112 0.0
H650 H 0.26686 0.92217 0.02796 0.0
H651 H 0.25158 0.93993 0.9863 0.0
C652 C 0.30153 0.91452 0.11224 0.0
C653 C 0.29479 0.91167 0.14831 0.0
C654 C 0.29304 0.92489 0.08818 0.0
C655 C 0.27724 0.93232 0.09942 0.0
C656 C 0.27039 0.92922 0.1356 0.0
C657 C 0.27923 0.91923 0.15978 0.0
C658 C 0.25378 0.9706 0.06107 0.0
C659 C 0.24955 0.96329 0.02527 0.0
C660 C 0.26307 0.96086 0.08484 0.0
C661 C 0.26796 0.9432 0.07364 0.0
C662 C 0.26375 0.93598 0.03763 0.0
C663 C 0.25485 0.94606 0.01368 0.0
H664 H 0.06828 0.35675 0.19218 0.0
H665 H 0.10816 0.40226 0.1047 0.0
H666 H 0.05067 0.32301 0.1515 0.0
H667 H 0.09157 0.36868 0.06453 0.0
H668 H 0.04194 0.30914 0.99256 0.0
H669 H 0.05726 0.34216 0.03411 0.0
H670 H 0.05839 0.29716 0.11775 0.0
H671 H 0.04202 0.26393 0.07643 0.0
C672 C 0.07338 0.35951 0.16433 0.0
C673 C 0.0895 0.38218 0.15164 0.0
C674 C 0.06342 0.34015 0.14099 0.0
C675 C 0.06957 0.34301 0.10452 0.0
C676 C 0.08591 0.36575 0.09213 0.0
C677 C 0.0956 0.38506 0.1153 0.0
C678 C 0.04545 0.30632 0.01983 0.0
C679 C 0.04081 0.28395 0.03118 0.0
C680 C 0.05438 0.3253 0.0437 0.0
C681 C 0.05925 0.32249 0.07943 0.0
C682 C 0.05455 0.30001 0.09069 0.0
C683 C 0.04532 0.28095 0.06691 0.0
H684 H 0.69063 0.59773 0.4079 0.0
H685 H 0.73172 0.64603 0.32388 0.0
H686 H 0.70525 0.63038 0.45002 0.0
H687 H 0.74751 0.67863 0.36626 0.0
H688 H 0.75562 0.73632 0.44076 0.0
H689 H 0.73902 0.7033 0.39934 0.0
H690 H 0.73738 0.65722 0.48353 0.0
H691 H 0.75278 0.6902 0.52536 0.0
C692 C 0.70302 0.61535 0.39853 0.0
C693 C 0.70998 0.61934 0.36256 0.0
C694 C 0.71157 0.63412 0.42278 0.0
C695 C 0.72767 0.65734 0.41181 0.0
C696 C 0.73478 0.66118 0.37575 0.0
C697 C 0.72587 0.64245 0.35138 0.0
C698 C 0.75157 0.71908 0.45044 0.0
C699 C 0.75548 0.71584 0.48632 0.0
C700 C 0.74222 0.70012 0.42657 0.0
C701 C 0.73695 0.67743 0.43775 0.0
C702 C 0.7408 0.67424 0.47386 0.0
C703 C 0.74976 0.69318 0.49791 0.0
H704 H 0.30948 0.06215 0.52088 0.0
H705 H 0.26228 0.02324 0.43452 0.0
H706 H 0.34256 0.07923 0.47939 0.0
H707 H 0.29544 0.0392 0.39318 0.0
H708 H 0.35627 0.08912 0.3208 0.0
H709 H 0.32268 0.07242 0.36166 0.0
H710 H 0.36764 0.07162 0.4457 0.0
H711 H 0.40119 0.08945 0.40541 0.0
C712 C 0.30624 0.05704 0.49305 0.0
C713 C 0.28329 0.04137 0.48098 0.0
C714 C 0.32525 0.0667 0.46917 0.0
C715 C 0.32187 0.0606 0.43268 0.0
C716 C 0.29882 0.04473 0.42081 0.0
C717 C 0.27977 0.0354 0.4446 0.0
C718 C 0.35887 0.08531 0.34802 0.0
C719 C 0.38137 0.0907 0.35994 0.0
C720 C 0.33959 0.0756 0.37149 0.0
C721 C 0.34229 0.07069 0.4073 0.0
C722 C 0.36482 0.07564 0.41875 0.0
C723 C 0.3841 0.08571 0.3955 0.0
H724 H 0.93456 0.29058 0.32317 0.0
H725 H 0.8929 0.29644 0.40764 0.0
H726 H 0.95067 0.27382 0.36526 0.0
H727 H 0.90806 0.27876 0.44935 0.0
H728 H 0.95628 0.26759 0.52407 0.0
H729 H 0.9415 0.28556 0.48194 0.0
H730 H 0.94134 0.23978 0.39853 0.0
H731 H 0.95709 0.22267 0.44034 0.0
C732 C 0.92872 0.28812 0.35069 0.0
C733 C 0.91253 0.2949 0.36209 0.0
C734 C 0.93782 0.27835 0.37484 0.0
C735 C 0.93071 0.27486 0.41088 0.0
C736 C 0.91436 0.28156 0.42208 0.0
C737 C 0.90551 0.29157 0.39806 0.0
C738 C 0.95308 0.2614 0.49672 0.0
C739 C 0.95789 0.24375 0.48553 0.0
C740 C 0.94446 0.2716 0.47253 0.0
C741 C 0.94016 0.26417 0.43665 0.0
C742 C 0.94483 0.24633 0.42567 0.0
C743 C 0.95371 0.23636 0.44974 0.0
H744 H 0.0703 0.62522 0.23346 0.0
H745 H 0.02436 0.62331 0.14918 0.0
H746 H 0.0374 0.60906 0.27501 0.0
H747 H 0.99139 0.60793 0.19123 0.0
H748 H 0.93254 0.55848 0.2674 0.0
H749 H 0.96506 0.57426 0.22487 0.0
H750 H 0.01265 0.61864 0.30765 0.0
H751 H 0.98023 0.60209 0.35042 0.0
C752 C 0.05316 0.62151 0.22385 0.0
C753 C 0.04995 0.62559 0.188 0.0
C754 C 0.03426 0.61238 0.24781 0.0
C755 C 0.01165 0.60729 0.23673 0.0
C756 C 0.00844 0.61132 0.20073 0.0
C757 C 0.02736 0.62027 0.1766 0.0
C758 C 0.94997 0.57162 0.2765 0.0
C759 C 0.95383 0.57898 0.31233 0.0
C760 C 0.96863 0.58081 0.25201 0.0
C761 C 0.9916 0.59777 0.26266 0.0
C762 C 0.99534 0.6053 0.29851 0.0
C763 C 0.97671 0.59592 0.32307 0.0
H764 H 0.44579 0.37606 0.27743 0.0
H765 H 0.40399 0.38183 0.36175 0.0
H766 H 0.42879 0.39146 0.23485 0.0
H767 H 0.3861 0.3963 0.31889 0.0
H768 H 0.37644 0.44435 0.24124 0.0
H769 H 0.39355 0.42909 0.28386 0.0
H770 H 0.39449 0.38256 0.20271 0.0
H771 H 0.37831 0.3987 0.15968 0.0
C772 C 0.43279 0.38044 0.28682 0.0
C773 C 0.42627 0.37777 0.32299 0.0
C774 C 0.42287 0.38913 0.2623 0.0
C775 C 0.40594 0.39512 0.27321 0.0
C776 C 0.39934 0.39228 0.30948 0.0
C777 C 0.4095 0.38385 0.33409 0.0
C778 C 0.3803 0.43085 0.2325 0.0
C779 C 0.37604 0.42275 0.19705 0.0
C780 C 0.38998 0.42194 0.25707 0.0
C781 C 0.39542 0.40448 0.24696 0.0
C782 C 0.39095 0.39626 0.21145 0.0
C783 C 0.38151 0.4054 0.18675 0.0
H784 H 0.60419 0.97542 0.15277 0.0
H785 H 0.56301 0.93066 0.24007 0.0
H786 H 0.62277 0.00905 0.19342 0.0
H787 H 0.58053 0.96426 0.28028 0.0
H788 H 0.62895 0.02478 0.35233 0.0
H789 H 0.61421 0.99108 0.3118 0.0
H790 H 0.61512 0.0352 0.22509 0.0
H791 H 0.63086 0.06884 0.2651 0.0
C792 C 0.59902 0.97282 0.1806 0.0
C793 C 0.58216 0.95042 0.19319 0.0
C794 C 0.60955 0.99211 0.20395 0.0
C795 C 0.60317 0.98952 0.24033 0.0
C796 C 0.58632 0.96698 0.25275 0.0
C797 C 0.57609 0.94768 0.22955 0.0
C798 C 0.6261 0.02722 0.32455 0.0
C799 C 0.6311 0.04945 0.31193 0.0
C800 C 0.61751 0.00788 0.30128 0.0
C801 C 0.61339 0.01028 0.26496 0.0
C802 C 0.61848 0.03263 0.25255 0.0
C803 C 0.62736 0.05196 0.27565 0.0
H804 H 0.37738 0.9777 0.65741 0.0
H805 H 0.37542 0.93106 0.74056 0.0
H806 H 0.39311 0.01038 0.69974 0.0
H807 H 0.39211 0.96384 0.78257 0.0
H808 H 0.40256 0.02268 0.85847 0.0
H809 H 0.38463 0.98967 0.81658 0.0
H810 H 0.42737 0.03606 0.73149 0.0
H811 H 0.44436 0.06901 0.77295 0.0
C812 C 0.38048 0.97448 0.68469 0.0
C813 C 0.37515 0.95181 0.69562 0.0
C814 C 0.38965 0.99326 0.709 0.0
C815 C 0.39401 0.98989 0.74475 0.0
C816 C 0.38865 0.96712 0.75554 0.0
C817 C 0.37922 0.94831 0.73134 0.0
C818 C 0.40802 0.02577 0.83077 0.0
C819 C 0.4248 0.04846 0.81902 0.0
C820 C 0.39786 0.00682 0.80673 0.0
C821 C 0.40447 0.01008 0.77045 0.0
C822 C 0.42141 0.03284 0.75893 0.0
C823 C 0.43132 0.05178 0.78283 0.0
H824 H 0.02387 0.39957 0.65223 0.0
H825 H 0.06964 0.44404 0.73632 0.0
H826 H 0.99068 0.38258 0.69396 0.0
H827 H 0.03656 0.42794 0.77749 0.0
H828 H 0.97894 0.37863 0.85308 0.0
H829 H 0.01152 0.39405 0.81063 0.0
H830 H 0.96435 0.39029 0.72676 0.0
H831 H 0.93166 0.37396 0.769 0.0
C832 C 0.02679 0.40584 0.67953 0.0
C833 C 0.04939 0.42304 0.69099 0.0
C834 C 0.00775 0.39621 0.70347 0.0
C835 C 0.01085 0.40375 0.73932 0.0
C836 C 0.03348 0.42124 0.75043 0.0
C837 C 0.05249 0.43064 0.72668 0.0
C838 C 0.97555 0.38108 0.82556 0.0
C839 C 0.95273 0.37508 0.81443 0.0
C840 C 0.99427 0.39007 0.80118 0.0
C841 C 0.99071 0.39357 0.7651 0.0
C842 C 0.96779 0.38753 0.75409 0.0
C843 C 0.94903 0.37831 0.7784 0.0
H844 H 0.62862 0.60328 0.85437 0.0
H845 H 0.62969 0.55857 0.7705 0.0
H846 H 0.61222 0.62003 0.81291 0.0
H847 H 0.61235 0.57448 0.72936 0.0
H848 H 0.60157 0.62323 0.65471 0.0
H849 H 0.61966 0.60792 0.69579 0.0
H850 H 0.57761 0.61143 0.78206 0.0
H851 H 0.56043 0.62765 0.74132 0.0
C852 C 0.62517 0.5969 0.82712 0.0
C853 C 0.63047 0.57962 0.81572 0.0
C854 C 0.61562 0.6064 0.80332 0.0
C855 C 0.61084 0.59863 0.76763 0.0
C856 C 0.61613 0.58126 0.75637 0.0
C857 C 0.62593 0.57198 0.78007 0.0
C858 C 0.59627 0.62077 0.68248 0.0
C859 C 0.57964 0.62672 0.69478 0.0
C860 C 0.60652 0.61184 0.70606 0.0
C861 C 0.60017 0.60839 0.74242 0.0
C862 C 0.58336 0.61424 0.7545 0.0
C863 C 0.57334 0.62341 0.73104 0.0
H864 H 0.27036 0.06592 0.99237 0.0
H865 H 0.19776 0.03876 0.96093 0.0
H866 H 0.27232 0.10279 0.01242 0.0
H867 H 0.19978 0.07505 0.98049 0.0
H868 H 0.19727 0.12016 0.06702 0.0
H869 H 0.20352 0.08864 0.04591 0.0
H870 H 0.26638 0.13932 0.99017 0.0
H871 H 0.26017 0.1714 0.01158 0.0
C872 C 0.25509 0.06805 0.98891 0.0
C873 C 0.2338 0.04935 0.97559 0.0
C874 C 0.25619 0.08906 1.00044 0.0
C875 C 0.23601 0.09147 0.99874 0.0
C876 C 0.21543 0.07344 0.98288 0.0
C877 C 0.21432 0.05266 0.97154 0.0
C878 C 0.21263 0.12476 0.05067 0.0
C879 C 0.22799 0.14827 0.0405 0.0
C880 C 0.21618 0.10666 0.03852 0.0
C881 C 0.23513 0.11151 0.01577 0.0
C882 C 0.25157 0.13514 0.00757 0.0
C883 C 0.24802 0.15344 0.01986 0.0
H884 H 0.93773 0.20196 0.9966 0.0
H885 H 0.96669 0.15679 0.97351 0.0
H886 H 0.90057 0.1672 0.01578 0.0
H887 H 0.93001 0.12257 0.99206 0.0
H888 H 0.87945 0.07363 0.07261 0.0
H889 H 0.91261 0.11079 0.05305 0.0
H890 H 0.86539 0.12662 0.99442 0.0
H891 H 0.83165 0.08902 0.01442 0.0
C892 C 0.93603 0.18464 0.99503 0.0
C893 C 0.95523 0.18213 0.98403 0.0
C894 C 0.91481 0.1648 0.00598 0.0
C895 C 0.91262 0.14227 0.00614 0.0
C896 C 0.93138 0.13977 0.99311 0.0
C897 C 0.95239 0.15941 0.98229 0.0
C898 C 0.87597 0.08504 0.05583 0.0
C899 C 0.8529 0.07814 0.04461 0.0
C900 C 0.89503 0.10634 0.04451 0.0
C901 C 0.89165 0.12135 0.02152 0.0
C902 C 0.86849 0.11531 0.01202 0.0
C903 C 0.84922 0.09382 0.02349 0.0
H904 H 0.84328 0.81267 0.97893 0.0
H905 H 0.79973 0.73666 0.98039 0.0
H906 H 0.87811 0.80946 0.988 0.0
H907 H 0.83531 0.73338 0.98934 0.0
H908 H 0.90566 0.74875 0.05506 0.0
H909 H 0.86717 0.7438 0.03735 0.0
H910 H 0.90162 0.79639 0.95506 0.0
H911 H 0.93964 0.8018 0.97344 0.0
C912 C 0.84114 0.79518 0.98078 0.0
C913 C 0.81871 0.77492 0.97877 0.0
C914 C 0.86121 0.79333 0.98581 0.0
C915 C 0.85955 0.77115 0.98899 0.0
C916 C 0.83712 0.75072 0.98696 0.0
C917 C 0.81683 0.75259 0.98163 0.0
C918 C 0.90478 0.75881 0.03275 0.0
C919 C 0.92557 0.776 0.01607 0.0
C920 C 0.88281 0.75596 0.02253 0.0
C921 C 0.88146 0.7701 0.99532 0.0
C922 C 0.90213 0.78568 0.97672 0.0
C923 C 0.92391 0.78875 0.98719 0.0
H924 H 0.16585 0.25606 0.49708 0.0
H925 H 0.11657 0.19404 0.43793 0.0
H926 H 0.13287 0.26082 0.51831 0.0
H927 H 0.08413 0.19889 0.45875 0.0
H928 H 0.03186 0.19061 0.54203 0.0
H929 H 0.06811 0.19291 0.52151 0.0
H930 H 0.09741 0.26701 0.49813 0.0
H931 H 0.06066 0.26477 0.51918 0.0
C932 C 0.14812 0.24381 0.48796 0.0
C933 C 0.14377 0.22443 0.46631 0.0
C934 C 0.12929 0.24652 0.50015 0.0
C935 C 0.10592 0.22989 0.49083 0.0
C936 C 0.1019 0.21163 0.46711 0.0
C937 C 0.12053 0.20891 0.45508 0.0
C938 C 0.04605 0.20751 0.53293 0.0
C939 C 0.04327 0.22744 0.53178 0.0
C940 C 0.06681 0.20879 0.52099 0.0
C941 C 0.08537 0.23001 0.50745 0.0
C942 C 0.0833 0.25041 0.50827 0.0
C943 C 0.06233 0.24912 0.52032 0.0
H944 H 0.81017 0.84385 0.54547 0.0
H945 H 0.73613 0.79891 0.52161 0.0
H946 H 0.80803 0.87815 0.52648 0.0
H947 H 0.73404 0.83377 0.50192 0.0
H948 H 0.74421 0.91241 0.50101 0.0
H949 H 0.73973 0.87476 0.52202 0.0
H950 H 0.80293 0.88947 0.46482 0.0
H951 H 0.80754 0.92671 0.44428 0.0
C952 C 0.79332 0.84131 0.53651 0.0
C953 C 0.77339 0.81863 0.53459 0.0
C954 C 0.79213 0.861 0.52541 0.0
C955 C 0.77102 0.85858 0.51186 0.0
C956 C 0.75058 0.83611 0.51208 0.0
C957 C 0.75177 0.81622 0.52338 0.0
C958 C 0.75687 0.90734 0.49244 0.0
C959 C 0.77646 0.92275 0.47145 0.0
C960 C 0.7543 0.88583 0.5045 0.0
C961 C 0.77129 0.87947 0.49574 0.0
C962 C 0.7899 0.89418 0.47281 0.0
C963 C 0.79248 0.91551 0.46091 0.0
H964 H 0.0963 0.84369 0.4467 0.0
H965 H 0.06102 0.85914 0.53078 0.0
H966 H 0.13434 0.87719 0.46612 0.0
H967 H 0.09861 0.89155 0.55104 0.0
H968 H 0.15642 0.96717 0.53482 0.0
H969 H 0.12201 0.9293 0.5231 0.0
H970 H 0.16594 0.89756 0.5132 0.0
H971 H 0.20113 0.93635 0.52455 0.0
C972 C 0.09681 0.85385 0.46987 0.0
C973 C 0.07578 0.84924 0.48685 0.0
C974 C 0.11853 0.87293 0.48107 0.0
C975 C 0.11942 0.88737 0.50964 0.0
C976 C 0.0985 0.88125 0.52833 0.0
C977 C 0.07696 0.86263 0.51682 0.0
C978 C 0.15891 0.95218 0.53051 0.0
C979 C 0.18156 0.9548 0.53075 0.0
C980 C 0.13905 0.93032 0.52399 0.0
C981 C 0.14113 0.91026 0.5176 0.0
C982 C 0.16378 0.9127 0.518 0.0
C983 C 0.18386 0.93481 0.52473 0.0
H984 H 0.73294 0.93924 0.01811 0.0
H985 H 0.80438 0.96565 0.05498 0.0
H986 H 0.73078 0.90181 1.00083 0.0
H987 H 0.80213 0.92877 0.03825 0.0
H988 H 0.80604 0.88344 0.95291 0.0
H989 H 0.79961 0.91509 0.97245 0.0
H990 H 0.73586 0.86484 0.02678 0.0
H991 H 0.74229 0.83252 0.0069 0.0
C992 C 0.74789 0.93684 0.02333 0.0
C993 C 0.76897 0.95549 0.03733 0.0
C994 C 0.74665 0.9155 0.01346 0.0
C995 C 0.76647 0.91267 0.01758 0.0
C996 C 0.78676 0.93067 0.03413 0.0
C997 C 0.78802 0.95181 0.04377 0.0
C998 C 0.79048 0.87895 0.96872 0.0
C999 C 0.77492 0.8555 0.97894 0.0
C1000 C 0.78682 0.89713 0.97992 0.0
C1001 C 0.76754 0.89245 1.00176 0.0
C1002 C 0.75094 0.86887 0.01008 0.0
C1003 C 0.75461 0.85045 0.9987 0.0
H1004 H 0.1623 0.90787 0.95599 0.0
H1005 H 0.1374 0.94472 0.02261 0.0
H1006 H 0.12845 0.86995 0.97482 0.0
H1007 H 0.1046 0.90736 0.04248 0.0
H1008 H 0.03242 0.84498 0.0229 0.0
H1009 H 0.06964 0.88021 0.01143 0.0
H1010 H 0.10605 0.84075 0.02331 0.0
H1011 H 0.06794 0.80464 0.03414 0.0
C1012 C 0.14988 0.90781 0.97516 0.0
C1013 C 0.15208 0.92918 0.98719 0.0
C1014 C 0.1306 0.88615 0.98609 0.0
C1015 C 0.11352 0.88565 0.00954 0.0
C1016 C 0.11697 0.90709 0.02354 0.0
C1017 C 0.13581 0.92853 0.01221 0.0
C1018 C 0.04828 0.84367 0.02341 0.0
C1019 C 0.04719 0.82197 0.02963 0.0
C1020 C 0.06976 0.86402 0.01702 0.0
C1021 C 0.09095 0.86345 0.01691 0.0
C1022 C 0.09002 0.84176 0.02318 0.0
C1023 C 0.06827 0.82116 0.02961 0.0
H1024 H 0.20168 0.2643 0.01886 0.0
H1025 H 0.15801 0.18888 0.03277 0.0
H1026 H 0.16677 0.2663 0.99945 0.0
H1027 H 0.12362 0.19093 0.01403 0.0
H1028 H 0.08787 0.25471 1.00101 0.0
H1029 H 0.12578 0.25891 0.01988 0.0
H1030 H 0.11199 0.1988 0.95498 0.0
H1031 H 0.07443 0.19442 0.93667 0.0
C1032 C 0.18464 0.24826 0.01829 0.0
C1033 C 0.18263 0.22639 0.02691 0.0
C1034 C 0.1647 0.24941 0.0072 0.0
C1035 C 0.14257 0.22869 1.00448 0.0
C1036 C 0.14052 0.20712 0.01492 0.0
C1037 C 0.16026 0.20598 0.0259 0.0
C1038 C 0.09322 0.24273 0.99029 0.0
C1039 C 0.07797 0.22399 0.96782 0.0
C1040 C 0.11488 0.24512 1.00112 0.0
C1041 C 0.12157 0.22883 0.98957 0.0
C1042 C 0.10704 0.21123 0.96512 0.0
C1043 C 0.08553 0.20879 0.9545 0.0
H1044 H 0.96627 0.80814 0.46351 0.0
H1045 H 0.93649 0.73397 0.4871 0.0
H1046 H 0.92975 0.80617 0.48162 0.0
H1047 H 0.89948 0.73207 0.50594 0.0
H1048 H 0.83171 0.74435 0.50625 0.0
H1049 H 0.86431 0.73891 0.48487 0.0
H1050 H 0.91378 0.80049 0.54444 0.0
H1051 H 0.88179 0.80601 0.56527 0.0
C1052 C 0.95179 0.7913 0.47219 0.0
C1053 C 0.95437 0.7713 0.47441 0.0
C1054 C 0.93087 0.7902 0.48271 0.0
C1055 C 0.912 0.7691 0.496 0.0
C1056 C 0.91383 0.74857 0.49595 0.0
C1057 C 0.93495 0.74967 0.48518 0.0
C1058 C 0.84953 0.75639 0.51523 0.0
C1059 C 0.85427 0.77587 0.53688 0.0
C1060 C 0.86813 0.7533 0.50297 0.0
C1061 C 0.89159 0.76964 0.51231 0.0
C1062 C 0.89595 0.78799 0.53602 0.0
C1063 C 0.87758 0.79111 0.54804 0.0
H1064 H 0.18676 0.15651 0.47114 0.0
H1065 H 0.26148 0.20127 0.49039 0.0
H1066 H 0.18911 0.12232 0.4901 0.0
H1067 H 0.26378 0.16653 0.50998 0.0
H1068 H 0.25341 0.08788 0.50909 0.0
H1069 H 0.2575 0.12561 0.4893 0.0
H1070 H 0.19576 0.11096 0.55061 0.0
H1071 H 0.19152 0.07363 0.56989 0.0
C1072 C 0.20379 0.15904 0.47918 0.0
C1073 C 0.22388 0.18166 0.47969 0.0
C1074 C 0.20509 0.13942 0.49025 0.0
C1075 C 0.22652 0.14182 0.50231 0.0
C1076 C 0.24701 0.16421 0.50097 0.0
C1077 C 0.2457 0.18404 0.48977 0.0
C1078 C 0.24102 0.093 0.51881 0.0
C1079 C 0.22189 0.07758 0.54055 0.0
C1080 C 0.24336 0.11455 0.50747 0.0
C1081 C 0.22662 0.12094 0.51775 0.0
C1082 C 0.20857 0.10623 0.54146 0.0
C1083 C 0.20619 0.08485 0.55261 0.0
H1084 H 0.92458 0.11953 0.57437 0.0
H1085 H 0.91047 0.16838 0.51668 0.0
H1086 H 0.8873 0.08683 0.55402 0.0
H1087 H 0.87274 0.13513 0.49597 0.0
H1088 H 0.84262 0.03433 0.47158 0.0
H1089 H 0.87661 0.07082 0.4913 0.0
H1090 H 0.83149 0.09935 0.51705 0.0
H1091 H 0.79693 0.06233 0.49682 0.0
C1092 C 0.91339 0.12334 0.55763 0.0
C1093 C 0.92071 0.14655 0.54669 0.0
C1094 C 0.89204 0.10456 0.54587 0.0
C1095 C 0.87739 0.10839 0.52274 0.0
C1096 C 0.88378 0.1317 0.51367 0.0
C1097 C 0.90533 0.15069 0.52557 0.0
C1098 C 0.83985 0.04841 0.48101 0.0
C1099 C 0.81704 0.04532 0.48309 0.0
C1100 C 0.85935 0.0693 0.49248 0.0
C1101 C 0.85663 0.08771 0.50649 0.0
C1102 C 0.83404 0.08536 0.50653 0.0
C1103 C 0.81432 0.06424 0.49494 0.0
H1104 H 0.92795 0.50516 0.34583 0.0
H1105 H 0.86519 0.45549 0.40322 0.0
H1106 H 0.93306 0.47232 0.32497 0.0
H1107 H 0.87037 0.42321 0.38261 0.0
H1108 H 0.93605 0.39882 0.32766 0.0
H1109 H 0.93859 0.43598 0.34749 0.0
H1110 H 0.86563 0.40841 0.3181 0.0
H1111 H 0.86305 0.37183 0.29873 0.0
C1112 C 0.91558 0.48738 0.35461 0.0
C1113 C 0.89592 0.48289 0.37569 0.0
C1114 C 0.91852 0.46865 0.34264 0.0
C1115 C 0.90182 0.44524 0.35158 0.0
C1116 C 0.88321 0.44105 0.37465 0.0
C1117 C 0.88028 0.45959 0.38652 0.0
C1118 C 0.92078 0.40101 0.32479 0.0
C1119 C 0.89925 0.38231 0.31215 0.0
C1120 C 0.92222 0.42219 0.33617 0.0
C1121 C 0.90214 0.42478 0.33505 0.0
C1122 C 0.88123 0.40667 0.32005 0.0
C1123 C 0.87979 0.38573 0.30881 0.0
H1124 H 0.6081 0.53908 0.32889 0.0
H1125 H 0.63453 0.49309 0.29714 0.0
H1126 H 0.57121 0.50445 0.34936 0.0
H1127 H 0.59812 0.45902 0.31703 0.0
H1128 H 0.55224 0.41137 0.40354 0.0
H1129 H 0.58433 0.44825 0.38096 0.0
H1130 H 0.53437 0.46327 0.32914 0.0
H1131 H 0.50169 0.42588 0.35205 0.0
C1132 C 0.60582 0.52161 0.32552 0.0
C1133 C 0.62433 0.5188 0.31194 0.0
C1134 C 0.58477 0.50185 0.33725 0.0
C1135 C 0.58207 0.47914 0.33552 0.0
C1136 C 0.59994 0.47636 0.3195 0.0
C1137 C 0.62078 0.49591 0.30796 0.0
C1138 C 0.54792 0.42253 0.38763 0.0
C1139 C 0.52436 0.41544 0.37917 0.0
C1140 C 0.56637 0.44366 0.37458 0.0
C1141 C 0.56187 0.45837 0.35263 0.0
C1142 C 0.53831 0.45218 0.34588 0.0
C1143 C 0.51966 0.43082 0.35903 0.0
H1144 H 0.50968 0.1448 0.30784 0.0
H1145 H 0.46398 0.06918 0.31432 0.0
H1146 H 0.54387 0.14026 0.31534 0.0
H1147 H 0.4989 0.06456 0.32191 0.0
H1148 H 0.57046 0.08078 0.38636 0.0
H1149 H 0.53194 0.07595 0.36923 0.0
H1150 H 0.56523 0.12448 0.28171 0.0
H1151 H 0.60336 0.12978 0.29944 0.0
C1152 C 0.50691 0.1271 0.31048 0.0
C1153 C 0.48408 0.10734 0.31033 0.0
C1154 C 0.52661 0.12449 0.31459 0.0
C1155 C 0.52414 0.10202 0.31883 0.0
C1156 C 0.50132 0.08209 0.31864 0.0
C1157 C 0.4814 0.08472 0.3141 0.0
C1158 C 0.56929 0.08985 0.36295 0.0
C1159 C 0.58982 0.10596 0.34455 0.0
C1160 C 0.5473 0.08708 0.3531 0.0
C1161 C 0.54569 0.10024 0.32458 0.0
C1162 C 0.56599 0.11453 0.3043 0.0
C1163 C 0.58781 0.11752 0.31437 0.0
H1164 H 0.79103 0.53077 0.76864 0.0
H1165 H 0.83955 0.59211 0.82978 0.0
H1166 H 0.75839 0.53566 0.78832 0.0
H1167 H 0.80637 0.5969 0.84982 0.0
H1168 H 0.73455 0.60137 0.84901 0.0
H1169 H 0.7714 0.60354 0.82858 0.0
H1170 H 0.7414 0.52917 0.85045 0.0
H1171 H 0.7051 0.52694 0.87038 0.0
C1172 C 0.79479 0.5455 0.78599 0.0
C1173 C 0.81786 0.56081 0.79811 0.0
C1174 C 0.77604 0.54825 0.79735 0.0
C1175 C 0.77978 0.56632 0.82126 0.0
C1176 C 0.80302 0.58275 0.83149 0.0
C1177 C 0.82196 0.58001 0.81999 0.0
C1178 C 0.73607 0.58563 0.84991 0.0
C1179 C 0.71682 0.56392 0.86084 0.0
C1180 C 0.7571 0.58688 0.83823 0.0
C1181 C 0.75903 0.5664 0.83721 0.0
C1182 C 0.74023 0.54512 0.8501 0.0
C1183 C 0.71943 0.54388 0.8617 0.0
H1184 H 0.48259 0.17596 0.8705 0.0
H1185 H 0.40649 0.13364 0.86807 0.0
H1186 H 0.48028 0.21115 0.86003 0.0
H1187 H 0.4041 0.1696 0.85806 0.0
H1188 H 0.41888 0.23894 0.79246 0.0
H1189 H 0.41406 0.20064 0.81091 0.0
H1190 H 0.46879 0.23616 0.88998 0.0
H1191 H 0.47419 0.27398 0.87058 0.0
C1192 C 0.46526 0.17419 0.8682 0.0
C1193 C 0.44471 0.15197 0.87025 0.0
C1194 C 0.46393 0.19449 0.8624 0.0
C1195 C 0.44199 0.1933 0.85859 0.0
C1196 C 0.42127 0.17109 0.86083 0.0
C1197 C 0.42263 0.15056 0.86679 0.0
C1198 C 0.42955 0.23835 0.8141 0.0
C1199 C 0.44727 0.25936 0.82957 0.0
C1200 C 0.42675 0.21648 0.82478 0.0
C1201 C 0.44144 0.21542 0.85137 0.0
C1202 C 0.45769 0.23639 0.8687 0.0
C1203 C 0.46075 0.25807 0.85767 0.0
H1204 H 0.75724 0.16621 0.83094 0.0
H1205 H 0.74223 0.21624 0.77896 0.0
H1206 H 0.79517 0.19913 0.85205 0.0
H1207 H 0.77959 0.24852 0.79957 0.0
H1208 H 0.82632 0.30028 0.87987 0.0
H1209 H 0.79171 0.26365 0.86215 0.0
H1210 H 0.83598 0.2353 0.83018 0.0
H1211 H 0.87115 0.27238 0.84862 0.0
C1212 C 0.76218 0.18411 0.82352 0.0
C1213 C 0.74653 0.18865 0.80384 0.0
C1214 C 0.78383 0.2029 0.83561 0.0
C1215 C 0.79002 0.22639 0.82815 0.0
C1216 C 0.77501 0.23065 0.80657 0.0
C1217 C 0.75359 0.21209 0.79467 0.0
C1218 C 0.82878 0.28619 0.86956 0.0
C1219 C 0.85149 0.28935 0.86514 0.0
C1220 C 0.80892 0.26521 0.85927 0.0
C1221 C 0.81119 0.24683 0.84402 0.0
C1222 C 0.83376 0.24924 0.84175 0.0
C1223 C 0.85383 0.27041 0.85227 0.0
H1224 H 0.47582 0.21856 0.28735 0.0
H1225 H 0.41205 0.16902 0.34266 0.0
H1226 H 0.47101 0.25102 0.30797 0.0
H1227 H 0.40731 0.20212 0.3638 0.0
H1228 H 0.40496 0.27582 0.36035 0.0
H1229 H 0.40235 0.23841 0.34192 0.0
H1230 H 0.47542 0.26641 0.37105 0.0
H1231 H 0.47812 0.30334 0.3888 0.0
C1232 C 0.46061 0.21457 0.30374 0.0
C1233 C 0.44454 0.19123 0.3139 0.0
C1234 C 0.45791 0.23321 0.31564 0.0
C1235 C 0.43912 0.22914 0.33822 0.0
C1236 C 0.42204 0.20572 0.34657 0.0
C1237 C 0.42473 0.18683 0.33445 0.0
C1238 C 0.42026 0.2737 0.36342 0.0
C1239 C 0.44186 0.29262 0.37546 0.0
C1240 C 0.41876 0.25234 0.35289 0.0
C1241 C 0.43884 0.24975 0.35433 0.0
C1242 C 0.45982 0.26811 0.36884 0.0
C1243 C 0.46133 0.28926 0.37914 0.0
H1244 H 0.8281 0.24122 0.28874 0.0
H1245 H 0.80091 0.27812 0.35047 0.0
H1246 H 0.794 0.2033 0.30691 0.0
H1247 H 0.76786 0.2408 0.36973 0.0
H1248 H 0.69662 0.17721 0.3503 0.0
H1249 H 0.73363 0.2127 0.3386 0.0
H1250 H 0.77113 0.17472 0.35531 0.0
H1251 H 0.7333 0.13836 0.36623 0.0
C1252 C 0.81508 0.24119 0.30664 0.0
C1253 C 0.81678 0.26256 0.31748 0.0
C1254 C 0.79566 0.21954 0.31721 0.0
C1255 C 0.77791 0.21903 0.33915 0.0
C1256 C 0.78074 0.2405 0.35191 0.0
C1257 C 0.79974 0.26193 0.34092 0.0
C1258 C 0.71269 0.1763 0.3518 0.0
C1259 C 0.712 0.15495 0.35939 0.0
C1260 C 0.73403 0.19679 0.34527 0.0
C1261 C 0.75546 0.1967 0.34645 0.0
C1262 C 0.75492 0.17535 0.35411 0.0
C1263 C 0.73332 0.15461 0.36061 0.0
H1264 H 0.87138 0.59935 0.34871 0.0
H1265 H 0.82732 0.52549 0.37467 0.0
H1266 H 0.8361 0.60088 0.32994 0.0
H1267 H 0.79257 0.52709 0.35656 0.0
H1268 H 0.74232 0.52669 0.27632 0.0
H1269 H 0.7797 0.53129 0.29588 0.0
H1270 H 0.79575 0.59548 0.3513 0.0
H1271 H 0.75792 0.591 0.33129 0.0
C1272 C 0.85419 0.58361 0.35103 0.0
C1273 C 0.85214 0.56222 0.36268 0.0
C1274 C 0.83404 0.58449 0.3403 0.0
C1275 C 0.81166 0.56397 0.34105 0.0
C1276 C 0.80963 0.54305 0.3548 0.0
C1277 C 0.82958 0.54217 0.36537 0.0
C1278 C 0.7538 0.54194 0.29242 0.0
C1279 C 0.7469 0.55827 0.30269 0.0
C1280 C 0.77523 0.54452 0.30376 0.0
C1281 C 0.79041 0.56344 0.32582 0.0
C1282 C 0.78433 0.58066 0.33443 0.0
C1283 C 0.7627 0.57809 0.32295 0.0
H1284 H 0.63357 0.14074 0.79111 0.0
H1285 H 0.60719 0.06738 0.81702 0.0
H1286 H 0.59671 0.13738 0.81102 0.0
H1287 H 0.5698 0.06407 0.83741 0.0
H1288 H 0.50048 0.07571 0.839 0.0
H1289 H 0.53288 0.07048 0.81589 0.0
H1290 H 0.58283 0.13079 0.87721 0.0
H1291 H 0.55103 0.13603 0.89997 0.0
C1292 C 0.61972 0.12375 0.80054 0.0
C1293 C 0.62341 0.10442 0.803 0.0
C1294 C 0.59862 0.12185 0.81204 0.0
C1295 C 0.58064 0.10061 0.82645 0.0
C1296 C 0.58347 0.08066 0.82651 0.0
C1297 C 0.60479 0.08256 0.81483 0.0
C1298 C 0.51834 0.08744 0.84811 0.0
C1299 C 0.52329 0.10653 0.8708 0.0
C1300 C 0.53682 0.08448 0.83485 0.0
C1301 C 0.56035 0.10058 0.84418 0.0
C1302 C 0.56491 0.11845 0.86895 0.0
C1303 C 0.54666 0.12141 0.88204 0.0
H1304 H 0.86018 0.49217 0.80306 0.0
H1305 H 0.93443 0.53642 0.8264 0.0
H1306 H 0.86185 0.45768 0.82246 0.0
H1307 H 0.93603 0.50138 0.8464 0.0
H1308 H 0.92516 0.42253 0.84615 0.0
H1309 H 0.92989 0.4604 0.82576 0.0
H1310 H 0.86705 0.44597 0.88379 0.0
H1311 H 0.86221 0.40852 0.90375 0.0
C1312 C 0.87697 0.49453 0.81206 0.0
C1313 C 0.89711 0.51708 0.81362 0.0
C1314 C 0.87788 0.47473 0.82338 0.0
C1315 C 0.89894 0.4769 0.83672 0.0
C1316 C 0.91953 0.49924 0.83638 0.0
C1317 C 0.91861 0.51923 0.82494 0.0
C1318 C 0.91265 0.42771 0.85505 0.0
C1319 C 0.89308 0.41233 0.87609 0.0
C1320 C 0.91535 0.44935 0.84334 0.0
C1321 C 0.89853 0.45585 0.85252 0.0
C1322 C 0.87996 0.44116 0.8755 0.0
C1323 C 0.87724 0.4197 0.88705 0.0
H1324 H 0.5845 0.50399 0.84566 0.0
H1325 H 0.59791 0.45745 0.91081 0.0
H1326 H 0.5466 0.47015 0.82691 0.0
H1327 H 0.56037 0.42414 0.89262 0.0
H1328 H 0.51505 0.368 0.81515 0.0
H1329 H 0.54929 0.40483 0.83301 0.0
H1330 H 0.50543 0.4362 0.84797 0.0
H1331 H 0.47064 0.39884 0.82943 0.0
C1332 C 0.57913 0.4867 0.85661 0.0
C1333 C 0.59436 0.4833 0.87924 0.0
C1334 C 0.55749 0.46737 0.84584 0.0
C1335 C 0.55083 0.44445 0.85764 0.0
C1336 C 0.56532 0.44149 0.88231 0.0
C1337 C 0.58681 0.46062 0.89286 0.0
C1338 C 0.51261 0.38274 0.82186 0.0
C1339 C 0.49008 0.38041 0.82132 0.0
C1340 C 0.53225 0.40385 0.83232 0.0
C1341 C 0.52995 0.42322 0.84274 0.0
C1342 C 0.50767 0.42148 0.84026 0.0
C1343 C 0.48781 0.40016 0.82965 0.0
H1344 H 0.52458 0.6996 0.63791 0.0
H1345 H 0.599 0.72947 0.65961 0.0
H1346 H 0.52661 0.73597 0.65696 0.0
H1347 H 0.60098 0.76637 0.6793 0.0
H1348 H 0.58932 0.83432 0.67877 0.0
H1349 H 0.5944 0.8013 0.65865 0.0
H1350 H 0.53258 0.75284 0.71868 0.0
H1351 H 0.52737 0.78531 0.73825 0.0
C1352 C 0.54148 0.71405 0.64644 0.0
C1353 C 0.56156 0.71153 0.64771 0.0
C1354 C 0.54261 0.73489 0.65755 0.0
C1355 C 0.56382 0.75381 0.67045 0.0
C1356 C 0.58437 0.75199 0.66966 0.0
C1357 C 0.58324 0.73093 0.65838 0.0
C1358 C 0.57716 0.81665 0.6882 0.0
C1359 C 0.5577 0.81234 0.70959 0.0
C1360 C 0.58005 0.79779 0.67665 0.0
C1361 C 0.56354 0.77447 0.68641 0.0
C1362 C 0.54522 0.77055 0.70994 0.0
C1363 C 0.54229 0.7892 0.72127 0.0
H1364 H 0.1965 0.72801 0.63938 0.0
H1365 H 0.1767 0.762 0.71993 0.0
H1366 H 0.22916 0.76605 0.62117 0.0
H1367 H 0.21037 0.80047 0.70265 0.0
H1368 H 0.27041 0.86821 0.6477 0.0
H1369 H 0.23183 0.83235 0.65682 0.0
H1370 H 0.26568 0.79014 0.65181 0.0
H1371 H 0.3034 0.82524 0.64219 0.0
C1372 C 0.19908 0.74375 0.653 0.0
C1373 C 0.18438 0.74209 0.68143 0.0
C1374 C 0.21785 0.76555 0.64268 0.0
C1375 C 0.22277 0.78624 0.66108 0.0
C1376 C 0.20706 0.78485 0.68797 0.0
C1377 C 0.18786 0.76288 0.69794 0.0
C1378 C 0.26941 0.85117 0.64819 0.0
C1379 C 0.28993 0.84955 0.64404 0.0
C1380 C 0.2474 0.8307 0.65361 0.0
C1381 C 0.24561 0.80834 0.65463 0.0
C1382 C 0.26622 0.80694 0.65032 0.0
C1383 C 0.28798 0.82719 0.64503 0.0
H1384 H 0.25785 0.46843 0.74506 0.0
H1385 H 0.24584 0.40944 0.67862 0.0
H1386 H 0.22052 0.46421 0.72565 0.0
H1387 H 0.20815 0.40538 0.65874 0.0
H1388 H 0.13222 0.40091 0.65788 0.0
H1389 H 0.16637 0.39798 0.67875 0.0
H1390 H 0.21105 0.47322 0.66481 0.0
H1391 H 0.17746 0.47618 0.64449 0.0
C1392 C 0.24707 0.45433 0.72663 0.0
C1393 C 0.25499 0.43952 0.71294 0.0
C1394 C 0.22571 0.45198 0.71541 0.0
C1395 C 0.21172 0.43484 0.69003 0.0
C1396 C 0.21866 0.4188 0.67823 0.0
C1397 C 0.24018 0.42112 0.68965 0.0
C1398 C 0.14944 0.41671 0.65888 0.0
C1399 C 0.15211 0.43882 0.64998 0.0
C1400 C 0.16892 0.41503 0.67081 0.0
C1401 C 0.19123 0.43545 0.67414 0.0
C1402 C 0.19396 0.45725 0.6634 0.0
C1403 C 0.17469 0.45892 0.65154 0.0
H1404 H 0.36659 0.85692 0.20517 0.0
H1405 H 0.3985 0.93259 0.19492 0.0
H1406 H 0.40439 0.85986 0.19514 0.0
H1407 H 0.43719 0.93565 0.18526 0.0
H1408 H 0.49083 0.9188 0.12042 0.0
H1409 H 0.4577 0.92409 0.13909 0.0
H1410 H 0.44174 0.87364 0.22407 0.0
H1411 H 0.47383 0.86772 0.2045 0.0
C1412 C 0.3818 0.87431 0.20124 0.0
C1413 C 0.37951 0.89454 0.20096 0.0
C1414 C 0.40362 0.87602 0.19571 0.0
C1415 C 0.42395 0.89803 0.1898 0.0
C1416 C 0.42184 0.91844 0.18973 0.0
C1417 C 0.39977 0.91671 0.19547 0.0
C1418 C 0.48044 0.90927 0.14348 0.0
C1419 C 0.48449 0.89252 0.16063 0.0
C1420 C 0.46156 0.91233 0.15426 0.0
C1421 C 0.44674 0.89887 0.18257 0.0
C1422 C 0.45235 0.88377 0.20154 0.0
C1423 C 0.47078 0.88044 0.19044 0.0
H1424 H 0.07883 0.57949 0.16227 0.0
H1425 H 0.13931 0.59097 0.10015 0.0
H1426 H 0.07422 0.54189 0.184 0.0
H1427 H 0.13458 0.55378 0.12135 0.0
H1428 H 0.14477 0.51094 0.2041 0.0
H1429 H 0.14211 0.54467 0.18348 0.0
H1430 H 0.0673 0.49986 0.16549 0.0
H1431 H 0.06994 0.4656 0.18672 0.0
C1432 C 0.09071 0.57372 0.15255 0.0
C1433 C 0.10966 0.58836 0.12995 0.0
C1434 C 0.08811 0.55227 0.16505 0.0
C1435 C 0.10441 0.54524 0.15504 0.0
C1436 C 0.12212 0.55904 0.13028 0.0
C1437 C 0.12476 0.58032 0.11799 0.0
C1438 C 0.12765 0.50821 0.19622 0.0
C1439 C 0.10763 0.48555 0.19659 0.0
C1440 C 0.12615 0.52755 0.18419 0.0
C1441 C 0.10461 0.5248 0.17202 0.0
C1442 C 0.08416 0.50243 0.17452 0.0
C1443 C 0.08566 0.48289 0.18671 0.0
H1444 H 0.53774 0.60282 0.18513 0.0
H1445 H 0.49125 0.62971 0.21145 0.0
H1446 H 0.50344 0.56563 0.16464 0.0
H1447 H 0.45755 0.59308 0.19141 0.0
H1448 H 0.4112 0.54582 0.10553 0.0
H1449 H 0.44845 0.57817 0.12671 0.0
H1450 H 0.46126 0.52927 0.18647 0.0
H1451 H 0.42351 0.49636 0.16504 0.0
C1452 C 0.52023 0.60061 0.18726 0.0
C1453 C 0.51719 0.61928 0.19938 0.0
C1454 C 0.50068 0.5794 0.17552 0.0
C1455 C 0.47797 0.57676 0.17573 0.0
C1456 C 0.47493 0.59485 0.19017 0.0
C1457 C 0.49426 0.61582 0.2018 0.0
C1458 C 0.42201 0.54179 0.12279 0.0
C1459 C 0.41417 0.51853 0.13407 0.0
C1460 C 0.44335 0.56036 0.13498 0.0
C1461 C 0.45745 0.55625 0.15884 0.0
C1462 C 0.45062 0.53288 0.16819 0.0
C1463 C 0.42907 0.5141 0.15589 0.0
H1464 H 0.06906 0.60237 0.68379 0.0
H1465 H 0.14363 0.63251 0.70442 0.0
H1466 H 0.06702 0.56542 0.66433 0.0
H1467 H 0.14154 0.59604 0.68565 0.0
H1468 H 0.14042 0.54657 0.60426 0.0
H1469 H 0.13535 0.57908 0.6241 0.0
H1470 H 0.07365 0.53064 0.68442 0.0
H1471 H 0.0786 0.49761 0.66403 0.0
C1472 C 0.08484 0.60093 0.68491 0.0
C1473 C 0.10658 0.62041 0.69511 0.0
C1474 C 0.08368 0.57985 0.67373 0.0
C1475 C 0.10425 0.5781 0.67264 0.0
C1476 C 0.12552 0.59708 0.68525 0.0
C1477 C 0.12669 0.61796 0.69622 0.0
C1478 C 0.12554 0.54271 0.62133 0.0
C1479 C 0.11013 0.51957 0.63301 0.0
C1480 C 0.1227 0.56137 0.63284 0.0
C1481 C 0.10447 0.55746 0.65656 0.0
C1482 C 0.08794 0.53414 0.66629 0.0
C1483 C 0.09074 0.51528 0.65456 0.0
H1484 H 0.39789 0.46539 0.69482 0.0
H1485 H 0.36382 0.50742 0.69742 0.0
H1486 H 0.43597 0.50132 0.6831 0.0
H1487 H 0.40097 0.54252 0.68497 0.0
H1488 H 0.46991 0.60581 0.69346 0.0
H1489 H 0.43736 0.56822 0.71322 0.0
H1490 H 0.45713 0.53189 0.6364 0.0
H1491 H 0.49082 0.57 0.61777 0.0
C1492 C 0.39854 0.48223 0.69309 0.0
C1493 C 0.37787 0.48357 0.69729 0.0
C1494 C 0.42027 0.50275 0.68616 0.0
C1495 C 0.42162 0.52489 0.6835 0.0
C1496 C 0.40083 0.52596 0.68772 0.0
C1497 C 0.37937 0.50569 0.69465 0.0
C1498 C 0.46749 0.58977 0.68108 0.0
C1499 C 0.48256 0.59078 0.65366 0.0
C1500 C 0.44877 0.5682 0.69229 0.0
C1501 C 0.44419 0.54704 0.67573 0.0
C1502 C 0.46014 0.54786 0.64968 0.0
C1503 C 0.47933 0.56962 0.63889 0.0
H1504 H 0.41045 0.86418 0.60095 0.0
H1505 H 0.42227 0.9233 0.66691 0.0
H1506 H 0.44773 0.86845 0.62072 0.0
H1507 H 0.45994 0.92744 0.68713 0.0
H1508 H 0.53605 0.93166 0.68761 0.0
H1509 H 0.5019 0.93471 0.66697 0.0
H1510 H 0.45694 0.85963 0.68211 0.0
H1511 H 0.4905 0.85654 0.70218 0.0
C1512 C 0.42117 0.87831 0.61937 0.0
C1513 C 0.4132 0.89314 0.63282 0.0
C1514 C 0.44252 0.8807 0.63078 0.0
C1515 C 0.45645 0.89791 0.65612 0.0
C1516 C 0.44947 0.91396 0.66769 0.0
C1517 C 0.42796 0.9116 0.65608 0.0
C1518 C 0.51876 0.91593 0.68698 0.0
C1519 C 0.516 0.89381 0.69605 0.0
C1520 C 0.49928 0.91768 0.67517 0.0
C1521 C 0.4769 0.89731 0.67219 0.0
C1522 C 0.47408 0.87554 0.68325 0.0
C1523 C 0.49334 0.8738 0.69495 0.0
H1524 H 0.19854 0.46956 0.1445 0.0
H1525 H 0.17862 0.41511 0.22402 0.0
H1526 H 0.23091 0.46402 0.12544 0.0
H1527 H 0.21205 0.41016 0.20592 0.0
H1528 H 0.27107 0.40176 0.14924 0.0
H1529 H 0.23289 0.39963 0.15974 0.0
H1530 H 0.26759 0.47575 0.15436 0.0
H1531 H 0.30489 0.47779 0.14326 0.0
C1532 C 0.20108 0.45627 0.15779 0.0
C1533 C 0.18638 0.44306 0.18613 0.0
C1534 C 0.21969 0.45315 0.14697 0.0
C1535 C 0.2245 0.4371 0.16477 0.0
C1536 C 0.20885 0.42269 0.19167 0.0
C1537 C 0.18978 0.42556 0.20214 0.0
C1538 C 0.27034 0.41794 0.14992 0.0
C1539 C 0.29098 0.43993 0.14522 0.0
C1540 C 0.24855 0.41673 0.15615 0.0
C1541 C 0.2471 0.4375 0.15751 0.0
C1542 C 0.26783 0.45934 0.15264 0.0
C1543 C 0.28937 0.46053 0.14649 0.0
H1544 H 0.59754 0.86528 0.15634 0.0
H1545 H 0.52301 0.82177 0.13461 0.0
H1546 H 0.59894 0.82999 0.17537 0.0
H1547 H 0.52447 0.78692 0.15274 0.0
H1548 H 0.58847 0.75196 0.1779 0.0
H1549 H 0.59288 0.78947 0.15643 0.0
H1550 H 0.52936 0.77466 0.21286 0.0
H1551 H 0.52478 0.73752 0.2337 0.0
C1552 C 0.58164 0.84817 0.15487 0.0
C1553 C 0.56009 0.84628 0.14453 0.0
C1554 C 0.58243 0.82802 0.16578 0.0
C1555 C 0.56169 0.8058 0.16639 0.0
C1556 C 0.54061 0.80388 0.15357 0.0
C1557 C 0.5398 0.82385 0.14295 0.0
C1558 C 0.5757 0.75697 0.18612 0.0
C1559 C 0.55606 0.74158 0.20704 0.0
C1560 C 0.57822 0.7784 0.1738 0.0
C1561 C 0.56114 0.78471 0.18225 0.0
C1562 C 0.54244 0.76998 0.20501 0.0
C1563 C 0.53988 0.74871 0.21713 0.0
H1564 H 0.17793 0.69922 0.13798 0.0
H1565 H 0.13322 0.72954 0.15427 0.0
H1566 H 0.21193 0.73569 0.15768 0.0
H1567 H 0.16776 0.76651 0.17458 0.0
H1568 H 0.24683 0.83451 0.17505 0.0
H1569 H 0.20921 0.80099 0.1546 0.0
H1570 H 0.22232 0.75378 0.21841 0.0
H1571 H 0.25953 0.78675 0.23837 0.0
C1572 C 0.17537 0.71377 0.14553 0.0
C1573 C 0.15282 0.71138 0.14498 0.0
C1574 C 0.19488 0.73466 0.15702 0.0
C1575 C 0.19243 0.75377 0.16843 0.0
C1576 C 0.17012 0.752 0.16608 0.0
C1577 C 0.15041 0.73089 0.15447 0.0
C1578 C 0.24138 0.81701 0.18519 0.0
C1579 C 0.25635 0.81322 0.20783 0.0
C1580 C 0.21989 0.79786 0.17346 0.0
C1581 C 0.21314 0.77473 0.18426 0.0
C1582 C 0.22735 0.77132 0.20887 0.0
C1583 C 0.24867 0.79026 0.22041 0.0
H1584 H 0.25229 0.22267 0.16058 0.0
H1585 H 0.18288 0.21497 0.16803 0.0
H1586 H 0.25652 0.22745 0.22575 0.0
H1587 H 0.18751 0.22043 0.23266 0.0
H1588 H 0.2129 0.18296 0.33817 0.0
H1589 H 0.21902 0.1885 0.27376 0.0
H1590 H 0.22573 0.2573 0.2825 0.0
H1591 H 0.22025 0.25217 0.34751 0.0
C1592 C 0.23827 0.22269 0.17593 0.0
C1593 C 0.2172 0.21831 0.15919 0.0
C1594 C 0.24069 0.22539 0.21313 0.0
C1595 C 0.22238 0.22443 0.23397 0.0
C1596 C 0.20196 0.22148 0.21705 0.0
C1597 C 0.1993 0.21825 0.18011 0.0
C1598 C 0.21623 0.19953 0.32657 0.0
C1599 C 0.21601 0.2171 0.34796 0.0
C1600 C 0.21984 0.20269 0.28974 0.0
C1601 C 0.22291 0.22333 0.27339 0.0
C1602 C 0.22357 0.24132 0.2947 0.0
C1603 C 0.22048 0.23837 0.3318 0.0
H1604 H 0.77259 0.96631 0.17144 0.0
H1605 H 0.78218 0.03649 0.166 0.0
H1606 H 0.76732 0.9659 0.236 0.0
H1607 H 0.77745 0.0363 0.23108 0.0
H1608 H 0.81208 0.03468 0.34378 0.0
H1609 H 0.80601 0.03564 0.27964 0.0
H1610 H 0.74135 0.96865 0.28694 0.0
H1611 H 0.74715 0.96792 0.35158 0.0
C1612 C 0.77306 0.98146 0.18402 0.0
C1613 C 0.77784 0.00145 0.16372 0.0
C1614 C 0.76994 0.98118 0.22097 0.0
C1615 C 0.77204 1.00109 0.2386 0.0
C1616 C 0.77576 0.02071 0.21814 0.0
C1617 C 0.77833 0.02078 0.18094 0.0
C1618 C 0.79628 0.0204 0.33185 0.0
C1619 C 0.78015 1.00117 0.35269 0.0
C1620 C 0.79274 0.02103 0.29515 0.0
C1621 C 0.77323 0.00221 0.27827 0.0
C1622 C 0.75655 0.98339 0.29928 0.0
C1623 C 0.75982 0.98302 0.33625 0.0
H1624 H 0.02491 0.77466 0.34322 0.0
H1625 H 0.9744 0.7989 0.34102 0.0
H1626 H 0.02284 0.77149 0.27757 0.0
H1627 H 0.97252 0.79579 0.27653 0.0
H1628 H 0.00597 0.8263 0.16949 0.0
H1629 H 0.00685 0.82222 0.23349 0.0
H1630 H 0.99149 0.75035 0.22108 0.0
H1631 H 0.99041 0.75426 0.15574 0.0
C1632 C 0.0131 0.77889 0.32894 0.0
C1633 C 1.0002 0.7875 0.34743 0.0
C1634 C 0.01189 0.77702 0.29142 0.0
C1635 C 0.99779 0.78376 0.27195 0.0
C1636 C 0.98384 0.79086 0.29073 0.0
C1637 C 0.985 0.79268 0.3278 0.0
C1638 C 0.00283 0.80954 0.17997 0.0
C1639 C 0.99788 0.79052 0.15711 0.0
C1640 C 0.00332 0.80724 0.21687 0.0
C1641 C 0.99902 0.78592 0.23234 0.0
C1642 C 0.99487 0.767 0.20981 0.0
C1643 C 0.99414 0.76923 0.17247 0.0
H1644 H 0.75754 0.75952 0.85458 0.0
H1645 H 0.8176 0.82945 0.84052 0.0
H1646 H 0.75637 0.75315 0.78952 0.0
H1647 H 0.8161 0.82342 0.7768 0.0
H1648 H 0.83007 0.80087 0.67459 0.0
H1649 H 0.82604 0.79985 0.73905 0.0
H1650 H 0.7503 0.7668 0.72834 0.0
H1651 H 0.75447 0.76705 0.66284 0.0
C1652 C 0.77026 0.77356 0.83768 0.0
C1653 C 0.78796 0.7948 0.85284 0.0
C1654 C 0.76959 0.76994 0.80049 0.0
C1655 C 0.78654 0.78755 0.77801 0.0
C1656 C 0.80327 0.80914 0.79328 0.0
C1657 C 0.80406 0.81265 0.82999 0.0
C1658 C 0.81251 0.79299 0.68597 0.0
C1659 C 0.79262 0.78428 0.6638 0.0
C1660 C 0.81017 0.79255 0.72294 0.0
C1661 C 0.78789 0.78387 0.73892 0.0
C1662 C 0.76772 0.77369 0.71686 0.0
C1663 C 0.77007 0.77382 0.67946 0.0
H1664 H 0.18649 0.9654 0.66729 0.0
H1665 H 0.24914 0.03414 0.66094 0.0
H1666 H 0.19163 0.96498 0.73186 0.0
H1667 H 0.2539 0.03397 0.72596 0.0
H1668 H 0.21948 0.03388 0.84004 0.0
H1669 H 0.22449 0.03415 0.77539 0.0
H1670 H 0.22205 0.9671 0.78176 0.0
H1671 H 0.21769 0.96713 0.84694 0.0
C1672 C 0.20161 0.98024 0.67966 0.0
C1673 C 0.21739 0.99982 0.65908 0.0
C1674 C 0.2046 0.97994 0.71659 0.0
C1675 C 0.22313 0.99945 0.73392 0.0
C1676 C 0.23946 0.01869 0.71323 0.0
C1677 C 0.23681 0.01874 0.67606 0.0
C1678 C 0.22048 0.01941 0.82774 0.0
C1679 C 0.21813 1.00044 0.84853 0.0
C1680 C 0.22349 0.01964 0.79076 0.0
C1681 C 0.22366 1.00066 0.77357 0.0
C1682 C 0.222 0.98197 0.79439 0.0
C1683 C 0.2196 0.98203 0.83163 0.0
H1684 H 0.96569 0.21866 0.66529 0.0
H1685 H 0.03369 0.22319 0.67256 0.0
H1686 H 0.96571 0.22374 0.73024 0.0
H1687 H 0.03398 0.22889 0.73705 0.0
H1688 H 0.0325 0.25165 0.85174 0.0
H1689 H 0.03242 0.25713 0.78691 0.0
H1690 H 0.96441 0.19369 0.7795 0.0
H1691 H 0.96475 0.18785 0.84387 0.0
C1692 C 0.98093 0.22145 0.68059 0.0
C1693 C 0.99965 0.22043 0.66393 0.0
C1694 C 0.98088 0.22424 0.71772 0.0
C1695 C 0.99985 0.2267 0.73863 0.0
C1696 C 0.01924 0.22725 0.72158 0.0
C1697 C 0.01902 0.22388 0.6847 0.0
C1698 C 0.0173 0.23921 0.83634 0.0
C1699 C 0.99868 0.21926 0.8528 0.0
C1700 C 0.01731 0.24229 0.79929 0.0
C1701 C 0.9984 0.22583 0.77823 0.0
C1702 C 0.9791 0.20676 0.79508 0.0
C1703 C 0.97936 0.20337 0.83189 0.0
H1704 H 0.85977 0.55951 0.50215 0.0
H1705 H 0.92304 0.55471 0.49385 0.0
H1706 H 0.86554 0.56523 0.56659 0.0
H1707 H 0.92846 0.55979 0.55877 0.0
H1708 H 0.8939 0.52385 0.67262 0.0
H1709 H 0.89986 0.52977 0.60822 0.0
H1710 H 0.89563 0.59335 0.61633 0.0
H1711 H 0.8903 0.58779 0.68119 0.0
C1712 C 0.87519 0.56018 0.51406 0.0
C1713 C 0.89094 0.55665 0.493 0.0
C1714 C 0.87854 0.56355 0.55092 0.0
C1715 C 0.89742 0.56291 0.56768 0.0
C1716 C 0.91377 0.56038 0.54648 0.0
C1717 C 0.91074 0.55759 0.50937 0.0
C1718 C 0.89486 0.53943 0.66079 0.0
C1719 C 0.8916 0.55534 0.68191 0.0
C1720 C 0.89837 0.54287 0.62396 0.0
C1721 C 0.89816 0.56199 0.60729 0.0
C1722 C 0.89589 0.57847 0.62855 0.0
C1723 C 0.89295 0.57535 0.66563 0.0
H1724 H 0.47063 0.37819 0.50903 0.0
H1725 H 0.4358 0.30218 0.50688 0.0
H1726 H 0.46825 0.37726 0.57445 0.0
H1727 H 0.43271 0.30112 0.57214 0.0
H1728 H 0.42052 0.30981 0.69193 0.0
H1729 H 0.41569 0.31288 0.62747 0.0
H1730 H 0.48998 0.3636 0.61824 0.0
H1731 H 0.49495 0.3604 0.68199 0.0
C1732 C 0.46169 0.36129 0.52254 0.0
C1733 C 0.4532 0.34025 0.50307 0.0
C1734 C 0.46049 0.36074 0.55991 0.0
C1735 C 0.45032 0.3391 0.57839 0.0
C1736 C 0.44045 0.31802 0.55865 0.0
C1737 C 0.4422 0.31861 0.52137 0.0
C1738 C 0.43576 0.3218 0.67617 0.0
C1739 C 0.45815 0.33474 0.69216 0.0
C1740 C 0.43297 0.32349 0.63931 0.0
C1741 C 0.45244 0.33856 0.61788 0.0
C1742 C 0.4746 0.35206 0.6341 0.0
C1743 C 0.47747 0.35007 0.67065 0.0
H1744 H 0.65681 0.08786 0.6756 0.0
H1745 H 0.69936 0.16347 0.66498 0.0
H1746 H 0.65256 0.08417 0.61012 0.0
H1747 H 0.69594 0.15992 0.60044 0.0
H1748 H 0.65686 0.15215 0.49967 0.0
H1749 H 0.66235 0.15064 0.56314 0.0
H1750 H 0.67175 0.09035 0.54871 0.0
H1751 H 0.66568 0.09157 0.48401 0.0
C1752 C 0.6658 0.10356 0.65921 0.0
C1753 C 0.67823 0.12597 0.67521 0.0
C1754 C 0.66336 0.10149 0.6218 0.0
C1755 C 0.67342 0.12181 0.60005 0.0
C1756 C 0.68735 0.14395 0.61632 0.0
C1757 C 0.6895 0.146 0.65332 0.0
C1758 C 0.66009 0.13849 0.50974 0.0
C1759 C 0.66119 0.12221 0.48647 0.0
C1760 C 0.66337 0.1377 0.54632 0.0
C1761 C 0.66812 0.12075 0.56107 0.0
C1762 C 0.66826 0.10372 0.53819 0.0
C1763 C 0.66481 0.10443 0.50117 0.0
H1764 H 0.48549 0.16283 0.17341 0.0
H1765 H 0.42381 0.09404 0.18791 0.0
H1766 H 0.48431 0.15612 0.10987 0.0
H1767 H 0.42291 0.08699 0.12307 0.0
H1768 H 0.42301 0.1005 0.99553 0.0
H1769 H 0.41816 0.10089 0.06082 0.0
H1770 H 0.49343 0.13095 0.07389 0.0
H1771 H 0.49816 0.13128 0.00959 0.0
C1772 C 0.47163 0.14615 0.16301 0.0
C1773 C 0.45499 0.1288 0.18595 0.0
C1774 C 0.47102 0.14225 0.12643 0.0
C1775 C 0.45392 0.12074 0.11137 0.0
C1776 C 0.43642 0.10369 0.13388 0.0
C1777 C 0.43693 0.10771 0.17094 0.0
C1778 C 0.43834 0.10669 0.01263 0.0
C1779 C 0.461 0.11612 0.99765 0.0
C1780 C 0.4356 0.10695 0.04992 0.0
C1781 C 0.45549 0.11652 0.07254 0.0
C1782 C 0.4778 0.12412 0.0573 0.0
C1783 C 0.48053 0.12415 0.02044 0.0
H1784 H 0.88701 0.30184 0.18265 0.0
H1785 H 0.88874 0.36849 0.17382 0.0
H1786 H 0.89259 0.30178 0.11779 0.0
H1787 H 0.89493 0.36871 0.10949 0.0
H1788 H 0.92008 0.36848 0.99603 0.0
H1789 H 0.92468 0.3685 0.06111 0.0
H1790 H 0.8628 0.29921 0.06699 0.0
H1791 H 0.85784 0.29945 1.00236 0.0
C1792 C 0.8892 0.31673 0.16701 0.0
C1793 C 0.88732 0.3351 0.18323 0.0
C1794 C 0.89231 0.31666 0.12995 0.0
C1795 C 0.89424 0.33527 0.10866 0.0
C1796 C 0.89374 0.35426 0.12525 0.0
C1797 C 0.89005 0.35406 0.16204 0.0
C1798 C 0.90785 0.35304 0.01117 0.0
C1799 C 0.88856 0.334 0.99419 0.0
C1800 C 0.9104 0.3531 0.04836 0.0
C1801 C 0.89408 0.33386 0.06905 0.0
C1802 C 0.87576 0.31418 0.05171 0.0
C1803 C 0.87287 0.31436 0.01475 0.0
H1804 H 0.63665 0.52524 0.17288 0.0
H1805 H 0.70533 0.58769 0.18227 0.0
H1806 H 0.63725 0.53133 0.10847 0.0
H1807 H 0.70619 0.59343 0.11737 0.0
H1808 H 0.7074 0.55952 1.00297 0.0
H1809 H 0.70732 0.56511 0.06745 0.0
H1810 H 0.63993 0.5618 0.05926 0.0
H1811 H 0.64027 0.5568 0.99437 0.0
C1812 C 0.65169 0.54052 0.16121 0.0
C1813 C 0.67097 0.55596 0.18257 0.0
C1814 C 0.65198 0.54407 0.12437 0.0
C1815 C 0.67178 0.56283 0.10793 0.0
C1816 C 0.6907 0.57884 0.12942 0.0
C1817 C 0.69016 0.57561 0.1665 0.0
C1818 C 0.69285 0.5606 0.01481 0.0
C1819 C 0.67381 0.55766 0.99365 0.0
C1820 C 0.69286 0.5639 0.05169 0.0
C1821 C 0.67359 0.56383 0.06835 0.0
C1822 C 0.655 0.56193 0.04705 0.0
C1823 C 0.65526 0.55918 0.00995 0.0
H1824 H 0.57279 0.91253 0.01993 0.0
H1825 H 0.50821 0.84608 1.0045 0.0
H1826 H 0.57763 0.91718 0.95463 0.0
H1827 H 0.51304 0.85086 0.94052 0.0
H1828 H 0.51027 0.87703 0.83298 0.0
H1829 H 0.51151 0.8807 0.89752 0.0
H1830 H 0.58295 0.89357 0.89827 0.0
H1831 H 0.58181 0.88989 0.83277 0.0
C1832 C 0.55968 0.89898 1.0028 0.0
C1833 C 0.54006 0.87897 0.01765 0.0
C1834 C 0.56253 0.9016 0.9655 0.0
C1835 C 0.54558 0.88448 0.94253 0.0
C1836 C 0.52623 0.86451 0.95748 0.0
C1837 C 0.52355 0.86174 0.99434 0.0
C1838 C 0.52644 0.88098 0.84666 0.0
C1839 C 0.54579 0.8827 0.82768 0.0
C1840 C 0.52712 0.8831 0.88371 0.0
C1841 C 0.54716 0.88701 0.90299 0.0
C1842 C 0.56726 0.89055 0.88404 0.0
C1843 C 0.56659 0.88842 0.8466 0.0
H1844 H 0.15615 0.70185 0.00729 0.0
H1845 H 0.08518 0.64218 0.00773 0.0
H1846 H 0.15465 0.70438 0.94277 0.0
H1847 H 0.08376 0.64481 0.94226 0.0
H1848 H 0.09375 0.67393 0.82011 0.0
H1849 H 0.08877 0.67395 0.88541 0.0
H1850 H 0.15351 0.67266 0.90025 0.0
H1851 H 0.15845 0.67247 0.83634 0.0
C1852 C 0.14003 0.68947 0.99366 0.0
C1853 C 0.12094 0.67152 0.01268 0.0
C1854 C 0.13919 0.69097 0.95663 0.0
C1855 C 0.11925 0.67456 0.93741 0.0
C1856 C 0.09935 0.6577 0.95644 0.0
C1857 C 0.10018 0.65619 0.99387 0.0
C1858 C 0.10686 0.67363 0.83741 0.0
C1859 C 0.12652 0.67325 0.82279 0.0
C1860 C 0.10394 0.67353 0.87471 0.0
C1861 C 0.12088 0.67353 0.89788 0.0
C1862 C 0.14031 0.67297 0.88314 0.0
C1863 C 0.14304 0.67274 0.84631 0.0
H1864 H 0.36878 0.4467 0.01514 0.0
H1865 H 0.30078 0.44218 0.00813 0.0
H1866 H 0.36852 0.4413 0.95021 0.0
H1867 H 0.30024 0.43616 0.9437 0.0
H1868 H 0.30116 0.41298 0.82916 0.0
H1869 H 0.3015 0.40775 0.89403 0.0
H1870 H 0.36971 0.471 0.90055 0.0
H1871 H 0.36909 0.47658 0.83614 0.0
C1872 C 0.35349 0.44382 0.99991 0.0
C1873 C 0.33483 0.44493 0.01664 0.0
C1874 C 0.35339 0.44085 0.96279 0.0
C1875 C 0.33436 0.4383 0.94195 0.0
C1876 C 0.31504 0.43785 0.95909 0.0
C1877 C 0.3154 0.4414 0.99595 0.0
C1878 C 0.31646 0.42541 0.84437 0.0
C1879 C 0.33506 0.44524 0.82765 0.0
C1880 C 0.3166 0.42248 0.88146 0.0
C1881 C 0.33564 0.43897 0.9023 0.0
C1882 C 0.35492 0.4579 0.88516 0.0
C1883 C 0.35451 0.46114 0.84832 0.0
H1884 H 0.15741 0.4547 0.51073 0.0
H1885 H 0.08553 0.44084 0.51202 0.0
H1886 H 0.15608 0.45168 0.4461 0.0
H1887 H 0.08428 0.4377 0.44643 0.0
H1888 H 0.09596 0.41965 0.32378 0.0
H1889 H 0.09085 0.41434 0.38898 0.0
H1890 H 0.15316 0.48235 0.40455 0.0
H1891 H 0.15821 0.48783 0.34063 0.0
C1892 C 0.14113 0.4506 0.49728 0.0
C1893 C 0.12171 0.44845 0.51661 0.0
C1894 C 0.14041 0.44885 0.46017 0.0
C1895 C 0.12023 0.44483 0.44121 0.0
C1896 C 0.10006 0.4408 0.46045 0.0
C1897 C 0.10079 0.4426 0.49794 0.0
C1898 C 0.10848 0.43346 0.3412 0.0
C1899 C 0.12755 0.45413 0.32677 0.0
C1900 C 0.10548 0.43045 0.37844 0.0
C1901 C 0.12174 0.44785 0.40176 0.0
C1902 C 0.1405 0.46851 0.38726 0.0
C1903 C 0.14331 0.47166 0.35045 0.0
H1904 H 0.52294 0.62984 0.33622 0.0
H1905 H 0.58241 0.70074 0.3315 0.0
H1906 H 0.52729 0.62959 0.40101 0.0
H1907 H 0.58632 0.70075 0.39674 0.0
H1908 H 0.54818 0.69708 0.50912 0.0
H1909 H 0.55459 0.69811 0.44474 0.0
H1910 H 0.55811 0.63412 0.45218 0.0
H1911 H 0.55233 0.6334 0.51707 0.0
C1912 C 0.53724 0.6452 0.34902 0.0
C1913 C 0.55234 0.66531 0.32886 0.0
C1914 C 0.53977 0.64502 0.38607 0.0
C1915 C 0.55711 0.66516 0.40388 0.0
C1916 C 0.57283 0.68498 0.38362 0.0
C1917 C 0.57067 0.68494 0.34635 0.0
C1918 C 0.55078 0.68347 0.49714 0.0
C1919 C 0.54967 0.66511 0.51812 0.0
C1920 C 0.55459 0.68415 0.46032 0.0
C1921 C 0.55686 0.66621 0.4435 0.0
C1922 C 0.55645 0.64819 0.46454 0.0
C1923 C 0.55322 0.64783 0.50162 0.0
H1924 H 0.36796 0.88898 0.33605 0.0
H1925 H 0.3 0.88453 0.32859 0.0
H1926 H 0.36844 0.89519 0.4004 0.0
H1927 H 0.30022 0.89015 0.39345 0.0
H1928 H 0.29958 0.85591 0.5083 0.0
H1929 H 0.29893 0.86094 0.44376 0.0
H1930 H 0.3674 0.92395 0.44939 0.0
H1931 H 0.36778 0.91925 0.5144 0.0
C1932 C 0.35331 0.88974 0.34813 0.0
C1933 C 0.33391 0.8862 0.32732 0.0
C1934 C 0.35365 0.89343 0.38493 0.0
C1935 C 0.33436 0.89313 0.40193 0.0
C1936 C 0.31532 0.89048 0.38099 0.0
C1937 C 0.31524 0.88736 0.34391 0.0
C1938 C 0.31422 0.87118 0.49588 0.0
C1939 C 0.33375 0.88716 0.51635 0.0
C1940 C 0.3138 0.87411 0.45897 0.0
C1941 C 0.33314 0.8928 0.44157 0.0
C1942 C 0.35226 0.90939 0.46218 0.0
C1943 C 0.35243 0.90677 0.49934 0.0
loop_
_geom_bond_atom_site_label_1
_geom_bond_atom_site_label_2
_geom_bond_distance
_geom_bond_site_symmetry_2
_ccdc_geom_bond_type
Co0 O1 2.216 1_554 S
Co0 O2 2.091 . S
Co0 O4 2.004 . S
Co0 O10 2.021 . S
Co0 O12 2.137 . S
Co0 O13 2.244 . S
O1 Co0 2.216 1_556 S
O1 C8 1.247 . S
O2 Co0 2.091 . S
O2 C8 1.261 1_554 S
C3 O12 1.247 . S
C3 O13 1.272 . S
O4 Co0 2.004 . S
O4 C9 1.259 . S
Co5 O6 2.061 . S
Co5 O11 2.052 . S
Co5 O13 2.135 . S
O6 Co5 2.061 . S
O6 C9 1.235 . S
C7 O10 1.238 . S
C7 O11 1.241 . S
C8 O1 1.247 . S
C8 O2 1.261 1_556 S
C9 O4 1.259 . S
C9 O6 1.235 . S
O10 Co0 2.021 . S
O10 C7 1.238 . S
O11 Co5 2.052 . S
O11 C7 1.241 . S
O12 Co0 2.137 . S
O12 C3 1.247 . S
O13 Co0 2.244 . S
O13 C3 1.272 . S
O13 Co5 2.135 . S
Co14 O15 2.216 1_554 S
Co14 O16 2.091 . S
Co14 O18 2.004 . S
Co14 O24 2.021 . S
Co14 O26 2.137 1_545 S
Co14 O27 2.244 1_545 S
O15 Co14 2.216 1_556 S
O15 C22 1.247 . S
O16 Co14 2.091 . S
O16 C22 1.261 1_554 S
C17 O26 1.247 . S
C17 O27 1.272 . S
O18 Co14 2.004 . S
O18 C23 1.259 . S
Co19 O20 2.061 . S
Co19 O25 2.052 . S
Co19 O27 2.135 1_545 S
O20 Co19 2.061 . S
O20 C23 1.235 . S
C21 O24 1.238 . S
C21 O25 1.241 . S
C22 O15 1.247 . S
C22 O16 1.261 1_556 S
C23 O18 1.259 . S
C23 O20 1.235 . S
O24 Co14 2.021 . S
O24 C21 1.238 . S
O25 Co19 2.052 . S
O25 C21 1.241 . S
O26 Co14 2.137 1_565 S
O26 C17 1.247 . S
O27 Co14 2.244 1_565 S
O27 C17 1.272 . S
O27 Co19 2.135 1_565 S
Co28 O29 2.216 1_554 S
Co28 O30 2.091 . S
Co28 O32 2.004 . S
Co28 O38 2.021 . S
Co28 O40 2.137 1_655 S
Co28 O41 2.244 1_655 S
O29 Co28 2.216 1_556 S
O29 C36 1.247 . S
O30 Co28 2.091 . S
O30 C36 1.261 1_554 S
C31 O40 1.247 . S
C31 O41 1.272 . S
O32 Co28 2.004 . S
O32 C37 1.259 . S
Co33 O34 2.061 . S
Co33 O39 2.052 . S
Co33 O41 2.135 1_655 S
O34 Co33 2.061 . S
O34 C37 1.235 . S
C35 O38 1.238 . S
C35 O39 1.241 . S
C36 O29 1.247 . S
C36 O30 1.261 1_556 S
C37 O32 1.259 . S
C37 O34 1.235 . S
O38 Co28 2.021 . S
O38 C35 1.238 . S
O39 Co33 2.052 . S
O39 C35 1.241 . S
O40 Co28 2.137 1_455 S
O40 C31 1.247 . S
O41 Co28 2.244 1_455 S
O41 C31 1.272 . S
O41 Co33 2.135 1_455 S
Co42 O43 2.216 . S
Co42 O44 2.091 . S
Co42 O46 2.004 . S
Co42 O52 2.021 . S
Co42 O54 2.137 . S
Co42 O55 2.244 . S
O43 Co42 2.216 . S
O43 C50 1.247 . S
O44 Co42 2.091 . S
O44 C50 1.261 . S
C45 O54 1.247 . S
C45 O55 1.272 . S
O46 Co42 2.004 . S
O46 C51 1.259 . S
Co47 O48 2.061 . S
Co47 O53 2.052 . S
Co47 O55 2.135 . S
O48 Co47 2.061 . S
O48 C51 1.235 . S
C49 O52 1.238 . S
C49 O53 1.241 . S
C50 O43 1.247 . S
C50 O44 1.261 . S
C51 O46 1.259 . S
C51 O48 1.235 . S
O52 Co42 2.021 . S
O52 C49 1.238 . S
O53 Co47 2.052 . S
O53 C49 1.241 . S
O54 Co42 2.137 . S
O54 C45 1.247 . S
O55 Co42 2.244 . S
O55 C45 1.272 . S
O55 Co47 2.135 . S
Co56 O57 2.216 . S
Co56 O58 2.091 . S
Co56 O60 2.004 . S
Co56 O66 2.021 . S
Co56 O68 2.137 1_565 S
Co56 O69 2.244 1_565 S
O57 Co56 2.216 . S
O57 C64 1.247 . S
O58 Co56 2.091 . S
O58 C64 1.261 . S
C59 O68 1.247 . S
C59 O69 1.272 . S
O60 Co56 2.004 . S
O60 C65 1.259 . S
Co61 O62 2.061 . S
Co61 O67 2.052 . S
Co61 O69 2.135 1_565 S
O62 Co61 2.061 . S
O62 C65 1.235 . S
C63 O66 1.238 . S
C63 O67 1.241 . S
C64 O57 1.247 . S
C64 O58 1.261 . S
C65 O60 1.259 . S
C65 O62 1.235 . S
O66 Co56 2.021 . S
O66 C63 1.238 . S
O67 Co61 2.052 . S
O67 C63 1.241 . S
O68 Co56 2.137 1_545 S
O68 C59 1.247 . S
O69 Co56 2.244 1_545 S
O69 C59 1.272 . S
O69 Co61 2.135 1_545 S
Co70 O71 2.216 . S
Co70 O72 2.091 . S
Co70 O74 2.004 . S
Co70 O80 2.021 . S
Co70 O82 2.137 1_455 S
Co70 O83 2.244 1_455 S
O71 Co70 2.216 . S
O71 C78 1.247 . S
O72 Co70 2.091 . S
O72 C78 1.261 . S
C73 O82 1.247 . S
C73 O83 1.272 . S
O74 Co70 2.004 . S
O74 C79 1.259 . S
Co75 O76 2.061 . S
Co75 O81 2.052 . S
Co75 O83 2.135 1_455 S
O76 Co75 2.061 . S
O76 C79 1.235 . S
C77 O80 1.238 . S
C77 O81 1.241 . S
C78 O71 1.247 . S
C78 O72 1.261 . S
C79 O74 1.259 . S
C79 O76 1.235 . S
O80 Co70 2.021 . S
O80 C77 1.238 . S
O81 Co75 2.052 . S
O81 C77 1.241 . S
O82 Co70 2.137 1_655 S
O82 C73 1.247 . S
O83 Co70 2.244 1_655 S
O83 C73 1.272 . S
O83 Co75 2.135 1_655 S
Co84 O85 2.216 1_556 S
Co84 O86 2.091 . S
Co84 O88 2.004 . S
Co84 O94 2.021 . S
Co84 O96 2.137 . S
Co84 O97 2.244 . S
O85 Co84 2.216 1_554 S
O85 C92 1.247 . S
O86 Co84 2.091 . S
O86 C92 1.261 1_556 S
C87 O96 1.247 . S
C87 O97 1.272 . S
O88 Co84 2.004 . S
O88 C93 1.259 . S
Co89 O90 2.061 . S
Co89 O95 2.052 . S
Co89 O97 2.135 . S
O90 Co89 2.061 . S
O90 C93 1.235 . S
C91 O94 1.238 . S
C91 O95 1.241 . S
C92 O85 1.247 . S
C92 O86 1.261 1_554 S
C93 O88 1.259 . S
C93 O90 1.235 . S
O94 Co84 2.021 . S
O94 C91 1.238 . S
O95 Co89 2.052 . S
O95 C91 1.241 . S
O96 Co84 2.137 . S
O96 C87 1.247 . S
O97 Co84 2.244 . S
O97 C87 1.272 . S
O97 Co89 2.135 . S
Co98 O99 2.216 1_556 S
Co98 O100 2.091 . S
Co98 O102 2.004 . S
Co98 O108 2.021 . S
Co98 O110 2.137 1_565 S
Co98 O111 2.244 1_565 S
O99 Co98 2.216 1_554 S
O99 C106 1.247 . S
O100 Co98 2.091 . S
O100 C106 1.261 1_556 S
C101 O110 1.247 . S
C101 O111 1.272 . S
O102 Co98 2.004 . S
O102 C107 1.259 . S
Co103 O104 2.061 . S
Co103 O109 2.052 . S
Co103 O111 2.135 1_565 S
O104 Co103 2.061 . S
O104 C107 1.235 . S
C105 O108 1.238 . S
C105 O109 1.241 . S
C106 O99 1.247 . S
C106 O100 1.261 1_554 S
C107 O102 1.259 . S
C107 O104 1.235 . S
O108 Co98 2.021 . S
O108 C105 1.238 . S
O109 Co103 2.052 . S
O109 C105 1.241 . S
O110 Co98 2.137 1_545 S
O110 C101 1.247 . S
O111 Co98 2.244 1_545 S
O111 C101 1.272 . S
O111 Co103 2.135 1_545 S
Co112 O113 2.216 1_556 S
Co112 O114 2.091 . S
Co112 O116 2.004 . S
Co112 O122 2.021 . S
Co112 O124 2.137 1_455 S
Co112 O125 2.244 1_455 S
O113 Co112 2.216 1_554 S
O113 C120 1.247 . S
O114 Co112 2.091 . S
O114 C120 1.261 1_556 S
C115 O124 1.247 . S
C115 O125 1.272 . S
O116 Co112 2.004 . S
O116 C121 1.259 . S
Co117 O118 2.061 . S
Co117 O123 2.052 . S
Co117 O125 2.135 1_455 S
O118 Co117 2.061 . S
O118 C121 1.235 . S
C119 O122 1.238 . S
C119 O123 1.241 . S
C120 O113 1.247 . S
C120 O114 1.261 1_554 S
C121 O116 1.259 . S
C121 O118 1.235 . S
O122 Co112 2.021 . S
O122 C119 1.238 . S
O123 Co117 2.052 . S
O123 C119 1.241 . S
O124 Co112 2.137 1_655 S
O124 C115 1.247 . S
O125 Co112 2.244 1_655 S
O125 C115 1.272 . S
O125 Co117 2.135 1_655 S
Co126 O127 2.216 . S
Co126 O128 2.091 . S
Co126 O130 2.004 . S
Co126 O136 2.021 . S
Co126 O138 2.137 . S
Co126 O139 2.244 . S
O127 Co126 2.216 . S
O127 C134 1.247 . S
O128 Co126 2.091 . S
O128 C134 1.261 . S
C129 O138 1.247 . S
C129 O139 1.272 . S
O130 Co126 2.004 . S
O130 C135 1.259 . S
Co131 O132 2.061 . S
Co131 O137 2.052 . S
Co131 O139 2.135 . S
O132 Co131 2.061 . S
O132 C135 1.235 . S
C133 O136 1.238 . S
C133 O137 1.241 . S
C134 O127 1.247 . S
C134 O128 1.261 . S
C135 O130 1.259 . S
C135 O132 1.235 . S
O136 Co126 2.021 . S
O136 C133 1.238 . S
O137 Co131 2.052 . S
O137 C133 1.241 . S
O138 Co126 2.137 . S
O138 C129 1.247 . S
O139 Co126 2.244 . S
O139 C129 1.272 . S
O139 Co131 2.135 . S
Co140 O141 2.216 . S
Co140 O142 2.091 . S
Co140 O144 2.004 . S
Co140 O150 2.021 . S
Co140 O152 2.137 1_545 S
Co140 O153 2.244 1_545 S
O141 Co140 2.216 . S
O141 C148 1.247 . S
O142 Co140 2.091 . S
O142 C148 1.261 . S
C143 O152 1.247 . S
C143 O153 1.272 . S
O144 Co140 2.004 . S
O144 C149 1.259 . S
Co145 O146 2.061 . S
Co145 O151 2.052 . S
Co145 O153 2.135 1_545 S
O146 Co145 2.061 . S
O146 C149 1.235 . S
C147 O150 1.238 . S
C147 O151 1.241 . S
C148 O141 1.247 . S
C148 O142 1.261 . S
C149 O144 1.259 . S
C149 O146 1.235 . S
O150 Co140 2.021 . S
O150 C147 1.238 . S
O151 Co145 2.052 . S
O151 C147 1.241 . S
O152 Co140 2.137 1_565 S
O152 C143 1.247 . S
O153 Co140 2.244 1_565 S
O153 C143 1.272 . S
O153 Co145 2.135 1_565 S
Co154 O155 2.216 . S
Co154 O156 2.091 . S
Co154 O158 2.004 . S
Co154 O164 2.021 . S
Co154 O166 2.137 1_655 S
Co154 O167 2.244 1_655 S
O155 Co154 2.216 . S
O155 C162 1.247 . S
O156 Co154 2.091 . S
O156 C162 1.261 . S
C157 O166 1.247 . S
C157 O167 1.272 . S
O158 Co154 2.004 . S
O158 C163 1.259 . S
Co159 O160 2.061 . S
Co159 O165 2.052 . S
Co159 O167 2.135 1_655 S
O160 Co159 2.061 . S
O160 C163 1.235 . S
C161 O164 1.238 . S
C161 O165 1.241 . S
C162 O155 1.247 . S
C162 O156 1.261 . S
C163 O158 1.259 . S
C163 O160 1.235 . S
O164 Co154 2.021 . S
O164 C161 1.238 . S
O165 Co159 2.052 . S
O165 C161 1.241 . S
O166 Co154 2.137 1_455 S
O166 C157 1.247 . S
O167 Co154 2.244 1_455 S
O167 C157 1.272 . S
O167 Co159 2.135 1_455 S
Co168 O169 2.216 . S
Co168 O170 2.091 . S
Co168 O172 2.004 . S
Co168 O178 2.021 . S
Co168 O180 2.137 . S
Co168 O181 2.244 . S
O169 Co168 2.216 . S
O169 C176 1.247 . S
O170 Co168 2.091 . S
O170 C176 1.261 . S
C171 O180 1.247 . S
C171 O181 1.272 . S
O172 Co168 2.004 . S
O172 C177 1.259 . S
Co173 O174 2.061 . S
Co173 O179 2.052 . S
Co173 O181 2.135 . S
O174 Co173 2.061 . S
O174 C177 1.235 . S
C175 O178 1.238 . S
C175 O179 1.241 . S
C176 O169 1.247 . S
C176 O170 1.261 . S
C177 O172 1.259 . S
C177 O174 1.235 . S
O178 Co168 2.021 . S
O178 C175 1.238 . S
O179 Co173 2.052 . S
O179 C175 1.241 . S
O180 Co168 2.137 . S
O180 C171 1.247 . S
O181 Co168 2.244 . S
O181 C171 1.272 . S
O181 Co173 2.135 . S
Co182 O183 2.216 . S
Co182 O184 2.091 . S
Co182 O186 2.004 . S
Co182 O192 2.021 . S
Co182 O194 2.137 . S
Co182 O195 2.244 . S
O183 Co182 2.216 . S
O183 C190 1.247 . S
O184 Co182 2.091 . S
O184 C190 1.261 . S
C185 O194 1.247 . S
C185 O195 1.272 . S
O186 Co182 2.004 . S
O186 C191 1.259 . S
Co187 O188 2.061 . S
Co187 O193 2.052 . S
Co187 O195 2.135 . S
O188 Co187 2.061 . S
O188 C191 1.235 . S
C189 O192 1.238 . S
C189 O193 1.241 . S
C190 O183 1.247 . S
C190 O184 1.261 . S
C191 O186 1.259 . S
C191 O188 1.235 . S
O192 Co182 2.021 . S
O192 C189 1.238 . S
O193 Co187 2.052 . S
O193 C189 1.241 . S
O194 Co182 2.137 . S
O194 C185 1.247 . S
O195 Co182 2.244 . S
O195 C185 1.272 . S
O195 Co187 2.135 . S
Co196 O197 2.216 . S
Co196 O198 2.091 . S
Co196 O200 2.004 . S
Co196 O206 2.021 . S
Co196 O208 2.137 . S
Co196 O209 2.244 . S
O197 Co196 2.216 . S
O197 C204 1.247 . S
O198 Co196 2.091 . S
O198 C204 1.261 . S
C199 O208 1.247 . S
C199 O209 1.272 . S
O200 Co196 2.004 . S
O200 C205 1.259 . S
Co201 O202 2.061 . S
Co201 O207 2.052 . S
Co201 O209 2.135 . S
O202 Co201 2.061 . S
O202 C205 1.235 . S
C203 O206 1.238 . S
C203 O207 1.241 . S
C204 O197 1.247 . S
C204 O198 1.261 . S
C205 O200 1.259 . S
C205 O202 1.235 . S
O206 Co196 2.021 . S
O206 C203 1.238 . S
O207 Co201 2.052 . S
O207 C203 1.241 . S
O208 Co196 2.137 . S
O208 C199 1.247 . S
O209 Co196 2.244 . S
O209 C199 1.272 . S
O209 Co201 2.135 . S
Co210 O211 2.216 . S
Co210 O212 2.091 . S
Co210 O214 2.004 . S
Co210 O220 2.021 . S
Co210 O222 2.137 . S
Co210 O223 2.244 . S
O211 Co210 2.216 . S
O211 C218 1.247 . S
O212 Co210 2.091 . S
O212 C218 1.261 . S
C213 O222 1.247 . S
C213 O223 1.272 . S
O214 Co210 2.004 . S
O214 C219 1.259 . S
Co215 O216 2.061 . S
Co215 O221 2.052 . S
Co215 O223 2.135 . S
O216 Co215 2.061 . S
O216 C219 1.235 . S
C217 O220 1.238 . S
C217 O221 1.241 . S
C218 O211 1.247 . S
C218 O212 1.261 . S
C219 O214 1.259 . S
C219 O216 1.235 . S
O220 Co210 2.021 . S
O220 C217 1.238 . S
O221 Co215 2.052 . S
O221 C217 1.241 . S
O222 Co210 2.137 . S
O222 C213 1.247 . S
O223 Co210 2.244 . S
O223 C213 1.272 . S
O223 Co215 2.135 . S
Co224 O225 2.216 . S
Co224 O226 2.091 . S
Co224 O228 2.004 . S
Co224 O234 2.021 . S
Co224 O236 2.137 . S
Co224 O237 2.244 . S
O225 Co224 2.216 . S
O225 C232 1.247 . S
O226 Co224 2.091 . S
O226 C232 1.261 . S
C227 O236 1.247 . S
C227 O237 1.272 . S
O228 Co224 2.004 . S
O228 C233 1.259 . S
Co229 O230 2.061 . S
Co229 O235 2.052 . S
Co229 O237 2.135 . S
O230 Co229 2.061 . S
O230 C233 1.235 . S
C231 O234 1.238 . S
C231 O235 1.241 . S
C232 O225 1.247 . S
C232 O226 1.261 . S
C233 O228 1.259 . S
C233 O230 1.235 . S
O234 Co224 2.021 . S
O234 C231 1.238 . S
O235 Co229 2.052 . S
O235 C231 1.241 . S
O236 Co224 2.137 . S
O236 C227 1.247 . S
O237 Co224 2.244 . S
O237 C227 1.272 . S
O237 Co229 2.135 . S
Co238 O239 2.216 . S
Co238 O240 2.091 . S
Co238 O242 2.004 . S
Co238 O248 2.021 . S
Co238 O250 2.137 . S
Co238 O251 2.244 . S
O239 Co238 2.216 . S
O239 C246 1.247 . S
O240 Co238 2.091 . S
O240 C246 1.261 . S
C241 O250 1.247 . S
C241 O251 1.272 . S
O242 Co238 2.004 . S
O242 C247 1.259 . S
Co243 O244 2.061 . S
Co243 O249 2.052 . S
Co243 O251 2.135 . S
O244 Co243 2.061 . S
O244 C247 1.235 . S
C245 O248 1.238 . S
C245 O249 1.241 . S
C246 O239 1.247 . S
C246 O240 1.261 . S
C247 O242 1.259 . S
C247 O244 1.235 . S
O248 Co238 2.021 . S
O248 C245 1.238 . S
O249 Co243 2.052 . S
O249 C245 1.241 . S
O250 Co238 2.137 . S
O250 C241 1.247 . S
O251 Co238 2.244 . S
O251 C241 1.272 . S
O251 Co243 2.135 . S
Co252 O253 2.216 . S
Co252 O254 2.091 . S
Co252 O256 2.004 . S
Co252 O262 2.021 . S
Co252 O264 2.137 . S
Co252 O265 2.244 . S
O253 Co252 2.216 . S
O253 C260 1.247 . S
O254 Co252 2.091 . S
O254 C260 1.261 . S
C255 O264 1.247 . S
C255 O265 1.272 . S
O256 Co252 2.004 . S
O256 C261 1.259 . S
Co257 O258 2.061 . S
Co257 O263 2.052 . S
Co257 O265 2.135 . S
O258 Co257 2.061 . S
O258 C261 1.235 . S
C259 O262 1.238 . S
C259 O263 1.241 . S
C260 O253 1.247 . S
C260 O254 1.261 . S
C261 O256 1.259 . S
C261 O258 1.235 . S
O262 Co252 2.021 . S
O262 C259 1.238 . S
O263 Co257 2.052 . S
O263 C259 1.241 . S
O264 Co252 2.137 . S
O264 C255 1.247 . S
O265 Co252 2.244 . S
O265 C255 1.272 . S
O265 Co257 2.135 . S
Co266 O267 2.216 . S
Co266 O268 2.091 . S
Co266 O270 2.004 . S
Co266 O276 2.021 . S
Co266 O278 2.137 . S
Co266 O279 2.244 . S
O267 Co266 2.216 . S
O267 C274 1.247 . S
O268 Co266 2.091 . S
O268 C274 1.261 . S
C269 O278 1.247 . S
C269 O279 1.272 . S
O270 Co266 2.004 . S
O270 C275 1.259 . S
Co271 O272 2.061 . S
Co271 O277 2.052 . S
Co271 O279 2.135 . S
O272 Co271 2.061 . S
O272 C275 1.235 . S
C273 O276 1.238 . S
C273 O277 1.241 . S
C274 O267 1.247 . S
C274 O268 1.261 . S
C275 O270 1.259 . S
C275 O272 1.235 . S
O276 Co266 2.021 . S
O276 C273 1.238 . S
O277 Co271 2.052 . S
O277 C273 1.241 . S
O278 Co266 2.137 . S
O278 C269 1.247 . S
O279 Co266 2.244 . S
O279 C269 1.272 . S
O279 Co271 2.135 . S
Co280 O281 2.216 . S
Co280 O282 2.091 . S
Co280 O284 2.004 . S
Co280 O290 2.021 . S
Co280 O292 2.137 . S
Co280 O293 2.244 . S
O281 Co280 2.216 . S
O281 C288 1.247 . S
O282 Co280 2.091 . S
O282 C288 1.261 . S
C283 O292 1.247 . S
C283 O293 1.272 . S
O284 Co280 2.004 . S
O284 C289 1.259 . S
Co285 O286 2.061 . S
Co285 O291 2.052 . S
Co285 O293 2.135 . S
O286 Co285 2.061 . S
O286 C289 1.235 . S
C287 O290 1.238 . S
C287 O291 1.241 . S
C288 O281 1.247 . S
C288 O282 1.261 . S
C289 O284 1.259 . S
C289 O286 1.235 . S
O290 Co280 2.021 . S
O290 C287 1.238 . S
O291 Co285 2.052 . S
O291 C287 1.241 . S
O292 Co280 2.137 . S
O292 C283 1.247 . S
O293 Co280 2.244 . S
O293 C283 1.272 . S
O293 Co285 2.135 . S
Co294 O295 2.216 . S
Co294 O296 2.091 . S
Co294 O298 2.004 . S
Co294 O304 2.021 . S
Co294 O306 2.137 . S
Co294 O307 2.244 . S
O295 Co294 2.216 . S
O295 C302 1.247 . S
O296 Co294 2.091 . S
O296 C302 1.261 . S
C297 O306 1.247 . S
C297 O307 1.272 . S
O298 Co294 2.004 . S
O298 C303 1.259 . S
Co299 O300 2.061 . S
Co299 O305 2.052 . S
Co299 O307 2.135 . S
O300 Co299 2.061 . S
O300 C303 1.235 . S
C301 O304 1.238 . S
C301 O305 1.241 . S
C302 O295 1.247 . S
C302 O296 1.261 . S
C303 O298 1.259 . S
C303 O300 1.235 . S
O304 Co294 2.021 . S
O304 C301 1.238 . S
O305 Co299 2.052 . S
O305 C301 1.241 . S
O306 Co294 2.137 . S
O306 C297 1.247 . S
O307 Co294 2.244 . S
O307 C297 1.272 . S
O307 Co299 2.135 . S
Co308 O309 2.216 . S
Co308 O310 2.091 . S
Co308 O312 2.004 . S
Co308 O318 2.021 . S
Co308 O320 2.137 . S
Co308 O321 2.244 . S
O309 Co308 2.216 . S
O309 C316 1.247 . S
O310 Co308 2.091 . S
O310 C316 1.261 . S
C311 O320 1.247 . S
C311 O321 1.272 . S
O312 Co308 2.004 . S
O312 C317 1.259 . S
Co313 O314 2.061 . S
Co313 O319 2.052 . S
Co313 O321 2.135 . S
O314 Co313 2.061 . S
O314 C317 1.235 . S
C315 O318 1.238 . S
C315 O319 1.241 . S
C316 O309 1.247 . S
C316 O310 1.261 . S
C317 O312 1.259 . S
C317 O314 1.235 . S
O318 Co308 2.021 . S
O318 C315 1.238 . S
O319 Co313 2.052 . S
O319 C315 1.241 . S
O320 Co308 2.137 . S
O320 C311 1.247 . S
O321 Co308 2.244 . S
O321 C311 1.272 . S
O321 Co313 2.135 . S
Co322 O323 2.216 . S
Co322 O324 2.091 . S
Co322 O326 2.004 . S
Co322 O332 2.021 . S
Co322 O334 2.137 . S
Co322 O335 2.244 . S
O323 Co322 2.216 . S
O323 C330 1.247 . S
O324 Co322 2.091 . S
O324 C330 1.261 . S
C325 O334 1.247 . S
C325 O335 1.272 . S
O326 Co322 2.004 . S
O326 C331 1.259 . S
Co327 O328 2.061 . S
Co327 O333 2.052 . S
Co327 O335 2.135 . S
O328 Co327 2.061 . S
O328 C331 1.235 . S
C329 O332 1.238 . S
C329 O333 1.241 . S
C330 O323 1.247 . S
C330 O324 1.261 . S
C331 O326 1.259 . S
C331 O328 1.235 . S
O332 Co322 2.021 . S
O332 C329 1.238 . S
O333 Co327 2.052 . S
O333 C329 1.241 . S
O334 Co322 2.137 . S
O334 C325 1.247 . S
O335 Co322 2.244 . S
O335 C325 1.272 . S
O335 Co327 2.135 . S
Co336 O337 2.216 . S
Co336 O338 2.091 . S
Co336 O340 2.004 . S
Co336 O346 2.021 . S
Co336 O348 2.137 . S
Co336 O349 2.244 . S
O337 Co336 2.216 . S
O337 C344 1.247 . S
O338 Co336 2.091 . S
O338 C344 1.261 . S
C339 O348 1.247 . S
C339 O349 1.272 . S
O340 Co336 2.004 . S
O340 C345 1.259 . S
Co341 O342 2.061 . S
Co341 O347 2.052 . S
Co341 O349 2.135 . S
O342 Co341 2.061 . S
O342 C345 1.235 . S
C343 O346 1.238 . S
C343 O347 1.241 . S
C344 O337 1.247 . S
C344 O338 1.261 . S
C345 O340 1.259 . S
C345 O342 1.235 . S
O346 Co336 2.021 . S
O346 C343 1.238 . S
O347 Co341 2.052 . S
O347 C343 1.241 . S
O348 Co336 2.137 . S
O348 C339 1.247 . S
O349 Co336 2.244 . S
O349 C339 1.272 . S
O349 Co341 2.135 . S
Co350 O351 2.216 . S
Co350 O352 2.091 . S
Co350 O354 2.004 . S
Co350 O360 2.021 . S
Co350 O362 2.137 . S
Co350 O363 2.244 . S
O351 Co350 2.216 . S
O351 C358 1.247 . S
O352 Co350 2.091 . S
O352 C358 1.261 . S
C353 O362 1.247 . S
C353 O363 1.272 . S
O354 Co350 2.004 . S
O354 C359 1.259 . S
Co355 O356 2.061 . S
Co355 O361 2.052 . S
Co355 O363 2.135 . S
O356 Co355 2.061 . S
O356 C359 1.235 . S
C357 O360 1.238 . S
C357 O361 1.241 . S
C358 O351 1.247 . S
C358 O352 1.261 . S
C359 O354 1.259 . S
C359 O356 1.235 . S
O360 Co350 2.021 . S
O360 C357 1.238 . S
O361 Co355 2.052 . S
O361 C357 1.241 . S
O362 Co350 2.137 . S
O362 C353 1.247 . S
O363 Co350 2.244 . S
O363 C353 1.272 . S
O363 Co355 2.135 . S
Co364 O365 2.216 . S
Co364 O366 2.091 . S
Co364 O368 2.004 . S
Co364 O374 2.021 . S
Co364 O376 2.137 . S
Co364 O377 2.244 . S
O365 Co364 2.216 . S
O365 C372 1.247 . S
O366 Co364 2.091 . S
O366 C372 1.261 . S
C367 O376 1.247 . S
C367 O377 1.272 . S
O368 Co364 2.004 . S
O368 C373 1.259 . S
Co369 O370 2.061 . S
Co369 O375 2.052 . S
Co369 O377 2.135 . S
O370 Co369 2.061 . S
O370 C373 1.235 . S
C371 O374 1.238 . S
C371 O375 1.241 . S
C372 O365 1.247 . S
C372 O366 1.261 . S
C373 O368 1.259 . S
C373 O370 1.235 . S
O374 Co364 2.021 . S
O374 C371 1.238 . S
O375 Co369 2.052 . S
O375 C371 1.241 . S
O376 Co364 2.137 . S
O376 C367 1.247 . S
O377 Co364 2.244 . S
O377 C367 1.272 . S
O377 Co369 2.135 . S
Co378 O379 2.216 . S
Co378 O380 2.091 . S
Co378 O382 2.004 . S
Co378 O388 2.021 . S
Co378 O390 2.137 . S
Co378 O391 2.244 . S
O379 Co378 2.216 . S
O379 C386 1.247 . S
O380 Co378 2.091 . S
O380 C386 1.261 . S
C381 O390 1.247 . S
C381 O391 1.272 . S
O382 Co378 2.004 . S
O382 C387 1.259 . S
Co383 O384 2.061 . S
Co383 O389 2.052 . S
Co383 O391 2.135 . S
O384 Co383 2.061 . S
O384 C387 1.235 . S
C385 O388 1.238 . S
C385 O389 1.241 . S
C386 O379 1.247 . S
C386 O380 1.261 . S
C387 O382 1.259 . S
C387 O384 1.235 . S
O388 Co378 2.021 . S
O388 C385 1.238 . S
O389 Co383 2.052 . S
O389 C385 1.241 . S
O390 Co378 2.137 . S
O390 C381 1.247 . S
O391 Co378 2.244 . S
O391 C381 1.272 . S
O391 Co383 2.135 . S
Co392 O393 2.216 . S
Co392 O394 2.091 . S
Co392 O396 2.004 . S
Co392 O402 2.021 . S
Co392 O404 2.137 . S
Co392 O405 2.244 . S
O393 Co392 2.216 . S
O393 C400 1.247 . S
O394 Co392 2.091 . S
O394 C400 1.261 . S
C395 O404 1.247 . S
C395 O405 1.272 . S
O396 Co392 2.004 . S
O396 C401 1.259 . S
Co397 O398 2.061 . S
Co397 O403 2.052 . S
Co397 O405 2.135 . S
O398 Co397 2.061 . S
O398 C401 1.235 . S
C399 O402 1.238 . S
C399 O403 1.241 . S
C400 O393 1.247 . S
C400 O394 1.261 . S
C401 O396 1.259 . S
C401 O398 1.235 . S
O402 Co392 2.021 . S
O402 C399 1.238 . S
O403 Co397 2.052 . S
O403 C399 1.241 . S
O404 Co392 2.137 . S
O404 C395 1.247 . S
O405 Co392 2.244 . S
O405 C395 1.272 . S
O405 Co397 2.135 . S
Co406 O407 2.216 . S
Co406 O408 2.091 . S
Co406 O410 2.004 . S
Co406 O416 2.021 . S
Co406 O418 2.137 . S
Co406 O419 2.244 . S
O407 Co406 2.216 . S
O407 C414 1.247 . S
O408 Co406 2.091 . S
O408 C414 1.261 . S
C409 O418 1.247 . S
C409 O419 1.272 . S
O410 Co406 2.004 . S
O410 C415 1.259 . S
Co411 O412 2.061 . S
Co411 O417 2.052 . S
Co411 O419 2.135 . S
O412 Co411 2.061 . S
O412 C415 1.235 . S
C413 O416 1.238 . S
C413 O417 1.241 . S
C414 O407 1.247 . S
C414 O408 1.261 . S
C415 O410 1.259 . S
C415 O412 1.235 . S
O416 Co406 2.021 . S
O416 C413 1.238 . S
O417 Co411 2.052 . S
O417 C413 1.241 . S
O418 Co406 2.137 . S
O418 C409 1.247 . S
O419 Co406 2.244 . S
O419 C409 1.272 . S
O419 Co411 2.135 . S
Co420 O421 2.216 . S
Co420 O422 2.091 . S
Co420 O424 2.004 . S
Co420 O430 2.021 . S
Co420 O432 2.137 . S
Co420 O433 2.244 . S
O421 Co420 2.216 . S
O421 C428 1.247 . S
O422 Co420 2.091 . S
O422 C428 1.261 . S
C423 O432 1.247 . S
C423 O433 1.272 . S
O424 Co420 2.004 . S
O424 C429 1.259 . S
Co425 O426 2.061 . S
Co425 O431 2.052 . S
Co425 O433 2.135 . S
O426 Co425 2.061 . S
O426 C429 1.235 . S
C427 O430 1.238 . S
C427 O431 1.241 . S
C428 O421 1.247 . S
C428 O422 1.261 . S
C429 O424 1.259 . S
C429 O426 1.235 . S
O430 Co420 2.021 . S
O430 C427 1.238 . S
O431 Co425 2.052 . S
O431 C427 1.241 . S
O432 Co420 2.137 . S
O432 C423 1.247 . S
O433 Co420 2.244 . S
O433 C423 1.272 . S
O433 Co425 2.135 . S
Co434 O435 2.216 . S
Co434 O436 2.091 . S
Co434 O438 2.004 . S
Co434 O444 2.021 . S
Co434 O446 2.137 . S
Co434 O447 2.244 . S
O435 Co434 2.216 . S
O435 C442 1.247 . S
O436 Co434 2.091 . S
O436 C442 1.261 . S
C437 O446 1.247 . S
C437 O447 1.272 . S
O438 Co434 2.004 . S
O438 C443 1.259 . S
Co439 O440 2.061 . S
Co439 O445 2.052 . S
Co439 O447 2.135 . S
O440 Co439 2.061 . S
O440 C443 1.235 . S
C441 O444 1.238 . S
C441 O445 1.241 . S
C442 O435 1.247 . S
C442 O436 1.261 . S
C443 O438 1.259 . S
C443 O440 1.235 . S
O444 Co434 2.021 . S
O444 C441 1.238 . S
O445 Co439 2.052 . S
O445 C441 1.241 . S
O446 Co434 2.137 . S
O446 C437 1.247 . S
O447 Co434 2.244 . S
O447 C437 1.272 . S
O447 Co439 2.135 . S
Co448 O449 2.216 . S
Co448 O450 2.091 . S
Co448 O452 2.004 . S
Co448 O458 2.021 . S
Co448 O460 2.137 . S
Co448 O461 2.244 . S
O449 Co448 2.216 . S
O449 C456 1.247 . S
O450 Co448 2.091 . S
O450 C456 1.261 . S
C451 O460 1.247 . S
C451 O461 1.272 . S
O452 Co448 2.004 . S
O452 C457 1.259 . S
Co453 O454 2.061 . S
Co453 O459 2.052 . S
Co453 O461 2.135 . S
O454 Co453 2.061 . S
O454 C457 1.235 . S
C455 O458 1.238 . S
C455 O459 1.241 . S
C456 O449 1.247 . S
C456 O450 1.261 . S
C457 O452 1.259 . S
C457 O454 1.235 . S
O458 Co448 2.021 . S
O458 C455 1.238 . S
O459 Co453 2.052 . S
O459 C455 1.241 . S
O460 Co448 2.137 . S
O460 C451 1.247 . S
O461 Co448 2.244 . S
O461 C451 1.272 . S
O461 Co453 2.135 . S
Co462 O463 2.216 . S
Co462 O464 2.091 . S
Co462 O466 2.004 . S
Co462 O472 2.021 . S
Co462 O474 2.137 . S
Co462 O475 2.244 . S
O463 Co462 2.216 . S
O463 C470 1.247 . S
O464 Co462 2.091 . S
O464 C470 1.261 . S
C465 O474 1.247 . S
C465 O475 1.272 . S
O466 Co462 2.004 . S
O466 C471 1.259 . S
Co467 O468 2.061 . S
Co467 O473 2.052 . S
Co467 O475 2.135 . S
O468 Co467 2.061 . S
O468 C471 1.235 . S
C469 O472 1.238 . S
C469 O473 1.241 . S
C470 O463 1.247 . S
C470 O464 1.261 . S
C471 O466 1.259 . S
C471 O468 1.235 . S
O472 Co462 2.021 . S
O472 C469 1.238 . S
O473 Co467 2.052 . S
O473 C469 1.241 . S
O474 Co462 2.137 . S
O474 C465 1.247 . S
O475 Co462 2.244 . S
O475 C465 1.272 . S
O475 Co467 2.135 . S
Co476 O477 2.216 . S
Co476 O478 2.091 . S
Co476 O480 2.004 . S
Co476 O486 2.021 . S
Co476 O488 2.137 . S
Co476 O489 2.244 . S
O477 Co476 2.216 . S
O477 C484 1.247 . S
O478 Co476 2.091 . S
O478 C484 1.261 . S
C479 O488 1.247 . S
C479 O489 1.272 . S
O480 Co476 2.004 . S
O480 C485 1.259 . S
Co481 O482 2.061 . S
Co481 O487 2.052 . S
Co481 O489 2.135 . S
O482 Co481 2.061 . S
O482 C485 1.235 . S
C483 O486 1.238 . S
C483 O487 1.241 . S
C484 O477 1.247 . S
C484 O478 1.261 . S
C485 O480 1.259 . S
C485 O482 1.235 . S
O486 Co476 2.021 . S
O486 C483 1.238 . S
O487 Co481 2.052 . S
O487 C483 1.241 . S
O488 Co476 2.137 . S
O488 C479 1.247 . S
O489 Co476 2.244 . S
O489 C479 1.272 . S
O489 Co481 2.135 . S
Co490 O491 2.216 . S
Co490 O492 2.091 . S
Co490 O494 2.004 . S
Co490 O500 2.021 . S
Co490 O502 2.137 . S
Co490 O503 2.244 . S
O491 Co490 2.216 . S
O491 C498 1.247 . S
O492 Co490 2.091 . S
O492 C498 1.261 . S
C493 O502 1.247 . S
C493 O503 1.272 . S
O494 Co490 2.004 . S
O494 C499 1.259 . S
Co495 O496 2.061 . S
Co495 O501 2.052 . S
Co495 O503 2.135 . S
O496 Co495 2.061 . S
O496 C499 1.235 . S
C497 O500 1.238 . S
C497 O501 1.241 . S
C498 O491 1.247 . S
C498 O492 1.261 . S
C499 O494 1.259 . S
C499 O496 1.235 . S
O500 Co490 2.021 . S
O500 C497 1.238 . S
O501 Co495 2.052 . S
O501 C497 1.241 . S
O502 Co490 2.137 . S
O502 C493 1.247 . S
O503 Co490 2.244 . S
O503 C493 1.272 . S
O503 Co495 2.135 . S
H504 C512 0.950 . S
H505 C517 0.950 . S
H506 C514 0.950 . S
H507 C516 0.950 . S
H508 C518 0.950 . S
H509 C520 0.950 . S
H510 C522 0.950 . S
H511 C523 0.950 1_554 S
C512 H504 0.950 . S
C512 C513 1.386 . S
C512 C514 1.391 . S
C513 C512 1.386 . S
C513 C517 1.393 . S
C514 H506 0.950 . S
C514 C512 1.391 . S
C514 C515 1.400 . S
C515 C514 1.400 . S
C515 C516 1.398 . S
C515 C521 1.491 . S
C516 H507 0.950 . S
C516 C515 1.398 . S
C516 C517 1.391 . S
C517 H505 0.950 . S
C517 C513 1.393 . S
C517 C516 1.391 . S
C518 H508 0.950 . S
C518 C519 1.386 . S
C518 C520 1.391 . S
C519 C518 1.386 . S
C519 C523 1.393 . S
C520 H509 0.950 . S
C520 C518 1.391 . S
C520 C521 1.400 . S
C521 C515 1.491 . S
C521 C520 1.400 . S
C521 C522 1.398 . S
C522 H510 0.950 . S
C522 C521 1.398 . S
C522 C523 1.391 . S
C523 H511 0.950 1_556 S
C523 C519 1.393 . S
C523 C522 1.391 . S
H524 C532 0.950 . S
H525 C537 0.950 . S
H526 C534 0.950 . S
H527 C536 0.950 . S
H528 C538 0.950 . S
H529 C540 0.950 . S
H530 C542 0.950 . S
H531 C543 0.950 . S
C532 H524 0.950 . S
C532 C533 1.386 . S
C532 C534 1.391 . S
C533 C532 1.386 . S
C533 C537 1.393 . S
C534 H526 0.950 . S
C534 C532 1.391 . S
C534 C535 1.400 . S
C535 C534 1.400 . S
C535 C536 1.398 . S
C535 C541 1.491 . S
C536 H527 0.950 . S
C536 C535 1.398 . S
C536 C537 1.391 . S
C537 H525 0.950 . S
C537 C533 1.393 . S
C537 C536 1.391 . S
C538 H528 0.950 . S
C538 C539 1.386 . S
C538 C540 1.391 . S
C539 C538 1.386 . S
C539 C543 1.393 . S
C540 H529 0.950 . S
C540 C538 1.391 . S
C540 C541 1.400 . S
C541 C535 1.491 . S
C541 C540 1.400 . S
C541 C542 1.398 . S
C542 H530 0.950 . S
C542 C541 1.398 . S
C542 C543 1.391 . S
C543 H531 0.950 . S
C543 C539 1.393 . S
C543 C542 1.391 . S
H544 C552 0.950 . S
H545 C557 0.950 1_554 S
H546 C554 0.950 . S
H547 C556 0.950 . S
H548 C558 0.950 . S
H549 C560 0.950 . S
H550 C562 0.950 . S
H551 C563 0.950 . S
C552 H544 0.950 . S
C552 C553 1.386 . S
C552 C554 1.391 . S
C553 C552 1.386 . S
C553 C557 1.393 . S
C554 H546 0.950 . S
C554 C552 1.391 . S
C554 C555 1.400 . S
C555 C554 1.400 . S
C555 C556 1.398 . S
C555 C561 1.491 . S
C556 H547 0.950 . S
C556 C555 1.398 . S
C556 C557 1.391 . S
C557 H545 0.950 1_556 S
C557 C553 1.393 . S
C557 C556 1.391 . S
C558 H548 0.950 . S
C558 C559 1.386 . S
C558 C560 1.391 . S
C559 C558 1.386 . S
C559 C563 1.393 . S
C560 H549 0.950 . S
C560 C558 1.391 . S
C560 C561 1.400 . S
C561 C555 1.491 . S
C561 C560 1.400 . S
C561 C562 1.398 . S
C562 H550 0.950 . S
C562 C561 1.398 . S
C562 C563 1.391 . S
C563 H551 0.950 . S
C563 C559 1.393 . S
C563 C562 1.391 . S
H564 C572 0.950 . S
H565 C577 0.950 . S
H566 C574 0.950 . S
H567 C576 0.950 . S
H568 C578 0.950 . S
H569 C580 0.950 . S
H570 C582 0.950 . S
H571 C583 0.950 . S
C572 H564 0.950 . S
C572 C573 1.386 . S
C572 C574 1.391 . S
C573 C572 1.386 . S
C573 C577 1.393 . S
C574 H566 0.950 . S
C574 C572 1.391 . S
C574 C575 1.400 . S
C575 C574 1.400 . S
C575 C576 1.398 . S
C575 C581 1.491 . S
C576 H567 0.950 . S
C576 C575 1.398 . S
C576 C577 1.391 . S
C577 H565 0.950 . S
C577 C573 1.393 . S
C577 C576 1.391 . S
C578 H568 0.950 . S
C578 C579 1.386 . S
C578 C580 1.391 . S
C579 C578 1.386 . S
C579 C583 1.393 . S
C580 H569 0.950 . S
C580 C578 1.391 . S
C580 C581 1.400 . S
C581 C575 1.491 . S
C581 C580 1.400 . S
C581 C582 1.398 . S
C582 H570 0.950 . S
C582 C581 1.398 . S
C582 C583 1.391 . S
C583 H571 0.950 . S
C583 C579 1.393 . S
C583 C582 1.391 . S
H584 C592 0.950 . S
H585 C597 0.950 . S
H586 C594 0.950 . S
H587 C596 0.950 . S
H588 C598 0.950 . S
H589 C600 0.950 . S
H590 C602 0.950 . S
H591 C603 0.950 . S
C592 H584 0.950 . S
C592 C593 1.386 . S
C592 C594 1.391 . S
C593 C592 1.386 . S
C593 C597 1.393 . S
C594 H586 0.950 . S
C594 C592 1.391 . S
C594 C595 1.400 . S
C595 C594 1.400 . S
C595 C596 1.398 . S
C595 C601 1.491 . S
C596 H587 0.950 . S
C596 C595 1.398 . S
C596 C597 1.391 . S
C597 H585 0.950 . S
C597 C593 1.393 . S
C597 C596 1.391 . S
C598 H588 0.950 . S
C598 C599 1.386 . S
C598 C600 1.391 . S
C599 C598 1.386 . S
C599 C603 1.393 . S
C600 H589 0.950 . S
C600 C598 1.391 . S
C600 C601 1.400 . S
C601 C595 1.491 . S
C601 C600 1.400 . S
C601 C602 1.398 . S
C602 H590 0.950 . S
C602 C601 1.398 . S
C602 C603 1.391 . S
C603 H591 0.950 . S
C603 C599 1.393 . S
C603 C602 1.391 . S
H604 C612 0.950 . S
H605 C617 0.950 . S
H606 C614 0.950 . S
H607 C616 0.950 . S
H608 C618 0.950 . S
H609 C620 0.950 . S
H610 C622 0.950 . S
H611 C623 0.950 . S
C612 H604 0.950 . S
C612 C613 1.386 . S
C612 C614 1.391 . S
C613 C612 1.386 . S
C613 C617 1.393 . S
C614 H606 0.950 . S
C614 C612 1.391 . S
C614 C615 1.400 . S
C615 C614 1.400 . S
C615 C616 1.398 . S
C615 C621 1.491 . S
C616 H607 0.950 . S
C616 C615 1.398 . S
C616 C617 1.391 . S
C617 H605 0.950 . S
C617 C613 1.393 . S
C617 C616 1.391 . S
C618 H608 0.950 . S
C618 C619 1.386 . S
C618 C620 1.391 . S
C619 C618 1.386 . S
C619 C623 1.393 . S
C620 H609 0.950 . S
C620 C618 1.391 . S
C620 C621 1.400 . S
C621 C615 1.491 . S
C621 C620 1.400 . S
C621 C622 1.398 . S
C622 H610 0.950 . S
C622 C621 1.398 . S
C622 C623 1.391 . S
C623 H611 0.950 . S
C623 C619 1.393 . S
C623 C622 1.391 . S
H624 C632 0.950 . S
H625 C637 0.950 . S
H626 C634 0.950 . S
H627 C636 0.950 . S
H628 C638 0.950 . S
H629 C640 0.950 . S
H630 C642 0.950 . S
H631 C643 0.950 . S
C632 H624 0.950 . S
C632 C633 1.386 . S
C632 C634 1.391 . S
C633 C632 1.386 . S
C633 C637 1.393 . S
C634 H626 0.950 . S
C634 C632 1.391 . S
C634 C635 1.400 . S
C635 C634 1.400 . S
C635 C636 1.398 . S
C635 C641 1.491 . S
C636 H627 0.950 . S
C636 C635 1.398 . S
C636 C637 1.391 . S
C637 H625 0.950 . S
C637 C633 1.393 . S
C637 C636 1.391 . S
C638 H628 0.950 . S
C638 C639 1.386 . S
C638 C640 1.391 . S
C639 C638 1.386 . S
C639 C643 1.393 . S
C640 H629 0.950 . S
C640 C638 1.391 . S
C640 C641 1.400 . S
C641 C635 1.491 . S
C641 C640 1.400 . S
C641 C642 1.398 . S
C642 H630 0.950 . S
C642 C641 1.398 . S
C642 C643 1.391 . S
C643 H631 0.950 . S
C643 C639 1.393 . S
C643 C642 1.391 . S
H644 C652 0.950 . S
H645 C657 0.950 . S
H646 C654 0.950 . S
H647 C656 0.950 . S
H648 C658 0.950 . S
H649 C660 0.950 . S
H650 C662 0.950 . S
H651 C663 0.950 . S
C652 H644 0.950 . S
C652 C653 1.386 . S
C652 C654 1.391 . S
C653 C652 1.386 . S
C653 C657 1.393 . S
C654 H646 0.950 . S
C654 C652 1.391 . S
C654 C655 1.400 . S
C655 C654 1.400 . S
C655 C656 1.398 . S
C655 C661 1.491 . S
C656 H647 0.950 . S
C656 C655 1.398 . S
C656 C657 1.391 . S
C657 H645 0.950 . S
C657 C653 1.393 . S
C657 C656 1.391 . S
C658 H648 0.950 . S
C658 C659 1.386 . S
C658 C660 1.391 . S
C659 C658 1.386 . S
C659 C663 1.393 . S
C660 H649 0.950 . S
C660 C658 1.391 . S
C660 C661 1.400 . S
C661 C655 1.491 . S
C661 C660 1.400 . S
C661 C662 1.398 . S
C662 H650 0.950 . S
C662 C661 1.398 . S
C662 C663 1.391 . S
C663 H651 0.950 . S
C663 C659 1.393 . S
C663 C662 1.391 . S
H664 C672 0.950 . S
H665 C677 0.950 . S
H666 C674 0.950 . S
H667 C676 0.950 . S
H668 C678 0.950 . S
H669 C680 0.950 . S
H670 C682 0.950 . S
H671 C683 0.950 . S
C672 H664 0.950 . S
C672 C673 1.386 . S
C672 C674 1.391 . S
C673 C672 1.386 . S
C673 C677 1.393 . S
C674 H666 0.950 . S
C674 C672 1.391 . S
C674 C675 1.400 . S
C675 C674 1.400 . S
C675 C676 1.398 . S
C675 C681 1.491 . S
C676 H667 0.950 . S
C676 C675 1.398 . S
C676 C677 1.391 . S
C677 H665 0.950 . S
C677 C673 1.393 . S
C677 C676 1.391 . S
C678 H668 0.950 . S
C678 C679 1.386 . S
C678 C680 1.391 . S
C679 C678 1.386 . S
C679 C683 1.393 . S
C680 H669 0.950 . S
C680 C678 1.391 . S
C680 C681 1.400 . S
C681 C675 1.491 . S
C681 C680 1.400 . S
C681 C682 1.398 . S
C682 H670 0.950 . S
C682 C681 1.398 . S
C682 C683 1.391 . S
C683 H671 0.950 . S
C683 C679 1.393 . S
C683 C682 1.391 . S
H684 C692 0.950 . S
H685 C697 0.950 . S
H686 C694 0.950 . S
H687 C696 0.950 . S
H688 C698 0.950 . S
H689 C700 0.950 . S
H690 C702 0.950 . S
H691 C703 0.950 . S
C692 H684 0.950 . S
C692 C693 1.386 . S
C692 C694 1.391 . S
C693 C692 1.386 . S
C693 C697 1.393 . S
C694 H686 0.950 . S
C694 C692 1.391 . S
C694 C695 1.400 . S
C695 C694 1.400 . S
C695 C696 1.398 . S
C695 C701 1.491 . S
C696 H687 0.950 . S
C696 C695 1.398 . S
C696 C697 1.391 . S
C697 H685 0.950 . S
C697 C693 1.393 . S
C697 C696 1.391 . S
C698 H688 0.950 . S
C698 C699 1.386 . S
C698 C700 1.391 . S
C699 C698 1.386 . S
C699 C703 1.393 . S
C700 H689 0.950 . S
C700 C698 1.391 . S
C700 C701 1.400 . S
C701 C695 1.491 . S
C701 C700 1.400 . S
C701 C702 1.398 . S
C702 H690 0.950 . S
C702 C701 1.398 . S
C702 C703 1.391 . S
C703 H691 0.950 . S
C703 C699 1.393 . S
C703 C702 1.391 . S
H704 C712 0.950 . S
H705 C717 0.950 . S
H706 C714 0.950 . S
H707 C716 0.950 . S
H708 C718 0.950 . S
H709 C720 0.950 . S
H710 C722 0.950 . S
H711 C723 0.950 . S
C712 H704 0.950 . S
C712 C713 1.386 . S
C712 C714 1.391 . S
C713 C712 1.386 . S
C713 C717 1.393 . S
C714 H706 0.950 . S
C714 C712 1.391 . S
C714 C715 1.400 . S
C715 C714 1.400 . S
C715 C716 1.398 . S
C715 C721 1.491 . S
C716 H707 0.950 . S
C716 C715 1.398 . S
C716 C717 1.391 . S
C717 H705 0.950 . S
C717 C713 1.393 . S
C717 C716 1.391 . S
C718 H708 0.950 . S
C718 C719 1.386 . S
C718 C720 1.391 . S
C719 C718 1.386 . S
C719 C723 1.393 . S
C720 H709 0.950 . S
C720 C718 1.391 . S
C720 C721 1.400 . S
C721 C715 1.491 . S
C721 C720 1.400 . S
C721 C722 1.398 . S
C722 H710 0.950 . S
C722 C721 1.398 . S
C722 C723 1.391 . S
C723 H711 0.950 . S
C723 C719 1.393 . S
C723 C722 1.391 . S
H724 C732 0.950 . S
H725 C737 0.950 . S
H726 C734 0.950 . S
H727 C736 0.950 . S
H728 C738 0.950 . S
H729 C740 0.950 . S
H730 C742 0.950 . S
H731 C743 0.950 . S
C732 H724 0.950 . S
C732 C733 1.386 . S
C732 C734 1.391 . S
C733 C732 1.386 . S
C733 C737 1.393 . S
C734 H726 0.950 . S
C734 C732 1.391 . S
C734 C735 1.400 . S
C735 C734 1.400 . S
C735 C736 1.398 . S
C735 C741 1.491 . S
C736 H727 0.950 . S
C736 C735 1.398 . S
C736 C737 1.391 . S
C737 H725 0.950 . S
C737 C733 1.393 . S
C737 C736 1.391 . S
C738 H728 0.950 . S
C738 C739 1.386 . S
C738 C740 1.391 . S
C739 C738 1.386 . S
C739 C743 1.393 . S
C740 H729 0.950 . S
C740 C738 1.391 . S
C740 C741 1.400 . S
C741 C735 1.491 . S
C741 C740 1.400 . S
C741 C742 1.398 . S
C742 H730 0.950 . S
C742 C741 1.398 . S
C742 C743 1.391 . S
C743 H731 0.950 . S
C743 C739 1.393 . S
C743 C742 1.391 . S
H744 C752 0.950 . S
H745 C757 0.950 . S
H746 C754 0.950 . S
H747 C756 0.950 1_655 S
H748 C758 0.950 . S
H749 C760 0.950 . S
H750 C762 0.950 1_455 S
H751 C763 0.950 . S
C752 H744 0.950 . S
C752 C753 1.386 . S
C752 C754 1.391 . S
C753 C752 1.386 . S
C753 C757 1.393 . S
C754 H746 0.950 . S
C754 C752 1.391 . S
C754 C755 1.400 . S
C755 C754 1.400 . S
C755 C756 1.398 . S
C755 C761 1.491 1_455 S
C756 H747 0.950 1_455 S
C756 C755 1.398 . S
C756 C757 1.391 . S
C757 H745 0.950 . S
C757 C753 1.393 . S
C757 C756 1.391 . S
C758 H748 0.950 . S
C758 C759 1.386 . S
C758 C760 1.391 . S
C759 C758 1.386 . S
C759 C763 1.393 . S
C760 H749 0.950 . S
C760 C758 1.391 . S
C760 C761 1.400 . S
C761 C755 1.491 1_655 S
C761 C760 1.400 . S
C761 C762 1.398 . S
C762 H750 0.950 1_655 S
C762 C761 1.398 . S
C762 C763 1.391 . S
C763 H751 0.950 . S
C763 C759 1.393 . S
C763 C762 1.391 . S
H764 C772 0.950 . S
H765 C777 0.950 . S
H766 C774 0.950 . S
H767 C776 0.950 . S
H768 C778 0.950 . S
H769 C780 0.950 . S
H770 C782 0.950 . S
H771 C783 0.950 . S
C772 H764 0.950 . S
C772 C773 1.386 . S
C772 C774 1.391 . S
C773 C772 1.386 . S
C773 C777 1.393 . S
C774 H766 0.950 . S
C774 C772 1.391 . S
C774 C775 1.400 . S
C775 C774 1.400 . S
C775 C776 1.398 . S
C775 C781 1.491 . S
C776 H767 0.950 . S
C776 C775 1.398 . S
C776 C777 1.391 . S
C777 H765 0.950 . S
C777 C773 1.393 . S
C777 C776 1.391 . S
C778 H768 0.950 . S
C778 C779 1.386 . S
C778 C780 1.391 . S
C779 C778 1.386 . S
C779 C783 1.393 . S
C780 H769 0.950 . S
C780 C778 1.391 . S
C780 C781 1.400 . S
C781 C775 1.491 . S
C781 C780 1.400 . S
C781 C782 1.398 . S
C782 H770 0.950 . S
C782 C781 1.398 . S
C782 C783 1.391 . S
C783 H771 0.950 . S
C783 C779 1.393 . S
C783 C782 1.391 . S
H784 C792 0.950 . S
H785 C797 0.950 . S
H786 C794 0.950 1_545 S
H787 C796 0.950 . S
H788 C798 0.950 . S
H789 C800 0.950 1_565 S
H790 C802 0.950 . S
H791 C803 0.950 . S
C792 H784 0.950 . S
C792 C793 1.386 . S
C792 C794 1.391 . S
C793 C792 1.386 . S
C793 C797 1.393 . S
C794 H786 0.950 1_565 S
C794 C792 1.391 . S
C794 C795 1.400 . S
C795 C794 1.400 . S
C795 C796 1.398 . S
C795 C801 1.491 1_565 S
C796 H787 0.950 . S
C796 C795 1.398 . S
C796 C797 1.391 . S
C797 H785 0.950 . S
C797 C793 1.393 . S
C797 C796 1.391 . S
C798 H788 0.950 . S
C798 C799 1.386 . S
C798 C800 1.391 . S
C799 C798 1.386 . S
C799 C803 1.393 . S
C800 H789 0.950 1_545 S
C800 C798 1.391 . S
C800 C801 1.400 . S
C801 C795 1.491 1_545 S
C801 C800 1.400 . S
C801 C802 1.398 . S
C802 H790 0.950 . S
C802 C801 1.398 . S
C802 C803 1.391 . S
C803 H791 0.950 . S
C803 C799 1.393 . S
C803 C802 1.391 . S
H804 C812 0.950 . S
H805 C817 0.950 . S
H806 C814 0.950 . S
H807 C816 0.950 . S
H808 C818 0.950 . S
H809 C820 0.950 . S
H810 C822 0.950 . S
H811 C823 0.950 . S
C812 H804 0.950 . S
C812 C813 1.386 . S
C812 C814 1.391 . S
C813 C812 1.386 . S
C813 C817 1.393 . S
C814 H806 0.950 . S
C814 C812 1.391 . S
C814 C815 1.400 . S
C815 C814 1.400 . S
C815 C816 1.398 . S
C815 C821 1.491 1_565 S
C816 H807 0.950 . S
C816 C815 1.398 . S
C816 C817 1.391 . S
C817 H805 0.950 . S
C817 C813 1.393 . S
C817 C816 1.391 . S
C818 H808 0.950 . S
C818 C819 1.386 . S
C818 C820 1.391 . S
C819 C818 1.386 . S
C819 C823 1.393 . S
C820 H809 0.950 . S
C820 C818 1.391 . S
C820 C821 1.400 . S
C821 C815 1.491 1_545 S
C821 C820 1.400 . S
C821 C822 1.398 . S
C822 H810 0.950 . S
C822 C821 1.398 . S
C822 C823 1.391 . S
C823 H811 0.950 . S
C823 C819 1.393 . S
C823 C822 1.391 . S
H824 C832 0.950 . S
H825 C837 0.950 . S
H826 C834 0.950 1_655 S
H827 C836 0.950 . S
H828 C838 0.950 . S
H829 C840 0.950 1_455 S
H830 C842 0.950 . S
H831 C843 0.950 . S
C832 H824 0.950 . S
C832 C833 1.386 . S
C832 C834 1.391 . S
C833 C832 1.386 . S
C833 C837 1.393 . S
C834 H826 0.950 1_455 S
C834 C832 1.391 . S
C834 C835 1.400 . S
C835 C834 1.400 . S
C835 C836 1.398 . S
C835 C841 1.491 1_455 S
C836 H827 0.950 . S
C836 C835 1.398 . S
C836 C837 1.391 . S
C837 H825 0.950 . S
C837 C833 1.393 . S
C837 C836 1.391 . S
C838 H828 0.950 . S
C838 C839 1.386 . S
C838 C840 1.391 . S
C839 C838 1.386 . S
C839 C843 1.393 . S
C840 H829 0.950 1_655 S
C840 C838 1.391 . S
C840 C841 1.400 . S
C841 C835 1.491 1_655 S
C841 C840 1.400 . S
C841 C842 1.398 . S
C842 H830 0.950 . S
C842 C841 1.398 . S
C842 C843 1.391 . S
C843 H831 0.950 . S
C843 C839 1.393 . S
C843 C842 1.391 . S
H844 C852 0.950 . S
H845 C857 0.950 . S
H846 C854 0.950 . S
H847 C856 0.950 . S
H848 C858 0.950 . S
H849 C860 0.950 . S
H850 C862 0.950 . S
H851 C863 0.950 . S
C852 H844 0.950 . S
C852 C853 1.386 . S
C852 C854 1.391 . S
C853 C852 1.386 . S
C853 C857 1.393 . S
C854 H846 0.950 . S
C854 C852 1.391 . S
C854 C855 1.400 . S
C855 C854 1.400 . S
C855 C856 1.398 . S
C855 C861 1.491 . S
C856 H847 0.950 . S
C856 C855 1.398 . S
C856 C857 1.391 . S
C857 H845 0.950 . S
C857 C853 1.393 . S
C857 C856 1.391 . S
C858 H848 0.950 . S
C858 C859 1.386 . S
C858 C860 1.391 . S
C859 C858 1.386 . S
C859 C863 1.393 . S
C860 H849 0.950 . S
C860 C858 1.391 . S
C860 C861 1.400 . S
C861 C855 1.491 . S
C861 C860 1.400 . S
C861 C862 1.398 . S
C862 H850 0.950 . S
C862 C861 1.398 . S
C862 C863 1.391 . S
C863 H851 0.950 . S
C863 C859 1.393 . S
C863 C862 1.391 . S
H864 C872 0.950 . S
H865 C877 0.952 . S
H866 C874 0.950 . S
H867 C876 0.950 . S
H868 C878 0.950 . S
H869 C880 0.950 . S
H870 C882 0.950 1_556 S
H871 C883 0.950 . S
C872 H864 0.950 . S
C872 C873 1.386 . S
C872 C874 1.391 . S
C873 C872 1.386 . S
C873 C877 1.389 1_556 S
C874 H866 0.950 . S
C874 C872 1.391 . S
C874 C875 1.400 1_556 S
C875 C874 1.400 1_554 S
C875 C876 1.398 . S
C875 C881 1.491 . S
C876 H867 0.950 . S
C876 C875 1.398 . S
C876 C877 1.393 . S
C877 H865 0.952 . S
C877 C873 1.389 1_554 S
C877 C876 1.393 . S
C878 H868 0.950 . S
C878 C879 1.386 . S
C878 C880 1.391 . S
C879 C878 1.386 . S
C879 C883 1.393 . S
C880 H869 0.950 . S
C880 C878 1.391 . S
C880 C881 1.400 . S
C881 C875 1.491 . S
C881 C880 1.400 . S
C881 C882 1.398 . S
C882 H870 0.950 1_554 S
C882 C881 1.398 . S
C882 C883 1.391 . S
C883 H871 0.950 . S
C883 C879 1.393 . S
C883 C882 1.391 . S
H884 C892 0.950 . S
H885 C897 0.950 . S
H886 C894 0.950 . S
H887 C896 0.950 . S
H888 C898 0.950 . S
H889 C900 0.950 . S
H890 C902 0.950 1_556 S
H891 C903 0.950 . S
C892 H884 0.950 . S
C892 C893 1.386 . S
C892 C894 1.391 . S
C893 C892 1.386 . S
C893 C897 1.393 1_556 S
C894 H886 0.950 . S
C894 C892 1.391 . S
C894 C895 1.400 1_556 S
C895 C894 1.400 1_554 S
C895 C896 1.398 . S
C895 C901 1.491 . S
C896 H887 0.950 . S
C896 C895 1.398 . S
C896 C897 1.391 . S
C897 H885 0.950 . S
C897 C893 1.393 1_554 S
C897 C896 1.391 . S
C898 H888 0.950 . S
C898 C899 1.386 . S
C898 C900 1.391 . S
C899 C898 1.386 . S
C899 C903 1.393 . S
C900 H889 0.950 . S
C900 C898 1.391 . S
C900 C901 1.400 . S
C901 C895 1.491 . S
C901 C900 1.400 . S
C901 C902 1.398 . S
C902 H890 0.950 1_554 S
C902 C901 1.398 . S
C902 C903 1.391 . S
C903 H891 0.950 . S
C903 C899 1.393 . S
C903 C902 1.391 . S
H904 C912 0.950 . S
H905 C917 0.950 . S
H906 C914 0.950 1_554 S
H907 C916 0.947 1_554 S
H908 C918 0.950 . S
H909 C920 0.950 . S
H910 C922 0.950 . S
H911 C923 0.950 . S
C912 H904 0.950 . S
C912 C913 1.386 . S
C912 C914 1.391 . S
C913 C912 1.386 . S
C913 C917 1.393 . S
C914 H906 0.950 1_556 S
C914 C912 1.391 . S
C914 C915 1.400 1_556 S
C915 C914 1.400 1_554 S
C915 C916 1.398 1_554 S
C915 C921 1.491 . S
C916 H907 0.947 1_556 S
C916 C915 1.398 1_556 S
C916 C917 1.391 . S
C917 H905 0.950 . S
C917 C913 1.393 . S
C917 C916 1.391 . S
C918 H908 0.950 . S
C918 C919 1.386 . S
C918 C920 1.391 . S
C919 C918 1.386 . S
C919 C923 1.393 . S
C920 H909 0.950 . S
C920 C918 1.391 . S
C920 C921 1.400 . S
C921 C915 1.491 . S
C921 C920 1.400 . S
C921 C922 1.398 . S
C922 H910 0.950 . S
C922 C921 1.398 . S
C922 C923 1.391 . S
C923 H911 0.950 . S
C923 C919 1.393 . S
C923 C922 1.391 . S
H924 C932 0.950 . S
H925 C937 0.950 . S
H926 C934 0.950 . S
H927 C936 0.950 . S
H928 C938 0.950 . S
H929 C940 0.950 . S
H930 C942 0.950 . S
H931 C943 0.950 . S
C932 H924 0.950 . S
C932 C933 1.386 . S
C932 C934 1.391 . S
C933 C932 1.386 . S
C933 C937 1.393 . S
C934 H926 0.950 . S
C934 C932 1.391 . S
C934 C935 1.400 . S
C935 C934 1.400 . S
C935 C936 1.398 . S
C935 C941 1.491 . S
C936 H927 0.950 . S
C936 C935 1.398 . S
C936 C937 1.391 . S
C937 H925 0.950 . S
C937 C933 1.393 . S
C937 C936 1.391 . S
C938 H928 0.950 . S
C938 C939 1.386 . S
C938 C940 1.391 . S
C939 C938 1.386 . S
C939 C943 1.393 . S
C940 H929 0.950 . S
C940 C938 1.391 . S
C940 C941 1.400 . S
C941 C935 1.491 . S
C941 C940 1.400 . S
C941 C942 1.398 . S
C942 H930 0.950 . S
C942 C941 1.398 . S
C942 C943 1.391 . S
C943 H931 0.950 . S
C943 C939 1.393 . S
C943 C942 1.391 . S
H944 C952 0.950 . S
H945 C957 0.950 . S
H946 C954 0.950 . S
H947 C956 0.950 . S
H948 C958 0.950 . S
H949 C960 0.950 . S
H950 C962 0.950 . S
H951 C963 0.950 . S
C952 H944 0.950 . S
C952 C953 1.386 . S
C952 C954 1.391 . S
C953 C952 1.386 . S
C953 C957 1.393 . S
C954 H946 0.950 . S
C954 C952 1.391 . S
C954 C955 1.400 . S
C955 C954 1.400 . S
C955 C956 1.398 . S
C955 C961 1.491 . S
C956 H947 0.950 . S
C956 C955 1.398 . S
C956 C957 1.391 . S
C957 H945 0.950 . S
C957 C953 1.393 . S
C957 C956 1.391 . S
C958 H948 0.950 . S
C958 C959 1.386 . S
C958 C960 1.391 . S
C959 C958 1.386 . S
C959 C963 1.393 . S
C960 H949 0.950 . S
C960 C958 1.391 . S
C960 C961 1.400 . S
C961 C955 1.491 . S
C961 C960 1.400 . S
C961 C962 1.398 . S
C962 H950 0.950 . S
C962 C961 1.398 . S
C962 C963 1.391 . S
C963 H951 0.950 . S
C963 C959 1.393 . S
C963 C962 1.391 . S
H964 C972 0.950 . S
H965 C977 0.950 . S
H966 C974 0.950 . S
H967 C976 0.950 . S
H968 C978 0.950 . S
H969 C980 0.950 . S
H970 C982 0.950 . S
H971 C983 0.950 . S
C972 H964 0.950 . S
C972 C973 1.386 . S
C972 C974 1.391 . S
C973 C972 1.386 . S
C973 C977 1.393 . S
C974 H966 0.950 . S
C974 C972 1.391 . S
C974 C975 1.400 . S
C975 C974 1.400 . S
C975 C976 1.398 . S
C975 C981 1.491 . S
C976 H967 0.950 . S
C976 C975 1.398 . S
C976 C977 1.391 . S
C977 H965 0.950 . S
C977 C973 1.393 . S
C977 C976 1.391 . S
C978 H968 0.950 . S
C978 C979 1.386 . S
C978 C980 1.391 . S
C979 C978 1.386 . S
C979 C983 1.393 . S
C980 H969 0.950 . S
C980 C978 1.391 . S
C980 C981 1.400 . S
C981 C975 1.491 . S
C981 C980 1.400 . S
C981 C982 1.398 . S
C982 H970 0.950 . S
C982 C981 1.398 . S
C982 C983 1.391 . S
C983 H971 0.950 . S
C983 C979 1.393 . S
C983 C982 1.391 . S
H984 C992 0.950 . S
H985 C997 0.947 1_556 S
H986 C994 0.950 . S
H987 C996 0.950 . S
H988 C998 0.950 . S
H989 C1000 0.950 . S
H990 C1002 0.950 1_554 S
H991 C1003 0.950 . S
C992 H984 0.950 . S
C992 C993 1.386 . S
C992 C994 1.391 . S
C993 C992 1.386 . S
C993 C997 1.401 . S
C994 H986 0.950 . S
C994 C992 1.391 . S
C994 C995 1.400 1_554 S
C995 C994 1.400 1_556 S
C995 C996 1.398 . S
C995 C1001 1.491 . S
C996 H987 0.950 . S
C996 C995 1.398 . S
C996 C997 1.386 1_556 S
C997 H985 0.947 1_554 S
C997 C993 1.401 . S
C997 C996 1.386 1_554 S
C998 H988 0.950 . S
C998 C999 1.386 . S
C998 C1000 1.391 . S
C999 C998 1.386 . S
C999 C1003 1.393 . S
C1000 H989 0.950 . S
C1000 C998 1.391 . S
C1000 C1001 1.400 . S
C1001 C995 1.491 . S
C1001 C1000 1.400 . S
C1001 C1002 1.398 . S
C1002 H990 0.950 1_556 S
C1002 C1001 1.398 . S
C1002 C1003 1.391 . S
C1003 H991 0.950 . S
C1003 C999 1.393 . S
C1003 C1002 1.391 . S
H1004 C1012 0.950 . S
H1005 C1017 0.950 . S
H1006 C1014 0.950 . S
H1007 C1016 0.950 1_554 S
H1008 C1018 0.950 . S
H1009 C1020 0.950 . S
H1010 C1022 0.950 . S
H1011 C1023 0.950 . S
C1012 H1004 0.950 . S
C1012 C1013 1.386 . S
C1012 C1014 1.391 . S
C1013 C1012 1.386 . S
C1013 C1017 1.393 . S
C1014 H1006 0.950 . S
C1014 C1012 1.391 . S
C1014 C1015 1.400 . S
C1015 C1014 1.400 . S
C1015 C1016 1.398 . S
C1015 C1021 1.491 . S
C1016 H1007 0.950 1_556 S
C1016 C1015 1.398 . S
C1016 C1017 1.391 . S
C1017 H1005 0.950 . S
C1017 C1013 1.393 . S
C1017 C1016 1.391 . S
C1018 H1008 0.950 . S
C1018 C1019 1.386 . S
C1018 C1020 1.391 . S
C1019 C1018 1.386 . S
C1019 C1023 1.393 . S
C1020 H1009 0.950 . S
C1020 C1018 1.391 . S
C1020 C1021 1.400 1_554 S
C1021 C1015 1.491 . S
C1021 C1020 1.400 1_556 S
C1021 C1022 1.398 . S
C1022 H1010 0.950 . S
C1022 C1021 1.398 . S
C1022 C1023 1.391 1_556 S
C1023 H1011 0.950 . S
C1023 C1019 1.393 . S
C1023 C1022 1.391 1_554 S
H1024 C1032 0.950 . S
H1025 C1037 0.950 . S
H1026 C1034 0.950 . S
H1027 C1036 0.950 . S
H1028 C1038 0.950 . S
H1029 C1040 0.950 . S
H1030 C1042 0.950 . S
H1031 C1043 0.950 . S
C1032 H1024 0.950 . S
C1032 C1033 1.386 1_556 S
C1032 C1034 1.391 . S
C1033 C1032 1.386 1_554 S
C1033 C1037 1.393 . S
C1034 H1026 0.950 . S
C1034 C1032 1.391 . S
C1034 C1035 1.400 . S
C1035 C1034 1.400 . S
C1035 C1036 1.398 1_556 S
C1035 C1041 1.491 . S
C1036 H1027 0.950 . S
C1036 C1035 1.398 1_554 S
C1036 C1037 1.391 . S
C1037 H1025 0.950 . S
C1037 C1033 1.393 . S
C1037 C1036 1.391 . S
C1038 H1028 0.950 . S
C1038 C1039 1.386 1_554 S
C1038 C1040 1.391 . S
C1039 C1038 1.386 1_556 S
C1039 C1043 1.393 . S
C1040 H1029 0.950 . S
C1040 C1038 1.391 . S
C1040 C1041 1.400 1_554 S
C1041 C1035 1.491 . S
C1041 C1040 1.400 1_556 S
C1041 C1042 1.398 . S
C1042 H1030 0.950 . S
C1042 C1041 1.398 . S
C1042 C1043 1.391 . S
C1043 H1031 0.950 . S
C1043 C1039 1.393 . S
C1043 C1042 1.391 . S
H1044 C1052 0.950 . S
H1045 C1057 0.950 . S
H1046 C1054 0.950 . S
H1047 C1056 0.950 . S
H1048 C1058 0.950 . S
H1049 C1060 0.950 . S
H1050 C1062 0.950 . S
H1051 C1063 0.950 . S
C1052 H1044 0.950 . S
C1052 C1053 1.386 . S
C1052 C1054 1.391 . S
C1053 C1052 1.386 . S
C1053 C1057 1.393 . S
C1054 H1046 0.950 . S
C1054 C1052 1.391 . S
C1054 C1055 1.400 . S
C1055 C1054 1.400 . S
C1055 C1056 1.398 . S
C1055 C1061 1.491 . S
C1056 H1047 0.950 . S
C1056 C1055 1.398 . S
C1056 C1057 1.391 . S
C1057 H1045 0.950 . S
C1057 C1053 1.393 . S
C1057 C1056 1.391 . S
C1058 H1048 0.950 . S
C1058 C1059 1.386 . S
C1058 C1060 1.391 . S
C1059 C1058 1.386 . S
C1059 C1063 1.393 . S
C1060 H1049 0.950 . S
C1060 C1058 1.391 . S
C1060 C1061 1.400 . S
C1061 C1055 1.491 . S
C1061 C1060 1.400 . S
C1061 C1062 1.398 . S
C1062 H1050 0.950 . S
C1062 C1061 1.398 . S
C1062 C1063 1.391 . S
C1063 H1051 0.950 . S
C1063 C1059 1.393 . S
C1063 C1062 1.391 . S
H1064 C1072 0.950 . S
H1065 C1077 0.950 . S
H1066 C1074 0.950 . S
H1067 C1076 0.950 . S
H1068 C1078 0.950 . S
H1069 C1080 0.950 . S
H1070 C1082 0.950 . S
H1071 C1083 0.950 . S
C1072 H1064 0.950 . S
C1072 C1073 1.386 . S
C1072 C1074 1.391 . S
C1073 C1072 1.386 . S
C1073 C1077 1.393 . S
C1074 H1066 0.950 . S
C1074 C1072 1.391 . S
C1074 C1075 1.400 . S
C1075 C1074 1.400 . S
C1075 C1076 1.398 . S
C1075 C1081 1.491 . S
C1076 H1067 0.950 . S
C1076 C1075 1.398 . S
C1076 C1077 1.391 . S
C1077 H1065 0.950 . S
C1077 C1073 1.393 . S
C1077 C1076 1.391 . S
C1078 H1068 0.950 . S
C1078 C1079 1.386 . S
C1078 C1080 1.391 . S
C1079 C1078 1.386 . S
C1079 C1083 1.393 . S
C1080 H1069 0.950 . S
C1080 C1078 1.391 . S
C1080 C1081 1.400 . S
C1081 C1075 1.491 . S
C1081 C1080 1.400 . S
C1081 C1082 1.398 . S
C1082 H1070 0.950 . S
C1082 C1081 1.398 . S
C1082 C1083 1.391 . S
C1083 H1071 0.950 . S
C1083 C1079 1.393 . S
C1083 C1082 1.391 . S
H1084 C1092 0.950 . S
H1085 C1097 0.950 . S
H1086 C1094 0.950 . S
H1087 C1096 0.950 . S
H1088 C1098 0.950 . S
H1089 C1100 0.950 . S
H1090 C1102 0.950 . S
H1091 C1103 0.950 . S
C1092 H1084 0.950 . S
C1092 C1093 1.386 . S
C1092 C1094 1.391 . S
C1093 C1092 1.386 . S
C1093 C1097 1.393 . S
C1094 H1086 0.950 . S
C1094 C1092 1.391 . S
C1094 C1095 1.400 . S
C1095 C1094 1.400 . S
C1095 C1096 1.398 . S
C1095 C1101 1.491 . S
C1096 H1087 0.950 . S
C1096 C1095 1.398 . S
C1096 C1097 1.391 . S
C1097 H1085 0.950 . S
C1097 C1093 1.393 . S
C1097 C1096 1.391 . S
C1098 H1088 0.950 . S
C1098 C1099 1.386 . S
C1098 C1100 1.391 . S
C1099 C1098 1.386 . S
C1099 C1103 1.393 . S
C1100 H1089 0.950 . S
C1100 C1098 1.391 . S
C1100 C1101 1.400 . S
C1101 C1095 1.491 . S
C1101 C1100 1.400 . S
C1101 C1102 1.398 . S
C1102 H1090 0.950 . S
C1102 C1101 1.398 . S
C1102 C1103 1.391 . S
C1103 H1091 0.950 . S
C1103 C1099 1.393 . S
C1103 C1102 1.391 . S
H1104 C1112 0.950 . S
H1105 C1117 0.950 . S
H1106 C1114 0.950 . S
H1107 C1116 0.950 . S
H1108 C1118 0.950 . S
H1109 C1120 0.950 . S
H1110 C1122 0.950 . S
H1111 C1123 0.950 . S
C1112 H1104 0.950 . S
C1112 C1113 1.386 . S
C1112 C1114 1.391 . S
C1113 C1112 1.386 . S
C1113 C1117 1.393 . S
C1114 H1106 0.950 . S
C1114 C1112 1.391 . S
C1114 C1115 1.400 . S
C1115 C1114 1.400 . S
C1115 C1116 1.398 . S
C1115 C1121 1.491 . S
C1116 H1107 0.950 . S
C1116 C1115 1.398 . S
C1116 C1117 1.391 . S
C1117 H1105 0.950 . S
C1117 C1113 1.393 . S
C1117 C1116 1.391 . S
C1118 H1108 0.950 . S
C1118 C1119 1.386 . S
C1118 C1120 1.391 . S
C1119 C1118 1.386 . S
C1119 C1123 1.393 . S
C1120 H1109 0.950 . S
C1120 C1118 1.391 . S
C1120 C1121 1.400 . S
C1121 C1115 1.491 . S
C1121 C1120 1.400 . S
C1121 C1122 1.398 . S
C1122 H1110 0.950 . S
C1122 C1121 1.398 . S
C1122 C1123 1.391 . S
C1123 H1111 0.950 . S
C1123 C1119 1.393 . S
C1123 C1122 1.391 . S
H1124 C1132 0.950 . S
H1125 C1137 0.950 . S
H1126 C1134 0.950 . S
H1127 C1136 0.950 . S
H1128 C1138 0.950 . S
H1129 C1140 0.950 . S
H1130 C1142 0.950 . S
H1131 C1143 0.950 . S
C1132 H1124 0.950 . S
C1132 C1133 1.386 . S
C1132 C1134 1.391 . S
C1133 C1132 1.386 . S
C1133 C1137 1.393 . S
C1134 H1126 0.950 . S
C1134 C1132 1.391 . S
C1134 C1135 1.400 . S
C1135 C1134 1.400 . S
C1135 C1136 1.398 . S
C1135 C1141 1.491 . S
C1136 H1127 0.950 . S
C1136 C1135 1.398 . S
C1136 C1137 1.391 . S
C1137 H1125 0.950 . S
C1137 C1133 1.393 . S
C1137 C1136 1.391 . S
C1138 H1128 0.950 . S
C1138 C1139 1.386 . S
C1138 C1140 1.391 . S
C1139 C1138 1.386 . S
C1139 C1143 1.393 . S
C1140 H1129 0.950 . S
C1140 C1138 1.391 . S
C1140 C1141 1.400 . S
C1141 C1135 1.491 . S
C1141 C1140 1.400 . S
C1141 C1142 1.398 . S
C1142 H1130 0.950 . S
C1142 C1141 1.398 . S
C1142 C1143 1.391 . S
C1143 H1131 0.950 . S
C1143 C1139 1.393 . S
C1143 C1142 1.391 . S
H1144 C1152 0.950 . S
H1145 C1157 0.950 . S
H1146 C1154 0.950 . S
H1147 C1156 0.950 . S
H1148 C1158 0.950 . S
H1149 C1160 0.950 . S
H1150 C1162 0.950 . S
H1151 C1163 0.950 . S
C1152 H1144 0.950 . S
C1152 C1153 1.386 . S
C1152 C1154 1.391 . S
C1153 C1152 1.386 . S
C1153 C1157 1.393 . S
C1154 H1146 0.950 . S
C1154 C1152 1.391 . S
C1154 C1155 1.400 . S
C1155 C1154 1.400 . S
C1155 C1156 1.398 . S
C1155 C1161 1.491 . S
C1156 H1147 0.950 . S
C1156 C1155 1.398 . S
C1156 C1157 1.391 . S
C1157 H1145 0.950 . S
C1157 C1153 1.393 . S
C1157 C1156 1.391 . S
C1158 H1148 0.950 . S
C1158 C1159 1.386 . S
C1158 C1160 1.391 . S
C1159 C1158 1.386 . S
C1159 C1163 1.393 . S
C1160 H1149 0.950 . S
C1160 C1158 1.391 . S
C1160 C1161 1.400 . S
C1161 C1155 1.491 . S
C1161 C1160 1.400 . S
C1161 C1162 1.398 . S
C1162 H1150 0.950 . S
C1162 C1161 1.398 . S
C1162 C1163 1.391 . S
C1163 H1151 0.950 . S
C1163 C1159 1.393 . S
C1163 C1162 1.391 . S
H1164 C1172 0.950 . S
H1165 C1177 0.950 . S
H1166 C1174 0.950 . S
H1167 C1176 0.950 . S
H1168 C1178 0.950 . S
H1169 C1180 0.950 . S
H1170 C1182 0.950 . S
H1171 C1183 0.950 . S
C1172 H1164 0.950 . S
C1172 C1173 1.386 . S
C1172 C1174 1.391 . S
C1173 C1172 1.386 . S
C1173 C1177 1.393 . S
C1174 H1166 0.950 . S
C1174 C1172 1.391 . S
C1174 C1175 1.400 . S
C1175 C1174 1.400 . S
C1175 C1176 1.398 . S
C1175 C1181 1.491 . S
C1176 H1167 0.950 . S
C1176 C1175 1.398 . S
C1176 C1177 1.391 . S
C1177 H1165 0.950 . S
C1177 C1173 1.393 . S
C1177 C1176 1.391 . S
C1178 H1168 0.950 . S
C1178 C1179 1.386 . S
C1178 C1180 1.391 . S
C1179 C1178 1.386 . S
C1179 C1183 1.393 . S
C1180 H1169 0.950 . S
C1180 C1178 1.391 . S
C1180 C1181 1.400 . S
C1181 C1175 1.491 . S
C1181 C1180 1.400 . S
C1181 C1182 1.398 . S
C1182 H1170 0.950 . S
C1182 C1181 1.398 . S
C1182 C1183 1.391 . S
C1183 H1171 0.950 . S
C1183 C1179 1.393 . S
C1183 C1182 1.391 . S
H1184 C1192 0.950 . S
H1185 C1197 0.950 . S
H1186 C1194 0.950 . S
H1187 C1196 0.950 . S
H1188 C1198 0.950 . S
H1189 C1200 0.950 . S
H1190 C1202 0.950 . S
H1191 C1203 0.950 . S
C1192 H1184 0.950 . S
C1192 C1193 1.386 . S
C1192 C1194 1.391 . S
C1193 C1192 1.386 . S
C1193 C1197 1.393 . S
C1194 H1186 0.950 . S
C1194 C1192 1.391 . S
C1194 C1195 1.400 . S
C1195 C1194 1.400 . S
C1195 C1196 1.398 . S
C1195 C1201 1.491 . S
C1196 H1187 0.950 . S
C1196 C1195 1.398 . S
C1196 C1197 1.391 . S
C1197 H1185 0.950 . S
C1197 C1193 1.393 . S
C1197 C1196 1.391 . S
C1198 H1188 0.950 . S
C1198 C1199 1.386 . S
C1198 C1200 1.391 . S
C1199 C1198 1.386 . S
C1199 C1203 1.393 . S
C1200 H1189 0.950 . S
C1200 C1198 1.391 . S
C1200 C1201 1.400 . S
C1201 C1195 1.491 . S
C1201 C1200 1.400 . S
C1201 C1202 1.398 . S
C1202 H1190 0.950 . S
C1202 C1201 1.398 . S
C1202 C1203 1.391 . S
C1203 H1191 0.950 . S
C1203 C1199 1.393 . S
C1203 C1202 1.391 . S
H1204 C1212 0.950 . S
H1205 C1217 0.950 . S
H1206 C1214 0.950 . S
H1207 C1216 0.950 . S
H1208 C1218 0.950 . S
H1209 C1220 0.950 . S
H1210 C1222 0.950 . S
H1211 C1223 0.950 . S
C1212 H1204 0.950 . S
C1212 C1213 1.386 . S
C1212 C1214 1.391 . S
C1213 C1212 1.386 . S
C1213 C1217 1.393 . S
C1214 H1206 0.950 . S
C1214 C1212 1.391 . S
C1214 C1215 1.400 . S
C1215 C1214 1.400 . S
C1215 C1216 1.398 . S
C1215 C1221 1.491 . S
C1216 H1207 0.950 . S
C1216 C1215 1.398 . S
C1216 C1217 1.391 . S
C1217 H1205 0.950 . S
C1217 C1213 1.393 . S
C1217 C1216 1.391 . S
C1218 H1208 0.950 . S
C1218 C1219 1.386 . S
C1218 C1220 1.391 . S
C1219 C1218 1.386 . S
C1219 C1223 1.393 . S
C1220 H1209 0.950 . S
C1220 C1218 1.391 . S
C1220 C1221 1.400 . S
C1221 C1215 1.491 . S
C1221 C1220 1.400 . S
C1221 C1222 1.398 . S
C1222 H1210 0.950 . S
C1222 C1221 1.398 . S
C1222 C1223 1.391 . S
C1223 H1211 0.950 . S
C1223 C1219 1.393 . S
C1223 C1222 1.391 . S
H1224 C1232 0.950 . S
H1225 C1237 0.950 . S
H1226 C1234 0.950 . S
H1227 C1236 0.950 . S
H1228 C1238 0.950 . S
H1229 C1240 0.950 . S
H1230 C1242 0.950 . S
H1231 C1243 0.950 . S
C1232 H1224 0.950 . S
C1232 C1233 1.386 . S
C1232 C1234 1.391 . S
C1233 C1232 1.386 . S
C1233 C1237 1.393 . S
C1234 H1226 0.950 . S
C1234 C1232 1.391 . S
C1234 C1235 1.400 . S
C1235 C1234 1.400 . S
C1235 C1236 1.398 . S
C1235 C1241 1.491 . S
C1236 H1227 0.950 . S
C1236 C1235 1.398 . S
C1236 C1237 1.391 . S
C1237 H1225 0.950 . S
C1237 C1233 1.393 . S
C1237 C1236 1.391 . S
C1238 H1228 0.950 . S
C1238 C1239 1.386 . S
C1238 C1240 1.391 . S
C1239 C1238 1.386 . S
C1239 C1243 1.393 . S
C1240 H1229 0.950 . S
C1240 C1238 1.391 . S
C1240 C1241 1.400 . S
C1241 C1235 1.491 . S
C1241 C1240 1.400 . S
C1241 C1242 1.398 . S
C1242 H1230 0.950 . S
C1242 C1241 1.398 . S
C1242 C1243 1.391 . S
C1243 H1231 0.950 . S
C1243 C1239 1.393 . S
C1243 C1242 1.391 . S
H1244 C1252 0.950 . S
H1245 C1257 0.950 . S
H1246 C1254 0.950 . S
H1247 C1256 0.950 . S
H1248 C1258 0.950 . S
H1249 C1260 0.950 . S
H1250 C1262 0.950 . S
H1251 C1263 0.950 . S
C1252 H1244 0.950 . S
C1252 C1253 1.386 . S
C1252 C1254 1.391 . S
C1253 C1252 1.386 . S
C1253 C1257 1.393 . S
C1254 H1246 0.950 . S
C1254 C1252 1.391 . S
C1254 C1255 1.400 . S
C1255 C1254 1.400 . S
C1255 C1256 1.398 . S
C1255 C1261 1.491 . S
C1256 H1247 0.950 . S
C1256 C1255 1.398 . S
C1256 C1257 1.391 . S
C1257 H1245 0.950 . S
C1257 C1253 1.393 . S
C1257 C1256 1.391 . S
C1258 H1248 0.950 . S
C1258 C1259 1.386 . S
C1258 C1260 1.391 . S
C1259 C1258 1.386 . S
C1259 C1263 1.393 . S
C1260 H1249 0.950 . S
C1260 C1258 1.391 . S
C1260 C1261 1.400 . S
C1261 C1255 1.491 . S
C1261 C1260 1.400 . S
C1261 C1262 1.398 . S
C1262 H1250 0.950 . S
C1262 C1261 1.398 . S
C1262 C1263 1.391 . S
C1263 H1251 0.950 . S
C1263 C1259 1.393 . S
C1263 C1262 1.391 . S
H1264 C1272 0.950 . S
H1265 C1277 0.950 . S
H1266 C1274 0.950 . S
H1267 C1276 0.950 . S
H1268 C1278 0.950 . S
H1269 C1280 0.950 . S
H1270 C1282 0.950 . S
H1271 C1283 0.950 . S
C1272 H1264 0.950 . S
C1272 C1273 1.386 . S
C1272 C1274 1.391 . S
C1273 C1272 1.386 . S
C1273 C1277 1.393 . S
C1274 H1266 0.950 . S
C1274 C1272 1.391 . S
C1274 C1275 1.400 . S
C1275 C1274 1.400 . S
C1275 C1276 1.398 . S
C1275 C1281 1.491 . S
C1276 H1267 0.950 . S
C1276 C1275 1.398 . S
C1276 C1277 1.391 . S
C1277 H1265 0.950 . S
C1277 C1273 1.393 . S
C1277 C1276 1.391 . S
C1278 H1268 0.950 . S
C1278 C1279 1.386 . S
C1278 C1280 1.391 . S
C1279 C1278 1.386 . S
C1279 C1283 1.393 . S
C1280 H1269 0.950 . S
C1280 C1278 1.391 . S
C1280 C1281 1.400 . S
C1281 C1275 1.491 . S
C1281 C1280 1.400 . S
C1281 C1282 1.398 . S
C1282 H1270 0.950 . S
C1282 C1281 1.398 . S
C1282 C1283 1.391 . S
C1283 H1271 0.950 . S
C1283 C1279 1.393 . S
C1283 C1282 1.391 . S
H1284 C1292 0.950 . S
H1285 C1297 0.950 . S
H1286 C1294 0.950 . S
H1287 C1296 0.950 . S
H1288 C1298 0.950 . S
H1289 C1300 0.950 . S
H1290 C1302 0.950 . S
H1291 C1303 0.950 . S
C1292 H1284 0.950 . S
C1292 C1293 1.386 . S
C1292 C1294 1.391 . S
C1293 C1292 1.386 . S
C1293 C1297 1.393 . S
C1294 H1286 0.950 . S
C1294 C1292 1.391 . S
C1294 C1295 1.400 . S
C1295 C1294 1.400 . S
C1295 C1296 1.398 . S
C1295 C1301 1.491 . S
C1296 H1287 0.950 . S
C1296 C1295 1.398 . S
C1296 C1297 1.391 . S
C1297 H1285 0.950 . S
C1297 C1293 1.393 . S
C1297 C1296 1.391 . S
C1298 H1288 0.950 . S
C1298 C1299 1.386 . S
C1298 C1300 1.391 . S
C1299 C1298 1.386 . S
C1299 C1303 1.393 . S
C1300 H1289 0.950 . S
C1300 C1298 1.391 . S
C1300 C1301 1.400 . S
C1301 C1295 1.491 . S
C1301 C1300 1.400 . S
C1301 C1302 1.398 . S
C1302 H1290 0.950 . S
C1302 C1301 1.398 . S
C1302 C1303 1.391 . S
C1303 H1291 0.950 . S
C1303 C1299 1.393 . S
C1303 C1302 1.391 . S
H1304 C1312 0.950 . S
H1305 C1317 0.950 . S
H1306 C1314 0.950 . S
H1307 C1316 0.950 . S
H1308 C1318 0.950 . S
H1309 C1320 0.950 . S
H1310 C1322 0.950 . S
H1311 C1323 0.950 . S
C1312 H1304 0.950 . S
C1312 C1313 1.386 . S
C1312 C1314 1.391 . S
C1313 C1312 1.386 . S
C1313 C1317 1.393 . S
C1314 H1306 0.950 . S
C1314 C1312 1.391 . S
C1314 C1315 1.400 . S
C1315 C1314 1.400 . S
C1315 C1316 1.398 . S
C1315 C1321 1.491 . S
C1316 H1307 0.950 . S
C1316 C1315 1.398 . S
C1316 C1317 1.391 . S
C1317 H1305 0.950 . S
C1317 C1313 1.393 . S
C1317 C1316 1.391 . S
C1318 H1308 0.950 . S
C1318 C1319 1.386 . S
C1318 C1320 1.391 . S
C1319 C1318 1.386 . S
C1319 C1323 1.393 . S
C1320 H1309 0.950 . S
C1320 C1318 1.391 . S
C1320 C1321 1.400 . S
C1321 C1315 1.491 . S
C1321 C1320 1.400 . S
C1321 C1322 1.398 . S
C1322 H1310 0.950 . S
C1322 C1321 1.398 . S
C1322 C1323 1.391 . S
C1323 H1311 0.950 . S
C1323 C1319 1.393 . S
C1323 C1322 1.391 . S
H1324 C1332 0.950 . S
H1325 C1337 0.950 . S
H1326 C1334 0.950 . S
H1327 C1336 0.950 . S
H1328 C1338 0.950 . S
H1329 C1340 0.950 . S
H1330 C1342 0.950 . S
H1331 C1343 0.950 . S
C1332 H1324 0.950 . S
C1332 C1333 1.386 . S
C1332 C1334 1.391 . S
C1333 C1332 1.386 . S
C1333 C1337 1.393 . S
C1334 H1326 0.950 . S
C1334 C1332 1.391 . S
C1334 C1335 1.400 . S
C1335 C1334 1.400 . S
C1335 C1336 1.398 . S
C1335 C1341 1.491 . S
C1336 H1327 0.950 . S
C1336 C1335 1.398 . S
C1336 C1337 1.391 . S
C1337 H1325 0.950 . S
C1337 C1333 1.393 . S
C1337 C1336 1.391 . S
C1338 H1328 0.950 . S
C1338 C1339 1.386 . S
C1338 C1340 1.391 . S
C1339 C1338 1.386 . S
C1339 C1343 1.393 . S
C1340 H1329 0.950 . S
C1340 C1338 1.391 . S
C1340 C1341 1.400 . S
C1341 C1335 1.491 . S
C1341 C1340 1.400 . S
C1341 C1342 1.398 . S
C1342 H1330 0.950 . S
C1342 C1341 1.398 . S
C1342 C1343 1.391 . S
C1343 H1331 0.950 . S
C1343 C1339 1.393 . S
C1343 C1342 1.391 . S
H1344 C1352 0.950 . S
H1345 C1357 0.950 . S
H1346 C1354 0.950 . S
H1347 C1356 0.950 . S
H1348 C1358 0.950 . S
H1349 C1360 0.950 . S
H1350 C1362 0.950 . S
H1351 C1363 0.950 . S
C1352 H1344 0.950 . S
C1352 C1353 1.386 . S
C1352 C1354 1.391 . S
C1353 C1352 1.386 . S
C1353 C1357 1.393 . S
C1354 H1346 0.950 . S
C1354 C1352 1.391 . S
C1354 C1355 1.400 . S
C1355 C1354 1.400 . S
C1355 C1356 1.398 . S
C1355 C1361 1.491 . S
C1356 H1347 0.950 . S
C1356 C1355 1.398 . S
C1356 C1357 1.391 . S
C1357 H1345 0.950 . S
C1357 C1353 1.393 . S
C1357 C1356 1.391 . S
C1358 H1348 0.950 . S
C1358 C1359 1.386 . S
C1358 C1360 1.391 . S
C1359 C1358 1.386 . S
C1359 C1363 1.393 . S
C1360 H1349 0.950 . S
C1360 C1358 1.391 . S
C1360 C1361 1.400 . S
C1361 C1355 1.491 . S
C1361 C1360 1.400 . S
C1361 C1362 1.398 . S
C1362 H1350 0.950 . S
C1362 C1361 1.398 . S
C1362 C1363 1.391 . S
C1363 H1351 0.950 . S
C1363 C1359 1.393 . S
C1363 C1362 1.391 . S
H1364 C1372 0.950 . S
H1365 C1377 0.950 . S
H1366 C1374 0.950 . S
H1367 C1376 0.950 . S
H1368 C1378 0.950 . S
H1369 C1380 0.950 . S
H1370 C1382 0.950 . S
H1371 C1383 0.950 . S
C1372 H1364 0.950 . S
C1372 C1373 1.386 . S
C1372 C1374 1.391 . S
C1373 C1372 1.386 . S
C1373 C1377 1.393 . S
C1374 H1366 0.950 . S
C1374 C1372 1.391 . S
C1374 C1375 1.400 . S
C1375 C1374 1.400 . S
C1375 C1376 1.398 . S
C1375 C1381 1.491 . S
C1376 H1367 0.950 . S
C1376 C1375 1.398 . S
C1376 C1377 1.391 . S
C1377 H1365 0.950 . S
C1377 C1373 1.393 . S
C1377 C1376 1.391 . S
C1378 H1368 0.950 . S
C1378 C1379 1.386 . S
C1378 C1380 1.391 . S
C1379 C1378 1.386 . S
C1379 C1383 1.393 . S
C1380 H1369 0.950 . S
C1380 C1378 1.391 . S
C1380 C1381 1.400 . S
C1381 C1375 1.491 . S
C1381 C1380 1.400 . S
C1381 C1382 1.398 . S
C1382 H1370 0.950 . S
C1382 C1381 1.398 . S
C1382 C1383 1.391 . S
C1383 H1371 0.950 . S
C1383 C1379 1.393 . S
C1383 C1382 1.391 . S
H1384 C1392 0.950 . S
H1385 C1397 0.950 . S
H1386 C1394 0.950 . S
H1387 C1396 0.950 . S
H1388 C1398 0.950 . S
H1389 C1400 0.950 . S
H1390 C1402 0.950 . S
H1391 C1403 0.950 . S
C1392 H1384 0.950 . S
C1392 C1393 1.386 . S
C1392 C1394 1.391 . S
C1393 C1392 1.386 . S
C1393 C1397 1.393 . S
C1394 H1386 0.950 . S
C1394 C1392 1.391 . S
C1394 C1395 1.400 . S
C1395 C1394 1.400 . S
C1395 C1396 1.398 . S
C1395 C1401 1.491 . S
C1396 H1387 0.950 . S
C1396 C1395 1.398 . S
C1396 C1397 1.391 . S
C1397 H1385 0.950 . S
C1397 C1393 1.393 . S
C1397 C1396 1.391 . S
C1398 H1388 0.950 . S
C1398 C1399 1.386 . S
C1398 C1400 1.391 . S
C1399 C1398 1.386 . S
C1399 C1403 1.393 . S
C1400 H1389 0.950 . S
C1400 C1398 1.391 . S
C1400 C1401 1.400 . S
C1401 C1395 1.491 . S
C1401 C1400 1.400 . S
C1401 C1402 1.398 . S
C1402 H1390 0.950 . S
C1402 C1401 1.398 . S
C1402 C1403 1.391 . S
C1403 H1391 0.950 . S
C1403 C1399 1.393 . S
C1403 C1402 1.391 . S
H1404 C1412 0.950 . S
H1405 C1417 0.950 . S
H1406 C1414 0.950 . S
H1407 C1416 0.950 . S
H1408 C1418 0.950 . S
H1409 C1420 0.950 . S
H1410 C1422 0.950 . S
H1411 C1423 0.950 . S
C1412 H1404 0.950 . S
C1412 C1413 1.386 . S
C1412 C1414 1.391 . S
C1413 C1412 1.386 . S
C1413 C1417 1.393 . S
C1414 H1406 0.950 . S
C1414 C1412 1.391 . S
C1414 C1415 1.400 . S
C1415 C1414 1.400 . S
C1415 C1416 1.398 . S
C1415 C1421 1.491 . S
C1416 H1407 0.950 . S
C1416 C1415 1.398 . S
C1416 C1417 1.391 . S
C1417 H1405 0.950 . S
C1417 C1413 1.393 . S
C1417 C1416 1.391 . S
C1418 H1408 0.950 . S
C1418 C1419 1.386 . S
C1418 C1420 1.391 . S
C1419 C1418 1.386 . S
C1419 C1423 1.393 . S
C1420 H1409 0.950 . S
C1420 C1418 1.391 . S
C1420 C1421 1.400 . S
C1421 C1415 1.491 . S
C1421 C1420 1.400 . S
C1421 C1422 1.398 . S
C1422 H1410 0.950 . S
C1422 C1421 1.398 . S
C1422 C1423 1.391 . S
C1423 H1411 0.950 . S
C1423 C1419 1.393 . S
C1423 C1422 1.391 . S
H1424 C1432 0.950 . S
H1425 C1437 0.950 . S
H1426 C1434 0.950 . S
H1427 C1436 0.950 . S
H1428 C1438 0.950 . S
H1429 C1440 0.950 . S
H1430 C1442 0.950 . S
H1431 C1443 0.950 . S
C1432 H1424 0.950 . S
C1432 C1433 1.386 . S
C1432 C1434 1.391 . S
C1433 C1432 1.386 . S
C1433 C1437 1.393 . S
C1434 H1426 0.950 . S
C1434 C1432 1.391 . S
C1434 C1435 1.400 . S
C1435 C1434 1.400 . S
C1435 C1436 1.398 . S
C1435 C1441 1.491 . S
C1436 H1427 0.950 . S
C1436 C1435 1.398 . S
C1436 C1437 1.391 . S
C1437 H1425 0.950 . S
C1437 C1433 1.393 . S
C1437 C1436 1.391 . S
C1438 H1428 0.950 . S
C1438 C1439 1.386 . S
C1438 C1440 1.391 . S
C1439 C1438 1.386 . S
C1439 C1443 1.393 . S
C1440 H1429 0.950 . S
C1440 C1438 1.391 . S
C1440 C1441 1.400 . S
C1441 C1435 1.491 . S
C1441 C1440 1.400 . S
C1441 C1442 1.398 . S
C1442 H1430 0.950 . S
C1442 C1441 1.398 . S
C1442 C1443 1.391 . S
C1443 H1431 0.950 . S
C1443 C1439 1.393 . S
C1443 C1442 1.391 . S
H1444 C1452 0.950 . S
H1445 C1457 0.950 . S
H1446 C1454 0.950 . S
H1447 C1456 0.950 . S
H1448 C1458 0.950 . S
H1449 C1460 0.950 . S
H1450 C1462 0.950 . S
H1451 C1463 0.950 . S
C1452 H1444 0.950 . S
C1452 C1453 1.386 . S
C1452 C1454 1.391 . S
C1453 C1452 1.386 . S
C1453 C1457 1.393 . S
C1454 H1446 0.950 . S
C1454 C1452 1.391 . S
C1454 C1455 1.400 . S
C1455 C1454 1.400 . S
C1455 C1456 1.398 . S
C1455 C1461 1.491 . S
C1456 H1447 0.950 . S
C1456 C1455 1.398 . S
C1456 C1457 1.391 . S
C1457 H1445 0.950 . S
C1457 C1453 1.393 . S
C1457 C1456 1.391 . S
C1458 H1448 0.950 . S
C1458 C1459 1.386 . S
C1458 C1460 1.391 . S
C1459 C1458 1.386 . S
C1459 C1463 1.393 . S
C1460 H1449 0.950 . S
C1460 C1458 1.391 . S
C1460 C1461 1.400 . S
C1461 C1455 1.491 . S
C1461 C1460 1.400 . S
C1461 C1462 1.398 . S
C1462 H1450 0.950 . S
C1462 C1461 1.398 . S
C1462 C1463 1.391 . S
C1463 H1451 0.950 . S
C1463 C1459 1.393 . S
C1463 C1462 1.391 . S
H1464 C1472 0.950 . S
H1465 C1477 0.950 . S
H1466 C1474 0.950 . S
H1467 C1476 0.950 . S
H1468 C1478 0.950 . S
H1469 C1480 0.950 . S
H1470 C1482 0.950 . S
H1471 C1483 0.950 . S
C1472 H1464 0.950 . S
C1472 C1473 1.386 . S
C1472 C1474 1.391 . S
C1473 C1472 1.386 . S
C1473 C1477 1.393 . S
C1474 H1466 0.950 . S
C1474 C1472 1.391 . S
C1474 C1475 1.400 . S
C1475 C1474 1.400 . S
C1475 C1476 1.398 . S
C1475 C1481 1.491 . S
C1476 H1467 0.950 . S
C1476 C1475 1.398 . S
C1476 C1477 1.391 . S
C1477 H1465 0.950 . S
C1477 C1473 1.393 . S
C1477 C1476 1.391 . S
C1478 H1468 0.950 . S
C1478 C1479 1.386 . S
C1478 C1480 1.391 . S
C1479 C1478 1.386 . S
C1479 C1483 1.393 . S
C1480 H1469 0.950 . S
C1480 C1478 1.391 . S
C1480 C1481 1.400 . S
C1481 C1475 1.491 . S
C1481 C1480 1.400 . S
C1481 C1482 1.398 . S
C1482 H1470 0.950 . S
C1482 C1481 1.398 . S
C1482 C1483 1.391 . S
C1483 H1471 0.950 . S
C1483 C1479 1.393 . S
C1483 C1482 1.391 . S
H1484 C1492 0.950 . S
H1485 C1497 0.950 . S
H1486 C1494 0.950 . S
H1487 C1496 0.950 . S
H1488 C1498 0.950 . S
H1489 C1500 0.950 . S
H1490 C1502 0.950 . S
H1491 C1503 0.950 . S
C1492 H1484 0.950 . S
C1492 C1493 1.386 . S
C1492 C1494 1.391 . S
C1493 C1492 1.386 . S
C1493 C1497 1.393 . S
C1494 H1486 0.950 . S
C1494 C1492 1.391 . S
C1494 C1495 1.400 . S
C1495 C1494 1.400 . S
C1495 C1496 1.398 . S
C1495 C1501 1.491 . S
C1496 H1487 0.950 . S
C1496 C1495 1.398 . S
C1496 C1497 1.391 . S
C1497 H1485 0.950 . S
C1497 C1493 1.393 . S
C1497 C1496 1.391 . S
C1498 H1488 0.950 . S
C1498 C1499 1.386 . S
C1498 C1500 1.391 . S
C1499 C1498 1.386 . S
C1499 C1503 1.393 . S
C1500 H1489 0.950 . S
C1500 C1498 1.391 . S
C1500 C1501 1.400 . S
C1501 C1495 1.491 . S
C1501 C1500 1.400 . S
C1501 C1502 1.398 . S
C1502 H1490 0.950 . S
C1502 C1501 1.398 . S
C1502 C1503 1.391 . S
C1503 H1491 0.950 . S
C1503 C1499 1.393 . S
C1503 C1502 1.391 . S
H1504 C1512 0.950 . S
H1505 C1517 0.950 . S
H1506 C1514 0.950 . S
H1507 C1516 0.950 . S
H1508 C1518 0.950 . S
H1509 C1520 0.950 . S
H1510 C1522 0.950 . S
H1511 C1523 0.950 . S
C1512 H1504 0.950 . S
C1512 C1513 1.386 . S
C1512 C1514 1.391 . S
C1513 C1512 1.386 . S
C1513 C1517 1.393 . S
C1514 H1506 0.950 . S
C1514 C1512 1.391 . S
C1514 C1515 1.400 . S
C1515 C1514 1.400 . S
C1515 C1516 1.398 . S
C1515 C1521 1.491 . S
C1516 H1507 0.950 . S
C1516 C1515 1.398 . S
C1516 C1517 1.391 . S
C1517 H1505 0.950 . S
C1517 C1513 1.393 . S
C1517 C1516 1.391 . S
C1518 H1508 0.950 . S
C1518 C1519 1.386 . S
C1518 C1520 1.391 . S
C1519 C1518 1.386 . S
C1519 C1523 1.393 . S
C1520 H1509 0.950 . S
C1520 C1518 1.391 . S
C1520 C1521 1.400 . S
C1521 C1515 1.491 . S
C1521 C1520 1.400 . S
C1521 C1522 1.398 . S
C1522 H1510 0.950 . S
C1522 C1521 1.398 . S
C1522 C1523 1.391 . S
C1523 H1511 0.950 . S
C1523 C1519 1.393 . S
C1523 C1522 1.391 . S
H1524 C1532 0.950 . S
H1525 C1537 0.950 . S
H1526 C1534 0.950 . S
H1527 C1536 0.950 . S
H1528 C1538 0.950 . S
H1529 C1540 0.950 . S
H1530 C1542 0.950 . S
H1531 C1543 0.950 . S
C1532 H1524 0.950 . S
C1532 C1533 1.386 . S
C1532 C1534 1.391 . S
C1533 C1532 1.386 . S
C1533 C1537 1.393 . S
C1534 H1526 0.950 . S
C1534 C1532 1.391 . S
C1534 C1535 1.400 . S
C1535 C1534 1.400 . S
C1535 C1536 1.398 . S
C1535 C1541 1.491 . S
C1536 H1527 0.950 . S
C1536 C1535 1.398 . S
C1536 C1537 1.391 . S
C1537 H1525 0.950 . S
C1537 C1533 1.393 . S
C1537 C1536 1.391 . S
C1538 H1528 0.950 . S
C1538 C1539 1.386 . S
C1538 C1540 1.391 . S
C1539 C1538 1.386 . S
C1539 C1543 1.393 . S
C1540 H1529 0.950 . S
C1540 C1538 1.391 . S
C1540 C1541 1.400 . S
C1541 C1535 1.491 . S
C1541 C1540 1.400 . S
C1541 C1542 1.398 . S
C1542 H1530 0.950 . S
C1542 C1541 1.398 . S
C1542 C1543 1.391 . S
C1543 H1531 0.950 . S
C1543 C1539 1.393 . S
C1543 C1542 1.391 . S
H1544 C1552 0.950 . S
H1545 C1557 0.950 . S
H1546 C1554 0.950 . S
H1547 C1556 0.950 . S
H1548 C1558 0.950 . S
H1549 C1560 0.950 . S
H1550 C1562 0.950 . S
H1551 C1563 0.950 . S
C1552 H1544 0.950 . S
C1552 C1553 1.386 . S
C1552 C1554 1.391 . S
C1553 C1552 1.386 . S
C1553 C1557 1.393 . S
C1554 H1546 0.950 . S
C1554 C1552 1.391 . S
C1554 C1555 1.400 . S
C1555 C1554 1.400 . S
C1555 C1556 1.398 . S
C1555 C1561 1.491 . S
C1556 H1547 0.950 . S
C1556 C1555 1.398 . S
C1556 C1557 1.391 . S
C1557 H1545 0.950 . S
C1557 C1553 1.393 . S
C1557 C1556 1.391 . S
C1558 H1548 0.950 . S
C1558 C1559 1.386 . S
C1558 C1560 1.391 . S
C1559 C1558 1.386 . S
C1559 C1563 1.393 . S
C1560 H1549 0.950 . S
C1560 C1558 1.391 . S
C1560 C1561 1.400 . S
C1561 C1555 1.491 . S
C1561 C1560 1.400 . S
C1561 C1562 1.398 . S
C1562 H1550 0.950 . S
C1562 C1561 1.398 . S
C1562 C1563 1.391 . S
C1563 H1551 0.950 . S
C1563 C1559 1.393 . S
C1563 C1562 1.391 . S
H1564 C1572 0.950 . S
H1565 C1577 0.950 . S
H1566 C1574 0.950 . S
H1567 C1576 0.950 . S
H1568 C1578 0.950 . S
H1569 C1580 0.950 . S
H1570 C1582 0.950 . S
H1571 C1583 0.950 . S
C1572 H1564 0.950 . S
C1572 C1573 1.386 . S
C1572 C1574 1.391 . S
C1573 C1572 1.386 . S
C1573 C1577 1.393 . S
C1574 H1566 0.950 . S
C1574 C1572 1.391 . S
C1574 C1575 1.400 . S
C1575 C1574 1.400 . S
C1575 C1576 1.398 . S
C1575 C1581 1.491 . S
C1576 H1567 0.950 . S
C1576 C1575 1.398 . S
C1576 C1577 1.391 . S
C1577 H1565 0.950 . S
C1577 C1573 1.393 . S
C1577 C1576 1.391 . S
C1578 H1568 0.950 . S
C1578 C1579 1.386 . S
C1578 C1580 1.391 . S
C1579 C1578 1.386 . S
C1579 C1583 1.393 . S
C1580 H1569 0.950 . S
C1580 C1578 1.391 . S
C1580 C1581 1.400 . S
C1581 C1575 1.491 . S
C1581 C1580 1.400 . S
C1581 C1582 1.398 . S
C1582 H1570 0.950 . S
C1582 C1581 1.398 . S
C1582 C1583 1.391 . S
C1583 H1571 0.950 . S
C1583 C1579 1.393 . S
C1583 C1582 1.391 . S
H1584 C1592 0.950 . S
H1585 C1597 0.950 . S
H1586 C1594 0.950 . S
H1587 C1596 0.950 . S
H1588 C1598 0.950 . S
H1589 C1600 0.950 . S
H1590 C1602 0.950 . S
H1591 C1603 0.950 . S
C1592 H1584 0.950 . S
C1592 C1593 1.386 . S
C1592 C1594 1.391 . S
C1593 C1592 1.386 . S
C1593 C1597 1.393 . S
C1594 H1586 0.950 . S
C1594 C1592 1.391 . S
C1594 C1595 1.400 . S
C1595 C1594 1.400 . S
C1595 C1596 1.398 . S
C1595 C1601 1.491 . S
C1596 H1587 0.950 . S
C1596 C1595 1.398 . S
C1596 C1597 1.391 . S
C1597 H1585 0.950 . S
C1597 C1593 1.393 . S
C1597 C1596 1.391 . S
C1598 H1588 0.950 . S
C1598 C1599 1.386 . S
C1598 C1600 1.391 . S
C1599 C1598 1.386 . S
C1599 C1603 1.393 . S
C1600 H1589 0.950 . S
C1600 C1598 1.391 . S
C1600 C1601 1.400 . S
C1601 C1595 1.491 . S
C1601 C1600 1.400 . S
C1601 C1602 1.398 . S
C1602 H1590 0.950 . S
C1602 C1601 1.398 . S
C1602 C1603 1.391 . S
C1603 H1591 0.950 . S
C1603 C1599 1.393 . S
C1603 C1602 1.391 . S
H1604 C1612 0.950 . S
H1605 C1617 0.950 . S
H1606 C1614 0.950 . S
H1607 C1616 0.950 . S
H1608 C1618 0.950 . S
H1609 C1620 0.950 . S
H1610 C1622 0.950 . S
H1611 C1623 0.950 . S
C1612 H1604 0.950 . S
C1612 C1613 1.386 1_565 S
C1612 C1614 1.391 . S
C1613 C1612 1.386 1_545 S
C1613 C1617 1.393 . S
C1614 H1606 0.950 . S
C1614 C1612 1.391 . S
C1614 C1615 1.400 1_565 S
C1615 C1614 1.400 1_545 S
C1615 C1616 1.398 . S
C1615 C1621 1.491 1_545 S
C1616 H1607 0.950 . S
C1616 C1615 1.398 . S
C1616 C1617 1.391 . S
C1617 H1605 0.950 . S
C1617 C1613 1.393 . S
C1617 C1616 1.391 . S
C1618 H1608 0.950 . S
C1618 C1619 1.386 1_545 S
C1618 C1620 1.391 . S
C1619 C1618 1.386 1_565 S
C1619 C1623 1.393 . S
C1620 H1609 0.950 . S
C1620 C1618 1.391 . S
C1620 C1621 1.400 1_545 S
C1621 C1615 1.491 1_565 S
C1621 C1620 1.400 1_565 S
C1621 C1622 1.398 . S
C1622 H1610 0.950 . S
C1622 C1621 1.398 . S
C1622 C1623 1.391 . S
C1623 H1611 0.950 . S
C1623 C1619 1.393 . S
C1623 C1622 1.391 . S
H1624 C1632 0.950 . S
H1625 C1637 0.950 . S
H1626 C1634 0.950 . S
H1627 C1636 0.950 . S
H1628 C1638 0.950 . S
H1629 C1640 0.950 . S
H1630 C1642 0.950 . S
H1631 C1643 0.950 . S
C1632 H1624 0.950 . S
C1632 C1633 1.386 . S
C1632 C1634 1.391 . S
C1633 C1632 1.386 . S
C1633 C1637 1.393 1_455 S
C1634 H1626 0.950 . S
C1634 C1632 1.391 . S
C1634 C1635 1.400 . S
C1635 C1634 1.400 . S
C1635 C1636 1.398 1_455 S
C1635 C1641 1.491 1_455 S
C1636 H1627 0.950 . S
C1636 C1635 1.398 1_655 S
C1636 C1637 1.391 . S
C1637 H1625 0.950 . S
C1637 C1633 1.393 1_655 S
C1637 C1636 1.391 . S
C1638 H1628 0.950 . S
C1638 C1639 1.386 . S
C1638 C1640 1.391 . S
C1639 C1638 1.386 . S
C1639 C1643 1.393 1_655 S
C1640 H1629 0.950 . S
C1640 C1638 1.391 . S
C1640 C1641 1.400 . S
C1641 C1635 1.491 1_655 S
C1641 C1640 1.400 . S
C1641 C1642 1.398 1_655 S
C1642 H1630 0.950 . S
C1642 C1641 1.398 1_455 S
C1642 C1643 1.391 . S
C1643 H1631 0.950 . S
C1643 C1639 1.393 1_455 S
C1643 C1642 1.391 . S
H1644 C1652 0.950 . S
H1645 C1657 0.950 . S
H1646 C1654 0.950 . S
H1647 C1656 0.950 . S
H1648 C1658 0.950 . S
H1649 C1660 0.950 . S
H1650 C1662 0.950 . S
H1651 C1663 0.950 . S
C1652 H1644 0.950 . S
C1652 C1653 1.386 . S
C1652 C1654 1.391 . S
C1653 C1652 1.386 . S
C1653 C1657 1.393 . S
C1654 H1646 0.950 . S
C1654 C1652 1.391 . S
C1654 C1655 1.400 . S
C1655 C1654 1.400 . S
C1655 C1656 1.398 . S
C1655 C1661 1.491 . S
C1656 H1647 0.950 . S
C1656 C1655 1.398 . S
C1656 C1657 1.391 . S
C1657 H1645 0.950 . S
C1657 C1653 1.393 . S
C1657 C1656 1.391 . S
C1658 H1648 0.950 . S
C1658 C1659 1.386 . S
C1658 C1660 1.391 . S
C1659 C1658 1.386 . S
C1659 C1663 1.393 . S
C1660 H1649 0.950 . S
C1660 C1658 1.391 . S
C1660 C1661 1.400 . S
C1661 C1655 1.491 . S
C1661 C1660 1.400 . S
C1661 C1662 1.398 . S
C1662 H1650 0.950 . S
C1662 C1661 1.398 . S
C1662 C1663 1.391 . S
C1663 H1651 0.950 . S
C1663 C1659 1.393 . S
C1663 C1662 1.391 . S
H1664 C1672 0.950 . S
H1665 C1677 0.950 . S
H1666 C1674 0.950 . S
H1667 C1676 0.950 . S
H1668 C1678 0.950 . S
H1669 C1680 0.950 . S
H1670 C1682 0.950 . S
H1671 C1683 0.950 . S
C1672 H1664 0.950 . S
C1672 C1673 1.386 1_565 S
C1672 C1674 1.391 . S
C1673 C1672 1.386 1_545 S
C1673 C1677 1.393 . S
C1674 H1666 0.950 . S
C1674 C1672 1.391 . S
C1674 C1675 1.400 1_565 S
C1675 C1674 1.400 1_545 S
C1675 C1676 1.398 . S
C1675 C1681 1.491 1_545 S
C1676 H1667 0.950 . S
C1676 C1675 1.398 . S
C1676 C1677 1.391 . S
C1677 H1665 0.950 . S
C1677 C1673 1.393 . S
C1677 C1676 1.391 . S
C1678 H1668 0.950 . S
C1678 C1679 1.386 1_545 S
C1678 C1680 1.391 . S
C1679 C1678 1.386 1_565 S
C1679 C1683 1.393 . S
C1680 H1669 0.950 . S
C1680 C1678 1.391 . S
C1680 C1681 1.400 1_545 S
C1681 C1675 1.491 1_565 S
C1681 C1680 1.400 1_565 S
C1681 C1682 1.398 . S
C1682 H1670 0.950 . S
C1682 C1681 1.398 . S
C1682 C1683 1.391 . S
C1683 H1671 0.950 . S
C1683 C1679 1.393 . S
C1683 C1682 1.391 . S
H1684 C1692 0.950 . S
H1685 C1697 0.950 . S
H1686 C1694 0.950 . S
H1687 C1696 0.950 . S
H1688 C1698 0.950 . S
H1689 C1700 0.950 . S
H1690 C1702 0.950 . S
H1691 C1703 0.950 . S
C1692 H1684 0.950 . S
C1692 C1693 1.386 . S
C1692 C1694 1.391 . S
C1693 C1692 1.386 . S
C1693 C1697 1.393 1_655 S
C1694 H1686 0.950 . S
C1694 C1692 1.391 . S
C1694 C1695 1.400 . S
C1695 C1694 1.400 . S
C1695 C1696 1.398 1_655 S
C1695 C1701 1.491 1_655 S
C1696 H1687 0.950 . S
C1696 C1695 1.398 1_455 S
C1696 C1697 1.391 . S
C1697 H1685 0.950 . S
C1697 C1693 1.393 1_455 S
C1697 C1696 1.391 . S
C1698 H1688 0.950 . S
C1698 C1699 1.386 . S
C1698 C1700 1.391 . S
C1699 C1698 1.386 . S
C1699 C1703 1.393 1_455 S
C1700 H1689 0.950 . S
C1700 C1698 1.391 . S
C1700 C1701 1.400 . S
C1701 C1695 1.491 1_455 S
C1701 C1700 1.400 . S
C1701 C1702 1.398 1_455 S
C1702 H1690 0.950 . S
C1702 C1701 1.398 1_655 S
C1702 C1703 1.391 . S
C1703 H1691 0.950 . S
C1703 C1699 1.393 1_655 S
C1703 C1702 1.391 . S
H1704 C1712 0.950 . S
H1705 C1717 0.950 . S
H1706 C1714 0.950 . S
H1707 C1716 0.950 . S
H1708 C1718 0.950 . S
H1709 C1720 0.950 . S
H1710 C1722 0.950 . S
H1711 C1723 0.950 . S
C1712 H1704 0.950 . S
C1712 C1713 1.386 . S
C1712 C1714 1.391 . S
C1713 C1712 1.386 . S
C1713 C1717 1.393 . S
C1714 H1706 0.950 . S
C1714 C1712 1.391 . S
C1714 C1715 1.400 . S
C1715 C1714 1.400 . S
C1715 C1716 1.398 . S
C1715 C1721 1.491 . S
C1716 H1707 0.950 . S
C1716 C1715 1.398 . S
C1716 C1717 1.391 . S
C1717 H1705 0.950 . S
C1717 C1713 1.393 . S
C1717 C1716 1.391 . S
C1718 H1708 0.950 . S
C1718 C1719 1.386 . S
C1718 C1720 1.391 . S
C1719 C1718 1.386 . S
C1719 C1723 1.393 . S
C1720 H1709 0.950 . S
C1720 C1718 1.391 . S
C1720 C1721 1.400 . S
C1721 C1715 1.491 . S
C1721 C1720 1.400 . S
C1721 C1722 1.398 . S
C1722 H1710 0.950 . S
C1722 C1721 1.398 . S
C1722 C1723 1.391 . S
C1723 H1711 0.950 . S
C1723 C1719 1.393 . S
C1723 C1722 1.391 . S
H1724 C1732 0.950 . S
H1725 C1737 0.950 . S
H1726 C1734 0.950 . S
H1727 C1736 0.950 . S
H1728 C1738 0.950 . S
H1729 C1740 0.950 . S
H1730 C1742 0.950 . S
H1731 C1743 0.950 . S
C1732 H1724 0.950 . S
C1732 C1733 1.386 . S
C1732 C1734 1.391 . S
C1733 C1732 1.386 . S
C1733 C1737 1.393 . S
C1734 H1726 0.950 . S
C1734 C1732 1.391 . S
C1734 C1735 1.400 . S
C1735 C1734 1.400 . S
C1735 C1736 1.398 . S
C1735 C1741 1.491 . S
C1736 H1727 0.950 . S
C1736 C1735 1.398 . S
C1736 C1737 1.391 . S
C1737 H1725 0.950 . S
C1737 C1733 1.393 . S
C1737 C1736 1.391 . S
C1738 H1728 0.950 . S
C1738 C1739 1.386 . S
C1738 C1740 1.391 . S
C1739 C1738 1.386 . S
C1739 C1743 1.393 . S
C1740 H1729 0.950 . S
C1740 C1738 1.391 . S
C1740 C1741 1.400 . S
C1741 C1735 1.491 . S
C1741 C1740 1.400 . S
C1741 C1742 1.398 . S
C1742 H1730 0.950 . S
C1742 C1741 1.398 . S
C1742 C1743 1.391 . S
C1743 H1731 0.950 . S
C1743 C1739 1.393 . S
C1743 C1742 1.391 . S
H1744 C1752 0.950 . S
H1745 C1757 0.950 . S
H1746 C1754 0.950 . S
H1747 C1756 0.950 . S
H1748 C1758 0.950 . S
H1749 C1760 0.950 . S
H1750 C1762 0.950 . S
H1751 C1763 0.950 . S
C1752 H1744 0.950 . S
C1752 C1753 1.386 . S
C1752 C1754 1.391 . S
C1753 C1752 1.386 . S
C1753 C1757 1.393 . S
C1754 H1746 0.950 . S
C1754 C1752 1.391 . S
C1754 C1755 1.400 . S
C1755 C1754 1.400 . S
C1755 C1756 1.398 . S
C1755 C1761 1.491 . S
C1756 H1747 0.950 . S
C1756 C1755 1.398 . S
C1756 C1757 1.391 . S
C1757 H1745 0.950 . S
C1757 C1753 1.393 . S
C1757 C1756 1.391 . S
C1758 H1748 0.950 . S
C1758 C1759 1.386 . S
C1758 C1760 1.391 . S
C1759 C1758 1.386 . S
C1759 C1763 1.393 . S
C1760 H1749 0.950 . S
C1760 C1758 1.391 . S
C1760 C1761 1.400 . S
C1761 C1755 1.491 . S
C1761 C1760 1.400 . S
C1761 C1762 1.398 . S
C1762 H1750 0.950 . S
C1762 C1761 1.398 . S
C1762 C1763 1.391 . S
C1763 H1751 0.950 . S
C1763 C1759 1.393 . S
C1763 C1762 1.391 . S
H1764 C1772 0.950 . S
H1765 C1777 0.950 . S
H1766 C1774 0.950 . S
H1767 C1776 0.950 . S
H1768 C1778 0.950 1_556 S
H1769 C1780 0.950 . S
H1770 C1782 0.950 . S
H1771 C1783 0.950 1_556 S
C1772 H1764 0.950 . S
C1772 C1773 1.386 . S
C1772 C1774 1.391 . S
C1773 C1772 1.386 . S
C1773 C1777 1.393 . S
C1774 H1766 0.950 . S
C1774 C1772 1.391 . S
C1774 C1775 1.400 . S
C1775 C1774 1.400 . S
C1775 C1776 1.398 . S
C1775 C1781 1.491 . S
C1776 H1767 0.950 . S
C1776 C1775 1.398 . S
C1776 C1777 1.391 . S
C1777 H1765 0.950 . S
C1777 C1773 1.393 . S
C1777 C1776 1.391 . S
C1778 H1768 0.950 1_554 S
C1778 C1779 1.386 1_554 S
C1778 C1780 1.391 . S
C1779 C1778 1.386 1_556 S
C1779 C1783 1.393 1_556 S
C1780 H1769 0.950 . S
C1780 C1778 1.391 . S
C1780 C1781 1.400 . S
C1781 C1775 1.491 . S
C1781 C1780 1.400 . S
C1781 C1782 1.398 . S
C1782 H1770 0.950 . S
C1782 C1781 1.398 . S
C1782 C1783 1.391 . S
C1783 H1771 0.950 1_554 S
C1783 C1779 1.393 1_554 S
C1783 C1782 1.391 . S
H1784 C1792 0.950 . S
H1785 C1797 0.950 . S
H1786 C1794 0.950 . S
H1787 C1796 0.950 . S
H1788 C1798 0.950 1_556 S
H1789 C1800 0.950 . S
H1790 C1802 0.950 . S
H1791 C1803 0.950 1_556 S
C1792 H1784 0.950 . S
C1792 C1793 1.386 . S
C1792 C1794 1.391 . S
C1793 C1792 1.386 . S
C1793 C1797 1.393 . S
C1794 H1786 0.950 . S
C1794 C1792 1.391 . S
C1794 C1795 1.400 . S
C1795 C1794 1.400 . S
C1795 C1796 1.398 . S
C1795 C1801 1.491 . S
C1796 H1787 0.950 . S
C1796 C1795 1.398 . S
C1796 C1797 1.391 . S
C1797 H1785 0.950 . S
C1797 C1793 1.393 . S
C1797 C1796 1.391 . S
C1798 H1788 0.950 1_554 S
C1798 C1799 1.386 1_554 S
C1798 C1800 1.391 . S
C1799 C1798 1.386 1_556 S
C1799 C1803 1.393 1_556 S
C1800 H1789 0.950 . S
C1800 C1798 1.391 . S
C1800 C1801 1.400 . S
C1801 C1795 1.491 . S
C1801 C1800 1.400 . S
C1801 C1802 1.398 . S
C1802 H1790 0.950 . S
C1802 C1801 1.398 . S
C1802 C1803 1.391 . S
C1803 H1791 0.950 1_554 S
C1803 C1799 1.393 1_554 S
C1803 C1802 1.391 . S
H1804 C1812 0.950 . S
H1805 C1817 0.950 . S
H1806 C1814 0.950 . S
H1807 C1816 0.950 . S
H1808 C1818 0.950 1_556 S
H1809 C1820 0.950 . S
H1810 C1822 0.950 . S
H1811 C1823 0.950 . S
C1812 H1804 0.950 . S
C1812 C1813 1.386 . S
C1812 C1814 1.391 . S
C1813 C1812 1.386 . S
C1813 C1817 1.393 . S
C1814 H1806 0.950 . S
C1814 C1812 1.391 . S
C1814 C1815 1.400 . S
C1815 C1814 1.400 . S
C1815 C1816 1.398 . S
C1815 C1821 1.491 . S
C1816 H1807 0.950 . S
C1816 C1815 1.398 . S
C1816 C1817 1.391 . S
C1817 H1805 0.950 . S
C1817 C1813 1.393 . S
C1817 C1816 1.391 . S
C1818 H1808 0.950 1_554 S
C1818 C1819 1.386 1_554 S
C1818 C1820 1.391 . S
C1819 C1818 1.386 1_556 S
C1819 C1823 1.393 1_556 S
C1820 H1809 0.950 . S
C1820 C1818 1.391 . S
C1820 C1821 1.400 . S
C1821 C1815 1.491 . S
C1821 C1820 1.400 . S
C1821 C1822 1.398 . S
C1822 H1810 0.950 . S
C1822 C1821 1.398 . S
C1822 C1823 1.391 . S
C1823 H1811 0.950 . S
C1823 C1819 1.393 1_554 S
C1823 C1822 1.391 . S
H1824 C1832 0.950 1_554 S
H1825 C1837 0.950 . S
H1826 C1834 0.950 . S
H1827 C1836 0.950 . S
H1828 C1838 0.950 . S
H1829 C1840 0.950 . S
H1830 C1842 0.950 . S
H1831 C1843 0.950 . S
C1832 H1824 0.950 1_556 S
C1832 C1833 1.386 1_556 S
C1832 C1834 1.391 . S
C1833 C1832 1.386 1_554 S
C1833 C1837 1.393 1_554 S
C1834 H1826 0.950 . S
C1834 C1832 1.391 . S
C1834 C1835 1.400 . S
C1835 C1834 1.400 . S
C1835 C1836 1.398 . S
C1835 C1841 1.491 . S
C1836 H1827 0.950 . S
C1836 C1835 1.398 . S
C1836 C1837 1.391 . S
C1837 H1825 0.950 . S
C1837 C1833 1.393 1_556 S
C1837 C1836 1.391 . S
C1838 H1828 0.950 . S
C1838 C1839 1.386 . S
C1838 C1840 1.391 . S
C1839 C1838 1.386 . S
C1839 C1843 1.393 . S
C1840 H1829 0.950 . S
C1840 C1838 1.391 . S
C1840 C1841 1.400 . S
C1841 C1835 1.491 . S
C1841 C1840 1.400 . S
C1841 C1842 1.398 . S
C1842 H1830 0.950 . S
C1842 C1841 1.398 . S
C1842 C1843 1.391 . S
C1843 H1831 0.950 . S
C1843 C1839 1.393 . S
C1843 C1842 1.391 . S
H1844 C1852 0.950 1_554 S
H1845 C1857 0.950 . S
H1846 C1854 0.950 . S
H1847 C1856 0.950 . S
H1848 C1858 0.950 . S
H1849 C1860 0.950 . S
H1850 C1862 0.950 . S
H1851 C1863 0.950 . S
C1852 H1844 0.950 1_556 S
C1852 C1853 1.386 1_556 S
C1852 C1854 1.391 . S
C1853 C1852 1.386 1_554 S
C1853 C1857 1.393 1_554 S
C1854 H1846 0.950 . S
C1854 C1852 1.391 . S
C1854 C1855 1.400 . S
C1855 C1854 1.400 . S
C1855 C1856 1.398 . S
C1855 C1861 1.491 . S
C1856 H1847 0.950 . S
C1856 C1855 1.398 . S
C1856 C1857 1.391 . S
C1857 H1845 0.950 . S
C1857 C1853 1.393 1_556 S
C1857 C1856 1.391 . S
C1858 H1848 0.950 . S
C1858 C1859 1.386 . S
C1858 C1860 1.391 . S
C1859 C1858 1.386 . S
C1859 C1863 1.393 . S
C1860 H1849 0.950 . S
C1860 C1858 1.391 . S
C1860 C1861 1.400 . S
C1861 C1855 1.491 . S
C1861 C1860 1.400 . S
C1861 C1862 1.398 . S
C1862 H1850 0.950 . S
C1862 C1861 1.398 . S
C1862 C1863 1.391 . S
C1863 H1851 0.950 . S
C1863 C1859 1.393 . S
C1863 C1862 1.391 . S
H1864 C1872 0.942 1_554 S
H1865 C1877 0.950 1_554 S
H1866 C1874 0.950 . S
H1867 C1876 0.950 . S
H1868 C1878 0.950 . S
H1869 C1880 0.950 . S
H1870 C1882 0.950 . S
H1871 C1883 0.950 . S
C1872 H1864 0.942 1_556 S
C1872 C1873 1.386 1_556 S
C1872 C1874 1.391 . S
C1873 C1872 1.386 1_554 S
C1873 C1877 1.393 1_554 S
C1874 H1866 0.950 . S
C1874 C1872 1.391 . S
C1874 C1875 1.400 . S
C1875 C1874 1.400 . S
C1875 C1876 1.398 . S
C1875 C1881 1.491 . S
C1876 H1867 0.950 . S
C1876 C1875 1.398 . S
C1876 C1877 1.391 . S
C1877 H1865 0.950 1_556 S
C1877 C1873 1.393 1_556 S
C1877 C1876 1.391 . S
C1878 H1868 0.950 . S
C1878 C1879 1.386 . S
C1878 C1880 1.391 . S
C1879 C1878 1.386 . S
C1879 C1883 1.393 . S
C1880 H1869 0.950 . S
C1880 C1878 1.391 . S
C1880 C1881 1.400 . S
C1881 C1875 1.491 . S
C1881 C1880 1.400 . S
C1881 C1882 1.398 . S
C1882 H1870 0.950 . S
C1882 C1881 1.398 . S
C1882 C1883 1.391 . S
C1883 H1871 0.950 . S
C1883 C1879 1.393 . S
C1883 C1882 1.391 . S
H1884 C1892 0.950 . S
H1885 C1897 0.950 . S
H1886 C1894 0.950 . S
H1887 C1896 0.950 . S
H1888 C1898 0.950 . S
H1889 C1900 0.950 . S
H1890 C1902 0.950 . S
H1891 C1903 0.950 . S
C1892 H1884 0.950 . S
C1892 C1893 1.386 . S
C1892 C1894 1.391 . S
C1893 C1892 1.386 . S
C1893 C1897 1.393 . S
C1894 H1886 0.950 . S
C1894 C1892 1.391 . S
C1894 C1895 1.400 . S
C1895 C1894 1.400 . S
C1895 C1896 1.398 . S
C1895 C1901 1.491 . S
C1896 H1887 0.950 . S
C1896 C1895 1.398 . S
C1896 C1897 1.391 . S
C1897 H1885 0.950 . S
C1897 C1893 1.393 . S
C1897 C1896 1.391 . S
C1898 H1888 0.950 . S
C1898 C1899 1.386 . S
C1898 C1900 1.391 . S
C1899 C1898 1.386 . S
C1899 C1903 1.393 . S
C1900 H1889 0.950 . S
C1900 C1898 1.391 . S
C1900 C1901 1.400 . S
C1901 C1895 1.491 . S
C1901 C1900 1.400 . S
C1901 C1902 1.398 . S
C1902 H1890 0.950 . S
C1902 C1901 1.398 . S
C1902 C1903 1.391 . S
C1903 H1891 0.950 . S
C1903 C1899 1.393 . S
C1903 C1902 1.391 . S
H1904 C1912 0.950 . S
H1905 C1917 0.950 . S
H1906 C1914 0.950 . S
H1907 C1916 0.950 . S
H1908 C1918 0.950 . S
H1909 C1920 0.950 . S
H1910 C1922 0.950 . S
H1911 C1923 0.950 . S
C1912 H1904 0.950 . S
C1912 C1913 1.386 . S
C1912 C1914 1.391 . S
C1913 C1912 1.386 . S
C1913 C1917 1.393 . S
C1914 H1906 0.950 . S
C1914 C1912 1.391 . S
C1914 C1915 1.400 . S
C1915 C1914 1.400 . S
C1915 C1916 1.398 . S
C1915 C1921 1.491 . S
C1916 H1907 0.950 . S
C1916 C1915 1.398 . S
C1916 C1917 1.391 . S
C1917 H1905 0.950 . S
C1917 C1913 1.393 . S
C1917 C1916 1.391 . S
C1918 H1908 0.950 . S
C1918 C1919 1.386 . S
C1918 C1920 1.391 . S
C1919 C1918 1.386 . S
C1919 C1923 1.393 . S
C1920 H1909 0.950 . S
C1920 C1918 1.391 . S
C1920 C1921 1.400 . S
C1921 C1915 1.491 . S
C1921 C1920 1.400 . S
C1921 C1922 1.398 . S
C1922 H1910 0.950 . S
C1922 C1921 1.398 . S
C1922 C1923 1.391 . S
C1923 H1911 0.950 . S
C1923 C1919 1.393 . S
C1923 C1922 1.391 . S
H1924 C1932 0.950 . S
H1925 C1937 0.950 . S
H1926 C1934 0.950 . S
H1927 C1936 0.950 . S
H1928 C1938 0.950 . S
H1929 C1940 0.950 . S
H1930 C1942 0.950 . S
H1931 C1943 0.950 . S
C1932 H1924 0.950 . S
C1932 C1933 1.386 . S
C1932 C1934 1.391 . S
C1933 C1932 1.386 . S
C1933 C1937 1.393 . S
C1934 H1926 0.950 . S
C1934 C1932 1.391 . S
C1934 C1935 1.400 . S
C1935 C1934 1.400 . S
C1935 C1936 1.398 . S
C1935 C1941 1.491 . S
C1936 H1927 0.950 . S
C1936 C1935 1.398 . S
C1936 C1937 1.391 . S
C1937 H1925 0.950 . S
C1937 C1933 1.393 . S
C1937 C1936 1.391 . S
C1938 H1928 0.950 . S
C1938 C1939 1.386 . S
C1938 C1940 1.391 . S
C1939 C1938 1.386 . S
C1939 C1943 1.393 . S
C1940 H1929 0.950 . S
C1940 C1938 1.391 . S
C1940 C1941 1.400 . S
C1941 C1935 1.491 . S
C1941 C1940 1.400 . S
C1941 C1942 1.398 . S
C1942 H1930 0.950 . S
C1942 C1941 1.398 . S
C1942 C1943 1.391 . S
C1943 H1931 0.950 . S
C1943 C1939 1.393 . S
C1943 C1942 1.391 . S
C513 C232 1.128 . S
C519 C8 1.121 . S
C533 C246 1.120 . S
C539 C22 1.122 . S
C553 C36 1.127 . S
C559 C218 1.120 . S
C573 C372 1.119 . S
C579 C50 1.124 . S
C593 C344 1.125 . S
C599 C64 1.129 . S
C613 C78 1.124 . S
C619 C358 1.129 . S
C633 C484 1.128 . S
C639 C92 1.126 . S
C653 C498 1.120 . S
C659 C106 1.122 . S
C673 C470 1.124 . S
C679 C120 1.119 . S
C693 C288 1.120 . S
C699 C134 1.122 . S
C713 C148 1.128 . S
C719 C260 1.126 . S
C733 C274 1.125 . S
C739 C162 1.119 . S
C753 C400 1.124 . S
C759 C176 1.119 . S
C773 C190 1.127 . S
C779 C414 1.120 . S
C793 C386 1.123 . S
C799 C204 1.129 . S
C813 C456 1.124 . S
C819 C302 1.119 . S
C833 C428 1.127 . S
C839 C316 1.120 . S
C853 C330 1.128 . S
C859 C442 1.122 . S
C873 C101 1.560 . S
C879 C7 1.550 . S
C893 C115 1.560 . S
C899 C21 1.550 . S
C913 C87 1.562 . S
C919 C35 1.544 . S
C933 C49 1.552 . S
C939 C157 1.560 . S
C953 C129 1.564 . S
C959 C63 1.540 . S
C973 C77 1.540 . S
C979 C143 1.564 . S
C993 C17 1.562 . S
C999 C91 1.544 . S
C1013 C105 1.547 . S
C1019 C31 1.561 . S
C1033 C3 1.559 . S
C1039 C119 1.553 . S
C1053 C73 1.560 . S
C1059 C133 1.551 . S
C1073 C45 1.560 . S
C1079 C147 1.550 . S
C1093 C161 1.552 . S
C1099 C59 1.559 . S
C1113 C175 1.553 . S
C1119 C269 1.559 . S
C1133 C283 1.560 . S
C1139 C189 1.551 . S
C1153 C255 1.559 . S
C1159 C203 1.552 . S
C1173 C217 1.540 . S
C1179 C325 1.564 . S
C1193 C297 1.561 . S
C1199 C231 1.545 . S
C1213 C245 1.545 . S
C1219 C311 1.562 . S
C1233 C259 1.549 . S
C1239 C185 1.561 . S
C1253 C273 1.550 . S
C1259 C199 1.560 . S
C1273 C171 1.563 . S
C1279 C287 1.540 . S
C1293 C241 1.563 . S
C1299 C301 1.544 . S
C1313 C213 1.559 . S
C1319 C315 1.552 . S
C1333 C329 1.540 . S
C1339 C227 1.564 . S
C1353 C437 1.563 . S
C1359 C343 1.542 . S
C1373 C357 1.553 . S
C1379 C451 1.559 . S
C1393 C371 1.541 . S
C1399 C423 1.563 . S
C1413 C493 1.561 . S
C1419 C385 1.548 . S
C1433 C399 1.548 . S
C1439 C465 1.561 . S
C1453 C479 1.559 . S
C1459 C413 1.552 . S
C1473 C353 1.564 . S
C1479 C427 1.540 . S
C1493 C367 1.559 . S
C1499 C441 1.553 . S
C1513 C455 1.548 . S
C1519 C339 1.561 . S
C1533 C469 1.540 . S
C1539 C409 1.564 . S
C1553 C381 1.559 . S
C1559 C483 1.553 . S
C1573 C395 1.560 . S
C1579 C497 1.551 . S
C1593 C9 1.567 . S
C1599 C51 1.557 . S
C1613 C23 1.561 . S
C1619 C65 1.570 . S
C1633 C79 1.569 . S
C1639 C37 1.557 . S
C1653 C93 1.565 . S
C1659 C135 1.568 . S
C1673 C149 1.570 . S
C1679 C107 1.558 . S
C1693 C163 1.557 . S
C1699 C121 1.569 . S
C1713 C177 1.560 . S
C1719 C219 1.570 . S
C1733 C191 1.568 . S
C1739 C233 1.564 . S
C1753 C247 1.560 . S
C1759 C205 1.561 . S
C1773 C261 1.562 . S
C1779 C303 1.559 . S
C1793 C275 1.559 . S
C1799 C317 1.562 . S
C1813 C289 1.570 . S
C1819 C331 1.561 . S
C1833 C387 1.557 . S
C1839 C345 1.570 . S
C1853 C401 1.559 . S
C1859 C359 1.570 . S
C1873 C415 1.569 . S
C1879 C373 1.563 . S
C1893 C429 1.569 . S
C1899 C471 1.557 . S
C1913 C485 1.567 . S
C1919 C443 1.565 . S
C1933 C499 1.570 . S
C1939 C457 1.558 . S
