# Generated by pormake.
# Topology ict, (4)-cn, num edge types: 1
# Building blocks:
#     Node 0, Type 0, BuildingBlock: CEKHIL_clean_sbu_0, # of connection points: 4
#     Node 1, Type 0, BuildingBlock: CEKHIL_clean_sbu_0, # of connection points: 4
#     Node 2, Type 0, BuildingBlock: CEKHIL_clean_sbu_0, # of connection points: 4
#     Node 3, Type 0, BuildingBlock: CEKHIL_clean_sbu_0, # of connection points: 4
#     Node 4, Type 0, BuildingBlock: CEKHIL_clean_sbu_0, # of connection points: 4
#     Node 5, Type 0, BuildingBlock: CEKHIL_clean_sbu_0, # of connection points: 4
#     Node 6, Type 0, BuildingBlock: CEKHIL_clean_sbu_0, # of connection points: 4
#     Node 7, Type 0, BuildingBlock: CEKHIL_clean_sbu_0, # of connection points: 4
#     Node 8, Type 0, BuildingBlock: CEKHIL_clean_sbu_0, # of connection points: 4
#     Node 9, Type 0, BuildingBlock: CEKHIL_clean_sbu_0, # of connection points: 4
#     Node 10, Type 0, BuildingBlock: CEKHIL_clean_sbu_0, # of connection points: 4
#     Node 11, Type 0, BuildingBlock: CEKHIL_clean_sbu_0, # of connection points: 4
#     Node 12, Type 0, BuildingBlock: CEKHIL_clean_sbu_0, # of connection points: 4
#     Node 13, Type 0, BuildingBlock: CEKHIL_clean_sbu_0, # of connection points: 4
#     Node 14, Type 0, BuildingBlock: CEKHIL_clean_sbu_0, # of connection points: 4
#     Node 15, Type 0, BuildingBlock: CEKHIL_clean_sbu_0, # of connection points: 4
#     Node 16, Type 0, BuildingBlock: CEKHIL_clean_sbu_0, # of connection points: 4
#     Node 17, Type 0, BuildingBlock: CEKHIL_clean_sbu_0, # of connection points: 4
#     Node 18, Type 0, BuildingBlock: CEKHIL_clean_sbu_0, # of connection points: 4
#     Node 19, Type 0, BuildingBlock: CEKHIL_clean_sbu_0, # of connection points: 4
#     Node 20, Type 0, BuildingBlock: CEKHIL_clean_sbu_0, # of connection points: 4
#     Node 21, Type 0, BuildingBlock: CEKHIL_clean_sbu_0, # of connection points: 4
#     Node 22, Type 0, BuildingBlock: CEKHIL_clean_sbu_0, # of connection points: 4
#     Node 23, Type 0, BuildingBlock: CEKHIL_clean_sbu_0, # of connection points: 4
#     Node 24, Type 0, BuildingBlock: CEKHIL_clean_sbu_0, # of connection points: 4
#     Node 25, Type 0, BuildingBlock: CEKHIL_clean_sbu_0, # of connection points: 4
#     Node 26, Type 0, BuildingBlock: CEKHIL_clean_sbu_0, # of connection points: 4
#     Node 27, Type 0, BuildingBlock: CEKHIL_clean_sbu_0, # of connection points: 4
#     Node 28, Type 0, BuildingBlock: CEKHIL_clean_sbu_0, # of connection points: 4
#     Node 29, Type 0, BuildingBlock: CEKHIL_clean_sbu_0, # of connection points: 4
#     Node 30, Type 0, BuildingBlock: CEKHIL_clean_sbu_0, # of connection points: 4
#     Node 31, Type 0, BuildingBlock: CEKHIL_clean_sbu_0, # of connection points: 4
#     Node 32, Type 0, BuildingBlock: CEKHIL_clean_sbu_0, # of connection points: 4
#     Node 33, Type 0, BuildingBlock: CEKHIL_clean_sbu_0, # of connection points: 4
#     Node 34, Type 0, BuildingBlock: CEKHIL_clean_sbu_0, # of connection points: 4
#     Node 35, Type 0, BuildingBlock: CEKHIL_clean_sbu_0, # of connection points: 4
#     Edge 36, Type (0, 0), BuildingBlock: XUDNAN_clean_linker_2, # of connection points: 2
#     Edge 37, Type (0, 0), BuildingBlock: XUDNAN_clean_linker_2, # of connection points: 2
#     Edge 38, Type (0, 0), BuildingBlock: XUDNAN_clean_linker_2, # of connection points: 2
#     Edge 39, Type (0, 0), BuildingBlock: XUDNAN_clean_linker_2, # of connection points: 2
#     Edge 40, Type (0, 0), BuildingBlock: XUDNAN_clean_linker_2, # of connection points: 2
#     Edge 41, Type (0, 0), BuildingBlock: XUDNAN_clean_linker_2, # of connection points: 2
#     Edge 42, Type (0, 0), BuildingBlock: XUDNAN_clean_linker_2, # of connection points: 2
#     Edge 43, Type (0, 0), BuildingBlock: XUDNAN_clean_linker_2, # of connection points: 2
#     Edge 44, Type (0, 0), BuildingBlock: XUDNAN_clean_linker_2, # of connection points: 2
#     Edge 45, Type (0, 0), BuildingBlock: XUDNAN_clean_linker_2, # of connection points: 2
#     Edge 46, Type (0, 0), BuildingBlock: XUDNAN_clean_linker_2, # of connection points: 2
#     Edge 47, Type (0, 0), BuildingBlock: XUDNAN_clean_linker_2, # of connection points: 2
#     Edge 48, Type (0, 0), BuildingBlock: XUDNAN_clean_linker_2, # of connection points: 2
#     Edge 49, Type (0, 0), BuildingBlock: XUDNAN_clean_linker_2, # of connection points: 2
#     Edge 50, Type (0, 0), BuildingBlock: XUDNAN_clean_linker_2, # of connection points: 2
#     Edge 51, Type (0, 0), BuildingBlock: XUDNAN_clean_linker_2, # of connection points: 2
#     Edge 52, Type (0, 0), BuildingBlock: XUDNAN_clean_linker_2, # of connection points: 2
#     Edge 53, Type (0, 0), BuildingBlock: XUDNAN_clean_linker_2, # of connection points: 2
#     Edge 54, Type (0, 0), BuildingBlock: XUDNAN_clean_linker_2, # of connection points: 2
#     Edge 55, Type (0, 0), BuildingBlock: XUDNAN_clean_linker_2, # of connection points: 2
#     Edge 56, Type (0, 0), BuildingBlock: XUDNAN_clean_linker_2, # of connection points: 2
#     Edge 57, Type (0, 0), BuildingBlock: XUDNAN_clean_linker_2, # of connection points: 2
#     Edge 58, Type (0, 0), BuildingBlock: XUDNAN_clean_linker_2, # of connection points: 2
#     Edge 59, Type (0, 0), BuildingBlock: XUDNAN_clean_linker_2, # of connection points: 2
#     Edge 60, Type (0, 0), BuildingBlock: XUDNAN_clean_linker_2, # of connection points: 2
#     Edge 61, Type (0, 0), BuildingBlock: XUDNAN_clean_linker_2, # of connection points: 2
#     Edge 62, Type (0, 0), BuildingBlock: XUDNAN_clean_linker_2, # of connection points: 2
#     Edge 63, Type (0, 0), BuildingBlock: XUDNAN_clean_linker_2, # of connection points: 2
#     Edge 64, Type (0, 0), BuildingBlock: XUDNAN_clean_linker_2, # of connection points: 2
#     Edge 65, Type (0, 0), BuildingBlock: XUDNAN_clean_linker_2, # of connection points: 2
#     Edge 66, Type (0, 0), BuildingBlock: XUDNAN_clean_linker_2, # of connection points: 2
#     Edge 67, Type (0, 0), BuildingBlock: XUDNAN_clean_linker_2, # of connection points: 2
#     Edge 68, Type (0, 0), BuildingBlock: XUDNAN_clean_linker_2, # of connection points: 2
#     Edge 69, Type (0, 0), BuildingBlock: XUDNAN_clean_linker_2, # of connection points: 2
#     Edge 70, Type (0, 0), BuildingBlock: XUDNAN_clean_linker_2, # of connection points: 2
#     Edge 71, Type (0, 0), BuildingBlock: XUDNAN_clean_linker_2, # of connection points: 2
#     Edge 72, Type (0, 0), BuildingBlock: XUDNAN_clean_linker_2, # of connection points: 2
#     Edge 73, Type (0, 0), BuildingBlock: XUDNAN_clean_linker_2, # of connection points: 2
#     Edge 74, Type (0, 0), BuildingBlock: XUDNAN_clean_linker_2, # of connection points: 2
#     Edge 75, Type (0, 0), BuildingBlock: XUDNAN_clean_linker_2, # of connection points: 2
#     Edge 76, Type (0, 0), BuildingBlock: XUDNAN_clean_linker_2, # of connection points: 2
#     Edge 77, Type (0, 0), BuildingBlock: XUDNAN_clean_linker_2, # of connection points: 2
#     Edge 78, Type (0, 0), BuildingBlock: XUDNAN_clean_linker_2, # of connection points: 2
#     Edge 79, Type (0, 0), BuildingBlock: XUDNAN_clean_linker_2, # of connection points: 2
#     Edge 80, Type (0, 0), BuildingBlock: XUDNAN_clean_linker_2, # of connection points: 2
#     Edge 81, Type (0, 0), BuildingBlock: XUDNAN_clean_linker_2, # of connection points: 2
#     Edge 82, Type (0, 0), BuildingBlock: XUDNAN_clean_linker_2, # of connection points: 2
#     Edge 83, Type (0, 0), BuildingBlock: XUDNAN_clean_linker_2, # of connection points: 2
#     Edge 84, Type (0, 0), BuildingBlock: XUDNAN_clean_linker_2, # of connection points: 2
#     Edge 85, Type (0, 0), BuildingBlock: XUDNAN_clean_linker_2, # of connection points: 2
#     Edge 86, Type (0, 0), BuildingBlock: XUDNAN_clean_linker_2, # of connection points: 2
#     Edge 87, Type (0, 0), BuildingBlock: XUDNAN_clean_linker_2, # of connection points: 2
#     Edge 88, Type (0, 0), BuildingBlock: XUDNAN_clean_linker_2, # of connection points: 2
#     Edge 89, Type (0, 0), BuildingBlock: XUDNAN_clean_linker_2, # of connection points: 2
#     Edge 90, Type (0, 0), BuildingBlock: XUDNAN_clean_linker_2, # of connection points: 2
#     Edge 91, Type (0, 0), BuildingBlock: XUDNAN_clean_linker_2, # of connection points: 2
#     Edge 92, Type (0, 0), BuildingBlock: XUDNAN_clean_linker_2, # of connection points: 2
#     Edge 93, Type (0, 0), BuildingBlock: XUDNAN_clean_linker_2, # of connection points: 2
#     Edge 94, Type (0, 0), BuildingBlock: XUDNAN_clean_linker_2, # of connection points: 2
#     Edge 95, Type (0, 0), BuildingBlock: XUDNAN_clean_linker_2, # of connection points: 2
#     Edge 96, Type (0, 0), BuildingBlock: XUDNAN_clean_linker_2, # of connection points: 2
#     Edge 97, Type (0, 0), BuildingBlock: XUDNAN_clean_linker_2, # of connection points: 2
#     Edge 98, Type (0, 0), BuildingBlock: XUDNAN_clean_linker_2, # of connection points: 2
#     Edge 99, Type (0, 0), BuildingBlock: XUDNAN_clean_linker_2, # of connection points: 2
#     Edge 100, Type (0, 0), BuildingBlock: XUDNAN_clean_linker_2, # of connection points: 2
#     Edge 101, Type (0, 0), BuildingBlock: XUDNAN_clean_linker_2, # of connection points: 2
#     Edge 102, Type (0, 0), BuildingBlock: XUDNAN_clean_linker_2, # of connection points: 2
#     Edge 103, Type (0, 0), BuildingBlock: XUDNAN_clean_linker_2, # of connection points: 2
#     Edge 104, Type (0, 0), BuildingBlock: XUDNAN_clean_linker_2, # of connection points: 2
#     Edge 105, Type (0, 0), BuildingBlock: XUDNAN_clean_linker_2, # of connection points: 2
#     Edge 106, Type (0, 0), BuildingBlock: XUDNAN_clean_linker_2, # of connection points: 2
#     Edge 107, Type (0, 0), BuildingBlock: XUDNAN_clean_linker_2, # of connection points: 2
# Relax obj value: 0.096
# Max RMSD: 0.121
# Mean RMSD: 0.121
data_MOF--net-ict--node1-CEKHIL_clean_sbu_0--edge1-XUDNAN_clean_linker_2
_symmetry_space_group_name_H-M    P1
_symmetry_Int_Tables_number       1
_symmetry_cell_setting            triclinic
loop_
_symmetry_equiv_pos_as_xyz
'x, y, z'
_cell_length_a     64.294676
_cell_length_b     64.307576
_cell_length_c     36.91877
_cell_angle_alpha  90.016894
_cell_angle_beta   89.981383
_cell_angle_gamma 120.03007
loop_
_atom_site_label
_atom_site_type_symbol
_atom_site_fract_x
_atom_site_fract_y
_atom_site_fract_z
_atom_type_partial_charge
Co0 Co 0.23391 0.21526 0.04332 0.0
O1 O 0.24626 0.22302 0.99421 0.0
O2 O 0.26795 0.23696 0.04417 0.0
C3 C 0.20152 0.21979 0.03533 0.0
O4 O 0.22855 0.21307 0.0983 0.0
Co5 Co 0.18431 0.17128 0.0621 0.0
O6 O 0.19137 0.18363 0.11239 0.0
C7 C 0.22385 0.16402 0.03762 0.0
C8 C 0.2672 0.23638 0.00902 0.0
C9 C 0.21172 0.20118 0.12152 0.0
O10 O 0.23897 0.18651 0.04265 0.0
O11 O 0.20112 0.15514 0.04057 0.0
O12 O 0.22259 0.23855 0.04047 0.0
O13 O 0.20115 0.19965 0.03206 0.0
Co14 Co 0.7809 0.01441 0.04286 0.0
O15 O 0.77554 0.01568 0.99213 0.0
O16 O 0.76124 0.02928 0.03469 0.0
C17 C 0.77301 0.97593 0.04162 0.0
O18 O 0.78236 0.01484 0.09857 0.0
Co19 Co 0.82254 0.00609 0.06671 0.0
O20 O 0.80882 0.00339 0.11557 0.0
C21 C 0.83337 0.05263 0.03553 0.0
C22 C 0.76316 0.02585 1.00033 0.0
C23 C 0.79308 0.00925 0.12311 0.0
O24 O 0.81119 0.04683 0.03919 0.0
O25 O 0.84094 0.03796 0.04184 0.0
O26 O 0.75551 0.98047 0.04426 0.0
O27 O 0.79402 0.9945 0.03739 0.0
Co28 Co 0.99218 0.77107 0.04047 0.0
O29 O 0.98724 0.75705 0.99247 0.0
O30 O 0.97466 0.73662 0.04373 0.0
C31 C 0.03136 0.79882 0.03255 0.0
O32 O 0.99435 0.77798 0.0949 0.0
Co33 Co 0.00664 0.82398 0.05521 0.0
O34 O 0.009 0.81709 0.10691 0.0
C35 C 0.95942 0.79002 0.0237 0.0
C36 C 0.97607 0.73632 0.00865 0.0
C37 C 1.00162 0.79563 0.11733 0.0
O38 O 0.9614 0.77215 0.03501 0.0
O39 O 0.97655 0.81182 0.02577 0.0
O40 O 0.02525 0.77686 0.04117 0.0
O41 O 0.0138 0.80274 0.02725 0.0
Co42 Co 0.21734 0.22905 0.46629 0.0
O43 O 0.22331 0.23618 0.51674 0.0
O44 O 0.23739 0.26368 0.47358 0.0
C45 C 0.22511 0.19847 0.4677 0.0
O46 O 0.21528 0.2273 0.4107 0.0
Co47 Co 0.17506 0.179 0.4445 0.0
O48 O 0.18919 0.18889 0.39559 0.0
C49 C 0.16504 0.21538 0.47487 0.0
C50 C 0.23589 0.25862 0.50803 0.0
C51 C 0.20475 0.21037 0.38699 0.0
O52 O 0.18727 0.23146 0.47052 0.0
O53 O 0.15705 0.193 0.46912 0.0
O54 O 0.24259 0.22048 0.46439 0.0
O55 O 0.20415 0.19604 0.47266 0.0
Co56 Co 0.76374 0.98854 0.46594 0.0
O57 O 0.75026 0.98235 0.51431 0.0
O58 O 0.7293 0.97295 0.46339 0.0
C59 C 0.7932 0.02666 0.47636 0.0
O60 O 0.77034 0.99268 0.41137 0.0
Co61 Co 0.81562 1.00007 0.44964 0.0
O62 O 0.80943 0.00696 0.39971 0.0
C63 C 0.77903 0.95124 0.47247 0.0
C64 C 0.72939 0.97285 0.49859 0.0
C65 C 0.78825 1.00089 0.38928 0.0
O66 O 0.76238 0.95643 0.4667 0.0
O67 O 0.80142 0.96682 0.47016 0.0
O68 O 0.77153 0.02214 0.46908 0.0
O69 O 0.79582 0.00812 0.47945 0.0
Co70 Co 0.01225 0.77941 0.46107 0.0
O71 O 0.01674 0.7703 0.50918 0.0
O72 O 0.02677 0.75955 0.45808 0.0
C73 C 0.97434 0.77182 0.47002 0.0
O74 O 0.00976 0.78385 0.40659 0.0
Co75 Co 0.00303 0.8215 0.44666 0.0
O76 O 0.99848 0.81111 0.39533 0.0
C77 C 0.05063 0.83114 0.47177 0.0
C78 C 0.02594 0.75873 0.49326 0.0
C79 C 0.00366 0.79543 0.38454 0.0
O80 O 0.04489 0.80934 0.4644 0.0
O81 O 0.03566 0.83872 0.46963 0.0
O82 O 0.97828 0.75441 0.46182 0.0
O83 O 0.99323 0.79256 0.47473 0.0
Co84 Co 0.77513 0.78421 0.96864 0.0
O85 O 0.76945 0.77987 0.01983 0.0
O86 O 0.74107 0.76312 0.97814 0.0
C87 C 0.80744 0.77912 0.9684 0.0
O88 O 0.77485 0.78395 0.91284 0.0
Co89 Co 0.82325 0.82764 0.94144 0.0
O90 O 0.8118 0.81171 0.89395 0.0
C91 C 0.7863 0.83584 0.97429 0.0
C92 C 0.74687 0.76624 0.01232 0.0
C93 C 0.79064 0.7945 0.88755 0.0
O94 O 0.77079 0.81332 0.97095 0.0
O95 O 0.80864 0.84458 0.96729 0.0
O96 O 0.78596 0.76043 0.96839 0.0
O97 O 0.80845 0.79952 0.97192 0.0
Co98 Co 0.23176 0.98626 0.96591 0.0
O99 O 0.23951 0.98002 0.01383 0.0
O100 O 0.25083 0.9709 0.96241 0.0
C101 C 0.24031 0.02433 0.97708 0.0
O102 O 0.22871 0.99056 0.91157 0.0
Co103 Co 0.19112 0.9978 0.95157 0.0
O104 O 0.2037 0.0048 0.9014 0.0
C105 C 0.17904 0.9485 0.97175 0.0
C106 C 0.25094 0.97077 0.99761 0.0
C107 C 0.21865 0.99874 0.89016 0.0
O108 O 0.20104 0.95393 0.96675 0.0
O109 O 0.17216 0.96403 0.96995 0.0
O110 O 0.25751 0.02 0.96916 0.0
O111 O 0.21927 0.00565 0.98036 0.0
Co112 Co 0.01732 0.23185 0.96806 0.0
O113 O 0.01988 0.23856 0.01888 0.0
O114 O 0.03439 0.2665 0.97641 0.0
C115 C 0.97807 0.20313 0.97063 0.0
O116 O 0.01659 0.23088 0.91228 0.0
Co117 Co 0.0044 0.1805 0.94281 0.0
O118 O 0.99991 0.1921 0.89555 0.0
C119 C 0.05088 0.21268 0.97769 0.0
C120 C 0.03118 0.26117 0.01078 0.0
C121 C 0.00771 0.21414 0.888 0.0
O122 O 0.04841 0.23097 0.97077 0.0
O123 O 0.03429 0.191 0.97195 0.0
O124 O 0.98402 0.22561 0.96825 0.0
O125 O 0.99578 0.19925 0.97355 0.0
Co126 Co 0.78047 0.7701 0.54198 0.0
O127 O 0.77618 0.76378 0.49113 0.0
O128 O 0.76119 0.73561 0.53331 0.0
C129 C 0.7723 0.80047 0.54011 0.0
O130 O 0.78078 0.77069 0.59764 0.0
Co131 Co 0.82171 0.81972 0.56694 0.0
O132 O 0.80734 0.8084 0.61541 0.0
C133 C 0.83314 0.78421 0.53724 0.0
C134 C 0.76387 0.74116 0.499 0.0
C135 C 0.79128 0.78681 0.62245 0.0
O136 O 0.81081 0.76806 0.53982 0.0
O137 O 0.84087 0.80646 0.54372 0.0
O138 O 0.75495 0.7783 0.54218 0.0
O139 O 0.79351 0.80324 0.53665 0.0
Co140 Co 0.23279 0.01045 0.54349 0.0
O141 O 0.23915 0.01202 0.49265 0.0
O142 O 0.26729 0.02587 0.53492 0.0
C143 C 0.20262 0.97186 0.54228 0.0
O144 O 0.23221 0.01075 0.59911 0.0
Co145 Co 0.18287 0.00147 0.56869 0.0
O146 O 0.19439 0.99882 0.6172 0.0
C147 C 0.21771 0.04796 0.53665 0.0
C148 C 0.26178 0.02259 0.50061 0.0
C149 C 0.21615 0.00493 0.62409 0.0
O150 O 0.23433 0.04253 0.54033 0.0
O151 O 0.19555 0.0331 0.5433 0.0
O152 O 0.2248 0.97674 0.54443 0.0
O153 O 0.19977 0.9902 0.53851 0.0
Co154 Co 0.98632 0.2214 0.54318 0.0
O155 O 0.98409 0.22565 0.49235 0.0
O156 O 0.9719 0.24144 0.53469 0.0
C157 C 0.02451 0.22858 0.5407 0.0
O158 O 0.98716 0.22131 0.59886 0.0
Co159 Co 0.99404 0.17956 0.56792 0.0
O160 O 0.99845 0.19474 0.61601 0.0
C161 C 0.94705 0.16899 0.53916 0.0
C162 C 0.97456 0.23865 0.50034 0.0
C163 C 0.99322 0.21097 0.62335 0.0
O164 O 0.95351 0.19141 0.54161 0.0
O165 O 0.96142 0.16104 0.54528 0.0
O166 O 0.02036 0.24636 0.54273 0.0
O167 O 0.00569 0.20763 0.53756 0.0
Co168 Co 0.89922 0.55415 0.37776 0.0
O169 O 0.91339 0.56065 0.32985 0.0
O170 O 0.93353 0.57459 0.38108 0.0
C171 C 0.86891 0.56066 0.36236 0.0
O172 O 0.89204 0.5531 0.43202 0.0
Co173 Co 0.84842 0.51345 0.39527 0.0
O174 O 0.85346 0.52711 0.44466 0.0
C175 C 0.88625 0.50211 0.37631 0.0
C176 C 0.93393 0.57347 0.34596 0.0
C177 C 0.87436 0.54327 0.45447 0.0
O178 O 0.90232 0.52438 0.38043 0.0
O179 O 0.86371 0.49463 0.37815 0.0
O180 O 0.88988 0.5786 0.37085 0.0
O181 O 0.86716 0.53978 0.36215 0.0
Co182 Co 0.44678 0.35253 0.37589 0.0
O183 O 0.44044 0.36015 0.32791 0.0
O184 O 0.42831 0.36848 0.37924 0.0
C185 C 0.4377 0.31454 0.36339 0.0
O186 O 0.44831 0.34679 0.4301 0.0
Co187 Co 0.48655 0.33998 0.39128 0.0
O188 O 0.47248 0.33159 0.44056 0.0
C189 C 0.49979 0.3898 0.37315 0.0
C190 C 0.42909 0.3695 0.34407 0.0
C191 C 0.45746 0.33765 0.45148 0.0
O192 O 0.47777 0.38445 0.37742 0.0
O193 O 0.50647 0.37411 0.37459 0.0
O194 O 0.42066 0.31923 0.37068 0.0
O195 O 0.45904 0.33294 0.36128 0.0
Co196 Co 0.6521 0.10219 0.38023 0.0
O197 O 0.6461 0.08796 0.33235 0.0
O198 O 0.63665 0.0678 0.38401 0.0
C199 C 0.69026 0.13152 0.36942 0.0
O200 O 0.65601 0.10954 0.43454 0.0
Co201 Co 0.66345 0.15414 0.39476 0.0
O202 O 0.6686 0.14836 0.44586 0.0
C203 C 0.61449 0.11712 0.3732 0.0
C204 C 0.63674 0.06735 0.34883 0.0
C205 C 0.66299 0.12737 0.45655 0.0
O206 O 0.61991 0.10063 0.37877 0.0
O207 O 0.62996 0.13956 0.3751 0.0
O208 O 0.68567 0.10996 0.37771 0.0
O209 O 0.67176 0.13417 0.36573 0.0
Co210 Co 0.88781 0.56804 0.80031 0.0
O211 O 0.89399 0.5753 0.85074 0.0
O212 O 0.90667 0.60278 0.80764 0.0
C213 C 0.89713 0.53847 0.80117 0.0
O214 O 0.88515 0.56631 0.74472 0.0
Co215 Co 0.84677 0.51718 0.77868 0.0
O216 O 0.8592 0.52793 0.72912 0.0
C217 C 0.83509 0.55207 0.81045 0.0
C218 C 0.90553 0.59782 0.84208 0.0
C219 C 0.87426 0.54962 0.72074 0.0
O220 O 0.85695 0.5689 0.80545 0.0
O221 O 0.82802 0.52989 0.8046 0.0
O222 O 0.914 0.56075 0.79772 0.0
O223 O 0.87589 0.53522 0.80643 0.0
Co224 Co 0.43276 0.31676 0.79655 0.0
O225 O 0.42548 0.31508 0.84707 0.0
O226 O 0.39809 0.30163 0.80373 0.0
C227 C 0.46305 0.35533 0.79871 0.0
O228 O 0.43441 0.31683 0.74096 0.0
Co229 Co 0.48324 0.32602 0.77351 0.0
O230 O 0.47268 0.32934 0.72465 0.0
C231 C 0.44756 0.27892 0.80327 0.0
C232 C 0.40303 0.30507 0.8382 0.0
C233 C 0.45104 0.32314 0.71676 0.0
O234 O 0.431 0.2845 0.79993 0.0
O235 O 0.46979 0.29384 0.79728 0.0
O236 O 0.44095 0.35055 0.79552 0.0
O237 O 0.46573 0.33691 0.80289 0.0
Co238 Co 0.6849 0.11863 0.79922 0.0
O239 O 0.69185 0.11109 0.84681 0.0
O240 O 0.69852 0.09796 0.79515 0.0
C241 C 0.64803 0.11201 0.81434 0.0
O242 O 0.67945 0.12113 0.74505 0.0
Co243 Co 0.67525 0.15998 0.7842 0.0
O244 O 0.66726 0.14764 0.73407 0.0
C245 C 0.72429 0.17049 0.8026 0.0
C246 C 0.69953 0.09838 0.83035 0.0
C247 C 0.67204 0.13171 0.72326 0.0
O248 O 0.7179 0.14823 0.79792 0.0
O249 O 0.7094 0.17819 0.80127 0.0
O250 O 0.65099 0.09419 0.80485 0.0
O251 O 0.66723 0.13281 0.81563 0.0
Co252 Co 0.43291 0.11792 0.29987 0.0
O253 O 0.41883 0.10961 0.34776 0.0
O254 O 0.39852 0.0987 0.2962 0.0
C255 C 0.46235 0.10929 0.31035 0.0
O256 O 0.44028 0.12145 0.24563 0.0
Co257 Co 0.48478 0.15888 0.28564 0.0
O258 O 0.47928 0.14731 0.23485 0.0
C259 C 0.44735 0.17046 0.30626 0.0
C260 C 0.39821 0.09809 0.33139 0.0
C261 C 0.4583 0.13204 0.22391 0.0
O262 O 0.43104 0.14838 0.3013 0.0
O263 O 0.46985 0.17771 0.3043 0.0
O264 O 0.4408 0.09226 0.30219 0.0
O265 O 0.46492 0.1304 0.31432 0.0
Co266 Co 0.8868 0.32118 0.29724 0.0
O267 O 0.89443 0.31512 0.34546 0.0
O268 O 0.90597 0.30594 0.29432 0.0
C269 C 0.89533 0.35923 0.30814 0.0
O270 O 0.88405 0.32525 0.24276 0.0
Co271 Co 0.84622 0.33222 0.28122 0.0
O272 O 0.8582 0.33817 0.23065 0.0
C273 C 0.83421 0.28327 0.30293 0.0
C274 C 0.90602 0.30595 0.32952 0.0
C275 C 0.87368 0.33256 0.22041 0.0
O276 O 0.85625 0.28886 0.29802 0.0
O277 O 0.82714 0.29863 0.30054 0.0
O278 O 0.91245 0.35478 0.30032 0.0
O279 O 0.87415 0.34064 0.31123 0.0
Co280 Co 0.68347 0.56991 0.29803 0.0
O281 O 0.69209 0.58419 0.34575 0.0
O282 O 0.69945 0.60433 0.29426 0.0
C283 C 0.6456 0.54144 0.31252 0.0
O284 O 0.67663 0.56239 0.24398 0.0
Co285 Co 0.6694 0.5172 0.28218 0.0
O286 O 0.65996 0.52283 0.23371 0.0
C287 C 0.72048 0.5537 0.29321 0.0
C288 C 0.70086 0.60478 0.32939 0.0
C289 C 0.6666 0.54404 0.22276 0.0
O290 O 0.71524 0.57057 0.29442 0.0
O291 O 0.70477 0.5314 0.29038 0.0
O292 O 0.65048 0.56316 0.30497 0.0
O293 O 0.6638 0.5381 0.31345 0.0
Co294 Co 0.4526 0.10055 0.88217 0.0
O295 O 0.44612 0.08609 0.83451 0.0
O296 O 0.43444 0.06613 0.88631 0.0
C297 C 0.44273 0.12878 0.86893 0.0
O298 O 0.45438 0.10835 0.93621 0.0
Co299 Co 0.4915 0.15352 0.89669 0.0
O300 O 0.4784 0.14781 0.94655 0.0
C301 C 0.50593 0.11707 0.8846 0.0
C302 C 0.43478 0.06555 0.85113 0.0
C303 C 0.46374 0.12665 0.95759 0.0
O304 O 0.48383 0.10013 0.88426 0.0
O305 O 0.51254 0.13937 0.88723 0.0
O306 O 0.42607 0.10701 0.87679 0.0
O307 O 0.46427 0.13224 0.8668 0.0
Co308 Co 0.90651 0.35114 0.87756 0.0
O309 O 0.92046 0.35641 0.82965 0.0
O310 O 0.94096 0.36658 0.88104 0.0
C311 C 0.87718 0.31292 0.86755 0.0
O312 O 0.89911 0.34793 0.93194 0.0
Co313 Co 0.85441 0.33988 0.89121 0.0
O314 O 0.86008 0.3349 0.9424 0.0
C315 C 0.89146 0.38834 0.86752 0.0
C316 C 0.94116 0.36592 0.84584 0.0
C317 C 0.88107 0.34083 0.95359 0.0
O318 O 0.90804 0.38328 0.8747 0.0
O319 O 0.86905 0.37275 0.86927 0.0
O320 O 0.89868 0.3175 0.87616 0.0
O321 O 0.87463 0.33142 0.86323 0.0
Co322 Co 0.65244 0.55003 0.87685 0.0
O323 O 0.65208 0.55589 0.82612 0.0
O324 O 0.63766 0.56971 0.86819 0.0
C325 C 0.69095 0.55814 0.87732 0.0
O326 O 0.65105 0.54809 0.93244 0.0
Co327 Co 0.66027 0.50822 0.90093 0.0
O328 O 0.6622 0.52151 0.94993 0.0
C329 C 0.61438 0.49762 0.86781 0.0
C330 C 0.64177 0.5682 0.83398 0.0
C331 C 0.65627 0.53724 0.95719 0.0
O332 O 0.62017 0.51976 0.8718 0.0
O333 O 0.62887 0.48992 0.87471 0.0
O334 O 0.68616 0.57548 0.87979 0.0
O335 O 0.67261 0.53708 0.87211 0.0
Co336 Co 0.56473 0.88331 0.71291 0.0
O337 O 0.57126 0.88716 0.66209 0.0
O338 O 0.59924 0.9033 0.70436 0.0
C339 C 0.53392 0.8907 0.70971 0.0
O340 O 0.56372 0.88373 0.76861 0.0
Co341 Co 0.51527 0.84196 0.73831 0.0
O342 O 0.52525 0.85928 0.78505 0.0
C343 C 0.55145 0.83083 0.71022 0.0
C344 C 0.59378 0.90032 0.67002 0.0
C345 C 0.54686 0.87497 0.79272 0.0
O346 O 0.56741 0.85328 0.71204 0.0
O347 O 0.52916 0.82292 0.71674 0.0
O348 O 0.55592 0.90836 0.71178 0.0
O349 O 0.53155 0.86962 0.70702 0.0
Co350 Co 0.10995 0.67855 0.70799 0.0
O351 O 0.10532 0.68009 0.65704 0.0
O352 O 0.08954 0.69251 0.69906 0.0
C353 C 0.10341 0.64057 0.70653 0.0
O354 O 0.11033 0.67854 0.7637 0.0
Co355 Co 0.1522 0.67167 0.73363 0.0
O356 O 0.13768 0.66857 0.78199 0.0
C357 C 0.16198 0.71762 0.70164 0.0
C358 C 0.09221 0.68954 0.66478 0.0
C359 C 0.12116 0.67349 0.78873 0.0
O360 O 0.13971 0.71144 0.70548 0.0
O361 O 0.16997 0.70329 0.70793 0.0
O362 O 0.08536 0.64433 0.70843 0.0
O363 O 0.12416 0.65958 0.70312 0.0
Co364 Co 0.3235 0.43028 0.70847 0.0
O365 O 0.31761 0.41642 0.6604 0.0
O366 O 0.30776 0.39584 0.71172 0.0
C367 C 0.36176 0.45945 0.69818 0.0
O368 O 0.32729 0.43741 0.76292 0.0
Co369 Co 0.33542 0.48258 0.72282 0.0
O370 O 0.34079 0.47651 0.77361 0.0
C371 C 0.28664 0.44597 0.6998 0.0
C372 C 0.308 0.39569 0.67652 0.0
C373 C 0.3348 0.45547 0.78461 0.0
O374 O 0.29152 0.4292 0.70657 0.0
O375 O 0.30242 0.46832 0.70154 0.0
O376 O 0.35708 0.43783 0.70616 0.0
O377 O 0.34331 0.46215 0.6944 0.0
Co378 Co 0.55587 0.90057 0.13818 0.0
O379 O 0.56125 0.90704 0.18898 0.0
O380 O 0.57299 0.93512 0.14686 0.0
C381 C 0.56702 0.87231 0.1379 0.0
O382 O 0.55418 0.90004 0.08249 0.0
Co383 Co 0.5171 0.8493 0.11326 0.0
O384 O 0.52943 0.8619 0.06432 0.0
C385 C 0.5036 0.88052 0.15261 0.0
C386 C 0.57179 0.92968 0.18109 0.0
C387 C 0.54416 0.88394 0.05749 0.0
O388 O 0.52374 0.89901 0.14367 0.0
O389 O 0.49873 0.85895 0.14647 0.0
O390 O 0.58327 0.89493 0.13565 0.0
O391 O 0.54538 0.86803 0.14248 0.0
Co392 Co 0.09981 0.65398 0.13377 0.0
O393 O 0.09304 0.65109 0.18456 0.0
O394 O 0.06529 0.6395 0.14194 0.0
C395 C 0.13086 0.69215 0.13768 0.0
O396 O 0.10099 0.65555 0.07807 0.0
Co397 Co 0.14942 0.66232 0.1084 0.0
O398 O 0.13944 0.66952 0.0616 0.0
C399 C 0.11305 0.6148 0.13601 0.0
C400 C 0.07056 0.64178 0.17634 0.0
C401 C 0.11781 0.66354 0.05393 0.0
O402 O 0.097 0.62117 0.13431 0.0
O403 O 0.13533 0.62932 0.12971 0.0
O404 O 0.10895 0.68804 0.13537 0.0
O405 O 0.13294 0.67327 0.13995 0.0
Co406 Co 0.35255 0.45821 0.13101 0.0
O407 O 0.35618 0.45536 0.18184 0.0
O408 O 0.36813 0.43924 0.1397 0.0
C409 C 0.31389 0.44943 0.1353 0.0
O410 O 0.35053 0.45706 0.07535 0.0
Co411 Co 0.34236 0.49797 0.10473 0.0
O412 O 0.33596 0.48086 0.05799 0.0
C413 C 0.39147 0.51105 0.12619 0.0
C414 C 0.36604 0.44265 0.17401 0.0
C415 C 0.34259 0.46566 0.05079 0.0
O416 O 0.38486 0.48871 0.12998 0.0
O417 O 0.3771 0.51865 0.11807 0.0
O418 O 0.31911 0.43239 0.13347 0.0
O419 O 0.33212 0.47094 0.13713 0.0
Co420 Co 0.10642 0.44951 0.63305 0.0
O421 O 0.09982 0.44359 0.68367 0.0
O422 O 0.07186 0.42976 0.64119 0.0
C423 C 0.13683 0.44142 0.63327 0.0
O424 O 0.10745 0.45162 0.57747 0.0
Co425 Co 0.15598 0.49168 0.61022 0.0
O426 O 0.14528 0.47863 0.5609 0.0
C427 C 0.12006 0.50185 0.64168 0.0
C428 C 0.07725 0.43135 0.67551 0.0
C429 C 0.12376 0.46277 0.55308 0.0
O430 O 0.10411 0.47957 0.6378 0.0
O431 O 0.14239 0.50999 0.63526 0.0
O432 O 0.1147 0.42413 0.63038 0.0
O433 O 0.13957 0.4625 0.63854 0.0
Co434 Co 0.5561 0.65211 0.62983 0.0
O435 O 0.56398 0.64645 0.67809 0.0
O436 O 0.576 0.63763 0.62709 0.0
C437 C 0.56361 0.68984 0.64042 0.0
O438 O 0.55303 0.65588 0.57535 0.0
Co439 Co 0.51448 0.66176 0.61417 0.0
O440 O 0.52628 0.66772 0.56352 0.0
C441 C 0.50398 0.61327 0.63593 0.0
C442 C 0.57595 0.63765 0.6623 0.0
C443 C 0.5421 0.66263 0.55312 0.0
O444 O 0.52612 0.6194 0.63073 0.0
O445 O 0.49634 0.62819 0.63377 0.0
O446 O 0.58112 0.68597 0.6327 0.0
O447 O 0.54271 0.67091 0.64373 0.0
Co448 Co 0.34501 0.89877 0.64089 0.0
O449 O 0.34797 0.90554 0.69162 0.0
O450 O 0.36157 0.93342 0.649 0.0
C451 C 0.30609 0.86952 0.64352 0.0
O452 O 0.34381 0.89742 0.58525 0.0
Co453 Co 0.33418 0.84794 0.61712 0.0
O454 O 0.32801 0.85849 0.56996 0.0
C455 C 0.38202 0.88258 0.64512 0.0
C456 C 0.35898 0.92813 0.68342 0.0
C457 C 0.33508 0.88028 0.56162 0.0
O458 O 0.3767 0.89934 0.64218 0.0
O459 O 0.36677 0.86041 0.63936 0.0
O460 O 0.31164 0.89191 0.64168 0.0
O461 O 0.32405 0.86599 0.64678 0.0
Co462 Co 0.11401 0.43373 0.21033 0.0
O463 O 0.10682 0.41963 0.16229 0.0
O464 O 0.0961 0.39929 0.21378 0.0
C465 C 0.1042 0.46228 0.1991 0.0
O466 O 0.11649 0.44083 0.26472 0.0
Co467 Co 0.15322 0.48631 0.22573 0.0
O468 O 0.14063 0.4801 0.27598 0.0
C469 C 0.16701 0.45073 0.20367 0.0
C470 C 0.09611 0.39894 0.1786 0.0
C471 C 0.12597 0.45884 0.28664 0.0
O472 O 0.1454 0.43357 0.20967 0.0
O473 O 0.17306 0.47294 0.20554 0.0
O474 O 0.08747 0.44048 0.20685 0.0
O475 O 0.12559 0.46551 0.19613 0.0
Co476 Co 0.57419 0.68372 0.2106 0.0
O477 O 0.589 0.69026 0.16319 0.0
O478 O 0.60855 0.69835 0.21528 0.0
C479 C 0.54452 0.6462 0.19725 0.0
O480 O 0.56607 0.67897 0.26472 0.0
Co481 Co 0.52269 0.67323 0.22433 0.0
O482 O 0.52727 0.66673 0.27523 0.0
C483 C 0.56042 0.72184 0.20266 0.0
C484 C 0.60938 0.69886 0.1801 0.0
C485 C 0.54803 0.67183 0.28635 0.0
O486 O 0.57663 0.7163 0.21003 0.0
O487 O 0.53793 0.70645 0.20355 0.0
O488 O 0.56565 0.65 0.20655 0.0
O489 O 0.54237 0.66501 0.1944 0.0
Co490 Co 0.32487 0.88297 0.21509 0.0
O491 O 0.32444 0.887 0.16365 0.0
O492 O 0.31229 0.90411 0.204 0.0
C493 C 0.36213 0.88789 0.2174 0.0
O494 O 0.32384 0.88364 0.27069 0.0
Co495 Co 0.32877 0.83972 0.24503 0.0
O496 O 0.33105 0.85507 0.29243 0.0
C497 C 0.28422 0.83135 0.20973 0.0
C498 C 0.31553 0.9008 0.17013 0.0
C499 C 0.32733 0.87258 0.29713 0.0
O500 O 0.29138 0.85395 0.21212 0.0
O501 O 0.29758 0.82257 0.21812 0.0
O502 O 0.35946 0.90663 0.21634 0.0
O503 O 0.34275 0.86748 0.21368 0.0
H504 H 0.35355 0.27421 0.83433 0.0
H505 H 0.41115 0.32105 0.90727 0.0
H506 H 0.38229 0.30971 0.95717 0.0
H507 H 0.3072 0.28489 0.8741 0.0
H508 H 0.28354 0.25414 0.86902 0.0
H509 H 0.30838 0.26681 0.8377 0.0
H510 H 0.31701 0.23244 0.85224 0.0
H511 H 0.29224 0.21971 0.88363 0.0
H512 H 0.32184 0.22709 0.89859 0.0
H513 H 0.34862 0.29255 0.99992 0.0
H514 H 0.31094 0.27011 0.03406 0.0
H515 H 0.27378 0.23371 0.93534 0.0
C516 C 0.35995 0.28225 0.86071 0.0
C517 C 0.38464 0.29855 0.86683 0.0
C518 C 0.39238 0.30848 0.90186 0.0
C519 C 0.37611 0.30222 0.93046 0.0
C520 C 0.35205 0.28594 0.92381 0.0
C521 C 0.34383 0.27605 0.88994 0.0
C522 C 0.31699 0.25823 0.89105 0.0
C523 C 0.30322 0.26652 0.86651 0.0
C524 C 0.31172 0.23286 0.88077 0.0
C525 C 0.31165 0.25961 0.93083 0.0
C526 C 0.33222 0.27582 0.949 0.0
C527 C 0.33231 0.2799 0.98603 0.0
C528 C 0.31079 0.26701 0.0052 0.0
C529 C 0.28939 0.2502 0.98741 0.0
C530 C 0.28982 0.24658 0.94962 0.0
H531 H 0.70682 0.09849 0.90393 0.0
H532 H 0.71338 0.06785 0.80267 0.0
H533 H 0.72882 0.04516 0.83595 0.0
H534 H 0.76083 0.10563 0.94452 0.0
H535 H 0.74844 0.09792 0.98956 0.0
H536 H 0.73722 0.11136 0.95808 0.0
H537 H 0.69406 0.07561 0.96691 0.0
H538 H 0.70515 0.06201 0.99835 0.0
H539 H 0.68811 0.04542 0.95928 0.0
H540 H 0.74395 0.0264 0.87908 0.0
H541 H 0.75914 0.01306 0.92969 0.0
H542 H 0.74331 0.05554 1.00434 0.0
C543 C 0.71143 0.08693 0.8888 0.0
C544 C 0.70884 0.08489 0.85065 0.0
C545 C 0.7152 0.06971 0.83183 0.0
C546 C 0.72394 0.0567 0.85051 0.0
C547 C 0.72626 0.05908 0.88802 0.0
C548 C 0.72029 0.07383 0.90706 0.0
C549 C 0.72509 0.07347 0.9473 0.0
C550 C 0.74402 0.09859 0.96064 0.0
C551 C 0.70171 0.06353 0.96925 0.0
C552 C 0.73478 0.05625 0.94782 0.0
C553 C 0.73517 0.04818 0.91324 0.0
C554 C 0.7437 0.03254 0.90628 0.0
C555 C 0.75232 0.02509 0.93532 0.0
C556 C 0.75243 0.03322 0.97107 0.0
C557 C 0.7433 0.04887 0.97741 0.0
H558 H 0.97079 0.72899 0.93449 0.0
H559 H 0.95686 0.69157 0.0374 0.0
H560 H 0.93845 0.65288 0.00531 0.0
H561 H 0.91551 0.68566 0.89153 0.0
H562 H 0.92876 0.68825 0.84753 0.0
H563 H 0.94163 0.71343 0.87819 0.0
H564 H 0.98282 0.71551 0.87345 0.0
H565 H 0.97007 0.69033 0.84278 0.0
H566 H 0.98488 0.68917 0.88355 0.0
H567 H 0.92145 0.61858 0.96361 0.0
H568 H 0.90555 0.58948 0.91392 0.0
H569 H 0.92932 0.64776 0.83615 0.0
C570 C 0.96396 0.71263 0.95019 0.0
C571 C 0.96534 0.71332 0.98853 0.0
C572 C 0.95603 0.69154 0.0081 0.0
C573 C 0.94556 0.66944 0.99011 0.0
C574 C 0.94442 0.66934 0.95247 0.0
C575 C 0.95326 0.69026 0.93258 0.0
C576 C 0.94915 0.68474 0.89228 0.0
C577 C 0.93279 0.69354 0.87646 0.0
C578 C 0.97316 0.69558 0.87181 0.0
C579 C 0.93659 0.65746 0.8928 0.0
C580 C 0.93421 0.64915 0.92794 0.0
C581 C 0.92319 0.62482 0.93595 0.0
C582 C 0.9142 0.60841 0.90738 0.0
C583 C 0.91614 0.61626 0.87099 0.0
C584 C 0.92761 0.6412 0.86362 0.0
H585 H 0.30006 0.38873 0.60285 0.0
H586 H 0.29246 0.35105 0.70398 0.0
H587 H 0.27473 0.31268 0.67095 0.0
H588 H 0.2443 0.34379 0.56395 0.0
H589 H 0.25579 0.34747 0.51844 0.0
H590 H 0.26885 0.37238 0.54955 0.0
H591 H 0.3108 0.377 0.53908 0.0
H592 H 0.29786 0.35207 0.50794 0.0
H593 H 0.31494 0.35158 0.54631 0.0
H594 H 0.25733 0.27869 0.62851 0.0
H595 H 0.24001 0.24991 0.57854 0.0
H596 H 0.25797 0.30845 0.50324 0.0
C597 C 0.29479 0.3724 0.61795 0.0
C598 C 0.29771 0.37289 0.65603 0.0
C599 C 0.29041 0.35114 0.67487 0.0
C600 C 0.28037 0.32925 0.65633 0.0
C601 C 0.27767 0.32935 0.61893 0.0
C602 C 0.28457 0.35026 0.59982 0.0
C603 C 0.27891 0.34499 0.55974 0.0
C604 C 0.26089 0.35261 0.54719 0.0
C605 C 0.30201 0.35714 0.53693 0.0
C606 C 0.26768 0.31785 0.55948 0.0
C607 C 0.2673 0.30937 0.59403 0.0
C608 C 0.25755 0.28507 0.6013 0.0
C609 C 0.24771 0.26885 0.57262 0.0
C610 C 0.24759 0.27688 0.53688 0.0
C611 C 0.25792 0.30179 0.53019 0.0
H612 H 0.64377 0.92472 0.67401 0.0
H613 H 0.58409 0.90028 0.59872 0.0
H614 H 0.61231 0.91685 0.54798 0.0
H615 H 0.68382 0.98054 0.62667 0.0
H616 H 0.71049 0.97878 0.6353 0.0
H617 H 0.68573 0.96553 0.66671 0.0
H618 H 0.684 0.92458 0.66044 0.0
H619 H 0.70874 0.9377 0.62901 0.0
H620 H 0.68087 0.91156 0.61611 0.0
H621 H 0.64596 0.9349 0.50501 0.0
H622 H 0.68416 0.95383 0.47149 0.0
H623 H 0.72321 0.96713 0.57278 0.0
C624 C 0.63673 0.92302 0.64686 0.0
C625 C 0.61167 0.91118 0.64046 0.0
C626 C 0.60316 0.90919 0.60447 0.0
C627 C 0.61905 0.91859 0.57533 0.0
C628 C 0.64353 0.92999 0.58238 0.0
C629 C 0.65247 0.93231 0.61712 0.0
C630 C 0.67976 0.94509 0.61655 0.0
C631 C 0.69059 0.9689 0.63755 0.0
C632 C 0.68887 0.92875 0.63141 0.0
C633 C 0.68455 0.94941 0.57614 0.0
C634 C 0.6633 0.94055 0.55711 0.0
C635 C 0.66278 0.942 0.51954 0.0
C636 C 0.68459 0.95279 0.50073 0.0
C637 C 0.70669 0.96201 0.51944 0.0
C638 C 0.70662 0.96033 0.55772 0.0
H639 H 0.03097 0.75737 0.56738 0.0
H640 H 0.04255 0.73042 0.46596 0.0
H641 H 0.05918 0.70893 0.4995 0.0
H642 H 0.0851 0.76728 0.61062 0.0
H643 H 0.07183 0.75799 0.65492 0.0
H644 H 0.05986 0.77064 0.62331 0.0
H645 H 0.01773 0.73283 0.6294 0.0
H646 H 0.02958 0.72005 0.66103 0.0
H647 H 0.01414 0.7036 0.62089 0.0
H648 H 0.07533 0.69133 0.54274 0.0
H649 H 0.09093 0.67867 0.59364 0.0
H650 H 0.06949 0.71665 0.66854 0.0
C651 C 0.03686 0.74681 0.55229 0.0
C652 C 0.03538 0.74551 0.51399 0.0
C653 C 0.04346 0.73167 0.49523 0.0
C654 C 0.0529 0.71936 0.51405 0.0
C655 C 0.05419 0.72105 0.55167 0.0
C656 C 0.04644 0.7344 0.57071 0.0
C657 C 0.05053 0.73361 0.61114 0.0
C658 C 0.06786 0.75889 0.62585 0.0
C659 C 0.02656 0.72182 0.63183 0.0
C660 C 0.06192 0.71785 0.61171 0.0
C661 C 0.06372 0.71081 0.577 0.0
C662 C 0.07396 0.69664 0.57006 0.0
C663 C 0.08281 0.68957 0.59927 0.0
C664 C 0.08143 0.69662 0.63518 0.0
C665 C 0.07065 0.71083 0.64147 0.0
H666 H 0.61695 0.70405 0.10636 0.0
H667 H 0.65408 0.71655 0.20925 0.0
H668 H 0.6928 0.73377 0.17703 0.0
H669 H 0.65507 0.68776 0.05554 0.0
H670 H 0.65432 0.70277 0.01476 0.0
H671 H 0.62928 0.69084 0.04568 0.0
H672 H 0.6329 0.73272 0.05032 0.0
H673 H 0.65791 0.74477 0.01939 0.0
H674 H 0.66119 0.75831 0.06333 0.0
H675 H 0.72735 0.75038 0.1345 0.0
H676 H 0.75615 0.76593 0.08403 0.0
H677 H 0.69723 0.74284 0.00773 0.0
C678 C 0.63322 0.71031 0.12209 0.0
C679 C 0.63248 0.70891 0.16038 0.0
C680 C 0.65418 0.71741 0.17995 0.0
C681 C 0.67627 0.7272 0.16189 0.0
C682 C 0.67639 0.72836 0.12421 0.0
C683 C 0.65549 0.72018 0.10445 0.0
C684 C 0.66082 0.72402 0.06414 0.0
C685 C 0.64918 0.69991 0.04384 0.0
C686 C 0.65273 0.74097 0.04838 0.0
C687 C 0.688 0.73575 0.06443 0.0
C688 C 0.69651 0.73799 0.09943 0.0
C689 C 0.72092 0.74865 0.10697 0.0
C690 C 0.73714 0.75746 0.07803 0.0
C691 C 0.72897 0.75556 0.04187 0.0
C692 C 0.70401 0.74438 0.03503 0.0
H693 H 0.2904 0.92529 0.17283 0.0
H694 H 0.32566 0.90021 0.09878 0.0
H695 H 0.31378 0.91624 0.04727 0.0
H696 H 0.24001 0.911 0.11578 0.0
H697 H 0.23805 0.93709 0.12806 0.0
H698 H 0.25014 0.9246 0.15973 0.0
H699 H 0.2892 0.96586 0.16476 0.0
H700 H 0.2772 0.9785 0.13316 0.0
H701 H 0.30573 0.98052 0.12426 0.0
H702 H 0.29734 0.93368 1.00354 0.0
H703 H 0.27725 0.95185 0.97 0.0
H704 H 0.25229 0.96577 0.07154 0.0
C705 C 0.2958 0.92339 0.1458 0.0
C706 C 0.30902 0.91154 0.13987 0.0
C707 C 0.31554 0.90921 0.10406 0.0
C708 C 0.3089 0.91828 0.07456 0.0
C709 C 0.29571 0.92965 0.08121 0.0
C710 C 0.28922 0.9323 0.11587 0.0
C711 C 0.27448 0.94478 0.11519 0.0
C712 C 0.24917 0.92838 0.1306 0.0
C713 C 0.28743 0.96885 0.13555 0.0
C714 C 0.27366 0.94857 0.07476 0.0
C715 C 0.28609 0.93974 0.05575 0.0
C716 C 0.28762 0.94077 0.0181 0.0
C717 C 0.27613 0.9511 0.99928 0.0
C718 C 0.26325 0.96027 0.01811 0.0
C719 C 0.26209 0.95901 0.05638 0.0
H720 H 0.09364 0.3918 0.10443 0.0
H721 H 0.07313 0.35396 0.2073 0.0
H722 H 0.05468 0.31532 0.17503 0.0
H723 H 0.03997 0.34991 0.05534 0.0
H724 H 0.05561 0.35222 0.01368 0.0
H725 H 0.06734 0.37726 0.04456 0.0
H726 H 0.1079 0.37786 0.04682 0.0
H727 H 0.09629 0.3528 0.01598 0.0
H728 H 0.10827 0.35093 0.05921 0.0
H729 H 0.03883 0.28109 0.133 0.0
H730 H 0.02567 0.25227 0.08288 0.0
H731 H 0.05581 0.31109 0.00549 0.0
C732 C 0.08521 0.37536 0.1201 0.0
C733 C 0.08482 0.37592 0.15846 0.0
C734 C 0.07366 0.35403 0.17797 0.0
C735 C 0.06313 0.33196 0.15989 0.0
C736 C 0.06386 0.332 0.12221 0.0
C737 C 0.07454 0.35303 0.10239 0.0
C738 C 0.07271 0.34772 0.062 0.0
C739 C 0.05803 0.35735 0.04276 0.0
C740 C 0.09779 0.35794 0.04501 0.0
C741 C 0.05934 0.32043 0.06237 0.0
C742 C 0.05451 0.3119 0.09752 0.0
C743 C 0.04247 0.2875 0.10534 0.0
C744 C 0.03507 0.27126 0.07653 0.0
C745 C 0.03965 0.27935 0.04012 0.0
C746 C 0.05202 0.30434 0.03298 0.0
H747 H 0.70623 0.61171 0.40336 0.0
H748 H 0.71926 0.64968 0.3011 0.0
H749 H 0.73587 0.68803 0.33397 0.0
H750 H 0.68857 0.64838 0.45384 0.0
H751 H 0.70328 0.64786 0.49511 0.0
H752 H 0.69242 0.62307 0.46385 0.0
H753 H 0.73492 0.62805 0.46042 0.0
H754 H 0.74589 0.65278 0.49179 0.0
H755 H 0.76017 0.65681 0.4483 0.0
H756 H 0.75061 0.7219 0.37669 0.0
H757 H 0.76418 0.75036 0.42737 0.0
H758 H 0.7422 0.69145 0.50346 0.0
C759 C 0.71264 0.62812 0.38792 0.0
C760 C 0.71143 0.6277 0.34961 0.0
C761 C 0.72 0.64953 0.3304 0.0
C762 C 0.72944 0.67142 0.34883 0.0
C763 C 0.73023 0.67122 0.3865 0.0
C764 C 0.7222 0.65024 0.40595 0.0
C765 C 0.72534 0.6553 0.4464 0.0
C766 C 0.70095 0.64292 0.46594 0.0
C767 C 0.74261 0.64779 0.46268 0.0
C768 C 0.73638 0.68242 0.4465 0.0
C769 C 0.73893 0.69107 0.41154 0.0
C770 C 0.74874 0.71538 0.4042 0.0
C771 C 0.75639 0.73141 0.4333 0.0
C772 C 0.75427 0.72317 0.46947 0.0
C773 C 0.74395 0.69827 0.47615 0.0
H774 H 0.31138 0.05139 0.50517 0.0
H775 H 0.25284 0.01248 0.42916 0.0
H776 H 0.28145 0.02716 0.3786 0.0
H777 H 0.34494 0.10328 0.44933 0.0
H778 H 0.374 0.10784 0.46204 0.0
H779 H 0.34917 0.09363 0.49319 0.0
H780 H 0.35529 0.05684 0.49775 0.0
H781 H 0.38021 0.071 0.46673 0.0
H782 H 0.35542 0.04145 0.457 0.0
H783 H 0.31535 0.04676 0.3359 0.0
H784 H 0.35361 0.06965 0.30308 0.0
H785 H 0.39117 0.09611 0.40535 0.0
C786 C 0.30468 0.0458 0.47792 0.0
C787 C 0.27984 0.03076 0.4712 0.0
C788 C 0.27175 0.02401 0.4351 0.0
C789 C 0.28786 0.03224 0.40608 0.0
C790 C 0.31211 0.04723 0.41345 0.0
C791 C 0.32062 0.05393 0.44837 0.0
C792 C 0.34767 0.07062 0.44827 0.0
C793 C 0.35432 0.0953 0.46415 0.0
C794 C 0.36039 0.05929 0.46864 0.0
C795 C 0.35282 0.07226 0.4079 0.0
C796 C 0.33198 0.0586 0.38844 0.0
C797 C 0.33186 0.05746 0.35078 0.0
C798 C 0.35369 0.07057 0.33237 0.0
C799 C 0.37538 0.08462 0.3516 0.0
C800 C 0.37489 0.08545 0.38991 0.0
H801 H 0.90697 0.30042 0.40363 0.0
H802 H 0.93361 0.28857 0.30207 0.0
H803 H 0.95464 0.27142 0.33543 0.0
H804 H 0.96058 0.31666 0.4568 0.0
H805 H 0.94419 0.30133 0.49704 0.0
H806 H 0.93146 0.31329 0.46553 0.0
H807 H 0.89344 0.2713 0.45962 0.0
H808 H 0.90603 0.25921 0.49113 0.0
H809 H 0.89656 0.24593 0.44688 0.0
H810 H 0.97209 0.25512 0.37839 0.0
H811 H 0.98493 0.23961 0.42911 0.0
H812 H 0.94747 0.2614 0.50448 0.0
C813 C 0.91733 0.29431 0.38847 0.0
C814 C 0.91869 0.29589 0.35018 0.0
C815 C 0.93229 0.28757 0.33133 0.0
C816 C 0.94435 0.27783 0.35005 0.0
C817 C 0.94264 0.27649 0.38766 0.0
C818 C 0.92949 0.28443 0.4068 0.0
C819 C 0.93037 0.28036 0.44721 0.0
C820 C 0.94237 0.30434 0.46786 0.0
C821 C 0.90509 0.26318 0.46208 0.0
C822 C 0.94598 0.2688 0.44764 0.0
C823 C 0.95283 0.26688 0.41287 0.0
C824 C 0.9669 0.25655 0.40576 0.0
C825 C 0.97408 0.24776 0.43488 0.0
C826 C 0.96723 0.24927 0.47087 0.0
C827 C 0.9531 0.26012 0.47733 0.0
H828 H 0.02077 0.61391 0.17193 0.0
H829 H 0.07962 0.653 0.24739 0.0
H830 H 0.05102 0.64036 0.29784 0.0
H831 H 0.97784 0.62656 0.21758 0.0
H832 H 0.95245 0.59713 0.20922 0.0
H833 H 0.9774 0.60984 0.17809 0.0
H834 H 0.98217 0.57241 0.18579 0.0
H835 H 0.95729 0.55962 0.217 0.0
H836 H 0.98599 0.56359 0.23054 0.0
H837 H 0.01703 0.62316 0.34056 0.0
H838 H 0.97869 0.60207 0.37364 0.0
H839 H 0.94086 0.57345 0.27212 0.0
C840 C 0.02754 0.61994 0.19904 0.0
C841 C 0.05247 0.63447 0.20562 0.0
C842 C 0.06065 0.64182 0.24155 0.0
C843 C 0.04454 0.63477 0.27051 0.0
C844 C 0.02019 0.62031 0.2633 0.0
C845 C 0.01159 0.61293 0.22858 0.0
C846 C 0.98445 0.59689 0.22891 0.0
C847 C 0.97232 0.60829 0.20716 0.0
C848 C 0.97705 0.57163 0.21472 0.0
C849 C 0.97933 0.59644 0.26919 0.0
C850 C 1.00028 0.61015 0.28837 0.0
C851 C 1.00044 0.61241 0.32589 0.0
C852 C 0.97855 0.60033 0.34445 0.0
C853 C 0.95677 0.58614 0.32553 0.0
C854 C 0.95721 0.58423 0.28734 0.0
H855 H 0.42731 0.37428 0.26996 0.0
H856 H 0.40574 0.39133 0.37214 0.0
H857 H 0.38752 0.4115 0.33918 0.0
H858 H 0.44225 0.42972 0.2246 0.0
H859 H 0.4307 0.41587 0.18121 0.0
H860 H 0.44206 0.40246 0.21253 0.0
H861 H 0.40157 0.36242 0.20961 0.0
H862 H 0.39009 0.3757 0.17825 0.0
H863 H 0.37407 0.3623 0.21963 0.0
H864 H 0.37221 0.43002 0.29651 0.0
H865 H 0.35969 0.44584 0.24586 0.0
H866 H 0.39036 0.41705 0.1696 0.0
C867 C 0.4187 0.38222 0.28535 0.0
C868 C 0.41793 0.38121 0.32369 0.0
C869 C 0.40654 0.39184 0.34283 0.0
C870 C 0.39614 0.40335 0.32435 0.0
C871 C 0.39723 0.40408 0.28668 0.0
C872 C 0.40814 0.39381 0.26725 0.0
C873 C 0.40669 0.39729 0.22678 0.0
C874 C 0.43193 0.41223 0.21032 0.0
C875 C 0.39224 0.37298 0.20743 0.0
C876 C 0.39329 0.41115 0.22664 0.0
C877 C 0.38812 0.41482 0.26162 0.0
C878 C 0.37609 0.42724 0.26898 0.0
C879 C 0.36907 0.43618 0.23988 0.0
C880 C 0.374 0.43269 0.20363 0.0
C881 C 0.38629 0.41995 0.19696 0.0
H882 H 0.59348 0.97937 0.17604 0.0
H883 H 0.57148 0.92091 0.25297 0.0
H884 H 0.58597 0.94978 0.30316 0.0
H885 H 0.64782 0.02197 0.22385 0.0
H886 H 0.6445 0.04757 0.2137 0.0
H887 H 0.63267 0.02241 0.18302 0.0
H888 H 0.59058 0.01834 0.18742 0.0
H889 H 0.60227 0.04346 0.21814 0.0
H890 H 0.57691 0.01505 0.23126 0.0
H891 H 0.60179 0.98407 0.34534 0.0
H892 H 0.61894 0.02267 0.3776 0.0
H893 H 0.63144 0.05997 0.27483 0.0
C894 C 0.59184 0.97272 0.20343 0.0
C895 C 0.58134 0.94783 0.21046 0.0
C896 C 0.57943 0.93984 0.24675 0.0
C897 C 0.58762 0.95611 0.27557 0.0
C898 C 0.59774 0.98042 0.26786 0.0
C899 C 0.59998 0.98882 0.2328 0.0
C900 C 0.61148 0.01601 0.23249 0.0
C901 C 0.63555 0.02767 0.21205 0.0
C902 C 0.59428 0.02366 0.21637 0.0
C903 C 0.61522 0.02139 0.27281 0.0
C904 C 0.60711 1.00051 0.29257 0.0
C905 C 0.60829 1.00059 0.33022 0.0
C906 C 0.61805 0.02263 0.34831 0.0
C907 C 0.62658 0.04436 0.3288 0.0
C908 C 0.62514 0.04367 0.29049 0.0
H909 H 0.38625 0.97794 0.67812 0.0
H910 H 0.3531 0.91926 0.75547 0.0
H911 H 0.36915 0.94798 0.80567 0.0
H912 H 0.44044 0.01409 0.72955 0.0
H913 H 0.44262 0.04235 0.71802 0.0
H914 H 0.42836 0.01732 0.68722 0.0
H915 H 0.38986 0.02069 0.68749 0.0
H916 H 0.40404 0.04578 0.71819 0.0
H917 H 0.37568 0.01988 0.73002 0.0
H918 H 0.38866 0.98207 0.84779 0.0
H919 H 0.41026 0.02066 0.88008 0.0
H920 H 0.43123 0.05834 0.7771 0.0
C921 C 0.38231 0.97122 0.70562 0.0
C922 C 0.36839 0.9463 0.71274 0.0
C923 C 0.36371 0.93821 0.74915 0.0
C924 C 0.37276 0.95439 0.778 0.0
C925 C 0.3865 0.97872 0.77021 0.0
C926 C 0.39127 0.98725 0.73505 0.0
C927 C 0.40664 0.01446 0.73472 0.0
C928 C 0.43096 0.02252 0.71628 0.0
C929 C 0.39325 0.02587 0.71653 0.0
C930 C 0.40968 0.01969 0.77512 0.0
C931 C 0.39789 0.99873 0.79494 0.0
C932 C 0.39796 0.99867 0.83265 0.0
C933 C 0.41031 0.0207 0.85075 0.0
C934 C 0.42243 0.04252 0.83118 0.0
C935 C 0.42214 0.04195 0.79281 0.0
H936 H 0.02751 0.40996 0.67135 0.0
H937 H 0.08632 0.42861 0.74641 0.0
H938 H 0.05784 0.41324 0.79704 0.0
H939 H 0.99363 0.42641 0.72974 0.0
H940 H 0.96466 0.40195 0.71653 0.0
H941 H 0.98942 0.41347 0.68514 0.0
H942 H 0.98377 0.37088 0.67792 0.0
H943 H 0.95892 0.35921 0.70919 0.0
H944 H 0.98396 0.35462 0.71758 0.0
H945 H 0.02405 0.39782 0.84011 0.0
H946 H 0.98587 0.38166 0.87345 0.0
H947 H 0.94793 0.37206 0.77196 0.0
C948 C 0.03429 0.41054 0.69839 0.0
C949 C 0.05919 0.42051 0.70482 0.0
C950 C 0.06738 0.42113 0.74068 0.0
C951 C 0.05133 0.41241 0.76975 0.0
C952 C 0.02703 0.40302 0.7627 0.0
C953 C 0.01841 0.40186 0.72802 0.0
C954 C 0.99132 0.39121 0.7285 0.0
C955 C 0.98436 0.40935 0.71413 0.0
C956 C 0.97876 0.36757 0.70702 0.0
C957 C 0.98629 0.38682 0.76883 0.0
C958 C 0.00722 0.3938 0.78793 0.0
C959 C 0.00747 0.39212 0.82551 0.0
C960 C 0.98569 0.38296 0.84422 0.0
C961 C 0.96391 0.37552 0.82536 0.0
C962 C 0.96427 0.37746 0.78712 0.0
H963 H 0.6137 0.58989 0.83744 0.0
H964 H 0.65478 0.5717 0.76351 0.0
H965 H 0.64319 0.58836 0.71276 0.0
H966 H 0.56478 0.57513 0.77664 0.0
H967 H 0.56039 0.59957 0.79032 0.0
H968 H 0.5726 0.58714 0.82188 0.0
H969 H 0.60974 0.62934 0.83164 0.0
H970 H 0.5976 0.64191 0.80015 0.0
H971 H 0.62725 0.64623 0.79308 0.0
H972 H 0.62646 0.60528 0.66945 0.0
H973 H 0.60555 0.62242 0.63564 0.0
H974 H 0.57504 0.63037 0.73612 0.0
C975 C 0.6204 0.58966 0.81062 0.0
C976 C 0.63518 0.57948 0.80454 0.0
C977 C 0.64342 0.57932 0.76896 0.0
C978 C 0.63697 0.58879 0.73984 0.0
C979 C 0.62225 0.59843 0.74655 0.0
C980 C 0.61406 0.59905 0.78094 0.0
C981 C 0.59793 0.61004 0.78007 0.0
C982 C 0.57241 0.59188 0.79299 0.0
C983 C 0.60879 0.63326 0.80257 0.0
C984 C 0.59832 0.61528 0.73986 0.0
C985 C 0.61251 0.60842 0.72117 0.0
C986 C 0.61537 0.61087 0.68374 0.0
C987 C 0.60338 0.62059 0.66476 0.0
C988 C 0.58873 0.62781 0.68319 0.0
C989 C 0.58625 0.62516 0.7213 0.0
H990 H 0.20575 0.03607 0.98779 0.0
H991 H 0.28304 0.06761 0.97989 0.0
H992 H 0.28806 0.10772 0.99359 0.0
H993 H 0.2022 0.08534 0.94723 0.0
H994 H 0.17824 0.08144 0.97691 0.0
H995 H 0.18138 0.05601 0.96492 0.0
H996 H 0.18305 0.04708 0.03303 0.0
H997 H 0.18011 0.07257 0.04524 0.0
H998 H 0.20523 0.07022 0.06177 0.0
H999 H 0.28377 0.14458 0.0109 0.0
H1000 H 0.2707 0.17361 0.02817 0.0
H1001 H 0.19637 0.11603 0.02426 0.0
C1002 C 0.22379 0.05139 0.9886 0.0
C1003 C 0.24402 0.04874 0.98277 0.0
C1004 C 0.26728 0.06928 0.98417 0.0
C1005 C 0.27028 0.09209 0.99199 0.0
C1006 C 0.24982 0.09396 0.99814 0.0
C1007 C 0.22705 0.07405 0.99625 0.0
C1008 C 0.20784 0.08031 1.00445 0.0
C1009 C 0.19146 0.0755 0.97141 0.0
C1010 C 0.19321 0.06674 0.03812 0.0
C1011 C 0.22325 0.10686 0.01176 0.0
C1012 C 0.24742 0.11462 0.00794 0.0
C1013 C 0.26485 0.13862 0.01382 0.0
C1014 C 0.25727 0.15498 0.02371 0.0
C1015 C 0.2325 0.1472 0.02772 0.0
C1016 C 0.21547 0.12276 0.02157 0.0
H1017 H 0.96372 0.15614 0.98064 0.0
H1018 H 0.93611 0.20513 0.97064 0.0
H1019 H 0.89501 0.1715 0.98379 0.0
H1020 H 0.91265 0.10336 0.94194 0.0
H1021 H 0.91534 0.08344 0.97348 0.0
H1022 H 0.94165 0.11097 0.96005 0.0
H1023 H 0.95113 0.12335 0.02754 0.0
H1024 H 0.92475 0.09601 0.04117 0.0
H1025 H 0.92873 0.1246 0.05537 0.0
H1026 H 0.85699 0.13192 1.00184 0.0
H1027 H 0.82645 0.09108 0.02203 0.0
H1028 H 0.8809 0.06996 0.02121 0.0
C1029 C 0.94903 0.15983 0.98057 0.0
C1030 C 0.95306 0.18321 0.97442 0.0
C1031 C 0.93335 0.18727 0.97504 0.0
C1032 C 0.91 0.16831 0.98255 0.0
C1033 C 0.9068 0.14551 0.98937 0.0
C1034 C 0.92588 0.14132 0.98825 0.0
C1035 C 0.91834 0.11576 0.99835 0.0
C1036 C 0.92222 0.10261 0.96656 0.0
C1037 C 0.93151 0.1149 0.03264 0.0
C1038 C 0.89198 0.10608 0.00559 0.0
C1039 C 0.88547 0.12333 1.00017 0.0
C1040 C 0.86194 0.1183 0.00598 0.0
C1041 C 0.84473 0.09506 0.01752 0.0
C1042 C 0.85121 0.07723 0.02335 0.0
C1043 C 0.8752 0.08304 0.01714 0.0
H1044 H 0.82102 0.75151 0.00732 0.0
H1045 H 0.84425 0.80531 0.92281 0.0
H1046 H 0.88392 0.80848 0.92182 0.0
H1047 H 0.87322 0.78091 0.05654 0.0
H1048 H 0.87433 0.75482 0.07158 0.0
H1049 H 0.84593 0.75232 0.06052 0.0
H1050 H 0.83736 0.71867 0.0143 0.0
H1051 H 0.86573 0.72094 0.02542 0.0
H1052 H 0.8589 0.72405 0.97907 0.0
H1053 H 0.92199 0.81081 0.93549 0.0
H1054 H 0.95751 0.81294 0.96406 0.0
H1055 H 0.91186 0.75858 0.04191 0.0
C1056 C 0.83424 0.76317 0.98767 0.0
C1057 C 0.82947 0.77773 0.96439 0.0
C1058 C 0.84742 0.7937 0.94026 0.0
C1059 C 0.87001 0.79557 0.93948 0.0
C1060 C 0.87452 0.78156 0.9634 0.0
C1061 C 0.85724 0.76564 0.98713 0.0
C1062 C 0.86801 0.75532 0.01332 0.0
C1063 C 0.86521 0.76121 0.05281 0.0
C1064 C 0.85683 0.72812 0.00768 0.0
C1065 C 0.89415 0.76871 1.00146 0.0
C1066 C 0.89723 0.78337 0.97214 0.0
C1067 C 0.9198 0.7991 0.95799 0.0
C1068 C 0.93987 0.80029 0.97456 0.0
C1069 C 0.93737 0.78585 0.00501 0.0
C1070 C 0.91417 0.76943 0.01819 0.0
H1071 H 0.11731 0.18628 0.49024 0.0
H1072 H 0.17351 0.26124 0.48785 0.0
H1073 H 0.14422 0.273 0.5085 0.0
H1074 H 0.07058 0.19466 0.45669 0.0
H1075 H 0.04781 0.17179 0.48507 0.0
H1076 H 0.07353 0.16957 0.47165 0.0
H1077 H 0.08309 0.16682 0.53914 0.0
H1078 H 0.05745 0.1692 0.55277 0.0
H1079 H 0.08683 0.19009 0.5702 0.0
H1080 H 0.10779 0.2764 0.52714 0.0
H1081 H 0.06761 0.27104 0.54042 0.0
H1082 H 0.03638 0.19382 0.53125 0.0
C1083 C 0.12361 0.20521 0.49411 0.0
C1084 C 0.14777 0.22282 0.48729 0.0
C1085 C 0.1551 0.24737 0.49282 0.0
C1086 C 0.13861 0.25424 0.50466 0.0
C1087 C 0.11493 0.23633 0.51108 0.0
C1088 C 0.10751 0.21232 0.50599 0.0
C1089 C 0.081 0.19652 0.51372 0.0
C1090 C 0.06744 0.18231 0.47976 0.0
C1091 C 0.07686 0.17967 0.54587 0.0
C1092 C 0.07449 0.21537 0.52342 0.0
C1093 C 0.09425 0.23825 0.522 0.0
C1094 C 0.09225 0.25854 0.5286 0.0
C1095 C 0.06939 0.25534 0.53618 0.0
C1096 C 0.04892 0.23203 0.53699 0.0
C1097 C 0.0517 0.21187 0.53112 0.0
H1098 H 0.80579 0.84743 0.52863 0.0
H1099 H 0.72901 0.79934 0.53973 0.0
H1100 H 0.72194 0.83285 0.52474 0.0
H1101 H 0.80756 0.90098 0.56549 0.0
H1102 H 0.83034 0.92059 0.53387 0.0
H1103 H 0.82902 0.89319 0.54822 0.0
H1104 H 0.82642 0.88023 0.48111 0.0
H1105 H 0.82743 0.90742 0.46656 0.0
H1106 H 0.80288 0.87868 0.4527 0.0
H1107 H 0.72353 0.87169 0.50477 0.0
H1108 H 0.73373 0.91239 0.48433 0.0
H1109 H 0.80943 0.93388 0.48573 0.0
C1110 C 0.78749 0.84399 0.52852 0.0
C1111 C 0.76794 0.82081 0.53547 0.0
C1112 C 0.74426 0.81702 0.53468 0.0
C1113 C 0.74008 0.83592 0.5261 0.0
C1114 C 0.75978 0.85845 0.51846 0.0
C1115 C 0.78302 0.86254 0.5199 0.0
C1116 C 0.80109 0.88804 0.50934 0.0
C1117 C 0.81799 0.90149 0.54113 0.0
C1118 C 0.81528 0.88861 0.47542 0.0
C1119 C 0.78442 0.89768 0.50134 0.0
C1120 C 0.76066 0.88046 0.5068 0.0
C1121 C 0.74211 0.88533 0.50058 0.0
C1122 C 0.74807 0.90848 0.48882 0.0
C1123 C 0.77239 0.92642 0.48331 0.0
C1124 C 0.79065 0.9207 0.4896 0.0
H1125 H 0.06844 0.87809 0.49077 0.0
H1126 H 0.08894 0.82343 0.48074 0.0
H1127 H 0.12988 0.85275 0.50213 0.0
H1128 H 0.12293 0.92684 0.45917 0.0
H1129 H 0.12209 0.94814 0.49001 0.0
H1130 H 0.09453 0.92246 0.47524 0.0
H1131 H 0.08232 0.91026 0.54222 0.0
H1132 H 0.10998 0.93582 0.55718 0.0
H1133 H 0.10223 0.90605 0.57176 0.0
H1134 H 0.16939 0.8893 0.52282 0.0
H1135 H 0.20352 0.92954 0.53827 0.0
H1136 H 0.15559 0.95872 0.5353 0.0
C1137 C 0.08141 0.8721 0.49306 0.0
C1138 C 0.0754 0.8484 0.48396 0.0
C1139 C 0.09309 0.8415 0.48746 0.0
C1140 C 0.11637 0.858 0.49973 0.0
C1141 C 0.12157 0.88123 0.50857 0.0
C1142 C 0.10451 0.88818 0.5053 0.0
C1143 C 0.11453 0.91424 0.51539 0.0
C1144 C 0.11346 0.92877 0.48302 0.0
C1145 C 0.10149 0.91672 0.54861 0.0
C1146 C 0.14006 0.92108 0.52442 0.0
C1147 C 0.14388 0.90187 0.5206 0.0
C1148 C 0.16651 0.9044 0.52615 0.0
C1149 C 0.18576 0.92727 0.53503 0.0
C1150 C 0.18216 0.9472 0.5381 0.0
C1151 C 0.1589 0.94382 0.53342 0.0
H1152 H 0.8074 0.96364 0.0329 0.0
H1153 H 0.7302 0.93294 0.04092 0.0
H1154 H 0.72462 0.89266 0.02731 0.0
H1155 H 0.80672 0.93036 0.95813 0.0
H1156 H 0.83171 0.9272 0.97292 0.0
H1157 H 0.82945 0.95275 0.98714 0.0
H1158 H 0.83157 0.94245 0.05446 0.0
H1159 H 0.83412 0.91699 0.04045 0.0
H1160 H 0.81061 0.9129 0.07127 0.0
H1161 H 0.72804 0.85594 0.00828 0.0
H1162 H 0.74008 0.82686 0.98711 0.0
H1163 H 0.81491 0.88328 0.99079 0.0
C1164 C 0.78929 0.94842 0.0325 0.0
C1165 C 0.76923 0.95138 0.03812 0.0
C1166 C 0.74584 0.93102 0.03694 0.0
C1167 C 0.74252 0.90811 0.02915 0.0
C1168 C 0.76277 0.90596 0.02275 0.0
C1169 C 0.78569 0.92564 0.02463 0.0
C1170 C 0.80454 0.91915 0.01482 0.0
C1171 C 0.81894 0.9332 0.98126 0.0
C1172 C 0.82118 0.9231 0.04718 0.0
C1173 C 0.78871 0.89278 0.00653 0.0
C1174 C 0.76468 0.88531 0.01144 0.0
C1175 C 0.74684 0.86162 1.00457 0.0
C1176 C 0.75384 0.84525 0.99247 0.0
C1177 C 0.77844 0.85273 0.98709 0.0
C1178 C 0.79593 0.87684 0.99442 0.0
H1179 H 0.13063 0.93023 0.97584 0.0
H1180 H 0.18523 0.90989 0.9884 0.0
H1181 H 0.15362 0.86887 0.00641 0.0
H1182 H 0.09516 0.89842 0.05155 0.0
H1183 H 0.06711 0.89027 0.0294 0.0
H1184 H 0.09401 0.91743 0.01667 0.0
H1185 H 0.088 0.90325 0.94975 0.0
H1186 H 0.06097 0.87614 0.96223 0.0
H1187 H 0.08472 0.87441 0.93901 0.0
H1188 H 0.11469 0.82957 0.02428 0.0
H1189 H 0.07323 0.79669 0.03779 0.0
H1190 H 0.04616 0.84487 0.01369 0.0
C1191 C 0.13613 0.91726 0.98223 0.0
C1192 C 0.16051 0.92339 0.98069 0.0
C1193 C 0.16667 0.90564 0.98921 0.0
C1194 C 0.14884 0.88232 0.9996 0.0
C1195 C 0.12498 0.87707 1.00124 0.0
C1196 C 0.11874 0.89414 0.99256 0.0
C1197 C 0.09208 0.88446 0.99636 0.0
C1198 C 0.08679 0.89848 0.02521 0.0
C1199 C 0.08078 0.88457 0.95966 0.0
C1200 C 0.08411 0.85922 0.00875 0.0
C1201 C 0.10317 0.85508 0.01146 0.0
C1202 C 0.0997 0.83271 0.02222 0.0
C1203 C 0.07613 0.81417 0.02994 0.0
C1204 C 0.05648 0.81822 0.02689 0.0
C1205 C 0.06075 0.84113 0.01644 0.0
H1206 H 0.18883 0.24873 0.99742 0.0
H1207 H 0.1628 0.19109 0.0761 0.0
H1208 H 0.1233 0.18813 0.07601 0.0
H1209 H 0.1509 0.2753 0.02771 0.0
H1210 H 0.14513 0.28063 0.98185 0.0
H1211 H 0.17305 0.28187 0.99295 0.0
H1212 H 0.16491 0.25015 0.94345 0.0
H1213 H 0.13699 0.24875 0.93231 0.0
H1214 H 0.13723 0.22174 0.94458 0.0
H1215 H 0.08602 0.18732 0.06282 0.0
H1216 H 0.05136 0.18729 0.0348 0.0
H1217 H 0.09896 0.24437 0.96197 0.0
C1218 C 0.17496 0.23612 0.01544 0.0
C1219 C 0.179 0.2205 0.03753 0.0
C1220 C 0.16025 0.20347 0.05958 0.0
C1221 C 0.13772 0.20171 0.05976 0.0
C1222 C 0.13402 0.2169 0.03727 0.0
C1223 C 0.15197 0.23373 0.01529 0.0
C1224 C 0.14201 0.2455 0.99033 0.0
C1225 C 0.15345 0.27243 0.99872 0.0
C1226 C 0.14549 0.24127 0.9503 0.0
C1227 C 0.11559 0.23198 1.00094 0.0
C1228 C 0.1117 0.21595 0.02862 0.0
C1229 C 0.08882 0.20004 0.04155 0.0
C1230 C 0.06925 0.20009 0.02535 0.0
C1231 C 0.07255 0.21588 0.99644 0.0
C1232 C 0.09606 0.23247 0.98454 0.0
H1233 H 0.9631 0.80601 0.48824 0.0
H1234 H 0.93081 0.7298 0.46587 0.0
H1235 H 0.89065 0.72434 0.47996 0.0
H1236 H 0.92661 0.80062 0.56337 0.0
H1237 H 0.92503 0.82712 0.55248 0.0
H1238 H 0.95078 0.82498 0.53886 0.0
H1239 H 0.94418 0.8327 0.47206 0.0
H1240 H 0.91851 0.83506 0.48549 0.0
H1241 H 0.91541 0.81382 0.45104 0.0
H1242 H 0.85404 0.7275 0.49879 0.0
H1243 H 0.82447 0.73896 0.51904 0.0
H1244 H 0.88183 0.81308 0.52929 0.0
C1245 C 0.94759 0.78816 0.48594 0.0
C1246 C 0.95004 0.76831 0.47589 0.0
C1247 C 0.9293 0.74527 0.47341 0.0
C1248 C 0.90645 0.74201 0.48142 0.0
C1249 C 0.90476 0.76199 0.49179 0.0
C1250 C 0.92482 0.78462 0.49387 0.0
C1251 C 0.91847 0.80315 0.50635 0.0
C1252 C 0.93096 0.81463 0.54241 0.0
C1253 C 0.9245 0.8223 0.47698 0.0
C1254 C 0.89165 0.78744 0.51124 0.0
C1255 C 0.88398 0.76376 0.50268 0.0
C1256 C 0.85988 0.74601 0.50546 0.0
C1257 C 0.84322 0.7527 0.51709 0.0
C1258 C 0.85075 0.77694 0.52587 0.0
C1259 C 0.87536 0.7944 0.52287 0.0
H1260 H 0.19135 0.15186 0.48041 0.0
H1261 H 0.26793 0.19875 0.4644 0.0
H1262 H 0.27462 0.16481 0.47791 0.0
H1263 H 0.19578 0.12124 0.55525 0.0
H1264 H 0.17052 0.09252 0.54308 0.0
H1265 H 0.17161 0.11974 0.52848 0.0
H1266 H 0.1668 0.10573 0.46161 0.0
H1267 H 0.16539 0.07829 0.47603 0.0
H1268 H 0.18735 0.09719 0.44289 0.0
H1269 H 0.27284 0.12598 0.49768 0.0
H1270 H 0.26269 0.08571 0.51995 0.0
H1271 H 0.18731 0.06537 0.52369 0.0
C1272 C 0.20951 0.15494 0.47905 0.0
C1273 C 0.22913 0.17789 0.47124 0.0
C1274 C 0.25263 0.18123 0.47014 0.0
C1275 C 0.25659 0.16208 0.47783 0.0
C1276 C 0.23684 0.13978 0.48642 0.0
C1277 C 0.21375 0.13614 0.48677 0.0
C1278 C 0.19568 0.11093 0.49855 0.0
C1279 C 0.18264 0.11114 0.53341 0.0
C1280 C 0.17775 0.09723 0.46794 0.0
C1281 C 0.2122 0.10098 0.50539 0.0
C1282 C 0.23587 0.11777 0.49807 0.0
C1283 C 0.25433 0.11266 0.50325 0.0
C1284 C 0.2484 0.08975 0.51604 0.0
C1285 C 0.2242 0.07231 0.5237 0.0
C1286 C 0.206 0.07819 0.51818 0.0
H1287 H 0.92755 0.12057 0.52986 0.0
H1288 H 0.90971 0.1773 0.524 0.0
H1289 H 0.86827 0.14738 0.50551 0.0
H1290 H 0.89334 0.08733 0.45266 0.0
H1291 H 0.88454 0.0586 0.47294 0.0
H1292 H 0.91258 0.08458 0.48548 0.0
H1293 H 0.89987 0.07758 0.55306 0.0
H1294 H 0.87185 0.05152 0.54075 0.0
H1295 H 0.87186 0.07539 0.56636 0.0
H1296 H 0.82808 0.11019 0.48815 0.0
H1297 H 0.79353 0.06972 0.47475 0.0
H1298 H 0.83921 0.03882 0.49183 0.0
C1299 C 0.91504 0.12686 0.52477 0.0
C1300 C 0.92198 0.15137 0.52852 0.0
C1301 C 0.90487 0.15864 0.52142 0.0
C1302 C 0.88129 0.14177 0.51083 0.0
C1303 C 0.87515 0.11775 0.50735 0.0
C1304 C 0.89162 0.1104 0.51415 0.0
C1305 C 0.88078 0.08366 0.50883 0.0
C1306 C 0.89357 0.07824 0.47815 0.0
C1307 C 0.88111 0.07132 0.54437 0.0
C1308 C 0.85552 0.07696 0.49816 0.0
C1309 C 0.85248 0.09676 0.49731 0.0
C1310 C 0.83034 0.09461 0.48865 0.0
C1311 C 0.81084 0.0716 0.48103 0.0
C1312 C 0.8137 0.05115 0.48219 0.0
C1313 C 0.83642 0.05407 0.49058 0.0
H1314 H 0.85719 0.45352 0.37004 0.0
H1315 H 0.93185 0.50991 0.36188 0.0
H1316 H 0.94282 0.47964 0.34296 0.0
H1317 H 0.86791 0.4074 0.40477 0.0
H1318 H 0.8434 0.38396 0.3795 0.0
H1319 H 0.84207 0.41009 0.39353 0.0
H1320 H 0.83516 0.4178 0.32685 0.0
H1321 H 0.83671 0.39185 0.31256 0.0
H1322 H 0.85649 0.42076 0.29263 0.0
H1323 H 0.94499 0.44238 0.32314 0.0
H1324 H 0.93827 0.40205 0.30672 0.0
H1325 H 0.86207 0.37153 0.32748 0.0
C1326 C 0.87593 0.45966 0.36458 0.0
C1327 C 0.89365 0.48418 0.36755 0.0
C1328 C 0.91793 0.49122 0.36002 0.0
C1329 C 0.92432 0.47417 0.34912 0.0
C1330 C 0.90623 0.45018 0.34593 0.0
C1331 C 0.88256 0.44301 0.35367 0.0
C1332 C 0.86631 0.41635 0.34786 0.0
C1333 C 0.85422 0.40371 0.38354 0.0
C1334 C 0.84757 0.41141 0.31821 0.0
C1335 C 0.88446 0.4095 0.33546 0.0
C1336 C 0.90743 0.42915 0.33447 0.0
C1337 C 0.92707 0.42691 0.32388 0.0
C1338 C 0.92308 0.40397 0.31451 0.0
C1339 C 0.89966 0.38367 0.31576 0.0
C1340 C 0.88019 0.38667 0.32613 0.0
H1341 H 0.63211 0.49508 0.32874 0.0
H1342 H 0.6036 0.54301 0.31377 0.0
H1343 H 0.56281 0.50964 0.32863 0.0
H1344 H 0.58229 0.4426 0.29014 0.0
H1345 H 0.58432 0.42247 0.32203 0.0
H1346 H 0.61085 0.45017 0.30996 0.0
H1347 H 0.61861 0.46206 0.37779 0.0
H1348 H 0.59201 0.43447 0.39007 0.0
H1349 H 0.59543 0.46285 0.40424 0.0
H1350 H 0.52491 0.4703 0.34586 0.0
H1351 H 0.49365 0.42888 0.36206 0.0
H1352 H 0.54819 0.40792 0.36574 0.0
C1353 C 0.61731 0.49861 0.32844 0.0
C1354 C 0.621 0.52163 0.32009 0.0
C1355 C 0.60115 0.52547 0.32006 0.0
C1356 C 0.57795 0.50665 0.32853 0.0
C1357 C 0.575 0.48417 0.33694 0.0
C1358 C 0.5942 0.48014 0.33682 0.0
C1359 C 0.58651 0.4545 0.34674 0.0
C1360 C 0.59127 0.44168 0.31534 0.0
C1361 C 0.59887 0.45342 0.3818 0.0
C1362 C 0.55992 0.44459 0.35247 0.0
C1363 C 0.55352 0.46188 0.34679 0.0
C1364 C 0.52977 0.45665 0.35039 0.0
C1365 C 0.51214 0.43308 0.3597 0.0
C1366 C 0.51838 0.41505 0.36526 0.0
C1367 C 0.54268 0.42114 0.36176 0.0
H1368 H 0.50871 0.14269 0.32566 0.0
H1369 H 0.46165 0.06616 0.30959 0.0
H1370 H 0.49545 0.05931 0.32379 0.0
H1371 H 0.56205 0.14635 0.28686 0.0
H1372 H 0.58175 0.1685 0.31916 0.0
H1373 H 0.55397 0.16699 0.30656 0.0
H1374 H 0.54152 0.16244 0.37419 0.0
H1375 H 0.56916 0.16374 0.38697 0.0
H1376 H 0.5408 0.1385 0.40057 0.0
H1377 H 0.53483 0.06121 0.34199 0.0
H1378 H 0.57605 0.07175 0.36015 0.0
H1379 H 0.59613 0.14704 0.36399 0.0
C1380 C 0.50549 0.12447 0.32484 0.0
C1381 C 0.48257 0.10494 0.31652 0.0
C1382 C 0.47912 0.0814 0.31582 0.0
C1383 C 0.49818 0.07734 0.32392 0.0
C1384 C 0.52052 0.09705 0.33252 0.0
C1385 C 0.52421 0.12015 0.33279 0.0
C1386 C 0.5497 0.1383 0.34322 0.0
C1387 C 0.56262 0.15607 0.31209 0.0
C1388 C 0.55031 0.15151 0.37832 0.0
C1389 C 0.55984 0.12185 0.34908 0.0
C1390 C 0.54285 0.09811 0.34281 0.0
C1391 C 0.54827 0.07977 0.34686 0.0
C1392 C 0.57172 0.08592 0.3573 0.0
C1393 C 0.58942 0.11023 0.36355 0.0
C1394 C 0.58316 0.12827 0.35944 0.0
H1395 H 0.78751 0.52133 0.8248 0.0
H1396 H 0.84185 0.597 0.82619 0.0
H1397 H 0.81144 0.60686 0.84811 0.0
H1398 H 0.73996 0.52859 0.79235 0.0
H1399 H 0.71737 0.5046 0.81949 0.0
H1400 H 0.74378 0.50375 0.80576 0.0
H1401 H 0.75298 0.49973 0.87297 0.0
H1402 H 0.72665 0.50075 0.88692 0.0
H1403 H 0.75562 0.5219 0.90539 0.0
H1404 H 0.77411 0.60833 0.86737 0.0
H1405 H 0.73324 0.60129 0.8801 0.0
H1406 H 0.70442 0.52466 0.86664 0.0
C1407 C 0.79318 0.54002 0.82982 0.0
C1408 C 0.81714 0.55838 0.82367 0.0
C1409 C 0.82362 0.58258 0.83061 0.0
C1410 C 0.80649 0.58836 0.84321 0.0
C1411 C 0.78303 0.56974 0.84893 0.0
C1412 C 0.77643 0.54607 0.84243 0.0
C1413 C 0.74997 0.52938 0.84939 0.0
C1414 C 0.73702 0.51579 0.81468 0.0
C1415 C 0.74609 0.51191 0.88052 0.0
C1416 C 0.74252 0.54736 0.86026 0.0
C1417 C 0.76181 0.57056 0.86014 0.0
C1418 C 0.75894 0.59022 0.86784 0.0
C1419 C 0.7357 0.58605 0.87512 0.0
C1420 C 0.7157 0.56243 0.87449 0.0
C1421 C 0.71936 0.54291 0.86764 0.0
H1422 H 0.47539 0.17541 0.85455 0.0
H1423 H 0.39891 0.12676 0.86802 0.0
H1424 H 0.39124 0.16005 0.85386 0.0
H1425 H 0.47711 0.22783 0.8936 0.0
H1426 H 0.4995 0.24804 0.862 0.0
H1427 H 0.49852 0.22052 0.87467 0.0
H1428 H 0.49522 0.20849 0.80696 0.0
H1429 H 0.49604 0.23588 0.79409 0.0
H1430 H 0.4714 0.20735 0.77973 0.0
H1431 H 0.39245 0.19927 0.83594 0.0
H1432 H 0.40239 0.24019 0.81697 0.0
H1433 H 0.47809 0.2617 0.81549 0.0
C1434 C 0.457 0.17172 0.85483 0.0
C1435 C 0.43773 0.14853 0.8624 0.0
C1436 C 0.41395 0.14446 0.86236 0.0
C1437 C 0.40944 0.16324 0.85433 0.0
C1438 C 0.42894 0.1859 0.84655 0.0
C1439 C 0.45224 0.19013 0.84693 0.0
C1440 C 0.47012 0.21578 0.83702 0.0
C1441 C 0.48732 0.22881 0.86872 0.0
C1442 C 0.484 0.21693 0.80239 0.0
C1443 C 0.45329 0.22539 0.83055 0.0
C1444 C 0.4296 0.20803 0.83626 0.0
C1445 C 0.41097 0.21298 0.8315 0.0
C1446 C 0.41678 0.23627 0.82067 0.0
C1447 C 0.44102 0.25424 0.8146 0.0
C1448 C 0.45936 0.24851 0.81975 0.0
H1449 H 0.74445 0.21912 0.80752 0.0
H1450 H 0.76162 0.1621 0.81779 0.0
H1451 H 0.80308 0.19218 0.83622 0.0
H1452 H 0.80146 0.26415 0.77184 0.0
H1453 H 0.80081 0.2881 0.79621 0.0
H1454 H 0.77313 0.26201 0.78276 0.0
H1455 H 0.7586 0.25536 0.84953 0.0
H1456 H 0.78634 0.28128 0.86323 0.0
H1457 H 0.77685 0.25257 0.88412 0.0
H1458 H 0.84294 0.22947 0.85532 0.0
H1459 H 0.87693 0.2699 0.87069 0.0
H1460 H 0.83179 0.30076 0.84817 0.0
C1461 C 0.75685 0.2128 0.81339 0.0
C1462 C 0.7497 0.18818 0.81117 0.0
C1463 C 0.76668 0.18088 0.81911 0.0
C1464 C 0.79024 0.19782 0.82973 0.0
C1465 C 0.79649 0.22193 0.83218 0.0
C1466 C 0.78021 0.22931 0.82399 0.0
C1467 C 0.79094 0.25605 0.82893 0.0
C1468 C 0.79163 0.26829 0.79279 0.0
C1469 C 0.77738 0.26162 0.85819 0.0
C1470 C 0.81585 0.26271 0.84141 0.0
C1471 C 0.81889 0.24292 0.84317 0.0
C1472 C 0.84069 0.24505 0.85398 0.0
C1473 C 0.85986 0.26803 0.86276 0.0
C1474 C 0.85698 0.28844 0.86069 0.0
C1475 C 0.8346 0.28554 0.85014 0.0
H1476 H 0.47684 0.21883 0.31535 0.0
H1477 H 0.40165 0.16319 0.31729 0.0
H1478 H 0.39052 0.19376 0.33334 0.0
H1479 H 0.47467 0.25252 0.39071 0.0
H1480 H 0.49556 0.28113 0.37093 0.0
H1481 H 0.49731 0.25482 0.35952 0.0
H1482 H 0.49357 0.26202 0.29131 0.0
H1483 H 0.49194 0.28842 0.30249 0.0
H1484 H 0.46847 0.26482 0.27595 0.0
H1485 H 0.38802 0.23131 0.34955 0.0
H1486 H 0.39448 0.27199 0.36266 0.0
H1487 H 0.47129 0.30168 0.34982 0.0
C1488 C 0.45798 0.21291 0.31907 0.0
C1489 C 0.44014 0.18852 0.315 0.0
C1490 C 0.41568 0.18176 0.32015 0.0
C1491 C 0.40919 0.19899 0.32936 0.0
C1492 C 0.42734 0.22287 0.33331 0.0
C1493 C 0.45122 0.22975 0.32821 0.0
C1494 C 0.46743 0.25644 0.33377 0.0
C1495 C 0.48476 0.26151 0.36563 0.0
C1496 C 0.48115 0.26863 0.2988 0.0
C1497 C 0.44898 0.26363 0.34274 0.0
C1498 C 0.42593 0.24412 0.34249 0.0
C1499 C 0.40602 0.24668 0.34983 0.0
C1500 C 0.40984 0.26981 0.3573 0.0
C1501 C 0.43337 0.28997 0.35727 0.0
C1502 C 0.45307 0.28665 0.3501 0.0
H1503 H 0.78578 0.26455 0.31108 0.0
H1504 H 0.84139 0.24514 0.31726 0.0
H1505 H 0.81084 0.20402 0.33612 0.0
H1506 H 0.75261 0.23171 0.3885 0.0
H1507 H 0.72382 0.22314 0.3686 0.0
H1508 H 0.75002 0.2507 0.35503 0.0
H1509 H 0.74229 0.23698 0.28792 0.0
H1510 H 0.71596 0.20946 0.30125 0.0
H1511 H 0.73932 0.20848 0.27561 0.0
H1512 H 0.77342 0.16469 0.35529 0.0
H1513 H 0.73287 0.13103 0.37065 0.0
H1514 H 0.70304 0.17749 0.35184 0.0
C1515 C 0.79168 0.25173 0.31623 0.0
C1516 C 0.81607 0.25817 0.31262 0.0
C1517 C 0.82282 0.24067 0.31968 0.0
C1518 C 0.8056 0.21728 0.33053 0.0
C1519 C 0.78174 0.21169 0.33415 0.0
C1520 C 0.77484 0.22847 0.32703 0.0
C1521 C 0.7482 0.21821 0.3328 0.0
C1522 C 0.74339 0.23175 0.36303 0.0
C1523 C 0.73571 0.21828 0.29728 0.0
C1524 C 0.74105 0.19297 0.34434 0.0
C1525 C 0.76056 0.18944 0.34507 0.0
C1526 C 0.75806 0.16732 0.35478 0.0
C1527 C 0.735 0.14833 0.36355 0.0
C1528 C 0.71482 0.15165 0.36248 0.0
C1529 C 0.71808 0.17435 0.35301 0.0
H1530 H 0.8425 0.58064 0.38838 0.0
H1531 H 0.85356 0.54684 0.29451 0.0
H1532 H 0.82 0.54735 0.26313 0.0
H1533 H 0.78026 0.54688 0.38675 0.0
H1534 H 0.77461 0.57048 0.40068 0.0
H1535 H 0.8021 0.57158 0.41368 0.0
H1536 H 0.82666 0.61368 0.38449 0.0
H1537 H 0.79916 0.6127 0.37137 0.0
H1538 H 0.82156 0.61785 0.33771 0.0
H1539 H 0.78273 0.54597 0.2452 0.0
H1540 H 0.7427 0.54228 0.2418 0.0
H1541 H 0.75429 0.57705 0.34632 0.0
C1542 C 0.83821 0.5741 0.36081 0.0
C1543 C 0.85069 0.56403 0.34345 0.0
C1544 C 0.84423 0.55481 0.30794 0.0
C1545 C 0.8253 0.55512 0.28988 0.0
C1546 C 0.81289 0.56464 0.30779 0.0
C1547 C 0.81899 0.57401 0.34243 0.0
C1548 C 0.80087 0.58062 0.35673 0.0
C1549 C 0.78875 0.56654 0.39151 0.0
C1550 C 0.81278 0.60784 0.36294 0.0
C1551 C 0.78327 0.57264 0.32528 0.0
C1552 C 0.79088 0.56383 0.29718 0.0
C1553 C 0.77681 0.55332 0.26658 0.0
C1554 C 0.75413 0.55127 0.26487 0.0
C1555 C 0.7458 0.55984 0.2934 0.0
C1556 C 0.7607 0.5711 0.32368 0.0
H1557 H 0.60184 0.09233 0.78776 0.0
H1558 H 0.64603 0.12465 0.88274 0.0
H1559 H 0.61162 0.12329 0.91439 0.0
H1560 H 0.57315 0.12577 0.79111 0.0
H1561 H 0.54404 0.10235 0.7763 0.0
H1562 H 0.5706 0.10163 0.76309 0.0
H1563 H 0.55296 0.05902 0.79047 0.0
H1564 H 0.52628 0.05962 0.80382 0.0
H1565 H 0.54334 0.05395 0.83711 0.0
H1566 H 0.57551 0.12405 0.93266 0.0
H1567 H 0.53908 0.12757 0.93638 0.0
H1568 H 0.51679 0.09477 0.83044 0.0
C1569 C 0.60387 0.09837 0.81559 0.0
C1570 C 0.62632 0.10828 0.83321 0.0
C1571 C 0.62881 0.11684 0.8691 0.0
C1572 C 0.60937 0.11602 0.88731 0.0
C1573 C 0.58755 0.10667 0.86916 0.0
C1574 C 0.58456 0.09796 0.83412 0.0
C1575 C 0.55992 0.09151 0.81968 0.0
C1576 C 0.56207 0.1062 0.78553 0.0
C1577 C 0.54472 0.06441 0.81234 0.0
C1578 C 0.55003 0.09884 0.85154 0.0
C1579 C 0.56621 0.10715 0.87995 0.0
C1580 C 0.56241 0.11707 0.91103 0.0
C1581 C 0.54174 0.11902 0.91292 0.0
C1582 C 0.5251 0.11098 0.88406 0.0
C1583 C 0.52898 0.10031 0.85328 0.0
H1584 H 0.86423 0.49114 0.80909 0.0
H1585 H 0.94098 0.54063 0.803 0.0
H1586 H 0.94849 0.50727 0.81733 0.0
H1587 H 0.86565 0.45903 0.88408 0.0
H1588 H 0.84187 0.43033 0.86851 0.0
H1589 H 0.84274 0.4575 0.85423 0.0
H1590 H 0.84235 0.44579 0.78691 0.0
H1591 H 0.84116 0.4184 0.80097 0.0
H1592 H 0.86465 0.43881 0.77094 0.0
H1593 H 0.94707 0.46831 0.83713 0.0
H1594 H 0.93689 0.42759 0.85762 0.0
H1595 H 0.86105 0.40507 0.851 0.0
C1596 C 0.88264 0.49495 0.81009 0.0
C1597 C 0.90203 0.51844 0.80484 0.0
C1598 C 0.92585 0.52269 0.8067 0.0
C1599 C 0.93027 0.50388 0.81493 0.0
C1600 C 0.91066 0.48099 0.821 0.0
C1601 C 0.88732 0.47651 0.81829 0.0
C1602 C 0.8693 0.45077 0.82754 0.0
C1603 C 0.854 0.44934 0.86055 0.0
C1604 C 0.85344 0.43767 0.79463 0.0
C1605 C 0.88607 0.44144 0.83647 0.0
C1606 C 0.90987 0.45899 0.83246 0.0
C1607 C 0.92847 0.45441 0.8401 0.0
C1608 C 0.92252 0.43126 0.85187 0.0
C1609 C 0.89816 0.41304 0.85601 0.0
C1610 C 0.87986 0.41844 0.84816 0.0
H1611 H 0.59674 0.45006 0.85264 0.0
H1612 H 0.5767 0.50531 0.85273 0.0
H1613 H 0.53613 0.47549 0.83086 0.0
H1614 H 0.56401 0.41916 0.7719 0.0
H1615 H 0.55574 0.38994 0.78975 0.0
H1616 H 0.58331 0.4159 0.80401 0.0
H1617 H 0.57001 0.40629 0.87115 0.0
H1618 H 0.54251 0.38025 0.85712 0.0
H1619 H 0.54152 0.40281 0.88483 0.0
H1620 H 0.4968 0.4385 0.81141 0.0
H1621 H 0.46264 0.39793 0.79774 0.0
H1622 H 0.50977 0.36823 0.80969 0.0
C1623 C 0.58395 0.45606 0.84799 0.0
C1624 C 0.58998 0.48009 0.85453 0.0
C1625 C 0.57255 0.48701 0.84798 0.0
C1626 C 0.54947 0.47021 0.83545 0.0
C1627 C 0.54418 0.44665 0.82937 0.0
C1628 C 0.56101 0.43966 0.83542 0.0
C1629 C 0.55086 0.41322 0.82793 0.0
C1630 C 0.56428 0.40934 0.79653 0.0
C1631 C 0.55125 0.39986 0.8623 0.0
C1632 C 0.52553 0.40624 0.81721 0.0
C1633 C 0.52193 0.4257 0.81796 0.0
C1634 C 0.49951 0.4232 0.81045 0.0
C1635 C 0.48024 0.40013 0.80264 0.0
C1636 C 0.48359 0.37998 0.80251 0.0
C1637 C 0.50665 0.38329 0.80927 0.0
H1638 H 0.5295 0.70104 0.65967 0.0
H1639 H 0.60576 0.73328 0.63762 0.0
H1640 H 0.61139 0.77333 0.65299 0.0
H1641 H 0.52206 0.74914 0.62398 0.0
H1642 H 0.50076 0.74584 0.65847 0.0
H1643 H 0.50304 0.72022 0.64448 0.0
H1644 H 0.51056 0.71303 0.7111 0.0
H1645 H 0.5085 0.73873 0.72527 0.0
H1646 H 0.53491 0.73695 0.73599 0.0
H1647 H 0.60833 0.80992 0.67246 0.0
H1648 H 0.59686 0.8395 0.69273 0.0
H1649 H 0.52268 0.78215 0.70243 0.0
C1650 C 0.5474 0.71651 0.65776 0.0
C1651 C 0.5672 0.71408 0.64737 0.0
C1652 C 0.59032 0.73478 0.64542 0.0
C1653 C 0.59368 0.75756 0.65416 0.0
C1654 C 0.57374 0.75925 0.66479 0.0
C1655 C 0.55105 0.73923 0.66646 0.0
C1656 C 0.53256 0.74558 0.67917 0.0
C1657 C 0.51348 0.73986 0.64977 0.0
C1658 C 0.52096 0.73282 0.71501 0.0
C1659 C 0.54834 0.77235 0.68455 0.0
C1660 C 0.57204 0.78 0.67612 0.0
C1661 C 0.58981 0.80409 0.6791 0.0
C1662 C 0.58312 0.82075 0.69073 0.0
C1663 C 0.55885 0.81323 0.69932 0.0
C1664 C 0.5414 0.78863 0.69623 0.0
H1665 H 0.20791 0.73406 0.6785 0.0
H1666 H 0.15581 0.75707 0.69724 0.0
H1667 H 0.18618 0.79844 0.67904 0.0
H1668 H 0.25783 0.7846 0.71385 0.0
H1669 H 0.27862 0.78486 0.68083 0.0
H1670 H 0.25216 0.75704 0.69242 0.0
H1671 H 0.23973 0.74987 0.62473 0.0
H1672 H 0.26618 0.77777 0.61293 0.0
H1673 H 0.2369 0.77248 0.59994 0.0
H1674 H 0.22378 0.83811 0.66262 0.0
H1675 H 0.26484 0.872 0.65092 0.0
H1676 H 0.29108 0.8218 0.64284 0.0
C1677 C 0.20271 0.74768 0.67862 0.0
C1678 C 0.17947 0.7423 0.68949 0.0
C1679 C 0.17349 0.76074 0.68899 0.0
C1680 C 0.19061 0.78427 0.67862 0.0
C1681 C 0.21346 0.78893 0.66841 0.0
C1682 C 0.2194 0.77104 0.66818 0.0
C1683 C 0.24533 0.78063 0.6576 0.0
C1684 C 0.2593 0.77655 0.68799 0.0
C1685 C 0.24713 0.76953 0.62166 0.0
C1686 C 0.2534 0.80693 0.65311 0.0
C1687 C 0.23477 0.81143 0.65892 0.0
C1688 C 0.2384 0.83471 0.65766 0.0
C1689 C 0.26175 0.85383 0.65095 0.0
C1690 C 0.28109 0.84949 0.64595 0.0
C1691 C 0.27665 0.82568 0.6464 0.0
H1692 H 0.26979 0.47678 0.68703 0.0
H1693 H 0.2476 0.40092 0.68689 0.0
H1694 H 0.2071 0.39132 0.66616 0.0
H1695 H 0.21509 0.47048 0.72027 0.0
H1696 H 0.21693 0.49446 0.69266 0.0
H1697 H 0.24397 0.49494 0.70667 0.0
H1698 H 0.25716 0.49837 0.63951 0.0
H1699 H 0.23002 0.49766 0.62527 0.0
H1700 H 0.23744 0.4761 0.60735 0.0
H1701 H 0.16857 0.39038 0.64612 0.0
H1702 H 0.13534 0.39801 0.63185 0.0
H1703 H 0.18394 0.47453 0.64488 0.0
C1704 C 0.25652 0.45808 0.68268 0.0
C1705 C 0.26196 0.4396 0.68865 0.0
C1706 C 0.24389 0.41541 0.68264 0.0
C1707 C 0.22087 0.4098 0.67069 0.0
C1708 C 0.21627 0.42857 0.66482 0.0
C1709 C 0.23364 0.45221 0.67078 0.0
C1710 C 0.22424 0.46915 0.66336 0.0
C1711 C 0.2251 0.48307 0.69779 0.0
C1712 C 0.23804 0.48633 0.63201 0.0
C1713 C 0.19872 0.45138 0.6526 0.0
C1714 C 0.19441 0.42806 0.65333 0.0
C1715 C 0.17181 0.40859 0.64532 0.0
C1716 C 0.15308 0.4131 0.63714 0.0
C1717 C 0.15708 0.43686 0.63717 0.0
C1718 C 0.18033 0.45618 0.64439 0.0
H1719 H 0.40382 0.91781 0.18118 0.0
H1720 H 0.3723 0.85969 0.2591 0.0
H1721 H 0.40887 0.85644 0.2575 0.0
H1722 H 0.427 0.89152 0.12646 0.0
H1723 H 0.45441 0.91835 0.11406 0.0
H1724 H 0.42846 0.92026 0.12702 0.0
H1725 H 0.45314 0.95108 0.177 0.0
H1726 H 0.47933 0.94945 0.16396 0.0
H1727 H 0.46896 0.94368 0.21021 0.0
H1728 H 0.44458 0.85458 0.24076 0.0
H1729 H 0.47812 0.85403 0.20964 0.0
H1730 H 0.4878 0.91292 0.14089 0.0
C1731 C 0.40519 0.90515 0.19897 0.0
C1732 C 0.38558 0.8893 0.22088 0.0
C1733 C 0.38732 0.87216 0.24258 0.0
C1734 C 0.40804 0.87026 0.24191 0.0
C1735 C 0.4268 0.88552 0.21914 0.0
C1736 C 0.42571 0.90273 0.19808 0.0
C1737 C 0.44704 0.91451 0.1724 0.0
C1738 C 0.43872 0.91093 0.13264 0.0
C1739 C 0.46307 0.94127 0.18144 0.0
C1740 C 0.45962 0.90047 0.18126 0.0
C1741 C 0.44775 0.88417 0.2088 0.0
C1742 C 0.45434 0.86758 0.21972 0.0
C1743 C 0.47331 0.86731 0.20173 0.0
C1744 C 0.48557 0.88352 0.1731 0.0
C1745 C 0.47902 0.9007 0.16323 0.0
H1746 H 0.14247 0.59598 0.14576 0.0
H1747 H 0.06744 0.57681 0.14997 0.0
H1748 H 0.05643 0.53545 0.1682 0.0
H1749 H 0.13345 0.54085 0.10922 0.0
H1750 H 0.15731 0.54132 0.13551 0.0
H1751 H 0.15879 0.56908 0.12306 0.0
H1752 H 0.16351 0.58154 0.19072 0.0
H1753 H 0.16191 0.55374 0.20339 0.0
H1754 H 0.14132 0.5619 0.22303 0.0
H1755 H 0.05409 0.49545 0.18571 0.0
H1756 H 0.06079 0.46145 0.19959 0.0
H1757 H 0.13738 0.50854 0.18407 0.0
C1758 C 0.12365 0.58318 0.15037 0.0
C1759 C 0.10583 0.58973 0.14626 0.0
C1760 C 0.08146 0.57227 0.15282 0.0
C1761 C 0.07504 0.54873 0.16326 0.0
C1762 C 0.09319 0.543 0.16715 0.0
C1763 C 0.11699 0.55983 0.16086 0.0
C1764 C 0.13326 0.54948 0.1667 0.0
C1765 C 0.14647 0.55022 0.13153 0.0
C1766 C 0.15104 0.56243 0.19781 0.0
C1767 C 0.11493 0.52406 0.17702 0.0
C1768 C 0.09189 0.52051 0.17729 0.0
C1769 C 0.0721 0.49812 0.18564 0.0
C1770 C 0.07605 0.47894 0.19354 0.0
C1771 C 0.09959 0.48235 0.19296 0.0
C1772 C 0.11915 0.50529 0.18486 0.0
H1773 H 0.50971 0.60538 0.2306 0.0
H1774 H 0.53785 0.63769 0.12597 0.0
H1775 H 0.5034 0.6036 0.09569 0.0
H1776 H 0.48259 0.54073 0.19972 0.0
H1777 H 0.45691 0.53101 0.22897 0.0
H1778 H 0.48566 0.55587 0.24217 0.0
H1779 H 0.46633 0.58258 0.24978 0.0
H1780 H 0.43764 0.55795 0.23632 0.0
H1781 H 0.45041 0.58607 0.21224 0.0
H1782 H 0.46351 0.57033 0.07758 0.0
H1783 H 0.4212 0.53776 0.07227 0.0
H1784 H 0.41868 0.52522 0.18787 0.0
C1785 C 0.50895 0.60464 0.2013 0.0
C1786 C 0.52651 0.62368 0.18034 0.0
C1787 C 0.52469 0.62288 0.14219 0.0
C1788 C 0.50521 0.60365 0.12483 0.0
C1789 C 0.48777 0.58534 0.14611 0.0
C1790 C 0.48955 0.58541 0.18348 0.0
C1791 C 0.46726 0.56447 0.19994 0.0
C1792 C 0.47348 0.54698 0.21881 0.0
C1793 C 0.45467 0.57331 0.2261 0.0
C1794 C 0.45234 0.55331 0.16614 0.0
C1795 C 0.46464 0.56558 0.13539 0.0
C1796 C 0.4539 0.56017 0.10128 0.0
C1797 C 0.42991 0.54177 0.0985 0.0
C1798 C 0.41709 0.52891 0.12953 0.0
C1799 C 0.42847 0.53451 0.16369 0.0
H1800 H 0.1389 0.62984 0.69634 0.0
H1801 H 0.0616 0.59683 0.70773 0.0
H1802 H 0.05727 0.55699 0.69501 0.0
H1803 H 0.13804 0.59568 0.6222 0.0
H1804 H 0.16386 0.59373 0.63623 0.0
H1805 H 0.16094 0.61901 0.64987 0.0
H1806 H 0.16482 0.61026 0.7173 0.0
H1807 H 0.16802 0.58506 0.70387 0.0
H1808 H 0.1449 0.58084 0.73557 0.0
H1809 H 0.06162 0.52112 0.67684 0.0
H1810 H 0.0741 0.49245 0.65615 0.0
H1811 H 0.14855 0.54997 0.65572 0.0
C1812 C 0.12105 0.6142 0.69684 0.0
C1813 C 0.10057 0.61638 0.70319 0.0
C1814 C 0.07754 0.59551 0.70315 0.0
C1815 C 0.07492 0.57285 0.6959 0.0
C1816 C 0.09552 0.57145 0.68884 0.0
C1817 C 0.11815 0.59161 0.68949 0.0
C1818 C 0.13736 0.58568 0.67921 0.0
C1819 C 0.15083 0.59933 0.64484 0.0
C1820 C 0.1548 0.59075 0.71088 0.0
C1821 C 0.12204 0.55905 0.67211 0.0
C1822 C 0.09797 0.55108 0.67801 0.0
C1823 C 0.08043 0.52717 0.67237 0.0
C1824 C 0.08772 0.51103 0.66051 0.0
C1825 C 0.11233 0.51889 0.65419 0.0
C1826 C 0.12959 0.54327 0.66023 0.0
H1827 H 0.37412 0.5056 0.68406 0.0
H1828 H 0.40467 0.45936 0.69826 0.0
H1829 H 0.44511 0.49378 0.68414 0.0
H1830 H 0.40959 0.53822 0.6092 0.0
H1831 H 0.41214 0.56625 0.62329 0.0
H1832 H 0.3862 0.53827 0.63609 0.0
H1833 H 0.39423 0.55048 0.7038 0.0
H1834 H 0.42009 0.5786 0.69121 0.0
H1835 H 0.42321 0.55908 0.72305 0.0
H1836 H 0.48228 0.53395 0.66613 0.0
H1837 H 0.51219 0.57554 0.64814 0.0
H1838 H 0.45566 0.59378 0.64586 0.0
C1839 C 0.38929 0.50264 0.68453 0.0
C1840 C 0.38629 0.47982 0.69228 0.0
C1841 C 0.40662 0.47676 0.69249 0.0
C1842 C 0.42961 0.49618 0.68444 0.0
C1843 C 0.43183 0.51842 0.67636 0.0
C1844 C 0.41214 0.52165 0.67659 0.0
C1845 C 0.41887 0.54701 0.66653 0.0
C1846 C 0.40594 0.54745 0.63171 0.0
C1847 C 0.41381 0.55953 0.69803 0.0
C1848 C 0.44549 0.55768 0.66031 0.0
C1849 C 0.45278 0.54106 0.66608 0.0
C1850 C 0.47671 0.54708 0.66164 0.0
C1851 C 0.49356 0.57073 0.6513 0.0
C1852 C 0.48634 0.58802 0.64551 0.0
C1853 C 0.46192 0.58115 0.65003 0.0
H1854 H 0.39986 0.85221 0.65568 0.0
H1855 H 0.42013 0.92754 0.66033 0.0
H1856 H 0.46084 0.93781 0.6804 0.0
H1857 H 0.43284 0.85232 0.7345 0.0
H1858 H 0.44121 0.83183 0.71507 0.0
H1859 H 0.41363 0.83044 0.7015 0.0
H1860 H 0.42705 0.83569 0.63428 0.0
H1861 H 0.45455 0.8369 0.64763 0.0
H1862 H 0.45555 0.86104 0.62144 0.0
H1863 H 0.49984 0.9398 0.69883 0.0
H1864 H 0.53392 0.93334 0.71222 0.0
H1865 H 0.48732 0.8567 0.69633 0.0
C1866 C 0.41279 0.87091 0.66086 0.0
C1867 C 0.40671 0.88906 0.65631 0.0
C1868 C 0.42429 0.91328 0.6635 0.0
C1869 C 0.44746 0.9193 0.67504 0.0
C1870 C 0.45275 0.9009 0.6794 0.0
C1871 C 0.43589 0.87721 0.67247 0.0
C1872 C 0.44609 0.8608 0.67862 0.0
C1873 C 0.43264 0.84279 0.70925 0.0
C1874 C 0.4458 0.84786 0.6434 0.0
C1875 C 0.47143 0.87897 0.68982 0.0
C1876 C 0.47496 0.90201 0.69026 0.0
C1877 C 0.49723 0.92182 0.69875 0.0
C1878 C 0.51645 0.91798 0.70639 0.0
C1879 C 0.51323 0.89453 0.70545 0.0
C1880 C 0.49031 0.87483 0.69757 0.0
H1881 H 0.21455 0.48238 0.19061 0.0
H1882 H 0.16222 0.40609 0.19221 0.0
H1883 H 0.19376 0.39729 0.17207 0.0
H1884 H 0.24622 0.4817 0.11116 0.0
H1885 H 0.27516 0.50395 0.12836 0.0
H1886 H 0.24847 0.5041 0.14281 0.0
H1887 H 0.25898 0.50174 0.20993 0.0
H1888 H 0.2858 0.50182 0.19571 0.0
H1889 H 0.26421 0.4779 0.22403 0.0
H1890 H 0.23163 0.39715 0.15202 0.0
H1891 H 0.27257 0.40556 0.13649 0.0
H1892 H 0.29915 0.48197 0.14758 0.0
C1893 C 0.20957 0.46376 0.18684 0.0
C1894 C 0.18582 0.44492 0.19309 0.0
C1895 C 0.18028 0.42085 0.18775 0.0
C1896 C 0.19805 0.41568 0.17617 0.0
C1897 C 0.22122 0.43478 0.16997 0.0
C1898 C 0.22697 0.45832 0.17527 0.0
C1899 C 0.25317 0.47566 0.16725 0.0
C1900 C 0.2559 0.49233 0.13551 0.0
C1901 C 0.26631 0.49012 0.20126 0.0
C1902 C 0.26142 0.45822 0.15681 0.0
C1903 C 0.24277 0.43472 0.15835 0.0
C1904 C 0.24632 0.4155 0.15062 0.0
C1905 C 0.26962 0.42045 0.14174 0.0
C1906 C 0.28902 0.44442 0.14074 0.0
C1907 C 0.28468 0.46347 0.14787 0.0
H1908 H 0.53498 0.82466 0.13919 0.0
H1909 H 0.61136 0.87567 0.14531 0.0
H1910 H 0.61892 0.84234 0.16003 0.0
H1911 H 0.53225 0.79079 0.21369 0.0
H1912 H 0.51 0.76241 0.19483 0.0
H1913 H 0.5112 0.7897 0.18043 0.0
H1914 H 0.51557 0.78023 0.1135 0.0
H1915 H 0.51401 0.75267 0.12762 0.0
H1916 H 0.5392 0.77422 0.10118 0.0
H1917 H 0.61703 0.80282 0.17948 0.0
H1918 H 0.60612 0.76167 0.199 0.0
H1919 H 0.53086 0.73846 0.18093 0.0
C1920 C 0.5534 0.82886 0.14285 0.0
C1921 C 0.5726 0.85272 0.14099 0.0
C1922 C 0.59639 0.85744 0.14629 0.0
C1923 C 0.60082 0.83864 0.1548 0.0
C1924 C 0.58126 0.81533 0.15766 0.0
C1925 C 0.55805 0.81048 0.15143 0.0
C1926 C 0.53986 0.78441 0.15809 0.0
C1927 C 0.52231 0.78168 0.18857 0.0
C1928 C 0.52638 0.77216 0.12301 0.0
C1929 C 0.55632 0.77525 0.1697 0.0
C1930 C 0.58016 0.79316 0.16913 0.0
C1931 C 0.5984 0.78867 0.17973 0.0
C1932 C 0.59203 0.76527 0.19093 0.0
C1933 C 0.56762 0.74676 0.19168 0.0
C1934 C 0.54971 0.75206 0.18084 0.0
H1935 H 0.17692 0.70348 0.15117 0.0
H1936 H 0.13208 0.73557 0.13667 0.0
H1937 H 0.1669 0.77556 0.15132 0.0
H1938 H 0.20803 0.73738 0.22723 0.0
H1939 H 0.23625 0.7397 0.21491 0.0
H1940 H 0.20848 0.71432 0.20002 0.0
H1941 H 0.22272 0.72353 0.13324 0.0
H1942 H 0.25067 0.74883 0.14795 0.0
H1943 H 0.23238 0.75298 0.11499 0.0
H1944 H 0.20691 0.81196 0.17108 0.0
H1945 H 0.2478 0.84084 0.19325 0.0
H1946 H 0.26478 0.78343 0.19582 0.0
C1947 C 0.17444 0.71894 0.15044 0.0
C1948 C 0.15184 0.71646 0.14259 0.0
C1949 C 0.14932 0.73712 0.14241 0.0
C1950 C 0.16897 0.75987 0.15075 0.0
C1951 C 0.19094 0.76157 0.15919 0.0
C1952 C 0.1937 0.74159 0.15892 0.0
C1953 C 0.21864 0.74772 0.17063 0.0
C1954 C 0.21778 0.73396 0.20525 0.0
C1955 C 0.23188 0.74299 0.13986 0.0
C1956 C 0.22953 0.77427 0.17791 0.0
C1957 C 0.21344 0.78208 0.17102 0.0
C1958 C 0.21965 0.806 0.17641 0.0
C1959 C 0.2429 0.82227 0.18909 0.0
C1960 C 0.25957 0.81447 0.19647 0.0
C1961 C 0.25259 0.79011 0.19064 0.0
H1962 H 0.18256 0.1765 0.17843 0.0
H1963 H 0.24998 0.24093 0.15334 0.0
H1964 H 0.25557 0.25166 0.21856 0.0
H1965 H 0.16319 0.20176 0.24797 0.0
H1966 H 0.15012 0.17485 0.2751 0.0
H1967 H 0.15164 0.17283 0.22663 0.0
H1968 H 0.17458 0.14947 0.23403 0.0
H1969 H 0.17304 0.15132 0.2825 0.0
H1970 H 0.20174 0.16239 0.26061 0.0
H1971 H 0.25307 0.25497 0.28844 0.0
H1972 H 0.24368 0.24925 0.35425 0.0
H1973 H 0.17829 0.1824 0.33054 0.0
C1974 C 0.19853 0.19295 0.1864 0.0
C1975 C 0.21579 0.20789 0.16055 0.0
C1976 C 0.23648 0.22914 0.17255 0.0
C1977 C 0.23977 0.23542 0.20956 0.0
C1978 C 0.22226 0.22024 0.23425 0.0
C1979 C 0.20212 0.19937 0.22295 0.0
C1980 C 0.18607 0.18567 0.25441 0.0
C1981 C 0.16129 0.18368 0.2508 0.0
C1982 C 0.18374 0.16075 0.2581 0.0
C1983 C 0.20025 0.20196 0.28538 0.0
C1984 C 0.22102 0.22193 0.27352 0.0
C1985 C 0.23683 0.23934 0.29789 0.0
C1986 C 0.23133 0.23601 0.33521 0.0
C1987 C 0.21032 0.21533 0.34774 0.0
C1988 C 0.19462 0.19836 0.32216 0.0
H1989 H 0.82208 0.01441 0.18009 0.0
H1990 H 0.7521 0.00525 0.15472 0.0
H1991 H 0.74309 0.00313 0.22055 0.0
H1992 H 0.80426 0.97407 0.25313 0.0
H1993 H 0.83115 0.99205 0.27916 0.0
H1994 H 0.83213 0.99399 0.23051 0.0
H1995 H 0.84937 0.04001 0.23433 0.0
H1996 H 0.84858 0.03824 0.28304 0.0
H1997 H 0.83343 0.05155 0.25986 0.0
H1998 H 0.74132 0.99925 0.29044 0.0
H1999 H 0.74773 0.9965 0.35604 0.0
H2000 H 0.81945 0.00934 0.33326 0.0
C2001 C 0.80484 0.01207 0.1882 0.0
C2002 C 0.78771 0.00985 0.16216 0.0
C2003 C 0.76553 0.00708 0.17414 0.0
C2004 C 0.76026 0.00577 0.21147 0.0
C2005 C 0.7775 0.00759 0.23636 0.0
C2006 C 0.79945 0.01098 0.22501 0.0
C2007 C 0.81499 0.01222 0.25663 0.0
C2008 C 0.82097 0.99187 0.25473 0.0
C2009 C 0.83795 0.03698 0.25857 0.0
C2010 C 0.79828 0.00862 0.2878 0.0
C2011 C 0.7767 0.00594 0.2758 0.0
C2012 C 0.75826 0.00156 0.30001 0.0
C2013 C 0.76205 0.99996 0.33725 0.0
C2014 C 0.78416 0.00282 0.35002 0.0
C2015 C 0.80242 0.00729 0.32468 0.0
H2016 H 0.00442 0.82403 0.32873 0.0
H2017 H 1.00174 0.75642 0.35063 0.0
H2018 H 1.00046 0.74876 0.28476 0.0
H2019 H 0.96493 0.80452 0.25187 0.0
H2020 H 0.98195 0.8324 0.22763 0.0
H2021 H 0.98221 0.83225 0.2764 0.0
H2022 H 0.02869 0.85323 0.27599 0.0
H2023 H 0.02858 0.85348 0.22721 0.0
H2024 H 0.04319 0.83988 0.25111 0.0
H2025 H 0.99849 0.74818 0.2159 0.0
H2026 H 0.99837 0.75579 0.15027 0.0
H2027 H 0.0041 0.8246 0.17395 0.0
C2028 C 0.00345 0.80753 0.31977 0.0
C2029 C 0.00302 0.79075 0.34498 0.0
C2030 C 0.00209 0.76956 0.33192 0.0
C2031 C 1.0013 0.76502 0.29453 0.0
C2032 C 1.00171 0.78195 0.27047 0.0
C2033 C 0.00296 0.80288 0.28262 0.0
C2034 C 0.00382 0.8185 0.25126 0.0
C2035 C 0.98192 0.82212 0.25183 0.0
C2036 C 0.02748 0.8427 0.25141 0.0
C2037 C 0.00273 0.80307 0.2195 0.0
C2038 C 1.00135 0.78197 0.23109 0.0
C2039 C 0.9997 0.7647 0.20657 0.0
C2040 C 0.99958 0.76917 0.16931 0.0
C2041 C 1.00135 0.79085 0.15681 0.0
C2042 C 0.00294 0.80794 0.18247 0.0
H2043 H 0.82141 0.81118 0.83038 0.0
H2044 H 0.74687 0.76105 0.85667 0.0
H2045 H 0.73859 0.75076 0.7913 0.0
H2046 H 0.81087 0.83421 0.75131 0.0
H2047 H 0.83709 0.83746 0.72836 0.0
H2048 H 0.83677 0.839 0.77695 0.0
H2049 H 0.84688 0.80476 0.7814 0.0
H2050 H 0.84716 0.80305 0.73272 0.0
H2051 H 0.82791 0.7766 0.75884 0.0
H2052 H 0.73916 0.74761 0.72029 0.0
H2053 H 0.74807 0.75359 0.65421 0.0
H2054 H 0.82196 0.80646 0.67863 0.0
C2055 C 0.80326 0.79789 0.82282 0.0
C2056 C 0.78478 0.78699 0.84894 0.0
C2057 C 0.76138 0.76967 0.83727 0.0
C2058 C 0.75654 0.7637 0.80018 0.0
C2059 C 0.77532 0.77511 0.7752 0.0
C2060 C 0.79821 0.79185 0.78639 0.0
C2061 C 0.81533 0.80258 0.75493 0.0
C2062 C 0.8256 0.82992 0.75277 0.0
C2063 C 0.8355 0.79636 0.75711 0.0
C2064 C 0.79854 0.78971 0.72386 0.0
C2065 C 0.77557 0.77364 0.73568 0.0
C2066 C 0.75714 0.76013 0.71098 0.0
C2067 C 0.76235 0.76354 0.67352 0.0
C2068 C 0.78566 0.7806 0.6613 0.0
C2069 C 0.8039 0.79342 0.68704 0.0
H2070 H 0.19193 0.00797 0.68246 0.0
H2071 H 0.25491 0.00331 0.65369 0.0
H2072 H 0.26341 0.002 0.71905 0.0
H2073 H 0.21755 0.04607 0.76082 0.0
H2074 H 0.18964 0.03147 0.78556 0.0
H2075 H 0.18935 0.03265 0.73684 0.0
H2076 H 0.16285 0.98626 0.73442 0.0
H2077 H 0.16314 0.98492 0.78309 0.0
H2078 H 0.17305 0.96797 0.75653 0.0
H2079 H 0.26306 0.99877 0.78894 0.0
H2080 H 0.25539 0.9964 0.85505 0.0
H2081 H 0.19328 0.00455 0.83556 0.0
C2082 C 0.2076 0.00674 0.68971 0.0
C2083 C 0.22268 0.00558 0.66286 0.0
C2084 C 0.24312 0.00426 0.67376 0.0
C2085 C 0.24803 0.00344 0.71081 0.0
C2086 C 0.23248 0.00427 0.73652 0.0
C2087 C 0.21283 0.00615 0.72624 0.0
C2088 C 0.19872 0.0067 0.75862 0.0
C2089 C 0.19884 0.03065 0.76057 0.0
C2090 C 0.17292 0.98518 0.75812 0.0
C2091 C 0.21326 0.00455 0.78899 0.0
C2092 C 0.23264 0.00307 0.77594 0.0
C2093 C 0.24805 1.00014 0.79933 0.0
C2094 C 0.24351 0.99875 0.83685 0.0
C2095 C 0.22382 1.00046 0.85065 0.0
C2096 C 0.20866 0.00346 0.82613 0.0
H2097 H 0.98312 0.18083 0.67995 0.0
H2098 H 0.00492 0.25477 0.65469 0.0
H2099 H 0.01022 0.26453 0.72056 0.0
H2100 H 0.95034 0.17656 0.76278 0.0
H2101 H 0.9597 0.15738 0.78412 0.0
H2102 H 0.95623 0.15675 0.73566 0.0
H2103 H 1.00009 0.16583 0.72779 0.0
H2104 H 0.00379 0.16675 0.77614 0.0
H2105 H 0.02422 0.19212 0.74896 0.0
H2106 H 0.01616 0.26585 0.79121 0.0
H2107 H 0.01931 0.25805 0.85643 0.0
H2108 H 0.99292 0.183 0.83119 0.0
C2109 C 0.98878 0.19908 0.68816 0.0
C2110 C 0.99372 0.21708 0.66223 0.0
C2111 C 1.00089 0.24067 0.67418 0.0
C2112 C 0.00405 0.24635 0.7115 0.0
C2113 C 0.99962 0.22814 0.73635 0.0
C2114 C 0.99178 0.20491 0.72487 0.0
C2115 C 0.98861 0.18842 0.75604 0.0
C2116 C 0.96215 0.16862 0.75987 0.0
C2117 C 0.00517 0.17766 0.75197 0.0
C2118 C 0.99637 0.20597 0.78709 0.0
C2119 C 0.00265 0.22883 0.77567 0.0
C2120 C 0.01104 0.24792 0.80028 0.0
C2121 C 0.01286 0.24336 0.83728 0.0
C2122 C 0.00634 0.2199 0.84924 0.0
C2123 C 0.998 0.20117 0.82343 0.0
H2124 H 0.84465 0.51988 0.51175 0.0
H2125 H 0.91385 0.58178 0.48579 0.0
H2126 H 0.92102 0.59188 0.55104 0.0
H2127 H 0.82925 0.54645 0.58604 0.0
H2128 H 0.8155 0.51904 0.61201 0.0
H2129 H 0.81551 0.51781 0.56327 0.0
H2130 H 0.83603 0.49191 0.56588 0.0
H2131 H 0.83606 0.49304 0.61458 0.0
H2132 H 0.86382 0.50288 0.59043 0.0
H2133 H 0.92052 0.59448 0.62093 0.0
H2134 H 0.91318 0.58787 0.68714 0.0
H2135 H 0.84496 0.52366 0.66506 0.0
C2136 C 0.86123 0.53575 0.51958 0.0
C2137 C 0.8786 0.55011 0.49345 0.0
C2138 C 0.90021 0.57049 0.50521 0.0
C2139 C 0.90442 0.57642 0.54225 0.0
C2140 C 0.88692 0.56173 0.56729 0.0
C2141 C 0.8658 0.54176 0.55628 0.0
C2142 C 0.85026 0.52812 0.58827 0.0
C2143 C 0.82621 0.52785 0.58733 0.0
C2144 C 0.84633 0.50248 0.58987 0.0
C2145 C 0.86593 0.54338 0.61913 0.0
C2146 C 0.88692 0.56286 0.60675 0.0
C2147 C 0.9041 0.57927 0.63081 0.0
C2148 C 0.89978 0.57544 0.66837 0.0
C2149 C 0.87859 0.55519 0.68141 0.0
C2150 C 0.86147 0.53924 0.65618 0.0
H2151 H 0.47978 0.32813 0.5068 0.0
H2152 H 0.42064 0.34068 0.48495 0.0
H2153 H 0.41065 0.33615 0.55036 0.0
H2154 H 0.45114 0.28407 0.57772 0.0
H2155 H 0.47842 0.29531 0.60367 0.0
H2156 H 0.47985 0.29831 0.55509 0.0
H2157 H 0.50803 0.34433 0.56133 0.0
H2158 H 0.50675 0.34146 0.60986 0.0
H2159 H 0.49859 0.3615 0.58831 0.0
H2160 H 0.40774 0.33053 0.61983 0.0
H2161 H 0.41402 0.32709 0.68549 0.0
H2162 H 0.47571 0.3195 0.65959 0.0
C2163 C 0.46456 0.32972 0.51555 0.0
C2164 C 0.45092 0.33462 0.49056 0.0
C2165 C 0.43137 0.33689 0.5035 0.0
C2166 C 0.42551 0.33427 0.54062 0.0
C2167 C 0.43942 0.32948 0.56449 0.0
C2168 C 0.45863 0.32737 0.55232 0.0
C2169 C 0.47155 0.3233 0.58326 0.0
C2170 C 0.47014 0.29879 0.57971 0.0
C2171 C 0.49778 0.34387 0.58583 0.0
C2172 C 0.4568 0.3236 0.61491 0.0
C2173 C 0.43815 0.32691 0.60378 0.0
C2174 C 0.42231 0.32792 0.62875 0.0
C2175 C 0.42594 0.32587 0.66596 0.0
C2176 C 0.44542 0.32317 0.67774 0.0
C2177 C 0.46074 0.32174 0.65162 0.0
H2178 H 0.66586 0.15633 0.66742 0.0
H2179 H 0.67395 0.09445 0.68963 0.0
H2180 H 0.67171 0.08597 0.62395 0.0
H2181 H 0.62432 0.13052 0.59247 0.0
H2182 H 0.63746 0.15834 0.56755 0.0
H2183 H 0.63866 0.15879 0.6163 0.0
H2184 H 0.68501 0.18562 0.6138 0.0
H2185 H 0.68396 0.18521 0.56507 0.0
H2186 H 0.70235 0.17564 0.5884 0.0
H2187 H 0.66847 0.08435 0.55506 0.0
H2188 H 0.66625 0.09075 0.48939 0.0
H2189 H 0.66204 0.15466 0.51298 0.0
C2190 C 0.66696 0.14085 0.65863 0.0
C2191 C 0.66995 0.12598 0.68389 0.0
C2192 C 0.67161 0.1061 0.67094 0.0
C2193 C 0.67033 0.10111 0.63364 0.0
C2194 C 0.66752 0.11624 0.60955 0.0
C2195 C 0.66594 0.13575 0.62159 0.0
C2196 C 0.6637 0.14969 0.59022 0.0
C2197 C 0.6396 0.1493 0.59173 0.0
C2198 C 0.68503 0.17557 0.58933 0.0
C2199 C 0.66449 0.13514 0.55855 0.0
C2200 C 0.66641 0.11574 0.57019 0.0
C2201 C 0.66704 0.09953 0.54571 0.0
C2202 C 0.66573 0.10329 0.50845 0.0
C2203 C 0.66413 0.12329 0.49595 0.0
C2204 C 0.66351 0.13934 0.52154 0.0
H2205 H 0.48762 0.15859 0.16784 0.0
H2206 H 0.42022 0.09354 0.19069 0.0
H2207 H 0.41407 0.08483 0.12506 0.0
H2208 H 0.46735 0.17505 0.08804 0.0
H2209 H 0.49568 0.18669 0.06481 0.0
H2210 H 0.49491 0.18738 0.11353 0.0
H2211 H 0.51795 0.16393 0.11685 0.0
H2212 H 0.5188 0.16317 0.06814 0.0
H2213 H 0.50614 0.13558 0.0936 0.0
H2214 H 0.41605 0.08279 0.05632 0.0
H2215 H 0.42494 0.08877 0.99065 0.0
H2216 H 0.49003 0.15609 0.01353 0.0
C2217 C 0.47159 0.14244 0.15915 0.0
C2218 C 0.45447 0.12668 0.18453 0.0
C2219 C 0.43361 0.1059 0.17182 0.0
C2220 C 0.42998 0.10077 0.13458 0.0
C2221 C 0.44724 0.11671 0.11033 0.0
C2222 C 0.46755 0.13721 0.12215 0.0
C2223 C 0.48314 0.15174 0.09065 0.0
C2224 C 0.48539 0.17669 0.08918 0.0
C2225 C 0.50797 0.15371 0.09242 0.0
C2226 C 0.4685 0.1362 0.05919 0.0
C2227 C 0.44795 0.11596 0.07102 0.0
C2228 C 0.43202 0.09866 0.04678 0.0
C2229 C 0.43724 0.10219 0.00954 0.0
C2230 C 0.45807 0.12299 0.99686 0.0
C2231 C 0.47379 0.14016 0.02222 0.0
H2232 H 0.84775 0.33514 0.16323 0.0
H2233 H 0.9126 0.33304 0.18853 0.0
H2234 H 0.92202 0.33542 0.12315 0.0
H2235 H 0.83219 0.29804 0.08397 0.0
H2236 H 0.82069 0.31451 0.05981 0.0
H2237 H 0.81956 0.31335 0.10854 0.0
H2238 H 0.84287 0.35988 0.11122 0.0
H2239 H 0.84407 0.36118 0.06249 0.0
H2240 H 0.87142 0.37636 0.08848 0.0
H2241 H 0.9246 0.33884 0.05424 0.0
H2242 H 0.91897 0.34082 0.98826 0.0
H2243 H 0.85156 0.33892 0.0088 0.0
C2244 C 0.86403 0.33531 0.15513 0.0
C2245 C 0.87951 0.33405 0.18116 0.0
C2246 C 0.90044 0.33399 0.16919 0.0
C2247 C 0.90598 0.33539 0.13208 0.0
C2248 C 0.89029 0.3366 0.10719 0.0
C2249 C 0.86966 0.33639 0.11827 0.0
C2250 C 0.8554 0.3372 0.08619 0.0
C2251 C 0.83049 0.31442 0.08454 0.0
C2252 C 0.85333 0.36001 0.08716 0.0
C2253 C 0.87124 0.33797 0.05525 0.0
C2254 C 0.89139 0.3378 0.06783 0.0
C2255 C 0.90882 0.33887 0.04414 0.0
C2256 C 0.90549 0.34004 0.00668 0.0
C2257 C 0.88476 0.33988 0.99321 0.0
C2258 C 0.8675 0.33883 0.01806 0.0
H2259 H 0.65608 0.51187 0.16758 0.0
H2260 H 0.67103 0.58442 0.18909 0.0
H2261 H 0.66747 0.59023 0.12349 0.0
H2262 H 0.69046 0.52565 0.08764 0.0
H2263 H 0.67014 0.49776 0.06545 0.0
H2264 H 0.6721 0.49906 0.11409 0.0
H2265 H 0.62621 0.48262 0.11831 0.0
H2266 H 0.62412 0.48131 0.06963 0.0
H2267 H 0.61322 0.49795 0.09479 0.0
H2268 H 0.66305 0.58793 0.0538 0.0
H2269 H 0.66083 0.57855 0.98812 0.0
H2270 H 0.65015 0.50813 0.0145 0.0
C2271 C 0.65831 0.52892 0.15873 0.0
C2272 C 0.66366 0.54762 0.18368 0.0
C2273 C 0.66685 0.56977 0.17058 0.0
C2274 C 0.66479 0.57321 0.13335 0.0
C2275 C 0.65964 0.55438 0.10951 0.0
C2276 C 0.65656 0.53271 0.12185 0.0
C2277 C 0.65249 0.51568 0.09093 0.0
C2278 C 0.67249 0.50917 0.08945 0.0
C2279 C 0.62753 0.49306 0.09358 0.0
C2280 C 0.65396 0.53113 0.0591 0.0
C2281 C 0.6578 0.55331 0.07012 0.0
C2282 C 0.66001 0.57057 0.04498 0.0
C2283 C 0.65864 0.56508 0.00775 0.0
C2284 C 0.65544 0.54267 0.99611 0.0
C2285 C 0.65277 0.52551 0.02238 0.0
H2286 H 0.5136 0.86348 1.00125 0.0
H2287 H 0.58666 0.91846 0.02592 0.0
H2288 H 0.59584 0.92421 0.95996 0.0
H2289 H 0.52659 0.83627 0.93078 0.0
H2290 H 0.50064 0.83004 0.90407 0.0
H2291 H 0.49972 0.83229 0.95252 0.0
H2292 H 0.48812 0.86536 0.94601 0.0
H2293 H 0.48872 0.86302 0.89744 0.0
H2294 H 0.50675 0.89169 0.91921 0.0
H2295 H 0.5972 0.9203 0.88948 0.0
H2296 H 0.58985 0.9093 0.82428 0.0
H2297 H 0.51558 0.85746 0.8494 0.0
C2298 C 0.53148 0.87703 0.99287 0.0
C2299 C 0.54944 0.8905 0.01868 0.0
C2300 C 0.57256 0.90809 0.00655 0.0
C2301 C 0.57794 0.91136 0.96915 0.0
C2302 C 0.55986 0.89714 0.94439 0.0
C2303 C 0.53698 0.88062 0.95603 0.0
C2304 C 0.5207 0.86691 0.92481 0.0
C2305 C 0.51139 0.83979 0.92827 0.0
C2306 C 0.49985 0.87207 0.92169 0.0
C2307 C 0.53802 0.87775 0.8936 0.0
C2308 C 0.56054 0.89522 0.905 0.0
C2309 C 0.57951 0.90683 0.88039 0.0
C2310 C 0.5752 0.90042 0.84339 0.0
C2311 C 0.55212 0.88254 0.83141 0.0
C2312 C 0.53345 0.87131 0.85719 0.0
H2313 H 0.14939 0.6785 0.99757 0.0
H2314 H 0.07429 0.65263 0.0218 0.0
H2315 H 0.06668 0.65492 0.95629 0.0
H2316 H 0.15612 0.71977 0.92612 0.0
H2317 H 0.17587 0.71304 0.90041 0.0
H2318 H 0.17511 0.71078 0.94907 0.0
H2319 H 0.16559 0.66663 0.94429 0.0
H2320 H 0.16638 0.66876 0.8957 0.0
H2321 H 0.14008 0.64545 0.91802 0.0
H2322 H 0.06795 0.65921 0.88553 0.0
H2323 H 0.07751 0.66269 0.81966 0.0
H2324 H 0.15143 0.68466 0.84562 0.0
C2325 C 0.13128 0.67346 0.98951 0.0
C2326 C 0.11245 0.66542 0.01513 0.0
C2327 C 0.08907 0.65891 1.00282 0.0
C2328 C 0.0846 0.66021 0.96563 0.0
C2329 C 0.10371 0.66808 0.94117 0.0
C2330 C 0.12656 0.67454 0.95293 0.0
C2331 C 0.14403 0.68132 0.92184 0.0
C2332 C 0.16395 0.7078 0.92453 0.0
C2333 C 0.15463 0.66453 0.91986 0.0
C2334 C 0.12749 0.67735 0.89037 0.0
C2335 C 0.10433 0.67002 0.90167 0.0
C2336 C 0.08608 0.665 0.8766 0.0
C2337 C 0.09165 0.66712 0.83926 0.0
C2338 C 0.11517 0.67381 0.82751 0.0
C2339 C 0.13322 0.67932 0.85364 0.0
H2340 H 0.33745 0.48851 0.99234 0.0
H2341 H 0.34647 0.42804 0.02098 0.0
H2342 H 0.34486 0.4179 0.95567 0.0
H2343 H 0.29634 0.46061 0.91906 0.0
H2344 H 0.30912 0.48775 0.89249 0.0
H2345 H 0.31051 0.48948 0.94118 0.0
H2346 H 0.35683 0.51663 0.93808 0.0
H2347 H 0.35559 0.51501 0.8894 0.0
H2348 H 0.3743 0.5063 0.91382 0.0
H2349 H 0.34114 0.41438 0.88551 0.0
H2350 H 0.33837 0.41933 0.81931 0.0
H2351 H 0.33357 0.48325 0.83948 0.0
C2352 C 0.33897 0.473 0.98519 0.0
C2353 C 0.3419 0.45896 0.01201 0.0
C2354 C 0.34416 0.43906 1.00101 0.0
C2355 C 0.34321 0.43315 0.96398 0.0
C2356 C 0.34019 0.44744 0.93834 0.0
C2357 C 0.33829 0.46706 0.94871 0.0
C2358 C 0.33574 0.48009 0.91646 0.0
C2359 C 0.31149 0.47943 0.91736 0.0
C2360 C 0.35688 0.50603 0.91433 0.0
C2361 C 0.3366 0.46488 0.88599 0.0
C2362 C 0.3389 0.44594 0.89889 0.0
C2363 C 0.33948 0.42926 0.87528 0.0
C2364 C 0.33784 0.43217 0.83773 0.0
C2365 C 0.33597 0.4518 0.82414 0.0
C2366 C 0.3353 0.46822 0.84884 0.0
H2367 H 0.14806 0.4918 0.49616 0.0
H2368 H 0.08642 0.42227 0.52126 0.0
H2369 H 0.07925 0.41358 0.45544 0.0
H2370 H 0.12249 0.50416 0.41725 0.0
H2371 H 0.15084 0.51895 0.39365 0.0
H2372 H 0.15019 0.51955 0.4424 0.0
H2373 H 0.17827 0.50148 0.44507 0.0
H2374 H 0.17891 0.5007 0.39638 0.0
H2375 H 0.16965 0.4736 0.42201 0.0
H2376 H 0.08096 0.41202 0.38568 0.0
H2377 H 0.08969 0.41856 0.31999 0.0
H2378 H 0.14955 0.48976 0.34265 0.0
C2379 C 0.13294 0.47473 0.48799 0.0
C2380 C 0.11787 0.45763 0.51397 0.0
C2381 C 0.09817 0.43567 0.5019 0.0
C2382 C 0.09403 0.43057 0.46457 0.0
C2383 C 0.10957 0.44777 0.43974 0.0
C2384 C 0.12846 0.46952 0.45114 0.0
C2385 C 0.14275 0.48506 0.41949 0.0
C2386 C 0.14148 0.5083 0.41812 0.0
C2387 C 0.16894 0.49052 0.42083 0.0
C2388 C 0.12923 0.4686 0.38827 0.0
C2389 C 0.11017 0.44713 0.40029 0.0
C2390 C 0.09571 0.42888 0.37609 0.0
C2391 C 0.10086 0.43274 0.33879 0.0
C2392 C 0.12023 0.45474 0.32598 0.0
C2393 C 0.13445 0.47283 0.35131 0.0
H2394 H 0.51832 0.66877 0.34208 0.0
H2395 H 0.58594 0.67139 0.3202 0.0
H2396 H 0.59183 0.66899 0.38597 0.0
H2397 H 0.53817 0.70573 0.42147 0.0
H2398 H 0.50979 0.68906 0.44459 0.0
H2399 H 0.51067 0.69025 0.39585 0.0
H2400 H 0.4878 0.64373 0.39307 0.0
H2401 H 0.48682 0.64239 0.44181 0.0
H2402 H 0.49964 0.62742 0.41685 0.0
H2403 H 0.58983 0.66565 0.45485 0.0
H2404 H 0.58098 0.66344 0.52043 0.0
H2405 H 0.5155 0.66465 0.49648 0.0
C2406 C 0.53433 0.66869 0.35099 0.0
C2407 C 0.5516 0.67013 0.32582 0.0
C2408 C 0.57243 0.67029 0.33887 0.0
C2409 C 0.57592 0.66889 0.3762 0.0
C2410 C 0.55853 0.66755 0.40023 0.0
C2411 C 0.53822 0.66759 0.38809 0.0
C2412 C 0.52251 0.66661 0.41939 0.0
C2413 C 0.52016 0.68926 0.42037 0.0
C2414 C 0.49773 0.64367 0.41767 0.0
C2415 C 0.5371 0.66596 0.45111 0.0
C2416 C 0.55774 0.66635 0.43958 0.0
C2417 C 0.57376 0.66544 0.46413 0.0
C2418 C 0.56856 0.66415 0.50135 0.0
C2419 C 0.54762 0.66401 0.51376 0.0
C2420 C 0.53178 0.66496 0.48806 0.0
H2421 H 0.3114 0.84302 0.35509 0.0
H2422 H 0.34231 0.91789 0.32523 0.0
H2423 H 0.34573 0.92888 0.39052 0.0
H2424 H 0.27718 0.84452 0.43375 0.0
H2425 H 0.28264 0.82354 0.45841 0.0
H2426 H 0.28086 0.82217 0.4097 0.0
H2427 H 0.32292 0.82591 0.40682 0.0
H2428 H 0.32492 0.8275 0.45539 0.0
H2429 H 0.34807 0.85109 0.4284 0.0
H2430 H 0.34933 0.93115 0.46125 0.0
H2431 H 0.35062 0.92422 0.52727 0.0
H2432 H 0.31622 0.84756 0.507 0.0
C2433 C 0.31857 0.86174 0.36217 0.0
C2434 C 0.32667 0.87962 0.33517 0.0
C2435 C 0.33584 0.90388 0.34556 0.0
C2436 C 0.33792 0.91025 0.38256 0.0
C2437 C 0.33034 0.89208 0.4086 0.0
C2438 C 0.32049 0.86826 0.39855 0.0
C2439 C 0.31439 0.85196 0.43098 0.0
C2440 C 0.28715 0.83453 0.43334 0.0
C2441 C 0.32842 0.83833 0.43034 0.0
C2442 C 0.32292 0.87024 0.46111 0.0
C2443 C 0.33201 0.89333 0.4481 0.0
C2444 C 0.34195 0.91307 0.47158 0.0
C2445 C 0.34264 0.90898 0.50906 0.0
C2446 C 0.33353 0.88535 0.52261 0.0
C2447 C 0.32334 0.8659 0.49798 0.0
loop_
_geom_bond_atom_site_label_1
_geom_bond_atom_site_label_2
_geom_bond_distance
_geom_bond_site_symmetry_2
_ccdc_geom_bond_type
Co0 O1 2.216 1_554 S
Co0 O2 2.091 . S
Co0 O4 2.004 . S
Co0 O10 2.021 . S
Co0 O12 2.137 . S
Co0 O13 2.244 . S
O1 Co0 2.216 1_556 S
O1 C8 1.247 . S
O2 Co0 2.091 . S
O2 C8 1.261 1_554 S
C3 O12 1.247 . S
C3 O13 1.272 . S
O4 Co0 2.004 . S
O4 C9 1.259 . S
Co5 O6 2.061 . S
Co5 O11 2.052 . S
Co5 O13 2.135 . S
O6 Co5 2.061 . S
O6 C9 1.235 . S
C7 O10 1.238 . S
C7 O11 1.241 . S
C8 O1 1.247 . S
C8 O2 1.261 1_556 S
C9 O4 1.259 . S
C9 O6 1.235 . S
O10 Co0 2.021 . S
O10 C7 1.238 . S
O11 Co5 2.052 . S
O11 C7 1.241 . S
O12 Co0 2.137 . S
O12 C3 1.247 . S
O13 Co0 2.244 . S
O13 C3 1.272 . S
O13 Co5 2.135 . S
Co14 O15 2.216 1_554 S
Co14 O16 2.091 . S
Co14 O18 2.004 . S
Co14 O24 2.021 . S
Co14 O26 2.137 1_545 S
Co14 O27 2.244 1_545 S
O15 Co14 2.216 1_556 S
O15 C22 1.247 . S
O16 Co14 2.091 . S
O16 C22 1.261 1_554 S
C17 O26 1.247 . S
C17 O27 1.272 . S
O18 Co14 2.004 . S
O18 C23 1.259 . S
Co19 O20 2.061 . S
Co19 O25 2.052 . S
Co19 O27 2.135 1_545 S
O20 Co19 2.061 . S
O20 C23 1.235 . S
C21 O24 1.238 . S
C21 O25 1.241 . S
C22 O15 1.247 . S
C22 O16 1.261 1_556 S
C23 O18 1.259 . S
C23 O20 1.235 . S
O24 Co14 2.021 . S
O24 C21 1.238 . S
O25 Co19 2.052 . S
O25 C21 1.241 . S
O26 Co14 2.137 1_565 S
O26 C17 1.247 . S
O27 Co14 2.244 1_565 S
O27 C17 1.272 . S
O27 Co19 2.135 1_565 S
Co28 O29 2.216 1_554 S
Co28 O30 2.091 . S
Co28 O32 2.004 . S
Co28 O38 2.021 . S
Co28 O40 2.137 1_655 S
Co28 O41 2.244 1_655 S
O29 Co28 2.216 1_556 S
O29 C36 1.247 . S
O30 Co28 2.091 . S
O30 C36 1.261 1_554 S
C31 O40 1.247 . S
C31 O41 1.272 . S
O32 Co28 2.004 . S
O32 C37 1.259 . S
Co33 O34 2.061 . S
Co33 O39 2.052 . S
Co33 O41 2.135 1_655 S
O34 Co33 2.061 . S
O34 C37 1.235 . S
C35 O38 1.238 . S
C35 O39 1.241 . S
C36 O29 1.247 . S
C36 O30 1.261 1_556 S
C37 O32 1.259 . S
C37 O34 1.235 . S
O38 Co28 2.021 . S
O38 C35 1.238 . S
O39 Co33 2.052 . S
O39 C35 1.241 . S
O40 Co28 2.137 1_455 S
O40 C31 1.247 . S
O41 Co28 2.244 1_455 S
O41 C31 1.272 . S
O41 Co33 2.135 1_455 S
Co42 O43 2.216 . S
Co42 O44 2.091 . S
Co42 O46 2.004 . S
Co42 O52 2.021 . S
Co42 O54 2.137 . S
Co42 O55 2.244 . S
O43 Co42 2.216 . S
O43 C50 1.247 . S
O44 Co42 2.091 . S
O44 C50 1.261 . S
C45 O54 1.247 . S
C45 O55 1.272 . S
O46 Co42 2.004 . S
O46 C51 1.259 . S
Co47 O48 2.061 . S
Co47 O53 2.052 . S
Co47 O55 2.135 . S
O48 Co47 2.061 . S
O48 C51 1.235 . S
C49 O52 1.238 . S
C49 O53 1.241 . S
C50 O43 1.247 . S
C50 O44 1.261 . S
C51 O46 1.259 . S
C51 O48 1.235 . S
O52 Co42 2.021 . S
O52 C49 1.238 . S
O53 Co47 2.052 . S
O53 C49 1.241 . S
O54 Co42 2.137 . S
O54 C45 1.247 . S
O55 Co42 2.244 . S
O55 C45 1.272 . S
O55 Co47 2.135 . S
Co56 O57 2.216 . S
Co56 O58 2.091 . S
Co56 O60 2.004 . S
Co56 O66 2.021 . S
Co56 O68 2.137 1_565 S
Co56 O69 2.244 1_565 S
O57 Co56 2.216 . S
O57 C64 1.247 . S
O58 Co56 2.091 . S
O58 C64 1.261 . S
C59 O68 1.247 . S
C59 O69 1.272 . S
O60 Co56 2.004 . S
O60 C65 1.259 . S
Co61 O62 2.061 . S
Co61 O67 2.052 . S
Co61 O69 2.135 1_565 S
O62 Co61 2.061 . S
O62 C65 1.235 . S
C63 O66 1.238 . S
C63 O67 1.241 . S
C64 O57 1.247 . S
C64 O58 1.261 . S
C65 O60 1.259 . S
C65 O62 1.235 . S
O66 Co56 2.021 . S
O66 C63 1.238 . S
O67 Co61 2.052 . S
O67 C63 1.241 . S
O68 Co56 2.137 1_545 S
O68 C59 1.247 . S
O69 Co56 2.244 1_545 S
O69 C59 1.272 . S
O69 Co61 2.135 1_545 S
Co70 O71 2.216 . S
Co70 O72 2.091 . S
Co70 O74 2.004 . S
Co70 O80 2.021 . S
Co70 O82 2.137 1_455 S
Co70 O83 2.244 1_455 S
O71 Co70 2.216 . S
O71 C78 1.247 . S
O72 Co70 2.091 . S
O72 C78 1.261 . S
C73 O82 1.247 . S
C73 O83 1.272 . S
O74 Co70 2.004 . S
O74 C79 1.259 . S
Co75 O76 2.061 . S
Co75 O81 2.052 . S
Co75 O83 2.135 1_455 S
O76 Co75 2.061 . S
O76 C79 1.235 . S
C77 O80 1.238 . S
C77 O81 1.241 . S
C78 O71 1.247 . S
C78 O72 1.261 . S
C79 O74 1.259 . S
C79 O76 1.235 . S
O80 Co70 2.021 . S
O80 C77 1.238 . S
O81 Co75 2.052 . S
O81 C77 1.241 . S
O82 Co70 2.137 1_655 S
O82 C73 1.247 . S
O83 Co70 2.244 1_655 S
O83 C73 1.272 . S
O83 Co75 2.135 1_655 S
Co84 O85 2.216 1_556 S
Co84 O86 2.091 . S
Co84 O88 2.004 . S
Co84 O94 2.021 . S
Co84 O96 2.137 . S
Co84 O97 2.244 . S
O85 Co84 2.216 1_554 S
O85 C92 1.247 . S
O86 Co84 2.091 . S
O86 C92 1.261 1_556 S
C87 O96 1.247 . S
C87 O97 1.272 . S
O88 Co84 2.004 . S
O88 C93 1.259 . S
Co89 O90 2.061 . S
Co89 O95 2.052 . S
Co89 O97 2.135 . S
O90 Co89 2.061 . S
O90 C93 1.235 . S
C91 O94 1.238 . S
C91 O95 1.241 . S
C92 O85 1.247 . S
C92 O86 1.261 1_554 S
C93 O88 1.259 . S
C93 O90 1.235 . S
O94 Co84 2.021 . S
O94 C91 1.238 . S
O95 Co89 2.052 . S
O95 C91 1.241 . S
O96 Co84 2.137 . S
O96 C87 1.247 . S
O97 Co84 2.244 . S
O97 C87 1.272 . S
O97 Co89 2.135 . S
Co98 O99 2.216 1_556 S
Co98 O100 2.091 . S
Co98 O102 2.004 . S
Co98 O108 2.021 . S
Co98 O110 2.137 1_565 S
Co98 O111 2.244 1_565 S
O99 Co98 2.216 1_554 S
O99 C106 1.247 . S
O100 Co98 2.091 . S
O100 C106 1.261 1_556 S
C101 O110 1.247 . S
C101 O111 1.272 . S
O102 Co98 2.004 . S
O102 C107 1.259 . S
Co103 O104 2.061 . S
Co103 O109 2.052 . S
Co103 O111 2.135 1_565 S
O104 Co103 2.061 . S
O104 C107 1.235 . S
C105 O108 1.238 . S
C105 O109 1.241 . S
C106 O99 1.247 . S
C106 O100 1.261 1_554 S
C107 O102 1.259 . S
C107 O104 1.235 . S
O108 Co98 2.021 . S
O108 C105 1.238 . S
O109 Co103 2.052 . S
O109 C105 1.241 . S
O110 Co98 2.137 1_545 S
O110 C101 1.247 . S
O111 Co98 2.244 1_545 S
O111 C101 1.272 . S
O111 Co103 2.135 1_545 S
Co112 O113 2.216 1_556 S
Co112 O114 2.091 . S
Co112 O116 2.004 . S
Co112 O122 2.021 . S
Co112 O124 2.137 1_455 S
Co112 O125 2.244 1_455 S
O113 Co112 2.216 1_554 S
O113 C120 1.247 . S
O114 Co112 2.091 . S
O114 C120 1.261 1_556 S
C115 O124 1.247 . S
C115 O125 1.272 . S
O116 Co112 2.004 . S
O116 C121 1.259 . S
Co117 O118 2.061 . S
Co117 O123 2.052 . S
Co117 O125 2.135 1_455 S
O118 Co117 2.061 . S
O118 C121 1.235 . S
C119 O122 1.238 . S
C119 O123 1.241 . S
C120 O113 1.247 . S
C120 O114 1.261 1_554 S
C121 O116 1.259 . S
C121 O118 1.235 . S
O122 Co112 2.021 . S
O122 C119 1.238 . S
O123 Co117 2.052 . S
O123 C119 1.241 . S
O124 Co112 2.137 1_655 S
O124 C115 1.247 . S
O125 Co112 2.244 1_655 S
O125 C115 1.272 . S
O125 Co117 2.135 1_655 S
Co126 O127 2.216 . S
Co126 O128 2.091 . S
Co126 O130 2.004 . S
Co126 O136 2.021 . S
Co126 O138 2.137 . S
Co126 O139 2.244 . S
O127 Co126 2.216 . S
O127 C134 1.247 . S
O128 Co126 2.091 . S
O128 C134 1.261 . S
C129 O138 1.247 . S
C129 O139 1.272 . S
O130 Co126 2.004 . S
O130 C135 1.259 . S
Co131 O132 2.061 . S
Co131 O137 2.052 . S
Co131 O139 2.135 . S
O132 Co131 2.061 . S
O132 C135 1.235 . S
C133 O136 1.238 . S
C133 O137 1.241 . S
C134 O127 1.247 . S
C134 O128 1.261 . S
C135 O130 1.259 . S
C135 O132 1.235 . S
O136 Co126 2.021 . S
O136 C133 1.238 . S
O137 Co131 2.052 . S
O137 C133 1.241 . S
O138 Co126 2.137 . S
O138 C129 1.247 . S
O139 Co126 2.244 . S
O139 C129 1.272 . S
O139 Co131 2.135 . S
Co140 O141 2.216 . S
Co140 O142 2.091 . S
Co140 O144 2.004 . S
Co140 O150 2.021 . S
Co140 O152 2.137 1_545 S
Co140 O153 2.244 1_545 S
O141 Co140 2.216 . S
O141 C148 1.247 . S
O142 Co140 2.091 . S
O142 C148 1.261 . S
C143 O152 1.247 . S
C143 O153 1.272 . S
O144 Co140 2.004 . S
O144 C149 1.259 . S
Co145 O146 2.061 . S
Co145 O151 2.052 . S
Co145 O153 2.135 1_545 S
O146 Co145 2.061 . S
O146 C149 1.235 . S
C147 O150 1.238 . S
C147 O151 1.241 . S
C148 O141 1.247 . S
C148 O142 1.261 . S
C149 O144 1.259 . S
C149 O146 1.235 . S
O150 Co140 2.021 . S
O150 C147 1.238 . S
O151 Co145 2.052 . S
O151 C147 1.241 . S
O152 Co140 2.137 1_565 S
O152 C143 1.247 . S
O153 Co140 2.244 1_565 S
O153 C143 1.272 . S
O153 Co145 2.135 1_565 S
Co154 O155 2.216 . S
Co154 O156 2.091 . S
Co154 O158 2.004 . S
Co154 O164 2.021 . S
Co154 O166 2.137 1_655 S
Co154 O167 2.244 1_655 S
O155 Co154 2.216 . S
O155 C162 1.247 . S
O156 Co154 2.091 . S
O156 C162 1.261 . S
C157 O166 1.247 . S
C157 O167 1.272 . S
O158 Co154 2.004 . S
O158 C163 1.259 . S
Co159 O160 2.061 . S
Co159 O165 2.052 . S
Co159 O167 2.135 1_655 S
O160 Co159 2.061 . S
O160 C163 1.235 . S
C161 O164 1.238 . S
C161 O165 1.241 . S
C162 O155 1.247 . S
C162 O156 1.261 . S
C163 O158 1.259 . S
C163 O160 1.235 . S
O164 Co154 2.021 . S
O164 C161 1.238 . S
O165 Co159 2.052 . S
O165 C161 1.241 . S
O166 Co154 2.137 1_455 S
O166 C157 1.247 . S
O167 Co154 2.244 1_455 S
O167 C157 1.272 . S
O167 Co159 2.135 1_455 S
Co168 O169 2.216 . S
Co168 O170 2.091 . S
Co168 O172 2.004 . S
Co168 O178 2.021 . S
Co168 O180 2.137 . S
Co168 O181 2.244 . S
O169 Co168 2.216 . S
O169 C176 1.247 . S
O170 Co168 2.091 . S
O170 C176 1.261 . S
C171 O180 1.247 . S
C171 O181 1.272 . S
O172 Co168 2.004 . S
O172 C177 1.259 . S
Co173 O174 2.061 . S
Co173 O179 2.052 . S
Co173 O181 2.135 . S
O174 Co173 2.061 . S
O174 C177 1.235 . S
C175 O178 1.238 . S
C175 O179 1.241 . S
C176 O169 1.247 . S
C176 O170 1.261 . S
C177 O172 1.259 . S
C177 O174 1.235 . S
O178 Co168 2.021 . S
O178 C175 1.238 . S
O179 Co173 2.052 . S
O179 C175 1.241 . S
O180 Co168 2.137 . S
O180 C171 1.247 . S
O181 Co168 2.244 . S
O181 C171 1.272 . S
O181 Co173 2.135 . S
Co182 O183 2.216 . S
Co182 O184 2.091 . S
Co182 O186 2.004 . S
Co182 O192 2.021 . S
Co182 O194 2.137 . S
Co182 O195 2.244 . S
O183 Co182 2.216 . S
O183 C190 1.247 . S
O184 Co182 2.091 . S
O184 C190 1.261 . S
C185 O194 1.247 . S
C185 O195 1.272 . S
O186 Co182 2.004 . S
O186 C191 1.259 . S
Co187 O188 2.061 . S
Co187 O193 2.052 . S
Co187 O195 2.135 . S
O188 Co187 2.061 . S
O188 C191 1.235 . S
C189 O192 1.238 . S
C189 O193 1.241 . S
C190 O183 1.247 . S
C190 O184 1.261 . S
C191 O186 1.259 . S
C191 O188 1.235 . S
O192 Co182 2.021 . S
O192 C189 1.238 . S
O193 Co187 2.052 . S
O193 C189 1.241 . S
O194 Co182 2.137 . S
O194 C185 1.247 . S
O195 Co182 2.244 . S
O195 C185 1.272 . S
O195 Co187 2.135 . S
Co196 O197 2.216 . S
Co196 O198 2.091 . S
Co196 O200 2.004 . S
Co196 O206 2.021 . S
Co196 O208 2.137 . S
Co196 O209 2.244 . S
O197 Co196 2.216 . S
O197 C204 1.247 . S
O198 Co196 2.091 . S
O198 C204 1.261 . S
C199 O208 1.247 . S
C199 O209 1.272 . S
O200 Co196 2.004 . S
O200 C205 1.259 . S
Co201 O202 2.061 . S
Co201 O207 2.052 . S
Co201 O209 2.135 . S
O202 Co201 2.061 . S
O202 C205 1.235 . S
C203 O206 1.238 . S
C203 O207 1.241 . S
C204 O197 1.247 . S
C204 O198 1.261 . S
C205 O200 1.259 . S
C205 O202 1.235 . S
O206 Co196 2.021 . S
O206 C203 1.238 . S
O207 Co201 2.052 . S
O207 C203 1.241 . S
O208 Co196 2.137 . S
O208 C199 1.247 . S
O209 Co196 2.244 . S
O209 C199 1.272 . S
O209 Co201 2.135 . S
Co210 O211 2.216 . S
Co210 O212 2.091 . S
Co210 O214 2.004 . S
Co210 O220 2.021 . S
Co210 O222 2.137 . S
Co210 O223 2.244 . S
O211 Co210 2.216 . S
O211 C218 1.247 . S
O212 Co210 2.091 . S
O212 C218 1.261 . S
C213 O222 1.247 . S
C213 O223 1.272 . S
O214 Co210 2.004 . S
O214 C219 1.259 . S
Co215 O216 2.061 . S
Co215 O221 2.052 . S
Co215 O223 2.135 . S
O216 Co215 2.061 . S
O216 C219 1.235 . S
C217 O220 1.238 . S
C217 O221 1.241 . S
C218 O211 1.247 . S
C218 O212 1.261 . S
C219 O214 1.259 . S
C219 O216 1.235 . S
O220 Co210 2.021 . S
O220 C217 1.238 . S
O221 Co215 2.052 . S
O221 C217 1.241 . S
O222 Co210 2.137 . S
O222 C213 1.247 . S
O223 Co210 2.244 . S
O223 C213 1.272 . S
O223 Co215 2.135 . S
Co224 O225 2.216 . S
Co224 O226 2.091 . S
Co224 O228 2.004 . S
Co224 O234 2.021 . S
Co224 O236 2.137 . S
Co224 O237 2.244 . S
O225 Co224 2.216 . S
O225 C232 1.247 . S
O226 Co224 2.091 . S
O226 C232 1.261 . S
C227 O236 1.247 . S
C227 O237 1.272 . S
O228 Co224 2.004 . S
O228 C233 1.259 . S
Co229 O230 2.061 . S
Co229 O235 2.052 . S
Co229 O237 2.135 . S
O230 Co229 2.061 . S
O230 C233 1.235 . S
C231 O234 1.238 . S
C231 O235 1.241 . S
C232 O225 1.247 . S
C232 O226 1.261 . S
C233 O228 1.259 . S
C233 O230 1.235 . S
O234 Co224 2.021 . S
O234 C231 1.238 . S
O235 Co229 2.052 . S
O235 C231 1.241 . S
O236 Co224 2.137 . S
O236 C227 1.247 . S
O237 Co224 2.244 . S
O237 C227 1.272 . S
O237 Co229 2.135 . S
Co238 O239 2.216 . S
Co238 O240 2.091 . S
Co238 O242 2.004 . S
Co238 O248 2.021 . S
Co238 O250 2.137 . S
Co238 O251 2.244 . S
O239 Co238 2.216 . S
O239 C246 1.247 . S
O240 Co238 2.091 . S
O240 C246 1.261 . S
C241 O250 1.247 . S
C241 O251 1.272 . S
O242 Co238 2.004 . S
O242 C247 1.259 . S
Co243 O244 2.061 . S
Co243 O249 2.052 . S
Co243 O251 2.135 . S
O244 Co243 2.061 . S
O244 C247 1.235 . S
C245 O248 1.238 . S
C245 O249 1.241 . S
C246 O239 1.247 . S
C246 O240 1.261 . S
C247 O242 1.259 . S
C247 O244 1.235 . S
O248 Co238 2.021 . S
O248 C245 1.238 . S
O249 Co243 2.052 . S
O249 C245 1.241 . S
O250 Co238 2.137 . S
O250 C241 1.247 . S
O251 Co238 2.244 . S
O251 C241 1.272 . S
O251 Co243 2.135 . S
Co252 O253 2.216 . S
Co252 O254 2.091 . S
Co252 O256 2.004 . S
Co252 O262 2.021 . S
Co252 O264 2.137 . S
Co252 O265 2.244 . S
O253 Co252 2.216 . S
O253 C260 1.247 . S
O254 Co252 2.091 . S
O254 C260 1.261 . S
C255 O264 1.247 . S
C255 O265 1.272 . S
O256 Co252 2.004 . S
O256 C261 1.259 . S
Co257 O258 2.061 . S
Co257 O263 2.052 . S
Co257 O265 2.135 . S
O258 Co257 2.061 . S
O258 C261 1.235 . S
C259 O262 1.238 . S
C259 O263 1.241 . S
C260 O253 1.247 . S
C260 O254 1.261 . S
C261 O256 1.259 . S
C261 O258 1.235 . S
O262 Co252 2.021 . S
O262 C259 1.238 . S
O263 Co257 2.052 . S
O263 C259 1.241 . S
O264 Co252 2.137 . S
O264 C255 1.247 . S
O265 Co252 2.244 . S
O265 C255 1.272 . S
O265 Co257 2.135 . S
Co266 O267 2.216 . S
Co266 O268 2.091 . S
Co266 O270 2.004 . S
Co266 O276 2.021 . S
Co266 O278 2.137 . S
Co266 O279 2.244 . S
O267 Co266 2.216 . S
O267 C274 1.247 . S
O268 Co266 2.091 . S
O268 C274 1.261 . S
C269 O278 1.247 . S
C269 O279 1.272 . S
O270 Co266 2.004 . S
O270 C275 1.259 . S
Co271 O272 2.061 . S
Co271 O277 2.052 . S
Co271 O279 2.135 . S
O272 Co271 2.061 . S
O272 C275 1.235 . S
C273 O276 1.238 . S
C273 O277 1.241 . S
C274 O267 1.247 . S
C274 O268 1.261 . S
C275 O270 1.259 . S
C275 O272 1.235 . S
O276 Co266 2.021 . S
O276 C273 1.238 . S
O277 Co271 2.052 . S
O277 C273 1.241 . S
O278 Co266 2.137 . S
O278 C269 1.247 . S
O279 Co266 2.244 . S
O279 C269 1.272 . S
O279 Co271 2.135 . S
Co280 O281 2.216 . S
Co280 O282 2.091 . S
Co280 O284 2.004 . S
Co280 O290 2.021 . S
Co280 O292 2.137 . S
Co280 O293 2.244 . S
O281 Co280 2.216 . S
O281 C288 1.247 . S
O282 Co280 2.091 . S
O282 C288 1.261 . S
C283 O292 1.247 . S
C283 O293 1.272 . S
O284 Co280 2.004 . S
O284 C289 1.259 . S
Co285 O286 2.061 . S
Co285 O291 2.052 . S
Co285 O293 2.135 . S
O286 Co285 2.061 . S
O286 C289 1.235 . S
C287 O290 1.238 . S
C287 O291 1.241 . S
C288 O281 1.247 . S
C288 O282 1.261 . S
C289 O284 1.259 . S
C289 O286 1.235 . S
O290 Co280 2.021 . S
O290 C287 1.238 . S
O291 Co285 2.052 . S
O291 C287 1.241 . S
O292 Co280 2.137 . S
O292 C283 1.247 . S
O293 Co280 2.244 . S
O293 C283 1.272 . S
O293 Co285 2.135 . S
Co294 O295 2.216 . S
Co294 O296 2.091 . S
Co294 O298 2.004 . S
Co294 O304 2.021 . S
Co294 O306 2.137 . S
Co294 O307 2.244 . S
O295 Co294 2.216 . S
O295 C302 1.247 . S
O296 Co294 2.091 . S
O296 C302 1.261 . S
C297 O306 1.247 . S
C297 O307 1.272 . S
O298 Co294 2.004 . S
O298 C303 1.259 . S
Co299 O300 2.061 . S
Co299 O305 2.052 . S
Co299 O307 2.135 . S
O300 Co299 2.061 . S
O300 C303 1.235 . S
C301 O304 1.238 . S
C301 O305 1.241 . S
C302 O295 1.247 . S
C302 O296 1.261 . S
C303 O298 1.259 . S
C303 O300 1.235 . S
O304 Co294 2.021 . S
O304 C301 1.238 . S
O305 Co299 2.052 . S
O305 C301 1.241 . S
O306 Co294 2.137 . S
O306 C297 1.247 . S
O307 Co294 2.244 . S
O307 C297 1.272 . S
O307 Co299 2.135 . S
Co308 O309 2.216 . S
Co308 O310 2.091 . S
Co308 O312 2.004 . S
Co308 O318 2.021 . S
Co308 O320 2.137 . S
Co308 O321 2.244 . S
O309 Co308 2.216 . S
O309 C316 1.247 . S
O310 Co308 2.091 . S
O310 C316 1.261 . S
C311 O320 1.247 . S
C311 O321 1.272 . S
O312 Co308 2.004 . S
O312 C317 1.259 . S
Co313 O314 2.061 . S
Co313 O319 2.052 . S
Co313 O321 2.135 . S
O314 Co313 2.061 . S
O314 C317 1.235 . S
C315 O318 1.238 . S
C315 O319 1.241 . S
C316 O309 1.247 . S
C316 O310 1.261 . S
C317 O312 1.259 . S
C317 O314 1.235 . S
O318 Co308 2.021 . S
O318 C315 1.238 . S
O319 Co313 2.052 . S
O319 C315 1.241 . S
O320 Co308 2.137 . S
O320 C311 1.247 . S
O321 Co308 2.244 . S
O321 C311 1.272 . S
O321 Co313 2.135 . S
Co322 O323 2.216 . S
Co322 O324 2.091 . S
Co322 O326 2.004 . S
Co322 O332 2.021 . S
Co322 O334 2.137 . S
Co322 O335 2.244 . S
O323 Co322 2.216 . S
O323 C330 1.247 . S
O324 Co322 2.091 . S
O324 C330 1.261 . S
C325 O334 1.247 . S
C325 O335 1.272 . S
O326 Co322 2.004 . S
O326 C331 1.259 . S
Co327 O328 2.061 . S
Co327 O333 2.052 . S
Co327 O335 2.135 . S
O328 Co327 2.061 . S
O328 C331 1.235 . S
C329 O332 1.238 . S
C329 O333 1.241 . S
C330 O323 1.247 . S
C330 O324 1.261 . S
C331 O326 1.259 . S
C331 O328 1.235 . S
O332 Co322 2.021 . S
O332 C329 1.238 . S
O333 Co327 2.052 . S
O333 C329 1.241 . S
O334 Co322 2.137 . S
O334 C325 1.247 . S
O335 Co322 2.244 . S
O335 C325 1.272 . S
O335 Co327 2.135 . S
Co336 O337 2.216 . S
Co336 O338 2.091 . S
Co336 O340 2.004 . S
Co336 O346 2.021 . S
Co336 O348 2.137 . S
Co336 O349 2.244 . S
O337 Co336 2.216 . S
O337 C344 1.247 . S
O338 Co336 2.091 . S
O338 C344 1.261 . S
C339 O348 1.247 . S
C339 O349 1.272 . S
O340 Co336 2.004 . S
O340 C345 1.259 . S
Co341 O342 2.061 . S
Co341 O347 2.052 . S
Co341 O349 2.135 . S
O342 Co341 2.061 . S
O342 C345 1.235 . S
C343 O346 1.238 . S
C343 O347 1.241 . S
C344 O337 1.247 . S
C344 O338 1.261 . S
C345 O340 1.259 . S
C345 O342 1.235 . S
O346 Co336 2.021 . S
O346 C343 1.238 . S
O347 Co341 2.052 . S
O347 C343 1.241 . S
O348 Co336 2.137 . S
O348 C339 1.247 . S
O349 Co336 2.244 . S
O349 C339 1.272 . S
O349 Co341 2.135 . S
Co350 O351 2.216 . S
Co350 O352 2.091 . S
Co350 O354 2.004 . S
Co350 O360 2.021 . S
Co350 O362 2.137 . S
Co350 O363 2.244 . S
O351 Co350 2.216 . S
O351 C358 1.247 . S
O352 Co350 2.091 . S
O352 C358 1.261 . S
C353 O362 1.247 . S
C353 O363 1.272 . S
O354 Co350 2.004 . S
O354 C359 1.259 . S
Co355 O356 2.061 . S
Co355 O361 2.052 . S
Co355 O363 2.135 . S
O356 Co355 2.061 . S
O356 C359 1.235 . S
C357 O360 1.238 . S
C357 O361 1.241 . S
C358 O351 1.247 . S
C358 O352 1.261 . S
C359 O354 1.259 . S
C359 O356 1.235 . S
O360 Co350 2.021 . S
O360 C357 1.238 . S
O361 Co355 2.052 . S
O361 C357 1.241 . S
O362 Co350 2.137 . S
O362 C353 1.247 . S
O363 Co350 2.244 . S
O363 C353 1.272 . S
O363 Co355 2.135 . S
Co364 O365 2.216 . S
Co364 O366 2.091 . S
Co364 O368 2.004 . S
Co364 O374 2.021 . S
Co364 O376 2.137 . S
Co364 O377 2.244 . S
O365 Co364 2.216 . S
O365 C372 1.247 . S
O366 Co364 2.091 . S
O366 C372 1.261 . S
C367 O376 1.247 . S
C367 O377 1.272 . S
O368 Co364 2.004 . S
O368 C373 1.259 . S
Co369 O370 2.061 . S
Co369 O375 2.052 . S
Co369 O377 2.135 . S
O370 Co369 2.061 . S
O370 C373 1.235 . S
C371 O374 1.238 . S
C371 O375 1.241 . S
C372 O365 1.247 . S
C372 O366 1.261 . S
C373 O368 1.259 . S
C373 O370 1.235 . S
O374 Co364 2.021 . S
O374 C371 1.238 . S
O375 Co369 2.052 . S
O375 C371 1.241 . S
O376 Co364 2.137 . S
O376 C367 1.247 . S
O377 Co364 2.244 . S
O377 C367 1.272 . S
O377 Co369 2.135 . S
Co378 O379 2.216 . S
Co378 O380 2.091 . S
Co378 O382 2.004 . S
Co378 O388 2.021 . S
Co378 O390 2.137 . S
Co378 O391 2.244 . S
O379 Co378 2.216 . S
O379 C386 1.247 . S
O380 Co378 2.091 . S
O380 C386 1.261 . S
C381 O390 1.247 . S
C381 O391 1.272 . S
O382 Co378 2.004 . S
O382 C387 1.259 . S
Co383 O384 2.061 . S
Co383 O389 2.052 . S
Co383 O391 2.135 . S
O384 Co383 2.061 . S
O384 C387 1.235 . S
C385 O388 1.238 . S
C385 O389 1.241 . S
C386 O379 1.247 . S
C386 O380 1.261 . S
C387 O382 1.259 . S
C387 O384 1.235 . S
O388 Co378 2.021 . S
O388 C385 1.238 . S
O389 Co383 2.052 . S
O389 C385 1.241 . S
O390 Co378 2.137 . S
O390 C381 1.247 . S
O391 Co378 2.244 . S
O391 C381 1.272 . S
O391 Co383 2.135 . S
Co392 O393 2.216 . S
Co392 O394 2.091 . S
Co392 O396 2.004 . S
Co392 O402 2.021 . S
Co392 O404 2.137 . S
Co392 O405 2.244 . S
O393 Co392 2.216 . S
O393 C400 1.247 . S
O394 Co392 2.091 . S
O394 C400 1.261 . S
C395 O404 1.247 . S
C395 O405 1.272 . S
O396 Co392 2.004 . S
O396 C401 1.259 . S
Co397 O398 2.061 . S
Co397 O403 2.052 . S
Co397 O405 2.135 . S
O398 Co397 2.061 . S
O398 C401 1.235 . S
C399 O402 1.238 . S
C399 O403 1.241 . S
C400 O393 1.247 . S
C400 O394 1.261 . S
C401 O396 1.259 . S
C401 O398 1.235 . S
O402 Co392 2.021 . S
O402 C399 1.238 . S
O403 Co397 2.052 . S
O403 C399 1.241 . S
O404 Co392 2.137 . S
O404 C395 1.247 . S
O405 Co392 2.244 . S
O405 C395 1.272 . S
O405 Co397 2.135 . S
Co406 O407 2.216 . S
Co406 O408 2.091 . S
Co406 O410 2.004 . S
Co406 O416 2.021 . S
Co406 O418 2.137 . S
Co406 O419 2.244 . S
O407 Co406 2.216 . S
O407 C414 1.247 . S
O408 Co406 2.091 . S
O408 C414 1.261 . S
C409 O418 1.247 . S
C409 O419 1.272 . S
O410 Co406 2.004 . S
O410 C415 1.259 . S
Co411 O412 2.061 . S
Co411 O417 2.052 . S
Co411 O419 2.135 . S
O412 Co411 2.061 . S
O412 C415 1.235 . S
C413 O416 1.238 . S
C413 O417 1.241 . S
C414 O407 1.247 . S
C414 O408 1.261 . S
C415 O410 1.259 . S
C415 O412 1.235 . S
O416 Co406 2.021 . S
O416 C413 1.238 . S
O417 Co411 2.052 . S
O417 C413 1.241 . S
O418 Co406 2.137 . S
O418 C409 1.247 . S
O419 Co406 2.244 . S
O419 C409 1.272 . S
O419 Co411 2.135 . S
Co420 O421 2.216 . S
Co420 O422 2.091 . S
Co420 O424 2.004 . S
Co420 O430 2.021 . S
Co420 O432 2.137 . S
Co420 O433 2.244 . S
O421 Co420 2.216 . S
O421 C428 1.247 . S
O422 Co420 2.091 . S
O422 C428 1.261 . S
C423 O432 1.247 . S
C423 O433 1.272 . S
O424 Co420 2.004 . S
O424 C429 1.259 . S
Co425 O426 2.061 . S
Co425 O431 2.052 . S
Co425 O433 2.135 . S
O426 Co425 2.061 . S
O426 C429 1.235 . S
C427 O430 1.238 . S
C427 O431 1.241 . S
C428 O421 1.247 . S
C428 O422 1.261 . S
C429 O424 1.259 . S
C429 O426 1.235 . S
O430 Co420 2.021 . S
O430 C427 1.238 . S
O431 Co425 2.052 . S
O431 C427 1.241 . S
O432 Co420 2.137 . S
O432 C423 1.247 . S
O433 Co420 2.244 . S
O433 C423 1.272 . S
O433 Co425 2.135 . S
Co434 O435 2.216 . S
Co434 O436 2.091 . S
Co434 O438 2.004 . S
Co434 O444 2.021 . S
Co434 O446 2.137 . S
Co434 O447 2.244 . S
O435 Co434 2.216 . S
O435 C442 1.247 . S
O436 Co434 2.091 . S
O436 C442 1.261 . S
C437 O446 1.247 . S
C437 O447 1.272 . S
O438 Co434 2.004 . S
O438 C443 1.259 . S
Co439 O440 2.061 . S
Co439 O445 2.052 . S
Co439 O447 2.135 . S
O440 Co439 2.061 . S
O440 C443 1.235 . S
C441 O444 1.238 . S
C441 O445 1.241 . S
C442 O435 1.247 . S
C442 O436 1.261 . S
C443 O438 1.259 . S
C443 O440 1.235 . S
O444 Co434 2.021 . S
O444 C441 1.238 . S
O445 Co439 2.052 . S
O445 C441 1.241 . S
O446 Co434 2.137 . S
O446 C437 1.247 . S
O447 Co434 2.244 . S
O447 C437 1.272 . S
O447 Co439 2.135 . S
Co448 O449 2.216 . S
Co448 O450 2.091 . S
Co448 O452 2.004 . S
Co448 O458 2.021 . S
Co448 O460 2.137 . S
Co448 O461 2.244 . S
O449 Co448 2.216 . S
O449 C456 1.247 . S
O450 Co448 2.091 . S
O450 C456 1.261 . S
C451 O460 1.247 . S
C451 O461 1.272 . S
O452 Co448 2.004 . S
O452 C457 1.259 . S
Co453 O454 2.061 . S
Co453 O459 2.052 . S
Co453 O461 2.135 . S
O454 Co453 2.061 . S
O454 C457 1.235 . S
C455 O458 1.238 . S
C455 O459 1.241 . S
C456 O449 1.247 . S
C456 O450 1.261 . S
C457 O452 1.259 . S
C457 O454 1.235 . S
O458 Co448 2.021 . S
O458 C455 1.238 . S
O459 Co453 2.052 . S
O459 C455 1.241 . S
O460 Co448 2.137 . S
O460 C451 1.247 . S
O461 Co448 2.244 . S
O461 C451 1.272 . S
O461 Co453 2.135 . S
Co462 O463 2.216 . S
Co462 O464 2.091 . S
Co462 O466 2.004 . S
Co462 O472 2.021 . S
Co462 O474 2.137 . S
Co462 O475 2.244 . S
O463 Co462 2.216 . S
O463 C470 1.247 . S
O464 Co462 2.091 . S
O464 C470 1.261 . S
C465 O474 1.247 . S
C465 O475 1.272 . S
O466 Co462 2.004 . S
O466 C471 1.259 . S
Co467 O468 2.061 . S
Co467 O473 2.052 . S
Co467 O475 2.135 . S
O468 Co467 2.061 . S
O468 C471 1.235 . S
C469 O472 1.238 . S
C469 O473 1.241 . S
C470 O463 1.247 . S
C470 O464 1.261 . S
C471 O466 1.259 . S
C471 O468 1.235 . S
O472 Co462 2.021 . S
O472 C469 1.238 . S
O473 Co467 2.052 . S
O473 C469 1.241 . S
O474 Co462 2.137 . S
O474 C465 1.247 . S
O475 Co462 2.244 . S
O475 C465 1.272 . S
O475 Co467 2.135 . S
Co476 O477 2.216 . S
Co476 O478 2.091 . S
Co476 O480 2.004 . S
Co476 O486 2.021 . S
Co476 O488 2.137 . S
Co476 O489 2.244 . S
O477 Co476 2.216 . S
O477 C484 1.247 . S
O478 Co476 2.091 . S
O478 C484 1.261 . S
C479 O488 1.247 . S
C479 O489 1.272 . S
O480 Co476 2.004 . S
O480 C485 1.259 . S
Co481 O482 2.061 . S
Co481 O487 2.052 . S
Co481 O489 2.135 . S
O482 Co481 2.061 . S
O482 C485 1.235 . S
C483 O486 1.238 . S
C483 O487 1.241 . S
C484 O477 1.247 . S
C484 O478 1.261 . S
C485 O480 1.259 . S
C485 O482 1.235 . S
O486 Co476 2.021 . S
O486 C483 1.238 . S
O487 Co481 2.052 . S
O487 C483 1.241 . S
O488 Co476 2.137 . S
O488 C479 1.247 . S
O489 Co476 2.244 . S
O489 C479 1.272 . S
O489 Co481 2.135 . S
Co490 O491 2.216 . S
Co490 O492 2.091 . S
Co490 O494 2.004 . S
Co490 O500 2.021 . S
Co490 O502 2.137 . S
Co490 O503 2.244 . S
O491 Co490 2.216 . S
O491 C498 1.247 . S
O492 Co490 2.091 . S
O492 C498 1.261 . S
C493 O502 1.247 . S
C493 O503 1.272 . S
O494 Co490 2.004 . S
O494 C499 1.259 . S
Co495 O496 2.061 . S
Co495 O501 2.052 . S
Co495 O503 2.135 . S
O496 Co495 2.061 . S
O496 C499 1.235 . S
C497 O500 1.238 . S
C497 O501 1.241 . S
C498 O491 1.247 . S
C498 O492 1.261 . S
C499 O494 1.259 . S
C499 O496 1.235 . S
O500 Co490 2.021 . S
O500 C497 1.238 . S
O501 Co495 2.052 . S
O501 C497 1.241 . S
O502 Co490 2.137 . S
O502 C493 1.247 . S
O503 Co490 2.244 . S
O503 C493 1.272 . S
O503 Co495 2.135 . S
H504 C516 0.930 . S
H505 C518 0.930 . S
H506 C519 0.930 . S
H507 C523 0.959 . S
H508 C523 0.959 . S
H509 C523 0.961 . S
H510 C524 0.960 . S
H511 C524 0.961 . S
H512 C524 0.959 . S
H513 C527 0.929 . S
H514 C528 0.931 1_554 S
H515 C530 0.930 . S
C516 H504 0.930 . S
C516 C517 1.399 . S
C516 C521 1.399 . S
C517 C516 1.399 . S
C517 C518 1.376 . S
C518 H505 0.930 . S
C518 C517 1.376 . S
C518 C519 1.388 . S
C519 H506 0.930 . S
C519 C518 1.388 . S
C519 C520 1.390 . S
C520 C519 1.390 . S
C520 C521 1.394 . S
C520 C526 1.465 . S
C521 C516 1.399 . S
C521 C520 1.394 . S
C521 C522 1.516 . S
C522 C521 1.516 . S
C522 C523 1.502 . S
C522 C524 1.561 . S
C522 C525 1.526 . S
C523 H507 0.959 . S
C523 H508 0.959 . S
C523 H509 0.961 . S
C523 C522 1.502 . S
C524 H510 0.960 . S
C524 H511 0.961 . S
C524 H512 0.959 . S
C524 C522 1.561 . S
C525 C522 1.526 . S
C525 C526 1.396 . S
C525 C530 1.390 . S
C526 C520 1.465 . S
C526 C525 1.396 . S
C526 C527 1.399 . S
C527 H513 0.929 . S
C527 C526 1.399 . S
C527 C528 1.385 . S
C528 H514 0.931 1_556 S
C528 C527 1.385 . S
C528 C529 1.389 . S
C529 C528 1.389 . S
C529 C530 1.387 . S
C530 H515 0.930 . S
C530 C525 1.390 . S
C530 C529 1.387 . S
H531 C543 0.930 . S
H532 C545 0.930 . S
H533 C546 0.930 . S
H534 C550 0.959 . S
H535 C550 0.959 . S
H536 C550 0.961 . S
H537 C551 0.960 . S
H538 C551 0.961 . S
H539 C551 0.959 . S
H540 C554 0.929 . S
H541 C555 0.931 1_565 S
H542 C557 0.930 . S
C543 H531 0.930 . S
C543 C544 1.399 . S
C543 C548 1.399 . S
C544 C543 1.399 . S
C544 C545 1.376 . S
C545 H532 0.930 . S
C545 C544 1.376 . S
C545 C546 1.388 . S
C546 H533 0.930 . S
C546 C545 1.388 . S
C546 C547 1.390 . S
C547 C546 1.390 . S
C547 C548 1.394 . S
C547 C553 1.465 . S
C548 C543 1.399 . S
C548 C547 1.394 . S
C548 C549 1.516 . S
C549 C548 1.516 . S
C549 C550 1.502 . S
C549 C551 1.561 . S
C549 C552 1.526 . S
C550 H534 0.959 . S
C550 H535 0.959 . S
C550 H536 0.961 . S
C550 C549 1.502 . S
C551 H537 0.960 . S
C551 H538 0.961 . S
C551 H539 0.959 . S
C551 C549 1.561 . S
C552 C549 1.526 . S
C552 C553 1.396 . S
C552 C557 1.390 . S
C553 C547 1.465 . S
C553 C552 1.396 . S
C553 C554 1.399 . S
C554 H540 0.929 . S
C554 C553 1.399 . S
C554 C555 1.385 . S
C555 H541 0.931 1_545 S
C555 C554 1.385 . S
C555 C556 1.389 . S
C556 C555 1.389 . S
C556 C557 1.387 . S
C557 H542 0.930 . S
C557 C552 1.390 . S
C557 C556 1.387 . S
H558 C570 0.930 . S
H559 C572 0.930 1_554 S
H560 C573 0.930 . S
H561 C577 0.959 . S
H562 C577 0.959 . S
H563 C577 0.961 . S
H564 C578 0.960 . S
H565 C578 0.961 . S
H566 C578 0.959 . S
H567 C581 0.929 . S
H568 C582 0.931 . S
H569 C584 0.930 . S
C570 H558 0.930 . S
C570 C571 1.399 . S
C570 C575 1.399 . S
C571 C570 1.399 . S
C571 C572 1.376 . S
C572 H559 0.930 1_556 S
C572 C571 1.376 . S
C572 C573 1.388 . S
C573 H560 0.930 . S
C573 C572 1.388 . S
C573 C574 1.390 . S
C574 C573 1.390 . S
C574 C575 1.394 . S
C574 C580 1.465 . S
C575 C570 1.399 . S
C575 C574 1.394 . S
C575 C576 1.516 . S
C576 C575 1.516 . S
C576 C577 1.502 . S
C576 C578 1.561 . S
C576 C579 1.526 . S
C577 H561 0.959 . S
C577 H562 0.959 . S
C577 H563 0.961 . S
C577 C576 1.502 . S
C578 H564 0.960 . S
C578 H565 0.961 . S
C578 H566 0.959 . S
C578 C576 1.561 . S
C579 C576 1.526 . S
C579 C580 1.396 . S
C579 C584 1.390 . S
C580 C574 1.465 . S
C580 C579 1.396 . S
C580 C581 1.399 . S
C581 H567 0.929 . S
C581 C580 1.399 . S
C581 C582 1.385 . S
C582 H568 0.931 . S
C582 C581 1.385 . S
C582 C583 1.389 . S
C583 C582 1.389 . S
C583 C584 1.387 . S
C584 H569 0.930 . S
C584 C579 1.390 . S
C584 C583 1.387 . S
H585 C597 0.930 . S
H586 C599 0.930 . S
H587 C600 0.930 . S
H588 C604 0.959 . S
H589 C604 0.959 . S
H590 C604 0.961 . S
H591 C605 0.960 . S
H592 C605 0.961 . S
H593 C605 0.959 . S
H594 C608 0.929 . S
H595 C609 0.931 . S
H596 C611 0.930 . S
C597 H585 0.930 . S
C597 C598 1.399 . S
C597 C602 1.399 . S
C598 C597 1.399 . S
C598 C599 1.376 . S
C599 H586 0.930 . S
C599 C598 1.376 . S
C599 C600 1.388 . S
C600 H587 0.930 . S
C600 C599 1.388 . S
C600 C601 1.390 . S
C601 C600 1.390 . S
C601 C602 1.394 . S
C601 C607 1.465 . S
C602 C597 1.399 . S
C602 C601 1.394 . S
C602 C603 1.516 . S
C603 C602 1.516 . S
C603 C604 1.502 . S
C603 C605 1.561 . S
C603 C606 1.526 . S
C604 H588 0.959 . S
C604 H589 0.959 . S
C604 H590 0.961 . S
C604 C603 1.502 . S
C605 H591 0.960 . S
C605 H592 0.961 . S
C605 H593 0.959 . S
C605 C603 1.561 . S
C606 C603 1.526 . S
C606 C607 1.396 . S
C606 C611 1.390 . S
C607 C601 1.465 . S
C607 C606 1.396 . S
C607 C608 1.399 . S
C608 H594 0.929 . S
C608 C607 1.399 . S
C608 C609 1.385 . S
C609 H595 0.931 . S
C609 C608 1.385 . S
C609 C610 1.389 . S
C610 C609 1.389 . S
C610 C611 1.387 . S
C611 H596 0.930 . S
C611 C606 1.390 . S
C611 C610 1.387 . S
H612 C624 0.930 . S
H613 C626 0.930 . S
H614 C627 0.930 . S
H615 C631 0.959 . S
H616 C631 0.959 . S
H617 C631 0.961 . S
H618 C632 0.960 . S
H619 C632 0.973 . S
H620 C632 0.959 . S
H621 C635 0.929 . S
H622 C636 0.931 . S
H623 C638 0.930 . S
C624 H612 0.930 . S
C624 C625 1.399 . S
C624 C629 1.399 . S
C625 C624 1.399 . S
C625 C626 1.376 . S
C626 H613 0.930 . S
C626 C625 1.376 . S
C626 C627 1.388 . S
C627 H614 0.930 . S
C627 C626 1.388 . S
C627 C628 1.390 . S
C628 C627 1.390 . S
C628 C629 1.394 . S
C628 C634 1.465 . S
C629 C624 1.399 . S
C629 C628 1.394 . S
C629 C630 1.516 . S
C630 C629 1.516 . S
C630 C631 1.502 . S
C630 C632 1.561 . S
C630 C633 1.526 . S
C631 H615 0.959 . S
C631 H616 0.959 . S
C631 H617 0.961 . S
C631 C630 1.502 . S
C632 H618 0.960 . S
C632 H619 0.973 . S
C632 H620 0.959 . S
C632 C630 1.561 . S
C633 C630 1.526 . S
C633 C634 1.396 . S
C633 C638 1.390 . S
C634 C628 1.465 . S
C634 C633 1.396 . S
C634 C635 1.399 . S
C635 H621 0.929 . S
C635 C634 1.399 . S
C635 C636 1.385 . S
C636 H622 0.931 . S
C636 C635 1.385 . S
C636 C637 1.389 . S
C637 C636 1.389 . S
C637 C638 1.387 . S
C638 H623 0.930 . S
C638 C633 1.390 . S
C638 C637 1.387 . S
H639 C651 0.930 . S
H640 C653 0.930 . S
H641 C654 0.930 . S
H642 C658 0.959 . S
H643 C658 0.959 . S
H644 C658 0.961 . S
H645 C659 0.960 . S
H646 C659 0.961 . S
H647 C659 0.959 . S
H648 C662 0.929 . S
H649 C663 0.931 . S
H650 C665 0.930 . S
C651 H639 0.930 . S
C651 C652 1.399 . S
C651 C656 1.399 . S
C652 C651 1.399 . S
C652 C653 1.376 . S
C653 H640 0.930 . S
C653 C652 1.376 . S
C653 C654 1.388 . S
C654 H641 0.930 . S
C654 C653 1.388 . S
C654 C655 1.390 . S
C655 C654 1.390 . S
C655 C656 1.394 . S
C655 C661 1.465 . S
C656 C651 1.399 . S
C656 C655 1.394 . S
C656 C657 1.516 . S
C657 C656 1.516 . S
C657 C658 1.502 . S
C657 C659 1.561 . S
C657 C660 1.526 . S
C658 H642 0.959 . S
C658 H643 0.959 . S
C658 H644 0.961 . S
C658 C657 1.502 . S
C659 H645 0.960 . S
C659 H646 0.961 . S
C659 H647 0.959 . S
C659 C657 1.561 . S
C660 C657 1.526 . S
C660 C661 1.396 . S
C660 C665 1.390 . S
C661 C655 1.465 . S
C661 C660 1.396 . S
C661 C662 1.399 . S
C662 H648 0.929 . S
C662 C661 1.399 . S
C662 C663 1.385 . S
C663 H649 0.931 . S
C663 C662 1.385 . S
C663 C664 1.389 . S
C664 C663 1.389 . S
C664 C665 1.387 . S
C665 H650 0.930 . S
C665 C660 1.390 . S
C665 C664 1.387 . S
H666 C678 0.930 . S
H667 C680 0.930 . S
H668 C681 0.930 . S
H669 C685 0.959 . S
H670 C685 0.959 . S
H671 C685 0.961 . S
H672 C686 0.960 . S
H673 C686 0.961 . S
H674 C686 0.959 . S
H675 C689 0.929 . S
H676 C690 0.931 . S
H677 C692 0.930 . S
C678 H666 0.930 . S
C678 C679 1.399 . S
C678 C683 1.399 . S
C679 C678 1.399 . S
C679 C680 1.376 . S
C680 H667 0.930 . S
C680 C679 1.376 . S
C680 C681 1.388 . S
C681 H668 0.930 . S
C681 C680 1.388 . S
C681 C682 1.390 . S
C682 C681 1.390 . S
C682 C683 1.394 . S
C682 C688 1.465 . S
C683 C678 1.399 . S
C683 C682 1.394 . S
C683 C684 1.516 . S
C684 C683 1.516 . S
C684 C685 1.502 . S
C684 C686 1.561 . S
C684 C687 1.526 . S
C685 H669 0.959 . S
C685 H670 0.959 . S
C685 H671 0.961 . S
C685 C684 1.502 . S
C686 H672 0.960 . S
C686 H673 0.961 . S
C686 H674 0.959 . S
C686 C684 1.561 . S
C687 C684 1.526 . S
C687 C688 1.396 . S
C687 C692 1.390 . S
C688 C682 1.465 . S
C688 C687 1.396 . S
C688 C689 1.399 . S
C689 H675 0.929 . S
C689 C688 1.399 . S
C689 C690 1.385 . S
C690 H676 0.931 . S
C690 C689 1.385 . S
C690 C691 1.389 . S
C691 C690 1.389 . S
C691 C692 1.387 . S
C692 H677 0.930 . S
C692 C687 1.390 . S
C692 C691 1.387 . S
H693 C705 0.930 . S
H694 C707 0.930 . S
H695 C708 0.930 . S
H696 C712 0.959 . S
H697 C712 0.959 . S
H698 C712 0.961 . S
H699 C713 0.960 . S
H700 C713 0.965 1_545 S
H701 C713 0.959 . S
H702 C716 0.929 . S
H703 C717 0.931 1_556 S
H704 C719 0.930 . S
C705 H693 0.930 . S
C705 C706 1.399 . S
C705 C710 1.399 . S
C706 C705 1.399 . S
C706 C707 1.376 . S
C707 H694 0.930 . S
C707 C706 1.376 . S
C707 C708 1.388 . S
C708 H695 0.930 . S
C708 C707 1.388 . S
C708 C709 1.390 . S
C709 C708 1.390 . S
C709 C710 1.394 . S
C709 C715 1.465 . S
C710 C705 1.399 . S
C710 C709 1.394 . S
C710 C711 1.516 . S
C711 C710 1.516 . S
C711 C712 1.502 . S
C711 C713 1.561 . S
C711 C714 1.526 . S
C712 H696 0.959 . S
C712 H697 0.959 . S
C712 H698 0.961 . S
C712 C711 1.502 . S
C713 H699 0.960 . S
C713 H700 0.965 1_565 S
C713 H701 0.959 . S
C713 C711 1.561 . S
C714 C711 1.526 . S
C714 C715 1.396 . S
C714 C719 1.390 . S
C715 C709 1.465 . S
C715 C714 1.396 . S
C715 C716 1.399 . S
C716 H702 0.929 . S
C716 C715 1.399 . S
C716 C717 1.385 . S
C717 H703 0.931 1_554 S
C717 C716 1.385 . S
C717 C718 1.389 . S
C718 C717 1.389 . S
C718 C719 1.387 . S
C719 H704 0.930 . S
C719 C714 1.390 . S
C719 C718 1.387 . S
H720 C732 0.930 . S
H721 C734 0.930 . S
H722 C735 0.930 . S
H723 C739 0.959 . S
H724 C739 0.959 . S
H725 C739 0.961 . S
H726 C740 0.960 . S
H727 C740 0.985 . S
H728 C740 0.959 . S
H729 C743 0.929 . S
H730 C744 0.931 . S
H731 C746 0.930 . S
C732 H720 0.930 . S
C732 C733 1.399 . S
C732 C737 1.399 . S
C733 C732 1.399 . S
C733 C734 1.376 . S
C734 H721 0.930 . S
C734 C733 1.376 . S
C734 C735 1.388 . S
C735 H722 0.930 . S
C735 C734 1.388 . S
C735 C736 1.390 . S
C736 C735 1.390 . S
C736 C737 1.394 . S
C736 C742 1.465 . S
C737 C732 1.399 . S
C737 C736 1.394 . S
C737 C738 1.516 . S
C738 C737 1.516 . S
C738 C739 1.502 . S
C738 C740 1.561 . S
C738 C741 1.526 . S
C739 H723 0.959 . S
C739 H724 0.959 . S
C739 H725 0.961 . S
C739 C738 1.502 . S
C740 H726 0.960 . S
C740 H727 0.985 . S
C740 H728 0.959 . S
C740 C738 1.561 . S
C741 C738 1.526 . S
C741 C742 1.396 . S
C741 C746 1.390 . S
C742 C736 1.465 . S
C742 C741 1.396 . S
C742 C743 1.399 . S
C743 H729 0.929 . S
C743 C742 1.399 . S
C743 C744 1.385 . S
C744 H730 0.931 . S
C744 C743 1.385 . S
C744 C745 1.389 . S
C745 C744 1.389 . S
C745 C746 1.387 . S
C746 H731 0.930 . S
C746 C741 1.390 . S
C746 C745 1.387 . S
H747 C759 0.930 . S
H748 C761 0.930 . S
H749 C762 0.930 . S
H750 C766 0.959 . S
H751 C766 0.959 . S
H752 C766 0.961 . S
H753 C767 0.960 . S
H754 C767 0.961 . S
H755 C767 0.959 . S
H756 C770 0.929 . S
H757 C771 0.931 . S
H758 C773 0.930 . S
C759 H747 0.930 . S
C759 C760 1.399 . S
C759 C764 1.399 . S
C760 C759 1.399 . S
C760 C761 1.376 . S
C761 H748 0.930 . S
C761 C760 1.376 . S
C761 C762 1.388 . S
C762 H749 0.930 . S
C762 C761 1.388 . S
C762 C763 1.390 . S
C763 C762 1.390 . S
C763 C764 1.394 . S
C763 C769 1.465 . S
C764 C759 1.399 . S
C764 C763 1.394 . S
C764 C765 1.516 . S
C765 C764 1.516 . S
C765 C766 1.502 . S
C765 C767 1.561 . S
C765 C768 1.526 . S
C766 H750 0.959 . S
C766 H751 0.959 . S
C766 H752 0.961 . S
C766 C765 1.502 . S
C767 H753 0.960 . S
C767 H754 0.961 . S
C767 H755 0.959 . S
C767 C765 1.561 . S
C768 C765 1.526 . S
C768 C769 1.396 . S
C768 C773 1.390 . S
C769 C763 1.465 . S
C769 C768 1.396 . S
C769 C770 1.399 . S
C770 H756 0.929 . S
C770 C769 1.399 . S
C770 C771 1.385 . S
C771 H757 0.931 . S
C771 C770 1.385 . S
C771 C772 1.389 . S
C772 C771 1.389 . S
C772 C773 1.387 . S
C773 H758 0.930 . S
C773 C768 1.390 . S
C773 C772 1.387 . S
H774 C786 0.930 . S
H775 C788 0.930 . S
H776 C789 0.930 . S
H777 C793 0.959 . S
H778 C793 0.959 . S
H779 C793 0.961 . S
H780 C794 0.960 . S
H781 C794 0.961 . S
H782 C794 0.959 . S
H783 C797 0.929 . S
H784 C798 0.931 . S
H785 C800 0.930 . S
C786 H774 0.930 . S
C786 C787 1.399 . S
C786 C791 1.399 . S
C787 C786 1.399 . S
C787 C788 1.376 . S
C788 H775 0.930 . S
C788 C787 1.376 . S
C788 C789 1.388 . S
C789 H776 0.930 . S
C789 C788 1.388 . S
C789 C790 1.390 . S
C790 C789 1.390 . S
C790 C791 1.394 . S
C790 C796 1.465 . S
C791 C786 1.399 . S
C791 C790 1.394 . S
C791 C792 1.516 . S
C792 C791 1.516 . S
C792 C793 1.502 . S
C792 C794 1.561 . S
C792 C795 1.526 . S
C793 H777 0.959 . S
C793 H778 0.959 . S
C793 H779 0.961 . S
C793 C792 1.502 . S
C794 H780 0.960 . S
C794 H781 0.961 . S
C794 H782 0.959 . S
C794 C792 1.561 . S
C795 C792 1.526 . S
C795 C796 1.396 . S
C795 C800 1.390 . S
C796 C790 1.465 . S
C796 C795 1.396 . S
C796 C797 1.399 . S
C797 H783 0.929 . S
C797 C796 1.399 . S
C797 C798 1.385 . S
C798 H784 0.931 . S
C798 C797 1.385 . S
C798 C799 1.389 . S
C799 C798 1.389 . S
C799 C800 1.387 . S
C800 H785 0.930 . S
C800 C795 1.390 . S
C800 C799 1.387 . S
H801 C813 0.930 . S
H802 C815 0.930 . S
H803 C816 0.930 . S
H804 C820 0.959 . S
H805 C820 0.959 . S
H806 C820 0.961 . S
H807 C821 0.960 . S
H808 C821 0.961 . S
H809 C821 0.959 . S
H810 C824 0.929 . S
H811 C825 0.931 . S
H812 C827 0.930 . S
C813 H801 0.930 . S
C813 C814 1.399 . S
C813 C818 1.399 . S
C814 C813 1.399 . S
C814 C815 1.376 . S
C815 H802 0.930 . S
C815 C814 1.376 . S
C815 C816 1.388 . S
C816 H803 0.930 . S
C816 C815 1.388 . S
C816 C817 1.390 . S
C817 C816 1.390 . S
C817 C818 1.394 . S
C817 C823 1.465 . S
C818 C813 1.399 . S
C818 C817 1.394 . S
C818 C819 1.516 . S
C819 C818 1.516 . S
C819 C820 1.502 . S
C819 C821 1.561 . S
C819 C822 1.526 . S
C820 H804 0.959 . S
C820 H805 0.959 . S
C820 H806 0.961 . S
C820 C819 1.502 . S
C821 H807 0.960 . S
C821 H808 0.961 . S
C821 H809 0.959 . S
C821 C819 1.561 . S
C822 C819 1.526 . S
C822 C823 1.396 . S
C822 C827 1.390 . S
C823 C817 1.465 . S
C823 C822 1.396 . S
C823 C824 1.399 . S
C824 H810 0.929 . S
C824 C823 1.399 . S
C824 C825 1.385 . S
C825 H811 0.931 . S
C825 C824 1.385 . S
C825 C826 1.389 . S
C826 C825 1.389 . S
C826 C827 1.387 . S
C827 H812 0.930 . S
C827 C822 1.390 . S
C827 C826 1.387 . S
H828 C840 0.930 . S
H829 C842 0.930 . S
H830 C843 0.930 . S
H831 C847 0.958 1_455 S
H832 C847 0.959 . S
H833 C847 0.961 . S
H834 C848 0.960 . S
H835 C848 0.961 . S
H836 C848 0.959 . S
H837 C851 0.929 . S
H838 C852 0.931 . S
H839 C854 0.930 . S
C840 H828 0.930 . S
C840 C841 1.399 . S
C840 C845 1.399 . S
C841 C840 1.399 . S
C841 C842 1.376 . S
C842 H829 0.930 . S
C842 C841 1.376 . S
C842 C843 1.388 . S
C843 H830 0.930 . S
C843 C842 1.388 . S
C843 C844 1.390 . S
C844 C843 1.390 . S
C844 C845 1.394 . S
C844 C850 1.465 1_455 S
C845 C840 1.399 . S
C845 C844 1.394 . S
C845 C846 1.516 1_455 S
C846 C845 1.516 1_655 S
C846 C847 1.502 . S
C846 C848 1.561 . S
C846 C849 1.526 . S
C847 H831 0.958 1_655 S
C847 H832 0.959 . S
C847 H833 0.961 . S
C847 C846 1.502 . S
C848 H834 0.960 . S
C848 H835 0.961 . S
C848 H836 0.959 . S
C848 C846 1.561 . S
C849 C846 1.526 . S
C849 C850 1.396 . S
C849 C854 1.390 . S
C850 C844 1.465 1_655 S
C850 C849 1.396 . S
C850 C851 1.399 . S
C851 H837 0.929 . S
C851 C850 1.399 . S
C851 C852 1.385 . S
C852 H838 0.931 . S
C852 C851 1.385 . S
C852 C853 1.389 . S
C853 C852 1.389 . S
C853 C854 1.387 . S
C854 H839 0.930 . S
C854 C849 1.390 . S
C854 C853 1.387 . S
H855 C867 0.930 . S
H856 C869 0.930 . S
H857 C870 0.930 . S
H858 C874 0.959 . S
H859 C874 0.959 . S
H860 C874 0.961 . S
H861 C875 0.960 . S
H862 C875 0.961 . S
H863 C875 0.959 . S
H864 C878 0.929 . S
H865 C879 0.931 . S
H866 C881 0.930 . S
C867 H855 0.930 . S
C867 C868 1.399 . S
C867 C872 1.399 . S
C868 C867 1.399 . S
C868 C869 1.376 . S
C869 H856 0.930 . S
C869 C868 1.376 . S
C869 C870 1.388 . S
C870 H857 0.930 . S
C870 C869 1.388 . S
C870 C871 1.390 . S
C871 C870 1.390 . S
C871 C872 1.394 . S
C871 C877 1.465 . S
C872 C867 1.399 . S
C872 C871 1.394 . S
C872 C873 1.516 . S
C873 C872 1.516 . S
C873 C874 1.502 . S
C873 C875 1.561 . S
C873 C876 1.526 . S
C874 H858 0.959 . S
C874 H859 0.959 . S
C874 H860 0.961 . S
C874 C873 1.502 . S
C875 H861 0.960 . S
C875 H862 0.961 . S
C875 H863 0.959 . S
C875 C873 1.561 . S
C876 C873 1.526 . S
C876 C877 1.396 . S
C876 C881 1.390 . S
C877 C871 1.465 . S
C877 C876 1.396 . S
C877 C878 1.399 . S
C878 H864 0.929 . S
C878 C877 1.399 . S
C878 C879 1.385 . S
C879 H865 0.931 . S
C879 C878 1.385 . S
C879 C880 1.389 . S
C880 C879 1.389 . S
C880 C881 1.387 . S
C881 H866 0.930 . S
C881 C876 1.390 . S
C881 C880 1.387 . S
H882 C894 0.930 . S
H883 C896 0.930 . S
H884 C897 0.930 . S
H885 C901 0.959 . S
H886 C901 0.959 . S
H887 C901 0.961 . S
H888 C902 0.960 . S
H889 C902 0.961 . S
H890 C902 0.959 . S
H891 C905 0.929 1_565 S
H892 C906 0.931 . S
H893 C908 0.930 . S
C894 H882 0.930 . S
C894 C895 1.399 . S
C894 C899 1.399 . S
C895 C894 1.399 . S
C895 C896 1.376 . S
C896 H883 0.930 . S
C896 C895 1.376 . S
C896 C897 1.388 . S
C897 H884 0.930 . S
C897 C896 1.388 . S
C897 C898 1.390 . S
C898 C897 1.390 . S
C898 C899 1.394 . S
C898 C904 1.465 1_565 S
C899 C894 1.399 . S
C899 C898 1.394 . S
C899 C900 1.516 1_565 S
C900 C899 1.516 1_545 S
C900 C901 1.502 . S
C900 C902 1.561 . S
C900 C903 1.526 . S
C901 H885 0.959 . S
C901 H886 0.959 . S
C901 H887 0.961 . S
C901 C900 1.502 . S
C902 H888 0.960 . S
C902 H889 0.961 . S
C902 H890 0.959 . S
C902 C900 1.561 . S
C903 C900 1.526 . S
C903 C904 1.396 . S
C903 C908 1.390 . S
C904 C898 1.465 1_545 S
C904 C903 1.396 . S
C904 C905 1.399 . S
C905 H891 0.929 1_545 S
C905 C904 1.399 . S
C905 C906 1.385 . S
C906 H892 0.931 . S
C906 C905 1.385 . S
C906 C907 1.389 . S
C907 C906 1.389 . S
C907 C908 1.387 . S
C908 H893 0.930 . S
C908 C903 1.390 . S
C908 C907 1.387 . S
H909 C921 0.930 . S
H910 C923 0.930 . S
H911 C924 0.930 . S
H912 C928 0.959 . S
H913 C928 0.959 . S
H914 C928 0.961 . S
H915 C929 0.960 . S
H916 C929 0.961 . S
H917 C929 0.959 . S
H918 C932 0.929 1_565 S
H919 C933 0.931 . S
H920 C935 0.930 . S
C921 H909 0.930 . S
C921 C922 1.399 . S
C921 C926 1.399 . S
C922 C921 1.399 . S
C922 C923 1.376 . S
C923 H910 0.930 . S
C923 C922 1.376 . S
C923 C924 1.388 . S
C924 H911 0.930 . S
C924 C923 1.388 . S
C924 C925 1.390 . S
C925 C924 1.390 . S
C925 C926 1.394 . S
C925 C931 1.465 1_565 S
C926 C921 1.399 . S
C926 C925 1.394 . S
C926 C927 1.516 1_565 S
C927 C926 1.516 1_545 S
C927 C928 1.502 . S
C927 C929 1.561 . S
C927 C930 1.526 . S
C928 H912 0.959 . S
C928 H913 0.959 . S
C928 H914 0.961 . S
C928 C927 1.502 . S
C929 H915 0.960 . S
C929 H916 0.961 . S
C929 H917 0.959 . S
C929 C927 1.561 . S
C930 C927 1.526 . S
C930 C931 1.396 . S
C930 C935 1.390 . S
C931 C925 1.465 1_545 S
C931 C930 1.396 . S
C931 C932 1.399 . S
C932 H918 0.929 1_545 S
C932 C931 1.399 . S
C932 C933 1.385 . S
C933 H919 0.931 . S
C933 C932 1.385 . S
C933 C934 1.389 . S
C934 C933 1.389 . S
C934 C935 1.387 . S
C935 H920 0.930 . S
C935 C930 1.390 . S
C935 C934 1.387 . S
H936 C948 0.930 . S
H937 C950 0.930 . S
H938 C951 0.930 . S
H939 C955 0.959 . S
H940 C955 0.959 . S
H941 C955 0.961 . S
H942 C956 0.960 . S
H943 C956 0.961 . S
H944 C956 0.959 . S
H945 C959 0.929 1_455 S
H946 C960 0.931 . S
H947 C962 0.930 . S
C948 H936 0.930 . S
C948 C949 1.399 . S
C948 C953 1.399 . S
C949 C948 1.399 . S
C949 C950 1.376 . S
C950 H937 0.930 . S
C950 C949 1.376 . S
C950 C951 1.388 . S
C951 H938 0.930 . S
C951 C950 1.388 . S
C951 C952 1.390 . S
C952 C951 1.390 . S
C952 C953 1.394 . S
C952 C958 1.465 1_455 S
C953 C948 1.399 . S
C953 C952 1.394 . S
C953 C954 1.516 1_455 S
C954 C953 1.516 1_655 S
C954 C955 1.502 . S
C954 C956 1.561 . S
C954 C957 1.526 . S
C955 H939 0.959 . S
C955 H940 0.959 . S
C955 H941 0.961 . S
C955 C954 1.502 . S
C956 H942 0.960 . S
C956 H943 0.961 . S
C956 H944 0.959 . S
C956 C954 1.561 . S
C957 C954 1.526 . S
C957 C958 1.396 . S
C957 C962 1.390 . S
C958 C952 1.465 1_655 S
C958 C957 1.396 . S
C958 C959 1.399 . S
C959 H945 0.929 1_655 S
C959 C958 1.399 . S
C959 C960 1.385 . S
C960 H946 0.931 . S
C960 C959 1.385 . S
C960 C961 1.389 . S
C961 C960 1.389 . S
C961 C962 1.387 . S
C962 H947 0.930 . S
C962 C957 1.390 . S
C962 C961 1.387 . S
H963 C975 0.930 . S
H964 C977 0.930 . S
H965 C978 0.930 . S
H966 C982 0.959 . S
H967 C982 0.959 . S
H968 C982 0.961 . S
H969 C983 0.960 . S
H970 C983 0.961 . S
H971 C983 0.959 . S
H972 C986 0.929 . S
H973 C987 0.931 . S
H974 C989 0.930 . S
C975 H963 0.930 . S
C975 C976 1.399 . S
C975 C980 1.399 . S
C976 C975 1.399 . S
C976 C977 1.376 . S
C977 H964 0.930 . S
C977 C976 1.376 . S
C977 C978 1.388 . S
C978 H965 0.930 . S
C978 C977 1.388 . S
C978 C979 1.390 . S
C979 C978 1.390 . S
C979 C980 1.394 . S
C979 C985 1.465 . S
C980 C975 1.399 . S
C980 C979 1.394 . S
C980 C981 1.516 . S
C981 C980 1.516 . S
C981 C982 1.502 . S
C981 C983 1.561 . S
C981 C984 1.526 . S
C982 H966 0.959 . S
C982 H967 0.959 . S
C982 H968 0.961 . S
C982 C981 1.502 . S
C983 H969 0.960 . S
C983 H970 0.961 . S
C983 H971 0.959 . S
C983 C981 1.561 . S
C984 C981 1.526 . S
C984 C985 1.396 . S
C984 C989 1.390 . S
C985 C979 1.465 . S
C985 C984 1.396 . S
C985 C986 1.399 . S
C986 H972 0.929 . S
C986 C985 1.399 . S
C986 C987 1.385 . S
C987 H973 0.931 . S
C987 C986 1.385 . S
C987 C988 1.389 . S
C988 C987 1.389 . S
C988 C989 1.387 . S
C989 H974 0.930 . S
C989 C984 1.390 . S
C989 C988 1.387 . S
H990 C1002 0.930 . S
H991 C1004 0.930 . S
H992 C1005 0.930 . S
H993 C1009 0.959 . S
H994 C1009 0.959 . S
H995 C1009 0.961 . S
H996 C1010 0.960 . S
H997 C1010 0.961 . S
H998 C1010 0.959 . S
H999 C1013 0.929 . S
H1000 C1014 0.931 . S
H1001 C1016 0.930 1_556 S
C1002 H990 0.930 . S
C1002 C1003 1.399 . S
C1002 C1007 1.399 . S
C1003 C1002 1.399 . S
C1003 C1004 1.376 1_556 S
C1004 H991 0.930 . S
C1004 C1003 1.376 1_554 S
C1004 C1005 1.388 . S
C1005 H992 0.930 . S
C1005 C1004 1.388 . S
C1005 C1006 1.390 . S
C1006 C1005 1.390 . S
C1006 C1007 1.394 1_554 S
C1006 C1012 1.465 . S
C1007 C1002 1.399 . S
C1007 C1006 1.394 1_556 S
C1007 C1008 1.516 . S
C1008 C1007 1.516 . S
C1008 C1009 1.502 . S
C1008 C1010 1.561 . S
C1008 C1011 1.543 . S
C1009 H993 0.959 . S
C1009 H994 0.959 . S
C1009 H995 0.961 . S
C1009 C1008 1.502 . S
C1010 H996 0.960 . S
C1010 H997 0.961 . S
C1010 H998 0.959 . S
C1010 C1008 1.561 . S
C1011 C1008 1.543 . S
C1011 C1012 1.379 1_556 S
C1011 C1016 1.387 1_556 S
C1012 C1006 1.465 . S
C1012 C1011 1.379 1_554 S
C1012 C1013 1.399 . S
C1013 H999 0.929 . S
C1013 C1012 1.399 . S
C1013 C1014 1.385 . S
C1014 H1000 0.931 . S
C1014 C1013 1.385 . S
C1014 C1015 1.389 . S
C1015 C1014 1.389 . S
C1015 C1016 1.387 . S
C1016 H1001 0.930 1_554 S
C1016 C1011 1.387 1_554 S
C1016 C1015 1.387 . S
H1017 C1029 0.930 . S
H1018 C1031 0.930 . S
H1019 C1032 0.930 . S
H1020 C1036 0.959 . S
H1021 C1036 0.959 . S
H1022 C1036 0.961 . S
H1023 C1037 0.960 . S
H1024 C1037 0.961 . S
H1025 C1037 0.959 . S
H1026 C1040 0.929 . S
H1027 C1041 0.931 . S
H1028 C1043 0.930 . S
C1029 H1017 0.930 . S
C1029 C1030 1.399 1_554 S
C1029 C1034 1.399 . S
C1030 C1029 1.399 1_556 S
C1030 C1031 1.376 . S
C1031 H1018 0.930 . S
C1031 C1030 1.376 . S
C1031 C1032 1.388 . S
C1032 H1019 0.930 . S
C1032 C1031 1.388 . S
C1032 C1033 1.390 . S
C1033 C1032 1.390 . S
C1033 C1034 1.394 1_556 S
C1033 C1039 1.465 . S
C1034 C1029 1.399 . S
C1034 C1033 1.394 1_554 S
C1034 C1035 1.516 . S
C1035 C1034 1.516 . S
C1035 C1036 1.502 . S
C1035 C1037 1.561 . S
C1035 C1038 1.526 . S
C1036 H1020 0.959 . S
C1036 H1021 0.959 . S
C1036 H1022 0.961 . S
C1036 C1035 1.502 . S
C1037 H1023 0.960 . S
C1037 H1024 0.961 . S
C1037 H1025 0.959 . S
C1037 C1035 1.561 . S
C1038 C1035 1.526 . S
C1038 C1039 1.396 1_554 S
C1038 C1043 1.390 . S
C1039 C1033 1.465 . S
C1039 C1038 1.396 1_556 S
C1039 C1040 1.399 . S
C1040 H1026 0.929 . S
C1040 C1039 1.399 . S
C1040 C1041 1.385 . S
C1041 H1027 0.931 . S
C1041 C1040 1.385 . S
C1041 C1042 1.389 1_556 S
C1042 C1041 1.389 1_554 S
C1042 C1043 1.387 . S
C1043 H1028 0.930 . S
C1043 C1038 1.390 . S
C1043 C1042 1.387 . S
H1044 C1056 0.930 . S
H1045 C1058 0.930 . S
H1046 C1059 0.930 . S
H1047 C1063 0.959 . S
H1048 C1063 0.959 . S
H1049 C1063 0.961 . S
H1050 C1064 0.960 . S
H1051 C1064 0.961 . S
H1052 C1064 0.959 . S
H1053 C1067 0.929 . S
H1054 C1068 0.931 . S
H1055 C1070 0.930 . S
C1056 H1044 0.930 . S
C1056 C1057 1.399 . S
C1056 C1061 1.399 . S
C1057 C1056 1.399 . S
C1057 C1058 1.376 . S
C1058 H1045 0.930 . S
C1058 C1057 1.376 . S
C1058 C1059 1.388 . S
C1059 H1046 0.930 . S
C1059 C1058 1.388 . S
C1059 C1060 1.394 . S
C1060 C1059 1.394 . S
C1060 C1061 1.398 . S
C1060 C1066 1.457 1_556 S
C1061 C1056 1.399 . S
C1061 C1060 1.398 . S
C1061 C1062 1.518 . S
C1062 C1061 1.518 . S
C1062 C1063 1.494 1_556 S
C1062 C1064 1.572 . S
C1062 C1065 1.522 1_556 S
C1063 H1047 0.959 . S
C1063 H1048 0.959 . S
C1063 H1049 0.961 . S
C1063 C1062 1.494 1_554 S
C1064 H1050 0.960 . S
C1064 H1051 0.961 . S
C1064 H1052 0.959 . S
C1064 C1062 1.572 . S
C1065 C1062 1.522 1_554 S
C1065 C1066 1.396 . S
C1065 C1070 1.390 . S
C1066 C1060 1.457 1_554 S
C1066 C1065 1.396 . S
C1066 C1067 1.399 . S
C1067 H1053 0.929 . S
C1067 C1066 1.399 . S
C1067 C1068 1.385 . S
C1068 H1054 0.931 . S
C1068 C1067 1.385 . S
C1068 C1069 1.389 . S
C1069 C1068 1.389 . S
C1069 C1070 1.387 . S
C1070 H1055 0.930 . S
C1070 C1065 1.390 . S
C1070 C1069 1.387 . S
H1071 C1083 0.930 . S
H1072 C1085 0.930 . S
H1073 C1086 0.930 . S
H1074 C1090 0.959 . S
H1075 C1090 0.959 . S
H1076 C1090 0.961 . S
H1077 C1091 0.960 . S
H1078 C1091 0.961 . S
H1079 C1091 0.959 . S
H1080 C1094 0.929 . S
H1081 C1095 0.931 . S
H1082 C1097 0.930 . S
C1083 H1071 0.930 . S
C1083 C1084 1.399 . S
C1083 C1088 1.399 . S
C1084 C1083 1.399 . S
C1084 C1085 1.376 . S
C1085 H1072 0.930 . S
C1085 C1084 1.376 . S
C1085 C1086 1.388 . S
C1086 H1073 0.930 . S
C1086 C1085 1.388 . S
C1086 C1087 1.390 . S
C1087 C1086 1.390 . S
C1087 C1088 1.394 . S
C1087 C1093 1.465 . S
C1088 C1083 1.399 . S
C1088 C1087 1.394 . S
C1088 C1089 1.516 . S
C1089 C1088 1.516 . S
C1089 C1090 1.502 . S
C1089 C1091 1.561 . S
C1089 C1092 1.526 . S
C1090 H1074 0.959 . S
C1090 H1075 0.959 . S
C1090 H1076 0.961 . S
C1090 C1089 1.502 . S
C1091 H1077 0.960 . S
C1091 H1078 0.961 . S
C1091 H1079 0.959 . S
C1091 C1089 1.561 . S
C1092 C1089 1.526 . S
C1092 C1093 1.396 . S
C1092 C1097 1.390 . S
C1093 C1087 1.465 . S
C1093 C1092 1.396 . S
C1093 C1094 1.399 . S
C1094 H1080 0.929 . S
C1094 C1093 1.399 . S
C1094 C1095 1.385 . S
C1095 H1081 0.931 . S
C1095 C1094 1.385 . S
C1095 C1096 1.389 . S
C1096 C1095 1.389 . S
C1096 C1097 1.387 . S
C1097 H1082 0.930 . S
C1097 C1092 1.390 . S
C1097 C1096 1.387 . S
H1098 C1110 0.930 . S
H1099 C1112 0.930 . S
H1100 C1113 0.930 . S
H1101 C1117 0.959 . S
H1102 C1117 0.959 . S
H1103 C1117 0.961 . S
H1104 C1118 0.960 . S
H1105 C1118 0.961 . S
H1106 C1118 0.959 . S
H1107 C1121 0.929 . S
H1108 C1122 0.931 . S
H1109 C1124 0.930 . S
C1110 H1098 0.930 . S
C1110 C1111 1.399 . S
C1110 C1115 1.399 . S
C1111 C1110 1.399 . S
C1111 C1112 1.376 . S
C1112 H1099 0.930 . S
C1112 C1111 1.376 . S
C1112 C1113 1.388 . S
C1113 H1100 0.930 . S
C1113 C1112 1.388 . S
C1113 C1114 1.390 . S
C1114 C1113 1.390 . S
C1114 C1115 1.394 . S
C1114 C1120 1.465 . S
C1115 C1110 1.399 . S
C1115 C1114 1.394 . S
C1115 C1116 1.516 . S
C1116 C1115 1.516 . S
C1116 C1117 1.502 . S
C1116 C1118 1.561 . S
C1116 C1119 1.526 . S
C1117 H1101 0.959 . S
C1117 H1102 0.959 . S
C1117 H1103 0.961 . S
C1117 C1116 1.502 . S
C1118 H1104 0.960 . S
C1118 H1105 0.961 . S
C1118 H1106 0.959 . S
C1118 C1116 1.561 . S
C1119 C1116 1.526 . S
C1119 C1120 1.396 . S
C1119 C1124 1.390 . S
C1120 C1114 1.465 . S
C1120 C1119 1.396 . S
C1120 C1121 1.399 . S
C1121 H1107 0.929 . S
C1121 C1120 1.399 . S
C1121 C1122 1.385 . S
C1122 H1108 0.931 . S
C1122 C1121 1.385 . S
C1122 C1123 1.389 . S
C1123 C1122 1.389 . S
C1123 C1124 1.387 . S
C1124 H1109 0.930 . S
C1124 C1119 1.390 . S
C1124 C1123 1.387 . S
H1125 C1137 0.930 . S
H1126 C1139 0.930 . S
H1127 C1140 0.930 . S
H1128 C1144 0.959 . S
H1129 C1144 0.959 . S
H1130 C1144 0.961 . S
H1131 C1145 0.960 . S
H1132 C1145 0.961 . S
H1133 C1145 0.959 . S
H1134 C1148 0.929 . S
H1135 C1149 0.931 . S
H1136 C1151 0.930 . S
C1137 H1125 0.930 . S
C1137 C1138 1.399 . S
C1137 C1142 1.399 . S
C1138 C1137 1.399 . S
C1138 C1139 1.376 . S
C1139 H1126 0.930 . S
C1139 C1138 1.376 . S
C1139 C1140 1.388 . S
C1140 H1127 0.930 . S
C1140 C1139 1.388 . S
C1140 C1141 1.390 . S
C1141 C1140 1.390 . S
C1141 C1142 1.394 . S
C1141 C1147 1.465 . S
C1142 C1137 1.399 . S
C1142 C1141 1.394 . S
C1142 C1143 1.516 . S
C1143 C1142 1.516 . S
C1143 C1144 1.502 . S
C1143 C1145 1.561 . S
C1143 C1146 1.526 . S
C1144 H1128 0.959 . S
C1144 H1129 0.959 . S
C1144 H1130 0.961 . S
C1144 C1143 1.502 . S
C1145 H1131 0.960 . S
C1145 H1132 0.961 . S
C1145 H1133 0.959 . S
C1145 C1143 1.561 . S
C1146 C1143 1.526 . S
C1146 C1147 1.396 . S
C1146 C1151 1.390 . S
C1147 C1141 1.465 . S
C1147 C1146 1.396 . S
C1147 C1148 1.399 . S
C1148 H1134 0.929 . S
C1148 C1147 1.399 . S
C1148 C1149 1.385 . S
C1149 H1135 0.931 . S
C1149 C1148 1.385 . S
C1149 C1150 1.389 . S
C1150 C1149 1.389 . S
C1150 C1151 1.387 . S
C1151 H1136 0.930 . S
C1151 C1146 1.390 . S
C1151 C1150 1.387 . S
H1152 C1164 0.930 . S
H1153 C1166 0.930 . S
H1154 C1167 0.930 . S
H1155 C1171 0.959 . S
H1156 C1171 0.959 . S
H1157 C1171 0.961 . S
H1158 C1172 0.960 . S
H1159 C1172 0.961 . S
H1160 C1172 0.959 . S
H1161 C1175 0.929 . S
H1162 C1176 0.931 . S
H1163 C1178 0.930 1_554 S
C1164 H1152 0.930 . S
C1164 C1165 1.399 . S
C1164 C1169 1.399 . S
C1165 C1164 1.399 . S
C1165 C1166 1.376 1_554 S
C1166 H1153 0.930 . S
C1166 C1165 1.376 1_556 S
C1166 C1167 1.388 . S
C1167 H1154 0.930 . S
C1167 C1166 1.388 . S
C1167 C1168 1.390 . S
C1168 C1167 1.390 . S
C1168 C1169 1.394 1_556 S
C1168 C1174 1.465 . S
C1169 C1164 1.399 . S
C1169 C1168 1.394 1_554 S
C1169 C1170 1.516 . S
C1170 C1169 1.516 . S
C1170 C1171 1.502 . S
C1170 C1172 1.561 . S
C1170 C1173 1.526 . S
C1171 H1155 0.959 . S
C1171 H1156 0.959 . S
C1171 H1157 0.961 . S
C1171 C1170 1.502 . S
C1172 H1158 0.960 . S
C1172 H1159 0.961 . S
C1172 H1160 0.959 . S
C1172 C1170 1.561 . S
C1173 C1170 1.526 . S
C1173 C1174 1.396 1_554 S
C1173 C1178 1.390 1_554 S
C1174 C1168 1.465 . S
C1174 C1173 1.396 1_556 S
C1174 C1175 1.399 . S
C1175 H1161 0.929 . S
C1175 C1174 1.399 . S
C1175 C1176 1.385 . S
C1176 H1162 0.931 . S
C1176 C1175 1.385 . S
C1176 C1177 1.389 . S
C1177 C1176 1.389 . S
C1177 C1178 1.387 . S
C1178 H1163 0.930 1_556 S
C1178 C1173 1.390 1_556 S
C1178 C1177 1.387 . S
H1179 C1191 0.930 . S
H1180 C1193 0.923 1_554 S
H1181 C1194 0.930 . S
H1182 C1198 0.959 . S
H1183 C1198 0.959 . S
H1184 C1198 0.961 . S
H1185 C1199 0.960 . S
H1186 C1199 0.961 . S
H1187 C1199 0.959 1_554 S
H1188 C1202 0.929 . S
H1189 C1203 0.931 . S
H1190 C1205 0.937 . S
C1191 H1179 0.930 . S
C1191 C1192 1.399 . S
C1191 C1196 1.399 . S
C1192 C1191 1.399 . S
C1192 C1193 1.376 . S
C1193 H1180 0.923 1_556 S
C1193 C1192 1.376 . S
C1193 C1194 1.388 1_556 S
C1194 H1181 0.930 . S
C1194 C1193 1.388 1_554 S
C1194 C1195 1.395 . S
C1195 C1194 1.395 . S
C1195 C1196 1.380 1_554 S
C1195 C1201 1.471 . S
C1196 C1191 1.399 . S
C1196 C1195 1.380 1_556 S
C1196 C1197 1.516 . S
C1197 C1196 1.516 . S
C1197 C1198 1.502 . S
C1197 C1199 1.561 . S
C1197 C1200 1.526 . S
C1198 H1182 0.959 . S
C1198 H1183 0.959 . S
C1198 H1184 0.961 . S
C1198 C1197 1.502 . S
C1199 H1185 0.960 . S
C1199 H1186 0.961 . S
C1199 H1187 0.959 1_556 S
C1199 C1197 1.561 . S
C1200 C1197 1.526 . S
C1200 C1201 1.396 1_556 S
C1200 C1205 1.392 . S
C1201 C1195 1.471 . S
C1201 C1200 1.396 1_554 S
C1201 C1202 1.399 . S
C1202 H1188 0.929 . S
C1202 C1201 1.399 . S
C1202 C1203 1.385 . S
C1203 H1189 0.931 . S
C1203 C1202 1.385 . S
C1203 C1204 1.389 . S
C1204 C1203 1.389 . S
C1204 C1205 1.378 1_554 S
C1205 H1190 0.937 . S
C1205 C1200 1.392 . S
C1205 C1204 1.378 1_556 S
H1206 C1218 0.930 . S
H1207 C1220 0.930 . S
H1208 C1221 0.930 . S
H1209 C1225 0.959 . S
H1210 C1225 0.959 . S
H1211 C1225 0.961 . S
H1212 C1226 0.960 . S
H1213 C1226 0.961 . S
H1214 C1226 0.959 . S
H1215 C1229 0.929 . S
H1216 C1230 0.931 . S
H1217 C1232 0.930 . S
C1218 H1206 0.930 . S
C1218 C1219 1.399 . S
C1218 C1223 1.397 1_554 S
C1219 C1218 1.399 . S
C1219 C1220 1.376 . S
C1220 H1207 0.930 . S
C1220 C1219 1.376 . S
C1220 C1221 1.388 1_554 S
C1221 H1208 0.930 . S
C1221 C1220 1.388 1_556 S
C1221 C1222 1.390 . S
C1222 C1221 1.390 . S
C1222 C1223 1.395 . S
C1222 C1228 1.465 . S
C1223 C1218 1.397 1_556 S
C1223 C1222 1.395 . S
C1223 C1224 1.517 . S
C1224 C1223 1.517 . S
C1224 C1225 1.502 1_556 S
C1224 C1226 1.561 . S
C1224 C1227 1.526 . S
C1225 H1209 0.959 . S
C1225 H1210 0.959 . S
C1225 H1211 0.961 . S
C1225 C1224 1.502 1_554 S
C1226 H1212 0.960 . S
C1226 H1213 0.961 . S
C1226 H1214 0.959 . S
C1226 C1224 1.561 . S
C1227 C1224 1.526 . S
C1227 C1228 1.396 . S
C1227 C1232 1.390 . S
C1228 C1222 1.465 . S
C1228 C1227 1.396 . S
C1228 C1229 1.399 . S
C1229 H1215 0.929 . S
C1229 C1228 1.399 . S
C1229 C1230 1.385 . S
C1230 H1216 0.931 . S
C1230 C1229 1.385 . S
C1230 C1231 1.389 . S
C1231 C1230 1.389 . S
C1231 C1232 1.387 . S
C1232 H1217 0.930 . S
C1232 C1227 1.390 . S
C1232 C1231 1.387 . S
H1233 C1245 0.930 . S
H1234 C1247 0.930 . S
H1235 C1248 0.930 . S
H1236 C1252 0.959 . S
H1237 C1252 0.959 . S
H1238 C1252 0.961 . S
H1239 C1253 0.960 . S
H1240 C1253 0.961 . S
H1241 C1253 0.959 . S
H1242 C1256 0.929 . S
H1243 C1257 0.931 . S
H1244 C1259 0.930 . S
C1245 H1233 0.930 . S
C1245 C1246 1.399 . S
C1245 C1250 1.399 . S
C1246 C1245 1.399 . S
C1246 C1247 1.376 . S
C1247 H1234 0.930 . S
C1247 C1246 1.376 . S
C1247 C1248 1.388 . S
C1248 H1235 0.930 . S
C1248 C1247 1.388 . S
C1248 C1249 1.390 . S
C1249 C1248 1.390 . S
C1249 C1250 1.394 . S
C1249 C1255 1.465 . S
C1250 C1245 1.399 . S
C1250 C1249 1.394 . S
C1250 C1251 1.516 . S
C1251 C1250 1.516 . S
C1251 C1252 1.502 . S
C1251 C1253 1.561 . S
C1251 C1254 1.526 . S
C1252 H1236 0.959 . S
C1252 H1237 0.959 . S
C1252 H1238 0.961 . S
C1252 C1251 1.502 . S
C1253 H1239 0.960 . S
C1253 H1240 0.961 . S
C1253 H1241 0.959 . S
C1253 C1251 1.561 . S
C1254 C1251 1.526 . S
C1254 C1255 1.396 . S
C1254 C1259 1.390 . S
C1255 C1249 1.465 . S
C1255 C1254 1.396 . S
C1255 C1256 1.399 . S
C1256 H1242 0.929 . S
C1256 C1255 1.399 . S
C1256 C1257 1.385 . S
C1257 H1243 0.931 . S
C1257 C1256 1.385 . S
C1257 C1258 1.389 . S
C1258 C1257 1.389 . S
C1258 C1259 1.387 . S
C1259 H1244 0.930 . S
C1259 C1254 1.390 . S
C1259 C1258 1.387 . S
H1260 C1272 0.930 . S
H1261 C1274 0.930 . S
H1262 C1275 0.930 . S
H1263 C1279 0.959 . S
H1264 C1279 0.959 . S
H1265 C1279 0.961 . S
H1266 C1280 0.960 . S
H1267 C1280 0.961 . S
H1268 C1280 0.959 . S
H1269 C1283 0.929 . S
H1270 C1284 0.931 . S
H1271 C1286 0.930 . S
C1272 H1260 0.930 . S
C1272 C1273 1.399 . S
C1272 C1277 1.399 . S
C1273 C1272 1.399 . S
C1273 C1274 1.376 . S
C1274 H1261 0.930 . S
C1274 C1273 1.376 . S
C1274 C1275 1.388 . S
C1275 H1262 0.930 . S
C1275 C1274 1.388 . S
C1275 C1276 1.390 . S
C1276 C1275 1.390 . S
C1276 C1277 1.394 . S
C1276 C1282 1.465 . S
C1277 C1272 1.399 . S
C1277 C1276 1.394 . S
C1277 C1278 1.516 . S
C1278 C1277 1.516 . S
C1278 C1279 1.502 . S
C1278 C1280 1.561 . S
C1278 C1281 1.526 . S
C1279 H1263 0.959 . S
C1279 H1264 0.959 . S
C1279 H1265 0.961 . S
C1279 C1278 1.502 . S
C1280 H1266 0.960 . S
C1280 H1267 0.961 . S
C1280 H1268 0.959 . S
C1280 C1278 1.561 . S
C1281 C1278 1.526 . S
C1281 C1282 1.396 . S
C1281 C1286 1.390 . S
C1282 C1276 1.465 . S
C1282 C1281 1.396 . S
C1282 C1283 1.399 . S
C1283 H1269 0.929 . S
C1283 C1282 1.399 . S
C1283 C1284 1.385 . S
C1284 H1270 0.931 . S
C1284 C1283 1.385 . S
C1284 C1285 1.389 . S
C1285 C1284 1.389 . S
C1285 C1286 1.387 . S
C1286 H1271 0.930 . S
C1286 C1281 1.390 . S
C1286 C1285 1.387 . S
H1287 C1299 0.930 . S
H1288 C1301 0.930 . S
H1289 C1302 0.930 . S
H1290 C1306 0.959 . S
H1291 C1306 0.959 . S
H1292 C1306 0.961 . S
H1293 C1307 0.960 . S
H1294 C1307 0.961 . S
H1295 C1307 0.959 . S
H1296 C1310 0.929 . S
H1297 C1311 0.931 . S
H1298 C1313 0.930 . S
C1299 H1287 0.930 . S
C1299 C1300 1.399 . S
C1299 C1304 1.399 . S
C1300 C1299 1.399 . S
C1300 C1301 1.376 . S
C1301 H1288 0.930 . S
C1301 C1300 1.376 . S
C1301 C1302 1.388 . S
C1302 H1289 0.930 . S
C1302 C1301 1.388 . S
C1302 C1303 1.390 . S
C1303 C1302 1.390 . S
C1303 C1304 1.394 . S
C1303 C1309 1.465 . S
C1304 C1299 1.399 . S
C1304 C1303 1.394 . S
C1304 C1305 1.516 . S
C1305 C1304 1.516 . S
C1305 C1306 1.502 . S
C1305 C1307 1.561 . S
C1305 C1308 1.526 . S
C1306 H1290 0.959 . S
C1306 H1291 0.959 . S
C1306 H1292 0.961 . S
C1306 C1305 1.502 . S
C1307 H1293 0.960 . S
C1307 H1294 0.961 . S
C1307 H1295 0.959 . S
C1307 C1305 1.561 . S
C1308 C1305 1.526 . S
C1308 C1309 1.396 . S
C1308 C1313 1.390 . S
C1309 C1303 1.465 . S
C1309 C1308 1.396 . S
C1309 C1310 1.399 . S
C1310 H1296 0.929 . S
C1310 C1309 1.399 . S
C1310 C1311 1.385 . S
C1311 H1297 0.931 . S
C1311 C1310 1.385 . S
C1311 C1312 1.389 . S
C1312 C1311 1.389 . S
C1312 C1313 1.387 . S
C1313 H1298 0.930 . S
C1313 C1308 1.390 . S
C1313 C1312 1.387 . S
H1314 C1326 0.930 . S
H1315 C1328 0.930 . S
H1316 C1329 0.930 . S
H1317 C1333 0.959 . S
H1318 C1333 0.959 . S
H1319 C1333 0.961 . S
H1320 C1334 0.960 . S
H1321 C1334 0.961 . S
H1322 C1334 0.959 . S
H1323 C1337 0.929 . S
H1324 C1338 0.931 . S
H1325 C1340 0.930 . S
C1326 H1314 0.930 . S
C1326 C1327 1.399 . S
C1326 C1331 1.399 . S
C1327 C1326 1.399 . S
C1327 C1328 1.376 . S
C1328 H1315 0.930 . S
C1328 C1327 1.376 . S
C1328 C1329 1.388 . S
C1329 H1316 0.930 . S
C1329 C1328 1.388 . S
C1329 C1330 1.390 . S
C1330 C1329 1.390 . S
C1330 C1331 1.394 . S
C1330 C1336 1.465 . S
C1331 C1326 1.399 . S
C1331 C1330 1.394 . S
C1331 C1332 1.516 . S
C1332 C1331 1.516 . S
C1332 C1333 1.502 . S
C1332 C1334 1.561 . S
C1332 C1335 1.526 . S
C1333 H1317 0.959 . S
C1333 H1318 0.959 . S
C1333 H1319 0.961 . S
C1333 C1332 1.502 . S
C1334 H1320 0.960 . S
C1334 H1321 0.961 . S
C1334 H1322 0.959 . S
C1334 C1332 1.561 . S
C1335 C1332 1.526 . S
C1335 C1336 1.396 . S
C1335 C1340 1.390 . S
C1336 C1330 1.465 . S
C1336 C1335 1.396 . S
C1336 C1337 1.399 . S
C1337 H1323 0.929 . S
C1337 C1336 1.399 . S
C1337 C1338 1.385 . S
C1338 H1324 0.931 . S
C1338 C1337 1.385 . S
C1338 C1339 1.389 . S
C1339 C1338 1.389 . S
C1339 C1340 1.387 . S
C1340 H1325 0.930 . S
C1340 C1335 1.390 . S
C1340 C1339 1.387 . S
H1341 C1353 0.930 . S
H1342 C1355 0.930 . S
H1343 C1356 0.930 . S
H1344 C1360 0.959 . S
H1345 C1360 0.959 . S
H1346 C1360 0.961 . S
H1347 C1361 0.960 . S
H1348 C1361 0.961 . S
H1349 C1361 0.959 . S
H1350 C1364 0.929 . S
H1351 C1365 0.931 . S
H1352 C1367 0.930 . S
C1353 H1341 0.930 . S
C1353 C1354 1.399 . S
C1353 C1358 1.399 . S
C1354 C1353 1.399 . S
C1354 C1355 1.376 . S
C1355 H1342 0.930 . S
C1355 C1354 1.376 . S
C1355 C1356 1.388 . S
C1356 H1343 0.930 . S
C1356 C1355 1.388 . S
C1356 C1357 1.390 . S
C1357 C1356 1.390 . S
C1357 C1358 1.394 . S
C1357 C1363 1.465 . S
C1358 C1353 1.399 . S
C1358 C1357 1.394 . S
C1358 C1359 1.516 . S
C1359 C1358 1.516 . S
C1359 C1360 1.502 . S
C1359 C1361 1.561 . S
C1359 C1362 1.526 . S
C1360 H1344 0.959 . S
C1360 H1345 0.959 . S
C1360 H1346 0.961 . S
C1360 C1359 1.502 . S
C1361 H1347 0.960 . S
C1361 H1348 0.961 . S
C1361 H1349 0.959 . S
C1361 C1359 1.561 . S
C1362 C1359 1.526 . S
C1362 C1363 1.396 . S
C1362 C1367 1.390 . S
C1363 C1357 1.465 . S
C1363 C1362 1.396 . S
C1363 C1364 1.399 . S
C1364 H1350 0.929 . S
C1364 C1363 1.399 . S
C1364 C1365 1.385 . S
C1365 H1351 0.931 . S
C1365 C1364 1.385 . S
C1365 C1366 1.389 . S
C1366 C1365 1.389 . S
C1366 C1367 1.387 . S
C1367 H1352 0.930 . S
C1367 C1362 1.390 . S
C1367 C1366 1.387 . S
H1368 C1380 0.930 . S
H1369 C1382 0.930 . S
H1370 C1383 0.930 . S
H1371 C1387 0.959 . S
H1372 C1387 0.959 . S
H1373 C1387 0.961 . S
H1374 C1388 0.960 . S
H1375 C1388 0.961 . S
H1376 C1388 0.959 . S
H1377 C1391 0.929 . S
H1378 C1392 0.931 . S
H1379 C1394 0.930 . S
C1380 H1368 0.930 . S
C1380 C1381 1.399 . S
C1380 C1385 1.399 . S
C1381 C1380 1.399 . S
C1381 C1382 1.376 . S
C1382 H1369 0.930 . S
C1382 C1381 1.376 . S
C1382 C1383 1.388 . S
C1383 H1370 0.930 . S
C1383 C1382 1.388 . S
C1383 C1384 1.390 . S
C1384 C1383 1.390 . S
C1384 C1385 1.394 . S
C1384 C1390 1.465 . S
C1385 C1380 1.399 . S
C1385 C1384 1.394 . S
C1385 C1386 1.516 . S
C1386 C1385 1.516 . S
C1386 C1387 1.502 . S
C1386 C1388 1.561 . S
C1386 C1389 1.526 . S
C1387 H1371 0.959 . S
C1387 H1372 0.959 . S
C1387 H1373 0.961 . S
C1387 C1386 1.502 . S
C1388 H1374 0.960 . S
C1388 H1375 0.961 . S
C1388 H1376 0.959 . S
C1388 C1386 1.561 . S
C1389 C1386 1.526 . S
C1389 C1390 1.396 . S
C1389 C1394 1.390 . S
C1390 C1384 1.465 . S
C1390 C1389 1.396 . S
C1390 C1391 1.399 . S
C1391 H1377 0.929 . S
C1391 C1390 1.399 . S
C1391 C1392 1.385 . S
C1392 H1378 0.931 . S
C1392 C1391 1.385 . S
C1392 C1393 1.389 . S
C1393 C1392 1.389 . S
C1393 C1394 1.387 . S
C1394 H1379 0.930 . S
C1394 C1389 1.390 . S
C1394 C1393 1.387 . S
H1395 C1407 0.930 . S
H1396 C1409 0.930 . S
H1397 C1410 0.930 . S
H1398 C1414 0.959 . S
H1399 C1414 0.959 . S
H1400 C1414 0.961 . S
H1401 C1415 0.960 . S
H1402 C1415 0.961 . S
H1403 C1415 0.959 . S
H1404 C1418 0.929 . S
H1405 C1419 0.931 . S
H1406 C1421 0.930 . S
C1407 H1395 0.930 . S
C1407 C1408 1.399 . S
C1407 C1412 1.399 . S
C1408 C1407 1.399 . S
C1408 C1409 1.376 . S
C1409 H1396 0.930 . S
C1409 C1408 1.376 . S
C1409 C1410 1.388 . S
C1410 H1397 0.930 . S
C1410 C1409 1.388 . S
C1410 C1411 1.390 . S
C1411 C1410 1.390 . S
C1411 C1412 1.394 . S
C1411 C1417 1.465 . S
C1412 C1407 1.399 . S
C1412 C1411 1.394 . S
C1412 C1413 1.516 . S
C1413 C1412 1.516 . S
C1413 C1414 1.502 . S
C1413 C1415 1.561 . S
C1413 C1416 1.526 . S
C1414 H1398 0.959 . S
C1414 H1399 0.959 . S
C1414 H1400 0.961 . S
C1414 C1413 1.502 . S
C1415 H1401 0.960 . S
C1415 H1402 0.961 . S
C1415 H1403 0.959 . S
C1415 C1413 1.561 . S
C1416 C1413 1.526 . S
C1416 C1417 1.396 . S
C1416 C1421 1.390 . S
C1417 C1411 1.465 . S
C1417 C1416 1.396 . S
C1417 C1418 1.399 . S
C1418 H1404 0.929 . S
C1418 C1417 1.399 . S
C1418 C1419 1.385 . S
C1419 H1405 0.931 . S
C1419 C1418 1.385 . S
C1419 C1420 1.389 . S
C1420 C1419 1.389 . S
C1420 C1421 1.387 . S
C1421 H1406 0.930 . S
C1421 C1416 1.390 . S
C1421 C1420 1.387 . S
H1422 C1434 0.930 . S
H1423 C1436 0.930 . S
H1424 C1437 0.930 . S
H1425 C1441 0.959 . S
H1426 C1441 0.959 . S
H1427 C1441 0.961 . S
H1428 C1442 0.960 . S
H1429 C1442 0.961 . S
H1430 C1442 0.959 . S
H1431 C1445 0.929 . S
H1432 C1446 0.931 . S
H1433 C1448 0.930 . S
C1434 H1422 0.930 . S
C1434 C1435 1.399 . S
C1434 C1439 1.399 . S
C1435 C1434 1.399 . S
C1435 C1436 1.376 . S
C1436 H1423 0.930 . S
C1436 C1435 1.376 . S
C1436 C1437 1.388 . S
C1437 H1424 0.930 . S
C1437 C1436 1.388 . S
C1437 C1438 1.390 . S
C1438 C1437 1.390 . S
C1438 C1439 1.394 . S
C1438 C1444 1.465 . S
C1439 C1434 1.399 . S
C1439 C1438 1.394 . S
C1439 C1440 1.516 . S
C1440 C1439 1.516 . S
C1440 C1441 1.502 . S
C1440 C1442 1.561 . S
C1440 C1443 1.526 . S
C1441 H1425 0.959 . S
C1441 H1426 0.959 . S
C1441 H1427 0.961 . S
C1441 C1440 1.502 . S
C1442 H1428 0.960 . S
C1442 H1429 0.961 . S
C1442 H1430 0.959 . S
C1442 C1440 1.561 . S
C1443 C1440 1.526 . S
C1443 C1444 1.396 . S
C1443 C1448 1.390 . S
C1444 C1438 1.465 . S
C1444 C1443 1.396 . S
C1444 C1445 1.399 . S
C1445 H1431 0.929 . S
C1445 C1444 1.399 . S
C1445 C1446 1.385 . S
C1446 H1432 0.931 . S
C1446 C1445 1.385 . S
C1446 C1447 1.389 . S
C1447 C1446 1.389 . S
C1447 C1448 1.387 . S
C1448 H1433 0.930 . S
C1448 C1443 1.390 . S
C1448 C1447 1.387 . S
H1449 C1461 0.930 . S
H1450 C1463 0.930 . S
H1451 C1464 0.930 . S
H1452 C1468 0.959 . S
H1453 C1468 0.959 . S
H1454 C1468 0.961 . S
H1455 C1469 0.960 . S
H1456 C1469 0.961 . S
H1457 C1469 0.959 . S
H1458 C1472 0.929 . S
H1459 C1473 0.931 . S
H1460 C1475 0.930 . S
C1461 H1449 0.930 . S
C1461 C1462 1.399 . S
C1461 C1466 1.399 . S
C1462 C1461 1.399 . S
C1462 C1463 1.376 . S
C1463 H1450 0.930 . S
C1463 C1462 1.376 . S
C1463 C1464 1.388 . S
C1464 H1451 0.930 . S
C1464 C1463 1.388 . S
C1464 C1465 1.390 . S
C1465 C1464 1.390 . S
C1465 C1466 1.394 . S
C1465 C1471 1.465 . S
C1466 C1461 1.399 . S
C1466 C1465 1.394 . S
C1466 C1467 1.516 . S
C1467 C1466 1.516 . S
C1467 C1468 1.502 . S
C1467 C1469 1.561 . S
C1467 C1470 1.526 . S
C1468 H1452 0.959 . S
C1468 H1453 0.959 . S
C1468 H1454 0.961 . S
C1468 C1467 1.502 . S
C1469 H1455 0.960 . S
C1469 H1456 0.961 . S
C1469 H1457 0.959 . S
C1469 C1467 1.561 . S
C1470 C1467 1.526 . S
C1470 C1471 1.396 . S
C1470 C1475 1.390 . S
C1471 C1465 1.465 . S
C1471 C1470 1.396 . S
C1471 C1472 1.399 . S
C1472 H1458 0.929 . S
C1472 C1471 1.399 . S
C1472 C1473 1.385 . S
C1473 H1459 0.931 . S
C1473 C1472 1.385 . S
C1473 C1474 1.389 . S
C1474 C1473 1.389 . S
C1474 C1475 1.387 . S
C1475 H1460 0.930 . S
C1475 C1470 1.390 . S
C1475 C1474 1.387 . S
H1476 C1488 0.930 . S
H1477 C1490 0.930 . S
H1478 C1491 0.930 . S
H1479 C1495 0.959 . S
H1480 C1495 0.959 . S
H1481 C1495 0.961 . S
H1482 C1496 0.960 . S
H1483 C1496 0.961 . S
H1484 C1496 0.959 . S
H1485 C1499 0.929 . S
H1486 C1500 0.931 . S
H1487 C1502 0.930 . S
C1488 H1476 0.930 . S
C1488 C1489 1.399 . S
C1488 C1493 1.399 . S
C1489 C1488 1.399 . S
C1489 C1490 1.376 . S
C1490 H1477 0.930 . S
C1490 C1489 1.376 . S
C1490 C1491 1.388 . S
C1491 H1478 0.930 . S
C1491 C1490 1.388 . S
C1491 C1492 1.390 . S
C1492 C1491 1.390 . S
C1492 C1493 1.394 . S
C1492 C1498 1.465 . S
C1493 C1488 1.399 . S
C1493 C1492 1.394 . S
C1493 C1494 1.516 . S
C1494 C1493 1.516 . S
C1494 C1495 1.502 . S
C1494 C1496 1.561 . S
C1494 C1497 1.526 . S
C1495 H1479 0.959 . S
C1495 H1480 0.959 . S
C1495 H1481 0.961 . S
C1495 C1494 1.502 . S
C1496 H1482 0.960 . S
C1496 H1483 0.961 . S
C1496 H1484 0.959 . S
C1496 C1494 1.561 . S
C1497 C1494 1.526 . S
C1497 C1498 1.396 . S
C1497 C1502 1.390 . S
C1498 C1492 1.465 . S
C1498 C1497 1.396 . S
C1498 C1499 1.399 . S
C1499 H1485 0.929 . S
C1499 C1498 1.399 . S
C1499 C1500 1.385 . S
C1500 H1486 0.931 . S
C1500 C1499 1.385 . S
C1500 C1501 1.389 . S
C1501 C1500 1.389 . S
C1501 C1502 1.387 . S
C1502 H1487 0.930 . S
C1502 C1497 1.390 . S
C1502 C1501 1.387 . S
H1503 C1515 0.930 . S
H1504 C1517 0.930 . S
H1505 C1518 0.930 . S
H1506 C1522 0.959 . S
H1507 C1522 0.959 . S
H1508 C1522 0.961 . S
H1509 C1523 0.960 . S
H1510 C1523 0.961 . S
H1511 C1523 0.959 . S
H1512 C1526 0.929 . S
H1513 C1527 0.931 . S
H1514 C1529 0.930 . S
C1515 H1503 0.930 . S
C1515 C1516 1.399 . S
C1515 C1520 1.399 . S
C1516 C1515 1.399 . S
C1516 C1517 1.376 . S
C1517 H1504 0.930 . S
C1517 C1516 1.376 . S
C1517 C1518 1.388 . S
C1518 H1505 0.930 . S
C1518 C1517 1.388 . S
C1518 C1519 1.390 . S
C1519 C1518 1.390 . S
C1519 C1520 1.394 . S
C1519 C1525 1.465 . S
C1520 C1515 1.399 . S
C1520 C1519 1.394 . S
C1520 C1521 1.516 . S
C1521 C1520 1.516 . S
C1521 C1522 1.502 . S
C1521 C1523 1.561 . S
C1521 C1524 1.526 . S
C1522 H1506 0.959 . S
C1522 H1507 0.959 . S
C1522 H1508 0.961 . S
C1522 C1521 1.502 . S
C1523 H1509 0.960 . S
C1523 H1510 0.961 . S
C1523 H1511 0.959 . S
C1523 C1521 1.561 . S
C1524 C1521 1.526 . S
C1524 C1525 1.396 . S
C1524 C1529 1.390 . S
C1525 C1519 1.465 . S
C1525 C1524 1.396 . S
C1525 C1526 1.399 . S
C1526 H1512 0.929 . S
C1526 C1525 1.399 . S
C1526 C1527 1.385 . S
C1527 H1513 0.931 . S
C1527 C1526 1.385 . S
C1527 C1528 1.389 . S
C1528 C1527 1.389 . S
C1528 C1529 1.387 . S
C1529 H1514 0.930 . S
C1529 C1524 1.390 . S
C1529 C1528 1.387 . S
H1530 C1542 0.930 . S
H1531 C1544 0.930 . S
H1532 C1545 0.930 . S
H1533 C1549 0.959 . S
H1534 C1549 0.959 . S
H1535 C1549 0.961 . S
H1536 C1550 0.960 . S
H1537 C1550 0.961 . S
H1538 C1550 0.959 . S
H1539 C1553 0.929 . S
H1540 C1554 0.931 . S
H1541 C1556 0.930 . S
C1542 H1530 0.930 . S
C1542 C1543 1.399 . S
C1542 C1547 1.399 . S
C1543 C1542 1.399 . S
C1543 C1544 1.376 . S
C1544 H1531 0.930 . S
C1544 C1543 1.376 . S
C1544 C1545 1.388 . S
C1545 H1532 0.930 . S
C1545 C1544 1.388 . S
C1545 C1546 1.390 . S
C1546 C1545 1.390 . S
C1546 C1547 1.394 . S
C1546 C1552 1.465 . S
C1547 C1542 1.399 . S
C1547 C1546 1.394 . S
C1547 C1548 1.516 . S
C1548 C1547 1.516 . S
C1548 C1549 1.502 . S
C1548 C1550 1.561 . S
C1548 C1551 1.526 . S
C1549 H1533 0.959 . S
C1549 H1534 0.959 . S
C1549 H1535 0.961 . S
C1549 C1548 1.502 . S
C1550 H1536 0.960 . S
C1550 H1537 0.961 . S
C1550 H1538 0.959 . S
C1550 C1548 1.561 . S
C1551 C1548 1.526 . S
C1551 C1552 1.396 . S
C1551 C1556 1.390 . S
C1552 C1546 1.465 . S
C1552 C1551 1.396 . S
C1552 C1553 1.399 . S
C1553 H1539 0.929 . S
C1553 C1552 1.399 . S
C1553 C1554 1.385 . S
C1554 H1540 0.931 . S
C1554 C1553 1.385 . S
C1554 C1555 1.389 . S
C1555 C1554 1.389 . S
C1555 C1556 1.387 . S
C1556 H1541 0.930 . S
C1556 C1551 1.390 . S
C1556 C1555 1.387 . S
H1557 C1569 0.930 . S
H1558 C1571 0.930 . S
H1559 C1572 0.930 . S
H1560 C1576 0.959 . S
H1561 C1576 0.959 . S
H1562 C1576 0.961 . S
H1563 C1577 0.960 . S
H1564 C1577 0.961 . S
H1565 C1577 0.959 . S
H1566 C1580 0.929 . S
H1567 C1581 0.931 . S
H1568 C1583 0.930 . S
C1569 H1557 0.930 . S
C1569 C1570 1.399 . S
C1569 C1574 1.399 . S
C1570 C1569 1.399 . S
C1570 C1571 1.376 . S
C1571 H1558 0.930 . S
C1571 C1570 1.376 . S
C1571 C1572 1.388 . S
C1572 H1559 0.930 . S
C1572 C1571 1.388 . S
C1572 C1573 1.390 . S
C1573 C1572 1.390 . S
C1573 C1574 1.394 . S
C1573 C1579 1.465 . S
C1574 C1569 1.399 . S
C1574 C1573 1.394 . S
C1574 C1575 1.516 . S
C1575 C1574 1.516 . S
C1575 C1576 1.502 . S
C1575 C1577 1.561 . S
C1575 C1578 1.526 . S
C1576 H1560 0.959 . S
C1576 H1561 0.959 . S
C1576 H1562 0.961 . S
C1576 C1575 1.502 . S
C1577 H1563 0.960 . S
C1577 H1564 0.961 . S
C1577 H1565 0.959 . S
C1577 C1575 1.561 . S
C1578 C1575 1.526 . S
C1578 C1579 1.396 . S
C1578 C1583 1.390 . S
C1579 C1573 1.465 . S
C1579 C1578 1.396 . S
C1579 C1580 1.399 . S
C1580 H1566 0.929 . S
C1580 C1579 1.399 . S
C1580 C1581 1.385 . S
C1581 H1567 0.931 . S
C1581 C1580 1.385 . S
C1581 C1582 1.389 . S
C1582 C1581 1.389 . S
C1582 C1583 1.387 . S
C1583 H1568 0.930 . S
C1583 C1578 1.390 . S
C1583 C1582 1.387 . S
H1584 C1596 0.930 . S
H1585 C1598 0.930 . S
H1586 C1599 0.930 . S
H1587 C1603 0.959 . S
H1588 C1603 0.959 . S
H1589 C1603 0.961 . S
H1590 C1604 0.960 . S
H1591 C1604 0.961 . S
H1592 C1604 0.959 . S
H1593 C1607 0.929 . S
H1594 C1608 0.931 . S
H1595 C1610 0.930 . S
C1596 H1584 0.930 . S
C1596 C1597 1.399 . S
C1596 C1601 1.399 . S
C1597 C1596 1.399 . S
C1597 C1598 1.376 . S
C1598 H1585 0.930 . S
C1598 C1597 1.376 . S
C1598 C1599 1.388 . S
C1599 H1586 0.930 . S
C1599 C1598 1.388 . S
C1599 C1600 1.390 . S
C1600 C1599 1.390 . S
C1600 C1601 1.394 . S
C1600 C1606 1.465 . S
C1601 C1596 1.399 . S
C1601 C1600 1.394 . S
C1601 C1602 1.516 . S
C1602 C1601 1.516 . S
C1602 C1603 1.502 . S
C1602 C1604 1.561 . S
C1602 C1605 1.526 . S
C1603 H1587 0.959 . S
C1603 H1588 0.959 . S
C1603 H1589 0.961 . S
C1603 C1602 1.502 . S
C1604 H1590 0.960 . S
C1604 H1591 0.961 . S
C1604 H1592 0.959 . S
C1604 C1602 1.561 . S
C1605 C1602 1.526 . S
C1605 C1606 1.396 . S
C1605 C1610 1.390 . S
C1606 C1600 1.465 . S
C1606 C1605 1.396 . S
C1606 C1607 1.399 . S
C1607 H1593 0.929 . S
C1607 C1606 1.399 . S
C1607 C1608 1.385 . S
C1608 H1594 0.931 . S
C1608 C1607 1.385 . S
C1608 C1609 1.389 . S
C1609 C1608 1.389 . S
C1609 C1610 1.387 . S
C1610 H1595 0.930 . S
C1610 C1605 1.390 . S
C1610 C1609 1.387 . S
H1611 C1623 0.930 . S
H1612 C1625 0.930 . S
H1613 C1626 0.930 . S
H1614 C1630 0.959 . S
H1615 C1630 0.959 . S
H1616 C1630 0.961 . S
H1617 C1631 0.960 . S
H1618 C1631 0.961 . S
H1619 C1631 0.959 . S
H1620 C1634 0.929 . S
H1621 C1635 0.931 . S
H1622 C1637 0.930 . S
C1623 H1611 0.930 . S
C1623 C1624 1.399 . S
C1623 C1628 1.399 . S
C1624 C1623 1.399 . S
C1624 C1625 1.376 . S
C1625 H1612 0.930 . S
C1625 C1624 1.376 . S
C1625 C1626 1.388 . S
C1626 H1613 0.930 . S
C1626 C1625 1.388 . S
C1626 C1627 1.390 . S
C1627 C1626 1.390 . S
C1627 C1628 1.394 . S
C1627 C1633 1.465 . S
C1628 C1623 1.399 . S
C1628 C1627 1.394 . S
C1628 C1629 1.516 . S
C1629 C1628 1.516 . S
C1629 C1630 1.502 . S
C1629 C1631 1.561 . S
C1629 C1632 1.526 . S
C1630 H1614 0.959 . S
C1630 H1615 0.959 . S
C1630 H1616 0.961 . S
C1630 C1629 1.502 . S
C1631 H1617 0.960 . S
C1631 H1618 0.961 . S
C1631 H1619 0.959 . S
C1631 C1629 1.561 . S
C1632 C1629 1.526 . S
C1632 C1633 1.396 . S
C1632 C1637 1.390 . S
C1633 C1627 1.465 . S
C1633 C1632 1.396 . S
C1633 C1634 1.399 . S
C1634 H1620 0.929 . S
C1634 C1633 1.399 . S
C1634 C1635 1.385 . S
C1635 H1621 0.931 . S
C1635 C1634 1.385 . S
C1635 C1636 1.389 . S
C1636 C1635 1.389 . S
C1636 C1637 1.387 . S
C1637 H1622 0.930 . S
C1637 C1632 1.390 . S
C1637 C1636 1.387 . S
H1638 C1650 0.930 . S
H1639 C1652 0.930 . S
H1640 C1653 0.930 . S
H1641 C1657 0.959 . S
H1642 C1657 0.959 . S
H1643 C1657 0.961 . S
H1644 C1658 0.960 . S
H1645 C1658 0.961 . S
H1646 C1658 0.959 . S
H1647 C1661 0.929 . S
H1648 C1662 0.931 . S
H1649 C1664 0.930 . S
C1650 H1638 0.930 . S
C1650 C1651 1.399 . S
C1650 C1655 1.399 . S
C1651 C1650 1.399 . S
C1651 C1652 1.376 . S
C1652 H1639 0.930 . S
C1652 C1651 1.376 . S
C1652 C1653 1.388 . S
C1653 H1640 0.930 . S
C1653 C1652 1.388 . S
C1653 C1654 1.390 . S
C1654 C1653 1.390 . S
C1654 C1655 1.394 . S
C1654 C1660 1.465 . S
C1655 C1650 1.399 . S
C1655 C1654 1.394 . S
C1655 C1656 1.516 . S
C1656 C1655 1.516 . S
C1656 C1657 1.502 . S
C1656 C1658 1.561 . S
C1656 C1659 1.526 . S
C1657 H1641 0.959 . S
C1657 H1642 0.959 . S
C1657 H1643 0.961 . S
C1657 C1656 1.502 . S
C1658 H1644 0.960 . S
C1658 H1645 0.961 . S
C1658 H1646 0.959 . S
C1658 C1656 1.561 . S
C1659 C1656 1.526 . S
C1659 C1660 1.396 . S
C1659 C1664 1.390 . S
C1660 C1654 1.465 . S
C1660 C1659 1.396 . S
C1660 C1661 1.399 . S
C1661 H1647 0.929 . S
C1661 C1660 1.399 . S
C1661 C1662 1.385 . S
C1662 H1648 0.931 . S
C1662 C1661 1.385 . S
C1662 C1663 1.389 . S
C1663 C1662 1.389 . S
C1663 C1664 1.387 . S
C1664 H1649 0.930 . S
C1664 C1659 1.390 . S
C1664 C1663 1.387 . S
H1665 C1677 0.930 . S
H1666 C1679 0.930 . S
H1667 C1680 0.930 . S
H1668 C1684 0.959 . S
H1669 C1684 0.959 . S
H1670 C1684 0.961 . S
H1671 C1685 0.960 . S
H1672 C1685 0.961 . S
H1673 C1685 0.959 . S
H1674 C1688 0.929 . S
H1675 C1689 0.931 . S
H1676 C1691 0.930 . S
C1677 H1665 0.930 . S
C1677 C1678 1.399 . S
C1677 C1682 1.399 . S
C1678 C1677 1.399 . S
C1678 C1679 1.376 . S
C1679 H1666 0.930 . S
C1679 C1678 1.376 . S
C1679 C1680 1.388 . S
C1680 H1667 0.930 . S
C1680 C1679 1.388 . S
C1680 C1681 1.390 . S
C1681 C1680 1.390 . S
C1681 C1682 1.394 . S
C1681 C1687 1.465 . S
C1682 C1677 1.399 . S
C1682 C1681 1.394 . S
C1682 C1683 1.516 . S
C1683 C1682 1.516 . S
C1683 C1684 1.502 . S
C1683 C1685 1.561 . S
C1683 C1686 1.526 . S
C1684 H1668 0.959 . S
C1684 H1669 0.959 . S
C1684 H1670 0.961 . S
C1684 C1683 1.502 . S
C1685 H1671 0.960 . S
C1685 H1672 0.961 . S
C1685 H1673 0.959 . S
C1685 C1683 1.561 . S
C1686 C1683 1.526 . S
C1686 C1687 1.396 . S
C1686 C1691 1.390 . S
C1687 C1681 1.465 . S
C1687 C1686 1.396 . S
C1687 C1688 1.399 . S
C1688 H1674 0.929 . S
C1688 C1687 1.399 . S
C1688 C1689 1.385 . S
C1689 H1675 0.931 . S
C1689 C1688 1.385 . S
C1689 C1690 1.389 . S
C1690 C1689 1.389 . S
C1690 C1691 1.387 . S
C1691 H1676 0.930 . S
C1691 C1686 1.390 . S
C1691 C1690 1.387 . S
H1692 C1704 0.930 . S
H1693 C1706 0.930 . S
H1694 C1707 0.930 . S
H1695 C1711 0.959 . S
H1696 C1711 0.959 . S
H1697 C1711 0.961 . S
H1698 C1712 0.960 . S
H1699 C1712 0.961 . S
H1700 C1712 0.959 . S
H1701 C1715 0.929 . S
H1702 C1716 0.931 . S
H1703 C1718 0.930 . S
C1704 H1692 0.930 . S
C1704 C1705 1.399 . S
C1704 C1709 1.399 . S
C1705 C1704 1.399 . S
C1705 C1706 1.376 . S
C1706 H1693 0.930 . S
C1706 C1705 1.376 . S
C1706 C1707 1.388 . S
C1707 H1694 0.930 . S
C1707 C1706 1.388 . S
C1707 C1708 1.390 . S
C1708 C1707 1.390 . S
C1708 C1709 1.394 . S
C1708 C1714 1.465 . S
C1709 C1704 1.399 . S
C1709 C1708 1.394 . S
C1709 C1710 1.516 . S
C1710 C1709 1.516 . S
C1710 C1711 1.502 . S
C1710 C1712 1.561 . S
C1710 C1713 1.526 . S
C1711 H1695 0.959 . S
C1711 H1696 0.959 . S
C1711 H1697 0.961 . S
C1711 C1710 1.502 . S
C1712 H1698 0.960 . S
C1712 H1699 0.961 . S
C1712 H1700 0.959 . S
C1712 C1710 1.561 . S
C1713 C1710 1.526 . S
C1713 C1714 1.396 . S
C1713 C1718 1.390 . S
C1714 C1708 1.465 . S
C1714 C1713 1.396 . S
C1714 C1715 1.399 . S
C1715 H1701 0.929 . S
C1715 C1714 1.399 . S
C1715 C1716 1.385 . S
C1716 H1702 0.931 . S
C1716 C1715 1.385 . S
C1716 C1717 1.389 . S
C1717 C1716 1.389 . S
C1717 C1718 1.387 . S
C1718 H1703 0.930 . S
C1718 C1713 1.390 . S
C1718 C1717 1.387 . S
H1719 C1731 0.930 . S
H1720 C1733 0.930 . S
H1721 C1734 0.930 . S
H1722 C1738 0.959 . S
H1723 C1738 0.959 . S
H1724 C1738 0.961 . S
H1725 C1739 0.960 . S
H1726 C1739 0.961 . S
H1727 C1739 0.959 . S
H1728 C1742 0.929 . S
H1729 C1743 0.931 . S
H1730 C1745 0.930 . S
C1731 H1719 0.930 . S
C1731 C1732 1.399 . S
C1731 C1736 1.399 . S
C1732 C1731 1.399 . S
C1732 C1733 1.376 . S
C1733 H1720 0.930 . S
C1733 C1732 1.376 . S
C1733 C1734 1.388 . S
C1734 H1721 0.930 . S
C1734 C1733 1.388 . S
C1734 C1735 1.390 . S
C1735 C1734 1.390 . S
C1735 C1736 1.394 . S
C1735 C1741 1.465 . S
C1736 C1731 1.399 . S
C1736 C1735 1.394 . S
C1736 C1737 1.516 . S
C1737 C1736 1.516 . S
C1737 C1738 1.502 . S
C1737 C1739 1.561 . S
C1737 C1740 1.526 . S
C1738 H1722 0.959 . S
C1738 H1723 0.959 . S
C1738 H1724 0.961 . S
C1738 C1737 1.502 . S
C1739 H1725 0.960 . S
C1739 H1726 0.961 . S
C1739 H1727 0.959 . S
C1739 C1737 1.561 . S
C1740 C1737 1.526 . S
C1740 C1741 1.396 . S
C1740 C1745 1.390 . S
C1741 C1735 1.465 . S
C1741 C1740 1.396 . S
C1741 C1742 1.399 . S
C1742 H1728 0.929 . S
C1742 C1741 1.399 . S
C1742 C1743 1.385 . S
C1743 H1729 0.931 . S
C1743 C1742 1.385 . S
C1743 C1744 1.389 . S
C1744 C1743 1.389 . S
C1744 C1745 1.387 . S
C1745 H1730 0.930 . S
C1745 C1740 1.390 . S
C1745 C1744 1.387 . S
H1746 C1758 0.930 . S
H1747 C1760 0.930 . S
H1748 C1761 0.930 . S
H1749 C1765 0.959 . S
H1750 C1765 0.959 . S
H1751 C1765 0.961 . S
H1752 C1766 0.960 . S
H1753 C1766 0.961 . S
H1754 C1766 0.959 . S
H1755 C1769 0.929 . S
H1756 C1770 0.931 . S
H1757 C1772 0.930 . S
C1758 H1746 0.930 . S
C1758 C1759 1.399 . S
C1758 C1763 1.399 . S
C1759 C1758 1.399 . S
C1759 C1760 1.376 . S
C1760 H1747 0.930 . S
C1760 C1759 1.376 . S
C1760 C1761 1.388 . S
C1761 H1748 0.930 . S
C1761 C1760 1.388 . S
C1761 C1762 1.390 . S
C1762 C1761 1.390 . S
C1762 C1763 1.394 . S
C1762 C1768 1.465 . S
C1763 C1758 1.399 . S
C1763 C1762 1.394 . S
C1763 C1764 1.516 . S
C1764 C1763 1.516 . S
C1764 C1765 1.502 . S
C1764 C1766 1.561 . S
C1764 C1767 1.526 . S
C1765 H1749 0.959 . S
C1765 H1750 0.959 . S
C1765 H1751 0.961 . S
C1765 C1764 1.502 . S
C1766 H1752 0.960 . S
C1766 H1753 0.961 . S
C1766 H1754 0.959 . S
C1766 C1764 1.561 . S
C1767 C1764 1.526 . S
C1767 C1768 1.396 . S
C1767 C1772 1.390 . S
C1768 C1762 1.465 . S
C1768 C1767 1.396 . S
C1768 C1769 1.399 . S
C1769 H1755 0.929 . S
C1769 C1768 1.399 . S
C1769 C1770 1.385 . S
C1770 H1756 0.931 . S
C1770 C1769 1.385 . S
C1770 C1771 1.389 . S
C1771 C1770 1.389 . S
C1771 C1772 1.387 . S
C1772 H1757 0.930 . S
C1772 C1767 1.390 . S
C1772 C1771 1.387 . S
H1773 C1785 0.930 . S
H1774 C1787 0.930 . S
H1775 C1788 0.930 . S
H1776 C1792 0.959 . S
H1777 C1792 0.959 . S
H1778 C1792 0.961 . S
H1779 C1793 0.960 . S
H1780 C1793 0.961 . S
H1781 C1793 0.959 . S
H1782 C1796 0.929 . S
H1783 C1797 0.931 . S
H1784 C1799 0.930 . S
C1785 H1773 0.930 . S
C1785 C1786 1.399 . S
C1785 C1790 1.399 . S
C1786 C1785 1.399 . S
C1786 C1787 1.376 . S
C1787 H1774 0.930 . S
C1787 C1786 1.376 . S
C1787 C1788 1.388 . S
C1788 H1775 0.930 . S
C1788 C1787 1.388 . S
C1788 C1789 1.390 . S
C1789 C1788 1.390 . S
C1789 C1790 1.394 . S
C1789 C1795 1.465 . S
C1790 C1785 1.399 . S
C1790 C1789 1.394 . S
C1790 C1791 1.516 . S
C1791 C1790 1.516 . S
C1791 C1792 1.502 . S
C1791 C1793 1.561 . S
C1791 C1794 1.526 . S
C1792 H1776 0.959 . S
C1792 H1777 0.959 . S
C1792 H1778 0.961 . S
C1792 C1791 1.502 . S
C1793 H1779 0.960 . S
C1793 H1780 0.961 . S
C1793 H1781 0.959 . S
C1793 C1791 1.561 . S
C1794 C1791 1.526 . S
C1794 C1795 1.396 . S
C1794 C1799 1.390 . S
C1795 C1789 1.465 . S
C1795 C1794 1.396 . S
C1795 C1796 1.399 . S
C1796 H1782 0.929 . S
C1796 C1795 1.399 . S
C1796 C1797 1.385 . S
C1797 H1783 0.931 . S
C1797 C1796 1.385 . S
C1797 C1798 1.389 . S
C1798 C1797 1.389 . S
C1798 C1799 1.387 . S
C1799 H1784 0.930 . S
C1799 C1794 1.390 . S
C1799 C1798 1.387 . S
H1800 C1812 0.930 . S
H1801 C1814 0.930 . S
H1802 C1815 0.930 . S
H1803 C1819 0.959 . S
H1804 C1819 0.959 . S
H1805 C1819 0.961 . S
H1806 C1820 0.960 . S
H1807 C1820 0.961 . S
H1808 C1820 0.959 . S
H1809 C1823 0.929 . S
H1810 C1824 0.931 . S
H1811 C1826 0.930 . S
C1812 H1800 0.930 . S
C1812 C1813 1.399 . S
C1812 C1817 1.399 . S
C1813 C1812 1.399 . S
C1813 C1814 1.376 . S
C1814 H1801 0.930 . S
C1814 C1813 1.376 . S
C1814 C1815 1.388 . S
C1815 H1802 0.930 . S
C1815 C1814 1.388 . S
C1815 C1816 1.390 . S
C1816 C1815 1.390 . S
C1816 C1817 1.394 . S
C1816 C1822 1.465 . S
C1817 C1812 1.399 . S
C1817 C1816 1.394 . S
C1817 C1818 1.516 . S
C1818 C1817 1.516 . S
C1818 C1819 1.502 . S
C1818 C1820 1.561 . S
C1818 C1821 1.526 . S
C1819 H1803 0.959 . S
C1819 H1804 0.959 . S
C1819 H1805 0.961 . S
C1819 C1818 1.502 . S
C1820 H1806 0.960 . S
C1820 H1807 0.961 . S
C1820 H1808 0.959 . S
C1820 C1818 1.561 . S
C1821 C1818 1.526 . S
C1821 C1822 1.396 . S
C1821 C1826 1.390 . S
C1822 C1816 1.465 . S
C1822 C1821 1.396 . S
C1822 C1823 1.399 . S
C1823 H1809 0.929 . S
C1823 C1822 1.399 . S
C1823 C1824 1.385 . S
C1824 H1810 0.931 . S
C1824 C1823 1.385 . S
C1824 C1825 1.389 . S
C1825 C1824 1.389 . S
C1825 C1826 1.387 . S
C1826 H1811 0.930 . S
C1826 C1821 1.390 . S
C1826 C1825 1.387 . S
H1827 C1839 0.930 . S
H1828 C1841 0.930 . S
H1829 C1842 0.930 . S
H1830 C1846 0.959 . S
H1831 C1846 0.959 . S
H1832 C1846 0.961 . S
H1833 C1847 0.960 . S
H1834 C1847 0.961 . S
H1835 C1847 0.959 . S
H1836 C1850 0.929 . S
H1837 C1851 0.931 . S
H1838 C1853 0.930 . S
C1839 H1827 0.930 . S
C1839 C1840 1.399 . S
C1839 C1844 1.399 . S
C1840 C1839 1.399 . S
C1840 C1841 1.376 . S
C1841 H1828 0.930 . S
C1841 C1840 1.376 . S
C1841 C1842 1.388 . S
C1842 H1829 0.930 . S
C1842 C1841 1.388 . S
C1842 C1843 1.390 . S
C1843 C1842 1.390 . S
C1843 C1844 1.394 . S
C1843 C1849 1.465 . S
C1844 C1839 1.399 . S
C1844 C1843 1.394 . S
C1844 C1845 1.516 . S
C1845 C1844 1.516 . S
C1845 C1846 1.502 . S
C1845 C1847 1.561 . S
C1845 C1848 1.526 . S
C1846 H1830 0.959 . S
C1846 H1831 0.959 . S
C1846 H1832 0.961 . S
C1846 C1845 1.502 . S
C1847 H1833 0.960 . S
C1847 H1834 0.961 . S
C1847 H1835 0.959 . S
C1847 C1845 1.561 . S
C1848 C1845 1.526 . S
C1848 C1849 1.396 . S
C1848 C1853 1.390 . S
C1849 C1843 1.465 . S
C1849 C1848 1.396 . S
C1849 C1850 1.399 . S
C1850 H1836 0.929 . S
C1850 C1849 1.399 . S
C1850 C1851 1.385 . S
C1851 H1837 0.931 . S
C1851 C1850 1.385 . S
C1851 C1852 1.389 . S
C1852 C1851 1.389 . S
C1852 C1853 1.387 . S
C1853 H1838 0.930 . S
C1853 C1848 1.390 . S
C1853 C1852 1.387 . S
H1854 C1866 0.930 . S
H1855 C1868 0.930 . S
H1856 C1869 0.930 . S
H1857 C1873 0.959 . S
H1858 C1873 0.959 . S
H1859 C1873 0.961 . S
H1860 C1874 0.960 . S
H1861 C1874 0.961 . S
H1862 C1874 0.959 . S
H1863 C1877 0.929 . S
H1864 C1878 0.931 . S
H1865 C1880 0.930 . S
C1866 H1854 0.930 . S
C1866 C1867 1.399 . S
C1866 C1871 1.399 . S
C1867 C1866 1.399 . S
C1867 C1868 1.376 . S
C1868 H1855 0.930 . S
C1868 C1867 1.376 . S
C1868 C1869 1.388 . S
C1869 H1856 0.930 . S
C1869 C1868 1.388 . S
C1869 C1870 1.390 . S
C1870 C1869 1.390 . S
C1870 C1871 1.394 . S
C1870 C1876 1.465 . S
C1871 C1866 1.399 . S
C1871 C1870 1.394 . S
C1871 C1872 1.516 . S
C1872 C1871 1.516 . S
C1872 C1873 1.502 . S
C1872 C1874 1.561 . S
C1872 C1875 1.526 . S
C1873 H1857 0.959 . S
C1873 H1858 0.959 . S
C1873 H1859 0.961 . S
C1873 C1872 1.502 . S
C1874 H1860 0.960 . S
C1874 H1861 0.961 . S
C1874 H1862 0.959 . S
C1874 C1872 1.561 . S
C1875 C1872 1.526 . S
C1875 C1876 1.396 . S
C1875 C1880 1.390 . S
C1876 C1870 1.465 . S
C1876 C1875 1.396 . S
C1876 C1877 1.399 . S
C1877 H1863 0.929 . S
C1877 C1876 1.399 . S
C1877 C1878 1.385 . S
C1878 H1864 0.931 . S
C1878 C1877 1.385 . S
C1878 C1879 1.389 . S
C1879 C1878 1.389 . S
C1879 C1880 1.387 . S
C1880 H1865 0.930 . S
C1880 C1875 1.390 . S
C1880 C1879 1.387 . S
H1881 C1893 0.930 . S
H1882 C1895 0.930 . S
H1883 C1896 0.930 . S
H1884 C1900 0.959 . S
H1885 C1900 0.959 . S
H1886 C1900 0.961 . S
H1887 C1901 0.960 . S
H1888 C1901 0.961 . S
H1889 C1901 0.959 . S
H1890 C1904 0.929 . S
H1891 C1905 0.931 . S
H1892 C1907 0.930 . S
C1893 H1881 0.930 . S
C1893 C1894 1.399 . S
C1893 C1898 1.399 . S
C1894 C1893 1.399 . S
C1894 C1895 1.376 . S
C1895 H1882 0.930 . S
C1895 C1894 1.376 . S
C1895 C1896 1.388 . S
C1896 H1883 0.930 . S
C1896 C1895 1.388 . S
C1896 C1897 1.390 . S
C1897 C1896 1.390 . S
C1897 C1898 1.394 . S
C1897 C1903 1.465 . S
C1898 C1893 1.399 . S
C1898 C1897 1.394 . S
C1898 C1899 1.516 . S
C1899 C1898 1.516 . S
C1899 C1900 1.502 . S
C1899 C1901 1.561 . S
C1899 C1902 1.526 . S
C1900 H1884 0.959 . S
C1900 H1885 0.959 . S
C1900 H1886 0.961 . S
C1900 C1899 1.502 . S
C1901 H1887 0.960 . S
C1901 H1888 0.961 . S
C1901 H1889 0.959 . S
C1901 C1899 1.561 . S
C1902 C1899 1.526 . S
C1902 C1903 1.396 . S
C1902 C1907 1.390 . S
C1903 C1897 1.465 . S
C1903 C1902 1.396 . S
C1903 C1904 1.399 . S
C1904 H1890 0.929 . S
C1904 C1903 1.399 . S
C1904 C1905 1.385 . S
C1905 H1891 0.931 . S
C1905 C1904 1.385 . S
C1905 C1906 1.389 . S
C1906 C1905 1.389 . S
C1906 C1907 1.387 . S
C1907 H1892 0.930 . S
C1907 C1902 1.390 . S
C1907 C1906 1.387 . S
H1908 C1920 0.930 . S
H1909 C1922 0.930 . S
H1910 C1923 0.930 . S
H1911 C1927 0.959 . S
H1912 C1927 0.959 . S
H1913 C1927 0.961 . S
H1914 C1928 0.960 . S
H1915 C1928 0.961 . S
H1916 C1928 0.959 . S
H1917 C1931 0.929 . S
H1918 C1932 0.931 . S
H1919 C1934 0.930 . S
C1920 H1908 0.930 . S
C1920 C1921 1.399 . S
C1920 C1925 1.399 . S
C1921 C1920 1.399 . S
C1921 C1922 1.376 . S
C1922 H1909 0.930 . S
C1922 C1921 1.376 . S
C1922 C1923 1.388 . S
C1923 H1910 0.930 . S
C1923 C1922 1.388 . S
C1923 C1924 1.390 . S
C1924 C1923 1.390 . S
C1924 C1925 1.394 . S
C1924 C1930 1.465 . S
C1925 C1920 1.399 . S
C1925 C1924 1.394 . S
C1925 C1926 1.516 . S
C1926 C1925 1.516 . S
C1926 C1927 1.502 . S
C1926 C1928 1.561 . S
C1926 C1929 1.526 . S
C1927 H1911 0.959 . S
C1927 H1912 0.959 . S
C1927 H1913 0.961 . S
C1927 C1926 1.502 . S
C1928 H1914 0.960 . S
C1928 H1915 0.961 . S
C1928 H1916 0.959 . S
C1928 C1926 1.561 . S
C1929 C1926 1.526 . S
C1929 C1930 1.396 . S
C1929 C1934 1.390 . S
C1930 C1924 1.465 . S
C1930 C1929 1.396 . S
C1930 C1931 1.399 . S
C1931 H1917 0.929 . S
C1931 C1930 1.399 . S
C1931 C1932 1.385 . S
C1932 H1918 0.931 . S
C1932 C1931 1.385 . S
C1932 C1933 1.389 . S
C1933 C1932 1.389 . S
C1933 C1934 1.387 . S
C1934 H1919 0.930 . S
C1934 C1929 1.390 . S
C1934 C1933 1.387 . S
H1935 C1947 0.930 . S
H1936 C1949 0.930 . S
H1937 C1950 0.930 . S
H1938 C1954 0.959 . S
H1939 C1954 0.959 . S
H1940 C1954 0.961 . S
H1941 C1955 0.960 . S
H1942 C1955 0.961 . S
H1943 C1955 0.959 . S
H1944 C1958 0.929 . S
H1945 C1959 0.931 . S
H1946 C1961 0.930 . S
C1947 H1935 0.930 . S
C1947 C1948 1.399 . S
C1947 C1952 1.399 . S
C1948 C1947 1.399 . S
C1948 C1949 1.376 . S
C1949 H1936 0.930 . S
C1949 C1948 1.376 . S
C1949 C1950 1.388 . S
C1950 H1937 0.930 . S
C1950 C1949 1.388 . S
C1950 C1951 1.390 . S
C1951 C1950 1.390 . S
C1951 C1952 1.394 . S
C1951 C1957 1.465 . S
C1952 C1947 1.399 . S
C1952 C1951 1.394 . S
C1952 C1953 1.516 . S
C1953 C1952 1.516 . S
C1953 C1954 1.502 . S
C1953 C1955 1.561 . S
C1953 C1956 1.526 . S
C1954 H1938 0.959 . S
C1954 H1939 0.959 . S
C1954 H1940 0.961 . S
C1954 C1953 1.502 . S
C1955 H1941 0.960 . S
C1955 H1942 0.961 . S
C1955 H1943 0.959 . S
C1955 C1953 1.561 . S
C1956 C1953 1.526 . S
C1956 C1957 1.396 . S
C1956 C1961 1.390 . S
C1957 C1951 1.465 . S
C1957 C1956 1.396 . S
C1957 C1958 1.399 . S
C1958 H1944 0.929 . S
C1958 C1957 1.399 . S
C1958 C1959 1.385 . S
C1959 H1945 0.931 . S
C1959 C1958 1.385 . S
C1959 C1960 1.389 . S
C1960 C1959 1.389 . S
C1960 C1961 1.387 . S
C1961 H1946 0.930 . S
C1961 C1956 1.390 . S
C1961 C1960 1.387 . S
H1962 C1974 0.930 . S
H1963 C1976 0.930 . S
H1964 C1977 0.930 . S
H1965 C1981 0.959 . S
H1966 C1981 0.959 . S
H1967 C1981 0.961 . S
H1968 C1982 0.960 . S
H1969 C1982 0.961 . S
H1970 C1982 0.959 . S
H1971 C1985 0.929 . S
H1972 C1986 0.931 . S
H1973 C1988 0.930 . S
C1974 H1962 0.930 . S
C1974 C1975 1.399 . S
C1974 C1979 1.399 . S
C1975 C1974 1.399 . S
C1975 C1976 1.376 . S
C1976 H1963 0.930 . S
C1976 C1975 1.376 . S
C1976 C1977 1.388 . S
C1977 H1964 0.930 . S
C1977 C1976 1.388 . S
C1977 C1978 1.390 . S
C1978 C1977 1.390 . S
C1978 C1979 1.394 . S
C1978 C1984 1.465 . S
C1979 C1974 1.399 . S
C1979 C1978 1.394 . S
C1979 C1980 1.516 . S
C1980 C1979 1.516 . S
C1980 C1981 1.502 . S
C1980 C1982 1.561 . S
C1980 C1983 1.526 . S
C1981 H1965 0.959 . S
C1981 H1966 0.959 . S
C1981 H1967 0.961 . S
C1981 C1980 1.502 . S
C1982 H1968 0.960 . S
C1982 H1969 0.961 . S
C1982 H1970 0.959 . S
C1982 C1980 1.561 . S
C1983 C1980 1.526 . S
C1983 C1984 1.396 . S
C1983 C1988 1.390 . S
C1984 C1978 1.465 . S
C1984 C1983 1.396 . S
C1984 C1985 1.399 . S
C1985 H1971 0.929 . S
C1985 C1984 1.399 . S
C1985 C1986 1.385 . S
C1986 H1972 0.931 . S
C1986 C1985 1.385 . S
C1986 C1987 1.389 . S
C1987 C1986 1.389 . S
C1987 C1988 1.387 . S
C1988 H1973 0.930 . S
C1988 C1983 1.390 . S
C1988 C1987 1.387 . S
H1989 C2001 0.930 . S
H1990 C2003 0.930 . S
H1991 C2004 0.930 . S
H1992 C2008 0.959 . S
H1993 C2008 0.959 . S
H1994 C2008 0.961 . S
H1995 C2009 0.960 . S
H1996 C2009 0.961 . S
H1997 C2009 0.959 . S
H1998 C2012 0.929 . S
H1999 C2013 0.931 . S
H2000 C2015 0.930 . S
C2001 H1989 0.930 . S
C2001 C2002 1.399 . S
C2001 C2006 1.399 . S
C2002 C2001 1.399 . S
C2002 C2003 1.376 1_545 S
C2003 H1990 0.930 . S
C2003 C2002 1.376 1_565 S
C2003 C2004 1.388 . S
C2004 H1991 0.930 . S
C2004 C2003 1.388 . S
C2004 C2005 1.390 . S
C2005 C2004 1.390 . S
C2005 C2006 1.394 1_565 S
C2005 C2011 1.465 . S
C2006 C2001 1.399 . S
C2006 C2005 1.394 1_545 S
C2006 C2007 1.516 . S
C2007 C2006 1.516 . S
C2007 C2008 1.502 . S
C2007 C2009 1.561 . S
C2007 C2010 1.526 . S
C2008 H1992 0.959 . S
C2008 H1993 0.959 . S
C2008 H1994 0.961 . S
C2008 C2007 1.502 . S
C2009 H1995 0.960 . S
C2009 H1996 0.961 . S
C2009 H1997 0.959 . S
C2009 C2007 1.561 . S
C2010 C2007 1.526 . S
C2010 C2011 1.396 1_545 S
C2010 C2015 1.390 . S
C2011 C2005 1.465 . S
C2011 C2010 1.396 1_565 S
C2011 C2012 1.399 . S
C2012 H1998 0.929 . S
C2012 C2011 1.399 . S
C2012 C2013 1.385 . S
C2013 H1999 0.931 . S
C2013 C2012 1.385 . S
C2013 C2014 1.389 . S
C2014 C2013 1.389 . S
C2014 C2015 1.387 1_565 S
C2015 H2000 0.930 . S
C2015 C2010 1.390 . S
C2015 C2014 1.387 1_545 S
H2016 C2028 0.930 . S
H2017 C2030 0.930 . S
H2018 C2031 0.930 . S
H2019 C2035 0.959 . S
H2020 C2035 0.960 1_455 S
H2021 C2035 0.961 1_455 S
H2022 C2036 0.960 . S
H2023 C2036 0.961 . S
H2024 C2036 0.959 . S
H2025 C2039 0.929 . S
H2026 C2040 0.931 . S
H2027 C2042 0.930 1_455 S
C2028 H2016 0.930 . S
C2028 C2029 1.399 . S
C2028 C2033 1.399 . S
C2029 C2028 1.399 . S
C2029 C2030 1.376 . S
C2030 H2017 0.930 . S
C2030 C2029 1.376 . S
C2030 C2031 1.388 1_455 S
C2031 H2018 0.930 . S
C2031 C2030 1.388 1_655 S
C2031 C2032 1.390 1_655 S
C2032 C2031 1.390 1_455 S
C2032 C2033 1.394 . S
C2032 C2038 1.465 1_455 S
C2033 C2028 1.399 . S
C2033 C2032 1.394 . S
C2033 C2034 1.516 . S
C2034 C2033 1.516 . S
C2034 C2035 1.502 1_455 S
C2034 C2036 1.561 . S
C2034 C2037 1.526 . S
C2035 H2019 0.959 . S
C2035 H2020 0.960 1_655 S
C2035 H2021 0.961 1_655 S
C2035 C2034 1.502 1_655 S
C2036 H2022 0.960 . S
C2036 H2023 0.961 . S
C2036 H2024 0.959 . S
C2036 C2034 1.561 . S
C2037 C2034 1.526 . S
C2037 C2038 1.396 1_455 S
C2037 C2042 1.390 1_455 S
C2038 C2032 1.465 1_655 S
C2038 C2037 1.396 1_655 S
C2038 C2039 1.399 . S
C2039 H2025 0.929 . S
C2039 C2038 1.399 . S
C2039 C2040 1.385 . S
C2040 H2026 0.931 . S
C2040 C2039 1.385 . S
C2040 C2041 1.389 . S
C2041 C2040 1.389 . S
C2041 C2042 1.387 . S
C2042 H2027 0.930 1_655 S
C2042 C2037 1.390 1_655 S
C2042 C2041 1.387 . S
H2043 C2055 0.930 . S
H2044 C2057 0.930 . S
H2045 C2058 0.930 . S
H2046 C2062 0.959 . S
H2047 C2062 0.959 . S
H2048 C2062 0.961 . S
H2049 C2063 0.960 . S
H2050 C2063 0.961 . S
H2051 C2063 0.959 . S
H2052 C2066 0.929 . S
H2053 C2067 0.931 . S
H2054 C2069 0.930 . S
C2055 H2043 0.930 . S
C2055 C2056 1.399 . S
C2055 C2060 1.399 . S
C2056 C2055 1.399 . S
C2056 C2057 1.376 . S
C2057 H2044 0.930 . S
C2057 C2056 1.376 . S
C2057 C2058 1.388 . S
C2058 H2045 0.930 . S
C2058 C2057 1.388 . S
C2058 C2059 1.390 . S
C2059 C2058 1.390 . S
C2059 C2060 1.394 . S
C2059 C2065 1.465 . S
C2060 C2055 1.399 . S
C2060 C2059 1.394 . S
C2060 C2061 1.516 . S
C2061 C2060 1.516 . S
C2061 C2062 1.502 . S
C2061 C2063 1.561 . S
C2061 C2064 1.526 . S
C2062 H2046 0.959 . S
C2062 H2047 0.959 . S
C2062 H2048 0.961 . S
C2062 C2061 1.502 . S
C2063 H2049 0.960 . S
C2063 H2050 0.961 . S
C2063 H2051 0.959 . S
C2063 C2061 1.561 . S
C2064 C2061 1.526 . S
C2064 C2065 1.396 . S
C2064 C2069 1.390 . S
C2065 C2059 1.465 . S
C2065 C2064 1.396 . S
C2065 C2066 1.399 . S
C2066 H2052 0.929 . S
C2066 C2065 1.399 . S
C2066 C2067 1.385 . S
C2067 H2053 0.931 . S
C2067 C2066 1.385 . S
C2067 C2068 1.389 . S
C2068 C2067 1.389 . S
C2068 C2069 1.387 . S
C2069 H2054 0.930 . S
C2069 C2064 1.390 . S
C2069 C2068 1.387 . S
H2070 C2082 0.930 . S
H2071 C2084 0.930 . S
H2072 C2085 0.930 . S
H2073 C2089 0.959 . S
H2074 C2089 0.959 . S
H2075 C2089 0.961 . S
H2076 C2090 0.960 . S
H2077 C2090 0.961 . S
H2078 C2090 0.959 . S
H2079 C2093 0.929 . S
H2080 C2094 0.931 . S
H2081 C2096 0.930 . S
C2082 H2070 0.930 . S
C2082 C2083 1.399 1_565 S
C2082 C2087 1.399 . S
C2083 C2082 1.399 1_545 S
C2083 C2084 1.376 . S
C2084 H2071 0.930 . S
C2084 C2083 1.376 . S
C2084 C2085 1.388 . S
C2085 H2072 0.930 . S
C2085 C2084 1.388 . S
C2085 C2086 1.390 . S
C2086 C2085 1.390 . S
C2086 C2087 1.394 1_545 S
C2086 C2092 1.465 . S
C2087 C2082 1.399 . S
C2087 C2086 1.394 1_565 S
C2087 C2088 1.516 . S
C2088 C2087 1.516 . S
C2088 C2089 1.502 . S
C2088 C2090 1.561 . S
C2088 C2091 1.526 . S
C2089 H2073 0.959 . S
C2089 H2074 0.959 . S
C2089 H2075 0.961 . S
C2089 C2088 1.502 . S
C2090 H2076 0.960 . S
C2090 H2077 0.961 . S
C2090 H2078 0.959 . S
C2090 C2088 1.561 . S
C2091 C2088 1.526 . S
C2091 C2092 1.396 1_565 S
C2091 C2096 1.390 . S
C2092 C2086 1.465 . S
C2092 C2091 1.396 1_545 S
C2092 C2093 1.399 . S
C2093 H2079 0.929 . S
C2093 C2092 1.399 . S
C2093 C2094 1.385 . S
C2094 H2080 0.931 . S
C2094 C2093 1.385 . S
C2094 C2095 1.389 1_545 S
C2095 C2094 1.389 1_565 S
C2095 C2096 1.387 . S
C2096 H2081 0.930 . S
C2096 C2091 1.390 . S
C2096 C2095 1.387 . S
H2097 C2109 0.930 . S
H2098 C2111 0.930 . S
H2099 C2112 0.930 . S
H2100 C2116 0.959 . S
H2101 C2116 0.959 . S
H2102 C2116 0.961 . S
H2103 C2117 0.960 . S
H2104 C2117 0.961 . S
H2105 C2117 0.959 1_455 S
H2106 C2120 0.929 . S
H2107 C2121 0.931 . S
H2108 C2123 0.930 . S
C2109 H2097 0.930 . S
C2109 C2110 1.399 . S
C2109 C2114 1.399 . S
C2110 C2109 1.399 . S
C2110 C2111 1.376 1_655 S
C2111 H2098 0.930 . S
C2111 C2110 1.376 1_455 S
C2111 C2112 1.388 . S
C2112 H2099 0.930 . S
C2112 C2111 1.388 . S
C2112 C2113 1.390 . S
C2113 C2112 1.390 . S
C2113 C2114 1.394 1_455 S
C2113 C2119 1.465 . S
C2114 C2109 1.399 . S
C2114 C2113 1.394 1_655 S
C2114 C2115 1.516 . S
C2115 C2114 1.516 . S
C2115 C2116 1.502 . S
C2115 C2117 1.561 . S
C2115 C2118 1.526 . S
C2116 H2100 0.959 . S
C2116 H2101 0.959 . S
C2116 H2102 0.961 . S
C2116 C2115 1.502 . S
C2117 H2103 0.960 . S
C2117 H2104 0.961 . S
C2117 H2105 0.959 1_655 S
C2117 C2115 1.561 . S
C2118 C2115 1.526 . S
C2118 C2119 1.396 1_655 S
C2118 C2123 1.390 . S
C2119 C2113 1.465 . S
C2119 C2118 1.396 1_455 S
C2119 C2120 1.399 . S
C2120 H2106 0.929 . S
C2120 C2119 1.399 . S
C2120 C2121 1.385 . S
C2121 H2107 0.931 . S
C2121 C2120 1.385 . S
C2121 C2122 1.389 . S
C2122 C2121 1.389 . S
C2122 C2123 1.387 1_455 S
C2123 H2108 0.930 . S
C2123 C2118 1.390 . S
C2123 C2122 1.387 1_655 S
H2124 C2136 0.930 . S
H2125 C2138 0.930 . S
H2126 C2139 0.930 . S
H2127 C2143 0.959 . S
H2128 C2143 0.959 . S
H2129 C2143 0.961 . S
H2130 C2144 0.960 . S
H2131 C2144 0.961 . S
H2132 C2144 0.959 . S
H2133 C2147 0.929 . S
H2134 C2148 0.931 . S
H2135 C2150 0.930 . S
C2136 H2124 0.930 . S
C2136 C2137 1.399 . S
C2136 C2141 1.399 . S
C2137 C2136 1.399 . S
C2137 C2138 1.376 . S
C2138 H2125 0.930 . S
C2138 C2137 1.376 . S
C2138 C2139 1.388 . S
C2139 H2126 0.930 . S
C2139 C2138 1.388 . S
C2139 C2140 1.390 . S
C2140 C2139 1.390 . S
C2140 C2141 1.394 . S
C2140 C2146 1.465 . S
C2141 C2136 1.399 . S
C2141 C2140 1.394 . S
C2141 C2142 1.516 . S
C2142 C2141 1.516 . S
C2142 C2143 1.502 . S
C2142 C2144 1.561 . S
C2142 C2145 1.526 . S
C2143 H2127 0.959 . S
C2143 H2128 0.959 . S
C2143 H2129 0.961 . S
C2143 C2142 1.502 . S
C2144 H2130 0.960 . S
C2144 H2131 0.961 . S
C2144 H2132 0.959 . S
C2144 C2142 1.561 . S
C2145 C2142 1.526 . S
C2145 C2146 1.396 . S
C2145 C2150 1.390 . S
C2146 C2140 1.465 . S
C2146 C2145 1.396 . S
C2146 C2147 1.399 . S
C2147 H2133 0.929 . S
C2147 C2146 1.399 . S
C2147 C2148 1.385 . S
C2148 H2134 0.931 . S
C2148 C2147 1.385 . S
C2148 C2149 1.389 . S
C2149 C2148 1.389 . S
C2149 C2150 1.387 . S
C2150 H2135 0.930 . S
C2150 C2145 1.390 . S
C2150 C2149 1.387 . S
H2151 C2163 0.930 . S
H2152 C2165 0.930 . S
H2153 C2166 0.930 . S
H2154 C2170 0.959 . S
H2155 C2170 0.959 . S
H2156 C2170 0.961 . S
H2157 C2171 0.960 . S
H2158 C2171 0.961 . S
H2159 C2171 0.959 . S
H2160 C2174 0.929 . S
H2161 C2175 0.931 . S
H2162 C2177 0.930 . S
C2163 H2151 0.930 . S
C2163 C2164 1.399 . S
C2163 C2168 1.399 . S
C2164 C2163 1.399 . S
C2164 C2165 1.376 . S
C2165 H2152 0.930 . S
C2165 C2164 1.376 . S
C2165 C2166 1.388 . S
C2166 H2153 0.930 . S
C2166 C2165 1.388 . S
C2166 C2167 1.390 . S
C2167 C2166 1.390 . S
C2167 C2168 1.394 . S
C2167 C2173 1.465 . S
C2168 C2163 1.399 . S
C2168 C2167 1.394 . S
C2168 C2169 1.516 . S
C2169 C2168 1.516 . S
C2169 C2170 1.502 . S
C2169 C2171 1.561 . S
C2169 C2172 1.526 . S
C2170 H2154 0.959 . S
C2170 H2155 0.959 . S
C2170 H2156 0.961 . S
C2170 C2169 1.502 . S
C2171 H2157 0.960 . S
C2171 H2158 0.961 . S
C2171 H2159 0.959 . S
C2171 C2169 1.561 . S
C2172 C2169 1.526 . S
C2172 C2173 1.396 . S
C2172 C2177 1.390 . S
C2173 C2167 1.465 . S
C2173 C2172 1.396 . S
C2173 C2174 1.399 . S
C2174 H2160 0.929 . S
C2174 C2173 1.399 . S
C2174 C2175 1.385 . S
C2175 H2161 0.931 . S
C2175 C2174 1.385 . S
C2175 C2176 1.389 . S
C2176 C2175 1.389 . S
C2176 C2177 1.387 . S
C2177 H2162 0.930 . S
C2177 C2172 1.390 . S
C2177 C2176 1.387 . S
H2178 C2190 0.930 . S
H2179 C2192 0.930 . S
H2180 C2193 0.930 . S
H2181 C2197 0.959 . S
H2182 C2197 0.959 . S
H2183 C2197 0.961 . S
H2184 C2198 0.960 . S
H2185 C2198 0.961 . S
H2186 C2198 0.959 . S
H2187 C2201 0.929 . S
H2188 C2202 0.931 . S
H2189 C2204 0.930 . S
C2190 H2178 0.930 . S
C2190 C2191 1.399 . S
C2190 C2195 1.399 . S
C2191 C2190 1.399 . S
C2191 C2192 1.376 . S
C2192 H2179 0.930 . S
C2192 C2191 1.376 . S
C2192 C2193 1.388 . S
C2193 H2180 0.930 . S
C2193 C2192 1.388 . S
C2193 C2194 1.390 . S
C2194 C2193 1.390 . S
C2194 C2195 1.394 . S
C2194 C2200 1.465 . S
C2195 C2190 1.399 . S
C2195 C2194 1.394 . S
C2195 C2196 1.516 . S
C2196 C2195 1.516 . S
C2196 C2197 1.502 . S
C2196 C2198 1.561 . S
C2196 C2199 1.526 . S
C2197 H2181 0.959 . S
C2197 H2182 0.959 . S
C2197 H2183 0.961 . S
C2197 C2196 1.502 . S
C2198 H2184 0.960 . S
C2198 H2185 0.961 . S
C2198 H2186 0.959 . S
C2198 C2196 1.561 . S
C2199 C2196 1.526 . S
C2199 C2200 1.396 . S
C2199 C2204 1.390 . S
C2200 C2194 1.465 . S
C2200 C2199 1.396 . S
C2200 C2201 1.399 . S
C2201 H2187 0.929 . S
C2201 C2200 1.399 . S
C2201 C2202 1.385 . S
C2202 H2188 0.931 . S
C2202 C2201 1.385 . S
C2202 C2203 1.389 . S
C2203 C2202 1.389 . S
C2203 C2204 1.387 . S
C2204 H2189 0.930 . S
C2204 C2199 1.390 . S
C2204 C2203 1.387 . S
H2205 C2217 0.930 . S
H2206 C2219 0.930 . S
H2207 C2220 0.930 . S
H2208 C2224 0.959 . S
H2209 C2224 0.959 . S
H2210 C2224 0.961 . S
H2211 C2225 0.960 . S
H2212 C2225 0.961 . S
H2213 C2225 0.959 . S
H2214 C2228 0.929 . S
H2215 C2229 0.947 . S
H2216 C2231 0.930 . S
C2217 H2205 0.930 . S
C2217 C2218 1.399 . S
C2217 C2222 1.399 . S
C2218 C2217 1.399 . S
C2218 C2219 1.376 . S
C2219 H2206 0.930 . S
C2219 C2218 1.376 . S
C2219 C2220 1.388 . S
C2220 H2207 0.930 . S
C2220 C2219 1.388 . S
C2220 C2221 1.390 . S
C2221 C2220 1.390 . S
C2221 C2222 1.394 . S
C2221 C2227 1.465 . S
C2222 C2217 1.399 . S
C2222 C2221 1.394 . S
C2222 C2223 1.516 . S
C2223 C2222 1.516 . S
C2223 C2224 1.502 . S
C2223 C2225 1.561 . S
C2223 C2226 1.526 . S
C2224 H2208 0.959 . S
C2224 H2209 0.959 . S
C2224 H2210 0.961 . S
C2224 C2223 1.502 . S
C2225 H2211 0.960 . S
C2225 H2212 0.961 . S
C2225 H2213 0.959 . S
C2225 C2223 1.561 . S
C2226 C2223 1.526 . S
C2226 C2227 1.396 . S
C2226 C2231 1.390 . S
C2227 C2221 1.465 . S
C2227 C2226 1.396 . S
C2227 C2228 1.399 . S
C2228 H2214 0.929 . S
C2228 C2227 1.399 . S
C2228 C2229 1.365 1_554 S
C2229 H2215 0.947 . S
C2229 C2228 1.365 1_556 S
C2229 C2230 1.394 . S
C2230 C2229 1.394 . S
C2230 C2231 1.387 1_556 S
C2231 H2216 0.930 . S
C2231 C2226 1.390 . S
C2231 C2230 1.387 1_554 S
H2232 C2244 0.930 . S
H2233 C2246 0.930 . S
H2234 C2247 0.930 . S
H2235 C2251 0.959 . S
H2236 C2251 0.959 . S
H2237 C2251 0.961 . S
H2238 C2252 0.960 . S
H2239 C2252 0.961 . S
H2240 C2252 0.959 . S
H2241 C2255 0.929 . S
H2242 C2256 0.931 . S
H2243 C2258 0.930 . S
C2244 H2232 0.930 . S
C2244 C2245 1.399 . S
C2244 C2249 1.399 . S
C2245 C2244 1.399 . S
C2245 C2246 1.376 . S
C2246 H2233 0.930 . S
C2246 C2245 1.376 . S
C2246 C2247 1.388 . S
C2247 H2234 0.930 . S
C2247 C2246 1.388 . S
C2247 C2248 1.390 . S
C2248 C2247 1.390 . S
C2248 C2249 1.394 . S
C2248 C2254 1.465 . S
C2249 C2244 1.399 . S
C2249 C2248 1.394 . S
C2249 C2250 1.516 . S
C2250 C2249 1.516 . S
C2250 C2251 1.502 . S
C2250 C2252 1.561 . S
C2250 C2253 1.526 . S
C2251 H2235 0.959 . S
C2251 H2236 0.959 . S
C2251 H2237 0.961 . S
C2251 C2250 1.502 . S
C2252 H2238 0.960 . S
C2252 H2239 0.961 . S
C2252 H2240 0.959 . S
C2252 C2250 1.561 . S
C2253 C2250 1.526 . S
C2253 C2254 1.396 . S
C2253 C2258 1.390 . S
C2254 C2248 1.465 . S
C2254 C2253 1.396 . S
C2254 C2255 1.399 . S
C2255 H2241 0.929 . S
C2255 C2254 1.399 . S
C2255 C2256 1.385 1_554 S
C2256 H2242 0.931 . S
C2256 C2255 1.385 1_556 S
C2256 C2257 1.389 . S
C2257 C2256 1.389 . S
C2257 C2258 1.387 1_556 S
C2258 H2243 0.930 . S
C2258 C2253 1.390 . S
C2258 C2257 1.387 1_554 S
H2259 C2271 0.930 . S
H2260 C2273 0.930 . S
H2261 C2274 0.930 . S
H2262 C2278 0.959 . S
H2263 C2278 0.959 . S
H2264 C2278 0.961 . S
H2265 C2279 0.960 . S
H2266 C2279 0.961 . S
H2267 C2279 0.959 . S
H2268 C2282 0.929 . S
H2269 C2283 0.931 1_556 S
H2270 C2285 0.930 . S
C2271 H2259 0.930 . S
C2271 C2272 1.399 . S
C2271 C2276 1.399 . S
C2272 C2271 1.399 . S
C2272 C2273 1.376 . S
C2273 H2260 0.930 . S
C2273 C2272 1.376 . S
C2273 C2274 1.388 . S
C2274 H2261 0.930 . S
C2274 C2273 1.388 . S
C2274 C2275 1.390 . S
C2275 C2274 1.390 . S
C2275 C2276 1.394 . S
C2275 C2281 1.465 . S
C2276 C2271 1.399 . S
C2276 C2275 1.394 . S
C2276 C2277 1.516 . S
C2277 C2276 1.516 . S
C2277 C2278 1.502 . S
C2277 C2279 1.561 . S
C2277 C2280 1.526 . S
C2278 H2262 0.959 . S
C2278 H2263 0.959 . S
C2278 H2264 0.961 . S
C2278 C2277 1.502 . S
C2279 H2265 0.960 . S
C2279 H2266 0.961 . S
C2279 H2267 0.959 . S
C2279 C2277 1.561 . S
C2280 C2277 1.526 . S
C2280 C2281 1.396 . S
C2280 C2285 1.390 . S
C2281 C2275 1.465 . S
C2281 C2280 1.396 . S
C2281 C2282 1.399 . S
C2282 H2268 0.929 . S
C2282 C2281 1.399 . S
C2282 C2283 1.385 . S
C2283 H2269 0.931 1_554 S
C2283 C2282 1.385 . S
C2283 C2284 1.389 1_554 S
C2284 C2283 1.389 1_556 S
C2284 C2285 1.387 1_556 S
C2285 H2270 0.930 . S
C2285 C2280 1.390 . S
C2285 C2284 1.387 1_554 S
H2286 C2298 0.930 . S
H2287 C2300 0.930 . S
H2288 C2301 0.930 . S
H2289 C2305 0.959 . S
H2290 C2305 0.959 . S
H2291 C2305 0.961 . S
H2292 C2306 0.960 . S
H2293 C2306 0.961 . S
H2294 C2306 0.959 . S
H2295 C2309 0.929 . S
H2296 C2310 0.931 . S
H2297 C2312 0.930 . S
C2298 H2286 0.930 . S
C2298 C2299 1.399 1_556 S
C2298 C2303 1.399 . S
C2299 C2298 1.399 1_554 S
C2299 C2300 1.376 . S
C2300 H2287 0.930 . S
C2300 C2299 1.376 . S
C2300 C2301 1.388 1_554 S
C2301 H2288 0.930 . S
C2301 C2300 1.388 1_556 S
C2301 C2302 1.390 . S
C2302 C2301 1.390 . S
C2302 C2303 1.394 . S
C2302 C2308 1.465 . S
C2303 C2298 1.399 . S
C2303 C2302 1.394 . S
C2303 C2304 1.516 . S
C2304 C2303 1.516 . S
C2304 C2305 1.502 . S
C2304 C2306 1.561 . S
C2304 C2307 1.526 . S
C2305 H2289 0.959 . S
C2305 H2290 0.959 . S
C2305 H2291 0.961 . S
C2305 C2304 1.502 . S
C2306 H2292 0.960 . S
C2306 H2293 0.961 . S
C2306 H2294 0.959 . S
C2306 C2304 1.561 . S
C2307 C2304 1.526 . S
C2307 C2308 1.396 . S
C2307 C2312 1.390 . S
C2308 C2302 1.465 . S
C2308 C2307 1.396 . S
C2308 C2309 1.399 . S
C2309 H2295 0.929 . S
C2309 C2308 1.399 . S
C2309 C2310 1.385 . S
C2310 H2296 0.931 . S
C2310 C2309 1.385 . S
C2310 C2311 1.389 . S
C2311 C2310 1.389 . S
C2311 C2312 1.387 . S
C2312 H2297 0.930 . S
C2312 C2307 1.390 . S
C2312 C2311 1.387 . S
H2313 C2325 0.930 . S
H2314 C2327 0.930 1_554 S
H2315 C2328 0.930 . S
H2316 C2332 0.959 . S
H2317 C2332 0.959 . S
H2318 C2332 0.961 . S
H2319 C2333 0.960 . S
H2320 C2333 0.961 . S
H2321 C2333 0.959 . S
H2322 C2336 0.929 . S
H2323 C2337 0.931 . S
H2324 C2339 0.930 . S
C2325 H2313 0.930 . S
C2325 C2326 1.399 1_556 S
C2325 C2330 1.399 . S
C2326 C2325 1.399 1_554 S
C2326 C2327 1.376 1_554 S
C2327 H2314 0.930 1_556 S
C2327 C2326 1.376 1_556 S
C2327 C2328 1.388 . S
C2328 H2315 0.930 . S
C2328 C2327 1.388 . S
C2328 C2329 1.390 . S
C2329 C2328 1.390 . S
C2329 C2330 1.394 . S
C2329 C2335 1.465 . S
C2330 C2325 1.399 . S
C2330 C2329 1.394 . S
C2330 C2331 1.516 . S
C2331 C2330 1.516 . S
C2331 C2332 1.502 . S
C2331 C2333 1.561 . S
C2331 C2334 1.526 . S
C2332 H2316 0.959 . S
C2332 H2317 0.959 . S
C2332 H2318 0.961 . S
C2332 C2331 1.502 . S
C2333 H2319 0.960 . S
C2333 H2320 0.961 . S
C2333 H2321 0.959 . S
C2333 C2331 1.561 . S
C2334 C2331 1.526 . S
C2334 C2335 1.396 . S
C2334 C2339 1.390 . S
C2335 C2329 1.465 . S
C2335 C2334 1.396 . S
C2335 C2336 1.399 . S
C2336 H2322 0.929 . S
C2336 C2335 1.399 . S
C2336 C2337 1.385 . S
C2337 H2323 0.931 . S
C2337 C2336 1.385 . S
C2337 C2338 1.389 . S
C2338 C2337 1.389 . S
C2338 C2339 1.387 . S
C2339 H2324 0.930 . S
C2339 C2334 1.390 . S
C2339 C2338 1.387 . S
H2340 C2352 0.930 . S
H2341 C2354 0.930 1_554 S
H2342 C2355 0.930 . S
H2343 C2359 0.959 . S
H2344 C2359 0.959 . S
H2345 C2359 0.961 . S
H2346 C2360 0.960 . S
H2347 C2360 0.961 . S
H2348 C2360 0.959 . S
H2349 C2363 0.929 . S
H2350 C2364 0.931 . S
H2351 C2366 0.930 . S
C2352 H2340 0.930 . S
C2352 C2353 1.399 1_556 S
C2352 C2357 1.399 . S
C2353 C2352 1.399 1_554 S
C2353 C2354 1.376 1_554 S
C2354 H2341 0.930 1_556 S
C2354 C2353 1.376 1_556 S
C2354 C2355 1.388 . S
C2355 H2342 0.930 . S
C2355 C2354 1.388 . S
C2355 C2356 1.390 . S
C2356 C2355 1.390 . S
C2356 C2357 1.394 . S
C2356 C2362 1.465 . S
C2357 C2352 1.399 . S
C2357 C2356 1.394 . S
C2357 C2358 1.516 . S
C2358 C2357 1.516 . S
C2358 C2359 1.502 . S
C2358 C2360 1.561 . S
C2358 C2361 1.526 . S
C2359 H2343 0.959 . S
C2359 H2344 0.959 . S
C2359 H2345 0.961 . S
C2359 C2358 1.502 . S
C2360 H2346 0.960 . S
C2360 H2347 0.961 . S
C2360 H2348 0.959 . S
C2360 C2358 1.561 . S
C2361 C2358 1.526 . S
C2361 C2362 1.396 . S
C2361 C2366 1.390 . S
C2362 C2356 1.465 . S
C2362 C2361 1.396 . S
C2362 C2363 1.399 . S
C2363 H2349 0.929 . S
C2363 C2362 1.399 . S
C2363 C2364 1.385 . S
C2364 H2350 0.931 . S
C2364 C2363 1.385 . S
C2364 C2365 1.389 . S
C2365 C2364 1.389 . S
C2365 C2366 1.387 . S
C2366 H2351 0.930 . S
C2366 C2361 1.390 . S
C2366 C2365 1.387 . S
H2367 C2379 0.930 . S
H2368 C2381 0.930 . S
H2369 C2382 0.930 . S
H2370 C2386 0.959 . S
H2371 C2386 0.959 . S
H2372 C2386 0.961 . S
H2373 C2387 0.960 . S
H2374 C2387 0.961 . S
H2375 C2387 0.959 . S
H2376 C2390 0.929 . S
H2377 C2391 0.931 . S
H2378 C2393 0.930 . S
C2379 H2367 0.930 . S
C2379 C2380 1.399 . S
C2379 C2384 1.399 . S
C2380 C2379 1.399 . S
C2380 C2381 1.376 . S
C2381 H2368 0.930 . S
C2381 C2380 1.376 . S
C2381 C2382 1.388 . S
C2382 H2369 0.930 . S
C2382 C2381 1.388 . S
C2382 C2383 1.390 . S
C2383 C2382 1.390 . S
C2383 C2384 1.394 . S
C2383 C2389 1.465 . S
C2384 C2379 1.399 . S
C2384 C2383 1.394 . S
C2384 C2385 1.516 . S
C2385 C2384 1.516 . S
C2385 C2386 1.502 . S
C2385 C2387 1.561 . S
C2385 C2388 1.526 . S
C2386 H2370 0.959 . S
C2386 H2371 0.959 . S
C2386 H2372 0.961 . S
C2386 C2385 1.502 . S
C2387 H2373 0.960 . S
C2387 H2374 0.961 . S
C2387 H2375 0.959 . S
C2387 C2385 1.561 . S
C2388 C2385 1.526 . S
C2388 C2389 1.396 . S
C2388 C2393 1.390 . S
C2389 C2383 1.465 . S
C2389 C2388 1.396 . S
C2389 C2390 1.399 . S
C2390 H2376 0.929 . S
C2390 C2389 1.399 . S
C2390 C2391 1.385 . S
C2391 H2377 0.931 . S
C2391 C2390 1.385 . S
C2391 C2392 1.389 . S
C2392 C2391 1.389 . S
C2392 C2393 1.387 . S
C2393 H2378 0.930 . S
C2393 C2388 1.390 . S
C2393 C2392 1.387 . S
H2394 C2406 0.930 . S
H2395 C2408 0.930 . S
H2396 C2409 0.930 . S
H2397 C2413 0.959 . S
H2398 C2413 0.959 . S
H2399 C2413 0.961 . S
H2400 C2414 0.960 . S
H2401 C2414 0.961 . S
H2402 C2414 0.959 . S
H2403 C2417 0.929 . S
H2404 C2418 0.931 . S
H2405 C2420 0.930 . S
C2406 H2394 0.930 . S
C2406 C2407 1.399 . S
C2406 C2411 1.399 . S
C2407 C2406 1.399 . S
C2407 C2408 1.376 . S
C2408 H2395 0.930 . S
C2408 C2407 1.376 . S
C2408 C2409 1.388 . S
C2409 H2396 0.930 . S
C2409 C2408 1.388 . S
C2409 C2410 1.390 . S
C2410 C2409 1.390 . S
C2410 C2411 1.394 . S
C2410 C2416 1.465 . S
C2411 C2406 1.399 . S
C2411 C2410 1.394 . S
C2411 C2412 1.516 . S
C2412 C2411 1.516 . S
C2412 C2413 1.502 . S
C2412 C2414 1.561 . S
C2412 C2415 1.526 . S
C2413 H2397 0.959 . S
C2413 H2398 0.959 . S
C2413 H2399 0.961 . S
C2413 C2412 1.502 . S
C2414 H2400 0.960 . S
C2414 H2401 0.961 . S
C2414 H2402 0.959 . S
C2414 C2412 1.561 . S
C2415 C2412 1.526 . S
C2415 C2416 1.396 . S
C2415 C2420 1.390 . S
C2416 C2410 1.465 . S
C2416 C2415 1.396 . S
C2416 C2417 1.399 . S
C2417 H2403 0.929 . S
C2417 C2416 1.399 . S
C2417 C2418 1.385 . S
C2418 H2404 0.931 . S
C2418 C2417 1.385 . S
C2418 C2419 1.389 . S
C2419 C2418 1.389 . S
C2419 C2420 1.387 . S
C2420 H2405 0.930 . S
C2420 C2415 1.390 . S
C2420 C2419 1.387 . S
H2421 C2433 0.930 . S
H2422 C2435 0.930 . S
H2423 C2436 0.930 . S
H2424 C2440 0.959 . S
H2425 C2440 0.959 . S
H2426 C2440 0.961 . S
H2427 C2441 0.960 . S
H2428 C2441 0.961 . S
H2429 C2441 0.959 . S
H2430 C2444 0.929 . S
H2431 C2445 0.931 . S
H2432 C2447 0.930 . S
C2433 H2421 0.930 . S
C2433 C2434 1.399 . S
C2433 C2438 1.399 . S
C2434 C2433 1.399 . S
C2434 C2435 1.376 . S
C2435 H2422 0.930 . S
C2435 C2434 1.376 . S
C2435 C2436 1.388 . S
C2436 H2423 0.930 . S
C2436 C2435 1.388 . S
C2436 C2437 1.390 . S
C2437 C2436 1.390 . S
C2437 C2438 1.394 . S
C2437 C2443 1.465 . S
C2438 C2433 1.399 . S
C2438 C2437 1.394 . S
C2438 C2439 1.516 . S
C2439 C2438 1.516 . S
C2439 C2440 1.502 . S
C2439 C2441 1.561 . S
C2439 C2442 1.526 . S
C2440 H2424 0.959 . S
C2440 H2425 0.959 . S
C2440 H2426 0.961 . S
C2440 C2439 1.502 . S
C2441 H2427 0.960 . S
C2441 H2428 0.961 . S
C2441 H2429 0.959 . S
C2441 C2439 1.561 . S
C2442 C2439 1.526 . S
C2442 C2443 1.396 . S
C2442 C2447 1.390 . S
C2443 C2437 1.465 . S
C2443 C2442 1.396 . S
C2443 C2444 1.399 . S
C2444 H2430 0.929 . S
C2444 C2443 1.399 . S
C2444 C2445 1.385 . S
C2445 H2431 0.931 . S
C2445 C2444 1.385 . S
C2445 C2446 1.389 . S
C2446 C2445 1.389 . S
C2446 C2447 1.387 . S
C2447 H2432 0.930 . S
C2447 C2442 1.390 . S
C2447 C2446 1.387 . S
C517 C232 1.141 . S
C529 C8 1.129 . S
C544 C246 1.139 . S
C556 C22 1.141 . S
C571 C36 1.124 . S
C583 C218 1.139 . S
C598 C372 1.142 . S
C610 C50 1.136 . S
C625 C344 1.115 . S
C637 C64 1.117 . S
C652 C78 1.130 . S
C664 C358 1.141 . S
C679 C484 1.122 . S
C691 C92 1.116 . S
C706 C498 1.137 . S
C718 C106 1.116 . S
C733 C470 1.113 . S
C745 C120 1.130 . S
C760 C288 1.113 . S
C772 C134 1.132 . S
C787 C148 1.140 . S
C799 C260 1.118 . S
C814 C274 1.117 . S
C826 C162 1.121 . S
C841 C400 1.118 . S
C853 C176 1.114 . S
C868 C190 1.116 . S
C880 C414 1.130 . S
C895 C386 1.133 . S
C907 C204 1.118 . S
C922 C456 1.142 . S
C934 C302 1.125 . S
C949 C428 1.142 . S
C961 C316 1.128 . S
C976 C330 1.142 . S
C988 C442 1.124 . S
C1003 C101 1.548 . S
C1015 C7 1.528 . S
C1030 C115 1.555 . S
C1042 C21 1.530 . S
C1057 C87 1.548 . S
C1069 C35 1.518 . S
C1084 C49 1.556 . S
C1096 C157 1.563 . S
C1111 C129 1.561 . S
C1123 C63 1.549 . S
C1138 C77 1.527 . S
C1150 C143 1.553 . S
C1165 C17 1.560 . S
C1177 C91 1.549 . S
C1192 C105 1.528 . S
C1204 C31 1.550 . S
C1219 C3 1.547 . S
C1231 C119 1.519 . S
C1246 C73 1.558 . S
C1258 C133 1.553 . S
C1273 C45 1.562 . S
C1285 C147 1.557 . S
C1300 C161 1.555 . S
C1312 C59 1.560 . S
C1327 C175 1.525 . S
C1339 C269 1.553 . S
C1354 C283 1.558 . S
C1366 C189 1.539 . S
C1381 C255 1.562 . S
C1393 C203 1.560 . S
C1408 C217 1.558 . S
C1420 C325 1.563 . S
C1435 C297 1.549 . S
C1447 C231 1.532 . S
C1462 C245 1.526 . S
C1474 C311 1.553 . S
C1489 C259 1.561 . S
C1501 C185 1.563 . S
C1516 C273 1.551 . S
C1528 C199 1.558 . S
C1543 C171 1.550 . S
C1555 C287 1.524 . S
C1570 C241 1.548 . S
C1582 C301 1.519 . S
C1597 C213 1.563 . S
C1609 C315 1.558 . S
C1624 C329 1.559 . S
C1636 C227 1.562 . S
C1651 C437 1.561 . S
C1663 C343 1.548 . S
C1678 C357 1.544 . S
C1690 C451 1.554 . S
C1705 C371 1.548 . S
C1717 C423 1.555 . S
C1732 C493 1.549 . S
C1744 C385 1.519 . S
C1759 C399 1.547 . S
C1771 C465 1.555 . S
C1786 C479 1.549 . S
C1798 C413 1.532 . S
C1813 C353 1.557 . S
C1825 C427 1.541 . S
C1840 C367 1.549 . S
C1852 C441 1.529 . S
C1867 C455 1.543 . S
C1879 C339 1.555 . S
C1894 C469 1.555 . S
C1906 C409 1.562 . S
C1921 C381 1.554 . S
C1933 C483 1.543 . S
C1948 C395 1.548 . S
C1960 C497 1.526 . S
C1975 C9 1.576 . S
C1987 C51 1.574 . S
C2002 C23 1.560 . S
C2014 C65 1.571 . S
C2029 C79 1.575 . S
C2041 C37 1.575 . S
C2056 C93 1.561 . S
C2068 C135 1.540 . S
C2083 C149 1.575 . S
C2095 C107 1.557 . S
C2110 C163 1.551 . S
C2122 C121 1.573 . S
C2137 C177 1.576 . S
C2149 C219 1.574 . S
C2164 C191 1.553 . S
C2176 C233 1.543 . S
C2191 C247 1.535 . S
C2203 C205 1.537 . S
C2218 C261 1.560 . S
C2230 C303 1.539 . S
C2245 C275 1.576 . S
C2257 C317 1.559 . S
C2272 C289 1.567 . S
C2284 C331 1.576 . S
C2299 C387 1.553 . S
C2311 C345 1.564 . S
C2326 C401 1.545 . S
C2338 C359 1.538 . S
C2353 C415 1.539 . S
C2365 C373 1.536 . S
C2380 C429 1.551 . S
C2392 C471 1.572 . S
C2407 C485 1.576 . S
C2419 C443 1.560 . S
C2434 C499 1.554 . S
C2446 C457 1.574 . S
