# Generated by pormake.
# Topology wkc, (5)-cn, num edge types: 1
# Building blocks:
#     Node 0, Type 0, BuildingBlock: BEQFEK_clean_sbu_0, # of connection points: 5
#     Node 1, Type 0, BuildingBlock: BEQFEK_clean_sbu_0, # of connection points: 5
#     Node 2, Type 0, BuildingBlock: BEQFEK_clean_sbu_0, # of connection points: 5
#     Node 3, Type 0, BuildingBlock: BEQFEK_clean_sbu_0, # of connection points: 5
#     Node 4, Type 0, BuildingBlock: BEQFEK_clean_sbu_0, # of connection points: 5
#     Node 5, Type 0, BuildingBlock: BEQFEK_clean_sbu_0, # of connection points: 5
#     Node 6, Type 0, BuildingBlock: BEQFEK_clean_sbu_0, # of connection points: 5
#     Node 7, Type 0, BuildingBlock: BEQFEK_clean_sbu_0, # of connection points: 5
#     Node 8, Type 0, BuildingBlock: BEQFEK_clean_sbu_0, # of connection points: 5
#     Node 9, Type 0, BuildingBlock: BEQFEK_clean_sbu_0, # of connection points: 5
#     Node 10, Type 0, BuildingBlock: BEQFEK_clean_sbu_0, # of connection points: 5
#     Node 11, Type 0, BuildingBlock: BEQFEK_clean_sbu_0, # of connection points: 5
#     Edge 12, Type (0, 0), BuildingBlock: EZIPEK_clean_linker_0, # of connection points: 2
#     Edge 13, Type (0, 0), BuildingBlock: EZIPEK_clean_linker_0, # of connection points: 2
#     Edge 14, Type (0, 0), BuildingBlock: EZIPEK_clean_linker_0, # of connection points: 2
#     Edge 15, Type (0, 0), BuildingBlock: EZIPEK_clean_linker_0, # of connection points: 2
#     Edge 16, Type (0, 0), BuildingBlock: EZIPEK_clean_linker_0, # of connection points: 2
#     Edge 17, Type (0, 0), BuildingBlock: EZIPEK_clean_linker_0, # of connection points: 2
#     Edge 18, Type (0, 0), BuildingBlock: EZIPEK_clean_linker_0, # of connection points: 2
#     Edge 19, Type (0, 0), BuildingBlock: EZIPEK_clean_linker_0, # of connection points: 2
#     Edge 20, Type (0, 0), BuildingBlock: EZIPEK_clean_linker_0, # of connection points: 2
#     Edge 21, Type (0, 0), BuildingBlock: EZIPEK_clean_linker_0, # of connection points: 2
#     Edge 22, Type (0, 0), BuildingBlock: EZIPEK_clean_linker_0, # of connection points: 2
#     Edge 23, Type (0, 0), BuildingBlock: EZIPEK_clean_linker_0, # of connection points: 2
#     Edge 24, Type (0, 0), BuildingBlock: EZIPEK_clean_linker_0, # of connection points: 2
#     Edge 25, Type (0, 0), BuildingBlock: EZIPEK_clean_linker_0, # of connection points: 2
#     Edge 26, Type (0, 0), BuildingBlock: EZIPEK_clean_linker_0, # of connection points: 2
#     Edge 27, Type (0, 0), BuildingBlock: EZIPEK_clean_linker_0, # of connection points: 2
#     Edge 28, Type (0, 0), BuildingBlock: EZIPEK_clean_linker_0, # of connection points: 2
#     Edge 29, Type (0, 0), BuildingBlock: EZIPEK_clean_linker_0, # of connection points: 2
#     Edge 30, Type (0, 0), BuildingBlock: EZIPEK_clean_linker_0, # of connection points: 2
#     Edge 31, Type (0, 0), BuildingBlock: EZIPEK_clean_linker_0, # of connection points: 2
#     Edge 32, Type (0, 0), BuildingBlock: EZIPEK_clean_linker_0, # of connection points: 2
#     Edge 33, Type (0, 0), BuildingBlock: EZIPEK_clean_linker_0, # of connection points: 2
#     Edge 34, Type (0, 0), BuildingBlock: EZIPEK_clean_linker_0, # of connection points: 2
#     Edge 35, Type (0, 0), BuildingBlock: EZIPEK_clean_linker_0, # of connection points: 2
#     Edge 36, Type (0, 0), BuildingBlock: EZIPEK_clean_linker_0, # of connection points: 2
#     Edge 37, Type (0, 0), BuildingBlock: EZIPEK_clean_linker_0, # of connection points: 2
#     Edge 38, Type (0, 0), BuildingBlock: EZIPEK_clean_linker_0, # of connection points: 2
#     Edge 39, Type (0, 0), BuildingBlock: EZIPEK_clean_linker_0, # of connection points: 2
#     Edge 40, Type (0, 0), BuildingBlock: EZIPEK_clean_linker_0, # of connection points: 2
#     Edge 41, Type (0, 0), BuildingBlock: EZIPEK_clean_linker_0, # of connection points: 2
# Relax obj value: 0.265
# Max RMSD: 0.181
# Mean RMSD: 0.181
data_MOF--net-wkc--node1-BEQFEK_clean_sbu_0--edge1-EZIPEK_clean_linker_0
_symmetry_space_group_name_H-M    P1
_symmetry_Int_Tables_number       1
_symmetry_cell_setting            triclinic
loop_
_symmetry_equiv_pos_as_xyz
'x, y, z'
_cell_length_a     31.549275
_cell_length_b     31.522379
_cell_length_c     32.544767
_cell_angle_alpha  89.922711
_cell_angle_beta   90.02691
_cell_angle_gamma 120.08803
loop_
_atom_site_label
_atom_site_type_symbol
_atom_site_fract_x
_atom_site_fract_y
_atom_site_fract_z
_atom_type_partial_charge
Co0 Co 0.26504 0.33011 0.99983 0.0
Co1 Co 0.27139 0.42241 0.04215 0.0
C2 C 0.17536 0.33673 0.02736 0.0
O3 O 0.19528 0.31359 0.01218 0.0
O4 O 0.20066 0.38111 0.03853 0.0
C5 C 0.26878 0.27461 0.92755 0.0
O6 O 0.27275 0.31045 0.90421 0.0
C7 C 0.26104 0.5073 0.06364 0.0
C8 C 0.33416 0.55762 0.08968 0.0
C9 C 0.29014 0.55431 0.07887 0.0
N10 N 0.28734 0.48445 0.0642 0.0
N11 N 0.3306 0.51434 0.08059 0.0
C12 C 0.20955 0.48456 0.04819 0.0
H13 H 0.18558 0.45205 0.06731 0.0
H14 H 0.20787 0.47171 0.01617 0.0
H15 H 0.19566 0.51065 0.04938 0.0
C16 C 0.34691 0.41244 0.95121 0.0
N17 N 0.30749 0.39389 0.97656 0.0
N18 N 0.30316 0.43059 0.99079 0.0
C19 C 0.33627 0.47234 0.97211 0.0
C20 C 0.36572 0.46262 0.94712 0.0
C21 C 0.37252 0.38564 0.93805 0.0
H22 H 0.35961 0.35175 0.95626 0.0
H23 H 0.36569 0.37654 0.90493 0.0
H24 H 0.41271 0.40928 0.94208 0.0
O25 O 0.29267 0.32745 0.05318 0.0
O26 O 0.29461 0.3917 0.08345 0.0
H27 H 0.36721 0.53965 0.00556 0.0
H28 H 0.35754 0.54538 0.95201 0.0
C29 C 0.34188 0.52161 0.97949 0.0
H30 H 0.30567 0.51727 0.98646 0.0
H31 H 0.3583 0.50573 0.08422 0.0
O32 O 0.26234 0.27593 0.966 0.0
C33 C 0.30116 0.35497 0.08428 0.0
Co34 Co 0.93223 0.27139 0.16934 0.0
Co35 Co 0.84351 0.27117 0.21327 0.0
C36 C 0.8414 0.17751 0.1932 0.0
O37 O 0.88275 0.19953 0.17489 0.0
O38 O 0.82203 0.20092 0.20842 0.0
C39 C 0.98461 0.25769 0.10088 0.0
O40 O 0.94157 0.22357 0.08757 0.0
C41 C 0.74294 0.25066 0.2271 0.0
C42 C 0.75676 0.31571 0.26328 0.0
C43 C 0.72 0.27399 0.24458 0.0
N44 N 0.79132 0.27837 0.23404 0.0
N45 N 0.79921 0.31668 0.25628 0.0
C46 C 0.71985 0.20348 0.20371 0.0
H47 H 0.72578 0.17633 0.22067 0.0
H48 H 0.73805 0.20946 0.17336 0.0
H49 H 0.67993 0.18852 0.19953 0.0
C50 C 0.92582 0.34694 0.11926 0.0
N51 N 0.90681 0.30983 0.14682 0.0
N52 N 0.86764 0.30723 0.16359 0.0
C53 C 0.85961 0.3414 0.14613 0.0
C54 C 0.89636 0.36805 0.11787 0.0
C55 C 0.97463 0.36612 0.09903 0.0
H56 H 0.00207 0.36937 0.12203 0.0
H57 H 0.97175 0.33981 0.07514 0.0
H58 H 0.98716 0.40232 0.08439 0.0
O59 O 0.95784 0.29594 0.22558 0.0
O60 O 0.89542 0.29835 0.25532 0.0
H61 H 0.83083 0.3727 0.18799 0.0
H62 H 0.81456 0.37401 0.13512 0.0
C63 C 0.82031 0.35195 0.15873 0.0
H64 H 0.78576 0.31709 0.1632 0.0
H65 H 0.83382 0.3443 0.26558 0.0
O66 O 0.98779 0.27991 0.1344 0.0
C67 C 0.93876 0.30535 0.25625 0.0
Co68 Co 0.66618 0.93288 0.33287 0.0
Co69 Co 0.58518 0.84803 0.38849 0.0
C70 C 0.67164 0.84339 0.35625 0.0
O71 O 0.68998 0.88445 0.33746 0.0
O72 O 0.63132 0.82563 0.37552 0.0
C73 C 0.72543 0.9839 0.25918 0.0
O74 O 0.7153 0.94067 0.24541 0.0
C75 C 0.50586 0.74741 0.40423 0.0
C76 C 0.46001 0.75983 0.44834 0.0
C77 C 0.46093 0.7239 0.42441 0.0
N78 N 0.52904 0.79524 0.41438 0.0
N79 N 0.50212 0.80207 0.44173 0.0
C80 C 0.52649 0.72544 0.37534 0.0
H81 H 0.56191 0.73151 0.38762 0.0
H82 H 0.53406 0.7444 0.3452 0.0
H83 H 0.50133 0.6855 0.37132 0.0
C84 C 0.57612 0.91838 0.29036 0.0
N85 N 0.59888 0.90426 0.31777 0.0
N86 N 0.56563 0.87064 0.34217 0.0
C87 C 0.52115 0.86324 0.33152 0.0
C88 C 0.52625 0.89272 0.29832 0.0
C89 C 0.60181 0.95829 0.25945 0.0
H90 H 0.62919 0.99235 0.27512 0.0
H91 H 0.62146 0.94719 0.23779 0.0
H92 H 0.57569 0.96539 0.2421 0.0
O93 O 0.67369 0.96307 0.38843 0.0
O94 O 0.61835 0.90214 0.42745 0.0
H95 H 0.44333 0.83414 0.34202 0.0
H96 H 0.46733 0.79615 0.35901 0.0
C97 C 0.4754 0.83431 0.35615 0.0
H98 H 0.48099 0.85059 0.38721 0.0
H99 H 0.51131 0.8361 0.45423 0.0
O100 O 0.7091 0.98749 0.29403 0.0
C101 C 0.65303 0.9462 0.42311 0.0
Co102 Co 0.72304 0.66637 0.50099 0.0
Co103 Co 0.71884 0.57671 0.54765 0.0
C104 C 0.81429 0.66582 0.52653 0.0
O105 O 0.79434 0.68621 0.50676 0.0
O106 O 0.78879 0.62376 0.5427 0.0
C107 C 0.73586 0.72144 0.42603 0.0
O108 O 0.75938 0.69957 0.41282 0.0
C109 C 0.74087 0.49843 0.56503 0.0
C110 C 0.67309 0.44337 0.59604 0.0
C111 C 0.71745 0.45119 0.58078 0.0
N112 N 0.71099 0.51704 0.5695 0.0
N113 N 0.67099 0.48433 0.58886 0.0
C114 C 0.79037 0.52527 0.54541 0.0
H115 H 0.7868 0.53705 0.51408 0.0
H116 H 0.8079 0.50237 0.54377 0.0
H117 H 0.81421 0.55864 0.56359 0.0
C118 C 0.64279 0.58343 0.45511 0.0
N119 N 0.68153 0.60163 0.4809 0.0
N120 N 0.68424 0.56492 0.49736 0.0
C121 C 0.64952 0.52265 0.48038 0.0
C122 C 0.62169 0.5328 0.45349 0.0
C123 C 0.62122 0.61254 0.43808 0.0
H124 H 0.62852 0.64323 0.45898 0.0
H125 H 0.63815 0.62782 0.40794 0.0
H126 H 0.58112 0.58906 0.43341 0.0
O127 O 0.69944 0.67084 0.55659 0.0
O128 O 0.69259 0.60454 0.58797 0.0
H129 H 0.61728 0.46002 0.51983 0.0
H130 H 0.62057 0.44606 0.46678 0.0
C131 C 0.64023 0.47277 0.49177 0.0
H132 H 0.67538 0.47423 0.49773 0.0
H133 H 0.64149 0.48933 0.5958 0.0
O134 O 0.71918 0.7138 0.46261 0.0
C135 C 0.68816 0.64256 0.58776 0.0
Co136 Co 0.06195 0.72462 0.66542 0.0
Co137 Co 0.14275 0.72835 0.72563 0.0
C138 C 0.14525 0.81984 0.69281 0.0
O139 O 0.10731 0.79736 0.67012 0.0
O140 O 0.16107 0.79692 0.7142 0.0
C141 C 0.00541 0.73195 0.59494 0.0
O142 O 0.04695 0.76891 0.58184 0.0
C143 C 0.24415 0.7545 0.74014 0.0
C144 C 0.23574 0.69969 0.78667 0.0
C145 C 0.26973 0.73589 0.76095 0.0
N146 N 0.19692 0.72884 0.7517 0.0
N147 N 0.19237 0.6971 0.78034 0.0
C148 C 0.26351 0.79516 0.70922 0.0
H149 H 0.25778 0.825 0.72082 0.0
H150 H 0.2425 0.78158 0.68017 0.0
H151 H 0.30315 0.81018 0.70334 0.0
C152 C 0.0915 0.65965 0.61951 0.0
N153 N 0.09638 0.69066 0.65027 0.0
N154 N 0.1256 0.68878 0.67827 0.0
C155 C 0.13685 0.65429 0.66773 0.0
C156 C 0.11625 0.63533 0.63004 0.0
C157 C 0.06331 0.65206 0.58096 0.0
H158 H 0.05769 0.68351 0.57527 0.0
H159 H 0.08339 0.64803 0.55463 0.0
H160 H 0.02792 0.61726 0.58361 0.0
O161 O 0.03092 0.70098 0.7215 0.0
O162 O 0.08751 0.70113 0.76276 0.0
H163 H 0.14125 0.62531 0.72595 0.0
H164 H 0.15837 0.60067 0.68318 0.0
C165 C 0.16012 0.63419 0.69579 0.0
H166 H 0.19893 0.66188 0.70051 0.0
H167 H 0.15919 0.67191 0.79397 0.0
O168 O 0.00493 0.70917 0.6275 0.0
C169 C 0.04436 0.69288 0.7563 0.0
Co170 Co 0.33043 0.05536 0.82942 0.0
Co171 Co 0.42061 0.13923 0.87682 0.0
C172 C 0.33224 0.14682 0.85894 0.0
O173 O 0.30907 0.10498 0.84148 0.0
O174 O 0.37601 0.16418 0.87125 0.0
C175 C 0.26764 0.01019 0.75709 0.0
O176 O 0.28444 0.05508 0.74354 0.0
C177 C 0.50375 0.23783 0.88823 0.0
C178 C 0.54659 0.22608 0.93606 0.0
C179 C 0.54686 0.26145 0.91057 0.0
N180 N 0.47974 0.19037 0.89926 0.0
N181 N 0.50513 0.18369 0.92829 0.0
C182 C 0.48486 0.25963 0.85746 0.0
H183 H 0.474 0.23723 0.82901 0.0
H184 H 0.51241 0.29824 0.85027 0.0
H185 H 0.4516 0.25844 0.87003 0.0
C186 C 0.41328 0.06713 0.77579 0.0
N187 N 0.39514 0.08265 0.80626 0.0
N188 N 0.43185 0.11717 0.82696 0.0
C189 C 0.47415 0.12508 0.81063 0.0
C190 C 0.46476 0.09778 0.77459 0.0
C191 C 0.38441 0.0154 0.76055 0.0
H192 H 0.35567 0.99241 0.78317 0.0
H193 H 0.36574 0.01421 0.73151 0.0
H194 H 0.40799 0.99894 0.75642 0.0
O195 O 0.32845 0.02495 0.88399 0.0
O196 O 0.39176 0.08604 0.91673 0.0
H197 H 0.54603 0.13432 0.82425 0.0
H198 H 0.53883 0.18662 0.83521 0.0
C199 C 0.52043 0.14616 0.83548 0.0
H200 H 0.51129 0.13325 0.86763 0.0
H201 H 0.49455 0.15 0.94225 0.0
O202 O 0.28121 0.00312 0.79207 0.0
C203 C 0.35504 0.04288 0.91599 0.0
Co204 Co 0.66218 0.73301 0.82755 0.0
Co205 Co 0.57336 0.73142 0.78219 0.0
C206 C 0.66269 0.82586 0.8025 0.0
O207 O 0.68395 0.80459 0.81879 0.0
O208 O 0.61936 0.80164 0.78862 0.0
C209 C 0.72476 0.74688 0.89905 0.0
O210 O 0.71207 0.778 0.91303 0.0
C211 C 0.49385 0.75206 0.7674 0.0
C212 C 0.44059 0.68589 0.7335 0.0
C213 C 0.44684 0.7286 0.75128 0.0
N214 N 0.51373 0.72361 0.76073 0.0
N215 N 0.48212 0.68465 0.73968 0.0
C216 C 0.51942 0.80025 0.7893 0.0
H217 H 0.53228 0.79535 0.81974 0.0
H218 H 0.49528 0.81616 0.79319 0.0
H219 H 0.55213 0.82627 0.77131 0.0
C220 C 0.58022 0.65523 0.87552 0.0
N221 N 0.59798 0.69339 0.84904 0.0
N222 N 0.56105 0.69488 0.83172 0.0
C223 C 0.51887 0.65917 0.84818 0.0
C224 C 0.52948 0.63249 0.876 0.0
C225 C 0.61044 0.63617 0.89482 0.0
H226 H 0.63667 0.63642 0.87201 0.0
H227 H 0.63164 0.66051 0.92057 0.0
H228 H 0.58725 0.59844 0.90693 0.0
O229 O 0.66421 0.70642 0.77305 0.0
O230 O 0.60241 0.70728 0.74049 0.0
H231 H 0.45916 0.62597 0.80594 0.0
H232 H 0.44095 0.62495 0.85851 0.0
C233 C 0.46873 0.64723 0.83493 0.0
H234 H 0.46798 0.68144 0.82977 0.0
H235 H 0.48823 0.65632 0.7309 0.0
O236 O 0.70935 0.72678 0.86413 0.0
C237 C 0.63832 0.69939 0.74095 0.0
Co238 Co 0.9294 0.66765 0.99367 0.0
Co239 Co 0.83967 0.57732 0.95281 0.0
C240 C 0.83307 0.66421 0.97089 0.0
O241 O 0.87714 0.68598 0.98408 0.0
O242 O 0.8117 0.61972 0.95956 0.0
C243 C 0.99135 0.72178 0.06499 0.0
O244 O 0.95886 0.68659 0.0885 0.0
C245 C 0.74312 0.49252 0.93263 0.0
C246 C 0.76541 0.44343 0.90339 0.0
C247 C 0.7249 0.44596 0.91623 0.0
N248 N 0.79229 0.51578 0.93071 0.0
N249 N 0.80529 0.48661 0.91248 0.0
C250 C 0.71472 0.51448 0.95033 0.0
H251 H 0.72283 0.54775 0.9325 0.0
H252 H 0.72674 0.52611 0.98245 0.0
H253 H 0.67469 0.48831 0.94954 0.0
C254 C 0.92824 0.58432 0.04067 0.0
N255 N 0.90729 0.60359 0.01627 0.0
N256 N 0.86545 0.56747 0.00252 0.0
C257 C 0.85665 0.52529 0.02055 0.0
C258 C 0.89634 0.53428 0.04467 0.0
C259 C 0.98096 0.61033 0.05311 0.0
H260 H 0.00211 0.6439 0.03459 0.0
H261 H 0.98412 0.61981 0.08619 0.0
H262 H 0.99669 0.58605 0.04885 0.0
O263 O 0.95713 0.66946 0.93934 0.0
O264 O 0.89154 0.60803 0.90972 0.0
H265 H 0.81814 0.45874 0.98634 0.0
H266 H 0.80496 0.45201 0.04035 0.0
C267 C 0.81224 0.4764 0.01343 0.0
H268 H 0.78031 0.4812 0.00811 0.0
H269 H 0.84154 0.49563 0.9075 0.0
O270 O 0.9831 0.72083 0.02666 0.0
C271 C 0.93569 0.64326 0.90805 0.0
Co272 Co 0.27356 0.93813 0.16195 0.0
Co273 Co 0.28164 0.85576 0.11462 0.0
C274 C 0.18471 0.84639 0.13252 0.0
O275 O 0.2029 0.88802 0.15023 0.0
O276 O 0.21158 0.82964 0.12004 0.0
C277 C 0.25557 0.98545 0.23285 0.0
O278 O 0.22539 0.94131 0.24701 0.0
C279 C 0.26992 0.75857 0.10534 0.0
C280 C 0.32354 0.77085 0.05645 0.0
C281 C 0.29031 0.73573 0.08325 0.0
N282 N 0.29109 0.80544 0.09289 0.0
N283 N 0.32263 0.81244 0.06331 0.0
C284 C 0.23078 0.73667 0.13744 0.0
H285 H 0.19772 0.73691 0.12613 0.0
H286 H 0.24341 0.75963 0.16556 0.0
H287 H 0.22087 0.69843 0.14487 0.0
C288 C 0.344 0.92673 0.21687 0.0
N289 N 0.31131 0.91171 0.18562 0.0
N290 N 0.31497 0.87844 0.16438 0.0
C291 C 0.34995 0.87143 0.18066 0.0
C292 C 0.36614 0.8973 0.21755 0.0
C293 C 0.36434 0.9772 0.23445 0.0
H294 H 0.35989 0.00124 0.2121 0.0
H295 H 0.344 0.9758 0.2626 0.0
H296 H 0.40407 0.99436 0.24086 0.0
O297 O 0.30157 0.96848 0.10721 0.0
O298 O 0.30524 0.90837 0.07437 0.0
H299 H 0.41559 0.8679 0.16627 0.0
H300 H 0.35804 0.81333 0.15467 0.0
C301 C 0.37767 0.85381 0.15506 0.0
H302 H 0.38044 0.86705 0.12309 0.0
H303 H 0.34418 0.84585 0.04836 0.0
O304 O 0.27673 0.99059 0.19837 0.0
C305 C 0.31073 0.9511 0.07517 0.0
Co306 Co 0.32528 0.26827 0.327 0.0
Co307 Co 0.41521 0.27239 0.28186 0.0
C308 C 0.32741 0.17683 0.30145 0.0
O309 O 0.30521 0.19713 0.3177 0.0
O310 O 0.37069 0.20194 0.28766 0.0
C311 C 0.26214 0.2512 0.39833 0.0
O312 O 0.27688 0.2215 0.41197 0.0
C313 C 0.4959 0.25419 0.26537 0.0
C314 C 0.54708 0.32047 0.23034 0.0
C315 C 0.542 0.27797 0.24762 0.0
N316 N 0.47524 0.28214 0.2599 0.0
N317 N 0.50565 0.32128 0.23836 0.0
C318 C 0.47195 0.20615 0.28763 0.0
H319 H 0.45847 0.21053 0.31793 0.0
H320 H 0.49738 0.19181 0.29184 0.0
H321 H 0.43978 0.17911 0.26968 0.0
C322 C 0.40664 0.34576 0.37616 0.0
N323 N 0.38923 0.30842 0.34894 0.0
N324 N 0.4264 0.30724 0.33188 0.0
C325 C 0.46829 0.34199 0.34929 0.0
C326 C 0.45737 0.368 0.37749 0.0
C327 C 0.37622 0.36441 0.39564 0.0
H328 H 0.34926 0.36335 0.37316 0.0
H329 H 0.35581 0.34032 0.42179 0.0
H330 H 0.39927 0.40237 0.40725 0.0
O331 O 0.3226 0.29529 0.27283 0.0
O332 O 0.38563 0.29656 0.24066 0.0
H333 H 0.52917 0.37489 0.30813 0.0
H334 H 0.54581 0.37453 0.36105 0.0
C335 C 0.51844 0.35317 0.33694 0.0
H336 H 0.5183 0.31854 0.33171 0.0
H337 H 0.49865 0.3492 0.23014 0.0
O338 O 0.27691 0.27211 0.3636 0.0
C339 C 0.34912 0.30346 0.24099 0.0
Co340 Co 0.06353 0.33747 0.49523 0.0
Co341 Co 0.14888 0.42071 0.44268 0.0
C342 C 0.14955 0.32941 0.46564 0.0
O343 O 0.1088 0.31112 0.4847 0.0
O344 O 0.169 0.37153 0.44908 0.0
C345 C 0.01952 0.28119 0.57062 0.0
O346 O 0.06464 0.29774 0.58333 0.0
C347 C 0.24995 0.4999 0.43096 0.0
C348 C 0.2412 0.5476 0.38612 0.0
C349 C 0.2754 0.54494 0.41116 0.0
N350 N 0.20275 0.47799 0.41923 0.0
N351 N 0.198 0.50617 0.39168 0.0
C352 C 0.26961 0.47771 0.46065 0.0
H353 H 0.26329 0.44224 0.44825 0.0
H354 H 0.24925 0.46988 0.49009 0.0
H355 H 0.30941 0.50201 0.4661 0.0
C356 C 0.08358 0.42387 0.54556 0.0
N357 N 0.09625 0.40281 0.51561 0.0
N358 N 0.13116 0.43721 0.4933 0.0
C359 C 0.14216 0.48124 0.5084 0.0
C360 C 0.11675 0.47476 0.54532 0.0
C361 C 0.03183 0.39891 0.5612 0.0
H362 H 0.00686 0.37197 0.53823 0.0
H363 H 0.02873 0.37845 0.58966 0.0
H364 H 0.01907 0.4254 0.56673 0.0
O365 O 0.03158 0.33579 0.44185 0.0
O366 O 0.09289 0.39273 0.40423 0.0
H367 H 0.15049 0.55207 0.49168 0.0
H368 H 0.20163 0.54374 0.47881 0.0
C369 C 0.1613 0.52547 0.48102 0.0
H370 H 0.14576 0.51374 0.44984 0.0
H371 H 0.16486 0.49804 0.37797 0.0
O372 O 0.01176 0.29271 0.535 0.0
C373 C 0.04836 0.35883 0.40804 0.0
Co374 Co 0.73669 0.07312 0.6623 0.0
Co375 Co 0.73809 0.15644 0.60721 0.0
C376 C 0.83058 0.16173 0.63877 0.0
O377 O 0.80849 0.12214 0.65958 0.0
O378 O 0.80727 0.17808 0.61866 0.0
C379 C 0.74479 0.01971 0.7342 0.0
O380 O 0.77916 0.06213 0.7484 0.0
C381 C 0.75643 0.25623 0.59563 0.0
C382 C 0.7031 0.24539 0.54691 0.0
C383 C 0.73618 0.2799 0.57417 0.0
N384 N 0.73466 0.20944 0.58278 0.0
N385 N 0.70378 0.20354 0.55294 0.0
C386 C 0.79514 0.27694 0.62815 0.0
H387 H 0.82698 0.27372 0.61801 0.0
H388 H 0.7808 0.25503 0.65673 0.0
H389 H 0.80745 0.31604 0.63436 0.0
C390 C 0.65985 0.08518 0.70528 0.0
N391 N 0.69702 0.1003 0.67801 0.0
N392 N 0.69614 0.13296 0.65331 0.0
C393 C 0.65747 0.13809 0.66297 0.0
C394 C 0.6337 0.10872 0.69642 0.0
C395 C 0.64706 0.04598 0.73666 0.0
H396 H 0.63812 0.01121 0.72102 0.0
H397 H 0.67925 0.05659 0.75666 0.0
H398 H 0.61542 0.04018 0.75574 0.0
O399 O 0.71618 0.04463 0.60561 0.0
O400 O 0.71542 0.10349 0.56779 0.0
H401 H 0.63233 0.14832 0.60494 0.0
H402 H 0.60291 0.1586 0.648 0.0
C403 C 0.63814 0.16342 0.63648 0.0
H404 H 0.66505 0.20293 0.63524 0.0
H405 H 0.6815 0.17032 0.53803 0.0
O406 O 0.72446 0.01771 0.69985 0.0
C407 C 0.70897 0.06057 0.57172 0.0
C408 C 0.31075 0.18059 0.9187 0.0
C409 C 0.3059 0.17083 0.87599 0.0
C410 C 0.26375 0.218 0.86972 0.0
C411 C 0.279 0.23663 0.91033 0.0
N412 N 0.32934 0.24232 0.96941 0.0
N413 N 0.27956 0.18229 0.80959 0.0
C414 C 0.30543 0.21947 0.93401 0.0
C415 C 0.28254 0.18979 0.85102 0.0
N416 N 0.32124 0.15308 0.9448 0.0
N417 N 0.23004 0.22546 0.84962 0.0
H418 H 0.29217 0.16108 0.79533 0.0
H419 H 0.26761 0.19976 0.78935 0.0
H420 H 0.21292 0.24286 0.86324 0.0
H421 H 0.21496 0.20941 0.8214 0.0
H422 H 0.32071 0.15609 0.97669 0.0
H423 H 0.32502 0.12375 0.93476 0.0
H424 H 0.35252 0.23303 0.98488 0.0
H425 H 0.33199 0.27433 0.98073 0.0
C426 C 0.0844 0.30093 0.01812 0.0
C427 C 0.1245 0.30903 0.04312 0.0
C428 C 0.06887 0.26969 0.10116 0.0
C429 C 0.03032 0.26928 0.07856 0.0
N430 N 0.00173 0.28756 0.01567 0.0
N431 N 0.1562 0.30771 0.11052 0.0
C432 C 0.03782 0.28498 0.03677 0.0
C433 C 0.11707 0.29495 0.08516 0.0
N434 N 0.09104 0.30898 0.97677 0.0
N435 N 0.0592 0.24495 0.13763 0.0
H436 H 0.19239 0.32669 0.10042 0.0
H437 H 0.15299 0.30326 0.14231 0.0
H438 H 0.02387 0.22457 0.14963 0.0
H439 H 0.08516 0.2401 0.1535 0.0
H440 H 0.06239 0.29937 0.95616 0.0
H441 H 0.12503 0.32161 0.96271 0.0
H442 H 0.00703 0.30403 0.98693 0.0
H443 H 0.96723 0.27637 0.02794 0.0
C444 C 0.83732 0.10735 0.23302 0.0
C445 C 0.81726 0.12409 0.20214 0.0
C446 C 0.74323 0.04265 0.20035 0.0
C447 C 0.75948 0.02928 0.23619 0.0
N448 N 0.82223 0.04781 0.28671 0.0
N449 N 0.75111 0.10849 0.15629 0.0
C450 C 0.80685 0.06119 0.25229 0.0
C451 C 0.77031 0.09176 0.18552 0.0
N452 N 0.8854 0.13557 0.2441 0.0
N453 N 0.70232 0.00833 0.18027 0.0
H454 H 0.77118 0.1432 0.14301 0.0
H455 H 0.71476 0.08904 0.14669 0.0
H456 H 0.68267 0.97185 0.18964 0.0
H457 H 0.69077 0.01463 0.15211 0.0
H458 H 0.90349 0.12348 0.2634 0.0
H459 H 0.9088 0.16984 0.23135 0.0
H460 H 0.85328 0.07173 0.3034 0.0
H461 H 0.80249 0.01303 0.29991 0.0
C462 C 0.70258 0.74273 0.36335 0.0
C463 C 0.73129 0.75763 0.39986 0.0
C464 C 0.73399 0.83654 0.39832 0.0
C465 C 0.70151 0.82001 0.36425 0.0
N466 N 0.66406 0.76413 0.30827 0.0
N467 N 0.78747 0.82332 0.44358 0.0
C468 C 0.68907 0.77523 0.34462 0.0
C469 C 0.75132 0.8062 0.41451 0.0
N470 N 0.68659 0.69694 0.34776 0.0
N471 N 0.74572 0.87996 0.4168 0.0
H472 H 0.8014 0.80195 0.45538 0.0
H473 H 0.80692 0.85971 0.45308 0.0
H474 H 0.7356 0.90408 0.40453 0.0
H475 H 0.76345 0.89112 0.44503 0.0
H476 H 0.6611 0.68138 0.32419 0.0
H477 H 0.69823 0.67356 0.35907 0.0
H478 H 0.65607 0.73371 0.29038 0.0
H479 H 0.65439 0.78795 0.29436 0.0
C480 C 0.93325 0.67389 0.55099 0.0
C481 C 0.95865 0.71862 0.57312 0.0
C482 C 0.89185 0.73516 0.55764 0.0
C483 C 0.86805 0.69129 0.53406 0.0
N484 N 0.87465 0.62893 0.49725 0.0
N485 N 0.96622 0.79644 0.59126 0.0
C486 C 0.89194 0.66426 0.52694 0.0
C487 C 0.93955 0.75104 0.57394 0.0
N488 N 0.94663 0.63913 0.55458 0.0
N489 N 0.86784 0.75989 0.56699 0.0
H490 H -0.00052 0.80818 0.60625 0.0
H491 H 0.95684 0.82363 0.58847 0.0
H492 H 0.8337 0.7507 0.55501 0.0
H493 H 0.88048 0.78792 0.58864 0.0
H494 H 0.92655 0.60413 0.54203 0.0
H495 H 0.97409 0.64322 0.57441 0.0
H496 H 0.89292 0.6106 0.48826 0.0
H497 H 0.84474 0.6219 0.47878 0.0
C498 C 0.15083 0.89291 0.72762 0.0
C499 C 0.17015 0.87375 0.69843 0.0
C500 C 0.24713 0.9525 0.69729 0.0
C501 C 0.23156 0.96732 0.73265 0.0
N502 N 0.16774 0.95358 0.78059 0.0
N503 N 0.23608 0.88466 0.65443 0.0
C504 C 0.18286 0.93829 0.74726 0.0
C505 C 0.21797 0.90368 0.68251 0.0
N506 N 0.10196 0.86748 0.7366 0.0
N507 N 0.28953 0.98498 0.67784 0.0
H508 H 0.21459 0.84997 0.6415 0.0
H509 H 0.2727 0.90214 0.6455 0.0
H510 H 0.31104 0.02123 0.68736 0.0
H511 H 0.30083 0.97756 0.65005 0.0
H512 H 0.08459 0.88094 0.75525 0.0
H513 H 0.07775 0.8346 0.7221 0.0
H514 H 0.13495 0.93159 0.79603 0.0
H515 H 0.18919 0.98798 0.79398 0.0
C516 C 0.82257 0.71414 0.91668 0.0
C517 C 0.8113 0.69381 0.95686 0.0
C518 C 0.74648 0.71484 0.9626 0.0
C519 C 0.75852 0.73579 0.92248 0.0
N520 N 0.81779 0.76945 0.86779 0.0
N521 N 0.77014 0.68331 0.02132 0.0
C522 C 0.79986 0.74005 0.9017 0.0
C523 C 0.77582 0.69719 0.981 0.0
N524 N 0.85277 0.70621 0.89174 0.0
N525 N 0.70561 0.70914 0.98211 0.0
H526 H 0.7908 0.66968 0.03508 0.0
H527 H 0.74822 0.68906 0.04184 0.0
H528 H 0.68367 0.72225 0.9703 0.0
H529 H 0.69164 0.68883 0.00896 0.0
H530 H 0.8578 0.71541 0.86066 0.0
H531 H 0.86938 0.6864 0.90104 0.0
H532 H 0.85061 0.7776 0.85359 0.0
H533 H 0.80264 0.79002 0.85665 0.0
C534 C 0.09211 0.80419 0.141 0.0
C535 C 0.13415 0.82197 0.11578 0.0
C536 C 0.08353 0.77431 0.05792 0.0
C537 C 0.04033 0.75854 0.08188 0.0
N538 N 0.00434 0.77148 0.1429 0.0
N539 N 0.16662 0.83881 0.04671 0.0
C540 C 0.04477 0.77734 0.12254 0.0
C541 C 0.12861 0.8121 0.07307 0.0
N542 N 0.09714 0.8115 0.18245 0.0
N543 N 0.08323 0.7513 0.02222 0.0
H544 H 0.20029 0.8676 0.05645 0.0
H545 H 0.16265 0.83589 0.01485 0.0
H546 H 0.0529 0.72035 0.01056 0.0
H547 H 0.11528 0.75933 0.00662 0.0
H548 H 0.06774 0.79479 0.20279 0.0
H549 H 0.13123 0.8315 0.19665 0.0
H550 H 0.00623 0.78784 0.17115 0.0
H551 H 0.9697 0.75525 0.12946 0.0
C552 C 0.29729 0.08726 0.31349 0.0
C553 C 0.29942 0.12489 0.28825 0.0
C554 C 0.25759 0.0654 0.23311 0.0
C555 C 0.26356 0.03004 0.25519 0.0
N556 N 0.2903 0.00707 0.31668 0.0
N557 N 0.28717 0.1514 0.22182 0.0
C558 C 0.28291 0.04047 0.29585 0.0
C559 C 0.28059 0.1143 0.24758 0.0
N560 N 0.30951 0.09655 0.35406 0.0
N561 N 0.22928 0.05198 0.19847 0.0
H562 H 0.30473 0.188 0.23083 0.0
H563 H 0.27917 0.14645 0.19053 0.0
H564 H 0.21075 0.01596 0.18769 0.0
H565 H 0.21986 0.07516 0.18321 0.0
H566 H 0.30457 0.06962 0.3752 0.0
H567 H 0.32081 0.13075 0.36727 0.0
H568 H 0.30972 0.01482 0.34414 0.0
H569 H 0.27956 0.97223 0.3054 0.0
C570 C 0.15727 0.27349 0.41605 0.0
C571 C 0.17028 0.29806 0.45446 0.0
C572 C 0.23857 0.28228 0.46103 0.0
C573 C 0.22647 0.25931 0.42178 0.0
N574 N 0.16605 0.21896 0.36887 0.0
N575 N 0.21483 0.31619 0.51791 0.0
C576 C 0.18296 0.25027 0.40162 0.0
C577 C 0.20807 0.29897 0.47854 0.0
N578 N 0.12215 0.27469 0.39227 0.0
N579 N 0.28049 0.29067 0.48042 0.0
H580 H 0.19306 0.32891 0.53096 0.0
H581 H 0.23887 0.31411 0.53862 0.0
H582 H 0.30277 0.27755 0.46947 0.0
H583 H 0.29461 0.31255 0.50641 0.0
H584 H 0.11529 0.26282 0.36188 0.0
H585 H 0.10197 0.29073 0.40203 0.0
H586 H 0.13217 0.20727 0.35509 0.0
H587 H 0.18375 0.20064 0.3582 0.0
C588 C 0.90245 0.16597 0.60279 0.0
C589 C 0.88423 0.1864 0.63191 0.0
C590 C 0.96328 0.26311 0.63113 0.0
C591 C 0.97719 0.24619 0.5961 0.0
N592 N 0.9622 0.18085 0.54947 0.0
N593 N 0.89667 0.25374 0.6748 0.0
C594 C 0.94763 0.19712 0.58254 0.0
C595 C 0.91479 0.23463 0.6468 0.0
N596 N 0.8763 0.11696 0.5942 0.0
N597 N 0.99633 0.30613 0.64943 0.0
H598 H 0.86229 0.23278 0.68841 0.0
H599 H 0.91456 0.29059 0.68308 0.0
H600 H 0.03239 0.32706 0.63928 0.0
H601 H 0.98964 0.31858 0.67693 0.0
H602 H 0.88941 0.0989 0.57601 0.0
H603 H 0.84294 0.09315 0.60816 0.0
H604 H 0.93971 0.14789 0.53446 0.0
H605 H 0.99657 0.2015 0.53581 0.0
C606 C 0.69566 0.91608 0.81402 0.0
C607 C 0.69199 0.87767 0.789 0.0
C608 C 0.73579 0.93644 0.73363 0.0
C609 C 0.73222 0.97317 0.75578 0.0
N610 N 0.70774 0.9984 0.81711 0.0
N611 N 0.70364 0.84981 0.72307 0.0
C612 C 0.71261 0.96344 0.79635 0.0
C613 C 0.71111 0.88753 0.74839 0.0
N614 N 0.68271 0.90707 0.85449 0.0
N615 N 0.76383 0.94863 0.69885 0.0
H616 H 0.68581 0.81332 0.73252 0.0
H617 H 0.71152 0.85418 0.69175 0.0
H618 H 0.78359 0.98449 0.68776 0.0
H619 H 0.77176 0.92441 0.68359 0.0
H620 H 0.68862 0.93431 0.87558 0.0
H621 H 0.6696 0.87253 0.86774 0.0
H622 H 0.68847 0.99175 0.84455 0.0
H623 H 0.72065 0.03369 0.80578 0.0
C624 C 0.29077 0.66592 0.12104 0.0
C625 C 0.27953 0.68436 0.08535 0.0
C626 C 0.27047 0.61482 0.04549 0.0
C627 C 0.27978 0.59519 0.08148 0.0
N628 N 0.28403 0.59463 0.15543 0.0
N629 N 0.24315 0.66836 0.01796 0.0
C630 C 0.28499 0.61832 0.11995 0.0
C631 C 0.26404 0.65597 0.04905 0.0
N632 N 0.30974 0.6946 0.15511 0.0
N633 N 0.27125 0.5968 0.00756 0.0
H634 H 0.23695 0.69785 0.0201 0.0
H635 H 0.22723 0.6463 0.99226 0.0
H636 H 0.2776 0.56788 0.00305 0.0
H637 H 0.27014 0.61362 0.98031 0.0
H638 H 0.32392 0.68487 0.17998 0.0
H639 H 0.3148 0.72972 0.15736 0.0
H640 H 0.28328 0.608 0.18452 0.0
H641 H 0.27868 0.55916 0.15565 0.0
C642 C 0.64476 0.26218 0.20695 0.0
C643 C 0.66777 0.26048 0.24397 0.0
C644 C 0.60348 0.26236 0.28431 0.0
C645 C 0.5803 0.26385 0.24732 0.0
N646 N 0.57004 0.24912 0.17445 0.0
N647 N 0.66062 0.24236 0.3163 0.0
C648 C 0.59801 0.25824 0.20895 0.0
C649 C 0.64404 0.25475 0.28213 0.0
N650 N 0.66859 0.27088 0.17022 0.0
N651 N 0.58935 0.27163 0.32128 0.0
H652 H 0.68997 0.23588 0.31528 0.0
H653 H 0.64215 0.23345 0.34432 0.0
H654 H 0.56029 0.27804 0.32453 0.0
H655 H 0.60896 0.27677 0.34836 0.0
H656 H 0.65594 0.27861 0.14325 0.0
H657 H 0.70268 0.27374 0.16706 0.0
H658 H 0.57913 0.24029 0.1462 0.0
H659 H 0.5352 0.24525 0.1752 0.0
C660 C 0.39726 0.6531 0.38137 0.0
C661 C 0.41896 0.67284 0.4202 0.0
C662 C 0.34707 0.60656 0.45441 0.0
C663 C 0.32735 0.58476 0.41565 0.0
N664 N 0.34241 0.57969 0.34368 0.0
N665 N 0.42079 0.65865 0.49288 0.0
C666 C 0.35551 0.60545 0.37964 0.0
C667 C 0.39597 0.64618 0.45645 0.0
N668 N 0.41346 0.68062 0.34639 0.0
N669 N 0.31859 0.59238 0.4889 0.0
H670 H 0.45731 0.68649 0.49516 0.0
H671 H 0.40687 0.63776 0.51952 0.0
H672 H 0.28187 0.56534 0.48891 0.0
H673 H 0.33032 0.611 0.51676 0.0
H674 H 0.39512 0.66906 0.31839 0.0
H675 H 0.44194 0.71669 0.34591 0.0
H676 H 0.36418 0.59172 0.31737 0.0
H677 H 0.31284 0.54397 0.34165 0.0
C678 C 0.7419 0.39693 0.5424 0.0
C679 C 0.73316 0.41396 0.5801 0.0
C680 C 0.73273 0.34579 0.61644 0.0
C681 C 0.74373 0.33011 0.57897 0.0
N682 N 0.77486 0.35069 0.50986 0.0
N683 N 0.73608 0.41359 0.65409 0.0
C684 C 0.75393 0.35925 0.5432 0.0
C685 C 0.73399 0.3914 0.61751 0.0
N686 N 0.73527 0.41374 0.50565 0.0
N687 N 0.71762 0.31614 0.65026 0.0
H688 H 0.73816 0.44764 0.65584 0.0
H689 H 0.74118 0.40081 0.68216 0.0
H690 H 0.71514 0.28208 0.65121 0.0
H691 H 0.70363 0.32376 0.67644 0.0
H692 H 0.73612 0.39836 0.47755 0.0
H693 H 0.72434 0.43972 0.5032 0.0
H694 H 0.78683 0.37358 0.48419 0.0
H695 H 0.78515 0.32396 0.50996 0.0
C696 C 0.33891 0.74007 0.71788 0.0
C697 C 0.32114 0.74693 0.75605 0.0
C698 C 0.38958 0.74738 0.79171 0.0
C699 C 0.40842 0.74261 0.75341 0.0
N700 N 0.40957 0.75099 0.67978 0.0
N701 N 0.3388 0.77354 0.82648 0.0
C702 C 0.38597 0.74471 0.71639 0.0
C703 C 0.34981 0.75634 0.79199 0.0
N704 N 0.31004 0.7255 0.68363 0.0
N705 N 0.40677 0.73982 0.82786 0.0
H706 H 0.31043 0.78151 0.82723 0.0
H707 H 0.36106 0.7849 0.8525 0.0
H708 H 0.43459 0.73136 0.82948 0.0
H709 H 0.39026 0.73757 0.85614 0.0
H710 H 0.31961 0.71448 0.6567 0.0
H711 H 0.27489 0.72032 0.68285 0.0
H712 H 0.39666 0.75709 0.65219 0.0
H713 H 0.44465 0.75555 0.67783 0.0
C714 C 0.65535 0.38267 0.87509 0.0
C715 C 0.67372 0.40472 0.91383 0.0
C716 C 0.59903 0.34064 0.94642 0.0
C717 C 0.58622 0.31353 0.90938 0.0
N718 N 0.60596 0.30684 0.83867 0.0
N719 N 0.66529 0.4003 0.98796 0.0
C720 C 0.61494 0.3342 0.87348 0.0
C721 C 0.64592 0.38302 0.95 0.0
N722 N 0.6765 0.40815 0.83985 0.0
N723 N 0.56635 0.32586 0.97819 0.0
H724 H 0.7001 0.4302 0.9924 0.0
H725 H 0.64843 0.38213 0.01512 0.0
H726 H 0.53114 0.29546 0.97609 0.0
H727 H 0.57227 0.34677 0.00461 0.0
H728 H 0.66186 0.3954 0.81075 0.0
H729 H 0.70556 0.44425 0.84011 0.0
H730 H 0.62942 0.31856 0.81341 0.0
H731 H 0.57735 0.27089 0.83614 0.0
C732 C 0.36904 0.3632 0.18324 0.0
C733 C 0.33538 0.3181 0.20221 0.0
C734 C 0.27894 0.29756 0.14398 0.0
C735 C 0.31409 0.34118 0.12383 0.0
N736 N 0.39478 0.4124 0.12097 0.0
N737 N 0.25976 0.2403 0.20003 0.0
C738 C 0.35973 0.37328 0.14263 0.0
C739 C 0.29056 0.28489 0.18256 0.0
N740 N 0.40898 0.39709 0.20477 0.0
N741 N 0.23362 0.26895 0.12691 0.0
H742 H 0.26424 0.23069 0.22962 0.0
H743 H 0.23082 0.21148 0.18451 0.0
H744 H 0.22426 0.27452 0.09753 0.0
H745 H 0.20397 0.24117 0.14267 0.0
H746 H 0.43241 0.43264 0.1945 0.0
H747 H 0.41647 0.39109 0.23478 0.0
H748 H 0.43064 0.4344 0.13108 0.0
H749 H 0.3892 0.42062 0.09109 0.0
C750 C 0.01364 0.38087 0.34762 0.0
C751 C 0.01636 0.34427 0.37116 0.0
C752 C 0.96211 0.28168 0.32185 0.0
C753 C 0.96514 0.31912 0.2958 0.0
N754 N 0.99649 0.40468 0.28143 0.0
N755 N 0.9987 0.26023 0.37722 0.0
C756 C 0.99165 0.36889 0.30799 0.0
C757 C 0.9918 0.29466 0.35757 0.0
N758 N 0.03027 0.4265 0.36389 0.0
N759 N 0.92991 0.23358 0.313 0.0
H760 H 0.01973 0.2672 0.40363 0.0
H761 H 0.98683 0.22538 0.36532 0.0
H762 H 0.90745 0.22259 0.28709 0.0
H763 H 0.92208 0.20492 0.33322 0.0
H764 H 0.02519 0.45335 0.3499 0.0
H765 H 0.04486 0.43601 0.39344 0.0
H766 H 0.01981 0.44195 0.28668 0.0
H767 H 0.97981 0.39696 0.25258 0.0
C768 C 0.71845 0.00267 0.47279 0.0
C769 C 0.6687 0.97832 0.45977 0.0
C770 C 0.64504 0.00278 0.52331 0.0
C771 C 0.69495 0.02967 0.53481 0.0
N772 N 0.78025 0.06308 0.51796 0.0
N773 N 0.58681 0.96503 0.46786 0.0
C774 C 0.73201 0.03192 0.50881 0.0
C775 C 0.63251 0.98103 0.48377 0.0
N776 N 0.75248 0.99639 0.45193 0.0
N777 N 0.60963 0.99769 0.55036 0.0
H778 H 0.57691 0.95108 0.43816 0.0
H779 H 0.56035 0.97029 0.4823 0.0
H780 H 0.61771 0.01387 0.57941 0.0
H781 H 0.57234 0.97419 0.54546 0.0
H782 H 0.78751 0.00784 0.46313 0.0
H783 H 0.745 0.97679 0.42469 0.0
H784 H 0.80883 0.07085 0.49773 0.0
H785 H 0.79164 0.08421 0.54462 0.0
C786 C 0.7123 0.69602 0.64975 0.0
C787 C 0.67503 0.65715 0.62662 0.0
C788 C 0.6156 0.64145 0.68133 0.0
C789 C 0.65157 0.68372 0.70243 0.0
N790 N 0.73257 0.75579 0.70356 0.0
N791 N 0.59019 0.5961 0.61723 0.0
C792 C 0.69957 0.71219 0.68589 0.0
C793 C 0.62633 0.63071 0.64152 0.0
N794 N 0.76025 0.71636 0.638 0.0
N795 N 0.57207 0.61036 0.70014 0.0
H796 H 0.59701 0.58698 0.58812 0.0
H797 H 0.55309 0.57926 0.62444 0.0
H798 H 0.56349 0.61614 0.7298 0.0
H799 H 0.54638 0.57649 0.68808 0.0
H800 H 0.78954 0.7407 0.65624 0.0
H801 H 0.77121 0.70571 0.61161 0.0
H802 H 0.76549 0.78092 0.68968 0.0
H803 H 0.72583 0.76907 0.73054 0.0
C804 C 0.01071 0.71647 0.81557 0.0
C805 C 0.01135 0.67904 0.79203 0.0
C806 C 0.96537 0.61875 0.84568 0.0
C807 C 0.96181 0.65552 0.86811 0.0
N808 N 0.97317 0.73742 0.87054 0.0
N809 N 0.98315 0.59363 0.78044 0.0
C810 C 0.9822 0.70385 0.85197 0.0
C811 C 0.98653 0.62978 0.80574 0.0
N812 N 0.03903 0.76446 0.80405 0.0
N813 N 0.95126 0.57428 0.86349 0.0
H814 H 0.9988 0.60086 0.75117 0.0
H815 H 0.9614 0.55639 0.78686 0.0
H816 H 0.93746 0.56539 0.89331 0.0
H817 H 0.9575 0.54781 0.85034 0.0
H818 H 0.04513 0.79385 0.82266 0.0
H819 H 0.05952 0.77516 0.77703 0.0
H820 H 0.98175 0.77082 0.85717 0.0
H821 H 0.95355 0.73072 0.89778 0.0
C822 C 0.2875 0.98529 0.01544 0.0
C823 C 0.32334 0.97843 0.03602 0.0
C824 C 0.37511 0.005 0.97452 0.0
C825 C 0.34115 0.01548 0.95511 0.0
N826 N 0.2683 0.02239 0.95867 0.0
N827 N 0.40411 0.98834 0.03822 0.0
C828 C 0.29811 0.0073 0.97589 0.0
C829 C 0.368 0.99014 0.01637 0.0
N830 N 0.24245 0.96892 0.03285 0.0
N831 N 0.41338 0.00795 0.95244 0.0
H832 H 0.40018 0.97824 0.06915 0.0
H833 H 0.43934 0.00096 0.02702 0.0
H834 H 0.41909 0.01804 0.9215 0.0
H835 H 0.4368 0.99626 0.96347 0.0
H836 H 0.2127 0.96659 0.01696 0.0
H837 H 0.23342 0.9544 0.06242 0.0
H838 H 0.24047 0.02376 0.97472 0.0
H839 H 0.27321 0.03678 0.9291 0.0
C840 C 0.4503 0.53501 0.95497 0.0
C841 C 0.41323 0.5001 0.92881 0.0
C842 C 0.46275 0.54454 0.86903 0.0
C843 C 0.49368 0.58453 0.89486 0.0
N844 N 0.51584 0.61895 0.96297 0.0
N845 N 0.38287 0.47225 0.86032 0.0
C846 C 0.48767 0.57988 0.9381 0.0
C847 C 0.41938 0.50456 0.8856 0.0
N848 N 0.44995 0.5249 0.99584 0.0
N849 N 0.47527 0.54454 0.82885 0.0
H850 H 0.35068 0.44234 0.87129 0.0
H851 H 0.38304 0.47711 0.82864 0.0
H852 H 0.50757 0.57272 0.81618 0.0
H853 H 0.4564 0.51452 0.80945 0.0
H854 H 0.47831 0.54706 0.01582 0.0
H855 H 0.42369 0.4917 0.00881 0.0
H856 H 0.50918 0.61929 0.99428 0.0
H857 H 0.5437 0.65245 0.95186 0.0
C858 C 0.90994 0.49383 0.10626 0.0
C859 C 0.90608 0.49666 0.06306 0.0
C860 C 0.90268 0.41765 0.05485 0.0
C861 C 0.90663 0.4149 0.09803 0.0
N862 N 0.92993 0.45709 0.16302 0.0
N863 N 0.91493 0.46973 0.99594 0.0
C864 C 0.91555 0.45533 0.12315 0.0
C865 C 0.90768 0.46122 0.03722 0.0
N866 N 0.90568 0.52624 0.13132 0.0
N867 N 0.89191 0.37797 0.03084 0.0
H868 H 0.92018 0.50199 0.98228 0.0
H869 H 0.92075 0.44729 0.97603 0.0
H870 H 0.88855 0.34561 0.04255 0.0
H871 H 0.88294 0.37594 0.99982 0.0
H872 H 0.90259 0.52242 0.16315 0.0
H873 H 0.90146 0.55493 0.12018 0.0
H874 H 0.94115 0.48762 0.1818 0.0
H875 H 0.93548 0.42994 0.17595 0.0
C876 C 0.45063 0.85382 0.25585 0.0
C877 C 0.48561 0.89542 0.27796 0.0
C878 C 0.42923 0.92769 0.27722 0.0
C879 C 0.40066 0.89244 0.24724 0.0
N880 N 0.36533 0.80557 0.23714 0.0
N881 N 0.5075 0.972 0.3117 0.0
C882 C 0.40544 0.85013 0.24529 0.0
C883 C 0.47494 0.93268 0.28902 0.0
N884 N 0.46076 0.81819 0.24428 0.0
N885 N 0.4081 0.94733 0.30112 0.0
H886 H 0.54054 0.97607 0.3223 0.0
H887 H 0.50284 0.00198 0.31732 0.0
H888 H 0.37033 0.93326 0.3002 0.0
H889 H 0.42569 0.9703 0.32601 0.0
H890 H 0.43802 0.78945 0.2248 0.0
H891 H 0.49389 0.81984 0.25106 0.0
H892 H 0.36563 0.77269 0.23877 0.0
H893 H 0.33049 0.80132 0.23371 0.0
C894 C 0.52629 0.45506 0.37281 0.0
C895 C 0.49325 0.41493 0.39762 0.0
C896 C 0.53567 0.46191 0.45895 0.0
C897 C 0.57466 0.49629 0.43389 0.0
N898 N 0.60847 0.5242 0.36612 0.0
N899 N 0.46773 0.37889 0.46502 0.0
C900 C 0.57013 0.49299 0.39051 0.0
C901 C 0.49778 0.4182 0.441 0.0
N902 N 0.51542 0.45708 0.33248 0.0
N903 N 0.53453 0.47145 0.49973 0.0
H904 H 0.43958 0.34614 0.4531 0.0
H905 H 0.47313 0.37754 0.49647 0.0
H906 H 0.56102 0.50396 0.51343 0.0
H907 H 0.50487 0.44969 0.51876 0.0
H908 H 0.53611 0.48748 0.31381 0.0
H909 H 0.48282 0.43046 0.31901 0.0
H910 H 0.60892 0.51978 0.33443 0.0
H911 H 0.64145 0.55223 0.37779 0.0
C912 C 0.08935 0.50641 0.60701 0.0
C913 C 0.12215 0.515 0.57429 0.0
C914 C 0.15775 0.60336 0.58463 0.0
C915 C 0.11669 0.59394 0.60893 0.0
N916 N 0.04308 0.53555 0.64469 0.0
N917 N 0.2076 0.57021 0.56048 0.0
C918 C 0.08216 0.54512 0.62042 0.0
C919 C 0.16274 0.56331 0.57112 0.0
N920 N 0.0735 0.46558 0.63069 0.0
N921 N 0.19167 0.65032 0.57407 0.0
H922 H 0.21351 0.54074 0.55631 0.0
H923 H 0.23958 0.60429 0.56113 0.0
H924 H 0.18946 0.68068 0.58381 0.0
H925 H 0.21967 0.65857 0.55302 0.0
H926 H 0.05279 0.45935 0.6573 0.0
H927 H 0.08794 0.44241 0.62699 0.0
H928 H 0.01508 0.49991 0.65092 0.0
H929 H 0.03695 0.56303 0.65585 0.0
C930 C 0.59319 0.14622 0.73558 0.0
C931 C 0.58914 0.10421 0.71601 0.0
C932 C 0.49964 0.06644 0.71736 0.0
C933 C 0.50442 0.10314 0.74499 0.0
N934 N 0.55155 0.19095 0.75112 0.0
N935 N 0.53766 0.02426 0.68596 0.0
C936 C 0.55009 0.14738 0.74513 0.0
C937 C 0.54207 0.06399 0.70648 0.0
N938 N 0.63811 0.18463 0.74592 0.0
N939 N 0.45837 0.04247 0.6942 0.0
H940 H 0.56778 0.02205 0.67562 0.0
H941 H 0.50399 0.99235 0.68177 0.0
H942 H 0.43316 0.05464 0.69341 0.0
H943 H 0.4539 0.01784 0.67096 0.0
H944 H 0.64246 0.21405 0.76368 0.0
H945 H 0.67074 0.18486 0.74007 0.0
H946 H 0.58343 0.22489 0.74811 0.0
H947 H 0.51962 0.1929 0.75416 0.0
loop_
_geom_bond_atom_site_label_1
_geom_bond_atom_site_label_2
_geom_bond_distance
_geom_bond_site_symmetry_2
_ccdc_geom_bond_type
Co0 O3 1.970 . S
Co0 N17 1.989 1_554 S
Co0 O25 1.967 . S
Co0 O32 1.920 1_554 S
Co1 O4 1.966 . S
Co1 N10 2.022 . S
Co1 N18 1.993 1_554 S
Co1 O26 1.941 . S
C2 O3 1.258 . S
C2 O4 1.263 . S
O3 Co0 1.970 . S
O3 C2 1.258 . S
O4 Co1 1.966 . S
O4 C2 1.263 . S
C5 O6 1.235 . S
C5 O32 1.289 . S
O6 C5 1.235 . S
C7 C9 1.400 . S
C7 N10 1.351 . S
C7 C12 1.501 . S
C8 C9 1.387 . S
C8 N11 1.341 . S
C9 C7 1.400 . S
C9 C8 1.387 . S
N10 Co1 2.022 . S
N10 C7 1.351 . S
N10 N11 1.365 . S
N11 C8 1.341 . S
N11 N10 1.365 . S
N11 H31 0.862 . S
C12 C7 1.501 . S
C12 H13 0.961 . S
C12 H14 0.961 . S
C12 H15 0.960 . S
H13 C12 0.961 . S
H14 C12 0.961 . S
H15 C12 0.960 . S
C16 N17 1.342 . S
C16 C20 1.401 . S
C16 C21 1.499 . S
N17 Co0 1.989 1_556 S
N17 C16 1.342 . S
N17 N18 1.388 . S
N18 Co1 1.993 1_556 S
N18 N17 1.388 . S
N18 C19 1.346 . S
C19 N18 1.346 . S
C19 C20 1.396 . S
C19 C29 1.510 . S
C20 C16 1.401 . S
C20 C19 1.396 . S
C21 C16 1.499 . S
C21 H22 0.959 . S
C21 H23 0.960 . S
C21 H24 0.961 . S
H22 C21 0.959 . S
H23 C21 0.960 . S
H24 C21 0.961 . S
O25 Co0 1.967 . S
O25 C33 1.258 . S
O26 Co1 1.941 . S
O26 C33 1.266 . S
H27 C29 0.959 . S
H28 C29 0.961 . S
C29 C19 1.510 . S
C29 H27 0.959 . S
C29 H28 0.961 . S
C29 H30 0.960 1_556 S
H30 C29 0.960 1_554 S
H31 N11 0.862 . S
O32 Co0 1.920 1_556 S
O32 C5 1.289 . S
C33 O25 1.258 . S
C33 O26 1.266 . S
Co34 O37 1.970 . S
Co34 N51 1.989 . S
Co34 O59 1.967 . S
Co34 O66 1.920 . S
Co35 O38 1.966 . S
Co35 N44 2.022 . S
Co35 N52 1.993 . S
Co35 O60 1.941 . S
C36 O37 1.258 . S
C36 O38 1.263 . S
O37 Co34 1.970 . S
O37 C36 1.258 . S
O38 Co35 1.966 . S
O38 C36 1.263 . S
C39 O40 1.235 . S
C39 O66 1.289 . S
O40 C39 1.235 . S
C41 C43 1.400 . S
C41 N44 1.351 . S
C41 C46 1.501 . S
C42 C43 1.387 . S
C42 N45 1.341 . S
C43 C41 1.400 . S
C43 C42 1.387 . S
N44 Co35 2.022 . S
N44 C41 1.351 . S
N44 N45 1.365 . S
N45 C42 1.341 . S
N45 N44 1.365 . S
N45 H65 0.862 . S
C46 C41 1.501 . S
C46 H47 0.961 . S
C46 H48 0.961 . S
C46 H49 0.960 . S
H47 C46 0.961 . S
H48 C46 0.961 . S
H49 C46 0.960 . S
C50 N51 1.342 . S
C50 C54 1.401 . S
C50 C55 1.499 . S
N51 Co34 1.989 . S
N51 C50 1.342 . S
N51 N52 1.388 . S
N52 Co35 1.993 . S
N52 N51 1.388 . S
N52 C53 1.346 . S
C53 N52 1.346 . S
C53 C54 1.396 . S
C53 C63 1.510 . S
C54 C50 1.401 . S
C54 C53 1.396 . S
C55 C50 1.499 . S
C55 H56 0.959 . S
C55 H57 0.960 . S
C55 H58 0.961 . S
H56 C55 0.959 . S
H57 C55 0.960 . S
H58 C55 0.961 . S
O59 Co34 1.967 . S
O59 C67 1.258 . S
O60 Co35 1.941 . S
O60 C67 1.266 . S
H61 C63 0.959 . S
H62 C63 0.961 . S
C63 C53 1.510 . S
C63 H61 0.959 . S
C63 H62 0.961 . S
C63 H64 0.960 . S
H64 C63 0.960 . S
H65 N45 0.862 . S
O66 Co34 1.920 . S
O66 C39 1.289 . S
C67 O59 1.258 . S
C67 O60 1.266 . S
Co68 O71 1.970 . S
Co68 N85 1.989 . S
Co68 O93 1.967 . S
Co68 O100 1.920 . S
Co69 O72 1.966 . S
Co69 N78 2.022 . S
Co69 N86 1.993 . S
Co69 O94 1.941 . S
C70 O71 1.258 . S
C70 O72 1.263 . S
O71 Co68 1.970 . S
O71 C70 1.258 . S
O72 Co69 1.966 . S
O72 C70 1.263 . S
C73 O74 1.235 . S
C73 O100 1.289 . S
O74 C73 1.235 . S
C75 C77 1.400 . S
C75 N78 1.351 . S
C75 C80 1.501 . S
C76 C77 1.387 . S
C76 N79 1.341 . S
C77 C75 1.400 . S
C77 C76 1.387 . S
N78 Co69 2.022 . S
N78 C75 1.351 . S
N78 N79 1.365 . S
N79 C76 1.341 . S
N79 N78 1.365 . S
N79 H99 0.862 . S
C80 C75 1.501 . S
C80 H81 0.961 . S
C80 H82 0.961 . S
C80 H83 0.960 . S
H81 C80 0.961 . S
H82 C80 0.961 . S
H83 C80 0.960 . S
C84 N85 1.342 . S
C84 C88 1.401 . S
C84 C89 1.499 . S
N85 Co68 1.989 . S
N85 C84 1.342 . S
N85 N86 1.388 . S
N86 Co69 1.993 . S
N86 N85 1.388 . S
N86 C87 1.346 . S
C87 N86 1.346 . S
C87 C88 1.396 . S
C87 C97 1.510 . S
C88 C84 1.401 . S
C88 C87 1.396 . S
C89 C84 1.499 . S
C89 H90 0.959 . S
C89 H91 0.960 . S
C89 H92 0.961 . S
H90 C89 0.959 . S
H91 C89 0.960 . S
H92 C89 0.961 . S
O93 Co68 1.967 . S
O93 C101 1.258 . S
O94 Co69 1.941 . S
O94 C101 1.266 . S
H95 C97 0.959 . S
H96 C97 0.961 . S
C97 C87 1.510 . S
C97 H95 0.959 . S
C97 H96 0.961 . S
C97 H98 0.960 . S
H98 C97 0.960 . S
H99 N79 0.862 . S
O100 Co68 1.920 . S
O100 C73 1.289 . S
C101 O93 1.258 . S
C101 O94 1.266 . S
Co102 O105 1.970 . S
Co102 N119 1.989 . S
Co102 O127 1.967 . S
Co102 O134 1.920 . S
Co103 O106 1.966 . S
Co103 N112 2.022 . S
Co103 N120 1.993 . S
Co103 O128 1.941 . S
C104 O105 1.258 . S
C104 O106 1.263 . S
O105 Co102 1.970 . S
O105 C104 1.258 . S
O106 Co103 1.966 . S
O106 C104 1.263 . S
C107 O108 1.235 . S
C107 O134 1.289 . S
O108 C107 1.235 . S
C109 C111 1.400 . S
C109 N112 1.351 . S
C109 C114 1.501 . S
C110 C111 1.387 . S
C110 N113 1.341 . S
C111 C109 1.400 . S
C111 C110 1.387 . S
N112 Co103 2.022 . S
N112 C109 1.351 . S
N112 N113 1.365 . S
N113 C110 1.341 . S
N113 N112 1.365 . S
N113 H133 0.862 . S
C114 C109 1.501 . S
C114 H115 0.961 . S
C114 H116 0.961 . S
C114 H117 0.960 . S
H115 C114 0.961 . S
H116 C114 0.961 . S
H117 C114 0.960 . S
C118 N119 1.342 . S
C118 C122 1.401 . S
C118 C123 1.499 . S
N119 Co102 1.989 . S
N119 C118 1.342 . S
N119 N120 1.388 . S
N120 Co103 1.993 . S
N120 N119 1.388 . S
N120 C121 1.346 . S
C121 N120 1.346 . S
C121 C122 1.396 . S
C121 C131 1.510 . S
C122 C118 1.401 . S
C122 C121 1.396 . S
C123 C118 1.499 . S
C123 H124 0.959 . S
C123 H125 0.960 . S
C123 H126 0.961 . S
H124 C123 0.959 . S
H125 C123 0.960 . S
H126 C123 0.961 . S
O127 Co102 1.967 . S
O127 C135 1.258 . S
O128 Co103 1.941 . S
O128 C135 1.266 . S
H129 C131 0.959 . S
H130 C131 0.961 . S
C131 C121 1.510 . S
C131 H129 0.959 . S
C131 H130 0.961 . S
C131 H132 0.960 . S
H132 C131 0.960 . S
H133 N113 0.862 . S
O134 Co102 1.920 . S
O134 C107 1.289 . S
C135 O127 1.258 . S
C135 O128 1.266 . S
Co136 O139 1.970 . S
Co136 N153 1.989 . S
Co136 O161 1.967 . S
Co136 O168 1.920 . S
Co137 O140 1.966 . S
Co137 N146 2.022 . S
Co137 N154 1.993 . S
Co137 O162 1.941 . S
C138 O139 1.258 . S
C138 O140 1.263 . S
O139 Co136 1.970 . S
O139 C138 1.258 . S
O140 Co137 1.966 . S
O140 C138 1.263 . S
C141 O142 1.235 . S
C141 O168 1.289 . S
O142 C141 1.235 . S
C143 C145 1.400 . S
C143 N146 1.351 . S
C143 C148 1.501 . S
C144 C145 1.387 . S
C144 N147 1.341 . S
C145 C143 1.400 . S
C145 C144 1.387 . S
N146 Co137 2.022 . S
N146 C143 1.351 . S
N146 N147 1.365 . S
N147 C144 1.341 . S
N147 N146 1.365 . S
N147 H167 0.862 . S
C148 C143 1.501 . S
C148 H149 0.961 . S
C148 H150 0.961 . S
C148 H151 0.960 . S
H149 C148 0.961 . S
H150 C148 0.961 . S
H151 C148 0.960 . S
C152 N153 1.342 . S
C152 C156 1.401 . S
C152 C157 1.499 . S
N153 Co136 1.989 . S
N153 C152 1.342 . S
N153 N154 1.388 . S
N154 Co137 1.993 . S
N154 N153 1.388 . S
N154 C155 1.346 . S
C155 N154 1.346 . S
C155 C156 1.396 . S
C155 C165 1.510 . S
C156 C152 1.401 . S
C156 C155 1.396 . S
C157 C152 1.499 . S
C157 H158 0.959 . S
C157 H159 0.960 . S
C157 H160 0.961 . S
H158 C157 0.959 . S
H159 C157 0.960 . S
H160 C157 0.961 . S
O161 Co136 1.967 . S
O161 C169 1.258 . S
O162 Co137 1.941 . S
O162 C169 1.266 . S
H163 C165 0.959 . S
H164 C165 0.961 . S
C165 C155 1.510 . S
C165 H163 0.959 . S
C165 H164 0.961 . S
C165 H166 0.960 . S
H166 C165 0.960 . S
H167 N147 0.862 . S
O168 Co136 1.920 . S
O168 C141 1.289 . S
C169 O161 1.258 . S
C169 O162 1.266 . S
Co170 O173 1.970 . S
Co170 N187 1.989 . S
Co170 O195 1.967 . S
Co170 O202 1.920 . S
Co171 O174 1.966 . S
Co171 N180 2.022 . S
Co171 N188 1.993 . S
Co171 O196 1.941 . S
C172 O173 1.258 . S
C172 O174 1.263 . S
O173 Co170 1.970 . S
O173 C172 1.258 . S
O174 Co171 1.966 . S
O174 C172 1.263 . S
C175 O176 1.235 . S
C175 O202 1.289 . S
O176 C175 1.235 . S
C177 C179 1.400 . S
C177 N180 1.351 . S
C177 C182 1.501 . S
C178 C179 1.387 . S
C178 N181 1.341 . S
C179 C177 1.400 . S
C179 C178 1.387 . S
N180 Co171 2.022 . S
N180 C177 1.351 . S
N180 N181 1.365 . S
N181 C178 1.341 . S
N181 N180 1.365 . S
N181 H201 0.862 . S
C182 C177 1.501 . S
C182 H183 0.961 . S
C182 H184 0.961 . S
C182 H185 0.960 . S
H183 C182 0.961 . S
H184 C182 0.961 . S
H185 C182 0.960 . S
C186 N187 1.342 . S
C186 C190 1.401 . S
C186 C191 1.499 . S
N187 Co170 1.989 . S
N187 C186 1.342 . S
N187 N188 1.388 . S
N188 Co171 1.993 . S
N188 N187 1.388 . S
N188 C189 1.346 . S
C189 N188 1.346 . S
C189 C190 1.396 . S
C189 C199 1.510 . S
C190 C186 1.401 . S
C190 C189 1.396 . S
C191 C186 1.499 . S
C191 H192 0.959 . S
C191 H193 0.960 . S
C191 H194 0.961 . S
H192 C191 0.959 . S
H193 C191 0.960 . S
H194 C191 0.961 . S
O195 Co170 1.967 . S
O195 C203 1.258 . S
O196 Co171 1.941 . S
O196 C203 1.266 . S
H197 C199 0.959 . S
H198 C199 0.961 . S
C199 C189 1.510 . S
C199 H197 0.959 . S
C199 H198 0.961 . S
C199 H200 0.960 . S
H200 C199 0.960 . S
H201 N181 0.862 . S
O202 Co170 1.920 . S
O202 C175 1.289 . S
C203 O195 1.258 . S
C203 O196 1.266 . S
Co204 O207 1.970 . S
Co204 N221 1.989 . S
Co204 O229 1.967 . S
Co204 O236 1.920 . S
Co205 O208 1.966 . S
Co205 N214 2.022 . S
Co205 N222 1.993 . S
Co205 O230 1.941 . S
C206 O207 1.258 . S
C206 O208 1.263 . S
O207 Co204 1.970 . S
O207 C206 1.258 . S
O208 Co205 1.966 . S
O208 C206 1.263 . S
C209 O210 1.235 . S
C209 O236 1.289 . S
O210 C209 1.235 . S
C211 C213 1.400 . S
C211 N214 1.351 . S
C211 C216 1.501 . S
C212 C213 1.387 . S
C212 N215 1.341 . S
C213 C211 1.400 . S
C213 C212 1.387 . S
N214 Co205 2.022 . S
N214 C211 1.351 . S
N214 N215 1.365 . S
N215 C212 1.341 . S
N215 N214 1.365 . S
N215 H235 0.862 . S
C216 C211 1.501 . S
C216 H217 0.961 . S
C216 H218 0.961 . S
C216 H219 0.960 . S
H217 C216 0.961 . S
H218 C216 0.961 . S
H219 C216 0.960 . S
C220 N221 1.342 . S
C220 C224 1.401 . S
C220 C225 1.499 . S
N221 Co204 1.989 . S
N221 C220 1.342 . S
N221 N222 1.388 . S
N222 Co205 1.993 . S
N222 N221 1.388 . S
N222 C223 1.346 . S
C223 N222 1.346 . S
C223 C224 1.396 . S
C223 C233 1.510 . S
C224 C220 1.401 . S
C224 C223 1.396 . S
C225 C220 1.499 . S
C225 H226 0.959 . S
C225 H227 0.960 . S
C225 H228 0.961 . S
H226 C225 0.959 . S
H227 C225 0.960 . S
H228 C225 0.961 . S
O229 Co204 1.967 . S
O229 C237 1.258 . S
O230 Co205 1.941 . S
O230 C237 1.266 . S
H231 C233 0.959 . S
H232 C233 0.961 . S
C233 C223 1.510 . S
C233 H231 0.959 . S
C233 H232 0.961 . S
C233 H234 0.960 . S
H234 C233 0.960 . S
H235 N215 0.862 . S
O236 Co204 1.920 . S
O236 C209 1.289 . S
C237 O229 1.258 . S
C237 O230 1.266 . S
Co238 O241 1.970 . S
Co238 N255 1.989 1_556 S
Co238 O263 1.967 . S
Co238 O270 1.920 1_556 S
Co239 O242 1.966 . S
Co239 N248 2.022 . S
Co239 N256 1.993 . S
Co239 O264 1.941 . S
C240 O241 1.258 . S
C240 O242 1.263 . S
O241 Co238 1.970 . S
O241 C240 1.258 . S
O242 Co239 1.966 . S
O242 C240 1.263 . S
C243 O244 1.235 . S
C243 O270 1.289 . S
O244 C243 1.235 . S
C245 C247 1.400 . S
C245 N248 1.351 . S
C245 C250 1.501 . S
C246 C247 1.387 . S
C246 N249 1.341 . S
C247 C245 1.400 . S
C247 C246 1.387 . S
N248 Co239 2.022 . S
N248 C245 1.351 . S
N248 N249 1.365 . S
N249 C246 1.341 . S
N249 N248 1.365 . S
N249 H269 0.862 . S
C250 C245 1.501 . S
C250 H251 0.961 . S
C250 H252 0.961 . S
C250 H253 0.960 . S
H251 C250 0.961 . S
H252 C250 0.961 . S
H253 C250 0.960 . S
C254 N255 1.342 . S
C254 C258 1.401 . S
C254 C259 1.499 . S
N255 Co238 1.989 1_554 S
N255 C254 1.342 . S
N255 N256 1.388 1_554 S
N256 Co239 1.993 . S
N256 N255 1.388 1_556 S
N256 C257 1.346 1_556 S
C257 N256 1.346 1_554 S
C257 C258 1.396 . S
C257 C267 1.510 . S
C258 C254 1.401 . S
C258 C257 1.396 . S
C259 C254 1.499 . S
C259 H260 0.959 . S
C259 H261 0.960 . S
C259 H262 0.961 . S
H260 C259 0.959 . S
H261 C259 0.960 . S
H262 C259 0.961 . S
O263 Co238 1.967 . S
O263 C271 1.258 . S
O264 Co239 1.941 . S
O264 C271 1.266 . S
H265 C267 0.960 . S
H266 C267 0.961 . S
C267 C257 1.510 . S
C267 H265 0.960 . S
C267 H266 0.961 . S
C267 H268 0.960 1_554 S
H268 C267 0.960 1_556 S
H269 N249 0.862 . S
O270 Co238 1.920 1_554 S
O270 C243 1.289 . S
C271 O263 1.258 . S
C271 O264 1.266 . S
Co272 O275 1.970 . S
Co272 N289 1.989 . S
Co272 O297 1.967 . S
Co272 O304 1.920 . S
Co273 O276 1.966 . S
Co273 N282 2.022 . S
Co273 N290 1.993 . S
Co273 O298 1.941 . S
C274 O275 1.258 . S
C274 O276 1.263 . S
O275 Co272 1.970 . S
O275 C274 1.258 . S
O276 Co273 1.966 . S
O276 C274 1.263 . S
C277 O278 1.235 . S
C277 O304 1.289 . S
O278 C277 1.235 . S
C279 C281 1.400 . S
C279 N282 1.351 . S
C279 C284 1.501 . S
C280 C281 1.387 . S
C280 N283 1.341 . S
C281 C279 1.400 . S
C281 C280 1.387 . S
N282 Co273 2.022 . S
N282 C279 1.351 . S
N282 N283 1.365 . S
N283 C280 1.341 . S
N283 N282 1.365 . S
N283 H303 0.862 . S
C284 C279 1.501 . S
C284 H285 0.961 . S
C284 H286 0.961 . S
C284 H287 0.960 . S
H285 C284 0.961 . S
H286 C284 0.961 . S
H287 C284 0.960 . S
C288 N289 1.342 . S
C288 C292 1.401 . S
C288 C293 1.499 . S
N289 Co272 1.989 . S
N289 C288 1.342 . S
N289 N290 1.388 . S
N290 Co273 1.993 . S
N290 N289 1.388 . S
N290 C291 1.346 . S
C291 N290 1.346 . S
C291 C292 1.396 . S
C291 C301 1.510 . S
C292 C288 1.401 . S
C292 C291 1.396 . S
C293 C288 1.499 . S
C293 H294 0.959 . S
C293 H295 0.960 . S
C293 H296 0.961 . S
H294 C293 0.959 . S
H295 C293 0.960 . S
H296 C293 0.961 . S
O297 Co272 1.967 . S
O297 C305 1.258 . S
O298 Co273 1.941 . S
O298 C305 1.266 . S
H299 C301 0.959 . S
H300 C301 0.961 . S
C301 C291 1.510 . S
C301 H299 0.959 . S
C301 H300 0.961 . S
C301 H302 0.960 . S
H302 C301 0.960 . S
H303 N283 0.862 . S
O304 Co272 1.920 . S
O304 C277 1.289 . S
C305 O297 1.258 . S
C305 O298 1.266 . S
Co306 O309 1.970 . S
Co306 N323 1.989 . S
Co306 O331 1.967 . S
Co306 O338 1.920 . S
Co307 O310 1.966 . S
Co307 N316 2.022 . S
Co307 N324 1.993 . S
Co307 O332 1.941 . S
C308 O309 1.258 . S
C308 O310 1.263 . S
O309 Co306 1.970 . S
O309 C308 1.258 . S
O310 Co307 1.966 . S
O310 C308 1.263 . S
C311 O312 1.235 . S
C311 O338 1.289 . S
O312 C311 1.235 . S
C313 C315 1.400 . S
C313 N316 1.351 . S
C313 C318 1.501 . S
C314 C315 1.387 . S
C314 N317 1.341 . S
C315 C313 1.400 . S
C315 C314 1.387 . S
N316 Co307 2.022 . S
N316 C313 1.351 . S
N316 N317 1.365 . S
N317 C314 1.341 . S
N317 N316 1.365 . S
N317 H337 0.862 . S
C318 C313 1.501 . S
C318 H319 0.961 . S
C318 H320 0.961 . S
C318 H321 0.960 . S
H319 C318 0.961 . S
H320 C318 0.961 . S
H321 C318 0.960 . S
C322 N323 1.342 . S
C322 C326 1.401 . S
C322 C327 1.499 . S
N323 Co306 1.989 . S
N323 C322 1.342 . S
N323 N324 1.388 . S
N324 Co307 1.993 . S
N324 N323 1.388 . S
N324 C325 1.346 . S
C325 N324 1.346 . S
C325 C326 1.396 . S
C325 C335 1.510 . S
C326 C322 1.401 . S
C326 C325 1.396 . S
C327 C322 1.499 . S
C327 H328 0.959 . S
C327 H329 0.960 . S
C327 H330 0.961 . S
H328 C327 0.959 . S
H329 C327 0.960 . S
H330 C327 0.961 . S
O331 Co306 1.967 . S
O331 C339 1.258 . S
O332 Co307 1.941 . S
O332 C339 1.266 . S
H333 C335 0.959 . S
H334 C335 0.961 . S
C335 C325 1.510 . S
C335 H333 0.959 . S
C335 H334 0.961 . S
C335 H336 0.960 . S
H336 C335 0.960 . S
H337 N317 0.862 . S
O338 Co306 1.920 . S
O338 C311 1.289 . S
C339 O331 1.258 . S
C339 O332 1.266 . S
Co340 O343 1.970 . S
Co340 N357 1.989 . S
Co340 O365 1.967 . S
Co340 O372 1.920 . S
Co341 O344 1.966 . S
Co341 N350 2.022 . S
Co341 N358 1.993 . S
Co341 O366 1.941 . S
C342 O343 1.258 . S
C342 O344 1.263 . S
O343 Co340 1.970 . S
O343 C342 1.258 . S
O344 Co341 1.966 . S
O344 C342 1.263 . S
C345 O346 1.235 . S
C345 O372 1.289 . S
O346 C345 1.235 . S
C347 C349 1.400 . S
C347 N350 1.351 . S
C347 C352 1.501 . S
C348 C349 1.387 . S
C348 N351 1.341 . S
C349 C347 1.400 . S
C349 C348 1.387 . S
N350 Co341 2.022 . S
N350 C347 1.351 . S
N350 N351 1.365 . S
N351 C348 1.341 . S
N351 N350 1.365 . S
N351 H371 0.862 . S
C352 C347 1.501 . S
C352 H353 0.961 . S
C352 H354 0.961 . S
C352 H355 0.960 . S
H353 C352 0.961 . S
H354 C352 0.961 . S
H355 C352 0.960 . S
C356 N357 1.342 . S
C356 C360 1.401 . S
C356 C361 1.499 . S
N357 Co340 1.989 . S
N357 C356 1.342 . S
N357 N358 1.388 . S
N358 Co341 1.993 . S
N358 N357 1.388 . S
N358 C359 1.346 . S
C359 N358 1.346 . S
C359 C360 1.396 . S
C359 C369 1.510 . S
C360 C356 1.401 . S
C360 C359 1.396 . S
C361 C356 1.499 . S
C361 H362 0.959 . S
C361 H363 0.960 . S
C361 H364 0.961 . S
H362 C361 0.959 . S
H363 C361 0.960 . S
H364 C361 0.961 . S
O365 Co340 1.967 . S
O365 C373 1.258 . S
O366 Co341 1.941 . S
O366 C373 1.266 . S
H367 C369 0.959 . S
H368 C369 0.961 . S
C369 C359 1.510 . S
C369 H367 0.959 . S
C369 H368 0.961 . S
C369 H370 0.960 . S
H370 C369 0.960 . S
H371 N351 0.862 . S
O372 Co340 1.920 . S
O372 C345 1.289 . S
C373 O365 1.258 . S
C373 O366 1.266 . S
Co374 O377 1.970 . S
Co374 N391 1.989 . S
Co374 O399 1.967 . S
Co374 O406 1.920 . S
Co375 O378 1.966 . S
Co375 N384 2.022 . S
Co375 N392 1.993 . S
Co375 O400 1.941 . S
C376 O377 1.258 . S
C376 O378 1.263 . S
O377 Co374 1.970 . S
O377 C376 1.258 . S
O378 Co375 1.966 . S
O378 C376 1.263 . S
C379 O380 1.235 . S
C379 O406 1.289 . S
O380 C379 1.235 . S
C381 C383 1.400 . S
C381 N384 1.351 . S
C381 C386 1.501 . S
C382 C383 1.387 . S
C382 N385 1.341 . S
C383 C381 1.400 . S
C383 C382 1.387 . S
N384 Co375 2.022 . S
N384 C381 1.351 . S
N384 N385 1.365 . S
N385 C382 1.341 . S
N385 N384 1.365 . S
N385 H405 0.862 . S
C386 C381 1.501 . S
C386 H387 0.961 . S
C386 H388 0.961 . S
C386 H389 0.960 . S
H387 C386 0.961 . S
H388 C386 0.961 . S
H389 C386 0.960 . S
C390 N391 1.342 . S
C390 C394 1.401 . S
C390 C395 1.499 . S
N391 Co374 1.989 . S
N391 C390 1.342 . S
N391 N392 1.388 . S
N392 Co375 1.993 . S
N392 N391 1.388 . S
N392 C393 1.346 . S
C393 N392 1.346 . S
C393 C394 1.396 . S
C393 C403 1.510 . S
C394 C390 1.401 . S
C394 C393 1.396 . S
C395 C390 1.499 . S
C395 H396 0.959 . S
C395 H397 0.960 . S
C395 H398 0.961 . S
H396 C395 0.959 . S
H397 C395 0.960 . S
H398 C395 0.961 . S
O399 Co374 1.967 . S
O399 C407 1.258 . S
O400 Co375 1.941 . S
O400 C407 1.266 . S
H401 C403 0.959 . S
H402 C403 0.961 . S
C403 C393 1.510 . S
C403 H401 0.959 . S
C403 H402 0.961 . S
C403 H404 0.960 . S
H404 C403 0.960 . S
H405 N385 0.862 . S
O406 Co374 1.920 . S
O406 C379 1.289 . S
C407 O399 1.258 . S
C407 O400 1.266 . S
C408 C409 1.363 . S
C408 C414 1.379 . S
C408 N416 1.356 . S
C409 C408 1.363 . S
C409 C415 1.363 . S
C410 C411 1.363 . S
C410 C415 1.379 . S
C410 N417 1.356 . S
C411 C410 1.363 . S
C411 C414 1.363 . S
N412 C414 1.356 . S
N412 H424 0.984 . S
N412 H425 0.985 . S
N413 C415 1.356 . S
N413 H418 0.984 . S
N413 H419 0.985 . S
C414 C408 1.379 . S
C414 C411 1.363 . S
C414 N412 1.356 . S
C415 C409 1.363 . S
C415 C410 1.379 . S
C415 N413 1.356 . S
N416 C408 1.356 . S
N416 H422 0.984 . S
N416 H423 0.984 . S
N417 C410 1.356 . S
N417 H420 0.984 . S
N417 H421 0.985 . S
H418 N413 0.984 . S
H419 N413 0.985 . S
H420 N417 0.984 . S
H421 N417 0.985 . S
H422 N416 0.984 . S
H423 N416 0.984 . S
H424 N412 0.984 . S
H425 N412 0.985 . S
C426 C427 1.363 . S
C426 C432 1.379 . S
C426 N434 1.356 1_554 S
C427 C426 1.363 . S
C427 C433 1.363 . S
C428 C429 1.363 . S
C428 C433 1.379 . S
C428 N435 1.356 . S
C429 C428 1.363 . S
C429 C432 1.363 . S
N430 C432 1.356 1_655 S
N430 H442 0.984 . S
N430 H443 0.985 . S
N431 C433 1.356 . S
N431 H436 0.984 . S
N431 H437 0.985 . S
C432 C426 1.379 . S
C432 C429 1.363 . S
C432 N430 1.356 1_455 S
C433 C427 1.363 . S
C433 C428 1.379 . S
C433 N431 1.356 . S
N434 C426 1.356 1_556 S
N434 H440 0.984 . S
N434 H441 0.984 . S
N435 C428 1.356 . S
N435 H438 0.984 . S
N435 H439 0.985 . S
H436 N431 0.984 . S
H437 N431 0.985 . S
H438 N435 0.984 . S
H439 N435 0.985 . S
H440 N434 0.984 . S
H441 N434 0.984 . S
H442 N430 0.984 . S
H443 N430 0.985 . S
C444 C445 1.363 . S
C444 C450 1.379 . S
C444 N452 1.356 . S
C445 C444 1.363 . S
C445 C451 1.363 . S
C446 C447 1.363 . S
C446 C451 1.379 . S
C446 N453 1.356 . S
C447 C446 1.363 . S
C447 C450 1.363 . S
N448 C450 1.356 . S
N448 H460 0.984 . S
N448 H461 0.985 . S
N449 C451 1.356 . S
N449 H454 0.984 . S
N449 H455 0.985 . S
C450 C444 1.379 . S
C450 C447 1.363 . S
C450 N448 1.356 . S
C451 C445 1.363 . S
C451 C446 1.379 . S
C451 N449 1.356 . S
N452 C444 1.356 . S
N452 H458 0.984 . S
N452 H459 0.984 . S
N453 C446 1.356 . S
N453 H456 0.984 1_545 S
N453 H457 0.985 . S
H454 N449 0.984 . S
H455 N449 0.985 . S
H456 N453 0.984 1_565 S
H457 N453 0.985 . S
H458 N452 0.984 . S
H459 N452 0.984 . S
H460 N448 0.984 . S
H461 N448 0.985 . S
C462 C463 1.363 . S
C462 C468 1.379 . S
C462 N470 1.356 . S
C463 C462 1.363 . S
C463 C469 1.363 . S
C464 C465 1.363 . S
C464 C469 1.379 . S
C464 N471 1.356 . S
C465 C464 1.363 . S
C465 C468 1.363 . S
N466 C468 1.356 . S
N466 H478 0.984 . S
N466 H479 0.985 . S
N467 C469 1.356 . S
N467 H472 0.984 . S
N467 H473 0.985 . S
C468 C462 1.379 . S
C468 C465 1.363 . S
C468 N466 1.356 . S
C469 C463 1.363 . S
C469 C464 1.379 . S
C469 N467 1.356 . S
N470 C462 1.356 . S
N470 H476 0.984 . S
N470 H477 0.984 . S
N471 C464 1.356 . S
N471 H474 0.984 . S
N471 H475 0.985 . S
H472 N467 0.984 . S
H473 N467 0.985 . S
H474 N471 0.984 . S
H475 N471 0.985 . S
H476 N470 0.984 . S
H477 N470 0.984 . S
H478 N466 0.984 . S
H479 N466 0.985 . S
C480 C481 1.363 . S
C480 C486 1.379 . S
C480 N488 1.356 . S
C481 C480 1.363 . S
C481 C487 1.363 . S
C482 C483 1.363 . S
C482 C487 1.379 . S
C482 N489 1.356 . S
C483 C482 1.363 . S
C483 C486 1.363 . S
N484 C486 1.356 . S
N484 H496 0.984 . S
N484 H497 0.985 . S
N485 C487 1.356 . S
N485 H490 0.984 1_655 S
N485 H491 0.985 . S
C486 C480 1.379 . S
C486 C483 1.363 . S
C486 N484 1.356 . S
C487 C481 1.363 . S
C487 C482 1.379 . S
C487 N485 1.356 . S
N488 C480 1.356 . S
N488 H494 0.984 . S
N488 H495 0.984 . S
N489 C482 1.356 . S
N489 H492 0.984 . S
N489 H493 0.985 . S
H490 N485 0.984 1_455 S
H491 N485 0.985 . S
H492 N489 0.984 . S
H493 N489 0.985 . S
H494 N488 0.984 . S
H495 N488 0.984 . S
H496 N484 0.984 . S
H497 N484 0.985 . S
C498 C499 1.363 . S
C498 C504 1.379 . S
C498 N506 1.356 . S
C499 C498 1.363 . S
C499 C505 1.363 . S
C500 C501 1.363 . S
C500 C505 1.379 . S
C500 N507 1.356 . S
C501 C500 1.363 . S
C501 C504 1.363 . S
N502 C504 1.356 . S
N502 H514 0.984 . S
N502 H515 0.985 . S
N503 C505 1.356 . S
N503 H508 0.984 . S
N503 H509 0.985 . S
C504 C498 1.379 . S
C504 C501 1.363 . S
C504 N502 1.356 . S
C505 C499 1.363 . S
C505 C500 1.379 . S
C505 N503 1.356 . S
N506 C498 1.356 . S
N506 H512 0.984 . S
N506 H513 0.984 . S
N507 C500 1.356 . S
N507 H510 0.984 1_565 S
N507 H511 0.988 1_565 S
H508 N503 0.984 . S
H509 N503 0.985 . S
H510 N507 0.984 1_545 S
H511 N507 0.988 1_545 S
H512 N506 0.984 . S
H513 N506 0.984 . S
H514 N502 0.984 . S
H515 N502 0.985 . S
C516 C517 1.363 . S
C516 C522 1.379 . S
C516 N524 1.356 . S
C517 C516 1.363 . S
C517 C523 1.363 . S
C518 C519 1.363 . S
C518 C523 1.379 . S
C518 N525 1.356 . S
C519 C518 1.363 . S
C519 C522 1.363 . S
N520 C522 1.356 . S
N520 H532 0.984 . S
N520 H533 0.985 . S
N521 C523 1.332 1_554 S
N521 H526 0.992 . S
N521 H527 1.002 . S
C522 C516 1.379 . S
C522 C519 1.363 . S
C522 N520 1.356 . S
C523 C517 1.363 . S
C523 C518 1.379 . S
C523 N521 1.332 1_556 S
N524 C516 1.356 . S
N524 H530 0.984 . S
N524 H531 0.984 . S
N525 C518 1.356 . S
N525 H528 0.984 . S
N525 H529 0.985 . S
H526 N521 0.992 . S
H527 N521 1.002 . S
H528 N525 0.984 . S
H529 N525 0.985 . S
H530 N524 0.984 . S
H531 N524 0.984 . S
H532 N520 0.984 . S
H533 N520 0.985 . S
C534 C535 1.363 . S
C534 C540 1.379 . S
C534 N542 1.356 . S
C535 C534 1.363 . S
C535 C541 1.363 . S
C536 C537 1.363 . S
C536 C541 1.379 . S
C536 N543 1.356 . S
C537 C536 1.363 . S
C537 C540 1.363 . S
N538 C540 1.356 1_655 S
N538 H550 0.984 . S
N538 H551 0.985 . S
N539 C541 1.356 . S
N539 H544 0.984 . S
N539 H545 0.985 . S
C540 C534 1.379 . S
C540 C537 1.363 . S
C540 N538 1.356 1_455 S
C541 C535 1.363 . S
C541 C536 1.379 . S
C541 N539 1.356 . S
N542 C534 1.356 . S
N542 H548 0.984 . S
N542 H549 0.984 . S
N543 C536 1.356 . S
N543 H546 0.984 . S
N543 H547 0.985 . S
H544 N539 0.984 . S
H545 N539 0.985 . S
H546 N543 0.984 . S
H547 N543 0.985 . S
H548 N542 0.984 . S
H549 N542 0.984 . S
H550 N538 0.984 . S
H551 N538 0.985 . S
C552 C553 1.363 . S
C552 C558 1.379 . S
C552 N560 1.356 . S
C553 C552 1.363 . S
C553 C559 1.363 . S
C554 C555 1.363 . S
C554 C559 1.379 . S
C554 N561 1.356 . S
C555 C554 1.363 . S
C555 C558 1.363 . S
N556 C558 1.356 1_565 S
N556 H568 0.984 . S
N556 H569 0.985 . S
N557 C559 1.356 . S
N557 H562 0.984 . S
N557 H563 0.985 . S
C558 C552 1.379 . S
C558 C555 1.363 . S
C558 N556 1.356 1_545 S
C559 C553 1.363 . S
C559 C554 1.379 . S
C559 N557 1.356 . S
N560 C552 1.356 . S
N560 H566 0.984 . S
N560 H567 0.984 . S
N561 C554 1.356 . S
N561 H564 0.984 . S
N561 H565 0.985 . S
H562 N557 0.984 . S
H563 N557 0.985 . S
H564 N561 0.984 . S
H565 N561 0.985 . S
H566 N560 0.984 . S
H567 N560 0.984 . S
H568 N556 0.984 . S
H569 N556 0.985 . S
C570 C571 1.363 . S
C570 C576 1.379 . S
C570 N578 1.356 . S
C571 C570 1.363 . S
C571 C577 1.363 . S
C572 C573 1.363 . S
C572 C577 1.379 . S
C572 N579 1.356 . S
C573 C572 1.363 . S
C573 C576 1.363 . S
N574 C576 1.356 . S
N574 H586 0.984 . S
N574 H587 0.985 . S
N575 C577 1.356 . S
N575 H580 0.984 . S
N575 H581 0.985 . S
C576 C570 1.379 . S
C576 C573 1.363 . S
C576 N574 1.356 . S
C577 C571 1.363 . S
C577 C572 1.379 . S
C577 N575 1.356 . S
N578 C570 1.356 . S
N578 H584 0.984 . S
N578 H585 0.984 . S
N579 C572 1.356 . S
N579 H582 0.984 . S
N579 H583 0.985 . S
H580 N575 0.984 . S
H581 N575 0.985 . S
H582 N579 0.984 . S
H583 N579 0.985 . S
H584 N578 0.984 . S
H585 N578 0.984 . S
H586 N574 0.984 . S
H587 N574 0.985 . S
C588 C589 1.363 . S
C588 C594 1.379 . S
C588 N596 1.356 . S
C589 C588 1.363 . S
C589 C595 1.363 . S
C590 C591 1.363 . S
C590 C595 1.379 . S
C590 N597 1.356 . S
C591 C590 1.363 . S
C591 C594 1.363 . S
N592 C594 1.356 . S
N592 H604 0.984 . S
N592 H605 0.985 . S
N593 C595 1.356 . S
N593 H598 0.984 . S
N593 H599 0.985 . S
C594 C588 1.379 . S
C594 C591 1.363 . S
C594 N592 1.356 . S
C595 C589 1.363 . S
C595 C590 1.379 . S
C595 N593 1.356 . S
N596 C588 1.356 . S
N596 H602 0.984 . S
N596 H603 0.984 . S
N597 C590 1.356 . S
N597 H600 0.984 1_655 S
N597 H601 0.985 . S
H598 N593 0.984 . S
H599 N593 0.985 . S
H600 N597 0.984 1_455 S
H601 N597 0.985 . S
H602 N596 0.984 . S
H603 N596 0.984 . S
H604 N592 0.984 . S
H605 N592 0.985 . S
C606 C607 1.363 . S
C606 C612 1.379 . S
C606 N614 1.356 . S
C607 C606 1.363 . S
C607 C613 1.363 . S
C608 C609 1.363 . S
C608 C613 1.379 . S
C608 N615 1.356 . S
C609 C608 1.363 . S
C609 C612 1.363 . S
N610 C612 1.356 1_545 S
N610 H622 0.984 . S
N610 H623 0.985 . S
N611 C613 1.356 . S
N611 H616 0.984 . S
N611 H617 0.985 . S
C612 C606 1.379 . S
C612 C609 1.363 . S
C612 N610 1.356 1_565 S
C613 C607 1.363 . S
C613 C608 1.379 . S
C613 N611 1.356 . S
N614 C606 1.356 . S
N614 H620 0.984 . S
N614 H621 0.984 . S
N615 C608 1.356 . S
N615 H618 0.984 . S
N615 H619 0.985 . S
H616 N611 0.984 . S
H617 N611 0.985 . S
H618 N615 0.984 . S
H619 N615 0.985 . S
H620 N614 0.984 . S
H621 N614 0.984 . S
H622 N610 0.984 . S
H623 N610 0.985 . S
C624 C625 1.363 . S
C624 C630 1.379 . S
C624 N632 1.356 . S
C625 C624 1.363 . S
C625 C631 1.363 . S
C626 C627 1.363 . S
C626 C631 1.379 . S
C626 N633 1.356 . S
C627 C626 1.363 . S
C627 C630 1.363 . S
N628 C630 1.356 . S
N628 H640 0.984 . S
N628 H641 0.985 . S
N629 C631 1.356 . S
N629 H634 0.984 . S
N629 H635 0.985 . S
C630 C624 1.379 . S
C630 C627 1.363 . S
C630 N628 1.356 . S
C631 C625 1.363 . S
C631 C626 1.379 . S
C631 N629 1.356 . S
N632 C624 1.356 . S
N632 H638 0.984 . S
N632 H639 0.984 . S
N633 C626 1.356 . S
N633 H636 0.984 . S
N633 H637 0.985 1_554 S
H634 N629 0.984 . S
H635 N629 0.985 . S
H636 N633 0.984 . S
H637 N633 0.985 1_556 S
H638 N632 0.984 . S
H639 N632 0.984 . S
H640 N628 0.984 . S
H641 N628 0.985 . S
C642 C643 1.363 . S
C642 C648 1.379 . S
C642 N650 1.356 . S
C643 C642 1.363 . S
C643 C649 1.363 . S
C644 C645 1.363 . S
C644 C649 1.379 . S
C644 N651 1.356 . S
C645 C644 1.363 . S
C645 C648 1.363 . S
N646 C648 1.356 . S
N646 H658 0.984 . S
N646 H659 0.985 . S
N647 C649 1.356 . S
N647 H652 0.984 . S
N647 H653 0.985 . S
C648 C642 1.379 . S
C648 C645 1.363 . S
C648 N646 1.356 . S
C649 C643 1.363 . S
C649 C644 1.379 . S
C649 N647 1.356 . S
N650 C642 1.356 . S
N650 H656 0.984 . S
N650 H657 0.984 . S
N651 C644 1.356 . S
N651 H654 0.984 . S
N651 H655 0.985 . S
H652 N647 0.984 . S
H653 N647 0.985 . S
H654 N651 0.984 . S
H655 N651 0.985 . S
H656 N650 0.984 . S
H657 N650 0.984 . S
H658 N646 0.984 . S
H659 N646 0.985 . S
C660 C661 1.363 . S
C660 C666 1.379 . S
C660 N668 1.356 . S
C661 C660 1.363 . S
C661 C667 1.363 . S
C662 C663 1.363 . S
C662 C667 1.379 . S
C662 N669 1.356 . S
C663 C662 1.363 . S
C663 C666 1.363 . S
N664 C666 1.356 . S
N664 H676 0.984 . S
N664 H677 0.985 . S
N665 C667 1.356 . S
N665 H670 0.984 . S
N665 H671 0.985 . S
C666 C660 1.379 . S
C666 C663 1.363 . S
C666 N664 1.356 . S
C667 C661 1.363 . S
C667 C662 1.379 . S
C667 N665 1.356 . S
N668 C660 1.356 . S
N668 H674 0.984 . S
N668 H675 0.984 . S
N669 C662 1.356 . S
N669 H672 0.984 . S
N669 H673 0.985 . S
H670 N665 0.984 . S
H671 N665 0.985 . S
H672 N669 0.984 . S
H673 N669 0.985 . S
H674 N668 0.984 . S
H675 N668 0.984 . S
H676 N664 0.984 . S
H677 N664 0.985 . S
C678 C679 1.363 . S
C678 C684 1.379 . S
C678 N686 1.356 . S
C679 C678 1.363 . S
C679 C685 1.363 . S
C680 C681 1.363 . S
C680 C685 1.379 . S
C680 N687 1.356 . S
C681 C680 1.363 . S
C681 C684 1.363 . S
N682 C684 1.356 . S
N682 H694 0.984 . S
N682 H695 0.985 . S
N683 C685 1.356 . S
N683 H688 0.984 . S
N683 H689 0.985 . S
C684 C678 1.379 . S
C684 C681 1.363 . S
C684 N682 1.356 . S
C685 C679 1.363 . S
C685 C680 1.379 . S
C685 N683 1.356 . S
N686 C678 1.356 . S
N686 H692 0.984 . S
N686 H693 0.984 . S
N687 C680 1.356 . S
N687 H690 0.984 . S
N687 H691 0.985 . S
H688 N683 0.984 . S
H689 N683 0.985 . S
H690 N687 0.984 . S
H691 N687 0.985 . S
H692 N686 0.984 . S
H693 N686 0.984 . S
H694 N682 0.984 . S
H695 N682 0.985 . S
C696 C697 1.363 . S
C696 C702 1.379 . S
C696 N704 1.356 . S
C697 C696 1.363 . S
C697 C703 1.363 . S
C698 C699 1.363 . S
C698 C703 1.379 . S
C698 N705 1.356 . S
C699 C698 1.363 . S
C699 C702 1.363 . S
N700 C702 1.356 . S
N700 H712 0.984 . S
N700 H713 0.985 . S
N701 C703 1.356 . S
N701 H706 0.984 . S
N701 H707 0.985 . S
C702 C696 1.379 . S
C702 C699 1.363 . S
C702 N700 1.356 . S
C703 C697 1.363 . S
C703 C698 1.379 . S
C703 N701 1.356 . S
N704 C696 1.356 . S
N704 H710 0.984 . S
N704 H711 0.984 . S
N705 C698 1.356 . S
N705 H708 0.984 . S
N705 H709 0.985 . S
H706 N701 0.984 . S
H707 N701 0.985 . S
H708 N705 0.984 . S
H709 N705 0.985 . S
H710 N704 0.984 . S
H711 N704 0.984 . S
H712 N700 0.984 . S
H713 N700 0.985 . S
C714 C715 1.363 . S
C714 C720 1.379 . S
C714 N722 1.356 . S
C715 C714 1.363 . S
C715 C721 1.363 . S
C716 C717 1.363 . S
C716 C721 1.379 . S
C716 N723 1.356 . S
C717 C716 1.363 . S
C717 C720 1.363 . S
N718 C720 1.356 . S
N718 H730 0.984 . S
N718 H731 0.985 . S
N719 C721 1.356 . S
N719 H724 0.984 . S
N719 H725 0.985 . S
C720 C714 1.379 . S
C720 C717 1.363 . S
C720 N718 1.356 . S
C721 C715 1.363 . S
C721 C716 1.379 . S
C721 N719 1.356 . S
N722 C714 1.356 . S
N722 H728 0.984 . S
N722 H729 0.984 . S
N723 C716 1.356 . S
N723 H726 0.984 . S
N723 H727 0.985 . S
H724 N719 0.984 . S
H725 N719 0.985 . S
H726 N723 0.984 . S
H727 N723 0.985 . S
H728 N722 0.984 . S
H729 N722 0.984 . S
H730 N718 0.984 . S
H731 N718 0.985 . S
C732 C733 1.363 . S
C732 C738 1.379 . S
C732 N740 1.356 . S
C733 C732 1.363 . S
C733 C739 1.363 . S
C734 C735 1.363 . S
C734 C739 1.379 . S
C734 N741 1.356 . S
C735 C734 1.363 . S
C735 C738 1.363 . S
N736 C738 1.356 . S
N736 H748 0.984 . S
N736 H749 0.985 . S
N737 C739 1.356 . S
N737 H742 0.984 . S
N737 H743 0.985 . S
C738 C732 1.379 . S
C738 C735 1.363 . S
C738 N736 1.356 . S
C739 C733 1.363 . S
C739 C734 1.379 . S
C739 N737 1.356 . S
N740 C732 1.356 . S
N740 H746 0.984 . S
N740 H747 0.984 . S
N741 C734 1.356 . S
N741 H744 0.984 . S
N741 H745 0.985 . S
H742 N737 0.984 . S
H743 N737 0.985 . S
H744 N741 0.984 . S
H745 N741 0.985 . S
H746 N740 0.984 . S
H747 N740 0.984 . S
H748 N736 0.984 . S
H749 N736 0.985 . S
C750 C751 1.363 . S
C750 C756 1.379 1_455 S
C750 N758 1.356 . S
C751 C750 1.363 . S
C751 C757 1.363 . S
C752 C753 1.363 . S
C752 C757 1.379 1_655 S
C752 N759 1.356 . S
C753 C752 1.363 . S
C753 C756 1.363 . S
N754 C756 1.356 . S
N754 H766 0.984 . S
N754 H767 0.985 . S
N755 C757 1.356 . S
N755 H760 0.984 . S
N755 H761 0.985 . S
C756 C750 1.379 1_655 S
C756 C753 1.363 . S
C756 N754 1.356 . S
C757 C751 1.363 . S
C757 C752 1.379 1_455 S
C757 N755 1.356 . S
N758 C750 1.356 . S
N758 H764 0.984 . S
N758 H765 0.984 . S
N759 C752 1.356 . S
N759 H762 0.984 . S
N759 H763 0.985 . S
H760 N755 0.984 . S
H761 N755 0.985 . S
H762 N759 0.984 . S
H763 N759 0.985 . S
H764 N758 0.984 . S
H765 N758 0.984 . S
H766 N754 0.984 . S
H767 N754 0.985 . S
C768 C769 1.363 1_545 S
C768 C774 1.379 . S
C768 N776 1.356 1_545 S
C769 C768 1.363 1_565 S
C769 C775 1.363 . S
C770 C771 1.363 1_565 S
C770 C775 1.379 . S
C770 N777 1.356 1_565 S
C771 C770 1.363 1_545 S
C771 C774 1.363 . S
N772 C774 1.356 . S
N772 H784 0.984 . S
N772 H785 0.985 . S
N773 C775 1.356 . S
N773 H778 0.984 . S
N773 H779 0.985 . S
C774 C768 1.379 . S
C774 C771 1.363 . S
C774 N772 1.356 . S
C775 C769 1.363 . S
C775 C770 1.379 . S
C775 N773 1.356 . S
N776 C768 1.356 1_565 S
N776 H782 0.984 1_565 S
N776 H783 0.984 . S
N777 C770 1.356 1_545 S
N777 H780 0.984 . S
N777 H781 0.985 1_545 S
H778 N773 0.984 . S
H779 N773 0.985 . S
H780 N777 0.984 . S
H781 N777 0.985 1_565 S
H782 N776 0.984 1_545 S
H783 N776 0.984 . S
H784 N772 0.984 . S
H785 N772 0.985 . S
C786 C787 1.363 . S
C786 C792 1.379 . S
C786 N794 1.356 . S
C787 C786 1.363 . S
C787 C793 1.363 . S
C788 C789 1.363 . S
C788 C793 1.379 . S
C788 N795 1.356 . S
C789 C788 1.363 . S
C789 C792 1.363 . S
N790 C792 1.356 . S
N790 H802 0.984 . S
N790 H803 0.985 . S
N791 C793 1.356 . S
N791 H796 0.984 . S
N791 H797 0.985 . S
C792 C786 1.379 . S
C792 C789 1.363 . S
C792 N790 1.356 . S
C793 C787 1.363 . S
C793 C788 1.379 . S
C793 N791 1.356 . S
N794 C786 1.356 . S
N794 H800 0.984 . S
N794 H801 0.984 . S
N795 C788 1.356 . S
N795 H798 0.984 . S
N795 H799 0.985 . S
H796 N791 0.984 . S
H797 N791 0.985 . S
H798 N795 0.984 . S
H799 N795 0.985 . S
H800 N794 0.984 . S
H801 N794 0.984 . S
H802 N790 0.984 . S
H803 N790 0.985 . S
C804 C805 1.363 . S
C804 C810 1.379 . S
C804 N812 1.356 . S
C805 C804 1.363 . S
C805 C811 1.363 1_455 S
C806 C807 1.363 . S
C806 C811 1.379 . S
C806 N813 1.356 . S
C807 C806 1.363 . S
C807 C810 1.363 1_655 S
N808 C810 1.356 . S
N808 H820 0.984 . S
N808 H821 0.985 1_455 S
N809 C811 1.356 . S
N809 H814 0.984 1_655 S
N809 H815 0.985 . S
C810 C804 1.379 . S
C810 C807 1.363 1_455 S
C810 N808 1.356 . S
C811 C805 1.363 1_655 S
C811 C806 1.379 . S
C811 N809 1.356 . S
N812 C804 1.356 . S
N812 H818 0.984 . S
N812 H819 0.984 . S
N813 C806 1.356 . S
N813 H816 0.984 . S
N813 H817 0.985 . S
H814 N809 0.984 1_455 S
H815 N809 0.985 . S
H816 N813 0.984 . S
H817 N813 0.985 . S
H818 N812 0.984 . S
H819 N812 0.984 . S
H820 N808 0.984 . S
H821 N808 0.985 1_655 S
C822 C823 1.363 . S
C822 C828 1.379 1_564 S
C822 N830 1.356 . S
C823 C822 1.363 . S
C823 C829 1.363 . S
C824 C825 1.363 . S
C824 C829 1.379 1_546 S
C824 N831 1.356 . S
C825 C824 1.363 . S
C825 C828 1.363 . S
N826 C828 1.356 . S
N826 H838 0.984 . S
N826 H839 0.985 . S
N827 C829 1.356 . S
N827 H832 0.984 . S
N827 H833 0.985 . S
C828 C822 1.379 1_546 S
C828 C825 1.363 . S
C828 N826 1.356 . S
C829 C823 1.363 . S
C829 C824 1.379 1_564 S
C829 N827 1.356 . S
N830 C822 1.356 . S
N830 H836 0.984 1_565 S
N830 H837 0.984 . S
N831 C824 1.356 . S
N831 H834 0.984 . S
N831 H835 0.985 1_545 S
H832 N827 0.984 . S
H833 N827 0.985 . S
H834 N831 0.984 . S
H835 N831 0.985 1_565 S
H836 N830 0.984 1_545 S
H837 N830 0.984 . S
H838 N826 0.984 . S
H839 N826 0.985 . S
C840 C841 1.363 . S
C840 C846 1.379 . S
C840 N848 1.356 . S
C841 C840 1.363 . S
C841 C847 1.363 . S
C842 C843 1.363 . S
C842 C847 1.379 . S
C842 N849 1.356 . S
C843 C842 1.363 . S
C843 C846 1.363 . S
N844 C846 1.356 . S
N844 H856 0.984 . S
N844 H857 0.985 . S
N845 C847 1.356 . S
N845 H850 0.984 . S
N845 H851 0.985 . S
C846 C840 1.379 . S
C846 C843 1.363 . S
C846 N844 1.356 . S
C847 C841 1.363 . S
C847 C842 1.379 . S
C847 N845 1.356 . S
N848 C840 1.356 . S
N848 H854 0.984 . S
N848 H855 0.984 . S
N849 C842 1.356 . S
N849 H852 0.984 . S
N849 H853 0.985 . S
H850 N845 0.984 . S
H851 N845 0.985 . S
H852 N849 0.984 . S
H853 N849 0.985 . S
H854 N848 0.984 . S
H855 N848 0.984 . S
H856 N844 0.984 . S
H857 N844 0.985 . S
C858 C859 1.363 . S
C858 C864 1.379 . S
C858 N866 1.356 . S
C859 C858 1.363 . S
C859 C865 1.363 . S
C860 C861 1.363 . S
C860 C865 1.379 . S
C860 N867 1.356 . S
C861 C860 1.363 . S
C861 C864 1.363 . S
N862 C864 1.356 . S
N862 H874 0.984 . S
N862 H875 0.985 . S
N863 C865 1.356 . S
N863 H868 0.984 . S
N863 H869 0.985 1_554 S
C864 C858 1.379 . S
C864 C861 1.363 . S
C864 N862 1.356 . S
C865 C859 1.363 . S
C865 C860 1.379 . S
C865 N863 1.356 . S
N866 C858 1.356 . S
N866 H872 0.984 . S
N866 H873 0.984 . S
N867 C860 1.356 . S
N867 H870 0.984 . S
N867 H871 0.985 . S
H868 N863 0.984 . S
H869 N863 0.985 1_556 S
H870 N867 0.984 . S
H871 N867 0.985 . S
H872 N866 0.984 . S
H873 N866 0.984 . S
H874 N862 0.984 . S
H875 N862 0.985 . S
C876 C877 1.363 . S
C876 C882 1.379 . S
C876 N884 1.356 . S
C877 C876 1.363 . S
C877 C883 1.363 . S
C878 C879 1.363 . S
C878 C883 1.379 . S
C878 N885 1.356 . S
C879 C878 1.363 . S
C879 C882 1.363 . S
N880 C882 1.356 . S
N880 H892 0.984 . S
N880 H893 0.985 . S
N881 C883 1.356 . S
N881 H886 0.984 . S
N881 H887 0.985 . S
C882 C876 1.379 . S
C882 C879 1.363 . S
C882 N880 1.356 . S
C883 C877 1.363 . S
C883 C878 1.379 . S
C883 N881 1.356 . S
N884 C876 1.356 . S
N884 H890 0.984 . S
N884 H891 0.984 . S
N885 C878 1.356 . S
N885 H888 0.984 . S
N885 H889 0.985 . S
H886 N881 0.984 . S
H887 N881 0.985 . S
H888 N885 0.984 . S
H889 N885 0.985 . S
H890 N884 0.984 . S
H891 N884 0.984 . S
H892 N880 0.984 . S
H893 N880 0.985 . S
C894 C895 1.363 . S
C894 C900 1.379 . S
C894 N902 1.356 . S
C895 C894 1.363 . S
C895 C901 1.363 . S
C896 C897 1.363 . S
C896 C901 1.379 . S
C896 N903 1.356 . S
C897 C896 1.363 . S
C897 C900 1.363 . S
N898 C900 1.356 . S
N898 H910 0.984 . S
N898 H911 0.985 . S
N899 C901 1.356 . S
N899 H904 0.984 . S
N899 H905 0.985 . S
C900 C894 1.379 . S
C900 C897 1.363 . S
C900 N898 1.356 . S
C901 C895 1.363 . S
C901 C896 1.379 . S
C901 N899 1.356 . S
N902 C894 1.356 . S
N902 H908 0.984 . S
N902 H909 0.984 . S
N903 C896 1.356 . S
N903 H906 0.984 . S
N903 H907 0.985 . S
H904 N899 0.984 . S
H905 N899 0.985 . S
H906 N903 0.984 . S
H907 N903 0.985 . S
H908 N902 0.984 . S
H909 N902 0.984 . S
H910 N898 0.984 . S
H911 N898 0.985 . S
C912 C913 1.363 . S
C912 C918 1.379 . S
C912 N920 1.356 . S
C913 C912 1.363 . S
C913 C919 1.363 . S
C914 C915 1.363 . S
C914 C919 1.379 . S
C914 N921 1.356 . S
C915 C914 1.363 . S
C915 C918 1.363 . S
N916 C918 1.356 . S
N916 H928 0.984 . S
N916 H929 0.985 . S
N917 C919 1.356 . S
N917 H922 0.984 . S
N917 H923 0.985 . S
C918 C912 1.379 . S
C918 C915 1.363 . S
C918 N916 1.356 . S
C919 C913 1.363 . S
C919 C914 1.379 . S
C919 N917 1.356 . S
N920 C912 1.356 . S
N920 H926 0.984 . S
N920 H927 0.984 . S
N921 C914 1.356 . S
N921 H924 0.984 . S
N921 H925 0.985 . S
H922 N917 0.984 . S
H923 N917 0.985 . S
H924 N921 0.984 . S
H925 N921 0.985 . S
H926 N920 0.984 . S
H927 N920 0.984 . S
H928 N916 0.984 . S
H929 N916 0.985 . S
C930 C931 1.363 . S
C930 C936 1.379 . S
C930 N938 1.356 . S
C931 C930 1.363 . S
C931 C937 1.363 . S
C932 C933 1.363 . S
C932 C937 1.379 . S
C932 N939 1.356 . S
C933 C932 1.363 . S
C933 C936 1.363 . S
N934 C936 1.356 . S
N934 H946 0.984 . S
N934 H947 0.985 . S
N935 C937 1.356 . S
N935 H940 0.984 . S
N935 H941 0.985 . S
C936 C930 1.379 . S
C936 C933 1.363 . S
C936 N934 1.356 . S
C937 C931 1.363 . S
C937 C932 1.379 . S
C937 N935 1.356 . S
N938 C930 1.356 . S
N938 H944 0.984 . S
N938 H945 0.984 . S
N939 C932 1.356 . S
N939 H942 0.984 . S
N939 H943 0.985 . S
H940 N935 0.984 . S
H941 N935 0.985 . S
H942 N939 0.984 . S
H943 N939 0.985 . S
H944 N938 0.984 . S
H945 N938 0.984 . S
H946 N934 0.984 . S
H947 N934 0.985 . S
C409 C172 1.431 . S
C411 C5 1.424 . S
C427 C2 1.431 . S
C429 C39 1.424 1_455 S
C445 C36 1.431 . S
C447 C73 1.424 1_545 S
C463 C107 1.424 . S
C465 C70 1.431 . S
C481 C141 1.424 1_655 S
C483 C104 1.431 . S
C499 C138 1.431 . S
C501 C175 1.423 1_565 S
C517 C240 1.431 . S
C519 C209 1.424 . S
C535 C274 1.431 . S
C537 C243 1.423 1_455 S
C553 C308 1.431 . S
C555 C277 1.423 1_545 S
C571 C342 1.431 . S
C573 C311 1.423 . S
C589 C376 1.431 . S
C591 C345 1.423 1_655 S
C607 C206 1.431 . S
C609 C379 1.424 1_565 S
C625 C281 1.270 . S
C627 C9 1.270 . S
C643 C43 1.270 . S
C645 C315 1.270 . S
C661 C77 1.270 . S
C663 C349 1.270 . S
C679 C111 1.270 . S
C681 C383 1.270 . S
C697 C145 1.270 . S
C699 C213 1.270 . S
C715 C247 1.270 . S
C717 C179 1.270 . S
C733 C339 1.524 . S
C735 C33 1.524 . S
C751 C373 1.524 . S
C753 C67 1.524 . S
C769 C101 1.524 . S
C771 C407 1.524 . S
C787 C135 1.524 . S
C789 C237 1.524 . S
C805 C169 1.524 . S
C807 C271 1.524 . S
C823 C305 1.524 . S
C825 C203 1.524 . S
C841 C20 1.681 . S
C843 C224 1.681 . S
C859 C258 1.681 . S
C861 C54 1.681 . S
C877 C88 1.681 . S
C879 C292 1.681 . S
C895 C326 1.681 . S
C897 C122 1.681 . S
C913 C360 1.681 . S
C915 C156 1.681 . S
C931 C394 1.681 . S
C933 C190 1.681 . S
