# Generated by pormake.
# Topology bcu, (8)-cn, num edge types: 1
# Building blocks:
#     Node 0, Type 0, BuildingBlock: AJUNOK_clean_sbu_0, # of connection points: 8
#     Node 1, Type 0, BuildingBlock: AJUNOK_clean_sbu_0, # of connection points: 8
#     Edge 2, Type (0, 0), BuildingBlock: UVAHIK_clean_linker_0, # of connection points: 2
#     Edge 3, Type (0, 0), BuildingBlock: UVAHIK_clean_linker_0, # of connection points: 2
#     Edge 4, Type (0, 0), BuildingBlock: UVAHIK_clean_linker_0, # of connection points: 2
#     Edge 5, Type (0, 0), BuildingBlock: UVAHIK_clean_linker_0, # of connection points: 2
#     Edge 6, Type (0, 0), BuildingBlock: UVAHIK_clean_linker_0, # of connection points: 2
#     Edge 7, Type (0, 0), BuildingBlock: UVAHIK_clean_linker_0, # of connection points: 2
#     Edge 8, Type (0, 0), BuildingBlock: UVAHIK_clean_linker_0, # of connection points: 2
#     Edge 9, Type (0, 0), BuildingBlock: UVAHIK_clean_linker_0, # of connection points: 2
# Relax obj value: 0.074
# Max RMSD: 0.181
# Mean RMSD: 0.181
data_MOF--net-bcu--node1-AJUNOK_clean_sbu_0--edge1-UVAHIK_clean_linker_0
_symmetry_space_group_name_H-M    P1
_symmetry_Int_Tables_number       1
_symmetry_cell_setting            triclinic
loop_
_symmetry_equiv_pos_as_xyz
'x, y, z'
_cell_length_a     28.870111
_cell_length_b     28.805938
_cell_length_c     21.454101
_cell_angle_alpha  102.06006
_cell_angle_beta   101.23143
_cell_angle_gamma 107.02596
loop_
_atom_site_label
_atom_site_type_symbol
_atom_site_fract_x
_atom_site_fract_y
_atom_site_fract_z
_atom_type_partial_charge
Cd0 Cd 0.95717 0.92819 0.05202 0.0
Cd1 Cd 0.02774 0.05106 0.95135 0.0
C2 C 0.06114 0.93346 0.14647 0.0
N3 N 0.03354 0.91564 0.08197 0.0
C4 C 0.08511 0.86701 0.05567 0.0
C5 C 0.11297 0.88308 0.12264 0.0
C6 C 0.10153 0.91809 0.16776 0.0
C7 C 0.04521 0.88378 0.03636 0.0
H8 H 0.05035 0.95752 0.18231 0.0
H9 H 0.02189 0.8694 0.98566 0.0
C10 C 0.96506 0.93852 0.89035 0.0
C11 C 0.92426 0.05313 0.86593 0.0
C12 C 0.88494 0.07123 0.84979 0.0
C13 C 0.87443 0.10324 0.8999 0.0
C14 C 0.90201 0.11356 0.96599 0.0
C15 C 0.94096 0.09449 0.97993 0.0
N16 N 0.95188 0.06581 0.92991 0.0
H17 H 0.9347 0.03157 0.82689 0.0
H18 H 0.96419 0.10476 0.03023 0.0
C19 C 0.09256 0.00253 0.87307 0.0
N20 N 0.08325 0.00781 0.93339 0.0
C21 C 0.13387 0.95887 0.9625 0.0
C22 C 0.14248 0.95134 0.89948 0.0
C23 C 0.12179 0.97401 0.85482 0.0
C24 C 0.10355 0.98719 0.9784 0.0
H25 H 0.07608 0.01954 0.83841 0.0
H26 H 0.0956 -0.00791 0.0261 0.0
C27 C 0.01906 0.04438 0.1185 0.0
C28 C 0.8999 0.8309 0.05589 0.0
N29 N 0.9002 0.96711 0.07733 0.0
C30 C 0.89185 0.9697 0.13795 0.0
C31 C 0.86199 -0.00352 0.15924 0.0
C32 C 0.83982 0.02008 0.11727 0.0
C33 C 0.84759 0.01534 0.05393 0.0
C34 C 0.87848 0.98873 0.03497 0.0
C35 C 0.08406 0.14267 0.93148 0.0
O36 O 0.96962 0.95215 0.95204 0.0
O37 O 0.98311 0.97224 0.86346 0.0
O38 O 0.01681 0.03538 0.05719 0.0
O39 O -0.00047 0.00746 0.13976 0.0
O40 O 0.8942 0.84281 1.00182 0.0
O41 O 0.93146 0.86434 0.10681 0.0
O42 O 0.09331 0.13534 0.98831 0.0
O43 O 0.04948 0.1074 0.88541 0.0
H44 H 0.90969 0.95214 0.17053 0.0
H45 H 0.88595 0.98612 0.9871 0.0
H46 H 0.09218 0.83964 0.01925 0.0
H47 H 0.12235 0.93203 0.21964 0.0
H48 H 0.86527 0.06296 0.79813 0.0
H49 H 0.89483 0.13767 0.00619 0.0
H50 H 0.14928 0.94198 0.99825 0.0
H51 H 0.12815 0.96969 0.80614 0.0
H52 H 0.85642 -0.00109 0.20815 0.0
H53 H 0.8312 0.03323 0.02036 0.0
Cd54 Cd 0.47762 0.49947 0.60064 0.0
Cd55 Cd 0.51785 0.48732 0.3924 0.0
C56 C 0.55107 0.46339 0.69673 0.0
N57 N 0.52507 0.45107 0.63208 0.0
C58 C 0.55461 0.38216 0.60454 0.0
C59 C 0.58177 0.39376 0.67118 0.0
C60 C 0.5797 0.4351 0.71746 0.0
C61 C 0.52617 0.41136 0.58606 0.0
H62 H 0.5494 0.49518 0.73224 0.0
H63 H 0.50495 0.40245 0.53501 0.0
C64 C 0.4195 0.44108 0.42919 0.0
C65 C 0.443 0.52655 0.30626 0.0
C66 C 0.41604 0.55687 0.28818 0.0
C67 C 0.41842 0.59985 0.33572 0.0
C68 C 0.44748 0.61064 0.40117 0.0
C69 C 0.47422 0.57935 0.417 0.0
N70 N 0.4716 0.53845 0.36953 0.0
H71 H 0.4415 0.49359 0.2697 0.0
H72 H 0.49752 0.58794 0.46688 0.0
C73 C 0.51202 0.37676 0.31913 0.0
N74 N 0.53007 0.4102 0.38052 0.0
C75 C 0.57878 0.3623 0.41855 0.0
C76 C 0.56346 0.32878 0.35429 0.0
C77 C 0.52834 0.33568 0.3048 0.0
C78 C 0.56207 0.40338 0.43038 0.0
H79 H 0.48748 0.38387 0.28011 0.0
H80 H 0.57675 0.43133 0.47832 0.0
C81 C 0.58088 0.54185 0.56774 0.0
C82 C 0.40698 0.46004 0.66703 0.0
N83 N 0.46637 0.57746 0.62112 0.0
C84 C 0.48235 0.60689 0.68491 0.0
C85 C 0.4645 0.64632 0.7037 0.0
C86 C 0.42997 0.65576 0.65627 0.0
C87 C 0.41721 0.62693 0.58968 0.0
C88 C 0.43538 0.5873 0.5733 0.0
C89 C 0.58158 0.51791 0.31273 0.0
O90 O 0.45447 0.46835 0.48067 0.0
O91 O 0.42973 0.43556 0.37378 0.0
O92 O 0.54753 0.52075 0.51286 0.0
O93 O 0.56707 0.54556 0.62072 0.0
O94 O 0.39702 0.44404 0.60421 0.0
O95 O 0.44975 0.49366 0.69781 0.0
O96 O 0.59652 0.5357 0.37557 0.0
O97 O 0.53693 0.48651 0.28761 0.0
H98 H 0.506 0.59732 0.72216 0.0
H99 H 0.42222 0.56239 0.52329 0.0
H100 H 0.55553 0.35109 0.56696 0.0
H101 H 0.59925 0.44504 0.76947 0.0
H102 H 0.39345 0.54671 0.23747 0.0
H103 H 0.45051 0.64354 0.43924 0.0
H104 H 0.60505 0.35817 0.45869 0.0
H105 H 0.51596 0.31168 0.25429 0.0
H106 H 0.475 0.66665 0.75571 0.0
H107 H 0.39156 0.63324 0.55102 0.0
C108 C 0.03634 0.10633 0.22826 0.0
C109 C 0.04277 0.09592 0.16412 0.0
C110 C 0.06198 0.15423 0.27326 0.0
C111 C 0.15444 0.23888 0.36735 0.0
H112 H 0.1985 0.35843 0.3079 0.0
C113 C 0.35647 0.3659 0.43884 0.0
C114 C 0.36911 0.41516 0.43306 0.0
C115 C 0.30624 0.33714 0.42928 0.0
C116 C 0.18589 0.32619 0.32665 0.0
H117 H 0.07895 0.12759 0.09605 0.0
H118 H 0.12471 0.21062 0.17419 0.0
H119 H 0.1235 0.28809 0.24043 0.0
H120 H 0.34157 0.47541 0.41879 0.0
H121 H 0.25316 0.42531 0.40277 0.0
H122 H 0.21775 0.27647 0.45268 0.0
C123 C 0.09912 0.18248 0.18976 0.0
C124 C 0.14317 0.28548 0.2873 0.0
C125 C 0.07331 0.13475 0.14488 0.0
C126 C 0.33197 0.4371 0.42299 0.0
C127 C 0.28163 0.40844 0.41374 0.0
C128 C 0.19685 0.27988 0.40714 0.0
C129 C 0.09465 0.19248 0.25498 0.0
C130 C 0.12908 0.24017 0.30508 0.0
C131 C 0.26797 0.35733 0.41359 0.0
C132 C 0.21499 0.32252 0.38494 0.0
H133 H 0.0123 0.0772 0.24417 0.0
H134 H 0.05731 0.16089 0.32286 0.0
H135 H 0.14445 0.2047 0.38289 0.0
H136 H 0.38503 0.34867 0.44664 0.0
H137 H 0.29729 0.29782 0.42878 0.0
C138 C 0.82916 0.08677 0.20276 0.0
C139 C 0.80978 0.05035 0.14067 0.0
C140 C 0.80053 0.11434 0.22638 0.0
C141 C 0.68728 0.14871 0.17263 0.0
H142 H 0.70131 0.18705 0.36163 0.0
C143 C 0.56093 0.24452 0.28682 0.0
C144 C 0.58765 0.2904 0.33696 0.0
C145 C 0.58554 0.21179 0.26462 0.0
C146 C 0.69707 0.17659 0.30876 0.0
H147 H 0.74546 0.01415 0.0544 0.0
H148 H 0.69448 0.06099 0.09637 0.0
H149 H 0.74868 0.13671 0.318 0.0
H150 H 0.66142 0.33656 0.40422 0.0
H151 H 0.70346 0.27848 0.36723 0.0
H152 H 0.63476 0.18798 0.1638 0.0
C153 C 0.7323 0.06934 0.12635 0.0
C154 C 0.72449 0.14806 0.28365 0.0
C155 C 0.76135 0.04231 0.10227 0.0
C156 C 0.63913 0.30132 0.36646 0.0
C157 C 0.66348 0.26818 0.34498 0.0
C158 C 0.65927 0.17657 0.19771 0.0
C159 C 0.75142 0.10561 0.18895 0.0
C160 C 0.72051 0.13426 0.21529 0.0
C161 C 0.63719 0.22369 0.29287 0.0
C162 C 0.66433 0.19124 0.26607 0.0
H163 H 0.86674 0.09421 0.23291 0.0
H164 H 0.81722 0.1428 0.27391 0.0
H165 H 0.68371 0.13964 0.11995 0.0
H166 H 0.52109 0.23418 0.26379 0.0
H167 H 0.56427 0.17733 0.22494 0.0
C168 C 0.88245 0.76815 0.11976 0.0
C169 C 0.8702 0.78128 0.06086 0.0
C170 C 0.8519 0.72397 0.12831 0.0
C171 C 0.72058 0.64419 0.07796 0.0
H172 H 0.772 0.57187 0.19195 0.0
C173 C 0.59444 0.51949 0.20121 0.0
C174 C 0.61429 0.53336 0.27039 0.0
C175 C 0.62481 0.53616 0.1613 0.0
C176 C 0.75706 0.59142 0.1596 0.0
H177 H 0.81804 0.75706 0.96301 0.0
H178 H 0.76393 0.67943 0.97831 0.0
H179 H 0.82851 0.62456 0.14285 0.0
H180 H 0.68179 0.57384 0.35183 0.0
H181 H 0.7348 0.60299 0.28219 0.0
H182 H 0.64967 0.61282 0.09713 0.0
C183 C 0.79718 0.70368 0.01791 0.0
C184 C 0.7893 0.6215 0.1315 0.0
C185 C 0.82811 0.74799 0.00916 0.0
C186 C 0.66542 0.56276 0.29871 0.0
C187 C 0.69586 0.579 0.25877 0.0
C188 C 0.68824 0.61383 0.10576 0.0
C189 C 0.80825 0.69185 0.07822 0.0
C190 C 0.77195 0.65014 0.09306 0.0
C191 C 0.67568 0.56647 0.18981 0.0
C192 C 0.7068 0.58907 0.14925 0.0
H193 H 0.91488 0.79284 0.16032 0.0
H194 H 0.86114 0.71649 0.17576 0.0
H195 H 0.7061 0.666 0.04894 0.0
H196 H 0.55515 0.49666 0.17796 0.0
H197 H 0.6084 0.52591 0.10827 0.0
C198 C 0.18221 0.84838 0.10864 0.0
C199 C 0.15037 0.86006 0.14656 0.0
C200 C 0.21505 0.82395 0.13002 0.0
C201 C 0.27664 0.7954 0.27841 0.0
H202 H 0.28202 0.68136 0.15071 0.0
C203 C 0.36433 0.65259 0.35651 0.0
C204 C 0.39143 0.6335 0.31633 0.0
C205 C 0.33761 0.68286 0.33664 0.0
C206 C 0.28158 0.71356 0.18689 0.0
H207 H 0.1279 0.85459 0.23644 0.0
H208 H 0.18535 0.81282 0.27377 0.0
H209 H 0.23202 0.73064 0.11422 0.0
H210 H 0.41338 0.63281 0.22515 0.0
H211 H 0.36732 0.68588 0.19087 0.0
H212 H 0.32602 0.77824 0.35117 0.0
C213 C 0.18557 0.82321 0.2281 0.0
C214 C 0.25291 0.74182 0.16589 0.0
C215 C 0.15268 0.84734 0.20667 0.0
C216 C 0.39206 0.64614 0.25659 0.0
C217 C 0.36559 0.67653 0.2369 0.0
C218 C 0.30547 0.76725 0.29939 0.0
C219 C 0.21686 0.81086 0.18984 0.0
C220 C 0.24978 0.7828 0.21149 0.0
C221 C 0.33766 0.69491 0.27634 0.0
C222 C 0.30803 0.72576 0.25396 0.0
H223 H 0.18176 0.85809 0.06245 0.0
H224 H 0.23912 0.81538 0.09979 0.0
H225 H 0.27548 0.82717 0.31461 0.0
H226 H 0.36278 0.64312 0.40252 0.0
H227 H 0.31598 0.69583 0.36784 0.0
C228 C 0.15352 0.88264 0.81728 0.0
C229 C 0.1721 0.91946 0.87914 0.0
C230 C 0.18224 0.8544 0.79573 0.0
C231 C 0.31196 0.85926 0.81323 0.0
H232 H 0.25142 0.71404 0.73441 0.0
C233 C 0.4275 0.73435 0.73252 0.0
C234 C 0.4034 0.69116 0.67754 0.0
C235 C 0.40055 0.76365 0.75744 0.0
C236 C 0.26883 0.75468 0.75519 0.0
H237 H 0.23496 0.9551 0.96739 0.0
H238 H 0.28575 0.90592 0.92918 0.0
H239 H 0.20184 0.76102 0.77909 0.0
H240 H 0.33179 0.64641 0.60455 0.0
H241 H 0.28596 0.69878 0.6454 0.0
H242 H 0.37854 0.85337 0.78778 0.0
C243 C 0.24886 0.89905 0.89754 0.0
C244 C 0.24041 0.78151 0.78127 0.0
C245 C 0.21971 0.92686 0.91959 0.0
C246 C 0.35212 0.67958 0.64641 0.0
C247 C 0.32538 0.70919 0.67079 0.0
C248 C 0.34029 0.83251 0.78637 0.0
C249 C 0.23047 0.86272 0.8352 0.0
C250 C 0.26157 0.83409 0.81035 0.0
C251 C 0.34885 0.75092 0.72763 0.0
C252 C 0.31903 0.77983 0.75664 0.0
H253 H 0.11675 0.87585 0.78535 0.0
H254 H 0.16719 0.82686 0.74736 0.0
H255 H 0.32907 0.89989 0.83469 0.0
H256 H 0.46709 0.74511 0.75729 0.0
H257 H 0.42003 0.79533 0.80141 0.0
C258 C 0.38537 0.45549 0.77308 0.0
C259 C 0.37103 0.44019 0.70341 0.0
C260 C 0.35246 0.43517 0.80803 0.0
C261 C 0.21969 0.36586 0.79286 0.0
H262 H 0.27481 0.30667 0.9227 0.0
C263 C 0.1004 0.19516 0.85441 0.0
C264 C 0.11291 0.18913 0.91808 0.0
C265 C 0.12968 0.23669 0.83908 0.0
C266 C 0.25895 0.32404 0.88795 0.0
H267 H 0.31052 0.39303 0.61563 0.0
H268 H 0.25295 0.35729 0.67689 0.0
H269 H 0.33083 0.35987 0.8742 0.0
H270 H 0.1643 0.22311 0.01677 0.0
H271 H 0.21574 0.2963 0.9899 0.0
H272 H 0.1476 0.32886 0.80524 0.0
C273 C 0.28956 0.38527 0.70434 0.0
C274 C 0.29105 0.35437 0.85997 0.0
C275 C 0.32261 0.40535 0.66931 0.0
C276 C 0.15407 0.22664 0.9671 0.0
C277 C 0.18351 0.26841 0.9517 0.0
C278 C 0.18761 0.33582 0.8212 0.0
C279 C 0.30449 0.39948 0.774 0.0
C280 C 0.27148 0.37413 0.8106 0.0
C281 C 0.17212 0.27329 0.88711 0.0
C282 C 0.2067 0.3131 0.86726 0.0
H283 H 0.42239 0.48252 0.80075 0.0
H284 H 0.36472 0.44696 0.8617 0.0
H285 H 0.20384 0.38143 0.7557 0.0
H286 H 0.06874 0.16701 0.8156 0.0
H287 H 0.1203 0.23877 0.78858 0.0
C288 C 0.85214 0.1819 0.91248 0.0
C289 C 0.8389 0.12985 0.88226 0.0
C290 C 0.82178 0.20855 0.89108 0.0
C291 C 0.72519 0.20226 0.74504 0.0
H292 H 0.70954 0.31248 0.86784 0.0
C293 C 0.59272 0.30957 0.66603 0.0
C294 C 0.61126 0.36253 0.69288 0.0
C295 C 0.6194 0.28011 0.68863 0.0
C296 C 0.71393 0.28208 0.83287 0.0
H297 H 0.78219 0.06456 0.80764 0.0
H298 H 0.7287 0.11092 0.77086 0.0
H299 H 0.75588 0.26204 0.91015 0.0
H300 H 0.67353 0.42603 0.76295 0.0
H301 H 0.71965 0.3746 0.80276 0.0
H302 H 0.68299 0.22236 0.66781 0.0
C303 C 0.76319 0.13139 0.81021 0.0
C304 C 0.7405 0.25314 0.85711 0.0
C305 C 0.7937 0.10475 0.83147 0.0
C306 C 0.65756 0.3853 0.74211 0.0
C307 C 0.68406 0.35583 0.76492 0.0
C308 C 0.69837 0.23107 0.72084 0.0
C309 C 0.77726 0.18382 0.83903 0.0
C310 C 0.74681 0.21307 0.8135 0.0
C311 C 0.66512 0.30287 0.73882 0.0
C312 C 0.69276 0.27155 0.76445 0.0
H313 H 0.88715 0.20264 0.95086 0.0
H314 H 0.83428 0.24899 0.9138 0.0
H315 H 0.73 0.1723 0.70987 0.0
H316 H 0.55689 0.29064 0.62873 0.0
H317 H 0.60357 0.23935 0.66795 0.0
C318 C 0.66587 0.53941 0.60823 0.0
C319 C 0.63437 0.55869 0.57138 0.0
C320 C 0.71796 0.56315 0.62554 0.0
C321 C 0.81841 0.67903 0.62019 0.0
H322 H 0.85356 0.69905 0.81015 0.0
C323 C 0.89896 0.85443 0.8625 0.0
C324 C 0.94208 0.88533 0.85161 0.0
C325 C 0.87627 0.80402 0.82491 0.0
C326 C 0.84475 0.69357 0.75708 0.0
H327 H 0.63105 0.6137 0.51757 0.0
H328 H 0.72171 0.65769 0.55126 0.0
H329 H 0.78567 0.62397 0.73908 0.0
H330 H -0.00406 0.88899 0.79352 0.0
H331 H 0.9556 0.80032 0.72639 0.0
H332 H 0.8745 0.75191 0.64007 0.0
C333 C 0.70723 0.62347 0.56538 0.0
C334 C 0.80611 0.64999 0.71583 0.0
C335 C 0.65514 0.5987 0.54645 0.0
C336 C 0.96246 0.86544 0.80249 0.0
C337 C 0.93964 0.8149 0.76448 0.0
C338 C 0.85682 0.72307 0.66176 0.0
C339 C 0.73903 0.60783 0.60864 0.0
C340 C 0.79019 0.64378 0.64728 0.0
C341 C 0.89616 0.78378 0.77521 0.0
C342 C 0.86792 0.73204 0.73087 0.0
H343 H 0.65007 0.50774 0.62671 0.0
H344 H 0.74135 0.54897 0.65682 0.0
H345 H 0.80817 0.6747 0.56745 0.0
H346 H 0.88164 0.86995 0.89813 0.0
H347 H 0.84183 0.78151 0.83291 0.0
loop_
_geom_bond_atom_site_label_1
_geom_bond_atom_site_label_2
_geom_bond_distance
_geom_bond_site_symmetry_2
_ccdc_geom_bond_type
Cd0 N3 2.334 1_655 S
Cd0 N29 2.304 1_565 S
Cd0 O36 2.268 1_554 S
Cd0 O39 2.273 1_665 S
Cd0 O40 2.417 . S
Cd0 O41 2.330 . S
Cd1 N16 2.304 1_455 S
Cd1 N20 2.334 1_545 S
Cd1 O37 2.273 1_445 S
Cd1 O38 2.268 1_556 S
Cd1 O42 2.417 . S
Cd1 O43 2.330 . S
C2 N3 1.332 . S
C2 C6 1.381 . S
C2 H8 0.931 . S
N3 Cd0 2.334 1_455 S
N3 C2 1.332 . S
N3 C7 1.328 . S
C4 C5 1.396 . S
C4 C7 1.378 . S
C4 H46 0.931 1_554 S
C5 C4 1.396 . S
C5 C6 1.382 . S
C6 C2 1.381 . S
C6 C5 1.382 . S
C6 H47 0.930 . S
C7 N3 1.328 . S
C7 C4 1.378 . S
C7 H9 0.930 1_454 S
H8 C2 0.931 . S
H9 C7 0.930 1_656 S
C10 O36 1.238 . S
C10 O37 1.253 . S
C11 C12 1.379 . S
C11 N16 1.337 . S
C11 H17 0.929 . S
C12 C11 1.379 . S
C12 C13 1.380 . S
C12 H48 0.929 . S
C13 C12 1.380 . S
C13 C14 1.399 . S
C14 C13 1.399 . S
C14 C15 1.376 . S
C14 H49 0.931 1_556 S
C15 C14 1.376 . S
C15 N16 1.338 . S
C15 H18 0.930 1_656 S
N16 Cd1 2.304 1_655 S
N16 C11 1.337 . S
N16 C15 1.338 . S
H17 C11 0.929 . S
H18 C15 0.930 1_454 S
C19 N20 1.332 . S
C19 C23 1.381 . S
C19 H25 0.931 . S
N20 Cd1 2.334 1_565 S
N20 C19 1.332 . S
N20 C24 1.328 . S
C21 C22 1.396 . S
C21 C24 1.378 . S
C21 H50 0.931 1_556 S
C22 C21 1.396 . S
C22 C23 1.382 . S
C23 C19 1.381 . S
C23 C22 1.382 . S
C23 H51 0.930 . S
C24 N20 1.328 . S
C24 C21 1.378 . S
C24 H26 0.930 1_566 S
H25 C19 0.931 . S
H26 C24 0.930 1_544 S
C27 O38 1.238 . S
C27 O39 1.253 . S
C28 O40 1.239 . S
C28 O41 1.230 . S
N29 Cd0 2.304 1_545 S
N29 C30 1.337 . S
N29 C34 1.338 . S
C30 N29 1.337 . S
C30 C31 1.379 . S
C30 H44 0.929 . S
C31 C30 1.379 . S
C31 C32 1.380 . S
C31 H52 0.929 . S
C32 C31 1.380 . S
C32 C33 1.399 . S
C33 C32 1.399 . S
C33 C34 1.376 . S
C33 H53 0.931 1_554 S
C34 N29 1.338 . S
C34 C33 1.376 . S
C34 H45 0.930 1_544 S
C35 O42 1.239 . S
C35 O43 1.230 . S
O36 Cd0 2.268 1_556 S
O36 C10 1.238 . S
O37 Cd1 2.273 1_665 S
O37 C10 1.253 . S
O38 Cd1 2.268 1_554 S
O38 C27 1.238 . S
O39 Cd0 2.273 1_445 S
O39 C27 1.253 . S
O40 Cd0 2.417 . S
O40 C28 1.239 . S
O41 Cd0 2.330 . S
O41 C28 1.230 . S
O42 Cd1 2.417 . S
O42 C35 1.239 . S
O43 Cd1 2.330 . S
O43 C35 1.230 . S
H44 C30 0.929 . S
H45 C34 0.930 1_566 S
H46 C4 0.931 1_556 S
H47 C6 0.930 . S
H48 C12 0.929 . S
H49 C14 0.931 1_554 S
H50 C21 0.931 1_554 S
H51 C23 0.930 . S
H52 C31 0.929 . S
H53 C33 0.931 1_556 S
Cd54 N57 2.334 . S
Cd54 N83 2.304 . S
Cd54 O90 2.268 . S
Cd54 O93 2.273 . S
Cd54 O94 2.417 . S
Cd54 O95 2.330 . S
Cd55 N70 2.304 . S
Cd55 N74 2.334 . S
Cd55 O91 2.273 . S
Cd55 O92 2.268 . S
Cd55 O96 2.417 . S
Cd55 O97 2.330 . S
C56 N57 1.332 . S
C56 C60 1.381 . S
C56 H62 0.931 . S
N57 Cd54 2.334 . S
N57 C56 1.332 . S
N57 C61 1.328 . S
C58 C59 1.396 . S
C58 C61 1.378 . S
C58 H100 0.931 . S
C59 C58 1.396 . S
C59 C60 1.382 . S
C60 C56 1.381 . S
C60 C59 1.382 . S
C60 H101 0.930 . S
C61 N57 1.328 . S
C61 C58 1.378 . S
C61 H63 0.930 . S
H62 C56 0.931 . S
H63 C61 0.930 . S
C64 O90 1.238 . S
C64 O91 1.253 . S
C65 C66 1.379 . S
C65 N70 1.337 . S
C65 H71 0.929 . S
C66 C65 1.379 . S
C66 C67 1.380 . S
C66 H102 0.929 . S
C67 C66 1.380 . S
C67 C68 1.399 . S
C68 C67 1.399 . S
C68 C69 1.376 . S
C68 H103 0.931 . S
C69 C68 1.376 . S
C69 N70 1.338 . S
C69 H72 0.930 . S
N70 Cd55 2.304 . S
N70 C65 1.337 . S
N70 C69 1.338 . S
H71 C65 0.929 . S
H72 C69 0.930 . S
C73 N74 1.332 . S
C73 C77 1.381 . S
C73 H79 0.931 . S
N74 Cd55 2.334 . S
N74 C73 1.332 . S
N74 C78 1.328 . S
C75 C76 1.396 . S
C75 C78 1.378 . S
C75 H104 0.931 . S
C76 C75 1.396 . S
C76 C77 1.382 . S
C77 C73 1.381 . S
C77 C76 1.382 . S
C77 H105 0.930 . S
C78 N74 1.328 . S
C78 C75 1.378 . S
C78 H80 0.930 . S
H79 C73 0.931 . S
H80 C78 0.930 . S
C81 O92 1.238 . S
C81 O93 1.253 . S
C82 O94 1.239 . S
C82 O95 1.230 . S
N83 Cd54 2.304 . S
N83 C84 1.337 . S
N83 C88 1.338 . S
C84 N83 1.337 . S
C84 C85 1.379 . S
C84 H98 0.929 . S
C85 C84 1.379 . S
C85 C86 1.380 . S
C85 H106 0.929 . S
C86 C85 1.380 . S
C86 C87 1.399 . S
C87 C86 1.399 . S
C87 C88 1.376 . S
C87 H107 0.931 . S
C88 N83 1.338 . S
C88 C87 1.376 . S
C88 H99 0.930 . S
C89 O96 1.239 . S
C89 O97 1.230 . S
O90 Cd54 2.268 . S
O90 C64 1.238 . S
O91 Cd55 2.273 . S
O91 C64 1.253 . S
O92 Cd55 2.268 . S
O92 C81 1.238 . S
O93 Cd54 2.273 . S
O93 C81 1.253 . S
O94 Cd54 2.417 . S
O94 C82 1.239 . S
O95 Cd54 2.330 . S
O95 C82 1.230 . S
O96 Cd55 2.417 . S
O96 C89 1.239 . S
O97 Cd55 2.330 . S
O97 C89 1.230 . S
H98 C84 0.929 . S
H99 C88 0.930 . S
H100 C58 0.931 . S
H101 C60 0.930 . S
H102 C66 0.929 . S
H103 C68 0.931 . S
H104 C75 0.931 . S
H105 C77 0.930 . S
H106 C85 0.929 . S
H107 C87 0.931 . S
C108 C109 1.349 . S
C108 C110 1.327 . S
C108 H133 0.950 . S
C109 C108 1.349 . S
C109 C125 1.349 . S
C110 C108 1.327 . S
C110 C129 1.429 . S
C110 H134 0.950 . S
C111 C128 1.574 . S
C111 C130 1.368 . S
C111 H135 0.949 . S
H112 C116 0.949 . S
C113 C114 1.349 . S
C113 C115 1.327 . S
C113 H136 0.950 . S
C114 C113 1.349 . S
C114 C126 1.349 . S
C115 C113 1.327 . S
C115 C131 1.429 . S
C115 H137 0.950 . S
C116 H112 0.949 . S
C116 C124 1.574 . S
C116 C132 1.368 . S
H117 C125 0.950 . S
H118 C123 0.950 . S
H119 C124 0.949 . S
H120 C126 0.950 . S
H121 C127 0.950 . S
H122 C128 0.949 . S
C123 H118 0.950 . S
C123 C125 1.327 . S
C123 C129 1.429 . S
C124 C116 1.574 . S
C124 H119 0.949 . S
C124 C130 1.368 . S
C125 C109 1.349 . S
C125 H117 0.950 . S
C125 C123 1.327 . S
C126 C114 1.349 . S
C126 H120 0.950 . S
C126 C127 1.327 . S
C127 H121 0.950 . S
C127 C126 1.327 . S
C127 C131 1.429 . S
C128 C111 1.574 . S
C128 H122 0.949 . S
C128 C132 1.368 . S
C129 C110 1.429 . S
C129 C123 1.429 . S
C129 C130 1.523 . S
C130 C111 1.368 . S
C130 C124 1.368 . S
C130 C129 1.523 . S
C131 C115 1.429 . S
C131 C127 1.429 . S
C131 C132 1.523 . S
C132 C116 1.368 . S
C132 C128 1.368 . S
C132 C131 1.523 . S
H133 C108 0.950 . S
H134 C110 0.950 . S
H135 C111 0.949 . S
H136 C113 0.950 . S
H137 C115 0.950 . S
C138 C139 1.349 . S
C138 C140 1.327 . S
C138 H163 0.950 . S
C139 C138 1.349 . S
C139 C155 1.349 . S
C140 C138 1.327 . S
C140 C159 1.429 . S
C140 H164 0.950 . S
C141 C158 1.574 . S
C141 C160 1.368 . S
C141 H165 0.949 . S
H142 C146 0.949 . S
C143 C144 1.349 . S
C143 C145 1.327 . S
C143 H166 0.950 . S
C144 C143 1.349 . S
C144 C156 1.349 . S
C145 C143 1.327 . S
C145 C161 1.429 . S
C145 H167 0.950 . S
C146 H142 0.949 . S
C146 C154 1.574 . S
C146 C162 1.368 . S
H147 C155 0.950 . S
H148 C153 0.950 . S
H149 C154 0.949 . S
H150 C156 0.950 . S
H151 C157 0.950 . S
H152 C158 0.949 . S
C153 H148 0.950 . S
C153 C155 1.327 . S
C153 C159 1.429 . S
C154 C146 1.574 . S
C154 H149 0.949 . S
C154 C160 1.368 . S
C155 C139 1.349 . S
C155 H147 0.950 . S
C155 C153 1.327 . S
C156 C144 1.349 . S
C156 H150 0.950 . S
C156 C157 1.327 . S
C157 H151 0.950 . S
C157 C156 1.327 . S
C157 C161 1.429 . S
C158 C141 1.574 . S
C158 H152 0.949 . S
C158 C162 1.368 . S
C159 C140 1.429 . S
C159 C153 1.429 . S
C159 C160 1.523 . S
C160 C141 1.368 . S
C160 C154 1.368 . S
C160 C159 1.523 . S
C161 C145 1.429 . S
C161 C157 1.429 . S
C161 C162 1.523 . S
C162 C146 1.368 . S
C162 C158 1.368 . S
C162 C161 1.523 . S
H163 C138 0.950 . S
H164 C140 0.950 . S
H165 C141 0.949 . S
H166 C143 0.950 . S
H167 C145 0.950 . S
C168 C169 1.349 . S
C168 C170 1.327 . S
C168 H193 0.950 . S
C169 C168 1.349 . S
C169 C185 1.349 . S
C170 C168 1.327 . S
C170 C189 1.429 . S
C170 H194 0.950 . S
C171 C188 1.574 . S
C171 C190 1.368 . S
C171 H195 0.949 . S
H172 C176 0.949 . S
C173 C174 1.349 . S
C173 C175 1.327 . S
C173 H196 0.950 . S
C174 C173 1.349 . S
C174 C186 1.349 . S
C175 C173 1.327 . S
C175 C191 1.429 . S
C175 H197 0.950 . S
C176 H172 0.949 . S
C176 C184 1.574 . S
C176 C192 1.368 . S
H177 C185 0.950 . S
H178 C183 0.950 . S
H179 C184 0.949 . S
H180 C186 0.950 . S
H181 C187 0.950 . S
H182 C188 0.949 . S
C183 H178 0.950 . S
C183 C185 1.327 . S
C183 C189 1.429 . S
C184 C176 1.574 . S
C184 H179 0.949 . S
C184 C190 1.368 . S
C185 C169 1.349 . S
C185 H177 0.950 . S
C185 C183 1.327 . S
C186 C174 1.349 . S
C186 H180 0.950 . S
C186 C187 1.327 . S
C187 H181 0.950 . S
C187 C186 1.327 . S
C187 C191 1.429 . S
C188 C171 1.574 . S
C188 H182 0.949 . S
C188 C192 1.368 . S
C189 C170 1.429 . S
C189 C183 1.429 . S
C189 C190 1.523 . S
C190 C171 1.368 . S
C190 C184 1.368 . S
C190 C189 1.523 . S
C191 C175 1.429 . S
C191 C187 1.429 . S
C191 C192 1.523 . S
C192 C176 1.368 . S
C192 C188 1.368 . S
C192 C191 1.523 . S
H193 C168 0.950 . S
H194 C170 0.950 . S
H195 C171 0.949 . S
H196 C173 0.950 . S
H197 C175 0.950 . S
C198 C199 1.349 . S
C198 C200 1.327 . S
C198 H223 0.950 . S
C199 C198 1.349 . S
C199 C215 1.349 . S
C200 C198 1.327 . S
C200 C219 1.429 . S
C200 H224 0.950 . S
C201 C218 1.574 . S
C201 C220 1.368 . S
C201 H225 0.949 . S
H202 C206 0.949 . S
C203 C204 1.349 . S
C203 C205 1.327 . S
C203 H226 0.950 . S
C204 C203 1.349 . S
C204 C216 1.349 . S
C205 C203 1.327 . S
C205 C221 1.429 . S
C205 H227 0.950 . S
C206 H202 0.949 . S
C206 C214 1.574 . S
C206 C222 1.368 . S
H207 C215 0.950 . S
H208 C213 0.950 . S
H209 C214 0.949 . S
H210 C216 0.950 . S
H211 C217 0.950 . S
H212 C218 0.949 . S
C213 H208 0.950 . S
C213 C215 1.327 . S
C213 C219 1.429 . S
C214 C206 1.574 . S
C214 H209 0.949 . S
C214 C220 1.368 . S
C215 C199 1.349 . S
C215 H207 0.950 . S
C215 C213 1.327 . S
C216 C204 1.349 . S
C216 H210 0.950 . S
C216 C217 1.327 . S
C217 H211 0.950 . S
C217 C216 1.327 . S
C217 C221 1.429 . S
C218 C201 1.574 . S
C218 H212 0.949 . S
C218 C222 1.368 . S
C219 C200 1.429 . S
C219 C213 1.429 . S
C219 C220 1.523 . S
C220 C201 1.368 . S
C220 C214 1.368 . S
C220 C219 1.523 . S
C221 C205 1.429 . S
C221 C217 1.429 . S
C221 C222 1.523 . S
C222 C206 1.368 . S
C222 C218 1.368 . S
C222 C221 1.523 . S
H223 C198 0.950 . S
H224 C200 0.950 . S
H225 C201 0.949 . S
H226 C203 0.950 . S
H227 C205 0.950 . S
C228 C229 1.349 . S
C228 C230 1.327 . S
C228 H253 0.950 . S
C229 C228 1.349 . S
C229 C245 1.349 . S
C230 C228 1.327 . S
C230 C249 1.429 . S
C230 H254 0.950 . S
C231 C248 1.574 . S
C231 C250 1.368 . S
C231 H255 0.949 . S
H232 C236 0.949 . S
C233 C234 1.349 . S
C233 C235 1.327 . S
C233 H256 0.950 . S
C234 C233 1.349 . S
C234 C246 1.349 . S
C235 C233 1.327 . S
C235 C251 1.429 . S
C235 H257 0.950 . S
C236 H232 0.949 . S
C236 C244 1.574 . S
C236 C252 1.368 . S
H237 C245 0.950 . S
H238 C243 0.950 . S
H239 C244 0.949 . S
H240 C246 0.950 . S
H241 C247 0.950 . S
H242 C248 0.949 . S
C243 H238 0.950 . S
C243 C245 1.327 . S
C243 C249 1.429 . S
C244 C236 1.574 . S
C244 H239 0.949 . S
C244 C250 1.368 . S
C245 C229 1.349 . S
C245 H237 0.950 . S
C245 C243 1.327 . S
C246 C234 1.349 . S
C246 H240 0.950 . S
C246 C247 1.327 . S
C247 H241 0.950 . S
C247 C246 1.327 . S
C247 C251 1.429 . S
C248 C231 1.574 . S
C248 H242 0.949 . S
C248 C252 1.368 . S
C249 C230 1.429 . S
C249 C243 1.429 . S
C249 C250 1.523 . S
C250 C231 1.368 . S
C250 C244 1.368 . S
C250 C249 1.523 . S
C251 C235 1.429 . S
C251 C247 1.429 . S
C251 C252 1.523 . S
C252 C236 1.368 . S
C252 C248 1.368 . S
C252 C251 1.523 . S
H253 C228 0.950 . S
H254 C230 0.950 . S
H255 C231 0.949 . S
H256 C233 0.950 . S
H257 C235 0.950 . S
C258 C259 1.349 . S
C258 C260 1.327 . S
C258 H283 0.950 . S
C259 C258 1.349 . S
C259 C275 1.349 . S
C260 C258 1.327 . S
C260 C279 1.429 . S
C260 H284 0.950 . S
C261 C278 1.574 . S
C261 C280 1.368 . S
C261 H285 0.949 . S
H262 C266 0.949 . S
C263 C264 1.349 . S
C263 C265 1.327 . S
C263 H286 0.950 . S
C264 C263 1.349 . S
C264 C276 1.349 . S
C265 C263 1.327 . S
C265 C281 1.429 . S
C265 H287 0.950 . S
C266 H262 0.949 . S
C266 C274 1.574 . S
C266 C282 1.368 . S
H267 C275 0.950 . S
H268 C273 0.950 . S
H269 C274 0.949 . S
H270 C276 0.950 . S
H271 C277 0.950 . S
H272 C278 0.949 . S
C273 H268 0.950 . S
C273 C275 1.327 . S
C273 C279 1.429 . S
C274 C266 1.574 . S
C274 H269 0.949 . S
C274 C280 1.368 . S
C275 C259 1.349 . S
C275 H267 0.950 . S
C275 C273 1.327 . S
C276 C264 1.349 . S
C276 H270 0.950 . S
C276 C277 1.327 . S
C277 H271 0.950 . S
C277 C276 1.327 . S
C277 C281 1.429 . S
C278 C261 1.574 . S
C278 H272 0.949 . S
C278 C282 1.368 . S
C279 C260 1.429 . S
C279 C273 1.429 . S
C279 C280 1.523 . S
C280 C261 1.368 . S
C280 C274 1.368 . S
C280 C279 1.523 . S
C281 C265 1.429 . S
C281 C277 1.429 . S
C281 C282 1.523 . S
C282 C266 1.368 . S
C282 C278 1.368 . S
C282 C281 1.523 . S
H283 C258 0.950 . S
H284 C260 0.950 . S
H285 C261 0.949 . S
H286 C263 0.950 . S
H287 C265 0.950 . S
C288 C289 1.349 . S
C288 C290 1.327 . S
C288 H313 0.950 . S
C289 C288 1.349 . S
C289 C305 1.349 . S
C290 C288 1.327 . S
C290 C309 1.429 . S
C290 H314 0.950 . S
C291 C308 1.574 . S
C291 C310 1.368 . S
C291 H315 0.949 . S
H292 C296 0.949 . S
C293 C294 1.349 . S
C293 C295 1.327 . S
C293 H316 0.950 . S
C294 C293 1.349 . S
C294 C306 1.349 . S
C295 C293 1.327 . S
C295 C311 1.429 . S
C295 H317 0.950 . S
C296 H292 0.949 . S
C296 C304 1.574 . S
C296 C312 1.368 . S
H297 C305 0.950 . S
H298 C303 0.950 . S
H299 C304 0.949 . S
H300 C306 0.950 . S
H301 C307 0.950 . S
H302 C308 0.949 . S
C303 H298 0.950 . S
C303 C305 1.327 . S
C303 C309 1.429 . S
C304 C296 1.574 . S
C304 H299 0.949 . S
C304 C310 1.368 . S
C305 C289 1.349 . S
C305 H297 0.950 . S
C305 C303 1.327 . S
C306 C294 1.349 . S
C306 H300 0.950 . S
C306 C307 1.327 . S
C307 H301 0.950 . S
C307 C306 1.327 . S
C307 C311 1.429 . S
C308 C291 1.574 . S
C308 H302 0.949 . S
C308 C312 1.368 . S
C309 C290 1.429 . S
C309 C303 1.429 . S
C309 C310 1.523 . S
C310 C291 1.368 . S
C310 C304 1.368 . S
C310 C309 1.523 . S
C311 C295 1.429 . S
C311 C307 1.429 . S
C311 C312 1.523 . S
C312 C296 1.368 . S
C312 C308 1.368 . S
C312 C311 1.523 . S
H313 C288 0.950 . S
H314 C290 0.950 . S
H315 C291 0.949 . S
H316 C293 0.950 . S
H317 C295 0.950 . S
C318 C319 1.349 . S
C318 C320 1.327 . S
C318 H343 0.950 . S
C319 C318 1.349 . S
C319 C335 1.349 . S
C320 C318 1.327 . S
C320 C339 1.429 . S
C320 H344 0.950 . S
C321 C338 1.574 . S
C321 C340 1.368 . S
C321 H345 0.949 . S
H322 C326 0.949 . S
C323 C324 1.349 . S
C323 C325 1.327 . S
C323 H346 0.950 . S
C324 C323 1.349 . S
C324 C336 1.349 . S
C325 C323 1.327 . S
C325 C341 1.429 . S
C325 H347 0.950 . S
C326 H322 0.949 . S
C326 C334 1.574 . S
C326 C342 1.368 . S
H327 C335 0.950 . S
H328 C333 0.950 . S
H329 C334 0.949 . S
H330 C336 0.950 . S
H331 C337 0.950 . S
H332 C338 0.949 . S
C333 H328 0.950 . S
C333 C335 1.327 . S
C333 C339 1.429 . S
C334 C326 1.574 . S
C334 H329 0.949 . S
C334 C340 1.368 . S
C335 C319 1.349 . S
C335 H327 0.950 . S
C335 C333 1.327 . S
C336 C324 1.349 . S
C336 H330 0.950 . S
C336 C337 1.327 . S
C337 H331 0.950 . S
C337 C336 1.327 . S
C337 C341 1.429 . S
C338 C321 1.574 . S
C338 H332 0.949 . S
C338 C342 1.368 . S
C339 C320 1.429 . S
C339 C333 1.429 . S
C339 C340 1.523 . S
C340 C321 1.368 . S
C340 C334 1.368 . S
C340 C339 1.523 . S
C341 C325 1.429 . S
C341 C337 1.429 . S
C341 C342 1.523 . S
C342 C326 1.368 . S
C342 C338 1.368 . S
C342 C341 1.523 . S
H343 C318 0.950 . S
H344 C320 0.950 . S
H345 C321 0.949 . S
H346 C323 0.950 . S
H347 C325 0.950 . S
C109 C27 0.097 . S
C114 C64 0.095 . S
C139 C32 2.093 . S
C144 C76 2.089 . S
C169 C28 1.141 . S
C174 C89 1.143 . S
C199 C5 2.089 . S
C204 C67 2.092 . S
C229 C22 2.089 . S
C234 C86 2.093 . S
C259 C82 1.141 . S
C264 C35 1.140 . S
C289 C13 2.093 . S
C294 C59 2.090 . S
C319 C81 0.097 . S
C324 C10 0.099 . S
