# Generated by pormake.
# Topology smc, (6)-cn, num edge types: 1
# Building blocks:
#     Node 0, Type 0, BuildingBlock: HISSIN_clean_sbu_0, # of connection points: 6
#     Node 1, Type 0, BuildingBlock: HISSIN_clean_sbu_0, # of connection points: 6
#     Node 2, Type 0, BuildingBlock: HISSIN_clean_sbu_0, # of connection points: 6
#     Node 3, Type 0, BuildingBlock: HISSIN_clean_sbu_0, # of connection points: 6
#     Node 4, Type 0, BuildingBlock: HISSIN_clean_sbu_0, # of connection points: 6
#     Node 5, Type 0, BuildingBlock: HISSIN_clean_sbu_0, # of connection points: 6
#     Node 6, Type 0, BuildingBlock: HISSIN_clean_sbu_0, # of connection points: 6
#     Node 7, Type 0, BuildingBlock: HISSIN_clean_sbu_0, # of connection points: 6
#     Node 8, Type 0, BuildingBlock: HISSIN_clean_sbu_0, # of connection points: 6
#     Edge 9, Type (0, 0), BuildingBlock: XIVTED_clean_linker_0, # of connection points: 2
#     Edge 10, Type (0, 0), BuildingBlock: XIVTED_clean_linker_0, # of connection points: 2
#     Edge 11, Type (0, 0), BuildingBlock: XIVTED_clean_linker_0, # of connection points: 2
#     Edge 12, Type (0, 0), BuildingBlock: XIVTED_clean_linker_0, # of connection points: 2
#     Edge 13, Type (0, 0), BuildingBlock: XIVTED_clean_linker_0, # of connection points: 2
#     Edge 14, Type (0, 0), BuildingBlock: XIVTED_clean_linker_0, # of connection points: 2
#     Edge 15, Type (0, 0), BuildingBlock: XIVTED_clean_linker_0, # of connection points: 2
#     Edge 16, Type (0, 0), BuildingBlock: XIVTED_clean_linker_0, # of connection points: 2
#     Edge 17, Type (0, 0), BuildingBlock: XIVTED_clean_linker_0, # of connection points: 2
#     Edge 18, Type (0, 0), BuildingBlock: XIVTED_clean_linker_0, # of connection points: 2
#     Edge 19, Type (0, 0), BuildingBlock: XIVTED_clean_linker_0, # of connection points: 2
#     Edge 20, Type (0, 0), BuildingBlock: XIVTED_clean_linker_0, # of connection points: 2
#     Edge 21, Type (0, 0), BuildingBlock: XIVTED_clean_linker_0, # of connection points: 2
#     Edge 22, Type (0, 0), BuildingBlock: XIVTED_clean_linker_0, # of connection points: 2
#     Edge 23, Type (0, 0), BuildingBlock: XIVTED_clean_linker_0, # of connection points: 2
#     Edge 24, Type (0, 0), BuildingBlock: XIVTED_clean_linker_0, # of connection points: 2
#     Edge 25, Type (0, 0), BuildingBlock: XIVTED_clean_linker_0, # of connection points: 2
#     Edge 26, Type (0, 0), BuildingBlock: XIVTED_clean_linker_0, # of connection points: 2
#     Edge 27, Type (0, 0), BuildingBlock: XIVTED_clean_linker_0, # of connection points: 2
#     Edge 28, Type (0, 0), BuildingBlock: XIVTED_clean_linker_0, # of connection points: 2
#     Edge 29, Type (0, 0), BuildingBlock: XIVTED_clean_linker_0, # of connection points: 2
#     Edge 30, Type (0, 0), BuildingBlock: XIVTED_clean_linker_0, # of connection points: 2
#     Edge 31, Type (0, 0), BuildingBlock: XIVTED_clean_linker_0, # of connection points: 2
#     Edge 32, Type (0, 0), BuildingBlock: XIVTED_clean_linker_0, # of connection points: 2
#     Edge 33, Type (0, 0), BuildingBlock: XIVTED_clean_linker_0, # of connection points: 2
#     Edge 34, Type (0, 0), BuildingBlock: XIVTED_clean_linker_0, # of connection points: 2
#     Edge 35, Type (0, 0), BuildingBlock: XIVTED_clean_linker_0, # of connection points: 2
# Relax obj value: 0.325
# Max RMSD: 0.372
# Mean RMSD: 0.323
data_MOF--net-smc--node1-HISSIN_clean_sbu_0--edge1-XIVTED_clean_linker_0
_symmetry_space_group_name_H-M    P1
_symmetry_Int_Tables_number       1
_symmetry_cell_setting            triclinic
loop_
_symmetry_equiv_pos_as_xyz
'x, y, z'
_cell_length_a     43.528961
_cell_length_b     32.955974
_cell_length_c     40.640719
_cell_angle_alpha  91.604604331
_cell_angle_beta   90.805088
_cell_angle_gamma 119.70318
loop_
_atom_site_label
_atom_site_type_symbol
_atom_site_fract_x
_atom_site_fract_y
_atom_site_fract_z
_atom_type_partial_charge
Eu0 Eu 1.04378 0.47331 0.03321 0.0
Eu1 Eu 0.07178 0.40969 0.99957 0.0
C2 C 1.01997 0.43098 0.95886 0.0
C3 C 0.99026 0.52621 0.07181 0.0
C4 C 0.95801 0.48412 0.07224 0.0
C5 C 0.9617 0.56809 0.09311 0.0
C6 C 0.92758 0.48412 0.08298 0.0
C7 C 0.99196 0.56803 0.08241 0.0
C8 C 0.92911 0.5262 0.09345 0.0
C9 C 1.02253 0.52755 0.06054 0.0
O10 O 0.11994 0.48366 1.00264 0.0
O11 O 0.08951 0.5233 1.00359 0.0
C12 C 0.11919 0.52291 1.00001 0.0
O13 O 0.08501 0.47342 0.06926 0.0
O14 O 0.06416 0.35674 0.96197 0.0
O15 O 0.11069 0.38669 0.99437 0.0
O16 O 0.07542 0.40094 0.05442 0.0
C17 C 0.08691 0.43586 0.07636 0.0
O18 O 1.00515 0.40237 0.05028 0.0
O19 O 1.01443 0.35846 0.01108 0.0
O20 O 0.05193 0.4365 0.95826 0.0
O21 O 1.03354 0.50366 0.07709 0.0
O22 O 1.02508 0.52343 0.02884 0.0
O23 O 1.00774 0.43531 0.9875 0.0
C24 C 0.11836 0.37446 0.93896 0.0
C25 C 0.14206 0.35767 0.93557 0.0
C26 C 0.14718 0.42829 0.89537 0.0
C27 C 0.16911 0.37739 0.91307 0.0
C28 C 0.12023 0.40865 0.91791 0.0
C29 C 0.17287 0.41439 0.89383 0.0
C30 C 0.0955 0.36189 0.96739 0.0
C31 C 0.99523 0.36248 0.03437 0.0
H32 H 0.95638 0.45147 0.06419 0.0
H33 H 0.9637 0.60123 0.10032 0.0
H34 H 0.90294 0.45126 0.08311 0.0
H35 H 1.01671 0.6008 0.08214 0.0
H36 H 0.14108 0.33153 0.95178 0.0
H37 H 0.14922 0.45638 0.88066 0.0
H38 H 0.18871 0.36626 0.91279 0.0
H39 H 0.1022 0.42224 0.92026 0.0
Eu40 Eu 0.56861 0.6027 0.98248 0.0
Eu41 Eu 0.63741 0.64552 0.02193 0.0
C42 C 0.57525 0.6103 0.06203 0.0
C43 C 0.48219 0.57092 0.93125 0.0
C44 C 0.45688 0.57437 0.95027 0.0
C45 C 0.44897 0.56663 0.88147 0.0
C46 C 0.42729 0.57269 0.93495 0.0
C47 C 0.47847 0.56836 0.89676 0.0
C48 C 0.42252 0.56726 0.90043 0.0
C49 C 0.51051 0.56475 0.94618 0.0
O50 O 0.62287 0.5646 0.01324 0.0
O51 O 0.56534 0.53305 0.99626 0.0
C52 C 0.59139 0.52593 1.00567 0.0
O53 O 0.61262 0.61549 0.94439 0.0
O54 O 0.66468 0.6765 0.06933 0.0
O55 O 0.69326 0.66837 0.02869 0.0
O56 O 0.65982 0.67266 0.97274 0.0
C57 C 0.64622 0.64937 0.94501 0.0
O58 O 0.57601 0.67668 0.98436 0.0
O59 O 0.62062 0.70611 0.02338 0.0
O60 O 0.59597 0.59484 0.05332 0.0
O61 O 0.54201 0.58972 0.93464 0.0
O62 O 0.51102 0.55918 0.9779 0.0
O63 O 0.56304 0.62377 0.03715 0.0
C64 C 0.70933 0.65758 0.08115 0.0
C65 C 0.69072 0.60931 0.08587 0.0
C66 C 0.76204 0.66223 0.10575 0.0
C67 C 0.7081 0.58732 0.09939 0.0
C68 C 0.74465 0.68413 0.09218 0.0
C69 C 0.74434 0.61333 0.10826 0.0
C70 C 0.69408 0.67879 0.06002 0.0
C71 C 0.59655 0.7114 1.00526 0.0
H72 H 0.4591 0.57632 0.97692 0.0
H73 H 0.44614 0.56288 0.85487 0.0
H74 H 0.40712 0.57271 0.95024 0.0
H75 H 0.49767 0.56557 0.88158 0.0
H76 H 0.66339 0.58828 0.07733 0.0
H77 H 0.79003 0.68325 0.11196 0.0
H78 H 0.69365 0.5497 0.10137 0.0
H79 H 0.75942 0.72137 0.08841 0.0
Eu80 Eu 0.5632 0.10492 0.03794 0.0
Eu81 Eu 0.48719 0.04283 0.00918 0.0
C82 C 0.5416 0.0932 0.95847 0.0
C83 C 0.66426 0.15937 0.06117 0.0
C84 C 0.68996 0.19269 0.08321 0.0
C85 C 0.70933 0.14548 0.03718 0.0
C86 C 0.72516 0.20308 0.08194 0.0
C87 C 0.67397 0.13518 0.03844 0.0
C88 C 0.73555 0.18024 0.05855 0.0
C89 C 0.62886 0.15489 0.06013 0.0
O90 O 0.50614 0.98631 0.0119 0.0
O91 O 0.5637 1.0349 0.02822 0.0
C92 C 0.53824 0.99205 0.01924 0.0
O93 O 0.52425 0.09047 0.08138 0.0
O94 O 0.44733 0.99955 0.9711 0.0
O95 O 0.43056 1.01651 0.01667 0.0
O96 O 0.48267 1.01998 0.06102 0.0
C97 C 0.49482 0.05028 0.08567 0.0
O98 O 0.55137 0.16423 0.04073 0.0
O99 O 0.50168 0.12588 1.00761 0.0
O100 O 0.51926 0.05074 0.96568 0.0
O101 O 0.61736 0.16003 0.03166 0.0
O102 O 0.60384 0.12238 0.07692 0.0
O103 O 0.55943 0.12326 0.98316 0.0
C104 C 0.3915 0.94155 0.99085 0.0
C105 C 0.35667 0.93181 0.9958 0.0
C106 C 0.36958 0.8572 0.98705 0.0
C107 C 0.32862 0.8855 0.99619 0.0
C108 C 0.39769 0.90366 0.98675 0.0
C109 C 0.33443 0.84724 0.99149 0.0
C110 C 0.4205 0.99118 0.98924 0.0
C111 C 0.52734 0.16676 0.02252 0.0
H112 H 0.68307 0.21214 0.10066 0.0
H113 H 0.71621 0.12676 0.01912 0.0
H114 H 0.74447 0.23063 0.09839 0.0
H115 H 0.65448 0.10941 0.02109 0.0
H116 H 0.35106 0.96019 0.99919 0.0
H117 H 0.3754 0.82912 0.98307 0.0
H118 H 0.30231 0.87982 1.00042 0.0
H119 H 0.42425 0.90989 0.98297 0.0
Eu120 Eu 0.6812 0.81318 0.35977 0.0
Eu121 Eu 0.74399 0.77397 0.34149 0.0
C122 C 0.6865 0.76505 0.28511 0.0
C123 C 0.60388 0.85419 0.36486 0.0
C124 C 0.60103 0.88103 0.33961 0.0
C125 C 0.5504 0.85129 0.38799 0.0
C126 C 0.57363 0.89267 0.33853 0.0
C127 C 0.57799 0.8399 0.38916 0.0
C128 C 0.54723 0.87776 0.36249 0.0
C129 C 0.63178 0.8385 0.36405 0.0
O130 O 0.76951 0.85208 0.3355 0.0
O131 O 0.73178 0.87891 0.35252 0.0
C132 C 0.76225 0.8858 0.34191 0.0
O133 O 0.71685 0.82359 0.40697 0.0
O134 O 0.77884 0.75112 0.31538 0.0
O135 O 0.79299 0.78104 0.36442 0.0
O136 O 0.72845 0.76393 0.39445 0.0
C137 C 0.72954 0.79556 0.41562 0.0
O138 O 0.65682 0.73934 0.37444 0.0
O139 O 0.68497 0.70887 0.34201 0.0
O140 O 0.71646 0.7652 0.29197 0.0
O141 O 0.63798 0.81641 0.38725 0.0
O142 O 0.65362 0.84858 0.33999 0.0
O143 O 0.67061 0.77904 0.30688 0.0
C144 C 0.84377 0.78595 0.33361 0.0
C145 C 0.87064 0.83055 0.34626 0.0
C146 C 0.89416 0.77367 0.3171 0.0
C147 C 0.90795 0.84621 0.34421 0.0
C148 C 0.85699 0.75828 0.31887 0.0
C149 C 0.92127 0.81815 0.3299 0.0
C150 C 0.80304 0.76551 0.33927 0.0
C151 C 0.65611 0.70451 0.3575 0.0
H152 H 0.61986 0.89263 0.32008 0.0
H153 H 0.5315 0.83924 0.40742 0.0
H154 H 0.57271 0.91248 0.31813 0.0
H155 H 0.57863 0.81902 0.40899 0.0
H156 H 0.86286 0.85354 0.35845 0.0
H157 H 0.9015 0.74998 0.30537 0.0
H158 H 0.92643 0.88041 0.35488 0.0
H159 H 0.83828 0.72355 0.30911 0.0
Eu160 Eu 0.25235 0.88304 0.31887 0.0
Eu161 Eu 0.2828 0.98712 0.32832 0.0
C162 C 0.30772 0.95725 0.26363 0.0
C163 C 0.23329 0.77724 0.26932 0.0
C164 C 0.20938 0.73495 0.25333 0.0
C165 C 0.28153 0.77722 0.24008 0.0
C166 C 0.22168 0.71243 0.2323 0.0
C167 C 0.26913 0.79953 0.26133 0.0
C168 C 0.25837 0.7317 0.22731 0.0
C169 C 0.22081 0.79873 0.29365 0.0
O170 O 0.22185 0.9606 0.31665 0.0
O171 O 0.20166 0.88593 0.33014 0.0
C172 C 0.19438 0.91911 0.32341 0.0
O173 O 0.26218 0.89461 0.37538 0.0
O174 O 0.29217 0.05488 0.31302 0.0
O175 O 0.31248 0.04906 0.36075 0.0
O176 O 0.25802 0.96036 0.37659 0.0
C177 C 0.261 0.92859 0.39239 0.0
O178 O 0.30483 0.89328 0.33499 0.0
O179 O 0.33133 0.97329 0.33749 0.0
O180 O 0.30404 0.99051 0.2778 0.0
O181 O 0.2372 0.80969 0.32257 0.0
O182 O 0.21613 0.83198 0.28221 0.0
O183 O 0.29058 0.91479 0.27526 0.0
C184 C 0.28643 0.09717 0.35714 0.0
C185 C 0.26876 0.08156 0.38686 0.0
C186 C 0.25749 0.1429 0.3492 0.0
C187 C 0.24525 0.09615 0.3974 0.0
C188 C 0.28137 0.12899 0.33896 0.0
C189 C 0.23866 0.12569 0.37803 0.0
C190 C 0.30507 0.07485 0.34198 0.0
C191 C 0.33345 0.93403 0.33954 0.0
H192 H 0.18144 0.71815 0.25841 0.0
H193 H 0.3097 0.79363 0.23626 0.0
H194 H 0.20255 0.67772 0.22289 0.0
H195 H 0.28785 0.83306 0.27282 0.0
H196 H 0.27189 0.05659 0.40125 0.0
H197 H 0.25322 0.1665 0.33426 0.0
H198 H 0.23113 0.08286 0.41986 0.0
H199 H 0.29455 0.14123 0.31592 0.0
Eu200 Eu 0.20411 0.44428 0.38121 0.0
Eu201 Eu 0.11469 0.39533 0.36291 0.0
C202 C 0.1664 0.40666 0.30671 0.0
C203 C 0.31205 0.49911 0.38317 0.0
C204 C 0.33125 0.53514 0.36118 0.0
C205 C 0.36782 0.49799 0.39419 0.0
C206 C 0.36784 0.55221 0.35589 0.0
C207 C 0.33125 0.48086 0.39937 0.0
C208 C 0.38734 0.53454 0.37256 0.0
C209 C 0.27423 0.48523 0.39285 0.0
O210 O 0.12322 0.34031 0.38639 0.0
O211 O 0.18164 0.3672 0.37328 0.0
C212 C 0.15098 0.33471 0.38363 0.0
O213 O 0.17064 0.42477 0.42978 0.0
O214 O 0.07034 0.37402 0.32789 0.0
O215 O 0.06095 0.36553 0.38014 0.0
O216 O 0.12844 0.43925 0.40925 0.0
C217 C 0.14168 0.42856 0.43438 0.0
O218 O 0.18786 0.49899 0.37973 0.0
O219 O 0.14284 0.46613 0.34127 0.0
O220 O 0.13881 0.37499 0.32179 0.0
O221 O 0.25162 0.44266 0.4008 0.0
O222 O 0.25796 0.50515 0.37948 0.0
O223 O 0.19416 0.43932 0.32431 0.0
C224 C 1.01802 0.30837 0.3439 0.0
C225 C 1.02374 0.27062 0.34868 0.0
C226 C 0.95652 0.25409 0.32916 0.0
C227 C 0.99585 0.22479 0.34418 0.0
C228 C 0.98444 0.29993 0.33378 0.0
C229 C 0.96179 0.21596 0.33471 0.0
C230 C 0.04671 0.35643 0.35047 0.0
C231 C 0.17209 0.50249 0.35306 0.0
H232 H 0.31821 0.55122 0.34853 0.0
H233 H 0.38077 0.48229 0.40741 0.0
H234 H 0.38105 0.58057 0.33934 0.0
H235 H 0.3181 0.45376 0.4169 0.0
H236 H 0.04962 0.27664 0.3565 0.0
H237 H 0.93077 0.24852 0.32136 0.0
H238 H 1.00077 0.19634 0.34909 0.0
H239 H 0.9797 0.32879 0.32985 0.0
Eu240 Eu 0.38343 0.12966 0.68884 0.0
Eu241 Eu 0.40645 0.05323 0.68172 0.0
C242 C 0.36517 0.06463 0.62056 0.0
C243 C 0.33818 0.20431 0.70537 0.0
C244 C 0.30334 0.17328 0.69424 0.0
C245 C 0.31872 0.25477 0.73079 0.0
C246 C 0.27631 0.18335 0.70108 0.0
C247 C 0.34559 0.24477 0.72387 0.0
C248 C 0.28383 0.2245 0.71917 0.0
C249 C 0.36753 0.19589 0.69824 0.0
O250 O 0.45749 0.12624 0.68426 0.0
O251 O 0.43211 0.16294 0.65909 0.0
C252 C 0.46075 0.16289 0.6688 0.0
O253 O 0.42226 0.14096 0.73269 0.0
O254 O 0.43413 1.0227 0.65589 0.0
O255 O 0.40978 0.99453 0.70193 0.0
O256 O 0.4035 0.06436 0.73582 0.0
C257 C 0.42057 0.10623 0.7495 0.0
O258 O 0.3388 0.06644 0.7107 0.0
O259 O 0.34579 1.0114 0.68151 0.0
O260 O 0.39126 0.05804 0.62975 0.0
O261 O 0.37755 0.1786 0.72174 0.0
O262 O 0.36768 0.17793 0.66929 0.0
O263 O 0.35399 0.08635 0.64104 0.0
C264 C 0.46968 1.01564 0.69577 0.0
C265 C 0.47872 1.04104 0.72621 0.0
C266 C 0.52998 0.0632 0.67913 0.0
C267 C 0.51193 0.08068 0.73125 0.0
C268 C 0.49671 1.02367 0.67408 0.0
C269 C 0.5365 0.09417 0.70624 0.0
C270 C 0.43407 0.99945 0.68139 0.0
C271 C 0.32591 1.02347 0.69883 0.0
H272 H 0.29711 0.14165 0.68007 0.0
H273 H 0.3253 0.28623 0.74533 0.0
H274 H 0.24976 0.15948 0.69161 0.0
H275 H 0.37232 0.26886 0.7329 0.0
H276 H 0.45871 1.0348 0.74394 0.0
H277 H 0.54922 0.07222 0.66007 0.0
H278 H 0.51665 0.10344 0.75275 0.0
H279 H 0.49061 1.00416 0.65072 0.0
Eu280 Eu 0.88793 0.27576 0.66015 0.0
Eu281 Eu 0.9557 0.31212 0.69903 0.0
C282 C 0.89579 0.28581 0.74073 0.0
C283 C 0.80219 0.26599 0.63877 0.0
C284 C 0.81082 0.30093 0.66348 0.0
C285 C 0.74773 0.26611 0.6266 0.0
C286 C 0.78773 0.31765 0.67025 0.0
C287 C 0.7712 0.2499 0.61954 0.0
C288 C 0.75512 0.29876 0.65298 0.0
C289 C 0.82499 0.24536 0.63459 0.0
O290 O 0.93823 0.23041 0.69397 0.0
O291 O 0.88595 0.20434 0.66568 0.0
C292 C 0.90848 0.19417 0.68044 0.0
O293 O 0.93005 0.29917 0.61893 0.0
O294 O 0.98372 0.32413 0.74653 0.0
O295 O 1.0128 0.35821 0.70373 0.0
O296 O 0.97662 0.3069 0.64988 0.0
C297 C 0.9632 0.30744 0.6211 0.0
O298 O 0.8979 0.34995 0.66002 0.0
O299 O 0.94291 0.37722 0.69802 0.0
O300 O 0.91516 0.26758 0.73385 0.0
O301 O 0.85371 0.27033 0.61851 0.0
O302 O 0.83104 0.22905 0.66136 0.0
O303 O 0.88594 0.30039 0.71479 0.0
C304 C 1.04021 0.33257 0.74096 0.0
C305 C 1.03404 0.28944 0.72751 0.0
C306 C 0.09743 0.34811 0.76244 0.0
C307 C 0.05964 0.276 0.73103 0.0
C308 C 0.07174 0.36153 0.75887 0.0
C309 C 0.0919 0.30556 0.74803 0.0
C310 C 1.01484 0.34853 0.73424 0.0
C311 C 0.91946 0.38433 0.68019 0.0
H312 H 0.83458 0.31364 0.67876 0.0
H313 H 0.72259 0.25022 0.61308 0.0
H314 H 0.79429 0.34297 0.6905 0.0
H315 H 0.7643 0.22314 0.60026 0.0
H316 H 1.00986 0.26682 0.7134 0.0
H317 H 0.12184 0.37136 0.776 0.0
H318 H 0.05472 0.24336 0.71924 0.0
H319 H 0.07684 0.39495 0.7694 0.0
Eu320 Eu 0.88315 0.77638 0.70066 0.0
Eu321 Eu 0.80405 0.70941 0.68001 0.0
C322 C 0.84896 0.76265 0.62398 0.0
C323 C 0.988 0.83695 0.71374 0.0
C324 C 0.99939 0.81326 0.69221 0.0
C325 C 0.04882 0.88454 0.7349 0.0
C326 C 1.03531 0.82548 0.69185 0.0
C327 C 1.01303 0.87215 0.73534 0.0
C328 C 0.06077 0.8619 0.71286 0.0
C329 C 0.95167 0.83043 0.71153 0.0
O330 O 0.82613 0.65593 0.68017 0.0
O331 O 0.88327 0.70562 0.69705 0.0
C332 C 0.85831 0.6625 0.68828 0.0
O333 O 0.84912 0.76505 0.74812 0.0
O334 O 0.76073 0.66413 0.64501 0.0
O335 O 0.74846 0.67461 0.6946 0.0
O336 O 0.80795 0.69229 0.73201 0.0
C337 C 0.82042 0.72508 0.755 0.0
O338 O 0.87001 0.8337 0.70702 0.0
O339 O 0.81561 0.79196 0.68089 0.0
O340 O 0.82952 0.7196 0.6319 0.0
O341 O 0.92957 0.80989 0.73499 0.0
O342 O 0.9359 0.82109 0.68254 0.0
O343 O 0.86975 0.7929 0.64763 0.0
C344 C 0.71154 0.59794 0.66819 0.0
C345 C 0.7012 0.57462 0.69806 0.0
C346 C 0.67292 0.5227 0.639 0.0
C347 C 0.67697 0.52609 0.69835 0.0
C348 C 0.69703 0.57103 0.63874 0.0
C349 C 0.66207 0.49917 0.66879 0.0
C350 C 0.73637 0.64993 0.66698 0.0
C351 C 0.84277 0.83406 0.6933 0.0
H352 H 0.98071 0.78611 0.6751 0.0
H353 H 0.06728 0.91329 0.75107 0.0
H354 H 1.04312 0.80662 0.67484 0.0
H355 H 1.00511 0.89151 0.75181 0.0
H356 H 0.71156 0.59389 0.72134 0.0
H357 H 0.66292 0.50374 0.61558 0.0
H358 H 0.6693 0.50994 0.72189 0.0
H359 H 0.70423 0.58752 0.61525 0.0
H360 H 0.38433 0.49931 0.85317 0.0
H361 H 0.21139 0.50963 0.89463 0.0
H362 H 0.38192 0.60815 0.91273 0.0
H363 H 0.21213 0.38627 0.8571 0.0
H364 H 0.27363 0.55648 0.88214 0.0
H365 H 0.3226 0.46972 0.83643 0.0
C366 C 0.37113 0.51784 0.862 0.0
C367 C 0.38806 0.55578 0.88487 0.0
C368 C 0.25997 0.51934 0.87587 0.0
C369 C 0.31732 0.52157 0.86616 0.0
C370 C 0.22427 0.49252 0.8827 0.0
C371 C 0.20672 0.44371 0.87756 0.0
C372 C 0.27826 0.49718 0.86405 0.0
C373 C 0.22495 0.42363 0.86223 0.0
C374 C 0.33582 0.50071 0.85256 0.0
C375 C 0.36956 0.57816 0.89565 0.0
N376 N 0.25999 0.45034 0.85661 0.0
N377 N 0.33497 0.56026 0.88659 0.0
H378 H 0.59942 0.98948 0.04075 0.0
H379 H 0.54123 0.72112 0.97775 0.0
H380 H 0.49806 0.8964 0.99431 0.0
H381 H 0.63384 0.80266 0.04008 0.0
H382 H 0.5275 0.78494 0.98138 0.0
H383 H 0.61377 0.92572 0.03867 0.0
C384 C 0.57982 0.95587 0.02999 0.0
C385 C 0.54695 0.95031 0.0178 0.0
C386 C 0.55094 0.78948 0.99436 0.0
C387 C 0.56431 0.87369 0.01494 0.0
C388 C 0.55916 0.7523 0.99228 0.0
C389 C 0.58928 0.75436 0.00846 0.0
C390 C 0.5728 0.83174 0.01265 0.0
C391 C 0.61036 0.79749 0.02683 0.0
C392 C 0.5883 0.91875 0.02886 0.0
C393 C 0.52367 0.90427 1.0043 0.0
N394 N 0.60196 0.83341 0.02815 0.0
N395 N 0.53273 0.86906 1.00318 0.0
H396 H 0.33258 0.76694 0.01375 0.0
H397 H 0.12365 0.60348 0.97867 0.0
H398 H 0.26592 0.81298 0.96746 0.0
H399 H 0.18983 0.54756 0.00989 0.0
H400 H 0.17606 0.68016 0.97495 0.0
H401 H 0.28193 0.68714 0.01305 0.0
C402 C 0.30751 0.76052 1.00322 0.0
C403 C 0.3039 0.79757 0.99087 0.0
C404 C 0.17935 0.65124 0.98245 0.0
C405 C 0.24526 0.70552 0.99039 0.0
C406 C 0.14927 0.60715 0.98458 0.0
C407 C 0.15205 0.56858 0.99468 0.0
C408 C 0.21296 0.6577 0.99082 0.0
C409 C 0.18626 0.57604 1.00185 0.0
C410 C 0.27847 0.71475 1.00299 0.0
C411 C 0.27027 0.78639 0.97799 0.0
N412 N 0.21528 0.61969 1.00007 0.0
N413 N 0.24252 0.74181 0.97823 0.0
H414 H 0.48835 0.2052 0.98756 0.0
H415 H 0.63156 0.48518 0.03257 0.0
H416 H 0.58262 0.25215 0.04811 0.0
H417 H 0.53107 0.44112 0.9838 0.0
H418 H 0.61534 0.4018 0.03586 0.0
H419 H 0.5034 0.28836 0.98345 0.0
C420 C 0.5121 0.23213 1.00021 0.0
C421 C 0.53357 0.21866 0.01859 0.0
C422 C 0.59663 0.40998 0.02427 0.0
C423 C 0.55208 0.31846 0.01334 0.0
C424 C 0.60613 0.45866 0.02227 0.0
C425 C 0.58322 0.47298 1.00771 0.0
C426 C 0.56357 0.37272 0.01146 0.0
C427 C 0.55042 0.43412 0.99534 0.0
C428 C 0.52092 0.28068 0.99775 0.0
C429 C 0.56428 0.25816 0.0337 0.0
N430 N 0.54203 0.38752 0.99738 0.0
N431 N 0.57223 0.30432 0.0307 0.0
H432 H 0.77214 0.18819 1.00199 0.0
H433 H 0.95939 0.34431 0.09132 0.0
H434 H 0.7869 0.20723 0.10772 0.0
H435 H 0.9485 0.29416 0.99033 0.0
H436 H 0.89645 0.29075 0.09812 0.0
H437 H 0.83611 0.22251 0.99713 0.0
C438 C 0.78863 0.19873 0.02425 0.0
C439 C 0.77387 0.19525 0.05533 0.0
C440 C 0.90782 0.29073 0.0746 0.0
C441 C 0.84747 0.23559 0.04978 0.0
C442 C 0.94382 0.32129 0.07073 0.0
C443 C 0.95919 0.32367 0.04022 0.0
C444 C 0.88669 0.26293 0.04755 0.0
C445 C 0.93774 0.29314 0.01435 0.0
C446 C 0.82528 0.21861 0.0214 0.0
C447 C 0.79694 0.2102 0.08318 0.0
N448 N 0.90242 0.26458 0.01842 0.0
N449 N 0.83248 0.23018 0.07971 0.0
H450 H 0.86263 0.47761 0.06459 0.0
H451 H 0.79814 0.6383 0.15449 0.0
H452 H 0.92178 0.57774 0.1438 0.0
H453 H 0.73812 0.53479 0.07734 0.0
H454 H 0.83897 0.6076 0.15749 0.0
H455 H 0.81219 0.48851 0.07557 0.0
C456 C 0.86482 0.50124 0.0847 0.0
C457 C 0.89672 0.52737 0.10294 0.0
C458 C 0.81651 0.59108 0.14031 0.0
C459 C 0.83922 0.54072 0.11526 0.0
C460 C 0.79323 0.60865 0.13856 0.0
C461 C 0.76491 0.5895 0.11535 0.0
C462 C 0.81161 0.55437 0.11848 0.0
C463 C 0.75948 0.55062 0.09569 0.0
C464 C 0.83604 0.50768 0.09085 0.0
C465 C 0.89801 0.55775 0.12856 0.0
N466 N 0.78292 0.53483 0.09736 0.0
N467 N 0.86986 0.56405 0.13367 0.0
H468 H 0.95632 0.76478 0.32582 0.0
H469 H 0.16259 0.97747 0.31962 0.0
H470 H 0.98307 0.90933 0.33141 0.0
H471 H 0.1324 0.83271 0.32807 0.0
H472 H 0.09911 0.95516 0.32128 0.0
H473 H 1.01955 0.7897 0.3239 0.0
C474 C 0.97495 0.80189 0.32641 0.0
C475 C 0.96223 0.8342 0.32871 0.0
C476 C 0.1062 0.92807 0.32273 0.0
C477 C 1.03828 0.86419 0.32652 0.0
C478 C 0.14304 0.94096 0.32169 0.0
C479 C 0.15452 0.90746 0.32363 0.0
C480 C 0.07913 0.88073 0.32545 0.0
C481 C 0.12628 0.86067 0.32646 0.0
C482 C 1.01188 0.8163 0.32549 0.0
C483 C 0.98992 0.88199 0.3299 0.0
N484 N 0.09102 0.84919 0.32712 0.0
N485 N 1.02561 0.89503 0.32866 0.0
H486 H 0.18741 0.32492 0.43368 0.0
H487 H 0.18245 0.11454 0.34095 0.0
H488 H 0.11095 0.24739 0.3554 0.0
H489 H 0.23504 0.1668 0.43591 0.0
H490 H 0.14661 0.15138 0.35162 0.0
H491 H 0.19568 0.25788 0.44197 0.0
C492 C 0.1717 0.29305 0.41885 0.0
C493 C 0.14887 0.29131 0.39363 0.0
C494 C 0.16531 0.15391 0.37054 0.0
C495 C 0.15894 0.21535 0.40199 0.0
C496 C 0.18585 0.13311 0.36435 0.0
C497 C 0.21215 0.13885 0.38731 0.0
C498 C 0.17188 0.18157 0.39952 0.0
C499 C 0.21527 0.16229 0.41748 0.0
C500 C 0.17633 0.25479 0.42355 0.0
C501 C 0.12895 0.2497 0.37498 0.0
N502 N 0.19594 0.18386 0.42242 0.0
N503 N 0.13511 0.21352 0.37896 0.0
H504 H 0.96106 0.13718 0.3095 0.0
H505 H 0.75934 0.96617 0.35358 0.0
H506 H 0.89381 0.1836 0.35423 0.0
H507 H 0.82977 0.91725 0.32067 0.0
H508 H 0.80691 0.04641 0.34892 0.0
H509 H 0.91191 0.05676 0.30873 0.0
C510 C 0.93598 0.13051 0.31915 0.0
C511 C 0.93165 0.16728 0.33207 0.0
C512 C 0.81194 1.01812 0.34262 0.0
C513 C 0.87519 0.07534 0.33096 0.0
C514 C 0.78473 0.97217 0.34523 0.0
C515 C 0.7905 0.93468 0.33767 0.0
C516 C 0.84525 1.02687 0.33233 0.0
C517 C 0.82404 0.94491 0.32689 0.0
C518 C 0.90789 0.08461 0.31857 0.0
C519 C 0.89833 0.15656 0.34367 0.0
N520 N 0.85017 0.99003 0.32464 0.0
N521 N 0.87146 0.11161 0.34294 0.0
H522 H 0.23229 0.6544 0.18291 0.0
H523 H 0.24303 0.56721 0.35755 0.0
H524 H 0.31764 0.73163 0.25347 0.0
H525 H 0.15049 0.51622 0.2931 0.0
H526 H 0.27978 0.61167 0.31249 0.0
H527 H 0.21663 0.58312 0.21168 0.0
C528 C 0.24905 0.6562 0.20351 0.0
C529 C 0.27227 0.69948 0.21939 0.0
C530 C 0.25145 0.59029 0.30822 0.0
C531 C 0.25589 0.61941 0.25127 0.0
C532 C 0.23037 0.5655 0.33406 0.0
C533 C 0.19359 0.53758 0.3291 0.0
C534 C 0.23558 0.58767 0.27735 0.0
C535 C 0.1787 0.53727 0.29817 0.0
C536 C 0.2396 0.6155 0.22033 0.0
C537 C 0.29601 0.69926 0.24311 0.0
N538 N 0.19974 0.56198 0.27354 0.0
N539 N 0.28569 0.6601 0.26025 0.0
H540 H 0.42877 0.57559 0.31766 0.0
H541 H 0.61755 0.64547 0.40587 0.0
H542 H 0.43964 0.54025 0.41687 0.0
H543 H 0.60765 0.6747 0.30513 0.0
H544 H 0.55273 0.60172 0.40861 0.0
H545 H 0.49274 0.60843 0.31166 0.0
C546 C 0.44423 0.57462 0.33839 0.0
C547 C 0.42749 0.55449 0.36799 0.0
C548 C 0.56449 0.61647 0.38551 0.0
C549 C 0.50265 0.59263 0.36082 0.0
C550 C 0.60185 0.64078 0.38368 0.0
C551 C 0.61899 0.66242 0.3547 0.0
C552 C 0.543 0.61414 0.35838 0.0
C553 C 0.59631 0.65713 0.3276 0.0
C554 C 0.48118 0.59332 0.33473 0.0
C555 C 0.45019 0.55435 0.39332 0.0
N556 N 0.56004 0.63422 0.33018 0.0
N557 N 0.48598 0.57301 0.3892 0.0
H558 H 0.40528 0.99965 0.32719 0.0
H559 H 0.47776 0.82598 0.38377 0.0
H560 H 0.34069 0.8634 0.36587 0.0
H561 H 0.54482 0.95473 0.33633 0.0
H562 H 0.42915 0.84294 0.38004 0.0
H563 H 0.4574 0.98829 0.333 0.0
C564 C 0.4019 0.96774 0.33737 0.0
C565 C 0.36783 0.9327 0.34613 0.0
C566 C 0.45447 0.86774 0.37044 0.0
C567 C 0.4282 0.91899 0.35262 0.0
C568 C 0.48275 0.85814 0.37279 0.0
C569 C 0.51648 0.88868 0.36051 0.0
C570 C 0.45899 0.90864 0.35579 0.0
C571 C 0.51976 0.92935 0.34598 0.0
C572 C 0.43182 0.96102 0.34044 0.0
C573 C 0.36588 0.89177 0.35863 0.0
N574 N 0.49184 0.93801 0.34414 0.0
N575 N 0.39505 0.88628 0.36142 0.0
H576 H 0.70317 0.30828 0.62046 0.0
H577 H 0.58474 0.14865 0.7554 0.0
H578 H 0.73973 0.29951 0.71784 0.0
H579 H 0.55173 0.1518 0.65542 0.0
H580 H 0.6357 0.22709 0.74989 0.0
H581 H 0.64399 0.28001 0.64142 0.0
C582 C 0.69905 0.30195 0.64647 0.0
C583 C 0.72587 0.30369 0.66699 0.0
C584 C 0.61693 0.21094 0.72935 0.0
C585 C 0.65842 0.2701 0.6908 0.0
C586 C 0.58813 0.16609 0.73243 0.0
C587 C 0.56536 0.14301 0.70522 0.0
C588 C 0.62282 0.23233 0.6988 0.0
C589 C 0.56998 0.16753 0.67637 0.0
C590 C 0.66525 0.28572 0.65846 0.0
C591 C 0.71955 0.29709 0.70076 0.0
N592 N 0.59855 0.2105 0.6737 0.0
N593 N 0.68609 0.27886 0.71141 0.0
H594 H 0.86706 0.39612 0.6491 0.0
H595 H 0.91919 0.66149 0.71276 0.0
H596 H 0.95521 0.47521 0.71692 0.0
H597 H 0.82012 0.56683 0.66312 0.0
H598 H 0.9347 0.59877 0.71238 0.0
H599 H 0.85267 0.45898 0.65189 0.0
C600 C 0.88389 0.42651 0.66478 0.0
C601 C 0.91292 0.42799 0.68276 0.0
C602 C 0.90948 0.59124 0.70151 0.0
C603 C 0.89571 0.50477 0.68568 0.0
C604 C 0.90033 0.62774 0.70164 0.0
C605 C 0.86772 0.6214 0.68801 0.0
C606 C 0.88651 0.5461 0.68715 0.0
C607 C 0.84545 0.57528 0.67419 0.0
C608 C 0.87528 0.46325 0.66627 0.0
C609 C 0.93267 0.47046 0.70221 0.0
N610 N 0.85519 0.54073 0.67401 0.0
N611 N 0.92396 0.50616 0.70289 0.0
H612 H 0.65621 0.4308 0.71158 0.0
H613 H 0.47793 0.22678 0.62164 0.0
H614 H 0.60463 0.448 0.62598 0.0
H615 H 0.52147 0.20313 0.71013 0.0
H616 H 0.52802 0.30592 0.62115 0.0
H617 H 0.61089 0.34743 0.71056 0.0
C618 C 0.63547 0.41743 0.69259 0.0
C619 C 0.63478 0.44741 0.66876 0.0
C620 C 0.52707 0.28359 0.6406 0.0
C621 C 0.58251 0.35087 0.66737 0.0
C622 C 0.49838 0.23797 0.64079 0.0
C623 C 0.49522 0.2077 0.66588 0.0
C624 C 0.55328 0.30027 0.66593 0.0
C625 C 0.5228 0.2248 0.69005 0.0
C626 C 0.60962 0.3695 0.69196 0.0
C627 C 0.60716 0.42697 0.64463 0.0
N628 N 0.55043 0.26996 0.68965 0.0
N629 N 0.58245 0.38059 0.64467 0.0
H630 H 0.89157 0.91578 0.72755 0.0
H631 H 0.85145 0.11293 0.64974 0.0
H632 H 0.80802 0.87614 0.65456 0.0
H633 H 0.94092 0.14769 0.71418 0.0
H634 H 0.83394 1.02941 0.65196 0.0
H635 H 0.90682 0.99741 0.72398 0.0
C636 C 0.87573 0.92328 0.7107 0.0
C637 C 0.84763 0.88559 0.69164 0.0
C638 C 0.85748 0.05488 0.6657 0.0
C639 C 0.86648 0.98555 0.68726 0.0
C640 C 0.86787 0.10378 0.66446 0.0
C641 C 0.89845 0.14037 0.68161 0.0
C642 C 0.8771 1.03945 0.68464 0.0
C643 C 0.91739 0.12299 0.70009 0.0
C644 C 0.88495 0.9714 0.70869 0.0
C645 C 0.82946 0.90152 0.67051 0.0
N646 N 0.90656 0.07532 0.70107 0.0
N647 N 0.83903 0.94893 0.66906 0.0
H648 H 0.0996 0.86458 0.6585 0.0
H649 H 0.28653 1.02058 0.75099 0.0
H650 H 0.11166 0.89608 0.76331 0.0
H651 H 0.27746 0.95341 0.656 0.0
H652 H 0.22231 0.97577 0.75514 0.0
H653 H 0.16371 0.89652 0.65608 0.0
C654 C 0.11544 0.87756 0.68112 0.0
C655 C 0.09969 0.87782 0.71115 0.0
C656 C 0.23423 0.97022 0.73352 0.0
C657 C 0.17373 0.91555 0.70826 0.0
C658 C 0.27101 0.99581 0.73116 0.0
C659 C 0.28752 0.9906 0.70319 0.0
C660 C 0.21332 0.93967 0.7074 0.0
C661 C 0.26591 0.95811 0.67819 0.0
C662 C 0.15221 0.89607 0.67962 0.0
C663 C 0.12222 0.89598 0.73939 0.0
N664 N 0.2299 0.93436 0.68066 0.0
N665 N 0.15785 0.91437 0.73717 0.0
H666 H 0.28902 0.31049 0.7166 0.0
H667 H 0.08635 0.21976 0.75671 0.0
H668 H 0.21477 0.16652 0.73568 0.0
H669 H 0.16262 0.36366 0.73966 0.0
H670 H 0.13322 0.19967 0.75158 0.0
H671 H 0.24325 0.33067 0.72732 0.0
C672 C 0.26313 0.28312 0.72331 0.0
C673 C 0.2558 0.23673 0.72537 0.0
C674 C 0.13972 0.23569 0.74921 0.0
C675 C 0.20293 0.25958 0.73726 0.0
C676 C 0.11298 0.24717 0.75205 0.0
C677 C 0.12052 0.29345 0.74847 0.0
C678 C 0.17424 0.27071 0.74261 0.0
C679 C 0.15559 0.32763 0.74294 0.0
C680 C 0.23692 0.29466 0.72929 0.0
C681 C 0.2215 0.20263 0.73348 0.0
N682 N 0.18105 0.31551 0.73997 0.0
N683 N 0.19631 0.21474 0.73912 0.0
H684 H 0.20459 0.48118 0.266 0.0
H685 H 0.07769 0.35666 0.10572 0.0
H686 H 0.11624 0.34068 0.26363 0.0
H687 H 0.13005 0.50615 0.12262 0.0
H688 H 0.10055 0.34976 0.15942 0.0
H689 H 0.18711 0.49033 0.20974 0.0
C690 C 0.18182 0.4521 0.25366 0.0
C691 C 0.16161 0.41041 0.27021 0.0
C692 C 0.10721 0.38416 0.15141 0.0
C693 C 0.1418 0.42024 0.20519 0.0
C694 C 0.09416 0.3882 0.12057 0.0
C695 C 0.10166 0.43209 0.1093 0.0
C696 C 0.12873 0.42432 0.17143 0.0
C697 C 0.12326 0.47151 0.13013 0.0
C698 C 0.17175 0.45743 0.22153 0.0
C699 C 0.13266 0.37372 0.25236 0.0
N700 N 0.13611 0.46675 0.15995 0.0
N701 N 0.12377 0.37948 0.22117 0.0
H702 H 0.69589 0.70554 0.24308 0.0
H703 H 0.57518 0.69042 0.08837 0.0
H704 H 0.63451 0.77526 0.25099 0.0
H705 H 0.59275 0.57789 0.11551 0.0
H706 H 0.6003 0.72939 0.14305 0.0
H707 H 0.66452 0.66786 0.19105 0.0
C708 C 0.67607 0.71347 0.23384 0.0
C709 C 0.6682 0.74408 0.25192 0.0
C710 C 0.59802 0.69575 0.13712 0.0
C711 C 0.6317 0.70041 0.19115 0.0
C712 C 0.58323 0.67315 0.10598 0.0
C713 C 0.58133 0.63025 0.09704 0.0
C714 C 0.6118 0.67597 0.15923 0.0
C715 C 0.59335 0.61064 0.12096 0.0
C716 C 0.65789 0.69151 0.20403 0.0
C717 C 0.64169 0.75206 0.2382 0.0
N718 N 0.60838 0.63373 0.15028 0.0
N719 N 0.62468 0.73079 0.20868 0.0
H720 H 0.48871 0.10971 0.13309 0.0
H721 H 0.32468 0.8995 0.22536 0.0
H722 H 0.44583 0.96379 0.10628 0.0
H723 H 0.35421 0.04442 0.24039 0.0
H724 H 0.37139 0.92258 0.1847 0.0
H725 H 0.44372 0.08737 0.17579 0.0
C726 C 0.47046 0.07302 0.13646 0.0
C727 C 0.47173 1.03884 0.11576 0.0
C728 C 0.36762 0.94942 0.19679 0.0
C729 C 0.41913 1.01262 0.1649 0.0
C730 C 0.34063 0.93611 0.22007 0.0
C731 C 0.33465 0.96969 0.23655 0.0
C732 C 0.38965 0.99699 0.18979 0.0
C733 C 0.35709 1.01681 0.22842 0.0
C734 C 0.44436 0.06018 0.16075 0.0
C735 C 0.44641 0.99176 0.12138 0.0
N736 N 0.38329 1.02884 0.20603 0.0
N737 N 0.42158 0.98029 0.14504 0.0
H738 H 0.52718 0.04214 0.90122 0.0
H739 H 0.47081 0.18815 0.78465 0.0
H740 H 0.54031 0.17328 0.93935 0.0
H741 H 0.41772 1.03775 0.78746 0.0
H742 H 0.50669 0.19279 0.8342 0.0
H743 H 0.50064 0.05089 0.85061 0.0
C744 C 0.52552 0.07364 0.89859 0.0
C745 C 0.53638 0.10707 0.9248 0.0
C746 C 0.48704 0.15893 0.82384 0.0
C747 C 0.50467 0.11686 0.86638 0.0
C748 C 0.4664 0.15622 0.79563 0.0
C749 C 0.44101 0.11245 0.78139 0.0
C750 C 0.48281 0.11761 0.83747 0.0
C751 C 0.43691 0.07241 0.79692 0.0
C752 C 0.50986 0.07832 0.86971 0.0
C753 C 0.53293 0.14689 0.91974 0.0
N754 N 0.45763 0.07601 0.82348 0.0
N755 N 0.51708 0.15049 0.89129 0.0
H756 H 0.9492 0.36428 0.95199 0.0
H757 H 0.92587 0.38006 0.75796 0.0
H758 H 1.03791 0.45622 0.8948 0.0
H759 H 0.88582 0.2457 0.80072 0.0
H760 H 0.95437 0.41791 0.81146 0.0
H761 H 0.91375 0.32988 0.90039 0.0
C762 C 0.96105 0.37799 0.92869 0.0
C763 C 0.9967 0.41359 0.92797 0.0
C764 C 0.9386 0.38015 0.80929 0.0
C765 C 0.95578 0.37474 0.86858 0.0
C766 C 0.92187 0.35839 0.77874 0.0
C767 C 0.9028 0.30929 0.77454 0.0
C768 C 0.93556 0.35292 0.83644 0.0
C769 C 0.89957 0.28352 0.80271 0.0
C770 C 0.94082 0.35806 0.89922 0.0
C771 C 1.0106 0.42909 0.89675 0.0
N772 N 0.91553 0.30545 0.83226 0.0
N773 N 0.99016 0.41003 0.86852 0.0
H774 H 0.82699 0.78467 0.80996 0.0
H775 H 0.63746 0.59909 0.88508 0.0
H776 H 0.75994 0.64457 0.76987 0.0
H777 H 0.71227 0.72659 0.93757 0.0
H778 H 0.68027 0.61823 0.8408 0.0
H779 H 0.78496 0.76725 0.85511 0.0
C780 C 0.80387 0.75024 0.81059 0.0
C781 C 0.7978 0.71627 0.78554 0.0
C782 C 0.68735 0.6422 0.86196 0.0
C783 C 0.74835 0.69609 0.83744 0.0
C784 C 0.6626 0.63127 0.88736 0.0
C785 C 0.67066 0.66097 0.91566 0.0
C786 C 0.72076 0.68361 0.86418 0.0
C787 C 0.70433 0.70216 0.91661 0.0
C788 C 0.77957 0.74027 0.83644 0.0
C789 C 0.76653 0.67238 0.78817 0.0
N790 N 0.7277 0.7121 0.89162 0.0
N791 N 0.7434 0.66392 0.81305 0.0
H792 H 0.76591 0.86879 0.46432 0.0
H793 H 0.8241 0.70937 0.56722 0.0
H794 H 0.73032 0.72271 0.44469 0.0
H795 H 0.84705 0.84414 0.60738 0.0
H796 H 0.79524 0.72039 0.51937 0.0
H797 H 0.79831 0.86629 0.5145 0.0
C798 C 0.76423 0.83607 0.47066 0.0
C799 C 0.74493 0.79589 0.44968 0.0
C800 C 0.80678 0.74807 0.5383 0.0
C801 C 0.7831 0.79312 0.50696 0.0
C802 C 0.82379 0.74194 0.56576 0.0
C803 C 0.83874 0.77593 0.59172 0.0
C804 C 0.80395 0.78868 0.53593 0.0
C805 C 0.83668 0.81714 0.58796 0.0
C806 C 0.78313 0.83478 0.49924 0.0
C807 C 0.74469 0.7549 0.45943 0.0
N808 N 0.81954 0.82223 0.56086 0.0
N809 N 0.76333 0.75481 0.48668 0.0
H810 H 0.23926 0.97476 0.43463 0.0
H811 H 0.3813 1.01347 0.57713 0.0
H812 H 0.30224 0.90704 0.43317 0.0
H813 H 0.30778 0.06463 0.58784 0.0
H814 H 0.35238 0.97504 0.52487 0.0
H815 H 0.26217 1.00603 0.49049 0.0
C816 C 0.25732 0.96546 0.44632 0.0
C817 C 0.26844 0.93758 0.42894 0.0
C818 C 0.34239 0.99454 0.53849 0.0
C819 C 0.29586 0.97495 0.49332 0.0
C820 C 0.3591 1.017 0.56858 0.0
C821 C 0.34734 0.04302 0.58745 0.0
C822 C 0.31344 0.99784 0.52628 0.0
C823 C 0.31813 0.04542 0.57443 0.0
C824 C 0.27061 0.98375 0.47829 0.0
C825 C 0.2923 0.92753 0.44554 0.0
N826 N 0.30238 1.0234 0.54472 0.0
N827 N 0.30543 0.94656 0.47646 0.0
H828 H 1.02421 0.30221 0.61536 0.0
H829 H 0.08765 0.44523 0.44911 0.0
H830 H 0.9606 0.3453 0.56053 0.0
H831 H 0.141 0.3761 0.48917 0.0
H832 H 1.04435 0.41378 0.49198 0.0
H833 H 0.06818 0.3314 0.57228 0.0
C834 C 1.0191 0.31738 0.59413 0.0
C835 C 0.98789 0.32064 0.59201 0.0
C836 C 0.06551 0.40549 0.49174 0.0
C837 C 1.03977 0.35579 0.54193 0.0
C838 C 0.09079 0.42383 0.46711 0.0
C839 C 0.11888 0.41393 0.4649 0.0
C840 C 0.06759 0.37666 0.51541 0.0
C841 C 0.1205 0.38558 0.48958 0.0
C842 C 1.04457 0.33427 0.56941 0.0
C843 C 0.98363 0.34119 0.56356 0.0
N844 N 0.09543 0.36815 0.51356 0.0
N845 N 1.00916 0.35812 0.5401 0.0
loop_
_geom_bond_atom_site_label_1
_geom_bond_atom_site_label_2
_geom_bond_distance
_geom_bond_site_symmetry_2
_ccdc_geom_bond_type
Eu0 C9 2.828 . S
Eu0 O11 2.392 1_655 S
Eu0 O13 2.418 . S
Eu0 O18 2.373 . S
Eu0 O21 2.488 . S
Eu0 O22 2.471 1_554 S
Eu0 O23 2.349 1_554 S
Eu1 O10 2.369 1_554 S
Eu1 O14 2.478 1_554 S
Eu1 O15 2.481 . S
Eu1 O16 2.367 . S
Eu1 O19 2.396 1_455 S
Eu1 O20 2.396 1_554 S
Eu1 C30 2.828 . S
C2 O20 1.244 1_655 S
C2 O23 1.265 . S
C3 C4 1.379 1_554 S
C3 C7 1.373 . S
C3 C9 1.505 . S
C4 C3 1.379 1_556 S
C4 C6 1.369 . S
C4 H32 0.930 . S
C5 C7 1.383 . S
C5 C8 1.382 . S
C5 H33 0.930 . S
C6 C4 1.369 . S
C6 C8 1.392 1_556 S
C6 H34 0.930 . S
C7 C3 1.373 . S
C7 C5 1.383 . S
C7 H35 0.931 . S
C8 C5 1.382 . S
C8 C6 1.392 1_554 S
C9 Eu0 2.828 . S
C9 C3 1.505 . S
C9 O21 1.249 . S
C9 O22 1.244 1_554 S
O10 Eu1 2.369 1_556 S
O10 C12 1.258 1_556 S
O11 Eu0 2.392 1_455 S
O11 C12 1.242 . S
C12 O10 1.258 1_554 S
C12 O11 1.242 . S
O13 Eu0 2.418 . S
O13 C17 1.244 1_655 S
O14 Eu1 2.478 1_556 S
O14 C30 1.249 1_556 S
O15 Eu1 2.481 . S
O15 C30 1.244 . S
O16 Eu1 2.367 . S
O16 C17 1.265 . S
C17 O13 1.244 1_455 S
C17 O16 1.265 . S
O18 Eu0 2.373 . S
O18 C31 1.258 . S
O19 Eu1 2.396 1_655 S
O19 C31 1.242 . S
O20 Eu1 2.396 1_556 S
O20 C2 1.244 1_455 S
O21 Eu0 2.488 . S
O21 C9 1.249 . S
O22 Eu0 2.471 1_556 S
O22 C9 1.244 1_556 S
O23 Eu0 2.349 1_556 S
O23 C2 1.265 . S
C24 C25 1.379 . S
C24 C28 1.373 1_554 S
C24 C30 1.505 . S
C25 C24 1.379 . S
C25 C27 1.369 . S
C25 H36 0.930 . S
C26 C28 1.383 . S
C26 C29 1.382 1_556 S
C26 H37 0.930 . S
C27 C25 1.369 . S
C27 C29 1.392 . S
C27 H38 0.930 . S
C28 C24 1.373 1_556 S
C28 C26 1.383 . S
C28 H39 0.931 . S
C29 C26 1.382 1_554 S
C29 C27 1.392 . S
C30 Eu1 2.828 . S
C30 O14 1.249 1_554 S
C30 O15 1.244 . S
C30 C24 1.505 . S
C31 O18 1.258 . S
C31 O19 1.242 . S
H32 C4 0.930 . S
H33 C5 0.930 . S
H34 C6 0.930 . S
H35 C7 0.931 . S
H36 C25 0.930 . S
H37 C26 0.930 . S
H38 C27 0.930 . S
H39 C28 0.931 . S
Eu40 C49 2.828 . S
Eu40 O51 2.392 . S
Eu40 O53 2.418 . S
Eu40 O58 2.373 . S
Eu40 O61 2.488 . S
Eu40 O62 2.471 1_556 S
Eu40 O63 2.349 1_556 S
Eu41 O50 2.373 . S
Eu41 O54 2.488 . S
Eu41 O55 2.471 1_554 S
Eu41 O56 2.349 1_554 S
Eu41 O59 2.392 . S
Eu41 O60 2.418 . S
Eu41 C70 2.828 . S
C42 O60 1.244 . S
C42 O63 1.265 . S
C43 C44 1.379 1_556 S
C43 C47 1.373 . S
C43 C49 1.505 . S
C44 C43 1.379 1_554 S
C44 C46 1.369 . S
C44 H72 0.930 . S
C45 C47 1.383 . S
C45 C48 1.382 . S
C45 H73 0.930 . S
C46 C44 1.369 . S
C46 C48 1.392 1_554 S
C46 H74 0.930 . S
C47 C43 1.373 . S
C47 C45 1.383 . S
C47 H75 0.931 . S
C48 C45 1.382 . S
C48 C46 1.392 1_556 S
C49 Eu40 2.828 . S
C49 C43 1.505 . S
C49 O61 1.249 . S
C49 O62 1.244 1_556 S
O50 Eu41 2.373 . S
O50 C52 1.258 . S
O51 Eu40 2.392 . S
O51 C52 1.242 1_556 S
C52 O50 1.258 . S
C52 O51 1.242 1_554 S
O53 Eu40 2.418 . S
O53 C57 1.244 . S
O54 Eu41 2.488 . S
O54 C70 1.249 . S
O55 Eu41 2.471 1_556 S
O55 C70 1.244 1_556 S
O56 Eu41 2.349 1_556 S
O56 C57 1.265 . S
C57 O53 1.244 . S
C57 O56 1.265 . S
O58 Eu40 2.373 . S
O58 C71 1.258 . S
O59 Eu41 2.392 . S
O59 C71 1.242 1_554 S
O60 Eu41 2.418 . S
O60 C42 1.244 . S
O61 Eu40 2.488 . S
O61 C49 1.249 . S
O62 Eu40 2.471 1_554 S
O62 C49 1.244 1_554 S
O63 Eu40 2.349 1_554 S
O63 C42 1.265 . S
C64 C65 1.379 1_554 S
C64 C68 1.373 . S
C64 C70 1.505 . S
C65 C64 1.379 1_556 S
C65 C67 1.369 . S
C65 H76 0.930 . S
C66 C68 1.383 . S
C66 C69 1.382 . S
C66 H77 0.930 . S
C67 C65 1.369 . S
C67 C69 1.392 1_556 S
C67 H78 0.930 . S
C68 C64 1.373 . S
C68 C66 1.383 . S
C68 H79 0.931 . S
C69 C66 1.382 . S
C69 C67 1.392 1_554 S
C70 Eu41 2.828 . S
C70 O54 1.249 . S
C70 O55 1.244 1_554 S
C70 C64 1.505 . S
C71 O58 1.258 . S
C71 O59 1.242 1_556 S
H72 C44 0.930 . S
H73 C45 0.930 . S
H74 C46 0.930 . S
H75 C47 0.931 . S
H76 C65 0.930 . S
H77 C66 0.930 . S
H78 C67 0.930 . S
H79 C68 0.931 . S
Eu80 C89 2.828 . S
Eu80 O91 2.392 1_545 S
Eu80 O93 2.418 . S
Eu80 O98 2.373 . S
Eu80 O101 2.488 . S
Eu80 O102 2.471 1_554 S
Eu80 O103 2.349 1_554 S
Eu81 O90 2.373 . S
Eu81 O94 2.488 . S
Eu81 O95 2.471 1_556 S
Eu81 O96 2.349 1_556 S
Eu81 O99 2.392 1_566 S
Eu81 O100 2.418 . S
Eu81 C110 2.830 . S
C82 O100 1.244 1_545 S
C82 O103 1.265 . S
C83 C84 1.379 1_554 S
C83 C87 1.373 . S
C83 C89 1.505 . S
C84 C83 1.379 1_556 S
C84 C86 1.369 . S
C84 H112 0.930 . S
C85 C87 1.383 . S
C85 C88 1.382 . S
C85 H113 0.930 . S
C86 C84 1.369 . S
C86 C88 1.392 1_556 S
C86 H114 0.930 . S
C87 C83 1.373 . S
C87 C85 1.383 . S
C87 H115 0.931 . S
C88 C85 1.382 . S
C88 C86 1.392 1_554 S
C89 Eu80 2.828 . S
C89 C83 1.505 . S
C89 O101 1.249 . S
C89 O102 1.244 1_554 S
O90 Eu81 2.373 . S
O90 C92 1.258 1_556 S
O91 Eu80 2.392 1_565 S
O91 C92 1.242 . S
C92 O90 1.258 1_554 S
C92 O91 1.242 . S
O93 Eu80 2.418 . S
O93 C97 1.244 1_545 S
O94 Eu81 2.488 . S
O94 C110 1.274 . S
O95 Eu81 2.471 1_554 S
O95 C110 1.221 1_554 S
O96 Eu81 2.349 1_554 S
O96 C97 1.265 . S
C97 O93 1.244 1_565 S
C97 O96 1.265 . S
O98 Eu80 2.373 . S
O98 C111 1.258 . S
O99 Eu81 2.392 1_544 S
O99 C111 1.242 . S
O100 Eu81 2.418 . S
O100 C82 1.244 1_565 S
O101 Eu80 2.488 . S
O101 C89 1.249 . S
O102 Eu80 2.471 1_556 S
O102 C89 1.244 1_556 S
O103 Eu80 2.349 1_556 S
O103 C82 1.265 . S
C104 C105 1.350 1_556 S
C104 C108 1.399 . S
C104 C110 1.506 . S
C105 C104 1.350 1_554 S
C105 C107 1.369 . S
C105 H116 0.930 . S
C106 C108 1.383 . S
C106 C109 1.382 1_556 S
C106 H117 0.930 . S
C107 C105 1.369 . S
C107 C109 1.393 . S
C107 H118 0.930 . S
C108 C104 1.399 . S
C108 C106 1.383 . S
C108 H119 0.931 . S
C109 C106 1.382 1_554 S
C109 C107 1.393 . S
C110 Eu81 2.830 . S
C110 O94 1.274 . S
C110 O95 1.221 1_556 S
C110 C104 1.506 . S
C111 O98 1.258 . S
C111 O99 1.242 . S
H112 C84 0.930 . S
H113 C85 0.930 . S
H114 C86 0.930 . S
H115 C87 0.931 . S
H116 C105 0.930 . S
H117 C106 0.930 . S
H118 C107 0.930 . S
H119 C108 0.931 . S
Eu120 C129 2.828 . S
Eu120 O131 2.392 . S
Eu120 O133 2.418 . S
Eu120 O138 2.373 . S
Eu120 O141 2.488 . S
Eu120 O142 2.471 . S
Eu120 O143 2.349 . S
Eu121 O130 2.373 . S
Eu121 O134 2.488 . S
Eu121 O135 2.471 . S
Eu121 O136 2.349 . S
Eu121 O139 2.392 . S
Eu121 O140 2.418 . S
Eu121 C150 2.828 . S
C122 O140 1.244 . S
C122 O143 1.265 . S
C123 C124 1.379 . S
C123 C127 1.373 . S
C123 C129 1.505 . S
C124 C123 1.379 . S
C124 C126 1.369 . S
C124 H152 0.930 . S
C125 C127 1.383 . S
C125 C128 1.382 . S
C125 H153 0.930 . S
C126 C124 1.369 . S
C126 C128 1.392 . S
C126 H154 0.930 . S
C127 C123 1.373 . S
C127 C125 1.383 . S
C127 H155 0.931 . S
C128 C125 1.382 . S
C128 C126 1.392 . S
C129 Eu120 2.828 . S
C129 C123 1.505 . S
C129 O141 1.249 . S
C129 O142 1.244 . S
O130 Eu121 2.373 . S
O130 C132 1.258 . S
O131 Eu120 2.392 . S
O131 C132 1.242 . S
C132 O130 1.258 . S
C132 O131 1.242 . S
O133 Eu120 2.418 . S
O133 C137 1.244 . S
O134 Eu121 2.488 . S
O134 C150 1.249 . S
O135 Eu121 2.471 . S
O135 C150 1.244 . S
O136 Eu121 2.349 . S
O136 C137 1.265 . S
C137 O133 1.244 . S
C137 O136 1.265 . S
O138 Eu120 2.373 . S
O138 C151 1.258 . S
O139 Eu121 2.392 . S
O139 C151 1.242 . S
O140 Eu121 2.418 . S
O140 C122 1.244 . S
O141 Eu120 2.488 . S
O141 C129 1.249 . S
O142 Eu120 2.471 . S
O142 C129 1.244 . S
O143 Eu120 2.349 . S
O143 C122 1.265 . S
C144 C145 1.379 . S
C144 C148 1.373 . S
C144 C150 1.505 . S
C145 C144 1.379 . S
C145 C147 1.369 . S
C145 H156 0.930 . S
C146 C148 1.383 . S
C146 C149 1.382 . S
C146 H157 0.930 . S
C147 C145 1.369 . S
C147 C149 1.392 . S
C147 H158 0.930 . S
C148 C144 1.373 . S
C148 C146 1.383 . S
C148 H159 0.931 . S
C149 C146 1.382 . S
C149 C147 1.392 . S
C150 Eu121 2.828 . S
C150 O134 1.249 . S
C150 O135 1.244 . S
C150 C144 1.505 . S
C151 O138 1.258 . S
C151 O139 1.242 . S
H152 C124 0.930 . S
H153 C125 0.930 . S
H154 C126 0.930 . S
H155 C127 0.931 . S
H156 C145 0.930 . S
H157 C146 0.930 . S
H158 C147 0.930 . S
H159 C148 0.931 . S
Eu160 C169 2.828 . S
Eu160 O171 2.392 . S
Eu160 O173 2.418 . S
Eu160 O178 2.373 . S
Eu160 O181 2.488 . S
Eu160 O182 2.471 . S
Eu160 O183 2.349 . S
Eu161 O170 2.373 . S
Eu161 O174 2.488 1_565 S
Eu161 O175 2.471 1_565 S
Eu161 O176 2.349 . S
Eu161 O179 2.392 . S
Eu161 O180 2.418 . S
Eu161 C190 2.828 1_565 S
C162 O180 1.244 . S
C162 O183 1.265 . S
C163 C164 1.379 . S
C163 C167 1.373 . S
C163 C169 1.505 . S
C164 C163 1.379 . S
C164 C166 1.369 . S
C164 H192 0.930 . S
C165 C167 1.383 . S
C165 C168 1.382 . S
C165 H193 0.930 . S
C166 C164 1.369 . S
C166 C168 1.392 . S
C166 H194 0.930 . S
C167 C163 1.373 . S
C167 C165 1.383 . S
C167 H195 0.931 . S
C168 C165 1.382 . S
C168 C166 1.392 . S
C169 Eu160 2.828 . S
C169 C163 1.505 . S
C169 O181 1.249 . S
C169 O182 1.244 . S
O170 Eu161 2.373 . S
O170 C172 1.258 . S
O171 Eu160 2.392 . S
O171 C172 1.242 . S
C172 O170 1.258 . S
C172 O171 1.242 . S
O173 Eu160 2.418 . S
O173 C177 1.244 . S
O174 Eu161 2.488 1_545 S
O174 C190 1.249 . S
O175 Eu161 2.471 1_545 S
O175 C190 1.244 . S
O176 Eu161 2.349 . S
O176 C177 1.265 . S
C177 O173 1.244 . S
C177 O176 1.265 . S
O178 Eu160 2.373 . S
O178 C191 1.258 . S
O179 Eu161 2.392 . S
O179 C191 1.242 . S
O180 Eu161 2.418 . S
O180 C162 1.244 . S
O181 Eu160 2.488 . S
O181 C169 1.249 . S
O182 Eu160 2.471 . S
O182 C169 1.244 . S
O183 Eu160 2.349 . S
O183 C162 1.265 . S
C184 C185 1.379 . S
C184 C188 1.373 . S
C184 C190 1.505 . S
C185 C184 1.379 . S
C185 C187 1.369 . S
C185 H196 0.930 . S
C186 C188 1.383 . S
C186 C189 1.382 . S
C186 H197 0.930 . S
C187 C185 1.369 . S
C187 C189 1.392 . S
C187 H198 0.930 . S
C188 C184 1.373 . S
C188 C186 1.383 . S
C188 H199 0.931 . S
C189 C186 1.382 . S
C189 C187 1.392 . S
C190 Eu161 2.828 1_545 S
C190 O174 1.249 . S
C190 O175 1.244 . S
C190 C184 1.505 . S
C191 O178 1.258 . S
C191 O179 1.242 . S
H192 C164 0.930 . S
H193 C165 0.930 . S
H194 C166 0.930 . S
H195 C167 0.931 . S
H196 C185 0.930 . S
H197 C186 0.930 . S
H198 C187 0.930 . S
H199 C188 0.931 . S
Eu200 C209 2.828 . S
Eu200 O211 2.392 . S
Eu200 O213 2.418 . S
Eu200 O218 2.373 . S
Eu200 O221 2.488 . S
Eu200 O222 2.471 . S
Eu200 O223 2.349 . S
Eu201 O210 2.373 . S
Eu201 O214 2.488 . S
Eu201 O215 2.471 . S
Eu201 O216 2.349 . S
Eu201 O219 2.392 . S
Eu201 O220 2.418 . S
Eu201 C230 2.828 . S
C202 O220 1.244 . S
C202 O223 1.265 . S
C203 C204 1.379 . S
C203 C207 1.373 . S
C203 C209 1.505 . S
C204 C203 1.379 . S
C204 C206 1.369 . S
C204 H232 0.930 . S
C205 C207 1.383 . S
C205 C208 1.382 . S
C205 H233 0.930 . S
C206 C204 1.369 . S
C206 C208 1.392 . S
C206 H234 0.930 . S
C207 C203 1.373 . S
C207 C205 1.383 . S
C207 H235 0.931 . S
C208 C205 1.382 . S
C208 C206 1.392 . S
C209 Eu200 2.828 . S
C209 C203 1.505 . S
C209 O221 1.249 . S
C209 O222 1.244 . S
O210 Eu201 2.373 . S
O210 C212 1.258 . S
O211 Eu200 2.392 . S
O211 C212 1.242 . S
C212 O210 1.258 . S
C212 O211 1.242 . S
O213 Eu200 2.418 . S
O213 C217 1.244 . S
O214 Eu201 2.488 . S
O214 C230 1.249 . S
O215 Eu201 2.471 . S
O215 C230 1.244 . S
O216 Eu201 2.349 . S
O216 C217 1.265 . S
C217 O213 1.244 . S
C217 O216 1.265 . S
O218 Eu200 2.373 . S
O218 C231 1.258 . S
O219 Eu201 2.392 . S
O219 C231 1.242 . S
O220 Eu201 2.418 . S
O220 C202 1.244 . S
O221 Eu200 2.488 . S
O221 C209 1.249 . S
O222 Eu200 2.471 . S
O222 C209 1.244 . S
O223 Eu200 2.349 . S
O223 C202 1.265 . S
C224 C225 1.379 . S
C224 C228 1.373 . S
C224 C230 1.505 1_655 S
C225 C224 1.379 . S
C225 C227 1.369 . S
C225 H236 0.930 . S
C226 C228 1.383 . S
C226 C229 1.382 . S
C226 H237 0.930 . S
C227 C225 1.369 . S
C227 C229 1.392 . S
C227 H238 0.930 . S
C228 C224 1.373 . S
C228 C226 1.383 . S
C228 H239 0.931 . S
C229 C226 1.382 . S
C229 C227 1.392 . S
C230 Eu201 2.828 . S
C230 O214 1.249 . S
C230 O215 1.244 . S
C230 C224 1.505 1_455 S
C231 O218 1.258 . S
C231 O219 1.242 . S
H232 C204 0.930 . S
H233 C205 0.930 . S
H234 C206 0.930 . S
H235 C207 0.931 . S
H236 C225 0.930 . S
H237 C226 0.930 . S
H238 C227 0.930 . S
H239 C228 0.931 . S
Eu240 C249 2.828 . S
Eu240 O251 2.392 . S
Eu240 O253 2.418 . S
Eu240 O258 2.373 . S
Eu240 O261 2.488 . S
Eu240 O262 2.471 . S
Eu240 O263 2.349 . S
Eu241 O250 2.373 . S
Eu241 O254 2.488 . S
Eu241 O255 2.471 . S
Eu241 O256 2.349 . S
Eu241 O259 2.392 . S
Eu241 O260 2.418 . S
Eu241 C270 2.828 . S
C242 O260 1.244 . S
C242 O263 1.265 . S
C243 C244 1.379 . S
C243 C247 1.373 . S
C243 C249 1.505 . S
C244 C243 1.379 . S
C244 C246 1.369 . S
C244 H272 0.930 . S
C245 C247 1.383 . S
C245 C248 1.382 . S
C245 H273 0.930 . S
C246 C244 1.369 . S
C246 C248 1.392 . S
C246 H274 0.930 . S
C247 C243 1.373 . S
C247 C245 1.383 . S
C247 H275 0.931 . S
C248 C245 1.382 . S
C248 C246 1.392 . S
C249 Eu240 2.828 . S
C249 C243 1.505 . S
C249 O261 1.249 . S
C249 O262 1.244 . S
O250 Eu241 2.373 . S
O250 C252 1.258 . S
O251 Eu240 2.392 . S
O251 C252 1.242 . S
C252 O250 1.258 . S
C252 O251 1.242 . S
O253 Eu240 2.418 . S
O253 C257 1.244 . S
O254 Eu241 2.488 . S
O254 C270 1.249 . S
O255 Eu241 2.471 . S
O255 C270 1.244 . S
O256 Eu241 2.349 . S
O256 C257 1.265 . S
C257 O253 1.244 . S
C257 O256 1.265 . S
O258 Eu240 2.373 . S
O258 C271 1.258 . S
O259 Eu241 2.392 . S
O259 C271 1.242 . S
O260 Eu241 2.418 . S
O260 C242 1.244 . S
O261 Eu240 2.488 . S
O261 C249 1.249 . S
O262 Eu240 2.471 . S
O262 C249 1.244 . S
O263 Eu240 2.349 . S
O263 C242 1.265 . S
C264 C265 1.379 . S
C264 C268 1.373 . S
C264 C270 1.505 . S
C265 C264 1.379 . S
C265 C267 1.369 . S
C265 H276 0.930 . S
C266 C268 1.383 . S
C266 C269 1.382 . S
C266 H277 0.930 . S
C267 C265 1.369 . S
C267 C269 1.392 . S
C267 H278 0.930 . S
C268 C264 1.373 . S
C268 C266 1.383 . S
C268 H279 0.931 . S
C269 C266 1.382 . S
C269 C267 1.392 . S
C270 Eu241 2.828 . S
C270 O254 1.249 . S
C270 O255 1.244 . S
C270 C264 1.505 . S
C271 O258 1.258 . S
C271 O259 1.242 . S
H272 C244 0.930 . S
H273 C245 0.930 . S
H274 C246 0.930 . S
H275 C247 0.931 . S
H276 C265 0.930 . S
H277 C266 0.930 . S
H278 C267 0.930 . S
H279 C268 0.931 . S
Eu280 C289 2.828 . S
Eu280 O291 2.392 . S
Eu280 O293 2.418 . S
Eu280 O298 2.373 . S
Eu280 O301 2.488 . S
Eu280 O302 2.471 . S
Eu280 O303 2.349 . S
Eu281 O290 2.373 . S
Eu281 O294 2.488 . S
Eu281 O295 2.471 . S
Eu281 O296 2.349 . S
Eu281 O299 2.392 . S
Eu281 O300 2.418 . S
Eu281 C310 2.807 1_655 S
C282 O300 1.244 . S
C282 O303 1.265 . S
C283 C284 1.379 . S
C283 C287 1.373 . S
C283 C289 1.505 . S
C284 C283 1.379 . S
C284 C286 1.369 . S
C284 H312 0.930 . S
C285 C287 1.383 . S
C285 C288 1.382 . S
C285 H313 0.930 . S
C286 C284 1.369 . S
C286 C288 1.392 . S
C286 H314 0.930 . S
C287 C283 1.373 . S
C287 C285 1.383 . S
C287 H315 0.931 . S
C288 C285 1.382 . S
C288 C286 1.392 . S
C289 Eu280 2.828 . S
C289 C283 1.505 . S
C289 O301 1.249 . S
C289 O302 1.244 . S
O290 Eu281 2.373 . S
O290 C292 1.258 . S
O291 Eu280 2.392 . S
O291 C292 1.242 . S
C292 O290 1.258 . S
C292 O291 1.242 . S
O293 Eu280 2.418 . S
O293 C297 1.244 . S
O294 Eu281 2.488 . S
O294 C310 1.240 1_655 S
O295 Eu281 2.471 . S
O295 C310 1.234 1_655 S
O296 Eu281 2.349 . S
O296 C297 1.265 . S
C297 O293 1.244 . S
C297 O296 1.265 . S
O298 Eu280 2.373 . S
O298 C311 1.258 . S
O299 Eu281 2.392 . S
O299 C311 1.242 . S
O300 Eu281 2.418 . S
O300 C282 1.244 . S
O301 Eu280 2.488 . S
O301 C289 1.249 . S
O302 Eu280 2.471 . S
O302 C289 1.244 . S
O303 Eu280 2.349 . S
O303 C282 1.265 . S
C304 C305 1.379 . S
C304 C308 1.373 . S
C304 C310 1.526 . S
C305 C304 1.379 . S
C305 C307 1.369 . S
C305 H316 0.930 . S
C306 C308 1.383 . S
C306 C309 1.382 . S
C306 H317 0.930 . S
C307 C305 1.369 . S
C307 C309 1.392 . S
C307 H318 0.930 . S
C308 C304 1.373 . S
C308 C306 1.383 . S
C308 H319 0.931 . S
C309 C306 1.382 . S
C309 C307 1.392 . S
C310 Eu281 2.807 1_455 S
C310 O294 1.240 1_455 S
C310 O295 1.234 1_455 S
C310 C304 1.526 . S
C311 O298 1.258 . S
C311 O299 1.242 . S
H312 C284 0.930 . S
H313 C285 0.930 . S
H314 C286 0.930 . S
H315 C287 0.931 . S
H316 C305 0.930 . S
H317 C306 0.930 . S
H318 C307 0.930 . S
H319 C308 0.931 . S
Eu320 C329 2.828 . S
Eu320 O331 2.392 . S
Eu320 O333 2.418 . S
Eu320 O338 2.373 . S
Eu320 O341 2.488 . S
Eu320 O342 2.471 . S
Eu320 O343 2.349 . S
Eu321 O330 2.373 . S
Eu321 O334 2.488 . S
Eu321 O335 2.471 . S
Eu321 O336 2.349 . S
Eu321 O339 2.392 . S
Eu321 O340 2.418 . S
Eu321 C350 2.828 . S
C322 O340 1.244 . S
C322 O343 1.265 . S
C323 C324 1.379 . S
C323 C327 1.373 . S
C323 C329 1.505 . S
C324 C323 1.379 . S
C324 C326 1.369 . S
C324 H352 0.930 . S
C325 C327 1.383 . S
C325 C328 1.382 . S
C325 H353 0.930 1_655 S
C326 C324 1.369 . S
C326 C328 1.392 . S
C326 H354 0.930 . S
C327 C323 1.373 . S
C327 C325 1.383 . S
C327 H355 0.931 . S
C328 C325 1.382 . S
C328 C326 1.392 . S
C329 Eu320 2.828 . S
C329 C323 1.505 . S
C329 O341 1.249 . S
C329 O342 1.244 . S
O330 Eu321 2.373 . S
O330 C332 1.258 . S
O331 Eu320 2.392 . S
O331 C332 1.242 . S
C332 O330 1.258 . S
C332 O331 1.242 . S
O333 Eu320 2.418 . S
O333 C337 1.244 . S
O334 Eu321 2.488 . S
O334 C350 1.249 . S
O335 Eu321 2.471 . S
O335 C350 1.244 . S
O336 Eu321 2.349 . S
O336 C337 1.265 . S
C337 O333 1.244 . S
C337 O336 1.265 . S
O338 Eu320 2.373 . S
O338 C351 1.258 . S
O339 Eu321 2.392 . S
O339 C351 1.242 . S
O340 Eu321 2.418 . S
O340 C322 1.244 . S
O341 Eu320 2.488 . S
O341 C329 1.249 . S
O342 Eu320 2.471 . S
O342 C329 1.244 . S
O343 Eu320 2.349 . S
O343 C322 1.265 . S
C344 C345 1.379 . S
C344 C348 1.373 . S
C344 C350 1.505 . S
C345 C344 1.379 . S
C345 C347 1.369 . S
C345 H356 0.930 . S
C346 C348 1.383 . S
C346 C349 1.382 . S
C346 H357 0.930 . S
C347 C345 1.369 . S
C347 C349 1.392 . S
C347 H358 0.930 . S
C348 C344 1.373 . S
C348 C346 1.383 . S
C348 H359 0.931 . S
C349 C346 1.382 . S
C349 C347 1.392 . S
C350 Eu321 2.828 . S
C350 O334 1.249 . S
C350 O335 1.244 . S
C350 C344 1.505 . S
C351 O338 1.258 . S
C351 O339 1.242 . S
H352 C324 0.930 . S
H353 C325 0.930 1_455 S
H354 C326 0.930 . S
H355 C327 0.931 . S
H356 C345 0.930 . S
H357 C346 0.930 . S
H358 C347 0.930 . S
H359 C348 0.931 . S
H360 C366 0.930 . S
H361 C370 0.930 . S
H362 C375 0.929 . S
H363 C373 0.929 . S
H364 C368 0.929 . S
H365 C374 0.929 . S
C366 H360 0.930 . S
C366 C367 1.367 . S
C366 C374 1.378 . S
C367 C366 1.367 . S
C367 C375 1.433 1_556 S
C368 H364 0.929 . S
C368 C370 1.378 . S
C368 C372 1.362 . S
C369 C372 1.459 1_556 S
C369 C374 1.350 . S
C369 N377 1.427 1_556 S
C370 H361 0.930 . S
C370 C368 1.378 . S
C370 C371 1.367 . S
C371 C370 1.367 . S
C371 C373 1.433 1_554 S
C372 C368 1.362 . S
C372 C369 1.459 1_554 S
C372 N376 1.418 1_554 S
C373 H363 0.929 . S
C373 C371 1.433 1_556 S
C373 N376 1.384 . S
C374 H365 0.929 . S
C374 C366 1.378 . S
C374 C369 1.350 . S
C375 H362 0.929 . S
C375 C367 1.433 1_554 S
C375 N377 1.384 . S
N376 C372 1.418 1_556 S
N376 C373 1.384 . S
N377 C369 1.427 1_554 S
N377 C375 1.384 . S
H378 C384 0.930 . S
H379 C388 0.930 . S
H380 C393 0.929 . S
H381 C391 0.929 . S
H382 C386 0.929 . S
H383 C392 0.929 . S
C384 H378 0.930 . S
C384 C385 1.367 . S
C384 C392 1.378 . S
C385 C384 1.367 . S
C385 C393 1.433 1_556 S
C386 H382 0.929 . S
C386 C388 1.378 . S
C386 C390 1.350 1_554 S
C387 C390 1.463 . S
C387 C392 1.350 . S
C387 N395 1.427 1_556 S
C388 H379 0.930 . S
C388 C386 1.378 . S
C388 C389 1.367 1_554 S
C389 C388 1.367 1_556 S
C389 C391 1.433 . S
C390 C386 1.350 1_556 S
C390 C387 1.463 . S
C390 N394 1.427 . S
C391 H381 0.929 . S
C391 C389 1.433 . S
C391 N394 1.384 . S
C392 H383 0.929 . S
C392 C384 1.378 . S
C392 C387 1.350 . S
C393 H380 0.929 . S
C393 C385 1.433 1_554 S
C393 N395 1.384 . S
N394 C390 1.427 . S
N394 C391 1.384 . S
N395 C387 1.427 1_554 S
N395 C393 1.384 . S
H396 C402 0.930 . S
H397 C406 0.930 . S
H398 C411 0.929 . S
H399 C409 0.929 . S
H400 C404 0.929 . S
H401 C410 0.929 . S
C402 H396 0.930 . S
C402 C403 1.369 . S
C402 C410 1.378 . S
C403 C402 1.369 . S
C403 C411 1.431 1_556 S
C404 H400 0.929 . S
C404 C406 1.378 . S
C404 C408 1.350 . S
C405 C408 1.463 . S
C405 C410 1.345 1_554 S
C405 N413 1.431 . S
C406 H397 0.930 . S
C406 C404 1.378 . S
C406 C407 1.367 . S
C407 C406 1.367 . S
C407 C409 1.433 1_554 S
C408 C404 1.350 . S
C408 C405 1.463 . S
C408 N412 1.427 1_554 S
C409 H399 0.929 . S
C409 C407 1.433 1_556 S
C409 N412 1.384 . S
C410 H401 0.929 . S
C410 C402 1.378 . S
C410 C405 1.345 1_556 S
C411 H398 0.929 . S
C411 C403 1.431 1_554 S
C411 N413 1.384 . S
N412 C408 1.427 1_556 S
N412 C409 1.384 . S
N413 C405 1.431 . S
N413 C411 1.384 . S
H414 C420 0.930 . S
H415 C424 0.930 . S
H416 C429 0.929 . S
H417 C427 0.929 . S
H418 C422 0.929 . S
H419 C428 0.929 . S
C420 H414 0.930 . S
C420 C421 1.367 . S
C420 C428 1.378 . S
C421 C420 1.367 . S
C421 C429 1.433 1_554 S
C422 H418 0.929 . S
C422 C424 1.378 . S
C422 C426 1.350 1_556 S
C423 C426 1.463 . S
C423 C428 1.350 . S
C423 N431 1.427 1_554 S
C424 H415 0.930 . S
C424 C422 1.378 . S
C424 C425 1.367 1_556 S
C425 C424 1.367 1_554 S
C425 C427 1.433 . S
C426 C422 1.350 1_554 S
C426 C423 1.463 . S
C426 N430 1.427 . S
C427 H417 0.929 . S
C427 C425 1.433 . S
C427 N430 1.384 . S
C428 H419 0.929 . S
C428 C420 1.378 . S
C428 C423 1.350 . S
C429 H416 0.929 . S
C429 C421 1.433 1_556 S
C429 N431 1.384 . S
N430 C426 1.427 . S
N430 C427 1.384 . S
N431 C423 1.427 1_556 S
N431 C429 1.384 . S
H432 C438 0.930 . S
H433 C442 0.930 . S
H434 C447 0.929 . S
H435 C445 0.929 . S
H436 C440 0.929 . S
H437 C446 0.929 . S
C438 H432 0.930 . S
C438 C439 1.367 . S
C438 C446 1.378 . S
C439 C438 1.367 . S
C439 C447 1.433 . S
C440 H436 0.929 . S
C440 C442 1.378 . S
C440 C444 1.350 . S
C441 C444 1.463 . S
C441 C446 1.350 . S
C441 N449 1.427 . S
C442 H433 0.930 . S
C442 C440 1.378 . S
C442 C443 1.367 . S
C443 C442 1.367 . S
C443 C445 1.433 . S
C444 C440 1.350 . S
C444 C441 1.463 . S
C444 N448 1.427 . S
C445 H435 0.929 . S
C445 C443 1.433 . S
C445 N448 1.384 . S
C446 H437 0.929 . S
C446 C438 1.378 . S
C446 C441 1.350 . S
C447 H434 0.929 . S
C447 C439 1.433 . S
C447 N449 1.384 . S
N448 C444 1.427 . S
N448 C445 1.384 . S
N449 C441 1.427 . S
N449 C447 1.384 . S
H450 C456 0.930 . S
H451 C460 0.930 . S
H452 C465 0.929 . S
H453 C463 0.929 . S
H454 C458 0.929 . S
H455 C464 0.929 . S
C456 H450 0.930 . S
C456 C457 1.367 1_556 S
C456 C464 1.378 . S
C457 C456 1.367 1_554 S
C457 C465 1.433 . S
C458 H454 0.929 . S
C458 C460 1.378 . S
C458 C462 1.350 . S
C459 C462 1.463 . S
C459 C464 1.350 1_554 S
C459 N467 1.427 . S
C460 H451 0.930 . S
C460 C458 1.378 . S
C460 C461 1.367 . S
C461 C460 1.367 . S
C461 C463 1.433 1_554 S
C462 C458 1.350 . S
C462 C459 1.463 . S
C462 N466 1.427 1_554 S
C463 H453 0.929 . S
C463 C461 1.433 1_556 S
C463 N466 1.384 . S
C464 H455 0.929 . S
C464 C456 1.378 . S
C464 C459 1.350 1_556 S
C465 H452 0.929 . S
C465 C457 1.433 . S
C465 N467 1.384 . S
N466 C462 1.427 1_556 S
N466 C463 1.384 . S
N467 C459 1.427 . S
N467 C465 1.384 . S
H468 C474 0.930 . S
H469 C478 0.930 . S
H470 C483 0.929 . S
H471 C481 0.929 . S
H472 C476 0.929 . S
H473 C482 0.929 . S
C474 H468 0.930 . S
C474 C475 1.367 . S
C474 C482 1.378 . S
C475 C474 1.367 . S
C475 C483 1.433 . S
C476 H472 0.929 . S
C476 C478 1.378 . S
C476 C480 1.350 . S
C477 C480 1.463 1_655 S
C477 C482 1.350 . S
C477 N485 1.427 . S
C478 H469 0.930 . S
C478 C476 1.378 . S
C478 C479 1.367 . S
C479 C478 1.367 . S
C479 C481 1.433 . S
C480 C476 1.350 . S
C480 C477 1.463 1_455 S
C480 N484 1.427 . S
C481 H471 0.929 . S
C481 C479 1.433 . S
C481 N484 1.384 . S
C482 H473 0.929 . S
C482 C474 1.378 . S
C482 C477 1.350 . S
C483 H470 0.929 . S
C483 C475 1.433 . S
C483 N485 1.384 . S
N484 C480 1.427 . S
N484 C481 1.384 . S
N485 C477 1.427 . S
N485 C483 1.384 . S
H486 C492 0.930 . S
H487 C496 0.930 . S
H488 C501 0.929 . S
H489 C499 0.929 . S
H490 C494 0.929 . S
H491 C500 0.929 . S
C492 H486 0.930 . S
C492 C493 1.367 . S
C492 C500 1.378 . S
C493 C492 1.367 . S
C493 C501 1.433 . S
C494 H490 0.929 . S
C494 C496 1.378 . S
C494 C498 1.350 . S
C495 C498 1.463 . S
C495 C500 1.350 . S
C495 N503 1.427 . S
C496 H487 0.930 . S
C496 C494 1.378 . S
C496 C497 1.367 . S
C497 C496 1.367 . S
C497 C499 1.433 . S
C498 C494 1.350 . S
C498 C495 1.463 . S
C498 N502 1.427 . S
C499 H489 0.929 . S
C499 C497 1.433 . S
C499 N502 1.384 . S
C500 H491 0.929 . S
C500 C492 1.378 . S
C500 C495 1.350 . S
C501 H488 0.929 . S
C501 C493 1.433 . S
C501 N503 1.384 . S
N502 C498 1.427 . S
N502 C499 1.384 . S
N503 C495 1.427 . S
N503 C501 1.384 . S
H504 C510 0.930 . S
H505 C514 0.930 . S
H506 C519 0.929 . S
H507 C517 0.929 . S
H508 C512 0.929 . S
H509 C518 0.900 1_565 S
C510 H504 0.930 . S
C510 C511 1.367 . S
C510 C518 1.395 . S
C511 C510 1.367 . S
C511 C519 1.433 . S
C512 H508 0.929 . S
C512 C514 1.378 . S
C512 C516 1.350 . S
C513 C516 1.463 . S
C513 C518 1.362 1_565 S
C513 N521 1.427 1_565 S
C514 H505 0.930 . S
C514 C512 1.378 . S
C514 C515 1.367 . S
C515 C514 1.367 . S
C515 C517 1.433 . S
C516 C512 1.350 . S
C516 C513 1.463 . S
C516 N520 1.427 . S
C517 H507 0.929 . S
C517 C515 1.433 . S
C517 N520 1.384 . S
C518 H509 0.900 1_545 S
C518 C510 1.395 . S
C518 C513 1.362 1_545 S
C519 H506 0.929 . S
C519 C511 1.433 . S
C519 N521 1.384 . S
N520 C516 1.427 . S
N520 C517 1.384 . S
N521 C513 1.427 1_545 S
N521 C519 1.384 . S
H522 C528 0.930 . S
H523 C532 0.930 . S
H524 C537 0.929 . S
H525 C535 0.929 . S
H526 C530 0.929 . S
H527 C536 0.929 . S
C528 H522 0.930 . S
C528 C529 1.367 . S
C528 C536 1.378 . S
C529 C528 1.367 . S
C529 C537 1.433 . S
C530 H526 0.929 . S
C530 C532 1.378 . S
C530 C534 1.350 . S
C531 C534 1.463 . S
C531 C536 1.350 . S
C531 N539 1.427 . S
C532 H523 0.930 . S
C532 C530 1.378 . S
C532 C533 1.367 . S
C533 C532 1.367 . S
C533 C535 1.433 . S
C534 C530 1.350 . S
C534 C531 1.463 . S
C534 N538 1.427 . S
C535 H525 0.929 . S
C535 C533 1.433 . S
C535 N538 1.384 . S
C536 H527 0.929 . S
C536 C528 1.378 . S
C536 C531 1.350 . S
C537 H524 0.929 . S
C537 C529 1.433 . S
C537 N539 1.384 . S
N538 C534 1.427 . S
N538 C535 1.384 . S
N539 C531 1.427 . S
N539 C537 1.384 . S
H540 C546 0.930 . S
H541 C550 0.930 . S
H542 C555 0.929 . S
H543 C553 0.929 . S
H544 C548 0.929 . S
H545 C554 0.929 . S
C546 H540 0.930 . S
C546 C547 1.367 . S
C546 C554 1.378 . S
C547 C546 1.367 . S
C547 C555 1.433 . S
C548 H544 0.929 . S
C548 C550 1.378 . S
C548 C552 1.350 . S
C549 C552 1.463 . S
C549 C554 1.350 . S
C549 N557 1.427 . S
C550 H541 0.930 . S
C550 C548 1.378 . S
C550 C551 1.367 . S
C551 C550 1.367 . S
C551 C553 1.433 . S
C552 C548 1.350 . S
C552 C549 1.463 . S
C552 N556 1.427 . S
C553 H543 0.929 . S
C553 C551 1.433 . S
C553 N556 1.384 . S
C554 H545 0.929 . S
C554 C546 1.378 . S
C554 C549 1.350 . S
C555 H542 0.929 . S
C555 C547 1.433 . S
C555 N557 1.384 . S
N556 C552 1.427 . S
N556 C553 1.384 . S
N557 C549 1.427 . S
N557 C555 1.384 . S
H558 C564 0.930 . S
H559 C568 0.930 . S
H560 C573 0.929 . S
H561 C571 0.929 . S
H562 C566 0.929 . S
H563 C572 0.929 . S
C564 H558 0.930 . S
C564 C565 1.367 . S
C564 C572 1.378 . S
C565 C564 1.367 . S
C565 C573 1.433 . S
C566 H562 0.929 . S
C566 C568 1.378 . S
C566 C570 1.350 . S
C567 C570 1.463 . S
C567 C572 1.350 . S
C567 N575 1.427 . S
C568 H559 0.930 . S
C568 C566 1.378 . S
C568 C569 1.367 . S
C569 C568 1.367 . S
C569 C571 1.433 . S
C570 C566 1.350 . S
C570 C567 1.463 . S
C570 N574 1.427 . S
C571 H561 0.929 . S
C571 C569 1.433 . S
C571 N574 1.384 . S
C572 H563 0.929 . S
C572 C564 1.378 . S
C572 C567 1.350 . S
C573 H560 0.929 . S
C573 C565 1.433 . S
C573 N575 1.384 . S
N574 C570 1.427 . S
N574 C571 1.384 . S
N575 C567 1.427 . S
N575 C573 1.384 . S
H576 C582 0.930 . S
H577 C586 0.930 . S
H578 C591 0.929 . S
H579 C589 0.929 . S
H580 C584 0.929 . S
H581 C590 0.929 . S
C582 H576 0.930 . S
C582 C583 1.367 . S
C582 C590 1.378 . S
C583 C582 1.367 . S
C583 C591 1.433 . S
C584 H580 0.929 . S
C584 C586 1.378 . S
C584 C588 1.350 . S
C585 C588 1.463 . S
C585 C590 1.350 . S
C585 N593 1.427 . S
C586 H577 0.930 . S
C586 C584 1.378 . S
C586 C587 1.367 . S
C587 C586 1.367 . S
C587 C589 1.433 . S
C588 C584 1.350 . S
C588 C585 1.463 . S
C588 N592 1.427 . S
C589 H579 0.929 . S
C589 C587 1.433 . S
C589 N592 1.384 . S
C590 H581 0.929 . S
C590 C582 1.378 . S
C590 C585 1.350 . S
C591 H578 0.929 . S
C591 C583 1.433 . S
C591 N593 1.384 . S
N592 C588 1.427 . S
N592 C589 1.384 . S
N593 C585 1.427 . S
N593 C591 1.384 . S
H594 C600 0.930 . S
H595 C604 0.930 . S
H596 C609 0.929 . S
H597 C607 0.929 . S
H598 C602 0.929 . S
H599 C608 0.929 . S
C600 H594 0.930 . S
C600 C601 1.367 . S
C600 C608 1.378 . S
C601 C600 1.367 . S
C601 C609 1.433 . S
C602 H598 0.929 . S
C602 C604 1.378 . S
C602 C606 1.350 . S
C603 C606 1.463 . S
C603 C608 1.350 . S
C603 N611 1.427 . S
C604 H595 0.930 . S
C604 C602 1.378 . S
C604 C605 1.367 . S
C605 C604 1.367 . S
C605 C607 1.433 . S
C606 C602 1.350 . S
C606 C603 1.463 . S
C606 N610 1.427 . S
C607 H597 0.929 . S
C607 C605 1.433 . S
C607 N610 1.384 . S
C608 H599 0.929 . S
C608 C600 1.378 . S
C608 C603 1.350 . S
C609 H596 0.929 . S
C609 C601 1.433 . S
C609 N611 1.384 . S
N610 C606 1.427 . S
N610 C607 1.384 . S
N611 C603 1.427 . S
N611 C609 1.384 . S
H612 C618 0.930 . S
H613 C622 0.930 . S
H614 C627 0.929 . S
H615 C625 0.929 . S
H616 C620 0.929 . S
H617 C626 0.929 . S
C618 H612 0.930 . S
C618 C619 1.367 . S
C618 C626 1.378 . S
C619 C618 1.367 . S
C619 C627 1.433 . S
C620 H616 0.929 . S
C620 C622 1.378 . S
C620 C624 1.350 . S
C621 C624 1.463 . S
C621 C626 1.350 . S
C621 N629 1.427 . S
C622 H613 0.930 . S
C622 C620 1.378 . S
C622 C623 1.367 . S
C623 C622 1.367 . S
C623 C625 1.433 . S
C624 C620 1.350 . S
C624 C621 1.463 . S
C624 N628 1.427 . S
C625 H615 0.929 . S
C625 C623 1.433 . S
C625 N628 1.384 . S
C626 H617 0.929 . S
C626 C618 1.378 . S
C626 C621 1.350 . S
C627 H614 0.929 . S
C627 C619 1.433 . S
C627 N629 1.384 . S
N628 C624 1.427 . S
N628 C625 1.384 . S
N629 C621 1.427 . S
N629 C627 1.384 . S
H630 C636 0.930 . S
H631 C640 0.930 . S
H632 C645 0.929 . S
H633 C643 0.929 . S
H634 C638 0.929 . S
H635 C644 0.929 . S
C636 H630 0.930 . S
C636 C637 1.367 . S
C636 C644 1.378 . S
C637 C636 1.367 . S
C637 C645 1.433 . S
C638 H634 0.929 . S
C638 C640 1.378 1_565 S
C638 C642 1.350 . S
C639 C642 1.463 . S
C639 C644 1.350 . S
C639 N647 1.427 . S
C640 H631 0.930 . S
C640 C638 1.378 1_545 S
C640 C641 1.367 . S
C641 C640 1.367 . S
C641 C643 1.433 . S
C642 C638 1.350 . S
C642 C639 1.463 . S
C642 N646 1.427 1_565 S
C643 H633 0.929 . S
C643 C641 1.433 . S
C643 N646 1.384 . S
C644 H635 0.929 . S
C644 C636 1.378 . S
C644 C639 1.350 . S
C645 H632 0.929 . S
C645 C637 1.433 . S
C645 N647 1.384 . S
N646 C642 1.427 1_545 S
N646 C643 1.384 . S
N647 C639 1.427 . S
N647 C645 1.384 . S
H648 C654 0.930 . S
H649 C658 0.930 . S
H650 C663 0.929 . S
H651 C661 0.929 . S
H652 C656 0.929 . S
H653 C662 0.929 1_545 S
C654 H648 0.930 . S
C654 C655 1.367 . S
C654 C662 1.378 . S
C655 C654 1.367 . S
C655 C663 1.433 . S
C656 H652 0.929 . S
C656 C658 1.378 . S
C656 C660 1.350 . S
C657 C660 1.463 . S
C657 C662 1.350 . S
C657 N665 1.427 . S
C658 H649 0.930 . S
C658 C656 1.378 . S
C658 C659 1.367 1_565 S
C659 C658 1.367 1_545 S
C659 C661 1.433 . S
C660 C656 1.350 . S
C660 C657 1.463 . S
C660 N664 1.427 1_565 S
C661 H651 0.929 . S
C661 C659 1.433 . S
C661 N664 1.384 . S
C662 H653 0.929 1_565 S
C662 C654 1.378 . S
C662 C657 1.350 . S
C663 H650 0.929 . S
C663 C655 1.433 . S
C663 N665 1.384 . S
N664 C660 1.427 1_545 S
N664 C661 1.384 . S
N665 C657 1.427 . S
N665 C663 1.384 . S
H666 C672 0.930 . S
H667 C676 0.930 . S
H668 C681 0.929 . S
H669 C679 0.929 . S
H670 C674 0.929 . S
H671 C680 0.929 . S
C672 H666 0.930 . S
C672 C673 1.367 . S
C672 C680 1.378 . S
C673 C672 1.367 . S
C673 C681 1.433 . S
C674 H670 0.929 . S
C674 C676 1.378 . S
C674 C678 1.350 . S
C675 C678 1.463 . S
C675 C680 1.350 . S
C675 N683 1.427 . S
C676 H667 0.930 . S
C676 C674 1.378 . S
C676 C677 1.367 . S
C677 C676 1.367 . S
C677 C679 1.433 . S
C678 C674 1.350 . S
C678 C675 1.463 . S
C678 N682 1.427 . S
C679 H669 0.929 . S
C679 C677 1.433 . S
C679 N682 1.384 . S
C680 H671 0.929 . S
C680 C672 1.378 . S
C680 C675 1.350 . S
C681 H668 0.929 . S
C681 C673 1.433 . S
C681 N683 1.384 . S
N682 C678 1.427 . S
N682 C679 1.384 . S
N683 C675 1.427 . S
N683 C681 1.384 . S
H684 C690 0.930 . S
H685 C694 0.930 . S
H686 C699 0.929 . S
H687 C697 0.929 . S
H688 C692 0.929 . S
H689 C698 0.929 . S
C690 H684 0.930 . S
C690 C691 1.367 . S
C690 C698 1.378 . S
C691 C690 1.367 . S
C691 C699 1.433 . S
C692 H688 0.929 . S
C692 C694 1.378 . S
C692 C696 1.350 . S
C693 C696 1.463 . S
C693 C698 1.350 . S
C693 N701 1.427 . S
C694 H685 0.930 . S
C694 C692 1.378 . S
C694 C695 1.367 . S
C695 C694 1.367 . S
C695 C697 1.433 . S
C696 C692 1.350 . S
C696 C693 1.463 . S
C696 N700 1.427 . S
C697 H687 0.929 . S
C697 C695 1.433 . S
C697 N700 1.384 . S
C698 H689 0.929 . S
C698 C690 1.378 . S
C698 C693 1.350 . S
C699 H686 0.929 . S
C699 C691 1.433 . S
C699 N701 1.384 . S
N700 C696 1.427 . S
N700 C697 1.384 . S
N701 C693 1.427 . S
N701 C699 1.384 . S
H702 C708 0.930 . S
H703 C712 0.930 . S
H704 C717 0.929 . S
H705 C715 0.929 . S
H706 C710 0.929 . S
H707 C716 0.929 . S
C708 H702 0.930 . S
C708 C709 1.367 . S
C708 C716 1.378 . S
C709 C708 1.367 . S
C709 C717 1.433 . S
C710 H706 0.929 . S
C710 C712 1.378 . S
C710 C714 1.350 . S
C711 C714 1.463 . S
C711 C716 1.350 . S
C711 N719 1.427 . S
C712 H703 0.930 . S
C712 C710 1.378 . S
C712 C713 1.367 . S
C713 C712 1.367 . S
C713 C715 1.433 . S
C714 C710 1.350 . S
C714 C711 1.463 . S
C714 N718 1.427 . S
C715 H705 0.929 . S
C715 C713 1.433 . S
C715 N718 1.384 . S
C716 H707 0.929 . S
C716 C708 1.378 . S
C716 C711 1.350 . S
C717 H704 0.929 . S
C717 C709 1.433 . S
C717 N719 1.384 . S
N718 C714 1.427 . S
N718 C715 1.384 . S
N719 C711 1.427 . S
N719 C717 1.384 . S
H720 C726 0.930 1_545 S
H721 C730 0.930 . S
H722 C735 0.929 . S
H723 C733 0.929 . S
H724 C728 0.929 . S
H725 C734 0.929 1_545 S
C726 H720 0.930 1_565 S
C726 C727 1.367 . S
C726 C734 1.378 . S
C727 C726 1.367 . S
C727 C735 1.433 . S
C728 H724 0.929 . S
C728 C730 1.378 . S
C728 C732 1.350 . S
C729 C732 1.463 . S
C729 C734 1.350 . S
C729 N737 1.427 . S
C730 H721 0.930 . S
C730 C728 1.378 . S
C730 C731 1.367 . S
C731 C730 1.367 . S
C731 C733 1.433 . S
C732 C728 1.350 . S
C732 C729 1.463 . S
C732 N736 1.427 . S
C733 H723 0.929 . S
C733 C731 1.433 . S
C733 N736 1.384 . S
C734 H725 0.929 1_565 S
C734 C726 1.378 . S
C734 C729 1.350 . S
C735 H722 0.929 . S
C735 C727 1.433 . S
C735 N737 1.384 . S
N736 C732 1.427 . S
N736 C733 1.384 . S
N737 C729 1.427 . S
N737 C735 1.384 . S
H738 C744 0.930 . S
H739 C748 0.930 . S
H740 C753 0.929 . S
H741 C751 0.929 . S
H742 C746 0.929 . S
H743 C752 0.929 1_565 S
C744 H738 0.930 . S
C744 C745 1.367 1_565 S
C744 C752 1.378 1_565 S
C745 C744 1.367 1_545 S
C745 C753 1.433 . S
C746 H742 0.929 . S
C746 C748 1.378 . S
C746 C750 1.350 . S
C747 C750 1.463 . S
C747 C752 1.350 . S
C747 N755 1.427 . S
C748 H739 0.930 . S
C748 C746 1.378 . S
C748 C749 1.367 . S
C749 C748 1.367 . S
C749 C751 1.433 . S
C750 C746 1.350 . S
C750 C747 1.463 . S
C750 N754 1.427 . S
C751 H741 0.929 . S
C751 C749 1.433 . S
C751 N754 1.384 . S
C752 H743 0.929 1_545 S
C752 C744 1.378 1_545 S
C752 C747 1.350 . S
C753 H740 0.929 . S
C753 C745 1.433 . S
C753 N755 1.384 . S
N754 C750 1.427 . S
N754 C751 1.384 . S
N755 C747 1.427 . S
N755 C753 1.384 . S
H756 C762 0.930 . S
H757 C766 0.930 . S
H758 C771 0.929 1_455 S
H759 C769 0.929 . S
H760 C764 0.929 . S
H761 C770 0.929 . S
C762 H756 0.930 . S
C762 C763 1.367 . S
C762 C770 1.378 . S
C763 C762 1.367 . S
C763 C771 1.433 . S
C764 H760 0.929 . S
C764 C766 1.378 . S
C764 C768 1.350 . S
C765 C768 1.463 . S
C765 C770 1.350 . S
C765 N773 1.427 . S
C766 H757 0.930 . S
C766 C764 1.378 . S
C766 C767 1.367 . S
C767 C766 1.367 . S
C767 C769 1.433 . S
C768 C764 1.350 . S
C768 C765 1.463 . S
C768 N772 1.427 . S
C769 H759 0.929 . S
C769 C767 1.433 . S
C769 N772 1.384 . S
C770 H761 0.929 . S
C770 C762 1.378 . S
C770 C765 1.350 . S
C771 H758 0.929 1_655 S
C771 C763 1.433 . S
C771 N773 1.384 . S
N772 C768 1.427 . S
N772 C769 1.384 . S
N773 C765 1.427 . S
N773 C771 1.384 . S
H774 C780 0.930 . S
H775 C784 0.930 . S
H776 C789 0.929 . S
H777 C787 0.929 . S
H778 C782 0.929 . S
H779 C788 0.929 . S
C780 H774 0.930 . S
C780 C781 1.367 . S
C780 C788 1.378 . S
C781 C780 1.367 . S
C781 C789 1.433 . S
C782 H778 0.929 . S
C782 C784 1.378 . S
C782 C786 1.350 . S
C783 C786 1.463 . S
C783 C788 1.350 . S
C783 N791 1.427 . S
C784 H775 0.930 . S
C784 C782 1.378 . S
C784 C785 1.367 . S
C785 C784 1.367 . S
C785 C787 1.433 . S
C786 C782 1.350 . S
C786 C783 1.463 . S
C786 N790 1.427 . S
C787 H777 0.929 . S
C787 C785 1.433 . S
C787 N790 1.384 . S
C788 H779 0.929 . S
C788 C780 1.378 . S
C788 C783 1.350 . S
C789 H776 0.929 . S
C789 C781 1.433 . S
C789 N791 1.384 . S
N790 C786 1.427 . S
N790 C787 1.384 . S
N791 C783 1.427 . S
N791 C789 1.384 . S
H792 C798 0.930 . S
H793 C802 0.930 . S
H794 C807 0.929 . S
H795 C805 0.929 . S
H796 C800 0.929 . S
H797 C806 0.929 . S
C798 H792 0.930 . S
C798 C799 1.367 . S
C798 C806 1.378 . S
C799 C798 1.367 . S
C799 C807 1.433 . S
C800 H796 0.929 . S
C800 C802 1.378 . S
C800 C804 1.350 . S
C801 C804 1.463 . S
C801 C806 1.350 . S
C801 N809 1.427 . S
C802 H793 0.930 . S
C802 C800 1.378 . S
C802 C803 1.367 . S
C803 C802 1.367 . S
C803 C805 1.433 . S
C804 C800 1.350 . S
C804 C801 1.463 . S
C804 N808 1.427 . S
C805 H795 0.929 . S
C805 C803 1.433 . S
C805 N808 1.384 . S
C806 H797 0.929 . S
C806 C798 1.378 . S
C806 C801 1.350 . S
C807 H794 0.929 . S
C807 C799 1.433 . S
C807 N809 1.384 . S
N808 C804 1.427 . S
N808 C805 1.384 . S
N809 C801 1.427 . S
N809 C807 1.384 . S
H810 C816 0.930 . S
H811 C820 0.930 . S
H812 C825 0.929 . S
H813 C823 0.929 . S
H814 C818 0.929 . S
H815 C824 0.929 . S
C816 H810 0.930 . S
C816 C817 1.367 . S
C816 C824 1.378 . S
C817 C816 1.367 . S
C817 C825 1.433 . S
C818 H814 0.929 . S
C818 C820 1.378 . S
C818 C822 1.350 . S
C819 C822 1.463 1_565 S
C819 C824 1.350 . S
C819 N827 1.427 . S
C820 H811 0.930 . S
C820 C818 1.378 . S
C820 C821 1.367 . S
C821 C820 1.367 . S
C821 C823 1.433 . S
C822 C818 1.350 . S
C822 C819 1.463 1_545 S
C822 N826 1.427 . S
C823 H813 0.929 . S
C823 C821 1.433 . S
C823 N826 1.384 . S
C824 H815 0.929 . S
C824 C816 1.378 . S
C824 C819 1.350 . S
C825 H812 0.929 . S
C825 C817 1.433 . S
C825 N827 1.384 . S
N826 C822 1.427 . S
N826 C823 1.384 . S
N827 C819 1.427 . S
N827 C825 1.384 . S
H828 C834 0.930 . S
H829 C838 0.930 . S
H830 C843 0.929 . S
H831 C841 0.929 . S
H832 C836 0.929 . S
H833 C842 0.943 . S
C834 H828 0.930 . S
C834 C835 1.367 . S
C834 C842 1.378 . S
C835 C834 1.367 . S
C835 C843 1.433 . S
C836 H832 0.929 . S
C836 C838 1.378 . S
C836 C840 1.350 . S
C837 C840 1.463 1_655 S
C837 C842 1.350 . S
C837 N845 1.427 . S
C838 H829 0.930 . S
C838 C836 1.378 . S
C838 C839 1.367 . S
C839 C838 1.367 . S
C839 C841 1.433 . S
C840 C836 1.350 . S
C840 C837 1.463 1_455 S
C840 N844 1.427 . S
C841 H831 0.929 . S
C841 C839 1.433 . S
C841 N844 1.384 . S
C842 H833 0.943 . S
C842 C834 1.378 . S
C842 C837 1.350 . S
C843 H830 0.929 . S
C843 C835 1.433 . S
C843 N845 1.384 . S
N844 C840 1.427 . S
N844 C841 1.384 . S
N845 C837 1.427 . S
N845 C843 1.384 . S
C367 C48 0.679 . S
C371 C29 0.649 . S
C385 C92 3.345 1_556 S
C389 C71 3.402 . S
C403 C109 1.078 1_556 S
C407 C12 1.067 . S
C421 C111 3.108 . S
C425 C52 3.080 . S
C439 C88 2.151 . S
C443 C31 2.273 . S
C457 C8 0.607 . S
C461 C69 0.337 . S
C475 C149 2.925 . S
C479 C172 2.881 . S
C493 C212 0.825 . S
C497 C189 0.859 . S
C511 C229 0.925 . S
C515 C132 0.916 . S
C529 C168 0.596 . S
C533 C231 0.501 . S
C547 C208 2.226 . S
C551 C151 2.339 . S
C565 C191 2.449 . S
C569 C128 2.420 . S
C583 C288 0.669 . S
C587 C269 0.605 . S
C601 C311 3.425 . S
C605 C332 3.370 . S
C619 C349 1.083 . S
C623 C252 1.069 . S
C637 C351 3.035 . S
C641 C292 3.008 . S
C655 C328 2.172 1_455 S
C659 C271 2.291 . S
C673 C248 0.580 . S
C677 C309 0.313 . S
C691 C202 2.253 . S
C695 C17 2.601 . S
C709 C122 1.951 . S
C713 C42 1.923 . S
C727 C97 3.043 . S
C731 C162 2.746 . S
C745 C82 2.269 . S
C749 C257 2.607 . S
C763 C2 1.846 . S
C767 C282 1.804 . S
C781 C337 3.003 . S
C785 C57 3.009 . S
C799 C137 2.674 . S
C803 C322 2.320 . S
C817 C177 2.061 . S
C821 C242 1.841 . S
C835 C297 2.908 . S
C839 C217 2.899 . S
