# Generated by pormake.
# Topology smb, (6)-cn, num edge types: 1
# Building blocks:
#     Node 0, Type 0, BuildingBlock: OJICUG_clean_sbu_0, # of connection points: 6
#     Node 1, Type 0, BuildingBlock: OJICUG_clean_sbu_0, # of connection points: 6
#     Node 2, Type 0, BuildingBlock: OJICUG_clean_sbu_0, # of connection points: 6
#     Node 3, Type 0, BuildingBlock: OJICUG_clean_sbu_0, # of connection points: 6
#     Node 4, Type 0, BuildingBlock: OJICUG_clean_sbu_0, # of connection points: 6
#     Node 5, Type 0, BuildingBlock: OJICUG_clean_sbu_0, # of connection points: 6
#     Node 6, Type 0, BuildingBlock: OJICUG_clean_sbu_0, # of connection points: 6
#     Node 7, Type 0, BuildingBlock: OJICUG_clean_sbu_0, # of connection points: 6
#     Node 8, Type 0, BuildingBlock: OJICUG_clean_sbu_0, # of connection points: 6
#     Edge 9, Type (0, 0), BuildingBlock: CIFDUS_clean_linker_0, # of connection points: 2
#     Edge 10, Type (0, 0), BuildingBlock: CIFDUS_clean_linker_0, # of connection points: 2
#     Edge 11, Type (0, 0), BuildingBlock: CIFDUS_clean_linker_0, # of connection points: 2
#     Edge 12, Type (0, 0), BuildingBlock: CIFDUS_clean_linker_0, # of connection points: 2
#     Edge 13, Type (0, 0), BuildingBlock: CIFDUS_clean_linker_0, # of connection points: 2
#     Edge 14, Type (0, 0), BuildingBlock: CIFDUS_clean_linker_0, # of connection points: 2
#     Edge 15, Type (0, 0), BuildingBlock: CIFDUS_clean_linker_0, # of connection points: 2
#     Edge 16, Type (0, 0), BuildingBlock: CIFDUS_clean_linker_0, # of connection points: 2
#     Edge 17, Type (0, 0), BuildingBlock: CIFDUS_clean_linker_0, # of connection points: 2
#     Edge 18, Type (0, 0), BuildingBlock: CIFDUS_clean_linker_0, # of connection points: 2
#     Edge 19, Type (0, 0), BuildingBlock: CIFDUS_clean_linker_0, # of connection points: 2
#     Edge 20, Type (0, 0), BuildingBlock: CIFDUS_clean_linker_0, # of connection points: 2
#     Edge 21, Type (0, 0), BuildingBlock: CIFDUS_clean_linker_0, # of connection points: 2
#     Edge 22, Type (0, 0), BuildingBlock: CIFDUS_clean_linker_0, # of connection points: 2
#     Edge 23, Type (0, 0), BuildingBlock: CIFDUS_clean_linker_0, # of connection points: 2
#     Edge 24, Type (0, 0), BuildingBlock: CIFDUS_clean_linker_0, # of connection points: 2
#     Edge 25, Type (0, 0), BuildingBlock: CIFDUS_clean_linker_0, # of connection points: 2
#     Edge 26, Type (0, 0), BuildingBlock: CIFDUS_clean_linker_0, # of connection points: 2
#     Edge 27, Type (0, 0), BuildingBlock: CIFDUS_clean_linker_0, # of connection points: 2
#     Edge 28, Type (0, 0), BuildingBlock: CIFDUS_clean_linker_0, # of connection points: 2
#     Edge 29, Type (0, 0), BuildingBlock: CIFDUS_clean_linker_0, # of connection points: 2
#     Edge 30, Type (0, 0), BuildingBlock: CIFDUS_clean_linker_0, # of connection points: 2
#     Edge 31, Type (0, 0), BuildingBlock: CIFDUS_clean_linker_0, # of connection points: 2
#     Edge 32, Type (0, 0), BuildingBlock: CIFDUS_clean_linker_0, # of connection points: 2
#     Edge 33, Type (0, 0), BuildingBlock: CIFDUS_clean_linker_0, # of connection points: 2
#     Edge 34, Type (0, 0), BuildingBlock: CIFDUS_clean_linker_0, # of connection points: 2
#     Edge 35, Type (0, 0), BuildingBlock: CIFDUS_clean_linker_0, # of connection points: 2
# Relax obj value: 0.341
# Max RMSD: 0.254
# Mean RMSD: 0.254
data_MOF--net-smb--node1-OJICUG_clean_sbu_0--edge1-CIFDUS_clean_linker_0
_symmetry_space_group_name_H-M    P1
_symmetry_Int_Tables_number       1
_symmetry_cell_setting            triclinic
loop_
_symmetry_equiv_pos_as_xyz
'x, y, z'
_cell_length_a     36.384544
_cell_length_b     35.922869
_cell_length_c     25.293514
_cell_angle_alpha  89.494616
_cell_angle_beta   90.238103
_cell_angle_gamma 120.77176
loop_
_atom_site_label
_atom_site_type_symbol
_atom_site_fract_x
_atom_site_fract_y
_atom_site_fract_z
_atom_type_partial_charge
Sc0 Sc 0.32004 0.15615 0.02352 0.0
Sc1 Sc 0.41339 0.20869 0.944 0.0
Sc2 Sc 0.42159 0.20862 0.08247 0.0
O3 O 0.38493 0.19124 0.01661 0.0
C4 C 0.34528 0.22013 0.12053 0.0
C5 C 0.3363 0.2259 0.93296 0.0
C6 C 0.4734 0.29346 0.01104 0.0
C7 C 0.33602 0.11346 0.92275 0.0
C8 C 0.34868 0.11204 0.11089 0.0
C9 C 0.47188 0.18094 0.00483 0.0
O10 O 0.31817 0.19504 0.08682 0.0
O11 O 0.37243 0.23192 0.91895 0.0
O12 O 0.46216 0.27424 0.05557 0.0
O13 O 0.31394 0.11312 0.96165 0.0
O14 O 0.38521 0.1457 0.1166 0.0
O15 O 0.45695 0.18695 0.9623 0.0
O16 O 0.32099 0.10951 0.07794 0.0
O17 O 0.3721 0.14593 0.91073 0.0
O18 O 0.46277 0.18858 0.05027 0.0
O19 O 0.31359 0.19936 0.9694 0.0
O20 O 0.38366 0.22886 0.12227 0.0
O21 O 0.45915 0.27389 0.9675 0.0
Sc22 Sc 0.80854 0.15413 0.00864 0.0
Sc23 Sc 0.7739 0.20818 0.92341 0.0
Sc24 Sc 0.75501 0.20239 0.05908 0.0
O25 O 0.77925 0.18831 -0.0033 0.0
C26 C 0.72968 0.10852 0.08841 0.0
C27 C 0.75392 0.11135 0.90624 0.0
C28 C 0.68486 0.18232 0.97034 0.0
C29 C 0.86576 0.22218 0.91783 0.0
C30 C 0.84198 0.21494 0.10555 0.0
C31 C 0.79701 0.29012 -0.00406 0.0
O32 O 0.76436 0.11287 0.07058 0.0
O33 O 0.75828 0.14685 0.88898 0.0
O34 O 0.70001 0.19291 0.01665 0.0
O35 O 0.85662 0.19085 0.9495 0.0
O36 O 0.80622 0.21266 0.11099 0.0
O37 O 0.78885 0.27149 0.95113 0.0
O38 O 0.85118 0.19995 0.06578 0.0
O39 O 0.84024 0.23541 0.90756 0.0
O40 O 0.79005 0.26974 0.03953 0.0
O41 O 0.76753 0.10754 0.95127 0.0
O42 O 0.71862 0.13631 0.08124 0.0
O43 O 0.70673 0.18284 0.93125 0.0
Sc44 Sc 0.82521 0.65984 0.03956 0.0
Sc45 Sc 0.78365 0.58208 0.93689 0.0
Sc46 Sc 0.7662 0.54917 0.07037 0.0
O47 O 0.79177 0.597 0.01553 0.0
C48 C 0.85392 0.6157 0.12542 0.0
C49 C 0.881 0.6598 0.9434 0.0
C50 C 0.80167 0.51067 0.98456 0.0
C51 C 0.76992 0.66259 0.94319 0.0
C52 C 0.74802 0.61898 0.11962 0.0
C53 C 0.69261 0.51164 0.98307 0.0
O54 O 0.86129 0.64867 0.0984 0.0
O55 O 0.85054 0.62757 0.91972 0.0
O56 O 0.79089 0.51362 0.03144 0.0
O57 O 0.7925 0.67796 0.98446 0.0
O58 O 0.73963 0.58039 0.11374 0.0
O59 O 0.71624 0.53381 0.9445 0.0
O60 O 0.77781 0.65149 0.09575 0.0
O61 O 0.76439 0.62866 0.9205 0.0
O62 O 0.70682 0.51433 0.02956 0.0
O63 O 0.87586 0.67468 0.98616 0.0
O64 O 0.82155 0.57832 0.11894 0.0
O65 O 0.8004 0.53291 0.94597 0.0
Sc66 Sc -0.01046 0.47965 0.34579 0.0
Sc67 Sc 0.07775 0.52695 0.25783 0.0
Sc68 Sc 0.0942 0.5297 0.39467 0.0
O69 O 0.05375 0.51203 0.33272 0.0
C70 C 0.02343 0.54964 0.43593 0.0
C71 C 0.00282 0.54632 0.25247 0.0
C72 C 0.14354 0.6124 0.32039 0.0
C73 C -0.0022 0.43104 0.24634 0.0
C74 C 0.02086 0.43737 0.43285 0.0
C75 C 0.13727 0.49764 0.31108 0.0
O76 O -0.00562 0.52582 0.40328 0.0
O77 O 0.03909 0.55352 0.23768 0.0
O78 O 0.1336 0.59428 0.36552 0.0
O79 O 0.9795 0.43136 0.2889 0.0
O80 O 0.05944 0.4678 0.43082 0.0
O81 O 0.11905 0.50197 0.2707 0.0
O82 O -0.00899 0.43681 0.40591 0.0
O83 O 0.03151 0.46398 0.22871 0.0
O84 O 0.13255 0.50811 0.35731 0.0
O85 O 0.98061 0.51879 0.28816 0.0
O86 O 0.05959 0.55238 0.43809 0.0
O87 O 0.12745 0.59189 0.27776 0.0
Sc88 Sc 0.48271 0.49014 0.33377 0.0
Sc89 Sc 0.43483 0.53472 0.25302 0.0
Sc90 Sc 0.44422 0.55217 0.39006 0.0
O91 O 0.45405 0.52577 0.32554 0.0
C92 C 0.42392 0.46031 0.43516 0.0
C93 C 0.41281 0.43739 0.24575 0.0
C94 C 0.35629 0.51196 0.32744 0.0
C95 C 0.52669 0.55012 0.23211 0.0
C96 C 0.53685 0.56844 0.41209 0.0
C97 C 0.46478 0.62601 0.305 0.0
O98 O 0.44314 0.45236 0.39924 0.0
O99 O 0.41149 0.46981 0.22841 0.0
O100 O 0.37882 0.5268 0.36894 0.0
O101 O 0.52435 0.525 0.26939 0.0
O102 O 0.5081 0.57819 0.41643 0.0
O103 O 0.45406 0.60109 0.26562 0.0
O104 O 0.53267 0.53693 0.3849 0.0
O105 O 0.49687 0.5572 0.22012 0.0
O106 O 0.46401 0.61308 0.35201 0.0
O107 O 0.43638 0.43953 0.28413 0.0
O108 O 0.42322 0.49519 0.43677 0.0
O109 O 0.37179 0.51284 0.28217 0.0
Sc110 Sc 0.49303 0.99449 0.36815 0.0
Sc111 Sc 0.43296 0.90158 0.28931 0.0
Sc112 Sc 0.4395 0.891 0.42681 0.0
O113 O 0.45512 0.92906 0.36142 0.0
C114 C 0.53589 0.96277 0.45215 0.0
C115 C 0.52755 0.97723 0.26145 0.0
C116 C 0.46292 0.84091 0.34282 0.0
C117 C 0.42059 0.98267 0.28551 0.0
C118 C 0.43062 0.96908 0.46735 0.0
C119 C 0.35293 0.83926 0.36158 0.0
O120 O 0.53861 0.99147 0.42019 0.0
O121 O 0.49221 0.94362 0.25037 0.0
O122 O 0.4574 0.84958 0.38965 0.0
O123 O 0.45148 0.00451 0.31713 0.0
O124 O 0.42169 0.93005 0.4691 0.0
O125 O 0.37042 0.855 0.31732 0.0
O126 O 0.45546 -0.00336 0.43318 0.0
O127 O 0.409 0.94425 0.27153 0.0
O128 O 0.3736 0.85002 0.40472 0.0
O129 O 0.53382 -0.00137 0.30367 0.0
O130 O 0.50248 0.92604 0.45819 0.0
O131 O 0.45522 0.85665 0.3018 0.0
Sc132 Sc 0.66157 0.82288 0.67653 0.0
Sc133 Sc 0.75078 0.86017 0.5906 0.0
Sc134 Sc 0.76517 0.87477 0.72812 0.0
O135 O 0.72583 0.85267 0.66495 0.0
C136 C 0.69584 0.8984 0.76104 0.0
C137 C 0.67693 0.882 0.57476 0.0
C138 C 0.81541 0.95031 0.64351 0.0
C139 C 0.66989 0.76525 0.5871 0.0
C140 C 0.68926 0.78431 0.77073 0.0
C141 C 0.80969 0.83575 0.65785 0.0
O142 O 0.6657 0.86943 0.73349 0.0
O143 O 0.70965 0.88143 0.55858 0.0
O144 O 0.80706 0.9351 0.69021 0.0
O145 O 0.64963 0.77262 0.6222 0.0
O146 O 0.72676 0.8171 0.77249 0.0
O147 O 0.79495 0.84008 0.61412 0.0
O148 O 0.6614 0.78001 0.73706 0.0
O149 O 0.70687 0.79362 0.5709 0.0
O150 O 0.80131 0.84653 0.70181 0.0
O151 O 0.65671 0.86294 0.61678 0.0
O152 O 0.73343 0.90483 0.76169 0.0
O153 O 0.79816 0.92752 0.60267 0.0
Sc154 Sc 0.1586 0.82724 0.68398 0.0
Sc155 Sc 0.10976 0.85469 0.58154 0.0
Sc156 Sc 0.09617 0.87252 0.71448 0.0
O157 O 0.12148 0.85147 0.65999 0.0
C158 C 0.08082 0.78427 0.76459 0.0
C159 C 0.10278 0.76352 0.59108 0.0
C160 C 0.02017 0.8306 0.63051 0.0
C161 C 0.20893 0.88471 0.58437 0.0
C162 C 0.1855 0.9014 0.76826 0.0
C163 C 0.12969 0.9458 0.62515 0.0
O164 O 0.1107 0.7833 0.73986 0.0
O165 O 0.09104 0.78798 0.56994 0.0
O166 O 0.03546 0.8435 0.67626 0.0
O167 O 0.20844 0.86924 0.62995 0.0
O168 O 0.15249 0.90402 0.76133 0.0
O169 O 0.12698 0.92159 0.58709 0.0
O170 O 0.19289 0.87556 0.74323 0.0
O171 O 0.17531 0.87836 0.56084 0.0
O172 O 0.11915 0.93231 0.67247 0.0
O173 O 0.12949 0.77553 0.62874 0.0
O174 O 0.07262 0.81452 0.75988 0.0
O175 O 0.04296 0.83284 0.59145 0.0
Sc176 Sc 0.14931 0.31245 0.68955 0.0
Sc177 Sc 0.13136 0.23498 0.59139 0.0
Sc178 Sc 0.10512 0.20297 0.72386 0.0
O179 O 0.12858 0.25019 0.66831 0.0
C180 C 0.18481 0.2797 0.78273 0.0
C181 C 0.21943 0.32268 0.60537 0.0
C182 C 0.1552 0.1721 0.6507 0.0
C183 C 0.10081 0.30384 0.58148 0.0
C184 C 0.07011 0.26138 0.76689 0.0
C185 C 0.04029 0.15889 0.62751 0.0
O186 O 0.18791 0.3103 0.75368 0.0
O187 O 0.19691 0.28557 0.58476 0.0
O188 O 0.13977 0.17426 0.69457 0.0
O189 O 0.11213 0.31947 0.62767 0.0
O190 O 0.06866 0.22566 0.762 0.0
O191 O 0.06599 0.1824 0.59126 0.0
O192 O 0.09679 0.29586 0.74278 0.0
O193 O 0.10857 0.27586 0.56286 0.0
O194 O 0.05037 0.16243 0.67618 0.0
O195 O 0.2052 0.33725 0.64039 0.0
O196 O 0.15688 0.24007 0.77631 0.0
O197 O 0.15364 0.19129 0.60923 0.0
H198 H 0.27225 0.03312 0.94901 0.0
H199 H 0.36065 0.10577 0.82312 0.0
H200 H 0.32576 0.04231 0.766 0.0
H201 H 0.26402 0.96936 0.74848 0.0
H202 H 0.17347 0.8997 0.87304 0.0
H203 H 0.21582 0.9585 0.93473 0.0
C204 C 0.28411 0.03508 0.90918 0.0
C205 C 0.31831 0.07431 0.88989 0.0
C206 C 0.26363 -0.00111 0.87654 0.0
C207 C 0.33398 0.07602 0.83867 0.0
C208 C 0.31407 0.03978 0.80599 0.0
C209 C 0.25461 0.96675 0.78963 0.0
C210 C 0.2163 0.93064 0.8069 0.0
C211 C 0.2781 0.00146 0.82404 0.0
C212 C 0.20332 0.92738 0.85964 0.0
C213 C 0.22722 0.96104 0.89457 0.0
H214 H 0.93488 0.21647 0.9426 0.0
H215 H 0.88847 0.27287 0.82855 0.0
H216 H 0.95215 0.29653 0.77431 0.0
H217 H 0.01622 0.29212 0.7537 0.0
H218 H 0.05911 0.23172 0.8664 0.0
H219 H 0.00207 0.21932 0.9272 0.0
C220 C 0.93886 0.23431 0.90615 0.0
C221 C 0.90669 0.24207 0.88908 0.0
C222 C 0.97494 0.24703 0.87483 0.0
C223 C 0.9127 0.2661 0.84234 0.0
C224 C 0.94902 0.27955 0.81119 0.0
C225 C 0.01343 0.27724 0.79213 0.0
C226 C 0.04107 0.26235 0.80574 0.0
C227 C 0.97967 0.26892 0.8262 0.0
C228 C 0.03753 0.24289 0.85529 0.0
C229 C 0.00499 0.23572 0.8899 0.0
H230 H 0.7086 0.78935 0.87296 0.0
H231 H 0.65597 0.69975 0.74374 0.0
H232 H 0.67322 0.65017 0.78958 0.0
H233 H 0.71633 0.64032 0.85786 0.0
H234 H 0.77339 0.73442 0.98304 0.0
H235 H 0.74188 0.77445 0.94699 0.0
C236 C 0.69944 0.75812 0.85595 0.0
C237 C 0.68156 0.74812 0.80525 0.0
C238 C 0.71177 0.73143 0.88085 0.0
C239 C 0.66953 0.70777 0.78313 0.0
C240 C 0.68022 0.67993 0.80882 0.0
C241 C 0.72164 0.66941 0.87742 0.0
C242 C 0.74828 0.68494 0.9222 0.0
C243 C 0.70366 0.69276 0.8562 0.0
C244 C 0.75395 0.72217 0.94777 0.0
C245 C 0.73567 0.74502 0.92748 0.0
H246 H 0.06787 0.78836 0.86701 0.0
H247 H 0.02647 0.70099 0.73539 0.0
H248 H 0.96011 0.65068 0.78232 0.0
H249 H 0.90921 0.63904 0.85415 0.0
H250 H 0.95185 0.72987 0.98345 0.0
H251 H 0.02222 0.77119 0.94418 0.0
C252 C 0.04498 0.75739 0.84973 0.0
C253 C 0.05159 0.74798 0.79837 0.0
C254 C 0.00657 0.72994 0.87584 0.0
C255 C 0.02196 0.70828 0.77549 0.0
C256 C -0.01622 0.68002 0.8019 0.0
C257 C 0.93401 0.66761 0.87393 0.0
C258 C 0.92468 0.68186 0.92091 0.0
C259 C 0.97484 0.6917 0.85097 0.0
C260 C 0.95758 0.71849 0.94664 0.0
C261 C -0.00191 0.74219 0.92442 0.0
H262 H 0.26719 0.30557 0.76714 0.0
H263 H 0.17125 0.26867 0.88773 0.0
H264 H 0.21402 0.25369 0.94955 0.0
H265 H 0.27092 0.23719 0.96222 0.0
H266 H 0.36429 0.26902 0.83872 0.0
H267 H 0.33056 0.29996 0.78518 0.0
C268 C 0.25686 0.29625 0.80778 0.0
C269 C 0.21667 0.28849 0.82345 0.0
C270 C 0.28042 0.28534 0.84187 0.0
C271 C 0.20258 0.27532 0.87551 0.0
C272 C 0.22666 0.26611 0.91044 0.0
C273 C 0.28418 0.25133 0.92385 0.0
C274 C 0.31929 0.24971 0.90393 0.0
C275 C 0.26434 0.2686 0.89294 0.0
C276 C 0.33681 0.2692 0.85471 0.0
C277 C 0.3176 0.28699 0.82401 0.0
H278 H 0.70033 0.97181 0.729 0.0
H279 H 0.67926 0.89079 0.86545 0.0
H280 H 0.6909 0.94979 0.92396 0.0
H281 H 0.71851 0.0272 0.93571 0.0
H282 H 0.74336 0.10963 0.79903 0.0
H283 H 0.71842 0.04729 0.74097 0.0
C284 C 0.69664 0.96682 0.77149 0.0
C285 C 0.68845 0.92733 0.79335 0.0
C286 C 0.70511 0.00137 0.80466 0.0
C287 C 0.68479 0.92097 0.84824 0.0
C288 C 0.69201 0.9548 0.88154 0.0
C289 C 0.71808 0.03147 0.89324 0.0
C290 C 0.73369 0.07308 0.87164 0.0
C291 C 0.70411 -0.00434 0.86016 0.0
C292 C 0.73196 0.07797 0.81663 0.0
C293 C 0.71774 0.04237 0.78338 0.0
H294 H 0.92033 0.28065 0.08073 0.0
H295 H 0.83652 0.21393 0.2122 0.0
H296 H 0.88149 0.2747 0.27018 0.0
H297 H 0.93673 0.35083 0.27896 0.0
H298 H 0.01725 0.42008 0.1454 0.0
H299 H 0.98144 0.35436 0.0926 0.0
C300 C 0.91304 0.27888 0.12256 0.0
C301 C 0.87555 0.2432 0.14257 0.0
C302 C 0.9376 0.31488 0.15473 0.0
C303 C 0.86556 0.24125 0.19641 0.0
C304 C 0.89089 0.27613 0.22926 0.0
C305 C 0.94668 0.35155 0.23841 0.0
C306 C 0.97887 0.39053 0.2158 0.0
C307 C 0.92564 0.3139 0.20811 0.0
C308 C -0.00792 0.39062 0.16358 0.0
C309 C 0.97171 0.35304 0.13335 0.0
H310 H 0.60354 0.57817 0.27474 0.0
H311 H 0.54128 0.57796 0.1291 0.0
H312 H 0.61001 0.61085 0.08248 0.0
H313 H 0.68433 0.62683 0.08127 0.0
H314 H 0.74351 0.61968 0.2258 0.0
H315 H 0.67956 0.60368 0.27586 0.0
C316 C 0.60511 0.58556 0.2328 0.0
C317 C 0.56765 0.57447 0.20464 0.0
C318 C 0.64411 0.60349 0.2066 0.0
C319 C 0.56992 0.5856 0.151 0.0
C320 C 0.60905 0.60435 0.12453 0.0
C321 C 0.6835 0.62344 0.12402 0.0
C322 C 0.71787 0.62454 0.15052 0.0
C323 C 0.64593 0.61177 0.15161 0.0
C324 C 0.71707 0.61933 0.20542 0.0
C325 C 0.6805 0.60969 0.23367 0.0
H326 H 0.36175 0.11083 0.21431 0.0
H327 H 0.32172 0.03012 0.07631 0.0
H328 H 0.33564 0.97795 0.12202 0.0
H329 H 0.37246 0.96356 0.19521 0.0
H330 H 0.41639 0.04866 0.33003 0.0
H331 H 0.38772 0.0908 0.29177 0.0
C332 C 0.35464 0.08097 0.19504 0.0
C333 C 0.34103 0.07417 0.14227 0.0
C334 C 0.36461 0.0526 0.22053 0.0
C335 C 0.33186 0.03563 0.11726 0.0
C336 C 0.34052 0.00627 0.1431 0.0
C337 C 0.37504 0.99087 0.21651 0.0
C338 C 0.39759 0.00368 0.26467 0.0
C339 C 0.35905 0.01566 0.19376 0.0
C340 C 0.40027 0.03883 0.29219 0.0
C341 C 0.38366 0.06285 0.27054 0.0
H342 H 0.65054 0.04539 0.06616 0.0
H343 H 0.74565 0.09478 0.18906 0.0
H344 H 0.69008 0.05547 0.256 0.0
H345 H 0.61329 0.01752 0.27962 0.0
H346 H 0.5188 0.96927 0.15524 0.0
H347 H 0.57512 -0.0022 0.08864 0.0
C348 C 0.6591 0.04576 0.10741 0.0
C349 C 0.70173 0.07226 0.12303 0.0
C350 C 0.62696 0.02457 0.1454 0.0
C351 C 0.71289 0.07363 0.17641 0.0
C352 C 0.68106 0.05193 0.21464 0.0
C353 C 0.60521 0.01311 0.23792 0.0
C354 C 0.56214 0.99228 0.22221 0.0
C355 C 0.63781 0.02916 0.19971 0.0
C356 C 0.55183 0.98566 0.16818 0.0
C357 C 0.58395 0.00182 0.13008 0.0
H358 H 0.93977 0.55791 0.28891 0.0
H359 H 0.02878 0.59182 0.15956 0.0
H360 H -0.00427 0.62715 0.11335 0.0
H361 H 0.9342 0.63718 0.10352 0.0
H362 H 0.84197 0.59732 0.22944 0.0
H363 H 0.88445 0.57692 0.28431 0.0
C364 C 0.9521 0.57325 0.25075 0.0
C365 C -0.01427 0.5712 0.22695 0.0
C366 C 0.93266 0.59288 0.22417 0.0
C367 C 0.00231 0.59234 0.17827 0.0
C368 C -0.01644 0.61264 0.15186 0.0
C369 C 0.9246 0.62572 0.14381 0.0
C370 C 0.88557 0.61871 0.16301 0.0
C371 C 0.94779 0.61173 0.17362 0.0
C372 C 0.87237 0.60307 0.21458 0.0
C373 C 0.89626 0.59094 0.2455 0.0
H374 H 0.32846 0.2813 0.09098 0.0
H375 H 0.34363 0.21756 0.22704 0.0
H376 H 0.36041 0.27987 0.28209 0.0
H377 H 0.38702 0.35757 0.28548 0.0
H378 H 0.37819 0.42362 0.14689 0.0
H379 H 0.34277 0.35555 0.09867 0.0
C380 C 0.3333 0.28042 0.13325 0.0
C381 C 0.3349 0.24545 0.15538 0.0
C382 C 0.34578 0.31742 0.16355 0.0
C383 C 0.34198 0.24439 0.20976 0.0
C384 C 0.35231 0.28023 0.24088 0.0
C385 C 0.3769 0.35694 0.24491 0.0
C386 C 0.38641 0.39562 0.21921 0.0
C387 C 0.35715 0.3179 0.21725 0.0
C388 C 0.37195 0.39427 0.16722 0.0
C389 C 0.3516 0.35538 0.13963 0.0
H390 H 0.68551 0.73985 0.4925 0.0
H391 H 0.60864 0.69144 0.63407 0.0
H392 H 0.56724 0.61993 0.59527 0.0
H393 H 0.54416 0.57592 0.51606 0.0
H394 H 0.61543 0.62478 0.37138 0.0
H395 H 0.66897 0.69067 0.41674 0.0
C396 C 0.66017 0.71341 0.51505 0.0
C397 C 0.64922 0.72118 0.56533 0.0
C398 C 0.63573 0.6724 0.49201 0.0
C399 C 0.61676 0.68657 0.59457 0.0
C400 C 0.59327 0.64557 0.57265 0.0
C401 C 0.57255 0.60025 0.49529 0.0
C402 C 0.5763 0.59603 0.44098 0.0
C403 C 0.60126 0.63871 0.52069 0.0
C404 C 0.61255 0.62751 0.4136 0.0
C405 C 0.64258 0.66542 0.4393 0.0
H406 H 0.36699 0.97875 0.43295 0.0
H407 H 0.43115 0.97425 0.57403 0.0
H408 H 0.36642 0.9515 0.62602 0.0
H409 H 0.28844 0.91758 0.62647 0.0
H410 H 0.22278 0.91465 0.4824 0.0
H411 H 0.2909 0.95496 0.43622 0.0
C412 C 0.36725 0.975 0.47559 0.0
C413 C 0.40344 0.97838 0.50004 0.0
C414 C 0.32905 0.95853 0.50407 0.0
C415 C 0.40358 0.97243 0.5549 0.0
C416 C 0.36633 0.95848 0.58426 0.0
C417 C 0.289 0.92599 0.58507 0.0
C418 C 0.25047 0.91198 0.55761 0.0
C419 C 0.32824 0.94869 0.55849 0.0
C420 C 0.25189 0.92421 0.50431 0.0
C421 C 0.29086 0.94751 0.47786 0.0
H422 H 0.05927 0.34572 0.61068 0.0
H423 H 0.08936 0.29393 0.47499 0.0
H424 H 0.05563 0.32196 0.41679 0.0
H425 H 0.0279 0.37057 0.40318 0.0
H426 H 0.0019 0.4265 0.53712 0.0
H427 H 0.02186 0.38605 0.5975 0.0
C428 C 0.05818 0.34034 0.56843 0.0
C429 C 0.07767 0.31861 0.54719 0.0
C430 C 0.03876 0.35668 0.53494 0.0
C431 C 0.07512 0.31103 0.49244 0.0
C432 C 0.05568 0.3269 0.45902 0.0
C433 C 0.02459 0.37203 0.44564 0.0
C434 C 0.01284 0.40057 0.46605 0.0
C435 C 0.03851 0.35078 0.47967 0.0
C436 C 0.00989 0.4037 0.52092 0.0
C437 C 0.02219 0.38133 0.55528 0.0
H438 H 0.26215 0.30364 0.53233 0.0
H439 H 0.27736 0.40441 0.63828 0.0
H440 H 0.34787 0.45348 0.60165 0.0
H441 H 0.39973 0.47101 0.53131 0.0
H442 H 0.38301 0.37257 0.42104 0.0
H443 H 0.31937 0.31875 0.46919 0.0
C444 C 0.281 0.33619 0.5478 0.0
C445 C 0.26393 0.35064 0.58701 0.0
C446 C 0.32137 0.36455 0.52608 0.0
C447 C 0.28925 0.39264 0.60736 0.0
C448 C 0.32969 0.42074 0.58661 0.0
C449 C 0.3827 0.43751 0.51856 0.0
C450 C 0.39536 0.42585 0.47223 0.0
C451 C 0.34529 0.40749 0.54476 0.0
C452 C 0.37373 0.3823 0.4566 0.0
C453 C 0.33702 0.35169 0.48367 0.0
H454 H 0.60053 0.95685 0.41219 0.0
H455 H 0.55136 0.97792 0.55623 0.0
H456 H 0.59591 0.95855 0.60855 0.0
H457 H 0.63758 0.9226 0.61235 0.0
H458 H 0.68373 0.8972 0.46826 0.0
H459 H 0.65162 0.9312 0.41652 0.0
C460 C 0.60131 0.95912 0.45499 0.0
C461 C 0.57351 0.96922 0.48073 0.0
C462 C 0.62519 0.94569 0.48454 0.0
C463 C 0.57337 0.97095 0.53604 0.0
C464 C 0.5982 0.95917 0.5658 0.0
C465 C 0.64087 0.92485 0.56963 0.0
C466 C 0.66184 0.90647 0.54387 0.0
C467 C 0.62231 0.94422 0.54037 0.0
C468 C 0.66711 0.91065 0.48875 0.0
C469 C 0.64884 0.9301 0.45923 0.0
H470 H 0.05361 0.57461 0.53349 0.0
H471 H -0.01496 0.59552 0.40869 0.0
H472 H 0.00076 0.6639 0.44916 0.0
H473 H 0.04482 0.72295 0.51144 0.0
H474 H 0.11715 0.70188 0.63196 0.0
H475 H 0.08968 0.62871 0.60118 0.0
C476 C 0.04109 0.59362 0.51606 0.0
C477 C 0.01882 0.58071 0.46813 0.0
C478 C 0.05212 0.63351 0.53781 0.0
C479 C 0.00218 0.60497 0.4459 0.0
C480 C 0.01182 0.64437 0.4685 0.0
C481 C 0.05436 0.70226 0.5311 0.0
C482 C 0.0839 0.71842 0.57304 0.0
C483 C 0.03867 0.65995 0.51293 0.0
C484 C 0.09525 0.69083 0.5988 0.0
C485 C 0.07932 0.64874 0.58154 0.0
H486 H 0.51892 0.18524 0.91947 0.0
H487 H 0.49521 0.1452 0.08348 0.0
H488 H 0.55616 0.13467 0.08379 0.0
H489 H 0.62193 0.14811 0.04218 0.0
H490 H 0.64895 0.19229 0.8801 0.0
H491 H 0.58008 0.18877 0.87378 0.0
C492 C 0.5266 0.17339 0.95493 0.0
C493 C 0.50343 0.16713 0.00174 0.0
C494 C 0.56232 0.16845 0.95527 0.0
C495 C 0.51332 0.15127 0.04729 0.0
C496 C 0.54806 0.14516 0.04752 0.0
C497 C 0.61245 0.15641 0.00523 0.0
C498 C 0.64062 0.17154 0.96214 0.0
C499 C 0.57378 0.15554 0.00249 0.0
C500 C 0.62773 0.18098 0.91397 0.0
C501 C 0.58858 0.17925 0.91048 0.0
H502 H 0.82838 0.47255 0.05514 0.0
H503 H 0.79712 0.47186 0.89022 0.0
H504 H 0.799 0.40557 0.87718 0.0
H505 H 0.7985 0.34232 0.91595 0.0
H506 H 0.82786 0.3428 0.08177 0.0
H507 H 0.83817 0.41488 0.09081 0.0
C508 C 0.82263 0.45826 0.01614 0.0
C509 C 0.81172 0.4765 0.97403 0.0
C510 C 0.82293 0.41983 0.00916 0.0
C511 C 0.80529 0.45825 0.92344 0.0
C512 C 0.80609 0.42018 0.91601 0.0
C513 C 0.80796 0.3585 0.95382 0.0
C514 C 0.81129 0.33668 -0.00164 0.0
C515 C 0.81317 0.39979 0.95909 0.0
C516 C 0.82413 0.35841 0.04701 0.0
C517 C 0.83006 0.39968 0.05231 0.0
H518 H 0.62911 0.47864 0.05509 0.0
H519 H 0.65496 0.46854 0.89118 0.0
H520 H 0.58523 0.40183 0.88337 0.0
H521 H 0.52263 0.341 0.92727 0.0
H522 H 0.49999 0.35032 0.09288 0.0
H523 H 0.56282 0.42287 0.09575 0.0
C524 C 0.61923 0.46223 0.01736 0.0
C525 C 0.64744 0.47797 0.97405 0.0
C526 C 0.57997 0.42343 0.01372 0.0
C527 C 0.63387 0.45696 0.92516 0.0
C528 C 0.59418 0.41861 0.92085 0.0
C529 C 0.53097 0.3592 0.96375 0.0
C530 C 0.50709 0.33986 0.01007 0.0
C531 C 0.5678 0.40065 0.96549 0.0
C532 C 0.51822 0.36406 0.0569 0.0
C533 C 0.55414 0.40559 0.0586 0.0
H534 H 0.3004 0.49585 0.24757 0.0
H535 H 0.30865 0.48921 0.41757 0.0
H536 H 0.23571 0.47418 0.42634 0.0
H537 H 0.17596 0.47668 0.3871 0.0
H538 H 0.16996 0.48921 0.21768 0.0
H539 H 0.23514 0.48659 0.20727 0.0
C540 C 0.28598 0.49033 0.28648 0.0
C541 C 0.31022 0.4951 0.3319 0.0
C542 C 0.24458 0.48297 0.29138 0.0
C543 C 0.29094 0.48701 0.38203 0.0
C544 C 0.24924 0.47827 0.38712 0.0
C545 C 0.18849 0.47814 0.34779 0.0
C546 C 0.16921 0.48477 0.30346 0.0
C547 C 0.22671 0.47842 0.34225 0.0
C548 C 0.18484 0.48505 0.25263 0.0
C549 C 0.22222 0.48379 0.24661 0.0
H550 H 0.45235 0.79026 0.25781 0.0
H551 H 0.5056 0.82108 0.41525 0.0
H552 H 0.51733 0.76026 0.41376 0.0
H553 H 0.5024 0.69256 0.37369 0.0
H554 H 0.4467 0.65938 0.2177 0.0
H555 H 0.44706 0.72742 0.21222 0.0
C556 C 0.46732 0.78415 0.29128 0.0
C557 C 0.47703 0.80935 0.33703 0.0
C558 C 0.47325 0.74851 0.29067 0.0
C559 C 0.49683 0.80141 0.38 0.0
C560 C 0.50365 0.7667 0.37922 0.0
C561 C 0.49096 0.70049 0.33812 0.0
C562 C 0.47361 0.67055 0.29679 0.0
C563 C 0.4903 0.73903 0.33571 0.0
C564 C 0.45983 0.68171 0.25043 0.0
C565 C 0.45978 0.72051 0.24734 0.0
H566 H 0.30393 0.79603 0.27682 0.0
H567 H 0.30106 0.80057 0.44734 0.0
H568 H 0.2326 0.73252 0.44867 0.0
H569 H 0.17901 0.66777 0.40255 0.0
H570 H 0.18387 0.66135 0.2324 0.0
H571 H 0.2461 0.7346 0.22994 0.0
C572 C 0.28806 0.78264 0.31431 0.0
C573 C 0.30804 0.80304 0.36199 0.0
C574 C 0.24937 0.74293 0.31492 0.0
C575 C 0.28673 0.78528 0.41009 0.0
C576 C 0.24763 0.74629 0.41091 0.0
C577 C 0.19337 0.68243 0.36478 0.0
C578 C 0.17729 0.6587 0.31781 0.0
C579 C 0.22956 0.72412 0.36372 0.0
C580 C 0.19583 0.67865 0.26922 0.0
C581 C 0.23149 0.72052 0.26778 0.0
H582 H 0.95815 0.80134 0.70438 0.0
H583 H 0.98127 0.8317 0.53798 0.0
H584 H 0.913 0.82912 0.52999 0.0
H585 H 0.85399 0.83143 0.57391 0.0
H586 H 0.83431 0.80561 0.74174 0.0
H587 H 0.89399 0.79309 0.74544 0.0
C588 C 0.94789 0.8066 0.66611 0.0
C589 C 0.97508 0.81773 0.62214 0.0
C590 C 0.90959 0.80663 0.66228 0.0
C591 C 0.961 0.8234 0.57255 0.0
C592 C 0.92216 0.82233 0.56807 0.0
C593 C 0.86222 0.82222 0.61108 0.0
C594 C 0.84046 0.82055 0.65771 0.0
C595 C 0.89728 0.81607 0.61323 0.0
C596 C 0.85119 0.80811 0.70547 0.0
C597 C 0.88526 0.80085 0.70765 0.0
H598 H 0.17128 0.01155 0.69299 0.0
H599 H 0.12224 0.9828 0.53372 0.0
H600 H 0.13534 0.05648 0.52343 0.0
H601 H 0.14796 0.12336 0.56598 0.0
H602 H 0.1921 0.14899 0.72755 0.0
H603 H 0.1948 0.08254 0.73035 0.0
C604 C 0.164 0.02164 0.65576 0.0
C605 C 0.14474 0.99171 0.61469 0.0
C606 C 0.17071 0.06339 0.65068 0.0
C607 C 0.13661 0.00531 0.5661 0.0
C608 C 0.14395 0.04731 0.56031 0.0
C609 C 0.15956 0.11509 0.60112 0.0
C610 C 0.16914 0.14042 0.64679 0.0
C611 C 0.15921 0.07592 0.60318 0.0
C612 C 0.18405 0.12949 0.6922 0.0
C613 C 0.18534 0.09145 0.69392 0.0
H614 H 0.87389 0.98763 0.56439 0.0
H615 H 0.8319 0.01509 0.71057 0.0
H616 H 0.89652 0.0863 0.7139 0.0
H617 H 0.96937 0.13479 0.68367 0.0
H618 H 0.01404 0.10764 0.53977 0.0
H619 H 0.94369 0.04249 0.52644 0.0
C620 C 0.87848 0.00978 0.59605 0.0
C621 C 0.84885 -0.00393 0.63771 0.0
C622 C 0.91637 0.05029 0.59854 0.0
C623 C 0.85485 0.02487 0.6786 0.0
C624 C 0.89175 0.06548 0.68061 0.0
C625 C 0.96341 0.11489 0.64897 0.0
C626 C -0.00331 0.12506 0.61337 0.0
C627 C 0.92351 0.07755 0.64221 0.0
C628 C -0.01131 0.09996 0.56786 0.0
C629 C 0.94864 0.0627 0.56043 0.0
loop_
_geom_bond_atom_site_label_1
_geom_bond_atom_site_label_2
_geom_bond_distance
_geom_bond_site_symmetry_2
_ccdc_geom_bond_type
Sc0 O3 2.025 . S
Sc0 O10 2.105 . S
Sc0 O13 2.105 1_554 S
Sc0 O16 2.105 . S
Sc0 O19 2.105 1_554 S
Sc1 O3 2.025 1_556 S
Sc1 O11 2.105 . S
Sc1 O15 2.105 . S
Sc1 O17 2.105 . S
Sc1 O21 2.105 . S
Sc2 O3 2.025 . S
Sc2 O12 2.105 . S
Sc2 O14 2.105 . S
Sc2 O18 2.105 . S
Sc2 O20 2.105 . S
O3 Sc0 2.025 . S
O3 Sc1 2.025 1_554 S
O3 Sc2 2.025 . S
C4 O10 1.268 . S
C4 O20 1.268 . S
C5 O11 1.268 . S
C5 O19 1.268 . S
C6 O12 1.268 1_556 S
C6 O21 1.268 . S
C7 O13 1.268 . S
C7 O17 1.268 . S
C8 O14 1.268 . S
C8 O16 1.268 . S
C9 O15 1.268 . S
C9 O18 1.268 1_556 S
O10 Sc0 2.105 . S
O10 C4 1.268 . S
O11 Sc1 2.105 . S
O11 C5 1.268 . S
O12 Sc2 2.105 . S
O12 C6 1.268 1_554 S
O13 Sc0 2.105 1_556 S
O13 C7 1.268 . S
O14 Sc2 2.105 . S
O14 C8 1.268 . S
O15 Sc1 2.105 . S
O15 C9 1.268 . S
O16 Sc0 2.105 . S
O16 C8 1.268 . S
O17 Sc1 2.105 . S
O17 C7 1.268 . S
O18 Sc2 2.105 . S
O18 C9 1.268 1_554 S
O19 Sc0 2.105 1_556 S
O19 C5 1.268 . S
O20 Sc2 2.105 . S
O20 C4 1.268 . S
O21 Sc1 2.105 . S
O21 C6 1.268 . S
Sc22 O25 2.025 . S
Sc22 O32 2.105 . S
Sc22 O35 2.105 1_554 S
Sc22 O38 2.105 . S
Sc22 O41 2.105 1_554 S
Sc23 O25 2.025 1_556 S
Sc23 O33 2.105 . S
Sc23 O37 2.105 . S
Sc23 O39 2.105 . S
Sc23 O43 2.105 . S
Sc24 O25 2.025 . S
Sc24 O34 2.105 . S
Sc24 O36 2.105 . S
Sc24 O40 2.105 . S
Sc24 O42 2.105 . S
O25 Sc22 2.025 . S
O25 Sc23 2.025 1_554 S
O25 Sc24 2.025 . S
C26 O32 1.268 . S
C26 O42 1.268 . S
C27 O33 1.268 . S
C27 O41 1.268 . S
C28 O34 1.268 1_556 S
C28 O43 1.268 . S
C29 O35 1.268 . S
C29 O39 1.268 . S
C30 O36 1.268 . S
C30 O38 1.268 . S
C31 O37 1.268 . S
C31 O40 1.268 1_556 S
O32 Sc22 2.105 . S
O32 C26 1.268 . S
O33 Sc23 2.105 . S
O33 C27 1.268 . S
O34 Sc24 2.105 . S
O34 C28 1.268 1_554 S
O35 Sc22 2.105 1_556 S
O35 C29 1.268 . S
O36 Sc24 2.105 . S
O36 C30 1.268 . S
O37 Sc23 2.105 . S
O37 C31 1.268 . S
O38 Sc22 2.105 . S
O38 C30 1.268 . S
O39 Sc23 2.105 . S
O39 C29 1.268 . S
O40 Sc24 2.105 . S
O40 C31 1.268 1_554 S
O41 Sc22 2.105 1_556 S
O41 C27 1.268 . S
O42 Sc24 2.105 . S
O42 C26 1.268 . S
O43 Sc23 2.105 . S
O43 C28 1.268 . S
Sc44 O47 2.025 . S
Sc44 O54 2.105 . S
Sc44 O57 2.105 1_554 S
Sc44 O60 2.105 . S
Sc44 O63 2.105 1_554 S
Sc45 O47 2.025 1_556 S
Sc45 O55 2.105 . S
Sc45 O59 2.105 . S
Sc45 O61 2.105 . S
Sc45 O65 2.105 . S
Sc46 O47 2.025 . S
Sc46 O56 2.105 . S
Sc46 O58 2.105 . S
Sc46 O62 2.105 . S
Sc46 O64 2.105 . S
O47 Sc44 2.025 . S
O47 Sc45 2.025 1_554 S
O47 Sc46 2.025 . S
C48 O54 1.268 . S
C48 O64 1.268 . S
C49 O55 1.268 . S
C49 O63 1.268 . S
C50 O56 1.268 1_556 S
C50 O65 1.268 . S
C51 O57 1.268 . S
C51 O61 1.268 . S
C52 O58 1.268 . S
C52 O60 1.268 . S
C53 O59 1.268 . S
C53 O62 1.268 1_556 S
O54 Sc44 2.105 . S
O54 C48 1.268 . S
O55 Sc45 2.105 . S
O55 C49 1.268 . S
O56 Sc46 2.105 . S
O56 C50 1.268 1_554 S
O57 Sc44 2.105 1_556 S
O57 C51 1.268 . S
O58 Sc46 2.105 . S
O58 C52 1.268 . S
O59 Sc45 2.105 . S
O59 C53 1.268 . S
O60 Sc44 2.105 . S
O60 C52 1.268 . S
O61 Sc45 2.105 . S
O61 C51 1.268 . S
O62 Sc46 2.105 . S
O62 C53 1.268 1_554 S
O63 Sc44 2.105 1_556 S
O63 C49 1.268 . S
O64 Sc46 2.105 . S
O64 C48 1.268 . S
O65 Sc45 2.105 . S
O65 C50 1.268 . S
Sc66 O69 2.025 . S
Sc66 O76 2.105 . S
Sc66 O79 2.105 . S
Sc66 O82 2.105 . S
Sc66 O85 2.105 . S
Sc67 O69 2.025 . S
Sc67 O77 2.105 . S
Sc67 O81 2.105 . S
Sc67 O83 2.105 . S
Sc67 O87 2.105 . S
Sc68 O69 2.025 . S
Sc68 O78 2.105 . S
Sc68 O80 2.105 . S
Sc68 O84 2.105 . S
Sc68 O86 2.105 . S
O69 Sc66 2.025 . S
O69 Sc67 2.025 . S
O69 Sc68 2.025 . S
C70 O76 1.268 . S
C70 O86 1.268 . S
C71 O77 1.268 . S
C71 O85 1.268 . S
C72 O78 1.268 . S
C72 O87 1.268 . S
C73 O79 1.268 . S
C73 O83 1.268 . S
C74 O80 1.268 . S
C74 O82 1.268 . S
C75 O81 1.268 . S
C75 O84 1.268 . S
O76 Sc66 2.105 . S
O76 C70 1.268 . S
O77 Sc67 2.105 . S
O77 C71 1.268 . S
O78 Sc68 2.105 . S
O78 C72 1.268 . S
O79 Sc66 2.105 . S
O79 C73 1.268 . S
O80 Sc68 2.105 . S
O80 C74 1.268 . S
O81 Sc67 2.105 . S
O81 C75 1.268 . S
O82 Sc66 2.105 . S
O82 C74 1.268 . S
O83 Sc67 2.105 . S
O83 C73 1.268 . S
O84 Sc68 2.105 . S
O84 C75 1.268 . S
O85 Sc66 2.105 . S
O85 C71 1.268 . S
O86 Sc68 2.105 . S
O86 C70 1.268 . S
O87 Sc67 2.105 . S
O87 C72 1.268 . S
Sc88 O91 2.025 . S
Sc88 O98 2.105 . S
Sc88 O101 2.105 . S
Sc88 O104 2.105 . S
Sc88 O107 2.105 . S
Sc89 O91 2.025 . S
Sc89 O99 2.105 . S
Sc89 O103 2.105 . S
Sc89 O105 2.105 . S
Sc89 O109 2.105 . S
Sc90 O91 2.025 . S
Sc90 O100 2.105 . S
Sc90 O102 2.105 . S
Sc90 O106 2.105 . S
Sc90 O108 2.105 . S
O91 Sc88 2.025 . S
O91 Sc89 2.025 . S
O91 Sc90 2.025 . S
C92 O98 1.268 . S
C92 O108 1.268 . S
C93 O99 1.268 . S
C93 O107 1.268 . S
C94 O100 1.268 . S
C94 O109 1.268 . S
C95 O101 1.268 . S
C95 O105 1.268 . S
C96 O102 1.268 . S
C96 O104 1.268 . S
C97 O103 1.268 . S
C97 O106 1.268 . S
O98 Sc88 2.105 . S
O98 C92 1.268 . S
O99 Sc89 2.105 . S
O99 C93 1.268 . S
O100 Sc90 2.105 . S
O100 C94 1.268 . S
O101 Sc88 2.105 . S
O101 C95 1.268 . S
O102 Sc90 2.105 . S
O102 C96 1.268 . S
O103 Sc89 2.105 . S
O103 C97 1.268 . S
O104 Sc88 2.105 . S
O104 C96 1.268 . S
O105 Sc89 2.105 . S
O105 C95 1.268 . S
O106 Sc90 2.105 . S
O106 C97 1.268 . S
O107 Sc88 2.105 . S
O107 C93 1.268 . S
O108 Sc90 2.105 . S
O108 C92 1.268 . S
O109 Sc89 2.105 . S
O109 C94 1.268 . S
Sc110 O113 2.025 . S
Sc110 O120 2.105 . S
Sc110 O123 2.105 . S
Sc110 O126 2.105 . S
Sc110 O129 2.105 . S
Sc111 O113 2.025 . S
Sc111 O121 2.105 . S
Sc111 O125 2.105 . S
Sc111 O127 2.105 . S
Sc111 O131 2.105 . S
Sc112 O113 2.025 . S
Sc112 O122 2.105 . S
Sc112 O124 2.105 . S
Sc112 O128 2.105 . S
Sc112 O130 2.105 . S
O113 Sc110 2.025 . S
O113 Sc111 2.025 . S
O113 Sc112 2.025 . S
C114 O120 1.268 . S
C114 O130 1.268 . S
C115 O121 1.268 . S
C115 O129 1.268 . S
C116 O122 1.268 . S
C116 O131 1.268 . S
C117 O123 1.268 . S
C117 O127 1.268 . S
C118 O124 1.268 . S
C118 O126 1.268 . S
C119 O125 1.268 . S
C119 O128 1.268 . S
O120 Sc110 2.105 . S
O120 C114 1.268 . S
O121 Sc111 2.105 . S
O121 C115 1.268 . S
O122 Sc112 2.105 . S
O122 C116 1.268 . S
O123 Sc110 2.105 . S
O123 C117 1.268 . S
O124 Sc112 2.105 . S
O124 C118 1.268 . S
O125 Sc111 2.105 . S
O125 C119 1.268 . S
O126 Sc110 2.105 . S
O126 C118 1.268 . S
O127 Sc111 2.105 . S
O127 C117 1.268 . S
O128 Sc112 2.105 . S
O128 C119 1.268 . S
O129 Sc110 2.105 . S
O129 C115 1.268 . S
O130 Sc112 2.105 . S
O130 C114 1.268 . S
O131 Sc111 2.105 . S
O131 C116 1.268 . S
Sc132 O135 2.025 . S
Sc132 O142 2.105 . S
Sc132 O145 2.105 . S
Sc132 O148 2.105 . S
Sc132 O151 2.105 . S
Sc133 O135 2.025 . S
Sc133 O143 2.105 . S
Sc133 O147 2.105 . S
Sc133 O149 2.105 . S
Sc133 O153 2.105 . S
Sc134 O135 2.025 . S
Sc134 O144 2.105 . S
Sc134 O146 2.105 . S
Sc134 O150 2.105 . S
Sc134 O152 2.105 . S
O135 Sc132 2.025 . S
O135 Sc133 2.025 . S
O135 Sc134 2.025 . S
C136 O142 1.268 . S
C136 O152 1.268 . S
C137 O143 1.268 . S
C137 O151 1.268 . S
C138 O144 1.268 . S
C138 O153 1.268 . S
C139 O145 1.268 . S
C139 O149 1.268 . S
C140 O146 1.268 . S
C140 O148 1.268 . S
C141 O147 1.268 . S
C141 O150 1.268 . S
O142 Sc132 2.105 . S
O142 C136 1.268 . S
O143 Sc133 2.105 . S
O143 C137 1.268 . S
O144 Sc134 2.105 . S
O144 C138 1.268 . S
O145 Sc132 2.105 . S
O145 C139 1.268 . S
O146 Sc134 2.105 . S
O146 C140 1.268 . S
O147 Sc133 2.105 . S
O147 C141 1.268 . S
O148 Sc132 2.105 . S
O148 C140 1.268 . S
O149 Sc133 2.105 . S
O149 C139 1.268 . S
O150 Sc134 2.105 . S
O150 C141 1.268 . S
O151 Sc132 2.105 . S
O151 C137 1.268 . S
O152 Sc134 2.105 . S
O152 C136 1.268 . S
O153 Sc133 2.105 . S
O153 C138 1.268 . S
Sc154 O157 2.025 . S
Sc154 O164 2.105 . S
Sc154 O167 2.105 . S
Sc154 O170 2.105 . S
Sc154 O173 2.105 . S
Sc155 O157 2.025 . S
Sc155 O165 2.105 . S
Sc155 O169 2.105 . S
Sc155 O171 2.105 . S
Sc155 O175 2.105 . S
Sc156 O157 2.025 . S
Sc156 O166 2.105 . S
Sc156 O168 2.105 . S
Sc156 O172 2.105 . S
Sc156 O174 2.105 . S
O157 Sc154 2.025 . S
O157 Sc155 2.025 . S
O157 Sc156 2.025 . S
C158 O164 1.268 . S
C158 O174 1.268 . S
C159 O165 1.268 . S
C159 O173 1.268 . S
C160 O166 1.268 . S
C160 O175 1.268 . S
C161 O167 1.268 . S
C161 O171 1.268 . S
C162 O168 1.268 . S
C162 O170 1.268 . S
C163 O169 1.268 . S
C163 O172 1.268 . S
O164 Sc154 2.105 . S
O164 C158 1.268 . S
O165 Sc155 2.105 . S
O165 C159 1.268 . S
O166 Sc156 2.105 . S
O166 C160 1.268 . S
O167 Sc154 2.105 . S
O167 C161 1.268 . S
O168 Sc156 2.105 . S
O168 C162 1.268 . S
O169 Sc155 2.105 . S
O169 C163 1.268 . S
O170 Sc154 2.105 . S
O170 C162 1.268 . S
O171 Sc155 2.105 . S
O171 C161 1.268 . S
O172 Sc156 2.105 . S
O172 C163 1.268 . S
O173 Sc154 2.105 . S
O173 C159 1.268 . S
O174 Sc156 2.105 . S
O174 C158 1.268 . S
O175 Sc155 2.105 . S
O175 C160 1.268 . S
Sc176 O179 2.025 . S
Sc176 O186 2.105 . S
Sc176 O189 2.105 . S
Sc176 O192 2.105 . S
Sc176 O195 2.105 . S
Sc177 O179 2.025 . S
Sc177 O187 2.105 . S
Sc177 O191 2.105 . S
Sc177 O193 2.105 . S
Sc177 O197 2.105 . S
Sc178 O179 2.025 . S
Sc178 O188 2.105 . S
Sc178 O190 2.105 . S
Sc178 O194 2.105 . S
Sc178 O196 2.105 . S
O179 Sc176 2.025 . S
O179 Sc177 2.025 . S
O179 Sc178 2.025 . S
C180 O186 1.268 . S
C180 O196 1.268 . S
C181 O187 1.268 . S
C181 O195 1.268 . S
C182 O188 1.268 . S
C182 O197 1.268 . S
C183 O189 1.268 . S
C183 O193 1.268 . S
C184 O190 1.268 . S
C184 O192 1.268 . S
C185 O191 1.268 . S
C185 O194 1.268 . S
O186 Sc176 2.105 . S
O186 C180 1.268 . S
O187 Sc177 2.105 . S
O187 C181 1.268 . S
O188 Sc178 2.105 . S
O188 C182 1.268 . S
O189 Sc176 2.105 . S
O189 C183 1.268 . S
O190 Sc178 2.105 . S
O190 C184 1.268 . S
O191 Sc177 2.105 . S
O191 C185 1.268 . S
O192 Sc176 2.105 . S
O192 C184 1.268 . S
O193 Sc177 2.105 . S
O193 C183 1.268 . S
O194 Sc178 2.105 . S
O194 C185 1.268 . S
O195 Sc176 2.105 . S
O195 C181 1.268 . S
O196 Sc178 2.105 . S
O196 C180 1.268 . S
O197 Sc177 2.105 . S
O197 C182 1.268 . S
H198 C204 0.930 . S
H199 C207 0.930 . S
H200 C208 0.930 . S
H201 C209 0.930 . S
H202 C212 0.930 . S
H203 C213 0.930 1_545 S
C204 H198 0.930 . S
C204 C205 1.355 . S
C204 C206 1.415 . S
C205 C204 1.355 . S
C205 C207 1.419 . S
C206 C204 1.415 . S
C206 C211 1.425 1_545 S
C206 C213 1.409 1_545 S
C207 H199 0.930 . S
C207 C205 1.419 . S
C207 C208 1.362 . S
C208 H200 0.930 . S
C208 C207 1.362 . S
C208 C211 1.409 1_545 S
C209 H201 0.930 . S
C209 C210 1.355 . S
C209 C211 1.415 . S
C210 C209 1.355 . S
C210 C212 1.419 . S
C211 C206 1.425 1_565 S
C211 C208 1.409 1_565 S
C211 C209 1.415 . S
C212 H202 0.930 . S
C212 C210 1.419 . S
C212 C213 1.362 . S
C213 H203 0.930 1_565 S
C213 C206 1.409 1_565 S
C213 C212 1.362 . S
H214 C220 0.930 . S
H215 C223 0.930 . S
H216 C224 0.930 . S
H217 C225 0.930 . S
H218 C228 0.930 . S
H219 C229 0.930 . S
C220 H214 0.930 . S
C220 C221 1.355 . S
C220 C222 1.415 . S
C221 C220 1.355 . S
C221 C223 1.419 . S
C222 C220 1.415 . S
C222 C227 1.425 . S
C222 C229 1.409 1_655 S
C223 H215 0.930 . S
C223 C221 1.419 . S
C223 C224 1.362 . S
C224 H216 0.930 . S
C224 C223 1.362 . S
C224 C227 1.409 . S
C225 H217 0.930 . S
C225 C226 1.355 . S
C225 C227 1.415 1_455 S
C226 C225 1.355 . S
C226 C228 1.419 . S
C227 C222 1.425 . S
C227 C224 1.409 . S
C227 C225 1.415 1_655 S
C228 H218 0.930 . S
C228 C226 1.419 . S
C228 C229 1.362 . S
C229 H219 0.930 . S
C229 C222 1.409 1_455 S
C229 C228 1.362 . S
H230 C236 0.930 . S
H231 C239 0.930 . S
H232 C240 0.930 . S
H233 C241 0.930 . S
H234 C244 0.930 . S
H235 C245 0.930 . S
C236 H230 0.930 . S
C236 C237 1.355 . S
C236 C238 1.415 . S
C237 C236 1.355 . S
C237 C239 1.419 . S
C238 C236 1.415 . S
C238 C243 1.425 . S
C238 C245 1.409 . S
C239 H231 0.930 . S
C239 C237 1.419 . S
C239 C240 1.362 . S
C240 H232 0.930 . S
C240 C239 1.362 . S
C240 C243 1.409 . S
C241 H233 0.930 . S
C241 C242 1.355 . S
C241 C243 1.415 . S
C242 C241 1.355 . S
C242 C244 1.419 . S
C243 C238 1.425 . S
C243 C240 1.409 . S
C243 C241 1.415 . S
C244 H234 0.930 . S
C244 C242 1.419 . S
C244 C245 1.362 . S
C245 H235 0.930 . S
C245 C238 1.409 . S
C245 C244 1.362 . S
H246 C252 0.930 . S
H247 C255 0.930 . S
H248 C256 0.930 1_655 S
H249 C257 0.930 . S
H250 C260 0.930 . S
H251 C261 0.930 . S
C252 H246 0.930 . S
C252 C253 1.355 . S
C252 C254 1.415 . S
C253 C252 1.355 . S
C253 C255 1.419 . S
C254 C252 1.415 . S
C254 C259 1.425 1_455 S
C254 C261 1.409 1_455 S
C255 H247 0.930 . S
C255 C253 1.419 . S
C255 C256 1.362 . S
C256 H248 0.930 1_455 S
C256 C255 1.362 . S
C256 C259 1.409 1_455 S
C257 H249 0.930 . S
C257 C258 1.355 . S
C257 C259 1.415 . S
C258 C257 1.355 . S
C258 C260 1.419 . S
C259 C254 1.425 1_655 S
C259 C256 1.409 1_655 S
C259 C257 1.415 . S
C260 H250 0.930 . S
C260 C258 1.419 . S
C260 C261 1.362 . S
C261 H251 0.930 . S
C261 C254 1.409 1_655 S
C261 C260 1.362 . S
H262 C268 0.930 . S
H263 C271 0.930 . S
H264 C272 0.930 . S
H265 C273 0.930 . S
H266 C276 0.930 . S
H267 C277 0.930 . S
C268 H262 0.930 . S
C268 C269 1.355 . S
C268 C270 1.415 . S
C269 C268 1.355 . S
C269 C271 1.419 . S
C270 C268 1.415 . S
C270 C275 1.425 . S
C270 C277 1.409 . S
C271 H263 0.930 . S
C271 C269 1.419 . S
C271 C272 1.362 . S
C272 H264 0.930 . S
C272 C271 1.362 . S
C272 C275 1.409 . S
C273 H265 0.930 . S
C273 C274 1.355 . S
C273 C275 1.415 . S
C274 C273 1.355 . S
C274 C276 1.419 . S
C275 C270 1.425 . S
C275 C272 1.409 . S
C275 C273 1.415 . S
C276 H266 0.930 . S
C276 C274 1.419 . S
C276 C277 1.362 . S
C277 H267 0.930 . S
C277 C270 1.409 . S
C277 C276 1.362 . S
H278 C284 0.930 . S
H279 C287 0.930 . S
H280 C288 0.930 . S
H281 C289 0.930 . S
H282 C292 0.930 . S
H283 C293 0.930 . S
C284 H278 0.930 . S
C284 C285 1.355 . S
C284 C286 1.415 1_565 S
C285 C284 1.355 . S
C285 C287 1.419 . S
C286 C284 1.415 1_545 S
C286 C291 1.425 . S
C286 C293 1.409 . S
C287 H279 0.930 . S
C287 C285 1.419 . S
C287 C288 1.362 . S
C288 H280 0.930 . S
C288 C287 1.362 . S
C288 C291 1.409 1_565 S
C289 H281 0.930 . S
C289 C290 1.355 . S
C289 C291 1.415 . S
C290 C289 1.355 . S
C290 C292 1.419 . S
C291 C286 1.425 . S
C291 C288 1.409 1_545 S
C291 C289 1.415 . S
C292 H282 0.930 . S
C292 C290 1.419 . S
C292 C293 1.362 . S
C293 H283 0.930 . S
C293 C286 1.409 . S
C293 C292 1.362 . S
H294 C300 0.930 . S
H295 C303 0.930 . S
H296 C304 0.930 . S
H297 C305 0.930 . S
H298 C308 0.930 . S
H299 C309 0.930 . S
C300 H294 0.930 . S
C300 C301 1.355 . S
C300 C302 1.415 . S
C301 C300 1.355 . S
C301 C303 1.419 . S
C302 C300 1.415 . S
C302 C307 1.425 . S
C302 C309 1.409 1_655 S
C303 H295 0.930 . S
C303 C301 1.419 . S
C303 C304 1.362 . S
C304 H296 0.930 . S
C304 C303 1.362 . S
C304 C307 1.409 . S
C305 H297 0.930 . S
C305 C306 1.355 1_655 S
C305 C307 1.415 . S
C306 C305 1.355 1_455 S
C306 C308 1.419 . S
C307 C302 1.425 . S
C307 C304 1.409 . S
C307 C305 1.415 . S
C308 H298 0.930 . S
C308 C306 1.419 . S
C308 C309 1.362 . S
C309 H299 0.930 . S
C309 C302 1.409 1_455 S
C309 C308 1.362 . S
H310 C316 0.930 . S
H311 C319 0.930 . S
H312 C320 0.930 . S
H313 C321 0.930 . S
H314 C324 0.930 . S
H315 C325 0.930 . S
C316 H310 0.930 . S
C316 C317 1.355 . S
C316 C318 1.415 . S
C317 C316 1.355 . S
C317 C319 1.419 . S
C318 C316 1.415 . S
C318 C323 1.425 . S
C318 C325 1.409 . S
C319 H311 0.930 . S
C319 C317 1.419 . S
C319 C320 1.362 . S
C320 H312 0.930 . S
C320 C319 1.362 . S
C320 C323 1.409 . S
C321 H313 0.930 . S
C321 C322 1.355 . S
C321 C323 1.415 . S
C322 C321 1.355 . S
C322 C324 1.419 . S
C323 C318 1.425 . S
C323 C320 1.409 . S
C323 C321 1.415 . S
C324 H314 0.930 . S
C324 C322 1.419 . S
C324 C325 1.362 . S
C325 H315 0.930 . S
C325 C318 1.409 . S
C325 C324 1.362 . S
H326 C332 0.930 . S
H327 C335 0.930 . S
H328 C336 0.930 1_565 S
H329 C337 0.930 . S
H330 C340 0.930 . S
H331 C341 0.930 . S
C332 H326 0.930 . S
C332 C333 1.355 . S
C332 C334 1.415 . S
C333 C332 1.355 . S
C333 C335 1.419 . S
C334 C332 1.415 . S
C334 C339 1.425 . S
C334 C341 1.409 . S
C335 H327 0.930 . S
C335 C333 1.419 . S
C335 C336 1.362 . S
C336 H328 0.930 1_545 S
C336 C335 1.362 . S
C336 C339 1.409 . S
C337 H329 0.930 . S
C337 C338 1.355 1_565 S
C337 C339 1.415 1_565 S
C338 C337 1.355 1_545 S
C338 C340 1.419 . S
C339 C334 1.425 . S
C339 C336 1.409 . S
C339 C337 1.415 1_545 S
C340 H330 0.930 . S
C340 C338 1.419 . S
C340 C341 1.362 . S
C341 H331 0.930 . S
C341 C334 1.409 . S
C341 C340 1.362 . S
H342 C348 0.930 . S
H343 C351 0.930 . S
H344 C352 0.930 . S
H345 C353 0.930 . S
H346 C356 0.930 . S
H347 C357 0.930 1_565 S
C348 H342 0.930 . S
C348 C349 1.355 . S
C348 C350 1.415 . S
C349 C348 1.355 . S
C349 C351 1.419 . S
C350 C348 1.415 . S
C350 C355 1.425 . S
C350 C357 1.409 . S
C351 H343 0.930 . S
C351 C349 1.419 . S
C351 C352 1.362 . S
C352 H344 0.930 . S
C352 C351 1.362 . S
C352 C355 1.409 . S
C353 H345 0.930 . S
C353 C354 1.355 1_545 S
C353 C355 1.415 . S
C354 C353 1.355 1_565 S
C354 C356 1.419 . S
C355 C350 1.425 . S
C355 C352 1.409 . S
C355 C353 1.415 . S
C356 H346 0.930 . S
C356 C354 1.419 . S
C356 C357 1.362 1_565 S
C357 H347 0.930 1_545 S
C357 C350 1.409 . S
C357 C356 1.362 1_545 S
H358 C364 0.930 . S
H359 C367 0.930 . S
H360 C368 0.930 . S
H361 C369 0.930 . S
H362 C372 0.930 . S
H363 C373 0.930 . S
C364 H358 0.930 . S
C364 C365 1.355 1_655 S
C364 C366 1.415 . S
C365 C364 1.355 1_455 S
C365 C367 1.419 . S
C366 C364 1.415 . S
C366 C371 1.425 . S
C366 C373 1.409 . S
C367 H359 0.930 . S
C367 C365 1.419 . S
C367 C368 1.362 1_455 S
C368 H360 0.930 . S
C368 C367 1.362 1_655 S
C368 C371 1.409 . S
C369 H361 0.930 . S
C369 C370 1.355 . S
C369 C371 1.415 . S
C370 C369 1.355 . S
C370 C372 1.419 . S
C371 C366 1.425 . S
C371 C368 1.409 . S
C371 C369 1.415 . S
C372 H362 0.930 . S
C372 C370 1.419 . S
C372 C373 1.362 . S
C373 H363 0.930 . S
C373 C366 1.409 . S
C373 C372 1.362 . S
H374 C380 0.930 . S
H375 C383 0.930 . S
H376 C384 0.930 . S
H377 C385 0.930 . S
H378 C388 0.930 . S
H379 C389 0.930 . S
C380 H374 0.930 . S
C380 C381 1.355 . S
C380 C382 1.415 . S
C381 C380 1.355 . S
C381 C383 1.419 . S
C382 C380 1.415 . S
C382 C387 1.425 . S
C382 C389 1.409 . S
C383 H375 0.930 . S
C383 C381 1.419 . S
C383 C384 1.362 . S
C384 H376 0.930 . S
C384 C383 1.362 . S
C384 C387 1.409 . S
C385 H377 0.930 . S
C385 C386 1.355 . S
C385 C387 1.415 . S
C386 C385 1.355 . S
C386 C388 1.419 . S
C387 C382 1.425 . S
C387 C384 1.409 . S
C387 C385 1.415 . S
C388 H378 0.930 . S
C388 C386 1.419 . S
C388 C389 1.362 . S
C389 H379 0.930 . S
C389 C382 1.409 . S
C389 C388 1.362 . S
H390 C396 0.930 . S
H391 C399 0.930 . S
H392 C400 0.930 . S
H393 C401 0.930 . S
H394 C404 0.930 . S
H395 C405 0.930 . S
C396 H390 0.930 . S
C396 C397 1.355 . S
C396 C398 1.415 . S
C397 C396 1.355 . S
C397 C399 1.419 . S
C398 C396 1.415 . S
C398 C403 1.425 . S
C398 C405 1.409 . S
C399 H391 0.930 . S
C399 C397 1.419 . S
C399 C400 1.362 . S
C400 H392 0.930 . S
C400 C399 1.362 . S
C400 C403 1.409 . S
C401 H393 0.930 . S
C401 C402 1.355 . S
C401 C403 1.415 . S
C402 C401 1.355 . S
C402 C404 1.419 . S
C403 C398 1.425 . S
C403 C400 1.409 . S
C403 C401 1.415 . S
C404 H394 0.930 . S
C404 C402 1.419 . S
C404 C405 1.362 . S
C405 H395 0.930 . S
C405 C398 1.409 . S
C405 C404 1.362 . S
H406 C412 0.930 . S
H407 C415 0.930 . S
H408 C416 0.930 . S
H409 C417 0.930 . S
H410 C420 0.930 . S
H411 C421 0.930 . S
C412 H406 0.930 . S
C412 C413 1.355 . S
C412 C414 1.415 . S
C413 C412 1.355 . S
C413 C415 1.419 . S
C414 C412 1.415 . S
C414 C419 1.425 . S
C414 C421 1.409 . S
C415 H407 0.930 . S
C415 C413 1.419 . S
C415 C416 1.362 . S
C416 H408 0.930 . S
C416 C415 1.362 . S
C416 C419 1.409 . S
C417 H409 0.930 . S
C417 C418 1.355 . S
C417 C419 1.415 . S
C418 C417 1.355 . S
C418 C420 1.419 . S
C419 C414 1.425 . S
C419 C416 1.409 . S
C419 C417 1.415 . S
C420 H410 0.930 . S
C420 C418 1.419 . S
C420 C421 1.362 . S
C421 H411 0.930 . S
C421 C414 1.409 . S
C421 C420 1.362 . S
H422 C428 0.930 . S
H423 C431 0.930 . S
H424 C432 0.916 1_655 S
H425 C433 0.930 . S
H426 C436 0.930 . S
H427 C437 0.930 . S
C428 H422 0.930 . S
C428 C429 1.355 . S
C428 C430 1.415 . S
C429 C428 1.355 . S
C429 C431 1.419 . S
C430 C428 1.415 . S
C430 C435 1.425 . S
C430 C437 1.409 . S
C431 H423 0.930 . S
C431 C429 1.419 . S
C431 C432 1.362 . S
C432 H424 0.916 1_455 S
C432 C431 1.362 . S
C432 C435 1.409 . S
C433 H425 0.930 . S
C433 C434 1.355 . S
C433 C435 1.415 . S
C434 C433 1.355 . S
C434 C436 1.419 . S
C435 C430 1.425 . S
C435 C432 1.409 . S
C435 C433 1.415 . S
C436 H426 0.930 . S
C436 C434 1.419 . S
C436 C437 1.362 . S
C437 H427 0.930 . S
C437 C430 1.409 . S
C437 C436 1.362 . S
H438 C444 0.930 . S
H439 C447 0.930 . S
H440 C448 0.930 . S
H441 C449 0.930 . S
H442 C452 0.930 . S
H443 C453 0.930 . S
C444 H438 0.930 . S
C444 C445 1.355 . S
C444 C446 1.415 . S
C445 C444 1.355 . S
C445 C447 1.419 . S
C446 C444 1.415 . S
C446 C451 1.425 . S
C446 C453 1.409 . S
C447 H439 0.930 . S
C447 C445 1.419 . S
C447 C448 1.362 . S
C448 H440 0.930 . S
C448 C447 1.362 . S
C448 C451 1.409 . S
C449 H441 0.930 . S
C449 C450 1.355 . S
C449 C451 1.415 . S
C450 C449 1.355 . S
C450 C452 1.419 . S
C451 C446 1.425 . S
C451 C448 1.409 . S
C451 C449 1.415 . S
C452 H442 0.930 . S
C452 C450 1.419 . S
C452 C453 1.362 . S
C453 H443 0.930 . S
C453 C446 1.409 . S
C453 C452 1.362 . S
H454 C460 0.930 . S
H455 C463 0.930 . S
H456 C464 0.930 . S
H457 C465 0.930 . S
H458 C468 0.930 . S
H459 C469 0.930 . S
C460 H454 0.930 . S
C460 C461 1.355 . S
C460 C462 1.415 . S
C461 C460 1.355 . S
C461 C463 1.419 . S
C462 C460 1.415 . S
C462 C467 1.425 . S
C462 C469 1.409 . S
C463 H455 0.930 . S
C463 C461 1.419 . S
C463 C464 1.362 . S
C464 H456 0.930 . S
C464 C463 1.362 . S
C464 C467 1.409 . S
C465 H457 0.930 . S
C465 C466 1.355 . S
C465 C467 1.415 . S
C466 C465 1.355 . S
C466 C468 1.419 . S
C467 C462 1.425 . S
C467 C464 1.409 . S
C467 C465 1.415 . S
C468 H458 0.930 . S
C468 C466 1.419 . S
C468 C469 1.362 . S
C469 H459 0.930 . S
C469 C462 1.409 . S
C469 C468 1.362 . S
H470 C476 0.930 . S
H471 C479 0.930 . S
H472 C480 0.930 . S
H473 C481 0.930 . S
H474 C484 0.930 . S
H475 C485 0.938 . S
C476 H470 0.930 . S
C476 C477 1.355 . S
C476 C478 1.415 . S
C477 C476 1.355 . S
C477 C479 1.419 . S
C478 C476 1.415 . S
C478 C483 1.425 . S
C478 C485 1.409 . S
C479 H471 0.930 . S
C479 C477 1.419 . S
C479 C480 1.362 . S
C480 H472 0.930 . S
C480 C479 1.362 . S
C480 C483 1.409 . S
C481 H473 0.930 . S
C481 C482 1.355 . S
C481 C483 1.415 . S
C482 C481 1.355 . S
C482 C484 1.419 . S
C483 C478 1.425 . S
C483 C480 1.409 . S
C483 C481 1.415 . S
C484 H474 0.930 . S
C484 C482 1.419 . S
C484 C485 1.362 . S
C485 H475 0.938 . S
C485 C478 1.409 . S
C485 C484 1.362 . S
H486 C492 0.930 . S
H487 C495 0.930 . S
H488 C496 0.930 . S
H489 C497 0.930 1_554 S
H490 C500 0.930 . S
H491 C501 0.930 . S
C492 H486 0.930 . S
C492 C493 1.355 . S
C492 C494 1.415 . S
C493 C492 1.355 . S
C493 C495 1.419 1_556 S
C494 C492 1.415 . S
C494 C499 1.425 . S
C494 C501 1.409 . S
C495 H487 0.930 . S
C495 C493 1.419 1_554 S
C495 C496 1.362 . S
C496 H488 0.930 . S
C496 C495 1.362 . S
C496 C499 1.409 1_554 S
C497 H489 0.930 1_556 S
C497 C498 1.355 . S
C497 C499 1.415 . S
C498 C497 1.355 . S
C498 C500 1.419 . S
C499 C494 1.425 . S
C499 C496 1.409 1_556 S
C499 C497 1.415 . S
C500 H490 0.930 . S
C500 C498 1.419 . S
C500 C501 1.362 . S
C501 H491 0.930 . S
C501 C494 1.409 . S
C501 C500 1.362 . S
H502 C508 0.930 . S
H503 C511 0.930 . S
H504 C512 0.930 . S
H505 C513 0.930 . S
H506 C516 0.930 . S
H507 C517 0.930 . S
C508 H502 0.930 . S
C508 C509 1.355 1_554 S
C508 C510 1.415 . S
C509 C508 1.355 1_556 S
C509 C511 1.419 . S
C510 C508 1.415 . S
C510 C515 1.425 1_554 S
C510 C517 1.409 . S
C511 H503 0.930 . S
C511 C509 1.419 . S
C511 C512 1.362 . S
C512 H504 0.930 . S
C512 C511 1.362 . S
C512 C515 1.409 . S
C513 H505 0.930 . S
C513 C514 1.355 . S
C513 C515 1.415 . S
C514 C513 1.355 . S
C514 C516 1.419 1_556 S
C515 C510 1.425 1_556 S
C515 C512 1.409 . S
C515 C513 1.415 . S
C516 H506 0.930 . S
C516 C514 1.419 1_554 S
C516 C517 1.362 . S
C517 H507 0.930 . S
C517 C510 1.409 . S
C517 C516 1.362 . S
H518 C524 0.930 . S
H519 C527 0.929 1_554 S
H520 C528 0.930 1_554 S
H521 C529 0.930 . S
H522 C532 0.930 . S
H523 C533 0.930 . S
C524 H518 0.930 . S
C524 C525 1.355 . S
C524 C526 1.415 . S
C525 C524 1.355 . S
C525 C527 1.419 . S
C526 C524 1.415 . S
C526 C531 1.425 . S
C526 C533 1.409 . S
C527 H519 0.929 1_556 S
C527 C525 1.419 . S
C527 C528 1.362 . S
C528 H520 0.930 1_556 S
C528 C527 1.362 . S
C528 C531 1.409 . S
C529 H521 0.930 . S
C529 C530 1.355 . S
C529 C531 1.415 . S
C530 C529 1.355 . S
C530 C532 1.419 . S
C531 C526 1.425 . S
C531 C528 1.409 . S
C531 C529 1.415 . S
C532 H522 0.930 . S
C532 C530 1.419 . S
C532 C533 1.362 . S
C533 H523 0.930 . S
C533 C526 1.409 . S
C533 C532 1.362 . S
H534 C540 0.930 . S
H535 C543 0.930 . S
H536 C544 0.930 . S
H537 C545 0.930 . S
H538 C548 0.930 . S
H539 C549 0.930 . S
C540 H534 0.930 . S
C540 C541 1.355 . S
C540 C542 1.415 . S
C541 C540 1.355 . S
C541 C543 1.419 . S
C542 C540 1.415 . S
C542 C547 1.425 . S
C542 C549 1.409 . S
C543 H535 0.930 . S
C543 C541 1.419 . S
C543 C544 1.362 . S
C544 H536 0.930 . S
C544 C543 1.362 . S
C544 C547 1.409 . S
C545 H537 0.930 . S
C545 C546 1.355 . S
C545 C547 1.415 . S
C546 C545 1.355 . S
C546 C548 1.419 . S
C547 C542 1.425 . S
C547 C544 1.409 . S
C547 C545 1.415 . S
C548 H538 0.930 . S
C548 C546 1.419 . S
C548 C549 1.362 . S
C549 H539 0.930 . S
C549 C542 1.409 . S
C549 C548 1.362 . S
H550 C556 0.930 . S
H551 C559 0.930 . S
H552 C560 0.930 . S
H553 C561 0.930 . S
H554 C564 0.930 . S
H555 C565 0.930 . S
C556 H550 0.930 . S
C556 C557 1.355 . S
C556 C558 1.415 . S
C557 C556 1.355 . S
C557 C559 1.419 . S
C558 C556 1.415 . S
C558 C563 1.425 . S
C558 C565 1.409 . S
C559 H551 0.930 . S
C559 C557 1.419 . S
C559 C560 1.362 . S
C560 H552 0.930 . S
C560 C559 1.362 . S
C560 C563 1.409 . S
C561 H553 0.930 . S
C561 C562 1.355 . S
C561 C563 1.415 . S
C562 C561 1.355 . S
C562 C564 1.419 . S
C563 C558 1.425 . S
C563 C560 1.409 . S
C563 C561 1.415 . S
C564 H554 0.930 . S
C564 C562 1.419 . S
C564 C565 1.362 . S
C565 H555 0.930 . S
C565 C558 1.409 . S
C565 C564 1.362 . S
H566 C572 0.930 . S
H567 C575 0.930 . S
H568 C576 0.930 . S
H569 C577 0.930 . S
H570 C580 0.930 . S
H571 C581 0.930 . S
C572 H566 0.930 . S
C572 C573 1.355 . S
C572 C574 1.415 . S
C573 C572 1.355 . S
C573 C575 1.419 . S
C574 C572 1.415 . S
C574 C579 1.425 . S
C574 C581 1.409 . S
C575 H567 0.930 . S
C575 C573 1.419 . S
C575 C576 1.362 . S
C576 H568 0.930 . S
C576 C575 1.362 . S
C576 C579 1.409 . S
C577 H569 0.930 . S
C577 C578 1.355 . S
C577 C579 1.415 . S
C578 C577 1.355 . S
C578 C580 1.419 . S
C579 C574 1.425 . S
C579 C576 1.409 . S
C579 C577 1.415 . S
C580 H570 0.930 . S
C580 C578 1.419 . S
C580 C581 1.362 . S
C581 H571 0.930 . S
C581 C574 1.409 . S
C581 C580 1.362 . S
H582 C588 0.930 . S
H583 C591 0.930 . S
H584 C592 0.930 . S
H585 C593 0.930 . S
H586 C596 0.930 . S
H587 C597 0.930 . S
C588 H582 0.930 . S
C588 C589 1.355 . S
C588 C590 1.415 . S
C589 C588 1.355 . S
C589 C591 1.419 . S
C590 C588 1.415 . S
C590 C595 1.425 . S
C590 C597 1.409 . S
C591 H583 0.930 . S
C591 C589 1.419 . S
C591 C592 1.362 . S
C592 H584 0.930 . S
C592 C591 1.362 . S
C592 C595 1.409 . S
C593 H585 0.930 . S
C593 C594 1.355 . S
C593 C595 1.415 . S
C594 C593 1.355 . S
C594 C596 1.419 . S
C595 C590 1.425 . S
C595 C592 1.409 . S
C595 C593 1.415 . S
C596 H586 0.930 . S
C596 C594 1.419 . S
C596 C597 1.362 . S
C597 H587 0.930 . S
C597 C590 1.409 . S
C597 C596 1.362 . S
H598 C604 0.930 1_565 S
H599 C607 0.930 . S
H600 C608 0.930 . S
H601 C609 0.930 . S
H602 C612 0.930 . S
H603 C613 0.930 . S
C604 H598 0.930 1_545 S
C604 C605 1.355 . S
C604 C606 1.415 . S
C605 C604 1.355 . S
C605 C607 1.419 . S
C606 C604 1.415 . S
C606 C611 1.425 . S
C606 C613 1.409 . S
C607 H599 0.930 . S
C607 C605 1.419 . S
C607 C608 1.362 . S
C608 H600 0.930 . S
C608 C607 1.362 . S
C608 C611 1.409 . S
C609 H601 0.930 . S
C609 C610 1.355 . S
C609 C611 1.415 . S
C610 C609 1.355 . S
C610 C612 1.419 . S
C611 C606 1.425 . S
C611 C608 1.409 . S
C611 C609 1.415 . S
C612 H602 0.930 . S
C612 C610 1.419 . S
C612 C613 1.362 . S
C613 H603 0.930 . S
C613 C606 1.409 . S
C613 C612 1.362 . S
H614 C620 0.930 . S
H615 C623 0.930 . S
H616 C624 0.930 . S
H617 C625 0.930 1_455 S
H618 C628 0.930 . S
H619 C629 0.930 . S
C620 H614 0.930 . S
C620 C621 1.355 1_545 S
C620 C622 1.415 . S
C621 C620 1.355 1_565 S
C621 C623 1.419 . S
C622 C620 1.415 . S
C622 C627 1.425 . S
C622 C629 1.409 . S
C623 H615 0.930 . S
C623 C621 1.419 . S
C623 C624 1.362 1_565 S
C624 H616 0.930 . S
C624 C623 1.362 1_545 S
C624 C627 1.409 . S
C625 H617 0.930 1_655 S
C625 C626 1.355 . S
C625 C627 1.415 . S
C626 C625 1.355 . S
C626 C628 1.419 . S
C627 C622 1.425 . S
C627 C624 1.409 . S
C627 C625 1.415 . S
C628 H618 0.930 . S
C628 C626 1.419 . S
C628 C629 1.362 . S
C629 H619 0.930 . S
C629 C622 1.409 . S
C629 C628 1.362 . S
C205 C7 1.267 . S
C210 C162 1.223 . S
C221 C29 1.202 . S
C226 C184 1.265 . S
C237 C140 1.229 . S
C242 C51 1.269 . S
C253 C158 1.274 . S
C258 C49 1.211 . S
C269 C180 1.230 . S
C274 C5 1.245 . S
C285 C136 1.241 . S
C290 C27 1.227 . S
C301 C30 1.230 . S
C306 C73 1.245 . S
C317 C95 1.251 . S
C322 C52 1.227 . S
C333 C8 1.267 . S
C338 C117 1.226 1_545 S
C349 C26 1.232 . S
C354 C115 1.241 . S
C365 C71 1.210 . S
C370 C48 1.255 . S
C381 C4 1.257 . S
C386 C93 1.209 . S
C397 C139 1.200 . S
C402 C96 1.273 . S
C413 C118 1.258 . S
C418 C161 1.207 . S
C429 C183 1.268 . S
C434 C74 1.223 . S
C445 C181 1.261 . S
C450 C92 1.242 . S
C461 C114 1.255 . S
C466 C137 1.210 . S
C477 C70 1.233 . S
C482 C159 1.268 . S
C493 C9 1.143 . S
C498 C28 1.216 . S
C509 C50 1.212 . S
C514 C31 1.147 . S
C525 C53 1.136 . S
C530 C6 1.223 . S
C541 C94 1.206 . S
C546 C75 1.154 . S
C557 C116 1.161 . S
C562 C97 1.199 . S
C573 C119 1.141 . S
C578 C72 1.218 . S
C589 C160 1.220 1_655 S
C594 C141 1.139 . S
C605 C163 1.208 1_545 S
C610 C182 1.151 . S
C621 C138 1.134 . S
C626 C185 1.225 1_655 S
