# Generated by pormake.
# Topology smu, (6)-cn, num edge types: 1
# Building blocks:
#     Node 0, Type 0, BuildingBlock: CUWYAW_clean_sbu_0, # of connection points: 6
#     Node 1, Type 0, BuildingBlock: CUWYAW_clean_sbu_0, # of connection points: 6
#     Node 2, Type 0, BuildingBlock: CUWYAW_clean_sbu_0, # of connection points: 6
#     Node 3, Type 0, BuildingBlock: CUWYAW_clean_sbu_0, # of connection points: 6
#     Node 4, Type 0, BuildingBlock: CUWYAW_clean_sbu_0, # of connection points: 6
#     Node 5, Type 0, BuildingBlock: CUWYAW_clean_sbu_0, # of connection points: 6
#     Edge 6, Type (0, 0), BuildingBlock: MIFKUJ_clean_linker_0, # of connection points: 2
#     Edge 7, Type (0, 0), BuildingBlock: MIFKUJ_clean_linker_0, # of connection points: 2
#     Edge 8, Type (0, 0), BuildingBlock: MIFKUJ_clean_linker_0, # of connection points: 2
#     Edge 9, Type (0, 0), BuildingBlock: MIFKUJ_clean_linker_0, # of connection points: 2
#     Edge 10, Type (0, 0), BuildingBlock: MIFKUJ_clean_linker_0, # of connection points: 2
#     Edge 11, Type (0, 0), BuildingBlock: MIFKUJ_clean_linker_0, # of connection points: 2
#     Edge 12, Type (0, 0), BuildingBlock: MIFKUJ_clean_linker_0, # of connection points: 2
#     Edge 13, Type (0, 0), BuildingBlock: MIFKUJ_clean_linker_0, # of connection points: 2
#     Edge 14, Type (0, 0), BuildingBlock: MIFKUJ_clean_linker_0, # of connection points: 2
#     Edge 15, Type (0, 0), BuildingBlock: MIFKUJ_clean_linker_0, # of connection points: 2
#     Edge 16, Type (0, 0), BuildingBlock: MIFKUJ_clean_linker_0, # of connection points: 2
#     Edge 17, Type (0, 0), BuildingBlock: MIFKUJ_clean_linker_0, # of connection points: 2
#     Edge 18, Type (0, 0), BuildingBlock: MIFKUJ_clean_linker_0, # of connection points: 2
#     Edge 19, Type (0, 0), BuildingBlock: MIFKUJ_clean_linker_0, # of connection points: 2
#     Edge 20, Type (0, 0), BuildingBlock: MIFKUJ_clean_linker_0, # of connection points: 2
#     Edge 21, Type (0, 0), BuildingBlock: MIFKUJ_clean_linker_0, # of connection points: 2
#     Edge 22, Type (0, 0), BuildingBlock: MIFKUJ_clean_linker_0, # of connection points: 2
#     Edge 23, Type (0, 0), BuildingBlock: MIFKUJ_clean_linker_0, # of connection points: 2
# Relax obj value: 0.213
# Max RMSD: 0.299
# Mean RMSD: 0.299
data_MOF--net-smu--node1-CUWYAW_clean_sbu_0--edge1-MIFKUJ_clean_linker_0
_symmetry_space_group_name_H-M    P1
_symmetry_Int_Tables_number       1
_symmetry_cell_setting            triclinic
loop_
_symmetry_equiv_pos_as_xyz
'x, y, z'
_cell_length_a     48.033633
_cell_length_b     47.948789
_cell_length_c     35.608402
_cell_angle_alpha  90.460687
_cell_angle_beta   89.8645
_cell_angle_gamma 119.85824
loop_
_atom_site_label
_atom_site_type_symbol
_atom_site_fract_x
_atom_site_fract_y
_atom_site_fract_z
_atom_type_partial_charge
C0 C 0.28383 0.99818 0.26235 0.0
Eu1 Eu 0.32323 0.05917 0.27243 0.0
C2 C 0.24835 0.97972 0.26537 0.0
C3 C 0.23292 0.94986 0.28334 0.0
C4 C 0.19932 0.93222 0.28542 0.0
C5 C 0.18043 0.94405 0.26943 0.0
C6 C 0.19609 0.97432 0.25212 0.0
C7 C 0.22957 0.99199 0.25033 0.0
C8 C 0.32776 0.08559 0.34199 0.0
C9 C 0.29123 0.10366 0.27168 0.0
C10 C 0.40334 0.19 0.26662 0.0
Eu11 Eu 0.36369 0.12823 0.26948 0.0
C12 C 0.43063 0.22298 0.273 0.0
C13 C 0.45357 0.23795 0.24457 0.0
C14 C 0.47673 0.27059 0.24719 0.0
C15 C 0.47771 0.28927 0.27845 0.0
C16 C 0.45515 0.27394 0.3074 0.0
C17 C 0.43181 0.24127 0.30461 0.0
C18 C 0.34193 0.09734 0.20104 0.0
C19 C 0.4001 0.0892 0.28292 0.0
O20 O 0.29509 0.01889 0.23493 0.0
O21 O 0.30002 1.00976 0.29362 0.0
O22 O 0.3014 0.06544 0.3253 0.0
O23 O 0.3508 0.09405 0.31893 0.0
O24 O 0.28953 0.07792 0.25565 0.0
O25 O 0.31798 0.12522 0.2875 0.0
O26 O 0.37939 0.17682 0.29034 0.0
O27 O 0.40655 0.16919 0.24578 0.0
O28 O 0.34056 0.12259 0.21096 0.0
O29 O 0.35355 0.08952 0.22746 0.0
O30 O 0.40097 0.11677 0.28815 0.0
O31 O 0.37292 0.06269 0.27366 0.0
H32 H 0.24684 0.94012 0.29566 0.0
H33 H 0.18817 0.90934 0.29971 0.0
H34 H 0.18252 0.98416 0.23913 0.0
H35 H 0.2407 0.01516 0.23666 0.0
H36 H 0.45288 0.22469 0.21947 0.0
H37 H 0.49309 0.28138 0.22391 0.0
H38 H 0.45527 0.2872 0.3322 0.0
H39 H 0.41423 0.23059 0.32681 0.0
C40 C 0.73943 0.74497 0.2597 0.0
Eu41 Eu 0.76086 0.70546 0.27033 0.0
C42 C 0.75426 0.78023 0.26377 0.0
C43 C 0.77598 0.79725 0.29296 0.0
C44 C 0.79187 0.83097 0.29416 0.0
C45 C 0.78669 0.84835 0.26594 0.0
C46 C 0.7651 0.83103 0.23668 0.0
C47 C 0.74904 0.79744 0.23573 0.0
C48 C 0.78071 0.69851 0.33953 0.0
C49 C 0.83775 0.73529 0.26958 0.0
C50 C 0.80558 0.62026 0.2674 0.0
Eu51 Eu 0.7876 0.66308 0.26623 0.0
C52 C 0.81585 0.59584 0.26809 0.0
C53 C 0.812 0.57674 0.23627 0.0
C54 C 0.82189 0.55377 0.23692 0.0
C55 C 0.83573 0.54926 0.26948 0.0
C56 C 0.83929 0.56829 0.30139 0.0
C57 C 0.82954 0.59136 0.30066 0.0
C58 C 0.78032 0.68647 0.19846 0.0
C59 C 0.71197 0.62794 0.27506 0.0
O60 O 0.75172 0.73563 0.23294 0.0
O61 O 0.73365 0.72801 0.2904 0.0
O62 O 0.78783 0.72559 0.32421 0.0
O63 O 0.76595 0.67612 0.31553 0.0
O64 O 0.81417 0.73914 0.25625 0.0
O65 O 0.83149 0.70763 0.28354 0.0
O66 O 0.81474 0.64305 0.29283 0.0
O67 O 0.78678 0.62081 0.24126 0.0
O68 O 0.80638 0.68661 0.20811 0.0
O69 O 0.76065 0.67498 0.2247 0.0
O70 O 0.73783 0.62573 0.27953 0.0
O71 O 0.71374 0.65624 0.26964 0.0
H72 H 0.78097 0.78456 0.31457 0.0
H73 H 0.80808 0.84334 0.31731 0.0
H74 H 0.76102 0.84339 0.21391 0.0
H75 H 0.73302 0.78485 0.21248 0.0
H76 H 0.8015 0.57965 0.21076 0.0
H77 H 0.81842 0.53933 0.21197 0.0
H78 H 0.85017 0.56582 0.32681 0.0
H79 H 0.83273 0.6057 0.32564 0.0
C80 C 0.03318 0.29063 0.27042 0.0
Eu81 Eu 0.9717 0.2682 0.27505 0.0
C82 C 0.0521 0.27405 0.26847 0.0
C83 C 0.07762 0.28269 0.29353 0.0
C84 C 0.09488 0.26629 0.2931 0.0
C85 C 0.08705 0.24103 0.26734 0.0
C86 C 0.06134 0.23229 0.24237 0.0
C87 C 0.04392 0.24849 0.24305 0.0
C88 C 0.9408 0.24875 0.34198 0.0
C89 C 0.92349 0.19271 0.26932 0.0
C90 C 0.83686 0.21689 0.28574 0.0
Eu91 Eu 0.89771 0.24271 0.26949 0.0
C92 C 0.80428 0.21227 0.28007 0.0
C93 C 0.78848 0.20374 0.24515 0.0
C94 C 0.75599 0.19527 0.24245 0.0
C95 C 0.73851 0.19475 0.27468 0.0
C96 C 0.7549 0.204 0.3093 0.0
C97 C 0.78728 0.21279 0.31184 0.0
C98 C 0.92608 0.2538 0.19882 0.0
C99 C 0.94249 0.31846 0.27329 0.0
O100 O 1.01512 0.2872 0.24139 0.0
O101 O 0.01863 0.28834 0.30228 0.0
O102 O 0.96067 0.24043 0.32844 0.0
O103 O 0.93505 0.26397 0.31674 0.0
O104 O 0.95227 0.21577 0.25878 0.0
O105 O 0.90176 0.19923 0.28273 0.0
O106 O 0.85907 0.24371 0.30108 0.0
O107 O 0.8482 0.20444 0.26145 0.0
O108 O 0.89621 0.24577 0.20403 0.0
O109 O 0.93732 0.25554 0.23086 0.0
O110 O 0.91288 0.29429 0.27192 0.0
O111 O 0.96838 0.31487 0.27394 0.0
H112 H 0.08412 0.30213 0.31351 0.0
H113 H 0.11467 0.2737 0.31256 0.0
H114 H 0.05437 0.21258 0.22264 0.0
H115 H 0.02392 0.24082 0.22383 0.0
H116 H 0.80097 0.20297 0.22015 0.0
H117 H 0.74458 0.18888 0.21513 0.0
H118 H 0.74254 0.20334 0.33501 0.0
H119 H 0.79878 0.21882 0.33917 0.0
C120 C 0.07314 0.40899 0.76 0.0
Eu121 Eu 0.09147 0.36686 0.77209 0.0
C122 C 0.08947 0.44479 0.76215 0.0
C123 C 0.08163 0.45989 0.79094 0.0
C124 C 0.09646 0.49351 0.79308 0.0
C125 C 0.11941 0.51307 0.76624 0.0
C126 C 0.1275 0.49786 0.73767 0.0
C127 C 0.11284 0.46425 0.73571 0.0
C128 C 0.0996 0.35126 0.84455 0.0
C129 C 0.16669 0.39361 0.77647 0.0
C130 C 0.14035 0.28525 0.78471 0.0
Eu131 Eu 0.11247 0.31906 0.77424 0.0
C132 C 0.1403 0.25491 0.77846 0.0
C133 C 0.14594 0.24611 0.74273 0.0
C134 C 0.15218 0.22073 0.73881 0.0
C135 C 0.15365 0.20424 0.7706 0.0
C136 C 0.14646 0.21225 0.80602 0.0
C137 C 0.13968 0.23718 0.80981 0.0
C138 C 0.08942 0.32146 0.70586 0.0
C139 C 0.038 0.29074 0.77703 0.0
O140 O 0.08208 0.39627 0.7333 0.0
O141 O 0.06833 0.39374 0.79169 0.0
O142 O 0.10925 0.3802 0.83281 0.0
O143 O 0.0879 0.33286 0.81673 0.0
O144 O 0.14495 0.40034 0.764 0.0
O145 O 0.15795 0.36476 0.7889 0.0
O146 O 0.11964 0.28558 0.80841 0.0
O147 O 0.14623 0.30425 0.75602 0.0
O148 O 0.08603 0.29566 0.72137 0.0
O149 O 0.1074 0.34623 0.72588 0.0
O150 O 0.06145 0.28622 0.78873 0.0
O151 O 0.04368 0.31913 0.76426 0.0
H152 H 0.06392 0.44566 0.81191 0.0
H153 H 0.08999 0.50411 0.816 0.0
H154 H 0.14471 0.51186 0.71618 0.0
H155 H 0.11967 0.45356 0.7132 0.0
H156 H 0.14649 0.25934 0.71797 0.0
H157 H 0.15675 0.21469 0.71097 0.0
H158 H 0.14789 0.20064 0.8313 0.0
H159 H 0.13585 0.24386 0.83769 0.0
C160 C 0.35254 0.94472 0.75269 0.0
Eu161 Eu 0.29486 0.93457 0.76823 0.0
C162 C 0.37168 0.92817 0.75539 0.0
C163 C 0.40034 0.94297 0.77618 0.0
C164 C 0.41978 0.92896 0.77866 0.0
C165 C 0.41134 0.89977 0.76008 0.0
C166 C 0.38211 0.88447 0.73996 0.0
C167 C 0.36244 0.89846 0.73772 0.0
C168 C 0.28007 0.94273 0.83896 0.0
C169 C 0.24586 0.85761 0.77543 0.0
C170 C 0.1652 0.88562 0.79008 0.0
Eu171 Eu 0.22615 0.91214 0.77515 0.0
C172 C 0.13498 0.88619 0.78631 0.0
C173 C 0.12348 0.88976 0.75145 0.0
C174 C 0.09212 0.88447 0.74828 0.0
C175 C 0.07173 0.87529 0.77982 0.0
C176 C 0.08406 0.87311 0.81481 0.0
C177 C 0.11531 0.87865 0.81797 0.0
C178 C 0.24958 0.93774 0.70632 0.0
C179 C 0.27162 0.98629 0.77775 0.0
O180 O 0.32957 0.93494 0.72767 0.0
O181 O 0.34459 0.95235 0.78451 0.0
O182 O 0.30553 0.96291 0.82104 0.0
O183 O 0.26241 0.91764 0.819 0.0
O184 O 0.27619 0.88076 0.77576 0.0
O185 O 0.22257 0.86418 0.77369 0.0
O186 O 0.18751 0.90661 0.8125 0.0
O187 O 0.17662 0.87882 0.76019 0.0
O188 O 0.22808 0.94101 0.72459 0.0
O189 O 0.2571 0.9196 0.72421 0.0
O190 O 0.24633 0.96247 0.79358 0.0
O191 O 0.29269 0.98107 0.75901 0.0
H192 H 0.40788 0.96567 0.79048 0.0
H193 H 0.44148 0.94115 0.79534 0.0
H194 H 0.37471 0.86205 0.72514 0.0
H195 H 0.34028 0.88623 0.72184 0.0
H196 H 0.13825 0.89553 0.72652 0.0
H197 H 0.08366 0.88688 0.72099 0.0
H198 H 0.06911 0.86549 0.83963 0.0
H199 H 0.12361 0.87543 0.84501 0.0
C200 C 0.61459 0.67327 0.74433 0.0
Eu201 Eu 0.66027 0.72868 0.76901 0.0
C202 C 0.5792 0.65329 0.75063 0.0
C203 C 0.56634 0.62366 0.7692 0.0
C204 C 0.533 0.60388 0.77337 0.0
C205 C 0.51142 0.61301 0.75881 0.0
C206 C 0.52446 0.64306 0.74094 0.0
C207 C 0.55777 0.66291 0.73704 0.0
C208 C 0.67332 0.74465 0.84401 0.0
C209 C 0.63625 0.7811 0.77649 0.0
C210 C 0.7473 0.86235 0.79051 0.0
Eu211 Eu 0.71191 0.80142 0.77598 0.0
C212 C 0.7774 0.89242 0.78358 0.0
C213 C 0.787 0.90459 0.74716 0.0
C214 C 0.81166 0.93627 0.74212 0.0
C215 C 0.82699 0.95622 0.77336 0.0
C216 C 0.8186 0.9432 0.80958 0.0
C217 C 0.79406 0.9116 0.81457 0.0
C218 C 0.71173 0.77433 0.70863 0.0
C219 C 0.7348 0.75082 0.78356 0.0
O220 O 0.62478 0.70033 0.7263 0.0
O221 O 0.6337 0.676 0.77205 0.0
O222 O 0.65201 0.71664 0.83142 0.0
O223 O 0.68435 0.76294 0.81596 0.0
O224 O 0.62775 0.75049 0.77191 0.0
O225 O 0.66644 0.8037 0.78025 0.0
O226 O 0.74816 0.84015 0.8109 0.0
O227 O 0.72624 0.85078 0.76317 0.0
O228 O 0.73704 0.79724 0.72474 0.0
O229 O 0.68679 0.76826 0.72742 0.0
O230 O 0.7377 0.77754 0.79798 0.0
O231 O 0.70869 0.72984 0.7645 0.0
H232 H 0.5821 0.61557 0.78022 0.0
H233 H 0.5242 0.58138 0.78809 0.0
H234 H 0.50896 0.65104 0.72893 0.0
H235 H 0.56663 0.68561 0.72272 0.0
H236 H 0.77453 0.89021 0.72271 0.0
H237 H 0.81798 0.94548 0.71384 0.0
H238 H 0.8296 0.95796 0.83427 0.0
H239 H 0.78682 0.90273 0.84286 0.0
H240 H 0.26559 0.90883 0.90554 0.0
H241 H 0.27255 0.93238 0.96876 0.0
H242 H 0.28838 0.02136 0.92005 0.0
H243 H 0.28575 0.99922 0.85811 0.0
H244 H 0.32906 0.0385 0.96643 0.0
H245 H 0.21721 0.96265 0.97743 0.0
H246 H 0.16801 0.90955 0.97529 0.0
H247 H 0.20693 0.87473 0.05931 0.0
H248 H 0.25659 0.92754 0.06153 0.0
H249 H 0.32078 0.11356 0.13768 0.0
H250 H 0.30515 0.08448 0.07728 0.0
H251 H 0.32333 0.01182 0.12221 0.0
H252 H 0.33986 0.04118 0.18193 0.0
H253 H 0.26553 0.9859 0.08028 0.0
H254 H 0.37786 0.06821 0.06704 0.0
H255 H 0.42274 0.12416 0.06819 0.0
H256 H 0.37481 0.15025 0.98572 0.0
H257 H 0.32947 0.09453 0.98449 0.0
C258 C 0.26944 0.93299 0.9086 0.0
C259 C 0.27366 0.95168 0.87669 0.0
C260 C 0.27354 0.94664 0.94487 0.0
C261 C 0.28078 0.97889 0.94989 0.0
C262 C 0.28305 0.99664 0.91771 0.0
C263 C 0.28044 0.98355 0.88191 0.0
C264 C 0.28836 0.99531 0.9878 0.0
C265 C 0.31452 0.02691 0.99093 0.0
C266 C 0.27035 0.98062 1.02064 0.0
C267 C 0.24067 0.94889 1.01938 0.0
C268 C 0.21534 0.94358 0.99525 0.0
C269 C 0.18738 0.91356 0.99404 0.0
C270 C 0.18437 0.88876 1.01709 0.0
C271 C 0.20932 0.89395 0.04143 0.0
C272 C 0.23737 0.92392 0.04269 0.0
C273 C 0.32133 0.09135 0.13466 0.0
C274 C 0.33141 0.07963 0.16466 0.0
C275 C 0.3124 0.07473 0.10015 0.0
C276 C 0.31308 0.04592 0.09512 0.0
C277 C 0.32246 0.03387 0.12537 0.0
C278 C 0.3319 0.05072 0.15955 0.0
C279 C 0.30525 0.02891 0.058 0.0
C280 C 0.27949 0.99724 0.05532 0.0
C281 C 0.32283 0.04392 0.02522 0.0
C282 C 0.35021 0.0773 0.02588 0.0
C283 C 0.37682 0.08594 0.04935 0.0
C284 C 0.40235 0.1176 0.04999 0.0
C285 C 0.40161 0.14076 0.0271 0.0
C286 C 0.37536 0.13231 1.00346 0.0
C287 C 0.34976 0.1007 1.00276 0.0
H288 H 0.4214 0.16525 0.02762 0.0
H289 H 0.16268 0.86554 1.01615 0.0
H290 H 0.66528 0.74399 0.65302 0.0
H291 H 0.67347 0.7279 0.59001 0.0
H292 H 0.77097 0.75548 0.62002 0.0
H293 H 0.76362 0.77398 0.6808 0.0
H294 H 0.77438 0.77541 0.55656 0.0
H295 H 0.69892 0.67016 0.60853 0.0
H296 H 0.64715 0.63098 0.63679 0.0
H297 H 0.59679 0.63999 0.54233 0.0
H298 H 0.64827 0.67944 0.51375 0.0
H299 H 0.81744 0.71227 0.40279 0.0
H300 H 0.80253 0.71948 0.46654 0.0
H301 H 0.70677 0.69062 0.42766 0.0
H302 H 0.72112 0.68089 0.36493 0.0
H303 H 0.7002 0.67219 0.49341 0.0
H304 H 0.77383 0.77567 0.44071 0.0
H305 H 0.8245 0.81646 0.41179 0.0
H306 H 0.87743 0.81266 0.50678 0.0
H307 H 0.82708 0.77166 0.53608 0.0
C308 C 0.68828 0.74626 0.64609 0.0
C309 C 0.71372 0.76011 0.67204 0.0
C310 C 0.693 0.73685 0.61004 0.0
C311 C 0.72287 0.73993 0.59978 0.0
C312 C 0.74775 0.75287 0.62649 0.0
C313 C 0.74338 0.76316 0.66168 0.0
C314 C 0.72934 0.7311 0.56126 0.0
C315 C 0.75825 0.75252 0.54322 0.0
C316 C 0.70807 0.70197 0.5424 0.0
C317 C 0.67733 0.67783 0.55921 0.0
C318 C 0.67677 0.66379 0.59389 0.0
C319 C 0.6475 0.64157 0.60995 0.0
C320 C 0.6187 0.63305 0.59141 0.0
C321 C 0.61911 0.64662 0.55668 0.0
C322 C 0.64831 0.66887 0.54052 0.0
C323 C 0.7929 0.70626 0.40837 0.0
C324 C 0.77026 0.69527 0.37919 0.0
C325 C 0.78449 0.71112 0.44466 0.0
C326 C 0.7537 0.70675 0.45213 0.0
C327 C 0.7307 0.69436 0.42312 0.0
C328 C 0.73883 0.68854 0.38719 0.0
C329 C 0.7457 0.71604 0.48944 0.0
C330 C 0.71642 0.69493 0.50697 0.0
C331 C 0.76656 0.7456 0.50781 0.0
C332 C 0.79676 0.77046 0.49039 0.0
C333 C 0.7963 0.78347 0.45532 0.0
C334 C 0.82495 0.80662 0.43889 0.0
C335 C 0.85417 0.81709 0.4574 0.0
C336 C 0.85479 0.80452 0.49246 0.0
C337 C 0.82621 0.78137 0.50901 0.0
H338 H 0.87633 0.83498 0.4446 0.0
H339 H 0.59606 0.61588 0.60392 0.0
H340 H 0.90511 0.26031 0.12954 0.0
H341 H 0.93495 0.27531 0.07006 0.0
H342 H 0.01748 0.28207 0.12627 0.0
H343 H 0.98687 0.265 0.18472 0.0
H344 H 0.03466 0.33407 0.08012 0.0
H345 H 0.97377 0.21969 0.0706 0.0
H346 H 0.92511 0.16618 0.07151 0.0
H347 H 0.88508 0.19342 0.98076 0.0
H348 H 0.93336 0.24731 0.9797 0.0
H349 H 0.12623 0.35523 0.9142 0.0
H350 H 0.09799 0.3359 0.97417 0.0
H351 H 1.00756 0.30534 0.91813 0.0
H352 H 0.03563 0.32219 0.85814 0.0
H353 H 0.99526 0.2648 0.96636 0.0
H354 H 0.05562 0.38122 0.97879 0.0
H355 H 0.10512 0.43419 0.97804 0.0
H356 H 0.14624 0.40311 0.06365 0.0
H357 H 0.09709 0.34989 0.06463 0.0
C358 C 0.92963 0.26503 0.12921 0.0
C359 C 0.94405 0.26265 0.16246 0.0
C360 C 0.9467 0.2736 0.09513 0.0
C361 C 0.97873 0.2802 0.09349 0.0
C362 C 0.99305 0.27766 0.12667 0.0
C363 C 0.97572 0.26842 0.16043 0.0
C364 C 0.99719 0.28944 0.05729 0.0
C365 C 0.02615 0.31878 0.05532 0.0
C366 C 0.98616 0.26986 0.02462 0.0
C367 C 0.95703 0.23761 0.02531 0.0
C368 C 0.95446 0.21436 0.05107 0.0
C369 C 0.92698 0.18395 0.05158 0.0
C370 C 0.90198 0.17643 0.02626 0.0
C371 C 0.90444 0.1993 1.00038 0.0
C372 C 0.93186 0.22978 0.9998 0.0
C373 C 0.10036 0.34443 0.91488 0.0
C374 C 0.08326 0.34075 0.8816 0.0
C375 C 0.08408 0.33359 0.94931 0.0
C376 C 0.05038 0.31997 0.95158 0.0
C377 C 0.03342 0.31585 0.91788 0.0
C378 C 0.04956 0.32579 0.88344 0.0
C379 C 0.03265 0.31004 0.98858 0.0
C380 C 1.00379 0.28039 0.99089 0.0
C381 C 0.0437 0.32945 1.02158 0.0
C382 C 0.07283 0.36162 1.02161 0.0
C383 C 0.07526 0.38573 0.9974 0.0
C384 C 0.10325 0.41576 0.99692 0.0
C385 C 0.12883 0.42199 1.02074 0.0
C386 C 0.12642 0.39825 0.04522 0.0
C387 C 0.0985 0.36818 0.0458 0.0
H388 H 0.1505 0.44524 1.02028 0.0
H389 H 0.88074 0.15284 0.02665 0.0
H390 H 0.34383 0.04224 0.36651 0.0
H391 H 0.33364 0.01774 0.42889 0.0
H392 H 0.30374 0.08392 0.46858 0.0
H393 H 0.31308 0.10785 0.40564 0.0
H394 H 0.3416 0.07411 0.52124 0.0
H395 H 0.24864 0.01234 0.4466 0.0
H396 H 0.21762 0.98112 0.39136 0.0
H397 H 0.24637 0.91088 0.4115 0.0
H398 H 0.27815 0.94208 0.46645 0.0
H399 H 0.24876 0.98998 0.6799 0.0
H400 H 0.26659 0.01603 0.61911 0.0
H401 H 0.29722 0.94844 0.58795 0.0
H402 H 0.27968 0.92231 0.64976 0.0
H403 H 0.26028 0.95827 0.53068 0.0
H404 H 0.35263 0.02182 0.60807 0.0
H405 H 0.38119 0.05392 0.66399 0.0
H406 H 0.34988 0.1215 0.63915 0.0
H407 H 0.32068 0.08946 0.5834 0.0
C408 C 0.33616 0.0523 0.38893 0.0
C409 C 0.33016 0.07763 0.38155 0.0
C410 C 0.32988 0.03795 0.42444 0.0
C411 C 0.31767 0.04876 0.45351 0.0
C412 C 0.3132 0.07516 0.4467 0.0
C413 C 0.31887 0.08909 0.41088 0.0
C414 C 0.30843 0.03174 0.49042 0.0
C415 C 0.32364 0.04885 0.52325 0.0
C416 C 0.28521 0.99863 0.49328 0.0
C417 C 0.2662 0.97981 0.46027 0.0
C418 C 0.24868 0.99045 0.43898 0.0
C419 C 0.2309 0.97272 0.40777 0.0
C420 C 0.23014 0.94411 0.39782 0.0
C421 C 0.24708 0.93312 0.41915 0.0
C422 C 0.265 0.95082 0.45032 0.0
C423 C 0.25944 0.98065 0.66026 0.0
C424 C 0.26272 0.95396 0.66971 0.0
C425 C 0.26968 0.99567 0.62542 0.0
C426 C 0.28331 0.98433 0.59875 0.0
C427 C 0.28674 0.95765 0.608 0.0
C428 C 0.2769 0.94283 0.64338 0.0
C429 C 0.29378 1.00059 0.56144 0.0
C430 C 0.27856 0.98341 0.52856 0.0
C431 C 0.31668 0.03376 0.55853 0.0
C432 C 0.33426 0.05311 0.59184 0.0
C433 C 0.35162 0.04338 0.61474 0.0
C434 C 0.36795 0.06158 0.64636 0.0
C435 C 0.36728 0.08969 0.65518 0.0
C436 C 0.35033 0.0997 0.63232 0.0
C437 C 0.33391 0.08154 0.60071 0.0
H438 H 0.37995 0.10376 0.67968 0.0
H439 H 0.21634 0.9304 0.37366 0.0
H440 H 0.64303 0.71229 0.90629 0.0
H441 H 0.66625 0.70889 0.96578 0.0
H442 H 0.76029 0.7795 0.92729 0.0
H443 H 0.73675 0.7841 0.86791 0.0
H444 H 0.75701 0.72226 0.96012 0.0
H445 H 0.73015 0.80248 0.99206 0.0
H446 H 0.69576 0.82707 0.99577 0.0
H447 H 0.62773 0.74843 0.06285 0.0
H448 H 0.66151 0.72306 0.059 0.0
H449 H 0.82174 0.71998 0.14061 0.0
H450 H 0.80879 0.73709 0.08153 0.0
H451 H 0.70933 0.69238 0.11478 0.0
H452 H 0.72265 0.67718 0.17437 0.0
H453 H 0.72097 0.74274 0.08271 0.0
H454 H 0.74448 0.65929 0.04468 0.0
H455 H 0.77856 0.63425 0.04099 0.0
H456 H 0.85239 0.71811 0.98634 0.0
H457 H 0.81859 0.74352 0.98929 0.0
C458 C 0.66858 0.72775 0.91072 0.0
C459 C 0.68787 0.74852 0.88214 0.0
C460 C 0.6819 0.72557 0.94475 0.0
C461 C 0.7151 0.74376 0.95119 0.0
C462 C 0.73461 0.76507 0.92303 0.0
C463 C 0.72106 0.76783 0.88908 0.0
C464 C 0.7288 0.73998 0.9874 0.0
C465 C 0.7496 0.72728 0.98694 0.0
C466 C 0.7187 0.74575 0.02256 0.0
C467 C 0.69826 0.76079 0.02503 0.0
C468 C 0.70772 0.7903 1.00735 0.0
C469 C 0.68837 0.80439 1.00951 0.0
C470 C 0.65956 0.7893 0.0295 0.0
C471 C 0.65005 0.76008 0.04737 0.0
C472 C 0.66931 0.74584 0.04523 0.0
C473 C 0.79715 0.71385 0.1352 0.0
C474 C 0.77323 0.69692 0.16208 0.0
C475 C 0.78961 0.72341 0.10117 0.0
C476 C 0.75776 0.71546 0.0927 0.0
C477 C 0.73405 0.6989 0.12002 0.0
C478 C 0.74169 0.68998 0.1542 0.0
C479 C 0.7488 0.72426 0.05581 0.0
C480 C 0.72868 0.73782 0.05605 0.0
C481 C 0.75935 0.71901 1.02047 0.0
C482 C 0.77914 0.70334 1.01744 0.0
C483 C 0.76796 0.67233 0.03179 0.0
C484 C 0.78719 0.65807 0.02975 0.0
C485 C 0.81759 0.67457 1.01334 0.0
C486 C 0.82878 0.70533 0.99886 0.0
C487 C 0.80955 0.71961 1.00053 0.0
H488 H 0.83249 0.66354 1.01187 0.0
H489 H 0.64462 0.80029 0.03119 0.0
H490 H 0.98365 0.30908 0.36501 0.0
H491 H 1.00873 0.32526 0.42721 0.0
H492 H 0.94275 0.23091 0.46942 0.0
H493 H 0.91831 0.21437 0.40667 0.0
H494 H 0.95336 0.27998 0.52064 0.0
H495 H 1.01336 0.24549 0.44805 0.0
H496 H 0.04462 0.24248 0.39476 0.0
H497 H 0.11626 0.34137 0.41239 0.0
H498 H 0.08505 0.34519 0.46533 0.0
H499 H 0.03817 0.26929 0.67683 0.0
H500 H 1.01238 0.26231 0.61612 0.0
H501 H 0.07841 0.36142 0.58978 0.0
H502 H 0.10437 0.36889 0.65192 0.0
H503 H 0.0689 0.3133 0.53035 0.0
H504 H 1.00623 0.34411 0.60766 0.0
H505 H 0.97497 0.34103 0.66404 0.0
H506 H 0.90765 0.24199 0.63913 0.0
H507 H 0.93884 0.24437 0.5829 0.0
C508 C 0.97366 0.29219 0.38794 0.0
C509 C 0.94826 0.26073 0.38126 0.0
C510 C 0.98839 0.3013 0.42335 0.0
C511 C 0.97785 0.27928 0.45308 0.0
C512 C 0.9513 0.24839 0.44702 0.0
C513 C 0.93703 0.23904 0.4113 0.0
C514 C 0.99529 0.28807 0.48991 0.0
C515 C 0.97859 0.28714 0.52265 0.0
C516 C 0.02833 0.29761 0.49286 0.0
C517 C 0.04661 0.29578 0.46027 0.0
C518 C 0.03551 0.26676 0.44018 0.0
C519 C 0.05327 0.26486 0.41012 0.0
C520 C 0.08238 0.29173 0.40019 0.0
C521 C 0.09367 0.32061 0.4201 0.0
C522 C 0.07594 0.32267 0.4501 0.0
C523 C 0.04718 0.28986 0.65843 0.0
C524 C 0.07337 0.31975 0.6694 0.0
C525 C 0.03233 0.28573 0.62355 0.0
C526 C 0.04332 0.31126 0.59821 0.0
C527 C 0.06949 0.34133 0.60887 0.0
C528 C 0.08418 0.34567 0.64443 0.0
C529 C 0.02709 0.30585 0.56083 0.0
C530 C 0.04388 0.30689 0.52808 0.0
C531 C 0.99399 0.29581 0.55789 0.0
C532 C 0.97497 0.29438 0.5913 0.0
C533 C 0.98488 0.32163 0.61438 0.0
C534 C 0.96717 0.32001 0.64628 0.0
C535 C 0.93937 0.29131 0.65521 0.0
C536 C 0.92919 0.26419 0.63219 0.0
C537 C 0.94686 0.26567 0.60029 0.0
H538 H 0.92569 0.29011 0.67994 0.0
H539 H 0.09633 0.29011 0.37727 0.0
H540 H 0.42558 0.06077 0.23722 0.0
H541 H 0.48272 0.07637 0.23337 0.0
H542 H 0.50283 0.1383 0.33015 0.0
H543 H 0.44646 0.1232 0.33361 0.0
H544 H 0.54332 0.17051 0.27734 0.0
H545 H 0.50495 0.066 0.33192 0.0
H546 H 0.47079 1.00703 0.33492 0.0
H547 H 0.50807 0.99726 0.22892 0.0
H548 H 0.5421 0.05623 0.22506 0.0
H549 H 0.70389 0.21495 0.31778 0.0
H550 H 0.64629 0.19369 0.31869 0.0
H551 H 0.63481 0.12972 0.2267 0.0
H552 H 0.69227 0.14871 0.22794 0.0
H553 H 0.58952 0.09834 0.27233 0.0
H554 H 0.63005 0.20323 0.21915 0.0
H555 H 0.66351 0.26227 0.21589 0.0
H556 H 0.62183 0.27198 0.31848 0.0
H557 H 0.58846 0.21299 0.32265 0.0
C558 C 0.44206 0.07674 0.25842 0.0
C559 C 0.43146 0.09043 0.28601 0.0
C560 C 0.47481 0.08595 0.25603 0.0
C561 C 0.49733 0.10872 0.28142 0.0
C562 C 0.48621 0.12095 0.31003 0.0
C563 C 0.45381 0.11196 0.31227 0.0
C564 C 0.53264 0.12124 0.27766 0.0
C565 C 0.55341 0.15469 0.27662 0.0
C566 C 0.54602 0.10082 0.2756 0.0
C567 C 0.52579 0.06546 0.27804 0.0
C568 C 0.50567 0.05126 0.30914 0.0
C569 C 0.48636 0.01785 0.31101 0.0
C570 C 0.4872 0.99842 0.28208 0.0
C571 C 0.50741 0.01235 0.25127 0.0
C572 C 0.52672 0.04575 0.24924 0.0
C573 C 0.68927 0.19605 0.29796 0.0
C574 C 0.70323 0.18363 0.27286 0.0
C575 C 0.65612 0.18425 0.29807 0.0
C576 C 0.6359 0.16044 0.27223 0.0
C577 C 0.64971 0.1482 0.24686 0.0
C578 C 0.68285 0.15949 0.24725 0.0
C579 C 0.60037 0.14772 0.27239 0.0
C580 C 0.57952 0.11424 0.27276 0.0
C581 C 0.5869 0.16818 0.2738 0.0
C582 C 0.60694 0.20367 0.27133 0.0
C583 C 0.62818 0.21795 0.24113 0.0
C584 C 0.64712 0.25141 0.23912 0.0
C585 C 0.64485 0.27086 0.267 0.0
C586 C 0.62359 0.25689 0.29693 0.0
C587 C 0.60464 0.22345 0.29911 0.0
H588 H 0.65952 0.29676 0.26537 0.0
H589 H 0.47223 0.97255 0.28358 0.0
H590 H 0.65376 0.60375 0.31295 0.0
H591 H 0.61091 0.54679 0.3139 0.0
H592 H 0.66318 0.52401 0.23197 0.0
H593 H 0.70425 0.5802 0.22965 0.0
H594 H 0.6069 0.48901 0.21579 0.0
H595 H 0.663 0.51024 0.33083 0.0
H596 H 0.68621 0.53666 0.39151 0.0
H597 H 0.592 0.50907 0.43301 0.0
H598 H 0.56829 0.48287 0.3723 0.0
H599 H 0.53989 0.32157 0.25183 0.0
H600 H 0.5771 0.37944 0.25138 0.0
H601 H 0.50738 0.39567 0.30901 0.0
H602 H 0.46955 0.33791 0.30869 0.0
H603 H 0.56997 0.43331 0.33779 0.0
H604 H 0.51824 0.4064 0.2137 0.0
H605 H 0.50406 0.37565 0.15416 0.0
H606 H 0.60389 0.4106 0.13157 0.0
H607 H 0.61858 0.44118 0.19121 0.0
C608 C 0.65526 0.58665 0.2942 0.0
C609 C 0.68207 0.59651 0.27081 0.0
C610 C 0.63115 0.55395 0.29525 0.0
C611 C 0.6338 0.53062 0.27339 0.0
C612 C 0.66006 0.54108 0.249 0.0
C613 C 0.68364 0.57342 0.24764 0.0
C614 C 0.61014 0.49524 0.276 0.0
C615 C 0.59911 0.47705 0.24264 0.0
C616 C 0.59984 0.47891 0.31072 0.0
C617 C 0.61395 0.49511 0.3469 0.0
C618 C 0.64729 0.51015 0.35277 0.0
C619 C 0.66052 0.52501 0.38718 0.0
C620 C 0.64061 0.52468 0.41605 0.0
C621 C 0.60741 0.50942 0.41058 0.0
C622 C 0.59406 0.49458 0.37618 0.0
C623 C 0.53219 0.33732 0.26417 0.0
C624 C 0.50137 0.32469 0.28008 0.0
C625 C 0.55368 0.37053 0.26404 0.0
C626 C 0.54498 0.39207 0.2798 0.0
C627 C 0.5147 0.3796 0.29668 0.0
C628 C 0.49309 0.34639 0.29663 0.0
C629 C 0.567 0.4276 0.27774 0.0
C630 C 0.57766 0.44564 0.31112 0.0
C631 C 0.57835 0.44358 0.2431 0.0
C632 C 0.56945 0.42592 0.20688 0.0
C633 C 0.53712 0.40743 0.19604 0.0
C634 C 0.52901 0.39003 0.1623 0.0
C635 C 0.55306 0.39115 0.13911 0.0
C636 C 0.58528 0.40975 0.14954 0.0
C637 C 0.59351 0.42715 0.18326 0.0
H638 H 0.54672 0.37762 0.11303 0.0
H639 H 0.65089 0.53616 0.4427 0.0
H640 H 0.95825 0.36382 0.21909 0.0
H641 H 0.94218 0.40512 0.21899 0.0
H642 H 0.91069 0.38237 0.33387 0.0
H643 H 0.92652 0.34114 0.33371 0.0
H644 H 0.86466 0.38182 0.29223 0.0
H645 H 0.97765 0.45453 0.3091 0.0
H646 H 0.0351 0.47877 0.29365 0.0
H647 H 0.01801 0.50695 0.18581 0.0
H648 H 0.96034 0.48239 0.2004 0.0
H649 H 0.83078 0.50875 0.32658 0.0
H650 H 0.85147 0.47137 0.32799 0.0
H651 H 0.88601 0.49733 0.21456 0.0
H652 H 0.86657 0.53565 0.21351 0.0
H653 H 0.9303 0.49604 0.25518 0.0
H654 H 0.81821 0.42463 0.23708 0.0
H655 H 0.76018 0.39881 0.24979 0.0
H656 H 0.77412 0.36678 0.35673 0.0
H657 H 0.83237 0.39292 0.34496 0.0
C658 C 0.94946 0.36888 0.24483 0.0
C659 C 0.94477 0.35018 0.27686 0.0
C660 C 0.93981 0.39215 0.24465 0.0
C661 C 0.92521 0.397 0.2765 0.0
C662 C 0.9219 0.37922 0.30899 0.0
C663 C 0.93154 0.35609 0.30913 0.0
C664 C 0.91166 0.41911 0.27545 0.0
C665 C 0.87916 0.40694 0.28468 0.0
C666 C 0.93011 0.45161 0.26445 0.0
C667 C 0.9647 0.46638 0.2557 0.0
C668 C 0.98612 0.46567 0.28198 0.0
C669 C 0.01872 0.47949 0.27339 0.0
C670 C 0.03019 0.49432 0.23873 0.0
C671 C 1.00909 0.49541 0.21261 0.0
C672 C 0.97646 0.48156 0.22103 0.0
C673 C 0.84295 0.50666 0.30198 0.0
C674 C 0.84701 0.52532 0.26993 0.0
C675 C 0.85446 0.48495 0.30268 0.0
C676 C 0.87008 0.48118 0.27124 0.0
C677 C 0.874 0.49967 0.23917 0.0
C678 C 0.86258 0.52141 0.23848 0.0
C679 C 0.88332 0.45885 0.27208 0.0
C680 C 0.91575 0.47094 0.26281 0.0
C681 C 0.86467 0.4262 0.28277 0.0
C682 C 0.82973 0.41105 0.2903 0.0
C683 C 0.80898 0.41241 0.2635 0.0
C684 C 0.77602 0.39765 0.2705 0.0
C685 C 0.76348 0.38123 0.30408 0.0
C686 C 0.78388 0.37957 0.33076 0.0
C687 C 0.81687 0.39435 0.32394 0.0
H688 H 0.73794 0.36972 0.30939 0.0
H689 H 0.05545 0.50504 0.23215 0.0
H690 H 0.09161 0.54881 0.78834 0.0
H691 H 0.11567 0.60704 0.79074 0.0
H692 H 0.20438 0.61774 0.74753 0.0
H693 H 0.18118 0.55938 0.74744 0.0
H694 H 0.21762 0.66123 0.79957 0.0
H695 H 0.1488 0.62716 0.69134 0.0
H696 H 0.09787 0.59512 0.65702 0.0
H697 H 0.05247 0.63397 0.72736 0.0
H698 H 0.10305 0.66591 0.76245 0.0
H699 H 0.28217 0.82899 0.75874 0.0
H700 H 0.26338 0.77109 0.75548 0.0
H701 H 0.16947 0.75057 0.7926 0.0
H702 H 0.18755 0.80764 0.7943 0.0
H703 H 0.16106 0.71211 0.73973 0.0
H704 H 0.22838 0.74387 0.85024 0.0
H705 H 0.279 0.77594 0.88517 0.0
H706 H 0.32663 0.74171 0.8115 0.0
H707 H 0.27634 0.70975 0.77586 0.0
C708 C 0.11642 0.56338 0.7799 0.0
C709 C 0.13429 0.549 0.76764 0.0
C710 C 0.13006 0.59688 0.78076 0.0
C711 C 0.16174 0.61701 0.76859 0.0
C712 C 0.17984 0.60285 0.75684 0.0
C713 C 0.16634 0.56931 0.7564 0.0
C714 C 0.17588 0.65275 0.76803 0.0
C715 C 0.20542 0.67235 0.78603 0.0
C716 C 0.15991 0.66752 0.75098 0.0
C717 C 0.12961 0.6487 0.72966 0.0
C718 C 0.1279 0.62872 0.69959 0.0
C719 C 0.0991 0.6106 0.68001 0.0
C720 C 0.07193 0.61246 0.69005 0.0
C721 C 0.07352 0.63253 0.71964 0.0
C722 C 0.10226 0.65067 0.73936 0.0
C723 C 0.25764 0.81206 0.76651 0.0
C724 C 0.23646 0.82303 0.77674 0.0
C725 C 0.24687 0.7789 0.76475 0.0
C726 C 0.21493 0.75614 0.77408 0.0
C727 C 0.1941 0.76733 0.785 0.0
C728 C 0.20463 0.80019 0.78615 0.0
C729 C 0.20255 0.72067 0.77196 0.0
C730 C 0.17334 0.70107 0.75327 0.0
C731 C 0.21873 0.70593 0.78855 0.0
C732 C 0.24875 0.72469 0.81026 0.0
C733 C 0.24971 0.74332 0.84143 0.0
C734 C 0.27832 0.76147 0.86134 0.0
C735 C 0.30603 0.76092 0.85051 0.0
C736 C 0.30516 0.74214 0.81983 0.0
C737 C 0.27661 0.72399 0.79979 0.0
H738 H 0.32818 0.77501 0.86595 0.0
H739 H 0.04965 0.59838 0.67486 0.0
H740 H 0.4774 0.93229 0.76086 0.0
H741 H 0.51339 0.91049 0.76502 0.0
H742 H 0.43229 0.81415 0.76378 0.0
H743 H 0.39576 0.8359 0.76218 0.0
H744 H 0.47488 0.81751 0.81266 0.0
H745 H 0.48153 0.85032 0.68432 0.0
H746 H 0.48955 0.88825 0.63351 0.0
H747 H 0.58542 0.95199 0.67275 0.0
H748 H 0.57777 0.91464 0.72415 0.0
H749 H 0.57017 0.74337 0.77447 0.0
H750 H 0.53062 0.7615 0.77139 0.0
H751 H 0.6071 0.86025 0.77433 0.0
H752 H 0.64649 0.84253 0.77697 0.0
H753 H 0.56528 0.8536 0.72292 0.0
H754 H 0.5594 0.82361 0.85151 0.0
H755 H 0.55265 0.78765 0.90409 0.0
H756 H 0.45715 0.72077 0.86631 0.0
H757 H 0.46356 0.75614 0.8131 0.0
C758 C 0.46697 0.90644 0.76206 0.0
C759 C 0.43339 0.88598 0.76132 0.0
C760 C 0.48777 0.89394 0.76387 0.0
C761 C 0.47576 0.86056 0.76402 0.0
C762 C 0.44229 0.83999 0.76349 0.0
C763 C 0.42137 0.85251 0.76213 0.0
C764 C 0.49815 0.84729 0.76477 0.0
C765 C 0.49428 0.82501 0.79258 0.0
C766 C 0.52416 0.85757 0.73934 0.0
C767 C 0.52899 0.87981 0.70818 0.0
C768 C 0.50425 0.87251 0.6822 0.0
C769 C 0.50873 0.8939 0.65331 0.0
C770 C 0.53795 0.92254 0.64994 0.0
C771 C 0.56279 0.92981 0.67541 0.0
C772 C 0.55841 0.90853 0.7044 0.0
C773 C 0.57854 0.76893 0.77462 0.0
C774 C 0.6116 0.79138 0.77614 0.0
C775 C 0.55588 0.77931 0.77297 0.0
C776 C 0.56576 0.81233 0.77286 0.0
C777 C 0.59873 0.83468 0.77432 0.0
C778 C 0.6213 0.8244 0.77607 0.0
C779 C 0.54203 0.82388 0.77084 0.0
C780 C 0.54571 0.84589 0.74281 0.0
C781 C 0.51605 0.81356 0.79623 0.0
C782 C 0.51208 0.79231 0.82814 0.0
C783 C 0.53706 0.80109 0.85425 0.0
C784 C 0.53329 0.78085 0.88418 0.0
C785 C 0.50452 0.7519 0.88848 0.0
C786 C 0.47944 0.74317 0.8629 0.0
C787 C 0.48313 0.7633 0.83285 0.0
H788 H 0.50164 0.73626 0.9117 0.0
H789 H 0.54137 0.93908 0.62755 0.0
H790 H 0.19619 0.45972 0.77067 0.0
H791 H 0.25395 0.49836 0.76971 0.0
H792 H 0.2739 0.42015 0.77672 0.0
H793 H 0.21668 0.38201 0.78006 0.0
H794 H 0.31444 0.4633 0.81695 0.0
H795 H 0.28007 0.46664 0.69124 0.0
H796 H 0.24759 0.4736 0.64262 0.0
H797 H 0.28172 0.57059 0.68046 0.0
H798 H 0.31408 0.56402 0.72963 0.0
H799 H 0.47696 0.54663 0.75586 0.0
H800 H 0.41902 0.51122 0.75985 0.0
H801 H 0.40593 0.59355 0.77053 0.0
H802 H 0.46395 0.62927 0.76736 0.0
H803 H 0.36246 0.55045 0.72293 0.0
H804 H 0.39939 0.54592 0.84703 0.0
H805 H 0.43287 0.53762 0.89296 0.0
H806 H 0.39446 0.44022 0.85422 0.0
H807 H 0.36111 0.44812 0.80765 0.0
C808 C 0.21295 0.45086 0.77214 0.0
C809 C 0.20167 0.41774 0.77556 0.0
C810 C 0.24611 0.47298 0.77124 0.0
C811 C 0.26879 0.46244 0.77244 0.0
C812 C 0.25732 0.42928 0.77586 0.0
C813 C 0.22437 0.40734 0.77767 0.0
C814 C 0.30437 0.48554 0.77052 0.0
C815 C 0.32478 0.48201 0.79594 0.0
C816 C 0.31844 0.51069 0.74386 0.0
C817 C 0.29919 0.51473 0.71428 0.0
C818 C 0.28047 0.48937 0.6893 0.0
C819 C 0.26211 0.49326 0.66166 0.0
C820 C 0.26252 0.52249 0.65852 0.0
C821 C 0.28138 0.54794 0.68296 0.0
C822 C 0.29974 0.54416 0.7107 0.0
C823 C 0.46197 0.5574 0.75966 0.0
C824 C 0.47564 0.59111 0.76153 0.0
C825 C 0.42863 0.53697 0.76177 0.0
C826 C 0.40786 0.54955 0.76596 0.0
C827 C 0.42128 0.58312 0.76731 0.0
C828 C 0.45465 0.6036 0.76533 0.0
C829 C 0.37225 0.52777 0.76892 0.0
C830 C 0.35194 0.53165 0.74383 0.0
C831 C 0.35828 0.50261 0.79546 0.0
C832 C 0.37798 0.4977 0.82371 0.0
C833 C 0.39824 0.5228 0.84818 0.0
C834 C 0.41718 0.51816 0.87432 0.0
C835 C 0.41584 0.48843 0.87646 0.0
C836 C 0.3955 0.46324 0.85251 0.0
C837 C 0.37655 0.46778 0.82626 0.0
H838 H 0.43054 0.48489 0.89672 0.0
H839 H 0.24828 0.52545 0.63709 0.0
H840 H 0.25113 0.09516 0.21304 0.0
H841 H 0.21252 0.11477 0.20969 0.0
H842 H 0.23284 0.14624 0.32518 0.0
H843 H 0.27209 0.1279 0.32821 0.0
H844 H 0.1621 0.10938 0.29783 0.0
H845 H 0.26892 0.20074 0.27599 0.0
H846 H 0.32097 0.22888 0.24328 0.0
H847 H 0.27238 0.21791 0.13844 0.0
H848 H 0.22001 0.18912 0.17051 0.0
H849 H 0.10824 0.22079 0.32685 0.0
H850 H 0.13949 0.19322 0.32497 0.0
H851 H 0.13873 0.19448 0.20385 0.0
H852 H 0.10827 0.2229 0.20553 0.0
H853 H 0.19722 0.21146 0.22966 0.0
H854 H 0.09102 0.12593 0.25042 0.0
H855 H 0.0381 0.09707 0.28107 0.0
H856 H 0.08294 0.09469 0.38423 0.0
H857 H 0.13623 0.12418 0.35442 0.0
C858 C 0.24673 0.10563 0.23783 0.0
C859 C 0.26427 0.10993 0.27092 0.0
C860 C 0.22493 0.11695 0.23585 0.0
C861 C 0.22 0.13191 0.26722 0.0
C862 C 0.23631 0.13465 0.3008 0.0
C863 C 0.25864 0.12418 0.30247 0.0
C864 C 0.19937 0.14654 0.26465 0.0
C865 C 0.16973 0.13177 0.28313 0.0
C866 C 0.20919 0.17532 0.24476 0.0
C867 C 0.2406 0.19231 0.2255 0.0
C868 C 0.26934 0.20391 0.24588 0.0
C869 C 0.2989 0.22007 0.22749 0.0
C870 C 0.29998 0.22505 0.18877 0.0
C871 C 0.27151 0.21393 0.16839 0.0
C872 C 0.2419 0.19767 0.18666 0.0
C873 C 0.11491 0.21539 0.29982 0.0
C874 C 0.10572 0.22396 0.26633 0.0
C875 C 0.13249 0.19936 0.29878 0.0
C876 C 0.14107 0.19143 0.26425 0.0
C877 C 0.13221 0.20022 0.23079 0.0
C878 C 0.1146 0.21622 0.2318 0.0
C879 C 0.15979 0.17448 0.26313 0.0
C880 C 0.18922 0.18887 0.24406 0.0
C881 C 0.14958 0.14516 0.2822 0.0
C882 C 0.11763 0.12752 0.30028 0.0
C883 C 0.08962 0.11952 0.27974 0.0
C884 C 0.05956 0.103 0.29693 0.0
C885 C 0.05716 0.09407 0.33456 0.0
C886 C 0.08484 0.10165 0.35509 0.0
C887 C 0.11498 0.11827 0.33806 0.0
H888 H 0.03385 0.08123 0.34781 0.0
H889 H 0.32289 0.23762 0.17457 0.0
H890 H 0.88769 0.72506 0.2613 0.0
H891 H 0.94455 0.76411 0.26081 0.0
H892 H 0.92318 0.84121 0.27163 0.0
H893 H 0.86521 0.80157 0.27051 0.0
H894 H 0.97308 0.85841 0.22597 0.0
H895 H 0.94745 0.81358 0.34877 0.0
H896 H 0.92385 0.77031 0.39564 0.0
H897 H 0.98398 0.73346 0.35631 0.0
H898 H 1.00758 0.77622 0.3088 0.0
H899 H 0.13717 0.9655 0.27826 0.0
H900 H 0.07861 0.93375 0.27761 0.0
H901 H 0.0837 0.84715 0.26168 0.0
H902 H 0.14218 0.87867 0.26165 0.0
H903 H 0.04125 0.83915 0.31456 0.0
H904 H 0.0645 0.88261 0.18941 0.0
H905 H 0.08787 0.926 0.14268 0.0
H906 H 0.03243 0.96629 0.18773 0.0
H907 H 1.00913 0.92339 0.23514 0.0
C908 C 0.89494 0.75033 0.26343 0.0
C909 C 0.87197 0.76026 0.26646 0.0
C910 C 0.92759 0.77268 0.26334 0.0
C911 C 0.9383 0.80559 0.26745 0.0
C912 C 0.91547 0.81587 0.2689 0.0
C913 C 0.88243 0.79331 0.26825 0.0
C914 C 0.97338 0.82868 0.27076 0.0
C915 C 0.98791 0.85457 0.24584 0.0
C916 C 0.99295 0.82349 0.29629 0.0
C917 C 0.97912 0.79799 0.32512 0.0
C918 C 0.95551 0.79614 0.35001 0.0
C919 C 0.94214 0.77171 0.37668 0.0
C920 C 0.95238 0.74913 0.37892 0.0
C921 C 0.97607 0.75097 0.35454 0.0
C922 C 0.98947 0.77532 0.32776 0.0
C923 C 0.12591 0.93974 0.27421 0.0
C924 C 0.1446 0.92473 0.27001 0.0
C925 C 0.09235 0.9216 0.27388 0.0
C926 C 0.07669 0.88807 0.26922 0.0
C927 C 0.09522 0.87299 0.26536 0.0
C928 C 0.12874 0.89108 0.2656 0.0
C929 C 0.04103 0.86843 0.26923 0.0
C930 C 0.0264 0.8432 0.29492 0.0
C931 C 0.02148 0.87438 0.24458 0.0
C932 C 0.03538 0.90004 0.21605 0.0
C933 C 0.05751 0.90089 0.18954 0.0
C934 C 0.07071 0.92536 0.16291 0.0
C935 C 0.06172 0.94895 0.16231 0.0
C936 C 0.03943 0.94805 0.18828 0.0
C937 C 0.02622 0.92367 0.21503 0.0
H938 H 0.07196 0.96787 0.14165 0.0
H939 H 0.94198 0.73022 0.39958 0.0
H940 H 0.96019 0.16399 0.2811 0.0
H941 H 0.94093 0.10593 0.2826 0.0
H942 H 0.84621 0.08659 0.25055 0.0
H943 H 0.86483 0.14387 0.25155 0.0
H944 H 0.83859 0.0487 0.30146 0.0
H945 H 0.90474 0.07923 0.18985 0.0
H946 H 0.95523 0.11007 0.15463 0.0
H947 H 1.00117 0.0726 0.2251 0.0
H948 H 0.95113 0.04206 0.26124 0.0
H949 H 0.76314 0.88749 0.24446 0.0
H950 H 0.79065 0.94592 0.244 0.0
H951 H 0.87535 0.94988 0.29059 0.0
H952 H 0.84861 0.89108 0.28888 0.0
H953 H 0.89154 0.99515 0.23777 0.0
H954 H 0.82285 0.96171 0.34605 0.0
H955 H 0.77132 0.93005 0.379 0.0
H956 H 0.72881 0.97275 0.31127 0.0
H957 H 0.77998 1.00432 0.27753 0.0
C958 C 0.93539 0.1472 0.27405 0.0
C959 C 0.91401 0.15836 0.26622 0.0
C960 C 0.92435 0.114 0.27476 0.0
C961 C 0.89203 0.09156 0.26637 0.0
C962 C 0.87113 0.10309 0.25746 0.0
C963 C 0.88186 0.13595 0.2578 0.0
C964 C 0.87914 0.05606 0.26794 0.0
C965 C 0.85011 0.03713 0.28704 0.0
C966 C 0.89443 0.04062 0.25036 0.0
C967 C 0.92434 0.05866 0.22844 0.0
C968 C 0.92569 0.07776 0.19797 0.0
C969 C 0.95422 0.0952 0.17789 0.0
C970 C 0.98144 0.09342 0.18775 0.0
C971 C 0.98013 0.07409 0.21763 0.0
C972 C 0.9517 0.05671 0.23792 0.0
C973 C 0.78779 0.90061 0.25408 0.0
C974 C 0.80353 0.88429 0.26672 0.0
C975 C 0.80341 0.93416 0.25421 0.0
C976 C 0.83492 0.95239 0.26787 0.0
C977 C 0.85096 0.93635 0.2801 0.0
C978 C 0.83545 0.90266 0.27955 0.0
C979 C 0.85064 0.9881 0.27011 0.0
C980 C 0.8802 1.00693 0.2521 0.0
C981 C 0.83571 1.00355 0.28831 0.0
C982 C 0.80518 0.98523 0.30918 0.0
C983 C 0.80247 0.96426 0.33812 0.0
C984 C 0.77333 0.94632 0.35691 0.0
C985 C 0.7468 0.94936 0.34721 0.0
C986 C 0.74938 0.97042 0.31876 0.0
C987 C 0.77846 0.98838 0.29983 0.0
H988 H 0.72424 0.93541 0.36176 0.0
H989 H 1.00351 0.10693 0.17216 0.0
H990 H 0.19934 0.20622 0.72259 0.0
H991 H 0.22231 0.171 0.72162 0.0
H992 H 0.16029 0.11604 0.81256 0.0
H993 H 0.13548 0.14979 0.81231 0.0
H994 H 0.2266 0.13861 0.82459 0.0
H995 H 0.14427 0.08049 0.73612 0.0
H996 H 0.11053 0.07146 0.68029 0.0
H997 H 0.19292 0.10274 0.60907 0.0
H998 H 0.2273 0.11256 0.66463 0.0
H999 H 0.24484 1.00464 0.83133 0.0
H1000 H 0.22981 0.04499 0.82723 0.0
H1001 H 0.28332 0.07961 0.72412 0.0
H1002 H 0.29679 0.03622 0.7266 0.0
H1003 H 0.22532 0.07155 0.71698 0.0
H1004 H 0.30592 0.12351 0.81504 0.0
H1005 H 0.33134 0.12286 0.87493 0.0
H1006 H 0.24277 0.09379 0.93314 0.0
H1007 H 0.21674 0.09388 0.87361 0.0
C1008 C 0.18972 0.18608 0.74164 0.0
C1009 C 0.16545 0.18095 0.76756 0.0
C1010 C 0.20317 0.16618 0.74124 0.0
C1011 C 0.193 0.14114 0.76708 0.0
C1012 C 0.16848 0.13545 0.79253 0.0
C1013 C 0.15451 0.15491 0.79246 0.0
C1014 C 0.20917 0.12194 0.76866 0.0
C1015 C 0.22634 0.12387 0.80115 0.0
C1016 C 0.20884 0.10301 0.73794 0.0
C1017 C 0.18843 0.09771 0.70453 0.0
C1018 C 0.15528 0.08588 0.70859 0.0
C1019 C 0.13602 0.08052 0.67699 0.0
C1020 C 0.14959 0.08664 0.64115 0.0
C1021 C 0.18246 0.09811 0.63685 0.0
C1022 C 0.20185 0.10359 0.66839 0.0
C1023 C 0.25467 0.02141 0.80831 0.0
C1024 C 0.27251 0.01741 0.77948 0.0
C1025 C 0.24602 0.04482 0.80615 0.0
C1026 C 0.25621 0.06616 0.77607 0.0
C1027 C 0.27562 0.06363 0.74799 0.0
C1028 C 0.28375 0.03926 0.74965 0.0
C1029 C 0.24347 0.08855 0.77279 0.0
C1030 C 0.22655 0.08704 0.74006 0.0
C1031 C 0.24327 0.10722 0.80383 0.0
C1032 C 0.25947 0.10884 0.83987 0.0
C1033 C 0.29193 0.11709 0.84064 0.0
C1034 C 0.3064 0.11673 0.87451 0.0
C1035 C 0.28869 0.10833 0.90781 0.0
C1036 C 0.25649 0.10039 0.90736 0.0
C1037 C 0.2419 0.1007 0.87359 0.0
H1038 H 0.29992 0.10797 0.93397 0.0
H1039 H 0.13463 0.08239 0.61669 0.0
H1040 H 0.03051 0.84323 0.72122 0.0
H1041 H 0.97249 0.82138 0.71937 0.0
H1042 H 0.97592 0.86148 0.82919 0.0
H1043 H 0.03407 0.88481 0.83065 0.0
H1044 H 0.93291 0.79655 0.82466 0.0
H1045 H 0.95819 0.89164 0.75911 0.0
H1046 H 0.98267 0.93372 0.71101 0.0
H1047 H 0.93163 0.86373 0.6245 0.0
H1048 H 0.90728 0.82107 0.67207 0.0
H1049 H 0.7747 0.7663 0.84223 0.0
H1050 H 0.8318 0.78622 0.83851 0.0
H1051 H 0.8212 0.75381 0.72324 0.0
H1052 H 0.76341 0.73547 0.72642 0.0
H1053 H 0.86825 0.81366 0.72879 0.0
H1054 H 0.84219 0.7182 0.80066 0.0
H1055 H 0.81584 0.68081 0.85309 0.0
H1056 H 0.86818 0.75741 0.93238 0.0
H1057 H 0.89463 0.79524 0.88043 0.0
C1058 C 0.01919 0.84832 0.74454 0.0
C1059 C 0.03714 0.86561 0.77628 0.0
C1060 C 0.98592 0.8356 0.74349 0.0
C1061 C 0.96994 0.83968 0.77422 0.0
C1062 C 0.98782 0.85789 0.80528 0.0
C1063 C 0.02107 0.87102 0.80613 0.0
C1064 C 0.93442 0.82285 0.77529 0.0
C1065 C 0.91877 0.80045 0.80382 0.0
C1066 C 0.91603 0.82767 0.74788 0.0
C1067 C 0.93124 0.85307 0.7191 0.0
C1068 C 0.95253 0.88512 0.72978 0.0
C1069 C 0.96631 0.90911 0.70263 0.0
C1070 C 0.9588 0.90139 0.66471 0.0
C1071 C 0.9375 0.86966 0.65387 0.0
C1072 C 0.9237 0.84556 0.68092 0.0
C1073 C 0.78425 0.76222 0.81648 0.0
C1074 C 0.76457 0.74917 0.78466 0.0
C1075 C 0.81709 0.77372 0.81435 0.0
C1076 C 0.83101 0.77123 0.78074 0.0
C1077 C 0.81101 0.75592 0.74955 0.0
C1078 C 0.77792 0.74487 0.75152 0.0
C1079 C 0.86659 0.78684 0.77786 0.0
C1080 C 0.88234 0.80926 0.74917 0.0
C1081 C 0.88521 0.78249 0.80554 0.0
C1082 C 0.87033 0.75947 0.8367 0.0
C1083 C 0.84808 0.727 0.82929 0.0
C1084 C 0.83312 0.70576 0.85891 0.0
C1085 C 0.84033 0.7167 0.89602 0.0
C1086 C 0.86266 0.7489 0.90364 0.0
C1087 C 0.87772 0.77023 0.87412 0.0
H1088 H 0.82857 0.70016 0.9188 0.0
H1089 H 0.96941 0.92001 0.64372 0.0
H1090 H 1.01202 0.25 0.83422 0.0
H1091 H 0.97171 0.19325 0.82821 0.0
H1092 H 0.95267 0.20877 0.7143 0.0
H1093 H 0.99385 0.26602 0.71999 0.0
H1094 H 0.89633 0.16011 0.77683 0.0
H1095 H 0.99255 0.18436 0.70417 0.0
H1096 H 0.05104 0.20948 0.69515 0.0
H1097 H 0.05814 0.16184 0.79321 0.0
H1098 H 0.99969 0.13697 0.8033 0.0
H1099 H 0.82129 0.9969 0.72481 0.0
H1100 H 0.85487 0.0552 0.7214 0.0
H1101 H 0.91547 0.05339 0.80945 0.0
H1102 H 0.88271 0.99476 0.812 0.0
H1103 H 0.95054 0.09607 0.75583 0.0
H1104 H 0.8593 0.0721 0.83078 0.0
H1105 H 0.80157 0.04531 0.84564 0.0
H1106 H 0.78573 0.09164 0.75198 0.0
H1107 H 0.84336 0.11832 0.73623 0.0
C1108 C 0.99824 0.24162 0.80842 0.0
C1109 C 1.00593 0.2622 0.77753 0.0
C1110 C 0.97548 0.2092 0.80495 0.0
C1111 C 0.95979 0.19696 0.77069 0.0
C1112 C 0.96478 0.21802 0.74093 0.0
C1113 C 0.98794 0.25068 0.74431 0.0
C1114 C 0.94112 0.16182 0.76545 0.0
C1115 C 0.90795 0.14605 0.77125 0.0
C1116 C 0.95672 0.14366 0.76013 0.0
C1117 C 0.99187 0.15919 0.75474 0.0
C1118 C 1.00666 0.17968 0.72416 0.0
C1119 C 0.03975 0.19376 0.71878 0.0
C1120 C 0.0582 0.18719 0.74359 0.0
C1121 C 0.04373 0.16684 0.77405 0.0
C1122 C 1.01065 0.15278 0.77962 0.0
C1123 C 0.84223 1.00875 0.74279 0.0
C1124 C 0.84934 0.99116 0.76868 0.0
C1125 C 0.86117 0.04212 0.7411 0.0
C1126 C 0.88733 0.05859 0.76555 0.0
C1127 C 0.8953 0.04109 0.79042 0.0
C1128 C 0.87643 1.00765 0.79202 0.0
C1129 C 0.90545 0.09416 0.76626 0.0
C1130 C 0.93867 0.11002 0.76044 0.0
C1131 C 0.88998 0.11238 0.77234 0.0
C1132 C 0.8555 0.09691 0.7821 0.0
C1133 C 0.84345 0.0764 0.81322 0.0
C1134 C 0.81077 0.06125 0.82182 0.0
C1135 C 0.78997 0.0667 0.7997 0.0
C1136 C 0.80186 0.08741 0.76905 0.0
C1137 C 0.83453 0.10256 0.76028 0.0
H1138 H 0.76466 0.05493 0.80637 0.0
H1139 H 0.08362 0.1976 0.73898 0.0
loop_
_geom_bond_atom_site_label_1
_geom_bond_atom_site_label_2
_geom_bond_distance
_geom_bond_site_symmetry_2
_ccdc_geom_bond_type
C0 Eu1 2.835 . S
C0 C2 1.500 1_545 S
C0 O20 1.257 . S
C0 O21 1.260 . S
Eu1 C0 2.835 . S
Eu1 O20 2.473 . S
Eu1 O21 2.480 . S
Eu1 O22 2.430 . S
Eu1 O23 2.670 . S
Eu1 O24 2.394 . S
Eu1 O29 2.355 . S
Eu1 O31 2.374 . S
C2 C0 1.500 1_565 S
C2 C3 1.377 . S
C2 C7 1.377 . S
C3 C2 1.377 . S
C3 C4 1.395 . S
C3 H32 0.931 . S
C4 C3 1.395 . S
C4 C5 1.383 . S
C4 H33 0.931 . S
C5 C4 1.383 . S
C5 C6 1.394 . S
C6 C5 1.394 . S
C6 C7 1.378 . S
C6 H34 0.931 . S
C7 C2 1.377 . S
C7 C6 1.378 . S
C7 H35 0.931 . S
C8 O22 1.259 . S
C8 O23 1.270 . S
C9 O24 1.251 . S
C9 O25 1.251 . S
C10 Eu11 2.835 . S
C10 C12 1.500 . S
C10 O26 1.257 . S
C10 O27 1.260 . S
Eu11 C10 2.835 . S
Eu11 O23 2.355 . S
Eu11 O25 2.374 . S
Eu11 O26 2.473 . S
Eu11 O27 2.480 . S
Eu11 O28 2.430 . S
Eu11 O29 2.670 . S
Eu11 O30 2.394 . S
C12 C10 1.500 . S
C12 C13 1.377 . S
C12 C17 1.377 . S
C13 C12 1.377 . S
C13 C14 1.395 . S
C13 H36 0.931 . S
C14 C13 1.395 . S
C14 C15 1.383 . S
C14 H37 0.931 . S
C15 C14 1.383 . S
C15 C16 1.394 . S
C16 C15 1.394 . S
C16 C17 1.378 . S
C16 H38 0.931 . S
C17 C12 1.377 . S
C17 C16 1.378 . S
C17 H39 0.931 . S
C18 O28 1.259 . S
C18 O29 1.270 . S
C19 O30 1.251 . S
C19 O31 1.251 . S
O20 C0 1.257 . S
O20 Eu1 2.473 . S
O21 C0 1.260 . S
O21 Eu1 2.480 . S
O22 Eu1 2.430 . S
O22 C8 1.259 . S
O23 Eu1 2.670 . S
O23 C8 1.270 . S
O23 Eu11 2.355 . S
O24 Eu1 2.394 . S
O24 C9 1.251 . S
O25 C9 1.251 . S
O25 Eu11 2.374 . S
O26 C10 1.257 . S
O26 Eu11 2.473 . S
O27 C10 1.260 . S
O27 Eu11 2.480 . S
O28 Eu11 2.430 . S
O28 C18 1.259 . S
O29 Eu1 2.355 . S
O29 Eu11 2.670 . S
O29 C18 1.270 . S
O30 Eu11 2.394 . S
O30 C19 1.251 . S
O31 Eu1 2.374 . S
O31 C19 1.251 . S
H32 C3 0.931 . S
H33 C4 0.931 . S
H34 C6 0.931 . S
H35 C7 0.931 . S
H36 C13 0.931 . S
H37 C14 0.931 . S
H38 C16 0.931 . S
H39 C17 0.931 . S
C40 Eu41 2.835 . S
C40 C42 1.500 . S
C40 O60 1.257 . S
C40 O61 1.260 . S
Eu41 C40 2.835 . S
Eu41 O60 2.473 . S
Eu41 O61 2.480 . S
Eu41 O62 2.430 . S
Eu41 O63 2.670 . S
Eu41 O64 2.394 . S
Eu41 O69 2.355 . S
Eu41 O71 2.374 . S
C42 C40 1.500 . S
C42 C43 1.377 . S
C42 C47 1.377 . S
C43 C42 1.377 . S
C43 C44 1.395 . S
C43 H72 0.931 . S
C44 C43 1.395 . S
C44 C45 1.383 . S
C44 H73 0.931 . S
C45 C44 1.383 . S
C45 C46 1.394 . S
C46 C45 1.394 . S
C46 C47 1.378 . S
C46 H74 0.931 . S
C47 C42 1.377 . S
C47 C46 1.378 . S
C47 H75 0.931 . S
C48 O62 1.259 . S
C48 O63 1.270 . S
C49 O64 1.251 . S
C49 O65 1.251 . S
C50 Eu51 2.835 . S
C50 C52 1.500 . S
C50 O66 1.257 . S
C50 O67 1.260 . S
Eu51 C50 2.835 . S
Eu51 O63 2.355 . S
Eu51 O65 2.374 . S
Eu51 O66 2.473 . S
Eu51 O67 2.480 . S
Eu51 O68 2.430 . S
Eu51 O69 2.670 . S
Eu51 O70 2.394 . S
C52 C50 1.500 . S
C52 C53 1.377 . S
C52 C57 1.377 . S
C53 C52 1.377 . S
C53 C54 1.395 . S
C53 H76 0.931 . S
C54 C53 1.395 . S
C54 C55 1.383 . S
C54 H77 0.931 . S
C55 C54 1.383 . S
C55 C56 1.394 . S
C56 C55 1.394 . S
C56 C57 1.378 . S
C56 H78 0.931 . S
C57 C52 1.377 . S
C57 C56 1.378 . S
C57 H79 0.931 . S
C58 O68 1.259 . S
C58 O69 1.270 . S
C59 O70 1.251 . S
C59 O71 1.251 . S
O60 C40 1.257 . S
O60 Eu41 2.473 . S
O61 C40 1.260 . S
O61 Eu41 2.480 . S
O62 Eu41 2.430 . S
O62 C48 1.259 . S
O63 Eu41 2.670 . S
O63 C48 1.270 . S
O63 Eu51 2.355 . S
O64 Eu41 2.394 . S
O64 C49 1.251 . S
O65 C49 1.251 . S
O65 Eu51 2.374 . S
O66 C50 1.257 . S
O66 Eu51 2.473 . S
O67 C50 1.260 . S
O67 Eu51 2.480 . S
O68 Eu51 2.430 . S
O68 C58 1.259 . S
O69 Eu41 2.355 . S
O69 Eu51 2.670 . S
O69 C58 1.270 . S
O70 Eu51 2.394 . S
O70 C59 1.251 . S
O71 Eu41 2.374 . S
O71 C59 1.251 . S
H72 C43 0.931 . S
H73 C44 0.931 . S
H74 C46 0.931 . S
H75 C47 0.931 . S
H76 C53 0.931 . S
H77 C54 0.931 . S
H78 C56 0.931 . S
H79 C57 0.931 . S
C80 Eu81 2.835 . S
C80 C82 1.500 1_655 S
C80 O100 1.257 . S
C80 O101 1.260 . S
Eu81 C80 2.835 . S
Eu81 O100 2.473 . S
Eu81 O101 2.480 . S
Eu81 O102 2.430 . S
Eu81 O103 2.670 . S
Eu81 O104 2.394 . S
Eu81 O109 2.355 . S
Eu81 O111 2.374 . S
C82 C80 1.500 1_455 S
C82 C83 1.377 . S
C82 C87 1.377 . S
C83 C82 1.377 . S
C83 C84 1.395 . S
C83 H112 0.931 . S
C84 C83 1.395 . S
C84 C85 1.383 . S
C84 H113 0.931 . S
C85 C84 1.383 . S
C85 C86 1.394 . S
C86 C85 1.394 . S
C86 C87 1.378 . S
C86 H114 0.931 . S
C87 C82 1.377 . S
C87 C86 1.378 . S
C87 H115 0.931 . S
C88 O102 1.259 . S
C88 O103 1.270 . S
C89 O104 1.251 . S
C89 O105 1.251 . S
C90 Eu91 2.835 . S
C90 C92 1.500 . S
C90 O106 1.257 . S
C90 O107 1.260 . S
Eu91 C90 2.835 . S
Eu91 O103 2.355 . S
Eu91 O105 2.374 . S
Eu91 O106 2.473 . S
Eu91 O107 2.480 . S
Eu91 O108 2.430 . S
Eu91 O109 2.670 . S
Eu91 O110 2.394 . S
C92 C90 1.500 . S
C92 C93 1.377 . S
C92 C97 1.377 . S
C93 C92 1.377 . S
C93 C94 1.395 . S
C93 H116 0.931 . S
C94 C93 1.395 . S
C94 C95 1.383 . S
C94 H117 0.931 . S
C95 C94 1.383 . S
C95 C96 1.394 . S
C96 C95 1.394 . S
C96 C97 1.378 . S
C96 H118 0.931 . S
C97 C92 1.377 . S
C97 C96 1.378 . S
C97 H119 0.931 . S
C98 O108 1.259 . S
C98 O109 1.270 . S
C99 O110 1.251 . S
C99 O111 1.251 . S
O100 C80 1.257 . S
O100 Eu81 2.473 . S
O101 C80 1.260 . S
O101 Eu81 2.480 . S
O102 Eu81 2.430 . S
O102 C88 1.259 . S
O103 Eu81 2.670 . S
O103 C88 1.270 . S
O103 Eu91 2.355 . S
O104 Eu81 2.394 . S
O104 C89 1.251 . S
O105 C89 1.251 . S
O105 Eu91 2.374 . S
O106 C90 1.257 . S
O106 Eu91 2.473 . S
O107 C90 1.260 . S
O107 Eu91 2.480 . S
O108 Eu91 2.430 . S
O108 C98 1.259 . S
O109 Eu81 2.355 . S
O109 Eu91 2.670 . S
O109 C98 1.270 . S
O110 Eu91 2.394 . S
O110 C99 1.251 . S
O111 Eu81 2.374 . S
O111 C99 1.251 . S
H112 C83 0.931 . S
H113 C84 0.931 . S
H114 C86 0.931 . S
H115 C87 0.931 . S
H116 C93 0.931 . S
H117 C94 0.931 . S
H118 C96 0.931 . S
H119 C97 0.931 . S
C120 Eu121 2.835 . S
C120 C122 1.500 . S
C120 O140 1.257 . S
C120 O141 1.260 . S
Eu121 C120 2.835 . S
Eu121 O140 2.473 . S
Eu121 O141 2.480 . S
Eu121 O142 2.430 . S
Eu121 O143 2.670 . S
Eu121 O144 2.394 . S
Eu121 O149 2.355 . S
Eu121 O151 2.374 . S
C122 C120 1.500 . S
C122 C123 1.377 . S
C122 C127 1.377 . S
C123 C122 1.377 . S
C123 C124 1.395 . S
C123 H152 0.931 . S
C124 C123 1.395 . S
C124 C125 1.383 . S
C124 H153 0.931 . S
C125 C124 1.383 . S
C125 C126 1.394 . S
C126 C125 1.394 . S
C126 C127 1.378 . S
C126 H154 0.931 . S
C127 C122 1.377 . S
C127 C126 1.378 . S
C127 H155 0.931 . S
C128 O142 1.259 . S
C128 O143 1.270 . S
C129 O144 1.251 . S
C129 O145 1.251 . S
C130 Eu131 2.835 . S
C130 C132 1.500 . S
C130 O146 1.257 . S
C130 O147 1.260 . S
Eu131 C130 2.835 . S
Eu131 O143 2.355 . S
Eu131 O145 2.374 . S
Eu131 O146 2.473 . S
Eu131 O147 2.480 . S
Eu131 O148 2.430 . S
Eu131 O149 2.670 . S
Eu131 O150 2.394 . S
C132 C130 1.500 . S
C132 C133 1.377 . S
C132 C137 1.377 . S
C133 C132 1.377 . S
C133 C134 1.395 . S
C133 H156 0.931 . S
C134 C133 1.395 . S
C134 C135 1.383 . S
C134 H157 0.931 . S
C135 C134 1.383 . S
C135 C136 1.394 . S
C136 C135 1.394 . S
C136 C137 1.378 . S
C136 H158 0.931 . S
C137 C132 1.377 . S
C137 C136 1.378 . S
C137 H159 0.931 . S
C138 O148 1.259 . S
C138 O149 1.270 . S
C139 O150 1.251 . S
C139 O151 1.251 . S
O140 C120 1.257 . S
O140 Eu121 2.473 . S
O141 C120 1.260 . S
O141 Eu121 2.480 . S
O142 Eu121 2.430 . S
O142 C128 1.259 . S
O143 Eu121 2.670 . S
O143 C128 1.270 . S
O143 Eu131 2.355 . S
O144 Eu121 2.394 . S
O144 C129 1.251 . S
O145 C129 1.251 . S
O145 Eu131 2.374 . S
O146 C130 1.257 . S
O146 Eu131 2.473 . S
O147 C130 1.260 . S
O147 Eu131 2.480 . S
O148 Eu131 2.430 . S
O148 C138 1.259 . S
O149 Eu121 2.355 . S
O149 Eu131 2.670 . S
O149 C138 1.270 . S
O150 Eu131 2.394 . S
O150 C139 1.251 . S
O151 Eu121 2.374 . S
O151 C139 1.251 . S
H152 C123 0.931 . S
H153 C124 0.931 . S
H154 C126 0.931 . S
H155 C127 0.931 . S
H156 C133 0.931 . S
H157 C134 0.931 . S
H158 C136 0.931 . S
H159 C137 0.931 . S
C160 Eu161 2.835 . S
C160 C162 1.500 . S
C160 O180 1.257 . S
C160 O181 1.260 . S
Eu161 C160 2.835 . S
Eu161 O180 2.473 . S
Eu161 O181 2.480 . S
Eu161 O182 2.430 . S
Eu161 O183 2.670 . S
Eu161 O184 2.394 . S
Eu161 O189 2.355 . S
Eu161 O191 2.374 . S
C162 C160 1.500 . S
C162 C163 1.377 . S
C162 C167 1.377 . S
C163 C162 1.377 . S
C163 C164 1.395 . S
C163 H192 0.931 . S
C164 C163 1.395 . S
C164 C165 1.383 . S
C164 H193 0.931 . S
C165 C164 1.383 . S
C165 C166 1.394 . S
C166 C165 1.394 . S
C166 C167 1.378 . S
C166 H194 0.931 . S
C167 C162 1.377 . S
C167 C166 1.378 . S
C167 H195 0.931 . S
C168 O182 1.259 . S
C168 O183 1.270 . S
C169 O184 1.251 . S
C169 O185 1.251 . S
C170 Eu171 2.835 . S
C170 C172 1.500 . S
C170 O186 1.257 . S
C170 O187 1.260 . S
Eu171 C170 2.835 . S
Eu171 O183 2.355 . S
Eu171 O185 2.374 . S
Eu171 O186 2.473 . S
Eu171 O187 2.480 . S
Eu171 O188 2.430 . S
Eu171 O189 2.670 . S
Eu171 O190 2.394 . S
C172 C170 1.500 . S
C172 C173 1.377 . S
C172 C177 1.377 . S
C173 C172 1.377 . S
C173 C174 1.395 . S
C173 H196 0.931 . S
C174 C173 1.395 . S
C174 C175 1.383 . S
C174 H197 0.931 . S
C175 C174 1.383 . S
C175 C176 1.394 . S
C176 C175 1.394 . S
C176 C177 1.378 . S
C176 H198 0.931 . S
C177 C172 1.377 . S
C177 C176 1.378 . S
C177 H199 0.931 . S
C178 O188 1.259 . S
C178 O189 1.270 . S
C179 O190 1.251 . S
C179 O191 1.251 . S
O180 C160 1.257 . S
O180 Eu161 2.473 . S
O181 C160 1.260 . S
O181 Eu161 2.480 . S
O182 Eu161 2.430 . S
O182 C168 1.259 . S
O183 Eu161 2.670 . S
O183 C168 1.270 . S
O183 Eu171 2.355 . S
O184 Eu161 2.394 . S
O184 C169 1.251 . S
O185 C169 1.251 . S
O185 Eu171 2.374 . S
O186 C170 1.257 . S
O186 Eu171 2.473 . S
O187 C170 1.260 . S
O187 Eu171 2.480 . S
O188 Eu171 2.430 . S
O188 C178 1.259 . S
O189 Eu161 2.355 . S
O189 Eu171 2.670 . S
O189 C178 1.270 . S
O190 Eu171 2.394 . S
O190 C179 1.251 . S
O191 Eu161 2.374 . S
O191 C179 1.251 . S
H192 C163 0.931 . S
H193 C164 0.931 . S
H194 C166 0.931 . S
H195 C167 0.931 . S
H196 C173 0.931 . S
H197 C174 0.931 . S
H198 C176 0.931 . S
H199 C177 0.931 . S
C200 Eu201 2.835 . S
C200 C202 1.500 . S
C200 O220 1.257 . S
C200 O221 1.260 . S
Eu201 C200 2.835 . S
Eu201 O220 2.473 . S
Eu201 O221 2.480 . S
Eu201 O222 2.430 . S
Eu201 O223 2.670 . S
Eu201 O224 2.394 . S
Eu201 O229 2.355 . S
Eu201 O231 2.374 . S
C202 C200 1.500 . S
C202 C203 1.377 . S
C202 C207 1.377 . S
C203 C202 1.377 . S
C203 C204 1.395 . S
C203 H232 0.931 . S
C204 C203 1.395 . S
C204 C205 1.383 . S
C204 H233 0.931 . S
C205 C204 1.383 . S
C205 C206 1.394 . S
C206 C205 1.394 . S
C206 C207 1.378 . S
C206 H234 0.931 . S
C207 C202 1.377 . S
C207 C206 1.378 . S
C207 H235 0.931 . S
C208 O222 1.259 . S
C208 O223 1.270 . S
C209 O224 1.251 . S
C209 O225 1.251 . S
C210 Eu211 2.835 . S
C210 C212 1.500 . S
C210 O226 1.257 . S
C210 O227 1.260 . S
Eu211 C210 2.835 . S
Eu211 O223 2.355 . S
Eu211 O225 2.374 . S
Eu211 O226 2.473 . S
Eu211 O227 2.480 . S
Eu211 O228 2.430 . S
Eu211 O229 2.670 . S
Eu211 O230 2.394 . S
C212 C210 1.500 . S
C212 C213 1.377 . S
C212 C217 1.377 . S
C213 C212 1.377 . S
C213 C214 1.395 . S
C213 H236 0.931 . S
C214 C213 1.395 . S
C214 C215 1.383 . S
C214 H237 0.931 . S
C215 C214 1.383 . S
C215 C216 1.394 . S
C216 C215 1.394 . S
C216 C217 1.378 . S
C216 H238 0.931 . S
C217 C212 1.377 . S
C217 C216 1.378 . S
C217 H239 0.931 . S
C218 O228 1.259 . S
C218 O229 1.270 . S
C219 O230 1.251 . S
C219 O231 1.251 . S
O220 C200 1.257 . S
O220 Eu201 2.473 . S
O221 C200 1.260 . S
O221 Eu201 2.480 . S
O222 Eu201 2.430 . S
O222 C208 1.259 . S
O223 Eu201 2.670 . S
O223 C208 1.270 . S
O223 Eu211 2.355 . S
O224 Eu201 2.394 . S
O224 C209 1.251 . S
O225 C209 1.251 . S
O225 Eu211 2.374 . S
O226 C210 1.257 . S
O226 Eu211 2.473 . S
O227 C210 1.260 . S
O227 Eu211 2.480 . S
O228 Eu211 2.430 . S
O228 C218 1.259 . S
O229 Eu201 2.355 . S
O229 Eu211 2.670 . S
O229 C218 1.270 . S
O230 Eu211 2.394 . S
O230 C219 1.251 . S
O231 Eu201 2.374 . S
O231 C219 1.251 . S
H232 C203 0.931 . S
H233 C204 0.931 . S
H234 C206 0.931 . S
H235 C207 0.931 . S
H236 C213 0.931 . S
H237 C214 0.931 . S
H238 C216 0.931 . S
H239 C217 0.931 . S
H240 C258 0.951 . S
H241 C260 0.951 . S
H242 C262 0.950 . S
H243 C263 0.950 . S
H244 C265 0.950 . S
H245 C268 0.950 . S
H246 C269 0.950 . S
H247 C271 0.950 . S
H248 C272 0.950 . S
H249 C273 0.951 . S
H250 C275 0.951 . S
H251 C277 0.950 . S
H252 C278 0.950 . S
H253 C280 0.950 . S
H254 C283 0.950 . S
H255 C284 0.950 . S
H256 C286 0.950 . S
H257 C287 0.950 . S
C258 H240 0.951 . S
C258 C259 1.366 . S
C258 C260 1.388 . S
C259 C258 1.366 . S
C259 C263 1.385 . S
C260 H241 0.951 . S
C260 C258 1.388 . S
C260 C261 1.366 . S
C261 C260 1.366 . S
C261 C262 1.414 . S
C261 C264 1.499 . S
C262 H242 0.950 . S
C262 C261 1.414 . S
C262 C263 1.374 . S
C263 H243 0.950 . S
C263 C259 1.385 . S
C263 C262 1.374 . S
C264 C261 1.499 . S
C264 C265 1.373 1_565 S
C264 C266 1.389 1_556 S
C265 H244 0.950 . S
C265 C264 1.373 1_545 S
C265 C281 1.377 . S
C266 C264 1.389 1_554 S
C266 C267 1.524 . S
C266 C280 1.377 . S
C267 C266 1.524 . S
C267 C268 1.397 1_554 S
C267 C272 1.363 . S
C268 H245 0.950 . S
C268 C267 1.397 1_556 S
C268 C269 1.334 . S
C269 H246 0.950 . S
C269 C268 1.334 . S
C269 C270 1.287 1_556 S
C270 C269 1.287 1_554 S
C270 C271 1.524 . S
C270 H289 0.913 . S
C271 H247 0.950 . S
C271 C270 1.524 . S
C271 C272 1.415 . S
C272 H248 0.950 . S
C272 C267 1.363 . S
C272 C271 1.415 . S
C273 H249 0.951 . S
C273 C274 1.366 . S
C273 C275 1.388 . S
C274 C273 1.366 . S
C274 C278 1.385 . S
C275 H250 0.951 . S
C275 C273 1.388 . S
C275 C276 1.366 . S
C276 C275 1.366 . S
C276 C277 1.414 . S
C276 C279 1.499 . S
C277 H251 0.950 . S
C277 C276 1.414 . S
C277 C278 1.374 . S
C278 H252 0.950 . S
C278 C274 1.385 . S
C278 C277 1.374 . S
C279 C276 1.499 . S
C279 C280 1.373 1_545 S
C279 C281 1.389 1_554 S
C280 H253 0.950 . S
C280 C266 1.377 . S
C280 C279 1.373 1_565 S
C281 C265 1.377 . S
C281 C279 1.389 1_556 S
C281 C282 1.524 . S
C282 C281 1.524 . S
C282 C283 1.397 1_556 S
C282 C287 1.363 . S
C283 H254 0.950 . S
C283 C282 1.397 1_554 S
C283 C284 1.334 . S
C284 H255 0.950 . S
C284 C283 1.334 . S
C284 C285 1.287 1_554 S
C285 C284 1.287 1_556 S
C285 C286 1.524 . S
C285 H288 0.999 . S
C286 H256 0.950 . S
C286 C285 1.524 . S
C286 C287 1.415 . S
C287 H257 0.950 . S
C287 C282 1.363 . S
C287 C286 1.415 . S
H288 C285 0.999 . S
H289 C270 0.913 . S
H290 C308 0.951 . S
H291 C310 0.951 . S
H292 C312 0.950 . S
H293 C313 0.950 . S
H294 C315 0.950 . S
H295 C318 0.950 . S
H296 C319 0.950 . S
H297 C321 0.950 . S
H298 C322 0.950 . S
H299 C323 0.951 . S
H300 C325 0.951 . S
H301 C327 0.950 . S
H302 C328 0.950 . S
H303 C330 0.950 . S
H304 C333 0.950 . S
H305 C334 0.950 . S
H306 C336 0.950 . S
H307 C337 0.950 . S
C308 H290 0.951 . S
C308 C309 1.366 . S
C308 C310 1.388 . S
C309 C308 1.366 . S
C309 C313 1.385 . S
C310 H291 0.951 . S
C310 C308 1.388 . S
C310 C311 1.366 . S
C311 C310 1.366 . S
C311 C312 1.414 . S
C311 C314 1.499 . S
C312 H292 0.950 . S
C312 C311 1.414 . S
C312 C313 1.374 . S
C313 H293 0.950 . S
C313 C309 1.385 . S
C313 C312 1.374 . S
C314 C311 1.499 . S
C314 C315 1.373 . S
C314 C316 1.389 . S
C315 H294 0.950 . S
C315 C314 1.373 . S
C315 C331 1.377 . S
C316 C314 1.389 . S
C316 C317 1.524 . S
C316 C330 1.377 . S
C317 C316 1.524 . S
C317 C318 1.397 . S
C317 C322 1.363 . S
C318 H295 0.950 . S
C318 C317 1.397 . S
C318 C319 1.334 . S
C319 H296 0.950 . S
C319 C318 1.334 . S
C319 C320 1.287 . S
C320 C319 1.287 . S
C320 C321 1.524 . S
C320 H339 0.913 . S
C321 H297 0.950 . S
C321 C320 1.524 . S
C321 C322 1.415 . S
C322 H298 0.950 . S
C322 C317 1.363 . S
C322 C321 1.415 . S
C323 H299 0.951 . S
C323 C324 1.366 . S
C323 C325 1.388 . S
C324 C323 1.366 . S
C324 C328 1.385 . S
C325 H300 0.951 . S
C325 C323 1.388 . S
C325 C326 1.366 . S
C326 C325 1.366 . S
C326 C327 1.414 . S
C326 C329 1.499 . S
C327 H301 0.950 . S
C327 C326 1.414 . S
C327 C328 1.374 . S
C328 H302 0.950 . S
C328 C324 1.385 . S
C328 C327 1.374 . S
C329 C326 1.499 . S
C329 C330 1.373 . S
C329 C331 1.389 . S
C330 H303 0.950 . S
C330 C316 1.377 . S
C330 C329 1.373 . S
C331 C315 1.377 . S
C331 C329 1.389 . S
C331 C332 1.524 . S
C332 C331 1.524 . S
C332 C333 1.397 . S
C332 C337 1.363 . S
C333 H304 0.950 . S
C333 C332 1.397 . S
C333 C334 1.334 . S
C334 H305 0.950 . S
C334 C333 1.334 . S
C334 C335 1.287 . S
C335 C334 1.287 . S
C335 C336 1.524 . S
C335 H338 0.999 . S
C336 H306 0.950 . S
C336 C335 1.524 . S
C336 C337 1.415 . S
C337 H307 0.950 . S
C337 C332 1.363 . S
C337 C336 1.415 . S
H338 C335 0.999 . S
H339 C320 0.913 . S
H340 C358 0.951 . S
H341 C360 0.951 . S
H342 C362 0.950 . S
H343 C363 0.950 . S
H344 C365 0.950 . S
H345 C368 0.950 . S
H346 C369 0.950 . S
H347 C371 0.950 . S
H348 C372 0.950 . S
H349 C373 0.951 . S
H350 C375 0.951 . S
H351 C377 0.950 . S
H352 C378 0.950 . S
H353 C380 0.950 . S
H354 C383 0.950 . S
H355 C384 0.950 . S
H356 C386 0.950 . S
H357 C387 0.950 . S
C358 H340 0.951 . S
C358 C359 1.366 . S
C358 C360 1.388 . S
C359 C358 1.366 . S
C359 C363 1.385 . S
C360 H341 0.951 . S
C360 C358 1.388 . S
C360 C361 1.366 . S
C361 C360 1.366 . S
C361 C362 1.414 . S
C361 C364 1.499 . S
C362 H342 0.950 . S
C362 C361 1.414 . S
C362 C363 1.374 . S
C363 H343 0.950 . S
C363 C359 1.385 . S
C363 C362 1.374 . S
C364 C361 1.499 . S
C364 C365 1.373 1_655 S
C364 C366 1.389 1_554 S
C365 H344 0.950 . S
C365 C364 1.373 1_455 S
C365 C381 1.377 . S
C366 C364 1.389 1_556 S
C366 C367 1.524 . S
C366 C380 1.377 . S
C367 C366 1.524 . S
C367 C368 1.397 1_556 S
C367 C372 1.363 . S
C368 H345 0.950 . S
C368 C367 1.397 1_554 S
C368 C369 1.334 . S
C369 H346 0.950 . S
C369 C368 1.334 . S
C369 C370 1.287 1_554 S
C370 C369 1.287 1_556 S
C370 C371 1.524 . S
C370 H389 0.913 . S
C371 H347 0.950 . S
C371 C370 1.524 . S
C371 C372 1.415 . S
C372 H348 0.950 . S
C372 C367 1.363 . S
C372 C371 1.415 . S
C373 H349 0.951 . S
C373 C374 1.366 . S
C373 C375 1.388 . S
C374 C373 1.366 . S
C374 C378 1.385 . S
C375 H350 0.951 . S
C375 C373 1.388 . S
C375 C376 1.366 . S
C376 C375 1.366 . S
C376 C377 1.414 . S
C376 C379 1.499 . S
C377 H351 0.950 . S
C377 C376 1.414 . S
C377 C378 1.374 . S
C378 H352 0.950 . S
C378 C374 1.385 . S
C378 C377 1.374 . S
C379 C376 1.499 . S
C379 C380 1.373 1_455 S
C379 C381 1.389 1_556 S
C380 H353 0.950 . S
C380 C366 1.377 . S
C380 C379 1.373 1_655 S
C381 C365 1.377 . S
C381 C379 1.389 1_554 S
C381 C382 1.524 . S
C382 C381 1.524 . S
C382 C383 1.397 1_554 S
C382 C387 1.363 . S
C383 H354 0.950 . S
C383 C382 1.397 1_556 S
C383 C384 1.334 . S
C384 H355 0.950 . S
C384 C383 1.334 . S
C384 C385 1.287 1_556 S
C385 C384 1.287 1_554 S
C385 C386 1.524 . S
C385 H388 0.999 . S
C386 H356 0.950 . S
C386 C385 1.524 . S
C386 C387 1.415 . S
C387 H357 0.950 . S
C387 C382 1.363 . S
C387 C386 1.415 . S
H388 C385 0.999 . S
H389 C370 0.913 . S
H390 C408 0.951 . S
H391 C410 0.951 . S
H392 C412 0.950 . S
H393 C413 0.950 . S
H394 C415 0.950 . S
H395 C418 0.950 1_545 S
H396 C419 0.950 . S
H397 C421 0.950 . S
H398 C422 0.950 . S
H399 C423 0.951 . S
H400 C425 0.951 . S
H401 C427 0.950 . S
H402 C428 0.950 . S
H403 C430 0.950 . S
H404 C433 0.977 . S
H405 C434 0.950 . S
H406 C436 0.950 . S
H407 C437 0.950 . S
C408 H390 0.951 . S
C408 C409 1.366 . S
C408 C410 1.388 . S
C409 C408 1.366 . S
C409 C413 1.385 . S
C410 H391 0.951 . S
C410 C408 1.388 . S
C410 C411 1.366 . S
C411 C410 1.366 . S
C411 C412 1.414 . S
C411 C414 1.499 . S
C412 H392 0.950 . S
C412 C411 1.414 . S
C412 C413 1.374 . S
C413 H393 0.950 . S
C413 C409 1.385 . S
C413 C412 1.374 . S
C414 C411 1.499 . S
C414 C415 1.373 . S
C414 C416 1.389 1_545 S
C415 H394 0.950 . S
C415 C414 1.373 . S
C415 C431 1.377 . S
C416 C414 1.389 1_565 S
C416 C417 1.524 . S
C416 C430 1.377 . S
C417 C416 1.524 . S
C417 C418 1.397 . S
C417 C422 1.363 . S
C418 H395 0.950 1_565 S
C418 C417 1.397 . S
C418 C419 1.334 . S
C419 H396 0.950 . S
C419 C418 1.334 . S
C419 C420 1.287 . S
C420 C419 1.287 . S
C420 C421 1.524 . S
C420 H439 0.913 . S
C421 H397 0.950 . S
C421 C420 1.524 . S
C421 C422 1.415 . S
C422 H398 0.950 . S
C422 C417 1.363 . S
C422 C421 1.415 . S
C423 H399 0.951 . S
C423 C424 1.366 . S
C423 C425 1.388 . S
C424 C423 1.366 . S
C424 C428 1.385 . S
C425 H400 0.951 . S
C425 C423 1.388 . S
C425 C426 1.366 . S
C426 C425 1.366 . S
C426 C427 1.414 . S
C426 C429 1.499 . S
C427 H401 0.950 . S
C427 C426 1.414 . S
C427 C428 1.374 . S
C428 H402 0.950 . S
C428 C424 1.385 . S
C428 C427 1.374 . S
C429 C426 1.499 . S
C429 C430 1.373 . S
C429 C431 1.389 1_565 S
C430 H403 0.950 . S
C430 C416 1.377 . S
C430 C429 1.373 . S
C431 C415 1.377 . S
C431 C429 1.389 1_545 S
C431 C432 1.524 . S
C432 C431 1.524 . S
C432 C433 1.397 . S
C432 C437 1.363 . S
C433 H404 0.977 . S
C433 C432 1.397 . S
C433 C434 1.334 . S
C434 H405 0.950 . S
C434 C433 1.334 . S
C434 C435 1.287 . S
C435 C434 1.287 . S
C435 C436 1.524 . S
C435 H438 0.999 . S
C436 H406 0.950 . S
C436 C435 1.524 . S
C436 C437 1.415 . S
C437 H407 0.950 . S
C437 C432 1.363 . S
C437 C436 1.415 . S
H438 C435 0.999 . S
H439 C420 0.913 . S
H440 C458 0.951 . S
H441 C460 0.951 . S
H442 C462 0.950 . S
H443 C463 0.950 . S
H444 C465 0.950 . S
H445 C468 0.953 . S
H446 C469 0.950 1_556 S
H447 C471 0.950 . S
H448 C472 0.950 . S
H449 C473 0.951 . S
H450 C475 0.951 . S
H451 C477 0.950 . S
H452 C478 0.950 . S
H453 C480 0.950 . S
H454 C483 0.953 . S
H455 C484 0.950 1_554 S
H456 C486 0.950 . S
H457 C487 0.950 . S
C458 H440 0.951 . S
C458 C459 1.366 . S
C458 C460 1.388 . S
C459 C458 1.366 . S
C459 C463 1.385 . S
C460 H441 0.951 . S
C460 C458 1.388 . S
C460 C461 1.366 . S
C461 C460 1.366 . S
C461 C462 1.414 . S
C461 C464 1.499 . S
C462 H442 0.950 . S
C462 C461 1.414 . S
C462 C463 1.374 . S
C463 H443 0.950 . S
C463 C459 1.385 . S
C463 C462 1.374 . S
C464 C461 1.499 . S
C464 C465 1.373 . S
C464 C466 1.389 1_556 S
C465 H444 0.950 . S
C465 C464 1.373 . S
C465 C481 1.377 . S
C466 C464 1.389 1_554 S
C466 C467 1.524 . S
C466 C480 1.377 . S
C467 C466 1.524 . S
C467 C468 1.395 1_554 S
C467 C472 1.363 . S
C468 H445 0.953 . S
C468 C467 1.395 1_556 S
C468 C469 1.333 1_556 S
C469 H446 0.950 1_554 S
C469 C468 1.333 1_554 S
C469 C470 1.287 . S
C470 C469 1.287 . S
C470 C471 1.524 . S
C470 H489 0.913 . S
C471 H447 0.950 . S
C471 C470 1.524 . S
C471 C472 1.415 . S
C472 H448 0.950 . S
C472 C467 1.363 . S
C472 C471 1.415 . S
C473 H449 0.951 . S
C473 C474 1.366 . S
C473 C475 1.388 . S
C474 C473 1.366 . S
C474 C478 1.385 . S
C475 H450 0.951 . S
C475 C473 1.388 . S
C475 C476 1.366 . S
C476 C475 1.366 . S
C476 C477 1.414 . S
C476 C479 1.499 . S
C477 H451 0.950 . S
C477 C476 1.414 . S
C477 C478 1.374 . S
C478 H452 0.950 . S
C478 C474 1.385 . S
C478 C477 1.374 . S
C479 C476 1.499 . S
C479 C480 1.373 . S
C479 C481 1.389 1_554 S
C480 H453 0.950 . S
C480 C466 1.377 . S
C480 C479 1.373 . S
C481 C465 1.377 . S
C481 C479 1.389 1_556 S
C481 C482 1.524 . S
C482 C481 1.524 . S
C482 C483 1.395 1_556 S
C482 C487 1.363 . S
C483 H454 0.953 . S
C483 C482 1.395 1_554 S
C483 C484 1.333 1_554 S
C484 H455 0.950 1_556 S
C484 C483 1.333 1_556 S
C484 C485 1.287 . S
C485 C484 1.287 . S
C485 C486 1.524 . S
C485 H488 0.999 . S
C486 H456 0.950 . S
C486 C485 1.524 . S
C486 C487 1.415 . S
C487 H457 0.950 . S
C487 C482 1.363 . S
C487 C486 1.415 . S
H488 C485 0.999 . S
H489 C470 0.913 . S
H490 C508 0.951 . S
H491 C510 0.951 . S
H492 C512 0.950 . S
H493 C513 0.950 . S
H494 C515 0.950 . S
H495 C518 0.950 1_655 S
H496 C519 0.950 . S
H497 C521 0.950 . S
H498 C522 0.950 . S
H499 C523 0.951 . S
H500 C525 0.951 . S
H501 C527 0.950 . S
H502 C528 0.950 . S
H503 C530 0.950 . S
H504 C533 0.938 1_455 S
H505 C534 0.950 . S
H506 C536 0.950 . S
H507 C537 0.950 . S
C508 H490 0.951 . S
C508 C509 1.366 . S
C508 C510 1.388 . S
C509 C508 1.366 . S
C509 C513 1.385 . S
C510 H491 0.951 . S
C510 C508 1.388 . S
C510 C511 1.366 . S
C511 C510 1.366 . S
C511 C512 1.414 . S
C511 C514 1.499 . S
C512 H492 0.950 . S
C512 C511 1.414 . S
C512 C513 1.374 . S
C513 H493 0.950 . S
C513 C509 1.385 . S
C513 C512 1.374 . S
C514 C511 1.499 . S
C514 C515 1.373 . S
C514 C516 1.389 1_655 S
C515 H494 0.950 . S
C515 C514 1.373 . S
C515 C531 1.377 . S
C516 C514 1.389 1_455 S
C516 C517 1.524 . S
C516 C530 1.377 . S
C517 C516 1.524 . S
C517 C518 1.397 . S
C517 C522 1.363 . S
C518 H495 0.950 1_455 S
C518 C517 1.397 . S
C518 C519 1.334 . S
C519 H496 0.950 . S
C519 C518 1.334 . S
C519 C520 1.287 . S
C520 C519 1.287 . S
C520 C521 1.524 . S
C520 H539 0.913 . S
C521 H497 0.950 . S
C521 C520 1.524 . S
C521 C522 1.415 . S
C522 H498 0.950 . S
C522 C517 1.363 . S
C522 C521 1.415 . S
C523 H499 0.951 . S
C523 C524 1.366 . S
C523 C525 1.388 . S
C524 C523 1.366 . S
C524 C528 1.385 . S
C525 H500 0.951 . S
C525 C523 1.388 . S
C525 C526 1.366 . S
C526 C525 1.366 . S
C526 C527 1.414 . S
C526 C529 1.499 . S
C527 H501 0.950 . S
C527 C526 1.414 . S
C527 C528 1.374 . S
C528 H502 0.950 . S
C528 C524 1.385 . S
C528 C527 1.374 . S
C529 C526 1.499 . S
C529 C530 1.373 . S
C529 C531 1.389 1_455 S
C530 H503 0.950 . S
C530 C516 1.377 . S
C530 C529 1.373 . S
C531 C515 1.377 . S
C531 C529 1.389 1_655 S
C531 C532 1.524 . S
C532 C531 1.524 . S
C532 C533 1.397 . S
C532 C537 1.363 . S
C533 H504 0.938 1_655 S
C533 C532 1.397 . S
C533 C534 1.334 . S
C534 H505 0.950 . S
C534 C533 1.334 . S
C534 C535 1.287 . S
C535 C534 1.287 . S
C535 C536 1.524 . S
C535 H538 0.999 . S
C536 H506 0.950 . S
C536 C535 1.524 . S
C536 C537 1.415 . S
C537 H507 0.950 . S
C537 C532 1.363 . S
C537 C536 1.415 . S
H538 C535 0.999 . S
H539 C520 0.913 . S
H540 C558 0.951 . S
H541 C560 0.951 . S
H542 C562 0.950 . S
H543 C563 0.950 . S
H544 C565 0.950 . S
H545 C568 0.950 . S
H546 C569 0.950 . S
H547 C571 0.950 . S
H548 C572 0.950 . S
H549 C573 0.951 . S
H550 C575 0.951 . S
H551 C577 0.950 . S
H552 C578 0.950 . S
H553 C580 0.950 . S
H554 C583 0.950 . S
H555 C584 0.950 . S
H556 C586 0.950 . S
H557 C587 0.950 . S
C558 H540 0.951 . S
C558 C559 1.366 . S
C558 C560 1.388 . S
C559 C558 1.366 . S
C559 C563 1.385 . S
C560 H541 0.951 . S
C560 C558 1.388 . S
C560 C561 1.366 . S
C561 C560 1.366 . S
C561 C562 1.414 . S
C561 C564 1.499 . S
C562 H542 0.950 . S
C562 C561 1.414 . S
C562 C563 1.374 . S
C563 H543 0.950 . S
C563 C559 1.385 . S
C563 C562 1.374 . S
C564 C561 1.499 . S
C564 C565 1.373 . S
C564 C566 1.389 . S
C565 H544 0.950 . S
C565 C564 1.373 . S
C565 C581 1.377 . S
C566 C564 1.389 . S
C566 C567 1.524 . S
C566 C580 1.377 . S
C567 C566 1.524 . S
C567 C568 1.397 . S
C567 C572 1.363 . S
C568 H545 0.950 . S
C568 C567 1.397 . S
C568 C569 1.334 . S
C569 H546 0.950 . S
C569 C568 1.334 . S
C569 C570 1.287 . S
C570 C569 1.287 . S
C570 C571 1.524 . S
C570 H589 0.913 . S
C571 H547 0.950 . S
C571 C570 1.524 . S
C571 C572 1.415 . S
C572 H548 0.950 . S
C572 C567 1.363 . S
C572 C571 1.415 . S
C573 H549 0.951 . S
C573 C574 1.366 . S
C573 C575 1.388 . S
C574 C573 1.366 . S
C574 C578 1.385 . S
C575 H550 0.951 . S
C575 C573 1.388 . S
C575 C576 1.366 . S
C576 C575 1.366 . S
C576 C577 1.414 . S
C576 C579 1.499 . S
C577 H551 0.950 . S
C577 C576 1.414 . S
C577 C578 1.374 . S
C578 H552 0.950 . S
C578 C574 1.385 . S
C578 C577 1.374 . S
C579 C576 1.499 . S
C579 C580 1.373 . S
C579 C581 1.389 . S
C580 H553 0.950 . S
C580 C566 1.377 . S
C580 C579 1.373 . S
C581 C565 1.377 . S
C581 C579 1.389 . S
C581 C582 1.524 . S
C582 C581 1.524 . S
C582 C583 1.397 . S
C582 C587 1.363 . S
C583 H554 0.950 . S
C583 C582 1.397 . S
C583 C584 1.334 . S
C584 H555 0.950 . S
C584 C583 1.334 . S
C584 C585 1.287 . S
C585 C584 1.287 . S
C585 C586 1.524 . S
C585 H588 0.999 . S
C586 H556 0.950 . S
C586 C585 1.524 . S
C586 C587 1.415 . S
C587 H557 0.950 . S
C587 C582 1.363 . S
C587 C586 1.415 . S
H588 C585 0.999 . S
H589 C570 0.913 . S
H590 C608 0.951 . S
H591 C610 0.951 . S
H592 C612 0.950 . S
H593 C613 0.950 . S
H594 C615 0.950 . S
H595 C618 0.950 . S
H596 C619 0.950 . S
H597 C621 0.950 . S
H598 C622 0.950 . S
H599 C623 0.951 . S
H600 C625 0.951 . S
H601 C627 0.950 . S
H602 C628 0.950 . S
H603 C630 0.950 . S
H604 C633 0.950 . S
H605 C634 0.950 . S
H606 C636 0.950 . S
H607 C637 0.950 . S
C608 H590 0.951 . S
C608 C609 1.366 . S
C608 C610 1.388 . S
C609 C608 1.366 . S
C609 C613 1.385 . S
C610 H591 0.951 . S
C610 C608 1.388 . S
C610 C611 1.366 . S
C611 C610 1.366 . S
C611 C612 1.414 . S
C611 C614 1.499 . S
C612 H592 0.950 . S
C612 C611 1.414 . S
C612 C613 1.374 . S
C613 H593 0.950 . S
C613 C609 1.385 . S
C613 C612 1.374 . S
C614 C611 1.499 . S
C614 C615 1.373 . S
C614 C616 1.389 . S
C615 H594 0.950 . S
C615 C614 1.373 . S
C615 C631 1.377 . S
C616 C614 1.389 . S
C616 C617 1.524 . S
C616 C630 1.377 . S
C617 C616 1.524 . S
C617 C618 1.397 . S
C617 C622 1.363 . S
C618 H595 0.950 . S
C618 C617 1.397 . S
C618 C619 1.334 . S
C619 H596 0.950 . S
C619 C618 1.334 . S
C619 C620 1.287 . S
C620 C619 1.287 . S
C620 C621 1.524 . S
C620 H639 0.913 . S
C621 H597 0.950 . S
C621 C620 1.524 . S
C621 C622 1.415 . S
C622 H598 0.950 . S
C622 C617 1.363 . S
C622 C621 1.415 . S
C623 H599 0.951 . S
C623 C624 1.366 . S
C623 C625 1.388 . S
C624 C623 1.366 . S
C624 C628 1.385 . S
C625 H600 0.951 . S
C625 C623 1.388 . S
C625 C626 1.366 . S
C626 C625 1.366 . S
C626 C627 1.414 . S
C626 C629 1.499 . S
C627 H601 0.950 . S
C627 C626 1.414 . S
C627 C628 1.374 . S
C628 H602 0.950 . S
C628 C624 1.385 . S
C628 C627 1.374 . S
C629 C626 1.499 . S
C629 C630 1.373 . S
C629 C631 1.389 . S
C630 H603 0.950 . S
C630 C616 1.377 . S
C630 C629 1.373 . S
C631 C615 1.377 . S
C631 C629 1.389 . S
C631 C632 1.524 . S
C632 C631 1.524 . S
C632 C633 1.397 . S
C632 C637 1.363 . S
C633 H604 0.950 . S
C633 C632 1.397 . S
C633 C634 1.334 . S
C634 H605 0.950 . S
C634 C633 1.334 . S
C634 C635 1.287 . S
C635 C634 1.287 . S
C635 C636 1.524 . S
C635 H638 0.999 . S
C636 H606 0.950 . S
C636 C635 1.524 . S
C636 C637 1.415 . S
C637 H607 0.950 . S
C637 C632 1.363 . S
C637 C636 1.415 . S
H638 C635 0.999 . S
H639 C620 0.913 . S
H640 C658 0.951 . S
H641 C660 0.951 . S
H642 C662 0.950 . S
H643 C663 0.950 . S
H644 C665 0.950 . S
H645 C668 0.950 . S
H646 C669 0.950 . S
H647 C671 0.950 . S
H648 C672 0.950 . S
H649 C673 0.951 . S
H650 C675 0.951 . S
H651 C677 0.950 . S
H652 C678 0.950 . S
H653 C680 0.950 . S
H654 C683 0.950 . S
H655 C684 0.950 . S
H656 C686 0.950 . S
H657 C687 0.950 . S
C658 H640 0.951 . S
C658 C659 1.366 . S
C658 C660 1.388 . S
C659 C658 1.366 . S
C659 C663 1.385 . S
C660 H641 0.951 . S
C660 C658 1.388 . S
C660 C661 1.366 . S
C661 C660 1.366 . S
C661 C662 1.414 . S
C661 C664 1.499 . S
C662 H642 0.950 . S
C662 C661 1.414 . S
C662 C663 1.374 . S
C663 H643 0.950 . S
C663 C659 1.385 . S
C663 C662 1.374 . S
C664 C661 1.499 . S
C664 C665 1.373 . S
C664 C666 1.389 . S
C665 H644 0.950 . S
C665 C664 1.373 . S
C665 C681 1.377 . S
C666 C664 1.389 . S
C666 C667 1.524 . S
C666 C680 1.377 . S
C667 C666 1.524 . S
C667 C668 1.397 . S
C667 C672 1.363 . S
C668 H645 0.950 . S
C668 C667 1.397 . S
C668 C669 1.334 . S
C669 H646 0.950 . S
C669 C668 1.334 . S
C669 C670 1.287 . S
C670 C669 1.287 . S
C670 C671 1.524 . S
C670 H689 0.913 . S
C671 H647 0.950 . S
C671 C670 1.524 . S
C671 C672 1.415 . S
C672 H648 0.950 . S
C672 C667 1.363 . S
C672 C671 1.415 . S
C673 H649 0.951 . S
C673 C674 1.366 . S
C673 C675 1.388 . S
C674 C673 1.366 . S
C674 C678 1.385 . S
C675 H650 0.951 . S
C675 C673 1.388 . S
C675 C676 1.366 . S
C676 C675 1.366 . S
C676 C677 1.414 . S
C676 C679 1.499 . S
C677 H651 0.950 . S
C677 C676 1.414 . S
C677 C678 1.374 . S
C678 H652 0.950 . S
C678 C674 1.385 . S
C678 C677 1.374 . S
C679 C676 1.499 . S
C679 C680 1.373 . S
C679 C681 1.389 . S
C680 H653 0.950 . S
C680 C666 1.377 . S
C680 C679 1.373 . S
C681 C665 1.377 . S
C681 C679 1.389 . S
C681 C682 1.524 . S
C682 C681 1.524 . S
C682 C683 1.397 . S
C682 C687 1.363 . S
C683 H654 0.950 . S
C683 C682 1.397 . S
C683 C684 1.334 . S
C684 H655 0.950 . S
C684 C683 1.334 . S
C684 C685 1.287 . S
C685 C684 1.287 . S
C685 C686 1.524 . S
C685 H688 0.999 . S
C686 H656 0.950 . S
C686 C685 1.524 . S
C686 C687 1.415 . S
C687 H657 0.950 . S
C687 C682 1.363 . S
C687 C686 1.415 . S
H688 C685 0.999 . S
H689 C670 0.913 . S
H690 C708 0.951 . S
H691 C710 0.951 . S
H692 C712 0.950 . S
H693 C713 0.950 . S
H694 C715 0.950 . S
H695 C718 0.950 . S
H696 C719 0.950 . S
H697 C721 0.950 . S
H698 C722 0.950 . S
H699 C723 0.951 . S
H700 C725 0.951 . S
H701 C727 0.950 . S
H702 C728 0.950 . S
H703 C730 0.950 . S
H704 C733 0.950 . S
H705 C734 0.950 . S
H706 C736 0.950 . S
H707 C737 0.950 . S
C708 H690 0.951 . S
C708 C709 1.366 . S
C708 C710 1.388 . S
C709 C708 1.366 . S
C709 C713 1.385 . S
C710 H691 0.951 . S
C710 C708 1.388 . S
C710 C711 1.366 . S
C711 C710 1.366 . S
C711 C712 1.414 . S
C711 C714 1.499 . S
C712 H692 0.950 . S
C712 C711 1.414 . S
C712 C713 1.374 . S
C713 H693 0.950 . S
C713 C709 1.385 . S
C713 C712 1.374 . S
C714 C711 1.499 . S
C714 C715 1.373 . S
C714 C716 1.389 . S
C715 H694 0.950 . S
C715 C714 1.373 . S
C715 C731 1.377 . S
C716 C714 1.389 . S
C716 C717 1.524 . S
C716 C730 1.377 . S
C717 C716 1.524 . S
C717 C718 1.397 . S
C717 C722 1.363 . S
C718 H695 0.950 . S
C718 C717 1.397 . S
C718 C719 1.334 . S
C719 H696 0.950 . S
C719 C718 1.334 . S
C719 C720 1.287 . S
C720 C719 1.287 . S
C720 C721 1.524 . S
C720 H739 0.913 . S
C721 H697 0.950 . S
C721 C720 1.524 . S
C721 C722 1.415 . S
C722 H698 0.950 . S
C722 C717 1.363 . S
C722 C721 1.415 . S
C723 H699 0.951 . S
C723 C724 1.366 . S
C723 C725 1.388 . S
C724 C723 1.366 . S
C724 C728 1.385 . S
C725 H700 0.951 . S
C725 C723 1.388 . S
C725 C726 1.366 . S
C726 C725 1.366 . S
C726 C727 1.414 . S
C726 C729 1.499 . S
C727 H701 0.950 . S
C727 C726 1.414 . S
C727 C728 1.374 . S
C728 H702 0.950 . S
C728 C724 1.385 . S
C728 C727 1.374 . S
C729 C726 1.499 . S
C729 C730 1.373 . S
C729 C731 1.389 . S
C730 H703 0.950 . S
C730 C716 1.377 . S
C730 C729 1.373 . S
C731 C715 1.377 . S
C731 C729 1.389 . S
C731 C732 1.524 . S
C732 C731 1.524 . S
C732 C733 1.397 . S
C732 C737 1.363 . S
C733 H704 0.950 . S
C733 C732 1.397 . S
C733 C734 1.334 . S
C734 H705 0.950 . S
C734 C733 1.334 . S
C734 C735 1.287 . S
C735 C734 1.287 . S
C735 C736 1.524 . S
C735 H738 0.999 . S
C736 H706 0.950 . S
C736 C735 1.524 . S
C736 C737 1.415 . S
C737 H707 0.950 . S
C737 C732 1.363 . S
C737 C736 1.415 . S
H738 C735 0.999 . S
H739 C720 0.913 . S
H740 C758 0.951 . S
H741 C760 0.951 . S
H742 C762 0.950 . S
H743 C763 0.950 . S
H744 C765 0.950 . S
H745 C768 0.950 . S
H746 C769 0.950 . S
H747 C771 0.950 . S
H748 C772 0.950 . S
H749 C773 0.951 . S
H750 C775 0.951 . S
H751 C777 0.950 . S
H752 C778 0.950 . S
H753 C780 0.950 . S
H754 C783 0.950 . S
H755 C784 0.950 . S
H756 C786 0.950 . S
H757 C787 0.950 . S
C758 H740 0.951 . S
C758 C759 1.366 . S
C758 C760 1.388 . S
C759 C758 1.366 . S
C759 C763 1.385 . S
C760 H741 0.951 . S
C760 C758 1.388 . S
C760 C761 1.366 . S
C761 C760 1.366 . S
C761 C762 1.414 . S
C761 C764 1.499 . S
C762 H742 0.950 . S
C762 C761 1.414 . S
C762 C763 1.374 . S
C763 H743 0.950 . S
C763 C759 1.385 . S
C763 C762 1.374 . S
C764 C761 1.499 . S
C764 C765 1.373 . S
C764 C766 1.389 . S
C765 H744 0.950 . S
C765 C764 1.373 . S
C765 C781 1.377 . S
C766 C764 1.389 . S
C766 C767 1.524 . S
C766 C780 1.377 . S
C767 C766 1.524 . S
C767 C768 1.397 . S
C767 C772 1.363 . S
C768 H745 0.950 . S
C768 C767 1.397 . S
C768 C769 1.334 . S
C769 H746 0.950 . S
C769 C768 1.334 . S
C769 C770 1.287 . S
C770 C769 1.287 . S
C770 C771 1.524 . S
C770 H789 0.913 . S
C771 H747 0.950 . S
C771 C770 1.524 . S
C771 C772 1.415 . S
C772 H748 0.950 . S
C772 C767 1.363 . S
C772 C771 1.415 . S
C773 H749 0.951 . S
C773 C774 1.366 . S
C773 C775 1.388 . S
C774 C773 1.366 . S
C774 C778 1.385 . S
C775 H750 0.951 . S
C775 C773 1.388 . S
C775 C776 1.366 . S
C776 C775 1.366 . S
C776 C777 1.414 . S
C776 C779 1.499 . S
C777 H751 0.950 . S
C777 C776 1.414 . S
C777 C778 1.374 . S
C778 H752 0.950 . S
C778 C774 1.385 . S
C778 C777 1.374 . S
C779 C776 1.499 . S
C779 C780 1.373 . S
C779 C781 1.389 . S
C780 H753 0.950 . S
C780 C766 1.377 . S
C780 C779 1.373 . S
C781 C765 1.377 . S
C781 C779 1.389 . S
C781 C782 1.524 . S
C782 C781 1.524 . S
C782 C783 1.397 . S
C782 C787 1.363 . S
C783 H754 0.950 . S
C783 C782 1.397 . S
C783 C784 1.334 . S
C784 H755 0.950 . S
C784 C783 1.334 . S
C784 C785 1.287 . S
C785 C784 1.287 . S
C785 C786 1.524 . S
C785 H788 0.999 . S
C786 H756 0.950 . S
C786 C785 1.524 . S
C786 C787 1.415 . S
C787 H757 0.950 . S
C787 C782 1.363 . S
C787 C786 1.415 . S
H788 C785 0.999 . S
H789 C770 0.913 . S
H790 C808 0.951 . S
H791 C810 0.951 . S
H792 C812 0.950 . S
H793 C813 0.950 . S
H794 C815 0.950 . S
H795 C818 0.950 . S
H796 C819 0.950 . S
H797 C821 0.950 . S
H798 C822 0.950 . S
H799 C823 0.951 . S
H800 C825 0.951 . S
H801 C827 0.950 . S
H802 C828 0.950 . S
H803 C830 0.950 . S
H804 C833 0.950 . S
H805 C834 0.950 . S
H806 C836 0.950 . S
H807 C837 0.950 . S
C808 H790 0.951 . S
C808 C809 1.366 . S
C808 C810 1.388 . S
C809 C808 1.366 . S
C809 C813 1.385 . S
C810 H791 0.951 . S
C810 C808 1.388 . S
C810 C811 1.366 . S
C811 C810 1.366 . S
C811 C812 1.414 . S
C811 C814 1.499 . S
C812 H792 0.950 . S
C812 C811 1.414 . S
C812 C813 1.374 . S
C813 H793 0.950 . S
C813 C809 1.385 . S
C813 C812 1.374 . S
C814 C811 1.499 . S
C814 C815 1.373 . S
C814 C816 1.389 . S
C815 H794 0.950 . S
C815 C814 1.373 . S
C815 C831 1.377 . S
C816 C814 1.389 . S
C816 C817 1.524 . S
C816 C830 1.377 . S
C817 C816 1.524 . S
C817 C818 1.397 . S
C817 C822 1.363 . S
C818 H795 0.950 . S
C818 C817 1.397 . S
C818 C819 1.334 . S
C819 H796 0.950 . S
C819 C818 1.334 . S
C819 C820 1.287 . S
C820 C819 1.287 . S
C820 C821 1.524 . S
C820 H839 0.913 . S
C821 H797 0.950 . S
C821 C820 1.524 . S
C821 C822 1.415 . S
C822 H798 0.950 . S
C822 C817 1.363 . S
C822 C821 1.415 . S
C823 H799 0.951 . S
C823 C824 1.366 . S
C823 C825 1.388 . S
C824 C823 1.366 . S
C824 C828 1.385 . S
C825 H800 0.951 . S
C825 C823 1.388 . S
C825 C826 1.366 . S
C826 C825 1.366 . S
C826 C827 1.414 . S
C826 C829 1.499 . S
C827 H801 0.950 . S
C827 C826 1.414 . S
C827 C828 1.374 . S
C828 H802 0.950 . S
C828 C824 1.385 . S
C828 C827 1.374 . S
C829 C826 1.499 . S
C829 C830 1.373 . S
C829 C831 1.389 . S
C830 H803 0.950 . S
C830 C816 1.377 . S
C830 C829 1.373 . S
C831 C815 1.377 . S
C831 C829 1.389 . S
C831 C832 1.524 . S
C832 C831 1.524 . S
C832 C833 1.397 . S
C832 C837 1.363 . S
C833 H804 0.950 . S
C833 C832 1.397 . S
C833 C834 1.334 . S
C834 H805 0.950 . S
C834 C833 1.334 . S
C834 C835 1.287 . S
C835 C834 1.287 . S
C835 C836 1.524 . S
C835 H838 0.999 . S
C836 H806 0.950 . S
C836 C835 1.524 . S
C836 C837 1.415 . S
C837 H807 0.950 . S
C837 C832 1.363 . S
C837 C836 1.415 . S
H838 C835 0.999 . S
H839 C820 0.913 . S
H840 C858 0.951 . S
H841 C860 0.951 . S
H842 C862 0.950 . S
H843 C863 0.950 . S
H844 C865 0.950 . S
H845 C868 0.950 . S
H846 C869 0.950 . S
H847 C871 0.950 . S
H848 C872 0.950 . S
H849 C873 0.951 . S
H850 C875 0.951 . S
H851 C877 0.950 . S
H852 C878 0.950 . S
H853 C880 0.950 . S
H854 C883 0.950 . S
H855 C884 0.950 . S
H856 C886 0.950 . S
H857 C887 0.950 . S
C858 H840 0.951 . S
C858 C859 1.366 . S
C858 C860 1.388 . S
C859 C858 1.366 . S
C859 C863 1.385 . S
C860 H841 0.951 . S
C860 C858 1.388 . S
C860 C861 1.366 . S
C861 C860 1.366 . S
C861 C862 1.414 . S
C861 C864 1.499 . S
C862 H842 0.950 . S
C862 C861 1.414 . S
C862 C863 1.374 . S
C863 H843 0.950 . S
C863 C859 1.385 . S
C863 C862 1.374 . S
C864 C861 1.499 . S
C864 C865 1.373 . S
C864 C866 1.389 . S
C865 H844 0.950 . S
C865 C864 1.373 . S
C865 C881 1.377 . S
C866 C864 1.389 . S
C866 C867 1.524 . S
C866 C880 1.377 . S
C867 C866 1.524 . S
C867 C868 1.397 . S
C867 C872 1.363 . S
C868 H845 0.950 . S
C868 C867 1.397 . S
C868 C869 1.334 . S
C869 H846 0.950 . S
C869 C868 1.334 . S
C869 C870 1.287 . S
C870 C869 1.287 . S
C870 C871 1.524 . S
C870 H889 0.913 . S
C871 H847 0.950 . S
C871 C870 1.524 . S
C871 C872 1.415 . S
C872 H848 0.950 . S
C872 C867 1.363 . S
C872 C871 1.415 . S
C873 H849 0.951 . S
C873 C874 1.366 . S
C873 C875 1.388 . S
C874 C873 1.366 . S
C874 C878 1.385 . S
C875 H850 0.951 . S
C875 C873 1.388 . S
C875 C876 1.366 . S
C876 C875 1.366 . S
C876 C877 1.414 . S
C876 C879 1.499 . S
C877 H851 0.950 . S
C877 C876 1.414 . S
C877 C878 1.374 . S
C878 H852 0.950 . S
C878 C874 1.385 . S
C878 C877 1.374 . S
C879 C876 1.499 . S
C879 C880 1.373 . S
C879 C881 1.389 . S
C880 H853 0.950 . S
C880 C866 1.377 . S
C880 C879 1.373 . S
C881 C865 1.377 . S
C881 C879 1.389 . S
C881 C882 1.524 . S
C882 C881 1.524 . S
C882 C883 1.397 . S
C882 C887 1.363 . S
C883 H854 0.950 . S
C883 C882 1.397 . S
C883 C884 1.334 . S
C884 H855 0.950 . S
C884 C883 1.334 . S
C884 C885 1.287 . S
C885 C884 1.287 . S
C885 C886 1.524 . S
C885 H888 0.999 . S
C886 H856 0.950 . S
C886 C885 1.524 . S
C886 C887 1.415 . S
C887 H857 0.950 . S
C887 C882 1.363 . S
C887 C886 1.415 . S
H888 C885 0.999 . S
H889 C870 0.913 . S
H890 C908 0.951 . S
H891 C910 0.951 . S
H892 C912 0.950 . S
H893 C913 0.950 . S
H894 C915 0.950 . S
H895 C918 0.950 . S
H896 C919 0.950 . S
H897 C921 0.950 . S
H898 C922 0.950 . S
H899 C923 0.951 . S
H900 C925 0.951 . S
H901 C927 0.950 . S
H902 C928 0.950 . S
H903 C930 0.950 . S
H904 C933 0.950 . S
H905 C934 0.950 . S
H906 C936 0.942 1_655 S
H907 C937 0.950 . S
C908 H890 0.951 . S
C908 C909 1.366 . S
C908 C910 1.388 . S
C909 C908 1.366 . S
C909 C913 1.385 . S
C910 H891 0.951 . S
C910 C908 1.388 . S
C910 C911 1.366 . S
C911 C910 1.366 . S
C911 C912 1.414 . S
C911 C914 1.499 . S
C912 H892 0.950 . S
C912 C911 1.414 . S
C912 C913 1.374 . S
C913 H893 0.950 . S
C913 C909 1.385 . S
C913 C912 1.374 . S
C914 C911 1.499 . S
C914 C915 1.373 . S
C914 C916 1.389 . S
C915 H894 0.950 . S
C915 C914 1.373 . S
C915 C931 1.377 . S
C916 C914 1.389 . S
C916 C917 1.524 . S
C916 C930 1.377 1_655 S
C917 C916 1.524 . S
C917 C918 1.397 . S
C917 C922 1.363 . S
C918 H895 0.950 . S
C918 C917 1.397 . S
C918 C919 1.334 . S
C919 H896 0.950 . S
C919 C918 1.334 . S
C919 C920 1.287 . S
C920 C919 1.287 . S
C920 C921 1.524 . S
C920 H939 0.913 . S
C921 H897 0.950 . S
C921 C920 1.524 . S
C921 C922 1.415 . S
C922 H898 0.950 . S
C922 C917 1.363 . S
C922 C921 1.415 . S
C923 H899 0.951 . S
C923 C924 1.366 . S
C923 C925 1.388 . S
C924 C923 1.366 . S
C924 C928 1.385 . S
C925 H900 0.951 . S
C925 C923 1.388 . S
C925 C926 1.366 . S
C926 C925 1.366 . S
C926 C927 1.414 . S
C926 C929 1.499 . S
C927 H901 0.950 . S
C927 C926 1.414 . S
C927 C928 1.374 . S
C928 H902 0.950 . S
C928 C924 1.385 . S
C928 C927 1.374 . S
C929 C926 1.499 . S
C929 C930 1.373 . S
C929 C931 1.389 1_455 S
C930 H903 0.950 . S
C930 C916 1.377 1_455 S
C930 C929 1.373 . S
C931 C915 1.377 . S
C931 C929 1.389 1_655 S
C931 C932 1.524 1_655 S
C932 C931 1.524 1_455 S
C932 C933 1.397 . S
C932 C937 1.363 1_455 S
C933 H904 0.950 . S
C933 C932 1.397 . S
C933 C934 1.334 . S
C934 H905 0.950 . S
C934 C933 1.334 . S
C934 C935 1.287 . S
C935 C934 1.287 . S
C935 C936 1.524 . S
C935 H938 0.999 . S
C936 H906 0.942 1_455 S
C936 C935 1.524 . S
C936 C937 1.415 1_455 S
C937 H907 0.950 . S
C937 C932 1.363 1_655 S
C937 C936 1.415 1_655 S
H938 C935 0.999 . S
H939 C920 0.913 . S
H940 C958 0.951 . S
H941 C960 0.951 . S
H942 C962 0.950 . S
H943 C963 0.950 . S
H944 C965 0.950 . S
H945 C968 0.950 . S
H946 C969 0.950 . S
H947 C971 0.950 . S
H948 C972 0.950 . S
H949 C973 0.951 . S
H950 C975 0.951 . S
H951 C977 0.950 . S
H952 C978 0.950 . S
H953 C980 0.979 . S
H954 C983 0.950 . S
H955 C984 0.950 . S
H956 C986 0.950 . S
H957 C987 0.950 . S
C958 H940 0.951 . S
C958 C959 1.366 . S
C958 C960 1.388 . S
C959 C958 1.366 . S
C959 C963 1.385 . S
C960 H941 0.951 . S
C960 C958 1.388 . S
C960 C961 1.366 . S
C961 C960 1.366 . S
C961 C962 1.414 . S
C961 C964 1.499 . S
C962 H942 0.950 . S
C962 C961 1.414 . S
C962 C963 1.374 . S
C963 H943 0.950 . S
C963 C959 1.385 . S
C963 C962 1.374 . S
C964 C961 1.499 . S
C964 C965 1.373 . S
C964 C966 1.389 . S
C965 H944 0.950 . S
C965 C964 1.373 . S
C965 C981 1.377 1_545 S
C966 C964 1.389 . S
C966 C967 1.524 . S
C966 C980 1.342 1_545 S
C967 C966 1.524 . S
C967 C968 1.397 . S
C967 C972 1.363 . S
C968 H945 0.950 . S
C968 C967 1.397 . S
C968 C969 1.334 . S
C969 H946 0.950 . S
C969 C968 1.334 . S
C969 C970 1.287 . S
C970 C969 1.287 . S
C970 C971 1.524 . S
C970 H989 0.913 . S
C971 H947 0.950 . S
C971 C970 1.524 . S
C971 C972 1.415 . S
C972 H948 0.950 . S
C972 C967 1.363 . S
C972 C971 1.415 . S
C973 H949 0.951 . S
C973 C974 1.366 . S
C973 C975 1.388 . S
C974 C973 1.366 . S
C974 C978 1.385 . S
C975 H950 0.951 . S
C975 C973 1.388 . S
C975 C976 1.366 . S
C976 C975 1.366 . S
C976 C977 1.414 . S
C976 C979 1.499 . S
C977 H951 0.950 . S
C977 C976 1.414 . S
C977 C978 1.374 . S
C978 H952 0.950 . S
C978 C974 1.385 . S
C978 C977 1.374 . S
C979 C976 1.499 . S
C979 C980 1.380 . S
C979 C981 1.389 . S
C980 H953 0.979 . S
C980 C966 1.342 1_565 S
C980 C979 1.380 . S
C981 C965 1.377 1_565 S
C981 C979 1.389 . S
C981 C982 1.524 . S
C982 C981 1.524 . S
C982 C983 1.397 . S
C982 C987 1.363 . S
C983 H954 0.950 . S
C983 C982 1.397 . S
C983 C984 1.334 . S
C984 H955 0.950 . S
C984 C983 1.334 . S
C984 C985 1.287 . S
C985 C984 1.287 . S
C985 C986 1.524 . S
C985 H988 0.999 . S
C986 H956 0.950 . S
C986 C985 1.524 . S
C986 C987 1.415 . S
C987 H957 0.950 . S
C987 C982 1.363 . S
C987 C986 1.415 . S
H988 C985 0.999 . S
H989 C970 0.913 . S
H990 C1008 0.951 . S
H991 C1010 0.951 . S
H992 C1012 0.950 . S
H993 C1013 0.950 . S
H994 C1015 0.950 . S
H995 C1018 0.950 . S
H996 C1019 0.950 . S
H997 C1021 0.950 . S
H998 C1022 0.950 . S
H999 C1023 0.951 . S
H1000 C1025 0.951 . S
H1001 C1027 0.950 . S
H1002 C1028 0.945 . S
H1003 C1030 0.950 . S
H1004 C1033 0.950 . S
H1005 C1034 0.950 . S
H1006 C1036 0.950 . S
H1007 C1037 0.950 . S
C1008 H990 0.951 . S
C1008 C1009 1.366 . S
C1008 C1010 1.388 . S
C1009 C1008 1.366 . S
C1009 C1013 1.385 . S
C1010 H991 0.951 . S
C1010 C1008 1.388 . S
C1010 C1011 1.366 . S
C1011 C1010 1.366 . S
C1011 C1012 1.414 . S
C1011 C1014 1.499 . S
C1012 H992 0.950 . S
C1012 C1011 1.414 . S
C1012 C1013 1.374 . S
C1013 H993 0.950 . S
C1013 C1009 1.385 . S
C1013 C1012 1.374 . S
C1014 C1011 1.499 . S
C1014 C1015 1.373 . S
C1014 C1016 1.389 . S
C1015 H994 0.950 . S
C1015 C1014 1.373 . S
C1015 C1031 1.377 . S
C1016 C1014 1.389 . S
C1016 C1017 1.524 . S
C1016 C1030 1.377 . S
C1017 C1016 1.524 . S
C1017 C1018 1.397 . S
C1017 C1022 1.363 . S
C1018 H995 0.950 . S
C1018 C1017 1.397 . S
C1018 C1019 1.334 . S
C1019 H996 0.950 . S
C1019 C1018 1.334 . S
C1019 C1020 1.287 . S
C1020 C1019 1.287 . S
C1020 C1021 1.524 . S
C1020 H1039 0.913 . S
C1021 H997 0.950 . S
C1021 C1020 1.524 . S
C1021 C1022 1.415 . S
C1022 H998 0.950 . S
C1022 C1017 1.363 . S
C1022 C1021 1.415 . S
C1023 H999 0.951 . S
C1023 C1024 1.366 . S
C1023 C1025 1.388 . S
C1024 C1023 1.366 . S
C1024 C1028 1.385 . S
C1025 H1000 0.951 . S
C1025 C1023 1.388 . S
C1025 C1026 1.366 1_565 S
C1026 C1025 1.366 1_545 S
C1026 C1027 1.414 . S
C1026 C1029 1.499 . S
C1027 H1001 0.950 . S
C1027 C1026 1.414 . S
C1027 C1028 1.374 1_545 S
C1028 H1002 0.945 . S
C1028 C1024 1.385 . S
C1028 C1027 1.374 1_565 S
C1029 C1026 1.499 . S
C1029 C1030 1.373 . S
C1029 C1031 1.389 . S
C1030 H1003 0.950 . S
C1030 C1016 1.377 . S
C1030 C1029 1.373 . S
C1031 C1015 1.377 . S
C1031 C1029 1.389 . S
C1031 C1032 1.524 . S
C1032 C1031 1.524 . S
C1032 C1033 1.397 . S
C1032 C1037 1.363 . S
C1033 H1004 0.950 . S
C1033 C1032 1.397 . S
C1033 C1034 1.334 . S
C1034 H1005 0.950 . S
C1034 C1033 1.334 . S
C1034 C1035 1.287 . S
C1035 C1034 1.287 . S
C1035 C1036 1.524 . S
C1035 H1038 0.999 . S
C1036 H1006 0.950 . S
C1036 C1035 1.524 . S
C1036 C1037 1.415 . S
C1037 H1007 0.950 . S
C1037 C1032 1.363 . S
C1037 C1036 1.415 . S
H1038 C1035 0.999 . S
H1039 C1020 0.913 . S
H1040 C1058 0.951 . S
H1041 C1060 0.951 . S
H1042 C1062 0.950 . S
H1043 C1063 0.950 . S
H1044 C1065 0.950 . S
H1045 C1068 0.950 . S
H1046 C1069 0.950 . S
H1047 C1071 0.950 . S
H1048 C1072 0.950 . S
H1049 C1073 0.951 . S
H1050 C1075 0.951 . S
H1051 C1077 0.950 . S
H1052 C1078 0.950 . S
H1053 C1080 0.950 . S
H1054 C1083 0.950 . S
H1055 C1084 0.950 . S
H1056 C1086 0.950 . S
H1057 C1087 0.950 . S
C1058 H1040 0.951 . S
C1058 C1059 1.366 . S
C1058 C1060 1.388 1_455 S
C1059 C1058 1.366 . S
C1059 C1063 1.385 . S
C1060 H1041 0.951 . S
C1060 C1058 1.388 1_655 S
C1060 C1061 1.366 . S
C1061 C1060 1.366 . S
C1061 C1062 1.414 . S
C1061 C1064 1.499 . S
C1062 H1042 0.950 . S
C1062 C1061 1.414 . S
C1062 C1063 1.374 1_655 S
C1063 H1043 0.950 . S
C1063 C1059 1.385 . S
C1063 C1062 1.374 1_455 S
C1064 C1061 1.499 . S
C1064 C1065 1.373 . S
C1064 C1066 1.389 . S
C1065 H1044 0.950 . S
C1065 C1064 1.373 . S
C1065 C1081 1.377 . S
C1066 C1064 1.389 . S
C1066 C1067 1.524 . S
C1066 C1080 1.377 . S
C1067 C1066 1.524 . S
C1067 C1068 1.397 . S
C1067 C1072 1.363 . S
C1068 H1045 0.950 . S
C1068 C1067 1.397 . S
C1068 C1069 1.334 . S
C1069 H1046 0.950 . S
C1069 C1068 1.334 . S
C1069 C1070 1.287 . S
C1070 C1069 1.287 . S
C1070 C1071 1.524 . S
C1070 H1089 0.913 . S
C1071 H1047 0.950 . S
C1071 C1070 1.524 . S
C1071 C1072 1.415 . S
C1072 H1048 0.950 . S
C1072 C1067 1.363 . S
C1072 C1071 1.415 . S
C1073 H1049 0.951 . S
C1073 C1074 1.366 . S
C1073 C1075 1.388 . S
C1074 C1073 1.366 . S
C1074 C1078 1.385 . S
C1075 H1050 0.951 . S
C1075 C1073 1.388 . S
C1075 C1076 1.366 . S
C1076 C1075 1.366 . S
C1076 C1077 1.414 . S
C1076 C1079 1.499 . S
C1077 H1051 0.950 . S
C1077 C1076 1.414 . S
C1077 C1078 1.374 . S
C1078 H1052 0.950 . S
C1078 C1074 1.385 . S
C1078 C1077 1.374 . S
C1079 C1076 1.499 . S
C1079 C1080 1.373 . S
C1079 C1081 1.389 . S
C1080 H1053 0.950 . S
C1080 C1066 1.377 . S
C1080 C1079 1.373 . S
C1081 C1065 1.377 . S
C1081 C1079 1.389 . S
C1081 C1082 1.524 . S
C1082 C1081 1.524 . S
C1082 C1083 1.397 . S
C1082 C1087 1.363 . S
C1083 H1054 0.950 . S
C1083 C1082 1.397 . S
C1083 C1084 1.334 . S
C1084 H1055 0.950 . S
C1084 C1083 1.334 . S
C1084 C1085 1.287 . S
C1085 C1084 1.287 . S
C1085 C1086 1.524 . S
C1085 H1088 0.999 . S
C1086 H1056 0.950 . S
C1086 C1085 1.524 . S
C1086 C1087 1.415 . S
C1087 H1057 0.950 . S
C1087 C1082 1.363 . S
C1087 C1086 1.415 . S
H1088 C1085 0.999 . S
H1089 C1070 0.913 . S
H1090 C1108 0.951 . S
H1091 C1110 0.951 . S
H1092 C1112 0.950 . S
H1093 C1113 0.950 . S
H1094 C1115 0.950 . S
H1095 C1118 0.950 . S
H1096 C1119 0.950 . S
H1097 C1121 0.950 . S
H1098 C1122 0.950 . S
H1099 C1123 0.951 . S
H1100 C1125 0.951 . S
H1101 C1127 0.950 . S
H1102 C1128 0.950 . S
H1103 C1130 0.950 . S
H1104 C1133 0.950 . S
H1105 C1134 0.950 . S
H1106 C1136 0.950 . S
H1107 C1137 0.950 . S
C1108 H1090 0.951 . S
C1108 C1109 1.366 . S
C1108 C1110 1.388 . S
C1109 C1108 1.366 . S
C1109 C1113 1.385 . S
C1110 H1091 0.951 . S
C1110 C1108 1.388 . S
C1110 C1111 1.366 1_455 S
C1111 C1110 1.366 1_655 S
C1111 C1112 1.414 . S
C1111 C1114 1.499 . S
C1112 H1092 0.950 . S
C1112 C1111 1.414 . S
C1112 C1113 1.374 1_655 S
C1113 H1093 0.950 . S
C1113 C1109 1.385 . S
C1113 C1112 1.374 1_455 S
C1114 C1111 1.499 . S
C1114 C1115 1.373 . S
C1114 C1116 1.389 . S
C1115 H1094 0.950 . S
C1115 C1114 1.373 . S
C1115 C1131 1.377 . S
C1116 C1114 1.389 . S
C1116 C1117 1.524 1_655 S
C1116 C1130 1.377 . S
C1117 C1116 1.524 1_455 S
C1117 C1118 1.397 . S
C1117 C1122 1.363 . S
C1118 H1095 0.950 . S
C1118 C1117 1.397 . S
C1118 C1119 1.334 . S
C1119 H1096 0.950 . S
C1119 C1118 1.334 . S
C1119 C1120 1.287 . S
C1120 C1119 1.287 . S
C1120 C1121 1.524 . S
C1120 H1139 0.913 . S
C1121 H1097 0.950 . S
C1121 C1120 1.524 . S
C1121 C1122 1.415 . S
C1122 H1098 0.950 . S
C1122 C1117 1.363 . S
C1122 C1121 1.415 . S
C1123 H1099 0.951 . S
C1123 C1124 1.366 . S
C1123 C1125 1.388 1_565 S
C1124 C1123 1.366 . S
C1124 C1128 1.385 . S
C1125 H1100 0.951 . S
C1125 C1123 1.388 1_545 S
C1125 C1126 1.366 . S
C1126 C1125 1.366 . S
C1126 C1127 1.414 . S
C1126 C1129 1.499 . S
C1127 H1101 0.950 . S
C1127 C1126 1.414 . S
C1127 C1128 1.374 1_545 S
C1128 H1102 0.950 . S
C1128 C1124 1.385 . S
C1128 C1127 1.374 1_565 S
C1129 C1126 1.499 . S
C1129 C1130 1.373 . S
C1129 C1131 1.389 . S
C1130 H1103 0.950 . S
C1130 C1116 1.377 . S
C1130 C1129 1.373 . S
C1131 C1115 1.377 . S
C1131 C1129 1.389 . S
C1131 C1132 1.524 . S
C1132 C1131 1.524 . S
C1132 C1133 1.397 . S
C1132 C1137 1.363 . S
C1133 H1104 0.950 . S
C1133 C1132 1.397 . S
C1133 C1134 1.334 . S
C1134 H1105 0.950 . S
C1134 C1133 1.334 . S
C1134 C1135 1.287 . S
C1135 C1134 1.287 . S
C1135 C1136 1.524 . S
C1135 H1138 0.999 . S
C1136 H1106 0.950 . S
C1136 C1135 1.524 . S
C1136 C1137 1.415 . S
C1137 H1107 0.950 . S
C1137 C1132 1.363 . S
C1137 C1136 1.415 . S
H1138 C1135 0.999 . S
H1139 C1120 0.913 . S
C259 C168 2.234 . S
C274 C18 2.520 . S
C309 C218 2.533 . S
C324 C48 2.235 . S
C359 C98 2.520 . S
C374 C128 2.234 . S
C409 C8 2.236 . S
C424 C178 2.534 . S
C459 C208 2.234 . S
C474 C58 2.520 . S
C509 C88 2.236 . S
C524 C138 2.534 . S
C559 C19 1.951 . S
C574 C95 1.918 . S
C609 C59 1.951 . S
C624 C15 1.918 . S
C659 C99 1.951 . S
C674 C55 1.918 . S
C709 C125 1.861 . S
C724 C169 1.831 . S
C759 C165 1.861 . S
C774 C209 1.832 . S
C809 C129 1.831 . S
C824 C205 1.861 . S
C859 C9 0.896 . S
C874 C85 0.904 . S
C909 C49 0.896 . S
C924 C5 0.904 . S
C959 C89 0.894 . S
C974 C45 0.903 . S
C1009 C135 0.972 . S
C1024 C179 0.986 . S
C1059 C175 0.972 . S
C1074 C219 0.986 . S
C1109 C139 0.987 . S
C1124 C215 0.973 . S
