# Generated by pormake.
# Topology why, (6)-cn, num edge types: 1
# Building blocks:
#     Node 0, Type 0, BuildingBlock: PAMTOO_clean_sbu_0, # of connection points: 6
#     Node 1, Type 0, BuildingBlock: PAMTOO_clean_sbu_0, # of connection points: 6
#     Node 2, Type 0, BuildingBlock: PAMTOO_clean_sbu_0, # of connection points: 6
#     Node 3, Type 0, BuildingBlock: PAMTOO_clean_sbu_0, # of connection points: 6
#     Node 4, Type 0, BuildingBlock: PAMTOO_clean_sbu_0, # of connection points: 6
#     Node 5, Type 0, BuildingBlock: PAMTOO_clean_sbu_0, # of connection points: 6
#     Node 6, Type 0, BuildingBlock: PAMTOO_clean_sbu_0, # of connection points: 6
#     Node 7, Type 0, BuildingBlock: PAMTOO_clean_sbu_0, # of connection points: 6
#     Node 8, Type 0, BuildingBlock: PAMTOO_clean_sbu_0, # of connection points: 6
#     Node 9, Type 0, BuildingBlock: PAMTOO_clean_sbu_0, # of connection points: 6
#     Node 10, Type 0, BuildingBlock: PAMTOO_clean_sbu_0, # of connection points: 6
#     Node 11, Type 0, BuildingBlock: PAMTOO_clean_sbu_0, # of connection points: 6
#     Node 12, Type 0, BuildingBlock: PAMTOO_clean_sbu_0, # of connection points: 6
#     Node 13, Type 0, BuildingBlock: PAMTOO_clean_sbu_0, # of connection points: 6
#     Node 14, Type 0, BuildingBlock: PAMTOO_clean_sbu_0, # of connection points: 6
#     Node 15, Type 0, BuildingBlock: PAMTOO_clean_sbu_0, # of connection points: 6
#     Edge 16, Type (0, 0), BuildingBlock: CIFDUS_clean_linker_0, # of connection points: 2
#     Edge 17, Type (0, 0), BuildingBlock: CIFDUS_clean_linker_0, # of connection points: 2
#     Edge 18, Type (0, 0), BuildingBlock: CIFDUS_clean_linker_0, # of connection points: 2
#     Edge 19, Type (0, 0), BuildingBlock: CIFDUS_clean_linker_0, # of connection points: 2
#     Edge 20, Type (0, 0), BuildingBlock: CIFDUS_clean_linker_0, # of connection points: 2
#     Edge 21, Type (0, 0), BuildingBlock: CIFDUS_clean_linker_0, # of connection points: 2
#     Edge 22, Type (0, 0), BuildingBlock: CIFDUS_clean_linker_0, # of connection points: 2
#     Edge 23, Type (0, 0), BuildingBlock: CIFDUS_clean_linker_0, # of connection points: 2
#     Edge 24, Type (0, 0), BuildingBlock: CIFDUS_clean_linker_0, # of connection points: 2
#     Edge 25, Type (0, 0), BuildingBlock: CIFDUS_clean_linker_0, # of connection points: 2
#     Edge 26, Type (0, 0), BuildingBlock: CIFDUS_clean_linker_0, # of connection points: 2
#     Edge 27, Type (0, 0), BuildingBlock: CIFDUS_clean_linker_0, # of connection points: 2
#     Edge 28, Type (0, 0), BuildingBlock: CIFDUS_clean_linker_0, # of connection points: 2
#     Edge 29, Type (0, 0), BuildingBlock: CIFDUS_clean_linker_0, # of connection points: 2
#     Edge 30, Type (0, 0), BuildingBlock: CIFDUS_clean_linker_0, # of connection points: 2
#     Edge 31, Type (0, 0), BuildingBlock: CIFDUS_clean_linker_0, # of connection points: 2
#     Edge 32, Type (0, 0), BuildingBlock: CIFDUS_clean_linker_0, # of connection points: 2
#     Edge 33, Type (0, 0), BuildingBlock: CIFDUS_clean_linker_0, # of connection points: 2
#     Edge 34, Type (0, 0), BuildingBlock: CIFDUS_clean_linker_0, # of connection points: 2
#     Edge 35, Type (0, 0), BuildingBlock: CIFDUS_clean_linker_0, # of connection points: 2
#     Edge 36, Type (0, 0), BuildingBlock: CIFDUS_clean_linker_0, # of connection points: 2
#     Edge 37, Type (0, 0), BuildingBlock: CIFDUS_clean_linker_0, # of connection points: 2
#     Edge 38, Type (0, 0), BuildingBlock: CIFDUS_clean_linker_0, # of connection points: 2
#     Edge 39, Type (0, 0), BuildingBlock: CIFDUS_clean_linker_0, # of connection points: 2
#     Edge 40, Type (0, 0), BuildingBlock: CIFDUS_clean_linker_0, # of connection points: 2
#     Edge 41, Type (0, 0), BuildingBlock: CIFDUS_clean_linker_0, # of connection points: 2
#     Edge 42, Type (0, 0), BuildingBlock: CIFDUS_clean_linker_0, # of connection points: 2
#     Edge 43, Type (0, 0), BuildingBlock: CIFDUS_clean_linker_0, # of connection points: 2
#     Edge 44, Type (0, 0), BuildingBlock: CIFDUS_clean_linker_0, # of connection points: 2
#     Edge 45, Type (0, 0), BuildingBlock: CIFDUS_clean_linker_0, # of connection points: 2
#     Edge 46, Type (0, 0), BuildingBlock: CIFDUS_clean_linker_0, # of connection points: 2
#     Edge 47, Type (0, 0), BuildingBlock: CIFDUS_clean_linker_0, # of connection points: 2
#     Edge 48, Type (0, 0), BuildingBlock: CIFDUS_clean_linker_0, # of connection points: 2
#     Edge 49, Type (0, 0), BuildingBlock: CIFDUS_clean_linker_0, # of connection points: 2
#     Edge 50, Type (0, 0), BuildingBlock: CIFDUS_clean_linker_0, # of connection points: 2
#     Edge 51, Type (0, 0), BuildingBlock: CIFDUS_clean_linker_0, # of connection points: 2
#     Edge 52, Type (0, 0), BuildingBlock: CIFDUS_clean_linker_0, # of connection points: 2
#     Edge 53, Type (0, 0), BuildingBlock: CIFDUS_clean_linker_0, # of connection points: 2
#     Edge 54, Type (0, 0), BuildingBlock: CIFDUS_clean_linker_0, # of connection points: 2
#     Edge 55, Type (0, 0), BuildingBlock: CIFDUS_clean_linker_0, # of connection points: 2
#     Edge 56, Type (0, 0), BuildingBlock: CIFDUS_clean_linker_0, # of connection points: 2
#     Edge 57, Type (0, 0), BuildingBlock: CIFDUS_clean_linker_0, # of connection points: 2
#     Edge 58, Type (0, 0), BuildingBlock: CIFDUS_clean_linker_0, # of connection points: 2
#     Edge 59, Type (0, 0), BuildingBlock: CIFDUS_clean_linker_0, # of connection points: 2
#     Edge 60, Type (0, 0), BuildingBlock: CIFDUS_clean_linker_0, # of connection points: 2
#     Edge 61, Type (0, 0), BuildingBlock: CIFDUS_clean_linker_0, # of connection points: 2
#     Edge 62, Type (0, 0), BuildingBlock: CIFDUS_clean_linker_0, # of connection points: 2
#     Edge 63, Type (0, 0), BuildingBlock: CIFDUS_clean_linker_0, # of connection points: 2
# Relax obj value: 0.409
# Max RMSD: 0.222
# Mean RMSD: 0.222
data_MOF--net-why--node1-PAMTOO_clean_sbu_0--edge1-CIFDUS_clean_linker_0
_symmetry_space_group_name_H-M    P1
_symmetry_Int_Tables_number       1
_symmetry_cell_setting            triclinic
loop_
_symmetry_equiv_pos_as_xyz
'x, y, z'
_cell_length_a     41.654772
_cell_length_b     41.388061
_cell_length_c     36.457398
_cell_angle_alpha  90.353254
_cell_angle_beta   89.991993
_cell_angle_gamma 90.008065
loop_
_atom_site_label
_atom_site_type_symbol
_atom_site_fract_x
_atom_site_fract_y
_atom_site_fract_z
_atom_type_partial_charge
Dy0 Dy 0.47957 0.28216 0.11811 0.0
Dy1 Dy 0.51975 0.24388 0.06183 0.0
C2 C 0.49981 0.20839 0.13805 0.0
O3 O 0.52261 0.31607 0.11251 0.0
O4 O 0.55682 0.28254 0.0818 0.0
O5 O 0.478 0.3151 0.16423 0.0
O6 O 0.43486 0.29012 0.14662 0.0
O7 O 0.51247 0.28963 0.03184 0.0
O8 O 0.47456 0.31404 0.06856 0.0
O9 O 0.47115 0.24507 0.03178 0.0
O10 O 0.44015 0.26309 0.0795 0.0
O11 O 0.52543 0.21402 0.01376 0.0
O12 O 0.56554 0.22143 0.0507 0.0
C13 C 0.55129 0.3109 0.09809 0.0
O14 O 0.49653 0.23794 0.15095 0.0
O15 O 0.504 0.20523 0.10251 0.0
C16 C 0.44531 0.29351 0.21006 0.0
C17 C 0.43843 0.26952 0.28172 0.0
C18 C 0.43823 0.24822 0.25159 0.0
C19 C 0.4418 0.26012 0.21603 0.0
C20 C 0.44717 0.31453 0.2401 0.0
C21 C 0.4438 0.30269 0.27558 0.0
C22 C 0.44893 0.30638 0.17284 0.0
C23 C 0.49156 0.31274 0.03804 0.0
C24 C 0.44249 0.25279 0.04501 0.0
C25 C 0.5759 0.21916 0.98757 0.0
C26 C 0.60842 0.23634 0.92334 0.0
C27 C 0.59691 0.26039 0.94727 0.0
C28 C 0.58066 0.25184 0.97917 0.0
C29 C 0.58784 0.19509 0.96423 0.0
C30 C 0.60408 0.20362 0.93228 0.0
C31 C 0.55612 0.21032 0.0189 0.0
H32 H 0.43399 0.22264 0.25546 0.0
H33 H 0.44106 0.24328 0.19319 0.0
H34 H 0.45047 0.34024 0.23606 0.0
H35 H 0.44336 0.31994 0.29805 0.0
H36 H 0.5997 0.28576 0.94084 0.0
H37 H 0.57118 0.27068 0.99687 0.0
H38 H 0.58409 0.16979 0.97037 0.0
H39 H 0.61313 0.18464 0.91449 0.0
Dy40 Dy 0.71903 0.737 0.36304 0.0
Dy41 Dy 0.76471 0.77675 0.31272 0.0
C42 C 0.79037 0.75618 0.39397 0.0
O43 O 0.68856 0.78275 0.35776 0.0
O44 O 0.72706 0.81482 0.33226 0.0
O45 O 0.70898 0.69045 0.38684 0.0
O46 O 0.68035 0.73219 0.402 0.0
O47 O 0.72249 0.77196 0.27596 0.0
O48 O 0.6915 0.73761 0.31042 0.0
O49 O 0.76231 0.72892 0.28008 0.0
O50 O 0.73992 0.69794 0.32494 0.0
O51 O 0.80208 0.7812 0.27212 0.0
O52 O 0.78575 0.82351 0.30188 0.0
C53 C 0.69735 0.81133 0.34542 0.0
O54 O 0.75964 0.75259 0.40207 0.0
O55 O 0.79802 0.7606 0.35932 0.0
C56 C 0.65341 0.68319 0.3896 0.0
C57 C 0.59893 0.64844 0.36644 0.0
C58 C 0.62279 0.63359 0.38796 0.0
C59 C 0.6497 0.65085 0.39949 0.0
C60 C 0.63058 0.69768 0.36645 0.0
C61 C 0.60337 0.6805 0.35523 0.0
C62 C 0.68228 0.70074 0.40138 0.0
C63 C 0.69687 0.75396 0.28027 0.0
C64 C 0.75226 0.70033 0.29156 0.0
C65 C 0.7975 0.82982 0.2395 0.0
C66 C 0.78402 0.86535 0.17588 0.0
C67 C 0.77029 0.83471 0.18092 0.0
C68 C 0.77682 0.81717 0.21258 0.0
C69 C 0.81174 0.8601 0.23426 0.0
C70 C 0.805 0.8778 0.20268 0.0
C71 C 0.80235 0.81264 0.27413 0.0
H72 H 0.61976 0.60916 0.39788 0.0
H73 H 0.66735 0.6391 0.41669 0.0
H74 H 0.63343 0.72245 0.35757 0.0
H75 H 0.58525 0.69258 0.339 0.0
H76 H 0.75374 0.82474 0.16091 0.0
H77 H 0.76523 0.79399 0.21633 0.0
H78 H 0.82758 0.87028 0.25488 0.0
H79 H 0.81605 0.90129 0.19927 0.0
Dy80 Dy 0.26481 0.98184 0.60846 0.0
Dy81 Dy 0.22246 1.02359 0.55585 0.0
C82 C 0.24467 1.05648 0.63426 0.0
O83 O 0.2194 0.95002 0.60393 0.0
O84 O 0.18556 0.98703 0.57861 0.0
O85 O 0.26515 0.95198 0.65674 0.0
O86 O 0.31 0.96623 0.63114 0.0
O87 O 0.23258 0.9806 0.52114 0.0
O88 O 0.26375 0.94931 0.55934 0.0
O89 O 0.27053 1.02186 0.5249 0.0
O90 O 0.30361 0.99776 0.56685 0.0
O91 O 0.21835 1.06439 0.51962 0.0
O92 O 0.17624 1.03634 0.53335 0.0
C93 C 0.19029 0.95762 0.59216 0.0
O94 O 0.25608 1.02789 0.6433 0.0
O95 O 0.23219 1.06002 0.60143 0.0
C96 C 0.30647 0.96885 0.69561 0.0
C97 C 0.32579 0.99521 0.76339 0.0
C98 C 0.32679 1.01414 0.73162 0.0
C99 C 0.31698 1.00112 0.69799 0.0
C100 C 0.30388 0.95052 0.72752 0.0
C101 C 0.31337 0.96357 0.76112 0.0
C102 C 0.29614 0.95485 0.66047 0.0
C103 C 0.24953 0.95451 0.52771 0.0
C104 C 0.29942 1.01094 0.53402 0.0
C105 C 0.17923 1.05729 0.47394 0.0
C106 C 0.15717 1.04876 0.40185 0.0
C107 C 0.18563 1.03369 0.41321 0.0
C108 C 0.19654 1.03781 0.4492 0.0
C109 C 0.1518 1.07363 0.46207 0.0
C110 C 0.14081 1.06939 0.42626 0.0
C111 C 0.18817 1.05896 0.51271 0.0
H112 H 0.33645 1.03843 0.73256 0.0
H113 H 0.31832 1.01606 0.67374 0.0
H114 H 0.29519 0.92586 0.72632 0.0
H115 H 0.31296 0.94803 0.78492 0.0
H116 H 0.1984 1.01742 0.39495 0.0
H117 H 0.21779 1.02496 0.45809 0.0
H118 H 0.13825 1.08877 0.48086 0.0
H119 H 1.11883 1.0813 0.41797 0.0
Dy120 Dy 1.0261 0.52341 0.85668 0.0
Dy121 Dy 0.98259 0.47918 0.80815 0.0
C122 C 0.95465 0.50209 0.88727 0.0
O123 O 1.05837 0.47842 0.85319 0.0
O124 O 1.01959 0.44349 0.8332 0.0
O125 O 1.0591 0.53052 0.90169 0.0
O126 O 1.03621 0.57167 0.87619 0.0
O127 O 1.02506 0.48638 0.772 0.0
O128 O 1.05695 0.52017 0.80685 0.0
O129 O 0.98506 0.52511 0.77312 0.0
O130 O 1.00691 0.56028 0.81471 0.0
O131 O 0.94197 0.47249 0.7721 0.0
O132 O 0.96858 0.43108 0.79114 0.0
C133 C 1.04968 0.44858 0.84444 0.0
O134 O 0.98506 0.50784 0.89482 0.0
O135 O 0.9473 0.49482 0.85318 0.0
C136 C 1.03863 0.57175 0.94007 0.0
C137 C 1.01042 0.59353 1.00599 0.0
C138 C 1.00615 0.56144 0.99423 0.0
C139 C 1.02024 0.55063 0.96165 0.0
C140 C 1.04191 0.60402 0.95091 0.0
C141 C 1.02807 0.61481 0.98359 0.0
C142 C 1.05179 0.56109 0.90464 0.0
C143 C 1.0512 0.5038 0.77654 0.0
C144 C 0.99479 0.55476 0.78161 0.0
C145 C 0.94847 0.42921 0.73107 0.0
C146 C 0.95356 0.40396 0.65948 0.0
C147 C 0.97618 0.42644 0.6726 0.0
C148 C 0.97357 0.43902 0.70807 0.0
C149 C 0.92549 0.40731 0.71797 0.0
C150 C 0.92795 0.39482 0.68235 0.0
C151 C 0.94655 0.4415 0.76879 0.0
H152 H 0.99278 0.54446 0.01079 0.0
H153 H 1.01706 0.52564 0.9536 0.0
H154 H 1.05552 0.62079 0.93432 0.0
H155 H 1.03262 0.6395 0.99211 0.0
H156 H 0.99597 0.43417 0.65547 0.0
H157 H 0.99126 0.45618 0.71774 0.0
H158 H 0.90593 0.39956 0.73542 0.0
H159 H 0.91037 0.37729 0.67309 0.0
Dy160 Dy 0.72074 1.01367 0.94909 0.0
Dy161 Dy 0.76653 0.96898 0.90178 0.0
C162 C 0.74629 0.9473 0.98388 0.0
O163 O 0.76835 1.01406 0.98183 0.0
O164 O 0.80363 0.99018 0.9417 0.0
O165 O 0.71499 1.05439 0.98588 0.0
O166 O 0.67324 1.03013 0.96371 0.0
O167 O 0.75876 1.01208 0.86332 0.0
O168 O 0.73166 1.04696 0.90045 0.0
O169 O 0.72147 0.93771 0.90566 0.0
O170 O 0.68543 0.97256 0.93164 0.0
O171 O 0.81171 0.94662 0.88791 0.0
O172 O 0.77003 0.93951 0.85294 0.0
C173 C 0.79795 1.00393 0.97397 0.0
O174 O 0.72992 0.9741 0.98851 0.0
O175 O 0.76087 0.94006 0.95296 0.0
C176 C 0.66991 1.04971 0.02504 0.0
C177 C 0.64479 1.04588 0.09682 0.0
C178 C 0.67101 1.06615 0.08928 0.0
C179 C 0.6834 1.06809 0.05371 0.0
C180 C 0.64325 1.03001 0.03246 0.0
C181 C 0.63085 1.02814 0.06791 0.0
C182 C 0.68394 1.05095 0.98779 0.0
C183 C 0.74592 1.04091 0.86885 0.0
C184 C 0.69211 0.94346 0.91781 0.0
C185 C 0.80157 0.89408 0.86509 0.0
C186 C 0.80861 0.82663 0.86974 0.0
C187 C 0.80173 0.84149 0.83593 0.0
C188 C 0.79838 0.87488 0.83366 0.0
C189 C 0.80604 0.87927 0.89937 0.0
C190 C 0.80979 0.84578 0.90163 0.0
C191 C 0.79856 0.9293 0.8619 0.0
H192 H 0.68232 1.08005 0.11097 0.0
H193 H 0.70379 1.08371 0.04873 0.0
H194 H 0.63198 1.01584 0.01096 0.0
H195 H 0.61015 1.01288 0.07264 0.0
H196 H 0.80134 0.82762 0.81064 0.0
H197 H 0.79423 0.88581 0.80714 0.0
H198 H 0.80762 0.89361 0.92426 0.0
H199 H 0.81529 0.83503 0.92791 0.0
Dy200 Dy 0.47748 0.47398 0.69856 0.0
Dy201 Dy 0.52193 0.51327 0.64695 0.0
C202 C 0.54643 0.49812 0.72852 0.0
O203 O 0.48092 0.52207 0.7306 0.0
O204 O 0.49959 0.55282 0.68353 0.0
O205 O 0.4397 0.4701 0.73885 0.0
O206 O 0.45965 0.42693 0.71416 0.0
O207 O 0.48073 0.49599 0.60998 0.0
O208 O 0.44258 0.48916 0.65285 0.0
O209 O 0.55378 0.46859 0.65354 0.0
O210 O 0.51482 0.43605 0.67734 0.0
O211 O 0.55207 0.51649 0.59895 0.0
O212 O 0.53664 0.56005 0.62715 0.0
C213 C 0.48922 0.55079 0.71785 0.0
O214 O 0.51996 0.48166 0.73412 0.0
O215 O 0.55274 0.51232 0.69715 0.0
C216 C 0.44664 0.42442 0.77707 0.0
C217 C 0.46156 0.39574 0.84488 0.0
C218 C 0.46062 0.4295 0.84176 0.0
C219 C 0.45343 0.44376 0.80805 0.0
C220 C 0.44632 0.39071 0.78072 0.0
C221 C 0.45391 0.37649 0.81424 0.0
C222 C 0.44187 0.43874 0.74045 0.0
C223 C 0.45005 0.49312 0.6181 0.0
C224 C 0.54481 0.43971 0.66494 0.0
C225 C 0.53407 0.56022 0.5631 0.0
C226 C 0.50505 0.58546 0.49966 0.0
C227 C 0.50052 0.55292 0.50899 0.0
C228 C 0.51484 0.54042 0.54051 0.0
C229 C 0.53756 0.59291 0.55463 0.0
C230 C 0.5232 0.60544 0.52327 0.0
C231 C 0.54836 0.54773 0.59704 0.0
H232 H 0.46667 0.44479 0.86497 0.0
H233 H 0.45403 0.46986 0.80611 0.0
H234 H 0.44107 0.37531 0.75733 0.0
H235 H 0.45427 0.35037 0.81611 0.0
H236 H 0.48689 0.53694 0.49123 0.0
H237 H 0.51126 0.51516 0.54684 0.0
H238 H 0.5518 0.60868 0.57201 0.0
H239 H 0.5279 0.63044 0.51648 0.0
Dy240 Dy 1.02268 0.23049 0.45424 0.0
Dy241 Dy 0.97845 0.27311 0.40406 0.0
C242 C 1.00013 0.29971 0.48378 0.0
O243 O 0.97555 0.23202 0.48693 0.0
O244 O 0.9411 0.25516 0.44581 0.0
O245 O 1.02877 0.19854 0.50026 0.0
O246 O 1.06871 0.20808 0.46402 0.0
O247 O 0.98696 0.22808 0.36711 0.0
O248 O 1.00778 0.19445 0.40996 0.0
O249 O 1.02441 0.30423 0.4068 0.0
O250 O 1.05893 0.26705 0.43051 0.0
O251 O 0.93212 0.28865 0.38444 0.0
O252 O 0.97565 0.30744 0.35984 0.0
C253 C 0.94629 0.24229 0.4785 0.0
O254 O 1.02131 0.27643 0.48602 0.0
O255 O 0.97957 0.30148 0.45656 0.0
C256 C 1.07882 0.20602 0.52728 0.0
C257 C 1.11038 0.22615 0.59159 0.0
C258 C 1.10095 0.24886 0.56521 0.0
C259 C 1.08534 0.23886 0.53334 0.0
C260 C 1.08827 0.18319 0.5533 0.0
C261 C 1.10404 0.19317 0.58527 0.0
C262 C 1.05964 0.19628 0.49546 0.0
C263 C 0.99647 0.19875 0.3766 0.0
C264 C 1.05385 0.29641 0.41712 0.0
C265 C 0.93488 0.34472 0.37287 0.0
C266 C 0.9181 0.4092 0.3887 0.0
C267 C 0.9339 0.40109 0.35575 0.0
C268 C 0.94208 0.36917 0.34789 0.0
C269 C 0.92042 0.35286 0.40663 0.0
C270 C 0.91178 0.38484 0.4143 0.0
C271 C 0.94488 0.31139 0.36456 0.0
H272 H 1.1051 0.27444 0.5695 0.0
H273 H 1.07787 0.25688 0.51369 0.0
H274 H 1.08309 0.15778 0.54912 0.0
H275 H 1.11138 0.17512 0.60495 0.0
H276 H 0.93833 0.41916 0.33498 0.0
H277 H 0.9537 0.3635 0.32204 0.0
H278 H 0.91536 0.33451 0.42689 0.0
H279 H 0.89929 0.3904 0.43963 0.0
Dy280 Dy 0.26457 0.77558 0.20229 0.0
Dy281 Dy 0.22094 0.73081 0.15439 0.0
C282 C 0.19734 0.75378 0.23547 0.0
O283 O 0.26284 0.72954 0.23725 0.0
O284 O 0.24057 0.69428 0.19604 0.0
O285 O 0.30188 0.78199 0.24252 0.0
O286 O 0.28484 0.82306 0.21162 0.0
O287 O 0.2633 0.74164 0.11482 0.0
O288 O 0.2987 0.75814 0.15801 0.0
O289 O 0.18943 0.77659 0.15657 0.0
O290 O 0.22682 0.81152 0.17967 0.0
O291 O 0.21106 0.6828 0.13392 0.0
O292 O 0.18254 0.72344 0.11552 0.0
C293 C 0.25325 0.69984 0.22877 0.0
O294 O 0.22152 0.77391 0.23752 0.0
O295 O 0.19378 0.73366 0.20766 0.0
C296 C 0.29779 0.83157 0.27349 0.0
C297 C 0.28721 0.86832 0.33723 0.0
C298 C 0.27189 0.83837 0.3326 0.0
C299 C 0.27698 0.82021 0.30084 0.0
C300 C 0.31353 0.86118 0.27827 0.0
C301 C 0.3082 0.87954 0.30993 0.0
C302 C 0.30199 0.81331 0.23933 0.0
C303 C 0.29321 0.74881 0.1241 0.0
C304 C 0.19723 0.80625 0.16707 0.0
C305 C 0.15563 0.67509 0.13018 0.0
C306 C 1.09963 0.64217 0.1515 0.0
C307 C 0.12326 0.62666 0.12999 0.0
C308 C 0.15091 0.64302 0.11937 0.0
C309 C 0.13334 0.69002 0.15384 0.0
C310 C 1.10539 0.67374 0.16421 0.0
C311 C 0.18463 0.69209 0.11813 0.0
H312 H 0.25526 0.82947 0.35304 0.0
H313 H 0.26431 0.79752 0.29742 0.0
H314 H 0.32954 0.87029 0.25731 0.0
H315 H 0.32035 0.90254 0.31305 0.0
H316 H 1.11938 0.6026 0.119 0.0
H317 H 0.16819 0.63092 0.10181 0.0
H318 H 0.13704 0.71456 0.16344 0.0
H319 H 1.08757 0.68632 0.18056 0.0
Dy320 Dy 0.98231 0.78339 0.60685 0.0
Dy321 Dy 1.02463 0.73825 0.55843 0.0
C322 C 1.00242 0.71098 0.63813 0.0
O323 O 1.02724 0.81514 0.60088 0.0
O324 O 1.06133 0.77514 0.58249 0.0
O325 O 0.97988 0.81761 0.65177 0.0
O326 O 0.93624 0.79707 0.62909 0.0
O327 O 1.01828 0.7806 0.52167 0.0
O328 O 0.98302 0.81211 0.55514 0.0
O329 O 0.97761 0.7401 0.52535 0.0
O330 O 0.94387 0.76405 0.56688 0.0
O331 O 1.02943 0.69578 0.52435 0.0
O332 O 1.07152 0.72368 0.53885 0.0
C333 C 1.05672 0.80587 0.59249 0.0
O334 O 0.99556 0.74149 0.64524 0.0
O335 O 1.01104 0.70344 0.60452 0.0
C336 C 0.94169 0.79862 0.69328 0.0
C337 C 0.92986 0.77281 0.76323 0.0
C338 C 0.92938 0.75265 0.73219 0.0
C339 C 0.93539 0.76542 0.69751 0.0
C340 C 0.94331 0.81854 0.7243 0.0
C341 C 0.93742 0.80579 0.75898 0.0
C342 C 0.94949 0.81173 0.65702 0.0
C343 C 1.00003 0.80634 0.52539 0.0
C344 C 0.94844 0.75055 0.5342 0.0
C345 C 1.0701 0.70058 0.47987 0.0
C346 C 1.09227 0.70511 0.40746 0.0
C347 C 1.06071 0.71411 0.41598 0.0
C348 C 1.0497 0.71204 0.4521 0.0
C349 C 1.10132 0.69069 0.47101 0.0
C350 C 1.11242 0.69311 0.43503 0.0
C351 C 1.05987 0.70059 0.51839 0.0
H352 H 0.92345 0.72726 0.73465 0.0
H353 H 0.93478 0.74933 0.67398 0.0
H354 H 0.94875 0.84402 0.72165 0.0
H355 H 0.93721 0.82217 0.78226 0.0
H356 H 1.04509 0.7239 0.39505 0.0
H357 H 1.02559 0.72015 0.45845 0.0
H358 H 1.11739 0.68196 0.49212 0.0
H359 H 0.13699 0.68643 0.42883 0.0
Dy360 Dy 0.22333 0.23899 0.86431 0.0
Dy361 Dy 0.26471 0.27938 0.81044 0.0
C362 C 0.29716 0.25759 0.88836 0.0
O363 O 0.19171 0.28455 0.86061 0.0
O364 O 0.22847 0.31724 0.83279 0.0
O365 O 0.20318 0.23367 0.91861 0.0
O366 O 0.19943 0.19472 0.87872 0.0
O367 O 0.22099 0.27241 0.77694 0.0
O368 O 0.19049 0.24112 0.81563 0.0
O369 O 0.25965 0.23155 0.77858 0.0
O370 O 0.24681 0.20023 0.82755 0.0
O371 O 0.30203 0.28245 0.76968 0.0
O372 O 0.28264 0.32606 0.79402 0.0
C373 C 0.19943 0.31331 0.84749 0.0
O374 O 0.26772 0.25148 0.89957 0.0
O375 O 0.30133 0.2648 0.85364 0.0
C376 C 0.21384 0.18112 0.93898 0.0
C377 C 0.24439 0.13941 0.9886 0.0
C378 C 0.21909 0.15966 1.00019 0.0
C379 C 0.20393 0.18027 0.97557 0.0
C380 C 0.24013 0.16211 0.92765 0.0
C381 C 0.25507 0.14114 0.9522 0.0
C382 C 0.19776 0.20296 0.91324 0.0
C383 C 0.19492 0.2558 0.78409 0.0
C384 C 0.25401 0.20255 0.7922 0.0
C385 C 0.29702 0.32767 0.73106 0.0
C386 C 0.28795 0.3522 0.65997 0.0
C387 C 0.27616 0.36907 0.69071 0.0
C388 C 0.28065 0.35695 0.7259 0.0
C389 C 0.3096 0.31125 0.70041 0.0
C390 C 0.305 0.32333 0.66517 0.0
C391 C 0.30051 0.31384 0.76802 0.0
H392 H 0.20976 0.15831 0.02789 0.0
H393 H 0.18407 0.19509 0.98492 0.0
H394 H 0.24875 0.16297 0.89964 0.0
H395 H 0.27427 1.12562 0.94254 0.0
H396 H 0.26357 0.39179 0.68759 0.0
H397 H 0.27105 0.37044 0.74898 0.0
H398 H 0.32263 0.28879 0.7036 0.0
H399 H 0.31428 0.30977 0.64199 0.0
Dy400 Dy 0.7699 0.48139 0.10927 0.0
Dy401 Dy 0.72371 0.51872 0.05782 0.0
C402 C 0.74653 0.55376 0.13415 0.0
O403 O 0.72647 0.44718 0.10929 0.0
O404 O 0.68968 0.47879 0.07996 0.0
O405 O 0.77919 0.44617 0.15129 0.0
O406 O 0.81683 0.47903 0.13418 0.0
O407 O 0.73134 0.47365 0.02575 0.0
O408 O 0.77086 0.44904 0.05979 0.0
O409 O 0.76981 0.51859 0.02328 0.0
O410 O 0.80558 0.49836 0.06487 0.0
O411 O 0.71532 0.55235 0.0141 0.0
O412 O 0.67547 0.5356 0.0471 0.0
C413 C 0.69697 0.4511 0.09635 0.0
O414 O 0.75388 0.52448 0.14521 0.0
O415 O 0.73847 0.55726 0.09957 0.0
C416 C 0.81187 0.46949 0.19699 0.0
C417 C 0.82171 0.49015 0.26979 0.0
C418 C 0.79112 0.49243 0.25387 0.0
C419 C 0.78628 0.48235 0.21763 0.0
C420 C 0.84259 0.46848 0.21223 0.0
C421 C 0.84751 0.47871 0.24826 0.0
C422 C 0.80714 0.45871 0.15898 0.0
C423 C 0.7523 0.45035 0.0306 0.0
C424 C 0.79957 0.50983 0.03165 0.0
C425 C 0.66608 0.54388 0.98436 0.0
C426 C 0.63034 0.52928 0.9212 0.0
C427 C 0.66085 0.51562 0.92616 0.0
C428 C 0.67853 0.52268 0.95768 0.0
C429 C 0.63574 0.55768 0.97936 0.0
C430 C 0.6179 0.55034 0.94803 0.0
C431 C 0.68424 0.55116 0.01778 0.0
H432 H 0.77084 0.50093 0.26983 0.0
H433 H 0.7624 0.48399 0.20601 0.0
H434 H 0.86267 0.45914 0.19652 0.0
H435 H 0.87127 0.47584 0.25986 0.0
H436 H 0.67073 0.49902 0.90602 0.0
H437 H 0.70182 0.51148 0.96129 0.0
H438 H 0.6258 0.57399 0.99978 0.0
H439 H 0.59445 0.56126 0.94461 0.0
Dy440 Dy 0.52811 1.02293 0.36101 0.0
Dy441 Dy 0.48255 0.98248 0.31002 0.0
C442 C 0.45667 1.00334 0.39187 0.0
O443 O 0.55764 0.97633 0.35666 0.0
O444 O 0.51921 0.94409 0.33065 0.0
O445 O 0.53711 1.06856 0.38823 0.0
O446 O 0.56935 1.02813 0.39632 0.0
O447 O 0.52811 0.9819 0.2785 0.0
O448 O 0.55293 1.02478 0.30652 0.0
O449 O 0.48505 1.03098 0.27882 0.0
O450 O 0.50663 1.06209 0.32442 0.0
O451 O 0.45016 0.97866 0.26399 0.0
O452 O 0.45776 0.93751 0.29914 0.0
C453 C 0.54872 0.94755 0.34451 0.0
O454 O 0.48732 1.00799 0.39991 0.0
O455 O 0.44902 0.99776 0.35727 0.0
C456 C 0.59219 1.07926 0.38549 0.0
C457 C 0.64317 1.11795 0.36051 0.0
C458 C 0.62066 0.13014 0.38597 0.0
C459 C 0.59549 1.11093 0.39838 0.0
C460 C 0.61336 1.06759 0.35834 0.0
C461 C 0.63884 1.08671 0.34618 0.0
C462 C 0.56551 1.05933 0.39879 0.0
C463 C 0.55094 1.00359 0.2797 0.0
C464 C 0.49447 1.05973 0.29098 0.0
C465 C 0.4534 0.92806 0.23562 0.0
C466 C 0.46853 0.89365 0.17097 0.0
C467 C 0.49298 0.90445 0.19465 0.0
C468 C 0.48548 0.92143 0.22666 0.0
C469 C 0.42886 0.9175 0.21218 0.0
C470 C 0.43634 0.90036 0.18006 0.0
C471 C 0.44597 0.94774 0.26816 0.0
H472 H 0.62367 0.15383 0.39828 0.0
H473 H 0.57903 1.12056 0.41871 0.0
H474 H 0.61072 1.04342 0.34717 0.0
H475 H 0.65595 1.07663 0.32687 0.0
H476 H 0.51801 0.90013 0.18822 0.0
H477 H 0.50478 0.92966 0.24427 0.0
H478 H 0.40397 0.92265 0.21859 0.0
H479 H 0.41696 0.89207 0.16258 0.0
Dy480 Dy 0.21983 0.51551 0.44677 0.0
Dy481 Dy 0.26252 0.4682 0.40001 0.0
C482 C 0.23901 0.44722 0.48078 0.0
O483 O 0.26672 0.51367 0.48015 0.0
O484 O 0.30058 0.48726 0.44056 0.0
O485 O 0.21369 0.54976 0.49107 0.0
O486 O 0.17468 0.54052 0.45324 0.0
O487 O 0.25404 0.51102 0.36102 0.0
O488 O 0.23678 0.54917 0.40134 0.0
O489 O 0.21623 0.43837 0.40486 0.0
O490 O 0.18269 0.47815 0.42518 0.0
O491 O 0.30781 0.44787 0.38279 0.0
O492 O 0.26377 0.43414 0.355 0.0
C493 C 0.29564 0.50176 0.47264 0.0
O494 O 0.21957 0.47208 0.48218 0.0
O495 O 0.25879 0.44231 0.45329 0.0
C496 C 0.16241 0.54566 0.51576 0.0
C497 C 0.12882 0.52913 0.57971 0.0
C498 C 0.13659 0.50532 0.55359 0.0
C499 C 0.15328 0.51352 0.52191 0.0
C500 C 0.15432 0.56964 0.54137 0.0
C501 C 0.13756 0.56144 0.57319 0.0
C502 C 0.18315 0.55322 0.48462 0.0
C503 C 0.2467 0.54153 0.36817 0.0
C504 C 0.187 0.44774 0.41408 0.0
C505 C 0.30038 0.39289 0.36747 0.0
C506 C 0.31372 0.32705 0.37881 0.0
C507 C 0.30485 0.33839 0.34385 0.0
C508 C 0.29834 0.37099 0.33827 0.0
C509 C 0.30714 0.3815 0.40293 0.0
C510 C 0.314 0.34882 0.40851 0.0
C511 C 0.29382 0.42719 0.36086 0.0
H512 H 0.13058 0.48019 0.55811 0.0
H513 H 0.15974 0.49459 0.50262 0.0
H514 H 0.16153 0.59449 0.53712 0.0
H515 H 0.13155 0.5803 0.59274 0.0
H516 H 0.30507 0.32251 0.32012 0.0
H517 H 0.29253 0.37926 0.31091 0.0
H518 H 0.30797 0.39796 0.42614 0.0
H519 H 0.32093 0.34084 0.43562 0.0
Dy520 Dy 0.9782 0.97457 0.19907 0.0
Dy521 Dy 1.02614 1.01517 0.15075 0.0
C522 C 1.04485 0.99815 0.2347 0.0
O523 O 0.98093 1.02337 0.23049 0.0
O524 O 1.00193 1.05475 0.18502 0.0
O525 O 0.93742 0.97168 0.23556 0.0
O526 O 0.9597 0.92799 0.21534 0.0
O527 O 0.98403 1.00552 0.11106 0.0
O528 O 0.9458 0.9882 0.15081 0.0
O529 O 1.05547 0.96895 0.158 0.0
O530 O 1.01565 0.93625 0.17933 0.0
O531 O 1.0502 1.0597 0.13703 0.0
O532 O 1.05617 1.01711 0.10265 0.0
C533 C 0.99005 1.05225 0.21861 0.0
O534 O 1.01853 0.98109 0.23778 0.0
O535 O 1.05262 1.0131 0.20428 0.0
C536 C 0.94145 0.92822 0.27616 0.0
C537 C 0.94765 0.90323 0.34745 0.0
C538 C 0.97149 0.92343 0.33282 0.0
C539 C 0.96843 0.93567 0.29751 0.0
C540 C 0.91714 0.90876 0.29079 0.0
C541 C 0.92019 0.89634 0.32628 0.0
C542 C 0.93927 0.9404 0.23854 0.0
C543 C 0.95371 0.9978 0.11764 0.0
C544 C 1.04599 0.93999 0.16822 0.0
C545 C 1.10232 1.04831 0.11613 0.0
C546 C 0.1693 1.0549 0.12362 0.0
C547 C 0.15532 1.02405 0.1221 0.0
C548 C 1.12205 1.02076 0.11866 0.0
C549 C 1.11611 1.07898 0.11945 0.0
C550 C 0.14919 1.08227 0.12332 0.0
C551 C 1.06731 1.04555 0.11167 0.0
H552 H 0.99269 0.92958 0.3486 0.0
H553 H 0.98734 0.95066 0.28667 0.0
H554 H 0.89612 0.90278 0.27461 0.0
H555 H 0.90155 0.88063 0.33673 0.0
H556 H 0.17023 1.0026 0.12193 0.0
H557 H 1.11194 0.99668 0.11705 0.0
H558 H 1.10133 1.10049 0.11814 0.0
H559 H 0.15915 1.10645 0.12351 0.0
Dy560 Dy 0.51701 0.73443 0.95141 0.0
Dy561 Dy 0.47444 0.7745 0.89692 0.0
C562 C 0.48973 0.8023 0.97897 0.0
O563 O 0.46725 0.73502 0.97998 0.0
O564 O 0.43548 0.75187 0.93249 0.0
O565 O 0.52159 0.70221 0.99733 0.0
O566 O 0.56327 0.71372 0.96436 0.0
O567 O 0.48304 0.72836 0.8624 0.0
O568 O 0.50652 0.69741 0.90607 0.0
O569 O 0.51883 0.80667 0.90252 0.0
O570 O 0.55346 0.77402 0.93333 0.0
O571 O 0.43094 0.79761 0.87855 0.0
O572 O 0.47411 0.79964 0.84526 0.0
C573 C 0.43825 0.74187 0.96682 0.0
O574 O 0.5106 0.7791 0.98397 0.0
O575 O 0.47235 0.80422 0.94889 0.0
C576 C 0.57126 0.70817 0.02782 0.0
C577 C 0.60844 0.72449 0.0896 0.0
C578 C 0.62126 0.70481 0.06169 0.0
C579 C 0.60273 0.6966 0.0311 0.0
C580 C 0.55841 0.72793 0.05569 0.0
C581 C 0.57679 0.73581 0.08648 0.0
C582 C 0.55275 0.70068 0.99452 0.0
C583 C 0.49447 0.70006 0.87273 0.0
C584 C 0.54751 0.80206 0.91701 0.0
C585 C 0.44501 0.84746 0.85212 0.0
C586 C 0.44471 0.91543 0.8524 0.0
C587 C 0.44709 0.89794 0.8192 0.0
C588 C 0.44722 0.86426 0.8191 0.0
C589 C 0.44435 0.86475 0.88547 0.0
C590 C 0.44398 0.89849 0.8856 0.0
C591 C 0.44589 0.81203 0.85177 0.0
H592 H 0.64555 0.69562 0.06365 0.0
H593 H 0.61309 0.68148 1.00981 0.0
H594 H 0.53429 0.73755 0.05355 0.0
H595 H 0.56653 0.75129 0.1075 0.0
H596 H 0.44693 0.91022 0.79305 0.0
H597 H 0.44842 0.85134 0.7932 0.0
H598 H 0.44346 0.85221 0.91141 0.0
H599 H 0.4419 0.91131 0.91149 0.0
Dy600 Dy 0.76204 0.27284 0.69955 0.0
Dy601 Dy 0.71919 0.22975 0.65034 0.0
C602 C 0.69255 0.24979 0.72932 0.0
O603 O 0.76001 0.22694 0.73432 0.0
O604 O 0.73727 0.19244 0.69269 0.0
O605 O 0.79627 0.28036 0.7432 0.0
O606 O 0.78216 0.32031 0.70885 0.0
O607 O 0.75978 0.2481 0.61326 0.0
O608 O 0.79771 0.25495 0.65607 0.0
O609 O 0.68622 0.27433 0.65352 0.0
O610 O 0.72401 0.30877 0.67688 0.0
O611 O 0.68548 0.22185 0.60617 0.0
O612 O 0.71282 0.1818 0.62806 0.0
C613 C 0.74979 0.19754 0.7257 0.0
O614 O 0.71797 0.26823 0.73354 0.0
O615 O 0.68808 0.23183 0.69991 0.0
C616 C 0.78829 0.33011 0.7719 0.0
C617 C 0.77179 0.36179 0.83767 0.0
C618 C 0.74779 0.34906 0.81467 0.0
C619 C 0.75598 0.33344 0.78205 0.0
C620 C 0.81238 0.34269 0.79462 0.0
C621 C 0.80419 0.35852 0.82731 0.0
C622 C 0.79658 0.31155 0.73895 0.0
C623 C 0.79045 0.25074 0.62135 0.0
C624 C 0.69431 0.30387 0.66424 0.0
C625 C 0.70879 0.18483 0.56449 0.0
C626 C 0.73758 0.16915 0.49674 0.0
C627 C 0.73925 0.20083 0.51061 0.0
C628 C 0.7249 0.20861 0.54414 0.0
C629 C 0.70822 0.153 0.55154 0.0
C630 C 0.72238 0.14521 0.51797 0.0
C631 C 0.69555 0.19232 0.60088 0.0
H632 H 0.72266 0.35078 0.82212 0.0
H633 H 0.73708 0.32363 0.76491 0.0
H634 H 0.83744 0.34007 0.78723 0.0
H635 H 0.82317 0.36842 0.84429 0.0
H636 H 0.75066 0.2198 0.49494 0.0
H637 H 0.72611 0.23332 0.55391 0.0
H638 H 0.69648 0.13421 0.56719 0.0
H639 H 0.71985 1.12069 0.50786 0.0
H640 H 0.62054 0.31296 0.1 0.0
H641 H 0.53809 0.37557 0.09438 0.0
H642 H 0.57315 0.42279 0.0924 0.0
H643 H 0.62815 0.4484 0.0922 0.0
H644 H 0.71053 0.38629 0.10326 0.0
H645 H 0.67559 0.33887 0.10323 0.0
C646 C 0.61002 0.33684 0.09834 0.0
C647 C 0.57571 0.33959 0.09728 0.0
C648 C 0.63087 0.365 0.09827 0.0
C649 C 0.56377 0.37161 0.09547 0.0
C650 C 0.58411 0.39913 0.09424 0.0
C651 C 0.6387 0.4246 0.09478 0.0
C652 C 0.67292 0.42208 0.09778 0.0
C653 C 0.61787 0.39649 0.09568 0.0
C654 C 0.68488 0.39016 0.10116 0.0
C655 C 0.66461 0.3625 0.10101 0.0
H656 H 0.62917 0.81197 0.34675 0.0
H657 H 0.70968 0.87729 0.34475 0.0
H658 H 0.67279 0.92344 0.34571 0.0
H659 H 0.61681 0.94683 0.3468 0.0
H660 H 0.53629 0.88155 0.34357 0.0
H661 H 0.57316 0.83537 0.34494 0.0
C662 C 0.63891 0.83624 0.3467 0.0
C663 C 0.67317 0.84017 0.34613 0.0
C664 C 0.617 0.86344 0.34628 0.0
C665 C 0.68413 0.87251 0.34538 0.0
C666 C 0.66271 0.89931 0.34593 0.0
C667 C 0.60706 0.92256 0.34658 0.0
C668 C 0.5728 0.91865 0.34556 0.0
C669 C 0.62895 0.89536 0.3464 0.0
C670 C 0.56183 0.88631 0.34457 0.0
C671 C 0.58324 0.8595 0.34535 0.0
H672 H 0.19064 0.88873 0.59638 0.0
H673 H 0.12471 0.96872 0.59028 0.0
H674 H 1.07938 0.93108 0.5911 0.0
H675 H 1.05674 0.87457 0.5928 0.0
H676 H 0.12251 0.79428 0.59461 0.0
H677 H 0.16793 0.83195 0.59617 0.0
C678 C 0.16642 0.8982 0.59548 0.0
C679 C 0.16212 0.93262 0.5937 0.0
C680 C 0.13961 0.87578 0.59509 0.0
C681 C 0.12982 0.94312 0.59187 0.0
C682 C 1.10345 0.92125 0.59231 0.0
C683 C 1.08094 0.86502 0.59375 0.0
C684 C 1.08516 0.83057 0.59398 0.0
C685 C 1.10775 0.88737 0.59385 0.0
C686 C 1.11746 0.81994 0.59458 0.0
C687 C 0.14386 0.84183 0.59547 0.0
H688 H 1.11803 0.44835 0.84459 0.0
H689 H 1.03787 0.38271 0.84904 0.0
H690 H 1.07497 0.33686 0.85196 0.0
H691 H 0.13113 0.31367 0.8525 0.0
H692 H 0.21111 0.37913 0.8434 0.0
H693 H 0.17407 0.42508 0.84314 0.0
C694 C 1.10841 0.42409 0.84644 0.0
C695 C 1.07417 0.42003 0.84698 0.0
C696 C 0.13043 0.39697 0.84726 0.0
C697 C 1.0634 0.38764 0.84871 0.0
C698 C 1.08495 0.36098 0.8504 0.0
C699 C 0.14073 0.33793 0.85074 0.0
C700 C 0.17493 0.34194 0.84848 0.0
C701 C 1.11868 0.36504 0.84965 0.0
C702 C 0.18564 0.37427 0.84546 0.0
C703 C 0.16412 0.40099 0.84526 0.0
H704 H 0.62286 0.9407 0.91568 0.0
H705 H 0.7059 0.87884 0.92149 0.0
H706 H 0.67133 0.8313 0.92308 0.0
H707 H 0.61654 0.80507 0.92256 0.0
H708 H 0.53371 0.86668 0.91185 0.0
H709 H 0.56816 0.91432 0.91245 0.0
C710 C 0.63363 0.91693 0.9173 0.0
C711 C 0.66793 0.91453 0.91845 0.0
C712 C 0.61308 0.88855 0.91729 0.0
C713 C 0.68019 0.8826 0.92028 0.0
C714 C 0.66013 0.85486 0.92131 0.0
C715 C 0.60579 0.82881 0.92032 0.0
C716 C 0.57158 0.83109 0.91717 0.0
C717 C 0.62636 0.85716 0.91976 0.0
C718 C 0.55937 0.86297 0.91411 0.0
C719 C 0.57936 0.89078 0.91455 0.0
H720 H 0.61298 0.43894 0.66128 0.0
H721 H 0.53265 0.37362 0.66718 0.0
H722 H 0.56959 0.32749 0.66595 0.0
H723 H 0.62574 0.30404 0.66372 0.0
H724 H 0.70597 0.36974 0.6625 0.0
H725 H 0.66896 0.41567 0.66136 0.0
C726 C 0.60326 0.41468 0.66213 0.0
C727 C 0.56902 0.41079 0.66394 0.0
C728 C 0.62521 0.38749 0.66226 0.0
C729 C 0.55817 0.37842 0.66562 0.0
C730 C 0.57963 0.35161 0.6649 0.0
C731 C 0.63539 0.32834 0.66295 0.0
C732 C 0.66966 0.33238 0.66271 0.0
C733 C 0.61338 0.35554 0.66323 0.0
C734 C 0.68044 0.36481 0.66247 0.0
C735 C 0.65894 0.39152 0.66184 0.0
H736 H 1.05323 0.36515 0.41373 0.0
H737 H 1.11933 0.28513 0.41655 0.0
H738 H 0.16462 0.32279 0.41457 0.0
H739 H 0.18709 0.37926 0.41277 0.0
H740 H 1.12129 0.45954 0.4144 0.0
H741 H 1.07584 0.42189 0.4139 0.0
C742 C 1.07748 0.3557 0.41364 0.0
C743 C 1.0819 0.32132 0.41483 0.0
C744 C 1.10424 0.37809 0.41338 0.0
C745 C 1.1142 0.31075 0.41542 0.0
C746 C 0.14051 0.33261 0.41431 0.0
C747 C 0.16287 0.38879 0.41278 0.0
C748 C 0.15858 0.42319 0.41316 0.0
C749 C 0.13611 0.36647 0.41334 0.0
C750 C 0.12632 0.43388 0.41387 0.0
C751 C 1.09992 0.41202 0.41361 0.0
H752 H 0.1287 0.80537 0.16703 0.0
H753 H 0.20793 0.87228 0.16482 0.0
H754 H 0.1702 0.91764 0.16384 0.0
H755 H 1.11396 0.94 0.16422 0.0
H756 H 1.03455 0.8736 0.17091 0.0
H757 H 1.07217 0.82797 0.16959 0.0
C758 C 0.13797 0.82981 0.16606 0.0
C759 C 0.17219 0.83438 0.1655 0.0
C760 C 1.11554 0.85666 0.16645 0.0
C761 C 0.18248 0.86697 0.16503 0.0
C762 C 0.16056 0.89334 0.16451 0.0
C763 C 1.10456 0.91561 0.16527 0.0
C764 C 1.07039 0.91125 0.16735 0.0
C765 C 0.1269 0.88877 0.16528 0.0
C766 C 1.05999 0.87874 0.16917 0.0
C767 C 1.08185 0.85224 0.1684 0.0
H768 H 0.30206 0.25319 0.9664 0.0
H769 H 0.36094 0.25842 0.86931 0.0
H770 H 0.40926 0.25616 0.90688 0.0
H771 H 0.43666 0.25333 0.96791 0.0
H772 H 0.37854 0.25093 0.06558 0.0
H773 H 0.32978 0.25135 0.02803 0.0
C774 C 0.32538 0.2538 0.95325 0.0
C775 C 0.32682 0.25597 0.91411 0.0
C776 C 0.35405 0.25291 0.97559 0.0
C777 C 0.35803 0.25684 0.89876 0.0
C778 C 0.38615 0.25549 0.92051 0.0
C779 C 0.41341 0.25259 0.98122 0.0
C780 C 0.4122 0.25167 0.02036 0.0
C781 C 0.38475 0.25354 0.95906 0.0
C782 C 0.38113 0.25143 0.03604 0.0
C783 C 0.35283 0.25172 0.0143 0.0
H784 H 0.75227 0.55905 0.21199 0.0
H785 H 0.744 0.61793 0.11529 0.0
H786 H 0.74652 0.66675 0.15304 0.0
H787 H 0.75055 0.69456 0.21424 0.0
H788 H 0.75529 0.63615 0.31146 0.0
H789 H 0.75483 0.58703 0.27364 0.0
C790 C 0.75102 0.58247 0.19895 0.0
C791 C 0.74795 0.58378 0.15988 0.0
C792 C 0.752 0.61139 0.2214 0.0
C793 C 0.74627 0.61514 0.14468 0.0
C794 C 0.7478 0.64353 0.16654 0.0
C795 C 0.75184 0.67117 0.22735 0.0
C796 C 0.75349 0.66998 0.26647 0.0
C797 C 0.75067 0.64226 0.20504 0.0
C798 C 0.75428 0.63871 0.28194 0.0
C799 C 0.75394 0.61022 0.26005 0.0
H800 H 0.38895 1.00975 0.38766 0.0
H801 H 0.46465 0.99877 0.4671 0.0
H802 H 0.42506 0.99949 0.51676 0.0
H803 H 0.36771 1.00319 0.53941 0.0
H804 H 0.29281 1.01756 0.45952 0.0
H805 H 0.33227 1.01546 0.41022 0.0
C806 C 0.39704 1.00746 0.41577 0.0
C807 C 0.43069 1.00401 0.42258 0.0
C808 C 0.37368 1.00857 0.44507 0.0
C809 C 0.43956 1.00145 0.45995 0.0
C810 C 0.4166 1.00185 0.48881 0.0
C811 C 0.35983 1.00607 0.51131 0.0
C812 C 0.32631 1.01075 0.50432 0.0
C813 C 0.38338 1.00544 0.48204 0.0
C814 C 0.31776 1.01426 0.46695 0.0
C815 C 0.34064 1.01294 0.43819 0.0
H816 H 1.00126 0.64248 0.63429 0.0
H817 H 0.99975 0.72031 0.71331 0.0
H818 H 0.99774 0.68119 0.76332 0.0
H819 H 0.99678 0.62372 0.78642 0.0
H820 H 0.99456 0.54629 0.70683 0.0
H821 H 0.99768 0.58542 0.65712 0.0
C822 C 1.00057 0.65113 0.66239 0.0
C823 C 1.00102 0.68525 0.66901 0.0
C824 C 0.99867 0.62798 0.69183 0.0
C825 C 0.99963 0.69485 0.70631 0.0
C826 C 0.99846 0.67216 0.73538 0.0
C827 C 0.99678 0.61521 0.75826 0.0
C828 C 0.99518 0.58113 0.75141 0.0
C829 C 0.998 0.63847 0.7288 0.0
C830 C 0.99531 0.57171 0.71402 0.0
C831 C 0.99728 0.59439 0.6851 0.0
H832 H 0.86622 0.99963 0.9693 0.0
H833 H 0.79009 1.00938 0.04869 0.0
H834 H 0.82922 1.00728 0.09848 0.0
H835 H 0.88592 1.00226 0.12138 0.0
H836 H 0.96264 0.99674 0.04234 0.0
H837 H 0.92342 0.99774 0.99229 0.0
C838 C 0.85801 1.00159 0.99742 0.0
C839 C 0.82428 1.00487 1.00419 0.0
C840 C 0.8813 1.00105 0.02686 0.0
C841 C 0.81523 1.00721 0.04154 0.0
C842 C 0.83791 1.00585 0.0705 0.0
C843 C 0.8943 1.00128 0.09327 0.0
C844 C 0.92812 0.99918 0.08663 0.0
C845 C 0.87116 1.00271 0.06381 0.0
C846 C 0.93742 0.99834 0.04931 0.0
C847 C 0.91468 0.99889 0.02025 0.0
H848 H 0.48575 0.69327 0.79517 0.0
H849 H 0.50071 0.63627 0.89227 0.0
H850 H 0.49906 0.58687 0.85545 0.0
H851 H 0.49389 0.55796 0.79494 0.0
H852 H 0.48278 0.61462 0.69707 0.0
H853 H 0.48235 0.66424 0.73407 0.0
C854 C 0.48859 0.67014 0.80853 0.0
C855 C 0.49324 0.6696 0.84746 0.0
C856 C 0.48822 0.64086 0.78656 0.0
C857 C 0.49712 0.63855 0.86298 0.0
C858 C 0.49611 0.60979 0.84166 0.0
C859 C 0.49105 0.58106 0.7815 0.0
C860 C 0.48785 0.58155 0.74244 0.0
C861 C 0.49168 0.61033 0.80331 0.0
C862 C 0.48504 0.61253 0.72655 0.0
C863 C 0.48484 0.64133 0.74799 0.0
H864 H 0.85774 0.24135 0.62527 0.0
H865 H 0.78246 0.25844 0.54673 0.0
H866 H 0.82175 0.25748 0.49689 0.0
H867 H 0.87867 0.25226 0.47395 0.0
H868 H 0.95331 0.23239 0.55257 0.0
H869 H 0.91407 0.23409 0.6022 0.0
C870 C 0.84972 0.24495 0.59732 0.0
C871 C 0.8163 0.25011 0.59074 0.0
C872 C 0.87289 0.24385 0.5679 0.0
C873 C 0.80739 0.25433 0.55362 0.0
C874 C 0.83017 0.25384 0.52467 0.0
C875 C 0.88652 0.24805 0.50184 0.0
C876 C 0.91982 0.24195 0.50845 0.0
C877 C 0.86318 0.24862 0.53118 0.0
C878 C 0.92845 0.2368 0.54552 0.0
C879 C 0.90573 0.23792 0.57442 0.0
H880 H 0.25024 0.60955 0.37376 0.0
H881 H 0.24749 0.53337 0.29276 0.0
H882 H 0.24876 0.57355 0.24371 0.0
H883 H 0.25008 0.63139 0.2223 0.0
H884 H 0.25674 0.70708 0.30369 0.0
H885 H 0.25461 0.66693 0.35247 0.0
C886 C 0.24997 0.6015 0.34543 0.0
C887 C 0.24858 0.56759 0.33786 0.0
C888 C 0.25148 0.62519 0.31664 0.0
C889 C 0.24858 0.55868 0.30035 0.0
C890 C 0.24926 0.58195 0.2719 0.0
C891 C 0.2513 0.63928 0.25065 0.0
C892 C 0.25376 0.67313 0.25838 0.0
C893 C 0.25067 0.61546 0.27943 0.0
C894 C 0.25522 0.68183 0.29592 0.0
C895 C 0.25383 0.65858 0.32426 0.0
H896 H 0.85772 0.74809 0.38907 0.0
H897 H 0.78303 0.76303 0.46915 0.0
H898 H 0.82313 0.76309 0.5183 0.0
H899 H 0.88057 0.75917 0.54016 0.0
H900 H 0.95449 0.74103 0.45983 0.0
H901 H 0.91449 0.74197 0.41097 0.0
C902 C 0.84997 0.75139 0.41722 0.0
C903 C 0.81648 0.75573 0.42442 0.0
C904 C 0.87359 0.75076 0.44619 0.0
C905 C 0.80799 0.75962 0.46177 0.0
C906 C 0.83123 0.75968 0.49031 0.0
C907 C 0.88811 0.7552 0.51205 0.0
C908 C 0.92147 0.74981 0.50474 0.0
C909 C 0.8643 0.75526 0.48315 0.0
C910 C 0.92964 0.7449 0.46743 0.0
C911 C 0.90647 0.74558 0.43897 0.0
H912 H 0.24551 0.19647 0.71588 0.0
H913 H 0.26295 0.13839 0.81142 0.0
H914 H 0.2628 1.08941 0.77314 0.0
H915 H 0.25706 1.06152 0.71141 0.0
H916 H 0.23596 1.12035 0.61718 0.0
H917 H 0.23816 0.16887 0.65525 0.0
C918 C 0.24956 0.1732 0.72854 0.0
C919 C 0.25472 0.17207 0.76726 0.0
C920 C 0.2486 0.14441 0.70609 0.0
C921 C 0.25914 0.14092 0.7822 0.0
C922 C 0.259 1.11252 0.76003 0.0
C923 C 0.25292 1.08487 0.69899 0.0
C924 C 0.24633 1.08622 0.66045 0.0
C925 C 0.25365 1.11366 0.72175 0.0
C926 C 0.24099 1.11747 0.64611 0.0
C927 C 0.24231 0.14573 0.66815 0.0
H928 H 0.86771 0.50411 0.03583 0.0
H929 H 0.79136 0.51488 0.95702 0.0
H930 H 0.83024 0.51256 0.90699 0.0
H931 H 0.88679 0.50724 0.88365 0.0
H932 H 0.96353 0.49927 0.96228 0.0
H933 H 0.92464 0.50089 0.01248 0.0
C934 C 0.85938 0.50617 1.00779 0.0
C935 C 0.82571 0.50993 1.00126 0.0
C936 C 0.88249 0.50526 0.9782 0.0
C937 C 0.8165 0.51237 0.964 0.0
C938 C 0.83902 0.51087 0.93488 0.0
C939 C 0.89522 0.50578 0.9117 0.0
C940 C 0.92897 0.50301 0.91816 0.0
C941 C 0.87223 0.50727 0.94132 0.0
C942 C 0.93836 0.50153 0.95542 0.0
C943 C 0.9158 0.50238 0.9846 0.0
H944 H 0.49431 1.06644 0.2136 0.0
H945 H 0.49317 1.12363 0.31272 0.0
H946 H 0.4941 0.17319 0.2765 0.0
H947 H 0.49623 0.20195 0.21581 0.0
H948 H 0.49993 0.14442 0.11691 0.0
H949 H 0.49721 1.09511 0.15313 0.0
C950 C 0.49391 1.08966 0.22749 0.0
C951 C 0.49318 1.09034 0.26668 0.0
C952 C 0.49522 1.11887 0.20606 0.0
C953 C 0.49347 1.12141 0.28311 0.0
C954 C 0.49409 0.15018 0.26215 0.0
C955 C 0.49645 0.17873 0.20195 0.0
C956 C 0.49833 0.17796 0.16276 0.0
C957 C 0.49516 0.14951 0.22344 0.0
C958 C 0.4986 0.14682 0.14646 0.0
C959 C 0.49697 1.11813 0.16743 0.0
H960 H 0.36323 0.49036 0.46936 0.0
H961 H 0.28806 0.51328 0.54653 0.0
H962 H 0.32665 0.51167 0.59683 0.0
H963 H 0.38264 0.50366 0.62096 0.0
H964 H 0.45849 0.48395 0.54365 0.0
H965 H 0.41979 0.48461 0.49328 0.0
C966 C 0.35511 0.49525 0.49708 0.0
C967 C 0.32184 0.50219 0.50303 0.0
C968 C 0.37811 0.4948 0.52682 0.0
C969 C 0.31291 0.50822 0.53992 0.0
C970 C 0.33526 0.50715 0.56923 0.0
C971 C 0.39091 0.49939 0.59318 0.0
C972 C 0.42435 0.49352 0.58718 0.0
C973 C 0.36807 0.50042 0.56335 0.0
C974 C 0.43355 0.48853 0.55019 0.0
C975 C 0.4111 0.48888 0.52089 0.0
H976 H 0.98976 0.1937 0.29843 0.0
H977 H 0.99809 0.13457 0.39493 0.0
H978 H 0.9954 1.08589 0.35713 0.0
H979 H 0.99152 1.05813 0.29595 0.0
H980 H 0.98669 1.11655 0.19877 0.0
H981 H 0.98703 0.16565 0.23664 0.0
C982 C 0.99084 0.17027 0.31143 0.0
C983 C 0.99404 0.16892 0.35051 0.0
C984 C 0.98983 0.14132 0.2889 0.0
C985 C 0.9957 0.13748 0.36556 0.0
C986 C 0.99409 1.10912 0.34367 0.0
C987 C 0.99015 1.08151 0.28283 0.0
C988 C 0.98854 1.08267 0.2437 0.0
C989 C 0.9912 1.11043 0.30519 0.0
C990 C 0.98766 1.11396 0.22829 0.0
C991 C 0.98792 0.14247 0.25023 0.0
H992 H 0.2976 0.74359 0.04545 0.0
H993 H 0.35684 0.74776 0.14243 0.0
H994 H 0.40494 0.74467 0.10486 0.0
H995 H 0.43231 0.74181 0.04395 0.0
H996 H 0.37427 0.74012 0.94621 0.0
H997 H 0.32546 0.74106 0.98368 0.0
C998 C 0.32093 0.74367 0.05857 0.0
C999 C 0.32246 0.74591 0.09775 0.0
C1000 C 0.34965 0.74227 0.03619 0.0
C1001 C 0.35376 0.74619 0.11298 0.0
C1002 C 0.38182 0.74436 0.09123 0.0
C1003 C 0.40907 0.74125 0.0306 0.0
C1004 C 0.40794 0.74043 0.99147 0.0
C1005 C 0.38038 0.74247 0.05271 0.0
C1006 C 0.37684 0.74048 0.97577 0.0
C1007 C 0.3485 0.7411 0.99747 0.0
H1008 H 0.75127 0.1285 0.72074 0.0
H1009 H 0.74686 0.20584 0.80029 0.0
H1010 H 0.74409 0.16656 0.84989 0.0
H1011 H 0.74278 1.10935 0.87264 0.0
H1012 H 0.75179 1.03183 0.79395 0.0
H1013 H 0.7529 1.07103 0.74391 0.0
C1014 C 0.74985 0.13695 0.74887 0.0
C1015 C 0.74943 0.17106 0.75576 0.0
C1016 C 0.74901 1.11364 0.77832 0.0
C1017 C 0.74762 0.18041 0.79312 0.0
C1018 C 0.74587 0.15764 0.82196 0.0
C1019 C 0.74496 1.1008 0.8446 0.0
C1020 C 0.74695 1.06673 0.83804 0.0
C1021 C 0.74653 1.12404 0.81522 0.0
C1022 C 0.75017 1.05726 0.80085 0.0
C1023 C 0.75079 1.07999 0.77179 0.0
H1024 H 0.59818 0.21081 0.85586 0.0
H1025 H 0.65458 0.28216 0.91381 0.0
H1026 H 0.68326 0.2951 0.85732 0.0
H1027 H 0.69483 0.28324 0.79323 0.0
H1028 H 0.6401 0.2103 0.73541 0.0
H1029 H 0.60788 0.20104 0.79032 0.0
C1030 C 0.61683 0.22911 0.85607 0.0
C1031 C 0.62459 0.24527 0.88888 0.0
C1032 C 0.63339 0.23613 0.82369 0.0
C1033 C 0.64821 0.26947 0.88877 0.0
C1034 C 0.66465 0.27678 0.85659 0.0
C1035 C 0.67567 0.26551 0.79238 0.0
C1036 C 0.6701 0.24724 0.76037 0.0
C1037 C 0.65777 0.25987 0.8241 0.0
C1038 C 0.64496 0.22461 0.75976 0.0
C1039 C 0.62664 0.21918 0.79117 0.0
H1040 H 0.78262 0.84547 0.10478 0.0
H1041 H 0.76618 0.9285 0.17441 0.0
H1042 H 0.75112 0.96056 0.12108 0.0
H1043 H 0.74339 0.96514 0.05499 0.0
H1044 H 0.76207 0.88318 0.98441 0.0
H1045 H 0.77497 0.85022 0.03799 0.0
C1046 C 0.77556 0.87054 0.10819 0.0
C1047 C 0.77553 0.88469 0.14335 0.0
C1048 C 0.76713 0.88884 0.0774 0.0
C1049 C 0.76672 0.91726 0.1475 0.0
C1050 C 0.75792 0.9355 0.11711 0.0
C1051 C 0.74987 0.93994 0.05133 0.0
C1052 C 0.7515 0.92647 0.01592 0.0
C1053 C 0.75806 0.92154 0.08199 0.0
C1054 C 0.76056 0.894 0.0115 0.0
C1055 C 0.76801 0.87521 0.04207 0.0
H1056 H 1.10746 1.01811 0.24136 0.0
H1057 H 1.02327 0.99278 0.30423 0.0
H1058 H 1.05083 1.00594 0.36072 0.0
H1059 H 1.09781 1.02602 0.39274 0.0
H1060 H 0.18326 1.05075 0.33264 0.0
H1061 H 0.15644 1.03639 0.27464 0.0
C1062 C 1.09536 1.01526 0.26748 0.0
C1063 C 1.06347 1.0041 0.26848 0.0
C1064 C 1.11146 1.02297 0.30035 0.0
C1065 C 1.04801 1.00058 0.30253 0.0
C1066 C 1.06363 1.00842 0.33499 0.0
C1067 C 1.11047 1.02844 0.36687 0.0
C1068 C 0.14209 1.03988 0.36661 0.0
C1069 C 1.09516 1.01984 0.3342 0.0
C1070 C 0.1587 1.04216 0.33321 0.0
C1071 C 0.14339 1.03399 0.30019 0.0
H1072 H 0.94755 0.33334 0.50572 0.0
H1073 H 1.04733 0.3169 0.53154 0.0
H1074 H 1.0421 0.3498 0.58703 0.0
H1075 H 1.00827 0.37951 0.63055 0.0
H1076 H 0.90789 0.39388 0.60673 0.0
H1077 H 0.91417 0.36533 0.54815 0.0
C1078 C 0.96826 0.33746 0.52318 0.0
C1079 C 0.99778 0.32279 0.5146 0.0
C1080 C 0.96487 0.35566 0.55559 0.0
C1081 C 1.02432 0.32789 0.53769 0.0
C1082 C 1.02135 0.34663 0.56943 0.0
C1083 C 0.9879 0.37687 0.61224 0.0
C1084 C 0.95768 0.38875 0.62288 0.0
C1085 C 0.9916 0.36008 0.579 0.0
C1086 C 0.93134 0.38466 0.59922 0.0
C1087 C 0.93494 0.36846 0.56572 0.0
H1088 H 0.62594 0.99123 0.13119 0.0
H1089 H 0.63468 1.09423 0.14728 0.0
H1090 H 0.60966 1.08968 0.20773 0.0
H1091 H 0.58103 1.05693 0.2536 0.0
H1092 H 0.56928 0.95455 0.2348 0.0
H1093 H 0.59967 0.95836 0.17778 0.0
C1094 C 0.62228 1.01272 0.14786 0.0
C1095 C 0.63181 1.04304 0.13457 0.0
C1096 C 0.60729 1.01002 0.18208 0.0
C1097 C 0.62767 1.07055 0.15692 0.0
C1098 C 0.6132 1.068 0.1914 0.0
C1099 C 0.58568 1.03541 0.2373 0.0
C1100 C 0.57296 1.00553 0.24823 0.0
C1101 C 0.60241 1.03793 0.20398 0.0
C1102 C 0.57874 0.97785 0.22675 0.0
C1103 C 0.59605 0.98 0.19415 0.0
H1104 H 0.43871 0.40519 0.91435 0.0
H1105 H 0.50927 0.35207 0.85184 0.0
H1106 H 0.52691 0.32439 0.90717 0.0
H1107 H 0.52036 0.31305 0.97171 0.0
H1108 H 0.44773 0.36264 0.03512 0.0
H1109 H 0.43319 0.39452 0.98111 0.0
C1110 C 0.45808 0.38772 0.91311 0.0
C1111 C 0.47256 0.38039 0.87917 0.0
C1112 C 0.46772 0.3714 0.94504 0.0
C1113 C 0.49756 0.3577 0.87764 0.0
C1114 C 0.50772 0.342 0.90923 0.0
C1115 C 0.50149 0.331 0.97409 0.0
C1116 C 0.48507 0.33531 1.00752 0.0
C1117 C 0.49266 0.34833 0.94289 0.0
C1118 C 0.46079 0.35882 1.00978 0.0
C1119 C 0.45236 0.37692 0.97884 0.0
H1120 H 0.19696 0.2833 0.71715 0.0
H1121 H 0.14195 0.21622 0.78219 0.0
H1122 H 1.10988 0.20192 0.72823 0.0
H1123 H 1.10025 0.20583 0.66161 0.0
H1124 H 0.15794 0.27098 0.59712 0.0
H1125 H 0.18627 0.28867 0.65211 0.0
C1126 C 0.17777 0.26574 0.71981 0.0
C1127 C 0.17205 0.25066 0.75365 0.0
C1128 C 0.16014 0.25706 0.68868 0.0
C1129 C 0.14687 0.22821 0.75647 0.0
C1130 C 0.12869 0.21985 0.72558 0.0
C1131 C 1.11914 0.22377 0.65964 0.0
C1132 C 0.12707 0.23698 0.62533 0.0
C1133 C 0.13565 0.23358 0.69136 0.0
C1134 C 0.15118 0.26065 0.62324 0.0
C1135 C 0.16748 0.27069 0.65463 0.0
H1136 H 0.24857 0.97077 0.45667 0.0
H1137 H 0.26669 0.89049 0.52873 0.0
H1138 H 0.28013 0.85634 0.47561 0.0
H1139 H 0.2871 0.84998 0.40862 0.0
H1140 H 0.27085 0.9317 0.33806 0.0
H1141 H 0.25657 0.96503 0.39107 0.0
C1142 C 0.25508 0.94569 0.46084 0.0
C1143 C 0.2562 0.93294 0.49643 0.0
C1144 C 0.26342 0.92671 0.43056 0.0
C1145 C 0.26548 0.90068 0.50147 0.0
C1146 C 0.2732 0.88126 0.47118 0.0
C1147 C 0.28036 0.87508 0.40501 0.0
C1148 C 0.27998 0.88849 0.36967 0.0
C1149 C 0.27234 0.8941 0.43561 0.0
C1150 C 0.2716 0.92106 0.36512 0.0
C1151 C 0.26325 0.94001 0.39532 0.0
H1152 H 0.13183 0.75328 0.39048 0.0
H1153 H 1.08226 0.67164 0.34371 0.0
H1154 H 1.10866 0.68097 0.28432 0.0
H1155 H 0.14898 0.71038 0.24761 0.0
H1156 H 0.19764 0.79255 0.29593 0.0
H1157 H 0.16817 0.78526 0.35266 0.0
C1158 C 0.12671 0.7378 0.36706 0.0
C1159 C 1.10562 0.71176 0.37102 0.0
C1160 C 0.14181 0.74338 0.33345 0.0
C1161 C 1.09867 0.69178 0.34086 0.0
C1162 C 1.11375 0.6971 0.30712 0.0
C1163 C 0.15279 0.72695 0.27037 0.0
C1164 C 0.17581 0.7517 0.26756 0.0
C1165 C 0.13581 0.72255 0.30328 0.0
C1166 C 0.18032 0.77307 0.2973 0.0
C1167 C 0.16352 0.76893 0.3299 0.0
H1168 H 0.23312 0.37812 0.63316 0.0
H1169 H 0.33064 0.35461 0.60312 0.0
H1170 H 0.32254 0.37867 0.54284 0.0
H1171 H 0.28936 0.41037 0.50101 0.0
H1172 H 0.19318 0.43746 0.53286 0.0
H1173 H 0.19917 0.408 0.59032 0.0
C1174 C 0.25263 0.37838 0.61345 0.0
C1175 C 0.2825 0.36491 0.62266 0.0
C1176 C 0.24806 0.39289 0.57929 0.0
C1177 C 0.30734 0.36467 0.59658 0.0
C1178 C 0.3028 0.37857 0.56221 0.0
C1179 C 0.2695 0.40932 0.52023 0.0
C1180 C 0.2409 0.42601 0.51285 0.0
C1181 C 0.27345 0.39321 0.55355 0.0
C1182 C 0.21549 0.42484 0.53812 0.0
C1183 C 0.21892 0.4081 0.57095 0.0
H1184 H 0.53041 0.49207 0.79951 0.0
H1185 H 0.60981 0.51648 0.72877 0.0
H1186 H 0.64344 0.52735 0.7827 0.0
H1187 H 0.64935 0.53131 0.85006 0.0
H1188 H 0.56852 0.50898 0.91944 0.0
H1189 H 0.53609 0.49587 0.86558 0.0
C1190 C 0.55521 0.49939 0.79573 0.0
C1191 C 0.56777 0.50319 0.76024 0.0
C1192 C 0.57394 0.50617 0.82656 0.0
C1193 C 0.59969 0.51333 0.75588 0.0
C1194 C 0.61885 0.51955 0.78665 0.0
C1195 C 0.62469 0.52336 0.85322 0.0
C1196 C 0.61119 0.5211 0.88845 0.0
C1197 C 0.60611 0.51627 0.82211 0.0
C1198 C 0.57919 0.51114 0.89246 0.0
C1199 C 0.56075 0.50355 0.86177 0.0
H1200 H 0.5189 0.80196 0.04525 0.0
H1201 H 0.44706 0.853 0.98285 0.0
H1202 H 0.43441 0.88625 0.03672 0.0
H1203 H 0.44257 0.8993 0.10237 0.0
H1204 H 0.5131 0.8459 0.16412 0.0
H1205 H 0.52744 0.8151 0.10943 0.0
C1206 C 0.50059 0.82048 0.04312 0.0
C1207 C 0.48392 0.82489 1.00995 0.0
C1208 C 0.49307 0.83898 0.07421 0.0
C1209 C 0.46032 0.84909 1.00797 0.0
C1210 C 0.45297 0.86801 0.03884 0.0
C1211 C 0.46091 0.88077 0.10387 0.0
C1212 C 0.47677 0.87499 0.13733 0.0
C1213 C 0.4689 0.86284 0.07226 0.0
C1214 C 0.50082 0.85119 0.13868 0.0
C1215 C 0.50895 0.83344 0.10744 0.0
H1216 H 0.14245 0.54915 0.64911 0.0
H1217 H 1.07801 0.48828 0.58682 0.0
H1218 H 1.05067 0.47246 0.64307 0.0
H1219 H 1.04368 0.47771 0.7089 0.0
H1220 H 1.10591 0.54051 0.77173 0.0
H1221 H 0.13594 0.55348 0.71612 0.0
C1222 C 1.12226 0.53264 0.64789 0.0
C1223 C 1.11215 0.52001 0.61391 0.0
C1224 C 1.10648 0.52384 0.6803 0.0
C1225 C 1.08636 0.49814 0.61271 0.0
C1226 C 1.07069 0.48914 0.6448 0.0
C1227 C 1.06392 0.49406 0.71069 0.0
C1228 C 1.07234 0.50826 0.74446 0.0
C1229 C 1.08044 0.50201 0.67864 0.0
C1230 C 1.09886 0.52922 0.74609 0.0
C1231 C 1.11592 0.53682 0.71427 0.0
H1232 H 1.0021 0.87605 0.37319 0.0
H1233 H 0.90391 0.89624 0.4031 0.0
H1234 H 0.91219 0.87019 0.46251 0.0
H1235 H 0.94705 0.83987 0.50489 0.0
H1236 H 1.04462 0.81856 0.47321 0.0
H1237 H 1.03714 0.84766 0.41582 0.0
C1238 C 0.98263 0.87522 0.39292 0.0
C1239 C 0.95249 0.88818 0.38385 0.0
C1240 C 0.98754 0.8602 0.42675 0.0
C1241 C 0.92727 0.88621 0.40936 0.0
C1242 C 0.93205 0.8715 0.44337 0.0
C1243 C 0.9668 0.84221 0.48569 0.0
C1244 C 0.99641 0.82739 0.49327 0.0
C1245 C 0.96205 0.85825 0.45227 0.0
C1246 C 1.02164 0.82988 0.4679 0.0
C1247 C 1.01735 0.84639 0.43508 0.0
H1248 H 0.59213 0.71977 0.16135 0.0
H1249 H 0.66898 0.74896 0.08953 0.0
H1250 H 0.70242 0.76263 0.14252 0.0
H1251 H 0.71034 0.76447 0.20885 0.0
H1252 H 0.6347 0.7328 0.28117 0.0
H1253 H 0.60001 0.72212 0.22831 0.0
C1254 C 0.61611 0.72938 0.15744 0.0
C1255 C 0.62819 0.73337 0.12176 0.0
C1256 C 0.6353 0.73671 0.18799 0.0
C1257 C 0.65938 0.74545 0.11684 0.0
C1258 C 0.67841 0.75336 0.14706 0.0
C1259 C 0.68612 0.75563 0.21313 0.0
C1260 C 0.675 0.74963 0.24884 0.0
C1261 C 0.66668 0.74886 0.18271 0.0
C1262 C 0.64377 0.73762 0.25389 0.0
C1263 C 0.62396 0.73149 0.22371 0.0
H1264 H 0.71908 0.44768 0.96697 0.0
H1265 H 0.79738 0.40216 0.02463 0.0
H1266 H 0.80973 0.36975 0.97007 0.0
H1267 H 0.80007 0.35685 0.90484 0.0
H1268 H 0.72329 0.40507 0.84742 0.0
H1269 H 0.70856 0.43398 0.90332 0.0
C1270 C 0.73873 0.4305 0.96791 0.0
C1271 C 0.75739 0.42751 0.99984 0.0
C1272 C 0.74611 0.41263 0.93637 0.0
C1273 C 0.7826 0.40495 1.00043 0.0
C1274 C 0.78979 0.38656 0.96917 0.0
C1275 C 0.78023 0.37382 0.90457 0.0
C1276 C 0.76285 0.37885 0.87201 0.0
C1277 C 0.77209 0.39069 0.93677 0.0
C1278 C 0.73684 0.40049 0.8722 0.0
C1279 C 0.72848 0.41714 0.9041 0.0
H1280 H 0.38593 0.23302 0.29471 0.0
H1281 H 0.46204 0.28403 0.35024 0.0
H1282 H 0.42587 0.29729 0.40067 0.0
H1283 H 0.37035 0.31386 0.41149 0.0
H1284 H 0.29371 0.26859 0.35078 0.0
H1285 H 0.33199 0.23235 0.32118 0.0
C1286 C 0.39515 0.24535 0.31885 0.0
C1287 C 0.42587 0.25941 0.31789 0.0
C1288 C 0.37358 0.25476 0.34639 0.0
C1289 C 0.43793 0.27422 0.34984 0.0
C1290 C 0.4171 0.28213 0.37849 0.0
C1291 C 0.36174 0.29477 0.39349 0.0
C1292 C 0.32972 0.29518 0.38131 0.0
C1293 C 0.38422 0.27571 0.37469 0.0
C1294 C 0.31863 0.26955 0.35923 0.0
C1295 C 0.34062 0.24909 0.34192 0.0
H1296 H 0.54155 0.67461 0.38334 0.0
H1297 H 0.58505 0.58639 0.34464 0.0
H1298 H 0.5449 0.5548 0.37725 0.0
H1299 H 0.51582 0.55443 0.43545 0.0
H1300 H 0.47799 0.64331 0.47987 0.0
H1301 H 0.49616 0.67238 0.42575 0.0
C1302 C 0.54105 0.64852 0.38019 0.0
C1303 C 0.56717 0.63263 0.36368 0.0
C1304 C 0.51939 0.63064 0.40131 0.0
C1305 C 0.56573 0.59898 0.35857 0.0
C1306 C 0.54301 0.58092 0.37767 0.0
C1307 C 0.50984 0.57978 0.43235 0.0
C1308 C 0.49746 0.59722 0.46238 0.0
C1309 C 0.52232 0.5966 0.40235 0.0
C1310 C 0.48882 0.62975 0.45756 0.0
C1311 C 0.49951 0.64643 0.42675 0.0
H1312 H 0.38623 1.01818 0.76539 0.0
H1313 H 0.30745 0.99185 0.83564 0.0
H1314 H 0.34502 0.97345 0.88232 0.0
H1315 H 0.39586 0.94451 0.88813 0.0
H1316 H 0.47295 0.96378 0.81256 0.0
H1317 H 0.44124 1.00621 0.7839 0.0
C1318 C 0.37731 1.01025 0.79182 0.0
C1319 C 0.34432 1.00447 0.79643 0.0
C1320 C 0.39904 0.99734 0.8171 0.0
C1321 C 0.33294 0.99528 0.83112 0.0
C1322 C 0.35445 0.98433 0.85759 0.0
C1323 C 0.40645 0.95927 0.86682 0.0
C1324 C 0.43584 0.95001 0.85098 0.0
C1325 C 0.38715 0.98189 0.84884 0.0
C1326 C 0.44975 0.96983 0.82417 0.0
C1327 C 0.43146 0.99386 0.80754 0.0
H1328 H 1.04432 0.67269 0.13484 0.0
H1329 H 1.08108 0.58007 0.16775 0.0
H1330 H 1.0421 0.55291 0.12843 0.0
H1331 H 1.01764 0.5581 0.06782 0.0
H1332 H 0.9858 0.65143 0.03049 0.0
H1333 H 1.00185 0.67568 0.08875 0.0
C1334 C 1.04251 0.64654 0.13519 0.0
C1335 C 1.06687 0.62829 0.15187 0.0
C1336 C 1.0217 0.63131 0.11036 0.0
C1337 C 1.06335 0.59455 0.15361 0.0
C1338 C 1.04138 0.57903 0.13062 0.0
C1339 C 1.01248 0.5834 0.07306 0.0
C1340 C 1.00259 0.60344 0.04414 0.0
C1341 C 1.02334 0.59739 0.10584 0.0
C1342 C 0.99498 0.63588 0.05185 0.0
C1343 C 1.0043 0.64978 0.08514 0.0
H1344 H 0.86428 0.80787 0.90048 0.0
H1345 H 0.7852 0.77167 0.83629 0.0
H1346 H 0.8217 0.73744 0.80115 0.0
H1347 H 0.87516 0.73909 0.77336 0.0
H1348 H 0.95377 0.78265 0.83247 0.0
H1349 H 0.91902 0.7918 0.88535 0.0
C1350 C 0.85476 0.791 0.88033 0.0
C1351 C 0.82262 0.79377 0.86907 0.0
C1352 C 0.8763 0.77366 0.85827 0.0
C1353 C 0.81025 0.77085 0.84422 0.0
C1354 C 0.83126 0.75169 0.82368 0.0
C1355 C 0.88516 0.74887 0.79856 0.0
C1356 C 0.91636 0.76183 0.79856 0.0
C1357 C 0.86446 0.75603 0.82777 0.0
C1358 C 0.92935 0.77366 0.83157 0.0
C1359 C 0.90939 0.77912 0.86169 0.0
H1360 H 0.8701 0.52023 0.30672 0.0
H1361 H 0.78348 0.46535 0.32339 0.0
H1362 H 0.80563 0.44232 0.37899 0.0
H1363 H 0.85591 0.42102 0.40328 0.0
H1364 H 0.94507 0.469 0.379 0.0
H1365 H 0.91612 0.51186 0.34747 0.0
C1366 C 0.85558 0.50446 0.32366 0.0
C1367 C 0.82615 0.49293 0.30999 0.0
C1368 C 0.86961 0.48913 0.35381 0.0
C1369 C 0.80672 0.4738 0.33271 0.0
C1370 C 0.81962 0.46016 0.36434 0.0
C1371 C 0.86883 0.44187 0.39302 0.0
C1372 C 0.90251 0.44119 0.39156 0.0
C1373 C 0.85218 0.4649 0.37245 0.0
C1374 C 0.91906 0.46864 0.3792 0.0
C1375 C 0.9025 0.49293 0.36075 0.0
H1376 H 0.26234 0.14312 0.06015 0.0
H1377 H 0.24818 1.07554 0.97127 0.0
H1378 H 0.23432 1.03337 0.01457 0.0
H1379 H 0.20481 1.02527 0.07156 0.0
H1380 H 0.21154 1.09578 0.15857 0.0
H1381 H 0.25077 1.12638 0.12332 0.0
C1382 C 0.25784 1.11865 0.05057 0.0
C1383 C 0.25454 1.11274 0.01277 0.0
C1384 C 0.24759 1.09521 0.07551 0.0
C1385 C 0.24997 1.08088 1.00033 0.0
C1386 C 0.24158 1.05679 0.02514 0.0
C1387 C 0.21631 1.04625 0.08378 0.0
C1388 C 0.20397 1.05952 0.11642 0.0
C1389 C 0.23691 1.06489 0.06215 0.0
C1390 C 0.21985 1.08595 0.13264 0.0
C1391 C 0.24196 1.1037 0.11223 0.0
H1392 H 0.72435 0.20666 0.43801 0.0
H1393 H 0.76707 1.1155 0.4671 0.0
H1394 H 0.7489 1.0919 0.40933 0.0
H1395 H 0.70222 1.09228 0.36867 0.0
H1396 H 0.65428 0.18197 0.34532 0.0
H1397 H 0.69435 0.21152 0.3808 0.0
C1398 C 0.73137 0.18219 0.43088 0.0
C1399 C 0.74496 0.16209 0.4577 0.0
C1400 C 0.71907 0.16833 0.3987 0.0
C1401 C 0.75508 0.1309 0.44746 0.0
C1402 C 0.74447 1.11733 0.4145 0.0
C1403 C 0.70168 1.11849 0.3694 0.0
C1404 C 0.67429 0.13487 0.35683 0.0
C1405 C 0.72332 0.13486 0.3923 0.0
C1406 C 0.67454 0.16882 0.35637 0.0
C1407 C 0.69721 0.18566 0.37719 0.0
loop_
_geom_bond_atom_site_label_1
_geom_bond_atom_site_label_2
_geom_bond_distance
_geom_bond_site_symmetry_2
_ccdc_geom_bond_type
Dy0 O3 2.307 . S
Dy0 O5 2.395 . S
Dy0 O6 2.379 . S
Dy0 O8 2.339 . S
Dy0 O10 2.298 . S
Dy0 O14 2.275 . S
Dy0 C22 2.738 . S
Dy1 O4 2.298 1_556 S
Dy1 O7 2.275 . S
Dy1 O9 2.307 . S
Dy1 O11 2.395 . S
Dy1 O12 2.379 . S
Dy1 O15 2.339 1_556 S
Dy1 C31 2.738 . S
C2 O14 1.254 . S
C2 O15 1.257 . S
O3 Dy0 2.307 . S
O3 C13 1.266 . S
O4 Dy1 2.298 1_554 S
O4 C13 1.236 . S
O5 Dy0 2.395 . S
O5 C22 1.255 . S
O6 Dy0 2.379 . S
O6 C22 1.249 . S
O7 Dy1 2.275 . S
O7 C23 1.254 . S
O8 Dy0 2.339 . S
O8 C23 1.257 1_554 S
O9 Dy1 2.307 . S
O9 C24 1.266 1_556 S
O10 Dy0 2.298 . S
O10 C24 1.236 . S
O11 Dy1 2.395 . S
O11 C31 1.255 . S
O12 Dy1 2.379 . S
O12 C31 1.249 . S
C13 O3 1.266 . S
C13 O4 1.236 . S
O14 Dy0 2.275 . S
O14 C2 1.254 . S
O15 Dy1 2.339 1_554 S
O15 C2 1.257 . S
C16 C19 1.344 . S
C16 C20 1.328 . S
C16 C22 1.516 . S
C17 C18 1.304 . S
C17 C21 1.323 . S
C18 C17 1.304 . S
C18 C19 1.371 . S
C18 H32 0.930 . S
C19 C16 1.344 . S
C19 C18 1.371 . S
C19 H33 0.931 . S
C20 C16 1.328 . S
C20 C21 1.433 . S
C20 H34 0.931 . S
C21 C17 1.323 . S
C21 C20 1.433 . S
C21 H35 0.933 . S
C22 Dy0 2.738 . S
C22 O5 1.255 . S
C22 O6 1.249 . S
C22 C16 1.516 . S
C23 O7 1.254 . S
C23 O8 1.257 1_556 S
C24 O9 1.266 1_554 S
C24 O10 1.236 . S
C25 C28 1.344 . S
C25 C29 1.328 . S
C25 C31 1.516 . S
C26 C27 1.304 . S
C26 C30 1.323 . S
C27 C26 1.304 . S
C27 C28 1.371 . S
C27 H36 0.930 . S
C28 C25 1.344 . S
C28 C27 1.371 . S
C28 H37 0.931 . S
C29 C25 1.328 . S
C29 C30 1.433 . S
C29 H38 0.931 . S
C30 C26 1.323 . S
C30 C29 1.433 . S
C30 H39 0.933 . S
C31 Dy1 2.738 . S
C31 O11 1.255 . S
C31 O12 1.249 . S
C31 C25 1.516 . S
H32 C18 0.930 . S
H33 C19 0.931 . S
H34 C20 0.931 . S
H35 C21 0.933 . S
H36 C27 0.930 . S
H37 C28 0.931 . S
H38 C29 0.931 . S
H39 C30 0.933 . S
Dy40 O43 2.307 . S
Dy40 O45 2.395 . S
Dy40 O46 2.379 . S
Dy40 O48 2.339 . S
Dy40 O50 2.298 . S
Dy40 O54 2.275 . S
Dy40 C62 2.738 . S
Dy41 O44 2.298 . S
Dy41 O47 2.275 . S
Dy41 O49 2.307 . S
Dy41 O51 2.395 . S
Dy41 O52 2.379 . S
Dy41 O55 2.339 . S
Dy41 C71 2.738 . S
C42 O54 1.254 . S
C42 O55 1.257 . S
O43 Dy40 2.307 . S
O43 C53 1.266 . S
O44 Dy41 2.298 . S
O44 C53 1.236 . S
O45 Dy40 2.395 . S
O45 C62 1.255 . S
O46 Dy40 2.379 . S
O46 C62 1.249 . S
O47 Dy41 2.275 . S
O47 C63 1.254 . S
O48 Dy40 2.339 . S
O48 C63 1.257 . S
O49 Dy41 2.307 . S
O49 C64 1.266 . S
O50 Dy40 2.298 . S
O50 C64 1.236 . S
O51 Dy41 2.395 . S
O51 C71 1.255 . S
O52 Dy41 2.379 . S
O52 C71 1.249 . S
C53 O43 1.266 . S
C53 O44 1.236 . S
O54 Dy40 2.275 . S
O54 C42 1.254 . S
O55 Dy41 2.339 . S
O55 C42 1.257 . S
C56 C59 1.344 . S
C56 C60 1.328 . S
C56 C62 1.516 . S
C57 C58 1.304 . S
C57 C61 1.323 . S
C58 C57 1.304 . S
C58 C59 1.371 . S
C58 H72 0.930 . S
C59 C56 1.344 . S
C59 C58 1.371 . S
C59 H73 0.931 . S
C60 C56 1.328 . S
C60 C61 1.433 . S
C60 H74 0.931 . S
C61 C57 1.323 . S
C61 C60 1.433 . S
C61 H75 0.933 . S
C62 Dy40 2.738 . S
C62 O45 1.255 . S
C62 O46 1.249 . S
C62 C56 1.516 . S
C63 O47 1.254 . S
C63 O48 1.257 . S
C64 O49 1.266 . S
C64 O50 1.236 . S
C65 C68 1.344 . S
C65 C69 1.328 . S
C65 C71 1.516 . S
C66 C67 1.304 . S
C66 C70 1.323 . S
C67 C66 1.304 . S
C67 C68 1.371 . S
C67 H76 0.930 . S
C68 C65 1.344 . S
C68 C67 1.371 . S
C68 H77 0.931 . S
C69 C65 1.328 . S
C69 C70 1.433 . S
C69 H78 0.931 . S
C70 C66 1.323 . S
C70 C69 1.433 . S
C70 H79 0.933 . S
C71 Dy41 2.738 . S
C71 O51 1.255 . S
C71 O52 1.249 . S
C71 C65 1.516 . S
H72 C58 0.930 . S
H73 C59 0.931 . S
H74 C60 0.931 . S
H75 C61 0.933 . S
H76 C67 0.930 . S
H77 C68 0.931 . S
H78 C69 0.931 . S
H79 C70 0.933 . S
Dy80 O83 2.307 . S
Dy80 O85 2.395 . S
Dy80 O86 2.379 . S
Dy80 O88 2.339 . S
Dy80 O90 2.298 . S
Dy80 O94 2.275 . S
Dy80 C102 2.738 . S
Dy81 O84 2.298 . S
Dy81 O87 2.275 . S
Dy81 O89 2.307 . S
Dy81 O91 2.395 . S
Dy81 O92 2.379 . S
Dy81 O95 2.339 . S
Dy81 C111 2.738 . S
C82 O94 1.254 . S
C82 O95 1.257 . S
O83 Dy80 2.307 . S
O83 C93 1.266 . S
O84 Dy81 2.298 . S
O84 C93 1.236 . S
O85 Dy80 2.395 . S
O85 C102 1.255 . S
O86 Dy80 2.379 . S
O86 C102 1.249 . S
O87 Dy81 2.275 . S
O87 C103 1.254 . S
O88 Dy80 2.339 . S
O88 C103 1.257 . S
O89 Dy81 2.307 . S
O89 C104 1.266 . S
O90 Dy80 2.298 . S
O90 C104 1.236 . S
O91 Dy81 2.395 . S
O91 C111 1.255 . S
O92 Dy81 2.379 . S
O92 C111 1.249 . S
C93 O83 1.266 . S
C93 O84 1.236 . S
O94 Dy80 2.275 . S
O94 C82 1.254 . S
O95 Dy81 2.339 . S
O95 C82 1.257 . S
C96 C99 1.344 . S
C96 C100 1.328 . S
C96 C102 1.516 . S
C97 C98 1.304 . S
C97 C101 1.323 . S
C98 C97 1.304 . S
C98 C99 1.371 . S
C98 H112 0.930 . S
C99 C96 1.344 . S
C99 C98 1.371 . S
C99 H113 0.931 . S
C100 C96 1.328 . S
C100 C101 1.433 . S
C100 H114 0.931 . S
C101 C97 1.323 . S
C101 C100 1.433 . S
C101 H115 0.933 . S
C102 Dy80 2.738 . S
C102 O85 1.255 . S
C102 O86 1.249 . S
C102 C96 1.516 . S
C103 O87 1.254 . S
C103 O88 1.257 . S
C104 O89 1.266 . S
C104 O90 1.236 . S
C105 C108 1.344 . S
C105 C109 1.328 . S
C105 C111 1.516 . S
C106 C107 1.304 1_655 S
C106 C110 1.323 1_655 S
C107 C106 1.304 1_455 S
C107 C108 1.371 . S
C107 H116 0.936 . S
C108 C105 1.344 . S
C108 C107 1.371 . S
C108 H117 0.931 . S
C109 C105 1.328 . S
C109 C110 1.433 . S
C109 H118 0.931 . S
C110 C106 1.323 1_455 S
C110 C109 1.433 . S
C110 H119 0.942 . S
C111 Dy81 2.738 . S
C111 O91 1.255 . S
C111 O92 1.249 . S
C111 C105 1.516 . S
H112 C98 0.930 . S
H113 C99 0.931 . S
H114 C100 0.931 . S
H115 C101 0.933 . S
H116 C107 0.936 . S
H117 C108 0.931 . S
H118 C109 0.931 . S
H119 C110 0.942 . S
Dy120 O123 2.307 . S
Dy120 O125 2.395 . S
Dy120 O126 2.379 . S
Dy120 O128 2.339 . S
Dy120 O130 2.298 . S
Dy120 O134 2.275 . S
Dy120 C142 2.738 . S
Dy121 O124 2.298 . S
Dy121 O127 2.275 . S
Dy121 O129 2.307 . S
Dy121 O131 2.395 . S
Dy121 O132 2.379 . S
Dy121 O135 2.339 . S
Dy121 C151 2.738 . S
C122 O134 1.254 . S
C122 O135 1.257 . S
O123 Dy120 2.307 . S
O123 C133 1.266 . S
O124 Dy121 2.298 . S
O124 C133 1.236 . S
O125 Dy120 2.395 . S
O125 C142 1.255 . S
O126 Dy120 2.379 . S
O126 C142 1.249 . S
O127 Dy121 2.275 . S
O127 C143 1.254 . S
O128 Dy120 2.339 . S
O128 C143 1.257 . S
O129 Dy121 2.307 . S
O129 C144 1.266 . S
O130 Dy120 2.298 . S
O130 C144 1.236 . S
O131 Dy121 2.395 . S
O131 C151 1.255 . S
O132 Dy121 2.379 . S
O132 C151 1.249 . S
C133 O123 1.266 . S
C133 O124 1.236 . S
O134 Dy120 2.275 . S
O134 C122 1.254 . S
O135 Dy121 2.339 . S
O135 C122 1.257 . S
C136 C139 1.344 . S
C136 C140 1.328 . S
C136 C142 1.516 . S
C137 C138 1.304 . S
C137 C141 1.323 . S
C138 C137 1.304 . S
C138 C139 1.371 . S
C138 H152 0.930 . S
C139 C136 1.344 . S
C139 C138 1.371 . S
C139 H153 0.931 . S
C140 C136 1.328 . S
C140 C141 1.433 . S
C140 H154 0.931 . S
C141 C137 1.323 . S
C141 C140 1.433 . S
C141 H155 0.933 . S
C142 Dy120 2.738 . S
C142 O125 1.255 . S
C142 O126 1.249 . S
C142 C136 1.516 . S
C143 O127 1.254 . S
C143 O128 1.257 . S
C144 O129 1.266 . S
C144 O130 1.236 . S
C145 C148 1.344 . S
C145 C149 1.328 . S
C145 C151 1.516 . S
C146 C147 1.304 . S
C146 C150 1.323 . S
C147 C146 1.304 . S
C147 C148 1.371 . S
C147 H156 0.930 . S
C148 C145 1.344 . S
C148 C147 1.371 . S
C148 H157 0.931 . S
C149 C145 1.328 . S
C149 C150 1.433 . S
C149 H158 0.931 . S
C150 C146 1.323 . S
C150 C149 1.433 . S
C150 H159 0.933 . S
C151 Dy121 2.738 . S
C151 O131 1.255 . S
C151 O132 1.249 . S
C151 C145 1.516 . S
H152 C138 0.930 . S
H153 C139 0.931 . S
H154 C140 0.931 . S
H155 C141 0.933 . S
H156 C147 0.930 . S
H157 C148 0.931 . S
H158 C149 0.931 . S
H159 C150 0.933 . S
Dy160 O163 2.307 . S
Dy160 O165 2.395 . S
Dy160 O166 2.379 . S
Dy160 O168 2.339 1_554 S
Dy160 O170 2.298 1_554 S
Dy160 O174 2.275 . S
Dy160 C182 2.738 . S
Dy161 O164 2.298 . S
Dy161 O167 2.275 . S
Dy161 O169 2.307 . S
Dy161 O171 2.395 . S
Dy161 O172 2.379 . S
Dy161 O175 2.339 . S
Dy161 C191 2.738 . S
C162 O174 1.254 . S
C162 O175 1.257 1_554 S
O163 Dy160 2.307 . S
O163 C173 1.266 1_554 S
O164 Dy161 2.298 . S
O164 C173 1.236 . S
O165 Dy160 2.395 . S
O165 C182 1.255 . S
O166 Dy160 2.379 . S
O166 C182 1.249 . S
O167 Dy161 2.275 . S
O167 C183 1.254 . S
O168 Dy160 2.339 1_556 S
O168 C183 1.257 . S
O169 Dy161 2.307 . S
O169 C184 1.266 . S
O170 Dy160 2.298 1_556 S
O170 C184 1.236 . S
O171 Dy161 2.395 . S
O171 C191 1.255 . S
O172 Dy161 2.379 . S
O172 C191 1.249 . S
C173 O163 1.266 1_556 S
C173 O164 1.236 . S
O174 Dy160 2.275 . S
O174 C162 1.254 . S
O175 Dy161 2.339 . S
O175 C162 1.257 1_556 S
C176 C179 1.344 . S
C176 C180 1.328 . S
C176 C182 1.516 . S
C177 C178 1.304 . S
C177 C181 1.323 . S
C178 C177 1.304 . S
C178 C179 1.371 . S
C178 H192 0.930 . S
C179 C176 1.344 . S
C179 C178 1.371 . S
C179 H193 0.931 . S
C180 C176 1.328 . S
C180 C181 1.433 . S
C180 H194 0.931 . S
C181 C177 1.323 . S
C181 C180 1.433 . S
C181 H195 0.933 . S
C182 Dy160 2.738 . S
C182 O165 1.255 . S
C182 O166 1.249 . S
C182 C176 1.516 . S
C183 O167 1.254 . S
C183 O168 1.257 . S
C184 O169 1.266 . S
C184 O170 1.236 . S
C185 C188 1.344 . S
C185 C189 1.328 . S
C185 C191 1.516 . S
C186 C187 1.304 . S
C186 C190 1.323 . S
C187 C186 1.304 . S
C187 C188 1.371 . S
C187 H196 0.930 . S
C188 C185 1.344 . S
C188 C187 1.371 . S
C188 H197 0.931 . S
C189 C185 1.328 . S
C189 C190 1.433 . S
C189 H198 0.931 . S
C190 C186 1.323 . S
C190 C189 1.433 . S
C190 H199 0.933 . S
C191 Dy161 2.738 . S
C191 O171 1.255 . S
C191 O172 1.249 . S
C191 C185 1.516 . S
H192 C178 0.930 . S
H193 C179 0.931 . S
H194 C180 0.931 . S
H195 C181 0.933 . S
H196 C187 0.930 . S
H197 C188 0.931 . S
H198 C189 0.931 . S
H199 C190 0.933 . S
Dy200 O203 2.307 . S
Dy200 O205 2.395 . S
Dy200 O206 2.379 . S
Dy200 O208 2.339 . S
Dy200 O210 2.298 . S
Dy200 O214 2.275 . S
Dy200 C222 2.738 . S
Dy201 O204 2.298 . S
Dy201 O207 2.275 . S
Dy201 O209 2.307 . S
Dy201 O211 2.395 . S
Dy201 O212 2.379 . S
Dy201 O215 2.339 . S
Dy201 C231 2.738 . S
C202 O214 1.254 . S
C202 O215 1.257 . S
O203 Dy200 2.307 . S
O203 C213 1.266 . S
O204 Dy201 2.298 . S
O204 C213 1.236 . S
O205 Dy200 2.395 . S
O205 C222 1.255 . S
O206 Dy200 2.379 . S
O206 C222 1.249 . S
O207 Dy201 2.275 . S
O207 C223 1.254 . S
O208 Dy200 2.339 . S
O208 C223 1.257 . S
O209 Dy201 2.307 . S
O209 C224 1.266 . S
O210 Dy200 2.298 . S
O210 C224 1.236 . S
O211 Dy201 2.395 . S
O211 C231 1.255 . S
O212 Dy201 2.379 . S
O212 C231 1.249 . S
C213 O203 1.266 . S
C213 O204 1.236 . S
O214 Dy200 2.275 . S
O214 C202 1.254 . S
O215 Dy201 2.339 . S
O215 C202 1.257 . S
C216 C219 1.344 . S
C216 C220 1.328 . S
C216 C222 1.516 . S
C217 C218 1.304 . S
C217 C221 1.323 . S
C218 C217 1.304 . S
C218 C219 1.371 . S
C218 H232 0.930 . S
C219 C216 1.344 . S
C219 C218 1.371 . S
C219 H233 0.931 . S
C220 C216 1.328 . S
C220 C221 1.433 . S
C220 H234 0.931 . S
C221 C217 1.323 . S
C221 C220 1.433 . S
C221 H235 0.933 . S
C222 Dy200 2.738 . S
C222 O205 1.255 . S
C222 O206 1.249 . S
C222 C216 1.516 . S
C223 O207 1.254 . S
C223 O208 1.257 . S
C224 O209 1.266 . S
C224 O210 1.236 . S
C225 C228 1.344 . S
C225 C229 1.328 . S
C225 C231 1.516 . S
C226 C227 1.304 . S
C226 C230 1.323 . S
C227 C226 1.304 . S
C227 C228 1.371 . S
C227 H236 0.930 . S
C228 C225 1.344 . S
C228 C227 1.371 . S
C228 H237 0.931 . S
C229 C225 1.328 . S
C229 C230 1.433 . S
C229 H238 0.931 . S
C230 C226 1.323 . S
C230 C229 1.433 . S
C230 H239 0.933 . S
C231 Dy201 2.738 . S
C231 O211 1.255 . S
C231 O212 1.249 . S
C231 C225 1.516 . S
H232 C218 0.930 . S
H233 C219 0.931 . S
H234 C220 0.931 . S
H235 C221 0.933 . S
H236 C227 0.930 . S
H237 C228 0.931 . S
H238 C229 0.931 . S
H239 C230 0.933 . S
Dy240 O243 2.307 . S
Dy240 O245 2.395 . S
Dy240 O246 2.379 . S
Dy240 O248 2.339 . S
Dy240 O250 2.298 . S
Dy240 O254 2.275 . S
Dy240 C262 2.738 . S
Dy241 O244 2.298 . S
Dy241 O247 2.275 . S
Dy241 O249 2.307 . S
Dy241 O251 2.395 . S
Dy241 O252 2.379 . S
Dy241 O255 2.339 . S
Dy241 C271 2.738 . S
C242 O254 1.254 . S
C242 O255 1.257 . S
O243 Dy240 2.307 . S
O243 C253 1.266 . S
O244 Dy241 2.298 . S
O244 C253 1.236 . S
O245 Dy240 2.395 . S
O245 C262 1.255 . S
O246 Dy240 2.379 . S
O246 C262 1.249 . S
O247 Dy241 2.275 . S
O247 C263 1.254 . S
O248 Dy240 2.339 . S
O248 C263 1.257 . S
O249 Dy241 2.307 . S
O249 C264 1.266 . S
O250 Dy240 2.298 . S
O250 C264 1.236 . S
O251 Dy241 2.395 . S
O251 C271 1.255 . S
O252 Dy241 2.379 . S
O252 C271 1.249 . S
C253 O243 1.266 . S
C253 O244 1.236 . S
O254 Dy240 2.275 . S
O254 C242 1.254 . S
O255 Dy241 2.339 . S
O255 C242 1.257 . S
C256 C259 1.344 . S
C256 C260 1.328 . S
C256 C262 1.516 . S
C257 C258 1.304 1_455 S
C257 C261 1.323 1_455 S
C258 C257 1.304 1_655 S
C258 C259 1.371 . S
C258 H272 0.936 . S
C259 C256 1.344 . S
C259 C258 1.371 . S
C259 H273 0.931 . S
C260 C256 1.328 . S
C260 C261 1.433 . S
C260 H274 0.931 . S
C261 C257 1.323 1_655 S
C261 C260 1.433 . S
C261 H275 0.942 . S
C262 Dy240 2.738 . S
C262 O245 1.255 . S
C262 O246 1.249 . S
C262 C256 1.516 . S
C263 O247 1.254 . S
C263 O248 1.257 . S
C264 O249 1.266 . S
C264 O250 1.236 . S
C265 C268 1.344 . S
C265 C269 1.328 . S
C265 C271 1.516 . S
C266 C267 1.304 . S
C266 C270 1.323 . S
C267 C266 1.304 . S
C267 C268 1.371 . S
C267 H276 0.930 . S
C268 C265 1.344 . S
C268 C267 1.371 . S
C268 H277 0.931 . S
C269 C265 1.328 . S
C269 C270 1.433 . S
C269 H278 0.931 . S
C270 C266 1.323 . S
C270 C269 1.433 . S
C270 H279 0.933 . S
C271 Dy241 2.738 . S
C271 O251 1.255 . S
C271 O252 1.249 . S
C271 C265 1.516 . S
H272 C258 0.936 . S
H273 C259 0.931 . S
H274 C260 0.931 . S
H275 C261 0.942 . S
H276 C267 0.930 . S
H277 C268 0.931 . S
H278 C269 0.931 . S
H279 C270 0.933 . S
Dy280 O283 2.307 . S
Dy280 O285 2.395 . S
Dy280 O286 2.379 . S
Dy280 O288 2.339 . S
Dy280 O290 2.298 . S
Dy280 O294 2.275 . S
Dy280 C302 2.738 . S
Dy281 O284 2.298 . S
Dy281 O287 2.275 . S
Dy281 O289 2.307 . S
Dy281 O291 2.395 . S
Dy281 O292 2.379 . S
Dy281 O295 2.339 . S
Dy281 C311 2.738 . S
C282 O294 1.254 . S
C282 O295 1.257 . S
O283 Dy280 2.307 . S
O283 C293 1.266 . S
O284 Dy281 2.298 . S
O284 C293 1.236 . S
O285 Dy280 2.395 . S
O285 C302 1.255 . S
O286 Dy280 2.379 . S
O286 C302 1.249 . S
O287 Dy281 2.275 . S
O287 C303 1.254 . S
O288 Dy280 2.339 . S
O288 C303 1.257 . S
O289 Dy281 2.307 . S
O289 C304 1.266 . S
O290 Dy280 2.298 . S
O290 C304 1.236 . S
O291 Dy281 2.395 . S
O291 C311 1.255 . S
O292 Dy281 2.379 . S
O292 C311 1.249 . S
C293 O283 1.266 . S
C293 O284 1.236 . S
O294 Dy280 2.275 . S
O294 C282 1.254 . S
O295 Dy281 2.339 . S
O295 C282 1.257 . S
C296 C299 1.344 . S
C296 C300 1.328 . S
C296 C302 1.516 . S
C297 C298 1.304 . S
C297 C301 1.323 . S
C298 C297 1.304 . S
C298 C299 1.371 . S
C298 H312 0.930 . S
C299 C296 1.344 . S
C299 C298 1.371 . S
C299 H313 0.931 . S
C300 C296 1.328 . S
C300 C301 1.433 . S
C300 H314 0.931 . S
C301 C297 1.323 . S
C301 C300 1.433 . S
C301 H315 0.933 . S
C302 Dy280 2.738 . S
C302 O285 1.255 . S
C302 O286 1.249 . S
C302 C296 1.516 . S
C303 O287 1.254 . S
C303 O288 1.257 . S
C304 O289 1.266 . S
C304 O290 1.236 . S
C305 C308 1.344 . S
C305 C309 1.328 . S
C305 C311 1.516 . S
C306 C307 1.304 . S
C306 C310 1.323 . S
C307 C306 1.304 . S
C307 C308 1.371 . S
C307 H316 0.930 . S
C308 C305 1.344 . S
C308 C307 1.371 . S
C308 H317 0.931 . S
C309 C305 1.328 . S
C309 C310 1.433 . S
C309 H318 0.931 . S
C310 C306 1.323 . S
C310 C309 1.433 . S
C310 H319 0.933 . S
C311 Dy281 2.738 . S
C311 O291 1.255 . S
C311 O292 1.249 . S
C311 C305 1.516 . S
H312 C298 0.930 . S
H313 C299 0.931 . S
H314 C300 0.931 . S
H315 C301 0.933 . S
H316 C307 0.930 . S
H317 C308 0.931 . S
H318 C309 0.931 . S
H319 C310 0.933 . S
Dy320 O323 2.307 . S
Dy320 O325 2.395 . S
Dy320 O326 2.379 . S
Dy320 O328 2.339 . S
Dy320 O330 2.298 . S
Dy320 O334 2.275 . S
Dy320 C342 2.738 . S
Dy321 O324 2.298 . S
Dy321 O327 2.275 . S
Dy321 O329 2.307 . S
Dy321 O331 2.395 . S
Dy321 O332 2.379 . S
Dy321 O335 2.339 . S
Dy321 C351 2.738 . S
C322 O334 1.254 . S
C322 O335 1.257 . S
O323 Dy320 2.307 . S
O323 C333 1.266 . S
O324 Dy321 2.298 . S
O324 C333 1.236 . S
O325 Dy320 2.395 . S
O325 C342 1.255 . S
O326 Dy320 2.379 . S
O326 C342 1.249 . S
O327 Dy321 2.275 . S
O327 C343 1.254 . S
O328 Dy320 2.339 . S
O328 C343 1.257 . S
O329 Dy321 2.307 . S
O329 C344 1.266 . S
O330 Dy320 2.298 . S
O330 C344 1.236 . S
O331 Dy321 2.395 . S
O331 C351 1.255 . S
O332 Dy321 2.379 . S
O332 C351 1.249 . S
C333 O323 1.266 . S
C333 O324 1.236 . S
O334 Dy320 2.275 . S
O334 C322 1.254 . S
O335 Dy321 2.339 . S
O335 C322 1.257 . S
C336 C339 1.344 . S
C336 C340 1.328 . S
C336 C342 1.516 . S
C337 C338 1.304 . S
C337 C341 1.323 . S
C338 C337 1.304 . S
C338 C339 1.371 . S
C338 H352 0.930 . S
C339 C336 1.344 . S
C339 C338 1.371 . S
C339 H353 0.931 . S
C340 C336 1.328 . S
C340 C341 1.433 . S
C340 H354 0.931 . S
C341 C337 1.323 . S
C341 C340 1.433 . S
C341 H355 0.933 . S
C342 Dy320 2.738 . S
C342 O325 1.255 . S
C342 O326 1.249 . S
C342 C336 1.516 . S
C343 O327 1.254 . S
C343 O328 1.257 . S
C344 O329 1.266 . S
C344 O330 1.236 . S
C345 C348 1.344 . S
C345 C349 1.328 . S
C345 C351 1.516 . S
C346 C347 1.304 1_455 S
C346 C350 1.323 1_455 S
C347 C346 1.304 1_655 S
C347 C348 1.371 . S
C347 H356 0.936 . S
C348 C345 1.344 . S
C348 C347 1.371 . S
C348 H357 0.931 . S
C349 C345 1.328 . S
C349 C350 1.433 . S
C349 H358 0.931 . S
C350 C346 1.323 1_655 S
C350 C349 1.433 . S
C350 H359 0.942 . S
C351 Dy321 2.738 . S
C351 O331 1.255 . S
C351 O332 1.249 . S
C351 C345 1.516 . S
H352 C338 0.930 . S
H353 C339 0.931 . S
H354 C340 0.931 . S
H355 C341 0.933 . S
H356 C347 0.936 . S
H357 C348 0.931 . S
H358 C349 0.931 . S
H359 C350 0.942 . S
Dy360 O363 2.307 . S
Dy360 O365 2.395 . S
Dy360 O366 2.379 . S
Dy360 O368 2.339 . S
Dy360 O370 2.298 . S
Dy360 O374 2.275 . S
Dy360 C382 2.738 . S
Dy361 O364 2.298 . S
Dy361 O367 2.275 . S
Dy361 O369 2.307 . S
Dy361 O371 2.395 . S
Dy361 O372 2.379 . S
Dy361 O375 2.339 . S
Dy361 C391 2.738 . S
C362 O374 1.254 . S
C362 O375 1.257 . S
O363 Dy360 2.307 . S
O363 C373 1.266 . S
O364 Dy361 2.298 . S
O364 C373 1.236 . S
O365 Dy360 2.395 . S
O365 C382 1.255 . S
O366 Dy360 2.379 . S
O366 C382 1.249 . S
O367 Dy361 2.275 . S
O367 C383 1.254 . S
O368 Dy360 2.339 . S
O368 C383 1.257 . S
O369 Dy361 2.307 . S
O369 C384 1.266 . S
O370 Dy360 2.298 . S
O370 C384 1.236 . S
O371 Dy361 2.395 . S
O371 C391 1.255 . S
O372 Dy361 2.379 . S
O372 C391 1.249 . S
C373 O363 1.266 . S
C373 O364 1.236 . S
O374 Dy360 2.275 . S
O374 C362 1.254 . S
O375 Dy361 2.339 . S
O375 C362 1.257 . S
C376 C379 1.344 . S
C376 C380 1.328 . S
C376 C382 1.516 . S
C377 C378 1.304 . S
C377 C381 1.323 . S
C378 C377 1.304 . S
C378 C379 1.371 . S
C378 H392 0.930 . S
C379 C376 1.344 . S
C379 C378 1.371 . S
C379 H393 0.931 . S
C380 C376 1.328 . S
C380 C381 1.433 . S
C380 H394 0.931 . S
C381 C377 1.323 . S
C381 C380 1.433 . S
C381 H395 0.933 . S
C382 Dy360 2.738 . S
C382 O365 1.255 . S
C382 O366 1.249 . S
C382 C376 1.516 . S
C383 O367 1.254 . S
C383 O368 1.257 . S
C384 O369 1.266 . S
C384 O370 1.236 . S
C385 C388 1.344 . S
C385 C389 1.328 . S
C385 C391 1.516 . S
C386 C387 1.304 . S
C386 C390 1.323 . S
C387 C386 1.304 . S
C387 C388 1.371 . S
C387 H396 0.930 . S
C388 C385 1.344 . S
C388 C387 1.371 . S
C388 H397 0.931 . S
C389 C385 1.328 . S
C389 C390 1.433 . S
C389 H398 0.931 . S
C390 C386 1.323 . S
C390 C389 1.433 . S
C390 H399 0.933 . S
C391 Dy361 2.738 . S
C391 O371 1.255 . S
C391 O372 1.249 . S
C391 C385 1.516 . S
H392 C378 0.930 . S
H393 C379 0.931 . S
H394 C380 0.931 . S
H395 C381 0.933 . S
H396 C387 0.930 . S
H397 C388 0.931 . S
H398 C389 0.931 . S
H399 C390 0.933 . S
Dy400 O403 2.307 . S
Dy400 O405 2.395 . S
Dy400 O406 2.379 . S
Dy400 O408 2.339 . S
Dy400 O410 2.298 . S
Dy400 O414 2.275 . S
Dy400 C422 2.738 . S
Dy401 O404 2.298 1_556 S
Dy401 O407 2.275 . S
Dy401 O409 2.307 . S
Dy401 O411 2.395 . S
Dy401 O412 2.379 . S
Dy401 O415 2.339 1_556 S
Dy401 C431 2.738 . S
C402 O414 1.254 . S
C402 O415 1.257 . S
O403 Dy400 2.307 . S
O403 C413 1.266 . S
O404 Dy401 2.298 1_554 S
O404 C413 1.236 . S
O405 Dy400 2.395 . S
O405 C422 1.255 . S
O406 Dy400 2.379 . S
O406 C422 1.249 . S
O407 Dy401 2.275 . S
O407 C423 1.254 . S
O408 Dy400 2.339 . S
O408 C423 1.257 1_554 S
O409 Dy401 2.307 . S
O409 C424 1.266 1_556 S
O410 Dy400 2.298 . S
O410 C424 1.236 . S
O411 Dy401 2.395 . S
O411 C431 1.255 . S
O412 Dy401 2.379 . S
O412 C431 1.249 . S
C413 O403 1.266 . S
C413 O404 1.236 . S
O414 Dy400 2.275 . S
O414 C402 1.254 . S
O415 Dy401 2.339 1_554 S
O415 C402 1.257 . S
C416 C419 1.344 . S
C416 C420 1.328 . S
C416 C422 1.516 . S
C417 C418 1.304 . S
C417 C421 1.323 . S
C418 C417 1.304 . S
C418 C419 1.371 . S
C418 H432 0.930 . S
C419 C416 1.344 . S
C419 C418 1.371 . S
C419 H433 0.931 . S
C420 C416 1.328 . S
C420 C421 1.433 . S
C420 H434 0.931 . S
C421 C417 1.323 . S
C421 C420 1.433 . S
C421 H435 0.933 . S
C422 Dy400 2.738 . S
C422 O405 1.255 . S
C422 O406 1.249 . S
C422 C416 1.516 . S
C423 O407 1.254 . S
C423 O408 1.257 1_556 S
C424 O409 1.266 1_554 S
C424 O410 1.236 . S
C425 C428 1.344 . S
C425 C429 1.328 . S
C425 C431 1.516 . S
C426 C427 1.304 . S
C426 C430 1.323 . S
C427 C426 1.304 . S
C427 C428 1.371 . S
C427 H436 0.930 . S
C428 C425 1.344 . S
C428 C427 1.371 . S
C428 H437 0.931 . S
C429 C425 1.328 . S
C429 C430 1.433 . S
C429 H438 0.931 . S
C430 C426 1.323 . S
C430 C429 1.433 . S
C430 H439 0.933 . S
C431 Dy401 2.738 . S
C431 O411 1.255 . S
C431 O412 1.249 . S
C431 C425 1.516 . S
H432 C418 0.930 . S
H433 C419 0.931 . S
H434 C420 0.931 . S
H435 C421 0.933 . S
H436 C427 0.930 . S
H437 C428 0.931 . S
H438 C429 0.931 . S
H439 C430 0.933 . S
Dy440 O443 2.307 . S
Dy440 O445 2.395 . S
Dy440 O446 2.379 . S
Dy440 O448 2.339 . S
Dy440 O450 2.298 . S
Dy440 O454 2.275 . S
Dy440 C462 2.738 . S
Dy441 O444 2.298 . S
Dy441 O447 2.275 . S
Dy441 O449 2.307 . S
Dy441 O451 2.395 . S
Dy441 O452 2.379 . S
Dy441 O455 2.339 . S
Dy441 C471 2.738 . S
C442 O454 1.254 . S
C442 O455 1.257 . S
O443 Dy440 2.307 . S
O443 C453 1.266 . S
O444 Dy441 2.298 . S
O444 C453 1.236 . S
O445 Dy440 2.395 . S
O445 C462 1.255 . S
O446 Dy440 2.379 . S
O446 C462 1.249 . S
O447 Dy441 2.275 . S
O447 C463 1.254 . S
O448 Dy440 2.339 . S
O448 C463 1.257 . S
O449 Dy441 2.307 . S
O449 C464 1.266 . S
O450 Dy440 2.298 . S
O450 C464 1.236 . S
O451 Dy441 2.395 . S
O451 C471 1.255 . S
O452 Dy441 2.379 . S
O452 C471 1.249 . S
C453 O443 1.266 . S
C453 O444 1.236 . S
O454 Dy440 2.275 . S
O454 C442 1.254 . S
O455 Dy441 2.339 . S
O455 C442 1.257 . S
C456 C459 1.344 . S
C456 C460 1.328 . S
C456 C462 1.516 . S
C457 C458 1.304 . S
C457 C461 1.323 . S
C458 C457 1.304 . S
C458 C459 1.371 . S
C458 H472 0.930 . S
C459 C456 1.344 . S
C459 C458 1.371 . S
C459 H473 0.931 . S
C460 C456 1.328 . S
C460 C461 1.433 . S
C460 H474 0.931 . S
C461 C457 1.323 . S
C461 C460 1.433 . S
C461 H475 0.933 . S
C462 Dy440 2.738 . S
C462 O445 1.255 . S
C462 O446 1.249 . S
C462 C456 1.516 . S
C463 O447 1.254 . S
C463 O448 1.257 . S
C464 O449 1.266 . S
C464 O450 1.236 . S
C465 C468 1.344 . S
C465 C469 1.328 . S
C465 C471 1.516 . S
C466 C467 1.304 . S
C466 C470 1.323 . S
C467 C466 1.304 . S
C467 C468 1.371 . S
C467 H476 0.930 . S
C468 C465 1.344 . S
C468 C467 1.371 . S
C468 H477 0.931 . S
C469 C465 1.328 . S
C469 C470 1.433 . S
C469 H478 0.931 . S
C470 C466 1.323 . S
C470 C469 1.433 . S
C470 H479 0.933 . S
C471 Dy441 2.738 . S
C471 O451 1.255 . S
C471 O452 1.249 . S
C471 C465 1.516 . S
H472 C458 0.930 . S
H473 C459 0.931 . S
H474 C460 0.931 . S
H475 C461 0.933 . S
H476 C467 0.930 . S
H477 C468 0.931 . S
H478 C469 0.931 . S
H479 C470 0.933 . S
Dy480 O483 2.307 . S
Dy480 O485 2.395 . S
Dy480 O486 2.379 . S
Dy480 O488 2.339 . S
Dy480 O490 2.298 . S
Dy480 O494 2.275 . S
Dy480 C502 2.738 . S
Dy481 O484 2.298 . S
Dy481 O487 2.275 . S
Dy481 O489 2.307 . S
Dy481 O491 2.395 . S
Dy481 O492 2.379 . S
Dy481 O495 2.339 . S
Dy481 C511 2.738 . S
C482 O494 1.254 . S
C482 O495 1.257 . S
O483 Dy480 2.307 . S
O483 C493 1.266 . S
O484 Dy481 2.298 . S
O484 C493 1.236 . S
O485 Dy480 2.395 . S
O485 C502 1.255 . S
O486 Dy480 2.379 . S
O486 C502 1.249 . S
O487 Dy481 2.275 . S
O487 C503 1.254 . S
O488 Dy480 2.339 . S
O488 C503 1.257 . S
O489 Dy481 2.307 . S
O489 C504 1.266 . S
O490 Dy480 2.298 . S
O490 C504 1.236 . S
O491 Dy481 2.395 . S
O491 C511 1.255 . S
O492 Dy481 2.379 . S
O492 C511 1.249 . S
C493 O483 1.266 . S
C493 O484 1.236 . S
O494 Dy480 2.275 . S
O494 C482 1.254 . S
O495 Dy481 2.339 . S
O495 C482 1.257 . S
C496 C499 1.344 . S
C496 C500 1.328 . S
C496 C502 1.516 . S
C497 C498 1.304 1_655 S
C497 C501 1.323 1_655 S
C498 C497 1.304 1_455 S
C498 C499 1.371 . S
C498 H512 0.936 . S
C499 C496 1.344 . S
C499 C498 1.371 . S
C499 H513 0.931 . S
C500 C496 1.328 . S
C500 C501 1.433 . S
C500 H514 0.931 . S
C501 C497 1.323 1_455 S
C501 C500 1.433 . S
C501 H515 0.942 . S
C502 Dy480 2.738 . S
C502 O485 1.255 . S
C502 O486 1.249 . S
C502 C496 1.516 . S
C503 O487 1.254 . S
C503 O488 1.257 . S
C504 O489 1.266 . S
C504 O490 1.236 . S
C505 C508 1.344 . S
C505 C509 1.328 . S
C505 C511 1.516 . S
C506 C507 1.304 . S
C506 C510 1.323 . S
C507 C506 1.304 . S
C507 C508 1.371 . S
C507 H516 0.930 . S
C508 C505 1.344 . S
C508 C507 1.371 . S
C508 H517 0.931 . S
C509 C505 1.328 . S
C509 C510 1.433 . S
C509 H518 0.931 . S
C510 C506 1.323 . S
C510 C509 1.433 . S
C510 H519 0.933 . S
C511 Dy481 2.738 . S
C511 O491 1.255 . S
C511 O492 1.249 . S
C511 C505 1.516 . S
H512 C498 0.936 . S
H513 C499 0.931 . S
H514 C500 0.931 . S
H515 C501 0.942 . S
H516 C507 0.930 . S
H517 C508 0.931 . S
H518 C509 0.931 . S
H519 C510 0.933 . S
Dy520 O523 2.307 . S
Dy520 O525 2.395 . S
Dy520 O526 2.379 . S
Dy520 O528 2.339 . S
Dy520 O530 2.298 . S
Dy520 O534 2.275 . S
Dy520 C542 2.738 . S
Dy521 O524 2.298 . S
Dy521 O527 2.275 . S
Dy521 O529 2.307 . S
Dy521 O531 2.395 . S
Dy521 O532 2.379 . S
Dy521 O535 2.339 . S
Dy521 C551 2.738 . S
C522 O534 1.254 . S
C522 O535 1.257 . S
O523 Dy520 2.307 . S
O523 C533 1.266 . S
O524 Dy521 2.298 . S
O524 C533 1.236 . S
O525 Dy520 2.395 . S
O525 C542 1.255 . S
O526 Dy520 2.379 . S
O526 C542 1.249 . S
O527 Dy521 2.275 . S
O527 C543 1.254 . S
O528 Dy520 2.339 . S
O528 C543 1.257 . S
O529 Dy521 2.307 . S
O529 C544 1.266 . S
O530 Dy520 2.298 . S
O530 C544 1.236 . S
O531 Dy521 2.395 . S
O531 C551 1.255 . S
O532 Dy521 2.379 . S
O532 C551 1.249 . S
C533 O523 1.266 . S
C533 O524 1.236 . S
O534 Dy520 2.275 . S
O534 C522 1.254 . S
O535 Dy521 2.339 . S
O535 C522 1.257 . S
C536 C539 1.344 . S
C536 C540 1.328 . S
C536 C542 1.516 . S
C537 C538 1.304 . S
C537 C541 1.323 . S
C538 C537 1.304 . S
C538 C539 1.371 . S
C538 H552 0.930 . S
C539 C536 1.344 . S
C539 C538 1.371 . S
C539 H553 0.931 . S
C540 C536 1.328 . S
C540 C541 1.433 . S
C540 H554 0.931 . S
C541 C537 1.323 . S
C541 C540 1.433 . S
C541 H555 0.933 . S
C542 Dy520 2.738 . S
C542 O525 1.255 . S
C542 O526 1.249 . S
C542 C536 1.516 . S
C543 O527 1.254 . S
C543 O528 1.257 . S
C544 O529 1.266 . S
C544 O530 1.236 . S
C545 C548 1.344 . S
C545 C549 1.328 . S
C545 C551 1.516 . S
C546 C547 1.304 . S
C546 C550 1.323 . S
C547 C546 1.304 . S
C547 C548 1.371 . S
C547 H556 0.930 . S
C548 C545 1.344 . S
C548 C547 1.371 . S
C548 H557 0.931 . S
C549 C545 1.328 . S
C549 C550 1.433 . S
C549 H558 0.931 . S
C550 C546 1.323 . S
C550 C549 1.433 . S
C550 H559 0.933 . S
C551 Dy521 2.738 . S
C551 O531 1.255 . S
C551 O532 1.249 . S
C551 C545 1.516 . S
H552 C538 0.930 . S
H553 C539 0.931 . S
H554 C540 0.931 . S
H555 C541 0.933 . S
H556 C547 0.930 . S
H557 C548 0.931 . S
H558 C549 0.931 . S
H559 C550 0.933 . S
Dy560 O563 2.307 . S
Dy560 O565 2.395 . S
Dy560 O566 2.379 . S
Dy560 O568 2.339 1_554 S
Dy560 O570 2.298 1_554 S
Dy560 O574 2.275 . S
Dy560 C582 2.738 . S
Dy561 O564 2.298 . S
Dy561 O567 2.275 . S
Dy561 O569 2.307 . S
Dy561 O571 2.395 . S
Dy561 O572 2.379 . S
Dy561 O575 2.339 . S
Dy561 C591 2.738 . S
C562 O574 1.254 . S
C562 O575 1.257 1_554 S
O563 Dy560 2.307 . S
O563 C573 1.266 1_554 S
O564 Dy561 2.298 . S
O564 C573 1.236 . S
O565 Dy560 2.395 . S
O565 C582 1.255 . S
O566 Dy560 2.379 . S
O566 C582 1.249 . S
O567 Dy561 2.275 . S
O567 C583 1.254 . S
O568 Dy560 2.339 1_556 S
O568 C583 1.257 . S
O569 Dy561 2.307 . S
O569 C584 1.266 . S
O570 Dy560 2.298 1_556 S
O570 C584 1.236 . S
O571 Dy561 2.395 . S
O571 C591 1.255 . S
O572 Dy561 2.379 . S
O572 C591 1.249 . S
C573 O563 1.266 1_556 S
C573 O564 1.236 . S
O574 Dy560 2.275 . S
O574 C562 1.254 . S
O575 Dy561 2.339 . S
O575 C562 1.257 1_556 S
C576 C579 1.344 . S
C576 C580 1.328 . S
C576 C582 1.516 . S
C577 C578 1.304 . S
C577 C581 1.323 . S
C578 C577 1.304 . S
C578 C579 1.371 . S
C578 H592 0.930 . S
C579 C576 1.344 . S
C579 C578 1.371 . S
C579 H593 0.931 . S
C580 C576 1.328 . S
C580 C581 1.433 . S
C580 H594 0.931 . S
C581 C577 1.323 . S
C581 C580 1.433 . S
C581 H595 0.933 . S
C582 Dy560 2.738 . S
C582 O565 1.255 . S
C582 O566 1.249 . S
C582 C576 1.516 . S
C583 O567 1.254 . S
C583 O568 1.257 . S
C584 O569 1.266 . S
C584 O570 1.236 . S
C585 C588 1.344 . S
C585 C589 1.328 . S
C585 C591 1.516 . S
C586 C587 1.304 . S
C586 C590 1.323 . S
C587 C586 1.304 . S
C587 C588 1.371 . S
C587 H596 0.930 . S
C588 C585 1.344 . S
C588 C587 1.371 . S
C588 H597 0.931 . S
C589 C585 1.328 . S
C589 C590 1.433 . S
C589 H598 0.931 . S
C590 C586 1.323 . S
C590 C589 1.433 . S
C590 H599 0.933 . S
C591 Dy561 2.738 . S
C591 O571 1.255 . S
C591 O572 1.249 . S
C591 C585 1.516 . S
H592 C578 0.930 . S
H593 C579 0.931 . S
H594 C580 0.931 . S
H595 C581 0.933 . S
H596 C587 0.930 . S
H597 C588 0.931 . S
H598 C589 0.931 . S
H599 C590 0.933 . S
Dy600 O603 2.307 . S
Dy600 O605 2.395 . S
Dy600 O606 2.379 . S
Dy600 O608 2.339 . S
Dy600 O610 2.298 . S
Dy600 O614 2.275 . S
Dy600 C622 2.738 . S
Dy601 O604 2.298 . S
Dy601 O607 2.275 . S
Dy601 O609 2.307 . S
Dy601 O611 2.395 . S
Dy601 O612 2.379 . S
Dy601 O615 2.339 . S
Dy601 C631 2.738 . S
C602 O614 1.254 . S
C602 O615 1.257 . S
O603 Dy600 2.307 . S
O603 C613 1.266 . S
O604 Dy601 2.298 . S
O604 C613 1.236 . S
O605 Dy600 2.395 . S
O605 C622 1.255 . S
O606 Dy600 2.379 . S
O606 C622 1.249 . S
O607 Dy601 2.275 . S
O607 C623 1.254 . S
O608 Dy600 2.339 . S
O608 C623 1.257 . S
O609 Dy601 2.307 . S
O609 C624 1.266 . S
O610 Dy600 2.298 . S
O610 C624 1.236 . S
O611 Dy601 2.395 . S
O611 C631 1.255 . S
O612 Dy601 2.379 . S
O612 C631 1.249 . S
C613 O603 1.266 . S
C613 O604 1.236 . S
O614 Dy600 2.275 . S
O614 C602 1.254 . S
O615 Dy601 2.339 . S
O615 C602 1.257 . S
C616 C619 1.344 . S
C616 C620 1.328 . S
C616 C622 1.516 . S
C617 C618 1.304 . S
C617 C621 1.323 . S
C618 C617 1.304 . S
C618 C619 1.371 . S
C618 H632 0.930 . S
C619 C616 1.344 . S
C619 C618 1.371 . S
C619 H633 0.931 . S
C620 C616 1.328 . S
C620 C621 1.433 . S
C620 H634 0.931 . S
C621 C617 1.323 . S
C621 C620 1.433 . S
C621 H635 0.933 . S
C622 Dy600 2.738 . S
C622 O605 1.255 . S
C622 O606 1.249 . S
C622 C616 1.516 . S
C623 O607 1.254 . S
C623 O608 1.257 . S
C624 O609 1.266 . S
C624 O610 1.236 . S
C625 C628 1.344 . S
C625 C629 1.328 . S
C625 C631 1.516 . S
C626 C627 1.304 . S
C626 C630 1.323 . S
C627 C626 1.304 . S
C627 C628 1.371 . S
C627 H636 0.930 . S
C628 C625 1.344 . S
C628 C627 1.371 . S
C628 H637 0.931 . S
C629 C625 1.328 . S
C629 C630 1.433 . S
C629 H638 0.931 . S
C630 C626 1.323 . S
C630 C629 1.433 . S
C630 H639 0.933 . S
C631 Dy601 2.738 . S
C631 O611 1.255 . S
C631 O612 1.249 . S
C631 C625 1.516 . S
H632 C618 0.930 . S
H633 C619 0.931 . S
H634 C620 0.931 . S
H635 C621 0.933 . S
H636 C627 0.930 . S
H637 C628 0.931 . S
H638 C629 0.931 . S
H639 C630 0.933 . S
H640 C646 0.930 . S
H641 C649 0.930 . S
H642 C650 0.930 . S
H643 C651 0.930 . S
H644 C654 0.930 . S
H645 C655 0.930 . S
C646 H640 0.930 . S
C646 C647 1.355 . S
C646 C648 1.415 . S
C647 C646 1.355 . S
C647 C649 1.419 . S
C648 C646 1.415 . S
C648 C653 1.425 . S
C648 C655 1.409 . S
C649 H641 0.930 . S
C649 C647 1.419 . S
C649 C650 1.362 . S
C650 H642 0.930 . S
C650 C649 1.362 . S
C650 C653 1.409 . S
C651 H643 0.930 . S
C651 C652 1.355 . S
C651 C653 1.415 . S
C652 C651 1.355 . S
C652 C654 1.419 . S
C653 C648 1.425 . S
C653 C650 1.409 . S
C653 C651 1.415 . S
C654 H644 0.930 . S
C654 C652 1.419 . S
C654 C655 1.362 . S
C655 H645 0.930 . S
C655 C648 1.409 . S
C655 C654 1.362 . S
H656 C662 0.930 . S
H657 C665 0.930 . S
H658 C666 0.930 . S
H659 C667 0.930 . S
H660 C670 0.930 . S
H661 C671 0.930 . S
C662 H656 0.930 . S
C662 C663 1.355 . S
C662 C664 1.415 . S
C663 C662 1.355 . S
C663 C665 1.419 . S
C664 C662 1.415 . S
C664 C669 1.425 . S
C664 C671 1.409 . S
C665 H657 0.930 . S
C665 C663 1.419 . S
C665 C666 1.362 . S
C666 H658 0.930 . S
C666 C665 1.362 . S
C666 C669 1.409 . S
C667 H659 0.930 . S
C667 C668 1.355 . S
C667 C669 1.415 . S
C668 C667 1.355 . S
C668 C670 1.419 . S
C669 C664 1.425 . S
C669 C666 1.409 . S
C669 C667 1.415 . S
C670 H660 0.930 . S
C670 C668 1.419 . S
C670 C671 1.362 . S
C671 H661 0.930 . S
C671 C664 1.409 . S
C671 C670 1.362 . S
H672 C678 0.930 . S
H673 C681 0.930 . S
H674 C682 0.930 . S
H675 C683 0.930 . S
H676 C686 0.930 . S
H677 C687 0.930 . S
C678 H672 0.930 . S
C678 C679 1.355 . S
C678 C680 1.415 1_455 S
C679 C678 1.355 . S
C679 C681 1.419 . S
C680 C678 1.415 1_655 S
C680 C685 1.425 1_655 S
C680 C687 1.409 . S
C681 H673 0.930 . S
C681 C679 1.419 . S
C681 C682 1.362 . S
C682 H674 0.930 . S
C682 C681 1.362 . S
C682 C685 1.409 . S
C683 H675 0.930 . S
C683 C684 1.355 . S
C683 C685 1.415 1_655 S
C684 C683 1.355 . S
C684 C686 1.419 . S
C685 C680 1.425 1_455 S
C685 C682 1.409 . S
C685 C683 1.415 1_455 S
C686 H676 0.930 . S
C686 C684 1.419 . S
C686 C687 1.362 . S
C687 H677 0.930 . S
C687 C680 1.409 . S
C687 C686 1.362 . S
H688 C694 0.930 . S
H689 C697 0.930 . S
H690 C698 0.930 . S
H691 C699 0.930 . S
H692 C702 0.930 . S
H693 C703 0.930 . S
C694 H688 0.930 . S
C694 C695 1.355 . S
C694 C696 1.415 1_655 S
C695 C694 1.355 . S
C695 C697 1.419 . S
C696 C694 1.415 1_455 S
C696 C701 1.425 1_455 S
C696 C703 1.409 . S
C697 H689 0.930 . S
C697 C695 1.419 . S
C697 C698 1.362 . S
C698 H690 0.930 . S
C698 C697 1.362 . S
C698 C701 1.409 . S
C699 H691 0.930 . S
C699 C700 1.355 . S
C699 C701 1.415 1_455 S
C700 C699 1.355 . S
C700 C702 1.419 . S
C701 C696 1.425 1_655 S
C701 C698 1.409 . S
C701 C699 1.415 1_655 S
C702 H692 0.930 . S
C702 C700 1.419 . S
C702 C703 1.362 . S
C703 H693 0.930 . S
C703 C696 1.409 . S
C703 C702 1.362 . S
H704 C710 0.930 . S
H705 C713 0.930 . S
H706 C714 0.930 . S
H707 C715 0.930 . S
H708 C718 0.930 . S
H709 C719 0.930 . S
C710 H704 0.930 . S
C710 C711 1.355 . S
C710 C712 1.415 . S
C711 C710 1.355 . S
C711 C713 1.419 . S
C712 C710 1.415 . S
C712 C717 1.425 . S
C712 C719 1.409 . S
C713 H705 0.930 . S
C713 C711 1.419 . S
C713 C714 1.362 . S
C714 H706 0.930 . S
C714 C713 1.362 . S
C714 C717 1.409 . S
C715 H707 0.930 . S
C715 C716 1.355 . S
C715 C717 1.415 . S
C716 C715 1.355 . S
C716 C718 1.419 . S
C717 C712 1.425 . S
C717 C714 1.409 . S
C717 C715 1.415 . S
C718 H708 0.930 . S
C718 C716 1.419 . S
C718 C719 1.362 . S
C719 H709 0.930 . S
C719 C712 1.409 . S
C719 C718 1.362 . S
H720 C726 0.930 . S
H721 C729 0.930 . S
H722 C730 0.930 . S
H723 C731 0.930 . S
H724 C734 0.930 . S
H725 C735 0.930 . S
C726 H720 0.930 . S
C726 C727 1.355 . S
C726 C728 1.415 . S
C727 C726 1.355 . S
C727 C729 1.419 . S
C728 C726 1.415 . S
C728 C733 1.425 . S
C728 C735 1.409 . S
C729 H721 0.930 . S
C729 C727 1.419 . S
C729 C730 1.362 . S
C730 H722 0.930 . S
C730 C729 1.362 . S
C730 C733 1.409 . S
C731 H723 0.930 . S
C731 C732 1.355 . S
C731 C733 1.415 . S
C732 C731 1.355 . S
C732 C734 1.419 . S
C733 C728 1.425 . S
C733 C730 1.409 . S
C733 C731 1.415 . S
C734 H724 0.930 . S
C734 C732 1.419 . S
C734 C735 1.362 . S
C735 H725 0.930 . S
C735 C728 1.409 . S
C735 C734 1.362 . S
H736 C742 0.930 . S
H737 C745 0.930 . S
H738 C746 0.930 . S
H739 C747 0.930 . S
H740 C750 0.930 . S
H741 C751 0.930 . S
C742 H736 0.930 . S
C742 C743 1.355 . S
C742 C744 1.409 1_655 S
C743 C742 1.355 . S
C743 C745 1.419 . S
C744 C742 1.409 1_455 S
C744 C749 1.425 1_455 S
C744 C751 1.414 . S
C745 H737 0.930 . S
C745 C743 1.419 . S
C745 C746 1.362 . S
C746 H738 0.930 . S
C746 C745 1.362 . S
C746 C749 1.414 . S
C747 H739 0.930 . S
C747 C748 1.355 . S
C747 C749 1.409 1_455 S
C748 C747 1.355 . S
C748 C750 1.419 . S
C749 C744 1.425 1_655 S
C749 C746 1.414 . S
C749 C747 1.409 1_655 S
C750 H740 0.930 . S
C750 C748 1.419 . S
C750 C751 1.362 . S
C751 H741 0.930 . S
C751 C744 1.414 . S
C751 C750 1.362 . S
H752 C758 0.930 . S
H753 C761 0.930 . S
H754 C762 0.930 . S
H755 C763 0.930 . S
H756 C766 0.930 . S
H757 C767 0.930 . S
C758 H752 0.930 . S
C758 C759 1.355 . S
C758 C760 1.415 1_455 S
C759 C758 1.355 . S
C759 C761 1.419 . S
C760 C758 1.415 1_655 S
C760 C765 1.425 1_655 S
C760 C767 1.409 . S
C761 H753 0.930 . S
C761 C759 1.419 . S
C761 C762 1.362 . S
C762 H754 0.930 . S
C762 C761 1.362 . S
C762 C765 1.409 . S
C763 H755 0.930 . S
C763 C764 1.355 . S
C763 C765 1.415 1_655 S
C764 C763 1.355 . S
C764 C766 1.419 . S
C765 C760 1.425 1_455 S
C765 C762 1.409 . S
C765 C763 1.415 1_455 S
C766 H756 0.930 . S
C766 C764 1.419 . S
C766 C767 1.362 . S
C767 H757 0.930 . S
C767 C760 1.409 . S
C767 C766 1.362 . S
H768 C774 0.930 . S
H769 C777 0.930 . S
H770 C778 0.930 . S
H771 C779 0.930 . S
H772 C782 0.930 1_554 S
H773 C783 0.930 . S
C774 H768 0.930 . S
C774 C775 1.355 . S
C774 C776 1.415 . S
C775 C774 1.355 . S
C775 C777 1.419 . S
C776 C774 1.415 . S
C776 C781 1.425 . S
C776 C783 1.409 . S
C777 H769 0.930 . S
C777 C775 1.419 . S
C777 C778 1.362 . S
C778 H770 0.930 . S
C778 C777 1.362 . S
C778 C781 1.409 . S
C779 H771 0.930 . S
C779 C780 1.355 . S
C779 C781 1.415 . S
C780 C779 1.355 . S
C780 C782 1.419 . S
C781 C776 1.425 . S
C781 C778 1.409 . S
C781 C779 1.415 . S
C782 H772 0.930 1_556 S
C782 C780 1.419 . S
C782 C783 1.362 . S
C783 H773 0.930 . S
C783 C776 1.409 . S
C783 C782 1.362 . S
H784 C790 0.930 . S
H785 C793 0.930 . S
H786 C794 0.930 . S
H787 C795 0.930 . S
H788 C798 0.930 . S
H789 C799 0.930 . S
C790 H784 0.930 . S
C790 C791 1.355 . S
C790 C792 1.415 . S
C791 C790 1.355 . S
C791 C793 1.419 . S
C792 C790 1.415 . S
C792 C797 1.425 . S
C792 C799 1.409 . S
C793 H785 0.930 . S
C793 C791 1.419 . S
C793 C794 1.362 . S
C794 H786 0.930 . S
C794 C793 1.362 . S
C794 C797 1.409 . S
C795 H787 0.930 . S
C795 C796 1.355 . S
C795 C797 1.415 . S
C796 C795 1.355 . S
C796 C798 1.419 . S
C797 C792 1.425 . S
C797 C794 1.409 . S
C797 C795 1.415 . S
C798 H788 0.930 . S
C798 C796 1.419 . S
C798 C799 1.362 . S
C799 H789 0.930 . S
C799 C792 1.409 . S
C799 C798 1.362 . S
H800 C806 0.930 . S
H801 C809 0.930 . S
H802 C810 0.930 . S
H803 C811 0.930 . S
H804 C814 0.930 . S
H805 C815 0.930 . S
C806 H800 0.930 . S
C806 C807 1.355 . S
C806 C808 1.415 . S
C807 C806 1.355 . S
C807 C809 1.419 . S
C808 C806 1.415 . S
C808 C813 1.425 . S
C808 C815 1.409 . S
C809 H801 0.930 . S
C809 C807 1.419 . S
C809 C810 1.362 . S
C810 H802 0.930 . S
C810 C809 1.362 . S
C810 C813 1.409 . S
C811 H803 0.930 . S
C811 C812 1.355 . S
C811 C813 1.415 . S
C812 C811 1.355 . S
C812 C814 1.419 . S
C813 C808 1.425 . S
C813 C810 1.409 . S
C813 C811 1.415 . S
C814 H804 0.930 . S
C814 C812 1.419 . S
C814 C815 1.362 . S
C815 H805 0.930 . S
C815 C808 1.409 . S
C815 C814 1.362 . S
H816 C822 0.930 . S
H817 C825 0.930 . S
H818 C826 0.930 . S
H819 C827 0.930 . S
H820 C830 0.930 . S
H821 C831 0.930 . S
C822 H816 0.930 . S
C822 C823 1.355 . S
C822 C824 1.415 . S
C823 C822 1.355 . S
C823 C825 1.419 . S
C824 C822 1.415 . S
C824 C829 1.425 . S
C824 C831 1.409 . S
C825 H817 0.930 . S
C825 C823 1.419 . S
C825 C826 1.362 . S
C826 H818 0.930 . S
C826 C825 1.362 . S
C826 C829 1.409 . S
C827 H819 0.930 . S
C827 C828 1.355 . S
C827 C829 1.415 . S
C828 C827 1.355 . S
C828 C830 1.419 . S
C829 C824 1.425 . S
C829 C826 1.409 . S
C829 C827 1.415 . S
C830 H820 0.930 . S
C830 C828 1.419 . S
C830 C831 1.362 . S
C831 H821 0.930 . S
C831 C824 1.409 . S
C831 C830 1.362 . S
H832 C838 0.930 . S
H833 C841 0.930 . S
H834 C842 0.930 . S
H835 C843 0.930 . S
H836 C846 0.930 . S
H837 C847 0.930 . S
C838 H832 0.930 . S
C838 C839 1.355 . S
C838 C840 1.415 . S
C839 C838 1.355 . S
C839 C841 1.419 . S
C840 C838 1.415 . S
C840 C845 1.425 . S
C840 C847 1.409 . S
C841 H833 0.930 . S
C841 C839 1.419 . S
C841 C842 1.362 . S
C842 H834 0.930 . S
C842 C841 1.362 . S
C842 C845 1.409 . S
C843 H835 0.930 . S
C843 C844 1.355 . S
C843 C845 1.415 . S
C844 C843 1.355 . S
C844 C846 1.419 . S
C845 C840 1.425 . S
C845 C842 1.409 . S
C845 C843 1.415 . S
C846 H836 0.930 . S
C846 C844 1.419 . S
C846 C847 1.362 . S
C847 H837 0.930 . S
C847 C840 1.409 . S
C847 C846 1.362 . S
H848 C854 0.930 . S
H849 C857 0.930 . S
H850 C858 0.930 . S
H851 C859 0.930 . S
H852 C862 0.930 . S
H853 C863 0.930 . S
C854 H848 0.930 . S
C854 C855 1.355 . S
C854 C856 1.415 . S
C855 C854 1.355 . S
C855 C857 1.419 . S
C856 C854 1.415 . S
C856 C861 1.425 . S
C856 C863 1.409 . S
C857 H849 0.930 . S
C857 C855 1.419 . S
C857 C858 1.362 . S
C858 H850 0.930 . S
C858 C857 1.362 . S
C858 C861 1.409 . S
C859 H851 0.930 . S
C859 C860 1.355 . S
C859 C861 1.415 . S
C860 C859 1.355 . S
C860 C862 1.419 . S
C861 C856 1.425 . S
C861 C858 1.409 . S
C861 C859 1.415 . S
C862 H852 0.930 . S
C862 C860 1.419 . S
C862 C863 1.362 . S
C863 H853 0.930 . S
C863 C856 1.409 . S
C863 C862 1.362 . S
H864 C870 0.930 . S
H865 C873 0.930 . S
H866 C874 0.930 . S
H867 C875 0.930 . S
H868 C878 0.930 . S
H869 C879 0.930 . S
C870 H864 0.930 . S
C870 C871 1.355 . S
C870 C872 1.415 . S
C871 C870 1.355 . S
C871 C873 1.419 . S
C872 C870 1.415 . S
C872 C877 1.425 . S
C872 C879 1.409 . S
C873 H865 0.930 . S
C873 C871 1.419 . S
C873 C874 1.362 . S
C874 H866 0.930 . S
C874 C873 1.362 . S
C874 C877 1.409 . S
C875 H867 0.930 . S
C875 C876 1.355 . S
C875 C877 1.415 . S
C876 C875 1.355 . S
C876 C878 1.419 . S
C877 C872 1.425 . S
C877 C874 1.409 . S
C877 C875 1.415 . S
C878 H868 0.930 . S
C878 C876 1.419 . S
C878 C879 1.362 . S
C879 H869 0.930 . S
C879 C872 1.409 . S
C879 C878 1.362 . S
H880 C886 0.930 . S
H881 C889 0.930 . S
H882 C890 0.930 . S
H883 C891 0.930 . S
H884 C894 0.930 . S
H885 C895 0.930 . S
C886 H880 0.930 . S
C886 C887 1.355 . S
C886 C888 1.415 . S
C887 C886 1.355 . S
C887 C889 1.419 . S
C888 C886 1.415 . S
C888 C893 1.425 . S
C888 C895 1.409 . S
C889 H881 0.930 . S
C889 C887 1.419 . S
C889 C890 1.362 . S
C890 H882 0.930 . S
C890 C889 1.362 . S
C890 C893 1.409 . S
C891 H883 0.930 . S
C891 C892 1.355 . S
C891 C893 1.415 . S
C892 C891 1.355 . S
C892 C894 1.419 . S
C893 C888 1.425 . S
C893 C890 1.409 . S
C893 C891 1.415 . S
C894 H884 0.930 . S
C894 C892 1.419 . S
C894 C895 1.362 . S
C895 H885 0.930 . S
C895 C888 1.409 . S
C895 C894 1.362 . S
H896 C902 0.930 . S
H897 C905 0.930 . S
H898 C906 0.930 . S
H899 C907 0.930 . S
H900 C910 0.930 . S
H901 C911 0.930 . S
C902 H896 0.930 . S
C902 C903 1.355 . S
C902 C904 1.415 . S
C903 C902 1.355 . S
C903 C905 1.419 . S
C904 C902 1.415 . S
C904 C909 1.425 . S
C904 C911 1.409 . S
C905 H897 0.930 . S
C905 C903 1.419 . S
C905 C906 1.362 . S
C906 H898 0.930 . S
C906 C905 1.362 . S
C906 C909 1.409 . S
C907 H899 0.930 . S
C907 C908 1.355 . S
C907 C909 1.415 . S
C908 C907 1.355 . S
C908 C910 1.419 . S
C909 C904 1.425 . S
C909 C906 1.409 . S
C909 C907 1.415 . S
C910 H900 0.930 . S
C910 C908 1.419 . S
C910 C911 1.362 . S
C911 H901 0.930 . S
C911 C904 1.409 . S
C911 C910 1.362 . S
H912 C918 0.930 . S
H913 C921 0.931 . S
H914 C922 0.930 . S
H915 C923 0.930 . S
H916 C926 0.930 . S
H917 C927 0.921 1_545 S
C918 H912 0.930 . S
C918 C919 1.355 . S
C918 C920 1.415 1_545 S
C919 C918 1.355 . S
C919 C921 1.426 . S
C920 C918 1.415 1_565 S
C920 C925 1.425 . S
C920 C927 1.409 . S
C921 H913 0.931 . S
C921 C919 1.426 . S
C921 C922 1.354 1_545 S
C922 H914 0.930 . S
C922 C921 1.354 1_565 S
C922 C925 1.409 . S
C923 H915 0.930 . S
C923 C924 1.355 . S
C923 C925 1.415 . S
C924 C923 1.355 . S
C924 C926 1.419 . S
C925 C920 1.425 . S
C925 C922 1.409 . S
C925 C923 1.415 . S
C926 H916 0.930 . S
C926 C924 1.419 . S
C926 C927 1.362 . S
C927 H917 0.921 1_565 S
C927 C920 1.409 . S
C927 C926 1.362 . S
H928 C934 0.930 . S
H929 C937 0.930 . S
H930 C938 0.930 . S
H931 C939 0.930 . S
H932 C942 0.930 . S
H933 C943 0.930 . S
C934 H928 0.930 . S
C934 C935 1.355 . S
C934 C936 1.415 . S
C935 C934 1.355 . S
C935 C937 1.419 . S
C936 C934 1.415 . S
C936 C941 1.425 . S
C936 C943 1.409 . S
C937 H929 0.930 . S
C937 C935 1.419 . S
C937 C938 1.362 . S
C938 H930 0.930 . S
C938 C937 1.362 . S
C938 C941 1.409 . S
C939 H931 0.930 . S
C939 C940 1.355 . S
C939 C941 1.415 . S
C940 C939 1.355 . S
C940 C942 1.419 . S
C941 C936 1.425 . S
C941 C938 1.409 . S
C941 C939 1.415 . S
C942 H932 0.930 . S
C942 C940 1.419 . S
C942 C943 1.362 . S
C943 H933 0.930 . S
C943 C936 1.409 . S
C943 C942 1.362 . S
H944 C950 0.930 . S
H945 C953 0.934 . S
H946 C954 0.930 . S
H947 C955 0.930 . S
H948 C958 0.930 . S
H949 C959 0.930 1_565 S
C950 H944 0.930 . S
C950 C951 1.355 . S
C950 C952 1.415 1_565 S
C951 C950 1.355 . S
C951 C953 1.419 1_565 S
C952 C950 1.415 1_545 S
C952 C957 1.425 . S
C952 C959 1.409 . S
C953 H945 0.934 . S
C953 C951 1.419 1_545 S
C953 C954 1.362 . S
C954 H946 0.930 . S
C954 C953 1.362 . S
C954 C957 1.409 . S
C955 H947 0.930 . S
C955 C956 1.355 . S
C955 C957 1.415 . S
C956 C955 1.355 . S
C956 C958 1.419 . S
C957 C952 1.425 . S
C957 C954 1.409 . S
C957 C955 1.415 . S
C958 H948 0.930 . S
C958 C956 1.419 . S
C958 C959 1.362 . S
C959 H949 0.930 1_545 S
C959 C952 1.409 . S
C959 C958 1.362 . S
H960 C966 0.930 . S
H961 C969 0.930 . S
H962 C970 0.930 . S
H963 C971 0.930 . S
H964 C974 0.930 . S
H965 C975 0.930 . S
C966 H960 0.930 . S
C966 C967 1.355 . S
C966 C968 1.415 . S
C967 C966 1.355 . S
C967 C969 1.419 . S
C968 C966 1.415 . S
C968 C973 1.425 . S
C968 C975 1.409 . S
C969 H961 0.930 . S
C969 C967 1.419 . S
C969 C970 1.362 . S
C970 H962 0.930 . S
C970 C969 1.362 . S
C970 C973 1.409 . S
C971 H963 0.930 . S
C971 C972 1.355 . S
C971 C973 1.415 . S
C972 C971 1.355 . S
C972 C974 1.419 . S
C973 C968 1.425 . S
C973 C970 1.409 . S
C973 C971 1.415 . S
C974 H964 0.930 . S
C974 C972 1.419 . S
C974 C975 1.362 . S
C975 H965 0.930 . S
C975 C968 1.409 . S
C975 C974 1.362 . S
H976 C982 0.930 . S
H977 C985 0.930 . S
H978 C986 0.930 . S
H979 C987 0.930 . S
H980 C990 0.930 . S
H981 C991 0.930 . S
C982 H976 0.930 . S
C982 C983 1.355 . S
C982 C984 1.415 . S
C983 C982 1.355 . S
C983 C985 1.419 . S
C984 C982 1.415 . S
C984 C989 1.425 . S
C984 C991 1.409 . S
C985 H977 0.930 . S
C985 C983 1.419 . S
C985 C986 1.362 . S
C986 H978 0.930 . S
C986 C985 1.362 . S
C986 C989 1.409 . S
C987 H979 0.930 . S
C987 C988 1.355 . S
C987 C989 1.415 1_565 S
C988 C987 1.355 . S
C988 C990 1.419 . S
C989 C984 1.425 . S
C989 C986 1.409 . S
C989 C987 1.415 1_545 S
C990 H980 0.930 . S
C990 C988 1.419 . S
C990 C991 1.362 1_565 S
C991 H981 0.930 . S
C991 C984 1.409 . S
C991 C990 1.362 1_545 S
H992 C998 0.930 . S
H993 C1001 0.930 . S
H994 C1002 0.930 . S
H995 C1003 0.930 . S
H996 C1006 0.906 1_556 S
H997 C1007 0.930 . S
C998 H992 0.930 . S
C998 C999 1.355 . S
C998 C1000 1.415 . S
C999 C998 1.355 . S
C999 C1001 1.419 . S
C1000 C998 1.415 . S
C1000 C1005 1.425 . S
C1000 C1007 1.409 . S
C1001 H993 0.930 . S
C1001 C999 1.419 . S
C1001 C1002 1.362 . S
C1002 H994 0.930 . S
C1002 C1001 1.362 . S
C1002 C1005 1.409 . S
C1003 H995 0.930 . S
C1003 C1004 1.355 . S
C1003 C1005 1.415 . S
C1004 C1003 1.355 . S
C1004 C1006 1.419 . S
C1005 C1000 1.425 . S
C1005 C1002 1.409 . S
C1005 C1003 1.415 . S
C1006 H996 0.906 1_554 S
C1006 C1004 1.419 . S
C1006 C1007 1.362 . S
C1007 H997 0.930 . S
C1007 C1000 1.409 . S
C1007 C1006 1.362 . S
H1008 C1014 0.930 . S
H1009 C1017 0.930 . S
H1010 C1018 0.930 . S
H1011 C1019 0.930 . S
H1012 C1022 0.930 . S
H1013 C1023 0.930 . S
C1014 H1008 0.930 . S
C1014 C1015 1.355 . S
C1014 C1016 1.415 1_545 S
C1015 C1014 1.355 . S
C1015 C1017 1.419 . S
C1016 C1014 1.415 1_565 S
C1016 C1021 1.425 . S
C1016 C1023 1.409 . S
C1017 H1009 0.930 . S
C1017 C1015 1.419 . S
C1017 C1018 1.362 1_545 S
C1018 H1010 0.930 . S
C1018 C1017 1.362 1_565 S
C1018 C1021 1.409 . S
C1019 H1011 0.930 . S
C1019 C1020 1.355 . S
C1019 C1021 1.415 . S
C1020 C1019 1.355 . S
C1020 C1022 1.419 . S
C1021 C1016 1.425 . S
C1021 C1018 1.409 . S
C1021 C1019 1.415 . S
C1022 H1012 0.930 . S
C1022 C1020 1.419 . S
C1022 C1023 1.362 . S
C1023 H1013 0.930 . S
C1023 C1016 1.409 . S
C1023 C1022 1.362 . S
H1024 C1030 0.930 . S
H1025 C1033 0.930 . S
H1026 C1034 0.930 . S
H1027 C1035 0.930 . S
H1028 C1038 0.930 . S
H1029 C1039 0.930 . S
C1030 H1024 0.930 . S
C1030 C1031 1.355 . S
C1030 C1032 1.415 . S
C1031 C1030 1.355 . S
C1031 C1033 1.419 . S
C1032 C1030 1.415 . S
C1032 C1037 1.425 . S
C1032 C1039 1.409 . S
C1033 H1025 0.930 . S
C1033 C1031 1.419 . S
C1033 C1034 1.362 . S
C1034 H1026 0.930 . S
C1034 C1033 1.362 . S
C1034 C1037 1.409 . S
C1035 H1027 0.930 . S
C1035 C1036 1.355 . S
C1035 C1037 1.415 . S
C1036 C1035 1.355 . S
C1036 C1038 1.419 . S
C1037 C1032 1.425 . S
C1037 C1034 1.409 . S
C1037 C1035 1.415 . S
C1038 H1028 0.930 . S
C1038 C1036 1.419 . S
C1038 C1039 1.362 . S
C1039 H1029 0.930 . S
C1039 C1032 1.409 . S
C1039 C1038 1.362 . S
H1040 C1046 0.930 . S
H1041 C1049 0.930 . S
H1042 C1050 0.930 . S
H1043 C1051 0.930 . S
H1044 C1054 0.930 . S
H1045 C1055 0.930 . S
C1046 H1040 0.930 . S
C1046 C1047 1.355 . S
C1046 C1048 1.415 . S
C1047 C1046 1.355 . S
C1047 C1049 1.419 . S
C1048 C1046 1.415 . S
C1048 C1053 1.425 . S
C1048 C1055 1.409 . S
C1049 H1041 0.930 . S
C1049 C1047 1.419 . S
C1049 C1050 1.362 . S
C1050 H1042 0.930 . S
C1050 C1049 1.362 . S
C1050 C1053 1.409 . S
C1051 H1043 0.930 . S
C1051 C1052 1.355 . S
C1051 C1053 1.415 . S
C1052 C1051 1.355 . S
C1052 C1054 1.419 . S
C1053 C1048 1.425 . S
C1053 C1050 1.409 . S
C1053 C1051 1.415 . S
C1054 H1044 0.930 . S
C1054 C1052 1.419 . S
C1054 C1055 1.362 . S
C1055 H1045 0.930 . S
C1055 C1048 1.409 . S
C1055 C1054 1.362 . S
H1056 C1062 0.930 . S
H1057 C1065 0.930 . S
H1058 C1066 0.930 . S
H1059 C1067 0.930 . S
H1060 C1070 0.930 . S
H1061 C1071 0.930 . S
C1062 H1056 0.930 . S
C1062 C1063 1.355 . S
C1062 C1064 1.415 . S
C1063 C1062 1.355 . S
C1063 C1065 1.419 . S
C1064 C1062 1.415 . S
C1064 C1069 1.425 . S
C1064 C1071 1.409 1_655 S
C1065 H1057 0.930 . S
C1065 C1063 1.419 . S
C1065 C1066 1.362 . S
C1066 H1058 0.930 . S
C1066 C1065 1.362 . S
C1066 C1069 1.409 . S
C1067 H1059 0.930 . S
C1067 C1068 1.355 . S
C1067 C1069 1.415 . S
C1068 C1067 1.355 . S
C1068 C1070 1.419 1_655 S
C1069 C1064 1.425 . S
C1069 C1066 1.409 . S
C1069 C1067 1.415 . S
C1070 H1060 0.930 . S
C1070 C1068 1.419 1_455 S
C1070 C1071 1.362 . S
C1071 H1061 0.930 . S
C1071 C1064 1.409 1_455 S
C1071 C1070 1.362 . S
H1072 C1078 0.930 . S
H1073 C1081 0.930 . S
H1074 C1082 0.930 . S
H1075 C1083 0.930 . S
H1076 C1086 0.930 . S
H1077 C1087 0.930 . S
C1078 H1072 0.930 . S
C1078 C1079 1.355 . S
C1078 C1080 1.415 . S
C1079 C1078 1.355 . S
C1079 C1081 1.419 . S
C1080 C1078 1.415 . S
C1080 C1085 1.425 . S
C1080 C1087 1.409 . S
C1081 H1073 0.930 . S
C1081 C1079 1.419 . S
C1081 C1082 1.362 . S
C1082 H1074 0.930 . S
C1082 C1081 1.362 . S
C1082 C1085 1.409 . S
C1083 H1075 0.930 . S
C1083 C1084 1.355 . S
C1083 C1085 1.415 . S
C1084 C1083 1.355 . S
C1084 C1086 1.419 . S
C1085 C1080 1.425 . S
C1085 C1082 1.409 . S
C1085 C1083 1.415 . S
C1086 H1076 0.930 . S
C1086 C1084 1.419 . S
C1086 C1087 1.362 . S
C1087 H1077 0.930 . S
C1087 C1080 1.409 . S
C1087 C1086 1.362 . S
H1088 C1094 0.930 . S
H1089 C1097 0.930 . S
H1090 C1098 0.930 . S
H1091 C1099 0.930 . S
H1092 C1102 0.930 . S
H1093 C1103 0.930 . S
C1094 H1088 0.930 . S
C1094 C1095 1.355 . S
C1094 C1096 1.415 . S
C1095 C1094 1.355 . S
C1095 C1097 1.419 . S
C1096 C1094 1.415 . S
C1096 C1101 1.425 . S
C1096 C1103 1.409 . S
C1097 H1089 0.930 . S
C1097 C1095 1.419 . S
C1097 C1098 1.362 . S
C1098 H1090 0.930 . S
C1098 C1097 1.362 . S
C1098 C1101 1.409 . S
C1099 H1091 0.930 . S
C1099 C1100 1.355 . S
C1099 C1101 1.415 . S
C1100 C1099 1.355 . S
C1100 C1102 1.419 . S
C1101 C1096 1.425 . S
C1101 C1098 1.409 . S
C1101 C1099 1.415 . S
C1102 H1092 0.930 . S
C1102 C1100 1.419 . S
C1102 C1103 1.362 . S
C1103 H1093 0.930 . S
C1103 C1096 1.409 . S
C1103 C1102 1.362 . S
H1104 C1110 0.930 . S
H1105 C1113 0.930 . S
H1106 C1114 0.930 . S
H1107 C1115 0.930 . S
H1108 C1118 0.930 1_554 S
H1109 C1119 0.930 . S
C1110 H1104 0.930 . S
C1110 C1111 1.355 . S
C1110 C1112 1.415 . S
C1111 C1110 1.355 . S
C1111 C1113 1.419 . S
C1112 C1110 1.415 . S
C1112 C1117 1.425 . S
C1112 C1119 1.409 . S
C1113 H1105 0.930 . S
C1113 C1111 1.419 . S
C1113 C1114 1.362 . S
C1114 H1106 0.930 . S
C1114 C1113 1.362 . S
C1114 C1117 1.409 . S
C1115 H1107 0.930 . S
C1115 C1116 1.355 . S
C1115 C1117 1.415 . S
C1116 C1115 1.355 . S
C1116 C1118 1.419 . S
C1117 C1112 1.425 . S
C1117 C1114 1.409 . S
C1117 C1115 1.415 . S
C1118 H1108 0.930 1_556 S
C1118 C1116 1.419 . S
C1118 C1119 1.362 . S
C1119 H1109 0.930 . S
C1119 C1112 1.409 . S
C1119 C1118 1.362 . S
H1120 C1126 0.930 . S
H1121 C1129 0.930 . S
H1122 C1130 0.930 . S
H1123 C1131 0.930 . S
H1124 C1134 0.930 1_655 S
H1125 C1135 0.930 . S
C1126 H1120 0.930 . S
C1126 C1127 1.355 . S
C1126 C1128 1.415 . S
C1127 C1126 1.355 . S
C1127 C1129 1.419 . S
C1128 C1126 1.415 . S
C1128 C1133 1.425 . S
C1128 C1135 1.409 . S
C1129 H1121 0.930 . S
C1129 C1127 1.419 . S
C1129 C1130 1.362 . S
C1130 H1122 0.930 . S
C1130 C1129 1.362 . S
C1130 C1133 1.409 . S
C1131 H1123 0.930 . S
C1131 C1132 1.355 . S
C1131 C1133 1.415 . S
C1132 C1131 1.355 . S
C1132 C1134 1.419 . S
C1133 C1128 1.425 . S
C1133 C1130 1.409 . S
C1133 C1131 1.415 . S
C1134 H1124 0.930 1_455 S
C1134 C1132 1.419 . S
C1134 C1135 1.362 . S
C1135 H1125 0.930 . S
C1135 C1128 1.409 . S
C1135 C1134 1.362 . S
H1136 C1142 0.930 . S
H1137 C1145 0.930 . S
H1138 C1146 0.930 . S
H1139 C1147 0.930 . S
H1140 C1150 0.930 . S
H1141 C1151 0.930 . S
C1142 H1136 0.930 . S
C1142 C1143 1.355 . S
C1142 C1144 1.415 . S
C1143 C1142 1.355 . S
C1143 C1145 1.419 . S
C1144 C1142 1.415 . S
C1144 C1149 1.425 . S
C1144 C1151 1.409 . S
C1145 H1137 0.930 . S
C1145 C1143 1.419 . S
C1145 C1146 1.362 . S
C1146 H1138 0.930 . S
C1146 C1145 1.362 . S
C1146 C1149 1.409 . S
C1147 H1139 0.930 . S
C1147 C1148 1.355 . S
C1147 C1149 1.415 . S
C1148 C1147 1.355 . S
C1148 C1150 1.419 . S
C1149 C1144 1.425 . S
C1149 C1146 1.409 . S
C1149 C1147 1.415 . S
C1150 H1140 0.930 . S
C1150 C1148 1.419 . S
C1150 C1151 1.362 . S
C1151 H1141 0.930 . S
C1151 C1144 1.409 . S
C1151 C1150 1.362 . S
H1152 C1158 0.930 . S
H1153 C1161 0.930 . S
H1154 C1162 0.930 . S
H1155 C1163 0.930 . S
H1156 C1166 0.930 . S
H1157 C1167 0.930 . S
C1158 H1152 0.930 . S
C1158 C1159 1.355 . S
C1158 C1160 1.415 . S
C1159 C1158 1.355 . S
C1159 C1161 1.419 1_455 S
C1160 C1158 1.415 . S
C1160 C1165 1.425 . S
C1160 C1167 1.409 . S
C1161 H1153 0.930 . S
C1161 C1159 1.419 1_655 S
C1161 C1162 1.362 . S
C1162 H1154 0.930 . S
C1162 C1161 1.362 . S
C1162 C1165 1.409 1_655 S
C1163 H1155 0.930 . S
C1163 C1164 1.355 . S
C1163 C1165 1.415 . S
C1164 C1163 1.355 . S
C1164 C1166 1.419 . S
C1165 C1160 1.425 . S
C1165 C1162 1.409 1_455 S
C1165 C1163 1.415 . S
C1166 H1156 0.930 . S
C1166 C1164 1.419 . S
C1166 C1167 1.362 . S
C1167 H1157 0.930 . S
C1167 C1160 1.409 . S
C1167 C1166 1.362 . S
H1168 C1174 0.930 . S
H1169 C1177 0.930 . S
H1170 C1178 0.930 . S
H1171 C1179 0.930 . S
H1172 C1182 0.930 . S
H1173 C1183 0.930 . S
C1174 H1168 0.930 . S
C1174 C1175 1.355 . S
C1174 C1176 1.415 . S
C1175 C1174 1.355 . S
C1175 C1177 1.419 . S
C1176 C1174 1.415 . S
C1176 C1181 1.425 . S
C1176 C1183 1.409 . S
C1177 H1169 0.930 . S
C1177 C1175 1.419 . S
C1177 C1178 1.362 . S
C1178 H1170 0.930 . S
C1178 C1177 1.362 . S
C1178 C1181 1.409 . S
C1179 H1171 0.930 . S
C1179 C1180 1.355 . S
C1179 C1181 1.415 . S
C1180 C1179 1.355 . S
C1180 C1182 1.419 . S
C1181 C1176 1.425 . S
C1181 C1178 1.409 . S
C1181 C1179 1.415 . S
C1182 H1172 0.930 . S
C1182 C1180 1.419 . S
C1182 C1183 1.362 . S
C1183 H1173 0.930 . S
C1183 C1176 1.409 . S
C1183 C1182 1.362 . S
H1184 C1190 0.930 . S
H1185 C1193 0.930 . S
H1186 C1194 0.930 . S
H1187 C1195 0.930 . S
H1188 C1198 0.930 . S
H1189 C1199 0.930 . S
C1190 H1184 0.930 . S
C1190 C1191 1.355 . S
C1190 C1192 1.415 . S
C1191 C1190 1.355 . S
C1191 C1193 1.419 . S
C1192 C1190 1.415 . S
C1192 C1197 1.425 . S
C1192 C1199 1.409 . S
C1193 H1185 0.930 . S
C1193 C1191 1.419 . S
C1193 C1194 1.362 . S
C1194 H1186 0.930 . S
C1194 C1193 1.362 . S
C1194 C1197 1.409 . S
C1195 H1187 0.930 . S
C1195 C1196 1.355 . S
C1195 C1197 1.415 . S
C1196 C1195 1.355 . S
C1196 C1198 1.419 . S
C1197 C1192 1.425 . S
C1197 C1194 1.409 . S
C1197 C1195 1.415 . S
C1198 H1188 0.930 . S
C1198 C1196 1.419 . S
C1198 C1199 1.362 . S
C1199 H1189 0.930 . S
C1199 C1192 1.409 . S
C1199 C1198 1.362 . S
H1200 C1206 0.930 . S
H1201 C1209 0.930 1_556 S
H1202 C1210 0.930 . S
H1203 C1211 0.930 . S
H1204 C1214 0.930 . S
H1205 C1215 0.930 . S
C1206 H1200 0.930 . S
C1206 C1207 1.355 . S
C1206 C1208 1.415 . S
C1207 C1206 1.355 . S
C1207 C1209 1.419 . S
C1208 C1206 1.415 . S
C1208 C1213 1.425 . S
C1208 C1215 1.409 . S
C1209 H1201 0.930 1_554 S
C1209 C1207 1.419 . S
C1209 C1210 1.362 . S
C1210 H1202 0.930 . S
C1210 C1209 1.362 . S
C1210 C1213 1.409 . S
C1211 H1203 0.930 . S
C1211 C1212 1.355 . S
C1211 C1213 1.415 . S
C1212 C1211 1.355 . S
C1212 C1214 1.419 . S
C1213 C1208 1.425 . S
C1213 C1210 1.409 . S
C1213 C1211 1.415 . S
C1214 H1204 0.930 . S
C1214 C1212 1.419 . S
C1214 C1215 1.362 . S
C1215 H1205 0.930 . S
C1215 C1208 1.409 . S
C1215 C1214 1.362 . S
H1216 C1222 0.930 . S
H1217 C1225 0.930 . S
H1218 C1226 0.930 . S
H1219 C1227 0.930 . S
H1220 C1230 0.930 . S
H1221 C1231 0.930 . S
C1222 H1216 0.930 . S
C1222 C1223 1.355 . S
C1222 C1224 1.415 . S
C1223 C1222 1.355 . S
C1223 C1225 1.419 . S
C1224 C1222 1.415 . S
C1224 C1229 1.425 . S
C1224 C1231 1.409 . S
C1225 H1217 0.930 . S
C1225 C1223 1.419 . S
C1225 C1226 1.362 . S
C1226 H1218 0.930 . S
C1226 C1225 1.362 . S
C1226 C1229 1.409 . S
C1227 H1219 0.930 . S
C1227 C1228 1.355 . S
C1227 C1229 1.415 . S
C1228 C1227 1.355 . S
C1228 C1230 1.419 . S
C1229 C1224 1.425 . S
C1229 C1226 1.409 . S
C1229 C1227 1.415 . S
C1230 H1220 0.930 . S
C1230 C1228 1.419 . S
C1230 C1231 1.362 . S
C1231 H1221 0.930 . S
C1231 C1224 1.409 . S
C1231 C1230 1.362 . S
H1232 C1238 0.930 . S
H1233 C1241 0.930 . S
H1234 C1242 0.930 . S
H1235 C1243 0.930 . S
H1236 C1246 0.930 . S
H1237 C1247 0.930 . S
C1238 H1232 0.930 . S
C1238 C1239 1.355 . S
C1238 C1240 1.415 . S
C1239 C1238 1.355 . S
C1239 C1241 1.419 . S
C1240 C1238 1.415 . S
C1240 C1245 1.425 . S
C1240 C1247 1.409 . S
C1241 H1233 0.930 . S
C1241 C1239 1.419 . S
C1241 C1242 1.362 . S
C1242 H1234 0.930 . S
C1242 C1241 1.362 . S
C1242 C1245 1.409 . S
C1243 H1235 0.930 . S
C1243 C1244 1.355 . S
C1243 C1245 1.415 . S
C1244 C1243 1.355 . S
C1244 C1246 1.419 . S
C1245 C1240 1.425 . S
C1245 C1242 1.409 . S
C1245 C1243 1.415 . S
C1246 H1236 0.930 . S
C1246 C1244 1.419 . S
C1246 C1247 1.362 . S
C1247 H1237 0.930 . S
C1247 C1240 1.409 . S
C1247 C1246 1.362 . S
H1248 C1254 0.930 . S
H1249 C1257 0.930 . S
H1250 C1258 0.930 . S
H1251 C1259 0.930 . S
H1252 C1262 0.930 . S
H1253 C1263 0.930 . S
C1254 H1248 0.930 . S
C1254 C1255 1.355 . S
C1254 C1256 1.415 . S
C1255 C1254 1.355 . S
C1255 C1257 1.419 . S
C1256 C1254 1.415 . S
C1256 C1261 1.425 . S
C1256 C1263 1.409 . S
C1257 H1249 0.930 . S
C1257 C1255 1.419 . S
C1257 C1258 1.362 . S
C1258 H1250 0.930 . S
C1258 C1257 1.362 . S
C1258 C1261 1.409 . S
C1259 H1251 0.930 . S
C1259 C1260 1.355 . S
C1259 C1261 1.415 . S
C1260 C1259 1.355 . S
C1260 C1262 1.419 . S
C1261 C1256 1.425 . S
C1261 C1258 1.409 . S
C1261 C1259 1.415 . S
C1262 H1252 0.930 . S
C1262 C1260 1.419 . S
C1262 C1263 1.362 . S
C1263 H1253 0.930 . S
C1263 C1256 1.409 . S
C1263 C1262 1.362 . S
H1264 C1270 0.930 . S
H1265 C1273 0.930 1_554 S
H1266 C1274 0.930 . S
H1267 C1275 0.930 . S
H1268 C1278 0.930 . S
H1269 C1279 0.930 . S
C1270 H1264 0.930 . S
C1270 C1271 1.355 . S
C1270 C1272 1.415 . S
C1271 C1270 1.355 . S
C1271 C1273 1.419 . S
C1272 C1270 1.415 . S
C1272 C1277 1.425 . S
C1272 C1279 1.409 . S
C1273 H1265 0.930 1_556 S
C1273 C1271 1.419 . S
C1273 C1274 1.362 . S
C1274 H1266 0.930 . S
C1274 C1273 1.362 . S
C1274 C1277 1.409 . S
C1275 H1267 0.930 . S
C1275 C1276 1.355 . S
C1275 C1277 1.415 . S
C1276 C1275 1.355 . S
C1276 C1278 1.419 . S
C1277 C1272 1.425 . S
C1277 C1274 1.409 . S
C1277 C1275 1.415 . S
C1278 H1268 0.930 . S
C1278 C1276 1.419 . S
C1278 C1279 1.362 . S
C1279 H1269 0.930 . S
C1279 C1272 1.409 . S
C1279 C1278 1.362 . S
H1280 C1286 0.930 . S
H1281 C1289 0.930 . S
H1282 C1290 0.930 . S
H1283 C1291 0.930 . S
H1284 C1294 0.930 . S
H1285 C1295 0.930 . S
C1286 H1280 0.930 . S
C1286 C1287 1.355 . S
C1286 C1288 1.415 . S
C1287 C1286 1.355 . S
C1287 C1289 1.419 . S
C1288 C1286 1.415 . S
C1288 C1293 1.425 . S
C1288 C1295 1.409 . S
C1289 H1281 0.930 . S
C1289 C1287 1.419 . S
C1289 C1290 1.362 . S
C1290 H1282 0.930 . S
C1290 C1289 1.362 . S
C1290 C1293 1.409 . S
C1291 H1283 0.930 . S
C1291 C1292 1.355 . S
C1291 C1293 1.415 . S
C1292 C1291 1.355 . S
C1292 C1294 1.419 . S
C1293 C1288 1.425 . S
C1293 C1290 1.409 . S
C1293 C1291 1.415 . S
C1294 H1284 0.930 . S
C1294 C1292 1.419 . S
C1294 C1295 1.362 . S
C1295 H1285 0.930 . S
C1295 C1288 1.409 . S
C1295 C1294 1.362 . S
H1296 C1302 0.930 . S
H1297 C1305 0.930 . S
H1298 C1306 0.930 . S
H1299 C1307 0.930 . S
H1300 C1310 0.930 . S
H1301 C1311 0.930 . S
C1302 H1296 0.930 . S
C1302 C1303 1.355 . S
C1302 C1304 1.415 . S
C1303 C1302 1.355 . S
C1303 C1305 1.419 . S
C1304 C1302 1.415 . S
C1304 C1309 1.425 . S
C1304 C1311 1.409 . S
C1305 H1297 0.930 . S
C1305 C1303 1.419 . S
C1305 C1306 1.362 . S
C1306 H1298 0.930 . S
C1306 C1305 1.362 . S
C1306 C1309 1.409 . S
C1307 H1299 0.930 . S
C1307 C1308 1.355 . S
C1307 C1309 1.415 . S
C1308 C1307 1.355 . S
C1308 C1310 1.419 . S
C1309 C1304 1.425 . S
C1309 C1306 1.409 . S
C1309 C1307 1.415 . S
C1310 H1300 0.930 . S
C1310 C1308 1.419 . S
C1310 C1311 1.362 . S
C1311 H1301 0.930 . S
C1311 C1304 1.409 . S
C1311 C1310 1.362 . S
H1312 C1318 0.930 . S
H1313 C1321 0.930 . S
H1314 C1322 0.930 . S
H1315 C1323 0.930 . S
H1316 C1326 0.930 . S
H1317 C1327 0.930 . S
C1318 H1312 0.930 . S
C1318 C1319 1.355 . S
C1318 C1320 1.415 . S
C1319 C1318 1.355 . S
C1319 C1321 1.419 . S
C1320 C1318 1.415 . S
C1320 C1325 1.425 . S
C1320 C1327 1.409 . S
C1321 H1313 0.930 . S
C1321 C1319 1.419 . S
C1321 C1322 1.362 . S
C1322 H1314 0.930 . S
C1322 C1321 1.362 . S
C1322 C1325 1.409 . S
C1323 H1315 0.930 . S
C1323 C1324 1.355 . S
C1323 C1325 1.415 . S
C1324 C1323 1.355 . S
C1324 C1326 1.419 . S
C1325 C1320 1.425 . S
C1325 C1322 1.409 . S
C1325 C1323 1.415 . S
C1326 H1316 0.930 . S
C1326 C1324 1.419 . S
C1326 C1327 1.362 . S
C1327 H1317 0.930 . S
C1327 C1320 1.409 . S
C1327 C1326 1.362 . S
H1328 C1334 0.930 . S
H1329 C1337 0.930 . S
H1330 C1338 0.930 . S
H1331 C1339 0.930 . S
H1332 C1342 0.930 . S
H1333 C1343 0.930 . S
C1334 H1328 0.930 . S
C1334 C1335 1.355 . S
C1334 C1336 1.415 1_455 S
C1335 C1334 1.355 . S
C1335 C1337 1.419 . S
C1336 C1334 1.415 1_655 S
C1336 C1341 1.425 1_654 S
C1336 C1343 1.409 . S
C1337 H1329 0.930 . S
C1337 C1335 1.419 . S
C1337 C1338 1.362 1_554 S
C1338 H1330 0.930 . S
C1338 C1337 1.362 1_556 S
C1338 C1341 1.409 . S
C1339 H1331 0.930 . S
C1339 C1340 1.355 . S
C1339 C1341 1.415 1_655 S
C1340 C1339 1.355 . S
C1340 C1342 1.419 . S
C1341 C1336 1.425 1_456 S
C1341 C1338 1.409 . S
C1341 C1339 1.415 1_455 S
C1342 H1332 0.930 . S
C1342 C1340 1.419 . S
C1342 C1343 1.362 1_556 S
C1343 H1333 0.930 . S
C1343 C1336 1.409 . S
C1343 C1342 1.362 1_554 S
H1344 C1350 0.930 . S
H1345 C1353 0.930 . S
H1346 C1354 0.930 . S
H1347 C1355 0.930 . S
H1348 C1358 0.930 . S
H1349 C1359 0.930 . S
C1350 H1344 0.930 . S
C1350 C1351 1.355 . S
C1350 C1352 1.415 . S
C1351 C1350 1.355 . S
C1351 C1353 1.419 . S
C1352 C1350 1.415 . S
C1352 C1357 1.425 . S
C1352 C1359 1.409 . S
C1353 H1345 0.930 . S
C1353 C1351 1.419 . S
C1353 C1354 1.362 . S
C1354 H1346 0.930 . S
C1354 C1353 1.362 . S
C1354 C1357 1.409 . S
C1355 H1347 0.930 . S
C1355 C1356 1.355 . S
C1355 C1357 1.415 . S
C1356 C1355 1.355 . S
C1356 C1358 1.419 . S
C1357 C1352 1.425 . S
C1357 C1354 1.409 . S
C1357 C1355 1.415 . S
C1358 H1348 0.930 . S
C1358 C1356 1.419 . S
C1358 C1359 1.362 . S
C1359 H1349 0.930 . S
C1359 C1352 1.409 . S
C1359 C1358 1.362 . S
H1360 C1366 0.930 . S
H1361 C1369 0.930 . S
H1362 C1370 0.930 . S
H1363 C1371 0.930 . S
H1364 C1374 0.930 . S
H1365 C1375 0.930 . S
C1366 H1360 0.930 . S
C1366 C1367 1.355 . S
C1366 C1368 1.415 . S
C1367 C1366 1.355 . S
C1367 C1369 1.419 . S
C1368 C1366 1.415 . S
C1368 C1373 1.425 . S
C1368 C1375 1.409 . S
C1369 H1361 0.930 . S
C1369 C1367 1.419 . S
C1369 C1370 1.362 . S
C1370 H1362 0.930 . S
C1370 C1369 1.362 . S
C1370 C1373 1.409 . S
C1371 H1363 0.930 . S
C1371 C1372 1.355 . S
C1371 C1373 1.415 . S
C1372 C1371 1.355 . S
C1372 C1374 1.419 . S
C1373 C1368 1.425 . S
C1373 C1370 1.409 . S
C1373 C1371 1.415 . S
C1374 H1364 0.930 . S
C1374 C1372 1.419 . S
C1374 C1375 1.362 . S
C1375 H1365 0.930 . S
C1375 C1368 1.409 . S
C1375 C1374 1.362 . S
H1376 C1382 0.930 . S
H1377 C1385 0.930 . S
H1378 C1386 0.930 . S
H1379 C1387 0.930 . S
H1380 C1390 0.930 . S
H1381 C1391 0.930 . S
C1382 H1376 0.930 . S
C1382 C1383 1.355 . S
C1382 C1384 1.415 1_556 S
C1383 C1382 1.355 . S
C1383 C1385 1.419 1_565 S
C1384 C1382 1.415 1_554 S
C1384 C1389 1.425 1_464 S
C1384 C1391 1.409 . S
C1385 H1377 0.930 . S
C1385 C1383 1.419 1_545 S
C1385 C1386 1.362 1_455 S
C1386 H1378 0.930 . S
C1386 C1385 1.362 1_655 S
C1386 C1389 1.409 . S
C1387 H1379 0.930 . S
C1387 C1388 1.355 . S
C1387 C1389 1.415 1_554 S
C1388 C1387 1.355 . S
C1388 C1390 1.419 1_545 S
C1389 C1384 1.425 1_646 S
C1389 C1386 1.409 . S
C1389 C1387 1.415 1_556 S
C1390 H1380 0.930 . S
C1390 C1388 1.419 1_565 S
C1390 C1391 1.362 1_655 S
C1391 H1381 0.930 . S
C1391 C1384 1.409 . S
C1391 C1390 1.362 1_455 S
H1392 C1398 0.930 . S
H1393 C1401 0.930 . S
H1394 C1402 0.930 . S
H1395 C1403 0.930 . S
H1396 C1406 0.930 . S
H1397 C1407 0.930 . S
C1398 H1392 0.930 . S
C1398 C1399 1.355 1_545 S
C1398 C1400 1.415 . S
C1399 C1398 1.355 1_565 S
C1399 C1401 1.419 . S
C1400 C1398 1.415 . S
C1400 C1405 1.425 1_545 S
C1400 C1407 1.409 . S
C1401 H1393 0.930 . S
C1401 C1399 1.419 . S
C1401 C1402 1.362 . S
C1402 H1394 0.930 . S
C1402 C1401 1.362 . S
C1402 C1405 1.409 . S
C1403 H1395 0.930 . S
C1403 C1404 1.355 1_565 S
C1403 C1405 1.415 . S
C1404 C1403 1.355 1_545 S
C1404 C1406 1.419 . S
C1405 C1400 1.425 1_565 S
C1405 C1402 1.409 . S
C1405 C1403 1.415 . S
C1406 H1396 0.930 . S
C1406 C1404 1.419 . S
C1406 C1407 1.362 . S
C1407 H1397 0.930 . S
C1407 C1400 1.409 . S
C1407 C1406 1.362 . S
C647 C13 3.206 . S
C652 C413 3.205 . S
C663 C53 3.231 . S
C668 C453 3.234 . S
C679 C93 3.221 . S
C684 C333 3.215 . S
C695 C133 3.235 . S
C700 C373 3.233 . S
C711 C184 3.205 . S
C716 C584 3.207 . S
C727 C224 3.209 . S
C732 C624 3.214 . S
C743 C264 3.218 . S
C748 C504 3.224 . S
C759 C304 3.229 . S
C764 C544 3.223 . S
C775 C362 3.716 . S
C780 C24 3.668 1_556 S
C791 C402 3.718 . S
C796 C64 3.665 . S
C807 C442 3.729 . S
C812 C104 3.652 . S
C823 C322 3.735 . S
C828 C144 3.643 . S
C839 C173 3.635 1_554 S
C844 C543 3.739 . S
C855 C583 3.718 . S
C860 C213 3.666 . S
C871 C623 3.722 . S
C876 C253 3.662 . S
C887 C503 3.736 . S
C892 C293 3.637 . S
C903 C42 3.737 . S
C908 C344 3.636 . S
C919 C384 3.668 . S
C924 C82 3.717 . S
C935 C424 3.649 1_556 S
C940 C122 3.730 . S
C951 C464 3.656 . S
C956 C2 3.724 . S
C967 C493 3.635 . S
C972 C223 3.739 . S
C983 C263 3.735 . S
C988 C533 3.639 . S
C999 C303 3.717 . S
C1004 C573 3.667 1_554 S
C1015 C613 3.644 . S
C1020 C183 3.731 . S
C1031 C26 0.551 . S
C1036 C602 0.400 . S
C1047 C66 0.663 . S
C1052 C162 0.541 . S
C1063 C522 0.396 . S
C1068 C106 0.444 . S
C1079 C242 0.480 . S
C1084 C146 0.538 . S
C1095 C177 0.463 . S
C1100 C463 0.414 . S
C1111 C217 0.576 . S
C1116 C23 0.425 . S
C1127 C383 0.308 . S
C1132 C257 0.429 . S
C1143 C103 0.536 . S
C1148 C297 0.662 . S
C1159 C346 0.439 . S
C1164 C282 0.390 . S
C1175 C386 0.662 . S
C1180 C482 0.545 . S
C1191 C202 0.433 . S
C1196 C426 0.584 . S
C1207 C562 0.303 . S
C1212 C466 0.411 . S
C1223 C497 0.425 . S
C1228 C143 0.306 . S
C1239 C537 0.662 . S
C1244 C343 0.545 . S
C1255 C577 0.397 . S
C1260 C63 0.329 . S
C1271 C423 0.372 . S
C1276 C617 0.520 . S
C1287 C17 1.645 . S
C1292 C506 1.645 . S
C1303 C57 1.699 . S
C1308 C226 1.699 . S
C1319 C97 1.673 . S
C1324 C586 1.673 . S
C1335 C306 1.717 . S
C1340 C137 1.717 . S
C1351 C186 1.691 . S
C1356 C337 1.691 . S
C1367 C417 1.639 . S
C1372 C266 1.639 . S
C1383 C377 1.670 1_565 S
C1388 C546 1.670 1_545 S
C1399 C626 1.681 1_565 S
C1404 C457 1.681 1_545 S
