# Generated by pormake.
# Topology umg, (4)-cn, num edge types: 1
# Building blocks:
#     Node 0, Type 0, BuildingBlock: MUDLON_clean_sbu_0, # of connection points: 4
#     Node 1, Type 0, BuildingBlock: MUDLON_clean_sbu_0, # of connection points: 4
#     Node 2, Type 0, BuildingBlock: MUDLON_clean_sbu_0, # of connection points: 4
#     Node 3, Type 0, BuildingBlock: MUDLON_clean_sbu_0, # of connection points: 4
#     Node 4, Type 0, BuildingBlock: MUDLON_clean_sbu_0, # of connection points: 4
#     Node 5, Type 0, BuildingBlock: MUDLON_clean_sbu_0, # of connection points: 4
#     Node 6, Type 0, BuildingBlock: MUDLON_clean_sbu_0, # of connection points: 4
#     Node 7, Type 0, BuildingBlock: MUDLON_clean_sbu_0, # of connection points: 4
#     Node 8, Type 0, BuildingBlock: MUDLON_clean_sbu_0, # of connection points: 4
#     Node 9, Type 0, BuildingBlock: MUDLON_clean_sbu_0, # of connection points: 4
#     Node 10, Type 0, BuildingBlock: MUDLON_clean_sbu_0, # of connection points: 4
#     Node 11, Type 0, BuildingBlock: MUDLON_clean_sbu_0, # of connection points: 4
#     Edge 12, Type (0, 0), BuildingBlock: MIFKUJ_clean_linker_0, # of connection points: 2
#     Edge 13, Type (0, 0), BuildingBlock: MIFKUJ_clean_linker_0, # of connection points: 2
#     Edge 14, Type (0, 0), BuildingBlock: MIFKUJ_clean_linker_0, # of connection points: 2
#     Edge 15, Type (0, 0), BuildingBlock: MIFKUJ_clean_linker_0, # of connection points: 2
#     Edge 16, Type (0, 0), BuildingBlock: MIFKUJ_clean_linker_0, # of connection points: 2
#     Edge 17, Type (0, 0), BuildingBlock: MIFKUJ_clean_linker_0, # of connection points: 2
#     Edge 18, Type (0, 0), BuildingBlock: MIFKUJ_clean_linker_0, # of connection points: 2
#     Edge 19, Type (0, 0), BuildingBlock: MIFKUJ_clean_linker_0, # of connection points: 2
#     Edge 20, Type (0, 0), BuildingBlock: MIFKUJ_clean_linker_0, # of connection points: 2
#     Edge 21, Type (0, 0), BuildingBlock: MIFKUJ_clean_linker_0, # of connection points: 2
#     Edge 22, Type (0, 0), BuildingBlock: MIFKUJ_clean_linker_0, # of connection points: 2
#     Edge 23, Type (0, 0), BuildingBlock: MIFKUJ_clean_linker_0, # of connection points: 2
#     Edge 24, Type (0, 0), BuildingBlock: MIFKUJ_clean_linker_0, # of connection points: 2
#     Edge 25, Type (0, 0), BuildingBlock: MIFKUJ_clean_linker_0, # of connection points: 2
#     Edge 26, Type (0, 0), BuildingBlock: MIFKUJ_clean_linker_0, # of connection points: 2
#     Edge 27, Type (0, 0), BuildingBlock: MIFKUJ_clean_linker_0, # of connection points: 2
#     Edge 28, Type (0, 0), BuildingBlock: MIFKUJ_clean_linker_0, # of connection points: 2
#     Edge 29, Type (0, 0), BuildingBlock: MIFKUJ_clean_linker_0, # of connection points: 2
#     Edge 30, Type (0, 0), BuildingBlock: MIFKUJ_clean_linker_0, # of connection points: 2
#     Edge 31, Type (0, 0), BuildingBlock: MIFKUJ_clean_linker_0, # of connection points: 2
#     Edge 32, Type (0, 0), BuildingBlock: MIFKUJ_clean_linker_0, # of connection points: 2
#     Edge 33, Type (0, 0), BuildingBlock: MIFKUJ_clean_linker_0, # of connection points: 2
#     Edge 34, Type (0, 0), BuildingBlock: MIFKUJ_clean_linker_0, # of connection points: 2
#     Edge 35, Type (0, 0), BuildingBlock: MIFKUJ_clean_linker_0, # of connection points: 2
# Relax obj value: 0.016
# Max RMSD: 0.186
# Mean RMSD: 0.186
data_MOF--net-umg--node1-MUDLON_clean_sbu_0--edge1-MIFKUJ_clean_linker_0
_symmetry_space_group_name_H-M    P1
_symmetry_Int_Tables_number       1
_symmetry_cell_setting            triclinic
loop_
_symmetry_equiv_pos_as_xyz
'x, y, z'
_cell_length_a     38.827439
_cell_length_b     38.913782
_cell_length_c     115.32281
_cell_angle_alpha  90.465119
_cell_angle_beta   90.068317
_cell_angle_gamma 119.99409
loop_
_atom_site_label
_atom_site_type_symbol
_atom_site_fract_x
_atom_site_fract_y
_atom_site_fract_z
_atom_type_partial_charge
Mg0 Mg 0.30343 0.58798 0.10103 0.0
C1 C 0.32422 0.64796 0.08024 0.0
O2 O 0.3182 0.67126 0.08722 0.0
C3 C 0.30124 0.60565 0.12545 0.0
O4 O 0.27344 0.56842 0.12393 0.0
C5 C 0.37153 0.57568 0.1005 0.0
O6 O 0.38545 0.61319 0.09796 0.0
O7 O 0.3344 0.55418 0.10242 0.0
O8 O 0.32116 0.61602 0.0841 0.0
O9 O 0.23823 0.5551 0.1008 0.0
C10 C 0.22311 0.5776 0.10089 0.0
O11 O 0.24728 0.61618 0.10119 0.0
O12 O 0.32098 0.62507 0.11666 0.0
Mg13 Mg 0.72371 0.2964 0.43707 0.0
C14 C 0.72979 0.32728 0.41278 0.0
O15 O 0.76686 0.33686 0.41474 0.0
C16 C 0.67671 0.29276 0.45873 0.0
O17 O 0.65027 0.25875 0.45404 0.0
C18 C 0.80319 0.36651 0.43875 0.0
O19 O 0.77822 0.37991 0.43966 0.0
O20 O 0.78893 0.32921 0.43751 0.0
O21 O 0.70446 0.31122 0.42086 0.0
O22 O 0.69313 0.23141 0.43791 0.0
C23 C 0.67588 0.2106 0.42892 0.0
O24 O 0.68123 0.22856 0.41893 0.0
O25 O 0.70807 0.31542 0.45311 0.0
Mg26 Mg 0.43764 0.71621 0.76771 0.0
C27 C 0.39022 0.66804 0.7463 0.0
O28 O 0.39863 0.64178 0.75046 0.0
C29 C 0.38508 0.70644 0.78977 0.0
O30 O 0.36871 0.72359 0.78398 0.0
C31 C 0.44896 0.79653 0.76541 0.0
O32 O 0.41129 0.77256 0.76286 0.0
O33 O 0.47051 0.78131 0.76781 0.0
O34 O 0.39975 0.69942 0.75218 0.0
O35 O 0.47197 0.68535 0.76649 0.0
C36 C 0.45355 0.65019 0.77048 0.0
O37 O 0.41824 0.63745 0.77503 0.0
O38 O 0.4103 0.69958 0.78481 0.0
Mg39 Mg 0.72065 0.42366 0.10178 0.0
C40 C 0.674 0.38565 0.07943 0.0
O41 O 0.65135 0.39894 0.08359 0.0
C42 C 0.73071 0.40386 0.12612 0.0
O43 O 0.76486 0.43626 0.12434 0.0
C44 C 0.65471 0.43848 0.10708 0.0
O45 O 0.64235 0.40248 0.11091 0.0
O46 O 0.68934 0.45746 0.10267 0.0
O47 O 0.70296 0.38926 0.08555 0.0
O48 O 0.78575 0.45723 0.10098 0.0
C49 C 0.8009 0.4348 0.10033 0.0
O50 O 0.77674 0.3962 0.10008 0.0
O51 O 0.70545 0.38957 0.11786 0.0
Mg52 Mg 0.30377 0.72209 0.43613 0.0
C53 C 0.29869 0.67715 0.41366 0.0
O54 O 0.26428 0.65118 0.41804 0.0
C55 C 0.35222 0.72811 0.45765 0.0
O56 O 0.37595 0.76363 0.45351 0.0
C57 C 0.22371 0.65345 0.44012 0.0
O58 O 0.24816 0.64092 0.44317 0.0
O59 O 0.23848 0.68916 0.43672 0.0
O60 O 0.32199 0.70778 0.41963 0.0
O61 O 0.33332 0.78707 0.43722 0.0
C62 C 0.35032 0.80775 0.42831 0.0
O63 O 0.34544 0.78956 0.41829 0.0
O64 O 0.32198 0.70383 0.45172 0.0
Mg65 Mg 0.59929 0.29735 0.76876 0.0
C66 C 0.64072 0.29239 0.74702 0.0
O67 O 0.62003 0.25454 0.74953 0.0
C68 C 0.65772 0.3232 0.79037 0.0
O69 O 0.68528 0.32455 0.78348 0.0
C70 C 0.58562 0.21647 0.77263 0.0
O71 O 0.62175 0.24008 0.77661 0.0
O72 O 0.56611 0.23211 0.76859 0.0
O73 O 0.64045 0.31758 0.75409 0.0
O74 O 0.56557 0.32833 0.76675 0.0
C75 C 0.58812 0.36538 0.76506 0.0
O76 O 0.62663 0.37927 0.76437 0.0
O77 O 0.6239 0.31438 0.78622 0.0
Mg78 Mg 0.43901 0.73007 0.60303 0.0
C79 C 0.38766 0.67849 0.62306 0.0
O80 O 0.39398 0.65177 0.61804 0.0
C81 C 0.38074 0.69636 0.58114 0.0
O82 O 0.35329 0.66863 0.58763 0.0
C83 C 0.45341 0.66317 0.59891 0.0
O84 O 0.41849 0.65132 0.59412 0.0
O85 O 0.47196 0.69782 0.60343 0.0
O86 O 0.39976 0.71169 0.61812 0.0
O87 O 0.47299 0.7948 0.60455 0.0
C88 C 0.4507 0.80965 0.60277 0.0
O89 O 0.41284 0.78529 0.60055 0.0
O90 O 0.41387 0.7217 0.58562 0.0
Mg91 Mg 0.73028 0.4347 0.93468 0.0
C92 C 0.69515 0.37588 0.95583 0.0
O93 O 0.6701 0.34865 0.94856 0.0
C94 C 0.6841 0.38782 0.91306 0.0
O95 O 0.66065 0.40165 0.91602 0.0
C96 C 0.81096 0.4488 0.93122 0.0
O97 O 0.78748 0.41039 0.92977 0.0
O98 O 0.79514 0.47001 0.9334 0.0
O99 O 0.72072 0.40981 0.95206 0.0
O100 O 0.69671 0.46637 0.93398 0.0
C101 C 0.66098 0.44609 0.93752 0.0
O102 O 0.64875 0.41012 0.94135 0.0
O103 O 0.7129 0.39423 0.91973 0.0
Mg104 Mg 0.31295 0.72266 0.26803 0.0
C105 C 0.30777 0.67578 0.28989 0.0
O106 O 0.27489 0.64854 0.28487 0.0
C107 C 0.35455 0.72739 0.24502 0.0
O108 O 0.37469 0.76526 0.24777 0.0
C109 C 0.38022 0.80382 0.27173 0.0
O110 O 0.39327 0.78056 0.27547 0.0
O111 O 0.34458 0.7878 0.26793 0.0
O112 O 0.33021 0.7076 0.28446 0.0
O113 O 0.24753 0.6913 0.26784 0.0
C114 C 0.23117 0.65614 0.26366 0.0
O115 O 0.25419 0.64331 0.25946 0.0
O116 O 0.32947 0.70306 0.25219 0.0
Mg117 Mg 0.59844 0.30978 0.60362 0.0
C118 C 0.66094 0.33494 0.62445 0.0
O119 O 0.68606 0.33194 0.61748 0.0
C120 C 0.64675 0.30892 0.58257 0.0
O121 O 0.64409 0.27762 0.58766 0.0
C122 C 0.58645 0.37748 0.60423 0.0
O123 O 0.62474 0.3913 0.60571 0.0
O124 O 0.5639 0.34013 0.60292 0.0
O125 O 0.62756 0.32855 0.62055 0.0
O126 O 0.56565 0.24458 0.60348 0.0
C127 C 0.58502 0.22884 0.60755 0.0
O128 O 0.62082 0.25228 0.61176 0.0
O129 O 0.63381 0.3291 0.5878 0.0
Mg130 Mg 0.31278 0.6004 0.93447 0.0
C131 C 0.33392 0.65973 0.956 0.0
O132 O 0.33209 0.6857 0.9492 0.0
C133 C 0.35857 0.64477 0.91288 0.0
O134 O 0.38198 0.63146 0.91629 0.0
C135 C 0.23233 0.58894 0.93601 0.0
O136 O 0.25631 0.62687 0.93813 0.0
O137 O 0.24765 0.56718 0.934 0.0
O138 O 0.32832 0.62701 0.95179 0.0
O139 O 0.34323 0.56575 0.93346 0.0
C140 C 0.37934 0.58492 0.93689 0.0
O141 O 0.39356 0.62149 0.94071 0.0
O142 O 0.32951 0.63905 0.91929 0.0
Mg143 Mg 0.73115 0.30463 0.26893 0.0
C144 C 0.68353 0.30092 0.29057 0.0
O145 O 0.65828 0.26571 0.28632 0.0
C146 C 0.69362 0.32838 0.24806 0.0
O147 O 0.66364 0.32196 0.25474 0.0
C148 C 0.66432 0.22272 0.26419 0.0
O149 O 0.65163 0.2454 0.25978 0.0
O150 O 0.69904 0.23929 0.26869 0.0
O151 O 0.71398 0.32407 0.28466 0.0
O152 O 0.79619 0.33476 0.27003 0.0
C153 C 0.81178 0.37179 0.2722 0.0
O154 O 0.78801 0.38627 0.2739 0.0
O155 O 0.72185 0.32429 0.2521 0.0
H156 H 0.34093 0.61238 0.972 0.0
H157 H 0.34223 0.61859 0.99303 0.0
H158 H 0.3388 0.72725 0.99022 0.0
H159 H 0.33759 0.72136 0.96897 0.0
H160 H 0.39107 0.72983 1.00789 0.0
H161 H 0.25585 0.64725 0.99616 0.0
H162 H 0.19996 0.59244 0.98555 0.0
H163 H 0.2213 0.50798 1.00316 0.0
H164 H 0.27776 0.56235 1.01374 0.0
H165 H 0.33071 0.712 0.06831 0.0
H166 H 0.33595 0.72182 0.04723 0.0
H167 H 0.33709 0.61232 0.04266 0.0
H168 H 0.33201 0.60232 0.06354 0.0
H169 H 0.28232 0.61624 0.02864 0.0
H170 H 0.42046 0.69926 0.03924 0.0
H171 H 0.47692 0.75405 0.04967 0.0
H172 H 0.44954 0.8378 0.03432 0.0
H173 H 0.39253 0.78338 0.02391 0.0
C174 C 0.34076 0.63785 0.97579 0.0
C175 C 0.33871 0.66617 0.96876 0.0
C176 C 0.34146 0.6413 0.98785 0.0
C177 C 0.33998 0.67303 0.9932 0.0
C178 C 0.3398 0.70243 0.98626 0.0
C179 C 0.33904 0.69897 0.97412 0.0
C180 C 0.33669 0.6739 1.00603 0.0
C181 C 0.36692 0.70539 1.01244 0.0
C182 C 0.3054 0.6418 1.01197 0.0
C183 C 0.27125 0.60894 1.00568 0.0
C184 C 0.24882 0.61702 0.99771 0.0
C185 C 0.21701 0.58602 0.99171 0.0
C186 C 0.20713 0.54676 0.99367 0.0
C187 C 0.229 0.53841 1.00165 0.0
C188 C 0.26089 0.56931 1.00766 0.0
C189 C 0.3325 0.69024 0.06282 0.0
C190 C 0.33075 0.65628 0.06764 0.0
C191 C 0.33556 0.69594 0.05078 0.0
C192 C 0.33683 0.66774 0.04337 0.0
C193 C 0.33596 0.63436 0.0482 0.0
C194 C 0.33316 0.62878 0.06017 0.0
C195 C 0.33725 0.67162 0.03055 0.0
C196 C 0.30627 0.64096 0.02411 0.0
C197 C 0.36777 0.70451 0.02464 0.0
C198 C 0.40193 0.7372 0.03092 0.0
C199 C 0.42623 0.72931 0.03818 0.0
C200 C 0.45839 0.76031 0.04407 0.0
C201 C 0.46673 0.79937 0.04269 0.0
C202 C 0.44299 0.80752 0.0354 0.0
C203 C 0.41076 0.77662 0.0295 0.0
H204 H 0.49166 0.82333 0.04726 0.0
H205 H 0.18249 0.5228 0.98901 0.0
H206 H 0.77729 0.37445 0.39557 0.0
H207 H 0.75993 0.37437 0.37522 0.0
H208 H 0.63794 0.28755 0.38244 0.0
H209 H 0.65518 0.28758 0.40294 0.0
H210 H 0.66949 0.26584 0.36416 0.0
H211 H 0.66026 0.37947 0.37527 0.0
H212 H 0.68257 0.44475 0.38445 0.0
H213 H 0.7842 0.49773 0.36211 0.0
H214 H 0.76282 0.43265 0.3529 0.0
H215 H 0.62022 0.26176 0.30513 0.0
H216 H 0.61905 0.27078 0.32611 0.0
H217 H 0.73949 0.36886 0.32505 0.0
H218 H 0.74038 0.36085 0.30404 0.0
H219 H 0.69987 0.38394 0.3407 0.0
H220 H 0.71672 0.27221 0.33177 0.0
H221 H 0.69919 0.20766 0.32282 0.0
H222 H 0.58875 0.15206 0.34132 0.0
H223 H 0.60542 0.21644 0.35027 0.0
C224 C 0.74659 0.35581 0.39288 0.0
C225 C 0.71761 0.33098 0.40087 0.0
C226 C 0.73668 0.35593 0.38124 0.0
C227 C 0.69759 0.33111 0.3773 0.0
C228 C 0.66826 0.30705 0.3853 0.0
C229 C 0.6781 0.30725 0.39702 0.0
C230 C 0.68849 0.32812 0.36467 0.0
C231 C 0.67519 0.29146 0.35906 0.0
C232 C 0.69716 0.36182 0.35797 0.0
C233 C 0.71004 0.40108 0.36345 0.0
C234 C 0.68752 0.40498 0.37237 0.0
C235 C 0.69998 0.44196 0.37757 0.0
C236 C 0.73481 0.47535 0.37388 0.0
C237 C 0.75722 0.47184 0.36496 0.0
C238 C 0.74492 0.43491 0.35974 0.0
C239 C 0.64622 0.28571 0.30933 0.0
C240 C 0.68053 0.31032 0.30291 0.0
C241 C 0.6456 0.2907 0.32135 0.0
C242 C 0.67953 0.31989 0.32724 0.0
C243 C 0.71297 0.34599 0.32074 0.0
C244 C 0.71345 0.34134 0.3087 0.0
C245 C 0.68126 0.3217 0.34017 0.0
C246 C 0.6934 0.35815 0.34582 0.0
C247 C 0.67214 0.28792 0.34692 0.0
C248 C 0.66209 0.2492 0.34157 0.0
C249 C 0.68856 0.24626 0.33386 0.0
C250 C 0.6788 0.20971 0.3288 0.0
C251 C 0.64281 0.17581 0.33147 0.0
C252 C 0.61657 0.17837 0.33924 0.0
C253 C 0.62615 0.21487 0.34431 0.0
H254 H 0.63532 0.14753 0.32755 0.0
H255 H 0.74441 0.50396 0.37792 0.0
H256 H 0.3881 0.72486 0.73287 0.0
H257 H 0.37639 0.722 0.71198 0.0
H258 H 0.35008 0.60036 0.71107 0.0
H259 H 0.36281 0.60338 0.7319 0.0
H260 H 0.40181 0.64027 0.69516 0.0
H261 H 0.27741 0.6281 0.70639 0.0
H262 H 0.23336 0.64656 0.71672 0.0
H263 H 0.28854 0.75902 0.69955 0.0
H264 H 0.33329 0.74145 0.68923 0.0
H265 H 0.35668 0.61064 0.63582 0.0
H266 H 0.34518 0.60429 0.65671 0.0
H267 H 0.37777 0.72758 0.65904 0.0
H268 H 0.38842 0.73396 0.63808 0.0
H269 H 0.31904 0.68397 0.67413 0.0
H270 H 0.44644 0.6989 0.66436 0.0
H271 H 0.49157 0.68186 0.65402 0.0
H272 H 0.4313 0.56523 0.66865 0.0
H273 H 0.38551 0.58147 0.67899 0.0
C274 C 0.37904 0.69723 0.72828 0.0
C275 C 0.37657 0.6644 0.73408 0.0
C276 C 0.37222 0.69559 0.7163 0.0
C277 C 0.36217 0.66089 0.70989 0.0
C278 C 0.35793 0.62753 0.71578 0.0
C279 C 0.36508 0.62926 0.72772 0.0
C280 C 0.35941 0.66034 0.69698 0.0
C281 C 0.38303 0.64907 0.6906 0.0
C282 C 0.33592 0.67298 0.69095 0.0
C283 C 0.30893 0.68357 0.69711 0.0
C284 C 0.28035 0.65688 0.70488 0.0
C285 C 0.25522 0.66717 0.71072 0.0
C286 C 0.25821 0.70398 0.70881 0.0
C287 C 0.28627 0.73053 0.70103 0.0
C288 C 0.3115 0.7204 0.69517 0.0
C289 C 0.36067 0.63625 0.64073 0.0
C290 C 0.37395 0.67294 0.63528 0.0
C291 C 0.35424 0.6326 0.6527 0.0
C292 C 0.36152 0.6657 0.65951 0.0
C293 C 0.37217 0.70168 0.65399 0.0
C294 C 0.37829 0.70528 0.64199 0.0
C295 C 0.36116 0.66363 0.6724 0.0
C296 C 0.33732 0.67469 0.67875 0.0
C297 C 0.38455 0.65094 0.67845 0.0
C298 C 0.41235 0.64128 0.67236 0.0
C299 C 0.44269 0.66955 0.66532 0.0
C300 C 0.4684 0.66005 0.65947 0.0
C301 C 0.46427 0.62247 0.66067 0.0
C302 C 0.43445 0.59433 0.66774 0.0
C303 C 0.40864 0.60367 0.6736 0.0
H304 H 0.48422 0.61519 0.65614 0.0
H305 H 0.23873 0.71189 0.71335 0.0
H306 H 0.61381 0.37173 0.06441 0.0
H307 H 0.61091 0.35945 0.04354 0.0
H308 H 0.72197 0.35965 0.04548 0.0
H309 H 0.72467 0.37115 0.06642 0.0
H310 H 0.65929 0.40702 0.028 0.0
H311 H 0.72919 0.30617 0.02303 0.0
H312 H 0.73106 0.25211 0.03351 0.0
H313 H 0.61935 0.22024 0.04951 0.0
H314 H 0.61653 0.27374 0.03902 0.0
H315 H 0.74161 0.42716 0.97293 0.0
H316 H 0.7324 0.41939 0.99382 0.0
H317 H 0.63132 0.30229 0.9887 0.0
H318 H 0.64036 0.30974 0.96761 0.0
H319 H 0.67983 0.30637 1.00735 0.0
H320 H 0.61375 0.37489 0.99406 0.0
H321 H 0.60788 0.42645 0.9834 0.0
H322 H 0.70256 0.51714 1.00391 0.0
H323 H 0.70935 0.46616 1.01459 0.0
C324 C 0.63729 0.36845 0.06045 0.0
C325 C 0.66956 0.37259 0.0671 0.0
C326 C 0.63564 0.36154 0.04848 0.0
C327 C 0.66617 0.35857 0.04289 0.0
C328 C 0.69772 0.36123 0.04958 0.0
C329 C 0.69928 0.36793 0.06158 0.0
C330 C 0.66657 0.35597 0.02999 0.0
C331 C 0.66357 0.38482 0.02353 0.0
C332 C 0.67168 0.32679 0.02406 0.0
C333 C 0.67285 0.29421 0.03031 0.0
C334 C 0.70494 0.28751 0.02875 0.0
C335 C 0.70618 0.25699 0.0347 0.0
C336 C 0.6754 0.23283 0.0422 0.0
C337 C 0.64324 0.23907 0.04373 0.0
C338 C 0.64184 0.26953 0.0378 0.0
C339 C 0.71756 0.39954 0.97619 0.0
C340 C 0.69148 0.36919 0.96855 0.0
C341 C 0.71232 0.3952 0.98817 0.0
C342 C 0.68085 0.3605 0.99282 0.0
C343 C 0.65574 0.32938 0.98528 0.0
C344 C 0.66091 0.33373 0.97324 0.0
C345 C 0.67341 0.35788 1.00551 0.0
C346 C 0.67522 0.32825 1.01189 0.0
C347 C 0.66656 0.38596 1.01139 0.0
C348 C 0.66225 0.4167 1.00507 0.0
C349 C 0.63348 0.40584 0.99625 0.0
C350 C 0.62996 0.43496 0.99021 0.0
C351 C 0.6549 0.47504 0.99296 0.0
C352 C 0.68329 0.48608 1.00178 0.0
C353 C 0.68695 0.45709 1.00784 0.0
H354 H 0.65223 0.49757 0.98826 0.0
H355 H 0.67643 0.20923 0.0468 0.0
H356 H 0.2661 0.61188 0.30393 0.0
H357 H 0.27132 0.60953 0.32498 0.0
H358 H 0.36989 0.72959 0.32529 0.0
H359 H 0.36532 0.73202 0.30417 0.0
H360 H 0.38061 0.68444 0.34129 0.0
H361 H 0.27752 0.71224 0.33076 0.0
H362 H 0.21693 0.70106 0.32052 0.0
H363 H 0.14949 0.58805 0.33699 0.0
H364 H 0.20986 0.59831 0.34721 0.0
H365 H 0.35907 0.73241 0.40021 0.0
H366 H 0.36697 0.7293 0.37924 0.0
H367 H 0.26562 0.6108 0.37819 0.0
H368 H 0.25713 0.61394 0.39906 0.0
H369 H 0.25802 0.65552 0.36249 0.0
H370 H 0.36218 0.62983 0.37376 0.0
H371 H 0.42332 0.64284 0.38404 0.0
H372 H 0.48926 0.75397 0.36649 0.0
H373 H 0.42838 0.74186 0.35621 0.0
C374 C 0.28934 0.63761 0.30843 0.0
C375 C 0.31499 0.67231 0.30236 0.0
C376 C 0.2922 0.63625 0.32048 0.0
C377 C 0.32047 0.66967 0.32675 0.0
C378 C 0.34772 0.70351 0.32065 0.0
C379 C 0.34501 0.70485 0.30857 0.0
C380 C 0.31962 0.6702 0.33964 0.0
C381 C 0.35395 0.67847 0.34594 0.0
C382 C 0.28471 0.66202 0.34573 0.0
C383 C 0.2483 0.65587 0.33965 0.0
C384 C 0.24984 0.68487 0.33213 0.0
C385 C 0.21552 0.67872 0.32634 0.0
C386 C 0.1794 0.64382 0.32808 0.0
C387 C 0.17751 0.61504 0.33564 0.0
C388 C 0.21176 0.62102 0.34144 0.0
C389 C 0.3389 0.70541 0.39555 0.0
C390 C 0.30733 0.67348 0.40132 0.0
C391 C 0.34351 0.70363 0.38355 0.0
C392 C 0.31693 0.66976 0.37711 0.0
C393 C 0.28641 0.63731 0.38294 0.0
C394 C 0.28167 0.63912 0.3949 0.0
C395 C 0.31883 0.6691 0.36421 0.0
C396 C 0.28467 0.66115 0.35788 0.0
C397 C 0.35396 0.67781 0.35815 0.0
C398 C 0.39062 0.68509 0.3643 0.0
C399 C 0.38965 0.65719 0.37216 0.0
C400 C 0.42427 0.66437 0.37797 0.0
C401 C 0.46013 0.69926 0.37594 0.0
C402 C 0.46146 0.72698 0.36806 0.0
C403 C 0.42691 0.71995 0.36223 0.0
H404 H 0.48691 0.70477 0.38045 0.0
H405 H 0.15287 0.63911 0.32359 0.0
H406 H 0.66999 0.36517 0.7367 0.0
H407 H 0.68398 0.37981 0.71604 0.0
H408 H 0.66198 0.26108 0.70986 0.0
H409 H 0.6478 0.24612 0.73039 0.0
H410 H 0.73423 0.37614 0.69879 0.0
H411 H 0.59934 0.22417 0.68669 0.0
H412 H 0.53628 0.17321 0.69528 0.0
H413 H 0.53226 0.26214 0.71659 0.0
H414 H 0.59494 0.31366 0.708 0.0
H415 H 0.72062 0.3339 0.63712 0.0
H416 H 0.72684 0.33496 0.65831 0.0
H417 H 0.62446 0.34993 0.66161 0.0
H418 H 0.61787 0.34862 0.64059 0.0
H419 H 0.61604 0.29007 0.67441 0.0
H420 H 0.71727 0.42506 0.66841 0.0
H421 H 0.77853 0.47939 0.66 0.0
H422 H 0.84666 0.43123 0.67484 0.0
H423 H 0.78568 0.37627 0.68321 0.0
C424 C 0.66909 0.34249 0.731 0.0
C425 C 0.65719 0.30427 0.73518 0.0
C426 C 0.67717 0.35094 0.71919 0.0
C427 C 0.6734 0.32133 0.71139 0.0
C428 C 0.66459 0.28421 0.71571 0.0
C429 C 0.65648 0.27573 0.72746 0.0
C430 C 0.67396 0.32741 0.69867 0.0
C431 C 0.70851 0.35729 0.69342 0.0
C432 C 0.64012 0.30331 0.69171 0.0
C433 C 0.60204 0.27266 0.69679 0.0
C434 C 0.5849 0.23284 0.69318 0.0
C435 C 0.54924 0.20386 0.69805 0.0
C436 C 0.53035 0.21441 0.7065 0.0
C437 C 0.54699 0.25398 0.71007 0.0
C438 C 0.5826 0.28307 0.70521 0.0
C439 C 0.69985 0.33808 0.64236 0.0
C440 C 0.66853 0.3408 0.63714 0.0
C441 C 0.70348 0.33874 0.65448 0.0
C442 C 0.67602 0.34239 0.66157 0.0
C443 C 0.64583 0.3468 0.65634 0.0
C444 C 0.64216 0.34609 0.64429 0.0
C445 C 0.67651 0.33858 0.67439 0.0
C446 C 0.64198 0.30892 0.6797 0.0
C447 C 0.71015 0.36333 0.68136 0.0
C448 C 0.74684 0.39632 0.67634 0.0
C449 C 0.74526 0.42585 0.6698 0.0
C450 C 0.77994 0.45681 0.66505 0.0
C451 C 0.81645 0.4587 0.66686 0.0
C452 C 0.81835 0.4297 0.67344 0.0
C453 C 0.78374 0.39866 0.67819 0.0
H454 H 0.84327 0.4827 0.66318 0.0
H455 H 0.50278 0.19193 0.71027 0.0
H456 H 0.40991 0.76887 0.22841 0.0
H457 H 0.40839 0.75078 0.20799 0.0
H458 H 0.30097 0.63944 0.2139 0.0
H459 H 0.30308 0.65677 0.23439 0.0
H460 H 0.34607 0.62798 0.19949 0.0
H461 H 0.30147 0.72361 0.20225 0.0
H462 H 0.30753 0.78791 0.20762 0.0
H463 H 0.41153 0.84861 0.18642 0.0
H464 H 0.40635 0.78466 0.18104 0.0
H465 H 0.25697 0.57409 0.14478 0.0
H466 H 0.27321 0.59807 0.16469 0.0
H467 H 0.38232 0.69933 0.15332 0.0
H468 H 0.36585 0.6756 0.13313 0.0
H469 H 0.34511 0.71958 0.16997 0.0
H470 H 0.38445 0.62164 0.16569 0.0
H471 H 0.37589 0.55647 0.16014 0.0
H472 H 0.27949 0.49916 0.18416 0.0
H473 H 0.28709 0.56394 0.18974 0.0
C474 C 0.38625 0.74029 0.22539 0.0
C475 C 0.35647 0.71438 0.23303 0.0
C476 C 0.38526 0.7301 0.21368 0.0
C477 C 0.35404 0.69412 0.20931 0.0
C478 C 0.32529 0.66745 0.21703 0.0
C479 C 0.32653 0.6774 0.22877 0.0
C480 C 0.35038 0.68462 0.19666 0.0
C481 C 0.34557 0.64792 0.19306 0.0
C482 C 0.35079 0.71102 0.18817 0.0
C483 C 0.35377 0.74942 0.19135 0.0
C484 C 0.32578 0.7507 0.1988 0.0
C485 C 0.32903 0.78707 0.20183 0.0
C486 C 0.35996 0.82233 0.19739 0.0
C487 C 0.38763 0.82128 0.18987 0.0
C488 C 0.38454 0.78499 0.18682 0.0
C489 C 0.28441 0.60159 0.14645 0.0
C490 C 0.31032 0.62274 0.13736 0.0
C491 C 0.29372 0.61517 0.15788 0.0
C492 C 0.32941 0.65001 0.16055 0.0
C493 C 0.35475 0.67216 0.15147 0.0
C494 C 0.34531 0.65861 0.13994 0.0
C495 C 0.33997 0.66264 0.17287 0.0
C496 C 0.3461 0.69988 0.17639 0.0
C497 C 0.34054 0.63665 0.18131 0.0
C498 C 0.33621 0.59766 0.17808 0.0
C499 C 0.36128 0.59512 0.16974 0.0
C500 C 0.35661 0.55825 0.1666 0.0
C501 C 0.32713 0.52369 0.17178 0.0
C502 C 0.30232 0.52595 0.18015 0.0
C503 C 0.30683 0.56275 0.18332 0.0
H504 H 0.32355 0.49517 0.16933 0.0
H505 H 0.36244 0.85046 0.19975 0.0
H506 H 0.61059 0.25732 0.47239 0.0
H507 H 0.60654 0.26645 0.49325 0.0
H508 H 0.73124 0.35489 0.49401 0.0
H509 H 0.73499 0.34706 0.47312 0.0
H510 H 0.63814 0.2508 0.51006 0.0
H511 H 0.7542 0.41805 0.51662 0.0
H512 H 0.77885 0.48122 0.50624 0.0
H513 H 0.66841 0.43302 0.48753 0.0
H514 H 0.64291 0.36976 0.49789 0.0
H515 H 0.68413 0.27861 0.56941 0.0
H516 H 0.69251 0.28221 0.54836 0.0
H517 H 0.6393 0.35637 0.54639 0.0
H518 H 0.63244 0.35428 0.56745 0.0
H519 H 0.6936 0.37978 0.53092 0.0
H520 H 0.58502 0.25294 0.54127 0.0
H521 H 0.55111 0.18893 0.55144 0.0
H522 H 0.63052 0.15523 0.53595 0.0
H523 H 0.66523 0.21927 0.52579 0.0
C524 C 0.63697 0.27925 0.47697 0.0
C525 C 0.67307 0.30152 0.47107 0.0
C526 C 0.63469 0.28431 0.48892 0.0
C527 C 0.66852 0.31149 0.49528 0.0
C528 C 0.70445 0.3343 0.48934 0.0
C529 C 0.70659 0.3297 0.47736 0.0
C530 C 0.66671 0.31425 0.50817 0.0
C531 C 0.65024 0.27907 0.51459 0.0
C532 C 0.68188 0.35099 0.51416 0.0
C533 C 0.69683 0.38904 0.50795 0.0
C534 C 0.73513 0.42098 0.51032 0.0
C535 C 0.74926 0.45679 0.50443 0.0
C536 C 0.72526 0.46108 0.4962 0.0
C537 C 0.68703 0.42961 0.49387 0.0
C538 C 0.67275 0.39375 0.49973 0.0
C539 C 0.67487 0.29627 0.56451 0.0
C540 C 0.65733 0.31589 0.57011 0.0
C541 C 0.67938 0.29806 0.55245 0.0
C542 C 0.66556 0.31869 0.5457 0.0
C543 C 0.65003 0.34007 0.55135 0.0
C544 C 0.64611 0.33884 0.56343 0.0
C545 C 0.6654 0.31637 0.53278 0.0
C546 C 0.68155 0.35157 0.52637 0.0
C547 C 0.64869 0.27956 0.52675 0.0
C548 C 0.62793 0.24103 0.53285 0.0
C549 C 0.59541 0.23198 0.54009 0.0
C550 C 0.57603 0.19569 0.54585 0.0
C551 C 0.58868 0.16806 0.54435 0.0
C552 C 0.62076 0.17668 0.5371 0.0
C553 C 0.64028 0.21295 0.53134 0.0
H554 H 0.57353 0.13992 0.54878 0.0
H555 H 0.73626 0.48882 0.49166 0.0
H556 H 0.32621 0.70628 0.8031 0.0
H557 H 0.31728 0.69668 0.82411 0.0
H558 H 0.42047 0.68242 0.82597 0.0
H559 H 0.42833 0.69007 0.80508 0.0
H560 H 0.36833 0.63169 0.83921 0.0
H561 H 0.41953 0.77186 0.83392 0.0
H562 H 0.41993 0.83086 0.8261 0.0
H563 H 0.30667 0.79442 0.84177 0.0
H564 H 0.30539 0.73492 0.84957 0.0
H565 H 0.41972 0.66502 0.89784 0.0
H566 H 0.42095 0.67834 0.87716 0.0
H567 H 0.30627 0.67005 0.87979 0.0
H568 H 0.30499 0.65716 0.90062 0.0
H569 H 0.35733 0.72938 0.86454 0.0
H570 H 0.31055 0.59049 0.87085 0.0
H571 H 0.31482 0.53468 0.87928 0.0
H572 H 0.42561 0.57256 0.86188 0.0
H573 H 0.42222 0.62888 0.85344 0.0
C574 C 0.34678 0.70082 0.808 0.0
C575 C 0.37797 0.69897 0.80239 0.0
C576 C 0.34186 0.69565 0.82003 0.0
C577 C 0.3686 0.68946 0.82673 0.0
C578 C 0.39935 0.68707 0.82107 0.0
C579 C 0.40385 0.69152 0.80907 0.0
C580 C 0.365 0.68536 0.8396 0.0
C581 C 0.36631 0.65336 0.8447 0.0
C582 C 0.36139 0.71297 0.84688 0.0
C583 C 0.36216 0.74874 0.84222 0.0
C584 C 0.39459 0.77629 0.83563 0.0
C585 C 0.39499 0.80984 0.83121 0.0
C586 C 0.36329 0.81632 0.8334 0.0
C587 C 0.33117 0.78932 0.84006 0.0
C588 C 0.3306 0.7557 0.84448 0.0
C589 C 0.395 0.66666 0.89409 0.0
C590 C 0.36204 0.65956 0.90087 0.0
C591 C 0.3957 0.67416 0.88224 0.0
C592 C 0.36331 0.67432 0.87688 0.0
C593 C 0.33147 0.66981 0.88374 0.0
C594 C 0.33081 0.66247 0.89565 0.0
C595 C 0.36171 0.67642 0.86403 0.0
C596 C 0.35916 0.70776 0.85898 0.0
C597 C 0.36473 0.64854 0.85677 0.0
C598 C 0.36623 0.61402 0.86157 0.0
C599 C 0.33588 0.58698 0.86885 0.0
C600 C 0.33814 0.55526 0.87363 0.0
C601 C 0.3705 0.55012 0.87113 0.0
C602 C 0.40057 0.57658 0.8638 0.0
C603 C 0.39845 0.60836 0.859 0.0
H604 H 0.37226 0.5256 0.87487 0.0
H605 H 0.36366 0.84231 0.82997 0.0
H606 H 0.65717 0.36024 0.13607 0.0
H607 H 0.64302 0.34089 0.15653 0.0
H608 H 0.76848 0.39114 0.16324 0.0
H609 H 0.78279 0.41101 0.14298 0.0
H610 H 0.71968 0.31607 0.17379 0.0
H611 H 0.72832 0.44452 0.16952 0.0
H612 H 0.70813 0.48981 0.16105 0.0
H613 H 0.5888 0.41506 0.17302 0.0
H614 H 0.6082 0.369 0.18142 0.0
H615 H 0.75522 0.354 0.2329 0.0
H616 H 0.7537 0.36088 0.21196 0.0
H617 H 0.62948 0.32609 0.21357 0.0
H618 H 0.63101 0.31996 0.23471 0.0
H619 H 0.66674 0.38435 0.19832 0.0
H620 H 0.6578 0.25983 0.20455 0.0
H621 H 0.67548 0.21242 0.21283 0.0
H622 H 0.79042 0.27491 0.19692 0.0
H623 H 0.77366 0.32306 0.18868 0.0
C624 C 0.68161 0.36653 0.14188 0.0
C625 C 0.7211 0.38722 0.13795 0.0
C626 C 0.67352 0.35568 0.15356 0.0
C627 C 0.70475 0.36485 0.16141 0.0
C628 C 0.74396 0.3838 0.15734 0.0
C629 C 0.75209 0.3952 0.14576 0.0
C630 C 0.69728 0.35667 0.17398 0.0
C631 C 0.70824 0.33107 0.17918 0.0
C632 C 0.68114 0.37527 0.18093 0.0
C633 C 0.66958 0.40309 0.17596 0.0
C634 C 0.6977 0.43757 0.17025 0.0
C635 C 0.68642 0.46341 0.16548 0.0
C636 C 0.64717 0.45525 0.16646 0.0
C637 C 0.61916 0.42129 0.17224 0.0
C638 C 0.63029 0.39532 0.17702 0.0
C639 C 0.72757 0.34803 0.22884 0.0
C640 C 0.69313 0.33609 0.23549 0.0
C641 C 0.72669 0.35176 0.21683 0.0
C642 C 0.69123 0.34304 0.21112 0.0
C643 C 0.65712 0.33266 0.21776 0.0
C644 C 0.65805 0.32922 0.22985 0.0
C645 C 0.69014 0.34446 0.19823 0.0
C646 C 0.67757 0.36877 0.19296 0.0
C647 C 0.70433 0.32423 0.19117 0.0
C648 C 0.71455 0.29524 0.19606 0.0
C649 C 0.68695 0.26363 0.20288 0.0
C650 C 0.6968 0.2366 0.20756 0.0
C651 C 0.73407 0.2407 0.20542 0.0
C652 C 0.76156 0.27179 0.19858 0.0
C653 C 0.75188 0.29893 0.19388 0.0
H654 H 0.74164 0.21974 0.20905 0.0
H655 H 0.63849 0.47529 0.16276 0.0
H656 H 0.31655 0.6445 0.56769 0.0
H657 H 0.3092 0.64599 0.54659 0.0
H658 H 0.42468 0.75146 0.54482 0.0
H659 H 0.43195 0.75062 0.56575 0.0
H660 H 0.37307 0.7592 0.53172 0.0
H661 H 0.40961 0.65864 0.53729 0.0
H662 H 0.40203 0.59663 0.54527 0.0
H663 H 0.28712 0.53025 0.52909 0.0
H664 H 0.29382 0.59199 0.52114 0.0
H665 H 0.4149 0.77118 0.47237 0.0
H666 H 0.4182 0.76145 0.49316 0.0
H667 H 0.30251 0.65602 0.49152 0.0
H668 H 0.29943 0.66495 0.47065 0.0
H669 H 0.3494 0.64576 0.50635 0.0
H670 H 0.3135 0.74573 0.5003 0.0
H671 H 0.32089 0.80757 0.49225 0.0
H672 H 0.43386 0.8749 0.50944 0.0
H673 H 0.42739 0.81338 0.51747 0.0
C674 C 0.34027 0.66808 0.56281 0.0
C675 C 0.37486 0.69736 0.56844 0.0
C676 C 0.33614 0.66877 0.55073 0.0
C677 C 0.3666 0.69862 0.54408 0.0
C678 C 0.40078 0.72813 0.54974 0.0
C679 C 0.40489 0.72751 0.56174 0.0
C680 C 0.3633 0.69963 0.53124 0.0
C681 C 0.36829 0.7345 0.52618 0.0
C682 C 0.35601 0.66708 0.52399 0.0
C683 C 0.35203 0.62997 0.52873 0.0
C684 C 0.3826 0.63086 0.53551 0.0
C685 C 0.37848 0.59575 0.54002 0.0
C686 C 0.34406 0.55954 0.53772 0.0
C687 C 0.31373 0.55834 0.53088 0.0
C688 C 0.31768 0.59336 0.52637 0.0
C689 C 0.3904 0.74558 0.47639 0.0
C690 C 0.35674 0.71908 0.46985 0.0
C691 C 0.39222 0.74017 0.4883 0.0
C692 C 0.36016 0.70854 0.49397 0.0
C693 C 0.32749 0.68079 0.48736 0.0
C694 C 0.32579 0.68597 0.47541 0.0
C695 C 0.35991 0.7056 0.50684 0.0
C696 C 0.35407 0.67038 0.5119 0.0
C697 C 0.36634 0.73781 0.51412 0.0
C698 C 0.3701 0.77491 0.50941 0.0
C699 C 0.34002 0.7737 0.50231 0.0
C700 C 0.34404 0.8087 0.49775 0.0
C701 C 0.37787 0.84513 0.50031 0.0
C702 C 0.40769 0.84666 0.50746 0.0
C703 C 0.40385 0.81174 0.51202 0.0
H704 H 0.38093 0.87219 0.49677 0.0
H705 H 0.34093 0.53239 0.54121 0.0
H706 H 0.7404 0.37884 0.90124 0.0
H707 H 0.73926 0.36227 0.88064 0.0
H708 H 0.62073 0.34438 0.87739 0.0
H709 H 0.62168 0.3611 0.89791 0.0
H710 H 0.6309 0.28798 0.86502 0.0
H711 H 0.69641 0.43046 0.87005 0.0
H712 H 0.74696 0.49501 0.87824 0.0
H713 H 0.83985 0.47858 0.86393 0.0
H714 H 0.78978 0.4136 0.8558 0.0
H715 H 0.60499 0.31865 0.80675 0.0
H716 H 0.61363 0.32436 0.82771 0.0
H717 H 0.7333 0.3458 0.82409 0.0
H718 H 0.72498 0.34027 0.80291 0.0
H719 H 0.72851 0.39616 0.84006 0.0
H720 H 0.66243 0.25701 0.83294 0.0
H721 H 0.61161 0.19297 0.82456 0.0
H722 H 0.5201 0.20246 0.84266 0.0
H723 H 0.57031 0.2669 0.85101 0.0
C724 C 0.71378 0.37062 0.8962 0.0
C725 C 0.68119 0.37153 0.9012 0.0
C726 C 0.71328 0.36137 0.88441 0.0
C727 C 0.6801 0.35257 0.87746 0.0
C728 C 0.64667 0.35116 0.88259 0.0
C729 C 0.6473 0.36081 0.89432 0.0
C730 C 0.68095 0.34737 0.8647 0.0
C731 C 0.65211 0.31165 0.85955 0.0
C732 C 0.70929 0.37792 0.85759 0.0
C733 C 0.73939 0.41697 0.86245 0.0
C734 C 0.72762 0.44045 0.86874 0.0
C735 C 0.75618 0.47714 0.87336 0.0
C736 C 0.7966 0.49082 0.87164 0.0
C737 C 0.80853 0.46789 0.86528 0.0
C738 C 0.78008 0.43114 0.86066 0.0
C739 C 0.63327 0.32468 0.81035 0.0
C740 C 0.66425 0.32879 0.80311 0.0
C741 C 0.63806 0.32772 0.82237 0.0
C742 C 0.67385 0.33482 0.82749 0.0
C743 C 0.70531 0.34004 0.82032 0.0
C744 C 0.7005 0.33686 0.80822 0.0
C745 C 0.67801 0.33697 0.84034 0.0
C746 C 0.70771 0.37217 0.84552 0.0
C747 C 0.65049 0.30588 0.84747 0.0
C748 C 0.62015 0.26697 0.84254 0.0
C749 C 0.63144 0.2456 0.83507 0.0
C750 C 0.60274 0.2092 0.83033 0.0
C751 C 0.56265 0.19369 0.83305 0.0
C752 C 0.55118 0.21452 0.84055 0.0
C753 C 0.57975 0.25097 0.8453 0.0
H754 H 0.54047 0.16551 0.82938 0.0
H755 H 0.81867 0.51925 0.87521 0.0
H756 H 0.83964 0.39278 0.10131 0.0
H757 H 0.91098 0.41774 0.10147 0.0
H758 H 0.93322 0.53775 0.0995 0.0
H759 H 0.86121 0.51283 0.09931 0.0
H760 H 0.98044 0.52339 0.08446 0.0
H761 H 0.9465 0.50441 0.12466 0.0
H762 H 0.90844 0.46775 0.14181 0.0
H763 H 0.94367 0.38046 0.13621 0.0
H764 H 0.98145 0.41628 0.1189 0.0
H765 H 0.18453 0.61965 0.09929 0.0
H766 H 0.11323 0.59484 0.09902 0.0
H767 H 0.0907 0.47488 0.1017 0.0
H768 H 0.16266 0.49966 0.10204 0.0
H769 H 0.04356 0.48927 0.11638 0.0
H770 H 0.07721 0.5079 0.07617 0.0
H771 H 0.11497 0.5442 0.05893 0.0
H772 H 0.08015 0.63181 0.0645 0.0
H773 H 0.04263 0.59633 0.08188 0.0
C774 C 0.85955 0.42454 0.10091 0.0
C775 C 0.8446 0.45083 0.10033 0.0
C776 C 0.90045 0.43876 0.10105 0.0
C777 C 0.92752 0.47963 0.10063 0.0
C778 C 0.91285 0.50606 0.09987 0.0
C779 C 0.87172 0.49181 0.09979 0.0
C780 C 0.97106 0.49436 0.10091 0.0
C781 C 0.99437 0.51648 0.09153 0.0
C782 C 0.98905 0.48438 0.10997 0.0
C783 C 0.9665 0.46284 0.12041 0.0
C784 C 0.94586 0.47722 0.12702 0.0
C785 C 0.92439 0.45662 0.13679 0.0
C786 C 0.92356 0.42175 0.14008 0.0
C787 C 0.9443 0.40746 0.13364 0.0
C788 C 0.96578 0.42791 0.12385 0.0
C789 C 0.16456 0.58793 0.09981 0.0
C790 C 0.17943 0.56162 0.10065 0.0
C791 C 0.12367 0.57379 0.0996 0.0
C792 C 0.09651 0.53297 0.1002 0.0
C793 C 0.11112 0.50652 0.10118 0.0
C794 C 0.15222 0.52069 0.10134 0.0
C795 C 0.05297 0.5183 0.09993 0.0
C796 C 0.02965 0.49619 0.10931 0.0
C797 C 0.03495 0.52826 0.09086 0.0
C798 C 0.05742 0.54965 0.0804 0.0
C799 C 0.07787 0.53509 0.07378 0.0
C800 C 0.09918 0.55548 0.06397 0.0
C801 C 0.10004 0.59034 0.06064 0.0
C802 C 0.0795 0.60483 0.0671 0.0
C803 C 0.05818 0.58457 0.07693 0.0
H804 H 0.11655 0.60608 0.05304 0.0
H805 H 0.90692 0.40585 0.14765 0.0
H806 H 0.63764 0.15771 0.41127 0.0
H807 H 0.58194 0.09004 0.41262 0.0
H808 H 0.58819 0.09884 0.44995 0.0
H809 H 0.64462 0.16668 0.44867 0.0
H810 H 0.57197 0.02585 0.44278 0.0
H811 H 0.51913 0.11092 0.43528 0.0
H812 H 0.51278 0.16307 0.42516 0.0
H813 H 0.48003 0.09373 0.39373 0.0
H814 H 0.48675 0.04138 0.40362 0.0
H815 H 0.37971 0.85301 0.44819 0.0
H816 H 0.43358 0.92217 0.44973 0.0
H817 H 0.44202 0.92872 0.41244 0.0
H818 H 0.38812 0.86008 0.41083 0.0
H819 H 0.44867 0.99562 0.42148 0.0
H820 H 0.50624 0.91263 0.42902 0.0
H821 H 0.51202 0.86059 0.43943 0.0
H822 H 0.53461 0.92644 0.4713 0.0
H823 H 0.52845 0.97865 0.4611 0.0
C824 C 0.62756 0.1452 0.41979 0.0
C825 C 0.6455 0.16784 0.42986 0.0
C826 C 0.59548 0.10648 0.42054 0.0
C827 C 0.5802 0.08955 0.43138 0.0
C828 C 0.59924 0.11131 0.44148 0.0
C829 C 0.63156 0.15011 0.44073 0.0
C830 C 0.54361 0.04974 0.43208 0.0
C831 C 0.54482 0.01943 0.43827 0.0
C832 C 0.50814 0.04109 0.42613 0.0
C833 C 0.50376 0.07237 0.42017 0.0
C834 C 0.51084 0.10691 0.42619 0.0
C835 C 0.50714 0.13649 0.42049 0.0
C836 C 0.49609 0.13176 0.4088 0.0
C837 C 0.48862 0.09737 0.40278 0.0
C838 C 0.49233 0.06771 0.40843 0.0
C839 C 0.39265 0.86936 0.44032 0.0
C840 C 0.37964 0.85087 0.42938 0.0
C841 C 0.42367 0.90883 0.44121 0.0
C842 C 0.44234 0.93056 0.4312 0.0
C843 C 0.42825 0.91262 0.42029 0.0
C844 C 0.39739 0.87325 0.41939 0.0
C845 C 0.47729 0.97153 0.43196 0.0
C846 C 0.47572 1.00212 0.42606 0.0
C847 C 0.51228 0.98042 0.43822 0.0
C848 C 0.51647 0.94931 0.44433 0.0
C849 C 0.51218 0.91587 0.43826 0.0
C850 C 0.51556 0.88637 0.44412 0.0
C851 C 0.52356 0.89015 0.45603 0.0
C852 C 0.52835 0.92352 0.46209 0.0
C853 C 0.52495 0.95309 0.45627 0.0
H854 H 0.52613 0.86727 0.46055 0.0
H855 H 0.49325 0.1547 0.40441 0.0
H856 H 0.62935 0.44357 0.75945 0.0
H857 H 0.60654 0.49154 0.75964 0.0
H858 H 0.48948 0.39982 0.76969 0.0
H859 H 0.51212 0.35105 0.76935 0.0
H860 H 0.48521 0.44816 0.7537 0.0
H861 H 0.55392 0.46605 0.78967 0.0
H862 H 0.6096 0.47676 0.80238 0.0
H863 H 0.68532 0.58846 0.78608 0.0
H864 H 0.63021 0.57814 0.77315 0.0
H865 H 0.41505 0.57165 0.77565 0.0
H866 H 0.43886 0.52474 0.77373 0.0
H867 H 0.55125 0.61781 0.76108 0.0
H868 H 0.52742 0.6655 0.76296 0.0
H869 H 0.55881 0.56992 0.77791 0.0
H870 H 0.48785 0.55212 0.74236 0.0
H871 H 0.4308 0.54103 0.73022 0.0
H872 H 0.35778 0.42844 0.7464 0.0
H873 H 0.41425 0.43914 0.75877 0.0
C874 C 0.59865 0.43336 0.76167 0.0
C875 C 0.57264 0.3934 0.76448 0.0
C876 C 0.5857 0.461 0.76181 0.0
C877 C 0.5465 0.44957 0.7649 0.0
C878 C 0.51996 0.40942 0.76734 0.0
C879 C 0.53292 0.38156 0.76715 0.0
C880 C 0.53373 0.47983 0.76572 0.0
C881 C 0.501 0.47451 0.75911 0.0
C882 C 0.55485 0.51478 0.77258 0.0
C883 C 0.58804 0.52113 0.78036 0.0
C884 C 0.58254 0.49275 0.78873 0.0
C885 C 0.61398 0.49877 0.79599 0.0
C886 C 0.651 0.53322 0.79502 0.0
C887 C 0.65663 0.56176 0.78681 0.0
C888 C 0.6253 0.55586 0.77952 0.0
C889 C 0.44491 0.5824 0.77246 0.0
C890 C 0.46931 0.62247 0.76944 0.0
C891 C 0.45839 0.55535 0.77132 0.0
C892 C 0.49665 0.56758 0.76714 0.0
C893 C 0.52152 0.60769 0.76429 0.0
C894 C 0.50787 0.63489 0.76534 0.0
C895 C 0.51036 0.53821 0.76589 0.0
C896 C 0.54319 0.54366 0.77245 0.0
C897 C 0.48918 0.50329 0.75905 0.0
C898 C 0.45522 0.4966 0.75156 0.0
C899 C 0.45955 0.52513 0.74339 0.0
C900 C 0.42732 0.5189 0.73646 0.0
C901 C 0.39066 0.48409 0.73756 0.0
C902 C 0.38619 0.45541 0.74557 0.0
C903 C 0.41831 0.46153 0.75253 0.0
H904 H 0.36575 0.47932 0.73218 0.0
H905 H 0.67531 0.53784 0.80065 0.0
H906 H 0.62472 0.19006 0.61307 0.0
H907 H 0.60127 0.11927 0.61182 0.0
H908 H 0.48709 0.0976 0.59957 0.0
H909 H 0.51054 0.16911 0.60076 0.0
H910 H 0.48198 0.0446 0.61684 0.0
H911 H 0.54897 0.0945 0.58086 0.0
H912 H 0.60463 0.13938 0.56835 0.0
H913 H 0.67937 0.10063 0.58416 0.0
H914 H 0.62442 0.05614 0.59697 0.0
H915 H 0.40918 0.84734 0.59827 0.0
H916 H 0.43237 0.91806 0.59895 0.0
H917 H 0.54959 0.94197 0.60876 0.0
H918 H 0.52654 0.87052 0.60793 0.0
H919 H 0.55301 0.9941 0.59258 0.0
H920 H 0.4875 0.94595 0.62887 0.0
H921 H 0.43279 0.90201 0.64181 0.0
H922 H 0.35616 0.93787 0.62569 0.0
H923 H 0.41027 0.98164 0.61253 0.0
C924 C 0.59454 0.1704 0.61012 0.0
C925 C 0.56952 0.18538 0.60699 0.0
C926 C 0.58126 0.12985 0.60937 0.0
C927 C 0.5426 0.10316 0.60548 0.0
C928 C 0.51713 0.11774 0.60255 0.0
C929 C 0.53056 0.15857 0.60322 0.0
C930 C 0.52912 0.0601 0.60458 0.0
C931 C 0.49707 0.03344 0.61139 0.0
C932 C 0.5496 0.04574 0.59772 0.0
C933 C 0.58264 0.07223 0.58996 0.0
C934 C 0.57736 0.09578 0.58175 0.0
C935 C 0.60877 0.12111 0.57459 0.0
C936 C 0.64551 0.12287 0.57546 0.0
C937 C 0.6509 0.09926 0.5835 0.0
C938 C 0.61963 0.07397 0.59071 0.0
C939 C 0.43995 0.86747 0.60059 0.0
C940 C 0.46594 0.85311 0.60313 0.0
C941 C 0.45312 0.90803 0.60101 0.0
C942 C 0.49256 0.9354 0.60409 0.0
C943 C 0.51895 0.92138 0.60642 0.0
C944 C 0.50574 0.88056 0.60597 0.0
C945 C 0.50582 0.9785 0.60485 0.0
C946 C 0.53786 1.0052 0.59802 0.0
C947 C 0.48542 0.99296 0.61171 0.0
C948 C 0.45285 0.9668 0.61964 0.0
C949 C 0.45889 0.94424 0.62802 0.0
C950 C 0.428 0.9194 0.63541 0.0
C951 C 0.391 0.91708 0.63455 0.0
C952 C 0.38483 0.93967 0.62633 0.0
C953 C 0.41561 0.96453 0.61892 0.0
H954 H 0.36712 0.89783 0.64028 0.0
H955 H 0.66977 0.14249 0.56991 0.0
H956 H 0.45994 0.6261 0.93598 0.0
H957 H 0.5056 0.60022 0.935 0.0
H958 H 0.40634 0.48062 0.93502 0.0
H959 H 0.35997 0.50649 0.93575 0.0
H960 H 0.47158 0.49937 0.95182 0.0
H961 H 0.44934 0.50832 0.91127 0.0
H962 H 0.44501 0.54169 0.8937 0.0
H963 H 0.56816 0.6304 0.89745 0.0
H964 H 0.57307 0.59792 0.91516 0.0
H965 H 0.58112 0.40375 0.94093 0.0
H966 H 0.53311 0.42639 0.93992 0.0
H967 H 0.62702 0.54433 0.93168 0.0
H968 H 0.67558 0.52136 0.93235 0.0
H969 H 0.563 0.52548 0.91877 0.0
H970 H 0.5864 0.52075 0.95921 0.0
H971 H 0.59282 0.49111 0.9773 0.0
H972 H 0.47053 0.39924 0.97458 0.0
H973 H 0.46347 0.4281 0.95637 0.0
C974 C 0.44767 0.59425 0.93574 0.0
C975 C 0.40629 0.5683 0.93597 0.0
C976 C 0.47388 0.57954 0.93514 0.0
C977 C 0.45938 0.53855 0.93491 0.0
C978 C 0.41808 0.5124 0.93517 0.0
C979 C 0.39167 0.52717 0.93555 0.0
C980 C 0.4878 0.52351 0.93468 0.0
C981 C 0.49108 0.50436 0.94451 0.0
C982 C 0.51421 0.53145 0.92532 0.0
C983 C 0.51147 0.55088 0.91461 0.0
C984 C 0.47541 0.53515 0.90841 0.0
C985 C 0.47287 0.55386 0.89841 0.0
C986 C 0.50626 0.5882 0.89447 0.0
C987 C 0.54231 0.60382 0.90051 0.0
C988 C 0.545 0.58525 0.91053 0.0
C989 C 0.59178 0.43459 0.93892 0.0
C990 C 0.63237 0.46085 0.93683 0.0
C991 C 0.56417 0.44753 0.93838 0.0
C992 C 0.5764 0.48727 0.93595 0.0
C993 C 0.61683 0.51354 0.93363 0.0
C994 C 0.64459 0.50044 0.93406 0.0
C995 C 0.5468 0.50107 0.93592 0.0
C996 C 0.5434 0.5202 0.92607 0.0
C997 C 0.52057 0.4936 0.94534 0.0
C998 C 0.52452 0.47639 0.95636 0.0
C999 C 0.56094 0.49408 0.96242 0.0
C1000 C 0.56469 0.47744 0.97271 0.0
C1001 C 0.53216 0.44323 0.97707 0.0
C1002 C 0.49573 0.4257 0.97118 0.0
C1003 C 0.49182 0.44222 0.96088 0.0
H1004 H 0.53516 0.43037 0.98503 0.0
H1005 H 0.50423 0.60265 0.88673 0.0
H1006 H 0.19072 0.57886 0.25661 0.0
H1007 H 0.12016 0.53143 0.25835 0.0
H1008 H 0.10129 0.62198 0.27378 0.0
H1009 H 0.17278 0.66988 0.27233 0.0
H1010 H 0.06147 0.55448 0.28539 0.0
H1011 H 0.07288 0.58913 0.24534 0.0
H1012 H 0.10044 0.60006 0.22559 0.0
H1013 H 0.06837 0.47746 0.22296 0.0
H1014 H 0.04108 0.4659 0.24276 0.0
H1015 H 0.85158 0.44941 0.27893 0.0
H1016 H 0.92257 0.49651 0.27785 0.0
H1017 H 0.94279 0.40441 0.26439 0.0
H1018 H 0.8711 0.35673 0.26536 0.0
H1019 H 0.98168 0.47263 0.25183 0.0
H1020 H 0.96949 0.43846 0.29203 0.0
H1021 H 0.94134 0.42827 0.31169 0.0
H1022 H 0.9741 0.55113 0.31387 0.0
H1023 H 1.00196 0.56195 0.29415 0.0
C1024 C 0.17169 0.58898 0.26032 0.0
C1025 C 0.18754 0.62838 0.26428 0.0
C1026 C 0.13114 0.5617 0.26126 0.0
C1027 C 0.10509 0.57312 0.26603 0.0
C1028 C 0.12072 0.61245 0.27002 0.0
C1029 C 0.16156 0.63986 0.26914 0.0
C1030 C 0.06185 0.54354 0.26706 0.0
C1031 C 0.04389 0.53706 0.278 0.0
C1032 C 0.039 0.51993 0.25751 0.0
C1033 C 0.05525 0.52674 0.24558 0.0
C1034 C 0.07196 0.56456 0.24058 0.0
C1035 C 0.08749 0.57086 0.22937 0.0
C1036 C 0.08624 0.5395 0.22303 0.0
C1037 C 0.06935 0.50174 0.22788 0.0
C1038 C 0.05381 0.49529 0.23909 0.0
C1039 C 0.87102 0.43891 0.27581 0.0
C1040 C 0.85553 0.39917 0.27223 0.0
C1041 C 0.91176 0.46597 0.27525 0.0
C1042 C 0.93819 0.45403 0.27114 0.0
C1043 C 0.92297 0.4143 0.26762 0.0
C1044 C 0.88203 0.38702 0.26823 0.0
C1045 C 0.98139 0.48357 0.27014 0.0
C1046 C 0.9993 0.49006 0.25921 0.0
C1047 C 1.00411 0.50732 0.27968 0.0
C1048 C 0.98749 0.50092 0.29156 0.0
C1049 C 0.97041 0.46324 0.29666 0.0
C1050 C 0.95455 0.45736 0.30783 0.0
C1051 C 0.95584 0.48901 0.31401 0.0
C1052 C 0.97309 0.52663 0.30906 0.0
C1053 C 0.98895 0.53266 0.2979 0.0
H1054 H 0.94355 0.48439 0.32266 0.0
H1055 H 0.09829 0.54443 0.21435 0.0
H1056 H 0.66742 0.51042 0.099 0.0
H1057 H 0.61932 0.53385 0.0983 0.0
H1058 H 0.53125 0.42572 0.11438 0.0
H1059 H 0.57871 0.40217 0.11509 0.0
H1060 H 0.50046 0.44317 0.09588 0.0
H1061 H 0.5772 0.51158 0.12973 0.0
H1062 H 0.63846 0.55491 0.1408 0.0
H1063 H 0.6631 0.65215 0.11842 0.0
H1064 H 0.60222 0.60922 0.10711 0.0
H1065 H 0.35686 0.50256 0.10814 0.0
H1066 H 0.40464 0.47893 0.1097 0.0
H1067 H 0.49661 0.58963 0.09583 0.0
H1068 H 0.44963 0.61357 0.0945 0.0
H1069 H 0.52517 0.57022 0.11352 0.0
H1070 H 0.44966 0.5021 0.0794 0.0
H1071 H 0.38895 0.45896 0.06807 0.0
H1072 H 0.36263 0.36158 0.09058 0.0
H1073 H 0.42295 0.40431 0.10214 0.0
C1074 C 0.6379 0.4918 0.10246 0.0
C1075 C 0.627 0.45442 0.1071 0.0
C1076 C 0.61044 0.50523 0.10207 0.0
C1077 C 0.57163 0.48156 0.10632 0.0
C1078 C 0.5609 0.44444 0.11101 0.0
C1079 C 0.58825 0.43111 0.11145 0.0
C1080 C 0.54177 0.49489 0.10571 0.0
C1081 C 0.50567 0.47074 0.09986 0.0
C1082 C 0.5488 0.53119 0.1107 0.0
C1083 C 0.58537 0.55707 0.1175 0.0
C1084 C 0.59585 0.54212 0.12711 0.0
C1085 C 0.63047 0.56662 0.13344 0.0
C1086 C 0.65472 0.60623 0.1303 0.0
C1087 C 0.64432 0.62144 0.12084 0.0
C1088 C 0.60974 0.59705 0.11447 0.0
C1089 C 0.38722 0.52175 0.10539 0.0
C1090 C 0.39934 0.55994 0.10119 0.0
C1091 C 0.41452 0.50819 0.10625 0.0
C1092 C 0.4543 0.53238 0.1028 0.0
C1093 C 0.46625 0.57042 0.09859 0.0
C1094 C 0.43918 0.58402 0.0978 0.0
C1095 C 0.48382 0.5186 0.10363 0.0
C1096 C 0.51989 0.54264 0.10953 0.0
C1097 C 0.47683 0.48225 0.09865 0.0
C1098 C 0.44058 0.45652 0.09171 0.0
C1099 C 0.43075 0.47157 0.08199 0.0
C1100 C 0.39645 0.44718 0.07552 0.0
C1101 C 0.37189 0.40759 0.07862 0.0
C1102 C 0.38165 0.39228 0.0882 0.0
C1103 C 0.4159 0.41656 0.09471 0.0
H1104 H 0.34535 0.38875 0.0736 0.0
H1105 H 0.68151 0.62515 0.13521 0.0
H1106 H 0.86517 0.35093 0.43864 0.0
H1107 H 0.93671 0.39949 0.4387 0.0
H1108 H 0.91072 0.49505 0.43885 0.0
H1109 H 0.83976 0.44714 0.43876 0.0
H1110 H 0.96866 0.50818 0.42335 0.0
H1111 H 0.93972 0.47018 0.46344 0.0
H1112 H 0.91476 0.4229 0.47962 0.0
H1113 H 0.99791 0.38438 0.47117 0.0
H1114 H 0.02301 0.43109 0.45484 0.0
H1115 H 0.16207 0.66885 0.4375 0.0
H1116 H 0.09056 0.62052 0.43728 0.0
H1117 H 0.11607 0.5254 0.44159 0.0
H1118 H 0.18686 0.57329 0.44225 0.0
H1119 H 0.05777 0.51163 0.45474 0.0
H1120 H 0.087 0.54801 0.41474 0.0
H1121 H 0.11206 0.59376 0.3982 0.0
H1122 H 0.02901 0.63316 0.40577 0.0
H1123 H 1.00379 0.58799 0.42245 0.0
C1124 C 0.87474 0.38228 0.43869 0.0
C1125 C 0.84667 0.39507 0.43874 0.0
C1126 C 0.91562 0.41001 0.43875 0.0
C1127 C 0.92912 0.45098 0.43885 0.0
C1128 C 0.9011 0.46367 0.43876 0.0
C1129 C 0.86043 0.43611 0.43876 0.0
C1130 C 0.97234 0.48091 0.43912 0.0
C1131 C 0.98811 0.5092 0.43027 0.0
C1132 C 0.99792 0.4818 0.44801 0.0
C1133 C 0.98295 0.45383 0.45785 0.0
C1134 C 0.95246 0.4514 0.46498 0.0
C1135 C 0.93833 0.42475 0.47419 0.0
C1136 C 0.95466 0.40057 0.4764 0.0
C1137 C 0.98524 0.40308 0.46944 0.0
C1138 C 0.99945 0.42966 0.46021 0.0
C1139 C 0.15234 0.63764 0.43841 0.0
C1140 C 0.18023 0.62501 0.4399 0.0
C1141 C 0.11144 0.60995 0.43822 0.0
C1142 C 0.0977 0.56906 0.43928 0.0
C1143 C 0.12566 0.55663 0.44079 0.0
C1144 C 0.1663 0.58419 0.44114 0.0
C1145 C 0.05439 0.53898 0.43891 0.0
C1146 C 0.03849 0.51066 0.44777 0.0
C1147 C 0.02878 0.53784 0.42996 0.0
C1148 C 0.0438 0.56492 0.41991 0.0
C1149 C 0.07428 0.56664 0.41293 0.0
C1150 C 0.08848 0.59243 0.40352 0.0
C1151 C 0.07221 0.61643 0.40095 0.0
C1152 C 0.04162 0.6146 0.40777 0.0
C1153 C 0.02735 0.58889 0.4172 0.0
H1154 H 0.08324 0.63638 0.39367 0.0
H1155 H 0.94368 0.37996 0.48354 0.0
H1156 H 0.51224 0.15696 0.76499 0.0
H1157 H 0.48884 0.08554 0.76382 0.0
H1158 H 0.6006 0.10647 0.778 0.0
H1159 H 0.62408 0.1773 0.77917 0.0
H1160 H 0.57889 0.05729 0.75939 0.0
H1161 H 0.5186 0.06752 0.79459 0.0
H1162 H 0.47794 0.08597 0.80671 0.0
H1163 H 0.37521 0.0119 0.78573 0.0
H1164 H 0.41542 0.99344 0.77338 0.0
H1165 H 0.52352 0.85627 0.77212 0.0
H1166 H 0.547 0.92764 0.7734 0.0
H1167 H 0.43319 0.90638 0.76088 0.0
H1168 H 0.40949 0.83552 0.75976 0.0
H1169 H 0.45616 0.956 0.7787 0.0
H1170 H 0.51636 0.94594 0.74341 0.0
H1171 H 0.55704 0.92774 0.73121 0.0
H1172 H 0.65981 1.00161 0.7522 0.0
H1173 H 0.6196 0.01984 0.76462 0.0
C1174 C 0.53171 0.14629 0.7679 0.0
C1175 C 0.57001 0.17294 0.77218 0.0
C1176 C 0.5183 0.10546 0.76725 0.0
C1177 C 0.54294 0.09057 0.77086 0.0
C1178 C 0.58109 0.11717 0.77513 0.0
C1179 C 0.59439 0.15776 0.77583 0.0
C1180 C 0.52944 0.04741 0.77011 0.0
C1181 C 0.55228 0.03517 0.76372 0.0
C1182 C 0.49436 0.01842 0.77558 0.0
C1183 C 0.47012 0.02945 0.78299 0.0
C1184 C 0.48742 0.05544 0.7925 0.0
C1185 C 0.46444 0.06585 0.79942 0.0
C1186 C 0.42404 0.05021 0.79697 0.0
C1187 C 0.40652 0.02405 0.78761 0.0
C1188 C 0.42938 0.01358 0.78065 0.0
C1189 C 0.50361 0.86686 0.76959 0.0
C1190 C 0.46464 0.84009 0.76583 0.0
C1191 C 0.51708 0.9077 0.7703 0.0
C1192 C 0.49194 0.92254 0.76717 0.0
C1193 C 0.45314 0.89579 0.76339 0.0
C1194 C 0.43969 0.85516 0.76271 0.0
C1195 C 0.50554 0.96578 0.76794 0.0
C1196 C 0.48275 0.97807 0.77435 0.0
C1197 C 0.54064 0.99482 0.76247 0.0
C1198 C 0.56487 0.98391 0.75502 0.0
C1199 C 0.54756 0.95804 0.74548 0.0
C1200 C 0.57055 0.94777 0.73852 0.0
C1201 C 0.61096 0.96342 0.74095 0.0
C1202 C 0.62849 0.98946 0.75034 0.0
C1203 C 0.60563 0.99979 0.75734 0.0
H1204 H 0.62871 0.95544 0.73555 0.0
H1205 H 0.4063 0.05829 0.80234 0.0
H1206 H 0.41253 0.58389 0.5943 0.0
H1207 H 0.43562 0.53628 0.59585 0.0
H1208 H 0.55129 0.6299 0.60677 0.0
H1209 H 0.52815 0.67818 0.60537 0.0
H1210 H 0.55258 0.57811 0.58921 0.0
H1211 H 0.49447 0.57001 0.62639 0.0
H1212 H 0.44206 0.56278 0.63986 0.0
H1213 H 0.36281 0.44675 0.62589 0.0
H1214 H 0.41452 0.45355 0.61217 0.0
H1215 H 0.62882 0.45738 0.60765 0.0
H1216 H 0.60556 0.50488 0.607 0.0
H1217 H 0.48644 0.4101 0.59965 0.0
H1218 H 0.5096 0.36175 0.60044 0.0
H1219 H 0.4868 0.46279 0.61551 0.0
H1220 H 0.54328 0.47065 0.57816 0.0
H1221 H 0.59442 0.47759 0.56422 0.0
H1222 H 0.67534 0.59343 0.57803 0.0
H1223 H 0.62484 0.58696 0.59217 0.0
C1224 C 0.44296 0.59457 0.59703 0.0
C1225 C 0.46853 0.63495 0.59971 0.0
C1226 C 0.45602 0.56717 0.59795 0.0
C1227 C 0.49504 0.57945 0.60151 0.0
C1228 C 0.52099 0.61982 0.60404 0.0
C1229 C 0.50774 0.64732 0.60325 0.0
C1230 C 0.50845 0.54987 0.60245 0.0
C1231 C 0.53869 0.55325 0.59509 0.0
C1232 C 0.48938 0.51676 0.60987 0.0
C1233 C 0.45828 0.51245 0.61817 0.0
C1234 C 0.46576 0.54308 0.62611 0.0
C1235 C 0.4362 0.53904 0.63381 0.0
C1236 C 0.39912 0.50437 0.63372 0.0
C1237 C 0.39154 0.47361 0.62595 0.0
C1238 C 0.42098 0.47753 0.61821 0.0
C1239 C 0.59761 0.4464 0.60589 0.0
C1240 C 0.57111 0.40565 0.60402 0.0
C1241 C 0.58439 0.47376 0.60548 0.0
C1242 C 0.54438 0.46124 0.60309 0.0
C1243 C 0.51752 0.42048 0.60146 0.0
C1244 C 0.53078 0.3929 0.60188 0.0
C1245 C 0.53108 0.49103 0.60228 0.0
C1246 C 0.50078 0.48766 0.60964 0.0
C1247 C 0.54995 0.5241 0.59481 0.0
C1248 C 0.58038 0.52815 0.5863 0.0
C1249 C 0.57208 0.49748 0.57829 0.0
C1250 C 0.60094 0.50135 0.57034 0.0
C1251 C 0.63814 0.53589 0.57026 0.0
C1252 C 0.64652 0.56668 0.57811 0.0
C1253 C 0.61778 0.56294 0.58609 0.0
H1254 H 0.66044 0.53884 0.5641 0.0
H1255 H 0.37628 0.5013 0.63969 0.0
H1256 H 0.1728 0.51504 0.9288 0.0
H1257 H 0.10116 0.49137 0.92777 0.0
H1258 H 0.12192 0.6036 0.94152 0.0
H1259 H 0.19296 0.62721 0.94264 0.0
H1260 H 0.05861 0.54317 0.95166 0.0
H1261 H 0.10543 0.58273 0.9128 0.0
H1262 H 0.1389 0.58282 0.89463 0.0
H1263 H 0.05682 0.45835 0.88987 0.0
H1264 H 0.02319 0.4574 0.90811 0.0
H1265 H 0.87028 0.52364 0.93778 0.0
H1266 H 0.94218 0.54838 0.9383 0.0
H1267 H 0.92212 0.43644 0.92451 0.0
H1268 H 0.85082 0.41179 0.92389 0.0
H1269 H 0.98517 0.49705 0.91433 0.0
H1270 H 0.93875 0.45727 0.95322 0.0
H1271 H 0.90526 0.45692 0.97141 0.0
H1272 H 0.98662 0.58158 0.97613 0.0
H1273 H 0.02026 0.58278 0.95787 0.0
C1274 C 0.16203 0.53454 0.93166 0.0
C1275 C 0.18868 0.57308 0.93575 0.0
C1276 C 0.12111 0.52107 0.93102 0.0
C1277 C 0.10615 0.54587 0.93447 0.0
C1278 C 0.13267 0.58393 0.9388 0.0
C1279 C 0.1734 0.59742 0.93939 0.0
C1280 C 0.06301 0.53264 0.93349 0.0
C1281 C 0.04268 0.53352 0.94346 0.0
C1282 C 0.04196 0.51941 0.92286 0.0
C1283 C 0.06208 0.51991 0.91188 0.0
C1284 C 0.09473 0.55531 0.90793 0.0
C1285 C 0.11369 0.55553 0.89761 0.0
C1286 C 0.10007 0.52059 0.89112 0.0
C1287 C 0.06739 0.48537 0.89492 0.0
C1288 C 0.04835 0.48498 0.90524 0.0
C1289 C 0.88127 0.50448 0.93477 0.0
C1290 C 0.85474 0.46566 0.93086 0.0
C1291 C 0.92234 0.51855 0.93512 0.0
C1292 C 0.93757 0.49409 0.93156 0.0
C1293 C 0.91118 0.45586 0.92732 0.0
C1294 C 0.8703 0.44177 0.92702 0.0
C1295 C 0.98079 0.50761 0.93249 0.0
C1296 C 1.00112 0.50676 0.92252 0.0
C1297 C 1.00185 0.52084 0.94313 0.0
C1298 C 0.98173 0.5202 0.95411 0.0
C1299 C 0.94928 0.48468 0.95809 0.0
C1300 C 0.93031 0.48431 0.96842 0.0
C1301 C 0.94373 0.51924 0.9749 0.0
C1302 C 0.97621 0.55457 0.97109 0.0
C1303 C 0.99526 0.55511 0.96075 0.0
H1304 H 0.92901 0.51889 0.9829 0.0
H1305 H 0.11478 0.52082 0.88313 0.0
H1306 H 0.45636 0.84443 0.27984 0.0
H1307 H 0.5038 0.91507 0.27854 0.0
H1308 H 0.41541 0.93331 0.26147 0.0
H1309 H 0.36747 0.86188 0.26259 0.0
H1310 H 0.4865 0.97256 0.25063 0.0
H1311 H 0.44165 0.96143 0.28983 0.0
H1312 H 0.42635 0.93406 0.30957 0.0
H1313 H 0.5488 0.96781 0.31487 0.0
H1314 H 0.56474 0.9949 0.29509 0.0
H1315 H 0.58879 0.18144 0.25566 0.0
H1316 H 0.54175 0.11075 0.25693 0.0
H1317 H 0.6297 0.09359 0.27472 0.0
H1318 H 0.67716 0.16515 0.27369 0.0
H1319 H 0.55904 0.05362 0.28516 0.0
H1320 H 0.60417 0.06501 0.24604 0.0
H1321 H 0.61972 0.09247 0.22631 0.0
H1322 H 0.49722 0.05812 0.2208 0.0
H1323 H 0.48101 0.03096 0.24057 0.0
C1324 C 0.44673 0.86334 0.27585 0.0
C1325 C 0.40794 0.84738 0.27135 0.0
C1326 C 0.47399 0.9039 0.27516 0.0
C1327 C 0.46315 0.92972 0.27003 0.0
C1328 C 0.42444 0.91399 0.2655 0.0
C1329 C 0.397 0.8732 0.26619 0.0
C1330 C 0.49273 0.97287 0.26919 0.0
C1331 C 0.5019 0.99044 0.2582 0.0
C1332 C 0.51379 0.996 0.27902 0.0
C1333 C 0.50431 0.97987 0.29094 0.0
C1334 C 0.46526 0.96275 0.29517 0.0
C1335 C 0.45648 0.94733 0.30638 0.0
C1336 C 0.48656 0.94911 0.31346 0.0
C1337 C 0.52551 0.96641 0.30936 0.0
C1338 C 0.53445 0.98184 0.29816 0.0
C1339 C 0.59843 0.16276 0.25979 0.0
C1340 C 0.63694 0.17909 0.26454 0.0
C1341 C 0.5714 0.12215 0.26046 0.0
C1342 C 0.58222 0.09658 0.26577 0.0
C1343 C 0.62068 0.11268 0.27053 0.0
C1344 C 0.64784 0.15355 0.2699 0.0
C1345 C 0.55282 0.05336 0.2666 0.0
C1346 C 0.54368 0.03576 0.27758 0.0
C1347 C 0.53184 0.03018 0.25676 0.0
C1348 C 0.54145 0.04625 0.24483 0.0
C1349 C 0.58059 0.06356 0.24065 0.0
C1350 C 0.58952 0.07904 0.22946 0.0
C1351 C 0.5595 0.07712 0.22232 0.0
C1352 C 0.52046 0.05962 0.22635 0.0
C1353 C 0.51137 0.04414 0.23754 0.0
H1354 H 0.56648 0.08913 0.21366 0.0
H1355 H 0.47971 0.93715 0.32213 0.0
loop_
_geom_bond_atom_site_label_1
_geom_bond_atom_site_label_2
_geom_bond_distance
_geom_bond_site_symmetry_2
_ccdc_geom_bond_type
Mg0 O7 2.141 . S
Mg0 O8 2.048 . S
Mg0 O9 2.048 . S
Mg0 O12 2.141 . S
C1 O2 1.313 . S
C1 O8 1.195 . S
O2 C1 1.313 . S
C3 O4 1.245 . S
C3 O12 1.289 . S
O4 C3 1.245 . S
C5 O6 1.245 . S
C5 O7 1.289 . S
O6 C5 1.245 . S
O7 Mg0 2.141 . S
O7 C5 1.289 . S
O8 Mg0 2.048 . S
O8 C1 1.195 . S
O9 Mg0 2.048 . S
O9 C10 1.195 . S
C10 O9 1.195 . S
C10 O11 1.313 . S
O11 C10 1.313 . S
O12 Mg0 2.141 . S
O12 C3 1.289 . S
Mg13 O20 2.141 . S
Mg13 O21 2.048 . S
Mg13 O22 2.048 . S
Mg13 O25 2.141 . S
C14 O15 1.313 . S
C14 O21 1.195 . S
O15 C14 1.313 . S
C16 O17 1.245 . S
C16 O25 1.289 . S
O17 C16 1.245 . S
C18 O19 1.245 . S
C18 O20 1.289 . S
O19 C18 1.245 . S
O20 Mg13 2.141 . S
O20 C18 1.289 . S
O21 Mg13 2.048 . S
O21 C14 1.195 . S
O22 Mg13 2.048 . S
O22 C23 1.195 . S
C23 O22 1.195 . S
C23 O24 1.313 . S
O24 C23 1.313 . S
O25 Mg13 2.141 . S
O25 C16 1.289 . S
Mg26 O33 2.141 . S
Mg26 O34 2.048 . S
Mg26 O35 2.048 . S
Mg26 O38 2.141 . S
C27 O28 1.313 . S
C27 O34 1.195 . S
O28 C27 1.313 . S
C29 O30 1.245 . S
C29 O38 1.289 . S
O30 C29 1.245 . S
C31 O32 1.245 . S
C31 O33 1.289 . S
O32 C31 1.245 . S
O33 Mg26 2.141 . S
O33 C31 1.289 . S
O34 Mg26 2.048 . S
O34 C27 1.195 . S
O35 Mg26 2.048 . S
O35 C36 1.195 . S
C36 O35 1.195 . S
C36 O37 1.313 . S
O37 C36 1.313 . S
O38 Mg26 2.141 . S
O38 C29 1.289 . S
Mg39 O46 2.141 . S
Mg39 O47 2.048 . S
Mg39 O48 2.048 . S
Mg39 O51 2.141 . S
C40 O41 1.313 . S
C40 O47 1.195 . S
O41 C40 1.313 . S
C42 O43 1.245 . S
C42 O51 1.289 . S
O43 C42 1.245 . S
C44 O45 1.245 . S
C44 O46 1.289 . S
O45 C44 1.245 . S
O46 Mg39 2.141 . S
O46 C44 1.289 . S
O47 Mg39 2.048 . S
O47 C40 1.195 . S
O48 Mg39 2.048 . S
O48 C49 1.195 . S
C49 O48 1.195 . S
C49 O50 1.313 . S
O50 C49 1.313 . S
O51 Mg39 2.141 . S
O51 C42 1.289 . S
Mg52 O59 2.141 . S
Mg52 O60 2.048 . S
Mg52 O61 2.048 . S
Mg52 O64 2.141 . S
C53 O54 1.313 . S
C53 O60 1.195 . S
O54 C53 1.313 . S
C55 O56 1.245 . S
C55 O64 1.289 . S
O56 C55 1.245 . S
C57 O58 1.245 . S
C57 O59 1.289 . S
O58 C57 1.245 . S
O59 Mg52 2.141 . S
O59 C57 1.289 . S
O60 Mg52 2.048 . S
O60 C53 1.195 . S
O61 Mg52 2.048 . S
O61 C62 1.195 . S
C62 O61 1.195 . S
C62 O63 1.313 . S
O63 C62 1.313 . S
O64 Mg52 2.141 . S
O64 C55 1.289 . S
Mg65 O72 2.141 . S
Mg65 O73 2.048 . S
Mg65 O74 2.048 . S
Mg65 O77 2.141 . S
C66 O67 1.313 . S
C66 O73 1.195 . S
O67 C66 1.313 . S
C68 O69 1.245 . S
C68 O77 1.289 . S
O69 C68 1.245 . S
C70 O71 1.245 . S
C70 O72 1.289 . S
O71 C70 1.245 . S
O72 Mg65 2.141 . S
O72 C70 1.289 . S
O73 Mg65 2.048 . S
O73 C66 1.195 . S
O74 Mg65 2.048 . S
O74 C75 1.195 . S
C75 O74 1.195 . S
C75 O76 1.313 . S
O76 C75 1.313 . S
O77 Mg65 2.141 . S
O77 C68 1.289 . S
Mg78 O85 2.141 . S
Mg78 O86 2.048 . S
Mg78 O87 2.048 . S
Mg78 O90 2.141 . S
C79 O80 1.313 . S
C79 O86 1.195 . S
O80 C79 1.313 . S
C81 O82 1.245 . S
C81 O90 1.289 . S
O82 C81 1.245 . S
C83 O84 1.245 . S
C83 O85 1.289 . S
O84 C83 1.245 . S
O85 Mg78 2.141 . S
O85 C83 1.289 . S
O86 Mg78 2.048 . S
O86 C79 1.195 . S
O87 Mg78 2.048 . S
O87 C88 1.195 . S
C88 O87 1.195 . S
C88 O89 1.313 . S
O89 C88 1.313 . S
O90 Mg78 2.141 . S
O90 C81 1.289 . S
Mg91 O98 2.141 . S
Mg91 O99 2.048 . S
Mg91 O100 2.048 . S
Mg91 O103 2.141 . S
C92 O93 1.313 . S
C92 O99 1.195 . S
O93 C92 1.313 . S
C94 O95 1.245 . S
C94 O103 1.289 . S
O95 C94 1.245 . S
C96 O97 1.245 . S
C96 O98 1.289 . S
O97 C96 1.245 . S
O98 Mg91 2.141 . S
O98 C96 1.289 . S
O99 Mg91 2.048 . S
O99 C92 1.195 . S
O100 Mg91 2.048 . S
O100 C101 1.195 . S
C101 O100 1.195 . S
C101 O102 1.313 . S
O102 C101 1.313 . S
O103 Mg91 2.141 . S
O103 C94 1.289 . S
Mg104 O111 2.141 . S
Mg104 O112 2.048 . S
Mg104 O113 2.048 . S
Mg104 O116 2.141 . S
C105 O106 1.313 . S
C105 O112 1.195 . S
O106 C105 1.313 . S
C107 O108 1.245 . S
C107 O116 1.289 . S
O108 C107 1.245 . S
C109 O110 1.245 . S
C109 O111 1.289 . S
O110 C109 1.245 . S
O111 Mg104 2.141 . S
O111 C109 1.289 . S
O112 Mg104 2.048 . S
O112 C105 1.195 . S
O113 Mg104 2.048 . S
O113 C114 1.195 . S
C114 O113 1.195 . S
C114 O115 1.313 . S
O115 C114 1.313 . S
O116 Mg104 2.141 . S
O116 C107 1.289 . S
Mg117 O124 2.141 . S
Mg117 O125 2.048 . S
Mg117 O126 2.048 . S
Mg117 O129 2.141 . S
C118 O119 1.313 . S
C118 O125 1.195 . S
O119 C118 1.313 . S
C120 O121 1.245 . S
C120 O129 1.289 . S
O121 C120 1.245 . S
C122 O123 1.245 . S
C122 O124 1.289 . S
O123 C122 1.245 . S
O124 Mg117 2.141 . S
O124 C122 1.289 . S
O125 Mg117 2.048 . S
O125 C118 1.195 . S
O126 Mg117 2.048 . S
O126 C127 1.195 . S
C127 O126 1.195 . S
C127 O128 1.313 . S
O128 C127 1.313 . S
O129 Mg117 2.141 . S
O129 C120 1.289 . S
Mg130 O137 2.141 . S
Mg130 O138 2.048 . S
Mg130 O139 2.048 . S
Mg130 O142 2.141 . S
C131 O132 1.313 . S
C131 O138 1.195 . S
O132 C131 1.313 . S
C133 O134 1.245 . S
C133 O142 1.289 . S
O134 C133 1.245 . S
C135 O136 1.245 . S
C135 O137 1.289 . S
O136 C135 1.245 . S
O137 Mg130 2.141 . S
O137 C135 1.289 . S
O138 Mg130 2.048 . S
O138 C131 1.195 . S
O139 Mg130 2.048 . S
O139 C140 1.195 . S
C140 O139 1.195 . S
C140 O141 1.313 . S
O141 C140 1.313 . S
O142 Mg130 2.141 . S
O142 C133 1.289 . S
Mg143 O150 2.141 . S
Mg143 O151 2.048 . S
Mg143 O152 2.048 . S
Mg143 O155 2.141 . S
C144 O145 1.313 . S
C144 O151 1.195 . S
O145 C144 1.313 . S
C146 O147 1.245 . S
C146 O155 1.289 . S
O147 C146 1.245 . S
C148 O149 1.245 . S
C148 O150 1.289 . S
O149 C148 1.245 . S
O150 Mg143 2.141 . S
O150 C148 1.289 . S
O151 Mg143 2.048 . S
O151 C144 1.195 . S
O152 Mg143 2.048 . S
O152 C153 1.195 . S
C153 O152 1.195 . S
C153 O154 1.313 . S
O154 C153 1.313 . S
O155 Mg143 2.141 . S
O155 C146 1.289 . S
H156 C174 0.951 . S
H157 C176 0.951 . S
H158 C178 0.950 . S
H159 C179 0.950 . S
H160 C181 0.950 . S
H161 C184 0.950 . S
H162 C185 0.950 . S
H163 C187 0.950 . S
H164 C188 0.950 . S
H165 C189 0.951 . S
H166 C191 0.951 . S
H167 C193 0.950 . S
H168 C194 0.950 . S
H169 C196 0.950 . S
H170 C199 0.950 . S
H171 C200 0.950 . S
H172 C202 0.950 . S
H173 C203 0.950 . S
C174 H156 0.951 . S
C174 C175 1.366 . S
C174 C176 1.388 . S
C175 C174 1.366 . S
C175 C179 1.385 . S
C176 H157 0.951 . S
C176 C174 1.388 . S
C176 C177 1.366 . S
C177 C176 1.366 . S
C177 C178 1.414 . S
C177 C180 1.499 . S
C178 H158 0.950 . S
C178 C177 1.414 . S
C178 C179 1.374 . S
C179 H159 0.950 . S
C179 C175 1.385 . S
C179 C178 1.374 . S
C180 C177 1.499 . S
C180 C181 1.373 . S
C180 C182 1.389 . S
C181 H160 0.950 . S
C181 C180 1.373 . S
C181 C197 1.377 1_556 S
C182 C180 1.389 . S
C182 C183 1.524 . S
C182 C196 1.377 1_556 S
C183 C182 1.524 . S
C183 C184 1.397 . S
C183 C188 1.363 . S
C184 H161 0.950 . S
C184 C183 1.397 . S
C184 C185 1.334 . S
C185 H162 0.950 . S
C185 C184 1.334 . S
C185 C186 1.287 . S
C186 C185 1.287 . S
C186 C187 1.524 . S
C186 H205 0.913 . S
C187 H163 0.950 . S
C187 C186 1.524 . S
C187 C188 1.415 . S
C188 H164 0.950 . S
C188 C183 1.363 . S
C188 C187 1.415 . S
C189 H165 0.951 . S
C189 C190 1.366 . S
C189 C191 1.388 . S
C190 C189 1.366 . S
C190 C194 1.385 . S
C191 H166 0.951 . S
C191 C189 1.388 . S
C191 C192 1.366 . S
C192 C191 1.366 . S
C192 C193 1.414 . S
C192 C195 1.499 . S
C193 H167 0.950 . S
C193 C192 1.414 . S
C193 C194 1.374 . S
C194 H168 0.950 . S
C194 C190 1.385 . S
C194 C193 1.374 . S
C195 C192 1.499 . S
C195 C196 1.373 . S
C195 C197 1.389 . S
C196 H169 0.950 . S
C196 C182 1.377 1_554 S
C196 C195 1.373 . S
C197 C181 1.377 1_554 S
C197 C195 1.389 . S
C197 C198 1.524 . S
C198 C197 1.524 . S
C198 C199 1.397 . S
C198 C203 1.363 . S
C199 H170 0.950 . S
C199 C198 1.397 . S
C199 C200 1.334 . S
C200 H171 0.950 . S
C200 C199 1.334 . S
C200 C201 1.287 . S
C201 C200 1.287 . S
C201 C202 1.524 . S
C201 H204 0.999 . S
C202 H172 0.950 . S
C202 C201 1.524 . S
C202 C203 1.415 . S
C203 H173 0.950 . S
C203 C198 1.363 . S
C203 C202 1.415 . S
H204 C201 0.999 . S
H205 C186 0.913 . S
H206 C224 0.951 . S
H207 C226 0.951 . S
H208 C228 0.950 . S
H209 C229 0.950 . S
H210 C231 0.950 . S
H211 C234 0.950 . S
H212 C235 0.950 . S
H213 C237 0.950 . S
H214 C238 0.950 . S
H215 C239 0.951 . S
H216 C241 0.951 . S
H217 C243 0.950 . S
H218 C244 0.950 . S
H219 C246 0.950 . S
H220 C249 0.950 . S
H221 C250 0.950 . S
H222 C252 0.950 . S
H223 C253 0.950 . S
C224 H206 0.951 . S
C224 C225 1.366 . S
C224 C226 1.388 . S
C225 C224 1.366 . S
C225 C229 1.385 . S
C226 H207 0.951 . S
C226 C224 1.388 . S
C226 C227 1.366 . S
C227 C226 1.366 . S
C227 C228 1.414 . S
C227 C230 1.499 . S
C228 H208 0.950 . S
C228 C227 1.414 . S
C228 C229 1.374 . S
C229 H209 0.950 . S
C229 C225 1.385 . S
C229 C228 1.374 . S
C230 C227 1.499 . S
C230 C231 1.373 . S
C230 C232 1.389 . S
C231 H210 0.950 . S
C231 C230 1.373 . S
C231 C247 1.377 . S
C232 C230 1.389 . S
C232 C233 1.524 . S
C232 C246 1.377 . S
C233 C232 1.524 . S
C233 C234 1.397 . S
C233 C238 1.363 . S
C234 H211 0.950 . S
C234 C233 1.397 . S
C234 C235 1.334 . S
C235 H212 0.950 . S
C235 C234 1.334 . S
C235 C236 1.287 . S
C236 C235 1.287 . S
C236 C237 1.524 . S
C236 H255 0.913 . S
C237 H213 0.950 . S
C237 C236 1.524 . S
C237 C238 1.415 . S
C238 H214 0.950 . S
C238 C233 1.363 . S
C238 C237 1.415 . S
C239 H215 0.951 . S
C239 C240 1.366 . S
C239 C241 1.388 . S
C240 C239 1.366 . S
C240 C244 1.385 . S
C241 H216 0.951 . S
C241 C239 1.388 . S
C241 C242 1.366 . S
C242 C241 1.366 . S
C242 C243 1.414 . S
C242 C245 1.499 . S
C243 H217 0.950 . S
C243 C242 1.414 . S
C243 C244 1.374 . S
C244 H218 0.950 . S
C244 C240 1.385 . S
C244 C243 1.374 . S
C245 C242 1.499 . S
C245 C246 1.373 . S
C245 C247 1.389 . S
C246 H219 0.950 . S
C246 C232 1.377 . S
C246 C245 1.373 . S
C247 C231 1.377 . S
C247 C245 1.389 . S
C247 C248 1.524 . S
C248 C247 1.524 . S
C248 C249 1.397 . S
C248 C253 1.363 . S
C249 H220 0.950 . S
C249 C248 1.397 . S
C249 C250 1.334 . S
C250 H221 0.950 . S
C250 C249 1.334 . S
C250 C251 1.287 . S
C251 C250 1.287 . S
C251 C252 1.524 . S
C251 H254 0.999 . S
C252 H222 0.950 . S
C252 C251 1.524 . S
C252 C253 1.415 . S
C253 H223 0.950 . S
C253 C248 1.363 . S
C253 C252 1.415 . S
H254 C251 0.999 . S
H255 C236 0.913 . S
H256 C274 0.951 . S
H257 C276 0.951 . S
H258 C278 0.950 . S
H259 C279 0.950 . S
H260 C281 0.950 . S
H261 C284 0.950 . S
H262 C285 0.950 . S
H263 C287 0.950 . S
H264 C288 0.950 . S
H265 C289 0.951 . S
H266 C291 0.951 . S
H267 C293 0.950 . S
H268 C294 0.950 . S
H269 C296 0.950 . S
H270 C299 0.950 . S
H271 C300 0.950 . S
H272 C302 0.950 . S
H273 C303 0.950 . S
C274 H256 0.951 . S
C274 C275 1.366 . S
C274 C276 1.388 . S
C275 C274 1.366 . S
C275 C279 1.385 . S
C276 H257 0.951 . S
C276 C274 1.388 . S
C276 C277 1.366 . S
C277 C276 1.366 . S
C277 C278 1.414 . S
C277 C280 1.499 . S
C278 H258 0.950 . S
C278 C277 1.414 . S
C278 C279 1.374 . S
C279 H259 0.950 . S
C279 C275 1.385 . S
C279 C278 1.374 . S
C280 C277 1.499 . S
C280 C281 1.373 . S
C280 C282 1.389 . S
C281 H260 0.950 . S
C281 C280 1.373 . S
C281 C297 1.377 . S
C282 C280 1.389 . S
C282 C283 1.524 . S
C282 C296 1.377 . S
C283 C282 1.524 . S
C283 C284 1.397 . S
C283 C288 1.363 . S
C284 H261 0.950 . S
C284 C283 1.397 . S
C284 C285 1.334 . S
C285 H262 0.950 . S
C285 C284 1.334 . S
C285 C286 1.287 . S
C286 C285 1.287 . S
C286 C287 1.524 . S
C286 H305 0.913 . S
C287 H263 0.950 . S
C287 C286 1.524 . S
C287 C288 1.415 . S
C288 H264 0.950 . S
C288 C283 1.363 . S
C288 C287 1.415 . S
C289 H265 0.951 . S
C289 C290 1.366 . S
C289 C291 1.388 . S
C290 C289 1.366 . S
C290 C294 1.385 . S
C291 H266 0.951 . S
C291 C289 1.388 . S
C291 C292 1.366 . S
C292 C291 1.366 . S
C292 C293 1.414 . S
C292 C295 1.499 . S
C293 H267 0.950 . S
C293 C292 1.414 . S
C293 C294 1.374 . S
C294 H268 0.950 . S
C294 C290 1.385 . S
C294 C293 1.374 . S
C295 C292 1.499 . S
C295 C296 1.373 . S
C295 C297 1.389 . S
C296 H269 0.950 . S
C296 C282 1.377 . S
C296 C295 1.373 . S
C297 C281 1.377 . S
C297 C295 1.389 . S
C297 C298 1.524 . S
C298 C297 1.524 . S
C298 C299 1.397 . S
C298 C303 1.363 . S
C299 H270 0.950 . S
C299 C298 1.397 . S
C299 C300 1.334 . S
C300 H271 0.950 . S
C300 C299 1.334 . S
C300 C301 1.287 . S
C301 C300 1.287 . S
C301 C302 1.524 . S
C301 H304 0.999 . S
C302 H272 0.950 . S
C302 C301 1.524 . S
C302 C303 1.415 . S
C303 H273 0.950 . S
C303 C298 1.363 . S
C303 C302 1.415 . S
H304 C301 0.999 . S
H305 C286 0.913 . S
H306 C324 0.951 . S
H307 C326 0.951 . S
H308 C328 0.950 . S
H309 C329 0.950 . S
H310 C331 0.950 . S
H311 C334 0.950 . S
H312 C335 0.950 . S
H313 C337 0.950 . S
H314 C338 0.950 . S
H315 C339 0.951 . S
H316 C341 0.951 . S
H317 C343 0.950 . S
H318 C344 0.950 . S
H319 C346 0.950 . S
H320 C349 0.950 . S
H321 C350 0.950 . S
H322 C352 0.950 . S
H323 C353 0.950 . S
C324 H306 0.951 . S
C324 C325 1.366 . S
C324 C326 1.388 . S
C325 C324 1.366 . S
C325 C329 1.385 . S
C326 H307 0.951 . S
C326 C324 1.388 . S
C326 C327 1.366 . S
C327 C326 1.366 . S
C327 C328 1.414 . S
C327 C330 1.499 . S
C328 H308 0.950 . S
C328 C327 1.414 . S
C328 C329 1.374 . S
C329 H309 0.950 . S
C329 C325 1.385 . S
C329 C328 1.374 . S
C330 C327 1.499 . S
C330 C331 1.373 . S
C330 C332 1.389 . S
C331 H310 0.950 . S
C331 C330 1.373 . S
C331 C347 1.377 1_554 S
C332 C330 1.389 . S
C332 C333 1.524 . S
C332 C346 1.377 1_554 S
C333 C332 1.524 . S
C333 C334 1.397 . S
C333 C338 1.363 . S
C334 H311 0.950 . S
C334 C333 1.397 . S
C334 C335 1.334 . S
C335 H312 0.950 . S
C335 C334 1.334 . S
C335 C336 1.287 . S
C336 C335 1.287 . S
C336 C337 1.524 . S
C336 H355 0.913 . S
C337 H313 0.950 . S
C337 C336 1.524 . S
C337 C338 1.415 . S
C338 H314 0.950 . S
C338 C333 1.363 . S
C338 C337 1.415 . S
C339 H315 0.951 . S
C339 C340 1.366 . S
C339 C341 1.388 . S
C340 C339 1.366 . S
C340 C344 1.385 . S
C341 H316 0.951 . S
C341 C339 1.388 . S
C341 C342 1.366 . S
C342 C341 1.366 . S
C342 C343 1.414 . S
C342 C345 1.499 . S
C343 H317 0.950 . S
C343 C342 1.414 . S
C343 C344 1.374 . S
C344 H318 0.950 . S
C344 C340 1.385 . S
C344 C343 1.374 . S
C345 C342 1.499 . S
C345 C346 1.373 . S
C345 C347 1.389 . S
C346 H319 0.950 . S
C346 C332 1.377 1_556 S
C346 C345 1.373 . S
C347 C331 1.377 1_556 S
C347 C345 1.389 . S
C347 C348 1.524 . S
C348 C347 1.524 . S
C348 C349 1.397 . S
C348 C353 1.363 . S
C349 H320 0.950 . S
C349 C348 1.397 . S
C349 C350 1.334 . S
C350 H321 0.950 . S
C350 C349 1.334 . S
C350 C351 1.287 . S
C351 C350 1.287 . S
C351 C352 1.524 . S
C351 H354 0.999 . S
C352 H322 0.950 . S
C352 C351 1.524 . S
C352 C353 1.415 . S
C353 H323 0.950 . S
C353 C348 1.363 . S
C353 C352 1.415 . S
H354 C351 0.999 . S
H355 C336 0.913 . S
H356 C374 0.951 . S
H357 C376 0.951 . S
H358 C378 0.950 . S
H359 C379 0.950 . S
H360 C381 0.950 . S
H361 C384 0.950 . S
H362 C385 0.950 . S
H363 C387 0.950 . S
H364 C388 0.950 . S
H365 C389 0.951 . S
H366 C391 0.951 . S
H367 C393 0.950 . S
H368 C394 0.950 . S
H369 C396 0.950 . S
H370 C399 0.950 . S
H371 C400 0.950 . S
H372 C402 0.950 . S
H373 C403 0.950 . S
C374 H356 0.951 . S
C374 C375 1.366 . S
C374 C376 1.388 . S
C375 C374 1.366 . S
C375 C379 1.385 . S
C376 H357 0.951 . S
C376 C374 1.388 . S
C376 C377 1.366 . S
C377 C376 1.366 . S
C377 C378 1.414 . S
C377 C380 1.499 . S
C378 H358 0.950 . S
C378 C377 1.414 . S
C378 C379 1.374 . S
C379 H359 0.950 . S
C379 C375 1.385 . S
C379 C378 1.374 . S
C380 C377 1.499 . S
C380 C381 1.373 . S
C380 C382 1.389 . S
C381 H360 0.950 . S
C381 C380 1.373 . S
C381 C397 1.377 . S
C382 C380 1.389 . S
C382 C383 1.524 . S
C382 C396 1.377 . S
C383 C382 1.524 . S
C383 C384 1.397 . S
C383 C388 1.363 . S
C384 H361 0.950 . S
C384 C383 1.397 . S
C384 C385 1.334 . S
C385 H362 0.950 . S
C385 C384 1.334 . S
C385 C386 1.287 . S
C386 C385 1.287 . S
C386 C387 1.524 . S
C386 H405 0.913 . S
C387 H363 0.950 . S
C387 C386 1.524 . S
C387 C388 1.415 . S
C388 H364 0.950 . S
C388 C383 1.363 . S
C388 C387 1.415 . S
C389 H365 0.951 . S
C389 C390 1.366 . S
C389 C391 1.388 . S
C390 C389 1.366 . S
C390 C394 1.385 . S
C391 H366 0.951 . S
C391 C389 1.388 . S
C391 C392 1.366 . S
C392 C391 1.366 . S
C392 C393 1.414 . S
C392 C395 1.499 . S
C393 H367 0.950 . S
C393 C392 1.414 . S
C393 C394 1.374 . S
C394 H368 0.950 . S
C394 C390 1.385 . S
C394 C393 1.374 . S
C395 C392 1.499 . S
C395 C396 1.373 . S
C395 C397 1.389 . S
C396 H369 0.950 . S
C396 C382 1.377 . S
C396 C395 1.373 . S
C397 C381 1.377 . S
C397 C395 1.389 . S
C397 C398 1.524 . S
C398 C397 1.524 . S
C398 C399 1.397 . S
C398 C403 1.363 . S
C399 H370 0.950 . S
C399 C398 1.397 . S
C399 C400 1.334 . S
C400 H371 0.950 . S
C400 C399 1.334 . S
C400 C401 1.287 . S
C401 C400 1.287 . S
C401 C402 1.524 . S
C401 H404 0.999 . S
C402 H372 0.950 . S
C402 C401 1.524 . S
C402 C403 1.415 . S
C403 H373 0.950 . S
C403 C398 1.363 . S
C403 C402 1.415 . S
H404 C401 0.999 . S
H405 C386 0.913 . S
H406 C424 0.951 . S
H407 C426 0.951 . S
H408 C428 0.950 . S
H409 C429 0.950 . S
H410 C431 0.950 . S
H411 C434 0.950 . S
H412 C435 0.950 . S
H413 C437 0.950 . S
H414 C438 0.950 . S
H415 C439 0.951 . S
H416 C441 0.951 . S
H417 C443 0.950 . S
H418 C444 0.950 . S
H419 C446 0.950 . S
H420 C449 0.950 . S
H421 C450 0.950 . S
H422 C452 0.950 . S
H423 C453 0.950 . S
C424 H406 0.951 . S
C424 C425 1.366 . S
C424 C426 1.388 . S
C425 C424 1.366 . S
C425 C429 1.385 . S
C426 H407 0.951 . S
C426 C424 1.388 . S
C426 C427 1.366 . S
C427 C426 1.366 . S
C427 C428 1.414 . S
C427 C430 1.499 . S
C428 H408 0.950 . S
C428 C427 1.414 . S
C428 C429 1.374 . S
C429 H409 0.950 . S
C429 C425 1.385 . S
C429 C428 1.374 . S
C430 C427 1.499 . S
C430 C431 1.373 . S
C430 C432 1.389 . S
C431 H410 0.950 . S
C431 C430 1.373 . S
C431 C447 1.377 . S
C432 C430 1.389 . S
C432 C433 1.524 . S
C432 C446 1.377 . S
C433 C432 1.524 . S
C433 C434 1.397 . S
C433 C438 1.363 . S
C434 H411 0.950 . S
C434 C433 1.397 . S
C434 C435 1.334 . S
C435 H412 0.950 . S
C435 C434 1.334 . S
C435 C436 1.287 . S
C436 C435 1.287 . S
C436 C437 1.524 . S
C436 H455 0.913 . S
C437 H413 0.950 . S
C437 C436 1.524 . S
C437 C438 1.415 . S
C438 H414 0.950 . S
C438 C433 1.363 . S
C438 C437 1.415 . S
C439 H415 0.951 . S
C439 C440 1.366 . S
C439 C441 1.388 . S
C440 C439 1.366 . S
C440 C444 1.385 . S
C441 H416 0.951 . S
C441 C439 1.388 . S
C441 C442 1.366 . S
C442 C441 1.366 . S
C442 C443 1.414 . S
C442 C445 1.499 . S
C443 H417 0.950 . S
C443 C442 1.414 . S
C443 C444 1.374 . S
C444 H418 0.950 . S
C444 C440 1.385 . S
C444 C443 1.374 . S
C445 C442 1.499 . S
C445 C446 1.373 . S
C445 C447 1.389 . S
C446 H419 0.950 . S
C446 C432 1.377 . S
C446 C445 1.373 . S
C447 C431 1.377 . S
C447 C445 1.389 . S
C447 C448 1.524 . S
C448 C447 1.524 . S
C448 C449 1.397 . S
C448 C453 1.363 . S
C449 H420 0.950 . S
C449 C448 1.397 . S
C449 C450 1.334 . S
C450 H421 0.950 . S
C450 C449 1.334 . S
C450 C451 1.287 . S
C451 C450 1.287 . S
C451 C452 1.524 . S
C451 H454 0.999 . S
C452 H422 0.950 . S
C452 C451 1.524 . S
C452 C453 1.415 . S
C453 H423 0.950 . S
C453 C448 1.363 . S
C453 C452 1.415 . S
H454 C451 0.999 . S
H455 C436 0.913 . S
H456 C474 0.951 . S
H457 C476 0.951 . S
H458 C478 0.950 . S
H459 C479 0.950 . S
H460 C481 0.950 . S
H461 C484 0.950 . S
H462 C485 0.950 . S
H463 C487 0.950 . S
H464 C488 0.950 . S
H465 C489 0.951 . S
H466 C491 0.951 . S
H467 C493 0.950 . S
H468 C494 0.950 . S
H469 C496 0.950 . S
H470 C499 0.950 . S
H471 C500 0.950 . S
H472 C502 0.950 . S
H473 C503 0.950 . S
C474 H456 0.951 . S
C474 C475 1.366 . S
C474 C476 1.388 . S
C475 C474 1.366 . S
C475 C479 1.385 . S
C476 H457 0.951 . S
C476 C474 1.388 . S
C476 C477 1.366 . S
C477 C476 1.366 . S
C477 C478 1.414 . S
C477 C480 1.499 . S
C478 H458 0.950 . S
C478 C477 1.414 . S
C478 C479 1.374 . S
C479 H459 0.950 . S
C479 C475 1.385 . S
C479 C478 1.374 . S
C480 C477 1.499 . S
C480 C481 1.373 . S
C480 C482 1.389 . S
C481 H460 0.950 . S
C481 C480 1.373 . S
C481 C497 1.377 . S
C482 C480 1.389 . S
C482 C483 1.524 . S
C482 C496 1.377 . S
C483 C482 1.524 . S
C483 C484 1.397 . S
C483 C488 1.363 . S
C484 H461 0.950 . S
C484 C483 1.397 . S
C484 C485 1.334 . S
C485 H462 0.950 . S
C485 C484 1.334 . S
C485 C486 1.287 . S
C486 C485 1.287 . S
C486 C487 1.524 . S
C486 H505 0.913 . S
C487 H463 0.950 . S
C487 C486 1.524 . S
C487 C488 1.415 . S
C488 H464 0.950 . S
C488 C483 1.363 . S
C488 C487 1.415 . S
C489 H465 0.951 . S
C489 C490 1.366 . S
C489 C491 1.388 . S
C490 C489 1.366 . S
C490 C494 1.385 . S
C491 H466 0.951 . S
C491 C489 1.388 . S
C491 C492 1.366 . S
C492 C491 1.366 . S
C492 C493 1.414 . S
C492 C495 1.499 . S
C493 H467 0.950 . S
C493 C492 1.414 . S
C493 C494 1.374 . S
C494 H468 0.950 . S
C494 C490 1.385 . S
C494 C493 1.374 . S
C495 C492 1.499 . S
C495 C496 1.373 . S
C495 C497 1.389 . S
C496 H469 0.950 . S
C496 C482 1.377 . S
C496 C495 1.373 . S
C497 C481 1.377 . S
C497 C495 1.389 . S
C497 C498 1.524 . S
C498 C497 1.524 . S
C498 C499 1.397 . S
C498 C503 1.363 . S
C499 H470 0.950 . S
C499 C498 1.397 . S
C499 C500 1.334 . S
C500 H471 0.950 . S
C500 C499 1.334 . S
C500 C501 1.287 . S
C501 C500 1.287 . S
C501 C502 1.524 . S
C501 H504 0.999 . S
C502 H472 0.950 . S
C502 C501 1.524 . S
C502 C503 1.415 . S
C503 H473 0.950 . S
C503 C498 1.363 . S
C503 C502 1.415 . S
H504 C501 0.999 . S
H505 C486 0.913 . S
H506 C524 0.951 . S
H507 C526 0.951 . S
H508 C528 0.950 . S
H509 C529 0.950 . S
H510 C531 0.950 . S
H511 C534 0.950 . S
H512 C535 0.950 . S
H513 C537 0.950 . S
H514 C538 0.950 . S
H515 C539 0.951 . S
H516 C541 0.951 . S
H517 C543 0.950 . S
H518 C544 0.950 . S
H519 C546 0.950 . S
H520 C549 0.950 . S
H521 C550 0.950 . S
H522 C552 0.950 . S
H523 C553 0.950 . S
C524 H506 0.951 . S
C524 C525 1.366 . S
C524 C526 1.388 . S
C525 C524 1.366 . S
C525 C529 1.385 . S
C526 H507 0.951 . S
C526 C524 1.388 . S
C526 C527 1.366 . S
C527 C526 1.366 . S
C527 C528 1.414 . S
C527 C530 1.499 . S
C528 H508 0.950 . S
C528 C527 1.414 . S
C528 C529 1.374 . S
C529 H509 0.950 . S
C529 C525 1.385 . S
C529 C528 1.374 . S
C530 C527 1.499 . S
C530 C531 1.373 . S
C530 C532 1.389 . S
C531 H510 0.950 . S
C531 C530 1.373 . S
C531 C547 1.377 . S
C532 C530 1.389 . S
C532 C533 1.524 . S
C532 C546 1.377 . S
C533 C532 1.524 . S
C533 C534 1.397 . S
C533 C538 1.363 . S
C534 H511 0.950 . S
C534 C533 1.397 . S
C534 C535 1.334 . S
C535 H512 0.950 . S
C535 C534 1.334 . S
C535 C536 1.287 . S
C536 C535 1.287 . S
C536 C537 1.524 . S
C536 H555 0.913 . S
C537 H513 0.950 . S
C537 C536 1.524 . S
C537 C538 1.415 . S
C538 H514 0.950 . S
C538 C533 1.363 . S
C538 C537 1.415 . S
C539 H515 0.951 . S
C539 C540 1.366 . S
C539 C541 1.388 . S
C540 C539 1.366 . S
C540 C544 1.385 . S
C541 H516 0.951 . S
C541 C539 1.388 . S
C541 C542 1.366 . S
C542 C541 1.366 . S
C542 C543 1.414 . S
C542 C545 1.499 . S
C543 H517 0.950 . S
C543 C542 1.414 . S
C543 C544 1.374 . S
C544 H518 0.950 . S
C544 C540 1.385 . S
C544 C543 1.374 . S
C545 C542 1.499 . S
C545 C546 1.373 . S
C545 C547 1.389 . S
C546 H519 0.950 . S
C546 C532 1.377 . S
C546 C545 1.373 . S
C547 C531 1.377 . S
C547 C545 1.389 . S
C547 C548 1.524 . S
C548 C547 1.524 . S
C548 C549 1.397 . S
C548 C553 1.363 . S
C549 H520 0.950 . S
C549 C548 1.397 . S
C549 C550 1.334 . S
C550 H521 0.950 . S
C550 C549 1.334 . S
C550 C551 1.287 . S
C551 C550 1.287 . S
C551 C552 1.524 . S
C551 H554 0.999 . S
C552 H522 0.950 . S
C552 C551 1.524 . S
C552 C553 1.415 . S
C553 H523 0.950 . S
C553 C548 1.363 . S
C553 C552 1.415 . S
H554 C551 0.999 . S
H555 C536 0.913 . S
H556 C574 0.951 . S
H557 C576 0.951 . S
H558 C578 0.950 . S
H559 C579 0.950 . S
H560 C581 0.950 . S
H561 C584 0.950 . S
H562 C585 0.950 . S
H563 C587 0.950 . S
H564 C588 0.950 . S
H565 C589 0.951 . S
H566 C591 0.951 . S
H567 C593 0.950 . S
H568 C594 0.950 . S
H569 C596 0.950 . S
H570 C599 0.950 . S
H571 C600 0.950 . S
H572 C602 0.950 . S
H573 C603 0.950 . S
C574 H556 0.951 . S
C574 C575 1.366 . S
C574 C576 1.388 . S
C575 C574 1.366 . S
C575 C579 1.385 . S
C576 H557 0.951 . S
C576 C574 1.388 . S
C576 C577 1.366 . S
C577 C576 1.366 . S
C577 C578 1.414 . S
C577 C580 1.499 . S
C578 H558 0.950 . S
C578 C577 1.414 . S
C578 C579 1.374 . S
C579 H559 0.950 . S
C579 C575 1.385 . S
C579 C578 1.374 . S
C580 C577 1.499 . S
C580 C581 1.373 . S
C580 C582 1.389 . S
C581 H560 0.950 . S
C581 C580 1.373 . S
C581 C597 1.377 . S
C582 C580 1.389 . S
C582 C583 1.524 . S
C582 C596 1.377 . S
C583 C582 1.524 . S
C583 C584 1.397 . S
C583 C588 1.363 . S
C584 H561 0.950 . S
C584 C583 1.397 . S
C584 C585 1.334 . S
C585 H562 0.950 . S
C585 C584 1.334 . S
C585 C586 1.287 . S
C586 C585 1.287 . S
C586 C587 1.524 . S
C586 H605 0.913 . S
C587 H563 0.950 . S
C587 C586 1.524 . S
C587 C588 1.415 . S
C588 H564 0.950 . S
C588 C583 1.363 . S
C588 C587 1.415 . S
C589 H565 0.951 . S
C589 C590 1.366 . S
C589 C591 1.388 . S
C590 C589 1.366 . S
C590 C594 1.385 . S
C591 H566 0.951 . S
C591 C589 1.388 . S
C591 C592 1.366 . S
C592 C591 1.366 . S
C592 C593 1.414 . S
C592 C595 1.499 . S
C593 H567 0.950 . S
C593 C592 1.414 . S
C593 C594 1.374 . S
C594 H568 0.950 . S
C594 C590 1.385 . S
C594 C593 1.374 . S
C595 C592 1.499 . S
C595 C596 1.373 . S
C595 C597 1.389 . S
C596 H569 0.950 . S
C596 C582 1.377 . S
C596 C595 1.373 . S
C597 C581 1.377 . S
C597 C595 1.389 . S
C597 C598 1.524 . S
C598 C597 1.524 . S
C598 C599 1.397 . S
C598 C603 1.363 . S
C599 H570 0.950 . S
C599 C598 1.397 . S
C599 C600 1.334 . S
C600 H571 0.950 . S
C600 C599 1.334 . S
C600 C601 1.287 . S
C601 C600 1.287 . S
C601 C602 1.524 . S
C601 H604 0.999 . S
C602 H572 0.950 . S
C602 C601 1.524 . S
C602 C603 1.415 . S
C603 H573 0.950 . S
C603 C598 1.363 . S
C603 C602 1.415 . S
H604 C601 0.999 . S
H605 C586 0.913 . S
H606 C624 0.951 . S
H607 C626 0.951 . S
H608 C628 0.950 . S
H609 C629 0.950 . S
H610 C631 0.950 . S
H611 C634 0.950 . S
H612 C635 0.950 . S
H613 C637 0.950 . S
H614 C638 0.950 . S
H615 C639 0.951 . S
H616 C641 0.951 . S
H617 C643 0.950 . S
H618 C644 0.950 . S
H619 C646 0.950 . S
H620 C649 0.950 . S
H621 C650 0.950 . S
H622 C652 0.950 . S
H623 C653 0.950 . S
C624 H606 0.951 . S
C624 C625 1.366 . S
C624 C626 1.388 . S
C625 C624 1.366 . S
C625 C629 1.385 . S
C626 H607 0.951 . S
C626 C624 1.388 . S
C626 C627 1.366 . S
C627 C626 1.366 . S
C627 C628 1.414 . S
C627 C630 1.499 . S
C628 H608 0.950 . S
C628 C627 1.414 . S
C628 C629 1.374 . S
C629 H609 0.950 . S
C629 C625 1.385 . S
C629 C628 1.374 . S
C630 C627 1.499 . S
C630 C631 1.373 . S
C630 C632 1.389 . S
C631 H610 0.950 . S
C631 C630 1.373 . S
C631 C647 1.377 . S
C632 C630 1.389 . S
C632 C633 1.524 . S
C632 C646 1.377 . S
C633 C632 1.524 . S
C633 C634 1.397 . S
C633 C638 1.363 . S
C634 H611 0.950 . S
C634 C633 1.397 . S
C634 C635 1.334 . S
C635 H612 0.950 . S
C635 C634 1.334 . S
C635 C636 1.287 . S
C636 C635 1.287 . S
C636 C637 1.524 . S
C636 H655 0.913 . S
C637 H613 0.950 . S
C637 C636 1.524 . S
C637 C638 1.415 . S
C638 H614 0.950 . S
C638 C633 1.363 . S
C638 C637 1.415 . S
C639 H615 0.951 . S
C639 C640 1.366 . S
C639 C641 1.388 . S
C640 C639 1.366 . S
C640 C644 1.385 . S
C641 H616 0.951 . S
C641 C639 1.388 . S
C641 C642 1.366 . S
C642 C641 1.366 . S
C642 C643 1.414 . S
C642 C645 1.499 . S
C643 H617 0.950 . S
C643 C642 1.414 . S
C643 C644 1.374 . S
C644 H618 0.950 . S
C644 C640 1.385 . S
C644 C643 1.374 . S
C645 C642 1.499 . S
C645 C646 1.373 . S
C645 C647 1.389 . S
C646 H619 0.950 . S
C646 C632 1.377 . S
C646 C645 1.373 . S
C647 C631 1.377 . S
C647 C645 1.389 . S
C647 C648 1.524 . S
C648 C647 1.524 . S
C648 C649 1.397 . S
C648 C653 1.363 . S
C649 H620 0.950 . S
C649 C648 1.397 . S
C649 C650 1.334 . S
C650 H621 0.950 . S
C650 C649 1.334 . S
C650 C651 1.287 . S
C651 C650 1.287 . S
C651 C652 1.524 . S
C651 H654 0.999 . S
C652 H622 0.950 . S
C652 C651 1.524 . S
C652 C653 1.415 . S
C653 H623 0.950 . S
C653 C648 1.363 . S
C653 C652 1.415 . S
H654 C651 0.999 . S
H655 C636 0.913 . S
H656 C674 0.951 . S
H657 C676 0.951 . S
H658 C678 0.950 . S
H659 C679 0.950 . S
H660 C681 0.950 . S
H661 C684 0.950 . S
H662 C685 0.950 . S
H663 C687 0.950 . S
H664 C688 0.950 . S
H665 C689 0.951 . S
H666 C691 0.951 . S
H667 C693 0.950 . S
H668 C694 0.950 . S
H669 C696 0.950 . S
H670 C699 0.950 . S
H671 C700 0.950 . S
H672 C702 0.950 . S
H673 C703 0.950 . S
C674 H656 0.951 . S
C674 C675 1.366 . S
C674 C676 1.388 . S
C675 C674 1.366 . S
C675 C679 1.385 . S
C676 H657 0.951 . S
C676 C674 1.388 . S
C676 C677 1.366 . S
C677 C676 1.366 . S
C677 C678 1.414 . S
C677 C680 1.499 . S
C678 H658 0.950 . S
C678 C677 1.414 . S
C678 C679 1.374 . S
C679 H659 0.950 . S
C679 C675 1.385 . S
C679 C678 1.374 . S
C680 C677 1.499 . S
C680 C681 1.373 . S
C680 C682 1.389 . S
C681 H660 0.950 . S
C681 C680 1.373 . S
C681 C697 1.377 . S
C682 C680 1.389 . S
C682 C683 1.524 . S
C682 C696 1.377 . S
C683 C682 1.524 . S
C683 C684 1.397 . S
C683 C688 1.363 . S
C684 H661 0.950 . S
C684 C683 1.397 . S
C684 C685 1.334 . S
C685 H662 0.950 . S
C685 C684 1.334 . S
C685 C686 1.287 . S
C686 C685 1.287 . S
C686 C687 1.524 . S
C686 H705 0.913 . S
C687 H663 0.950 . S
C687 C686 1.524 . S
C687 C688 1.415 . S
C688 H664 0.950 . S
C688 C683 1.363 . S
C688 C687 1.415 . S
C689 H665 0.951 . S
C689 C690 1.366 . S
C689 C691 1.388 . S
C690 C689 1.366 . S
C690 C694 1.385 . S
C691 H666 0.951 . S
C691 C689 1.388 . S
C691 C692 1.366 . S
C692 C691 1.366 . S
C692 C693 1.414 . S
C692 C695 1.499 . S
C693 H667 0.950 . S
C693 C692 1.414 . S
C693 C694 1.374 . S
C694 H668 0.950 . S
C694 C690 1.385 . S
C694 C693 1.374 . S
C695 C692 1.499 . S
C695 C696 1.373 . S
C695 C697 1.389 . S
C696 H669 0.950 . S
C696 C682 1.377 . S
C696 C695 1.373 . S
C697 C681 1.377 . S
C697 C695 1.389 . S
C697 C698 1.524 . S
C698 C697 1.524 . S
C698 C699 1.397 . S
C698 C703 1.363 . S
C699 H670 0.950 . S
C699 C698 1.397 . S
C699 C700 1.334 . S
C700 H671 0.950 . S
C700 C699 1.334 . S
C700 C701 1.287 . S
C701 C700 1.287 . S
C701 C702 1.524 . S
C701 H704 0.999 . S
C702 H672 0.950 . S
C702 C701 1.524 . S
C702 C703 1.415 . S
C703 H673 0.950 . S
C703 C698 1.363 . S
C703 C702 1.415 . S
H704 C701 0.999 . S
H705 C686 0.913 . S
H706 C724 0.951 . S
H707 C726 0.951 . S
H708 C728 0.950 . S
H709 C729 0.950 . S
H710 C731 0.950 . S
H711 C734 0.950 . S
H712 C735 0.950 . S
H713 C737 0.950 . S
H714 C738 0.950 . S
H715 C739 0.951 . S
H716 C741 0.951 . S
H717 C743 0.950 . S
H718 C744 0.950 . S
H719 C746 0.950 . S
H720 C749 0.950 . S
H721 C750 0.950 . S
H722 C752 0.950 . S
H723 C753 0.950 . S
C724 H706 0.951 . S
C724 C725 1.366 . S
C724 C726 1.388 . S
C725 C724 1.366 . S
C725 C729 1.385 . S
C726 H707 0.951 . S
C726 C724 1.388 . S
C726 C727 1.366 . S
C727 C726 1.366 . S
C727 C728 1.414 . S
C727 C730 1.499 . S
C728 H708 0.950 . S
C728 C727 1.414 . S
C728 C729 1.374 . S
C729 H709 0.950 . S
C729 C725 1.385 . S
C729 C728 1.374 . S
C730 C727 1.499 . S
C730 C731 1.373 . S
C730 C732 1.389 . S
C731 H710 0.950 . S
C731 C730 1.373 . S
C731 C747 1.377 . S
C732 C730 1.389 . S
C732 C733 1.524 . S
C732 C746 1.377 . S
C733 C732 1.524 . S
C733 C734 1.397 . S
C733 C738 1.363 . S
C734 H711 0.950 . S
C734 C733 1.397 . S
C734 C735 1.334 . S
C735 H712 0.950 . S
C735 C734 1.334 . S
C735 C736 1.287 . S
C736 C735 1.287 . S
C736 C737 1.524 . S
C736 H755 0.913 . S
C737 H713 0.950 . S
C737 C736 1.524 . S
C737 C738 1.415 . S
C738 H714 0.950 . S
C738 C733 1.363 . S
C738 C737 1.415 . S
C739 H715 0.951 . S
C739 C740 1.366 . S
C739 C741 1.388 . S
C740 C739 1.366 . S
C740 C744 1.385 . S
C741 H716 0.951 . S
C741 C739 1.388 . S
C741 C742 1.366 . S
C742 C741 1.366 . S
C742 C743 1.414 . S
C742 C745 1.499 . S
C743 H717 0.950 . S
C743 C742 1.414 . S
C743 C744 1.374 . S
C744 H718 0.950 . S
C744 C740 1.385 . S
C744 C743 1.374 . S
C745 C742 1.499 . S
C745 C746 1.373 . S
C745 C747 1.389 . S
C746 H719 0.950 . S
C746 C732 1.377 . S
C746 C745 1.373 . S
C747 C731 1.377 . S
C747 C745 1.389 . S
C747 C748 1.524 . S
C748 C747 1.524 . S
C748 C749 1.397 . S
C748 C753 1.363 . S
C749 H720 0.950 . S
C749 C748 1.397 . S
C749 C750 1.334 . S
C750 H721 0.950 . S
C750 C749 1.334 . S
C750 C751 1.287 . S
C751 C750 1.287 . S
C751 C752 1.524 . S
C751 H754 0.999 . S
C752 H722 0.950 . S
C752 C751 1.524 . S
C752 C753 1.415 . S
C753 H723 0.950 . S
C753 C748 1.363 . S
C753 C752 1.415 . S
H754 C751 0.999 . S
H755 C736 0.913 . S
H756 C774 0.951 . S
H757 C776 0.951 . S
H758 C778 0.950 . S
H759 C779 0.950 . S
H760 C781 0.950 . S
H761 C784 0.950 . S
H762 C785 0.950 . S
H763 C787 0.950 . S
H764 C788 0.950 . S
H765 C789 0.951 . S
H766 C791 0.951 . S
H767 C793 0.950 . S
H768 C794 0.950 . S
H769 C796 0.950 . S
H770 C799 0.950 . S
H771 C800 0.950 . S
H772 C802 0.950 . S
H773 C803 0.950 . S
C774 H756 0.951 . S
C774 C775 1.366 . S
C774 C776 1.388 . S
C775 C774 1.366 . S
C775 C779 1.385 . S
C776 H757 0.951 . S
C776 C774 1.388 . S
C776 C777 1.366 . S
C777 C776 1.366 . S
C777 C778 1.414 . S
C777 C780 1.499 . S
C778 H758 0.950 . S
C778 C777 1.414 . S
C778 C779 1.374 . S
C779 H759 0.950 . S
C779 C775 1.385 . S
C779 C778 1.374 . S
C780 C777 1.499 . S
C780 C781 1.373 . S
C780 C782 1.389 . S
C781 H760 0.950 . S
C781 C780 1.373 . S
C781 C797 1.377 1_655 S
C782 C780 1.389 . S
C782 C783 1.524 . S
C782 C796 1.377 1_655 S
C783 C782 1.524 . S
C783 C784 1.397 . S
C783 C788 1.363 . S
C784 H761 0.950 . S
C784 C783 1.397 . S
C784 C785 1.334 . S
C785 H762 0.950 . S
C785 C784 1.334 . S
C785 C786 1.287 . S
C786 C785 1.287 . S
C786 C787 1.524 . S
C786 H805 0.913 . S
C787 H763 0.950 . S
C787 C786 1.524 . S
C787 C788 1.415 . S
C788 H764 0.950 . S
C788 C783 1.363 . S
C788 C787 1.415 . S
C789 H765 0.951 . S
C789 C790 1.366 . S
C789 C791 1.388 . S
C790 C789 1.366 . S
C790 C794 1.385 . S
C791 H766 0.951 . S
C791 C789 1.388 . S
C791 C792 1.366 . S
C792 C791 1.366 . S
C792 C793 1.414 . S
C792 C795 1.499 . S
C793 H767 0.950 . S
C793 C792 1.414 . S
C793 C794 1.374 . S
C794 H768 0.950 . S
C794 C790 1.385 . S
C794 C793 1.374 . S
C795 C792 1.499 . S
C795 C796 1.373 . S
C795 C797 1.389 . S
C796 H769 0.950 . S
C796 C782 1.377 1_455 S
C796 C795 1.373 . S
C797 C781 1.377 1_455 S
C797 C795 1.389 . S
C797 C798 1.524 . S
C798 C797 1.524 . S
C798 C799 1.397 . S
C798 C803 1.363 . S
C799 H770 0.950 . S
C799 C798 1.397 . S
C799 C800 1.334 . S
C800 H771 0.950 . S
C800 C799 1.334 . S
C800 C801 1.287 . S
C801 C800 1.287 . S
C801 C802 1.524 . S
C801 H804 0.999 . S
C802 H772 0.950 . S
C802 C801 1.524 . S
C802 C803 1.415 . S
C803 H773 0.950 . S
C803 C798 1.363 . S
C803 C802 1.415 . S
H804 C801 0.999 . S
H805 C786 0.913 . S
H806 C824 0.951 . S
H807 C826 0.951 . S
H808 C828 0.950 . S
H809 C829 0.950 . S
H810 C831 0.950 . S
H811 C834 0.950 . S
H812 C835 0.950 . S
H813 C837 0.950 . S
H814 C838 0.950 . S
H815 C839 0.951 . S
H816 C841 0.951 . S
H817 C843 0.950 . S
H818 C844 0.950 . S
H819 C846 0.950 . S
H820 C849 0.950 . S
H821 C850 0.950 . S
H822 C852 0.950 . S
H823 C853 0.950 . S
C824 H806 0.951 . S
C824 C825 1.366 . S
C824 C826 1.388 . S
C825 C824 1.366 . S
C825 C829 1.385 . S
C826 H807 0.951 . S
C826 C824 1.388 . S
C826 C827 1.366 . S
C827 C826 1.366 . S
C827 C828 1.414 . S
C827 C830 1.499 . S
C828 H808 0.950 . S
C828 C827 1.414 . S
C828 C829 1.374 . S
C829 H809 0.950 . S
C829 C825 1.385 . S
C829 C828 1.374 . S
C830 C827 1.499 . S
C830 C831 1.373 . S
C830 C832 1.389 . S
C831 H810 0.950 . S
C831 C830 1.373 . S
C831 C847 1.377 1_545 S
C832 C830 1.389 . S
C832 C833 1.524 . S
C832 C846 1.377 1_545 S
C833 C832 1.524 . S
C833 C834 1.397 . S
C833 C838 1.363 . S
C834 H811 0.950 . S
C834 C833 1.397 . S
C834 C835 1.334 . S
C835 H812 0.950 . S
C835 C834 1.334 . S
C835 C836 1.287 . S
C836 C835 1.287 . S
C836 C837 1.524 . S
C836 H855 0.913 . S
C837 H813 0.950 . S
C837 C836 1.524 . S
C837 C838 1.415 . S
C838 H814 0.950 . S
C838 C833 1.363 . S
C838 C837 1.415 . S
C839 H815 0.951 . S
C839 C840 1.366 . S
C839 C841 1.388 . S
C840 C839 1.366 . S
C840 C844 1.385 . S
C841 H816 0.951 . S
C841 C839 1.388 . S
C841 C842 1.366 . S
C842 C841 1.366 . S
C842 C843 1.414 . S
C842 C845 1.499 . S
C843 H817 0.950 . S
C843 C842 1.414 . S
C843 C844 1.374 . S
C844 H818 0.950 . S
C844 C840 1.385 . S
C844 C843 1.374 . S
C845 C842 1.499 . S
C845 C846 1.373 . S
C845 C847 1.389 . S
C846 H819 0.950 . S
C846 C832 1.377 1_565 S
C846 C845 1.373 . S
C847 C831 1.377 1_565 S
C847 C845 1.389 . S
C847 C848 1.524 . S
C848 C847 1.524 . S
C848 C849 1.397 . S
C848 C853 1.363 . S
C849 H820 0.950 . S
C849 C848 1.397 . S
C849 C850 1.334 . S
C850 H821 0.950 . S
C850 C849 1.334 . S
C850 C851 1.287 . S
C851 C850 1.287 . S
C851 C852 1.524 . S
C851 H854 0.999 . S
C852 H822 0.950 . S
C852 C851 1.524 . S
C852 C853 1.415 . S
C853 H823 0.950 . S
C853 C848 1.363 . S
C853 C852 1.415 . S
H854 C851 0.999 . S
H855 C836 0.913 . S
H856 C874 0.951 . S
H857 C876 0.951 . S
H858 C878 0.950 . S
H859 C879 0.950 . S
H860 C881 0.950 . S
H861 C884 0.950 . S
H862 C885 0.950 . S
H863 C887 0.950 . S
H864 C888 0.950 . S
H865 C889 0.951 . S
H866 C891 0.951 . S
H867 C893 0.950 . S
H868 C894 0.950 . S
H869 C896 0.950 . S
H870 C899 0.950 . S
H871 C900 0.950 . S
H872 C902 0.950 . S
H873 C903 0.950 . S
C874 H856 0.951 . S
C874 C875 1.366 . S
C874 C876 1.388 . S
C875 C874 1.366 . S
C875 C879 1.385 . S
C876 H857 0.951 . S
C876 C874 1.388 . S
C876 C877 1.366 . S
C877 C876 1.366 . S
C877 C878 1.414 . S
C877 C880 1.499 . S
C878 H858 0.950 . S
C878 C877 1.414 . S
C878 C879 1.374 . S
C879 H859 0.950 . S
C879 C875 1.385 . S
C879 C878 1.374 . S
C880 C877 1.499 . S
C880 C881 1.373 . S
C880 C882 1.389 . S
C881 H860 0.950 . S
C881 C880 1.373 . S
C881 C897 1.377 . S
C882 C880 1.389 . S
C882 C883 1.524 . S
C882 C896 1.377 . S
C883 C882 1.524 . S
C883 C884 1.397 . S
C883 C888 1.363 . S
C884 H861 0.950 . S
C884 C883 1.397 . S
C884 C885 1.334 . S
C885 H862 0.950 . S
C885 C884 1.334 . S
C885 C886 1.287 . S
C886 C885 1.287 . S
C886 C887 1.524 . S
C886 H905 0.913 . S
C887 H863 0.950 . S
C887 C886 1.524 . S
C887 C888 1.415 . S
C888 H864 0.950 . S
C888 C883 1.363 . S
C888 C887 1.415 . S
C889 H865 0.951 . S
C889 C890 1.366 . S
C889 C891 1.388 . S
C890 C889 1.366 . S
C890 C894 1.385 . S
C891 H866 0.951 . S
C891 C889 1.388 . S
C891 C892 1.366 . S
C892 C891 1.366 . S
C892 C893 1.414 . S
C892 C895 1.499 . S
C893 H867 0.950 . S
C893 C892 1.414 . S
C893 C894 1.374 . S
C894 H868 0.950 . S
C894 C890 1.385 . S
C894 C893 1.374 . S
C895 C892 1.499 . S
C895 C896 1.373 . S
C895 C897 1.389 . S
C896 H869 0.950 . S
C896 C882 1.377 . S
C896 C895 1.373 . S
C897 C881 1.377 . S
C897 C895 1.389 . S
C897 C898 1.524 . S
C898 C897 1.524 . S
C898 C899 1.397 . S
C898 C903 1.363 . S
C899 H870 0.950 . S
C899 C898 1.397 . S
C899 C900 1.334 . S
C900 H871 0.950 . S
C900 C899 1.334 . S
C900 C901 1.287 . S
C901 C900 1.287 . S
C901 C902 1.524 . S
C901 H904 0.999 . S
C902 H872 0.950 . S
C902 C901 1.524 . S
C902 C903 1.415 . S
C903 H873 0.950 . S
C903 C898 1.363 . S
C903 C902 1.415 . S
H904 C901 0.999 . S
H905 C886 0.913 . S
H906 C924 0.951 . S
H907 C926 0.951 . S
H908 C928 0.950 . S
H909 C929 0.950 . S
H910 C931 0.950 . S
H911 C934 0.950 . S
H912 C935 0.950 . S
H913 C937 0.950 . S
H914 C938 0.950 . S
H915 C939 0.951 . S
H916 C941 0.951 . S
H917 C943 0.950 . S
H918 C944 0.950 . S
H919 C946 0.950 . S
H920 C949 0.950 . S
H921 C950 0.950 . S
H922 C952 0.950 . S
H923 C953 0.950 . S
C924 H906 0.951 . S
C924 C925 1.366 . S
C924 C926 1.388 . S
C925 C924 1.366 . S
C925 C929 1.385 . S
C926 H907 0.951 . S
C926 C924 1.388 . S
C926 C927 1.366 . S
C927 C926 1.366 . S
C927 C928 1.414 . S
C927 C930 1.499 . S
C928 H908 0.950 . S
C928 C927 1.414 . S
C928 C929 1.374 . S
C929 H909 0.950 . S
C929 C925 1.385 . S
C929 C928 1.374 . S
C930 C927 1.499 . S
C930 C931 1.373 . S
C930 C932 1.389 . S
C931 H910 0.950 . S
C931 C930 1.373 . S
C931 C947 1.377 1_545 S
C932 C930 1.389 . S
C932 C933 1.524 . S
C932 C946 1.377 1_545 S
C933 C932 1.524 . S
C933 C934 1.397 . S
C933 C938 1.363 . S
C934 H911 0.950 . S
C934 C933 1.397 . S
C934 C935 1.334 . S
C935 H912 0.950 . S
C935 C934 1.334 . S
C935 C936 1.287 . S
C936 C935 1.287 . S
C936 C937 1.524 . S
C936 H955 0.913 . S
C937 H913 0.950 . S
C937 C936 1.524 . S
C937 C938 1.415 . S
C938 H914 0.950 . S
C938 C933 1.363 . S
C938 C937 1.415 . S
C939 H915 0.951 . S
C939 C940 1.366 . S
C939 C941 1.388 . S
C940 C939 1.366 . S
C940 C944 1.385 . S
C941 H916 0.951 . S
C941 C939 1.388 . S
C941 C942 1.366 . S
C942 C941 1.366 . S
C942 C943 1.414 . S
C942 C945 1.499 . S
C943 H917 0.950 . S
C943 C942 1.414 . S
C943 C944 1.374 . S
C944 H918 0.950 . S
C944 C940 1.385 . S
C944 C943 1.374 . S
C945 C942 1.499 . S
C945 C946 1.373 . S
C945 C947 1.389 . S
C946 H919 0.950 . S
C946 C932 1.377 1_565 S
C946 C945 1.373 . S
C947 C931 1.377 1_565 S
C947 C945 1.389 . S
C947 C948 1.524 . S
C948 C947 1.524 . S
C948 C949 1.397 . S
C948 C953 1.363 . S
C949 H920 0.950 . S
C949 C948 1.397 . S
C949 C950 1.334 . S
C950 H921 0.950 . S
C950 C949 1.334 . S
C950 C951 1.287 . S
C951 C950 1.287 . S
C951 C952 1.524 . S
C951 H954 0.999 . S
C952 H922 0.950 . S
C952 C951 1.524 . S
C952 C953 1.415 . S
C953 H923 0.950 . S
C953 C948 1.363 . S
C953 C952 1.415 . S
H954 C951 0.999 . S
H955 C936 0.913 . S
H956 C974 0.951 . S
H957 C976 0.951 . S
H958 C978 0.950 . S
H959 C979 0.950 . S
H960 C981 0.950 . S
H961 C984 0.950 . S
H962 C985 0.950 . S
H963 C987 0.950 . S
H964 C988 0.950 . S
H965 C989 0.951 . S
H966 C991 0.951 . S
H967 C993 0.950 . S
H968 C994 0.950 . S
H969 C996 0.950 . S
H970 C999 0.950 . S
H971 C1000 0.950 . S
H972 C1002 0.950 . S
H973 C1003 0.950 . S
C974 H956 0.951 . S
C974 C975 1.366 . S
C974 C976 1.388 . S
C975 C974 1.366 . S
C975 C979 1.385 . S
C976 H957 0.951 . S
C976 C974 1.388 . S
C976 C977 1.366 . S
C977 C976 1.366 . S
C977 C978 1.414 . S
C977 C980 1.499 . S
C978 H958 0.950 . S
C978 C977 1.414 . S
C978 C979 1.374 . S
C979 H959 0.950 . S
C979 C975 1.385 . S
C979 C978 1.374 . S
C980 C977 1.499 . S
C980 C981 1.373 . S
C980 C982 1.389 . S
C981 H960 0.950 . S
C981 C980 1.373 . S
C981 C997 1.377 . S
C982 C980 1.389 . S
C982 C983 1.524 . S
C982 C996 1.377 . S
C983 C982 1.524 . S
C983 C984 1.397 . S
C983 C988 1.363 . S
C984 H961 0.950 . S
C984 C983 1.397 . S
C984 C985 1.334 . S
C985 H962 0.950 . S
C985 C984 1.334 . S
C985 C986 1.287 . S
C986 C985 1.287 . S
C986 C987 1.524 . S
C986 H1005 0.913 . S
C987 H963 0.950 . S
C987 C986 1.524 . S
C987 C988 1.415 . S
C988 H964 0.950 . S
C988 C983 1.363 . S
C988 C987 1.415 . S
C989 H965 0.951 . S
C989 C990 1.366 . S
C989 C991 1.388 . S
C990 C989 1.366 . S
C990 C994 1.385 . S
C991 H966 0.951 . S
C991 C989 1.388 . S
C991 C992 1.366 . S
C992 C991 1.366 . S
C992 C993 1.414 . S
C992 C995 1.499 . S
C993 H967 0.950 . S
C993 C992 1.414 . S
C993 C994 1.374 . S
C994 H968 0.950 . S
C994 C990 1.385 . S
C994 C993 1.374 . S
C995 C992 1.499 . S
C995 C996 1.373 . S
C995 C997 1.389 . S
C996 H969 0.950 . S
C996 C982 1.377 . S
C996 C995 1.373 . S
C997 C981 1.377 . S
C997 C995 1.389 . S
C997 C998 1.524 . S
C998 C997 1.524 . S
C998 C999 1.397 . S
C998 C1003 1.363 . S
C999 H970 0.950 . S
C999 C998 1.397 . S
C999 C1000 1.334 . S
C1000 H971 0.950 . S
C1000 C999 1.334 . S
C1000 C1001 1.287 . S
C1001 C1000 1.287 . S
C1001 C1002 1.524 . S
C1001 H1004 0.999 . S
C1002 H972 0.950 . S
C1002 C1001 1.524 . S
C1002 C1003 1.415 . S
C1003 H973 0.950 . S
C1003 C998 1.363 . S
C1003 C1002 1.415 . S
H1004 C1001 0.999 . S
H1005 C986 0.913 . S
H1006 C1024 0.951 . S
H1007 C1026 0.951 . S
H1008 C1028 0.950 . S
H1009 C1029 0.950 . S
H1010 C1031 0.950 . S
H1011 C1034 0.950 . S
H1012 C1035 0.950 . S
H1013 C1037 0.950 . S
H1014 C1038 0.950 . S
H1015 C1039 0.951 . S
H1016 C1041 0.951 . S
H1017 C1043 0.950 . S
H1018 C1044 0.950 . S
H1019 C1046 0.950 . S
H1020 C1049 0.950 . S
H1021 C1050 0.950 . S
H1022 C1052 0.950 . S
H1023 C1053 0.950 . S
C1024 H1006 0.951 . S
C1024 C1025 1.366 . S
C1024 C1026 1.388 . S
C1025 C1024 1.366 . S
C1025 C1029 1.385 . S
C1026 H1007 0.951 . S
C1026 C1024 1.388 . S
C1026 C1027 1.366 . S
C1027 C1026 1.366 . S
C1027 C1028 1.414 . S
C1027 C1030 1.499 . S
C1028 H1008 0.950 . S
C1028 C1027 1.414 . S
C1028 C1029 1.374 . S
C1029 H1009 0.950 . S
C1029 C1025 1.385 . S
C1029 C1028 1.374 . S
C1030 C1027 1.499 . S
C1030 C1031 1.373 . S
C1030 C1032 1.389 . S
C1031 H1010 0.950 . S
C1031 C1030 1.373 . S
C1031 C1047 1.377 1_455 S
C1032 C1030 1.389 . S
C1032 C1033 1.524 . S
C1032 C1046 1.377 1_455 S
C1033 C1032 1.524 . S
C1033 C1034 1.397 . S
C1033 C1038 1.363 . S
C1034 H1011 0.950 . S
C1034 C1033 1.397 . S
C1034 C1035 1.334 . S
C1035 H1012 0.950 . S
C1035 C1034 1.334 . S
C1035 C1036 1.287 . S
C1036 C1035 1.287 . S
C1036 C1037 1.524 . S
C1036 H1055 0.913 . S
C1037 H1013 0.950 . S
C1037 C1036 1.524 . S
C1037 C1038 1.415 . S
C1038 H1014 0.950 . S
C1038 C1033 1.363 . S
C1038 C1037 1.415 . S
C1039 H1015 0.951 . S
C1039 C1040 1.366 . S
C1039 C1041 1.388 . S
C1040 C1039 1.366 . S
C1040 C1044 1.385 . S
C1041 H1016 0.951 . S
C1041 C1039 1.388 . S
C1041 C1042 1.366 . S
C1042 C1041 1.366 . S
C1042 C1043 1.414 . S
C1042 C1045 1.499 . S
C1043 H1017 0.950 . S
C1043 C1042 1.414 . S
C1043 C1044 1.374 . S
C1044 H1018 0.950 . S
C1044 C1040 1.385 . S
C1044 C1043 1.374 . S
C1045 C1042 1.499 . S
C1045 C1046 1.373 . S
C1045 C1047 1.389 . S
C1046 H1019 0.950 . S
C1046 C1032 1.377 1_655 S
C1046 C1045 1.373 . S
C1047 C1031 1.377 1_655 S
C1047 C1045 1.389 . S
C1047 C1048 1.524 . S
C1048 C1047 1.524 . S
C1048 C1049 1.397 . S
C1048 C1053 1.363 . S
C1049 H1020 0.950 . S
C1049 C1048 1.397 . S
C1049 C1050 1.334 . S
C1050 H1021 0.950 . S
C1050 C1049 1.334 . S
C1050 C1051 1.287 . S
C1051 C1050 1.287 . S
C1051 C1052 1.524 . S
C1051 H1054 0.999 . S
C1052 H1022 0.950 . S
C1052 C1051 1.524 . S
C1052 C1053 1.415 . S
C1053 H1023 0.950 . S
C1053 C1048 1.363 . S
C1053 C1052 1.415 . S
H1054 C1051 0.999 . S
H1055 C1036 0.913 . S
H1056 C1074 0.951 . S
H1057 C1076 0.951 . S
H1058 C1078 0.950 . S
H1059 C1079 0.950 . S
H1060 C1081 0.950 . S
H1061 C1084 0.950 . S
H1062 C1085 0.950 . S
H1063 C1087 0.950 . S
H1064 C1088 0.950 . S
H1065 C1089 0.951 . S
H1066 C1091 0.951 . S
H1067 C1093 0.950 . S
H1068 C1094 0.950 . S
H1069 C1096 0.950 . S
H1070 C1099 0.950 . S
H1071 C1100 0.950 . S
H1072 C1102 0.950 . S
H1073 C1103 0.950 . S
C1074 H1056 0.951 . S
C1074 C1075 1.366 . S
C1074 C1076 1.388 . S
C1075 C1074 1.366 . S
C1075 C1079 1.385 . S
C1076 H1057 0.951 . S
C1076 C1074 1.388 . S
C1076 C1077 1.366 . S
C1077 C1076 1.366 . S
C1077 C1078 1.414 . S
C1077 C1080 1.499 . S
C1078 H1058 0.950 . S
C1078 C1077 1.414 . S
C1078 C1079 1.374 . S
C1079 H1059 0.950 . S
C1079 C1075 1.385 . S
C1079 C1078 1.374 . S
C1080 C1077 1.499 . S
C1080 C1081 1.373 . S
C1080 C1082 1.389 . S
C1081 H1060 0.950 . S
C1081 C1080 1.373 . S
C1081 C1097 1.377 . S
C1082 C1080 1.389 . S
C1082 C1083 1.524 . S
C1082 C1096 1.377 . S
C1083 C1082 1.524 . S
C1083 C1084 1.397 . S
C1083 C1088 1.363 . S
C1084 H1061 0.950 . S
C1084 C1083 1.397 . S
C1084 C1085 1.334 . S
C1085 H1062 0.950 . S
C1085 C1084 1.334 . S
C1085 C1086 1.287 . S
C1086 C1085 1.287 . S
C1086 C1087 1.524 . S
C1086 H1105 0.913 . S
C1087 H1063 0.950 . S
C1087 C1086 1.524 . S
C1087 C1088 1.415 . S
C1088 H1064 0.950 . S
C1088 C1083 1.363 . S
C1088 C1087 1.415 . S
C1089 H1065 0.951 . S
C1089 C1090 1.366 . S
C1089 C1091 1.388 . S
C1090 C1089 1.366 . S
C1090 C1094 1.385 . S
C1091 H1066 0.951 . S
C1091 C1089 1.388 . S
C1091 C1092 1.366 . S
C1092 C1091 1.366 . S
C1092 C1093 1.414 . S
C1092 C1095 1.499 . S
C1093 H1067 0.950 . S
C1093 C1092 1.414 . S
C1093 C1094 1.374 . S
C1094 H1068 0.950 . S
C1094 C1090 1.385 . S
C1094 C1093 1.374 . S
C1095 C1092 1.499 . S
C1095 C1096 1.373 . S
C1095 C1097 1.389 . S
C1096 H1069 0.950 . S
C1096 C1082 1.377 . S
C1096 C1095 1.373 . S
C1097 C1081 1.377 . S
C1097 C1095 1.389 . S
C1097 C1098 1.524 . S
C1098 C1097 1.524 . S
C1098 C1099 1.397 . S
C1098 C1103 1.363 . S
C1099 H1070 0.950 . S
C1099 C1098 1.397 . S
C1099 C1100 1.334 . S
C1100 H1071 0.950 . S
C1100 C1099 1.334 . S
C1100 C1101 1.287 . S
C1101 C1100 1.287 . S
C1101 C1102 1.524 . S
C1101 H1104 0.999 . S
C1102 H1072 0.950 . S
C1102 C1101 1.524 . S
C1102 C1103 1.415 . S
C1103 H1073 0.950 . S
C1103 C1098 1.363 . S
C1103 C1102 1.415 . S
H1104 C1101 0.999 . S
H1105 C1086 0.913 . S
H1106 C1124 0.951 . S
H1107 C1126 0.951 . S
H1108 C1128 0.950 . S
H1109 C1129 0.950 . S
H1110 C1131 0.950 . S
H1111 C1134 0.950 . S
H1112 C1135 0.950 . S
H1113 C1137 0.950 . S
H1114 C1138 0.950 1_455 S
H1115 C1139 0.951 . S
H1116 C1141 0.951 . S
H1117 C1143 0.950 . S
H1118 C1144 0.950 . S
H1119 C1146 0.950 . S
H1120 C1149 0.950 . S
H1121 C1150 0.950 . S
H1122 C1152 0.950 . S
H1123 C1153 0.950 1_655 S
C1124 H1106 0.951 . S
C1124 C1125 1.366 . S
C1124 C1126 1.388 . S
C1125 C1124 1.366 . S
C1125 C1129 1.385 . S
C1126 H1107 0.951 . S
C1126 C1124 1.388 . S
C1126 C1127 1.366 . S
C1127 C1126 1.366 . S
C1127 C1128 1.414 . S
C1127 C1130 1.499 . S
C1128 H1108 0.950 . S
C1128 C1127 1.414 . S
C1128 C1129 1.374 . S
C1129 H1109 0.950 . S
C1129 C1125 1.385 . S
C1129 C1128 1.374 . S
C1130 C1127 1.499 . S
C1130 C1131 1.373 . S
C1130 C1132 1.389 . S
C1131 H1110 0.950 . S
C1131 C1130 1.373 . S
C1131 C1147 1.377 1_655 S
C1132 C1130 1.389 . S
C1132 C1133 1.524 . S
C1132 C1146 1.377 1_655 S
C1133 C1132 1.524 . S
C1133 C1134 1.397 . S
C1133 C1138 1.363 . S
C1134 H1111 0.950 . S
C1134 C1133 1.397 . S
C1134 C1135 1.334 . S
C1135 H1112 0.950 . S
C1135 C1134 1.334 . S
C1135 C1136 1.287 . S
C1136 C1135 1.287 . S
C1136 C1137 1.524 . S
C1136 H1155 0.913 . S
C1137 H1113 0.950 . S
C1137 C1136 1.524 . S
C1137 C1138 1.415 . S
C1138 H1114 0.950 1_655 S
C1138 C1133 1.363 . S
C1138 C1137 1.415 . S
C1139 H1115 0.951 . S
C1139 C1140 1.366 . S
C1139 C1141 1.388 . S
C1140 C1139 1.366 . S
C1140 C1144 1.385 . S
C1141 H1116 0.951 . S
C1141 C1139 1.388 . S
C1141 C1142 1.366 . S
C1142 C1141 1.366 . S
C1142 C1143 1.414 . S
C1142 C1145 1.499 . S
C1143 H1117 0.950 . S
C1143 C1142 1.414 . S
C1143 C1144 1.374 . S
C1144 H1118 0.950 . S
C1144 C1140 1.385 . S
C1144 C1143 1.374 . S
C1145 C1142 1.499 . S
C1145 C1146 1.373 . S
C1145 C1147 1.389 . S
C1146 H1119 0.950 . S
C1146 C1132 1.377 1_455 S
C1146 C1145 1.373 . S
C1147 C1131 1.377 1_455 S
C1147 C1145 1.389 . S
C1147 C1148 1.524 . S
C1148 C1147 1.524 . S
C1148 C1149 1.397 . S
C1148 C1153 1.363 . S
C1149 H1120 0.950 . S
C1149 C1148 1.397 . S
C1149 C1150 1.334 . S
C1150 H1121 0.950 . S
C1150 C1149 1.334 . S
C1150 C1151 1.287 . S
C1151 C1150 1.287 . S
C1151 C1152 1.524 . S
C1151 H1154 0.999 . S
C1152 H1122 0.950 . S
C1152 C1151 1.524 . S
C1152 C1153 1.415 . S
C1153 H1123 0.950 1_455 S
C1153 C1148 1.363 . S
C1153 C1152 1.415 . S
H1154 C1151 0.999 . S
H1155 C1136 0.913 . S
H1156 C1174 0.951 . S
H1157 C1176 0.951 . S
H1158 C1178 0.950 . S
H1159 C1179 0.950 . S
H1160 C1181 0.950 . S
H1161 C1184 0.950 . S
H1162 C1185 0.950 . S
H1163 C1187 0.950 . S
H1164 C1188 0.950 1_565 S
H1165 C1189 0.951 . S
H1166 C1191 0.951 . S
H1167 C1193 0.950 . S
H1168 C1194 0.950 . S
H1169 C1196 0.950 . S
H1170 C1199 0.950 . S
H1171 C1200 0.950 . S
H1172 C1202 0.950 . S
H1173 C1203 0.950 1_545 S
C1174 H1156 0.951 . S
C1174 C1175 1.366 . S
C1174 C1176 1.388 . S
C1175 C1174 1.366 . S
C1175 C1179 1.385 . S
C1176 H1157 0.951 . S
C1176 C1174 1.388 . S
C1176 C1177 1.366 . S
C1177 C1176 1.366 . S
C1177 C1178 1.414 . S
C1177 C1180 1.499 . S
C1178 H1158 0.950 . S
C1178 C1177 1.414 . S
C1178 C1179 1.374 . S
C1179 H1159 0.950 . S
C1179 C1175 1.385 . S
C1179 C1178 1.374 . S
C1180 C1177 1.499 . S
C1180 C1181 1.373 . S
C1180 C1182 1.389 . S
C1181 H1160 0.950 . S
C1181 C1180 1.373 . S
C1181 C1197 1.377 1_545 S
C1182 C1180 1.389 . S
C1182 C1183 1.524 . S
C1182 C1196 1.377 1_545 S
C1183 C1182 1.524 . S
C1183 C1184 1.397 . S
C1183 C1188 1.363 . S
C1184 H1161 0.950 . S
C1184 C1183 1.397 . S
C1184 C1185 1.334 . S
C1185 H1162 0.950 . S
C1185 C1184 1.334 . S
C1185 C1186 1.287 . S
C1186 C1185 1.287 . S
C1186 C1187 1.524 . S
C1186 H1205 0.913 . S
C1187 H1163 0.950 . S
C1187 C1186 1.524 . S
C1187 C1188 1.415 . S
C1188 H1164 0.950 1_545 S
C1188 C1183 1.363 . S
C1188 C1187 1.415 . S
C1189 H1165 0.951 . S
C1189 C1190 1.366 . S
C1189 C1191 1.388 . S
C1190 C1189 1.366 . S
C1190 C1194 1.385 . S
C1191 H1166 0.951 . S
C1191 C1189 1.388 . S
C1191 C1192 1.366 . S
C1192 C1191 1.366 . S
C1192 C1193 1.414 . S
C1192 C1195 1.499 . S
C1193 H1167 0.950 . S
C1193 C1192 1.414 . S
C1193 C1194 1.374 . S
C1194 H1168 0.950 . S
C1194 C1190 1.385 . S
C1194 C1193 1.374 . S
C1195 C1192 1.499 . S
C1195 C1196 1.373 . S
C1195 C1197 1.389 . S
C1196 H1169 0.950 . S
C1196 C1182 1.377 1_565 S
C1196 C1195 1.373 . S
C1197 C1181 1.377 1_565 S
C1197 C1195 1.389 . S
C1197 C1198 1.524 . S
C1198 C1197 1.524 . S
C1198 C1199 1.397 . S
C1198 C1203 1.363 . S
C1199 H1170 0.950 . S
C1199 C1198 1.397 . S
C1199 C1200 1.334 . S
C1200 H1171 0.950 . S
C1200 C1199 1.334 . S
C1200 C1201 1.287 . S
C1201 C1200 1.287 . S
C1201 C1202 1.524 . S
C1201 H1204 0.999 . S
C1202 H1172 0.950 . S
C1202 C1201 1.524 . S
C1202 C1203 1.415 . S
C1203 H1173 0.950 1_565 S
C1203 C1198 1.363 . S
C1203 C1202 1.415 . S
H1204 C1201 0.999 . S
H1205 C1186 0.913 . S
H1206 C1224 0.951 . S
H1207 C1226 0.951 . S
H1208 C1228 0.950 . S
H1209 C1229 0.950 . S
H1210 C1231 0.950 . S
H1211 C1234 0.950 . S
H1212 C1235 0.950 . S
H1213 C1237 0.950 . S
H1214 C1238 0.950 . S
H1215 C1239 0.951 . S
H1216 C1241 0.951 . S
H1217 C1243 0.950 . S
H1218 C1244 0.950 . S
H1219 C1246 0.950 . S
H1220 C1249 0.950 . S
H1221 C1250 0.950 . S
H1222 C1252 0.950 . S
H1223 C1253 0.950 . S
C1224 H1206 0.951 . S
C1224 C1225 1.366 . S
C1224 C1226 1.388 . S
C1225 C1224 1.366 . S
C1225 C1229 1.385 . S
C1226 H1207 0.951 . S
C1226 C1224 1.388 . S
C1226 C1227 1.366 . S
C1227 C1226 1.366 . S
C1227 C1228 1.414 . S
C1227 C1230 1.499 . S
C1228 H1208 0.950 . S
C1228 C1227 1.414 . S
C1228 C1229 1.374 . S
C1229 H1209 0.950 . S
C1229 C1225 1.385 . S
C1229 C1228 1.374 . S
C1230 C1227 1.499 . S
C1230 C1231 1.373 . S
C1230 C1232 1.389 . S
C1231 H1210 0.950 . S
C1231 C1230 1.373 . S
C1231 C1247 1.377 . S
C1232 C1230 1.389 . S
C1232 C1233 1.524 . S
C1232 C1246 1.377 . S
C1233 C1232 1.524 . S
C1233 C1234 1.397 . S
C1233 C1238 1.363 . S
C1234 H1211 0.950 . S
C1234 C1233 1.397 . S
C1234 C1235 1.334 . S
C1235 H1212 0.950 . S
C1235 C1234 1.334 . S
C1235 C1236 1.287 . S
C1236 C1235 1.287 . S
C1236 C1237 1.524 . S
C1236 H1255 0.913 . S
C1237 H1213 0.950 . S
C1237 C1236 1.524 . S
C1237 C1238 1.415 . S
C1238 H1214 0.950 . S
C1238 C1233 1.363 . S
C1238 C1237 1.415 . S
C1239 H1215 0.951 . S
C1239 C1240 1.366 . S
C1239 C1241 1.388 . S
C1240 C1239 1.366 . S
C1240 C1244 1.385 . S
C1241 H1216 0.951 . S
C1241 C1239 1.388 . S
C1241 C1242 1.366 . S
C1242 C1241 1.366 . S
C1242 C1243 1.414 . S
C1242 C1245 1.499 . S
C1243 H1217 0.950 . S
C1243 C1242 1.414 . S
C1243 C1244 1.374 . S
C1244 H1218 0.950 . S
C1244 C1240 1.385 . S
C1244 C1243 1.374 . S
C1245 C1242 1.499 . S
C1245 C1246 1.373 . S
C1245 C1247 1.389 . S
C1246 H1219 0.950 . S
C1246 C1232 1.377 . S
C1246 C1245 1.373 . S
C1247 C1231 1.377 . S
C1247 C1245 1.389 . S
C1247 C1248 1.524 . S
C1248 C1247 1.524 . S
C1248 C1249 1.397 . S
C1248 C1253 1.363 . S
C1249 H1220 0.950 . S
C1249 C1248 1.397 . S
C1249 C1250 1.334 . S
C1250 H1221 0.950 . S
C1250 C1249 1.334 . S
C1250 C1251 1.287 . S
C1251 C1250 1.287 . S
C1251 C1252 1.524 . S
C1251 H1254 0.999 . S
C1252 H1222 0.950 . S
C1252 C1251 1.524 . S
C1252 C1253 1.415 . S
C1253 H1223 0.950 . S
C1253 C1248 1.363 . S
C1253 C1252 1.415 . S
H1254 C1251 0.999 . S
H1255 C1236 0.913 . S
H1256 C1274 0.951 . S
H1257 C1276 0.951 . S
H1258 C1278 0.950 . S
H1259 C1279 0.950 . S
H1260 C1281 0.950 . S
H1261 C1284 0.950 . S
H1262 C1285 0.950 . S
H1263 C1287 0.950 . S
H1264 C1288 0.950 . S
H1265 C1289 0.951 . S
H1266 C1291 0.951 . S
H1267 C1293 0.950 . S
H1268 C1294 0.950 . S
H1269 C1296 0.950 . S
H1270 C1299 0.950 . S
H1271 C1300 0.950 . S
H1272 C1302 0.950 . S
H1273 C1303 0.950 . S
C1274 H1256 0.951 . S
C1274 C1275 1.366 . S
C1274 C1276 1.388 . S
C1275 C1274 1.366 . S
C1275 C1279 1.385 . S
C1276 H1257 0.951 . S
C1276 C1274 1.388 . S
C1276 C1277 1.366 . S
C1277 C1276 1.366 . S
C1277 C1278 1.414 . S
C1277 C1280 1.499 . S
C1278 H1258 0.950 . S
C1278 C1277 1.414 . S
C1278 C1279 1.374 . S
C1279 H1259 0.950 . S
C1279 C1275 1.385 . S
C1279 C1278 1.374 . S
C1280 C1277 1.499 . S
C1280 C1281 1.373 . S
C1280 C1282 1.389 . S
C1281 H1260 0.950 . S
C1281 C1280 1.373 . S
C1281 C1297 1.377 1_455 S
C1282 C1280 1.389 . S
C1282 C1283 1.524 . S
C1282 C1296 1.377 1_455 S
C1283 C1282 1.524 . S
C1283 C1284 1.397 . S
C1283 C1288 1.363 . S
C1284 H1261 0.950 . S
C1284 C1283 1.397 . S
C1284 C1285 1.334 . S
C1285 H1262 0.950 . S
C1285 C1284 1.334 . S
C1285 C1286 1.287 . S
C1286 C1285 1.287 . S
C1286 C1287 1.524 . S
C1286 H1305 0.913 . S
C1287 H1263 0.950 . S
C1287 C1286 1.524 . S
C1287 C1288 1.415 . S
C1288 H1264 0.950 . S
C1288 C1283 1.363 . S
C1288 C1287 1.415 . S
C1289 H1265 0.951 . S
C1289 C1290 1.366 . S
C1289 C1291 1.388 . S
C1290 C1289 1.366 . S
C1290 C1294 1.385 . S
C1291 H1266 0.951 . S
C1291 C1289 1.388 . S
C1291 C1292 1.366 . S
C1292 C1291 1.366 . S
C1292 C1293 1.414 . S
C1292 C1295 1.499 . S
C1293 H1267 0.950 . S
C1293 C1292 1.414 . S
C1293 C1294 1.374 . S
C1294 H1268 0.950 . S
C1294 C1290 1.385 . S
C1294 C1293 1.374 . S
C1295 C1292 1.499 . S
C1295 C1296 1.373 . S
C1295 C1297 1.389 . S
C1296 H1269 0.950 . S
C1296 C1282 1.377 1_655 S
C1296 C1295 1.373 . S
C1297 C1281 1.377 1_655 S
C1297 C1295 1.389 . S
C1297 C1298 1.524 . S
C1298 C1297 1.524 . S
C1298 C1299 1.397 . S
C1298 C1303 1.363 . S
C1299 H1270 0.950 . S
C1299 C1298 1.397 . S
C1299 C1300 1.334 . S
C1300 H1271 0.950 . S
C1300 C1299 1.334 . S
C1300 C1301 1.287 . S
C1301 C1300 1.287 . S
C1301 C1302 1.524 . S
C1301 H1304 0.999 . S
C1302 H1272 0.950 . S
C1302 C1301 1.524 . S
C1302 C1303 1.415 . S
C1303 H1273 0.950 . S
C1303 C1298 1.363 . S
C1303 C1302 1.415 . S
H1304 C1301 0.999 . S
H1305 C1286 0.913 . S
H1306 C1324 0.951 . S
H1307 C1326 0.951 . S
H1308 C1328 0.950 . S
H1309 C1329 0.950 . S
H1310 C1331 0.950 . S
H1311 C1334 0.950 . S
H1312 C1335 0.950 . S
H1313 C1337 0.950 . S
H1314 C1338 0.950 . S
H1315 C1339 0.951 . S
H1316 C1341 0.951 . S
H1317 C1343 0.950 . S
H1318 C1344 0.950 . S
H1319 C1346 0.950 . S
H1320 C1349 0.950 . S
H1321 C1350 0.950 . S
H1322 C1352 0.950 . S
H1323 C1353 0.950 . S
C1324 H1306 0.951 . S
C1324 C1325 1.366 . S
C1324 C1326 1.388 . S
C1325 C1324 1.366 . S
C1325 C1329 1.385 . S
C1326 H1307 0.951 . S
C1326 C1324 1.388 . S
C1326 C1327 1.366 . S
C1327 C1326 1.366 . S
C1327 C1328 1.414 . S
C1327 C1330 1.499 . S
C1328 H1308 0.950 . S
C1328 C1327 1.414 . S
C1328 C1329 1.374 . S
C1329 H1309 0.950 . S
C1329 C1325 1.385 . S
C1329 C1328 1.374 . S
C1330 C1327 1.499 . S
C1330 C1331 1.373 . S
C1330 C1332 1.389 . S
C1331 H1310 0.950 . S
C1331 C1330 1.373 . S
C1331 C1347 1.377 1_565 S
C1332 C1330 1.389 . S
C1332 C1333 1.524 . S
C1332 C1346 1.377 1_565 S
C1333 C1332 1.524 . S
C1333 C1334 1.397 . S
C1333 C1338 1.363 . S
C1334 H1311 0.950 . S
C1334 C1333 1.397 . S
C1334 C1335 1.334 . S
C1335 H1312 0.950 . S
C1335 C1334 1.334 . S
C1335 C1336 1.287 . S
C1336 C1335 1.287 . S
C1336 C1337 1.524 . S
C1336 H1355 0.913 . S
C1337 H1313 0.950 . S
C1337 C1336 1.524 . S
C1337 C1338 1.415 . S
C1338 H1314 0.950 . S
C1338 C1333 1.363 . S
C1338 C1337 1.415 . S
C1339 H1315 0.951 . S
C1339 C1340 1.366 . S
C1339 C1341 1.388 . S
C1340 C1339 1.366 . S
C1340 C1344 1.385 . S
C1341 H1316 0.951 . S
C1341 C1339 1.388 . S
C1341 C1342 1.366 . S
C1342 C1341 1.366 . S
C1342 C1343 1.414 . S
C1342 C1345 1.499 . S
C1343 H1317 0.950 . S
C1343 C1342 1.414 . S
C1343 C1344 1.374 . S
C1344 H1318 0.950 . S
C1344 C1340 1.385 . S
C1344 C1343 1.374 . S
C1345 C1342 1.499 . S
C1345 C1346 1.373 . S
C1345 C1347 1.389 . S
C1346 H1319 0.950 . S
C1346 C1332 1.377 1_545 S
C1346 C1345 1.373 . S
C1347 C1331 1.377 1_545 S
C1347 C1345 1.389 . S
C1347 C1348 1.524 . S
C1348 C1347 1.524 . S
C1348 C1349 1.397 . S
C1348 C1353 1.363 . S
C1349 H1320 0.950 . S
C1349 C1348 1.397 . S
C1349 C1350 1.334 . S
C1350 H1321 0.950 . S
C1350 C1349 1.334 . S
C1350 C1351 1.287 . S
C1351 C1350 1.287 . S
C1351 C1352 1.524 . S
C1351 H1354 0.999 . S
C1352 H1322 0.950 . S
C1352 C1351 1.524 . S
C1352 C1353 1.415 . S
C1353 H1323 0.950 . S
C1353 C1348 1.363 . S
C1353 C1352 1.415 . S
H1354 C1351 0.999 . S
H1355 C1336 0.913 . S
C175 C131 1.561 . S
C190 C1 1.561 . S
C225 C14 1.561 . S
C240 C144 1.561 . S
C275 C27 1.560 . S
C290 C79 1.560 . S
C325 C40 1.561 . S
C340 C92 1.561 . S
C375 C105 1.561 . S
C390 C53 1.561 . S
C425 C66 1.561 . S
C440 C118 1.562 . S
C475 C107 1.573 . S
C490 C3 1.572 . S
C525 C16 1.573 . S
C540 C120 1.573 . S
C575 C29 1.573 . S
C590 C133 1.573 . S
C625 C42 1.573 . S
C640 C146 1.573 . S
C675 C81 1.573 . S
C690 C55 1.573 . S
C725 C94 1.572 . S
C740 C68 1.572 . S
C775 C49 1.765 . S
C790 C10 1.765 . S
C825 C23 1.765 . S
C840 C62 1.765 . S
C875 C75 1.765 . S
C890 C36 1.766 . S
C925 C127 1.765 . S
C940 C88 1.765 . S
C975 C140 1.766 . S
C990 C101 1.766 . S
C1025 C114 1.765 . S
C1040 C153 1.765 . S
C1075 C44 1.866 . S
C1090 C5 1.866 . S
C1125 C18 1.866 . S
C1140 C57 1.866 . S
C1175 C70 1.866 . S
C1190 C31 1.866 . S
C1225 C83 1.866 . S
C1240 C122 1.866 . S
C1275 C135 1.866 . S
C1290 C96 1.866 . S
C1325 C109 1.866 . S
C1340 C148 1.866 . S
