# Generated by pormake.
# Topology pcb, (4)-cn, num edge types: 1
# Building blocks:
#     Node 0, Type 0, BuildingBlock: CEKHIL_clean_sbu_0, # of connection points: 4
#     Node 1, Type 0, BuildingBlock: CEKHIL_clean_sbu_0, # of connection points: 4
#     Node 2, Type 0, BuildingBlock: CEKHIL_clean_sbu_0, # of connection points: 4
#     Node 3, Type 0, BuildingBlock: CEKHIL_clean_sbu_0, # of connection points: 4
#     Node 4, Type 0, BuildingBlock: CEKHIL_clean_sbu_0, # of connection points: 4
#     Node 5, Type 0, BuildingBlock: CEKHIL_clean_sbu_0, # of connection points: 4
#     Node 6, Type 0, BuildingBlock: CEKHIL_clean_sbu_0, # of connection points: 4
#     Node 7, Type 0, BuildingBlock: CEKHIL_clean_sbu_0, # of connection points: 4
#     Node 8, Type 0, BuildingBlock: CEKHIL_clean_sbu_0, # of connection points: 4
#     Node 9, Type 0, BuildingBlock: CEKHIL_clean_sbu_0, # of connection points: 4
#     Node 10, Type 0, BuildingBlock: CEKHIL_clean_sbu_0, # of connection points: 4
#     Node 11, Type 0, BuildingBlock: CEKHIL_clean_sbu_0, # of connection points: 4
#     Node 12, Type 0, BuildingBlock: CEKHIL_clean_sbu_0, # of connection points: 4
#     Node 13, Type 0, BuildingBlock: CEKHIL_clean_sbu_0, # of connection points: 4
#     Node 14, Type 0, BuildingBlock: CEKHIL_clean_sbu_0, # of connection points: 4
#     Node 15, Type 0, BuildingBlock: CEKHIL_clean_sbu_0, # of connection points: 4
#     Edge 16, Type (0, 0), BuildingBlock: AJUNOK_clean_linker_0, # of connection points: 2
#     Edge 17, Type (0, 0), BuildingBlock: AJUNOK_clean_linker_0, # of connection points: 2
#     Edge 18, Type (0, 0), BuildingBlock: AJUNOK_clean_linker_0, # of connection points: 2
#     Edge 19, Type (0, 0), BuildingBlock: AJUNOK_clean_linker_0, # of connection points: 2
#     Edge 20, Type (0, 0), BuildingBlock: AJUNOK_clean_linker_0, # of connection points: 2
#     Edge 21, Type (0, 0), BuildingBlock: AJUNOK_clean_linker_0, # of connection points: 2
#     Edge 22, Type (0, 0), BuildingBlock: AJUNOK_clean_linker_0, # of connection points: 2
#     Edge 23, Type (0, 0), BuildingBlock: AJUNOK_clean_linker_0, # of connection points: 2
#     Edge 24, Type (0, 0), BuildingBlock: AJUNOK_clean_linker_0, # of connection points: 2
#     Edge 25, Type (0, 0), BuildingBlock: AJUNOK_clean_linker_0, # of connection points: 2
#     Edge 26, Type (0, 0), BuildingBlock: AJUNOK_clean_linker_0, # of connection points: 2
#     Edge 27, Type (0, 0), BuildingBlock: AJUNOK_clean_linker_0, # of connection points: 2
#     Edge 28, Type (0, 0), BuildingBlock: AJUNOK_clean_linker_0, # of connection points: 2
#     Edge 29, Type (0, 0), BuildingBlock: AJUNOK_clean_linker_0, # of connection points: 2
#     Edge 30, Type (0, 0), BuildingBlock: AJUNOK_clean_linker_0, # of connection points: 2
#     Edge 31, Type (0, 0), BuildingBlock: AJUNOK_clean_linker_0, # of connection points: 2
#     Edge 32, Type (0, 0), BuildingBlock: AJUNOK_clean_linker_0, # of connection points: 2
#     Edge 33, Type (0, 0), BuildingBlock: AJUNOK_clean_linker_0, # of connection points: 2
#     Edge 34, Type (0, 0), BuildingBlock: AJUNOK_clean_linker_0, # of connection points: 2
#     Edge 35, Type (0, 0), BuildingBlock: AJUNOK_clean_linker_0, # of connection points: 2
#     Edge 36, Type (0, 0), BuildingBlock: AJUNOK_clean_linker_0, # of connection points: 2
#     Edge 37, Type (0, 0), BuildingBlock: AJUNOK_clean_linker_0, # of connection points: 2
#     Edge 38, Type (0, 0), BuildingBlock: AJUNOK_clean_linker_0, # of connection points: 2
#     Edge 39, Type (0, 0), BuildingBlock: AJUNOK_clean_linker_0, # of connection points: 2
#     Edge 40, Type (0, 0), BuildingBlock: AJUNOK_clean_linker_0, # of connection points: 2
#     Edge 41, Type (0, 0), BuildingBlock: AJUNOK_clean_linker_0, # of connection points: 2
#     Edge 42, Type (0, 0), BuildingBlock: AJUNOK_clean_linker_0, # of connection points: 2
#     Edge 43, Type (0, 0), BuildingBlock: AJUNOK_clean_linker_0, # of connection points: 2
#     Edge 44, Type (0, 0), BuildingBlock: AJUNOK_clean_linker_0, # of connection points: 2
#     Edge 45, Type (0, 0), BuildingBlock: AJUNOK_clean_linker_0, # of connection points: 2
#     Edge 46, Type (0, 0), BuildingBlock: AJUNOK_clean_linker_0, # of connection points: 2
#     Edge 47, Type (0, 0), BuildingBlock: AJUNOK_clean_linker_0, # of connection points: 2
# Relax obj value: 0.229
# Max RMSD: 0.084
# Mean RMSD: 0.084
data_MOF--net-pcb--node1-CEKHIL_clean_sbu_0--edge1-AJUNOK_clean_linker_0
_symmetry_space_group_name_H-M    P1
_symmetry_Int_Tables_number       1
_symmetry_cell_setting            triclinic
loop_
_symmetry_equiv_pos_as_xyz
'x, y, z'
_cell_length_a     41.739263
_cell_length_b     27.105939
_cell_length_c     27.10904
_cell_angle_alpha  89.999614
_cell_angle_beta   89.976195
_cell_angle_gamma 90.028456
loop_
_atom_site_label
_atom_site_type_symbol
_atom_site_fract_x
_atom_site_fract_y
_atom_site_fract_z
_atom_type_partial_charge
Co0 Co 0.14854 0.19251 0.1912 0.0
O1 O 0.19437 0.18853 0.18273 0.0
O2 O 0.1693 0.25229 0.21521 0.0
C3 C 0.14417 0.11578 0.22304 0.0
O4 O 0.10111 0.2088 0.20647 0.0
Co5 Co 0.10297 0.11835 0.13802 0.0
O6 O 0.07128 0.1426 0.18626 0.0
C7 C 0.13003 0.20413 0.08355 0.0
C8 C 0.19636 0.23169 0.20295 0.0
C9 C 0.07434 0.18465 0.20652 0.0
O10 O 0.14399 0.22096 0.12248 0.0
O11 O 0.11422 0.16364 0.08235 0.0
O12 O 0.15189 0.15231 0.25164 0.0
O13 O 0.14111 0.1261 0.17698 0.0
Co14 Co 0.87098 0.19526 0.19158 0.0
O15 O 0.82511 0.18783 0.18739 0.0
O16 O 0.8503 0.22002 0.25119 0.0
C17 C 0.87577 0.22677 0.11474 0.0
O18 O 0.91855 0.20949 0.20794 0.0
Co19 Co 0.91566 0.13993 0.11789 0.0
O20 O 0.94843 0.186 0.14283 0.0
C21 C 0.88782 0.08696 0.20368 0.0
C22 C 0.82318 0.20814 0.23049 0.0
C23 C 0.94544 0.20766 0.1842 0.0
O24 O 0.87466 0.12657 0.22037 0.0
O25 O 0.9034 0.08469 0.16307 0.0
O26 O 0.8684 0.25564 0.15122 0.0
O27 O 0.87819 0.18062 0.12514 0.0
Co28 Co 0.87064 0.80786 0.1951 0.0
O29 O 0.82497 0.81278 0.18601 0.0
O30 O 0.84917 0.74862 0.21932 0.0
C31 C 0.87551 0.88469 0.22659 0.0
O32 O 0.91792 0.79086 0.21077 0.0
Co33 Co 0.91643 0.8808 0.14087 0.0
O34 O 0.94839 0.85565 0.18809 0.0
C35 C 0.8885 0.79543 0.08724 0.0
C36 C 0.82244 0.76965 0.20605 0.0
C37 C 0.94495 0.81432 0.20968 0.0
O38 O 0.87503 0.77883 0.12665 0.0
O39 O 0.90435 0.83585 0.08537 0.0
O40 O 0.86747 0.8484 0.25529 0.0
O41 O 0.87846 0.87414 0.18056 0.0
Co42 Co 0.14776 0.80494 0.19279 0.0
O43 O 0.19362 0.81286 0.18826 0.0
O44 O 0.1686 0.78153 0.25267 0.0
C45 C 0.14294 0.77217 0.11654 0.0
O46 O 0.10034 0.79035 0.20983 0.0
Co47 Co 0.10205 0.85748 0.1184 0.0
O48 O 0.07022 0.81002 0.14383 0.0
C49 C 0.12982 0.91297 0.20294 0.0
C50 C 0.19565 0.79322 0.23168 0.0
C51 C 0.07343 0.79026 0.18608 0.0
O52 O 0.14361 0.87412 0.22029 0.0
O53 O 0.11386 0.91372 0.16261 0.0
O54 O 0.15066 0.74393 0.15335 0.0
O55 O 0.14011 0.81837 0.12632 0.0
Co56 Co 0.14488 0.80418 0.80689 0.0
O57 O 0.19055 0.80941 0.81601 0.0
O58 O 0.16641 0.74496 0.78302 0.0
C59 C 0.1399 0.8808 0.77509 0.0
O60 O 0.09767 0.78668 0.79132 0.0
Co61 Co 0.09835 0.87703 0.85981 0.0
O62 O 0.06728 0.85244 0.81081 0.0
C63 C 0.12646 0.79232 0.91453 0.0
C64 C 0.19311 0.76622 0.79608 0.0
C65 C 0.07071 0.81031 0.79087 0.0
O66 O 0.1404 0.77563 0.87553 0.0
O67 O 0.11026 0.83242 0.91571 0.0
O68 O 0.14814 0.84451 0.74654 0.0
O69 O 0.1367 0.87034 0.8211 0.0
Co70 Co 0.14714 0.19165 0.80517 0.0
O71 O 0.19297 0.18313 0.80911 0.0
O72 O 0.16787 0.21449 0.74486 0.0
C73 C 0.14306 0.22494 0.88131 0.0
O74 O 0.09967 0.20662 0.78876 0.0
Co75 Co 0.10152 0.14043 0.88074 0.0
O76 O 0.06991 0.18831 0.85559 0.0
C77 C 0.12816 0.08401 0.79583 0.0
C78 C 0.19495 0.20259 0.76561 0.0
C79 C 0.07291 0.20733 0.81295 0.0
O80 O 0.14232 0.1224 0.77812 0.0
O81 O 0.11243 0.08386 0.83641 0.0
O82 O 0.15071 0.25286 0.84421 0.0
O83 O 0.13983 0.17874 0.87184 0.0
Co84 Co 0.86971 0.19063 0.80473 0.0
O85 O 0.82384 0.18667 0.81275 0.0
O86 O 0.84904 0.24999 0.77958 0.0
C87 C 0.87421 0.11351 0.77406 0.0
O88 O 0.91725 0.20671 0.7897 0.0
Co89 Co 0.91496 0.11744 0.85971 0.0
O90 O 0.94679 0.14062 0.81113 0.0
C91 C 0.88759 0.20382 0.91248 0.0
C92 C 0.82192 0.22949 0.79182 0.0
C93 C 0.94391 0.18232 0.79009 0.0
O94 O 0.8739 0.22004 0.8731 0.0
O95 O 0.90334 0.16337 0.91467 0.0
O96 O 0.86663 0.14962 0.74486 0.0
O97 O 0.87705 0.12446 0.82002 0.0
Co98 Co 0.86811 0.80321 0.80888 0.0
O99 O 0.82227 0.81181 0.81298 0.0
O100 O 0.8473 0.77899 0.74932 0.0
C101 C 0.8725 0.77166 0.88565 0.0
O102 O 0.91548 0.7876 0.7924 0.0
Co103 Co 0.91394 0.85633 0.88276 0.0
O104 O 0.94552 0.80804 0.85828 0.0
C105 C 0.88676 0.91082 0.79717 0.0
C106 C 0.82025 0.79127 0.76997 0.0
C107 C 0.94227 0.78743 0.81643 0.0
O108 O 0.8728 0.87188 0.78026 0.0
O109 O 0.90255 0.91198 0.83764 0.0
O110 O 0.8647 0.74291 0.84929 0.0
O111 O 0.87565 0.81765 0.87514 0.0
Co112 Co 0.64503 0.68964 0.69471 0.0
O113 O 0.69073 0.68407 0.6865 0.0
O114 O 0.66671 0.74849 0.71956 0.0
C115 C 0.63932 0.61281 0.72585 0.0
O116 O 0.5977 0.70712 0.70965 0.0
Co117 Co 0.59949 0.61764 0.63874 0.0
O118 O 0.5672 0.64292 0.68539 0.0
C119 C 0.62825 0.70296 0.58641 0.0
C120 C 0.69341 0.72707 0.70674 0.0
C121 C 0.57062 0.68387 0.70768 0.0
O122 O 0.64143 0.71904 0.62625 0.0
O123 O 0.6123 0.66271 0.58371 0.0
O124 O 0.64742 0.64887 0.75478 0.0
O125 O 0.63692 0.62353 0.67976 0.0
Co126 Co 0.36771 0.6908 0.69325 0.0
O127 O 0.32188 0.68265 0.689 0.0
O128 O 0.3469 0.71508 0.75285 0.0
C129 C 0.37242 0.72242 0.61653 0.0
O130 O 0.41512 0.70585 0.70984 0.0
Co131 Co 0.41335 0.63699 0.61967 0.0
O132 O 0.44512 0.68508 0.64401 0.0
C133 C 0.38597 0.58306 0.70539 0.0
C134 C 0.31985 0.70294 0.73212 0.0
C135 C 0.44196 0.70564 0.68589 0.0
O136 O 0.37198 0.62211 0.72187 0.0
O137 O 0.40189 0.58148 0.66504 0.0
O138 O 0.36467 0.75117 0.65293 0.0
O139 O 0.37531 0.67635 0.62696 0.0
Co140 Co 0.37003 0.30441 0.69208 0.0
O141 O 0.32434 0.3094 0.68276 0.0
O142 O 0.34853 0.24462 0.71485 0.0
C143 C 0.37473 0.38055 0.7254 0.0
O144 O 0.41723 0.28702 0.70777 0.0
Co145 Co 0.41615 0.37874 0.64037 0.0
O146 O 0.44797 0.35213 0.68701 0.0
C147 C 0.38878 0.29441 0.58431 0.0
C148 C 0.3218 0.2659 0.702 0.0
C149 C 0.44435 0.31023 0.70739 0.0
O150 O 0.37481 0.27698 0.62298 0.0
O151 O 0.40466 0.33483 0.58377 0.0
O152 O 0.36657 0.3436 0.75315 0.0
O153 O 0.37791 0.37105 0.67918 0.0
Co154 Co 0.64662 0.30305 0.69002 0.0
O155 O 0.69224 0.31279 0.68466 0.0
O156 O 0.66845 0.2789 0.7489 0.0
C157 C 0.64159 0.27191 0.61318 0.0
O158 O 0.59949 0.28661 0.70745 0.0
Co159 Co 0.59987 0.35641 0.61767 0.0
O160 O 0.56902 0.30693 0.64199 0.0
C161 C 0.62743 0.41027 0.70324 0.0
C162 C 0.69506 0.29243 0.72761 0.0
C163 C 0.57257 0.2862 0.68372 0.0
O164 O 0.6418 0.37137 0.71926 0.0
O165 O 0.61126 0.41184 0.66314 0.0
O166 O 0.65008 0.24311 0.64913 0.0
O167 O 0.63827 0.31779 0.62407 0.0
Co168 Co 0.64737 0.30726 0.30369 0.0
O169 O 0.69292 0.31321 0.31391 0.0
O170 O 0.66956 0.24849 0.28019 0.0
C171 C 0.64223 0.3839 0.27205 0.0
O172 O 0.60044 0.28899 0.28696 0.0
Co173 Co 0.59969 0.37929 0.35537 0.0
O174 O 0.5694 0.3543 0.30542 0.0
C175 C 0.62762 0.29472 0.41065 0.0
C176 C 0.696 0.27016 0.29384 0.0
C177 C 0.57332 0.31214 0.28575 0.0
O178 O 0.6423 0.27845 0.37211 0.0
O179 O 0.61111 0.33453 0.41138 0.0
O180 O 0.651 0.34785 0.24355 0.0
O181 O 0.63858 0.37321 0.31791 0.0
Co182 Co 0.6477 0.69387 0.30804 0.0
O183 O 0.69352 0.6857 0.31216 0.0
O184 O 0.6685 0.71803 0.24831 0.0
C185 C 0.64327 0.72577 0.38475 0.0
O186 O 0.60026 0.7088 0.29161 0.0
Co187 Co 0.60247 0.64018 0.38223 0.0
O188 O 0.57005 0.68651 0.35678 0.0
C189 C 0.62953 0.58608 0.29633 0.0
C190 C 0.69556 0.70589 0.26902 0.0
C191 C 0.57328 0.70758 0.31515 0.0
O192 O 0.64333 0.62516 0.2795 0.0
O193 O 0.61385 0.58466 0.33691 0.0
O194 O 0.65078 0.75439 0.34814 0.0
O195 O 0.64042 0.67965 0.37453 0.0
Co196 Co 0.37047 0.69125 0.3061 0.0
O197 O 0.32477 0.6862 0.31494 0.0
O198 O 0.34911 0.75082 0.28263 0.0
C199 C 0.37545 0.61493 0.27359 0.0
O200 O 0.41781 0.70848 0.29086 0.0
Co201 Co 0.41638 0.61734 0.3591 0.0
O202 O 0.44794 0.64262 0.31119 0.0
C203 C 0.38834 0.70186 0.41413 0.0
C204 C 0.32233 0.72958 0.29539 0.0
C205 C 0.44468 0.68462 0.29088 0.0
O206 O 0.37481 0.71916 0.37506 0.0
O207 O 0.40422 0.66146 0.41522 0.0
O208 O 0.36736 0.65151 0.24532 0.0
O209 O 0.37841 0.62493 0.31972 0.0
Co210 Co 0.37141 0.30509 0.30472 0.0
O211 O 0.32578 0.31512 0.30961 0.0
O212 O 0.34983 0.28161 0.24538 0.0
C213 C 0.3759 0.27325 0.3814 0.0
O214 O 0.41853 0.28841 0.28754 0.0
Co215 Co 0.41821 0.35705 0.37793 0.0
O216 O 0.44891 0.30745 0.35344 0.0
C217 C 0.39062 0.41247 0.29327 0.0
C218 C 0.32317 0.29514 0.26645 0.0
C219 C 0.44537 0.2873 0.31143 0.0
O220 O 0.37656 0.37369 0.27625 0.0
O221 O 0.40664 0.41326 0.33355 0.0
O222 O 0.36752 0.24482 0.34508 0.0
O223 O 0.37952 0.31917 0.37091 0.0
C224 C 0.28702 0.24632 0.21076 0.0
C225 C 0.29101 0.28473 0.24502 0.0
C226 C 0.25633 0.2309 0.19595 0.0
C227 C 0.22832 0.25357 0.21436 0.0
H228 H 0.30767 0.22642 0.19696 0.0
H229 H 0.2546 0.19988 0.17091 0.0
S230 S 0.22589 0.36023 0.3001 0.0
N231 N 0.26443 0.34821 0.29352 0.0
N232 N 0.20694 0.31952 0.26542 0.0
C233 C 0.23208 0.294 0.24635 0.0
C234 C 0.26333 0.30945 0.26176 0.0
C235 C 0.73255 0.21454 0.24571 0.0
C236 C 0.72837 0.2495 0.28343 0.0
C237 C 0.7633 0.20011 0.23032 0.0
C238 C 0.79123 0.21959 0.25233 0.0
H239 H 0.71196 0.19978 0.22635 0.0
H240 H 0.76514 0.17439 0.19987 0.0
S241 S 0.79332 0.30793 0.35682 0.0
N242 N 0.75478 0.30015 0.34543 0.0
N243 N 0.81242 0.27271 0.31675 0.0
C244 C 0.78735 0.25244 0.29202 0.0
C245 C 0.75601 0.26749 0.30744 0.0
C246 C 0.78625 0.71395 0.25488 0.0
C247 C 0.79029 0.74814 0.21643 0.0
C248 C 0.75553 0.69908 0.27014 0.0
C249 C 0.72755 0.71736 0.24728 0.0
H250 H 0.80686 0.70026 0.2749 0.0
H251 H 0.75375 0.67408 0.30119 0.0
S252 S 0.72528 0.80283 0.14043 0.0
N253 N 0.7638 0.7964 0.15267 0.0
N254 N 0.70627 0.7682 0.18113 0.0
C255 C 0.73137 0.74927 0.20682 0.0
C256 C 0.76265 0.76474 0.19151 0.0
C257 C 0.28632 0.78515 0.24619 0.0
C258 C 0.29024 0.75111 0.28481 0.0
C259 C 0.25565 0.79996 0.23069 0.0
C260 C 0.22761 0.7818 0.25351 0.0
H261 H 0.307 0.79874 0.22621 0.0
H262 H 0.25396 0.82482 0.19952 0.0
S263 S 0.22501 0.69665 0.36063 0.0
N264 N 0.26357 0.70304 0.34856 0.0
N265 N 0.20613 0.73118 0.31975 0.0
C266 C 0.2313 0.75003 0.29412 0.0
C267 C 0.26253 0.73459 0.30962 0.0
C268 C 0.25986 0.69637 0.73101 0.0
C269 C 0.28789 0.71443 0.75393 0.0
C270 C 0.22919 0.71107 0.74657 0.0
C271 C 0.22524 0.7449 0.78537 0.0
H272 H 0.26157 0.67166 0.69972 0.0
H273 H 0.20853 0.69755 0.72652 0.0
S274 S 0.29039 0.79902 0.86149 0.0
N275 N 0.30931 0.76474 0.82042 0.0
N276 N 0.25184 0.79269 0.84936 0.0
C277 C 0.25292 0.76135 0.81025 0.0
C278 C 0.28416 0.74602 0.79467 0.0
C279 C 0.25492 0.19527 0.76617 0.0
C280 C 0.22692 0.21375 0.74355 0.0
C281 C 0.28563 0.21002 0.7507 0.0
C282 C 0.28965 0.24432 0.71233 0.0
H283 H 0.25317 0.17024 0.79719 0.0
H284 H 0.30628 0.1962 0.77058 0.0
S285 S 0.22454 0.29958 0.63698 0.0
N286 N 0.20557 0.26489 0.67767 0.0
N287 N 0.26309 0.29292 0.64894 0.0
C288 C 0.26197 0.26111 0.68766 0.0
C289 C 0.2307 0.24572 0.70312 0.0
C290 C 0.76196 0.22931 0.7991 0.0
C291 C 0.79001 0.25111 0.77977 0.0
C292 C 0.73128 0.24457 0.78408 0.0
C293 C 0.72733 0.28193 0.74865 0.0
H294 H 0.76363 0.19915 0.82518 0.0
H295 H 0.71059 0.22543 0.79881 0.0
S296 S 0.79271 0.3544 0.69006 0.0
N297 N 0.81155 0.31478 0.72606 0.0
N298 N 0.75412 0.34318 0.69751 0.0
C299 C 0.7551 0.30563 0.73071 0.0
C300 C 0.78634 0.29036 0.74636 0.0
C301 C 0.76026 0.79878 0.77001 0.0
C302 C 0.78832 0.77938 0.74831 0.0
C303 C 0.72958 0.78372 0.75472 0.0
C304 C 0.72565 0.74818 0.71745 0.0
H305 H 0.76196 0.82493 0.80012 0.0
H306 H 0.70887 0.79849 0.77375 0.0
S307 S 0.79106 0.68935 0.6453 0.0
N308 N 0.80988 0.72547 0.68486 0.0
N309 N 0.75248 0.69688 0.65639 0.0
C310 C 0.75344 0.73019 0.69385 0.0
C311 C 0.78466 0.74587 0.70915 0.0
C312 C 0.10948 0.23998 0.95444 0.0
C313 C 0.13984 0.24232 0.93236 0.0
C314 C 0.10631 0.2338 0.00545 0.0
C315 C 0.13343 0.22989 0.03597 0.0
H316 H 0.08816 0.23812 0.93184 0.0
H317 H 0.0826 0.22744 0.0205 0.0
S318 S 0.21803 0.24213 0.99679 0.0
N319 N 0.1973 0.24684 0.94507 0.0
N320 N 0.19137 0.23575 0.04144 0.0
C321 C 0.16374 0.23816 0.01509 0.0
C322 C 0.16694 0.24419 0.96296 0.0
C323 C 0.85321 0.23088 0.98196 0.0
C324 C 0.88354 0.23009 0.95951 0.0
C325 C 0.85031 0.23678 0.03325 0.0
C326 C 0.87759 0.24281 0.0631 0.0
H327 H 0.83206 0.22142 0.96079 0.0
H328 H 0.827 0.23158 0.05009 0.0
S329 S 0.9615 0.25351 0.02039 0.0
N330 N 0.94072 0.24294 0.96961 0.0
N331 N 0.93505 0.25558 0.0657 0.0
C332 C 0.90748 0.24803 0.04022 0.0
C333 C 0.91052 0.24133 0.98831 0.0
C334 C 0.90702 0.75759 0.95785 0.0
C335 C 0.87634 0.7553 0.9369 0.0
C336 C 0.91096 0.76473 0.0086 0.0
C337 C 0.88431 0.76943 0.03999 0.0
H338 H 0.92803 0.75861 0.93449 0.0
H339 H 0.93491 0.77101 0.02271 0.0
S340 S 0.79909 0.7578 0.00407 0.0
N341 N 0.81903 0.75193 0.9517 0.0
N342 N 0.82643 0.7645 0.04763 0.0
C343 C 0.85366 0.76126 0.02035 0.0
C344 C 0.84966 0.75443 0.96846 0.0
C345 C 0.10817 0.7571 0.04476 0.0
C346 C 0.1389 0.755 0.06557 0.0
C347 C 0.10411 0.76317 0.99389 0.0
C348 C 0.1307 0.7671 0.96224 0.0
H349 H 0.08723 0.75877 0.06824 0.0
H350 H 0.08014 0.76929 0.9798 0.0
S351 S 0.21597 0.75555 0.99789 0.0
N352 N 0.19614 0.75088 0.05048 0.0
N353 N 0.18854 0.76159 0.95437 0.0
C354 C 0.16137 0.75911 0.98187 0.0
C355 C 0.16548 0.75329 0.03387 0.0
C356 C 0.02175 0.18267 0.24939 0.0
C357 C 0.0437 0.20884 0.21976 0.0
C358 C 0.98848 0.18918 0.24399 0.0
C359 C 0.97608 0.22132 0.20803 0.0
H360 H 0.0302 0.15292 0.27271 0.0
H361 H 0.97258 0.16406 0.26322 0.0
S362 S 0.02329 0.30451 0.12751 0.0
N363 N 0.0506 0.27367 0.15901 0.0
N364 N 0.98823 0.28485 0.14788 0.0
C365 C 0.99776 0.25198 0.18274 0.0
C366 C 0.03159 0.24602 0.18889 0.0
C367 C 0.8501 0.9663 0.23599 0.0
C368 C 0.87728 0.93637 0.24254 0.0
C369 C 0.85312 0.01757 0.23005 0.0
C370 C 0.88349 0.03991 0.22978 0.0
H371 H 0.8268 0.94953 0.23043 0.0
H372 H 0.83208 0.03881 0.22022 0.0
S373 S 0.96118 0.97882 0.25457 0.0
N374 N 0.93464 0.9336 0.25627 0.0
N375 N 0.94055 0.02966 0.24357 0.0
C376 C 0.91034 0.01105 0.24149 0.0
C377 C 0.90717 0.95916 0.24821 0.0
C378 C 0.98751 0.75341 0.19226 0.0
C379 C 0.97537 0.79009 0.22384 0.0
C380 C 0.02074 0.74763 0.18548 0.0
C381 C 0.04289 0.77756 0.21087 0.0
H382 H 0.97145 0.73391 0.16763 0.0
H383 H 0.02898 0.72375 0.15605 0.0
S384 S 0.02319 0.87153 0.30524 0.0
N385 N 0.98798 0.85113 0.28628 0.0
N386 N 0.05027 0.83928 0.27464 0.0
C387 C 0.03103 0.8091 0.2477 0.0
C388 C 0.99725 0.81563 0.25391 0.0
C389 C 0.11011 0.04291 0.23725 0.0
C390 C 0.1406 0.06452 0.23964 0.0
C391 C 0.10662 0.99189 0.23143 0.0
C392 C 0.13354 0.96091 0.22791 0.0
H393 H 0.08893 0.06581 0.2353 0.0
H394 H 0.08281 0.97715 0.22519 0.0
S395 S 0.21838 0.9989 0.24 0.0
N396 N 0.19798 0.05098 0.24431 0.0
N397 N 0.19144 0.95461 0.23386 0.0
C398 C 0.16398 0.9814 0.23601 0.0
C399 C 0.16751 0.03353 0.24167 0.0
C400 C 0.98478 0.80395 0.75489 0.0
C401 C 0.97275 0.77317 0.79236 0.0
C402 C 0.018 0.81028 0.74844 0.0
C403 C 0.04024 0.78521 0.77847 0.0
H404 H 0.96869 0.82833 0.73517 0.0
H405 H 0.02621 0.83925 0.72396 0.0
S406 S 0.02075 0.69283 0.87451 0.0
N407 N 0.98549 0.71184 0.85443 0.0
N408 N 0.04774 0.72247 0.84117 0.0
C409 C 0.02842 0.74905 0.81083 0.0
C410 C 0.99467 0.74337 0.81811 0.0
C411 C 0.1064 0.95451 0.76279 0.0
C412 C 0.13657 0.93215 0.75871 0.0
C413 C 0.1036 0.00559 0.76869 0.0
C414 C 0.13093 0.03591 0.77083 0.0
H415 H 0.08503 0.93213 0.76597 0.0
H416 H 0.0801 0.0209 0.77613 0.0
S417 S 0.21501 0.99585 0.75417 0.0
N418 N 0.19396 0.94429 0.7509 0.0
N419 N 0.18872 0.0408 0.7618 0.0
C420 C 0.16094 0.01469 0.7611 0.0
C421 C 0.16376 0.96248 0.75519 0.0
C422 C 0.02001 0.24942 0.81326 0.0
C423 C 0.04219 0.2192 0.78827 0.0
C424 C 0.98677 0.24324 0.80685 0.0
C425 C 0.97464 0.20585 0.77609 0.0
H426 H 0.02827 0.274 0.8421 0.0
H427 H 0.97072 0.26322 0.83111 0.0
S428 S 0.02249 0.1228 0.69638 0.0
N429 N 0.04955 0.15605 0.72592 0.0
N430 N 0.98727 0.14329 0.71517 0.0
C431 C 0.99653 0.17969 0.74656 0.0
C432 C 0.03031 0.18669 0.75231 0.0
C433 C 0.91073 0.98886 0.76777 0.0
C434 C 0.88353 0.95841 0.77141 0.0
C435 C 0.90771 0.03985 0.76129 0.0
C436 C 0.87742 0.06197 0.75828 0.0
H437 H 0.93438 0.97377 0.77448 0.0
H438 H 0.92907 0.06241 0.76322 0.0
S439 S 0.79908 0.99782 0.75809 0.0
N440 N 0.82561 0.95311 0.76504 0.0
N441 N 0.81994 0.04945 0.75325 0.0
C442 C 0.85025 0.03147 0.75638 0.0
C443 C 0.85331 0.97935 0.76276 0.0
C444 C 0.66778 0.73464 0.467 0.0
C445 C 0.64108 0.7421 0.43627 0.0
C446 C 0.66403 0.72862 0.51813 0.0
C447 C 0.63338 0.72904 0.53953 0.0
H448 H 0.69121 0.72843 0.45092 0.0
H449 H 0.68468 0.71816 0.53995 0.0
S450 S 0.55681 0.75633 0.47617 0.0
N451 N 0.58395 0.7576 0.4318 0.0
N452 N 0.57663 0.74441 0.52757 0.0
C453 C 0.60705 0.74161 0.5099 0.0
C454 C 0.61098 0.74859 0.45816 0.0
C455 C 0.407 0.73666 0.54429 0.0
C456 C 0.37633 0.73893 0.56532 0.0
C457 C 0.4109 0.73064 0.49339 0.0
C458 C 0.38423 0.72691 0.46192 0.0
H459 H 0.428 0.73494 0.5676 0.0
H460 H 0.43483 0.72444 0.47912 0.0
S461 S 0.29906 0.73859 0.49824 0.0
N462 N 0.31904 0.74318 0.55069 0.0
N463 N 0.32637 0.73251 0.4545 0.0
C464 C 0.35361 0.73491 0.4818 0.0
C465 C 0.34966 0.74069 0.53383 0.0
C466 C 0.40946 0.25964 0.45482 0.0
C467 C 0.37913 0.25684 0.43276 0.0
C468 C 0.41257 0.26581 0.50584 0.0
C469 C 0.38543 0.26931 0.53638 0.0
H470 H 0.43079 0.26166 0.43223 0.0
H471 H 0.43626 0.27231 0.5209 0.0
S472 S 0.30088 0.25645 0.4972 0.0
N473 N 0.32165 0.25189 0.44547 0.0
N474 N 0.3275 0.26304 0.54185 0.0
C475 C 0.35515 0.26086 0.51549 0.0
C476 C 0.352 0.25481 0.46335 0.0
C477 C 0.60415 0.26568 0.48925 0.0
C478 C 0.63114 0.26927 0.45837 0.0
C479 C 0.60754 0.25909 0.54016 0.0
C480 C 0.63799 0.25591 0.56177 0.0
H481 H 0.5804 0.27244 0.47456 0.0
H482 H 0.58634 0.26106 0.56305 0.0
S483 S 0.71586 0.25527 0.49628 0.0
N484 N 0.68902 0.26247 0.45206 0.0
N485 N 0.69536 0.2505 0.54825 0.0
C486 C 0.66493 0.25386 0.5308 0.0
C487 C 0.6615 0.26035 0.47877 0.0
C488 C 0.5276 0.74404 0.69064 0.0
C489 C 0.54019 0.70778 0.72227 0.0
C490 C 0.4943 0.74921 0.68431 0.0
C491 C 0.47252 0.71904 0.71018 0.0
H492 H 0.54338 0.76366 0.66565 0.0
H493 H 0.48572 0.77277 0.65485 0.0
S494 S 0.49341 0.62571 0.80454 0.0
N495 N 0.52836 0.64674 0.78509 0.0
N496 N 0.46594 0.65737 0.77421 0.0
C497 C 0.4848 0.68785 0.74696 0.0
C498 C 0.51866 0.68198 0.75276 0.0
C499 C 0.35179 0.51304 0.73179 0.0
C500 C 0.38205 0.5357 0.73114 0.0
C501 C 0.34903 0.46165 0.73704 0.0
C502 C 0.3764 0.43189 0.74249 0.0
H503 H 0.33057 0.53418 0.72269 0.0
H504 H 0.32576 0.44473 0.73168 0.0
S505 S 0.46021 0.47508 0.75364 0.0
N506 N 0.43927 0.52584 0.74376 0.0
N507 N 0.43389 0.42954 0.75513 0.0
C508 C 0.40624 0.45492 0.74795 0.0
C509 C 0.40912 0.50694 0.74195 0.0
C510 C 0.53006 0.30378 0.74472 0.0
C511 C 0.54218 0.27206 0.70814 0.0
C512 C 0.49683 0.31063 0.75046 0.0
C513 C 0.47467 0.28515 0.72063 0.0
H514 H 0.54612 0.32852 0.76408 0.0
H515 H 0.48861 0.34026 0.77413 0.0
S516 S 0.49431 0.19046 0.62699 0.0
N517 N 0.52954 0.20949 0.64725 0.0
N518 N 0.46726 0.22112 0.65921 0.0
C519 C 0.4865 0.24814 0.68929 0.0
C520 C 0.52028 0.24189 0.68274 0.0
C521 C 0.66449 0.53116 0.73663 0.0
C522 C 0.63718 0.56112 0.74164 0.0
C523 C 0.66159 0.47986 0.73086 0.0
C524 C 0.63123 0.45753 0.72918 0.0
H525 H 0.6879 0.54791 0.73218 0.0
H526 H 0.68283 0.45856 0.72222 0.0
S527 S 0.55308 0.51875 0.75008 0.0
N528 N 0.57957 0.56398 0.75267 0.0
N529 N 0.57391 0.46786 0.74034 0.0
C530 C 0.60416 0.48646 0.73948 0.0
C531 C 0.60718 0.53838 0.746 0.0
C532 C 0.48753 0.30411 0.24946 0.0
C533 C 0.47573 0.27312 0.28692 0.0
C534 C 0.52071 0.31104 0.24302 0.0
C535 C 0.54313 0.28636 0.27305 0.0
H536 H 0.47128 0.32831 0.22982 0.0
H537 H 0.5287 0.34023 0.21862 0.0
S538 S 0.52433 0.19331 0.36878 0.0
N539 N 0.48892 0.21176 0.34875 0.0
N540 N 0.55109 0.22352 0.33552 0.0
C541 C 0.53158 0.24985 0.30525 0.0
C542 C 0.49787 0.24355 0.3125 0.0
C543 C 0.60855 0.45732 0.25969 0.0
C544 C 0.63884 0.43531 0.25591 0.0
C545 C 0.60549 0.50823 0.26667 0.0
C546 C 0.63267 0.53871 0.27013 0.0
H547 H 0.58724 0.43469 0.26197 0.0
H548 H 0.58187 0.52317 0.27396 0.0
S549 S 0.71706 0.49979 0.25454 0.0
N550 N 0.69625 0.44812 0.24967 0.0
N551 N 0.69052 0.54432 0.2625 0.0
C552 C 0.66285 0.51799 0.26058 0.0
C553 C 0.66594 0.46595 0.2536 0.0
C554 C 0.52066 0.75032 0.31676 0.0
C555 C 0.54276 0.7209 0.2907 0.0
C556 C 0.48743 0.74486 0.3098 0.0
C557 C 0.47522 0.70894 0.2774 0.0
H558 H 0.52894 0.7735 0.34674 0.0
H559 H 0.4714 0.76391 0.33483 0.0
S560 S 0.52294 0.62892 0.19448 0.0
N561 N 0.55006 0.6605 0.22568 0.0
N562 N 0.48775 0.649 0.21386 0.0
C563 C 0.49707 0.68389 0.24687 0.0
C564 C 0.53087 0.69019 0.25321 0.0
C565 C 0.41365 0.4917 0.26514 0.0
C566 C 0.38686 0.46036 0.26822 0.0
C567 C 0.40995 0.54267 0.25935 0.0
C568 C 0.37936 0.56388 0.2566 0.0
H569 H 0.43748 0.47728 0.27175 0.0
H570 H 0.431 0.56584 0.26167 0.0
S571 S 0.30191 0.49723 0.25488 0.0
N572 N 0.32903 0.45329 0.26132 0.0
N573 N 0.32208 0.54959 0.25099 0.0
C574 C 0.35262 0.53254 0.25404 0.0
C575 C 0.35637 0.48045 0.25964 0.0
loop_
_geom_bond_atom_site_label_1
_geom_bond_atom_site_label_2
_geom_bond_distance
_geom_bond_site_symmetry_2
_ccdc_geom_bond_type
Co0 O1 2.216 . S
Co0 O2 2.091 . S
Co0 O4 2.004 . S
Co0 O10 2.021 . S
Co0 O12 2.137 . S
Co0 O13 2.244 . S
O1 Co0 2.216 . S
O1 C8 1.247 . S
O2 Co0 2.091 . S
O2 C8 1.261 . S
C3 O12 1.247 . S
C3 O13 1.272 . S
O4 Co0 2.004 . S
O4 C9 1.259 . S
Co5 O6 2.061 . S
Co5 O11 2.052 . S
Co5 O13 2.135 . S
O6 Co5 2.061 . S
O6 C9 1.235 . S
C7 O10 1.238 . S
C7 O11 1.241 . S
C8 O1 1.247 . S
C8 O2 1.261 . S
C9 O4 1.259 . S
C9 O6 1.235 . S
O10 Co0 2.021 . S
O10 C7 1.238 . S
O11 Co5 2.052 . S
O11 C7 1.241 . S
O12 Co0 2.137 . S
O12 C3 1.247 . S
O13 Co0 2.244 . S
O13 C3 1.272 . S
O13 Co5 2.135 . S
Co14 O15 2.216 . S
Co14 O16 2.091 . S
Co14 O18 2.004 . S
Co14 O24 2.021 . S
Co14 O26 2.137 . S
Co14 O27 2.244 . S
O15 Co14 2.216 . S
O15 C22 1.247 . S
O16 Co14 2.091 . S
O16 C22 1.261 . S
C17 O26 1.247 . S
C17 O27 1.272 . S
O18 Co14 2.004 . S
O18 C23 1.259 . S
Co19 O20 2.061 . S
Co19 O25 2.052 . S
Co19 O27 2.135 . S
O20 Co19 2.061 . S
O20 C23 1.235 . S
C21 O24 1.238 . S
C21 O25 1.241 . S
C22 O15 1.247 . S
C22 O16 1.261 . S
C23 O18 1.259 . S
C23 O20 1.235 . S
O24 Co14 2.021 . S
O24 C21 1.238 . S
O25 Co19 2.052 . S
O25 C21 1.241 . S
O26 Co14 2.137 . S
O26 C17 1.247 . S
O27 Co14 2.244 . S
O27 C17 1.272 . S
O27 Co19 2.135 . S
Co28 O29 2.216 . S
Co28 O30 2.091 . S
Co28 O32 2.004 . S
Co28 O38 2.021 . S
Co28 O40 2.137 . S
Co28 O41 2.244 . S
O29 Co28 2.216 . S
O29 C36 1.247 . S
O30 Co28 2.091 . S
O30 C36 1.261 . S
C31 O40 1.247 . S
C31 O41 1.272 . S
O32 Co28 2.004 . S
O32 C37 1.259 . S
Co33 O34 2.061 . S
Co33 O39 2.052 . S
Co33 O41 2.135 . S
O34 Co33 2.061 . S
O34 C37 1.235 . S
C35 O38 1.238 . S
C35 O39 1.241 . S
C36 O29 1.247 . S
C36 O30 1.261 . S
C37 O32 1.259 . S
C37 O34 1.235 . S
O38 Co28 2.021 . S
O38 C35 1.238 . S
O39 Co33 2.052 . S
O39 C35 1.241 . S
O40 Co28 2.137 . S
O40 C31 1.247 . S
O41 Co28 2.244 . S
O41 C31 1.272 . S
O41 Co33 2.135 . S
Co42 O43 2.216 . S
Co42 O44 2.091 . S
Co42 O46 2.004 . S
Co42 O52 2.021 . S
Co42 O54 2.137 . S
Co42 O55 2.244 . S
O43 Co42 2.216 . S
O43 C50 1.247 . S
O44 Co42 2.091 . S
O44 C50 1.261 . S
C45 O54 1.247 . S
C45 O55 1.272 . S
O46 Co42 2.004 . S
O46 C51 1.259 . S
Co47 O48 2.061 . S
Co47 O53 2.052 . S
Co47 O55 2.135 . S
O48 Co47 2.061 . S
O48 C51 1.235 . S
C49 O52 1.238 . S
C49 O53 1.241 . S
C50 O43 1.247 . S
C50 O44 1.261 . S
C51 O46 1.259 . S
C51 O48 1.235 . S
O52 Co42 2.021 . S
O52 C49 1.238 . S
O53 Co47 2.052 . S
O53 C49 1.241 . S
O54 Co42 2.137 . S
O54 C45 1.247 . S
O55 Co42 2.244 . S
O55 C45 1.272 . S
O55 Co47 2.135 . S
Co56 O57 2.216 . S
Co56 O58 2.091 . S
Co56 O60 2.004 . S
Co56 O66 2.021 . S
Co56 O68 2.137 . S
Co56 O69 2.244 . S
O57 Co56 2.216 . S
O57 C64 1.247 . S
O58 Co56 2.091 . S
O58 C64 1.261 . S
C59 O68 1.247 . S
C59 O69 1.272 . S
O60 Co56 2.004 . S
O60 C65 1.259 . S
Co61 O62 2.061 . S
Co61 O67 2.052 . S
Co61 O69 2.135 . S
O62 Co61 2.061 . S
O62 C65 1.235 . S
C63 O66 1.238 . S
C63 O67 1.241 . S
C64 O57 1.247 . S
C64 O58 1.261 . S
C65 O60 1.259 . S
C65 O62 1.235 . S
O66 Co56 2.021 . S
O66 C63 1.238 . S
O67 Co61 2.052 . S
O67 C63 1.241 . S
O68 Co56 2.137 . S
O68 C59 1.247 . S
O69 Co56 2.244 . S
O69 C59 1.272 . S
O69 Co61 2.135 . S
Co70 O71 2.216 . S
Co70 O72 2.091 . S
Co70 O74 2.004 . S
Co70 O80 2.021 . S
Co70 O82 2.137 . S
Co70 O83 2.244 . S
O71 Co70 2.216 . S
O71 C78 1.247 . S
O72 Co70 2.091 . S
O72 C78 1.261 . S
C73 O82 1.247 . S
C73 O83 1.272 . S
O74 Co70 2.004 . S
O74 C79 1.259 . S
Co75 O76 2.061 . S
Co75 O81 2.052 . S
Co75 O83 2.135 . S
O76 Co75 2.061 . S
O76 C79 1.235 . S
C77 O80 1.238 . S
C77 O81 1.241 . S
C78 O71 1.247 . S
C78 O72 1.261 . S
C79 O74 1.259 . S
C79 O76 1.235 . S
O80 Co70 2.021 . S
O80 C77 1.238 . S
O81 Co75 2.052 . S
O81 C77 1.241 . S
O82 Co70 2.137 . S
O82 C73 1.247 . S
O83 Co70 2.244 . S
O83 C73 1.272 . S
O83 Co75 2.135 . S
Co84 O85 2.216 . S
Co84 O86 2.091 . S
Co84 O88 2.004 . S
Co84 O94 2.021 . S
Co84 O96 2.137 . S
Co84 O97 2.244 . S
O85 Co84 2.216 . S
O85 C92 1.247 . S
O86 Co84 2.091 . S
O86 C92 1.261 . S
C87 O96 1.247 . S
C87 O97 1.272 . S
O88 Co84 2.004 . S
O88 C93 1.259 . S
Co89 O90 2.061 . S
Co89 O95 2.052 . S
Co89 O97 2.135 . S
O90 Co89 2.061 . S
O90 C93 1.235 . S
C91 O94 1.238 . S
C91 O95 1.241 . S
C92 O85 1.247 . S
C92 O86 1.261 . S
C93 O88 1.259 . S
C93 O90 1.235 . S
O94 Co84 2.021 . S
O94 C91 1.238 . S
O95 Co89 2.052 . S
O95 C91 1.241 . S
O96 Co84 2.137 . S
O96 C87 1.247 . S
O97 Co84 2.244 . S
O97 C87 1.272 . S
O97 Co89 2.135 . S
Co98 O99 2.216 . S
Co98 O100 2.091 . S
Co98 O102 2.004 . S
Co98 O108 2.021 . S
Co98 O110 2.137 . S
Co98 O111 2.244 . S
O99 Co98 2.216 . S
O99 C106 1.247 . S
O100 Co98 2.091 . S
O100 C106 1.261 . S
C101 O110 1.247 . S
C101 O111 1.272 . S
O102 Co98 2.004 . S
O102 C107 1.259 . S
Co103 O104 2.061 . S
Co103 O109 2.052 . S
Co103 O111 2.135 . S
O104 Co103 2.061 . S
O104 C107 1.235 . S
C105 O108 1.238 . S
C105 O109 1.241 . S
C106 O99 1.247 . S
C106 O100 1.261 . S
C107 O102 1.259 . S
C107 O104 1.235 . S
O108 Co98 2.021 . S
O108 C105 1.238 . S
O109 Co103 2.052 . S
O109 C105 1.241 . S
O110 Co98 2.137 . S
O110 C101 1.247 . S
O111 Co98 2.244 . S
O111 C101 1.272 . S
O111 Co103 2.135 . S
Co112 O113 2.216 . S
Co112 O114 2.091 . S
Co112 O116 2.004 . S
Co112 O122 2.021 . S
Co112 O124 2.137 . S
Co112 O125 2.244 . S
O113 Co112 2.216 . S
O113 C120 1.247 . S
O114 Co112 2.091 . S
O114 C120 1.261 . S
C115 O124 1.247 . S
C115 O125 1.272 . S
O116 Co112 2.004 . S
O116 C121 1.259 . S
Co117 O118 2.061 . S
Co117 O123 2.052 . S
Co117 O125 2.135 . S
O118 Co117 2.061 . S
O118 C121 1.235 . S
C119 O122 1.238 . S
C119 O123 1.241 . S
C120 O113 1.247 . S
C120 O114 1.261 . S
C121 O116 1.259 . S
C121 O118 1.235 . S
O122 Co112 2.021 . S
O122 C119 1.238 . S
O123 Co117 2.052 . S
O123 C119 1.241 . S
O124 Co112 2.137 . S
O124 C115 1.247 . S
O125 Co112 2.244 . S
O125 C115 1.272 . S
O125 Co117 2.135 . S
Co126 O127 2.216 . S
Co126 O128 2.091 . S
Co126 O130 2.004 . S
Co126 O136 2.021 . S
Co126 O138 2.137 . S
Co126 O139 2.244 . S
O127 Co126 2.216 . S
O127 C134 1.247 . S
O128 Co126 2.091 . S
O128 C134 1.261 . S
C129 O138 1.247 . S
C129 O139 1.272 . S
O130 Co126 2.004 . S
O130 C135 1.259 . S
Co131 O132 2.061 . S
Co131 O137 2.052 . S
Co131 O139 2.135 . S
O132 Co131 2.061 . S
O132 C135 1.235 . S
C133 O136 1.238 . S
C133 O137 1.241 . S
C134 O127 1.247 . S
C134 O128 1.261 . S
C135 O130 1.259 . S
C135 O132 1.235 . S
O136 Co126 2.021 . S
O136 C133 1.238 . S
O137 Co131 2.052 . S
O137 C133 1.241 . S
O138 Co126 2.137 . S
O138 C129 1.247 . S
O139 Co126 2.244 . S
O139 C129 1.272 . S
O139 Co131 2.135 . S
Co140 O141 2.216 . S
Co140 O142 2.091 . S
Co140 O144 2.004 . S
Co140 O150 2.021 . S
Co140 O152 2.137 . S
Co140 O153 2.244 . S
O141 Co140 2.216 . S
O141 C148 1.247 . S
O142 Co140 2.091 . S
O142 C148 1.261 . S
C143 O152 1.247 . S
C143 O153 1.272 . S
O144 Co140 2.004 . S
O144 C149 1.259 . S
Co145 O146 2.061 . S
Co145 O151 2.052 . S
Co145 O153 2.135 . S
O146 Co145 2.061 . S
O146 C149 1.235 . S
C147 O150 1.238 . S
C147 O151 1.241 . S
C148 O141 1.247 . S
C148 O142 1.261 . S
C149 O144 1.259 . S
C149 O146 1.235 . S
O150 Co140 2.021 . S
O150 C147 1.238 . S
O151 Co145 2.052 . S
O151 C147 1.241 . S
O152 Co140 2.137 . S
O152 C143 1.247 . S
O153 Co140 2.244 . S
O153 C143 1.272 . S
O153 Co145 2.135 . S
Co154 O155 2.216 . S
Co154 O156 2.091 . S
Co154 O158 2.004 . S
Co154 O164 2.021 . S
Co154 O166 2.137 . S
Co154 O167 2.244 . S
O155 Co154 2.216 . S
O155 C162 1.247 . S
O156 Co154 2.091 . S
O156 C162 1.261 . S
C157 O166 1.247 . S
C157 O167 1.272 . S
O158 Co154 2.004 . S
O158 C163 1.259 . S
Co159 O160 2.061 . S
Co159 O165 2.052 . S
Co159 O167 2.135 . S
O160 Co159 2.061 . S
O160 C163 1.235 . S
C161 O164 1.238 . S
C161 O165 1.241 . S
C162 O155 1.247 . S
C162 O156 1.261 . S
C163 O158 1.259 . S
C163 O160 1.235 . S
O164 Co154 2.021 . S
O164 C161 1.238 . S
O165 Co159 2.052 . S
O165 C161 1.241 . S
O166 Co154 2.137 . S
O166 C157 1.247 . S
O167 Co154 2.244 . S
O167 C157 1.272 . S
O167 Co159 2.135 . S
Co168 O169 2.216 . S
Co168 O170 2.091 . S
Co168 O172 2.004 . S
Co168 O178 2.021 . S
Co168 O180 2.137 . S
Co168 O181 2.244 . S
O169 Co168 2.216 . S
O169 C176 1.247 . S
O170 Co168 2.091 . S
O170 C176 1.261 . S
C171 O180 1.247 . S
C171 O181 1.272 . S
O172 Co168 2.004 . S
O172 C177 1.259 . S
Co173 O174 2.061 . S
Co173 O179 2.052 . S
Co173 O181 2.135 . S
O174 Co173 2.061 . S
O174 C177 1.235 . S
C175 O178 1.238 . S
C175 O179 1.241 . S
C176 O169 1.247 . S
C176 O170 1.261 . S
C177 O172 1.259 . S
C177 O174 1.235 . S
O178 Co168 2.021 . S
O178 C175 1.238 . S
O179 Co173 2.052 . S
O179 C175 1.241 . S
O180 Co168 2.137 . S
O180 C171 1.247 . S
O181 Co168 2.244 . S
O181 C171 1.272 . S
O181 Co173 2.135 . S
Co182 O183 2.216 . S
Co182 O184 2.091 . S
Co182 O186 2.004 . S
Co182 O192 2.021 . S
Co182 O194 2.137 . S
Co182 O195 2.244 . S
O183 Co182 2.216 . S
O183 C190 1.247 . S
O184 Co182 2.091 . S
O184 C190 1.261 . S
C185 O194 1.247 . S
C185 O195 1.272 . S
O186 Co182 2.004 . S
O186 C191 1.259 . S
Co187 O188 2.061 . S
Co187 O193 2.052 . S
Co187 O195 2.135 . S
O188 Co187 2.061 . S
O188 C191 1.235 . S
C189 O192 1.238 . S
C189 O193 1.241 . S
C190 O183 1.247 . S
C190 O184 1.261 . S
C191 O186 1.259 . S
C191 O188 1.235 . S
O192 Co182 2.021 . S
O192 C189 1.238 . S
O193 Co187 2.052 . S
O193 C189 1.241 . S
O194 Co182 2.137 . S
O194 C185 1.247 . S
O195 Co182 2.244 . S
O195 C185 1.272 . S
O195 Co187 2.135 . S
Co196 O197 2.216 . S
Co196 O198 2.091 . S
Co196 O200 2.004 . S
Co196 O206 2.021 . S
Co196 O208 2.137 . S
Co196 O209 2.244 . S
O197 Co196 2.216 . S
O197 C204 1.247 . S
O198 Co196 2.091 . S
O198 C204 1.261 . S
C199 O208 1.247 . S
C199 O209 1.272 . S
O200 Co196 2.004 . S
O200 C205 1.259 . S
Co201 O202 2.061 . S
Co201 O207 2.052 . S
Co201 O209 2.135 . S
O202 Co201 2.061 . S
O202 C205 1.235 . S
C203 O206 1.238 . S
C203 O207 1.241 . S
C204 O197 1.247 . S
C204 O198 1.261 . S
C205 O200 1.259 . S
C205 O202 1.235 . S
O206 Co196 2.021 . S
O206 C203 1.238 . S
O207 Co201 2.052 . S
O207 C203 1.241 . S
O208 Co196 2.137 . S
O208 C199 1.247 . S
O209 Co196 2.244 . S
O209 C199 1.272 . S
O209 Co201 2.135 . S
Co210 O211 2.216 . S
Co210 O212 2.091 . S
Co210 O214 2.004 . S
Co210 O220 2.021 . S
Co210 O222 2.137 . S
Co210 O223 2.244 . S
O211 Co210 2.216 . S
O211 C218 1.247 . S
O212 Co210 2.091 . S
O212 C218 1.261 . S
C213 O222 1.247 . S
C213 O223 1.272 . S
O214 Co210 2.004 . S
O214 C219 1.259 . S
Co215 O216 2.061 . S
Co215 O221 2.052 . S
Co215 O223 2.135 . S
O216 Co215 2.061 . S
O216 C219 1.235 . S
C217 O220 1.238 . S
C217 O221 1.241 . S
C218 O211 1.247 . S
C218 O212 1.261 . S
C219 O214 1.259 . S
C219 O216 1.235 . S
O220 Co210 2.021 . S
O220 C217 1.238 . S
O221 Co215 2.052 . S
O221 C217 1.241 . S
O222 Co210 2.137 . S
O222 C213 1.247 . S
O223 Co210 2.244 . S
O223 C213 1.272 . S
O223 Co215 2.135 . S
C224 C225 1.369 . S
C224 C226 1.419 . S
C224 H228 0.930 . S
C225 C224 1.369 . S
C225 C234 1.429 . S
C226 C224 1.419 . S
C226 C227 1.363 . S
C226 H229 0.929 . S
C227 C226 1.363 . S
C227 C233 1.428 . S
H228 C224 0.930 . S
H229 C226 0.929 . S
S230 N231 1.613 . S
S230 N232 1.610 . S
N231 S230 1.613 . S
N231 C234 1.350 . S
N232 S230 1.610 . S
N232 C233 1.351 . S
C233 C227 1.428 . S
C233 N232 1.351 . S
C233 C234 1.434 . S
C234 C225 1.429 . S
C234 N231 1.350 . S
C234 C233 1.434 . S
C235 C236 1.369 . S
C235 C237 1.419 . S
C235 H239 0.930 . S
C236 C235 1.369 . S
C236 C245 1.429 . S
C237 C235 1.419 . S
C237 C238 1.363 . S
C237 H240 0.929 . S
C238 C237 1.363 . S
C238 C244 1.428 . S
H239 C235 0.930 . S
H240 C237 0.929 . S
S241 N242 1.613 . S
S241 N243 1.610 . S
N242 S241 1.613 . S
N242 C245 1.350 . S
N243 S241 1.610 . S
N243 C244 1.351 . S
C244 C238 1.428 . S
C244 N243 1.351 . S
C244 C245 1.434 . S
C245 C236 1.429 . S
C245 N242 1.350 . S
C245 C244 1.434 . S
C246 C247 1.369 . S
C246 C248 1.419 . S
C246 H250 0.930 . S
C247 C246 1.369 . S
C247 C256 1.429 . S
C248 C246 1.419 . S
C248 C249 1.363 . S
C248 H251 0.929 . S
C249 C248 1.363 . S
C249 C255 1.428 . S
H250 C246 0.930 . S
H251 C248 0.929 . S
S252 N253 1.613 . S
S252 N254 1.610 . S
N253 S252 1.613 . S
N253 C256 1.350 . S
N254 S252 1.610 . S
N254 C255 1.351 . S
C255 C249 1.428 . S
C255 N254 1.351 . S
C255 C256 1.434 . S
C256 C247 1.429 . S
C256 N253 1.350 . S
C256 C255 1.434 . S
C257 C258 1.369 . S
C257 C259 1.419 . S
C257 H261 0.930 . S
C258 C257 1.369 . S
C258 C267 1.429 . S
C259 C257 1.419 . S
C259 C260 1.363 . S
C259 H262 0.929 . S
C260 C259 1.363 . S
C260 C266 1.428 . S
H261 C257 0.930 . S
H262 C259 0.929 . S
S263 N264 1.613 . S
S263 N265 1.610 . S
N264 S263 1.613 . S
N264 C267 1.350 . S
N265 S263 1.610 . S
N265 C266 1.351 . S
C266 C260 1.428 . S
C266 N265 1.351 . S
C266 C267 1.434 . S
C267 C258 1.429 . S
C267 N264 1.350 . S
C267 C266 1.434 . S
C268 C269 1.369 . S
C268 C270 1.419 . S
C268 H272 0.930 . S
C269 C268 1.369 . S
C269 C278 1.429 . S
C270 C268 1.419 . S
C270 C271 1.363 . S
C270 H273 0.929 . S
C271 C270 1.363 . S
C271 C277 1.428 . S
H272 C268 0.930 . S
H273 C270 0.929 . S
S274 N275 1.613 . S
S274 N276 1.610 . S
N275 S274 1.613 . S
N275 C278 1.350 . S
N276 S274 1.610 . S
N276 C277 1.351 . S
C277 C271 1.428 . S
C277 N276 1.351 . S
C277 C278 1.434 . S
C278 C269 1.429 . S
C278 N275 1.350 . S
C278 C277 1.434 . S
C279 C280 1.369 . S
C279 C281 1.419 . S
C279 H283 0.930 . S
C280 C279 1.369 . S
C280 C289 1.429 . S
C281 C279 1.419 . S
C281 C282 1.363 . S
C281 H284 0.929 . S
C282 C281 1.363 . S
C282 C288 1.428 . S
H283 C279 0.930 . S
H284 C281 0.929 . S
S285 N286 1.613 . S
S285 N287 1.610 . S
N286 S285 1.613 . S
N286 C289 1.350 . S
N287 S285 1.610 . S
N287 C288 1.351 . S
C288 C282 1.428 . S
C288 N287 1.351 . S
C288 C289 1.434 . S
C289 C280 1.429 . S
C289 N286 1.350 . S
C289 C288 1.434 . S
C290 C291 1.369 . S
C290 C292 1.419 . S
C290 H294 0.930 . S
C291 C290 1.369 . S
C291 C300 1.429 . S
C292 C290 1.419 . S
C292 C293 1.363 . S
C292 H295 0.929 . S
C293 C292 1.363 . S
C293 C299 1.428 . S
H294 C290 0.930 . S
H295 C292 0.929 . S
S296 N297 1.613 . S
S296 N298 1.610 . S
N297 S296 1.613 . S
N297 C300 1.350 . S
N298 S296 1.610 . S
N298 C299 1.351 . S
C299 C293 1.428 . S
C299 N298 1.351 . S
C299 C300 1.434 . S
C300 C291 1.429 . S
C300 N297 1.350 . S
C300 C299 1.434 . S
C301 C302 1.369 . S
C301 C303 1.419 . S
C301 H305 0.930 . S
C302 C301 1.369 . S
C302 C311 1.429 . S
C303 C301 1.419 . S
C303 C304 1.363 . S
C303 H306 0.929 . S
C304 C303 1.363 . S
C304 C310 1.428 . S
H305 C301 0.930 . S
H306 C303 0.929 . S
S307 N308 1.613 . S
S307 N309 1.610 . S
N308 S307 1.613 . S
N308 C311 1.350 . S
N309 S307 1.610 . S
N309 C310 1.351 . S
C310 C304 1.428 . S
C310 N309 1.351 . S
C310 C311 1.434 . S
C311 C302 1.429 . S
C311 N308 1.350 . S
C311 C310 1.434 . S
C312 C313 1.369 . S
C312 C314 1.419 1_556 S
C312 H316 0.930 . S
C313 C312 1.369 . S
C313 C322 1.429 . S
C314 C312 1.419 1_554 S
C314 C315 1.363 . S
C314 H317 0.929 . S
C315 C314 1.363 . S
C315 C321 1.428 . S
H316 C312 0.930 . S
H317 C314 0.929 . S
S318 N319 1.613 . S
S318 N320 1.610 1_556 S
N319 S318 1.613 . S
N319 C322 1.350 . S
N320 S318 1.610 1_554 S
N320 C321 1.351 . S
C321 C315 1.428 . S
C321 N320 1.351 . S
C321 C322 1.434 1_554 S
C322 C313 1.429 . S
C322 N319 1.350 . S
C322 C321 1.434 1_556 S
C323 C324 1.369 . S
C323 C325 1.419 1_556 S
C323 H327 0.930 . S
C324 C323 1.369 . S
C324 C333 1.429 . S
C325 C323 1.419 1_554 S
C325 C326 1.363 . S
C325 H328 0.929 . S
C326 C325 1.363 . S
C326 C332 1.428 . S
H327 C323 0.930 . S
H328 C325 0.929 . S
S329 N330 1.614 . S
S329 N331 1.610 1_556 S
N330 S329 1.614 . S
N330 C333 1.350 . S
N331 S329 1.610 1_554 S
N331 C332 1.351 . S
C332 C326 1.428 . S
C332 N331 1.351 . S
C332 C333 1.434 1_554 S
C333 C324 1.429 . S
C333 N330 1.350 . S
C333 C332 1.434 1_556 S
C334 C335 1.369 . S
C334 C336 1.419 1_556 S
C334 H338 0.930 . S
C335 C334 1.369 . S
C335 C344 1.429 . S
C336 C334 1.419 1_554 S
C336 C337 1.363 . S
C336 H339 0.929 . S
C337 C336 1.363 . S
C337 C343 1.428 . S
H338 C334 0.930 . S
H339 C336 0.929 . S
S340 N341 1.613 . S
S340 N342 1.610 1_556 S
N341 S340 1.613 . S
N341 C344 1.350 . S
N342 S340 1.610 1_554 S
N342 C343 1.351 . S
C343 C337 1.428 . S
C343 N342 1.351 . S
C343 C344 1.434 1_554 S
C344 C335 1.429 . S
C344 N341 1.350 . S
C344 C343 1.434 1_556 S
C345 C346 1.369 . S
C345 C347 1.419 1_554 S
C345 H349 0.930 . S
C346 C345 1.369 . S
C346 C355 1.429 . S
C347 C345 1.419 1_556 S
C347 C348 1.363 . S
C347 H350 0.929 . S
C348 C347 1.363 . S
C348 C354 1.428 . S
H349 C345 0.930 . S
H350 C347 0.929 . S
S351 N352 1.613 . S
S351 N353 1.610 1_554 S
N352 S351 1.613 . S
N352 C355 1.350 . S
N353 S351 1.610 1_556 S
N353 C354 1.351 . S
C354 C348 1.428 . S
C354 N353 1.351 . S
C354 C355 1.434 1_556 S
C355 C346 1.429 . S
C355 N352 1.350 . S
C355 C354 1.434 1_554 S
C356 C357 1.369 . S
C356 C358 1.419 1_455 S
C356 H360 0.930 . S
C357 C356 1.369 . S
C357 C366 1.429 . S
C358 C356 1.419 1_655 S
C358 C359 1.363 . S
C358 H361 0.929 . S
C359 C358 1.363 . S
C359 C365 1.428 . S
H360 C356 0.930 . S
H361 C358 0.929 . S
S362 N363 1.613 1_655 S
S362 N364 1.610 . S
N363 S362 1.613 1_455 S
N363 C366 1.350 . S
N364 S362 1.610 . S
N364 C365 1.351 . S
C365 C359 1.428 . S
C365 N364 1.351 . S
C365 C366 1.434 1_655 S
C366 C357 1.429 . S
C366 N363 1.350 . S
C366 C365 1.434 1_455 S
C367 C368 1.369 . S
C367 C369 1.419 1_565 S
C367 H371 0.930 . S
C368 C367 1.369 . S
C368 C377 1.429 . S
C369 C367 1.419 1_545 S
C369 C370 1.363 . S
C369 H372 0.929 . S
C370 C369 1.363 . S
C370 C376 1.428 . S
H371 C367 0.930 . S
H372 C369 0.929 . S
S373 N374 1.624 . S
S373 N375 1.600 1_565 S
N374 S373 1.624 . S
N374 C377 1.350 . S
N375 S373 1.600 1_545 S
N375 C376 1.351 . S
C376 C370 1.428 . S
C376 N375 1.351 . S
C376 C377 1.434 1_545 S
C377 C368 1.429 . S
C377 N374 1.350 . S
C377 C376 1.434 1_565 S
C378 C379 1.369 . S
C378 C380 1.419 1_655 S
C378 H382 0.930 . S
C379 C378 1.369 . S
C379 C388 1.429 . S
C380 C378 1.419 1_455 S
C380 C381 1.363 . S
C380 H383 0.929 . S
C381 C380 1.363 . S
C381 C387 1.428 . S
H382 C378 0.930 . S
H383 C380 0.929 . S
S384 N385 1.613 . S
S384 N386 1.610 1_655 S
N385 S384 1.613 . S
N385 C388 1.350 . S
N386 S384 1.610 1_455 S
N386 C387 1.351 . S
C387 C381 1.428 . S
C387 N386 1.351 . S
C387 C388 1.434 1_455 S
C388 C379 1.429 . S
C388 N385 1.350 . S
C388 C387 1.434 1_655 S
C389 C390 1.369 . S
C389 C391 1.419 1_545 S
C389 H393 0.930 . S
C390 C389 1.369 . S
C390 C399 1.429 . S
C391 C389 1.419 1_565 S
C391 C392 1.363 . S
C391 H394 0.929 . S
C392 C391 1.363 . S
C392 C398 1.428 . S
H393 C389 0.930 . S
H394 C391 0.929 . S
S395 N396 1.630 . S
S395 N397 1.594 1_545 S
N396 S395 1.630 . S
N396 C399 1.350 . S
N397 S395 1.594 1_565 S
N397 C398 1.351 . S
C398 C392 1.428 . S
C398 N397 1.351 . S
C398 C399 1.434 1_565 S
C399 C390 1.429 . S
C399 N396 1.350 . S
C399 C398 1.434 1_545 S
C400 C401 1.369 . S
C400 C402 1.419 1_655 S
C400 H404 0.930 . S
C401 C400 1.369 . S
C401 C410 1.429 . S
C402 C400 1.419 1_455 S
C402 C403 1.363 . S
C402 H405 0.929 . S
C403 C402 1.363 . S
C403 C409 1.428 . S
H404 C400 0.930 . S
H405 C402 0.929 . S
S406 N407 1.613 . S
S406 N408 1.610 1_655 S
N407 S406 1.613 . S
N407 C410 1.350 . S
N408 S406 1.610 1_455 S
N408 C409 1.351 . S
C409 C403 1.428 . S
C409 N408 1.351 . S
C409 C410 1.434 1_455 S
C410 C401 1.429 . S
C410 N407 1.350 . S
C410 C409 1.434 1_655 S
C411 C412 1.369 . S
C411 C413 1.419 1_565 S
C411 H415 0.930 . S
C412 C411 1.369 . S
C412 C421 1.429 . S
C413 C411 1.419 1_545 S
C413 C414 1.363 . S
C413 H416 0.929 . S
C414 C413 1.363 . S
C414 C420 1.428 . S
H415 C411 0.930 . S
H416 C413 0.929 . S
S417 N418 1.613 . S
S417 N419 1.610 1_565 S
N418 S417 1.613 . S
N418 C421 1.350 . S
N419 S417 1.610 1_545 S
N419 C420 1.351 . S
C420 C414 1.428 . S
C420 N419 1.351 . S
C420 C421 1.434 1_545 S
C421 C412 1.429 . S
C421 N418 1.350 . S
C421 C420 1.434 1_565 S
C422 C423 1.369 . S
C422 C424 1.419 1_455 S
C422 H426 0.930 . S
C423 C422 1.369 . S
C423 C432 1.429 . S
C424 C422 1.419 1_655 S
C424 C425 1.363 . S
C424 H427 0.929 . S
C425 C424 1.363 . S
C425 C431 1.428 . S
H426 C422 0.930 . S
H427 C424 0.929 . S
S428 N429 1.613 1_655 S
S428 N430 1.610 . S
N429 S428 1.613 1_455 S
N429 C432 1.350 . S
N430 S428 1.610 . S
N430 C431 1.351 . S
C431 C425 1.428 . S
C431 N430 1.351 . S
C431 C432 1.434 1_655 S
C432 C423 1.429 . S
C432 N429 1.350 . S
C432 C431 1.434 1_455 S
C433 C434 1.369 . S
C433 C435 1.419 1_565 S
C433 H437 0.930 . S
C434 C433 1.369 . S
C434 C443 1.429 . S
C435 C433 1.419 1_545 S
C435 C436 1.363 . S
C435 H438 0.929 . S
C436 C435 1.363 . S
C436 C442 1.428 . S
H437 C433 0.930 . S
H438 C435 0.929 . S
S439 N440 1.618 . S
S439 N441 1.605 1_565 S
N440 S439 1.618 . S
N440 C443 1.350 . S
N441 S439 1.605 1_545 S
N441 C442 1.351 . S
C442 C436 1.428 . S
C442 N441 1.351 . S
C442 C443 1.434 1_545 S
C443 C434 1.429 . S
C443 N440 1.350 . S
C443 C442 1.434 1_565 S
C444 C445 1.369 . S
C444 C446 1.419 . S
C444 H448 0.930 . S
C445 C444 1.369 . S
C445 C454 1.429 . S
C446 C444 1.419 . S
C446 C447 1.363 . S
C446 H449 0.929 . S
C447 C446 1.363 . S
C447 C453 1.428 . S
H448 C444 0.930 . S
H449 C446 0.929 . S
S450 N451 1.613 . S
S450 N452 1.610 . S
N451 S450 1.613 . S
N451 C454 1.350 . S
N452 S450 1.610 . S
N452 C453 1.351 . S
C453 C447 1.428 . S
C453 N452 1.351 . S
C453 C454 1.434 . S
C454 C445 1.429 . S
C454 N451 1.350 . S
C454 C453 1.434 . S
C455 C456 1.369 . S
C455 C457 1.419 . S
C455 H459 0.930 . S
C456 C455 1.369 . S
C456 C465 1.429 . S
C457 C455 1.419 . S
C457 C458 1.363 . S
C457 H460 0.929 . S
C458 C457 1.363 . S
C458 C464 1.428 . S
H459 C455 0.930 . S
H460 C457 0.929 . S
S461 N462 1.613 . S
S461 N463 1.610 . S
N462 S461 1.613 . S
N462 C465 1.350 . S
N463 S461 1.610 . S
N463 C464 1.351 . S
C464 C458 1.428 . S
C464 N463 1.351 . S
C464 C465 1.434 . S
C465 C456 1.429 . S
C465 N462 1.350 . S
C465 C464 1.434 . S
C466 C467 1.369 . S
C466 C468 1.419 . S
C466 H470 0.930 . S
C467 C466 1.369 . S
C467 C476 1.429 . S
C468 C466 1.419 . S
C468 C469 1.363 . S
C468 H471 0.929 . S
C469 C468 1.363 . S
C469 C475 1.428 . S
H470 C466 0.930 . S
H471 C468 0.929 . S
S472 N473 1.613 . S
S472 N474 1.610 . S
N473 S472 1.613 . S
N473 C476 1.350 . S
N474 S472 1.610 . S
N474 C475 1.351 . S
C475 C469 1.428 . S
C475 N474 1.351 . S
C475 C476 1.434 . S
C476 C467 1.429 . S
C476 N473 1.350 . S
C476 C475 1.434 . S
C477 C478 1.369 . S
C477 C479 1.419 . S
C477 H481 0.930 . S
C478 C477 1.369 . S
C478 C487 1.429 . S
C479 C477 1.419 . S
C479 C480 1.363 . S
C479 H482 0.929 . S
C480 C479 1.363 . S
C480 C486 1.428 . S
H481 C477 0.930 . S
H482 C479 0.929 . S
S483 N484 1.613 . S
S483 N485 1.610 . S
N484 S483 1.613 . S
N484 C487 1.350 . S
N485 S483 1.610 . S
N485 C486 1.351 . S
C486 C480 1.428 . S
C486 N485 1.351 . S
C486 C487 1.434 . S
C487 C478 1.429 . S
C487 N484 1.350 . S
C487 C486 1.434 . S
C488 C489 1.369 . S
C488 C490 1.419 . S
C488 H492 0.930 . S
C489 C488 1.369 . S
C489 C498 1.429 . S
C490 C488 1.419 . S
C490 C491 1.363 . S
C490 H493 0.929 . S
C491 C490 1.363 . S
C491 C497 1.428 . S
H492 C488 0.930 . S
H493 C490 0.929 . S
S494 N495 1.613 . S
S494 N496 1.610 . S
N495 S494 1.613 . S
N495 C498 1.350 . S
N496 S494 1.610 . S
N496 C497 1.351 . S
C497 C491 1.428 . S
C497 N496 1.351 . S
C497 C498 1.434 . S
C498 C489 1.429 . S
C498 N495 1.350 . S
C498 C497 1.434 . S
C499 C500 1.369 . S
C499 C501 1.419 . S
C499 H503 0.930 . S
C500 C499 1.369 . S
C500 C509 1.429 . S
C501 C499 1.419 . S
C501 C502 1.363 . S
C501 H504 0.929 . S
C502 C501 1.363 . S
C502 C508 1.428 . S
H503 C499 0.930 . S
H504 C501 0.929 . S
S505 N506 1.613 . S
S505 N507 1.610 . S
N506 S505 1.613 . S
N506 C509 1.350 . S
N507 S505 1.610 . S
N507 C508 1.351 . S
C508 C502 1.428 . S
C508 N507 1.351 . S
C508 C509 1.434 . S
C509 C500 1.429 . S
C509 N506 1.350 . S
C509 C508 1.434 . S
C510 C511 1.369 . S
C510 C512 1.419 . S
C510 H514 0.930 . S
C511 C510 1.369 . S
C511 C520 1.429 . S
C512 C510 1.419 . S
C512 C513 1.363 . S
C512 H515 0.929 . S
C513 C512 1.363 . S
C513 C519 1.428 . S
H514 C510 0.930 . S
H515 C512 0.929 . S
S516 N517 1.613 . S
S516 N518 1.610 . S
N517 S516 1.613 . S
N517 C520 1.350 . S
N518 S516 1.610 . S
N518 C519 1.351 . S
C519 C513 1.428 . S
C519 N518 1.351 . S
C519 C520 1.434 . S
C520 C511 1.429 . S
C520 N517 1.350 . S
C520 C519 1.434 . S
C521 C522 1.369 . S
C521 C523 1.419 . S
C521 H525 0.930 . S
C522 C521 1.369 . S
C522 C531 1.429 . S
C523 C521 1.419 . S
C523 C524 1.363 . S
C523 H526 0.929 . S
C524 C523 1.363 . S
C524 C530 1.428 . S
H525 C521 0.930 . S
H526 C523 0.929 . S
S527 N528 1.613 . S
S527 N529 1.610 . S
N528 S527 1.613 . S
N528 C531 1.350 . S
N529 S527 1.610 . S
N529 C530 1.351 . S
C530 C524 1.428 . S
C530 N529 1.351 . S
C530 C531 1.434 . S
C531 C522 1.429 . S
C531 N528 1.350 . S
C531 C530 1.434 . S
C532 C533 1.369 . S
C532 C534 1.419 . S
C532 H536 0.930 . S
C533 C532 1.369 . S
C533 C542 1.429 . S
C534 C532 1.419 . S
C534 C535 1.363 . S
C534 H537 0.929 . S
C535 C534 1.363 . S
C535 C541 1.428 . S
H536 C532 0.930 . S
H537 C534 0.929 . S
S538 N539 1.613 . S
S538 N540 1.610 . S
N539 S538 1.613 . S
N539 C542 1.350 . S
N540 S538 1.610 . S
N540 C541 1.351 . S
C541 C535 1.428 . S
C541 N540 1.351 . S
C541 C542 1.434 . S
C542 C533 1.429 . S
C542 N539 1.350 . S
C542 C541 1.434 . S
C543 C544 1.369 . S
C543 C545 1.419 . S
C543 H547 0.930 . S
C544 C543 1.369 . S
C544 C553 1.429 . S
C545 C543 1.419 . S
C545 C546 1.363 . S
C545 H548 0.929 . S
C546 C545 1.363 . S
C546 C552 1.428 . S
H547 C543 0.930 . S
H548 C545 0.929 . S
S549 N550 1.613 . S
S549 N551 1.610 . S
N550 S549 1.613 . S
N550 C553 1.350 . S
N551 S549 1.610 . S
N551 C552 1.351 . S
C552 C546 1.428 . S
C552 N551 1.351 . S
C552 C553 1.434 . S
C553 C544 1.429 . S
C553 N550 1.350 . S
C553 C552 1.434 . S
C554 C555 1.369 . S
C554 C556 1.419 . S
C554 H558 0.930 . S
C555 C554 1.369 . S
C555 C564 1.429 . S
C556 C554 1.419 . S
C556 C557 1.363 . S
C556 H559 0.929 . S
C557 C556 1.363 . S
C557 C563 1.428 . S
H558 C554 0.930 . S
H559 C556 0.929 . S
S560 N561 1.613 . S
S560 N562 1.610 . S
N561 S560 1.613 . S
N561 C564 1.350 . S
N562 S560 1.610 . S
N562 C563 1.351 . S
C563 C557 1.428 . S
C563 N562 1.351 . S
C563 C564 1.434 . S
C564 C555 1.429 . S
C564 N561 1.350 . S
C564 C563 1.434 . S
C565 C566 1.369 . S
C565 C567 1.419 . S
C565 H569 0.930 . S
C566 C565 1.369 . S
C566 C575 1.429 . S
C567 C565 1.419 . S
C567 C568 1.363 . S
C567 H570 0.929 . S
C568 C567 1.363 . S
C568 C574 1.428 . S
H569 C565 0.930 . S
H570 C567 0.929 . S
S571 N572 1.613 . S
S571 N573 1.610 . S
N572 S571 1.613 . S
N572 C575 1.350 . S
N573 S571 1.610 . S
N573 C574 1.351 . S
C574 C568 1.428 . S
C574 N573 1.351 . S
C574 C575 1.434 . S
C575 C566 1.429 . S
C575 N572 1.350 . S
C575 C574 1.434 . S
C225 C218 1.374 . S
C227 C8 1.381 . S
C236 C176 1.377 . S
C238 C22 1.378 . S
C247 C36 1.374 . S
C249 C190 1.380 . S
C258 C204 1.374 . S
C260 C50 1.381 . S
C269 C134 1.378 . S
C271 C64 1.379 . S
C280 C78 1.380 . S
C282 C148 1.377 . S
C291 C92 1.382 . S
C293 C162 1.375 . S
C302 C106 1.379 . S
C304 C120 1.376 . S
C313 C73 1.662 . S
C315 C7 1.569 . S
C324 C91 1.566 . S
C326 C17 1.663 . S
C335 C101 1.662 . S
C337 C35 1.568 . S
C346 C45 1.663 . S
C348 C63 1.573 . S
C357 C9 1.337 . S
C359 C23 1.336 . S
C368 C31 1.664 . S
C370 C21 1.570 . S
C379 C37 1.330 . S
C381 C51 1.332 . S
C390 C3 1.662 . S
C392 C49 1.568 . S
C401 C107 1.329 . S
C403 C65 1.331 . S
C412 C59 1.663 . S
C414 C77 1.573 . S
C423 C79 1.329 . S
C425 C93 1.329 . S
C434 C105 1.567 . S
C436 C87 1.662 . S
C445 C185 1.664 . S
C447 C119 1.569 . S
C456 C129 1.662 . S
C458 C203 1.570 . S
C467 C213 1.662 . S
C469 C147 1.567 . S
C478 C175 1.577 . S
C480 C157 1.665 . S
C489 C121 1.327 . S
C491 C135 1.329 . S
C500 C133 1.566 . S
C502 C143 1.663 . S
C511 C163 1.327 . S
C513 C149 1.329 . S
C522 C115 1.664 . S
C524 C161 1.570 . S
C533 C219 1.333 . S
C535 C177 1.334 . S
C544 C171 1.662 . S
C546 C189 1.568 . S
C555 C191 1.332 . S
C557 C205 1.330 . S
C566 C217 1.577 . S
C568 C199 1.665 . S
