# Generated by pormake.
# Topology umm, (4)-cn, num edge types: 1
# Building blocks:
#     Node 0, Type 0, BuildingBlock: KUFVIS_clean_sbu_0, # of connection points: 4
#     Node 1, Type 0, BuildingBlock: KUFVIS_clean_sbu_0, # of connection points: 4
#     Node 2, Type 0, BuildingBlock: KUFVIS_clean_sbu_0, # of connection points: 4
#     Node 3, Type 0, BuildingBlock: KUFVIS_clean_sbu_0, # of connection points: 4
#     Node 4, Type 0, BuildingBlock: KUFVIS_clean_sbu_0, # of connection points: 4
#     Node 5, Type 0, BuildingBlock: KUFVIS_clean_sbu_0, # of connection points: 4
#     Node 6, Type 0, BuildingBlock: KUFVIS_clean_sbu_0, # of connection points: 4
#     Node 7, Type 0, BuildingBlock: KUFVIS_clean_sbu_0, # of connection points: 4
#     Node 8, Type 0, BuildingBlock: KUFVIS_clean_sbu_0, # of connection points: 4
#     Node 9, Type 0, BuildingBlock: KUFVIS_clean_sbu_0, # of connection points: 4
#     Node 10, Type 0, BuildingBlock: KUFVIS_clean_sbu_0, # of connection points: 4
#     Node 11, Type 0, BuildingBlock: KUFVIS_clean_sbu_0, # of connection points: 4
#     Edge 12, Type (0, 0), BuildingBlock: UVAHIK_clean_linker_0, # of connection points: 2
#     Edge 13, Type (0, 0), BuildingBlock: UVAHIK_clean_linker_0, # of connection points: 2
#     Edge 14, Type (0, 0), BuildingBlock: UVAHIK_clean_linker_0, # of connection points: 2
#     Edge 15, Type (0, 0), BuildingBlock: UVAHIK_clean_linker_0, # of connection points: 2
#     Edge 16, Type (0, 0), BuildingBlock: UVAHIK_clean_linker_0, # of connection points: 2
#     Edge 17, Type (0, 0), BuildingBlock: UVAHIK_clean_linker_0, # of connection points: 2
#     Edge 18, Type (0, 0), BuildingBlock: UVAHIK_clean_linker_0, # of connection points: 2
#     Edge 19, Type (0, 0), BuildingBlock: UVAHIK_clean_linker_0, # of connection points: 2
#     Edge 20, Type (0, 0), BuildingBlock: UVAHIK_clean_linker_0, # of connection points: 2
#     Edge 21, Type (0, 0), BuildingBlock: UVAHIK_clean_linker_0, # of connection points: 2
#     Edge 22, Type (0, 0), BuildingBlock: UVAHIK_clean_linker_0, # of connection points: 2
#     Edge 23, Type (0, 0), BuildingBlock: UVAHIK_clean_linker_0, # of connection points: 2
#     Edge 24, Type (0, 0), BuildingBlock: UVAHIK_clean_linker_0, # of connection points: 2
#     Edge 25, Type (0, 0), BuildingBlock: UVAHIK_clean_linker_0, # of connection points: 2
#     Edge 26, Type (0, 0), BuildingBlock: UVAHIK_clean_linker_0, # of connection points: 2
#     Edge 27, Type (0, 0), BuildingBlock: UVAHIK_clean_linker_0, # of connection points: 2
#     Edge 28, Type (0, 0), BuildingBlock: UVAHIK_clean_linker_0, # of connection points: 2
#     Edge 29, Type (0, 0), BuildingBlock: UVAHIK_clean_linker_0, # of connection points: 2
#     Edge 30, Type (0, 0), BuildingBlock: UVAHIK_clean_linker_0, # of connection points: 2
#     Edge 31, Type (0, 0), BuildingBlock: UVAHIK_clean_linker_0, # of connection points: 2
#     Edge 32, Type (0, 0), BuildingBlock: UVAHIK_clean_linker_0, # of connection points: 2
#     Edge 33, Type (0, 0), BuildingBlock: UVAHIK_clean_linker_0, # of connection points: 2
#     Edge 34, Type (0, 0), BuildingBlock: UVAHIK_clean_linker_0, # of connection points: 2
#     Edge 35, Type (0, 0), BuildingBlock: UVAHIK_clean_linker_0, # of connection points: 2
# Relax obj value: 0.168
# Max RMSD: 0.456
# Mean RMSD: 0.287
data_MOF--net-umm--node1-KUFVIS_clean_sbu_0--edge1-UVAHIK_clean_linker_0
_symmetry_space_group_name_H-M    P1
_symmetry_Int_Tables_number       1
_symmetry_cell_setting            triclinic
loop_
_symmetry_equiv_pos_as_xyz
'x, y, z'
_cell_length_a     65.512407
_cell_length_b     73.019907
_cell_length_c     34.959477
_cell_angle_alpha  89.981716
_cell_angle_beta   89.995307
_cell_angle_gamma 116.64583
loop_
_atom_site_label
_atom_site_type_symbol
_atom_site_fract_x
_atom_site_fract_y
_atom_site_fract_z
_atom_type_partial_charge
Mn0 Mn 0.40751 0.578 0.11107 0.0
Mn1 Mn 0.46123 0.61475 0.09687 0.0
C2 C 0.42482 0.58104 0.05269 0.0
C3 C 0.36856 0.56876 0.10752 0.0
C4 C 0.45011 0.575 0.13926 0.0
O5 O 0.41261 0.59686 0.15645 0.0
O6 O 0.44773 0.62168 0.14225 0.0
C7 C 0.4502 0.64855 0.07566 0.0
N8 N 0.46011 0.63619 0.06694 0.0
C9 C 0.47245 0.65243 0.00562 0.0
C10 C 0.46252 0.66543 0.01406 0.0
C11 C 0.45132 0.66346 0.04922 0.0
C12 C 0.4709 0.63794 0.03317 0.0
H13 H 0.44145 0.647 0.10254 0.0
C14 C 0.42979 0.61402 0.16329 0.0
O15 O 0.37591 0.55816 0.12834 0.0
O16 O 0.38377 0.58491 0.09089 0.0
N17 N 0.47627 0.61009 0.05369 0.0
C18 C 0.48441 0.59599 0.04952 0.0
C19 C 0.49587 0.59575 0.01571 0.0
C20 C 0.49894 0.61005 0.98666 0.0
C21 C 0.49067 0.62457 -0.0082 0.0
C22 C 0.47963 0.62423 0.0263 0.0
H23 H 0.48204 0.58492 0.07167 0.0
O24 O 0.40739 0.56409 0.06204 0.0
O25 O 0.43129 0.59582 0.07748 0.0
O26 O 0.42835 0.5669 0.13556 0.0
O27 O 0.46359 0.59284 0.12664 0.0
C28 C 0.49265 0.63917 0.96383 0.0
C29 C 0.48352 0.65306 0.97071 0.0
H30 H 0.46323 0.67687 -0.00634 0.0
H31 H 0.44351 0.67337 0.05586 0.0
H32 H 0.50222 0.5845 0.01197 0.0
H33 H 0.50759 0.60968 0.96048 0.0
H34 H 0.50096 0.6397 0.93676 0.0
H35 H 0.48494 0.66408 0.94882 0.0
Mn36 Mn 0.86819 0.36974 0.37233 0.0
Mn37 Mn 0.85718 0.41064 0.37201 0.0
C38 C 0.87123 0.38718 0.31631 0.0
C39 C 0.85256 0.3341 0.36735 0.0
C40 C 0.90168 0.4122 0.40114 0.0
O41 O 0.85263 0.36778 0.42351 0.0
O42 O 0.84227 0.39313 0.417 0.0
C43 C 0.80742 0.38892 0.35765 0.0
N44 N 0.82857 0.40341 0.34731 0.0
C45 C 0.8134 0.41291 0.29227 0.0
C46 C 0.79143 0.3982 0.30249 0.0
C47 C 0.78844 0.38613 0.33528 0.0
C48 C 0.83165 0.41504 0.31573 0.0
H49 H 0.80508 0.37954 0.38273 0.0
C50 C 0.84226 0.37791 0.43522 0.0
O51 O 0.8724 0.34452 0.38335 0.0
O52 O 0.84199 0.34422 0.35522 0.0
N53 N 0.87043 0.42891 0.32984 0.0
C54 C 0.8928 0.44206 0.32341 0.0
C55 C 0.89875 0.45507 0.29142 0.0
C56 C 0.88165 0.45456 0.26659 0.0
C57 C 0.85872 0.44116 0.27417 0.0
C58 C 0.8538 0.42869 0.30669 0.0
H59 H 0.90603 0.44257 0.34241 0.0
O60 O 0.88061 0.37495 0.3193 0.0
O61 O 0.85963 0.38818 0.34568 0.0
O62 O 0.89782 0.39389 0.39215 0.0
O63 O 0.88719 0.41931 0.39668 0.0
C64 C 0.84057 0.43951 0.25048 0.0
C65 C 0.81794 0.42534 0.25944 0.0
H66 H 0.77675 0.39594 0.28523 0.0
H67 H 0.77155 0.37466 0.34324 0.0
H68 H 0.91648 0.46541 0.28583 0.0
H69 H 0.88632 0.46447 0.24174 0.0
H70 H 0.84386 0.44889 0.22505 0.0
H71 H 0.80417 0.42403 0.24073 0.0
Mn72 Mn 0.4898 0.86626 0.73494 0.0
Mn73 Mn 0.44036 0.86454 0.70351 0.0
C74 C 0.48472 0.86975 0.67082 0.0
C75 C 0.50974 0.8473 0.74864 0.0
C76 C 0.47766 0.90208 0.74191 0.0
O77 O 0.46856 0.8545 0.78034 0.0
O78 O 0.43566 0.85166 0.75489 0.0
C79 C 0.41428 0.81962 0.69419 0.0
N80 N 0.42282 0.83881 0.679 0.0
C81 C 0.40637 0.82546 0.61753 0.0
C82 C 0.39728 0.80555 0.63256 0.0
C83 C 0.40133 0.80262 0.67102 0.0
C84 C 0.41924 0.84179 0.64194 0.0
H85 H 0.41736 0.81732 0.72374 0.0
C86 C 0.44716 0.8491 0.78223 0.0
O87 O 0.51654 0.86563 0.76266 0.0
O88 O 0.4914 0.84007 0.72825 0.0
N89 N 0.44222 0.87638 0.65398 0.0
C90 C 0.45258 0.89653 0.64371 0.0
C91 C 0.45044 0.90207 0.60599 0.0
C92 C 0.43744 0.88688 0.57939 0.0
C93 C 0.4266 0.8663 0.59081 0.0
C94 C 0.42932 0.8617 0.62879 0.0
H95 H 0.46246 0.90828 0.66409 0.0
O96 O 0.5051 0.87588 0.68451 0.0
O97 O 0.46799 0.86145 0.69495 0.0
O98 O 0.49235 0.8951 0.74641 0.0
O99 O 0.45788 0.89158 0.72727 0.0
C100 C 0.41329 0.85015 0.56597 0.0
C101 C 0.40331 0.82973 0.57924 0.0
H102 H 0.38727 0.7924 0.61479 0.0
H103 H 0.39445 0.7873 0.68278 0.0
H104 H 0.45879 0.918 0.59744 0.0
H105 H 0.43592 0.8912 0.55027 0.0
H106 H 0.41085 0.85324 0.53645 0.0
H107 H 0.39339 0.81742 0.55969 0.0
Mn108 Mn 0.59158 0.43778 0.12371 0.0
Mn109 Mn 0.53772 0.4021 0.14176 0.0
C110 C 0.56444 0.42839 0.0763 0.0
C111 C 0.62817 0.44489 0.10243 0.0
C112 C 0.5563 0.44662 0.16646 0.0
O113 O 0.59498 0.42528 0.17369 0.0
O114 O 0.55898 0.40032 0.18054 0.0
C115 C 0.54359 0.36489 0.12621 0.0
N116 N 0.53264 0.37659 0.11915 0.0
C117 C 0.508 0.35232 0.07295 0.0
C118 C 0.51886 0.33991 0.08001 0.0
C119 C 0.53677 0.34625 0.1067 0.0
C120 C 0.51537 0.37062 0.09356 0.0
H121 H 0.55747 0.36978 0.1465 0.0
C122 C 0.57988 0.40983 0.19121 0.0
O123 O 0.62479 0.45821 0.12275 0.0
O124 O 0.6107 0.42739 0.09671 0.0
N125 N 0.51537 0.4019 0.10631 0.0
C126 C 0.50781 0.41632 0.10081 0.0
C127 C 0.4906 0.41277 0.07375 0.0
C128 C 0.48121 0.39439 0.05287 0.0
C129 C 0.48908 0.37968 0.05933 0.0
C130 C 0.50616 0.384 0.08686 0.0
H131 H 0.51501 0.43051 0.11667 0.0
O132 O 0.583 0.44543 0.07411 0.0
O133 O 0.56256 0.41682 0.10576 0.0
O134 O 0.57629 0.45312 0.15198 0.0
O135 O 0.54122 0.42791 0.16503 0.0
C136 C 0.48107 0.36115 0.03882 0.0
C137 C 0.49052 0.34748 0.04562 0.0
H138 H 0.51379 0.32561 0.06479 0.0
H139 H 0.54535 0.33683 0.11211 0.0
H140 H 0.48465 0.42421 0.06889 0.0
H141 H 0.4681 0.3918 0.03176 0.0
H142 H 0.4679 0.3574 0.01731 0.0
H143 H 0.48447 0.33342 0.02925 0.0
Mn144 Mn 0.14431 0.63539 0.36035 0.0
Mn145 Mn 0.15321 0.59491 0.33627 0.0
C146 C 0.13579 0.62214 0.29963 0.0
C147 C 0.16057 0.67116 0.36346 0.0
C148 C 0.11258 0.5912 0.38354 0.0
O149 O 0.16436 0.63392 0.40325 0.0
O150 O 0.1717 0.6083 0.38238 0.0
C151 C 0.20158 0.61757 0.31271 0.0
N152 N 0.17959 0.60421 0.30423 0.0
C153 C 0.18992 0.5999 0.24 0.0
C154 C 0.21271 0.61349 0.24813 0.0
C155 C 0.21855 0.62239 0.28462 0.0
C156 C 0.17377 0.59562 0.26917 0.0
H157 H 0.2061 0.62453 0.34066 0.0
C158 C 0.17418 0.62235 0.40653 0.0
O159 O 0.1429 0.66002 0.38447 0.0
O160 O 0.16885 0.66162 0.3424 0.0
N161 N 0.13644 0.58058 0.29203 0.0
C162 C 0.11357 0.56838 0.2884 0.0
C163 C 0.10483 0.55858 0.25337 0.0
C164 C 0.11969 0.56133 0.22255 0.0
C165 C 0.14319 0.57376 0.22711 0.0
C166 C 0.15094 0.58299 0.26279 0.0
H167 H 0.10207 0.56623 0.31199 0.0
O168 O 0.12695 0.63365 0.31249 0.0
O169 O 0.14951 0.61909 0.32265 0.0
O170 O 0.11659 0.6101 0.38253 0.0
O171 O 0.1255 0.58431 0.36827 0.0
C172 C 0.15919 0.57758 0.19752 0.0
C173 C 0.18253 0.59068 0.20392 0.0
H174 H 0.22583 0.61733 0.22648 0.0
H175 H 0.23608 0.63299 0.29105 0.0
H176 H 0.08668 0.54901 0.25009 0.0
H177 H 0.11286 0.55391 0.19547 0.0
H178 H 0.1537 0.57074 0.16956 0.0
H179 H 0.19462 0.59371 0.18079 0.0
Mn180 Mn 0.5389 0.15488 0.74345 0.0
Mn181 Mn 0.58889 0.15269 0.75573 0.0
C182 C 0.55776 0.15036 0.69159 0.0
C183 C 0.52112 0.17605 0.7321 0.0
C184 C 0.54259 0.11681 0.77225 0.0
O185 O 0.54808 0.16567 0.79757 0.0
O186 O 0.58265 0.16612 0.80038 0.0
C187 C 0.61977 0.19716 0.75205 0.0
N188 N 0.61333 0.17783 0.7387 0.0
C189 C 0.64336 0.19006 0.69169 0.0
C190 C 0.65042 0.21009 0.70513 0.0
C191 C 0.63854 0.21365 0.73539 0.0
C192 C 0.62459 0.17424 0.70951 0.0
H193 H 0.61061 0.19998 0.77517 0.0
C194 C 0.56691 0.1699 0.81456 0.0
O195 O 0.50965 0.1578 0.74651 0.0
O196 O 0.5426 0.18193 0.72611 0.0
N197 N 0.59728 0.14021 0.71444 0.0
C198 C 0.58794 0.12007 0.70419 0.0
C199 C 0.59762 0.11397 0.67395 0.0
C200 C 0.61691 0.12858 0.65481 0.0
C201 C 0.62648 0.14914 0.66632 0.0
C202 C 0.61622 0.15429 0.6969 0.0
H203 H 0.57313 0.10876 0.7188 0.0
O204 O 0.53629 0.14582 0.68911 0.0
O205 O 0.56765 0.15789 0.72393 0.0
O206 O 0.53001 0.12525 0.76171 0.0
O207 O 0.56443 0.12614 0.77247 0.0
C208 C 0.64558 0.16478 0.64829 0.0
C209 C 0.65398 0.18523 0.66091 0.0
H210 H 0.66482 0.22286 0.69224 0.0
H211 H 0.64381 0.22907 0.74578 0.0
H212 H 0.59018 0.09806 0.66531 0.0
H213 H 0.62418 0.12385 0.63123 0.0
H214 H 0.65377 0.16128 0.62442 0.0
H215 H 0.66852 0.19716 0.64654 0.0
Mn216 Mn 0.50263 0.64609 0.6076 0.0
Mn217 Mn 0.44961 0.60672 0.60806 0.0
C218 C 0.48814 0.62829 0.66317 0.0
C219 C 0.52412 0.68155 0.6137 0.0
C220 C 0.49113 0.60333 0.57685 0.0
O221 O 0.48908 0.64929 0.55735 0.0
O222 O 0.45287 0.62485 0.5637 0.0
C223 C 0.42379 0.63026 0.62461 0.0
N224 N 0.42943 0.615 0.63398 0.0
C225 C 0.40524 0.60608 0.68961 0.0
C226 C 0.39904 0.6216 0.6804 0.0
C227 C 0.40839 0.63376 0.6478 0.0
C228 C 0.42061 0.60326 0.66536 0.0
H229 H 0.43104 0.63971 0.59969 0.0
C230 C 0.46848 0.63994 0.54578 0.0
O231 O 0.53263 0.67071 0.59652 0.0
O232 O 0.50351 0.67195 0.62642 0.0
N233 N 0.44386 0.5879 0.64951 0.0
C234 C 0.45203 0.5739 0.65491 0.0
C235 C 0.44459 0.56069 0.68659 0.0
C236 C 0.42869 0.56187 0.71217 0.0
C237 C 0.4202 0.57613 0.70563 0.0
C238 C 0.42808 0.58877 0.67338 0.0
H239 H 0.46422 0.57288 0.63533 0.0
O240 O 0.50989 0.63986 0.65978 0.0
O241 O 0.47547 0.62818 0.63451 0.0
O242 O 0.50638 0.62135 0.58591 0.0
O243 O 0.46969 0.59703 0.58216 0.0
C244 C 0.40446 0.57849 0.73012 0.0
C245 C 0.39705 0.5935 0.7222 0.0
H246 H 0.38724 0.62441 0.69831 0.0
H247 H 0.40378 0.64584 0.64062 0.0
H248 H 0.45117 0.54968 0.69136 0.0
H249 H 0.42317 0.5518 0.73679 0.0
H250 H 0.39814 0.56899 0.75537 0.0
H251 H 0.38516 0.59533 0.7415 0.0
Mn252 Mn 0.83375 0.43865 0.87137 0.0
Mn253 Mn 0.85254 0.40296 0.8832 0.0
C254 C 0.84786 0.43526 0.92961 0.0
C255 C 0.80294 0.44637 0.87396 0.0
C256 C 0.87969 0.44347 0.84221 0.0
O257 O 0.82144 0.42045 0.82456 0.0
O258 O 0.83139 0.39542 0.83885 0.0
C259 C 0.80892 0.36805 0.90591 0.0
N260 N 0.83114 0.38103 0.91371 0.0
C261 C 0.8291 0.3648 0.97448 0.0
C262 C 0.80623 0.35116 0.96698 0.0
C263 C 0.7961 0.35282 0.93257 0.0
C264 C 0.84104 0.37961 0.94677 0.0
H265 H 0.80105 0.36936 0.87958 0.0
C266 C 0.8214 0.40326 0.81763 0.0
O267 O 0.82112 0.45784 0.85439 0.0
O268 O 0.80245 0.43029 0.89025 0.0
N269 N 0.87309 0.40832 0.92536 0.0
C270 C 0.89512 0.42301 0.92865 0.0
C271 C 0.90765 0.4236 0.96161 0.0
C272 C 0.89747 0.40905 -0.00929 0.0
C273 C 0.87488 0.39393 0.98648 0.0
C274 C 0.86333 0.39395 0.95278 0.0
H275 H 0.90305 0.43423 0.90638 0.0
O276 O 0.8463 0.45188 0.92146 0.0
O277 O 0.84048 0.42093 0.90385 0.0
O278 O 0.86606 0.45135 0.84845 0.0
O279 O 0.87573 0.42536 0.85252 0.0
C280 C 0.86328 0.37901 0.01457 0.0
C281 C 0.84039 0.36449 0.00861 0.0
H282 H 0.79625 0.33946 0.98755 0.0
H283 H 0.77843 0.34242 0.92667 0.0
H284 H 0.92509 0.4353 0.96465 0.0
H285 H 0.90714 0.40966 0.01622 0.0
H286 H 0.87173 0.37871 0.04103 0.0
H287 H 0.83157 0.35324 0.0306 0.0
Mn288 Mn 0.39241 0.86135 0.239 0.0
Mn289 Mn 0.44452 0.86362 0.22533 0.0
C290 C 0.416 0.86548 0.29039 0.0
C291 C 0.35352 0.83999 0.25038 0.0
C292 C 0.43399 0.8996 0.21048 0.0
O293 O 0.39061 0.85106 0.18443 0.0
O294 O 0.42461 0.85041 0.18081 0.0
C295 C 0.431 0.81914 0.22795 0.0
N296 N 0.44394 0.8384 0.24157 0.0
C297 C 0.46196 0.82593 0.28773 0.0
C298 C 0.44895 0.80598 0.274 0.0
C299 C 0.43337 0.80257 0.24403 0.0
C300 C 0.45893 0.84184 0.27048 0.0
H301 H 0.41891 0.81643 0.20506 0.0
C302 C 0.40508 0.84682 0.16697 0.0
O303 O 0.36021 0.85842 0.2369 0.0
O304 O 0.36917 0.8341 0.25562 0.0
N305 N 0.4656 0.87589 0.26643 0.0
C306 C 0.47646 0.89598 0.27699 0.0
C307 C 0.49238 0.90193 0.307 0.0
C308 C 0.49715 0.88722 0.32559 0.0
C309 C 0.4861 0.86672 0.31374 0.0
C310 C 0.47056 0.86173 0.2834 0.0
H311 H 0.47289 0.90736 0.26282 0.0
O312 O 0.39903 0.86993 0.29355 0.0
O313 O 0.41825 0.85821 0.25768 0.0
O314 O 0.41306 0.89114 0.22149 0.0
O315 O 0.44647 0.89024 0.2094 0.0
C316 C 0.48965 0.85099 0.33119 0.0
C317 C 0.47755 0.8306 0.31826 0.0
H318 H 0.45065 0.79314 0.28645 0.0
H319 H 0.42317 0.7872 0.23342 0.0
H320 H 0.50089 0.9178 0.3159 0.0
H321 H 0.50926 0.89183 0.349 0.0
H322 H 0.50146 0.85437 0.35487 0.0
H323 H 0.48024 0.81861 0.33219 0.0
Mn324 Mn 0.51305 0.38277 0.62442 0.0
Mn325 Mn 0.56085 0.42673 0.63935 0.0
C326 C 0.51809 0.3994 0.68182 0.0
C327 C 0.49603 0.34696 0.62875 0.0
C328 C 0.52082 0.42448 0.59245 0.0
O329 O 0.5341 0.38296 0.58204 0.0
O330 O 0.56602 0.41177 0.59556 0.0
C331 C 0.59138 0.40924 0.66541 0.0
N332 N 0.58109 0.42153 0.67189 0.0
C333 C 0.59892 0.43135 0.73365 0.0
C334 C 0.60985 0.41892 0.72751 0.0
C335 C 0.60604 0.4078 0.69326 0.0
C336 C 0.58473 0.43239 0.70465 0.0
H337 H 0.58836 0.40056 0.63923 0.0
C338 C 0.55482 0.39562 0.57552 0.0
O339 O 0.48787 0.35595 0.60539 0.0
O340 O 0.51399 0.35862 0.64796 0.0
N341 N 0.55824 0.44259 0.68092 0.0
C342 C 0.5449 0.45247 0.68368 0.0
C343 C 0.5458 0.46352 0.71702 0.0
C344 C 0.56043 0.46437 0.74707 0.0
C345 C 0.57408 0.45417 0.74348 0.0
C346 C 0.5726 0.44354 0.70945 0.0
H347 H 0.53352 0.45175 0.66077 0.0
O348 O 0.49785 0.38627 0.67093 0.0
O349 O 0.53484 0.40221 0.65869 0.0
O350 O 0.50749 0.40531 0.59675 0.0
O351 O 0.5409 0.43354 0.6065 0.0
C352 C 0.58862 0.45369 0.77274 0.0
C353 C 0.60104 0.4423 0.76781 0.0
H354 H 0.62099 0.4176 0.74909 0.0
H355 H 0.61431 0.39807 0.68842 0.0
H356 H 0.53515 0.47128 0.71963 0.0
H357 H 0.56089 0.47273 0.77291 0.0
H358 H 0.59008 0.46174 0.7994 0.0
H359 H 0.61188 0.44177 0.79076 0.0
Mn360 Mn 0.16331 0.56872 0.8595 0.0
Mn361 Mn 0.14727 0.60595 0.84319 0.0
C362 C 0.14943 0.58075 0.90875 0.0
C363 C 0.19234 0.56003 0.87601 0.0
C364 C 0.11799 0.56128 0.82263 0.0
O365 O 0.17703 0.57961 0.80723 0.0
O366 O 0.16784 0.60577 0.80162 0.0
C367 C 0.19228 0.64188 0.85315 0.0
N368 N 0.16995 0.63119 0.86349 0.0
C369 C 0.17399 0.65602 0.9119 0.0
C370 C 0.19698 0.66737 0.90157 0.0
C371 C 0.20616 0.66026 0.87209 0.0
C372 C 0.16094 0.6379 0.8918 0.0
H373 H 0.19945 0.63639 0.8307 0.0
C374 C 0.1777 0.59517 0.78953 0.0
O375 O 0.17399 0.54689 0.85881 0.0
O376 O 0.19406 0.57816 0.88185 0.0
N377 N 0.12751 0.60792 0.88161 0.0
C378 C 0.10523 0.59483 0.88892 0.0
C379 C 0.09362 0.59951 0.91815 0.0
C380 C 0.10499 0.61763 0.9394 0.0
C381 C 0.12781 0.63101 0.93096 0.0
C382 C 0.13842 0.62565 0.90122 0.0
H383 H 0.09642 0.58084 0.8728 0.0
O384 O 0.14974 0.56319 0.91163 0.0
O385 O 0.15794 0.59105 0.87759 0.0
O386 O 0.13122 0.55423 0.83606 0.0
O387 O 0.12278 0.58031 0.82267 0.0
C388 C 0.14054 0.64929 0.95128 0.0
C389 C 0.16362 0.66178 0.94178 0.0
H390 H 0.20779 0.68148 0.91628 0.0
H391 H 0.22392 0.66888 0.8641 0.0
H392 H 0.076 0.58912 0.92446 0.0
H393 H 0.09606 0.62107 0.96222 0.0
H394 H 0.13282 0.65379 0.97453 0.0
H395 H 0.1733 0.67569 0.95786 0.0
Mn396 Mn 0.63227 0.14995 0.2469 0.0
Mn397 Mn 0.58468 0.15217 0.27772 0.0
C398 C 0.6235 0.14661 0.31095 0.0
C399 C 0.67122 0.16854 0.2334 0.0
C400 C 0.58414 0.11438 0.23985 0.0
O401 O 0.6231 0.16179 0.20124 0.0
O402 O 0.59315 0.16495 0.2263 0.0
C403 C 0.60395 0.19714 0.2867 0.0
N404 N 0.59305 0.17799 0.30198 0.0
C405 C 0.58978 0.19154 0.36315 0.0
C406 C 0.60085 0.21141 0.34802 0.0
C407 C 0.60803 0.21422 0.30967 0.0
C408 C 0.5863 0.17513 0.33895 0.0
H409 H 0.60948 0.19935 0.25723 0.0
C410 C 0.60725 0.16736 0.19911 0.0
O411 O 0.65954 0.15022 0.21947 0.0
O412 O 0.66023 0.17599 0.25359 0.0
N413 N 0.57443 0.14046 0.32725 0.0
C414 C 0.56439 0.12033 0.33764 0.0
C415 C 0.55647 0.1149 0.37527 0.0
C416 C 0.55865 0.13018 0.40166 0.0
C417 C 0.56865 0.15075 0.3901 0.0
C418 C 0.57623 0.15524 0.35222 0.0
H419 H 0.56251 0.1085 0.31742 0.0
O420 O 0.63766 0.1403 0.2975 0.0
O421 O 0.61528 0.155 0.28664 0.0
O422 O 0.6058 0.12121 0.23547 0.0
O423 O 0.57497 0.12504 0.2542 0.0
C424 C 0.57148 0.16698 0.41471 0.0
C425 C 0.58219 0.18738 0.40133 0.0
H426 H 0.604 0.22462 0.36563 0.0
H427 H 0.61666 0.22951 0.29783 0.0
H428 H 0.5487 0.09898 0.38393 0.0
H429 H 0.55262 0.12595 0.43071 0.0
H430 H 0.56573 0.16397 0.44413 0.0
H431 H 0.58457 0.19975 0.42071 0.0
C432 C 0.44821 0.64438 0.20666 0.0
C433 C 0.43004 0.625 0.19903 0.0
C434 C 0.45072 0.6532 0.24284 0.0
C435 C 0.42309 0.64808 0.33789 0.0
H436 H 0.48371 0.66127 0.3759 0.0
C437 C 0.44087 0.63411 0.49227 0.0
C438 C 0.46248 0.64592 0.50854 0.0
C439 C 0.43612 0.63794 0.45507 0.0
C440 C 0.46685 0.65823 0.36582 0.0
H441 H 0.39913 0.60058 0.2225 0.0
H442 H 0.40372 0.61583 0.28569 0.0
H443 H 0.47621 0.6567 0.30789 0.0
H444 H 0.49537 0.6722 0.49957 0.0
H445 H 0.48693 0.67904 0.43474 0.0
H446 H 0.41357 0.64877 0.39627 0.0
C447 C 0.41597 0.62427 0.26366 0.0
C448 C 0.46253 0.65558 0.32666 0.0
C449 C 0.41343 0.61544 0.22744 0.0
C450 C 0.47868 0.66258 0.4877 0.0
C451 C 0.47386 0.66649 0.4505 0.0
C452 C 0.42745 0.65084 0.37716 0.0
C453 C 0.43512 0.64285 0.27215 0.0
C454 C 0.44042 0.64973 0.31241 0.0
C455 C 0.4528 0.65377 0.4333 0.0
C456 C 0.44918 0.65516 0.39167 0.0
H457 H 0.46112 0.65237 0.18524 0.0
H458 H 0.46544 0.66771 0.24837 0.0
H459 H 0.40597 0.64388 0.32763 0.0
H460 H 0.42789 0.62124 0.50753 0.0
H461 H 0.41981 0.62768 0.44268 0.0
C462 C 0.82063 0.3846 0.48789 0.0
C463 C 0.83037 0.37251 0.47261 0.0
C464 C 0.81159 0.38106 0.52478 0.0
C465 C 0.81962 0.36058 0.61578 0.0
H466 H 0.77229 0.37511 0.64914 0.0
C467 C 0.80981 0.37308 0.77396 0.0
C468 C 0.81124 0.39256 0.78138 0.0
C469 C 0.80452 0.36461 0.73737 0.0
C470 C 0.78543 0.37086 0.64022 0.0
H471 H 0.83669 0.3462 0.48326 0.0
H472 H 0.8206 0.33986 0.54762 0.0
H473 H 0.77695 0.3705 0.581 0.0
H474 H 0.80608 0.41751 0.75701 0.0
H475 H 0.79712 0.40283 0.6931 0.0
H476 H 0.82869 0.36168 0.67465 0.0
C477 C 0.82044 0.35239 0.53125 0.0
C478 C 0.78815 0.36827 0.60125 0.0
C479 C 0.82962 0.356 0.49432 0.0
C480 C 0.80529 0.40255 0.75225 0.0
C481 C 0.80002 0.39407 0.71561 0.0
C482 C 0.8168 0.36303 0.65466 0.0
C483 C 0.8119 0.36524 0.54729 0.0
C484 C 0.80584 0.36386 0.5885 0.0
C485 C 0.80052 0.37542 0.70745 0.0
C486 C 0.80022 0.36891 0.6672 0.0
H487 H 0.82074 0.39738 0.47197 0.0
H488 H 0.80546 0.39146 0.53629 0.0
H489 H 0.83361 0.35746 0.60709 0.0
H490 H 0.81386 0.36475 0.79591 0.0
H491 H 0.80463 0.35004 0.73206 0.0
C492 C 0.44595 0.83529 0.84833 0.0
C493 C 0.43504 0.8404 0.81853 0.0
C494 C 0.43531 0.82907 0.88385 0.0
C495 C 0.39634 0.83818 0.94488 0.0
H496 H 0.40182 0.79765 0.01005 0.0
C497 C 0.38175 0.83831 0.10655 0.0
C498 C 0.39981 0.83809 0.12795 0.0
C499 C 0.37895 0.83246 0.06803 0.0
C500 C 0.40008 0.80898 -0.00782 0.0
H501 H 0.40382 0.84191 0.80216 0.0
H502 H 0.38548 0.83132 0.86436 0.0
H503 H 0.41082 0.79879 0.94201 0.0
H504 H 0.42794 0.83001 0.12649 0.0
H505 H 0.42342 0.82039 0.0598 0.0
H506 H 0.38716 0.84934 -0.00484 0.0
C507 C 0.40227 0.83218 0.86014 0.0
C508 C 0.40519 0.80959 0.95328 0.0
C509 C 0.41281 0.83822 0.82452 0.0
C510 C 0.41402 0.83066 0.11077 0.0
C511 C 0.41124 0.82485 0.07248 0.0
C512 C 0.39145 0.8377 0.98382 0.0
C513 C 0.41361 0.82797 0.89036 0.0
C514 C 0.40413 0.82466 0.92958 0.0
C515 C 0.3941 0.82623 0.05031 0.0
C516 C 0.39413 0.82361 0.00819 0.0
H517 H 0.46299 0.83664 0.84463 0.0
H518 H 0.44455 0.82611 0.90678 0.0
H519 H 0.39554 0.85006 0.92732 0.0
H520 H 0.37038 0.84379 0.11903 0.0
H521 H 0.36539 0.83344 0.05181 0.0
C522 C 0.57356 0.3832 0.24069 0.0
C523 C 0.58602 0.40342 0.2277 0.0
C524 C 0.57614 0.37798 0.27814 0.0
C525 C 0.56771 0.3773 0.36224 0.0
H526 H 0.62086 0.40465 0.42716 0.0
C527 C 0.58397 0.40868 0.52312 0.0
C528 C 0.5657 0.39223 0.54096 0.0
C529 C 0.5912 0.40632 0.48663 0.0
C530 C 0.60591 0.39682 0.40934 0.0
H531 H 0.61225 0.43366 0.24259 0.0
H532 H 0.6161 0.42481 0.30846 0.0
H533 H 0.62533 0.40689 0.35755 0.0
H534 H 0.54244 0.35983 0.53651 0.0
H535 H 0.55536 0.35564 0.4733 0.0
H536 H 0.54812 0.36793 0.41347 0.0
C537 C 0.60469 0.41281 0.28964 0.0
C538 C 0.60845 0.39812 0.3695 0.0
C539 C 0.6024 0.41794 0.25189 0.0
C540 C 0.55625 0.37292 0.52317 0.0
C541 C 0.56363 0.37052 0.48693 0.0
C542 C 0.56521 0.37594 0.40183 0.0
C543 C 0.59085 0.39298 0.30367 0.0
C544 C 0.58925 0.38884 0.3455 0.0
C545 C 0.58042 0.38742 0.4675 0.0
C546 C 0.58415 0.38613 0.42588 0.0
H547 H 0.56109 0.3716 0.22239 0.0
H548 H 0.5657 0.36241 0.28765 0.0
H549 H 0.55243 0.37031 0.34489 0.0
H550 H 0.59166 0.42374 0.53614 0.0
H551 H 0.6041 0.41968 0.47242 0.0
C552 C 0.18981 0.63846 0.47006 0.0
C553 C 0.1874 0.62391 0.44183 0.0
C554 C 0.19865 0.63763 0.506 0.0
C555 C 0.19919 0.59883 0.5701 0.0
H556 H 0.23141 0.64531 0.63703 0.0
C557 C 0.19614 0.58764 0.73252 0.0
C558 C 0.18939 0.60088 0.752 0.0
C559 C 0.20426 0.59195 0.69493 0.0
C560 C 0.22248 0.63215 0.61867 0.0
H561 H 0.19437 0.59823 0.42825 0.0
H562 H 0.20976 0.59683 0.49102 0.0
H563 H 0.23093 0.65074 0.56813 0.0
H564 H 0.18766 0.62986 0.74827 0.0
H565 H 0.20127 0.63706 0.68301 0.0
H566 H 0.1895 0.58038 0.6205 0.0
C567 C 0.20447 0.60867 0.48544 0.0
C568 C 0.22224 0.63527 0.57925 0.0
C569 C 0.19569 0.60953 0.44943 0.0
C570 C 0.1924 0.61915 0.73401 0.0
C571 C 0.20051 0.62344 0.6966 0.0
C572 C 0.19934 0.59573 0.60946 0.0
C573 C 0.20527 0.62224 0.51452 0.0
C574 C 0.20985 0.61873 0.55474 0.0
C575 C 0.20588 0.6096 0.67617 0.0
C576 C 0.21021 0.61245 0.63435 0.0
H577 H 0.1838 0.64988 0.46516 0.0
H578 H 0.19887 0.64823 0.52786 0.0
H579 H 0.18927 0.58577 0.55209 0.0
H580 H 0.19424 0.57353 0.74564 0.0
H581 H 0.20856 0.58111 0.68011 0.0
C582 C 0.58434 0.17884 0.15677 0.0
C583 C 0.60408 0.17616 0.16273 0.0
C584 C 0.58002 0.185 0.12114 0.0
C585 C 0.6057 0.20706 0.02781 0.0
H586 H 0.54733 0.16821 0.98642 0.0
C587 C 0.59245 0.18592 0.87036 0.0
C588 C 0.57076 0.1788 0.85347 0.0
C589 C 0.59576 0.19181 0.90861 0.0
C590 C 0.56344 0.17961 -0.00238 0.0
H591 H 0.63547 0.17914 0.13655 0.0
H592 H 0.62788 0.18988 0.07435 0.0
H593 H 0.55506 0.16737 0.05418 0.0
H594 H 0.5359 0.17379 0.86283 0.0
H595 H 0.54177 0.1843 0.92994 0.0
H596 H 0.61437 0.21889 0.97098 0.0
C597 C 0.61577 0.18722 0.09733 0.0
C598 C 0.5679 0.17907 0.03652 0.0
C599 C 0.62002 0.18088 0.13287 0.0
C600 C 0.55277 0.17901 0.87509 0.0
C601 C 0.55611 0.18495 0.91355 0.0
C602 C 0.60116 0.20775 0.98895 0.0
C603 C 0.59546 0.18882 0.09086 0.0
C604 C 0.58939 0.19224 0.05165 0.0
C605 C 0.5775 0.19083 0.93102 0.0
C606 C 0.58035 0.19344 0.97311 0.0
H607 H 0.57174 0.17548 0.17918 0.0
H608 H 0.56431 0.18626 0.11695 0.0
H609 H 0.62227 0.2176 0.03895 0.0
H610 H 0.60681 0.18624 0.85447 0.0
H611 H 0.6124 0.19599 0.92108 0.0
C612 C 0.33012 0.54093 0.08946 0.0
C613 C 0.34437 0.56172 0.0972 0.0
C614 C 0.31034 0.53529 0.06722 0.0
C615 C 0.29563 0.55434 0.98549 0.0
H616 H 0.23068 0.52732 0.00687 0.0
C617 C 0.23169 0.57016 0.89934 0.0
C618 C 0.20965 0.55455 0.89234 0.0
C619 C 0.24713 0.56637 0.92131 0.0
C620 C 0.24874 0.53445 0.00019 0.0
H621 H 0.34799 0.59258 0.0915 0.0
H622 H 0.31357 0.58273 0.05325 0.0
H623 H 0.25797 0.52883 0.05658 0.0
H624 H 0.18667 0.52249 0.90168 0.0
H625 H 0.21387 0.5158 0.94064 0.0
H626 H 0.28682 0.56061 0.92982 0.0
C627 C 0.31771 0.57086 0.0639 0.0
C628 C 0.26428 0.53536 0.02867 0.0
C629 C 0.33733 0.57645 0.08591 0.0
C630 C 0.20367 0.53474 0.90631 0.0
C631 C 0.21911 0.53098 0.92892 0.0
C632 C 0.28021 0.55335 0.95713 0.0
C633 C 0.3047 0.55041 0.05285 0.0
C634 C 0.28784 0.54592 0.0218 0.0
C635 C 0.24087 0.5469 0.93722 0.0
C636 C 0.25663 0.54408 0.96456 0.0
H637 H 0.33534 0.52931 0.09741 0.0
H638 H 0.30051 0.51943 0.05884 0.0
H639 H 0.31377 0.56244 0.97957 0.0
H640 H 0.23673 0.5856 0.88906 0.0
H641 H 0.26361 0.57906 0.9275 0.0
C642 C 0.85142 0.304 0.3322 0.0
C643 C 0.84231 0.31187 0.36045 0.0
C644 C 0.83811 0.2845 0.31665 0.0
C645 C 0.78468 0.23615 0.32857 0.0
H646 H 0.77725 0.23985 0.21921 0.0
C647 C 0.71005 0.17221 0.24823 0.0
C648 C 0.69627 0.18011 0.23116 0.0
C649 C 0.73261 0.1854 0.25877 0.0
C650 C 0.77937 0.23843 0.24962 0.0
H651 H 0.81287 0.30544 0.396 0.0
H652 H 0.79 0.27116 0.37021 0.0
H653 H 0.80857 0.26782 0.25252 0.0
H654 H 0.69548 0.20748 0.20926 0.0
H655 H 0.73499 0.23031 0.22593 0.0
H656 H 0.75481 0.20722 0.326 0.0
C657 C 0.80732 0.27988 0.35994 0.0
C658 C 0.79739 0.25439 0.26868 0.0
C659 C 0.82041 0.29947 0.37484 0.0
C660 C 0.70594 0.20099 0.22173 0.0
C661 C 0.72855 0.21406 0.23144 0.0
C662 C 0.76686 0.22006 0.30943 0.0
C663 C 0.81564 0.2725 0.32958 0.0
C664 C 0.79974 0.25376 0.3086 0.0
C665 C 0.7418 0.2066 0.2517 0.0
C666 C 0.76351 0.22136 0.26996 0.0
H667 H 0.86806 0.31352 0.32001 0.0
H668 H 0.84496 0.2792 0.29329 0.0
H669 H 0.7861 0.23521 0.35931 0.0
H670 H 0.7028 0.15624 0.25661 0.0
H671 H 0.74245 0.17923 0.27428 0.0
C672 C 0.51133 0.81453 0.75986 0.0
C673 C 0.52293 0.83547 0.75108 0.0
C674 C 0.52071 0.80132 0.7503 0.0
C675 C 0.55426 0.79557 0.67372 0.0
H676 H 0.54574 0.74681 0.72973 0.0
C677 C 0.52887 0.71687 0.60529 0.0
C678 C 0.53693 0.70367 0.62101 0.0
C679 C 0.53553 0.73639 0.6207 0.0
C680 C 0.54869 0.76051 0.71382 0.0
H681 H 0.55386 0.85929 0.72697 0.0
H682 H 0.5703 0.83608 0.70963 0.0
H683 H 0.54234 0.77473 0.76307 0.0
H684 H 0.55871 0.70055 0.66435 0.0
H685 H 0.57034 0.73477 0.69171 0.0
H686 H 0.55924 0.78082 0.624 0.0
C687 C 0.55407 0.82994 0.72447 0.0
C688 C 0.54659 0.77644 0.73291 0.0
C689 C 0.54483 0.84326 0.73483 0.0
C690 C 0.55276 0.7107 0.65112 0.0
C691 C 0.55915 0.73015 0.66705 0.0
C692 C 0.55609 0.77952 0.65454 0.0
C693 C 0.5417 0.80871 0.73087 0.0
C694 C 0.54866 0.79388 0.71284 0.0
C695 C 0.54997 0.74292 0.65282 0.0
C696 C 0.55263 0.76154 0.67413 0.0
H697 H 0.49423 0.80812 0.7717 0.0
H698 H 0.51062 0.78505 0.75529 0.0
H699 H 0.55574 0.8087 0.65733 0.0
H700 H 0.51619 0.71155 0.58272 0.0
H701 H 0.5279 0.7457 0.60935 0.0
C702 C 0.66635 0.47009 0.07599 0.0
C703 C 0.64975 0.44976 0.08185 0.0
C704 C 0.68427 0.47442 0.0499 0.0
C705 C 0.69537 0.45291 0.96267 0.0
H706 H 0.76006 0.48292 0.98452 0.0
C707 C 0.76236 0.43646 0.88822 0.0
C708 C 0.78449 0.45209 0.88212 0.0
C709 C 0.74585 0.44071 0.90573 0.0
C710 C 0.74205 0.47495 0.97758 0.0
H711 H 0.63988 0.41801 0.06718 0.0
H712 H 0.67083 0.42556 0.02217 0.0
H713 H 0.7321 0.48186 0.03223 0.0
H714 H 0.80653 0.48461 0.88764 0.0
H715 H 0.77749 0.49214 0.91875 0.0
H716 H 0.70506 0.44537 0.90875 0.0
C717 C 0.66986 0.43817 0.03703 0.0
C718 C 0.72609 0.47428 0.00498 0.0
C719 C 0.65222 0.43386 0.06307 0.0
C720 C 0.78945 0.47235 0.89158 0.0
C721 C 0.77295 0.4766 0.90978 0.0
C722 C 0.71123 0.45367 0.93532 0.0
C723 C 0.68563 0.45848 0.02922 0.0
C724 C 0.70263 0.46254 -0.00169 0.0
C725 C 0.75118 0.46068 0.91806 0.0
C726 C 0.73475 0.46397 0.94306 0.0
H727 H 0.66485 0.48267 0.08996 0.0
H728 H 0.69637 0.49022 0.04454 0.0
H729 H 0.67734 0.44407 0.95653 0.0
H730 H 0.75818 0.42069 0.88143 0.0
H731 H 0.72938 0.42803 0.91199 0.0
C732 C 0.18186 0.70625 0.39175 0.0
C733 C 0.17077 0.69365 0.36054 0.0
C734 C 0.19757 0.72684 0.38567 0.0
C735 C 0.22289 0.76753 0.30946 0.0
H736 H 0.27986 0.77778 0.35915 0.0
C737 C 0.31287 0.83323 0.26564 0.0
C738 C 0.32972 0.82635 0.2624 0.0
C739 C 0.29135 0.82039 0.28141 0.0
C740 C 0.26405 0.77526 0.34516 0.0
H741 H 0.16588 0.69276 0.29927 0.0
H742 H 0.19282 0.72831 0.28861 0.0
H743 H 0.24444 0.75006 0.38183 0.0
H744 H 0.33673 0.80029 0.2716 0.0
H745 H 0.29973 0.77827 0.29846 0.0
H746 H 0.24303 0.79205 0.27118 0.0
C747 C 0.18954 0.72275 0.31778 0.0
C748 C 0.24363 0.75949 0.35854 0.0
C749 C 0.17407 0.70229 0.32384 0.0
C750 C 0.32432 0.80625 0.27398 0.0
C751 C 0.3031 0.79361 0.28976 0.0
C752 C 0.24341 0.78337 0.29605 0.0
C753 C 0.20235 0.73507 0.34831 0.0
C754 C 0.22286 0.75484 0.33992 0.0
C755 C 0.28649 0.80059 0.29445 0.0
C756 C 0.26432 0.7868 0.31277 0.0
H757 H 0.17983 0.69983 0.42023 0.0
H758 H 0.20694 0.73596 0.40992 0.0
H759 H 0.20716 0.7646 0.29479 0.0
H760 H 0.31652 0.84865 0.25706 0.0
H761 H 0.2788 0.82614 0.28442 0.0
C762 C 0.48734 0.184 0.72504 0.0
C763 C 0.51068 0.18948 0.72003 0.0
C764 C 0.47811 0.19685 0.71133 0.0
C765 C 0.49022 0.23894 0.64157 0.0
H766 H 0.45626 0.25692 0.70987 0.0
C767 C 0.4864 0.31766 0.67253 0.0
C768 C 0.48566 0.32461 0.63536 0.0
C769 C 0.4811 0.29721 0.67934 0.0
C770 C 0.46552 0.2519 0.69023 0.0
H771 H 0.54255 0.21284 0.69697 0.0
H772 H 0.52664 0.23482 0.67353 0.0
H773 H 0.46393 0.22832 0.72854 0.0
H774 H 0.47755 0.31544 0.57628 0.0
H775 H 0.46842 0.27932 0.58803 0.0
H776 H 0.49321 0.26328 0.6044 0.0
C777 C 0.51531 0.2206 0.68744 0.0
C778 C 0.46975 0.2354 0.70084 0.0
C779 C 0.52449 0.20801 0.70134 0.0
C780 C 0.47812 0.31041 0.60524 0.0
C781 C 0.47308 0.28982 0.61199 0.0
C782 C 0.48598 0.25538 0.63094 0.0
C783 C 0.49202 0.21518 0.69191 0.0
C784 C 0.48305 0.22936 0.67737 0.0
C785 C 0.47517 0.28313 0.64904 0.0
C786 C 0.47446 0.26267 0.65589 0.0
H787 H 0.47625 0.16981 0.73925 0.0
H788 H 0.4601 0.19233 0.71539 0.0
H789 H 0.50019 0.23439 0.62253 0.0
H790 H 0.49212 0.3283 0.69631 0.0
H791 H 0.48323 0.29282 0.7081 0.0
C792 C 0.48474 0.57053 0.15603 0.0
C793 C 0.46082 0.56284 0.15658 0.0
C794 C 0.49508 0.55851 0.16819 0.0
C795 C 0.48208 0.50422 0.17951 0.0
H796 H 0.54378 0.52762 0.21989 0.0
C797 C 0.52771 0.45433 0.20115 0.0
C798 C 0.54871 0.46152 0.18172 0.0
C799 C 0.51772 0.46731 0.20821 0.0
C800 C 0.52653 0.52089 0.20873 0.0
H801 H 0.42914 0.53677 0.17265 0.0
H802 H 0.44727 0.51591 0.19495 0.0
H803 H 0.52379 0.54886 0.2149 0.0
H804 H 0.5766 0.4885 0.15752 0.0
H805 H 0.55911 0.51126 0.17012 0.0
H806 H 0.4849 0.47634 0.17307 0.0
C807 C 0.45799 0.53112 0.18405 0.0
C808 C 0.51507 0.53304 0.2057 0.0
C809 C 0.44757 0.54313 0.17147 0.0
C810 C 0.56042 0.48245 0.17251 0.0
C811 C 0.5504 0.4955 0.17973 0.0
C812 C 0.49341 0.49205 0.18299 0.0
C813 C 0.48185 0.5385 0.18171 0.0
C814 C 0.49289 0.52499 0.19014 0.0
C815 C 0.52853 0.48781 0.19623 0.0
C816 C 0.51591 0.50035 0.19688 0.0
H817 H 0.49561 0.58565 0.14482 0.0
H818 H 0.51342 0.56467 0.16531 0.0
H819 H 0.46523 0.49752 0.16676 0.0
H820 H 0.51833 0.43836 0.2092 0.0
H821 H 0.50104 0.46107 0.22161 0.0
C822 C 0.92709 0.44265 0.43956 0.0
C823 C 0.92477 0.42725 0.41338 0.0
C824 C 0.9481 0.45987 0.44454 0.0
C825 C 0.98763 0.50099 0.42753 0.0
H826 H 0.04617 0.50096 0.41262 0.0
C827 C 0.06998 0.57457 0.38991 0.0
C828 C 0.09113 0.57559 0.40039 0.0
C829 C 0.04967 0.55692 0.39785 0.0
C830 C 0.03005 0.50135 0.41752 0.0
H831 H 0.94282 0.41737 0.37296 0.0
H832 H 0.97945 0.44762 0.38082 0.0
H833 H 0.01185 0.46862 0.4166 0.0
H834 H 0.10765 0.55975 0.42974 0.0
H835 H 0.0724 0.52959 0.44554 0.0
H836 H 1.00589 0.53371 0.42938 0.0
C837 C 0.96522 0.44628 0.39832 0.0
C838 C 0.01023 0.48268 0.41918 0.0
C839 C 0.94421 0.42884 0.39384 0.0
C840 C 0.09153 0.55933 0.4213 0.0
C841 C 0.0713 0.5419 0.42983 0.0
C842 C 0.00748 0.51965 0.42628 0.0
C843 C 0.96726 0.46237 0.42284 0.0
C844 C 0.98867 0.4822 0.42377 0.0
C845 C 0.05012 0.54004 0.41688 0.0
C846 C 0.02899 0.52015 0.42083 0.0
H847 H 0.91236 0.4418 0.45504 0.0
H848 H 0.94907 0.47155 0.46454 0.0
H849 H 0.97139 0.5014 0.43044 0.0
H850 H 0.06923 0.58674 0.37317 0.0
H851 H 0.03379 0.5561 0.38709 0.0
C852 C 0.51001 0.08113 0.76825 0.0
C853 C 0.5321 0.09449 0.78085 0.0
C854 C 0.50223 0.05983 0.76983 0.0
C855 C 0.51606 0.01877 0.80906 0.0
H856 H 0.48448 0.98953 0.71802 0.0
C857 C 0.50511 0.93733 0.76653 0.0
C858 C 0.48349 0.92367 0.75233 0.0
C859 C 0.51035 0.95791 0.77377 0.0
C860 C 0.49312 0.99741 0.74382 0.0
H861 H 0.56266 0.09578 0.80758 0.0
H862 H 0.54938 0.0591 0.80967 0.0
H863 H 0.49331 0.02542 0.72553 0.0
H864 H 0.45025 0.92109 0.73585 0.0
H865 H 0.45942 0.95648 0.74832 0.0
H866 H 0.51632 0.99068 0.82666 0.0
C867 C 0.53788 0.06484 0.79879 0.0
C868 C 0.49805 0.018 0.74828 0.0
C869 C 0.54558 0.08602 0.79733 0.0
C870 C 0.46717 0.93103 0.74647 0.0
C871 C 0.47243 0.95145 0.75344 0.0
C872 C 0.51127 0.99816 0.80442 0.0
C873 C 0.51637 0.05143 0.78404 0.0
C874 C 0.50965 0.02903 0.7809 0.0
C875 C 0.49414 0.96524 0.76666 0.0
C876 C 0.49973 0.98725 0.77173 0.0
H877 H 0.49916 0.08709 0.7554 0.0
H878 H 0.48536 0.04996 0.75892 0.0
H879 H 0.52478 0.02664 0.8348 0.0
H880 H 0.51808 0.93224 0.77142 0.0
H881 H 0.52728 0.96822 0.78388 0.0
C882 C 0.51641 0.58581 0.58014 0.0
C883 C 0.49795 0.58764 0.56336 0.0
C884 C 0.51912 0.56798 0.57474 0.0
C885 C 0.52524 0.53055 0.55079 0.0
H886 H 0.46855 0.48023 0.55151 0.0
C887 C 0.52725 0.45292 0.54776 0.0
C888 C 0.51271 0.4381 0.57365 0.0
C889 C 0.52396 0.47006 0.53881 0.0
C890 C 0.48456 0.4941 0.55138 0.0
H891 H 0.46894 0.57304 0.52539 0.0
H892 H 0.4742 0.5425 0.51461 0.0
H893 H 0.46748 0.5131 0.5511 0.0
H894 H 0.48272 0.42904 0.60915 0.0
H895 H 0.47697 0.45909 0.59401 0.0
H896 H 0.54231 0.51159 0.55318 0.0
C897 C 0.48614 0.55437 0.53307 0.0
C898 C 0.48397 0.51304 0.55061 0.0
C899 C 0.4833 0.57202 0.53884 0.0
C900 C 0.49384 0.44 0.58841 0.0
C901 C 0.4907 0.45735 0.57987 0.0
C902 C 0.52582 0.51162 0.55177 0.0
C903 C 0.50352 0.55171 0.55214 0.0
C904 C 0.50431 0.53156 0.5506 0.0
C905 C 0.5063 0.47303 0.55617 0.0
C906 C 0.50548 0.4931 0.55236 0.0
H907 H 0.52775 0.59746 0.59964 0.0
H908 H 0.53265 0.5665 0.59011 0.0
H909 H 0.54125 0.54441 0.55045 0.0
H910 H 0.54205 0.45186 0.53624 0.0
H911 H 0.53594 0.48146 0.51963 0.0
C912 C 0.08324 0.52761 0.82793 0.0
C913 C 0.09478 0.54677 0.8101 0.0
C914 C 0.05988 0.51559 0.82171 0.0
C915 C 0.01099 0.48944 0.79794 0.0
H916 H 0.97546 0.51979 0.79009 0.0
C917 C 0.91318 0.4471 0.80326 0.0
C918 C 0.90229 0.45625 0.8252 0.0
C919 C 0.93601 0.45828 0.7925 0.0
C920 C 0.98506 0.51103 0.79251 0.0
H921 H 0.09144 0.5677 0.76949 0.0
H922 H 0.05102 0.54632 0.75705 0.0
H923 H 0.0168 0.53804 0.78875 0.0
H924 H 0.9064 0.48443 0.85192 0.0
H925 H 0.94647 0.5038 0.83462 0.0
H926 H 0.97935 0.46263 0.80476 0.0
C927 C 0.05966 0.54087 0.7771 0.0
C928 C 0.00889 0.5215 0.79105 0.0
C929 C 0.0829 0.55305 0.7839 0.0
C930 C 0.91432 0.47707 0.83465 0.0
C931 C 0.93733 0.48817 0.82458 0.0
C932 C 0.98719 0.47901 0.80005 0.0
C933 C 0.04762 0.52232 0.79697 0.0
C934 C 0.02222 0.51089 0.7944 0.0
C935 C 0.94867 0.47876 0.80422 0.0
C936 C 0.97387 0.4897 0.798 0.0
H937 H 0.09189 0.52248 0.84859 0.0
H938 H 0.05127 0.50157 0.83798 0.0
H939 H 0.02058 0.48065 0.79988 0.0
H940 H 0.9042 0.43109 0.7953 0.0
H941 H 0.94387 0.45064 0.77587 0.0
C942 C 0.43718 0.9353 0.2154 0.0
C943 C 0.4458 0.92196 0.20218 0.0
C944 C 0.45069 0.9566 0.21386 0.0
C945 C 0.50523 0.9977 0.17359 0.0
H946 H 0.50362 0.02696 0.26508 0.0
C947 C 0.5761 0.07907 0.21527 0.0
C948 C 0.56827 0.09279 0.22969 0.0
C949 C 0.56068 0.05849 0.20825 0.0
C950 C 0.50417 0.01906 0.23916 0.0
H951 H 0.47485 0.92073 0.17448 0.0
H952 H 0.49823 0.9574 0.17249 0.0
H953 H 0.47651 0.99106 0.25787 0.0
H954 H 0.53776 0.09545 0.24688 0.0
H955 H 0.51141 0.06005 0.2348 0.0
H956 H 0.53342 0.02577 0.15558 0.0
C957 C 0.48107 0.95164 0.1838 0.0
C958 C 0.48848 0.99847 0.23487 0.0
C959 C 0.46762 0.93047 0.18521 0.0
C960 C 0.54465 0.08547 0.23604 0.0
C961 C 0.52941 0.06504 0.22931 0.0
C962 C 0.52108 0.0183 0.17806 0.0
C963 C 0.4731 0.96503 0.19908 0.0
C964 C 0.48879 0.98744 0.20209 0.0
C965 C 0.5372 0.05121 0.21582 0.0
C966 C 0.52073 0.02922 0.21092 0.0
H967 H 0.42048 0.92932 0.22863 0.0
H968 H 0.44377 0.96645 0.2252 0.0
H969 H 0.50585 0.98982 0.14771 0.0
H970 H 0.59412 0.08412 0.21002 0.0
H971 H 0.5672 0.04814 0.19793 0.0
C972 C 0.48632 0.60655 0.71863 0.0
C973 C 0.47893 0.61958 0.70043 0.0
C974 C 0.47902 0.59965 0.75568 0.0
C975 C 0.43646 0.59639 0.82895 0.0
H976 H 0.4811 0.59451 0.89976 0.0
C977 C 0.42932 0.59966 -0.00799 0.0
C978 C 0.43194 0.58444 0.01276 0.0
C979 C 0.43421 0.60202 0.95306 0.0
C980 C 0.46845 0.59477 0.88011 0.0
H981 H 0.45973 0.63697 0.70661 0.0
H982 H 0.44736 0.62545 0.7718 0.0
H983 H 0.49111 0.60209 0.83241 0.0
H984 H 0.44039 0.55904 0.00972 0.0
H985 H 0.44983 0.56361 0.94119 0.0
H986 H 0.41424 0.59001 0.8773 0.0
C987 C 0.4578 0.61964 0.75711 0.0
C988 C 0.47407 0.59899 0.84156 0.0
C989 C 0.46486 0.62628 0.71991 0.0
C990 C 0.43888 0.5712 -0.00589 0.0
C991 C 0.44419 0.57378 0.95521 0.0
C992 C 0.43098 0.59245 0.86755 0.0
C993 C 0.46482 0.60626 0.77544 0.0
C994 C 0.45823 0.60011 0.81566 0.0
C995 C 0.44175 0.58914 0.93446 0.0
C996 C 0.44703 0.59186 0.8934 0.0
H997 H 0.49762 0.60164 0.70406 0.0
H998 H 0.48457 0.58922 0.76886 0.0
H999 H 0.42373 0.59675 0.80963 0.0
H1000 H 0.42327 0.60958 0.00587 0.0
H1001 H 0.43232 0.614 0.93753 0.0
C1002 C 0.8902 0.40788 0.25919 0.0
C1003 C 0.87012 0.3955 0.27892 0.0
C1004 C 0.88907 0.4146 0.22226 0.0
C1005 C 0.84831 0.4185 0.1525 0.0
H1006 H 0.89313 0.42031 0.07812 0.0
C1007 C 0.83501 0.41586 0.98985 0.0
C1008 C 0.85226 0.43159 0.96903 0.0
C1009 C 0.83822 0.4132 0.02843 0.0
C1010 C 0.88068 0.42004 0.09878 0.0
H1011 H 0.83331 0.37896 0.27554 0.0
H1012 H 0.83115 0.39002 0.21054 0.0
H1013 H 0.89683 0.41232 0.14476 0.0
H1014 H 0.88572 0.45754 0.97163 0.0
H1015 H 0.89182 0.45239 0.03942 0.0
H1016 H 0.83161 0.42522 0.10578 0.0
C1017 C 0.84776 0.39555 0.22393 0.0
C1018 C 0.88281 0.4156 0.13694 0.0
C1019 C 0.84893 0.38915 0.26103 0.0
C1020 C 0.87252 0.44501 0.98726 0.0
C1021 C 0.87595 0.4421 0.02574 0.0
C1022 C 0.84599 0.4226 0.11426 0.0
C1023 C 0.86782 0.4084 0.20411 0.0
C1024 C 0.8665 0.41456 0.16417 0.0
C1025 C 0.85875 0.42624 0.04654 0.0
C1026 C 0.86204 0.4232 0.08716 0.0
H1027 H 0.90672 0.41252 0.27253 0.0
H1028 H 0.90482 0.42464 0.208 0.0
H1029 H 0.8357 0.41824 0.17281 0.0
H1030 H 0.81899 0.40578 0.97633 0.0
H1031 H 0.82479 0.40085 0.04405 0.0
C1032 C 0.4696 0.84812 0.61354 0.0
C1033 C 0.48134 0.86766 0.62956 0.0
C1034 C 0.4669 0.84583 0.57405 0.0
C1035 C 0.48536 0.87496 0.48179 0.0
H1036 H 0.42549 0.83456 0.4489 0.0
C1037 C 0.42698 0.84588 0.33658 0.0
C1038 C 0.42826 0.86467 0.32459 0.0
C1039 C 0.43704 0.8446 0.37093 0.0
C1040 C 0.44243 0.84567 0.45754 0.0
H1041 H 0.50091 0.89998 0.61793 0.0
H1042 H 0.49478 0.89638 0.54902 0.0
H1043 H 0.43675 0.83492 0.51486 0.0
H1044 H 0.43984 0.8966 0.33888 0.0
H1045 H 0.45782 0.89452 0.39913 0.0
H1046 H 0.49026 0.8862 0.42416 0.0
C1047 C 0.48811 0.88265 0.56635 0.0
C1048 C 0.44897 0.84593 0.49547 0.0
C1049 C 0.49134 0.88483 0.60582 0.0
C1050 C 0.43926 0.88211 0.34745 0.0
C1051 C 0.44959 0.88092 0.38157 0.0
C1052 C 0.47868 0.87481 0.44386 0.0
C1053 C 0.47561 0.86311 0.54995 0.0
C1054 C 0.47022 0.861 0.50844 0.0
C1055 C 0.44838 0.86212 0.3937 0.0
C1056 C 0.45694 0.8605 0.43179 0.0
H1057 H 0.46252 0.83463 0.63162 0.0
H1058 H 0.45778 0.8305 0.56256 0.0
H1059 H 0.50216 0.88634 0.49036 0.0
H1060 H 0.4179 0.83215 0.31965 0.0
H1061 H 0.43577 0.82993 0.37993 0.0
C1062 C 0.53784 0.40138 0.74296 0.0
C1063 C 0.52158 0.40482 0.72241 0.0
C1064 C 0.53914 0.40347 0.78255 0.0
C1065 C 0.51544 0.41967 0.86654 0.0
H1066 H 0.54058 0.38763 0.91876 0.0
C1067 C 0.54515 0.43579 0.02209 0.0
C1068 C 0.54973 0.42155 0.04252 0.0
C1069 C 0.53617 0.43129 0.98524 0.0
C1070 C 0.53282 0.39628 0.90525 0.0
H1071 H 0.49278 0.41164 0.72673 0.0
H1072 H 0.49367 0.41371 0.79631 0.0
H1073 H 0.53597 0.38488 0.85088 0.0
H1074 H 0.54867 0.39157 0.04085 0.0
H1075 H 0.5299 0.38236 0.97914 0.0
H1076 H 0.51033 0.42961 0.92144 0.0
C1077 C 0.50665 0.41092 0.782 0.0
C1078 C 0.53087 0.3952 0.86562 0.0
C1079 C 0.50601 0.40965 0.74211 0.0
C1080 C 0.54422 0.40239 0.02637 0.0
C1081 C 0.53418 0.39746 0.99027 0.0
C1082 C 0.5165 0.42011 0.90647 0.0
C1083 C 0.52307 0.40757 0.80286 0.0
C1084 C 0.52303 0.40748 0.84548 0.0
C1085 C 0.53119 0.41226 0.96819 0.0
C1086 C 0.52604 0.40902 0.92642 0.0
H1087 H 0.54913 0.39643 0.72855 0.0
H1088 H 0.55251 0.40136 0.79708 0.0
H1089 H 0.50923 0.42937 0.85236 0.0
H1090 H 0.54985 0.4509 0.03377 0.0
H1091 H 0.53467 0.44339 0.96953 0.0
C1092 C 0.12503 0.57906 0.96404 0.0
C1093 C 0.14513 0.58986 0.94306 0.0
C1094 C 0.12265 0.58589 0.00025 0.0
C1095 C 0.15782 0.60879 0.08098 0.0
H1096 H 0.10637 0.61448 0.12378 0.0
C1097 C 0.15687 0.62842 0.23892 0.0
C1098 C 0.13605 0.61906 0.25845 0.0
C1099 C 0.15748 0.6269 0.19932 0.0
C1100 C 0.12072 0.61268 0.11236 0.0
H1101 H 0.17866 0.61581 0.94291 0.0
H1102 H 0.17466 0.62771 0.00664 0.0
H1103 H 0.10779 0.60901 0.05495 0.0
H1104 H 0.09944 0.60185 0.25274 0.0
H1105 H 0.10043 0.59795 0.1833 0.0
H1106 H 0.17037 0.61133 0.13781 0.0
C1107 C 0.16052 0.61435 -0.00531 0.0
C1108 C 0.12159 0.60975 0.073 0.0
C1109 C 0.16276 0.60766 0.95833 0.0
C1110 C 0.1157 0.60874 0.23797 0.0
C1111 C 0.11631 0.60679 0.19828 0.0
C1112 C 0.1568 0.61136 0.12022 0.0
C1113 C 0.14069 0.60321 0.01627 0.0
C1114 C 0.14017 0.60781 0.05713 0.0
C1115 C 0.13726 0.6158 0.17849 0.0
C1116 C 0.13825 0.61333 0.1365 0.0
H1117 H 0.11149 0.56503 0.95287 0.0
H1118 H 0.10736 0.57692 0.01668 0.0
H1119 H 0.17209 0.60688 0.06941 0.0
H1120 H 0.17267 0.63711 0.25432 0.0
H1121 H 0.17385 0.63457 0.18511 0.0
C1122 C 0.5879 0.16995 0.64474 0.0
C1123 C 0.5705 0.15115 0.65698 0.0
C1124 C 0.59909 0.17119 0.61024 0.0
C1125 C 0.60374 0.17014 0.52378 0.0
H1126 H 0.62271 0.12933 0.49142 0.0
C1127 C 0.62973 0.16808 0.36839 0.0
C1128 C 0.62194 0.14858 0.35218 0.0
C1129 C 0.62901 0.17024 0.40788 0.0
C1130 C 0.61732 0.14075 0.49985 0.0
H1131 H 0.55016 0.11919 0.64294 0.0
H1132 H 0.56995 0.12122 0.58239 0.0
H1133 H 0.6105 0.12936 0.55735 0.0
H1134 H 0.60891 0.1162 0.3635 0.0
H1135 H 0.60582 0.11958 0.43234 0.0
H1136 H 0.6094 0.1811 0.4666 0.0
C1137 C 0.57534 0.13484 0.59988 0.0
C1138 C 0.6105 0.14082 0.53763 0.0
C1139 C 0.56397 0.13369 0.63416 0.0
C1140 C 0.61449 0.13132 0.37574 0.0
C1141 C 0.61312 0.13338 0.41518 0.0
C1142 C 0.61032 0.16996 0.486 0.0
C1143 C 0.59287 0.15364 0.58757 0.0
C1144 C 0.60312 0.1552 0.54953 0.0
C1145 C 0.62012 0.15287 0.43176 0.0
C1146 C 0.61648 0.15485 0.47318 0.0
H1147 H 0.59261 0.18369 0.66163 0.0
H1148 H 0.61245 0.18586 0.60113 0.0
H1149 H 0.59797 0.18131 0.53229 0.0
H1150 H 0.63637 0.18163 0.35047 0.0
H1151 H 0.63521 0.18554 0.41952 0.0
loop_
_geom_bond_atom_site_label_1
_geom_bond_atom_site_label_2
_geom_bond_distance
_geom_bond_site_symmetry_2
_ccdc_geom_bond_type
Mn0 O5 2.095 . S
Mn0 O15 2.162 . S
Mn0 O16 2.297 . S
Mn0 O24 2.385 1_554 S
Mn0 O25 2.209 . S
Mn0 O26 2.094 . S
Mn1 O6 2.121 . S
Mn1 N8 2.257 . S
Mn1 N17 2.284 . S
Mn1 O25 2.215 . S
Mn1 O27 2.117 . S
C2 O24 1.234 . S
C2 O25 1.283 1_556 S
C3 O15 1.281 . S
C3 O16 1.236 . S
C4 O26 1.240 . S
C4 O27 1.264 . S
O5 Mn0 2.095 . S
O5 C14 1.250 . S
O6 Mn1 2.121 . S
O6 C14 1.258 . S
C7 N8 1.326 . S
C7 C11 1.460 . S
C7 H13 0.929 . S
N8 Mn1 2.257 . S
N8 C7 1.326 . S
N8 C12 1.362 . S
C9 C10 1.258 . S
C9 C12 1.431 . S
C9 C29 1.449 1_554 S
C10 C9 1.258 . S
C10 C11 1.477 . S
C10 H30 0.931 . S
C11 C7 1.460 . S
C11 C10 1.477 . S
C11 H31 0.930 . S
C12 N8 1.362 . S
C12 C9 1.431 . S
C12 C22 1.476 1_554 S
H13 C7 0.929 . S
C14 O5 1.250 . S
C14 O6 1.258 . S
O15 Mn0 2.162 . S
O15 C3 1.281 . S
O16 Mn0 2.297 . S
O16 C3 1.236 . S
N17 Mn1 2.284 . S
N17 C18 1.326 1_554 S
N17 C22 1.317 1_554 S
C18 N17 1.326 1_556 S
C18 C19 1.457 . S
C18 H23 0.929 . S
C19 C18 1.457 . S
C19 C20 1.291 . S
C19 H32 0.931 . S
C20 C19 1.291 . S
C20 C21 1.373 . S
C20 H33 0.929 . S
C21 C20 1.373 . S
C21 C22 1.396 . S
C21 C28 1.403 . S
C22 C12 1.476 1_556 S
C22 N17 1.317 1_556 S
C22 C21 1.396 . S
H23 C18 0.929 . S
O24 Mn0 2.385 1_556 S
O24 C2 1.234 . S
O25 Mn0 2.209 . S
O25 Mn1 2.215 . S
O25 C2 1.283 1_554 S
O26 Mn0 2.094 . S
O26 C4 1.240 . S
O27 Mn1 2.117 . S
O27 C4 1.264 . S
C28 C21 1.403 . S
C28 C29 1.399 . S
C28 H34 0.929 . S
C29 C9 1.449 1_556 S
C29 C28 1.399 . S
C29 H35 0.930 . S
H30 C10 0.931 . S
H31 C11 0.930 . S
H32 C19 0.931 . S
H33 C20 0.929 . S
H34 C28 0.929 . S
H35 C29 0.930 . S
Mn36 O41 2.095 . S
Mn36 O51 2.162 . S
Mn36 O52 2.297 . S
Mn36 O60 2.385 . S
Mn36 O61 2.209 . S
Mn36 O62 2.094 . S
Mn37 O42 2.121 . S
Mn37 N44 2.257 . S
Mn37 N53 2.282 . S
Mn37 O61 2.215 . S
Mn37 O63 2.117 . S
C38 O60 1.234 . S
C38 O61 1.283 . S
C39 O51 1.281 . S
C39 O52 1.236 . S
C40 O62 1.240 . S
C40 O63 1.264 . S
O41 Mn36 2.095 . S
O41 C50 1.250 . S
O42 Mn37 2.121 . S
O42 C50 1.258 . S
C43 N44 1.326 . S
C43 C47 1.460 . S
C43 H49 0.929 . S
N44 Mn37 2.257 . S
N44 C43 1.326 . S
N44 C48 1.362 . S
C45 C46 1.258 . S
C45 C48 1.431 . S
C45 C65 1.449 . S
C46 C45 1.258 . S
C46 C47 1.477 . S
C46 H66 0.931 . S
C47 C43 1.460 . S
C47 C46 1.477 . S
C47 H67 0.930 . S
C48 N44 1.362 . S
C48 C45 1.431 . S
C48 C58 1.476 . S
H49 C43 0.929 . S
C50 O41 1.250 . S
C50 O42 1.258 . S
O51 Mn36 2.162 . S
O51 C39 1.281 . S
O52 Mn36 2.297 . S
O52 C39 1.236 . S
N53 Mn37 2.282 . S
N53 C54 1.328 . S
N53 C58 1.318 . S
C54 N53 1.328 . S
C54 C55 1.457 . S
C54 H59 0.929 . S
C55 C54 1.457 . S
C55 C56 1.291 . S
C55 H68 0.931 . S
C56 C55 1.291 . S
C56 C57 1.373 . S
C56 H69 0.929 . S
C57 C56 1.373 . S
C57 C58 1.396 . S
C57 C64 1.403 . S
C58 C48 1.476 . S
C58 N53 1.318 . S
C58 C57 1.396 . S
H59 C54 0.929 . S
O60 Mn36 2.385 . S
O60 C38 1.234 . S
O61 Mn36 2.209 . S
O61 Mn37 2.215 . S
O61 C38 1.283 . S
O62 Mn36 2.094 . S
O62 C40 1.240 . S
O63 Mn37 2.117 . S
O63 C40 1.264 . S
C64 C57 1.403 . S
C64 C65 1.399 . S
C64 H70 0.929 . S
C65 C45 1.449 . S
C65 C64 1.399 . S
C65 H71 0.930 . S
H66 C46 0.931 . S
H67 C47 0.930 . S
H68 C55 0.931 . S
H69 C56 0.929 . S
H70 C64 0.929 . S
H71 C65 0.930 . S
Mn72 O77 2.095 . S
Mn72 O87 2.162 . S
Mn72 O88 2.297 . S
Mn72 O96 2.385 . S
Mn72 O97 2.209 . S
Mn72 O98 2.094 . S
Mn73 O78 2.121 . S
Mn73 N80 2.257 . S
Mn73 N89 2.282 . S
Mn73 O97 2.215 . S
Mn73 O99 2.117 . S
C74 O96 1.234 . S
C74 O97 1.283 . S
C75 O87 1.281 . S
C75 O88 1.236 . S
C76 O98 1.240 . S
C76 O99 1.264 . S
O77 Mn72 2.095 . S
O77 C86 1.250 . S
O78 Mn73 2.121 . S
O78 C86 1.258 . S
C79 N80 1.326 . S
C79 C83 1.460 . S
C79 H85 0.929 . S
N80 Mn73 2.257 . S
N80 C79 1.326 . S
N80 C84 1.362 . S
C81 C82 1.258 . S
C81 C84 1.431 . S
C81 C101 1.449 . S
C82 C81 1.258 . S
C82 C83 1.477 . S
C82 H102 0.931 . S
C83 C79 1.460 . S
C83 C82 1.477 . S
C83 H103 0.930 . S
C84 N80 1.362 . S
C84 C81 1.431 . S
C84 C94 1.476 . S
H85 C79 0.929 . S
C86 O77 1.250 . S
C86 O78 1.258 . S
O87 Mn72 2.162 . S
O87 C75 1.281 . S
O88 Mn72 2.297 . S
O88 C75 1.236 . S
N89 Mn73 2.282 . S
N89 C90 1.328 . S
N89 C94 1.318 . S
C90 N89 1.328 . S
C90 C91 1.457 . S
C90 H95 0.929 . S
C91 C90 1.457 . S
C91 C92 1.291 . S
C91 H104 0.931 . S
C92 C91 1.291 . S
C92 C93 1.373 . S
C92 H105 0.929 . S
C93 C92 1.373 . S
C93 C94 1.396 . S
C93 C100 1.403 . S
C94 C84 1.476 . S
C94 N89 1.318 . S
C94 C93 1.396 . S
H95 C90 0.929 . S
O96 Mn72 2.385 . S
O96 C74 1.234 . S
O97 Mn72 2.209 . S
O97 Mn73 2.215 . S
O97 C74 1.283 . S
O98 Mn72 2.094 . S
O98 C76 1.240 . S
O99 Mn73 2.117 . S
O99 C76 1.264 . S
C100 C93 1.403 . S
C100 C101 1.399 . S
C100 H106 0.929 . S
C101 C81 1.449 . S
C101 C100 1.399 . S
C101 H107 0.930 . S
H102 C82 0.931 . S
H103 C83 0.930 . S
H104 C91 0.931 . S
H105 C92 0.929 . S
H106 C100 0.929 . S
H107 C101 0.930 . S
Mn108 O113 2.095 . S
Mn108 O123 2.162 . S
Mn108 O124 2.297 . S
Mn108 O132 2.385 1_554 S
Mn108 O133 2.209 . S
Mn108 O134 2.094 . S
Mn109 O114 2.121 . S
Mn109 N116 2.257 . S
Mn109 N125 2.284 . S
Mn109 O133 2.215 . S
Mn109 O135 2.117 . S
C110 O132 1.234 . S
C110 O133 1.283 1_556 S
C111 O123 1.281 . S
C111 O124 1.236 . S
C112 O134 1.240 . S
C112 O135 1.264 . S
O113 Mn108 2.095 . S
O113 C122 1.250 . S
O114 Mn109 2.121 . S
O114 C122 1.258 . S
C115 N116 1.326 . S
C115 C119 1.460 . S
C115 H121 0.929 . S
N116 Mn109 2.257 . S
N116 C115 1.326 . S
N116 C120 1.362 . S
C117 C118 1.258 . S
C117 C120 1.431 . S
C117 C137 1.449 1_554 S
C118 C117 1.258 . S
C118 C119 1.477 . S
C118 H138 0.931 . S
C119 C115 1.460 . S
C119 C118 1.477 . S
C119 H139 0.930 . S
C120 N116 1.362 . S
C120 C117 1.431 . S
C120 C130 1.476 1_554 S
H121 C115 0.929 . S
C122 O113 1.250 . S
C122 O114 1.258 . S
O123 Mn108 2.162 . S
O123 C111 1.281 . S
O124 Mn108 2.297 . S
O124 C111 1.236 . S
N125 Mn109 2.284 . S
N125 C126 1.326 1_554 S
N125 C130 1.317 1_554 S
C126 N125 1.326 1_556 S
C126 C127 1.457 . S
C126 H131 0.929 . S
C127 C126 1.457 . S
C127 C128 1.291 . S
C127 H140 0.931 . S
C128 C127 1.291 . S
C128 C129 1.373 . S
C128 H141 0.929 . S
C129 C128 1.373 . S
C129 C130 1.396 . S
C129 C136 1.403 . S
C130 C120 1.476 1_556 S
C130 N125 1.317 1_556 S
C130 C129 1.396 . S
H131 C126 0.929 . S
O132 Mn108 2.385 1_556 S
O132 C110 1.234 . S
O133 Mn108 2.209 . S
O133 Mn109 2.215 . S
O133 C110 1.283 1_554 S
O134 Mn108 2.094 . S
O134 C112 1.240 . S
O135 Mn109 2.117 . S
O135 C112 1.264 . S
C136 C129 1.403 . S
C136 C137 1.399 . S
C136 H142 0.929 . S
C137 C117 1.449 1_556 S
C137 C136 1.399 . S
C137 H143 0.930 . S
H138 C118 0.931 . S
H139 C119 0.930 . S
H140 C127 0.931 . S
H141 C128 0.929 . S
H142 C136 0.929 . S
H143 C137 0.930 . S
Mn144 O149 2.095 . S
Mn144 O159 2.162 . S
Mn144 O160 2.297 . S
Mn144 O168 2.385 . S
Mn144 O169 2.209 . S
Mn144 O170 2.094 . S
Mn145 O150 2.121 . S
Mn145 N152 2.257 . S
Mn145 N161 2.282 . S
Mn145 O169 2.215 . S
Mn145 O171 2.117 . S
C146 O168 1.234 . S
C146 O169 1.283 . S
C147 O159 1.281 . S
C147 O160 1.236 . S
C148 O170 1.240 . S
C148 O171 1.264 . S
O149 Mn144 2.095 . S
O149 C158 1.250 . S
O150 Mn145 2.121 . S
O150 C158 1.258 . S
C151 N152 1.326 . S
C151 C155 1.460 . S
C151 H157 0.929 . S
N152 Mn145 2.257 . S
N152 C151 1.326 . S
N152 C156 1.362 . S
C153 C154 1.258 . S
C153 C156 1.431 . S
C153 C173 1.449 . S
C154 C153 1.258 . S
C154 C155 1.477 . S
C154 H174 0.931 . S
C155 C151 1.460 . S
C155 C154 1.477 . S
C155 H175 0.930 . S
C156 N152 1.362 . S
C156 C153 1.431 . S
C156 C166 1.476 . S
H157 C151 0.929 . S
C158 O149 1.250 . S
C158 O150 1.258 . S
O159 Mn144 2.162 . S
O159 C147 1.281 . S
O160 Mn144 2.297 . S
O160 C147 1.236 . S
N161 Mn145 2.282 . S
N161 C162 1.328 . S
N161 C166 1.318 . S
C162 N161 1.328 . S
C162 C163 1.457 . S
C162 H167 0.929 . S
C163 C162 1.457 . S
C163 C164 1.291 . S
C163 H176 0.931 . S
C164 C163 1.291 . S
C164 C165 1.373 . S
C164 H177 0.929 . S
C165 C164 1.373 . S
C165 C166 1.396 . S
C165 C172 1.403 . S
C166 C156 1.476 . S
C166 N161 1.318 . S
C166 C165 1.396 . S
H167 C162 0.929 . S
O168 Mn144 2.385 . S
O168 C146 1.234 . S
O169 Mn144 2.209 . S
O169 Mn145 2.215 . S
O169 C146 1.283 . S
O170 Mn144 2.094 . S
O170 C148 1.240 . S
O171 Mn145 2.117 . S
O171 C148 1.264 . S
C172 C165 1.403 . S
C172 C173 1.399 . S
C172 H178 0.929 . S
C173 C153 1.449 . S
C173 C172 1.399 . S
C173 H179 0.930 . S
H174 C154 0.931 . S
H175 C155 0.930 . S
H176 C163 0.931 . S
H177 C164 0.929 . S
H178 C172 0.929 . S
H179 C173 0.930 . S
Mn180 O185 2.095 . S
Mn180 O195 2.162 . S
Mn180 O196 2.297 . S
Mn180 O204 2.385 . S
Mn180 O205 2.209 . S
Mn180 O206 2.094 . S
Mn181 O186 2.121 . S
Mn181 N188 2.257 . S
Mn181 N197 2.282 . S
Mn181 O205 2.215 . S
Mn181 O207 2.117 . S
C182 O204 1.234 . S
C182 O205 1.283 . S
C183 O195 1.281 . S
C183 O196 1.236 . S
C184 O206 1.240 . S
C184 O207 1.264 . S
O185 Mn180 2.095 . S
O185 C194 1.250 . S
O186 Mn181 2.121 . S
O186 C194 1.258 . S
C187 N188 1.326 . S
C187 C191 1.460 . S
C187 H193 0.929 . S
N188 Mn181 2.257 . S
N188 C187 1.326 . S
N188 C192 1.362 . S
C189 C190 1.258 . S
C189 C192 1.431 . S
C189 C209 1.449 . S
C190 C189 1.258 . S
C190 C191 1.477 . S
C190 H210 0.931 . S
C191 C187 1.460 . S
C191 C190 1.477 . S
C191 H211 0.930 . S
C192 N188 1.362 . S
C192 C189 1.431 . S
C192 C202 1.476 . S
H193 C187 0.929 . S
C194 O185 1.250 . S
C194 O186 1.258 . S
O195 Mn180 2.162 . S
O195 C183 1.281 . S
O196 Mn180 2.297 . S
O196 C183 1.236 . S
N197 Mn181 2.282 . S
N197 C198 1.328 . S
N197 C202 1.318 . S
C198 N197 1.328 . S
C198 C199 1.457 . S
C198 H203 0.929 . S
C199 C198 1.457 . S
C199 C200 1.291 . S
C199 H212 0.931 . S
C200 C199 1.291 . S
C200 C201 1.373 . S
C200 H213 0.929 . S
C201 C200 1.373 . S
C201 C202 1.396 . S
C201 C208 1.403 . S
C202 C192 1.476 . S
C202 N197 1.318 . S
C202 C201 1.396 . S
H203 C198 0.929 . S
O204 Mn180 2.385 . S
O204 C182 1.234 . S
O205 Mn180 2.209 . S
O205 Mn181 2.215 . S
O205 C182 1.283 . S
O206 Mn180 2.094 . S
O206 C184 1.240 . S
O207 Mn181 2.117 . S
O207 C184 1.264 . S
C208 C201 1.403 . S
C208 C209 1.399 . S
C208 H214 0.929 . S
C209 C189 1.449 . S
C209 C208 1.399 . S
C209 H215 0.930 . S
H210 C190 0.931 . S
H211 C191 0.930 . S
H212 C199 0.931 . S
H213 C200 0.929 . S
H214 C208 0.929 . S
H215 C209 0.930 . S
Mn216 O221 2.095 . S
Mn216 O231 2.162 . S
Mn216 O232 2.297 . S
Mn216 O240 2.385 . S
Mn216 O241 2.209 . S
Mn216 O242 2.094 . S
Mn217 O222 2.121 . S
Mn217 N224 2.257 . S
Mn217 N233 2.282 . S
Mn217 O241 2.215 . S
Mn217 O243 2.117 . S
C218 O240 1.234 . S
C218 O241 1.283 . S
C219 O231 1.281 . S
C219 O232 1.236 . S
C220 O242 1.240 . S
C220 O243 1.264 . S
O221 Mn216 2.095 . S
O221 C230 1.250 . S
O222 Mn217 2.121 . S
O222 C230 1.258 . S
C223 N224 1.326 . S
C223 C227 1.460 . S
C223 H229 0.929 . S
N224 Mn217 2.257 . S
N224 C223 1.326 . S
N224 C228 1.362 . S
C225 C226 1.258 . S
C225 C228 1.431 . S
C225 C245 1.449 . S
C226 C225 1.258 . S
C226 C227 1.477 . S
C226 H246 0.931 . S
C227 C223 1.460 . S
C227 C226 1.477 . S
C227 H247 0.930 . S
C228 N224 1.362 . S
C228 C225 1.431 . S
C228 C238 1.476 . S
H229 C223 0.929 . S
C230 O221 1.250 . S
C230 O222 1.258 . S
O231 Mn216 2.162 . S
O231 C219 1.281 . S
O232 Mn216 2.297 . S
O232 C219 1.236 . S
N233 Mn217 2.282 . S
N233 C234 1.328 . S
N233 C238 1.318 . S
C234 N233 1.328 . S
C234 C235 1.457 . S
C234 H239 0.929 . S
C235 C234 1.457 . S
C235 C236 1.291 . S
C235 H248 0.931 . S
C236 C235 1.291 . S
C236 C237 1.373 . S
C236 H249 0.929 . S
C237 C236 1.373 . S
C237 C238 1.396 . S
C237 C244 1.403 . S
C238 C228 1.476 . S
C238 N233 1.318 . S
C238 C237 1.396 . S
H239 C234 0.929 . S
O240 Mn216 2.385 . S
O240 C218 1.234 . S
O241 Mn216 2.209 . S
O241 Mn217 2.215 . S
O241 C218 1.283 . S
O242 Mn216 2.094 . S
O242 C220 1.240 . S
O243 Mn217 2.117 . S
O243 C220 1.264 . S
C244 C237 1.403 . S
C244 C245 1.399 . S
C244 H250 0.929 . S
C245 C225 1.449 . S
C245 C244 1.399 . S
C245 H251 0.930 . S
H246 C226 0.931 . S
H247 C227 0.930 . S
H248 C235 0.931 . S
H249 C236 0.929 . S
H250 C244 0.929 . S
H251 C245 0.930 . S
Mn252 O257 2.095 . S
Mn252 O267 2.162 . S
Mn252 O268 2.297 . S
Mn252 O276 2.385 1_556 S
Mn252 O277 2.209 . S
Mn252 O278 2.094 . S
Mn253 O258 2.121 . S
Mn253 N260 2.257 . S
Mn253 N269 2.285 . S
Mn253 O277 2.215 . S
Mn253 O279 2.117 . S
C254 O276 1.234 . S
C254 O277 1.283 1_554 S
C255 O267 1.281 . S
C255 O268 1.236 . S
C256 O278 1.240 . S
C256 O279 1.264 . S
O257 Mn252 2.095 . S
O257 C266 1.250 . S
O258 Mn253 2.121 . S
O258 C266 1.258 . S
C259 N260 1.326 . S
C259 C263 1.460 . S
C259 H265 0.929 . S
N260 Mn253 2.257 . S
N260 C259 1.326 . S
N260 C264 1.362 . S
C261 C262 1.258 . S
C261 C264 1.431 . S
C261 C281 1.449 1_556 S
C262 C261 1.258 . S
C262 C263 1.477 . S
C262 H282 0.931 . S
C263 C259 1.460 . S
C263 C262 1.477 . S
C263 H283 0.930 . S
C264 N260 1.362 . S
C264 C261 1.431 . S
C264 C274 1.476 1_556 S
H265 C259 0.929 . S
C266 O257 1.250 . S
C266 O258 1.258 . S
O267 Mn252 2.162 . S
O267 C255 1.281 . S
O268 Mn252 2.297 . S
O268 C255 1.236 . S
N269 Mn253 2.285 . S
N269 C270 1.326 1_556 S
N269 C274 1.316 1_556 S
C270 N269 1.326 1_554 S
C270 C271 1.457 . S
C270 H275 0.929 . S
C271 C270 1.457 . S
C271 C272 1.291 . S
C271 H284 0.931 . S
C272 C271 1.291 . S
C272 C273 1.373 . S
C272 H285 0.929 . S
C273 C272 1.373 . S
C273 C274 1.396 . S
C273 C280 1.403 . S
C274 C264 1.476 1_554 S
C274 N269 1.316 1_554 S
C274 C273 1.396 . S
H275 C270 0.929 . S
O276 Mn252 2.385 1_554 S
O276 C254 1.234 . S
O277 Mn252 2.209 . S
O277 Mn253 2.215 . S
O277 C254 1.283 1_556 S
O278 Mn252 2.094 . S
O278 C256 1.240 . S
O279 Mn253 2.117 . S
O279 C256 1.264 . S
C280 C273 1.403 . S
C280 C281 1.399 . S
C280 H286 0.929 . S
C281 C261 1.449 1_554 S
C281 C280 1.399 . S
C281 H287 0.930 . S
H282 C262 0.931 . S
H283 C263 0.930 . S
H284 C271 0.931 . S
H285 C272 0.929 . S
H286 C280 0.929 . S
H287 C281 0.930 . S
Mn288 O293 2.095 . S
Mn288 O303 2.162 . S
Mn288 O304 2.297 . S
Mn288 O312 2.385 . S
Mn288 O313 2.209 . S
Mn288 O314 2.094 . S
Mn289 O294 2.121 . S
Mn289 N296 2.257 . S
Mn289 N305 2.282 . S
Mn289 O313 2.215 . S
Mn289 O315 2.117 . S
C290 O312 1.234 . S
C290 O313 1.283 . S
C291 O303 1.281 . S
C291 O304 1.236 . S
C292 O314 1.240 . S
C292 O315 1.264 . S
O293 Mn288 2.095 . S
O293 C302 1.250 . S
O294 Mn289 2.121 . S
O294 C302 1.258 . S
C295 N296 1.326 . S
C295 C299 1.460 . S
C295 H301 0.929 . S
N296 Mn289 2.257 . S
N296 C295 1.326 . S
N296 C300 1.362 . S
C297 C298 1.258 . S
C297 C300 1.431 . S
C297 C317 1.449 . S
C298 C297 1.258 . S
C298 C299 1.477 . S
C298 H318 0.931 . S
C299 C295 1.460 . S
C299 C298 1.477 . S
C299 H319 0.930 . S
C300 N296 1.362 . S
C300 C297 1.431 . S
C300 C310 1.476 . S
H301 C295 0.929 . S
C302 O293 1.250 . S
C302 O294 1.258 . S
O303 Mn288 2.162 . S
O303 C291 1.281 . S
O304 Mn288 2.297 . S
O304 C291 1.236 . S
N305 Mn289 2.282 . S
N305 C306 1.328 . S
N305 C310 1.318 . S
C306 N305 1.328 . S
C306 C307 1.457 . S
C306 H311 0.929 . S
C307 C306 1.457 . S
C307 C308 1.291 . S
C307 H320 0.931 . S
C308 C307 1.291 . S
C308 C309 1.373 . S
C308 H321 0.929 . S
C309 C308 1.373 . S
C309 C310 1.396 . S
C309 C316 1.403 . S
C310 C300 1.476 . S
C310 N305 1.318 . S
C310 C309 1.396 . S
H311 C306 0.929 . S
O312 Mn288 2.385 . S
O312 C290 1.234 . S
O313 Mn288 2.209 . S
O313 Mn289 2.215 . S
O313 C290 1.283 . S
O314 Mn288 2.094 . S
O314 C292 1.240 . S
O315 Mn289 2.117 . S
O315 C292 1.264 . S
C316 C309 1.403 . S
C316 C317 1.399 . S
C316 H322 0.929 . S
C317 C297 1.449 . S
C317 C316 1.399 . S
C317 H323 0.930 . S
H318 C298 0.931 . S
H319 C299 0.930 . S
H320 C307 0.931 . S
H321 C308 0.929 . S
H322 C316 0.929 . S
H323 C317 0.930 . S
Mn324 O329 2.095 . S
Mn324 O339 2.162 . S
Mn324 O340 2.297 . S
Mn324 O348 2.385 . S
Mn324 O349 2.209 . S
Mn324 O350 2.094 . S
Mn325 O330 2.121 . S
Mn325 N332 2.257 . S
Mn325 N341 2.282 . S
Mn325 O349 2.215 . S
Mn325 O351 2.117 . S
C326 O348 1.234 . S
C326 O349 1.283 . S
C327 O339 1.281 . S
C327 O340 1.236 . S
C328 O350 1.240 . S
C328 O351 1.264 . S
O329 Mn324 2.095 . S
O329 C338 1.250 . S
O330 Mn325 2.121 . S
O330 C338 1.258 . S
C331 N332 1.326 . S
C331 C335 1.460 . S
C331 H337 0.929 . S
N332 Mn325 2.257 . S
N332 C331 1.326 . S
N332 C336 1.362 . S
C333 C334 1.258 . S
C333 C336 1.431 . S
C333 C353 1.449 . S
C334 C333 1.258 . S
C334 C335 1.477 . S
C334 H354 0.931 . S
C335 C331 1.460 . S
C335 C334 1.477 . S
C335 H355 0.930 . S
C336 N332 1.362 . S
C336 C333 1.431 . S
C336 C346 1.476 . S
H337 C331 0.929 . S
C338 O329 1.250 . S
C338 O330 1.258 . S
O339 Mn324 2.162 . S
O339 C327 1.281 . S
O340 Mn324 2.297 . S
O340 C327 1.236 . S
N341 Mn325 2.282 . S
N341 C342 1.328 . S
N341 C346 1.318 . S
C342 N341 1.328 . S
C342 C343 1.457 . S
C342 H347 0.929 . S
C343 C342 1.457 . S
C343 C344 1.291 . S
C343 H356 0.931 . S
C344 C343 1.291 . S
C344 C345 1.373 . S
C344 H357 0.929 . S
C345 C344 1.373 . S
C345 C346 1.396 . S
C345 C352 1.403 . S
C346 C336 1.476 . S
C346 N341 1.318 . S
C346 C345 1.396 . S
H347 C342 0.929 . S
O348 Mn324 2.385 . S
O348 C326 1.234 . S
O349 Mn324 2.209 . S
O349 Mn325 2.215 . S
O349 C326 1.283 . S
O350 Mn324 2.094 . S
O350 C328 1.240 . S
O351 Mn325 2.117 . S
O351 C328 1.264 . S
C352 C345 1.403 . S
C352 C353 1.399 . S
C352 H358 0.929 . S
C353 C333 1.449 . S
C353 C352 1.399 . S
C353 H359 0.930 . S
H354 C334 0.931 . S
H355 C335 0.930 . S
H356 C343 0.931 . S
H357 C344 0.929 . S
H358 C352 0.929 . S
H359 C353 0.930 . S
Mn360 O365 2.095 . S
Mn360 O375 2.162 . S
Mn360 O376 2.297 . S
Mn360 O384 2.385 1_556 S
Mn360 O385 2.209 . S
Mn360 O386 2.094 . S
Mn361 O366 2.121 . S
Mn361 N368 2.257 . S
Mn361 N377 2.285 . S
Mn361 O385 2.215 . S
Mn361 O387 2.117 . S
C362 O384 1.234 . S
C362 O385 1.283 1_554 S
C363 O375 1.281 . S
C363 O376 1.236 . S
C364 O386 1.240 . S
C364 O387 1.264 . S
O365 Mn360 2.095 . S
O365 C374 1.250 . S
O366 Mn361 2.121 . S
O366 C374 1.258 . S
C367 N368 1.326 . S
C367 C371 1.460 . S
C367 H373 0.929 . S
N368 Mn361 2.257 . S
N368 C367 1.326 . S
N368 C372 1.362 . S
C369 C370 1.258 . S
C369 C372 1.431 . S
C369 C389 1.449 1_556 S
C370 C369 1.258 . S
C370 C371 1.477 . S
C370 H390 0.931 . S
C371 C367 1.460 . S
C371 C370 1.477 . S
C371 H391 0.930 . S
C372 N368 1.362 . S
C372 C369 1.431 . S
C372 C382 1.476 1_556 S
H373 C367 0.929 . S
C374 O365 1.250 . S
C374 O366 1.258 . S
O375 Mn360 2.162 . S
O375 C363 1.281 . S
O376 Mn360 2.297 . S
O376 C363 1.236 . S
N377 Mn361 2.285 . S
N377 C378 1.326 1_556 S
N377 C382 1.316 1_556 S
C378 N377 1.326 1_554 S
C378 C379 1.457 . S
C378 H383 0.929 . S
C379 C378 1.457 . S
C379 C380 1.291 . S
C379 H392 0.931 . S
C380 C379 1.291 . S
C380 C381 1.373 . S
C380 H393 0.929 . S
C381 C380 1.373 . S
C381 C382 1.396 . S
C381 C388 1.403 . S
C382 C372 1.476 1_554 S
C382 N377 1.316 1_554 S
C382 C381 1.396 . S
H383 C378 0.929 . S
O384 Mn360 2.385 1_554 S
O384 C362 1.234 . S
O385 Mn360 2.209 . S
O385 Mn361 2.215 . S
O385 C362 1.283 1_556 S
O386 Mn360 2.094 . S
O386 C364 1.240 . S
O387 Mn361 2.117 . S
O387 C364 1.264 . S
C388 C381 1.403 . S
C388 C389 1.399 . S
C388 H394 0.929 . S
C389 C369 1.449 1_554 S
C389 C388 1.399 . S
C389 H395 0.930 . S
H390 C370 0.931 . S
H391 C371 0.930 . S
H392 C379 0.931 . S
H393 C380 0.929 . S
H394 C388 0.929 . S
H395 C389 0.930 . S
Mn396 O401 2.095 . S
Mn396 O411 2.162 . S
Mn396 O412 2.297 . S
Mn396 O420 2.385 . S
Mn396 O421 2.209 . S
Mn396 O422 2.094 . S
Mn397 O402 2.121 . S
Mn397 N404 2.257 . S
Mn397 N413 2.282 . S
Mn397 O421 2.215 . S
Mn397 O423 2.117 . S
C398 O420 1.234 . S
C398 O421 1.283 . S
C399 O411 1.281 . S
C399 O412 1.236 . S
C400 O422 1.240 . S
C400 O423 1.264 . S
O401 Mn396 2.095 . S
O401 C410 1.250 . S
O402 Mn397 2.121 . S
O402 C410 1.258 . S
C403 N404 1.326 . S
C403 C407 1.460 . S
C403 H409 0.929 . S
N404 Mn397 2.257 . S
N404 C403 1.326 . S
N404 C408 1.362 . S
C405 C406 1.258 . S
C405 C408 1.431 . S
C405 C425 1.449 . S
C406 C405 1.258 . S
C406 C407 1.477 . S
C406 H426 0.931 . S
C407 C403 1.460 . S
C407 C406 1.477 . S
C407 H427 0.930 . S
C408 N404 1.362 . S
C408 C405 1.431 . S
C408 C418 1.476 . S
H409 C403 0.929 . S
C410 O401 1.250 . S
C410 O402 1.258 . S
O411 Mn396 2.162 . S
O411 C399 1.281 . S
O412 Mn396 2.297 . S
O412 C399 1.236 . S
N413 Mn397 2.282 . S
N413 C414 1.328 . S
N413 C418 1.318 . S
C414 N413 1.328 . S
C414 C415 1.457 . S
C414 H419 0.929 . S
C415 C414 1.457 . S
C415 C416 1.291 . S
C415 H428 0.931 . S
C416 C415 1.291 . S
C416 C417 1.373 . S
C416 H429 0.929 . S
C417 C416 1.373 . S
C417 C418 1.396 . S
C417 C424 1.403 . S
C418 C408 1.476 . S
C418 N413 1.318 . S
C418 C417 1.396 . S
H419 C414 0.929 . S
O420 Mn396 2.385 . S
O420 C398 1.234 . S
O421 Mn396 2.209 . S
O421 Mn397 2.215 . S
O421 C398 1.283 . S
O422 Mn396 2.094 . S
O422 C400 1.240 . S
O423 Mn397 2.117 . S
O423 C400 1.264 . S
C424 C417 1.403 . S
C424 C425 1.399 . S
C424 H430 0.929 . S
C425 C405 1.449 . S
C425 C424 1.399 . S
C425 H431 0.930 . S
H426 C406 0.931 . S
H427 C407 0.930 . S
H428 C415 0.931 . S
H429 C416 0.929 . S
H430 C424 0.929 . S
H431 C425 0.930 . S
C432 C433 1.349 . S
C432 C434 1.327 . S
C432 H457 0.950 . S
C433 C432 1.349 . S
C433 C449 1.349 . S
C434 C432 1.327 . S
C434 C453 1.429 . S
C434 H458 0.950 . S
C435 C452 1.574 . S
C435 C454 1.368 . S
C435 H459 0.949 . S
H436 C440 0.949 . S
C437 C438 1.349 . S
C437 C439 1.327 . S
C437 H460 0.950 . S
C438 C437 1.349 . S
C438 C450 1.349 . S
C439 C437 1.327 . S
C439 C455 1.429 . S
C439 H461 0.950 . S
C440 H436 0.949 . S
C440 C448 1.574 . S
C440 C456 1.368 . S
H441 C449 0.950 . S
H442 C447 0.950 . S
H443 C448 0.949 . S
H444 C450 0.950 . S
H445 C451 0.950 . S
H446 C452 0.949 . S
C447 H442 0.950 . S
C447 C449 1.327 . S
C447 C453 1.429 . S
C448 C440 1.574 . S
C448 H443 0.949 . S
C448 C454 1.368 . S
C449 C433 1.349 . S
C449 H441 0.950 . S
C449 C447 1.327 . S
C450 C438 1.349 . S
C450 H444 0.950 . S
C450 C451 1.327 . S
C451 H445 0.950 . S
C451 C450 1.327 . S
C451 C455 1.429 . S
C452 C435 1.574 . S
C452 H446 0.949 . S
C452 C456 1.368 . S
C453 C434 1.429 . S
C453 C447 1.429 . S
C453 C454 1.523 . S
C454 C435 1.368 . S
C454 C448 1.368 . S
C454 C453 1.523 . S
C455 C439 1.429 . S
C455 C451 1.429 . S
C455 C456 1.523 . S
C456 C440 1.368 . S
C456 C452 1.368 . S
C456 C455 1.523 . S
H457 C432 0.950 . S
H458 C434 0.950 . S
H459 C435 0.949 . S
H460 C437 0.950 . S
H461 C439 0.950 . S
C462 C463 1.349 . S
C462 C464 1.327 . S
C462 H487 0.950 . S
C463 C462 1.349 . S
C463 C479 1.349 . S
C464 C462 1.327 . S
C464 C483 1.429 . S
C464 H488 0.950 . S
C465 C482 1.574 . S
C465 C484 1.368 . S
C465 H489 0.949 . S
H466 C470 0.949 . S
C467 C468 1.349 . S
C467 C469 1.327 . S
C467 H490 0.950 . S
C468 C467 1.349 . S
C468 C480 1.349 . S
C469 C467 1.327 . S
C469 C485 1.429 . S
C469 H491 0.950 . S
C470 H466 0.949 . S
C470 C478 1.574 . S
C470 C486 1.368 . S
H471 C479 0.950 . S
H472 C477 0.950 . S
H473 C478 0.949 . S
H474 C480 0.950 . S
H475 C481 0.950 . S
H476 C482 0.949 . S
C477 H472 0.950 . S
C477 C479 1.327 . S
C477 C483 1.429 . S
C478 C470 1.574 . S
C478 H473 0.949 . S
C478 C484 1.368 . S
C479 C463 1.349 . S
C479 H471 0.950 . S
C479 C477 1.327 . S
C480 C468 1.349 . S
C480 H474 0.950 . S
C480 C481 1.327 . S
C481 H475 0.950 . S
C481 C480 1.327 . S
C481 C485 1.429 . S
C482 C465 1.574 . S
C482 H476 0.949 . S
C482 C486 1.368 . S
C483 C464 1.429 . S
C483 C477 1.429 . S
C483 C484 1.523 . S
C484 C465 1.368 . S
C484 C478 1.368 . S
C484 C483 1.523 . S
C485 C469 1.429 . S
C485 C481 1.429 . S
C485 C486 1.523 . S
C486 C470 1.368 . S
C486 C482 1.368 . S
C486 C485 1.523 . S
H487 C462 0.950 . S
H488 C464 0.950 . S
H489 C465 0.949 . S
H490 C467 0.950 . S
H491 C469 0.950 . S
C492 C493 1.349 . S
C492 C494 1.327 . S
C492 H517 0.950 . S
C493 C492 1.349 . S
C493 C509 1.349 . S
C494 C492 1.327 . S
C494 C513 1.429 . S
C494 H518 0.950 . S
C495 C512 1.574 1_556 S
C495 C514 1.368 . S
C495 H519 0.949 . S
H496 C500 0.949 . S
C497 C498 1.349 . S
C497 C499 1.327 . S
C497 H520 0.950 . S
C498 C497 1.349 . S
C498 C510 1.349 . S
C499 C497 1.327 . S
C499 C515 1.429 . S
C499 H521 0.950 . S
C500 H496 0.949 . S
C500 C508 1.574 1_554 S
C500 C516 1.368 . S
H501 C509 0.950 . S
H502 C507 0.950 . S
H503 C508 0.949 . S
H504 C510 0.950 . S
H505 C511 0.950 . S
H506 C512 0.949 . S
C507 H502 0.950 . S
C507 C509 1.327 . S
C507 C513 1.429 . S
C508 C500 1.574 1_556 S
C508 H503 0.949 . S
C508 C514 1.368 . S
C509 C493 1.349 . S
C509 H501 0.950 . S
C509 C507 1.327 . S
C510 C498 1.349 . S
C510 H504 0.950 . S
C510 C511 1.327 . S
C511 H505 0.950 . S
C511 C510 1.327 . S
C511 C515 1.429 . S
C512 C495 1.574 1_554 S
C512 H506 0.949 . S
C512 C516 1.368 . S
C513 C494 1.429 . S
C513 C507 1.429 . S
C513 C514 1.523 . S
C514 C495 1.368 . S
C514 C508 1.368 . S
C514 C513 1.523 . S
C515 C499 1.429 . S
C515 C511 1.429 . S
C515 C516 1.523 . S
C516 C500 1.368 . S
C516 C512 1.368 . S
C516 C515 1.523 . S
H517 C492 0.950 . S
H518 C494 0.950 . S
H519 C495 0.949 . S
H520 C497 0.950 . S
H521 C499 0.950 . S
C522 C523 1.349 . S
C522 C524 1.327 . S
C522 H547 0.950 . S
C523 C522 1.349 . S
C523 C539 1.349 . S
C524 C522 1.327 . S
C524 C543 1.429 . S
C524 H548 0.950 . S
C525 C542 1.574 . S
C525 C544 1.368 . S
C525 H549 0.949 . S
H526 C530 0.949 . S
C527 C528 1.349 . S
C527 C529 1.327 . S
C527 H550 0.950 . S
C528 C527 1.349 . S
C528 C540 1.349 . S
C529 C527 1.327 . S
C529 C545 1.429 . S
C529 H551 0.950 . S
C530 H526 0.949 . S
C530 C538 1.574 . S
C530 C546 1.368 . S
H531 C539 0.950 . S
H532 C537 0.950 . S
H533 C538 0.949 . S
H534 C540 0.950 . S
H535 C541 0.950 . S
H536 C542 0.949 . S
C537 H532 0.950 . S
C537 C539 1.327 . S
C537 C543 1.429 . S
C538 C530 1.574 . S
C538 H533 0.949 . S
C538 C544 1.368 . S
C539 C523 1.349 . S
C539 H531 0.950 . S
C539 C537 1.327 . S
C540 C528 1.349 . S
C540 H534 0.950 . S
C540 C541 1.327 . S
C541 H535 0.950 . S
C541 C540 1.327 . S
C541 C545 1.429 . S
C542 C525 1.574 . S
C542 H536 0.949 . S
C542 C546 1.368 . S
C543 C524 1.429 . S
C543 C537 1.429 . S
C543 C544 1.523 . S
C544 C525 1.368 . S
C544 C538 1.368 . S
C544 C543 1.523 . S
C545 C529 1.429 . S
C545 C541 1.429 . S
C545 C546 1.523 . S
C546 C530 1.368 . S
C546 C542 1.368 . S
C546 C545 1.523 . S
H547 C522 0.950 . S
H548 C524 0.950 . S
H549 C525 0.949 . S
H550 C527 0.950 . S
H551 C529 0.950 . S
C552 C553 1.349 . S
C552 C554 1.327 . S
C552 H577 0.950 . S
C553 C552 1.349 . S
C553 C569 1.349 . S
C554 C552 1.327 . S
C554 C573 1.429 . S
C554 H578 0.950 . S
C555 C572 1.574 . S
C555 C574 1.368 . S
C555 H579 0.949 . S
H556 C560 0.949 . S
C557 C558 1.349 . S
C557 C559 1.327 . S
C557 H580 0.950 . S
C558 C557 1.349 . S
C558 C570 1.349 . S
C559 C557 1.327 . S
C559 C575 1.429 . S
C559 H581 0.950 . S
C560 H556 0.949 . S
C560 C568 1.574 . S
C560 C576 1.368 . S
H561 C569 0.950 . S
H562 C567 0.950 . S
H563 C568 0.949 . S
H564 C570 0.950 . S
H565 C571 0.950 . S
H566 C572 0.949 . S
C567 H562 0.950 . S
C567 C569 1.327 . S
C567 C573 1.429 . S
C568 C560 1.574 . S
C568 H563 0.949 . S
C568 C574 1.368 . S
C569 C553 1.349 . S
C569 H561 0.950 . S
C569 C567 1.327 . S
C570 C558 1.349 . S
C570 H564 0.950 . S
C570 C571 1.327 . S
C571 H565 0.950 . S
C571 C570 1.327 . S
C571 C575 1.429 . S
C572 C555 1.574 . S
C572 H566 0.949 . S
C572 C576 1.368 . S
C573 C554 1.429 . S
C573 C567 1.429 . S
C573 C574 1.523 . S
C574 C555 1.368 . S
C574 C568 1.368 . S
C574 C573 1.523 . S
C575 C559 1.429 . S
C575 C571 1.429 . S
C575 C576 1.523 . S
C576 C560 1.368 . S
C576 C572 1.368 . S
C576 C575 1.523 . S
H577 C552 0.950 . S
H578 C554 0.950 . S
H579 C555 0.949 . S
H580 C557 0.950 . S
H581 C559 0.950 . S
C582 C583 1.349 . S
C582 C584 1.327 . S
C582 H607 0.950 . S
C583 C582 1.349 . S
C583 C599 1.349 . S
C584 C582 1.327 . S
C584 C603 1.429 . S
C584 H608 0.950 . S
C585 C602 1.574 1_554 S
C585 C604 1.368 . S
C585 H609 0.949 . S
H586 C590 0.949 . S
C587 C588 1.349 . S
C587 C589 1.327 . S
C587 H610 0.950 . S
C588 C587 1.349 . S
C588 C600 1.349 . S
C589 C587 1.327 . S
C589 C605 1.429 . S
C589 H611 0.950 . S
C590 H586 0.949 . S
C590 C598 1.574 1_556 S
C590 C606 1.368 . S
H591 C599 0.950 . S
H592 C597 0.950 . S
H593 C598 0.949 . S
H594 C600 0.950 . S
H595 C601 0.950 . S
H596 C602 0.949 . S
C597 H592 0.950 . S
C597 C599 1.327 . S
C597 C603 1.429 . S
C598 C590 1.574 1_554 S
C598 H593 0.949 . S
C598 C604 1.368 . S
C599 C583 1.349 . S
C599 H591 0.950 . S
C599 C597 1.327 . S
C600 C588 1.349 . S
C600 H594 0.950 . S
C600 C601 1.327 . S
C601 H595 0.950 . S
C601 C600 1.327 . S
C601 C605 1.429 . S
C602 C585 1.574 1_556 S
C602 H596 0.949 . S
C602 C606 1.368 . S
C603 C584 1.429 . S
C603 C597 1.429 . S
C603 C604 1.523 . S
C604 C585 1.368 . S
C604 C598 1.368 . S
C604 C603 1.523 . S
C605 C589 1.429 . S
C605 C601 1.429 . S
C605 C606 1.523 . S
C606 C590 1.368 . S
C606 C602 1.368 . S
C606 C605 1.523 . S
H607 C582 0.950 . S
H608 C584 0.950 . S
H609 C585 0.949 . S
H610 C587 0.950 . S
H611 C589 0.950 . S
C612 C613 1.349 . S
C612 C614 1.327 . S
C612 H637 0.950 . S
C613 C612 1.349 . S
C613 C629 1.349 . S
C614 C612 1.327 . S
C614 C633 1.429 . S
C614 H638 0.950 . S
C615 C632 1.574 . S
C615 C634 1.368 1_556 S
C615 H639 0.949 . S
H616 C620 0.949 . S
C617 C618 1.349 . S
C617 C619 1.327 . S
C617 H640 0.950 . S
C618 C617 1.349 . S
C618 C630 1.349 . S
C619 C617 1.327 . S
C619 C635 1.429 . S
C619 H641 0.950 . S
C620 H616 0.949 . S
C620 C628 1.574 . S
C620 C636 1.368 1_554 S
H621 C629 0.950 1_556 S
H622 C627 0.950 . S
H623 C628 0.949 . S
H624 C630 0.950 1_554 S
H625 C631 0.950 . S
H626 C632 0.949 . S
C627 H622 0.950 . S
C627 C629 1.327 1_556 S
C627 C633 1.429 1_556 S
C628 C620 1.574 . S
C628 H623 0.949 . S
C628 C634 1.368 . S
C629 C613 1.349 . S
C629 H621 0.950 1_554 S
C629 C627 1.327 1_554 S
C630 C618 1.349 . S
C630 H624 0.950 1_556 S
C630 C631 1.327 1_556 S
C631 H625 0.950 . S
C631 C630 1.327 1_554 S
C631 C635 1.429 1_554 S
C632 C615 1.574 . S
C632 H626 0.949 . S
C632 C636 1.368 . S
C633 C614 1.429 . S
C633 C627 1.429 1_554 S
C633 C634 1.523 . S
C634 C615 1.368 1_554 S
C634 C628 1.368 . S
C634 C633 1.523 . S
C635 C619 1.429 . S
C635 C631 1.429 1_556 S
C635 C636 1.523 . S
C636 C620 1.368 1_556 S
C636 C632 1.368 . S
C636 C635 1.523 . S
H637 C612 0.950 . S
H638 C614 0.950 . S
H639 C615 0.949 . S
H640 C617 0.950 . S
H641 C619 0.950 . S
C642 C643 1.349 . S
C642 C644 1.327 . S
C642 H667 0.950 . S
C643 C642 1.349 . S
C643 C659 1.349 . S
C644 C642 1.327 . S
C644 C663 1.429 . S
C644 H668 0.950 . S
C645 C662 1.574 . S
C645 C664 1.368 . S
C645 H669 0.949 . S
H646 C650 0.949 . S
C647 C648 1.349 . S
C647 C649 1.327 . S
C647 H670 0.950 . S
C648 C647 1.349 . S
C648 C660 1.349 . S
C649 C647 1.327 . S
C649 C665 1.429 . S
C649 H671 0.950 . S
C650 H646 0.949 . S
C650 C658 1.574 . S
C650 C666 1.368 . S
H651 C659 0.950 . S
H652 C657 0.950 . S
H653 C658 0.949 . S
H654 C660 0.950 . S
H655 C661 0.950 . S
H656 C662 0.949 . S
C657 H652 0.950 . S
C657 C659 1.327 . S
C657 C663 1.429 . S
C658 C650 1.574 . S
C658 H653 0.949 . S
C658 C664 1.368 . S
C659 C643 1.349 . S
C659 H651 0.950 . S
C659 C657 1.327 . S
C660 C648 1.349 . S
C660 H654 0.950 . S
C660 C661 1.327 . S
C661 H655 0.950 . S
C661 C660 1.327 . S
C661 C665 1.429 . S
C662 C645 1.574 . S
C662 H656 0.949 . S
C662 C666 1.368 . S
C663 C644 1.429 . S
C663 C657 1.429 . S
C663 C664 1.523 . S
C664 C645 1.368 . S
C664 C658 1.368 . S
C664 C663 1.523 . S
C665 C649 1.429 . S
C665 C661 1.429 . S
C665 C666 1.523 . S
C666 C650 1.368 . S
C666 C662 1.368 . S
C666 C665 1.523 . S
H667 C642 0.950 . S
H668 C644 0.950 . S
H669 C645 0.949 . S
H670 C647 0.950 . S
H671 C649 0.950 . S
C672 C673 1.349 . S
C672 C674 1.327 . S
C672 H697 0.950 . S
C673 C672 1.349 . S
C673 C689 1.349 . S
C674 C672 1.327 . S
C674 C693 1.429 . S
C674 H698 0.950 . S
C675 C692 1.574 . S
C675 C694 1.368 . S
C675 H699 0.949 . S
H676 C680 0.949 . S
C677 C678 1.349 . S
C677 C679 1.327 . S
C677 H700 0.950 . S
C678 C677 1.349 . S
C678 C690 1.349 . S
C679 C677 1.327 . S
C679 C695 1.429 . S
C679 H701 0.950 . S
C680 H676 0.949 . S
C680 C688 1.574 . S
C680 C696 1.368 . S
H681 C689 0.950 . S
H682 C687 0.950 . S
H683 C688 0.949 . S
H684 C690 0.950 . S
H685 C691 0.950 . S
H686 C692 0.949 . S
C687 H682 0.950 . S
C687 C689 1.327 . S
C687 C693 1.429 . S
C688 C680 1.574 . S
C688 H683 0.949 . S
C688 C694 1.368 . S
C689 C673 1.349 . S
C689 H681 0.950 . S
C689 C687 1.327 . S
C690 C678 1.349 . S
C690 H684 0.950 . S
C690 C691 1.327 . S
C691 H685 0.950 . S
C691 C690 1.327 . S
C691 C695 1.429 . S
C692 C675 1.574 . S
C692 H686 0.949 . S
C692 C696 1.368 . S
C693 C674 1.429 . S
C693 C687 1.429 . S
C693 C694 1.523 . S
C694 C675 1.368 . S
C694 C688 1.368 . S
C694 C693 1.523 . S
C695 C679 1.429 . S
C695 C691 1.429 . S
C695 C696 1.523 . S
C696 C680 1.368 . S
C696 C692 1.368 . S
C696 C695 1.523 . S
H697 C672 0.950 . S
H698 C674 0.950 . S
H699 C675 0.949 . S
H700 C677 0.950 . S
H701 C679 0.950 . S
C702 C703 1.349 . S
C702 C704 1.327 . S
C702 H727 0.950 . S
C703 C702 1.349 . S
C703 C719 1.349 . S
C704 C702 1.327 . S
C704 C723 1.429 . S
C704 H728 0.950 . S
C705 C722 1.574 . S
C705 C724 1.368 1_556 S
C705 H729 0.949 . S
H706 C710 0.949 . S
C707 C708 1.349 . S
C707 C709 1.327 . S
C707 H730 0.950 . S
C708 C707 1.349 . S
C708 C720 1.349 . S
C709 C707 1.327 . S
C709 C725 1.429 . S
C709 H731 0.950 . S
C710 H706 0.949 . S
C710 C718 1.574 . S
C710 C726 1.368 1_554 S
H711 C719 0.950 1_556 S
H712 C717 0.950 1_556 S
H713 C718 0.949 . S
H714 C720 0.950 1_554 S
H715 C721 0.950 1_554 S
H716 C722 0.949 . S
C717 H712 0.950 1_554 S
C717 C719 1.327 . S
C717 C723 1.429 . S
C718 C710 1.574 . S
C718 H713 0.949 . S
C718 C724 1.368 . S
C719 C703 1.349 . S
C719 H711 0.950 1_554 S
C719 C717 1.327 . S
C720 C708 1.349 . S
C720 H714 0.950 1_556 S
C720 C721 1.327 . S
C721 H715 0.950 1_556 S
C721 C720 1.327 . S
C721 C725 1.429 . S
C722 C705 1.574 . S
C722 H716 0.949 . S
C722 C726 1.368 . S
C723 C704 1.429 . S
C723 C717 1.429 . S
C723 C724 1.523 . S
C724 C705 1.368 1_554 S
C724 C718 1.368 . S
C724 C723 1.523 . S
C725 C709 1.429 . S
C725 C721 1.429 . S
C725 C726 1.523 . S
C726 C710 1.368 1_556 S
C726 C722 1.368 . S
C726 C725 1.523 . S
H727 C702 0.950 . S
H728 C704 0.950 . S
H729 C705 0.949 . S
H730 C707 0.950 . S
H731 C709 0.950 . S
C732 C733 1.349 . S
C732 C734 1.327 . S
C732 H757 0.950 . S
C733 C732 1.349 . S
C733 C749 1.349 . S
C734 C732 1.327 . S
C734 C753 1.429 . S
C734 H758 0.950 . S
C735 C752 1.574 . S
C735 C754 1.368 . S
C735 H759 0.949 . S
H736 C740 0.949 . S
C737 C738 1.349 . S
C737 C739 1.327 . S
C737 H760 0.950 . S
C738 C737 1.349 . S
C738 C750 1.349 . S
C739 C737 1.327 . S
C739 C755 1.429 . S
C739 H761 0.950 . S
C740 H736 0.949 . S
C740 C748 1.574 . S
C740 C756 1.368 . S
H741 C749 0.950 . S
H742 C747 0.950 . S
H743 C748 0.949 . S
H744 C750 0.950 . S
H745 C751 0.950 . S
H746 C752 0.949 . S
C747 H742 0.950 . S
C747 C749 1.327 . S
C747 C753 1.429 . S
C748 C740 1.574 . S
C748 H743 0.949 . S
C748 C754 1.368 . S
C749 C733 1.349 . S
C749 H741 0.950 . S
C749 C747 1.327 . S
C750 C738 1.349 . S
C750 H744 0.950 . S
C750 C751 1.327 . S
C751 H745 0.950 . S
C751 C750 1.327 . S
C751 C755 1.429 . S
C752 C735 1.574 . S
C752 H746 0.949 . S
C752 C756 1.368 . S
C753 C734 1.429 . S
C753 C747 1.429 . S
C753 C754 1.523 . S
C754 C735 1.368 . S
C754 C748 1.368 . S
C754 C753 1.523 . S
C755 C739 1.429 . S
C755 C751 1.429 . S
C755 C756 1.523 . S
C756 C740 1.368 . S
C756 C752 1.368 . S
C756 C755 1.523 . S
H757 C732 0.950 . S
H758 C734 0.950 . S
H759 C735 0.949 . S
H760 C737 0.950 . S
H761 C739 0.950 . S
C762 C763 1.349 . S
C762 C764 1.327 . S
C762 H787 0.950 . S
C763 C762 1.349 . S
C763 C779 1.349 . S
C764 C762 1.327 . S
C764 C783 1.429 . S
C764 H788 0.950 . S
C765 C782 1.574 . S
C765 C784 1.368 . S
C765 H789 0.949 . S
H766 C770 0.949 . S
C767 C768 1.349 . S
C767 C769 1.327 . S
C767 H790 0.950 . S
C768 C767 1.349 . S
C768 C780 1.349 . S
C769 C767 1.327 . S
C769 C785 1.429 . S
C769 H791 0.950 . S
C770 H766 0.949 . S
C770 C778 1.574 . S
C770 C786 1.368 . S
H771 C779 0.950 . S
H772 C777 0.950 . S
H773 C778 0.949 . S
H774 C780 0.950 . S
H775 C781 0.950 . S
H776 C782 0.949 . S
C777 H772 0.950 . S
C777 C779 1.327 . S
C777 C783 1.429 . S
C778 C770 1.574 . S
C778 H773 0.949 . S
C778 C784 1.368 . S
C779 C763 1.349 . S
C779 H771 0.950 . S
C779 C777 1.327 . S
C780 C768 1.349 . S
C780 H774 0.950 . S
C780 C781 1.327 . S
C781 H775 0.950 . S
C781 C780 1.327 . S
C781 C785 1.429 . S
C782 C765 1.574 . S
C782 H776 0.949 . S
C782 C786 1.368 . S
C783 C764 1.429 . S
C783 C777 1.429 . S
C783 C784 1.523 . S
C784 C765 1.368 . S
C784 C778 1.368 . S
C784 C783 1.523 . S
C785 C769 1.429 . S
C785 C781 1.429 . S
C785 C786 1.523 . S
C786 C770 1.368 . S
C786 C782 1.368 . S
C786 C785 1.523 . S
H787 C762 0.950 . S
H788 C764 0.950 . S
H789 C765 0.949 . S
H790 C767 0.950 . S
H791 C769 0.950 . S
C792 C793 1.349 . S
C792 C794 1.327 . S
C792 H817 0.950 . S
C793 C792 1.349 . S
C793 C809 1.349 . S
C794 C792 1.327 . S
C794 C813 1.429 . S
C794 H818 0.950 . S
C795 C812 1.574 . S
C795 C814 1.368 . S
C795 H819 0.949 . S
H796 C800 0.949 . S
C797 C798 1.349 . S
C797 C799 1.327 . S
C797 H820 0.950 . S
C798 C797 1.349 . S
C798 C810 1.349 . S
C799 C797 1.327 . S
C799 C815 1.429 . S
C799 H821 0.950 . S
C800 H796 0.949 . S
C800 C808 1.574 . S
C800 C816 1.368 . S
H801 C809 0.950 . S
H802 C807 0.950 . S
H803 C808 0.949 . S
H804 C810 0.950 . S
H805 C811 0.950 . S
H806 C812 0.949 . S
C807 H802 0.950 . S
C807 C809 1.327 . S
C807 C813 1.429 . S
C808 C800 1.574 . S
C808 H803 0.949 . S
C808 C814 1.368 . S
C809 C793 1.349 . S
C809 H801 0.950 . S
C809 C807 1.327 . S
C810 C798 1.349 . S
C810 H804 0.950 . S
C810 C811 1.327 . S
C811 H805 0.950 . S
C811 C810 1.327 . S
C811 C815 1.429 . S
C812 C795 1.574 . S
C812 H806 0.949 . S
C812 C816 1.368 . S
C813 C794 1.429 . S
C813 C807 1.429 . S
C813 C814 1.523 . S
C814 C795 1.368 . S
C814 C808 1.368 . S
C814 C813 1.523 . S
C815 C799 1.429 . S
C815 C811 1.429 . S
C815 C816 1.523 . S
C816 C800 1.368 . S
C816 C812 1.368 . S
C816 C815 1.523 . S
H817 C792 0.950 . S
H818 C794 0.950 . S
H819 C795 0.949 . S
H820 C797 0.950 . S
H821 C799 0.950 . S
C822 C823 1.349 . S
C822 C824 1.327 . S
C822 H847 0.950 . S
C823 C822 1.349 . S
C823 C839 1.349 . S
C824 C822 1.327 . S
C824 C843 1.429 . S
C824 H848 0.950 . S
C825 C842 1.574 . S
C825 C844 1.368 . S
C825 H849 0.949 . S
H826 C830 0.949 . S
C827 C828 1.349 . S
C827 C829 1.327 . S
C827 H850 0.950 . S
C828 C827 1.349 . S
C828 C840 1.349 . S
C829 C827 1.327 . S
C829 C845 1.429 . S
C829 H851 0.950 . S
C830 H826 0.949 . S
C830 C838 1.574 . S
C830 C846 1.368 . S
H831 C839 0.950 . S
H832 C837 0.950 . S
H833 C838 0.949 . S
H834 C840 0.950 . S
H835 C841 0.950 . S
H836 C842 0.949 . S
C837 H832 0.950 . S
C837 C839 1.327 . S
C837 C843 1.429 . S
C838 C830 1.574 . S
C838 H833 0.949 . S
C838 C844 1.368 1_455 S
C839 C823 1.349 . S
C839 H831 0.950 . S
C839 C837 1.327 . S
C840 C828 1.349 . S
C840 H834 0.950 . S
C840 C841 1.327 . S
C841 H835 0.950 . S
C841 C840 1.327 . S
C841 C845 1.429 . S
C842 C825 1.574 . S
C842 H836 0.949 . S
C842 C846 1.368 1_655 S
C843 C824 1.429 . S
C843 C837 1.429 . S
C843 C844 1.523 . S
C844 C825 1.368 . S
C844 C838 1.368 1_655 S
C844 C843 1.523 . S
C845 C829 1.429 . S
C845 C841 1.429 . S
C845 C846 1.523 . S
C846 C830 1.368 . S
C846 C842 1.368 1_455 S
C846 C845 1.523 . S
H847 C822 0.950 . S
H848 C824 0.950 . S
H849 C825 0.949 . S
H850 C827 0.950 . S
H851 C829 0.950 . S
C852 C853 1.349 . S
C852 C854 1.327 . S
C852 H877 0.950 . S
C853 C852 1.349 . S
C853 C869 1.349 . S
C854 C852 1.327 . S
C854 C873 1.429 . S
C854 H878 0.950 . S
C855 C872 1.574 1_545 S
C855 C874 1.368 . S
C855 H879 0.949 . S
H856 C860 0.949 . S
C857 C858 1.349 . S
C857 C859 1.327 . S
C857 H880 0.950 . S
C858 C857 1.349 . S
C858 C870 1.349 . S
C859 C857 1.327 . S
C859 C875 1.429 . S
C859 H881 0.950 . S
C860 H856 0.949 . S
C860 C868 1.574 1_565 S
C860 C876 1.368 . S
H861 C869 0.950 . S
H862 C867 0.950 . S
H863 C868 0.949 . S
H864 C870 0.950 . S
H865 C871 0.950 . S
H866 C872 0.949 . S
C867 H862 0.950 . S
C867 C869 1.327 . S
C867 C873 1.429 . S
C868 C860 1.574 1_545 S
C868 H863 0.949 . S
C868 C874 1.368 . S
C869 C853 1.349 . S
C869 H861 0.950 . S
C869 C867 1.327 . S
C870 C858 1.349 . S
C870 H864 0.950 . S
C870 C871 1.327 . S
C871 H865 0.950 . S
C871 C870 1.327 . S
C871 C875 1.429 . S
C872 C855 1.574 1_565 S
C872 H866 0.949 . S
C872 C876 1.368 . S
C873 C854 1.429 . S
C873 C867 1.429 . S
C873 C874 1.523 . S
C874 C855 1.368 . S
C874 C868 1.368 . S
C874 C873 1.523 . S
C875 C859 1.429 . S
C875 C871 1.429 . S
C875 C876 1.523 . S
C876 C860 1.368 . S
C876 C872 1.368 . S
C876 C875 1.523 . S
H877 C852 0.950 . S
H878 C854 0.950 . S
H879 C855 0.949 . S
H880 C857 0.950 . S
H881 C859 0.950 . S
C882 C883 1.349 . S
C882 C884 1.327 . S
C882 H907 0.950 . S
C883 C882 1.349 . S
C883 C899 1.349 . S
C884 C882 1.327 . S
C884 C903 1.429 . S
C884 H908 0.950 . S
C885 C902 1.574 . S
C885 C904 1.368 . S
C885 H909 0.949 . S
H886 C890 0.949 . S
C887 C888 1.349 . S
C887 C889 1.327 . S
C887 H910 0.950 . S
C888 C887 1.349 . S
C888 C900 1.349 . S
C889 C887 1.327 . S
C889 C905 1.429 . S
C889 H911 0.950 . S
C890 H886 0.949 . S
C890 C898 1.574 . S
C890 C906 1.368 . S
H891 C899 0.950 . S
H892 C897 0.950 . S
H893 C898 0.949 . S
H894 C900 0.950 . S
H895 C901 0.950 . S
H896 C902 0.949 . S
C897 H892 0.950 . S
C897 C899 1.327 . S
C897 C903 1.429 . S
C898 C890 1.574 . S
C898 H893 0.949 . S
C898 C904 1.368 . S
C899 C883 1.349 . S
C899 H891 0.950 . S
C899 C897 1.327 . S
C900 C888 1.349 . S
C900 H894 0.950 . S
C900 C901 1.327 . S
C901 H895 0.950 . S
C901 C900 1.327 . S
C901 C905 1.429 . S
C902 C885 1.574 . S
C902 H896 0.949 . S
C902 C906 1.368 . S
C903 C884 1.429 . S
C903 C897 1.429 . S
C903 C904 1.523 . S
C904 C885 1.368 . S
C904 C898 1.368 . S
C904 C903 1.523 . S
C905 C889 1.429 . S
C905 C901 1.429 . S
C905 C906 1.523 . S
C906 C890 1.368 . S
C906 C902 1.368 . S
C906 C905 1.523 . S
H907 C882 0.950 . S
H908 C884 0.950 . S
H909 C885 0.949 . S
H910 C887 0.950 . S
H911 C889 0.950 . S
C912 C913 1.349 . S
C912 C914 1.327 . S
C912 H937 0.950 . S
C913 C912 1.349 . S
C913 C929 1.349 . S
C914 C912 1.327 . S
C914 C933 1.429 . S
C914 H938 0.950 . S
C915 C932 1.574 1_455 S
C915 C934 1.368 . S
C915 H939 0.949 . S
H916 C920 0.949 . S
C917 C918 1.349 . S
C917 C919 1.327 . S
C917 H940 0.950 . S
C918 C917 1.349 . S
C918 C930 1.349 . S
C919 C917 1.327 . S
C919 C935 1.429 . S
C919 H941 0.950 . S
C920 H916 0.949 . S
C920 C928 1.574 1_655 S
C920 C936 1.368 . S
H921 C929 0.950 . S
H922 C927 0.950 . S
H923 C928 0.949 . S
H924 C930 0.950 . S
H925 C931 0.950 . S
H926 C932 0.949 . S
C927 H922 0.950 . S
C927 C929 1.327 . S
C927 C933 1.429 . S
C928 C920 1.574 1_455 S
C928 H923 0.949 . S
C928 C934 1.368 . S
C929 C913 1.349 . S
C929 H921 0.950 . S
C929 C927 1.327 . S
C930 C918 1.349 . S
C930 H924 0.950 . S
C930 C931 1.327 . S
C931 H925 0.950 . S
C931 C930 1.327 . S
C931 C935 1.429 . S
C932 C915 1.574 1_655 S
C932 H926 0.949 . S
C932 C936 1.368 . S
C933 C914 1.429 . S
C933 C927 1.429 . S
C933 C934 1.523 . S
C934 C915 1.368 . S
C934 C928 1.368 . S
C934 C933 1.523 . S
C935 C919 1.429 . S
C935 C931 1.429 . S
C935 C936 1.523 . S
C936 C920 1.368 . S
C936 C932 1.368 . S
C936 C935 1.523 . S
H937 C912 0.950 . S
H938 C914 0.950 . S
H939 C915 0.949 . S
H940 C917 0.950 . S
H941 C919 0.950 . S
C942 C943 1.349 . S
C942 C944 1.327 . S
C942 H967 0.950 . S
C943 C942 1.349 . S
C943 C959 1.349 . S
C944 C942 1.327 . S
C944 C963 1.429 . S
C944 H968 0.950 . S
C945 C962 1.574 1_565 S
C945 C964 1.368 . S
C945 H969 0.949 . S
H946 C950 0.949 . S
C947 C948 1.349 . S
C947 C949 1.327 . S
C947 H970 0.950 . S
C948 C947 1.349 . S
C948 C960 1.349 . S
C949 C947 1.327 . S
C949 C965 1.429 . S
C949 H971 0.950 . S
C950 H946 0.949 . S
C950 C958 1.574 1_545 S
C950 C966 1.368 . S
H951 C959 0.950 . S
H952 C957 0.950 . S
H953 C958 0.949 . S
H954 C960 0.950 . S
H955 C961 0.950 . S
H956 C962 0.949 . S
C957 H952 0.950 . S
C957 C959 1.327 . S
C957 C963 1.429 . S
C958 C950 1.574 1_565 S
C958 H953 0.949 . S
C958 C964 1.368 . S
C959 C943 1.349 . S
C959 H951 0.950 . S
C959 C957 1.327 . S
C960 C948 1.349 . S
C960 H954 0.950 . S
C960 C961 1.327 . S
C961 H955 0.950 . S
C961 C960 1.327 . S
C961 C965 1.429 . S
C962 C945 1.574 1_545 S
C962 H956 0.949 . S
C962 C966 1.368 . S
C963 C944 1.429 . S
C963 C957 1.429 . S
C963 C964 1.523 . S
C964 C945 1.368 . S
C964 C958 1.368 . S
C964 C963 1.523 . S
C965 C949 1.429 . S
C965 C961 1.429 . S
C965 C966 1.523 . S
C966 C950 1.368 . S
C966 C962 1.368 . S
C966 C965 1.523 . S
H967 C942 0.950 . S
H968 C944 0.950 . S
H969 C945 0.949 . S
H970 C947 0.950 . S
H971 C949 0.950 . S
C972 C973 1.349 . S
C972 C974 1.327 . S
C972 H997 0.950 . S
C973 C972 1.349 . S
C973 C989 1.349 . S
C974 C972 1.327 . S
C974 C993 1.429 . S
C974 H998 0.950 . S
C975 C992 1.574 . S
C975 C994 1.368 . S
C975 H999 0.949 . S
H976 C980 0.949 . S
C977 C978 1.349 . S
C977 C979 1.327 . S
C977 H1000 0.950 . S
C978 C977 1.349 . S
C978 C990 1.349 . S
C979 C977 1.327 . S
C979 C995 1.429 . S
C979 H1001 0.950 . S
C980 H976 0.949 . S
C980 C988 1.574 . S
C980 C996 1.368 . S
H981 C989 0.950 . S
H982 C987 0.950 . S
H983 C988 0.949 . S
H984 C990 0.950 . S
H985 C991 0.950 . S
H986 C992 0.949 . S
C987 H982 0.950 . S
C987 C989 1.327 . S
C987 C993 1.429 . S
C988 C980 1.574 . S
C988 H983 0.949 . S
C988 C994 1.368 . S
C989 C973 1.349 . S
C989 H981 0.950 . S
C989 C987 1.327 . S
C990 C978 1.349 . S
C990 H984 0.950 . S
C990 C991 1.327 . S
C991 H985 0.950 . S
C991 C990 1.327 . S
C991 C995 1.429 . S
C992 C975 1.574 . S
C992 H986 0.949 . S
C992 C996 1.368 . S
C993 C974 1.429 . S
C993 C987 1.429 . S
C993 C994 1.523 . S
C994 C975 1.368 . S
C994 C988 1.368 . S
C994 C993 1.523 . S
C995 C979 1.429 . S
C995 C991 1.429 . S
C995 C996 1.523 . S
C996 C980 1.368 . S
C996 C992 1.368 . S
C996 C995 1.523 . S
H997 C972 0.950 . S
H998 C974 0.950 . S
H999 C975 0.949 . S
H1000 C977 0.950 . S
H1001 C979 0.950 . S
C1002 C1003 1.349 . S
C1002 C1004 1.327 . S
C1002 H1027 0.950 . S
C1003 C1002 1.349 . S
C1003 C1019 1.349 . S
C1004 C1002 1.327 . S
C1004 C1023 1.429 . S
C1004 H1028 0.950 . S
C1005 C1022 1.574 . S
C1005 C1024 1.368 . S
C1005 H1029 0.949 . S
H1006 C1010 0.949 . S
C1007 C1008 1.349 . S
C1007 C1009 1.327 . S
C1007 H1030 0.950 . S
C1008 C1007 1.349 . S
C1008 C1020 1.349 . S
C1009 C1007 1.327 . S
C1009 C1025 1.429 . S
C1009 H1031 0.950 . S
C1010 H1006 0.949 . S
C1010 C1018 1.574 . S
C1010 C1026 1.368 . S
H1011 C1019 0.950 . S
H1012 C1017 0.950 . S
H1013 C1018 0.949 . S
H1014 C1020 0.950 . S
H1015 C1021 0.950 . S
H1016 C1022 0.949 . S
C1017 H1012 0.950 . S
C1017 C1019 1.327 . S
C1017 C1023 1.429 . S
C1018 C1010 1.574 . S
C1018 H1013 0.949 . S
C1018 C1024 1.368 . S
C1019 C1003 1.349 . S
C1019 H1011 0.950 . S
C1019 C1017 1.327 . S
C1020 C1008 1.349 . S
C1020 H1014 0.950 . S
C1020 C1021 1.327 . S
C1021 H1015 0.950 . S
C1021 C1020 1.327 . S
C1021 C1025 1.429 . S
C1022 C1005 1.574 . S
C1022 H1016 0.949 . S
C1022 C1026 1.368 . S
C1023 C1004 1.429 . S
C1023 C1017 1.429 . S
C1023 C1024 1.523 . S
C1024 C1005 1.368 . S
C1024 C1018 1.368 . S
C1024 C1023 1.523 . S
C1025 C1009 1.429 . S
C1025 C1021 1.429 . S
C1025 C1026 1.523 . S
C1026 C1010 1.368 . S
C1026 C1022 1.368 . S
C1026 C1025 1.523 . S
H1027 C1002 0.950 . S
H1028 C1004 0.950 . S
H1029 C1005 0.949 . S
H1030 C1007 0.950 . S
H1031 C1009 0.950 . S
C1032 C1033 1.349 . S
C1032 C1034 1.327 . S
C1032 H1057 0.950 . S
C1033 C1032 1.349 . S
C1033 C1049 1.349 . S
C1034 C1032 1.327 . S
C1034 C1053 1.429 . S
C1034 H1058 0.950 . S
C1035 C1052 1.574 . S
C1035 C1054 1.368 . S
C1035 H1059 0.949 . S
H1036 C1040 0.949 . S
C1037 C1038 1.349 . S
C1037 C1039 1.327 . S
C1037 H1060 0.950 . S
C1038 C1037 1.349 . S
C1038 C1050 1.349 . S
C1039 C1037 1.327 . S
C1039 C1055 1.429 . S
C1039 H1061 0.950 . S
C1040 H1036 0.949 . S
C1040 C1048 1.574 . S
C1040 C1056 1.368 . S
H1041 C1049 0.950 . S
H1042 C1047 0.950 . S
H1043 C1048 0.949 . S
H1044 C1050 0.950 . S
H1045 C1051 0.950 . S
H1046 C1052 0.949 . S
C1047 H1042 0.950 . S
C1047 C1049 1.327 . S
C1047 C1053 1.429 . S
C1048 C1040 1.574 . S
C1048 H1043 0.949 . S
C1048 C1054 1.368 . S
C1049 C1033 1.349 . S
C1049 H1041 0.950 . S
C1049 C1047 1.327 . S
C1050 C1038 1.349 . S
C1050 H1044 0.950 . S
C1050 C1051 1.327 . S
C1051 H1045 0.950 . S
C1051 C1050 1.327 . S
C1051 C1055 1.429 . S
C1052 C1035 1.574 . S
C1052 H1046 0.949 . S
C1052 C1056 1.368 . S
C1053 C1034 1.429 . S
C1053 C1047 1.429 . S
C1053 C1054 1.523 . S
C1054 C1035 1.368 . S
C1054 C1048 1.368 . S
C1054 C1053 1.523 . S
C1055 C1039 1.429 . S
C1055 C1051 1.429 . S
C1055 C1056 1.523 . S
C1056 C1040 1.368 . S
C1056 C1052 1.368 . S
C1056 C1055 1.523 . S
H1057 C1032 0.950 . S
H1058 C1034 0.950 . S
H1059 C1035 0.949 . S
H1060 C1037 0.950 . S
H1061 C1039 0.950 . S
C1062 C1063 1.349 . S
C1062 C1064 1.327 . S
C1062 H1087 0.950 . S
C1063 C1062 1.349 . S
C1063 C1079 1.349 . S
C1064 C1062 1.327 . S
C1064 C1083 1.429 . S
C1064 H1088 0.950 . S
C1065 C1082 1.574 . S
C1065 C1084 1.368 . S
C1065 H1089 0.949 . S
H1066 C1070 0.949 . S
C1067 C1068 1.349 . S
C1067 C1069 1.327 . S
C1067 H1090 0.950 . S
C1068 C1067 1.349 . S
C1068 C1080 1.349 . S
C1069 C1067 1.327 . S
C1069 C1085 1.429 . S
C1069 H1091 0.950 . S
C1070 H1066 0.949 . S
C1070 C1078 1.574 . S
C1070 C1086 1.368 . S
H1071 C1079 0.950 . S
H1072 C1077 0.950 . S
H1073 C1078 0.949 . S
H1074 C1080 0.950 . S
H1075 C1081 0.950 . S
H1076 C1082 0.949 . S
C1077 H1072 0.950 . S
C1077 C1079 1.327 . S
C1077 C1083 1.429 . S
C1078 C1070 1.574 . S
C1078 H1073 0.949 . S
C1078 C1084 1.368 . S
C1079 C1063 1.349 . S
C1079 H1071 0.950 . S
C1079 C1077 1.327 . S
C1080 C1068 1.349 . S
C1080 H1074 0.950 . S
C1080 C1081 1.327 . S
C1081 H1075 0.950 . S
C1081 C1080 1.327 . S
C1081 C1085 1.429 . S
C1082 C1065 1.574 . S
C1082 H1076 0.949 . S
C1082 C1086 1.368 . S
C1083 C1064 1.429 . S
C1083 C1077 1.429 . S
C1083 C1084 1.523 . S
C1084 C1065 1.368 . S
C1084 C1078 1.368 . S
C1084 C1083 1.523 . S
C1085 C1069 1.429 . S
C1085 C1081 1.429 . S
C1085 C1086 1.523 . S
C1086 C1070 1.368 . S
C1086 C1082 1.368 . S
C1086 C1085 1.523 . S
H1087 C1062 0.950 . S
H1088 C1064 0.950 . S
H1089 C1065 0.949 . S
H1090 C1067 0.950 . S
H1091 C1069 0.950 . S
C1092 C1093 1.349 . S
C1092 C1094 1.327 . S
C1092 H1117 0.950 . S
C1093 C1092 1.349 . S
C1093 C1109 1.349 . S
C1094 C1092 1.327 . S
C1094 C1113 1.429 . S
C1094 H1118 0.950 . S
C1095 C1112 1.574 . S
C1095 C1114 1.368 . S
C1095 H1119 0.949 . S
H1096 C1100 0.949 . S
C1097 C1098 1.349 . S
C1097 C1099 1.327 . S
C1097 H1120 0.950 . S
C1098 C1097 1.349 . S
C1098 C1110 1.349 . S
C1099 C1097 1.327 . S
C1099 C1115 1.429 . S
C1099 H1121 0.950 . S
C1100 H1096 0.949 . S
C1100 C1108 1.574 . S
C1100 C1116 1.368 . S
H1101 C1109 0.950 . S
H1102 C1107 0.950 . S
H1103 C1108 0.949 . S
H1104 C1110 0.950 . S
H1105 C1111 0.950 . S
H1106 C1112 0.949 . S
C1107 H1102 0.950 . S
C1107 C1109 1.327 . S
C1107 C1113 1.429 . S
C1108 C1100 1.574 . S
C1108 H1103 0.949 . S
C1108 C1114 1.368 . S
C1109 C1093 1.349 . S
C1109 H1101 0.950 . S
C1109 C1107 1.327 . S
C1110 C1098 1.349 . S
C1110 H1104 0.950 . S
C1110 C1111 1.327 . S
C1111 H1105 0.950 . S
C1111 C1110 1.327 . S
C1111 C1115 1.429 . S
C1112 C1095 1.574 . S
C1112 H1106 0.949 . S
C1112 C1116 1.368 . S
C1113 C1094 1.429 . S
C1113 C1107 1.429 . S
C1113 C1114 1.523 . S
C1114 C1095 1.368 . S
C1114 C1108 1.368 . S
C1114 C1113 1.523 . S
C1115 C1099 1.429 . S
C1115 C1111 1.429 . S
C1115 C1116 1.523 . S
C1116 C1100 1.368 . S
C1116 C1112 1.368 . S
C1116 C1115 1.523 . S
H1117 C1092 0.950 . S
H1118 C1094 0.950 . S
H1119 C1095 0.949 . S
H1120 C1097 0.950 . S
H1121 C1099 0.950 . S
C1122 C1123 1.349 . S
C1122 C1124 1.327 . S
C1122 H1147 0.950 . S
C1123 C1122 1.349 . S
C1123 C1139 1.349 . S
C1124 C1122 1.327 . S
C1124 C1143 1.429 . S
C1124 H1148 0.950 . S
C1125 C1142 1.574 . S
C1125 C1144 1.368 . S
C1125 H1149 0.949 . S
H1126 C1130 0.949 . S
C1127 C1128 1.349 . S
C1127 C1129 1.327 . S
C1127 H1150 0.950 . S
C1128 C1127 1.349 . S
C1128 C1140 1.349 . S
C1129 C1127 1.327 . S
C1129 C1145 1.429 . S
C1129 H1151 0.950 . S
C1130 H1126 0.949 . S
C1130 C1138 1.574 . S
C1130 C1146 1.368 . S
H1131 C1139 0.950 . S
H1132 C1137 0.950 . S
H1133 C1138 0.949 . S
H1134 C1140 0.950 . S
H1135 C1141 0.950 . S
H1136 C1142 0.949 . S
C1137 H1132 0.950 . S
C1137 C1139 1.327 . S
C1137 C1143 1.429 . S
C1138 C1130 1.574 . S
C1138 H1133 0.949 . S
C1138 C1144 1.368 . S
C1139 C1123 1.349 . S
C1139 H1131 0.950 . S
C1139 C1137 1.327 . S
C1140 C1128 1.349 . S
C1140 H1134 0.950 . S
C1140 C1141 1.327 . S
C1141 H1135 0.950 . S
C1141 C1140 1.327 . S
C1141 C1145 1.429 . S
C1142 C1125 1.574 . S
C1142 H1136 0.949 . S
C1142 C1146 1.368 . S
C1143 C1124 1.429 . S
C1143 C1137 1.429 . S
C1143 C1144 1.523 . S
C1144 C1125 1.368 . S
C1144 C1138 1.368 . S
C1144 C1143 1.523 . S
C1145 C1129 1.429 . S
C1145 C1141 1.429 . S
C1145 C1146 1.523 . S
C1146 C1130 1.368 . S
C1146 C1142 1.368 . S
C1146 C1145 1.523 . S
H1147 C1122 0.950 . S
H1148 C1124 0.950 . S
H1149 C1125 0.949 . S
H1150 C1127 0.950 . S
H1151 C1129 0.950 . S
C433 C14 1.379 . S
C438 C230 1.406 . S
C463 C50 1.406 . S
C468 C266 1.378 . S
C493 C86 1.313 . S
C498 C302 1.313 . S
C523 C122 1.379 . S
C528 C338 1.406 . S
C553 C158 1.406 . S
C558 C374 1.378 . S
C583 C410 1.313 . S
C588 C194 1.313 . S
C613 C3 1.617 . S
C618 C363 1.617 . S
C643 C39 1.434 . S
C648 C399 1.542 . S
C673 C75 1.542 . S
C678 C219 1.434 . S
C703 C111 1.617 . S
C708 C255 1.617 . S
C733 C147 1.434 . S
C738 C291 1.542 . S
C763 C183 1.542 . S
C768 C327 1.434 . S
C793 C4 1.112 . S
C798 C112 1.112 . S
C823 C40 2.145 . S
C828 C148 2.145 . S
C853 C184 1.317 . S
C858 C76 1.317 . S
C883 C220 2.145 . S
C888 C328 2.145 . S
C913 C364 1.112 . S
C918 C256 1.112 . S
C943 C292 1.317 . S
C948 C400 1.317 . S
C973 C218 0.524 . S
C978 C2 0.542 . S
C1003 C38 0.524 . S
C1008 C254 0.542 . S
C1033 C74 0.543 . S
C1038 C290 0.543 . S
C1063 C326 0.524 . S
C1068 C110 0.542 . S
C1093 C362 0.542 . S
C1098 C146 0.524 . S
C1123 C182 0.543 . S
C1128 C398 0.543 . S
