# Generated by pormake.
# Topology ukc, (4)-cn, num edge types: 1
# Building blocks:
#     Node 0, Type 0, BuildingBlock: CEKHIL_clean_sbu_0, # of connection points: 4
#     Node 1, Type 0, BuildingBlock: CEKHIL_clean_sbu_0, # of connection points: 4
#     Node 2, Type 0, BuildingBlock: CEKHIL_clean_sbu_0, # of connection points: 4
#     Node 3, Type 0, BuildingBlock: CEKHIL_clean_sbu_0, # of connection points: 4
#     Node 4, Type 0, BuildingBlock: CEKHIL_clean_sbu_0, # of connection points: 4
#     Node 5, Type 0, BuildingBlock: CEKHIL_clean_sbu_0, # of connection points: 4
#     Node 6, Type 0, BuildingBlock: CEKHIL_clean_sbu_0, # of connection points: 4
#     Node 7, Type 0, BuildingBlock: CEKHIL_clean_sbu_0, # of connection points: 4
#     Node 8, Type 0, BuildingBlock: CEKHIL_clean_sbu_0, # of connection points: 4
#     Node 9, Type 0, BuildingBlock: CEKHIL_clean_sbu_0, # of connection points: 4
#     Node 10, Type 0, BuildingBlock: CEKHIL_clean_sbu_0, # of connection points: 4
#     Node 11, Type 0, BuildingBlock: CEKHIL_clean_sbu_0, # of connection points: 4
#     Node 12, Type 0, BuildingBlock: CEKHIL_clean_sbu_0, # of connection points: 4
#     Node 13, Type 0, BuildingBlock: CEKHIL_clean_sbu_0, # of connection points: 4
#     Node 14, Type 0, BuildingBlock: CEKHIL_clean_sbu_0, # of connection points: 4
#     Node 15, Type 0, BuildingBlock: CEKHIL_clean_sbu_0, # of connection points: 4
#     Node 16, Type 0, BuildingBlock: CEKHIL_clean_sbu_0, # of connection points: 4
#     Node 17, Type 0, BuildingBlock: CEKHIL_clean_sbu_0, # of connection points: 4
#     Node 18, Type 0, BuildingBlock: CEKHIL_clean_sbu_0, # of connection points: 4
#     Node 19, Type 0, BuildingBlock: CEKHIL_clean_sbu_0, # of connection points: 4
#     Node 20, Type 0, BuildingBlock: CEKHIL_clean_sbu_0, # of connection points: 4
#     Node 21, Type 0, BuildingBlock: CEKHIL_clean_sbu_0, # of connection points: 4
#     Node 22, Type 0, BuildingBlock: CEKHIL_clean_sbu_0, # of connection points: 4
#     Node 23, Type 0, BuildingBlock: CEKHIL_clean_sbu_0, # of connection points: 4
#     Node 24, Type 0, BuildingBlock: CEKHIL_clean_sbu_0, # of connection points: 4
#     Node 25, Type 0, BuildingBlock: CEKHIL_clean_sbu_0, # of connection points: 4
#     Node 26, Type 0, BuildingBlock: CEKHIL_clean_sbu_0, # of connection points: 4
#     Node 27, Type 0, BuildingBlock: CEKHIL_clean_sbu_0, # of connection points: 4
#     Node 28, Type 0, BuildingBlock: CEKHIL_clean_sbu_0, # of connection points: 4
#     Node 29, Type 0, BuildingBlock: CEKHIL_clean_sbu_0, # of connection points: 4
#     Node 30, Type 0, BuildingBlock: CEKHIL_clean_sbu_0, # of connection points: 4
#     Node 31, Type 0, BuildingBlock: CEKHIL_clean_sbu_0, # of connection points: 4
#     Edge 32, Type (0, 0), BuildingBlock: UVAHIK_clean_linker_0, # of connection points: 2
#     Edge 33, Type (0, 0), BuildingBlock: UVAHIK_clean_linker_0, # of connection points: 2
#     Edge 34, Type (0, 0), BuildingBlock: UVAHIK_clean_linker_0, # of connection points: 2
#     Edge 35, Type (0, 0), BuildingBlock: UVAHIK_clean_linker_0, # of connection points: 2
#     Edge 36, Type (0, 0), BuildingBlock: UVAHIK_clean_linker_0, # of connection points: 2
#     Edge 37, Type (0, 0), BuildingBlock: UVAHIK_clean_linker_0, # of connection points: 2
#     Edge 38, Type (0, 0), BuildingBlock: UVAHIK_clean_linker_0, # of connection points: 2
#     Edge 39, Type (0, 0), BuildingBlock: UVAHIK_clean_linker_0, # of connection points: 2
#     Edge 40, Type (0, 0), BuildingBlock: UVAHIK_clean_linker_0, # of connection points: 2
#     Edge 41, Type (0, 0), BuildingBlock: UVAHIK_clean_linker_0, # of connection points: 2
#     Edge 42, Type (0, 0), BuildingBlock: UVAHIK_clean_linker_0, # of connection points: 2
#     Edge 43, Type (0, 0), BuildingBlock: UVAHIK_clean_linker_0, # of connection points: 2
#     Edge 44, Type (0, 0), BuildingBlock: UVAHIK_clean_linker_0, # of connection points: 2
#     Edge 45, Type (0, 0), BuildingBlock: UVAHIK_clean_linker_0, # of connection points: 2
#     Edge 46, Type (0, 0), BuildingBlock: UVAHIK_clean_linker_0, # of connection points: 2
#     Edge 47, Type (0, 0), BuildingBlock: UVAHIK_clean_linker_0, # of connection points: 2
#     Edge 48, Type (0, 0), BuildingBlock: UVAHIK_clean_linker_0, # of connection points: 2
#     Edge 49, Type (0, 0), BuildingBlock: UVAHIK_clean_linker_0, # of connection points: 2
#     Edge 50, Type (0, 0), BuildingBlock: UVAHIK_clean_linker_0, # of connection points: 2
#     Edge 51, Type (0, 0), BuildingBlock: UVAHIK_clean_linker_0, # of connection points: 2
#     Edge 52, Type (0, 0), BuildingBlock: UVAHIK_clean_linker_0, # of connection points: 2
#     Edge 53, Type (0, 0), BuildingBlock: UVAHIK_clean_linker_0, # of connection points: 2
#     Edge 54, Type (0, 0), BuildingBlock: UVAHIK_clean_linker_0, # of connection points: 2
#     Edge 55, Type (0, 0), BuildingBlock: UVAHIK_clean_linker_0, # of connection points: 2
#     Edge 56, Type (0, 0), BuildingBlock: UVAHIK_clean_linker_0, # of connection points: 2
#     Edge 57, Type (0, 0), BuildingBlock: UVAHIK_clean_linker_0, # of connection points: 2
#     Edge 58, Type (0, 0), BuildingBlock: UVAHIK_clean_linker_0, # of connection points: 2
#     Edge 59, Type (0, 0), BuildingBlock: UVAHIK_clean_linker_0, # of connection points: 2
#     Edge 60, Type (0, 0), BuildingBlock: UVAHIK_clean_linker_0, # of connection points: 2
#     Edge 61, Type (0, 0), BuildingBlock: UVAHIK_clean_linker_0, # of connection points: 2
#     Edge 62, Type (0, 0), BuildingBlock: UVAHIK_clean_linker_0, # of connection points: 2
#     Edge 63, Type (0, 0), BuildingBlock: UVAHIK_clean_linker_0, # of connection points: 2
#     Edge 64, Type (0, 0), BuildingBlock: UVAHIK_clean_linker_0, # of connection points: 2
#     Edge 65, Type (0, 0), BuildingBlock: UVAHIK_clean_linker_0, # of connection points: 2
#     Edge 66, Type (0, 0), BuildingBlock: UVAHIK_clean_linker_0, # of connection points: 2
#     Edge 67, Type (0, 0), BuildingBlock: UVAHIK_clean_linker_0, # of connection points: 2
#     Edge 68, Type (0, 0), BuildingBlock: UVAHIK_clean_linker_0, # of connection points: 2
#     Edge 69, Type (0, 0), BuildingBlock: UVAHIK_clean_linker_0, # of connection points: 2
#     Edge 70, Type (0, 0), BuildingBlock: UVAHIK_clean_linker_0, # of connection points: 2
#     Edge 71, Type (0, 0), BuildingBlock: UVAHIK_clean_linker_0, # of connection points: 2
#     Edge 72, Type (0, 0), BuildingBlock: UVAHIK_clean_linker_0, # of connection points: 2
#     Edge 73, Type (0, 0), BuildingBlock: UVAHIK_clean_linker_0, # of connection points: 2
#     Edge 74, Type (0, 0), BuildingBlock: UVAHIK_clean_linker_0, # of connection points: 2
#     Edge 75, Type (0, 0), BuildingBlock: UVAHIK_clean_linker_0, # of connection points: 2
#     Edge 76, Type (0, 0), BuildingBlock: UVAHIK_clean_linker_0, # of connection points: 2
#     Edge 77, Type (0, 0), BuildingBlock: UVAHIK_clean_linker_0, # of connection points: 2
#     Edge 78, Type (0, 0), BuildingBlock: UVAHIK_clean_linker_0, # of connection points: 2
#     Edge 79, Type (0, 0), BuildingBlock: UVAHIK_clean_linker_0, # of connection points: 2
#     Edge 80, Type (0, 0), BuildingBlock: UVAHIK_clean_linker_0, # of connection points: 2
#     Edge 81, Type (0, 0), BuildingBlock: UVAHIK_clean_linker_0, # of connection points: 2
#     Edge 82, Type (0, 0), BuildingBlock: UVAHIK_clean_linker_0, # of connection points: 2
#     Edge 83, Type (0, 0), BuildingBlock: UVAHIK_clean_linker_0, # of connection points: 2
#     Edge 84, Type (0, 0), BuildingBlock: UVAHIK_clean_linker_0, # of connection points: 2
#     Edge 85, Type (0, 0), BuildingBlock: UVAHIK_clean_linker_0, # of connection points: 2
#     Edge 86, Type (0, 0), BuildingBlock: UVAHIK_clean_linker_0, # of connection points: 2
#     Edge 87, Type (0, 0), BuildingBlock: UVAHIK_clean_linker_0, # of connection points: 2
#     Edge 88, Type (0, 0), BuildingBlock: UVAHIK_clean_linker_0, # of connection points: 2
#     Edge 89, Type (0, 0), BuildingBlock: UVAHIK_clean_linker_0, # of connection points: 2
#     Edge 90, Type (0, 0), BuildingBlock: UVAHIK_clean_linker_0, # of connection points: 2
#     Edge 91, Type (0, 0), BuildingBlock: UVAHIK_clean_linker_0, # of connection points: 2
#     Edge 92, Type (0, 0), BuildingBlock: UVAHIK_clean_linker_0, # of connection points: 2
#     Edge 93, Type (0, 0), BuildingBlock: UVAHIK_clean_linker_0, # of connection points: 2
#     Edge 94, Type (0, 0), BuildingBlock: UVAHIK_clean_linker_0, # of connection points: 2
#     Edge 95, Type (0, 0), BuildingBlock: UVAHIK_clean_linker_0, # of connection points: 2
# Relax obj value: 0.049
# Max RMSD: 0.067
# Mean RMSD: 0.067
data_MOF--net-ukc--node1-CEKHIL_clean_sbu_0--edge1-UVAHIK_clean_linker_0
_symmetry_space_group_name_H-M    P1
_symmetry_Int_Tables_number       1
_symmetry_cell_setting            triclinic
loop_
_symmetry_equiv_pos_as_xyz
'x, y, z'
_cell_length_a     57.493996
_cell_length_b     57.471458
_cell_length_c     111.27238
_cell_angle_alpha  90.001874
_cell_angle_beta   89.998424
_cell_angle_gamma 90.000307
loop_
_atom_site_label
_atom_site_type_symbol
_atom_site_fract_x
_atom_site_fract_y
_atom_site_fract_z
_atom_type_partial_charge
Co0 Co 0.10819 0.38931 0.04054 0.0
O1 O 0.13523 0.40827 0.03722 0.0
O2 O 0.12425 0.37783 0.02645 0.0
C3 C 0.11467 0.38528 0.06043 0.0
O4 O 0.08252 0.36471 0.04136 0.0
Co5 Co 0.06894 0.40547 0.05801 0.0
O6 O 0.05583 0.37399 0.05538 0.0
C7 C 0.07459 0.42774 0.03433 0.0
C8 C 0.13937 0.39426 0.02831 0.0
C9 C 0.06406 0.36016 0.04751 0.0
O10 O 0.08792 0.41108 0.03069 0.0
O11 O 0.06782 0.42986 0.04523 0.0
O12 O 0.12561 0.37206 0.05282 0.0
O13 O 0.10198 0.40137 0.05577 0.0
Co14 Co 0.86522 0.8587 0.29046 0.0
O15 O 0.84516 0.88448 0.28624 0.0
O16 O 0.87664 0.8741 0.27616 0.0
C17 C 0.86786 0.86743 0.31021 0.0
O18 O 0.89099 0.83433 0.29214 0.0
Co19 Co 0.85093 0.82053 0.30911 0.0
O20 O 0.88305 0.80898 0.30702 0.0
C21 C 0.83264 0.81888 0.28418 0.0
C22 C 0.85952 0.88866 0.2775 0.0
C23 C 0.89636 0.8168 0.29882 0.0
O24 O 0.84528 0.83628 0.28081 0.0
O25 O 0.83149 0.81159 0.29503 0.0
O26 O 0.88093 0.87814 0.30245 0.0
O27 O 0.85271 0.85338 0.30575 0.0
Co28 Co 0.39637 0.61542 0.54118 0.0
O29 O 0.36906 0.59717 0.53749 0.0
O30 O 0.38108 0.62758 0.527 0.0
C31 C 0.38916 0.61916 0.56102 0.0
O32 O 0.42267 0.63928 0.54244 0.0
Co33 Co 0.43434 0.5977 0.55902 0.0
O34 O 0.44794 0.62913 0.55699 0.0
C35 C 0.42956 0.57653 0.535 0.0
C36 C 0.36555 0.61143 0.52862 0.0
C37 C 0.44073 0.6433 0.549 0.0
O38 O 0.41649 0.59342 0.5314 0.0
O39 O 0.43592 0.57393 0.54594 0.0
O40 O 0.3789 0.63285 0.55337 0.0
O41 O 0.40159 0.60284 0.55639 0.0
Co42 Co 0.63932 0.14627 0.7907 0.0
O43 O 0.65792 0.11887 0.78786 0.0
O44 O 0.62876 0.13033 0.77635 0.0
C45 C 0.63373 0.1399 0.81049 0.0
O46 O 0.6153 0.17254 0.79107 0.0
Co47 Co 0.65556 0.18506 0.80848 0.0
O48 O 0.62451 0.19873 0.80538 0.0
C49 C 0.67871 0.1793 0.78505 0.0
C50 C 0.6447 0.11488 0.77863 0.0
C51 C 0.61093 0.19103 0.79724 0.0
O52 O 0.66211 0.16607 0.78125 0.0
O53 O 0.68047 0.18607 0.79597 0.0
O54 O 0.62083 0.12923 0.80264 0.0
O55 O 0.65042 0.15221 0.80614 0.0
Co56 Co 0.10808 0.61593 0.46012 0.0
O57 O 0.13533 0.59731 0.46347 0.0
O58 O 0.12435 0.62807 0.474 0.0
C59 C 0.11415 0.61918 0.44017 0.0
O60 O 0.08218 0.64028 0.45918 0.0
Co61 Co 0.06861 0.59887 0.44299 0.0
O62 O 0.05536 0.63036 0.44535 0.0
C63 C 0.0752 0.57732 0.46678 0.0
C64 C 0.13956 0.61169 0.4722 0.0
C65 C 0.06361 0.64451 0.45307 0.0
O66 O 0.08821 0.59435 0.47026 0.0
O67 O 0.06834 0.57475 0.45592 0.0
O68 O 0.1251 0.63283 0.44757 0.0
O69 O 0.10166 0.60321 0.44507 0.0
Co70 Co 0.64019 0.85896 0.7081 0.0
O71 O 0.65868 0.88651 0.71082 0.0
O72 O 0.62983 0.87487 0.7225 0.0
C73 C 0.63412 0.86525 0.68834 0.0
O74 O 0.6163 0.83259 0.70791 0.0
Co75 Co 0.65614 0.82017 0.69028 0.0
O76 O 0.62524 0.80633 0.6936 0.0
C77 C 0.67976 0.82599 0.71358 0.0
C78 C 0.64561 0.89042 0.72012 0.0
C79 C 0.61184 0.81404 0.70181 0.0
O80 O 0.66329 0.83931 0.71744 0.0
O81 O 0.68127 0.81911 0.70267 0.0
O82 O 0.62134 0.87586 0.69627 0.0
O83 O 0.65098 0.85303 0.69259 0.0
Co84 Co 0.39576 0.38896 0.95891 0.0
O85 O 0.36865 0.40786 0.96216 0.0
O86 O 0.37989 0.37776 0.97311 0.0
C87 C 0.38915 0.38436 0.93907 0.0
O88 O 0.42157 0.3645 0.95818 0.0
Co89 Co 0.43478 0.40498 0.94127 0.0
O90 O 0.4481 0.37365 0.94406 0.0
C91 C 0.42913 0.42774 0.96481 0.0
C92 C 0.36466 0.39406 0.97118 0.0
C93 C 0.44001 0.35993 0.95203 0.0
O94 O 0.41597 0.41106 0.96857 0.0
O95 O 0.43581 0.42971 0.95389 0.0
O96 O 0.37834 0.3713 0.94681 0.0
O97 O 0.40178 0.40067 0.94358 0.0
Co98 Co 0.86596 0.14695 0.20992 0.0
O99 O 0.8468 0.11993 0.21298 0.0
O100 O 0.87693 0.13061 0.22404 0.0
C101 C 0.87055 0.1406 0.19005 0.0
O102 O 0.89065 0.17259 0.20936 0.0
Co103 Co 0.85038 0.18642 0.19243 0.0
O104 O 0.88178 0.19945 0.19535 0.0
C105 C 0.82748 0.18064 0.21594 0.0
C106 C 0.86052 0.11556 0.22197 0.0
C107 C 0.89538 0.19114 0.20331 0.0
O108 O 0.84398 0.16719 0.21965 0.0
O109 O 0.82565 0.18753 0.20504 0.0
O110 O 0.8835 0.12959 0.19775 0.0
O111 O 0.85437 0.15334 0.19459 0.0
Co112 Co 0.89665 0.61673 0.95861 0.0
O113 O 0.86947 0.59793 0.96183 0.0
O114 O 0.88065 0.62812 0.97273 0.0
C115 C 0.89019 0.62109 0.93874 0.0
O116 O 0.9225 0.64114 0.95789 0.0
Co117 Co 0.93581 0.6006 0.94108 0.0
O118 O 0.94911 0.63196 0.94382 0.0
C119 C 0.93001 0.578 0.96467 0.0
C120 C 0.86539 0.61186 0.97078 0.0
C121 C 0.94098 0.6457 0.95177 0.0
O122 O 0.91675 0.59466 0.96837 0.0
O123 O 0.9368 0.57601 0.95377 0.0
O124 O 0.87937 0.63429 0.9464 0.0
O125 O 0.90278 0.60485 0.94333 0.0
Co126 Co 0.13905 0.14643 0.70891 0.0
O127 O 0.15761 0.11922 0.7124 0.0
O128 O 0.12742 0.13095 0.72315 0.0
C129 C 0.13476 0.13933 0.68909 0.0
O130 O 0.11497 0.17255 0.7079 0.0
Co131 Co 0.15601 0.18472 0.69104 0.0
O132 O 0.12483 0.19852 0.69362 0.0
C133 C 0.17789 0.17981 0.71487 0.0
C134 C 0.14362 0.11553 0.72136 0.0
C135 C 0.11086 0.19092 0.7016 0.0
O136 O 0.16114 0.16666 0.71856 0.0
O137 O 0.1802 0.18622 0.70392 0.0
O138 O 0.12142 0.12889 0.69683 0.0
O139 O 0.15113 0.15188 0.6936 0.0
Co140 Co 0.60876 0.38926 0.45922 0.0
O141 O 0.63586 0.40812 0.46258 0.0
O142 O 0.62448 0.37794 0.47344 0.0
C143 C 0.61558 0.38479 0.43939 0.0
O144 O 0.58297 0.36482 0.45838 0.0
Co145 Co 0.56991 0.40539 0.44151 0.0
O146 O 0.5566 0.37401 0.44419 0.0
C147 C 0.57512 0.42788 0.46516 0.0
C148 C 0.63974 0.39424 0.47157 0.0
C149 C 0.56461 0.36026 0.45216 0.0
O150 O 0.58845 0.41129 0.46887 0.0
O151 O 0.56847 0.42989 0.45424 0.0
O152 O 0.6263 0.37169 0.44713 0.0
O153 O 0.60291 0.40109 0.44388 0.0
Co154 Co 0.36433 0.85824 0.20812 0.0
O155 O 0.34382 0.88418 0.21127 0.0
O156 O 0.37325 0.87385 0.22286 0.0
C157 C 0.37005 0.86662 0.18851 0.0
O158 O 0.39027 0.83384 0.20758 0.0
Co159 Co 0.35261 0.81984 0.18911 0.0
O160 O 0.38422 0.80813 0.19259 0.0
C161 C 0.32903 0.81997 0.21278 0.0
C162 C 0.35657 0.88851 0.22064 0.0
C163 C 0.39644 0.81621 0.20117 0.0
O164 O 0.34268 0.83599 0.2169 0.0
O165 O 0.32902 0.81345 0.20179 0.0
O166 O 0.38196 0.87749 0.1967 0.0
O167 O 0.35429 0.85269 0.19244 0.0
Co168 Co 0.89599 0.38821 0.54113 0.0
O169 O 0.86887 0.40708 0.53788 0.0
O170 O 0.87994 0.37678 0.52703 0.0
C171 C 0.8896 0.38402 0.56102 0.0
O172 O 0.92183 0.36378 0.54189 0.0
Co173 Co 0.9352 0.40454 0.5586 0.0
O174 O 0.94857 0.37321 0.55585 0.0
C175 C 0.92915 0.42699 0.53501 0.0
C176 C 0.86477 0.39315 0.52894 0.0
C177 C 0.94039 0.35936 0.54797 0.0
O178 O 0.91609 0.41017 0.53133 0.0
O179 O 0.93585 0.42915 0.54592 0.0
O180 O 0.87871 0.37078 0.55339 0.0
O181 O 0.90219 0.40021 0.55637 0.0
Co182 Co 0.36437 0.14549 0.28994 0.0
O183 O 0.34508 0.11839 0.28746 0.0
O184 O 0.3745 0.12851 0.2758 0.0
C185 C 0.36969 0.13998 0.30984 0.0
O186 O 0.38913 0.17109 0.29 0.0
Co187 Co 0.34921 0.18562 0.30716 0.0
O188 O 0.38065 0.19826 0.30393 0.0
C189 C 0.32587 0.17928 0.28383 0.0
C190 C 0.35818 0.11358 0.27829 0.0
C191 C 0.39404 0.18975 0.29593 0.0
O192 O 0.34211 0.16544 0.2802 0.0
O193 O 0.32429 0.18661 0.29466 0.0
O194 O 0.38235 0.12857 0.30215 0.0
O195 O 0.35339 0.15252 0.30529 0.0
Co196 Co 0.60909 0.6153 0.04014 0.0
O197 O 0.63614 0.59684 0.03623 0.0
O198 O 0.62425 0.62757 0.02595 0.0
C199 C 0.61678 0.61851 0.05995 0.0
O200 O 0.58303 0.63939 0.04166 0.0
Co201 Co 0.57131 0.59762 0.05812 0.0
O202 O 0.55796 0.62919 0.05629 0.0
C203 C 0.57564 0.57669 0.03402 0.0
C204 C 0.63965 0.61124 0.02743 0.0
C205 C 0.56512 0.64344 0.04833 0.0
O206 O 0.58857 0.59365 0.03038 0.0
O207 O 0.56957 0.57395 0.045 0.0
O208 O 0.627 0.63229 0.05234 0.0
O209 O 0.60404 0.60246 0.0553 0.0
Co210 Co 0.13987 0.85962 0.79115 0.0
O211 O 0.15835 0.88683 0.78755 0.0
O212 O 0.12828 0.87479 0.77681 0.0
C213 C 0.13538 0.86708 0.81092 0.0
O214 O 0.11587 0.83344 0.79224 0.0
Co215 Co 0.15683 0.82175 0.80925 0.0
O216 O 0.12566 0.80788 0.80674 0.0
C217 C 0.17871 0.82605 0.78538 0.0
C218 C 0.1444 0.8903 0.77855 0.0
C219 C 0.11174 0.81523 0.79867 0.0
O220 O 0.16207 0.83927 0.78163 0.0
O221 O 0.18096 0.81979 0.79636 0.0
O222 O 0.12208 0.87732 0.80309 0.0
O223 O 0.15184 0.85452 0.80651 0.0
Co224 Co 0.60886 0.88966 0.54025 0.0
O225 O 0.63581 0.90866 0.53683 0.0
O226 O 0.6249 0.87803 0.52619 0.0
C227 C 0.61545 0.88592 0.56014 0.0
O228 O 0.58327 0.865 0.54121 0.0
Co229 Co 0.56966 0.90599 0.55772 0.0
O230 O 0.55652 0.87451 0.55517 0.0
C231 C 0.57507 0.92787 0.53393 0.0
C232 C 0.63998 0.89453 0.52798 0.0
C233 C 0.56479 0.86056 0.54736 0.0
O234 O 0.58847 0.91122 0.53035 0.0
O235 O 0.56836 0.93016 0.54483 0.0
O236 O 0.62638 0.87262 0.55256 0.0
O237 O 0.6027 0.90193 0.55545 0.0
Co238 Co 0.36479 0.35905 0.79093 0.0
O239 O 0.34587 0.38628 0.78814 0.0
O240 O 0.37531 0.37532 0.77668 0.0
C241 C 0.37 0.36514 0.81078 0.0
O242 O 0.38922 0.33319 0.79121 0.0
Co243 Co 0.34933 0.31955 0.80844 0.0
O244 O 0.38061 0.30641 0.80531 0.0
C245 C 0.32592 0.32564 0.7851 0.0
C246 C 0.35915 0.39053 0.77896 0.0
C247 C 0.39402 0.31463 0.79723 0.0
O248 O 0.34235 0.33911 0.78133 0.0
O249 O 0.32432 0.3186 0.79598 0.0
O250 O 0.38289 0.37612 0.80303 0.0
O251 O 0.35361 0.35261 0.80629 0.0
Co252 Co 0.89518 0.11534 0.04186 0.0
O253 O 0.86788 0.09699 0.03827 0.0
O254 O 0.87989 0.12719 0.02761 0.0
C255 C 0.888 0.11949 0.06168 0.0
O256 O 0.92145 0.13925 0.04295 0.0
Co257 Co 0.93325 0.09805 0.05974 0.0
O258 O 0.94721 0.12921 0.05729 0.0
C259 C 0.92837 0.07633 0.03588 0.0
C260 C 0.86437 0.11106 0.02933 0.0
C261 C 0.93977 0.14326 0.0493 0.0
O262 O 0.91533 0.09317 0.03219 0.0
O263 O 0.9347 0.07392 0.04683 0.0
O264 O 0.87771 0.133 0.05396 0.0
O265 O 0.90046 0.1031 0.05714 0.0
Co266 Co 0.14067 0.64641 0.29255 0.0
O267 O 0.16003 0.61982 0.28905 0.0
O268 O 0.13085 0.6317 0.27769 0.0
C269 C 0.13496 0.63745 0.3121 0.0
O270 O 0.11593 0.672 0.29351 0.0
Co271 Co 0.15471 0.68325 0.312 0.0
O272 O 0.12336 0.69613 0.30901 0.0
C273 C 0.17719 0.68365 0.28803 0.0
C274 C 0.14699 0.61632 0.2797 0.0
C275 C 0.11065 0.68941 0.3003 0.0
O276 O 0.16302 0.66811 0.28387 0.0
O277 O 0.17779 0.68971 0.29908 0.0
O278 O 0.12241 0.62748 0.30386 0.0
O279 O 0.15127 0.65077 0.30822 0.0
Co280 Co 0.60929 0.11536 0.95858 0.0
O281 O 0.63664 0.09707 0.96215 0.0
O282 O 0.62466 0.12734 0.97277 0.0
C283 C 0.61632 0.11932 0.93874 0.0
O284 O 0.58298 0.13923 0.95748 0.0
Co285 Co 0.57113 0.09789 0.94077 0.0
O286 O 0.55716 0.12905 0.94319 0.0
C287 C 0.57644 0.0762 0.96462 0.0
C288 C 0.64018 0.11121 0.97107 0.0
C289 C 0.56463 0.14318 0.95113 0.0
O290 O 0.58926 0.09321 0.9683 0.0
O291 O 0.57013 0.07371 0.95367 0.0
O292 O 0.62665 0.13293 0.94639 0.0
O293 O 0.60391 0.10296 0.94335 0.0
Co294 Co 0.14005 0.36082 0.20856 0.0
O295 O 0.15845 0.38849 0.21112 0.0
O296 O 0.12966 0.37708 0.22288 0.0
C297 C 0.13407 0.36672 0.18874 0.0
O298 O 0.11622 0.33435 0.20846 0.0
Co299 Co 0.15631 0.3218 0.19092 0.0
O300 O 0.12538 0.308 0.19422 0.0
C301 C 0.17965 0.32795 0.21427 0.0
C302 C 0.14538 0.39264 0.22039 0.0
C303 C 0.11188 0.31572 0.20238 0.0
O304 O 0.16315 0.34135 0.21803 0.0
O305 O 0.1813 0.32095 0.20339 0.0
O306 O 0.12121 0.37743 0.1966 0.0
O307 O 0.15093 0.35464 0.19309 0.0
Co308 Co 0.89609 0.89071 0.45837 0.0
O309 O 0.86902 0.9094 0.46198 0.0
O310 O 0.88063 0.879 0.4726 0.0
C311 C 0.88882 0.88679 0.43855 0.0
O312 O 0.92204 0.86644 0.45725 0.0
Co313 Co 0.9344 0.90752 0.4405 0.0
O314 O 0.94796 0.87618 0.44293 0.0
C315 C 0.92968 0.92933 0.46436 0.0
C316 C 0.86531 0.89532 0.4709 0.0
C317 C 0.94031 0.8622 0.45089 0.0
O318 O 0.91651 0.91259 0.46805 0.0
O319 O 0.93603 0.93165 0.4534 0.0
O320 O 0.87838 0.87336 0.44624 0.0
O321 O 0.90154 0.90297 0.44311 0.0
Co322 Co 0.36527 0.64686 0.70901 0.0
O323 O 0.34619 0.61967 0.71167 0.0
O324 O 0.3753 0.63061 0.72335 0.0
C325 C 0.37116 0.64067 0.68923 0.0
O326 O 0.38979 0.67263 0.7089 0.0
Co327 Co 0.3504 0.68632 0.69136 0.0
O328 O 0.38167 0.69932 0.69467 0.0
C329 C 0.32641 0.68055 0.71456 0.0
C330 C 0.35921 0.6154 0.72094 0.0
C331 C 0.39483 0.69111 0.70286 0.0
O332 O 0.34261 0.6669 0.71841 0.0
O333 O 0.32515 0.68763 0.70368 0.0
O334 O 0.3837 0.62968 0.69712 0.0
O335 O 0.35461 0.65326 0.69352 0.0
Co336 Co 0.39607 0.11507 0.45788 0.0
O337 O 0.36873 0.09664 0.46129 0.0
O338 O 0.38076 0.12648 0.47221 0.0
C339 C 0.38896 0.11991 0.43809 0.0
O340 O 0.42233 0.13902 0.45699 0.0
Co341 Co 0.43418 0.09831 0.43987 0.0
O342 O 0.44811 0.12941 0.44258 0.0
C343 C 0.42926 0.07587 0.46356 0.0
C344 C 0.3652 0.11045 0.47035 0.0
C345 C 0.44064 0.14323 0.45066 0.0
O346 O 0.41618 0.09259 0.46736 0.0
O347 O 0.43564 0.07381 0.45259 0.0
O348 O 0.37864 0.13314 0.44593 0.0
O349 O 0.40138 0.10333 0.44248 0.0
Co350 Co 0.63951 0.64527 0.20798 0.0
O351 O 0.65882 0.61939 0.21283 0.0
O352 O 0.62706 0.63086 0.22235 0.0
C353 C 0.63768 0.63539 0.18835 0.0
O354 O 0.61447 0.67021 0.20554 0.0
Co355 Co 0.65583 0.68179 0.18887 0.0
O356 O 0.62339 0.69302 0.18975 0.0
C357 C 0.67235 0.68497 0.21411 0.0
C358 C 0.64398 0.61594 0.22144 0.0
C359 C 0.60962 0.68676 0.19812 0.0
O360 O 0.65942 0.66783 0.21754 0.0
O361 O 0.67418 0.69166 0.20318 0.0
O362 O 0.62395 0.62546 0.19608 0.0
O363 O 0.65294 0.64931 0.19282 0.0
Co364 Co 0.10878 0.89139 0.95904 0.0
O365 O 0.13598 0.9099 0.96261 0.0
O366 O 0.12431 0.87948 0.9732 0.0
C367 C 0.11579 0.88752 0.93919 0.0
O368 O 0.0827 0.86727 0.95792 0.0
Co369 Co 0.07041 0.90863 0.94131 0.0
O370 O 0.05676 0.87731 0.94366 0.0
C371 C 0.07539 0.9301 0.96523 0.0
C372 C 0.1397 0.89573 0.97149 0.0
C373 C 0.06438 0.8632 0.95157 0.0
O374 O 0.08855 0.91328 0.96883 0.0
O375 O 0.06895 0.9326 0.95429 0.0
O376 O 0.12628 0.87402 0.94684 0.0
O377 O 0.10325 0.90377 0.94381 0.0
Co378 Co 0.86505 0.3594 0.70914 0.0
O379 O 0.84611 0.38646 0.71243 0.0
O380 O 0.87616 0.37515 0.7234 0.0
C381 C 0.86974 0.36623 0.68933 0.0
O382 O 0.8895 0.33362 0.70838 0.0
Co383 Co 0.84914 0.32056 0.69135 0.0
O384 O 0.88048 0.30726 0.69414 0.0
C385 C 0.82649 0.32563 0.71497 0.0
C386 C 0.85986 0.39039 0.72147 0.0
C387 C 0.89412 0.31525 0.70217 0.0
O388 O 0.84298 0.33904 0.71872 0.0
O389 O 0.82458 0.319 0.70403 0.0
O390 O 0.88275 0.37697 0.69711 0.0
O391 O 0.85341 0.35355 0.69377 0.0
Co392 Co 0.39655 0.88964 0.0405 0.0
O393 O 0.36954 0.90856 0.03707 0.0
O394 O 0.38036 0.87776 0.02654 0.0
C395 C 0.39015 0.88637 0.06042 0.0
O396 O 0.42219 0.86504 0.04149 0.0
Co397 Co 0.43593 0.90627 0.05778 0.0
O398 O 0.44922 0.87484 0.05524 0.0
C399 C 0.42989 0.92797 0.03399 0.0
C400 C 0.3653 0.8943 0.02829 0.0
C401 C 0.44082 0.86074 0.04755 0.0
O402 O 0.41676 0.91108 0.03046 0.0
O403 O 0.43662 0.93043 0.04488 0.0
O404 O 0.37919 0.87284 0.05296 0.0
O405 O 0.40287 0.90224 0.05559 0.0
Co406 Co 0.86573 0.64691 0.7906 0.0
O407 O 0.84662 0.61999 0.78725 0.0
O408 O 0.87691 0.63104 0.77639 0.0
C409 C 0.87014 0.64003 0.81043 0.0
O410 O 0.89037 0.6725 0.79144 0.0
Co411 Co 0.8499 0.68586 0.80834 0.0
O412 O 0.88135 0.69895 0.80563 0.0
C413 C 0.82755 0.68103 0.78462 0.0
C414 C 0.86047 0.61593 0.77827 0.0
C415 C 0.89503 0.69086 0.79765 0.0
O416 O 0.84393 0.66743 0.78093 0.0
O417 O 0.82557 0.68771 0.79555 0.0
O418 O 0.88316 0.62921 0.80268 0.0
O419 O 0.85396 0.65284 0.80594 0.0
Co420 Co 0.10993 0.11482 0.54091 0.0
O421 O 0.13716 0.0964 0.53727 0.0
O422 O 0.12529 0.12677 0.5267 0.0
C423 C 0.11713 0.11872 0.56074 0.0
O424 O 0.08374 0.13882 0.54209 0.0
Co425 Co 0.07183 0.09742 0.55876 0.0
O426 O 0.058 0.12866 0.55642 0.0
C427 C 0.07666 0.07595 0.53483 0.0
C428 C 0.14075 0.11057 0.52837 0.0
C429 C 0.06546 0.14279 0.54848 0.0
O430 O 0.08971 0.09282 0.53118 0.0
O431 O 0.07035 0.07344 0.54578 0.0
O432 O 0.12748 0.13227 0.55307 0.0
O433 O 0.10462 0.10241 0.55615 0.0
Co434 Co 0.63837 0.3594 0.2911 0.0
O435 O 0.65671 0.38687 0.28781 0.0
O436 O 0.62662 0.37525 0.27697 0.0
C437 C 0.63412 0.36592 0.31099 0.0
O438 O 0.61448 0.33303 0.2919 0.0
Co439 Co 0.65559 0.32074 0.30868 0.0
O440 O 0.6245 0.30679 0.30602 0.0
C441 C 0.67757 0.32661 0.28494 0.0
C442 C 0.64271 0.39073 0.27887 0.0
C443 C 0.61048 0.31447 0.29808 0.0
O444 O 0.66066 0.33962 0.2813 0.0
O445 O 0.6799 0.31999 0.29586 0.0
O446 O 0.62063 0.37644 0.30335 0.0
O447 O 0.65052 0.35361 0.30635 0.0
C448 C 0.94533 0.53854 0.96906 0.0
C449 C 0.9398 0.56096 0.97321 0.0
C450 C 0.95916 0.52371 0.97589 0.0
C451 C 0.98456 0.51377 0.00597 0.0
H452 H 0.03326 0.4831 0.98769 0.0
C453 C 0.05916 0.46708 0.02981 0.0
C454 C 0.06471 0.44461 0.02573 0.0
C455 C 0.04522 0.48177 0.02294 0.0
C456 C 0.01966 0.49135 0.9929 0.0
H457 H 0.94317 0.58492 0.98813 0.0
H458 H 0.96763 0.55889 0.00018 0.0
H459 H 0.00452 0.50699 0.97732 0.0
H460 H 0.0613 0.42043 0.01092 0.0
H461 H 0.03669 0.44622 0.99881 0.0
H462 H 0.99972 0.49816 0.02155 0.0
C463 C 0.96111 0.55279 0.99161 0.0
C464 C 0.00313 0.50501 0.98697 0.0
C465 C 0.94704 0.56767 0.98475 0.0
C466 C 0.05741 0.43772 0.01423 0.0
C467 C 0.04324 0.45246 0.00734 0.0
C468 C 1.00109 0.50012 0.01189 0.0
C469 C 0.96799 0.53097 0.98704 0.0
C470 C 0.98536 0.51634 0.99343 0.0
C471 C 0.03633 0.47431 0.01185 0.0
C472 C 0.01888 0.48881 0.00544 0.0
H473 H 0.93973 0.53281 0.96024 0.0
H474 H 0.96356 0.50677 0.97227 0.0
H475 H 0.97097 0.52202 0.01118 0.0
H476 H 0.0648 0.47296 0.03859 0.0
H477 H 0.0408 0.49874 0.02651 0.0
C478 C 0.69766 0.68839 0.23249 0.0
C479 C 0.68557 0.69878 0.22294 0.0
C480 C 0.7132 0.70166 0.23939 0.0
C481 C 0.74869 0.75515 0.23683 0.0
H482 H 0.75674 0.74823 0.27119 0.0
C483 C 0.80664 0.81628 0.266 0.0
C484 C 0.81895 0.80549 0.27536 0.0
C485 C 0.79077 0.80336 0.25912 0.0
C486 C 0.75486 0.7502 0.26156 0.0
H487 H 0.67863 0.73132 0.21374 0.0
H488 H 0.70501 0.75437 0.2259 0.0
H489 H 0.72728 0.72517 0.26087 0.0
H490 H 0.8259 0.77258 0.28421 0.0
H491 H 0.79889 0.75018 0.27212 0.0
H492 H 0.77628 0.78017 0.23753 0.0
C493 C 0.70331 0.73597 0.22783 0.0
C494 C 0.73798 0.73696 0.25566 0.0
C495 C 0.68807 0.72279 0.22093 0.0
C496 C 0.8163 0.78144 0.27719 0.0
C497 C 0.8007 0.76862 0.27032 0.0
C498 C 0.76556 0.7684 0.24273 0.0
C499 C 0.71665 0.72547 0.23688 0.0
C500 C 0.73468 0.7393 0.24323 0.0
C501 C 0.78719 0.77952 0.26147 0.0
C502 C 0.76891 0.76599 0.25515 0.0
H503 H 0.69607 0.6699 0.23418 0.0
H504 H 0.72325 0.69307 0.24633 0.0
H505 H 0.74685 0.75708 0.22719 0.0
H506 H 0.80836 0.83481 0.26445 0.0
H507 H 0.7806 0.81223 0.25232 0.0
C508 C 0.55904 0.46705 0.4696 0.0
C509 C 0.56512 0.44475 0.47373 0.0
C510 C 0.54526 0.48171 0.47657 0.0
C511 C 0.49998 0.47831 0.49951 0.0
H512 H 0.5071 0.54538 0.50067 0.0
C513 C 0.4455 0.53745 0.53026 0.0
C514 C 0.43958 0.55991 0.5263 0.0
C515 C 0.4593 0.52295 0.52321 0.0
C516 C 0.50466 0.52671 0.50024 0.0
H517 H 0.56273 0.42083 0.48872 0.0
H518 H 0.53856 0.44669 0.50105 0.0
H519 H 0.53689 0.5217 0.49096 0.0
H520 H 0.44228 0.5843 0.51154 0.0
H521 H 0.46641 0.55871 0.49903 0.0
H522 H 0.46773 0.4833 0.50876 0.0
C523 C 0.54433 0.45264 0.49231 0.0
C524 C 0.52182 0.51313 0.49478 0.0
C525 C 0.55838 0.43797 0.48534 0.0
C526 C 0.4465 0.56704 0.51478 0.0
C527 C 0.46054 0.55251 0.50771 0.0
C528 C 0.4828 0.49189 0.50496 0.0
C529 C 0.53709 0.4744 0.48784 0.0
C530 C 0.51969 0.48876 0.49435 0.0
C531 C 0.46762 0.53056 0.51202 0.0
C532 C 0.48496 0.51625 0.50542 0.0
H533 H 0.56409 0.47278 0.46069 0.0
H534 H 0.53993 0.49827 0.47281 0.0
H535 H 0.49755 0.45963 0.49909 0.0
H536 H 0.44032 0.53144 0.53909 0.0
H537 H 0.46449 0.50626 0.52685 0.0
C538 C 0.78754 0.30902 0.71932 0.0
C539 C 0.8097 0.3154 0.7235 0.0
C540 C 0.77309 0.2949 0.72622 0.0
C541 C 0.76349 0.27027 0.75647 0.0
H542 H 0.73479 0.21992 0.73853 0.0
C543 C 0.71787 0.19555 0.78081 0.0
C544 C 0.69573 0.18926 0.77656 0.0
C545 C 0.73251 0.20951 0.77392 0.0
C546 C 0.7425 0.23397 0.74365 0.0
H547 H 0.83354 0.31328 0.73852 0.0
H548 H 0.8082 0.28834 0.75069 0.0
H549 H 0.75801 0.24897 0.728 0.0
H550 H 0.67211 0.19139 0.76144 0.0
H551 H 0.69776 0.21606 0.74932 0.0
H552 H 0.74795 0.25529 0.77211 0.0
C553 C 0.802 0.29438 0.74204 0.0
C554 C 0.75577 0.25067 0.73762 0.0
C555 C 0.81649 0.30872 0.73512 0.0
C556 C 0.68915 0.19586 0.7649 0.0
C557 C 0.70382 0.21005 0.75799 0.0
C558 C 0.75021 0.25357 0.76249 0.0
C559 C 0.7805 0.28666 0.73746 0.0
C560 C 0.76636 0.26906 0.74396 0.0
C561 C 0.7253 0.21769 0.76264 0.0
C562 C 0.73959 0.2352 0.75615 0.0
H563 H 0.78172 0.31417 0.71044 0.0
H564 H 0.75636 0.28984 0.72258 0.0
H565 H 0.77119 0.28433 0.76158 0.0
H566 H 0.72352 0.19046 0.78972 0.0
H567 H 0.74921 0.21451 0.77761 0.0
C568 C 0.94718 0.43698 0.51516 0.0
C569 C 0.93887 0.44399 0.52645 0.0
C570 C 0.96147 0.4519 0.50845 0.0
C571 C 1.00209 0.50066 0.51357 0.0
H572 H 1.00208 0.50568 0.47886 0.0
C573 C 0.05723 0.56783 0.48672 0.0
C574 C 0.06571 0.56052 0.47551 0.0
C575 C 0.04299 0.55302 0.49351 0.0
C576 C 0.0025 0.50423 0.48857 0.0
H577 H 0.93707 0.47262 0.53909 0.0
H578 H 0.96122 0.49876 0.52728 0.0
H579 H 0.97269 0.48187 0.48877 0.0
H580 H 0.06791 0.53148 0.46313 0.0
H581 H 0.04377 0.50556 0.47508 0.0
H582 H 0.03189 0.52306 0.51335 0.0
C583 C 0.95751 0.48159 0.52376 0.0
C584 C 0.98561 0.49062 0.49423 0.0
C585 C 0.94348 0.4667 0.53046 0.0
C586 C 0.06137 0.53763 0.47169 0.0
C587 C 0.04735 0.52287 0.47847 0.0
C588 C 0.01897 0.51429 0.5079 0.0
C589 C 0.96747 0.47404 0.51292 0.0
C590 C 0.98517 0.48871 0.5068 0.0
C591 C 0.03718 0.5307 0.4892 0.0
C592 C 0.01942 0.51616 0.49533 0.0
H593 H 0.94404 0.41949 0.51192 0.0
H594 H 0.96887 0.44557 0.50012 0.0
H595 H 0.00254 0.49919 0.52327 0.0
H596 H 0.06018 0.58546 0.4898 0.0
H597 H 0.03543 0.55954 0.50177 0.0
C598 C 0.69072 0.8101 0.73382 0.0
C599 C 0.69694 0.81608 0.72202 0.0
C600 C 0.7055 0.79612 0.74077 0.0
C601 C 0.75157 0.7521 0.73651 0.0
H602 H 0.76014 0.75836 0.77088 0.0
C603 C 0.81774 0.69752 0.76434 0.0
C604 C 0.81092 0.69135 0.77602 0.0
C605 C 0.8034 0.7118 0.75729 0.0
C606 C 0.75769 0.75621 0.76129 0.0
H607 H 0.72426 0.81395 0.70862 0.0
H608 H 0.75015 0.79026 0.7208 0.0
H609 H 0.7369 0.78704 0.7601 0.0
H610 H 0.78301 0.69344 0.7891 0.0
H611 H 0.75793 0.71768 0.77676 0.0
H612 H 0.77238 0.72125 0.73771 0.0
C613 C 0.73362 0.79558 0.72457 0.0
C614 C 0.7444 0.77269 0.75512 0.0
C615 C 0.71886 0.80934 0.71764 0.0
C616 C 0.78887 0.69821 0.78018 0.0
C617 C 0.77458 0.71227 0.77315 0.0
C618 C 0.76488 0.73562 0.74267 0.0
C619 C 0.72676 0.78806 0.73604 0.0
C620 C 0.74118 0.77083 0.74266 0.0
C621 C 0.78202 0.71996 0.76182 0.0
C622 C 0.76801 0.73743 0.75515 0.0
H623 H 0.67386 0.81493 0.73739 0.0
H624 H 0.6997 0.79061 0.74958 0.0
H625 H 0.74907 0.7499 0.72693 0.0
H626 H 0.8347 0.69259 0.76095 0.0
H627 H 0.80961 0.71742 0.74857 0.0
C628 C 0.44654 0.43804 0.98479 0.0
C629 C 0.43898 0.4448 0.97332 0.0
C630 C 0.46067 0.45294 0.99159 0.0
C631 C 0.50223 0.50107 0.98677 0.0
H632 H 0.50018 0.50693 0.02143 0.0
C633 C 0.55748 0.56755 0.01405 0.0
C634 C 0.56537 0.56017 0.02536 0.0
C635 C 0.54301 0.55308 0.00718 0.0
C636 C 0.50115 0.50525 0.01175 0.0
H637 H 0.43837 0.47305 0.96041 0.0
H638 H 0.46228 0.49917 0.97236 0.0
H639 H 0.47106 0.48331 0.01119 0.0
H640 H 0.5662 0.53125 0.03788 0.0
H641 H 0.54165 0.50595 0.02582 0.0
H642 H 0.53233 0.52303 0.98734 0.0
C643 C 0.4581 0.48217 0.97597 0.0
C644 C 0.48442 0.49175 0.00589 0.0
C645 C 0.44422 0.46729 0.96918 0.0
C646 C 0.5601 0.53751 0.02925 0.0
C647 C 0.54586 0.52309 0.0224 0.0
C648 C 0.51894 0.5146 0.99263 0.0
C649 C 0.46727 0.47485 0.98703 0.0
C650 C 0.48475 0.48949 0.99334 0.0
C651 C 0.53639 0.53101 0.01152 0.0
C652 C 0.51867 0.51676 0.00519 0.0
H653 H 0.44288 0.42072 0.98814 0.0
H654 H 0.46746 0.44678 9e-05 0.0
H655 H 0.50326 0.49934 0.9771 0.0
H656 H 0.56116 0.585 0.0109 0.0
H657 H 0.53601 0.55967 0.99881 0.0
C658 C 0.81729 0.19814 0.23592 0.0
C659 C 0.81048 0.19053 0.22446 0.0
C660 C 0.80246 0.21239 0.24271 0.0
C661 C 0.75444 0.2541 0.23787 0.0
H662 H 0.74842 0.25211 0.27251 0.0
C663 C 0.68739 0.30899 0.26493 0.0
C664 C 0.69443 0.31678 0.27632 0.0
C665 C 0.70212 0.29471 0.2581 0.0
C666 C 0.75015 0.25309 0.26283 0.0
H667 H 0.78221 0.19 0.21157 0.0
H668 H 0.75622 0.21408 0.2235 0.0
H669 H 0.77215 0.22302 0.26232 0.0
H670 H 0.72302 0.31763 0.28902 0.0
H671 H 0.7488 0.29345 0.27703 0.0
H672 H 0.73241 0.28415 0.23838 0.0
C673 C 0.77321 0.20986 0.22711 0.0
C674 C 0.76372 0.23636 0.25701 0.0
C675 C 0.78801 0.19586 0.22033 0.0
C676 C 0.71704 0.31163 0.28032 0.0
C677 C 0.73173 0.29758 0.27351 0.0
C678 C 0.74085 0.27081 0.24369 0.0
C679 C 0.78058 0.21907 0.23815 0.0
C680 C 0.766 0.23663 0.24445 0.0
C681 C 0.72412 0.28818 0.26255 0.0
C682 C 0.73861 0.27055 0.25625 0.0
H683 H 0.83459 0.19443 0.23926 0.0
H684 H 0.80867 0.2192 0.2512 0.0
H685 H 0.75618 0.2551 0.22819 0.0
H686 H 0.66998 0.31256 0.26169 0.0
H687 H 0.69576 0.28776 0.24968 0.0
C688 C 0.31533 0.30916 0.76494 0.0
C689 C 0.30882 0.31579 0.77661 0.0
C690 C 0.30056 0.29505 0.75805 0.0
C691 C 0.25379 0.25187 0.76258 0.0
H692 H 0.24634 0.25628 0.72806 0.0
C693 C 0.18752 0.19692 0.73503 0.0
C694 C 0.19454 0.19002 0.72348 0.0
C695 C 0.20194 0.21126 0.742 0.0
C696 C 0.24848 0.25465 0.73769 0.0
H697 H 0.28108 0.31474 0.7898 0.0
H698 H 0.25519 0.29087 0.77771 0.0
H699 H 0.26965 0.28526 0.73859 0.0
H700 H 0.22286 0.19086 0.71061 0.0
H701 H 0.24808 0.21521 0.72281 0.0
H702 H 0.23259 0.22126 0.76167 0.0
C703 C 0.27191 0.29576 0.77401 0.0
C704 C 0.2618 0.2713 0.74372 0.0
C705 C 0.28666 0.30963 0.78088 0.0
C706 C 0.21685 0.19619 0.71942 0.0
C707 C 0.23123 0.21031 0.72636 0.0
C708 C 0.24044 0.23523 0.75655 0.0
C709 C 0.27903 0.28754 0.76271 0.0
C710 C 0.26461 0.27012 0.75623 0.0
C711 C 0.22361 0.21876 0.73752 0.0
C712 C 0.23772 0.23637 0.74403 0.0
H713 H 0.33238 0.31353 0.76148 0.0
H714 H 0.30655 0.28901 0.74937 0.0
H715 H 0.25597 0.25019 0.7722 0.0
H716 H 0.17035 0.19254 0.73834 0.0
H717 H 0.19559 0.21747 0.75058 0.0
C718 C 0.1964 0.69013 0.2678 0.0
C719 C 0.19298 0.69658 0.27986 0.0
C720 C 0.21126 0.70322 0.2604 0.0
C721 C 0.2593 0.74639 0.26208 0.0
H722 H 0.24097 0.76182 0.22955 0.0
C723 C 0.30947 0.81369 0.23292 0.0
C724 C 0.31307 0.80713 0.2209 0.0
C725 C 0.29448 0.80069 0.24029 0.0
C726 C 0.24642 0.75753 0.2386 0.0
H727 H 0.20221 0.72229 0.29344 0.0
H728 H 0.22736 0.7448 0.28065 0.0
H729 H 0.21615 0.73662 0.24165 0.0
H730 H 0.30389 0.7814 0.20733 0.0
H731 H 0.27849 0.75904 0.22005 0.0
H732 H 0.28956 0.7673 0.25903 0.0
C733 C 0.21919 0.7294 0.27694 0.0
C734 C 0.23225 0.74299 0.2455 0.0
C735 C 0.20458 0.71642 0.28427 0.0
C736 C 0.30143 0.78731 0.21647 0.0
C737 C 0.28667 0.77444 0.22377 0.0
C738 C 0.27346 0.76094 0.25518 0.0
C739 C 0.22286 0.72296 0.26495 0.0
C740 C 0.23849 0.7373 0.25733 0.0
C741 C 0.28288 0.78094 0.23574 0.0
C742 C 0.26722 0.76663 0.24335 0.0
H743 H 0.1877 0.67501 0.26411 0.0
H744 H 0.21383 0.69778 0.25118 0.0
H745 H 0.26477 0.7421 0.27112 0.0
H746 H 0.31816 0.82881 0.23663 0.0
H747 H 0.29181 0.80618 0.24949 0.0
C748 C 0.316 0.19623 0.26369 0.0
C749 C 0.30907 0.18932 0.27524 0.0
C750 C 0.30164 0.21078 0.2568 0.0
C751 C 0.25552 0.25461 0.26143 0.0
H752 H 0.24849 0.25146 0.22685 0.0
C753 C 0.18983 0.311 0.23438 0.0
C754 C 0.1966 0.31791 0.22279 0.0
C755 C 0.20431 0.29649 0.24122 0.0
C756 C 0.25053 0.25278 0.2365 0.0
H757 H 0.28096 0.19033 0.28822 0.0
H758 H 0.25576 0.21497 0.27614 0.0
H759 H 0.2713 0.22185 0.23721 0.0
H760 H 0.22454 0.31692 0.20972 0.0
H761 H 0.24994 0.29235 0.22173 0.0
H762 H 0.23476 0.28554 0.26073 0.0
C763 C 0.27252 0.20994 0.27252 0.0
C764 C 0.26356 0.23574 0.24243 0.0
C765 C 0.28686 0.19563 0.27938 0.0
C766 C 0.21877 0.31163 0.21857 0.0
C767 C 0.23323 0.29735 0.2254 0.0
C768 C 0.2425 0.27165 0.2555 0.0
C769 C 0.2801 0.21847 0.26136 0.0
C770 C 0.26615 0.23641 0.25496 0.0
C771 C 0.22582 0.28884 0.23659 0.0
C772 C 0.23988 0.27097 0.24297 0.0
H773 H 0.33312 0.19177 0.26033 0.0
H774 H 0.30798 0.21704 0.24823 0.0
H775 H 0.25756 0.25592 0.27108 0.0
H776 H 0.17276 0.31543 0.2378 0.0
H777 H 0.19809 0.29024 0.24981 0.0
C778 C 0.18843 0.80929 0.76514 0.0
C779 C 0.19531 0.8156 0.7768 0.0
C780 C 0.20274 0.79494 0.75811 0.0
C781 C 0.24841 0.75054 0.76216 0.0
H782 H 0.25712 0.75675 0.7278 0.0
C783 C 0.31537 0.69645 0.73478 0.0
C784 C 0.30921 0.69052 0.72297 0.0
C785 C 0.30058 0.71046 0.74171 0.0
C786 C 0.2546 0.75457 0.73738 0.0
H787 H 0.22329 0.81364 0.78984 0.0
H788 H 0.24828 0.78924 0.77755 0.0
H789 H 0.23381 0.78544 0.73855 0.0
H790 H 0.28201 0.69275 0.70951 0.0
H791 H 0.25609 0.71647 0.72166 0.0
H792 H 0.26917 0.71968 0.761 0.0
C793 C 0.23163 0.79462 0.77395 0.0
C794 C 0.24128 0.77107 0.74352 0.0
C795 C 0.21738 0.80878 0.78094 0.0
C796 C 0.28735 0.69733 0.71855 0.0
C797 C 0.27258 0.7111 0.72546 0.0
C798 C 0.26169 0.73402 0.75601 0.0
C799 C 0.22414 0.78682 0.76264 0.0
C800 C 0.23813 0.76931 0.756 0.0
C801 C 0.27937 0.71858 0.73695 0.0
C802 C 0.26495 0.73584 0.74355 0.0
H803 H 0.17147 0.81419 0.76175 0.0
H804 H 0.1965 0.78923 0.74942 0.0
H805 H 0.24594 0.74843 0.77175 0.0
H806 H 0.33219 0.69156 0.73838 0.0
H807 H 0.30634 0.71592 0.75054 0.0
C808 C 0.55805 0.93743 0.51373 0.0
C809 C 0.56503 0.94452 0.52525 0.0
C810 C 0.54379 0.9519 0.50674 0.0
C811 C 0.50074 0.99881 0.511 0.0
H812 H 0.505 0.00593 0.47646 0.0
C813 C 0.44625 0.06562 0.48366 0.0
C814 C 0.43939 0.05893 0.47206 0.0
C815 C 0.46044 0.05093 0.49056 0.0
C816 C 0.50338 0.00387 0.4861 0.0
H817 H 0.56442 0.97296 0.53806 0.0
H818 H 0.54021 0.99825 0.52582 0.0
H819 H 0.53384 0.98246 0.48701 0.0
H820 H 0.44018 0.03094 0.45899 0.0
H821 H 0.46424 0.00523 0.47107 0.0
H822 H 0.47028 0.0202 0.5101 0.0
C823 C 0.54499 0.98133 0.5223 0.0
C824 C 0.51996 0.99046 0.49213 0.0
C825 C 0.55903 0.96692 0.52926 0.0
C826 C 0.44547 0.03669 0.46785 0.0
C827 C 0.45944 0.02203 0.47473 0.0
C828 C 0.48415 0.01221 0.50497 0.0
C829 C 0.53644 0.97367 0.51118 0.0
C830 C 0.51889 0.98785 0.50465 0.0
C831 C 0.46784 0.0293 0.48596 0.0
C832 C 0.48525 0.01488 0.49245 0.0
H833 H 0.5623 0.92019 0.51046 0.0
H834 H 0.53751 0.94551 0.49818 0.0
H835 H 0.49915 0.99678 0.52064 0.0
H836 H 0.44194 0.08273 0.48709 0.0
H837 H 0.46662 0.05704 0.49919 0.0
C838 C 0.058 0.93933 0.98537 0.0
C839 C 0.06521 0.94662 0.97392 0.0
C840 C 0.04362 0.95368 0.99236 0.0
C841 C 1.00079 1.00083 0.98815 0.0
H842 H 0.00414 0.00679 0.02277 0.0
C843 C 0.94571 0.06677 0.01576 0.0
C844 C 0.93855 0.05966 0.02725 0.0
C845 C 0.96003 0.0523 0.00881 0.0
C846 C 0.00278 0.00506 0.01311 0.0
H847 H 0.06489 0.9753 0.96126 0.0
H848 H 0.04051 1.00041 0.97351 0.0
H849 H 0.03324 0.98365 0.01223 0.0
H850 H 0.93891 0.03117 0.04003 0.0
H851 H 0.96319 0.00585 0.02784 0.0
H852 H 0.97033 0.02223 0.98903 0.0
C853 C 0.04517 0.98342 0.97696 0.0
C854 C 0.0195 0.99183 0.00708 0.0
C855 C 0.05932 0.96911 0.96999 0.0
C856 C 0.94444 0.03723 0.03126 0.0
C857 C 0.95853 0.0228 0.02433 0.0
C858 C 0.98406 0.01405 0.99418 0.0
C859 C 0.0364 0.97555 0.98801 0.0
C860 C 0.01875 0.98962 0.99452 0.0
C861 C 0.96725 0.03049 0.01324 0.0
C862 C 0.98483 0.01629 0.00674 0.0
H863 H 0.06215 0.92202 0.98857 0.0
H864 H 0.03716 0.94713 0.00085 0.0
H865 H 0.99943 0.99911 0.97848 0.0
H866 H 0.94156 0.08403 0.01249 0.0
H867 H 0.96645 0.05873 0.00029 0.0
C868 C 0.56121 0.03682 0.96923 0.0
C869 C 0.56647 0.05941 0.97323 0.0
C870 C 0.5471 0.02221 0.97604 0.0
C871 C 0.52032 0.01331 0.00586 0.0
H872 H 0.47231 0.98228 0.98726 0.0
C873 C 0.44482 0.96735 0.02922 0.0
C874 C 0.43966 0.94469 0.0253 0.0
C875 C 0.45887 0.98193 0.02235 0.0
C876 C 0.48571 0.99065 0.99256 0.0
H877 H 0.56241 0.0839 0.98786 0.0
H878 H 0.53749 0.05826 -0.00013 0.0
H879 H 0.50158 0.00577 0.97704 0.0
H880 H 0.44382 0.92002 0.01075 0.0
H881 H 0.46863 0.94562 0.99864 0.0
H882 H 0.50445 0.9982 0.02138 0.0
C883 C 0.5444 0.05185 0.99145 0.0
C884 C 0.50254 0.00406 0.98672 0.0
C885 C 0.55874 0.06651 0.98461 0.0
C886 C 0.44741 0.93747 0.01393 0.0
C887 C 0.46168 0.9521 0.00705 0.0
C888 C 0.5035 0.9999 0.0117 0.0
C889 C 0.53776 0.02988 0.987 0.0
C890 C 0.52007 0.01551 0.9933 0.0
C891 C 0.46826 0.97415 0.01143 0.0
C892 C 0.48596 0.98847 0.00512 0.0
H893 H 0.56718 0.03078 0.96053 0.0
H894 H 0.54287 0.00514 0.97253 0.0
H895 H 0.53373 0.02167 0.01116 0.0
H896 H 0.43883 0.97346 0.0379 0.0
H897 H 0.46304 0.99905 0.02581 0.0
C898 C 0.06054 0.03692 0.53016 0.0
C899 C 0.06645 0.05936 0.52618 0.0
C900 C 0.04639 0.02256 0.52322 0.0
C901 C 0.02091 0.01382 0.49309 0.0
H902 H 0.97157 0.98367 0.51114 0.0
C903 C 0.94589 0.96837 0.46892 0.0
C904 C 0.93992 0.94599 0.47296 0.0
C905 C 0.96 0.98281 0.47583 0.0
C906 C 0.98535 0.99178 0.50599 0.0
H907 H 0.06346 0.08382 0.51146 0.0
H908 H 0.0385 0.05861 0.49922 0.0
H909 H 1.00063 0.00689 0.52167 0.0
H910 H 0.9428 0.92171 0.48777 0.0
H911 H 0.96772 0.94704 0.49995 0.0
H912 H 0.00566 0.99868 0.47742 0.0
C913 C 0.04492 0.05214 0.50774 0.0
C914 C 1.00205 0.00506 0.51201 0.0
C915 C 0.05928 0.06655 0.5147 0.0
C916 C 0.94702 0.93893 0.48447 0.0
C917 C 0.96135 0.95342 0.49141 0.0
C918 C 0.00422 1.00053 0.48707 0.0
C919 C 0.03767 0.03032 0.51214 0.0
C920 C 0.02006 0.01618 0.50564 0.0
C921 C 0.96864 0.97518 0.48695 0.0
C922 C 0.98621 0.98939 0.49345 0.0
H923 H 0.06607 0.0308 0.53891 0.0
H924 H 0.0417 0.0056 0.52671 0.0
H925 H 0.03469 0.02193 0.48795 0.0
H926 H 0.94041 0.97439 0.46013 0.0
H927 H 0.96471 0.99973 0.4723 0.0
C928 C 0.94185 0.18548 0.04355 0.0
C929 C 0.95303 0.16501 0.0473 0.0
C930 C 0.95437 0.20629 0.04241 0.0
C931 C 0.0109 0.23345 0.05168 0.0
H932 H 0.992 0.28155 0.02928 0.0
C933 C 0.06424 0.31754 0.04261 0.0
C934 C 0.05182 0.33784 0.04552 0.0
C935 C 0.05272 0.29612 0.04172 0.0
C936 C 0.99746 0.26818 0.03554 0.0
H937 H 0.98626 0.14997 0.05219 0.0
H938 H 0.00827 0.18565 0.04955 0.0
H939 H 0.97124 0.24447 0.02958 0.0
H940 H 0.01756 0.35185 0.04925 0.0
H941 H 0.99738 0.31455 0.04725 0.0
H942 H 0.03758 0.25714 0.05732 0.0
C943 C 0.98968 0.18617 0.04804 0.0
C944 C 0.98545 0.24698 0.03582 0.0
C945 C 0.97708 0.16557 0.04946 0.0
C946 C 0.02759 0.33646 0.04706 0.0
C947 C 0.01602 0.31519 0.04586 0.0
C948 C 0.0232 0.25441 0.05119 0.0
C949 C 0.97849 0.207 0.04471 0.0
C950 C 0.99182 0.22935 0.04399 0.0
C951 C 0.02853 0.29478 0.04338 0.0
C952 C 0.01644 0.27203 0.04321 0.0
H953 H 0.92328 0.1856 0.04189 0.0
H954 H 0.94492 0.22191 0.04002 0.0
H955 H 0.01611 0.22072 0.05832 0.0
H956 H 0.08294 0.31808 0.04143 0.0
H957 H 0.06271 0.28057 0.0398 0.0
C958 C 0.0688 0.69207 0.29389 0.0
C959 C 0.08929 0.70292 0.29785 0.0
C960 C 0.04825 0.70498 0.29259 0.0
C961 C 0.02212 0.76181 0.30213 0.0
H962 H 0.97368 0.74446 0.27961 0.0
C963 C 0.93885 0.81676 0.29361 0.0
C964 C 0.91858 0.80453 0.29674 0.0
C965 C 0.96008 0.80499 0.29246 0.0
C966 C 0.98718 0.7495 0.28588 0.0
H967 H 0.10481 0.73589 0.30281 0.0
H968 H 0.06969 0.75855 0.29987 0.0
H969 H 0.01035 0.7229 0.27976 0.0
H970 H 0.90433 0.77039 0.30056 0.0
H971 H 0.94126 0.74979 0.29811 0.0
H972 H 0.99898 0.7888 0.30797 0.0
C973 C 0.06886 0.73996 0.29835 0.0
C974 C 0.00811 0.73704 0.28608 0.0
C975 C 0.08914 0.727 0.29994 0.0
C976 C 0.91974 0.78026 0.29823 0.0
C977 C 0.94078 0.76846 0.29676 0.0
C978 C 1.00144 0.77455 0.30172 0.0
C979 C 0.04792 0.72912 0.29495 0.0
C980 C 0.02584 0.74286 0.2943 0.0
C981 C 0.96118 0.78075 0.29406 0.0
C982 C 0.98372 0.76837 0.29369 0.0
H983 H 0.06845 0.67349 0.29226 0.0
H984 H 0.03252 0.69584 0.29009 0.0
H985 H 0.03491 0.76656 0.30882 0.0
H986 H 0.93842 0.83547 0.29244 0.0
H987 H 0.97567 0.8148 0.29039 0.0
C988 C 0.44312 0.68529 0.54276 0.0
C989 C 0.45395 0.66518 0.54725 0.0
C990 C 0.45554 0.7062 0.54178 0.0
C991 C 0.51016 0.73472 0.5528 0.0
H992 H 0.49491 0.78059 0.52849 0.0
C993 C 0.56516 0.81763 0.54336 0.0
C994 C 0.5526 0.8382 0.54548 0.0
C995 C 0.5536 0.79622 0.54262 0.0
C996 C 0.49934 0.76785 0.53529 0.0
H997 H 0.48655 0.65095 0.5537 0.0
H998 H 0.50841 0.68678 0.55144 0.0
H999 H 0.47414 0.74348 0.52884 0.0
H1000 H 0.51814 0.85269 0.548 0.0
H1001 H 0.49789 0.81534 0.54622 0.0
H1002 H 0.53587 0.75901 0.55894 0.0
C1003 C 0.49011 0.68693 0.54916 0.0
C1004 C 0.48732 0.74665 0.53559 0.0
C1005 C 0.4776 0.66623 0.55037 0.0
C1006 C 0.52824 0.83708 0.5464 0.0
C1007 C 0.51666 0.81579 0.54534 0.0
C1008 C 0.52249 0.75566 0.55231 0.0
C1009 C 0.47922 0.70738 0.54504 0.0
C1010 C 0.49242 0.72981 0.54442 0.0
C1011 C 0.52926 0.79514 0.54365 0.0
C1012 C 0.51706 0.77246 0.54362 0.0
H1013 H 0.42487 0.68506 0.54034 0.0
H1014 H 0.44633 0.72154 0.53874 0.0
H1015 H 0.51431 0.72262 0.55993 0.0
H1016 H 0.58395 0.818 0.54269 0.0
H1017 H 0.56364 0.78047 0.54133 0.0
C1018 C 0.58871 0.22832 0.79659 0.0
C1019 C 0.58921 0.20411 0.79494 0.0
C1020 C 0.56802 0.24077 0.7952 0.0
C1021 C 0.50639 0.23554 0.78427 0.0
H1022 H 0.49765 0.28885 0.80517 0.0
C1023 C 0.41764 0.2781 0.79655 0.0
C1024 C 0.41617 0.30231 0.79489 0.0
C1025 C 0.43882 0.2665 0.79505 0.0
C1026 C 0.49997 0.27414 0.7992 0.0
H1027 H 0.56849 0.17392 0.79041 0.0
H1028 H 0.53203 0.19535 0.78859 0.0
H1029 H 0.53419 0.26758 0.80574 0.0
H1030 H 0.43564 0.33333 0.79026 0.0
H1031 H 0.47299 0.31304 0.78808 0.0
H1032 H 0.47134 0.2416 0.77835 0.0
C1033 C 0.54773 0.205 0.79056 0.0
C1034 C 0.521 0.26195 0.79944 0.0
C1035 C 0.56863 0.19261 0.79166 0.0
C1036 C 0.43625 0.31465 0.79154 0.0
C1037 C 0.45758 0.3031 0.79034 0.0
C1038 C 0.48514 0.24746 0.78425 0.0
C1039 C 0.54706 0.22927 0.79245 0.0
C1040 C 0.52461 0.24246 0.79197 0.0
C1041 C 0.45904 0.27894 0.79214 0.0
C1042 C 0.48179 0.26688 0.7917 0.0
H1043 H 0.6044 0.23771 0.79896 0.0
H1044 H 0.56856 0.25946 0.79636 0.0
H1045 H 0.5085 0.22097 0.77821 0.0
H1046 H 0.40242 0.26813 0.79908 0.0
H1047 H 0.43956 0.24789 0.79656 0.0
C1048 C 0.94179 0.81983 0.45641 0.0
C1049 C 0.95328 0.84027 0.45287 0.0
C1050 C 0.95407 0.79887 0.45751 0.0
C1051 C 0.01063 0.77139 0.44849 0.0
H1052 H 0.99079 0.72302 0.47052 0.0
C1053 C 0.06359 0.68721 0.45781 0.0
C1054 C 0.05128 0.66685 0.45489 0.0
C1055 C 0.05202 0.70861 0.45858 0.0
C1056 C 0.99651 0.73646 0.46436 0.0
H1057 H 0.98678 0.85508 0.4483 0.0
H1058 H 0.00836 0.81912 0.45086 0.0
H1059 H 0.9702 0.76019 0.47019 0.0
H1060 H 0.01712 0.65276 0.45098 0.0
H1061 H 0.99684 0.69005 0.45275 0.0
H1062 H 0.0374 0.74768 0.44299 0.0
C1063 C 0.98973 0.81875 0.45225 0.0
C1064 C 0.9846 0.75771 0.46406 0.0
C1065 C 0.97738 0.83952 0.45087 0.0
C1066 C 0.02708 0.66818 0.45319 0.0
C1067 C 0.01545 0.68945 0.45426 0.0
C1068 C 0.02282 0.75036 0.449 0.0
C1069 C 0.97824 0.79796 0.45536 0.0
C1070 C 0.99135 0.77547 0.45604 0.0
C1071 C 0.02787 0.7099 0.45676 0.0
C1072 C 0.01574 0.73265 0.45684 0.0
H1073 H 0.92318 0.81988 0.45794 0.0
H1074 H 0.94441 0.78329 0.45973 0.0
H1075 H 0.01613 0.7842 0.44196 0.0
H1076 H 0.08226 0.68672 0.45911 0.0
H1077 H 0.06194 0.72419 0.46052 0.0
C1078 C 0.56969 0.81245 0.70765 0.0
C1079 C 0.59021 0.80094 0.70428 0.0
C1080 C 0.54885 0.80005 0.70895 0.0
C1081 C 0.52199 0.74292 0.70051 0.0
H1082 H 0.47268 0.76382 0.72169 0.0
C1083 C 0.43697 0.69085 0.70871 0.0
C1084 C 0.417 0.70331 0.70529 0.0
C1085 C 0.45838 0.70226 0.70991 0.0
C1086 C 0.48639 0.75779 0.71578 0.0
H1087 H 0.60538 0.76731 0.70032 0.0
H1088 H 0.56964 0.74553 0.70327 0.0
H1089 H 0.50992 0.78431 0.7216 0.0
H1090 H 0.40352 0.73755 0.70101 0.0
H1091 H 0.44078 0.75755 0.70354 0.0
H1092 H 0.49847 0.71601 0.69499 0.0
C1093 C 0.5691 0.76424 0.70434 0.0
C1094 C 0.50769 0.76963 0.71562 0.0
C1095 C 0.58973 0.7767 0.70275 0.0
C1096 C 0.41865 0.7275 0.7036 0.0
C1097 C 0.4399 0.73896 0.7051 0.0
C1098 C 0.50093 0.73081 0.70089 0.0
C1099 C 0.54818 0.77575 0.70719 0.0
C1100 C 0.52575 0.76255 0.70787 0.0
C1101 C 0.46002 0.72639 0.70805 0.0
C1102 C 0.48286 0.73828 0.70841 0.0
H1103 H 0.56955 0.83117 0.70882 0.0
H1104 H 0.53318 0.80972 0.71098 0.0
H1105 H 0.53506 0.73714 0.69418 0.0
H1106 H 0.43622 0.67219 0.71001 0.0
H1107 H 0.47371 0.69222 0.71219 0.0
C1108 C 0.52733 0.16548 0.95098 0.0
C1109 C 0.5514 0.16496 0.95307 0.0
C1110 C 0.51475 0.18612 0.9523 0.0
C1111 C 0.51913 0.24724 0.9641 0.0
H1112 H 0.46675 0.25683 0.94269 0.0
C1113 C 0.4766 0.33639 0.95249 0.0
C1114 C 0.45237 0.3377 0.95411 0.0
C1115 C 0.48826 0.31519 0.95377 0.0
C1116 C 0.48121 0.25426 0.9488 0.0
H1117 H 0.58122 0.18565 0.95826 0.0
H1118 H 0.55962 0.22202 0.95997 0.0
H1119 H 0.48825 0.22041 0.94186 0.0
H1120 H 0.42139 0.31791 0.9584 0.0
H1121 H 0.44179 0.28052 0.96017 0.0
H1122 H 0.51262 0.28195 0.97044 0.0
C1123 C 0.55014 0.20636 0.95771 0.0
C1124 C 0.49352 0.2333 0.9484 0.0
C1125 C 0.56263 0.18551 0.95666 0.0
C1126 C 0.44007 0.31742 0.95717 0.0
C1127 C 0.45169 0.29607 0.95814 0.0
C1128 C 0.50711 0.26843 0.96428 0.0
C1129 C 0.526 0.20702 0.95546 0.0
C1130 C 0.51268 0.2294 0.95606 0.0
C1131 C 0.47586 0.29478 0.95639 0.0
C1132 C 0.48803 0.27208 0.95664 0.0
H1133 H 0.51812 0.14982 0.94837 0.0
H1134 H 0.49615 0.18558 0.95084 0.0
H1135 H 0.53342 0.24489 0.97031 0.0
H1136 H 0.48653 0.35177 0.95018 0.0
H1137 H 0.50689 0.31458 0.95232 0.0
C1138 C 0.08995 0.27826 0.20325 0.0
C1139 C 0.09028 0.30249 0.20482 0.0
C1140 C 0.06936 0.26567 0.20473 0.0
C1141 C 0.00774 0.27058 0.21576 0.0
H1142 H 0.99922 0.21692 0.19508 0.0
C1143 C 0.91904 0.22766 0.2039 0.0
C1144 C 0.91761 0.20343 0.20553 0.0
C1145 C 0.94023 0.23928 0.20531 0.0
C1146 C 1.00148 0.23173 0.20099 0.0
H1147 H 0.06937 0.33258 0.2093 0.0
H1148 H 0.03308 0.31089 0.21128 0.0
H1149 H 0.03564 0.23838 0.19439 0.0
H1150 H 0.93721 0.17241 0.20999 0.0
H1151 H 0.97459 0.19273 0.212 0.0
H1152 H 0.97275 0.26442 0.22175 0.0
C1153 C 0.04884 0.30133 0.20931 0.0
C1154 C 0.02244 0.24403 0.20068 0.0
C1155 C 0.06964 0.31387 0.20811 0.0
C1156 C 0.93778 0.19109 0.20874 0.0
C1157 C 0.95913 0.20267 0.20984 0.0
C1158 C 0.98656 0.25854 0.21586 0.0
C1159 C 0.04833 0.27703 0.2075 0.0
C1160 C 0.02597 0.26367 0.20807 0.0
C1161 C 0.96053 0.22685 0.20809 0.0
C1162 C 0.98326 0.239 0.20848 0.0
H1163 H 0.10568 0.26896 0.20087 0.0
H1164 H 0.07003 0.24697 0.20363 0.0
H1165 H 0.00978 0.28526 0.22176 0.0
H1166 H 0.90376 0.23763 0.20148 0.0
H1167 H 0.9409 0.2579 0.20383 0.0
C1168 C 0.97751 0.66934 0.95216 0.0
C1169 C 0.95331 0.66794 0.95386 0.0
C1170 C 0.98914 0.69056 0.95349 0.0
C1171 C 0.98179 0.75159 0.94886 0.0
H1172 H 0.03427 0.76075 0.97023 0.0
C1173 C 0.02725 0.84062 0.95148 0.0
C1174 C 0.05136 0.84128 0.95347 0.0
C1175 C 0.01487 0.81985 0.95272 0.0
C1176 C 0.0199 0.75846 0.96406 0.0
H1177 H 0.92234 0.68759 0.95835 0.0
H1178 H 0.94266 0.725 0.9602 0.0
H1179 H 0.01368 0.72356 0.97019 0.0
H1180 H 0.08142 0.82071 0.9584 0.0
H1181 H 0.06014 0.78412 0.95996 0.0
H1182 H 0.98851 0.78564 0.94213 0.0
C1183 C 0.95257 0.70951 0.95806 0.0
C1184 C 0.008 0.73719 0.96414 0.0
C1185 C 0.94101 0.68815 0.95704 0.0
C1186 C 0.06281 0.82074 0.95688 0.0
C1187 C 0.0505 0.79977 0.95784 0.0
C1188 C 0.99397 0.77263 0.94856 0.0
C1189 C 0.97672 0.71088 0.95625 0.0
C1190 C 0.98882 0.73362 0.95657 0.0
C1191 C 0.02633 0.79896 0.95569 0.0
C1192 C 0.01321 0.77646 0.95617 0.0
H1193 H 0.98746 0.65403 0.94976 0.0
H1194 H 0.00775 0.69123 0.95198 0.0
H1195 H 0.96725 0.74909 0.94281 0.0
H1196 H 0.01788 0.85626 0.94901 0.0
H1197 H 0.99624 0.82028 0.95134 0.0
C1198 C 0.91768 0.27866 0.70248 0.0
C1199 C 0.9163 0.30284 0.70428 0.0
C1200 C 0.93883 0.26696 0.70383 0.0
C1201 C 0.99989 0.27429 0.69945 0.0
H1202 H 0.00863 0.22123 0.72049 0.0
C1203 C 0.08858 0.22822 0.70183 0.0
C1204 C 0.08906 0.20404 0.70363 0.0
C1205 C 0.06791 0.24072 0.70318 0.0
C1206 C 0.00646 0.23577 0.71441 0.0
H1207 H 0.93593 0.3337 0.709 0.0
H1208 H 0.97325 0.31326 0.7109 0.0
H1209 H 0.97154 0.24198 0.7205 0.0
H1210 H 0.06831 0.17398 0.70835 0.0
H1211 H 0.03189 0.19548 0.71008 0.0
H1212 H 0.03396 0.26758 0.69274 0.0
C1213 C 0.95778 0.30342 0.70866 0.0
C1214 C 0.98525 0.24776 0.71452 0.0
C1215 C 0.93647 0.31505 0.7076 0.0
C1216 C 0.06846 0.19264 0.70697 0.0
C1217 C 0.04759 0.20507 0.70803 0.0
C1218 C 0.02087 0.26203 0.69911 0.0
C1219 C 0.95913 0.27929 0.70673 0.0
C1220 C 0.98183 0.26714 0.70706 0.0
C1221 C 0.04695 0.22931 0.70605 0.0
C1222 C 0.02455 0.24257 0.7066 0.0
H1223 H 0.90238 0.26878 0.69997 0.0
H1224 H 0.93949 0.24838 0.70223 0.0
H1225 H 0.99751 0.28899 0.69347 0.0
H1226 H 0.10428 0.23754 0.69942 0.0
H1227 H 0.06847 0.25938 0.70193 0.0
C1228 C 0.56452 0.31779 0.4574 0.0
C1229 C 0.55225 0.33801 0.45419 0.0
C1230 C 0.55295 0.29642 0.45835 0.0
C1231 C 0.49748 0.26865 0.46418 0.0
H1232 H 0.51709 0.22051 0.442 0.0
C1233 C 0.44242 0.1855 0.45631 0.0
C1234 C 0.45379 0.16499 0.45278 0.0
C1235 C 0.45484 0.20637 0.45746 0.0
C1236 C 0.5116 0.23343 0.44848 0.0
H1237 H 0.51816 0.35193 0.44998 0.0
H1238 H 0.49786 0.3147 0.45208 0.0
H1239 H 0.53842 0.257 0.4429 0.0
H1240 H 0.48721 0.14993 0.44829 0.0
H1241 H 0.50905 0.18572 0.45095 0.0
H1242 H 0.47111 0.24506 0.47009 0.0
C1243 C 0.51644 0.31538 0.45366 0.0
C1244 C 0.52382 0.25444 0.44891 0.0
C1245 C 0.52808 0.3366 0.4524 0.0
C1246 C 0.47792 0.16556 0.45086 0.0
C1247 C 0.49041 0.18622 0.45229 0.0
C1248 C 0.48554 0.24741 0.46397 0.0
C1249 C 0.52883 0.29505 0.45644 0.0
C1250 C 0.51673 0.2723 0.45666 0.0
C1251 C 0.47904 0.2071 0.45537 0.0
C1252 C 0.49227 0.22952 0.45602 0.0
H1253 H 0.58317 0.31835 0.45877 0.0
H1254 H 0.56284 0.28092 0.4605 0.0
H1255 H 0.49176 0.28221 0.47026 0.0
H1256 H 0.4238 0.18559 0.45778 0.0
H1257 H 0.44527 0.22201 0.45966 0.0
C1258 C 0.43969 0.81664 0.20323 0.0
C1259 C 0.4186 0.80442 0.20376 0.0
C1260 C 0.46085 0.80464 0.20396 0.0
C1261 C 0.48956 0.75181 0.21428 0.0
H1262 H 0.52816 0.75743 0.18588 0.0
C1263 C 0.5686 0.69097 0.20585 0.0
C1264 C 0.58777 0.70017 0.19962 0.0
C1265 C 0.54807 0.70396 0.20706 0.0
C1266 C 0.51795 0.75593 0.19401 0.0
H1267 H 0.40278 0.77052 0.20599 0.0
H1268 H 0.43981 0.74965 0.20781 0.0
H1269 H 0.49303 0.78075 0.18762 0.0
H1270 H 0.6007 0.7306 0.19021 0.0
H1271 H 0.56568 0.75341 0.19273 0.0
H1272 H 0.51466 0.72745 0.22087 0.0
C1273 C 0.44001 0.76837 0.20667 0.0
C1274 C 0.49774 0.76928 0.19496 0.0
C1275 C 0.4189 0.78026 0.20561 0.0
C1276 C 0.58613 0.72278 0.19488 0.0
C1277 C 0.56589 0.73586 0.19627 0.0
C1278 C 0.51008 0.73876 0.21346 0.0
C1279 C 0.46115 0.78036 0.20555 0.0
C1280 C 0.48331 0.76726 0.20506 0.0
C1281 C 0.54641 0.72661 0.20225 0.0
C1282 C 0.52454 0.74055 0.20328 0.0
H1283 H 0.4398 0.83526 0.20169 0.0
H1284 H 0.47698 0.81422 0.20305 0.0
H1285 H 0.47863 0.74997 0.22216 0.0
H1286 H 0.56931 0.67359 0.2096 0.0
H1287 H 0.53341 0.69605 0.21159 0.0
C1288 C 0.97706 0.33594 0.54749 0.0
C1289 C 0.95282 0.33716 0.54591 0.0
C1290 C 0.9888 0.31479 0.54619 0.0
C1291 C 0.98195 0.25377 0.55109 0.0
H1292 H 0.03426 0.24475 0.5296 0.0
C1293 C 0.02816 0.16509 0.54865 0.0
C1294 C 0.05224 0.1646 0.54658 0.0
C1295 C 0.01558 0.18574 0.54739 0.0
C1296 C 0.01994 0.247 0.53581 0.0
H1297 H 0.92189 0.31724 0.54166 0.0
H1298 H 0.94243 0.27993 0.53986 0.0
H1299 H 0.01335 0.28176 0.52955 0.0
H1300 H 0.08207 0.18536 0.54148 0.0
H1301 H 0.06046 0.22175 0.53988 0.0
H1302 H 0.98905 0.21987 0.55794 0.0
C1303 C 0.95228 0.29552 0.54188 0.0
C1304 C 0.00786 0.26816 0.53567 0.0
C1305 C 0.94058 0.31682 0.54287 0.0
C1306 C 0.06348 0.1852 0.54307 0.0
C1307 C 0.05098 0.20605 0.54208 0.0
C1308 C 0.99431 0.23284 0.55144 0.0
C1309 C 0.97647 0.29434 0.54358 0.0
C1310 C 0.98873 0.27168 0.5433 0.0
C1311 C 0.02683 0.20668 0.54431 0.0
C1312 C 0.0135 0.22906 0.54378 0.0
H1313 H 0.98695 0.35136 0.54978 0.0
H1314 H 0.00744 0.31427 0.54761 0.0
H1315 H 0.96746 0.25623 0.55719 0.0
H1316 H 0.01895 0.1494 0.5512 0.0
H1317 H 0.99698 0.18517 0.54883 0.0
C1318 C 0.41766 0.2262 0.29489 0.0
C1319 C 0.4163 0.2019 0.29362 0.0
C1320 C 0.43894 0.23773 0.29362 0.0
C1321 C 0.49977 0.23036 0.29918 0.0
H1322 H 0.50955 0.28297 0.27796 0.0
C1323 C 0.58836 0.27703 0.2979 0.0
C1324 C 0.58881 0.30116 0.29592 0.0
C1325 C 0.56784 0.26435 0.29636 0.0
C1326 C 0.50708 0.26856 0.28409 0.0
H1327 H 0.43606 0.17062 0.28991 0.0
H1328 H 0.47358 0.1908 0.28814 0.0
H1329 H 0.4726 0.26201 0.27746 0.0
H1330 H 0.5681 0.33095 0.29071 0.0
H1331 H 0.53192 0.30915 0.28862 0.0
H1332 H 0.53338 0.23743 0.3064 0.0
C1333 C 0.45802 0.20086 0.2899 0.0
C1334 C 0.48596 0.25644 0.2837 0.0
C1335 C 0.4366 0.18937 0.29086 0.0
C1336 C 0.5683 0.31233 0.29223 0.0
C1337 C 0.54757 0.29972 0.29096 0.0
C1338 C 0.52067 0.24275 0.29978 0.0
C1339 C 0.45937 0.22513 0.29135 0.0
C1340 C 0.48214 0.23723 0.29123 0.0
C1341 C 0.54697 0.27552 0.29309 0.0
C1342 C 0.5247 0.26207 0.29224 0.0
H1343 H 0.40228 0.23631 0.29697 0.0
H1344 H 0.43956 0.25642 0.29485 0.0
H1345 H 0.49709 0.21582 0.30522 0.0
H1346 H 0.60398 0.26785 0.30058 0.0
H1347 H 0.56845 0.24572 0.29775 0.0
C1348 C 0.47747 0.83747 0.04629 0.0
C1349 C 0.45306 0.83841 0.04567 0.0
C1350 C 0.48914 0.81622 0.0452 0.0
C1351 C 0.48396 0.75615 0.05253 0.0
H1352 H 0.53119 0.74375 0.0285 0.0
C1353 C 0.52847 0.66661 0.05015 0.0
C1354 C 0.55197 0.66542 0.04673 0.0
C1355 C 0.51601 0.68737 0.04908 0.0
C1356 C 0.51834 0.74698 0.0354 0.0
H1357 H 0.42172 0.81796 0.04338 0.0
H1358 H 0.4422 0.78053 0.04199 0.0
H1359 H 0.51035 0.78082 0.02829 0.0
H1360 H 0.58082 0.68514 0.03946 0.0
H1361 H 0.55945 0.72173 0.0381 0.0
H1362 H 0.49253 0.7232 0.06015 0.0
C1363 C 0.45221 0.79637 0.04307 0.0
C1364 C 0.50628 0.76816 0.03519 0.0
C1365 C 0.44054 0.81772 0.04382 0.0
C1366 C 0.56269 0.68548 0.04211 0.0
C1367 C 0.55033 0.70645 0.04127 0.0
C1368 C 0.49633 0.73523 0.05293 0.0
C1369 C 0.47659 0.79546 0.04379 0.0
C1370 C 0.48892 0.77285 0.04372 0.0
C1371 C 0.52681 0.70775 0.04482 0.0
C1372 C 0.51366 0.73023 0.04434 0.0
H1373 H 0.48753 0.85318 0.04767 0.0
H1374 H 0.50794 0.81591 0.04585 0.0
H1375 H 0.47088 0.75956 0.05932 0.0
H1376 H 0.51958 0.65138 0.05359 0.0
H1377 H 0.49782 0.68731 0.05158 0.0
C1378 C 0.91866 0.72738 0.7972 0.0
C1379 C 0.91729 0.70315 0.79559 0.0
C1380 C 0.93988 0.73899 0.79591 0.0
C1381 C 1.00069 0.73189 0.80091 0.0
H1382 H 0.01027 0.78386 0.77925 0.0
C1383 C 0.08946 0.77792 0.7988 0.0
C1384 C 0.09 0.80199 0.79667 0.0
C1385 C 0.06885 0.76534 0.79744 0.0
C1386 C 0.00786 0.76964 0.7855 0.0
H1387 H 0.93698 0.6721 0.79129 0.0
H1388 H 0.97441 0.6924 0.78951 0.0
H1389 H 0.9732 0.76309 0.77912 0.0
H1390 H 0.06939 0.83178 0.79135 0.0
H1391 H 0.03305 0.81017 0.78958 0.0
H1392 H 0.03448 0.73897 0.80789 0.0
C1393 C 0.9589 0.70235 0.79154 0.0
C1394 C 0.98667 0.75763 0.78532 0.0
C1395 C 0.93753 0.69078 0.79253 0.0
C1396 C 0.06951 0.8132 0.79299 0.0
C1397 C 0.04868 0.8007 0.7919 0.0
C1398 C 0.02165 0.74418 0.8013 0.0
C1399 C 0.96023 0.72653 0.79328 0.0
C1400 C 0.98295 0.73864 0.79301 0.0
C1401 C 0.04799 0.77657 0.7942 0.0
C1402 C 0.02563 0.76326 0.79359 0.0
H1403 H 0.90332 0.73736 0.79952 0.0
H1404 H 0.94053 0.75762 0.79735 0.0
H1405 H 0.99807 0.7175 0.80705 0.0
H1406 H 0.10508 0.76873 0.80148 0.0
H1407 H 0.06937 0.74674 0.79894 0.0
C1408 C 0.33388 0.37593 0.98406 0.0
C1409 C 0.34277 0.39562 0.97817 0.0
C1410 C 0.312 0.3766 0.98957 0.0
C1411 C 0.25714 0.41218 0.99045 0.0
H1412 H 0.24282 0.37135 0.01718 0.0
C1413 C 0.17424 0.41649 0.02107 0.0
C1414 C 0.16134 0.39571 0.02138 0.0
C1415 C 0.196 0.41725 0.01541 0.0
C1416 C 0.24661 0.38278 0.00969 0.0
H1417 H 0.33616 0.43175 0.97387 0.0
H1418 H 0.29874 0.43347 0.98409 0.0
H1419 H 0.28211 0.37198 0.00898 0.0
H1420 H 0.16107 0.35948 0.01596 0.0
H1421 H 0.19949 0.36066 0.00643 0.0
H1422 H 0.22163 0.42362 0.99169 0.0
C1423 C 0.30804 0.41711 0.98405 0.0
C1424 C 0.26912 0.38307 0.00489 0.0
C1425 C 0.32969 0.41625 0.97829 0.0
C1426 C 0.17052 0.37578 0.01579 0.0
C1427 C 0.19253 0.3764 0.0104 0.0
C1428 C 0.23478 0.41227 0.99547 0.0
C1429 C 0.29859 0.39716 0.98959 0.0
C1430 C 0.27474 0.39759 0.99509 0.0
C1431 C 0.20552 0.39709 0.01023 0.0
C1432 C 0.22927 0.3974 0.00504 0.0
H1433 H 0.34343 0.35968 0.98399 0.0
H1434 H 0.30539 0.36068 0.99348 0.0
H1435 H 0.26038 0.42327 0.98278 0.0
H1436 H 0.16762 0.4321 0.02532 0.0
H1437 H 0.20574 0.43338 0.0154 0.0
C1438 C 0.87864 0.0839 0.23431 0.0
C1439 C 0.85886 0.09337 0.22872 0.0
C1440 C 0.87785 0.06166 0.23945 0.0
C1441 C 0.84113 0.01865 0.25351 0.0
H1442 H 0.88282 0.97221 0.24031 0.0
C1443 C 0.83712 0.92313 0.26987 0.0
C1444 C 0.85794 0.91038 0.27034 0.0
C1445 C 0.83632 0.94487 0.26417 0.0
C1446 C 0.87131 0.98494 0.24431 0.0
H1447 H 0.82255 0.08734 0.22453 0.0
H1448 H 0.82096 0.04882 0.23401 0.0
H1449 H 0.88368 0.01183 0.23254 0.0
H1450 H 0.89424 0.9104 0.26517 0.0
H1451 H 0.89328 0.94854 0.2558 0.0
H1452 H 0.82943 0.99243 0.26569 0.0
C1453 C 0.83712 0.05851 0.2342 0.0
C1454 C 0.87174 0.00765 0.23975 0.0
C1455 C 0.83805 0.08051 0.22879 0.0
C1456 C 0.87784 0.91966 0.26482 0.0
C1457 C 0.87721 0.94162 0.25938 0.0
C1458 C 0.84105 0.99608 0.25828 0.0
C1459 C 0.85714 0.0487 0.23937 0.0
C1460 C 0.85665 0.0247 0.2443 0.0
C1461 C 0.85649 0.95474 0.25905 0.0
C1462 C 0.85614 0.97879 0.25375 0.0
H1463 H 0.89497 0.0933 0.23432 0.0
H1464 H 0.89349 0.05449 0.24343 0.0
H1465 H 0.82939 0.03156 0.2572 0.0
H1466 H 0.82145 0.91639 0.274 0.0
H1467 H 0.81984 0.95395 0.26389 0.0
C1468 C 0.17473 0.59 0.47941 0.0
C1469 C 0.16169 0.61064 0.47901 0.0
C1470 C 0.1966 0.58954 0.48495 0.0
C1471 C 0.23637 0.62487 0.50473 0.0
H1472 H 0.28308 0.58292 0.49196 0.0
C1473 C 0.33489 0.63075 0.51609 0.0
C1474 C 0.3438 0.61051 0.5215 0.0
C1475 C 0.31296 0.63055 0.51061 0.0
C1476 C 0.27016 0.59469 0.49561 0.0
H1477 H 0.1613 0.64699 0.48411 0.0
H1478 H 0.19973 0.64662 0.49321 0.0
H1479 H 0.24416 0.5832 0.48326 0.0
H1480 H 0.33716 0.57401 0.52498 0.0
H1481 H 0.29922 0.57347 0.51492 0.0
H1482 H 0.26303 0.63697 0.51671 0.0
C1483 C 0.19293 0.63044 0.48969 0.0
C1484 C 0.24771 0.59474 0.49072 0.0
C1485 C 0.17083 0.63074 0.4844 0.0
C1486 C 0.33075 0.58986 0.52088 0.0
C1487 C 0.30908 0.58952 0.51513 0.0
C1488 C 0.25898 0.62518 0.50941 0.0
C1489 C 0.20631 0.60987 0.48998 0.0
C1490 C 0.23036 0.60975 0.49524 0.0
C1491 C 0.29978 0.60997 0.51016 0.0
C1492 C 0.27604 0.61002 0.50493 0.0
H1493 H 0.16807 0.57419 0.47538 0.0
H1494 H 0.20587 0.57316 0.48523 0.0
H1495 H 0.22359 0.63635 0.50871 0.0
H1496 H 0.34447 0.64696 0.51651 0.0
H1497 H 0.30618 0.64651 0.5068 0.0
C1498 C 0.66357 0.07627 0.77483 0.0
C1499 C 0.64663 0.09286 0.77172 0.0
C1500 C 0.66426 0.0546 0.76911 0.0
C1501 C 0.66922 0.0141 0.75171 0.0
H1502 H 0.61079 0.98306 0.74499 0.0
C1503 C 0.66393 0.9294 0.72367 0.0
C1504 C 0.64745 0.91251 0.72698 0.0
C1505 C 0.66444 0.95111 0.72935 0.0
C1506 C 0.62728 0.99136 0.7469 0.0
H1507 H 0.61745 0.09985 0.75993 0.0
H1508 H 0.61884 0.06214 0.7498 0.0
H1509 H 0.6106 0.02164 0.75409 0.0
H1510 H 0.61892 0.90502 0.73912 0.0
H1511 H 0.62002 0.94279 0.74919 0.0
H1512 H 0.68592 0.98364 0.74476 0.0
C1513 C 0.6314 0.06575 0.75681 0.0
C1514 C 0.62717 0.01367 0.75197 0.0
C1515 C 0.63072 0.08747 0.76254 0.0
C1516 C 0.63184 0.91764 0.73634 0.0
C1517 C 0.63234 0.93939 0.74204 0.0
C1518 C 0.66934 0.99181 0.74664 0.0
C1519 C 0.64802 0.04892 0.76012 0.0
C1520 C 0.64814 0.02535 0.75445 0.0
C1521 C 0.64848 0.95652 0.73852 0.0
C1522 C 0.64837 0.98011 0.74416 0.0
H1523 H 0.67604 0.07979 0.78189 0.0
H1524 H 0.67714 0.04204 0.772 0.0
H1525 H 0.68571 0.02261 0.75339 0.0
H1526 H 0.67616 0.92609 0.71646 0.0
H1527 H 0.67694 0.9639 0.7263 0.0
C1528 C 0.67417 0.58951 0.01946 0.0
C1529 C 0.66133 0.61027 0.02024 0.0
C1530 C 0.69584 0.58912 0.0137 0.0
C1531 C 0.74631 0.62432 0.00837 0.0
H1532 H 0.76068 0.5835 0.98167 0.0
C1533 C 0.83439 0.63041 0.98335 0.0
C1534 C 0.84334 0.61055 0.97765 0.0
C1535 C 0.81232 0.62998 0.98868 0.0
C1536 C 0.75726 0.5947 0.98928 0.0
H1537 H 0.66102 0.64686 0.01553 0.0
H1538 H 0.6993 0.64631 0.00581 0.0
H1539 H 0.72176 0.58321 0.99037 0.0
H1540 H 0.83665 0.57437 0.97349 0.0
H1541 H 0.79891 0.57307 0.98341 0.0
H1542 H 0.78182 0.63514 0.00781 0.0
C1543 C 0.69236 0.6303 0.0095 0.0
C1544 C 0.73481 0.59465 0.99417 0.0
C1545 C 0.67042 0.63057 0.01498 0.0
C1546 C 0.83014 0.59 0.97777 0.0
C1547 C 0.80831 0.58939 0.98335 0.0
C1548 C 0.76892 0.624 0.00369 0.0
C1549 C 0.70533 0.60962 0.00889 0.0
C1550 C 0.72909 0.6096 0.00369 0.0
C1551 C 0.7988 0.60951 0.9887 0.0
C1552 C 0.77477 0.60931 0.99399 0.0
H1553 H 0.66761 0.57362 0.02345 0.0
H1554 H 0.70554 0.57298 0.01337 0.0
H1555 H 0.74239 0.6358 0.01582 0.0
H1556 H 0.84402 0.6466 0.98327 0.0
H1557 H 0.80568 0.64601 0.99245 0.0
C1558 C 0.12554 0.9209 0.76583 0.0
C1559 C 0.14555 0.91204 0.77142 0.0
C1560 C 0.12587 0.94283 0.76034 0.0
C1561 C 0.16135 0.99773 0.75916 0.0
H1562 H 0.11926 0.01252 0.73303 0.0
C1563 C 0.16553 0.0807 0.72883 0.0
C1564 C 0.14482 0.09369 0.7284 0.0
C1565 C 0.16609 0.05897 0.73452 0.0
C1566 C 0.13103 0.0086 0.74036 0.0
H1567 H 0.18191 0.91865 0.77515 0.0
H1568 H 0.18302 0.95609 0.76493 0.0
H1569 H 0.12008 0.97313 0.74114 0.0
H1570 H 0.10853 0.09418 0.73366 0.0
H1571 H 0.10938 0.05579 0.74327 0.0
H1572 H 0.17293 0.03318 0.75785 0.0
C1573 C 0.16667 0.94678 0.76522 0.0
C1574 C 0.13144 0.98604 0.7451 0.0
C1575 C 0.16616 0.92511 0.77097 0.0
C1576 C 0.12478 0.08465 0.73393 0.0
C1577 C 0.1252 0.06266 0.73935 0.0
C1578 C 0.1613 0.02013 0.7542 0.0
C1579 C 0.14639 0.95627 0.76004 0.0
C1580 C 0.14649 0.98023 0.75465 0.0
C1581 C 0.14582 0.04956 0.73962 0.0
C1582 C 0.14601 0.02582 0.74484 0.0
H1583 H 0.10931 0.91134 0.76616 0.0
H1584 H 0.10973 0.94946 0.75669 0.0
H1585 H 0.17283 0.99435 0.76666 0.0
H1586 H 0.18123 0.08721 0.72463 0.0
H1587 H 0.18218 0.04916 0.73459 0.0
C1588 C 0.83001 0.41549 0.52169 0.0
C1589 C 0.84284 0.39466 0.52199 0.0
C1590 C 0.80827 0.41634 0.516 0.0
C1591 C 0.75758 0.38207 0.51018 0.0
H1592 H 0.74406 0.4229 0.48336 0.0
C1593 C 0.67037 0.37587 0.48445 0.0
C1594 C 0.66159 0.39565 0.4786 0.0
C1595 C 0.69223 0.37639 0.48998 0.0
C1596 C 0.74724 0.41171 0.49101 0.0
H1597 H 0.84301 0.35845 0.51654 0.0
H1598 H 0.80463 0.3598 0.50697 0.0
H1599 H 0.78279 0.42299 0.49231 0.0
H1600 H 0.66836 0.4318 0.47441 0.0
H1601 H 0.70575 0.43326 0.48468 0.0
H1602 H 0.72204 0.37143 0.5094 0.0
C1603 C 0.81163 0.3755 0.51097 0.0
C1604 C 0.76958 0.41166 0.49604 0.0
C1605 C 0.83362 0.37479 0.51638 0.0
C1606 C 0.67475 0.41623 0.4788 0.0
C1607 C 0.69638 0.41694 0.48458 0.0
C1608 C 0.73509 0.38251 0.50536 0.0
C1609 C 0.79872 0.39624 0.5108 0.0
C1610 C 0.77499 0.39667 0.50558 0.0
C1611 C 0.70572 0.39689 0.49008 0.0
C1612 C 0.72956 0.39716 0.4956 0.0
H1613 H 0.83666 0.43107 0.52596 0.0
H1614 H 0.79859 0.43251 0.516 0.0
H1615 H 0.7613 0.37055 0.51764 0.0
H1616 H 0.66077 0.35965 0.48432 0.0
H1617 H 0.69877 0.3604 0.49385 0.0
C1618 C 0.34024 0.07409 0.27587 0.0
C1619 C 0.35574 0.09122 0.2717 0.0
C1620 C 0.33921 0.05221 0.27037 0.0
C1621 C 0.35306 0.02048 0.24241 0.0
H1622 H 0.35198 0.96593 0.26295 0.0
C1623 C 0.33857 0.92789 0.22346 0.0
C1624 C 0.3538 0.91045 0.22756 0.0
C1625 C 0.33782 0.94967 0.22907 0.0
C1626 C 0.35234 0.98098 0.25709 0.0
H1627 H 0.38191 0.09892 0.25825 0.0
H1628 H 0.37991 0.06075 0.24855 0.0
H1629 H 0.35276 0.00473 0.27194 0.0
H1630 H 0.37963 0.90206 0.24107 0.0
H1631 H 0.37808 0.94001 0.25099 0.0
H1632 H 0.35277 0.99672 0.22756 0.0
C1633 C 0.36856 0.06429 0.2561 0.0
C1634 C 0.35258 0.00323 0.26224 0.0
C1635 C 0.36974 0.08615 0.26167 0.0
C1636 C 0.36766 0.91506 0.2377 0.0
C1637 C 0.36675 0.93681 0.24339 0.0
C1638 C 0.35257 0.99824 0.23727 0.0
C1639 C 0.35351 0.04693 0.26049 0.0
C1640 C 0.35301 0.02326 0.25497 0.0
C1641 C 0.35213 0.95453 0.23901 0.0
C1642 C 0.35226 0.9782 0.24454 0.0
H1643 H 0.3292 0.07738 0.28357 0.0
H1644 H 0.3272 0.03937 0.27388 0.0
H1645 H 0.35324 0.03553 0.23655 0.0
H1646 H 0.32765 0.92497 0.21567 0.0
H1647 H 0.32612 0.9628 0.22558 0.0
C1648 C 0.83459 0.87663 0.48361 0.0
C1649 C 0.84356 0.89659 0.47802 0.0
C1650 C 0.81272 0.8771 0.48915 0.0
C1651 C 0.75807 0.91293 0.49049 0.0
H1652 H 0.74328 0.87073 0.51657 0.0
C1653 C 0.67484 0.91672 0.52071 0.0
C1654 C 0.66196 0.89593 0.52106 0.0
C1655 C 0.69663 0.91744 0.51509 0.0
C1656 C 0.7472 0.88254 0.50926 0.0
H1657 H 0.83717 0.933 0.4743 0.0
H1658 H 0.7998 0.93435 0.48458 0.0
H1659 H 0.78261 0.8715 0.50843 0.0
H1660 H 0.66179 0.85963 0.51576 0.0
H1661 H 0.70025 0.86077 0.50628 0.0
H1662 H 0.72265 0.92459 0.49184 0.0
C1663 C 0.809 0.91794 0.48427 0.0
C1664 C 0.76974 0.88292 0.5045 0.0
C1665 C 0.83063 0.91729 0.47848 0.0
C1666 C 0.67121 0.87595 0.51555 0.0
C1667 C 0.69325 0.87654 0.5102 0.0
C1668 C 0.73569 0.91292 0.49547 0.0
C1669 C 0.79943 0.89772 0.48949 0.0
C1670 C 0.77553 0.89797 0.49494 0.0
C1671 C 0.70622 0.89725 0.50999 0.0
C1672 C 0.73 0.89757 0.50481 0.0
H1673 H 0.84404 0.86033 0.48327 0.0
H1674 H 0.80601 0.861 0.4928 0.0
H1675 H 0.76144 0.92443 0.48299 0.0
H1676 H 0.66817 0.93237 0.5249 0.0
H1677 H 0.70634 0.9336 0.51506 0.0
C1678 C 0.37257 0.58788 0.7371 0.0
C1679 C 0.35704 0.59328 0.72775 0.0
C1680 C 0.37183 0.56609 0.74273 0.0
C1681 C 0.33446 0.5139 0.74719 0.0
H1682 H 0.39307 0.48365 0.75446 0.0
C1683 C 0.34017 0.42916 0.77525 0.0
C1684 C 0.35707 0.41258 0.77208 0.0
C1685 C 0.33942 0.45085 0.76954 0.0
C1686 C 0.37653 0.49172 0.75239 0.0
H1687 H 0.32819 0.58014 0.71718 0.0
H1688 H 0.32699 0.5422 0.72692 0.0
H1689 H 0.39305 0.52228 0.74544 0.0
H1690 H 0.38608 0.4056 0.76017 0.0
H1691 H 0.38458 0.44332 0.75008 0.0
H1692 H 0.31795 0.48314 0.75392 0.0
C1693 C 0.33961 0.55484 0.73001 0.0
C1694 C 0.37652 0.51407 0.74737 0.0
C1695 C 0.34036 0.57661 0.72438 0.0
C1696 C 0.37285 0.41798 0.76284 0.0
C1697 C 0.37211 0.4397 0.75713 0.0
C1698 C 0.33447 0.49156 0.75222 0.0
C1699 C 0.35553 0.54915 0.73916 0.0
C1700 C 0.35549 0.52548 0.74471 0.0
C1701 C 0.35556 0.45654 0.76051 0.0
C1702 C 0.35551 0.48016 0.75489 0.0
H1703 H 0.38562 0.60033 0.73992 0.0
H1704 H 0.38411 0.56248 0.74987 0.0
H1705 H 0.31792 0.52219 0.74535 0.0
H1706 H 0.3278 0.42563 0.78236 0.0
H1707 H 0.3266 0.46342 0.77248 0.0
C1708 C 0.8338 0.13002 0.01662 0.0
C1709 C 0.84265 0.10997 0.02218 0.0
C1710 C 0.81196 0.12969 0.01105 0.0
C1711 C 0.75722 0.09402 0.00951 0.0
H1712 H 0.74283 0.13624 0.98337 0.0
C1713 C 0.67498 0.08951 0.97872 0.0
C1714 C 0.66192 0.11017 0.97819 0.0
C1715 C 0.69658 0.08906 0.98454 0.0
C1716 C 0.74663 0.12444 0.99071 0.0
H1717 H 0.83609 0.07355 0.0258 0.0
H1718 H 0.79879 0.07245 0.01546 0.0
H1719 H 0.78201 0.13555 0.99172 0.0
H1720 H 0.66118 0.14651 0.98339 0.0
H1721 H 0.69934 0.14587 0.99322 0.0
H1722 H 0.72187 0.08227 0.00797 0.0
C1723 C 0.80805 0.08883 0.01583 0.0
C1724 C 0.76908 0.1241 0.99558 0.0
C1725 C 0.82963 0.08933 0.02165 0.0
C1726 C 0.67076 0.1303 0.98373 0.0
C1727 C 0.69263 0.12999 0.98928 0.0
C1728 C 0.73493 0.09399 0.00442 0.0
C1729 C 0.79859 0.10913 0.01065 0.0
C1730 C 0.77474 0.109 0.00514 0.0
C1731 C 0.70579 0.10941 0.98967 0.0
C1732 C 0.72939 0.10933 0.99505 0.0
H1733 H 0.84333 0.14627 0.01702 0.0
H1734 H 0.80534 0.14585 0.00742 0.0
H1735 H 0.76048 0.0825 0.01701 0.0
H1736 H 0.66862 0.07375 0.97452 0.0
H1737 H 0.70644 0.073 0.98471 0.0
C1738 C 0.13439 0.59038 0.26264 0.0
C1739 C 0.14894 0.59454 0.27257 0.0
C1740 C 0.13471 0.56878 0.25676 0.0
C1741 C 0.14904 0.50704 0.26212 0.0
H1742 H 0.1475 0.50164 0.22741 0.0
C1743 C 0.13323 0.41936 0.23721 0.0
C1744 C 0.14718 0.41495 0.22708 0.0
C1745 C 0.13383 0.44114 0.2429 0.0
C1746 C 0.14803 0.50284 0.23712 0.0
H1747 H 0.17566 0.57938 0.28389 0.0
H1748 H 0.17618 0.54188 0.27367 0.0
H1749 H 0.14818 0.54017 0.23672 0.0
H1750 H 0.17295 0.42991 0.21512 0.0
H1751 H 0.17393 0.46775 0.225 0.0
H1752 H 0.14892 0.46973 0.26253 0.0
C1753 C 0.16438 0.55521 0.27048 0.0
C1754 C 0.14821 0.52493 0.24245 0.0
C1755 C 0.16421 0.57681 0.27628 0.0
C1756 C 0.16198 0.43268 0.2229 0.0
C1757 C 0.16241 0.45447 0.22851 0.0
C1758 C 0.14861 0.48496 0.25679 0.0
C1759 C 0.14943 0.55079 0.26075 0.0
C1760 C 0.14887 0.52731 0.25502 0.0
C1761 C 0.14821 0.45907 0.23851 0.0
C1762 C 0.14825 0.48257 0.24422 0.0
H1763 H 0.12237 0.60362 0.25957 0.0
H1764 H 0.1229 0.56592 0.24932 0.0
H1765 H 0.14929 0.50824 0.27184 0.0
H1766 H 0.12159 0.40612 0.24064 0.0
H1767 H 0.12257 0.44415 0.25055 0.0
C1768 C 0.17144 0.12962 0.51576 0.0
C1769 C 0.16248 0.10948 0.52124 0.0
C1770 C 0.19332 0.12927 0.51023 0.0
C1771 C 0.23551 0.09339 0.49498 0.0
H1772 H 0.28281 0.13426 0.50805 0.0
C1773 C 0.33028 0.08868 0.47778 0.0
C1774 C 0.34343 0.10924 0.47745 0.0
C1775 C 0.30865 0.08811 0.48357 0.0
C1776 C 0.26982 0.12301 0.50408 0.0
H1777 H 0.169 0.07299 0.52481 0.0
H1778 H 0.20685 0.07217 0.51465 0.0
H1779 H 0.24359 0.135 0.51634 0.0
H1780 H 0.3443 0.14536 0.48294 0.0
H1781 H 0.30628 0.14486 0.49249 0.0
H1782 H 0.26104 0.08207 0.48233 0.0
C1783 C 0.19706 0.08828 0.51485 0.0
C1784 C 0.24735 0.12337 0.50893 0.0
C1785 C 0.17545 0.08877 0.52066 0.0
C1786 C 0.33468 0.12916 0.48318 0.0
C1787 C 0.31281 0.12879 0.48872 0.0
C1788 C 0.25783 0.0934 0.48992 0.0
C1789 C 0.20639 0.10863 0.5098 0.0
C1790 C 0.23003 0.10851 0.50445 0.0
C1791 C 0.2993 0.1083 0.48893 0.0
C1792 C 0.27543 0.10815 0.49442 0.0
H1793 H 0.16193 0.14588 0.51615 0.0
H1794 H 0.20014 0.14516 0.50635 0.0
H1795 H 0.22239 0.08186 0.49133 0.0
H1796 H 0.33665 0.073 0.47349 0.0
H1797 H 0.29929 0.07179 0.48378 0.0
C1798 C 0.66447 0.42589 0.27168 0.0
C1799 C 0.64386 0.41273 0.27194 0.0
C1800 C 0.66501 0.44769 0.26605 0.0
C1801 C 0.62923 0.49772 0.25967 0.0
H1802 H 0.67336 0.51291 0.23456 0.0
C1803 C 0.62458 0.58531 0.23395 0.0
C1804 C 0.64494 0.59454 0.22888 0.0
C1805 C 0.6248 0.56346 0.23954 0.0
C1806 C 0.66121 0.50928 0.24174 0.0
H1807 H 0.60769 0.41206 0.26647 0.0
H1808 H 0.60849 0.45054 0.25695 0.0
H1809 H 0.67334 0.47406 0.24333 0.0
H1810 H 0.68176 0.58867 0.2262 0.0
H1811 H 0.68261 0.55139 0.23658 0.0
H1812 H 0.61765 0.53297 0.25859 0.0
C1813 C 0.62427 0.44376 0.26096 0.0
C1814 C 0.6611 0.48685 0.24667 0.0
C1815 C 0.62387 0.42171 0.26633 0.0
C1816 C 0.66575 0.58194 0.22998 0.0
C1817 C 0.66612 0.56035 0.23581 0.0
C1818 C 0.62967 0.52032 0.25495 0.0
C1819 C 0.64481 0.45702 0.26084 0.0
C1820 C 0.64499 0.48081 0.25561 0.0
C1821 C 0.64554 0.55045 0.24044 0.0
C1822 C 0.64556 0.52647 0.24583 0.0
H1823 H 0.68013 0.41945 0.27595 0.0
H1824 H 0.68105 0.4576 0.2661 0.0
H1825 H 0.61682 0.49357 0.26667 0.0
H1826 H 0.60819 0.59448 0.23312 0.0
H1827 H 0.60846 0.55652 0.24276 0.0
C1828 C 0.17051 0.87665 0.984 0.0
C1829 C 0.16155 0.89679 0.97853 0.0
C1830 C 0.1925 0.87693 0.98942 0.0
C1831 C 0.23531 0.91274 0.0043 0.0
H1832 H 0.28183 0.87104 0.9912 0.0
C1833 C 0.33051 0.91645 0.02096 0.0
C1834 C 0.34334 0.89568 0.02135 0.0
C1835 C 0.30877 0.91722 0.01529 0.0
C1836 C 0.26906 0.88253 0.99517 0.0
H1837 H 0.16817 0.93323 0.97485 0.0
H1838 H 0.20623 0.93392 0.98481 0.0
H1839 H 0.24246 0.87065 0.9831 0.0
H1840 H 0.34347 0.85941 0.0161 0.0
H1841 H 0.30527 0.86031 0.00677 0.0
H1842 H 0.26123 0.92398 0.01675 0.0
C1843 C 0.19636 0.91787 0.9847 0.0
C1844 C 0.2465 0.88236 0.99044 0.0
C1845 C 0.17462 0.91745 0.97901 0.0
C1846 C 0.33412 0.87576 0.01582 0.0
C1847 C 0.31214 0.87636 0.0104 0.0
C1848 C 0.25772 0.91255 0.00925 0.0
C1849 C 0.20568 0.8975 0.98974 0.0
C1850 C 0.22945 0.8975 0.99493 0.0
C1851 C 0.29898 0.89707 0.01012 0.0
C1852 C 0.27504 0.89748 0.00474 0.0
H1853 H 0.16093 0.86043 0.98369 0.0
H1854 H 0.19931 0.86103 0.99329 0.0
H1855 H 0.22239 0.9245 0.00796 0.0
H1856 H 0.33724 0.93213 0.0251 0.0
H1857 H 0.29966 0.93369 0.01503 0.0
C1858 C 0.83778 0.4255 0.72847 0.0
C1859 C 0.8583 0.41226 0.72848 0.0
C1860 C 0.83697 0.44719 0.7342 0.0
C1861 C 0.87079 0.48596 0.75519 0.0
H1862 H 0.83121 0.53379 0.74152 0.0
C1863 C 0.87877 0.58472 0.76573 0.0
C1864 C 0.8589 0.59401 0.77131 0.0
C1865 C 0.87806 0.56268 0.76038 0.0
C1866 C 0.84228 0.52054 0.74542 0.0
H1867 H 0.89407 0.41132 0.73454 0.0
H1868 H 0.89315 0.44941 0.74399 0.0
H1869 H 0.8314 0.49491 0.73272 0.0
H1870 H 0.8225 0.58791 0.77527 0.0
H1871 H 0.82104 0.54973 0.7654 0.0
H1872 H 0.88241 0.51227 0.76751 0.0
C1873 C 0.87729 0.44291 0.73999 0.0
C1874 C 0.84228 0.49812 0.74048 0.0
C1875 C 0.87791 0.421 0.73449 0.0
C1876 C 0.83807 0.5812 0.77102 0.0
C1877 C 0.83721 0.55941 0.76539 0.0
C1878 C 0.87117 0.50852 0.75993 0.0
C1879 C 0.85685 0.4565 0.73985 0.0
C1880 C 0.85651 0.4804 0.74529 0.0
C1881 C 0.85732 0.54978 0.76023 0.0
C1882 C 0.85691 0.52598 0.75511 0.0
H1883 H 0.82234 0.41915 0.72395 0.0
H1884 H 0.82069 0.45664 0.73412 0.0
H1885 H 0.8816 0.47289 0.7594 0.0
H1886 H 0.89512 0.59409 0.7659 0.0
H1887 H 0.89376 0.5556 0.75642 0.0
C1888 C 0.13011 0.36509 0.07879 0.0
C1889 C 0.11534 0.38169 0.07356 0.0
C1890 C 0.13089 0.3625 0.0913 0.0
C1891 C 0.11726 0.39449 0.1193 0.0
H1892 H 0.12242 0.33374 0.13419 0.0
C1893 C 0.11234 0.38179 0.17079 0.0
C1894 C 0.12958 0.36733 0.17569 0.0
C1895 C 0.10908 0.38279 0.15833 0.0
C1896 C 0.12108 0.35083 0.13015 0.0
H1897 H 0.08946 0.40824 0.07728 0.0
H1898 H 0.09047 0.40341 0.09892 0.0
H1899 H 0.12021 0.33676 0.11233 0.0
H1900 H 0.15666 0.34232 0.17143 0.0
H1901 H 0.15097 0.34408 0.14982 0.0
H1902 H 0.11818 0.40855 0.1371 0.0
C1903 C 0.10183 0.39272 0.09346 0.0
C1904 C 0.11991 0.35256 0.11763 0.0
C1905 C 0.10114 0.39536 0.08102 0.0
C1906 C 0.14318 0.35361 0.16794 0.0
C1907 C 0.13984 0.3545 0.15555 0.0
C1908 C 0.11833 0.39275 0.1318 0.0
C1909 C 0.11687 0.37644 0.09877 0.0
C1910 C 0.11806 0.37443 0.11207 0.0
C1911 C 0.1229 0.36921 0.15059 0.0
C1912 C 0.12039 0.37092 0.13735 0.0
H1913 H 0.14126 0.35434 0.07325 0.0
H1914 H 0.14283 0.34994 0.09512 0.0
H1915 H 0.11624 0.41164 0.1153 0.0
H1916 H 0.1016 0.39253 0.17655 0.0
H1917 H 0.09576 0.39416 0.15474 0.0
C1918 C 0.87269 0.86672 0.42032 0.0
C1919 C 0.88747 0.88346 0.42542 0.0
C1920 C 0.87121 0.86439 0.40782 0.0
C1921 C 0.88274 0.8971 0.37978 0.0
H1922 H 0.87848 0.83644 0.36471 0.0
C1923 C 0.88785 0.88437 0.32825 0.0
C1924 C 0.87122 0.86925 0.32332 0.0
C1925 C 0.89067 0.88582 0.34073 0.0
C1926 C 0.87952 0.85351 0.36881 0.0
H1927 H 0.91263 0.91057 0.42146 0.0
H1928 H 0.91042 0.9062 0.39982 0.0
H1929 H 0.88139 0.83922 0.38655 0.0
H1930 H 0.84452 0.84381 0.32755 0.0
H1931 H 0.84945 0.84637 0.34918 0.0
H1932 H 0.88093 0.91137 0.36204 0.0
C1933 C 0.89958 0.89519 0.40539 0.0
C1934 C 0.88111 0.8551 0.38131 0.0
C1935 C 0.90097 0.89756 0.41782 0.0
C1936 C 0.85757 0.85557 0.33106 0.0
C1937 C 0.86047 0.85692 0.34347 0.0
C1938 C 0.88126 0.8955 0.36729 0.0
C1939 C 0.88455 0.87875 0.40022 0.0
C1940 C 0.8827 0.87692 0.38694 0.0
C1941 C 0.87701 0.87206 0.34845 0.0
C1942 C 0.87955 0.8737 0.36168 0.0
H1943 H 0.86206 0.85564 0.42597 0.0
H1944 H 0.8593 0.85169 0.4041 0.0
H1945 H 0.88355 0.91421 0.38384 0.0
H1946 H 0.89862 0.89509 0.3225 0.0
H1947 H 0.90367 0.89754 0.34433 0.0
C1948 C 0.36292 0.65419 0.66841 0.0
C1949 C 0.37563 0.63971 0.67618 0.0
C1950 C 0.36611 0.65289 0.65601 0.0
C1951 C 0.38448 0.61275 0.63245 0.0
H1952 H 0.38661 0.66828 0.61265 0.0
C1953 C 0.40135 0.60801 0.58168 0.0
C1954 C 0.38829 0.62265 0.57414 0.0
C1955 C 0.4007 0.61078 0.59411 0.0
C1956 C 0.38577 0.65262 0.61805 0.0
H1957 H 0.40191 0.61275 0.67711 0.0
H1958 H 0.40745 0.61036 0.65531 0.0
H1959 H 0.3849 0.67195 0.6345 0.0
H1960 H 0.36436 0.65175 0.5737 0.0
H1961 H 0.36287 0.65641 0.59556 0.0
H1962 H 0.38492 0.59338 0.61607 0.0
C1963 C 0.39496 0.62267 0.65887 0.0
C1964 C 0.3849 0.65472 0.63055 0.0
C1965 C 0.39188 0.6241 0.67132 0.0
C1966 C 0.37462 0.64025 0.5793 0.0
C1967 C 0.37389 0.64298 0.5918 0.0
C1968 C 0.38525 0.61064 0.61997 0.0
C1969 C 0.38198 0.63697 0.6511 0.0
C1970 C 0.38418 0.6348 0.63787 0.0
C1971 C 0.38685 0.62817 0.59934 0.0
C1972 C 0.38588 0.63055 0.61261 0.0
H1973 H 0.35023 0.66639 0.67187 0.0
H1974 H 0.35565 0.66392 0.65026 0.0
H1975 H 0.38351 0.5971 0.63786 0.0
H1976 H 0.41215 0.59432 0.57799 0.0
H1977 H 0.41121 0.59936 0.59962 0.0
C1978 C 0.61301 0.12366 0.82847 0.0
C1979 C 0.62946 0.13898 0.82355 0.0
C1980 C 0.61007 0.12232 0.84094 0.0
C1981 C 0.6208 0.15442 0.86915 0.0
H1982 H 0.6202 0.09323 0.88378 0.0
C1983 C 0.63099 0.14026 0.92044 0.0
C1984 C 0.61715 0.12282 0.92562 0.0
C1985 C 0.63175 0.14291 0.90794 0.0
C1986 C 0.62004 0.11045 0.87984 0.0
H1987 H 0.65538 0.16523 0.82776 0.0
H1988 H 0.65016 0.16294 0.84938 0.0
H1989 H 0.62151 0.09672 0.86198 0.0
H1990 H 0.59298 0.09473 0.92181 0.0
H1991 H 0.59394 0.09965 0.90018 0.0
H1992 H 0.61932 0.16817 0.88702 0.0
C1993 C 0.63945 0.15206 0.84367 0.0
C1994 C 0.62075 0.11243 0.86735 0.0
C1995 C 0.64252 0.15326 0.83127 0.0
C1996 C 0.60392 0.10829 0.91811 0.0
C1997 C 0.60459 0.11099 0.90568 0.0
C1998 C 0.61997 0.15245 0.88166 0.0
C1999 C 0.62337 0.13645 0.84865 0.0
C2000 C 0.62125 0.13442 0.86188 0.0
C2001 C 0.61863 0.12819 0.90042 0.0
C2002 C 0.61964 0.13044 0.88714 0.0
H2003 H 0.60271 0.11247 0.82273 0.0
H2004 H 0.59741 0.11024 0.84456 0.0
H2005 H 0.62096 0.17161 0.86516 0.0
H2006 H 0.64138 0.15167 0.92602 0.0
H2007 H 0.64291 0.1562 0.90415 0.0
C2008 C 0.11281 0.6208 0.32959 0.0
C2009 C 0.1301 0.63568 0.32509 0.0
C2010 C 0.10888 0.61936 0.342 0.0
C2011 C 0.11829 0.65157 0.37028 0.0
H2012 H 0.11561 0.59091 0.38543 0.0
C2013 C 0.12863 0.63906 0.42154 0.0
C2014 C 0.11453 0.62219 0.42701 0.0
C2015 C 0.12905 0.6412 0.40901 0.0
C2016 C 0.11599 0.608 0.38133 0.0
H2017 H 0.15681 0.66067 0.33 0.0
H2018 H 0.14988 0.65823 0.35143 0.0
H2019 H 0.11773 0.59366 0.36359 0.0
H2020 H 0.08955 0.59457 0.42371 0.0
H2021 H 0.08996 0.5986 0.40201 0.0
H2022 H 0.11668 0.66596 0.388 0.0
C2023 C 0.13919 0.64786 0.34546 0.0
C2024 C 0.11716 0.60954 0.36882 0.0
C2025 C 0.14323 0.64914 0.33316 0.0
C2026 C 0.10069 0.60771 0.41977 0.0
C2027 C 0.10103 0.6099 0.4073 0.0
C2028 C 0.11702 0.65005 0.38278 0.0
C2029 C 0.12203 0.63296 0.35003 0.0
C2030 C 0.11861 0.63133 0.36319 0.0
C2031 C 0.11533 0.62653 0.40176 0.0
C2032 C 0.11609 0.62824 0.38846 0.0
H2033 H 0.10246 0.61022 0.32357 0.0
H2034 H 0.09549 0.60776 0.34532 0.0
H2035 H 0.11912 0.66862 0.36615 0.0
H2036 H 0.1395 0.65041 0.42691 0.0
H2037 H 0.14045 0.65403 0.405 0.0
C2038 C 0.6427 0.85216 0.66749 0.0
C2039 C 0.62957 0.86617 0.6753 0.0
C2040 C 0.63935 0.85336 0.6551 0.0
C2041 C 0.61925 0.89273 0.63156 0.0
H2042 H 0.61906 0.83704 0.61185 0.0
C2043 C 0.60242 0.89656 0.58074 0.0
C2044 C 0.61614 0.88242 0.57327 0.0
C2045 C 0.60301 0.89385 0.59318 0.0
C2046 C 0.61934 0.85275 0.61722 0.0
H2047 H 0.60239 0.89222 0.67631 0.0
H2048 H 0.59656 0.89444 0.65452 0.0
H2049 H 0.62101 0.83356 0.63369 0.0
H2050 H 0.64115 0.85423 0.57294 0.0
H2051 H 0.64252 0.84969 0.5948 0.0
H2052 H 0.61801 0.91196 0.61514 0.0
C2053 C 0.60951 0.88257 0.65804 0.0
C2054 C 0.62036 0.85076 0.62972 0.0
C2055 C 0.61276 0.88124 0.67049 0.0
C2056 C 0.63037 0.86535 0.57849 0.0
C2057 C 0.63104 0.86268 0.59099 0.0
C2058 C 0.61833 0.89472 0.61907 0.0
C2059 C 0.62288 0.8687 0.65023 0.0
C2060 C 0.62042 0.87074 0.63701 0.0
C2061 C 0.61744 0.87702 0.59847 0.0
C2062 C 0.61842 0.87476 0.61175 0.0
H2063 H 0.65583 0.84038 0.67091 0.0
H2064 H 0.65012 0.84269 0.64932 0.0
H2065 H 0.61969 0.90843 0.63694 0.0
H2066 H 0.59117 0.90982 0.577 0.0
H2067 H 0.59201 0.90489 0.59865 0.0
C2068 C 0.39084 0.38051 0.82897 0.0
C2069 C 0.37391 0.36593 0.82387 0.0
C2070 C 0.39351 0.38157 0.84147 0.0
C2071 C 0.36116 0.36962 0.86952 0.0
H2072 H 0.42191 0.37294 0.88453 0.0
C2073 C 0.37337 0.36372 0.92096 0.0
C2074 C 0.38833 0.38039 0.92598 0.0
C2075 C 0.37231 0.36079 0.90849 0.0
C2076 C 0.40483 0.37214 0.88045 0.0
H2077 H 0.34694 0.34061 0.82782 0.0
H2078 H 0.35188 0.34215 0.84944 0.0
H2079 H 0.41898 0.37061 0.86266 0.0
H2080 H 0.41415 0.40682 0.92193 0.0
H2081 H 0.41231 0.40168 0.90028 0.0
H2082 H 0.347 0.37116 0.88729 0.0
C2083 C 0.36277 0.35314 0.84388 0.0
C2084 C 0.40315 0.3709 0.86793 0.0
C2085 C 0.36006 0.35215 0.83146 0.0
C2086 C 0.40246 0.39378 0.91834 0.0
C2087 C 0.40153 0.39076 0.90593 0.0
C2088 C 0.36284 0.37078 0.88202 0.0
C2089 C 0.37931 0.36805 0.84906 0.0
C2090 C 0.38128 0.36962 0.86233 0.0
C2091 C 0.38634 0.37437 0.90085 0.0
C2092 C 0.38467 0.37211 0.88761 0.0
H2093 H 0.40173 0.39133 0.82333 0.0
H2094 H 0.40631 0.39336 0.8452 0.0
H2095 H 0.34402 0.36908 0.86549 0.0
H2096 H 0.36231 0.35314 0.92664 0.0
H2097 H 0.36057 0.34789 0.90481 0.0
C2098 C 0.89048 0.12411 0.17189 0.0
C2099 C 0.87431 0.13958 0.17694 0.0
C2100 C 0.89307 0.12273 0.15941 0.0
C2101 C 0.88192 0.15487 0.13125 0.0
H2102 H 0.88295 0.09365 0.11664 0.0
C2103 C 0.87287 0.14048 0.07987 0.0
C2104 C 0.88691 0.12308 0.0748 0.0
C2105 C 0.87179 0.14319 0.09237 0.0
C2106 C 0.88298 0.11089 0.12058 0.0
H2107 H 0.84847 0.166 0.17292 0.0
H2108 H 0.85303 0.1636 0.15124 0.0
H2109 H 0.8814 0.09718 0.13844 0.0
H2110 H 0.91113 0.09514 0.07879 0.0
H2111 H 0.90961 0.10015 0.10041 0.0
H2112 H 0.88355 0.16859 0.11337 0.0
C2113 C 0.86381 0.15265 0.15688 0.0
C2114 C 0.88212 0.11289 0.13307 0.0
C2115 C 0.86112 0.15391 0.16931 0.0
C2116 C 0.90003 0.10866 0.08241 0.0
C2117 C 0.89904 0.11142 0.09484 0.0
C2118 C 0.88288 0.15288 0.11874 0.0
C2119 C 0.87966 0.13692 0.15178 0.0
C2120 C 0.88153 0.13489 0.13854 0.0
C2121 C 0.88478 0.12856 0.09999 0.0
C2122 C 0.88343 0.13085 0.11326 0.0
H2123 H 0.9009 0.11288 0.17757 0.0
H2124 H 0.90557 0.11058 0.15571 0.0
H2125 H 0.88169 0.17207 0.13523 0.0
H2126 H 0.86255 0.15182 0.07421 0.0
H2127 H 0.86048 0.15645 0.09607 0.0
C2128 C 0.86048 0.6528 0.83122 0.0
C2129 C 0.87411 0.63904 0.82352 0.0
C2130 C 0.86362 0.6518 0.84363 0.0
C2131 C 0.88486 0.61346 0.86744 0.0
H2132 H 0.88379 0.66957 0.88683 0.0
C2133 C 0.90332 0.61102 0.91808 0.0
C2134 C 0.88933 0.62474 0.92562 0.0
C2135 C 0.90235 0.61364 0.90565 0.0
C2136 C 0.88386 0.65374 0.88155 0.0
H2137 H 0.90189 0.6136 0.82273 0.0
H2138 H 0.90737 0.61177 0.84454 0.0
H2139 H 0.88117 0.67249 0.86498 0.0
H2140 H 0.86352 0.65219 0.92608 0.0
H2141 H 0.86148 0.65656 0.90421 0.0
H2142 H 0.88716 0.59465 0.88396 0.0
C2143 C 0.89417 0.62325 0.84093 0.0
C2144 C 0.88244 0.65541 0.86904 0.0
C2145 C 0.89111 0.62436 0.82846 0.0
C2146 C 0.87452 0.6414 0.92047 0.0
C2147 C 0.87345 0.64397 0.90797 0.0
C2148 C 0.88618 0.61178 0.87993 0.0
C2149 C 0.88038 0.63693 0.84863 0.0
C2150 C 0.88288 0.63527 0.86186 0.0
C2151 C 0.88724 0.62994 0.90042 0.0
C2152 C 0.8857 0.63189 0.88714 0.0
H2153 H 0.84718 0.66426 0.82769 0.0
H2154 H 0.85252 0.6623 0.84933 0.0
H2155 H 0.88482 0.59762 0.86216 0.0
H2156 H 0.91504 0.5981 0.92176 0.0
H2157 H 0.91353 0.60288 0.90012 0.0
C2158 C 0.13246 0.13932 0.579 0.0
C2159 C 0.11815 0.1222 0.57387 0.0
C2160 C 0.13347 0.14192 0.5915 0.0
C2161 C 0.12138 0.10967 0.61964 0.0
H2162 H 0.12418 0.17074 0.63436 0.0
C2163 C 0.1144 0.12314 0.67099 0.0
C2164 C 0.13106 0.13815 0.67599 0.0
C2165 C 0.11172 0.12175 0.65851 0.0
C2166 C 0.12351 0.15357 0.63036 0.0
H2167 H 0.0934 0.09468 0.57775 0.0
H2168 H 0.09479 0.09954 0.59938 0.0
H2169 H 0.1222 0.1674 0.6125 0.0
H2170 H 0.15773 0.16369 0.67189 0.0
H2171 H 0.15298 0.16129 0.65022 0.0
H2172 H 0.12263 0.09585 0.63749 0.0
C2173 C 0.10562 0.11064 0.59385 0.0
C2174 C 0.12248 0.15166 0.61785 0.0
C2175 C 0.1047 0.10798 0.58142 0.0
C2176 C 0.14469 0.15197 0.66832 0.0
C2177 C 0.1419 0.15072 0.6559 0.0
C2178 C 0.12229 0.11159 0.63213 0.0
C2179 C 0.12014 0.12749 0.59906 0.0
C2180 C 0.12143 0.12967 0.61234 0.0
C2181 C 0.12551 0.13549 0.65085 0.0
C2182 C 0.12345 0.13354 0.63762 0.0
H2183 H 0.14304 0.1505 0.57338 0.0
H2184 H 0.14501 0.15494 0.59525 0.0
H2185 H 0.121 0.09245 0.61568 0.0
H2186 H 0.10365 0.1123 0.6767 0.0
H2187 H 0.09882 0.10998 0.65485 0.0
C2188 C 0.60248 0.39426 0.41862 0.0
C2189 C 0.61654 0.38085 0.42629 0.0
C2190 C 0.60349 0.39121 0.40621 0.0
C2191 C 0.64219 0.37116 0.38232 0.0
H2192 H 0.58601 0.37083 0.36299 0.0
C2193 C 0.64488 0.35319 0.33162 0.0
C2194 C 0.63063 0.36673 0.32412 0.0
C2195 C 0.64237 0.35407 0.34406 0.0
C2196 C 0.60186 0.37116 0.36825 0.0
H2197 H 0.64253 0.35359 0.427 0.0
H2198 H 0.64441 0.3483 0.40517 0.0
H2199 H 0.58312 0.37314 0.38486 0.0
H2200 H 0.6024 0.39168 0.32375 0.0
H2201 H 0.5982 0.39357 0.34563 0.0
H2202 H 0.66099 0.36959 0.36578 0.0
C2203 C 0.63266 0.36123 0.40882 0.0
C2204 C 0.6002 0.37239 0.38077 0.0
C2205 C 0.63153 0.36417 0.4213 0.0
C2206 C 0.61359 0.38104 0.32932 0.0
C2207 C 0.61113 0.38201 0.34183 0.0
C2208 C 0.64386 0.37004 0.36982 0.0
C2209 C 0.61868 0.37478 0.40116 0.0
C2210 C 0.62036 0.37244 0.38792 0.0
C2211 C 0.62564 0.36864 0.34934 0.0
C2212 C 0.62372 0.37002 0.36263 0.0
H2213 H 0.59077 0.4073 0.42218 0.0
H2214 H 0.59274 0.40212 0.40053 0.0
H2215 H 0.65803 0.37158 0.38758 0.0
H2216 H 0.65812 0.34188 0.3279 0.0
H2217 H 0.65352 0.34321 0.34955 0.0
C2218 C 0.37586 0.86602 0.07896 0.0
C2219 C 0.38949 0.88338 0.07357 0.0
C2220 C 0.3753 0.86379 0.09148 0.0
C2221 C 0.38665 0.89712 0.11928 0.0
H2222 H 0.38688 0.83624 0.13428 0.0
C2223 C 0.39107 0.88435 0.17094 0.0
C2224 C 0.37485 0.86839 0.17552 0.0
C2225 C 0.39475 0.88599 0.15852 0.0
C2226 C 0.38673 0.85336 0.1302 0.0
H2227 H 0.41341 0.91185 0.07703 0.0
H2228 H 0.41268 0.90773 0.09873 0.0
H2229 H 0.38892 0.83929 0.11243 0.0
H2230 H 0.34988 0.84158 0.17073 0.0
H2231 H 0.35633 0.84441 0.14927 0.0
H2232 H 0.38431 0.91116 0.13707 0.0
C2233 C 0.40213 0.89608 0.09336 0.0
C2234 C 0.38779 0.85509 0.1177 0.0
C2235 C 0.40265 0.89832 0.0809 0.0
C2236 C 0.36261 0.85399 0.16751 0.0
C2237 C 0.36639 0.85549 0.15519 0.0
C2238 C 0.38565 0.89538 0.13179 0.0
C2239 C 0.38837 0.87889 0.09881 0.0
C2240 C 0.38758 0.87698 0.1121 0.0
C2241 C 0.38241 0.87153 0.15054 0.0
C2242 C 0.38544 0.87348 0.13736 0.0
H2243 H 0.36552 0.8543 0.07352 0.0
H2244 H 0.36434 0.85051 0.09543 0.0
H2245 H 0.38615 0.91424 0.11523 0.0
H2246 H 0.40072 0.89567 0.17692 0.0
H2247 H 0.40728 0.89846 0.15516 0.0
C2248 C 0.86025 0.35334 0.66854 0.0
C2249 C 0.87388 0.36709 0.67625 0.0
C2250 C 0.86353 0.3542 0.65614 0.0
C2251 C 0.88506 0.39221 0.6323 0.0
H2252 H 0.88375 0.33593 0.61304 0.0
C2253 C 0.90301 0.3942 0.58161 0.0
C2254 C 0.88889 0.38045 0.57414 0.0
C2255 C 0.9022 0.39166 0.59405 0.0
C2256 C 0.88389 0.3518 0.61828 0.0
H2257 H 0.90178 0.39239 0.67706 0.0
H2258 H 0.90751 0.39399 0.65525 0.0
H2259 H 0.88123 0.33321 0.6349 0.0
H2260 H 0.86303 0.35304 0.57382 0.0
H2261 H 0.86126 0.34883 0.5957 0.0
H2262 H 0.88732 0.41087 0.61574 0.0
C2263 C 0.89421 0.3826 0.65886 0.0
C2264 C 0.88254 0.35025 0.6308 0.0
C2265 C 0.89101 0.38163 0.67132 0.0
C2266 C 0.87412 0.36385 0.57937 0.0
C2267 C 0.87321 0.36138 0.59188 0.0
C2268 C 0.88632 0.39377 0.6198 0.0
C2269 C 0.88044 0.36892 0.65115 0.0
C2270 C 0.88304 0.37045 0.63793 0.0
C2271 C 0.88712 0.37543 0.59935 0.0
C2272 C 0.88573 0.3736 0.61264 0.0
H2273 H 0.84685 0.34198 0.67206 0.0
H2274 H 0.85244 0.3437 0.65044 0.0
H2275 H 0.88508 0.40809 0.63754 0.0
H2276 H 0.9147 0.40707 0.57786 0.0
H2277 H 0.91347 0.40244 0.59951 0.0
C2278 C 0.39002 0.12435 0.32812 0.0
C2279 C 0.37376 0.13955 0.32294 0.0
C2280 C 0.39273 0.12352 0.34062 0.0
C2281 C 0.36111 0.13773 0.36863 0.0
H2282 H 0.42158 0.13057 0.38358 0.0
C2283 C 0.37388 0.14166 0.42015 0.0
C2284 C 0.38799 0.1241 0.42502 0.0
C2285 C 0.37285 0.14495 0.40769 0.0
C2286 C 0.40457 0.13246 0.37952 0.0
H2287 H 0.34808 0.16626 0.32672 0.0
H2288 H 0.35313 0.16516 0.34835 0.0
H2289 H 0.41875 0.13328 0.36172 0.0
H2290 H 0.41224 0.09636 0.4207 0.0
H2291 H 0.4104 0.10209 0.3991 0.0
H2292 H 0.34693 0.13686 0.38641 0.0
C2293 C 0.36344 0.15349 0.34286 0.0
C2294 C 0.40294 0.13393 0.36701 0.0
C2295 C 0.36066 0.15423 0.33043 0.0
C2296 C 0.40123 0.11011 0.41724 0.0
C2297 C 0.40031 0.11347 0.40485 0.0
C2298 C 0.36275 0.13635 0.38113 0.0
C2299 C 0.37926 0.13793 0.34813 0.0
C2300 C 0.38118 0.13651 0.36142 0.0
C2301 C 0.38604 0.13083 0.39992 0.0
C2302 C 0.38447 0.13357 0.3867 0.0
H2303 H 0.40031 0.11283 0.32255 0.0
H2304 H 0.40494 0.1112 0.34442 0.0
H2305 H 0.34403 0.13931 0.36461 0.0
H2306 H 0.36352 0.15271 0.42594 0.0
H2307 H 0.36181 0.15859 0.40414 0.0
C2308 C 0.61754 0.61881 0.17026 0.0
C2309 C 0.63464 0.63335 0.17523 0.0
C2310 C 0.6148 0.61745 0.15778 0.0
C2311 C 0.62679 0.64978 0.12988 0.0
H2312 H 0.62157 0.58952 0.11449 0.0
C2313 C 0.63323 0.63788 0.07831 0.0
C2314 C 0.61826 0.62144 0.0731 0.0
C2315 C 0.63477 0.63982 0.09082 0.0
C2316 C 0.6227 0.60652 0.11865 0.0
H2317 H 0.66239 0.65769 0.17107 0.0
H2318 H 0.65753 0.65534 0.14942 0.0
H2319 H 0.62419 0.59182 0.13631 0.0
H2320 H 0.59284 0.59446 0.07687 0.0
H2321 H 0.59511 0.59822 0.09854 0.0
H2322 H 0.62519 0.66453 0.11224 0.0
C2323 C 0.6461 0.64519 0.15512 0.0
C2324 C 0.6242 0.6078 0.13115 0.0
C2325 C 0.64894 0.64642 0.16753 0.0
C2326 C 0.60465 0.60725 0.0806 0.0
C2327 C 0.60608 0.60927 0.09305 0.0
C2328 C 0.62517 0.64852 0.11737 0.0
C2329 C 0.629 0.63074 0.1501 0.0
C2330 C 0.62637 0.62943 0.13688 0.0
C2331 C 0.6213 0.6254 0.09833 0.0
C2332 C 0.62316 0.62686 0.11161 0.0
H2333 H 0.60628 0.60855 0.17599 0.0
H2334 H 0.6014 0.60624 0.15413 0.0
H2335 H 0.6282 0.66673 0.13409 0.0
H2336 H 0.64395 0.649 0.07273 0.0
H2337 H 0.64684 0.65228 0.09462 0.0
C2338 C 0.11433 0.88302 0.82887 0.0
C2339 C 0.13143 0.86836 0.824 0.0
C2340 C 0.1113 0.88439 0.84133 0.0
C2341 C 0.12309 0.85282 0.86957 0.0
H2342 H 0.11878 0.91383 0.88425 0.0
C2343 C 0.13136 0.86718 0.92092 0.0
C2344 C 0.11674 0.88401 0.92606 0.0
C2345 C 0.13238 0.86459 0.90841 0.0
C2346 C 0.11964 0.89663 0.8803 0.0
H2347 H 0.15859 0.84346 0.82831 0.0
H2348 H 0.15325 0.84584 0.84994 0.0
H2349 H 0.1209 0.91051 0.86246 0.0
H2350 H 0.0914 0.911 0.92221 0.0
H2351 H 0.09279 0.90615 0.90057 0.0
H2352 H 0.1218 0.83892 0.8874 0.0
C2353 C 0.14208 0.85614 0.84418 0.0
C2354 C 0.12084 0.89476 0.86781 0.0
C2355 C 0.14521 0.8549 0.83178 0.0
C2356 C 0.10295 0.89793 0.91852 0.0
C2357 C 0.10387 0.89528 0.90609 0.0
C2358 C 0.12177 0.85468 0.88207 0.0
C2359 C 0.1252 0.87098 0.8491 0.0
C2360 C 0.1227 0.87285 0.86232 0.0
C2361 C 0.11873 0.87874 0.90086 0.0
C2362 C 0.12011 0.87662 0.88758 0.0
H2363 H 0.10346 0.89357 0.82308 0.0
H2364 H 0.09804 0.89586 0.84489 0.0
H2365 H 0.12428 0.83568 0.86556 0.0
H2366 H 0.14221 0.85624 0.92652 0.0
H2367 H 0.14419 0.85183 0.90466 0.0
loop_
_geom_bond_atom_site_label_1
_geom_bond_atom_site_label_2
_geom_bond_distance
_geom_bond_site_symmetry_2
_ccdc_geom_bond_type
Co0 O1 2.216 . S
Co0 O2 2.091 . S
Co0 O4 2.004 . S
Co0 O10 2.021 . S
Co0 O12 2.137 . S
Co0 O13 2.244 . S
O1 Co0 2.216 . S
O1 C8 1.247 . S
O2 Co0 2.091 . S
O2 C8 1.261 . S
C3 O12 1.247 . S
C3 O13 1.272 . S
O4 Co0 2.004 . S
O4 C9 1.259 . S
Co5 O6 2.061 . S
Co5 O11 2.052 . S
Co5 O13 2.135 . S
O6 Co5 2.061 . S
O6 C9 1.235 . S
C7 O10 1.238 . S
C7 O11 1.241 . S
C8 O1 1.247 . S
C8 O2 1.261 . S
C9 O4 1.259 . S
C9 O6 1.235 . S
O10 Co0 2.021 . S
O10 C7 1.238 . S
O11 Co5 2.052 . S
O11 C7 1.241 . S
O12 Co0 2.137 . S
O12 C3 1.247 . S
O13 Co0 2.244 . S
O13 C3 1.272 . S
O13 Co5 2.135 . S
Co14 O15 2.216 . S
Co14 O16 2.091 . S
Co14 O18 2.004 . S
Co14 O24 2.021 . S
Co14 O26 2.137 . S
Co14 O27 2.244 . S
O15 Co14 2.216 . S
O15 C22 1.247 . S
O16 Co14 2.091 . S
O16 C22 1.261 . S
C17 O26 1.247 . S
C17 O27 1.272 . S
O18 Co14 2.004 . S
O18 C23 1.259 . S
Co19 O20 2.061 . S
Co19 O25 2.052 . S
Co19 O27 2.135 . S
O20 Co19 2.061 . S
O20 C23 1.235 . S
C21 O24 1.238 . S
C21 O25 1.241 . S
C22 O15 1.247 . S
C22 O16 1.261 . S
C23 O18 1.259 . S
C23 O20 1.235 . S
O24 Co14 2.021 . S
O24 C21 1.238 . S
O25 Co19 2.052 . S
O25 C21 1.241 . S
O26 Co14 2.137 . S
O26 C17 1.247 . S
O27 Co14 2.244 . S
O27 C17 1.272 . S
O27 Co19 2.135 . S
Co28 O29 2.216 . S
Co28 O30 2.091 . S
Co28 O32 2.004 . S
Co28 O38 2.021 . S
Co28 O40 2.137 . S
Co28 O41 2.244 . S
O29 Co28 2.216 . S
O29 C36 1.247 . S
O30 Co28 2.091 . S
O30 C36 1.261 . S
C31 O40 1.247 . S
C31 O41 1.272 . S
O32 Co28 2.004 . S
O32 C37 1.259 . S
Co33 O34 2.061 . S
Co33 O39 2.052 . S
Co33 O41 2.135 . S
O34 Co33 2.061 . S
O34 C37 1.235 . S
C35 O38 1.238 . S
C35 O39 1.241 . S
C36 O29 1.247 . S
C36 O30 1.261 . S
C37 O32 1.259 . S
C37 O34 1.235 . S
O38 Co28 2.021 . S
O38 C35 1.238 . S
O39 Co33 2.052 . S
O39 C35 1.241 . S
O40 Co28 2.137 . S
O40 C31 1.247 . S
O41 Co28 2.244 . S
O41 C31 1.272 . S
O41 Co33 2.135 . S
Co42 O43 2.216 . S
Co42 O44 2.091 . S
Co42 O46 2.004 . S
Co42 O52 2.021 . S
Co42 O54 2.137 . S
Co42 O55 2.244 . S
O43 Co42 2.216 . S
O43 C50 1.247 . S
O44 Co42 2.091 . S
O44 C50 1.261 . S
C45 O54 1.247 . S
C45 O55 1.272 . S
O46 Co42 2.004 . S
O46 C51 1.259 . S
Co47 O48 2.061 . S
Co47 O53 2.052 . S
Co47 O55 2.135 . S
O48 Co47 2.061 . S
O48 C51 1.235 . S
C49 O52 1.238 . S
C49 O53 1.241 . S
C50 O43 1.247 . S
C50 O44 1.261 . S
C51 O46 1.259 . S
C51 O48 1.235 . S
O52 Co42 2.021 . S
O52 C49 1.238 . S
O53 Co47 2.052 . S
O53 C49 1.241 . S
O54 Co42 2.137 . S
O54 C45 1.247 . S
O55 Co42 2.244 . S
O55 C45 1.272 . S
O55 Co47 2.135 . S
Co56 O57 2.216 . S
Co56 O58 2.091 . S
Co56 O60 2.004 . S
Co56 O66 2.021 . S
Co56 O68 2.137 . S
Co56 O69 2.244 . S
O57 Co56 2.216 . S
O57 C64 1.247 . S
O58 Co56 2.091 . S
O58 C64 1.261 . S
C59 O68 1.247 . S
C59 O69 1.272 . S
O60 Co56 2.004 . S
O60 C65 1.259 . S
Co61 O62 2.061 . S
Co61 O67 2.052 . S
Co61 O69 2.135 . S
O62 Co61 2.061 . S
O62 C65 1.235 . S
C63 O66 1.238 . S
C63 O67 1.241 . S
C64 O57 1.247 . S
C64 O58 1.261 . S
C65 O60 1.259 . S
C65 O62 1.235 . S
O66 Co56 2.021 . S
O66 C63 1.238 . S
O67 Co61 2.052 . S
O67 C63 1.241 . S
O68 Co56 2.137 . S
O68 C59 1.247 . S
O69 Co56 2.244 . S
O69 C59 1.272 . S
O69 Co61 2.135 . S
Co70 O71 2.216 . S
Co70 O72 2.091 . S
Co70 O74 2.004 . S
Co70 O80 2.021 . S
Co70 O82 2.137 . S
Co70 O83 2.244 . S
O71 Co70 2.216 . S
O71 C78 1.247 . S
O72 Co70 2.091 . S
O72 C78 1.261 . S
C73 O82 1.247 . S
C73 O83 1.272 . S
O74 Co70 2.004 . S
O74 C79 1.259 . S
Co75 O76 2.061 . S
Co75 O81 2.052 . S
Co75 O83 2.135 . S
O76 Co75 2.061 . S
O76 C79 1.235 . S
C77 O80 1.238 . S
C77 O81 1.241 . S
C78 O71 1.247 . S
C78 O72 1.261 . S
C79 O74 1.259 . S
C79 O76 1.235 . S
O80 Co70 2.021 . S
O80 C77 1.238 . S
O81 Co75 2.052 . S
O81 C77 1.241 . S
O82 Co70 2.137 . S
O82 C73 1.247 . S
O83 Co70 2.244 . S
O83 C73 1.272 . S
O83 Co75 2.135 . S
Co84 O85 2.216 . S
Co84 O86 2.091 . S
Co84 O88 2.004 . S
Co84 O94 2.021 . S
Co84 O96 2.137 . S
Co84 O97 2.244 . S
O85 Co84 2.216 . S
O85 C92 1.247 . S
O86 Co84 2.091 . S
O86 C92 1.261 . S
C87 O96 1.247 . S
C87 O97 1.272 . S
O88 Co84 2.004 . S
O88 C93 1.259 . S
Co89 O90 2.061 . S
Co89 O95 2.052 . S
Co89 O97 2.135 . S
O90 Co89 2.061 . S
O90 C93 1.235 . S
C91 O94 1.238 . S
C91 O95 1.241 . S
C92 O85 1.247 . S
C92 O86 1.261 . S
C93 O88 1.259 . S
C93 O90 1.235 . S
O94 Co84 2.021 . S
O94 C91 1.238 . S
O95 Co89 2.052 . S
O95 C91 1.241 . S
O96 Co84 2.137 . S
O96 C87 1.247 . S
O97 Co84 2.244 . S
O97 C87 1.272 . S
O97 Co89 2.135 . S
Co98 O99 2.216 . S
Co98 O100 2.091 . S
Co98 O102 2.004 . S
Co98 O108 2.021 . S
Co98 O110 2.137 . S
Co98 O111 2.244 . S
O99 Co98 2.216 . S
O99 C106 1.247 . S
O100 Co98 2.091 . S
O100 C106 1.261 . S
C101 O110 1.247 . S
C101 O111 1.272 . S
O102 Co98 2.004 . S
O102 C107 1.259 . S
Co103 O104 2.061 . S
Co103 O109 2.052 . S
Co103 O111 2.135 . S
O104 Co103 2.061 . S
O104 C107 1.235 . S
C105 O108 1.238 . S
C105 O109 1.241 . S
C106 O99 1.247 . S
C106 O100 1.261 . S
C107 O102 1.259 . S
C107 O104 1.235 . S
O108 Co98 2.021 . S
O108 C105 1.238 . S
O109 Co103 2.052 . S
O109 C105 1.241 . S
O110 Co98 2.137 . S
O110 C101 1.247 . S
O111 Co98 2.244 . S
O111 C101 1.272 . S
O111 Co103 2.135 . S
Co112 O113 2.216 . S
Co112 O114 2.091 . S
Co112 O116 2.004 . S
Co112 O122 2.021 . S
Co112 O124 2.137 . S
Co112 O125 2.244 . S
O113 Co112 2.216 . S
O113 C120 1.247 . S
O114 Co112 2.091 . S
O114 C120 1.261 . S
C115 O124 1.247 . S
C115 O125 1.272 . S
O116 Co112 2.004 . S
O116 C121 1.259 . S
Co117 O118 2.061 . S
Co117 O123 2.052 . S
Co117 O125 2.135 . S
O118 Co117 2.061 . S
O118 C121 1.235 . S
C119 O122 1.238 . S
C119 O123 1.241 . S
C120 O113 1.247 . S
C120 O114 1.261 . S
C121 O116 1.259 . S
C121 O118 1.235 . S
O122 Co112 2.021 . S
O122 C119 1.238 . S
O123 Co117 2.052 . S
O123 C119 1.241 . S
O124 Co112 2.137 . S
O124 C115 1.247 . S
O125 Co112 2.244 . S
O125 C115 1.272 . S
O125 Co117 2.135 . S
Co126 O127 2.216 . S
Co126 O128 2.091 . S
Co126 O130 2.004 . S
Co126 O136 2.021 . S
Co126 O138 2.137 . S
Co126 O139 2.244 . S
O127 Co126 2.216 . S
O127 C134 1.247 . S
O128 Co126 2.091 . S
O128 C134 1.261 . S
C129 O138 1.247 . S
C129 O139 1.272 . S
O130 Co126 2.004 . S
O130 C135 1.259 . S
Co131 O132 2.061 . S
Co131 O137 2.052 . S
Co131 O139 2.135 . S
O132 Co131 2.061 . S
O132 C135 1.235 . S
C133 O136 1.238 . S
C133 O137 1.241 . S
C134 O127 1.247 . S
C134 O128 1.261 . S
C135 O130 1.259 . S
C135 O132 1.235 . S
O136 Co126 2.021 . S
O136 C133 1.238 . S
O137 Co131 2.052 . S
O137 C133 1.241 . S
O138 Co126 2.137 . S
O138 C129 1.247 . S
O139 Co126 2.244 . S
O139 C129 1.272 . S
O139 Co131 2.135 . S
Co140 O141 2.216 . S
Co140 O142 2.091 . S
Co140 O144 2.004 . S
Co140 O150 2.021 . S
Co140 O152 2.137 . S
Co140 O153 2.244 . S
O141 Co140 2.216 . S
O141 C148 1.247 . S
O142 Co140 2.091 . S
O142 C148 1.261 . S
C143 O152 1.247 . S
C143 O153 1.272 . S
O144 Co140 2.004 . S
O144 C149 1.259 . S
Co145 O146 2.061 . S
Co145 O151 2.052 . S
Co145 O153 2.135 . S
O146 Co145 2.061 . S
O146 C149 1.235 . S
C147 O150 1.238 . S
C147 O151 1.241 . S
C148 O141 1.247 . S
C148 O142 1.261 . S
C149 O144 1.259 . S
C149 O146 1.235 . S
O150 Co140 2.021 . S
O150 C147 1.238 . S
O151 Co145 2.052 . S
O151 C147 1.241 . S
O152 Co140 2.137 . S
O152 C143 1.247 . S
O153 Co140 2.244 . S
O153 C143 1.272 . S
O153 Co145 2.135 . S
Co154 O155 2.216 . S
Co154 O156 2.091 . S
Co154 O158 2.004 . S
Co154 O164 2.021 . S
Co154 O166 2.137 . S
Co154 O167 2.244 . S
O155 Co154 2.216 . S
O155 C162 1.247 . S
O156 Co154 2.091 . S
O156 C162 1.261 . S
C157 O166 1.247 . S
C157 O167 1.272 . S
O158 Co154 2.004 . S
O158 C163 1.259 . S
Co159 O160 2.061 . S
Co159 O165 2.052 . S
Co159 O167 2.135 . S
O160 Co159 2.061 . S
O160 C163 1.235 . S
C161 O164 1.238 . S
C161 O165 1.241 . S
C162 O155 1.247 . S
C162 O156 1.261 . S
C163 O158 1.259 . S
C163 O160 1.235 . S
O164 Co154 2.021 . S
O164 C161 1.238 . S
O165 Co159 2.052 . S
O165 C161 1.241 . S
O166 Co154 2.137 . S
O166 C157 1.247 . S
O167 Co154 2.244 . S
O167 C157 1.272 . S
O167 Co159 2.135 . S
Co168 O169 2.216 . S
Co168 O170 2.091 . S
Co168 O172 2.004 . S
Co168 O178 2.021 . S
Co168 O180 2.137 . S
Co168 O181 2.244 . S
O169 Co168 2.216 . S
O169 C176 1.247 . S
O170 Co168 2.091 . S
O170 C176 1.261 . S
C171 O180 1.247 . S
C171 O181 1.272 . S
O172 Co168 2.004 . S
O172 C177 1.259 . S
Co173 O174 2.061 . S
Co173 O179 2.052 . S
Co173 O181 2.135 . S
O174 Co173 2.061 . S
O174 C177 1.235 . S
C175 O178 1.238 . S
C175 O179 1.241 . S
C176 O169 1.247 . S
C176 O170 1.261 . S
C177 O172 1.259 . S
C177 O174 1.235 . S
O178 Co168 2.021 . S
O178 C175 1.238 . S
O179 Co173 2.052 . S
O179 C175 1.241 . S
O180 Co168 2.137 . S
O180 C171 1.247 . S
O181 Co168 2.244 . S
O181 C171 1.272 . S
O181 Co173 2.135 . S
Co182 O183 2.216 . S
Co182 O184 2.091 . S
Co182 O186 2.004 . S
Co182 O192 2.021 . S
Co182 O194 2.137 . S
Co182 O195 2.244 . S
O183 Co182 2.216 . S
O183 C190 1.247 . S
O184 Co182 2.091 . S
O184 C190 1.261 . S
C185 O194 1.247 . S
C185 O195 1.272 . S
O186 Co182 2.004 . S
O186 C191 1.259 . S
Co187 O188 2.061 . S
Co187 O193 2.052 . S
Co187 O195 2.135 . S
O188 Co187 2.061 . S
O188 C191 1.235 . S
C189 O192 1.238 . S
C189 O193 1.241 . S
C190 O183 1.247 . S
C190 O184 1.261 . S
C191 O186 1.259 . S
C191 O188 1.235 . S
O192 Co182 2.021 . S
O192 C189 1.238 . S
O193 Co187 2.052 . S
O193 C189 1.241 . S
O194 Co182 2.137 . S
O194 C185 1.247 . S
O195 Co182 2.244 . S
O195 C185 1.272 . S
O195 Co187 2.135 . S
Co196 O197 2.216 . S
Co196 O198 2.091 . S
Co196 O200 2.004 . S
Co196 O206 2.021 . S
Co196 O208 2.137 . S
Co196 O209 2.244 . S
O197 Co196 2.216 . S
O197 C204 1.247 . S
O198 Co196 2.091 . S
O198 C204 1.261 . S
C199 O208 1.247 . S
C199 O209 1.272 . S
O200 Co196 2.004 . S
O200 C205 1.259 . S
Co201 O202 2.061 . S
Co201 O207 2.052 . S
Co201 O209 2.135 . S
O202 Co201 2.061 . S
O202 C205 1.235 . S
C203 O206 1.238 . S
C203 O207 1.241 . S
C204 O197 1.247 . S
C204 O198 1.261 . S
C205 O200 1.259 . S
C205 O202 1.235 . S
O206 Co196 2.021 . S
O206 C203 1.238 . S
O207 Co201 2.052 . S
O207 C203 1.241 . S
O208 Co196 2.137 . S
O208 C199 1.247 . S
O209 Co196 2.244 . S
O209 C199 1.272 . S
O209 Co201 2.135 . S
Co210 O211 2.216 . S
Co210 O212 2.091 . S
Co210 O214 2.004 . S
Co210 O220 2.021 . S
Co210 O222 2.137 . S
Co210 O223 2.244 . S
O211 Co210 2.216 . S
O211 C218 1.247 . S
O212 Co210 2.091 . S
O212 C218 1.261 . S
C213 O222 1.247 . S
C213 O223 1.272 . S
O214 Co210 2.004 . S
O214 C219 1.259 . S
Co215 O216 2.061 . S
Co215 O221 2.052 . S
Co215 O223 2.135 . S
O216 Co215 2.061 . S
O216 C219 1.235 . S
C217 O220 1.238 . S
C217 O221 1.241 . S
C218 O211 1.247 . S
C218 O212 1.261 . S
C219 O214 1.259 . S
C219 O216 1.235 . S
O220 Co210 2.021 . S
O220 C217 1.238 . S
O221 Co215 2.052 . S
O221 C217 1.241 . S
O222 Co210 2.137 . S
O222 C213 1.247 . S
O223 Co210 2.244 . S
O223 C213 1.272 . S
O223 Co215 2.135 . S
Co224 O225 2.216 . S
Co224 O226 2.091 . S
Co224 O228 2.004 . S
Co224 O234 2.021 . S
Co224 O236 2.137 . S
Co224 O237 2.244 . S
O225 Co224 2.216 . S
O225 C232 1.247 . S
O226 Co224 2.091 . S
O226 C232 1.261 . S
C227 O236 1.247 . S
C227 O237 1.272 . S
O228 Co224 2.004 . S
O228 C233 1.259 . S
Co229 O230 2.061 . S
Co229 O235 2.052 . S
Co229 O237 2.135 . S
O230 Co229 2.061 . S
O230 C233 1.235 . S
C231 O234 1.238 . S
C231 O235 1.241 . S
C232 O225 1.247 . S
C232 O226 1.261 . S
C233 O228 1.259 . S
C233 O230 1.235 . S
O234 Co224 2.021 . S
O234 C231 1.238 . S
O235 Co229 2.052 . S
O235 C231 1.241 . S
O236 Co224 2.137 . S
O236 C227 1.247 . S
O237 Co224 2.244 . S
O237 C227 1.272 . S
O237 Co229 2.135 . S
Co238 O239 2.216 . S
Co238 O240 2.091 . S
Co238 O242 2.004 . S
Co238 O248 2.021 . S
Co238 O250 2.137 . S
Co238 O251 2.244 . S
O239 Co238 2.216 . S
O239 C246 1.247 . S
O240 Co238 2.091 . S
O240 C246 1.261 . S
C241 O250 1.247 . S
C241 O251 1.272 . S
O242 Co238 2.004 . S
O242 C247 1.259 . S
Co243 O244 2.061 . S
Co243 O249 2.052 . S
Co243 O251 2.135 . S
O244 Co243 2.061 . S
O244 C247 1.235 . S
C245 O248 1.238 . S
C245 O249 1.241 . S
C246 O239 1.247 . S
C246 O240 1.261 . S
C247 O242 1.259 . S
C247 O244 1.235 . S
O248 Co238 2.021 . S
O248 C245 1.238 . S
O249 Co243 2.052 . S
O249 C245 1.241 . S
O250 Co238 2.137 . S
O250 C241 1.247 . S
O251 Co238 2.244 . S
O251 C241 1.272 . S
O251 Co243 2.135 . S
Co252 O253 2.216 . S
Co252 O254 2.091 . S
Co252 O256 2.004 . S
Co252 O262 2.021 . S
Co252 O264 2.137 . S
Co252 O265 2.244 . S
O253 Co252 2.216 . S
O253 C260 1.247 . S
O254 Co252 2.091 . S
O254 C260 1.261 . S
C255 O264 1.247 . S
C255 O265 1.272 . S
O256 Co252 2.004 . S
O256 C261 1.259 . S
Co257 O258 2.061 . S
Co257 O263 2.052 . S
Co257 O265 2.135 . S
O258 Co257 2.061 . S
O258 C261 1.235 . S
C259 O262 1.238 . S
C259 O263 1.241 . S
C260 O253 1.247 . S
C260 O254 1.261 . S
C261 O256 1.259 . S
C261 O258 1.235 . S
O262 Co252 2.021 . S
O262 C259 1.238 . S
O263 Co257 2.052 . S
O263 C259 1.241 . S
O264 Co252 2.137 . S
O264 C255 1.247 . S
O265 Co252 2.244 . S
O265 C255 1.272 . S
O265 Co257 2.135 . S
Co266 O267 2.216 . S
Co266 O268 2.091 . S
Co266 O270 2.004 . S
Co266 O276 2.021 . S
Co266 O278 2.137 . S
Co266 O279 2.244 . S
O267 Co266 2.216 . S
O267 C274 1.247 . S
O268 Co266 2.091 . S
O268 C274 1.261 . S
C269 O278 1.247 . S
C269 O279 1.272 . S
O270 Co266 2.004 . S
O270 C275 1.259 . S
Co271 O272 2.061 . S
Co271 O277 2.052 . S
Co271 O279 2.135 . S
O272 Co271 2.061 . S
O272 C275 1.235 . S
C273 O276 1.238 . S
C273 O277 1.241 . S
C274 O267 1.247 . S
C274 O268 1.261 . S
C275 O270 1.259 . S
C275 O272 1.235 . S
O276 Co266 2.021 . S
O276 C273 1.238 . S
O277 Co271 2.052 . S
O277 C273 1.241 . S
O278 Co266 2.137 . S
O278 C269 1.247 . S
O279 Co266 2.244 . S
O279 C269 1.272 . S
O279 Co271 2.135 . S
Co280 O281 2.216 . S
Co280 O282 2.091 . S
Co280 O284 2.004 . S
Co280 O290 2.021 . S
Co280 O292 2.137 . S
Co280 O293 2.244 . S
O281 Co280 2.216 . S
O281 C288 1.247 . S
O282 Co280 2.091 . S
O282 C288 1.261 . S
C283 O292 1.247 . S
C283 O293 1.272 . S
O284 Co280 2.004 . S
O284 C289 1.259 . S
Co285 O286 2.061 . S
Co285 O291 2.052 . S
Co285 O293 2.135 . S
O286 Co285 2.061 . S
O286 C289 1.235 . S
C287 O290 1.238 . S
C287 O291 1.241 . S
C288 O281 1.247 . S
C288 O282 1.261 . S
C289 O284 1.259 . S
C289 O286 1.235 . S
O290 Co280 2.021 . S
O290 C287 1.238 . S
O291 Co285 2.052 . S
O291 C287 1.241 . S
O292 Co280 2.137 . S
O292 C283 1.247 . S
O293 Co280 2.244 . S
O293 C283 1.272 . S
O293 Co285 2.135 . S
Co294 O295 2.216 . S
Co294 O296 2.091 . S
Co294 O298 2.004 . S
Co294 O304 2.021 . S
Co294 O306 2.137 . S
Co294 O307 2.244 . S
O295 Co294 2.216 . S
O295 C302 1.247 . S
O296 Co294 2.091 . S
O296 C302 1.261 . S
C297 O306 1.247 . S
C297 O307 1.272 . S
O298 Co294 2.004 . S
O298 C303 1.259 . S
Co299 O300 2.061 . S
Co299 O305 2.052 . S
Co299 O307 2.135 . S
O300 Co299 2.061 . S
O300 C303 1.235 . S
C301 O304 1.238 . S
C301 O305 1.241 . S
C302 O295 1.247 . S
C302 O296 1.261 . S
C303 O298 1.259 . S
C303 O300 1.235 . S
O304 Co294 2.021 . S
O304 C301 1.238 . S
O305 Co299 2.052 . S
O305 C301 1.241 . S
O306 Co294 2.137 . S
O306 C297 1.247 . S
O307 Co294 2.244 . S
O307 C297 1.272 . S
O307 Co299 2.135 . S
Co308 O309 2.216 . S
Co308 O310 2.091 . S
Co308 O312 2.004 . S
Co308 O318 2.021 . S
Co308 O320 2.137 . S
Co308 O321 2.244 . S
O309 Co308 2.216 . S
O309 C316 1.247 . S
O310 Co308 2.091 . S
O310 C316 1.261 . S
C311 O320 1.247 . S
C311 O321 1.272 . S
O312 Co308 2.004 . S
O312 C317 1.259 . S
Co313 O314 2.061 . S
Co313 O319 2.052 . S
Co313 O321 2.135 . S
O314 Co313 2.061 . S
O314 C317 1.235 . S
C315 O318 1.238 . S
C315 O319 1.241 . S
C316 O309 1.247 . S
C316 O310 1.261 . S
C317 O312 1.259 . S
C317 O314 1.235 . S
O318 Co308 2.021 . S
O318 C315 1.238 . S
O319 Co313 2.052 . S
O319 C315 1.241 . S
O320 Co308 2.137 . S
O320 C311 1.247 . S
O321 Co308 2.244 . S
O321 C311 1.272 . S
O321 Co313 2.135 . S
Co322 O323 2.216 . S
Co322 O324 2.091 . S
Co322 O326 2.004 . S
Co322 O332 2.021 . S
Co322 O334 2.137 . S
Co322 O335 2.244 . S
O323 Co322 2.216 . S
O323 C330 1.247 . S
O324 Co322 2.091 . S
O324 C330 1.261 . S
C325 O334 1.247 . S
C325 O335 1.272 . S
O326 Co322 2.004 . S
O326 C331 1.259 . S
Co327 O328 2.061 . S
Co327 O333 2.052 . S
Co327 O335 2.135 . S
O328 Co327 2.061 . S
O328 C331 1.235 . S
C329 O332 1.238 . S
C329 O333 1.241 . S
C330 O323 1.247 . S
C330 O324 1.261 . S
C331 O326 1.259 . S
C331 O328 1.235 . S
O332 Co322 2.021 . S
O332 C329 1.238 . S
O333 Co327 2.052 . S
O333 C329 1.241 . S
O334 Co322 2.137 . S
O334 C325 1.247 . S
O335 Co322 2.244 . S
O335 C325 1.272 . S
O335 Co327 2.135 . S
Co336 O337 2.216 . S
Co336 O338 2.091 . S
Co336 O340 2.004 . S
Co336 O346 2.021 . S
Co336 O348 2.137 . S
Co336 O349 2.244 . S
O337 Co336 2.216 . S
O337 C344 1.247 . S
O338 Co336 2.091 . S
O338 C344 1.261 . S
C339 O348 1.247 . S
C339 O349 1.272 . S
O340 Co336 2.004 . S
O340 C345 1.259 . S
Co341 O342 2.061 . S
Co341 O347 2.052 . S
Co341 O349 2.135 . S
O342 Co341 2.061 . S
O342 C345 1.235 . S
C343 O346 1.238 . S
C343 O347 1.241 . S
C344 O337 1.247 . S
C344 O338 1.261 . S
C345 O340 1.259 . S
C345 O342 1.235 . S
O346 Co336 2.021 . S
O346 C343 1.238 . S
O347 Co341 2.052 . S
O347 C343 1.241 . S
O348 Co336 2.137 . S
O348 C339 1.247 . S
O349 Co336 2.244 . S
O349 C339 1.272 . S
O349 Co341 2.135 . S
Co350 O351 2.216 . S
Co350 O352 2.091 . S
Co350 O354 2.004 . S
Co350 O360 2.021 . S
Co350 O362 2.137 . S
Co350 O363 2.244 . S
O351 Co350 2.216 . S
O351 C358 1.247 . S
O352 Co350 2.091 . S
O352 C358 1.261 . S
C353 O362 1.247 . S
C353 O363 1.272 . S
O354 Co350 2.004 . S
O354 C359 1.259 . S
Co355 O356 2.061 . S
Co355 O361 2.052 . S
Co355 O363 2.135 . S
O356 Co355 2.061 . S
O356 C359 1.235 . S
C357 O360 1.238 . S
C357 O361 1.241 . S
C358 O351 1.247 . S
C358 O352 1.261 . S
C359 O354 1.259 . S
C359 O356 1.235 . S
O360 Co350 2.021 . S
O360 C357 1.238 . S
O361 Co355 2.052 . S
O361 C357 1.241 . S
O362 Co350 2.137 . S
O362 C353 1.247 . S
O363 Co350 2.244 . S
O363 C353 1.272 . S
O363 Co355 2.135 . S
Co364 O365 2.216 . S
Co364 O366 2.091 . S
Co364 O368 2.004 . S
Co364 O374 2.021 . S
Co364 O376 2.137 . S
Co364 O377 2.244 . S
O365 Co364 2.216 . S
O365 C372 1.247 . S
O366 Co364 2.091 . S
O366 C372 1.261 . S
C367 O376 1.247 . S
C367 O377 1.272 . S
O368 Co364 2.004 . S
O368 C373 1.259 . S
Co369 O370 2.061 . S
Co369 O375 2.052 . S
Co369 O377 2.135 . S
O370 Co369 2.061 . S
O370 C373 1.235 . S
C371 O374 1.238 . S
C371 O375 1.241 . S
C372 O365 1.247 . S
C372 O366 1.261 . S
C373 O368 1.259 . S
C373 O370 1.235 . S
O374 Co364 2.021 . S
O374 C371 1.238 . S
O375 Co369 2.052 . S
O375 C371 1.241 . S
O376 Co364 2.137 . S
O376 C367 1.247 . S
O377 Co364 2.244 . S
O377 C367 1.272 . S
O377 Co369 2.135 . S
Co378 O379 2.216 . S
Co378 O380 2.091 . S
Co378 O382 2.004 . S
Co378 O388 2.021 . S
Co378 O390 2.137 . S
Co378 O391 2.244 . S
O379 Co378 2.216 . S
O379 C386 1.247 . S
O380 Co378 2.091 . S
O380 C386 1.261 . S
C381 O390 1.247 . S
C381 O391 1.272 . S
O382 Co378 2.004 . S
O382 C387 1.259 . S
Co383 O384 2.061 . S
Co383 O389 2.052 . S
Co383 O391 2.135 . S
O384 Co383 2.061 . S
O384 C387 1.235 . S
C385 O388 1.238 . S
C385 O389 1.241 . S
C386 O379 1.247 . S
C386 O380 1.261 . S
C387 O382 1.259 . S
C387 O384 1.235 . S
O388 Co378 2.021 . S
O388 C385 1.238 . S
O389 Co383 2.052 . S
O389 C385 1.241 . S
O390 Co378 2.137 . S
O390 C381 1.247 . S
O391 Co378 2.244 . S
O391 C381 1.272 . S
O391 Co383 2.135 . S
Co392 O393 2.216 . S
Co392 O394 2.091 . S
Co392 O396 2.004 . S
Co392 O402 2.021 . S
Co392 O404 2.137 . S
Co392 O405 2.244 . S
O393 Co392 2.216 . S
O393 C400 1.247 . S
O394 Co392 2.091 . S
O394 C400 1.261 . S
C395 O404 1.247 . S
C395 O405 1.272 . S
O396 Co392 2.004 . S
O396 C401 1.259 . S
Co397 O398 2.061 . S
Co397 O403 2.052 . S
Co397 O405 2.135 . S
O398 Co397 2.061 . S
O398 C401 1.235 . S
C399 O402 1.238 . S
C399 O403 1.241 . S
C400 O393 1.247 . S
C400 O394 1.261 . S
C401 O396 1.259 . S
C401 O398 1.235 . S
O402 Co392 2.021 . S
O402 C399 1.238 . S
O403 Co397 2.052 . S
O403 C399 1.241 . S
O404 Co392 2.137 . S
O404 C395 1.247 . S
O405 Co392 2.244 . S
O405 C395 1.272 . S
O405 Co397 2.135 . S
Co406 O407 2.216 . S
Co406 O408 2.091 . S
Co406 O410 2.004 . S
Co406 O416 2.021 . S
Co406 O418 2.137 . S
Co406 O419 2.244 . S
O407 Co406 2.216 . S
O407 C414 1.247 . S
O408 Co406 2.091 . S
O408 C414 1.261 . S
C409 O418 1.247 . S
C409 O419 1.272 . S
O410 Co406 2.004 . S
O410 C415 1.259 . S
Co411 O412 2.061 . S
Co411 O417 2.052 . S
Co411 O419 2.135 . S
O412 Co411 2.061 . S
O412 C415 1.235 . S
C413 O416 1.238 . S
C413 O417 1.241 . S
C414 O407 1.247 . S
C414 O408 1.261 . S
C415 O410 1.259 . S
C415 O412 1.235 . S
O416 Co406 2.021 . S
O416 C413 1.238 . S
O417 Co411 2.052 . S
O417 C413 1.241 . S
O418 Co406 2.137 . S
O418 C409 1.247 . S
O419 Co406 2.244 . S
O419 C409 1.272 . S
O419 Co411 2.135 . S
Co420 O421 2.216 . S
Co420 O422 2.091 . S
Co420 O424 2.004 . S
Co420 O430 2.021 . S
Co420 O432 2.137 . S
Co420 O433 2.244 . S
O421 Co420 2.216 . S
O421 C428 1.247 . S
O422 Co420 2.091 . S
O422 C428 1.261 . S
C423 O432 1.247 . S
C423 O433 1.272 . S
O424 Co420 2.004 . S
O424 C429 1.259 . S
Co425 O426 2.061 . S
Co425 O431 2.052 . S
Co425 O433 2.135 . S
O426 Co425 2.061 . S
O426 C429 1.235 . S
C427 O430 1.238 . S
C427 O431 1.241 . S
C428 O421 1.247 . S
C428 O422 1.261 . S
C429 O424 1.259 . S
C429 O426 1.235 . S
O430 Co420 2.021 . S
O430 C427 1.238 . S
O431 Co425 2.052 . S
O431 C427 1.241 . S
O432 Co420 2.137 . S
O432 C423 1.247 . S
O433 Co420 2.244 . S
O433 C423 1.272 . S
O433 Co425 2.135 . S
Co434 O435 2.216 . S
Co434 O436 2.091 . S
Co434 O438 2.004 . S
Co434 O444 2.021 . S
Co434 O446 2.137 . S
Co434 O447 2.244 . S
O435 Co434 2.216 . S
O435 C442 1.247 . S
O436 Co434 2.091 . S
O436 C442 1.261 . S
C437 O446 1.247 . S
C437 O447 1.272 . S
O438 Co434 2.004 . S
O438 C443 1.259 . S
Co439 O440 2.061 . S
Co439 O445 2.052 . S
Co439 O447 2.135 . S
O440 Co439 2.061 . S
O440 C443 1.235 . S
C441 O444 1.238 . S
C441 O445 1.241 . S
C442 O435 1.247 . S
C442 O436 1.261 . S
C443 O438 1.259 . S
C443 O440 1.235 . S
O444 Co434 2.021 . S
O444 C441 1.238 . S
O445 Co439 2.052 . S
O445 C441 1.241 . S
O446 Co434 2.137 . S
O446 C437 1.247 . S
O447 Co434 2.244 . S
O447 C437 1.272 . S
O447 Co439 2.135 . S
C448 C449 1.349 . S
C448 C450 1.327 . S
C448 H473 0.950 . S
C449 C448 1.349 . S
C449 C465 1.349 . S
C450 C448 1.327 . S
C450 C469 1.429 . S
C450 H474 0.950 . S
C451 C468 1.574 1_655 S
C451 C470 1.368 1_554 S
C451 H475 0.949 . S
H452 C456 0.949 . S
C453 C454 1.349 . S
C453 C455 1.327 . S
C453 H476 0.950 . S
C454 C453 1.349 . S
C454 C466 1.349 . S
C455 C453 1.327 . S
C455 C471 1.429 . S
C455 H477 0.950 . S
C456 H452 0.949 . S
C456 C464 1.574 1_455 S
C456 C472 1.368 1_556 S
H457 C465 0.950 . S
H458 C463 0.950 1_554 S
H459 C464 0.949 . S
H460 C466 0.950 . S
H461 C467 0.950 1_556 S
H462 C468 0.949 . S
C463 H458 0.950 1_556 S
C463 C465 1.327 . S
C463 C469 1.429 . S
C464 C456 1.574 1_655 S
C464 H459 0.949 . S
C464 C470 1.368 . S
C465 C449 1.349 . S
C465 H457 0.950 . S
C465 C463 1.327 . S
C466 C454 1.349 . S
C466 H460 0.950 . S
C466 C467 1.327 . S
C467 H461 0.950 1_554 S
C467 C466 1.327 . S
C467 C471 1.429 . S
C468 C451 1.574 1_455 S
C468 H462 0.949 . S
C468 C472 1.368 . S
C469 C450 1.429 . S
C469 C463 1.429 . S
C469 C470 1.523 . S
C470 C451 1.368 1_556 S
C470 C464 1.368 . S
C470 C469 1.523 . S
C471 C455 1.429 . S
C471 C467 1.429 . S
C471 C472 1.523 . S
C472 C456 1.368 1_554 S
C472 C468 1.368 . S
C472 C471 1.523 . S
H473 C448 0.950 . S
H474 C450 0.950 . S
H475 C451 0.949 . S
H476 C453 0.950 . S
H477 C455 0.950 . S
C478 C479 1.349 . S
C478 C480 1.327 . S
C478 H503 0.950 . S
C479 C478 1.349 . S
C479 C495 1.349 . S
C480 C478 1.327 . S
C480 C499 1.429 . S
C480 H504 0.950 . S
C481 C498 1.574 . S
C481 C500 1.368 . S
C481 H505 0.949 . S
H482 C486 0.949 . S
C483 C484 1.349 . S
C483 C485 1.327 . S
C483 H506 0.950 . S
C484 C483 1.349 . S
C484 C496 1.349 . S
C485 C483 1.327 . S
C485 C501 1.429 . S
C485 H507 0.950 . S
C486 H482 0.949 . S
C486 C494 1.574 . S
C486 C502 1.368 . S
H487 C495 0.950 . S
H488 C493 0.950 . S
H489 C494 0.949 . S
H490 C496 0.950 . S
H491 C497 0.950 . S
H492 C498 0.949 . S
C493 H488 0.950 . S
C493 C495 1.327 . S
C493 C499 1.429 . S
C494 C486 1.574 . S
C494 H489 0.949 . S
C494 C500 1.368 . S
C495 C479 1.349 . S
C495 H487 0.950 . S
C495 C493 1.327 . S
C496 C484 1.349 . S
C496 H490 0.950 . S
C496 C497 1.327 . S
C497 H491 0.950 . S
C497 C496 1.327 . S
C497 C501 1.429 . S
C498 C481 1.574 . S
C498 H492 0.949 . S
C498 C502 1.368 . S
C499 C480 1.429 . S
C499 C493 1.429 . S
C499 C500 1.523 . S
C500 C481 1.368 . S
C500 C494 1.368 . S
C500 C499 1.523 . S
C501 C485 1.429 . S
C501 C497 1.429 . S
C501 C502 1.523 . S
C502 C486 1.368 . S
C502 C498 1.368 . S
C502 C501 1.523 . S
H503 C478 0.950 . S
H504 C480 0.950 . S
H505 C481 0.949 . S
H506 C483 0.950 . S
H507 C485 0.950 . S
C508 C509 1.349 . S
C508 C510 1.327 . S
C508 H533 0.950 . S
C509 C508 1.349 . S
C509 C525 1.349 . S
C510 C508 1.327 . S
C510 C529 1.429 . S
C510 H534 0.950 . S
C511 C528 1.574 . S
C511 C530 1.368 . S
C511 H535 0.949 . S
H512 C516 0.949 . S
C513 C514 1.349 . S
C513 C515 1.327 . S
C513 H536 0.950 . S
C514 C513 1.349 . S
C514 C526 1.349 . S
C515 C513 1.327 . S
C515 C531 1.429 . S
C515 H537 0.950 . S
C516 H512 0.949 . S
C516 C524 1.574 . S
C516 C532 1.368 . S
H517 C525 0.950 . S
H518 C523 0.950 . S
H519 C524 0.949 . S
H520 C526 0.950 . S
H521 C527 0.950 . S
H522 C528 0.949 . S
C523 H518 0.950 . S
C523 C525 1.327 . S
C523 C529 1.429 . S
C524 C516 1.574 . S
C524 H519 0.949 . S
C524 C530 1.368 . S
C525 C509 1.349 . S
C525 H517 0.950 . S
C525 C523 1.327 . S
C526 C514 1.349 . S
C526 H520 0.950 . S
C526 C527 1.327 . S
C527 H521 0.950 . S
C527 C526 1.327 . S
C527 C531 1.429 . S
C528 C511 1.574 . S
C528 H522 0.949 . S
C528 C532 1.368 . S
C529 C510 1.429 . S
C529 C523 1.429 . S
C529 C530 1.523 . S
C530 C511 1.368 . S
C530 C524 1.368 . S
C530 C529 1.523 . S
C531 C515 1.429 . S
C531 C527 1.429 . S
C531 C532 1.523 . S
C532 C516 1.368 . S
C532 C528 1.368 . S
C532 C531 1.523 . S
H533 C508 0.950 . S
H534 C510 0.950 . S
H535 C511 0.949 . S
H536 C513 0.950 . S
H537 C515 0.950 . S
C538 C539 1.349 . S
C538 C540 1.327 . S
C538 H563 0.950 . S
C539 C538 1.349 . S
C539 C555 1.349 . S
C540 C538 1.327 . S
C540 C559 1.429 . S
C540 H564 0.950 . S
C541 C558 1.574 . S
C541 C560 1.368 . S
C541 H565 0.949 . S
H542 C546 0.949 . S
C543 C544 1.349 . S
C543 C545 1.327 . S
C543 H566 0.950 . S
C544 C543 1.349 . S
C544 C556 1.349 . S
C545 C543 1.327 . S
C545 C561 1.429 . S
C545 H567 0.950 . S
C546 H542 0.949 . S
C546 C554 1.574 . S
C546 C562 1.368 . S
H547 C555 0.950 . S
H548 C553 0.950 . S
H549 C554 0.949 . S
H550 C556 0.950 . S
H551 C557 0.950 . S
H552 C558 0.949 . S
C553 H548 0.950 . S
C553 C555 1.327 . S
C553 C559 1.429 . S
C554 C546 1.574 . S
C554 H549 0.949 . S
C554 C560 1.368 . S
C555 C539 1.349 . S
C555 H547 0.950 . S
C555 C553 1.327 . S
C556 C544 1.349 . S
C556 H550 0.950 . S
C556 C557 1.327 . S
C557 H551 0.950 . S
C557 C556 1.327 . S
C557 C561 1.429 . S
C558 C541 1.574 . S
C558 H552 0.949 . S
C558 C562 1.368 . S
C559 C540 1.429 . S
C559 C553 1.429 . S
C559 C560 1.523 . S
C560 C541 1.368 . S
C560 C554 1.368 . S
C560 C559 1.523 . S
C561 C545 1.429 . S
C561 C557 1.429 . S
C561 C562 1.523 . S
C562 C546 1.368 . S
C562 C558 1.368 . S
C562 C561 1.523 . S
H563 C538 0.950 . S
H564 C540 0.950 . S
H565 C541 0.949 . S
H566 C543 0.950 . S
H567 C545 0.950 . S
C568 C569 1.349 . S
C568 C570 1.327 . S
C568 H593 0.950 . S
C569 C568 1.349 . S
C569 C585 1.349 . S
C570 C568 1.327 . S
C570 C589 1.429 . S
C570 H594 0.950 . S
C571 C588 1.574 1_655 S
C571 C590 1.368 . S
C571 H595 0.949 . S
H572 C576 0.949 . S
C573 C574 1.349 . S
C573 C575 1.327 . S
C573 H596 0.950 . S
C574 C573 1.349 . S
C574 C586 1.349 . S
C575 C573 1.327 . S
C575 C591 1.429 . S
C575 H597 0.950 . S
C576 H572 0.949 . S
C576 C584 1.574 1_455 S
C576 C592 1.368 . S
H577 C585 0.950 . S
H578 C583 0.950 . S
H579 C584 0.949 . S
H580 C586 0.950 . S
H581 C587 0.950 . S
H582 C588 0.949 . S
C583 H578 0.950 . S
C583 C585 1.327 . S
C583 C589 1.429 . S
C584 C576 1.574 1_655 S
C584 H579 0.949 . S
C584 C590 1.368 . S
C585 C569 1.349 . S
C585 H577 0.950 . S
C585 C583 1.327 . S
C586 C574 1.349 . S
C586 H580 0.950 . S
C586 C587 1.327 . S
C587 H581 0.950 . S
C587 C586 1.327 . S
C587 C591 1.429 . S
C588 C571 1.574 1_455 S
C588 H582 0.949 . S
C588 C592 1.368 . S
C589 C570 1.429 . S
C589 C583 1.429 . S
C589 C590 1.523 . S
C590 C571 1.368 . S
C590 C584 1.368 . S
C590 C589 1.523 . S
C591 C575 1.429 . S
C591 C587 1.429 . S
C591 C592 1.523 . S
C592 C576 1.368 . S
C592 C588 1.368 . S
C592 C591 1.523 . S
H593 C568 0.950 . S
H594 C570 0.950 . S
H595 C571 0.949 . S
H596 C573 0.950 . S
H597 C575 0.950 . S
C598 C599 1.349 . S
C598 C600 1.327 . S
C598 H623 0.950 . S
C599 C598 1.349 . S
C599 C615 1.349 . S
C600 C598 1.327 . S
C600 C619 1.429 . S
C600 H624 0.950 . S
C601 C618 1.574 . S
C601 C620 1.368 . S
C601 H625 0.949 . S
H602 C606 0.949 . S
C603 C604 1.349 . S
C603 C605 1.327 . S
C603 H626 0.950 . S
C604 C603 1.349 . S
C604 C616 1.349 . S
C605 C603 1.327 . S
C605 C621 1.429 . S
C605 H627 0.950 . S
C606 H602 0.949 . S
C606 C614 1.574 . S
C606 C622 1.368 . S
H607 C615 0.950 . S
H608 C613 0.950 . S
H609 C614 0.949 . S
H610 C616 0.950 . S
H611 C617 0.950 . S
H612 C618 0.949 . S
C613 H608 0.950 . S
C613 C615 1.327 . S
C613 C619 1.429 . S
C614 C606 1.574 . S
C614 H609 0.949 . S
C614 C620 1.368 . S
C615 C599 1.349 . S
C615 H607 0.950 . S
C615 C613 1.327 . S
C616 C604 1.349 . S
C616 H610 0.950 . S
C616 C617 1.327 . S
C617 H611 0.950 . S
C617 C616 1.327 . S
C617 C621 1.429 . S
C618 C601 1.574 . S
C618 H612 0.949 . S
C618 C622 1.368 . S
C619 C600 1.429 . S
C619 C613 1.429 . S
C619 C620 1.523 . S
C620 C601 1.368 . S
C620 C614 1.368 . S
C620 C619 1.523 . S
C621 C605 1.429 . S
C621 C617 1.429 . S
C621 C622 1.523 . S
C622 C606 1.368 . S
C622 C618 1.368 . S
C622 C621 1.523 . S
H623 C598 0.950 . S
H624 C600 0.950 . S
H625 C601 0.949 . S
H626 C603 0.950 . S
H627 C605 0.950 . S
C628 C629 1.349 . S
C628 C630 1.327 . S
C628 H653 0.950 . S
C629 C628 1.349 . S
C629 C645 1.349 . S
C630 C628 1.327 . S
C630 C649 1.429 . S
C630 H654 0.922 1_556 S
C631 C648 1.574 . S
C631 C650 1.368 . S
C631 H655 0.949 . S
H632 C636 0.949 . S
C633 C634 1.349 . S
C633 C635 1.327 . S
C633 H656 0.950 . S
C634 C633 1.349 . S
C634 C646 1.349 . S
C635 C633 1.327 . S
C635 C651 1.429 . S
C635 H657 0.922 1_554 S
C636 H632 0.949 . S
C636 C644 1.574 . S
C636 C652 1.368 . S
H637 C645 0.950 . S
H638 C643 0.950 . S
H639 C644 0.949 . S
H640 C646 0.950 . S
H641 C647 0.950 . S
H642 C648 0.949 . S
C643 H638 0.950 . S
C643 C645 1.327 . S
C643 C649 1.429 . S
C644 C636 1.574 . S
C644 H639 0.949 . S
C644 C650 1.368 1_554 S
C645 C629 1.349 . S
C645 H637 0.950 . S
C645 C643 1.327 . S
C646 C634 1.349 . S
C646 H640 0.950 . S
C646 C647 1.327 . S
C647 H641 0.950 . S
C647 C646 1.327 . S
C647 C651 1.429 . S
C648 C631 1.574 . S
C648 H642 0.949 . S
C648 C652 1.368 1_556 S
C649 C630 1.429 . S
C649 C643 1.429 . S
C649 C650 1.523 . S
C650 C631 1.368 . S
C650 C644 1.368 1_556 S
C650 C649 1.523 . S
C651 C635 1.429 . S
C651 C647 1.429 . S
C651 C652 1.523 . S
C652 C636 1.368 . S
C652 C648 1.368 1_554 S
C652 C651 1.523 . S
H653 C628 0.950 . S
H654 C630 0.922 1_554 S
H655 C631 0.949 . S
H656 C633 0.950 . S
H657 C635 0.922 1_556 S
C658 C659 1.349 . S
C658 C660 1.327 . S
C658 H683 0.950 . S
C659 C658 1.349 . S
C659 C675 1.349 . S
C660 C658 1.327 . S
C660 C679 1.429 . S
C660 H684 0.950 . S
C661 C678 1.574 . S
C661 C680 1.368 . S
C661 H685 0.949 . S
H662 C666 0.949 . S
C663 C664 1.349 . S
C663 C665 1.327 . S
C663 H686 0.950 . S
C664 C663 1.349 . S
C664 C676 1.349 . S
C665 C663 1.327 . S
C665 C681 1.429 . S
C665 H687 0.950 . S
C666 H662 0.949 . S
C666 C674 1.574 . S
C666 C682 1.368 . S
H667 C675 0.950 . S
H668 C673 0.950 . S
H669 C674 0.949 . S
H670 C676 0.950 . S
H671 C677 0.950 . S
H672 C678 0.949 . S
C673 H668 0.950 . S
C673 C675 1.327 . S
C673 C679 1.429 . S
C674 C666 1.574 . S
C674 H669 0.949 . S
C674 C680 1.368 . S
C675 C659 1.349 . S
C675 H667 0.950 . S
C675 C673 1.327 . S
C676 C664 1.349 . S
C676 H670 0.950 . S
C676 C677 1.327 . S
C677 H671 0.950 . S
C677 C676 1.327 . S
C677 C681 1.429 . S
C678 C661 1.574 . S
C678 H672 0.949 . S
C678 C682 1.368 . S
C679 C660 1.429 . S
C679 C673 1.429 . S
C679 C680 1.523 . S
C680 C661 1.368 . S
C680 C674 1.368 . S
C680 C679 1.523 . S
C681 C665 1.429 . S
C681 C677 1.429 . S
C681 C682 1.523 . S
C682 C666 1.368 . S
C682 C678 1.368 . S
C682 C681 1.523 . S
H683 C658 0.950 . S
H684 C660 0.950 . S
H685 C661 0.949 . S
H686 C663 0.950 . S
H687 C665 0.950 . S
C688 C689 1.349 . S
C688 C690 1.327 . S
C688 H713 0.950 . S
C689 C688 1.349 . S
C689 C705 1.349 . S
C690 C688 1.327 . S
C690 C709 1.429 . S
C690 H714 0.950 . S
C691 C708 1.574 . S
C691 C710 1.368 . S
C691 H715 0.949 . S
H692 C696 0.949 . S
C693 C694 1.349 . S
C693 C695 1.327 . S
C693 H716 0.950 . S
C694 C693 1.349 . S
C694 C706 1.349 . S
C695 C693 1.327 . S
C695 C711 1.429 . S
C695 H717 0.950 . S
C696 H692 0.949 . S
C696 C704 1.574 . S
C696 C712 1.368 . S
H697 C705 0.950 . S
H698 C703 0.950 . S
H699 C704 0.949 . S
H700 C706 0.950 . S
H701 C707 0.950 . S
H702 C708 0.949 . S
C703 H698 0.950 . S
C703 C705 1.327 . S
C703 C709 1.429 . S
C704 C696 1.574 . S
C704 H699 0.949 . S
C704 C710 1.368 . S
C705 C689 1.349 . S
C705 H697 0.950 . S
C705 C703 1.327 . S
C706 C694 1.349 . S
C706 H700 0.950 . S
C706 C707 1.327 . S
C707 H701 0.950 . S
C707 C706 1.327 . S
C707 C711 1.429 . S
C708 C691 1.574 . S
C708 H702 0.949 . S
C708 C712 1.368 . S
C709 C690 1.429 . S
C709 C703 1.429 . S
C709 C710 1.523 . S
C710 C691 1.368 . S
C710 C704 1.368 . S
C710 C709 1.523 . S
C711 C695 1.429 . S
C711 C707 1.429 . S
C711 C712 1.523 . S
C712 C696 1.368 . S
C712 C708 1.368 . S
C712 C711 1.523 . S
H713 C688 0.950 . S
H714 C690 0.950 . S
H715 C691 0.949 . S
H716 C693 0.950 . S
H717 C695 0.950 . S
C718 C719 1.349 . S
C718 C720 1.327 . S
C718 H743 0.950 . S
C719 C718 1.349 . S
C719 C735 1.349 . S
C720 C718 1.327 . S
C720 C739 1.429 . S
C720 H744 0.950 . S
C721 C738 1.574 . S
C721 C740 1.368 . S
C721 H745 0.949 . S
H722 C726 0.949 . S
C723 C724 1.349 . S
C723 C725 1.327 . S
C723 H746 0.950 . S
C724 C723 1.349 . S
C724 C736 1.349 . S
C725 C723 1.327 . S
C725 C741 1.429 . S
C725 H747 0.950 . S
C726 H722 0.949 . S
C726 C734 1.574 . S
C726 C742 1.368 . S
H727 C735 0.950 . S
H728 C733 0.950 . S
H729 C734 0.949 . S
H730 C736 0.950 . S
H731 C737 0.950 . S
H732 C738 0.949 . S
C733 H728 0.950 . S
C733 C735 1.327 . S
C733 C739 1.429 . S
C734 C726 1.574 . S
C734 H729 0.949 . S
C734 C740 1.368 . S
C735 C719 1.349 . S
C735 H727 0.950 . S
C735 C733 1.327 . S
C736 C724 1.349 . S
C736 H730 0.950 . S
C736 C737 1.327 . S
C737 H731 0.950 . S
C737 C736 1.327 . S
C737 C741 1.429 . S
C738 C721 1.574 . S
C738 H732 0.949 . S
C738 C742 1.368 . S
C739 C720 1.429 . S
C739 C733 1.429 . S
C739 C740 1.523 . S
C740 C721 1.368 . S
C740 C734 1.368 . S
C740 C739 1.523 . S
C741 C725 1.429 . S
C741 C737 1.429 . S
C741 C742 1.523 . S
C742 C726 1.368 . S
C742 C738 1.368 . S
C742 C741 1.523 . S
H743 C718 0.950 . S
H744 C720 0.950 . S
H745 C721 0.949 . S
H746 C723 0.950 . S
H747 C725 0.950 . S
C748 C749 1.349 . S
C748 C750 1.327 . S
C748 H773 0.950 . S
C749 C748 1.349 . S
C749 C765 1.349 . S
C750 C748 1.327 . S
C750 C769 1.429 . S
C750 H774 0.950 . S
C751 C768 1.574 . S
C751 C770 1.368 . S
C751 H775 0.949 . S
H752 C756 0.949 . S
C753 C754 1.349 . S
C753 C755 1.327 . S
C753 H776 0.950 . S
C754 C753 1.349 . S
C754 C766 1.349 . S
C755 C753 1.327 . S
C755 C771 1.429 . S
C755 H777 0.950 . S
C756 H752 0.949 . S
C756 C764 1.574 . S
C756 C772 1.368 . S
H757 C765 0.950 . S
H758 C763 0.950 . S
H759 C764 0.949 . S
H760 C766 0.950 . S
H761 C767 0.950 . S
H762 C768 0.949 . S
C763 H758 0.950 . S
C763 C765 1.327 . S
C763 C769 1.429 . S
C764 C756 1.574 . S
C764 H759 0.949 . S
C764 C770 1.368 . S
C765 C749 1.349 . S
C765 H757 0.950 . S
C765 C763 1.327 . S
C766 C754 1.349 . S
C766 H760 0.950 . S
C766 C767 1.327 . S
C767 H761 0.950 . S
C767 C766 1.327 . S
C767 C771 1.429 . S
C768 C751 1.574 . S
C768 H762 0.949 . S
C768 C772 1.368 . S
C769 C750 1.429 . S
C769 C763 1.429 . S
C769 C770 1.523 . S
C770 C751 1.368 . S
C770 C764 1.368 . S
C770 C769 1.523 . S
C771 C755 1.429 . S
C771 C767 1.429 . S
C771 C772 1.523 . S
C772 C756 1.368 . S
C772 C768 1.368 . S
C772 C771 1.523 . S
H773 C748 0.950 . S
H774 C750 0.950 . S
H775 C751 0.949 . S
H776 C753 0.950 . S
H777 C755 0.950 . S
C778 C779 1.349 . S
C778 C780 1.327 . S
C778 H803 0.950 . S
C779 C778 1.349 . S
C779 C795 1.349 . S
C780 C778 1.327 . S
C780 C799 1.429 . S
C780 H804 0.950 . S
C781 C798 1.574 . S
C781 C800 1.368 . S
C781 H805 0.949 . S
H782 C786 0.949 . S
C783 C784 1.349 . S
C783 C785 1.327 . S
C783 H806 0.950 . S
C784 C783 1.349 . S
C784 C796 1.349 . S
C785 C783 1.327 . S
C785 C801 1.429 . S
C785 H807 0.950 . S
C786 H782 0.949 . S
C786 C794 1.574 . S
C786 C802 1.368 . S
H787 C795 0.950 . S
H788 C793 0.950 . S
H789 C794 0.949 . S
H790 C796 0.950 . S
H791 C797 0.950 . S
H792 C798 0.949 . S
C793 H788 0.950 . S
C793 C795 1.327 . S
C793 C799 1.429 . S
C794 C786 1.574 . S
C794 H789 0.949 . S
C794 C800 1.368 . S
C795 C779 1.349 . S
C795 H787 0.950 . S
C795 C793 1.327 . S
C796 C784 1.349 . S
C796 H790 0.950 . S
C796 C797 1.327 . S
C797 H791 0.950 . S
C797 C796 1.327 . S
C797 C801 1.429 . S
C798 C781 1.574 . S
C798 H792 0.949 . S
C798 C802 1.368 . S
C799 C780 1.429 . S
C799 C793 1.429 . S
C799 C800 1.523 . S
C800 C781 1.368 . S
C800 C794 1.368 . S
C800 C799 1.523 . S
C801 C785 1.429 . S
C801 C797 1.429 . S
C801 C802 1.523 . S
C802 C786 1.368 . S
C802 C798 1.368 . S
C802 C801 1.523 . S
H803 C778 0.950 . S
H804 C780 0.950 . S
H805 C781 0.949 . S
H806 C783 0.950 . S
H807 C785 0.950 . S
C808 C809 1.349 . S
C808 C810 1.327 . S
C808 H833 0.950 . S
C809 C808 1.349 . S
C809 C825 1.349 . S
C810 C808 1.327 . S
C810 C829 1.429 . S
C810 H834 0.950 . S
C811 C828 1.574 1_565 S
C811 C830 1.368 . S
C811 H835 0.949 . S
H812 C816 0.949 . S
C813 C814 1.349 . S
C813 C815 1.327 . S
C813 H836 0.950 . S
C814 C813 1.349 . S
C814 C826 1.349 . S
C815 C813 1.327 . S
C815 C831 1.429 . S
C815 H837 0.950 . S
C816 H812 0.949 . S
C816 C824 1.574 1_545 S
C816 C832 1.368 . S
H817 C825 0.950 . S
H818 C823 0.950 . S
H819 C824 0.949 . S
H820 C826 0.950 . S
H821 C827 0.950 . S
H822 C828 0.949 . S
C823 H818 0.950 . S
C823 C825 1.327 . S
C823 C829 1.429 . S
C824 C816 1.574 1_565 S
C824 H819 0.949 . S
C824 C830 1.368 . S
C825 C809 1.349 . S
C825 H817 0.950 . S
C825 C823 1.327 . S
C826 C814 1.349 . S
C826 H820 0.950 . S
C826 C827 1.327 . S
C827 H821 0.950 . S
C827 C826 1.327 . S
C827 C831 1.429 . S
C828 C811 1.574 1_545 S
C828 H822 0.949 . S
C828 C832 1.368 . S
C829 C810 1.429 . S
C829 C823 1.429 . S
C829 C830 1.523 . S
C830 C811 1.368 . S
C830 C824 1.368 . S
C830 C829 1.523 . S
C831 C815 1.429 . S
C831 C827 1.429 . S
C831 C832 1.523 . S
C832 C816 1.368 . S
C832 C828 1.368 . S
C832 C831 1.523 . S
H833 C808 0.950 . S
H834 C810 0.950 . S
H835 C811 0.949 . S
H836 C813 0.950 . S
H837 C815 0.950 . S
C838 C839 1.349 . S
C838 C840 1.327 . S
C838 H863 0.950 . S
C839 C838 1.349 . S
C839 C855 1.349 . S
C840 C838 1.327 . S
C840 C859 1.429 . S
C840 H864 0.950 1_556 S
C841 C858 1.574 1_455 S
C841 C860 1.368 1_545 S
C841 H865 0.949 . S
H842 C846 0.949 . S
C843 C844 1.349 . S
C843 C845 1.327 . S
C843 H866 0.950 . S
C844 C843 1.349 . S
C844 C856 1.349 . S
C845 C843 1.327 . S
C845 C861 1.429 . S
C845 H867 0.950 1_554 S
C846 H842 0.949 . S
C846 C854 1.574 1_655 S
C846 C862 1.368 1_565 S
H847 C855 0.950 . S
H848 C853 0.950 . S
H849 C854 0.949 . S
H850 C856 0.950 . S
H851 C857 0.950 . S
H852 C858 0.949 . S
C853 H848 0.950 . S
C853 C855 1.327 . S
C853 C859 1.429 . S
C854 C846 1.574 1_455 S
C854 H849 0.949 . S
C854 C860 1.368 1_554 S
C855 C839 1.349 . S
C855 H847 0.950 . S
C855 C853 1.327 . S
C856 C844 1.349 . S
C856 H850 0.950 . S
C856 C857 1.327 . S
C857 H851 0.950 . S
C857 C856 1.327 . S
C857 C861 1.429 . S
C858 C841 1.574 1_655 S
C858 H852 0.949 . S
C858 C862 1.368 1_556 S
C859 C840 1.429 . S
C859 C853 1.429 . S
C859 C860 1.523 . S
C860 C841 1.368 1_565 S
C860 C854 1.368 1_556 S
C860 C859 1.523 . S
C861 C845 1.429 . S
C861 C857 1.429 . S
C861 C862 1.523 . S
C862 C846 1.368 1_545 S
C862 C858 1.368 1_554 S
C862 C861 1.523 . S
H863 C838 0.950 . S
H864 C840 0.950 1_554 S
H865 C841 0.949 . S
H866 C843 0.950 . S
H867 C845 0.950 1_556 S
C868 C869 1.349 . S
C868 C870 1.327 . S
C868 H893 0.950 . S
C869 C868 1.349 . S
C869 C885 1.349 . S
C870 C868 1.327 . S
C870 C889 1.429 . S
C870 H894 0.950 . S
C871 C888 1.574 1_545 S
C871 C890 1.368 1_554 S
C871 H895 0.949 . S
H872 C876 0.949 . S
C873 C874 1.349 . S
C873 C875 1.327 . S
C873 H896 0.950 . S
C874 C873 1.349 . S
C874 C886 1.349 . S
C875 C873 1.327 . S
C875 C891 1.429 . S
C875 H897 0.950 . S
C876 H872 0.949 . S
C876 C884 1.574 1_565 S
C876 C892 1.368 1_556 S
H877 C885 0.950 . S
H878 C883 0.950 1_554 S
H879 C884 0.949 . S
H880 C886 0.950 . S
H881 C887 0.950 1_556 S
H882 C888 0.949 . S
C883 H878 0.950 1_556 S
C883 C885 1.327 . S
C883 C889 1.429 . S
C884 C876 1.574 1_545 S
C884 H879 0.949 . S
C884 C890 1.368 . S
C885 C869 1.349 . S
C885 H877 0.950 . S
C885 C883 1.327 . S
C886 C874 1.349 . S
C886 H880 0.950 . S
C886 C887 1.327 . S
C887 H881 0.950 1_554 S
C887 C886 1.327 . S
C887 C891 1.429 . S
C888 C871 1.574 1_565 S
C888 H882 0.949 . S
C888 C892 1.368 . S
C889 C870 1.429 . S
C889 C883 1.429 . S
C889 C890 1.523 . S
C890 C871 1.368 1_556 S
C890 C884 1.368 . S
C890 C889 1.523 . S
C891 C875 1.429 . S
C891 C887 1.429 . S
C891 C892 1.523 . S
C892 C876 1.368 1_554 S
C892 C888 1.368 . S
C892 C891 1.523 . S
H893 C868 0.950 . S
H894 C870 0.950 . S
H895 C871 0.949 . S
H896 C873 0.950 . S
H897 C875 0.950 . S
C898 C899 1.349 . S
C898 C900 1.327 . S
C898 H923 0.950 . S
C899 C898 1.349 . S
C899 C915 1.349 . S
C900 C898 1.327 . S
C900 C919 1.429 . S
C900 H924 0.950 . S
C901 C918 1.574 1_545 S
C901 C920 1.368 . S
C901 H925 0.949 . S
H902 C906 0.949 . S
C903 C904 1.349 . S
C903 C905 1.327 . S
C903 H926 0.950 . S
C904 C903 1.349 . S
C904 C916 1.349 . S
C905 C903 1.327 . S
C905 C921 1.429 . S
C905 H927 0.950 . S
C906 H902 0.949 . S
C906 C914 1.574 1_565 S
C906 C922 1.368 . S
H907 C915 0.950 . S
H908 C913 0.950 . S
H909 C914 0.949 . S
H910 C916 0.950 . S
H911 C917 0.950 . S
H912 C918 0.949 . S
C913 H908 0.950 . S
C913 C915 1.327 . S
C913 C919 1.429 . S
C914 C906 1.574 1_545 S
C914 H909 0.949 . S
C914 C920 1.368 1_655 S
C915 C899 1.349 . S
C915 H907 0.950 . S
C915 C913 1.327 . S
C916 C904 1.349 . S
C916 H910 0.950 . S
C916 C917 1.327 . S
C917 H911 0.950 . S
C917 C916 1.327 . S
C917 C921 1.429 . S
C918 C901 1.574 1_565 S
C918 H912 0.949 . S
C918 C922 1.368 1_455 S
C919 C900 1.429 . S
C919 C913 1.429 . S
C919 C920 1.523 . S
C920 C901 1.368 . S
C920 C914 1.368 1_455 S
C920 C919 1.523 . S
C921 C905 1.429 . S
C921 C917 1.429 . S
C921 C922 1.523 . S
C922 C906 1.368 . S
C922 C918 1.368 1_655 S
C922 C921 1.523 . S
H923 C898 0.950 . S
H924 C900 0.950 . S
H925 C901 0.949 . S
H926 C903 0.950 . S
H927 C905 0.950 . S
C928 C929 1.349 . S
C928 C930 1.327 . S
C928 H953 0.950 . S
C929 C928 1.349 . S
C929 C945 1.349 . S
C930 C928 1.327 . S
C930 C949 1.429 . S
C930 H954 0.950 . S
C931 C948 1.574 . S
C931 C950 1.368 1_455 S
C931 H955 0.949 . S
H932 C936 0.949 . S
C933 C934 1.349 . S
C933 C935 1.327 . S
C933 H956 0.950 . S
C934 C933 1.349 . S
C934 C946 1.349 . S
C935 C933 1.327 . S
C935 C951 1.429 . S
C935 H957 0.950 . S
C936 H932 0.949 . S
C936 C944 1.574 . S
C936 C952 1.368 1_655 S
H937 C945 0.950 . S
H938 C943 0.950 . S
H939 C944 0.949 . S
H940 C946 0.950 . S
H941 C947 0.950 . S
H942 C948 0.949 . S
C943 H938 0.950 . S
C943 C945 1.327 . S
C943 C949 1.429 . S
C944 C936 1.574 . S
C944 H939 0.949 . S
C944 C950 1.368 . S
C945 C929 1.349 . S
C945 H937 0.950 . S
C945 C943 1.327 . S
C946 C934 1.349 . S
C946 H940 0.950 . S
C946 C947 1.327 . S
C947 H941 0.950 . S
C947 C946 1.327 . S
C947 C951 1.429 . S
C948 C931 1.574 . S
C948 H942 0.949 . S
C948 C952 1.368 . S
C949 C930 1.429 . S
C949 C943 1.429 . S
C949 C950 1.523 . S
C950 C931 1.368 1_655 S
C950 C944 1.368 . S
C950 C949 1.523 . S
C951 C935 1.429 . S
C951 C947 1.429 . S
C951 C952 1.523 . S
C952 C936 1.368 1_455 S
C952 C948 1.368 . S
C952 C951 1.523 . S
H953 C928 0.950 . S
H954 C930 0.950 . S
H955 C931 0.949 . S
H956 C933 0.950 . S
H957 C935 0.950 . S
C958 C959 1.349 . S
C958 C960 1.327 . S
C958 H983 0.950 . S
C959 C958 1.349 . S
C959 C975 1.349 . S
C960 C958 1.327 . S
C960 C979 1.429 . S
C960 H984 0.950 . S
C961 C978 1.574 1_455 S
C961 C980 1.368 . S
C961 H985 0.949 . S
H962 C966 0.949 . S
C963 C964 1.349 . S
C963 C965 1.327 . S
C963 H986 0.950 . S
C964 C963 1.349 . S
C964 C976 1.349 . S
C965 C963 1.327 . S
C965 C981 1.429 . S
C965 H987 0.950 . S
C966 H962 0.949 . S
C966 C974 1.574 1_655 S
C966 C982 1.368 . S
H967 C975 0.950 . S
H968 C973 0.950 . S
H969 C974 0.949 . S
H970 C976 0.950 . S
H971 C977 0.950 . S
H972 C978 0.949 . S
C973 H968 0.950 . S
C973 C975 1.327 . S
C973 C979 1.429 . S
C974 C966 1.574 1_455 S
C974 H969 0.949 . S
C974 C980 1.368 . S
C975 C959 1.349 . S
C975 H967 0.950 . S
C975 C973 1.327 . S
C976 C964 1.349 . S
C976 H970 0.950 . S
C976 C977 1.327 . S
C977 H971 0.950 . S
C977 C976 1.327 . S
C977 C981 1.429 . S
C978 C961 1.574 1_655 S
C978 H972 0.949 . S
C978 C982 1.368 . S
C979 C960 1.429 . S
C979 C973 1.429 . S
C979 C980 1.523 . S
C980 C961 1.368 . S
C980 C974 1.368 . S
C980 C979 1.523 . S
C981 C965 1.429 . S
C981 C977 1.429 . S
C981 C982 1.523 . S
C982 C966 1.368 . S
C982 C978 1.368 . S
C982 C981 1.523 . S
H983 C958 0.950 . S
H984 C960 0.950 . S
H985 C961 0.949 . S
H986 C963 0.950 . S
H987 C965 0.950 . S
C988 C989 1.349 . S
C988 C990 1.327 . S
C988 H1013 0.950 . S
C989 C988 1.349 . S
C989 C1005 1.349 . S
C990 C988 1.327 . S
C990 C1009 1.429 . S
C990 H1014 0.950 . S
C991 C1008 1.574 . S
C991 C1010 1.368 . S
C991 H1015 0.949 . S
H992 C996 0.949 . S
C993 C994 1.349 . S
C993 C995 1.327 . S
C993 H1016 0.950 . S
C994 C993 1.349 . S
C994 C1006 1.349 . S
C995 C993 1.327 . S
C995 C1011 1.429 . S
C995 H1017 0.950 . S
C996 H992 0.949 . S
C996 C1004 1.574 . S
C996 C1012 1.368 . S
H997 C1005 0.950 . S
H998 C1003 0.950 . S
H999 C1004 0.949 . S
H1000 C1006 0.950 . S
H1001 C1007 0.950 . S
H1002 C1008 0.949 . S
C1003 H998 0.950 . S
C1003 C1005 1.327 . S
C1003 C1009 1.429 . S
C1004 C996 1.574 . S
C1004 H999 0.949 . S
C1004 C1010 1.368 . S
C1005 C989 1.349 . S
C1005 H997 0.950 . S
C1005 C1003 1.327 . S
C1006 C994 1.349 . S
C1006 H1000 0.950 . S
C1006 C1007 1.327 . S
C1007 H1001 0.950 . S
C1007 C1006 1.327 . S
C1007 C1011 1.429 . S
C1008 C991 1.574 . S
C1008 H1002 0.949 . S
C1008 C1012 1.368 . S
C1009 C990 1.429 . S
C1009 C1003 1.429 . S
C1009 C1010 1.523 . S
C1010 C991 1.368 . S
C1010 C1004 1.368 . S
C1010 C1009 1.523 . S
C1011 C995 1.429 . S
C1011 C1007 1.429 . S
C1011 C1012 1.523 . S
C1012 C996 1.368 . S
C1012 C1008 1.368 . S
C1012 C1011 1.523 . S
H1013 C988 0.950 . S
H1014 C990 0.950 . S
H1015 C991 0.949 . S
H1016 C993 0.950 . S
H1017 C995 0.950 . S
C1018 C1019 1.349 . S
C1018 C1020 1.327 . S
C1018 H1043 0.950 . S
C1019 C1018 1.349 . S
C1019 C1035 1.349 . S
C1020 C1018 1.327 . S
C1020 C1039 1.429 . S
C1020 H1044 0.950 . S
C1021 C1038 1.574 . S
C1021 C1040 1.368 . S
C1021 H1045 0.949 . S
H1022 C1026 0.949 . S
C1023 C1024 1.349 . S
C1023 C1025 1.327 . S
C1023 H1046 0.950 . S
C1024 C1023 1.349 . S
C1024 C1036 1.349 . S
C1025 C1023 1.327 . S
C1025 C1041 1.429 . S
C1025 H1047 0.950 . S
C1026 H1022 0.949 . S
C1026 C1034 1.574 . S
C1026 C1042 1.368 . S
H1027 C1035 0.950 . S
H1028 C1033 0.950 . S
H1029 C1034 0.949 . S
H1030 C1036 0.950 . S
H1031 C1037 0.950 . S
H1032 C1038 0.949 . S
C1033 H1028 0.950 . S
C1033 C1035 1.327 . S
C1033 C1039 1.429 . S
C1034 C1026 1.574 . S
C1034 H1029 0.949 . S
C1034 C1040 1.368 . S
C1035 C1019 1.349 . S
C1035 H1027 0.950 . S
C1035 C1033 1.327 . S
C1036 C1024 1.349 . S
C1036 H1030 0.950 . S
C1036 C1037 1.327 . S
C1037 H1031 0.950 . S
C1037 C1036 1.327 . S
C1037 C1041 1.429 . S
C1038 C1021 1.574 . S
C1038 H1032 0.949 . S
C1038 C1042 1.368 . S
C1039 C1020 1.429 . S
C1039 C1033 1.429 . S
C1039 C1040 1.523 . S
C1040 C1021 1.368 . S
C1040 C1034 1.368 . S
C1040 C1039 1.523 . S
C1041 C1025 1.429 . S
C1041 C1037 1.429 . S
C1041 C1042 1.523 . S
C1042 C1026 1.368 . S
C1042 C1038 1.368 . S
C1042 C1041 1.523 . S
H1043 C1018 0.950 . S
H1044 C1020 0.950 . S
H1045 C1021 0.949 . S
H1046 C1023 0.950 . S
H1047 C1025 0.950 . S
C1048 C1049 1.349 . S
C1048 C1050 1.327 . S
C1048 H1073 0.950 . S
C1049 C1048 1.349 . S
C1049 C1065 1.349 . S
C1050 C1048 1.327 . S
C1050 C1069 1.429 . S
C1050 H1074 0.950 . S
C1051 C1068 1.574 . S
C1051 C1070 1.368 1_455 S
C1051 H1075 0.949 . S
H1052 C1056 0.949 . S
C1053 C1054 1.349 . S
C1053 C1055 1.327 . S
C1053 H1076 0.950 . S
C1054 C1053 1.349 . S
C1054 C1066 1.349 . S
C1055 C1053 1.327 . S
C1055 C1071 1.429 . S
C1055 H1077 0.950 . S
C1056 H1052 0.949 . S
C1056 C1064 1.574 . S
C1056 C1072 1.368 1_655 S
H1057 C1065 0.950 . S
H1058 C1063 0.950 . S
H1059 C1064 0.949 . S
H1060 C1066 0.950 . S
H1061 C1067 0.950 . S
H1062 C1068 0.949 . S
C1063 H1058 0.950 . S
C1063 C1065 1.327 . S
C1063 C1069 1.429 . S
C1064 C1056 1.574 . S
C1064 H1059 0.949 . S
C1064 C1070 1.368 . S
C1065 C1049 1.349 . S
C1065 H1057 0.950 . S
C1065 C1063 1.327 . S
C1066 C1054 1.349 . S
C1066 H1060 0.950 . S
C1066 C1067 1.327 . S
C1067 H1061 0.950 . S
C1067 C1066 1.327 . S
C1067 C1071 1.429 . S
C1068 C1051 1.574 . S
C1068 H1062 0.949 . S
C1068 C1072 1.368 . S
C1069 C1050 1.429 . S
C1069 C1063 1.429 . S
C1069 C1070 1.523 . S
C1070 C1051 1.368 1_655 S
C1070 C1064 1.368 . S
C1070 C1069 1.523 . S
C1071 C1055 1.429 . S
C1071 C1067 1.429 . S
C1071 C1072 1.523 . S
C1072 C1056 1.368 1_455 S
C1072 C1068 1.368 . S
C1072 C1071 1.523 . S
H1073 C1048 0.950 . S
H1074 C1050 0.950 . S
H1075 C1051 0.949 . S
H1076 C1053 0.950 . S
H1077 C1055 0.950 . S
C1078 C1079 1.349 . S
C1078 C1080 1.327 . S
C1078 H1103 0.950 . S
C1079 C1078 1.349 . S
C1079 C1095 1.349 . S
C1080 C1078 1.327 . S
C1080 C1099 1.429 . S
C1080 H1104 0.950 . S
C1081 C1098 1.574 . S
C1081 C1100 1.368 . S
C1081 H1105 0.949 . S
H1082 C1086 0.949 . S
C1083 C1084 1.349 . S
C1083 C1085 1.327 . S
C1083 H1106 0.950 . S
C1084 C1083 1.349 . S
C1084 C1096 1.349 . S
C1085 C1083 1.327 . S
C1085 C1101 1.429 . S
C1085 H1107 0.950 . S
C1086 H1082 0.949 . S
C1086 C1094 1.574 . S
C1086 C1102 1.368 . S
H1087 C1095 0.950 . S
H1088 C1093 0.950 . S
H1089 C1094 0.949 . S
H1090 C1096 0.950 . S
H1091 C1097 0.950 . S
H1092 C1098 0.949 . S
C1093 H1088 0.950 . S
C1093 C1095 1.327 . S
C1093 C1099 1.429 . S
C1094 C1086 1.574 . S
C1094 H1089 0.949 . S
C1094 C1100 1.368 . S
C1095 C1079 1.349 . S
C1095 H1087 0.950 . S
C1095 C1093 1.327 . S
C1096 C1084 1.349 . S
C1096 H1090 0.950 . S
C1096 C1097 1.327 . S
C1097 H1091 0.950 . S
C1097 C1096 1.327 . S
C1097 C1101 1.429 . S
C1098 C1081 1.574 . S
C1098 H1092 0.949 . S
C1098 C1102 1.368 . S
C1099 C1080 1.429 . S
C1099 C1093 1.429 . S
C1099 C1100 1.523 . S
C1100 C1081 1.368 . S
C1100 C1094 1.368 . S
C1100 C1099 1.523 . S
C1101 C1085 1.429 . S
C1101 C1097 1.429 . S
C1101 C1102 1.523 . S
C1102 C1086 1.368 . S
C1102 C1098 1.368 . S
C1102 C1101 1.523 . S
H1103 C1078 0.950 . S
H1104 C1080 0.950 . S
H1105 C1081 0.949 . S
H1106 C1083 0.950 . S
H1107 C1085 0.950 . S
C1108 C1109 1.349 . S
C1108 C1110 1.327 . S
C1108 H1133 0.950 . S
C1109 C1108 1.349 . S
C1109 C1125 1.349 . S
C1110 C1108 1.327 . S
C1110 C1129 1.429 . S
C1110 H1134 0.950 . S
C1111 C1128 1.574 . S
C1111 C1130 1.368 . S
C1111 H1135 0.949 . S
H1112 C1116 0.949 . S
C1113 C1114 1.349 . S
C1113 C1115 1.327 . S
C1113 H1136 0.950 . S
C1114 C1113 1.349 . S
C1114 C1126 1.349 . S
C1115 C1113 1.327 . S
C1115 C1131 1.429 . S
C1115 H1137 0.950 . S
C1116 H1112 0.949 . S
C1116 C1124 1.574 . S
C1116 C1132 1.368 . S
H1117 C1125 0.950 . S
H1118 C1123 0.950 . S
H1119 C1124 0.949 . S
H1120 C1126 0.950 . S
H1121 C1127 0.950 . S
H1122 C1128 0.949 . S
C1123 H1118 0.950 . S
C1123 C1125 1.327 . S
C1123 C1129 1.429 . S
C1124 C1116 1.574 . S
C1124 H1119 0.949 . S
C1124 C1130 1.368 . S
C1125 C1109 1.349 . S
C1125 H1117 0.950 . S
C1125 C1123 1.327 . S
C1126 C1114 1.349 . S
C1126 H1120 0.950 . S
C1126 C1127 1.327 . S
C1127 H1121 0.950 . S
C1127 C1126 1.327 . S
C1127 C1131 1.429 . S
C1128 C1111 1.574 . S
C1128 H1122 0.949 . S
C1128 C1132 1.368 . S
C1129 C1110 1.429 . S
C1129 C1123 1.429 . S
C1129 C1130 1.523 . S
C1130 C1111 1.368 . S
C1130 C1124 1.368 . S
C1130 C1129 1.523 . S
C1131 C1115 1.429 . S
C1131 C1127 1.429 . S
C1131 C1132 1.523 . S
C1132 C1116 1.368 . S
C1132 C1128 1.368 . S
C1132 C1131 1.523 . S
H1133 C1108 0.950 . S
H1134 C1110 0.950 . S
H1135 C1111 0.949 . S
H1136 C1113 0.950 . S
H1137 C1115 0.950 . S
C1138 C1139 1.349 . S
C1138 C1140 1.327 . S
C1138 H1163 0.950 . S
C1139 C1138 1.349 . S
C1139 C1155 1.349 . S
C1140 C1138 1.327 . S
C1140 C1159 1.429 . S
C1140 H1164 0.950 . S
C1141 C1158 1.574 1_455 S
C1141 C1160 1.368 . S
C1141 H1165 0.949 . S
H1142 C1146 0.949 . S
C1143 C1144 1.349 . S
C1143 C1145 1.327 . S
C1143 H1166 0.950 . S
C1144 C1143 1.349 . S
C1144 C1156 1.349 . S
C1145 C1143 1.327 . S
C1145 C1161 1.429 . S
C1145 H1167 0.950 . S
C1146 H1142 0.949 . S
C1146 C1154 1.574 1_655 S
C1146 C1162 1.368 . S
H1147 C1155 0.950 . S
H1148 C1153 0.950 . S
H1149 C1154 0.949 . S
H1150 C1156 0.950 . S
H1151 C1157 0.950 . S
H1152 C1158 0.949 . S
C1153 H1148 0.950 . S
C1153 C1155 1.327 . S
C1153 C1159 1.429 . S
C1154 C1146 1.574 1_455 S
C1154 H1149 0.949 . S
C1154 C1160 1.368 . S
C1155 C1139 1.349 . S
C1155 H1147 0.950 . S
C1155 C1153 1.327 . S
C1156 C1144 1.349 . S
C1156 H1150 0.950 . S
C1156 C1157 1.327 . S
C1157 H1151 0.950 . S
C1157 C1156 1.327 . S
C1157 C1161 1.429 . S
C1158 C1141 1.574 1_655 S
C1158 H1152 0.949 . S
C1158 C1162 1.368 . S
C1159 C1140 1.429 . S
C1159 C1153 1.429 . S
C1159 C1160 1.523 . S
C1160 C1141 1.368 . S
C1160 C1154 1.368 . S
C1160 C1159 1.523 . S
C1161 C1145 1.429 . S
C1161 C1157 1.429 . S
C1161 C1162 1.523 . S
C1162 C1146 1.368 . S
C1162 C1158 1.368 . S
C1162 C1161 1.523 . S
H1163 C1138 0.950 . S
H1164 C1140 0.950 . S
H1165 C1141 0.949 . S
H1166 C1143 0.950 . S
H1167 C1145 0.950 . S
C1168 C1169 1.349 . S
C1168 C1170 1.327 . S
C1168 H1193 0.950 . S
C1169 C1168 1.349 . S
C1169 C1185 1.349 . S
C1170 C1168 1.327 . S
C1170 C1189 1.429 . S
C1170 H1194 0.950 . S
C1171 C1188 1.574 . S
C1171 C1190 1.368 . S
C1171 H1195 0.949 . S
H1172 C1176 0.949 . S
C1173 C1174 1.349 . S
C1173 C1175 1.327 . S
C1173 H1196 0.950 . S
C1174 C1173 1.349 . S
C1174 C1186 1.349 . S
C1175 C1173 1.327 . S
C1175 C1191 1.429 . S
C1175 H1197 0.950 . S
C1176 H1172 0.949 . S
C1176 C1184 1.574 . S
C1176 C1192 1.368 . S
H1177 C1185 0.950 . S
H1178 C1183 0.950 . S
H1179 C1184 0.949 . S
H1180 C1186 0.950 . S
H1181 C1187 0.950 . S
H1182 C1188 0.949 . S
C1183 H1178 0.950 . S
C1183 C1185 1.327 . S
C1183 C1189 1.429 . S
C1184 C1176 1.574 . S
C1184 H1179 0.949 . S
C1184 C1190 1.368 1_455 S
C1185 C1169 1.349 . S
C1185 H1177 0.950 . S
C1185 C1183 1.327 . S
C1186 C1174 1.349 . S
C1186 H1180 0.950 . S
C1186 C1187 1.327 . S
C1187 H1181 0.950 . S
C1187 C1186 1.327 . S
C1187 C1191 1.429 . S
C1188 C1171 1.574 . S
C1188 H1182 0.949 . S
C1188 C1192 1.368 1_655 S
C1189 C1170 1.429 . S
C1189 C1183 1.429 . S
C1189 C1190 1.523 . S
C1190 C1171 1.368 . S
C1190 C1184 1.368 1_655 S
C1190 C1189 1.523 . S
C1191 C1175 1.429 . S
C1191 C1187 1.429 . S
C1191 C1192 1.523 . S
C1192 C1176 1.368 . S
C1192 C1188 1.368 1_455 S
C1192 C1191 1.523 . S
H1193 C1168 0.950 . S
H1194 C1170 0.950 . S
H1195 C1171 0.949 . S
H1196 C1173 0.950 . S
H1197 C1175 0.950 . S
C1198 C1199 1.349 . S
C1198 C1200 1.327 . S
C1198 H1223 0.950 . S
C1199 C1198 1.349 . S
C1199 C1215 1.349 . S
C1200 C1198 1.327 . S
C1200 C1219 1.429 . S
C1200 H1224 0.950 . S
C1201 C1218 1.574 1_655 S
C1201 C1220 1.368 . S
C1201 H1225 0.949 . S
H1202 C1206 0.949 . S
C1203 C1204 1.349 . S
C1203 C1205 1.327 . S
C1203 H1226 0.950 . S
C1204 C1203 1.349 . S
C1204 C1216 1.349 . S
C1205 C1203 1.327 . S
C1205 C1221 1.429 . S
C1205 H1227 0.950 . S
C1206 H1202 0.949 . S
C1206 C1214 1.574 1_455 S
C1206 C1222 1.368 . S
H1207 C1215 0.950 . S
H1208 C1213 0.950 . S
H1209 C1214 0.949 . S
H1210 C1216 0.950 . S
H1211 C1217 0.950 . S
H1212 C1218 0.949 . S
C1213 H1208 0.950 . S
C1213 C1215 1.327 . S
C1213 C1219 1.429 . S
C1214 C1206 1.574 1_655 S
C1214 H1209 0.949 . S
C1214 C1220 1.368 . S
C1215 C1199 1.349 . S
C1215 H1207 0.950 . S
C1215 C1213 1.327 . S
C1216 C1204 1.349 . S
C1216 H1210 0.950 . S
C1216 C1217 1.327 . S
C1217 H1211 0.950 . S
C1217 C1216 1.327 . S
C1217 C1221 1.429 . S
C1218 C1201 1.574 1_455 S
C1218 H1212 0.949 . S
C1218 C1222 1.368 . S
C1219 C1200 1.429 . S
C1219 C1213 1.429 . S
C1219 C1220 1.523 . S
C1220 C1201 1.368 . S
C1220 C1214 1.368 . S
C1220 C1219 1.523 . S
C1221 C1205 1.429 . S
C1221 C1217 1.429 . S
C1221 C1222 1.523 . S
C1222 C1206 1.368 . S
C1222 C1218 1.368 . S
C1222 C1221 1.523 . S
H1223 C1198 0.950 . S
H1224 C1200 0.950 . S
H1225 C1201 0.949 . S
H1226 C1203 0.950 . S
H1227 C1205 0.950 . S
C1228 C1229 1.349 . S
C1228 C1230 1.327 . S
C1228 H1253 0.950 . S
C1229 C1228 1.349 . S
C1229 C1245 1.349 . S
C1230 C1228 1.327 . S
C1230 C1249 1.429 . S
C1230 H1254 0.950 . S
C1231 C1248 1.574 . S
C1231 C1250 1.368 . S
C1231 H1255 0.949 . S
H1232 C1236 0.949 . S
C1233 C1234 1.349 . S
C1233 C1235 1.327 . S
C1233 H1256 0.950 . S
C1234 C1233 1.349 . S
C1234 C1246 1.349 . S
C1235 C1233 1.327 . S
C1235 C1251 1.429 . S
C1235 H1257 0.950 . S
C1236 H1232 0.949 . S
C1236 C1244 1.574 . S
C1236 C1252 1.368 . S
H1237 C1245 0.950 . S
H1238 C1243 0.950 . S
H1239 C1244 0.949 . S
H1240 C1246 0.950 . S
H1241 C1247 0.950 . S
H1242 C1248 0.949 . S
C1243 H1238 0.950 . S
C1243 C1245 1.327 . S
C1243 C1249 1.429 . S
C1244 C1236 1.574 . S
C1244 H1239 0.949 . S
C1244 C1250 1.368 . S
C1245 C1229 1.349 . S
C1245 H1237 0.950 . S
C1245 C1243 1.327 . S
C1246 C1234 1.349 . S
C1246 H1240 0.950 . S
C1246 C1247 1.327 . S
C1247 H1241 0.950 . S
C1247 C1246 1.327 . S
C1247 C1251 1.429 . S
C1248 C1231 1.574 . S
C1248 H1242 0.949 . S
C1248 C1252 1.368 . S
C1249 C1230 1.429 . S
C1249 C1243 1.429 . S
C1249 C1250 1.523 . S
C1250 C1231 1.368 . S
C1250 C1244 1.368 . S
C1250 C1249 1.523 . S
C1251 C1235 1.429 . S
C1251 C1247 1.429 . S
C1251 C1252 1.523 . S
C1252 C1236 1.368 . S
C1252 C1248 1.368 . S
C1252 C1251 1.523 . S
H1253 C1228 0.950 . S
H1254 C1230 0.950 . S
H1255 C1231 0.949 . S
H1256 C1233 0.950 . S
H1257 C1235 0.950 . S
C1258 C1259 1.349 . S
C1258 C1260 1.327 . S
C1258 H1283 0.950 . S
C1259 C1258 1.349 . S
C1259 C1275 1.349 . S
C1260 C1258 1.327 . S
C1260 C1279 1.429 . S
C1260 H1284 0.950 . S
C1261 C1278 1.574 . S
C1261 C1280 1.368 . S
C1261 H1285 0.949 . S
H1262 C1266 0.949 . S
C1263 C1264 1.349 . S
C1263 C1265 1.327 . S
C1263 H1286 0.950 . S
C1264 C1263 1.349 . S
C1264 C1276 1.349 . S
C1265 C1263 1.327 . S
C1265 C1281 1.429 . S
C1265 H1287 0.950 . S
C1266 H1262 0.949 . S
C1266 C1274 1.574 . S
C1266 C1282 1.368 . S
H1267 C1275 0.950 . S
H1268 C1273 0.950 . S
H1269 C1274 0.949 . S
H1270 C1276 0.950 . S
H1271 C1277 0.950 . S
H1272 C1278 0.949 . S
C1273 H1268 0.950 . S
C1273 C1275 1.327 . S
C1273 C1279 1.429 . S
C1274 C1266 1.574 . S
C1274 H1269 0.949 . S
C1274 C1280 1.368 . S
C1275 C1259 1.349 . S
C1275 H1267 0.950 . S
C1275 C1273 1.327 . S
C1276 C1264 1.349 . S
C1276 H1270 0.950 . S
C1276 C1277 1.327 . S
C1277 H1271 0.950 . S
C1277 C1276 1.327 . S
C1277 C1281 1.429 . S
C1278 C1261 1.574 . S
C1278 H1272 0.949 . S
C1278 C1282 1.368 . S
C1279 C1260 1.429 . S
C1279 C1273 1.429 . S
C1279 C1280 1.523 . S
C1280 C1261 1.368 . S
C1280 C1274 1.368 . S
C1280 C1279 1.523 . S
C1281 C1265 1.429 . S
C1281 C1277 1.429 . S
C1281 C1282 1.523 . S
C1282 C1266 1.368 . S
C1282 C1278 1.368 . S
C1282 C1281 1.523 . S
H1283 C1258 0.950 . S
H1284 C1260 0.950 . S
H1285 C1261 0.949 . S
H1286 C1263 0.950 . S
H1287 C1265 0.950 . S
C1288 C1289 1.349 . S
C1288 C1290 1.327 . S
C1288 H1313 0.950 . S
C1289 C1288 1.349 . S
C1289 C1305 1.349 . S
C1290 C1288 1.327 . S
C1290 C1309 1.429 . S
C1290 H1314 0.950 . S
C1291 C1308 1.574 . S
C1291 C1310 1.368 . S
C1291 H1315 0.949 . S
H1292 C1296 0.949 . S
C1293 C1294 1.349 . S
C1293 C1295 1.327 . S
C1293 H1316 0.950 . S
C1294 C1293 1.349 . S
C1294 C1306 1.349 . S
C1295 C1293 1.327 . S
C1295 C1311 1.429 . S
C1295 H1317 0.950 . S
C1296 H1292 0.949 . S
C1296 C1304 1.574 . S
C1296 C1312 1.368 . S
H1297 C1305 0.950 . S
H1298 C1303 0.950 . S
H1299 C1304 0.949 . S
H1300 C1306 0.950 . S
H1301 C1307 0.950 . S
H1302 C1308 0.949 . S
C1303 H1298 0.950 . S
C1303 C1305 1.327 . S
C1303 C1309 1.429 . S
C1304 C1296 1.574 . S
C1304 H1299 0.949 . S
C1304 C1310 1.368 1_455 S
C1305 C1289 1.349 . S
C1305 H1297 0.950 . S
C1305 C1303 1.327 . S
C1306 C1294 1.349 . S
C1306 H1300 0.950 . S
C1306 C1307 1.327 . S
C1307 H1301 0.950 . S
C1307 C1306 1.327 . S
C1307 C1311 1.429 . S
C1308 C1291 1.574 . S
C1308 H1302 0.949 . S
C1308 C1312 1.368 1_655 S
C1309 C1290 1.429 . S
C1309 C1303 1.429 . S
C1309 C1310 1.523 . S
C1310 C1291 1.368 . S
C1310 C1304 1.368 1_655 S
C1310 C1309 1.523 . S
C1311 C1295 1.429 . S
C1311 C1307 1.429 . S
C1311 C1312 1.523 . S
C1312 C1296 1.368 . S
C1312 C1308 1.368 1_455 S
C1312 C1311 1.523 . S
H1313 C1288 0.950 . S
H1314 C1290 0.950 . S
H1315 C1291 0.949 . S
H1316 C1293 0.950 . S
H1317 C1295 0.950 . S
C1318 C1319 1.349 . S
C1318 C1320 1.327 . S
C1318 H1343 0.950 . S
C1319 C1318 1.349 . S
C1319 C1335 1.349 . S
C1320 C1318 1.327 . S
C1320 C1339 1.429 . S
C1320 H1344 0.950 . S
C1321 C1338 1.574 . S
C1321 C1340 1.368 . S
C1321 H1345 0.949 . S
H1322 C1326 0.949 . S
C1323 C1324 1.349 . S
C1323 C1325 1.327 . S
C1323 H1346 0.950 . S
C1324 C1323 1.349 . S
C1324 C1336 1.349 . S
C1325 C1323 1.327 . S
C1325 C1341 1.429 . S
C1325 H1347 0.950 . S
C1326 H1322 0.949 . S
C1326 C1334 1.574 . S
C1326 C1342 1.368 . S
H1327 C1335 0.950 . S
H1328 C1333 0.950 . S
H1329 C1334 0.949 . S
H1330 C1336 0.950 . S
H1331 C1337 0.950 . S
H1332 C1338 0.949 . S
C1333 H1328 0.950 . S
C1333 C1335 1.327 . S
C1333 C1339 1.429 . S
C1334 C1326 1.574 . S
C1334 H1329 0.949 . S
C1334 C1340 1.368 . S
C1335 C1319 1.349 . S
C1335 H1327 0.950 . S
C1335 C1333 1.327 . S
C1336 C1324 1.349 . S
C1336 H1330 0.950 . S
C1336 C1337 1.327 . S
C1337 H1331 0.950 . S
C1337 C1336 1.327 . S
C1337 C1341 1.429 . S
C1338 C1321 1.574 . S
C1338 H1332 0.949 . S
C1338 C1342 1.368 . S
C1339 C1320 1.429 . S
C1339 C1333 1.429 . S
C1339 C1340 1.523 . S
C1340 C1321 1.368 . S
C1340 C1334 1.368 . S
C1340 C1339 1.523 . S
C1341 C1325 1.429 . S
C1341 C1337 1.429 . S
C1341 C1342 1.523 . S
C1342 C1326 1.368 . S
C1342 C1338 1.368 . S
C1342 C1341 1.523 . S
H1343 C1318 0.950 . S
H1344 C1320 0.950 . S
H1345 C1321 0.949 . S
H1346 C1323 0.950 . S
H1347 C1325 0.950 . S
C1348 C1349 1.349 . S
C1348 C1350 1.327 . S
C1348 H1373 0.950 . S
C1349 C1348 1.349 . S
C1349 C1365 1.349 . S
C1350 C1348 1.327 . S
C1350 C1369 1.429 . S
C1350 H1374 0.950 . S
C1351 C1368 1.574 . S
C1351 C1370 1.368 . S
C1351 H1375 0.949 . S
H1352 C1356 0.949 . S
C1353 C1354 1.349 . S
C1353 C1355 1.327 . S
C1353 H1376 0.950 . S
C1354 C1353 1.349 . S
C1354 C1366 1.349 . S
C1355 C1353 1.327 . S
C1355 C1371 1.429 . S
C1355 H1377 0.950 . S
C1356 H1352 0.949 . S
C1356 C1364 1.574 . S
C1356 C1372 1.368 . S
H1357 C1365 0.950 . S
H1358 C1363 0.950 . S
H1359 C1364 0.949 . S
H1360 C1366 0.950 . S
H1361 C1367 0.950 . S
H1362 C1368 0.949 . S
C1363 H1358 0.950 . S
C1363 C1365 1.327 . S
C1363 C1369 1.429 . S
C1364 C1356 1.574 . S
C1364 H1359 0.949 . S
C1364 C1370 1.368 . S
C1365 C1349 1.349 . S
C1365 H1357 0.950 . S
C1365 C1363 1.327 . S
C1366 C1354 1.349 . S
C1366 H1360 0.950 . S
C1366 C1367 1.327 . S
C1367 H1361 0.950 . S
C1367 C1366 1.327 . S
C1367 C1371 1.429 . S
C1368 C1351 1.574 . S
C1368 H1362 0.949 . S
C1368 C1372 1.368 . S
C1369 C1350 1.429 . S
C1369 C1363 1.429 . S
C1369 C1370 1.523 . S
C1370 C1351 1.368 . S
C1370 C1364 1.368 . S
C1370 C1369 1.523 . S
C1371 C1355 1.429 . S
C1371 C1367 1.429 . S
C1371 C1372 1.523 . S
C1372 C1356 1.368 . S
C1372 C1368 1.368 . S
C1372 C1371 1.523 . S
H1373 C1348 0.950 . S
H1374 C1350 0.950 . S
H1375 C1351 0.949 . S
H1376 C1353 0.950 . S
H1377 C1355 0.950 . S
C1378 C1379 1.349 . S
C1378 C1380 1.327 . S
C1378 H1403 0.950 . S
C1379 C1378 1.349 . S
C1379 C1395 1.349 . S
C1380 C1378 1.327 . S
C1380 C1399 1.429 . S
C1380 H1404 0.950 . S
C1381 C1398 1.574 1_655 S
C1381 C1400 1.368 . S
C1381 H1405 0.949 . S
H1382 C1386 0.949 . S
C1383 C1384 1.349 . S
C1383 C1385 1.327 . S
C1383 H1406 0.950 . S
C1384 C1383 1.349 . S
C1384 C1396 1.349 . S
C1385 C1383 1.327 . S
C1385 C1401 1.429 . S
C1385 H1407 0.950 . S
C1386 H1382 0.949 . S
C1386 C1394 1.574 1_455 S
C1386 C1402 1.368 . S
H1387 C1395 0.950 . S
H1388 C1393 0.950 . S
H1389 C1394 0.949 . S
H1390 C1396 0.950 . S
H1391 C1397 0.950 . S
H1392 C1398 0.949 . S
C1393 H1388 0.950 . S
C1393 C1395 1.327 . S
C1393 C1399 1.429 . S
C1394 C1386 1.574 1_655 S
C1394 H1389 0.949 . S
C1394 C1400 1.368 . S
C1395 C1379 1.349 . S
C1395 H1387 0.950 . S
C1395 C1393 1.327 . S
C1396 C1384 1.349 . S
C1396 H1390 0.950 . S
C1396 C1397 1.327 . S
C1397 H1391 0.950 . S
C1397 C1396 1.327 . S
C1397 C1401 1.429 . S
C1398 C1381 1.574 1_455 S
C1398 H1392 0.949 . S
C1398 C1402 1.368 . S
C1399 C1380 1.429 . S
C1399 C1393 1.429 . S
C1399 C1400 1.523 . S
C1400 C1381 1.368 . S
C1400 C1394 1.368 . S
C1400 C1399 1.523 . S
C1401 C1385 1.429 . S
C1401 C1397 1.429 . S
C1401 C1402 1.523 . S
C1402 C1386 1.368 . S
C1402 C1398 1.368 . S
C1402 C1401 1.523 . S
H1403 C1378 0.950 . S
H1404 C1380 0.950 . S
H1405 C1381 0.949 . S
H1406 C1383 0.950 . S
H1407 C1385 0.950 . S
C1408 C1409 1.349 . S
C1408 C1410 1.327 . S
C1408 H1433 0.950 . S
C1409 C1408 1.349 . S
C1409 C1425 1.349 . S
C1410 C1408 1.327 . S
C1410 C1429 1.429 . S
C1410 H1434 0.950 . S
C1411 C1428 1.574 . S
C1411 C1430 1.368 . S
C1411 H1435 0.949 . S
H1412 C1416 0.949 . S
C1413 C1414 1.349 . S
C1413 C1415 1.327 . S
C1413 H1436 0.950 . S
C1414 C1413 1.349 . S
C1414 C1426 1.349 . S
C1415 C1413 1.327 . S
C1415 C1431 1.429 . S
C1415 H1437 0.950 . S
C1416 H1412 0.949 . S
C1416 C1424 1.574 . S
C1416 C1432 1.368 . S
H1417 C1425 0.950 . S
H1418 C1423 0.950 . S
H1419 C1424 0.949 . S
H1420 C1426 0.950 . S
H1421 C1427 0.950 . S
H1422 C1428 0.949 . S
C1423 H1418 0.950 . S
C1423 C1425 1.327 . S
C1423 C1429 1.429 . S
C1424 C1416 1.574 . S
C1424 H1419 0.949 . S
C1424 C1430 1.368 1_554 S
C1425 C1409 1.349 . S
C1425 H1417 0.950 . S
C1425 C1423 1.327 . S
C1426 C1414 1.349 . S
C1426 H1420 0.950 . S
C1426 C1427 1.327 . S
C1427 H1421 0.950 . S
C1427 C1426 1.327 . S
C1427 C1431 1.429 . S
C1428 C1411 1.574 . S
C1428 H1422 0.949 . S
C1428 C1432 1.368 1_556 S
C1429 C1410 1.429 . S
C1429 C1423 1.429 . S
C1429 C1430 1.523 . S
C1430 C1411 1.368 . S
C1430 C1424 1.368 1_556 S
C1430 C1429 1.523 . S
C1431 C1415 1.429 . S
C1431 C1427 1.429 . S
C1431 C1432 1.523 . S
C1432 C1416 1.368 . S
C1432 C1428 1.368 1_554 S
C1432 C1431 1.523 . S
H1433 C1408 0.950 . S
H1434 C1410 0.950 . S
H1435 C1411 0.949 . S
H1436 C1413 0.950 . S
H1437 C1415 0.950 . S
C1438 C1439 1.349 . S
C1438 C1440 1.327 . S
C1438 H1463 0.950 . S
C1439 C1438 1.349 . S
C1439 C1455 1.349 . S
C1440 C1438 1.327 . S
C1440 C1459 1.429 . S
C1440 H1464 0.950 . S
C1441 C1458 1.574 1_545 S
C1441 C1460 1.368 . S
C1441 H1465 0.949 . S
H1442 C1446 0.949 . S
C1443 C1444 1.349 . S
C1443 C1445 1.327 . S
C1443 H1466 0.950 . S
C1444 C1443 1.349 . S
C1444 C1456 1.349 . S
C1445 C1443 1.327 . S
C1445 C1461 1.429 . S
C1445 H1467 0.950 . S
C1446 H1442 0.949 . S
C1446 C1454 1.574 1_565 S
C1446 C1462 1.368 . S
H1447 C1455 0.950 . S
H1448 C1453 0.950 . S
H1449 C1454 0.949 . S
H1450 C1456 0.950 . S
H1451 C1457 0.950 . S
H1452 C1458 0.949 . S
C1453 H1448 0.950 . S
C1453 C1455 1.327 . S
C1453 C1459 1.429 . S
C1454 C1446 1.574 1_545 S
C1454 H1449 0.949 . S
C1454 C1460 1.368 . S
C1455 C1439 1.349 . S
C1455 H1447 0.950 . S
C1455 C1453 1.327 . S
C1456 C1444 1.349 . S
C1456 H1450 0.950 . S
C1456 C1457 1.327 . S
C1457 H1451 0.950 . S
C1457 C1456 1.327 . S
C1457 C1461 1.429 . S
C1458 C1441 1.574 1_565 S
C1458 H1452 0.949 . S
C1458 C1462 1.368 . S
C1459 C1440 1.429 . S
C1459 C1453 1.429 . S
C1459 C1460 1.523 . S
C1460 C1441 1.368 . S
C1460 C1454 1.368 . S
C1460 C1459 1.523 . S
C1461 C1445 1.429 . S
C1461 C1457 1.429 . S
C1461 C1462 1.523 . S
C1462 C1446 1.368 . S
C1462 C1458 1.368 . S
C1462 C1461 1.523 . S
H1463 C1438 0.950 . S
H1464 C1440 0.950 . S
H1465 C1441 0.949 . S
H1466 C1443 0.950 . S
H1467 C1445 0.950 . S
C1468 C1469 1.349 . S
C1468 C1470 1.327 . S
C1468 H1493 0.950 . S
C1469 C1468 1.349 . S
C1469 C1485 1.349 . S
C1470 C1468 1.327 . S
C1470 C1489 1.429 . S
C1470 H1494 0.950 . S
C1471 C1488 1.574 . S
C1471 C1490 1.368 . S
C1471 H1495 0.949 . S
H1472 C1476 0.949 . S
C1473 C1474 1.349 . S
C1473 C1475 1.327 . S
C1473 H1496 0.950 . S
C1474 C1473 1.349 . S
C1474 C1486 1.349 . S
C1475 C1473 1.327 . S
C1475 C1491 1.429 . S
C1475 H1497 0.950 . S
C1476 H1472 0.949 . S
C1476 C1484 1.574 . S
C1476 C1492 1.368 . S
H1477 C1485 0.950 . S
H1478 C1483 0.950 . S
H1479 C1484 0.949 . S
H1480 C1486 0.950 . S
H1481 C1487 0.950 . S
H1482 C1488 0.949 . S
C1483 H1478 0.950 . S
C1483 C1485 1.327 . S
C1483 C1489 1.429 . S
C1484 C1476 1.574 . S
C1484 H1479 0.949 . S
C1484 C1490 1.368 . S
C1485 C1469 1.349 . S
C1485 H1477 0.950 . S
C1485 C1483 1.327 . S
C1486 C1474 1.349 . S
C1486 H1480 0.950 . S
C1486 C1487 1.327 . S
C1487 H1481 0.950 . S
C1487 C1486 1.327 . S
C1487 C1491 1.429 . S
C1488 C1471 1.574 . S
C1488 H1482 0.949 . S
C1488 C1492 1.368 . S
C1489 C1470 1.429 . S
C1489 C1483 1.429 . S
C1489 C1490 1.523 . S
C1490 C1471 1.368 . S
C1490 C1484 1.368 . S
C1490 C1489 1.523 . S
C1491 C1475 1.429 . S
C1491 C1487 1.429 . S
C1491 C1492 1.523 . S
C1492 C1476 1.368 . S
C1492 C1488 1.368 . S
C1492 C1491 1.523 . S
H1493 C1468 0.950 . S
H1494 C1470 0.950 . S
H1495 C1471 0.949 . S
H1496 C1473 0.950 . S
H1497 C1475 0.950 . S
C1498 C1499 1.349 . S
C1498 C1500 1.327 . S
C1498 H1523 0.950 . S
C1499 C1498 1.349 . S
C1499 C1515 1.349 . S
C1500 C1498 1.327 . S
C1500 C1519 1.429 . S
C1500 H1524 0.950 . S
C1501 C1518 1.574 1_545 S
C1501 C1520 1.368 . S
C1501 H1525 0.949 . S
H1502 C1506 0.949 . S
C1503 C1504 1.349 . S
C1503 C1505 1.327 . S
C1503 H1526 0.950 . S
C1504 C1503 1.349 . S
C1504 C1516 1.349 . S
C1505 C1503 1.327 . S
C1505 C1521 1.429 . S
C1505 H1527 0.950 . S
C1506 H1502 0.949 . S
C1506 C1514 1.574 1_565 S
C1506 C1522 1.368 . S
H1507 C1515 0.950 . S
H1508 C1513 0.950 . S
H1509 C1514 0.949 . S
H1510 C1516 0.950 . S
H1511 C1517 0.950 . S
H1512 C1518 0.949 . S
C1513 H1508 0.950 . S
C1513 C1515 1.327 . S
C1513 C1519 1.429 . S
C1514 C1506 1.574 1_545 S
C1514 H1509 0.949 . S
C1514 C1520 1.368 . S
C1515 C1499 1.349 . S
C1515 H1507 0.950 . S
C1515 C1513 1.327 . S
C1516 C1504 1.349 . S
C1516 H1510 0.950 . S
C1516 C1517 1.327 . S
C1517 H1511 0.950 . S
C1517 C1516 1.327 . S
C1517 C1521 1.429 . S
C1518 C1501 1.574 1_565 S
C1518 H1512 0.949 . S
C1518 C1522 1.368 . S
C1519 C1500 1.429 . S
C1519 C1513 1.429 . S
C1519 C1520 1.523 . S
C1520 C1501 1.368 . S
C1520 C1514 1.368 . S
C1520 C1519 1.523 . S
C1521 C1505 1.429 . S
C1521 C1517 1.429 . S
C1521 C1522 1.523 . S
C1522 C1506 1.368 . S
C1522 C1518 1.368 . S
C1522 C1521 1.523 . S
H1523 C1498 0.950 . S
H1524 C1500 0.950 . S
H1525 C1501 0.949 . S
H1526 C1503 0.950 . S
H1527 C1505 0.950 . S
C1528 C1529 1.349 . S
C1528 C1530 1.327 . S
C1528 H1553 0.950 . S
C1529 C1528 1.349 . S
C1529 C1545 1.349 . S
C1530 C1528 1.327 . S
C1530 C1549 1.429 . S
C1530 H1554 0.950 . S
C1531 C1548 1.574 . S
C1531 C1550 1.368 . S
C1531 H1555 0.949 . S
H1532 C1536 0.949 . S
C1533 C1534 1.349 . S
C1533 C1535 1.327 . S
C1533 H1556 0.950 . S
C1534 C1533 1.349 . S
C1534 C1546 1.349 . S
C1535 C1533 1.327 . S
C1535 C1551 1.429 . S
C1535 H1557 0.950 . S
C1536 H1532 0.949 . S
C1536 C1544 1.574 . S
C1536 C1552 1.368 . S
H1537 C1545 0.950 . S
H1538 C1543 0.950 . S
H1539 C1544 0.949 . S
H1540 C1546 0.950 . S
H1541 C1547 0.950 . S
H1542 C1548 0.949 . S
C1543 H1538 0.950 . S
C1543 C1545 1.327 . S
C1543 C1549 1.429 . S
C1544 C1536 1.574 . S
C1544 H1539 0.949 . S
C1544 C1550 1.368 1_556 S
C1545 C1529 1.349 . S
C1545 H1537 0.950 . S
C1545 C1543 1.327 . S
C1546 C1534 1.349 . S
C1546 H1540 0.950 . S
C1546 C1547 1.327 . S
C1547 H1541 0.950 . S
C1547 C1546 1.327 . S
C1547 C1551 1.429 . S
C1548 C1531 1.574 . S
C1548 H1542 0.949 . S
C1548 C1552 1.368 1_554 S
C1549 C1530 1.429 . S
C1549 C1543 1.429 . S
C1549 C1550 1.523 . S
C1550 C1531 1.368 . S
C1550 C1544 1.368 1_554 S
C1550 C1549 1.523 . S
C1551 C1535 1.429 . S
C1551 C1547 1.429 . S
C1551 C1552 1.523 . S
C1552 C1536 1.368 . S
C1552 C1548 1.368 1_556 S
C1552 C1551 1.523 . S
H1553 C1528 0.950 . S
H1554 C1530 0.950 . S
H1555 C1531 0.949 . S
H1556 C1533 0.950 . S
H1557 C1535 0.950 . S
C1558 C1559 1.349 . S
C1558 C1560 1.327 . S
C1558 H1583 0.950 . S
C1559 C1558 1.349 . S
C1559 C1575 1.349 . S
C1560 C1558 1.327 . S
C1560 C1579 1.429 . S
C1560 H1584 0.950 . S
C1561 C1578 1.574 1_565 S
C1561 C1580 1.368 . S
C1561 H1585 0.949 . S
H1562 C1566 0.949 . S
C1563 C1564 1.349 . S
C1563 C1565 1.327 . S
C1563 H1586 0.950 . S
C1564 C1563 1.349 . S
C1564 C1576 1.349 . S
C1565 C1563 1.327 . S
C1565 C1581 1.429 . S
C1565 H1587 0.950 . S
C1566 H1562 0.949 . S
C1566 C1574 1.574 1_545 S
C1566 C1582 1.368 . S
H1567 C1575 0.950 . S
H1568 C1573 0.950 . S
H1569 C1574 0.949 . S
H1570 C1576 0.950 . S
H1571 C1577 0.950 . S
H1572 C1578 0.949 . S
C1573 H1568 0.950 . S
C1573 C1575 1.327 . S
C1573 C1579 1.429 . S
C1574 C1566 1.574 1_565 S
C1574 H1569 0.949 . S
C1574 C1580 1.368 . S
C1575 C1559 1.349 . S
C1575 H1567 0.950 . S
C1575 C1573 1.327 . S
C1576 C1564 1.349 . S
C1576 H1570 0.950 . S
C1576 C1577 1.327 . S
C1577 H1571 0.950 . S
C1577 C1576 1.327 . S
C1577 C1581 1.429 . S
C1578 C1561 1.574 1_545 S
C1578 H1572 0.949 . S
C1578 C1582 1.368 . S
C1579 C1560 1.429 . S
C1579 C1573 1.429 . S
C1579 C1580 1.523 . S
C1580 C1561 1.368 . S
C1580 C1574 1.368 . S
C1580 C1579 1.523 . S
C1581 C1565 1.429 . S
C1581 C1577 1.429 . S
C1581 C1582 1.523 . S
C1582 C1566 1.368 . S
C1582 C1578 1.368 . S
C1582 C1581 1.523 . S
H1583 C1558 0.950 . S
H1584 C1560 0.950 . S
H1585 C1561 0.949 . S
H1586 C1563 0.950 . S
H1587 C1565 0.950 . S
C1588 C1589 1.349 . S
C1588 C1590 1.327 . S
C1588 H1613 0.950 . S
C1589 C1588 1.349 . S
C1589 C1605 1.349 . S
C1590 C1588 1.327 . S
C1590 C1609 1.429 . S
C1590 H1614 0.950 . S
C1591 C1608 1.574 . S
C1591 C1610 1.368 . S
C1591 H1615 0.949 . S
H1592 C1596 0.949 . S
C1593 C1594 1.349 . S
C1593 C1595 1.327 . S
C1593 H1616 0.950 . S
C1594 C1593 1.349 . S
C1594 C1606 1.349 . S
C1595 C1593 1.327 . S
C1595 C1611 1.429 . S
C1595 H1617 0.950 . S
C1596 H1592 0.949 . S
C1596 C1604 1.574 . S
C1596 C1612 1.368 . S
H1597 C1605 0.950 . S
H1598 C1603 0.950 . S
H1599 C1604 0.949 . S
H1600 C1606 0.950 . S
H1601 C1607 0.950 . S
H1602 C1608 0.949 . S
C1603 H1598 0.950 . S
C1603 C1605 1.327 . S
C1603 C1609 1.429 . S
C1604 C1596 1.574 . S
C1604 H1599 0.949 . S
C1604 C1610 1.368 . S
C1605 C1589 1.349 . S
C1605 H1597 0.950 . S
C1605 C1603 1.327 . S
C1606 C1594 1.349 . S
C1606 H1600 0.950 . S
C1606 C1607 1.327 . S
C1607 H1601 0.950 . S
C1607 C1606 1.327 . S
C1607 C1611 1.429 . S
C1608 C1591 1.574 . S
C1608 H1602 0.949 . S
C1608 C1612 1.368 . S
C1609 C1590 1.429 . S
C1609 C1603 1.429 . S
C1609 C1610 1.523 . S
C1610 C1591 1.368 . S
C1610 C1604 1.368 . S
C1610 C1609 1.523 . S
C1611 C1595 1.429 . S
C1611 C1607 1.429 . S
C1611 C1612 1.523 . S
C1612 C1596 1.368 . S
C1612 C1608 1.368 . S
C1612 C1611 1.523 . S
H1613 C1588 0.950 . S
H1614 C1590 0.950 . S
H1615 C1591 0.949 . S
H1616 C1593 0.950 . S
H1617 C1595 0.950 . S
C1618 C1619 1.349 . S
C1618 C1620 1.327 . S
C1618 H1643 0.950 . S
C1619 C1618 1.349 . S
C1619 C1635 1.349 . S
C1620 C1618 1.327 . S
C1620 C1639 1.429 . S
C1620 H1644 0.950 . S
C1621 C1638 1.574 1_545 S
C1621 C1640 1.368 . S
C1621 H1645 0.949 . S
H1622 C1626 0.949 . S
C1623 C1624 1.349 . S
C1623 C1625 1.327 . S
C1623 H1646 0.950 . S
C1624 C1623 1.349 . S
C1624 C1636 1.349 . S
C1625 C1623 1.327 . S
C1625 C1641 1.429 . S
C1625 H1647 0.950 . S
C1626 H1622 0.949 . S
C1626 C1634 1.574 1_565 S
C1626 C1642 1.368 . S
H1627 C1635 0.950 . S
H1628 C1633 0.950 . S
H1629 C1634 0.949 . S
H1630 C1636 0.950 . S
H1631 C1637 0.950 . S
H1632 C1638 0.949 . S
C1633 H1628 0.950 . S
C1633 C1635 1.327 . S
C1633 C1639 1.429 . S
C1634 C1626 1.574 1_545 S
C1634 H1629 0.949 . S
C1634 C1640 1.368 . S
C1635 C1619 1.349 . S
C1635 H1627 0.950 . S
C1635 C1633 1.327 . S
C1636 C1624 1.349 . S
C1636 H1630 0.950 . S
C1636 C1637 1.327 . S
C1637 H1631 0.950 . S
C1637 C1636 1.327 . S
C1637 C1641 1.429 . S
C1638 C1621 1.574 1_565 S
C1638 H1632 0.949 . S
C1638 C1642 1.368 . S
C1639 C1620 1.429 . S
C1639 C1633 1.429 . S
C1639 C1640 1.523 . S
C1640 C1621 1.368 . S
C1640 C1634 1.368 . S
C1640 C1639 1.523 . S
C1641 C1625 1.429 . S
C1641 C1637 1.429 . S
C1641 C1642 1.523 . S
C1642 C1626 1.368 . S
C1642 C1638 1.368 . S
C1642 C1641 1.523 . S
H1643 C1618 0.950 . S
H1644 C1620 0.950 . S
H1645 C1621 0.949 . S
H1646 C1623 0.950 . S
H1647 C1625 0.950 . S
C1648 C1649 1.349 . S
C1648 C1650 1.327 . S
C1648 H1673 0.950 . S
C1649 C1648 1.349 . S
C1649 C1665 1.349 . S
C1650 C1648 1.327 . S
C1650 C1669 1.429 . S
C1650 H1674 0.950 . S
C1651 C1668 1.574 . S
C1651 C1670 1.368 . S
C1651 H1675 0.949 . S
H1652 C1656 0.949 . S
C1653 C1654 1.349 . S
C1653 C1655 1.327 . S
C1653 H1676 0.950 . S
C1654 C1653 1.349 . S
C1654 C1666 1.349 . S
C1655 C1653 1.327 . S
C1655 C1671 1.429 . S
C1655 H1677 0.950 . S
C1656 H1652 0.949 . S
C1656 C1664 1.574 . S
C1656 C1672 1.368 . S
H1657 C1665 0.950 . S
H1658 C1663 0.950 . S
H1659 C1664 0.949 . S
H1660 C1666 0.950 . S
H1661 C1667 0.950 . S
H1662 C1668 0.949 . S
C1663 H1658 0.950 . S
C1663 C1665 1.327 . S
C1663 C1669 1.429 . S
C1664 C1656 1.574 . S
C1664 H1659 0.949 . S
C1664 C1670 1.368 . S
C1665 C1649 1.349 . S
C1665 H1657 0.950 . S
C1665 C1663 1.327 . S
C1666 C1654 1.349 . S
C1666 H1660 0.950 . S
C1666 C1667 1.327 . S
C1667 H1661 0.950 . S
C1667 C1666 1.327 . S
C1667 C1671 1.429 . S
C1668 C1651 1.574 . S
C1668 H1662 0.949 . S
C1668 C1672 1.368 . S
C1669 C1650 1.429 . S
C1669 C1663 1.429 . S
C1669 C1670 1.523 . S
C1670 C1651 1.368 . S
C1670 C1664 1.368 . S
C1670 C1669 1.523 . S
C1671 C1655 1.429 . S
C1671 C1667 1.429 . S
C1671 C1672 1.523 . S
C1672 C1656 1.368 . S
C1672 C1668 1.368 . S
C1672 C1671 1.523 . S
H1673 C1648 0.950 . S
H1674 C1650 0.950 . S
H1675 C1651 0.949 . S
H1676 C1653 0.950 . S
H1677 C1655 0.950 . S
C1678 C1679 1.349 . S
C1678 C1680 1.327 . S
C1678 H1703 0.950 . S
C1679 C1678 1.349 . S
C1679 C1695 1.349 . S
C1680 C1678 1.327 . S
C1680 C1699 1.429 . S
C1680 H1704 0.950 . S
C1681 C1698 1.574 . S
C1681 C1700 1.368 . S
C1681 H1705 0.949 . S
H1682 C1686 0.949 . S
C1683 C1684 1.349 . S
C1683 C1685 1.327 . S
C1683 H1706 0.950 . S
C1684 C1683 1.349 . S
C1684 C1696 1.349 . S
C1685 C1683 1.327 . S
C1685 C1701 1.429 . S
C1685 H1707 0.950 . S
C1686 H1682 0.949 . S
C1686 C1694 1.574 . S
C1686 C1702 1.368 . S
H1687 C1695 0.950 . S
H1688 C1693 0.950 . S
H1689 C1694 0.949 . S
H1690 C1696 0.950 . S
H1691 C1697 0.950 . S
H1692 C1698 0.949 . S
C1693 H1688 0.950 . S
C1693 C1695 1.327 . S
C1693 C1699 1.429 . S
C1694 C1686 1.574 . S
C1694 H1689 0.949 . S
C1694 C1700 1.368 . S
C1695 C1679 1.349 . S
C1695 H1687 0.950 . S
C1695 C1693 1.327 . S
C1696 C1684 1.349 . S
C1696 H1690 0.950 . S
C1696 C1697 1.327 . S
C1697 H1691 0.950 . S
C1697 C1696 1.327 . S
C1697 C1701 1.429 . S
C1698 C1681 1.574 . S
C1698 H1692 0.949 . S
C1698 C1702 1.368 . S
C1699 C1680 1.429 . S
C1699 C1693 1.429 . S
C1699 C1700 1.523 . S
C1700 C1681 1.368 . S
C1700 C1694 1.368 . S
C1700 C1699 1.523 . S
C1701 C1685 1.429 . S
C1701 C1697 1.429 . S
C1701 C1702 1.523 . S
C1702 C1686 1.368 . S
C1702 C1698 1.368 . S
C1702 C1701 1.523 . S
H1703 C1678 0.950 . S
H1704 C1680 0.950 . S
H1705 C1681 0.949 . S
H1706 C1683 0.950 . S
H1707 C1685 0.950 . S
C1708 C1709 1.349 . S
C1708 C1710 1.327 . S
C1708 H1733 0.950 . S
C1709 C1708 1.349 . S
C1709 C1725 1.349 . S
C1710 C1708 1.327 . S
C1710 C1729 1.429 . S
C1710 H1734 0.950 . S
C1711 C1728 1.574 . S
C1711 C1730 1.368 . S
C1711 H1735 0.949 . S
H1712 C1716 0.949 . S
C1713 C1714 1.349 . S
C1713 C1715 1.327 . S
C1713 H1736 0.950 . S
C1714 C1713 1.349 . S
C1714 C1726 1.349 . S
C1715 C1713 1.327 . S
C1715 C1731 1.429 . S
C1715 H1737 0.950 . S
C1716 H1712 0.949 . S
C1716 C1724 1.574 . S
C1716 C1732 1.368 . S
H1717 C1725 0.950 . S
H1718 C1723 0.950 . S
H1719 C1724 0.949 . S
H1720 C1726 0.950 . S
H1721 C1727 0.950 . S
H1722 C1728 0.949 . S
C1723 H1718 0.950 . S
C1723 C1725 1.327 . S
C1723 C1729 1.429 . S
C1724 C1716 1.574 . S
C1724 H1719 0.949 . S
C1724 C1730 1.368 1_556 S
C1725 C1709 1.349 . S
C1725 H1717 0.950 . S
C1725 C1723 1.327 . S
C1726 C1714 1.349 . S
C1726 H1720 0.950 . S
C1726 C1727 1.327 . S
C1727 H1721 0.950 . S
C1727 C1726 1.327 . S
C1727 C1731 1.429 . S
C1728 C1711 1.574 . S
C1728 H1722 0.949 . S
C1728 C1732 1.368 1_554 S
C1729 C1710 1.429 . S
C1729 C1723 1.429 . S
C1729 C1730 1.523 . S
C1730 C1711 1.368 . S
C1730 C1724 1.368 1_554 S
C1730 C1729 1.523 . S
C1731 C1715 1.429 . S
C1731 C1727 1.429 . S
C1731 C1732 1.523 . S
C1732 C1716 1.368 . S
C1732 C1728 1.368 1_556 S
C1732 C1731 1.523 . S
H1733 C1708 0.950 . S
H1734 C1710 0.950 . S
H1735 C1711 0.949 . S
H1736 C1713 0.950 . S
H1737 C1715 0.950 . S
C1738 C1739 1.349 . S
C1738 C1740 1.327 . S
C1738 H1763 0.950 . S
C1739 C1738 1.349 . S
C1739 C1755 1.349 . S
C1740 C1738 1.327 . S
C1740 C1759 1.429 . S
C1740 H1764 0.950 . S
C1741 C1758 1.574 . S
C1741 C1760 1.368 . S
C1741 H1765 0.949 . S
H1742 C1746 0.949 . S
C1743 C1744 1.349 . S
C1743 C1745 1.327 . S
C1743 H1766 0.950 . S
C1744 C1743 1.349 . S
C1744 C1756 1.349 . S
C1745 C1743 1.327 . S
C1745 C1761 1.429 . S
C1745 H1767 0.950 . S
C1746 H1742 0.949 . S
C1746 C1754 1.574 . S
C1746 C1762 1.368 . S
H1747 C1755 0.950 . S
H1748 C1753 0.950 . S
H1749 C1754 0.949 . S
H1750 C1756 0.950 . S
H1751 C1757 0.950 . S
H1752 C1758 0.949 . S
C1753 H1748 0.950 . S
C1753 C1755 1.327 . S
C1753 C1759 1.429 . S
C1754 C1746 1.574 . S
C1754 H1749 0.949 . S
C1754 C1760 1.368 . S
C1755 C1739 1.349 . S
C1755 H1747 0.950 . S
C1755 C1753 1.327 . S
C1756 C1744 1.349 . S
C1756 H1750 0.950 . S
C1756 C1757 1.327 . S
C1757 H1751 0.950 . S
C1757 C1756 1.327 . S
C1757 C1761 1.429 . S
C1758 C1741 1.574 . S
C1758 H1752 0.949 . S
C1758 C1762 1.368 . S
C1759 C1740 1.429 . S
C1759 C1753 1.429 . S
C1759 C1760 1.523 . S
C1760 C1741 1.368 . S
C1760 C1754 1.368 . S
C1760 C1759 1.523 . S
C1761 C1745 1.429 . S
C1761 C1757 1.429 . S
C1761 C1762 1.523 . S
C1762 C1746 1.368 . S
C1762 C1758 1.368 . S
C1762 C1761 1.523 . S
H1763 C1738 0.950 . S
H1764 C1740 0.950 . S
H1765 C1741 0.949 . S
H1766 C1743 0.950 . S
H1767 C1745 0.950 . S
C1768 C1769 1.349 . S
C1768 C1770 1.327 . S
C1768 H1793 0.950 . S
C1769 C1768 1.349 . S
C1769 C1785 1.349 . S
C1770 C1768 1.327 . S
C1770 C1789 1.429 . S
C1770 H1794 0.950 . S
C1771 C1788 1.574 . S
C1771 C1790 1.368 . S
C1771 H1795 0.949 . S
H1772 C1776 0.949 . S
C1773 C1774 1.349 . S
C1773 C1775 1.327 . S
C1773 H1796 0.950 . S
C1774 C1773 1.349 . S
C1774 C1786 1.349 . S
C1775 C1773 1.327 . S
C1775 C1791 1.429 . S
C1775 H1797 0.950 . S
C1776 H1772 0.949 . S
C1776 C1784 1.574 . S
C1776 C1792 1.368 . S
H1777 C1785 0.950 . S
H1778 C1783 0.950 . S
H1779 C1784 0.949 . S
H1780 C1786 0.950 . S
H1781 C1787 0.950 . S
H1782 C1788 0.949 . S
C1783 H1778 0.950 . S
C1783 C1785 1.327 . S
C1783 C1789 1.429 . S
C1784 C1776 1.574 . S
C1784 H1779 0.949 . S
C1784 C1790 1.368 . S
C1785 C1769 1.349 . S
C1785 H1777 0.950 . S
C1785 C1783 1.327 . S
C1786 C1774 1.349 . S
C1786 H1780 0.950 . S
C1786 C1787 1.327 . S
C1787 H1781 0.950 . S
C1787 C1786 1.327 . S
C1787 C1791 1.429 . S
C1788 C1771 1.574 . S
C1788 H1782 0.949 . S
C1788 C1792 1.368 . S
C1789 C1770 1.429 . S
C1789 C1783 1.429 . S
C1789 C1790 1.523 . S
C1790 C1771 1.368 . S
C1790 C1784 1.368 . S
C1790 C1789 1.523 . S
C1791 C1775 1.429 . S
C1791 C1787 1.429 . S
C1791 C1792 1.523 . S
C1792 C1776 1.368 . S
C1792 C1788 1.368 . S
C1792 C1791 1.523 . S
H1793 C1768 0.950 . S
H1794 C1770 0.950 . S
H1795 C1771 0.949 . S
H1796 C1773 0.950 . S
H1797 C1775 0.950 . S
C1798 C1799 1.349 . S
C1798 C1800 1.327 . S
C1798 H1823 0.950 . S
C1799 C1798 1.349 . S
C1799 C1815 1.349 . S
C1800 C1798 1.327 . S
C1800 C1819 1.429 . S
C1800 H1824 0.950 . S
C1801 C1818 1.574 . S
C1801 C1820 1.368 . S
C1801 H1825 0.949 . S
H1802 C1806 0.949 . S
C1803 C1804 1.349 . S
C1803 C1805 1.327 . S
C1803 H1826 0.950 . S
C1804 C1803 1.349 . S
C1804 C1816 1.349 . S
C1805 C1803 1.327 . S
C1805 C1821 1.429 . S
C1805 H1827 0.950 . S
C1806 H1802 0.949 . S
C1806 C1814 1.574 . S
C1806 C1822 1.368 . S
H1807 C1815 0.950 . S
H1808 C1813 0.950 . S
H1809 C1814 0.949 . S
H1810 C1816 0.950 . S
H1811 C1817 0.950 . S
H1812 C1818 0.949 . S
C1813 H1808 0.950 . S
C1813 C1815 1.327 . S
C1813 C1819 1.429 . S
C1814 C1806 1.574 . S
C1814 H1809 0.949 . S
C1814 C1820 1.368 . S
C1815 C1799 1.349 . S
C1815 H1807 0.950 . S
C1815 C1813 1.327 . S
C1816 C1804 1.349 . S
C1816 H1810 0.950 . S
C1816 C1817 1.327 . S
C1817 H1811 0.950 . S
C1817 C1816 1.327 . S
C1817 C1821 1.429 . S
C1818 C1801 1.574 . S
C1818 H1812 0.949 . S
C1818 C1822 1.368 . S
C1819 C1800 1.429 . S
C1819 C1813 1.429 . S
C1819 C1820 1.523 . S
C1820 C1801 1.368 . S
C1820 C1814 1.368 . S
C1820 C1819 1.523 . S
C1821 C1805 1.429 . S
C1821 C1817 1.429 . S
C1821 C1822 1.523 . S
C1822 C1806 1.368 . S
C1822 C1818 1.368 . S
C1822 C1821 1.523 . S
H1823 C1798 0.950 . S
H1824 C1800 0.950 . S
H1825 C1801 0.949 . S
H1826 C1803 0.950 . S
H1827 C1805 0.950 . S
C1828 C1829 1.349 . S
C1828 C1830 1.327 . S
C1828 H1853 0.950 . S
C1829 C1828 1.349 . S
C1829 C1845 1.349 . S
C1830 C1828 1.327 . S
C1830 C1849 1.429 . S
C1830 H1854 0.950 . S
C1831 C1848 1.574 . S
C1831 C1850 1.368 1_554 S
C1831 H1855 0.949 . S
H1832 C1836 0.949 . S
C1833 C1834 1.349 . S
C1833 C1835 1.327 . S
C1833 H1856 0.950 . S
C1834 C1833 1.349 . S
C1834 C1846 1.349 . S
C1835 C1833 1.327 . S
C1835 C1851 1.429 . S
C1835 H1857 0.950 . S
C1836 H1832 0.949 . S
C1836 C1844 1.574 . S
C1836 C1852 1.368 1_556 S
H1837 C1845 0.950 . S
H1838 C1843 0.950 . S
H1839 C1844 0.949 . S
H1840 C1846 0.950 . S
H1841 C1847 0.950 . S
H1842 C1848 0.949 . S
C1843 H1838 0.950 . S
C1843 C1845 1.327 . S
C1843 C1849 1.429 . S
C1844 C1836 1.574 . S
C1844 H1839 0.949 . S
C1844 C1850 1.368 . S
C1845 C1829 1.349 . S
C1845 H1837 0.950 . S
C1845 C1843 1.327 . S
C1846 C1834 1.349 . S
C1846 H1840 0.950 . S
C1846 C1847 1.327 . S
C1847 H1841 0.950 . S
C1847 C1846 1.327 . S
C1847 C1851 1.429 . S
C1848 C1831 1.574 . S
C1848 H1842 0.949 . S
C1848 C1852 1.368 . S
C1849 C1830 1.429 . S
C1849 C1843 1.429 . S
C1849 C1850 1.523 . S
C1850 C1831 1.368 1_556 S
C1850 C1844 1.368 . S
C1850 C1849 1.523 . S
C1851 C1835 1.429 . S
C1851 C1847 1.429 . S
C1851 C1852 1.523 . S
C1852 C1836 1.368 1_554 S
C1852 C1848 1.368 . S
C1852 C1851 1.523 . S
H1853 C1828 0.950 . S
H1854 C1830 0.950 . S
H1855 C1831 0.949 . S
H1856 C1833 0.950 . S
H1857 C1835 0.950 . S
C1858 C1859 1.349 . S
C1858 C1860 1.327 . S
C1858 H1883 0.950 . S
C1859 C1858 1.349 . S
C1859 C1875 1.349 . S
C1860 C1858 1.327 . S
C1860 C1879 1.429 . S
C1860 H1884 0.950 . S
C1861 C1878 1.574 . S
C1861 C1880 1.368 . S
C1861 H1885 0.949 . S
H1862 C1866 0.949 . S
C1863 C1864 1.349 . S
C1863 C1865 1.327 . S
C1863 H1886 0.950 . S
C1864 C1863 1.349 . S
C1864 C1876 1.349 . S
C1865 C1863 1.327 . S
C1865 C1881 1.429 . S
C1865 H1887 0.950 . S
C1866 H1862 0.949 . S
C1866 C1874 1.574 . S
C1866 C1882 1.368 . S
H1867 C1875 0.950 . S
H1868 C1873 0.950 . S
H1869 C1874 0.949 . S
H1870 C1876 0.950 . S
H1871 C1877 0.950 . S
H1872 C1878 0.949 . S
C1873 H1868 0.950 . S
C1873 C1875 1.327 . S
C1873 C1879 1.429 . S
C1874 C1866 1.574 . S
C1874 H1869 0.949 . S
C1874 C1880 1.368 . S
C1875 C1859 1.349 . S
C1875 H1867 0.950 . S
C1875 C1873 1.327 . S
C1876 C1864 1.349 . S
C1876 H1870 0.950 . S
C1876 C1877 1.327 . S
C1877 H1871 0.950 . S
C1877 C1876 1.327 . S
C1877 C1881 1.429 . S
C1878 C1861 1.574 . S
C1878 H1872 0.949 . S
C1878 C1882 1.368 . S
C1879 C1860 1.429 . S
C1879 C1873 1.429 . S
C1879 C1880 1.523 . S
C1880 C1861 1.368 . S
C1880 C1874 1.368 . S
C1880 C1879 1.523 . S
C1881 C1865 1.429 . S
C1881 C1877 1.429 . S
C1881 C1882 1.523 . S
C1882 C1866 1.368 . S
C1882 C1878 1.368 . S
C1882 C1881 1.523 . S
H1883 C1858 0.950 . S
H1884 C1860 0.950 . S
H1885 C1861 0.949 . S
H1886 C1863 0.950 . S
H1887 C1865 0.950 . S
C1888 C1889 1.349 . S
C1888 C1890 1.327 . S
C1888 H1913 0.950 . S
C1889 C1888 1.349 . S
C1889 C1905 1.349 . S
C1890 C1888 1.327 . S
C1890 C1909 1.429 . S
C1890 H1914 0.950 . S
C1891 C1908 1.574 . S
C1891 C1910 1.368 . S
C1891 H1915 0.949 . S
H1892 C1896 0.949 . S
C1893 C1894 1.349 . S
C1893 C1895 1.327 . S
C1893 H1916 0.950 . S
C1894 C1893 1.349 . S
C1894 C1906 1.349 . S
C1895 C1893 1.327 . S
C1895 C1911 1.429 . S
C1895 H1917 0.950 . S
C1896 H1892 0.949 . S
C1896 C1904 1.574 . S
C1896 C1912 1.368 . S
H1897 C1905 0.950 . S
H1898 C1903 0.950 . S
H1899 C1904 0.949 . S
H1900 C1906 0.950 . S
H1901 C1907 0.950 . S
H1902 C1908 0.949 . S
C1903 H1898 0.950 . S
C1903 C1905 1.327 . S
C1903 C1909 1.429 . S
C1904 C1896 1.574 . S
C1904 H1899 0.949 . S
C1904 C1910 1.368 . S
C1905 C1889 1.349 . S
C1905 H1897 0.950 . S
C1905 C1903 1.327 . S
C1906 C1894 1.349 . S
C1906 H1900 0.950 . S
C1906 C1907 1.327 . S
C1907 H1901 0.950 . S
C1907 C1906 1.327 . S
C1907 C1911 1.429 . S
C1908 C1891 1.574 . S
C1908 H1902 0.949 . S
C1908 C1912 1.368 . S
C1909 C1890 1.429 . S
C1909 C1903 1.429 . S
C1909 C1910 1.523 . S
C1910 C1891 1.368 . S
C1910 C1904 1.368 . S
C1910 C1909 1.523 . S
C1911 C1895 1.429 . S
C1911 C1907 1.429 . S
C1911 C1912 1.523 . S
C1912 C1896 1.368 . S
C1912 C1908 1.368 . S
C1912 C1911 1.523 . S
H1913 C1888 0.950 . S
H1914 C1890 0.950 . S
H1915 C1891 0.949 . S
H1916 C1893 0.950 . S
H1917 C1895 0.950 . S
C1918 C1919 1.349 . S
C1918 C1920 1.327 . S
C1918 H1943 0.950 . S
C1919 C1918 1.349 . S
C1919 C1935 1.349 . S
C1920 C1918 1.327 . S
C1920 C1939 1.429 . S
C1920 H1944 0.950 . S
C1921 C1938 1.574 . S
C1921 C1940 1.368 . S
C1921 H1945 0.949 . S
H1922 C1926 0.949 . S
C1923 C1924 1.349 . S
C1923 C1925 1.327 . S
C1923 H1946 0.950 . S
C1924 C1923 1.349 . S
C1924 C1936 1.349 . S
C1925 C1923 1.327 . S
C1925 C1941 1.429 . S
C1925 H1947 0.950 . S
C1926 H1922 0.949 . S
C1926 C1934 1.574 . S
C1926 C1942 1.368 . S
H1927 C1935 0.950 . S
H1928 C1933 0.950 . S
H1929 C1934 0.949 . S
H1930 C1936 0.950 . S
H1931 C1937 0.950 . S
H1932 C1938 0.949 . S
C1933 H1928 0.950 . S
C1933 C1935 1.327 . S
C1933 C1939 1.429 . S
C1934 C1926 1.574 . S
C1934 H1929 0.949 . S
C1934 C1940 1.368 . S
C1935 C1919 1.349 . S
C1935 H1927 0.950 . S
C1935 C1933 1.327 . S
C1936 C1924 1.349 . S
C1936 H1930 0.950 . S
C1936 C1937 1.327 . S
C1937 H1931 0.950 . S
C1937 C1936 1.327 . S
C1937 C1941 1.429 . S
C1938 C1921 1.574 . S
C1938 H1932 0.949 . S
C1938 C1942 1.368 . S
C1939 C1920 1.429 . S
C1939 C1933 1.429 . S
C1939 C1940 1.523 . S
C1940 C1921 1.368 . S
C1940 C1934 1.368 . S
C1940 C1939 1.523 . S
C1941 C1925 1.429 . S
C1941 C1937 1.429 . S
C1941 C1942 1.523 . S
C1942 C1926 1.368 . S
C1942 C1938 1.368 . S
C1942 C1941 1.523 . S
H1943 C1918 0.950 . S
H1944 C1920 0.950 . S
H1945 C1921 0.949 . S
H1946 C1923 0.950 . S
H1947 C1925 0.950 . S
C1948 C1949 1.349 . S
C1948 C1950 1.327 . S
C1948 H1973 0.950 . S
C1949 C1948 1.349 . S
C1949 C1965 1.349 . S
C1950 C1948 1.327 . S
C1950 C1969 1.429 . S
C1950 H1974 0.950 . S
C1951 C1968 1.574 . S
C1951 C1970 1.368 . S
C1951 H1975 0.949 . S
H1952 C1956 0.949 . S
C1953 C1954 1.349 . S
C1953 C1955 1.327 . S
C1953 H1976 0.950 . S
C1954 C1953 1.349 . S
C1954 C1966 1.349 . S
C1955 C1953 1.327 . S
C1955 C1971 1.429 . S
C1955 H1977 0.950 . S
C1956 H1952 0.949 . S
C1956 C1964 1.574 . S
C1956 C1972 1.368 . S
H1957 C1965 0.950 . S
H1958 C1963 0.950 . S
H1959 C1964 0.949 . S
H1960 C1966 0.950 . S
H1961 C1967 0.950 . S
H1962 C1968 0.949 . S
C1963 H1958 0.950 . S
C1963 C1965 1.327 . S
C1963 C1969 1.429 . S
C1964 C1956 1.574 . S
C1964 H1959 0.949 . S
C1964 C1970 1.368 . S
C1965 C1949 1.349 . S
C1965 H1957 0.950 . S
C1965 C1963 1.327 . S
C1966 C1954 1.349 . S
C1966 H1960 0.950 . S
C1966 C1967 1.327 . S
C1967 H1961 0.950 . S
C1967 C1966 1.327 . S
C1967 C1971 1.429 . S
C1968 C1951 1.574 . S
C1968 H1962 0.949 . S
C1968 C1972 1.368 . S
C1969 C1950 1.429 . S
C1969 C1963 1.429 . S
C1969 C1970 1.523 . S
C1970 C1951 1.368 . S
C1970 C1964 1.368 . S
C1970 C1969 1.523 . S
C1971 C1955 1.429 . S
C1971 C1967 1.429 . S
C1971 C1972 1.523 . S
C1972 C1956 1.368 . S
C1972 C1968 1.368 . S
C1972 C1971 1.523 . S
H1973 C1948 0.950 . S
H1974 C1950 0.950 . S
H1975 C1951 0.949 . S
H1976 C1953 0.950 . S
H1977 C1955 0.950 . S
C1978 C1979 1.349 . S
C1978 C1980 1.327 . S
C1978 H2003 0.950 . S
C1979 C1978 1.349 . S
C1979 C1995 1.349 . S
C1980 C1978 1.327 . S
C1980 C1999 1.429 . S
C1980 H2004 0.950 . S
C1981 C1998 1.574 . S
C1981 C2000 1.368 . S
C1981 H2005 0.949 . S
H1982 C1986 0.949 . S
C1983 C1984 1.349 . S
C1983 C1985 1.327 . S
C1983 H2006 0.950 . S
C1984 C1983 1.349 . S
C1984 C1996 1.349 . S
C1985 C1983 1.327 . S
C1985 C2001 1.429 . S
C1985 H2007 0.950 . S
C1986 H1982 0.949 . S
C1986 C1994 1.574 . S
C1986 C2002 1.368 . S
H1987 C1995 0.950 . S
H1988 C1993 0.950 . S
H1989 C1994 0.949 . S
H1990 C1996 0.950 . S
H1991 C1997 0.950 . S
H1992 C1998 0.949 . S
C1993 H1988 0.950 . S
C1993 C1995 1.327 . S
C1993 C1999 1.429 . S
C1994 C1986 1.574 . S
C1994 H1989 0.949 . S
C1994 C2000 1.368 . S
C1995 C1979 1.349 . S
C1995 H1987 0.950 . S
C1995 C1993 1.327 . S
C1996 C1984 1.349 . S
C1996 H1990 0.950 . S
C1996 C1997 1.327 . S
C1997 H1991 0.950 . S
C1997 C1996 1.327 . S
C1997 C2001 1.429 . S
C1998 C1981 1.574 . S
C1998 H1992 0.949 . S
C1998 C2002 1.368 . S
C1999 C1980 1.429 . S
C1999 C1993 1.429 . S
C1999 C2000 1.523 . S
C2000 C1981 1.368 . S
C2000 C1994 1.368 . S
C2000 C1999 1.523 . S
C2001 C1985 1.429 . S
C2001 C1997 1.429 . S
C2001 C2002 1.523 . S
C2002 C1986 1.368 . S
C2002 C1998 1.368 . S
C2002 C2001 1.523 . S
H2003 C1978 0.950 . S
H2004 C1980 0.950 . S
H2005 C1981 0.949 . S
H2006 C1983 0.950 . S
H2007 C1985 0.950 . S
C2008 C2009 1.349 . S
C2008 C2010 1.327 . S
C2008 H2033 0.950 . S
C2009 C2008 1.349 . S
C2009 C2025 1.349 . S
C2010 C2008 1.327 . S
C2010 C2029 1.429 . S
C2010 H2034 0.950 . S
C2011 C2028 1.574 . S
C2011 C2030 1.368 . S
C2011 H2035 0.949 . S
H2012 C2016 0.949 . S
C2013 C2014 1.349 . S
C2013 C2015 1.327 . S
C2013 H2036 0.950 . S
C2014 C2013 1.349 . S
C2014 C2026 1.349 . S
C2015 C2013 1.327 . S
C2015 C2031 1.429 . S
C2015 H2037 0.950 . S
C2016 H2012 0.949 . S
C2016 C2024 1.574 . S
C2016 C2032 1.368 . S
H2017 C2025 0.950 . S
H2018 C2023 0.950 . S
H2019 C2024 0.949 . S
H2020 C2026 0.950 . S
H2021 C2027 0.950 . S
H2022 C2028 0.949 . S
C2023 H2018 0.950 . S
C2023 C2025 1.327 . S
C2023 C2029 1.429 . S
C2024 C2016 1.574 . S
C2024 H2019 0.949 . S
C2024 C2030 1.368 . S
C2025 C2009 1.349 . S
C2025 H2017 0.950 . S
C2025 C2023 1.327 . S
C2026 C2014 1.349 . S
C2026 H2020 0.950 . S
C2026 C2027 1.327 . S
C2027 H2021 0.950 . S
C2027 C2026 1.327 . S
C2027 C2031 1.429 . S
C2028 C2011 1.574 . S
C2028 H2022 0.949 . S
C2028 C2032 1.368 . S
C2029 C2010 1.429 . S
C2029 C2023 1.429 . S
C2029 C2030 1.523 . S
C2030 C2011 1.368 . S
C2030 C2024 1.368 . S
C2030 C2029 1.523 . S
C2031 C2015 1.429 . S
C2031 C2027 1.429 . S
C2031 C2032 1.523 . S
C2032 C2016 1.368 . S
C2032 C2028 1.368 . S
C2032 C2031 1.523 . S
H2033 C2008 0.950 . S
H2034 C2010 0.950 . S
H2035 C2011 0.949 . S
H2036 C2013 0.950 . S
H2037 C2015 0.950 . S
C2038 C2039 1.349 . S
C2038 C2040 1.327 . S
C2038 H2063 0.950 . S
C2039 C2038 1.349 . S
C2039 C2055 1.349 . S
C2040 C2038 1.327 . S
C2040 C2059 1.429 . S
C2040 H2064 0.950 . S
C2041 C2058 1.574 . S
C2041 C2060 1.368 . S
C2041 H2065 0.949 . S
H2042 C2046 0.949 . S
C2043 C2044 1.349 . S
C2043 C2045 1.327 . S
C2043 H2066 0.950 . S
C2044 C2043 1.349 . S
C2044 C2056 1.349 . S
C2045 C2043 1.327 . S
C2045 C2061 1.429 . S
C2045 H2067 0.950 . S
C2046 H2042 0.949 . S
C2046 C2054 1.574 . S
C2046 C2062 1.368 . S
H2047 C2055 0.950 . S
H2048 C2053 0.950 . S
H2049 C2054 0.949 . S
H2050 C2056 0.950 . S
H2051 C2057 0.950 . S
H2052 C2058 0.949 . S
C2053 H2048 0.950 . S
C2053 C2055 1.327 . S
C2053 C2059 1.429 . S
C2054 C2046 1.574 . S
C2054 H2049 0.949 . S
C2054 C2060 1.368 . S
C2055 C2039 1.349 . S
C2055 H2047 0.950 . S
C2055 C2053 1.327 . S
C2056 C2044 1.349 . S
C2056 H2050 0.950 . S
C2056 C2057 1.327 . S
C2057 H2051 0.950 . S
C2057 C2056 1.327 . S
C2057 C2061 1.429 . S
C2058 C2041 1.574 . S
C2058 H2052 0.949 . S
C2058 C2062 1.368 . S
C2059 C2040 1.429 . S
C2059 C2053 1.429 . S
C2059 C2060 1.523 . S
C2060 C2041 1.368 . S
C2060 C2054 1.368 . S
C2060 C2059 1.523 . S
C2061 C2045 1.429 . S
C2061 C2057 1.429 . S
C2061 C2062 1.523 . S
C2062 C2046 1.368 . S
C2062 C2058 1.368 . S
C2062 C2061 1.523 . S
H2063 C2038 0.950 . S
H2064 C2040 0.950 . S
H2065 C2041 0.949 . S
H2066 C2043 0.950 . S
H2067 C2045 0.950 . S
C2068 C2069 1.349 . S
C2068 C2070 1.327 . S
C2068 H2093 0.950 . S
C2069 C2068 1.349 . S
C2069 C2085 1.349 . S
C2070 C2068 1.327 . S
C2070 C2089 1.429 . S
C2070 H2094 0.950 . S
C2071 C2088 1.574 . S
C2071 C2090 1.368 . S
C2071 H2095 0.949 . S
H2072 C2076 0.949 . S
C2073 C2074 1.349 . S
C2073 C2075 1.327 . S
C2073 H2096 0.950 . S
C2074 C2073 1.349 . S
C2074 C2086 1.349 . S
C2075 C2073 1.327 . S
C2075 C2091 1.429 . S
C2075 H2097 0.950 . S
C2076 H2072 0.949 . S
C2076 C2084 1.574 . S
C2076 C2092 1.368 . S
H2077 C2085 0.950 . S
H2078 C2083 0.950 . S
H2079 C2084 0.949 . S
H2080 C2086 0.950 . S
H2081 C2087 0.950 . S
H2082 C2088 0.949 . S
C2083 H2078 0.950 . S
C2083 C2085 1.327 . S
C2083 C2089 1.429 . S
C2084 C2076 1.574 . S
C2084 H2079 0.949 . S
C2084 C2090 1.368 . S
C2085 C2069 1.349 . S
C2085 H2077 0.950 . S
C2085 C2083 1.327 . S
C2086 C2074 1.349 . S
C2086 H2080 0.950 . S
C2086 C2087 1.327 . S
C2087 H2081 0.950 . S
C2087 C2086 1.327 . S
C2087 C2091 1.429 . S
C2088 C2071 1.574 . S
C2088 H2082 0.949 . S
C2088 C2092 1.368 . S
C2089 C2070 1.429 . S
C2089 C2083 1.429 . S
C2089 C2090 1.523 . S
C2090 C2071 1.368 . S
C2090 C2084 1.368 . S
C2090 C2089 1.523 . S
C2091 C2075 1.429 . S
C2091 C2087 1.429 . S
C2091 C2092 1.523 . S
C2092 C2076 1.368 . S
C2092 C2088 1.368 . S
C2092 C2091 1.523 . S
H2093 C2068 0.950 . S
H2094 C2070 0.950 . S
H2095 C2071 0.949 . S
H2096 C2073 0.950 . S
H2097 C2075 0.950 . S
C2098 C2099 1.349 . S
C2098 C2100 1.327 . S
C2098 H2123 0.950 . S
C2099 C2098 1.349 . S
C2099 C2115 1.349 . S
C2100 C2098 1.327 . S
C2100 C2119 1.429 . S
C2100 H2124 0.950 . S
C2101 C2118 1.574 . S
C2101 C2120 1.368 . S
C2101 H2125 0.949 . S
H2102 C2106 0.949 . S
C2103 C2104 1.349 . S
C2103 C2105 1.327 . S
C2103 H2126 0.950 . S
C2104 C2103 1.349 . S
C2104 C2116 1.349 . S
C2105 C2103 1.327 . S
C2105 C2121 1.429 . S
C2105 H2127 0.950 . S
C2106 H2102 0.949 . S
C2106 C2114 1.574 . S
C2106 C2122 1.368 . S
H2107 C2115 0.950 . S
H2108 C2113 0.950 . S
H2109 C2114 0.949 . S
H2110 C2116 0.950 . S
H2111 C2117 0.950 . S
H2112 C2118 0.949 . S
C2113 H2108 0.950 . S
C2113 C2115 1.327 . S
C2113 C2119 1.429 . S
C2114 C2106 1.574 . S
C2114 H2109 0.949 . S
C2114 C2120 1.368 . S
C2115 C2099 1.349 . S
C2115 H2107 0.950 . S
C2115 C2113 1.327 . S
C2116 C2104 1.349 . S
C2116 H2110 0.950 . S
C2116 C2117 1.327 . S
C2117 H2111 0.950 . S
C2117 C2116 1.327 . S
C2117 C2121 1.429 . S
C2118 C2101 1.574 . S
C2118 H2112 0.949 . S
C2118 C2122 1.368 . S
C2119 C2100 1.429 . S
C2119 C2113 1.429 . S
C2119 C2120 1.523 . S
C2120 C2101 1.368 . S
C2120 C2114 1.368 . S
C2120 C2119 1.523 . S
C2121 C2105 1.429 . S
C2121 C2117 1.429 . S
C2121 C2122 1.523 . S
C2122 C2106 1.368 . S
C2122 C2118 1.368 . S
C2122 C2121 1.523 . S
H2123 C2098 0.950 . S
H2124 C2100 0.950 . S
H2125 C2101 0.949 . S
H2126 C2103 0.950 . S
H2127 C2105 0.950 . S
C2128 C2129 1.349 . S
C2128 C2130 1.327 . S
C2128 H2153 0.950 . S
C2129 C2128 1.349 . S
C2129 C2145 1.349 . S
C2130 C2128 1.327 . S
C2130 C2149 1.429 . S
C2130 H2154 0.950 . S
C2131 C2148 1.574 . S
C2131 C2150 1.368 . S
C2131 H2155 0.949 . S
H2132 C2136 0.949 . S
C2133 C2134 1.349 . S
C2133 C2135 1.327 . S
C2133 H2156 0.950 . S
C2134 C2133 1.349 . S
C2134 C2146 1.349 . S
C2135 C2133 1.327 . S
C2135 C2151 1.429 . S
C2135 H2157 0.950 . S
C2136 H2132 0.949 . S
C2136 C2144 1.574 . S
C2136 C2152 1.368 . S
H2137 C2145 0.950 . S
H2138 C2143 0.950 . S
H2139 C2144 0.949 . S
H2140 C2146 0.950 . S
H2141 C2147 0.950 . S
H2142 C2148 0.949 . S
C2143 H2138 0.950 . S
C2143 C2145 1.327 . S
C2143 C2149 1.429 . S
C2144 C2136 1.574 . S
C2144 H2139 0.949 . S
C2144 C2150 1.368 . S
C2145 C2129 1.349 . S
C2145 H2137 0.950 . S
C2145 C2143 1.327 . S
C2146 C2134 1.349 . S
C2146 H2140 0.950 . S
C2146 C2147 1.327 . S
C2147 H2141 0.950 . S
C2147 C2146 1.327 . S
C2147 C2151 1.429 . S
C2148 C2131 1.574 . S
C2148 H2142 0.949 . S
C2148 C2152 1.368 . S
C2149 C2130 1.429 . S
C2149 C2143 1.429 . S
C2149 C2150 1.523 . S
C2150 C2131 1.368 . S
C2150 C2144 1.368 . S
C2150 C2149 1.523 . S
C2151 C2135 1.429 . S
C2151 C2147 1.429 . S
C2151 C2152 1.523 . S
C2152 C2136 1.368 . S
C2152 C2148 1.368 . S
C2152 C2151 1.523 . S
H2153 C2128 0.950 . S
H2154 C2130 0.950 . S
H2155 C2131 0.949 . S
H2156 C2133 0.950 . S
H2157 C2135 0.950 . S
C2158 C2159 1.349 . S
C2158 C2160 1.327 . S
C2158 H2183 0.950 . S
C2159 C2158 1.349 . S
C2159 C2175 1.349 . S
C2160 C2158 1.327 . S
C2160 C2179 1.429 . S
C2160 H2184 0.950 . S
C2161 C2178 1.574 . S
C2161 C2180 1.368 . S
C2161 H2185 0.949 . S
H2162 C2166 0.949 . S
C2163 C2164 1.349 . S
C2163 C2165 1.327 . S
C2163 H2186 0.950 . S
C2164 C2163 1.349 . S
C2164 C2176 1.349 . S
C2165 C2163 1.327 . S
C2165 C2181 1.429 . S
C2165 H2187 0.950 . S
C2166 H2162 0.949 . S
C2166 C2174 1.574 . S
C2166 C2182 1.368 . S
H2167 C2175 0.950 . S
H2168 C2173 0.950 . S
H2169 C2174 0.949 . S
H2170 C2176 0.950 . S
H2171 C2177 0.950 . S
H2172 C2178 0.949 . S
C2173 H2168 0.950 . S
C2173 C2175 1.327 . S
C2173 C2179 1.429 . S
C2174 C2166 1.574 . S
C2174 H2169 0.949 . S
C2174 C2180 1.368 . S
C2175 C2159 1.349 . S
C2175 H2167 0.950 . S
C2175 C2173 1.327 . S
C2176 C2164 1.349 . S
C2176 H2170 0.950 . S
C2176 C2177 1.327 . S
C2177 H2171 0.950 . S
C2177 C2176 1.327 . S
C2177 C2181 1.429 . S
C2178 C2161 1.574 . S
C2178 H2172 0.949 . S
C2178 C2182 1.368 . S
C2179 C2160 1.429 . S
C2179 C2173 1.429 . S
C2179 C2180 1.523 . S
C2180 C2161 1.368 . S
C2180 C2174 1.368 . S
C2180 C2179 1.523 . S
C2181 C2165 1.429 . S
C2181 C2177 1.429 . S
C2181 C2182 1.523 . S
C2182 C2166 1.368 . S
C2182 C2178 1.368 . S
C2182 C2181 1.523 . S
H2183 C2158 0.950 . S
H2184 C2160 0.950 . S
H2185 C2161 0.949 . S
H2186 C2163 0.950 . S
H2187 C2165 0.950 . S
C2188 C2189 1.349 . S
C2188 C2190 1.327 . S
C2188 H2213 0.950 . S
C2189 C2188 1.349 . S
C2189 C2205 1.349 . S
C2190 C2188 1.327 . S
C2190 C2209 1.429 . S
C2190 H2214 0.950 . S
C2191 C2208 1.574 . S
C2191 C2210 1.368 . S
C2191 H2215 0.949 . S
H2192 C2196 0.949 . S
C2193 C2194 1.349 . S
C2193 C2195 1.327 . S
C2193 H2216 0.950 . S
C2194 C2193 1.349 . S
C2194 C2206 1.349 . S
C2195 C2193 1.327 . S
C2195 C2211 1.429 . S
C2195 H2217 0.950 . S
C2196 H2192 0.949 . S
C2196 C2204 1.574 . S
C2196 C2212 1.368 . S
H2197 C2205 0.950 . S
H2198 C2203 0.950 . S
H2199 C2204 0.949 . S
H2200 C2206 0.950 . S
H2201 C2207 0.950 . S
H2202 C2208 0.949 . S
C2203 H2198 0.950 . S
C2203 C2205 1.327 . S
C2203 C2209 1.429 . S
C2204 C2196 1.574 . S
C2204 H2199 0.949 . S
C2204 C2210 1.368 . S
C2205 C2189 1.349 . S
C2205 H2197 0.950 . S
C2205 C2203 1.327 . S
C2206 C2194 1.349 . S
C2206 H2200 0.950 . S
C2206 C2207 1.327 . S
C2207 H2201 0.950 . S
C2207 C2206 1.327 . S
C2207 C2211 1.429 . S
C2208 C2191 1.574 . S
C2208 H2202 0.949 . S
C2208 C2212 1.368 . S
C2209 C2190 1.429 . S
C2209 C2203 1.429 . S
C2209 C2210 1.523 . S
C2210 C2191 1.368 . S
C2210 C2204 1.368 . S
C2210 C2209 1.523 . S
C2211 C2195 1.429 . S
C2211 C2207 1.429 . S
C2211 C2212 1.523 . S
C2212 C2196 1.368 . S
C2212 C2208 1.368 . S
C2212 C2211 1.523 . S
H2213 C2188 0.950 . S
H2214 C2190 0.950 . S
H2215 C2191 0.949 . S
H2216 C2193 0.950 . S
H2217 C2195 0.950 . S
C2218 C2219 1.349 . S
C2218 C2220 1.327 . S
C2218 H2243 0.950 . S
C2219 C2218 1.349 . S
C2219 C2235 1.349 . S
C2220 C2218 1.327 . S
C2220 C2239 1.429 . S
C2220 H2244 0.950 . S
C2221 C2238 1.574 . S
C2221 C2240 1.368 . S
C2221 H2245 0.949 . S
H2222 C2226 0.949 . S
C2223 C2224 1.349 . S
C2223 C2225 1.327 . S
C2223 H2246 0.950 . S
C2224 C2223 1.349 . S
C2224 C2236 1.349 . S
C2225 C2223 1.327 . S
C2225 C2241 1.429 . S
C2225 H2247 0.950 . S
C2226 H2222 0.949 . S
C2226 C2234 1.574 . S
C2226 C2242 1.368 . S
H2227 C2235 0.950 . S
H2228 C2233 0.950 . S
H2229 C2234 0.949 . S
H2230 C2236 0.950 . S
H2231 C2237 0.950 . S
H2232 C2238 0.949 . S
C2233 H2228 0.950 . S
C2233 C2235 1.327 . S
C2233 C2239 1.429 . S
C2234 C2226 1.574 . S
C2234 H2229 0.949 . S
C2234 C2240 1.368 . S
C2235 C2219 1.349 . S
C2235 H2227 0.950 . S
C2235 C2233 1.327 . S
C2236 C2224 1.349 . S
C2236 H2230 0.950 . S
C2236 C2237 1.327 . S
C2237 H2231 0.950 . S
C2237 C2236 1.327 . S
C2237 C2241 1.429 . S
C2238 C2221 1.574 . S
C2238 H2232 0.949 . S
C2238 C2242 1.368 . S
C2239 C2220 1.429 . S
C2239 C2233 1.429 . S
C2239 C2240 1.523 . S
C2240 C2221 1.368 . S
C2240 C2234 1.368 . S
C2240 C2239 1.523 . S
C2241 C2225 1.429 . S
C2241 C2237 1.429 . S
C2241 C2242 1.523 . S
C2242 C2226 1.368 . S
C2242 C2238 1.368 . S
C2242 C2241 1.523 . S
H2243 C2218 0.950 . S
H2244 C2220 0.950 . S
H2245 C2221 0.949 . S
H2246 C2223 0.950 . S
H2247 C2225 0.950 . S
C2248 C2249 1.349 . S
C2248 C2250 1.327 . S
C2248 H2273 0.950 . S
C2249 C2248 1.349 . S
C2249 C2265 1.349 . S
C2250 C2248 1.327 . S
C2250 C2269 1.429 . S
C2250 H2274 0.950 . S
C2251 C2268 1.574 . S
C2251 C2270 1.368 . S
C2251 H2275 0.949 . S
H2252 C2256 0.949 . S
C2253 C2254 1.349 . S
C2253 C2255 1.327 . S
C2253 H2276 0.950 . S
C2254 C2253 1.349 . S
C2254 C2266 1.349 . S
C2255 C2253 1.327 . S
C2255 C2271 1.429 . S
C2255 H2277 0.950 . S
C2256 H2252 0.949 . S
C2256 C2264 1.574 . S
C2256 C2272 1.368 . S
H2257 C2265 0.950 . S
H2258 C2263 0.950 . S
H2259 C2264 0.949 . S
H2260 C2266 0.950 . S
H2261 C2267 0.950 . S
H2262 C2268 0.949 . S
C2263 H2258 0.950 . S
C2263 C2265 1.327 . S
C2263 C2269 1.429 . S
C2264 C2256 1.574 . S
C2264 H2259 0.949 . S
C2264 C2270 1.368 . S
C2265 C2249 1.349 . S
C2265 H2257 0.950 . S
C2265 C2263 1.327 . S
C2266 C2254 1.349 . S
C2266 H2260 0.950 . S
C2266 C2267 1.327 . S
C2267 H2261 0.950 . S
C2267 C2266 1.327 . S
C2267 C2271 1.429 . S
C2268 C2251 1.574 . S
C2268 H2262 0.949 . S
C2268 C2272 1.368 . S
C2269 C2250 1.429 . S
C2269 C2263 1.429 . S
C2269 C2270 1.523 . S
C2270 C2251 1.368 . S
C2270 C2264 1.368 . S
C2270 C2269 1.523 . S
C2271 C2255 1.429 . S
C2271 C2267 1.429 . S
C2271 C2272 1.523 . S
C2272 C2256 1.368 . S
C2272 C2268 1.368 . S
C2272 C2271 1.523 . S
H2273 C2248 0.950 . S
H2274 C2250 0.950 . S
H2275 C2251 0.949 . S
H2276 C2253 0.950 . S
H2277 C2255 0.950 . S
C2278 C2279 1.349 . S
C2278 C2280 1.327 . S
C2278 H2303 0.950 . S
C2279 C2278 1.349 . S
C2279 C2295 1.349 . S
C2280 C2278 1.327 . S
C2280 C2299 1.429 . S
C2280 H2304 0.950 . S
C2281 C2298 1.574 . S
C2281 C2300 1.368 . S
C2281 H2305 0.949 . S
H2282 C2286 0.949 . S
C2283 C2284 1.349 . S
C2283 C2285 1.327 . S
C2283 H2306 0.950 . S
C2284 C2283 1.349 . S
C2284 C2296 1.349 . S
C2285 C2283 1.327 . S
C2285 C2301 1.429 . S
C2285 H2307 0.950 . S
C2286 H2282 0.949 . S
C2286 C2294 1.574 . S
C2286 C2302 1.368 . S
H2287 C2295 0.950 . S
H2288 C2293 0.950 . S
H2289 C2294 0.949 . S
H2290 C2296 0.950 . S
H2291 C2297 0.950 . S
H2292 C2298 0.949 . S
C2293 H2288 0.950 . S
C2293 C2295 1.327 . S
C2293 C2299 1.429 . S
C2294 C2286 1.574 . S
C2294 H2289 0.949 . S
C2294 C2300 1.368 . S
C2295 C2279 1.349 . S
C2295 H2287 0.950 . S
C2295 C2293 1.327 . S
C2296 C2284 1.349 . S
C2296 H2290 0.950 . S
C2296 C2297 1.327 . S
C2297 H2291 0.950 . S
C2297 C2296 1.327 . S
C2297 C2301 1.429 . S
C2298 C2281 1.574 . S
C2298 H2292 0.949 . S
C2298 C2302 1.368 . S
C2299 C2280 1.429 . S
C2299 C2293 1.429 . S
C2299 C2300 1.523 . S
C2300 C2281 1.368 . S
C2300 C2294 1.368 . S
C2300 C2299 1.523 . S
C2301 C2285 1.429 . S
C2301 C2297 1.429 . S
C2301 C2302 1.523 . S
C2302 C2286 1.368 . S
C2302 C2298 1.368 . S
C2302 C2301 1.523 . S
H2303 C2278 0.950 . S
H2304 C2280 0.950 . S
H2305 C2281 0.949 . S
H2306 C2283 0.950 . S
H2307 C2285 0.950 . S
C2308 C2309 1.349 . S
C2308 C2310 1.327 . S
C2308 H2333 0.950 . S
C2309 C2308 1.349 . S
C2309 C2325 1.349 . S
C2310 C2308 1.327 . S
C2310 C2329 1.429 . S
C2310 H2334 0.950 . S
C2311 C2328 1.574 . S
C2311 C2330 1.368 . S
C2311 H2335 0.949 . S
H2312 C2316 0.949 . S
C2313 C2314 1.349 . S
C2313 C2315 1.327 . S
C2313 H2336 0.950 . S
C2314 C2313 1.349 . S
C2314 C2326 1.349 . S
C2315 C2313 1.327 . S
C2315 C2331 1.429 . S
C2315 H2337 0.950 . S
C2316 H2312 0.949 . S
C2316 C2324 1.574 . S
C2316 C2332 1.368 . S
H2317 C2325 0.950 . S
H2318 C2323 0.950 . S
H2319 C2324 0.949 . S
H2320 C2326 0.950 . S
H2321 C2327 0.950 . S
H2322 C2328 0.949 . S
C2323 H2318 0.950 . S
C2323 C2325 1.327 . S
C2323 C2329 1.429 . S
C2324 C2316 1.574 . S
C2324 H2319 0.949 . S
C2324 C2330 1.368 . S
C2325 C2309 1.349 . S
C2325 H2317 0.950 . S
C2325 C2323 1.327 . S
C2326 C2314 1.349 . S
C2326 H2320 0.950 . S
C2326 C2327 1.327 . S
C2327 H2321 0.950 . S
C2327 C2326 1.327 . S
C2327 C2331 1.429 . S
C2328 C2311 1.574 . S
C2328 H2322 0.949 . S
C2328 C2332 1.368 . S
C2329 C2310 1.429 . S
C2329 C2323 1.429 . S
C2329 C2330 1.523 . S
C2330 C2311 1.368 . S
C2330 C2324 1.368 . S
C2330 C2329 1.523 . S
C2331 C2315 1.429 . S
C2331 C2327 1.429 . S
C2331 C2332 1.523 . S
C2332 C2316 1.368 . S
C2332 C2328 1.368 . S
C2332 C2331 1.523 . S
H2333 C2308 0.950 . S
H2334 C2310 0.950 . S
H2335 C2311 0.949 . S
H2336 C2313 0.950 . S
H2337 C2315 0.950 . S
C2338 C2339 1.349 . S
C2338 C2340 1.327 . S
C2338 H2363 0.950 . S
C2339 C2338 1.349 . S
C2339 C2355 1.349 . S
C2340 C2338 1.327 . S
C2340 C2359 1.429 . S
C2340 H2364 0.950 . S
C2341 C2358 1.574 . S
C2341 C2360 1.368 . S
C2341 H2365 0.949 . S
H2342 C2346 0.949 . S
C2343 C2344 1.349 . S
C2343 C2345 1.327 . S
C2343 H2366 0.950 . S
C2344 C2343 1.349 . S
C2344 C2356 1.349 . S
C2345 C2343 1.327 . S
C2345 C2361 1.429 . S
C2345 H2367 0.950 . S
C2346 H2342 0.949 . S
C2346 C2354 1.574 . S
C2346 C2362 1.368 . S
H2347 C2355 0.950 . S
H2348 C2353 0.950 . S
H2349 C2354 0.949 . S
H2350 C2356 0.950 . S
H2351 C2357 0.950 . S
H2352 C2358 0.949 . S
C2353 H2348 0.950 . S
C2353 C2355 1.327 . S
C2353 C2359 1.429 . S
C2354 C2346 1.574 . S
C2354 H2349 0.949 . S
C2354 C2360 1.368 . S
C2355 C2339 1.349 . S
C2355 H2347 0.950 . S
C2355 C2353 1.327 . S
C2356 C2344 1.349 . S
C2356 H2350 0.950 . S
C2356 C2357 1.327 . S
C2357 H2351 0.950 . S
C2357 C2356 1.327 . S
C2357 C2361 1.429 . S
C2358 C2341 1.574 . S
C2358 H2352 0.949 . S
C2358 C2362 1.368 . S
C2359 C2340 1.429 . S
C2359 C2353 1.429 . S
C2359 C2360 1.523 . S
C2360 C2341 1.368 . S
C2360 C2354 1.368 . S
C2360 C2359 1.523 . S
C2361 C2345 1.429 . S
C2361 C2357 1.429 . S
C2361 C2362 1.523 . S
C2362 C2346 1.368 . S
C2362 C2358 1.368 . S
C2362 C2361 1.523 . S
H2363 C2338 0.950 . S
H2364 C2340 0.950 . S
H2365 C2341 0.949 . S
H2366 C2343 0.950 . S
H2367 C2345 0.950 . S
C449 C119 1.495 . S
C454 C7 1.495 . S
C479 C357 1.495 . S
C484 C21 1.495 . S
C509 C147 1.495 . S
C514 C35 1.495 . S
C539 C385 1.495 . S
C544 C49 1.495 . S
C569 C175 1.495 . S
C574 C63 1.495 . S
C599 C77 1.495 . S
C604 C413 1.495 . S
C629 C91 1.495 . S
C634 C203 1.495 . S
C659 C105 1.495 . S
C664 C441 1.495 . S
C689 C245 1.495 . S
C694 C133 1.495 . S
C719 C273 1.495 . S
C724 C161 1.495 . S
C749 C189 1.495 . S
C754 C301 1.495 . S
C779 C217 1.495 . S
C784 C329 1.495 . S
C809 C231 1.495 . S
C814 C343 1.495 . S
C839 C371 1.494 . S
C844 C259 1.494 . S
C869 C287 1.494 . S
C874 C399 1.494 . S
C899 C427 1.495 . S
C904 C315 1.495 . S
C929 C261 1.602 . S
C934 C9 1.602 . S
C959 C275 1.602 . S
C964 C23 1.602 . S
C989 C37 1.602 . S
C994 C233 1.602 . S
C1019 C51 1.602 . S
C1024 C247 1.602 . S
C1049 C317 1.602 . S
C1054 C65 1.602 . S
C1079 C79 1.602 . S
C1084 C331 1.602 . S
C1109 C289 1.602 . S
C1114 C93 1.602 . S
C1139 C303 1.602 . S
C1144 C107 1.602 . S
C1169 C121 1.602 . S
C1174 C373 1.602 . S
C1199 C387 1.602 . S
C1204 C135 1.602 . S
C1229 C149 1.602 . S
C1234 C345 1.602 . S
C1259 C163 1.602 . S
C1264 C359 1.602 . S
C1289 C177 1.602 . S
C1294 C429 1.602 . S
C1319 C191 1.602 . S
C1324 C443 1.602 . S
C1349 C401 1.602 . S
C1354 C205 1.602 . S
C1379 C415 1.602 . S
C1384 C219 1.602 . S
C1409 C92 1.562 . S
C1414 C8 1.562 . S
C1439 C106 1.562 . S
C1444 C22 1.562 . S
C1469 C64 1.562 . S
C1474 C36 1.562 . S
C1499 C50 1.562 . S
C1504 C78 1.562 . S
C1529 C204 1.562 . S
C1534 C120 1.562 . S
C1559 C218 1.562 . S
C1564 C134 1.562 . S
C1589 C176 1.562 . S
C1594 C148 1.562 . S
C1619 C190 1.562 . S
C1624 C162 1.562 . S
C1649 C316 1.562 . S
C1654 C232 1.562 . S
C1679 C330 1.562 . S
C1684 C246 1.562 . S
C1709 C260 1.562 . S
C1714 C288 1.562 . S
C1739 C274 1.562 . S
C1744 C302 1.562 . S
C1769 C428 1.562 . S
C1774 C344 1.562 . S
C1799 C442 1.562 . S
C1804 C358 1.562 . S
C1829 C372 1.562 . S
C1834 C400 1.562 . S
C1859 C386 1.562 . S
C1864 C414 1.562 . S
C1889 C3 1.368 . S
C1894 C297 1.368 . S
C1919 C311 1.368 . S
C1924 C17 1.368 . S
C1949 C325 1.368 . S
C1954 C31 1.368 . S
C1979 C45 1.368 . S
C1984 C283 1.368 . S
C2009 C269 1.368 . S
C2014 C59 1.368 . S
C2039 C73 1.368 . S
C2044 C227 1.368 . S
C2069 C241 1.368 . S
C2074 C87 1.368 . S
C2099 C101 1.368 . S
C2104 C255 1.368 . S
C2129 C409 1.368 . S
C2134 C115 1.368 . S
C2159 C423 1.368 . S
C2164 C129 1.368 . S
C2189 C143 1.368 . S
C2194 C437 1.368 . S
C2219 C395 1.368 . S
C2224 C157 1.368 . S
C2249 C381 1.368 . S
C2254 C171 1.368 . S
C2279 C185 1.368 . S
C2284 C339 1.368 . S
C2309 C353 1.368 . S
C2314 C199 1.368 . S
C2339 C213 1.368 . S
C2344 C367 1.368 . S
