# Generated by pormake.
# Topology usf, (4)-cn, num edge types: 1
# Building blocks:
#     Node 0, Type 0, BuildingBlock: MUDLON_clean_sbu_0, # of connection points: 4
#     Node 1, Type 0, BuildingBlock: MUDLON_clean_sbu_0, # of connection points: 4
#     Node 2, Type 0, BuildingBlock: MUDLON_clean_sbu_0, # of connection points: 4
#     Node 3, Type 0, BuildingBlock: MUDLON_clean_sbu_0, # of connection points: 4
#     Node 4, Type 0, BuildingBlock: MUDLON_clean_sbu_0, # of connection points: 4
#     Node 5, Type 0, BuildingBlock: MUDLON_clean_sbu_0, # of connection points: 4
#     Node 6, Type 0, BuildingBlock: MUDLON_clean_sbu_0, # of connection points: 4
#     Node 7, Type 0, BuildingBlock: MUDLON_clean_sbu_0, # of connection points: 4
#     Node 8, Type 0, BuildingBlock: MUDLON_clean_sbu_0, # of connection points: 4
#     Node 9, Type 0, BuildingBlock: MUDLON_clean_sbu_0, # of connection points: 4
#     Node 10, Type 0, BuildingBlock: MUDLON_clean_sbu_0, # of connection points: 4
#     Node 11, Type 0, BuildingBlock: MUDLON_clean_sbu_0, # of connection points: 4
#     Node 12, Type 0, BuildingBlock: MUDLON_clean_sbu_0, # of connection points: 4
#     Node 13, Type 0, BuildingBlock: MUDLON_clean_sbu_0, # of connection points: 4
#     Node 14, Type 0, BuildingBlock: MUDLON_clean_sbu_0, # of connection points: 4
#     Node 15, Type 0, BuildingBlock: MUDLON_clean_sbu_0, # of connection points: 4
#     Node 16, Type 0, BuildingBlock: MUDLON_clean_sbu_0, # of connection points: 4
#     Node 17, Type 0, BuildingBlock: MUDLON_clean_sbu_0, # of connection points: 4
#     Edge 18, Type (0, 0), BuildingBlock: OJICUG_clean_linker_0, # of connection points: 2
#     Edge 19, Type (0, 0), BuildingBlock: OJICUG_clean_linker_0, # of connection points: 2
#     Edge 20, Type (0, 0), BuildingBlock: OJICUG_clean_linker_0, # of connection points: 2
#     Edge 21, Type (0, 0), BuildingBlock: OJICUG_clean_linker_0, # of connection points: 2
#     Edge 22, Type (0, 0), BuildingBlock: OJICUG_clean_linker_0, # of connection points: 2
#     Edge 23, Type (0, 0), BuildingBlock: OJICUG_clean_linker_0, # of connection points: 2
#     Edge 24, Type (0, 0), BuildingBlock: OJICUG_clean_linker_0, # of connection points: 2
#     Edge 25, Type (0, 0), BuildingBlock: OJICUG_clean_linker_0, # of connection points: 2
#     Edge 26, Type (0, 0), BuildingBlock: OJICUG_clean_linker_0, # of connection points: 2
#     Edge 27, Type (0, 0), BuildingBlock: OJICUG_clean_linker_0, # of connection points: 2
#     Edge 28, Type (0, 0), BuildingBlock: OJICUG_clean_linker_0, # of connection points: 2
#     Edge 29, Type (0, 0), BuildingBlock: OJICUG_clean_linker_0, # of connection points: 2
#     Edge 30, Type (0, 0), BuildingBlock: OJICUG_clean_linker_0, # of connection points: 2
#     Edge 31, Type (0, 0), BuildingBlock: OJICUG_clean_linker_0, # of connection points: 2
#     Edge 32, Type (0, 0), BuildingBlock: OJICUG_clean_linker_0, # of connection points: 2
#     Edge 33, Type (0, 0), BuildingBlock: OJICUG_clean_linker_0, # of connection points: 2
#     Edge 34, Type (0, 0), BuildingBlock: OJICUG_clean_linker_0, # of connection points: 2
#     Edge 35, Type (0, 0), BuildingBlock: OJICUG_clean_linker_0, # of connection points: 2
#     Edge 36, Type (0, 0), BuildingBlock: OJICUG_clean_linker_0, # of connection points: 2
#     Edge 37, Type (0, 0), BuildingBlock: OJICUG_clean_linker_0, # of connection points: 2
#     Edge 38, Type (0, 0), BuildingBlock: OJICUG_clean_linker_0, # of connection points: 2
#     Edge 39, Type (0, 0), BuildingBlock: OJICUG_clean_linker_0, # of connection points: 2
#     Edge 40, Type (0, 0), BuildingBlock: OJICUG_clean_linker_0, # of connection points: 2
#     Edge 41, Type (0, 0), BuildingBlock: OJICUG_clean_linker_0, # of connection points: 2
#     Edge 42, Type (0, 0), BuildingBlock: OJICUG_clean_linker_0, # of connection points: 2
#     Edge 43, Type (0, 0), BuildingBlock: OJICUG_clean_linker_0, # of connection points: 2
#     Edge 44, Type (0, 0), BuildingBlock: OJICUG_clean_linker_0, # of connection points: 2
#     Edge 45, Type (0, 0), BuildingBlock: OJICUG_clean_linker_0, # of connection points: 2
#     Edge 46, Type (0, 0), BuildingBlock: OJICUG_clean_linker_0, # of connection points: 2
#     Edge 47, Type (0, 0), BuildingBlock: OJICUG_clean_linker_0, # of connection points: 2
#     Edge 48, Type (0, 0), BuildingBlock: OJICUG_clean_linker_0, # of connection points: 2
#     Edge 49, Type (0, 0), BuildingBlock: OJICUG_clean_linker_0, # of connection points: 2
#     Edge 50, Type (0, 0), BuildingBlock: OJICUG_clean_linker_0, # of connection points: 2
#     Edge 51, Type (0, 0), BuildingBlock: OJICUG_clean_linker_0, # of connection points: 2
#     Edge 52, Type (0, 0), BuildingBlock: OJICUG_clean_linker_0, # of connection points: 2
#     Edge 53, Type (0, 0), BuildingBlock: OJICUG_clean_linker_0, # of connection points: 2
# Relax obj value: 0.161
# Max RMSD: 0.154
# Mean RMSD: 0.149
data_MOF--net-usf--node1-MUDLON_clean_sbu_0--edge1-OJICUG_clean_linker_0
_symmetry_space_group_name_H-M    P1
_symmetry_Int_Tables_number       1
_symmetry_cell_setting            triclinic
loop_
_symmetry_equiv_pos_as_xyz
'x, y, z'
_cell_length_a     36.183473
_cell_length_b     36.63666
_cell_length_c     21.413902
_cell_angle_alpha  90.693531
_cell_angle_beta   89.870313
_cell_angle_gamma 119.88815
loop_
_atom_site_label
_atom_site_type_symbol
_atom_site_fract_x
_atom_site_fract_y
_atom_site_fract_z
_atom_type_partial_charge
Mg0 Mg 0.96226 0.4805 0.99831 0.0
C1 C 0.98406 0.40419 0.98945 0.0
O2 O 0.96566 0.3942 0.04437 0.0
C3 C 0.90892 0.52715 0.0387 0.0
O4 O 0.87517 0.49371 0.01601 0.0
C5 C 0.92978 0.49446 0.86744 0.0
O6 O 0.89214 0.46581 0.88752 0.0
O7 O 0.96281 0.50404 0.90002 0.0
O8 O 0.98557 0.43516 0.96048 0.0
O9 O 0.96404 0.46292 0.09972 0.0
C10 C 0.93197 0.45422 0.13397 0.0
O11 O 0.89655 0.44795 0.10748 0.0
O12 O 0.94513 0.52933 0.03615 0.0
Mg13 Mg 0.53842 0.54459 0.01266 0.0
C14 C 0.56949 0.63633 0.96294 0.0
O15 O 0.5289 0.61789 0.94781 0.0
C16 C 0.46654 0.46676 0.08504 0.0
O17 O 0.47042 0.4971 0.12261 0.0
C18 C 0.5311 0.50646 0.88506 0.0
O19 O 0.55007 0.49118 0.9196 0.0
O20 O 0.51908 0.53029 0.91081 0.0
O21 O 0.58366 0.61468 0.98936 0.0
O22 O 0.56473 0.55579 0.1119 0.0
C23 C 0.57538 0.52974 0.13208 0.0
O24 O 0.56953 0.4979 0.0963 0.0
O25 O 0.48993 0.47603 0.03664 0.0
Mg26 Mg 0.58906 1.01307 0.04461 0.0
C27 C 0.62023 0.05259 0.91844 0.0
O28 O 0.64965 0.04299 0.93259 0.0
C29 C 0.59318 0.0575 0.17207 0.0
O30 O 0.63466 0.07718 0.16408 0.0
C31 C 0.5218 0.93877 0.96715 0.0
O32 O 0.54684 0.96105 0.92144 0.0
O33 O 0.5344 0.95012 0.02336 0.0
O34 O 0.59256 0.04746 0.95961 0.0
O35 O 0.65309 0.02157 0.05997 0.0
C36 C 0.6696 1.01823 0.11067 0.0
O37 O 0.64557 1.00315 0.16037 0.0
O38 O 0.56889 0.03281 0.12918 0.0
Mg39 Mg 0.5119 1.0144 0.55125 0.0
C40 C 0.52773 0.93993 0.56844 0.0
O41 O 0.53288 0.95242 0.62712 0.0
C42 C 0.43012 1.00127 0.6138 0.0
O43 O 0.44373 0.98573 0.65725 0.0
C44 C 0.52053 0.03766 0.41855 0.0
O45 O 0.48031 1.00846 0.42417 0.0
O46 O 0.54341 0.0507 0.46783 0.0
O47 O 0.51408 0.95664 0.5297 0.0
O48 O 0.54413 0.04046 0.64077 0.0
C49 C 0.58167 0.04939 0.65624 0.0
O50 O 0.60628 0.04582 0.61429 0.0
O51 O 0.45011 1.01201 0.56209 0.0
Mg52 Mg 0.9756 0.54823 0.51101 0.0
C53 C 1.02204 0.63686 0.46673 0.0
O54 O 0.98231 0.62424 0.4512 0.0
C55 C 0.94754 0.46856 0.56912 0.0
O56 O 0.91352 0.47019 0.55211 0.0
C57 C 0.96759 0.50574 0.3924 0.0
O58 O 1.00197 0.50922 0.41884 0.0
O59 O 0.94678 0.52014 0.42157 0.0
O60 O 1.03037 0.6109 0.49369 0.0
O61 O 0.93635 0.55325 0.58314 0.0
C62 C 0.95887 0.57494 0.62941 0.0
O63 O 0.99902 0.60278 0.61914 0.0
O64 O 0.9841 0.49955 0.55571 0.0
Mg65 Mg 0.60074 0.53928 0.50696 0.0
C66 C 0.51905 0.50284 0.44784 0.0
O67 O 0.52991 0.47375 0.45366 0.0
C68 C 0.68525 0.58211 0.56494 0.0
O69 O 0.67181 0.54163 0.56878 0.0
C70 C 0.63451 0.54966 0.38593 0.0
O71 O 0.64976 0.58738 0.41104 0.0
O72 O 0.61696 0.5181 0.42193 0.0
O73 O 0.54498 0.53998 0.46806 0.0
O74 O 0.57475 0.50218 0.59055 0.0
C75 C 0.55306 0.51557 0.61987 0.0
O76 O 0.54777 0.54498 0.59401 0.0
O77 O 0.66053 0.59346 0.54016 0.0
Mg78 Mg 0.69747 0.86622 0.40392 0.0
C79 C 0.62741 0.86494 0.48517 0.0
O80 O 0.64876 0.85742 0.52779 0.0
C81 C 0.69276 0.79443 0.32581 0.0
O82 O 0.68723 0.81572 0.28144 0.0
C83 C 0.7505 0.86803 0.51464 0.0
O84 O 0.74422 0.83326 0.48676 0.0
O85 O 0.73786 0.89067 0.48752 0.0
O86 O 0.63855 0.86692 0.42822 0.0
O87 O 0.72418 0.90201 0.31806 0.0
C88 C 0.69956 0.90917 0.28449 0.0
O89 O 0.66223 0.90017 0.30716 0.0
O90 O 0.69242 0.80529 0.38243 0.0
Mg91 Mg 0.20399 0.89501 0.36498 0.0
C92 C 0.19279 0.86796 0.23189 0.0
O93 O 0.15352 0.8534 0.25153 0.0
C94 C 0.2438 0.92204 0.491 0.0
O95 O 0.21601 0.93519 0.49066 0.0
C96 C 0.19894 0.9693 0.30961 0.0
O97 O 0.19143 0.94684 0.25816 0.0
O98 O 0.20094 0.95343 0.36129 0.0
O99 O 0.22315 0.88631 0.27128 0.0
O100 O 0.1468 0.83541 0.38924 0.0
C101 C 0.15457 0.80763 0.41107 0.0
O102 O 0.19453 0.81731 0.41784 0.0
O103 O 0.24848 0.90527 0.44128 0.0
Mg104 Mg 0.2556 0.39033 0.3308 0.0
C105 C 0.27081 0.41751 0.1978 0.0
O106 O 0.30005 0.40685 0.20726 0.0
C107 C 0.20042 0.39035 0.43758 0.0
O108 O 0.17033 0.36365 0.39961 0.0
C109 C 0.19273 0.30467 0.27163 0.0
O110 O 0.21 0.32484 0.21984 0.0
O111 O 0.20877 0.32279 0.32377 0.0
O112 O 0.24839 0.41716 0.24403 0.0
O113 O 0.32257 0.4089 0.34447 0.0
C114 C 0.34729 0.44725 0.36045 0.0
O115 O 0.33136 0.4725 0.36495 0.0
O116 O 0.23872 0.40959 0.41831 0.0
Mg117 Mg 0.16758 0.34506 0.83165 0.0
C118 C 0.08846 0.33348 0.90576 0.0
O119 O 0.10276 0.31789 0.94815 0.0
C120 C 0.18 0.27423 0.77437 0.0
O121 O 0.18178 0.2941 0.72284 0.0
C122 C 0.20432 0.40245 0.94825 0.0
O123 O 0.17381 0.411 0.93679 0.0
O124 O 0.21056 0.37923 0.90985 0.0
O125 O 0.10689 0.34335 0.85287 0.0
O126 O 0.18912 0.37586 0.74113 0.0
C127 C 0.16041 0.36825 0.70049 0.0
O128 O 0.12025 0.34511 0.71665 0.0
O129 O 0.17057 0.28608 0.8254 0.0
Mg130 Mg 0.72069 0.90447 0.88653 0.0
C131 C 0.75862 0.87672 0.78147 0.0
O132 O 0.73437 0.83936 0.80536 0.0
C133 C 0.7151 0.92474 0.01612 0.0
O134 O 0.68315 0.92423 0.98625 0.0
C135 C 0.74219 0.99061 0.87159 0.0
O136 O 0.77291 0.99014 0.90348 0.0
O137 O 0.70964 0.95552 0.85664 0.0
O138 O 0.76385 0.90906 0.81174 0.0
O139 O 0.6691 0.83843 0.89154 0.0
C140 C 0.68004 0.8158 0.92276 0.0
O141 O 0.71869 0.83398 0.94664 0.0
O142 O 0.74173 0.91912 0.98433 0.0
Mg143 Mg 0.2672 0.84848 0.85322 0.0
C144 C 0.29257 0.88702 0.72881 0.0
O145 O 0.30576 0.85947 0.72882 0.0
C146 C 0.22189 0.86328 0.96586 0.0
O147 O 0.19042 0.85249 0.92607 0.0
C148 C 0.17579 0.76976 0.8505 0.0
O149 O 0.18096 0.76953 0.91117 0.0
O150 O 0.20757 0.7946 0.81733 0.0
O151 O 0.27751 0.89305 0.77928 0.0
O152 O 0.32718 0.84709 0.86223 0.0
C153 C 0.34099 0.84591 0.91654 0.0
O154 O 0.31548 0.83795 0.96447 0.0
O155 O 0.2566 0.86643 0.94662 0.0
Mg156 Mg 0.34119 0.1673 0.71674 0.0
C157 C 0.27055 0.18084 0.77223 0.0
O158 O 0.29107 0.18279 0.82381 0.0
C159 C 0.32976 0.0747 0.69964 0.0
O160 O 0.30836 0.06325 0.7522 0.0
C161 C 0.3809 0.16199 0.84158 0.0
O162 O 0.37857 0.12844 0.81504 0.0
O163 O 0.3706 0.18489 0.81012 0.0
O164 O 0.28171 0.17061 0.72127 0.0
O165 O 0.3769 0.21322 0.64452 0.0
C166 C 0.40084 0.20717 0.60716 0.0
O167 O 0.40999 0.17755 0.61971 0.0
O168 O 0.34172 0.11121 0.6783 0.0
Mg169 Mg 0.88135 0.22617 0.7156 0.0
C170 C 0.87014 0.20449 0.58441 0.0
O171 O 0.83428 0.20178 0.60328 0.0
C172 C 0.92399 0.25745 0.8397 0.0
O173 O 0.90253 0.27753 0.8349 0.0
C174 C 0.92107 0.31542 0.68533 0.0
O175 O 0.95283 0.30771 0.68753 0.0
O176 O 0.88377 0.28588 0.69903 0.0
O177 O 0.89952 0.21371 0.62452 0.0
O178 O 0.82101 0.16868 0.73743 0.0
C179 C 0.80855 0.16075 0.79378 0.0
O180 O 0.82758 0.19083 0.8359 0.0
O181 O 0.92389 0.23509 0.79357 0.0
Mg182 Mg 0.94656 0.74323 0.69505 0.0
C183 C 0.96867 0.76547 0.56369 0.0
O184 O 0.97619 0.73432 0.57256 0.0
C185 C 0.90852 0.76951 0.80379 0.0
O186 O 0.87561 0.75552 0.76594 0.0
C187 C 0.85822 0.7016 0.64466 0.0
O188 O 0.87334 0.74168 0.63302 0.0
O189 O 0.88239 0.69064 0.67238 0.0
O190 O 0.95971 0.78096 0.61102 0.0
O191 O 0.99972 0.73086 0.7094 0.0
C192 C 1.00589 0.71979 0.76286 0.0
O193 O 0.97676 0.71025 0.80609 0.0
O194 O 0.94246 0.77096 0.78429 0.0
Mg195 Mg 0.86995 0.72489 0.19218 0.0
C196 C 0.79243 0.71635 0.26528 0.0
O197 O 0.80705 0.70226 0.30942 0.0
C198 C 0.89682 0.66496 0.15408 0.0
O199 O 0.9323 0.70082 0.16336 0.0
C200 C 0.9114 0.77231 0.31551 0.0
O201 O 0.88791 0.78984 0.30576 0.0
O202 O 0.91138 0.74663 0.27484 0.0
O203 O 0.81104 0.72563 0.21255 0.0
O204 O 0.89811 0.76081 0.10741 0.0
C205 C 0.87255 0.76106 0.06688 0.0
O206 O 0.83215 0.74475 0.08171 0.0
O207 O 0.86155 0.66355 0.16533 0.0
Mg208 Mg 0.36632 0.22243 0.2223 0.0
C209 C 0.38205 0.17958 0.10961 0.0
O210 O 0.35563 0.14513 0.13931 0.0
C211 C 0.39949 0.25268 0.35176 0.0
O212 O 0.38167 0.27541 0.33892 0.0
C213 C 0.36631 0.29142 0.14968 0.0
O214 O 0.35621 0.26251 0.10593 0.0
O215 O 0.3672 0.28152 0.2062 0.0
O216 O 0.39488 0.21508 0.13641 0.0
O217 O 0.30466 0.16472 0.23256 0.0
C218 C 0.29125 0.14943 0.28649 0.0
O219 O 0.31138 0.17212 0.33599 0.0
O220 O 0.4011 0.22908 0.3089 0.0
Mg221 Mg 0.93311 0.174 0.20459 0.0
C222 C 0.96183 0.21639 0.08119 0.0
O223 O 0.98231 0.19526 0.08411 0.0
C224 C 0.88955 0.1808 0.32119 0.0
O225 O 0.85577 0.15406 0.2889 0.0
C226 C 0.85393 0.1102 0.13471 0.0
O227 O 0.87515 0.13648 0.08983 0.0
O228 O 0.87258 0.11483 0.18707 0.0
O229 O 0.93968 0.21573 0.12799 0.0
O230 O 0.99482 0.17636 0.20936 0.0
C231 C 1.01411 0.1833 0.26164 0.0
O232 O 0.99265 0.1794 0.31307 0.0
O233 O 0.92602 0.19674 0.29577 0.0
C234 C 0.918 0.48178 0.29996 0.0
C235 C 0.95566 0.48795 0.32836 0.0
H236 H 0.88046 0.46531 0.21638 0.0
C237 C 0.98313 0.47852 0.29401 0.0
H238 H 0.89605 0.48844 0.32531 0.0
C239 C 0.97434 0.46543 0.23162 0.0
C240 C 0.93765 0.46103 0.20235 0.0
H241 H 1.0123 0.48263 0.31459 0.0
H242 H 0.997 0.46005 0.20578 0.0
C243 C 0.90896 0.46822 0.23764 0.0
C244 C 0.60377 0.50444 0.28967 0.0
C245 C 0.62532 0.54451 0.31808 0.0
H246 H 0.57115 0.4684 0.2079 0.0
C247 C 0.63283 0.57984 0.28301 0.0
H248 H 0.59734 0.47664 0.31546 0.0
C249 C 0.61679 0.57499 0.22249 0.0
C250 C 0.5939 0.53487 0.195 0.0
H251 H 0.64941 0.61127 0.30322 0.0
H252 H 0.62197 0.60266 0.19741 0.0
C253 C 0.58857 0.49972 0.22832 0.0
C254 C 0.60146 0.07698 0.28662 0.0
C255 C 0.57495 0.0586 0.23401 0.0
H256 H 0.60524 0.08512 0.38635 0.0
C257 C 0.53056 0.03771 0.24236 0.0
H258 H 0.63581 0.09338 0.28195 0.0
C259 C 0.51311 0.03314 0.30203 0.0
C260 C 0.53954 0.0492 0.35513 0.0
H261 H 0.50913 0.02346 0.20298 0.0
H262 H 0.47876 1.01546 0.30666 0.0
C263 C 0.58394 0.07229 0.34656 0.0
C264 C 0.90933 0.51934 0.70391 0.0
C265 C 0.94647 0.5582 0.69341 0.0
H266 H 0.87494 0.46848 0.76738 0.0
C267 C 0.97568 0.57749 0.7428 0.0
H268 H 0.88621 0.50354 0.66689 0.0
C269 C 0.96971 0.55697 0.79951 0.0
C270 C 0.93398 0.51704 0.80873 0.0
H271 H 1.00445 0.60755 0.73668 0.0
H272 H 0.99363 0.57209 0.83578 0.0
C273 C 0.90303 0.49906 0.76127 0.0
C274 C 0.51535 0.51977 0.71461 0.0
C275 C 0.54038 0.50491 0.6857 0.0
H276 H 0.49259 0.53176 0.80027 0.0
C277 C 0.55729 0.48513 0.72222 0.0
H278 H 0.50136 0.53469 0.68763 0.0
C279 C 0.55204 0.48331 0.7871 0.0
C280 C 0.52995 0.50137 0.81639 0.0
H281 H 0.57658 0.47328 0.70127 0.0
H282 H 0.56728 0.4698 0.81447 0.0
C283 C 0.51029 0.51813 0.77925 0.0
C284 C 0.5761 0.05834 0.83259 0.0
C285 C 0.61384 0.05965 0.85203 0.0
H286 H 0.53644 0.0543 0.75573 0.0
C287 C 0.64312 0.06247 0.80626 0.0
H288 H 0.55282 0.05613 0.86646 0.0
C289 C 0.6337 0.06131 0.74261 0.0
C290 C 0.59472 0.05727 0.72314 0.0
H291 H 0.6726 0.06375 0.81953 0.0
H292 H 0.65623 0.06179 0.70878 0.0
C293 C 0.56665 0.05713 0.76893 0.0
C294 C 0.77074 0.91358 0.67912 0.0
C295 C 0.76796 0.87983 0.71364 0.0
H296 H 0.76724 0.93637 0.58879 0.0
C297 C 0.76652 0.84559 0.68125 0.0
H298 H 0.77177 0.94043 0.70261 0.0
C299 C 0.76441 0.8435 0.616 0.0
C300 C 0.76294 0.87529 0.58167 0.0
H301 H 0.76457 0.81922 0.70646 0.0
H302 H 0.76102 0.81553 0.59288 0.0
C303 C 0.76792 0.91118 0.61379 0.0
C304 C 0.30068 0.89312 0.61241 0.0
C305 C 0.28734 0.90351 0.66839 0.0
H306 H 0.29767 0.89095 0.51239 0.0
C307 C 0.26473 0.92539 0.66496 0.0
H308 H 0.31861 0.87669 0.61325 0.0
C309 C 0.25302 0.93386 0.60698 0.0
C310 C 0.26335 0.92034 0.55109 0.0
H311 H 0.25432 0.93427 0.70705 0.0
H312 H 0.23398 0.94913 0.60622 0.0
C313 C 0.28873 0.90133 0.55443 0.0
C314 C 0.14839 0.37187 0.52523 0.0
C315 C 0.19088 0.39139 0.50491 0.0
H316 H 0.10557 0.34989 0.60253 0.0
C317 C 0.22366 0.40734 0.55004 0.0
H318 H 0.12236 0.35942 0.49183 0.0
C319 C 0.21401 0.40149 0.61392 0.0
C320 C 0.17138 0.37989 0.63398 0.0
H321 H 0.25677 0.42249 0.53603 0.0
H322 H 0.23991 0.41251 0.64735 0.0
C323 C 0.13877 0.36636 0.5889 0.0
C324 C 0.74238 0.91858 0.1863 0.0
C325 C 0.70857 0.91974 0.21731 0.0
H326 H 0.77132 0.91936 0.09801 0.0
C327 C 0.67998 0.92653 0.18195 0.0
H328 H 0.76489 0.91321 0.21213 0.0
C329 C 0.68358 0.92989 0.11718 0.0
C330 C 0.71593 0.92665 0.08554 0.0
H331 H 0.65372 0.92787 0.20404 0.0
H332 H 0.65986 0.93361 0.09174 0.0
C333 C 0.74601 0.92198 0.12092 0.0
C334 C 0.17433 0.85393 0.05676 0.0
C335 C 0.21529 0.86651 0.03379 0.0
H336 H 0.13515 0.84396 0.13671 0.0
C337 C 0.24917 0.87974 0.07674 0.0
H338 H 0.14744 0.8433 0.02523 0.0
C339 C 0.24213 0.88023 0.14114 0.0
C340 C 0.20098 0.86707 0.164 0.0
H341 H 0.28114 0.88951 0.06065 0.0
H342 H 0.26883 0.89065 0.17296 0.0
C343 C 0.16724 0.85403 0.12094 0.0
C344 C 0.20935 0.42576 0.06029 0.0
C345 C 0.22593 0.41324 0.01015 0.0
H346 H 0.21046 0.43704 0.15898 0.0
C347 C 0.26062 0.40702 0.02149 0.0
H348 H 0.18261 0.43082 0.05328 0.0
C349 C 0.27685 0.41101 0.082 0.0
C350 C 0.25845 0.42082 0.13284 0.0
H351 H 0.27432 0.3976 0.98394 0.0
H352 H 0.30257 0.40442 0.0892 0.0
C353 C 0.22528 0.42929 0.12101 0.0
C354 C 0.38159 0.13943 0.01369 0.0
C355 C 0.38926 0.17745 0.04171 0.0
H356 H 0.37396 0.10507 0.9286 0.0
C357 C 0.39882 0.21191 1.00318 0.0
H358 H 0.37422 0.11235 0.04204 0.0
C359 C 0.39778 0.20751 0.93801 0.0
C360 C 0.38816 0.16886 0.90999 0.0
H361 H 0.4048 0.24167 0.02319 0.0
H362 H 0.40323 0.23399 0.90959 0.0
C363 C 0.38151 0.13532 0.9486 0.0
C364 C 0.92532 0.26404 0.95632 0.0
C365 C 0.93991 0.25367 0.90163 0.0
H366 H 0.9207 0.26041 0.05608 0.0
C367 C 0.966 0.23559 0.90721 0.0
H368 H 0.90531 0.27823 0.95375 0.0
C369 C 0.97524 0.22584 0.96602 0.0
C370 C 0.9581 0.23343 0.02049 0.0
H371 H 0.97807 0.22761 0.86602 0.0
H372 H 0.99423 0.21055 0.96842 0.0
C373 C 0.93405 0.25375 0.0151 0.0
C374 C 0.85643 0.77069 0.95668 0.0
C375 C 0.88568 0.77168 1.00076 0.0
H376 H 0.84093 0.76983 0.86015 0.0
C377 C 0.9252 0.77784 0.97957 0.0
H378 H 0.82585 0.7664 0.9713 0.0
C379 C 0.9339 0.77985 0.91545 0.0
C380 C 0.90324 0.77572 0.87125 0.0
H381 H 0.9485 0.77883 0.01223 0.0
H382 H 0.9637 0.78237 0.90056 0.0
C383 C 0.86509 0.77267 0.89276 0.0
C384 C 0.42303 0.21984 0.43356 0.0
C385 C 0.40853 0.2477 0.41778 0.0
H386 H 0.43283 0.18581 0.50602 0.0
C387 C 0.39773 0.26698 0.4662 0.0
H388 H 0.43187 0.20465 0.39753 0.0
C389 C 0.39797 0.25597 0.52848 0.0
C390 C 0.40937 0.22569 0.54383 0.0
H391 H 0.38675 0.28888 0.45587 0.0
H392 H 0.38715 0.26963 0.5642 0.0
C393 C 0.42363 0.2091 0.49593 0.0
C394 C 0.8449 0.17529 0.41361 0.0
C395 C 0.88538 0.18864 0.38815 0.0
H396 H 0.8085 0.16972 0.49521 0.0
C397 C 0.9212 0.20719 0.42798 0.0
H398 H 0.81665 0.16077 0.38434 0.0
C399 C 0.91646 0.21182 0.4921 0.0
C400 C 0.87587 0.19845 0.51734 0.0
H401 H 0.95282 0.21751 0.40985 0.0
H402 H 0.94454 0.22617 0.52171 0.0
C403 C 0.84024 0.18034 0.4773 0.0
C404 C 0.93913 0.7966 0.48778 0.0
C405 C 0.96131 0.77489 0.49909 0.0
H406 H 0.9061 0.81304 0.42077 0.0
C407 C 0.97139 0.75699 0.44805 0.0
H408 H 0.93075 0.81068 0.52602 0.0
C409 C 0.95714 0.75811 0.38785 0.0
C410 C 0.93244 0.77728 0.37709 0.0
H411 H 0.98863 0.74031 0.45511 0.0
H412 H 0.96402 0.74237 0.35024 0.0
C413 C 0.92486 0.7978 0.42737 0.0
C414 C 1.01458 0.35641 1.00418 0.0
C415 C 1.00676 0.38238 0.96493 0.0
H416 H 0.04588 0.32044 0.01637 0.0
C417 C 1.02296 0.38898 0.90375 0.0
H418 H 1.00257 0.35042 0.05152 0.0
C419 C 0.04765 0.37133 0.88326 0.0
C420 C 0.05709 0.34696 0.92364 0.0
H421 H 1.01737 0.40857 0.87207 0.0
H422 H 0.06062 0.3781 0.83649 0.0
C423 C 0.03948 0.33909 0.98393 0.0
C424 C 0.60894 0.74891 0.91005 0.0
C425 C 0.65131 0.76978 0.93157 0.0
H426 H 0.54989 0.69052 0.90301 0.0
C427 C 0.6666 0.74615 0.96249 0.0
H428 H 0.59612 0.76606 0.88605 0.0
C429 C 0.6403 0.70296 0.972 0.0
C430 C 0.59783 0.68207 0.95111 0.0
H431 H 0.6991 0.76102 0.97965 0.0
H432 H 0.65326 0.68603 0.99627 0.0
C433 C 0.58247 0.70557 0.91983 0.0
C434 C 0.4029 0.86584 0.98918 0.0
C435 C 0.38729 0.86203 0.92779 0.0
H436 H 0.45743 0.89252 0.0499 0.0
C437 C 0.41688 0.87857 0.87883 0.0
H438 H 0.38114 0.85329 0.02814 0.0
C439 C 0.4608 0.90098 0.8914 0.0
C440 C 0.47627 0.90757 0.95328 0.0
H441 H 0.40615 0.87614 0.83099 0.0
H442 H 0.48249 0.91508 0.85269 0.0
C443 C 0.44679 0.88836 1.00177 0.0
C444 C 0.39192 0.04158 0.592 0.0
C445 C 0.39766 1.01365 0.62983 0.0
H446 H 0.36583 0.08262 0.58415 0.0
C447 C 0.37586 1.0017 0.68711 0.0
H448 H 0.40806 0.05146 0.54756 0.0
C449 C 0.35125 1.01927 0.70787 0.0
C450 C 0.34818 0.04965 0.6722 0.0
H451 H 0.3792 0.98 0.7173 0.0
H452 H 0.33658 1.01071 0.75348 0.0
C453 C 0.36771 0.05955 0.6131 0.0
C454 C 0.89426 0.36325 0.65055 0.0
C455 C 0.92848 0.35625 0.66077 0.0
H456 H 0.87357 0.40406 0.61394 0.0
C457 C 0.9698 0.38771 0.64355 0.0
H458 H 0.86212 0.33984 0.66332 0.0
C459 C 0.97648 0.42472 0.61492 0.0
C460 C 0.94196 0.43097 0.60275 0.0
H461 H 0.99698 0.38341 0.65097 0.0
H462 H 1.00846 0.44792 0.60114 0.0
C463 C 0.90092 0.40011 0.62189 0.0
C464 C 0.7963 0.62745 0.63534 0.0
C465 C 0.81368 0.67077 0.62575 0.0
H466 H 0.74229 0.56572 0.62395 0.0
C467 C 0.78802 0.68484 0.59711 0.0
H468 H 0.81504 0.61552 0.65725 0.0
C469 C 0.74621 0.65635 0.57809 0.0
C470 C 0.72898 0.613 0.58706 0.0
H471 H 0.80026 0.71803 0.58899 0.0
H472 H 0.7276 0.66828 0.55577 0.0
C473 C 0.7545 0.59893 0.61618 0.0
C474 C 0.93856 0.63079 0.11979 0.0
C475 C 0.8988 0.62844 0.12711 0.0
H476 H 0.9729 0.60109 0.08643 0.0
C477 C 0.86199 0.59202 0.10589 0.0
H478 H 0.96761 0.65829 0.13564 0.0
C479 C 0.86508 0.55902 0.07708 0.0
C480 C 0.90502 0.56173 0.0692 0.0
H481 H 0.83089 0.58927 0.11063 0.0
H482 H 0.83621 0.5315 0.06082 0.0
C483 C 0.94162 0.59791 0.09137 0.0
C484 C 0.39691 0.36809 0.17756 0.0
C485 C 0.38631 0.33634 0.13209 0.0
H486 H 0.43028 0.43432 0.19822 0.0
C487 C 0.39957 0.34814 0.07015 0.0
H488 H 0.38719 0.36007 0.22567 0.0
C489 C 0.42488 0.39051 0.05472 0.0
C490 C 0.43693 0.42217 0.10059 0.0
H491 H 0.39209 0.32457 0.03389 0.0
H492 H 0.43569 0.39841 1.007 0.0
C493 C 0.42169 0.41061 0.16183 0.0
C494 C 0.78132 0.057 0.17666 0.0
C495 C 0.80709 0.08156 0.12723 0.0
H496 H 0.71764 1.01777 0.21058 0.0
C497 C 0.78709 0.08233 0.07145 0.0
H498 H 0.79555 0.05593 0.22054 0.0
C499 C 0.74271 0.0604 0.06562 0.0
C500 C 0.71676 0.03705 0.11546 0.0
H501 H 0.80574 0.10145 0.03279 0.0
H502 H 0.72865 0.0633 0.02272 0.0
C503 C 0.73661 0.03514 0.17092 0.0
C504 C 0.55299 0.91048 0.48166 0.0
C505 C 0.54626 0.91384 0.5458 0.0
H506 H 0.5837 0.89232 0.41194 0.0
C507 C 0.56229 0.89639 0.58875 0.0
H508 H 0.54118 0.92359 0.44717 0.0
C509 C 0.58659 0.87843 0.56855 0.0
C510 C 0.59571 0.87752 0.5048 0.0
H511 H 0.55762 0.89816 0.63844 0.0
H512 H 0.59975 0.86687 0.60339 0.0
C513 C 0.57749 0.8926 0.4614 0.0
C514 C 0.09822 0.69583 0.47242 0.0
C515 C 0.05593 0.68073 0.45321 0.0
H516 H 0.16219 0.74753 0.4745 0.0
C517 C 0.04609 0.7081 0.42082 0.0
H518 H 0.10697 0.67573 0.49749 0.0
C519 C 0.0777 0.74959 0.40818 0.0
C520 C 0.12007 0.76451 0.42686 0.0
H521 H 1.01391 0.69738 0.4047 0.0
H522 H 0.06905 0.76967 0.38285 0.0
C523 C 0.12988 0.73712 0.45925 0.0
C524 C 0.41806 0.50406 0.40217 0.0
C525 C 0.39245 0.46284 0.37824 0.0
H526 H 0.47821 0.54931 0.44287 0.0
C527 C 0.40992 0.43626 0.37401 0.0
H528 H 0.40566 0.52547 0.40589 0.0
C529 C 0.45138 0.44999 0.39511 0.0
C530 C 0.47654 0.49066 0.42104 0.0
H531 H 0.39133 0.40452 0.35541 0.0
H532 H 0.4634 0.42823 0.39197 0.0
C533 C 0.4597 0.51784 0.42334 0.0
C534 C 0.7477 0.72983 0.34193 0.0
C535 C 0.75971 0.72838 0.2798 0.0
H536 H 0.71666 0.75148 0.40544 0.0
C537 C 0.74361 0.74288 0.23239 0.0
H538 H 0.75925 0.71866 0.37961 0.0
C539 C 0.7189 0.76138 0.24715 0.0
C540 C 0.70994 0.76615 0.30974 0.0
H541 H 0.75176 0.74177 0.18396 0.0
H542 H 0.70895 0.77414 0.20959 0.0
C543 C 0.72319 0.74863 0.35678 0.0
C544 C 0.25164 0.08525 0.35269 0.0
C545 C 0.25987 0.1039 0.29341 0.0
H546 H 0.2256 0.0281 0.4046 0.0
C547 C 0.24208 0.07773 0.24059 0.0
H548 H 0.26457 0.10442 0.39451 0.0
C549 C 0.21948 0.03388 0.24648 0.0
C550 C 0.21433 1.01515 0.30528 0.0
H551 H 0.24748 0.09097 0.19427 0.0
H552 H 0.20815 1.0147 0.2044 0.0
C553 C 0.22922 0.04138 0.35856 0.0
C554 C 0.12919 0.24998 0.2116 0.0
C555 C 0.14974 0.26633 0.26935 0.0
H556 H 0.07032 0.21039 0.16364 0.0
C557 C 0.12651 0.2494 0.32446 0.0
H558 H 0.14612 0.26197 0.16815 0.0
C559 C 0.08294 0.21966 0.32182 0.0
C560 C 0.06154 0.20616 0.26404 0.0
H561 H 0.14128 0.26098 0.36976 0.0
H562 H 0.06556 0.20924 0.36526 0.0
C563 C 0.08561 0.22025 0.20896 0.0
C564 C 0.22844 0.20861 0.82924 0.0
C565 C 0.24062 0.19787 0.77242 0.0
H566 H 0.19932 0.2404 0.8747 0.0
C567 C 0.2279 0.20811 0.71639 0.0
H568 H 0.23745 0.2011 0.8734 0.0
C569 C 0.20612 0.23089 0.71721 0.0
C570 C 0.1962 0.24382 0.77405 0.0
H571 H 0.23662 0.20041 0.67177 0.0
H572 H 0.19859 0.23983 0.67306 0.0
C573 C 0.20642 0.23114 0.83006 0.0
C574 C 0.76033 0.08272 0.77145 0.0
C575 C 0.78195 0.11637 0.8144 0.0
H576 H 0.72887 1.01548 0.75633 0.0
C577 C 0.78332 0.1069 0.87744 0.0
H578 H 0.75865 0.08891 0.72252 0.0
C579 C 0.76744 0.06538 0.89588 0.0
C580 C 0.7481 0.03195 0.85291 0.0
H581 H 0.79975 0.13168 0.912 0.0
H582 H 0.77275 0.05938 0.94326 0.0
C583 C 0.74304 0.04069 0.79077 0.0
C584 C 0.12482 0.75732 0.76159 0.0
C585 C 0.13182 0.74941 0.82346 0.0
H586 H 0.07968 0.75388 0.69351 0.0
C587 C 0.09612 0.72643 0.8618 0.0
H588 H 0.15145 0.7748 0.73053 0.0
C589 C 0.05496 0.71447 0.84054 0.0
C590 C 0.04827 0.72514 0.78032 0.0
H591 H 0.10008 0.71946 0.90952 0.0
H592 H 1.02858 0.69857 0.87256 0.0
C593 C 0.08356 0.74531 0.74028 0.0
loop_
_geom_bond_atom_site_label_1
_geom_bond_atom_site_label_2
_geom_bond_distance
_geom_bond_site_symmetry_2
_ccdc_geom_bond_type
Mg0 O7 2.141 1_554 S
Mg0 O8 2.048 1_554 S
Mg0 O9 2.048 . S
Mg0 O12 2.141 . S
C1 O2 1.314 . S
C1 O8 1.195 1_554 S
O2 C1 1.314 . S
C3 O4 1.245 . S
C3 O12 1.289 1_655 S
O4 C3 1.245 . S
C5 O6 1.245 1_455 S
C5 O7 1.289 . S
O6 C5 1.245 1_655 S
O7 Mg0 2.141 1_556 S
O7 C5 1.289 . S
O8 Mg0 2.048 1_556 S
O8 C1 1.195 1_556 S
O9 Mg0 2.048 . S
O9 C10 1.195 . S
C10 O9 1.195 . S
C10 O11 1.313 1_455 S
O11 C10 1.313 1_655 S
O12 Mg0 2.141 . S
O12 C3 1.289 1_455 S
Mg13 O20 2.141 1_554 S
Mg13 O21 2.047 1_554 S
Mg13 O22 2.048 . S
Mg13 O25 2.141 . S
C14 O15 1.313 . S
C14 O21 1.195 1_554 S
O15 C14 1.313 . S
C16 O17 1.245 . S
C16 O25 1.289 . S
O17 C16 1.245 . S
C18 O19 1.245 . S
C18 O20 1.289 . S
O19 C18 1.245 . S
O20 Mg13 2.141 1_556 S
O20 C18 1.289 . S
O21 Mg13 2.047 1_556 S
O21 C14 1.195 1_556 S
O22 Mg13 2.048 . S
O22 C23 1.195 . S
C23 O22 1.195 . S
C23 O24 1.313 . S
O24 C23 1.313 . S
O25 Mg13 2.141 . S
O25 C16 1.289 . S
Mg26 O33 2.141 1_545 S
Mg26 O34 2.048 1_554 S
Mg26 O35 2.048 . S
Mg26 O38 2.141 . S
C27 O28 1.313 1_545 S
C27 O34 1.195 . S
O28 C27 1.313 1_565 S
C29 O30 1.245 . S
C29 O38 1.289 1_565 S
O30 C29 1.245 . S
C31 O32 1.245 . S
C31 O33 1.289 1_556 S
O32 C31 1.245 . S
O33 Mg26 2.141 1_565 S
O33 C31 1.289 1_554 S
O34 Mg26 2.048 1_556 S
O34 C27 1.195 . S
O35 Mg26 2.048 . S
O35 C36 1.195 . S
C36 O35 1.195 . S
C36 O37 1.313 . S
O37 C36 1.313 . S
O38 Mg26 2.141 . S
O38 C29 1.289 1_545 S
Mg39 O46 2.141 . S
Mg39 O47 2.048 . S
Mg39 O48 2.048 . S
Mg39 O51 2.141 . S
C40 O41 1.313 . S
C40 O47 1.195 1_565 S
O41 C40 1.313 . S
C42 O43 1.245 . S
C42 O51 1.289 . S
O43 C42 1.245 . S
C44 O45 1.245 1_545 S
C44 O46 1.289 . S
O45 C44 1.245 1_565 S
O46 Mg39 2.141 . S
O46 C44 1.289 . S
O47 Mg39 2.048 . S
O47 C40 1.195 1_545 S
O48 Mg39 2.048 . S
O48 C49 1.195 . S
C49 O48 1.195 . S
C49 O50 1.313 1_545 S
O50 C49 1.313 1_565 S
O51 Mg39 2.141 . S
O51 C42 1.289 . S
Mg52 O59 2.143 . S
Mg52 O60 2.048 1_655 S
Mg52 O61 2.048 1_655 S
Mg52 O64 2.143 . S
C53 O54 1.313 . S
C53 O60 1.195 . S
O54 C53 1.313 . S
C55 O56 1.245 1_655 S
C55 O64 1.289 . S
O56 C55 1.245 1_455 S
C57 O58 1.245 . S
C57 O59 1.289 1_455 S
O58 C57 1.245 . S
O59 Mg52 2.143 . S
O59 C57 1.289 1_655 S
O60 Mg52 2.048 1_455 S
O60 C53 1.195 . S
O61 Mg52 2.048 1_455 S
O61 C62 1.195 . S
C62 O61 1.195 . S
C62 O63 1.313 . S
O63 C62 1.313 . S
O64 Mg52 2.143 . S
O64 C55 1.289 . S
Mg65 O72 2.141 . S
Mg65 O73 2.048 . S
Mg65 O74 2.048 . S
Mg65 O77 2.141 . S
C66 O67 1.313 . S
C66 O73 1.195 . S
O67 C66 1.313 . S
C68 O69 1.245 . S
C68 O77 1.289 . S
O69 C68 1.245 . S
C70 O71 1.245 . S
C70 O72 1.289 . S
O71 C70 1.245 . S
O72 Mg65 2.141 . S
O72 C70 1.289 . S
O73 Mg65 2.048 . S
O73 C66 1.195 . S
O74 Mg65 2.048 . S
O74 C75 1.195 . S
C75 O74 1.195 . S
C75 O76 1.313 . S
O76 C75 1.313 . S
O77 Mg65 2.141 . S
O77 C68 1.289 . S
Mg78 O85 2.141 . S
Mg78 O86 2.048 . S
Mg78 O87 2.048 . S
Mg78 O90 2.141 . S
C79 O80 1.313 . S
C79 O86 1.195 . S
O80 C79 1.313 . S
C81 O82 1.245 . S
C81 O90 1.289 . S
O82 C81 1.245 . S
C83 O84 1.245 . S
C83 O85 1.289 . S
O84 C83 1.245 . S
O85 Mg78 2.141 . S
O85 C83 1.289 . S
O86 Mg78 2.048 . S
O86 C79 1.195 . S
O87 Mg78 2.048 . S
O87 C88 1.195 . S
C88 O87 1.195 . S
C88 O89 1.313 . S
O89 C88 1.313 . S
O90 Mg78 2.141 . S
O90 C81 1.289 . S
Mg91 O98 2.141 . S
Mg91 O99 2.048 . S
Mg91 O100 2.048 . S
Mg91 O103 2.141 . S
C92 O93 1.313 . S
C92 O99 1.195 . S
O93 C92 1.313 . S
C94 O95 1.245 . S
C94 O103 1.289 . S
O95 C94 1.245 . S
C96 O97 1.245 . S
C96 O98 1.289 . S
O97 C96 1.245 . S
O98 Mg91 2.141 . S
O98 C96 1.289 . S
O99 Mg91 2.048 . S
O99 C92 1.195 . S
O100 Mg91 2.048 . S
O100 C101 1.195 . S
C101 O100 1.195 . S
C101 O102 1.313 . S
O102 C101 1.313 . S
O103 Mg91 2.141 . S
O103 C94 1.289 . S
Mg104 O111 2.141 . S
Mg104 O112 2.048 . S
Mg104 O113 2.048 . S
Mg104 O116 2.141 . S
C105 O106 1.313 . S
C105 O112 1.195 . S
O106 C105 1.313 . S
C107 O108 1.245 . S
C107 O116 1.289 . S
O108 C107 1.245 . S
C109 O110 1.245 . S
C109 O111 1.289 . S
O110 C109 1.245 . S
O111 Mg104 2.141 . S
O111 C109 1.289 . S
O112 Mg104 2.048 . S
O112 C105 1.195 . S
O113 Mg104 2.048 . S
O113 C114 1.195 . S
C114 O113 1.195 . S
C114 O115 1.313 . S
O115 C114 1.313 . S
O116 Mg104 2.141 . S
O116 C107 1.289 . S
Mg117 O124 2.141 . S
Mg117 O125 2.048 . S
Mg117 O126 2.048 . S
Mg117 O129 2.141 . S
C118 O119 1.313 . S
C118 O125 1.195 . S
O119 C118 1.313 . S
C120 O121 1.245 . S
C120 O129 1.289 . S
O121 C120 1.245 . S
C122 O123 1.245 . S
C122 O124 1.289 . S
O123 C122 1.245 . S
O124 Mg117 2.141 . S
O124 C122 1.289 . S
O125 Mg117 2.048 . S
O125 C118 1.195 . S
O126 Mg117 2.048 . S
O126 C127 1.195 . S
C127 O126 1.195 . S
C127 O128 1.313 . S
O128 C127 1.313 . S
O129 Mg117 2.141 . S
O129 C120 1.289 . S
Mg130 O137 2.141 . S
Mg130 O138 2.048 . S
Mg130 O139 2.048 . S
Mg130 O142 2.141 . S
C131 O132 1.313 . S
C131 O138 1.195 . S
O132 C131 1.313 . S
C133 O134 1.249 . S
C133 O142 1.300 . S
O134 C133 1.249 . S
C135 O136 1.245 . S
C135 O137 1.289 . S
O136 C135 1.245 . S
O137 Mg130 2.141 . S
O137 C135 1.289 . S
O138 Mg130 2.048 . S
O138 C131 1.195 . S
O139 Mg130 2.048 . S
O139 C140 1.195 . S
C140 O139 1.195 . S
C140 O141 1.313 . S
O141 C140 1.313 . S
O142 Mg130 2.141 . S
O142 C133 1.300 . S
Mg143 O150 2.141 . S
Mg143 O151 2.048 . S
Mg143 O152 2.048 . S
Mg143 O155 2.141 . S
C144 O145 1.313 . S
C144 O151 1.195 . S
O145 C144 1.313 . S
C146 O147 1.245 . S
C146 O155 1.289 . S
O147 C146 1.245 . S
C148 O149 1.245 . S
C148 O150 1.289 . S
O149 C148 1.245 . S
O150 Mg143 2.141 . S
O150 C148 1.289 . S
O151 Mg143 2.048 . S
O151 C144 1.195 . S
O152 Mg143 2.048 . S
O152 C153 1.195 . S
C153 O152 1.195 . S
C153 O154 1.313 . S
O154 C153 1.313 . S
O155 Mg143 2.141 . S
O155 C146 1.289 . S
Mg156 O163 2.141 . S
Mg156 O164 2.048 . S
Mg156 O165 2.048 . S
Mg156 O168 2.141 . S
C157 O158 1.313 . S
C157 O164 1.195 . S
O158 C157 1.313 . S
C159 O160 1.245 . S
C159 O168 1.289 . S
O160 C159 1.245 . S
C161 O162 1.245 . S
C161 O163 1.289 . S
O162 C161 1.245 . S
O163 Mg156 2.141 . S
O163 C161 1.289 . S
O164 Mg156 2.048 . S
O164 C157 1.195 . S
O165 Mg156 2.048 . S
O165 C166 1.195 . S
C166 O165 1.195 . S
C166 O167 1.313 . S
O167 C166 1.313 . S
O168 Mg156 2.141 . S
O168 C159 1.289 . S
Mg169 O176 2.141 . S
Mg169 O177 2.048 . S
Mg169 O178 2.048 . S
Mg169 O181 2.141 . S
C170 O171 1.313 . S
C170 O177 1.195 . S
O171 C170 1.313 . S
C172 O173 1.245 . S
C172 O181 1.289 . S
O173 C172 1.245 . S
C174 O175 1.245 . S
C174 O176 1.289 . S
O175 C174 1.245 . S
O176 Mg169 2.141 . S
O176 C174 1.289 . S
O177 Mg169 2.048 . S
O177 C170 1.195 . S
O178 Mg169 2.048 . S
O178 C179 1.195 . S
C179 O178 1.195 . S
C179 O180 1.313 . S
O180 C179 1.313 . S
O181 Mg169 2.141 . S
O181 C172 1.289 . S
Mg182 O189 2.141 . S
Mg182 O190 2.048 . S
Mg182 O191 2.048 . S
Mg182 O194 2.141 . S
C183 O184 1.313 . S
C183 O190 1.195 . S
O184 C183 1.313 . S
C185 O186 1.245 . S
C185 O194 1.289 . S
O186 C185 1.245 . S
C187 O188 1.245 . S
C187 O189 1.289 . S
O188 C187 1.245 . S
O189 Mg182 2.141 . S
O189 C187 1.289 . S
O190 Mg182 2.048 . S
O190 C183 1.195 . S
O191 Mg182 2.048 . S
O191 C192 1.195 . S
C192 O191 1.195 . S
C192 O193 1.313 . S
O193 C192 1.313 . S
O194 Mg182 2.141 . S
O194 C185 1.289 . S
Mg195 O202 2.141 . S
Mg195 O203 2.048 . S
Mg195 O204 2.048 . S
Mg195 O207 2.141 . S
C196 O197 1.313 . S
C196 O203 1.195 . S
O197 C196 1.313 . S
C198 O199 1.245 . S
C198 O207 1.289 . S
O199 C198 1.245 . S
C200 O201 1.245 . S
C200 O202 1.289 . S
O201 C200 1.245 . S
O202 Mg195 2.141 . S
O202 C200 1.289 . S
O203 Mg195 2.048 . S
O203 C196 1.195 . S
O204 Mg195 2.048 . S
O204 C205 1.195 . S
C205 O204 1.195 . S
C205 O206 1.313 . S
O206 C205 1.313 . S
O207 Mg195 2.141 . S
O207 C198 1.289 . S
Mg208 O215 2.141 . S
Mg208 O216 2.048 . S
Mg208 O217 2.048 . S
Mg208 O220 2.141 . S
C209 O210 1.313 . S
C209 O216 1.195 . S
O210 C209 1.313 . S
C211 O212 1.245 . S
C211 O220 1.289 . S
O212 C211 1.245 . S
C213 O214 1.245 . S
C213 O215 1.289 . S
O214 C213 1.245 . S
O215 Mg208 2.141 . S
O215 C213 1.289 . S
O216 Mg208 2.048 . S
O216 C209 1.195 . S
O217 Mg208 2.048 . S
O217 C218 1.195 . S
C218 O217 1.195 . S
C218 O219 1.313 . S
O219 C218 1.313 . S
O220 Mg208 2.141 . S
O220 C211 1.289 . S
Mg221 O228 2.141 . S
Mg221 O229 2.048 . S
Mg221 O230 2.048 . S
Mg221 O233 2.141 . S
C222 O223 1.313 . S
C222 O229 1.195 . S
O223 C222 1.313 . S
C224 O225 1.245 . S
C224 O233 1.289 . S
O225 C224 1.245 . S
C226 O227 1.245 . S
C226 O228 1.289 . S
O227 C226 1.245 . S
O228 Mg221 2.141 . S
O228 C226 1.289 . S
O229 Mg221 2.048 . S
O229 C222 1.195 . S
O230 Mg221 2.048 . S
O230 C231 1.195 . S
C231 O230 1.195 . S
C231 O232 1.313 . S
O232 C231 1.313 . S
O233 Mg221 2.141 . S
O233 C224 1.289 . S
C234 C235 1.387 1_655 S
C234 H238 0.950 . S
C234 C243 1.390 . S
C235 C234 1.387 1_455 S
C235 C237 1.387 . S
H236 C243 0.950 . S
C237 C235 1.387 . S
C237 C239 1.390 . S
C237 H241 0.950 . S
H238 C234 0.950 . S
C239 C237 1.390 . S
C239 C240 1.387 . S
C239 H242 0.950 . S
C240 C239 1.387 . S
C240 C243 1.387 1_455 S
H241 C237 0.950 . S
H242 C239 0.950 . S
C243 C234 1.390 . S
C243 H236 0.950 . S
C243 C240 1.387 1_655 S
C244 C245 1.387 . S
C244 H248 0.950 . S
C244 C253 1.390 . S
C245 C244 1.387 . S
C245 C247 1.387 . S
H246 C253 0.950 . S
C247 C245 1.387 . S
C247 C249 1.390 . S
C247 H251 0.950 . S
H248 C244 0.950 . S
C249 C247 1.390 . S
C249 C250 1.387 . S
C249 H252 0.950 . S
C250 C249 1.387 . S
C250 C253 1.387 . S
H251 C247 0.950 . S
H252 C249 0.950 . S
C253 C244 1.390 . S
C253 H246 0.950 . S
C253 C250 1.387 . S
C254 C255 1.389 . S
C254 H258 0.948 . S
C254 C263 1.391 1_565 S
C255 C254 1.389 . S
C255 C257 1.387 1_565 S
H256 C263 0.950 . S
C257 C255 1.387 1_545 S
C257 C259 1.390 . S
C257 H261 0.950 . S
H258 C254 0.948 . S
C259 C257 1.390 . S
C259 C260 1.387 . S
C259 H262 0.950 . S
C260 C259 1.387 . S
C260 C263 1.387 . S
H261 C257 0.950 . S
H262 C259 0.950 . S
C263 C254 1.391 1_545 S
C263 H256 0.950 . S
C263 C260 1.387 . S
C264 C265 1.387 . S
C264 H268 0.950 1_455 S
C264 C273 1.395 . S
C265 C264 1.387 . S
C265 C267 1.387 . S
H266 C273 0.951 1_655 S
C267 C265 1.387 . S
C267 C269 1.390 . S
C267 H271 0.950 . S
H268 C264 0.950 1_655 S
C269 C267 1.390 . S
C269 C270 1.387 . S
C269 H272 0.950 . S
C270 C269 1.387 . S
C270 C273 1.383 . S
H271 C267 0.950 . S
H272 C269 0.950 . S
C273 C264 1.395 . S
C273 H266 0.951 1_455 S
C273 C270 1.383 . S
C274 C275 1.387 . S
C274 H278 0.950 . S
C274 C283 1.390 . S
C275 C274 1.387 . S
C275 C277 1.387 . S
H276 C283 0.950 . S
C277 C275 1.387 . S
C277 C279 1.390 . S
C277 H281 0.950 . S
H278 C274 0.950 . S
C279 C277 1.390 . S
C279 C280 1.387 . S
C279 H282 0.950 . S
C280 C279 1.387 . S
C280 C283 1.387 . S
H281 C277 0.950 . S
H282 C279 0.950 . S
C283 C274 1.390 . S
C283 H276 0.950 . S
C283 C280 1.387 . S
C284 C285 1.387 . S
C284 H288 0.950 . S
C284 C293 1.390 . S
C285 C284 1.387 . S
C285 C287 1.387 1_545 S
H286 C293 0.950 . S
C287 C285 1.387 1_565 S
C287 C289 1.390 . S
C287 H291 0.950 . S
H288 C284 0.950 . S
C289 C287 1.390 . S
C289 C290 1.387 1_565 S
C289 H292 0.950 . S
C290 C289 1.387 1_545 S
C290 C293 1.387 . S
H291 C287 0.950 . S
H292 C289 0.950 . S
C293 C284 1.390 . S
C293 H286 0.950 . S
C293 C290 1.387 . S
C294 C295 1.387 . S
C294 H298 0.950 . S
C294 C303 1.390 . S
C295 C294 1.387 . S
C295 C297 1.387 . S
H296 C303 0.950 . S
C297 C295 1.387 . S
C297 C299 1.390 . S
C297 H301 0.950 . S
H298 C294 0.950 . S
C299 C297 1.390 . S
C299 C300 1.387 . S
C299 H302 0.950 . S
C300 C299 1.387 . S
C300 C303 1.387 . S
H301 C297 0.950 . S
H302 C299 0.950 . S
C303 C294 1.390 . S
C303 H296 0.950 . S
C303 C300 1.387 . S
C304 C305 1.387 . S
C304 H308 0.950 . S
C304 C313 1.390 . S
C305 C304 1.387 . S
C305 C307 1.387 . S
H306 C313 0.950 . S
C307 C305 1.387 . S
C307 C309 1.390 . S
C307 H311 0.950 . S
H308 C304 0.950 . S
C309 C307 1.390 . S
C309 C310 1.387 . S
C309 H312 0.950 . S
C310 C309 1.387 . S
C310 C313 1.387 . S
H311 C307 0.950 . S
H312 C309 0.950 . S
C313 C304 1.390 . S
C313 H306 0.950 . S
C313 C310 1.387 . S
C314 C315 1.387 . S
C314 H318 0.950 . S
C314 C323 1.390 . S
C315 C314 1.387 . S
C315 C317 1.387 . S
H316 C323 0.950 . S
C317 C315 1.387 . S
C317 C319 1.390 . S
C317 H321 0.950 . S
H318 C314 0.950 . S
C319 C317 1.390 . S
C319 C320 1.387 . S
C319 H322 0.950 . S
C320 C319 1.387 . S
C320 C323 1.387 . S
H321 C317 0.950 . S
H322 C319 0.950 . S
C323 C314 1.390 . S
C323 H316 0.950 . S
C323 C320 1.387 . S
C324 C325 1.387 . S
C324 H328 0.950 . S
C324 C333 1.390 . S
C325 C324 1.387 . S
C325 C327 1.387 . S
H326 C333 0.950 . S
C327 C325 1.387 . S
C327 C329 1.390 . S
C327 H331 0.950 . S
H328 C324 0.950 . S
C329 C327 1.390 . S
C329 C330 1.387 . S
C329 H332 0.950 . S
C330 C329 1.387 . S
C330 C333 1.387 . S
H331 C327 0.950 . S
H332 C329 0.950 . S
C333 C324 1.390 . S
C333 H326 0.950 . S
C333 C330 1.387 . S
C334 C335 1.387 . S
C334 H338 0.950 . S
C334 C343 1.390 . S
C335 C334 1.387 . S
C335 C337 1.387 . S
H336 C343 0.950 . S
C337 C335 1.387 . S
C337 C339 1.390 . S
C337 H341 0.950 . S
H338 C334 0.950 . S
C339 C337 1.390 . S
C339 C340 1.387 . S
C339 H342 0.950 . S
C340 C339 1.387 . S
C340 C343 1.387 . S
H341 C337 0.950 . S
H342 C339 0.950 . S
C343 C334 1.390 . S
C343 H336 0.950 . S
C343 C340 1.387 . S
C344 C345 1.387 . S
C344 H348 0.950 . S
C344 C353 1.390 . S
C345 C344 1.387 . S
C345 C347 1.387 . S
H346 C353 0.950 . S
C347 C345 1.387 . S
C347 C349 1.390 . S
C347 H351 0.950 . S
H348 C344 0.950 . S
C349 C347 1.390 . S
C349 C350 1.387 . S
C349 H352 0.950 . S
C350 C349 1.387 . S
C350 C353 1.387 . S
H351 C347 0.950 . S
H352 C349 0.950 . S
C353 C344 1.390 . S
C353 H346 0.950 . S
C353 C350 1.387 . S
C354 C355 1.387 1_556 S
C354 H358 0.950 . S
C354 C363 1.390 . S
C355 C354 1.387 1_554 S
C355 C357 1.387 1_554 S
H356 C363 0.950 . S
C357 C355 1.387 1_556 S
C357 C359 1.390 . S
C357 H361 0.950 1_556 S
H358 C354 0.950 . S
C359 C357 1.390 . S
C359 C360 1.387 . S
C359 H362 0.950 . S
C360 C359 1.387 . S
C360 C363 1.387 . S
H361 C357 0.950 1_554 S
H362 C359 0.950 . S
C363 C354 1.390 . S
C363 H356 0.950 . S
C363 C360 1.387 . S
C364 C365 1.387 . S
C364 H368 0.950 . S
C364 C373 1.390 . S
C365 C364 1.387 . S
C365 C367 1.387 . S
H366 C373 0.941 1_554 S
C367 C365 1.387 . S
C367 C369 1.390 . S
C367 H371 0.950 . S
H368 C364 0.950 . S
C369 C367 1.390 . S
C369 C370 1.387 1_556 S
C369 H372 0.950 . S
C370 C369 1.387 1_554 S
C370 C373 1.387 1_554 S
H371 C367 0.950 . S
H372 C369 0.950 . S
C373 C364 1.390 . S
C373 H366 0.941 1_556 S
C373 C370 1.387 1_556 S
C374 C375 1.387 1_556 S
C374 H378 0.950 1_556 S
C374 C383 1.390 . S
C375 C374 1.387 1_554 S
C375 C377 1.387 1_554 S
H376 C383 0.950 . S
C377 C375 1.387 1_556 S
C377 C379 1.390 . S
C377 H381 0.950 . S
H378 C374 0.950 1_554 S
C379 C377 1.390 . S
C379 C380 1.387 . S
C379 H382 0.950 . S
C380 C379 1.387 . S
C380 C383 1.387 . S
H381 C377 0.950 . S
H382 C379 0.950 . S
C383 C374 1.390 . S
C383 H376 0.950 . S
C383 C380 1.387 . S
C384 C385 1.387 . S
C384 H388 0.950 . S
C384 C393 1.390 . S
C385 C384 1.387 . S
C385 C387 1.387 . S
H386 C393 0.950 . S
C387 C385 1.387 . S
C387 C389 1.390 . S
C387 H391 0.950 . S
H388 C384 0.950 . S
C389 C387 1.390 . S
C389 C390 1.387 . S
C389 H392 0.950 . S
C390 C389 1.387 . S
C390 C393 1.387 . S
H391 C387 0.950 . S
H392 C389 0.950 . S
C393 C384 1.390 . S
C393 H386 0.950 . S
C393 C390 1.387 . S
C394 C395 1.387 . S
C394 H398 0.950 . S
C394 C403 1.390 . S
C395 C394 1.387 . S
C395 C397 1.387 . S
H396 C403 0.950 . S
C397 C395 1.387 . S
C397 C399 1.390 . S
C397 H401 0.950 . S
H398 C394 0.950 . S
C399 C397 1.390 . S
C399 C400 1.387 . S
C399 H402 0.950 . S
C400 C399 1.387 . S
C400 C403 1.387 . S
H401 C397 0.950 . S
H402 C399 0.950 . S
C403 C394 1.390 . S
C403 H396 0.950 . S
C403 C400 1.387 . S
C404 C405 1.387 . S
C404 H408 0.950 . S
C404 C413 1.390 . S
C405 C404 1.387 . S
C405 C407 1.387 . S
H406 C413 0.950 . S
C407 C405 1.387 . S
C407 C409 1.390 . S
C407 H411 0.950 . S
H408 C404 0.950 . S
C409 C407 1.390 . S
C409 C410 1.387 . S
C409 H412 0.950 . S
C410 C409 1.387 . S
C410 C413 1.387 . S
H411 C407 0.950 . S
H412 C409 0.950 . S
C413 C404 1.390 . S
C413 H406 0.950 . S
C413 C410 1.387 . S
C414 C415 1.387 . S
C414 H418 0.950 1_556 S
C414 C423 1.390 . S
C415 C414 1.387 . S
C415 C417 1.387 . S
H416 C423 0.950 . S
C417 C415 1.387 . S
C417 C419 1.390 . S
C417 H421 0.950 . S
H418 C414 0.950 1_554 S
C419 C417 1.390 . S
C419 C420 1.387 . S
C419 H422 0.950 . S
C420 C419 1.387 . S
C420 C423 1.387 . S
H421 C417 0.950 . S
H422 C419 0.950 . S
C423 C414 1.390 . S
C423 H416 0.950 . S
C423 C420 1.387 . S
C424 C425 1.387 . S
C424 H428 0.950 . S
C424 C433 1.390 . S
C425 C424 1.387 . S
C425 C427 1.387 . S
H426 C433 0.950 . S
C427 C425 1.387 . S
C427 C429 1.390 . S
C427 H431 0.950 . S
H428 C424 0.950 . S
C429 C427 1.390 . S
C429 C430 1.387 . S
C429 H432 0.950 . S
C430 C429 1.387 . S
C430 C433 1.387 . S
H431 C427 0.950 . S
H432 C429 0.950 . S
C433 C424 1.390 . S
C433 H426 0.950 . S
C433 C430 1.387 . S
C434 C435 1.387 . S
C434 H438 0.950 . S
C434 C443 1.390 . S
C435 C434 1.387 . S
C435 C437 1.387 . S
H436 C443 0.950 1_554 S
C437 C435 1.387 . S
C437 C439 1.390 . S
C437 H441 0.950 . S
H438 C434 0.950 . S
C439 C437 1.390 . S
C439 C440 1.387 . S
C439 H442 0.950 . S
C440 C439 1.387 . S
C440 C443 1.387 . S
H441 C437 0.950 . S
H442 C439 0.950 . S
C443 C434 1.390 . S
C443 H436 0.950 1_556 S
C443 C440 1.387 . S
C444 C445 1.387 . S
C444 H448 0.950 . S
C444 C453 1.390 . S
C445 C444 1.387 . S
C445 C447 1.387 . S
H446 C453 0.950 . S
C447 C445 1.387 . S
C447 C449 1.390 . S
C447 H451 0.950 . S
H448 C444 0.950 . S
C449 C447 1.390 . S
C449 C450 1.387 . S
C449 H452 0.950 . S
C450 C449 1.387 . S
C450 C453 1.387 . S
H451 C447 0.950 . S
H452 C449 0.950 . S
C453 C444 1.390 . S
C453 H446 0.950 . S
C453 C450 1.387 . S
C454 C455 1.387 . S
C454 H458 0.950 . S
C454 C463 1.390 . S
C455 C454 1.387 . S
C455 C457 1.387 . S
H456 C463 0.950 1_455 S
C457 C455 1.387 . S
C457 C459 1.390 . S
C457 H461 0.950 . S
H458 C454 0.950 . S
C459 C457 1.390 . S
C459 C460 1.387 . S
C459 H462 0.950 . S
C460 C459 1.387 . S
C460 C463 1.387 . S
H461 C457 0.950 . S
H462 C459 0.950 . S
C463 C454 1.390 . S
C463 H456 0.950 1_655 S
C463 C460 1.387 . S
C464 C465 1.387 . S
C464 H468 0.950 . S
C464 C473 1.390 . S
C465 C464 1.387 . S
C465 C467 1.387 . S
H466 C473 0.950 . S
C467 C465 1.387 . S
C467 C469 1.390 . S
C467 H471 0.950 . S
H468 C464 0.950 . S
C469 C467 1.390 . S
C469 C470 1.387 . S
C469 H472 0.950 . S
C470 C469 1.387 . S
C470 C473 1.387 . S
H471 C467 0.950 . S
H472 C469 0.950 . S
C473 C464 1.390 . S
C473 H466 0.950 . S
C473 C470 1.387 . S
C474 C475 1.387 . S
C474 H478 0.950 . S
C474 C483 1.390 . S
C475 C474 1.387 . S
C475 C477 1.387 . S
H476 C483 0.950 . S
C477 C475 1.387 . S
C477 C479 1.390 . S
C477 H481 0.950 . S
H478 C474 0.950 . S
C479 C477 1.390 . S
C479 C480 1.387 . S
C479 H482 0.950 . S
C480 C479 1.387 . S
C480 C483 1.387 . S
H481 C477 0.950 . S
H482 C479 0.950 . S
C483 C474 1.390 . S
C483 H476 0.950 . S
C483 C480 1.387 . S
C484 C485 1.387 . S
C484 H488 0.950 . S
C484 C493 1.390 . S
C485 C484 1.387 . S
C485 C487 1.387 . S
H486 C493 0.950 . S
C487 C485 1.387 . S
C487 C489 1.390 . S
C487 H491 0.950 . S
H488 C484 0.950 . S
C489 C487 1.390 . S
C489 C490 1.387 . S
C489 H492 0.950 . S
C490 C489 1.387 . S
C490 C493 1.387 . S
H491 C487 0.950 . S
H492 C489 0.950 . S
C493 C484 1.390 . S
C493 H486 0.950 . S
C493 C490 1.387 . S
C494 C495 1.387 . S
C494 H498 0.950 . S
C494 C503 1.390 . S
C495 C494 1.387 . S
C495 C497 1.387 . S
H496 C503 0.950 . S
C497 C495 1.387 . S
C497 C499 1.390 . S
C497 H501 0.950 . S
H498 C494 0.950 . S
C499 C497 1.390 . S
C499 C500 1.387 . S
C499 H502 0.950 . S
C500 C499 1.387 . S
C500 C503 1.387 . S
H501 C497 0.950 . S
H502 C499 0.950 . S
C503 C494 1.390 . S
C503 H496 0.950 . S
C503 C500 1.387 . S
C504 C505 1.387 . S
C504 H508 0.950 . S
C504 C513 1.390 . S
C505 C504 1.387 . S
C505 C507 1.387 . S
H506 C513 0.950 . S
C507 C505 1.387 . S
C507 C509 1.390 . S
C507 H511 0.950 . S
H508 C504 0.950 . S
C509 C507 1.390 . S
C509 C510 1.387 . S
C509 H512 0.950 . S
C510 C509 1.387 . S
C510 C513 1.387 . S
H511 C507 0.950 . S
H512 C509 0.950 . S
C513 C504 1.390 . S
C513 H506 0.950 . S
C513 C510 1.387 . S
C514 C515 1.387 . S
C514 H518 0.950 . S
C514 C523 1.390 . S
C515 C514 1.387 . S
C515 C517 1.387 . S
H516 C523 0.950 . S
C517 C515 1.387 . S
C517 C519 1.390 . S
C517 H521 0.950 . S
H518 C514 0.950 . S
C519 C517 1.390 . S
C519 C520 1.387 . S
C519 H522 0.950 . S
C520 C519 1.387 . S
C520 C523 1.387 . S
H521 C517 0.950 . S
H522 C519 0.950 . S
C523 C514 1.390 . S
C523 H516 0.950 . S
C523 C520 1.387 . S
C524 C525 1.387 . S
C524 H528 0.950 . S
C524 C533 1.390 . S
C525 C524 1.387 . S
C525 C527 1.387 . S
H526 C533 0.950 . S
C527 C525 1.387 . S
C527 C529 1.390 . S
C527 H531 0.950 . S
H528 C524 0.950 . S
C529 C527 1.390 . S
C529 C530 1.387 . S
C529 H532 0.950 . S
C530 C529 1.387 . S
C530 C533 1.387 . S
H531 C527 0.950 . S
H532 C529 0.950 . S
C533 C524 1.390 . S
C533 H526 0.950 . S
C533 C530 1.387 . S
C534 C535 1.387 . S
C534 H538 0.950 . S
C534 C543 1.390 . S
C535 C534 1.387 . S
C535 C537 1.387 . S
H536 C543 0.950 . S
C537 C535 1.387 . S
C537 C539 1.390 . S
C537 H541 0.950 . S
H538 C534 0.950 . S
C539 C537 1.390 . S
C539 C540 1.387 . S
C539 H542 0.950 . S
C540 C539 1.387 . S
C540 C543 1.387 . S
H541 C537 0.950 . S
H542 C539 0.950 . S
C543 C534 1.390 . S
C543 H536 0.950 . S
C543 C540 1.387 . S
C544 C545 1.387 . S
C544 H548 0.950 . S
C544 C553 1.390 . S
C545 C544 1.387 . S
C545 C547 1.387 . S
H546 C553 0.950 . S
C547 C545 1.387 . S
C547 C549 1.390 1_545 S
C547 H551 0.950 . S
H548 C544 0.950 . S
C549 C547 1.390 1_565 S
C549 C550 1.387 . S
C549 H552 0.950 . S
C550 C549 1.387 . S
C550 C553 1.387 1_565 S
H551 C547 0.950 . S
H552 C549 0.950 . S
C553 C544 1.390 . S
C553 H546 0.950 . S
C553 C550 1.387 1_545 S
C554 C555 1.387 . S
C554 H558 0.950 . S
C554 C563 1.390 . S
C555 C554 1.387 . S
C555 C557 1.385 1_455 S
H556 C563 0.950 . S
C557 C555 1.385 1_655 S
C557 C559 1.392 . S
C557 H561 0.950 . S
H558 C554 0.950 . S
C559 C557 1.392 . S
C559 C560 1.387 . S
C559 H562 0.950 . S
C560 C559 1.387 . S
C560 C563 1.387 1_655 S
H561 C557 0.950 . S
H562 C559 0.950 . S
C563 C554 1.390 . S
C563 H556 0.950 . S
C563 C560 1.387 1_455 S
C564 C565 1.387 . S
C564 H568 0.950 . S
C564 C573 1.390 . S
C565 C564 1.387 . S
C565 C567 1.387 . S
H566 C573 0.950 . S
C567 C565 1.387 . S
C567 C569 1.390 . S
C567 H571 0.950 . S
H568 C564 0.950 . S
C569 C567 1.390 . S
C569 C570 1.387 . S
C569 H572 0.950 . S
C570 C569 1.387 . S
C570 C573 1.387 . S
H571 C567 0.950 . S
H572 C569 0.950 . S
C573 C564 1.390 . S
C573 H566 0.950 . S
C573 C570 1.387 . S
C574 C575 1.387 . S
C574 H578 0.950 . S
C574 C583 1.390 1_545 S
C575 C574 1.387 . S
C575 C577 1.387 . S
H576 C583 0.950 . S
C577 C575 1.387 . S
C577 C579 1.390 . S
C577 H581 0.950 . S
H578 C574 0.950 . S
C579 C577 1.390 . S
C579 C580 1.387 1_545 S
C579 H582 0.950 1_545 S
C580 C579 1.387 1_565 S
C580 C583 1.387 . S
H581 C577 0.950 . S
H582 C579 0.950 1_565 S
C583 C574 1.390 1_565 S
C583 H576 0.950 . S
C583 C580 1.387 . S
C584 C585 1.387 . S
C584 H588 0.950 . S
C584 C593 1.390 1_455 S
C585 C584 1.387 . S
C585 C587 1.387 . S
H586 C593 0.950 . S
C587 C585 1.387 . S
C587 C589 1.390 1_455 S
C587 H591 0.950 . S
H588 C584 0.950 . S
C589 C587 1.390 1_655 S
C589 C590 1.387 . S
C589 H592 0.950 . S
C590 C589 1.387 . S
C590 C593 1.387 . S
H591 C587 0.950 . S
H592 C589 0.950 . S
C593 C584 1.390 1_655 S
C593 H586 0.950 . S
C593 C590 1.387 . S
C235 C57 1.173 . S
C240 C10 1.179 . S
C245 C70 1.175 . S
C250 C23 1.181 . S
C255 C29 1.203 . S
C260 C44 1.173 . S
C265 C62 1.200 . S
C270 C5 1.193 . S
C275 C75 1.200 . S
C280 C18 1.193 . S
C285 C27 1.205 . S
C290 C49 1.208 . S
C295 C131 1.190 . S
C300 C83 1.170 . S
C305 C144 1.189 . S
C310 C94 1.182 . S
C315 C107 1.193 . S
C320 C127 1.183 . S
C325 C88 1.204 . S
C330 C133 1.166 1_554 S
C335 C146 1.185 1_554 S
C340 C92 1.190 . S
C345 C122 1.186 1_554 S
C350 C105 1.176 . S
C355 C209 1.191 . S
C360 C161 1.169 . S
C365 C172 1.185 . S
C370 C222 1.191 . S
C375 C205 1.188 . S
C380 C185 1.196 . S
C385 C211 1.184 . S
C390 C166 1.205 . S
C395 C224 1.187 . S
C400 C170 1.192 . S
C405 C183 1.179 . S
C410 C200 1.188 . S
C415 C1 1.579 1_556 S
C420 C118 1.583 . S
C425 C140 1.581 . S
C430 C14 1.579 1_556 S
C435 C153 1.570 . S
C440 C31 1.567 . S
C445 C42 1.557 . S
C450 C159 1.572 . S
C455 C174 1.570 . S
C460 C55 1.571 . S
C465 C187 1.571 . S
C470 C68 1.573 . S
C475 C198 1.571 . S
C480 C3 1.566 . S
C485 C213 1.571 . S
C490 C16 1.568 . S
C495 C226 1.580 . S
C500 C36 1.589 . S
C505 C40 1.587 . S
C510 C79 1.599 . S
C515 C53 1.586 . S
C520 C101 1.583 . S
C525 C114 1.584 . S
C530 C66 1.586 . S
C535 C196 1.579 . S
C540 C81 1.580 . S
C545 C218 1.575 . S
C550 C96 1.565 . S
C555 C109 1.574 . S
C560 C231 1.583 . S
C565 C157 1.582 . S
C570 C120 1.570 . S
C575 C179 1.582 . S
C580 C135 1.577 . S
C585 C148 1.570 . S
C590 C192 1.574 . S
