# Generated by pormake.
# Topology ure, (4)-cn, num edge types: 1
# Building blocks:
#     Node 0, Type 0, BuildingBlock: KUFVIS_clean_sbu_0, # of connection points: 4
#     Node 1, Type 0, BuildingBlock: KUFVIS_clean_sbu_0, # of connection points: 4
#     Node 2, Type 0, BuildingBlock: KUFVIS_clean_sbu_0, # of connection points: 4
#     Node 3, Type 0, BuildingBlock: KUFVIS_clean_sbu_0, # of connection points: 4
#     Node 4, Type 0, BuildingBlock: KUFVIS_clean_sbu_0, # of connection points: 4
#     Node 5, Type 0, BuildingBlock: KUFVIS_clean_sbu_0, # of connection points: 4
#     Node 6, Type 0, BuildingBlock: KUFVIS_clean_sbu_0, # of connection points: 4
#     Node 7, Type 0, BuildingBlock: KUFVIS_clean_sbu_0, # of connection points: 4
#     Node 8, Type 0, BuildingBlock: KUFVIS_clean_sbu_0, # of connection points: 4
#     Node 9, Type 0, BuildingBlock: KUFVIS_clean_sbu_0, # of connection points: 4
#     Node 10, Type 0, BuildingBlock: KUFVIS_clean_sbu_0, # of connection points: 4
#     Node 11, Type 0, BuildingBlock: KUFVIS_clean_sbu_0, # of connection points: 4
#     Node 12, Type 0, BuildingBlock: KUFVIS_clean_sbu_0, # of connection points: 4
#     Node 13, Type 0, BuildingBlock: KUFVIS_clean_sbu_0, # of connection points: 4
#     Node 14, Type 0, BuildingBlock: KUFVIS_clean_sbu_0, # of connection points: 4
#     Node 15, Type 0, BuildingBlock: KUFVIS_clean_sbu_0, # of connection points: 4
#     Edge 16, Type (0, 0), BuildingBlock: XIVTED_clean_linker_0, # of connection points: 2
#     Edge 17, Type (0, 0), BuildingBlock: XIVTED_clean_linker_0, # of connection points: 2
#     Edge 18, Type (0, 0), BuildingBlock: XIVTED_clean_linker_0, # of connection points: 2
#     Edge 19, Type (0, 0), BuildingBlock: XIVTED_clean_linker_0, # of connection points: 2
#     Edge 20, Type (0, 0), BuildingBlock: XIVTED_clean_linker_0, # of connection points: 2
#     Edge 21, Type (0, 0), BuildingBlock: XIVTED_clean_linker_0, # of connection points: 2
#     Edge 22, Type (0, 0), BuildingBlock: XIVTED_clean_linker_0, # of connection points: 2
#     Edge 23, Type (0, 0), BuildingBlock: XIVTED_clean_linker_0, # of connection points: 2
#     Edge 24, Type (0, 0), BuildingBlock: XIVTED_clean_linker_0, # of connection points: 2
#     Edge 25, Type (0, 0), BuildingBlock: XIVTED_clean_linker_0, # of connection points: 2
#     Edge 26, Type (0, 0), BuildingBlock: XIVTED_clean_linker_0, # of connection points: 2
#     Edge 27, Type (0, 0), BuildingBlock: XIVTED_clean_linker_0, # of connection points: 2
#     Edge 28, Type (0, 0), BuildingBlock: XIVTED_clean_linker_0, # of connection points: 2
#     Edge 29, Type (0, 0), BuildingBlock: XIVTED_clean_linker_0, # of connection points: 2
#     Edge 30, Type (0, 0), BuildingBlock: XIVTED_clean_linker_0, # of connection points: 2
#     Edge 31, Type (0, 0), BuildingBlock: XIVTED_clean_linker_0, # of connection points: 2
#     Edge 32, Type (0, 0), BuildingBlock: XIVTED_clean_linker_0, # of connection points: 2
#     Edge 33, Type (0, 0), BuildingBlock: XIVTED_clean_linker_0, # of connection points: 2
#     Edge 34, Type (0, 0), BuildingBlock: XIVTED_clean_linker_0, # of connection points: 2
#     Edge 35, Type (0, 0), BuildingBlock: XIVTED_clean_linker_0, # of connection points: 2
#     Edge 36, Type (0, 0), BuildingBlock: XIVTED_clean_linker_0, # of connection points: 2
#     Edge 37, Type (0, 0), BuildingBlock: XIVTED_clean_linker_0, # of connection points: 2
#     Edge 38, Type (0, 0), BuildingBlock: XIVTED_clean_linker_0, # of connection points: 2
#     Edge 39, Type (0, 0), BuildingBlock: XIVTED_clean_linker_0, # of connection points: 2
#     Edge 40, Type (0, 0), BuildingBlock: XIVTED_clean_linker_0, # of connection points: 2
#     Edge 41, Type (0, 0), BuildingBlock: XIVTED_clean_linker_0, # of connection points: 2
#     Edge 42, Type (0, 0), BuildingBlock: XIVTED_clean_linker_0, # of connection points: 2
#     Edge 43, Type (0, 0), BuildingBlock: XIVTED_clean_linker_0, # of connection points: 2
#     Edge 44, Type (0, 0), BuildingBlock: XIVTED_clean_linker_0, # of connection points: 2
#     Edge 45, Type (0, 0), BuildingBlock: XIVTED_clean_linker_0, # of connection points: 2
#     Edge 46, Type (0, 0), BuildingBlock: XIVTED_clean_linker_0, # of connection points: 2
#     Edge 47, Type (0, 0), BuildingBlock: XIVTED_clean_linker_0, # of connection points: 2
# Relax obj value: 0.170
# Max RMSD: 0.110
# Mean RMSD: 0.107
data_MOF--net-ure--node1-KUFVIS_clean_sbu_0--edge1-XIVTED_clean_linker_0
_symmetry_space_group_name_H-M    P1
_symmetry_Int_Tables_number       1
_symmetry_cell_setting            triclinic
loop_
_symmetry_equiv_pos_as_xyz
'x, y, z'
_cell_length_a     27.589581
_cell_length_b     32.61112
_cell_length_c     32.598261
_cell_angle_alpha  89.965816
_cell_angle_beta   89.989074
_cell_angle_gamma 89.97183
loop_
_atom_site_label
_atom_site_type_symbol
_atom_site_fract_x
_atom_site_fract_y
_atom_site_fract_z
_atom_type_partial_charge
Mn0 Mn 0.24351 0.29175 0.28641 0.0
Mn1 Mn 0.28605 0.33184 0.19795 0.0
C2 C 0.31865 0.27276 0.26143 0.0
C3 C 0.23852 0.29571 0.35815 0.0
C4 C 0.20974 0.26491 0.20075 0.0
O5 O 0.2005 0.34217 0.2782 0.0
O6 O 0.23431 0.36734 0.22043 0.0
C7 C 0.33269 0.40296 0.23764 0.0
N8 N 0.33529 0.3707 0.21125 0.0
C9 C 0.42032 0.38233 0.19967 0.0
C10 C 0.4184 0.41605 0.22624 0.0
C11 C 0.37452 0.42605 0.24568 0.0
C12 C 0.37768 0.35988 0.1935 0.0
H13 H 0.29912 0.41059 0.25286 0.0
C14 C 0.20354 0.36908 0.24976 0.0
O15 O 0.20703 0.27474 0.33714 0.0
O16 O 0.27102 0.31539 0.33745 0.0
N17 N 0.33696 0.30102 0.17264 0.0
C18 C 0.33454 0.26387 0.15367 0.0
C19 C 0.37603 0.24793 0.13444 0.0
C20 C 0.41945 0.27039 0.13482 0.0
C21 C 0.42111 0.30853 0.15458 0.0
C22 C 0.37838 0.3232 0.17254 0.0
H23 H 0.30119 0.24655 0.15317 0.0
O24 O 0.2961 0.24918 0.28717 0.0
O25 O 0.29626 0.30603 0.25103 0.0
O26 O 0.20801 0.26093 0.23984 0.0
O27 O 0.23675 0.29102 0.18242 0.0
C28 C 0.46374 0.33207 0.15808 0.0
C29 C 0.46344 0.36879 0.1809 0.0
H30 H 0.45054 0.43408 0.23247 0.0
H31 H 0.37281 0.45175 0.26646 0.0
H32 H 0.37456 0.2184 0.11937 0.0
H33 H 0.45137 0.25794 0.12009 0.0
H34 H 0.49732 0.3216 0.14447 0.0
H35 H 0.49686 0.38578 0.18477 0.0
Mn36 Mn -0.00045 0.03513 0.54188 0.0
Mn37 Mn 0.95639 0.94629 0.58036 0.0
C38 C 0.92439 0.01079 0.52221 0.0
C39 C 0.00498 0.10668 0.54655 0.0
C40 C 0.03275 0.94981 0.51346 0.0
O41 O 0.04227 0.02609 0.59237 0.0
O42 O 0.00853 0.9677 0.616 0.0
C43 C 0.91061 0.98507 0.65253 0.0
N44 N 0.90755 0.9593 0.6198 0.0
C45 C 0.82248 0.94819 0.63167 0.0
C46 C 0.8249 0.97407 0.66592 0.0
C47 C 0.86902 0.99303 0.67604 0.0
C48 C 0.86491 0.94209 0.60888 0.0
H49 H 0.94438 0.99991 0.66024 0.0
C50 C 0.03929 0.99695 0.61852 0.0
O51 O 0.03649 0.08572 0.52553 0.0
O52 O 0.97222 0.08602 0.56598 0.0
N53 N 0.90503 0.92194 0.54939 0.0
C54 C 0.90703 0.90369 0.51185 0.0
C55 C 0.86523 0.88518 0.49574 0.0
C56 C 0.82195 0.88553 0.51842 0.0
C57 C 0.82073 0.90455 0.55696 0.0
C58 C 0.86375 0.92181 0.57178 0.0
H59 H 0.94027 0.90325 0.49436 0.0
O60 O 0.94732 0.03669 0.49907 0.0
O61 O 0.94644 0.99985 0.55549 0.0
O62 O 0.035 0.98895 0.51057 0.0
O63 O 0.0053 0.93107 0.53896 0.0
C64 C 0.77828 0.90801 0.58078 0.0
C65 C 0.77906 0.93011 0.61795 0.0
H66 H 0.79293 0.9802 0.68423 0.0
H67 H 0.87104 0.01343 0.70211 0.0
H68 H 0.86635 0.87069 0.46589 0.0
H69 H 0.78984 0.87135 0.50578 0.0
H70 H 0.74448 0.89492 0.57023 0.0
H71 H 0.74579 0.93399 0.63515 0.0
Mn72 Mn 0.25244 0.73095 0.78692 0.0
Mn73 Mn 0.21052 0.68982 0.69879 0.0
C74 C 0.17619 0.74776 0.7628 0.0
C75 C 0.25943 0.72678 0.85841 0.0
C76 C 0.28409 0.75904 0.70113 0.0
O77 O 0.29771 0.68204 0.77805 0.0
O78 O 0.26347 0.6556 0.72107 0.0
C79 C 0.1667 0.61727 0.73842 0.0
N80 N 0.16277 0.64963 0.71223 0.0
C81 C 0.07813 0.63591 0.70102 0.0
C82 C 0.0814 0.60212 0.72747 0.0
C83 C 0.12577 0.59304 0.74657 0.0
C84 C 0.11992 0.65943 0.69468 0.0
H85 H 0.20064 0.61039 0.75342 0.0
C86 C 0.29483 0.65476 0.74998 0.0
O87 O 0.28856 0.7497 0.837 0.0
O88 O 0.22773 0.70562 0.83828 0.0
N89 N 0.15842 0.71936 0.67369 0.0
C90 C 0.15946 0.75656 0.65468 0.0
C91 C 0.11737 0.77144 0.63556 0.0
C92 C 0.07478 0.74787 0.63607 0.0
C93 C 0.07454 0.70971 0.65589 0.0
C94 C 0.11783 0.69612 0.67372 0.0
H95 H 0.19217 0.77472 0.65407 0.0
O96 O 0.19805 0.7717 0.78858 0.0
O97 O 0.19964 0.71509 0.75207 0.0
O98 O 0.28558 0.76323 0.74018 0.0
O99 O 0.25832 0.73194 0.68298 0.0
C100 C 0.03277 0.6851 0.65957 0.0
C101 C 0.03447 0.6484 0.68244 0.0
H102 H 0.04994 0.58326 0.73377 0.0
H103 H 0.12851 0.56724 0.76724 0.0
H104 H 0.11773 0.801 0.62046 0.0
H105 H 0.04243 0.75951 0.62138 0.0
H106 H -0.00122 0.69471 0.64607 0.0
H107 H 0.00169 0.63059 0.68646 0.0
Mn108 Mn 0.49371 0.98521 0.03811 0.0
Mn109 Mn 0.53367 0.07362 0.07983 0.0
C110 C 0.56815 0.012 0.01968 0.0
C111 C 0.4908 0.91336 0.04082 0.0
C112 C 0.45792 0.07069 0.01231 0.0
O113 O 0.45025 0.99159 0.08857 0.0
O114 O 0.48229 0.04955 0.11461 0.0
C115 C 0.58062 0.03309 0.15051 0.0
N116 N 0.58285 0.06029 0.11886 0.0
C117 C 0.66757 0.07271 0.13116 0.0
C118 C 0.66602 0.04524 0.16422 0.0
C119 C 0.62248 0.02499 0.17363 0.0
C120 C 0.62495 0.07887 0.10865 0.0
H121 H 0.54733 0.01718 0.1576 0.0
C122 C 0.45242 0.01956 0.11598 0.0
O123 O 0.45875 0.93411 0.02015 0.0
O124 O 0.52266 0.93431 0.06093 0.0
N125 N 0.58428 0.10041 0.0499 0.0
C126 C 0.5818 0.12008 0.01308 0.0
C127 C 0.62305 0.14016 0.99777 0.0
C128 C 0.6663 0.13991 0.02051 0.0
C129 C 0.66798 0.11947 0.05832 0.0
C130 C 0.6255 0.10064 0.07238 0.0
H131 H 0.54861 0.12045 0.99554 0.0
O132 O 0.54637 0.98626 0.99562 0.0
O133 O 0.54543 0.0213 0.05311 0.0
O134 O 0.45706 0.03162 1.00799 0.0
O135 O 0.48435 0.08912 0.03879 0.0
C136 C 0.71046 0.11609 0.08208 0.0
C137 C 0.71036 0.09245 0.11832 0.0
H138 H 0.69821 0.03899 0.18221 0.0
H139 H 0.62113 1.00342 0.19881 0.0
H140 H 0.62155 0.15575 0.96848 0.0
H141 H 0.6981 0.1552 1.00849 0.0
H142 H 0.74383 0.13042 0.0721 0.0
H143 H 0.74371 0.0887 0.13544 0.0
Mn144 Mn 0.23966 0.73113 0.2364 0.0
Mn145 Mn 0.28296 0.68998 0.32405 0.0
C146 C 0.31631 0.74785 0.25964 0.0
C147 C 0.23179 0.72631 0.16502 0.0
C148 C 0.20905 0.75906 0.32241 0.0
O149 O 0.1944 0.68238 0.24601 0.0
O150 O 0.23001 0.65553 0.30224 0.0
C151 C 0.32711 0.61835 0.2832 0.0
N152 N 0.33092 0.65019 0.30998 0.0
C153 C 0.41591 0.63707 0.32013 0.0
C154 C 0.41276 0.60381 0.29305 0.0
C155 C 0.3683 0.59476 0.27411 0.0
C156 C 0.3739 0.66014 0.32719 0.0
H157 H 0.29309 0.61153 0.26831 0.0
C158 C 0.19798 0.6549 0.27386 0.0
O159 O 0.20301 0.7496 0.18637 0.0
O160 O 0.26369 0.70531 0.18511 0.0
N161 N 0.33511 0.71975 0.34871 0.0
C162 C 0.33397 0.75686 0.36785 0.0
C163 C 0.37616 0.77188 0.38667 0.0
C164 C 0.41896 0.74856 0.3857 0.0
C165 C 0.4193 0.7105 0.36575 0.0
C166 C 0.37591 0.69673 0.34828 0.0
H167 H 0.3011 0.77483 0.36882 0.0
O168 O 0.29422 0.77175 0.23393 0.0
O169 O 0.29282 0.71538 0.27075 0.0
O170 O 0.20729 0.7636 0.28338 0.0
O171 O 0.23494 0.73179 0.34027 0.0
C172 C 0.46127 0.6862 0.36156 0.0
C173 C 0.45969 0.64967 0.33844 0.0
H174 H 0.44441 0.58544 0.28603 0.0
H175 H 0.36567 0.56945 0.25285 0.0
H176 H 0.37571 0.80136 0.40189 0.0
H177 H 0.45141 0.76031 0.40013 0.0
H178 H 0.49534 0.69597 0.37479 0.0
H179 H 0.49263 0.63215 0.33394 0.0
Mn180 Mn 0.48935 0.03348 0.47783 0.0
Mn181 Mn 0.53334 0.94549 0.43802 0.0
C182 C 0.56599 0.01058 0.49524 0.0
C183 C 0.48143 0.10485 0.47286 0.0
C184 C 0.45926 0.94764 0.50692 0.0
O185 O 0.44444 0.02336 0.42883 0.0
O186 O 0.48003 0.96648 0.40347 0.0
C187 C 0.57673 0.98546 0.36546 0.0
N188 N 0.58097 0.9593 0.39783 0.0
C189 C 0.66592 0.94928 0.38445 0.0
C190 C 0.66232 0.97565 0.35062 0.0
C191 C 0.61765 0.9942 0.3414 0.0
C192 C 0.62413 0.94245 0.40787 0.0
H193 H 0.54254 1.00002 0.3585 0.0
C194 C 0.44797 0.99481 0.4021 0.0
O195 O 0.4524 0.08344 0.49588 0.0
O196 O 0.51339 0.08476 0.45193 0.0
N197 N 0.58583 0.9215 0.46794 0.0
C198 C 0.58499 0.90275 0.50529 0.0
C199 C 0.62736 0.88426 0.52038 0.0
C200 C 0.67002 0.88512 0.49687 0.0
C201 C 0.67006 0.90468 0.45857 0.0
C202 C 0.62649 0.92184 0.44476 0.0
H203 H 0.55222 0.90184 0.52338 0.0
O204 O 0.5435 0.03634 0.51879 0.0
O205 O 0.54289 0.99915 0.46266 0.0
O206 O 0.45689 0.98671 0.51058 0.0
O207 O 0.48567 0.9295 0.48022 0.0
C208 C 0.71185 0.90873 0.43402 0.0
C209 C 0.70989 0.93135 0.39716 0.0
H210 H 0.69377 0.98239 0.33188 0.0
H211 H 0.61468 0.01491 0.31562 0.0
H212 H 0.62716 0.86934 0.55004 0.0
H213 H 0.70255 0.87086 0.50866 0.0
H214 H 0.74606 0.89573 0.44381 0.0
H215 H 0.74268 0.9357 0.3794 0.0
Mn216 Mn 0.24842 0.29203 0.7381 0.0
Mn217 Mn 0.20613 0.33234 0.82646 0.0
C218 C 0.17317 0.27349 0.76305 0.0
C219 C 0.25317 0.29582 0.66633 0.0
C220 C 0.28162 0.26461 0.82389 0.0
O221 O 0.29177 0.34221 0.74614 0.0
O222 O 0.25868 0.36716 0.80428 0.0
C223 C 0.16116 0.40423 0.78644 0.0
N224 N 0.15774 0.37199 0.81285 0.0
C225 C 0.07275 0.38465 0.82361 0.0
C226 C 0.07556 0.41841 0.79709 0.0
C227 C 0.11982 0.42789 0.77799 0.0
C228 C 0.11495 0.36168 0.83022 0.0
H229 H 0.19502 0.41141 0.77146 0.0
C230 C 0.28927 0.36889 0.7748 0.0
O231 O 0.28463 0.27474 0.68732 0.0
O232 O 0.22092 0.31576 0.68705 0.0
N233 N 0.15441 0.30223 0.85143 0.0
C234 C 0.15592 0.26493 0.87022 0.0
C235 C 0.11384 0.24937 0.88881 0.0
C236 C 0.07078 0.27234 0.88799 0.0
C237 C 0.07009 0.31065 0.86846 0.0
C238 C 0.11336 0.32493 0.85113 0.0
H239 H 0.18896 0.24718 0.87097 0.0
O240 O 0.19567 0.24973 0.73745 0.0
O241 O 0.19574 0.30668 0.77338 0.0
O242 O 0.28374 0.26104 0.78475 0.0
O243 O 0.25457 0.29071 0.84223 0.0
C244 C 0.02788 0.33468 0.86449 0.0
C245 C 0.02912 0.37151 0.84181 0.0
H246 H 0.04377 0.43681 0.79055 0.0
H247 H 0.12212 0.45356 0.75705 0.0
H248 H 0.11457 0.2197 0.90369 0.0
H249 H 0.03837 0.26011 0.90214 0.0
H250 H 0.9939 0.32451 0.87762 0.0
H251 H 0.99602 0.38886 0.83753 0.0
Mn252 Mn 0.00139 0.98749 0.98293 0.0
Mn253 Mn 0.96024 0.07608 0.94217 0.0
C254 C 0.92651 0.01328 1.00153 0.0
C255 C 0.00598 0.91581 0.97953 0.0
C256 C 0.03598 0.07285 1.00965 0.0
O257 O 0.04472 0.99494 0.93258 0.0
O258 O 0.01169 0.05275 0.90694 0.0
C259 C 0.91348 0.0367 0.87079 0.0
N260 N 0.91108 0.06319 0.903 0.0
C261 C 0.8264 0.07587 0.89076 0.0
C262 C 0.82812 0.04918 0.8571 0.0
C263 C 0.8717 0.02908 0.84743 0.0
C264 C 0.86894 0.08155 0.91349 0.0
H265 H 0.94683 0.021 0.86343 0.0
C266 C 0.04195 0.02303 0.90529 0.0
O267 O 0.03746 0.93686 1.00046 0.0
O268 O 0.97355 0.93641 0.95961 0.0
N269 N 0.90949 0.10208 0.97262 0.0
C270 C 0.91183 0.12095 1.00985 0.0
C271 C 0.87044 0.14052 0.02556 0.0
C272 C 0.82721 0.14062 1.0028 0.0
C273 C 0.82568 0.121 0.96457 0.0
C274 C 0.86827 0.10261 0.95016 0.0
H275 H 0.945 0.12104 0.02741 0.0
O276 O 0.94866 0.98748 0.02534 0.0
O277 O 0.9491 0.02323 0.9682 0.0
O278 O 0.03722 0.03379 0.01362 0.0
O279 O 0.00949 0.09137 0.98326 0.0
C280 C 0.78324 0.11804 0.94071 0.0
C281 C 0.78351 0.09524 0.90396 0.0
H282 H 0.796 0.04332 0.83891 0.0
H283 H 0.87316 1.00801 0.82182 0.0
H284 H 0.87184 0.15547 0.05517 0.0
H285 H 0.79531 0.15554 0.01512 0.0
H286 H 0.74979 0.13205 0.95096 0.0
H287 H 0.75021 0.09182 0.88673 0.0
Mn288 Mn 0.74011 0.2291 0.73309 0.0
Mn289 Mn 0.78241 0.18878 0.82146 0.0
C290 C 0.81497 0.24828 0.7584 0.0
C291 C 0.73548 0.22553 0.66137 0.0
C292 C 0.70598 0.25576 0.81871 0.0
O293 O 0.69729 0.1785 0.74089 0.0
O294 O 0.73104 0.15327 0.79858 0.0
C295 C 0.82943 0.11777 0.78162 0.0
N296 N 0.83183 0.14998 0.80809 0.0
C297 C 0.91686 0.13845 0.81978 0.0
C298 C 0.91513 0.10476 0.79314 0.0
C299 C 0.87134 0.09469 0.77361 0.0
C300 C 0.87413 0.16081 0.82597 0.0
H301 H 0.79594 0.11014 0.76628 0.0
C302 C 0.70051 0.15136 0.76909 0.0
O303 O 0.70377 0.24627 0.6824 0.0
O304 O 0.768 0.2058 0.68202 0.0
N305 N 0.83314 0.21953 0.84706 0.0
C306 C 0.83056 0.25663 0.86612 0.0
C307 C 0.87199 0.27263 0.88533 0.0
C308 C 0.91552 0.25027 0.88486 0.0
C309 C 0.9173 0.21216 0.86507 0.0
C310 C 0.87464 0.19743 0.84709 0.0
H311 H 0.79715 0.27389 0.86664 0.0
O312 O 0.79241 0.27187 0.73267 0.0
O313 O 0.79278 0.21485 0.76854 0.0
O314 O 0.70431 0.25964 0.77961 0.0
O315 O 0.73292 0.22959 0.83709 0.0
C316 C 0.96004 0.18873 0.86149 0.0
C317 C 0.9599 0.15206 0.83859 0.0
H318 H 0.94736 0.08681 0.78694 0.0
H319 H 0.86984 0.06904 0.75265 0.0
H320 H 0.87041 0.30214 0.90043 0.0
H321 H 0.94742 0.26284 0.8995 0.0
H322 H 0.99358 0.19928 0.8751 0.0
H323 H 0.9934 0.13519 0.83465 0.0
Mn324 Mn 0.99355 0.53649 0.98132 0.0
Mn325 Mn 0.03699 0.44852 0.94101 0.0
C326 C 0.06888 0.5119 1.00035 0.0
C327 C 0.9876 0.60812 0.97789 0.0
C328 C 0.96045 0.45053 1.00784 0.0
O329 O 0.95099 0.52844 0.93062 0.0
O330 O 0.98516 0.47083 0.9055 0.0
C331 C 0.08339 0.48878 0.86994 0.0
N332 N 0.08616 0.46229 0.90214 0.0
C333 C 0.17128 0.45118 0.89045 0.0
C334 C 0.16915 0.47777 0.8567 0.0
C335 C 0.12515 0.49708 0.84678 0.0
C336 C 0.12868 0.44473 0.91292 0.0
H337 H 0.04972 0.50389 0.86238 0.0
C338 C 0.95436 0.50013 0.90364 0.0
O339 O 0.9563 0.58662 0.9986 0.0
O340 O 0.02057 0.58796 0.95818 0.0
N341 N 0.0881 0.42347 0.9718 0.0
C342 C 0.08585 0.40452 1.00901 0.0
C343 C 0.12754 0.38565 0.025 0.0
C344 C 0.17098 0.38637 1.00254 0.0
C345 C 0.17245 0.40609 0.96434 0.0
C346 C 0.12955 0.42371 0.94962 0.0
H347 H 0.0525 0.4038 0.02633 0.0
O348 O 0.04594 0.53727 0.02407 0.0
O349 O 0.04668 0.50157 0.96697 0.0
O350 O 0.95832 0.48959 0.01173 0.0
O351 O 0.98776 0.43241 0.9818 0.0
C352 C 0.21507 0.40993 0.9408 0.0
C353 C 0.21457 0.43273 0.90403 0.0
H354 H 0.20125 0.48419 0.83866 0.0
H355 H 0.12335 0.51803 0.82115 0.0
H356 H 0.12621 0.37062 0.05458 0.0
H357 H 0.20305 0.37195 0.01508 0.0
H358 H 0.24879 0.3966 0.95131 0.0
H359 H 0.24797 0.43689 0.88708 0.0
Mn360 Mn 0.75016 0.78778 0.23556 0.0
Mn361 Mn 0.70769 0.82893 0.32344 0.0
C362 C 0.67503 0.76915 0.26077 0.0
C363 C 0.75517 0.79087 0.16385 0.0
C364 C 0.78383 0.76174 0.32157 0.0
O365 O 0.79312 0.8383 0.24297 0.0
O366 O 0.75978 0.86385 0.30072 0.0
C367 C 0.6618 0.89974 0.28232 0.0
N368 N 0.65884 0.86799 0.30935 0.0
C369 C 0.57376 0.88015 0.32011 0.0
C370 C 0.57606 0.91338 0.29289 0.0
C371 C 0.62014 0.92285 0.2735 0.0
C372 C 0.61623 0.85763 0.32699 0.0
H373 H 0.69552 0.9069 0.2671 0.0
C374 C 0.79035 0.86537 0.27123 0.0
O375 O 0.78667 0.77014 0.18514 0.0
O376 O 0.72258 0.81077 0.18424 0.0
N377 N 0.65637 0.79877 0.34892 0.0
C378 C 0.65835 0.76177 0.36827 0.0
C379 C 0.61654 0.74624 0.38731 0.0
C380 C 0.57327 0.76892 0.38635 0.0
C381 C 0.57209 0.80691 0.3662 0.0
C382 C 0.6151 0.82119 0.34845 0.0
H383 H 0.69157 0.74427 0.36916 0.0
O384 O 0.69764 0.7452 0.23542 0.0
O385 O 0.69745 0.80252 0.27071 0.0
O386 O 0.78573 0.75761 0.2825 0.0
O387 O 0.75666 0.78791 0.33969 0.0
C388 C 0.52964 0.83063 0.36208 0.0
C389 C 0.53038 0.86706 0.33875 0.0
H390 H 0.54404 0.93138 0.28608 0.0
H391 H 0.62206 0.94811 0.25204 0.0
H392 H 0.61765 0.71682 0.40266 0.0
H393 H 0.5411 0.75671 0.40087 0.0
H394 H 0.49586 0.8205 0.37556 0.0
H395 H 0.49708 0.88413 0.33436 0.0
Mn396 Mn 0.99706 0.48621 0.53938 0.0
Mn397 Mn 0.03972 0.57492 0.57838 0.0
C398 C 0.07205 0.51094 0.51985 0.0
C399 C 0.99216 0.4146 0.54401 0.0
C400 C 0.96347 0.57162 0.51136 0.0
O401 O 0.95435 0.49473 0.58989 0.0
O402 O 0.98757 0.55314 0.6139 0.0
C403 C 0.08546 0.53548 0.65023 0.0
N404 N 0.08849 0.56169 0.61781 0.0
C405 C 0.17352 0.57279 0.62989 0.0
C406 C 0.17108 0.54654 0.66388 0.0
C407 C 0.12703 0.52729 0.67369 0.0
C408 C 0.13112 0.57906 0.60708 0.0
H409 H 0.05174 0.52043 0.65771 0.0
C410 C 0.95711 0.52364 0.61625 0.0
O411 O 0.96051 0.43542 0.52296 0.0
O412 O 0.02479 0.43542 0.56337 0.0
N413 N 0.09114 0.59954 0.54762 0.0
C414 C 0.0893 0.61788 0.51009 0.0
C415 C 0.1312 0.63637 0.49408 0.0
C416 C 0.17442 0.63593 0.51684 0.0
C417 C 0.17545 0.61683 0.55537 0.0
C418 C 0.13236 0.59957 0.57009 0.0
H419 H 0.05613 0.61836 0.49252 0.0
O420 O 0.04928 0.48511 0.49656 0.0
O421 O 0.04988 0.5216 0.55316 0.0
O422 O 0.96133 0.53248 0.50831 0.0
O423 O 0.99085 0.59029 0.53695 0.0
C424 C 0.21783 0.61328 0.57926 0.0
C425 C 0.21695 0.591 0.61635 0.0
H426 H 0.20303 0.54024 0.68216 0.0
H427 H 0.12504 0.50647 0.69948 0.0
H428 H 0.13021 0.6509 0.46423 0.0
H429 H 0.20666 0.65003 0.50428 0.0
H430 H 0.25166 0.62642 0.56881 0.0
H431 H 0.25019 0.58705 0.6336 0.0
Mn432 Mn 0.50353 0.53378 0.03935 0.0
Mn433 Mn 0.46119 0.44617 0.08118 0.0
C434 C 0.42774 0.50911 0.0219 0.0
C435 C 0.50885 0.60552 0.04236 0.0
C436 C 0.53573 0.4476 0.01268 0.0
O437 O 0.54766 0.52597 0.08915 0.0
O438 O 0.51421 0.46854 0.11529 0.0
C439 C 0.41727 0.48729 0.15283 0.0
N440 N 0.41333 0.46049 0.121 0.0
C441 C 0.32842 0.45031 0.13445 0.0
C442 C 0.33173 0.47736 0.16773 0.0
C443 C 0.37623 0.49629 0.17663 0.0
C444 C 0.37034 0.44319 0.11127 0.0
H445 H 0.4513 0.50217 0.15956 0.0
C446 C 0.54515 0.49776 0.11632 0.0
O447 O 0.53982 0.5842 0.0211 0.0
O448 O 0.47683 0.58513 0.06289 0.0
N449 N 0.40902 0.42103 0.05182 0.0
C450 C 0.41007 0.40159 0.01486 0.0
C451 C 0.36782 0.38273 1.00002 0.0
C452 C 0.32505 0.38396 0.02338 0.0
C453 C 0.32481 0.40422 0.06129 0.0
C454 C 0.36825 0.42176 0.07487 0.0
H455 H 0.4429 0.40045 0.99685 0.0
O456 O 0.45005 0.53436 0.99763 0.0
O457 O 0.45079 0.49897 0.05493 0.0
O458 O 0.53795 0.48665 1.00848 0.0
O459 O 0.50906 0.42971 0.03938 0.0
C460 C 0.2829 0.40863 0.08564 0.0
C461 C 0.28461 0.43196 0.12203 0.0
H462 H 0.30018 0.48433 0.18626 0.0
H463 H 0.379 0.51749 0.20198 0.0
H464 H 0.36819 0.36728 0.97065 0.0
H465 H 0.29255 0.36951 0.01175 0.0
H466 H 0.24881 0.39533 0.07604 0.0
H467 H 0.25174 0.43654 0.13962 0.0
Mn468 Mn 0.742 0.78813 0.78456 0.0
Mn469 Mn 0.78593 0.82731 0.69624 0.0
C470 C 0.81751 0.7688 0.7606 0.0
C471 C 0.73574 0.79225 0.85612 0.0
C472 C 0.7103 0.75986 0.69873 0.0
O473 O 0.69902 0.83849 0.77555 0.0
O474 O 0.73297 0.86227 0.71732 0.0
C475 C 0.83008 0.89951 0.7362 0.0
N476 N 0.83395 0.86714 0.71003 0.0
C477 C 0.91892 0.88007 0.69968 0.0
C478 C 0.91567 0.91397 0.72597 0.0
C479 C 0.8712 0.92336 0.74477 0.0
C480 C 0.87694 0.85688 0.69303 0.0
H481 H 0.79603 0.90665 0.75091 0.0
C482 C 0.70194 0.8646 0.74639 0.0
O483 O 0.70459 0.77128 0.83476 0.0
O484 O 0.7686 0.81196 0.83584 0.0
N485 N 0.83808 0.79712 0.67208 0.0
C486 C 0.8369 0.75977 0.65341 0.0
C487 C 0.87915 0.74436 0.63498 0.0
C488 C 0.92201 0.76757 0.63579 0.0
C489 C 0.92237 0.80591 0.65522 0.0
C490 C 0.87894 0.82001 0.67239 0.0
H491 H 0.80398 0.74189 0.65259 0.0
O492 O 0.79442 0.74548 0.78623 0.0
O493 O 0.79548 0.80214 0.74975 0.0
O494 O 0.70732 0.75698 0.73786 0.0
O495 O 0.73789 0.7855 0.68033 0.0
C496 C 0.96434 0.83021 0.65913 0.0
C497 C 0.96271 0.8671 0.68166 0.0
H498 H 0.94728 0.93254 0.73254 0.0
H499 H 0.86856 0.94912 0.76556 0.0
H500 H 0.8787 0.71467 0.62018 0.0
H501 H 0.95448 0.75551 0.62164 0.0
H502 H -0.00156 0.82021 0.64612 0.0
H503 H 0.99564 0.88465 0.68591 0.0
Mn504 Mn 0.75243 0.22921 0.28202 0.0
Mn505 Mn 0.70933 0.189 0.19396 0.0
C506 C 0.67713 0.24817 0.25738 0.0
C507 C 0.75785 0.22554 0.3537 0.0
C508 C 0.78537 0.25615 0.19609 0.0
O509 O 0.79531 0.17871 0.27389 0.0
O510 O 0.76156 0.15381 0.21606 0.0
C511 C 0.66376 0.11785 0.23467 0.0
N512 N 0.66061 0.14985 0.20795 0.0
C513 C 0.5755 0.13773 0.1974 0.0
C514 C 0.57803 0.10419 0.22421 0.0
C515 C 0.62222 0.09457 0.24336 0.0
C516 C 0.61789 0.16036 0.19059 0.0
H517 H 0.69757 0.11056 0.24968 0.0
C518 C 0.7923 0.15193 0.24538 0.0
O519 O 0.78925 0.24639 0.33245 0.0
O520 O 0.7252 0.20578 0.33327 0.0
N521 N 0.65782 0.21941 0.16902 0.0
C522 C 0.65966 0.25654 0.1499 0.0
C523 C 0.61775 0.27219 0.13109 0.0
C524 C 0.57452 0.24947 0.13203 0.0
C525 C 0.57349 0.21137 0.15193 0.0
C526 C 0.61659 0.19698 0.16946 0.0
H527 H 0.69285 0.27405 0.14899 0.0
O528 O 0.69993 0.27184 0.28285 0.0
O529 O 0.69944 0.21486 0.24701 0.0
O530 O 0.78761 0.25982 0.23519 0.0
O531 O 0.75813 0.23016 0.17785 0.0
C532 C 0.5311 0.18759 0.15601 0.0
C533 C 0.53202 0.15097 0.17903 0.0
H534 H 0.5461 0.08605 0.23091 0.0
H535 H 0.62434 0.06908 0.2645 0.0
H536 H 0.61875 0.3017 0.11591 0.0
H537 H 0.54228 0.26173 0.11764 0.0
H538 H 0.49725 0.1978 0.1427 0.0
H539 H 0.49878 0.13386 0.18339 0.0
Mn540 Mn 0.50661 0.48247 0.47811 0.0
Mn541 Mn 0.46431 0.57057 0.43718 0.0
C542 C 0.43032 0.50639 0.49507 0.0
C543 C 0.51347 0.41103 0.47299 0.0
C544 C 0.53832 0.56808 0.50614 0.0
O545 O 0.55198 0.49184 0.42934 0.0
O546 O 0.51678 0.54822 0.40246 0.0
C547 C 0.4193 0.53068 0.36542 0.0
N548 N 0.41593 0.55714 0.39756 0.0
C549 C 0.33098 0.56812 0.38489 0.0
C550 C 0.33365 0.54129 0.3514 0.0
C551 C 0.37791 0.52221 0.34191 0.0
C552 C 0.37321 0.57467 0.40781 0.0
H553 H 0.45314 0.51564 0.35825 0.0
C554 C 0.54857 0.51962 0.40178 0.0
O555 O 0.54258 0.43198 0.49634 0.0
O556 O 0.48189 0.43156 0.45209 0.0
N557 N 0.41266 0.59574 0.46724 0.0
C558 C 0.41429 0.61488 0.50435 0.0
C559 C 0.37243 0.63408 0.51961 0.0
C560 C 0.32946 0.63351 0.49652 0.0
C561 C 0.32861 0.61358 0.45845 0.0
C562 C 0.37169 0.5957 0.44444 0.0
H563 H 0.44729 0.61555 0.52214 0.0
O564 O 0.45212 0.48036 0.51882 0.0
O565 O 0.45384 0.51736 0.46254 0.0
O566 O 0.53955 0.52906 0.51074 0.0
O567 O 0.51273 0.58617 0.47883 0.0
C568 C 0.28644 0.60983 0.43434 0.0
C569 C 0.28751 0.58678 0.39776 0.0
H570 H 0.30184 0.53471 0.33308 0.0
H571 H 0.38023 0.50133 0.31632 0.0
H572 H 0.37328 0.6493 0.54909 0.0
H573 H 0.29726 0.64823 0.50844 0.0
H574 H 0.2526 0.62338 0.4443 0.0
H575 H 0.25442 0.58268 0.38035 0.0
H576 H 0.18319 0.27734 0.12128 0.0
H577 H 0.07529 0.05255 0.08491 0.0
H578 H 0.17176 0.18866 0.21918 0.0
H579 H 0.06077 0.15319 0.99965 0.0
H580 H 0.11615 0.09902 0.13317 0.0
H581 H 0.14268 0.22973 0.07542 0.0
C582 C 0.1719 0.24786 0.13327 0.0
C583 C 0.18095 0.23706 0.17427 0.0
C584 C 0.10405 0.11076 0.10383 0.0
C585 C 0.13463 0.18182 0.12135 0.0
C586 C 0.0811 0.08421 0.07614 0.0
C587 C 0.06451 0.09893 0.0381 0.0
C588 C 0.11084 0.15214 0.09318 0.0
C589 C 0.07266 0.14037 0.0286 0.0
C590 C 0.14871 0.2206 0.10696 0.0
C591 C 0.16523 0.19838 0.18791 0.0
N592 N 0.09519 0.16535 0.05585 0.0
N593 N 0.1431 0.17199 0.16141 0.0
H594 H 0.07458 0.97113 0.43943 0.0
H595 H 0.18328 0.74676 0.40214 0.0
H596 H 0.05601 0.86904 0.52234 0.0
H597 H 0.17195 0.83578 0.30452 0.0
H598 H 0.14236 0.79414 0.44804 0.0
H599 H 0.11679 0.92524 0.39137 0.0
C600 C 0.07974 0.93927 0.44772 0.0
C601 C 0.06165 0.92397 0.48503 0.0
C602 C 0.14856 0.8034 0.41656 0.0
C603 C 0.10961 0.87146 0.43025 0.0
C604 C 0.17203 0.77629 0.39023 0.0
C605 C 0.18111 0.78721 0.34927 0.0
C606 C 0.13424 0.84214 0.40221 0.0
C607 C 0.16542 0.82596 0.33576 0.0
C608 C 0.10348 0.91306 0.42016 0.0
C609 C 0.06905 0.88229 0.49395 0.0
N610 N 0.14298 0.85219 0.36225 0.0
N611 N 0.09243 0.85766 0.46688 0.0
H612 H 0.43535 0.86723 0.49662 0.0
H613 H 0.32351 0.83447 0.72068 0.0
H614 H 0.42038 0.96706 0.58264 0.0
H615 H 0.30803 0.74876 0.62062 0.0
H616 H 0.36525 0.88196 0.67385 0.0
H617 H 0.39429 0.82215 0.54474 0.0
C618 C 0.42329 0.87979 0.52564 0.0
C619 C 0.43137 0.92114 0.53549 0.0
C620 C 0.35267 0.8527 0.66233 0.0
C621 C 0.38432 0.86915 0.59127 0.0
C622 C 0.32918 0.82547 0.68906 0.0
C623 C 0.31217 0.7875 0.67463 0.0
C624 C 0.35965 0.84162 0.62107 0.0
C625 C 0.32023 0.77767 0.63323 0.0
C626 C 0.39972 0.85394 0.55316 0.0
C627 C 0.41465 0.9355 0.57363 0.0
N628 N 0.34338 0.80443 0.60809 0.0
N629 N 0.39215 0.90946 0.60029 0.0
H630 H 0.41885 0.05128 0.9367 0.0
H631 H 0.30606 0.27518 0.9042 0.0
H632 H 0.43156 0.15051 0.02364 0.0
H633 H 0.32114 0.18912 0.80442 0.0
H634 H 0.34693 0.22705 0.94943 0.0
H635 H 0.37696 0.0981 0.88928 0.0
C636 C 0.41243 0.08269 0.94602 0.0
C637 C 0.42883 0.09691 0.98428 0.0
C638 C 0.34159 0.21862 0.91762 0.0
C639 C 0.38126 0.15054 0.93017 0.0
C640 C 0.31818 0.24618 0.89166 0.0
C641 C 0.31011 0.23631 0.85029 0.0
C642 C 0.35688 0.18045 0.9025 0.0
C643 C 0.32687 0.19817 0.83599 0.0
C644 C 0.38889 0.10945 0.91881 0.0
C645 C 0.41986 0.13808 0.99449 0.0
N646 N 0.34922 0.17148 0.86213 0.0
N647 N 0.39674 0.16326 0.96772 0.0
H648 H 0.66644 0.33102 0.79876 0.0
H649 H 0.56061 0.36758 0.02445 0.0
H650 H 0.68165 0.24559 0.89918 0.0
H651 H 0.57313 0.46568 0.93611 0.0
H652 H 0.59993 0.32141 0.97633 0.0
H653 H 0.62608 0.37927 0.84561 0.0
C654 C 0.66086 0.3222 0.83045 0.0
C655 C 0.67752 0.28413 0.84499 0.0
C656 C 0.59438 0.35306 0.96739 0.0
C657 C 0.63176 0.3392 0.89865 0.0
C658 C 0.57186 0.37955 0.99494 0.0
C659 C 0.56352 0.42071 0.98441 0.0
C660 C 0.60846 0.36745 0.92859 0.0
C661 C 0.57913 0.43429 0.94565 0.0
C662 C 0.6382 0.34988 0.85722 0.0
C663 C 0.66968 0.27457 0.8865 0.0
N664 N 0.60059 0.40764 0.91899 0.0
N665 N 0.64742 0.30181 0.9117 0.0
H666 H 0.91965 0.46995 0.08274 0.0
H667 H 0.8106 0.24508 0.11599 0.0
H668 H 0.93674 0.37007 0.99706 0.0
H669 H 0.82408 0.3318 0.21535 0.0
H670 H 0.85143 0.29324 0.07071 0.0
H671 H 0.87818 0.42287 0.13009 0.0
C672 C 0.91429 0.43833 0.07369 0.0
C673 C 0.93176 0.42401 0.03581 0.0
C674 C 0.84575 0.30179 0.10244 0.0
C675 C 0.88467 0.37011 0.08982 0.0
C676 C 0.82237 0.27424 0.12841 0.0
C677 C 0.81389 0.28431 0.16967 0.0
C678 C 0.8605 0.34014 0.11746 0.0
C679 C 0.83017 0.32261 0.18387 0.0
C680 C 0.89099 0.41144 0.10086 0.0
C681 C 0.92416 0.38258 0.02592 0.0
N682 N 0.85243 0.34929 0.15772 0.0
N683 N 0.90121 0.35726 0.05264 0.0
H684 H 0.92162 0.55056 0.4373 0.0
H685 H 0.81021 0.77421 0.40115 0.0
H686 H 0.94 0.65236 0.52047 0.0
H687 H 0.82273 0.68587 0.30314 0.0
H688 H 0.85236 0.72712 0.4467 0.0
H689 H 0.87905 0.59653 0.3895 0.0
C690 C 0.91636 0.58238 0.4457 0.0
C691 C 0.93447 0.59755 0.48303 0.0
C692 C 0.84617 0.71797 0.4152 0.0
C693 C 0.88609 0.65017 0.42851 0.0
C694 C 0.82202 0.74491 0.38908 0.0
C695 C 0.81289 0.73408 0.34813 0.0
C696 C 0.86106 0.67947 0.40066 0.0
C697 C 0.82929 0.69563 0.33438 0.0
C698 C 0.89242 0.60863 0.41827 0.0
C699 C 0.92694 0.63919 0.49207 0.0
N700 N 0.85232 0.66955 0.36068 0.0
N701 N 0.90334 0.66387 0.46514 0.0
H702 H 0.5659 0.64722 0.4934 0.0
H703 H 0.66839 0.68579 0.71966 0.0
H704 H 0.5736 0.5504 0.58355 0.0
H705 H 0.689 0.76829 0.6175 0.0
H706 H 0.62765 0.63738 0.67323 0.0
H707 H 0.60598 0.69319 0.54113 0.0
C708 C 0.57622 0.63549 0.52325 0.0
C709 C 0.56631 0.59475 0.53439 0.0
C710 C 0.64109 0.66615 0.66116 0.0
C711 C 0.61219 0.64781 0.58976 0.0
C712 C 0.66399 0.69392 0.68766 0.0
C713 C 0.68221 0.73123 0.67252 0.0
C714 C 0.63597 0.67602 0.61939 0.0
C715 C 0.67582 0.73992 0.63066 0.0
C716 C 0.5992 0.66187 0.55057 0.0
C717 C 0.58082 0.58146 0.57355 0.0
N718 N 0.65326 0.71265 0.60574 0.0
N719 N 0.60277 0.60802 0.59999 0.0
H720 H 0.31633 0.31185 0.40669 0.0
H721 H 0.1751 0.31204 0.61797 0.0
H722 H 0.16519 0.27858 0.41313 0.0
H723 H 0.32612 0.27829 0.6112 0.0
H724 H 0.17067 0.31064 0.54302 0.0
H725 H 0.32048 0.31048 0.48163 0.0
C726 C 0.28388 0.30446 0.42389 0.0
C727 C 0.24023 0.2954 0.40361 0.0
C728 C 0.20473 0.30349 0.55795 0.0
C729 C 0.24482 0.29421 0.48948 0.0
C730 C 0.20746 0.30453 0.6007 0.0
C731 C 0.25118 0.29538 0.62088 0.0
C732 C 0.24627 0.29415 0.53502 0.0
C733 C 0.29175 0.2855 0.59689 0.0
C734 C 0.28645 0.30344 0.46664 0.0
C735 C 0.19952 0.2857 0.42752 0.0
N736 N 0.28846 0.28557 0.55516 0.0
N737 N 0.20265 0.28577 0.46927 0.0
H738 H 0.08578 0.95425 0.87316 0.0
H739 H 0.0672 0.93293 0.66657 0.0
H740 H 0.06114 0.08266 0.84887 0.0
H741 H 0.07484 0.06474 0.65836 0.0
H742 H 0.09122 0.93653 0.73776 0.0
H743 H 0.11079 0.94514 0.80207 0.0
C744 C 0.08643 0.98069 0.85304 0.0
C745 C 0.0697 0.01895 0.86664 0.0
C746 C 0.08943 0.96482 0.72059 0.0
C747 C 0.09595 1.00853 0.78443 0.0
C748 C 0.0754 0.96269 0.6796 0.0
C749 C 0.06793 0.99866 0.65677 0.0
C750 C 0.09572 1.00337 0.73913 0.0
C751 C 0.07974 0.03626 0.67494 0.0
C752 C 0.09998 0.97539 0.81202 0.0
C753 C 0.07221 0.05226 0.83938 0.0
N754 N 0.09191 0.03769 0.71536 0.0
N755 N 0.08396 0.04609 0.79947 0.0
H756 H 0.28411 0.78892 0.91112 0.0
H757 H 0.25337 0.66149 0.11592 0.0
H758 H 0.23285 0.66405 0.9087 0.0
H759 H 0.21131 0.78876 0.11127 0.0
H760 H 0.26124 0.66135 0.04098 0.0
H761 H 0.2745 0.78921 0.98628 0.0
C762 C 0.27159 0.76143 0.92646 0.0
C763 C 0.25938 0.72636 0.90379 0.0
C764 C 0.24998 0.6892 0.05638 0.0
C765 C 0.24856 0.72647 0.9892 0.0
C766 C 0.24539 0.68931 0.09903 0.0
C767 C 0.23124 0.7251 0.11968 0.0
C768 C 0.24186 0.72549 0.03431 0.0
C769 C 0.22169 0.76041 0.09639 0.0
C770 C 0.26563 0.76177 0.96915 0.0
C771 C 0.24266 0.6917 0.92508 0.0
N772 N 0.22782 0.75992 0.05489 0.0
N773 N 0.23811 0.6925 0.96661 0.0
H774 H 0.41848 0.93065 0.35517 0.0
H775 H 0.40881 0.95054 0.14793 0.0
H776 H 0.41337 0.0626 0.36171 0.0
H777 H 0.43132 0.07928 0.17173 0.0
H778 H 0.38144 0.94177 0.21842 0.0
H779 H 0.39598 0.93381 0.28359 0.0
C780 C 0.41098 0.96037 0.34168 0.0
C781 C 0.41877 0.99647 0.36418 0.0
C782 C 0.39224 0.97203 0.20852 0.0
C783 C 0.39326 1.00071 0.28127 0.0
C784 C 0.40721 0.97711 0.16781 0.0
C785 C 0.42395 0.01539 0.15427 0.0
C786 C 0.39481 1.00544 0.23591 0.0
C787 C 0.42024 0.04887 0.1812 0.0
C788 C 0.398 0.96227 0.30042 0.0
C789 C 0.40809 0.03403 0.34541 0.0
N790 N 0.40705 0.04293 0.22083 0.0
N791 N 0.39707 0.03521 0.30474 0.0
H792 H 0.38466 0.33074 0.27875 0.0
H793 H 0.61181 0.18975 0.27515 0.0
H794 H 0.37139 0.20588 0.23712 0.0
H795 H 0.6235 0.31508 0.23447 0.0
H796 H 0.52353 0.19469 0.27094 0.0
H797 H 0.47281 0.32567 0.27253 0.0
C798 C 0.4005 0.3025 0.2675 0.0
C799 C 0.37118 0.2692 0.25669 0.0
C800 C 0.54543 0.22087 0.26229 0.0
C801 C 0.47131 0.26261 0.25145 0.0
C802 C 0.59558 0.21804 0.26444 0.0
C803 C 0.6245 0.25153 0.25335 0.0
C804 C 0.52421 0.25804 0.25064 0.0
C805 C 0.60209 0.28836 0.2422 0.0
C806 C 0.45056 0.29962 0.26415 0.0
C807 C 0.39312 0.23245 0.24468 0.0
N808 N 0.5529 0.29076 0.24123 0.0
N809 N 0.44224 0.23002 0.24243 0.0
H810 H 0.06996 0.36608 0.56056 0.0
H811 H 0.92738 0.15551 0.56285 0.0
H812 H 0.91867 0.35975 0.52767 0.0
H813 H 0.07854 0.16122 0.52939 0.0
H814 H 0.92355 0.23044 0.56105 0.0
H815 H 0.07381 0.29115 0.56019 0.0
C816 C 0.03742 0.34891 0.55346 0.0
C817 C 0.9938 0.36919 0.54422 0.0
C818 C 0.95752 0.21528 0.5541 0.0
C819 C -0.00195 0.28338 0.54417 0.0
C820 C 0.95991 0.17255 0.55537 0.0
C821 C 0.00347 0.15209 0.54635 0.0
C822 C -0.00074 0.23789 0.54466 0.0
C823 C 0.04429 0.17577 0.5365 0.0
C824 C 0.03982 0.30616 0.55301 0.0
C825 C 0.95297 0.34533 0.5349 0.0
N826 N 0.04133 0.2175 0.53631 0.0
N827 N 0.95595 0.30361 0.53552 0.0
H828 H 0.86914 0.70077 0.73797 0.0
H829 H 0.1243 0.81485 0.73855 0.0
H830 H 0.88447 0.82649 0.77642 0.0
H831 H 0.10965 0.68933 0.77793 0.0
H832 H 0.03536 0.81966 0.73356 0.0
H833 H 0.95821 0.69533 0.73391 0.0
C834 C 0.89135 0.72726 0.74491 0.0
C835 C 0.87001 0.76456 0.75598 0.0
C836 C 0.05189 0.79091 0.74256 0.0
C837 C 0.97035 0.75872 0.75154 0.0
C838 C 0.10226 0.78823 0.74542 0.0
C839 C 0.12378 0.75119 0.7571 0.0
C840 C 0.02347 0.75634 0.75162 0.0
C841 C 0.0941 0.71781 0.76705 0.0
C842 C 0.94178 0.72422 0.74258 0.0
C843 C 0.89987 0.79779 0.766 0.0
N844 N 0.04529 0.72097 0.7637 0.0
N845 N 0.94866 0.79428 0.76314 0.0
H846 H 0.43118 0.65389 0.05911 0.0
H847 H 0.57013 0.86585 0.05512 0.0
H848 H 0.58146 0.66056 0.02311 0.0
H849 H 0.41841 0.85759 0.02424 0.0
H850 H 0.57563 0.79094 0.05359 0.0
H851 H 0.42641 0.7287 0.05683 0.0
C852 C 0.46332 0.67112 0.05091 0.0
C853 C 0.5069 0.65094 0.04138 0.0
C854 C 0.54119 0.80554 0.04708 0.0
C855 C 0.50161 0.73672 0.03912 0.0
C856 C 0.53786 0.84825 0.04818 0.0
C857 C 0.49361 0.86799 0.03993 0.0
C858 C 0.49971 0.78222 0.03864 0.0
C859 C 0.45317 0.84362 0.03076 0.0
C860 C 0.46039 0.7138 0.04936 0.0
C861 C 0.54719 0.67489 0.03063 0.0
N862 N 0.45704 0.80195 0.03081 0.0
N863 N 0.54374 0.71662 0.0302 0.0
H864 H 0.6099 0.82754 0.24249 0.0
H865 H 0.38116 0.68891 0.24198 0.0
H866 H 0.6212 0.70269 0.28474 0.0
H867 H 0.3703 0.81385 0.28388 0.0
H868 H 0.46952 0.69295 0.2475 0.0
H869 H 0.52165 0.82317 0.24751 0.0
C870 C 0.5936 0.79947 0.25368 0.0
C871 C 0.6224 0.766 0.26503 0.0
C872 C 0.44774 0.71922 0.25612 0.0
C873 C 0.52212 0.76012 0.2687 0.0
C874 C 0.39758 0.71692 0.25317 0.0
C875 C 0.3689 0.75055 0.26425 0.0
C876 C 0.46917 0.756 0.2686 0.0
C877 C 0.39153 0.78702 0.27614 0.0
C878 C 0.54347 0.79697 0.25631 0.0
C879 C 0.59987 0.72942 0.27681 0.0
N880 N 0.4407 0.78889 0.27794 0.0
N881 N 0.55067 0.72733 0.27827 0.0
H882 H 0.45724 0.15763 0.53511 0.0
H883 H 0.49116 0.36243 0.40799 0.0
H884 H 0.50767 0.15503 0.40992 0.0
H885 H 0.53288 0.35682 0.53532 0.0
H886 H 0.48181 0.28765 0.40763 0.0
H887 H 0.46776 0.23267 0.53552 0.0
C888 C 0.46969 0.17293 0.50755 0.0
C889 C 0.48145 0.15022 0.47237 0.0
C890 C 0.49332 0.30279 0.43555 0.0
C891 C 0.49338 0.2355 0.47264 0.0
C892 C 0.49876 0.34535 0.43577 0.0
C893 C 0.51326 0.3657 0.47165 0.0
C894 C 0.50091 0.28051 0.4718 0.0
C895 C 0.52228 0.34218 0.50691 0.0
C896 C 0.47621 0.21554 0.50797 0.0
C897 C 0.49817 0.17144 0.43766 0.0
N898 N 0.51532 0.30079 0.5063 0.0
N899 N 0.50329 0.2129 0.43854 0.0
H900 H 0.10779 0.3322 0.74611 0.0
H901 H 0.88145 0.19066 0.74113 0.0
H902 H 0.1197 0.20657 0.78582 0.0
H903 H 0.86708 0.31531 0.7832 0.0
H904 H 0.96948 0.19603 0.7478 0.0
H905 H 0.0195 0.32722 0.75044 0.0
C906 C 0.09161 0.30384 0.75666 0.0
C907 C 0.12058 0.27026 0.76741 0.0
C908 C 0.94703 0.22197 0.75618 0.0
C909 C 0.02031 0.26371 0.77021 0.0
C910 C 0.89703 0.21892 0.75256 0.0
C911 C 0.86742 0.25206 0.76337 0.0
C912 C 0.96745 0.259 0.76914 0.0
C913 C 0.88903 0.28884 0.77563 0.0
C914 C 0.04146 0.301 0.75888 0.0
C915 C 0.09824 0.23335 0.77836 0.0
N916 N 0.93813 0.29145 0.77815 0.0
N917 N 0.04907 0.23094 0.77936 0.0
H918 H 0.07972 0.86159 0.99678 0.0
H919 H 0.91327 0.66181 0.99554 0.0
H920 H 0.92842 0.86677 0.96375 0.0
H921 H 0.06459 0.65775 0.96234 0.0
H922 H 0.91774 0.73724 0.9966 0.0
H923 H 0.07479 0.78623 0.997 0.0
C924 C 0.04554 0.8469 0.98968 0.0
C925 C 0.00455 0.8704 0.97994 0.0
C926 C 0.94986 0.71967 0.98908 0.0
C927 C -0.00161 0.78466 0.98099 0.0
C928 C 0.94734 0.67675 0.98855 0.0
C929 C 0.9885 0.65354 0.97857 0.0
C930 C 0.99414 0.7393 0.98061 0.0
C931 C 0.03184 0.67445 0.96982 0.0
C932 C 0.04276 0.80401 0.98971 0.0
C933 C 0.96105 0.8498 0.97103 0.0
N934 N 0.03363 0.71607 0.97136 0.0
N935 N 0.95899 0.80815 0.97207 0.0
H936 H 0.17425 0.41824 0.18691 0.0
H937 H 0.16788 0.60585 0.33644 0.0
H938 H 0.16888 0.4074 0.31873 0.0
H939 H 0.16476 0.61656 0.20459 0.0
H940 H 0.14508 0.53393 0.33054 0.0
H941 H 0.14815 0.48939 0.19246 0.0
C942 C 0.16637 0.4306 0.21704 0.0
C943 C 0.17474 0.40717 0.2525 0.0
C944 C 0.14805 0.55214 0.30286 0.0
C945 C 0.14573 0.48898 0.25914 0.0
C946 C 0.16091 0.59331 0.30623 0.0
C947 C 0.16911 0.61694 0.27088 0.0
C948 C 0.14426 0.53426 0.26383 0.0
C949 C 0.15914 0.59934 0.23259 0.0
C950 C 0.15147 0.4713 0.22019 0.0
C951 C 0.16329 0.42449 0.29064 0.0
N952 N 0.14844 0.5587 0.23002 0.0
N953 N 0.15049 0.46471 0.29302 0.0
H954 H 0.65586 0.11856 0.70098 0.0
H955 H 0.67308 0.91169 0.68199 0.0
H956 H 0.68213 0.09554 0.82945 0.0
H957 H 0.66681 0.9051 0.81398 0.0
H958 H 0.64932 0.98296 0.68491 0.0
H959 H 0.63031 0.0475 0.69292 0.0
C960 C 0.65545 0.09873 0.72765 0.0
C961 C 0.67274 0.11268 0.76562 0.0
C962 C 0.65132 0.96613 0.7134 0.0
C963 C 0.64581 0.03051 0.75639 0.0
C964 C 0.66517 0.92509 0.71166 0.0
C965 C 0.67299 0.90269 0.74786 0.0
C966 C 0.64559 0.98517 0.75179 0.0
C967 C 0.66161 0.92134 0.78534 0.0
C968 C 0.64157 0.05773 0.72295 0.0
C969 C 0.67056 0.08579 0.79926 0.0
N970 N 0.64964 0.9618 0.78637 0.0
N971 N 0.65843 0.0459 0.79366 0.0
H972 H 0.36328 0.52722 0.08101 0.0
H973 H 0.13438 0.53001 0.94218 0.0
H974 H 0.37313 0.4856 0.95587 0.0
H975 H 0.12233 0.48806 0.06713 0.0
H976 H 0.22258 0.52426 0.94674 0.0
H977 H 0.27488 0.52295 0.07708 0.0
C978 C 0.34663 0.51629 0.05299 0.0
C979 C 0.37506 0.50495 0.01927 0.0
C980 C 0.2006 0.51574 0.97293 0.0
C981 C 0.27467 0.5022 0.01389 0.0
C982 C 0.15051 0.51882 0.97034 0.0
C983 C 0.12149 0.50772 1.00378 0.0
C984 C 0.22172 0.50302 1.0098 0.0
C985 C 0.1438 0.49582 0.04043 0.0
C986 C 0.29642 0.5141 0.05074 0.0
C987 C 0.35211 0.49352 0.98278 0.0
N988 N 0.19298 0.49381 0.04258 0.0
N989 N 0.3029 0.49253 0.98093 0.0
H990 H 0.82111 0.10225 0.1828 0.0
H991 H 0.82052 0.91487 0.33341 0.0
H992 H 0.82574 0.11333 0.31459 0.0
H993 H 0.82313 0.90361 0.20159 0.0
H994 H 0.84499 0.98636 0.3271 0.0
H995 H 0.84445 0.03044 0.18879 0.0
C996 C 0.82834 0.0898 0.21301 0.0
C997 C 0.82047 0.11352 0.24834 0.0
C998 C 0.84144 0.96811 0.29952 0.0
C999 C 0.84626 0.031 0.25548 0.0
C1000 C 0.82752 0.92721 0.30311 0.0
C1001 C 0.81881 0.90355 0.2679 0.0
C1002 C 0.84587 0.98573 0.2604 0.0
C1003 C 0.82905 0.92087 0.2295 0.0
C1004 C 0.84161 0.04871 0.21642 0.0
C1005 C 0.83101 0.09604 0.2866 0.0
N1006 N 0.84091 0.96127 0.22671 0.0
N1007 N 0.84222 0.0555 0.28923 0.0
H1008 H 0.87431 0.03749 0.06871 0.0
H1009 H 0.62014 0.0382 0.95313 0.0
H1010 H 0.86024 0.99776 0.94323 0.0
H1011 H 0.63452 0.99541 0.07762 0.0
H1012 H 0.70917 0.04381 0.94888 0.0
H1013 H 0.78524 0.04242 0.07314 0.0
C1014 C 0.8524 0.03055 0.04203 0.0
C1015 C 0.87409 0.01876 1.0051 0.0
C1016 C 0.69249 0.03396 0.97729 0.0
C1017 C 0.77381 0.02437 1.00976 0.0
C1018 C 0.6421 0.03071 0.97963 0.0
C1019 C 0.62051 0.01785 0.01625 0.0
C1020 C 0.72074 0.02418 0.01179 0.0
C1021 C 0.65009 1.00717 0.0495 0.0
C1022 C 0.80199 0.03342 0.04448 0.0
C1023 C 0.84459 1.00875 0.97162 0.0
N1024 N 0.69884 0.01095 0.04668 0.0
N1025 N 0.79581 0.01217 0.97455 0.0
H1026 H 0.32575 0.60566 0.68775 0.0
H1027 H 0.319 0.41783 0.83763 0.0
H1028 H 0.32705 0.6163 0.81962 0.0
H1029 H 0.32384 0.40723 0.7058 0.0
H1030 H 0.34482 0.48905 0.83204 0.0
H1031 H 0.34843 0.53371 0.69393 0.0
C1032 C 0.33227 0.5931 0.71804 0.0
C1033 C 0.32361 0.61673 0.75328 0.0
C1034 C 0.34144 0.47099 0.80431 0.0
C1035 C 0.34837 0.53402 0.76064 0.0
C1036 C 0.32671 0.43025 0.80749 0.0
C1037 C 0.31823 0.40688 0.77204 0.0
C1038 C 0.347 0.48873 0.76535 0.0
C1039 C 0.32951 0.42427 0.73389 0.0
C1040 C 0.34508 0.55191 0.72156 0.0
C1041 C 0.33304 0.59909 0.79168 0.0
N1042 N 0.34221 0.4645 0.73148 0.0
N1043 N 0.34372 0.55845 0.79439 0.0
H1044 H 0.13779 0.49458 0.57836 0.0
H1045 H 0.36453 0.48956 0.43665 0.0
H1046 H 0.12516 0.53276 0.45225 0.0
H1047 H 0.37759 0.5316 0.56141 0.0
H1048 H 0.27632 0.4961 0.44151 0.0
H1049 H 0.22597 0.49902 0.573 0.0
C1050 C 0.15379 0.50481 0.54979 0.0
C1051 C 0.12463 0.51515 0.5162 0.0
C1052 C 0.29855 0.50453 0.46757 0.0
C1053 C 0.22487 0.51807 0.50923 0.0
C1054 C 0.34863 0.50099 0.46479 0.0
C1055 C 0.37788 0.51176 0.49815 0.0
C1056 C 0.27776 0.51737 0.50454 0.0
C1057 C 0.3559 0.52405 0.53479 0.0
C1058 C 0.2039 0.50708 0.54672 0.0
C1059 C 0.14677 0.52565 0.47905 0.0
N1060 N 0.30681 0.52647 0.53712 0.0
N1061 N 0.19594 0.52675 0.47643 0.0
H1062 H 0.66163 0.77477 0.91007 0.0
H1063 H 0.82895 0.7736 0.10957 0.0
H1064 H 0.81297 0.80773 0.9055 0.0
H1065 H 0.67748 0.80616 0.11483 0.0
H1066 H 0.82384 0.77327 0.03416 0.0
H1067 H 0.66648 0.77362 0.98551 0.0
C1068 C 0.69578 0.78169 0.9249 0.0
C1069 C 0.73683 0.79165 0.90155 0.0
C1070 C 0.79182 0.78047 0.05198 0.0
C1071 C 0.74293 0.78945 0.98731 0.0
C1072 C 0.7947 0.78056 0.09489 0.0
C1073 C 0.75372 0.79022 0.11843 0.0
C1074 C 0.74736 0.78906 0.03267 0.0
C1075 C 0.71012 0.79895 0.09785 0.0
C1076 C 0.69853 0.7811 0.96782 0.0
C1077 C 0.78029 0.80029 0.92232 0.0
N1078 N 0.70798 0.79788 0.05621 0.0
N1079 N 0.78232 0.79868 0.96395 0.0
H1080 H 0.5849 0.45033 0.36527 0.0
H1081 H 0.58239 0.5669 0.15252 0.0
H1082 H 0.57638 0.58168 0.35105 0.0
H1083 H 0.57318 0.4356 0.16694 0.0
H1084 H 0.60848 0.57243 0.22407 0.0
H1085 H 0.60903 0.44463 0.29323 0.0
C1086 C 0.58976 0.47806 0.34742 0.0
C1087 C 0.57758 0.51643 0.36383 0.0
C1088 C 0.60196 0.54231 0.21126 0.0
C1089 C 0.60418 0.51016 0.2814 0.0
C1090 C 0.58739 0.53915 0.1703 0.0
C1091 C 0.57449 0.50085 0.15412 0.0
C1092 C 0.60343 0.50694 0.23601 0.0
C1093 C 0.58168 0.46586 0.17855 0.0
C1094 C 0.60317 0.4748 0.30618 0.0
C1095 C 0.58445 0.55138 0.33929 0.0
N1096 N 0.59472 0.46981 0.21848 0.0
N1097 N 0.59633 0.54735 0.2991 0.0
H1098 H 0.83145 0.24293 0.40819 0.0
H1099 H 0.66224 0.24293 0.60663 0.0
H1100 H 0.68015 0.21003 0.40253 0.0
H1101 H 0.81359 0.21016 0.6128 0.0
H1102 H 0.66811 0.24366 0.53127 0.0
H1103 H 0.8259 0.24362 0.48362 0.0
C1104 C 0.79716 0.23595 0.42278 0.0
C1105 C 0.75633 0.22613 0.39913 0.0
C1106 C 0.69994 0.23631 0.54927 0.0
C1107 C 0.74945 0.22776 0.48488 0.0
C1108 C 0.69661 0.23598 0.59216 0.0
C1109 C 0.73735 0.22617 0.61594 0.0
C1110 C 0.74459 0.22782 0.53022 0.0
C1111 C 0.78113 0.21748 0.59562 0.0
C1112 C 0.79402 0.23626 0.4657 0.0
C1113 C 0.71267 0.21737 0.4196 0.0
N1114 N 0.7837 0.2188 0.55399 0.0
N1115 N 0.71028 0.2187 0.46122 0.0
H1116 H 0.92803 0.58667 0.66527 0.0
H1117 H 0.9243 0.43774 0.85441 0.0
H1118 H 0.92363 0.45482 0.65548 0.0
H1119 H 0.923 0.5696 0.86434 0.0
H1120 H 0.9016 0.44354 0.7824 0.0
H1121 H 0.90392 0.58139 0.737 0.0
C1122 C 0.92078 0.5566 0.678 0.0
C1123 C 0.9289 0.52106 0.65468 0.0
C1124 C 0.90505 0.47125 0.80045 0.0
C1125 C 0.90204 0.51472 0.73706 0.0
C1126 C 0.91794 0.46795 0.84164 0.0
C1127 C 0.92651 0.50329 0.8651 0.0
C1128 C 0.90146 0.51022 0.78239 0.0
C1129 C 0.91711 0.54159 0.84725 0.0
C1130 C 0.90702 0.55359 0.71902 0.0
C1131 C 0.9182 0.48298 0.67246 0.0
N1132 N 0.90623 0.54408 0.80662 0.0
N1133 N 0.90643 0.48075 0.71292 0.0
H1134 H 0.85788 0.02678 0.58025 0.0
H1135 H 0.63192 0.02689 0.43666 0.0
H1136 H 0.87213 0.98865 0.4543 0.0
H1137 H 0.61883 0.98766 0.56239 0.0
H1138 H 0.7202 0.02181 0.44209 0.0
H1139 H 0.76977 0.02151 0.57434 0.0
C1140 C 0.84225 0.01646 0.55158 0.0
C1141 C 0.87185 1.00636 0.5182 0.0
C1142 C 0.69798 0.01367 0.46825 0.0
C1143 C 0.77169 1.00234 0.51064 0.0
C1144 C 0.64784 0.01634 0.46515 0.0
C1145 C 0.61855 1.00594 0.49863 0.0
C1146 C 0.71878 1.00213 0.50567 0.0
C1147 C 0.64053 0.99488 0.53567 0.0
C1148 C 0.79218 0.01368 0.5482 0.0
C1149 C 0.85018 0.99562 0.48094 0.0
N1150 N 0.68967 0.99333 0.53831 0.0
N1151 N 0.80105 0.99394 0.47804 0.0
loop_
_geom_bond_atom_site_label_1
_geom_bond_atom_site_label_2
_geom_bond_distance
_geom_bond_site_symmetry_2
_ccdc_geom_bond_type
Mn0 O5 2.095 . S
Mn0 O15 2.162 . S
Mn0 O16 2.297 . S
Mn0 O24 2.385 . S
Mn0 O25 2.209 . S
Mn0 O26 2.094 . S
Mn1 O6 2.121 . S
Mn1 N8 2.257 . S
Mn1 N17 2.282 . S
Mn1 O25 2.215 . S
Mn1 O27 2.117 . S
C2 O24 1.234 . S
C2 O25 1.283 . S
C3 O15 1.281 . S
C3 O16 1.236 . S
C4 O26 1.240 . S
C4 O27 1.264 . S
O5 Mn0 2.095 . S
O5 C14 1.250 . S
O6 Mn1 2.121 . S
O6 C14 1.258 . S
C7 N8 1.326 . S
C7 C11 1.460 . S
C7 H13 0.929 . S
N8 Mn1 2.257 . S
N8 C7 1.326 . S
N8 C12 1.362 . S
C9 C10 1.258 . S
C9 C12 1.431 . S
C9 C29 1.449 . S
C10 C9 1.258 . S
C10 C11 1.477 . S
C10 H30 0.931 . S
C11 C7 1.460 . S
C11 C10 1.477 . S
C11 H31 0.930 . S
C12 N8 1.362 . S
C12 C9 1.431 . S
C12 C22 1.476 . S
H13 C7 0.929 . S
C14 O5 1.250 . S
C14 O6 1.258 . S
O15 Mn0 2.162 . S
O15 C3 1.281 . S
O16 Mn0 2.297 . S
O16 C3 1.236 . S
N17 Mn1 2.282 . S
N17 C18 1.328 . S
N17 C22 1.318 . S
C18 N17 1.328 . S
C18 C19 1.457 . S
C18 H23 0.929 . S
C19 C18 1.457 . S
C19 C20 1.291 . S
C19 H32 0.931 . S
C20 C19 1.291 . S
C20 C21 1.373 . S
C20 H33 0.929 . S
C21 C20 1.373 . S
C21 C22 1.396 . S
C21 C28 1.403 . S
C22 C12 1.476 . S
C22 N17 1.318 . S
C22 C21 1.396 . S
H23 C18 0.929 . S
O24 Mn0 2.385 . S
O24 C2 1.234 . S
O25 Mn0 2.209 . S
O25 Mn1 2.215 . S
O25 C2 1.283 . S
O26 Mn0 2.094 . S
O26 C4 1.240 . S
O27 Mn1 2.117 . S
O27 C4 1.264 . S
C28 C21 1.403 . S
C28 C29 1.399 . S
C28 H34 0.929 . S
C29 C9 1.449 . S
C29 C28 1.399 . S
C29 H35 0.930 . S
H30 C10 0.931 . S
H31 C11 0.930 . S
H32 C19 0.931 . S
H33 C20 0.929 . S
H34 C28 0.929 . S
H35 C29 0.930 . S
Mn36 O41 2.095 . S
Mn36 O51 2.162 . S
Mn36 O52 2.297 1_455 S
Mn36 O60 2.385 1_455 S
Mn36 O61 2.209 1_455 S
Mn36 O62 2.094 1_545 S
Mn37 O42 2.121 . S
Mn37 N44 2.257 . S
Mn37 N53 2.282 . S
Mn37 O61 2.215 1_565 S
Mn37 O63 2.117 1_655 S
C38 O60 1.234 . S
C38 O61 1.283 . S
C39 O51 1.281 . S
C39 O52 1.236 1_455 S
C40 O62 1.240 . S
C40 O63 1.264 . S
O41 Mn36 2.095 . S
O41 C50 1.250 1_545 S
O42 Mn37 2.121 . S
O42 C50 1.258 1_655 S
C43 N44 1.326 . S
C43 C47 1.460 . S
C43 H49 0.929 . S
N44 Mn37 2.257 . S
N44 C43 1.326 . S
N44 C48 1.362 . S
C45 C46 1.258 . S
C45 C48 1.431 . S
C45 C65 1.449 . S
C46 C45 1.258 . S
C46 C47 1.477 . S
C46 H66 0.931 . S
C47 C43 1.460 . S
C47 C46 1.477 . S
C47 H67 0.930 . S
C48 N44 1.362 . S
C48 C45 1.431 . S
C48 C58 1.476 . S
H49 C43 0.929 . S
C50 O41 1.250 1_565 S
C50 O42 1.258 1_455 S
O51 Mn36 2.162 . S
O51 C39 1.281 . S
O52 Mn36 2.297 1_655 S
O52 C39 1.236 1_655 S
N53 Mn37 2.282 . S
N53 C54 1.328 . S
N53 C58 1.318 . S
C54 N53 1.328 . S
C54 C55 1.457 . S
C54 H59 0.929 . S
C55 C54 1.457 . S
C55 C56 1.291 . S
C55 H68 0.931 . S
C56 C55 1.291 . S
C56 C57 1.373 . S
C56 H69 0.929 . S
C57 C56 1.373 . S
C57 C58 1.396 . S
C57 C64 1.403 . S
C58 C48 1.476 . S
C58 N53 1.318 . S
C58 C57 1.396 . S
H59 C54 0.929 . S
O60 Mn36 2.385 1_655 S
O60 C38 1.234 . S
O61 Mn36 2.209 1_655 S
O61 Mn37 2.215 1_545 S
O61 C38 1.283 . S
O62 Mn36 2.094 1_565 S
O62 C40 1.240 . S
O63 Mn37 2.117 1_455 S
O63 C40 1.264 . S
C64 C57 1.403 . S
C64 C65 1.399 . S
C64 H70 0.929 . S
C65 C45 1.449 . S
C65 C64 1.399 . S
C65 H71 0.930 . S
H66 C46 0.931 . S
H67 C47 0.930 . S
H68 C55 0.931 . S
H69 C56 0.929 . S
H70 C64 0.929 . S
H71 C65 0.930 . S
Mn72 O77 2.095 . S
Mn72 O87 2.162 . S
Mn72 O88 2.297 . S
Mn72 O96 2.385 . S
Mn72 O97 2.209 . S
Mn72 O98 2.094 . S
Mn73 O78 2.121 . S
Mn73 N80 2.257 . S
Mn73 N89 2.282 . S
Mn73 O97 2.215 . S
Mn73 O99 2.117 . S
C74 O96 1.234 . S
C74 O97 1.283 . S
C75 O87 1.281 . S
C75 O88 1.236 . S
C76 O98 1.240 . S
C76 O99 1.264 . S
O77 Mn72 2.095 . S
O77 C86 1.250 . S
O78 Mn73 2.121 . S
O78 C86 1.258 . S
C79 N80 1.326 . S
C79 C83 1.460 . S
C79 H85 0.929 . S
N80 Mn73 2.257 . S
N80 C79 1.326 . S
N80 C84 1.362 . S
C81 C82 1.258 . S
C81 C84 1.431 . S
C81 C101 1.449 . S
C82 C81 1.258 . S
C82 C83 1.477 . S
C82 H102 0.931 . S
C83 C79 1.460 . S
C83 C82 1.477 . S
C83 H103 0.930 . S
C84 N80 1.362 . S
C84 C81 1.431 . S
C84 C94 1.476 . S
H85 C79 0.929 . S
C86 O77 1.250 . S
C86 O78 1.258 . S
O87 Mn72 2.162 . S
O87 C75 1.281 . S
O88 Mn72 2.297 . S
O88 C75 1.236 . S
N89 Mn73 2.282 . S
N89 C90 1.328 . S
N89 C94 1.318 . S
C90 N89 1.328 . S
C90 C91 1.457 . S
C90 H95 0.929 . S
C91 C90 1.457 . S
C91 C92 1.291 . S
C91 H104 0.931 . S
C92 C91 1.291 . S
C92 C93 1.373 . S
C92 H105 0.929 . S
C93 C92 1.373 . S
C93 C94 1.396 . S
C93 C100 1.403 . S
C94 C84 1.476 . S
C94 N89 1.318 . S
C94 C93 1.396 . S
H95 C90 0.929 . S
O96 Mn72 2.385 . S
O96 C74 1.234 . S
O97 Mn72 2.209 . S
O97 Mn73 2.215 . S
O97 C74 1.283 . S
O98 Mn72 2.094 . S
O98 C76 1.240 . S
O99 Mn73 2.117 . S
O99 C76 1.264 . S
C100 C93 1.403 . S
C100 C101 1.399 . S
C100 H106 0.929 . S
C101 C81 1.449 . S
C101 C100 1.399 . S
C101 H107 0.930 1_455 S
H102 C82 0.931 . S
H103 C83 0.930 . S
H104 C91 0.931 . S
H105 C92 0.929 . S
H106 C100 0.929 . S
H107 C101 0.930 1_655 S
Mn108 O113 2.095 . S
Mn108 O123 2.162 . S
Mn108 O124 2.297 . S
Mn108 O132 2.385 1_554 S
Mn108 O133 2.209 . S
Mn108 O134 2.094 1_564 S
Mn109 O114 2.121 . S
Mn109 N116 2.257 . S
Mn109 N125 2.282 . S
Mn109 O133 2.215 1_545 S
Mn109 O135 2.117 . S
C110 O132 1.234 1_554 S
C110 O133 1.283 . S
C111 O123 1.281 . S
C111 O124 1.236 . S
C112 O134 1.240 . S
C112 O135 1.264 1_556 S
O113 Mn108 2.095 . S
O113 C122 1.250 1_565 S
O114 Mn109 2.121 . S
O114 C122 1.258 . S
C115 N116 1.326 . S
C115 C119 1.460 . S
C115 H121 0.929 . S
N116 Mn109 2.257 . S
N116 C115 1.326 . S
N116 C120 1.362 . S
C117 C118 1.258 . S
C117 C120 1.431 . S
C117 C137 1.449 . S
C118 C117 1.258 . S
C118 C119 1.477 . S
C118 H138 0.931 . S
C119 C115 1.460 . S
C119 C118 1.477 . S
C119 H139 0.930 . S
C120 N116 1.362 . S
C120 C117 1.431 . S
C120 C130 1.476 . S
H121 C115 0.929 . S
C122 O113 1.250 1_545 S
C122 O114 1.258 . S
O123 Mn108 2.162 . S
O123 C111 1.281 . S
O124 Mn108 2.297 . S
O124 C111 1.236 . S
N125 Mn109 2.282 . S
N125 C126 1.328 1_554 S
N125 C130 1.318 . S
C126 N125 1.328 1_556 S
C126 C127 1.457 . S
C126 H131 0.929 . S
C127 C126 1.457 . S
C127 C128 1.291 . S
C127 H140 0.931 . S
C128 C127 1.291 . S
C128 C129 1.373 1_556 S
C128 H141 0.929 . S
C129 C128 1.373 1_554 S
C129 C130 1.396 . S
C129 C136 1.403 . S
C130 C120 1.476 . S
C130 N125 1.318 . S
C130 C129 1.396 . S
H131 C126 0.929 . S
O132 Mn108 2.385 1_556 S
O132 C110 1.234 1_556 S
O133 Mn108 2.209 . S
O133 Mn109 2.215 1_565 S
O133 C110 1.283 . S
O134 Mn108 2.094 1_546 S
O134 C112 1.240 . S
O135 Mn109 2.117 . S
O135 C112 1.264 1_554 S
C136 C129 1.403 . S
C136 C137 1.399 . S
C136 H142 0.929 . S
C137 C117 1.449 . S
C137 C136 1.399 . S
C137 H143 0.930 . S
H138 C118 0.931 . S
H139 C119 0.930 . S
H140 C127 0.931 . S
H141 C128 0.929 . S
H142 C136 0.929 . S
H143 C137 0.930 . S
Mn144 O149 2.095 . S
Mn144 O159 2.162 . S
Mn144 O160 2.297 . S
Mn144 O168 2.385 . S
Mn144 O169 2.209 . S
Mn144 O170 2.094 . S
Mn145 O150 2.121 . S
Mn145 N152 2.257 . S
Mn145 N161 2.282 . S
Mn145 O169 2.215 . S
Mn145 O171 2.117 . S
C146 O168 1.234 . S
C146 O169 1.283 . S
C147 O159 1.281 . S
C147 O160 1.236 . S
C148 O170 1.240 . S
C148 O171 1.264 . S
O149 Mn144 2.095 . S
O149 C158 1.250 . S
O150 Mn145 2.121 . S
O150 C158 1.258 . S
C151 N152 1.326 . S
C151 C155 1.460 . S
C151 H157 0.929 . S
N152 Mn145 2.257 . S
N152 C151 1.326 . S
N152 C156 1.362 . S
C153 C154 1.258 . S
C153 C156 1.431 . S
C153 C173 1.449 . S
C154 C153 1.258 . S
C154 C155 1.477 . S
C154 H174 0.931 . S
C155 C151 1.460 . S
C155 C154 1.477 . S
C155 H175 0.930 . S
C156 N152 1.362 . S
C156 C153 1.431 . S
C156 C166 1.476 . S
H157 C151 0.929 . S
C158 O149 1.250 . S
C158 O150 1.258 . S
O159 Mn144 2.162 . S
O159 C147 1.281 . S
O160 Mn144 2.297 . S
O160 C147 1.236 . S
N161 Mn145 2.282 . S
N161 C162 1.328 . S
N161 C166 1.318 . S
C162 N161 1.328 . S
C162 C163 1.457 . S
C162 H167 0.929 . S
C163 C162 1.457 . S
C163 C164 1.291 . S
C163 H176 0.931 . S
C164 C163 1.291 . S
C164 C165 1.373 . S
C164 H177 0.929 . S
C165 C164 1.373 . S
C165 C166 1.396 . S
C165 C172 1.403 . S
C166 C156 1.476 . S
C166 N161 1.318 . S
C166 C165 1.396 . S
H167 C162 0.929 . S
O168 Mn144 2.385 . S
O168 C146 1.234 . S
O169 Mn144 2.209 . S
O169 Mn145 2.215 . S
O169 C146 1.283 . S
O170 Mn144 2.094 . S
O170 C148 1.240 . S
O171 Mn145 2.117 . S
O171 C148 1.264 . S
C172 C165 1.403 . S
C172 C173 1.399 . S
C172 H178 0.929 . S
C173 C153 1.449 . S
C173 C172 1.399 . S
C173 H179 0.930 . S
H174 C154 0.931 . S
H175 C155 0.930 . S
H176 C163 0.931 . S
H177 C164 0.929 . S
H178 C172 0.929 . S
H179 C173 0.930 . S
Mn180 O185 2.095 . S
Mn180 O195 2.162 . S
Mn180 O196 2.297 . S
Mn180 O204 2.385 . S
Mn180 O205 2.209 . S
Mn180 O206 2.094 1_545 S
Mn181 O186 2.121 . S
Mn181 N188 2.257 . S
Mn181 N197 2.282 . S
Mn181 O205 2.215 1_565 S
Mn181 O207 2.117 . S
C182 O204 1.234 . S
C182 O205 1.283 . S
C183 O195 1.281 . S
C183 O196 1.236 . S
C184 O206 1.240 . S
C184 O207 1.264 . S
O185 Mn180 2.095 . S
O185 C194 1.250 1_545 S
O186 Mn181 2.121 . S
O186 C194 1.258 . S
C187 N188 1.326 . S
C187 C191 1.460 . S
C187 H193 0.929 . S
N188 Mn181 2.257 . S
N188 C187 1.326 . S
N188 C192 1.362 . S
C189 C190 1.258 . S
C189 C192 1.431 . S
C189 C209 1.449 . S
C190 C189 1.258 . S
C190 C191 1.477 . S
C190 H210 0.931 . S
C191 C187 1.460 . S
C191 C190 1.477 . S
C191 H211 0.930 . S
C192 N188 1.362 . S
C192 C189 1.431 . S
C192 C202 1.476 . S
H193 C187 0.929 . S
C194 O185 1.250 1_565 S
C194 O186 1.258 . S
O195 Mn180 2.162 . S
O195 C183 1.281 . S
O196 Mn180 2.297 . S
O196 C183 1.236 . S
N197 Mn181 2.282 . S
N197 C198 1.328 . S
N197 C202 1.318 . S
C198 N197 1.328 . S
C198 C199 1.457 . S
C198 H203 0.929 . S
C199 C198 1.457 . S
C199 C200 1.291 . S
C199 H212 0.931 . S
C200 C199 1.291 . S
C200 C201 1.373 . S
C200 H213 0.929 . S
C201 C200 1.373 . S
C201 C202 1.396 . S
C201 C208 1.403 . S
C202 C192 1.476 . S
C202 N197 1.318 . S
C202 C201 1.396 . S
H203 C198 0.929 . S
O204 Mn180 2.385 . S
O204 C182 1.234 . S
O205 Mn180 2.209 . S
O205 Mn181 2.215 1_545 S
O205 C182 1.283 . S
O206 Mn180 2.094 1_565 S
O206 C184 1.240 . S
O207 Mn181 2.117 . S
O207 C184 1.264 . S
C208 C201 1.403 . S
C208 C209 1.399 . S
C208 H214 0.929 . S
C209 C189 1.449 . S
C209 C208 1.399 . S
C209 H215 0.930 . S
H210 C190 0.931 . S
H211 C191 0.930 . S
H212 C199 0.931 . S
H213 C200 0.929 . S
H214 C208 0.929 . S
H215 C209 0.930 . S
Mn216 O221 2.095 . S
Mn216 O231 2.162 . S
Mn216 O232 2.297 . S
Mn216 O240 2.385 . S
Mn216 O241 2.209 . S
Mn216 O242 2.094 . S
Mn217 O222 2.121 . S
Mn217 N224 2.257 . S
Mn217 N233 2.282 . S
Mn217 O241 2.215 . S
Mn217 O243 2.117 . S
C218 O240 1.234 . S
C218 O241 1.283 . S
C219 O231 1.281 . S
C219 O232 1.236 . S
C220 O242 1.240 . S
C220 O243 1.264 . S
O221 Mn216 2.095 . S
O221 C230 1.250 . S
O222 Mn217 2.121 . S
O222 C230 1.258 . S
C223 N224 1.326 . S
C223 C227 1.460 . S
C223 H229 0.929 . S
N224 Mn217 2.257 . S
N224 C223 1.326 . S
N224 C228 1.362 . S
C225 C226 1.258 . S
C225 C228 1.431 . S
C225 C245 1.449 . S
C226 C225 1.258 . S
C226 C227 1.477 . S
C226 H246 0.931 . S
C227 C223 1.460 . S
C227 C226 1.477 . S
C227 H247 0.930 . S
C228 N224 1.362 . S
C228 C225 1.431 . S
C228 C238 1.476 . S
H229 C223 0.929 . S
C230 O221 1.250 . S
C230 O222 1.258 . S
O231 Mn216 2.162 . S
O231 C219 1.281 . S
O232 Mn216 2.297 . S
O232 C219 1.236 . S
N233 Mn217 2.282 . S
N233 C234 1.328 . S
N233 C238 1.318 . S
C234 N233 1.328 . S
C234 C235 1.457 . S
C234 H239 0.929 . S
C235 C234 1.457 . S
C235 C236 1.291 . S
C235 H248 0.931 . S
C236 C235 1.291 . S
C236 C237 1.373 . S
C236 H249 0.929 . S
C237 C236 1.373 . S
C237 C238 1.396 . S
C237 C244 1.403 . S
C238 C228 1.476 . S
C238 N233 1.318 . S
C238 C237 1.396 . S
H239 C234 0.929 . S
O240 Mn216 2.385 . S
O240 C218 1.234 . S
O241 Mn216 2.209 . S
O241 Mn217 2.215 . S
O241 C218 1.283 . S
O242 Mn216 2.094 . S
O242 C220 1.240 . S
O243 Mn217 2.117 . S
O243 C220 1.264 . S
C244 C237 1.403 . S
C244 C245 1.399 . S
C244 H250 0.929 . S
C245 C225 1.449 . S
C245 C244 1.399 . S
C245 H251 0.930 1_455 S
H246 C226 0.931 . S
H247 C227 0.930 . S
H248 C235 0.931 . S
H249 C236 0.929 . S
H250 C244 0.929 . S
H251 C245 0.930 1_655 S
Mn252 O257 2.095 . S
Mn252 O267 2.162 . S
Mn252 O268 2.297 1_455 S
Mn252 O276 2.385 1_456 S
Mn252 O277 2.209 1_455 S
Mn252 O278 2.094 1_566 S
Mn253 O258 2.121 . S
Mn253 N260 2.257 . S
Mn253 N269 2.282 . S
Mn253 O277 2.215 1_545 S
Mn253 O279 2.117 1_655 S
C254 O276 1.234 1_556 S
C254 O277 1.283 . S
C255 O267 1.281 . S
C255 O268 1.236 1_455 S
C256 O278 1.240 . S
C256 O279 1.264 1_554 S
O257 Mn252 2.095 . S
O257 C266 1.250 1_565 S
O258 Mn253 2.121 . S
O258 C266 1.258 1_655 S
C259 N260 1.326 . S
C259 C263 1.460 . S
C259 H265 0.929 . S
N260 Mn253 2.257 . S
N260 C259 1.326 . S
N260 C264 1.362 . S
C261 C262 1.258 . S
C261 C264 1.431 . S
C261 C281 1.449 . S
C262 C261 1.258 . S
C262 C263 1.477 . S
C262 H282 0.931 . S
C263 C259 1.460 . S
C263 C262 1.477 . S
C263 H283 0.930 . S
C264 N260 1.362 . S
C264 C261 1.431 . S
C264 C274 1.476 . S
H265 C259 0.929 . S
C266 O257 1.250 1_545 S
C266 O258 1.258 1_455 S
O267 Mn252 2.162 . S
O267 C255 1.281 . S
O268 Mn252 2.297 1_655 S
O268 C255 1.236 1_655 S
N269 Mn253 2.282 . S
N269 C270 1.328 1_556 S
N269 C274 1.318 . S
C270 N269 1.328 1_554 S
C270 C271 1.457 . S
C270 H275 0.929 . S
C271 C270 1.457 . S
C271 C272 1.291 . S
C271 H284 0.931 . S
C272 C271 1.291 . S
C272 C273 1.373 1_554 S
C272 H285 0.929 . S
C273 C272 1.373 1_556 S
C273 C274 1.396 . S
C273 C280 1.403 . S
C274 C264 1.476 . S
C274 N269 1.318 . S
C274 C273 1.396 . S
H275 C270 0.929 . S
O276 Mn252 2.385 1_654 S
O276 C254 1.234 1_554 S
O277 Mn252 2.209 1_655 S
O277 Mn253 2.215 1_565 S
O277 C254 1.283 . S
O278 Mn252 2.094 1_544 S
O278 C256 1.240 . S
O279 Mn253 2.117 1_455 S
O279 C256 1.264 1_556 S
C280 C273 1.403 . S
C280 C281 1.399 . S
C280 H286 0.930 . S
C281 C261 1.449 . S
C281 C280 1.399 . S
C281 H287 0.930 . S
H282 C262 0.931 . S
H283 C263 0.930 . S
H284 C271 0.931 . S
H285 C272 0.929 . S
H286 C280 0.930 . S
H287 C281 0.930 . S
Mn288 O293 2.095 . S
Mn288 O303 2.162 . S
Mn288 O304 2.297 . S
Mn288 O312 2.385 . S
Mn288 O313 2.209 . S
Mn288 O314 2.094 . S
Mn289 O294 2.121 . S
Mn289 N296 2.257 . S
Mn289 N305 2.282 . S
Mn289 O313 2.215 . S
Mn289 O315 2.117 . S
C290 O312 1.234 . S
C290 O313 1.283 . S
C291 O303 1.281 . S
C291 O304 1.236 . S
C292 O314 1.240 . S
C292 O315 1.264 . S
O293 Mn288 2.095 . S
O293 C302 1.250 . S
O294 Mn289 2.121 . S
O294 C302 1.258 . S
C295 N296 1.326 . S
C295 C299 1.460 . S
C295 H301 0.929 . S
N296 Mn289 2.257 . S
N296 C295 1.326 . S
N296 C300 1.362 . S
C297 C298 1.258 . S
C297 C300 1.431 . S
C297 C317 1.449 . S
C298 C297 1.258 . S
C298 C299 1.477 . S
C298 H318 0.931 . S
C299 C295 1.460 . S
C299 C298 1.477 . S
C299 H319 0.930 . S
C300 N296 1.362 . S
C300 C297 1.431 . S
C300 C310 1.476 . S
H301 C295 0.929 . S
C302 O293 1.250 . S
C302 O294 1.258 . S
O303 Mn288 2.162 . S
O303 C291 1.281 . S
O304 Mn288 2.297 . S
O304 C291 1.236 . S
N305 Mn289 2.282 . S
N305 C306 1.328 . S
N305 C310 1.318 . S
C306 N305 1.328 . S
C306 C307 1.457 . S
C306 H311 0.929 . S
C307 C306 1.457 . S
C307 C308 1.291 . S
C307 H320 0.931 . S
C308 C307 1.291 . S
C308 C309 1.373 . S
C308 H321 0.929 . S
C309 C308 1.373 . S
C309 C310 1.396 . S
C309 C316 1.403 . S
C310 C300 1.476 . S
C310 N305 1.318 . S
C310 C309 1.396 . S
H311 C306 0.929 . S
O312 Mn288 2.385 . S
O312 C290 1.234 . S
O313 Mn288 2.209 . S
O313 Mn289 2.215 . S
O313 C290 1.283 . S
O314 Mn288 2.094 . S
O314 C292 1.240 . S
O315 Mn289 2.117 . S
O315 C292 1.264 . S
C316 C309 1.403 . S
C316 C317 1.399 . S
C316 H322 0.929 . S
C317 C297 1.449 . S
C317 C316 1.399 . S
C317 H323 0.930 1_655 S
H318 C298 0.931 . S
H319 C299 0.930 . S
H320 C307 0.931 . S
H321 C308 0.929 . S
H322 C316 0.929 . S
H323 C317 0.930 1_455 S
Mn324 O329 2.095 . S
Mn324 O339 2.162 . S
Mn324 O340 2.297 1_655 S
Mn324 O348 2.385 1_656 S
Mn324 O349 2.209 1_655 S
Mn324 O350 2.094 1_556 S
Mn325 O330 2.121 . S
Mn325 N332 2.257 . S
Mn325 N341 2.282 . S
Mn325 O349 2.215 . S
Mn325 O351 2.117 1_455 S
C326 O348 1.234 1_556 S
C326 O349 1.283 . S
C327 O339 1.281 . S
C327 O340 1.236 1_655 S
C328 O350 1.240 . S
C328 O351 1.264 1_554 S
O329 Mn324 2.095 . S
O329 C338 1.250 . S
O330 Mn325 2.121 . S
O330 C338 1.258 1_455 S
C331 N332 1.326 . S
C331 C335 1.460 . S
C331 H337 0.929 . S
N332 Mn325 2.257 . S
N332 C331 1.326 . S
N332 C336 1.362 . S
C333 C334 1.258 . S
C333 C336 1.431 . S
C333 C353 1.449 . S
C334 C333 1.258 . S
C334 C335 1.477 . S
C334 H354 0.931 . S
C335 C331 1.460 . S
C335 C334 1.477 . S
C335 H355 0.930 . S
C336 N332 1.362 . S
C336 C333 1.431 . S
C336 C346 1.476 . S
H337 C331 0.929 . S
C338 O329 1.250 . S
C338 O330 1.258 1_655 S
O339 Mn324 2.162 . S
O339 C327 1.281 . S
O340 Mn324 2.297 1_455 S
O340 C327 1.236 1_455 S
N341 Mn325 2.282 . S
N341 C342 1.328 1_556 S
N341 C346 1.318 . S
C342 N341 1.328 1_554 S
C342 C343 1.457 . S
C342 H347 0.929 . S
C343 C342 1.457 . S
C343 C344 1.291 . S
C343 H356 0.931 . S
C344 C343 1.291 . S
C344 C345 1.373 1_554 S
C344 H357 0.929 . S
C345 C344 1.373 1_556 S
C345 C346 1.396 . S
C345 C352 1.403 . S
C346 C336 1.476 . S
C346 N341 1.318 . S
C346 C345 1.396 . S
H347 C342 0.929 . S
O348 Mn324 2.385 1_454 S
O348 C326 1.234 1_554 S
O349 Mn324 2.209 1_455 S
O349 Mn325 2.215 . S
O349 C326 1.283 . S
O350 Mn324 2.094 1_554 S
O350 C328 1.240 . S
O351 Mn325 2.117 1_655 S
O351 C328 1.264 1_556 S
C352 C345 1.403 . S
C352 C353 1.399 . S
C352 H358 0.930 . S
C353 C333 1.449 . S
C353 C352 1.399 . S
C353 H359 0.930 . S
H354 C334 0.931 . S
H355 C335 0.930 . S
H356 C343 0.931 . S
H357 C344 0.929 . S
H358 C352 0.930 . S
H359 C353 0.930 . S
Mn360 O365 2.095 . S
Mn360 O375 2.162 . S
Mn360 O376 2.297 . S
Mn360 O384 2.385 . S
Mn360 O385 2.209 . S
Mn360 O386 2.094 . S
Mn361 O366 2.121 . S
Mn361 N368 2.257 . S
Mn361 N377 2.282 . S
Mn361 O385 2.215 . S
Mn361 O387 2.117 . S
C362 O384 1.234 . S
C362 O385 1.283 . S
C363 O375 1.281 . S
C363 O376 1.236 . S
C364 O386 1.240 . S
C364 O387 1.264 . S
O365 Mn360 2.095 . S
O365 C374 1.250 . S
O366 Mn361 2.121 . S
O366 C374 1.258 . S
C367 N368 1.326 . S
C367 C371 1.460 . S
C367 H373 0.929 . S
N368 Mn361 2.257 . S
N368 C367 1.326 . S
N368 C372 1.362 . S
C369 C370 1.258 . S
C369 C372 1.431 . S
C369 C389 1.449 . S
C370 C369 1.258 . S
C370 C371 1.477 . S
C370 H390 0.931 . S
C371 C367 1.460 . S
C371 C370 1.477 . S
C371 H391 0.930 . S
C372 N368 1.362 . S
C372 C369 1.431 . S
C372 C382 1.476 . S
H373 C367 0.929 . S
C374 O365 1.250 . S
C374 O366 1.258 . S
O375 Mn360 2.162 . S
O375 C363 1.281 . S
O376 Mn360 2.297 . S
O376 C363 1.236 . S
N377 Mn361 2.282 . S
N377 C378 1.328 . S
N377 C382 1.318 . S
C378 N377 1.328 . S
C378 C379 1.457 . S
C378 H383 0.929 . S
C379 C378 1.457 . S
C379 C380 1.291 . S
C379 H392 0.931 . S
C380 C379 1.291 . S
C380 C381 1.373 . S
C380 H393 0.929 . S
C381 C380 1.373 . S
C381 C382 1.396 . S
C381 C388 1.403 . S
C382 C372 1.476 . S
C382 N377 1.318 . S
C382 C381 1.396 . S
H383 C378 0.929 . S
O384 Mn360 2.385 . S
O384 C362 1.234 . S
O385 Mn360 2.209 . S
O385 Mn361 2.215 . S
O385 C362 1.283 . S
O386 Mn360 2.094 . S
O386 C364 1.240 . S
O387 Mn361 2.117 . S
O387 C364 1.264 . S
C388 C381 1.403 . S
C388 C389 1.399 . S
C388 H394 0.929 . S
C389 C369 1.449 . S
C389 C388 1.399 . S
C389 H395 0.930 . S
H390 C370 0.931 . S
H391 C371 0.930 . S
H392 C379 0.931 . S
H393 C380 0.929 . S
H394 C388 0.929 . S
H395 C389 0.930 . S
Mn396 O401 2.095 . S
Mn396 O411 2.162 . S
Mn396 O412 2.297 1_655 S
Mn396 O420 2.385 1_655 S
Mn396 O421 2.209 1_655 S
Mn396 O422 2.094 . S
Mn397 O402 2.121 . S
Mn397 N404 2.257 . S
Mn397 N413 2.282 . S
Mn397 O421 2.215 . S
Mn397 O423 2.117 1_455 S
C398 O420 1.234 . S
C398 O421 1.283 . S
C399 O411 1.281 . S
C399 O412 1.236 1_655 S
C400 O422 1.240 . S
C400 O423 1.264 . S
O401 Mn396 2.095 . S
O401 C410 1.250 . S
O402 Mn397 2.121 . S
O402 C410 1.258 1_455 S
C403 N404 1.326 . S
C403 C407 1.460 . S
C403 H409 0.929 . S
N404 Mn397 2.257 . S
N404 C403 1.326 . S
N404 C408 1.362 . S
C405 C406 1.258 . S
C405 C408 1.431 . S
C405 C425 1.449 . S
C406 C405 1.258 . S
C406 C407 1.477 . S
C406 H426 0.931 . S
C407 C403 1.460 . S
C407 C406 1.477 . S
C407 H427 0.930 . S
C408 N404 1.362 . S
C408 C405 1.431 . S
C408 C418 1.476 . S
H409 C403 0.929 . S
C410 O401 1.250 . S
C410 O402 1.258 1_655 S
O411 Mn396 2.162 . S
O411 C399 1.281 . S
O412 Mn396 2.297 1_455 S
O412 C399 1.236 1_455 S
N413 Mn397 2.282 . S
N413 C414 1.328 . S
N413 C418 1.318 . S
C414 N413 1.328 . S
C414 C415 1.457 . S
C414 H419 0.929 . S
C415 C414 1.457 . S
C415 C416 1.291 . S
C415 H428 0.931 . S
C416 C415 1.291 . S
C416 C417 1.373 . S
C416 H429 0.929 . S
C417 C416 1.373 . S
C417 C418 1.396 . S
C417 C424 1.403 . S
C418 C408 1.476 . S
C418 N413 1.318 . S
C418 C417 1.396 . S
H419 C414 0.929 . S
O420 Mn396 2.385 1_455 S
O420 C398 1.234 . S
O421 Mn396 2.209 1_455 S
O421 Mn397 2.215 . S
O421 C398 1.283 . S
O422 Mn396 2.094 . S
O422 C400 1.240 . S
O423 Mn397 2.117 1_655 S
O423 C400 1.264 . S
C424 C417 1.403 . S
C424 C425 1.399 . S
C424 H430 0.929 . S
C425 C405 1.449 . S
C425 C424 1.399 . S
C425 H431 0.930 . S
H426 C406 0.931 . S
H427 C407 0.930 . S
H428 C415 0.931 . S
H429 C416 0.929 . S
H430 C424 0.929 . S
H431 C425 0.930 . S
Mn432 O437 2.095 . S
Mn432 O447 2.162 . S
Mn432 O448 2.297 . S
Mn432 O456 2.385 1_554 S
Mn432 O457 2.209 . S
Mn432 O458 2.094 1_554 S
Mn433 O438 2.121 . S
Mn433 N440 2.257 . S
Mn433 N449 2.282 . S
Mn433 O457 2.215 . S
Mn433 O459 2.117 . S
C434 O456 1.234 1_554 S
C434 O457 1.283 . S
C435 O447 1.281 . S
C435 O448 1.236 . S
C436 O458 1.240 . S
C436 O459 1.264 1_556 S
O437 Mn432 2.095 . S
O437 C446 1.250 . S
O438 Mn433 2.121 . S
O438 C446 1.258 . S
C439 N440 1.326 . S
C439 C443 1.460 . S
C439 H445 0.929 . S
N440 Mn433 2.257 . S
N440 C439 1.326 . S
N440 C444 1.362 . S
C441 C442 1.258 . S
C441 C444 1.431 . S
C441 C461 1.449 . S
C442 C441 1.258 . S
C442 C443 1.477 . S
C442 H462 0.931 . S
C443 C439 1.460 . S
C443 C442 1.477 . S
C443 H463 0.930 . S
C444 N440 1.362 . S
C444 C441 1.431 . S
C444 C454 1.476 . S
H445 C439 0.929 . S
C446 O437 1.250 . S
C446 O438 1.258 . S
O447 Mn432 2.162 . S
O447 C435 1.281 . S
O448 Mn432 2.297 . S
O448 C435 1.236 . S
N449 Mn433 2.282 . S
N449 C450 1.328 1_554 S
N449 C454 1.318 . S
C450 N449 1.328 1_556 S
C450 C451 1.457 . S
C450 H455 0.929 . S
C451 C450 1.457 . S
C451 C452 1.291 . S
C451 H464 0.931 . S
C452 C451 1.291 . S
C452 C453 1.373 1_556 S
C452 H465 0.929 . S
C453 C452 1.373 1_554 S
C453 C454 1.396 . S
C453 C460 1.403 . S
C454 C444 1.476 . S
C454 N449 1.318 . S
C454 C453 1.396 . S
H455 C450 0.929 . S
O456 Mn432 2.385 1_556 S
O456 C434 1.234 1_556 S
O457 Mn432 2.209 . S
O457 Mn433 2.215 . S
O457 C434 1.283 . S
O458 Mn432 2.094 1_556 S
O458 C436 1.240 . S
O459 Mn433 2.117 . S
O459 C436 1.264 1_554 S
C460 C453 1.403 . S
C460 C461 1.399 . S
C460 H466 0.929 . S
C461 C441 1.449 . S
C461 C460 1.399 . S
C461 H467 0.930 . S
H462 C442 0.931 . S
H463 C443 0.930 . S
H464 C451 0.931 . S
H465 C452 0.929 . S
H466 C460 0.929 . S
H467 C461 0.930 . S
Mn468 O473 2.095 . S
Mn468 O483 2.162 . S
Mn468 O484 2.297 . S
Mn468 O492 2.385 . S
Mn468 O493 2.209 . S
Mn468 O494 2.094 . S
Mn469 O474 2.121 . S
Mn469 N476 2.257 . S
Mn469 N485 2.282 . S
Mn469 O493 2.215 . S
Mn469 O495 2.117 . S
C470 O492 1.234 . S
C470 O493 1.283 . S
C471 O483 1.281 . S
C471 O484 1.236 . S
C472 O494 1.240 . S
C472 O495 1.264 . S
O473 Mn468 2.095 . S
O473 C482 1.250 . S
O474 Mn469 2.121 . S
O474 C482 1.258 . S
C475 N476 1.326 . S
C475 C479 1.460 . S
C475 H481 0.929 . S
N476 Mn469 2.257 . S
N476 C475 1.326 . S
N476 C480 1.362 . S
C477 C478 1.258 . S
C477 C480 1.431 . S
C477 C497 1.449 . S
C478 C477 1.258 . S
C478 C479 1.477 . S
C478 H498 0.931 . S
C479 C475 1.460 . S
C479 C478 1.477 . S
C479 H499 0.930 . S
C480 N476 1.362 . S
C480 C477 1.431 . S
C480 C490 1.476 . S
H481 C475 0.929 . S
C482 O473 1.250 . S
C482 O474 1.258 . S
O483 Mn468 2.162 . S
O483 C471 1.281 . S
O484 Mn468 2.297 . S
O484 C471 1.236 . S
N485 Mn469 2.282 . S
N485 C486 1.328 . S
N485 C490 1.318 . S
C486 N485 1.328 . S
C486 C487 1.457 . S
C486 H491 0.929 . S
C487 C486 1.457 . S
C487 C488 1.291 . S
C487 H500 0.931 . S
C488 C487 1.291 . S
C488 C489 1.373 . S
C488 H501 0.929 . S
C489 C488 1.373 . S
C489 C490 1.396 . S
C489 C496 1.403 . S
C490 C480 1.476 . S
C490 N485 1.318 . S
C490 C489 1.396 . S
H491 C486 0.929 . S
O492 Mn468 2.385 . S
O492 C470 1.234 . S
O493 Mn468 2.209 . S
O493 Mn469 2.215 . S
O493 C470 1.283 . S
O494 Mn468 2.094 . S
O494 C472 1.240 . S
O495 Mn469 2.117 . S
O495 C472 1.264 . S
C496 C489 1.403 . S
C496 C497 1.399 . S
C496 H502 0.929 . S
C497 C477 1.449 . S
C497 C496 1.399 . S
C497 H503 0.930 1_655 S
H498 C478 0.931 . S
H499 C479 0.930 . S
H500 C487 0.931 . S
H501 C488 0.929 . S
H502 C496 0.929 . S
H503 C497 0.930 1_455 S
Mn504 O509 2.095 . S
Mn504 O519 2.162 . S
Mn504 O520 2.297 . S
Mn504 O528 2.385 . S
Mn504 O529 2.209 . S
Mn504 O530 2.094 . S
Mn505 O510 2.121 . S
Mn505 N512 2.257 . S
Mn505 N521 2.282 . S
Mn505 O529 2.215 . S
Mn505 O531 2.117 . S
C506 O528 1.234 . S
C506 O529 1.283 . S
C507 O519 1.281 . S
C507 O520 1.236 . S
C508 O530 1.240 . S
C508 O531 1.264 . S
O509 Mn504 2.095 . S
O509 C518 1.250 . S
O510 Mn505 2.121 . S
O510 C518 1.258 . S
C511 N512 1.326 . S
C511 C515 1.460 . S
C511 H517 0.929 . S
N512 Mn505 2.257 . S
N512 C511 1.326 . S
N512 C516 1.362 . S
C513 C514 1.258 . S
C513 C516 1.431 . S
C513 C533 1.449 . S
C514 C513 1.258 . S
C514 C515 1.477 . S
C514 H534 0.931 . S
C515 C511 1.460 . S
C515 C514 1.477 . S
C515 H535 0.930 . S
C516 N512 1.362 . S
C516 C513 1.431 . S
C516 C526 1.476 . S
H517 C511 0.929 . S
C518 O509 1.250 . S
C518 O510 1.258 . S
O519 Mn504 2.162 . S
O519 C507 1.281 . S
O520 Mn504 2.297 . S
O520 C507 1.236 . S
N521 Mn505 2.282 . S
N521 C522 1.328 . S
N521 C526 1.318 . S
C522 N521 1.328 . S
C522 C523 1.457 . S
C522 H527 0.929 . S
C523 C522 1.457 . S
C523 C524 1.291 . S
C523 H536 0.931 . S
C524 C523 1.291 . S
C524 C525 1.373 . S
C524 H537 0.929 . S
C525 C524 1.373 . S
C525 C526 1.396 . S
C525 C532 1.403 . S
C526 C516 1.476 . S
C526 N521 1.318 . S
C526 C525 1.396 . S
H527 C522 0.929 . S
O528 Mn504 2.385 . S
O528 C506 1.234 . S
O529 Mn504 2.209 . S
O529 Mn505 2.215 . S
O529 C506 1.283 . S
O530 Mn504 2.094 . S
O530 C508 1.240 . S
O531 Mn505 2.117 . S
O531 C508 1.264 . S
C532 C525 1.403 . S
C532 C533 1.399 . S
C532 H538 0.929 . S
C533 C513 1.449 . S
C533 C532 1.399 . S
C533 H539 0.930 . S
H534 C514 0.931 . S
H535 C515 0.930 . S
H536 C523 0.931 . S
H537 C524 0.929 . S
H538 C532 0.929 . S
H539 C533 0.930 . S
Mn540 O545 2.095 . S
Mn540 O555 2.162 . S
Mn540 O556 2.297 . S
Mn540 O564 2.385 . S
Mn540 O565 2.209 . S
Mn540 O566 2.094 . S
Mn541 O546 2.121 . S
Mn541 N548 2.257 . S
Mn541 N557 2.282 . S
Mn541 O565 2.215 . S
Mn541 O567 2.117 . S
C542 O564 1.234 . S
C542 O565 1.283 . S
C543 O555 1.281 . S
C543 O556 1.236 . S
C544 O566 1.240 . S
C544 O567 1.264 . S
O545 Mn540 2.095 . S
O545 C554 1.250 . S
O546 Mn541 2.121 . S
O546 C554 1.258 . S
C547 N548 1.326 . S
C547 C551 1.460 . S
C547 H553 0.929 . S
N548 Mn541 2.257 . S
N548 C547 1.326 . S
N548 C552 1.362 . S
C549 C550 1.258 . S
C549 C552 1.431 . S
C549 C569 1.449 . S
C550 C549 1.258 . S
C550 C551 1.477 . S
C550 H570 0.931 . S
C551 C547 1.460 . S
C551 C550 1.477 . S
C551 H571 0.930 . S
C552 N548 1.362 . S
C552 C549 1.431 . S
C552 C562 1.476 . S
H553 C547 0.929 . S
C554 O545 1.250 . S
C554 O546 1.258 . S
O555 Mn540 2.162 . S
O555 C543 1.281 . S
O556 Mn540 2.297 . S
O556 C543 1.236 . S
N557 Mn541 2.282 . S
N557 C558 1.328 . S
N557 C562 1.318 . S
C558 N557 1.328 . S
C558 C559 1.457 . S
C558 H563 0.929 . S
C559 C558 1.457 . S
C559 C560 1.291 . S
C559 H572 0.931 . S
C560 C559 1.291 . S
C560 C561 1.373 . S
C560 H573 0.929 . S
C561 C560 1.373 . S
C561 C562 1.396 . S
C561 C568 1.403 . S
C562 C552 1.476 . S
C562 N557 1.318 . S
C562 C561 1.396 . S
H563 C558 0.929 . S
O564 Mn540 2.385 . S
O564 C542 1.234 . S
O565 Mn540 2.209 . S
O565 Mn541 2.215 . S
O565 C542 1.283 . S
O566 Mn540 2.094 . S
O566 C544 1.240 . S
O567 Mn541 2.117 . S
O567 C544 1.264 . S
C568 C561 1.403 . S
C568 C569 1.399 . S
C568 H574 0.929 . S
C569 C549 1.449 . S
C569 C568 1.399 . S
C569 H575 0.930 . S
H570 C550 0.931 . S
H571 C551 0.930 . S
H572 C559 0.931 . S
H573 C560 0.929 . S
H574 C568 0.929 . S
H575 C569 0.930 . S
H576 C582 0.930 . S
H577 C586 0.930 . S
H578 C591 0.929 . S
H579 C589 0.929 1_556 S
H580 C584 0.929 . S
H581 C590 0.929 . S
C582 H576 0.930 . S
C582 C583 1.367 . S
C582 C590 1.378 . S
C583 C582 1.367 . S
C583 C591 1.433 . S
C584 H580 0.929 . S
C584 C586 1.378 . S
C584 C588 1.350 . S
C585 C588 1.463 . S
C585 C590 1.350 . S
C585 N593 1.427 . S
C586 H577 0.930 . S
C586 C584 1.378 . S
C586 C587 1.367 . S
C587 C586 1.367 . S
C587 C589 1.433 . S
C588 C584 1.350 . S
C588 C585 1.463 . S
C588 N592 1.427 . S
C589 H579 0.929 1_554 S
C589 C587 1.433 . S
C589 N592 1.384 . S
C590 H581 0.929 . S
C590 C582 1.378 . S
C590 C585 1.350 . S
C591 H578 0.929 . S
C591 C583 1.433 . S
C591 N593 1.384 . S
N592 C588 1.427 . S
N592 C589 1.384 . S
N593 C585 1.427 . S
N593 C591 1.384 . S
H594 C600 0.930 . S
H595 C604 0.930 . S
H596 C609 0.929 . S
H597 C607 0.929 . S
H598 C602 0.929 . S
H599 C608 0.929 . S
C600 H594 0.930 . S
C600 C601 1.367 . S
C600 C608 1.378 . S
C601 C600 1.367 . S
C601 C609 1.433 . S
C602 H598 0.929 . S
C602 C604 1.378 . S
C602 C606 1.350 . S
C603 C606 1.463 . S
C603 C608 1.350 . S
C603 N611 1.427 . S
C604 H595 0.930 . S
C604 C602 1.378 . S
C604 C605 1.367 . S
C605 C604 1.367 . S
C605 C607 1.433 . S
C606 C602 1.350 . S
C606 C603 1.463 . S
C606 N610 1.427 . S
C607 H597 0.929 . S
C607 C605 1.433 . S
C607 N610 1.384 . S
C608 H599 0.929 . S
C608 C600 1.378 . S
C608 C603 1.350 . S
C609 H596 0.929 . S
C609 C601 1.433 . S
C609 N611 1.384 . S
N610 C606 1.427 . S
N610 C607 1.384 . S
N611 C603 1.427 . S
N611 C609 1.384 . S
H612 C618 0.930 . S
H613 C622 0.930 . S
H614 C627 0.929 . S
H615 C625 0.929 . S
H616 C620 0.929 . S
H617 C626 0.929 . S
C618 H612 0.930 . S
C618 C619 1.367 . S
C618 C626 1.378 . S
C619 C618 1.367 . S
C619 C627 1.433 . S
C620 H616 0.929 . S
C620 C622 1.378 . S
C620 C624 1.350 . S
C621 C624 1.463 . S
C621 C626 1.350 . S
C621 N629 1.427 . S
C622 H613 0.930 . S
C622 C620 1.378 . S
C622 C623 1.367 . S
C623 C622 1.367 . S
C623 C625 1.433 . S
C624 C620 1.350 . S
C624 C621 1.463 . S
C624 N628 1.427 . S
C625 H615 0.929 . S
C625 C623 1.433 . S
C625 N628 1.384 . S
C626 H617 0.929 . S
C626 C618 1.378 . S
C626 C621 1.350 . S
C627 H614 0.929 . S
C627 C619 1.433 . S
C627 N629 1.384 . S
N628 C624 1.427 . S
N628 C625 1.384 . S
N629 C621 1.427 . S
N629 C627 1.384 . S
H630 C636 0.930 . S
H631 C640 0.930 . S
H632 C645 0.918 1_554 S
H633 C643 0.929 . S
H634 C638 0.929 . S
H635 C644 0.929 . S
C636 H630 0.930 . S
C636 C637 1.367 . S
C636 C644 1.378 . S
C637 C636 1.367 . S
C637 C645 1.433 . S
C638 H634 0.929 . S
C638 C640 1.378 . S
C638 C642 1.350 . S
C639 C642 1.463 . S
C639 C644 1.350 . S
C639 N647 1.427 . S
C640 H631 0.930 . S
C640 C638 1.378 . S
C640 C641 1.367 . S
C641 C640 1.367 . S
C641 C643 1.433 . S
C642 C638 1.350 . S
C642 C639 1.463 . S
C642 N646 1.427 . S
C643 H633 0.929 . S
C643 C641 1.433 . S
C643 N646 1.384 . S
C644 H635 0.929 . S
C644 C636 1.378 . S
C644 C639 1.350 . S
C645 H632 0.918 1_556 S
C645 C637 1.433 . S
C645 N647 1.384 . S
N646 C642 1.427 . S
N646 C643 1.384 . S
N647 C639 1.427 . S
N647 C645 1.384 . S
H648 C654 0.930 . S
H649 C658 0.930 . S
H650 C663 0.929 . S
H651 C661 0.929 . S
H652 C656 0.929 . S
H653 C662 0.929 . S
C654 H648 0.930 . S
C654 C655 1.367 . S
C654 C662 1.378 . S
C655 C654 1.367 . S
C655 C663 1.433 . S
C656 H652 0.929 . S
C656 C658 1.378 . S
C656 C660 1.350 . S
C657 C660 1.463 . S
C657 C662 1.350 . S
C657 N665 1.427 . S
C658 H649 0.930 . S
C658 C656 1.378 . S
C658 C659 1.367 . S
C659 C658 1.367 . S
C659 C661 1.433 . S
C660 C656 1.350 . S
C660 C657 1.463 . S
C660 N664 1.427 . S
C661 H651 0.929 . S
C661 C659 1.433 . S
C661 N664 1.384 . S
C662 H653 0.929 . S
C662 C654 1.378 . S
C662 C657 1.350 . S
C663 H650 0.929 . S
C663 C655 1.433 . S
C663 N665 1.384 . S
N664 C660 1.427 . S
N664 C661 1.384 . S
N665 C657 1.427 . S
N665 C663 1.384 . S
H666 C672 0.930 . S
H667 C676 0.930 . S
H668 C681 0.931 1_556 S
H669 C679 0.929 . S
H670 C674 0.929 . S
H671 C680 0.929 . S
C672 H666 0.930 . S
C672 C673 1.367 . S
C672 C680 1.378 . S
C673 C672 1.367 . S
C673 C681 1.433 . S
C674 H670 0.929 . S
C674 C676 1.378 . S
C674 C678 1.350 . S
C675 C678 1.463 . S
C675 C680 1.350 . S
C675 N683 1.427 . S
C676 H667 0.930 . S
C676 C674 1.378 . S
C676 C677 1.367 . S
C677 C676 1.367 . S
C677 C679 1.433 . S
C678 C674 1.350 . S
C678 C675 1.463 . S
C678 N682 1.427 . S
C679 H669 0.929 . S
C679 C677 1.433 . S
C679 N682 1.384 . S
C680 H671 0.929 . S
C680 C672 1.378 . S
C680 C675 1.350 . S
C681 H668 0.931 1_554 S
C681 C673 1.433 . S
C681 N683 1.384 . S
N682 C678 1.427 . S
N682 C679 1.384 . S
N683 C675 1.427 . S
N683 C681 1.384 . S
H684 C690 0.930 . S
H685 C694 0.930 . S
H686 C699 0.929 . S
H687 C697 0.929 . S
H688 C692 0.929 . S
H689 C698 0.929 . S
C690 H684 0.930 . S
C690 C691 1.367 . S
C690 C698 1.378 . S
C691 C690 1.367 . S
C691 C699 1.433 . S
C692 H688 0.929 . S
C692 C694 1.378 . S
C692 C696 1.350 . S
C693 C696 1.463 . S
C693 C698 1.350 . S
C693 N701 1.427 . S
C694 H685 0.930 . S
C694 C692 1.378 . S
C694 C695 1.367 . S
C695 C694 1.367 . S
C695 C697 1.433 . S
C696 C692 1.350 . S
C696 C693 1.463 . S
C696 N700 1.427 . S
C697 H687 0.929 . S
C697 C695 1.433 . S
C697 N700 1.384 . S
C698 H689 0.929 . S
C698 C690 1.378 . S
C698 C693 1.350 . S
C699 H686 0.929 . S
C699 C691 1.433 . S
C699 N701 1.384 . S
N700 C696 1.427 . S
N700 C697 1.384 . S
N701 C693 1.427 . S
N701 C699 1.384 . S
H702 C708 0.930 . S
H703 C712 0.930 . S
H704 C717 0.929 . S
H705 C715 0.929 . S
H706 C710 0.929 . S
H707 C716 0.929 . S
C708 H702 0.930 . S
C708 C709 1.367 . S
C708 C716 1.378 . S
C709 C708 1.367 . S
C709 C717 1.433 . S
C710 H706 0.929 . S
C710 C712 1.378 . S
C710 C714 1.350 . S
C711 C714 1.463 . S
C711 C716 1.350 . S
C711 N719 1.427 . S
C712 H703 0.930 . S
C712 C710 1.378 . S
C712 C713 1.367 . S
C713 C712 1.367 . S
C713 C715 1.433 . S
C714 C710 1.350 . S
C714 C711 1.463 . S
C714 N718 1.427 . S
C715 H705 0.929 . S
C715 C713 1.433 . S
C715 N718 1.384 . S
C716 H707 0.929 . S
C716 C708 1.378 . S
C716 C711 1.350 . S
C717 H704 0.929 . S
C717 C709 1.433 . S
C717 N719 1.384 . S
N718 C714 1.427 . S
N718 C715 1.384 . S
N719 C711 1.427 . S
N719 C717 1.384 . S
H720 C726 0.930 . S
H721 C730 0.930 . S
H722 C735 0.929 . S
H723 C733 0.929 . S
H724 C728 0.929 . S
H725 C734 0.929 . S
C726 H720 0.930 . S
C726 C727 1.367 . S
C726 C734 1.378 . S
C727 C726 1.367 . S
C727 C735 1.433 . S
C728 H724 0.929 . S
C728 C730 1.378 . S
C728 C732 1.350 . S
C729 C732 1.463 . S
C729 C734 1.350 . S
C729 N737 1.427 . S
C730 H721 0.930 . S
C730 C728 1.378 . S
C730 C731 1.367 . S
C731 C730 1.367 . S
C731 C733 1.433 . S
C732 C728 1.350 . S
C732 C729 1.463 . S
C732 N736 1.427 . S
C733 H723 0.929 . S
C733 C731 1.433 . S
C733 N736 1.384 . S
C734 H725 0.929 . S
C734 C726 1.378 . S
C734 C729 1.350 . S
C735 H722 0.929 . S
C735 C727 1.433 . S
C735 N737 1.384 . S
N736 C732 1.427 . S
N736 C733 1.384 . S
N737 C729 1.427 . S
N737 C735 1.384 . S
H738 C744 0.930 . S
H739 C748 0.930 . S
H740 C753 0.929 . S
H741 C751 0.929 . S
H742 C746 0.929 . S
H743 C752 0.929 . S
C744 H738 0.930 . S
C744 C745 1.367 1_655 S
C744 C752 1.378 . S
C745 C744 1.367 1_455 S
C745 C753 1.433 1_545 S
C746 H742 0.929 . S
C746 C748 1.378 . S
C746 C750 1.354 . S
C747 C750 1.462 1_545 S
C747 C752 1.354 1_455 S
C747 N755 1.424 1_545 S
C748 H739 0.930 . S
C748 C746 1.378 . S
C748 C749 1.367 . S
C749 C748 1.367 . S
C749 C751 1.433 1_465 S
C750 C746 1.354 . S
C750 C747 1.462 1_565 S
C750 N754 1.424 1_465 S
C751 H741 0.929 . S
C751 C749 1.433 1_645 S
C751 N754 1.384 . S
C752 H743 0.929 . S
C752 C744 1.378 . S
C752 C747 1.354 1_655 S
C753 H740 0.929 . S
C753 C745 1.433 1_565 S
C753 N755 1.384 . S
N754 C750 1.424 1_645 S
N754 C751 1.384 . S
N755 C747 1.424 1_565 S
N755 C753 1.384 . S
H756 C762 0.930 . S
H757 C766 0.930 . S
H758 C771 0.929 . S
H759 C769 0.929 . S
H760 C764 0.929 . S
H761 C770 0.929 . S
C762 H756 0.930 . S
C762 C763 1.367 . S
C762 C770 1.378 . S
C763 C762 1.367 . S
C763 C771 1.433 . S
C764 H760 0.929 . S
C764 C766 1.378 . S
C764 C768 1.350 . S
C765 C768 1.463 1_556 S
C765 C770 1.350 . S
C765 N773 1.427 . S
C766 H757 0.930 . S
C766 C764 1.378 . S
C766 C767 1.367 . S
C767 C766 1.367 . S
C767 C769 1.433 . S
C768 C764 1.350 . S
C768 C765 1.463 1_554 S
C768 N772 1.427 . S
C769 H759 0.929 . S
C769 C767 1.433 . S
C769 N772 1.384 . S
C770 H761 0.929 . S
C770 C762 1.378 . S
C770 C765 1.350 . S
C771 H758 0.929 . S
C771 C763 1.433 . S
C771 N773 1.384 . S
N772 C768 1.427 . S
N772 C769 1.384 . S
N773 C765 1.427 . S
N773 C771 1.384 . S
H774 C780 0.930 . S
H775 C784 0.930 . S
H776 C789 0.929 . S
H777 C787 0.929 . S
H778 C782 0.929 . S
H779 C788 0.929 . S
C780 H774 0.930 . S
C780 C781 1.367 . S
C780 C788 1.378 . S
C781 C780 1.367 . S
C781 C789 1.433 1_565 S
C782 H778 0.929 . S
C782 C784 1.378 . S
C782 C786 1.353 . S
C783 C786 1.462 1_565 S
C783 C788 1.353 . S
C783 N791 1.424 1_565 S
C784 H775 0.930 . S
C784 C782 1.378 . S
C784 C785 1.367 . S
C785 C784 1.367 . S
C785 C787 1.433 1_545 S
C786 C782 1.353 . S
C786 C783 1.462 1_545 S
C786 N790 1.424 1_545 S
C787 H777 0.929 . S
C787 C785 1.433 1_565 S
C787 N790 1.384 . S
C788 H779 0.929 . S
C788 C780 1.378 . S
C788 C783 1.353 . S
C789 H776 0.929 . S
C789 C781 1.433 1_545 S
C789 N791 1.384 . S
N790 C786 1.424 1_565 S
N790 C787 1.384 . S
N791 C783 1.424 1_545 S
N791 C789 1.384 . S
H792 C798 0.930 . S
H793 C802 0.930 . S
H794 C807 0.929 . S
H795 C805 0.929 . S
H796 C800 0.929 . S
H797 C806 0.929 . S
C798 H792 0.930 . S
C798 C799 1.367 . S
C798 C806 1.378 . S
C799 C798 1.367 . S
C799 C807 1.433 . S
C800 H796 0.929 . S
C800 C802 1.378 . S
C800 C804 1.350 . S
C801 C804 1.463 . S
C801 C806 1.350 . S
C801 N809 1.427 . S
C802 H793 0.930 . S
C802 C800 1.378 . S
C802 C803 1.367 . S
C803 C802 1.367 . S
C803 C805 1.433 . S
C804 C800 1.350 . S
C804 C801 1.463 . S
C804 N808 1.427 . S
C805 H795 0.929 . S
C805 C803 1.433 . S
C805 N808 1.384 . S
C806 H797 0.929 . S
C806 C798 1.378 . S
C806 C801 1.350 . S
C807 H794 0.929 . S
C807 C799 1.433 . S
C807 N809 1.384 . S
N808 C804 1.427 . S
N808 C805 1.384 . S
N809 C801 1.427 . S
N809 C807 1.384 . S
H810 C816 0.930 . S
H811 C820 0.930 . S
H812 C825 0.929 . S
H813 C823 0.929 . S
H814 C818 0.929 . S
H815 C824 0.929 . S
C816 H810 0.930 . S
C816 C817 1.367 1_455 S
C816 C824 1.378 . S
C817 C816 1.367 1_655 S
C817 C825 1.433 . S
C818 H814 0.929 . S
C818 C820 1.378 . S
C818 C822 1.350 1_655 S
C819 C822 1.463 1_655 S
C819 C824 1.350 1_655 S
C819 N827 1.427 . S
C820 H811 0.930 . S
C820 C818 1.378 . S
C820 C821 1.367 1_655 S
C821 C820 1.367 1_455 S
C821 C823 1.433 . S
C822 C818 1.350 1_455 S
C822 C819 1.463 1_455 S
C822 N826 1.427 . S
C823 H813 0.929 . S
C823 C821 1.433 . S
C823 N826 1.384 . S
C824 H815 0.929 . S
C824 C816 1.378 . S
C824 C819 1.350 1_455 S
C825 H812 0.929 . S
C825 C817 1.433 . S
C825 N827 1.384 . S
N826 C822 1.427 . S
N826 C823 1.384 . S
N827 C819 1.427 . S
N827 C825 1.384 . S
H828 C834 0.930 . S
H829 C838 0.930 . S
H830 C843 0.929 . S
H831 C841 0.929 . S
H832 C836 0.929 . S
H833 C842 0.929 . S
C834 H828 0.930 . S
C834 C835 1.367 . S
C834 C842 1.378 . S
C835 C834 1.367 . S
C835 C843 1.433 . S
C836 H832 0.929 . S
C836 C838 1.378 . S
C836 C840 1.350 . S
C837 C840 1.463 1_655 S
C837 C842 1.350 . S
C837 N845 1.427 . S
C838 H829 0.930 . S
C838 C836 1.378 . S
C838 C839 1.367 . S
C839 C838 1.367 . S
C839 C841 1.433 . S
C840 C836 1.350 . S
C840 C837 1.463 1_455 S
C840 N844 1.427 . S
C841 H831 0.929 . S
C841 C839 1.433 . S
C841 N844 1.384 . S
C842 H833 0.929 . S
C842 C834 1.378 . S
C842 C837 1.350 . S
C843 H830 0.929 . S
C843 C835 1.433 . S
C843 N845 1.384 . S
N844 C840 1.427 . S
N844 C841 1.384 . S
N845 C837 1.427 . S
N845 C843 1.384 . S
H846 C852 0.930 1_556 S
H847 C856 0.930 . S
H848 C861 0.929 . S
H849 C859 0.929 1_556 S
H850 C854 0.929 . S
H851 C860 0.929 1_556 S
C852 H846 0.930 1_554 S
C852 C853 1.367 . S
C852 C860 1.378 . S
C853 C852 1.367 . S
C853 C861 1.433 . S
C854 H850 0.929 . S
C854 C856 1.378 . S
C854 C858 1.350 . S
C855 C858 1.463 . S
C855 C860 1.350 . S
C855 N863 1.427 . S
C856 H847 0.930 . S
C856 C854 1.378 . S
C856 C857 1.367 . S
C857 C856 1.367 . S
C857 C859 1.433 . S
C858 C854 1.350 . S
C858 C855 1.463 . S
C858 N862 1.427 . S
C859 H849 0.929 1_554 S
C859 C857 1.433 . S
C859 N862 1.384 . S
C860 H851 0.929 1_554 S
C860 C852 1.378 . S
C860 C855 1.350 . S
C861 H848 0.929 . S
C861 C853 1.433 . S
C861 N863 1.384 . S
N862 C858 1.427 . S
N862 C859 1.384 . S
N863 C855 1.427 . S
N863 C861 1.384 . S
H864 C870 0.930 . S
H865 C874 0.930 . S
H866 C879 0.929 . S
H867 C877 0.929 . S
H868 C872 0.929 . S
H869 C878 0.929 . S
C870 H864 0.930 . S
C870 C871 1.367 . S
C870 C878 1.378 . S
C871 C870 1.367 . S
C871 C879 1.433 . S
C872 H868 0.929 . S
C872 C874 1.378 . S
C872 C876 1.350 . S
C873 C876 1.463 . S
C873 C878 1.350 . S
C873 N881 1.427 . S
C874 H865 0.930 . S
C874 C872 1.378 . S
C874 C875 1.367 . S
C875 C874 1.367 . S
C875 C877 1.433 . S
C876 C872 1.350 . S
C876 C873 1.463 . S
C876 N880 1.427 . S
C877 H867 0.929 . S
C877 C875 1.433 . S
C877 N880 1.384 . S
C878 H869 0.929 . S
C878 C870 1.378 . S
C878 C873 1.350 . S
C879 H866 0.929 . S
C879 C871 1.433 . S
C879 N881 1.384 . S
N880 C876 1.427 . S
N880 C877 1.384 . S
N881 C873 1.427 . S
N881 C879 1.384 . S
H882 C888 0.930 . S
H883 C892 0.930 . S
H884 C897 0.929 . S
H885 C895 0.929 . S
H886 C890 0.929 . S
H887 C896 0.929 . S
C888 H882 0.930 . S
C888 C889 1.367 . S
C888 C896 1.378 . S
C889 C888 1.367 . S
C889 C897 1.433 . S
C890 H886 0.929 . S
C890 C892 1.378 . S
C890 C894 1.350 . S
C891 C894 1.463 . S
C891 C896 1.350 . S
C891 N899 1.427 . S
C892 H883 0.930 . S
C892 C890 1.378 . S
C892 C893 1.367 . S
C893 C892 1.367 . S
C893 C895 1.433 . S
C894 C890 1.350 . S
C894 C891 1.463 . S
C894 N898 1.427 . S
C895 H885 0.929 . S
C895 C893 1.433 . S
C895 N898 1.384 . S
C896 H887 0.929 . S
C896 C888 1.378 . S
C896 C891 1.350 . S
C897 H884 0.929 . S
C897 C889 1.433 . S
C897 N899 1.384 . S
N898 C894 1.427 . S
N898 C895 1.384 . S
N899 C891 1.427 . S
N899 C897 1.384 . S
H900 C906 0.930 . S
H901 C910 0.930 . S
H902 C915 0.929 . S
H903 C913 0.929 . S
H904 C908 0.929 . S
H905 C914 0.929 . S
C906 H900 0.930 . S
C906 C907 1.367 . S
C906 C914 1.378 . S
C907 C906 1.367 . S
C907 C915 1.433 . S
C908 H904 0.929 . S
C908 C910 1.378 . S
C908 C912 1.350 . S
C909 C912 1.463 1_455 S
C909 C914 1.350 . S
C909 N917 1.427 . S
C910 H901 0.930 . S
C910 C908 1.378 . S
C910 C911 1.367 . S
C911 C910 1.367 . S
C911 C913 1.433 . S
C912 C908 1.350 . S
C912 C909 1.463 1_655 S
C912 N916 1.427 . S
C913 H903 0.929 . S
C913 C911 1.433 . S
C913 N916 1.384 . S
C914 H905 0.929 . S
C914 C906 1.378 . S
C914 C909 1.350 . S
C915 H902 0.929 . S
C915 C907 1.433 . S
C915 N917 1.384 . S
N916 C912 1.427 . S
N916 C913 1.384 . S
N917 C909 1.427 . S
N917 C915 1.384 . S
H918 C924 0.930 1_554 S
H919 C928 0.930 . S
H920 C933 0.929 . S
H921 C931 0.929 1_554 S
H922 C926 0.929 . S
H923 C932 0.929 1_554 S
C924 H918 0.930 1_556 S
C924 C925 1.367 . S
C924 C932 1.378 . S
C925 C924 1.367 . S
C925 C933 1.433 1_455 S
C926 H922 0.929 . S
C926 C928 1.378 . S
C926 C930 1.350 . S
C927 C930 1.463 1_455 S
C927 C932 1.350 . S
C927 N935 1.427 1_455 S
C928 H919 0.930 . S
C928 C926 1.378 . S
C928 C929 1.367 . S
C929 C928 1.367 . S
C929 C931 1.433 1_655 S
C930 C926 1.350 . S
C930 C927 1.463 1_655 S
C930 N934 1.427 1_655 S
C931 H921 0.929 1_556 S
C931 C929 1.433 1_455 S
C931 N934 1.384 . S
C932 H923 0.929 1_556 S
C932 C924 1.378 . S
C932 C927 1.350 . S
C933 H920 0.929 . S
C933 C925 1.433 1_655 S
C933 N935 1.384 . S
N934 C930 1.427 1_455 S
N934 C931 1.384 . S
N935 C927 1.427 1_655 S
N935 C933 1.384 . S
H936 C942 0.930 . S
H937 C946 0.930 . S
H938 C951 0.929 . S
H939 C949 0.929 . S
H940 C944 0.929 . S
H941 C950 0.929 . S
C942 H936 0.930 . S
C942 C943 1.367 . S
C942 C950 1.378 . S
C943 C942 1.367 . S
C943 C951 1.433 . S
C944 H940 0.929 . S
C944 C946 1.378 . S
C944 C948 1.350 . S
C945 C948 1.463 . S
C945 C950 1.350 . S
C945 N953 1.427 . S
C946 H937 0.930 . S
C946 C944 1.378 . S
C946 C947 1.367 . S
C947 C946 1.367 . S
C947 C949 1.433 . S
C948 C944 1.350 . S
C948 C945 1.463 . S
C948 N952 1.427 . S
C949 H939 0.929 . S
C949 C947 1.433 . S
C949 N952 1.384 . S
C950 H941 0.929 . S
C950 C942 1.378 . S
C950 C945 1.350 . S
C951 H938 0.929 . S
C951 C943 1.433 . S
C951 N953 1.384 . S
N952 C948 1.427 . S
N952 C949 1.384 . S
N953 C945 1.427 . S
N953 C951 1.384 . S
H954 C960 0.930 . S
H955 C964 0.930 . S
H956 C969 0.929 . S
H957 C967 0.929 . S
H958 C962 0.929 . S
H959 C968 0.929 . S
C960 H954 0.930 . S
C960 C961 1.367 . S
C960 C968 1.378 . S
C961 C960 1.367 . S
C961 C969 1.433 . S
C962 H958 0.929 . S
C962 C964 1.378 . S
C962 C966 1.350 . S
C963 C966 1.463 1_545 S
C963 C968 1.350 . S
C963 N971 1.427 . S
C964 H955 0.930 . S
C964 C962 1.378 . S
C964 C965 1.367 . S
C965 C964 1.367 . S
C965 C967 1.433 . S
C966 C962 1.350 . S
C966 C963 1.463 1_565 S
C966 N970 1.427 . S
C967 H957 0.929 . S
C967 C965 1.433 . S
C967 N970 1.384 . S
C968 H959 0.929 . S
C968 C960 1.378 . S
C968 C963 1.350 . S
C969 H956 0.929 . S
C969 C961 1.433 . S
C969 N971 1.384 . S
N970 C966 1.427 . S
N970 C967 1.384 . S
N971 C963 1.427 . S
N971 C969 1.384 . S
H972 C978 0.930 . S
H973 C982 0.930 . S
H974 C987 0.929 . S
H975 C985 0.929 . S
H976 C980 0.929 . S
H977 C986 0.929 . S
C978 H972 0.930 . S
C978 C979 1.367 . S
C978 C986 1.378 . S
C979 C978 1.367 . S
C979 C987 1.433 1_554 S
C980 H976 0.929 . S
C980 C982 1.378 . S
C980 C984 1.350 . S
C981 C984 1.463 1_554 S
C981 C986 1.350 . S
C981 N989 1.427 1_554 S
C982 H973 0.930 . S
C982 C980 1.378 . S
C982 C983 1.367 . S
C983 C982 1.367 . S
C983 C985 1.433 1_556 S
C984 C980 1.350 . S
C984 C981 1.463 1_556 S
C984 N988 1.427 1_556 S
C985 H975 0.929 . S
C985 C983 1.433 1_554 S
C985 N988 1.384 . S
C986 H977 0.929 . S
C986 C978 1.378 . S
C986 C981 1.350 . S
C987 H974 0.929 . S
C987 C979 1.433 1_556 S
C987 N989 1.384 . S
N988 C984 1.427 1_554 S
N988 C985 1.384 . S
N989 C981 1.427 1_556 S
N989 C987 1.384 . S
H990 C996 0.930 . S
H991 C1000 0.930 . S
H992 C1005 0.929 . S
H993 C1003 0.929 . S
H994 C998 0.929 . S
H995 C1004 0.929 . S
C996 H990 0.930 . S
C996 C997 1.367 . S
C996 C1004 1.378 . S
C997 C996 1.367 . S
C997 C1005 1.433 . S
C998 H994 0.929 . S
C998 C1000 1.378 . S
C998 C1002 1.350 . S
C999 C1002 1.463 1_545 S
C999 C1004 1.350 . S
C999 N1007 1.427 . S
C1000 H991 0.930 . S
C1000 C998 1.378 . S
C1000 C1001 1.367 . S
C1001 C1000 1.367 . S
C1001 C1003 1.433 . S
C1002 C998 1.350 . S
C1002 C999 1.463 1_565 S
C1002 N1006 1.427 . S
C1003 H993 0.929 . S
C1003 C1001 1.433 . S
C1003 N1006 1.384 . S
C1004 H995 0.929 . S
C1004 C996 1.378 . S
C1004 C999 1.350 . S
C1005 H992 0.929 . S
C1005 C997 1.433 . S
C1005 N1007 1.384 . S
N1006 C1002 1.427 . S
N1006 C1003 1.384 . S
N1007 C999 1.427 . S
N1007 C1005 1.384 . S
H1008 C1014 0.930 . S
H1009 C1018 0.930 . S
H1010 C1023 0.929 . S
H1011 C1021 0.929 . S
H1012 C1016 0.929 . S
H1013 C1022 0.929 . S
C1014 H1008 0.930 . S
C1014 C1015 1.367 1_554 S
C1014 C1022 1.378 . S
C1015 C1014 1.367 1_556 S
C1015 C1023 1.433 1_565 S
C1016 H1012 0.929 . S
C1016 C1018 1.378 . S
C1016 C1020 1.350 1_546 S
C1017 C1020 1.461 1_556 S
C1017 C1022 1.339 1_556 S
C1017 N1025 1.442 1_565 S
C1018 H1009 0.930 . S
C1018 C1016 1.378 . S
C1018 C1019 1.367 1_546 S
C1019 C1018 1.367 1_564 S
C1019 C1021 1.433 . S
C1020 C1016 1.350 1_564 S
C1020 C1017 1.461 1_554 S
C1020 N1024 1.427 . S
C1021 H1011 0.929 . S
C1021 C1019 1.433 . S
C1021 N1024 1.384 . S
C1022 H1013 0.929 . S
C1022 C1014 1.378 . S
C1022 C1017 1.339 1_554 S
C1023 H1010 0.929 . S
C1023 C1015 1.433 1_545 S
C1023 N1025 1.384 . S
N1024 C1020 1.427 . S
N1024 C1021 1.384 . S
N1025 C1017 1.442 1_545 S
N1025 C1023 1.384 . S
H1026 C1032 0.930 . S
H1027 C1036 0.930 . S
H1028 C1041 0.929 . S
H1029 C1039 0.929 . S
H1030 C1034 0.929 . S
H1031 C1040 0.929 . S
C1032 H1026 0.930 . S
C1032 C1033 1.367 . S
C1032 C1040 1.378 . S
C1033 C1032 1.367 . S
C1033 C1041 1.433 . S
C1034 H1030 0.929 . S
C1034 C1036 1.378 . S
C1034 C1038 1.350 . S
C1035 C1038 1.463 . S
C1035 C1040 1.350 . S
C1035 N1043 1.427 . S
C1036 H1027 0.930 . S
C1036 C1034 1.378 . S
C1036 C1037 1.367 . S
C1037 C1036 1.367 . S
C1037 C1039 1.433 . S
C1038 C1034 1.350 . S
C1038 C1035 1.463 . S
C1038 N1042 1.427 . S
C1039 H1029 0.929 . S
C1039 C1037 1.433 . S
C1039 N1042 1.384 . S
C1040 H1031 0.929 . S
C1040 C1032 1.378 . S
C1040 C1035 1.350 . S
C1041 H1028 0.929 . S
C1041 C1033 1.433 . S
C1041 N1043 1.384 . S
N1042 C1038 1.427 . S
N1042 C1039 1.384 . S
N1043 C1035 1.427 . S
N1043 C1041 1.384 . S
H1044 C1050 0.930 . S
H1045 C1054 0.930 . S
H1046 C1059 0.929 . S
H1047 C1057 0.929 . S
H1048 C1052 0.929 . S
H1049 C1058 0.929 . S
C1050 H1044 0.930 . S
C1050 C1051 1.367 . S
C1050 C1058 1.378 . S
C1051 C1050 1.367 . S
C1051 C1059 1.433 . S
C1052 H1048 0.929 . S
C1052 C1054 1.378 . S
C1052 C1056 1.350 . S
C1053 C1056 1.463 . S
C1053 C1058 1.350 . S
C1053 N1061 1.427 . S
C1054 H1045 0.930 . S
C1054 C1052 1.378 . S
C1054 C1055 1.367 . S
C1055 C1054 1.367 . S
C1055 C1057 1.433 . S
C1056 C1052 1.350 . S
C1056 C1053 1.463 . S
C1056 N1060 1.427 . S
C1057 H1047 0.929 . S
C1057 C1055 1.433 . S
C1057 N1060 1.384 . S
C1058 H1049 0.929 . S
C1058 C1050 1.378 . S
C1058 C1053 1.350 . S
C1059 H1046 0.929 . S
C1059 C1051 1.433 . S
C1059 N1061 1.384 . S
N1060 C1056 1.427 . S
N1060 C1057 1.384 . S
N1061 C1053 1.427 . S
N1061 C1059 1.384 . S
H1062 C1068 0.930 . S
H1063 C1072 0.930 . S
H1064 C1077 0.929 . S
H1065 C1075 0.929 . S
H1066 C1070 0.929 . S
H1067 C1076 0.929 . S
C1068 H1062 0.930 . S
C1068 C1069 1.367 . S
C1068 C1076 1.378 . S
C1069 C1068 1.367 . S
C1069 C1077 1.433 . S
C1070 H1066 0.929 . S
C1070 C1072 1.378 . S
C1070 C1074 1.350 . S
C1071 C1074 1.463 1_556 S
C1071 C1076 1.350 . S
C1071 N1079 1.427 . S
C1072 H1063 0.930 . S
C1072 C1070 1.378 . S
C1072 C1073 1.367 . S
C1073 C1072 1.367 . S
C1073 C1075 1.433 . S
C1074 C1070 1.350 . S
C1074 C1071 1.463 1_554 S
C1074 N1078 1.427 . S
C1075 H1065 0.929 . S
C1075 C1073 1.433 . S
C1075 N1078 1.384 . S
C1076 H1067 0.929 . S
C1076 C1068 1.378 . S
C1076 C1071 1.350 . S
C1077 H1064 0.929 . S
C1077 C1069 1.433 . S
C1077 N1079 1.384 . S
N1078 C1074 1.427 . S
N1078 C1075 1.384 . S
N1079 C1071 1.427 . S
N1079 C1077 1.384 . S
H1080 C1086 0.930 . S
H1081 C1090 0.930 . S
H1082 C1095 0.929 . S
H1083 C1093 0.929 . S
H1084 C1088 0.929 . S
H1085 C1094 0.929 . S
C1086 H1080 0.930 . S
C1086 C1087 1.367 . S
C1086 C1094 1.378 . S
C1087 C1086 1.367 . S
C1087 C1095 1.433 . S
C1088 H1084 0.929 . S
C1088 C1090 1.378 . S
C1088 C1092 1.350 . S
C1089 C1092 1.463 . S
C1089 C1094 1.350 . S
C1089 N1097 1.427 . S
C1090 H1081 0.930 . S
C1090 C1088 1.378 . S
C1090 C1091 1.367 . S
C1091 C1090 1.367 . S
C1091 C1093 1.433 . S
C1092 C1088 1.350 . S
C1092 C1089 1.463 . S
C1092 N1096 1.427 . S
C1093 H1083 0.929 . S
C1093 C1091 1.433 . S
C1093 N1096 1.384 . S
C1094 H1085 0.929 . S
C1094 C1086 1.378 . S
C1094 C1089 1.350 . S
C1095 H1082 0.929 . S
C1095 C1087 1.433 . S
C1095 N1097 1.384 . S
N1096 C1092 1.427 . S
N1096 C1093 1.384 . S
N1097 C1089 1.427 . S
N1097 C1095 1.384 . S
H1098 C1104 0.930 . S
H1099 C1108 0.930 . S
H1100 C1113 0.929 . S
H1101 C1111 0.929 . S
H1102 C1106 0.929 . S
H1103 C1112 0.929 . S
C1104 H1098 0.930 . S
C1104 C1105 1.367 . S
C1104 C1112 1.378 . S
C1105 C1104 1.367 . S
C1105 C1113 1.433 . S
C1106 H1102 0.929 . S
C1106 C1108 1.378 . S
C1106 C1110 1.350 . S
C1107 C1110 1.463 . S
C1107 C1112 1.350 . S
C1107 N1115 1.427 . S
C1108 H1099 0.930 . S
C1108 C1106 1.378 . S
C1108 C1109 1.367 . S
C1109 C1108 1.367 . S
C1109 C1111 1.433 . S
C1110 C1106 1.350 . S
C1110 C1107 1.463 . S
C1110 N1114 1.427 . S
C1111 H1101 0.929 . S
C1111 C1109 1.433 . S
C1111 N1114 1.384 . S
C1112 H1103 0.929 . S
C1112 C1104 1.378 . S
C1112 C1107 1.350 . S
C1113 H1100 0.929 . S
C1113 C1105 1.433 . S
C1113 N1115 1.384 . S
N1114 C1110 1.427 . S
N1114 C1111 1.384 . S
N1115 C1107 1.427 . S
N1115 C1113 1.384 . S
H1116 C1122 0.930 . S
H1117 C1126 0.930 . S
H1118 C1131 0.929 . S
H1119 C1129 0.929 . S
H1120 C1124 0.929 . S
H1121 C1130 0.929 . S
C1122 H1116 0.930 . S
C1122 C1123 1.367 . S
C1122 C1130 1.378 . S
C1123 C1122 1.367 . S
C1123 C1131 1.433 . S
C1124 H1120 0.929 . S
C1124 C1126 1.378 . S
C1124 C1128 1.350 . S
C1125 C1128 1.463 . S
C1125 C1130 1.350 . S
C1125 N1133 1.427 . S
C1126 H1117 0.930 . S
C1126 C1124 1.378 . S
C1126 C1127 1.367 . S
C1127 C1126 1.367 . S
C1127 C1129 1.433 . S
C1128 C1124 1.350 . S
C1128 C1125 1.463 . S
C1128 N1132 1.427 . S
C1129 H1119 0.929 . S
C1129 C1127 1.433 . S
C1129 N1132 1.384 . S
C1130 H1121 0.929 . S
C1130 C1122 1.378 . S
C1130 C1125 1.350 . S
C1131 H1118 0.929 . S
C1131 C1123 1.433 . S
C1131 N1133 1.384 . S
N1132 C1128 1.427 . S
N1132 C1129 1.384 . S
N1133 C1125 1.427 . S
N1133 C1131 1.384 . S
H1134 C1140 0.930 . S
H1135 C1144 0.930 . S
H1136 C1149 0.929 . S
H1137 C1147 0.929 . S
H1138 C1142 0.929 . S
H1139 C1148 0.929 . S
C1140 H1134 0.930 . S
C1140 C1141 1.367 . S
C1140 C1148 1.378 . S
C1141 C1140 1.367 . S
C1141 C1149 1.433 . S
C1142 H1138 0.929 . S
C1142 C1144 1.378 . S
C1142 C1146 1.350 . S
C1143 C1146 1.463 . S
C1143 C1148 1.350 . S
C1143 N1151 1.427 . S
C1144 H1135 0.930 . S
C1144 C1142 1.378 . S
C1144 C1145 1.367 . S
C1145 C1144 1.367 . S
C1145 C1147 1.433 . S
C1146 C1142 1.350 . S
C1146 C1143 1.463 . S
C1146 N1150 1.427 . S
C1147 H1137 0.929 . S
C1147 C1145 1.433 . S
C1147 N1150 1.384 . S
C1148 H1139 0.929 . S
C1148 C1140 1.378 . S
C1148 C1143 1.350 . S
C1149 H1136 0.929 . S
C1149 C1141 1.433 . S
C1149 N1151 1.384 . S
N1150 C1146 1.427 . S
N1150 C1147 1.384 . S
N1151 C1143 1.427 . S
N1151 C1149 1.384 . S
C583 C4 1.842 . S
C587 C256 1.844 . S
C601 C40 1.846 . S
C605 C148 1.847 . S
C619 C184 1.828 . S
C623 C76 1.828 . S
C637 C112 1.825 . S
C641 C220 1.826 . S
C655 C292 1.826 . S
C659 C436 1.825 . S
C673 C328 1.843 . S
C677 C508 1.843 . S
C691 C400 1.846 . S
C695 C364 1.847 . S
C709 C544 1.825 . S
C713 C472 1.826 . S
C727 C3 1.255 . S
C731 C219 1.254 . S
C745 C266 1.026 . S
C749 C50 1.040 . S
C763 C75 1.258 . S
C767 C147 1.258 . S
C781 C194 1.029 . S
C785 C122 1.015 . S
C799 C2 1.406 . S
C803 C506 1.409 . S
C817 C399 1.264 . S
C821 C39 1.263 . S
C835 C470 1.372 . S
C839 C74 1.369 . S
C853 C435 1.248 . S
C857 C111 1.247 . S
C871 C362 1.410 . S
C875 C146 1.406 . S
C889 C183 1.250 . S
C893 C543 1.249 . S
C907 C218 1.372 . S
C911 C290 1.368 . S
C925 C255 1.266 . S
C929 C327 1.265 . S
C943 C14 1.025 . S
C947 C158 1.016 . S
C961 C302 1.033 . S
C965 C482 1.047 . S
C979 C434 1.350 . S
C983 C326 1.346 . S
C997 C518 1.029 . S
C1001 C374 1.016 . S
C1015 C254 1.348 . S
C1019 C110 1.349 . S
C1033 C86 1.042 . S
C1037 C230 1.030 . S
C1051 C398 1.351 . S
C1055 C542 1.344 . S
C1069 C471 1.259 . S
C1073 C363 1.260 . S
C1087 C554 1.024 . S
C1091 C446 1.031 . S
C1105 C507 1.259 . S
C1109 C291 1.260 . S
C1123 C410 1.031 . S
C1127 C338 1.028 . S
C1141 C38 1.349 . S
C1145 C182 1.346 . S
