# Generated by pormake.
# Topology yfl, (5)-cn, num edge types: 1
# Building blocks:
#     Node 0, Type 0, BuildingBlock: XOMCOT_clean_sbu_0, # of connection points: 5
#     Node 1, Type 0, BuildingBlock: XOMCOT_clean_sbu_0, # of connection points: 5
#     Node 2, Type 0, BuildingBlock: XOMCOT_clean_sbu_0, # of connection points: 5
#     Node 3, Type 0, BuildingBlock: XOMCOT_clean_sbu_0, # of connection points: 5
#     Node 4, Type 0, BuildingBlock: XOMCOT_clean_sbu_0, # of connection points: 5
#     Node 5, Type 0, BuildingBlock: XOMCOT_clean_sbu_0, # of connection points: 5
#     Node 6, Type 0, BuildingBlock: XOMCOT_clean_sbu_0, # of connection points: 5
#     Node 7, Type 0, BuildingBlock: XOMCOT_clean_sbu_0, # of connection points: 5
#     Node 8, Type 0, BuildingBlock: XOMCOT_clean_sbu_0, # of connection points: 5
#     Node 9, Type 0, BuildingBlock: XOMCOT_clean_sbu_0, # of connection points: 5
#     Node 10, Type 0, BuildingBlock: XOMCOT_clean_sbu_0, # of connection points: 5
#     Node 11, Type 0, BuildingBlock: XOMCOT_clean_sbu_0, # of connection points: 5
#     Node 12, Type 0, BuildingBlock: XOMCOT_clean_sbu_0, # of connection points: 5
#     Node 13, Type 0, BuildingBlock: XOMCOT_clean_sbu_0, # of connection points: 5
#     Node 14, Type 0, BuildingBlock: XOMCOT_clean_sbu_0, # of connection points: 5
#     Node 15, Type 0, BuildingBlock: XOMCOT_clean_sbu_0, # of connection points: 5
#     Edge 16, Type (0, 0), BuildingBlock: EZIPEK_clean_linker_0, # of connection points: 2
#     Edge 17, Type (0, 0), BuildingBlock: EZIPEK_clean_linker_0, # of connection points: 2
#     Edge 18, Type (0, 0), BuildingBlock: EZIPEK_clean_linker_0, # of connection points: 2
#     Edge 19, Type (0, 0), BuildingBlock: EZIPEK_clean_linker_0, # of connection points: 2
#     Edge 20, Type (0, 0), BuildingBlock: EZIPEK_clean_linker_0, # of connection points: 2
#     Edge 21, Type (0, 0), BuildingBlock: EZIPEK_clean_linker_0, # of connection points: 2
#     Edge 22, Type (0, 0), BuildingBlock: EZIPEK_clean_linker_0, # of connection points: 2
#     Edge 23, Type (0, 0), BuildingBlock: EZIPEK_clean_linker_0, # of connection points: 2
#     Edge 24, Type (0, 0), BuildingBlock: EZIPEK_clean_linker_0, # of connection points: 2
#     Edge 25, Type (0, 0), BuildingBlock: EZIPEK_clean_linker_0, # of connection points: 2
#     Edge 26, Type (0, 0), BuildingBlock: EZIPEK_clean_linker_0, # of connection points: 2
#     Edge 27, Type (0, 0), BuildingBlock: EZIPEK_clean_linker_0, # of connection points: 2
#     Edge 28, Type (0, 0), BuildingBlock: EZIPEK_clean_linker_0, # of connection points: 2
#     Edge 29, Type (0, 0), BuildingBlock: EZIPEK_clean_linker_0, # of connection points: 2
#     Edge 30, Type (0, 0), BuildingBlock: EZIPEK_clean_linker_0, # of connection points: 2
#     Edge 31, Type (0, 0), BuildingBlock: EZIPEK_clean_linker_0, # of connection points: 2
#     Edge 32, Type (0, 0), BuildingBlock: EZIPEK_clean_linker_0, # of connection points: 2
#     Edge 33, Type (0, 0), BuildingBlock: EZIPEK_clean_linker_0, # of connection points: 2
#     Edge 34, Type (0, 0), BuildingBlock: EZIPEK_clean_linker_0, # of connection points: 2
#     Edge 35, Type (0, 0), BuildingBlock: EZIPEK_clean_linker_0, # of connection points: 2
#     Edge 36, Type (0, 0), BuildingBlock: EZIPEK_clean_linker_0, # of connection points: 2
#     Edge 37, Type (0, 0), BuildingBlock: EZIPEK_clean_linker_0, # of connection points: 2
#     Edge 38, Type (0, 0), BuildingBlock: EZIPEK_clean_linker_0, # of connection points: 2
#     Edge 39, Type (0, 0), BuildingBlock: EZIPEK_clean_linker_0, # of connection points: 2
#     Edge 40, Type (0, 0), BuildingBlock: EZIPEK_clean_linker_0, # of connection points: 2
#     Edge 41, Type (0, 0), BuildingBlock: EZIPEK_clean_linker_0, # of connection points: 2
#     Edge 42, Type (0, 0), BuildingBlock: EZIPEK_clean_linker_0, # of connection points: 2
#     Edge 43, Type (0, 0), BuildingBlock: EZIPEK_clean_linker_0, # of connection points: 2
#     Edge 44, Type (0, 0), BuildingBlock: EZIPEK_clean_linker_0, # of connection points: 2
#     Edge 45, Type (0, 0), BuildingBlock: EZIPEK_clean_linker_0, # of connection points: 2
#     Edge 46, Type (0, 0), BuildingBlock: EZIPEK_clean_linker_0, # of connection points: 2
#     Edge 47, Type (0, 0), BuildingBlock: EZIPEK_clean_linker_0, # of connection points: 2
#     Edge 48, Type (0, 0), BuildingBlock: EZIPEK_clean_linker_0, # of connection points: 2
#     Edge 49, Type (0, 0), BuildingBlock: EZIPEK_clean_linker_0, # of connection points: 2
#     Edge 50, Type (0, 0), BuildingBlock: EZIPEK_clean_linker_0, # of connection points: 2
#     Edge 51, Type (0, 0), BuildingBlock: EZIPEK_clean_linker_0, # of connection points: 2
#     Edge 52, Type (0, 0), BuildingBlock: EZIPEK_clean_linker_0, # of connection points: 2
#     Edge 53, Type (0, 0), BuildingBlock: EZIPEK_clean_linker_0, # of connection points: 2
#     Edge 54, Type (0, 0), BuildingBlock: EZIPEK_clean_linker_0, # of connection points: 2
#     Edge 55, Type (0, 0), BuildingBlock: EZIPEK_clean_linker_0, # of connection points: 2
# Relax obj value: 0.329
# Max RMSD: 0.259
# Mean RMSD: 0.259
data_MOF--net-yfl--node1-XOMCOT_clean_sbu_0--edge1-EZIPEK_clean_linker_0
_symmetry_space_group_name_H-M    P1
_symmetry_Int_Tables_number       1
_symmetry_cell_setting            triclinic
loop_
_symmetry_equiv_pos_as_xyz
'x, y, z'
_cell_length_a     23.131415
_cell_length_b     23.099743
_cell_length_c     79.215193
_cell_angle_alpha  90.005396
_cell_angle_beta   89.995049
_cell_angle_gamma 89.968763
loop_
_atom_site_label
_atom_site_type_symbol
_atom_site_fract_x
_atom_site_fract_y
_atom_site_fract_z
_atom_type_partial_charge
Co0 Co 0.04842 0.34623 0.3149 0.0
C1 C 0.13899 0.3308 0.34099 0.0
C2 C 0.17689 0.35288 0.31721 0.0
C3 C 0.22054 0.34775 0.32903 0.0
N4 N 0.12576 0.34021 0.32457 0.0
N5 N 0.19616 0.33391 0.34391 0.0
H6 H 0.10768 0.32461 0.35093 0.0
H7 H 0.18213 0.36819 0.30446 0.0
C8 C 0.11271 0.31253 0.28217 0.0
O9 O 0.13374 0.26479 0.28878 0.0
N10 N 0.97122 0.35343 0.30571 0.0
C11 C 0.92072 0.34285 0.31365 0.0
C12 C 0.87586 0.35494 0.30273 0.0
C13 C 0.95654 0.37084 0.29008 0.0
N14 N 0.89874 0.3715 0.28784 0.0
C15 C 0.04206 0.23385 0.3306 0.0
C16 C 0.00799 0.17547 0.30183 0.0
C17 C 0.01466 0.14498 0.31689 0.0
C18 C 0.03135 0.1745 0.33148 0.0
C19 C 0.01889 0.23461 0.30159 0.0
N20 N 0.03809 0.26284 0.31562 0.0
H21 H 0.05099 0.2565 0.34213 0.0
H22 H 0.01006 0.25813 0.29028 0.0
H23 H 0.9167 0.32732 0.32647 0.0
H24 H 0.98722 0.38396 0.28055 0.0
O25 O 0.01772 0.36605 0.33696 0.0
O26 O 0.05138 0.42819 0.31794 0.0
O27 O 0.08038 0.34602 0.29091 0.0
C28 C 0.02771 0.41948 0.3326 0.0
H29 H 0.26613 0.35591 0.32707 0.0
H30 H 0.83011 0.35128 0.3054 0.0
H31 H 0.99313 0.15396 0.29048 0.0
H32 H 0.03473 0.15214 0.34346 0.0
Co33 Co 0.31881 0.93366 0.69467 0.0
C34 C 0.32036 0.84081 0.66876 0.0
C35 C 0.29072 0.80703 0.69235 0.0
C36 C 0.28796 0.7635 0.68044 0.0
N37 N 0.31174 0.85572 0.68511 0.0
N38 N 0.30658 0.78529 0.6657 0.0
H39 H 0.33398 0.87017 0.65893 0.0
H40 H 0.276 0.80297 0.70514 0.0
C41 C 0.29241 0.87986 0.72969 0.0
O42 O 0.23766 0.8691 0.72669 0.0
N43 N 0.32562 0.01141 0.7037 0.0
C44 C 0.30648 0.05997 0.69603 0.0
C45 C 0.31364 0.10611 0.70681 0.0
C46 C 0.34422 0.02858 0.71907 0.0
N47 N 0.33701 0.08607 0.72121 0.0
C48 C 0.20522 0.92744 0.68079 0.0
C49 C 0.14805 0.97658 0.70791 0.0
C50 C 0.11676 0.96108 0.6935 0.0
C51 C 0.14574 0.93642 0.6798 0.0
C52 C 0.20758 0.96714 0.70832 0.0
N53 N 0.23526 0.9414 0.69506 0.0
H54 H 0.2274 0.91071 0.66985 0.0
H55 H 0.23152 0.98082 0.71929 0.0
H56 H 0.28623 0.06133 0.68374 0.0
H57 H 0.36066 -0.00021 0.72871 0.0
O58 O 0.33385 0.96517 0.67237 0.0
O59 O 0.40031 0.93298 0.69026 0.0
O60 O 0.32532 0.90182 0.71844 0.0
C61 C 0.38835 0.95685 0.67582 0.0
H62 H 0.27199 0.71993 0.6823 0.0
H63 H 0.30061 0.15047 0.70457 0.0
H64 H 0.12678 0.99669 0.71859 0.0
H65 H 0.1227 0.92518 0.66836 0.0
Co66 Co 0.92664 0.70186 0.30979 0.0
C67 C 0.83114 0.69543 0.33475 0.0
C68 C 0.80345 0.73973 0.31245 0.0
C69 C 0.75939 0.74208 0.32418 0.0
N70 N 0.84868 0.71027 0.31903 0.0
N71 N 0.77745 0.71439 0.33812 0.0
H72 H 0.85771 0.67417 0.34409 0.0
H73 H 0.80309 0.76142 0.30047 0.0
C74 C 0.87653 0.73464 0.27469 0.0
O75 O 0.86981 0.78996 0.27788 0.0
N76 N 0.0042 0.69271 0.30081 0.0
C77 C 0.05469 0.70087 0.30901 0.0
C78 C 0.09961 0.68734 0.29826 0.0
C79 C 0.01911 0.67545 0.28517 0.0
N80 N 0.07697 0.67227 0.28321 0.0
C81 C 0.92222 0.81358 0.32473 0.0
C82 C 0.97835 0.8721 0.29908 0.0
C83 C 0.96149 0.90202 0.31359 0.0
C84 C 0.93337 0.87243 0.32657 0.0
C85 C 0.96656 0.81316 0.2978 0.0
N86 N 0.93726 0.78496 0.3103 0.0
H87 H 0.90287 0.79059 0.33515 0.0
H88 H 0.98133 0.79018 0.2868 0.0
H89 H 0.05873 0.7157 0.32189 0.0
H90 H 0.98855 0.66424 0.27539 0.0
O91 O 0.95655 0.68438 0.33205 0.0
O92 O 0.92345 0.62005 0.31359 0.0
O93 O 0.89507 0.69935 0.28588 0.0
C94 C 0.94716 0.63039 0.32818 0.0
H95 H 0.71868 0.76482 0.32294 0.0
H96 H 0.1453 0.68878 0.30119 0.0
H97 H 0.00114 0.89397 0.28898 0.0
H98 H 0.92104 0.89447 0.3381 0.0
Co99 Co 0.67304 0.05512 0.69063 0.0
C100 C 0.68079 0.14169 0.66296 0.0
C101 C 0.71859 0.17555 0.68555 0.0
C102 C 0.72526 0.21589 0.67285 0.0
N103 N 0.69056 0.12869 0.67941 0.0
N104 N 0.70155 0.19406 0.65875 0.0
H105 H 0.66046 0.11324 0.65392 0.0
H106 H 0.73456 0.18056 0.69818 0.0
C107 C 0.71047 0.11191 0.72435 0.0
O108 O 0.76578 0.11554 0.72079 0.0
N109 N 0.65453 0.9816 0.7015 0.0
C110 C 0.64758 0.92963 0.69395 0.0
C111 C 0.63234 0.88921 0.70592 0.0
C112 C 0.64463 0.97146 0.71805 0.0
N113 N 0.63147 0.91551 0.72109 0.0
C114 C 0.78622 0.04305 0.67655 0.0
C115 C 0.83789 0.9954 0.70481 0.0
C116 C 0.87142 0.0067 0.69052 0.0
C117 C 0.84507 0.0298 0.67614 0.0
C118 C 0.77921 0.00897 0.70463 0.0
N119 N 0.75454 0.03486 0.6909 0.0
H120 H 0.76605 0.05984 0.66528 0.0
H121 H 0.75417 7e-05 0.71576 0.0
H122 H 0.6535 0.92111 0.68066 0.0
H123 H 0.64722 0.00387 0.72785 0.0
O124 O 0.65154 0.0214 0.66911 0.0
O125 O 0.59251 0.06754 0.68661 0.0
O126 O 0.6738 0.09314 0.71363 0.0
C127 C 0.5993 0.03905 0.6726 0.0
H128 H 0.7466 0.25746 0.67378 0.0
H129 H 0.62362 0.84378 0.70373 0.0
H130 H 0.85706 0.97672 0.71603 0.0
H131 H 0.86986 0.03783 0.66477 0.0
Co132 Co 0.05587 0.18311 0.93805 0.0
C133 C 0.14344 0.1975 0.9109 0.0
C134 C 0.17087 0.24087 0.93339 0.0
C135 C 0.21242 0.24891 0.92109 0.0
N136 N 0.12749 0.20817 0.92707 0.0
N137 N 0.19462 0.22162 0.90705 0.0
H138 H 0.11849 0.17302 0.90186 0.0
H139 H 0.17279 0.25846 0.94593 0.0
C140 C 0.1099 0.22022 0.97244 0.0
O141 O 0.10857 0.27641 0.96997 0.0
N142 N 0.98413 0.15746 0.94865 0.0
C143 C 0.93319 0.14617 0.94098 0.0
C144 C 0.89351 0.1288 0.95291 0.0
C145 C 0.974 0.14798 0.96521 0.0
N146 N 0.91913 0.13097 0.96816 0.0
C147 C 0.03015 0.29574 0.9247 0.0
C148 C 0.97632 0.33835 0.95316 0.0
C149 C 0.97365 0.37225 0.93836 0.0
C150 C 0.00482 0.3508 0.92431 0.0
C151 C 0.00131 0.28349 0.95295 0.0
N152 N 0.028 0.26258 0.9389 0.0
H153 H 0.05089 0.27938 0.91345 0.0
H154 H -0.00062 0.25805 0.96429 0.0
H155 H 0.92472 0.15091 0.92766 0.0
H156 H 0.00556 0.15377 0.9751 0.0
O157 O 0.02471 0.15984 0.9163 0.0
O158 O 0.07566 0.10416 0.93357 0.0
O159 O 0.09365 0.18456 0.96109 0.0
C160 C 0.04695 0.10906 0.91956 0.0
H161 H 0.25237 0.27293 0.92231 0.0
H162 H 0.84898 0.11665 0.95065 0.0
H163 H 0.96068 0.35275 0.96521 0.0
H164 H 0.01058 0.37608 0.91296 0.0
Co165 Co 0.18827 0.94638 0.05958 0.0
C166 C 0.20043 0.85237 0.08497 0.0
C167 C 0.18881 0.81709 0.06027 0.0
C168 C 0.19138 0.77203 0.07166 0.0
N169 N 0.19665 0.86772 0.06849 0.0
N170 N 0.19796 0.79461 0.0872 0.0
H171 H 0.20189 0.88264 0.09537 0.0
H172 H 0.17698 0.81273 0.04719 0.0
C173 C 0.22762 0.8872 0.02716 0.0
O174 O 0.27635 0.87063 0.03418 0.0
N175 N 0.17823 0.02454 0.0511 0.0
C176 C 0.19623 0.07349 0.05876 0.0
C177 C 0.18624 0.11973 0.04815 0.0
C178 C 0.157 0.04159 0.036 0.0
N179 N 0.16189 0.09939 0.03391 0.0
C180 C 0.30069 0.94978 0.07508 0.0
C181 C 0.35718 0.99805 0.04772 0.0
C182 C 0.3881 0.98629 0.06244 0.0
C183 C 0.35953 0.9622 0.07629 0.0
C184 C 0.29855 0.98474 0.04704 0.0
N185 N 0.27123 0.9593 0.06041 0.0
H186 H 0.27875 0.93421 0.08614 0.0
H187 H 0.27483 0.99574 0.03585 0.0
H188 H 0.21737 0.07511 0.07093 0.0
H189 H 0.13997 0.01245 0.02655 0.0
O190 O 0.1682 0.9734 0.08194 0.0
O191 O 0.10645 0.94032 0.06274 0.0
O192 O 0.19069 0.91694 0.03549 0.0
C193 C 0.11511 0.96149 0.07776 0.0
H194 H 0.18449 0.72662 0.06894 0.0
H195 H 0.19788 0.16445 0.05041 0.0
H196 H 0.37809 0.01777 0.03691 0.0
H197 H 0.38236 0.9539 0.08799 0.0
Co198 Co 0.96438 0.82216 0.94073 0.0
C199 C 0.865 0.81635 0.9173 0.0
C200 C 0.83828 0.8466 0.94171 0.0
C201 C 0.7906 0.84532 0.93126 0.0
N202 N 0.88492 0.82825 0.93295 0.0
N203 N 0.80796 0.8275 0.91588 0.0
H204 H 0.89189 0.80172 0.90697 0.0
H205 H 0.83865 0.86092 0.9547 0.0
C206 C 0.93623 0.79729 0.97794 0.0
O207 O 0.95986 0.7456 0.97753 0.0
N208 N 0.04528 0.81669 0.94834 0.0
C209 C 0.09294 0.81802 0.9384 0.0
C210 C 0.14177 0.82284 0.94823 0.0
C211 C 0.06695 0.81864 0.96419 0.0
N212 N 0.12486 0.8233 0.96441 0.0
C213 C 0.00056 0.70589 0.93298 0.0
C214 C 0.90266 0.65159 0.94521 0.0
C215 C 0.94766 0.61784 0.93865 0.0
C216 C 0.99701 0.64555 0.93242 0.0
C217 C 0.90875 0.71163 0.94602 0.0
N218 N 0.95776 0.73813 0.94025 0.0
H219 H 0.03758 0.72653 0.92738 0.0
H220 H 0.87411 0.73675 0.95146 0.0
H221 H 0.09282 0.81612 0.92485 0.0
H222 H 0.04225 0.81833 0.97555 0.0
O223 O 0.99087 0.83731 0.91763 0.0
O224 O 0.97371 0.90376 0.93721 0.0
O225 O 0.93563 0.82937 0.96484 0.0
C226 C 0.98908 0.89193 0.92184 0.0
H227 H 0.74719 0.85906 0.93443 0.0
H228 H 0.18583 0.82799 0.94388 0.0
H229 H 0.86352 0.63152 0.94991 0.0
H230 H 0.03207 0.62076 0.92694 0.0
Co231 Co 0.83521 0.04285 0.06934 0.0
C232 C 0.81494 0.13117 0.09565 0.0
C233 C 0.84568 0.17009 0.07272 0.0
C234 C 0.83763 0.21314 0.08454 0.0
N235 N 0.83124 0.11874 0.07969 0.0
N236 N 0.81863 0.18834 0.09888 0.0
H237 H 0.80178 0.0991 0.10484 0.0
H238 H 0.86215 0.17609 0.06008 0.0
C239 C 0.81896 0.0705 0.03215 0.0
O240 O 0.77771 0.03173 0.03069 0.0
N241 N 0.83988 0.96522 0.05918 0.0
C242 C 0.82885 0.91388 0.06679 0.0
C243 C 0.84247 0.86906 0.05599 0.0
C244 C 0.86172 0.94994 0.04398 0.0
N245 N 0.86218 0.89222 0.04155 0.0
C246 C 0.72374 -0.00021 0.07835 0.0
C247 C 0.66047 0.07779 0.05936 0.0
C248 C 0.63209 0.03268 0.0677 0.0
C249 C 0.6639 0.99436 0.07766 0.0
C250 C 0.72055 0.08172 0.06046 0.0
N251 N 0.75157 0.0407 0.06898 0.0
H252 H 0.74756 0.97118 0.08649 0.0
H253 H 0.74208 0.11735 0.05429 0.0
H254 H 0.8142 0.90841 0.07961 0.0
H255 H 0.87913 0.97941 0.0349 0.0
O256 O 0.85004 0.00826 0.09135 0.0
O257 O 0.91625 0.0408 0.07334 0.0
O258 O 0.84121 0.08131 0.0465 0.0
C259 C 0.90432 0.01679 0.08773 0.0
H260 H 0.847 0.25874 0.08299 0.0
H261 H 0.83897 0.82319 0.05858 0.0
H262 H 0.63651 0.10902 0.05194 0.0
H263 H 0.64265 0.96017 0.08467 0.0
Co264 Co 0.54861 0.82095 0.82204 0.0
C265 C 0.63678 0.81431 0.84891 0.0
C266 C 0.67392 0.84378 0.82559 0.0
C267 C 0.71663 0.84289 0.83772 0.0
N268 N 0.62386 0.82589 0.83263 0.0
N269 N 0.69295 0.82461 0.85229 0.0
H270 H 0.60557 0.80042 0.85824 0.0
H271 H 0.6791 0.85821 0.81271 0.0
C272 C 0.57413 0.81077 0.78465 0.0
O273 O 0.5365 0.76865 0.78294 0.0
N274 N 0.47193 0.81623 0.81162 0.0
C275 C 0.42579 0.7852 0.81695 0.0
C276 C 0.38054 0.79285 0.80586 0.0
C277 C 0.45257 0.84444 0.79777 0.0
N278 N 0.39796 0.82966 0.79377 0.0
C279 C 0.52447 0.70694 0.83401 0.0
C280 C 0.59054 0.64776 0.81062 0.0
C281 C 0.55295 0.61702 0.82114 0.0
C282 C 0.5216 0.64681 0.83343 0.0
C283 C 0.59237 0.70813 0.81175 0.0
N284 N 0.55565 0.73707 0.82232 0.0
H285 H 0.49986 0.72925 0.84355 0.0
H286 H 0.62267 0.73123 0.80393 0.0
H287 H 0.42418 0.7587 0.82812 0.0
H288 H 0.47802 0.87368 0.79032 0.0
O289 O 0.51119 0.83352 0.8438 0.0
O290 O 0.53726 0.9018 0.82557 0.0
O291 O 0.58672 0.83037 0.79922 0.0
C292 C 0.51378 0.88816 0.83989 0.0
H293 H 0.76096 0.85697 0.83619 0.0
H294 H 0.33893 0.77146 0.80625 0.0
H295 H 0.61698 0.62549 0.80138 0.0
H296 H 0.49357 0.62389 0.84212 0.0
Co297 Co 0.81633 0.46028 0.187 0.0
C298 C 0.79722 0.36418 0.16265 0.0
C299 C 0.79399 0.33325 0.18814 0.0
C300 C 0.78831 0.28657 0.17741 0.0
N301 N 0.79956 0.38218 0.1789 0.0
N302 N 0.79112 0.30633 0.16146 0.0
H303 H 0.80244 0.39207 0.1518 0.0
H304 H 0.7956 0.33076 0.20175 0.0
C305 C 0.79394 0.43466 0.22474 0.0
O306 O 0.74705 0.46649 0.22578 0.0
N307 N 0.83351 0.53952 0.19498 0.0
C308 C 0.8465 0.58611 0.18528 0.0
C309 C 0.85478 0.63406 0.19533 0.0
C310 C 0.83334 0.5612 0.21088 0.0
N311 N 0.84684 0.61781 0.21142 0.0
C312 C 0.71556 0.52582 0.17951 0.0
C313 C 0.63736 0.45972 0.19715 0.0
C314 C 0.61927 0.515 0.19154 0.0
C315 C 0.65844 0.54446 0.18093 0.0
C316 C 0.69486 0.44208 0.19522 0.0
N317 N 0.73421 0.4776 0.18773 0.0
H318 H 0.74503 0.55043 0.17178 0.0
H319 H 0.70801 0.40092 0.2004 0.0
H320 H 0.84825 0.58643 0.17173 0.0
H321 H 0.82338 0.53772 0.2221 0.0
O322 O 0.83383 0.48444 0.16394 0.0
O323 O 0.89648 0.4478 0.18222 0.0
O324 O 0.82126 0.42927 0.21085 0.0
C325 C 0.88663 0.46796 0.16721 0.0
H326 H 0.78566 0.24142 0.18098 0.0
H327 H 0.86572 0.67737 0.19121 0.0
H328 H 0.60791 0.42957 0.20303 0.0
H329 H 0.64633 0.58127 0.17338 0.0
Co330 Co 0.44954 0.17537 0.81457 0.0
C331 C 0.35638 0.21079 0.83822 0.0
C332 C 0.32532 0.15577 0.81847 0.0
C333 C 0.28241 0.16132 0.83044 0.0
N334 N 0.37172 0.18722 0.82322 0.0
N335 N 0.30231 0.19583 0.84281 0.0
H336 H 0.38549 0.2326 0.84668 0.0
H337 H 0.32497 0.12587 0.80797 0.0
C338 C 0.38069 0.20522 0.78304 0.0
O339 O 0.35307 0.24739 0.79072 0.0
N340 N 0.52693 0.16242 0.80615 0.0
C341 C 0.57664 0.17651 0.81405 0.0
C342 C 0.622 0.16871 0.80297 0.0
C343 C 0.54258 0.1459 0.79045 0.0
N344 N 0.60021 0.14971 0.78821 0.0
C345 C 0.47534 0.2845 0.83037 0.0
C346 C 0.49544 0.34457 0.80078 0.0
C347 C 0.50005 0.37351 0.8162 0.0
C348 C 0.49069 0.34287 0.83116 0.0
C349 C 0.47957 0.28637 0.80062 0.0
N350 N 0.46665 0.25775 0.8152 0.0
H351 H 0.47274 0.26048 0.84199 0.0
H352 H 0.48046 0.26367 0.78885 0.0
H353 H 0.5794 0.19398 0.82669 0.0
H354 H 0.51263 0.13385 0.78057 0.0
O355 O 0.47391 0.15328 0.83714 0.0
O356 O 0.43954 0.09402 0.81755 0.0
O357 O 0.42041 0.177 0.79057 0.0
C358 C 0.45907 0.10099 0.83278 0.0
H359 H 0.24184 0.13801 0.83077 0.0
H360 H 0.66706 0.17852 0.80527 0.0
H361 H 0.50478 0.36659 0.78902 0.0
H362 H 0.49619 0.36365 0.84331 0.0
Co363 Co 0.17115 0.55659 0.18592 0.0
C364 C 0.19473 0.63938 0.15855 0.0
C365 C 0.13893 0.67655 0.17736 0.0
C366 C 0.14334 0.71471 0.16402 0.0
N367 N 0.1711 0.6294 0.17388 0.0
N368 N 0.17844 0.69118 0.1523 0.0
H369 H 0.21998 0.60784 0.15163 0.0
H370 H 0.11135 0.68127 0.1883 0.0
C371 C 0.18937 0.59944 0.22204 0.0
O372 O 0.23605 0.5679 0.22424 0.0
N373 N 0.17101 0.48111 0.19761 0.0
C374 C 0.17682 0.42872 0.19008 0.0
C375 C 0.17179 0.38534 0.20191 0.0
C376 C 0.16184 0.46777 0.21407 0.0
N377 N 0.16276 0.41036 0.21695 0.0
C378 C 0.28497 0.51305 0.17881 0.0
C379 C 0.34404 0.6029 0.19413 0.0
C380 C 0.37499 0.555 0.18816 0.0
C381 C 0.34518 0.51054 0.17993 0.0
C382 C 0.28401 0.60407 0.19248 0.0
N383 N 0.25504 0.55779 0.1859 0.0
H384 H 0.26249 0.47882 0.17234 0.0
H385 H 0.2606 0.64153 0.19696 0.0
H386 H 0.18352 0.42171 0.17676 0.0
H387 H 0.15298 0.49785 0.22395 0.0
O388 O 0.1551 0.51767 0.16451 0.0
O389 O 0.08983 0.55081 0.18264 0.0
O390 O 0.16397 0.6008 0.2078 0.0
C391 C 0.10078 0.52604 0.16834 0.0
H392 H 0.12008 0.75509 0.16258 0.0
H393 H 0.17353 0.33916 0.19965 0.0
H394 H 0.36608 0.63864 0.20021 0.0
H395 H 0.36816 0.47368 0.17477 0.0
Co396 Co 0.56264 0.65887 0.43774 0.0
C397 C 0.64433 0.70223 0.41268 0.0
C398 C 0.68287 0.63683 0.42824 0.0
C399 C 0.71831 0.64611 0.41458 0.0
N400 N 0.63679 0.67259 0.42721 0.0
N401 N 0.69365 0.6868 0.4048 0.0
H402 H 0.61113 0.72881 0.40695 0.0
H403 H 0.68709 0.60186 0.43722 0.0
C404 C 0.64493 0.67246 0.46798 0.0
O405 O 0.68777 0.69418 0.45916 0.0
N406 N 0.48731 0.64398 0.44794 0.0
C407 C 0.44166 0.6161 0.44104 0.0
C408 C 0.40022 0.60752 0.45324 0.0
C409 C 0.47172 0.65373 0.46413 0.0
N410 N 0.41945 0.63091 0.46773 0.0
C411 C 0.49507 0.75825 0.42957 0.0
C412 C 0.56615 0.83943 0.44466 0.0
C413 C 0.51469 0.85765 0.43709 0.0
C414 C 0.47903 0.8166 0.42933 0.0
C415 C 0.58063 0.78081 0.44455 0.0
N416 N 0.54485 0.74093 0.43733 0.0
H417 H 0.46732 0.72665 0.42361 0.0
H418 H 0.62081 0.768 0.45014 0.0
H419 H 0.43873 0.60106 0.42821 0.0
H420 H 0.49898 0.67416 0.47345 0.0
O421 O 0.53376 0.63614 0.41568 0.0
O422 O 0.57377 0.57751 0.4345 0.0
O423 O 0.59567 0.6622 0.46134 0.0
C424 C 0.55116 0.58412 0.41961 0.0
H425 H 0.75589 0.62074 0.41115 0.0
H426 H 0.36015 0.58382 0.4518 0.0
H427 H 0.59496 0.87037 0.45057 0.0
H428 H 0.43918 0.82957 0.42322 0.0
Co429 Co 0.67502 0.43154 0.56245 0.0
C430 C 0.70627 0.33991 0.58694 0.0
C431 C 0.64917 0.30907 0.56768 0.0
C432 C 0.6518 0.26813 0.58032 0.0
N433 N 0.68358 0.35415 0.57175 0.0
N434 N 0.68756 0.28794 0.59238 0.0
H435 H 0.72982 0.36916 0.59496 0.0
H436 H 0.61892 0.30904 0.55728 0.0
C437 C 0.7021 0.35784 0.53153 0.0
O438 O 0.74132 0.32759 0.53967 0.0
N439 N 0.6654 0.5088 0.55351 0.0
C440 C 0.68052 0.55859 0.56124 0.0
C441 C 0.67656 0.60332 0.54976 0.0
C442 C 0.65192 0.52382 0.53754 0.0
N443 N 0.65868 0.58106 0.53494 0.0
C444 C 0.78386 0.45682 0.57841 0.0
C445 C 0.84541 0.47155 0.54882 0.0
C446 C 0.87332 0.47963 0.56426 0.0
C447 C 0.84207 0.47256 0.57921 0.0
C448 C 0.78738 0.4555 0.54864 0.0
N449 N 0.75781 0.44577 0.56327 0.0
H450 H 0.7593 0.45625 0.58996 0.0
H451 H 0.76543 0.45448 0.53678 0.0
H452 H 0.6968 0.56163 0.57401 0.0
H453 H 0.64093 0.49345 0.52765 0.0
O454 O 0.65289 0.45884 0.58472 0.0
O455 O 0.59338 0.42488 0.56514 0.0
O456 O 0.67644 0.4002 0.53863 0.0
C457 C 0.60035 0.44581 0.5802 0.0
H458 H 0.62544 0.22958 0.58134 0.0
H459 H 0.68915 0.64791 0.55179 0.0
H460 H 0.86794 0.47896 0.53703 0.0
H461 H 0.86212 0.48058 0.59135 0.0
Co462 Co 0.44059 0.30612 0.43976 0.0
C463 C 0.35229 0.31074 0.41259 0.0
C464 C 0.31292 0.28646 0.43596 0.0
C465 C 0.2708 0.2874 0.42359 0.0
N466 N 0.36416 0.30223 0.42915 0.0
N467 N 0.29608 0.30284 0.40901 0.0
H468 H 0.38402 0.32083 0.40304 0.0
H469 H 0.30602 0.27348 0.44883 0.0
C470 C 0.38093 0.28617 0.47444 0.0
O471 O 0.36787 0.23155 0.47195 0.0
N472 N 0.51696 0.30972 0.44985 0.0
C473 C 0.56549 0.28708 0.44306 0.0
C474 C 0.60997 0.29234 0.45449 0.0
C475 C 0.53251 0.3285 0.46536 0.0
N476 N 0.58894 0.31804 0.46843 0.0
C477 C 0.43079 0.19152 0.42639 0.0
C478 C 0.47524 0.13402 0.45413 0.0
C479 C 0.46128 0.10249 0.43962 0.0
C480 C 0.43835 0.13162 0.42568 0.0
C481 C 0.46666 0.19387 0.45434 0.0
N482 N 0.44402 0.22194 0.44066 0.0
H483 H 0.41618 0.21368 0.41519 0.0
H484 H 0.47939 0.21785 0.46539 0.0
H485 H 0.56771 0.26561 0.43095 0.0
H486 H 0.50313 0.34729 0.47447 0.0
O487 O 0.47642 0.31878 0.4178 0.0
O488 O 0.44438 0.38745 0.435 0.0
O489 O 0.40563 0.31636 0.46304 0.0
C490 C 0.46978 0.37386 0.42094 0.0
H491 H 0.2255 0.27692 0.42511 0.0
H492 H 0.65369 0.27639 0.45301 0.0
H493 H 0.49389 0.11273 0.46503 0.0
H494 H 0.42812 0.10845 0.41417 0.0
Co495 Co 0.31831 0.54686 0.56754 0.0
C496 C 0.30991 0.62952 0.59579 0.0
C497 C 0.33689 0.67239 0.57307 0.0
C498 C 0.33487 0.71264 0.58592 0.0
N499 N 0.32116 0.62031 0.57929 0.0
N500 N 0.31837 0.68528 0.60012 0.0
H501 H 0.29686 0.59611 0.60457 0.0
H502 H 0.35019 0.68074 0.56022 0.0
C503 C 0.30918 0.57683 0.53045 0.0
O504 O 0.26922 0.53735 0.52803 0.0
N505 N 0.3157 0.47173 0.55603 0.0
C506 C 0.28467 0.42481 0.56073 0.0
C507 C 0.29355 0.38072 0.54933 0.0
C508 C 0.34516 0.45404 0.54217 0.0
N509 N 0.33107 0.39953 0.53761 0.0
C510 C 0.20635 0.51928 0.58023 0.0
C511 C 0.14278 0.58035 0.55669 0.0
C512 C 0.1145 0.54258 0.56774 0.0
C513 C 0.14649 0.51385 0.5801 0.0
C514 C 0.20301 0.58505 0.55742 0.0
N515 N 0.23428 0.55085 0.56815 0.0
H516 H 0.23022 0.49579 0.58969 0.0
H517 H 0.22395 0.6156 0.54919 0.0
H518 H 0.25726 0.42198 0.57169 0.0
H519 H 0.37482 0.48071 0.53515 0.0
O520 O 0.33263 0.5062 0.58866 0.0
O521 O 0.3996 0.5376 0.5708 0.0
O522 O 0.32579 0.58947 0.54533 0.0
C523 C 0.38698 0.51133 0.58479 0.0
H524 H 0.34634 0.75797 0.58507 0.0
H525 H 0.27256 0.33884 0.54926 0.0
H526 H 0.11873 0.60477 0.54736 0.0
H527 H 0.12552 0.48557 0.58913 0.0
C528 C 0.18564 0.34187 0.2597 0.0
C529 C 0.1274 0.32989 0.26444 0.0
C530 C 0.09338 0.37176 0.23765 0.0
C531 C 0.15113 0.38188 0.23276 0.0
N532 N 0.25277 0.37051 0.23751 0.0
N533 N 0.0285 0.31757 0.25543 0.0
C534 C 0.19746 0.36477 0.24331 0.0
C535 C 0.08195 0.34058 0.25272 0.0
N536 N 0.22941 0.33374 0.27104 0.0
N537 N 0.04932 0.39256 0.2279 0.0
H538 H 0.02004 0.29032 0.26552 0.0
H539 H 0.9948 0.3196 0.24673 0.0
H540 H 0.05634 0.41331 0.21638 0.0
H541 H 0.00629 0.39298 0.23178 0.0
H542 H 0.27143 0.34848 0.26919 0.0
H543 H 0.22347 0.31448 0.28278 0.0
H544 H 0.28879 0.35354 0.24364 0.0
H545 H 0.26228 0.3893 0.22586 0.0
C546 C 0.3336 0.89041 0.77632 0.0
C547 C 0.36937 0.84113 0.77798 0.0
C548 C 0.35716 0.81879 0.74795 0.0
C549 C 0.31767 0.86569 0.74645 0.0
N550 N 0.26461 0.94422 0.75931 0.0
N551 N 0.40865 0.75323 0.76655 0.0
C552 C 0.30458 0.90086 0.76071 0.0
C553 C 0.37919 0.80382 0.76411 0.0
N554 N 0.32882 0.92776 0.78962 0.0
N555 N 0.37487 0.78939 0.7339 0.0
H556 H 0.42578 0.74135 0.77822 0.0
H557 H 0.41204 0.72083 0.75747 0.0
H558 H 0.35895 0.79779 0.72187 0.0
H559 H 0.40868 0.75961 0.7339 0.0
H560 H 0.30837 0.96782 0.78896 0.0
H561 H 0.34873 0.9199 0.80122 0.0
H562 H 0.2491 0.96803 0.7695 0.0
H563 H 0.24423 0.95456 0.74798 0.0
C564 C 0.90796 0.67341 0.23125 0.0
C565 C 0.85284 0.65257 0.22644 0.0
C566 C 0.81159 0.68848 0.253 0.0
C567 C 0.86621 0.71208 0.25738 0.0
N568 N 0.9626 0.73915 0.24889 0.0
N569 N 0.75021 0.64945 0.23085 0.0
C570 C 0.9132 0.70848 0.2459 0.0
C571 C 0.80398 0.66293 0.23679 0.0
N572 N 0.95576 0.65698 0.22232 0.0
N573 N 0.7675 0.68915 0.26447 0.0
H574 H 0.74363 0.63168 0.2189 0.0
H575 H 0.71209 0.66049 0.23706 0.0
H576 H 0.77092 0.70948 0.27617 0.0
H577 H 0.72886 0.66678 0.26281 0.0
H578 H 0.99785 0.66592 0.22618 0.0
H579 H 0.95363 0.62975 0.21185 0.0
H580 H 0.99647 0.74222 0.24028 0.0
H581 H 0.96731 0.76616 0.25932 0.0
C582 C 0.62613 0.18495 0.7598 0.0
C583 C 0.63117 0.1425 0.77259 0.0
C584 C 0.69882 0.0873 0.75506 0.0
C585 C 0.68886 0.12644 0.7415 0.0
N586 N 0.63923 0.21002 0.73033 0.0
N587 N 0.66526 0.05 0.78202 0.0
C588 C 0.65141 0.17465 0.7437 0.0
C589 C 0.66593 0.0929 0.77015 0.0
N590 N 0.59847 0.23582 0.76329 0.0
N591 N 0.73961 0.04482 0.75353 0.0
H592 H 0.64145 0.05328 0.79317 0.0
H593 H 0.68415 0.00953 0.78026 0.0
H594 H 0.76442 0.03909 0.7427 0.0
H595 H 0.75251 0.01838 0.76348 0.0
H596 H 0.59774 0.27109 0.75512 0.0
H597 H 0.58014 0.24455 0.77505 0.0
H598 H 0.60683 0.24132 0.73053 0.0
H599 H 0.65955 0.20604 0.71865 0.0
C600 C 0.09795 0.16342 0.01739 0.0
C601 C 0.15025 0.13215 0.01881 0.0
C602 C 0.17864 0.16248 0.99033 0.0
C603 C 0.12717 0.19584 0.98907 0.0
N604 N 0.04186 0.23558 1.00231 0.0
N605 N 0.24511 0.10981 0.00845 0.0
C606 C 0.08815 0.19885 0.00294 0.0
C607 C 0.19201 0.13401 0.00578 0.0
N608 N 0.05709 0.1576 0.02973 0.0
N609 N 0.21425 0.15721 0.97664 0.0
H610 H 0.25574 0.08853 0.01964 0.0
H611 H 0.27985 0.11437 1.00021 0.0
H612 H 0.20792 0.18026 0.96547 0.0
H613 H 0.24837 0.12788 0.97601 0.0
H614 H 0.01529 0.17398 0.02883 0.0
H615 H 0.06386 0.13237 0.04048 0.0
H616 H 0.01462 0.2436 0.0125 0.0
H617 H 0.03307 0.26189 0.99196 0.0
C618 C 0.18418 0.79549 0.98893 0.0
C619 C 0.15891 0.83911 0.97885 0.0
C620 C 0.19529 0.91346 0.99801 0.0
C621 C 0.21273 0.8698 0.00956 0.0
N622 N 0.22353 0.76791 0.01611 0.0
N623 N 0.13576 0.93915 0.97401 0.0
C624 C 0.20808 0.8103 0.00495 0.0
C625 C 0.16346 0.89803 0.98341 0.0
N626 N 0.18492 0.7399 0.98306 0.0
N627 N 0.21138 0.96955 1.00065 0.0
H628 H 0.11384 0.9295 0.96285 0.0
H629 H 0.13116 0.98204 0.97785 0.0
H630 H 0.23764 0.9816 0.0107 0.0
H631 H 0.20443 0.00266 0.99196 0.0
H632 H 0.2075 0.70636 0.98885 0.0
H633 H 0.16619 0.72835 0.97156 0.0
H634 H 0.21409 0.72428 0.01437 0.0
H635 H 0.24364 0.77615 0.0276 0.0
C636 C 0.94956 0.86391 0.00288 0.0
C637 C 0.91589 0.8216 0.99432 0.0
C638 C 0.84419 0.8267 0.01711 0.0
C639 C 0.88195 0.86297 0.0265 0.0
N640 N 0.97739 0.90207 0.03016 0.0
N641 N 0.83417 0.75668 0.99446 0.0
C642 C 0.93709 0.8767 0.01997 0.0
C643 C 0.8644 0.80059 1.0019 0.0
N644 N 0.99113 0.89452 0.99456 0.0
N645 N 0.78804 0.82021 0.02206 0.0
H646 H 0.84595 0.73863 0.98289 0.0
H647 H 0.79974 0.73574 1.00034 0.0
H648 H 0.77092 0.8408 0.03264 0.0
H649 H 0.7571 0.79901 0.01479 0.0
H650 H 0.01717 0.92537 1.00036 0.0
H651 H 0.99381 0.89538 0.98146 0.0
H652 H 0.02007 0.9089 0.02644 0.0
H653 H 0.96973 0.90998 0.04294 0.0
C654 C 0.81401 0.12547 0.00471 0.0
C655 C 0.84702 0.09382 0.01667 0.0
C656 C 0.92428 0.08259 0.99589 0.0
C657 C 0.89387 0.11818 0.98441 0.0
N658 N 0.81755 0.18791 0.98016 0.0
N659 N 0.9435 0.06256 0.02511 0.0
C660 C 0.84068 0.14374 0.98941 0.0
C661 C 0.90541 0.07908 0.01283 0.0
N662 N 0.7577 0.13911 0.00805 0.0
N663 N 0.9697 0.04979 0.99045 0.0
H664 H 0.93381 0.06186 0.0379 0.0
H665 H 0.98735 0.05599 0.02274 0.0
H666 H 0.9811 0.04639 0.97775 0.0
H667 H 0.99146 0.02081 0.99824 0.0
H668 H 0.72994 0.1564 0.99899 0.0
H669 H 0.73802 0.13043 0.01963 0.0
H670 H 0.7814 0.21137 0.98401 0.0
H671 H 0.83837 0.20563 0.96971 0.0
C672 C 0.57901 0.8978 0.76562 0.0
C673 C 0.59684 0.84032 0.76936 0.0
C674 C 0.64845 0.83787 0.74237 0.0
C675 C 0.61987 0.88956 0.73734 0.0
N676 N 0.5457 0.96021 0.74329 0.0
N677 N 0.64704 0.75372 0.76064 0.0
C678 C 0.58172 0.91727 0.74873 0.0
C679 C 0.63078 0.80949 0.75746 0.0
N680 N 0.56079 0.93464 0.77799 0.0
N681 N 0.69465 0.81788 0.73337 0.0
H682 H 0.63823 0.73289 0.77204 0.0
H683 H 0.6665 0.72742 0.75158 0.0
H684 H 0.71197 0.84034 0.72314 0.0
H685 H 0.71991 0.78301 0.73728 0.0
H686 H 0.5516 0.97813 0.77566 0.0
H687 H 0.56192 0.92435 0.79077 0.0
H688 H 0.51393 0.97843 0.75098 0.0
H689 H 0.54258 0.97223 0.73063 0.0
C690 C 0.79805 0.36904 0.25013 0.0
C691 C 0.82226 0.41477 0.24051 0.0
C692 C 0.88692 0.43782 0.26382 0.0
C693 C 0.86909 0.38755 0.27251 0.0
N694 N 0.81697 0.2969 0.2716 0.0
N695 N 0.90584 0.47677 0.23635 0.0
C696 C 0.82682 0.35072 0.26512 0.0
C697 C 0.87155 0.44454 0.24673 0.0
N698 N 0.74871 0.34224 0.24481 0.0
N699 N 0.91753 0.47989 0.27197 0.0
H700 H 0.90133 0.47693 0.2233 0.0
H701 H 0.94397 0.49607 0.24052 0.0
H702 H 0.92625 0.47804 0.28488 0.0
H703 H 0.92763 0.5194 0.26632 0.0
H704 H 0.72624 0.31258 0.25224 0.0
H705 H 0.72842 0.35244 0.23342 0.0
H706 H 0.79019 0.26664 0.26577 0.0
H707 H 0.84044 0.28003 0.28168 0.0
C708 C 0.39914 0.14772 0.73882 0.0
C709 C 0.34603 0.11891 0.73639 0.0
C710 C 0.31021 0.15569 0.76351 0.0
C711 C 0.36356 0.18522 0.76589 0.0
N712 N 0.45086 0.22316 0.75368 0.0
N713 N 0.24769 0.10144 0.74455 0.0
C714 C 0.40584 0.18514 0.7529 0.0
C715 C 0.30046 0.12487 0.74819 0.0
N716 N 0.44335 0.13847 0.72771 0.0
N717 N 0.26984 0.15523 0.77609 0.0
H718 H 0.24015 0.07708 0.73369 0.0
H719 H 0.21057 0.10891 0.75165 0.0
H720 H 0.27302 0.18092 0.78684 0.0
H721 H 0.23393 0.12811 0.77619 0.0
H722 H 0.48539 0.15314 0.72967 0.0
H723 H 0.4388 0.1122 0.71707 0.0
H724 H 0.48148 0.22812 0.74416 0.0
H725 H 0.45291 0.2551 0.76291 0.0
C726 C 0.10591 0.59676 0.24244 0.0
C727 C 0.15846 0.6228 0.23701 0.0
C728 C 0.15267 0.68858 0.26124 0.0
C729 C 0.1071 0.65464 0.2681 0.0
N730 N 0.05347 0.56524 0.26701 0.0
N731 N 0.2349 0.69156 0.24223 0.0
C732 C 0.08767 0.60531 0.25923 0.0
C733 C 0.18321 0.66779 0.24683 0.0
N734 N 0.07184 0.5656 0.2317 0.0
N735 N 0.16431 0.74209 0.26769 0.0
H736 H 0.25664 0.67981 0.23121 0.0
H737 H 0.25753 0.72035 0.24991 0.0
H738 H 0.13981 0.76074 0.2773 0.0
H739 H 0.19384 0.77051 0.26222 0.0
H740 H 0.03132 0.55008 0.23524 0.0
H741 H 0.07991 0.56136 0.21885 0.0
H742 H 0.04208 0.5262 0.26127 0.0
H743 H 0.04292 0.5677 0.27979 0.0
C744 C 0.70335 0.59644 0.50713 0.0
C745 C 0.65907 0.60956 0.51881 0.0
C746 C 0.61484 0.67545 0.49838 0.0
C747 C 0.65394 0.65538 0.48584 0.0
N748 N 0.73076 0.58952 0.4778 0.0
N749 N 0.56973 0.65708 0.52553 0.0
C750 C 0.69744 0.61432 0.49009 0.0
C751 C 0.6141 0.64818 0.51447 0.0
N752 N 0.75152 0.56757 0.51247 0.0
N753 N 0.5797 0.72162 0.49505 0.0
H754 H 0.56864 0.63785 0.53744 0.0
H755 H 0.53224 0.67968 0.52242 0.0
H756 H 0.58061 0.74371 0.48356 0.0
H757 H 0.55376 0.74132 0.50413 0.0
H758 H 0.78789 0.56126 0.50493 0.0
H759 H 0.75736 0.55519 0.52501 0.0
H760 H 0.75833 0.5547 0.48005 0.0
H761 H 0.72745 0.59996 0.46507 0.0
C762 C 0.61954 0.28148 0.49631 0.0
C763 C 0.61953 0.32608 0.48405 0.0
C764 C 0.68833 0.38156 0.50095 0.0
C765 C 0.6825 0.341 0.5143 0.0
N766 N 0.64233 0.25164 0.52489 0.0
N767 N 0.64893 0.42052 0.47492 0.0
C768 C 0.6485 0.29032 0.51198 0.0
C769 C 0.65253 0.37676 0.48646 0.0
N770 N 0.59255 0.23034 0.49276 0.0
N771 N 0.73055 0.42265 0.50177 0.0
H772 H 0.62384 0.41726 0.46401 0.0
H773 H 0.66704 0.4613 0.47677 0.0
H774 H 0.76152 0.42232 0.51128 0.0
H775 H 0.73977 0.45142 0.49202 0.0
H776 H 0.59556 0.19357 0.50029 0.0
H777 H 0.56989 0.22349 0.48156 0.0
H778 H 0.61198 0.2184 0.52492 0.0
H779 H 0.66656 0.25376 0.53594 0.0
C780 C 0.30719 0.3801 0.50778 0.0
C781 C 0.34404 0.37136 0.52181 0.0
C782 C 0.40231 0.30278 0.50532 0.0
C783 C 0.36742 0.3144 0.49089 0.0
N784 N 0.29331 0.37238 0.4776 0.0
N785 N 0.42973 0.33065 0.53392 0.0
C786 C 0.32184 0.35557 0.49189 0.0
C787 C 0.39258 0.3344 0.52055 0.0
N788 N 0.25707 0.4106 0.50984 0.0
N789 N 0.44458 0.2615 0.50444 0.0
H790 H 0.42243 0.35261 0.54524 0.0
H791 H 0.46926 0.30919 0.53352 0.0
H792 H 0.45406 0.23888 0.49341 0.0
H793 H 0.4682 0.24712 0.5148 0.0
H794 H 0.22494 0.41331 0.50067 0.0
H795 H 0.24526 0.42927 0.52131 0.0
H796 H 0.26452 0.40702 0.47721 0.0
H797 H 0.30175 0.35489 0.46576 0.0
C798 C 0.30879 0.62971 0.50263 0.0
C799 C 0.34027 0.60129 0.51561 0.0
C800 C 0.42389 0.59263 0.49682 0.0
C801 C 0.39376 0.62352 0.48416 0.0
N802 N 0.31288 0.6825 0.4761 0.0
N803 N 0.43477 0.57383 0.52651 0.0
C804 C 0.33765 0.64543 0.48741 0.0
C805 C 0.40012 0.58898 0.51326 0.0
N806 N 0.25144 0.64164 0.50485 0.0
N807 N 0.47335 0.56315 0.49289 0.0
H808 H 0.42077 0.57133 0.53893 0.0
H809 H 0.47948 0.5697 0.52541 0.0
H810 H 0.4902 0.56118 0.48071 0.0
H811 H 0.49383 0.53501 0.50126 0.0
H812 H 0.22452 0.65594 0.49517 0.0
H813 H 0.23015 0.63498 0.5163 0.0
H814 H 0.27417 0.70422 0.47832 0.0
H815 H 0.33395 0.69555 0.46509 0.0
C816 C 0.04639 0.04147 0.31802 0.0
C817 C 0.00097 0.08264 0.31743 0.0
C818 C 0.92978 0.00549 0.31376 0.0
C819 C 0.97477 0.96417 0.31539 0.0
N820 N 0.0737 0.94135 0.32241 0.0
N821 N 0.89902 0.10453 0.31826 0.0
C822 C 0.03252 0.98172 0.31853 0.0
C823 C 0.94243 0.06483 0.31638 0.0
N824 N 0.10269 0.0594 0.31743 0.0
N825 N 0.87554 0.98823 0.30909 0.0
H826 H 0.90676 0.14848 0.32028 0.0
H827 H 0.85559 0.09331 0.31935 0.0
H828 H 0.86452 0.945 0.30707 0.0
H829 H 0.84267 0.017 0.30588 0.0
H830 H 0.13745 0.03123 0.31587 0.0
H831 H 0.11464 0.10292 0.3172 0.0
H832 H 0.11507 0.95198 0.32655 0.0
H833 H 0.06506 0.89706 0.32292 0.0
C834 C 0.01424 0.92589 0.69314 0.0
C835 C 0.0539 0.97265 0.69249 0.0
C836 C 0.9738 0.04186 0.69164 0.0
C837 C 0.93433 0.99496 0.69078 0.0
N838 N 0.91667 0.89261 0.6877 0.0
N839 N 0.07251 0.07425 0.6879 0.0
C840 C 0.95446 0.93695 0.69066 0.0
C841 C 0.034 0.03046 0.69081 0.0
N842 N 0.03349 0.87124 0.69668 0.0
N843 N 0.95385 0.09708 0.69385 0.0
H844 H 0.11704 0.06761 0.68712 0.0
H845 H 0.06004 0.11622 0.68476 0.0
H846 H 0.90999 0.1073 0.69458 0.0
H847 H 0.98076 0.13211 0.69644 0.0
H848 H 0.00599 0.83656 0.69911 0.0
H849 H 0.07701 0.86146 0.69862 0.0
H850 H 0.92968 0.85 0.68569 0.0
H851 H 0.87253 0.89914 0.68575 0.0
C852 C 0.93888 0.52378 0.92252 0.0
C853 C 0.94278 0.55362 0.93821 0.0
C854 C 0.92976 0.46166 0.95282 0.0
C855 C 0.94483 0.43164 0.93788 0.0
N856 N 0.9197 0.43218 0.90849 0.0
N857 N 0.94345 0.54889 0.96881 0.0
C858 C 0.93678 0.46205 0.92249 0.0
C859 C 0.93832 0.52208 0.95353 0.0
N860 N 0.93764 0.55417 0.90773 0.0
N861 N 0.89724 0.43526 0.96489 0.0
H862 H 0.95188 0.593 0.97011 0.0
H863 H 0.94436 0.52565 0.98011 0.0
H864 H 0.87849 0.39479 0.96275 0.0
H865 H 0.88143 0.45718 0.97545 0.0
H866 H 0.94221 0.53491 0.89592 0.0
H867 H 0.93412 0.59915 0.90729 0.0
H868 H 0.90815 0.45163 0.89713 0.0
H869 H 0.91046 0.38796 0.90904 0.0
C870 C 0.54987 0.97833 0.05495 0.0
C871 C 0.56931 0.0237 0.06559 0.0
C872 C 0.46937 0.04902 0.0725 0.0
C873 C 0.45045 -0.0003 0.06337 0.0
N874 N 0.47213 0.91264 0.04776 0.0
N875 N 0.54937 0.09832 0.08607 0.0
C876 C 0.49053 0.96306 0.05505 0.0
C877 C 0.52956 0.0582 0.07478 0.0
N878 N 0.58802 0.95079 0.04447 0.0
N879 N 0.42982 0.08777 0.07859 0.0
H880 H 0.59323 0.10682 0.08788 0.0
H881 H 0.52272 0.12021 0.09452 0.0
H882 H 0.38531 0.08228 0.07721 0.0
H883 H 0.44104 0.12761 0.08379 0.0
H884 H 0.57543 0.92166 0.03514 0.0
H885 H 0.63198 0.96081 0.04406 0.0
H886 H 0.50012 0.88102 0.04318 0.0
H887 H 0.42885 0.89998 0.04752 0.0
C888 C 0.47374 0.47748 0.81166 0.0
C889 C 0.51534 0.43575 0.81666 0.0
C890 C 0.58282 0.51296 0.82455 0.0
C891 C 0.54244 0.55441 0.81861 0.0
N892 N 0.45527 0.57646 0.80316 0.0
N893 N 0.61319 0.41245 0.82471 0.0
C894 C 0.48964 0.53671 0.81112 0.0
C895 C 0.5711 0.4531 0.82218 0.0
N896 N 0.41833 0.46079 0.8081 0.0
N897 N 0.63127 0.53075 0.83295 0.0
H898 H 0.60614 0.36821 0.82303 0.0
H899 H 0.65627 0.42274 0.82705 0.0
H900 H 0.64159 0.57429 0.8347 0.0
H901 H 0.65903 0.50256 0.83924 0.0
H902 H 0.38457 0.48994 0.80625 0.0
H903 H 0.40476 0.41775 0.80842 0.0
H904 H 0.41934 0.56524 0.79595 0.0
H905 H 0.46561 0.62035 0.80243 0.0
C906 C 0.52055 0.50885 0.20636 0.0
C907 C 0.55854 0.53769 0.19509 0.0
C908 C 0.47652 0.58925 0.18284 0.0
C909 C 0.4382 0.55069 0.19113 0.0
N910 N 0.42296 0.47708 0.21239 0.0
N911 N 0.56841 0.6365 0.18582 0.0
C912 C 0.45992 0.5116 0.20347 0.0
C913 C 0.53605 0.58737 0.18689 0.0
N914 N 0.54177 0.48677 0.22109 0.0
N915 N 0.45677 0.62698 0.1709 0.0
H916 H 0.60807 0.64005 0.19204 0.0
H917 H 0.55207 0.67551 0.1812 0.0
H918 H 0.41344 0.62943 0.16732 0.0
H919 H 0.48467 0.65227 0.16364 0.0
H920 H 0.51581 0.46982 0.23062 0.0
H921 H 0.58481 0.49294 0.22463 0.0
H922 H 0.43708 0.44306 0.21999 0.0
H923 H 0.3781 0.48057 0.21158 0.0
C924 C 0.4544 0.9402 0.44804 0.0
C925 C 0.49888 0.91998 0.43718 0.0
C926 C 0.52121 0.01967 0.42888 0.0
C927 C 0.47376 0.0395 0.43867 0.0
N928 N 0.38903 0.01849 0.4553 0.0
N929 N 0.56743 0.93861 0.4149 0.0
C930 C 0.4385 -0.00033 0.44761 0.0
C931 C 0.53019 0.95923 0.42689 0.0
N932 N 0.42884 0.90304 0.45921 0.0
N933 N 0.559 0.05861 0.42201 0.0
H934 H 0.57496 0.89454 0.41303 0.0
H935 H 0.58685 0.96476 0.40582 0.0
H936 H 0.55417 0.10331 0.42325 0.0
H937 H 0.59784 0.04669 0.41634 0.0
H938 H 0.40081 0.91648 0.46872 0.0
H939 H 0.43918 0.85914 0.45989 0.0
H940 H 0.3583 0.9907 0.46045 0.0
H941 H 0.37617 0.06179 0.45529 0.0
C942 C 0.00958 0.56901 0.57104 0.0
C943 C 0.05234 0.52896 0.56574 0.0
C944 C 0.97804 0.45575 0.56048 0.0
C945 C 0.93493 0.49694 0.56468 0.0
N946 N 0.90819 0.59572 0.57079 0.0
N947 N 0.07717 0.43909 0.55197 0.0
C948 C 0.95025 0.55455 0.56904 0.0
C949 C 0.03649 0.47374 0.5594 0.0
N950 N 0.02563 0.61985 0.57851 0.0
N951 N 0.96338 0.39897 0.55812 0.0
H952 H 0.12048 0.45104 0.55077 0.0
H953 H 0.0671 0.40102 0.54558 0.0
H954 H 0.92093 0.38394 0.55885 0.0
H955 H 0.99371 0.36589 0.5569 0.0
H956 H 0.99651 0.64786 0.58434 0.0
H957 H 0.06871 0.6321 0.58003 0.0
H958 H 0.91699 0.63966 0.57221 0.0
H959 H 0.86426 0.58672 0.56938 0.0
C960 C 0.02312 0.57423 0.34368 0.0
C961 C 0.96438 0.58149 0.33914 0.0
C962 C 0.94754 0.47853 0.34404 0.0
C963 C 0.00771 0.46979 0.34248 0.0
N964 N 0.10396 0.50703 0.34477 0.0
N965 N 0.86835 0.54552 0.338 0.0
C966 C 0.04592 0.51721 0.34405 0.0
C967 C 0.92546 0.53483 0.34078 0.0
N968 N 0.05674 0.62118 0.3472 0.0
N969 N 0.91252 0.43315 0.34807 0.0
H970 H 0.83629 0.51386 0.33764 0.0
H971 H 0.83629 0.51386 0.33764 0.0
H972 H 0.92939 0.39268 0.35118 0.0
H973 H 0.86833 0.43703 0.35025 0.0
H974 H 0.09947 0.61822 0.35122 0.0
H975 H 0.03973 0.66281 0.34802 0.0
H976 H 0.13527 0.53927 0.34398 0.0
H977 H 0.12018 0.46498 0.34572 0.0
C978 C 0.44304 0.0373 0.66226 0.0
C979 C 0.43615 0.97703 0.66488 0.0
C980 C 0.5389 0.96316 0.65892 0.0
C981 C 0.54759 0.02211 0.66274 0.0
N982 N 0.51128 0.11794 0.66435 0.0
N983 N 0.47579 0.88079 0.6628 0.0
C984 C 0.50005 0.06036 0.66269 0.0
C985 C 0.48342 0.93923 0.66186 0.0
N986 N 0.39575 0.0717 0.65997 0.0
N987 N 0.58326 0.9305 0.65279 0.0
H988 H 0.43504 0.86238 0.66425 0.0
H989 H 0.50979 0.85121 0.66276 0.0
H990 H 0.62298 0.94876 0.64957 0.0
H991 H 0.57839 0.88764 0.64896 0.0
H992 H 0.39804 0.1156 0.65711 0.0
H993 H 0.35424 0.05467 0.65892 0.0
H994 H 0.4798 0.14986 0.6658 0.0
H995 H 0.4798 0.14986 0.6658 0.0
C996 C 0.07875 0.01315 0.90885 0.0
C997 C 0.03566 0.05647 0.90935 0.0
C998 C 0.96067 0.98343 0.90753 0.0
C999 C 0.00317 0.9403 0.91023 0.0
N1000 N 0.1 0.91106 0.90395 0.0
N1001 N 0.94069 0.08305 0.8997 0.0
C1002 C 0.06181 0.95411 0.90758 0.0
C1003 C 0.97811 0.04177 0.90534 0.0
N1004 N 0.13481 0.02986 0.9107 0.0
N1005 N 0.9038 0.96877 0.90806 0.0
H1006 H 0.95427 0.12506 0.897 0.0
H1007 H 0.89869 0.07392 0.89578 0.0
H1008 H 0.89102 0.9256 0.90858 0.0
H1009 H 0.87052 0.99912 0.90844 0.0
H1010 H 0.16954 0.0013 0.91173 0.0
H1011 H 0.16954 0.0013 0.91173 0.0
H1012 H 0.14335 0.91818 0.90109 0.0
H1013 H 0.08549 0.86907 0.90162 0.0
C1014 C 0.96755 0.93753 0.09591 0.0
C1015 C 0.95238 0.99581 0.09817 0.0
C1016 C 0.05309 0.0255 0.09632 0.0
C1017 C 0.06561 0.97015 0.08933 0.0
N1018 N 0.04164 0.87088 0.08556 0.0
N1019 N 0.97939 0.08775 0.10891 0.0
C1020 C 0.02484 0.92464 0.09062 0.0
C1021 C 0.99549 0.03693 0.10157 0.0
N1022 N 0.92611 0.89628 0.09806 0.0
N1023 N 0.094 0.06809 0.09652 0.0
H1024 H 0.93638 0.09458 0.11244 0.0
H1025 H 0.00811 0.11993 0.11266 0.0
H1026 H 0.13695 0.06109 0.09326 0.0
H1027 H 0.08539 0.1109 0.09973 0.0
H1028 H 0.93318 0.85196 0.09708 0.0
H1029 H 0.88481 0.90754 0.10227 0.0
H1030 H 0.01459 0.8349 0.08497 0.0
H1031 H 0.01459 0.8349 0.08497 0.0
C1032 C 0.51501 0.03527 0.85249 0.0
C1033 C 0.46285 0.05005 0.84408 0.0
C1034 C 0.43018 0.9495 0.84551 0.0
C1035 C 0.48698 0.93413 0.84998 0.0
N1036 N 0.5713 0.95828 0.86562 0.0
N1037 N 0.3644 0.02865 0.83819 0.0
C1038 C 0.52491 0.97613 0.85642 0.0
C1039 C 0.4176 0.00901 0.84284 0.0
N1040 N 0.55662 0.07594 0.85538 0.0
N1041 N 0.39118 0.90656 0.84234 0.0
H1042 H 0.32755 0.00304 0.83708 0.0
H1043 H 0.32755 0.00304 0.83708 0.0
H1044 H 0.40112 0.86335 0.84492 0.0
H1045 H 0.35008 0.91292 0.83737 0.0
H1046 H 0.59826 0.06587 0.85941 0.0
H1047 H 0.54988 0.12002 0.8536 0.0
H1048 H 0.5987 0.98652 0.872 0.0
H1049 H 0.57816 0.91433 0.86805 0.0
C1050 C 0.95076 0.53369 0.15146 0.0
C1051 C 0.93598 0.47647 0.15556 0.0
C1052 C 0.03852 0.45045 0.15505 0.0
C1053 C 0.05147 0.50963 0.15749 0.0
N1054 N 0.02192 0.60854 0.15697 0.0
N1055 N 0.96352 0.37675 0.15646 0.0
C1056 C 0.00813 0.55183 0.15471 0.0
C1057 C 0.97946 0.43335 0.15531 0.0
N1058 N 0.91001 0.57012 0.14507 0.0
N1059 N 0.08218 0.41132 0.15325 0.0
H1060 H 0.92001 0.36502 0.15598 0.0
H1061 H 0.9924 0.34264 0.15809 0.0
H1062 H 0.12519 0.42437 0.15236 0.0
H1063 H 0.07554 0.36749 0.15092 0.0
H1064 H 0.91946 0.61176 0.14084 0.0
H1065 H 0.86829 0.55559 0.14237 0.0
H1066 H 0.99194 0.64228 0.15669 0.0
H1067 H 0.99194 0.64228 0.15669 0.0
C1068 C 0.5772 0.48469 0.4107 0.0
C1069 C 0.53914 0.53215 0.40921 0.0
C1070 C 0.45763 0.46768 0.40564 0.0
C1071 C 0.49382 0.42052 0.41021 0.0
N1072 N 0.58956 0.38002 0.40904 0.0
N1073 N 0.45301 0.5669 0.39563 0.0
C1074 C 0.55459 0.42749 0.40973 0.0
C1075 C 0.48264 0.52298 0.40319 0.0
N1076 N 0.63356 0.49624 0.41434 0.0
N1077 N 0.39929 0.46038 0.40474 0.0
H1078 H 0.47244 0.60662 0.39302 0.0
H1079 H 0.41233 0.5615 0.39021 0.0
H1080 H 0.3803 0.41986 0.40593 0.0
H1081 H 0.37019 0.49457 0.4035 0.0
H1082 H 0.66466 0.46489 0.41701 0.0
H1083 H 0.66466 0.46489 0.41701 0.0
H1084 H 0.63429 0.38208 0.40781 0.0
H1085 H 0.57284 0.33839 0.40773 0.0
C1086 C 0.44691 0.42664 0.59151 0.0
C1087 C 0.43377 0.48517 0.5947 0.0
C1088 C 0.53569 0.50897 0.59806 0.0
C1089 C 0.54893 0.45407 0.59102 0.0
N1090 N 0.52374 0.3555 0.58686 0.0
N1091 N 0.45991 0.57347 0.60823 0.0
C1092 C 0.506 0.41064 0.59008 0.0
C1093 C 0.47667 0.52318 0.60069 0.0
N1094 N 0.4029 0.3888 0.58837 0.0
N1095 N 0.57832 0.54861 0.6009 0.0
H1096 H 0.41616 0.58285 0.61005 0.0
H1097 H 0.48832 0.60243 0.61392 0.0
H1098 H 0.62206 0.5384 0.60027 0.0
H1099 H 0.57049 0.59176 0.60391 0.0
H1100 H 0.40829 0.34659 0.5841 0.0
H1101 H 0.3598 0.40062 0.59019 0.0
H1102 H 0.49666 0.31956 0.58618 0.0
H1103 H 0.49666 0.31956 0.58618 0.0
C1104 C 0.25537 0.36663 0.3871 0.0
C1105 C 0.26943 0.31021 0.39273 0.0
C1106 C 0.23498 0.26938 0.366 0.0
C1107 C 0.22407 0.32615 0.36 0.0
N1108 N 0.23026 0.42917 0.36356 0.0
N1109 N 0.27978 0.20852 0.38738 0.0
C1110 C 0.23627 0.37498 0.3702 0.0
C1111 C 0.26108 0.26163 0.38212 0.0
N1112 N 0.2589 0.41179 0.39819 0.0
N1113 N 0.21955 0.22312 0.35625 0.0
H1114 H 0.29833 0.20194 0.39924 0.0
H1115 H 0.28025 0.17186 0.37975 0.0
H1116 H 0.20271 0.22788 0.34411 0.0
H1117 H 0.22062 0.18042 0.36042 0.0
H1118 H 0.24466 0.45353 0.39552 0.0
H1119 H 0.27247 0.40637 0.41065 0.0
H1120 H 0.24307 0.46684 0.36971 0.0
H1121 H 0.2163 0.43615 0.35122 0.0
C1122 C 0.36273 0.73853 0.64314 0.0
C1123 C 0.30873 0.75693 0.64956 0.0
C1124 C 0.2605 0.72427 0.6237 0.0
C1125 C 0.31508 0.70953 0.61683 0.0
N1126 N 0.41876 0.70776 0.61883 0.0
N1127 N 0.20723 0.77436 0.64578 0.0
C1128 C 0.36647 0.71815 0.62624 0.0
C1129 C 0.25769 0.7514 0.63982 0.0
N1130 N 0.40999 0.73942 0.65348 0.0
N1131 N 0.21159 0.7122 0.61471 0.0
H1132 H 0.20426 0.7944 0.65755 0.0
H1133 H 0.16933 0.77701 0.63875 0.0
H1134 H 0.21286 0.69484 0.60255 0.0
H1135 H 0.16996 0.71636 0.61953 0.0
H1136 H 0.44999 0.72202 0.65025 0.0
H1137 H 0.40788 0.75397 0.66594 0.0
H1138 H 0.45824 0.71846 0.6243 0.0
H1139 H 0.42266 0.69138 0.60663 0.0
C1140 C 0.76018 0.75546 0.3664 0.0
C1141 C 0.74941 0.71162 0.35428 0.0
C1142 C 0.69269 0.65698 0.37491 0.0
C1143 C 0.70833 0.69784 0.38746 0.0
N1144 N 0.75684 0.78471 0.39592 0.0
N1145 N 0.70902 0.6198 0.3466 0.0
C1146 C 0.74159 0.7472 0.38336 0.0
C1147 C 0.71613 0.66231 0.3584 0.0
N1148 N 0.78848 0.8046 0.36154 0.0
N1149 N 0.65493 0.6136 0.37888 0.0
H1150 H 0.72457 0.62378 0.33428 0.0
H1151 H 0.69055 0.57966 0.34913 0.0
H1152 H 0.63747 0.60871 0.39092 0.0
H1153 H 0.63761 0.58501 0.37008 0.0
H1154 H 0.79443 0.84051 0.36927 0.0
H1155 H 0.80338 0.81084 0.34925 0.0
H1156 H 0.78528 0.81915 0.39435 0.0
H1157 H 0.74256 0.77968 0.40833 0.0
C1158 C 0.65605 0.26049 0.63838 0.0
C1159 C 0.69993 0.21999 0.64225 0.0
C1160 C 0.73475 0.22336 0.61301 0.0
C1161 C 0.69244 0.26577 0.60933 0.0
N1162 N 0.61794 0.3311 0.61864 0.0
N1163 N 0.78507 0.16706 0.63443 0.0
C1164 C 0.65458 0.28629 0.6221 0.0
C1165 C 0.74052 0.20258 0.62986 0.0
N1166 N 0.6147 0.27247 0.6502 0.0
N1167 N 0.76863 0.20271 0.60024 0.0
H1168 H 0.78986 0.15149 0.64672 0.0
H1169 H 0.81916 0.15594 0.6265 0.0
H1170 H 0.76598 0.21873 0.58794 0.0
H1171 H 0.79704 0.16806 0.60151 0.0
H1172 H 0.57784 0.29694 0.64777 0.0
H1173 H 0.61538 0.25448 0.66228 0.0
H1174 H 0.59311 0.35216 0.62771 0.0
H1175 H 0.61533 0.35007 0.60676 0.0
C1176 C 0.21186 0.25727 0.87813 0.0
C1177 C 0.2243 0.21714 0.89114 0.0
C1178 C 0.29172 0.16561 0.8726 0.0
C1179 C 0.27672 0.20364 0.85924 0.0
N1180 N 0.22156 0.28331 0.84845 0.0
N1181 N 0.27035 0.13024 0.90083 0.0
C1182 C 0.23648 0.24899 0.8618 0.0
C1183 C 0.26292 0.17058 0.8884 0.0
N1184 N 0.17683 0.3034 0.88159 0.0
N1185 N 0.33418 0.12537 0.87016 0.0
H1186 H 0.25068 0.13383 0.91264 0.0
H1187 H 0.293 0.09171 0.89923 0.0
H1188 H 0.35496 0.12 0.85861 0.0
H1189 H 0.3515 0.0998 0.87972 0.0
H1190 H 0.16876 0.33711 0.87322 0.0
H1191 H 0.15779 0.30943 0.89341 0.0
H1192 H 0.18914 0.3145 0.84883 0.0
H1193 H 0.24042 0.27869 0.83656 0.0
C1194 C 0.14357 0.70197 0.12306 0.0
C1195 C 0.18672 0.7122 0.13533 0.0
C1196 C 0.24199 0.7686 0.11469 0.0
C1197 C 0.19504 0.76471 0.1032 0.0
N1198 N 0.09655 0.73599 0.0977 0.0
N1199 N 0.27543 0.75757 0.14364 0.0
C1200 C 0.14462 0.73331 0.10767 0.0
C1201 C 0.23571 0.74612 0.13135 0.0
N1202 N 0.10225 0.6612 0.12606 0.0
N1203 N 0.29298 0.79225 0.10943 0.0
H1204 H 0.2722 0.74007 0.15576 0.0
H1205 H 0.30932 0.78677 0.14217 0.0
H1206 H 0.299 0.80754 0.09716 0.0
H1207 H 0.33054 0.7922 0.11666 0.0
H1208 H 0.07223 0.64791 0.11706 0.0
H1209 H 0.10251 0.63616 0.13698 0.0
H1210 H 0.05668 0.71897 0.10126 0.0
H1211 H 0.0948 0.76012 0.08662 0.0
C1212 C 0.76296 0.77303 0.89253 0.0
C1213 C 0.77463 0.8267 0.90049 0.0
C1214 C 0.72786 0.8785 0.87712 0.0
C1215 C 0.71983 0.8251 0.86867 0.0
N1216 N 0.73242 0.72224 0.86712 0.0
N1217 N 0.77059 0.93091 0.90051 0.0
C1218 C 0.73788 0.77242 0.87611 0.0
C1219 C 0.75727 0.87961 0.89288 0.0
N1220 N 0.77464 0.72287 0.90101 0.0
N1221 N 0.70629 0.92798 0.87005 0.0
H1222 H 0.78943 0.93349 0.9124 0.0
H1223 H 0.76564 0.97129 0.8949 0.0
H1224 H 0.68555 0.92846 0.85837 0.0
H1225 H 0.7056 0.96807 0.87601 0.0
H1226 H 0.76335 0.6819 0.89668 0.0
H1227 H 0.79219 0.72261 0.91315 0.0
H1228 H 0.74915 0.68258 0.87098 0.0
H1229 H 0.71377 0.72106 0.85513 0.0
C1230 C 0.85958 0.22589 0.12543 0.0
C1231 C 0.81096 0.2163 0.11496 0.0
C1232 C 0.74855 0.26553 0.13547 0.0
C1233 C 0.79681 0.27257 0.14627 0.0
N1234 N 0.89567 0.25064 0.15322 0.0
N1235 N 0.70867 0.22071 0.11019 0.0
C1236 C 0.85158 0.24991 0.14176 0.0
C1237 C 0.7551 0.23417 0.12009 0.0
N1238 N 0.91363 0.21382 0.11946 0.0
N1239 N 0.69692 0.28982 0.13992 0.0
H1240 H 0.71303 0.19928 0.09866 0.0
H1241 H 0.66591 0.22778 0.11372 0.0
H1242 H 0.69097 0.31108 0.15142 0.0
H1243 H 0.66094 0.29131 0.13205 0.0
H1244 H 0.95153 0.22542 0.12568 0.0
H1245 H 0.92072 0.19605 0.10754 0.0
H1246 H 0.93489 0.2294 0.1514 0.0
H1247 H 0.89164 0.26912 0.16516 0.0
loop_
_geom_bond_atom_site_label_1
_geom_bond_atom_site_label_2
_geom_bond_distance
_geom_bond_site_symmetry_2
_ccdc_geom_bond_type
Co0 N4 2.148 . S
Co0 N10 2.128 1_455 S
Co0 N20 2.194 . S
Co0 O25 2.351 1_455 S
Co0 O26 2.155 . S
Co0 O27 2.096 . S
C1 N4 1.301 . S
C1 N5 1.328 . S
C1 H6 0.930 . S
C2 C3 1.333 . S
C2 N4 1.317 . S
C2 H7 0.930 . S
C3 C2 1.333 . S
C3 N5 1.350 . S
C3 H29 0.931 . S
N4 Co0 2.148 . S
N4 C1 1.301 . S
N4 C2 1.317 . S
N5 C1 1.328 . S
N5 C3 1.350 . S
H6 C1 0.930 . S
H7 C2 0.930 . S
C8 O9 1.224 . S
C8 O27 1.247 . S
O9 C8 1.224 . S
N10 Co0 2.128 1_655 S
N10 C11 1.355 . S
N10 C13 1.311 . S
C11 N10 1.355 . S
C11 C12 1.363 . S
C11 H23 0.929 . S
C12 C11 1.363 . S
C12 N14 1.375 . S
C12 H30 0.931 . S
C13 N10 1.311 . S
C13 N14 1.347 . S
C13 H24 0.929 . S
N14 C12 1.375 . S
N14 C13 1.347 . S
C15 C18 1.365 . S
C15 N20 1.328 1_655 S
C15 H21 0.929 . S
C16 C17 1.362 1_455 S
C16 C19 1.378 . S
C16 H31 0.929 . S
C17 C16 1.362 1_655 S
C17 C18 1.366 . S
C18 C15 1.365 . S
C18 C17 1.366 . S
C18 H32 0.930 . S
C19 C16 1.378 . S
C19 N20 1.315 . S
C19 H22 0.930 . S
N20 Co0 2.194 . S
N20 C15 1.328 1_455 S
N20 C19 1.315 . S
H21 C15 0.929 . S
H22 C19 0.930 . S
H23 C11 0.929 . S
H24 C13 0.929 . S
O25 Co0 2.351 1_655 S
O25 C28 1.244 . S
O26 Co0 2.155 . S
O26 C28 1.240 1_455 S
O27 Co0 2.096 . S
O27 C8 1.247 . S
C28 O25 1.244 . S
C28 O26 1.240 1_655 S
H29 C3 0.931 . S
H30 C12 0.931 . S
H31 C16 0.929 . S
H32 C18 0.930 . S
Co33 N37 2.148 . S
Co33 N43 2.128 1_565 S
Co33 N53 2.194 . S
Co33 O58 2.351 1_565 S
Co33 O59 2.155 . S
Co33 O60 2.096 . S
C34 N37 1.301 . S
C34 N38 1.328 . S
C34 H39 0.930 . S
C35 C36 1.333 . S
C35 N37 1.317 . S
C35 H40 0.930 . S
C36 C35 1.333 . S
C36 N38 1.350 . S
C36 H62 0.931 . S
N37 Co33 2.148 . S
N37 C34 1.301 . S
N37 C35 1.317 . S
N38 C34 1.328 . S
N38 C36 1.350 . S
H39 C34 0.930 . S
H40 C35 0.930 . S
C41 O42 1.224 . S
C41 O60 1.247 . S
O42 C41 1.224 . S
N43 Co33 2.128 1_545 S
N43 C44 1.355 . S
N43 C46 1.311 . S
C44 N43 1.355 . S
C44 C45 1.363 . S
C44 H56 0.929 . S
C45 C44 1.363 . S
C45 N47 1.375 . S
C45 H63 0.931 . S
C46 N43 1.311 . S
C46 N47 1.347 . S
C46 H57 0.929 . S
N47 C45 1.375 . S
N47 C46 1.347 . S
C48 C51 1.365 . S
C48 N53 1.328 1_545 S
C48 H54 0.929 . S
C49 C50 1.362 1_565 S
C49 C52 1.378 . S
C49 H64 0.929 . S
C50 C49 1.362 1_545 S
C50 C51 1.366 . S
C51 C48 1.365 . S
C51 C50 1.366 . S
C51 H65 0.930 . S
C52 C49 1.378 . S
C52 N53 1.315 . S
C52 H55 0.930 . S
N53 Co33 2.194 . S
N53 C48 1.328 1_565 S
N53 C52 1.315 . S
H54 C48 0.929 . S
H55 C52 0.930 . S
H56 C44 0.929 . S
H57 C46 0.929 . S
O58 Co33 2.351 1_545 S
O58 C61 1.244 . S
O59 Co33 2.155 . S
O59 C61 1.240 1_565 S
O60 Co33 2.096 . S
O60 C41 1.247 . S
C61 O58 1.244 . S
C61 O59 1.240 1_545 S
H62 C36 0.931 . S
H63 C45 0.931 . S
H64 C49 0.929 . S
H65 C51 0.930 . S
Co66 N70 2.148 . S
Co66 N76 2.128 1_655 S
Co66 N86 2.194 . S
Co66 O91 2.351 1_655 S
Co66 O92 2.155 . S
Co66 O93 2.096 . S
C67 N70 1.301 . S
C67 N71 1.328 . S
C67 H72 0.930 . S
C68 C69 1.333 . S
C68 N70 1.317 . S
C68 H73 0.930 . S
C69 C68 1.333 . S
C69 N71 1.350 . S
C69 H95 0.931 . S
N70 Co66 2.148 . S
N70 C67 1.301 . S
N70 C68 1.317 . S
N71 C67 1.328 . S
N71 C69 1.350 . S
H72 C67 0.930 . S
H73 C68 0.930 . S
C74 O75 1.224 . S
C74 O93 1.247 . S
O75 C74 1.224 . S
N76 Co66 2.128 1_455 S
N76 C77 1.355 . S
N76 C79 1.311 . S
C77 N76 1.355 . S
C77 C78 1.363 . S
C77 H89 0.929 . S
C78 C77 1.363 . S
C78 N80 1.375 . S
C78 H96 0.931 . S
C79 N76 1.311 . S
C79 N80 1.347 . S
C79 H90 0.929 . S
N80 C78 1.375 . S
N80 C79 1.347 . S
C81 C84 1.365 . S
C81 N86 1.328 1_455 S
C81 H87 0.929 . S
C82 C83 1.362 1_655 S
C82 C85 1.378 . S
C82 H97 0.929 . S
C83 C82 1.362 1_455 S
C83 C84 1.366 . S
C84 C81 1.365 . S
C84 C83 1.366 . S
C84 H98 0.930 . S
C85 C82 1.378 . S
C85 N86 1.315 . S
C85 H88 0.930 . S
N86 Co66 2.194 . S
N86 C81 1.328 1_655 S
N86 C85 1.315 . S
H87 C81 0.929 . S
H88 C85 0.930 . S
H89 C77 0.929 . S
H90 C79 0.929 . S
O91 Co66 2.351 1_455 S
O91 C94 1.244 . S
O92 Co66 2.155 . S
O92 C94 1.240 1_655 S
O93 Co66 2.096 . S
O93 C74 1.247 . S
C94 O91 1.244 . S
C94 O92 1.240 1_455 S
H95 C69 0.931 . S
H96 C78 0.931 . S
H97 C82 0.929 . S
H98 C84 0.930 . S
Co99 N103 2.148 . S
Co99 N109 2.128 1_545 S
Co99 N119 2.194 . S
Co99 O124 2.351 1_545 S
Co99 O125 2.155 . S
Co99 O126 2.096 . S
C100 N103 1.301 . S
C100 N104 1.328 . S
C100 H105 0.930 . S
C101 C102 1.333 . S
C101 N103 1.317 . S
C101 H106 0.930 . S
C102 C101 1.333 . S
C102 N104 1.350 . S
C102 H128 0.931 . S
N103 Co99 2.148 . S
N103 C100 1.301 . S
N103 C101 1.317 . S
N104 C100 1.328 . S
N104 C102 1.350 . S
H105 C100 0.930 . S
H106 C101 0.930 . S
C107 O108 1.224 . S
C107 O126 1.247 . S
O108 C107 1.224 . S
N109 Co99 2.128 1_565 S
N109 C110 1.355 . S
N109 C112 1.311 . S
C110 N109 1.355 . S
C110 C111 1.363 . S
C110 H122 0.929 . S
C111 C110 1.363 . S
C111 N113 1.375 . S
C111 H129 0.931 . S
C112 N109 1.311 . S
C112 N113 1.347 . S
C112 H123 0.929 . S
N113 C111 1.375 . S
N113 C112 1.347 . S
C114 C117 1.365 . S
C114 N119 1.328 1_565 S
C114 H120 0.929 . S
C115 C116 1.362 1_545 S
C115 C118 1.378 . S
C115 H130 0.929 . S
C116 C115 1.362 1_565 S
C116 C117 1.366 . S
C117 C114 1.365 . S
C117 C116 1.366 . S
C117 H131 0.930 . S
C118 C115 1.378 . S
C118 N119 1.315 . S
C118 H121 0.930 . S
N119 Co99 2.194 . S
N119 C114 1.328 1_545 S
N119 C118 1.315 . S
H120 C114 0.929 . S
H121 C118 0.930 . S
H122 C110 0.929 . S
H123 C112 0.929 . S
O124 Co99 2.351 1_565 S
O124 C127 1.244 . S
O125 Co99 2.155 . S
O125 C127 1.240 1_545 S
O126 Co99 2.096 . S
O126 C107 1.247 . S
C127 O124 1.244 . S
C127 O125 1.240 1_565 S
H128 C102 0.931 . S
H129 C111 0.931 . S
H130 C115 0.929 . S
H131 C117 0.930 . S
Co132 N136 2.148 . S
Co132 N142 2.128 1_455 S
Co132 N152 2.194 . S
Co132 O157 2.351 1_455 S
Co132 O158 2.155 . S
Co132 O159 2.096 . S
C133 N136 1.301 . S
C133 N137 1.328 . S
C133 H138 0.930 . S
C134 C135 1.333 . S
C134 N136 1.317 . S
C134 H139 0.930 . S
C135 C134 1.333 . S
C135 N137 1.350 . S
C135 H161 0.931 . S
N136 Co132 2.148 . S
N136 C133 1.301 . S
N136 C134 1.317 . S
N137 C133 1.328 . S
N137 C135 1.350 . S
H138 C133 0.930 . S
H139 C134 0.930 . S
C140 O141 1.224 . S
C140 O159 1.247 . S
O141 C140 1.224 . S
N142 Co132 2.128 1_655 S
N142 C143 1.355 . S
N142 C145 1.311 . S
C143 N142 1.355 . S
C143 C144 1.363 . S
C143 H155 0.929 . S
C144 C143 1.363 . S
C144 N146 1.375 . S
C144 H162 0.931 . S
C145 N142 1.311 . S
C145 N146 1.347 . S
C145 H156 0.929 . S
N146 C144 1.375 . S
N146 C145 1.347 . S
C147 C150 1.365 . S
C147 N152 1.328 1_655 S
C147 H153 0.929 . S
C148 C149 1.362 1_455 S
C148 C151 1.378 . S
C148 H163 0.929 . S
C149 C148 1.362 1_655 S
C149 C150 1.366 . S
C150 C147 1.365 . S
C150 C149 1.366 . S
C150 H164 0.930 . S
C151 C148 1.378 . S
C151 N152 1.315 . S
C151 H154 0.930 . S
N152 Co132 2.194 . S
N152 C147 1.328 1_455 S
N152 C151 1.315 . S
H153 C147 0.929 . S
H154 C151 0.930 . S
H155 C143 0.929 . S
H156 C145 0.929 . S
O157 Co132 2.351 1_655 S
O157 C160 1.244 . S
O158 Co132 2.155 . S
O158 C160 1.240 1_455 S
O159 Co132 2.096 . S
O159 C140 1.247 . S
C160 O157 1.244 . S
C160 O158 1.240 1_655 S
H161 C135 0.931 . S
H162 C144 0.931 . S
H163 C148 0.929 . S
H164 C150 0.930 . S
Co165 N169 2.148 . S
Co165 N175 2.128 1_565 S
Co165 N185 2.194 . S
Co165 O190 2.351 1_565 S
Co165 O191 2.155 . S
Co165 O192 2.096 . S
C166 N169 1.301 . S
C166 N170 1.328 . S
C166 H171 0.930 . S
C167 C168 1.333 . S
C167 N169 1.317 . S
C167 H172 0.930 . S
C168 C167 1.333 . S
C168 N170 1.350 . S
C168 H194 0.931 . S
N169 Co165 2.148 . S
N169 C166 1.301 . S
N169 C167 1.317 . S
N170 C166 1.328 . S
N170 C168 1.350 . S
H171 C166 0.930 . S
H172 C167 0.930 . S
C173 O174 1.224 . S
C173 O192 1.247 . S
O174 C173 1.224 . S
N175 Co165 2.128 1_545 S
N175 C176 1.355 . S
N175 C178 1.311 . S
C176 N175 1.355 . S
C176 C177 1.363 . S
C176 H188 0.929 . S
C177 C176 1.363 . S
C177 N179 1.375 . S
C177 H195 0.931 . S
C178 N175 1.311 . S
C178 N179 1.347 . S
C178 H189 0.929 . S
N179 C177 1.375 . S
N179 C178 1.347 . S
C180 C183 1.365 . S
C180 N185 1.328 1_545 S
C180 H186 0.929 . S
C181 C182 1.362 1_565 S
C181 C184 1.378 . S
C181 H196 0.929 . S
C182 C181 1.362 1_545 S
C182 C183 1.366 . S
C183 C180 1.365 . S
C183 C182 1.366 . S
C183 H197 0.930 . S
C184 C181 1.378 . S
C184 N185 1.315 . S
C184 H187 0.930 . S
N185 Co165 2.194 . S
N185 C180 1.328 1_565 S
N185 C184 1.315 . S
H186 C180 0.929 . S
H187 C184 0.930 . S
H188 C176 0.929 . S
H189 C178 0.929 . S
O190 Co165 2.351 1_545 S
O190 C193 1.244 . S
O191 Co165 2.155 . S
O191 C193 1.240 1_565 S
O192 Co165 2.096 . S
O192 C173 1.247 . S
C193 O190 1.244 . S
C193 O191 1.240 1_545 S
H194 C168 0.931 . S
H195 C177 0.931 . S
H196 C181 0.929 . S
H197 C183 0.930 . S
Co198 N202 2.148 . S
Co198 N208 2.128 1_655 S
Co198 N218 2.194 . S
Co198 O223 2.351 1_655 S
Co198 O224 2.155 . S
Co198 O225 2.096 . S
C199 N202 1.301 . S
C199 N203 1.328 . S
C199 H204 0.930 . S
C200 C201 1.333 . S
C200 N202 1.317 . S
C200 H205 0.930 . S
C201 C200 1.333 . S
C201 N203 1.350 . S
C201 H227 0.931 . S
N202 Co198 2.148 . S
N202 C199 1.301 . S
N202 C200 1.317 . S
N203 C199 1.328 . S
N203 C201 1.350 . S
H204 C199 0.930 . S
H205 C200 0.930 . S
C206 O207 1.224 . S
C206 O225 1.247 . S
O207 C206 1.224 . S
N208 Co198 2.128 1_455 S
N208 C209 1.355 . S
N208 C211 1.311 . S
C209 N208 1.355 . S
C209 C210 1.363 . S
C209 H221 0.929 . S
C210 C209 1.363 . S
C210 N212 1.375 . S
C210 H228 0.931 . S
C211 N208 1.311 . S
C211 N212 1.347 . S
C211 H222 0.929 . S
N212 C210 1.375 . S
N212 C211 1.347 . S
C213 C216 1.365 . S
C213 N218 1.328 1_455 S
C213 H219 0.929 . S
C214 C215 1.362 1_655 S
C214 C217 1.378 . S
C214 H229 0.929 . S
C215 C214 1.362 1_455 S
C215 C216 1.366 . S
C216 C213 1.365 . S
C216 C215 1.366 . S
C216 H230 0.930 . S
C217 C214 1.378 . S
C217 N218 1.315 . S
C217 H220 0.930 . S
N218 Co198 2.194 . S
N218 C213 1.328 1_655 S
N218 C217 1.315 . S
H219 C213 0.929 . S
H220 C217 0.930 . S
H221 C209 0.929 . S
H222 C211 0.929 . S
O223 Co198 2.351 1_455 S
O223 C226 1.244 . S
O224 Co198 2.155 . S
O224 C226 1.240 1_655 S
O225 Co198 2.096 . S
O225 C206 1.247 . S
C226 O223 1.244 . S
C226 O224 1.240 1_455 S
H227 C201 0.931 . S
H228 C210 0.931 . S
H229 C214 0.929 . S
H230 C216 0.930 . S
Co231 N235 2.148 . S
Co231 N241 2.128 1_545 S
Co231 N251 2.194 . S
Co231 O256 2.351 1_545 S
Co231 O257 2.155 . S
Co231 O258 2.096 . S
C232 N235 1.301 . S
C232 N236 1.328 . S
C232 H237 0.930 . S
C233 C234 1.333 . S
C233 N235 1.317 . S
C233 H238 0.930 . S
C234 C233 1.333 . S
C234 N236 1.350 . S
C234 H260 0.931 . S
N235 Co231 2.148 . S
N235 C232 1.301 . S
N235 C233 1.317 . S
N236 C232 1.328 . S
N236 C234 1.350 . S
H237 C232 0.930 . S
H238 C233 0.930 . S
C239 O240 1.224 . S
C239 O258 1.247 . S
O240 C239 1.224 . S
N241 Co231 2.128 1_565 S
N241 C242 1.355 . S
N241 C244 1.311 . S
C242 N241 1.355 . S
C242 C243 1.363 . S
C242 H254 0.929 . S
C243 C242 1.363 . S
C243 N245 1.375 . S
C243 H261 0.931 . S
C244 N241 1.311 . S
C244 N245 1.347 . S
C244 H255 0.929 . S
N245 C243 1.375 . S
N245 C244 1.347 . S
C246 C249 1.365 . S
C246 N251 1.328 1_565 S
C246 H252 0.929 . S
C247 C248 1.362 1_545 S
C247 C250 1.378 . S
C247 H262 0.929 . S
C248 C247 1.362 1_565 S
C248 C249 1.366 . S
C249 C246 1.365 . S
C249 C248 1.366 . S
C249 H263 0.930 . S
C250 C247 1.378 . S
C250 N251 1.315 . S
C250 H253 0.930 . S
N251 Co231 2.194 . S
N251 C246 1.328 1_545 S
N251 C250 1.315 . S
H252 C246 0.929 . S
H253 C250 0.930 . S
H254 C242 0.929 . S
H255 C244 0.929 . S
O256 Co231 2.351 1_565 S
O256 C259 1.244 . S
O257 Co231 2.155 . S
O257 C259 1.240 1_545 S
O258 Co231 2.096 . S
O258 C239 1.247 . S
C259 O256 1.244 . S
C259 O257 1.240 1_565 S
H260 C234 0.931 . S
H261 C243 0.931 . S
H262 C247 0.929 . S
H263 C249 0.930 . S
Co264 N268 2.148 . S
Co264 N274 2.128 . S
Co264 N284 2.194 . S
Co264 O289 2.351 . S
Co264 O290 2.155 . S
Co264 O291 2.096 . S
C265 N268 1.301 . S
C265 N269 1.328 . S
C265 H270 0.930 . S
C266 C267 1.333 . S
C266 N268 1.317 . S
C266 H271 0.930 . S
C267 C266 1.333 . S
C267 N269 1.350 . S
C267 H293 0.931 . S
N268 Co264 2.148 . S
N268 C265 1.301 . S
N268 C266 1.317 . S
N269 C265 1.328 . S
N269 C267 1.350 . S
H270 C265 0.930 . S
H271 C266 0.930 . S
C272 O273 1.224 . S
C272 O291 1.247 . S
O273 C272 1.224 . S
N274 Co264 2.128 . S
N274 C275 1.355 . S
N274 C277 1.311 . S
C275 N274 1.355 . S
C275 C276 1.363 . S
C275 H287 0.929 . S
C276 C275 1.363 . S
C276 N278 1.375 . S
C276 H294 0.931 . S
C277 N274 1.311 . S
C277 N278 1.347 . S
C277 H288 0.929 . S
N278 C276 1.375 . S
N278 C277 1.347 . S
C279 C282 1.365 . S
C279 N284 1.328 . S
C279 H285 0.929 . S
C280 C281 1.362 . S
C280 C283 1.378 . S
C280 H295 0.929 . S
C281 C280 1.362 . S
C281 C282 1.366 . S
C282 C279 1.365 . S
C282 C281 1.366 . S
C282 H296 0.930 . S
C283 C280 1.378 . S
C283 N284 1.315 . S
C283 H286 0.930 . S
N284 Co264 2.194 . S
N284 C279 1.328 . S
N284 C283 1.315 . S
H285 C279 0.929 . S
H286 C283 0.930 . S
H287 C275 0.929 . S
H288 C277 0.929 . S
O289 Co264 2.351 . S
O289 C292 1.244 . S
O290 Co264 2.155 . S
O290 C292 1.240 . S
O291 Co264 2.096 . S
O291 C272 1.247 . S
C292 O289 1.244 . S
C292 O290 1.240 . S
H293 C267 0.931 . S
H294 C276 0.931 . S
H295 C280 0.929 . S
H296 C282 0.930 . S
Co297 N301 2.148 . S
Co297 N307 2.128 . S
Co297 N317 2.194 . S
Co297 O322 2.351 . S
Co297 O323 2.155 . S
Co297 O324 2.096 . S
C298 N301 1.301 . S
C298 N302 1.328 . S
C298 H303 0.930 . S
C299 C300 1.333 . S
C299 N301 1.317 . S
C299 H304 0.930 . S
C300 C299 1.333 . S
C300 N302 1.350 . S
C300 H326 0.931 . S
N301 Co297 2.148 . S
N301 C298 1.301 . S
N301 C299 1.317 . S
N302 C298 1.328 . S
N302 C300 1.350 . S
H303 C298 0.930 . S
H304 C299 0.930 . S
C305 O306 1.224 . S
C305 O324 1.247 . S
O306 C305 1.224 . S
N307 Co297 2.128 . S
N307 C308 1.355 . S
N307 C310 1.311 . S
C308 N307 1.355 . S
C308 C309 1.363 . S
C308 H320 0.929 . S
C309 C308 1.363 . S
C309 N311 1.375 . S
C309 H327 0.931 . S
C310 N307 1.311 . S
C310 N311 1.347 . S
C310 H321 0.929 . S
N311 C309 1.375 . S
N311 C310 1.347 . S
C312 C315 1.365 . S
C312 N317 1.328 . S
C312 H318 0.929 . S
C313 C314 1.362 . S
C313 C316 1.378 . S
C313 H328 0.929 . S
C314 C313 1.362 . S
C314 C315 1.366 . S
C315 C312 1.365 . S
C315 C314 1.366 . S
C315 H329 0.930 . S
C316 C313 1.378 . S
C316 N317 1.315 . S
C316 H319 0.930 . S
N317 Co297 2.194 . S
N317 C312 1.328 . S
N317 C316 1.315 . S
H318 C312 0.929 . S
H319 C316 0.930 . S
H320 C308 0.929 . S
H321 C310 0.929 . S
O322 Co297 2.351 . S
O322 C325 1.244 . S
O323 Co297 2.155 . S
O323 C325 1.240 . S
O324 Co297 2.096 . S
O324 C305 1.247 . S
C325 O322 1.244 . S
C325 O323 1.240 . S
H326 C300 0.931 . S
H327 C309 0.931 . S
H328 C313 0.929 . S
H329 C315 0.930 . S
Co330 N334 2.148 . S
Co330 N340 2.128 . S
Co330 N350 2.194 . S
Co330 O355 2.351 . S
Co330 O356 2.155 . S
Co330 O357 2.096 . S
C331 N334 1.301 . S
C331 N335 1.328 . S
C331 H336 0.930 . S
C332 C333 1.333 . S
C332 N334 1.317 . S
C332 H337 0.930 . S
C333 C332 1.333 . S
C333 N335 1.350 . S
C333 H359 0.931 . S
N334 Co330 2.148 . S
N334 C331 1.301 . S
N334 C332 1.317 . S
N335 C331 1.328 . S
N335 C333 1.350 . S
H336 C331 0.930 . S
H337 C332 0.930 . S
C338 O339 1.224 . S
C338 O357 1.247 . S
O339 C338 1.224 . S
N340 Co330 2.128 . S
N340 C341 1.355 . S
N340 C343 1.311 . S
C341 N340 1.355 . S
C341 C342 1.363 . S
C341 H353 0.929 . S
C342 C341 1.363 . S
C342 N344 1.375 . S
C342 H360 0.931 . S
C343 N340 1.311 . S
C343 N344 1.347 . S
C343 H354 0.929 . S
N344 C342 1.375 . S
N344 C343 1.347 . S
C345 C348 1.365 . S
C345 N350 1.328 . S
C345 H351 0.929 . S
C346 C347 1.362 . S
C346 C349 1.378 . S
C346 H361 0.929 . S
C347 C346 1.362 . S
C347 C348 1.366 . S
C348 C345 1.365 . S
C348 C347 1.366 . S
C348 H362 0.930 . S
C349 C346 1.378 . S
C349 N350 1.315 . S
C349 H352 0.930 . S
N350 Co330 2.194 . S
N350 C345 1.328 . S
N350 C349 1.315 . S
H351 C345 0.929 . S
H352 C349 0.930 . S
H353 C341 0.929 . S
H354 C343 0.929 . S
O355 Co330 2.351 . S
O355 C358 1.244 . S
O356 Co330 2.155 . S
O356 C358 1.240 . S
O357 Co330 2.096 . S
O357 C338 1.247 . S
C358 O355 1.244 . S
C358 O356 1.240 . S
H359 C333 0.931 . S
H360 C342 0.931 . S
H361 C346 0.929 . S
H362 C348 0.930 . S
Co363 N367 2.148 . S
Co363 N373 2.128 . S
Co363 N383 2.194 . S
Co363 O388 2.351 . S
Co363 O389 2.155 . S
Co363 O390 2.096 . S
C364 N367 1.301 . S
C364 N368 1.328 . S
C364 H369 0.930 . S
C365 C366 1.333 . S
C365 N367 1.317 . S
C365 H370 0.930 . S
C366 C365 1.333 . S
C366 N368 1.350 . S
C366 H392 0.931 . S
N367 Co363 2.148 . S
N367 C364 1.301 . S
N367 C365 1.317 . S
N368 C364 1.328 . S
N368 C366 1.350 . S
H369 C364 0.930 . S
H370 C365 0.930 . S
C371 O372 1.224 . S
C371 O390 1.247 . S
O372 C371 1.224 . S
N373 Co363 2.128 . S
N373 C374 1.355 . S
N373 C376 1.311 . S
C374 N373 1.355 . S
C374 C375 1.363 . S
C374 H386 0.929 . S
C375 C374 1.363 . S
C375 N377 1.375 . S
C375 H393 0.931 . S
C376 N373 1.311 . S
C376 N377 1.347 . S
C376 H387 0.929 . S
N377 C375 1.375 . S
N377 C376 1.347 . S
C378 C381 1.365 . S
C378 N383 1.328 . S
C378 H384 0.929 . S
C379 C380 1.362 . S
C379 C382 1.378 . S
C379 H394 0.929 . S
C380 C379 1.362 . S
C380 C381 1.366 . S
C381 C378 1.365 . S
C381 C380 1.366 . S
C381 H395 0.930 . S
C382 C379 1.378 . S
C382 N383 1.315 . S
C382 H385 0.930 . S
N383 Co363 2.194 . S
N383 C378 1.328 . S
N383 C382 1.315 . S
H384 C378 0.929 . S
H385 C382 0.930 . S
H386 C374 0.929 . S
H387 C376 0.929 . S
O388 Co363 2.351 . S
O388 C391 1.244 . S
O389 Co363 2.155 . S
O389 C391 1.240 . S
O390 Co363 2.096 . S
O390 C371 1.247 . S
C391 O388 1.244 . S
C391 O389 1.240 . S
H392 C366 0.931 . S
H393 C375 0.931 . S
H394 C379 0.929 . S
H395 C381 0.930 . S
Co396 N400 2.148 . S
Co396 N406 2.128 . S
Co396 N416 2.194 . S
Co396 O421 2.351 . S
Co396 O422 2.155 . S
Co396 O423 2.096 . S
C397 N400 1.301 . S
C397 N401 1.328 . S
C397 H402 0.930 . S
C398 C399 1.333 . S
C398 N400 1.317 . S
C398 H403 0.930 . S
C399 C398 1.333 . S
C399 N401 1.350 . S
C399 H425 0.931 . S
N400 Co396 2.148 . S
N400 C397 1.301 . S
N400 C398 1.317 . S
N401 C397 1.328 . S
N401 C399 1.350 . S
H402 C397 0.930 . S
H403 C398 0.930 . S
C404 O405 1.224 . S
C404 O423 1.247 . S
O405 C404 1.224 . S
N406 Co396 2.128 . S
N406 C407 1.355 . S
N406 C409 1.311 . S
C407 N406 1.355 . S
C407 C408 1.363 . S
C407 H419 0.929 . S
C408 C407 1.363 . S
C408 N410 1.375 . S
C408 H426 0.931 . S
C409 N406 1.311 . S
C409 N410 1.347 . S
C409 H420 0.929 . S
N410 C408 1.375 . S
N410 C409 1.347 . S
C411 C414 1.365 . S
C411 N416 1.328 . S
C411 H417 0.929 . S
C412 C413 1.362 . S
C412 C415 1.378 . S
C412 H427 0.929 . S
C413 C412 1.362 . S
C413 C414 1.366 . S
C414 C411 1.365 . S
C414 C413 1.366 . S
C414 H428 0.930 . S
C415 C412 1.378 . S
C415 N416 1.315 . S
C415 H418 0.930 . S
N416 Co396 2.194 . S
N416 C411 1.328 . S
N416 C415 1.315 . S
H417 C411 0.929 . S
H418 C415 0.930 . S
H419 C407 0.929 . S
H420 C409 0.929 . S
O421 Co396 2.351 . S
O421 C424 1.244 . S
O422 Co396 2.155 . S
O422 C424 1.240 . S
O423 Co396 2.096 . S
O423 C404 1.247 . S
C424 O421 1.244 . S
C424 O422 1.240 . S
H425 C399 0.931 . S
H426 C408 0.931 . S
H427 C412 0.929 . S
H428 C414 0.930 . S
Co429 N433 2.148 . S
Co429 N439 2.128 . S
Co429 N449 2.194 . S
Co429 O454 2.351 . S
Co429 O455 2.155 . S
Co429 O456 2.096 . S
C430 N433 1.301 . S
C430 N434 1.328 . S
C430 H435 0.930 . S
C431 C432 1.333 . S
C431 N433 1.317 . S
C431 H436 0.930 . S
C432 C431 1.333 . S
C432 N434 1.350 . S
C432 H458 0.931 . S
N433 Co429 2.148 . S
N433 C430 1.301 . S
N433 C431 1.317 . S
N434 C430 1.328 . S
N434 C432 1.350 . S
H435 C430 0.930 . S
H436 C431 0.930 . S
C437 O438 1.224 . S
C437 O456 1.247 . S
O438 C437 1.224 . S
N439 Co429 2.128 . S
N439 C440 1.355 . S
N439 C442 1.311 . S
C440 N439 1.355 . S
C440 C441 1.363 . S
C440 H452 0.929 . S
C441 C440 1.363 . S
C441 N443 1.375 . S
C441 H459 0.931 . S
C442 N439 1.311 . S
C442 N443 1.347 . S
C442 H453 0.929 . S
N443 C441 1.375 . S
N443 C442 1.347 . S
C444 C447 1.365 . S
C444 N449 1.328 . S
C444 H450 0.929 . S
C445 C446 1.362 . S
C445 C448 1.378 . S
C445 H460 0.929 . S
C446 C445 1.362 . S
C446 C447 1.366 . S
C447 C444 1.365 . S
C447 C446 1.366 . S
C447 H461 0.930 . S
C448 C445 1.378 . S
C448 N449 1.315 . S
C448 H451 0.930 . S
N449 Co429 2.194 . S
N449 C444 1.328 . S
N449 C448 1.315 . S
H450 C444 0.929 . S
H451 C448 0.930 . S
H452 C440 0.929 . S
H453 C442 0.929 . S
O454 Co429 2.351 . S
O454 C457 1.244 . S
O455 Co429 2.155 . S
O455 C457 1.240 . S
O456 Co429 2.096 . S
O456 C437 1.247 . S
C457 O454 1.244 . S
C457 O455 1.240 . S
H458 C432 0.931 . S
H459 C441 0.931 . S
H460 C445 0.929 . S
H461 C447 0.930 . S
Co462 N466 2.148 . S
Co462 N472 2.128 . S
Co462 N482 2.194 . S
Co462 O487 2.351 . S
Co462 O488 2.155 . S
Co462 O489 2.096 . S
C463 N466 1.301 . S
C463 N467 1.328 . S
C463 H468 0.930 . S
C464 C465 1.333 . S
C464 N466 1.317 . S
C464 H469 0.930 . S
C465 C464 1.333 . S
C465 N467 1.350 . S
C465 H491 0.931 . S
N466 Co462 2.148 . S
N466 C463 1.301 . S
N466 C464 1.317 . S
N467 C463 1.328 . S
N467 C465 1.350 . S
H468 C463 0.930 . S
H469 C464 0.930 . S
C470 O471 1.224 . S
C470 O489 1.247 . S
O471 C470 1.224 . S
N472 Co462 2.128 . S
N472 C473 1.355 . S
N472 C475 1.311 . S
C473 N472 1.355 . S
C473 C474 1.363 . S
C473 H485 0.929 . S
C474 C473 1.363 . S
C474 N476 1.375 . S
C474 H492 0.931 . S
C475 N472 1.311 . S
C475 N476 1.347 . S
C475 H486 0.929 . S
N476 C474 1.375 . S
N476 C475 1.347 . S
C477 C480 1.365 . S
C477 N482 1.328 . S
C477 H483 0.929 . S
C478 C479 1.362 . S
C478 C481 1.378 . S
C478 H493 0.929 . S
C479 C478 1.362 . S
C479 C480 1.366 . S
C480 C477 1.365 . S
C480 C479 1.366 . S
C480 H494 0.930 . S
C481 C478 1.378 . S
C481 N482 1.315 . S
C481 H484 0.930 . S
N482 Co462 2.194 . S
N482 C477 1.328 . S
N482 C481 1.315 . S
H483 C477 0.929 . S
H484 C481 0.930 . S
H485 C473 0.929 . S
H486 C475 0.929 . S
O487 Co462 2.351 . S
O487 C490 1.244 . S
O488 Co462 2.155 . S
O488 C490 1.240 . S
O489 Co462 2.096 . S
O489 C470 1.247 . S
C490 O487 1.244 . S
C490 O488 1.240 . S
H491 C465 0.931 . S
H492 C474 0.931 . S
H493 C478 0.929 . S
H494 C480 0.930 . S
Co495 N499 2.148 . S
Co495 N505 2.128 . S
Co495 N515 2.194 . S
Co495 O520 2.351 . S
Co495 O521 2.155 . S
Co495 O522 2.096 . S
C496 N499 1.301 . S
C496 N500 1.328 . S
C496 H501 0.930 . S
C497 C498 1.333 . S
C497 N499 1.317 . S
C497 H502 0.930 . S
C498 C497 1.333 . S
C498 N500 1.350 . S
C498 H524 0.931 . S
N499 Co495 2.148 . S
N499 C496 1.301 . S
N499 C497 1.317 . S
N500 C496 1.328 . S
N500 C498 1.350 . S
H501 C496 0.930 . S
H502 C497 0.930 . S
C503 O504 1.224 . S
C503 O522 1.247 . S
O504 C503 1.224 . S
N505 Co495 2.128 . S
N505 C506 1.355 . S
N505 C508 1.311 . S
C506 N505 1.355 . S
C506 C507 1.363 . S
C506 H518 0.929 . S
C507 C506 1.363 . S
C507 N509 1.375 . S
C507 H525 0.931 . S
C508 N505 1.311 . S
C508 N509 1.347 . S
C508 H519 0.929 . S
N509 C507 1.375 . S
N509 C508 1.347 . S
C510 C513 1.365 . S
C510 N515 1.328 . S
C510 H516 0.929 . S
C511 C512 1.362 . S
C511 C514 1.378 . S
C511 H526 0.929 . S
C512 C511 1.362 . S
C512 C513 1.366 . S
C513 C510 1.365 . S
C513 C512 1.366 . S
C513 H527 0.930 . S
C514 C511 1.378 . S
C514 N515 1.315 . S
C514 H517 0.930 . S
N515 Co495 2.194 . S
N515 C510 1.328 . S
N515 C514 1.315 . S
H516 C510 0.929 . S
H517 C514 0.930 . S
H518 C506 0.929 . S
H519 C508 0.929 . S
O520 Co495 2.351 . S
O520 C523 1.244 . S
O521 Co495 2.155 . S
O521 C523 1.240 . S
O522 Co495 2.096 . S
O522 C503 1.247 . S
C523 O520 1.244 . S
C523 O521 1.240 . S
H524 C498 0.931 . S
H525 C507 0.931 . S
H526 C511 0.929 . S
H527 C513 0.930 . S
C528 C529 1.363 . S
C528 C534 1.379 . S
C528 N536 1.356 . S
C529 C528 1.363 . S
C529 C535 1.363 . S
C530 C531 1.363 . S
C530 C535 1.379 . S
C530 N537 1.356 . S
C531 C530 1.363 . S
C531 C534 1.363 . S
N532 C534 1.356 . S
N532 H544 0.984 . S
N532 H545 0.985 . S
N533 C535 1.356 . S
N533 H538 0.984 . S
N533 H539 0.985 . S
C534 C528 1.379 . S
C534 C531 1.363 . S
C534 N532 1.356 . S
C535 C529 1.363 . S
C535 C530 1.379 . S
C535 N533 1.356 . S
N536 C528 1.356 . S
N536 H542 0.984 . S
N536 H543 0.984 . S
N537 C530 1.356 . S
N537 H540 0.984 . S
N537 H541 0.985 . S
H538 N533 0.984 . S
H539 N533 0.985 . S
H540 N537 0.984 . S
H541 N537 0.985 . S
H542 N536 0.984 . S
H543 N536 0.984 . S
H544 N532 0.984 . S
H545 N532 0.985 . S
C546 C547 1.363 . S
C546 C552 1.379 . S
C546 N554 1.356 . S
C547 C546 1.363 . S
C547 C553 1.363 . S
C548 C549 1.363 . S
C548 C553 1.379 . S
C548 N555 1.356 . S
C549 C548 1.363 . S
C549 C552 1.363 . S
N550 C552 1.356 . S
N550 H562 0.984 . S
N550 H563 0.985 . S
N551 C553 1.356 . S
N551 H556 0.984 . S
N551 H557 0.985 . S
C552 C546 1.379 . S
C552 C549 1.363 . S
C552 N550 1.356 . S
C553 C547 1.363 . S
C553 C548 1.379 . S
C553 N551 1.356 . S
N554 C546 1.356 . S
N554 H560 0.984 . S
N554 H561 0.984 . S
N555 C548 1.356 . S
N555 H558 0.984 . S
N555 H559 0.985 . S
H556 N551 0.984 . S
H557 N551 0.985 . S
H558 N555 0.984 . S
H559 N555 0.985 . S
H560 N554 0.984 . S
H561 N554 0.984 . S
H562 N550 0.984 . S
H563 N550 0.985 . S
C564 C565 1.363 . S
C564 C570 1.379 . S
C564 N572 1.356 . S
C565 C564 1.363 . S
C565 C571 1.363 . S
C566 C567 1.363 . S
C566 C571 1.379 . S
C566 N573 1.356 . S
C567 C566 1.363 . S
C567 C570 1.363 . S
N568 C570 1.356 . S
N568 H580 0.984 . S
N568 H581 0.985 . S
N569 C571 1.356 . S
N569 H574 0.984 . S
N569 H575 0.985 . S
C570 C564 1.379 . S
C570 C567 1.363 . S
C570 N568 1.356 . S
C571 C565 1.363 . S
C571 C566 1.379 . S
C571 N569 1.356 . S
N572 C564 1.356 . S
N572 H578 0.984 . S
N572 H579 0.984 . S
N573 C566 1.356 . S
N573 H576 0.984 . S
N573 H577 0.985 . S
H574 N569 0.984 . S
H575 N569 0.985 . S
H576 N573 0.984 . S
H577 N573 0.985 . S
H578 N572 0.984 . S
H579 N572 0.984 . S
H580 N568 0.984 . S
H581 N568 0.985 . S
C582 C583 1.363 . S
C582 C588 1.379 . S
C582 N590 1.356 . S
C583 C582 1.363 . S
C583 C589 1.363 . S
C584 C585 1.363 . S
C584 C589 1.379 . S
C584 N591 1.356 . S
C585 C584 1.363 . S
C585 C588 1.363 . S
N586 C588 1.356 . S
N586 H598 0.984 . S
N586 H599 0.985 . S
N587 C589 1.356 . S
N587 H592 0.984 . S
N587 H593 0.985 . S
C588 C582 1.379 . S
C588 C585 1.363 . S
C588 N586 1.356 . S
C589 C583 1.363 . S
C589 C584 1.379 . S
C589 N587 1.356 . S
N590 C582 1.356 . S
N590 H596 0.984 . S
N590 H597 0.984 . S
N591 C584 1.356 . S
N591 H594 0.984 . S
N591 H595 0.985 . S
H592 N587 0.984 . S
H593 N587 0.985 . S
H594 N591 0.984 . S
H595 N591 0.985 . S
H596 N590 0.984 . S
H597 N590 0.984 . S
H598 N586 0.984 . S
H599 N586 0.985 . S
C600 C601 1.363 . S
C600 C606 1.379 1_554 S
C600 N608 1.356 . S
C601 C600 1.363 . S
C601 C607 1.363 1_554 S
C602 C603 1.363 . S
C602 C607 1.379 . S
C602 N609 1.356 . S
C603 C602 1.363 . S
C603 C606 1.363 . S
N604 C606 1.356 . S
N604 H616 0.984 . S
N604 H617 0.985 . S
N605 C607 1.356 1_554 S
N605 H610 0.984 . S
N605 H611 0.995 . S
C606 C600 1.379 1_556 S
C606 C603 1.363 . S
C606 N604 1.356 . S
C607 C601 1.363 1_556 S
C607 C602 1.379 . S
C607 N605 1.356 1_556 S
N608 C600 1.356 . S
N608 H614 0.984 . S
N608 H615 0.984 . S
N609 C602 1.356 . S
N609 H612 0.984 . S
N609 H613 0.985 . S
H610 N605 0.984 . S
H611 N605 0.995 . S
H612 N609 0.984 . S
H613 N609 0.985 . S
H614 N608 0.984 . S
H615 N608 0.984 . S
H616 N604 0.984 . S
H617 N604 0.985 . S
C618 C619 1.320 1_554 S
C618 C624 1.434 . S
C618 N626 1.328 1_554 S
C619 C618 1.320 1_556 S
C619 C625 1.363 . S
C620 C621 1.363 . S
C620 C625 1.379 1_554 S
C620 N627 1.356 . S
C621 C620 1.363 . S
C621 C624 1.363 . S
N622 C624 1.356 . S
N622 H634 0.984 . S
N622 H635 0.985 . S
N623 C625 1.356 . S
N623 H628 0.984 . S
N623 H629 0.985 . S
C624 C618 1.434 . S
C624 C621 1.363 . S
C624 N622 1.356 . S
C625 C619 1.363 . S
C625 C620 1.379 1_556 S
C625 N623 1.356 . S
N626 C618 1.328 1_556 S
N626 H632 0.984 . S
N626 H633 0.984 . S
N627 C620 1.356 . S
N627 H630 0.984 . S
N627 H631 0.985 1_565 S
H628 N623 0.984 . S
H629 N623 0.985 . S
H630 N627 0.984 . S
H631 N627 0.985 1_545 S
H632 N626 0.984 . S
H633 N626 0.984 . S
H634 N622 0.984 . S
H635 N622 0.985 . S
C636 C637 1.363 . S
C636 C642 1.379 1_556 S
C636 N644 1.356 . S
C637 C636 1.363 . S
C637 C643 1.363 . S
C638 C639 1.363 . S
C638 C643 1.379 1_554 S
C638 N645 1.356 . S
C639 C638 1.363 . S
C639 C642 1.363 . S
N640 C642 1.356 . S
N640 H652 0.984 . S
N640 H653 0.985 . S
N641 C643 1.356 . S
N641 H646 0.984 . S
N641 H647 0.985 . S
C642 C636 1.379 1_554 S
C642 C639 1.363 . S
C642 N640 1.356 . S
C643 C637 1.363 . S
C643 C638 1.379 1_556 S
C643 N641 1.356 . S
N644 C636 1.356 . S
N644 H650 0.984 . S
N644 H651 0.984 . S
N645 C638 1.356 . S
N645 H648 0.984 . S
N645 H649 0.985 . S
H646 N641 0.984 . S
H647 N641 0.985 . S
H648 N645 0.984 . S
H649 N645 0.985 . S
H650 N644 0.984 . S
H651 N644 0.984 . S
H652 N640 0.984 . S
H653 N640 0.985 . S
C654 C655 1.363 . S
C654 C660 1.379 1_554 S
C654 N662 1.356 . S
C655 C654 1.363 . S
C655 C661 1.363 . S
C656 C657 1.363 . S
C656 C661 1.379 1_556 S
C656 N663 1.356 . S
C657 C656 1.363 . S
C657 C660 1.363 . S
N658 C660 1.356 . S
N658 H670 0.984 . S
N658 H671 0.985 . S
N659 C661 1.356 . S
N659 H664 0.984 . S
N659 H665 0.985 . S
C660 C654 1.379 1_556 S
C660 C657 1.363 . S
C660 N658 1.356 . S
C661 C655 1.363 . S
C661 C656 1.379 1_554 S
C661 N659 1.356 . S
N662 C654 1.356 . S
N662 H668 0.984 . S
N662 H669 0.984 . S
N663 C656 1.356 . S
N663 H666 0.984 . S
N663 H667 0.985 . S
H664 N659 0.984 . S
H665 N659 0.985 . S
H666 N663 0.984 . S
H667 N663 0.985 . S
H668 N662 0.984 . S
H669 N662 0.984 . S
H670 N658 0.984 . S
H671 N658 0.985 . S
C672 C673 1.363 . S
C672 C678 1.379 . S
C672 N680 1.356 . S
C673 C672 1.363 . S
C673 C679 1.363 . S
C674 C675 1.363 . S
C674 C679 1.379 . S
C674 N681 1.356 . S
C675 C674 1.363 . S
C675 C678 1.363 . S
N676 C678 1.356 . S
N676 H688 0.984 . S
N676 H689 0.985 . S
N677 C679 1.356 . S
N677 H682 0.984 . S
N677 H683 0.985 . S
C678 C672 1.379 . S
C678 C675 1.363 . S
C678 N676 1.356 . S
C679 C673 1.363 . S
C679 C674 1.379 . S
C679 N677 1.356 . S
N680 C672 1.356 . S
N680 H686 0.984 . S
N680 H687 0.984 . S
N681 C674 1.356 . S
N681 H684 0.984 . S
N681 H685 0.985 . S
H682 N677 0.984 . S
H683 N677 0.985 . S
H684 N681 0.984 . S
H685 N681 0.985 . S
H686 N680 0.984 . S
H687 N680 0.984 . S
H688 N676 0.984 . S
H689 N676 0.985 . S
C690 C691 1.363 . S
C690 C696 1.379 . S
C690 N698 1.356 . S
C691 C690 1.363 . S
C691 C697 1.363 . S
C692 C693 1.363 . S
C692 C697 1.379 . S
C692 N699 1.356 . S
C693 C692 1.363 . S
C693 C696 1.363 . S
N694 C696 1.356 . S
N694 H706 0.984 . S
N694 H707 0.985 . S
N695 C697 1.356 . S
N695 H700 0.984 . S
N695 H701 0.985 . S
C696 C690 1.379 . S
C696 C693 1.363 . S
C696 N694 1.356 . S
C697 C691 1.363 . S
C697 C692 1.379 . S
C697 N695 1.356 . S
N698 C690 1.356 . S
N698 H704 0.984 . S
N698 H705 0.984 . S
N699 C692 1.356 . S
N699 H702 0.984 . S
N699 H703 0.985 . S
H700 N695 0.984 . S
H701 N695 0.985 . S
H702 N699 0.984 . S
H703 N699 0.985 . S
H704 N698 0.984 . S
H705 N698 0.984 . S
H706 N694 0.984 . S
H707 N694 0.985 . S
C708 C709 1.363 . S
C708 C714 1.379 . S
C708 N716 1.356 . S
C709 C708 1.363 . S
C709 C715 1.363 . S
C710 C711 1.363 . S
C710 C715 1.379 . S
C710 N717 1.356 . S
C711 C710 1.363 . S
C711 C714 1.363 . S
N712 C714 1.356 . S
N712 H724 0.984 . S
N712 H725 0.985 . S
N713 C715 1.356 . S
N713 H718 0.984 . S
N713 H719 0.985 . S
C714 C708 1.379 . S
C714 C711 1.363 . S
C714 N712 1.356 . S
C715 C709 1.363 . S
C715 C710 1.379 . S
C715 N713 1.356 . S
N716 C708 1.356 . S
N716 H722 0.984 . S
N716 H723 0.984 . S
N717 C710 1.356 . S
N717 H720 0.984 . S
N717 H721 0.985 . S
H718 N713 0.984 . S
H719 N713 0.985 . S
H720 N717 0.984 . S
H721 N717 0.985 . S
H722 N716 0.984 . S
H723 N716 0.984 . S
H724 N712 0.984 . S
H725 N712 0.985 . S
C726 C727 1.363 . S
C726 C732 1.379 . S
C726 N734 1.356 . S
C727 C726 1.363 . S
C727 C733 1.363 . S
C728 C729 1.363 . S
C728 C733 1.379 . S
C728 N735 1.356 . S
C729 C728 1.363 . S
C729 C732 1.363 . S
N730 C732 1.356 . S
N730 H742 0.984 . S
N730 H743 0.985 . S
N731 C733 1.356 . S
N731 H736 0.984 . S
N731 H737 0.985 . S
C732 C726 1.379 . S
C732 C729 1.363 . S
C732 N730 1.356 . S
C733 C727 1.363 . S
C733 C728 1.379 . S
C733 N731 1.356 . S
N734 C726 1.356 . S
N734 H740 0.984 . S
N734 H741 0.984 . S
N735 C728 1.356 . S
N735 H738 0.984 . S
N735 H739 0.985 . S
H736 N731 0.984 . S
H737 N731 0.985 . S
H738 N735 0.984 . S
H739 N735 0.985 . S
H740 N734 0.984 . S
H741 N734 0.984 . S
H742 N730 0.984 . S
H743 N730 0.985 . S
C744 C745 1.363 . S
C744 C750 1.379 . S
C744 N752 1.356 . S
C745 C744 1.363 . S
C745 C751 1.363 . S
C746 C747 1.363 . S
C746 C751 1.379 . S
C746 N753 1.356 . S
C747 C746 1.363 . S
C747 C750 1.363 . S
N748 C750 1.356 . S
N748 H760 0.984 . S
N748 H761 0.985 . S
N749 C751 1.356 . S
N749 H754 0.984 . S
N749 H755 0.985 . S
C750 C744 1.379 . S
C750 C747 1.363 . S
C750 N748 1.356 . S
C751 C745 1.363 . S
C751 C746 1.379 . S
C751 N749 1.356 . S
N752 C744 1.356 . S
N752 H758 0.984 . S
N752 H759 0.984 . S
N753 C746 1.356 . S
N753 H756 0.984 . S
N753 H757 0.985 . S
H754 N749 0.984 . S
H755 N749 0.985 . S
H756 N753 0.984 . S
H757 N753 0.985 . S
H758 N752 0.984 . S
H759 N752 0.984 . S
H760 N748 0.984 . S
H761 N748 0.985 . S
C762 C763 1.363 . S
C762 C768 1.379 . S
C762 N770 1.356 . S
C763 C762 1.363 . S
C763 C769 1.363 . S
C764 C765 1.363 . S
C764 C769 1.379 . S
C764 N771 1.356 . S
C765 C764 1.363 . S
C765 C768 1.363 . S
N766 C768 1.356 . S
N766 H778 0.984 . S
N766 H779 0.985 . S
N767 C769 1.356 . S
N767 H772 0.984 . S
N767 H773 0.985 . S
C768 C762 1.379 . S
C768 C765 1.363 . S
C768 N766 1.356 . S
C769 C763 1.363 . S
C769 C764 1.379 . S
C769 N767 1.356 . S
N770 C762 1.356 . S
N770 H776 0.984 . S
N770 H777 0.984 . S
N771 C764 1.356 . S
N771 H774 0.984 . S
N771 H775 0.985 . S
H772 N767 0.984 . S
H773 N767 0.985 . S
H774 N771 0.984 . S
H775 N771 0.985 . S
H776 N770 0.984 . S
H777 N770 0.984 . S
H778 N766 0.984 . S
H779 N766 0.985 . S
C780 C781 1.363 . S
C780 C786 1.379 . S
C780 N788 1.356 . S
C781 C780 1.363 . S
C781 C787 1.363 . S
C782 C783 1.363 . S
C782 C787 1.379 . S
C782 N789 1.356 . S
C783 C782 1.363 . S
C783 C786 1.363 . S
N784 C786 1.356 . S
N784 H796 0.984 . S
N784 H797 0.985 . S
N785 C787 1.356 . S
N785 H790 0.984 . S
N785 H791 0.985 . S
C786 C780 1.379 . S
C786 C783 1.363 . S
C786 N784 1.356 . S
C787 C781 1.363 . S
C787 C782 1.379 . S
C787 N785 1.356 . S
N788 C780 1.356 . S
N788 H794 0.984 . S
N788 H795 0.984 . S
N789 C782 1.356 . S
N789 H792 0.984 . S
N789 H793 0.985 . S
H790 N785 0.984 . S
H791 N785 0.985 . S
H792 N789 0.984 . S
H793 N789 0.985 . S
H794 N788 0.984 . S
H795 N788 0.984 . S
H796 N784 0.984 . S
H797 N784 0.985 . S
C798 C799 1.363 . S
C798 C804 1.379 . S
C798 N806 1.356 . S
C799 C798 1.363 . S
C799 C805 1.363 . S
C800 C801 1.363 . S
C800 C805 1.379 . S
C800 N807 1.356 . S
C801 C800 1.363 . S
C801 C804 1.363 . S
N802 C804 1.356 . S
N802 H814 0.984 . S
N802 H815 0.985 . S
N803 C805 1.356 . S
N803 H808 0.984 . S
N803 H809 0.985 . S
C804 C798 1.379 . S
C804 C801 1.363 . S
C804 N802 1.356 . S
C805 C799 1.363 . S
C805 C800 1.379 . S
C805 N803 1.356 . S
N806 C798 1.356 . S
N806 H812 0.984 . S
N806 H813 0.984 . S
N807 C800 1.356 . S
N807 H810 0.984 . S
N807 H811 0.985 . S
H808 N803 0.984 . S
H809 N803 0.985 . S
H810 N807 0.984 . S
H811 N807 0.985 . S
H812 N806 0.984 . S
H813 N806 0.984 . S
H814 N802 0.984 . S
H815 N802 0.985 . S
C816 C817 1.363 1_455 S
C816 C822 1.379 1_545 S
C816 N824 1.356 . S
C817 C816 1.363 1_655 S
C817 C823 1.363 . S
C818 C819 1.363 1_655 S
C818 C823 1.379 1_565 S
C818 N825 1.356 . S
C819 C818 1.363 1_455 S
C819 C822 1.363 . S
N820 C822 1.356 . S
N820 H832 0.984 . S
N820 H833 0.985 . S
N821 C823 1.356 . S
N821 H826 0.984 . S
N821 H827 0.985 . S
C822 C816 1.379 1_565 S
C822 C819 1.363 . S
C822 N820 1.356 . S
C823 C817 1.363 . S
C823 C818 1.379 1_545 S
C823 N821 1.356 . S
N824 C816 1.356 . S
N824 H830 0.984 . S
N824 H831 0.984 . S
N825 C818 1.356 . S
N825 H828 0.984 . S
N825 H829 0.985 . S
H826 N821 0.984 . S
H827 N821 0.985 . S
H828 N825 0.984 . S
H829 N825 0.985 . S
H830 N824 0.984 . S
H831 N824 0.984 . S
H832 N820 0.984 . S
H833 N820 0.985 . S
C834 C835 1.363 1_565 S
C834 C840 1.379 1_455 S
C834 N842 1.356 . S
C835 C834 1.363 1_545 S
C835 C841 1.363 . S
C836 C837 1.363 1_545 S
C836 C841 1.379 1_655 S
C836 N843 1.356 . S
C837 C836 1.363 1_565 S
C837 C840 1.363 . S
N838 C840 1.356 . S
N838 H850 0.984 . S
N838 H851 0.985 . S
N839 C841 1.356 . S
N839 H844 0.984 . S
N839 H845 0.985 . S
C840 C834 1.379 1_655 S
C840 C837 1.363 . S
C840 N838 1.356 . S
C841 C835 1.363 . S
C841 C836 1.379 1_455 S
C841 N839 1.356 . S
N842 C834 1.356 . S
N842 H848 0.984 . S
N842 H849 0.984 . S
N843 C836 1.356 . S
N843 H846 0.984 . S
N843 H847 0.985 . S
H844 N839 0.984 . S
H845 N839 0.985 . S
H846 N843 0.984 . S
H847 N843 0.985 . S
H848 N842 0.984 . S
H849 N842 0.984 . S
H850 N838 0.984 . S
H851 N838 0.985 . S
C852 C853 1.363 1_655 S
C852 C858 1.379 . S
C852 N860 1.356 . S
C853 C852 1.363 1_455 S
C853 C859 1.363 . S
C854 C855 1.363 1_455 S
C854 C859 1.379 . S
C854 N861 1.356 . S
C855 C854 1.363 1_655 S
C855 C858 1.363 . S
N856 C858 1.356 . S
N856 H868 0.984 . S
N856 H869 0.985 . S
N857 C859 1.356 . S
N857 H862 0.984 . S
N857 H863 0.985 . S
C858 C852 1.379 . S
C858 C855 1.363 . S
C858 N856 1.356 . S
C859 C853 1.363 . S
C859 C854 1.379 . S
C859 N857 1.356 . S
N860 C852 1.356 . S
N860 H866 0.984 . S
N860 H867 0.984 . S
N861 C854 1.356 . S
N861 H864 0.984 . S
N861 H865 0.985 . S
H862 N857 0.984 . S
H863 N857 0.985 . S
H864 N861 0.984 . S
H865 N861 0.985 . S
H866 N860 0.984 . S
H867 N860 0.984 . S
H868 N856 0.984 . S
H869 N856 0.985 . S
C870 C871 1.363 . S
C870 C876 1.379 . S
C870 N878 1.356 . S
C871 C870 1.363 . S
C871 C877 1.363 1_565 S
C872 C873 1.363 . S
C872 C877 1.379 . S
C872 N879 1.356 . S
C873 C872 1.363 . S
C873 C876 1.363 1_545 S
N874 C876 1.356 . S
N874 H886 0.984 . S
N874 H887 0.985 . S
N875 C877 1.356 . S
N875 H880 0.984 . S
N875 H881 0.985 . S
C876 C870 1.379 . S
C876 C873 1.363 1_565 S
C876 N874 1.356 . S
C877 C871 1.363 1_545 S
C877 C872 1.379 . S
C877 N875 1.356 . S
N878 C870 1.356 . S
N878 H884 0.984 . S
N878 H885 0.984 . S
N879 C872 1.356 . S
N879 H882 0.984 . S
N879 H883 0.985 . S
H880 N875 0.984 . S
H881 N875 0.985 . S
H882 N879 0.984 . S
H883 N879 0.985 . S
H884 N878 0.984 . S
H885 N878 0.984 . S
H886 N874 0.984 . S
H887 N874 0.985 . S
C888 C889 1.363 . S
C888 C894 1.379 . S
C888 N896 1.356 . S
C889 C888 1.363 . S
C889 C895 1.363 . S
C890 C891 1.363 . S
C890 C895 1.379 . S
C890 N897 1.356 . S
C891 C890 1.363 . S
C891 C894 1.363 . S
N892 C894 1.356 . S
N892 H904 0.984 . S
N892 H905 0.985 . S
N893 C895 1.356 . S
N893 H898 0.984 . S
N893 H899 0.985 . S
C894 C888 1.379 . S
C894 C891 1.363 . S
C894 N892 1.356 . S
C895 C889 1.363 . S
C895 C890 1.379 . S
C895 N893 1.356 . S
N896 C888 1.356 . S
N896 H902 0.984 . S
N896 H903 0.984 . S
N897 C890 1.356 . S
N897 H900 0.984 . S
N897 H901 0.985 . S
H898 N893 0.984 . S
H899 N893 0.985 . S
H900 N897 0.984 . S
H901 N897 0.985 . S
H902 N896 0.984 . S
H903 N896 0.984 . S
H904 N892 0.984 . S
H905 N892 0.985 . S
C906 C907 1.363 . S
C906 C912 1.379 . S
C906 N914 1.356 . S
C907 C906 1.363 . S
C907 C913 1.363 . S
C908 C909 1.363 . S
C908 C913 1.379 . S
C908 N915 1.356 . S
C909 C908 1.363 . S
C909 C912 1.363 . S
N910 C912 1.356 . S
N910 H922 0.984 . S
N910 H923 0.985 . S
N911 C913 1.356 . S
N911 H916 0.984 . S
N911 H917 0.985 . S
C912 C906 1.379 . S
C912 C909 1.363 . S
C912 N910 1.356 . S
C913 C907 1.363 . S
C913 C908 1.379 . S
C913 N911 1.356 . S
N914 C906 1.356 . S
N914 H920 0.984 . S
N914 H921 0.984 . S
N915 C908 1.356 . S
N915 H918 0.984 . S
N915 H919 0.985 . S
H916 N911 0.984 . S
H917 N911 0.985 . S
H918 N915 0.984 . S
H919 N915 0.985 . S
H920 N914 0.984 . S
H921 N914 0.984 . S
H922 N910 0.984 . S
H923 N910 0.985 . S
C924 C925 1.363 . S
C924 C930 1.379 1_565 S
C924 N932 1.356 . S
C925 C924 1.363 . S
C925 C931 1.363 . S
C926 C927 1.363 . S
C926 C931 1.379 1_545 S
C926 N933 1.356 . S
C927 C926 1.363 . S
C927 C930 1.363 . S
N928 C930 1.356 . S
N928 H940 0.984 . S
N928 H941 0.985 . S
N929 C931 1.356 . S
N929 H934 0.984 . S
N929 H935 0.985 . S
C930 C924 1.379 1_545 S
C930 C927 1.363 . S
C930 N928 1.356 . S
C931 C925 1.363 . S
C931 C926 1.379 1_565 S
C931 N929 1.356 . S
N932 C924 1.356 . S
N932 H938 0.984 . S
N932 H939 0.984 . S
N933 C926 1.356 . S
N933 H936 0.984 . S
N933 H937 0.985 . S
H934 N929 0.984 . S
H935 N929 0.985 . S
H936 N933 0.984 . S
H937 N933 0.985 . S
H938 N932 0.984 . S
H939 N932 0.984 . S
H940 N928 0.984 . S
H941 N928 0.985 . S
C942 C943 1.363 . S
C942 C948 1.379 1_455 S
C942 N950 1.356 . S
C943 C942 1.363 . S
C943 C949 1.363 . S
C944 C945 1.363 . S
C944 C949 1.379 1_655 S
C944 N951 1.356 . S
C945 C944 1.363 . S
C945 C948 1.363 . S
N946 C948 1.356 . S
N946 H958 0.984 . S
N946 H959 0.985 . S
N947 C949 1.356 . S
N947 H952 0.984 . S
N947 H953 0.985 . S
C948 C942 1.379 1_655 S
C948 C945 1.363 . S
C948 N946 1.356 . S
C949 C943 1.363 . S
C949 C944 1.379 1_455 S
C949 N947 1.356 . S
N950 C942 1.356 . S
N950 H956 0.984 . S
N950 H957 0.984 . S
N951 C944 1.356 . S
N951 H954 0.984 . S
N951 H955 0.985 . S
H952 N947 0.984 . S
H953 N947 0.985 . S
H954 N951 0.984 . S
H955 N951 0.985 . S
H956 N950 0.984 . S
H957 N950 0.984 . S
H958 N946 0.984 . S
H959 N946 0.985 . S
C960 C961 1.363 . S
C960 C966 1.379 . S
C960 N968 1.356 . S
C961 C960 1.363 . S
C961 C967 1.363 1_455 S
C962 C963 1.363 . S
C962 C967 1.379 . S
C962 N969 1.356 . S
C963 C962 1.363 . S
C963 C966 1.363 1_655 S
N964 C966 1.356 . S
N964 H976 0.984 . S
N964 H977 0.985 1_455 S
N965 C967 1.356 . S
N965 H970 0.984 1_655 S
N965 H971 0.985 . S
C966 C960 1.379 . S
C966 C963 1.363 1_455 S
C966 N964 1.356 . S
C967 C961 1.363 1_655 S
C967 C962 1.379 . S
C967 N965 1.356 . S
N968 C960 1.356 . S
N968 H974 0.984 . S
N968 H975 0.984 . S
N969 C962 1.356 . S
N969 H972 0.984 . S
N969 H973 0.985 . S
H970 N965 0.984 1_455 S
H971 N965 0.985 . S
H972 N969 0.984 . S
H973 N969 0.985 . S
H974 N968 0.984 . S
H975 N968 0.984 . S
H976 N964 0.984 . S
H977 N964 0.985 1_655 S
C978 C979 1.363 . S
C978 C984 1.379 . S
C978 N986 1.356 . S
C979 C978 1.363 . S
C979 C985 1.363 1_545 S
C980 C981 1.363 . S
C980 C985 1.379 . S
C980 N987 1.356 . S
C981 C980 1.363 . S
C981 C984 1.363 1_565 S
N982 C984 1.356 . S
N982 H994 0.984 . S
N982 H995 0.985 1_545 S
N983 C985 1.356 . S
N983 H988 0.984 1_565 S
N983 H989 0.985 . S
C984 C978 1.379 . S
C984 C981 1.363 1_545 S
C984 N982 1.356 . S
C985 C979 1.363 1_565 S
C985 C980 1.379 . S
C985 N983 1.356 . S
N986 C978 1.356 . S
N986 H992 0.984 . S
N986 H993 0.984 . S
N987 C980 1.356 . S
N987 H990 0.984 . S
N987 H991 0.985 . S
H988 N983 0.984 1_545 S
H989 N983 0.985 . S
H990 N987 0.984 . S
H991 N987 0.985 . S
H992 N986 0.984 . S
H993 N986 0.984 . S
H994 N982 0.984 . S
H995 N982 0.985 1_565 S
C996 C997 1.363 1_455 S
C996 C1002 1.379 1_545 S
C996 N1004 1.356 . S
C997 C996 1.363 1_655 S
C997 C1003 1.363 . S
C998 C999 1.363 1_655 S
C998 C1003 1.379 1_565 S
C998 N1005 1.356 . S
C999 C998 1.363 1_455 S
C999 C1002 1.363 . S
N1000 C1002 1.356 . S
N1000 H1012 0.984 . S
N1000 H1013 0.985 . S
N1001 C1003 1.356 . S
N1001 H1006 0.984 . S
N1001 H1007 0.985 . S
C1002 C996 1.379 1_565 S
C1002 C999 1.363 . S
C1002 N1000 1.356 . S
C1003 C997 1.363 . S
C1003 C998 1.379 1_545 S
C1003 N1001 1.356 . S
N1004 C996 1.356 . S
N1004 H1010 0.984 . S
N1004 H1011 0.984 1_455 S
N1005 C998 1.356 . S
N1005 H1008 0.984 1_655 S
N1005 H1009 0.985 . S
H1006 N1001 0.984 . S
H1007 N1001 0.985 . S
H1008 N1005 0.984 1_455 S
H1009 N1005 0.985 . S
H1010 N1004 0.984 . S
H1011 N1004 0.984 1_655 S
H1012 N1000 0.984 . S
H1013 N1000 0.985 . S
C1014 C1015 1.363 . S
C1014 C1020 1.379 1_655 S
C1014 N1022 1.356 . S
C1015 C1014 1.363 . S
C1015 C1021 1.363 1_565 S
C1016 C1017 1.363 . S
C1016 C1021 1.379 1_455 S
C1016 N1023 1.356 . S
C1017 C1016 1.363 . S
C1017 C1020 1.363 1_545 S
N1018 C1020 1.356 . S
N1018 H1030 0.984 . S
N1018 H1031 0.985 1_565 S
N1019 C1021 1.356 . S
N1019 H1024 0.984 1_545 S
N1019 H1025 0.985 . S
C1020 C1014 1.379 1_455 S
C1020 C1017 1.363 1_565 S
C1020 N1018 1.356 . S
C1021 C1015 1.363 1_545 S
C1021 C1016 1.379 1_655 S
C1021 N1019 1.356 . S
N1022 C1014 1.356 . S
N1022 H1028 0.984 . S
N1022 H1029 0.984 . S
N1023 C1016 1.356 . S
N1023 H1026 0.984 . S
N1023 H1027 0.985 . S
H1024 N1019 0.984 1_565 S
H1025 N1019 0.985 . S
H1026 N1023 0.984 . S
H1027 N1023 0.985 . S
H1028 N1022 0.984 . S
H1029 N1022 0.984 . S
H1030 N1018 0.984 . S
H1031 N1018 0.985 1_545 S
C1032 C1033 1.363 . S
C1032 C1038 1.379 1_545 S
C1032 N1040 1.356 . S
C1033 C1032 1.363 . S
C1033 C1039 1.363 . S
C1034 C1035 1.363 . S
C1034 C1039 1.379 1_565 S
C1034 N1041 1.356 . S
C1035 C1034 1.363 . S
C1035 C1038 1.363 . S
N1036 C1038 1.356 . S
N1036 H1048 0.984 . S
N1036 H1049 0.985 . S
N1037 C1039 1.356 . S
N1037 H1042 0.984 . S
N1037 H1043 0.985 . S
C1038 C1032 1.379 1_565 S
C1038 C1035 1.363 . S
C1038 N1036 1.356 . S
C1039 C1033 1.363 . S
C1039 C1034 1.379 1_545 S
C1039 N1037 1.356 . S
N1040 C1032 1.356 . S
N1040 H1046 0.984 . S
N1040 H1047 0.984 . S
N1041 C1034 1.356 . S
N1041 H1044 0.984 . S
N1041 H1045 0.985 . S
H1042 N1037 0.984 . S
H1043 N1037 0.985 . S
H1044 N1041 0.984 . S
H1045 N1041 0.985 . S
H1046 N1040 0.984 . S
H1047 N1040 0.984 . S
H1048 N1036 0.984 . S
H1049 N1036 0.985 . S
C1050 C1051 1.363 . S
C1050 C1056 1.379 1_655 S
C1050 N1058 1.356 . S
C1051 C1050 1.363 . S
C1051 C1057 1.363 . S
C1052 C1053 1.363 . S
C1052 C1057 1.379 1_455 S
C1052 N1059 1.356 . S
C1053 C1052 1.363 . S
C1053 C1056 1.363 . S
N1054 C1056 1.356 . S
N1054 H1066 0.984 . S
N1054 H1067 0.985 . S
N1055 C1057 1.356 . S
N1055 H1060 0.984 . S
N1055 H1061 0.985 . S
C1056 C1050 1.379 1_455 S
C1056 C1053 1.363 . S
C1056 N1054 1.356 . S
C1057 C1051 1.363 . S
C1057 C1052 1.379 1_655 S
C1057 N1055 1.356 . S
N1058 C1050 1.356 . S
N1058 H1064 0.984 . S
N1058 H1065 0.984 . S
N1059 C1052 1.356 . S
N1059 H1062 0.984 . S
N1059 H1063 0.985 . S
H1060 N1055 0.984 . S
H1061 N1055 0.985 . S
H1062 N1059 0.984 . S
H1063 N1059 0.985 . S
H1064 N1058 0.984 . S
H1065 N1058 0.984 . S
H1066 N1054 0.984 . S
H1067 N1054 0.985 . S
C1068 C1069 1.363 . S
C1068 C1074 1.379 . S
C1068 N1076 1.356 . S
C1069 C1068 1.363 . S
C1069 C1075 1.363 . S
C1070 C1071 1.363 . S
C1070 C1075 1.379 . S
C1070 N1077 1.356 . S
C1071 C1070 1.363 . S
C1071 C1074 1.363 . S
N1072 C1074 1.356 . S
N1072 H1084 0.984 . S
N1072 H1085 0.985 . S
N1073 C1075 1.356 . S
N1073 H1078 0.984 . S
N1073 H1079 0.985 . S
C1074 C1068 1.379 . S
C1074 C1071 1.363 . S
C1074 N1072 1.356 . S
C1075 C1069 1.363 . S
C1075 C1070 1.379 . S
C1075 N1073 1.356 . S
N1076 C1068 1.356 . S
N1076 H1082 0.984 . S
N1076 H1083 0.984 . S
N1077 C1070 1.356 . S
N1077 H1080 0.984 . S
N1077 H1081 0.985 . S
H1078 N1073 0.984 . S
H1079 N1073 0.985 . S
H1080 N1077 0.984 . S
H1081 N1077 0.985 . S
H1082 N1076 0.984 . S
H1083 N1076 0.984 . S
H1084 N1072 0.984 . S
H1085 N1072 0.985 . S
C1086 C1087 1.363 . S
C1086 C1092 1.379 . S
C1086 N1094 1.356 . S
C1087 C1086 1.363 . S
C1087 C1093 1.363 . S
C1088 C1089 1.363 . S
C1088 C1093 1.379 . S
C1088 N1095 1.356 . S
C1089 C1088 1.363 . S
C1089 C1092 1.363 . S
N1090 C1092 1.356 . S
N1090 H1102 0.984 . S
N1090 H1103 0.985 . S
N1091 C1093 1.356 . S
N1091 H1096 0.984 . S
N1091 H1097 0.985 . S
C1092 C1086 1.379 . S
C1092 C1089 1.363 . S
C1092 N1090 1.356 . S
C1093 C1087 1.363 . S
C1093 C1088 1.379 . S
C1093 N1091 1.356 . S
N1094 C1086 1.356 . S
N1094 H1100 0.984 . S
N1094 H1101 0.984 . S
N1095 C1088 1.356 . S
N1095 H1098 0.984 . S
N1095 H1099 0.985 . S
H1096 N1091 0.984 . S
H1097 N1091 0.985 . S
H1098 N1095 0.984 . S
H1099 N1095 0.985 . S
H1100 N1094 0.984 . S
H1101 N1094 0.984 . S
H1102 N1090 0.984 . S
H1103 N1090 0.985 . S
C1104 C1105 1.363 . S
C1104 C1110 1.379 . S
C1104 N1112 1.356 . S
C1105 C1104 1.363 . S
C1105 C1111 1.363 . S
C1106 C1107 1.363 . S
C1106 C1111 1.379 . S
C1106 N1113 1.356 . S
C1107 C1106 1.363 . S
C1107 C1110 1.363 . S
N1108 C1110 1.356 . S
N1108 H1120 0.984 . S
N1108 H1121 0.985 . S
N1109 C1111 1.356 . S
N1109 H1114 0.984 . S
N1109 H1115 0.985 . S
C1110 C1104 1.379 . S
C1110 C1107 1.363 . S
C1110 N1108 1.356 . S
C1111 C1105 1.363 . S
C1111 C1106 1.379 . S
C1111 N1109 1.356 . S
N1112 C1104 1.356 . S
N1112 H1118 0.984 . S
N1112 H1119 0.984 . S
N1113 C1106 1.356 . S
N1113 H1116 0.984 . S
N1113 H1117 0.985 . S
H1114 N1109 0.984 . S
H1115 N1109 0.985 . S
H1116 N1113 0.984 . S
H1117 N1113 0.985 . S
H1118 N1112 0.984 . S
H1119 N1112 0.984 . S
H1120 N1108 0.984 . S
H1121 N1108 0.985 . S
C1122 C1123 1.363 . S
C1122 C1128 1.379 . S
C1122 N1130 1.356 . S
C1123 C1122 1.363 . S
C1123 C1129 1.363 . S
C1124 C1125 1.363 . S
C1124 C1129 1.379 . S
C1124 N1131 1.356 . S
C1125 C1124 1.363 . S
C1125 C1128 1.363 . S
N1126 C1128 1.356 . S
N1126 H1138 0.984 . S
N1126 H1139 0.985 . S
N1127 C1129 1.356 . S
N1127 H1132 0.984 . S
N1127 H1133 0.985 . S
C1128 C1122 1.379 . S
C1128 C1125 1.363 . S
C1128 N1126 1.356 . S
C1129 C1123 1.363 . S
C1129 C1124 1.379 . S
C1129 N1127 1.356 . S
N1130 C1122 1.356 . S
N1130 H1136 0.984 . S
N1130 H1137 0.984 . S
N1131 C1124 1.356 . S
N1131 H1134 0.984 . S
N1131 H1135 0.985 . S
H1132 N1127 0.984 . S
H1133 N1127 0.985 . S
H1134 N1131 0.984 . S
H1135 N1131 0.985 . S
H1136 N1130 0.984 . S
H1137 N1130 0.984 . S
H1138 N1126 0.984 . S
H1139 N1126 0.985 . S
C1140 C1141 1.363 . S
C1140 C1146 1.379 . S
C1140 N1148 1.356 . S
C1141 C1140 1.363 . S
C1141 C1147 1.363 . S
C1142 C1143 1.363 . S
C1142 C1147 1.379 . S
C1142 N1149 1.356 . S
C1143 C1142 1.363 . S
C1143 C1146 1.363 . S
N1144 C1146 1.356 . S
N1144 H1156 0.984 . S
N1144 H1157 0.985 . S
N1145 C1147 1.356 . S
N1145 H1150 0.984 . S
N1145 H1151 0.985 . S
C1146 C1140 1.379 . S
C1146 C1143 1.363 . S
C1146 N1144 1.356 . S
C1147 C1141 1.363 . S
C1147 C1142 1.379 . S
C1147 N1145 1.356 . S
N1148 C1140 1.356 . S
N1148 H1154 0.984 . S
N1148 H1155 0.984 . S
N1149 C1142 1.356 . S
N1149 H1152 0.984 . S
N1149 H1153 0.985 . S
H1150 N1145 0.984 . S
H1151 N1145 0.985 . S
H1152 N1149 0.984 . S
H1153 N1149 0.985 . S
H1154 N1148 0.984 . S
H1155 N1148 0.984 . S
H1156 N1144 0.984 . S
H1157 N1144 0.985 . S
C1158 C1159 1.363 . S
C1158 C1164 1.379 . S
C1158 N1166 1.356 . S
C1159 C1158 1.363 . S
C1159 C1165 1.363 . S
C1160 C1161 1.363 . S
C1160 C1165 1.379 . S
C1160 N1167 1.356 . S
C1161 C1160 1.363 . S
C1161 C1164 1.363 . S
N1162 C1164 1.356 . S
N1162 H1174 0.984 . S
N1162 H1175 0.985 . S
N1163 C1165 1.356 . S
N1163 H1168 0.984 . S
N1163 H1169 0.985 . S
C1164 C1158 1.379 . S
C1164 C1161 1.363 . S
C1164 N1162 1.356 . S
C1165 C1159 1.363 . S
C1165 C1160 1.379 . S
C1165 N1163 1.356 . S
N1166 C1158 1.356 . S
N1166 H1172 0.984 . S
N1166 H1173 0.984 . S
N1167 C1160 1.356 . S
N1167 H1170 0.984 . S
N1167 H1171 0.985 . S
H1168 N1163 0.984 . S
H1169 N1163 0.985 . S
H1170 N1167 0.984 . S
H1171 N1167 0.985 . S
H1172 N1166 0.984 . S
H1173 N1166 0.984 . S
H1174 N1162 0.984 . S
H1175 N1162 0.985 . S
C1176 C1177 1.363 . S
C1176 C1182 1.379 . S
C1176 N1184 1.356 . S
C1177 C1176 1.363 . S
C1177 C1183 1.363 . S
C1178 C1179 1.363 . S
C1178 C1183 1.379 . S
C1178 N1185 1.356 . S
C1179 C1178 1.363 . S
C1179 C1182 1.363 . S
N1180 C1182 1.356 . S
N1180 H1192 0.984 . S
N1180 H1193 0.985 . S
N1181 C1183 1.356 . S
N1181 H1186 0.984 . S
N1181 H1187 0.985 . S
C1182 C1176 1.379 . S
C1182 C1179 1.363 . S
C1182 N1180 1.356 . S
C1183 C1177 1.363 . S
C1183 C1178 1.379 . S
C1183 N1181 1.356 . S
N1184 C1176 1.356 . S
N1184 H1190 0.984 . S
N1184 H1191 0.984 . S
N1185 C1178 1.356 . S
N1185 H1188 0.984 . S
N1185 H1189 0.985 . S
H1186 N1181 0.984 . S
H1187 N1181 0.985 . S
H1188 N1185 0.984 . S
H1189 N1185 0.985 . S
H1190 N1184 0.984 . S
H1191 N1184 0.984 . S
H1192 N1180 0.984 . S
H1193 N1180 0.985 . S
C1194 C1195 1.363 . S
C1194 C1200 1.379 . S
C1194 N1202 1.356 . S
C1195 C1194 1.363 . S
C1195 C1201 1.363 . S
C1196 C1197 1.363 . S
C1196 C1201 1.379 . S
C1196 N1203 1.356 . S
C1197 C1196 1.363 . S
C1197 C1200 1.363 . S
N1198 C1200 1.356 . S
N1198 H1210 0.984 . S
N1198 H1211 0.985 . S
N1199 C1201 1.356 . S
N1199 H1204 0.984 . S
N1199 H1205 0.985 . S
C1200 C1194 1.379 . S
C1200 C1197 1.363 . S
C1200 N1198 1.356 . S
C1201 C1195 1.363 . S
C1201 C1196 1.379 . S
C1201 N1199 1.356 . S
N1202 C1194 1.356 . S
N1202 H1208 0.984 . S
N1202 H1209 0.984 . S
N1203 C1196 1.356 . S
N1203 H1206 0.984 . S
N1203 H1207 0.985 . S
H1204 N1199 0.984 . S
H1205 N1199 0.985 . S
H1206 N1203 0.984 . S
H1207 N1203 0.985 . S
H1208 N1202 0.984 . S
H1209 N1202 0.984 . S
H1210 N1198 0.984 . S
H1211 N1198 0.985 . S
C1212 C1213 1.363 . S
C1212 C1218 1.379 . S
C1212 N1220 1.356 . S
C1213 C1212 1.363 . S
C1213 C1219 1.363 . S
C1214 C1215 1.363 . S
C1214 C1219 1.379 . S
C1214 N1221 1.356 . S
C1215 C1214 1.363 . S
C1215 C1218 1.363 . S
N1216 C1218 1.356 . S
N1216 H1228 0.984 . S
N1216 H1229 0.985 . S
N1217 C1219 1.356 . S
N1217 H1222 0.984 . S
N1217 H1223 0.985 . S
C1218 C1212 1.379 . S
C1218 C1215 1.363 . S
C1218 N1216 1.356 . S
C1219 C1213 1.363 . S
C1219 C1214 1.379 . S
C1219 N1217 1.356 . S
N1220 C1212 1.356 . S
N1220 H1226 0.984 . S
N1220 H1227 0.984 . S
N1221 C1214 1.356 . S
N1221 H1224 0.984 . S
N1221 H1225 0.985 . S
H1222 N1217 0.984 . S
H1223 N1217 0.985 . S
H1224 N1221 0.984 . S
H1225 N1221 0.985 . S
H1226 N1220 0.984 . S
H1227 N1220 0.984 . S
H1228 N1216 0.984 . S
H1229 N1216 0.985 . S
C1230 C1231 1.363 . S
C1230 C1236 1.379 . S
C1230 N1238 1.356 . S
C1231 C1230 1.363 . S
C1231 C1237 1.363 . S
C1232 C1233 1.363 . S
C1232 C1237 1.379 . S
C1232 N1239 1.356 . S
C1233 C1232 1.363 . S
C1233 C1236 1.363 . S
N1234 C1236 1.356 . S
N1234 H1246 0.984 . S
N1234 H1247 0.985 . S
N1235 C1237 1.356 . S
N1235 H1240 0.984 . S
N1235 H1241 0.985 . S
C1236 C1230 1.379 . S
C1236 C1233 1.363 . S
C1236 N1234 1.356 . S
C1237 C1231 1.363 . S
C1237 C1232 1.379 . S
C1237 N1235 1.356 . S
N1238 C1230 1.356 . S
N1238 H1244 0.984 . S
N1238 H1245 0.984 . S
N1239 C1232 1.356 . S
N1239 H1242 0.984 . S
N1239 H1243 0.985 . S
H1240 N1235 0.984 . S
H1241 N1235 0.985 . S
H1242 N1239 0.984 . S
H1243 N1239 0.985 . S
H1244 N1238 0.984 . S
H1245 N1238 0.984 . S
H1246 N1234 0.984 . S
H1247 N1234 0.985 . S
C529 C8 1.174 . S
C531 N377 1.184 . S
C547 N278 1.184 . S
C549 C41 1.174 . S
C565 N311 1.184 . S
C567 C74 1.174 . S
C583 N344 1.184 . S
C585 C107 1.174 . S
C601 N179 1.184 . S
C603 C140 1.174 . S
C619 N212 1.184 . S
C621 C173 1.174 . S
C637 C206 1.174 . S
C639 N245 1.184 . S
C655 C239 1.174 . S
C657 N146 1.184 . S
C673 C272 1.174 . S
C675 N113 1.184 . S
C691 C305 1.174 . S
C693 N14 1.184 . S
C709 N47 1.184 . S
C711 C338 1.174 . S
C727 C371 1.174 . S
C729 N80 1.184 . S
C745 N443 1.184 . S
C747 C404 1.174 . S
C763 N476 1.184 . S
C765 C437 1.174 . S
C781 N509 1.184 . S
C783 C470 1.174 . S
C799 C503 1.174 . S
C801 N410 1.184 . S
C817 C17 1.600 . S
C819 C83 1.600 . S
C835 C50 1.600 . S
C837 C116 1.600 . S
C853 C215 1.600 . S
C855 C149 1.600 . S
C871 C248 1.600 . S
C873 C182 1.600 . S
C889 C347 1.600 . S
C891 C281 1.600 . S
C907 C314 1.600 . S
C909 C380 1.600 . S
C925 C413 1.600 . S
C927 C479 1.600 . S
C943 C512 1.600 . S
C945 C446 1.600 . S
C961 C94 0.992 . S
C963 C28 0.992 . S
C979 C61 0.992 . S
C981 C127 0.992 . S
C997 C160 0.992 . S
C999 C226 0.992 . S
C1015 C259 0.992 . S
C1017 C193 0.992 . S
C1033 C358 0.992 . S
C1035 C292 0.992 . S
C1051 C325 0.992 . S
C1053 C391 0.992 . S
C1069 C424 0.992 . S
C1071 C490 0.992 . S
C1087 C523 0.992 . S
C1089 C457 0.992 . S
C1105 N467 1.481 . S
C1107 N5 1.481 . S
C1123 N38 1.481 . S
C1125 N500 1.481 . S
C1141 N71 1.481 . S
C1143 N401 1.481 . S
C1159 N104 1.481 . S
C1161 N434 1.481 . S
C1177 N137 1.481 . S
C1179 N335 1.481 . S
C1195 N368 1.481 . S
C1197 N170 1.481 . S
C1213 N203 1.481 . S
C1215 N269 1.481 . S
C1231 N236 1.481 . S
C1233 N302 1.481 . S
