# Generated by pormake.
# Topology umx, (4)-cn, num edge types: 1
# Building blocks:
#     Node 0, Type 0, BuildingBlock: ESEHIV_clean_sbu_0, # of connection points: 4
#     Node 1, Type 0, BuildingBlock: ESEHIV_clean_sbu_0, # of connection points: 4
#     Node 2, Type 0, BuildingBlock: ESEHIV_clean_sbu_0, # of connection points: 4
#     Node 3, Type 0, BuildingBlock: ESEHIV_clean_sbu_0, # of connection points: 4
#     Node 4, Type 0, BuildingBlock: ESEHIV_clean_sbu_0, # of connection points: 4
#     Node 5, Type 0, BuildingBlock: ESEHIV_clean_sbu_0, # of connection points: 4
#     Node 6, Type 0, BuildingBlock: ESEHIV_clean_sbu_0, # of connection points: 4
#     Node 7, Type 0, BuildingBlock: ESEHIV_clean_sbu_0, # of connection points: 4
#     Edge 8, Type (0, 0), BuildingBlock: KIFKEQ_clean_linker_1, # of connection points: 2
#     Edge 9, Type (0, 0), BuildingBlock: KIFKEQ_clean_linker_1, # of connection points: 2
#     Edge 10, Type (0, 0), BuildingBlock: KIFKEQ_clean_linker_1, # of connection points: 2
#     Edge 11, Type (0, 0), BuildingBlock: KIFKEQ_clean_linker_1, # of connection points: 2
#     Edge 12, Type (0, 0), BuildingBlock: KIFKEQ_clean_linker_1, # of connection points: 2
#     Edge 13, Type (0, 0), BuildingBlock: KIFKEQ_clean_linker_1, # of connection points: 2
#     Edge 14, Type (0, 0), BuildingBlock: KIFKEQ_clean_linker_1, # of connection points: 2
#     Edge 15, Type (0, 0), BuildingBlock: KIFKEQ_clean_linker_1, # of connection points: 2
#     Edge 16, Type (0, 0), BuildingBlock: KIFKEQ_clean_linker_1, # of connection points: 2
#     Edge 17, Type (0, 0), BuildingBlock: KIFKEQ_clean_linker_1, # of connection points: 2
#     Edge 18, Type (0, 0), BuildingBlock: KIFKEQ_clean_linker_1, # of connection points: 2
#     Edge 19, Type (0, 0), BuildingBlock: KIFKEQ_clean_linker_1, # of connection points: 2
#     Edge 20, Type (0, 0), BuildingBlock: KIFKEQ_clean_linker_1, # of connection points: 2
#     Edge 21, Type (0, 0), BuildingBlock: KIFKEQ_clean_linker_1, # of connection points: 2
#     Edge 22, Type (0, 0), BuildingBlock: KIFKEQ_clean_linker_1, # of connection points: 2
#     Edge 23, Type (0, 0), BuildingBlock: KIFKEQ_clean_linker_1, # of connection points: 2
# Relax obj value: 0.114
# Max RMSD: 0.185
# Mean RMSD: 0.174
data_MOF--net-umx--node1-ESEHIV_clean_sbu_0--edge1-KIFKEQ_clean_linker_1
_symmetry_space_group_name_H-M    P1
_symmetry_Int_Tables_number       1
_symmetry_cell_setting            triclinic
loop_
_symmetry_equiv_pos_as_xyz
'x, y, z'
_cell_length_a     39.463371
_cell_length_b     46.146972
_cell_length_c     30.472431
_cell_angle_alpha  89.85744
_cell_angle_beta   90.520254
_cell_angle_gamma 89.928395
loop_
_atom_site_label
_atom_site_type_symbol
_atom_site_fract_x
_atom_site_fract_y
_atom_site_fract_z
_atom_type_partial_charge
Cu0 Cu 0.15142 0.42874 0.09382 0.0
N1 N 0.16173 0.46049 0.05819 0.0
N2 N 0.16158 0.49374 1.00454 0.0
C3 C 0.14868 0.46826 1.01882 0.0
C4 C 0.18349 0.50216 1.03633 0.0
C5 C 0.18351 0.48169 0.06916 0.0
O6 O 0.177 0.395 0.07543 0.0
C7 C 0.08532 0.41469 0.0613 0.0
O8 O 0.10063 0.40758 1.02477 0.0
H9 H 0.13023 0.45548 1.00104 0.0
H10 H 0.19804 0.48242 0.0994 0.0
N11 N 0.16532 0.43856 0.15034 0.0
N12 N 0.17034 0.46331 0.21308 0.0
C13 C 0.15147 0.45878 0.17644 0.0
C14 C 0.19386 0.42992 0.17085 0.0
C15 C 0.197 0.44504 0.20952 0.0
C16 C 0.17742 0.37161 0.09769 0.0
O17 O 0.15761 0.36928 0.13194 0.0
H18 H 0.12852 0.47039 0.16788 0.0
H19 H 0.21186 0.41462 0.15769 0.0
O20 O 0.10285 0.42275 0.09427 0.0
H21 H 0.19803 0.52202 1.03651 0.0
H22 H 0.2182 0.44347 0.23214 0.0
Cu23 Cu 0.55882 0.19295 0.57686 0.0
N24 N 0.57892 0.1563 0.5745 0.0
N25 N 0.57977 0.10788 0.57136 0.0
C26 C 0.56104 0.13214 0.56607 0.0
C27 C 0.61087 0.11719 0.58361 0.0
C28 C 0.6103 0.14715 0.58543 0.0
O29 O 0.53295 0.19313 0.63272 0.0
C30 C 0.55324 0.19553 0.48543 0.0
O31 O 0.58568 0.19021 0.49144 0.0
H32 H 0.53419 0.1324 0.55849 0.0
H33 H 0.63085 0.16109 0.59578 0.0
N34 N 0.58985 0.22333 0.58374 0.0
N35 N 0.63551 0.25161 0.59045 0.0
C36 C 0.62325 0.22615 0.5751 0.0
C37 C 0.581 0.2479 0.60437 0.0
C38 C 0.60897 0.26526 0.60872 0.0
C39 C 0.55165 0.18964 0.66708 0.0
O40 O 0.58434 0.18606 0.66138 0.0
H41 H 0.6384 0.2097 0.55932 0.0
H42 H 0.55587 0.25248 0.61647 0.0
O43 O 0.53477 0.19832 0.51962 0.0
H44 H 0.63226 0.10339 0.59155 0.0
H45 H 0.60983 0.28632 0.62427 0.0
Cu46 Cu 0.8385 0.57627 0.05362 0.0
N47 N 0.85607 0.59324 1.00322 0.0
N48 N 0.87014 0.59505 0.93248 0.0
C49 C 0.86538 0.57799 0.9678 0.0
C50 C 0.86349 0.62225 0.94614 0.0
C51 C 0.85486 0.62108 0.99002 0.0
O52 O 0.78989 0.5827 0.05103 0.0
C53 C 0.88593 0.53413 0.05534 0.0
O54 O 0.90395 0.55806 0.05504 0.0
H55 H 0.86575 0.55454 0.96691 0.0
H56 H 0.84607 0.63889 1.00993 0.0
N57 N 0.85538 0.59282 0.10532 0.0
N58 N 0.87103 0.59231 0.17595 0.0
C59 C 0.86692 0.57672 0.13906 0.0
C60 C 0.85187 0.61982 0.12141 0.0
C61 C 0.86136 0.61951 0.16533 0.0
C62 C 0.77208 0.58703 0.08503 0.0
O63 O 0.78497 0.58085 0.12384 0.0
H64 H 0.86914 0.55338 0.13784 0.0
H65 H 0.84082 0.63782 0.10353 0.0
O66 O 0.85371 0.53604 0.05393 0.0
H67 H 0.86323 0.64135 0.92543 0.0
H68 H 0.85961 0.63741 0.18809 0.0
Cu69 Cu 0.46494 0.82414 0.57277 0.0
N70 N 0.45933 0.86431 0.56601 0.0
N71 N 0.47073 0.91184 0.56472 0.0
C72 C 0.4812 0.88532 0.57829 0.0
C73 C 0.44134 0.9072 0.54292 0.0
C74 C 0.43455 0.878 0.54349 0.0
O75 O 0.48776 0.81732 0.63031 0.0
C76 C 0.46758 0.81254 0.48291 0.0
O77 O 0.43572 0.81993 0.48795 0.0
H78 H 0.50455 0.88114 0.5961 0.0
H79 H 0.41359 0.86747 0.52702 0.0
N80 N 0.42256 0.80585 0.57687 0.0
N81 N 0.3832 0.77119 0.58106 0.0
C82 C 0.41658 0.77706 0.57733 0.0
C83 C 0.39197 0.81844 0.58126 0.0
C84 C 0.36766 0.79715 0.58343 0.0
C85 C 0.47076 0.82584 0.6636 0.0
O86 O 0.44157 0.83874 0.65616 0.0
H87 H 0.43625 0.7608 0.57479 0.0
H88 H 0.38755 0.84146 0.58387 0.0
O89 O 0.48653 0.81116 0.51733 0.0
H90 H 0.4265 0.92358 0.52599 0.0
H91 H 0.34073 0.80045 0.58768 0.0
Cu92 Cu 0.17136 0.57868 0.59279 0.0
N93 N 0.1506 0.59207 0.6435 0.0
N94 N 0.1339 0.58989 0.71325 0.0
C95 C 0.14509 0.57491 0.67838 0.0
C96 C 0.13219 0.61776 0.69969 0.0
C97 C 0.14242 0.61903 0.65639 0.0
O98 O 0.21901 0.58931 0.59203 0.0
C99 C 0.13029 0.53242 0.58363 0.0
O100 O 0.10924 0.55441 0.58113 0.0
H101 H 0.15143 0.55208 0.67895 0.0
H102 H 0.1452 0.6383 0.63648 0.0
N103 N 0.15338 0.59437 0.54124 0.0
N104 N 0.14446 0.59389 0.46881 0.0
C105 C 0.16498 0.58575 0.50216 0.0
C106 C 0.12455 0.60905 0.53261 0.0
C107 C 0.11883 0.60858 0.48769 0.0
C108 C 0.23539 0.59973 0.62451 0.0
O109 O 0.22199 0.59875 0.66379 0.0
H110 H 0.18637 0.57123 0.49882 0.0
H111 H 0.10756 0.61731 0.55728 0.0
O112 O 0.16173 0.5373 0.58988 0.0
H113 H 0.12515 0.63599 0.71995 0.0
H114 H 0.09666 0.61686 0.47063 0.0
Cu115 Cu 0.46206 0.19189 0.07518 0.0
N116 N 0.44362 0.15468 0.07838 0.0
N117 N 0.44423 0.10626 0.08162 0.0
C118 C 0.46268 0.1308 0.08429 0.0
C119 C 0.41211 0.11512 0.0737 0.0
C120 C 0.41179 0.14507 0.07181 0.0
O121 O 0.4885 0.19231 1.01977 0.0
C122 C 0.467 0.19473 0.1668 0.0
O123 O 0.435 0.18785 0.16073 0.0
H124 H 0.48992 0.1315 0.08857 0.0
H125 H 0.39014 0.15874 0.06478 0.0
N126 N 0.42937 0.22089 0.06628 0.0
N127 N 0.38229 0.24763 0.06044 0.0
C128 C 0.39672 0.22379 0.0787 0.0
C129 C 0.43555 0.24383 1.04023 0.0
C130 C 0.40668 0.2602 1.03637 0.0
C131 C 0.47066 0.18646 0.98544 0.0
O132 O 0.43848 0.18031 0.99093 0.0
H133 H 0.38357 0.20849 0.09943 0.0
H134 H 0.45944 0.24799 1.0243 0.0
O135 O 0.4853 0.19853 0.13265 0.0
H136 H 0.39048 0.10102 0.0691 0.0
H137 H 0.40375 0.27991 1.01734 0.0
Cu138 Cu 0.86829 0.43139 0.55597 0.0
N139 N 0.8582 0.46465 0.58832 0.0
N140 N 0.8576 0.49869 0.64039 0.0
C141 C 0.86898 0.47217 0.62882 0.0
C142 C 0.83886 0.50812 0.606 0.0
C143 C 0.83919 0.48707 0.57407 0.0
O144 O 0.84017 0.39938 0.57522 0.0
C145 C 0.93299 0.41632 0.59384 0.0
O146 O 0.91672 0.41174 0.63061 0.0
H147 H 0.88528 0.45879 0.64913 0.0
H148 H 0.82653 0.48811 0.54249 0.0
N149 N 0.85811 0.43955 0.49746 0.0
N150 N 0.85688 0.46234 0.43281 0.0
C151 C 0.86911 0.46251 0.47429 0.0
C152 C 0.83821 0.42437 0.46982 0.0
C153 C 0.83751 0.43832 0.42979 0.0
C154 C 0.8426 0.3739 0.55963 0.0
O155 O 0.86688 0.36811 0.53175 0.0
H156 H 0.88589 0.47889 0.48758 0.0
H157 H 0.82491 0.40468 0.47822 0.0
O158 O 0.91651 0.4234 0.55938 0.0
H159 H 0.82549 0.52859 0.60427 0.0
H160 H 0.82338 0.43161 0.40097 0.0
Cu161 Cu 0.55254 0.82115 0.07566 0.0
N162 N 0.56055 0.86102 0.08117 0.0
N163 N 0.55109 0.90884 0.08302 0.0
C164 C 0.53828 0.88254 0.07262 0.0
C165 C 0.58256 0.90353 0.09883 0.0
C166 C 0.58823 0.87412 0.09787 0.0
O167 O 0.52893 0.81514 1.0184 0.0
C168 C 0.54965 0.8123 0.16592 0.0
O169 O 0.58118 0.82049 0.16032 0.0
H170 H 0.51309 0.87886 0.05949 0.0
H171 H 0.61059 0.86305 0.10996 0.0
N172 N 0.59371 0.801 0.07141 0.0
N173 N 0.63078 0.76439 0.06755 0.0
C174 C 0.59869 0.7723 0.07713 0.0
C175 C 0.62367 0.81152 0.05793 0.0
C176 C 0.64653 0.78908 0.05564 0.0
C177 C 0.54522 0.82459 0.98503 0.0
O178 O 0.57402 0.83805 0.99227 0.0
H179 H 0.57884 0.75742 0.08653 0.0
H180 H 0.62839 0.83381 1.04895 0.0
O181 O 0.5308 0.80952 0.13164 0.0
H182 H 0.59984 0.91963 0.11182 0.0
H183 H 0.67268 0.79082 1.04558 0.0
H184 H 0.12768 0.51016 0.211 0.0
H185 H 0.2 0.46483 0.2939 0.0
H186 H 0.11997 0.54623 0.26849 0.0
H187 H 0.19291 0.50128 0.35011 0.0
H188 H 0.20133 0.5844 0.42316 0.0
H189 H 0.20648 0.55506 0.35709 0.0
H190 H 0.09756 0.54789 0.3489 0.0
H191 H 0.09245 0.57714 0.41561 0.0
C192 C 0.14187 0.50766 0.24127 0.0
C193 C 0.16478 0.48445 0.24729 0.0
C194 C 0.13748 0.52849 0.27413 0.0
C195 C 0.15622 0.52678 0.31341 0.0
C196 C 0.17869 0.5035 0.31971 0.0
C197 C 0.18277 0.48256 0.28727 0.0
C198 C 0.17848 0.57699 0.40679 0.0
C199 C 0.14655 0.58268 0.42486 0.0
C200 C 0.18142 0.56015 0.36911 0.0
C201 C 0.15245 0.54874 0.34846 0.0
C202 C 0.1203 0.55641 0.36426 0.0
C203 C 0.11737 0.57325 0.40228 0.0
H204 H 0.48644 0.20047 0.69763 0.0
H205 H 0.58772 0.1795 0.74215 0.0
H206 H 0.46767 0.20137 0.7742 0.0
H207 H 0.56908 0.17969 0.81756 0.0
H208 H 0.53315 0.20544 0.9546 0.0
H209 H 0.55174 0.208 0.87802 0.0
H210 H 0.45629 0.17142 0.83555 0.0
H211 H 0.43772 0.16953 0.91097 0.0
C212 C 0.50466 0.19592 0.72354 0.0
C213 C 0.53861 0.18991 0.71325 0.0
C214 C 0.49393 0.19632 0.76764 0.0
C215 C 0.51683 0.19068 0.80271 0.0
C216 C 0.55069 0.18471 0.79208 0.0
C217 C 0.56133 0.18435 0.74833 0.0
C218 C 0.51624 0.1979 0.92889 0.0
C219 C 0.48392 0.1873 0.9394 0.0
C220 C 0.52686 0.19929 0.88479 0.0
C221 C 0.5055 0.19006 0.84994 0.0
C222 C 0.47333 0.17934 0.86083 0.0
C223 C 0.46278 0.17801 0.90457 0.0
H224 H 0.86078 0.45209 0.34597 0.0
H225 H 0.86679 0.52012 0.44263 0.0
H226 H 0.86968 0.48748 0.28779 0.0
H227 H 0.87604 0.5558 0.38409 0.0
H228 H 0.84033 0.60597 0.25252 0.0
H229 H 0.84118 0.57635 0.31948 0.0
H230 H 0.91602 0.52018 0.26164 0.0
H231 H 0.9151 0.54973 0.19516 0.0
C232 C 0.86404 0.47463 0.35473 0.0
C233 C 0.86305 0.48333 0.39878 0.0
C234 C 0.86951 0.49488 0.3215 0.0
C235 C 0.87384 0.52438 0.33146 0.0
C236 C 0.87281 0.5332 0.37552 0.0
C237 C 0.86774 0.51279 0.40894 0.0
C238 C 0.85776 0.58789 0.25485 0.0
C239 C 0.87734 0.57985 0.21857 0.0
C240 C 0.85817 0.57087 0.29303 0.0
C241 C 0.87816 0.54563 0.29533 0.0
C242 C 0.89984 0.53915 0.26041 0.0
C243 C 0.89944 0.5561 0.2225 0.0
H244 H 0.48329 0.80487 0.95204 0.0
H245 H 0.58132 0.83578 0.91128 0.0
H246 H 0.46575 0.80135 0.87463 0.0
H247 H 0.56389 0.83273 0.83506 0.0
H248 H 0.53271 0.80617 0.69661 0.0
H249 H 0.5501 0.80198 0.77398 0.0
H250 H 0.45159 0.83251 0.81366 0.0
H251 H 0.43428 0.83622 0.73736 0.0
C252 C 0.50113 0.81079 0.92677 0.0
C253 C 0.53366 0.82079 0.93832 0.0
C254 C 0.49108 0.80892 0.88226 0.0
C255 C 0.51337 0.81676 0.84809 0.0
C256 C 0.54607 0.82607 0.85993 0.0
C257 C 0.55596 0.8281 0.90408 0.0
C258 C 0.51475 0.81177 0.72188 0.0
C259 C 0.48216 0.82172 0.71034 0.0
C260 C 0.52472 0.80951 0.76638 0.0
C261 C 0.50229 0.81693 0.80057 0.0
C262 C 0.46952 0.82618 0.78875 0.0
C263 C 0.45969 0.82858 0.74458 0.0
H264 H 0.86657 0.47486 0.72082 0.0
H265 H 0.86229 0.55666 0.65215 0.0
H266 H 0.87368 0.50028 0.79017 0.0
H267 H 0.87037 0.58231 0.72133 0.0
H268 H 0.8405 0.61615 0.85862 0.0
H269 H 0.84071 0.59377 0.78619 0.0
H270 H 0.91044 0.52837 0.83417 0.0
H271 H 0.90905 0.55036 0.90685 0.0
C272 C 0.86773 0.49829 0.72051 0.0
C273 C 0.86368 0.51375 0.68108 0.0
C274 C 0.87196 0.51294 0.76027 0.0
C275 C 0.87264 0.54345 0.76153 0.0
C276 C 0.86937 0.55886 0.72182 0.0
C277 C 0.86479 0.54418 0.68212 0.0
C278 C 0.85638 0.59736 0.85331 0.0
C279 C 0.8746 0.58486 0.88831 0.0
C280 C 0.85654 0.58447 0.81179 0.0
C281 C 0.87527 0.55896 0.80431 0.0
C282 C 0.89502 0.54751 0.8389 0.0
C283 C 0.89449 0.5602 0.88045 0.0
H284 H 0.48686 0.79326 0.19543 0.0
H285 H 0.58441 0.82308 0.24174 0.0
H286 H 0.46792 0.78919 0.27157 0.0
H287 H 0.56538 0.82027 0.31676 0.0
H288 H 0.53201 0.79718 0.45423 0.0
H289 H 0.55135 0.79314 0.37826 0.0
H290 H 0.45104 0.81606 0.33181 0.0
H291 H 0.43175 0.81879 0.40667 0.0
C292 C 0.50426 0.79897 0.22169 0.0
C293 C 0.53717 0.80854 0.21199 0.0
C294 C 0.49338 0.79684 0.2656 0.0
C295 C 0.51498 0.80446 0.30112 0.0
C296 C 0.54799 0.81362 0.29105 0.0
C297 C 0.55887 0.8155 0.24748 0.0
C298 C 0.51408 0.80103 0.42774 0.0
C299 C 0.48031 0.80836 0.43704 0.0
C300 C 0.52518 0.79895 0.38393 0.0
C301 C 0.5029 0.80436 0.3481 0.0
C302 C 0.46905 0.81117 0.35779 0.0
C303 C 0.45799 0.81301 0.40126 0.0
H304 H 0.20005 0.53451 0.96425 0.0
H305 H 0.10554 0.48776 0.95228 0.0
H306 H 0.18762 0.55991 0.89627 0.0
H307 H 0.09343 0.51308 0.88349 0.0
H308 H 0.11369 0.536 0.73572 0.0
H309 H 0.1167 0.51396 0.80846 0.0
H310 H 0.14874 0.59584 0.86313 0.0
H311 H 0.14651 0.61768 0.79001 0.0
C312 C 0.17638 0.52984 0.94758 0.0
C313 C 0.15384 0.50897 0.96412 0.0
C314 C 0.16924 0.54453 0.90847 0.0
C315 C 0.13944 0.53867 0.88458 0.0
C316 C 0.11673 0.51794 0.90102 0.0
C317 C 0.12379 0.50332 0.9404 0.0
C318 C 0.12105 0.54935 0.76336 0.0
C319 C 0.13029 0.57848 0.75704 0.0
C320 C 0.12249 0.53679 0.8051 0.0
C321 C 0.13333 0.55306 0.8415 0.0
C322 C 0.14077 0.58263 0.83559 0.0
C323 C 0.13915 0.59524 0.79381 0.0
H324 H 0.58766 0.18526 0.40978 0.0
H325 H 0.48841 0.20962 0.45523 0.0
H326 H 0.56758 0.18657 0.3345 0.0
H327 H 0.46826 0.21195 0.37895 0.0
H328 H 0.43317 0.18273 0.24236 0.0
H329 H 0.45314 0.18434 0.31765 0.0
H330 H 0.55087 0.21401 0.27345 0.0
H331 H 0.53089 0.21138 0.19714 0.0
C332 C 0.56146 0.1912 0.40381 0.0
C333 C 0.53971 0.19727 0.43915 0.0
C334 C 0.54995 0.1922 0.36012 0.0
C335 C 0.51617 0.19947 0.34975 0.0
C336 C 0.49436 0.20583 0.38513 0.0
C337 C 0.50592 0.20467 0.42913 0.0
C338 C 0.45899 0.18969 0.24839 0.0
C339 C 0.48036 0.19685 0.2131 0.0
C340 C 0.47043 0.19086 0.29209 0.0
C341 C 0.50375 0.1994 0.30253 0.0
C342 C 0.52516 0.20689 0.26721 0.0
C343 C 0.51368 0.20556 0.22319 0.0
H344 H 0.88375 0.48428 1.00646 0.0
H345 H 0.92984 0.52334 0.12059 0.0
H346 H 0.92532 0.44453 1.0104 0.0
H347 H 0.97107 0.48453 0.12463 0.0
H348 H 0.04423 0.41631 0.13264 0.0
H349 H 0.98659 0.43519 0.13534 0.0
H350 H 0.98566 0.44405 0.99412 0.0
H351 H 0.04274 0.42402 0.99141 0.0
C352 C 0.90198 0.48372 1.03325 0.0
C353 C 0.90378 0.50665 0.06328 0.0
C354 C 0.92595 0.46122 1.03531 0.0
C355 C 0.95173 0.46135 0.06768 0.0
C356 C 0.95145 0.48329 0.09963 0.0
C357 C 0.9279 0.50571 0.09726 0.0
C358 C 0.03129 0.42148 0.10209 0.0
C359 C 0.04821 0.41924 0.0619 0.0
C360 C 0.9983 0.43239 0.10362 0.0
C361 C 0.98175 0.44184 0.06506 0.0
C362 C 0.9975 0.43693 1.02448 0.0
C363 C 0.03038 0.42557 1.02291 0.0
H364 H 0.44198 0.96494 0.56745 0.0
H365 H 0.53868 0.92116 0.57204 0.0
H366 H 0.47058 0.01153 0.56877 0.0
H367 H 0.56755 0.96807 0.57326 0.0
H368 H 0.60221 0.06083 0.6172 0.0
H369 H 0.57724 0.0123 0.61717 0.0
H370 H 0.50454 0.03992 0.5188 0.0
H371 H 0.52931 0.08815 0.51904 0.0
C372 C 0.46939 0.96525 0.56856 0.0
C373 C 0.488 0.93927 0.56912 0.0
C374 C 0.48583 0.99201 0.56923 0.0
C375 C 0.52141 0.99359 0.57039 0.0
C376 C 0.54011 0.96763 0.5725 0.0
C377 C 0.52357 0.94074 0.57188 0.0
C378 C 0.58122 0.05638 0.59516 0.0
C379 C 0.56747 0.07848 0.56852 0.0
C380 C 0.56687 0.02858 0.59518 0.0
C381 C 0.53851 0.02234 0.56852 0.0
C382 C 0.52577 0.04416 0.54062 0.0
C383 C 0.54001 0.07183 0.54067 0.0
H384 H 0.09359 0.51271 0.51593 0.0
H385 H 0.13233 0.48805 0.64329 0.0
H386 H 0.05301 0.47352 0.51818 0.0
H387 H 0.09181 0.44776 0.6457 0.0
H388 H 0.97431 0.43114 0.66247 0.0
H389 H 0.03215 0.44892 0.65765 0.0
H390 H 0.03428 0.42544 0.52042 0.0
H391 H 0.97569 0.40913 0.52495 0.0
C392 C 0.09441 0.49785 0.54355 0.0
C393 C 0.11601 0.5032 0.57931 0.0
C394 C 0.07112 0.47523 0.54494 0.0
C395 C 0.06865 0.45752 0.58246 0.0
C396 C 0.09265 0.46122 0.61659 0.0
C397 C 0.1162 0.48397 0.61502 0.0
C398 C 0.98748 0.42902 0.63161 0.0
C399 C 0.97028 0.41937 0.59386 0.0
C400 C 0.02085 0.43908 0.62883 0.0
C401 C 0.0378 0.43929 0.58833 0.0
C402 C 0.02173 0.42643 0.55183 0.0
C403 C 0.98819 0.41694 0.55443 0.0
H404 H 0.48336 0.9197 0.08633 0.0
H405 H 0.58076 0.96133 0.07411 0.0
H406 H 0.45572 0.96709 0.0865 0.0
H407 H 0.55327 0.00851 0.07421 0.0
H408 H 0.49954 0.08759 0.12648 0.0
H409 H 0.52416 0.03927 0.12594 0.0
H410 H 0.44315 0.00982 1.04092 0.0
H411 H 0.41838 0.05841 1.0416 0.0
C412 C 0.49886 0.93889 0.08315 0.0
C413 C 0.53436 0.93666 0.08059 0.0
C414 C 0.483 0.96608 0.08329 0.0
C415 C 0.50229 0.99164 0.08088 0.0
C416 C 0.53768 0.98932 0.07718 0.0
C417 C 0.55348 0.96223 0.07707 0.0
C418 C 0.48701 0.07087 0.10752 0.0
C419 C 0.45717 0.077 0.08371 0.0
C420 C 0.50117 0.04314 0.10714 0.0
C421 C 0.48591 0.02072 0.08289 0.0
C422 C 0.45546 0.02654 0.06014 0.0
C423 C 0.44123 0.05439 0.06056 0.0
H424 H 0.18666 0.31942 0.1396 0.0
H425 H 0.22724 0.37291 1.03611 0.0
H426 H 0.23249 0.28455 0.12907 0.0
H427 H 0.27334 0.33879 1.02657 0.0
H428 H 0.34232 0.26675 0.99487 0.0
H429 H 0.28863 0.2924 1.0015 0.0
H430 H 0.29242 0.27996 0.14216 0.0
H431 H 0.34577 0.25315 0.13471 0.0
C432 C 0.20519 0.32366 0.11439 0.0
C433 C 0.20324 0.349 0.0887 0.0
C434 C 0.23163 0.30375 0.10859 0.0
C435 C 0.25675 0.30875 0.07699 0.0
C436 C 0.25421 0.33381 1.05068 0.0
C437 C 0.22778 0.35357 0.05632 0.0
C438 C 0.33125 0.2691 1.02705 0.0
C439 C 0.34818 0.25827 0.06432 0.0
C440 C 0.30064 0.28399 1.03098 0.0
C441 C 0.28644 0.2889 0.07247 0.0
C442 C 0.30245 0.27652 0.10963 0.0
C443 C 0.33299 0.26118 0.10552 0.0
H444 H 0.83758 0.31817 0.52873 0.0
H445 H 0.78637 0.38069 0.61009 0.0
H446 H 0.79081 0.28419 0.5389 0.0
H447 H 0.73953 0.34734 0.61916 0.0
H448 H 0.66883 0.27768 0.65652 0.0
H449 H 0.72253 0.30345 0.65249 0.0
H450 H 0.73226 0.27772 0.51686 0.0
H451 H 0.67871 0.25097 0.52188 0.0
C452 C 0.81649 0.32461 0.54902 0.0
C453 C 0.81578 0.35219 0.56861 0.0
C454 C 0.78955 0.30519 0.55458 0.0
C455 C 0.76131 0.31291 0.57988 0.0
C456 C 0.76105 0.34031 0.60011 0.0
C457 C 0.78792 0.35961 0.59469 0.0
C458 C 0.68279 0.27722 0.62609 0.0
C459 C 0.66957 0.26266 0.58937 0.0
C460 C 0.71344 0.29213 0.62362 0.0
C461 C 0.73146 0.29328 0.58406 0.0
C462 C 0.71918 0.27725 0.54793 0.0
C463 C 0.68855 0.26193 0.55067 0.0
H464 H 0.74008 0.60617 1.0103 0.0
H465 H 0.73597 0.61161 0.15171 0.0
H466 H 0.69952 0.64584 1.00428 0.0
H467 H 0.69596 0.65168 0.14559 0.0
H468 H 0.6137 0.71915 0.12013 0.0
H469 H 0.64053 0.67123 0.12264 0.0
H470 H 0.70764 0.6971 1.01843 0.0
H471 H 0.68042 0.74425 1.01525 0.0
C472 C 0.73003 0.6154 1.04013 0.0
C473 C 0.74175 0.60598 0.08149 0.0
C474 C 0.70694 0.63831 1.03666 0.0
C475 C 0.69506 0.65238 0.07443 0.0
C476 C 0.70455 0.64135 0.11582 0.0
C477 C 0.72761 0.61836 0.11931 0.0
C478 C 0.63384 0.71436 0.09738 0.0
C479 C 0.64514 0.73561 0.06778 0.0
C480 C 0.64934 0.687 0.09899 0.0
C481 C 0.6762 0.68026 0.07067 0.0
C482 C 0.68673 0.70132 1.0403 0.0
C483 C 0.67145 0.72858 1.03891 0.0
H484 H 0.40592 0.72344 0.62411 0.0
H485 H 0.32374 0.75612 0.5439 0.0
H486 H 0.37558 0.6773 0.63304 0.0
H487 H 0.2937 0.71021 0.55223 0.0
H488 H 0.27746 0.62543 0.68502 0.0
H489 H 0.31849 0.66405 0.67154 0.0
H490 H 0.30062 0.65636 0.53217 0.0
H491 H 0.25993 0.61767 0.54531 0.0
C492 C 0.38166 0.72053 0.60786 0.0
C493 C 0.36705 0.74328 0.58343 0.0
C494 C 0.36426 0.69428 0.61314 0.0
C495 C 0.33237 0.69017 0.59319 0.0
C496 C 0.31839 0.71264 0.56759 0.0
C497 C 0.33542 0.73897 0.56308 0.0
C498 C 0.28288 0.63146 0.65144 0.0
C499 C 0.26509 0.61864 0.61631 0.0
C500 C 0.30646 0.65353 0.64375 0.0
C501 C 0.3124 0.6634 0.60084 0.0
C502 C 0.29623 0.64937 0.5656 0.0
C503 C 0.27303 0.62709 0.5732 0.0
loop_
_geom_bond_atom_site_label_1
_geom_bond_atom_site_label_2
_geom_bond_distance
_geom_bond_site_symmetry_2
_ccdc_geom_bond_type
Cu0 N1 1.999 1_554 S
Cu0 O6 1.974 . S
Cu0 N11 1.985 . S
Cu0 O20 1.959 . S
N1 Cu0 1.999 1_556 S
N1 C3 1.263 . S
N1 C5 1.389 . S
N2 C3 1.358 . S
N2 C4 1.400 . S
C3 N1 1.263 . S
C3 N2 1.358 . S
C3 H9 0.930 . S
C4 N2 1.400 . S
C4 C5 1.351 . S
C4 H21 0.930 . S
C5 N1 1.389 . S
C5 C4 1.351 . S
C5 H10 0.930 . S
O6 Cu0 1.974 . S
O6 C16 1.282 . S
C7 O8 1.261 . S
C7 O20 1.251 . S
O8 C7 1.261 . S
H9 C3 0.930 . S
H10 C5 0.930 . S
N11 Cu0 1.985 . S
N11 C13 1.335 . S
N11 C14 1.390 . S
N12 C13 1.345 . S
N12 C15 1.336 . S
C13 N11 1.335 . S
C13 N12 1.345 . S
C13 H18 0.930 . S
C14 N11 1.390 . S
C14 C15 1.346 . S
C14 H19 0.930 . S
C15 N12 1.336 . S
C15 C14 1.346 . S
C15 H22 0.929 . S
C16 O6 1.282 . S
C16 O17 1.216 . S
O17 C16 1.216 . S
H18 C13 0.930 . S
H19 C14 0.930 . S
O20 Cu0 1.959 . S
O20 C7 1.251 . S
H21 C4 0.930 . S
H22 C15 0.929 . S
Cu23 N24 1.999 . S
Cu23 O29 1.974 . S
Cu23 N34 1.985 . S
Cu23 O43 1.959 . S
N24 Cu23 1.999 . S
N24 C26 1.263 . S
N24 C28 1.389 . S
N25 C26 1.358 . S
N25 C27 1.400 . S
C26 N24 1.263 . S
C26 N25 1.358 . S
C26 H32 0.930 . S
C27 N25 1.400 . S
C27 C28 1.351 . S
C27 H44 0.930 . S
C28 N24 1.389 . S
C28 C27 1.351 . S
C28 H33 0.930 . S
O29 Cu23 1.974 . S
O29 C39 1.282 . S
C30 O31 1.261 . S
C30 O43 1.251 . S
O31 C30 1.261 . S
H32 C26 0.930 . S
H33 C28 0.930 . S
N34 Cu23 1.985 . S
N34 C36 1.335 . S
N34 C37 1.390 . S
N35 C36 1.345 . S
N35 C38 1.336 . S
C36 N34 1.335 . S
C36 N35 1.345 . S
C36 H41 0.930 . S
C37 N34 1.390 . S
C37 C38 1.346 . S
C37 H42 0.930 . S
C38 N35 1.336 . S
C38 C37 1.346 . S
C38 H45 0.929 . S
C39 O29 1.282 . S
C39 O40 1.216 . S
O40 C39 1.216 . S
H41 C36 0.930 . S
H42 C37 0.930 . S
O43 Cu23 1.959 . S
O43 C30 1.251 . S
H44 C27 0.930 . S
H45 C38 0.929 . S
Cu46 N47 1.999 1_554 S
Cu46 O52 1.974 . S
Cu46 N57 1.985 . S
Cu46 O66 1.959 . S
N47 Cu46 1.999 1_556 S
N47 C49 1.263 . S
N47 C51 1.389 . S
N48 C49 1.358 . S
N48 C50 1.400 . S
C49 N47 1.263 . S
C49 N48 1.358 . S
C49 H55 0.930 . S
C50 N48 1.400 . S
C50 C51 1.351 . S
C50 H67 0.930 . S
C51 N47 1.389 . S
C51 C50 1.351 . S
C51 H56 0.930 . S
O52 Cu46 1.974 . S
O52 C62 1.282 . S
C53 O54 1.261 . S
C53 O66 1.251 . S
O54 C53 1.261 . S
H55 C49 0.930 . S
H56 C51 0.930 . S
N57 Cu46 1.985 . S
N57 C59 1.335 . S
N57 C60 1.390 . S
N58 C59 1.345 . S
N58 C61 1.336 . S
C59 N57 1.335 . S
C59 N58 1.345 . S
C59 H64 0.930 . S
C60 N57 1.390 . S
C60 C61 1.346 . S
C60 H65 0.930 . S
C61 N58 1.336 . S
C61 C60 1.346 . S
C61 H68 0.929 . S
C62 O52 1.282 . S
C62 O63 1.216 . S
O63 C62 1.216 . S
H64 C59 0.930 . S
H65 C60 0.930 . S
O66 Cu46 1.959 . S
O66 C53 1.251 . S
H67 C50 0.930 . S
H68 C61 0.929 . S
Cu69 N70 1.999 . S
Cu69 O75 1.974 . S
Cu69 N80 1.985 . S
Cu69 O89 1.959 . S
N70 Cu69 1.999 . S
N70 C72 1.263 . S
N70 C74 1.389 . S
N71 C72 1.358 . S
N71 C73 1.400 . S
C72 N70 1.263 . S
C72 N71 1.358 . S
C72 H78 0.930 . S
C73 N71 1.400 . S
C73 C74 1.351 . S
C73 H90 0.930 . S
C74 N70 1.389 . S
C74 C73 1.351 . S
C74 H79 0.930 . S
O75 Cu69 1.974 . S
O75 C85 1.282 . S
C76 O77 1.261 . S
C76 O89 1.251 . S
O77 C76 1.261 . S
H78 C72 0.930 . S
H79 C74 0.930 . S
N80 Cu69 1.985 . S
N80 C82 1.335 . S
N80 C83 1.390 . S
N81 C82 1.345 . S
N81 C84 1.336 . S
C82 N80 1.335 . S
C82 N81 1.345 . S
C82 H87 0.930 . S
C83 N80 1.390 . S
C83 C84 1.346 . S
C83 H88 0.930 . S
C84 N81 1.336 . S
C84 C83 1.346 . S
C84 H91 0.929 . S
C85 O75 1.282 . S
C85 O86 1.216 . S
O86 C85 1.216 . S
H87 C82 0.930 . S
H88 C83 0.930 . S
O89 Cu69 1.959 . S
O89 C76 1.251 . S
H90 C73 0.930 . S
H91 C84 0.929 . S
Cu92 N93 1.999 . S
Cu92 O98 1.974 . S
Cu92 N103 1.985 . S
Cu92 O112 1.959 . S
N93 Cu92 1.999 . S
N93 C95 1.263 . S
N93 C97 1.389 . S
N94 C95 1.358 . S
N94 C96 1.400 . S
C95 N93 1.263 . S
C95 N94 1.358 . S
C95 H101 0.930 . S
C96 N94 1.400 . S
C96 C97 1.351 . S
C96 H113 0.930 . S
C97 N93 1.389 . S
C97 C96 1.351 . S
C97 H102 0.930 . S
O98 Cu92 1.974 . S
O98 C108 1.282 . S
C99 O100 1.261 . S
C99 O112 1.251 . S
O100 C99 1.261 . S
H101 C95 0.930 . S
H102 C97 0.930 . S
N103 Cu92 1.985 . S
N103 C105 1.335 . S
N103 C106 1.390 . S
N104 C105 1.345 . S
N104 C107 1.336 . S
C105 N103 1.335 . S
C105 N104 1.345 . S
C105 H110 0.930 . S
C106 N103 1.390 . S
C106 C107 1.346 . S
C106 H111 0.930 . S
C107 N104 1.336 . S
C107 C106 1.346 . S
C107 H114 0.929 . S
C108 O98 1.282 . S
C108 O109 1.216 . S
O109 C108 1.216 . S
H110 C105 0.930 . S
H111 C106 0.930 . S
O112 Cu92 1.959 . S
O112 C99 1.251 . S
H113 C96 0.930 . S
H114 C107 0.929 . S
Cu115 N116 1.999 . S
Cu115 O121 1.974 1_554 S
Cu115 N126 1.985 . S
Cu115 O135 1.959 . S
N116 Cu115 1.999 . S
N116 C118 1.263 1_554 S
N116 C120 1.389 . S
N117 C118 1.358 1_554 S
N117 C119 1.400 . S
C118 N116 1.263 1_556 S
C118 N117 1.358 1_556 S
C118 H124 0.930 . S
C119 N117 1.400 . S
C119 C120 1.351 . S
C119 H136 0.930 . S
C120 N116 1.389 . S
C120 C119 1.351 . S
C120 H125 0.930 . S
O121 Cu115 1.974 1_556 S
O121 C131 1.282 . S
C122 O123 1.261 . S
C122 O135 1.251 . S
O123 C122 1.261 . S
H124 C118 0.930 . S
H125 C120 0.930 . S
N126 Cu115 1.985 . S
N126 C128 1.335 . S
N126 C129 1.390 1_554 S
N127 C128 1.345 . S
N127 C130 1.336 1_554 S
C128 N126 1.335 . S
C128 N127 1.345 . S
C128 H133 0.930 . S
C129 N126 1.390 1_556 S
C129 C130 1.346 . S
C129 H134 0.930 . S
C130 N127 1.336 1_556 S
C130 C129 1.346 . S
C130 H137 0.929 . S
C131 O121 1.282 . S
C131 O132 1.216 . S
O132 C131 1.216 . S
H133 C128 0.930 . S
H134 C129 0.930 . S
O135 Cu115 1.959 . S
O135 C122 1.251 . S
H136 C119 0.930 . S
H137 C130 0.929 . S
Cu138 N139 1.999 . S
Cu138 O144 1.974 . S
Cu138 N149 1.985 . S
Cu138 O158 1.959 . S
N139 Cu138 1.999 . S
N139 C141 1.263 . S
N139 C143 1.389 . S
N140 C141 1.358 . S
N140 C142 1.400 . S
C141 N139 1.263 . S
C141 N140 1.358 . S
C141 H147 0.930 . S
C142 N140 1.400 . S
C142 C143 1.351 . S
C142 H159 0.930 . S
C143 N139 1.389 . S
C143 C142 1.351 . S
C143 H148 0.930 . S
O144 Cu138 1.974 . S
O144 C154 1.282 . S
C145 O146 1.261 . S
C145 O158 1.251 . S
O146 C145 1.261 . S
H147 C141 0.930 . S
H148 C143 0.930 . S
N149 Cu138 1.985 . S
N149 C151 1.335 . S
N149 C152 1.390 . S
N150 C151 1.345 . S
N150 C153 1.336 . S
C151 N149 1.335 . S
C151 N150 1.345 . S
C151 H156 0.930 . S
C152 N149 1.390 . S
C152 C153 1.346 . S
C152 H157 0.930 . S
C153 N150 1.336 . S
C153 C152 1.346 . S
C153 H160 0.929 . S
C154 O144 1.282 . S
C154 O155 1.216 . S
O155 C154 1.216 . S
H156 C151 0.930 . S
H157 C152 0.930 . S
O158 Cu138 1.959 . S
O158 C145 1.251 . S
H159 C142 0.930 . S
H160 C153 0.929 . S
Cu161 N162 1.999 . S
Cu161 O167 1.974 1_554 S
Cu161 N172 1.985 . S
Cu161 O181 1.959 . S
N162 Cu161 1.999 . S
N162 C164 1.263 1_554 S
N162 C166 1.389 . S
N163 C164 1.358 1_554 S
N163 C165 1.400 . S
C164 N162 1.263 1_556 S
C164 N163 1.358 1_556 S
C164 H170 0.930 . S
C165 N163 1.400 . S
C165 C166 1.351 . S
C165 H182 0.930 . S
C166 N162 1.389 . S
C166 C165 1.351 . S
C166 H171 0.930 . S
O167 Cu161 1.974 1_556 S
O167 C177 1.282 . S
C168 O169 1.261 . S
C168 O181 1.251 . S
O169 C168 1.261 . S
H170 C164 0.930 . S
H171 C166 0.930 . S
N172 Cu161 1.985 . S
N172 C174 1.335 . S
N172 C175 1.390 1_554 S
N173 C174 1.345 . S
N173 C176 1.336 1_554 S
C174 N172 1.335 . S
C174 N173 1.345 . S
C174 H179 0.930 . S
C175 N172 1.390 1_556 S
C175 C176 1.346 . S
C175 H180 0.930 . S
C176 N173 1.336 1_556 S
C176 C175 1.346 . S
C176 H183 0.929 . S
C177 O167 1.282 . S
C177 O178 1.216 . S
O178 C177 1.216 . S
H179 C174 0.930 . S
H180 C175 0.930 . S
O181 Cu161 1.959 . S
O181 C168 1.251 . S
H182 C165 0.930 . S
H183 C176 0.929 . S
H184 C192 0.950 . S
H185 C197 0.950 . S
H186 C194 0.950 . S
H187 C196 0.950 . S
H188 C198 0.950 . S
H189 C200 0.950 . S
H190 C202 0.950 . S
H191 C203 0.950 . S
C192 H184 0.950 . S
C192 C193 1.386 . S
C192 C194 1.391 . S
C193 C192 1.386 . S
C193 C197 1.393 . S
C194 H186 0.950 . S
C194 C192 1.391 . S
C194 C195 1.400 . S
C195 C194 1.400 . S
C195 C196 1.398 . S
C195 C201 1.491 . S
C196 H187 0.950 . S
C196 C195 1.398 . S
C196 C197 1.391 . S
C197 H185 0.950 . S
C197 C193 1.393 . S
C197 C196 1.391 . S
C198 H188 0.950 . S
C198 C199 1.386 . S
C198 C200 1.391 . S
C199 C198 1.386 . S
C199 C203 1.393 . S
C200 H189 0.950 . S
C200 C198 1.391 . S
C200 C201 1.400 . S
C201 C195 1.491 . S
C201 C200 1.400 . S
C201 C202 1.398 . S
C202 H190 0.950 . S
C202 C201 1.398 . S
C202 C203 1.391 . S
C203 H191 0.950 . S
C203 C199 1.393 . S
C203 C202 1.391 . S
H204 C212 0.950 . S
H205 C217 0.950 . S
H206 C214 0.950 . S
H207 C216 0.950 . S
H208 C218 0.950 . S
H209 C220 0.950 . S
H210 C222 0.950 . S
H211 C223 0.950 . S
C212 H204 0.950 . S
C212 C213 1.386 . S
C212 C214 1.391 . S
C213 C212 1.386 . S
C213 C217 1.393 . S
C214 H206 0.950 . S
C214 C212 1.391 . S
C214 C215 1.400 . S
C215 C214 1.400 . S
C215 C216 1.398 . S
C215 C221 1.491 . S
C216 H207 0.950 . S
C216 C215 1.398 . S
C216 C217 1.391 . S
C217 H205 0.950 . S
C217 C213 1.393 . S
C217 C216 1.391 . S
C218 H208 0.950 . S
C218 C219 1.386 . S
C218 C220 1.391 . S
C219 C218 1.386 . S
C219 C223 1.393 . S
C220 H209 0.950 . S
C220 C218 1.391 . S
C220 C221 1.400 . S
C221 C215 1.491 . S
C221 C220 1.400 . S
C221 C222 1.398 . S
C222 H210 0.950 . S
C222 C221 1.398 . S
C222 C223 1.391 . S
C223 H211 0.950 . S
C223 C219 1.393 . S
C223 C222 1.391 . S
H224 C232 0.950 . S
H225 C237 0.950 . S
H226 C234 0.950 . S
H227 C236 0.950 . S
H228 C238 0.950 . S
H229 C240 0.950 . S
H230 C242 0.950 . S
H231 C243 0.950 . S
C232 H224 0.950 . S
C232 C233 1.386 . S
C232 C234 1.391 . S
C233 C232 1.386 . S
C233 C237 1.393 . S
C234 H226 0.950 . S
C234 C232 1.391 . S
C234 C235 1.400 . S
C235 C234 1.400 . S
C235 C236 1.398 . S
C235 C241 1.491 . S
C236 H227 0.950 . S
C236 C235 1.398 . S
C236 C237 1.391 . S
C237 H225 0.950 . S
C237 C233 1.393 . S
C237 C236 1.391 . S
C238 H228 0.950 . S
C238 C239 1.386 . S
C238 C240 1.391 . S
C239 C238 1.386 . S
C239 C243 1.393 . S
C240 H229 0.950 . S
C240 C238 1.391 . S
C240 C241 1.400 . S
C241 C235 1.491 . S
C241 C240 1.400 . S
C241 C242 1.398 . S
C242 H230 0.950 . S
C242 C241 1.398 . S
C242 C243 1.391 . S
C243 H231 0.950 . S
C243 C239 1.393 . S
C243 C242 1.391 . S
H244 C252 0.950 . S
H245 C257 0.950 . S
H246 C254 0.950 . S
H247 C256 0.950 . S
H248 C258 0.950 . S
H249 C260 0.950 . S
H250 C262 0.950 . S
H251 C263 0.950 . S
C252 H244 0.950 . S
C252 C253 1.386 . S
C252 C254 1.391 . S
C253 C252 1.386 . S
C253 C257 1.393 . S
C254 H246 0.950 . S
C254 C252 1.391 . S
C254 C255 1.400 . S
C255 C254 1.400 . S
C255 C256 1.398 . S
C255 C261 1.491 . S
C256 H247 0.950 . S
C256 C255 1.398 . S
C256 C257 1.391 . S
C257 H245 0.950 . S
C257 C253 1.393 . S
C257 C256 1.391 . S
C258 H248 0.950 . S
C258 C259 1.386 . S
C258 C260 1.391 . S
C259 C258 1.386 . S
C259 C263 1.393 . S
C260 H249 0.950 . S
C260 C258 1.391 . S
C260 C261 1.400 . S
C261 C255 1.491 . S
C261 C260 1.400 . S
C261 C262 1.398 . S
C262 H250 0.950 . S
C262 C261 1.398 . S
C262 C263 1.391 . S
C263 H251 0.950 . S
C263 C259 1.393 . S
C263 C262 1.391 . S
H264 C272 0.950 . S
H265 C277 0.950 . S
H266 C274 0.950 . S
H267 C276 0.950 . S
H268 C278 0.950 . S
H269 C280 0.950 . S
H270 C282 0.950 . S
H271 C283 0.950 . S
C272 H264 0.950 . S
C272 C273 1.386 . S
C272 C274 1.391 . S
C273 C272 1.386 . S
C273 C277 1.393 . S
C274 H266 0.950 . S
C274 C272 1.391 . S
C274 C275 1.400 . S
C275 C274 1.400 . S
C275 C276 1.398 . S
C275 C281 1.491 . S
C276 H267 0.950 . S
C276 C275 1.398 . S
C276 C277 1.391 . S
C277 H265 0.950 . S
C277 C273 1.393 . S
C277 C276 1.391 . S
C278 H268 0.950 . S
C278 C279 1.386 . S
C278 C280 1.391 . S
C279 C278 1.386 . S
C279 C283 1.393 . S
C280 H269 0.950 . S
C280 C278 1.391 . S
C280 C281 1.400 . S
C281 C275 1.491 . S
C281 C280 1.400 . S
C281 C282 1.398 . S
C282 H270 0.950 . S
C282 C281 1.398 . S
C282 C283 1.391 . S
C283 H271 0.950 . S
C283 C279 1.393 . S
C283 C282 1.391 . S
H284 C292 0.950 . S
H285 C297 0.950 . S
H286 C294 0.950 . S
H287 C296 0.950 . S
H288 C298 0.950 . S
H289 C300 0.950 . S
H290 C302 0.950 . S
H291 C303 0.950 . S
C292 H284 0.950 . S
C292 C293 1.386 . S
C292 C294 1.391 . S
C293 C292 1.386 . S
C293 C297 1.393 . S
C294 H286 0.950 . S
C294 C292 1.391 . S
C294 C295 1.400 . S
C295 C294 1.400 . S
C295 C296 1.398 . S
C295 C301 1.491 . S
C296 H287 0.950 . S
C296 C295 1.398 . S
C296 C297 1.391 . S
C297 H285 0.950 . S
C297 C293 1.393 . S
C297 C296 1.391 . S
C298 H288 0.950 . S
C298 C299 1.386 . S
C298 C300 1.391 . S
C299 C298 1.386 . S
C299 C303 1.393 . S
C300 H289 0.950 . S
C300 C298 1.391 . S
C300 C301 1.400 . S
C301 C295 1.491 . S
C301 C300 1.400 . S
C301 C302 1.398 . S
C302 H290 0.950 . S
C302 C301 1.398 . S
C302 C303 1.391 . S
C303 H291 0.950 . S
C303 C299 1.393 . S
C303 C302 1.391 . S
H304 C312 0.950 . S
H305 C317 0.950 . S
H306 C314 0.950 . S
H307 C316 0.950 . S
H308 C318 0.950 . S
H309 C320 0.950 . S
H310 C322 0.950 . S
H311 C323 0.950 . S
C312 H304 0.950 . S
C312 C313 1.386 . S
C312 C314 1.391 . S
C313 C312 1.386 . S
C313 C317 1.393 . S
C314 H306 0.950 . S
C314 C312 1.391 . S
C314 C315 1.400 . S
C315 C314 1.400 . S
C315 C316 1.398 . S
C315 C321 1.491 . S
C316 H307 0.950 . S
C316 C315 1.398 . S
C316 C317 1.391 . S
C317 H305 0.950 . S
C317 C313 1.393 . S
C317 C316 1.391 . S
C318 H308 0.950 . S
C318 C319 1.386 . S
C318 C320 1.391 . S
C319 C318 1.386 . S
C319 C323 1.393 . S
C320 H309 0.950 . S
C320 C318 1.391 . S
C320 C321 1.400 . S
C321 C315 1.491 . S
C321 C320 1.400 . S
C321 C322 1.398 . S
C322 H310 0.950 . S
C322 C321 1.398 . S
C322 C323 1.391 . S
C323 H311 0.950 . S
C323 C319 1.393 . S
C323 C322 1.391 . S
H324 C332 0.950 . S
H325 C337 0.950 . S
H326 C334 0.950 . S
H327 C336 0.950 . S
H328 C338 0.950 . S
H329 C340 0.950 . S
H330 C342 0.950 . S
H331 C343 0.950 . S
C332 H324 0.950 . S
C332 C333 1.386 . S
C332 C334 1.391 . S
C333 C332 1.386 . S
C333 C337 1.393 . S
C334 H326 0.950 . S
C334 C332 1.391 . S
C334 C335 1.400 . S
C335 C334 1.400 . S
C335 C336 1.398 . S
C335 C341 1.491 . S
C336 H327 0.950 . S
C336 C335 1.398 . S
C336 C337 1.391 . S
C337 H325 0.950 . S
C337 C333 1.393 . S
C337 C336 1.391 . S
C338 H328 0.950 . S
C338 C339 1.386 . S
C338 C340 1.391 . S
C339 C338 1.386 . S
C339 C343 1.393 . S
C340 H329 0.950 . S
C340 C338 1.391 . S
C340 C341 1.400 . S
C341 C335 1.491 . S
C341 C340 1.400 . S
C341 C342 1.398 . S
C342 H330 0.950 . S
C342 C341 1.398 . S
C342 C343 1.391 . S
C343 H331 0.950 . S
C343 C339 1.393 . S
C343 C342 1.391 . S
H344 C352 0.950 . S
H345 C357 0.950 . S
H346 C354 0.950 . S
H347 C356 0.950 . S
H348 C358 0.950 . S
H349 C360 0.950 . S
H350 C362 0.950 . S
H351 C363 0.950 . S
C352 H344 0.950 . S
C352 C353 1.386 . S
C352 C354 1.391 . S
C353 C352 1.386 . S
C353 C357 1.393 . S
C354 H346 0.950 . S
C354 C352 1.391 . S
C354 C355 1.400 . S
C355 C354 1.400 . S
C355 C356 1.398 . S
C355 C361 1.491 1_655 S
C356 H347 0.950 . S
C356 C355 1.398 . S
C356 C357 1.391 . S
C357 H345 0.950 . S
C357 C353 1.393 . S
C357 C356 1.391 . S
C358 H348 0.950 . S
C358 C359 1.386 . S
C358 C360 1.391 . S
C359 C358 1.386 . S
C359 C363 1.393 . S
C360 H349 0.950 . S
C360 C358 1.391 . S
C360 C361 1.400 . S
C361 C355 1.491 1_455 S
C361 C360 1.400 . S
C361 C362 1.398 . S
C362 H350 0.950 . S
C362 C361 1.398 . S
C362 C363 1.391 . S
C363 H351 0.950 . S
C363 C359 1.393 . S
C363 C362 1.391 . S
H364 C372 0.950 . S
H365 C377 0.950 . S
H366 C374 0.950 . S
H367 C376 0.950 . S
H368 C378 0.950 . S
H369 C380 0.950 . S
H370 C382 0.950 . S
H371 C383 0.950 . S
C372 H364 0.950 . S
C372 C373 1.386 . S
C372 C374 1.391 . S
C373 C372 1.386 . S
C373 C377 1.393 . S
C374 H366 0.950 . S
C374 C372 1.391 . S
C374 C375 1.400 . S
C375 C374 1.400 . S
C375 C376 1.398 . S
C375 C381 1.491 1_565 S
C376 H367 0.950 . S
C376 C375 1.398 . S
C376 C377 1.391 . S
C377 H365 0.950 . S
C377 C373 1.393 . S
C377 C376 1.391 . S
C378 H368 0.950 . S
C378 C379 1.386 . S
C378 C380 1.391 . S
C379 C378 1.386 . S
C379 C383 1.393 . S
C380 H369 0.950 . S
C380 C378 1.391 . S
C380 C381 1.400 . S
C381 C375 1.491 1_545 S
C381 C380 1.400 . S
C381 C382 1.398 . S
C382 H370 0.950 . S
C382 C381 1.398 . S
C382 C383 1.391 . S
C383 H371 0.950 . S
C383 C379 1.393 . S
C383 C382 1.391 . S
H384 C392 0.950 . S
H385 C397 0.950 . S
H386 C394 0.950 . S
H387 C396 0.950 . S
H388 C398 0.950 . S
H389 C400 0.950 . S
H390 C402 0.950 . S
H391 C403 0.950 . S
C392 H384 0.950 . S
C392 C393 1.386 . S
C392 C394 1.391 . S
C393 C392 1.386 . S
C393 C397 1.393 . S
C394 H386 0.950 . S
C394 C392 1.391 . S
C394 C395 1.400 . S
C395 C394 1.400 . S
C395 C396 1.398 . S
C395 C401 1.491 1_455 S
C396 H387 0.950 . S
C396 C395 1.398 . S
C396 C397 1.391 . S
C397 H385 0.950 . S
C397 C393 1.393 . S
C397 C396 1.391 . S
C398 H388 0.950 . S
C398 C399 1.386 . S
C398 C400 1.391 . S
C399 C398 1.386 . S
C399 C403 1.393 . S
C400 H389 0.950 . S
C400 C398 1.391 . S
C400 C401 1.400 . S
C401 C395 1.491 1_655 S
C401 C400 1.400 . S
C401 C402 1.398 . S
C402 H390 0.950 . S
C402 C401 1.398 . S
C402 C403 1.391 . S
C403 H391 0.950 . S
C403 C399 1.393 . S
C403 C402 1.391 . S
H404 C412 0.950 . S
H405 C417 0.950 . S
H406 C414 0.950 . S
H407 C416 0.950 . S
H408 C418 0.950 . S
H409 C420 0.950 . S
H410 C422 0.950 . S
H411 C423 0.950 . S
C412 H404 0.950 . S
C412 C413 1.386 1_554 S
C412 C414 1.391 . S
C413 C412 1.386 1_556 S
C413 C417 1.393 . S
C414 H406 0.950 . S
C414 C412 1.391 . S
C414 C415 1.400 1_554 S
C415 C414 1.400 1_556 S
C415 C416 1.398 . S
C415 C421 1.491 1_565 S
C416 H407 0.950 . S
C416 C415 1.398 . S
C416 C417 1.391 . S
C417 H405 0.950 . S
C417 C413 1.393 . S
C417 C416 1.391 . S
C418 H408 0.950 . S
C418 C419 1.386 . S
C418 C420 1.391 . S
C419 C418 1.386 . S
C419 C423 1.393 1_556 S
C420 H409 0.950 . S
C420 C418 1.391 . S
C420 C421 1.400 . S
C421 C415 1.491 1_545 S
C421 C420 1.400 . S
C421 C422 1.398 1_556 S
C422 H410 0.950 . S
C422 C421 1.398 1_554 S
C422 C423 1.391 . S
C423 H411 0.950 . S
C423 C419 1.393 1_554 S
C423 C422 1.391 . S
H424 C432 0.950 . S
H425 C437 0.950 . S
H426 C434 0.950 . S
H427 C436 0.950 . S
H428 C438 0.950 . S
H429 C440 0.950 . S
H430 C442 0.950 . S
H431 C443 0.950 . S
C432 H424 0.950 . S
C432 C433 1.386 . S
C432 C434 1.391 . S
C433 C432 1.386 . S
C433 C437 1.393 . S
C434 H426 0.950 . S
C434 C432 1.391 . S
C434 C435 1.400 . S
C435 C434 1.400 . S
C435 C436 1.398 . S
C435 C441 1.491 . S
C436 H427 0.950 . S
C436 C435 1.398 . S
C436 C437 1.391 . S
C437 H425 0.950 . S
C437 C433 1.393 . S
C437 C436 1.391 . S
C438 H428 0.950 . S
C438 C439 1.386 . S
C438 C440 1.391 . S
C439 C438 1.386 . S
C439 C443 1.393 . S
C440 H429 0.950 . S
C440 C438 1.391 . S
C440 C441 1.400 . S
C441 C435 1.491 . S
C441 C440 1.400 . S
C441 C442 1.398 . S
C442 H430 0.950 . S
C442 C441 1.398 . S
C442 C443 1.391 . S
C443 H431 0.950 . S
C443 C439 1.393 . S
C443 C442 1.391 . S
H444 C452 0.950 . S
H445 C457 0.950 . S
H446 C454 0.950 . S
H447 C456 0.950 . S
H448 C458 0.950 . S
H449 C460 0.950 . S
H450 C462 0.950 . S
H451 C463 0.950 . S
C452 H444 0.950 . S
C452 C453 1.386 . S
C452 C454 1.391 . S
C453 C452 1.386 . S
C453 C457 1.393 . S
C454 H446 0.950 . S
C454 C452 1.391 . S
C454 C455 1.400 . S
C455 C454 1.400 . S
C455 C456 1.398 . S
C455 C461 1.491 . S
C456 H447 0.950 . S
C456 C455 1.398 . S
C456 C457 1.391 . S
C457 H445 0.950 . S
C457 C453 1.393 . S
C457 C456 1.391 . S
C458 H448 0.950 . S
C458 C459 1.386 . S
C458 C460 1.391 . S
C459 C458 1.386 . S
C459 C463 1.393 . S
C460 H449 0.950 . S
C460 C458 1.391 . S
C460 C461 1.400 . S
C461 C455 1.491 . S
C461 C460 1.400 . S
C461 C462 1.398 . S
C462 H450 0.950 . S
C462 C461 1.398 . S
C462 C463 1.391 . S
C463 H451 0.950 . S
C463 C459 1.393 . S
C463 C462 1.391 . S
H464 C472 0.950 . S
H465 C477 0.950 . S
H466 C474 0.950 . S
H467 C476 0.950 . S
H468 C478 0.950 . S
H469 C480 0.950 . S
H470 C482 0.950 1_556 S
H471 C483 0.950 1_556 S
C472 H464 0.950 . S
C472 C473 1.386 1_556 S
C472 C474 1.391 . S
C473 C472 1.386 1_554 S
C473 C477 1.393 . S
C474 H466 0.950 . S
C474 C472 1.391 . S
C474 C475 1.400 1_556 S
C475 C474 1.400 1_554 S
C475 C476 1.398 . S
C475 C481 1.491 . S
C476 H467 0.950 . S
C476 C475 1.398 . S
C476 C477 1.391 . S
C477 H465 0.950 . S
C477 C473 1.393 . S
C477 C476 1.391 . S
C478 H468 0.950 . S
C478 C479 1.386 . S
C478 C480 1.391 . S
C479 C478 1.386 . S
C479 C483 1.393 . S
C480 H469 0.950 . S
C480 C478 1.391 . S
C480 C481 1.400 . S
C481 C475 1.491 . S
C481 C480 1.400 . S
C481 C482 1.398 . S
C482 H470 0.950 1_554 S
C482 C481 1.398 . S
C482 C483 1.391 . S
C483 H471 0.950 1_554 S
C483 C479 1.393 . S
C483 C482 1.391 . S
H484 C492 0.950 . S
H485 C497 0.950 . S
H486 C494 0.950 . S
H487 C496 0.950 . S
H488 C498 0.950 . S
H489 C500 0.950 . S
H490 C502 0.950 . S
H491 C503 0.950 . S
C492 H484 0.950 . S
C492 C493 1.386 . S
C492 C494 1.391 . S
C493 C492 1.386 . S
C493 C497 1.393 . S
C494 H486 0.950 . S
C494 C492 1.391 . S
C494 C495 1.400 . S
C495 C494 1.400 . S
C495 C496 1.398 . S
C495 C501 1.491 . S
C496 H487 0.950 . S
C496 C495 1.398 . S
C496 C497 1.391 . S
C497 H485 0.950 . S
C497 C493 1.393 . S
C497 C496 1.391 . S
C498 H488 0.950 . S
C498 C499 1.386 . S
C498 C500 1.391 . S
C499 C498 1.386 . S
C499 C503 1.393 . S
C500 H489 0.950 . S
C500 C498 1.391 . S
C500 C501 1.400 . S
C501 C495 1.491 . S
C501 C500 1.400 . S
C501 C502 1.398 . S
C502 H490 0.950 . S
C502 C501 1.398 . S
C502 C503 1.391 . S
C503 H491 0.950 . S
C503 C499 1.393 . S
C503 C502 1.391 . S
C193 N12 0.477 . S
C199 N104 0.428 . S
C213 C39 1.788 . S
C219 C131 1.777 . S
C233 N150 0.434 . S
C239 N58 0.461 . S
C253 C177 1.783 . S
C259 C85 1.788 . S
C273 N140 1.299 . S
C279 N48 1.302 . S
C293 C168 2.686 . S
C299 C76 2.682 . S
C313 N2 1.331 . S
C319 N94 1.321 . S
C333 C30 2.686 . S
C339 C122 2.687 . S
C353 C53 1.868 . S
C359 C7 1.873 . S
C373 N71 1.805 . S
C379 N25 1.796 . S
C393 C99 1.888 . S
C399 C145 1.885 . S
C413 N163 1.774 1_556 S
C419 N117 1.789 1_556 S
C433 C16 1.824 . S
C439 N127 1.818 . S
C453 C154 1.826 . S
C459 N35 1.817 . S
C473 C62 1.830 . S
C479 N173 1.808 . S
C493 N81 1.795 . S
C499 C108 1.813 . S
