# Generated by pormake.
# Topology sml, (6)-cn, num edge types: 1
# Building blocks:
#     Node 0, Type 0, BuildingBlock: KUMJIN_clean_sbu_0, # of connection points: 6
#     Node 1, Type 0, BuildingBlock: KUMJIN_clean_sbu_0, # of connection points: 6
#     Node 2, Type 0, BuildingBlock: KUMJIN_clean_sbu_0, # of connection points: 6
#     Node 3, Type 0, BuildingBlock: KUMJIN_clean_sbu_0, # of connection points: 6
#     Node 4, Type 0, BuildingBlock: KUMJIN_clean_sbu_0, # of connection points: 6
#     Node 5, Type 0, BuildingBlock: KUMJIN_clean_sbu_0, # of connection points: 6
#     Edge 6, Type (0, 0), BuildingBlock: XIVTED_clean_linker_0, # of connection points: 2
#     Edge 7, Type (0, 0), BuildingBlock: XIVTED_clean_linker_0, # of connection points: 2
#     Edge 8, Type (0, 0), BuildingBlock: XIVTED_clean_linker_0, # of connection points: 2
#     Edge 9, Type (0, 0), BuildingBlock: XIVTED_clean_linker_0, # of connection points: 2
#     Edge 10, Type (0, 0), BuildingBlock: XIVTED_clean_linker_0, # of connection points: 2
#     Edge 11, Type (0, 0), BuildingBlock: XIVTED_clean_linker_0, # of connection points: 2
#     Edge 12, Type (0, 0), BuildingBlock: XIVTED_clean_linker_0, # of connection points: 2
#     Edge 13, Type (0, 0), BuildingBlock: XIVTED_clean_linker_0, # of connection points: 2
#     Edge 14, Type (0, 0), BuildingBlock: XIVTED_clean_linker_0, # of connection points: 2
#     Edge 15, Type (0, 0), BuildingBlock: XIVTED_clean_linker_0, # of connection points: 2
#     Edge 16, Type (0, 0), BuildingBlock: XIVTED_clean_linker_0, # of connection points: 2
#     Edge 17, Type (0, 0), BuildingBlock: XIVTED_clean_linker_0, # of connection points: 2
#     Edge 18, Type (0, 0), BuildingBlock: XIVTED_clean_linker_0, # of connection points: 2
#     Edge 19, Type (0, 0), BuildingBlock: XIVTED_clean_linker_0, # of connection points: 2
#     Edge 20, Type (0, 0), BuildingBlock: XIVTED_clean_linker_0, # of connection points: 2
#     Edge 21, Type (0, 0), BuildingBlock: XIVTED_clean_linker_0, # of connection points: 2
#     Edge 22, Type (0, 0), BuildingBlock: XIVTED_clean_linker_0, # of connection points: 2
#     Edge 23, Type (0, 0), BuildingBlock: XIVTED_clean_linker_0, # of connection points: 2
# Relax obj value: 0.028
# Max RMSD: 0.151
# Mean RMSD: 0.151
data_MOF--net-sml--node1-KUMJIN_clean_sbu_0--edge1-XIVTED_clean_linker_0
_symmetry_space_group_name_H-M    P1
_symmetry_Int_Tables_number       1
_symmetry_cell_setting            triclinic
loop_
_symmetry_equiv_pos_as_xyz
'x, y, z'
_cell_length_a     33.436111
_cell_length_b     33.442393
_cell_length_c     24.239739
_cell_angle_alpha  90.037127
_cell_angle_beta   89.882505
_cell_angle_gamma 120.0607
loop_
_atom_site_label
_atom_site_type_symbol
_atom_site_fract_x
_atom_site_fract_y
_atom_site_fract_z
_atom_type_partial_charge
Eu0 Eu 0.17646 0.426 0.97071 0.0
C1 C 0.33733 0.40204 0.06701 0.0
C2 C 0.30624 0.3196 0.05885 0.0
C3 C 0.3893 0.37154 0.05522 0.0
C4 C 0.29977 0.35796 0.06496 0.0
C5 C 0.38262 0.40937 0.06338 0.0
C6 C 0.35114 0.3267 0.05285 0.0
C7 C 0.41131 0.49049 0.08019 0.0
N8 N 0.32965 0.43766 0.0753 0.0
C9 C 0.36572 0.48137 0.08361 0.0
C10 C 0.41979 0.45436 0.06945 0.0
Eu11 Eu 0.252 0.42081 0.07822 0.0
N12 N 0.257 0.35243 0.07145 0.0
C13 C 0.21935 0.30908 0.07592 0.0
C14 C 0.2675 0.27524 0.06043 0.0
C15 C 0.22394 0.26997 0.0698 0.0
H16 H 0.35921 0.50941 0.09161 0.0
H17 H 0.1938 0.23579 0.07208 0.0
H18 H 0.35678 0.2977 0.04769 0.0
H19 H 0.43981 0.52531 0.0858 0.0
H20 H 0.18532 0.30411 0.08269 0.0
H21 H 0.2089 0.60284 0.98352 0.0
H22 H 0.27097 0.24489 0.05576 0.0
H23 H 0.07605 0.32663 0.95836 0.0
H24 H 0.22938 0.54202 0.97164 0.0
H25 H 0.99233 0.29911 0.96292 0.0
H26 H 0.42382 0.37649 0.05187 0.0
H27 H 0.12717 0.58153 0.99655 0.0
H28 H 0.0439 0.51941 1.00172 0.0
H29 H 0.45504 0.46132 0.06704 0.0
H30 H 0.98481 0.43681 0.99535 0.0
N31 N 0.16014 0.48675 0.97952 0.0
C32 C 0.19361 0.53223 0.97741 0.0
C33 C 0.13598 0.55467 0.99148 0.0
C34 C 0.10164 0.508 0.99092 0.0
C35 C 0.18214 0.56683 0.98407 0.0
C36 C 0.11495 0.4744 0.98429 0.0
H37 H 0.96529 0.35468 0.98002 0.0
N38 N 0.0959 0.3968 0.97336 0.0
C39 C 0.01714 0.33543 0.96827 0.0
C40 C 0.08181 0.42805 0.98083 0.0
C41 C 0.06451 0.35111 0.96559 0.0
C42 C 0.00202 0.36692 0.97796 0.0
C43 C 0.03445 0.41393 0.98393 0.0
O44 O 0.1579 0.39128 0.89064 0.0
O45 O 0.22089 0.39767 0.99593 0.0
O46 O 0.29846 0.45966 1.00446 0.0
O47 O 0.25132 0.48196 0.95822 0.0
O48 O 0.16089 0.35179 0.95743 0.0
O49 O 0.19695 0.46611 0.89447 0.0
O50 O 0.27971 0.45873 0.15533 0.0
O51 O 0.20989 0.45243 0.05303 0.0
O52 O 0.13228 0.39605 0.04621 0.0
O53 O 0.17454 0.3686 0.09315 0.0
O54 O 0.27455 0.49637 0.0849 0.0
O55 O 0.2238 0.38792 0.15778 0.0
C56 C 0.19898 0.35717 0.97749 0.0
C57 C 0.15409 0.43216 0.81302 0.0
C58 C 0.14961 0.43188 0.71214 0.0
C59 C 0.17126 0.42959 0.76095 0.0
C60 C 0.11018 0.43664 0.71675 0.0
C61 C 0.11485 0.43686 0.81668 0.0
C62 C 0.09303 0.43906 0.76862 0.0
C63 C 0.29118 0.48306 0.96516 0.0
C64 C 0.17791 0.42976 0.86265 0.0
C65 C 0.02104 0.44711 0.99225 0.0
C66 C 0.05459 0.49405 0.99584 0.0
C67 C 0.23664 0.49367 0.06826 0.0
C68 C 0.27123 0.41611 0.23677 0.0
C69 C 0.25375 0.41927 0.28839 0.0
C70 C 0.2715 0.41187 0.33759 0.0
C71 C 0.30718 0.4012 0.33397 0.0
C72 C 0.3066 0.40531 0.23405 0.0
C73 C 0.32447 0.39792 0.28257 0.0
C74 C 0.13633 0.37089 0.08539 0.0
C75 C 0.25181 0.42417 0.18652 0.0
H76 H 0.20123 0.42523 0.75867 0.0
H77 H 0.09292 0.4392 0.68031 0.0
H78 H 0.10122 0.43887 0.85652 0.0
H79 H 0.06278 0.44284 0.77153 0.0
H80 H 0.22669 0.42812 0.29011 0.0
H81 H 0.32129 0.3947 0.37082 0.0
H82 H 0.32029 0.40259 0.19456 0.0
H83 H 0.35173 0.38948 0.28037 0.0
Eu84 Eu 0.75498 0.17251 0.30342 0.0
C85 C 0.93122 0.34083 0.40353 0.0
C86 C 0.98432 0.31151 0.40306 0.0
C87 C 0.01389 0.39411 0.39544 0.0
C88 C 0.93887 0.30396 0.40557 0.0
C89 C 0.96868 0.38645 0.39966 0.0
C90 C 0.02169 0.35668 0.39702 0.0
C91 C 0.91425 0.41362 0.40841 0.0
N92 N 0.88723 0.33224 0.4078 0.0
C93 C 0.87832 0.36777 0.41218 0.0
C94 C 0.95963 0.42301 0.40148 0.0
Eu95 Eu 0.82766 0.25408 0.41298 0.0
N96 N 0.90197 0.26082 0.41158 0.0
C97 C 0.90846 0.2239 0.4186 0.0
C98 C 0.9909 0.27353 0.40774 0.0
C99 C 0.95283 0.22961 0.41617 0.0
H100 H 0.84317 0.36052 0.41738 0.0
H101 H 0.95758 0.20004 0.42055 0.0
H102 H 0.0568 0.3631 0.39466 0.0
H103 H 0.90693 0.44164 0.41084 0.0
H104 H 0.87959 0.18958 0.42448 0.0
H105 H 0.59723 0.18315 0.31061 0.0
H106 H 0.02523 0.27784 0.40586 0.0
H107 H 0.76551 0.07914 0.28357 0.0
H108 H 0.68074 0.21258 0.29984 0.0
H109 H 0.71658 0.994 0.28533 0.0
H110 H 0.0431 0.42886 0.39198 0.0
H111 H 0.54368 0.09965 0.32538 0.0
H112 H 0.5317 0.0193 0.33026 0.0
H113 H 0.98745 0.45855 0.39873 0.0
H114 H 0.56406 0.96768 0.32248 0.0
N115 N 0.67508 0.14692 0.31156 0.0
C116 C 0.65789 0.17616 0.30695 0.0
C117 C 0.58041 0.11247 0.32124 0.0
C118 C 0.59789 0.08221 0.32183 0.0
C119 C 0.61049 0.15958 0.31278 0.0
C120 C 0.64601 0.10073 0.31635 0.0
H121 H 0.63286 0.9579 0.30475 0.0
N122 N 0.71024 0.09082 0.30339 0.0
C123 C 0.70142 0.01546 0.29317 0.0
C124 C 0.66412 0.07172 0.31183 0.0
C125 C 0.72901 0.06361 0.29211 0.0
C126 C 0.6542 0.99521 0.30427 0.0
C127 C 0.63482 0.02336 0.31295 0.0
O128 O 0.77763 0.1601 0.22357 0.0
O129 O 0.8256 0.22358 0.33136 0.0
O130 O 0.83118 0.2976 0.33785 0.0
O131 O 0.76501 0.24431 0.29026 0.0
O132 O 0.8195 0.16627 0.29276 0.0
O133 O 0.73242 0.18881 0.22656 0.0
O134 O 0.81684 0.28621 0.48583 0.0
O135 O 0.75599 0.20473 0.38535 0.0
O136 O 0.74791 0.12683 0.37511 0.0
O137 O 0.80424 0.17878 0.43657 0.0
O138 O 0.76834 0.26792 0.41547 0.0
O139 O 0.83101 0.23018 0.49574 0.0
C140 C 0.84853 0.20563 0.3141 0.0
C141 C 0.73101 0.14908 0.14523 0.0
C142 C 0.72642 0.14491 0.04439 0.0
C143 C 0.74872 0.16848 0.09316 0.0
C144 C 0.68602 0.10143 0.04891 0.0
C145 C 0.6908 0.10577 0.14881 0.0
C146 C 0.66848 0.0821 0.10074 0.0
C147 C 0.80052 0.28658 0.29743 0.0
C148 C 0.75483 0.1751 0.19507 0.0
C149 C 0.58712 0.00474 0.32105 0.0
C150 C 0.56869 0.03413 0.32553 0.0
C151 C 0.73678 0.22782 0.39837 0.0
C152 C 0.85058 0.28215 0.57027 0.0
C153 C 0.83258 0.26264 0.62224 0.0
C154 C 0.85789 0.28264 0.6709 0.0
C155 C 0.90172 0.32264 0.66623 0.0
C156 C 0.89437 0.32174 0.56663 0.0
C157 C 0.91973 0.34185 0.61452 0.0
C158 C 0.77266 0.13646 0.42065 0.0
C159 C 0.82311 0.26011 0.52059 0.0
H160 H 0.7795 0.2023 0.09076 0.0
H161 H 0.66828 0.08202 1.01238 0.0
H162 H 0.67669 0.09042 0.1886 0.0
H163 H 0.63748 0.04858 0.10362 0.0
H164 H 0.79906 0.23147 0.62452 0.0
H165 H 0.92197 0.33952 0.70258 0.0
H166 H 0.90885 0.33703 0.52693 0.0
H167 H 0.95346 0.37259 0.61159 0.0
Eu168 Eu 0.57659 0.75221 0.6303 0.0
C169 C 0.58949 0.93105 0.73584 0.0
C170 C 0.67104 0.98748 0.73026 0.0
C171 C 0.61447 0.01288 0.73024 0.0
C172 C 0.63487 0.94119 0.7338 0.0
C173 C 0.57872 0.96678 0.7351 0.0
C174 C 0.66056 0.02321 0.72771 0.0
C175 C 0.49837 0.90889 0.74739 0.0
N176 N 0.5559 0.88625 0.74057 0.0
C177 C 0.51087 0.87475 0.74809 0.0
C178 C 0.5324 0.95511 0.74033 0.0
Eu179 Eu 0.57892 0.8299 0.74068 0.0
N180 N 0.6437 0.90581 0.73621 0.0
C181 C 0.68821 0.91458 0.73863 0.0
C182 C 0.71665 0.99648 0.73012 0.0
C183 C 0.72525 0.95987 0.73488 0.0
H184 H 0.48448 0.839 0.75347 0.0
H185 H 0.76041 0.96649 0.73557 0.0
H186 H 0.68786 0.05895 0.72465 0.0
H187 H 0.46254 0.89954 0.75231 0.0
H188 H 0.69555 0.88678 0.74207 0.0
H189 H 0.40318 0.60094 0.63786 0.0
H190 H 0.7454 0.03153 0.72724 0.0
H191 H 0.67882 0.75679 0.6179 0.0
H192 H 0.461 0.68334 0.62602 0.0
H193 H 0.71043 0.7042 0.62467 0.0
H194 H 0.60689 0.04081 0.72922 0.0
H195 H 0.42851 0.54404 0.65481 0.0
H196 H 0.49384 0.52773 0.6638 0.0
H197 H 0.52268 0.98153 0.73994 0.0
H198 H 0.57723 0.55541 0.6587 0.0
N199 N 0.5186 0.67353 0.6372 0.0
C200 C 0.4726 0.65892 0.63306 0.0
C201 C 0.45408 0.58021 0.64949 0.0
C202 C 0.50135 0.59512 0.65053 0.0
C203 C 0.43965 0.61219 0.63981 0.0
C204 C 0.53317 0.64256 0.64349 0.0
H205 H 0.65814 0.621 0.64315 0.0
N206 N 0.60945 0.7039 0.63255 0.0
C207 C 0.6737 0.69082 0.62943 0.0
C208 C 0.58002 0.65814 0.64068 0.0
C209 C 0.65567 0.72049 0.62541 0.0
C210 C 0.64407 0.64389 0.63992 0.0
C211 C 0.59655 0.62691 0.64522 0.0
O212 O 0.61094 0.76874 0.55 0.0
O213 O 0.60269 0.82484 0.65686 0.0
O214 O 0.5392 0.8363 0.66733 0.0
O215 O 0.51727 0.76655 0.62223 0.0
O216 O 0.64969 0.81242 0.61752 0.0
O217 O 0.53622 0.73514 0.5544 0.0
O218 O 0.54169 0.81623 0.81891 0.0
O219 O 0.55049 0.75742 0.7131 0.0
O220 O 0.60643 0.73841 0.70592 0.0
O221 O 0.63416 0.80824 0.75261 0.0
O222 O 0.50465 0.77252 0.75162 0.0
O223 O 0.61449 0.83771 0.81886 0.0
C224 C 0.64327 0.84429 0.63818 0.0
C225 C 0.56889 0.72396 0.47326 0.0
C226 C 0.56831 0.71793 0.37265 0.0
C227 C 0.57117 0.74282 0.42082 0.0
C228 C 0.56297 0.67359 0.37814 0.0
C229 C 0.56364 0.67983 0.47791 0.0
C230 C 0.56067 0.6548 0.43042 0.0
C231 C 0.51427 0.80419 0.62997 0.0
C232 C 0.57241 0.75128 0.52232 0.0
C233 C 0.56517 0.57988 0.65441 0.0
C234 C 0.51769 0.56407 0.65723 0.0
C235 C 0.50944 0.73983 0.73025 0.0
C236 C 0.58463 0.85435 0.89855 0.0
C237 C 0.58278 0.83495 0.95055 0.0
C238 C 0.58877 0.86041 0.99924 0.0
C239 C 0.59679 0.90585 0.99466 0.0
C240 C 0.59275 0.89961 0.89489 0.0
C241 C 0.5988 0.92519 0.94285 0.0
C242 C 0.632 0.76779 0.74476 0.0
C243 C 0.57795 0.82657 0.84884 0.0
H244 H 0.57467 0.77678 0.41767 0.0
H245 H 0.56125 0.65367 0.34207 0.0
H246 H 0.56192 0.66489 0.51809 0.0
H247 H 0.55678 0.62077 0.43409 0.0
H248 H 0.57719 0.80014 0.95288 0.0
H249 H 0.60089 0.92629 0.0311 0.0
H250 H 0.59433 0.91506 0.85512 0.0
H251 H 0.60488 0.96011 0.93991 0.0
Eu252 Eu 0.8205 0.57808 0.96488 0.0
C253 C 0.65248 0.58722 0.06562 0.0
C254 C 0.67771 0.66872 0.06038 0.0
C255 C 0.5958 0.61204 0.05587 0.0
C256 C 0.68774 0.63259 0.06484 0.0
C257 C 0.60601 0.57637 0.06233 0.0
C258 C 0.63162 0.65817 0.05481 0.0
C259 C 0.58311 0.49614 0.07623 0.0
N260 N 0.66353 0.55372 0.07227 0.0
C261 C 0.62974 0.50872 0.07944 0.0
C262 C 0.5712 0.53009 0.06701 0.0
Eu263 Eu 0.74293 0.57671 0.07493 0.0
N264 N 0.73178 0.64146 0.07068 0.0
C265 C 0.76721 0.68592 0.07617 0.0
C266 C 0.7142 0.71435 0.06299 0.0
C267 C 0.75908 0.72295 0.07168 0.0
H268 H 0.63893 0.48239 0.08626 0.0
H269 H 0.78747 0.7581 0.07475 0.0
H270 H 0.62326 0.68544 0.05091 0.0
H271 H 0.55644 0.46033 0.08081 0.0
H272 H 0.80215 0.69332 0.08255 0.0
H273 H 0.79999 0.40547 0.96429 0.0
H274 H 0.70799 0.74308 0.05959 0.0
H275 H 0.91733 0.68138 0.95793 0.0
H276 H 0.77445 0.46277 0.95832 0.0
H277 H 0.00185 0.71373 0.96192 0.0
H278 H 0.56032 0.60439 0.0528 0.0
H279 H 0.88293 0.43131 0.97607 0.0
H280 H 0.96451 0.4968 0.98193 0.0
H281 H 0.53514 0.52042 0.06471 0.0
H282 H 0.01965 0.58055 0.98082 0.0
N283 N 0.84192 0.52063 0.96886 0.0
C284 C 0.8107 0.47463 0.96379 0.0
C285 C 0.87185 0.45667 0.9738 0.0
C286 C 0.90394 0.504 0.97598 0.0
C287 C 0.82505 0.44196 0.96705 0.0
C288 C 0.88772 0.53557 0.97307 0.0
H289 H 0.03385 0.66161 0.97288 0.0
N290 N 0.90177 0.61183 0.9674 0.0
C291 C 0.97883 0.67679 0.96496 0.0
C292 C 0.91863 0.58259 0.97203 0.0
C293 C 0.93097 0.65836 0.96258 0.0
C294 C 0.99675 0.64726 0.97123 0.0
C295 C 0.96661 0.59949 0.97435 0.0
O296 O 0.83995 0.61411 0.8857 0.0
O297 O 0.77322 0.6026 0.99256 0.0
O298 O 0.69789 0.53729 1.00088 0.0
O299 O 0.74728 0.51825 0.95412 0.0
O300 O 0.83212 0.65111 0.9541 0.0
O301 O 0.79689 0.53943 0.88787 0.0
O302 O 0.71723 0.53831 0.15211 0.0
O303 O 0.78811 0.5496 0.04682 0.0
O304 O 0.86312 0.60637 0.04155 0.0
O305 O 0.81948 0.63215 0.08867 0.0
O306 O 0.72643 0.50255 0.08328 0.0
O307 O 0.77012 0.61055 0.1541 0.0
C308 C 0.79354 0.64351 0.97522 0.0
C309 C 0.84154 0.57258 0.80753 0.0
C310 C 0.84537 0.57063 0.70687 0.0
C311 C 0.82421 0.57429 0.75543 0.0
C312 C 0.88452 0.56548 0.71163 0.0
C313 C 0.88046 0.56737 0.81149 0.0
C314 C 0.90185 0.56389 0.7636 0.0
C315 C 0.7061 0.51392 0.96239 0.0
C316 C 0.8181 0.57617 0.85691 0.0
C317 C 0.98291 0.56825 0.97882 0.0
C318 C 0.9516 0.52061 0.97959 0.0
C319 C 0.76436 0.50809 0.06234 0.0
C320 C 0.72245 0.58058 0.23268 0.0
C321 C 0.73998 0.57857 0.28452 0.0
C322 C 0.72108 0.58525 0.33326 0.0
C323 C 0.68405 0.59384 0.32899 0.0
C324 C 0.68573 0.58935 0.22918 0.0
C325 C 0.66662 0.59589 0.27728 0.0
C326 C 0.85826 0.6309 0.08098 0.0
C327 C 0.74349 0.57379 0.18302 0.0
H328 H 0.79447 0.57901 0.75289 0.0
H329 H 0.90139 0.56198 0.67528 0.0
H330 H 0.89417 0.56595 0.8514 0.0
H331 H 0.93186 0.55974 0.76673 0.0
H332 H 0.76809 0.57127 0.28679 0.0
H333 H 0.669 0.59968 0.36554 0.0
H334 H 0.67199 0.59118 0.18943 0.0
H335 H 0.63831 0.60277 0.27451 0.0
Eu336 Eu 0.23094 0.81516 0.29791 0.0
C337 C 0.06427 0.66409 0.39365 0.0
C338 C 0.01146 0.69388 0.3941 0.0
C339 C 0.98307 0.61358 0.37065 0.0
C340 C 0.05646 0.70065 0.40099 0.0
C341 C 0.02717 0.61974 0.38031 0.0
C342 C 0.97525 0.65061 0.37744 0.0
C343 C 0.07819 0.58927 0.39379 0.0
N344 N 0.10726 0.671 0.40316 0.0
C345 C 0.11371 0.63367 0.40694 0.0
C346 C 0.03496 0.58241 0.37914 0.0
Eu347 Eu 0.16706 0.74908 0.41924 0.0
N348 N 0.09222 0.74229 0.41686 0.0
C349 C 0.08387 0.77703 0.43151 0.0
C350 C 0.00384 0.73048 0.40532 0.0
C351 C 0.04001 0.77192 0.42512 0.0
H352 H 0.14653 0.63776 0.41962 0.0
H353 H 0.03414 0.8 0.43575 0.0
H354 H 0.94075 0.64509 0.37125 0.0
H355 H 0.08412 0.5603 0.39537 0.0
H356 H 0.11032 0.80905 0.4485 0.0
H357 H 0.36154 0.7631 0.29971 0.0
H358 H 0.96988 0.72664 0.40043 0.0
H359 H 0.24533 0.92049 0.27516 0.0
H360 H 0.28283 0.75193 0.29311 0.0
H361 H 0.3087 0.0021 0.27486 0.0
H362 H 0.95445 0.57997 0.35958 0.0
H363 H 0.42862 0.84175 0.31193 0.0
H364 H 0.45939 0.92744 0.317 0.0
H365 H 0.00737 0.54789 0.36926 0.0
H366 H 0.44493 0.99258 0.31027 0.0
N367 N 0.30508 0.82309 0.30279 0.0
C368 C 0.31185 0.78625 0.29847 0.0
C369 C 0.39415 0.83696 0.30912 0.0
C370 C 0.38711 0.87485 0.31047 0.0
C371 C 0.3564 0.79253 0.30204 0.0
C372 C 0.34153 0.86668 0.30664 0.0
H373 H 0.38897 0.02076 0.29358 0.0
N374 N 0.28936 0.89399 0.29597 0.0
C375 C 0.31608 0.97467 0.2833 0.0
C376 C 0.33342 0.9033 0.30315 0.0
C377 C 0.2804 0.9286 0.28337 0.0
C378 C 0.36133 0.98506 0.29403 0.0
C379 C 0.37063 0.94915 0.30301 0.0
O380 O 0.21523 0.83703 0.21987 0.0
O381 O 0.16141 0.76921 0.33351 0.0
O382 O 0.19014 0.70675 0.36758 0.0
O383 O 0.19692 0.73848 0.28088 0.0
O384 O 0.17045 0.82805 0.29474 0.0
O385 O 0.24355 0.79134 0.21944 0.0
O386 O 0.17603 0.70812 0.48331 0.0
O387 O 0.23627 0.78158 0.37582 0.0
O388 O 0.2415 0.86696 0.36453 0.0
O389 O 0.18307 0.82383 0.42836 0.0
O390 O 0.23538 0.79856 0.45778 0.0
O391 O 0.15484 0.75779 0.50544 0.0
C392 C 0.1404 0.78961 0.31747 0.0
C393 C 0.25591 0.83671 0.14 0.0
C394 C 0.26206 0.83637 0.03966 0.0
C395 C 0.2377 0.81639 0.08873 0.0
C396 C 0.30508 0.87742 0.04285 0.0
C397 C 0.29893 0.87737 0.14262 0.0
C398 C 0.32333 0.89765 0.09406 0.0
C399 C 0.18971 0.70386 0.3131 0.0
C400 C 0.22923 0.81411 0.18979 0.0
C401 C 0.41593 0.95756 0.3097 0.0
C402 C 0.42416 0.92047 0.31349 0.0
C403 C 0.26161 0.8041 0.41634 0.0
C404 C 0.13892 0.69914 0.5704 0.0
C405 C 0.15471 0.71715 0.62317 0.0
C406 C 0.13043 0.69305 0.67063 0.0
C407 C 0.09017 0.64974 0.66428 0.0
C408 C 0.09854 0.65624 0.56451 0.0
C409 C 0.07443 0.63156 0.61149 0.0
C410 C 0.21663 0.86361 0.40859 0.0
C411 C 0.16524 0.72733 0.52307 0.0
H412 H 0.20417 0.78516 0.08714 0.0
H413 H 0.32492 0.89351 1.00589 0.0
H414 H 0.31356 0.89327 0.18193 0.0
H415 H 0.35657 0.92905 0.09611 0.0
H416 H 0.1863 0.75018 0.62713 0.0
H417 H 0.07042 0.63034 0.69992 0.0
H418 H 0.08567 0.64208 0.52396 0.0
H419 H 0.04319 0.59842 0.607 0.0
Eu420 Eu 0.41124 0.23986 0.62762 0.0
C421 C 0.37921 0.06194 0.71192 0.0
C422 C 0.29558 0.0178 0.71448 0.0
C423 C 0.33851 0.98098 0.68423 0.0
C424 C 0.33748 0.05988 0.72223 0.0
C425 C 0.38006 0.02187 0.69503 0.0
C426 C 0.29633 0.97898 0.69381 0.0
C427 C 0.46252 0.06326 0.70824 0.0
N428 N 0.41894 0.10199 0.72225 0.0
C429 C 0.45989 0.10188 0.72488 0.0
C430 C 0.42256 0.02342 0.69176 0.0
Eu431 Eu 0.41178 0.16808 0.74328 0.0
N432 N 0.33775 0.09817 0.74189 0.0
C433 C 0.29712 0.09469 0.75951 0.0
C434 C 0.25406 0.01554 0.72886 0.0
C435 C 0.25497 0.05388 0.75249 0.0
H436 H 0.49124 0.13209 0.73844 0.0
H437 H 0.22312 0.052 0.76567 0.0
H438 H 0.26447 0.94679 0.68678 0.0
H439 H 0.49536 0.06422 0.70842 0.0
H440 H 0.29599 0.12255 0.77972 0.0
H441 H 0.59234 0.37506 0.63259 0.0
H442 H 0.22128 0.98395 0.7235 0.0
H443 H 0.31748 0.2499 0.61051 0.0
H444 H 0.52668 0.29534 0.62477 0.0
H445 H 0.29608 0.31093 0.61302 0.0
H446 H 0.3386 0.95024 0.67026 0.0
H447 H 0.57783 0.44008 0.64616 0.0
H448 H 0.52051 0.46775 0.65222 0.0
H449 H 0.4246 0.99341 0.67911 0.0
H450 H 0.43956 0.45009 0.64668 0.0
N451 N 0.47573 0.315 0.63491 0.0
C452 C 0.51998 0.32346 0.63048 0.0
C453 C 0.54892 0.40516 0.6428 0.0
C454 C 0.50335 0.39637 0.64439 0.0
C455 C 0.55725 0.36858 0.63493 0.0
C456 C 0.46701 0.35029 0.63988 0.0
H457 H 0.35595 0.39203 0.63148 0.0
N458 N 0.38803 0.296 0.62957 0.0
C459 C 0.33147 0.31966 0.62023 0.0
C460 C 0.42171 0.34049 0.63704 0.0
C461 C 0.34363 0.28529 0.61876 0.0
C462 C 0.36536 0.36538 0.63078 0.0
C463 C 0.41128 0.37641 0.63835 0.0
O464 O 0.3729 0.22338 0.54973 0.0
O465 O 0.3875 0.16885 0.65836 0.0
O466 O 0.47028 0.17925 0.68359 0.0
O467 O 0.46035 0.21503 0.60669 0.0
O468 O 0.33781 0.1795 0.62259 0.0
O469 O 0.44712 0.25545 0.54825 0.0
O470 O 0.46803 0.17871 0.79859 0.0
O471 O 0.44989 0.23857 0.70301 0.0
O472 O 0.37285 0.24995 0.69825 0.0
O473 O 0.35911 0.19154 0.76185 0.0
O474 O 0.43564 0.23548 0.78695 0.0
O475 O 0.39684 0.14708 0.83023 0.0
C476 C 0.34615 0.14858 0.64229 0.0
C477 C 0.41199 0.26647 0.46979 0.0
C478 C 0.41892 0.27631 0.36931 0.0
C479 C 0.4149 0.25037 0.41703 0.0
C480 C 0.41949 0.31846 0.37554 0.0
C481 C 0.41278 0.30858 0.4749 0.0
C482 C 0.41637 0.33431 0.4279 0.0
C483 C 0.47933 0.19377 0.63172 0.0
C484 C 0.4097 0.2395 0.51889 0.0
C485 C 0.4471 0.42219 0.64525 0.0
C486 C 0.49308 0.43218 0.64835 0.0
C487 C 0.45534 0.26266 0.74588 0.0
C488 C 0.45679 0.15812 0.89609 0.0
C489 C 0.44307 0.1722 0.944 0.0
C490 C 0.46094 0.17025 0.99595 0.0
C491 C 0.49177 0.15343 0.99962 0.0
C492 C 0.48808 0.14194 0.90072 0.0
C493 C 0.50516 0.13931 0.95228 0.0
C494 C 0.35298 0.22557 0.74327 0.0
C495 C 0.44031 0.16184 0.84093 0.0
H496 H 0.41505 0.21813 0.41336 0.0
H497 H 0.42192 0.33904 0.33986 0.0
H498 H 0.41088 0.32163 0.51511 0.0
H499 H 0.41685 0.36678 0.43204 0.0
H500 H 0.41957 0.18556 0.94076 0.0
H501 H 0.50597 0.15181 0.03916 0.0
H502 H 0.49922 0.13121 0.86441 0.0
H503 H 0.52922 0.12669 0.9555 0.0
H504 H 0.36476 0.31221 0.7467 0.0
H505 H 0.16112 0.26575 0.94982 0.0
H506 H 0.28566 0.178 0.82273 0.0
H507 H 0.28865 0.39594 0.94259 0.0
H508 H 0.19793 0.23046 0.89536 0.0
H509 H 0.32782 0.34171 0.80813 0.0
C510 C 0.33915 0.28863 0.77574 0.0
C511 C 0.3281 0.24225 0.77895 0.0
C512 C 0.21784 0.26662 0.90656 0.0
C513 C 0.28562 0.27624 0.8499 0.0
C514 C 0.19696 0.2867 0.93752 0.0
C515 C 0.22198 0.33377 0.95141 0.0
C516 C 0.26348 0.29431 0.88784 0.0
C517 C 0.26813 0.35954 0.93384 0.0
C518 C 0.31843 0.30573 0.81125 0.0
C519 C 0.29519 0.21383 0.81846 0.0
N520 N 0.28713 0.33967 0.90249 0.0
N521 N 0.27474 0.23116 0.85213 0.0
H522 H 0.11646 0.29805 0.15573 0.0
H523 H 0.89603 0.2973 0.2857 0.0
H524 H 0.06542 0.38753 0.10283 0.0
H525 H 0.90811 0.17493 0.287 0.0
H526 H 0.96879 0.33815 0.23556 0.0
H527 H 0.0496 0.25883 0.21845 0.0
C528 C 0.09136 0.30947 0.15728 0.0
C529 C 0.09645 0.3459 0.12353 0.0
C530 C 0.95584 0.30248 0.24726 0.0
C531 C 0.02076 0.30197 0.19578 0.0
C532 C 0.91437 0.27919 0.27648 0.0
C533 C 0.89602 0.23266 0.29112 0.0
C534 C 0.97932 0.27916 0.23211 0.0
C535 C 0.92122 0.21088 0.27671 0.0
C536 C 0.05328 0.28709 0.193 0.0
C537 C 0.06286 0.35934 0.12746 0.0
N538 N 0.96161 0.23427 0.24792 0.0
N539 N 0.02676 0.33758 0.16296 0.0
H540 H 0.74677 0.12865 0.52849 0.0
H541 H 0.7296 0.88963 0.59333 0.0
H542 H 0.77047 0.05548 0.39783 0.0
H543 H 0.61122 0.90529 0.62461 0.0
H544 H 0.76607 0.96365 0.54335 0.0
H545 H 0.71781 0.05935 0.58735 0.0
C546 C 0.74676 0.09832 0.51272 0.0
C547 C 0.7611 0.09757 0.45848 0.0
C548 C 0.7325 0.95109 0.56231 0.0
C549 C 0.72912 0.0193 0.52537 0.0
C550 C 0.71174 0.90909 0.59089 0.0
C551 C 0.66769 0.89167 0.61447 0.0
C552 C 0.70949 0.97631 0.55826 0.0
C553 C 0.64572 0.91794 0.60886 0.0
C554 C 0.73002 0.05894 0.54603 0.0
C555 C 0.75972 0.05728 0.43947 0.0
N556 N 0.66701 0.95918 0.58183 0.0
N557 N 0.74433 0.01977 0.47305 0.0
H558 H 0.61324 0.6798 0.76168 0.0
H559 H 0.82899 0.73457 0.94739 0.0
H560 H 0.70552 0.81973 0.81525 0.0
H561 H 0.70246 0.60328 0.94629 0.0
H562 H 0.78948 0.76842 0.89599 0.0
H563 H 0.65119 0.65262 0.82381 0.0
C564 C 0.64174 0.70503 0.78634 0.0
C565 C 0.65633 0.75232 0.78282 0.0
C566 C 0.77032 0.7324 0.90795 0.0
C567 C 0.70023 0.7209 0.85487 0.0
C568 C 0.79278 0.7131 0.93716 0.0
C569 C 0.7689 0.6661 0.95163 0.0
C570 C 0.72409 0.70405 0.89187 0.0
C571 C 0.7222 0.63966 0.93684 0.0
C572 C 0.66319 0.68929 0.8223 0.0
C573 C 0.69319 0.78301 0.81659 0.0
N574 N 0.70157 0.65884 0.90742 0.0
N575 N 0.71426 0.76681 0.85093 0.0
H576 H 0.09681 0.70117 0.27981 0.0
H577 H 0.87469 0.69996 0.15606 0.0
H578 H 0.07953 0.82006 0.29567 0.0
H579 H 0.93101 0.61694 0.0952 0.0
H580 H 0.94036 0.73782 0.22049 0.0
H581 H 0.02524 0.66191 0.22746 0.0
C582 C 0.07746 0.71875 0.27309 0.0
C583 C 0.0938 0.76375 0.29272 0.0
C584 C 0.93807 0.71131 0.19284 0.0
C585 C 0.01219 0.71934 0.23116 0.0
C586 C 0.90072 0.68973 0.15615 0.0
C587 C 0.89744 0.65546 0.11979 0.0
C588 C 0.97165 0.69775 0.19375 0.0
C589 C 0.93211 0.64345 0.12187 0.0
C590 C 0.03676 0.69644 0.24272 0.0
C591 C 0.06774 0.78518 0.28161 0.0
N592 N 0.96744 0.66435 0.15824 0.0
N593 N 0.0281 0.76278 0.25145 0.0
H594 H 0.39079 0.10716 0.59722 0.0
H595 H 0.16771 0.88156 0.48708 0.0
H596 H 0.25459 0.08824 0.62173 0.0
H597 H 0.30174 0.94117 0.40922 0.0
H598 H 0.19766 0.9493 0.54794 0.0
H599 H 0.35738 0.03699 0.54156 0.0
C600 C 0.35368 0.08777 0.5916 0.0
C601 C 0.32524 0.10313 0.61468 0.0
C602 C 0.2202 0.9475 0.51712 0.0
C603 C 0.28689 0.02321 0.54993 0.0
C604 C 0.20318 0.90896 0.48231 0.0
C605 C 0.23202 0.9058 0.4424 0.0
C606 C 0.26664 0.9825 0.51279 0.0
C607 C 0.27789 0.94229 0.43857 0.0
C608 C 0.3347 0.04796 0.55936 0.0
C609 C 0.27752 0.07718 0.60499 0.0
N610 N 0.29381 0.9788 0.47357 0.0
N611 N 0.25968 0.03824 0.57344 0.0
H612 H 0.24047 0.46973 0.67968 0.0
H613 H 0.18106 0.38084 0.36699 0.0
H614 H 0.10127 0.38866 0.61779 0.0
H615 H 0.3193 0.45035 0.4335 0.0
H616 H 0.15137 0.38626 0.45731 0.0
H617 H 0.26997 0.46489 0.58919 0.0
C618 C 0.216 0.45064 0.64728 0.0
C619 C 0.16816 0.42948 0.6568 0.0
C620 C 0.18821 0.4003 0.45218 0.0
C621 C 0.20199 0.42444 0.55225 0.0
C622 C 0.20526 0.39749 0.40044 0.0
C623 C 0.25285 0.41512 0.39241 0.0
C624 C 0.21889 0.42107 0.49644 0.0
C625 C 0.28233 0.43571 0.43775 0.0
C626 C 0.23296 0.44815 0.59538 0.0
C627 C 0.13838 0.40607 0.61249 0.0
N628 N 0.26492 0.43815 0.48763 0.0
N629 N 0.15575 0.40419 0.56232 0.0
H630 H 0.67869 0.14479 0.95204 0.0
H631 H 0.90423 0.27566 0.76089 0.0
H632 H 0.81714 0.19195 1.0103 0.0
H633 H 0.76778 0.24228 0.70771 0.0
H634 H 0.87263 0.24315 0.85144 0.0
H635 H 0.71019 0.17759 0.86134 0.0
C636 C 0.71571 0.16185 0.94576 0.0
C637 C 0.74524 0.16546 0.98907 0.0
C638 C 0.84957 0.24293 0.81998 0.0
C639 C 0.78168 0.20351 0.88503 0.0
C640 C 0.86766 0.26178 0.76819 0.0
C641 C 0.83878 0.26201 0.72624 0.0
C642 C 0.80209 0.22385 0.83025 0.0
C643 C 0.79143 0.24246 0.73825 0.0
C644 C 0.73371 0.18083 0.89397 0.0
C645 C 0.79302 0.18869 0.97849 0.0
N646 N 0.77465 0.22426 0.78899 0.0
N647 N 0.80968 0.20665 0.92763 0.0
H648 H 0.51821 0.67474 0.27959 0.0
H649 H 0.64182 0.90223 0.09097 0.0
H650 H 0.6248 0.80758 0.33855 0.0
H651 H 0.53057 0.77114 0.03399 0.0
H652 H 0.6368 0.86787 0.18141 0.0
H653 H 0.52358 0.70885 0.18876 0.0
C654 C 0.54294 0.71102 0.27344 0.0
C655 C 0.57109 0.73825 0.31701 0.0
C656 C 0.61349 0.84658 0.14913 0.0
C657 C 0.5771 0.77775 0.21291 0.0
C658 C 0.61614 0.86628 0.09744 0.0
C659 C 0.58651 0.83967 0.05452 0.0
C660 C 0.581 0.79979 0.15827 0.0
C661 C 0.55456 0.79296 0.0654 0.0
C662 C 0.54578 0.73056 0.22157 0.0
C663 C 0.60195 0.7853 0.30657 0.0
N664 N 0.55265 0.77459 0.11608 0.0
N665 N 0.60415 0.80347 0.2557 0.0
H666 H 0.75439 0.53171 0.67561 0.0
H667 H 0.81195 0.62011 0.36269 0.0
H668 H 0.89315 0.61278 0.61183 0.0
H669 H 0.67361 0.54607 0.4293 0.0
H670 H 0.84224 0.61596 0.45281 0.0
H671 H 0.72422 0.53555 0.58538 0.0
C672 C 0.7786 0.55057 0.64279 0.0
C673 C 0.8265 0.57208 0.65165 0.0
C674 C 0.80525 0.60065 0.44777 0.0
C675 C 0.79197 0.57605 0.54756 0.0
C676 C 0.78787 0.60276 0.39615 0.0
C677 C 0.74006 0.58336 0.38819 0.0
C678 C 0.7747 0.57891 0.49199 0.0
C679 C 0.71071 0.56201 0.43352 0.0
C680 C 0.76128 0.55251 0.59108 0.0
C681 C 0.85601 0.59519 0.60696 0.0
N682 N 0.72847 0.5603 0.48333 0.0
N683 N 0.83828 0.59658 0.55698 0.0
H684 H 0.16661 0.78353 0.70149 0.0
H685 H 0.21736 0.74411 1.01343 0.0
H686 H 0.13279 0.65003 0.76649 0.0
H687 H 0.26156 0.8783 0.94255 0.0
H688 H 0.18326 0.70846 0.92486 0.0
H689 H 0.19855 0.81811 0.79081 0.0
C690 C 0.16602 0.76143 0.7345 0.0
C691 C 0.14733 0.71376 0.72613 0.0
C692 C 0.20045 0.7457 0.92865 0.0
C693 C 0.18348 0.75329 0.82921 0.0
C694 C 0.21976 0.7661 0.9793 0.0
C695 C 0.24233 0.81434 0.98554 0.0
C696 C 0.20356 0.77366 0.88378 0.0
C697 C 0.24497 0.84106 0.93956 0.0
C698 C 0.18412 0.78124 0.78566 0.0
C699 C 0.14655 0.68683 0.77103 0.0
N700 N 0.22574 0.82037 0.89075 0.0
N701 N 0.16452 0.70699 0.82056 0.0
H702 H 0.3715 0.18814 0.3266 0.0
H703 H 0.50451 0.25815 0.03541 0.0
H704 H 0.47576 0.32724 0.28382 0.0
H705 H 0.39424 0.12086 0.07276 0.0
H706 H 0.49305 0.28448 0.12552 0.0
H707 H 0.3786 0.16274 0.23407 0.0
C708 C 0.39604 0.21333 0.2979 0.0
C709 C 0.42301 0.25998 0.31323 0.0
C710 C 0.47087 0.24871 0.11389 0.0
C711 C 0.43111 0.23111 0.20675 0.0
C712 C 0.47725 0.23384 0.06235 0.0
C713 C 0.4498 0.18753 0.04663 0.0
C714 C 0.43698 0.2169 0.15024 0.0
C715 C 0.41568 0.15699 0.08334 0.0
C716 C 0.39985 0.19885 0.24488 0.0
C717 C 0.45379 0.29108 0.27382 0.0
N718 N 0.41029 0.17215 0.1335 0.0
N719 N 0.45706 0.2761 0.22267 0.0
H720 H 0.14834 0.47413 0.09871 0.0
H721 H 0.24314 0.6646 0.32957 0.0
H722 H 0.29204 0.58009 0.10553 0.0
H723 H 0.13076 0.65326 0.23111 0.0
H724 H 0.24955 0.61019 0.2667 0.0
H725 H 0.12997 0.52042 0.16229 0.0
C726 C 0.17579 0.50742 0.11244 0.0
C727 C 0.22181 0.5235 0.09635 0.0
C728 C 0.2228 0.61888 0.25983 0.0
C729 C 0.20143 0.57449 0.17138 0.0
C730 C 0.21884 0.64937 0.29588 0.0
C731 C 0.18637 0.66312 0.28531 0.0
C732 C 0.19334 0.60132 0.21394 0.0
C733 C 0.15619 0.64323 0.24042 0.0
C734 C 0.16536 0.53341 0.1492 0.0
C735 C 0.25614 0.56641 0.11673 0.0
N736 N 0.16036 0.61324 0.20615 0.0
N737 N 0.24542 0.58995 0.15389 0.0
H738 H 0.69387 0.15408 0.46943 0.0
H739 H 0.48085 0.19135 0.52026 0.0
H740 H 0.67846 0.26091 0.39037 0.0
H741 H 0.55053 0.17744 0.66257 0.0
H742 H 0.53789 0.18887 0.46074 0.0
H743 H 0.62674 0.13632 0.529 0.0
C744 C 0.67532 0.17256 0.4633 0.0
C745 C 0.69081 0.20829 0.42416 0.0
C746 C 0.54044 0.18587 0.50495 0.0
C747 C 0.61518 0.18855 0.49169 0.0
C748 C 0.50808 0.18759 0.53928 0.0
C749 C 0.51153 0.18599 0.59698 0.0
C750 C 0.57662 0.18196 0.52786 0.0
C751 C 0.54683 0.17937 0.61847 0.0
C752 C 0.6377 0.16292 0.49775 0.0
C753 C 0.66694 0.23254 0.41927 0.0
N754 N 0.57855 0.17812 0.5838 0.0
N755 N 0.63013 0.22198 0.45224 0.0
H756 H 0.27917 0.49419 0.8574 0.0
H757 H 0.53789 0.68631 0.78471 0.0
H758 H 0.38664 0.53584 0.9792 0.0
H759 H 0.41664 0.68829 0.72902 0.0
H760 H 0.48795 0.61607 0.83893 0.0
H761 H 0.33512 0.54903 0.7926 0.0
C762 C 0.31465 0.51487 0.87064 0.0
C763 C 0.32784 0.51143 0.92458 0.0
C764 C 0.47246 0.63146 0.81383 0.0
C765 C 0.39263 0.57416 0.84955 0.0
C766 C 0.50075 0.67102 0.78238 0.0
C767 C 0.48108 0.69251 0.75178 0.0
C768 C 0.42439 0.61314 0.8135 0.0
C769 C 0.43297 0.67239 0.75161 0.0
C770 C 0.34665 0.546 0.83333 0.0
C771 C 0.37489 0.53783 0.93829 0.0
N772 N 0.40631 0.63382 0.78179 0.0
N773 N 0.4057 0.56877 0.90114 0.0
H774 H 0.75823 0.27118 0.19783 0.0
H775 H 0.84574 0.53403 0.11769 0.0
H776 H 0.85263 0.38305 0.3029 0.0
H777 H 0.72196 0.4156 0.05731 0.0
H778 H 0.86291 0.48189 0.17186 0.0
H779 H 0.75967 0.32627 0.13288 0.0
C780 C 0.77929 0.3074 0.20772 0.0
C781 C 0.8045 0.32208 0.25713 0.0
C782 C 0.83259 0.46743 0.14577 0.0
C783 C 0.80616 0.38642 0.18134 0.0
C784 C 0.82314 0.49702 0.11431 0.0
C785 C 0.78262 0.47881 0.08256 0.0
C786 C 0.8015 0.41955 0.14464 0.0
C787 C 0.75371 0.43086 0.08089 0.0
C788 C 0.78016 0.33906 0.17008 0.0
C789 C 0.83207 0.36998 0.26591 0.0
N790 N 0.76366 0.40303 0.11145 0.0
N791 N 0.83176 0.40058 0.22864 0.0
H792 H 0.2905 0.74172 0.40738 0.0
H793 H 0.49823 0.87784 0.62082 0.0
H794 H 0.33416 0.88043 0.46059 0.0
H795 H 0.45403 0.74153 0.55618 0.0
H796 H 0.4431 0.88328 0.5584 0.0
H797 H 0.35708 0.74582 0.45394 0.0
C798 C 0.31532 0.77378 0.42702 0.0
C799 C 0.30787 0.81137 0.4286 0.0
C800 C 0.44582 0.85236 0.5579 0.0
C801 C 0.38255 0.81539 0.48566 0.0
C802 C 0.47703 0.8491 0.59382 0.0
C803 C 0.48078 0.80908 0.59429 0.0
C804 C 0.41829 0.81535 0.52228 0.0
C805 C 0.45265 0.77315 0.55779 0.0
C806 C 0.35295 0.77593 0.45456 0.0
C807 C 0.33962 0.85121 0.45731 0.0
N808 N 0.42279 0.77716 0.52367 0.0
N809 N 0.37537 0.85208 0.48525 0.0
H810 H 0.61641 0.49748 0.95279 0.0
H811 H 0.54673 0.29298 0.73478 0.0
H812 H 0.70955 0.45488 0.88736 0.0
H813 H 0.45068 0.33419 0.79156 0.0
H814 H 0.60909 0.35943 0.78213 0.0
H815 H 0.55639 0.44302 0.88936 0.0
C816 C 0.62427 0.47672 0.92542 0.0
C817 C 0.66815 0.48071 0.92598 0.0
C818 C 0.57465 0.3548 0.78332 0.0
C819 C 0.60001 0.419 0.85272 0.0
C820 C 0.53925 0.31727 0.7554 0.0
C821 C 0.49398 0.30917 0.75779 0.0
C822 C 0.56443 0.38361 0.81554 0.0
C823 C 0.48554 0.3402 0.78759 0.0
C824 C 0.59012 0.44591 0.8889 0.0
C825 C 0.67642 0.45324 0.8889 0.0
N826 N 0.52033 0.37585 0.81582 0.0
N827 N 0.64281 0.4237 0.85416 0.0
loop_
_geom_bond_atom_site_label_1
_geom_bond_atom_site_label_2
_geom_bond_distance
_geom_bond_site_symmetry_2
_ccdc_geom_bond_type
Eu0 N31 2.657 . S
Eu0 N38 2.609 . S
Eu0 O44 2.558 . S
Eu0 O45 2.612 . S
Eu0 O47 2.339 . S
Eu0 O48 2.563 . S
Eu0 O49 2.419 . S
Eu0 O51 2.380 1_556 S
Eu0 O52 2.432 1_556 S
Eu0 C64 2.848 . S
C1 C4 1.429 . S
C1 C5 1.411 . S
C1 N8 1.377 . S
C2 C4 1.420 . S
C2 C6 1.423 . S
C2 C14 1.392 . S
C3 C5 1.420 . S
C3 C6 1.351 . S
C3 H26 0.931 . S
C4 C1 1.429 . S
C4 C2 1.420 . S
C4 N12 1.362 . S
C5 C1 1.411 . S
C5 C3 1.420 . S
C5 C10 1.395 . S
C6 C2 1.423 . S
C6 C3 1.351 . S
C6 H18 0.930 . S
C7 C9 1.400 . S
C7 C10 1.386 . S
C7 H19 0.930 . S
N8 C1 1.377 . S
N8 C9 1.321 . S
N8 Eu11 2.609 . S
C9 C7 1.400 . S
C9 N8 1.321 . S
C9 H16 0.930 . S
C10 C5 1.395 . S
C10 C7 1.386 . S
C10 H29 0.930 . S
Eu11 N8 2.609 . S
Eu11 N12 2.657 . S
Eu11 O45 2.380 1_554 S
Eu11 O46 2.432 . S
Eu11 O50 2.558 . S
Eu11 O51 2.612 . S
Eu11 O53 2.339 . S
Eu11 O54 2.563 . S
Eu11 O55 2.419 . S
Eu11 C75 2.848 . S
N12 C4 1.362 . S
N12 Eu11 2.657 . S
N12 C13 1.334 . S
C13 N12 1.334 . S
C13 C15 1.413 . S
C13 H20 0.929 . S
C14 C2 1.392 . S
C14 C15 1.367 . S
C14 H22 0.930 . S
C15 C13 1.413 . S
C15 C14 1.367 . S
C15 H17 0.930 . S
H16 C9 0.930 . S
H17 C15 0.930 . S
H18 C6 0.930 . S
H19 C7 0.930 . S
H20 C13 0.929 . S
H21 C35 0.930 . S
H22 C14 0.930 . S
H23 C41 0.930 . S
H24 C32 0.929 . S
H25 C39 0.930 1_655 S
H26 C3 0.931 . S
H27 C33 0.930 . S
H28 C66 0.930 . S
H29 C10 0.930 . S
H30 C65 0.931 . S
N31 Eu0 2.657 . S
N31 C32 1.334 . S
N31 C36 1.362 . S
C32 H24 0.929 . S
C32 N31 1.334 . S
C32 C35 1.413 . S
C33 H27 0.930 . S
C33 C34 1.392 . S
C33 C35 1.367 . S
C34 C33 1.392 . S
C34 C36 1.420 . S
C34 C66 1.423 . S
C35 H21 0.930 . S
C35 C32 1.413 . S
C35 C33 1.367 . S
C36 N31 1.362 . S
C36 C34 1.420 . S
C36 C40 1.429 . S
H37 C42 0.930 1_655 S
N38 Eu0 2.609 . S
N38 C40 1.377 . S
N38 C41 1.321 . S
C39 H25 0.930 1_455 S
C39 C41 1.400 . S
C39 C42 1.386 . S
C40 C36 1.429 . S
C40 N38 1.377 . S
C40 C43 1.411 . S
C41 H23 0.930 . S
C41 N38 1.321 . S
C41 C39 1.400 . S
C42 H37 0.930 1_455 S
C42 C39 1.386 . S
C42 C43 1.395 . S
C43 C40 1.411 . S
C43 C42 1.395 . S
C43 C65 1.420 . S
O44 Eu0 2.558 . S
O44 C64 1.257 . S
O45 Eu0 2.612 . S
O45 Eu11 2.380 1_556 S
O45 C56 1.276 . S
O46 Eu11 2.432 . S
O46 C63 1.264 1_554 S
O47 Eu0 2.339 . S
O47 C63 1.254 . S
O48 Eu0 2.563 . S
O48 C56 1.235 . S
O49 Eu0 2.419 . S
O49 C64 1.249 . S
O50 Eu11 2.558 . S
O50 C75 1.257 . S
O51 Eu0 2.380 1_554 S
O51 Eu11 2.612 . S
O51 C67 1.276 . S
O52 Eu0 2.432 1_554 S
O52 C74 1.264 . S
O53 Eu11 2.339 . S
O53 C74 1.254 . S
O54 Eu11 2.563 . S
O54 C67 1.235 . S
O55 Eu11 2.419 . S
O55 C75 1.249 . S
C56 O45 1.276 . S
C56 O48 1.235 . S
C57 C59 1.393 . S
C57 C61 1.395 . S
C57 C64 1.492 . S
C58 C59 1.392 . S
C58 C60 1.386 . S
C59 C57 1.393 . S
C59 C58 1.392 . S
C59 H76 0.930 . S
C60 C58 1.386 . S
C60 C62 1.395 . S
C60 H77 0.930 . S
C61 C57 1.395 . S
C61 C62 1.379 . S
C61 H78 0.930 . S
C62 C60 1.395 . S
C62 C61 1.379 . S
C62 H79 0.930 . S
C63 O46 1.264 1_556 S
C63 O47 1.254 . S
C64 Eu0 2.848 . S
C64 O44 1.257 . S
C64 O49 1.249 . S
C64 C57 1.492 . S
C65 H30 0.931 . S
C65 C43 1.420 . S
C65 C66 1.351 . S
C66 H28 0.930 . S
C66 C34 1.423 . S
C66 C65 1.351 . S
C67 O51 1.276 . S
C67 O54 1.235 . S
C68 C69 1.393 . S
C68 C72 1.395 . S
C68 C75 1.492 . S
C69 C68 1.393 . S
C69 C70 1.392 . S
C69 H80 0.930 . S
C70 C69 1.392 . S
C70 C71 1.386 . S
C71 C70 1.386 . S
C71 C73 1.395 . S
C71 H81 0.930 . S
C72 C68 1.395 . S
C72 C73 1.379 . S
C72 H82 0.930 . S
C73 C71 1.395 . S
C73 C72 1.379 . S
C73 H83 0.930 . S
C74 O52 1.264 . S
C74 O53 1.254 . S
C75 Eu11 2.848 . S
C75 O50 1.257 . S
C75 O55 1.249 . S
C75 C68 1.492 . S
H76 C59 0.930 . S
H77 C60 0.930 . S
H78 C61 0.930 . S
H79 C62 0.930 . S
H80 C69 0.930 . S
H81 C71 0.930 . S
H82 C72 0.930 . S
H83 C73 0.930 . S
Eu84 N115 2.657 . S
Eu84 N122 2.609 . S
Eu84 O128 2.558 . S
Eu84 O129 2.612 . S
Eu84 O131 2.339 . S
Eu84 O132 2.563 . S
Eu84 O133 2.419 . S
Eu84 O135 2.380 . S
Eu84 O136 2.432 . S
Eu84 C148 2.848 . S
C85 C88 1.429 . S
C85 C89 1.411 . S
C85 N92 1.377 . S
C86 C88 1.420 . S
C86 C90 1.423 1_655 S
C86 C98 1.392 . S
C87 C89 1.420 1_455 S
C87 C90 1.351 . S
C87 H110 0.931 . S
C88 C85 1.429 . S
C88 C86 1.420 . S
C88 N96 1.362 . S
C89 C85 1.411 . S
C89 C87 1.420 1_655 S
C89 C94 1.395 . S
C90 C86 1.423 1_455 S
C90 C87 1.351 . S
C90 H102 0.930 . S
C91 C93 1.400 . S
C91 C94 1.386 . S
C91 H103 0.930 . S
N92 C85 1.377 . S
N92 C93 1.321 . S
N92 Eu95 2.609 . S
C93 C91 1.400 . S
C93 N92 1.321 . S
C93 H100 0.930 . S
C94 C89 1.395 . S
C94 C91 1.386 . S
C94 H113 0.930 1_655 S
Eu95 N92 2.609 . S
Eu95 N96 2.657 . S
Eu95 O129 2.380 . S
Eu95 O130 2.432 . S
Eu95 O134 2.558 . S
Eu95 O135 2.612 . S
Eu95 O137 2.339 . S
Eu95 O138 2.563 . S
Eu95 O139 2.419 . S
Eu95 C159 2.848 . S
N96 C88 1.362 . S
N96 Eu95 2.657 . S
N96 C97 1.334 . S
C97 N96 1.334 . S
C97 C99 1.413 . S
C97 H104 0.929 . S
C98 C86 1.392 . S
C98 C99 1.367 . S
C98 H106 0.930 1_655 S
C99 C97 1.413 . S
C99 C98 1.367 . S
C99 H101 0.930 . S
H100 C93 0.930 . S
H101 C99 0.930 . S
H102 C90 0.930 . S
H103 C91 0.930 . S
H104 C97 0.929 . S
H105 C119 0.930 . S
H106 C98 0.930 1_455 S
H107 C125 0.930 . S
H108 C116 0.929 . S
H109 C123 0.930 1_565 S
H110 C87 0.931 . S
H111 C117 0.930 . S
H112 C150 0.930 . S
H113 C94 0.930 1_455 S
H114 C149 0.931 . S
N115 Eu84 2.657 . S
N115 C116 1.334 . S
N115 C120 1.362 . S
C116 H108 0.929 . S
C116 N115 1.334 . S
C116 C119 1.413 . S
C117 H111 0.930 . S
C117 C118 1.392 . S
C117 C119 1.367 . S
C118 C117 1.392 . S
C118 C120 1.420 . S
C118 C150 1.423 . S
C119 H105 0.930 . S
C119 C116 1.413 . S
C119 C117 1.367 . S
C120 N115 1.362 . S
C120 C118 1.420 . S
C120 C124 1.429 . S
H121 C126 0.930 1_565 S
N122 Eu84 2.609 . S
N122 C124 1.377 . S
N122 C125 1.321 . S
C123 H109 0.930 1_545 S
C123 C125 1.400 . S
C123 C126 1.386 . S
C124 C120 1.429 . S
C124 N122 1.377 . S
C124 C127 1.411 . S
C125 H107 0.930 . S
C125 N122 1.321 . S
C125 C123 1.400 . S
C126 H121 0.930 1_545 S
C126 C123 1.386 . S
C126 C127 1.395 . S
C127 C124 1.411 . S
C127 C126 1.395 . S
C127 C149 1.420 . S
O128 Eu84 2.558 . S
O128 C148 1.257 . S
O129 Eu84 2.612 . S
O129 Eu95 2.380 . S
O129 C140 1.276 . S
O130 Eu95 2.432 . S
O130 C147 1.264 . S
O131 Eu84 2.339 . S
O131 C147 1.254 . S
O132 Eu84 2.563 . S
O132 C140 1.235 . S
O133 Eu84 2.419 . S
O133 C148 1.249 . S
O134 Eu95 2.558 . S
O134 C159 1.257 . S
O135 Eu84 2.380 . S
O135 Eu95 2.612 . S
O135 C151 1.276 . S
O136 Eu84 2.432 . S
O136 C158 1.264 . S
O137 Eu95 2.339 . S
O137 C158 1.254 . S
O138 Eu95 2.563 . S
O138 C151 1.235 . S
O139 Eu95 2.419 . S
O139 C159 1.249 . S
C140 O129 1.276 . S
C140 O132 1.235 . S
C141 C143 1.393 . S
C141 C145 1.395 . S
C141 C148 1.492 . S
C142 C143 1.392 . S
C142 C144 1.385 . S
C143 C141 1.393 . S
C143 C142 1.392 . S
C143 H160 0.930 . S
C144 C142 1.385 . S
C144 C146 1.393 . S
C144 H161 0.932 1_554 S
C145 C141 1.395 . S
C145 C146 1.379 . S
C145 H162 0.930 . S
C146 C144 1.393 . S
C146 C145 1.379 . S
C146 H163 0.930 . S
C147 O130 1.264 . S
C147 O131 1.254 . S
C148 Eu84 2.848 . S
C148 O128 1.257 . S
C148 O133 1.249 . S
C148 C141 1.492 . S
C149 H114 0.931 . S
C149 C127 1.420 . S
C149 C150 1.351 . S
C150 H112 0.930 . S
C150 C118 1.423 . S
C150 C149 1.351 . S
C151 O135 1.276 . S
C151 O138 1.235 . S
C152 C153 1.393 . S
C152 C156 1.395 . S
C152 C159 1.492 . S
C153 C152 1.393 . S
C153 C154 1.392 . S
C153 H164 0.930 . S
C154 C153 1.392 . S
C154 C155 1.386 . S
C155 C154 1.386 . S
C155 C157 1.395 . S
C155 H165 0.930 . S
C156 C152 1.395 . S
C156 C157 1.379 . S
C156 H166 0.930 . S
C157 C155 1.395 . S
C157 C156 1.379 . S
C157 H167 0.930 . S
C158 O136 1.264 . S
C158 O137 1.254 . S
C159 Eu95 2.848 . S
C159 O134 1.257 . S
C159 O139 1.249 . S
C159 C152 1.492 . S
H160 C143 0.930 . S
H161 C144 0.932 1_556 S
H162 C145 0.930 . S
H163 C146 0.930 . S
H164 C153 0.930 . S
H165 C155 0.930 . S
H166 C156 0.930 . S
H167 C157 0.930 . S
Eu168 N199 2.657 . S
Eu168 N206 2.609 . S
Eu168 O212 2.558 . S
Eu168 O213 2.612 . S
Eu168 O215 2.339 . S
Eu168 O216 2.563 . S
Eu168 O217 2.419 . S
Eu168 O219 2.380 . S
Eu168 O220 2.432 . S
Eu168 C232 2.848 . S
C169 C172 1.429 . S
C169 C173 1.411 . S
C169 N176 1.377 . S
C170 C172 1.420 . S
C170 C174 1.423 1_565 S
C170 C182 1.392 . S
C171 C173 1.420 1_545 S
C171 C174 1.351 . S
C171 H194 0.931 . S
C172 C169 1.429 . S
C172 C170 1.420 . S
C172 N180 1.362 . S
C173 C169 1.411 . S
C173 C171 1.420 1_565 S
C173 C178 1.395 . S
C174 C170 1.423 1_545 S
C174 C171 1.351 . S
C174 H186 0.930 . S
C175 C177 1.400 . S
C175 C178 1.386 . S
C175 H187 0.930 . S
N176 C169 1.377 . S
N176 C177 1.321 . S
N176 Eu179 2.609 . S
C177 C175 1.400 . S
C177 N176 1.321 . S
C177 H184 0.930 . S
C178 C173 1.395 . S
C178 C175 1.386 . S
C178 H197 0.930 1_565 S
Eu179 N176 2.609 . S
Eu179 N180 2.657 . S
Eu179 O213 2.380 . S
Eu179 O214 2.432 . S
Eu179 O218 2.558 . S
Eu179 O219 2.612 . S
Eu179 O221 2.339 . S
Eu179 O222 2.563 . S
Eu179 O223 2.419 . S
Eu179 C243 2.848 . S
N180 C172 1.362 . S
N180 Eu179 2.657 . S
N180 C181 1.334 . S
C181 N180 1.334 . S
C181 C183 1.413 . S
C181 H188 0.929 . S
C182 C170 1.392 . S
C182 C183 1.367 . S
C182 H190 0.930 1_565 S
C183 C181 1.413 . S
C183 C182 1.367 . S
C183 H185 0.930 . S
H184 C177 0.930 . S
H185 C183 0.930 . S
H186 C174 0.930 . S
H187 C175 0.930 . S
H188 C181 0.929 . S
H189 C203 0.930 . S
H190 C182 0.930 1_545 S
H191 C209 0.930 . S
H192 C200 0.929 . S
H193 C207 0.930 . S
H194 C171 0.931 . S
H195 C201 0.930 . S
H196 C234 0.930 . S
H197 C178 0.930 1_545 S
H198 C233 0.931 . S
N199 Eu168 2.657 . S
N199 C200 1.334 . S
N199 C204 1.362 . S
C200 H192 0.929 . S
C200 N199 1.334 . S
C200 C203 1.413 . S
C201 H195 0.930 . S
C201 C202 1.392 . S
C201 C203 1.367 . S
C202 C201 1.392 . S
C202 C204 1.420 . S
C202 C234 1.423 . S
C203 H189 0.930 . S
C203 C200 1.413 . S
C203 C201 1.367 . S
C204 N199 1.362 . S
C204 C202 1.420 . S
C204 C208 1.429 . S
H205 C210 0.930 . S
N206 Eu168 2.609 . S
N206 C208 1.377 . S
N206 C209 1.321 . S
C207 H193 0.930 . S
C207 C209 1.400 . S
C207 C210 1.386 . S
C208 C204 1.429 . S
C208 N206 1.377 . S
C208 C211 1.411 . S
C209 H191 0.930 . S
C209 N206 1.321 . S
C209 C207 1.400 . S
C210 H205 0.930 . S
C210 C207 1.386 . S
C210 C211 1.395 . S
C211 C208 1.411 . S
C211 C210 1.395 . S
C211 C233 1.420 . S
O212 Eu168 2.558 . S
O212 C232 1.257 . S
O213 Eu168 2.612 . S
O213 Eu179 2.380 . S
O213 C224 1.276 . S
O214 Eu179 2.432 . S
O214 C231 1.264 . S
O215 Eu168 2.339 . S
O215 C231 1.254 . S
O216 Eu168 2.563 . S
O216 C224 1.235 . S
O217 Eu168 2.419 . S
O217 C232 1.249 . S
O218 Eu179 2.558 . S
O218 C243 1.257 . S
O219 Eu168 2.380 . S
O219 Eu179 2.612 . S
O219 C235 1.276 . S
O220 Eu168 2.432 . S
O220 C242 1.264 . S
O221 Eu179 2.339 . S
O221 C242 1.254 . S
O222 Eu179 2.563 . S
O222 C235 1.235 . S
O223 Eu179 2.419 . S
O223 C243 1.249 . S
C224 O213 1.276 . S
C224 O216 1.235 . S
C225 C227 1.393 . S
C225 C229 1.395 . S
C225 C232 1.492 . S
C226 C227 1.392 . S
C226 C228 1.386 . S
C227 C225 1.393 . S
C227 C226 1.392 . S
C227 H244 0.930 . S
C228 C226 1.386 . S
C228 C230 1.395 . S
C228 H245 0.930 . S
C229 C225 1.395 . S
C229 C230 1.379 . S
C229 H246 0.930 . S
C230 C228 1.395 . S
C230 C229 1.379 . S
C230 H247 0.930 . S
C231 O214 1.264 . S
C231 O215 1.254 . S
C232 Eu168 2.848 . S
C232 O212 1.257 . S
C232 O217 1.249 . S
C232 C225 1.492 . S
C233 H198 0.931 . S
C233 C211 1.420 . S
C233 C234 1.351 . S
C234 H196 0.930 . S
C234 C202 1.423 . S
C234 C233 1.351 . S
C235 O219 1.276 . S
C235 O222 1.235 . S
C236 C237 1.393 . S
C236 C240 1.395 . S
C236 C243 1.492 . S
C237 C236 1.393 . S
C237 C238 1.392 . S
C237 H248 0.930 . S
C238 C237 1.392 . S
C238 C239 1.386 1_556 S
C239 C238 1.386 1_554 S
C239 C241 1.395 1_554 S
C239 H249 0.930 . S
C240 C236 1.395 . S
C240 C241 1.379 . S
C240 H250 0.930 . S
C241 C239 1.395 1_556 S
C241 C240 1.379 . S
C241 H251 0.930 . S
C242 O220 1.264 . S
C242 O221 1.254 . S
C243 Eu179 2.848 . S
C243 O218 1.257 . S
C243 O223 1.249 . S
C243 C236 1.492 . S
H244 C227 0.930 . S
H245 C228 0.930 . S
H246 C229 0.930 . S
H247 C230 0.930 . S
H248 C237 0.930 . S
H249 C239 0.930 . S
H250 C240 0.930 . S
H251 C241 0.930 . S
Eu252 N283 2.657 . S
Eu252 N290 2.609 . S
Eu252 O296 2.558 . S
Eu252 O297 2.612 . S
Eu252 O299 2.339 . S
Eu252 O300 2.563 . S
Eu252 O301 2.419 . S
Eu252 O303 2.380 1_556 S
Eu252 O304 2.432 1_556 S
Eu252 C316 2.848 . S
C253 C256 1.429 . S
C253 C257 1.411 . S
C253 N260 1.377 . S
C254 C256 1.420 . S
C254 C258 1.423 . S
C254 C266 1.392 . S
C255 C257 1.420 . S
C255 C258 1.351 . S
C255 H278 0.931 . S
C256 C253 1.429 . S
C256 C254 1.420 . S
C256 N264 1.362 . S
C257 C253 1.411 . S
C257 C255 1.420 . S
C257 C262 1.395 . S
C258 C254 1.423 . S
C258 C255 1.351 . S
C258 H270 0.930 . S
C259 C261 1.400 . S
C259 C262 1.386 . S
C259 H271 0.930 . S
N260 C253 1.377 . S
N260 C261 1.321 . S
N260 Eu263 2.609 . S
C261 C259 1.400 . S
C261 N260 1.321 . S
C261 H268 0.930 . S
C262 C257 1.395 . S
C262 C259 1.386 . S
C262 H281 0.930 . S
Eu263 N260 2.609 . S
Eu263 N264 2.657 . S
Eu263 O297 2.380 1_554 S
Eu263 O298 2.432 . S
Eu263 O302 2.558 . S
Eu263 O303 2.612 . S
Eu263 O305 2.339 . S
Eu263 O306 2.563 . S
Eu263 O307 2.419 . S
Eu263 C327 2.848 . S
N264 C256 1.362 . S
N264 Eu263 2.657 . S
N264 C265 1.334 . S
C265 N264 1.334 . S
C265 C267 1.413 . S
C265 H272 0.929 . S
C266 C254 1.392 . S
C266 C267 1.367 . S
C266 H274 0.930 . S
C267 C265 1.413 . S
C267 C266 1.367 . S
C267 H269 0.930 . S
H268 C261 0.930 . S
H269 C267 0.930 . S
H270 C258 0.930 . S
H271 C259 0.930 . S
H272 C265 0.929 . S
H273 C287 0.930 . S
H274 C266 0.930 . S
H275 C293 0.930 . S
H276 C284 0.929 . S
H277 C291 0.930 1_455 S
H278 C255 0.931 . S
H279 C285 0.930 . S
H280 C318 0.930 . S
H281 C262 0.930 . S
H282 C317 0.931 . S
N283 Eu252 2.657 . S
N283 C284 1.334 . S
N283 C288 1.362 . S
C284 H276 0.929 . S
C284 N283 1.334 . S
C284 C287 1.413 . S
C285 H279 0.930 . S
C285 C286 1.392 . S
C285 C287 1.367 . S
C286 C285 1.392 . S
C286 C288 1.420 . S
C286 C318 1.423 . S
C287 H273 0.930 . S
C287 C284 1.413 . S
C287 C285 1.367 . S
C288 N283 1.362 . S
C288 C286 1.420 . S
C288 C292 1.429 . S
H289 C294 0.930 1_455 S
N290 Eu252 2.609 . S
N290 C292 1.377 . S
N290 C293 1.321 . S
C291 H277 0.930 1_655 S
C291 C293 1.400 . S
C291 C294 1.386 . S
C292 C288 1.429 . S
C292 N290 1.377 . S
C292 C295 1.411 . S
C293 H275 0.930 . S
C293 N290 1.321 . S
C293 C291 1.400 . S
C294 H289 0.930 1_655 S
C294 C291 1.386 . S
C294 C295 1.395 . S
C295 C292 1.411 . S
C295 C294 1.395 . S
C295 C317 1.420 . S
O296 Eu252 2.558 . S
O296 C316 1.257 . S
O297 Eu252 2.612 . S
O297 Eu263 2.380 1_556 S
O297 C308 1.276 . S
O298 Eu263 2.432 . S
O298 C315 1.264 1_554 S
O299 Eu252 2.339 . S
O299 C315 1.254 . S
O300 Eu252 2.563 . S
O300 C308 1.235 . S
O301 Eu252 2.419 . S
O301 C316 1.249 . S
O302 Eu263 2.558 . S
O302 C327 1.257 . S
O303 Eu252 2.380 1_554 S
O303 Eu263 2.612 . S
O303 C319 1.276 . S
O304 Eu252 2.432 1_554 S
O304 C326 1.264 . S
O305 Eu263 2.339 . S
O305 C326 1.254 . S
O306 Eu263 2.563 . S
O306 C319 1.235 . S
O307 Eu263 2.419 . S
O307 C327 1.249 . S
C308 O297 1.276 . S
C308 O300 1.235 . S
C309 C311 1.393 . S
C309 C313 1.395 . S
C309 C316 1.492 . S
C310 C311 1.392 . S
C310 C312 1.386 . S
C311 C309 1.393 . S
C311 C310 1.392 . S
C311 H328 0.930 . S
C312 C310 1.386 . S
C312 C314 1.395 . S
C312 H329 0.930 . S
C313 C309 1.395 . S
C313 C314 1.379 . S
C313 H330 0.930 . S
C314 C312 1.395 . S
C314 C313 1.379 . S
C314 H331 0.930 . S
C315 O298 1.264 1_556 S
C315 O299 1.254 . S
C316 Eu252 2.848 . S
C316 O296 1.257 . S
C316 O301 1.249 . S
C316 C309 1.492 . S
C317 H282 0.931 . S
C317 C295 1.420 . S
C317 C318 1.351 . S
C318 H280 0.930 . S
C318 C286 1.423 . S
C318 C317 1.351 . S
C319 O303 1.276 . S
C319 O306 1.235 . S
C320 C321 1.393 . S
C320 C324 1.395 . S
C320 C327 1.492 . S
C321 C320 1.393 . S
C321 C322 1.392 . S
C321 H332 0.930 . S
C322 C321 1.392 . S
C322 C323 1.386 . S
C323 C322 1.386 . S
C323 C325 1.395 . S
C323 H333 0.930 . S
C324 C320 1.395 . S
C324 C325 1.379 . S
C324 H334 0.930 . S
C325 C323 1.395 . S
C325 C324 1.379 . S
C325 H335 0.930 . S
C326 O304 1.264 . S
C326 O305 1.254 . S
C327 Eu263 2.848 . S
C327 O302 1.257 . S
C327 O307 1.249 . S
C327 C320 1.492 . S
H328 C311 0.930 . S
H329 C312 0.930 . S
H330 C313 0.930 . S
H331 C314 0.930 . S
H332 C321 0.930 . S
H333 C323 0.930 . S
H334 C324 0.930 . S
H335 C325 0.930 . S
Eu336 N367 2.657 . S
Eu336 N374 2.609 . S
Eu336 O380 2.558 . S
Eu336 O381 2.612 . S
Eu336 O383 2.339 . S
Eu336 O384 2.563 . S
Eu336 O385 2.419 . S
Eu336 O387 2.380 . S
Eu336 O388 2.432 . S
Eu336 C400 2.848 . S
C337 C340 1.429 . S
C337 C341 1.411 . S
C337 N344 1.377 . S
C338 C340 1.420 . S
C338 C342 1.423 1_455 S
C338 C350 1.392 . S
C339 C341 1.420 1_655 S
C339 C342 1.351 . S
C339 H362 0.931 . S
C340 C337 1.429 . S
C340 C338 1.420 . S
C340 N348 1.362 . S
C341 C337 1.411 . S
C341 C339 1.420 1_455 S
C341 C346 1.395 . S
C342 C338 1.423 1_655 S
C342 C339 1.351 . S
C342 H354 0.930 . S
C343 C345 1.400 . S
C343 C346 1.386 . S
C343 H355 0.930 . S
N344 C337 1.377 . S
N344 C345 1.321 . S
N344 Eu347 2.609 . S
C345 C343 1.400 . S
C345 N344 1.321 . S
C345 H352 0.930 . S
C346 C341 1.395 . S
C346 C343 1.386 . S
C346 H365 0.930 1_455 S
Eu347 N344 2.609 . S
Eu347 N348 2.657 . S
Eu347 O381 2.380 . S
Eu347 O382 2.432 . S
Eu347 O386 2.558 . S
Eu347 O387 2.612 . S
Eu347 O389 2.339 . S
Eu347 O390 2.563 . S
Eu347 O391 2.419 . S
Eu347 C411 2.848 . S
N348 C340 1.362 . S
N348 Eu347 2.657 . S
N348 C349 1.334 . S
C349 N348 1.334 . S
C349 C351 1.413 . S
C349 H356 0.929 . S
C350 C338 1.392 . S
C350 C351 1.367 . S
C350 H358 0.930 1_455 S
C351 C349 1.413 . S
C351 C350 1.367 . S
C351 H353 0.930 . S
H352 C345 0.930 . S
H353 C351 0.930 . S
H354 C342 0.930 . S
H355 C343 0.930 . S
H356 C349 0.929 . S
H357 C371 0.930 . S
H358 C350 0.930 1_655 S
H359 C377 0.930 . S
H360 C368 0.929 . S
H361 C375 0.930 1_545 S
H362 C339 0.931 . S
H363 C369 0.930 . S
H364 C402 0.930 . S
H365 C346 0.930 1_655 S
H366 C401 0.931 . S
N367 Eu336 2.657 . S
N367 C368 1.334 . S
N367 C372 1.362 . S
C368 H360 0.929 . S
C368 N367 1.334 . S
C368 C371 1.413 . S
C369 H363 0.930 . S
C369 C370 1.392 . S
C369 C371 1.367 . S
C370 C369 1.392 . S
C370 C372 1.420 . S
C370 C402 1.423 . S
C371 H357 0.930 . S
C371 C368 1.413 . S
C371 C369 1.367 . S
C372 N367 1.362 . S
C372 C370 1.420 . S
C372 C376 1.429 . S
H373 C378 0.930 1_545 S
N374 Eu336 2.609 . S
N374 C376 1.377 . S
N374 C377 1.321 . S
C375 H361 0.930 1_565 S
C375 C377 1.400 . S
C375 C378 1.386 . S
C376 C372 1.429 . S
C376 N374 1.377 . S
C376 C379 1.411 . S
C377 H359 0.930 . S
C377 N374 1.321 . S
C377 C375 1.400 . S
C378 H373 0.930 1_565 S
C378 C375 1.386 . S
C378 C379 1.395 . S
C379 C376 1.411 . S
C379 C378 1.395 . S
C379 C401 1.420 . S
O380 Eu336 2.558 . S
O380 C400 1.257 . S
O381 Eu336 2.612 . S
O381 Eu347 2.380 . S
O381 C392 1.276 . S
O382 Eu347 2.432 . S
O382 C399 1.264 . S
O383 Eu336 2.339 . S
O383 C399 1.254 . S
O384 Eu336 2.563 . S
O384 C392 1.235 . S
O385 Eu336 2.419 . S
O385 C400 1.249 . S
O386 Eu347 2.558 . S
O386 C411 1.257 . S
O387 Eu336 2.380 . S
O387 Eu347 2.612 . S
O387 C403 1.276 . S
O388 Eu336 2.432 . S
O388 C410 1.264 . S
O389 Eu347 2.339 . S
O389 C410 1.254 . S
O390 Eu347 2.563 . S
O390 C403 1.235 . S
O391 Eu347 2.419 . S
O391 C411 1.249 . S
C392 O381 1.276 . S
C392 O384 1.235 . S
C393 C395 1.393 . S
C393 C397 1.395 . S
C393 C400 1.492 . S
C394 C395 1.392 . S
C394 C396 1.385 . S
C395 C393 1.393 . S
C395 C394 1.392 . S
C395 H412 0.930 . S
C396 C394 1.385 . S
C396 C398 1.393 . S
C396 H413 0.932 1_554 S
C397 C393 1.395 . S
C397 C398 1.379 . S
C397 H414 0.930 . S
C398 C396 1.393 . S
C398 C397 1.379 . S
C398 H415 0.930 . S
C399 O382 1.264 . S
C399 O383 1.254 . S
C400 Eu336 2.848 . S
C400 O380 1.257 . S
C400 O385 1.249 . S
C400 C393 1.492 . S
C401 H366 0.931 . S
C401 C379 1.420 . S
C401 C402 1.351 . S
C402 H364 0.930 . S
C402 C370 1.423 . S
C402 C401 1.351 . S
C403 O387 1.276 . S
C403 O390 1.235 . S
C404 C405 1.393 . S
C404 C408 1.395 . S
C404 C411 1.492 . S
C405 C404 1.393 . S
C405 C406 1.392 . S
C405 H416 0.930 . S
C406 C405 1.392 . S
C406 C407 1.386 . S
C407 C406 1.386 . S
C407 C409 1.395 . S
C407 H417 0.930 . S
C408 C404 1.395 . S
C408 C409 1.379 . S
C408 H418 0.930 . S
C409 C407 1.395 . S
C409 C408 1.379 . S
C409 H419 0.930 . S
C410 O388 1.264 . S
C410 O389 1.254 . S
C411 Eu347 2.848 . S
C411 O386 1.257 . S
C411 O391 1.249 . S
C411 C404 1.492 . S
H412 C395 0.930 . S
H413 C396 0.932 1_556 S
H414 C397 0.930 . S
H415 C398 0.930 . S
H416 C405 0.930 . S
H417 C407 0.930 . S
H418 C408 0.930 . S
H419 C409 0.930 . S
Eu420 N451 2.657 . S
Eu420 N458 2.609 . S
Eu420 O464 2.558 . S
Eu420 O465 2.612 . S
Eu420 O467 2.339 . S
Eu420 O468 2.563 . S
Eu420 O469 2.419 . S
Eu420 O471 2.380 . S
Eu420 O472 2.432 . S
Eu420 C484 2.848 . S
C421 C424 1.429 . S
C421 C425 1.411 . S
C421 N428 1.377 . S
C422 C424 1.420 . S
C422 C426 1.423 1_545 S
C422 C434 1.392 . S
C423 C425 1.420 1_565 S
C423 C426 1.351 . S
C423 H446 0.931 . S
C424 C421 1.429 . S
C424 C422 1.420 . S
C424 N432 1.362 . S
C425 C421 1.411 . S
C425 C423 1.420 1_545 S
C425 C430 1.395 . S
C426 C422 1.423 1_565 S
C426 C423 1.351 . S
C426 H438 0.930 . S
C427 C429 1.400 . S
C427 C430 1.386 . S
C427 H439 0.930 . S
N428 C421 1.377 . S
N428 C429 1.321 . S
N428 Eu431 2.609 . S
C429 C427 1.400 . S
C429 N428 1.321 . S
C429 H436 0.930 . S
C430 C425 1.395 . S
C430 C427 1.386 . S
C430 H449 0.930 1_545 S
Eu431 N428 2.609 . S
Eu431 N432 2.657 . S
Eu431 O465 2.380 . S
Eu431 O466 2.432 . S
Eu431 O470 2.558 . S
Eu431 O471 2.612 . S
Eu431 O473 2.339 . S
Eu431 O474 2.563 . S
Eu431 O475 2.419 . S
Eu431 C495 2.848 . S
N432 C424 1.362 . S
N432 Eu431 2.657 . S
N432 C433 1.334 . S
C433 N432 1.334 . S
C433 C435 1.413 . S
C433 H440 0.929 . S
C434 C422 1.392 . S
C434 C435 1.367 . S
C434 H442 0.930 1_545 S
C435 C433 1.413 . S
C435 C434 1.367 . S
C435 H437 0.930 . S
H436 C429 0.930 . S
H437 C435 0.930 . S
H438 C426 0.930 . S
H439 C427 0.930 . S
H440 C433 0.929 . S
H441 C455 0.930 . S
H442 C434 0.930 1_565 S
H443 C461 0.930 . S
H444 C452 0.929 . S
H445 C459 0.930 . S
H446 C423 0.931 . S
H447 C453 0.930 . S
H448 C486 0.930 . S
H449 C430 0.930 1_565 S
H450 C485 0.931 . S
N451 Eu420 2.657 . S
N451 C452 1.334 . S
N451 C456 1.362 . S
C452 H444 0.929 . S
C452 N451 1.334 . S
C452 C455 1.413 . S
C453 H447 0.930 . S
C453 C454 1.392 . S
C453 C455 1.367 . S
C454 C453 1.392 . S
C454 C456 1.420 . S
C454 C486 1.423 . S
C455 H441 0.930 . S
C455 C452 1.413 . S
C455 C453 1.367 . S
C456 N451 1.362 . S
C456 C454 1.420 . S
C456 C460 1.429 . S
H457 C462 0.930 . S
N458 Eu420 2.609 . S
N458 C460 1.377 . S
N458 C461 1.321 . S
C459 H445 0.930 . S
C459 C461 1.400 . S
C459 C462 1.386 . S
C460 C456 1.429 . S
C460 N458 1.377 . S
C460 C463 1.411 . S
C461 H443 0.930 . S
C461 N458 1.321 . S
C461 C459 1.400 . S
C462 H457 0.930 . S
C462 C459 1.386 . S
C462 C463 1.395 . S
C463 C460 1.411 . S
C463 C462 1.395 . S
C463 C485 1.420 . S
O464 Eu420 2.558 . S
O464 C484 1.257 . S
O465 Eu420 2.612 . S
O465 Eu431 2.380 . S
O465 C476 1.276 . S
O466 Eu431 2.432 . S
O466 C483 1.264 . S
O467 Eu420 2.339 . S
O467 C483 1.254 . S
O468 Eu420 2.563 . S
O468 C476 1.235 . S
O469 Eu420 2.419 . S
O469 C484 1.249 . S
O470 Eu431 2.558 . S
O470 C495 1.257 . S
O471 Eu420 2.380 . S
O471 Eu431 2.612 . S
O471 C487 1.276 . S
O472 Eu420 2.432 . S
O472 C494 1.264 . S
O473 Eu431 2.339 . S
O473 C494 1.254 . S
O474 Eu431 2.563 . S
O474 C487 1.235 . S
O475 Eu431 2.419 . S
O475 C495 1.249 . S
C476 O465 1.276 . S
C476 O468 1.235 . S
C477 C479 1.393 . S
C477 C481 1.395 . S
C477 C484 1.492 . S
C478 C479 1.392 . S
C478 C480 1.386 . S
C479 C477 1.393 . S
C479 C478 1.392 . S
C479 H496 0.930 . S
C480 C478 1.386 . S
C480 C482 1.395 . S
C480 H497 0.930 . S
C481 C477 1.395 . S
C481 C482 1.379 . S
C481 H498 0.930 . S
C482 C480 1.395 . S
C482 C481 1.379 . S
C482 H499 0.930 . S
C483 O466 1.264 . S
C483 O467 1.254 . S
C484 Eu420 2.848 . S
C484 O464 1.257 . S
C484 O469 1.249 . S
C484 C477 1.492 . S
C485 H450 0.931 . S
C485 C463 1.420 . S
C485 C486 1.351 . S
C486 H448 0.930 . S
C486 C454 1.423 . S
C486 C485 1.351 . S
C487 O471 1.276 . S
C487 O474 1.235 . S
C488 C489 1.393 . S
C488 C492 1.395 . S
C488 C495 1.492 . S
C489 C488 1.393 . S
C489 C490 1.392 . S
C489 H500 0.930 . S
C490 C489 1.392 . S
C490 C491 1.386 1_556 S
C491 C490 1.386 1_554 S
C491 C493 1.395 1_554 S
C491 H501 0.930 . S
C492 C488 1.395 . S
C492 C493 1.379 . S
C492 H502 0.930 . S
C493 C491 1.395 1_556 S
C493 C492 1.379 . S
C493 H503 0.930 . S
C494 O472 1.264 . S
C494 O473 1.254 . S
C495 Eu431 2.848 . S
C495 O470 1.257 . S
C495 O475 1.249 . S
C495 C488 1.492 . S
H496 C479 0.930 . S
H497 C480 0.930 . S
H498 C481 0.930 . S
H499 C482 0.930 . S
H500 C489 0.930 . S
H501 C491 0.930 . S
H502 C492 0.930 . S
H503 C493 0.930 . S
H504 C510 0.930 . S
H505 C514 0.930 . S
H506 C519 0.929 . S
H507 C517 0.929 . S
H508 C512 0.929 . S
H509 C518 0.929 . S
C510 H504 0.930 . S
C510 C511 1.367 . S
C510 C518 1.378 . S
C511 C510 1.367 . S
C511 C519 1.433 . S
C512 H508 0.929 . S
C512 C514 1.378 . S
C512 C516 1.350 . S
C513 C516 1.463 . S
C513 C518 1.350 . S
C513 N521 1.427 . S
C514 H505 0.930 . S
C514 C512 1.378 . S
C514 C515 1.367 . S
C515 C514 1.367 . S
C515 C517 1.433 . S
C516 C512 1.350 . S
C516 C513 1.463 . S
C516 N520 1.427 . S
C517 H507 0.929 . S
C517 C515 1.433 . S
C517 N520 1.384 . S
C518 H509 0.929 . S
C518 C510 1.378 . S
C518 C513 1.350 . S
C519 H506 0.929 . S
C519 C511 1.433 . S
C519 N521 1.384 . S
N520 C516 1.427 . S
N520 C517 1.384 . S
N521 C513 1.427 . S
N521 C519 1.384 . S
H522 C528 0.930 . S
H523 C532 0.930 . S
H524 C537 0.929 . S
H525 C535 0.929 . S
H526 C530 0.929 . S
H527 C536 0.929 . S
C528 H522 0.930 . S
C528 C529 1.367 . S
C528 C536 1.378 . S
C529 C528 1.367 . S
C529 C537 1.433 . S
C530 H526 0.929 . S
C530 C532 1.378 . S
C530 C534 1.350 . S
C531 C534 1.463 1_455 S
C531 C536 1.350 . S
C531 N539 1.427 . S
C532 H523 0.930 . S
C532 C530 1.378 . S
C532 C533 1.367 . S
C533 C532 1.367 . S
C533 C535 1.433 . S
C534 C530 1.350 . S
C534 C531 1.463 1_655 S
C534 N538 1.427 . S
C535 H525 0.929 . S
C535 C533 1.433 . S
C535 N538 1.384 . S
C536 H527 0.929 . S
C536 C528 1.378 . S
C536 C531 1.350 . S
C537 H524 0.929 . S
C537 C529 1.433 . S
C537 N539 1.384 . S
N538 C534 1.427 . S
N538 C535 1.384 . S
N539 C531 1.427 . S
N539 C537 1.384 . S
H540 C546 0.930 . S
H541 C550 0.930 . S
H542 C555 0.929 . S
H543 C553 0.929 . S
H544 C548 0.929 . S
H545 C554 0.929 . S
C546 H540 0.930 . S
C546 C547 1.367 . S
C546 C554 1.378 . S
C547 C546 1.367 . S
C547 C555 1.433 . S
C548 H544 0.929 . S
C548 C550 1.378 . S
C548 C552 1.350 . S
C549 C552 1.463 1_545 S
C549 C554 1.350 . S
C549 N557 1.427 . S
C550 H541 0.930 . S
C550 C548 1.378 . S
C550 C551 1.367 . S
C551 C550 1.367 . S
C551 C553 1.433 . S
C552 C548 1.350 . S
C552 C549 1.463 1_565 S
C552 N556 1.427 . S
C553 H543 0.929 . S
C553 C551 1.433 . S
C553 N556 1.384 . S
C554 H545 0.929 . S
C554 C546 1.378 . S
C554 C549 1.350 . S
C555 H542 0.929 . S
C555 C547 1.433 . S
C555 N557 1.384 . S
N556 C552 1.427 . S
N556 C553 1.384 . S
N557 C549 1.427 . S
N557 C555 1.384 . S
H558 C564 0.930 . S
H559 C568 0.930 . S
H560 C573 0.929 . S
H561 C571 0.929 . S
H562 C566 0.929 . S
H563 C572 0.929 . S
C564 H558 0.930 . S
C564 C565 1.367 . S
C564 C572 1.378 . S
C565 C564 1.367 . S
C565 C573 1.433 . S
C566 H562 0.929 . S
C566 C568 1.378 . S
C566 C570 1.350 . S
C567 C570 1.463 . S
C567 C572 1.350 . S
C567 N575 1.427 . S
C568 H559 0.930 . S
C568 C566 1.378 . S
C568 C569 1.367 . S
C569 C568 1.367 . S
C569 C571 1.433 . S
C570 C566 1.350 . S
C570 C567 1.463 . S
C570 N574 1.427 . S
C571 H561 0.929 . S
C571 C569 1.433 . S
C571 N574 1.384 . S
C572 H563 0.929 . S
C572 C564 1.378 . S
C572 C567 1.350 . S
C573 H560 0.929 . S
C573 C565 1.433 . S
C573 N575 1.384 . S
N574 C570 1.427 . S
N574 C571 1.384 . S
N575 C567 1.427 . S
N575 C573 1.384 . S
H576 C582 0.930 . S
H577 C586 0.930 . S
H578 C591 0.929 . S
H579 C589 0.929 . S
H580 C584 0.929 . S
H581 C590 0.929 . S
C582 H576 0.930 . S
C582 C583 1.367 . S
C582 C590 1.378 . S
C583 C582 1.367 . S
C583 C591 1.433 . S
C584 H580 0.929 . S
C584 C586 1.378 . S
C584 C588 1.350 . S
C585 C588 1.463 1_455 S
C585 C590 1.350 . S
C585 N593 1.427 . S
C586 H577 0.930 . S
C586 C584 1.378 . S
C586 C587 1.367 . S
C587 C586 1.367 . S
C587 C589 1.433 . S
C588 C584 1.350 . S
C588 C585 1.463 1_655 S
C588 N592 1.427 . S
C589 H579 0.929 . S
C589 C587 1.433 . S
C589 N592 1.384 . S
C590 H581 0.929 . S
C590 C582 1.378 . S
C590 C585 1.350 . S
C591 H578 0.929 . S
C591 C583 1.433 . S
C591 N593 1.384 . S
N592 C588 1.427 . S
N592 C589 1.384 . S
N593 C585 1.427 . S
N593 C591 1.384 . S
H594 C600 0.930 . S
H595 C604 0.930 . S
H596 C609 0.929 . S
H597 C607 0.929 . S
H598 C602 0.929 . S
H599 C608 0.929 . S
C600 H594 0.930 . S
C600 C601 1.367 . S
C600 C608 1.378 . S
C601 C600 1.367 . S
C601 C609 1.433 . S
C602 H598 0.929 . S
C602 C604 1.378 . S
C602 C606 1.350 . S
C603 C606 1.463 1_545 S
C603 C608 1.350 . S
C603 N611 1.427 . S
C604 H595 0.930 . S
C604 C602 1.378 . S
C604 C605 1.367 . S
C605 C604 1.367 . S
C605 C607 1.433 . S
C606 C602 1.350 . S
C606 C603 1.463 1_565 S
C606 N610 1.427 . S
C607 H597 0.929 . S
C607 C605 1.433 . S
C607 N610 1.384 . S
C608 H599 0.929 . S
C608 C600 1.378 . S
C608 C603 1.350 . S
C609 H596 0.929 . S
C609 C601 1.433 . S
C609 N611 1.384 . S
N610 C606 1.427 . S
N610 C607 1.384 . S
N611 C603 1.427 . S
N611 C609 1.384 . S
H612 C618 0.930 . S
H613 C622 0.930 . S
H614 C627 0.929 . S
H615 C625 0.929 . S
H616 C620 0.929 . S
H617 C626 0.929 . S
C618 H612 0.930 . S
C618 C619 1.367 . S
C618 C626 1.378 . S
C619 C618 1.367 . S
C619 C627 1.433 . S
C620 H616 0.929 . S
C620 C622 1.378 . S
C620 C624 1.350 . S
C621 C624 1.463 . S
C621 C626 1.350 . S
C621 N629 1.427 . S
C622 H613 0.930 . S
C622 C620 1.378 . S
C622 C623 1.367 . S
C623 C622 1.367 . S
C623 C625 1.433 . S
C624 C620 1.350 . S
C624 C621 1.463 . S
C624 N628 1.427 . S
C625 H615 0.929 . S
C625 C623 1.433 . S
C625 N628 1.384 . S
C626 H617 0.929 . S
C626 C618 1.378 . S
C626 C621 1.350 . S
C627 H614 0.929 . S
C627 C619 1.433 . S
C627 N629 1.384 . S
N628 C624 1.427 . S
N628 C625 1.384 . S
N629 C621 1.427 . S
N629 C627 1.384 . S
H630 C636 0.930 . S
H631 C640 0.930 . S
H632 C645 0.929 . S
H633 C643 0.929 . S
H634 C638 0.929 . S
H635 C644 0.929 . S
C636 H630 0.930 . S
C636 C637 1.367 . S
C636 C644 1.378 . S
C637 C636 1.367 . S
C637 C645 1.433 . S
C638 H634 0.929 . S
C638 C640 1.378 . S
C638 C642 1.350 . S
C639 C642 1.463 . S
C639 C644 1.350 . S
C639 N647 1.427 . S
C640 H631 0.930 . S
C640 C638 1.378 . S
C640 C641 1.367 . S
C641 C640 1.367 . S
C641 C643 1.433 . S
C642 C638 1.350 . S
C642 C639 1.463 . S
C642 N646 1.427 . S
C643 H633 0.929 . S
C643 C641 1.433 . S
C643 N646 1.384 . S
C644 H635 0.929 . S
C644 C636 1.378 . S
C644 C639 1.350 . S
C645 H632 0.929 . S
C645 C637 1.433 . S
C645 N647 1.384 . S
N646 C642 1.427 . S
N646 C643 1.384 . S
N647 C639 1.427 . S
N647 C645 1.384 . S
H648 C654 0.930 . S
H649 C658 0.930 . S
H650 C663 0.929 . S
H651 C661 0.929 . S
H652 C656 0.929 . S
H653 C662 0.929 . S
C654 H648 0.930 . S
C654 C655 1.367 . S
C654 C662 1.378 . S
C655 C654 1.367 . S
C655 C663 1.433 . S
C656 H652 0.929 . S
C656 C658 1.378 . S
C656 C660 1.350 . S
C657 C660 1.463 . S
C657 C662 1.350 . S
C657 N665 1.427 . S
C658 H649 0.930 . S
C658 C656 1.378 . S
C658 C659 1.367 . S
C659 C658 1.367 . S
C659 C661 1.433 . S
C660 C656 1.350 . S
C660 C657 1.463 . S
C660 N664 1.427 . S
C661 H651 0.929 . S
C661 C659 1.433 . S
C661 N664 1.384 . S
C662 H653 0.929 . S
C662 C654 1.378 . S
C662 C657 1.350 . S
C663 H650 0.929 . S
C663 C655 1.433 . S
C663 N665 1.384 . S
N664 C660 1.427 . S
N664 C661 1.384 . S
N665 C657 1.427 . S
N665 C663 1.384 . S
H666 C672 0.930 . S
H667 C676 0.930 . S
H668 C681 0.929 . S
H669 C679 0.929 . S
H670 C674 0.929 . S
H671 C680 0.929 . S
C672 H666 0.930 . S
C672 C673 1.367 . S
C672 C680 1.378 . S
C673 C672 1.367 . S
C673 C681 1.433 . S
C674 H670 0.929 . S
C674 C676 1.378 . S
C674 C678 1.350 . S
C675 C678 1.463 . S
C675 C680 1.350 . S
C675 N683 1.427 . S
C676 H667 0.930 . S
C676 C674 1.378 . S
C676 C677 1.367 . S
C677 C676 1.367 . S
C677 C679 1.433 . S
C678 C674 1.350 . S
C678 C675 1.463 . S
C678 N682 1.427 . S
C679 H669 0.929 . S
C679 C677 1.433 . S
C679 N682 1.384 . S
C680 H671 0.929 . S
C680 C672 1.378 . S
C680 C675 1.350 . S
C681 H668 0.929 . S
C681 C673 1.433 . S
C681 N683 1.384 . S
N682 C678 1.427 . S
N682 C679 1.384 . S
N683 C675 1.427 . S
N683 C681 1.384 . S
H684 C690 0.930 . S
H685 C694 0.930 . S
H686 C699 0.929 . S
H687 C697 0.929 . S
H688 C692 0.929 . S
H689 C698 0.929 . S
C690 H684 0.930 . S
C690 C691 1.367 . S
C690 C698 1.378 . S
C691 C690 1.367 . S
C691 C699 1.433 . S
C692 H688 0.929 . S
C692 C694 1.378 . S
C692 C696 1.350 . S
C693 C696 1.463 . S
C693 C698 1.350 . S
C693 N701 1.427 . S
C694 H685 0.930 . S
C694 C692 1.378 . S
C694 C695 1.367 . S
C695 C694 1.367 . S
C695 C697 1.433 . S
C696 C692 1.350 . S
C696 C693 1.463 . S
C696 N700 1.427 . S
C697 H687 0.929 . S
C697 C695 1.433 . S
C697 N700 1.384 . S
C698 H689 0.929 . S
C698 C690 1.378 . S
C698 C693 1.350 . S
C699 H686 0.929 . S
C699 C691 1.433 . S
C699 N701 1.384 . S
N700 C696 1.427 . S
N700 C697 1.384 . S
N701 C693 1.427 . S
N701 C699 1.384 . S
H702 C708 0.930 . S
H703 C712 0.930 . S
H704 C717 0.929 . S
H705 C715 0.929 . S
H706 C710 0.929 . S
H707 C716 0.929 . S
C708 H702 0.930 . S
C708 C709 1.367 . S
C708 C716 1.378 . S
C709 C708 1.367 . S
C709 C717 1.433 . S
C710 H706 0.929 . S
C710 C712 1.378 . S
C710 C714 1.350 . S
C711 C714 1.463 . S
C711 C716 1.350 . S
C711 N719 1.427 . S
C712 H703 0.930 . S
C712 C710 1.378 . S
C712 C713 1.367 . S
C713 C712 1.367 . S
C713 C715 1.433 . S
C714 C710 1.350 . S
C714 C711 1.463 . S
C714 N718 1.427 . S
C715 H705 0.929 . S
C715 C713 1.433 . S
C715 N718 1.384 . S
C716 H707 0.929 . S
C716 C708 1.378 . S
C716 C711 1.350 . S
C717 H704 0.929 . S
C717 C709 1.433 . S
C717 N719 1.384 . S
N718 C714 1.427 . S
N718 C715 1.384 . S
N719 C711 1.427 . S
N719 C717 1.384 . S
H720 C726 0.930 . S
H721 C730 0.930 . S
H722 C735 0.929 . S
H723 C733 0.929 . S
H724 C728 0.929 . S
H725 C734 0.929 . S
C726 H720 0.930 . S
C726 C727 1.367 . S
C726 C734 1.378 . S
C727 C726 1.367 . S
C727 C735 1.433 . S
C728 H724 0.929 . S
C728 C730 1.378 . S
C728 C732 1.350 . S
C729 C732 1.463 . S
C729 C734 1.350 . S
C729 N737 1.427 . S
C730 H721 0.930 . S
C730 C728 1.378 . S
C730 C731 1.367 . S
C731 C730 1.367 . S
C731 C733 1.433 . S
C732 C728 1.350 . S
C732 C729 1.463 . S
C732 N736 1.427 . S
C733 H723 0.929 . S
C733 C731 1.433 . S
C733 N736 1.384 . S
C734 H725 0.929 . S
C734 C726 1.378 . S
C734 C729 1.350 . S
C735 H722 0.929 . S
C735 C727 1.433 . S
C735 N737 1.384 . S
N736 C732 1.427 . S
N736 C733 1.384 . S
N737 C729 1.427 . S
N737 C735 1.384 . S
H738 C744 0.930 . S
H739 C748 0.930 . S
H740 C753 0.929 . S
H741 C751 0.929 . S
H742 C746 0.929 . S
H743 C752 0.929 . S
C744 H738 0.930 . S
C744 C745 1.367 . S
C744 C752 1.378 . S
C745 C744 1.367 . S
C745 C753 1.433 . S
C746 H742 0.929 . S
C746 C748 1.378 . S
C746 C750 1.350 . S
C747 C750 1.463 . S
C747 C752 1.350 . S
C747 N755 1.427 . S
C748 H739 0.930 . S
C748 C746 1.378 . S
C748 C749 1.367 . S
C749 C748 1.367 . S
C749 C751 1.433 . S
C750 C746 1.350 . S
C750 C747 1.463 . S
C750 N754 1.427 . S
C751 H741 0.929 . S
C751 C749 1.433 . S
C751 N754 1.384 . S
C752 H743 0.929 . S
C752 C744 1.378 . S
C752 C747 1.350 . S
C753 H740 0.929 . S
C753 C745 1.433 . S
C753 N755 1.384 . S
N754 C750 1.427 . S
N754 C751 1.384 . S
N755 C747 1.427 . S
N755 C753 1.384 . S
H756 C762 0.930 . S
H757 C766 0.930 . S
H758 C771 0.929 . S
H759 C769 0.929 . S
H760 C764 0.929 . S
H761 C770 0.929 . S
C762 H756 0.930 . S
C762 C763 1.367 . S
C762 C770 1.378 . S
C763 C762 1.367 . S
C763 C771 1.433 . S
C764 H760 0.929 . S
C764 C766 1.378 . S
C764 C768 1.350 . S
C765 C768 1.463 . S
C765 C770 1.350 . S
C765 N773 1.427 . S
C766 H757 0.930 . S
C766 C764 1.378 . S
C766 C767 1.367 . S
C767 C766 1.367 . S
C767 C769 1.433 . S
C768 C764 1.350 . S
C768 C765 1.463 . S
C768 N772 1.427 . S
C769 H759 0.929 . S
C769 C767 1.433 . S
C769 N772 1.384 . S
C770 H761 0.929 . S
C770 C762 1.378 . S
C770 C765 1.350 . S
C771 H758 0.929 . S
C771 C763 1.433 . S
C771 N773 1.384 . S
N772 C768 1.427 . S
N772 C769 1.384 . S
N773 C765 1.427 . S
N773 C771 1.384 . S
H774 C780 0.930 . S
H775 C784 0.930 . S
H776 C789 0.929 . S
H777 C787 0.929 . S
H778 C782 0.929 . S
H779 C788 0.929 . S
C780 H774 0.930 . S
C780 C781 1.367 . S
C780 C788 1.378 . S
C781 C780 1.367 . S
C781 C789 1.433 . S
C782 H778 0.929 . S
C782 C784 1.378 . S
C782 C786 1.350 . S
C783 C786 1.463 . S
C783 C788 1.350 . S
C783 N791 1.427 . S
C784 H775 0.930 . S
C784 C782 1.378 . S
C784 C785 1.367 . S
C785 C784 1.367 . S
C785 C787 1.433 . S
C786 C782 1.350 . S
C786 C783 1.463 . S
C786 N790 1.427 . S
C787 H777 0.929 . S
C787 C785 1.433 . S
C787 N790 1.384 . S
C788 H779 0.929 . S
C788 C780 1.378 . S
C788 C783 1.350 . S
C789 H776 0.929 . S
C789 C781 1.433 . S
C789 N791 1.384 . S
N790 C786 1.427 . S
N790 C787 1.384 . S
N791 C783 1.427 . S
N791 C789 1.384 . S
H792 C798 0.930 . S
H793 C802 0.930 . S
H794 C807 0.929 . S
H795 C805 0.929 . S
H796 C800 0.929 . S
H797 C806 0.929 . S
C798 H792 0.930 . S
C798 C799 1.367 . S
C798 C806 1.378 . S
C799 C798 1.367 . S
C799 C807 1.433 . S
C800 H796 0.929 . S
C800 C802 1.378 . S
C800 C804 1.350 . S
C801 C804 1.463 . S
C801 C806 1.350 . S
C801 N809 1.427 . S
C802 H793 0.930 . S
C802 C800 1.378 . S
C802 C803 1.367 . S
C803 C802 1.367 . S
C803 C805 1.433 . S
C804 C800 1.350 . S
C804 C801 1.463 . S
C804 N808 1.427 . S
C805 H795 0.929 . S
C805 C803 1.433 . S
C805 N808 1.384 . S
C806 H797 0.929 . S
C806 C798 1.378 . S
C806 C801 1.350 . S
C807 H794 0.929 . S
C807 C799 1.433 . S
C807 N809 1.384 . S
N808 C804 1.427 . S
N808 C805 1.384 . S
N809 C801 1.427 . S
N809 C807 1.384 . S
H810 C816 0.930 . S
H811 C820 0.930 . S
H812 C825 0.929 . S
H813 C823 0.929 . S
H814 C818 0.929 . S
H815 C824 0.929 . S
C816 H810 0.930 . S
C816 C817 1.367 . S
C816 C824 1.378 . S
C817 C816 1.367 . S
C817 C825 1.433 . S
C818 H814 0.929 . S
C818 C820 1.378 . S
C818 C822 1.350 . S
C819 C822 1.463 . S
C819 C824 1.350 . S
C819 N827 1.427 . S
C820 H811 0.930 . S
C820 C818 1.378 . S
C820 C821 1.367 . S
C821 C820 1.367 . S
C821 C823 1.433 . S
C822 C818 1.350 . S
C822 C819 1.463 . S
C822 N826 1.427 . S
C823 H813 0.929 . S
C823 C821 1.433 . S
C823 N826 1.384 . S
C824 H815 0.929 . S
C824 C816 1.378 . S
C824 C819 1.350 . S
C825 H812 0.929 . S
C825 C817 1.433 . S
C825 N827 1.384 . S
N826 C822 1.427 . S
N826 C823 1.384 . S
N827 C819 1.427 . S
N827 C825 1.384 . S
C511 C494 1.444 . S
C515 C56 1.394 . S
C529 C74 1.441 . S
C533 C140 1.398 . S
C547 C158 1.445 . S
C551 C224 1.388 . S
C565 C242 1.445 . S
C569 C308 1.391 . S
C583 C392 1.393 . S
C587 C326 1.442 . S
C601 C476 1.388 . S
C605 C410 1.444 . S
C619 C58 1.327 . S
C623 C70 1.327 . S
C637 C142 1.316 1_556 S
C641 C154 1.316 . S
C655 C226 1.316 . S
C659 C238 1.316 1_554 S
C673 C310 1.325 . S
C677 C322 1.325 . S
C691 C406 1.324 . S
C695 C394 1.324 1_556 S
C709 C478 1.318 . S
C713 C490 1.318 1_554 S
C727 C67 1.390 . S
C731 C399 1.425 . S
C745 C151 1.372 . S
C749 C483 1.436 . S
C763 C63 1.430 . S
C767 C235 1.381 . S
C781 C147 1.436 . S
C785 C319 1.373 . S
C799 C403 1.373 . S
C803 C231 1.438 . S
C817 C315 1.440 . S
C821 C487 1.369 . S
