# Generated by pormake.
# Topology smc, (6)-cn, num edge types: 1
# Building blocks:
#     Node 0, Type 0, BuildingBlock: BETFEN_clean_sbu_0, # of connection points: 6
#     Node 1, Type 0, BuildingBlock: BETFEN_clean_sbu_0, # of connection points: 6
#     Node 2, Type 0, BuildingBlock: BETFEN_clean_sbu_0, # of connection points: 6
#     Node 3, Type 0, BuildingBlock: BETFEN_clean_sbu_0, # of connection points: 6
#     Node 4, Type 0, BuildingBlock: BETFEN_clean_sbu_0, # of connection points: 6
#     Node 5, Type 0, BuildingBlock: BETFEN_clean_sbu_0, # of connection points: 6
#     Node 6, Type 0, BuildingBlock: BETFEN_clean_sbu_0, # of connection points: 6
#     Node 7, Type 0, BuildingBlock: BETFEN_clean_sbu_0, # of connection points: 6
#     Node 8, Type 0, BuildingBlock: BETFEN_clean_sbu_0, # of connection points: 6
#     Edge 9, Type (0, 0), BuildingBlock: OJICUG_clean_linker_0, # of connection points: 2
#     Edge 10, Type (0, 0), BuildingBlock: OJICUG_clean_linker_0, # of connection points: 2
#     Edge 11, Type (0, 0), BuildingBlock: OJICUG_clean_linker_0, # of connection points: 2
#     Edge 12, Type (0, 0), BuildingBlock: OJICUG_clean_linker_0, # of connection points: 2
#     Edge 13, Type (0, 0), BuildingBlock: OJICUG_clean_linker_0, # of connection points: 2
#     Edge 14, Type (0, 0), BuildingBlock: OJICUG_clean_linker_0, # of connection points: 2
#     Edge 15, Type (0, 0), BuildingBlock: OJICUG_clean_linker_0, # of connection points: 2
#     Edge 16, Type (0, 0), BuildingBlock: OJICUG_clean_linker_0, # of connection points: 2
#     Edge 17, Type (0, 0), BuildingBlock: OJICUG_clean_linker_0, # of connection points: 2
#     Edge 18, Type (0, 0), BuildingBlock: OJICUG_clean_linker_0, # of connection points: 2
#     Edge 19, Type (0, 0), BuildingBlock: OJICUG_clean_linker_0, # of connection points: 2
#     Edge 20, Type (0, 0), BuildingBlock: OJICUG_clean_linker_0, # of connection points: 2
#     Edge 21, Type (0, 0), BuildingBlock: OJICUG_clean_linker_0, # of connection points: 2
#     Edge 22, Type (0, 0), BuildingBlock: OJICUG_clean_linker_0, # of connection points: 2
#     Edge 23, Type (0, 0), BuildingBlock: OJICUG_clean_linker_0, # of connection points: 2
#     Edge 24, Type (0, 0), BuildingBlock: OJICUG_clean_linker_0, # of connection points: 2
#     Edge 25, Type (0, 0), BuildingBlock: OJICUG_clean_linker_0, # of connection points: 2
#     Edge 26, Type (0, 0), BuildingBlock: OJICUG_clean_linker_0, # of connection points: 2
#     Edge 27, Type (0, 0), BuildingBlock: OJICUG_clean_linker_0, # of connection points: 2
#     Edge 28, Type (0, 0), BuildingBlock: OJICUG_clean_linker_0, # of connection points: 2
#     Edge 29, Type (0, 0), BuildingBlock: OJICUG_clean_linker_0, # of connection points: 2
#     Edge 30, Type (0, 0), BuildingBlock: OJICUG_clean_linker_0, # of connection points: 2
#     Edge 31, Type (0, 0), BuildingBlock: OJICUG_clean_linker_0, # of connection points: 2
#     Edge 32, Type (0, 0), BuildingBlock: OJICUG_clean_linker_0, # of connection points: 2
#     Edge 33, Type (0, 0), BuildingBlock: OJICUG_clean_linker_0, # of connection points: 2
#     Edge 34, Type (0, 0), BuildingBlock: OJICUG_clean_linker_0, # of connection points: 2
#     Edge 35, Type (0, 0), BuildingBlock: OJICUG_clean_linker_0, # of connection points: 2
# Relax obj value: 0.197
# Max RMSD: 0.340
# Mean RMSD: 0.340
data_MOF--net-smc--node1-BETFEN_clean_sbu_0--edge1-OJICUG_clean_linker_0
_symmetry_space_group_name_H-M    P1
_symmetry_Int_Tables_number       1
_symmetry_cell_setting            triclinic
loop_
_symmetry_equiv_pos_as_xyz
'x, y, z'
_cell_length_a     31.788143
_cell_length_b     31.609454
_cell_length_c     27.816665
_cell_angle_alpha  89.587637
_cell_angle_beta   90.124903
_cell_angle_gamma 120.20489
loop_
_atom_site_label
_atom_site_type_symbol
_atom_site_fract_x
_atom_site_fract_y
_atom_site_fract_z
_atom_type_partial_charge
Pr0 Pr 1.01255 0.4738 0.04181 0.0
Pr1 Pr 0.08139 0.4374 1.00706 0.0
C2 C 0.94646 0.50255 0.04721 0.0
C3 C 0.91043 0.51872 0.05089 0.0
C4 C 0.91175 0.54687 0.09021 0.0
C5 C 0.88187 0.5674 0.0914 0.0
C6 C 0.84989 0.5602 0.05328 0.0
C7 C 0.8467 0.52968 1.01507 0.0
C8 C 0.87671 0.50911 1.0139 0.0
C9 C 0.064 0.46249 0.11881 0.0
C10 C 0.96817 0.35657 0.04653 0.0
C11 C 0.14914 0.41165 0.99104 0.0
C12 C 0.20276 0.43774 0.99638 0.0
C13 C 0.23144 0.43893 0.95755 0.0
C14 C 0.28226 0.46587 0.9602 0.0
C15 C 0.30561 0.49216 1.0019 0.0
C16 C 0.27687 0.49107 0.04085 0.0
C17 C 0.22594 0.46444 0.03801 0.0
C18 C 1.02242 0.43691 0.93225 0.0
C19 C 0.11975 0.5559 1.00835 0.0
O20 O 0.94241 0.46964 1.01633 0.0
O21 O 0.98495 0.52047 0.0748 0.0
O22 O 0.07859 0.47345 0.07583 0.0
O23 O 1.027 0.46874 0.12522 0.0
O24 O 1.00808 0.3623 1.02487 0.0
O25 O 0.96294 0.39337 0.05956 0.0
O26 O 0.12265 0.3993 0.03016 0.0
O27 O 0.13285 0.4285 0.95722 0.0
O28 O 1.00918 0.42524 0.97572 0.0
O29 O 0.06973 0.46075 0.93063 0.0
O30 O 0.0738 0.54346 1.00542 0.0
O31 O 0.13295 0.52293 1.01646 0.0
H32 H 0.93697 0.5543 0.11953 0.0
H33 H 0.88531 0.5905 0.12144 0.0
H34 H 0.82144 0.52212 0.98577 0.0
H35 H 0.87458 0.48702 0.98338 0.0
H36 H 0.21442 0.41924 0.92487 0.0
H37 H 0.30329 0.46552 0.92979 0.0
H38 H 0.29379 0.51137 0.07328 0.0
H39 H 0.20484 0.46521 0.06814 0.0
Pr40 Pr 0.59939 0.5591 0.04126 0.0
Pr41 Pr 0.63253 0.65959 1.01524 0.0
C42 C 0.55775 0.46171 0.04839 0.0
C43 C 0.55082 0.41239 0.05421 0.0
C44 C 0.52173 0.38351 0.09234 0.0
C45 C 0.50479 0.3335 0.09374 0.0
C46 C 0.51714 0.31103 0.0573 0.0
C47 C 0.54976 0.34102 1.02095 0.0
C48 C 0.56596 0.39121 1.01908 0.0
C49 C 0.61328 0.61968 0.12058 0.0
C50 C 0.71371 0.62423 0.04789 0.0
C51 C 0.66013 0.75509 1.00942 0.0
C52 C 0.63355 0.78234 1.0118 0.0
C53 C 0.64073 0.81616 0.97532 0.0
C54 C 0.61469 0.84099 0.97521 0.0
C55 C 0.58039 0.83236 1.01149 0.0
C56 C 0.57293 0.79804 0.04794 0.0
C57 C 0.59908 0.77315 0.04801 0.0
C58 C 0.64122 0.61129 0.93484 0.0
C59 C 0.51463 0.58218 1.00966 0.0
O60 O 0.57373 0.48543 1.00761 0.0
O61 O 0.56466 0.48933 0.08579 0.0
O62 O 0.59125 0.61861 0.08231 0.0
O63 O 0.6278 0.58797 0.11891 0.0
O64 O 0.70675 0.66217 0.04109 0.0
O65 O 0.67809 0.57911 0.04453 0.0
O66 O 0.66401 0.73463 0.04901 0.0
O67 O 0.65086 0.72743 0.97173 0.0
O68 O 0.65055 0.60552 0.97782 0.0
O69 O 0.61856 0.63587 0.93472 0.0
O70 O 0.52681 0.54853 1.01169 0.0
O71 O 0.54764 0.62872 1.01424 0.0
H72 H 0.50938 0.39902 0.1197 0.0
H73 H 0.4796 0.31234 0.12213 0.0
H74 H 0.5618 0.32577 0.9931 0.0
H75 H 0.58867 0.41288 0.98928 0.0
H76 H 0.66653 0.8233 0.94665 0.0
H77 H 0.62209 0.86754 0.94692 0.0
H78 H 0.54634 0.78979 0.07607 0.0
H79 H 0.59194 0.74643 0.07609 0.0
Pr80 Pr 0.51552 0.05994 0.04374 0.0
Pr81 Pr 0.4132 0.99198 1.01419 0.0
C82 C 0.61087 0.12479 0.04701 0.0
C83 C 0.66343 0.16048 0.04891 0.0
C84 C 0.6909 0.16037 0.08828 0.0
C85 C 0.74131 0.1907 0.08851 0.0
C86 C 0.76554 0.22228 0.04951 0.0
C87 C 0.73752 0.22452 1.01132 0.0
C88 C 0.6869 0.19382 1.01101 0.0
C89 C 0.45391 1.00975 0.12176 0.0
C90 C 0.44769 0.10671 0.05408 0.0
C91 C 0.31907 0.92415 0.99936 0.0
C92 C 0.29066 0.87013 1.00288 0.0
C93 C 0.26063 0.84322 0.96449 0.0
C94 C 0.23555 0.79201 0.96551 0.0
C95 C 0.23993 0.7665 1.00507 0.0
C96 C 0.27017 0.79361 0.04355 0.0
C97 C 0.29547 0.84489 0.04238 0.0
C98 C 0.46687 0.05151 0.93729 0.0
C99 C 0.4911 0.95257 1.01086 0.0
O100 O 0.58258 0.1265 1.01371 0.0
O101 O 0.58959 0.08832 0.07768 0.0
O102 O 0.45314 0.99098 0.08156 0.0
O103 O 0.49013 0.05432 0.1243 0.0
O104 O 0.41154 0.06491 0.0365 0.0
O105 O 0.49099 0.1134 0.06194 0.0
O106 O 0.33462 0.94881 0.03928 0.0
O107 O 0.35151 0.94174 0.96506 0.0
O108 O 0.46975 0.06516 0.98043 0.0
O109 O 0.4429 1.00408 0.93553 0.0
O110 O 0.52456 0.99885 1.00831 0.0
O111 O 0.44548 0.93925 1.02038 0.0
H112 H 0.67363 0.13581 0.11848 0.0
H113 H 0.76132 0.18782 0.11865 0.0
H114 H 0.75463 0.24957 0.98144 0.0
H115 H 0.66635 0.1954 0.98062 0.0
H116 H 0.25684 0.86191 0.93342 0.0
H117 H 0.21219 0.7724 0.93553 0.0
H118 H 0.27487 0.77517 0.07429 0.0
H119 H 0.31916 0.8647 0.07212 0.0
Pr120 Pr 0.67824 0.80529 0.37666 0.0
Pr121 Pr 0.75042 0.77355 0.33984 0.0
C122 C 0.61337 0.83501 0.37898 0.0
C123 C 0.57787 0.85167 0.38067 0.0
C124 C 0.58184 0.8851 0.41588 0.0
C125 C 0.55153 0.90514 0.41451 0.0
C126 C 0.51677 0.892 0.37797 0.0
C127 C 0.51212 0.85763 0.34339 0.0
C128 C 0.54242 0.83764 0.34473 0.0
C129 C 0.73114 0.79688 0.45515 0.0
C130 C 0.63523 0.68944 0.37695 0.0
C131 C 0.8174 0.747 0.32603 0.0
C132 C 0.87104 0.77368 0.32965 0.0
C133 C 0.89806 0.77622 0.28896 0.0
C134 C 0.94875 0.80286 0.28979 0.0
C135 C 0.97395 0.82744 0.33157 0.0
C136 C 0.9469 0.82574 0.3723 0.0
C137 C 0.89581 0.79926 0.37131 0.0
C138 C 0.69154 0.77331 0.26541 0.0
C139 C 0.7869 0.89103 0.34701 0.0
O140 O 0.61056 0.80298 0.34757 0.0
O141 O 0.64901 0.85012 0.40997 0.0
O142 O 0.7354 0.79316 0.41102 0.0
O143 O 0.6966 0.80707 0.46094 0.0
O144 O 0.67554 0.69765 0.35374 0.0
O145 O 0.62935 0.72468 0.39393 0.0
O146 O 0.79209 0.73692 0.36574 0.0
O147 O 0.79995 0.76145 0.29114 0.0
O148 O 0.67775 0.76014 0.3085 0.0
O149 O 0.73889 0.79873 0.2645 0.0
O150 O 0.7407 0.87776 0.34537 0.0
O151 O 0.80121 0.85857 0.3514 0.0
H152 H 0.60884 0.89638 0.4441 0.0
H153 H 0.55488 0.93046 0.44232 0.0
H154 H 0.48538 0.84662 0.31492 0.0
H155 H 0.53875 0.81206 0.31705 0.0
H156 H 0.8798 0.7578 0.25615 0.0
H157 H 0.96825 0.80424 0.2574 0.0
H158 H 0.96513 0.84402 0.40515 0.0
H159 H 0.87589 0.79885 0.40301 0.0
Pr160 Pr 0.26529 0.89432 0.37811 0.0
Pr161 Pr 0.30004 0.99366 0.35245 0.0
C162 C 0.22837 0.79727 0.3779 0.0
C163 C 0.22034 0.74811 0.38903 0.0
C164 C 0.18878 0.71997 0.42639 0.0
C165 C 0.17141 0.66969 0.42934 0.0
C166 C 0.1852 0.64664 0.39489 0.0
C167 C 0.22019 0.67578 0.36006 0.0
C168 C 0.23729 0.72591 0.35696 0.0
C169 C 0.27269 0.9517 0.45787 0.0
C170 C 0.37676 0.95546 0.39384 0.0
C171 C 0.32984 0.0895 0.34654 0.0
C172 C 0.30383 0.11724 0.3496 0.0
C173 C 0.31143 0.15165 0.31359 0.0
C174 C 0.28457 0.17565 0.31304 0.0
C175 C 0.24912 0.16563 0.34845 0.0
C176 C 0.24141 0.1309 0.38454 0.0
C177 C 0.26828 0.10675 0.38497 0.0
C178 C 0.30932 0.94568 0.27327 0.0
C179 C 0.18376 0.91695 0.33955 0.0
O180 O 0.2646 0.82717 0.35011 0.0
O181 O 0.21216 0.81864 0.40659 0.0
O182 O 0.25451 0.95278 0.41774 0.0
O183 O 0.28472 0.91808 0.45829 0.0
O184 O 0.37335 0.9903 0.36983 0.0
O185 O 0.33807 0.91831 0.41181 0.0
O186 O 0.33443 0.06911 0.38596 0.0
O187 O 0.31883 0.06138 0.30895 0.0
O188 O 0.31923 0.94024 0.3162 0.0
O189 O 0.28571 0.96945 0.27214 0.0
O190 O 0.19868 0.88552 0.33657 0.0
O191 O 0.21481 0.96234 0.35185 0.0
H192 H 0.17511 0.73613 0.45164 0.0
H193 H 0.1448 0.64851 0.45676 0.0
H194 H 0.23297 0.65958 0.33388 0.0
H195 H 0.26165 0.74667 0.32775 0.0
H196 H 0.33793 0.1596 0.28541 0.0
H197 H 0.29205 0.20248 0.28502 0.0
H198 H 0.21396 0.12165 0.41198 0.0
H199 H 0.26067 0.07938 0.41247 0.0
Pr200 Pr 0.18374 0.39336 0.37535 0.0
Pr201 Pr 0.08269 0.32678 0.35315 0.0
C202 C 0.28122 0.44702 0.37876 0.0
C203 C 0.32996 0.49116 0.37653 0.0
C204 C 0.35598 0.51165 0.41899 0.0
C205 C 0.40598 0.545 0.41735 0.0
C206 C 0.43136 0.55759 0.37323 0.0
C207 C 0.40424 0.53967 0.33058 0.0
C208 C 0.35416 0.50716 0.33222 0.0
C209 C 0.1251 0.34706 0.45679 0.0
C210 C 0.12159 0.44513 0.38249 0.0
C211 C 0.98741 0.25962 0.3478 0.0
C212 C 0.95991 0.20526 0.34924 0.0
C213 C 0.93614 0.17915 0.30759 0.0
C214 C 0.91126 0.12794 0.30742 0.0
C215 C 0.90926 0.10154 0.34905 0.0
C216 C 0.93337 0.12761 0.39067 0.0
C217 C 0.95869 0.17891 0.39072 0.0
C218 C 0.12994 0.38169 0.27082 0.0
C219 C 0.15716 0.28341 0.34676 0.0
O220 O 0.25669 0.42965 0.33891 0.0
O221 O 0.25413 0.43646 0.41733 0.0
O222 O 0.12519 0.32607 0.4184 0.0
O223 O 0.15672 0.39347 0.45404 0.0
O224 O 0.08314 0.39975 0.38102 0.0
O225 O 0.16548 0.4537 0.37338 0.0
O226 O 1.00792 0.28305 0.38752 0.0
O227 O 1.01487 0.27924 0.30999 0.0
O228 O 0.13648 0.39804 0.31318 0.0
O229 O 0.10507 0.33423 0.27194 0.0
O230 O 0.19109 0.32936 0.34485 0.0
O231 O 0.11174 0.27106 0.35553 0.0
H232 H 0.33826 0.50006 0.45371 0.0
H233 H 0.4248 0.55948 0.45097 0.0
H234 H 0.42173 0.54808 0.29574 0.0
H235 H 0.33513 0.49208 0.29876 0.0
H236 H 0.93683 0.19845 0.27499 0.0
H237 H 0.89268 0.10898 0.27495 0.0
H238 H 0.93293 0.10828 0.42316 0.0
H239 H 0.97733 0.19779 0.42319 0.0
Pr240 Pr 0.34626 0.1416 0.71073 0.0
Pr241 Pr 0.41579 0.10645 0.67269 0.0
C242 C 0.27957 0.16902 0.71612 0.0
C243 C 0.24307 0.18438 0.71963 0.0
C244 C 0.24345 0.21182 0.75917 0.0
C245 C 0.21324 0.23195 0.76001 0.0
C246 C 0.182 0.22512 0.72128 0.0
C247 C 0.17987 0.19538 0.68279 0.0
C248 C 0.21019 0.17521 0.68197 0.0
C249 C 0.40169 0.13426 0.78779 0.0
C250 C 0.30217 1.02524 0.7144 0.0
C251 C 0.48209 0.07914 0.65764 0.0
C252 C 0.53564 0.10501 0.66289 0.0
C253 C 0.56415 0.10637 0.62387 0.0
C254 C 0.61496 0.13312 0.62645 0.0
C255 C 0.63846 0.15906 0.66827 0.0
C256 C 0.60986 0.15783 0.70739 0.0
C257 C 0.55896 0.13143 0.7046 0.0
C258 C 0.35591 0.10712 0.59986 0.0
C259 C 0.45388 0.2244 0.67828 0.0
O260 O 0.27588 0.13617 0.6853 0.0
O261 O 0.31778 0.18711 0.74417 0.0
O262 O 0.40392 0.12896 0.74366 0.0
O263 O 0.36822 0.14583 0.79437 0.0
O264 O 0.34094 0.03134 0.68966 0.0
O265 O 0.29815 0.06188 0.73047 0.0
O266 O 0.45573 0.06748 0.69685 0.0
O267 O 0.46606 0.09586 0.62343 0.0
O268 O 0.34303 0.09454 0.64321 0.0
O269 O 0.40323 0.13156 0.5978 0.0
O270 O 0.40792 0.21194 0.67577 0.0
O271 O 0.46728 0.19138 0.68455 0.0
H272 H 0.26819 0.21903 0.78889 0.0
H273 H 0.21585 0.2545 0.79026 0.0
H274 H 0.15523 0.18815 0.65298 0.0
H275 H 0.20901 0.15384 0.65117 0.0
H276 H 0.547 0.08699 0.59109 0.0
H277 H 0.63587 0.1329 0.59586 0.0
H278 H 0.62687 0.17789 0.73991 0.0
H279 H 0.53807 0.13225 0.73485 0.0
Pr280 Pr 0.93122 0.22516 0.70614 0.0
Pr281 Pr 0.965 0.32515 0.68326 0.0
C282 C 0.88781 0.12738 0.71268 0.0
C283 C 0.88383 0.07943 0.72053 0.0
C284 C 0.85972 0.0525 0.76185 0.0
C285 C 0.84368 1.00265 0.76488 0.0
C286 C 0.8515 0.97868 0.72663 0.0
C287 C 0.87952 1.00665 0.68703 0.0
C288 C 0.89527 0.05659 0.68383 0.0
C289 C 0.94502 0.28393 0.78723 0.0
C290 C 0.0452 0.28827 0.71357 0.0
C291 C 0.99322 0.42078 0.67886 0.0
C292 C 0.96603 0.44761 0.67913 0.0
C293 C 0.96233 0.46936 0.63639 0.0
C294 C 0.93589 0.49368 0.63495 0.0
C295 C 0.91275 0.49749 0.67641 0.0
C296 C 0.91583 0.47511 0.7192 0.0
C297 C 0.94205 0.45028 0.72053 0.0
C298 C 0.97116 0.27913 0.60048 0.0
C299 C 0.84754 0.24945 0.67546 0.0
O300 O 0.90649 0.15152 0.67261 0.0
O301 O 0.89251 0.15496 0.74945 0.0
O302 O 0.92293 0.28342 0.74931 0.0
O303 O 0.96018 0.2528 0.78424 0.0
O304 O 0.03855 0.32656 0.70888 0.0
O305 O 1.00942 0.24347 0.70871 0.0
O306 O 0.99474 0.3993 0.71871 0.0
O307 O 0.9871 0.39435 0.64081 0.0
O308 O 0.98216 0.27191 0.64235 0.0
O309 O 0.94717 0.3023 0.60312 0.0
O310 O 0.86006 0.21606 0.67392 0.0
O311 O 0.88034 0.29535 0.6838 0.0
H312 H 0.8502 0.06918 0.79053 0.0
H313 H 0.82233 0.98243 0.79589 0.0
H314 H 0.88763 0.98962 0.65759 0.0
H315 H 0.914 0.07651 0.65156 0.0
H316 H 0.97978 0.46737 0.60376 0.0
H317 H 0.93354 0.50943 0.60107 0.0
H318 H 0.89889 0.47762 0.75195 0.0
H319 H 0.94366 0.43344 0.75399 0.0
Pr320 Pr 0.85066 0.72671 0.7072 0.0
Pr321 Pr 0.74858 0.65947 0.68792 0.0
C322 C 0.94824 0.77988 0.70605 0.0
C323 C 0.99744 0.82273 0.71118 0.0
C324 C 1.02388 0.82812 0.75326 0.0
C325 C 0.0739 0.86049 0.75452 0.0
C326 C 0.09882 0.88879 0.71384 0.0
C327 C 0.07154 0.88596 0.67277 0.0
C328 C 1.02139 0.85297 0.67134 0.0
C329 C 0.79435 0.6818 0.79017 0.0
C330 C 0.78761 0.77739 0.71927 0.0
C331 C 0.65346 0.59215 0.6822 0.0
C332 C 0.62593 0.53791 0.68347 0.0
C333 C 0.60255 0.5121 0.64159 0.0
C334 C 0.57803 0.46095 0.64103 0.0
C335 C 0.57612 0.43436 0.68246 0.0
C336 C 0.59977 0.46016 0.72435 0.0
C337 C 0.62457 0.51139 0.72482 0.0
C338 C 0.79497 0.71402 0.60539 0.0
C339 C 0.82337 0.61855 0.6761 0.0
O340 O 0.92135 0.77715 0.66926 0.0
O341 O 0.92352 0.75514 0.74396 0.0
O342 O 0.79294 0.66006 0.75177 0.0
O343 O 0.82723 0.72789 0.78718 0.0
O344 O 0.74913 0.73224 0.71577 0.0
O345 O 0.83196 0.78649 0.71184 0.0
O346 O 0.67368 0.61556 0.72203 0.0
O347 O 0.68125 0.6116 0.64456 0.0
O348 O 0.80127 0.73046 0.64758 0.0
O349 O 0.77054 0.66655 0.60663 0.0
O350 O 0.8536 0.66463 0.66676 0.0
O351 O 0.77977 0.60553 0.69276 0.0
H352 H 1.00655 0.80511 0.78442 0.0
H353 H 0.0932 0.86103 0.78679 0.0
H354 H 0.08897 0.90819 0.64123 0.0
H355 H 1.00191 0.84953 0.63824 0.0
H356 H 0.60334 0.53159 0.60909 0.0
H357 H 0.55971 0.44221 0.60838 0.0
H358 H 0.59934 0.4407 0.75672 0.0
H359 H 0.64268 0.53004 0.75752 0.0
C360 C 0.43348 0.5376 0.0484 0.0
C361 C 0.46225 0.56543 1.00932 0.0
H362 H 0.36157 0.49309 0.07686 0.0
C363 C 0.43963 0.57085 0.96838 0.0
H364 H 0.45026 0.5322 0.08002 0.0
C365 C 0.38871 0.54777 0.96617 0.0
C366 C 0.35971 0.51933 1.00511 0.0
H367 H 0.46117 0.59125 0.93749 0.0
H368 H 0.37198 0.55171 0.93379 0.0
C369 C 0.38278 0.51521 0.04656 0.0
C370 C 0.52032 0.90359 0.05455 0.0
C371 C 0.50737 0.91654 1.01097 0.0
H372 H 0.55419 0.86765 0.08901 0.0
C373 C 0.51682 0.90057 0.96769 0.0
H374 H 0.51452 0.91682 0.0883 0.0
C375 C 0.53911 0.87201 0.9679 0.0
C376 C 0.5533 0.85969 1.01146 0.0
H377 H 0.50792 0.91108 0.93368 0.0
H378 H 0.54569 0.86007 0.9338 0.0
C379 C 0.54305 0.87544 0.05485 0.0
C380 C 0.20705 0.6843 0.96513 0.0
C381 C 0.21223 0.7119 1.0066 0.0
H382 H 0.17416 0.6127 0.93353 0.0
C383 C 0.18926 0.68689 0.04932 0.0
H384 H 0.2244 0.70232 0.93169 0.0
C385 C 0.161 0.63577 0.05025 0.0
C386 C 0.15564 0.60856 1.00872 0.0
H387 H 0.19167 0.70689 0.08164 0.0
H388 H 0.14213 0.61752 0.08311 0.0
C389 C 0.17894 0.63307 0.96621 0.0
C390 C 0.4548 0.17725 0.09734 0.0
C391 C 0.44757 0.15293 0.05357 0.0
H392 H 0.48508 0.24549 0.13353 0.0
C393 C 0.46327 0.18101 1.01109 0.0
H394 H 0.44677 0.15706 0.13094 0.0
C395 C 0.48497 0.23185 1.01207 0.0
C396 C 0.49339 0.25651 0.05601 0.0
H397 H 0.46353 0.16457 0.97743 0.0
H398 H 0.49629 0.2516 0.97826 0.0
C399 C 0.47771 0.2283 0.09866 0.0
C400 C 0.8457 0.27018 0.09178 0.0
C401 C 0.81976 0.25167 0.04874 0.0
H402 H 0.91474 0.31529 0.12482 0.0
C403 C 0.84617 0.26117 1.00547 0.0
H404 H 0.82693 0.2652 0.1256 0.0
C405 C 0.89708 0.29023 1.00525 0.0
C406 C 0.92244 0.30984 0.04832 0.0
H407 H 0.82754 0.24735 0.97161 0.0
H408 H 0.91609 0.30085 0.97106 0.0
C409 C 0.89628 0.29831 0.09157 0.0
C410 C 0.81278 0.60385 1.01006 0.0
C411 C 0.82098 0.58544 0.0531 0.0
H412 H 0.77368 0.63433 0.97531 0.0
C413 C 0.80093 0.59099 0.09599 0.0
H414 H 0.82782 0.60048 0.97637 0.0
C415 C 0.77151 0.61218 0.09545 0.0
C416 C 0.76144 0.62835 0.05214 0.0
H417 H 0.80546 0.57629 0.12963 0.0
H418 H 0.7527 0.61146 0.12818 0.0
C419 C 0.78325 0.62499 1.00961 0.0
C420 C 0.05185 0.83076 0.31005 0.0
C421 C 1.02812 0.8526 0.33263 0.0
H422 H 0.11904 0.83446 0.29366 0.0
C423 C 0.05654 0.89779 0.35589 0.0
H424 H 1.03132 0.79554 0.29271 0.0
C425 C 0.10758 0.92042 0.35647 0.0
C426 C 0.13091 0.89804 0.33408 0.0
H427 H 0.03938 0.91563 0.37358 0.0
H428 H 0.12857 0.95448 0.37566 0.0
C429 C 0.10237 0.85312 0.31073 0.0
C430 C 0.18318 0.23131 0.30387 0.0
C431 C 0.17299 0.24692 0.34704 0.0
H432 H 0.21381 0.19213 0.27033 0.0
C433 C 0.18649 0.23463 0.3907 0.0
H434 H 0.17429 0.24163 0.26975 0.0
C435 C 0.21014 0.20736 0.39124 0.0
C436 C 0.22102 0.19195 0.34801 0.0
H437 H 0.18057 0.24793 0.42436 0.0
H438 H 0.22161 0.20007 0.42547 0.0
C439 C 0.20652 0.20369 0.30432 0.0
C440 C 0.84888 1.02207 0.38803 0.0
C441 C 0.88053 0.04704 0.34955 0.0
H442 H 0.79433 0.9529 0.41689 0.0
C443 C 0.88297 1.01963 0.31101 0.0
H444 H 0.84555 0.04207 0.41784 0.0
C445 C 0.8542 0.96839 0.31097 0.0
C446 C 0.82207 0.94391 0.34906 0.0
H447 H 0.90697 0.03785 0.28081 0.0
H448 H 0.85582 0.94808 0.28052 0.0
C449 C 0.81958 0.97111 0.3875 0.0
C450 C 0.14965 0.56906 0.34788 0.0
C451 C 0.16043 0.5923 0.39271 0.0
H452 H 0.12729 0.50333 0.30991 0.0
C453 C 0.14745 0.56318 0.43467 0.0
H454 H 0.15851 0.58998 0.31471 0.0
C455 C 0.12682 0.51224 0.43159 0.0
C456 C 0.11843 0.48957 0.38659 0.0
H457 H 0.15584 0.57992 0.46983 0.0
H458 H 0.12164 0.49126 0.46424 0.0
C459 C 0.12941 0.51861 0.34497 0.0
C460 C 0.51398 0.58556 0.41037 0.0
C461 C 0.48579 0.58692 0.37173 0.0
H462 H 0.58507 0.6167 0.44193 0.0
C463 C 0.5103 0.61621 0.33145 0.0
H464 H 0.49704 0.56298 0.44178 0.0
C465 C 0.56105 0.64388 0.33034 0.0
C466 C 0.58871 0.64443 0.37002 0.0
H467 H 0.49056 0.61998 0.30157 0.0
H468 H 0.57842 0.66886 0.3004 0.0
C469 C 0.56476 0.61482 0.4099 0.0
C470 C 0.46539 0.97761 0.38879 0.0
C471 C 0.41561 0.94398 0.38426 0.0
H472 H 0.53739 0.98715 0.39054 0.0
C473 C 0.40047 0.8947 0.37368 0.0
H474 H 0.47796 1.01567 0.39639 0.0
C475 C 0.43346 0.87851 0.37107 0.0
C476 C 0.48299 0.91124 0.37779 0.0
H477 H 0.36237 0.86769 0.36885 0.0
H478 H 0.41983 0.83986 0.36536 0.0
C479 C 0.49902 0.96115 0.38586 0.0
C480 C 0.76652 0.2047 0.7145 0.0
C481 C 0.79513 0.23257 0.67538 0.0
H482 H 0.69467 0.15995 0.74306 0.0
C483 C 0.77236 0.23781 0.63447 0.0
H484 H 0.78343 0.19934 0.74604 0.0
C485 C 0.72144 0.21467 0.6324 0.0
C486 C 0.69256 0.18619 0.67136 0.0
H487 H 0.7938 0.25824 0.60355 0.0
H488 H 0.70462 0.21863 0.60009 0.0
C489 C 0.71579 0.18213 0.71274 0.0
C490 C 0.90716 0.56985 0.64757 0.0
C491 C 0.88743 0.52649 0.67499 0.0
H492 H 0.9019 0.6318 0.62569 0.0
C493 C 0.84424 0.51201 0.7011 0.0
H494 H 0.94082 0.58291 0.6278 0.0
C495 C 0.82171 0.54054 0.69998 0.0
C496 C 0.84209 0.58413 0.67292 0.0
H497 H 0.82787 0.47872 0.72244 0.0
H498 H 0.78934 0.5293 0.72144 0.0
C499 C 0.88483 0.59813 0.64651 0.0
C500 C 0.54996 0.35305 0.64335 0.0
C501 C 0.5478 0.37994 0.68253 0.0
H502 H 0.52233 0.28193 0.61174 0.0
C503 C 0.51667 0.35451 0.7212 0.0
H504 H 0.57361 0.37162 0.61303 0.0
C505 C 0.4875 0.30361 0.7202 0.0
C506 C 0.4895 0.27697 0.68101 0.0
H507 H 0.51353 0.37411 0.75149 0.0
H508 H 0.46254 0.28502 0.7497 0.0
C509 C 0.52115 0.30186 0.64273 0.0
C510 C 0.78727 0.8477 0.68292 0.0
C511 C 0.78431 0.82149 0.72492 0.0
H512 H 0.81087 0.91738 0.65024 0.0
C513 C 0.80112 0.84704 0.76826 0.0
H514 H 0.77779 0.82986 0.64849 0.0
C515 C 0.82233 0.89798 0.76915 0.0
C516 C 0.82732 0.9244 0.72655 0.0
H517 H 0.8021 0.82817 0.80055 0.0
H518 H 0.83727 0.9168 0.8027 0.0
C519 C 0.80826 0.89844 0.68368 0.0
C520 C 0.17753 0.94069 0.75729 0.0
C521 C 0.15303 0.91941 0.71423 0.0
H522 H 0.24525 0.98765 0.79155 0.0
C523 C 0.18095 0.92702 0.67226 0.0
H524 H 0.15776 0.93745 0.79003 0.0
C525 C 0.23182 0.95687 0.67318 0.0
C526 C 0.25572 0.97886 0.71622 0.0
H527 H 0.16359 0.91099 0.63841 0.0
H528 H 0.2519 0.96587 0.63963 0.0
C529 C 0.22804 0.96913 0.7584 0.0
C530 C 0.13154 0.25449 0.76324 0.0
C531 C 0.15281 0.24999 0.72073 0.0
H532 H 0.08212 0.27386 0.79454 0.0
C533 C 0.14552 0.26902 0.67764 0.0
H534 H 0.1354 0.23928 0.79685 0.0
C535 C 0.11564 0.28973 0.67672 0.0
C536 C 0.09268 0.29209 0.71881 0.0
H537 H 0.16154 0.26647 0.64426 0.0
H538 H 0.10685 0.29965 0.6423 0.0
C539 C 0.1018 0.27529 0.76222 0.0
C540 C 0.09067 0.42933 0.24274 0.0
C541 C 0.1183 0.40702 0.23205 0.0
H542 H 0.05336 0.46544 0.21597 0.0
C543 C 0.12927 0.40443 0.18377 0.0
H544 H 0.07883 0.4291 0.27921 0.0
C545 C 0.11373 0.42451 0.14721 0.0
C546 C 0.0858 0.44646 0.15772 0.0
H547 H 0.14922 0.38624 0.17424 0.0
H548 H 0.12247 0.42165 0.11066 0.0
C549 C 0.07505 0.44916 0.20624 0.0
C550 C 0.692 0.70689 0.21794 0.0
C551 C 0.66945 0.73447 0.22784 0.0
H552 H 0.69238 0.65024 0.17686 0.0
C553 C 0.62654 0.72309 0.20274 0.0
H554 H 0.72437 0.71366 0.23717 0.0
C555 C 0.60803 0.68622 0.16719 0.0
C556 C 0.63127 0.65914 0.15741 0.0
H557 H 0.60773 0.74289 0.21022 0.0
H558 H 0.57536 0.67852 0.14782 0.0
C559 C 0.6733 0.66999 0.18348 0.0
C560 C 0.42701 0.97983 0.20628 0.0
C561 C 0.41548 0.98685 0.15926 0.0
H562 H 0.40233 0.95987 0.27909 0.0
C563 C 0.36803 0.97698 0.14975 0.0
H564 H 0.46374 0.98849 0.21496 0.0
C565 C 0.33267 0.96037 0.18613 0.0
C566 C 0.34402 0.95377 0.23336 0.0
H567 H 0.35923 0.98573 0.11513 0.0
H568 H 0.29701 0.95503 0.1778 0.0
C569 C 0.39162 0.96307 0.24289 0.0
C570 C 0.42456 0.09607 0.90998 0.0
C571 C 0.45559 0.07762 0.89931 0.0
H572 H 0.38494 0.12986 0.88383 0.0
C573 C 0.46941 0.07847 0.85134 0.0
H574 H 0.4101 0.09258 0.94584 0.0
C575 C 0.4532 0.09823 0.81516 0.0
C576 C 0.42256 0.11709 0.82608 0.0
H577 H 0.49182 0.06297 0.84175 0.0
H578 H 0.46394 0.09797 0.77859 0.0
C579 C 0.4091 0.11642 0.87413 0.0
C580 C 0.96188 0.39156 0.86478 0.0
C581 C 0.99918 0.39708 0.89598 0.0
H582 H 0.91543 0.35153 0.80519 0.0
C583 C 1.0164 0.36402 0.89207 0.0
H584 H 0.9476 0.41618 0.86717 0.0
C585 C 0.99815 0.32737 0.85731 0.0
C586 C 0.96173 0.32217 0.82525 0.0
H587 H 0.04473 0.36686 0.91584 0.0
H588 H 1.01338 0.30353 0.85507 0.0
C589 C 0.94353 0.35458 0.82941 0.0
C590 C 0.75721 0.69215 0.86521 0.0
C591 C 0.75632 0.66132 0.82861 0.0
H592 H 0.72195 0.70005 0.92722 0.0
C593 C 0.71776 0.61231 0.82828 0.0
H594 H 0.78617 0.73002 0.86668 0.0
C595 C 0.68038 0.59507 0.86313 0.0
C596 C 0.6809 0.62663 0.89873 0.0
H597 H 0.71621 0.58757 0.80072 0.0
H598 H 0.65082 0.55749 0.86181 0.0
C599 C 0.72022 0.67503 0.89981 0.0
C600 C 0.78123 0.75971 0.48307 0.0
C601 C 0.751 0.77908 0.49374 0.0
H602 H 0.8188 0.72352 0.50985 0.0
C603 C 0.7374 0.77868 0.54173 0.0
H604 H 0.79263 0.75988 0.44677 0.0
C605 C 0.75274 0.75841 0.57782 0.0
C606 C 0.78281 0.73888 0.56707 0.0
H607 H 0.71372 0.79275 0.55123 0.0
H608 H 0.73917 0.7559 0.61397 0.0
C609 C 0.79659 0.7393 0.51925 0.0
C610 C 0.33366 1.00143 0.52002 0.0
C611 C 0.29199 0.99173 0.49391 0.0
H612 H 0.38559 0.04469 0.57327 0.0
C613 C 0.27041 1.02049 0.50283 0.0
H614 H 0.35156 0.98044 0.51386 0.0
C615 C 0.29012 0.05784 0.5378 0.0
C616 C 0.33254 0.06789 0.56305 0.0
H617 H 0.2381 1.01367 0.48331 0.0
H618 H 0.27262 0.07904 0.5447 0.0
C619 C 0.35353 0.03876 0.5539 0.0
C620 C 1.02409 0.33769 0.53627 0.0
C621 C 1.00736 0.29274 0.56057 0.0
H622 H 0.07438 0.38993 0.48563 0.0
C623 C 1.02946 0.26489 0.54965 0.0
H624 H 1.00911 0.36094 0.54439 0.0
C625 C 0.06654 0.28129 0.51449 0.0
C626 C 0.08378 0.32689 0.49146 0.0
H627 H 1.01836 0.23075 0.56848 0.0
H628 H 0.0829 0.25922 0.50655 0.0
C629 C 0.062 0.3547 0.50276 0.0
loop_
_geom_bond_atom_site_label_1
_geom_bond_atom_site_label_2
_geom_bond_distance
_geom_bond_site_symmetry_2
_ccdc_geom_bond_type
Pr0 C2 2.880 . S
Pr0 O20 2.562 1_554 S
Pr0 O21 2.490 . S
Pr0 O22 2.695 1_655 S
Pr0 O23 2.512 . S
Pr0 O25 2.437 . S
Pr0 O28 2.436 1_554 S
Pr0 O30 2.438 1_655 S
Pr1 C11 2.880 . S
Pr1 O22 2.436 1_556 S
Pr1 O24 2.438 1_456 S
Pr1 O26 2.562 1_556 S
Pr1 O27 2.490 . S
Pr1 O28 2.695 1_455 S
Pr1 O29 2.512 . S
Pr1 O31 2.437 . S
C2 Pr0 2.880 . S
C2 C3 1.491 . S
C2 O20 1.254 1_554 S
C2 O21 1.225 . S
C3 C2 1.491 . S
C3 C4 1.392 . S
C3 C8 1.356 1_554 S
C4 C3 1.392 . S
C4 C5 1.368 . S
C4 H32 0.929 . S
C5 C4 1.368 . S
C5 C6 1.386 . S
C5 H33 0.929 . S
C6 C5 1.386 . S
C6 C7 1.373 1_554 S
C7 C6 1.373 1_556 S
C7 C8 1.409 . S
C7 H34 0.931 . S
C8 C3 1.356 1_556 S
C8 C7 1.409 . S
C8 H35 0.930 . S
C9 O22 1.270 . S
C9 O23 1.248 1_455 S
C10 O24 1.267 . S
C10 O25 1.278 . S
C11 Pr1 2.880 . S
C11 C12 1.491 . S
C11 O26 1.254 1_556 S
C11 O27 1.225 . S
C12 C11 1.491 . S
C12 C13 1.392 . S
C12 C17 1.356 1_556 S
C13 C12 1.392 . S
C13 C14 1.368 . S
C13 H36 0.929 . S
C14 C13 1.368 . S
C14 C15 1.386 . S
C14 H37 0.929 . S
C15 C14 1.386 . S
C15 C16 1.373 1_556 S
C16 C15 1.373 1_554 S
C16 C17 1.409 . S
C16 H38 0.931 . S
C17 C12 1.356 1_554 S
C17 C16 1.409 . S
C17 H39 0.930 . S
C18 O28 1.270 . S
C18 O29 1.248 1_655 S
C19 O30 1.266 1_556 S
C19 O31 1.278 . S
O20 Pr0 2.562 1_556 S
O20 C2 1.254 1_556 S
O21 Pr0 2.490 . S
O21 C2 1.225 . S
O22 Pr0 2.695 1_455 S
O22 Pr1 2.436 1_554 S
O22 C9 1.270 . S
O23 Pr0 2.512 . S
O23 C9 1.248 1_655 S
O24 Pr1 2.438 1_654 S
O24 C10 1.267 . S
O25 Pr0 2.437 . S
O25 C10 1.278 . S
O26 Pr1 2.562 1_554 S
O26 C11 1.254 1_554 S
O27 Pr1 2.490 . S
O27 C11 1.225 . S
O28 Pr0 2.436 1_556 S
O28 Pr1 2.695 1_655 S
O28 C18 1.270 . S
O29 Pr1 2.512 . S
O29 C18 1.248 1_455 S
O30 Pr0 2.438 1_455 S
O30 C19 1.266 1_554 S
O31 Pr1 2.437 . S
O31 C19 1.278 . S
H32 C4 0.929 . S
H33 C5 0.929 . S
H34 C7 0.931 . S
H35 C8 0.930 . S
H36 C13 0.929 . S
H37 C14 0.929 . S
H38 C16 0.931 . S
H39 C17 0.930 . S
Pr40 C42 2.880 . S
Pr40 O60 2.562 1_554 S
Pr40 O61 2.490 . S
Pr40 O62 2.695 . S
Pr40 O63 2.512 . S
Pr40 O65 2.437 . S
Pr40 O68 2.436 1_554 S
Pr40 O70 2.438 . S
Pr41 C51 2.880 . S
Pr41 O62 2.436 1_556 S
Pr41 O64 2.438 1_556 S
Pr41 O66 2.562 1_556 S
Pr41 O67 2.490 . S
Pr41 O68 2.695 . S
Pr41 O69 2.512 . S
Pr41 O71 2.437 . S
C42 Pr40 2.880 . S
C42 C43 1.491 . S
C42 O60 1.254 1_554 S
C42 O61 1.225 . S
C43 C42 1.491 . S
C43 C44 1.392 . S
C43 C48 1.356 1_554 S
C44 C43 1.392 . S
C44 C45 1.368 . S
C44 H72 0.929 . S
C45 C44 1.368 . S
C45 C46 1.386 . S
C45 H73 0.929 . S
C46 C45 1.386 . S
C46 C47 1.373 1_554 S
C47 C46 1.373 1_556 S
C47 C48 1.409 . S
C47 H74 0.931 . S
C48 C43 1.356 1_556 S
C48 C47 1.409 . S
C48 H75 0.930 . S
C49 O62 1.270 . S
C49 O63 1.248 . S
C50 O64 1.267 . S
C50 O65 1.278 . S
C51 Pr41 2.880 . S
C51 C52 1.491 . S
C51 O66 1.254 1_556 S
C51 O67 1.225 . S
C52 C51 1.491 . S
C52 C53 1.392 . S
C52 C57 1.356 1_556 S
C53 C52 1.392 . S
C53 C54 1.368 . S
C53 H76 0.929 . S
C54 C53 1.368 . S
C54 C55 1.386 . S
C54 H77 0.929 . S
C55 C54 1.386 . S
C55 C56 1.373 1_556 S
C56 C55 1.373 1_554 S
C56 C57 1.409 . S
C56 H78 0.931 . S
C57 C52 1.356 1_554 S
C57 C56 1.409 . S
C57 H79 0.930 . S
C58 O68 1.270 . S
C58 O69 1.248 . S
C59 O70 1.267 1_556 S
C59 O71 1.278 . S
O60 Pr40 2.562 1_556 S
O60 C42 1.254 1_556 S
O61 Pr40 2.490 . S
O61 C42 1.225 . S
O62 Pr40 2.695 . S
O62 Pr41 2.436 1_554 S
O62 C49 1.270 . S
O63 Pr40 2.512 . S
O63 C49 1.248 . S
O64 Pr41 2.438 1_554 S
O64 C50 1.267 . S
O65 Pr40 2.437 . S
O65 C50 1.278 . S
O66 Pr41 2.562 1_554 S
O66 C51 1.254 1_554 S
O67 Pr41 2.490 . S
O67 C51 1.225 . S
O68 Pr40 2.436 1_556 S
O68 Pr41 2.695 . S
O68 C58 1.270 . S
O69 Pr41 2.512 . S
O69 C58 1.248 . S
O70 Pr40 2.438 . S
O70 C59 1.267 1_554 S
O71 Pr41 2.437 . S
O71 C59 1.278 . S
H72 C44 0.929 . S
H73 C45 0.929 . S
H74 C47 0.931 . S
H75 C48 0.930 . S
H76 C53 0.929 . S
H77 C54 0.929 . S
H78 C56 0.931 . S
H79 C57 0.930 . S
Pr80 C82 2.880 . S
Pr80 O100 2.562 1_554 S
Pr80 O101 2.490 . S
Pr80 O102 2.695 1_545 S
Pr80 O103 2.512 . S
Pr80 O105 2.437 . S
Pr80 O108 2.436 1_554 S
Pr80 O110 2.438 1_545 S
Pr81 C91 2.880 . S
Pr81 O102 2.436 1_556 S
Pr81 O104 2.438 1_566 S
Pr81 O106 2.562 1_556 S
Pr81 O107 2.490 . S
Pr81 O108 2.695 1_565 S
Pr81 O109 2.512 . S
Pr81 O111 2.437 . S
C82 Pr80 2.880 . S
C82 C83 1.491 . S
C82 O100 1.254 1_554 S
C82 O101 1.225 . S
C83 C82 1.491 . S
C83 C84 1.392 . S
C83 C88 1.356 1_554 S
C84 C83 1.392 . S
C84 C85 1.368 . S
C84 H112 0.929 . S
C85 C84 1.368 . S
C85 C86 1.386 . S
C85 H113 0.929 . S
C86 C85 1.386 . S
C86 C87 1.373 1_554 S
C87 C86 1.373 1_556 S
C87 C88 1.409 . S
C87 H114 0.931 . S
C88 C83 1.356 1_556 S
C88 C87 1.409 . S
C88 H115 0.930 . S
C89 O102 1.270 . S
C89 O103 1.248 1_565 S
C90 O104 1.267 . S
C90 O105 1.278 . S
C91 Pr81 2.880 . S
C91 C92 1.491 . S
C91 O106 1.254 1_556 S
C91 O107 1.225 . S
C92 C91 1.491 . S
C92 C93 1.392 . S
C92 C97 1.356 1_556 S
C93 C92 1.392 . S
C93 C94 1.368 . S
C93 H116 0.929 . S
C94 C93 1.368 . S
C94 C95 1.386 . S
C94 H117 0.929 . S
C95 C94 1.386 . S
C95 C96 1.373 1_556 S
C96 C95 1.373 1_554 S
C96 C97 1.409 . S
C96 H118 0.931 . S
C97 C92 1.356 1_554 S
C97 C96 1.409 . S
C97 H119 0.930 . S
C98 O108 1.270 . S
C98 O109 1.248 1_545 S
C99 O110 1.267 1_556 S
C99 O111 1.278 . S
O100 Pr80 2.562 1_556 S
O100 C82 1.254 1_556 S
O101 Pr80 2.490 . S
O101 C82 1.225 . S
O102 Pr80 2.695 1_565 S
O102 Pr81 2.436 1_554 S
O102 C89 1.270 . S
O103 Pr80 2.512 . S
O103 C89 1.248 1_545 S
O104 Pr81 2.438 1_544 S
O104 C90 1.267 . S
O105 Pr80 2.437 . S
O105 C90 1.278 . S
O106 Pr81 2.562 1_554 S
O106 C91 1.254 1_554 S
O107 Pr81 2.490 . S
O107 C91 1.225 . S
O108 Pr80 2.436 1_556 S
O108 Pr81 2.695 1_545 S
O108 C98 1.270 . S
O109 Pr81 2.512 . S
O109 C98 1.248 1_565 S
O110 Pr80 2.438 1_565 S
O110 C99 1.267 1_554 S
O111 Pr81 2.437 . S
O111 C99 1.278 . S
H112 C84 0.929 . S
H113 C85 0.929 . S
H114 C87 0.931 . S
H115 C88 0.930 . S
H116 C93 0.929 . S
H117 C94 0.929 . S
H118 C96 0.931 . S
H119 C97 0.930 . S
Pr120 C122 2.880 . S
Pr120 O140 2.562 . S
Pr120 O141 2.490 . S
Pr120 O142 2.695 . S
Pr120 O143 2.512 . S
Pr120 O145 2.437 . S
Pr120 O148 2.436 . S
Pr120 O150 2.438 . S
Pr121 C131 2.880 . S
Pr121 O142 2.436 . S
Pr121 O144 2.438 . S
Pr121 O146 2.562 . S
Pr121 O147 2.490 . S
Pr121 O148 2.695 . S
Pr121 O149 2.512 . S
Pr121 O151 2.437 . S
C122 Pr120 2.880 . S
C122 C123 1.491 . S
C122 O140 1.254 . S
C122 O141 1.225 . S
C123 C122 1.491 . S
C123 C124 1.392 . S
C123 C128 1.356 . S
C124 C123 1.392 . S
C124 C125 1.368 . S
C124 H152 0.929 . S
C125 C124 1.368 . S
C125 C126 1.386 . S
C125 H153 0.929 . S
C126 C125 1.386 . S
C126 C127 1.373 . S
C127 C126 1.373 . S
C127 C128 1.409 . S
C127 H154 0.931 . S
C128 C123 1.356 . S
C128 C127 1.409 . S
C128 H155 0.930 . S
C129 O142 1.270 . S
C129 O143 1.248 . S
C130 O144 1.267 . S
C130 O145 1.278 . S
C131 Pr121 2.880 . S
C131 C132 1.491 . S
C131 O146 1.254 . S
C131 O147 1.225 . S
C132 C131 1.491 . S
C132 C133 1.392 . S
C132 C137 1.356 . S
C133 C132 1.392 . S
C133 C134 1.368 . S
C133 H156 0.929 . S
C134 C133 1.368 . S
C134 C135 1.386 . S
C134 H157 0.929 . S
C135 C134 1.386 . S
C135 C136 1.373 . S
C136 C135 1.373 . S
C136 C137 1.409 . S
C136 H158 0.931 . S
C137 C132 1.356 . S
C137 C136 1.409 . S
C137 H159 0.930 . S
C138 O148 1.270 . S
C138 O149 1.248 . S
C139 O150 1.267 . S
C139 O151 1.278 . S
O140 Pr120 2.562 . S
O140 C122 1.254 . S
O141 Pr120 2.490 . S
O141 C122 1.225 . S
O142 Pr120 2.695 . S
O142 Pr121 2.436 . S
O142 C129 1.270 . S
O143 Pr120 2.512 . S
O143 C129 1.248 . S
O144 Pr121 2.438 . S
O144 C130 1.267 . S
O145 Pr120 2.437 . S
O145 C130 1.278 . S
O146 Pr121 2.562 . S
O146 C131 1.254 . S
O147 Pr121 2.490 . S
O147 C131 1.225 . S
O148 Pr120 2.436 . S
O148 Pr121 2.695 . S
O148 C138 1.270 . S
O149 Pr121 2.512 . S
O149 C138 1.248 . S
O150 Pr120 2.438 . S
O150 C139 1.267 . S
O151 Pr121 2.437 . S
O151 C139 1.278 . S
H152 C124 0.929 . S
H153 C125 0.929 . S
H154 C127 0.931 . S
H155 C128 0.930 . S
H156 C133 0.929 . S
H157 C134 0.929 . S
H158 C136 0.931 . S
H159 C137 0.930 . S
Pr160 C162 2.880 . S
Pr160 O180 2.562 . S
Pr160 O181 2.490 . S
Pr160 O182 2.695 . S
Pr160 O183 2.512 . S
Pr160 O185 2.437 . S
Pr160 O188 2.436 . S
Pr160 O190 2.438 . S
Pr161 C171 2.880 1_565 S
Pr161 O182 2.436 . S
Pr161 O184 2.438 . S
Pr161 O186 2.562 1_565 S
Pr161 O187 2.490 1_565 S
Pr161 O188 2.695 . S
Pr161 O189 2.512 . S
Pr161 O191 2.437 . S
C162 Pr160 2.880 . S
C162 C163 1.491 . S
C162 O180 1.254 . S
C162 O181 1.225 . S
C163 C162 1.491 . S
C163 C164 1.392 . S
C163 C168 1.356 . S
C164 C163 1.392 . S
C164 C165 1.368 . S
C164 H192 0.929 . S
C165 C164 1.368 . S
C165 C166 1.386 . S
C165 H193 0.929 . S
C166 C165 1.386 . S
C166 C167 1.373 . S
C167 C166 1.373 . S
C167 C168 1.409 . S
C167 H194 0.931 . S
C168 C163 1.356 . S
C168 C167 1.409 . S
C168 H195 0.930 . S
C169 O182 1.270 . S
C169 O183 1.248 . S
C170 O184 1.267 . S
C170 O185 1.278 . S
C171 Pr161 2.880 1_545 S
C171 C172 1.491 . S
C171 O186 1.254 . S
C171 O187 1.225 . S
C172 C171 1.491 . S
C172 C173 1.392 . S
C172 C177 1.356 . S
C173 C172 1.392 . S
C173 C174 1.368 . S
C173 H196 0.929 . S
C174 C173 1.368 . S
C174 C175 1.386 . S
C174 H197 0.929 . S
C175 C174 1.386 . S
C175 C176 1.373 . S
C176 C175 1.373 . S
C176 C177 1.409 . S
C176 H198 0.931 . S
C177 C172 1.356 . S
C177 C176 1.409 . S
C177 H199 0.930 . S
C178 O188 1.270 . S
C178 O189 1.248 . S
C179 O190 1.267 . S
C179 O191 1.278 . S
O180 Pr160 2.562 . S
O180 C162 1.254 . S
O181 Pr160 2.490 . S
O181 C162 1.225 . S
O182 Pr160 2.695 . S
O182 Pr161 2.436 . S
O182 C169 1.270 . S
O183 Pr160 2.512 . S
O183 C169 1.248 . S
O184 Pr161 2.438 . S
O184 C170 1.267 . S
O185 Pr160 2.437 . S
O185 C170 1.278 . S
O186 Pr161 2.562 1_545 S
O186 C171 1.254 . S
O187 Pr161 2.490 1_545 S
O187 C171 1.225 . S
O188 Pr160 2.436 . S
O188 Pr161 2.695 . S
O188 C178 1.270 . S
O189 Pr161 2.512 . S
O189 C178 1.248 . S
O190 Pr160 2.438 . S
O190 C179 1.267 . S
O191 Pr161 2.437 . S
O191 C179 1.278 . S
H192 C164 0.929 . S
H193 C165 0.929 . S
H194 C167 0.931 . S
H195 C168 0.930 . S
H196 C173 0.929 . S
H197 C174 0.929 . S
H198 C176 0.931 . S
H199 C177 0.930 . S
Pr200 C202 2.880 . S
Pr200 O220 2.562 . S
Pr200 O221 2.490 . S
Pr200 O222 2.695 . S
Pr200 O223 2.512 . S
Pr200 O225 2.437 . S
Pr200 O228 2.436 . S
Pr200 O230 2.438 . S
Pr201 C211 2.880 1_455 S
Pr201 O222 2.436 . S
Pr201 O224 2.438 . S
Pr201 O226 2.566 . S
Pr201 O227 2.490 1_455 S
Pr201 O228 2.695 . S
Pr201 O229 2.512 . S
Pr201 O231 2.437 . S
C202 Pr200 2.880 . S
C202 C203 1.491 . S
C202 O220 1.254 . S
C202 O221 1.225 . S
C203 C202 1.491 . S
C203 C204 1.392 . S
C203 C208 1.356 . S
C204 C203 1.392 . S
C204 C205 1.368 . S
C204 H232 0.929 . S
C205 C204 1.368 . S
C205 C206 1.386 . S
C205 H233 0.929 . S
C206 C205 1.386 . S
C206 C207 1.373 . S
C207 C206 1.373 . S
C207 C208 1.409 . S
C207 H234 0.931 . S
C208 C203 1.356 . S
C208 C207 1.409 . S
C208 H235 0.930 . S
C209 O222 1.270 . S
C209 O223 1.248 . S
C210 O224 1.267 . S
C210 O225 1.278 . S
C211 Pr201 2.880 1_655 S
C211 C212 1.491 . S
C211 O226 1.243 1_655 S
C211 O227 1.225 . S
C212 C211 1.491 . S
C212 C213 1.392 . S
C212 C217 1.356 . S
C213 C212 1.392 . S
C213 C214 1.368 . S
C213 H236 0.929 . S
C214 C213 1.368 . S
C214 C215 1.386 . S
C214 H237 0.929 . S
C215 C214 1.386 . S
C215 C216 1.373 . S
C216 C215 1.373 . S
C216 C217 1.409 . S
C216 H238 0.931 . S
C217 C212 1.356 . S
C217 C216 1.409 . S
C217 H239 0.930 . S
C218 O228 1.270 . S
C218 O229 1.248 . S
C219 O230 1.267 . S
C219 O231 1.278 . S
O220 Pr200 2.562 . S
O220 C202 1.254 . S
O221 Pr200 2.490 . S
O221 C202 1.225 . S
O222 Pr200 2.695 . S
O222 Pr201 2.436 . S
O222 C209 1.270 . S
O223 Pr200 2.512 . S
O223 C209 1.248 . S
O224 Pr201 2.438 . S
O224 C210 1.267 . S
O225 Pr200 2.437 . S
O225 C210 1.278 . S
O226 Pr201 2.566 . S
O226 C211 1.243 1_455 S
O227 Pr201 2.490 1_655 S
O227 C211 1.225 . S
O228 Pr200 2.436 . S
O228 Pr201 2.695 . S
O228 C218 1.270 . S
O229 Pr201 2.512 . S
O229 C218 1.248 . S
O230 Pr200 2.438 . S
O230 C219 1.267 . S
O231 Pr201 2.437 . S
O231 C219 1.278 . S
H232 C204 0.929 . S
H233 C205 0.929 . S
H234 C207 0.931 . S
H235 C208 0.930 . S
H236 C213 0.929 . S
H237 C214 0.929 . S
H238 C216 0.931 . S
H239 C217 0.930 . S
Pr240 C242 2.880 . S
Pr240 O260 2.562 . S
Pr240 O261 2.490 . S
Pr240 O262 2.695 . S
Pr240 O263 2.512 . S
Pr240 O265 2.437 . S
Pr240 O268 2.436 . S
Pr240 O270 2.438 . S
Pr241 C251 2.880 . S
Pr241 O262 2.436 . S
Pr241 O264 2.438 . S
Pr241 O266 2.562 . S
Pr241 O267 2.490 . S
Pr241 O268 2.695 . S
Pr241 O269 2.512 . S
Pr241 O271 2.437 . S
C242 Pr240 2.880 . S
C242 C243 1.491 . S
C242 O260 1.254 . S
C242 O261 1.225 . S
C243 C242 1.491 . S
C243 C244 1.392 . S
C243 C248 1.356 . S
C244 C243 1.392 . S
C244 C245 1.368 . S
C244 H272 0.929 . S
C245 C244 1.368 . S
C245 C246 1.386 . S
C245 H273 0.929 . S
C246 C245 1.386 . S
C246 C247 1.373 . S
C247 C246 1.373 . S
C247 C248 1.409 . S
C247 H274 0.931 . S
C248 C243 1.356 . S
C248 C247 1.409 . S
C248 H275 0.930 . S
C249 O262 1.270 . S
C249 O263 1.248 . S
C250 O264 1.267 . S
C250 O265 1.278 . S
C251 Pr241 2.880 . S
C251 C252 1.491 . S
C251 O266 1.254 . S
C251 O267 1.225 . S
C252 C251 1.491 . S
C252 C253 1.392 . S
C252 C257 1.356 . S
C253 C252 1.392 . S
C253 C254 1.368 . S
C253 H276 0.929 . S
C254 C253 1.368 . S
C254 C255 1.386 . S
C254 H277 0.929 . S
C255 C254 1.386 . S
C255 C256 1.373 . S
C256 C255 1.373 . S
C256 C257 1.409 . S
C256 H278 0.931 . S
C257 C252 1.356 . S
C257 C256 1.409 . S
C257 H279 0.930 . S
C258 O268 1.270 . S
C258 O269 1.248 . S
C259 O270 1.267 . S
C259 O271 1.278 . S
O260 Pr240 2.562 . S
O260 C242 1.254 . S
O261 Pr240 2.490 . S
O261 C242 1.225 . S
O262 Pr240 2.695 . S
O262 Pr241 2.436 . S
O262 C249 1.270 . S
O263 Pr240 2.512 . S
O263 C249 1.248 . S
O264 Pr241 2.438 . S
O264 C250 1.267 . S
O265 Pr240 2.437 . S
O265 C250 1.278 . S
O266 Pr241 2.562 . S
O266 C251 1.254 . S
O267 Pr241 2.490 . S
O267 C251 1.225 . S
O268 Pr240 2.436 . S
O268 Pr241 2.695 . S
O268 C258 1.270 . S
O269 Pr241 2.512 . S
O269 C258 1.248 . S
O270 Pr240 2.438 . S
O270 C259 1.267 . S
O271 Pr241 2.437 . S
O271 C259 1.278 . S
H272 C244 0.929 . S
H273 C245 0.929 . S
H274 C247 0.931 . S
H275 C248 0.930 . S
H276 C253 0.929 . S
H277 C254 0.929 . S
H278 C256 0.931 . S
H279 C257 0.930 . S
Pr280 C282 2.880 . S
Pr280 O300 2.562 . S
Pr280 O301 2.490 . S
Pr280 O302 2.695 . S
Pr280 O303 2.512 . S
Pr280 O305 2.437 . S
Pr280 O308 2.436 . S
Pr280 O310 2.438 . S
Pr281 C291 2.880 . S
Pr281 O302 2.436 . S
Pr281 O304 2.438 . S
Pr281 O306 2.562 . S
Pr281 O307 2.490 . S
Pr281 O308 2.695 . S
Pr281 O309 2.512 . S
Pr281 O311 2.437 . S
C282 Pr280 2.880 . S
C282 C283 1.491 . S
C282 O300 1.254 . S
C282 O301 1.225 . S
C283 C282 1.491 . S
C283 C284 1.392 . S
C283 C288 1.356 . S
C284 C283 1.392 . S
C284 C285 1.368 1_545 S
C284 H312 0.929 . S
C285 C284 1.368 1_565 S
C285 C286 1.386 . S
C285 H313 0.929 . S
C286 C285 1.386 . S
C286 C287 1.373 . S
C287 C286 1.373 . S
C287 C288 1.409 1_565 S
C287 H314 0.931 . S
C288 C283 1.356 . S
C288 C287 1.409 1_545 S
C288 H315 0.930 . S
C289 O302 1.270 . S
C289 O303 1.248 . S
C290 O304 1.267 . S
C290 O305 1.278 . S
C291 Pr281 2.880 . S
C291 C292 1.491 . S
C291 O306 1.254 . S
C291 O307 1.225 . S
C292 C291 1.491 . S
C292 C293 1.392 . S
C292 C297 1.356 . S
C293 C292 1.392 . S
C293 C294 1.368 . S
C293 H316 0.929 . S
C294 C293 1.368 . S
C294 C295 1.386 . S
C294 H317 0.929 . S
C295 C294 1.386 . S
C295 C296 1.373 . S
C296 C295 1.373 . S
C296 C297 1.409 . S
C296 H318 0.931 . S
C297 C292 1.356 . S
C297 C296 1.409 . S
C297 H319 0.930 . S
C298 O308 1.270 . S
C298 O309 1.248 . S
C299 O310 1.267 . S
C299 O311 1.278 . S
O300 Pr280 2.562 . S
O300 C282 1.254 . S
O301 Pr280 2.490 . S
O301 C282 1.225 . S
O302 Pr280 2.695 . S
O302 Pr281 2.436 . S
O302 C289 1.270 . S
O303 Pr280 2.512 . S
O303 C289 1.248 . S
O304 Pr281 2.438 . S
O304 C290 1.267 . S
O305 Pr280 2.437 . S
O305 C290 1.278 . S
O306 Pr281 2.562 . S
O306 C291 1.254 . S
O307 Pr281 2.490 . S
O307 C291 1.225 . S
O308 Pr280 2.436 . S
O308 Pr281 2.695 . S
O308 C298 1.270 . S
O309 Pr281 2.512 . S
O309 C298 1.248 . S
O310 Pr280 2.438 . S
O310 C299 1.267 . S
O311 Pr281 2.437 . S
O311 C299 1.278 . S
H312 C284 0.929 . S
H313 C285 0.929 . S
H314 C287 0.931 . S
H315 C288 0.930 . S
H316 C293 0.929 . S
H317 C294 0.929 . S
H318 C296 0.931 . S
H319 C297 0.930 . S
Pr320 C322 2.880 . S
Pr320 O340 2.562 . S
Pr320 O341 2.490 . S
Pr320 O342 2.695 . S
Pr320 O343 2.512 . S
Pr320 O345 2.437 . S
Pr320 O348 2.436 . S
Pr320 O350 2.438 . S
Pr321 C331 2.880 . S
Pr321 O342 2.436 . S
Pr321 O344 2.438 . S
Pr321 O346 2.562 . S
Pr321 O347 2.490 . S
Pr321 O348 2.695 . S
Pr321 O349 2.512 . S
Pr321 O351 2.437 . S
C322 Pr320 2.880 . S
C322 C323 1.491 . S
C322 O340 1.254 . S
C322 O341 1.225 . S
C323 C322 1.491 . S
C323 C324 1.392 . S
C323 C328 1.356 . S
C324 C323 1.392 . S
C324 C325 1.368 1_655 S
C324 H352 0.929 . S
C325 C324 1.368 1_455 S
C325 C326 1.386 . S
C325 H353 0.929 . S
C326 C325 1.386 . S
C326 C327 1.373 . S
C327 C326 1.373 . S
C327 C328 1.409 1_455 S
C327 H354 0.931 . S
C328 C323 1.356 . S
C328 C327 1.409 1_655 S
C328 H355 0.930 . S
C329 O342 1.270 . S
C329 O343 1.248 . S
C330 O344 1.267 . S
C330 O345 1.278 . S
C331 Pr321 2.880 . S
C331 C332 1.491 . S
C331 O346 1.254 . S
C331 O347 1.225 . S
C332 C331 1.491 . S
C332 C333 1.392 . S
C332 C337 1.356 . S
C333 C332 1.392 . S
C333 C334 1.368 . S
C333 H356 0.929 . S
C334 C333 1.368 . S
C334 C335 1.386 . S
C334 H357 0.929 . S
C335 C334 1.386 . S
C335 C336 1.373 . S
C336 C335 1.373 . S
C336 C337 1.409 . S
C336 H358 0.931 . S
C337 C332 1.356 . S
C337 C336 1.409 . S
C337 H359 0.930 . S
C338 O348 1.270 . S
C338 O349 1.248 . S
C339 O350 1.267 . S
C339 O351 1.278 . S
O340 Pr320 2.562 . S
O340 C322 1.254 . S
O341 Pr320 2.490 . S
O341 C322 1.225 . S
O342 Pr320 2.695 . S
O342 Pr321 2.436 . S
O342 C329 1.270 . S
O343 Pr320 2.512 . S
O343 C329 1.248 . S
O344 Pr321 2.438 . S
O344 C330 1.267 . S
O345 Pr320 2.437 . S
O345 C330 1.278 . S
O346 Pr321 2.562 . S
O346 C331 1.254 . S
O347 Pr321 2.490 . S
O347 C331 1.225 . S
O348 Pr320 2.436 . S
O348 Pr321 2.695 . S
O348 C338 1.270 . S
O349 Pr321 2.512 . S
O349 C338 1.248 . S
O350 Pr320 2.438 . S
O350 C339 1.267 . S
O351 Pr321 2.437 . S
O351 C339 1.278 . S
H352 C324 0.929 . S
H353 C325 0.929 . S
H354 C327 0.931 . S
H355 C328 0.930 . S
H356 C333 0.929 . S
H357 C334 0.929 . S
H358 C336 0.931 . S
H359 C337 0.930 . S
C360 C361 1.387 1_554 S
C360 H364 0.950 . S
C360 C369 1.390 . S
C361 C360 1.387 1_556 S
C361 C363 1.387 . S
H362 C369 0.950 . S
C363 C361 1.387 . S
C363 C365 1.390 . S
C363 H367 0.950 . S
H364 C360 0.950 . S
C365 C363 1.390 . S
C365 C366 1.387 . S
C365 H368 0.950 . S
C366 C365 1.387 . S
C366 C369 1.387 1_556 S
H367 C363 0.950 . S
H368 C365 0.950 . S
C369 C360 1.390 . S
C369 H362 0.950 . S
C369 C366 1.387 1_554 S
C370 C371 1.387 1_554 S
C370 H374 0.950 . S
C370 C379 1.390 . S
C371 C370 1.387 1_556 S
C371 C373 1.387 . S
H372 C379 0.950 . S
C373 C371 1.387 . S
C373 C375 1.390 . S
C373 H377 0.950 . S
H374 C370 0.950 . S
C375 C373 1.390 . S
C375 C376 1.387 . S
C375 H378 0.950 . S
C376 C375 1.387 . S
C376 C379 1.387 1_556 S
H377 C373 0.950 . S
H378 C375 0.950 . S
C379 C370 1.390 . S
C379 H372 0.950 . S
C379 C376 1.387 1_554 S
C380 C381 1.387 . S
C380 H384 0.950 . S
C380 C389 1.390 . S
C381 C380 1.387 . S
C381 C383 1.387 1_556 S
H382 C389 0.950 . S
C383 C381 1.387 1_554 S
C383 C385 1.390 . S
C383 H387 0.950 . S
H384 C380 0.950 . S
C385 C383 1.390 . S
C385 C386 1.387 1_554 S
C385 H388 0.950 . S
C386 C385 1.387 1_556 S
C386 C389 1.387 . S
H387 C383 0.950 . S
H388 C385 0.950 . S
C389 C380 1.390 . S
C389 H382 0.950 . S
C389 C386 1.387 . S
C390 C391 1.387 . S
C390 H394 0.950 . S
C390 C399 1.390 . S
C391 C390 1.387 . S
C391 C393 1.387 1_554 S
H392 C399 0.950 . S
C393 C391 1.387 1_556 S
C393 C395 1.390 . S
C393 H397 0.950 . S
H394 C390 0.950 . S
C395 C393 1.390 . S
C395 C396 1.387 1_556 S
C395 H398 0.950 . S
C396 C395 1.387 1_554 S
C396 C399 1.387 . S
H397 C393 0.950 . S
H398 C395 0.950 . S
C399 C390 1.390 . S
C399 H392 0.950 . S
C399 C396 1.387 . S
C400 C401 1.387 . S
C400 H404 0.950 . S
C400 C409 1.390 . S
C401 C400 1.387 . S
C401 C403 1.387 1_554 S
H402 C409 0.950 . S
C403 C401 1.387 1_556 S
C403 C405 1.390 . S
C403 H407 0.950 . S
H404 C400 0.950 . S
C405 C403 1.390 . S
C405 C406 1.387 1_556 S
C405 H408 0.950 . S
C406 C405 1.387 1_554 S
C406 C409 1.387 . S
H407 C403 0.950 . S
H408 C405 0.950 . S
C409 C400 1.390 . S
C409 H402 0.950 . S
C409 C406 1.387 . S
C410 C411 1.387 1_556 S
C410 H414 0.950 . S
C410 C419 1.390 . S
C411 C410 1.387 1_554 S
C411 C413 1.387 . S
H412 C419 0.950 . S
C413 C411 1.387 . S
C413 C415 1.390 . S
C413 H417 0.950 . S
H414 C410 0.950 . S
C415 C413 1.390 . S
C415 C416 1.387 . S
C415 H418 0.950 . S
C416 C415 1.387 . S
C416 C419 1.387 1_554 S
H417 C413 0.950 . S
H418 C415 0.950 . S
C419 C410 1.390 . S
C419 H412 0.950 . S
C419 C416 1.387 1_556 S
C420 C421 1.387 1_455 S
C420 H424 0.950 . S
C420 C429 1.390 . S
C421 C420 1.387 1_655 S
C421 C423 1.387 1_655 S
H422 C429 0.950 . S
C423 C421 1.387 1_455 S
C423 C425 1.390 . S
C423 H427 0.950 1_455 S
H424 C420 0.950 . S
C425 C423 1.390 . S
C425 C426 1.387 . S
C425 H428 0.950 . S
C426 C425 1.387 . S
C426 C429 1.387 . S
H427 C423 0.950 1_655 S
H428 C425 0.950 . S
C429 C420 1.390 . S
C429 H422 0.950 . S
C429 C426 1.387 . S
C430 C431 1.387 . S
C430 H434 0.950 . S
C430 C439 1.390 . S
C431 C430 1.387 . S
C431 C433 1.387 . S
H432 C439 0.950 . S
C433 C431 1.387 . S
C433 C435 1.390 . S
C433 H437 0.950 . S
H434 C430 0.950 . S
C435 C433 1.390 . S
C435 C436 1.387 . S
C435 H438 0.950 . S
C436 C435 1.387 . S
C436 C439 1.387 . S
H437 C433 0.950 . S
H438 C435 0.950 . S
C439 C430 1.390 . S
C439 H432 0.950 . S
C439 C436 1.387 . S
C440 C441 1.387 1_565 S
C440 H444 0.950 1_565 S
C440 C449 1.390 . S
C441 C440 1.387 1_545 S
C441 C443 1.387 1_545 S
H442 C449 0.950 . S
C443 C441 1.387 1_565 S
C443 C445 1.390 . S
C443 H447 0.950 1_565 S
H444 C440 0.950 1_545 S
C445 C443 1.390 . S
C445 C446 1.387 . S
C445 H448 0.950 . S
C446 C445 1.387 . S
C446 C449 1.387 . S
H447 C443 0.950 1_545 S
H448 C445 0.950 . S
C449 C440 1.390 . S
C449 H442 0.950 . S
C449 C446 1.387 . S
C450 C451 1.387 . S
C450 H454 0.950 . S
C450 C459 1.390 . S
C451 C450 1.387 . S
C451 C453 1.387 . S
H452 C459 0.950 . S
C453 C451 1.387 . S
C453 C455 1.390 . S
C453 H457 0.950 . S
H454 C450 0.950 . S
C455 C453 1.390 . S
C455 C456 1.387 . S
C455 H458 0.950 . S
C456 C455 1.387 . S
C456 C459 1.387 . S
H457 C453 0.950 . S
H458 C455 0.950 . S
C459 C450 1.390 . S
C459 H452 0.950 . S
C459 C456 1.387 . S
C460 C461 1.387 . S
C460 H464 0.950 . S
C460 C469 1.390 . S
C461 C460 1.387 . S
C461 C463 1.387 . S
H462 C469 0.950 . S
C463 C461 1.387 . S
C463 C465 1.390 . S
C463 H467 0.950 . S
H464 C460 0.950 . S
C465 C463 1.390 . S
C465 C466 1.387 . S
C465 H468 0.950 . S
C466 C465 1.387 . S
C466 C469 1.387 . S
H467 C463 0.950 . S
H468 C465 0.950 . S
C469 C460 1.390 . S
C469 H462 0.950 . S
C469 C466 1.387 . S
C470 C471 1.387 . S
C470 H474 0.950 . S
C470 C479 1.390 . S
C471 C470 1.387 . S
C471 C473 1.387 . S
H472 C479 0.950 . S
C473 C471 1.387 . S
C473 C475 1.390 . S
C473 H477 0.950 . S
H474 C470 0.950 . S
C475 C473 1.390 . S
C475 C476 1.387 . S
C475 H478 0.950 . S
C476 C475 1.387 . S
C476 C479 1.387 . S
H477 C473 0.950 . S
H478 C475 0.950 . S
C479 C470 1.390 . S
C479 H472 0.950 . S
C479 C476 1.387 . S
C480 C481 1.387 . S
C480 H484 0.950 . S
C480 C489 1.390 . S
C481 C480 1.387 . S
C481 C483 1.387 . S
H482 C489 0.950 . S
C483 C481 1.387 . S
C483 C485 1.390 . S
C483 H487 0.950 . S
H484 C480 0.950 . S
C485 C483 1.390 . S
C485 C486 1.387 . S
C485 H488 0.950 . S
C486 C485 1.387 . S
C486 C489 1.387 . S
H487 C483 0.950 . S
H488 C485 0.950 . S
C489 C480 1.390 . S
C489 H482 0.950 . S
C489 C486 1.387 . S
C490 C491 1.387 . S
C490 H494 0.950 . S
C490 C499 1.390 . S
C491 C490 1.387 . S
C491 C493 1.387 . S
H492 C499 0.950 . S
C493 C491 1.387 . S
C493 C495 1.390 . S
C493 H497 0.950 . S
H494 C490 0.950 . S
C495 C493 1.390 . S
C495 C496 1.387 . S
C495 H498 0.950 . S
C496 C495 1.387 . S
C496 C499 1.387 . S
H497 C493 0.950 . S
H498 C495 0.950 . S
C499 C490 1.390 . S
C499 H492 0.950 . S
C499 C496 1.387 . S
C500 C501 1.387 . S
C500 H504 0.950 . S
C500 C509 1.390 . S
C501 C500 1.387 . S
C501 C503 1.387 . S
H502 C509 0.950 . S
C503 C501 1.387 . S
C503 C505 1.390 . S
C503 H507 0.950 . S
H504 C500 0.950 . S
C505 C503 1.390 . S
C505 C506 1.387 . S
C505 H508 0.950 . S
C506 C505 1.387 . S
C506 C509 1.387 . S
H507 C503 0.950 . S
H508 C505 0.950 . S
C509 C500 1.390 . S
C509 H502 0.950 . S
C509 C506 1.387 . S
C510 C511 1.387 . S
C510 H514 0.950 . S
C510 C519 1.390 . S
C511 C510 1.387 . S
C511 C513 1.387 . S
H512 C519 0.950 . S
C513 C511 1.387 . S
C513 C515 1.390 . S
C513 H517 0.950 . S
H514 C510 0.950 . S
C515 C513 1.390 . S
C515 C516 1.387 . S
C515 H518 0.950 . S
C516 C515 1.387 . S
C516 C519 1.387 . S
H517 C513 0.950 . S
H518 C515 0.950 . S
C519 C510 1.390 . S
C519 H512 0.950 . S
C519 C516 1.387 . S
C520 C521 1.390 . S
C520 H524 0.945 1_565 S
C520 C529 1.393 1_565 S
C521 C520 1.390 . S
C521 C523 1.387 . S
H522 C529 0.950 . S
C523 C521 1.387 . S
C523 C525 1.390 . S
C523 H527 0.950 . S
H524 C520 0.945 1_545 S
C525 C523 1.390 . S
C525 C526 1.387 1_565 S
C525 H528 0.950 . S
C526 C525 1.387 1_545 S
C526 C529 1.387 . S
H527 C523 0.950 . S
H528 C525 0.950 . S
C529 C520 1.393 1_545 S
C529 H522 0.950 . S
C529 C526 1.387 . S
C530 C531 1.387 . S
C530 H534 0.950 . S
C530 C539 1.390 . S
C531 C530 1.387 . S
C531 C533 1.387 . S
H532 C539 0.950 . S
C533 C531 1.387 . S
C533 C535 1.390 . S
C533 H537 0.950 . S
H534 C530 0.950 . S
C535 C533 1.390 . S
C535 C536 1.387 . S
C535 H538 0.950 . S
C536 C535 1.387 . S
C536 C539 1.387 . S
H537 C533 0.950 . S
H538 C535 0.950 . S
C539 C530 1.390 . S
C539 H532 0.950 . S
C539 C536 1.387 . S
C540 C541 1.387 . S
C540 H544 0.950 . S
C540 C549 1.390 . S
C541 C540 1.387 . S
C541 C543 1.387 . S
H542 C549 0.950 . S
C543 C541 1.387 . S
C543 C545 1.390 . S
C543 H547 0.950 . S
H544 C540 0.950 . S
C545 C543 1.390 . S
C545 C546 1.387 . S
C545 H548 0.950 . S
C546 C545 1.387 . S
C546 C549 1.387 . S
H547 C543 0.950 . S
H548 C545 0.950 . S
C549 C540 1.390 . S
C549 H542 0.950 . S
C549 C546 1.387 . S
C550 C551 1.387 . S
C550 H554 0.950 . S
C550 C559 1.390 . S
C551 C550 1.387 . S
C551 C553 1.387 . S
H552 C559 0.950 . S
C553 C551 1.387 . S
C553 C555 1.390 . S
C553 H557 0.950 . S
H554 C550 0.950 . S
C555 C553 1.390 . S
C555 C556 1.387 . S
C555 H558 0.950 . S
C556 C555 1.387 . S
C556 C559 1.387 . S
H557 C553 0.950 . S
H558 C555 0.950 . S
C559 C550 1.390 . S
C559 H552 0.950 . S
C559 C556 1.387 . S
C560 C561 1.387 . S
C560 H564 0.950 . S
C560 C569 1.390 . S
C561 C560 1.387 . S
C561 C563 1.387 . S
H562 C569 0.950 . S
C563 C561 1.387 . S
C563 C565 1.390 . S
C563 H567 0.950 . S
H564 C560 0.950 . S
C565 C563 1.390 . S
C565 C566 1.387 . S
C565 H568 0.950 . S
C566 C565 1.387 . S
C566 C569 1.387 . S
H567 C563 0.950 . S
H568 C565 0.950 . S
C569 C560 1.390 . S
C569 H562 0.950 . S
C569 C566 1.387 . S
C570 C571 1.387 . S
C570 H574 0.950 . S
C570 C579 1.390 . S
C571 C570 1.387 . S
C571 C573 1.387 . S
H572 C579 0.950 . S
C573 C571 1.387 . S
C573 C575 1.390 . S
C573 H577 0.950 . S
H574 C570 0.950 . S
C575 C573 1.390 . S
C575 C576 1.387 . S
C575 H578 0.950 . S
C576 C575 1.387 . S
C576 C579 1.387 . S
H577 C573 0.950 . S
H578 C575 0.950 . S
C579 C570 1.390 . S
C579 H572 0.950 . S
C579 C576 1.387 . S
C580 C581 1.387 . S
C580 H584 0.950 . S
C580 C589 1.390 . S
C581 C580 1.387 . S
C581 C583 1.387 . S
H582 C589 0.950 . S
C583 C581 1.387 . S
C583 C585 1.390 . S
C583 H587 0.950 1_655 S
H584 C580 0.950 . S
C585 C583 1.390 . S
C585 C586 1.387 . S
C585 H588 0.950 . S
C586 C585 1.387 . S
C586 C589 1.387 . S
H587 C583 0.950 1_455 S
H588 C585 0.950 . S
C589 C580 1.390 . S
C589 H582 0.950 . S
C589 C586 1.387 . S
C590 C591 1.387 . S
C590 H594 0.950 . S
C590 C599 1.390 . S
C591 C590 1.387 . S
C591 C593 1.387 . S
H592 C599 0.950 . S
C593 C591 1.387 . S
C593 C595 1.390 . S
C593 H597 0.950 . S
H594 C590 0.950 . S
C595 C593 1.390 . S
C595 C596 1.387 . S
C595 H598 0.950 . S
C596 C595 1.387 . S
C596 C599 1.387 . S
H597 C593 0.950 . S
H598 C595 0.950 . S
C599 C590 1.390 . S
C599 H592 0.950 . S
C599 C596 1.387 . S
C600 C601 1.387 . S
C600 H604 0.950 . S
C600 C609 1.390 . S
C601 C600 1.387 . S
C601 C603 1.387 . S
H602 C609 0.950 . S
C603 C601 1.387 . S
C603 C605 1.390 . S
C603 H607 0.950 . S
H604 C600 0.950 . S
C605 C603 1.390 . S
C605 C606 1.387 . S
C605 H608 0.950 . S
C606 C605 1.387 . S
C606 C609 1.387 . S
H607 C603 0.950 . S
H608 C605 0.950 . S
C609 C600 1.390 . S
C609 H602 0.950 . S
C609 C606 1.387 . S
C610 C611 1.387 . S
C610 H614 0.950 . S
C610 C619 1.390 1_565 S
C611 C610 1.387 . S
C611 C613 1.387 . S
H612 C619 0.950 . S
C613 C611 1.387 . S
C613 C615 1.390 1_565 S
C613 H617 0.950 . S
H614 C610 0.950 . S
C615 C613 1.390 1_545 S
C615 C616 1.387 . S
C615 H618 0.950 . S
C616 C615 1.387 . S
C616 C619 1.387 . S
H617 C613 0.950 . S
H618 C615 0.950 . S
C619 C610 1.390 1_545 S
C619 H612 0.950 . S
C619 C616 1.387 . S
C620 C621 1.387 . S
C620 H624 0.950 . S
C620 C629 1.390 1_655 S
C621 C620 1.387 . S
C621 C623 1.387 . S
H622 C629 0.950 . S
C623 C621 1.387 . S
C623 C625 1.390 1_655 S
C623 H627 0.950 . S
H624 C620 0.950 . S
C625 C623 1.390 1_455 S
C625 C626 1.387 . S
C625 H628 0.950 . S
C626 C625 1.387 . S
C626 C629 1.387 . S
H627 C623 0.950 . S
H628 C625 0.950 . S
C629 C620 1.390 1_455 S
C629 H622 0.950 . S
C629 C626 1.387 . S
C361 C59 1.515 . S
C366 C15 1.592 . S
C371 C99 1.515 . S
C376 C55 1.591 . S
C381 C95 1.594 . S
C386 C19 1.519 . S
C391 C90 1.785 . S
C396 C46 1.705 . S
C401 C86 1.705 . S
C406 C10 1.785 . S
C411 C6 1.701 . S
C416 C50 1.782 . S
C421 C135 1.594 . S
C426 C179 1.519 . S
C431 C219 1.519 . S
C436 C175 1.594 . S
C441 C215 1.592 . S
C446 C139 1.515 . S
C451 C166 1.701 . S
C456 C210 1.783 . S
C461 C206 1.705 . S
C466 C130 1.785 . S
C471 C170 1.784 . S
C476 C126 1.703 . S
C481 C299 1.515 . S
C486 C255 1.592 . S
C491 C295 1.594 . S
C496 C339 1.519 . S
C501 C335 1.594 . S
C506 C259 1.519 . S
C511 C330 1.783 . S
C516 C286 1.701 . S
C521 C326 1.705 . S
C526 C250 1.785 . S
C531 C246 1.705 . S
C536 C290 1.785 1_455 S
C541 C218 2.326 . S
C546 C9 2.738 . S
C551 C138 2.330 . S
C556 C49 2.739 . S
C561 C89 2.739 . S
C566 C178 2.328 . S
C571 C98 2.326 . S
C576 C249 2.738 . S
C581 C18 2.327 . S
C586 C289 2.737 . S
C591 C329 2.739 . S
C596 C58 2.329 . S
C601 C129 2.738 . S
C606 C338 2.329 . S
C611 C169 2.739 . S
C616 C258 2.330 . S
C621 C298 2.330 . S
C626 C209 2.739 . S
