# Generated by pormake.
# Topology gsi, (4)-cn, num edge types: 1
# Building blocks:
#     Node 0, Type 0, BuildingBlock: QUQFOY_clean_sbu_1, # of connection points: 4
#     Node 1, Type 0, BuildingBlock: QUQFOY_clean_sbu_1, # of connection points: 4
#     Node 2, Type 0, BuildingBlock: QUQFOY_clean_sbu_1, # of connection points: 4
#     Node 3, Type 0, BuildingBlock: QUQFOY_clean_sbu_1, # of connection points: 4
#     Node 4, Type 0, BuildingBlock: QUQFOY_clean_sbu_1, # of connection points: 4
#     Node 5, Type 0, BuildingBlock: QUQFOY_clean_sbu_1, # of connection points: 4
#     Node 6, Type 0, BuildingBlock: QUQFOY_clean_sbu_1, # of connection points: 4
#     Node 7, Type 0, BuildingBlock: QUQFOY_clean_sbu_1, # of connection points: 4
#     Node 8, Type 0, BuildingBlock: QUQFOY_clean_sbu_1, # of connection points: 4
#     Node 9, Type 0, BuildingBlock: QUQFOY_clean_sbu_1, # of connection points: 4
#     Node 10, Type 0, BuildingBlock: QUQFOY_clean_sbu_1, # of connection points: 4
#     Node 11, Type 0, BuildingBlock: QUQFOY_clean_sbu_1, # of connection points: 4
#     Node 12, Type 0, BuildingBlock: QUQFOY_clean_sbu_1, # of connection points: 4
#     Node 13, Type 0, BuildingBlock: QUQFOY_clean_sbu_1, # of connection points: 4
#     Node 14, Type 0, BuildingBlock: QUQFOY_clean_sbu_1, # of connection points: 4
#     Node 15, Type 0, BuildingBlock: QUQFOY_clean_sbu_1, # of connection points: 4
#     Edge 16, Type (0, 0), BuildingBlock: XIVTED_clean_linker_0, # of connection points: 2
#     Edge 17, Type (0, 0), BuildingBlock: XIVTED_clean_linker_0, # of connection points: 2
#     Edge 18, Type (0, 0), BuildingBlock: XIVTED_clean_linker_0, # of connection points: 2
#     Edge 19, Type (0, 0), BuildingBlock: XIVTED_clean_linker_0, # of connection points: 2
#     Edge 20, Type (0, 0), BuildingBlock: XIVTED_clean_linker_0, # of connection points: 2
#     Edge 21, Type (0, 0), BuildingBlock: XIVTED_clean_linker_0, # of connection points: 2
#     Edge 22, Type (0, 0), BuildingBlock: XIVTED_clean_linker_0, # of connection points: 2
#     Edge 23, Type (0, 0), BuildingBlock: XIVTED_clean_linker_0, # of connection points: 2
#     Edge 24, Type (0, 0), BuildingBlock: XIVTED_clean_linker_0, # of connection points: 2
#     Edge 25, Type (0, 0), BuildingBlock: XIVTED_clean_linker_0, # of connection points: 2
#     Edge 26, Type (0, 0), BuildingBlock: XIVTED_clean_linker_0, # of connection points: 2
#     Edge 27, Type (0, 0), BuildingBlock: XIVTED_clean_linker_0, # of connection points: 2
#     Edge 28, Type (0, 0), BuildingBlock: XIVTED_clean_linker_0, # of connection points: 2
#     Edge 29, Type (0, 0), BuildingBlock: XIVTED_clean_linker_0, # of connection points: 2
#     Edge 30, Type (0, 0), BuildingBlock: XIVTED_clean_linker_0, # of connection points: 2
#     Edge 31, Type (0, 0), BuildingBlock: XIVTED_clean_linker_0, # of connection points: 2
#     Edge 32, Type (0, 0), BuildingBlock: XIVTED_clean_linker_0, # of connection points: 2
#     Edge 33, Type (0, 0), BuildingBlock: XIVTED_clean_linker_0, # of connection points: 2
#     Edge 34, Type (0, 0), BuildingBlock: XIVTED_clean_linker_0, # of connection points: 2
#     Edge 35, Type (0, 0), BuildingBlock: XIVTED_clean_linker_0, # of connection points: 2
#     Edge 36, Type (0, 0), BuildingBlock: XIVTED_clean_linker_0, # of connection points: 2
#     Edge 37, Type (0, 0), BuildingBlock: XIVTED_clean_linker_0, # of connection points: 2
#     Edge 38, Type (0, 0), BuildingBlock: XIVTED_clean_linker_0, # of connection points: 2
#     Edge 39, Type (0, 0), BuildingBlock: XIVTED_clean_linker_0, # of connection points: 2
#     Edge 40, Type (0, 0), BuildingBlock: XIVTED_clean_linker_0, # of connection points: 2
#     Edge 41, Type (0, 0), BuildingBlock: XIVTED_clean_linker_0, # of connection points: 2
#     Edge 42, Type (0, 0), BuildingBlock: XIVTED_clean_linker_0, # of connection points: 2
#     Edge 43, Type (0, 0), BuildingBlock: XIVTED_clean_linker_0, # of connection points: 2
#     Edge 44, Type (0, 0), BuildingBlock: XIVTED_clean_linker_0, # of connection points: 2
#     Edge 45, Type (0, 0), BuildingBlock: XIVTED_clean_linker_0, # of connection points: 2
#     Edge 46, Type (0, 0), BuildingBlock: XIVTED_clean_linker_0, # of connection points: 2
#     Edge 47, Type (0, 0), BuildingBlock: XIVTED_clean_linker_0, # of connection points: 2
# Relax obj value: 0.159
# Max RMSD: 0.222
# Mean RMSD: 0.173
data_MOF--net-gsi--node1-QUQFOY_clean_sbu_1--edge1-XIVTED_clean_linker_0
_symmetry_space_group_name_H-M    P1
_symmetry_Int_Tables_number       1
_symmetry_cell_setting            triclinic
loop_
_symmetry_equiv_pos_as_xyz
'x, y, z'
_cell_length_a     37.151873
_cell_length_b     46.560802
_cell_length_c     48.530419
_cell_angle_alpha  89.929638
_cell_angle_beta   90.013593
_cell_angle_gamma 100.77182
loop_
_atom_site_label
_atom_site_type_symbol
_atom_site_fract_x
_atom_site_fract_y
_atom_site_fract_z
_atom_type_partial_charge
O0 O 0.12983 0.19772 0.13777 0.0
Cd1 Cd 0.17536 0.17849 0.13463 0.0
Cd2 Cd 0.14353 0.15045 0.18071 0.0
O3 O 0.10172 0.17267 0.17271 0.0
O4 O 0.1933 0.19133 0.09735 0.0
O5 O 0.17545 0.14475 0.10835 0.0
C6 C 0.18714 0.16432 0.08993 0.0
C7 C 0.13235 0.10237 0.19649 0.0
C8 C 0.10293 0.19225 0.15431 0.0
C9 C 0.21758 0.19007 0.18661 0.0
O10 O 0.18988 0.17434 0.1978 0.0
O11 O 0.21865 0.19398 0.16069 0.0
O12 O 0.12558 0.12351 0.21151 0.0
O13 O 0.14331 0.10825 0.17149 0.0
O14 O 0.88894 0.31134 0.13731 0.0
Cd15 Cd 0.83622 0.31874 0.136 0.0
Cd16 Cd 0.85841 0.34842 0.18403 0.0
O17 O 0.90576 0.33216 0.17728 0.0
O18 O 0.8201 0.30336 0.09906 0.0
O19 O 0.82147 0.34934 0.11081 0.0
C20 C 0.81487 0.32903 0.09242 0.0
C21 C 0.86082 0.39626 0.19891 0.0
C22 C 0.91243 0.31751 0.15642 0.0
C23 C 0.79461 0.29834 0.18736 0.0
O24 O 0.81444 0.31975 0.19944 0.0
O25 O 0.79923 0.29341 0.16201 0.0
O26 O 0.86993 0.37666 0.21484 0.0
O27 O 0.85202 0.38906 0.17375 0.0
O28 O 0.11196 0.82999 0.36159 0.0
Cd29 Cd 0.16796 0.84328 0.36182 0.0
Cd30 Cd 0.15128 0.86832 0.31018 0.0
O31 O 0.1004 0.84524 0.32001 0.0
O32 O 0.17847 0.82379 0.39654 0.0
O33 O 0.19461 0.87131 0.39073 0.0
C34 C 0.19363 0.84873 0.40632 0.0
C35 C 0.15159 0.91345 0.28886 0.0
C36 C 0.08977 0.83132 0.34193 0.0
C37 C 0.19988 0.82384 0.30877 0.0
O38 O 0.18665 0.84303 0.29558 0.0
O39 O 0.19549 0.82104 0.33466 0.0
O40 O 0.14079 0.88919 0.27611 0.0
O41 O 0.16298 0.91227 0.3139 0.0
O42 O 0.84474 0.67177 0.34869 0.0
Cd43 Cd 0.78991 0.65384 0.3464 0.0
Cd44 Cd 0.81658 0.63246 0.29565 0.0
O45 O 0.86403 0.65913 0.30824 0.0
O46 O 0.77428 0.67395 0.37908 0.0
O47 O 0.76581 0.62604 0.37659 0.0
C48 C 0.76275 0.64906 0.39045 0.0
C49 C 0.82236 0.58737 0.27693 0.0
C50 C 0.8699 0.67293 0.33083 0.0
C51 C 0.75982 0.67008 0.29108 0.0
O52 O 0.77862 0.65396 0.27868 0.0
O53 O 0.76059 0.67213 0.31719 0.0
O54 O 0.83237 0.61137 0.26349 0.0
O55 O 0.8086 0.58883 0.30122 0.0
O56 O 0.38532 0.81993 0.63118 0.0
Cd57 Cd 0.33719 0.83593 0.63462 0.0
Cd58 Cd 0.37636 0.86383 0.67867 0.0
O59 O 0.41836 0.84508 0.664 0.0
O60 O 0.30947 0.81711 0.60241 0.0
O61 O 0.32396 0.86499 0.60678 0.0
C62 C 0.30837 0.84261 0.59267 0.0
C63 C 0.3834 0.91194 0.69364 0.0
C64 C 0.41499 0.82623 0.64478 0.0
C65 C 0.30858 0.82038 0.69172 0.0
O66 O 0.33757 0.83635 0.70072 0.0
O67 O 0.30207 0.8187 0.66602 0.0
O68 O 0.39712 0.89273 0.70718 0.0
O69 O 0.3679 0.90434 0.67023 0.0
O70 O 0.83838 0.90172 0.83517 0.0
Cd71 Cd 0.83313 0.86339 0.8577 0.0
Cd72 Cd 0.89509 0.86377 0.83218 0.0
O73 O 0.89754 0.9081 0.82651 0.0
O74 O 0.78899 0.86349 0.88082 0.0
O75 O 0.8441 0.865 0.89857 0.0
C76 C 0.80957 0.86454 0.90227 0.0
C77 C 0.93887 0.8388 0.84921 0.0
C78 C 0.86748 0.91744 0.82571 0.0
C79 C 0.83283 0.82053 0.81303 0.0
O80 O 0.86177 0.83741 0.80507 0.0
O81 O 0.81903 0.82463 0.83629 0.0
O82 O 0.94336 0.8526 0.82599 0.0
O83 O 0.9115 0.84233 0.8645 0.0
O84 O 0.14565 0.59143 0.83815 0.0
Cd85 Cd 0.15438 0.62901 0.86161 0.0
Cd86 Cd 0.09414 0.63468 0.8357 0.0
O87 O 0.08809 0.59056 0.82668 0.0
O88 O 0.18957 0.62179 0.89054 0.0
O89 O 0.13398 0.62989 0.89991 0.0
C90 C 0.16486 0.6243 0.90856 0.0
C91 C 0.04885 0.66027 0.84924 0.0
C92 C 0.11624 0.57863 0.8267 0.0
C93 C 0.16341 0.67444 0.81922 0.0
O94 O 0.13176 0.66157 0.81179 0.0
O95 O 0.17733 0.66696 0.8414 0.0
O96 O 0.0483 0.64809 0.82535 0.0
O97 O 0.07293 0.655 0.86685 0.0
O98 O 0.87236 0.15834 0.6685 0.0
Cd99 Cd 0.82882 0.13418 0.68933 0.0
Cd100 Cd 0.79079 0.15263 0.64157 0.0
O101 O 0.8432 0.17447 0.63372 0.0
O102 O 0.85393 0.11755 0.72033 0.0
O103 O 0.81751 0.09 0.6909 0.0
C104 C 0.83846 0.09188 0.71231 0.0
C105 C 0.75587 0.1399 0.60161 0.0
C106 C 0.8725 0.17402 0.64703 0.0
C107 C 0.77117 0.17088 0.6989 0.0
O108 O 0.7641 0.16924 0.67327 0.0
O109 O 0.79585 0.15852 0.70911 0.0
O110 O 0.76413 0.16643 0.61008 0.0
O111 O 0.76709 0.11999 0.61601 0.0
O112 O 0.08983 0.35034 0.65583 0.0
Cd113 Cd 0.13754 0.36874 0.67534 0.0
Cd114 Cd 0.16619 0.34466 0.62464 0.0
O115 O 0.11069 0.3321 0.61839 0.0
O116 O 0.11622 0.38417 0.70884 0.0
O117 O 0.15379 0.41246 0.68072 0.0
C118 C 0.1336 0.40984 0.70254 0.0
C119 C 0.20071 0.35335 0.58394 0.0
C120 C 0.08418 0.3358 0.63362 0.0
C121 C 0.18429 0.32194 0.68069 0.0
O122 O 0.18794 0.32166 0.65465 0.0
O123 O 0.16629 0.33928 0.69226 0.0
O124 O 0.18348 0.32774 0.59054 0.0
O125 O 0.19894 0.37456 0.60066 0.0
O126 O 0.61287 0.07818 0.34854 0.0
Cd127 Cd 0.63634 0.1179 0.36476 0.0
Cd128 Cd 0.57482 0.13313 0.34563 0.0
O129 O 0.56098 0.0896 0.33398 0.0
O130 O 0.67394 0.10957 0.39148 0.0
O131 O 0.62581 0.12842 0.40357 0.0
C132 C 0.65512 0.11909 0.4106 0.0
C133 C 0.54038 0.16055 0.37098 0.0
C134 C 0.58214 0.07117 0.33651 0.0
C135 C 0.64508 0.16266 0.31991 0.0
O136 O 0.61037 0.15899 0.3197 0.0
O137 O 0.66165 0.14886 0.33689 0.0
O138 O 0.53023 0.15119 0.34665 0.0
O139 O 0.5682 0.15191 0.38198 0.0
O140 O 0.60512 0.68339 0.62874 0.0
Cd141 Cd 0.65201 0.66556 0.62896 0.0
Cd142 Cd 0.61497 0.63739 0.67504 0.0
O143 O 0.5742 0.6592 0.66311 0.0
O144 O 0.67665 0.6839 0.59538 0.0
O145 O 0.66012 0.63613 0.59976 0.0
C146 C 0.67481 0.6583 0.58498 0.0
C147 C 0.60252 0.58997 0.69268 0.0
C148 C 0.57683 0.67814 0.64397 0.0
C149 C 0.68719 0.67805 0.68439 0.0
O150 O 0.65867 0.66235 0.69448 0.0
O151 O 0.69088 0.68109 0.65848 0.0
O152 O 0.59385 0.61163 0.70593 0.0
O153 O 0.61603 0.59483 0.66822 0.0
O154 O 0.61256 0.32529 0.87394 0.0
Cd155 Cd 0.66644 0.34429 0.8673 0.0
Cd156 Cd 0.62857 0.36458 0.81913 0.0
O157 O 0.58341 0.34365 0.84043 0.0
O158 O 0.6883 0.32371 0.89696 0.0
O159 O 0.69452 0.37158 0.89625 0.0
C160 C 0.70119 0.34839 0.9082 0.0
C161 C 0.6231 0.40759 0.79594 0.0
C162 C 0.58307 0.32767 0.86169 0.0
C163 C 0.68396 0.32546 0.80974 0.0
O164 O 0.65934 0.33806 0.7998 0.0
O165 O 0.69198 0.32753 0.83517 0.0
O166 O 0.60731 0.38236 0.78704 0.0
O167 O 0.64207 0.40859 0.81834 0.0
O168 O 0.32926 0.17858 0.85992 0.0
Cd169 Cd 0.27976 0.1517 0.85225 0.0
Cd170 Cd 0.32566 0.13431 0.80987 0.0
O171 O 0.36626 0.1587 0.83341 0.0
O172 O 0.25002 0.16689 0.88081 0.0
O173 O 0.25932 0.12158 0.88155 0.0
C174 C 0.24538 0.14198 0.89296 0.0
C175 C 0.3384 0.09207 0.78914 0.0
C176 C 0.36125 0.17712 0.85163 0.0
C177 C 0.26436 0.16585 0.79383 0.0
O178 O 0.29367 0.1573 0.78708 0.0
O179 O 0.2521 0.16235 0.81826 0.0
O180 O 0.35271 0.1177 0.78024 0.0
O181 O 0.31695 0.09025 0.81027 0.0
O182 O 0.37325 0.41171 0.34223 0.0
Cd183 Cd 0.36298 0.37102 0.36076 0.0
Cd184 Cd 0.42778 0.37022 0.3384 0.0
O185 O 0.43155 0.41434 0.33154 0.0
O186 O 0.31604 0.37009 0.38098 0.0
O187 O 0.36833 0.36864 0.40212 0.0
C188 C 0.33371 0.36883 0.40364 0.0
C189 C 0.45818 0.34424 0.36811 0.0
C190 C 0.40313 0.42588 0.33249 0.0
C191 C 0.36823 0.32917 0.31405 0.0
O192 O 0.39969 0.34405 0.30882 0.0
O193 O 0.35096 0.33448 0.33553 0.0
O194 O 0.47427 0.35633 0.34622 0.0
O195 O 0.42646 0.3499 0.37459 0.0
O196 O 0.36829 0.65305 0.17209 0.0
Cd197 Cd 0.32626 0.62545 0.19138 0.0
Cd198 Cd 0.28867 0.64437 0.14188 0.0
O199 O 0.34113 0.66654 0.13494 0.0
O200 O 0.35149 0.61535 0.22543 0.0
O201 O 0.32705 0.58209 0.19522 0.0
C202 C 0.34447 0.58843 0.21806 0.0
C203 C 0.25433 0.63176 0.10158 0.0
C204 C 0.36935 0.66789 0.15 0.0
C205 C 0.26571 0.66011 0.1993 0.0
O206 O 0.26161 0.66093 0.17334 0.0
O207 O 0.28842 0.64608 0.20995 0.0
O208 O 0.26234 0.65824 0.11018 0.0
O209 O 0.26555 0.61184 0.11597 0.0
O210 O 0.58048 0.84918 0.16448 0.0
Cd211 Cd 0.62686 0.87308 0.18176 0.0
Cd212 Cd 0.65485 0.8505 0.12858 0.0
O213 O 0.59926 0.8371 0.12363 0.0
O214 O 0.60601 0.88351 0.21754 0.0
O215 O 0.63075 0.91681 0.18744 0.0
C216 C 0.61451 0.91058 0.21077 0.0
C217 C 0.68732 0.85643 0.08668 0.0
C218 C 0.57394 0.83678 0.14124 0.0
C219 C 0.6794 0.83072 0.18455 0.0
O220 O 0.67837 0.82852 0.15845 0.0
O221 O 0.66331 0.84876 0.19696 0.0
O222 O 0.6703 0.8314 0.09503 0.0
O223 O 0.68652 0.87871 0.10226 0.0
H224 H 0.22598 0.18228 0.24168 0.0
H225 H 0.38695 0.32066 0.26042 0.0
H226 H 0.27552 0.23383 0.17278 0.0
H227 H 0.31105 0.28457 0.32443 0.0
H228 H 0.35582 0.28312 0.22867 0.0
H229 H 0.26769 0.2132 0.27268 0.0
C230 C 0.24593 0.19993 0.23298 0.0
C231 C 0.24681 0.2058 0.20459 0.0
C232 C 0.34624 0.28338 0.24972 0.0
C233 C 0.29458 0.24141 0.24016 0.0
C234 C 0.36397 0.30471 0.26785 0.0
C235 C 0.3513 0.30586 0.29502 0.0
C236 C 0.31607 0.26292 0.25902 0.0
C237 C 0.32147 0.28469 0.30359 0.0
C238 C 0.26967 0.21762 0.25076 0.0
C239 C 0.27367 0.2287 0.19455 0.0
N240 N 0.30486 0.26412 0.28563 0.0
N241 N 0.29631 0.24595 0.2124 0.0
H242 H 0.77764 0.23901 0.18276 0.0
H243 H 0.62807 0.21317 0.30034 0.0
H244 H 0.75265 0.3114 0.22975 0.0
H245 H 0.70875 0.15783 0.29374 0.0
H246 H 0.66207 0.24622 0.26591 0.0
H247 H 0.73973 0.20504 0.21471 0.0
C248 C 0.76357 0.24769 0.19947 0.0
C249 C 0.76813 0.27791 0.20379 0.0
C250 C 0.67217 0.22679 0.27205 0.0
C251 C 0.72499 0.23956 0.23984 0.0
C252 C 0.65291 0.208 0.29158 0.0
C253 C 0.66591 0.18295 0.2999 0.0
C254 C 0.70392 0.21994 0.26026 0.0
C255 C 0.69816 0.17714 0.288 0.0
C256 C 0.74236 0.22839 0.21773 0.0
C257 C 0.7498 0.28818 0.22588 0.0
N258 N 0.71599 0.19541 0.26848 0.0
N259 N 0.72879 0.26899 0.24308 0.0
H260 H 0.22324 0.6992 0.18305 0.0
H261 H 0.22963 0.77853 0.32933 0.0
H262 H 0.27242 0.66815 0.25522 0.0
H263 H 0.20208 0.81686 0.25288 0.0
H264 H 0.24242 0.73647 0.30359 0.0
H265 H 0.2088 0.73961 0.21008 0.0
C266 C 0.23041 0.70052 0.2047 0.0
C267 C 0.24943 0.68035 0.21677 0.0
C268 C 0.23386 0.75422 0.29247 0.0
C269 C 0.23356 0.727 0.24773 0.0
C270 C 0.22683 0.77836 0.30711 0.0
C271 C 0.2146 0.80126 0.29328 0.0
C272 C 0.22833 0.75287 0.26385 0.0
C273 C 0.21141 0.79976 0.26446 0.0
C274 C 0.22252 0.72383 0.22006 0.0
C275 C 0.25793 0.68325 0.24498 0.0
N276 N 0.21788 0.77585 0.25076 0.0
N277 N 0.2502 0.70632 0.25945 0.0
H278 H 0.75587 0.67465 0.23489 0.0
H279 H 0.68086 0.8248 0.24076 0.0
H280 H 0.72458 0.71278 0.31023 0.0
H281 H 0.71164 0.78628 0.16546 0.0
H282 H 0.69721 0.78413 0.26662 0.0
H283 H 0.73736 0.71436 0.20894 0.0
C284 C 0.74455 0.69108 0.24597 0.0
C285 C 0.74204 0.69044 0.27484 0.0
C286 C 0.70056 0.78466 0.24445 0.0
C287 C 0.72146 0.73634 0.24524 0.0
C288 C 0.69152 0.80803 0.22967 0.0
C289 C 0.69475 0.80897 0.20083 0.0
C290 C 0.71289 0.76203 0.23034 0.0
C291 C 0.70863 0.78651 0.18764 0.0
C292 C 0.73427 0.71392 0.23113 0.0
C293 C 0.72714 0.71239 0.28802 0.0
N294 N 0.71699 0.7639 0.20248 0.0
N295 N 0.71773 0.73458 0.27313 0.0
H296 H 0.24271 0.78453 0.6809 0.0
H297 H 0.22932 0.71041 0.82987 0.0
H298 H 0.31846 0.81394 0.74703 0.0
H299 H 0.14372 0.69202 0.76864 0.0
H300 H 0.26261 0.74848 0.79976 0.0
H301 H 0.20566 0.75073 0.71289 0.0
C302 C 0.25139 0.78408 0.70218 0.0
C303 C 0.28386 0.80196 0.71124 0.0
C304 C 0.23645 0.73618 0.793 0.0
C305 C 0.24183 0.76316 0.74786 0.0
C306 C 0.21751 0.71439 0.81014 0.0
C307 C 0.18379 0.69792 0.80171 0.0
C308 C 0.22166 0.74134 0.7672 0.0
C309 C 0.16968 0.70411 0.77597 0.0
C310 C 0.23024 0.76476 0.72043 0.0
C311 C 0.29371 0.80049 0.73909 0.0
N312 N 0.18878 0.72522 0.75958 0.0
N313 N 0.27295 0.78123 0.75635 0.0
H314 H 0.74917 0.71799 0.67133 0.0
H315 H 0.77533 0.77662 0.82553 0.0
H316 H 0.68689 0.67683 0.74061 0.0
H317 H 0.84954 0.80981 0.75952 0.0
H318 H 0.74425 0.73856 0.79476 0.0
H319 H 0.78859 0.75016 0.70333 0.0
C320 C 0.74406 0.71545 0.69325 0.0
C321 C 0.7144 0.69492 0.70327 0.0
C322 C 0.7675 0.75404 0.78704 0.0
C323 C 0.75908 0.73179 0.7399 0.0
C324 C 0.78517 0.77585 0.80458 0.0
C325 C 0.81488 0.79657 0.79501 0.0
C326 C 0.77937 0.75308 0.75962 0.0
C327 C 0.82663 0.79436 0.76772 0.0
C328 C 0.76653 0.73385 0.7115 0.0
C329 C 0.70917 0.69253 0.7319 0.0
N330 N 0.80863 0.77314 0.7509 0.0
N331 N 0.73102 0.71095 0.74915 0.0
H332 H 0.7361 0.29376 0.8243 0.0
H333 H 0.71897 0.20244 0.68391 0.0
H334 H 0.66753 0.30952 0.75612 0.0
H335 H 0.78552 0.1857 0.75297 0.0
H336 H 0.69878 0.24104 0.71034 0.0
H337 H 0.75546 0.25479 0.79797 0.0
C338 C 0.72542 0.28929 0.80366 0.0
C339 C 0.7 0.30492 0.79247 0.0
C340 C 0.71762 0.2288 0.71978 0.0
C341 C 0.72171 0.25992 0.76235 0.0
C342 C 0.72898 0.20658 0.70476 0.0
C343 C 0.75416 0.19085 0.71616 0.0
C344 C 0.73157 0.23541 0.74637 0.0
C345 C 0.76615 0.19725 0.74329 0.0
C346 C 0.73632 0.26686 0.7887 0.0
C347 C 0.68715 0.29808 0.76561 0.0
N348 N 0.75494 0.21918 0.75739 0.0
N349 N 0.69799 0.27597 0.75153 0.0
H350 H 0.17193 0.30985 0.73543 0.0
H351 H 0.28306 0.17901 0.73994 0.0
H352 H 0.22615 0.28238 0.66408 0.0
H353 H 0.20896 0.1957 0.80401 0.0
H354 H 0.26346 0.21679 0.71169 0.0
H355 H 0.1883 0.26942 0.76151 0.0
C356 C 0.18761 0.29551 0.72529 0.0
C357 C 0.19766 0.29956 0.69748 0.0
C358 C 0.25122 0.21192 0.73182 0.0
C359 C 0.21613 0.25292 0.72722 0.0
C360 C 0.26224 0.19025 0.74791 0.0
C361 C 0.24786 0.1843 0.77451 0.0
C362 C 0.22592 0.22793 0.74251 0.0
C363 C 0.22094 0.19957 0.7837 0.0
C364 C 0.19665 0.27224 0.74015 0.0
C365 C 0.2178 0.28012 0.68546 0.0
N366 N 0.21118 0.22091 0.76786 0.0
N367 N 0.22638 0.25763 0.70041 0.0
H368 H 0.15701 0.96752 0.31247 0.0
H369 H 0.142 0.05175 0.1708 0.0
H370 H 0.14131 0.92304 0.23418 0.0
H371 H 0.12098 0.08668 0.25033 0.0
H372 H 0.14666 0.00528 0.19309 0.0
H373 H 0.1502 0.01302 0.28944 0.0
C374 C 0.15237 0.96737 0.29043 0.0
C375 C 0.14965 0.94149 0.27522 0.0
C376 C 0.14073 0.02309 0.20557 0.0
C377 C 0.1418 0.99333 0.24879 0.0
C378 C 0.13798 0.04956 0.19286 0.0
C379 C 0.13109 0.07312 0.20871 0.0
C380 C 0.13711 0.0204 0.23433 0.0
C381 C 0.12626 0.06911 0.23726 0.0
C382 C 0.14824 0.99327 0.27733 0.0
C383 C 0.14345 0.94251 0.24671 0.0
N384 N 0.12969 0.04338 0.24917 0.0
N385 N 0.13985 0.96802 0.23438 0.0
H386 H 0.86659 0.41379 0.25256 0.0
H387 H 0.83732 0.57629 0.22334 0.0
H388 H 0.84794 0.44464 0.1708 0.0
H389 H 0.81924 0.53468 0.30296 0.0
H390 H 0.84798 0.53023 0.20382 0.0
H391 H 0.85705 0.4603 0.27143 0.0
C392 C 0.86081 0.43045 0.23851 0.0
C393 C 0.85803 0.4253 0.21002 0.0
C394 C 0.84156 0.53117 0.22553 0.0
C395 C 0.84695 0.47861 0.2316 0.0
C396 C 0.83553 0.55744 0.23672 0.0
C397 C 0.82738 0.55929 0.26484 0.0
C398 C 0.83994 0.50668 0.24266 0.0
C399 C 0.82532 0.53418 0.28117 0.0
C400 C 0.85511 0.45692 0.24936 0.0
C401 C 0.8503 0.44768 0.19288 0.0
N402 N 0.83181 0.50893 0.26987 0.0
N403 N 0.84507 0.47342 0.20395 0.0
H404 H 0.20008 0.1754 0.91444 0.0
H405 H 0.19495 0.11127 0.06748 0.0
H406 H 0.25045 0.10147 0.9337 0.0
H407 H 0.189 0.20022 0.0459 0.0
H408 H 0.20281 0.10079 0.0182 0.0
H409 H 0.18057 0.17686 0.96213 0.0
C410 C 0.2066 0.15916 0.92867 0.0
C411 C 0.22744 0.13859 0.92022 0.0
C412 C 0.19962 0.1225 0.02444 0.0
C413 C 0.2056 0.14044 0.97512 0.0
C414 C 0.19516 0.12849 0.05243 0.0
C415 C 0.19166 0.15672 0.06076 0.0
C416 C 0.19968 0.14477 0.00487 0.0
C417 C 0.19201 0.17824 0.04049 0.0
C418 C 0.19558 0.16009 0.95594 0.0
C419 C 0.23458 0.11779 0.93947 0.0
N420 N 0.19583 0.17179 0.01359 0.0
N421 N 0.22411 0.11948 0.96627 0.0
H422 H 0.80748 0.29175 0.04904 0.0
H423 H 0.71936 0.39361 0.9456 0.0
H424 H 0.79245 0.37829 0.07198 0.0
H425 H 0.73091 0.30459 0.92975 0.0
H426 H 0.75041 0.39132 0.99025 0.0
H427 H 0.78392 0.29892 0.00356 0.0
C428 C 0.79921 0.31236 0.04451 0.0
C429 C 0.80168 0.33436 0.06447 0.0
C430 C 0.74626 0.37243 0.97682 0.0
C431 C 0.77428 0.34278 0.01198 0.0
C432 C 0.7287 0.37376 0.95137 0.0
C433 C 0.72229 0.34917 0.93408 0.0
C434 C 0.75756 0.34641 0.98472 0.0
C435 C 0.73488 0.32399 0.9425 0.0
C436 C 0.78572 0.31648 0.0184 0.0
C437 C 0.79084 0.36071 0.05719 0.0
N438 N 0.75172 0.32327 0.96715 0.0
N439 N 0.77734 0.36416 0.03151 0.0
H440 H 0.26555 0.79929 0.56403 0.0
H441 H 0.23343 0.89667 0.43341 0.0
H442 H 0.30859 0.89201 0.56085 0.0
H443 H 0.18926 0.80468 0.44341 0.0
H444 H 0.26028 0.8971 0.47989 0.0
H445 H 0.23646 0.80245 0.51981 0.0
C446 C 0.26889 0.82042 0.554 0.0
C447 C 0.28974 0.8454 0.56614 0.0
C448 C 0.24456 0.87693 0.47183 0.0
C449 C 0.25629 0.84923 0.51494 0.0
C450 C 0.22926 0.87667 0.44537 0.0
C451 C 0.20926 0.85056 0.43444 0.0
C452 C 0.23968 0.85091 0.48729 0.0
C453 C 0.20463 0.8253 0.4508 0.0
C454 C 0.25215 0.82224 0.52864 0.0
C455 C 0.29277 0.87221 0.55216 0.0
N456 N 0.21975 0.82613 0.47623 0.0
N457 N 0.27636 0.87342 0.52714 0.0
H458 H 0.70844 0.70176 0.5515 0.0
H459 H 0.73807 0.6007 0.42337 0.0
H460 H 0.6726 0.60807 0.55406 0.0
H461 H 0.75388 0.69496 0.42225 0.0
H462 H 0.71656 0.6012 0.47141 0.0
H463 H 0.72905 0.69797 0.50462 0.0
C464 C 0.70491 0.68027 0.5422 0.0
C465 C 0.68856 0.6552 0.55675 0.0
C466 C 0.72467 0.62167 0.46048 0.0
C467 C 0.71217 0.65066 0.50248 0.0
C468 C 0.73686 0.6214 0.43312 0.0
C469 C 0.74788 0.64783 0.41879 0.0
C470 C 0.72377 0.64854 0.47341 0.0
C471 C 0.74582 0.67403 0.43239 0.0
C472 C 0.71666 0.67812 0.51527 0.0
C473 C 0.685 0.62796 0.54352 0.0
N474 N 0.73419 0.67367 0.45882 0.0
N475 N 0.69668 0.62638 0.51701 0.0
H476 H 0.95408 0.30577 0.2 0.0
H477 H 0.0854 0.22485 0.11116 0.0
H478 H 0.94479 0.2976 0.11156 0.0
H479 H 0.05689 0.20224 0.19569 0.0
H480 H 0.0419 0.25842 0.1114 0.0
H481 H 0.00164 0.27575 0.19924 0.0
C482 C 0.96256 0.29817 0.18038 0.0
C483 C 0.94538 0.30406 0.15581 0.0
C484 C 0.04514 0.24601 0.12983 0.0
C485 C -0.00061 0.26966 0.15487 0.0
C486 C 0.06985 0.22683 0.12971 0.0
C487 C 0.07458 0.21063 0.15341 0.0
C488 C 0.02562 0.24942 0.15397 0.0
C489 C 0.05381 0.2141 0.1769 0.0
C490 C -0.01064 0.2808 0.18001 0.0
C491 C 0.95721 0.29343 0.13099 0.0
N492 N 0.03042 0.23331 0.17667 0.0
N493 N 0.98348 0.27668 0.13115 0.0
H494 H 0.89792 0.69912 0.37877 0.0
H495 H 0.0414 0.81861 0.29938 0.0
H496 H 0.91939 0.69588 0.29148 0.0
H497 H 0.05565 0.79953 0.38542 0.0
H498 H -0.012 0.77931 0.29786 0.0
H499 H 0.94973 0.74008 0.38305 0.0
C500 C 0.9138 0.70675 0.3606 0.0
C501 C 0.90435 0.6941 0.33471 0.0
C502 C 0.00268 0.78392 0.31711 0.0
C503 C 0.96259 0.74123 0.3394 0.0
C504 C 0.03293 0.80657 0.31812 0.0
C505 C 0.05331 0.81218 0.34251 0.0
C506 C -0.00756 0.76697 0.34072 0.0
C507 C 0.0409 0.79579 0.36613 0.0
C508 C 0.94317 0.73015 0.36306 0.0
C509 C 0.92578 0.70486 0.31184 0.0
N510 N 0.01129 0.77375 0.36462 0.0
N511 N 0.95364 0.72805 0.31467 0.0
H512 H 0.53177 0.69141 0.68439 0.0
H513 H 0.42884 0.79535 0.59912 0.0
H514 H 0.56081 0.70941 0.59914 0.0
H515 H 0.46336 0.81399 0.68319 0.0
H516 H 0.4678 0.7581 0.59718 0.0
H517 H 0.49423 0.72931 0.68293 0.0
C518 C 0.52966 0.70291 0.66521 0.0
C519 C 0.54946 0.69731 0.64185 0.0
C520 C 0.46706 0.77068 0.61586 0.0
C521 C 0.50676 0.74064 0.64016 0.0
C522 C 0.44505 0.79194 0.61697 0.0
C523 C 0.443 0.80783 0.64133 0.0
C524 C 0.48611 0.76477 0.63951 0.0
C525 C 0.46436 0.80244 0.66393 0.0
C526 C 0.50863 0.72474 0.66451 0.0
C527 C 0.54603 0.71315 0.61762 0.0
N528 N 0.48454 0.78101 0.66263 0.0
N529 N 0.52496 0.73411 0.61734 0.0
H530 H 0.79524 0.03737 0.71241 0.0
H531 H 0.9231 0.9625 0.81025 0.0
H532 H 0.89414 0.087 0.74778 0.0
H533 H 0.80572 0.93415 0.80636 0.0
H534 H 0.91715 0.0053 0.78202 0.0
H535 H 0.80315 0.99534 0.74074 0.0
C536 C 0.81877 0.03933 0.72594 0.0
C537 C 0.84398 0.06571 0.72785 0.0
C538 C 0.89278 0.98971 0.78756 0.0
C539 C 0.8533 0.01779 0.76009 0.0
C540 C 0.89613 0.96536 0.80365 0.0
C541 C 0.86487 0.94477 0.81079 0.0
C542 C 0.85806 0.99303 0.77806 0.0
C543 C 0.83058 0.94951 0.80156 0.0
C544 C 0.82314 0.01544 0.74221 0.0
C545 C 0.87393 0.06709 0.74582 0.0
N546 N 0.82815 0.97294 0.78548 0.0
N547 N 0.87788 0.04342 0.76118 0.0
H548 H 0.05803 0.53822 0.80694 0.0
H549 H 0.18131 0.46217 0.70689 0.0
H550 H 0.17627 0.5587 0.80836 0.0
H551 H 0.07843 0.41489 0.73824 0.0
H552 H 0.17621 0.50272 0.73804 0.0
H553 H 0.06139 0.49672 0.77629 0.0
C554 C 0.08461 0.53389 0.80101 0.0
C555 C 0.11689 0.55188 0.81035 0.0
C556 C 0.15477 0.48344 0.73801 0.0
C557 C 0.12084 0.50521 0.77486 0.0
C558 C 0.15757 0.46043 0.72017 0.0
C559 C 0.13036 0.43514 0.72012 0.0
C560 C 0.12418 0.48137 0.75544 0.0
C561 C 0.10016 0.43396 0.73781 0.0
C562 C 0.08649 0.51029 0.78354 0.0
C563 C 0.15064 0.54533 0.80188 0.0
N564 N 0.09774 0.45682 0.75467 0.0
N565 N 0.15172 0.52277 0.78441 0.0
H566 H 0.67186 0.81988 0.04321 0.0
H567 H 0.84356 0.88395 0.95104 0.0
H568 H 0.74539 0.89826 0.06893 0.0
H569 H 0.73858 0.84531 0.91659 0.0
H570 H 0.81444 0.88377 0.99674 0.0
H571 H 0.70278 0.82282 0.99871 0.0
C572 C 0.69461 0.83772 0.03949 0.0
C573 C 0.70604 0.85893 0.05972 0.0
C574 C 0.79797 0.87547 0.97905 0.0
C575 C 0.74185 0.86213 0.00892 0.0
C576 C 0.81451 0.87538 0.95311 0.0
C577 C 0.7934 0.86461 0.93006 0.0
C578 C 0.76041 0.86402 0.98187 0.0
C579 C 0.75585 0.85391 0.93378 0.0
C580 C 0.71213 0.83941 0.01406 0.0
C581 C 0.73563 0.88161 0.05375 0.0
N582 N 0.74066 0.85362 0.9592 0.0
N583 N 0.75285 0.88251 0.02886 0.0
H584 H 0.13016 0.64409 0.95253 0.0
H585 H 0.25614 0.58633 0.06597 0.0
H586 H 0.21644 0.59734 0.93198 0.0
H587 H 0.20785 0.66285 0.07737 0.0
H588 H 0.22922 0.58049 0.01956 0.0
H589 H 0.14646 0.64161 0.00139 0.0
C590 C 0.15223 0.63304 0.95832 0.0
C591 C 0.17227 0.62119 0.93821 0.0
C592 C 0.22422 0.59831 0.03243 0.0
C593 C 0.19062 0.61794 0.99383 0.0
C594 C 0.23934 0.60155 0.0589 0.0
C595 C 0.23444 0.62525 0.07533 0.0
C596 C 0.20358 0.61863 0.02269 0.0
C597 C 0.21259 0.64445 0.06519 0.0
C598 C 0.16154 0.63169 0.98613 0.0
C599 C 0.20059 0.60708 0.94683 0.0
N600 N 0.19802 0.64076 0.03949 0.0
N601 N 0.20896 0.60586 0.974 0.0
H602 H 0.70647 0.09108 0.4333 0.0
H603 H 0.71109 0.17209 0.57692 0.0
H604 H 0.63055 0.14741 0.45412 0.0
H605 H 0.75508 0.0933 0.56683 0.0
H606 H 0.68302 0.16449 0.5314 0.0
H607 H 0.72689 0.09281 0.48133 0.0
C608 C 0.69406 0.10377 0.44799 0.0
C609 C 0.66693 0.11929 0.43969 0.0
C610 C 0.69845 0.14867 0.53923 0.0
C611 C 0.69027 0.12142 0.49455 0.0
C612 C 0.71455 0.15301 0.56518 0.0
C613 C 0.73555 0.13334 0.57556 0.0
C614 C 0.70397 0.12478 0.52326 0.0
C615 C 0.73901 0.10894 0.55956 0.0
C616 C 0.70557 0.10459 0.4754 0.0
C617 C 0.65159 0.13518 0.45962 0.0
N618 N 0.7238 0.10554 0.53397 0.0
N619 N 0.66374 0.13608 0.48607 0.0
H620 H 0.26022 0.39581 0.5705 0.0
H621 H 0.26095 0.35038 0.41306 0.0
H622 H 0.18707 0.32069 0.53766 0.0
H623 H 0.36249 0.38448 0.4548 0.0
H624 H 0.22882 0.34814 0.45718 0.0
H625 H 0.29399 0.40062 0.52645 0.0
C626 C 0.25118 0.38051 0.55399 0.0
C627 C 0.22095 0.35777 0.55765 0.0
C628 C 0.25814 0.35614 0.45665 0.0
C629 C 0.25875 0.3634 0.5076 0.0
C630 C 0.27646 0.35749 0.43152 0.0
C631 C 0.31444 0.36748 0.43035 0.0
C632 C 0.27775 0.36542 0.48073 0.0
C633 C 0.33321 0.37641 0.45491 0.0
C634 C 0.27051 0.38316 0.52905 0.0
C635 C 0.21038 0.33842 0.53573 0.0
N636 N 0.3146 0.37537 0.47919 0.0
N637 N 0.22906 0.34181 0.51159 0.0
H638 H 0.00452 0.68107 0.81265 0.0
H639 H 0.93744 0.80429 0.89581 0.0
H640 H 0.0445 0.69316 0.89621 0.0
H641 H -0.01251 0.81921 0.81549 0.0
H642 H 0.96285 0.75911 0.89974 0.0
H643 H 0.97992 0.72585 0.81651 0.0
C644 C 0.00748 0.69273 0.83207 0.0
C645 C 0.027 0.68341 0.85406 0.0
C646 C 0.96861 0.7727 0.88156 0.0
C647 C -0.00129 0.73482 0.85845 0.0
C648 C 0.95435 0.79848 0.87931 0.0
C649 C 0.96017 0.81556 0.8552 0.0
C650 C -0.0122 0.76374 0.85925 0.0
C651 C 0.98211 0.80683 0.83442 0.0
C652 C -0.00633 0.71844 0.83411 0.0
C653 C 0.02978 0.69962 0.87871 0.0
N654 N -0.00557 0.78129 0.83668 0.0
N655 N 0.01588 0.72472 0.88026 0.0
H656 H 0.05962 0.30169 0.58859 0.0
H657 H 0.93019 0.19372 0.68078 0.0
H658 H 0.02588 0.32728 0.6687 0.0
H659 H 0.88948 0.20477 0.59878 0.0
H660 H 0.97843 0.2363 0.67338 0.0
H661 H 0.00621 0.26149 0.5881 0.0
C662 C 0.04058 0.29939 0.6057 0.0
C663 C 0.04762 0.3176 0.62895 0.0
C664 C 0.95907 0.22913 0.65696 0.0
C665 C -0.01217 0.27151 0.62871 0.0
C666 C 0.93183 0.20467 0.66099 0.0
C667 C 0.90561 0.1958 0.64042 0.0
C668 C 0.96066 0.24447 0.63202 0.0
C669 C 0.90908 0.21104 0.61521 0.0
C670 C 0.01033 0.27644 0.60539 0.0
C671 C 0.02193 0.31366 0.65048 0.0
N672 N 0.93626 0.23479 0.61164 0.0
N673 N -0.00628 0.29055 0.65017 0.0
H674 H 0.47027 0.17024 0.36688 0.0
H675 H 0.52896 0.33529 0.37069 0.0
H676 H 0.57605 0.20626 0.40132 0.0
H677 H 0.41859 0.29743 0.395 0.0
H678 H 0.54801 0.28903 0.38215 0.0
H679 H 0.4499 0.21623 0.37712 0.0
C680 C 0.48883 0.18755 0.3773 0.0
C681 C 0.52483 0.18451 0.38329 0.0
C682 C 0.51985 0.29117 0.38571 0.0
C683 C 0.50228 0.23736 0.39402 0.0
C684 C 0.50899 0.31754 0.37919 0.0
C685 C 0.47214 0.32014 0.3818 0.0
C686 C 0.49341 0.26705 0.39394 0.0
C687 C 0.44731 0.29638 0.39274 0.0
C688 C 0.47724 0.21375 0.38313 0.0
C689 C 0.54797 0.2077 0.39655 0.0
N690 N 0.45816 0.27052 0.39766 0.0
N691 N 0.53665 0.23351 0.40077 0.0
H692 H 0.61051 0.53741 0.66997 0.0
H693 H 0.63507 0.46396 0.81487 0.0
H694 H 0.59162 0.57795 0.74727 0.0
H695 H 0.60248 0.412 0.74236 0.0
H696 H 0.6272 0.50774 0.78918 0.0
H697 H 0.6143 0.49218 0.69501 0.0
C698 C 0.60677 0.53671 0.69211 0.0
C699 C 0.6007 0.56145 0.70654 0.0
C700 C 0.62171 0.4867 0.77896 0.0
C701 C 0.60588 0.51027 0.73522 0.0
C702 C 0.6264 0.4618 0.79355 0.0
C703 C 0.61932 0.43436 0.78074 0.0
C704 C 0.61057 0.48419 0.75126 0.0
C705 C 0.60803 0.43275 0.75305 0.0
C706 C 0.60899 0.51096 0.70636 0.0
C707 C 0.5962 0.55938 0.73526 0.0
N708 N 0.60424 0.45736 0.73915 0.0
N709 N 0.59931 0.53437 0.74868 0.0
H710 H 0.3322 0.03667 0.80996 0.0
H711 H 0.36745 0.96122 0.66888 0.0
H712 H 0.36243 0.08782 0.7365 0.0
H713 H 0.39446 0.92725 0.74749 0.0
H714 H 0.35802 0.00612 0.69209 0.0
H715 H 0.34634 0.99367 0.78614 0.0
C716 C 0.3417 0.03881 0.78882 0.0
C717 C 0.34627 0.06579 0.77518 0.0
C718 C 0.36637 0.98887 0.70411 0.0
C719 C 0.36203 0.01685 0.74784 0.0
C720 C 0.37178 0.96334 0.69091 0.0
C721 C 0.38183 0.94053 0.70627 0.0
C722 C 0.37018 0.9912 0.73286 0.0
C723 C 0.38692 0.94434 0.73481 0.0
C724 C 0.34994 0.01437 0.77532 0.0
C725 C 0.35875 0.06741 0.7478 0.0
N726 N 0.38057 0.96901 0.74723 0.0
N727 N 0.36592 0.04321 0.73491 0.0
H728 H 0.36006 0.23233 0.86952 0.0
H729 H 0.57578 0.276 0.8894 0.0
H730 H 0.43327 0.17201 0.8551 0.0
H731 H 0.51252 0.33422 0.85135 0.0
H732 H 0.5199 0.23903 0.8939 0.0
H733 H 0.4131 0.27082 0.87946 0.0
C734 C 0.38724 0.22704 0.86901 0.0
C735 C 0.39246 0.19907 0.86125 0.0
C736 C 0.51829 0.26015 0.8851 0.0
C737 C 0.45266 0.24267 0.873 0.0
C738 C 0.55 0.28132 0.88267 0.0
C739 C 0.54876 0.30809 0.86967 0.0
C740 C 0.48512 0.26607 0.87502 0.0
C741 C 0.51465 0.31374 0.86121 0.0
C742 C 0.41733 0.249 0.87457 0.0
C743 C 0.42819 0.19339 0.86074 0.0
N744 N 0.48408 0.29277 0.8639 0.0
N745 N 0.45706 0.21508 0.86651 0.0
H746 H 0.35379 0.59007 0.27361 0.0
H747 H 0.4383 0.4461 0.28504 0.0
H748 H 0.36151 0.53587 0.20262 0.0
H749 H 0.36482 0.46811 0.347 0.0
H750 H 0.42655 0.48731 0.2569 0.0
H751 H 0.37303 0.55284 0.30301 0.0
C752 C 0.35971 0.57038 0.26421 0.0
C753 C 0.35587 0.56588 0.23569 0.0
C754 C 0.41354 0.48329 0.27687 0.0
C755 C 0.37872 0.52381 0.26906 0.0
C756 C 0.42055 0.46011 0.29305 0.0
C757 C 0.40254 0.45384 0.31837 0.0
C758 C 0.38912 0.50064 0.28646 0.0
C759 C 0.37923 0.4723 0.32759 0.0
C760 C 0.37063 0.54924 0.28098 0.0
C761 C 0.36384 0.54 0.22456 0.0
N762 N 0.37322 0.49495 0.31165 0.0
N763 N 0.3752 0.51994 0.24128 0.0
H764 H 0.59977 0.01908 0.35135 0.0
H765 H 0.60824 0.96694 0.1981 0.0
H766 H 0.55121 0.0613 0.28566 0.0
H767 H 0.59958 0.90569 0.26567 0.0
H768 H 0.59195 0.00364 0.22977 0.0
H769 H 0.60273 0.97789 0.32062 0.0
C770 C 0.58883 0.01927 0.33067 0.0
C771 C 0.57505 0.04347 0.32103 0.0
C772 C 0.59339 0.98206 0.23753 0.0
C773 C 0.57981 0.9972 0.28552 0.0
C774 C 0.60301 0.96127 0.21957 0.0
C775 C 0.60542 0.93333 0.22933 0.0
C776 C 0.58694 0.97499 0.26548 0.0
C777 C 0.59805 0.92699 0.25729 0.0
C778 C 0.59071 0.99589 0.31311 0.0
C779 C 0.56164 0.04286 0.29395 0.0
N780 N 0.58956 0.94776 0.27446 0.0
N781 N 0.56508 0.02036 0.2769 0.0
H782 H 0.54859 0.80499 0.09499 0.0
H783 H 0.42567 0.68772 0.185 0.0
H784 H 0.51907 0.82197 0.17875 0.0
H785 H 0.38658 0.70062 0.10285 0.0
H786 H 0.4725 0.73146 0.17948 0.0
H787 H 0.49757 0.76288 0.0938 0.0
C788 C 0.53098 0.80034 0.11286 0.0
C789 C 0.53851 0.81676 0.13718 0.0
C790 C 0.4538 0.7245 0.16261 0.0
C791 C 0.48149 0.76853 0.13606 0.0
C792 C 0.42732 0.69937 0.16557 0.0
C793 C 0.40189 0.69064 0.14444 0.0
C794 C 0.45539 0.74075 0.1382 0.0
C795 C 0.40551 0.70676 0.11972 0.0
C796 C 0.5021 0.77631 0.11214 0.0
C797 C 0.5147 0.8098 0.15966 0.0
N798 N 0.43186 0.73121 0.11723 0.0
N799 N 0.4878 0.7858 0.15877 0.0
loop_
_geom_bond_atom_site_label_1
_geom_bond_atom_site_label_2
_geom_bond_distance
_geom_bond_site_symmetry_2
_ccdc_geom_bond_type
O0 Cd1 2.223 . S
O0 C8 1.315 . S
Cd1 O0 2.223 . S
Cd1 O4 2.297 . S
Cd1 O5 2.439 . S
Cd1 O11 2.240 . S
Cd2 O3 2.240 . S
Cd2 O10 2.223 . S
Cd2 O12 2.297 . S
Cd2 O13 2.439 . S
O3 Cd2 2.240 . S
O3 C8 1.279 . S
O4 Cd1 2.297 . S
O4 C6 1.247 . S
O5 Cd1 2.439 . S
O5 C6 1.208 . S
C6 O4 1.247 . S
C6 O5 1.208 . S
C7 O12 1.247 . S
C7 O13 1.208 . S
C8 O0 1.315 . S
C8 O3 1.279 . S
C9 O10 1.315 . S
C9 O11 1.279 . S
O10 Cd2 2.223 . S
O10 C9 1.315 . S
O11 Cd1 2.240 . S
O11 C9 1.279 . S
O12 Cd2 2.297 . S
O12 C7 1.247 . S
O13 Cd2 2.439 . S
O13 C7 1.208 . S
O14 Cd15 2.223 . S
O14 C22 1.315 . S
Cd15 O14 2.223 . S
Cd15 O18 2.297 . S
Cd15 O19 2.439 . S
Cd15 O25 2.240 . S
Cd16 O17 2.240 . S
Cd16 O24 2.223 . S
Cd16 O26 2.297 . S
Cd16 O27 2.439 . S
O17 Cd16 2.240 . S
O17 C22 1.279 . S
O18 Cd15 2.297 . S
O18 C20 1.247 . S
O19 Cd15 2.439 . S
O19 C20 1.208 . S
C20 O18 1.247 . S
C20 O19 1.208 . S
C21 O26 1.247 . S
C21 O27 1.208 . S
C22 O14 1.315 . S
C22 O17 1.279 . S
C23 O24 1.315 . S
C23 O25 1.279 . S
O24 Cd16 2.223 . S
O24 C23 1.315 . S
O25 Cd15 2.240 . S
O25 C23 1.279 . S
O26 Cd16 2.297 . S
O26 C21 1.247 . S
O27 Cd16 2.439 . S
O27 C21 1.208 . S
O28 Cd29 2.223 . S
O28 C36 1.315 . S
Cd29 O28 2.223 . S
Cd29 O32 2.297 . S
Cd29 O33 2.439 . S
Cd29 O39 2.240 . S
Cd30 O31 2.240 . S
Cd30 O38 2.223 . S
Cd30 O40 2.297 . S
Cd30 O41 2.439 . S
O31 Cd30 2.240 . S
O31 C36 1.279 . S
O32 Cd29 2.297 . S
O32 C34 1.247 . S
O33 Cd29 2.439 . S
O33 C34 1.208 . S
C34 O32 1.247 . S
C34 O33 1.208 . S
C35 O40 1.247 . S
C35 O41 1.208 . S
C36 O28 1.315 . S
C36 O31 1.279 . S
C37 O38 1.315 . S
C37 O39 1.279 . S
O38 Cd30 2.223 . S
O38 C37 1.315 . S
O39 Cd29 2.240 . S
O39 C37 1.279 . S
O40 Cd30 2.297 . S
O40 C35 1.247 . S
O41 Cd30 2.439 . S
O41 C35 1.208 . S
O42 Cd43 2.223 . S
O42 C50 1.315 . S
Cd43 O42 2.223 . S
Cd43 O46 2.297 . S
Cd43 O47 2.439 . S
Cd43 O53 2.240 . S
Cd44 O45 2.240 . S
Cd44 O52 2.223 . S
Cd44 O54 2.297 . S
Cd44 O55 2.439 . S
O45 Cd44 2.240 . S
O45 C50 1.279 . S
O46 Cd43 2.297 . S
O46 C48 1.247 . S
O47 Cd43 2.439 . S
O47 C48 1.208 . S
C48 O46 1.247 . S
C48 O47 1.208 . S
C49 O54 1.247 . S
C49 O55 1.208 . S
C50 O42 1.315 . S
C50 O45 1.279 . S
C51 O52 1.315 . S
C51 O53 1.279 . S
O52 Cd44 2.223 . S
O52 C51 1.315 . S
O53 Cd43 2.240 . S
O53 C51 1.279 . S
O54 Cd44 2.297 . S
O54 C49 1.247 . S
O55 Cd44 2.439 . S
O55 C49 1.208 . S
O56 Cd57 2.223 . S
O56 C64 1.315 . S
Cd57 O56 2.223 . S
Cd57 O60 2.297 . S
Cd57 O61 2.439 . S
Cd57 O67 2.240 . S
Cd58 O59 2.240 . S
Cd58 O66 2.223 . S
Cd58 O68 2.297 . S
Cd58 O69 2.439 . S
O59 Cd58 2.240 . S
O59 C64 1.279 . S
O60 Cd57 2.297 . S
O60 C62 1.247 . S
O61 Cd57 2.439 . S
O61 C62 1.208 . S
C62 O60 1.247 . S
C62 O61 1.208 . S
C63 O68 1.247 . S
C63 O69 1.208 . S
C64 O56 1.315 . S
C64 O59 1.279 . S
C65 O66 1.315 . S
C65 O67 1.279 . S
O66 Cd58 2.223 . S
O66 C65 1.315 . S
O67 Cd57 2.240 . S
O67 C65 1.279 . S
O68 Cd58 2.297 . S
O68 C63 1.247 . S
O69 Cd58 2.439 . S
O69 C63 1.208 . S
O70 Cd71 2.223 . S
O70 C78 1.315 . S
Cd71 O70 2.223 . S
Cd71 O74 2.297 . S
Cd71 O75 2.439 . S
Cd71 O81 2.240 . S
Cd72 O73 2.240 . S
Cd72 O80 2.223 . S
Cd72 O82 2.297 . S
Cd72 O83 2.439 . S
O73 Cd72 2.240 . S
O73 C78 1.279 . S
O74 Cd71 2.297 . S
O74 C76 1.247 . S
O75 Cd71 2.439 . S
O75 C76 1.208 . S
C76 O74 1.247 . S
C76 O75 1.208 . S
C77 O82 1.247 . S
C77 O83 1.208 . S
C78 O70 1.315 . S
C78 O73 1.279 . S
C79 O80 1.315 . S
C79 O81 1.279 . S
O80 Cd72 2.223 . S
O80 C79 1.315 . S
O81 Cd71 2.240 . S
O81 C79 1.279 . S
O82 Cd72 2.297 . S
O82 C77 1.247 . S
O83 Cd72 2.439 . S
O83 C77 1.208 . S
O84 Cd85 2.223 . S
O84 C92 1.315 . S
Cd85 O84 2.223 . S
Cd85 O88 2.297 . S
Cd85 O89 2.439 . S
Cd85 O95 2.240 . S
Cd86 O87 2.240 . S
Cd86 O94 2.223 . S
Cd86 O96 2.297 . S
Cd86 O97 2.439 . S
O87 Cd86 2.240 . S
O87 C92 1.279 . S
O88 Cd85 2.297 . S
O88 C90 1.247 . S
O89 Cd85 2.439 . S
O89 C90 1.208 . S
C90 O88 1.247 . S
C90 O89 1.208 . S
C91 O96 1.247 . S
C91 O97 1.208 . S
C92 O84 1.315 . S
C92 O87 1.279 . S
C93 O94 1.315 . S
C93 O95 1.279 . S
O94 Cd86 2.223 . S
O94 C93 1.315 . S
O95 Cd85 2.240 . S
O95 C93 1.279 . S
O96 Cd86 2.297 . S
O96 C91 1.247 . S
O97 Cd86 2.439 . S
O97 C91 1.208 . S
O98 Cd99 2.223 . S
O98 C106 1.315 . S
Cd99 O98 2.223 . S
Cd99 O102 2.297 . S
Cd99 O103 2.439 . S
Cd99 O109 2.240 . S
Cd100 O101 2.240 . S
Cd100 O108 2.223 . S
Cd100 O110 2.297 . S
Cd100 O111 2.439 . S
O101 Cd100 2.240 . S
O101 C106 1.279 . S
O102 Cd99 2.297 . S
O102 C104 1.247 . S
O103 Cd99 2.439 . S
O103 C104 1.208 . S
C104 O102 1.247 . S
C104 O103 1.208 . S
C105 O110 1.247 . S
C105 O111 1.208 . S
C106 O98 1.315 . S
C106 O101 1.279 . S
C107 O108 1.315 . S
C107 O109 1.279 . S
O108 Cd100 2.223 . S
O108 C107 1.315 . S
O109 Cd99 2.240 . S
O109 C107 1.279 . S
O110 Cd100 2.297 . S
O110 C105 1.247 . S
O111 Cd100 2.439 . S
O111 C105 1.208 . S
O112 Cd113 2.223 . S
O112 C120 1.315 . S
Cd113 O112 2.223 . S
Cd113 O116 2.297 . S
Cd113 O117 2.439 . S
Cd113 O123 2.240 . S
Cd114 O115 2.240 . S
Cd114 O122 2.223 . S
Cd114 O124 2.297 . S
Cd114 O125 2.439 . S
O115 Cd114 2.240 . S
O115 C120 1.279 . S
O116 Cd113 2.297 . S
O116 C118 1.247 . S
O117 Cd113 2.439 . S
O117 C118 1.208 . S
C118 O116 1.247 . S
C118 O117 1.208 . S
C119 O124 1.247 . S
C119 O125 1.208 . S
C120 O112 1.315 . S
C120 O115 1.279 . S
C121 O122 1.315 . S
C121 O123 1.279 . S
O122 Cd114 2.223 . S
O122 C121 1.315 . S
O123 Cd113 2.240 . S
O123 C121 1.279 . S
O124 Cd114 2.297 . S
O124 C119 1.247 . S
O125 Cd114 2.439 . S
O125 C119 1.208 . S
O126 Cd127 2.223 . S
O126 C134 1.315 . S
Cd127 O126 2.223 . S
Cd127 O130 2.297 . S
Cd127 O131 2.439 . S
Cd127 O137 2.240 . S
Cd128 O129 2.240 . S
Cd128 O136 2.223 . S
Cd128 O138 2.297 . S
Cd128 O139 2.439 . S
O129 Cd128 2.240 . S
O129 C134 1.279 . S
O130 Cd127 2.297 . S
O130 C132 1.247 . S
O131 Cd127 2.439 . S
O131 C132 1.208 . S
C132 O130 1.247 . S
C132 O131 1.208 . S
C133 O138 1.247 . S
C133 O139 1.208 . S
C134 O126 1.315 . S
C134 O129 1.279 . S
C135 O136 1.315 . S
C135 O137 1.279 . S
O136 Cd128 2.223 . S
O136 C135 1.315 . S
O137 Cd127 2.240 . S
O137 C135 1.279 . S
O138 Cd128 2.297 . S
O138 C133 1.247 . S
O139 Cd128 2.439 . S
O139 C133 1.208 . S
O140 Cd141 2.223 . S
O140 C148 1.315 . S
Cd141 O140 2.223 . S
Cd141 O144 2.297 . S
Cd141 O145 2.439 . S
Cd141 O151 2.240 . S
Cd142 O143 2.240 . S
Cd142 O150 2.223 . S
Cd142 O152 2.297 . S
Cd142 O153 2.439 . S
O143 Cd142 2.240 . S
O143 C148 1.279 . S
O144 Cd141 2.297 . S
O144 C146 1.247 . S
O145 Cd141 2.439 . S
O145 C146 1.208 . S
C146 O144 1.247 . S
C146 O145 1.208 . S
C147 O152 1.247 . S
C147 O153 1.208 . S
C148 O140 1.315 . S
C148 O143 1.279 . S
C149 O150 1.315 . S
C149 O151 1.279 . S
O150 Cd142 2.223 . S
O150 C149 1.315 . S
O151 Cd141 2.240 . S
O151 C149 1.279 . S
O152 Cd142 2.297 . S
O152 C147 1.247 . S
O153 Cd142 2.439 . S
O153 C147 1.208 . S
O154 Cd155 2.223 . S
O154 C162 1.315 . S
Cd155 O154 2.223 . S
Cd155 O158 2.297 . S
Cd155 O159 2.439 . S
Cd155 O165 2.240 . S
Cd156 O157 2.240 . S
Cd156 O164 2.223 . S
Cd156 O166 2.297 . S
Cd156 O167 2.439 . S
O157 Cd156 2.240 . S
O157 C162 1.279 . S
O158 Cd155 2.297 . S
O158 C160 1.247 . S
O159 Cd155 2.439 . S
O159 C160 1.208 . S
C160 O158 1.247 . S
C160 O159 1.208 . S
C161 O166 1.247 . S
C161 O167 1.208 . S
C162 O154 1.315 . S
C162 O157 1.279 . S
C163 O164 1.315 . S
C163 O165 1.279 . S
O164 Cd156 2.223 . S
O164 C163 1.315 . S
O165 Cd155 2.240 . S
O165 C163 1.279 . S
O166 Cd156 2.297 . S
O166 C161 1.247 . S
O167 Cd156 2.439 . S
O167 C161 1.208 . S
O168 Cd169 2.223 . S
O168 C176 1.315 . S
Cd169 O168 2.223 . S
Cd169 O172 2.297 . S
Cd169 O173 2.439 . S
Cd169 O179 2.240 . S
Cd170 O171 2.240 . S
Cd170 O178 2.223 . S
Cd170 O180 2.297 . S
Cd170 O181 2.439 . S
O171 Cd170 2.240 . S
O171 C176 1.279 . S
O172 Cd169 2.297 . S
O172 C174 1.247 . S
O173 Cd169 2.439 . S
O173 C174 1.208 . S
C174 O172 1.247 . S
C174 O173 1.208 . S
C175 O180 1.247 . S
C175 O181 1.208 . S
C176 O168 1.315 . S
C176 O171 1.279 . S
C177 O178 1.315 . S
C177 O179 1.279 . S
O178 Cd170 2.223 . S
O178 C177 1.315 . S
O179 Cd169 2.240 . S
O179 C177 1.279 . S
O180 Cd170 2.297 . S
O180 C175 1.247 . S
O181 Cd170 2.439 . S
O181 C175 1.208 . S
O182 Cd183 2.223 . S
O182 C190 1.315 . S
Cd183 O182 2.223 . S
Cd183 O186 2.297 . S
Cd183 O187 2.439 . S
Cd183 O193 2.240 . S
Cd184 O185 2.240 . S
Cd184 O192 2.223 . S
Cd184 O194 2.297 . S
Cd184 O195 2.439 . S
O185 Cd184 2.240 . S
O185 C190 1.279 . S
O186 Cd183 2.297 . S
O186 C188 1.247 . S
O187 Cd183 2.439 . S
O187 C188 1.208 . S
C188 O186 1.247 . S
C188 O187 1.208 . S
C189 O194 1.247 . S
C189 O195 1.208 . S
C190 O182 1.315 . S
C190 O185 1.279 . S
C191 O192 1.315 . S
C191 O193 1.279 . S
O192 Cd184 2.223 . S
O192 C191 1.315 . S
O193 Cd183 2.240 . S
O193 C191 1.279 . S
O194 Cd184 2.297 . S
O194 C189 1.247 . S
O195 Cd184 2.439 . S
O195 C189 1.208 . S
O196 Cd197 2.223 . S
O196 C204 1.315 . S
Cd197 O196 2.223 . S
Cd197 O200 2.297 . S
Cd197 O201 2.439 . S
Cd197 O207 2.240 . S
Cd198 O199 2.240 . S
Cd198 O206 2.223 . S
Cd198 O208 2.297 . S
Cd198 O209 2.439 . S
O199 Cd198 2.240 . S
O199 C204 1.279 . S
O200 Cd197 2.297 . S
O200 C202 1.247 . S
O201 Cd197 2.439 . S
O201 C202 1.208 . S
C202 O200 1.247 . S
C202 O201 1.208 . S
C203 O208 1.247 . S
C203 O209 1.208 . S
C204 O196 1.315 . S
C204 O199 1.279 . S
C205 O206 1.315 . S
C205 O207 1.279 . S
O206 Cd198 2.223 . S
O206 C205 1.315 . S
O207 Cd197 2.240 . S
O207 C205 1.279 . S
O208 Cd198 2.297 . S
O208 C203 1.247 . S
O209 Cd198 2.439 . S
O209 C203 1.208 . S
O210 Cd211 2.223 . S
O210 C218 1.315 . S
Cd211 O210 2.223 . S
Cd211 O214 2.297 . S
Cd211 O215 2.439 . S
Cd211 O221 2.240 . S
Cd212 O213 2.240 . S
Cd212 O220 2.223 . S
Cd212 O222 2.297 . S
Cd212 O223 2.439 . S
O213 Cd212 2.240 . S
O213 C218 1.279 . S
O214 Cd211 2.297 . S
O214 C216 1.247 . S
O215 Cd211 2.439 . S
O215 C216 1.208 . S
C216 O214 1.247 . S
C216 O215 1.208 . S
C217 O222 1.247 . S
C217 O223 1.208 . S
C218 O210 1.315 . S
C218 O213 1.279 . S
C219 O220 1.315 . S
C219 O221 1.279 . S
O220 Cd212 2.223 . S
O220 C219 1.315 . S
O221 Cd211 2.240 . S
O221 C219 1.279 . S
O222 Cd212 2.297 . S
O222 C217 1.247 . S
O223 Cd212 2.439 . S
O223 C217 1.208 . S
H224 C230 0.930 . S
H225 C234 0.930 . S
H226 C239 0.929 . S
H227 C237 0.929 . S
H228 C232 0.929 . S
H229 C238 0.929 . S
C230 H224 0.930 . S
C230 C231 1.367 . S
C230 C238 1.378 . S
C231 C230 1.367 . S
C231 C239 1.433 . S
C232 H228 0.929 . S
C232 C234 1.378 . S
C232 C236 1.350 . S
C233 C236 1.463 . S
C233 C238 1.350 . S
C233 N241 1.427 . S
C234 H225 0.930 . S
C234 C232 1.378 . S
C234 C235 1.367 . S
C235 C234 1.367 . S
C235 C237 1.433 . S
C236 C232 1.350 . S
C236 C233 1.463 . S
C236 N240 1.427 . S
C237 H227 0.929 . S
C237 C235 1.433 . S
C237 N240 1.384 . S
C238 H229 0.929 . S
C238 C230 1.378 . S
C238 C233 1.350 . S
C239 H226 0.929 . S
C239 C231 1.433 . S
C239 N241 1.384 . S
N240 C236 1.427 . S
N240 C237 1.384 . S
N241 C233 1.427 . S
N241 C239 1.384 . S
H242 C248 0.930 . S
H243 C252 0.930 . S
H244 C257 0.929 . S
H245 C255 0.929 . S
H246 C250 0.929 . S
H247 C256 0.929 . S
C248 H242 0.930 . S
C248 C249 1.367 . S
C248 C256 1.378 . S
C249 C248 1.367 . S
C249 C257 1.433 . S
C250 H246 0.929 . S
C250 C252 1.378 . S
C250 C254 1.350 . S
C251 C254 1.463 . S
C251 C256 1.350 . S
C251 N259 1.427 . S
C252 H243 0.930 . S
C252 C250 1.378 . S
C252 C253 1.367 . S
C253 C252 1.367 . S
C253 C255 1.433 . S
C254 C250 1.350 . S
C254 C251 1.463 . S
C254 N258 1.427 . S
C255 H245 0.929 . S
C255 C253 1.433 . S
C255 N258 1.384 . S
C256 H247 0.929 . S
C256 C248 1.378 . S
C256 C251 1.350 . S
C257 H244 0.929 . S
C257 C249 1.433 . S
C257 N259 1.384 . S
N258 C254 1.427 . S
N258 C255 1.384 . S
N259 C251 1.427 . S
N259 C257 1.384 . S
H260 C266 0.930 . S
H261 C270 0.930 . S
H262 C275 0.929 . S
H263 C273 0.929 . S
H264 C268 0.929 . S
H265 C274 0.929 . S
C266 H260 0.930 . S
C266 C267 1.367 . S
C266 C274 1.378 . S
C267 C266 1.367 . S
C267 C275 1.433 . S
C268 H264 0.929 . S
C268 C270 1.378 . S
C268 C272 1.350 . S
C269 C272 1.463 . S
C269 C274 1.350 . S
C269 N277 1.427 . S
C270 H261 0.930 . S
C270 C268 1.378 . S
C270 C271 1.367 . S
C271 C270 1.367 . S
C271 C273 1.433 . S
C272 C268 1.350 . S
C272 C269 1.463 . S
C272 N276 1.427 . S
C273 H263 0.929 . S
C273 C271 1.433 . S
C273 N276 1.384 . S
C274 H265 0.929 . S
C274 C266 1.378 . S
C274 C269 1.350 . S
C275 H262 0.929 . S
C275 C267 1.433 . S
C275 N277 1.384 . S
N276 C272 1.427 . S
N276 C273 1.384 . S
N277 C269 1.427 . S
N277 C275 1.384 . S
H278 C284 0.930 . S
H279 C288 0.930 . S
H280 C293 0.929 . S
H281 C291 0.929 . S
H282 C286 0.929 . S
H283 C292 0.929 . S
C284 H278 0.930 . S
C284 C285 1.367 . S
C284 C292 1.378 . S
C285 C284 1.367 . S
C285 C293 1.433 . S
C286 H282 0.929 . S
C286 C288 1.378 . S
C286 C290 1.350 . S
C287 C290 1.463 . S
C287 C292 1.350 . S
C287 N295 1.427 . S
C288 H279 0.930 . S
C288 C286 1.378 . S
C288 C289 1.367 . S
C289 C288 1.367 . S
C289 C291 1.433 . S
C290 C286 1.350 . S
C290 C287 1.463 . S
C290 N294 1.427 . S
C291 H281 0.929 . S
C291 C289 1.433 . S
C291 N294 1.384 . S
C292 H283 0.929 . S
C292 C284 1.378 . S
C292 C287 1.350 . S
C293 H280 0.929 . S
C293 C285 1.433 . S
C293 N295 1.384 . S
N294 C290 1.427 . S
N294 C291 1.384 . S
N295 C287 1.427 . S
N295 C293 1.384 . S
H296 C302 0.930 . S
H297 C306 0.930 . S
H298 C311 0.929 . S
H299 C309 0.929 . S
H300 C304 0.929 . S
H301 C310 0.929 . S
C302 H296 0.930 . S
C302 C303 1.367 . S
C302 C310 1.378 . S
C303 C302 1.367 . S
C303 C311 1.433 . S
C304 H300 0.929 . S
C304 C306 1.378 . S
C304 C308 1.350 . S
C305 C308 1.463 . S
C305 C310 1.350 . S
C305 N313 1.427 . S
C306 H297 0.930 . S
C306 C304 1.378 . S
C306 C307 1.367 . S
C307 C306 1.367 . S
C307 C309 1.433 . S
C308 C304 1.350 . S
C308 C305 1.463 . S
C308 N312 1.427 . S
C309 H299 0.929 . S
C309 C307 1.433 . S
C309 N312 1.384 . S
C310 H301 0.929 . S
C310 C302 1.378 . S
C310 C305 1.350 . S
C311 H298 0.929 . S
C311 C303 1.433 . S
C311 N313 1.384 . S
N312 C308 1.427 . S
N312 C309 1.384 . S
N313 C305 1.427 . S
N313 C311 1.384 . S
H314 C320 0.930 . S
H315 C324 0.930 . S
H316 C329 0.929 . S
H317 C327 0.929 . S
H318 C322 0.929 . S
H319 C328 0.929 . S
C320 H314 0.930 . S
C320 C321 1.367 . S
C320 C328 1.378 . S
C321 C320 1.367 . S
C321 C329 1.433 . S
C322 H318 0.929 . S
C322 C324 1.378 . S
C322 C326 1.350 . S
C323 C326 1.463 . S
C323 C328 1.350 . S
C323 N331 1.427 . S
C324 H315 0.930 . S
C324 C322 1.378 . S
C324 C325 1.367 . S
C325 C324 1.367 . S
C325 C327 1.433 . S
C326 C322 1.350 . S
C326 C323 1.463 . S
C326 N330 1.427 . S
C327 H317 0.929 . S
C327 C325 1.433 . S
C327 N330 1.384 . S
C328 H319 0.929 . S
C328 C320 1.378 . S
C328 C323 1.350 . S
C329 H316 0.929 . S
C329 C321 1.433 . S
C329 N331 1.384 . S
N330 C326 1.427 . S
N330 C327 1.384 . S
N331 C323 1.427 . S
N331 C329 1.384 . S
H332 C338 0.930 . S
H333 C342 0.930 . S
H334 C347 0.929 . S
H335 C345 0.929 . S
H336 C340 0.929 . S
H337 C346 0.929 . S
C338 H332 0.930 . S
C338 C339 1.367 . S
C338 C346 1.378 . S
C339 C338 1.367 . S
C339 C347 1.433 . S
C340 H336 0.929 . S
C340 C342 1.378 . S
C340 C344 1.350 . S
C341 C344 1.463 . S
C341 C346 1.350 . S
C341 N349 1.427 . S
C342 H333 0.930 . S
C342 C340 1.378 . S
C342 C343 1.367 . S
C343 C342 1.367 . S
C343 C345 1.433 . S
C344 C340 1.350 . S
C344 C341 1.463 . S
C344 N348 1.427 . S
C345 H335 0.929 . S
C345 C343 1.433 . S
C345 N348 1.384 . S
C346 H337 0.929 . S
C346 C338 1.378 . S
C346 C341 1.350 . S
C347 H334 0.929 . S
C347 C339 1.433 . S
C347 N349 1.384 . S
N348 C344 1.427 . S
N348 C345 1.384 . S
N349 C341 1.427 . S
N349 C347 1.384 . S
H350 C356 0.930 . S
H351 C360 0.930 . S
H352 C365 0.929 . S
H353 C363 0.929 . S
H354 C358 0.929 . S
H355 C364 0.929 . S
C356 H350 0.930 . S
C356 C357 1.367 . S
C356 C364 1.378 . S
C357 C356 1.367 . S
C357 C365 1.433 . S
C358 H354 0.929 . S
C358 C360 1.378 . S
C358 C362 1.350 . S
C359 C362 1.463 . S
C359 C364 1.350 . S
C359 N367 1.427 . S
C360 H351 0.930 . S
C360 C358 1.378 . S
C360 C361 1.367 . S
C361 C360 1.367 . S
C361 C363 1.433 . S
C362 C358 1.350 . S
C362 C359 1.463 . S
C362 N366 1.427 . S
C363 H353 0.929 . S
C363 C361 1.433 . S
C363 N366 1.384 . S
C364 H355 0.929 . S
C364 C356 1.378 . S
C364 C359 1.350 . S
C365 H352 0.929 . S
C365 C357 1.433 . S
C365 N367 1.384 . S
N366 C362 1.427 . S
N366 C363 1.384 . S
N367 C359 1.427 . S
N367 C365 1.384 . S
H368 C374 0.930 . S
H369 C378 0.930 . S
H370 C383 0.929 . S
H371 C381 0.929 . S
H372 C376 0.929 . S
H373 C382 0.929 . S
C374 H368 0.930 . S
C374 C375 1.367 . S
C374 C382 1.378 1_565 S
C375 C374 1.367 . S
C375 C383 1.433 . S
C376 H372 0.929 . S
C376 C378 1.378 . S
C376 C380 1.350 . S
C377 C380 1.473 . S
C377 C382 1.350 . S
C377 N385 1.417 1_545 S
C378 H369 0.930 . S
C378 C376 1.378 . S
C378 C379 1.367 . S
C379 C378 1.367 . S
C379 C381 1.433 . S
C380 C376 1.350 . S
C380 C377 1.473 . S
C380 N384 1.427 . S
C381 H371 0.929 . S
C381 C379 1.433 . S
C381 N384 1.384 . S
C382 H373 0.929 . S
C382 C374 1.378 1_545 S
C382 C377 1.350 . S
C383 H370 0.929 . S
C383 C375 1.433 . S
C383 N385 1.384 . S
N384 C380 1.427 . S
N384 C381 1.384 . S
N385 C377 1.417 1_565 S
N385 C383 1.384 . S
H386 C392 0.930 . S
H387 C396 0.930 . S
H388 C401 0.929 . S
H389 C399 0.929 . S
H390 C394 0.929 . S
H391 C400 0.929 . S
C392 H386 0.930 . S
C392 C393 1.367 . S
C392 C400 1.378 . S
C393 C392 1.367 . S
C393 C401 1.433 . S
C394 H390 0.929 . S
C394 C396 1.378 . S
C394 C398 1.350 . S
C395 C398 1.463 . S
C395 C400 1.350 . S
C395 N403 1.427 . S
C396 H387 0.930 . S
C396 C394 1.378 . S
C396 C397 1.367 . S
C397 C396 1.367 . S
C397 C399 1.433 . S
C398 C394 1.350 . S
C398 C395 1.463 . S
C398 N402 1.427 . S
C399 H389 0.929 . S
C399 C397 1.433 . S
C399 N402 1.384 . S
C400 H391 0.929 . S
C400 C392 1.378 . S
C400 C395 1.350 . S
C401 H388 0.929 . S
C401 C393 1.433 . S
C401 N403 1.384 . S
N402 C398 1.427 . S
N402 C399 1.384 . S
N403 C395 1.427 . S
N403 C401 1.384 . S
H404 C410 0.930 . S
H405 C414 0.930 . S
H406 C419 0.929 . S
H407 C417 0.929 . S
H408 C412 0.929 . S
H409 C418 0.929 . S
C410 H404 0.930 . S
C410 C411 1.367 . S
C410 C418 1.378 . S
C411 C410 1.367 . S
C411 C419 1.433 . S
C412 H408 0.929 . S
C412 C414 1.378 . S
C412 C416 1.350 1_554 S
C413 C416 1.463 . S
C413 C418 1.350 . S
C413 N421 1.427 . S
C414 H405 0.930 . S
C414 C412 1.378 . S
C414 C415 1.367 . S
C415 C414 1.367 . S
C415 C417 1.433 . S
C416 C412 1.350 1_556 S
C416 C413 1.463 . S
C416 N420 1.427 . S
C417 H407 0.929 . S
C417 C415 1.433 . S
C417 N420 1.384 1_554 S
C418 H409 0.929 . S
C418 C410 1.378 . S
C418 C413 1.350 . S
C419 H406 0.929 . S
C419 C411 1.433 . S
C419 N421 1.384 . S
N420 C416 1.427 . S
N420 C417 1.384 1_556 S
N421 C413 1.427 . S
N421 C419 1.384 . S
H422 C428 0.930 . S
H423 C432 0.930 . S
H424 C437 0.929 . S
H425 C435 0.929 . S
H426 C430 0.929 . S
H427 C436 0.929 1_556 S
C428 H422 0.930 . S
C428 C429 1.367 . S
C428 C436 1.378 . S
C429 C428 1.367 . S
C429 C437 1.433 . S
C430 H426 0.929 . S
C430 C432 1.378 . S
C430 C434 1.350 . S
C431 C434 1.463 . S
C431 C436 1.350 1_556 S
C431 N439 1.427 1_556 S
C432 H423 0.930 . S
C432 C430 1.378 . S
C432 C433 1.367 . S
C433 C432 1.367 . S
C433 C435 1.433 . S
C434 C430 1.350 . S
C434 C431 1.463 . S
C434 N438 1.427 . S
C435 H425 0.929 . S
C435 C433 1.433 . S
C435 N438 1.384 . S
C436 H427 0.929 1_554 S
C436 C428 1.378 . S
C436 C431 1.350 1_554 S
C437 H424 0.929 . S
C437 C429 1.433 . S
C437 N439 1.384 . S
N438 C434 1.427 . S
N438 C435 1.384 . S
N439 C431 1.427 1_554 S
N439 C437 1.384 . S
H440 C446 0.930 . S
H441 C450 0.930 . S
H442 C455 0.929 . S
H443 C453 0.929 . S
H444 C448 0.929 . S
H445 C454 0.929 . S
C446 H440 0.930 . S
C446 C447 1.367 . S
C446 C454 1.378 . S
C447 C446 1.367 . S
C447 C455 1.433 . S
C448 H444 0.929 . S
C448 C450 1.378 . S
C448 C452 1.350 . S
C449 C452 1.463 . S
C449 C454 1.350 . S
C449 N457 1.427 . S
C450 H441 0.930 . S
C450 C448 1.378 . S
C450 C451 1.367 . S
C451 C450 1.367 . S
C451 C453 1.433 . S
C452 C448 1.350 . S
C452 C449 1.463 . S
C452 N456 1.427 . S
C453 H443 0.929 . S
C453 C451 1.433 . S
C453 N456 1.384 . S
C454 H445 0.929 . S
C454 C446 1.378 . S
C454 C449 1.350 . S
C455 H442 0.929 . S
C455 C447 1.433 . S
C455 N457 1.384 . S
N456 C452 1.427 . S
N456 C453 1.384 . S
N457 C449 1.427 . S
N457 C455 1.384 . S
H458 C464 0.930 . S
H459 C468 0.930 . S
H460 C473 0.929 . S
H461 C471 0.929 . S
H462 C466 0.929 . S
H463 C472 0.929 . S
C464 H458 0.930 . S
C464 C465 1.367 . S
C464 C472 1.378 . S
C465 C464 1.367 . S
C465 C473 1.433 . S
C466 H462 0.929 . S
C466 C468 1.378 . S
C466 C470 1.350 . S
C467 C470 1.463 . S
C467 C472 1.350 . S
C467 N475 1.427 . S
C468 H459 0.930 . S
C468 C466 1.378 . S
C468 C469 1.367 . S
C469 C468 1.367 . S
C469 C471 1.433 . S
C470 C466 1.350 . S
C470 C467 1.463 . S
C470 N474 1.427 . S
C471 H461 0.929 . S
C471 C469 1.433 . S
C471 N474 1.384 . S
C472 H463 0.929 . S
C472 C464 1.378 . S
C472 C467 1.350 . S
C473 H460 0.929 . S
C473 C465 1.433 . S
C473 N475 1.384 . S
N474 C470 1.427 . S
N474 C471 1.384 . S
N475 C467 1.427 . S
N475 C473 1.384 . S
H476 C482 0.930 . S
H477 C486 0.930 . S
H478 C491 0.929 . S
H479 C489 0.929 . S
H480 C484 0.929 . S
H481 C490 0.929 . S
C482 H476 0.930 . S
C482 C483 1.367 . S
C482 C490 1.378 . S
C483 C482 1.367 . S
C483 C491 1.433 . S
C484 H480 0.929 . S
C484 C486 1.378 . S
C484 C488 1.350 . S
C485 C488 1.463 1_655 S
C485 C490 1.350 . S
C485 N493 1.427 . S
C486 H477 0.930 . S
C486 C484 1.378 . S
C486 C487 1.367 . S
C487 C486 1.367 . S
C487 C489 1.433 . S
C488 C484 1.350 . S
C488 C485 1.463 1_455 S
C488 N492 1.427 . S
C489 H479 0.929 . S
C489 C487 1.433 . S
C489 N492 1.384 . S
C490 H481 0.929 . S
C490 C482 1.378 . S
C490 C485 1.350 . S
C491 H478 0.929 . S
C491 C483 1.433 . S
C491 N493 1.384 . S
N492 C488 1.427 . S
N492 C489 1.384 . S
N493 C485 1.427 . S
N493 C491 1.384 . S
H494 C500 0.930 . S
H495 C504 0.930 . S
H496 C509 0.929 . S
H497 C507 0.929 . S
H498 C502 0.929 . S
H499 C508 0.929 . S
C500 H494 0.930 . S
C500 C501 1.367 . S
C500 C508 1.378 . S
C501 C500 1.367 . S
C501 C509 1.433 . S
C502 H498 0.929 . S
C502 C504 1.378 . S
C502 C506 1.350 . S
C503 C506 1.463 1_655 S
C503 C508 1.350 . S
C503 N511 1.427 . S
C504 H495 0.930 . S
C504 C502 1.378 . S
C504 C505 1.367 . S
C505 C504 1.367 . S
C505 C507 1.433 . S
C506 C502 1.350 . S
C506 C503 1.463 1_455 S
C506 N510 1.427 . S
C507 H497 0.929 . S
C507 C505 1.433 . S
C507 N510 1.384 . S
C508 H499 0.929 . S
C508 C500 1.378 . S
C508 C503 1.350 . S
C509 H496 0.929 . S
C509 C501 1.433 . S
C509 N511 1.384 . S
N510 C506 1.427 . S
N510 C507 1.384 . S
N511 C503 1.427 . S
N511 C509 1.384 . S
H512 C518 0.930 . S
H513 C522 0.930 . S
H514 C527 0.929 . S
H515 C525 0.929 . S
H516 C520 0.929 . S
H517 C526 0.929 . S
C518 H512 0.930 . S
C518 C519 1.367 . S
C518 C526 1.378 . S
C519 C518 1.367 . S
C519 C527 1.433 . S
C520 H516 0.929 . S
C520 C522 1.378 . S
C520 C524 1.350 . S
C521 C524 1.463 . S
C521 C526 1.350 . S
C521 N529 1.427 . S
C522 H513 0.930 . S
C522 C520 1.378 . S
C522 C523 1.367 . S
C523 C522 1.367 . S
C523 C525 1.433 . S
C524 C520 1.350 . S
C524 C521 1.463 . S
C524 N528 1.427 . S
C525 H515 0.929 . S
C525 C523 1.433 . S
C525 N528 1.384 . S
C526 H517 0.929 . S
C526 C518 1.378 . S
C526 C521 1.350 . S
C527 H514 0.929 . S
C527 C519 1.433 . S
C527 N529 1.384 . S
N528 C524 1.427 . S
N528 C525 1.384 . S
N529 C521 1.427 . S
N529 C527 1.384 . S
H530 C536 0.930 . S
H531 C540 0.930 . S
H532 C545 0.929 . S
H533 C543 0.929 . S
H534 C538 0.929 . S
H535 C544 0.929 1_565 S
C536 H530 0.930 . S
C536 C537 1.367 . S
C536 C544 1.378 . S
C537 C536 1.367 . S
C537 C545 1.433 . S
C538 H534 0.929 . S
C538 C540 1.378 . S
C538 C542 1.350 . S
C539 C542 1.463 1_545 S
C539 C544 1.350 . S
C539 N547 1.427 . S
C540 H531 0.930 . S
C540 C538 1.378 . S
C540 C541 1.367 . S
C541 C540 1.367 . S
C541 C543 1.433 . S
C542 C538 1.350 . S
C542 C539 1.463 1_565 S
C542 N546 1.427 . S
C543 H533 0.929 . S
C543 C541 1.433 . S
C543 N546 1.384 . S
C544 H535 0.929 1_545 S
C544 C536 1.378 . S
C544 C539 1.350 . S
C545 H532 0.929 . S
C545 C537 1.433 . S
C545 N547 1.384 . S
N546 C542 1.427 . S
N546 C543 1.384 . S
N547 C539 1.427 . S
N547 C545 1.384 . S
H548 C554 0.930 . S
H549 C558 0.930 . S
H550 C563 0.929 . S
H551 C561 0.929 . S
H552 C556 0.929 . S
H553 C562 0.929 . S
C554 H548 0.930 . S
C554 C555 1.367 . S
C554 C562 1.378 . S
C555 C554 1.367 . S
C555 C563 1.433 . S
C556 H552 0.929 . S
C556 C558 1.378 . S
C556 C560 1.350 . S
C557 C560 1.463 . S
C557 C562 1.350 . S
C557 N565 1.427 . S
C558 H549 0.930 . S
C558 C556 1.378 . S
C558 C559 1.367 . S
C559 C558 1.367 . S
C559 C561 1.433 . S
C560 C556 1.350 . S
C560 C557 1.463 . S
C560 N564 1.427 . S
C561 H551 0.929 . S
C561 C559 1.433 . S
C561 N564 1.384 . S
C562 H553 0.929 . S
C562 C554 1.378 . S
C562 C557 1.350 . S
C563 H550 0.929 . S
C563 C555 1.433 . S
C563 N565 1.384 . S
N564 C560 1.427 . S
N564 C561 1.384 . S
N565 C557 1.427 . S
N565 C563 1.384 . S
H566 C572 0.930 . S
H567 C576 0.930 . S
H568 C581 0.929 . S
H569 C579 0.929 . S
H570 C574 0.929 1_554 S
H571 C580 0.929 . S
C572 H566 0.930 . S
C572 C573 1.367 . S
C572 C580 1.378 . S
C573 C572 1.367 . S
C573 C581 1.433 . S
C574 H570 0.929 1_556 S
C574 C576 1.378 . S
C574 C578 1.350 1_556 S
C575 C578 1.463 . S
C575 C580 1.350 . S
C575 N583 1.427 . S
C576 H567 0.930 . S
C576 C574 1.378 . S
C576 C577 1.367 . S
C577 C576 1.367 . S
C577 C579 1.433 . S
C578 C574 1.350 1_554 S
C578 C575 1.463 . S
C578 N582 1.427 1_554 S
C579 H569 0.929 . S
C579 C577 1.433 . S
C579 N582 1.384 . S
C580 H571 0.929 . S
C580 C572 1.378 . S
C580 C575 1.350 . S
C581 H568 0.929 . S
C581 C573 1.433 . S
C581 N583 1.384 . S
N582 C578 1.427 1_556 S
N582 C579 1.384 . S
N583 C575 1.427 . S
N583 C581 1.384 . S
H584 C590 0.930 . S
H585 C594 0.930 . S
H586 C599 0.929 . S
H587 C597 0.929 . S
H588 C592 0.929 . S
H589 C598 0.929 1_554 S
C590 H584 0.930 . S
C590 C591 1.367 . S
C590 C598 1.378 . S
C591 C590 1.367 . S
C591 C599 1.433 . S
C592 H588 0.929 . S
C592 C594 1.378 . S
C592 C596 1.350 . S
C593 C596 1.463 . S
C593 C598 1.350 1_554 S
C593 N601 1.427 1_554 S
C594 H585 0.930 . S
C594 C592 1.378 . S
C594 C595 1.367 . S
C595 C594 1.367 . S
C595 C597 1.433 . S
C596 C592 1.350 . S
C596 C593 1.463 . S
C596 N600 1.427 . S
C597 H587 0.929 . S
C597 C595 1.433 . S
C597 N600 1.384 . S
C598 H589 0.929 1_556 S
C598 C590 1.378 . S
C598 C593 1.350 1_556 S
C599 H586 0.929 . S
C599 C591 1.433 . S
C599 N601 1.384 . S
N600 C596 1.427 . S
N600 C597 1.384 . S
N601 C593 1.427 1_556 S
N601 C599 1.384 . S
H602 C608 0.930 . S
H603 C612 0.930 . S
H604 C617 0.929 . S
H605 C615 0.929 . S
H606 C610 0.929 . S
H607 C616 0.929 . S
C608 H602 0.930 . S
C608 C609 1.367 . S
C608 C616 1.378 . S
C609 C608 1.367 . S
C609 C617 1.433 . S
C610 H606 0.929 . S
C610 C612 1.378 . S
C610 C614 1.350 . S
C611 C614 1.463 . S
C611 C616 1.350 . S
C611 N619 1.427 . S
C612 H603 0.930 . S
C612 C610 1.378 . S
C612 C613 1.367 . S
C613 C612 1.367 . S
C613 C615 1.433 . S
C614 C610 1.350 . S
C614 C611 1.463 . S
C614 N618 1.427 . S
C615 H605 0.929 . S
C615 C613 1.433 . S
C615 N618 1.384 . S
C616 H607 0.929 . S
C616 C608 1.378 . S
C616 C611 1.350 . S
C617 H604 0.929 . S
C617 C609 1.433 . S
C617 N619 1.384 . S
N618 C614 1.427 . S
N618 C615 1.384 . S
N619 C611 1.427 . S
N619 C617 1.384 . S
H620 C626 0.930 . S
H621 C630 0.930 . S
H622 C635 0.929 . S
H623 C633 0.929 . S
H624 C628 0.929 . S
H625 C634 0.929 . S
C626 H620 0.930 . S
C626 C627 1.367 . S
C626 C634 1.378 . S
C627 C626 1.367 . S
C627 C635 1.433 . S
C628 H624 0.929 . S
C628 C630 1.378 . S
C628 C632 1.350 . S
C629 C632 1.463 . S
C629 C634 1.350 . S
C629 N637 1.427 . S
C630 H621 0.930 . S
C630 C628 1.378 . S
C630 C631 1.367 . S
C631 C630 1.367 . S
C631 C633 1.433 . S
C632 C628 1.350 . S
C632 C629 1.463 . S
C632 N636 1.427 . S
C633 H623 0.929 . S
C633 C631 1.433 . S
C633 N636 1.384 . S
C634 H625 0.929 . S
C634 C626 1.378 . S
C634 C629 1.350 . S
C635 H622 0.929 . S
C635 C627 1.433 . S
C635 N637 1.384 . S
N636 C632 1.427 . S
N636 C633 1.384 . S
N637 C629 1.427 . S
N637 C635 1.384 . S
H638 C644 0.930 . S
H639 C648 0.930 . S
H640 C653 0.929 . S
H641 C651 0.929 . S
H642 C646 0.929 1_455 S
H643 C652 0.929 1_655 S
C644 H638 0.930 . S
C644 C645 1.367 . S
C644 C652 1.378 . S
C645 C644 1.367 . S
C645 C653 1.433 . S
C646 H642 0.929 1_655 S
C646 C648 1.378 . S
C646 C650 1.350 . S
C647 C650 1.463 1_455 S
C647 C652 1.350 . S
C647 N655 1.427 . S
C648 H639 0.930 . S
C648 C646 1.378 . S
C648 C649 1.367 . S
C649 C648 1.367 . S
C649 C651 1.433 . S
C650 C646 1.350 . S
C650 C647 1.463 1_655 S
C650 N654 1.427 . S
C651 H641 0.929 . S
C651 C649 1.433 . S
C651 N654 1.384 . S
C652 H643 0.929 1_455 S
C652 C644 1.378 . S
C652 C647 1.350 . S
C653 H640 0.929 . S
C653 C645 1.433 . S
C653 N655 1.384 . S
N654 C650 1.427 . S
N654 C651 1.384 . S
N655 C647 1.427 . S
N655 C653 1.384 . S
H656 C662 0.930 . S
H657 C666 0.930 . S
H658 C671 0.929 . S
H659 C669 0.929 . S
H660 C664 0.929 . S
H661 C670 0.929 . S
C662 H656 0.930 . S
C662 C663 1.367 . S
C662 C670 1.378 . S
C663 C662 1.367 . S
C663 C671 1.433 . S
C664 H660 0.929 . S
C664 C666 1.378 . S
C664 C668 1.350 . S
C665 C668 1.463 1_455 S
C665 C670 1.350 . S
C665 N673 1.427 . S
C666 H657 0.930 . S
C666 C664 1.378 . S
C666 C667 1.367 . S
C667 C666 1.367 . S
C667 C669 1.433 . S
C668 C664 1.350 . S
C668 C665 1.463 1_655 S
C668 N672 1.427 . S
C669 H659 0.929 . S
C669 C667 1.433 . S
C669 N672 1.384 . S
C670 H661 0.929 . S
C670 C662 1.378 . S
C670 C665 1.350 . S
C671 H658 0.929 . S
C671 C663 1.433 . S
C671 N673 1.384 . S
N672 C668 1.427 . S
N672 C669 1.384 . S
N673 C665 1.427 . S
N673 C671 1.384 . S
H674 C680 0.930 . S
H675 C684 0.930 . S
H676 C689 0.929 . S
H677 C687 0.929 . S
H678 C682 0.929 . S
H679 C688 0.929 . S
C680 H674 0.930 . S
C680 C681 1.367 . S
C680 C688 1.378 . S
C681 C680 1.367 . S
C681 C689 1.433 . S
C682 H678 0.929 . S
C682 C684 1.378 . S
C682 C686 1.350 . S
C683 C686 1.463 . S
C683 C688 1.350 . S
C683 N691 1.427 . S
C684 H675 0.930 . S
C684 C682 1.378 . S
C684 C685 1.367 . S
C685 C684 1.367 . S
C685 C687 1.433 . S
C686 C682 1.350 . S
C686 C683 1.463 . S
C686 N690 1.427 . S
C687 H677 0.929 . S
C687 C685 1.433 . S
C687 N690 1.384 . S
C688 H679 0.929 . S
C688 C680 1.378 . S
C688 C683 1.350 . S
C689 H676 0.929 . S
C689 C681 1.433 . S
C689 N691 1.384 . S
N690 C686 1.427 . S
N690 C687 1.384 . S
N691 C683 1.427 . S
N691 C689 1.384 . S
H692 C698 0.930 . S
H693 C702 0.930 . S
H694 C707 0.929 . S
H695 C705 0.929 . S
H696 C700 0.929 . S
H697 C706 0.929 . S
C698 H692 0.930 . S
C698 C699 1.367 . S
C698 C706 1.378 . S
C699 C698 1.367 . S
C699 C707 1.433 . S
C700 H696 0.929 . S
C700 C702 1.378 . S
C700 C704 1.350 . S
C701 C704 1.463 . S
C701 C706 1.350 . S
C701 N709 1.427 . S
C702 H693 0.930 . S
C702 C700 1.378 . S
C702 C703 1.367 . S
C703 C702 1.367 . S
C703 C705 1.433 . S
C704 C700 1.350 . S
C704 C701 1.463 . S
C704 N708 1.427 . S
C705 H695 0.929 . S
C705 C703 1.433 . S
C705 N708 1.384 . S
C706 H697 0.929 . S
C706 C698 1.378 . S
C706 C701 1.350 . S
C707 H694 0.929 . S
C707 C699 1.433 . S
C707 N709 1.384 . S
N708 C704 1.427 . S
N708 C705 1.384 . S
N709 C701 1.427 . S
N709 C707 1.384 . S
H710 C716 0.930 . S
H711 C720 0.930 . S
H712 C725 0.929 . S
H713 C723 0.929 . S
H714 C718 0.929 . S
H715 C724 0.929 . S
C716 H710 0.930 . S
C716 C717 1.367 . S
C716 C724 1.378 1_545 S
C717 C716 1.367 . S
C717 C725 1.433 . S
C718 H714 0.929 . S
C718 C720 1.378 . S
C718 C722 1.350 . S
C719 C722 1.472 . S
C719 C724 1.349 . S
C719 N727 1.419 1_565 S
C720 H711 0.930 . S
C720 C718 1.378 . S
C720 C721 1.367 . S
C721 C720 1.367 . S
C721 C723 1.433 . S
C722 C718 1.350 . S
C722 C719 1.472 . S
C722 N726 1.427 . S
C723 H713 0.929 . S
C723 C721 1.433 . S
C723 N726 1.384 . S
C724 H715 0.929 . S
C724 C716 1.378 1_565 S
C724 C719 1.349 . S
C725 H712 0.929 . S
C725 C717 1.433 . S
C725 N727 1.384 . S
N726 C722 1.427 . S
N726 C723 1.384 . S
N727 C719 1.419 1_545 S
N727 C725 1.384 . S
H728 C734 0.930 . S
H729 C738 0.930 . S
H730 C743 0.929 . S
H731 C741 0.929 . S
H732 C736 0.929 . S
H733 C742 0.929 . S
C734 H728 0.930 . S
C734 C735 1.367 . S
C734 C742 1.378 . S
C735 C734 1.367 . S
C735 C743 1.433 . S
C736 H732 0.929 . S
C736 C738 1.378 . S
C736 C740 1.350 . S
C737 C740 1.463 . S
C737 C742 1.350 . S
C737 N745 1.427 . S
C738 H729 0.930 . S
C738 C736 1.378 . S
C738 C739 1.367 . S
C739 C738 1.367 . S
C739 C741 1.433 . S
C740 C736 1.350 . S
C740 C737 1.463 . S
C740 N744 1.427 . S
C741 H731 0.929 . S
C741 C739 1.433 . S
C741 N744 1.384 . S
C742 H733 0.929 . S
C742 C734 1.378 . S
C742 C737 1.350 . S
C743 H730 0.929 . S
C743 C735 1.433 . S
C743 N745 1.384 . S
N744 C740 1.427 . S
N744 C741 1.384 . S
N745 C737 1.427 . S
N745 C743 1.384 . S
H746 C752 0.930 . S
H747 C756 0.930 . S
H748 C761 0.929 . S
H749 C759 0.929 . S
H750 C754 0.929 . S
H751 C760 0.929 . S
C752 H746 0.930 . S
C752 C753 1.367 . S
C752 C760 1.378 . S
C753 C752 1.367 . S
C753 C761 1.433 . S
C754 H750 0.929 . S
C754 C756 1.378 . S
C754 C758 1.350 . S
C755 C758 1.463 . S
C755 C760 1.350 . S
C755 N763 1.427 . S
C756 H747 0.930 . S
C756 C754 1.378 . S
C756 C757 1.367 . S
C757 C756 1.367 . S
C757 C759 1.433 . S
C758 C754 1.350 . S
C758 C755 1.463 . S
C758 N762 1.427 . S
C759 H749 0.929 . S
C759 C757 1.433 . S
C759 N762 1.384 . S
C760 H751 0.929 . S
C760 C752 1.378 . S
C760 C755 1.350 . S
C761 H748 0.929 . S
C761 C753 1.433 . S
C761 N763 1.384 . S
N762 C758 1.427 . S
N762 C759 1.384 . S
N763 C755 1.427 . S
N763 C761 1.384 . S
H764 C770 0.930 . S
H765 C774 0.930 . S
H766 C779 0.929 . S
H767 C777 0.929 . S
H768 C772 0.929 . S
H769 C778 0.929 . S
C770 H764 0.930 . S
C770 C771 1.367 . S
C770 C778 1.378 . S
C771 C770 1.367 . S
C771 C779 1.433 . S
C772 H768 0.929 . S
C772 C774 1.378 . S
C772 C776 1.350 . S
C773 C776 1.463 1_545 S
C773 C778 1.350 . S
C773 N781 1.427 . S
C774 H765 0.930 . S
C774 C772 1.378 . S
C774 C775 1.367 . S
C775 C774 1.367 . S
C775 C777 1.433 . S
C776 C772 1.350 . S
C776 C773 1.463 1_565 S
C776 N780 1.427 . S
C777 H767 0.929 . S
C777 C775 1.433 . S
C777 N780 1.384 . S
C778 H769 0.929 . S
C778 C770 1.378 . S
C778 C773 1.350 . S
C779 H766 0.929 . S
C779 C771 1.433 . S
C779 N781 1.384 . S
N780 C776 1.427 . S
N780 C777 1.384 . S
N781 C773 1.427 . S
N781 C779 1.384 . S
H782 C788 0.930 . S
H783 C792 0.930 . S
H784 C797 0.929 . S
H785 C795 0.929 . S
H786 C790 0.929 . S
H787 C796 0.929 . S
C788 H782 0.930 . S
C788 C789 1.367 . S
C788 C796 1.378 . S
C789 C788 1.367 . S
C789 C797 1.433 . S
C790 H786 0.929 . S
C790 C792 1.378 . S
C790 C794 1.350 . S
C791 C794 1.463 . S
C791 C796 1.350 . S
C791 N799 1.427 . S
C792 H783 0.930 . S
C792 C790 1.378 . S
C792 C793 1.367 . S
C793 C792 1.367 . S
C793 C795 1.433 . S
C794 C790 1.350 . S
C794 C791 1.463 . S
C794 N798 1.427 . S
C795 H785 0.929 . S
C795 C793 1.433 . S
C795 N798 1.384 . S
C796 H787 0.929 . S
C796 C788 1.378 . S
C796 C791 1.350 . S
C797 H784 0.929 . S
C797 C789 1.433 . S
C797 N799 1.384 . S
N798 C794 1.427 . S
N798 C795 1.384 . S
N799 C791 1.427 . S
N799 C797 1.384 . S
C231 C9 1.528 . S
C235 C191 1.519 . S
C249 C23 1.532 . S
C253 C135 1.512 . S
C267 C205 1.207 . S
C271 C37 1.216 . S
C285 C51 1.216 . S
C289 C219 1.214 . S
C303 C65 1.533 . S
C307 C93 1.516 . S
C321 C149 1.533 . S
C325 C79 1.514 . S
C339 C163 1.216 . S
C343 C107 1.207 . S
C357 C121 1.212 . S
C361 C177 1.215 . S
C375 C35 1.408 . S
C379 C7 1.449 . S
C393 C21 1.447 . S
C397 C49 1.392 . S
C411 C174 1.376 . S
C415 C6 1.458 . S
C429 C20 1.455 . S
C433 C160 1.394 . S
C447 C62 1.453 . S
C451 C34 1.385 . S
C465 C146 1.453 . S
C469 C48 1.390 . S
C483 C22 2.311 . S
C487 C8 2.309 . S
C501 C50 1.522 . S
C505 C36 1.525 . S
C519 C148 2.311 . S
C523 C64 2.309 . S
C537 C104 1.685 . S
C541 C78 1.776 . S
C555 C92 1.776 . S
C559 C118 1.690 . S
C573 C217 1.655 . S
C577 C76 1.716 . S
C591 C90 1.712 . S
C595 C203 1.660 . S
C609 C132 1.711 . S
C613 C105 1.664 . S
C627 C119 1.670 . S
C631 C188 1.706 . S
C645 C91 0.985 . S
C649 C77 0.998 . S
C663 C120 1.847 . S
C667 C106 1.845 . S
C681 C133 0.996 . S
C685 C189 0.988 . S
C699 C147 1.455 . S
C703 C161 1.397 . S
C717 C175 1.409 . S
C721 C63 1.448 . S
C735 C176 1.523 . S
C739 C162 1.521 . S
C753 C202 1.683 . S
C757 C190 1.775 . S
C771 C134 1.769 . S
C775 C216 1.691 . S
C789 C218 1.847 . S
C793 C204 1.845 . S
