# Generated by pormake.
# Topology uot, (4)-cn, num edge types: 1
# Building blocks:
#     Node 0, Type 0, BuildingBlock: QUQFOY_clean_sbu_1, # of connection points: 4
#     Node 1, Type 0, BuildingBlock: QUQFOY_clean_sbu_1, # of connection points: 4
#     Node 2, Type 0, BuildingBlock: QUQFOY_clean_sbu_1, # of connection points: 4
#     Node 3, Type 0, BuildingBlock: QUQFOY_clean_sbu_1, # of connection points: 4
#     Node 4, Type 0, BuildingBlock: QUQFOY_clean_sbu_1, # of connection points: 4
#     Node 5, Type 0, BuildingBlock: QUQFOY_clean_sbu_1, # of connection points: 4
#     Node 6, Type 0, BuildingBlock: QUQFOY_clean_sbu_1, # of connection points: 4
#     Node 7, Type 0, BuildingBlock: QUQFOY_clean_sbu_1, # of connection points: 4
#     Node 8, Type 0, BuildingBlock: QUQFOY_clean_sbu_1, # of connection points: 4
#     Node 9, Type 0, BuildingBlock: QUQFOY_clean_sbu_1, # of connection points: 4
#     Node 10, Type 0, BuildingBlock: QUQFOY_clean_sbu_1, # of connection points: 4
#     Node 11, Type 0, BuildingBlock: QUQFOY_clean_sbu_1, # of connection points: 4
#     Node 12, Type 0, BuildingBlock: QUQFOY_clean_sbu_1, # of connection points: 4
#     Node 13, Type 0, BuildingBlock: QUQFOY_clean_sbu_1, # of connection points: 4
#     Node 14, Type 0, BuildingBlock: QUQFOY_clean_sbu_1, # of connection points: 4
#     Node 15, Type 0, BuildingBlock: QUQFOY_clean_sbu_1, # of connection points: 4
#     Edge 16, Type (0, 0), BuildingBlock: KIFKEQ_clean_linker_1, # of connection points: 2
#     Edge 17, Type (0, 0), BuildingBlock: KIFKEQ_clean_linker_1, # of connection points: 2
#     Edge 18, Type (0, 0), BuildingBlock: KIFKEQ_clean_linker_1, # of connection points: 2
#     Edge 19, Type (0, 0), BuildingBlock: KIFKEQ_clean_linker_1, # of connection points: 2
#     Edge 20, Type (0, 0), BuildingBlock: KIFKEQ_clean_linker_1, # of connection points: 2
#     Edge 21, Type (0, 0), BuildingBlock: KIFKEQ_clean_linker_1, # of connection points: 2
#     Edge 22, Type (0, 0), BuildingBlock: KIFKEQ_clean_linker_1, # of connection points: 2
#     Edge 23, Type (0, 0), BuildingBlock: KIFKEQ_clean_linker_1, # of connection points: 2
#     Edge 24, Type (0, 0), BuildingBlock: KIFKEQ_clean_linker_1, # of connection points: 2
#     Edge 25, Type (0, 0), BuildingBlock: KIFKEQ_clean_linker_1, # of connection points: 2
#     Edge 26, Type (0, 0), BuildingBlock: KIFKEQ_clean_linker_1, # of connection points: 2
#     Edge 27, Type (0, 0), BuildingBlock: KIFKEQ_clean_linker_1, # of connection points: 2
#     Edge 28, Type (0, 0), BuildingBlock: KIFKEQ_clean_linker_1, # of connection points: 2
#     Edge 29, Type (0, 0), BuildingBlock: KIFKEQ_clean_linker_1, # of connection points: 2
#     Edge 30, Type (0, 0), BuildingBlock: KIFKEQ_clean_linker_1, # of connection points: 2
#     Edge 31, Type (0, 0), BuildingBlock: KIFKEQ_clean_linker_1, # of connection points: 2
#     Edge 32, Type (0, 0), BuildingBlock: KIFKEQ_clean_linker_1, # of connection points: 2
#     Edge 33, Type (0, 0), BuildingBlock: KIFKEQ_clean_linker_1, # of connection points: 2
#     Edge 34, Type (0, 0), BuildingBlock: KIFKEQ_clean_linker_1, # of connection points: 2
#     Edge 35, Type (0, 0), BuildingBlock: KIFKEQ_clean_linker_1, # of connection points: 2
#     Edge 36, Type (0, 0), BuildingBlock: KIFKEQ_clean_linker_1, # of connection points: 2
#     Edge 37, Type (0, 0), BuildingBlock: KIFKEQ_clean_linker_1, # of connection points: 2
#     Edge 38, Type (0, 0), BuildingBlock: KIFKEQ_clean_linker_1, # of connection points: 2
#     Edge 39, Type (0, 0), BuildingBlock: KIFKEQ_clean_linker_1, # of connection points: 2
#     Edge 40, Type (0, 0), BuildingBlock: KIFKEQ_clean_linker_1, # of connection points: 2
#     Edge 41, Type (0, 0), BuildingBlock: KIFKEQ_clean_linker_1, # of connection points: 2
#     Edge 42, Type (0, 0), BuildingBlock: KIFKEQ_clean_linker_1, # of connection points: 2
#     Edge 43, Type (0, 0), BuildingBlock: KIFKEQ_clean_linker_1, # of connection points: 2
#     Edge 44, Type (0, 0), BuildingBlock: KIFKEQ_clean_linker_1, # of connection points: 2
#     Edge 45, Type (0, 0), BuildingBlock: KIFKEQ_clean_linker_1, # of connection points: 2
#     Edge 46, Type (0, 0), BuildingBlock: KIFKEQ_clean_linker_1, # of connection points: 2
#     Edge 47, Type (0, 0), BuildingBlock: KIFKEQ_clean_linker_1, # of connection points: 2
# Relax obj value: 0.057
# Max RMSD: 0.082
# Mean RMSD: 0.082
data_MOF--net-uot--node1-QUQFOY_clean_sbu_1--edge1-KIFKEQ_clean_linker_1
_symmetry_space_group_name_H-M    P1
_symmetry_Int_Tables_number       1
_symmetry_cell_setting            triclinic
loop_
_symmetry_equiv_pos_as_xyz
'x, y, z'
_cell_length_a     47.132261
_cell_length_b     47.126957
_cell_length_c     45.257738
_cell_angle_alpha  89.944978
_cell_angle_beta   90.019138
_cell_angle_gamma 89.907389
loop_
_atom_site_label
_atom_site_type_symbol
_atom_site_fract_x
_atom_site_fract_y
_atom_site_fract_z
_atom_type_partial_charge
O0 O 0.17405 0.39917 0.3097 0.0
Cd1 Cd 0.21048 0.42306 0.31116 0.0
Cd2 Cd 0.17861 0.45358 0.3541 0.0
O3 O 0.14855 0.42355 0.34183 0.0
O4 O 0.23862 0.39932 0.28944 0.0
O5 O 0.24364 0.41051 0.33651 0.0
C6 C 0.25295 0.39709 0.31358 0.0
C7 C 0.17868 0.46931 0.40353 0.0
C8 C 0.15088 0.40332 0.32335 0.0
C9 C 0.19809 0.48436 0.2985 0.0
O10 O 0.18675 0.48537 0.32393 0.0
O11 O 0.20861 0.46138 0.28864 0.0
O12 O 0.1584 0.47538 0.38558 0.0
O13 O 0.19897 0.45346 0.39373 0.0
O14 O 0.40059 0.83844 0.70309 0.0
Cd15 Cd 0.42351 0.80129 0.70146 0.0
Cd16 Cd 0.45546 0.83222 0.65913 0.0
O17 O 0.42676 0.86341 0.67209 0.0
O18 O 0.39908 0.77345 0.72261 0.0
O19 O 0.41083 0.76862 0.67564 0.0
C20 C 0.39717 0.75924 0.69838 0.0
C21 C 0.4711 0.83291 0.6097 0.0
C22 C 0.40605 0.86168 0.69006 0.0
C23 C 0.48522 0.81038 0.71433 0.0
O24 O 0.48692 0.82166 0.68889 0.0
O25 O 0.46164 0.80143 0.72422 0.0
O26 O 0.4781 0.8523 0.62828 0.0
O27 O 0.45441 0.81308 0.61889 0.0
O28 O 0.82923 0.60788 0.30288 0.0
Cd29 Cd 0.79544 0.58223 0.31381 0.0
Cd30 Cd 0.83326 0.56297 0.35545 0.0
O31 O 0.8569 0.59733 0.34065 0.0
O32 O 0.76183 0.59979 0.29419 0.0
O33 O 0.76656 0.59747 0.34276 0.0
C34 C 0.75212 0.60582 0.32006 0.0
C35 C 0.83126 0.5512 0.40577 0.0
C36 C 0.85206 0.61164 0.31731 0.0
C37 C 0.81565 0.52268 0.30662 0.0
O38 O 0.83219 0.52803 0.32809 0.0
O39 O 0.79751 0.54098 0.2982 0.0
O40 O 0.85444 0.54909 0.39088 0.0
O41 O 0.80918 0.56128 0.39246 0.0
O42 O 0.60869 0.1743 0.70364 0.0
Cd43 Cd 0.58551 0.21123 0.69872 0.0
Cd44 Cd 0.55764 0.17747 0.65543 0.0
O45 O 0.58783 0.14833 0.66935 0.0
O46 O 0.60843 0.24018 0.72013 0.0
O47 O 0.59984 0.24275 0.67223 0.0
C48 C 0.61202 0.2532 0.69537 0.0
C49 C 0.54277 0.17616 0.60575 0.0
C50 C 0.60624 0.15102 0.68973 0.0
C51 C 0.52379 0.19926 0.70841 0.0
O52 O 0.52488 0.18548 0.68432 0.0
O53 O 0.5457 0.21178 0.71831 0.0
O54 O 0.53701 0.15608 0.62403 0.0
O55 O 0.55801 0.19696 0.61532 0.0
O56 O 0.17465 0.6082 0.71179 0.0
Cd57 Cd 0.20799 0.58122 0.70311 0.0
Cd58 Cd 0.17049 0.56124 0.66126 0.0
O59 O 0.14644 0.59574 0.67512 0.0
O60 O 0.24112 0.59889 0.72324 0.0
O61 O 0.23814 0.5947 0.67467 0.0
C62 C 0.25184 0.60375 0.69754 0.0
C63 C 0.1729 0.54925 0.61098 0.0
C64 C 0.15171 0.61137 0.69738 0.0
C65 C 0.18729 0.52204 0.71173 0.0
O66 O 0.17185 0.52663 0.68919 0.0
O67 O 0.20472 0.54075 0.72061 0.0
O68 O 0.15 0.54598 0.62612 0.0
O69 O 0.19445 0.56052 0.62412 0.0
O70 O 0.61625 0.84139 0.30675 0.0
Cd71 Cd 0.58786 0.80853 0.31361 0.0
Cd72 Cd 0.56811 0.84688 0.35407 0.0
O73 O 0.6044 0.8693 0.34384 0.0
O74 O 0.60606 0.77629 0.29231 0.0
O75 O 0.59915 0.77606 0.34055 0.0
C76 C 0.60929 0.76369 0.31737 0.0
C77 C 0.55299 0.84258 0.40324 0.0
C78 C 0.62025 0.86379 0.32185 0.0
C79 C 0.53097 0.83339 0.30129 0.0
O80 O 0.53614 0.84947 0.32316 0.0
O81 O 0.54788 0.81328 0.29476 0.0
O82 O 0.55167 0.86635 0.38923 0.0
O83 O 0.56381 0.82108 0.38957 0.0
O84 O 0.83729 0.40144 0.70882 0.0
Cd85 Cd 0.80419 0.42859 0.6994 0.0
Cd86 Cd 0.84159 0.4474 0.65756 0.0
O87 O 0.86488 0.41224 0.67112 0.0
O88 O 0.77063 0.4116 0.71952 0.0
O89 O 0.7742 0.41483 0.67092 0.0
C90 C 0.76017 0.40633 0.69379 0.0
C91 C 0.83686 0.45936 0.60754 0.0
C92 C 0.85983 0.39735 0.694 0.0
C93 C 0.82616 0.4875 0.70723 0.0
O94 O 0.84209 0.4821 0.68528 0.0
O95 O 0.80783 0.46949 0.71579 0.0
O96 O 0.86091 0.46103 0.62095 0.0
O97 O 0.81545 0.44961 0.62218 0.0
O98 O 0.39624 0.16824 0.30225 0.0
Cd99 Cd 0.42444 0.201 0.31048 0.0
Cd100 Cd 0.44301 0.16275 0.35119 0.0
O101 O 0.40644 0.14101 0.34048 0.0
O102 O 0.40762 0.23447 0.28988 0.0
O103 O 0.41183 0.23199 0.33846 0.0
C104 C 0.40315 0.2457 0.31541 0.0
C105 C 0.45809 0.16671 0.40041 0.0
C106 C 0.39145 0.14621 0.31774 0.0
C107 C 0.48129 0.17589 0.29939 0.0
O108 O 0.47529 0.15947 0.32076 0.0
O109 O 0.46496 0.19649 0.29294 0.0
O110 O 0.45888 0.14291 0.38646 0.0
O111 O 0.44764 0.18841 0.38671 0.0
O112 O 0.67228 0.89914 0.80046 0.0
Cd113 Cd 0.70544 0.92627 0.81016 0.0
Cd114 Cd 0.66732 0.9424 0.85144 0.0
O115 O 0.64662 0.90516 0.84065 0.0
O116 O 0.73813 0.90876 0.78897 0.0
O117 O 0.73671 0.91293 0.83755 0.0
C118 C 0.7497 0.90382 0.81427 0.0
C119 C 0.67089 0.95726 0.90076 0.0
C120 C 0.65111 0.89238 0.81637 0.0
C121 C 0.67971 0.98242 0.80044 0.0
O122 O 0.66312 0.97498 0.82118 0.0
O123 O 0.70117 0.96725 0.79402 0.0
O124 O 0.64707 0.95747 0.88679 0.0
O125 O 0.69286 0.94753 0.88701 0.0
O126 O 0.9004 0.33691 0.21065 0.0
Cd127 Cd 0.9282 0.30447 0.20016 0.0
Cd128 Cd 0.94483 0.34373 0.16019 0.0
O129 O 0.90803 0.36465 0.17222 0.0
O130 O 0.91188 0.27036 0.21991 0.0
O131 O 0.91467 0.27463 0.17135 0.0
C132 C 0.9065 0.26019 0.19409 0.0
C133 C 0.95955 0.34102 0.1107 0.0
C134 C 0.89442 0.35904 0.19578 0.0
C135 C 0.98438 0.33006 0.21102 0.0
O136 O 0.9774 0.34694 0.19034 0.0
O137 O 0.96896 0.30868 0.21694 0.0
O138 O 0.96 0.36454 0.12517 0.0
O139 O 0.94954 0.31892 0.12399 0.0
O140 O 0.33951 0.11608 0.80286 0.0
Cd141 Cd 0.30743 0.08712 0.81107 0.0
Cd142 Cd 0.34594 0.06929 0.85173 0.0
O143 O 0.36677 0.10645 0.84122 0.0
O144 O 0.27323 0.1032 0.79111 0.0
O145 O 0.27655 0.09875 0.83963 0.0
C146 C 0.26228 0.10721 0.81687 0.0
C147 C 0.34254 0.05362 0.90083 0.0
C148 C 0.36136 0.12133 0.81844 0.0
C149 C 0.334 0.03104 0.79959 0.0
O150 O 0.35013 0.03733 0.82109 0.0
O151 O 0.31297 0.04685 0.79319 0.0
O152 O 0.3663 0.05364 0.88679 0.0
O153 O 0.32053 0.06362 0.88732 0.0
O154 O 0.1045 0.67152 0.21288 0.0
Cd155 Cd 0.07962 0.70609 0.20247 0.0
Cd156 Cd 0.06056 0.66887 0.15982 0.0
O157 O 0.09543 0.64518 0.17369 0.0
O158 O 0.09808 0.73896 0.22242 0.0
O159 O 0.09534 0.73498 0.17382 0.0
C160 C 0.10419 0.74888 0.19664 0.0
C161 C 0.04753 0.67022 0.10972 0.0
C162 C 0.10902 0.64934 0.1976 0.0
C163 C 0.02024 0.68662 0.20928 0.0
O164 O 0.02586 0.67027 0.18772 0.0
O165 O 0.03839 0.7047 0.21799 0.0
O166 O 0.04486 0.64758 0.12541 0.0
O167 O 0.05904 0.69205 0.12209 0.0
O168 O 0.67374 0.10947 0.20243 0.0
Cd169 Cd 0.7108 0.08636 0.19868 0.0
Cd170 Cd 0.67804 0.05734 0.15564 0.0
O171 O 0.64835 0.08741 0.16848 0.0
O172 O 0.73943 0.10979 0.21996 0.0
O173 O 0.74268 0.10013 0.17235 0.0
C174 C 0.75281 0.11281 0.19534 0.0
C175 C 0.67766 0.04185 0.10616 0.0
C176 C 0.65061 0.10637 0.18835 0.0
C177 C 0.69906 0.0248 0.20981 0.0
O178 O 0.68585 0.02515 0.18533 0.0
O179 O 0.71113 0.04707 0.21942 0.0
O180 O 0.65741 0.03602 0.12419 0.0
O181 O 0.69812 0.05745 0.11588 0.0
O182 O 0.10813 0.33214 0.80625 0.0
Cd183 Cd 0.08288 0.29714 0.81317 0.0
Cd184 Cd 0.05978 0.33463 0.85578 0.0
O185 O 0.09306 0.36026 0.84196 0.0
O186 O 0.10343 0.2667 0.79126 0.0
O187 O 0.09699 0.26533 0.83955 0.0
C188 C 0.10789 0.2541 0.81611 0.0
C189 C 0.04551 0.33534 0.90562 0.0
C190 C 0.10955 0.35546 0.82024 0.0
C191 C 0.02285 0.3153 0.80386 0.0
O192 O 0.02623 0.3304 0.82685 0.0
O193 O 0.04264 0.29915 0.79475 0.0
O194 O 0.04166 0.35673 0.88837 0.0
O195 O 0.05866 0.31358 0.89495 0.0
O196 O 0.33919 0.89879 0.20228 0.0
Cd197 Cd 0.30194 0.9216 0.19814 0.0
Cd198 Cd 0.33493 0.95013 0.15438 0.0
O199 O 0.36455 0.92019 0.16779 0.0
O200 O 0.27357 0.89829 0.22002 0.0
O201 O 0.27004 0.90711 0.17224 0.0
C202 C 0.26011 0.89473 0.19552 0.0
C203 C 0.33578 0.96559 0.10486 0.0
C204 C 0.3623 0.90162 0.1881 0.0
C205 C 0.31352 0.9834 0.20795 0.0
O206 O 0.32692 0.98258 0.18361 0.0
O207 O 0.30136 0.96131 0.21796 0.0
O208 O 0.35592 0.97132 0.12305 0.0
O209 O 0.31521 0.95003 0.1144 0.0
O210 O 0.90278 0.67902 0.80227 0.0
Cd211 Cd 0.92799 0.71346 0.81195 0.0
Cd212 Cd 0.94892 0.67561 0.85426 0.0
O213 O 0.91555 0.65086 0.83899 0.0
O214 O 0.90963 0.74642 0.79186 0.0
O215 O 0.91294 0.74287 0.84046 0.0
C216 C 0.90409 0.75673 0.81759 0.0
C217 C 0.9619 0.67465 0.90445 0.0
C218 C 0.90035 0.65574 0.81627 0.0
C219 C 0.98797 0.69479 0.80438 0.0
O220 O 0.98351 0.67902 0.82668 0.0
O221 O 0.96885 0.71172 0.79524 0.0
O222 O 0.96542 0.65305 0.88747 0.0
O223 O 0.94958 0.69672 0.89334 0.0
H224 H 0.274 0.36381 0.2697 0.0
H225 H 0.28914 0.38779 0.36042 0.0
H226 H 0.31305 0.3305 0.27199 0.0
H227 H 0.32932 0.35482 0.36249 0.0
H228 H 0.37324 0.26553 0.36309 0.0
H229 H 0.33953 0.30498 0.36374 0.0
H230 H 0.36255 0.32579 0.27385 0.0
H231 H 0.39511 0.28572 0.27289 0.0
C232 C 0.28598 0.36231 0.29007 0.0
C233 C 0.27838 0.37851 0.31488 0.0
C234 C 0.30865 0.34327 0.29133 0.0
C235 C 0.32463 0.33998 0.31737 0.0
C236 C 0.31736 0.35657 0.34213 0.0
C237 C 0.29444 0.3756 0.34091 0.0
C238 C 0.37138 0.27885 0.34367 0.0
C239 C 0.38654 0.27231 0.31782 0.0
C240 C 0.35209 0.30155 0.34404 0.0
C241 C 0.34784 0.31836 0.31865 0.0
C242 C 0.36457 0.31286 0.29353 0.0
C243 C 0.38345 0.28999 0.29303 0.0
H244 H 0.36379 0.73777 0.74193 0.0
H245 H 0.38912 0.72285 0.65154 0.0
H246 H 0.33201 0.69756 0.73971 0.0
H247 H 0.35764 0.68157 0.64955 0.0
H248 H 0.27001 0.6342 0.64952 0.0
H249 H 0.30792 0.66954 0.64843 0.0
H250 H 0.33037 0.64759 0.73821 0.0
H251 H 0.29187 0.61332 0.73959 0.0
C252 C 0.36287 0.72565 0.72164 0.0
C253 C 0.37905 0.73357 0.69691 0.0
C254 C 0.34474 0.70232 0.72043 0.0
C255 C 0.34236 0.68602 0.69453 0.0
C256 C 0.35877 0.69374 0.6698 0.0
C257 C 0.37692 0.7173 0.67097 0.0
C258 C 0.2834 0.63664 0.66881 0.0
C259 C 0.27774 0.62127 0.69477 0.0
C260 C 0.30519 0.65686 0.66818 0.0
C261 C 0.32193 0.66187 0.69343 0.0
C262 C 0.31742 0.64495 0.71863 0.0
C263 C 0.29547 0.62511 0.71937 0.0
H264 H 0.63664 0.73657 0.27269 0.0
H265 H 0.61991 0.7305 0.3663 0.0
H266 H 0.66763 0.69574 0.27563 0.0
H267 H 0.65036 0.68845 0.36915 0.0
H268 H 0.73698 0.63987 0.36649 0.0
H269 H 0.69913 0.67533 0.36733 0.0
H270 H 0.67085 0.64671 0.2815 0.0
H271 H 0.70948 0.61247 0.28017 0.0
C272 C 0.63915 0.72616 0.29388 0.0
C273 C 0.62579 0.7369 0.31927 0.0
C274 C 0.65685 0.70246 0.29555 0.0
C275 C 0.66154 0.6885 0.32263 0.0
C276 C 0.64756 0.69879 0.34798 0.0
C277 C 0.62992 0.72278 0.34632 0.0
C278 C 0.72236 0.64092 0.34805 0.0
C279 C 0.72641 0.62367 0.3231 0.0
C280 C 0.70055 0.6612 0.34854 0.0
C281 C 0.68211 0.66436 0.32423 0.0
C282 C 0.68509 0.64559 0.30024 0.0
C283 C 0.70712 0.62574 0.29955 0.0
H284 H 0.64398 0.27567 0.73952 0.0
H285 H 0.62241 0.28795 0.64762 0.0
H286 H 0.67664 0.31517 0.73711 0.0
H287 H 0.65466 0.32858 0.6454 0.0
H288 H 0.74252 0.3748 0.64639 0.0
H289 H 0.70412 0.34004 0.64547 0.0
H290 H 0.68019 0.36466 0.73403 0.0
H291 H 0.71925 0.39828 0.7353 0.0
C292 C 0.64588 0.2871 0.71884 0.0
C293 C 0.63053 0.2786 0.69376 0.0
C294 C 0.66454 0.31002 0.7175 0.0
C295 C 0.66825 0.32539 0.69111 0.0
C296 C 0.65258 0.31713 0.66604 0.0
C297 C 0.63396 0.29394 0.66734 0.0
C298 C 0.72873 0.37305 0.66544 0.0
C299 C 0.73411 0.38901 0.69105 0.0
C300 C 0.70663 0.35316 0.66491 0.0
C301 C 0.68926 0.34907 0.68989 0.0
C302 C 0.69359 0.36654 0.7147 0.0
C303 C 0.71587 0.38603 0.71537 0.0
H304 H 0.77642 0.87619 0.76951 0.0
H305 H 0.78197 0.89147 0.8634 0.0
H306 H 0.81614 0.84381 0.77246 0.0
H307 H 0.82303 0.85972 0.86628 0.0
H308 H 0.87003 0.77258 0.86376 0.0
H309 H 0.8353 0.81109 0.86437 0.0
H310 H 0.86464 0.83849 0.77843 0.0
H311 H 0.89802 0.79911 0.7773 0.0
C312 C 0.78652 0.87308 0.79077 0.0
C313 C 0.77594 0.88645 0.81622 0.0
C314 C 0.80959 0.85456 0.79246 0.0
C315 C 0.82312 0.84907 0.81961 0.0
C316 C 0.813 0.86307 0.84504 0.0
C317 C 0.78959 0.88147 0.84337 0.0
C318 C 0.86925 0.78712 0.84522 0.0
C319 C 0.88647 0.78264 0.82032 0.0
C320 C 0.84939 0.80932 0.84558 0.0
C321 C 0.84666 0.82777 0.8212 0.0
C322 C 0.86538 0.82427 0.79722 0.0
C323 C 0.88475 0.80181 0.79664 0.0
H324 H 0.77542 0.14477 0.2394 0.0
H325 H 0.7877 0.12283 0.14765 0.0
H326 H 0.81519 0.17711 0.23698 0.0
H327 H 0.82855 0.15482 0.1454 0.0
H328 H 0.87496 0.2428 0.14655 0.0
H329 H 0.84011 0.20447 0.14549 0.0
H330 H 0.86489 0.17996 0.23389 0.0
H331 H 0.89865 0.2189 0.2353 0.0
C332 C 0.78689 0.14654 0.21875 0.0
C333 C 0.77833 0.13117 0.19372 0.0
C334 C 0.80996 0.165 0.21741 0.0
C335 C 0.82539 0.16852 0.19105 0.0
C336 C 0.81706 0.15286 0.16601 0.0
C337 C 0.79375 0.13439 0.16733 0.0
C338 C 0.87325 0.22888 0.16553 0.0
C339 C 0.88928 0.23408 0.19114 0.0
C340 C 0.8533 0.20684 0.16492 0.0
C341 C 0.84922 0.18936 0.18983 0.0
C342 C 0.86678 0.19346 0.21461 0.0
C343 C 0.88635 0.21567 0.21536 0.0
H344 H 0.1381 0.23065 0.77117 0.0
H345 H 0.12041 0.22041 0.86419 0.0
H346 H 0.17214 0.19228 0.77341 0.0
H347 H 0.15395 0.18074 0.86629 0.0
H348 H 0.2436 0.13833 0.8641 0.0
H349 H 0.20332 0.17099 0.86521 0.0
H350 H 0.17925 0.14366 0.77754 0.0
H351 H 0.22029 0.11235 0.776 0.0
C352 C 0.14107 0.21981 0.79206 0.0
C353 C 0.1265 0.22868 0.81751 0.0
C354 C 0.16055 0.19751 0.79332 0.0
C355 C 0.16587 0.18309 0.82002 0.0
C356 C 0.15073 0.1915 0.8454 0.0
C357 C 0.13132 0.21411 0.84418 0.0
C358 C 0.2294 0.13905 0.8453 0.0
C359 C 0.23528 0.12307 0.81983 0.0
C360 C 0.2062 0.15772 0.84593 0.0
C361 C 0.18816 0.16048 0.82124 0.0
C362 C 0.19308 0.14288 0.79663 0.0
C363 C 0.2165 0.12468 0.79581 0.0
H364 H 0.2386 0.86241 0.23997 0.0
H365 H 0.22441 0.88458 0.14852 0.0
H366 H 0.19887 0.82996 0.23835 0.0
H367 H 0.18358 0.85254 0.14712 0.0
H368 H 0.13576 0.76563 0.14882 0.0
H369 H 0.17151 0.80312 0.14734 0.0
H370 H 0.14918 0.82726 0.23649 0.0
H371 H 0.11453 0.78914 0.23829 0.0
C372 C 0.22672 0.86066 0.21956 0.0
C373 C 0.23472 0.87616 0.19438 0.0
C374 C 0.20368 0.84213 0.21868 0.0
C375 C 0.18769 0.83868 0.19267 0.0
C376 C 0.19551 0.85442 0.16747 0.0
C377 C 0.21881 0.87292 0.16831 0.0
C378 C 0.13827 0.77924 0.16792 0.0
C379 C 0.12257 0.77422 0.19379 0.0
C380 C 0.15873 0.80082 0.16706 0.0
C381 C 0.16368 0.81801 0.19199 0.0
C382 C 0.14662 0.81398 0.21716 0.0
C383 C 0.12654 0.79224 0.21814 0.0
H384 H 0.17907 0.48547 0.24191 0.0
H385 H 0.20891 0.5394 0.31215 0.0
H386 H 0.16216 0.52685 0.21491 0.0
H387 H 0.19445 0.5812 0.28426 0.0
H388 H 0.12583 0.64234 0.2545 0.0
H389 H 0.15296 0.60389 0.27554 0.0
H390 H 0.16489 0.56819 0.1883 0.0
H391 H 0.13568 0.60615 0.16752 0.0
C392 C 0.18307 0.50637 0.25094 0.0
C393 C 0.19509 0.50934 0.27912 0.0
C394 C 0.17341 0.53024 0.23544 0.0
C395 C 0.1762 0.55767 0.24755 0.0
C396 C 0.19078 0.56053 0.2746 0.0
C397 C 0.19955 0.53662 0.29048 0.0
C398 C 0.13447 0.62646 0.2397 0.0
C399 C 0.12844 0.62726 0.20933 0.0
C400 C 0.15042 0.60436 0.25179 0.0
C401 C 0.16148 0.58262 0.23379 0.0
C402 C 0.15639 0.5841 0.2031 0.0
C403 C 0.13979 0.60599 0.19107 0.0
H404 H 0.53966 0.79716 0.70009 0.0
H405 H 0.48734 0.82738 0.77156 0.0
H406 H 0.58214 0.80839 0.72836 0.0
H407 H 0.5295 0.84111 0.79899 0.0
H408 H 0.60881 0.86434 0.84638 0.0
H409 H 0.57075 0.83574 0.82523 0.0
H410 H 0.60654 0.84858 0.73815 0.0
H411 H 0.64508 0.87509 0.75951 0.0
C412 C 0.53736 0.80591 0.72209 0.0
C413 C 0.51035 0.8115 0.73367 0.0
C414 C 0.56169 0.81279 0.73822 0.0
C415 C 0.55956 0.82658 0.76577 0.0
C416 C 0.53233 0.83039 0.77807 0.0
C417 C 0.508 0.8226 0.7623 0.0
C418 C 0.60874 0.86044 0.8228 0.0
C419 C 0.62991 0.8721 0.80464 0.0
C420 C 0.58676 0.84423 0.81056 0.0
C421 C 0.5851 0.83985 0.77977 0.0
C422 C 0.60705 0.85072 0.76194 0.0
C423 C 0.62924 0.86629 0.77422 0.0
H424 H 0.8618 0.35367 0.24539 0.0
H425 H 0.88152 0.41218 0.17473 0.0
H426 H 0.83598 0.39102 0.27106 0.0
H427 H 0.85586 0.44962 0.20069 0.0
H428 H 0.84279 0.47488 0.32523 0.0
H429 H 0.85506 0.43326 0.29625 0.0
H430 H 0.80997 0.46788 0.22131 0.0
H431 H 0.79767 0.50991 0.25048 0.0
C432 C 0.86022 0.37434 0.23503 0.0
C433 C 0.87416 0.38002 0.20819 0.0
C434 C 0.84549 0.39578 0.24984 0.0
C435 C 0.84426 0.42338 0.23814 0.0
C436 C 0.85632 0.42854 0.21024 0.0
C437 C 0.87114 0.40708 0.1954 0.0
C438 C 0.83508 0.47348 0.30273 0.0
C439 C 0.8194 0.4958 0.29012 0.0
C440 C 0.84195 0.44949 0.28615 0.0
C441 C 0.83352 0.44728 0.25645 0.0
C442 C 0.81691 0.46909 0.24409 0.0
C443 C 0.80973 0.49304 0.26085 0.0
H444 H 0.47142 0.18325 0.68957 0.0
H445 H 0.51641 0.21142 0.76735 0.0
H446 H 0.43035 0.1721 0.71951 0.0
H447 H 0.47469 0.20069 0.79757 0.0
H448 H 0.41572 0.12963 0.83804 0.0
H449 H 0.45296 0.1565 0.81352 0.0
H450 H 0.39196 0.18784 0.75007 0.0
H451 H 0.35484 0.1603 0.7741 0.0
C452 C 0.47233 0.18768 0.71304 0.0
C453 C 0.49735 0.19791 0.7261 0.0
C454 C 0.44859 0.18149 0.73025 0.0
C455 C 0.4492 0.18532 0.76105 0.0
C456 C 0.47365 0.19717 0.77395 0.0
C457 C 0.49747 0.20352 0.75661 0.0
C458 C 0.41008 0.14275 0.81927 0.0
C459 C 0.38239 0.14235 0.8077 0.0
C460 C 0.43147 0.15832 0.80526 0.0
C461 C 0.42559 0.17397 0.77948 0.0
C462 C 0.39737 0.17549 0.76947 0.0
C463 C 0.37604 0.15978 0.78334 0.0
H464 H 0.16402 0.47271 0.69222 0.0
H465 H 0.20017 0.51172 0.76991 0.0
H466 H 0.15104 0.43129 0.7213 0.0
H467 H 0.18697 0.46998 0.79921 0.0
H468 H 0.14696 0.35207 0.7743 0.0
H469 H 0.17162 0.39091 0.74993 0.0
H470 H 0.13941 0.44938 0.8152 0.0
H471 H 0.11465 0.41045 0.83985 0.0
C472 C 0.16958 0.47225 0.71545 0.0
C473 C 0.18305 0.49554 0.72877 0.0
C474 C 0.16227 0.44843 0.73209 0.0
C475 C 0.16796 0.44738 0.76256 0.0
C476 C 0.1822 0.47028 0.7758 0.0
C477 C 0.18992 0.49405 0.75898 0.0
C478 C 0.14546 0.37309 0.78385 0.0
C479 C 0.12843 0.37817 0.80883 0.0
C480 C 0.15956 0.39535 0.76978 0.0
C481 C 0.15714 0.42323 0.78041 0.0
C482 C 0.14176 0.42808 0.80656 0.0
C483 C 0.12749 0.40578 0.82061 0.0
H484 H 0.3645 0.85368 0.22242 0.0
H485 H 0.41782 0.91436 0.17728 0.0
H486 H 0.40649 0.83341 0.2465 0.0
H487 H 0.45945 0.89441 0.20188 0.0
H488 H 0.50459 0.8842 0.29533 0.0
H489 H 0.46507 0.89651 0.2631 0.0
H490 H 0.46121 0.81014 0.23195 0.0
H491 H 0.50176 0.7977 0.26386 0.0
C492 C 0.38518 0.86229 0.21714 0.0
C493 C 0.38778 0.8858 0.19811 0.0
C494 C 0.40916 0.8506 0.23084 0.0
C495 C 0.43604 0.86251 0.2261 0.0
C496 C 0.43888 0.88492 0.20586 0.0
C497 C 0.41503 0.89626 0.19174 0.0
C498 C 0.49538 0.86773 0.2817 0.0
C499 C 0.50625 0.83993 0.28222 0.0
C500 C 0.4729 0.87487 0.26309 0.0
C501 C 0.46034 0.85431 0.24497 0.0
C502 C 0.47072 0.82634 0.24571 0.0
C503 C 0.49381 0.81928 0.26391 0.0
H504 H 0.85273 0.53532 0.68804 0.0
H505 H 0.81006 0.49996 0.76407 0.0
H506 H 0.86493 0.57729 0.71655 0.0
H507 H 0.82243 0.54227 0.79278 0.0
H508 H 0.89238 0.60157 0.83723 0.0
H509 H 0.86886 0.56235 0.8119 0.0
H510 H 0.84361 0.61917 0.74177 0.0
H511 H 0.8671 0.65832 0.76684 0.0
C512 C 0.84563 0.53667 0.71076 0.0
C513 C 0.83051 0.51425 0.72381 0.0
C514 C 0.85248 0.56083 0.72706 0.0
C515 C 0.84464 0.56309 0.75693 0.0
C516 C 0.82886 0.54103 0.76984 0.0
C517 C 0.82164 0.51693 0.75336 0.0
C518 C 0.88134 0.60585 0.81671 0.0
C519 C 0.88201 0.63306 0.8039 0.0
C520 C 0.86776 0.58337 0.80226 0.0
C521 C 0.85471 0.58763 0.77466 0.0
C522 C 0.85388 0.61516 0.76279 0.0
C523 C 0.86728 0.63762 0.77726 0.0
H524 H 0.64838 0.15457 0.22219 0.0
H525 H 0.5951 0.0938 0.17718 0.0
H526 H 0.60632 0.17514 0.24578 0.0
H527 H 0.5534 0.11408 0.20126 0.0
H528 H 0.507 0.12473 0.29343 0.0
H529 H 0.54674 0.11213 0.26172 0.0
H530 H 0.5524 0.19873 0.23142 0.0
H531 H 0.51165 0.2115 0.26284 0.0
C532 C 0.62769 0.146 0.21683 0.0
C533 C 0.62513 0.12237 0.198 0.0
C534 C 0.60368 0.15786 0.23025 0.0
C535 C 0.57679 0.14601 0.22542 0.0
C536 C 0.57399 0.1235 0.20533 0.0
C537 C 0.59788 0.11198 0.19151 0.0
C538 C 0.51665 0.14121 0.2801 0.0
C539 C 0.50622 0.16916 0.28072 0.0
C540 C 0.53926 0.13389 0.26179 0.0
C541 C 0.55239 0.15442 0.24403 0.0
C542 C 0.54246 0.18255 0.24489 0.0
C543 C 0.51925 0.1898 0.26281 0.0
H544 H 0.71448 0.01489 0.76501 0.0
H545 H 0.62771 0.0065 0.79456 0.0
H546 H 0.70049 0.05567 0.73417 0.0
H547 H 0.61392 0.04633 0.76342 0.0
H548 H 0.59468 0.0952 0.67907 0.0
H549 H 0.61569 0.054 0.7035 0.0
H550 H 0.67533 0.10834 0.74828 0.0
H551 H 0.65401 0.14989 0.72433 0.0
C552 C 0.69252 0.02169 0.76491 0.0
C553 C 0.67224 0.00756 0.78232 0.0
C554 C 0.68457 0.04494 0.74731 0.0
C555 C 0.65611 0.05382 0.74629 0.0
C556 C 0.63593 0.03966 0.76361 0.0
C557 C 0.64393 0.017 0.78161 0.0
C558 C 0.61268 0.0984 0.69358 0.0
C559 C 0.62249 0.12588 0.69997 0.0
C560 C 0.62461 0.0748 0.70761 0.0
C561 C 0.64697 0.07812 0.72783 0.0
C562 C 0.65817 0.10528 0.73266 0.0
C563 C 0.64589 0.12901 0.71904 0.0
H564 H 0.14903 0.35295 0.29326 0.0
H565 H 0.09522 0.41714 0.33221 0.0
H566 H 0.10755 0.33162 0.26953 0.0
H567 H 0.05403 0.396 0.30806 0.0
H568 H 0.00936 0.38158 0.2165 0.0
H569 H 0.04802 0.39523 0.24902 0.0
H570 H 0.05448 0.30918 0.28093 0.0
H571 H 0.01483 0.29532 0.24857 0.0
C572 C 0.12831 0.36211 0.29732 0.0
C573 C 0.12547 0.38694 0.31438 0.0
C574 C 0.1046 0.34982 0.28382 0.0
C575 C 0.07775 0.36238 0.28678 0.0
C576 C 0.0746 0.38605 0.30535 0.0
C577 C 0.09818 0.39806 0.31925 0.0
C578 C 0.01896 0.36543 0.23031 0.0
C579 C 0.00905 0.3373 0.22986 0.0
C580 C 0.04094 0.37337 0.24915 0.0
C581 C 0.05394 0.35333 0.26766 0.0
C582 C 0.04461 0.32502 0.26692 0.0
C583 C 0.02204 0.31713 0.24842 0.0
H584 H 0.29973 1.00081 0.76158 0.0
H585 H 0.38556 0.00589 0.79477 0.0
H586 H 0.31373 0.96057 0.7301 0.0
H587 H 0.39938 0.96658 0.76311 0.0
H588 H 0.42191 0.91683 0.68159 0.0
H589 H 0.40147 0.95886 0.70488 0.0
H590 H 0.33478 0.90769 0.74243 0.0
H591 H 0.35539 0.86537 0.71953 0.0
C592 C 0.32149 0.99342 0.7621 0.0
C593 C 0.34149 0.00643 0.78078 0.0
C594 C 0.32946 0.97049 0.74413 0.0
C595 C 0.35768 0.96078 0.744 0.0
C596 C 0.37759 0.97391 0.76251 0.0
C597 C 0.36955 0.99627 0.78083 0.0
C598 C 0.40252 0.91456 0.6942 0.0
C599 C 0.39047 0.88767 0.69897 0.0
C600 C 0.3909 0.93863 0.70761 0.0
C601 C 0.36672 0.93639 0.72561 0.0
C602 C 0.35338 0.90995 0.72857 0.0
C603 C 0.36527 0.88575 0.71555 0.0
H604 H 0.84917 0.64403 0.26723 0.0
H605 H 0.90567 0.62151 0.33881 0.0
H606 H 0.88796 0.66823 0.24225 0.0
H607 H 0.94454 0.64563 0.31355 0.0
H608 H 0.97256 0.66018 0.18963 0.0
H609 H 0.93032 0.6481 0.21772 0.0
H610 H 0.96423 0.69154 0.29389 0.0
H611 H 0.00686 0.70371 0.2656 0.0
C612 C 0.86973 0.6446 0.27792 0.0
C613 C 0.87435 0.63043 0.30488 0.0
C614 C 0.89199 0.65841 0.2635 0.0
C615 C 0.9194 0.65852 0.27572 0.0
C616 C 0.92363 0.64604 0.30362 0.0
C617 C 0.90135 0.6321 0.31804 0.0
C618 C 0.97089 0.66755 0.21223 0.0
C619 C 0.99315 0.68279 0.22541 0.0
C620 C 0.94656 0.66077 0.2283 0.0
C621 C 0.94393 0.66883 0.25807 0.0
C622 C 0.96575 0.68489 0.27104 0.0
C623 C 0.99005 0.69201 0.25479 0.0
H624 H 0.70911 0.0193 0.2694 0.0
H625 H 0.68456 0.97165 0.19204 0.0
H626 H 0.69783 0.97832 0.30053 0.0
H627 H 0.67292 0.93125 0.22286 0.0
H628 H 0.66112 0.85702 0.27957 0.0
H629 H 0.68862 0.89411 0.25545 0.0
H630 H 0.65314 0.9562 0.31516 0.0
H631 H 0.62621 0.919 0.33979 0.0
C632 C 0.70191 0.99993 0.25898 0.0
C633 C 0.69747 0.99884 0.22826 0.0
C634 C 0.69524 0.97653 0.27682 0.0
C635 C 0.68427 0.95153 0.26426 0.0
C636 C 0.68161 0.94997 0.23336 0.0
C637 C 0.68809 0.97329 0.21563 0.0
C638 C 0.65965 0.87848 0.288 0.0
C639 C 0.64107 0.8851 0.31131 0.0
C640 C 0.67534 0.89977 0.27407 0.0
C641 C 0.6727 0.92824 0.28297 0.0
C642 C 0.65583 0.93451 0.30778 0.0
C643 C 0.64025 0.91315 0.32185 0.0
H644 H 0.85434 0.35981 0.73967 0.0
H645 H 0.91454 0.38957 0.67469 0.0
H646 H 0.8918 0.33297 0.76406 0.0
H647 H 0.95215 0.36298 0.69947 0.0
H648 H 0.97247 0.3365 0.82309 0.0
H649 H 0.93159 0.34997 0.79359 0.0
H650 H 0.97229 0.31656 0.71548 0.0
H651 H 0.01367 0.30313 0.74525 0.0
C652 C 0.87547 0.36032 0.7303 0.0
C653 C 0.88149 0.37724 0.70546 0.0
C654 C 0.89697 0.34498 0.74436 0.0
C655 C 0.92505 0.34618 0.734 0.0
C656 C 0.93072 0.36148 0.70796 0.0
C657 C 0.90916 0.37684 0.69382 0.0
C658 C 0.97257 0.33154 0.79972 0.0
C659 C 0.99641 0.3189 0.7865 0.0
C660 C 0.949 0.33911 0.78279 0.0
C661 C 0.94868 0.33442 0.75212 0.0
C662 C 0.972 0.32065 0.73902 0.0
C663 C 0.99558 0.31276 0.7561 0.0
H664 H 0.38428 0.09155 0.33697 0.0
H665 H 0.352 0.1524 0.27384 0.0
H666 H 0.35755 0.0541 0.31264 0.0
H667 H 0.3246 0.11508 0.25003 0.0
H668 H 0.32868 0.03603 0.18908 0.0
H669 H 0.34008 0.07701 0.21901 0.0
H670 H 0.31336 0.03198 0.29741 0.0
H671 H 0.30241 0.99033 0.26719 0.0
C672 C 0.37086 0.09712 0.31841 0.0
C673 C 0.37073 0.12489 0.30702 0.0
C674 C 0.35537 0.07561 0.30452 0.0
C675 C 0.33926 0.08145 0.27903 0.0
C676 C 0.3373 0.10971 0.26919 0.0
C677 C 0.35293 0.13115 0.28294 0.0
C678 C 0.32471 0.03495 0.21263 0.0
C679 C 0.31495 0.00975 0.22576 0.0
C680 C 0.33105 0.05863 0.22985 0.0
C681 C 0.32782 0.05782 0.26072 0.0
C682 C 0.31642 0.03319 0.27373 0.0
C683 C 0.30993 0.00941 0.25639 0.0
H684 H 0.0971 0.61911 0.67765 0.0
H685 H 0.15697 0.64902 0.74291 0.0
H686 H 0.05945 0.64611 0.70184 0.0
H687 H 0.11944 0.67613 0.76676 0.0
H688 H 0.03759 0.67267 0.82461 0.0
H689 H 0.07884 0.65882 0.79583 0.0
H690 H 0.04015 0.69359 0.71718 0.0
H691 H 0.99849 0.70751 0.7462 0.0
C692 C 0.1024 0.63192 0.69673 0.0
C693 C 0.12998 0.63149 0.70861 0.0
C694 C 0.08083 0.64752 0.71051 0.0
C695 C 0.08641 0.66297 0.73644 0.0
C696 C 0.11438 0.66405 0.7471 0.0
C697 C 0.1359 0.64853 0.73335 0.0
C698 C 0.03805 0.67787 0.80129 0.0
C699 C 0.01471 0.69104 0.78766 0.0
C700 C 0.0618 0.67007 0.78479 0.0
C701 C 0.06274 0.67501 0.75418 0.0
C702 C 0.03993 0.68932 0.7407 0.0
C703 C 0.0162 0.69748 0.75735 0.0
H704 H 0.13011 0.52669 0.57815 0.0
H705 H 0.21913 0.54801 0.5739 0.0
H706 H 0.13248 0.5072 0.52856 0.0
H707 H 0.22139 0.52878 0.52368 0.0
H708 H 0.2191 0.46287 0.44697 0.0
H709 H 0.21851 0.48304 0.49686 0.0
H710 H 0.13793 0.52297 0.47814 0.0
H711 H 0.13825 0.50259 0.42889 0.0
C712 C 0.15018 0.52747 0.56653 0.0
C713 C 0.17442 0.53903 0.58001 0.0
C714 C 0.15151 0.51635 0.53798 0.0
C715 C 0.17711 0.51646 0.52205 0.0
C716 C 0.2014 0.52811 0.53545 0.0
C717 C 0.20005 0.53935 0.56411 0.0
C718 C 0.20124 0.47588 0.45361 0.0
C719 C 0.17865 0.48095 0.43399 0.0
C720 C 0.20101 0.48762 0.4821 0.0
C721 C 0.17812 0.50456 0.49156 0.0
C722 C 0.15568 0.50969 0.4718 0.0
C723 C 0.15593 0.49804 0.44345 0.0
H724 H 0.53032 0.88481 0.4368 0.0
H725 H 0.54918 0.79507 0.4384 0.0
H726 H 0.50994 0.88145 0.48595 0.0
H727 H 0.52903 0.7918 0.4882 0.0
H728 H 0.46314 0.79409 0.56503 0.0
H729 H 0.48317 0.79547 0.51506 0.0
H730 H 0.5258 0.87395 0.53615 0.0
H731 H 0.5056 0.87286 0.58546 0.0
C732 C 0.53031 0.86434 0.44772 0.0
C733 C 0.54153 0.84022 0.43368 0.0
C734 C 0.51868 0.86245 0.47601 0.0
C735 C 0.51794 0.83638 0.49111 0.0
C736 C 0.52905 0.81215 0.47707 0.0
C737 C 0.54079 0.81407 0.44865 0.0
C738 C 0.4767 0.81166 0.55889 0.0
C739 C 0.48261 0.83344 0.57919 0.0
C740 C 0.48835 0.81234 0.53036 0.0
C741 C 0.50601 0.83488 0.52155 0.0
C742 C 0.51194 0.85651 0.54199 0.0
C743 C 0.50041 0.8558 0.57037 0.0
H744 H 0.87424 0.54895 0.44566 0.0
H745 H 0.7857 0.52851 0.43476 0.0
H746 H 0.87407 0.52697 0.49421 0.0
H747 H 0.78574 0.50461 0.48264 0.0
H748 H 0.78984 0.48251 0.58145 0.0
H749 H 0.78723 0.50649 0.5337 0.0
H750 H 0.87465 0.48354 0.51668 0.0
H751 H 0.87752 0.46147 0.56509 0.0
C752 C 0.8547 0.53967 0.45373 0.0
C753 C 0.83 0.54045 0.43646 0.0
C754 C 0.85464 0.52665 0.48148 0.0
C755 C 0.83005 0.51328 0.49242 0.0
C756 C 0.80507 0.51479 0.47532 0.0
C757 C 0.80499 0.52847 0.44778 0.0
C758 C 0.80835 0.48244 0.56728 0.0
C759 C 0.83392 0.47026 0.57702 0.0
C760 C 0.8069 0.49617 0.53981 0.0
C761 C 0.83086 0.49753 0.5212 0.0
C762 C 0.85598 0.48397 0.53058 0.0
C763 C 0.85759 0.4709 0.55826 0.0
H764 H 0.48196 0.12451 0.43318 0.0
H765 H 0.46156 0.21387 0.43603 0.0
H766 H 0.50326 0.1277 0.48189 0.0
H767 H 0.4825 0.21695 0.48548 0.0
H768 H 0.50988 0.13506 0.58127 0.0
H769 H 0.48897 0.13393 0.53231 0.0
H770 H 0.52827 0.21431 0.51172 0.0
H771 H 0.54889 0.21575 0.56142 0.0
C772 C 0.48179 0.14484 0.44431 0.0
C773 C 0.4699 0.16891 0.43072 0.0
C774 C 0.49395 0.14665 0.47237 0.0
C775 C 0.49451 0.17256 0.48773 0.0
C776 C 0.48267 0.19672 0.47415 0.0
C777 C 0.47046 0.19491 0.44593 0.0
C778 C 0.51422 0.1525 0.56635 0.0
C779 C 0.5312 0.17545 0.57527 0.0
C780 C 0.50228 0.15179 0.53815 0.0
C781 C 0.50702 0.17395 0.51795 0.0
C782 C 0.52397 0.19701 0.52682 0.0
C783 C 0.53598 0.19773 0.5552 0.0
H784 H 0.63763 0.00768 0.08165 0.0
H785 H 0.71733 0.04876 0.06208 0.0
H786 H 0.63721 0.98669 0.03274 0.0
H787 H 0.71658 0.02807 0.01242 0.0
H788 H 0.62805 0.97979 0.93356 0.0
H789 H 0.63066 1.00092 0.98236 0.0
H790 H 0.72042 0.98253 0.98604 0.0
H791 H 0.71792 0.96178 0.93649 0.0
C792 C 0.65501 0.01244 0.0668 0.0
C793 C 0.67745 0.03005 0.07578 0.0
C794 C 0.6547 1.00045 0.03863 0.0
C795 C 0.67677 0.00578 0.01851 0.0
C796 C 0.69936 0.02332 0.02746 0.0
C797 C 0.69968 0.03536 0.05581 0.0
C798 C 0.64838 0.9801 0.94474 0.0
C799 C 0.67276 0.96894 0.93113 0.0
C800 C 0.64985 0.99216 0.97285 0.0
C801 C 0.67572 0.99334 0.98826 0.0
C802 C 0.7002 0.98222 0.97467 0.0
C803 C 0.69872 0.97011 0.9464 0.0
H804 H 0.01479 0.37737 0.93166 0.0
H805 H 0.04928 0.2939 0.94839 0.0
H806 H 0.99344 0.37773 0.98042 0.0
H807 H 0.0284 0.29458 0.99793 0.0
H808 H 0.98463 0.38361 0.0796 0.0
H809 H 0.0063 0.38141 0.03103 0.0
H810 H 0.98316 0.293 0.02398 0.0
H811 H 0.96201 0.29503 0.07334 0.0
C812 C 0.0181 0.35916 0.94588 0.0
C813 C 0.03389 0.33565 0.93611 0.0
C814 C 0.0059 0.35942 0.97399 0.0
C815 C 0.00926 0.33625 0.99328 0.0
C816 C 0.02512 0.31268 0.98356 0.0
C817 C 0.0373 0.31238 0.95527 0.0
C818 C 0.98401 0.36368 0.06772 0.0
C819 C 0.97143 0.33952 0.08036 0.0
C820 C 0.99638 0.36245 0.03972 0.0
C821 C 0.99641 0.33706 0.02341 0.0
C822 C 0.98381 0.31283 0.03602 0.0
C823 C 0.97146 0.31405 0.06421 0.0
H824 H 0.38539 0.03018 0.933 0.0
H825 H 0.29564 0.04864 0.93667 0.0
H826 H 0.38287 0.00804 0.98136 0.0
H827 H 0.29324 0.02689 0.98579 0.0
H828 H 0.29606 0.95948 0.06068 0.0
H829 H 0.29686 0.98089 0.01132 0.0
H830 H 0.37668 0.02122 0.03201 0.0
H831 H 0.3762 0.99951 0.08062 0.0
C832 C 0.36511 0.02975 0.94425 0.0
C833 C 0.34074 0.04134 0.93098 0.0
C834 C 0.36369 0.01711 0.97211 0.0
C835 C 0.33788 0.01577 0.9876 0.0
C836 C 0.31341 0.02731 0.97435 0.0
C837 C 0.31483 0.03999 0.94633 0.0
C838 C 0.31382 0.97279 0.05455 0.0
C839 C 0.33614 0.97761 0.07454 0.0
C840 C 0.31418 0.98525 0.02637 0.0
C841 C 0.33688 1.00273 0.01762 0.0
C842 C 0.35909 0.00752 0.03774 0.0
C843 C 0.35875 0.99511 0.06574 0.0
H844 H 0.96003 0.71707 0.94617 0.0
H845 H 0.99012 0.63157 0.93178 0.0
H846 H 0.98109 0.71656 0.99564 0.0
H847 H 0.01164 0.63131 0.98048 0.0
H848 H 0.0206 0.62791 0.07997 0.0
H849 H 0.99899 0.62973 0.03135 0.0
H850 H 0.02677 0.71651 0.02112 0.0
H851 H 0.04791 0.71491 0.07052 0.0
C852 C 0.97104 0.69817 0.95357 0.0
C853 C 0.97322 0.67431 0.93506 0.0
C854 C 0.98335 0.69796 0.98181 0.0
C855 C 0.99809 0.67388 0.99213 0.0
C856 C 1.0001 0.65006 0.97356 0.0
C857 C 0.9878 0.65025 0.94549 0.0
C858 C 0.0223 0.64738 0.06737 0.0
C859 C 0.03613 0.67124 0.07915 0.0
C860 C 0.00994 0.64839 0.03934 0.0
C861 C 0.01115 0.67325 0.02217 0.0
C862 C 0.02513 0.69713 0.03386 0.0
C863 C 0.03749 0.69613 0.06206 0.0
loop_
_geom_bond_atom_site_label_1
_geom_bond_atom_site_label_2
_geom_bond_distance
_geom_bond_site_symmetry_2
_ccdc_geom_bond_type
O0 Cd1 2.223 . S
O0 C8 1.315 . S
Cd1 O0 2.223 . S
Cd1 O4 2.297 . S
Cd1 O5 2.439 . S
Cd1 O11 2.240 . S
Cd2 O3 2.240 . S
Cd2 O10 2.223 . S
Cd2 O12 2.297 . S
Cd2 O13 2.439 . S
O3 Cd2 2.240 . S
O3 C8 1.279 . S
O4 Cd1 2.297 . S
O4 C6 1.247 . S
O5 Cd1 2.439 . S
O5 C6 1.208 . S
C6 O4 1.247 . S
C6 O5 1.208 . S
C7 O12 1.247 . S
C7 O13 1.208 . S
C8 O0 1.315 . S
C8 O3 1.279 . S
C9 O10 1.315 . S
C9 O11 1.279 . S
O10 Cd2 2.223 . S
O10 C9 1.315 . S
O11 Cd1 2.240 . S
O11 C9 1.279 . S
O12 Cd2 2.297 . S
O12 C7 1.247 . S
O13 Cd2 2.439 . S
O13 C7 1.208 . S
O14 Cd15 2.223 . S
O14 C22 1.315 . S
Cd15 O14 2.223 . S
Cd15 O18 2.297 . S
Cd15 O19 2.439 . S
Cd15 O25 2.240 . S
Cd16 O17 2.240 . S
Cd16 O24 2.223 . S
Cd16 O26 2.297 . S
Cd16 O27 2.439 . S
O17 Cd16 2.240 . S
O17 C22 1.279 . S
O18 Cd15 2.297 . S
O18 C20 1.247 . S
O19 Cd15 2.439 . S
O19 C20 1.208 . S
C20 O18 1.247 . S
C20 O19 1.208 . S
C21 O26 1.247 . S
C21 O27 1.208 . S
C22 O14 1.315 . S
C22 O17 1.279 . S
C23 O24 1.315 . S
C23 O25 1.279 . S
O24 Cd16 2.223 . S
O24 C23 1.315 . S
O25 Cd15 2.240 . S
O25 C23 1.279 . S
O26 Cd16 2.297 . S
O26 C21 1.247 . S
O27 Cd16 2.439 . S
O27 C21 1.208 . S
O28 Cd29 2.223 . S
O28 C36 1.315 . S
Cd29 O28 2.223 . S
Cd29 O32 2.297 . S
Cd29 O33 2.439 . S
Cd29 O39 2.240 . S
Cd30 O31 2.240 . S
Cd30 O38 2.223 . S
Cd30 O40 2.297 . S
Cd30 O41 2.439 . S
O31 Cd30 2.240 . S
O31 C36 1.279 . S
O32 Cd29 2.297 . S
O32 C34 1.247 . S
O33 Cd29 2.439 . S
O33 C34 1.208 . S
C34 O32 1.247 . S
C34 O33 1.208 . S
C35 O40 1.247 . S
C35 O41 1.208 . S
C36 O28 1.315 . S
C36 O31 1.279 . S
C37 O38 1.315 . S
C37 O39 1.279 . S
O38 Cd30 2.223 . S
O38 C37 1.315 . S
O39 Cd29 2.240 . S
O39 C37 1.279 . S
O40 Cd30 2.297 . S
O40 C35 1.247 . S
O41 Cd30 2.439 . S
O41 C35 1.208 . S
O42 Cd43 2.223 . S
O42 C50 1.315 . S
Cd43 O42 2.223 . S
Cd43 O46 2.297 . S
Cd43 O47 2.439 . S
Cd43 O53 2.240 . S
Cd44 O45 2.240 . S
Cd44 O52 2.223 . S
Cd44 O54 2.297 . S
Cd44 O55 2.439 . S
O45 Cd44 2.240 . S
O45 C50 1.279 . S
O46 Cd43 2.297 . S
O46 C48 1.247 . S
O47 Cd43 2.439 . S
O47 C48 1.208 . S
C48 O46 1.247 . S
C48 O47 1.208 . S
C49 O54 1.247 . S
C49 O55 1.208 . S
C50 O42 1.315 . S
C50 O45 1.279 . S
C51 O52 1.315 . S
C51 O53 1.279 . S
O52 Cd44 2.223 . S
O52 C51 1.315 . S
O53 Cd43 2.240 . S
O53 C51 1.279 . S
O54 Cd44 2.297 . S
O54 C49 1.247 . S
O55 Cd44 2.439 . S
O55 C49 1.208 . S
O56 Cd57 2.223 . S
O56 C64 1.315 . S
Cd57 O56 2.223 . S
Cd57 O60 2.297 . S
Cd57 O61 2.439 . S
Cd57 O67 2.240 . S
Cd58 O59 2.240 . S
Cd58 O66 2.223 . S
Cd58 O68 2.297 . S
Cd58 O69 2.439 . S
O59 Cd58 2.240 . S
O59 C64 1.279 . S
O60 Cd57 2.297 . S
O60 C62 1.247 . S
O61 Cd57 2.439 . S
O61 C62 1.208 . S
C62 O60 1.247 . S
C62 O61 1.208 . S
C63 O68 1.247 . S
C63 O69 1.208 . S
C64 O56 1.315 . S
C64 O59 1.279 . S
C65 O66 1.315 . S
C65 O67 1.279 . S
O66 Cd58 2.223 . S
O66 C65 1.315 . S
O67 Cd57 2.240 . S
O67 C65 1.279 . S
O68 Cd58 2.297 . S
O68 C63 1.247 . S
O69 Cd58 2.439 . S
O69 C63 1.208 . S
O70 Cd71 2.223 . S
O70 C78 1.315 . S
Cd71 O70 2.223 . S
Cd71 O74 2.297 . S
Cd71 O75 2.439 . S
Cd71 O81 2.240 . S
Cd72 O73 2.240 . S
Cd72 O80 2.223 . S
Cd72 O82 2.297 . S
Cd72 O83 2.439 . S
O73 Cd72 2.240 . S
O73 C78 1.279 . S
O74 Cd71 2.297 . S
O74 C76 1.247 . S
O75 Cd71 2.439 . S
O75 C76 1.208 . S
C76 O74 1.247 . S
C76 O75 1.208 . S
C77 O82 1.247 . S
C77 O83 1.208 . S
C78 O70 1.315 . S
C78 O73 1.279 . S
C79 O80 1.315 . S
C79 O81 1.279 . S
O80 Cd72 2.223 . S
O80 C79 1.315 . S
O81 Cd71 2.240 . S
O81 C79 1.279 . S
O82 Cd72 2.297 . S
O82 C77 1.247 . S
O83 Cd72 2.439 . S
O83 C77 1.208 . S
O84 Cd85 2.223 . S
O84 C92 1.315 . S
Cd85 O84 2.223 . S
Cd85 O88 2.297 . S
Cd85 O89 2.439 . S
Cd85 O95 2.240 . S
Cd86 O87 2.240 . S
Cd86 O94 2.223 . S
Cd86 O96 2.297 . S
Cd86 O97 2.439 . S
O87 Cd86 2.240 . S
O87 C92 1.279 . S
O88 Cd85 2.297 . S
O88 C90 1.247 . S
O89 Cd85 2.439 . S
O89 C90 1.208 . S
C90 O88 1.247 . S
C90 O89 1.208 . S
C91 O96 1.247 . S
C91 O97 1.208 . S
C92 O84 1.315 . S
C92 O87 1.279 . S
C93 O94 1.315 . S
C93 O95 1.279 . S
O94 Cd86 2.223 . S
O94 C93 1.315 . S
O95 Cd85 2.240 . S
O95 C93 1.279 . S
O96 Cd86 2.297 . S
O96 C91 1.247 . S
O97 Cd86 2.439 . S
O97 C91 1.208 . S
O98 Cd99 2.223 . S
O98 C106 1.315 . S
Cd99 O98 2.223 . S
Cd99 O102 2.297 . S
Cd99 O103 2.439 . S
Cd99 O109 2.240 . S
Cd100 O101 2.240 . S
Cd100 O108 2.223 . S
Cd100 O110 2.297 . S
Cd100 O111 2.439 . S
O101 Cd100 2.240 . S
O101 C106 1.279 . S
O102 Cd99 2.297 . S
O102 C104 1.247 . S
O103 Cd99 2.439 . S
O103 C104 1.208 . S
C104 O102 1.247 . S
C104 O103 1.208 . S
C105 O110 1.247 . S
C105 O111 1.208 . S
C106 O98 1.315 . S
C106 O101 1.279 . S
C107 O108 1.315 . S
C107 O109 1.279 . S
O108 Cd100 2.223 . S
O108 C107 1.315 . S
O109 Cd99 2.240 . S
O109 C107 1.279 . S
O110 Cd100 2.297 . S
O110 C105 1.247 . S
O111 Cd100 2.439 . S
O111 C105 1.208 . S
O112 Cd113 2.223 . S
O112 C120 1.315 . S
Cd113 O112 2.223 . S
Cd113 O116 2.297 . S
Cd113 O117 2.439 . S
Cd113 O123 2.240 . S
Cd114 O115 2.240 . S
Cd114 O122 2.223 . S
Cd114 O124 2.297 . S
Cd114 O125 2.439 . S
O115 Cd114 2.240 . S
O115 C120 1.279 . S
O116 Cd113 2.297 . S
O116 C118 1.247 . S
O117 Cd113 2.439 . S
O117 C118 1.208 . S
C118 O116 1.247 . S
C118 O117 1.208 . S
C119 O124 1.247 . S
C119 O125 1.208 . S
C120 O112 1.315 . S
C120 O115 1.279 . S
C121 O122 1.315 . S
C121 O123 1.279 . S
O122 Cd114 2.223 . S
O122 C121 1.315 . S
O123 Cd113 2.240 . S
O123 C121 1.279 . S
O124 Cd114 2.297 . S
O124 C119 1.247 . S
O125 Cd114 2.439 . S
O125 C119 1.208 . S
O126 Cd127 2.223 . S
O126 C134 1.315 . S
Cd127 O126 2.223 . S
Cd127 O130 2.297 . S
Cd127 O131 2.439 . S
Cd127 O137 2.240 . S
Cd128 O129 2.240 . S
Cd128 O136 2.223 . S
Cd128 O138 2.297 . S
Cd128 O139 2.439 . S
O129 Cd128 2.240 . S
O129 C134 1.279 . S
O130 Cd127 2.297 . S
O130 C132 1.247 . S
O131 Cd127 2.439 . S
O131 C132 1.208 . S
C132 O130 1.247 . S
C132 O131 1.208 . S
C133 O138 1.247 . S
C133 O139 1.208 . S
C134 O126 1.315 . S
C134 O129 1.279 . S
C135 O136 1.315 . S
C135 O137 1.279 . S
O136 Cd128 2.223 . S
O136 C135 1.315 . S
O137 Cd127 2.240 . S
O137 C135 1.279 . S
O138 Cd128 2.297 . S
O138 C133 1.247 . S
O139 Cd128 2.439 . S
O139 C133 1.208 . S
O140 Cd141 2.223 . S
O140 C148 1.315 . S
Cd141 O140 2.223 . S
Cd141 O144 2.297 . S
Cd141 O145 2.439 . S
Cd141 O151 2.240 . S
Cd142 O143 2.240 . S
Cd142 O150 2.223 . S
Cd142 O152 2.297 . S
Cd142 O153 2.439 . S
O143 Cd142 2.240 . S
O143 C148 1.279 . S
O144 Cd141 2.297 . S
O144 C146 1.247 . S
O145 Cd141 2.439 . S
O145 C146 1.208 . S
C146 O144 1.247 . S
C146 O145 1.208 . S
C147 O152 1.247 . S
C147 O153 1.208 . S
C148 O140 1.315 . S
C148 O143 1.279 . S
C149 O150 1.315 . S
C149 O151 1.279 . S
O150 Cd142 2.223 . S
O150 C149 1.315 . S
O151 Cd141 2.240 . S
O151 C149 1.279 . S
O152 Cd142 2.297 . S
O152 C147 1.247 . S
O153 Cd142 2.439 . S
O153 C147 1.208 . S
O154 Cd155 2.223 . S
O154 C162 1.315 . S
Cd155 O154 2.223 . S
Cd155 O158 2.297 . S
Cd155 O159 2.439 . S
Cd155 O165 2.240 . S
Cd156 O157 2.240 . S
Cd156 O164 2.223 . S
Cd156 O166 2.297 . S
Cd156 O167 2.439 . S
O157 Cd156 2.240 . S
O157 C162 1.279 . S
O158 Cd155 2.297 . S
O158 C160 1.247 . S
O159 Cd155 2.439 . S
O159 C160 1.208 . S
C160 O158 1.247 . S
C160 O159 1.208 . S
C161 O166 1.247 . S
C161 O167 1.208 . S
C162 O154 1.315 . S
C162 O157 1.279 . S
C163 O164 1.315 . S
C163 O165 1.279 . S
O164 Cd156 2.223 . S
O164 C163 1.315 . S
O165 Cd155 2.240 . S
O165 C163 1.279 . S
O166 Cd156 2.297 . S
O166 C161 1.247 . S
O167 Cd156 2.439 . S
O167 C161 1.208 . S
O168 Cd169 2.223 . S
O168 C176 1.315 . S
Cd169 O168 2.223 . S
Cd169 O172 2.297 . S
Cd169 O173 2.439 . S
Cd169 O179 2.240 . S
Cd170 O171 2.240 . S
Cd170 O178 2.223 . S
Cd170 O180 2.297 . S
Cd170 O181 2.439 . S
O171 Cd170 2.240 . S
O171 C176 1.279 . S
O172 Cd169 2.297 . S
O172 C174 1.247 . S
O173 Cd169 2.439 . S
O173 C174 1.208 . S
C174 O172 1.247 . S
C174 O173 1.208 . S
C175 O180 1.247 . S
C175 O181 1.208 . S
C176 O168 1.315 . S
C176 O171 1.279 . S
C177 O178 1.315 . S
C177 O179 1.279 . S
O178 Cd170 2.223 . S
O178 C177 1.315 . S
O179 Cd169 2.240 . S
O179 C177 1.279 . S
O180 Cd170 2.297 . S
O180 C175 1.247 . S
O181 Cd170 2.439 . S
O181 C175 1.208 . S
O182 Cd183 2.223 . S
O182 C190 1.315 . S
Cd183 O182 2.223 . S
Cd183 O186 2.297 . S
Cd183 O187 2.439 . S
Cd183 O193 2.240 . S
Cd184 O185 2.240 . S
Cd184 O192 2.223 . S
Cd184 O194 2.297 . S
Cd184 O195 2.439 . S
O185 Cd184 2.240 . S
O185 C190 1.279 . S
O186 Cd183 2.297 . S
O186 C188 1.247 . S
O187 Cd183 2.439 . S
O187 C188 1.208 . S
C188 O186 1.247 . S
C188 O187 1.208 . S
C189 O194 1.247 . S
C189 O195 1.208 . S
C190 O182 1.315 . S
C190 O185 1.279 . S
C191 O192 1.315 . S
C191 O193 1.279 . S
O192 Cd184 2.223 . S
O192 C191 1.315 . S
O193 Cd183 2.240 . S
O193 C191 1.279 . S
O194 Cd184 2.297 . S
O194 C189 1.247 . S
O195 Cd184 2.439 . S
O195 C189 1.208 . S
O196 Cd197 2.223 . S
O196 C204 1.315 . S
Cd197 O196 2.223 . S
Cd197 O200 2.297 . S
Cd197 O201 2.439 . S
Cd197 O207 2.240 . S
Cd198 O199 2.240 . S
Cd198 O206 2.223 . S
Cd198 O208 2.297 . S
Cd198 O209 2.439 . S
O199 Cd198 2.240 . S
O199 C204 1.279 . S
O200 Cd197 2.297 . S
O200 C202 1.247 . S
O201 Cd197 2.439 . S
O201 C202 1.208 . S
C202 O200 1.247 . S
C202 O201 1.208 . S
C203 O208 1.247 . S
C203 O209 1.208 . S
C204 O196 1.315 . S
C204 O199 1.279 . S
C205 O206 1.315 . S
C205 O207 1.279 . S
O206 Cd198 2.223 . S
O206 C205 1.315 . S
O207 Cd197 2.240 . S
O207 C205 1.279 . S
O208 Cd198 2.297 . S
O208 C203 1.247 . S
O209 Cd198 2.439 . S
O209 C203 1.208 . S
O210 Cd211 2.223 . S
O210 C218 1.315 . S
Cd211 O210 2.223 . S
Cd211 O214 2.297 . S
Cd211 O215 2.439 . S
Cd211 O221 2.240 . S
Cd212 O213 2.240 . S
Cd212 O220 2.223 . S
Cd212 O222 2.297 . S
Cd212 O223 2.439 . S
O213 Cd212 2.240 . S
O213 C218 1.279 . S
O214 Cd211 2.297 . S
O214 C216 1.247 . S
O215 Cd211 2.439 . S
O215 C216 1.208 . S
C216 O214 1.247 . S
C216 O215 1.208 . S
C217 O222 1.247 . S
C217 O223 1.208 . S
C218 O210 1.315 . S
C218 O213 1.279 . S
C219 O220 1.315 . S
C219 O221 1.279 . S
O220 Cd212 2.223 . S
O220 C219 1.315 . S
O221 Cd211 2.240 . S
O221 C219 1.279 . S
O222 Cd212 2.297 . S
O222 C217 1.247 . S
O223 Cd212 2.439 . S
O223 C217 1.208 . S
H224 C232 0.950 . S
H225 C237 0.950 . S
H226 C234 0.950 . S
H227 C236 0.950 . S
H228 C238 0.950 . S
H229 C240 0.950 . S
H230 C242 0.950 . S
H231 C243 0.950 . S
C232 H224 0.950 . S
C232 C233 1.386 . S
C232 C234 1.391 . S
C233 C232 1.386 . S
C233 C237 1.393 . S
C234 H226 0.950 . S
C234 C232 1.391 . S
C234 C235 1.400 . S
C235 C234 1.400 . S
C235 C236 1.398 . S
C235 C241 1.491 . S
C236 H227 0.950 . S
C236 C235 1.398 . S
C236 C237 1.391 . S
C237 H225 0.950 . S
C237 C233 1.393 . S
C237 C236 1.391 . S
C238 H228 0.950 . S
C238 C239 1.386 . S
C238 C240 1.391 . S
C239 C238 1.386 . S
C239 C243 1.393 . S
C240 H229 0.950 . S
C240 C238 1.391 . S
C240 C241 1.400 . S
C241 C235 1.491 . S
C241 C240 1.400 . S
C241 C242 1.398 . S
C242 H230 0.950 . S
C242 C241 1.398 . S
C242 C243 1.391 . S
C243 H231 0.950 . S
C243 C239 1.393 . S
C243 C242 1.391 . S
H244 C252 0.950 . S
H245 C257 0.950 . S
H246 C254 0.950 . S
H247 C256 0.950 . S
H248 C258 0.950 . S
H249 C260 0.950 . S
H250 C262 0.950 . S
H251 C263 0.950 . S
C252 H244 0.950 . S
C252 C253 1.386 . S
C252 C254 1.391 . S
C253 C252 1.386 . S
C253 C257 1.393 . S
C254 H246 0.950 . S
C254 C252 1.391 . S
C254 C255 1.400 . S
C255 C254 1.400 . S
C255 C256 1.398 . S
C255 C261 1.491 . S
C256 H247 0.950 . S
C256 C255 1.398 . S
C256 C257 1.391 . S
C257 H245 0.950 . S
C257 C253 1.393 . S
C257 C256 1.391 . S
C258 H248 0.950 . S
C258 C259 1.386 . S
C258 C260 1.391 . S
C259 C258 1.386 . S
C259 C263 1.393 . S
C260 H249 0.950 . S
C260 C258 1.391 . S
C260 C261 1.400 . S
C261 C255 1.491 . S
C261 C260 1.400 . S
C261 C262 1.398 . S
C262 H250 0.950 . S
C262 C261 1.398 . S
C262 C263 1.391 . S
C263 H251 0.950 . S
C263 C259 1.393 . S
C263 C262 1.391 . S
H264 C272 0.950 . S
H265 C277 0.950 . S
H266 C274 0.950 . S
H267 C276 0.950 . S
H268 C278 0.950 . S
H269 C280 0.950 . S
H270 C282 0.950 . S
H271 C283 0.950 . S
C272 H264 0.950 . S
C272 C273 1.386 . S
C272 C274 1.391 . S
C273 C272 1.386 . S
C273 C277 1.393 . S
C274 H266 0.950 . S
C274 C272 1.391 . S
C274 C275 1.400 . S
C275 C274 1.400 . S
C275 C276 1.398 . S
C275 C281 1.491 . S
C276 H267 0.950 . S
C276 C275 1.398 . S
C276 C277 1.391 . S
C277 H265 0.950 . S
C277 C273 1.393 . S
C277 C276 1.391 . S
C278 H268 0.950 . S
C278 C279 1.386 . S
C278 C280 1.391 . S
C279 C278 1.386 . S
C279 C283 1.393 . S
C280 H269 0.950 . S
C280 C278 1.391 . S
C280 C281 1.400 . S
C281 C275 1.491 . S
C281 C280 1.400 . S
C281 C282 1.398 . S
C282 H270 0.950 . S
C282 C281 1.398 . S
C282 C283 1.391 . S
C283 H271 0.950 . S
C283 C279 1.393 . S
C283 C282 1.391 . S
H284 C292 0.950 . S
H285 C297 0.950 . S
H286 C294 0.950 . S
H287 C296 0.950 . S
H288 C298 0.950 . S
H289 C300 0.950 . S
H290 C302 0.950 . S
H291 C303 0.950 . S
C292 H284 0.950 . S
C292 C293 1.386 . S
C292 C294 1.391 . S
C293 C292 1.386 . S
C293 C297 1.393 . S
C294 H286 0.950 . S
C294 C292 1.391 . S
C294 C295 1.400 . S
C295 C294 1.400 . S
C295 C296 1.398 . S
C295 C301 1.491 . S
C296 H287 0.950 . S
C296 C295 1.398 . S
C296 C297 1.391 . S
C297 H285 0.950 . S
C297 C293 1.393 . S
C297 C296 1.391 . S
C298 H288 0.950 . S
C298 C299 1.386 . S
C298 C300 1.391 . S
C299 C298 1.386 . S
C299 C303 1.393 . S
C300 H289 0.950 . S
C300 C298 1.391 . S
C300 C301 1.400 . S
C301 C295 1.491 . S
C301 C300 1.400 . S
C301 C302 1.398 . S
C302 H290 0.950 . S
C302 C301 1.398 . S
C302 C303 1.391 . S
C303 H291 0.950 . S
C303 C299 1.393 . S
C303 C302 1.391 . S
H304 C312 0.950 . S
H305 C317 0.950 . S
H306 C314 0.950 . S
H307 C316 0.950 . S
H308 C318 0.950 . S
H309 C320 0.950 . S
H310 C322 0.950 . S
H311 C323 0.950 . S
C312 H304 0.950 . S
C312 C313 1.386 . S
C312 C314 1.391 . S
C313 C312 1.386 . S
C313 C317 1.393 . S
C314 H306 0.950 . S
C314 C312 1.391 . S
C314 C315 1.400 . S
C315 C314 1.400 . S
C315 C316 1.398 . S
C315 C321 1.491 . S
C316 H307 0.950 . S
C316 C315 1.398 . S
C316 C317 1.391 . S
C317 H305 0.950 . S
C317 C313 1.393 . S
C317 C316 1.391 . S
C318 H308 0.950 . S
C318 C319 1.386 . S
C318 C320 1.391 . S
C319 C318 1.386 . S
C319 C323 1.393 . S
C320 H309 0.950 . S
C320 C318 1.391 . S
C320 C321 1.400 . S
C321 C315 1.491 . S
C321 C320 1.400 . S
C321 C322 1.398 . S
C322 H310 0.950 . S
C322 C321 1.398 . S
C322 C323 1.391 . S
C323 H311 0.950 . S
C323 C319 1.393 . S
C323 C322 1.391 . S
H324 C332 0.950 . S
H325 C337 0.950 . S
H326 C334 0.950 . S
H327 C336 0.950 . S
H328 C338 0.950 . S
H329 C340 0.950 . S
H330 C342 0.950 . S
H331 C343 0.950 . S
C332 H324 0.950 . S
C332 C333 1.386 . S
C332 C334 1.391 . S
C333 C332 1.386 . S
C333 C337 1.393 . S
C334 H326 0.950 . S
C334 C332 1.391 . S
C334 C335 1.400 . S
C335 C334 1.400 . S
C335 C336 1.398 . S
C335 C341 1.491 . S
C336 H327 0.950 . S
C336 C335 1.398 . S
C336 C337 1.391 . S
C337 H325 0.950 . S
C337 C333 1.393 . S
C337 C336 1.391 . S
C338 H328 0.950 . S
C338 C339 1.386 . S
C338 C340 1.391 . S
C339 C338 1.386 . S
C339 C343 1.393 . S
C340 H329 0.950 . S
C340 C338 1.391 . S
C340 C341 1.400 . S
C341 C335 1.491 . S
C341 C340 1.400 . S
C341 C342 1.398 . S
C342 H330 0.950 . S
C342 C341 1.398 . S
C342 C343 1.391 . S
C343 H331 0.950 . S
C343 C339 1.393 . S
C343 C342 1.391 . S
H344 C352 0.950 . S
H345 C357 0.950 . S
H346 C354 0.950 . S
H347 C356 0.950 . S
H348 C358 0.950 . S
H349 C360 0.950 . S
H350 C362 0.950 . S
H351 C363 0.950 . S
C352 H344 0.950 . S
C352 C353 1.386 . S
C352 C354 1.391 . S
C353 C352 1.386 . S
C353 C357 1.393 . S
C354 H346 0.950 . S
C354 C352 1.391 . S
C354 C355 1.400 . S
C355 C354 1.400 . S
C355 C356 1.398 . S
C355 C361 1.491 . S
C356 H347 0.950 . S
C356 C355 1.398 . S
C356 C357 1.391 . S
C357 H345 0.950 . S
C357 C353 1.393 . S
C357 C356 1.391 . S
C358 H348 0.950 . S
C358 C359 1.386 . S
C358 C360 1.391 . S
C359 C358 1.386 . S
C359 C363 1.393 . S
C360 H349 0.950 . S
C360 C358 1.391 . S
C360 C361 1.400 . S
C361 C355 1.491 . S
C361 C360 1.400 . S
C361 C362 1.398 . S
C362 H350 0.950 . S
C362 C361 1.398 . S
C362 C363 1.391 . S
C363 H351 0.950 . S
C363 C359 1.393 . S
C363 C362 1.391 . S
H364 C372 0.950 . S
H365 C377 0.950 . S
H366 C374 0.950 . S
H367 C376 0.950 . S
H368 C378 0.950 . S
H369 C380 0.950 . S
H370 C382 0.950 . S
H371 C383 0.950 . S
C372 H364 0.950 . S
C372 C373 1.386 . S
C372 C374 1.391 . S
C373 C372 1.386 . S
C373 C377 1.393 . S
C374 H366 0.950 . S
C374 C372 1.391 . S
C374 C375 1.400 . S
C375 C374 1.400 . S
C375 C376 1.398 . S
C375 C381 1.491 . S
C376 H367 0.950 . S
C376 C375 1.398 . S
C376 C377 1.391 . S
C377 H365 0.950 . S
C377 C373 1.393 . S
C377 C376 1.391 . S
C378 H368 0.950 . S
C378 C379 1.386 . S
C378 C380 1.391 . S
C379 C378 1.386 . S
C379 C383 1.393 . S
C380 H369 0.950 . S
C380 C378 1.391 . S
C380 C381 1.400 . S
C381 C375 1.491 . S
C381 C380 1.400 . S
C381 C382 1.398 . S
C382 H370 0.950 . S
C382 C381 1.398 . S
C382 C383 1.391 . S
C383 H371 0.950 . S
C383 C379 1.393 . S
C383 C382 1.391 . S
H384 C392 0.950 . S
H385 C397 0.950 . S
H386 C394 0.950 . S
H387 C396 0.950 . S
H388 C398 0.950 . S
H389 C400 0.950 . S
H390 C402 0.950 . S
H391 C403 0.950 . S
C392 H384 0.950 . S
C392 C393 1.386 . S
C392 C394 1.391 . S
C393 C392 1.386 . S
C393 C397 1.393 . S
C394 H386 0.950 . S
C394 C392 1.391 . S
C394 C395 1.400 . S
C395 C394 1.400 . S
C395 C396 1.398 . S
C395 C401 1.491 . S
C396 H387 0.950 . S
C396 C395 1.398 . S
C396 C397 1.391 . S
C397 H385 0.950 . S
C397 C393 1.393 . S
C397 C396 1.391 . S
C398 H388 0.950 . S
C398 C399 1.386 . S
C398 C400 1.391 . S
C399 C398 1.386 . S
C399 C403 1.393 . S
C400 H389 0.950 . S
C400 C398 1.391 . S
C400 C401 1.400 . S
C401 C395 1.491 . S
C401 C400 1.400 . S
C401 C402 1.398 . S
C402 H390 0.950 . S
C402 C401 1.398 . S
C402 C403 1.391 . S
C403 H391 0.950 . S
C403 C399 1.393 . S
C403 C402 1.391 . S
H404 C412 0.950 . S
H405 C417 0.950 . S
H406 C414 0.950 . S
H407 C416 0.950 . S
H408 C418 0.950 . S
H409 C420 0.950 . S
H410 C422 0.950 . S
H411 C423 0.950 . S
C412 H404 0.950 . S
C412 C413 1.386 . S
C412 C414 1.391 . S
C413 C412 1.386 . S
C413 C417 1.393 . S
C414 H406 0.950 . S
C414 C412 1.391 . S
C414 C415 1.400 . S
C415 C414 1.400 . S
C415 C416 1.398 . S
C415 C421 1.491 . S
C416 H407 0.950 . S
C416 C415 1.398 . S
C416 C417 1.391 . S
C417 H405 0.950 . S
C417 C413 1.393 . S
C417 C416 1.391 . S
C418 H408 0.950 . S
C418 C419 1.386 . S
C418 C420 1.391 . S
C419 C418 1.386 . S
C419 C423 1.393 . S
C420 H409 0.950 . S
C420 C418 1.391 . S
C420 C421 1.400 . S
C421 C415 1.491 . S
C421 C420 1.400 . S
C421 C422 1.398 . S
C422 H410 0.950 . S
C422 C421 1.398 . S
C422 C423 1.391 . S
C423 H411 0.950 . S
C423 C419 1.393 . S
C423 C422 1.391 . S
H424 C432 0.950 . S
H425 C437 0.950 . S
H426 C434 0.950 . S
H427 C436 0.950 . S
H428 C438 0.950 . S
H429 C440 0.950 . S
H430 C442 0.950 . S
H431 C443 0.950 . S
C432 H424 0.950 . S
C432 C433 1.386 . S
C432 C434 1.391 . S
C433 C432 1.386 . S
C433 C437 1.393 . S
C434 H426 0.950 . S
C434 C432 1.391 . S
C434 C435 1.400 . S
C435 C434 1.400 . S
C435 C436 1.398 . S
C435 C441 1.491 . S
C436 H427 0.950 . S
C436 C435 1.398 . S
C436 C437 1.391 . S
C437 H425 0.950 . S
C437 C433 1.393 . S
C437 C436 1.391 . S
C438 H428 0.950 . S
C438 C439 1.386 . S
C438 C440 1.391 . S
C439 C438 1.386 . S
C439 C443 1.393 . S
C440 H429 0.950 . S
C440 C438 1.391 . S
C440 C441 1.400 . S
C441 C435 1.491 . S
C441 C440 1.400 . S
C441 C442 1.398 . S
C442 H430 0.950 . S
C442 C441 1.398 . S
C442 C443 1.391 . S
C443 H431 0.950 . S
C443 C439 1.393 . S
C443 C442 1.391 . S
H444 C452 0.950 . S
H445 C457 0.950 . S
H446 C454 0.950 . S
H447 C456 0.950 . S
H448 C458 0.950 . S
H449 C460 0.950 . S
H450 C462 0.950 . S
H451 C463 0.950 . S
C452 H444 0.950 . S
C452 C453 1.386 . S
C452 C454 1.391 . S
C453 C452 1.386 . S
C453 C457 1.393 . S
C454 H446 0.950 . S
C454 C452 1.391 . S
C454 C455 1.400 . S
C455 C454 1.400 . S
C455 C456 1.398 . S
C455 C461 1.491 . S
C456 H447 0.950 . S
C456 C455 1.398 . S
C456 C457 1.391 . S
C457 H445 0.950 . S
C457 C453 1.393 . S
C457 C456 1.391 . S
C458 H448 0.950 . S
C458 C459 1.386 . S
C458 C460 1.391 . S
C459 C458 1.386 . S
C459 C463 1.393 . S
C460 H449 0.950 . S
C460 C458 1.391 . S
C460 C461 1.400 . S
C461 C455 1.491 . S
C461 C460 1.400 . S
C461 C462 1.398 . S
C462 H450 0.950 . S
C462 C461 1.398 . S
C462 C463 1.391 . S
C463 H451 0.950 . S
C463 C459 1.393 . S
C463 C462 1.391 . S
H464 C472 0.950 . S
H465 C477 0.950 . S
H466 C474 0.950 . S
H467 C476 0.950 . S
H468 C478 0.950 . S
H469 C480 0.950 . S
H470 C482 0.950 . S
H471 C483 0.950 . S
C472 H464 0.950 . S
C472 C473 1.386 . S
C472 C474 1.391 . S
C473 C472 1.386 . S
C473 C477 1.393 . S
C474 H466 0.950 . S
C474 C472 1.391 . S
C474 C475 1.400 . S
C475 C474 1.400 . S
C475 C476 1.398 . S
C475 C481 1.491 . S
C476 H467 0.950 . S
C476 C475 1.398 . S
C476 C477 1.391 . S
C477 H465 0.950 . S
C477 C473 1.393 . S
C477 C476 1.391 . S
C478 H468 0.950 . S
C478 C479 1.386 . S
C478 C480 1.391 . S
C479 C478 1.386 . S
C479 C483 1.393 . S
C480 H469 0.950 . S
C480 C478 1.391 . S
C480 C481 1.400 . S
C481 C475 1.491 . S
C481 C480 1.400 . S
C481 C482 1.398 . S
C482 H470 0.950 . S
C482 C481 1.398 . S
C482 C483 1.391 . S
C483 H471 0.950 . S
C483 C479 1.393 . S
C483 C482 1.391 . S
H484 C492 0.950 . S
H485 C497 0.950 . S
H486 C494 0.950 . S
H487 C496 0.950 . S
H488 C498 0.950 . S
H489 C500 0.950 . S
H490 C502 0.950 . S
H491 C503 0.950 . S
C492 H484 0.950 . S
C492 C493 1.386 . S
C492 C494 1.391 . S
C493 C492 1.386 . S
C493 C497 1.393 . S
C494 H486 0.950 . S
C494 C492 1.391 . S
C494 C495 1.400 . S
C495 C494 1.400 . S
C495 C496 1.398 . S
C495 C501 1.491 . S
C496 H487 0.950 . S
C496 C495 1.398 . S
C496 C497 1.391 . S
C497 H485 0.950 . S
C497 C493 1.393 . S
C497 C496 1.391 . S
C498 H488 0.950 . S
C498 C499 1.386 . S
C498 C500 1.391 . S
C499 C498 1.386 . S
C499 C503 1.393 . S
C500 H489 0.950 . S
C500 C498 1.391 . S
C500 C501 1.400 . S
C501 C495 1.491 . S
C501 C500 1.400 . S
C501 C502 1.398 . S
C502 H490 0.950 . S
C502 C501 1.398 . S
C502 C503 1.391 . S
C503 H491 0.950 . S
C503 C499 1.393 . S
C503 C502 1.391 . S
H504 C512 0.950 . S
H505 C517 0.950 . S
H506 C514 0.950 . S
H507 C516 0.950 . S
H508 C518 0.950 . S
H509 C520 0.950 . S
H510 C522 0.950 . S
H511 C523 0.950 . S
C512 H504 0.950 . S
C512 C513 1.386 . S
C512 C514 1.391 . S
C513 C512 1.386 . S
C513 C517 1.393 . S
C514 H506 0.950 . S
C514 C512 1.391 . S
C514 C515 1.400 . S
C515 C514 1.400 . S
C515 C516 1.398 . S
C515 C521 1.491 . S
C516 H507 0.950 . S
C516 C515 1.398 . S
C516 C517 1.391 . S
C517 H505 0.950 . S
C517 C513 1.393 . S
C517 C516 1.391 . S
C518 H508 0.950 . S
C518 C519 1.386 . S
C518 C520 1.391 . S
C519 C518 1.386 . S
C519 C523 1.393 . S
C520 H509 0.950 . S
C520 C518 1.391 . S
C520 C521 1.400 . S
C521 C515 1.491 . S
C521 C520 1.400 . S
C521 C522 1.398 . S
C522 H510 0.950 . S
C522 C521 1.398 . S
C522 C523 1.391 . S
C523 H511 0.950 . S
C523 C519 1.393 . S
C523 C522 1.391 . S
H524 C532 0.950 . S
H525 C537 0.950 . S
H526 C534 0.950 . S
H527 C536 0.950 . S
H528 C538 0.950 . S
H529 C540 0.950 . S
H530 C542 0.950 . S
H531 C543 0.950 . S
C532 H524 0.950 . S
C532 C533 1.386 . S
C532 C534 1.391 . S
C533 C532 1.386 . S
C533 C537 1.393 . S
C534 H526 0.950 . S
C534 C532 1.391 . S
C534 C535 1.400 . S
C535 C534 1.400 . S
C535 C536 1.398 . S
C535 C541 1.491 . S
C536 H527 0.950 . S
C536 C535 1.398 . S
C536 C537 1.391 . S
C537 H525 0.950 . S
C537 C533 1.393 . S
C537 C536 1.391 . S
C538 H528 0.950 . S
C538 C539 1.386 . S
C538 C540 1.391 . S
C539 C538 1.386 . S
C539 C543 1.393 . S
C540 H529 0.950 . S
C540 C538 1.391 . S
C540 C541 1.400 . S
C541 C535 1.491 . S
C541 C540 1.400 . S
C541 C542 1.398 . S
C542 H530 0.950 . S
C542 C541 1.398 . S
C542 C543 1.391 . S
C543 H531 0.950 . S
C543 C539 1.393 . S
C543 C542 1.391 . S
H544 C552 0.950 . S
H545 C557 0.951 1_565 S
H546 C554 0.950 . S
H547 C556 0.950 . S
H548 C558 0.950 . S
H549 C560 0.950 . S
H550 C562 0.950 . S
H551 C563 0.950 . S
C552 H544 0.950 . S
C552 C553 1.386 . S
C552 C554 1.391 . S
C553 C552 1.386 . S
C553 C557 1.393 . S
C554 H546 0.950 . S
C554 C552 1.391 . S
C554 C555 1.400 . S
C555 C554 1.400 . S
C555 C556 1.398 . S
C555 C561 1.491 . S
C556 H547 0.950 . S
C556 C555 1.398 . S
C556 C557 1.390 . S
C557 H545 0.951 1_545 S
C557 C553 1.393 . S
C557 C556 1.390 . S
C558 H548 0.950 . S
C558 C559 1.386 . S
C558 C560 1.391 . S
C559 C558 1.386 . S
C559 C563 1.393 . S
C560 H549 0.950 . S
C560 C558 1.391 . S
C560 C561 1.400 . S
C561 C555 1.491 . S
C561 C560 1.400 . S
C561 C562 1.398 . S
C562 H550 0.950 . S
C562 C561 1.398 . S
C562 C563 1.391 . S
C563 H551 0.950 . S
C563 C559 1.393 . S
C563 C562 1.391 . S
H564 C572 0.950 . S
H565 C577 0.950 . S
H566 C574 0.950 . S
H567 C576 0.950 . S
H568 C578 0.950 1_655 S
H569 C580 0.950 . S
H570 C582 0.950 . S
H571 C583 0.950 . S
C572 H564 0.950 . S
C572 C573 1.386 . S
C572 C574 1.391 . S
C573 C572 1.386 . S
C573 C577 1.393 . S
C574 H566 0.950 . S
C574 C572 1.391 . S
C574 C575 1.400 . S
C575 C574 1.400 . S
C575 C576 1.398 . S
C575 C581 1.491 . S
C576 H567 0.950 . S
C576 C575 1.398 . S
C576 C577 1.391 . S
C577 H565 0.950 . S
C577 C573 1.393 . S
C577 C576 1.391 . S
C578 H568 0.950 1_455 S
C578 C579 1.386 . S
C578 C580 1.391 . S
C579 C578 1.386 . S
C579 C583 1.393 . S
C580 H569 0.950 . S
C580 C578 1.391 . S
C580 C581 1.400 . S
C581 C575 1.491 . S
C581 C580 1.400 . S
C581 C582 1.398 . S
C582 H570 0.950 . S
C582 C581 1.398 . S
C582 C583 1.391 . S
C583 H571 0.950 . S
C583 C579 1.393 . S
C583 C582 1.391 . S
H584 C592 0.950 . S
H585 C597 0.950 1_545 S
H586 C594 0.950 . S
H587 C596 0.950 . S
H588 C598 0.950 . S
H589 C600 0.950 . S
H590 C602 0.950 . S
H591 C603 0.950 . S
C592 H584 0.950 . S
C592 C593 1.408 . S
C592 C594 1.391 . S
C593 C592 1.408 . S
C593 C597 1.402 . S
C594 H586 0.950 . S
C594 C592 1.391 . S
C594 C595 1.400 . S
C595 C594 1.400 . S
C595 C596 1.398 . S
C595 C601 1.491 . S
C596 H587 0.950 . S
C596 C595 1.398 . S
C596 C597 1.391 . S
C597 H585 0.950 1_565 S
C597 C593 1.402 . S
C597 C596 1.391 . S
C598 H588 0.950 . S
C598 C599 1.386 . S
C598 C600 1.391 . S
C599 C598 1.386 . S
C599 C603 1.393 . S
C600 H589 0.950 . S
C600 C598 1.391 . S
C600 C601 1.400 . S
C601 C595 1.491 . S
C601 C600 1.400 . S
C601 C602 1.398 . S
C602 H590 0.950 . S
C602 C601 1.398 . S
C602 C603 1.391 . S
C603 H591 0.950 . S
C603 C599 1.393 . S
C603 C602 1.391 . S
H604 C612 0.950 . S
H605 C617 0.950 . S
H606 C614 0.950 . S
H607 C616 0.950 . S
H608 C618 0.950 1_455 S
H609 C620 0.950 . S
H610 C622 0.950 . S
H611 C623 0.950 . S
C612 H604 0.950 . S
C612 C613 1.386 . S
C612 C614 1.391 . S
C613 C612 1.386 . S
C613 C617 1.393 . S
C614 H606 0.950 . S
C614 C612 1.391 . S
C614 C615 1.400 . S
C615 C614 1.400 . S
C615 C616 1.398 . S
C615 C621 1.491 . S
C616 H607 0.950 . S
C616 C615 1.398 . S
C616 C617 1.391 . S
C617 H605 0.950 . S
C617 C613 1.393 . S
C617 C616 1.391 . S
C618 H608 0.950 1_655 S
C618 C619 1.386 . S
C618 C620 1.391 . S
C619 C618 1.386 . S
C619 C623 1.393 . S
C620 H609 0.950 . S
C620 C618 1.391 . S
C620 C621 1.400 . S
C621 C615 1.491 . S
C621 C620 1.400 . S
C621 C622 1.398 . S
C622 H610 0.950 . S
C622 C621 1.398 . S
C622 C623 1.391 . S
C623 H611 0.950 . S
C623 C619 1.393 . S
C623 C622 1.391 . S
H624 C632 0.950 . S
H625 C637 0.950 . S
H626 C634 0.950 . S
H627 C636 0.950 . S
H628 C638 0.950 . S
H629 C640 0.950 . S
H630 C642 0.950 . S
H631 C643 0.950 . S
C632 H624 0.950 . S
C632 C633 1.403 . S
C632 C634 1.391 . S
C633 C632 1.403 . S
C633 C637 1.406 . S
C634 H626 0.950 . S
C634 C632 1.391 . S
C634 C635 1.400 . S
C635 C634 1.400 . S
C635 C636 1.398 . S
C635 C641 1.491 . S
C636 H627 0.950 . S
C636 C635 1.398 . S
C636 C637 1.391 . S
C637 H625 0.950 . S
C637 C633 1.406 . S
C637 C636 1.391 . S
C638 H628 0.950 . S
C638 C639 1.386 . S
C638 C640 1.391 . S
C639 C638 1.386 . S
C639 C643 1.393 . S
C640 H629 0.950 . S
C640 C638 1.391 . S
C640 C641 1.400 . S
C641 C635 1.491 . S
C641 C640 1.400 . S
C641 C642 1.398 . S
C642 H630 0.950 . S
C642 C641 1.398 . S
C642 C643 1.391 . S
C643 H631 0.950 . S
C643 C639 1.393 . S
C643 C642 1.391 . S
H644 C652 0.950 . S
H645 C657 0.950 . S
H646 C654 0.950 . S
H647 C656 0.950 . S
H648 C658 0.950 1_455 S
H649 C660 0.950 . S
H650 C662 0.950 . S
H651 C663 0.950 . S
C652 H644 0.950 . S
C652 C653 1.386 . S
C652 C654 1.391 . S
C653 C652 1.386 . S
C653 C657 1.393 . S
C654 H646 0.950 . S
C654 C652 1.391 . S
C654 C655 1.400 . S
C655 C654 1.400 . S
C655 C656 1.398 . S
C655 C661 1.491 . S
C656 H647 0.950 . S
C656 C655 1.398 . S
C656 C657 1.391 . S
C657 H645 0.950 . S
C657 C653 1.393 . S
C657 C656 1.391 . S
C658 H648 0.950 1_655 S
C658 C659 1.386 . S
C658 C660 1.391 . S
C659 C658 1.386 . S
C659 C663 1.393 . S
C660 H649 0.950 . S
C660 C658 1.391 . S
C660 C661 1.400 . S
C661 C655 1.491 . S
C661 C660 1.400 . S
C661 C662 1.398 . S
C662 H650 0.950 . S
C662 C661 1.398 . S
C662 C663 1.391 . S
C663 H651 0.950 . S
C663 C659 1.393 . S
C663 C662 1.391 . S
H664 C672 0.950 . S
H665 C677 0.950 . S
H666 C674 0.950 . S
H667 C676 0.950 . S
H668 C678 0.950 . S
H669 C680 0.950 . S
H670 C682 0.950 . S
H671 C683 0.957 . S
C672 H664 0.950 . S
C672 C673 1.386 . S
C672 C674 1.391 . S
C673 C672 1.386 . S
C673 C677 1.393 . S
C674 H666 0.950 . S
C674 C672 1.391 . S
C674 C675 1.400 . S
C675 C674 1.400 . S
C675 C676 1.398 . S
C675 C681 1.491 . S
C676 H667 0.950 . S
C676 C675 1.398 . S
C676 C677 1.391 . S
C677 H665 0.950 . S
C677 C673 1.393 . S
C677 C676 1.391 . S
C678 H668 0.950 . S
C678 C679 1.386 . S
C678 C680 1.391 . S
C679 C678 1.386 . S
C679 C683 1.392 1_545 S
C680 H669 0.950 . S
C680 C678 1.391 . S
C680 C681 1.400 . S
C681 C675 1.491 . S
C681 C680 1.400 . S
C681 C682 1.398 . S
C682 H670 0.950 . S
C682 C681 1.398 . S
C682 C683 1.384 1_545 S
C683 H671 0.957 . S
C683 C679 1.392 1_565 S
C683 C682 1.384 1_565 S
H684 C692 0.950 . S
H685 C697 0.950 . S
H686 C694 0.950 . S
H687 C696 0.950 . S
H688 C698 0.950 . S
H689 C700 0.950 . S
H690 C702 0.950 . S
H691 C703 0.950 1_655 S
C692 H684 0.950 . S
C692 C693 1.386 . S
C692 C694 1.391 . S
C693 C692 1.386 . S
C693 C697 1.393 . S
C694 H686 0.950 . S
C694 C692 1.391 . S
C694 C695 1.400 . S
C695 C694 1.400 . S
C695 C696 1.398 . S
C695 C701 1.491 . S
C696 H687 0.950 . S
C696 C695 1.398 . S
C696 C697 1.391 . S
C697 H685 0.950 . S
C697 C693 1.393 . S
C697 C696 1.391 . S
C698 H688 0.950 . S
C698 C699 1.386 . S
C698 C700 1.391 . S
C699 C698 1.386 . S
C699 C703 1.393 . S
C700 H689 0.950 . S
C700 C698 1.391 . S
C700 C701 1.400 . S
C701 C695 1.491 . S
C701 C700 1.400 . S
C701 C702 1.398 . S
C702 H690 0.950 . S
C702 C701 1.398 . S
C702 C703 1.391 . S
C703 H691 0.950 1_455 S
C703 C699 1.393 . S
C703 C702 1.391 . S
H704 C712 0.950 . S
H705 C717 0.950 . S
H706 C714 0.950 . S
H707 C716 0.950 . S
H708 C718 0.950 . S
H709 C720 0.950 . S
H710 C722 0.950 . S
H711 C723 0.950 . S
C712 H704 0.950 . S
C712 C713 1.386 . S
C712 C714 1.391 . S
C713 C712 1.386 . S
C713 C717 1.393 . S
C714 H706 0.950 . S
C714 C712 1.391 . S
C714 C715 1.400 . S
C715 C714 1.400 . S
C715 C716 1.398 . S
C715 C721 1.491 . S
C716 H707 0.950 . S
C716 C715 1.398 . S
C716 C717 1.391 . S
C717 H705 0.950 . S
C717 C713 1.393 . S
C717 C716 1.391 . S
C718 H708 0.950 . S
C718 C719 1.386 . S
C718 C720 1.391 . S
C719 C718 1.386 . S
C719 C723 1.393 . S
C720 H709 0.950 . S
C720 C718 1.391 . S
C720 C721 1.400 . S
C721 C715 1.491 . S
C721 C720 1.400 . S
C721 C722 1.398 . S
C722 H710 0.950 . S
C722 C721 1.398 . S
C722 C723 1.391 . S
C723 H711 0.950 . S
C723 C719 1.393 . S
C723 C722 1.391 . S
H724 C732 0.950 . S
H725 C737 0.950 . S
H726 C734 0.950 . S
H727 C736 0.950 . S
H728 C738 0.950 . S
H729 C740 0.950 . S
H730 C742 0.950 . S
H731 C743 0.950 . S
C732 H724 0.950 . S
C732 C733 1.386 . S
C732 C734 1.391 . S
C733 C732 1.386 . S
C733 C737 1.393 . S
C734 H726 0.950 . S
C734 C732 1.391 . S
C734 C735 1.400 . S
C735 C734 1.400 . S
C735 C736 1.398 . S
C735 C741 1.491 . S
C736 H727 0.950 . S
C736 C735 1.398 . S
C736 C737 1.391 . S
C737 H725 0.950 . S
C737 C733 1.393 . S
C737 C736 1.391 . S
C738 H728 0.950 . S
C738 C739 1.386 . S
C738 C740 1.391 . S
C739 C738 1.386 . S
C739 C743 1.393 . S
C740 H729 0.950 . S
C740 C738 1.391 . S
C740 C741 1.400 . S
C741 C735 1.491 . S
C741 C740 1.400 . S
C741 C742 1.398 . S
C742 H730 0.950 . S
C742 C741 1.398 . S
C742 C743 1.391 . S
C743 H731 0.950 . S
C743 C739 1.393 . S
C743 C742 1.391 . S
H744 C752 0.950 . S
H745 C757 0.950 . S
H746 C754 0.950 . S
H747 C756 0.950 . S
H748 C758 0.950 . S
H749 C760 0.950 . S
H750 C762 0.950 . S
H751 C763 0.950 . S
C752 H744 0.950 . S
C752 C753 1.386 . S
C752 C754 1.391 . S
C753 C752 1.386 . S
C753 C757 1.393 . S
C754 H746 0.950 . S
C754 C752 1.391 . S
C754 C755 1.400 . S
C755 C754 1.400 . S
C755 C756 1.398 . S
C755 C761 1.491 . S
C756 H747 0.950 . S
C756 C755 1.398 . S
C756 C757 1.391 . S
C757 H745 0.950 . S
C757 C753 1.393 . S
C757 C756 1.391 . S
C758 H748 0.950 . S
C758 C759 1.386 . S
C758 C760 1.391 . S
C759 C758 1.386 . S
C759 C763 1.393 . S
C760 H749 0.950 . S
C760 C758 1.391 . S
C760 C761 1.400 . S
C761 C755 1.491 . S
C761 C760 1.400 . S
C761 C762 1.398 . S
C762 H750 0.950 . S
C762 C761 1.398 . S
C762 C763 1.391 . S
C763 H751 0.950 . S
C763 C759 1.393 . S
C763 C762 1.391 . S
H764 C772 0.950 . S
H765 C777 0.950 . S
H766 C774 0.950 . S
H767 C776 0.950 . S
H768 C778 0.950 . S
H769 C780 0.950 . S
H770 C782 0.950 . S
H771 C783 0.950 . S
C772 H764 0.950 . S
C772 C773 1.386 . S
C772 C774 1.391 . S
C773 C772 1.386 . S
C773 C777 1.393 . S
C774 H766 0.950 . S
C774 C772 1.391 . S
C774 C775 1.400 . S
C775 C774 1.400 . S
C775 C776 1.398 . S
C775 C781 1.491 . S
C776 H767 0.950 . S
C776 C775 1.398 . S
C776 C777 1.391 . S
C777 H765 0.950 . S
C777 C773 1.393 . S
C777 C776 1.391 . S
C778 H768 0.950 . S
C778 C779 1.386 . S
C778 C780 1.391 . S
C779 C778 1.386 . S
C779 C783 1.393 . S
C780 H769 0.950 . S
C780 C778 1.391 . S
C780 C781 1.400 . S
C781 C775 1.491 . S
C781 C780 1.400 . S
C781 C782 1.398 . S
C782 H770 0.950 . S
C782 C781 1.398 . S
C782 C783 1.391 . S
C783 H771 0.950 . S
C783 C779 1.393 . S
C783 C782 1.391 . S
H784 C792 0.950 . S
H785 C797 0.950 . S
H786 C794 0.950 . S
H787 C796 0.950 . S
H788 C798 0.950 . S
H789 C800 0.950 . S
H790 C802 0.950 . S
H791 C803 0.950 . S
C792 H784 0.950 . S
C792 C793 1.386 1_565 S
C792 C794 1.391 . S
C793 C792 1.386 1_545 S
C793 C797 1.393 . S
C794 H786 0.950 . S
C794 C792 1.391 . S
C794 C795 1.400 1_565 S
C795 C794 1.400 1_545 S
C795 C796 1.398 . S
C795 C801 1.491 1_544 S
C796 H787 0.950 . S
C796 C795 1.398 . S
C796 C797 1.391 . S
C797 H785 0.950 . S
C797 C793 1.393 . S
C797 C796 1.391 . S
C798 H788 0.950 . S
C798 C799 1.386 1_545 S
C798 C800 1.391 . S
C799 C798 1.386 1_565 S
C799 C803 1.393 . S
C800 H789 0.950 . S
C800 C798 1.391 . S
C800 C801 1.400 1_545 S
C801 C795 1.491 1_566 S
C801 C800 1.400 1_565 S
C801 C802 1.398 . S
C802 H790 0.950 . S
C802 C801 1.398 . S
C802 C803 1.391 . S
C803 H791 0.950 . S
C803 C799 1.393 . S
C803 C802 1.391 . S
H804 C812 0.950 . S
H805 C817 0.950 . S
H806 C814 0.950 . S
H807 C816 0.950 . S
H808 C818 0.950 . S
H809 C820 0.950 . S
H810 C822 0.950 . S
H811 C823 0.950 . S
C812 H804 0.950 . S
C812 C813 1.386 1_655 S
C812 C814 1.391 . S
C813 C812 1.386 1_455 S
C813 C817 1.393 . S
C814 H806 0.950 . S
C814 C812 1.391 . S
C814 C815 1.400 1_655 S
C815 C814 1.400 1_455 S
C815 C816 1.398 . S
C815 C821 1.491 1_456 S
C816 H807 0.950 . S
C816 C815 1.398 . S
C816 C817 1.391 . S
C817 H805 0.950 . S
C817 C813 1.393 . S
C817 C816 1.391 . S
C818 H808 0.950 . S
C818 C819 1.386 1_455 S
C818 C820 1.391 . S
C819 C818 1.386 1_655 S
C819 C823 1.393 . S
C820 H809 0.950 . S
C820 C818 1.391 . S
C820 C821 1.400 1_455 S
C821 C815 1.491 1_654 S
C821 C820 1.400 1_655 S
C821 C822 1.398 . S
C822 H810 0.950 . S
C822 C821 1.398 . S
C822 C823 1.391 . S
C823 H811 0.950 . S
C823 C819 1.393 . S
C823 C822 1.391 . S
H824 C832 0.950 . S
H825 C837 0.950 . S
H826 C834 0.950 1_565 S
H827 C836 0.950 . S
H828 C838 0.950 . S
H829 C840 0.950 1_545 S
H830 C842 0.950 . S
H831 C843 0.950 . S
C832 H824 0.950 . S
C832 C833 1.386 . S
C832 C834 1.391 . S
C833 C832 1.386 . S
C833 C837 1.393 . S
C834 H826 0.950 1_545 S
C834 C832 1.391 . S
C834 C835 1.400 . S
C835 C834 1.400 . S
C835 C836 1.398 . S
C835 C841 1.491 1_546 S
C836 H827 0.950 . S
C836 C835 1.398 . S
C836 C837 1.391 . S
C837 H825 0.950 . S
C837 C833 1.393 . S
C837 C836 1.391 . S
C838 H828 0.950 . S
C838 C839 1.386 . S
C838 C840 1.391 . S
C839 C838 1.386 . S
C839 C843 1.393 . S
C840 H829 0.950 1_565 S
C840 C838 1.391 . S
C840 C841 1.400 . S
C841 C835 1.491 1_564 S
C841 C840 1.400 . S
C841 C842 1.398 . S
C842 H830 0.950 . S
C842 C841 1.398 . S
C842 C843 1.391 . S
C843 H831 0.950 . S
C843 C839 1.393 . S
C843 C842 1.391 . S
H844 C852 0.950 1_455 S
H845 C857 0.950 . S
H846 C854 0.950 . S
H847 C856 0.950 . S
H848 C858 0.950 1_655 S
H849 C860 0.950 . S
H850 C862 0.950 . S
H851 C863 0.950 . S
C852 H844 0.950 1_655 S
C852 C853 1.386 . S
C852 C854 1.391 1_655 S
C853 C852 1.386 . S
C853 C857 1.393 . S
C854 H846 0.950 . S
C854 C852 1.391 1_455 S
C854 C855 1.400 1_455 S
C855 C854 1.400 1_655 S
C855 C856 1.398 . S
C855 C861 1.491 1_656 S
C856 H847 0.950 . S
C856 C855 1.398 . S
C856 C857 1.391 . S
C857 H845 0.950 . S
C857 C853 1.393 . S
C857 C856 1.391 . S
C858 H848 0.950 1_455 S
C858 C859 1.386 . S
C858 C860 1.391 1_455 S
C859 C858 1.386 . S
C859 C863 1.393 . S
C860 H849 0.950 . S
C860 C858 1.391 1_655 S
C860 C861 1.400 1_655 S
C861 C855 1.491 1_454 S
C861 C860 1.400 1_455 S
C861 C862 1.398 . S
C862 H850 0.950 . S
C862 C861 1.398 . S
C862 C863 1.391 . S
C863 H851 0.950 . S
C863 C859 1.393 . S
C863 C862 1.391 . S
C233 C6 1.349 . S
C239 C104 1.364 . S
C253 C20 1.353 . S
C259 C62 1.360 . S
C273 C76 1.354 . S
C279 C34 1.360 . S
C293 C48 1.353 . S
C299 C90 1.360 . S
C313 C118 1.349 . S
C319 C216 1.364 . S
C333 C174 1.349 . S
C339 C132 1.364 . S
C353 C188 1.352 . S
C359 C146 1.362 . S
C373 C202 1.350 . S
C379 C160 1.363 . S
C393 C9 1.447 . S
C399 C162 1.497 . S
C413 C23 1.448 . S
C419 C120 1.495 . S
C433 C134 1.490 . S
C439 C37 1.470 . S
C453 C51 1.453 . S
C459 C148 1.492 . S
C473 C65 1.453 . S
C479 C190 1.498 . S
C493 C204 1.498 . S
C499 C79 1.451 . S
C513 C93 1.461 . S
C519 C218 1.496 . S
C533 C176 1.497 . S
C539 C107 1.448 . S
C553 C121 1.469 1_545 S
C559 C50 1.489 . S
C573 C8 1.498 . S
C579 C135 1.450 1_455 S
C593 C149 1.435 1_565 S
C599 C22 1.489 . S
C613 C36 1.498 . S
C619 C163 1.450 1_655 S
C633 C177 1.432 1_565 S
C639 C78 1.490 . S
C653 C92 1.498 . S
C659 C191 1.451 1_655 S
C673 C106 1.494 . S
C679 C205 1.449 1_545 S
C693 C64 1.494 . S
C699 C219 1.467 1_455 S
C713 C63 1.563 . S
C719 C7 1.574 . S
C733 C77 1.567 . S
C739 C21 1.578 . S
C753 C35 1.562 . S
C759 C91 1.576 . S
C773 C105 1.580 . S
C779 C49 1.560 . S
C793 C175 1.562 . S
C799 C119 1.581 . S
C813 C189 1.579 . S
C819 C133 1.560 . S
C833 C147 1.566 . S
C839 C203 1.570 . S
C853 C217 1.574 . S
C859 C161 1.563 . S
