# Generated by pormake.
# Topology wkf, (6)-cn, num edge types: 1
# Building blocks:
#     Node 0, Type 0, BuildingBlock: HISSIN_clean_sbu_0, # of connection points: 6
#     Node 1, Type 0, BuildingBlock: HISSIN_clean_sbu_0, # of connection points: 6
#     Node 2, Type 0, BuildingBlock: HISSIN_clean_sbu_0, # of connection points: 6
#     Node 3, Type 0, BuildingBlock: HISSIN_clean_sbu_0, # of connection points: 6
#     Node 4, Type 0, BuildingBlock: HISSIN_clean_sbu_0, # of connection points: 6
#     Node 5, Type 0, BuildingBlock: HISSIN_clean_sbu_0, # of connection points: 6
#     Node 6, Type 0, BuildingBlock: HISSIN_clean_sbu_0, # of connection points: 6
#     Node 7, Type 0, BuildingBlock: HISSIN_clean_sbu_0, # of connection points: 6
#     Node 8, Type 0, BuildingBlock: HISSIN_clean_sbu_0, # of connection points: 6
#     Node 9, Type 0, BuildingBlock: HISSIN_clean_sbu_0, # of connection points: 6
#     Node 10, Type 0, BuildingBlock: HISSIN_clean_sbu_0, # of connection points: 6
#     Node 11, Type 0, BuildingBlock: HISSIN_clean_sbu_0, # of connection points: 6
#     Edge 12, Type (0, 0), BuildingBlock: UVAHIK_clean_linker_0, # of connection points: 2
#     Edge 13, Type (0, 0), BuildingBlock: UVAHIK_clean_linker_0, # of connection points: 2
#     Edge 14, Type (0, 0), BuildingBlock: UVAHIK_clean_linker_0, # of connection points: 2
#     Edge 15, Type (0, 0), BuildingBlock: UVAHIK_clean_linker_0, # of connection points: 2
#     Edge 16, Type (0, 0), BuildingBlock: UVAHIK_clean_linker_0, # of connection points: 2
#     Edge 17, Type (0, 0), BuildingBlock: UVAHIK_clean_linker_0, # of connection points: 2
#     Edge 18, Type (0, 0), BuildingBlock: UVAHIK_clean_linker_0, # of connection points: 2
#     Edge 19, Type (0, 0), BuildingBlock: UVAHIK_clean_linker_0, # of connection points: 2
#     Edge 20, Type (0, 0), BuildingBlock: UVAHIK_clean_linker_0, # of connection points: 2
#     Edge 21, Type (0, 0), BuildingBlock: UVAHIK_clean_linker_0, # of connection points: 2
#     Edge 22, Type (0, 0), BuildingBlock: UVAHIK_clean_linker_0, # of connection points: 2
#     Edge 23, Type (0, 0), BuildingBlock: UVAHIK_clean_linker_0, # of connection points: 2
#     Edge 24, Type (0, 0), BuildingBlock: UVAHIK_clean_linker_0, # of connection points: 2
#     Edge 25, Type (0, 0), BuildingBlock: UVAHIK_clean_linker_0, # of connection points: 2
#     Edge 26, Type (0, 0), BuildingBlock: UVAHIK_clean_linker_0, # of connection points: 2
#     Edge 27, Type (0, 0), BuildingBlock: UVAHIK_clean_linker_0, # of connection points: 2
#     Edge 28, Type (0, 0), BuildingBlock: UVAHIK_clean_linker_0, # of connection points: 2
#     Edge 29, Type (0, 0), BuildingBlock: UVAHIK_clean_linker_0, # of connection points: 2
#     Edge 30, Type (0, 0), BuildingBlock: UVAHIK_clean_linker_0, # of connection points: 2
#     Edge 31, Type (0, 0), BuildingBlock: UVAHIK_clean_linker_0, # of connection points: 2
#     Edge 32, Type (0, 0), BuildingBlock: UVAHIK_clean_linker_0, # of connection points: 2
#     Edge 33, Type (0, 0), BuildingBlock: UVAHIK_clean_linker_0, # of connection points: 2
#     Edge 34, Type (0, 0), BuildingBlock: UVAHIK_clean_linker_0, # of connection points: 2
#     Edge 35, Type (0, 0), BuildingBlock: UVAHIK_clean_linker_0, # of connection points: 2
#     Edge 36, Type (0, 0), BuildingBlock: UVAHIK_clean_linker_0, # of connection points: 2
#     Edge 37, Type (0, 0), BuildingBlock: UVAHIK_clean_linker_0, # of connection points: 2
#     Edge 38, Type (0, 0), BuildingBlock: UVAHIK_clean_linker_0, # of connection points: 2
#     Edge 39, Type (0, 0), BuildingBlock: UVAHIK_clean_linker_0, # of connection points: 2
#     Edge 40, Type (0, 0), BuildingBlock: UVAHIK_clean_linker_0, # of connection points: 2
#     Edge 41, Type (0, 0), BuildingBlock: UVAHIK_clean_linker_0, # of connection points: 2
#     Edge 42, Type (0, 0), BuildingBlock: UVAHIK_clean_linker_0, # of connection points: 2
#     Edge 43, Type (0, 0), BuildingBlock: UVAHIK_clean_linker_0, # of connection points: 2
#     Edge 44, Type (0, 0), BuildingBlock: UVAHIK_clean_linker_0, # of connection points: 2
#     Edge 45, Type (0, 0), BuildingBlock: UVAHIK_clean_linker_0, # of connection points: 2
#     Edge 46, Type (0, 0), BuildingBlock: UVAHIK_clean_linker_0, # of connection points: 2
#     Edge 47, Type (0, 0), BuildingBlock: UVAHIK_clean_linker_0, # of connection points: 2
# Relax obj value: 0.235
# Max RMSD: 0.274
# Mean RMSD: 0.268
data_MOF--net-wkf--node1-HISSIN_clean_sbu_0--edge1-UVAHIK_clean_linker_0
_symmetry_space_group_name_H-M    P1
_symmetry_Int_Tables_number       1
_symmetry_cell_setting            triclinic
loop_
_symmetry_equiv_pos_as_xyz
'x, y, z'
_cell_length_a     35.625615
_cell_length_b     35.625208
_cell_length_c     120.13198
_cell_angle_alpha  90.030692
_cell_angle_beta   89.995726
_cell_angle_gamma 119.37329
loop_
_atom_site_label
_atom_site_type_symbol
_atom_site_fract_x
_atom_site_fract_y
_atom_site_fract_z
_atom_type_partial_charge
Eu0 Eu 0.48774 0.03198 0.39031 0.0
Eu1 Eu 0.4044 0.99368 0.37311 0.0
C2 C 0.48746 0.08938 0.37071 0.0
C3 C 0.55035 0.0804 0.41653 0.0
C4 C 0.54967 0.11926 0.41786 0.0
C5 C 0.55224 0.07432 0.43665 0.0
C6 C 0.55094 0.13578 0.42847 0.0
C7 C 0.55134 0.05795 0.42602 0.0
C8 C 0.5526 0.11373 0.438 0.0
C9 C 0.54812 0.06213 0.40535 0.0
O10 O 0.44452 0.96372 0.36687 0.0
O11 O 0.49496 0.98204 0.38083 0.0
C12 C 0.47611 0.96058 0.37176 0.0
O13 O 0.42913 0.98332 0.39979 0.0
O14 O 0.38481 0.99975 0.35638 0.0
O15 O 0.33639 0.95613 0.368 0.0
O16 O 0.38596 0.94046 0.38567 0.0
C17 C 0.3964 0.94701 0.39628 0.0
O18 O 0.45316 0.0683 0.39446 0.0
O19 O 0.38521 1.02128 0.38793 0.0
O20 O 0.44528 0.06601 0.3709 0.0
O21 O 0.52081 1.0212 0.40421 0.0
O22 O 0.54743 0.08464 0.39686 0.0
O23 O 0.51099 0.07411 0.37506 0.0
C24 C 0.32142 0.94241 0.34842 0.0
C25 C 0.2785 0.93144 0.34632 0.0
C26 C 0.32212 0.90794 0.33093 0.0
C27 C 0.25778 0.9097 0.33654 0.0
C28 C 0.34286 0.92979 0.34073 0.0
C29 C 0.27955 0.8984 0.32858 0.0
C30 C 0.34432 0.97147 0.35787 0.0
C31 C 0.41156 0.05399 0.39429 0.0
H32 H 0.54853 0.13724 0.41073 0.0
H33 H 0.55306 0.05628 0.44381 0.0
H34 H 0.55206 0.16662 0.42915 0.0
H35 H 0.5514 0.02769 0.42522 0.0
H36 H 0.26134 0.94099 0.3521 0.0
H37 H 0.34006 0.90006 0.32499 0.0
H38 H 0.2248 0.90224 0.33515 0.0
H39 H 0.37611 0.93809 0.3421 0.0
Eu40 Eu 0.49294 0.46743 0.55666 0.0
Eu41 Eu 0.43547 0.38893 0.5392 0.0
C42 C 0.42267 0.47257 0.54093 0.0
C43 C 0.51096 0.53509 0.58103 0.0
C44 C 0.4816 0.50052 0.58767 0.0
C45 C 0.48729 0.58114 0.58984 0.0
C46 C 0.45484 0.50605 0.59517 0.0
C47 C 0.51425 0.57566 0.58236 0.0
C48 C 0.45662 0.54611 0.59611 0.0
C49 C 0.53194 0.52703 0.57147 0.0
O50 O 0.50699 0.41349 0.53571 0.0
O51 O 0.53116 0.48296 0.54088 0.0
C52 C 0.53768 0.45409 0.53585 0.0
O53 O 0.50995 0.41538 0.56013 0.0
O54 O 0.41632 0.37319 0.5219 0.0
O55 O 0.39329 0.32166 0.53404 0.0
O56 O 0.44895 0.35651 0.55358 0.0
C57 C 0.48306 0.37368 0.56007 0.0
O58 O 0.43368 0.42277 0.56611 0.0
O59 O 0.38624 0.38637 0.55189 0.0
O60 O 0.42651 0.44558 0.53417 0.0
O61 O 0.53249 0.49069 0.57162 0.0
O62 O 0.52084 0.53477 0.56175 0.0
O63 O 0.44057 0.48085 0.5508 0.0
C64 C 0.39666 0.3036 0.51494 0.0
C65 C 0.43518 0.31499 0.50922 0.0
C66 C 0.35866 0.24348 0.50216 0.0
C67 C 0.43522 0.29121 0.4999 0.0
C68 C 0.35868 0.2672 0.51145 0.0
C69 C 0.39674 0.25562 0.49609 0.0
C70 C 0.39393 0.33178 0.52358 0.0
C71 C 0.39432 0.3995 0.56236 0.0
H72 H 0.47768 0.46856 0.58671 0.0
H73 H 0.48988 0.61263 0.59057 0.0
H74 H 0.4314 0.4785 0.59986 0.0
H75 H 0.53626 0.6026 0.57726 0.0
H76 H 0.46493 0.34303 0.51173 0.0
H77 H 0.3283 0.21673 0.49944 0.0
H78 H 0.46532 0.30115 0.49558 0.0
H79 H 0.32851 0.25809 0.51567 0.0
Eu80 Eu 0.04423 0.47565 0.72322 0.0
Eu81 Eu 0.06537 0.41863 0.70527 0.0
C82 C 0.96879 0.40616 0.7075 0.0
C83 C 1.00234 0.50344 0.74839 0.0
C84 C 0.96222 0.4656 0.74804 0.0
C85 C 0.99628 0.50533 0.76848 0.0
C86 C 0.93916 0.44797 0.75782 0.0
C87 C 1.01912 0.52323 0.75866 0.0
C88 C 0.95606 0.46738 0.76818 0.0
C89 C 1.02942 0.51883 0.73839 0.0
O90 O 0.11066 0.49016 0.70178 0.0
O91 O 0.06581 0.51468 0.70753 0.0
C92 C 0.10063 0.52114 0.70226 0.0
O93 O 0.11277 0.49061 0.72608 0.0
O94 O 0.05652 0.39446 0.6883 0.0
O95 O 0.09693 0.38228 0.69949 0.0
O96 O 0.10827 0.42772 0.72002 0.0
C97 C 0.12603 0.46214 0.72637 0.0
O98 O 1.02457 0.41359 0.73217 0.0
O99 O 1.02083 0.36839 0.71785 0.0
O100 O 0.99909 0.40875 0.70074 0.0
O101 O 0.06271 0.51292 0.73857 0.0
O102 O 1.00972 0.50878 0.72877 0.0
O103 O 0.97848 0.42546 0.71723 0.0
C104 C 0.11098 0.38377 0.67992 0.0
C105 C 0.12082 0.35101 0.67752 0.0
C106 C 0.14739 0.42017 0.6628 0.0
C107 C 0.14314 0.35239 0.66779 0.0
C108 C 0.12514 0.41881 0.67257 0.0
C109 C 0.15603 0.38658 0.66018 0.0
C110 C 0.08202 0.37815 0.68938 0.0
C111 C 1.01294 0.37508 0.7282 0.0
H112 H 0.94897 0.44913 0.74024 0.0
H113 H 1.01056 0.52083 0.77631 0.0
H114 H 0.90796 0.41924 0.75723 0.0
H115 H 0.0505 0.55186 0.75912 0.0
H116 H 0.10989 0.32347 0.68301 0.0
H117 H 0.15743 0.44736 0.65725 0.0
H118 H 0.14878 0.32576 0.66603 0.0
H119 H 0.11803 0.44457 0.67421 0.0
Eu120 Eu 0.59996 0.04601 0.88979 0.0
Eu121 Eu 0.67862 0.06284 0.87279 0.0
C122 C 0.59224 0.97079 0.87352 0.0
C123 C 0.52868 1.00831 0.91449 0.0
C124 C 0.52765 0.96841 0.91448 0.0
C125 C 0.51708 1.00241 0.93446 0.0
C126 C 0.52116 0.94558 0.92437 0.0
C127 C 0.52321 1.02508 0.92452 0.0
C128 C 0.51621 0.96247 0.93451 0.0
C129 C 0.54184 0.03521 0.90444 0.0
O130 O 0.65416 0.10999 0.86856 0.0
O131 O 0.58466 0.0673 0.87376 0.0
C132 C 0.61375 0.10152 0.8686 0.0
O133 O 0.65637 0.11257 0.89296 0.0
O134 O 0.70513 0.04308 0.85889 0.0
O135 O 0.74181 0.10698 0.86588 0.0
O136 O 0.70991 0.09787 0.88862 0.0
C137 C 0.69609 0.12016 0.89425 0.0
O138 O 0.63489 1.01824 0.89909 0.0
O139 O 0.68354 1.01934 0.88612 0.0
O140 O 0.61984 1.00147 0.86691 0.0
O141 O 0.58124 0.06707 0.90477 0.0
O142 O 0.53247 1.01514 0.89488 0.0
O143 O 0.58369 0.98006 0.88345 0.0
C144 C 0.75449 0.09855 0.84679 0.0
C145 C 0.75379 0.13566 0.84312 0.0
C146 C 0.78976 0.09795 0.82946 0.0
C147 C 0.77145 0.15404 0.83275 0.0
C148 C 0.7722 0.07968 0.83981 0.0
C149 C 0.7902 0.13575 0.82583 0.0
C150 C 0.73978 0.08056 0.85809 0.0
C151 C 0.6638 1.0078 0.89589 0.0
H152 H 0.53276 0.95521 0.90687 0.0
H153 H 0.51389 1.0166 0.94212 0.0
H154 H 0.51983 0.91457 0.92404 0.0
H155 H 0.52498 0.05632 0.92472 0.0
H156 H 0.74039 0.15097 0.84833 0.0
H157 H 0.80311 0.08242 0.82432 0.0
H158 H 0.77149 0.18332 0.83032 0.0
H159 H 0.77312 0.05107 0.84246 0.0
Eu160 Eu 0.59071 0.59517 0.05655 0.0
Eu161 Eu 0.64704 0.68255 0.04125 0.0
C162 C 0.66045 0.5995 0.03883 0.0
C163 C 0.56825 0.49781 0.07176 0.0
C164 C 0.61302 0.51479 0.07117 0.0
C165 C 0.56012 0.42788 0.07618 0.0
C166 C 0.63121 0.48848 0.07279 0.0
C167 C 0.54186 0.45436 0.07444 0.0
C168 C 0.60495 0.44449 0.0751 0.0
C169 C 0.54991 0.52438 0.0679 0.0
O170 O 0.57585 0.65625 0.03713 0.0
O171 O 0.55263 0.58583 0.04095 0.0
C172 C 0.5457 0.61559 0.03667 0.0
O173 O 0.57483 0.64524 0.06292 0.0
O174 O 0.69886 0.72113 1.02952 0.0
O175 O 0.65426 0.7427 0.03448 0.0
O176 O 0.63804 0.70521 0.0581 0.0
C177 C 0.60358 0.68596 0.06443 0.0
O178 O 0.65493 0.62823 0.06505 0.0
O179 O 0.69537 0.69018 0.05473 0.0
O180 O 0.65646 0.62939 0.03331 0.0
O181 O 0.56602 0.56252 0.07244 0.0
O182 O 0.54746 0.52586 0.05709 0.0
O183 O 0.64252 0.58625 0.04859 0.0
C184 C 0.68718 0.76535 1.01676 0.0
C185 C 0.71822 0.8074 1.01385 0.0
C186 C 0.65755 0.75505 0.99802 0.0
C187 C 0.719 0.82328 1.00315 0.0
C188 C 0.65683 0.73916 1.00877 0.0
C189 C 0.68868 0.79741 0.99506 0.0
C190 C 0.68702 0.75014 1.02821 0.0
C191 C 0.6909 0.66411 0.06307 0.0
H192 H 0.63386 0.5481 0.06892 0.0
H193 H 0.53907 0.39425 0.07814 0.0
H194 H 0.66567 0.5023 0.07172 0.0
H195 H 0.5072 0.44065 0.07481 0.0
H196 H 0.7418 0.82821 1.01992 0.0
H197 H 0.63395 0.73402 0.992 0.0
H198 H 0.74296 0.8562 1.00129 0.0
H199 H 0.63259 0.70656 1.01085 0.0
Eu200 Eu 1.02654 0.57544 0.21832 0.0
Eu201 Eu 1.00935 0.64471 0.20463 0.0
C202 C 0.10096 0.6486 0.20317 0.0
C203 C 0.06685 0.53251 0.24027 0.0
C204 C 0.10838 0.56845 0.23999 0.0
C205 C 0.07448 0.52616 0.26016 0.0
C206 C 0.1327 0.58312 0.24969 0.0
C207 C 0.05024 0.51121 0.25039 0.0
C208 C 0.11581 0.56263 0.25993 0.0
C209 C 1.03829 0.52221 0.23059 0.0
O210 O 0.96079 0.57622 0.19894 0.0
O211 O 1.00307 0.54589 0.20155 0.0
C212 C 0.96856 0.54412 0.19728 0.0
O213 O 0.96102 0.56635 0.22316 0.0
O214 O 1.0289 0.69774 0.19281 0.0
O215 O 0.96375 0.66529 0.19913 0.0
O216 O 0.9765 0.63593 0.22109 0.0
C217 C 0.95444 0.59835 0.2259 0.0
O218 O 0.05635 0.63331 0.22941 0.0
O219 O 0.05251 0.68591 0.21896 0.0
O220 O 0.06985 0.64872 0.19727 0.0
O221 O 1.00657 0.53005 0.2321 0.0
O222 O 0.05675 0.53558 0.22089 0.0
O223 O 0.09227 0.62638 0.21245 0.0
C224 C 0.97394 0.69514 0.18108 0.0
C225 C 0.95734 0.72297 0.17911 0.0
C226 C 0.95685 0.66973 0.16195 0.0
C227 C 0.94058 0.72424 0.16867 0.0
C228 C 0.97357 0.66844 0.17243 0.0
C229 C 0.94007 0.69765 0.15993 0.0
C230 C 0.99072 0.69415 0.19225 0.0
C231 C 0.06551 0.67343 0.22786 0.0
H232 H 0.12169 0.58612 0.23234 0.0
H233 H 0.06044 0.50979 0.26791 0.0
H234 H 0.16479 0.61063 0.24914 0.0
H235 H 1.01786 0.48407 0.25082 0.0
H236 H 0.95706 0.74361 0.1857 0.0
H237 H 0.95743 0.6491 0.15541 0.0
H238 H 0.9273 0.74556 0.16753 0.0
H239 H 0.98615 0.64662 0.17379 0.0
Eu240 Eu 1.03732 0.59222 0.49448 0.0
Eu241 Eu 0.08461 0.68239 0.50879 0.0
C242 C 0.99035 0.60468 0.5154 0.0
C243 C 0.94736 0.48585 0.48598 0.0
C244 C 0.9198 0.49679 0.49174 0.0
C245 C 0.88777 0.41395 0.48305 0.0
C246 C 0.87647 0.4664 0.49322 0.0
C247 C 0.93121 0.44435 0.48165 0.0
C248 C 0.85992 0.42457 0.4889 0.0
C249 C 0.99314 0.51749 0.48494 0.0
O250 O 0.10455 0.63602 0.51642 0.0
O251 O 0.10056 0.60038 0.50034 0.0
C252 C 0.11621 0.61254 0.51037 0.0
O253 O 0.08604 0.63818 0.48216 0.0
O254 O 0.08103 0.73204 0.5187 0.0
O255 O 0.14278 0.73573 0.51601 0.0
O256 O 0.12667 0.69667 0.49354 0.0
C257 C 0.11955 0.67653 0.4839 0.0
O258 O 1.00008 0.62698 0.4915 0.0
O259 O 0.05571 0.69574 0.49339 0.0
O260 O 1.01524 0.64658 0.51468 0.0
O261 O 1.00159 0.55369 0.48016 0.0
O262 O 1.01572 0.52347 0.49398 0.0
O263 O 1.00257 0.57885 0.51094 0.0
C264 C 0.13566 0.76989 0.53222 0.0
C265 C 0.16653 0.81336 0.53357 0.0
C266 C 0.13129 0.76172 0.55239 0.0
C267 C 0.1796 0.83103 0.54419 0.0
C268 C 0.11817 0.74403 0.5417 0.0
C269 C 0.16204 0.80559 0.55377 0.0
C270 C 0.12219 0.75303 0.52083 0.0
C271 C 1.01808 0.66808 0.4891 0.0
H272 H 0.93194 0.52884 0.49515 0.0
H273 H 0.8759 0.3823 0.47941 0.0
H274 H 0.85607 0.47557 0.49781 0.0
H275 H 0.95214 0.43547 0.47719 0.0
H276 H 0.18057 0.83382 0.52636 0.0
H277 H 0.11685 0.74122 0.55956 0.0
H278 H 0.2039 0.86463 0.54489 0.0
H279 H 0.09426 0.71034 0.54084 0.0
Eu280 Eu 0.46806 1.01932 0.66155 0.0
Eu281 Eu 0.42642 0.06892 0.67573 0.0
C282 C 0.4061 0.97221 0.68184 0.0
C283 C 0.46815 0.92417 0.64957 0.0
C284 C 0.48532 0.89801 0.65291 0.0
C285 C 0.40117 0.86015 0.64456 0.0
C286 C 0.46057 0.85322 0.65211 0.0
C287 C 0.42569 0.9048 0.64546 0.0
C288 C 0.41835 0.83395 0.64788 0.0
C289 C 0.4928 0.97107 0.65135 0.0
O290 O 0.49201 0.08783 0.68353 0.0
O291 O 0.5245 0.07948 0.66804 0.0
C292 C 0.52719 0.09688 0.67784 0.0
O293 O 0.4703 0.06822 0.6493 0.0
O294 O 0.37656 0.06561 0.68693 0.0
O295 O 0.4278 0.12775 0.6817 0.0
O296 O 0.45579 0.11176 0.6607 0.0
C297 C 0.46731 0.1031 0.65103 0.0
O298 O 0.39699 0.98406 0.6583 0.0
O299 O 0.38406 0.04049 0.66033 0.0
O300 O 0.39042 0.99865 0.68106 0.0
O301 O 0.47862 0.99378 0.64614 0.0
O302 O 0.5032 0.98336 0.66166 0.0
O303 O 0.44427 0.98353 0.67776 0.0
C304 C 0.39438 0.12503 0.69905 0.0
C305 C 0.38568 0.15925 0.7 0.0
C306 C 0.40029 0.12428 0.71925 0.0
C307 C 0.38398 0.17571 0.71045 0.0
C308 C 0.40199 0.1078 0.70875 0.0
C309 C 0.39086 0.15826 0.72024 0.0
C310 C 0.39361 0.10724 0.68787 0.0
C311 C 0.37424 1.0028 0.65595 0.0
H312 H 0.5177 0.91223 0.65624 0.0
H313 H 0.36867 0.84605 0.64131 0.0
H314 H 0.47474 0.83366 0.65458 0.0
H315 H 0.41113 0.92405 0.64304 0.0
H316 H 0.37982 0.1731 0.69262 0.0
H317 H 0.40547 0.1098 0.72659 0.0
H318 H 0.37749 0.20236 0.71083 0.0
H319 H 0.40875 0.08133 0.70822 0.0
Eu320 Eu 0.47736 0.46707 0.82797 0.0
Eu321 Eu 0.38723 0.42592 0.84218 0.0
C322 C 0.46577 0.40925 0.8491 0.0
C323 C 0.58239 0.47944 0.81936 0.0
C324 C 0.56984 0.43998 0.8247 0.0
C325 C 0.65369 0.48867 0.81662 0.0
C326 C 0.59907 0.42489 0.826 0.0
C327 C 0.62442 0.50377 0.81535 0.0
C328 C 0.64135 0.44909 0.82197 0.0
C329 C 0.55174 0.49544 0.81837 0.0
O330 O 0.43319 0.49213 0.84957 0.0
O331 O 0.46884 0.52254 0.83346 0.0
C332 C 0.45637 0.52663 0.84343 0.0
O333 O 0.43033 0.46722 0.81542 0.0
O334 O 0.33668 0.3727 0.85175 0.0
O335 O 0.33516 0.43232 0.8499 0.0
O336 O 0.37255 0.45329 0.8268 0.0
C337 C 0.39226 0.46386 0.81708 0.0
O338 O 0.44354 0.39546 0.82555 0.0
O339 O 0.37461 0.38334 0.82685 0.0
O340 O 0.42382 0.39286 0.84843 0.0
O341 O 0.51533 0.46916 0.81354 0.0
O342 O 0.54629 0.51233 0.82745 0.0
O343 O 0.49135 0.44658 0.84451 0.0
C344 C 0.30241 0.39066 0.86628 0.0
C345 C 0.31288 0.42705 0.87291 0.0
C346 C 0.25617 0.34509 0.88122 0.0
C347 C 0.29476 0.42247 0.88353 0.0
C348 C 0.2742 0.34969 0.8706 0.0
C349 C 0.26569 0.38142 0.88779 0.0
C350 C 0.31758 0.39447 0.8546 0.0
C351 C 0.40279 0.37295 0.82285 0.0
H352 H 0.5374 0.4209 0.82788 0.0
H353 H 0.68578 0.50766 0.81323 0.0
H354 H 0.58866 0.39448 0.83021 0.0
H355 H 0.63454 0.53431 0.81124 0.0
H356 H 0.33437 0.45914 0.86981 0.0
H357 H 0.23459 0.31293 0.88425 0.0
H358 H 0.30259 0.45126 0.88827 0.0
H359 H 0.26545 0.3211 0.86567 0.0
Eu360 Eu 0.04474 0.47399 0.99377 0.0
Eu361 Eu 0.99829 0.38685 1.00924 0.0
C362 C 0.09351 0.46493 1.01473 0.0
C363 C 0.13419 0.5785 0.98414 0.0
C364 C 0.16237 0.56793 0.98972 0.0
C365 C 0.19307 0.65056 0.98104 0.0
C366 C 0.20573 0.59857 0.99099 0.0
C367 C 0.14967 0.61989 0.97981 0.0
C368 C 0.22153 0.6403 0.9867 0.0
C369 C 0.08836 0.54685 0.9834 0.0
O370 O 0.97763 0.43424 1.01587 0.0
O371 O 0.98198 0.4675 0.99935 0.0
C372 C 0.96648 0.45718 1.00944 0.0
O373 O 0.99474 0.42598 0.98204 0.0
O374 O 1.00316 0.34374 1.0214 0.0
O375 O 0.94031 0.33167 1.01597 0.0
O376 O 0.95659 0.36818 0.99383 0.0
C377 C 0.96244 0.38713 0.98406 0.0
O378 O 0.08162 0.4387 0.99115 0.0
O379 O 1.02706 0.37008 0.9943 0.0
O380 O 0.06855 0.42298 1.01438 0.0
O381 O 0.07945 0.50981 0.97904 0.0
O382 O 0.06646 0.5426 0.99248 0.0
O383 O 0.08076 0.49006 1.0101 0.0
C384 C 0.9442 0.30599 0.03404 0.0
C385 C 0.90268 0.27061 0.03526 0.0
C386 C 0.95252 0.3081 0.05425 0.0
C387 C 0.88639 0.25379 0.0458 0.0
C388 C 0.96886 0.32496 0.04366 0.0
C389 C 0.91129 0.27179 0.05544 0.0
C390 C 0.9616 0.32005 1.02264 0.0
C391 C 0.06389 0.39709 0.9895 0.0
H392 H 0.15069 0.53601 0.99318 0.0
H393 H 0.20445 0.68218 0.97744 0.0
H394 H 0.22673 0.58976 0.99543 0.0
H395 H 0.12823 0.6285 0.97551 0.0
H396 H 0.883 0.25533 1.02799 0.0
H397 H 0.97274 0.32267 0.06146 0.0
H398 H 0.85425 0.22637 0.04637 0.0
H399 H 1.00106 0.35223 0.043 0.0
Eu400 Eu 0.59325 1.01864 0.15809 0.0
Eu401 Eu 0.64898 1.006 0.17793 0.0
C402 C 0.65851 0.09945 0.17318 0.0
C403 C 0.57453 0.06038 0.13184 0.0
C404 C 0.60983 0.10156 0.13363 0.0
C405 C 0.58371 0.07239 0.1119 0.0
C406 C 0.63143 0.12817 0.12466 0.0
C407 C 0.56179 0.04584 0.12092 0.0
C408 C 0.61869 0.114 0.11367 0.0
C409 C 0.5549 0.03077 0.14124 0.0
O410 O 0.57768 0.96086 0.18171 0.0
O411 O 0.55045 0.99945 0.17314 0.0
C412 C 0.54536 0.96819 0.17982 0.0
O413 O 0.57418 0.9485 0.15832 0.0
O414 O 0.6672 1.01462 0.19541 0.0
O415 O 0.69253 0.98396 0.18448 0.0
O416 O 0.63786 0.95621 0.16467 0.0
C417 C 0.60251 0.93515 0.15873 0.0
O418 O 0.65409 0.02773 0.15012 0.0
O419 O 0.69904 0.05033 0.16526 0.0
O420 O 0.65447 0.07158 0.18093 0.0
O421 O 0.56412 0.99965 0.14165 0.0
O422 O 0.5578 0.04839 0.15099 0.0
O423 O 0.6425 0.0863 0.16319 0.0
C424 C 0.6864 0.96581 0.20389 0.0
C425 C 0.71807 0.95353 0.2051 0.0
C426 C 0.65521 0.93079 0.22157 0.0
C427 C 0.71867 0.93054 0.2145 0.0
C428 C 0.65454 0.9536 0.21215 0.0
C429 C 0.68769 0.91949 0.22298 0.0
C430 C 0.69006 0.9952 0.19468 0.0
C431 C 0.69286 0.04793 0.1544 0.0
H432 H 0.62104 0.1132 0.14198 0.0
H433 H 0.57332 0.06032 0.10354 0.0
H434 H 0.65754 0.16028 0.12639 0.0
H435 H 0.53536 1.0137 0.11937 0.0
H436 H 0.74315 0.96272 0.1989 0.0
H437 H 0.63108 0.92338 0.22794 0.0
H438 H 0.74372 0.92181 0.21517 0.0
H439 H 0.62978 0.96277 0.21152 0.0
Eu440 Eu 0.61081 0.57747 0.32809 0.0
Eu441 Eu 0.69835 0.64045 0.34236 0.0
C442 C 0.61257 0.6485 0.34498 0.0
C443 C 0.50869 0.54338 0.31381 0.0
C444 C 0.51999 0.58683 0.31497 0.0
C445 C 0.43665 0.5267 0.30845 0.0
C446 C 0.48964 0.60002 0.31324 0.0
C447 C 0.46706 0.51338 0.31041 0.0
C448 C 0.44738 0.57008 0.31009 0.0
C449 C 0.53933 0.5298 0.3175 0.0
O450 O 0.67636 0.57065 0.34726 0.0
O451 O 0.60516 0.54542 0.34449 0.0
C452 C 0.63622 0.54002 0.34849 0.0
O453 O 0.66308 0.56376 0.32211 0.0
O454 O 0.73558 0.69462 0.35364 0.0
O455 O 0.76115 0.65334 0.34852 0.0
O456 O 0.71993 0.6308 0.32552 0.0
C457 C 0.70257 0.59436 0.31997 0.0
O458 O 0.63889 0.63961 0.31868 0.0
O459 O 0.70074 0.68521 0.32845 0.0
O460 O 0.64415 0.64736 0.35042 0.0
O461 O 0.57682 0.54882 0.31257 0.0
O462 O 0.54285 0.52909 0.32829 0.0
O463 O 0.59859 0.6283 0.33549 0.0
C464 C 0.78257 0.68675 0.36628 0.0
C465 C 0.77297 0.64906 0.37219 0.0
C466 C 0.82739 0.72944 0.38173 0.0
C467 C 0.79091 0.65159 0.38274 0.0
C468 C 0.80956 0.72686 0.37119 0.0
C469 C 0.81875 0.69186 0.38761 0.0
C470 C 0.76646 0.68531 0.35486 0.0
C471 C 0.67334 0.67732 0.32019 0.0
H472 H 0.552 0.61044 0.31764 0.0
H473 H 0.40466 0.50292 0.30578 0.0
H474 H 0.49908 0.63346 0.31476 0.0
H475 H 0.45781 0.47968 0.30952 0.0
H476 H 0.75217 0.61767 0.36858 0.0
H477 H 0.84796 0.76098 0.38528 0.0
H478 H 0.7838 0.62196 0.38695 0.0
H479 H 0.81727 0.75635 0.3668 0.0
C480 C 0.11925 0.6951 0.24321 0.0
C481 C 0.09196 0.70443 0.23671 0.0
C482 C 0.14161 0.72079 0.25229 0.0
C483 C 0.138 0.7946 0.2731 0.0
H484 H 0.25376 0.81705 0.27971 0.0
C485 C 0.23276 0.89214 0.3121 0.0
C486 C 0.25848 0.87831 0.31774 0.0
C487 C 0.2136 0.87402 0.30184 0.0
C488 C 0.22126 0.8107 0.27808 0.0
H489 H 0.0676 0.74895 0.23458 0.0
H490 H 0.10693 0.79431 0.25064 0.0
H491 H 0.21965 0.78226 0.26226 0.0
H492 H 0.28342 0.83378 0.31696 0.0
H493 H 0.24987 0.80199 0.29918 0.0
H494 H 0.1393 0.82229 0.28904 0.0
C495 C 0.11073 0.76673 0.24863 0.0
C496 C 0.20173 0.79088 0.26802 0.0
C497 C 0.0885 0.74104 0.23938 0.0
C498 C 0.26436 0.84571 0.31282 0.0
C499 C 0.24512 0.82751 0.30258 0.0
C500 C 0.15753 0.81436 0.2832 0.0
C501 C 0.13735 0.75666 0.25524 0.0
C502 C 0.15959 0.78194 0.26545 0.0
C503 C 0.21955 0.84148 0.29691 0.0
C504 C 0.19925 0.82216 0.28592 0.0
H505 H 0.12294 0.66729 0.24138 0.0
H506 H 0.16126 0.7116 0.25722 0.0
H507 H 0.10535 0.78777 0.27147 0.0
H508 H 0.22807 0.9177 0.31549 0.0
H509 H 0.19474 0.88616 0.29769 0.0
C510 C 0.36857 0.18797 0.48441 0.0
C511 C 0.39561 0.23277 0.48551 0.0
C512 C 0.36543 0.16714 0.47426 0.0
C513 C 0.38568 0.18931 0.44391 0.0
H514 H 0.37664 0.07638 0.44301 0.0
C515 C 0.41955 0.11798 0.40455 0.0
C516 C 0.39548 0.07344 0.40257 0.0
C517 C 0.41289 0.13607 0.41415 0.0
C518 C 0.37836 0.10759 0.44311 0.0
H519 H 0.44087 0.29049 0.47667 0.0
H520 H 0.43641 0.25416 0.45916 0.0
H521 H 0.38069 0.11048 0.46093 0.0
H522 H 0.3446 1.013 0.40894 0.0
H523 H 0.33258 0.04469 0.42582 0.0
H524 H 0.38442 0.18682 0.42608 0.0
C525 C 0.41696 0.23512 0.46609 0.0
C526 C 0.38081 0.12725 0.45341 0.0
C527 C 0.42006 0.25594 0.47622 0.0
C528 C 0.36294 0.04755 0.41013 0.0
C529 C 0.35661 0.06563 0.41988 0.0
C530 C 0.38341 0.16973 0.43363 0.0
C531 C 0.38924 0.19049 0.46491 0.0
C532 C 0.38503 0.16865 0.45396 0.0
C533 C 0.38236 0.10998 0.42214 0.0
C534 C 0.3802 0.12882 0.43308 0.0
H535 H 0.3496 0.16888 0.49139 0.0
H536 H 0.34356 0.13281 0.47369 0.0
H537 H 0.38791 0.22073 0.44397 0.0
H538 H 0.4453 0.13857 0.39893 0.0
H539 H 0.4336 0.17018 0.41563 0.0
C540 C 0.20702 0.3717 0.6488 0.0
C541 C 0.17677 0.38624 0.64937 0.0
C542 C 0.22552 0.37036 0.63861 0.0
C543 C 0.24659 0.41644 0.61011 0.0
H544 H 0.27105 0.32392 0.60363 0.0
C545 C 0.3669 0.43097 0.57634 0.0
C546 C 0.35991 0.39473 0.5701 0.0
C547 C 0.33929 0.42746 0.58499 0.0
C548 C 0.26388 0.34967 0.60522 0.0
H549 H 0.14181 0.40998 0.63951 0.0
H550 H 0.17403 0.40775 0.62181 0.0
H551 H 0.23378 0.32236 0.62085 0.0
H552 H 0.31755 0.32642 0.56776 0.0
H553 H 0.26831 0.31997 0.58301 0.0
H554 H 0.27658 0.44377 0.59452 0.0
C555 C 0.18403 0.398 0.62927 0.0
C556 C 0.24305 0.34912 0.61519 0.0
C557 C 0.16557 0.39939 0.63946 0.0
C558 C 0.32344 0.35489 0.57239 0.0
C559 C 0.29566 0.35122 0.58119 0.0
C560 C 0.2674 0.417 0.60018 0.0
C561 C 0.21427 0.38346 0.62869 0.0
C562 C 0.2346 0.3828 0.61784 0.0
C563 C 0.30368 0.38746 0.5877 0.0
C564 C 0.27697 0.384 0.59766 0.0
H565 H 0.21688 0.36183 0.65626 0.0
H566 H 0.24924 0.35971 0.63854 0.0
H567 H 0.24102 0.44313 0.61187 0.0
H568 H 0.39473 0.46218 0.57473 0.0
H569 H 0.34704 0.45598 0.58985 0.0
C570 C 0.9447 0.33398 0.73852 0.0
C571 C 0.98497 0.33891 0.73556 0.0
C572 C 0.92146 0.30764 0.74744 0.0
C573 C 0.91403 0.22364 0.76725 0.0
H574 H 0.86177 0.27312 0.78634 0.0
C575 C 0.84928 0.15751 0.81151 0.0
C576 C 0.81104 0.15646 0.81502 0.0
C577 C 0.86926 0.17745 0.80149 0.0
C578 C 0.8756 0.25843 0.78106 0.0
H579 H 1.03245 0.31981 0.73944 0.0
H580 H 0.99177 0.27332 0.75511 0.0
H581 H 0.89783 0.31003 0.76933 0.0
H582 H 0.76358 0.17514 0.81047 0.0
H583 H 0.79842 0.20998 0.79306 0.0
H584 H 0.89198 0.17212 0.77911 0.0
C585 C 0.97767 0.28922 0.75041 0.0
C586 C 0.89635 0.27966 0.77125 0.0
C587 C 1.00093 0.31561 0.7414 0.0
C588 C 0.7933 0.17583 0.80817 0.0
C589 C 0.81333 0.19584 0.79815 0.0
C590 C 0.89322 0.20233 0.77709 0.0
C591 C 0.9382 0.28596 0.75376 0.0
C592 C 0.91577 0.26257 0.76417 0.0
C593 C 0.85169 0.19708 0.79468 0.0
C594 C 0.87365 0.21941 0.78413 0.0
H595 H 0.93205 0.35217 0.73423 0.0
H596 H 0.89087 0.30532 0.74959 0.0
H597 H 0.92824 0.20927 0.76199 0.0
H598 H 0.86442 0.14369 0.81663 0.0
H599 H 0.89908 0.17832 0.79921 0.0
C600 C 0.71265 0.98681 0.90628 0.0
C601 C 0.67129 0.97996 0.90372 0.0
C602 C 0.71848 0.96399 0.91507 0.0
C603 C 0.65877 0.86768 0.93335 0.0
H604 H 0.74594 0.93399 0.95536 0.0
C605 C 0.65074 0.80555 0.97822 0.0
C606 C 0.68931 0.81501 0.9837 0.0
C607 C 0.65141 0.82349 0.96779 0.0
C608 C 0.72182 0.91472 0.94923 0.0
H609 H 0.60356 0.94253 0.90795 0.0
H610 H 0.61351 0.90295 0.923 0.0
H611 H 0.74331 0.96809 0.93796 0.0
H612 H 0.75895 0.84998 0.98219 0.0
H613 H 0.76009 0.88113 0.96404 0.0
H614 H 0.63675 0.81453 0.94463 0.0
C615 C 0.64158 0.92563 0.91834 0.0
C616 C 0.7204 0.93433 0.93922 0.0
C617 C 0.63589 0.94859 0.90973 0.0
C618 C 0.72857 0.84248 0.97835 0.0
C619 C 0.72924 0.86041 0.96791 0.0
C620 C 0.66022 0.84808 0.94332 0.0
C621 C 0.68294 0.93346 0.9213 0.0
C622 C 0.68829 0.9113 0.93125 0.0
C623 C 0.69068 0.85137 0.9625 0.0
C624 C 0.69123 0.87151 0.95151 0.0
H625 H 0.74051 1.01106 0.90185 0.0
H626 H 0.75078 0.97063 0.91711 0.0
H627 H 0.63401 0.84873 0.92732 0.0
H628 H 0.6199 0.78514 0.98213 0.0
H629 H 0.62102 0.81628 0.964 0.0
C630 C 0.92737 0.73772 0.14433 0.0
C631 C 0.92144 0.69868 0.14884 0.0
C632 C 0.90863 0.73848 0.13413 0.0
C633 C 0.86008 0.67391 0.10853 0.0
H634 H 0.80403 0.74329 0.10587 0.0
C635 C 0.73012 0.64 0.07574 0.0
C636 C 0.72703 0.67419 0.07083 0.0
C637 C 0.76003 0.64755 0.08414 0.0
C638 C 0.82021 0.72435 0.10638 0.0
H639 H 0.89076 0.62975 0.14604 0.0
H640 H 0.85837 0.63109 0.12829 0.0
H641 H 0.8436 0.74719 0.12283 0.0
H642 H 0.75399 0.74343 0.07064 0.0
H643 H 0.80678 0.75691 0.08548 0.0
H644 H 0.83597 0.65038 0.09219 0.0
C645 C 0.87805 0.6613 0.13257 0.0
C646 C 0.84285 0.7265 0.11613 0.0
C647 C 0.8967 0.66052 0.14277 0.0
C648 C 0.75581 0.7165 0.07423 0.0
C649 C 0.78569 0.72411 0.08279 0.0
C650 C 0.8375 0.67179 0.0988 0.0
C651 C 0.88356 0.70025 0.12813 0.0
C652 C 0.86237 0.70064 0.11742 0.0
C653 C 0.78772 0.68957 0.08795 0.0
C654 C 0.81648 0.69628 0.09768 0.0
H655 H 0.94681 0.76789 0.14864 0.0
H656 H 0.9141 0.76914 0.13091 0.0
H657 H 0.87549 0.65427 0.10911 0.0
H658 H 0.70861 0.60702 0.07326 0.0
H659 H 0.76019 0.6201 0.08796 0.0
C660 C 0.32836 1.00649 0.64046 0.0
C661 C 0.34037 0.98216 0.6473 0.0
C662 C 0.30239 0.9877 0.63104 0.0
C663 C 0.23078 0.88176 0.61731 0.0
H664 H 0.26997 0.94769 0.59 0.0
C665 C 0.18322 0.80244 0.57368 0.0
C666 C 0.17614 0.82505 0.56508 0.0
C667 C 0.19856 0.82172 0.5841 0.0
C668 C 0.25808 0.92896 0.59756 0.0
H669 H 0.33261 0.91849 0.64996 0.0
H670 H 0.28779 0.88608 0.63371 0.0
H671 H 0.30313 0.98137 0.60764 0.0
H672 H 0.178 0.88522 0.56095 0.0
H673 H 0.20471 0.91871 0.57904 0.0
H674 H 0.18634 0.82907 0.60718 0.0
C675 C 0.298 0.91949 0.63555 0.0
C676 C 0.27709 0.94838 0.60771 0.0
C677 C 0.324 0.93823 0.64487 0.0
C678 C 0.1839 0.86709 0.56728 0.0
C679 C 0.19923 0.88635 0.57768 0.0
C680 C 0.21181 0.86233 0.60716 0.0
C681 C 0.28764 0.94414 0.62834 0.0
C682 C 0.26416 0.92487 0.61771 0.0
C683 C 0.20719 0.86412 0.5862 0.0
C684 C 0.2256 0.88547 0.59712 0.0
H685 H 0.34074 0.04048 0.64205 0.0
H686 H 0.29464 1.00754 0.62574 0.0
H687 H 0.21948 0.86282 0.62485 0.0
H688 H 0.17812 0.77024 0.57227 0.0
H689 H 0.20482 0.80376 0.5904 0.0
C690 C 0.35667 0.18777 0.7335 0.0
C691 C 0.38807 0.17551 0.73139 0.0
C692 C 0.35479 0.20521 0.7438 0.0
C693 C 0.42205 0.26018 0.76849 0.0
H694 H 0.31307 0.23351 0.78214 0.0
C695 C 0.41777 0.32148 0.81231 0.0
C696 C 0.39129 0.33998 0.81401 0.0
C697 C 0.41348 0.29733 0.80276 0.0
C698 C 0.34377 0.24155 0.7784 0.0
H699 H 0.44191 0.17185 0.73864 0.0
H700 H 0.4381 0.20136 0.75666 0.0
H701 H 0.31374 0.19965 0.76448 0.0
H702 H 0.33814 0.34597 0.80723 0.0
H703 H 0.33057 0.30361 0.79044 0.0
H704 H 0.45216 0.30219 0.78231 0.0
C705 C 0.41522 0.19804 0.75027 0.0
C706 C 0.34419 0.22216 0.76826 0.0
C707 C 0.4171 0.18058 0.73996 0.0
C708 C 0.35866 0.33167 0.80622 0.0
C709 C 0.35449 0.30754 0.79658 0.0
C710 C 0.42163 0.27944 0.7786 0.0
C711 C 0.38424 0.21091 0.75232 0.0
C712 C 0.38338 0.23113 0.76317 0.0
C713 C 0.38281 0.29123 0.79456 0.0
C714 C 0.38252 0.27029 0.78374 0.0
H715 H 0.33335 0.1838 0.72717 0.0
H716 H 0.33073 0.21503 0.745 0.0
H717 H 0.45286 0.26874 0.76474 0.0
H718 H 0.44306 0.32705 0.81819 0.0
H719 H 0.4351 0.28436 0.80165 0.0
C720 C 0.12862 0.40807 0.97886 0.0
C721 C 0.08434 0.38252 0.98103 0.0
C722 C 0.1473 0.40041 0.96952 0.0
C723 C 0.11891 0.35597 0.94122 0.0
H724 H 0.23612 0.37589 0.94092 0.0
C725 C 0.20099 0.34534 0.90049 0.0
C726 C 0.24449 0.37653 0.89888 0.0
C727 C 0.18077 0.34124 0.91078 0.0
C728 C 0.20348 0.3706 0.94082 0.0
H729 H 1.02519 0.3277 0.97532 0.0
H730 H 0.05794 0.31399 0.95894 0.0
H731 H 0.20193 0.37483 0.95859 0.0
H732 H 0.3008 0.42741 0.90704 0.0
H733 H 0.26538 0.421 0.92485 0.0
H734 H 0.12074 0.35275 0.92344 0.0
C735 C 0.07817 0.34018 0.96448 0.0
C736 C 0.18378 0.36982 0.95098 0.0
C737 C 0.05949 0.34764 0.97393 0.0
C738 C 0.2672 0.40332 0.9079 0.0
C739 C 0.24696 0.39923 0.91819 0.0
C740 C 0.13864 0.35684 0.93105 0.0
C741 C 0.12216 0.36716 0.96201 0.0
C742 C 0.14143 0.36314 0.95131 0.0
C743 C 0.20338 0.36824 0.91978 0.0
C744 C 0.18146 0.3648 0.93068 0.0
H745 H 0.14866 0.4353 0.98415 0.0
H746 H 0.18109 0.42213 0.96788 0.0
H747 H 0.08653 0.3514 0.94111 0.0
H748 H 0.18218 0.32444 0.89374 0.0
H749 H 0.14735 0.31671 0.91168 0.0
C750 C 0.75771 0.11566 0.14789 0.0
C751 C 0.72858 0.07158 0.14646 0.0
C752 C 0.78421 0.14019 0.13903 0.0
C753 C 0.82719 0.13149 0.1115 0.0
H754 H 0.82454 0.23613 0.10413 0.0
C755 C 0.87171 0.20652 0.06769 0.0
C756 C 0.89469 0.25164 0.06659 0.0
C757 C 0.85591 0.18719 0.07805 0.0
C758 C 0.82627 0.20739 0.10614 0.0
H759 H 0.70538 1.0183 0.13487 0.0
H760 H 0.75228 0.06038 0.11963 0.0
H761 H 0.79157 0.19804 0.12144 0.0
H762 H 0.91883 0.31171 0.07566 0.0
H763 H 0.89162 0.27792 0.0938 0.0
H764 H 0.86126 0.14027 0.09619 0.0
C765 C 0.75489 0.07628 0.12751 0.0
C766 C 0.8074 0.18557 0.11609 0.0
C767 C 0.72805 0.05209 0.13625 0.0
C768 C 0.90156 0.2769 0.07619 0.0
C769 C 0.88557 0.2575 0.08658 0.0
C770 C 0.84614 0.15331 0.1016 0.0
C771 C 0.78249 0.12087 0.12866 0.0
C772 C 0.80696 0.14692 0.11879 0.0
C773 C 0.8626 0.21232 0.08766 0.0
C774 C 0.84527 0.19114 0.09866 0.0
H775 H 0.75801 0.13168 0.15559 0.0
H776 H 0.80526 0.17444 0.14021 0.0
H777 H 0.82793 0.10214 0.11338 0.0
H778 H 0.86623 0.18591 0.06055 0.0
H779 H 0.83791 0.15237 0.07848 0.0
C780 C 0.64432 0.70891 0.30648 0.0
C781 C 0.68026 0.71122 0.31197 0.0
C782 C 0.6494 0.73704 0.29782 0.0
C783 C 0.72577 0.80357 0.2761 0.0
H784 H 0.64335 0.84381 0.27206 0.0
C785 C 0.72996 0.90838 0.2383 0.0
C786 C 0.68999 0.89766 0.2334 0.0
C787 C 0.73201 0.88911 0.24829 0.0
C788 C 0.66645 0.83259 0.27301 0.0
H789 H 0.74991 0.74584 0.31283 0.0
H790 H 0.75901 0.79559 0.29753 0.0
H791 H 0.64253 0.80687 0.28918 0.0
H792 H 0.62086 0.85696 0.23513 0.0
H793 H 0.62446 0.82382 0.25253 0.0
H794 H 0.7493 0.82898 0.25982 0.0
C795 C 0.72678 0.7716 0.29998 0.0
C796 C 0.66607 0.81147 0.28285 0.0
C797 C 0.72162 0.74345 0.3088 0.0
C798 C 0.6522 0.86674 0.23872 0.0
C799 C 0.65426 0.84768 0.24873 0.0
C800 C 0.72624 0.82488 0.26624 0.0
C801 C 0.69063 0.76839 0.29431 0.0
C802 C 0.69506 0.79581 0.28445 0.0
C803 C 0.69416 0.8588 0.25369 0.0
C804 C 0.69596 0.83884 0.26447 0.0
H805 H 0.61194 0.68462 0.30874 0.0
H806 H 0.62082 0.7331 0.2936 0.0
H807 H 0.7483 0.7916 0.27699 0.0
H808 H 0.75977 0.93251 0.23458 0.0
H809 H 0.76326 0.89873 0.25192 0.0
C810 C 0.9533 0.65438 0.47801 0.0
C811 C 0.99719 0.68127 0.48044 0.0
C812 C 0.9345 0.66205 0.46871 0.0
C813 C 0.96317 0.71064 0.44089 0.0
H814 H 0.84489 0.68759 0.44054 0.0
C815 C 0.88243 0.72649 0.40063 0.0
C816 C 0.8394 0.69478 0.39865 0.0
C817 C 0.90209 0.72904 0.4109 0.0
C818 C 0.87784 0.69377 0.44046 0.0
H819 H 0.05537 0.73838 0.47523 0.0
H820 H 1.02237 0.75201 0.45893 0.0
H821 H 0.87849 0.68677 0.45816 0.0
H822 H 0.78329 0.64121 0.40613 0.0
H823 H 0.81782 0.64495 0.42393 0.0
H824 H 0.96228 0.71667 0.42318 0.0
C825 C 1.00262 0.72476 0.46422 0.0
C826 C 0.89718 0.69347 0.45059 0.0
C827 C 1.02142 0.71726 0.47363 0.0
C828 C 0.81657 0.66578 0.40728 0.0
C829 C 0.83625 0.66831 0.41756 0.0
C830 C 0.9438 0.71085 0.43076 0.0
C831 C 0.95911 0.69668 0.46153 0.0
C832 C 0.93992 0.70133 0.45092 0.0
C833 C 0.87935 0.6999 0.41951 0.0
C834 C 0.90067 0.70187 0.43038 0.0
H835 H 0.93369 0.62635 0.4831 0.0
H836 H 0.90108 0.63951 0.46687 0.0
H837 H 0.99589 0.71616 0.4408 0.0
H838 H 0.90128 0.74908 0.39416 0.0
H839 H 0.93514 0.75407 0.41211 0.0
C840 C 0.55764 0.67317 0.34363 0.0
C841 C 0.59437 0.67612 0.34888 0.0
C842 C 0.5431 0.7023 0.34612 0.0
C843 C 0.55323 0.78528 0.36678 0.0
H844 H 0.51079 0.8255 0.34239 0.0
C845 C 0.52795 0.93201 0.37193 0.0
C846 C 0.49035 0.93006 0.36753 0.0
C847 C 0.53945 0.90078 0.36929 0.0
C848 C 0.52207 0.81429 0.34933 0.0
H849 H 0.64397 0.71192 0.3611 0.0
H850 H 0.61887 0.76301 0.36541 0.0
H851 H 0.53274 0.7715 0.33895 0.0
H852 H 0.43627 0.89397 0.35648 0.0
H853 H 0.45661 0.8392 0.35178 0.0
H854 H 0.54304 0.82843 0.37713 0.0
C855 C 0.60088 0.73771 0.35944 0.0
C856 C 0.53466 0.78316 0.34737 0.0
C857 C 0.61538 0.70834 0.35697 0.0
C858 C 0.4655 0.89669 0.36 0.0
C859 C 0.47716 0.86523 0.35732 0.0
C860 C 0.54081 0.81647 0.36873 0.0
C861 C 0.56489 0.73557 0.35391 0.0
C862 C 0.55065 0.76828 0.35606 0.0
C863 C 0.51385 0.86637 0.36214 0.0
C864 C 0.52536 0.83173 0.36002 0.0
H865 H 0.54037 0.64871 0.33739 0.0
H866 H 0.51477 0.69878 0.34186 0.0
H867 H 0.56447 0.77419 0.37375 0.0
H868 H 0.54836 0.95738 0.37765 0.0
H869 H 0.56849 0.90352 0.37294 0.0
C870 C 0.5949 0.43625 0.52943 0.0
C871 C 0.58226 0.46704 0.53196 0.0
C872 C 0.63833 0.44896 0.52723 0.0
C873 C 0.74416 0.54518 0.52 0.0
H874 H 0.79324 0.47938 0.53302 0.0
C875 C 0.92835 0.61436 0.52186 0.0
C876 C 0.94481 0.58669 0.51926 0.0
C877 C 0.88412 0.5981 0.52359 0.0
C878 C 0.78005 0.49796 0.52923 0.0
H879 H 0.60569 0.53559 0.5338 0.0
H880 H 0.68055 0.55747 0.53003 0.0
H881 H 0.71609 0.45376 0.53484 0.0
H882 H 0.92726 0.51962 0.51702 0.0
H883 H 0.85025 0.49134 0.52001 0.0
H884 H 0.80793 0.58948 0.51444 0.0
C885 C 0.65715 0.52349 0.52964 0.0
C886 C 0.73564 0.48316 0.53024 0.0
C887 C 0.61397 0.51084 0.53186 0.0
C888 C 0.91592 0.54202 0.519 0.0
C889 C 0.87159 0.52573 0.52073 0.0
C890 C 0.78843 0.55997 0.519 0.0
C891 C 0.67023 0.4928 0.52744 0.0
C892 C 0.71707 0.50681 0.52574 0.0
C893 C 0.85488 0.55364 0.52278 0.0
C894 C 0.80723 0.53691 0.52371 0.0
H895 H 0.57149 0.40223 0.52948 0.0
H896 H 0.64695 0.42436 0.52544 0.0
H897 H 0.73113 0.56391 0.5162 0.0
H898 H 0.94941 0.64891 0.52216 0.0
H899 H 0.87275 0.6206 0.52541 0.0
C900 C 0.39074 0.89535 0.68387 0.0
C901 C 0.37742 0.92637 0.68524 0.0
C902 C 0.36186 0.85132 0.6855 0.0
C903 C 0.24417 0.77273 0.68596 0.0
H904 H 0.27948 0.69601 0.69936 0.0
C905 C 0.1205 0.5986 0.69913 0.0
C906 C 0.13158 0.56579 0.69839 0.0
C907 C 0.15075 0.64162 0.69685 0.0
C908 C 0.26911 0.71675 0.69544 0.0
H909 H 0.32308 0.9348 0.68972 0.0
H910 H 0.27317 0.85845 0.69277 0.0
H911 H 0.33159 0.77242 0.69731 0.0
H912 H 0.18349 0.55297 0.6943 0.0
H913 H 0.23616 0.62797 0.69013 0.0
H914 H 0.1818 0.71726 0.68406 0.0
C915 C 0.30582 0.86806 0.69024 0.0
C916 C 0.2991 0.76079 0.69429 0.0
C917 C 0.33469 0.91207 0.68862 0.0
C918 C 0.17364 0.57722 0.69494 0.0
C919 C 0.20405 0.62043 0.69267 0.0
C920 C 0.21426 0.72877 0.68708 0.0
C921 C 0.31871 0.83687 0.68853 0.0
C922 C 0.28701 0.78959 0.68963 0.0
C923 C 0.19323 0.65343 0.69372 0.0
C924 C 0.22606 0.70005 0.69194 0.0
H925 H 0.42317 0.90485 0.68114 0.0
H926 H 0.37305 0.82847 0.68398 0.0
H927 H 0.23372 0.79348 0.68208 0.0
H928 H 0.08858 0.59132 0.70179 0.0
H929 H 0.14107 0.66584 0.69791 0.0
C930 C 0.45661 0.3383 0.8559 0.0
C931 C 0.48405 0.38161 0.85298 0.0
C932 C 0.473 0.31018 0.85778 0.0
C933 C 0.56804 0.29605 0.85147 0.0
H934 H 0.51501 0.20446 0.87323 0.0
C935 C 0.63249 0.17686 0.86242 0.0
C936 C 0.60139 0.13389 0.86473 0.0
C937 C 0.6202 0.20841 0.86058 0.0
C938 C 0.52997 0.22951 0.86702 0.0
H939 H 0.5509 0.4294 0.85018 0.0
H940 H 0.57949 0.38064 0.85362 0.0
H941 H 0.49068 0.25714 0.87158 0.0
H942 H 0.53267 0.09032 0.86626 0.0
H943 H 0.51151 0.1446 0.86293 0.0
H944 H 0.60751 0.26819 0.84698 0.0
C945 C 0.54507 0.36814 0.85427 0.0
C946 C 0.51595 0.25989 0.86607 0.0
C947 C 0.52865 0.39633 0.85241 0.0
C948 C 0.55769 0.12304 0.86461 0.0
C949 C 0.54548 0.15438 0.8628 0.0
C950 C 0.58222 0.26563 0.85246 0.0
C951 C 0.51742 0.32441 0.85681 0.0
C952 C 0.53434 0.2934 0.8582 0.0
C953 C 0.57651 0.19778 0.86104 0.0
C954 C 0.56297 0.23153 0.86015 0.0
H955 H 0.42209 0.32551 0.85633 0.0
H956 H 0.45044 0.27676 0.85958 0.0
H957 H 0.58278 0.32099 0.84522 0.0
H958 H 0.66645 0.18655 0.86251 0.0
H959 H 0.64506 0.24144 0.85927 0.0
C960 C 0.16834 0.52796 1.01773 0.0
C961 C 0.13932 0.4834 1.01841 0.0
C962 C 0.21268 0.5444 1.01952 0.0
C963 C 0.29584 0.51011 1.01873 0.0
H964 H 0.3674 0.61689 0.03446 0.0
C965 C 0.46958 0.55908 0.03231 0.0
C966 C 0.50132 0.60287 0.03262 0.0
C967 C 0.42656 0.54655 0.02989 0.0
C968 C 0.34812 0.58734 0.02988 0.0
H969 H 0.13459 0.42157 1.02202 0.0
H970 H 0.21129 0.45014 1.02531 0.0
H971 H 0.29045 0.59148 0.03218 0.0
H972 H 0.51225 0.66778 0.03026 0.0
H973 H 0.43718 0.64589 1.02581 0.0
H974 H 0.35317 0.50586 1.01636 0.0
C975 C 0.19997 0.47242 1.02317 0.0
C976 C 0.30381 0.57265 1.02861 0.0
C977 C 0.15573 0.45603 1.0214 0.0
C978 C 0.48885 0.63377 0.03008 0.0
C979 C 0.44559 0.62118 1.02764 0.0
C980 C 0.34004 0.52483 1.01995 0.0
C981 C 0.22928 0.51673 1.02203 0.0
C982 C 0.27688 0.53349 1.02314 0.0
C983 C 0.41363 0.57733 1.02765 0.0
C984 C 0.36689 0.56339 1.02568 0.0
H985 H 0.15706 0.55012 1.01542 0.0
H986 H 0.23413 0.57865 1.01853 0.0
H987 H 0.27651 0.48037 1.01423 0.0
H988 H 0.47765 0.5342 0.03426 0.0
H989 H 0.40315 0.51256 0.03016 0.0
C990 C 0.94621 0.47121 0.18904 0.0
C991 C 0.93502 0.50218 0.19253 0.0
C992 C 0.91446 0.4294 0.18613 0.0
C993 C 0.80082 0.34955 0.19157 0.0
H994 H 0.81503 0.28821 0.16671 0.0
C995 C 0.69976 0.16274 0.18615 0.0
C996 C 0.68556 0.14672 0.17534 0.0
C997 C 0.72783 0.2069 0.18797 0.0
C998 C 0.81034 0.30487 0.17365 0.0
H999 H 0.88121 0.51325 0.19545 0.0
H1000 H 0.82568 0.44007 0.19043 0.0
H1001 H 0.86792 0.36385 0.16984 0.0
H1002 H 0.68998 0.16524 0.15798 0.0
H1003 H 0.7389 0.24173 0.16115 0.0
H1004 H 0.74351 0.2903 0.19547 0.0
C1005 C 0.85921 0.4483 0.18995 0.0
C1006 C 0.8409 0.34825 0.1755 0.0
C1007 C 0.8911 0.49045 0.19271 0.0
C1008 C 0.69988 0.17622 0.16643 0.0
C1009 C 0.72833 0.22019 0.16823 0.0
C1010 C 0.77052 0.30595 0.18982 0.0
C1011 C 0.87044 0.417 0.18676 0.0
C1012 C 0.83668 0.37124 0.1845 0.0
C1013 C 0.743 0.23619 0.17901 0.0
C1014 C 0.77485 0.28294 0.18084 0.0
H1015 H 0.97965 0.47895 0.18884 0.0
H1016 H 0.92442 0.40623 0.18379 0.0
H1017 H 0.79668 0.36601 0.19865 0.0
H1018 H 0.68962 0.14109 0.19321 0.0
H1019 H 0.73866 0.21791 0.19637 0.0
C1020 C 0.16978 0.61439 0.5247 0.0
C1021 C 0.14809 0.59989 0.51447 0.0
C1022 C 0.20098 0.60318 0.52801 0.0
C1023 C 0.27318 0.56479 0.51616 0.0
H1024 H 0.28044 0.53156 0.54643 0.0
C1025 C 0.3731 0.48166 0.5275 0.0
C1026 C 0.39496 0.49158 0.53775 0.0
C1027 C 0.34485 0.49729 0.52488 0.0
C1028 C 0.27932 0.54128 0.53796 0.0
H1029 H 0.14191 0.56119 0.49987 0.0
H1030 H 0.19517 0.54174 0.50563 0.0
H1031 H 0.22811 0.55467 0.54175 0.0
H1032 H 0.40421 0.52638 0.55326 0.0
H1033 H 0.35566 0.554 0.54864 0.0
H1034 H 0.3241 0.55136 0.51231 0.0
C1035 C 0.18897 0.56241 0.51104 0.0
C1036 C 0.24921 0.55458 0.53528 0.0
C1037 C 0.15799 0.57344 0.50777 0.0
C1038 C 0.38811 0.51804 0.54526 0.0
C1039 C 0.35984 0.53363 0.54265 0.0
C1040 C 0.30322 0.55157 0.51883 0.0
C1041 C 0.21136 0.57741 0.52114 0.0
C1042 C 0.24529 0.56597 0.5243 0.0
C1043 C 0.33754 0.52331 0.53245 0.0
C1044 C 0.30649 0.53912 0.52974 0.0
H1045 H 0.16309 0.63482 0.53008 0.0
H1046 H 0.21762 0.61546 0.53584 0.0
H1047 H 0.27189 0.57419 0.50765 0.0
H1048 H 0.37721 0.46116 0.52153 0.0
H1049 H 0.32793 0.48806 0.51701 0.0
C1050 C 0.5779 0.15196 0.69194 0.0
C1051 C 0.57124 0.12781 0.68213 0.0
C1052 C 0.61992 0.18222 0.6954 0.0
C1053 C 0.73574 0.21281 0.69082 0.0
H1054 H 0.76049 0.32354 0.70286 0.0
C1055 C 0.91082 0.3528 0.69472 0.0
C1056 C 0.92243 0.37789 0.70448 0.0
C1057 C 0.86754 0.32319 0.69241 0.0
C1058 C 0.75414 0.29262 0.6996 0.0
H1059 H 0.60429 0.11698 0.66835 0.0
H1060 H 0.67612 0.16915 0.67422 0.0
H1061 H 0.68608 0.26961 0.69855 0.0
H1062 H 0.89678 0.39171 0.71936 0.0
H1063 H 0.82149 0.34034 0.71529 0.0
H1064 H 0.80359 0.23576 0.69174 0.0
C1065 C 0.64934 0.16455 0.67941 0.0
C1066 C 0.71132 0.26155 0.69715 0.0
C1067 C 0.60771 0.13459 0.67598 0.0
C1068 C 0.88925 0.37322 0.71172 0.0
C1069 C 0.8459 0.34372 0.70938 0.0
C1070 C 0.77839 0.24382 0.69321 0.0
C1071 C 0.65632 0.18894 0.68917 0.0
C1072 C 0.70149 0.2213 0.69258 0.0
C1073 C 0.83441 0.31777 0.69977 0.0
C1074 C 0.78841 0.28442 0.69752 0.0
H1075 H 0.55071 0.14781 0.69688 0.0
H1076 H 0.62387 0.2001 0.70301 0.0
H1077 H 0.72965 0.18195 0.68758 0.0
H1078 H 0.93526 0.35532 0.68894 0.0
H1079 H 0.86005 0.30438 0.68484 0.0
C1080 C 0.54579 0.8914 0.8775 0.0
C1081 C 0.57303 0.9245 0.87016 0.0
C1082 C 0.53064 0.84791 0.87485 0.0
C1083 C 0.51617 0.77397 0.85113 0.0
H1084 H 0.51059 0.69596 0.87439 0.0
C1085 C 0.49516 0.60678 0.84065 0.0
C1086 C 0.46854 0.57108 0.84737 0.0
C1087 C 0.50581 0.64867 0.84379 0.0
C1088 C 0.51137 0.71707 0.86781 0.0
H1089 H 0.60515 0.93708 0.85417 0.0
H1090 H 0.57894 0.86153 0.84957 0.0
H1091 H 0.5327 0.77082 0.87895 0.0
H1092 H 0.43282 0.55222 0.86286 0.0
H1093 H 0.45144 0.6258 0.86837 0.0
H1094 H 0.49517 0.72048 0.83998 0.0
C1095 C 0.56879 0.86912 0.85735 0.0
C1096 C 0.52411 0.76019 0.87042 0.0
C1097 C 0.584 0.91267 0.86 0.0
C1098 C 0.45343 0.57881 0.85747 0.0
C1099 C 0.46423 0.62108 0.86064 0.0
C1100 C 0.50349 0.73098 0.84852 0.0
C1101 C 0.54217 0.83601 0.86478 0.0
C1102 C 0.52711 0.78948 0.8621 0.0
C1103 C 0.49024 0.65663 0.85376 0.0
C1104 C 0.50136 0.7019 0.85679 0.0
H1105 H 0.53662 0.89904 0.88542 0.0
H1106 H 0.50974 0.82357 0.88073 0.0
H1107 H 0.51708 0.79501 0.84451 0.0
H1108 H 0.50787 0.60253 0.83285 0.0
H1109 H 0.52667 0.675 0.83837 0.0
C1110 C 0.68964 0.54838 0.0406 0.0
C1111 C 0.68823 0.58181 0.03466 0.0
C1112 C 0.71867 0.5342 0.03772 0.0
C1113 C 0.82194 0.56887 1.02273 0.0
H1114 H 0.79179 0.44913 1.02636 0.0
C1115 C 0.93157 0.50289 1.00686 0.0
C1116 C 0.93599 0.4721 1.01323 0.0
C1117 C 0.90189 0.51617 1.00977 0.0
C1118 C 0.80098 0.4828 1.02544 0.0
H1119 H 0.71606 0.62564 1.02077 0.0
H1120 H 0.76634 0.60022 1.01555 0.0
H1121 H 0.73803 0.4712 0.02999 0.0
H1122 H 0.91238 0.43146 1.02784 0.0
H1123 H 0.86016 0.45475 0.03299 0.0
H1124 H 0.88479 0.58035 1.0181 0.0
C1125 C 0.74525 0.58547 1.02261 0.0
C1126 C 0.77004 0.49555 1.0275 0.0
C1127 C 0.71605 0.59979 1.02551 0.0
C1128 C 0.90998 0.45527 1.02275 0.0
C1129 C 0.87982 0.46842 1.02564 0.0
C1130 C 0.8528 0.55609 1.02063 0.0
C1131 C 0.74736 0.55277 1.02877 0.0
C1132 C 0.78 0.53882 1.02618 0.0
C1133 C 0.87533 0.49905 1.01916 0.0
C1134 C 0.84279 0.51285 1.02193 0.0
H1135 H 0.66893 0.53362 0.04772 0.0
H1136 H 0.71946 0.5095 0.0428 0.0
H1137 H 0.83133 0.60259 1.02184 0.0
H1138 H 0.95093 0.51676 0.99947 0.0
H1139 H 0.89911 0.53927 1.00447 0.0
C1140 C 0.4655 0.94131 0.18011 0.0
C1141 C 0.50084 0.93719 0.18379 0.0
C1142 C 0.42313 0.90993 0.18262 0.0
C1143 C 0.35716 0.79504 0.19184 0.0
H1144 H 0.26808 0.82694 0.19481 0.0
C1145 C 0.18049 0.67517 0.20562 0.0
C1146 C 0.14699 0.67762 0.20002 0.0
C1147 C 0.22384 0.70547 0.20359 0.0
C1148 C 0.29245 0.81735 0.19389 0.0
H1149 H 0.5187 0.89679 0.19334 0.0
H1150 H 0.44488 0.84273 0.19806 0.0
H1151 H 0.34264 0.88271 0.19226 0.0
H1152 H 0.13342 0.71393 0.18774 0.0
H1153 H 0.20882 0.76674 0.18425 0.0
H1154 H 0.30658 0.72956 0.19375 0.0
C1155 C 0.44988 0.86984 0.19297 0.0
C1156 C 0.33546 0.84946 0.1924 0.0
C1157 C 0.49244 0.9012 0.19036 0.0
C1158 C 0.15818 0.71074 0.19216 0.0
C1159 C 0.20151 0.74135 0.19024 0.0
C1160 C 0.31411 0.76292 0.19347 0.0
C1161 C 0.41441 0.87337 0.18901 0.0
C1162 C 0.36861 0.83893 0.19122 0.0
C1163 C 0.23497 0.73948 0.19602 0.0
C1164 C 0.28106 0.77359 0.19441 0.0
H1165 H 0.47036 0.96824 0.17495 0.0
H1166 H 0.39716 0.91387 0.17921 0.0
H1167 H 0.38127 0.7852 0.19081 0.0
H1168 H 0.17324 0.65031 0.21177 0.0
H1169 H 0.24862 0.70309 0.20824 0.0
C1170 C 0.58183 0.46445 0.35385 0.0
C1171 C 0.62529 0.49654 0.35286 0.0
C1172 C 0.57049 0.42195 0.3565 0.0
C1173 C 0.61262 0.34459 0.35613 0.0
H1174 H 0.50802 0.27385 0.37277 0.0
C1175 C 0.55201 0.1642 0.36867 0.0
C1176 C 0.50742 0.13588 0.36758 0.0
C1177 C 0.56937 0.20879 0.36699 0.0
C1178 C 0.53717 0.29301 0.36803 0.0
H1179 H 0.69098 0.50875 0.35426 0.0
H1180 H 0.67118 0.43452 0.35917 0.0
H1181 H 0.53323 0.35039 0.37054 0.0
H1182 H 0.44659 0.13269 0.36346 0.0
H1183 H 0.47666 0.20967 0.36058 0.0
H1184 H 0.61643 0.2867 0.35375 0.0
C1185 C 0.64578 0.44225 0.35768 0.0
C1186 C 0.55168 0.33709 0.36673 0.0
C1187 C 0.65719 0.48502 0.35498 0.0
C1188 C 0.48102 0.15325 0.36442 0.0
C1189 C 0.49824 0.19763 0.36285 0.0
C1190 C 0.59822 0.30037 0.35753 0.0
C1191 C 0.60216 0.40989 0.35834 0.0
C1192 C 0.58918 0.36354 0.36057 0.0
C1193 C 0.54251 0.22618 0.3643 0.0
C1194 C 0.55982 0.27382 0.36332 0.0
H1195 H 0.5562 0.47178 0.35223 0.0
H1196 H 0.5366 0.39821 0.35673 0.0
H1197 H 0.64138 0.36357 0.35125 0.0
H1198 H 0.57337 0.15213 0.37112 0.0
H1199 H 0.6036 0.2298 0.36819 0.0
C1200 C 0.13909 0.68358 0.46356 0.0
C1201 C 0.14941 0.69927 0.47452 0.0
C1202 C 0.16614 0.70658 0.45467 0.0
C1203 C 0.27768 0.79133 0.44812 0.0
H1204 H 0.22688 0.8078 0.42132 0.0
C1205 C 0.37837 0.92284 0.4161 0.0
C1206 C 0.36896 0.91445 0.4047 0.0
C1207 C 0.35196 0.89347 0.42416 0.0
C1208 C 0.24164 0.803 0.42866 0.0
H1209 H 0.19686 0.75126 0.48471 0.0
H1210 H 0.24378 0.79109 0.46928 0.0
H1211 H 0.18033 0.76196 0.4362 0.0
H1212 H 0.32432 0.868 0.39287 0.0
H1213 H 0.2784 0.81634 0.40697 0.0
H1214 H 0.33893 0.83247 0.44066 0.0
C1215 C 0.21494 0.76088 0.46753 0.0
C1216 C 0.21491 0.77671 0.43721 0.0
C1217 C 0.18782 0.7381 0.47639 0.0
C1218 C 0.33256 0.87556 0.40157 0.0
C1219 C 0.30606 0.84605 0.40966 0.0
C1220 C 0.30437 0.81744 0.43958 0.0
C1221 C 0.20432 0.74563 0.45655 0.0
C1222 C 0.23261 0.77107 0.44712 0.0
C1223 C 0.31536 0.85471 0.42107 0.0
C1224 C 0.28676 0.82421 0.4298 0.0
H1225 H 0.10974 0.65388 0.46179 0.0
H1226 H 0.1572 0.69372 0.44633 0.0
H1227 H 0.29241 0.78706 0.45555 0.0
H1228 H 0.40593 0.9525 0.41887 0.0
H1229 H 0.3598 0.9017 0.43285 0.0
C1230 C 0.46696 0.30115 0.56743 0.0
C1231 C 0.48886 0.3463 0.56843 0.0
C1232 C 0.46874 0.27538 0.576 0.0
C1233 C 0.4786 0.27413 0.60599 0.0
H1234 H 0.50745 0.18352 0.60155 0.0
C1235 C 0.48669 0.17576 0.64323 0.0
C1236 C 0.47424 0.13222 0.64151 0.0
C1237 C 0.49155 0.20267 0.63421 0.0
C1238 C 0.49858 0.20816 0.60295 0.0
H1239 H 0.53032 0.3997 0.57919 0.0
H1240 H 0.53254 0.35465 0.59419 0.0
H1241 H 0.5096 0.22785 0.58581 0.0
H1242 H 0.45651 0.08255 0.62898 0.0
H1243 H 0.46296 0.12861 0.61335 0.0
H1244 H 0.46556 0.25372 0.62293 0.0
C1245 C 0.51439 0.33932 0.58673 0.0
C1246 C 0.50013 0.23373 0.59391 0.0
C1247 C 0.51333 0.36507 0.57809 0.0
C1248 C 0.46675 0.11615 0.63057 0.0
C1249 C 0.47071 0.14278 0.62158 0.0
C1250 C 0.47619 0.24808 0.61498 0.0
C1251 C 0.49169 0.29423 0.58583 0.0
C1252 C 0.49032 0.26706 0.59536 0.0
C1253 C 0.48311 0.1865 0.62324 0.0
C1254 C 0.48625 0.2147 0.61362 0.0
H1255 H 0.44776 0.2857 0.56011 0.0
H1256 H 0.45083 0.24067 0.57512 0.0
H1257 H 0.47033 0.29929 0.6073 0.0
H1258 H 0.49296 0.18914 0.65156 0.0
H1259 H 0.5021 0.23625 0.63589 0.0
C1260 C 0.37619 0.45814 0.79665 0.0
C1261 C 0.36904 0.46866 0.80743 0.0
C1262 C 0.35204 0.45949 0.78762 0.0
C1263 C 0.25088 0.46303 0.78111 0.0
H1264 H 0.29867 0.48775 0.75129 0.0
C1265 C 0.16647 0.49408 0.74404 0.0
C1266 C 0.159 0.46739 0.73472 0.0
C1267 C 0.19395 0.49585 0.75258 0.0
C1268 C 0.28493 0.48064 0.75958 0.0
H1269 H 0.33195 0.49017 0.81714 0.0
H1270 H 0.29151 0.4949 0.80137 0.0
H1271 H 0.34347 0.48955 0.76689 0.0
H1272 H 0.17583 0.42278 0.7269 0.0
H1273 H 0.22516 0.42707 0.74174 0.0
H1274 H 0.19285 0.45575 0.77375 0.0
C1275 C 0.31448 0.48388 0.79987 0.0
C1276 C 0.31047 0.48138 0.76854 0.0
C1277 C 0.33798 0.48161 0.80893 0.0
C1278 C 0.18092 0.44367 0.73396 0.0
C1279 C 0.20918 0.44616 0.74243 0.0
C1280 C 0.22574 0.46318 0.77219 0.0
C1281 C 0.32062 0.47222 0.78907 0.0
C1282 C 0.2938 0.47241 0.77947 0.0
C1283 C 0.21529 0.47165 0.75192 0.0
C1284 C 0.24243 0.47183 0.76133 0.0
H1285 H 0.39947 0.44741 0.79525 0.0
H1286 H 0.35736 0.44939 0.77955 0.0
H1287 H 0.23621 0.45483 0.78928 0.0
H1288 H 0.14992 0.51256 0.74495 0.0
H1289 H 0.1983 0.51595 0.75978 0.0
C1290 C 0.71101 0.17705 0.9087 0.0
C1291 C 0.72467 0.15213 0.90263 0.0
C1292 C 0.7369 0.20482 0.91715 0.0
C1293 C 0.82284 0.21976 0.93668 0.0
H1294 H 0.83762 0.33414 0.94097 0.0
C1295 C 0.90174 0.31883 0.97627 0.0
C1296 C 0.93279 0.36241 0.97481 0.0
C1297 C 0.87566 0.29455 0.96741 0.0
C1298 C 0.83394 0.30234 0.93985 0.0
H1299 H 0.77681 0.13773 0.90055 0.0
H1300 H 0.82175 0.18605 0.91524 0.0
H1301 H 0.79457 0.28999 0.92531 0.0
H1302 H 0.95983 0.41477 0.96286 0.0
H1303 H 0.9141 0.37231 0.9474 0.0
H1304 H 0.86226 0.23199 0.95115 0.0
C1305 C 0.79087 0.18386 0.91354 0.0
C1306 C 0.80899 0.27692 0.93094 0.0
C1307 C 0.76518 0.15635 0.90505 0.0
C1308 C 0.93631 0.38133 0.9643 0.0
C1309 C 0.90996 0.35704 0.95544 0.0
C1310 C 0.84743 0.24496 0.94562 0.0
C1311 C 0.77686 0.20805 0.91978 0.0
C1312 C 0.80328 0.23536 0.92923 0.0
C1313 C 0.87972 0.3132 0.95686 0.0
C1314 C 0.85331 0.28657 0.94732 0.0
H1315 H 0.67997 0.17457 0.90707 0.0
H1316 H 0.72502 0.22279 0.92186 0.0
H1317 H 0.81873 0.18773 0.93569 0.0
H1318 H 0.89796 0.30307 0.98423 0.0
H1319 H 0.85228 0.26103 0.96883 0.0
C1320 C 0.56291 0.8829 0.14337 0.0
C1321 C 0.59758 0.90066 0.15092 0.0
C1322 C 0.56148 0.85576 0.13478 0.0
C1323 C 0.63396 0.83019 0.11827 0.0
H1324 H 0.52628 0.7402 0.10621 0.0
C1325 C 0.62719 0.75392 0.07541 0.0
C1326 C 0.59914 0.7095 0.0741 0.0
C1327 C 0.62553 0.77542 0.085 0.0
C1328 C 0.55674 0.76488 0.10951 0.0
H1329 H 0.65678 0.90167 0.15567 0.0
H1330 H 0.65364 0.8532 0.14088 0.0
H1331 H 0.52583 0.77725 0.12318 0.0
H1332 H 0.54696 0.65297 0.08185 0.0
H1333 H 0.54462 0.69015 0.09861 0.0
H1334 H 0.665 0.81703 0.1048 0.0
C1335 C 0.62808 0.86125 0.14142 0.0
C1336 C 0.55644 0.78656 0.11921 0.0
C1337 C 0.62966 0.88871 0.15 0.0
C1338 C 0.56883 0.68727 0.08252 0.0
C1339 C 0.56742 0.70869 0.09215 0.0
C1340 C 0.63429 0.80829 0.10863 0.0
C1341 C 0.59451 0.84526 0.13353 0.0
C1342 C 0.595 0.81987 0.12367 0.0
C1343 C 0.59606 0.753 0.09359 0.0
C1344 C 0.59566 0.77563 0.10404 0.0
H1345 H 0.53763 0.89141 0.14378 0.0
H1346 H 0.53536 0.84463 0.12883 0.0
H1347 H 0.66429 0.85597 0.12133 0.0
H1348 H 0.65083 0.77212 0.06908 0.0
H1349 H 0.64747 0.8097 0.08566 0.0
C1350 C 0.76227 0.62636 0.30605 0.0
C1351 C 0.72671 0.58966 0.31051 0.0
C1352 C 0.7835 0.62316 0.29664 0.0
C1353 C 0.80769 0.55149 0.28038 0.0
H1354 H 0.82689 0.63182 0.25641 0.0
C1355 C 0.89549 0.55244 0.23942 0.0
C1356 C 0.92367 0.5931 0.23489 0.0
C1357 C 0.86788 0.54844 0.24823 0.0
C1358 C 0.82235 0.60946 0.26306 0.0
H1359 H 0.68634 0.52054 0.30874 0.0
H1360 H 0.72443 0.51486 0.29234 0.0
H1361 H 0.78679 0.63161 0.27283 0.0
H1362 H 0.94523 0.66147 0.23615 0.0
H1363 H 0.89845 0.65474 0.25154 0.0
H1364 H 0.84473 0.53044 0.27082 0.0
C1365 C 0.73541 0.54611 0.29614 0.0
C1366 C 0.79913 0.60923 0.27244 0.0
C1367 C 0.7136 0.54941 0.3055 0.0
C1368 C 0.92358 0.62955 0.23933 0.0
C1369 C 0.89643 0.62563 0.24816 0.0
C1370 C 0.83154 0.5521 0.27102 0.0
C1371 C 0.77013 0.58312 0.29153 0.0
C1372 C 0.79208 0.58072 0.28127 0.0
C1373 C 0.8681 0.58506 0.25274 0.0
C1374 C 0.8398 0.58163 0.26231 0.0
H1375 H 0.77317 0.65792 0.30966 0.0
H1376 H 0.81045 0.65214 0.29333 0.0
H1377 H 0.80283 0.52928 0.28709 0.0
H1378 H 0.89477 0.52371 0.23619 0.0
H1379 H 0.84623 0.51662 0.25144 0.0
C1380 C 0.78172 0.40451 0.48882 0.0
C1381 C 0.81357 0.3924 0.49012 0.0
C1382 C 0.73816 0.37329 0.48846 0.0
C1383 C 0.6626 0.25432 0.49094 0.0
H1384 H 0.61512 0.27284 0.46381 0.0
C1385 C 0.58884 0.13276 0.4566 0.0
C1386 C 0.55923 0.13424 0.44914 0.0
C1387 C 0.60254 0.1594 0.46594 0.0
C1388 C 0.62686 0.26722 0.47161 0.0
H1389 H 0.8244 0.33849 0.49319 0.0
H1390 H 0.7491 0.2841 0.49201 0.0
H1391 H 0.67494 0.33324 0.47279 0.0
H1392 H 0.51668 0.16085 0.44641 0.0
H1393 H 0.54181 0.20853 0.4626 0.0
H1394 H 0.61667 0.18733 0.48905 0.0
C1395 C 0.75733 0.3176 0.49142 0.0
C1396 C 0.6614 0.30206 0.47679 0.0
C1397 C 0.80074 0.34878 0.49188 0.0
C1398 C 0.5405 0.15989 0.45183 0.0
C1399 C 0.55455 0.1869 0.46114 0.0
C1400 C 0.6282 0.21935 0.48569 0.0
C1401 C 0.72559 0.3293 0.48929 0.0
C1402 C 0.68142 0.29558 0.48611 0.0
C1403 C 0.58722 0.18836 0.46798 0.0
C1404 C 0.61182 0.22518 0.47559 0.0
H1405 H 0.79044 0.43787 0.48748 0.0
H1406 H 0.71452 0.38347 0.48697 0.0
H1407 H 0.67648 0.24845 0.49831 0.0
H1408 H 0.6042 0.11369 0.4548 0.0
H1409 H 0.62811 0.16006 0.47097 0.0
C1410 C 0.37476 0.77018 0.63583 0.0
C1411 C 0.39357 0.78684 0.64621 0.0
C1412 C 0.35796 0.72652 0.6335 0.0
C1413 C 0.3828 0.64303 0.64159 0.0
H1414 H 0.30775 0.58549 0.61654 0.0
C1415 C 0.41818 0.53503 0.61433 0.0
C1416 C 0.42611 0.55137 0.60343 0.0
C1417 C 0.39374 0.54494 0.62163 0.0
C1418 C 0.32829 0.60066 0.62367 0.0
H1419 H 0.40532 0.77056 0.66273 0.0
H1420 H 0.37513 0.69379 0.65876 0.0
H1421 H 0.29986 0.64043 0.62679 0.0
H1422 H 0.41085 0.58659 0.59121 0.0
H1423 H 0.36935 0.60492 0.60396 0.0
H1424 H 0.41312 0.6056 0.63806 0.0
C1425 C 0.37444 0.71463 0.6523 0.0
C1426 C 0.32391 0.63221 0.62952 0.0
C1427 C 0.39179 0.7585 0.65457 0.0
C1428 C 0.40616 0.57457 0.59967 0.0
C1429 C 0.38167 0.58434 0.60693 0.0
C1430 C 0.38695 0.61137 0.6358 0.0
C1431 C 0.35932 0.69851 0.64155 0.0
C1432 C 0.35316 0.65585 0.63804 0.0
C1433 C 0.37671 0.57118 0.61812 0.0
C1434 C 0.36172 0.59201 0.62632 0.0
H1435 H 0.37581 0.7914 0.62923 0.0
H1436 H 0.34718 0.71564 0.62509 0.0
H1437 H 0.40603 0.66043 0.64807 0.0
H1438 H 0.43287 0.51669 0.61741 0.0
H1439 H 0.39013 0.53408 0.63018 0.0
C1440 C 0.65901 0.38914 0.82051 0.0
C1441 C 0.67216 0.43253 0.82285 0.0
C1442 C 0.68949 0.37542 0.81945 0.0
C1443 C 0.80808 0.41382 0.82134 0.0
H1444 H 0.78935 0.36185 0.79207 0.0
C1445 C 0.93016 0.47647 0.78685 0.0
C1446 C 0.93082 0.44904 0.77854 0.0
C1447 C 0.9021 0.45974 0.79586 0.0
C1448 C 0.79497 0.37519 0.8004 0.0
H1449 H 0.72674 0.49426 0.82721 0.0
H1450 H 0.77985 0.47111 0.82494 0.0
H1451 H 0.72894 0.35763 0.8023 0.0
H1452 H 0.90529 0.3821 0.77376 0.0
H1453 H 0.8549 0.353 0.78933 0.0
H1454 H 0.87508 0.435 0.81882 0.0
C1455 C 0.74619 0.4473 0.824 0.0
C1456 C 0.76016 0.37274 0.80632 0.0
C1457 C 0.71578 0.4609 0.82511 0.0
C1458 C 0.90476 0.40421 0.77986 0.0
C1459 C 0.87626 0.38746 0.78883 0.0
C1460 C 0.84299 0.41661 0.81536 0.0
C1461 C 0.73364 0.40489 0.82067 0.0
C1462 C 0.76681 0.39455 0.81651 0.0
C1463 C 0.87373 0.41523 0.79672 0.0
C1464 C 0.83703 0.39969 0.80454 0.0
H1465 H 0.62555 0.36637 0.81878 0.0
H1466 H 0.67869 0.34237 0.81705 0.0
H1467 H 0.81405 0.42987 0.82933 0.0
H1468 H 0.94934 0.51113 0.78608 0.0
H1469 H 0.90037 0.48205 0.80169 0.0
C1470 C 0.47821 0.93596 0.95275 0.0
C1471 C 0.50833 0.93745 0.94496 0.0
C1472 C 0.46605 0.90779 0.96176 0.0
C1473 C 0.44737 0.80143 0.96675 0.0
H1474 H 0.40458 0.81828 0.99491 0.0
C1475 C 0.29989 0.66159 0.98578 0.0
C1476 C 0.26773 0.67283 0.98773 0.0
C1477 C 0.34309 0.69352 0.985 0.0
C1478 C 0.41666 0.81297 0.98714 0.0
H1479 H 0.55243 0.91349 0.94117 0.0
H1480 H 0.52978 0.86295 0.95674 0.0
H1481 H 0.45983 0.88043 0.98485 0.0
H1482 H 0.25601 0.72562 0.99161 0.0
H1483 H 0.33057 0.78121 0.98979 0.0
H1484 H 0.40162 0.73481 0.96838 0.0
C1485 C 0.51569 0.88369 0.95582 0.0
C1486 C 0.44839 0.84852 0.98142 0.0
C1487 C 0.52824 0.91227 0.94684 0.0
C1488 C 0.27997 0.7161 0.98981 0.0
C1489 C 0.32298 0.74795 0.98897 0.0
C1490 C 0.41538 0.76598 0.9724 0.0
C1491 C 0.48344 0.88021 0.96315 0.0
C1492 C 0.46204 0.84325 0.97085 0.0
C1493 C 0.35486 0.73724 0.98609 0.0
C1494 C 0.3977 0.77171 0.9823 0.0
H1495 H 0.46192 0.95452 0.95153 0.0
H1496 H 0.44058 0.90534 0.96716 0.0
H1497 H 0.45717 0.79634 0.95861 0.0
H1498 H 0.2915 0.62846 0.9842 0.0
H1499 H 0.36693 0.68413 0.98294 0.0
C1500 C 0.61365 0.1464 0.09568 0.0
C1501 C 0.63926 0.14438 0.10429 0.0
C1502 C 0.63024 0.18147 0.08845 0.0
C1503 C 0.69751 0.29318 0.09235 0.0
H1504 H 0.65613 0.29816 0.06286 0.0
C1505 C 0.66476 0.4302 0.08074 0.0
C1506 C 0.62421 0.41588 0.07577 0.0
C1507 C 0.68289 0.40326 0.08125 0.0
C1508 C 0.66816 0.29744 0.07109 0.0
H1509 H 0.70421 0.1742 0.11099 0.0
H1510 H 0.73263 0.23658 0.09862 0.0
H1511 H 0.66154 0.23501 0.06838 0.0
H1512 H 0.57186 0.36266 0.06702 0.0
H1513 H 0.60208 0.31495 0.06849 0.0
H1514 H 0.70014 0.35324 0.09554 0.0
C1515 C 0.69969 0.21107 0.09753 0.0
C1516 C 0.67167 0.26152 0.07419 0.0
C1517 C 0.68323 0.17561 0.10468 0.0
C1518 C 0.60268 0.37439 0.07113 0.0
C1519 C 0.62057 0.34735 0.07174 0.0
C1520 C 0.69355 0.32882 0.08931 0.0
C1521 C 0.67259 0.21541 0.08978 0.0
C1522 C 0.68393 0.25801 0.08508 0.0
C1523 C 0.6607 0.36125 0.0769 0.0
C1524 C 0.67634 0.33011 0.07888 0.0
H1525 H 0.5797 0.12308 0.09511 0.0
H1526 H 0.60844 0.18405 0.08261 0.0
H1527 H 0.7068 0.2913 0.10084 0.0
H1528 H 0.68219 0.46194 0.08443 0.0
H1529 H 0.71396 0.4151 0.08522 0.0
C1530 C 0.42591 0.62504 0.3046 0.0
C1531 C 0.41454 0.58399 0.30883 0.0
C1532 C 0.39486 0.63777 0.30327 0.0
C1533 C 0.27865 0.60305 0.30882 0.0
H1534 H 0.28649 0.65323 0.27972 0.0
C1535 C 0.14317 0.5489 0.27779 0.0
C1536 C 0.14238 0.57834 0.27015 0.0
C1537 C 0.17392 0.56313 0.28624 0.0
C1538 C 0.28413 0.64039 0.28802 0.0
H1539 H 0.36181 0.52511 0.31552 0.0
H1540 H 0.30733 0.54583 0.31242 0.0
H1541 H 0.34897 0.65306 0.28746 0.0
H1542 H 0.16965 0.6463 0.26625 0.0
H1543 H 0.22471 0.67086 0.28076 0.0
H1544 H 0.21211 0.58654 0.30871 0.0
C1545 C 0.34043 0.5689 0.31044 0.0
C1546 C 0.32011 0.64025 0.29249 0.0
C1547 C 0.37159 0.5565 0.31197 0.0
C1548 C 0.17036 0.62268 0.27179 0.0
C1549 C 0.2015 0.63685 0.28016 0.0
C1550 C 0.24239 0.60256 0.30424 0.0
C1551 C 0.35151 0.60944 0.30591 0.0
C1552 C 0.31716 0.61951 0.30268 0.0
C1553 C 0.20468 0.60696 0.28714 0.0
C1554 C 0.24437 0.61931 0.29355 0.0
H1555 H 0.4586 0.64708 0.30202 0.0
H1556 H 0.40473 0.66945 0.2999 0.0
H1557 H 0.27567 0.58807 0.31685 0.0
H1558 H 0.12226 0.51456 0.27677 0.0
H1559 H 0.17599 0.53932 0.29142 0.0
loop_
_geom_bond_atom_site_label_1
_geom_bond_atom_site_label_2
_geom_bond_distance
_geom_bond_site_symmetry_2
_ccdc_geom_bond_type
Eu0 C9 2.828 . S
Eu0 O11 2.392 1_545 S
Eu0 O13 2.418 1_545 S
Eu0 O18 2.373 . S
Eu0 O21 2.488 . S
Eu0 O22 2.471 . S
Eu0 O23 2.349 . S
Eu1 O10 2.373 . S
Eu1 O14 2.488 . S
Eu1 O15 2.471 . S
Eu1 O16 2.349 . S
Eu1 O19 2.392 1_565 S
Eu1 O20 2.418 1_565 S
Eu1 C30 2.828 . S
C2 O20 1.244 . S
C2 O23 1.265 . S
C3 C4 1.379 . S
C3 C7 1.373 . S
C3 C9 1.505 . S
C4 C3 1.379 . S
C4 C6 1.369 . S
C4 H32 0.930 . S
C5 C7 1.383 . S
C5 C8 1.382 . S
C5 H33 0.930 . S
C6 C4 1.369 . S
C6 C8 1.392 . S
C6 H34 0.930 . S
C7 C3 1.373 . S
C7 C5 1.383 . S
C7 H35 0.931 . S
C8 C5 1.382 . S
C8 C6 1.392 . S
C9 Eu0 2.828 . S
C9 C3 1.505 . S
C9 O21 1.249 . S
C9 O22 1.244 . S
O10 Eu1 2.373 . S
O10 C12 1.258 . S
O11 Eu0 2.392 1_565 S
O11 C12 1.242 . S
C12 O10 1.258 . S
C12 O11 1.242 . S
O13 Eu0 2.418 1_565 S
O13 C17 1.244 . S
O14 Eu1 2.488 . S
O14 C30 1.249 . S
O15 Eu1 2.471 . S
O15 C30 1.244 . S
O16 Eu1 2.349 . S
O16 C17 1.265 . S
C17 O13 1.244 . S
C17 O16 1.265 . S
O18 Eu0 2.373 . S
O18 C31 1.258 . S
O19 Eu1 2.392 1_545 S
O19 C31 1.242 . S
O20 Eu1 2.418 1_545 S
O20 C2 1.244 . S
O21 Eu0 2.488 . S
O21 C9 1.249 . S
O22 Eu0 2.471 . S
O22 C9 1.244 . S
O23 Eu0 2.349 . S
O23 C2 1.265 . S
C24 C25 1.379 . S
C24 C28 1.373 . S
C24 C30 1.505 . S
C25 C24 1.379 . S
C25 C27 1.369 . S
C25 H36 0.930 . S
C26 C28 1.383 . S
C26 C29 1.382 . S
C26 H37 0.930 . S
C27 C25 1.369 . S
C27 C29 1.392 . S
C27 H38 0.930 . S
C28 C24 1.373 . S
C28 C26 1.383 . S
C28 H39 0.931 . S
C29 C26 1.382 . S
C29 C27 1.392 . S
C30 Eu1 2.828 . S
C30 O14 1.249 . S
C30 O15 1.244 . S
C30 C24 1.505 . S
C31 O18 1.258 . S
C31 O19 1.242 . S
H32 C4 0.930 . S
H33 C5 0.930 . S
H34 C6 0.930 . S
H35 C7 0.931 . S
H36 C25 0.930 . S
H37 C26 0.930 . S
H38 C27 0.930 . S
H39 C28 0.931 . S
Eu40 C49 2.828 . S
Eu40 O51 2.392 . S
Eu40 O53 2.418 . S
Eu40 O58 2.373 . S
Eu40 O61 2.488 . S
Eu40 O62 2.471 . S
Eu40 O63 2.349 . S
Eu41 O50 2.373 . S
Eu41 O54 2.488 . S
Eu41 O55 2.471 . S
Eu41 O56 2.349 . S
Eu41 O59 2.392 . S
Eu41 O60 2.418 . S
Eu41 C70 2.828 . S
C42 O60 1.244 . S
C42 O63 1.265 . S
C43 C44 1.379 . S
C43 C47 1.373 . S
C43 C49 1.505 . S
C44 C43 1.379 . S
C44 C46 1.369 . S
C44 H72 0.930 . S
C45 C47 1.383 . S
C45 C48 1.382 . S
C45 H73 0.930 . S
C46 C44 1.369 . S
C46 C48 1.392 . S
C46 H74 0.930 . S
C47 C43 1.373 . S
C47 C45 1.383 . S
C47 H75 0.931 . S
C48 C45 1.382 . S
C48 C46 1.392 . S
C49 Eu40 2.828 . S
C49 C43 1.505 . S
C49 O61 1.249 . S
C49 O62 1.244 . S
O50 Eu41 2.373 . S
O50 C52 1.258 . S
O51 Eu40 2.392 . S
O51 C52 1.242 . S
C52 O50 1.258 . S
C52 O51 1.242 . S
O53 Eu40 2.418 . S
O53 C57 1.244 . S
O54 Eu41 2.488 . S
O54 C70 1.249 . S
O55 Eu41 2.471 . S
O55 C70 1.244 . S
O56 Eu41 2.349 . S
O56 C57 1.265 . S
C57 O53 1.244 . S
C57 O56 1.265 . S
O58 Eu40 2.373 . S
O58 C71 1.258 . S
O59 Eu41 2.392 . S
O59 C71 1.242 . S
O60 Eu41 2.418 . S
O60 C42 1.244 . S
O61 Eu40 2.488 . S
O61 C49 1.249 . S
O62 Eu40 2.471 . S
O62 C49 1.244 . S
O63 Eu40 2.349 . S
O63 C42 1.265 . S
C64 C65 1.379 . S
C64 C68 1.373 . S
C64 C70 1.505 . S
C65 C64 1.379 . S
C65 C67 1.369 . S
C65 H76 0.930 . S
C66 C68 1.383 . S
C66 C69 1.382 . S
C66 H77 0.930 . S
C67 C65 1.369 . S
C67 C69 1.392 . S
C67 H78 0.930 . S
C68 C64 1.373 . S
C68 C66 1.383 . S
C68 H79 0.931 . S
C69 C66 1.382 . S
C69 C67 1.392 . S
C70 Eu41 2.828 . S
C70 O54 1.249 . S
C70 O55 1.244 . S
C70 C64 1.505 . S
C71 O58 1.258 . S
C71 O59 1.242 . S
H72 C44 0.930 . S
H73 C45 0.930 . S
H74 C46 0.930 . S
H75 C47 0.931 . S
H76 C65 0.930 . S
H77 C66 0.930 . S
H78 C67 0.930 . S
H79 C68 0.931 . S
Eu80 C89 2.828 . S
Eu80 O91 2.392 1_655 S
Eu80 O93 2.418 1_655 S
Eu80 O98 2.373 . S
Eu80 O101 2.488 . S
Eu80 O102 2.471 . S
Eu80 O103 2.349 . S
Eu81 O90 2.373 . S
Eu81 O94 2.488 . S
Eu81 O95 2.471 . S
Eu81 O96 2.349 . S
Eu81 O99 2.392 1_455 S
Eu81 O100 2.418 1_455 S
Eu81 C110 2.828 . S
C82 O100 1.244 . S
C82 O103 1.265 . S
C83 C84 1.379 . S
C83 C87 1.373 . S
C83 C89 1.505 . S
C84 C83 1.379 . S
C84 C86 1.369 . S
C84 H112 0.930 . S
C85 C87 1.383 . S
C85 C88 1.382 . S
C85 H113 0.930 . S
C86 C84 1.369 . S
C86 C88 1.392 . S
C86 H114 0.930 . S
C87 C83 1.373 . S
C87 C85 1.383 . S
C87 H115 0.931 . S
C88 C85 1.382 . S
C88 C86 1.392 . S
C89 Eu80 2.828 . S
C89 C83 1.505 . S
C89 O101 1.249 . S
C89 O102 1.244 . S
O90 Eu81 2.373 . S
O90 C92 1.258 . S
O91 Eu80 2.392 1_455 S
O91 C92 1.242 . S
C92 O90 1.258 . S
C92 O91 1.242 . S
O93 Eu80 2.418 1_455 S
O93 C97 1.244 . S
O94 Eu81 2.488 . S
O94 C110 1.249 . S
O95 Eu81 2.471 . S
O95 C110 1.244 . S
O96 Eu81 2.349 . S
O96 C97 1.265 . S
C97 O93 1.244 . S
C97 O96 1.265 . S
O98 Eu80 2.373 . S
O98 C111 1.258 . S
O99 Eu81 2.392 1_655 S
O99 C111 1.242 . S
O100 Eu81 2.418 1_655 S
O100 C82 1.244 . S
O101 Eu80 2.488 . S
O101 C89 1.249 . S
O102 Eu80 2.471 . S
O102 C89 1.244 . S
O103 Eu80 2.349 . S
O103 C82 1.265 . S
C104 C105 1.379 . S
C104 C108 1.373 . S
C104 C110 1.505 . S
C105 C104 1.379 . S
C105 C107 1.369 . S
C105 H116 0.930 . S
C106 C108 1.383 . S
C106 C109 1.382 . S
C106 H117 0.930 . S
C107 C105 1.369 . S
C107 C109 1.392 . S
C107 H118 0.930 . S
C108 C104 1.373 . S
C108 C106 1.383 . S
C108 H119 0.931 . S
C109 C106 1.382 . S
C109 C107 1.392 . S
C110 Eu81 2.828 . S
C110 O94 1.249 . S
C110 O95 1.244 . S
C110 C104 1.505 . S
C111 O98 1.258 . S
C111 O99 1.242 . S
H112 C84 0.930 . S
H113 C85 0.930 . S
H114 C86 0.930 . S
H115 C87 0.931 . S
H116 C105 0.930 . S
H117 C106 0.930 . S
H118 C107 0.930 . S
H119 C108 0.931 . S
Eu120 C129 2.828 . S
Eu120 O131 2.392 1_565 S
Eu120 O133 2.418 1_565 S
Eu120 O138 2.373 . S
Eu120 O141 2.488 . S
Eu120 O142 2.471 . S
Eu120 O143 2.349 . S
Eu121 O130 2.373 . S
Eu121 O134 2.488 . S
Eu121 O135 2.471 . S
Eu121 O136 2.349 . S
Eu121 O139 2.392 1_545 S
Eu121 O140 2.418 1_545 S
Eu121 C150 2.828 . S
C122 O140 1.244 . S
C122 O143 1.265 . S
C123 C124 1.379 . S
C123 C127 1.373 . S
C123 C129 1.505 . S
C124 C123 1.379 . S
C124 C126 1.369 . S
C124 H152 0.930 . S
C125 C127 1.383 . S
C125 C128 1.382 . S
C125 H153 0.930 . S
C126 C124 1.369 . S
C126 C128 1.392 . S
C126 H154 0.930 . S
C127 C123 1.373 . S
C127 C125 1.383 . S
C127 H155 0.931 . S
C128 C125 1.382 . S
C128 C126 1.392 . S
C129 Eu120 2.828 . S
C129 C123 1.505 . S
C129 O141 1.249 . S
C129 O142 1.244 . S
O130 Eu121 2.373 . S
O130 C132 1.258 . S
O131 Eu120 2.392 1_545 S
O131 C132 1.242 . S
C132 O130 1.258 . S
C132 O131 1.242 . S
O133 Eu120 2.418 1_545 S
O133 C137 1.244 . S
O134 Eu121 2.488 . S
O134 C150 1.249 . S
O135 Eu121 2.471 . S
O135 C150 1.244 . S
O136 Eu121 2.349 . S
O136 C137 1.265 . S
C137 O133 1.244 . S
C137 O136 1.265 . S
O138 Eu120 2.373 . S
O138 C151 1.258 . S
O139 Eu121 2.392 1_565 S
O139 C151 1.242 . S
O140 Eu121 2.418 1_565 S
O140 C122 1.244 . S
O141 Eu120 2.488 . S
O141 C129 1.249 . S
O142 Eu120 2.471 . S
O142 C129 1.244 . S
O143 Eu120 2.349 . S
O143 C122 1.265 . S
C144 C145 1.379 . S
C144 C148 1.373 . S
C144 C150 1.505 . S
C145 C144 1.379 . S
C145 C147 1.369 . S
C145 H156 0.930 . S
C146 C148 1.383 . S
C146 C149 1.382 . S
C146 H157 0.930 . S
C147 C145 1.369 . S
C147 C149 1.392 . S
C147 H158 0.930 . S
C148 C144 1.373 . S
C148 C146 1.383 . S
C148 H159 0.931 . S
C149 C146 1.382 . S
C149 C147 1.392 . S
C150 Eu121 2.828 . S
C150 O134 1.249 . S
C150 O135 1.244 . S
C150 C144 1.505 . S
C151 O138 1.258 . S
C151 O139 1.242 . S
H152 C124 0.930 . S
H153 C125 0.930 . S
H154 C126 0.930 . S
H155 C127 0.931 . S
H156 C145 0.930 . S
H157 C146 0.930 . S
H158 C147 0.930 . S
H159 C148 0.931 . S
Eu160 C169 2.828 . S
Eu160 O171 2.392 . S
Eu160 O173 2.418 . S
Eu160 O178 2.373 . S
Eu160 O181 2.488 . S
Eu160 O182 2.471 . S
Eu160 O183 2.349 . S
Eu161 O170 2.373 . S
Eu161 O174 2.488 . S
Eu161 O175 2.471 . S
Eu161 O176 2.349 . S
Eu161 O179 2.392 . S
Eu161 O180 2.418 . S
Eu161 C190 2.828 . S
C162 O180 1.244 . S
C162 O183 1.265 . S
C163 C164 1.379 . S
C163 C167 1.373 . S
C163 C169 1.505 . S
C164 C163 1.379 . S
C164 C166 1.369 . S
C164 H192 0.930 . S
C165 C167 1.383 . S
C165 C168 1.382 . S
C165 H193 0.930 . S
C166 C164 1.369 . S
C166 C168 1.392 . S
C166 H194 0.930 . S
C167 C163 1.373 . S
C167 C165 1.383 . S
C167 H195 0.931 . S
C168 C165 1.382 . S
C168 C166 1.392 . S
C169 Eu160 2.828 . S
C169 C163 1.505 . S
C169 O181 1.249 . S
C169 O182 1.244 . S
O170 Eu161 2.373 . S
O170 C172 1.258 . S
O171 Eu160 2.392 . S
O171 C172 1.242 . S
C172 O170 1.258 . S
C172 O171 1.242 . S
O173 Eu160 2.418 . S
O173 C177 1.244 . S
O174 Eu161 2.488 . S
O174 C190 1.249 . S
O175 Eu161 2.471 . S
O175 C190 1.244 . S
O176 Eu161 2.349 . S
O176 C177 1.265 . S
C177 O173 1.244 . S
C177 O176 1.265 . S
O178 Eu160 2.373 . S
O178 C191 1.258 . S
O179 Eu161 2.392 . S
O179 C191 1.242 . S
O180 Eu161 2.418 . S
O180 C162 1.244 . S
O181 Eu160 2.488 . S
O181 C169 1.249 . S
O182 Eu160 2.471 . S
O182 C169 1.244 . S
O183 Eu160 2.349 . S
O183 C162 1.265 . S
C184 C185 1.379 . S
C184 C188 1.373 1_554 S
C184 C190 1.505 . S
C185 C184 1.379 . S
C185 C187 1.369 1_554 S
C185 H196 0.930 . S
C186 C188 1.383 . S
C186 C189 1.382 . S
C186 H197 0.930 . S
C187 C185 1.369 1_556 S
C187 C189 1.392 . S
C187 H198 0.930 . S
C188 C184 1.373 1_556 S
C188 C186 1.383 . S
C188 H199 0.931 . S
C189 C186 1.382 . S
C189 C187 1.392 . S
C190 Eu161 2.828 . S
C190 O174 1.249 . S
C190 O175 1.244 . S
C190 C184 1.505 . S
C191 O178 1.258 . S
C191 O179 1.242 . S
H192 C164 0.930 . S
H193 C165 0.930 . S
H194 C166 0.930 . S
H195 C167 0.931 . S
H196 C185 0.930 . S
H197 C186 0.930 . S
H198 C187 0.930 . S
H199 C188 0.931 . S
Eu200 C209 2.828 . S
Eu200 O211 2.392 1_455 S
Eu200 O213 2.418 1_455 S
Eu200 O218 2.373 . S
Eu200 O221 2.488 . S
Eu200 O222 2.471 . S
Eu200 O223 2.349 . S
Eu201 O210 2.373 . S
Eu201 O214 2.488 . S
Eu201 O215 2.471 . S
Eu201 O216 2.349 . S
Eu201 O219 2.392 1_655 S
Eu201 O220 2.418 1_655 S
Eu201 C230 2.828 . S
C202 O220 1.244 . S
C202 O223 1.265 . S
C203 C204 1.379 . S
C203 C207 1.373 . S
C203 C209 1.505 . S
C204 C203 1.379 . S
C204 C206 1.369 . S
C204 H232 0.930 . S
C205 C207 1.383 . S
C205 C208 1.382 . S
C205 H233 0.930 . S
C206 C204 1.369 . S
C206 C208 1.392 . S
C206 H234 0.930 . S
C207 C203 1.373 . S
C207 C205 1.383 . S
C207 H235 0.931 . S
C208 C205 1.382 . S
C208 C206 1.392 . S
C209 Eu200 2.828 . S
C209 C203 1.505 . S
C209 O221 1.249 . S
C209 O222 1.244 . S
O210 Eu201 2.373 . S
O210 C212 1.258 . S
O211 Eu200 2.392 1_655 S
O211 C212 1.242 . S
C212 O210 1.258 . S
C212 O211 1.242 . S
O213 Eu200 2.418 1_655 S
O213 C217 1.244 . S
O214 Eu201 2.488 . S
O214 C230 1.249 . S
O215 Eu201 2.471 . S
O215 C230 1.244 . S
O216 Eu201 2.349 . S
O216 C217 1.265 . S
C217 O213 1.244 . S
C217 O216 1.265 . S
O218 Eu200 2.373 . S
O218 C231 1.258 . S
O219 Eu201 2.392 1_455 S
O219 C231 1.242 . S
O220 Eu201 2.418 1_455 S
O220 C202 1.244 . S
O221 Eu200 2.488 . S
O221 C209 1.249 . S
O222 Eu200 2.471 . S
O222 C209 1.244 . S
O223 Eu200 2.349 . S
O223 C202 1.265 . S
C224 C225 1.379 . S
C224 C228 1.373 . S
C224 C230 1.505 . S
C225 C224 1.379 . S
C225 C227 1.369 . S
C225 H236 0.930 . S
C226 C228 1.383 . S
C226 C229 1.382 . S
C226 H237 0.930 . S
C227 C225 1.369 . S
C227 C229 1.392 . S
C227 H238 0.930 . S
C228 C224 1.373 . S
C228 C226 1.383 . S
C228 H239 0.931 . S
C229 C226 1.382 . S
C229 C227 1.392 . S
C230 Eu201 2.828 . S
C230 O214 1.249 . S
C230 O215 1.244 . S
C230 C224 1.505 . S
C231 O218 1.258 . S
C231 O219 1.242 . S
H232 C204 0.930 . S
H233 C205 0.930 . S
H234 C206 0.930 . S
H235 C207 0.931 . S
H236 C225 0.930 . S
H237 C226 0.930 . S
H238 C227 0.930 . S
H239 C228 0.931 . S
Eu240 C249 2.828 . S
Eu240 O251 2.392 1_655 S
Eu240 O253 2.418 1_655 S
Eu240 O258 2.373 . S
Eu240 O261 2.488 . S
Eu240 O262 2.471 . S
Eu240 O263 2.349 . S
Eu241 O250 2.373 . S
Eu241 O254 2.488 . S
Eu241 O255 2.471 . S
Eu241 O256 2.349 . S
Eu241 O259 2.392 1_455 S
Eu241 O260 2.418 1_455 S
Eu241 C270 2.828 . S
C242 O260 1.244 . S
C242 O263 1.265 . S
C243 C244 1.379 . S
C243 C247 1.373 . S
C243 C249 1.505 . S
C244 C243 1.379 . S
C244 C246 1.369 . S
C244 H272 0.930 . S
C245 C247 1.383 . S
C245 C248 1.382 . S
C245 H273 0.930 . S
C246 C244 1.369 . S
C246 C248 1.392 . S
C246 H274 0.930 . S
C247 C243 1.373 . S
C247 C245 1.383 . S
C247 H275 0.931 . S
C248 C245 1.382 . S
C248 C246 1.392 . S
C249 Eu240 2.828 . S
C249 C243 1.505 . S
C249 O261 1.249 . S
C249 O262 1.244 . S
O250 Eu241 2.373 . S
O250 C252 1.258 . S
O251 Eu240 2.392 1_455 S
O251 C252 1.242 . S
C252 O250 1.258 . S
C252 O251 1.242 . S
O253 Eu240 2.418 1_455 S
O253 C257 1.244 . S
O254 Eu241 2.488 . S
O254 C270 1.249 . S
O255 Eu241 2.471 . S
O255 C270 1.244 . S
O256 Eu241 2.349 . S
O256 C257 1.265 . S
C257 O253 1.244 . S
C257 O256 1.265 . S
O258 Eu240 2.373 . S
O258 C271 1.258 . S
O259 Eu241 2.392 1_655 S
O259 C271 1.242 . S
O260 Eu241 2.418 1_655 S
O260 C242 1.244 . S
O261 Eu240 2.488 . S
O261 C249 1.249 . S
O262 Eu240 2.471 . S
O262 C249 1.244 . S
O263 Eu240 2.349 . S
O263 C242 1.265 . S
C264 C265 1.379 . S
C264 C268 1.373 . S
C264 C270 1.505 . S
C265 C264 1.379 . S
C265 C267 1.369 . S
C265 H276 0.930 . S
C266 C268 1.383 . S
C266 C269 1.382 . S
C266 H277 0.930 . S
C267 C265 1.369 . S
C267 C269 1.392 . S
C267 H278 0.930 . S
C268 C264 1.373 . S
C268 C266 1.383 . S
C268 H279 0.931 . S
C269 C266 1.382 . S
C269 C267 1.392 . S
C270 Eu241 2.828 . S
C270 O254 1.249 . S
C270 O255 1.244 . S
C270 C264 1.505 . S
C271 O258 1.258 . S
C271 O259 1.242 . S
H272 C244 0.930 . S
H273 C245 0.930 . S
H274 C246 0.930 . S
H275 C247 0.931 . S
H276 C265 0.930 . S
H277 C266 0.930 . S
H278 C267 0.930 . S
H279 C268 0.931 . S
Eu280 C289 2.828 . S
Eu280 O291 2.392 1_565 S
Eu280 O293 2.418 1_565 S
Eu280 O298 2.373 . S
Eu280 O301 2.488 . S
Eu280 O302 2.471 . S
Eu280 O303 2.349 . S
Eu281 O290 2.373 . S
Eu281 O294 2.488 . S
Eu281 O295 2.471 . S
Eu281 O296 2.349 . S
Eu281 O299 2.392 1_545 S
Eu281 O300 2.418 1_545 S
Eu281 C310 2.828 . S
C282 O300 1.244 . S
C282 O303 1.265 . S
C283 C284 1.379 . S
C283 C287 1.373 . S
C283 C289 1.505 . S
C284 C283 1.379 . S
C284 C286 1.369 . S
C284 H312 0.930 . S
C285 C287 1.383 . S
C285 C288 1.382 . S
C285 H313 0.930 . S
C286 C284 1.369 . S
C286 C288 1.392 . S
C286 H314 0.930 . S
C287 C283 1.373 . S
C287 C285 1.383 . S
C287 H315 0.931 . S
C288 C285 1.382 . S
C288 C286 1.392 . S
C289 Eu280 2.828 . S
C289 C283 1.505 . S
C289 O301 1.249 . S
C289 O302 1.244 . S
O290 Eu281 2.373 . S
O290 C292 1.258 . S
O291 Eu280 2.392 1_545 S
O291 C292 1.242 . S
C292 O290 1.258 . S
C292 O291 1.242 . S
O293 Eu280 2.418 1_545 S
O293 C297 1.244 . S
O294 Eu281 2.488 . S
O294 C310 1.249 . S
O295 Eu281 2.471 . S
O295 C310 1.244 . S
O296 Eu281 2.349 . S
O296 C297 1.265 . S
C297 O293 1.244 . S
C297 O296 1.265 . S
O298 Eu280 2.373 . S
O298 C311 1.258 . S
O299 Eu281 2.392 1_565 S
O299 C311 1.242 . S
O300 Eu281 2.418 1_565 S
O300 C282 1.244 . S
O301 Eu280 2.488 . S
O301 C289 1.249 . S
O302 Eu280 2.471 . S
O302 C289 1.244 . S
O303 Eu280 2.349 . S
O303 C282 1.265 . S
C304 C305 1.379 . S
C304 C308 1.373 . S
C304 C310 1.505 . S
C305 C304 1.379 . S
C305 C307 1.369 . S
C305 H316 0.930 . S
C306 C308 1.383 . S
C306 C309 1.382 . S
C306 H317 0.930 . S
C307 C305 1.369 . S
C307 C309 1.392 . S
C307 H318 0.930 . S
C308 C304 1.373 . S
C308 C306 1.383 . S
C308 H319 0.931 . S
C309 C306 1.382 . S
C309 C307 1.392 . S
C310 Eu281 2.828 . S
C310 O294 1.249 . S
C310 O295 1.244 . S
C310 C304 1.505 . S
C311 O298 1.258 . S
C311 O299 1.242 . S
H312 C284 0.930 . S
H313 C285 0.930 . S
H314 C286 0.930 . S
H315 C287 0.931 . S
H316 C305 0.930 . S
H317 C306 0.930 . S
H318 C307 0.930 . S
H319 C308 0.931 . S
Eu320 C329 2.828 . S
Eu320 O331 2.392 . S
Eu320 O333 2.418 . S
Eu320 O338 2.373 . S
Eu320 O341 2.488 . S
Eu320 O342 2.471 . S
Eu320 O343 2.349 . S
Eu321 O330 2.373 . S
Eu321 O334 2.488 . S
Eu321 O335 2.471 . S
Eu321 O336 2.349 . S
Eu321 O339 2.392 . S
Eu321 O340 2.418 . S
Eu321 C350 2.828 . S
C322 O340 1.244 . S
C322 O343 1.265 . S
C323 C324 1.379 . S
C323 C327 1.373 . S
C323 C329 1.505 . S
C324 C323 1.379 . S
C324 C326 1.369 . S
C324 H352 0.930 . S
C325 C327 1.383 . S
C325 C328 1.382 . S
C325 H353 0.930 . S
C326 C324 1.369 . S
C326 C328 1.392 . S
C326 H354 0.930 . S
C327 C323 1.373 . S
C327 C325 1.383 . S
C327 H355 0.931 . S
C328 C325 1.382 . S
C328 C326 1.392 . S
C329 Eu320 2.828 . S
C329 C323 1.505 . S
C329 O341 1.249 . S
C329 O342 1.244 . S
O330 Eu321 2.373 . S
O330 C332 1.258 . S
O331 Eu320 2.392 . S
O331 C332 1.242 . S
C332 O330 1.258 . S
C332 O331 1.242 . S
O333 Eu320 2.418 . S
O333 C337 1.244 . S
O334 Eu321 2.488 . S
O334 C350 1.249 . S
O335 Eu321 2.471 . S
O335 C350 1.244 . S
O336 Eu321 2.349 . S
O336 C337 1.265 . S
C337 O333 1.244 . S
C337 O336 1.265 . S
O338 Eu320 2.373 . S
O338 C351 1.258 . S
O339 Eu321 2.392 . S
O339 C351 1.242 . S
O340 Eu321 2.418 . S
O340 C322 1.244 . S
O341 Eu320 2.488 . S
O341 C329 1.249 . S
O342 Eu320 2.471 . S
O342 C329 1.244 . S
O343 Eu320 2.349 . S
O343 C322 1.265 . S
C344 C345 1.379 . S
C344 C348 1.373 . S
C344 C350 1.505 . S
C345 C344 1.379 . S
C345 C347 1.369 . S
C345 H356 0.930 . S
C346 C348 1.383 . S
C346 C349 1.382 . S
C346 H357 0.930 . S
C347 C345 1.369 . S
C347 C349 1.392 . S
C347 H358 0.930 . S
C348 C344 1.373 . S
C348 C346 1.383 . S
C348 H359 0.931 . S
C349 C346 1.382 . S
C349 C347 1.392 . S
C350 Eu321 2.828 . S
C350 O334 1.249 . S
C350 O335 1.244 . S
C350 C344 1.505 . S
C351 O338 1.258 . S
C351 O339 1.242 . S
H352 C324 0.930 . S
H353 C325 0.930 . S
H354 C326 0.930 . S
H355 C327 0.931 . S
H356 C345 0.930 . S
H357 C346 0.930 . S
H358 C347 0.930 . S
H359 C348 0.931 . S
Eu360 C369 2.828 . S
Eu360 O371 2.392 1_455 S
Eu360 O373 2.418 1_455 S
Eu360 O378 2.373 . S
Eu360 O381 2.488 . S
Eu360 O382 2.471 . S
Eu360 O383 2.349 . S
Eu361 O370 2.373 . S
Eu361 O374 2.488 . S
Eu361 O375 2.471 . S
Eu361 O376 2.349 . S
Eu361 O379 2.392 1_655 S
Eu361 O380 2.418 1_655 S
Eu361 C390 2.828 . S
C362 O380 1.244 . S
C362 O383 1.265 . S
C363 C364 1.379 . S
C363 C367 1.373 . S
C363 C369 1.505 . S
C364 C363 1.379 . S
C364 C366 1.369 . S
C364 H392 0.930 . S
C365 C367 1.383 . S
C365 C368 1.382 . S
C365 H393 0.930 . S
C366 C364 1.369 . S
C366 C368 1.392 . S
C366 H394 0.930 . S
C367 C363 1.373 . S
C367 C365 1.383 . S
C367 H395 0.931 . S
C368 C365 1.382 . S
C368 C366 1.392 . S
C369 Eu360 2.828 . S
C369 C363 1.505 . S
C369 O381 1.249 . S
C369 O382 1.244 . S
O370 Eu361 2.373 . S
O370 C372 1.258 . S
O371 Eu360 2.392 1_655 S
O371 C372 1.242 . S
C372 O370 1.258 . S
C372 O371 1.242 . S
O373 Eu360 2.418 1_655 S
O373 C377 1.244 . S
O374 Eu361 2.488 . S
O374 C390 1.249 . S
O375 Eu361 2.471 . S
O375 C390 1.244 . S
O376 Eu361 2.349 . S
O376 C377 1.265 . S
C377 O373 1.244 . S
C377 O376 1.265 . S
O378 Eu360 2.373 . S
O378 C391 1.258 . S
O379 Eu361 2.392 1_455 S
O379 C391 1.242 . S
O380 Eu361 2.418 1_455 S
O380 C362 1.244 . S
O381 Eu360 2.488 . S
O381 C369 1.249 . S
O382 Eu360 2.471 . S
O382 C369 1.244 . S
O383 Eu360 2.349 . S
O383 C362 1.265 . S
C384 C385 1.379 . S
C384 C388 1.373 1_556 S
C384 C390 1.505 . S
C385 C384 1.379 . S
C385 C387 1.369 1_556 S
C385 H396 0.930 . S
C386 C388 1.383 . S
C386 C389 1.382 . S
C386 H397 0.930 . S
C387 C385 1.369 1_554 S
C387 C389 1.392 . S
C387 H398 0.930 . S
C388 C384 1.373 1_554 S
C388 C386 1.383 . S
C388 H399 0.931 . S
C389 C386 1.382 . S
C389 C387 1.392 . S
C390 Eu361 2.828 . S
C390 O374 1.249 . S
C390 O375 1.244 . S
C390 C384 1.505 . S
C391 O378 1.258 . S
C391 O379 1.242 . S
H392 C364 0.930 . S
H393 C365 0.930 . S
H394 C366 0.930 . S
H395 C367 0.931 . S
H396 C385 0.930 . S
H397 C386 0.930 . S
H398 C387 0.930 . S
H399 C388 0.931 . S
Eu400 C409 2.828 . S
Eu400 O411 2.392 1_545 S
Eu400 O413 2.418 1_545 S
Eu400 O418 2.373 . S
Eu400 O421 2.488 . S
Eu400 O422 2.471 . S
Eu400 O423 2.349 . S
Eu401 O410 2.373 . S
Eu401 O414 2.488 . S
Eu401 O415 2.471 . S
Eu401 O416 2.349 . S
Eu401 O419 2.392 1_565 S
Eu401 O420 2.418 1_565 S
Eu401 C430 2.828 . S
C402 O420 1.244 . S
C402 O423 1.265 . S
C403 C404 1.379 . S
C403 C407 1.373 . S
C403 C409 1.505 . S
C404 C403 1.379 . S
C404 C406 1.369 . S
C404 H432 0.930 . S
C405 C407 1.383 . S
C405 C408 1.382 . S
C405 H433 0.930 . S
C406 C404 1.369 . S
C406 C408 1.392 . S
C406 H434 0.930 . S
C407 C403 1.373 . S
C407 C405 1.383 . S
C407 H435 0.931 . S
C408 C405 1.382 . S
C408 C406 1.392 . S
C409 Eu400 2.828 . S
C409 C403 1.505 . S
C409 O421 1.249 . S
C409 O422 1.244 . S
O410 Eu401 2.373 . S
O410 C412 1.258 . S
O411 Eu400 2.392 1_565 S
O411 C412 1.242 . S
C412 O410 1.258 . S
C412 O411 1.242 . S
O413 Eu400 2.418 1_565 S
O413 C417 1.244 . S
O414 Eu401 2.488 . S
O414 C430 1.249 . S
O415 Eu401 2.471 . S
O415 C430 1.244 . S
O416 Eu401 2.349 . S
O416 C417 1.265 . S
C417 O413 1.244 . S
C417 O416 1.265 . S
O418 Eu400 2.373 . S
O418 C431 1.258 . S
O419 Eu401 2.392 1_545 S
O419 C431 1.242 . S
O420 Eu401 2.418 1_545 S
O420 C402 1.244 . S
O421 Eu400 2.488 . S
O421 C409 1.249 . S
O422 Eu400 2.471 . S
O422 C409 1.244 . S
O423 Eu400 2.349 . S
O423 C402 1.265 . S
C424 C425 1.379 . S
C424 C428 1.373 . S
C424 C430 1.505 . S
C425 C424 1.379 . S
C425 C427 1.369 . S
C425 H436 0.930 . S
C426 C428 1.383 . S
C426 C429 1.382 . S
C426 H437 0.930 . S
C427 C425 1.369 . S
C427 C429 1.392 . S
C427 H438 0.930 . S
C428 C424 1.373 . S
C428 C426 1.383 . S
C428 H439 0.931 . S
C429 C426 1.382 . S
C429 C427 1.392 . S
C430 Eu401 2.828 . S
C430 O414 1.249 . S
C430 O415 1.244 . S
C430 C424 1.505 . S
C431 O418 1.258 . S
C431 O419 1.242 . S
H432 C404 0.930 . S
H433 C405 0.930 . S
H434 C406 0.930 . S
H435 C407 0.931 . S
H436 C425 0.930 . S
H437 C426 0.930 . S
H438 C427 0.930 . S
H439 C428 0.931 . S
Eu440 C449 2.828 . S
Eu440 O451 2.392 . S
Eu440 O453 2.418 . S
Eu440 O458 2.373 . S
Eu440 O461 2.488 . S
Eu440 O462 2.471 . S
Eu440 O463 2.349 . S
Eu441 O450 2.373 . S
Eu441 O454 2.488 . S
Eu441 O455 2.471 . S
Eu441 O456 2.349 . S
Eu441 O459 2.392 . S
Eu441 O460 2.418 . S
Eu441 C470 2.828 . S
C442 O460 1.244 . S
C442 O463 1.265 . S
C443 C444 1.379 . S
C443 C447 1.373 . S
C443 C449 1.505 . S
C444 C443 1.379 . S
C444 C446 1.369 . S
C444 H472 0.930 . S
C445 C447 1.383 . S
C445 C448 1.382 . S
C445 H473 0.930 . S
C446 C444 1.369 . S
C446 C448 1.392 . S
C446 H474 0.930 . S
C447 C443 1.373 . S
C447 C445 1.383 . S
C447 H475 0.931 . S
C448 C445 1.382 . S
C448 C446 1.392 . S
C449 Eu440 2.828 . S
C449 C443 1.505 . S
C449 O461 1.249 . S
C449 O462 1.244 . S
O450 Eu441 2.373 . S
O450 C452 1.258 . S
O451 Eu440 2.392 . S
O451 C452 1.242 . S
C452 O450 1.258 . S
C452 O451 1.242 . S
O453 Eu440 2.418 . S
O453 C457 1.244 . S
O454 Eu441 2.488 . S
O454 C470 1.249 . S
O455 Eu441 2.471 . S
O455 C470 1.244 . S
O456 Eu441 2.349 . S
O456 C457 1.265 . S
C457 O453 1.244 . S
C457 O456 1.265 . S
O458 Eu440 2.373 . S
O458 C471 1.258 . S
O459 Eu441 2.392 . S
O459 C471 1.242 . S
O460 Eu441 2.418 . S
O460 C442 1.244 . S
O461 Eu440 2.488 . S
O461 C449 1.249 . S
O462 Eu440 2.471 . S
O462 C449 1.244 . S
O463 Eu440 2.349 . S
O463 C442 1.265 . S
C464 C465 1.379 . S
C464 C468 1.373 . S
C464 C470 1.505 . S
C465 C464 1.379 . S
C465 C467 1.369 . S
C465 H476 0.930 . S
C466 C468 1.383 . S
C466 C469 1.382 . S
C466 H477 0.930 . S
C467 C465 1.369 . S
C467 C469 1.392 . S
C467 H478 0.930 . S
C468 C464 1.373 . S
C468 C466 1.383 . S
C468 H479 0.931 . S
C469 C466 1.382 . S
C469 C467 1.392 . S
C470 Eu441 2.828 . S
C470 O454 1.249 . S
C470 O455 1.244 . S
C470 C464 1.505 . S
C471 O458 1.258 . S
C471 O459 1.242 . S
H472 C444 0.930 . S
H473 C445 0.930 . S
H474 C446 0.930 . S
H475 C447 0.931 . S
H476 C465 0.930 . S
H477 C466 0.930 . S
H478 C467 0.930 . S
H479 C468 0.931 . S
C480 C481 1.349 . S
C480 C482 1.327 . S
C480 H505 0.950 . S
C481 C480 1.349 . S
C481 C497 1.349 . S
C482 C480 1.327 . S
C482 C501 1.429 . S
C482 H506 0.950 . S
C483 C500 1.574 . S
C483 C502 1.368 . S
C483 H507 0.949 . S
H484 C488 0.949 . S
C485 C486 1.349 . S
C485 C487 1.327 . S
C485 H508 0.950 . S
C486 C485 1.349 . S
C486 C498 1.349 . S
C487 C485 1.327 . S
C487 C503 1.429 . S
C487 H509 0.950 . S
C488 H484 0.949 . S
C488 C496 1.574 . S
C488 C504 1.368 . S
H489 C497 0.950 . S
H490 C495 0.950 . S
H491 C496 0.949 . S
H492 C498 0.950 . S
H493 C499 0.950 . S
H494 C500 0.949 . S
C495 H490 0.950 . S
C495 C497 1.327 . S
C495 C501 1.429 . S
C496 C488 1.574 . S
C496 H491 0.949 . S
C496 C502 1.368 . S
C497 C481 1.349 . S
C497 H489 0.950 . S
C497 C495 1.327 . S
C498 C486 1.349 . S
C498 H492 0.950 . S
C498 C499 1.327 . S
C499 H493 0.950 . S
C499 C498 1.327 . S
C499 C503 1.429 . S
C500 C483 1.574 . S
C500 H494 0.949 . S
C500 C504 1.368 . S
C501 C482 1.429 . S
C501 C495 1.429 . S
C501 C502 1.523 . S
C502 C483 1.368 . S
C502 C496 1.368 . S
C502 C501 1.523 . S
C503 C487 1.429 . S
C503 C499 1.429 . S
C503 C504 1.523 . S
C504 C488 1.368 . S
C504 C500 1.368 . S
C504 C503 1.523 . S
H505 C480 0.950 . S
H506 C482 0.950 . S
H507 C483 0.949 . S
H508 C485 0.950 . S
H509 C487 0.950 . S
C510 C511 1.349 . S
C510 C512 1.327 . S
C510 H535 0.950 . S
C511 C510 1.349 . S
C511 C527 1.349 . S
C512 C510 1.327 . S
C512 C531 1.429 . S
C512 H536 0.950 . S
C513 C530 1.574 . S
C513 C532 1.368 . S
C513 H537 0.949 . S
H514 C518 0.949 . S
C515 C516 1.349 . S
C515 C517 1.327 . S
C515 H538 0.950 . S
C516 C515 1.349 . S
C516 C528 1.349 . S
C517 C515 1.327 . S
C517 C533 1.429 . S
C517 H539 0.950 . S
C518 H514 0.949 . S
C518 C526 1.574 . S
C518 C534 1.368 . S
H519 C527 0.950 . S
H520 C525 0.950 . S
H521 C526 0.949 . S
H522 C528 0.950 . S
H523 C529 0.950 . S
H524 C530 0.949 . S
C525 H520 0.950 . S
C525 C527 1.327 . S
C525 C531 1.429 . S
C526 C518 1.574 . S
C526 H521 0.949 . S
C526 C532 1.368 . S
C527 C511 1.349 . S
C527 H519 0.950 . S
C527 C525 1.327 . S
C528 C516 1.349 . S
C528 H522 0.950 . S
C528 C529 1.327 . S
C529 H523 0.950 . S
C529 C528 1.327 . S
C529 C533 1.429 . S
C530 C513 1.574 . S
C530 H524 0.949 . S
C530 C534 1.368 . S
C531 C512 1.429 . S
C531 C525 1.429 . S
C531 C532 1.523 . S
C532 C513 1.368 . S
C532 C526 1.368 . S
C532 C531 1.523 . S
C533 C517 1.429 . S
C533 C529 1.429 . S
C533 C534 1.523 . S
C534 C518 1.368 . S
C534 C530 1.368 . S
C534 C533 1.523 . S
H535 C510 0.950 . S
H536 C512 0.950 . S
H537 C513 0.949 . S
H538 C515 0.950 . S
H539 C517 0.950 . S
C540 C541 1.349 . S
C540 C542 1.327 . S
C540 H565 0.950 . S
C541 C540 1.349 . S
C541 C557 1.349 . S
C542 C540 1.327 . S
C542 C561 1.429 . S
C542 H566 0.950 . S
C543 C560 1.574 . S
C543 C562 1.368 . S
C543 H567 0.949 . S
H544 C548 0.949 . S
C545 C546 1.349 . S
C545 C547 1.327 . S
C545 H568 0.950 . S
C546 C545 1.349 . S
C546 C558 1.349 . S
C547 C545 1.327 . S
C547 C563 1.429 . S
C547 H569 0.950 . S
C548 H544 0.949 . S
C548 C556 1.574 . S
C548 C564 1.368 . S
H549 C557 0.950 . S
H550 C555 0.950 . S
H551 C556 0.949 . S
H552 C558 0.950 . S
H553 C559 0.950 . S
H554 C560 0.949 . S
C555 H550 0.950 . S
C555 C557 1.327 . S
C555 C561 1.429 . S
C556 C548 1.574 . S
C556 H551 0.949 . S
C556 C562 1.368 . S
C557 C541 1.349 . S
C557 H549 0.950 . S
C557 C555 1.327 . S
C558 C546 1.349 . S
C558 H552 0.950 . S
C558 C559 1.327 . S
C559 H553 0.950 . S
C559 C558 1.327 . S
C559 C563 1.429 . S
C560 C543 1.574 . S
C560 H554 0.949 . S
C560 C564 1.368 . S
C561 C542 1.429 . S
C561 C555 1.429 . S
C561 C562 1.523 . S
C562 C543 1.368 . S
C562 C556 1.368 . S
C562 C561 1.523 . S
C563 C547 1.429 . S
C563 C559 1.429 . S
C563 C564 1.523 . S
C564 C548 1.368 . S
C564 C560 1.368 . S
C564 C563 1.523 . S
H565 C540 0.950 . S
H566 C542 0.950 . S
H567 C543 0.949 . S
H568 C545 0.950 . S
H569 C547 0.950 . S
C570 C571 1.349 . S
C570 C572 1.327 . S
C570 H595 0.950 . S
C571 C570 1.349 . S
C571 C587 1.349 . S
C572 C570 1.327 . S
C572 C591 1.429 . S
C572 H596 0.950 . S
C573 C590 1.574 . S
C573 C592 1.368 . S
C573 H597 0.949 . S
H574 C578 0.949 . S
C575 C576 1.349 . S
C575 C577 1.327 . S
C575 H598 0.950 . S
C576 C575 1.349 . S
C576 C588 1.349 . S
C577 C575 1.327 . S
C577 C593 1.429 . S
C577 H599 0.950 . S
C578 H574 0.949 . S
C578 C586 1.574 . S
C578 C594 1.368 . S
H579 C587 0.950 . S
H580 C585 0.950 . S
H581 C586 0.949 . S
H582 C588 0.950 . S
H583 C589 0.950 . S
H584 C590 0.949 . S
C585 H580 0.950 . S
C585 C587 1.327 . S
C585 C591 1.429 . S
C586 C578 1.574 . S
C586 H581 0.949 . S
C586 C592 1.368 . S
C587 C571 1.349 . S
C587 H579 0.950 . S
C587 C585 1.327 . S
C588 C576 1.349 . S
C588 H582 0.950 . S
C588 C589 1.327 . S
C589 H583 0.950 . S
C589 C588 1.327 . S
C589 C593 1.429 . S
C590 C573 1.574 . S
C590 H584 0.949 . S
C590 C594 1.368 . S
C591 C572 1.429 . S
C591 C585 1.429 . S
C591 C592 1.523 . S
C592 C573 1.368 . S
C592 C586 1.368 . S
C592 C591 1.523 . S
C593 C577 1.429 . S
C593 C589 1.429 . S
C593 C594 1.523 . S
C594 C578 1.368 . S
C594 C590 1.368 . S
C594 C593 1.523 . S
H595 C570 0.950 . S
H596 C572 0.950 . S
H597 C573 0.949 . S
H598 C575 0.950 . S
H599 C577 0.950 . S
C600 C601 1.349 . S
C600 C602 1.327 . S
C600 H625 0.950 . S
C601 C600 1.349 . S
C601 C617 1.349 . S
C602 C600 1.327 . S
C602 C621 1.429 . S
C602 H626 0.950 . S
C603 C620 1.574 . S
C603 C622 1.368 . S
C603 H627 0.949 . S
H604 C608 0.949 . S
C605 C606 1.349 . S
C605 C607 1.327 . S
C605 H628 0.950 . S
C606 C605 1.349 . S
C606 C618 1.349 . S
C607 C605 1.327 . S
C607 C623 1.429 . S
C607 H629 0.950 . S
C608 H604 0.949 . S
C608 C616 1.574 . S
C608 C624 1.368 . S
H609 C617 0.950 . S
H610 C615 0.950 . S
H611 C616 0.949 . S
H612 C618 0.950 . S
H613 C619 0.950 . S
H614 C620 0.949 . S
C615 H610 0.950 . S
C615 C617 1.327 . S
C615 C621 1.429 . S
C616 C608 1.574 . S
C616 H611 0.949 . S
C616 C622 1.368 . S
C617 C601 1.349 . S
C617 H609 0.950 . S
C617 C615 1.327 . S
C618 C606 1.349 . S
C618 H612 0.950 . S
C618 C619 1.327 . S
C619 H613 0.950 . S
C619 C618 1.327 . S
C619 C623 1.429 . S
C620 C603 1.574 . S
C620 H614 0.949 . S
C620 C624 1.368 . S
C621 C602 1.429 . S
C621 C615 1.429 . S
C621 C622 1.523 . S
C622 C603 1.368 . S
C622 C616 1.368 . S
C622 C621 1.523 . S
C623 C607 1.429 . S
C623 C619 1.429 . S
C623 C624 1.523 . S
C624 C608 1.368 . S
C624 C620 1.368 . S
C624 C623 1.523 . S
H625 C600 0.950 . S
H626 C602 0.950 . S
H627 C603 0.949 . S
H628 C605 0.950 . S
H629 C607 0.950 . S
C630 C631 1.349 . S
C630 C632 1.327 . S
C630 H655 0.950 . S
C631 C630 1.349 . S
C631 C647 1.349 . S
C632 C630 1.327 . S
C632 C651 1.429 . S
C632 H656 0.950 . S
C633 C650 1.574 . S
C633 C652 1.368 . S
C633 H657 0.949 . S
H634 C638 0.949 . S
C635 C636 1.349 . S
C635 C637 1.327 . S
C635 H658 0.950 . S
C636 C635 1.349 . S
C636 C648 1.349 . S
C637 C635 1.327 . S
C637 C653 1.429 . S
C637 H659 0.950 . S
C638 H634 0.949 . S
C638 C646 1.574 . S
C638 C654 1.368 . S
H639 C647 0.950 . S
H640 C645 0.950 . S
H641 C646 0.949 . S
H642 C648 0.950 . S
H643 C649 0.950 . S
H644 C650 0.949 . S
C645 H640 0.950 . S
C645 C647 1.327 . S
C645 C651 1.429 . S
C646 C638 1.574 . S
C646 H641 0.949 . S
C646 C652 1.368 . S
C647 C631 1.349 . S
C647 H639 0.950 . S
C647 C645 1.327 . S
C648 C636 1.349 . S
C648 H642 0.950 . S
C648 C649 1.327 . S
C649 H643 0.950 . S
C649 C648 1.327 . S
C649 C653 1.429 . S
C650 C633 1.574 . S
C650 H644 0.949 . S
C650 C654 1.368 . S
C651 C632 1.429 . S
C651 C645 1.429 . S
C651 C652 1.523 . S
C652 C633 1.368 . S
C652 C646 1.368 . S
C652 C651 1.523 . S
C653 C637 1.429 . S
C653 C649 1.429 . S
C653 C654 1.523 . S
C654 C638 1.368 . S
C654 C650 1.368 . S
C654 C653 1.523 . S
H655 C630 0.950 . S
H656 C632 0.950 . S
H657 C633 0.949 . S
H658 C635 0.950 . S
H659 C637 0.950 . S
C660 C661 1.349 . S
C660 C662 1.327 . S
C660 H685 0.950 . S
C661 C660 1.349 . S
C661 C677 1.349 . S
C662 C660 1.327 . S
C662 C681 1.429 . S
C662 H686 0.950 . S
C663 C680 1.574 . S
C663 C682 1.368 . S
C663 H687 0.949 . S
H664 C668 0.949 . S
C665 C666 1.349 . S
C665 C667 1.327 . S
C665 H688 0.950 . S
C666 C665 1.349 . S
C666 C678 1.349 . S
C667 C665 1.327 . S
C667 C683 1.429 . S
C667 H689 0.950 . S
C668 H664 0.949 . S
C668 C676 1.574 . S
C668 C684 1.368 . S
H669 C677 0.950 . S
H670 C675 0.950 . S
H671 C676 0.949 . S
H672 C678 0.950 . S
H673 C679 0.950 . S
H674 C680 0.949 . S
C675 H670 0.950 . S
C675 C677 1.327 . S
C675 C681 1.429 . S
C676 C668 1.574 . S
C676 H671 0.949 . S
C676 C682 1.368 . S
C677 C661 1.349 . S
C677 H669 0.950 . S
C677 C675 1.327 . S
C678 C666 1.349 . S
C678 H672 0.950 . S
C678 C679 1.327 . S
C679 H673 0.950 . S
C679 C678 1.327 . S
C679 C683 1.429 . S
C680 C663 1.574 . S
C680 H674 0.949 . S
C680 C684 1.368 . S
C681 C662 1.429 . S
C681 C675 1.429 . S
C681 C682 1.523 . S
C682 C663 1.368 . S
C682 C676 1.368 . S
C682 C681 1.523 . S
C683 C667 1.429 . S
C683 C679 1.429 . S
C683 C684 1.523 . S
C684 C668 1.368 . S
C684 C680 1.368 . S
C684 C683 1.523 . S
H685 C660 0.950 . S
H686 C662 0.950 . S
H687 C663 0.949 . S
H688 C665 0.950 . S
H689 C667 0.950 . S
C690 C691 1.349 . S
C690 C692 1.327 . S
C690 H715 0.950 . S
C691 C690 1.349 . S
C691 C707 1.349 . S
C692 C690 1.327 . S
C692 C711 1.429 . S
C692 H716 0.950 . S
C693 C710 1.574 . S
C693 C712 1.368 . S
C693 H717 0.949 . S
H694 C698 0.949 . S
C695 C696 1.349 . S
C695 C697 1.327 . S
C695 H718 0.950 . S
C696 C695 1.349 . S
C696 C708 1.349 . S
C697 C695 1.327 . S
C697 C713 1.429 . S
C697 H719 0.950 . S
C698 H694 0.949 . S
C698 C706 1.574 . S
C698 C714 1.368 . S
H699 C707 0.950 . S
H700 C705 0.950 . S
H701 C706 0.949 . S
H702 C708 0.950 . S
H703 C709 0.950 . S
H704 C710 0.949 . S
C705 H700 0.950 . S
C705 C707 1.327 . S
C705 C711 1.429 . S
C706 C698 1.574 . S
C706 H701 0.949 . S
C706 C712 1.368 . S
C707 C691 1.349 . S
C707 H699 0.950 . S
C707 C705 1.327 . S
C708 C696 1.349 . S
C708 H702 0.950 . S
C708 C709 1.327 . S
C709 H703 0.950 . S
C709 C708 1.327 . S
C709 C713 1.429 . S
C710 C693 1.574 . S
C710 H704 0.949 . S
C710 C714 1.368 . S
C711 C692 1.429 . S
C711 C705 1.429 . S
C711 C712 1.523 . S
C712 C693 1.368 . S
C712 C706 1.368 . S
C712 C711 1.523 . S
C713 C697 1.429 . S
C713 C709 1.429 . S
C713 C714 1.523 . S
C714 C698 1.368 . S
C714 C710 1.368 . S
C714 C713 1.523 . S
H715 C690 0.950 . S
H716 C692 0.950 . S
H717 C693 0.949 . S
H718 C695 0.950 . S
H719 C697 0.950 . S
C720 C721 1.349 . S
C720 C722 1.327 . S
C720 H745 0.950 . S
C721 C720 1.349 . S
C721 C737 1.349 . S
C722 C720 1.327 . S
C722 C741 1.429 . S
C722 H746 0.950 . S
C723 C740 1.574 . S
C723 C742 1.368 . S
C723 H747 0.949 . S
H724 C728 0.949 . S
C725 C726 1.349 . S
C725 C727 1.327 . S
C725 H748 0.950 . S
C726 C725 1.349 . S
C726 C738 1.349 . S
C727 C725 1.327 . S
C727 C743 1.429 . S
C727 H749 0.950 . S
C728 H724 0.949 . S
C728 C736 1.574 . S
C728 C744 1.368 . S
H729 C737 0.950 . S
H730 C735 0.950 . S
H731 C736 0.949 . S
H732 C738 0.950 . S
H733 C739 0.950 . S
H734 C740 0.949 . S
C735 H730 0.950 . S
C735 C737 1.327 . S
C735 C741 1.429 . S
C736 C728 1.574 . S
C736 H731 0.949 . S
C736 C742 1.368 . S
C737 C721 1.349 . S
C737 H729 0.950 . S
C737 C735 1.327 . S
C738 C726 1.349 . S
C738 H732 0.950 . S
C738 C739 1.327 . S
C739 H733 0.950 . S
C739 C738 1.327 . S
C739 C743 1.429 . S
C740 C723 1.574 . S
C740 H734 0.949 . S
C740 C744 1.368 . S
C741 C722 1.429 . S
C741 C735 1.429 . S
C741 C742 1.523 . S
C742 C723 1.368 . S
C742 C736 1.368 . S
C742 C741 1.523 . S
C743 C727 1.429 . S
C743 C739 1.429 . S
C743 C744 1.523 . S
C744 C728 1.368 . S
C744 C740 1.368 . S
C744 C743 1.523 . S
H745 C720 0.950 . S
H746 C722 0.950 . S
H747 C723 0.949 . S
H748 C725 0.950 . S
H749 C727 0.950 . S
C750 C751 1.349 . S
C750 C752 1.327 . S
C750 H775 0.950 . S
C751 C750 1.349 . S
C751 C767 1.349 . S
C752 C750 1.327 . S
C752 C771 1.429 . S
C752 H776 0.950 . S
C753 C770 1.574 . S
C753 C772 1.368 . S
C753 H777 0.949 . S
H754 C758 0.949 . S
C755 C756 1.349 . S
C755 C757 1.327 . S
C755 H778 0.950 . S
C756 C755 1.349 . S
C756 C768 1.349 . S
C757 C755 1.327 . S
C757 C773 1.429 . S
C757 H779 0.950 . S
C758 H754 0.949 . S
C758 C766 1.574 . S
C758 C774 1.368 . S
H759 C767 0.950 . S
H760 C765 0.950 . S
H761 C766 0.949 . S
H762 C768 0.950 . S
H763 C769 0.950 . S
H764 C770 0.949 . S
C765 H760 0.950 . S
C765 C767 1.327 . S
C765 C771 1.429 . S
C766 C758 1.574 . S
C766 H761 0.949 . S
C766 C772 1.368 . S
C767 C751 1.349 . S
C767 H759 0.950 . S
C767 C765 1.327 . S
C768 C756 1.349 . S
C768 H762 0.950 . S
C768 C769 1.327 . S
C769 H763 0.950 . S
C769 C768 1.327 . S
C769 C773 1.429 . S
C770 C753 1.574 . S
C770 H764 0.949 . S
C770 C774 1.368 . S
C771 C752 1.429 . S
C771 C765 1.429 . S
C771 C772 1.523 . S
C772 C753 1.368 . S
C772 C766 1.368 . S
C772 C771 1.523 . S
C773 C757 1.429 . S
C773 C769 1.429 . S
C773 C774 1.523 . S
C774 C758 1.368 . S
C774 C770 1.368 . S
C774 C773 1.523 . S
H775 C750 0.950 . S
H776 C752 0.950 . S
H777 C753 0.949 . S
H778 C755 0.950 . S
H779 C757 0.950 . S
C780 C781 1.349 . S
C780 C782 1.327 . S
C780 H805 0.950 . S
C781 C780 1.349 . S
C781 C797 1.349 . S
C782 C780 1.327 . S
C782 C801 1.429 . S
C782 H806 0.950 . S
C783 C800 1.574 . S
C783 C802 1.368 . S
C783 H807 0.949 . S
H784 C788 0.949 . S
C785 C786 1.349 . S
C785 C787 1.327 . S
C785 H808 0.950 . S
C786 C785 1.349 . S
C786 C798 1.349 . S
C787 C785 1.327 . S
C787 C803 1.429 . S
C787 H809 0.950 . S
C788 H784 0.949 . S
C788 C796 1.574 . S
C788 C804 1.368 . S
H789 C797 0.950 . S
H790 C795 0.950 . S
H791 C796 0.949 . S
H792 C798 0.950 . S
H793 C799 0.950 . S
H794 C800 0.949 . S
C795 H790 0.950 . S
C795 C797 1.327 . S
C795 C801 1.429 . S
C796 C788 1.574 . S
C796 H791 0.949 . S
C796 C802 1.368 . S
C797 C781 1.349 . S
C797 H789 0.950 . S
C797 C795 1.327 . S
C798 C786 1.349 . S
C798 H792 0.950 . S
C798 C799 1.327 . S
C799 H793 0.950 . S
C799 C798 1.327 . S
C799 C803 1.429 . S
C800 C783 1.574 . S
C800 H794 0.949 . S
C800 C804 1.368 . S
C801 C782 1.429 . S
C801 C795 1.429 . S
C801 C802 1.523 . S
C802 C783 1.368 . S
C802 C796 1.368 . S
C802 C801 1.523 . S
C803 C787 1.429 . S
C803 C799 1.429 . S
C803 C804 1.523 . S
C804 C788 1.368 . S
C804 C800 1.368 . S
C804 C803 1.523 . S
H805 C780 0.950 . S
H806 C782 0.950 . S
H807 C783 0.949 . S
H808 C785 0.950 . S
H809 C787 0.950 . S
C810 C811 1.349 . S
C810 C812 1.327 . S
C810 H835 0.950 . S
C811 C810 1.349 . S
C811 C827 1.349 . S
C812 C810 1.327 . S
C812 C831 1.429 . S
C812 H836 0.950 . S
C813 C830 1.574 . S
C813 C832 1.368 . S
C813 H837 0.949 . S
H814 C818 0.949 . S
C815 C816 1.349 . S
C815 C817 1.327 . S
C815 H838 0.950 . S
C816 C815 1.349 . S
C816 C828 1.349 . S
C817 C815 1.327 . S
C817 C833 1.429 . S
C817 H839 0.950 . S
C818 H814 0.949 . S
C818 C826 1.574 . S
C818 C834 1.368 . S
H819 C827 0.950 . S
H820 C825 0.950 . S
H821 C826 0.949 . S
H822 C828 0.950 . S
H823 C829 0.950 . S
H824 C830 0.949 . S
C825 H820 0.950 . S
C825 C827 1.327 . S
C825 C831 1.429 . S
C826 C818 1.574 . S
C826 H821 0.949 . S
C826 C832 1.368 . S
C827 C811 1.349 . S
C827 H819 0.950 . S
C827 C825 1.327 . S
C828 C816 1.349 . S
C828 H822 0.950 . S
C828 C829 1.327 . S
C829 H823 0.950 . S
C829 C828 1.327 . S
C829 C833 1.429 . S
C830 C813 1.574 . S
C830 H824 0.949 . S
C830 C834 1.368 . S
C831 C812 1.429 . S
C831 C825 1.429 . S
C831 C832 1.523 . S
C832 C813 1.368 . S
C832 C826 1.368 . S
C832 C831 1.523 . S
C833 C817 1.429 . S
C833 C829 1.429 . S
C833 C834 1.523 . S
C834 C818 1.368 . S
C834 C830 1.368 . S
C834 C833 1.523 . S
H835 C810 0.950 . S
H836 C812 0.950 . S
H837 C813 0.949 . S
H838 C815 0.950 . S
H839 C817 0.950 . S
C840 C841 1.349 . S
C840 C842 1.327 . S
C840 H865 0.950 . S
C841 C840 1.349 . S
C841 C857 1.349 . S
C842 C840 1.327 . S
C842 C861 1.429 . S
C842 H866 0.950 . S
C843 C860 1.574 . S
C843 C862 1.368 . S
C843 H867 0.949 . S
H844 C848 0.949 . S
C845 C846 1.349 . S
C845 C847 1.327 . S
C845 H868 0.950 . S
C846 C845 1.349 . S
C846 C858 1.349 . S
C847 C845 1.327 . S
C847 C863 1.429 . S
C847 H869 0.950 . S
C848 H844 0.949 . S
C848 C856 1.574 . S
C848 C864 1.368 . S
H849 C857 0.950 . S
H850 C855 0.950 . S
H851 C856 0.949 . S
H852 C858 0.950 . S
H853 C859 0.950 . S
H854 C860 0.949 . S
C855 H850 0.950 . S
C855 C857 1.327 . S
C855 C861 1.429 . S
C856 C848 1.574 . S
C856 H851 0.949 . S
C856 C862 1.368 . S
C857 C841 1.349 . S
C857 H849 0.950 . S
C857 C855 1.327 . S
C858 C846 1.349 . S
C858 H852 0.950 . S
C858 C859 1.327 . S
C859 H853 0.950 . S
C859 C858 1.327 . S
C859 C863 1.429 . S
C860 C843 1.574 . S
C860 H854 0.949 . S
C860 C864 1.368 . S
C861 C842 1.429 . S
C861 C855 1.429 . S
C861 C862 1.523 . S
C862 C843 1.368 . S
C862 C856 1.368 . S
C862 C861 1.523 . S
C863 C847 1.429 . S
C863 C859 1.429 . S
C863 C864 1.523 . S
C864 C848 1.368 . S
C864 C860 1.368 . S
C864 C863 1.523 . S
H865 C840 0.950 . S
H866 C842 0.950 . S
H867 C843 0.949 . S
H868 C845 0.950 . S
H869 C847 0.950 . S
C870 C871 1.349 . S
C870 C872 1.327 . S
C870 H895 0.950 . S
C871 C870 1.349 . S
C871 C887 1.349 . S
C872 C870 1.327 . S
C872 C891 1.429 . S
C872 H896 0.950 . S
C873 C890 1.574 . S
C873 C892 1.368 . S
C873 H897 0.949 . S
H874 C878 0.949 . S
C875 C876 1.349 . S
C875 C877 1.327 . S
C875 H898 0.950 . S
C876 C875 1.349 . S
C876 C888 1.349 . S
C877 C875 1.327 . S
C877 C893 1.429 . S
C877 H899 0.950 . S
C878 H874 0.949 . S
C878 C886 1.574 . S
C878 C894 1.368 . S
H879 C887 0.950 . S
H880 C885 0.950 . S
H881 C886 0.949 . S
H882 C888 0.950 . S
H883 C889 0.950 . S
H884 C890 0.949 . S
C885 H880 0.950 . S
C885 C887 1.327 . S
C885 C891 1.429 . S
C886 C878 1.574 . S
C886 H881 0.949 . S
C886 C892 1.368 . S
C887 C871 1.349 . S
C887 H879 0.950 . S
C887 C885 1.327 . S
C888 C876 1.349 . S
C888 H882 0.950 . S
C888 C889 1.327 . S
C889 H883 0.950 . S
C889 C888 1.327 . S
C889 C893 1.429 . S
C890 C873 1.574 . S
C890 H884 0.949 . S
C890 C894 1.368 . S
C891 C872 1.429 . S
C891 C885 1.429 . S
C891 C892 1.523 . S
C892 C873 1.368 . S
C892 C886 1.368 . S
C892 C891 1.523 . S
C893 C877 1.429 . S
C893 C889 1.429 . S
C893 C894 1.523 . S
C894 C878 1.368 . S
C894 C890 1.368 . S
C894 C893 1.523 . S
H895 C870 0.950 . S
H896 C872 0.950 . S
H897 C873 0.949 . S
H898 C875 0.950 . S
H899 C877 0.950 . S
C900 C901 1.349 . S
C900 C902 1.327 . S
C900 H925 0.950 . S
C901 C900 1.349 . S
C901 C917 1.349 . S
C902 C900 1.327 . S
C902 C921 1.429 . S
C902 H926 0.950 . S
C903 C920 1.574 . S
C903 C922 1.368 . S
C903 H927 0.949 . S
H904 C908 0.949 . S
C905 C906 1.349 . S
C905 C907 1.327 . S
C905 H928 0.950 . S
C906 C905 1.349 . S
C906 C918 1.349 . S
C907 C905 1.327 . S
C907 C923 1.429 . S
C907 H929 0.950 . S
C908 H904 0.949 . S
C908 C916 1.574 . S
C908 C924 1.368 . S
H909 C917 0.950 . S
H910 C915 0.950 . S
H911 C916 0.949 . S
H912 C918 0.950 . S
H913 C919 0.950 . S
H914 C920 0.949 . S
C915 H910 0.950 . S
C915 C917 1.327 . S
C915 C921 1.429 . S
C916 C908 1.574 . S
C916 H911 0.949 . S
C916 C922 1.368 . S
C917 C901 1.349 . S
C917 H909 0.950 . S
C917 C915 1.327 . S
C918 C906 1.349 . S
C918 H912 0.950 . S
C918 C919 1.327 . S
C919 H913 0.950 . S
C919 C918 1.327 . S
C919 C923 1.429 . S
C920 C903 1.574 . S
C920 H914 0.949 . S
C920 C924 1.368 . S
C921 C902 1.429 . S
C921 C915 1.429 . S
C921 C922 1.523 . S
C922 C903 1.368 . S
C922 C916 1.368 . S
C922 C921 1.523 . S
C923 C907 1.429 . S
C923 C919 1.429 . S
C923 C924 1.523 . S
C924 C908 1.368 . S
C924 C920 1.368 . S
C924 C923 1.523 . S
H925 C900 0.950 . S
H926 C902 0.950 . S
H927 C903 0.949 . S
H928 C905 0.950 . S
H929 C907 0.950 . S
C930 C931 1.349 . S
C930 C932 1.327 . S
C930 H955 0.950 . S
C931 C930 1.349 . S
C931 C947 1.349 . S
C932 C930 1.327 . S
C932 C951 1.429 . S
C932 H956 0.950 . S
C933 C950 1.574 . S
C933 C952 1.368 . S
C933 H957 0.949 . S
H934 C938 0.949 . S
C935 C936 1.349 . S
C935 C937 1.327 . S
C935 H958 0.950 . S
C936 C935 1.349 . S
C936 C948 1.349 . S
C937 C935 1.327 . S
C937 C953 1.429 . S
C937 H959 0.950 . S
C938 H934 0.949 . S
C938 C946 1.574 . S
C938 C954 1.368 . S
H939 C947 0.950 . S
H940 C945 0.950 . S
H941 C946 0.949 . S
H942 C948 0.950 . S
H943 C949 0.950 . S
H944 C950 0.949 . S
C945 H940 0.950 . S
C945 C947 1.327 . S
C945 C951 1.429 . S
C946 C938 1.574 . S
C946 H941 0.949 . S
C946 C952 1.368 . S
C947 C931 1.349 . S
C947 H939 0.950 . S
C947 C945 1.327 . S
C948 C936 1.349 . S
C948 H942 0.950 . S
C948 C949 1.327 . S
C949 H943 0.950 . S
C949 C948 1.327 . S
C949 C953 1.429 . S
C950 C933 1.574 . S
C950 H944 0.949 . S
C950 C954 1.368 . S
C951 C932 1.429 . S
C951 C945 1.429 . S
C951 C952 1.523 . S
C952 C933 1.368 . S
C952 C946 1.368 . S
C952 C951 1.523 . S
C953 C937 1.429 . S
C953 C949 1.429 . S
C953 C954 1.523 . S
C954 C938 1.368 . S
C954 C950 1.368 . S
C954 C953 1.523 . S
H955 C930 0.950 . S
H956 C932 0.950 . S
H957 C933 0.949 . S
H958 C935 0.950 . S
H959 C937 0.950 . S
C960 C961 1.349 . S
C960 C962 1.327 . S
C960 H985 0.950 . S
C961 C960 1.349 . S
C961 C977 1.349 . S
C962 C960 1.327 . S
C962 C981 1.429 . S
C962 H986 0.950 . S
C963 C980 1.574 . S
C963 C982 1.368 . S
C963 H987 0.949 . S
H964 C968 0.949 . S
C965 C966 1.349 . S
C965 C967 1.327 . S
C965 H988 0.950 . S
C966 C965 1.349 . S
C966 C978 1.349 . S
C967 C965 1.327 . S
C967 C983 1.429 . S
C967 H989 0.950 . S
C968 H964 0.949 . S
C968 C976 1.574 1_554 S
C968 C984 1.368 . S
H969 C977 0.950 . S
H970 C975 0.950 . S
H971 C976 0.958 . S
H972 C978 0.950 . S
H973 C979 0.950 . S
H974 C980 0.949 . S
C975 H970 0.950 . S
C975 C977 1.327 . S
C975 C981 1.429 . S
C976 C968 1.574 1_556 S
C976 H971 0.958 . S
C976 C982 1.368 . S
C977 C961 1.349 . S
C977 H969 0.950 . S
C977 C975 1.327 . S
C978 C966 1.349 . S
C978 H972 0.950 . S
C978 C979 1.327 . S
C979 H973 0.950 . S
C979 C978 1.327 . S
C979 C983 1.429 . S
C980 C963 1.574 . S
C980 H974 0.949 . S
C980 C984 1.368 1_556 S
C981 C962 1.429 . S
C981 C975 1.429 . S
C981 C982 1.523 . S
C982 C963 1.368 . S
C982 C976 1.368 . S
C982 C981 1.523 . S
C983 C967 1.429 . S
C983 C979 1.429 . S
C983 C984 1.523 . S
C984 C968 1.368 . S
C984 C980 1.368 1_554 S
C984 C983 1.523 . S
H985 C960 0.950 . S
H986 C962 0.950 . S
H987 C963 0.949 . S
H988 C965 0.950 . S
H989 C967 0.950 . S
C990 C991 1.349 . S
C990 C992 1.327 . S
C990 H1015 0.950 . S
C991 C990 1.349 . S
C991 C1007 1.349 . S
C992 C990 1.327 . S
C992 C1011 1.429 . S
C992 H1016 0.950 . S
C993 C1010 1.574 . S
C993 C1012 1.368 . S
C993 H1017 0.949 . S
H994 C998 0.949 . S
C995 C996 1.349 . S
C995 C997 1.327 . S
C995 H1018 0.950 . S
C996 C995 1.349 . S
C996 C1008 1.349 . S
C997 C995 1.327 . S
C997 C1013 1.429 . S
C997 H1019 0.950 . S
C998 H994 0.949 . S
C998 C1006 1.574 . S
C998 C1014 1.368 . S
H999 C1007 0.950 . S
H1000 C1005 0.950 . S
H1001 C1006 0.949 . S
H1002 C1008 0.950 . S
H1003 C1009 0.950 . S
H1004 C1010 0.949 . S
C1005 H1000 0.950 . S
C1005 C1007 1.327 . S
C1005 C1011 1.429 . S
C1006 C998 1.574 . S
C1006 H1001 0.949 . S
C1006 C1012 1.368 . S
C1007 C991 1.349 . S
C1007 H999 0.950 . S
C1007 C1005 1.327 . S
C1008 C996 1.349 . S
C1008 H1002 0.950 . S
C1008 C1009 1.327 . S
C1009 H1003 0.950 . S
C1009 C1008 1.327 . S
C1009 C1013 1.429 . S
C1010 C993 1.574 . S
C1010 H1004 0.949 . S
C1010 C1014 1.368 . S
C1011 C992 1.429 . S
C1011 C1005 1.429 . S
C1011 C1012 1.523 . S
C1012 C993 1.368 . S
C1012 C1006 1.368 . S
C1012 C1011 1.523 . S
C1013 C997 1.429 . S
C1013 C1009 1.429 . S
C1013 C1014 1.523 . S
C1014 C998 1.368 . S
C1014 C1010 1.368 . S
C1014 C1013 1.523 . S
H1015 C990 0.950 . S
H1016 C992 0.950 . S
H1017 C993 0.949 . S
H1018 C995 0.950 . S
H1019 C997 0.950 . S
C1020 C1021 1.349 . S
C1020 C1022 1.327 . S
C1020 H1045 0.950 . S
C1021 C1020 1.349 . S
C1021 C1037 1.349 . S
C1022 C1020 1.327 . S
C1022 C1041 1.429 . S
C1022 H1046 0.950 . S
C1023 C1040 1.574 . S
C1023 C1042 1.368 . S
C1023 H1047 0.949 . S
H1024 C1028 0.949 . S
C1025 C1026 1.349 . S
C1025 C1027 1.327 . S
C1025 H1048 0.950 . S
C1026 C1025 1.349 . S
C1026 C1038 1.349 . S
C1027 C1025 1.327 . S
C1027 C1043 1.429 . S
C1027 H1049 0.950 . S
C1028 H1024 0.949 . S
C1028 C1036 1.574 . S
C1028 C1044 1.368 . S
H1029 C1037 0.950 . S
H1030 C1035 0.950 . S
H1031 C1036 0.949 . S
H1032 C1038 0.950 . S
H1033 C1039 0.950 . S
H1034 C1040 0.949 . S
C1035 H1030 0.950 . S
C1035 C1037 1.327 . S
C1035 C1041 1.429 . S
C1036 C1028 1.574 . S
C1036 H1031 0.949 . S
C1036 C1042 1.368 . S
C1037 C1021 1.349 . S
C1037 H1029 0.950 . S
C1037 C1035 1.327 . S
C1038 C1026 1.349 . S
C1038 H1032 0.950 . S
C1038 C1039 1.327 . S
C1039 H1033 0.950 . S
C1039 C1038 1.327 . S
C1039 C1043 1.429 . S
C1040 C1023 1.574 . S
C1040 H1034 0.949 . S
C1040 C1044 1.368 . S
C1041 C1022 1.429 . S
C1041 C1035 1.429 . S
C1041 C1042 1.523 . S
C1042 C1023 1.368 . S
C1042 C1036 1.368 . S
C1042 C1041 1.523 . S
C1043 C1027 1.429 . S
C1043 C1039 1.429 . S
C1043 C1044 1.523 . S
C1044 C1028 1.368 . S
C1044 C1040 1.368 . S
C1044 C1043 1.523 . S
H1045 C1020 0.950 . S
H1046 C1022 0.950 . S
H1047 C1023 0.949 . S
H1048 C1025 0.950 . S
H1049 C1027 0.950 . S
C1050 C1051 1.349 . S
C1050 C1052 1.327 . S
C1050 H1075 0.950 . S
C1051 C1050 1.349 . S
C1051 C1067 1.349 . S
C1052 C1050 1.327 . S
C1052 C1071 1.429 . S
C1052 H1076 0.950 . S
C1053 C1070 1.574 . S
C1053 C1072 1.368 . S
C1053 H1077 0.949 . S
H1054 C1058 0.949 . S
C1055 C1056 1.349 . S
C1055 C1057 1.327 . S
C1055 H1078 0.950 . S
C1056 C1055 1.349 . S
C1056 C1068 1.349 . S
C1057 C1055 1.327 . S
C1057 C1073 1.429 . S
C1057 H1079 0.950 . S
C1058 H1054 0.949 . S
C1058 C1066 1.574 . S
C1058 C1074 1.368 . S
H1059 C1067 0.950 . S
H1060 C1065 0.950 . S
H1061 C1066 0.949 . S
H1062 C1068 0.950 . S
H1063 C1069 0.950 . S
H1064 C1070 0.949 . S
C1065 H1060 0.950 . S
C1065 C1067 1.327 . S
C1065 C1071 1.429 . S
C1066 C1058 1.574 . S
C1066 H1061 0.949 . S
C1066 C1072 1.368 . S
C1067 C1051 1.349 . S
C1067 H1059 0.950 . S
C1067 C1065 1.327 . S
C1068 C1056 1.349 . S
C1068 H1062 0.950 . S
C1068 C1069 1.327 . S
C1069 H1063 0.950 . S
C1069 C1068 1.327 . S
C1069 C1073 1.429 . S
C1070 C1053 1.574 . S
C1070 H1064 0.949 . S
C1070 C1074 1.368 . S
C1071 C1052 1.429 . S
C1071 C1065 1.429 . S
C1071 C1072 1.523 . S
C1072 C1053 1.368 . S
C1072 C1066 1.368 . S
C1072 C1071 1.523 . S
C1073 C1057 1.429 . S
C1073 C1069 1.429 . S
C1073 C1074 1.523 . S
C1074 C1058 1.368 . S
C1074 C1070 1.368 . S
C1074 C1073 1.523 . S
H1075 C1050 0.950 . S
H1076 C1052 0.950 . S
H1077 C1053 0.949 . S
H1078 C1055 0.950 . S
H1079 C1057 0.950 . S
C1080 C1081 1.349 . S
C1080 C1082 1.327 . S
C1080 H1105 0.950 . S
C1081 C1080 1.349 . S
C1081 C1097 1.349 . S
C1082 C1080 1.327 . S
C1082 C1101 1.429 . S
C1082 H1106 0.950 . S
C1083 C1100 1.574 . S
C1083 C1102 1.368 . S
C1083 H1107 0.949 . S
H1084 C1088 0.949 . S
C1085 C1086 1.349 . S
C1085 C1087 1.327 . S
C1085 H1108 0.950 . S
C1086 C1085 1.349 . S
C1086 C1098 1.349 . S
C1087 C1085 1.327 . S
C1087 C1103 1.429 . S
C1087 H1109 0.950 . S
C1088 H1084 0.949 . S
C1088 C1096 1.574 . S
C1088 C1104 1.368 . S
H1089 C1097 0.950 . S
H1090 C1095 0.950 . S
H1091 C1096 0.949 . S
H1092 C1098 0.950 . S
H1093 C1099 0.950 . S
H1094 C1100 0.949 . S
C1095 H1090 0.950 . S
C1095 C1097 1.327 . S
C1095 C1101 1.429 . S
C1096 C1088 1.574 . S
C1096 H1091 0.949 . S
C1096 C1102 1.368 . S
C1097 C1081 1.349 . S
C1097 H1089 0.950 . S
C1097 C1095 1.327 . S
C1098 C1086 1.349 . S
C1098 H1092 0.950 . S
C1098 C1099 1.327 . S
C1099 H1093 0.950 . S
C1099 C1098 1.327 . S
C1099 C1103 1.429 . S
C1100 C1083 1.574 . S
C1100 H1094 0.949 . S
C1100 C1104 1.368 . S
C1101 C1082 1.429 . S
C1101 C1095 1.429 . S
C1101 C1102 1.523 . S
C1102 C1083 1.368 . S
C1102 C1096 1.368 . S
C1102 C1101 1.523 . S
C1103 C1087 1.429 . S
C1103 C1099 1.429 . S
C1103 C1104 1.523 . S
C1104 C1088 1.368 . S
C1104 C1100 1.368 . S
C1104 C1103 1.523 . S
H1105 C1080 0.950 . S
H1106 C1082 0.950 . S
H1107 C1083 0.949 . S
H1108 C1085 0.950 . S
H1109 C1087 0.950 . S
C1110 C1111 1.349 . S
C1110 C1112 1.327 . S
C1110 H1135 0.950 . S
C1111 C1110 1.349 . S
C1111 C1127 1.349 . S
C1112 C1110 1.327 . S
C1112 C1131 1.429 . S
C1112 H1136 0.950 . S
C1113 C1130 1.574 . S
C1113 C1132 1.368 . S
C1113 H1137 0.949 . S
H1114 C1118 0.949 . S
C1115 C1116 1.349 . S
C1115 C1117 1.327 . S
C1115 H1138 0.950 . S
C1116 C1115 1.349 . S
C1116 C1128 1.349 . S
C1117 C1115 1.327 . S
C1117 C1133 1.429 . S
C1117 H1139 0.991 . S
C1118 H1114 0.949 . S
C1118 C1126 1.567 1_556 S
C1118 C1134 1.368 . S
H1119 C1127 0.950 . S
H1120 C1125 0.950 . S
H1121 C1126 0.947 1_556 S
H1122 C1128 0.950 . S
H1123 C1129 0.950 . S
H1124 C1130 0.949 . S
C1125 H1120 0.950 . S
C1125 C1127 1.327 . S
C1125 C1131 1.429 . S
C1126 C1118 1.567 1_554 S
C1126 H1121 0.947 1_554 S
C1126 C1132 1.377 . S
C1127 C1111 1.349 . S
C1127 H1119 0.950 . S
C1127 C1125 1.327 . S
C1128 C1116 1.349 . S
C1128 H1122 0.950 . S
C1128 C1129 1.327 . S
C1129 H1123 0.950 . S
C1129 C1128 1.327 . S
C1129 C1133 1.429 . S
C1130 C1113 1.574 . S
C1130 H1124 0.949 . S
C1130 C1134 1.368 1_554 S
C1131 C1112 1.429 . S
C1131 C1125 1.429 . S
C1131 C1132 1.523 . S
C1132 C1113 1.368 . S
C1132 C1126 1.377 . S
C1132 C1131 1.523 . S
C1133 C1117 1.429 . S
C1133 C1129 1.429 . S
C1133 C1134 1.523 . S
C1134 C1118 1.368 . S
C1134 C1130 1.368 1_556 S
C1134 C1133 1.523 . S
H1135 C1110 0.950 . S
H1136 C1112 0.950 . S
H1137 C1113 0.949 . S
H1138 C1115 0.950 . S
H1139 C1117 0.991 . S
C1140 C1141 1.349 . S
C1140 C1142 1.327 . S
C1140 H1165 0.950 . S
C1141 C1140 1.349 . S
C1141 C1157 1.349 . S
C1142 C1140 1.327 . S
C1142 C1161 1.429 . S
C1142 H1166 0.950 . S
C1143 C1160 1.574 . S
C1143 C1162 1.368 . S
C1143 H1167 0.949 . S
H1144 C1148 0.949 . S
C1145 C1146 1.349 . S
C1145 C1147 1.327 . S
C1145 H1168 0.950 . S
C1146 C1145 1.349 . S
C1146 C1158 1.349 . S
C1147 C1145 1.327 . S
C1147 C1163 1.429 . S
C1147 H1169 0.950 . S
C1148 H1144 0.949 . S
C1148 C1156 1.574 . S
C1148 C1164 1.368 . S
H1149 C1157 0.950 . S
H1150 C1155 0.950 . S
H1151 C1156 0.949 . S
H1152 C1158 0.950 . S
H1153 C1159 0.950 . S
H1154 C1160 0.949 . S
C1155 H1150 0.950 . S
C1155 C1157 1.327 . S
C1155 C1161 1.429 . S
C1156 C1148 1.574 . S
C1156 H1151 0.949 . S
C1156 C1162 1.368 . S
C1157 C1141 1.349 . S
C1157 H1149 0.950 . S
C1157 C1155 1.327 . S
C1158 C1146 1.349 . S
C1158 H1152 0.950 . S
C1158 C1159 1.327 . S
C1159 H1153 0.950 . S
C1159 C1158 1.327 . S
C1159 C1163 1.429 . S
C1160 C1143 1.574 . S
C1160 H1154 0.949 . S
C1160 C1164 1.368 . S
C1161 C1142 1.429 . S
C1161 C1155 1.429 . S
C1161 C1162 1.523 . S
C1162 C1143 1.368 . S
C1162 C1156 1.368 . S
C1162 C1161 1.523 . S
C1163 C1147 1.429 . S
C1163 C1159 1.429 . S
C1163 C1164 1.523 . S
C1164 C1148 1.368 . S
C1164 C1160 1.368 . S
C1164 C1163 1.523 . S
H1165 C1140 0.950 . S
H1166 C1142 0.950 . S
H1167 C1143 0.949 . S
H1168 C1145 0.950 . S
H1169 C1147 0.950 . S
C1170 C1171 1.349 . S
C1170 C1172 1.327 . S
C1170 H1195 0.950 . S
C1171 C1170 1.349 . S
C1171 C1187 1.349 . S
C1172 C1170 1.327 . S
C1172 C1191 1.429 . S
C1172 H1196 0.950 . S
C1173 C1190 1.574 . S
C1173 C1192 1.368 . S
C1173 H1197 0.949 . S
H1174 C1178 0.949 . S
C1175 C1176 1.349 . S
C1175 C1177 1.327 . S
C1175 H1198 0.950 . S
C1176 C1175 1.349 . S
C1176 C1188 1.349 . S
C1177 C1175 1.327 . S
C1177 C1193 1.429 . S
C1177 H1199 0.950 . S
C1178 H1174 0.949 . S
C1178 C1186 1.574 . S
C1178 C1194 1.368 . S
H1179 C1187 0.950 . S
H1180 C1185 0.950 . S
H1181 C1186 0.949 . S
H1182 C1188 0.950 . S
H1183 C1189 0.950 . S
H1184 C1190 0.949 . S
C1185 H1180 0.950 . S
C1185 C1187 1.327 . S
C1185 C1191 1.429 . S
C1186 C1178 1.574 . S
C1186 H1181 0.949 . S
C1186 C1192 1.368 . S
C1187 C1171 1.349 . S
C1187 H1179 0.950 . S
C1187 C1185 1.327 . S
C1188 C1176 1.349 . S
C1188 H1182 0.950 . S
C1188 C1189 1.327 . S
C1189 H1183 0.950 . S
C1189 C1188 1.327 . S
C1189 C1193 1.429 . S
C1190 C1173 1.574 . S
C1190 H1184 0.949 . S
C1190 C1194 1.368 . S
C1191 C1172 1.429 . S
C1191 C1185 1.429 . S
C1191 C1192 1.523 . S
C1192 C1173 1.368 . S
C1192 C1186 1.368 . S
C1192 C1191 1.523 . S
C1193 C1177 1.429 . S
C1193 C1189 1.429 . S
C1193 C1194 1.523 . S
C1194 C1178 1.368 . S
C1194 C1190 1.368 . S
C1194 C1193 1.523 . S
H1195 C1170 0.950 . S
H1196 C1172 0.950 . S
H1197 C1173 0.949 . S
H1198 C1175 0.950 . S
H1199 C1177 0.950 . S
C1200 C1201 1.349 . S
C1200 C1202 1.327 . S
C1200 H1225 0.950 . S
C1201 C1200 1.349 . S
C1201 C1217 1.349 . S
C1202 C1200 1.327 . S
C1202 C1221 1.429 . S
C1202 H1226 0.950 . S
C1203 C1220 1.574 . S
C1203 C1222 1.368 . S
C1203 H1227 0.949 . S
H1204 C1208 0.949 . S
C1205 C1206 1.349 . S
C1205 C1207 1.327 . S
C1205 H1228 0.950 . S
C1206 C1205 1.349 . S
C1206 C1218 1.349 . S
C1207 C1205 1.327 . S
C1207 C1223 1.429 . S
C1207 H1229 0.950 . S
C1208 H1204 0.949 . S
C1208 C1216 1.574 . S
C1208 C1224 1.368 . S
H1209 C1217 0.950 . S
H1210 C1215 0.950 . S
H1211 C1216 0.949 . S
H1212 C1218 0.950 . S
H1213 C1219 0.950 . S
H1214 C1220 0.949 . S
C1215 H1210 0.950 . S
C1215 C1217 1.327 . S
C1215 C1221 1.429 . S
C1216 C1208 1.574 . S
C1216 H1211 0.949 . S
C1216 C1222 1.368 . S
C1217 C1201 1.349 . S
C1217 H1209 0.950 . S
C1217 C1215 1.327 . S
C1218 C1206 1.349 . S
C1218 H1212 0.950 . S
C1218 C1219 1.327 . S
C1219 H1213 0.950 . S
C1219 C1218 1.327 . S
C1219 C1223 1.429 . S
C1220 C1203 1.574 . S
C1220 H1214 0.949 . S
C1220 C1224 1.368 . S
C1221 C1202 1.429 . S
C1221 C1215 1.429 . S
C1221 C1222 1.523 . S
C1222 C1203 1.368 . S
C1222 C1216 1.368 . S
C1222 C1221 1.523 . S
C1223 C1207 1.429 . S
C1223 C1219 1.429 . S
C1223 C1224 1.523 . S
C1224 C1208 1.368 . S
C1224 C1220 1.368 . S
C1224 C1223 1.523 . S
H1225 C1200 0.950 . S
H1226 C1202 0.950 . S
H1227 C1203 0.949 . S
H1228 C1205 0.950 . S
H1229 C1207 0.950 . S
C1230 C1231 1.349 . S
C1230 C1232 1.327 . S
C1230 H1255 0.950 . S
C1231 C1230 1.349 . S
C1231 C1247 1.349 . S
C1232 C1230 1.327 . S
C1232 C1251 1.429 . S
C1232 H1256 0.950 . S
C1233 C1250 1.574 . S
C1233 C1252 1.368 . S
C1233 H1257 0.949 . S
H1234 C1238 0.949 . S
C1235 C1236 1.349 . S
C1235 C1237 1.327 . S
C1235 H1258 0.950 . S
C1236 C1235 1.349 . S
C1236 C1248 1.349 . S
C1237 C1235 1.327 . S
C1237 C1253 1.429 . S
C1237 H1259 0.950 . S
C1238 H1234 0.949 . S
C1238 C1246 1.574 . S
C1238 C1254 1.368 . S
H1239 C1247 0.950 . S
H1240 C1245 0.950 . S
H1241 C1246 0.949 . S
H1242 C1248 0.950 . S
H1243 C1249 0.950 . S
H1244 C1250 0.949 . S
C1245 H1240 0.950 . S
C1245 C1247 1.327 . S
C1245 C1251 1.429 . S
C1246 C1238 1.574 . S
C1246 H1241 0.949 . S
C1246 C1252 1.368 . S
C1247 C1231 1.349 . S
C1247 H1239 0.950 . S
C1247 C1245 1.327 . S
C1248 C1236 1.349 . S
C1248 H1242 0.950 . S
C1248 C1249 1.327 . S
C1249 H1243 0.950 . S
C1249 C1248 1.327 . S
C1249 C1253 1.429 . S
C1250 C1233 1.574 . S
C1250 H1244 0.949 . S
C1250 C1254 1.368 . S
C1251 C1232 1.429 . S
C1251 C1245 1.429 . S
C1251 C1252 1.523 . S
C1252 C1233 1.368 . S
C1252 C1246 1.368 . S
C1252 C1251 1.523 . S
C1253 C1237 1.429 . S
C1253 C1249 1.429 . S
C1253 C1254 1.523 . S
C1254 C1238 1.368 . S
C1254 C1250 1.368 . S
C1254 C1253 1.523 . S
H1255 C1230 0.950 . S
H1256 C1232 0.950 . S
H1257 C1233 0.949 . S
H1258 C1235 0.950 . S
H1259 C1237 0.950 . S
C1260 C1261 1.349 . S
C1260 C1262 1.327 . S
C1260 H1285 0.950 . S
C1261 C1260 1.349 . S
C1261 C1277 1.349 . S
C1262 C1260 1.327 . S
C1262 C1281 1.429 . S
C1262 H1286 0.950 . S
C1263 C1280 1.574 . S
C1263 C1282 1.368 . S
C1263 H1287 0.949 . S
H1264 C1268 0.949 . S
C1265 C1266 1.349 . S
C1265 C1267 1.327 . S
C1265 H1288 0.950 . S
C1266 C1265 1.349 . S
C1266 C1278 1.349 . S
C1267 C1265 1.327 . S
C1267 C1283 1.429 . S
C1267 H1289 0.950 . S
C1268 H1264 0.949 . S
C1268 C1276 1.574 . S
C1268 C1284 1.368 . S
H1269 C1277 0.950 . S
H1270 C1275 0.950 . S
H1271 C1276 0.949 . S
H1272 C1278 0.950 . S
H1273 C1279 0.950 . S
H1274 C1280 0.949 . S
C1275 H1270 0.950 . S
C1275 C1277 1.327 . S
C1275 C1281 1.429 . S
C1276 C1268 1.574 . S
C1276 H1271 0.949 . S
C1276 C1282 1.368 . S
C1277 C1261 1.349 . S
C1277 H1269 0.950 . S
C1277 C1275 1.327 . S
C1278 C1266 1.349 . S
C1278 H1272 0.950 . S
C1278 C1279 1.327 . S
C1279 H1273 0.950 . S
C1279 C1278 1.327 . S
C1279 C1283 1.429 . S
C1280 C1263 1.574 . S
C1280 H1274 0.949 . S
C1280 C1284 1.368 . S
C1281 C1262 1.429 . S
C1281 C1275 1.429 . S
C1281 C1282 1.523 . S
C1282 C1263 1.368 . S
C1282 C1276 1.368 . S
C1282 C1281 1.523 . S
C1283 C1267 1.429 . S
C1283 C1279 1.429 . S
C1283 C1284 1.523 . S
C1284 C1268 1.368 . S
C1284 C1280 1.368 . S
C1284 C1283 1.523 . S
H1285 C1260 0.950 . S
H1286 C1262 0.950 . S
H1287 C1263 0.949 . S
H1288 C1265 0.950 . S
H1289 C1267 0.950 . S
C1290 C1291 1.349 . S
C1290 C1292 1.327 . S
C1290 H1315 0.950 . S
C1291 C1290 1.349 . S
C1291 C1307 1.349 . S
C1292 C1290 1.327 . S
C1292 C1311 1.429 . S
C1292 H1316 0.950 . S
C1293 C1310 1.574 . S
C1293 C1312 1.368 . S
C1293 H1317 0.949 . S
H1294 C1298 0.949 . S
C1295 C1296 1.349 . S
C1295 C1297 1.327 . S
C1295 H1318 0.950 . S
C1296 C1295 1.349 . S
C1296 C1308 1.349 . S
C1297 C1295 1.327 . S
C1297 C1313 1.429 . S
C1297 H1319 0.950 . S
C1298 H1294 0.949 . S
C1298 C1306 1.574 . S
C1298 C1314 1.368 . S
H1299 C1307 0.950 . S
H1300 C1305 0.950 . S
H1301 C1306 0.949 . S
H1302 C1308 0.950 . S
H1303 C1309 0.950 . S
H1304 C1310 0.949 . S
C1305 H1300 0.950 . S
C1305 C1307 1.327 . S
C1305 C1311 1.429 . S
C1306 C1298 1.574 . S
C1306 H1301 0.949 . S
C1306 C1312 1.368 . S
C1307 C1291 1.349 . S
C1307 H1299 0.950 . S
C1307 C1305 1.327 . S
C1308 C1296 1.349 . S
C1308 H1302 0.950 . S
C1308 C1309 1.327 . S
C1309 H1303 0.950 . S
C1309 C1308 1.327 . S
C1309 C1313 1.429 . S
C1310 C1293 1.574 . S
C1310 H1304 0.949 . S
C1310 C1314 1.368 . S
C1311 C1292 1.429 . S
C1311 C1305 1.429 . S
C1311 C1312 1.523 . S
C1312 C1293 1.368 . S
C1312 C1306 1.368 . S
C1312 C1311 1.523 . S
C1313 C1297 1.429 . S
C1313 C1309 1.429 . S
C1313 C1314 1.523 . S
C1314 C1298 1.368 . S
C1314 C1310 1.368 . S
C1314 C1313 1.523 . S
H1315 C1290 0.950 . S
H1316 C1292 0.950 . S
H1317 C1293 0.949 . S
H1318 C1295 0.950 . S
H1319 C1297 0.950 . S
C1320 C1321 1.349 . S
C1320 C1322 1.327 . S
C1320 H1345 0.950 . S
C1321 C1320 1.349 . S
C1321 C1337 1.349 . S
C1322 C1320 1.327 . S
C1322 C1341 1.429 . S
C1322 H1346 0.950 . S
C1323 C1340 1.574 . S
C1323 C1342 1.368 . S
C1323 H1347 0.949 . S
H1324 C1328 0.949 . S
C1325 C1326 1.349 . S
C1325 C1327 1.327 . S
C1325 H1348 0.950 . S
C1326 C1325 1.349 . S
C1326 C1338 1.349 . S
C1327 C1325 1.327 . S
C1327 C1343 1.429 . S
C1327 H1349 0.950 . S
C1328 H1324 0.949 . S
C1328 C1336 1.574 . S
C1328 C1344 1.368 . S
H1329 C1337 0.950 . S
H1330 C1335 0.950 . S
H1331 C1336 0.949 . S
H1332 C1338 0.950 . S
H1333 C1339 0.950 . S
H1334 C1340 0.949 . S
C1335 H1330 0.950 . S
C1335 C1337 1.327 . S
C1335 C1341 1.429 . S
C1336 C1328 1.574 . S
C1336 H1331 0.949 . S
C1336 C1342 1.368 . S
C1337 C1321 1.349 . S
C1337 H1329 0.950 . S
C1337 C1335 1.327 . S
C1338 C1326 1.349 . S
C1338 H1332 0.950 . S
C1338 C1339 1.327 . S
C1339 H1333 0.950 . S
C1339 C1338 1.327 . S
C1339 C1343 1.429 . S
C1340 C1323 1.574 . S
C1340 H1334 0.949 . S
C1340 C1344 1.368 . S
C1341 C1322 1.429 . S
C1341 C1335 1.429 . S
C1341 C1342 1.523 . S
C1342 C1323 1.368 . S
C1342 C1336 1.368 . S
C1342 C1341 1.523 . S
C1343 C1327 1.429 . S
C1343 C1339 1.429 . S
C1343 C1344 1.523 . S
C1344 C1328 1.368 . S
C1344 C1340 1.368 . S
C1344 C1343 1.523 . S
H1345 C1320 0.950 . S
H1346 C1322 0.950 . S
H1347 C1323 0.949 . S
H1348 C1325 0.950 . S
H1349 C1327 0.950 . S
C1350 C1351 1.349 . S
C1350 C1352 1.327 . S
C1350 H1375 0.950 . S
C1351 C1350 1.349 . S
C1351 C1367 1.349 . S
C1352 C1350 1.327 . S
C1352 C1371 1.429 . S
C1352 H1376 0.950 . S
C1353 C1370 1.574 . S
C1353 C1372 1.368 . S
C1353 H1377 0.949 . S
H1354 C1358 0.949 . S
C1355 C1356 1.349 . S
C1355 C1357 1.327 . S
C1355 H1378 0.950 . S
C1356 C1355 1.349 . S
C1356 C1368 1.349 . S
C1357 C1355 1.327 . S
C1357 C1373 1.429 . S
C1357 H1379 0.950 . S
C1358 H1354 0.949 . S
C1358 C1366 1.574 . S
C1358 C1374 1.368 . S
H1359 C1367 0.950 . S
H1360 C1365 0.950 . S
H1361 C1366 0.949 . S
H1362 C1368 0.950 . S
H1363 C1369 0.950 . S
H1364 C1370 0.949 . S
C1365 H1360 0.950 . S
C1365 C1367 1.327 . S
C1365 C1371 1.429 . S
C1366 C1358 1.574 . S
C1366 H1361 0.949 . S
C1366 C1372 1.368 . S
C1367 C1351 1.349 . S
C1367 H1359 0.950 . S
C1367 C1365 1.327 . S
C1368 C1356 1.349 . S
C1368 H1362 0.950 . S
C1368 C1369 1.327 . S
C1369 H1363 0.950 . S
C1369 C1368 1.327 . S
C1369 C1373 1.429 . S
C1370 C1353 1.574 . S
C1370 H1364 0.949 . S
C1370 C1374 1.368 . S
C1371 C1352 1.429 . S
C1371 C1365 1.429 . S
C1371 C1372 1.523 . S
C1372 C1353 1.368 . S
C1372 C1366 1.368 . S
C1372 C1371 1.523 . S
C1373 C1357 1.429 . S
C1373 C1369 1.429 . S
C1373 C1374 1.523 . S
C1374 C1358 1.368 . S
C1374 C1370 1.368 . S
C1374 C1373 1.523 . S
H1375 C1350 0.950 . S
H1376 C1352 0.950 . S
H1377 C1353 0.949 . S
H1378 C1355 0.950 . S
H1379 C1357 0.950 . S
C1380 C1381 1.349 . S
C1380 C1382 1.327 . S
C1380 H1405 0.950 . S
C1381 C1380 1.349 . S
C1381 C1397 1.349 . S
C1382 C1380 1.327 . S
C1382 C1401 1.429 . S
C1382 H1406 0.950 . S
C1383 C1400 1.574 . S
C1383 C1402 1.368 . S
C1383 H1407 0.949 . S
H1384 C1388 0.949 . S
C1385 C1386 1.349 . S
C1385 C1387 1.327 . S
C1385 H1408 0.950 . S
C1386 C1385 1.349 . S
C1386 C1398 1.349 . S
C1387 C1385 1.327 . S
C1387 C1403 1.429 . S
C1387 H1409 0.950 . S
C1388 H1384 0.949 . S
C1388 C1396 1.574 . S
C1388 C1404 1.368 . S
H1389 C1397 0.950 . S
H1390 C1395 0.950 . S
H1391 C1396 0.949 . S
H1392 C1398 0.950 . S
H1393 C1399 0.950 . S
H1394 C1400 0.949 . S
C1395 H1390 0.950 . S
C1395 C1397 1.327 . S
C1395 C1401 1.429 . S
C1396 C1388 1.574 . S
C1396 H1391 0.949 . S
C1396 C1402 1.368 . S
C1397 C1381 1.349 . S
C1397 H1389 0.950 . S
C1397 C1395 1.327 . S
C1398 C1386 1.349 . S
C1398 H1392 0.950 . S
C1398 C1399 1.327 . S
C1399 H1393 0.950 . S
C1399 C1398 1.327 . S
C1399 C1403 1.429 . S
C1400 C1383 1.574 . S
C1400 H1394 0.949 . S
C1400 C1404 1.368 . S
C1401 C1382 1.429 . S
C1401 C1395 1.429 . S
C1401 C1402 1.523 . S
C1402 C1383 1.368 . S
C1402 C1396 1.368 . S
C1402 C1401 1.523 . S
C1403 C1387 1.429 . S
C1403 C1399 1.429 . S
C1403 C1404 1.523 . S
C1404 C1388 1.368 . S
C1404 C1400 1.368 . S
C1404 C1403 1.523 . S
H1405 C1380 0.950 . S
H1406 C1382 0.950 . S
H1407 C1383 0.949 . S
H1408 C1385 0.950 . S
H1409 C1387 0.950 . S
C1410 C1411 1.349 . S
C1410 C1412 1.327 . S
C1410 H1435 0.950 . S
C1411 C1410 1.349 . S
C1411 C1427 1.349 . S
C1412 C1410 1.327 . S
C1412 C1431 1.429 . S
C1412 H1436 0.950 . S
C1413 C1430 1.574 . S
C1413 C1432 1.368 . S
C1413 H1437 0.949 . S
H1414 C1418 0.949 . S
C1415 C1416 1.349 . S
C1415 C1417 1.327 . S
C1415 H1438 0.950 . S
C1416 C1415 1.349 . S
C1416 C1428 1.349 . S
C1417 C1415 1.327 . S
C1417 C1433 1.429 . S
C1417 H1439 0.950 . S
C1418 H1414 0.949 . S
C1418 C1426 1.574 . S
C1418 C1434 1.368 . S
H1419 C1427 0.950 . S
H1420 C1425 0.950 . S
H1421 C1426 0.949 . S
H1422 C1428 0.950 . S
H1423 C1429 0.950 . S
H1424 C1430 0.949 . S
C1425 H1420 0.950 . S
C1425 C1427 1.327 . S
C1425 C1431 1.429 . S
C1426 C1418 1.574 . S
C1426 H1421 0.949 . S
C1426 C1432 1.368 . S
C1427 C1411 1.349 . S
C1427 H1419 0.950 . S
C1427 C1425 1.327 . S
C1428 C1416 1.349 . S
C1428 H1422 0.950 . S
C1428 C1429 1.327 . S
C1429 H1423 0.950 . S
C1429 C1428 1.327 . S
C1429 C1433 1.429 . S
C1430 C1413 1.574 . S
C1430 H1424 0.949 . S
C1430 C1434 1.368 . S
C1431 C1412 1.429 . S
C1431 C1425 1.429 . S
C1431 C1432 1.523 . S
C1432 C1413 1.368 . S
C1432 C1426 1.368 . S
C1432 C1431 1.523 . S
C1433 C1417 1.429 . S
C1433 C1429 1.429 . S
C1433 C1434 1.523 . S
C1434 C1418 1.368 . S
C1434 C1430 1.368 . S
C1434 C1433 1.523 . S
H1435 C1410 0.950 . S
H1436 C1412 0.950 . S
H1437 C1413 0.949 . S
H1438 C1415 0.950 . S
H1439 C1417 0.950 . S
C1440 C1441 1.349 . S
C1440 C1442 1.327 . S
C1440 H1465 0.950 . S
C1441 C1440 1.349 . S
C1441 C1457 1.349 . S
C1442 C1440 1.327 . S
C1442 C1461 1.429 . S
C1442 H1466 0.950 . S
C1443 C1460 1.574 . S
C1443 C1462 1.368 . S
C1443 H1467 0.949 . S
H1444 C1448 0.949 . S
C1445 C1446 1.349 . S
C1445 C1447 1.327 . S
C1445 H1468 0.950 . S
C1446 C1445 1.349 . S
C1446 C1458 1.349 . S
C1447 C1445 1.327 . S
C1447 C1463 1.429 . S
C1447 H1469 0.950 . S
C1448 H1444 0.949 . S
C1448 C1456 1.574 . S
C1448 C1464 1.368 . S
H1449 C1457 0.950 . S
H1450 C1455 0.950 . S
H1451 C1456 0.949 . S
H1452 C1458 0.950 . S
H1453 C1459 0.950 . S
H1454 C1460 0.949 . S
C1455 H1450 0.950 . S
C1455 C1457 1.327 . S
C1455 C1461 1.429 . S
C1456 C1448 1.574 . S
C1456 H1451 0.949 . S
C1456 C1462 1.368 . S
C1457 C1441 1.349 . S
C1457 H1449 0.950 . S
C1457 C1455 1.327 . S
C1458 C1446 1.349 . S
C1458 H1452 0.950 . S
C1458 C1459 1.327 . S
C1459 H1453 0.950 . S
C1459 C1458 1.327 . S
C1459 C1463 1.429 . S
C1460 C1443 1.574 . S
C1460 H1454 0.949 . S
C1460 C1464 1.368 . S
C1461 C1442 1.429 . S
C1461 C1455 1.429 . S
C1461 C1462 1.523 . S
C1462 C1443 1.368 . S
C1462 C1456 1.368 . S
C1462 C1461 1.523 . S
C1463 C1447 1.429 . S
C1463 C1459 1.429 . S
C1463 C1464 1.523 . S
C1464 C1448 1.368 . S
C1464 C1460 1.368 . S
C1464 C1463 1.523 . S
H1465 C1440 0.950 . S
H1466 C1442 0.950 . S
H1467 C1443 0.949 . S
H1468 C1445 0.950 . S
H1469 C1447 0.950 . S
C1470 C1471 1.349 . S
C1470 C1472 1.327 . S
C1470 H1495 0.950 . S
C1471 C1470 1.349 . S
C1471 C1487 1.349 . S
C1472 C1470 1.327 . S
C1472 C1491 1.429 . S
C1472 H1496 0.950 . S
C1473 C1490 1.574 . S
C1473 C1492 1.368 . S
C1473 H1497 0.949 . S
H1474 C1478 0.949 . S
C1475 C1476 1.349 . S
C1475 C1477 1.327 . S
C1475 H1498 0.950 . S
C1476 C1475 1.349 . S
C1476 C1488 1.349 . S
C1477 C1475 1.327 . S
C1477 C1493 1.429 . S
C1477 H1499 0.950 . S
C1478 H1474 0.949 . S
C1478 C1486 1.574 . S
C1478 C1494 1.368 . S
H1479 C1487 0.950 . S
H1480 C1485 0.950 . S
H1481 C1486 0.949 . S
H1482 C1488 0.950 . S
H1483 C1489 0.950 . S
H1484 C1490 0.949 . S
C1485 H1480 0.950 . S
C1485 C1487 1.327 . S
C1485 C1491 1.429 . S
C1486 C1478 1.574 . S
C1486 H1481 0.949 . S
C1486 C1492 1.368 . S
C1487 C1471 1.349 . S
C1487 H1479 0.950 . S
C1487 C1485 1.327 . S
C1488 C1476 1.349 . S
C1488 H1482 0.950 . S
C1488 C1489 1.327 . S
C1489 H1483 0.950 . S
C1489 C1488 1.327 . S
C1489 C1493 1.429 . S
C1490 C1473 1.574 . S
C1490 H1484 0.949 . S
C1490 C1494 1.368 . S
C1491 C1472 1.429 . S
C1491 C1485 1.429 . S
C1491 C1492 1.523 . S
C1492 C1473 1.368 . S
C1492 C1486 1.368 . S
C1492 C1491 1.523 . S
C1493 C1477 1.429 . S
C1493 C1489 1.429 . S
C1493 C1494 1.523 . S
C1494 C1478 1.368 . S
C1494 C1490 1.368 . S
C1494 C1493 1.523 . S
H1495 C1470 0.950 . S
H1496 C1472 0.950 . S
H1497 C1473 0.949 . S
H1498 C1475 0.950 . S
H1499 C1477 0.950 . S
C1500 C1501 1.349 . S
C1500 C1502 1.327 . S
C1500 H1525 0.950 . S
C1501 C1500 1.349 . S
C1501 C1517 1.349 . S
C1502 C1500 1.327 . S
C1502 C1521 1.429 . S
C1502 H1526 0.950 . S
C1503 C1520 1.574 . S
C1503 C1522 1.368 . S
C1503 H1527 0.949 . S
H1504 C1508 0.949 . S
C1505 C1506 1.349 . S
C1505 C1507 1.327 . S
C1505 H1528 0.950 . S
C1506 C1505 1.349 . S
C1506 C1518 1.349 . S
C1507 C1505 1.327 . S
C1507 C1523 1.429 . S
C1507 H1529 0.950 . S
C1508 H1504 0.949 . S
C1508 C1516 1.574 . S
C1508 C1524 1.368 . S
H1509 C1517 0.950 . S
H1510 C1515 0.950 . S
H1511 C1516 0.949 . S
H1512 C1518 0.950 . S
H1513 C1519 0.950 . S
H1514 C1520 0.949 . S
C1515 H1510 0.950 . S
C1515 C1517 1.327 . S
C1515 C1521 1.429 . S
C1516 C1508 1.574 . S
C1516 H1511 0.949 . S
C1516 C1522 1.368 . S
C1517 C1501 1.349 . S
C1517 H1509 0.950 . S
C1517 C1515 1.327 . S
C1518 C1506 1.349 . S
C1518 H1512 0.950 . S
C1518 C1519 1.327 . S
C1519 H1513 0.950 . S
C1519 C1518 1.327 . S
C1519 C1523 1.429 . S
C1520 C1503 1.574 . S
C1520 H1514 0.949 . S
C1520 C1524 1.368 . S
C1521 C1502 1.429 . S
C1521 C1515 1.429 . S
C1521 C1522 1.523 . S
C1522 C1503 1.368 . S
C1522 C1516 1.368 . S
C1522 C1521 1.523 . S
C1523 C1507 1.429 . S
C1523 C1519 1.429 . S
C1523 C1524 1.523 . S
C1524 C1508 1.368 . S
C1524 C1520 1.368 . S
C1524 C1523 1.523 . S
H1525 C1500 0.950 . S
H1526 C1502 0.950 . S
H1527 C1503 0.949 . S
H1528 C1505 0.950 . S
H1529 C1507 0.950 . S
C1530 C1531 1.349 . S
C1530 C1532 1.327 . S
C1530 H1555 0.950 . S
C1531 C1530 1.349 . S
C1531 C1547 1.349 . S
C1532 C1530 1.327 . S
C1532 C1551 1.429 . S
C1532 H1556 0.950 . S
C1533 C1550 1.574 . S
C1533 C1552 1.368 . S
C1533 H1557 0.949 . S
H1534 C1538 0.949 . S
C1535 C1536 1.349 . S
C1535 C1537 1.327 . S
C1535 H1558 0.950 . S
C1536 C1535 1.349 . S
C1536 C1548 1.349 . S
C1537 C1535 1.327 . S
C1537 C1553 1.429 . S
C1537 H1559 0.950 . S
C1538 H1534 0.949 . S
C1538 C1546 1.574 . S
C1538 C1554 1.368 . S
H1539 C1547 0.950 . S
H1540 C1545 0.950 . S
H1541 C1546 0.949 . S
H1542 C1548 0.950 . S
H1543 C1549 0.950 . S
H1544 C1550 0.949 . S
C1545 H1540 0.950 . S
C1545 C1547 1.327 . S
C1545 C1551 1.429 . S
C1546 C1538 1.574 . S
C1546 H1541 0.949 . S
C1546 C1552 1.368 . S
C1547 C1531 1.349 . S
C1547 H1539 0.950 . S
C1547 C1545 1.327 . S
C1548 C1536 1.349 . S
C1548 H1542 0.950 . S
C1548 C1549 1.327 . S
C1549 H1543 0.950 . S
C1549 C1548 1.327 . S
C1549 C1553 1.429 . S
C1550 C1533 1.574 . S
C1550 H1544 0.949 . S
C1550 C1554 1.368 . S
C1551 C1532 1.429 . S
C1551 C1545 1.429 . S
C1551 C1552 1.523 . S
C1552 C1533 1.368 . S
C1552 C1546 1.368 . S
C1552 C1551 1.523 . S
C1553 C1537 1.429 . S
C1553 C1549 1.429 . S
C1553 C1554 1.523 . S
C1554 C1538 1.368 . S
C1554 C1550 1.368 . S
C1554 C1553 1.523 . S
H1555 C1530 0.950 . S
H1556 C1532 0.950 . S
H1557 C1533 0.949 . S
H1558 C1535 0.950 . S
H1559 C1537 0.950 . S
C481 C231 2.008 . S
C486 C29 2.005 . S
C511 C69 2.028 . S
C516 C31 2.031 . S
C541 C109 2.124 . S
C546 C71 2.132 . S
C571 C111 2.009 . S
C576 C149 2.006 . S
C601 C151 2.033 . S
C606 C189 2.027 . S
C631 C229 2.124 . S
C636 C191 2.132 . S
C661 C311 2.008 . S
C666 C269 2.005 . S
C691 C309 2.125 . S
C696 C351 2.133 . S
C721 C391 2.033 . S
C726 C349 2.027 . S
C751 C431 2.008 . S
C756 C389 2.005 . S
C781 C471 2.130 . S
C786 C429 2.127 . S
C811 C271 2.033 . S
C816 C469 2.026 . S
C841 C442 2.987 . S
C846 C12 3.049 . S
C871 C52 2.437 . S
C876 C242 2.386 . S
C901 C282 2.677 . S
C906 C92 2.731 . S
C931 C322 2.989 . S
C936 C132 3.050 . S
C961 C362 2.390 . S
C966 C172 2.435 . S
C991 C212 2.733 . S
C996 C402 2.675 . S
C1021 C252 3.046 . S
C1026 C42 2.991 . S
C1051 C292 2.733 . S
C1056 C82 2.675 . S
C1081 C122 2.389 . S
C1086 C332 2.434 . S
C1111 C162 2.987 . S
C1116 C372 3.049 . S
C1141 C412 2.732 . S
C1146 C202 2.675 . S
C1171 C452 2.438 . S
C1176 C2 2.386 . S
C1201 C257 2.330 . S
C1206 C17 2.333 . S
C1231 C57 1.441 . S
C1236 C297 1.449 . S
C1261 C337 1.441 . S
C1266 C97 1.449 . S
C1291 C137 2.331 . S
C1296 C377 2.334 . S
C1321 C417 1.446 . S
C1326 C177 1.444 . S
C1351 C457 1.441 . S
C1356 C217 1.449 . S
C1381 C248 0.940 . S
C1386 C8 0.944 . S
C1411 C288 0.557 . S
C1416 C48 0.571 . S
C1441 C328 0.569 . S
C1446 C88 0.559 . S
C1471 C128 0.940 . S
C1476 C368 0.944 . S
C1501 C408 0.557 . S
C1506 C168 0.571 . S
C1531 C448 0.569 . S
C1536 C208 0.559 . S
