# Generated by pormake.
# Topology uni, (4)-cn, num edge types: 1
# Building blocks:
#     Node 0, Type 0, BuildingBlock: ICAMEG_clean_sbu_1, # of connection points: 4
#     Node 1, Type 0, BuildingBlock: ICAMEG_clean_sbu_1, # of connection points: 4
#     Node 2, Type 0, BuildingBlock: ICAMEG_clean_sbu_1, # of connection points: 4
#     Node 3, Type 0, BuildingBlock: ICAMEG_clean_sbu_1, # of connection points: 4
#     Node 4, Type 0, BuildingBlock: ICAMEG_clean_sbu_1, # of connection points: 4
#     Node 5, Type 0, BuildingBlock: ICAMEG_clean_sbu_1, # of connection points: 4
#     Edge 6, Type (0, 0), BuildingBlock: ZUJKAS_clean_linker_0, # of connection points: 2
#     Edge 7, Type (0, 0), BuildingBlock: ZUJKAS_clean_linker_0, # of connection points: 2
#     Edge 8, Type (0, 0), BuildingBlock: ZUJKAS_clean_linker_0, # of connection points: 2
#     Edge 9, Type (0, 0), BuildingBlock: ZUJKAS_clean_linker_0, # of connection points: 2
#     Edge 10, Type (0, 0), BuildingBlock: ZUJKAS_clean_linker_0, # of connection points: 2
#     Edge 11, Type (0, 0), BuildingBlock: ZUJKAS_clean_linker_0, # of connection points: 2
#     Edge 12, Type (0, 0), BuildingBlock: ZUJKAS_clean_linker_0, # of connection points: 2
#     Edge 13, Type (0, 0), BuildingBlock: ZUJKAS_clean_linker_0, # of connection points: 2
#     Edge 14, Type (0, 0), BuildingBlock: ZUJKAS_clean_linker_0, # of connection points: 2
#     Edge 15, Type (0, 0), BuildingBlock: ZUJKAS_clean_linker_0, # of connection points: 2
#     Edge 16, Type (0, 0), BuildingBlock: ZUJKAS_clean_linker_0, # of connection points: 2
#     Edge 17, Type (0, 0), BuildingBlock: ZUJKAS_clean_linker_0, # of connection points: 2
# Relax obj value: 0.140
# Max RMSD: 0.183
# Mean RMSD: 0.183
data_MOF--net-uni--node1-ICAMEG_clean_sbu_1--edge1-ZUJKAS_clean_linker_0
_symmetry_space_group_name_H-M    P1
_symmetry_Int_Tables_number       1
_symmetry_cell_setting            triclinic
loop_
_symmetry_equiv_pos_as_xyz
'x, y, z'
_cell_length_a     52.067275
_cell_length_b     52.079416
_cell_length_c     31.919312
_cell_angle_alpha  90.003788
_cell_angle_beta   90.044437
_cell_angle_gamma 119.98771
loop_
_atom_site_label
_atom_site_type_symbol
_atom_site_fract_x
_atom_site_fract_y
_atom_site_fract_z
_atom_type_partial_charge
Co0 Co 0.64629 0.03012 0.03591 0.0
Co1 Co 0.70117 0.07691 0.10278 0.0
O2 O 0.68105 0.06874 0.0484 0.0
C3 C 0.60375 0.04612 0.99915 0.0
O4 O 0.58539 0.03026 0.02917 0.0
C5 C 0.75229 0.10067 0.04218 0.0
O6 O 0.73843 0.07627 0.01989 0.0
O7 O 0.7068 0.0419 0.09575 0.0
O8 O 0.66192 0.00882 0.07094 0.0
H9 H 0.72234 0.04952 0.2444 0.0
H10 H 0.68079 0.07025 0.96637 0.0
O11 O 0.63016 0.05045 0.99914 0.0
H12 H 0.6844 0.97861 0.94209 0.0
H13 H 0.56776 0.95225 0.94247 0.0
H14 H 0.60613 0.97771 0.08683 0.0
H15 H 0.65692 0.98257 1.0022 0.0
H16 H 0.61195 1.00055 0.95806 0.0
O17 O 0.74041 0.10364 0.07532 0.0
H18 H 0.69674 0.04016 0.17633 0.0
H19 H 0.74956 0.1311 0.14401 0.0
H20 H 0.56193 0.92913 0.0726 0.0
H21 H 0.70818 0.06708 0.90546 0.0
H22 H 0.54245 0.91614 0.99998 0.0
H23 H 0.71019 0.02103 0.89308 0.0
O24 O 0.62553 0.03421 0.08619 0.0
H25 H 0.70212 0.16924 0.05469 0.0
H26 H 0.67952 0.09976 0.17223 0.0
H27 H 0.67111 0.14205 0.18038 0.0
H28 H 0.68255 0.17723 0.12137 0.0
H29 H 0.70988 0.12642 0.04773 0.0
H30 H 0.7759 0.14139 0.21157 0.0
H31 H 0.76224 0.10045 0.2624 0.0
O32 O 0.66272 0.05151 0.1327 0.0
C33 C 0.68681 0.01526 0.08747 0.0
C34 C 0.72845 0.06756 0.22255 0.0
C35 C 0.75854 0.11911 0.2041 0.0
N36 N 0.72155 0.08507 0.15627 0.0
C37 C 0.714 0.06241 0.18398 0.0
C38 C 0.74361 0.11312 0.16582 0.0
C39 C 0.75085 0.09613 0.23262 0.0
C40 C 0.68131 0.05003 0.96098 0.0
N41 N 0.66716 0.0266 0.98779 0.0
C42 C 0.69696 0.04841 0.92653 0.0
C43 C 0.69813 0.02259 0.91964 0.0
C44 C 0.68369 0.9988 0.94715 0.0
C45 C 0.66827 1.00122 0.98127 0.0
C46 C 0.57605 0.95764 0.97424 0.0
C47 C 0.59781 0.97221 0.05514 0.0
C48 C 0.60105 0.98496 0.98327 0.0
N49 N 0.61163 0.99196 0.02336 0.0
C50 C 0.57277 0.94467 0.04728 0.0
C51 C 0.56185 0.9374 0.00652 0.0
C52 C 0.63526 0.04018 0.12378 0.0
C53 C 0.69709 0.15409 0.08064 0.0
C54 C 0.68435 0.11482 0.14631 0.0
C55 C 0.67965 0.13881 0.15116 0.0
C56 C 0.68609 0.15855 0.11805 0.0
N57 N 0.69523 0.11063 0.10955 0.0
C58 C 0.70151 0.12984 0.07692 0.0
Co59 Co 0.6625 0.64849 0.20571 0.0
Co60 Co 0.67349 0.7044 0.27211 0.0
O61 O 0.66034 0.68427 0.21786 0.0
C62 C 0.60343 0.60797 0.168 0.0
O63 O 0.59969 0.58889 0.19762 0.0
C64 C 0.69866 0.75449 0.2097 0.0
O65 O 0.70551 0.73894 0.18445 0.0
O66 O 0.71343 0.70882 0.2633 0.0
O67 O 0.69936 0.66285 0.24092 0.0
H68 H 0.72435 0.72463 0.412 0.0
H69 H 0.65868 0.68353 0.13527 0.0
O70 O 0.62632 0.63385 0.16869 0.0
H71 H 0.75169 0.68233 0.1121 0.0
H72 H 0.65822 0.56783 0.11326 0.0
H73 H 0.67239 0.60699 0.25725 0.0
H74 H 0.71979 0.65637 0.17254 0.0
H75 H 0.65624 0.61325 0.12823 0.0
O76 O 0.68661 0.74391 0.24499 0.0
H77 H 0.70649 0.69908 0.3442 0.0
H78 H 0.66984 0.75366 0.31442 0.0
H79 H 0.67462 0.56152 0.24364 0.0
H80 H 0.68965 0.70933 0.07393 0.0
H81 H 0.66749 0.54165 0.17121 0.0
H82 H 0.7366 0.70894 0.06212 0.0
O83 O 0.63708 0.62869 0.25598 0.0
H84 H 0.58257 0.70778 0.228 0.0
H85 H 0.63026 0.68376 0.34307 0.0
H86 H 0.58016 0.67656 0.35324 0.0
H87 H 0.55602 0.68873 0.29549 0.0
H88 H 0.63254 0.71428 0.219 0.0
H89 H 0.68752 0.77996 0.38176 0.0
H90 H 0.71489 0.7654 0.43117 0.0
O91 O 0.66004 0.66581 0.30196 0.0
C92 C 0.7189 0.68792 0.25582 0.0
C93 C 0.7124 0.73114 0.39078 0.0
C94 C 0.69176 0.76222 0.37378 0.0
N95 N 0.68702 0.72476 0.32543 0.0
C96 C 0.70218 0.71672 0.35236 0.0
C97 C 0.68188 0.7473 0.33563 0.0
C98 C 0.7071 0.75403 0.40149 0.0
C99 C 0.67891 0.68297 0.13013 0.0
N100 N 0.68736 0.6684 0.15752 0.0
C101 C 0.69643 0.69775 0.09543 0.0
C102 C 0.7228 0.69757 0.08886 0.0
C103 C 0.73129 0.68268 0.11692 0.0
C104 C 0.71321 0.66816 0.15127 0.0
C105 C 0.66136 0.57627 0.14496 0.0
C106 C 0.66927 0.59848 0.22565 0.0
C107 C 0.66025 0.60198 0.15364 0.0
N108 N 0.66418 0.61277 0.19363 0.0
C109 C 0.67056 0.57273 0.21813 0.0
C110 C 0.66656 0.56159 0.17748 0.0
C111 C 0.64205 0.63861 0.2935 0.0
C112 C 0.59288 0.70246 0.25343 0.0
C113 C 0.61986 0.68894 0.3177 0.0
C114 C 0.59151 0.68491 0.32369 0.0
C115 C 0.57798 0.69174 0.29129 0.0
N116 N 0.63437 0.69953 0.2805 0.0
C117 C 0.6212 0.70617 0.24855 0.0
Co118 Co 0.06563 0.66717 0.37181 0.0
Co119 Co 0.01853 0.67567 0.43698 0.0
O120 O 0.02681 0.66331 0.38295 0.0
C121 C 0.04996 0.60881 0.33449 0.0
O122 O 0.06551 0.60604 0.36477 0.0
C123 C 0.99239 0.69921 0.37382 0.0
O124 O 0.01494 0.70658 0.34866 0.0
O125 O 0.05305 0.71628 0.42867 0.0
O126 O 0.08654 0.70402 0.40745 0.0
H127 H 0.04619 0.72636 0.57716 0.0
H128 H 0.02712 0.66193 0.30005 0.0
O129 O 0.04574 0.63096 0.3345 0.0
H130 H 0.11926 0.75737 0.27958 0.0
H131 H 0.14492 0.66672 0.28151 0.0
H132 H 0.1171 0.6789 0.42471 0.0
H133 H 0.11383 0.72566 0.34007 0.0
H134 H 0.09644 0.66271 0.29519 0.0
O135 O 0.99125 0.68742 0.40923 0.0
H136 H 0.05551 0.70947 0.50967 0.0
H137 H 0.96421 0.66952 0.47814 0.0
H138 H 0.16584 0.68316 0.41239 0.0
H139 H 0.03183 0.69272 0.23867 0.0
H140 H 0.18001 0.67704 0.34037 0.0
H141 H 0.07812 0.74089 0.22821 0.0
O142 O 0.06043 0.6419 0.42201 0.0
H143 H 0.92662 0.58287 0.39144 0.0
H144 H 0.99688 0.63216 0.50763 0.0
H145 H 0.95512 0.58132 0.51721 0.0
H146 H 0.91955 0.55637 0.4589 0.0
H147 H 0.96891 0.63361 0.38305 0.0
H148 H 0.95395 0.68619 0.54515 0.0
H149 H 0.99509 0.71473 0.59528 0.0
O150 O 0.04458 0.66361 0.46755 0.0
C151 C 0.07984 0.72282 0.42198 0.0
C152 C 0.02806 0.71388 0.55562 0.0
C153 C 0.97631 0.69138 0.53763 0.0
N154 N 0.01043 0.6884 0.49005 0.0
C155 C 0.0332 0.70421 0.51738 0.0
C156 C 0.98227 0.68207 0.49967 0.0
C157 C 0.9994 0.70737 0.56575 0.0
C158 C 0.04747 0.6827 0.29549 0.0
N159 N 0.07018 0.69191 0.32363 0.0
C160 C 0.04995 0.70011 0.26077 0.0
C161 C 0.0759 0.72716 0.25496 0.0
C162 C 0.09897 0.73643 0.2838 0.0
C163 C 0.0957 0.71844 0.31815 0.0
C164 C 0.139 0.66945 0.31304 0.0
C165 C 0.12311 0.67622 0.39327 0.0
C166 C 0.11158 0.66719 0.32099 0.0
N167 N 0.10392 0.67055 0.36075 0.0
C168 C 0.15074 0.67866 0.38649 0.0
C169 C 0.15868 0.67523 0.34607 0.0
C170 C 0.0549 0.6465 0.45938 0.0
C171 C 0.94193 0.59354 0.41711 0.0
C172 C 0.9816 0.62142 0.48202 0.0
C173 C 0.95794 0.59265 0.48768 0.0
C174 C 0.93799 0.57867 0.45496 0.0
N175 N 0.98526 0.6359 0.44485 0.0
C176 C 0.96586 0.62229 0.41258 0.0
Co177 Co 0.45435 0.07678 0.53668 0.0
Co178 Co 0.39375 0.0216 0.5858 0.0
O179 O 0.41851 0.03753 0.53569 0.0
C180 C 0.47251 0.03848 0.48876 0.0
O181 O 0.45642 0.01608 0.51372 0.0
C182 C 0.33274 0.99846 0.55223 0.0
O183 O 0.32968 0.01568 0.57943 0.0
O184 O 0.38849 0.05711 0.58726 0.0
O185 O 0.43572 0.09229 0.57713 0.0
H186 H 0.35891 0.02847 0.72992 0.0
H187 H 0.42552 0.04954 0.4559 0.0
O188 O 0.47429 0.06348 0.49491 0.0
H189 H 0.42763 0.14521 0.46116 0.0
H190 H 0.5428 0.16552 0.47334 0.0
H191 H 0.48886 0.11947 0.60399 0.0
H192 H 0.44865 0.13009 0.51891 0.0
H193 H 0.49697 0.11682 0.47186 0.0
O194 O 0.35779 0.99975 0.54855 0.0
H195 H 0.39009 0.04737 0.66672 0.0
H196 H 0.34379 0.96196 0.6109 0.0
H197 H 0.53448 0.16831 0.60684 0.0
H198 H 0.40454 0.06395 0.39719 0.0
H199 H 0.56178 0.19166 0.54118 0.0
H200 H 0.40547 0.11208 0.39964 0.0
O201 O 0.47017 0.06396 0.58438 0.0
H202 H 0.3961 0.93653 0.51519 0.0
H203 H 0.41108 0.99016 0.64841 0.0
H204 H 0.41904 0.94737 0.64575 0.0
H205 H 0.4114 0.92012 0.57883 0.0
H206 H 0.38894 0.97982 0.51903 0.0
H207 H 0.31208 0.94216 0.67346 0.0
H208 H 0.31956 0.97551 0.73356 0.0
O209 O 0.42921 0.04224 0.62402 0.0
C210 C 0.40912 0.08422 0.58787 0.0
C211 C 0.35544 0.01372 0.70394 0.0
C212 C 0.32916 0.96528 0.67226 0.0
N213 N 0.3688 0.00582 0.63514 0.0
C214 C 0.37302 0.02429 0.66807 0.0
C215 C 0.34719 0.97662 0.63692 0.0
C216 C 0.33337 0.984 0.70597 0.0
C217 C 0.42619 0.0706 0.45706 0.0
N218 N 0.43844 0.089 0.49071 0.0
C219 C 0.4142 0.07861 0.42378 0.0
C220 C 0.4147 0.1056 0.42519 0.0
C221 C 0.42712 0.12419 0.4597 0.0
C222 C 0.43892 0.11547 0.49238 0.0
C223 C 0.53109 0.15558 0.50217 0.0
C224 C 0.50055 0.12952 0.57526 0.0
C225 C 0.50517 0.12795 0.50155 0.0
N226 N 0.49016 0.11534 0.5378 0.0
C227 C 0.5264 0.15716 0.57708 0.0
C228 C 0.54172 0.17024 0.54023 0.0
C229 C 0.45725 0.05374 0.61947 0.0
C230 C 0.39943 0.94817 0.54457 0.0
C231 C 0.40801 0.97866 0.61904 0.0
C232 C 0.4124 0.95432 0.61779 0.0
C233 C 0.40807 0.93901 0.58026 0.0
N234 N 0.39952 0.98752 0.5839 0.0
C235 C 0.39525 0.97261 0.54699 0.0
Co236 Co 0.42655 0.44681 0.70679 0.0
Co237 Co 0.41885 0.39183 0.77244 0.0
O238 O 0.43045 0.41198 0.71819 0.0
C239 C 0.48461 0.48873 0.66785 0.0
O240 O 0.48808 0.50746 0.69787 0.0
C241 C 0.39145 0.34059 0.71198 0.0
O242 O 0.3796 0.3537 0.6908 0.0
O243 O 0.3781 0.38587 0.76536 0.0
O244 O 0.39024 0.4314 0.74325 0.0
H245 H 0.37031 0.36985 0.91402 0.0
H246 H 0.43032 0.41187 0.63623 0.0
O247 O 0.46221 0.46252 0.66856 0.0
H248 H 0.33521 0.4095 0.61656 0.0
H249 H 0.42622 0.52569 0.61541 0.0
H250 H 0.41561 0.48722 0.75932 0.0
H251 H 0.36797 0.43681 0.67576 0.0
H252 H 0.43025 0.4813 0.62967 0.0
O253 O 0.40688 0.35284 0.74458 0.0
H254 H 0.3863 0.39566 0.84614 0.0
H255 H 0.42522 0.34365 0.81316 0.0
H256 H 0.41134 0.53164 0.74644 0.0
H257 H 0.3984 0.38461 0.57624 0.0
H258 H 0.41668 0.55117 0.67405 0.0
H259 H 0.35042 0.38323 0.56617 0.0
O260 O 0.45243 0.46738 0.75644 0.0
H261 H 0.51091 0.39225 0.72431 0.0
H262 H 0.4633 0.41381 0.842 0.0
H263 H 0.51424 0.42284 0.85019 0.0
H264 H 0.53835 0.41193 0.79112 0.0
H265 H 0.46009 0.38386 0.7173 0.0
H266 H 0.40944 0.31712 0.88055 0.0
H267 H 0.38187 0.33026 0.93161 0.0
O268 O 0.43148 0.43015 0.80265 0.0
C269 C 0.37158 0.40613 0.75855 0.0
C270 C 0.38236 0.36397 0.89208 0.0
C271 C 0.40429 0.33435 0.87327 0.0
N272 N 0.40681 0.37129 0.82578 0.0
C273 C 0.39152 0.37855 0.85361 0.0
C274 C 0.41309 0.34939 0.83509 0.0
C275 C 0.38884 0.34174 0.90191 0.0
C276 C 0.40961 0.41163 0.63184 0.0
N277 N 0.40113 0.42607 0.6594 0.0
C278 C 0.39157 0.39604 0.59791 0.0
C279 C 0.36463 0.39524 0.59231 0.0
C280 C 0.35608 0.40995 0.62059 0.0
C281 C 0.37468 0.4253 0.65417 0.0
C282 C 0.42385 0.5174 0.64709 0.0
C283 C 0.41794 0.49558 0.72773 0.0
C284 C 0.42612 0.49228 0.65537 0.0
N285 N 0.42317 0.48167 0.69532 0.0
C286 C 0.4155 0.52073 0.72063 0.0
C287 C 0.4185 0.53168 0.68001 0.0
C288 C 0.44836 0.45754 0.79399 0.0
C289 C 0.50062 0.39704 0.7503 0.0
C290 C 0.47368 0.40917 0.81605 0.0
C291 C 0.50251 0.41424 0.82093 0.0
C292 C 0.51602 0.4081 0.78778 0.0
N293 N 0.45869 0.39824 0.77922 0.0
C294 C 0.47183 0.39227 0.74655 0.0
Co295 Co 0.01627 0.42574 0.87382 0.0
Co296 Co 0.0725 0.42194 0.92192 0.0
O297 O 0.05562 0.42956 0.87187 0.0
C298 C 0.05199 0.48276 0.82601 0.0
O299 O 0.07277 0.4925 0.85484 0.0
C300 C 0.09615 0.38437 0.889 0.0
O301 O 0.07939 0.36435 0.91677 0.0
O302 O 0.03734 0.38093 0.92465 0.0
O303 O 1.0019 0.39283 0.91614 0.0
H304 H 0.06826 0.38279 0.06713 0.0
H305 H 0.04186 0.42202 0.79267 0.0
O306 O 0.02868 0.45754 0.8301 0.0
H307 H 0.9467 0.32835 0.80426 0.0
H308 H 0.92606 0.42337 0.81191 0.0
H309 H 0.97475 0.41894 0.94209 0.0
H310 H 0.96281 0.36617 0.85982 0.0
H311 H 0.97489 0.42653 0.80958 0.0
O312 O 0.09439 0.40785 0.88477 0.0
H313 H 0.04811 0.39358 0.00384 0.0
H314 H 0.13284 0.43301 0.94603 0.0
H315 H 0.92582 0.41547 0.94582 0.0
H316 H 0.02642 0.38492 0.73608 0.0
H317 H 0.90113 0.41767 0.88039 0.0
H318 H 0.97855 0.33766 0.74172 0.0
O319 O 0.02987 0.4556 0.92007 0.0
H320 H 0.1544 0.50957 0.84732 0.0
H321 H 0.10463 0.47158 0.98311 0.0
H322 H 0.14644 0.52279 0.97837 0.0
H323 H 0.17172 0.54208 0.91013 0.0
H324 H 0.11221 0.4586 0.85333 0.0
H325 H 0.15389 0.42259 0.00865 0.0
H326 H 0.12151 0.39733 0.06979 0.0
O327 O 0.05195 0.43688 0.96005 0.0
C328 C 0.0102 0.37434 0.9262 0.0
C329 C 0.08259 0.39382 0.04069 0.0
C330 C 0.13065 0.41616 0.00787 0.0
N331 N 0.08925 0.41391 0.97127 0.0
C332 C 0.0713 0.39997 0.00476 0.0
C333 C 0.1186 0.42199 0.9725 0.0
C334 C 0.11247 0.40198 0.04216 0.0
C335 C 0.02092 0.40158 0.79522 0.0
N336 N 1.00324 0.39633 0.82946 0.0
C337 C 0.01232 0.38063 0.76313 0.0
C338 C 0.98548 0.35411 0.76633 0.0
C339 C 0.9676 0.34886 0.80141 0.0
C340 C 0.97689 0.37034 0.83284 0.0
C341 C 0.93658 0.42235 0.84064 0.0
C342 C 0.96411 0.4198 0.91346 0.0
C343 C 0.96428 0.42422 0.83953 0.0
N344 N 0.97762 0.42278 0.87566 0.0
C345 C 0.93642 0.41787 0.91578 0.0
C346 C 0.92259 0.41914 0.87906 0.0
C347 C 0.0405 0.45345 0.95516 0.0
C348 C 0.14363 0.50139 0.87726 0.0
C349 C 0.11536 0.47983 0.95323 0.0
C350 C 0.13911 0.50884 0.95078 0.0
C351 C 0.15331 0.51964 0.9125 0.0
N352 N 0.10604 0.46202 0.91856 0.0
C353 C 0.11981 0.4725 0.8809 0.0
H354 H 0.64887 0.04983 0.20708 0.0
H355 H 0.61642 0.0434 0.26541 0.0
H356 H 0.54164 0.01011 0.18143 0.0
H357 H 0.57448 0.01741 0.12183 0.0
H358 H 0.54143 0.04963 0.23513 0.0
H359 H 0.559 0.96988 0.32663 0.0
H360 H 0.59373 1.00224 0.31473 0.0
H361 H 0.5708 0.97872 0.27283 0.0
C362 C 0.62552 0.04096 0.20064 0.0
C363 C 0.61442 0.03419 0.15938 0.0
C364 C 0.60685 0.037 0.2344 0.0
C365 C 0.57638 0.02563 0.22821 0.0
C366 C 0.56504 0.01867 0.18715 0.0
H367 H 0.46368 0.98661 0.45274 0.0
H368 H 0.48578 0.98107 0.38789 0.0
C369 C 0.58384 0.02282 0.15307 0.0
C370 C 0.55706 0.02279 0.26457 0.0
H371 H 0.541 0.99753 0.36546 0.0
C372 C 0.541 0.03786 0.26339 0.0
C373 C 0.55589 0.00698 0.30136 0.0
C374 C 0.57053 0.98828 0.30381 0.0
C375 C 0.52516 0.03883 0.2985 0.0
C376 C 0.52599 0.02502 0.33638 0.0
C377 C 0.54074 0.00863 0.33685 0.0
C378 C 0.51263 0.02818 0.3761 0.0
C379 C 0.50765 0.05465 0.29448 0.0
C380 C 0.52087 0.05645 0.39188 0.0
C381 C 0.50816 0.05966 0.42868 0.0
C382 C 0.48723 0.03466 0.45119 0.0
C383 C 0.47973 0.00633 0.43624 0.0
C384 C 0.4923 0.00314 0.39907 0.0
H385 H 0.50089 0.05476 0.26148 0.0
H386 H 0.48745 0.04418 0.31433 0.0
H387 H 0.52171 0.07806 0.30445 0.0
H388 H 0.53724 0.07617 0.37573 0.0
H389 H 0.51478 0.08183 0.43944 0.0
H390 H 0.59596 0.58033 0.29277 0.0
H391 H 0.56821 0.55008 0.35361 0.0
H392 H 0.62523 0.62141 0.43641 0.0
H393 H 0.65282 0.6515 0.37675 0.0
H394 H 0.58906 0.53333 0.43093 0.0
H395 H 0.53964 0.60412 0.46328 0.0
H396 H 0.55593 0.60413 0.41334 0.0
H397 H 0.57921 0.62426 0.45691 0.0
C398 C 0.60274 0.58945 0.32396 0.0
C399 C 0.62649 0.61856 0.32959 0.0
C400 C 0.58685 0.57214 0.35869 0.0
C401 C 0.59434 0.58369 0.39955 0.0
C402 C 0.6187 0.6122 0.40521 0.0
H403 H 0.5336 0.54322 0.65466 0.0
H404 H 0.55995 0.56363 0.58884 0.0
C405 C 0.63452 0.62938 0.37083 0.0
C406 C 0.57653 0.56677 0.43662 0.0
H407 H 0.53539 0.5707 0.51714 0.0
C408 C 0.57699 0.54123 0.44957 0.0
C409 C 0.56085 0.57713 0.46097 0.0
C410 C 0.55857 0.60376 0.44783 0.0
C411 C 0.56321 0.52651 0.48714 0.0
C412 C 0.54816 0.53737 0.51206 0.0
C413 C 0.5471 0.56246 0.49837 0.0
C414 C 0.53377 0.5236 0.55282 0.0
C415 C 0.56588 0.50018 0.50061 0.0
C416 C 0.51045 0.49409 0.55491 0.0
C417 C 0.49539 0.48225 0.59273 0.0
C418 C 0.50315 0.49975 0.62928 0.0
C419 C 0.52703 0.52903 0.6273 0.0
C420 C 0.54209 0.5408 0.58955 0.0
H421 H 0.5842 0.49933 0.48405 0.0
H422 H 0.56974 0.50067 0.53489 0.0
H423 H 0.54491 0.47952 0.49319 0.0
H424 H 0.50314 0.48049 0.52696 0.0
H425 H 0.47694 0.45972 0.59286 0.0
H426 H 0.09616 0.53957 0.8066 0.0
H427 H 0.09998 0.56838 0.74355 0.0
H428 H 0.01968 0.49448 0.69522 0.0
H429 H 0.01541 0.4659 0.75783 0.0
H430 H 0.1035 0.55774 0.65767 0.0
H431 H 1.00111 0.56165 0.69142 0.0
H432 H 0.0188 0.55036 0.73005 0.0
H433 H 0.99538 0.5247 0.69047 0.0
C434 C 0.07929 0.5295 0.78258 0.0
C435 C 0.05527 0.50052 0.7877 0.0
C436 C 0.08155 0.54596 0.74648 0.0
C437 C 0.05983 0.53381 0.7149 0.0
C438 C 0.03635 0.50463 0.71949 0.0
H439 H 0.06463 0.59893 0.4591 0.0
H440 H 0.06792 0.57201 0.52019 0.0
C441 C 0.03401 0.48826 0.75543 0.0
C442 C 0.06124 0.55154 0.67736 0.0
H443 H 0.02194 0.5774 0.62374 0.0
C444 C 0.08575 0.56218 0.65031 0.0
C445 C 0.03822 0.5576 0.66788 0.0
C446 C 0.01202 0.54825 0.69666 0.0
C447 C 0.08762 0.57829 0.6138 0.0
C448 C 0.06414 0.58355 0.60372 0.0
C449 C 0.03984 0.57318 0.63111 0.0
C450 C 0.06462 0.60084 0.56611 0.0
C451 C 0.11496 0.59001 0.58681 0.0
C452 C 0.06154 0.62592 0.57133 0.0
C453 C 0.05938 0.64108 0.53665 0.0
C454 C 0.0602 0.63163 0.49556 0.0
C455 C 0.06413 0.60697 0.49021 0.0
C456 C 0.06613 0.59162 0.52517 0.0
H457 H 0.13384 0.59073 0.60409 0.0
H458 H 0.11005 0.57524 0.55931 0.0
H459 H 0.12179 0.61263 0.57518 0.0
H460 H 0.06034 0.63356 0.60245 0.0
H461 H 0.05653 0.66002 0.54223 0.0
H462 H 0.54787 0.03728 0.98644 0.0
H463 H 0.52634 0.04204 0.92089 0.0
H464 H 0.61066 0.07495 0.85927 0.0
H465 H 0.63256 0.07044 0.92492 0.0
H466 H 0.57922 0.10542 0.83669 0.0
H467 H 0.50844 0.9833 0.8234 0.0
H468 H 0.50478 0.99826 0.87227 0.0
H469 H 0.53947 1.00068 0.85903 0.0
C470 C 0.56203 0.04592 0.95918 0.0
C471 C 0.59196 0.05328 0.96106 0.0
C472 C 0.54959 0.04845 0.92157 0.0
C473 C 0.5667 0.05828 0.8849 0.0
C474 C 0.59696 0.06712 0.88709 0.0
H475 H 0.51766 0.07578 0.6256 0.0
H476 H 0.54603 0.07796 0.68827 0.0
C477 C 0.60946 0.06459 0.92474 0.0
C478 C 0.55264 0.05815 0.84411 0.0
H479 H 0.4986 0.0122 0.77559 0.0
C480 C 0.56174 0.08505 0.82312 0.0
C481 C 0.52996 0.03152 0.82625 0.0
C482 C 0.52021 1.00174 0.84612 0.0
C483 C 0.54795 0.08615 0.78564 0.0
C484 C 0.52481 0.05955 0.76827 0.0
C485 C 0.51623 0.03262 0.78888 0.0
C486 C 0.50815 0.05907 0.72989 0.0
C487 C 0.55754 0.11588 0.7658 0.0
C488 C 0.47735 0.04723 0.73205 0.0
C489 C 0.46108 0.04572 0.69634 0.0
C490 C 0.47513 0.0559 0.65726 0.0
C491 C 0.50606 0.06781 0.65508 0.0
C492 C 0.52238 0.06927 0.69101 0.0
H493 H 0.57042 0.13444 0.78793 0.0
H494 H 0.57185 0.11883 0.73839 0.0
H495 H 0.53806 0.11726 0.75463 0.0
H496 H 0.4658 0.03914 0.76156 0.0
H497 H 0.43736 0.03645 0.69953 0.0
H498 H 0.6117 0.63751 0.09347 0.0
H499 H 0.58443 0.61788 0.02782 0.0
H500 H 0.52623 0.53493 0.08895 0.0
H501 H 0.55318 0.55437 0.15471 0.0
H502 H 0.57815 0.56851 0.98407 0.0
H503 H 0.46798 0.55242 0.0267 0.0
H504 H 0.50096 0.57548 0.057 0.0
H505 H 0.4816 0.53585 0.0633 0.0
C506 C 0.59273 0.61529 0.09325 0.0
C507 C 0.58459 0.5976 0.12962 0.0
C508 C 0.57724 0.60404 0.05554 0.0
C509 C 0.55306 0.57501 0.05341 0.0
C510 C 0.54444 0.55758 0.08988 0.0
H511 H 0.44033 0.44427 0.8774 0.0
H512 H 0.46648 0.47589 0.93661 0.0
C513 C 0.55997 0.56873 0.12753 0.0
C514 C 0.53798 0.56221 0.01264 0.0
H515 H 0.47001 0.5273 0.96515 0.0
C516 C 0.55458 0.55988 0.97966 0.0
C517 C 0.50723 0.55097 0.00682 0.0
C518 C 0.48842 0.55403 0.04017 0.0
C519 C 0.54104 0.54534 0.94193 0.0
C520 C 0.51009 0.53327 0.93661 0.0
C521 C 0.4937 0.53651 0.9691 0.0
C522 C 0.49383 0.51489 0.89942 0.0
C523 C 0.55973 0.54173 0.90893 0.0
C524 C 0.50005 0.52629 0.85836 0.0
C525 C 0.48503 0.50805 0.82389 0.0
C526 C 0.46344 0.47806 0.82987 0.0
C527 C 0.45687 0.46711 0.87121 0.0
C528 C 0.47181 0.48525 0.90536 0.0
H529 H 0.58176 0.54688 0.92127 0.0
H530 H 0.54832 0.51876 0.8964 0.0
H531 H 0.56338 0.55706 0.88256 0.0
H532 H 0.51655 0.54926 0.85295 0.0
H533 H 0.49059 0.51731 0.79264 0.0
H534 H 0.05878 0.45194 0.03501 0.0
H535 H 0.05656 0.47822 0.09665 0.0
H536 H 0.01666 0.51855 0.02317 0.0
H537 H 0.01836 0.49179 0.96085 0.0
H538 H 0.08329 0.53793 0.10985 0.0
H539 H 0.96106 0.48713 0.1237 0.0
H540 H 0.9781 0.47185 0.09038 0.0
H541 H 0.97631 0.50391 0.07392 0.0
C542 C 0.04937 0.46626 0.03168 0.0
C543 C 0.03872 0.46964 0.99265 0.0
C544 C 0.04814 0.48134 0.06718 0.0
C545 C 0.03613 0.50015 0.06489 0.0
C546 C 0.0255 0.50372 0.02604 0.0
H547 H 0.02534 0.61326 0.26042 0.0
H548 H 0.0207 0.58697 0.19464 0.0
C549 C 0.02668 0.48854 0.99031 0.0
C550 C 0.03587 0.51657 0.10312 0.0
H551 H 0.99032 0.52505 0.17216 0.0
C552 C 0.06293 0.53509 0.12339 0.0
C553 C 0.00934 0.51304 0.12084 0.0
C554 C 0.97949 0.49274 0.10139 0.0
C555 C 0.06422 0.54998 0.16077 0.0
C556 C 0.03768 0.54596 0.179 0.0
C557 C 0.01064 0.52801 0.15832 0.0
C558 C 0.03776 0.5599 0.21987 0.0
C559 C 0.09412 0.57015 0.18028 0.0
C560 C 0.04788 0.55271 0.25639 0.0
C561 C 0.05047 0.5676 0.29409 0.0
C562 C 0.0429 0.59001 0.29624 0.0
C563 C 0.03138 0.59615 0.26005 0.0
C564 C 0.02876 0.58117 0.22232 0.0
H565 H 0.11241 0.57685 0.15733 0.0
H566 H 0.09516 0.59045 0.19324 0.0
H567 H 0.09787 0.55831 0.20635 0.0
H568 H 0.05442 0.53597 0.25552 0.0
H569 H 0.0593 0.56214 0.32123 0.0
H570 H 0.69744 0.79652 0.25936 0.0
H571 H 0.69964 0.84253 0.23803 0.0
H572 H 0.71046 0.82482 0.10924 0.0
H573 H 0.709 0.77879 0.13059 0.0
H574 H 0.7458 0.88406 0.1294 0.0
H575 H 0.63058 0.84386 0.18237 0.0
H576 H 0.65409 0.84359 0.22326 0.0
H577 H 0.64609 0.81979 0.17843 0.0
C578 C 0.70045 0.8024 0.22647 0.0
C579 C 0.70271 0.78372 0.19662 0.0
C580 C 0.70157 0.82873 0.21429 0.0
C581 C 0.70447 0.83686 0.17189 0.0
C582 C 0.70798 0.81893 0.14213 0.0
H583 H 0.65107 0.95652 0.06901 0.0
H584 H 0.6577 0.91502 0.0879 0.0
C585 C 0.70715 0.79261 0.15437 0.0
C586 C 0.70286 0.86352 0.15874 0.0
H587 H 0.65856 0.89456 0.16331 0.0
C588 C 0.72671 0.88635 0.13669 0.0
C589 C 0.67777 0.8664 0.16771 0.0
C590 C 0.65055 0.84199 0.18885 0.0
C591 C 0.72628 0.91205 0.12388 0.0
C592 C 0.70157 0.9153 0.13408 0.0
C593 C 0.67767 0.89233 0.15582 0.0
C594 C 0.69909 0.9415 0.12088 0.0
C595 C 0.75195 0.93509 0.09863 0.0
C596 C 0.72019 0.97053 0.13298 0.0
C597 C 0.71665 0.99467 0.1217 0.0
C598 C 0.69171 0.99021 0.09852 0.0
C599 C 0.67068 0.96106 0.08661 0.0
C600 C 0.67437 0.93713 0.09754 0.0
H601 H 0.76498 0.92585 0.08407 0.0
H602 H 0.74414 0.94431 0.07352 0.0
H603 H 0.767 0.95354 0.11958 0.0
H604 H 0.73911 0.9745 0.15187 0.0
H605 H 0.73315 0.01671 0.13179 0.0
H606 H 0.94912 0.69783 0.42352 0.0
H607 H 0.90492 0.69936 0.40223 0.0
H608 H 0.93262 0.70898 0.27317 0.0
H609 H 0.97761 0.70828 0.29448 0.0
H610 H 0.90881 0.74404 0.29175 0.0
H611 H 0.83398 0.63007 0.34907 0.0
H612 H 0.85796 0.6541 0.38936 0.0
H613 H 0.87352 0.64538 0.34493 0.0
C614 C 0.94596 0.7004 0.39057 0.0
C615 C 0.96682 0.70261 0.36065 0.0
C616 C 0.92051 0.70111 0.37841 0.0
C617 C 0.91494 0.7035 0.33596 0.0
C618 C 0.93627 0.70688 0.30609 0.0
H619 H 0.73972 0.65004 0.23906 0.0
H620 H 0.78781 0.6558 0.25639 0.0
C621 C 0.962 0.70648 0.31831 0.0
C622 C 0.88657 0.70176 0.32293 0.0
H623 H 0.81126 0.65819 0.33006 0.0
C624 C 0.88747 0.72522 0.29996 0.0
C625 C 0.85864 0.677 0.33304 0.0
C626 C 0.85588 0.65008 0.35507 0.0
C627 C 0.86128 0.7248 0.28746 0.0
C628 C 0.83337 0.70055 0.29902 0.0
C629 C 0.83256 0.67697 0.32154 0.0
C630 C 0.80462 0.69836 0.28684 0.0
C631 C 0.86382 0.75002 0.26113 0.0
C632 C 0.79774 0.72035 0.29814 0.0
C633 C 0.77014 0.71732 0.28768 0.0
C634 C 0.74865 0.692 0.26621 0.0
C635 C 0.75563 0.66998 0.25528 0.0
C636 C 0.78322 0.67318 0.26533 0.0
H637 H 0.88568 0.76213 0.24522 0.0
H638 H 0.8461 0.74192 0.23699 0.0
H639 H 0.86158 0.766 0.28161 0.0
H640 H 0.81348 0.73963 0.31573 0.0
H641 H 0.76549 0.73457 0.29704 0.0
H642 H 0.07667 0.76931 0.45803 0.0
H643 H 0.11794 0.81857 0.47621 0.0
H644 H 0.18017 0.79366 0.4299 0.0
H645 H 0.13942 0.74476 0.41145 0.0
H646 H 0.16573 0.83324 0.53079 0.0
H647 H 0.20659 0.87228 0.36997 0.0
H648 H 0.17048 0.84065 0.38024 0.0
H649 H 0.20303 0.83698 0.38204 0.0
C650 C 0.09912 0.77437 0.45141 0.0
C651 C 0.10456 0.75299 0.43288 0.0
C652 C 0.12271 0.80255 0.46188 0.0
C653 C 0.15218 0.81006 0.45371 0.0
C654 C 0.15765 0.78871 0.4356 0.0
H655 H 0.32947 0.95349 0.50347 0.0
H656 H 0.28481 0.90923 0.47883 0.0
C657 C 0.13419 0.76059 0.42525 0.0
C658 C 0.17739 0.83973 0.46547 0.0
H659 H 0.23875 0.90047 0.426 0.0
C660 C 0.1815 0.84811 0.50784 0.0
C661 C 0.19808 0.8591 0.43554 0.0
C662 C 0.19424 0.85199 0.38935 0.0
C663 C 0.20623 0.87478 0.52127 0.0
C664 C 0.22717 0.89399 0.49139 0.0
C665 C 0.22277 0.88581 0.44892 0.0
C666 C 0.25427 0.9221 0.50381 0.0
C667 C 0.21031 0.88158 0.56756 0.0
C668 C 0.25213 0.94464 0.52489 0.0
C669 C 0.27768 0.97005 0.53908 0.0
C670 C 0.30599 0.9736 0.53223 0.0
C671 C 0.30811 0.9516 0.50936 0.0
C672 C 0.28254 0.92618 0.49528 0.0
H673 H 0.19662 0.8615 0.58681 0.0
H674 H 0.23391 0.89107 0.5768 0.0
H675 H 0.20345 0.89809 0.57499 0.0
H676 H 0.23064 0.94238 0.53098 0.0
H677 H 0.27516 0.98654 0.55638 0.0
H678 H 0.41419 0.30891 0.74883 0.0
H679 H 0.41068 0.26282 0.72524 0.0
H680 H 0.35736 0.26003 0.62003 0.0
H681 H 0.36116 0.30679 0.64318 0.0
H682 H 0.36278 0.20709 0.71311 0.0
H683 H 0.4237 0.25266 0.5638 0.0
H684 H 0.4229 0.27607 0.60483 0.0
H685 H 0.39143 0.25628 0.5709 0.0
C686 C 0.40163 0.2986 0.72066 0.0
C687 C 0.38807 0.31178 0.69781 0.0
C688 C 0.39959 0.2721 0.70726 0.0
C689 C 0.38405 0.25802 0.67059 0.0
C690 C 0.36993 0.27071 0.64804 0.0
H691 H 0.35497 0.07956 0.60567 0.0
H692 H 0.34543 0.11977 0.62452 0.0
C693 C 0.37199 0.29739 0.66144 0.0
C694 C 0.38335 0.23042 0.65613 0.0
H695 H 0.40701 0.20241 0.57785 0.0
C696 C 0.37219 0.20594 0.68335 0.0
C697 C 0.39591 0.22901 0.61748 0.0
C698 C 0.40941 0.25493 0.58762 0.0
C699 C 0.37383 0.18045 0.67343 0.0
C700 C 0.38656 0.17913 0.6349 0.0
C701 C 0.39708 0.20332 0.60727 0.0
C702 C 0.39165 0.15414 0.6241 0.0
C703 C 0.36313 0.15571 0.70512 0.0
C704 C 0.42068 0.15999 0.61714 0.0
C705 C 0.42616 0.1372 0.6062 0.0
C706 C 0.40272 0.1078 0.60174 0.0
C707 C 0.37357 0.10184 0.60906 0.0
C708 C 0.36809 0.12482 0.61997 0.0
H709 H 0.35978 0.16277 0.73652 0.0
H710 H 0.34161 0.1369 0.69454 0.0
H711 H 0.37914 0.14761 0.70812 0.0
H712 H 0.43925 0.18234 0.6202 0.0
H713 H 0.44893 0.14282 0.60096 0.0
H714 H 0.1404 0.42588 0.83926 0.0
H715 H 0.18489 0.42599 0.81452 0.0
H716 H 0.15399 0.34004 0.87011 0.0
H717 H 0.10927 0.33958 0.89471 0.0
H718 H 0.22664 0.42333 0.8667 0.0
H719 H 0.18061 0.32985 0.75343 0.0
H720 H 0.15985 0.34702 0.77135 0.0
H721 H 0.1635 0.32102 0.80424 0.0
C722 C 0.1427 0.40669 0.84555 0.0
C723 C 0.1211 0.38267 0.86897 0.0
C724 C 0.16827 0.40686 0.8315 0.0
C725 C 0.17276 0.38294 0.84012 0.0
C726 C 0.15085 0.35854 0.86238 0.0
H727 H 0.32543 0.35739 0.79706 0.0
H728 H 0.27709 0.35081 0.8179 0.0
C729 C 0.12528 0.35837 0.87657 0.0
C730 C 0.2013 0.38459 0.82853 0.0
H731 H 0.23162 0.35119 0.77036 0.0
C732 C 0.22771 0.4076 0.84552 0.0
C733 C 0.20272 0.36388 0.80127 0.0
C734 C 0.17522 0.33916 0.78118 0.0
C735 C 0.2554 0.41044 0.83615 0.0
C736 C 0.25693 0.3901 0.80824 0.0
C737 C 0.23049 0.36679 0.79171 0.0
C738 C 0.28587 0.39349 0.79468 0.0
C739 C 0.28276 0.43502 0.85681 0.0
C740 C 0.30669 0.41936 0.774 0.0
C741 C 0.33426 0.42324 0.76222 0.0
C742 C 0.34172 0.40116 0.77038 0.0
C743 C 0.32054 0.37489 0.79029 0.0
C744 C 0.29287 0.37107 0.8022 0.0
H745 H 0.27721 0.4428 0.88603 0.0
H746 H 0.29894 0.42774 0.86448 0.0
H747 H 0.29356 0.45416 0.83507 0.0
H748 H 0.30163 0.43671 0.76697 0.0
H749 H 0.34977 0.44373 0.7468 0.0
H750 H 0.01437 0.32395 0.93807 0.0
H751 H 0.97381 0.27374 0.95448 0.0
H752 H 0.91274 0.30672 0.96176 0.0
H753 H 0.95255 0.35636 0.94514 0.0
H754 H 0.93509 0.25094 0.02271 0.0
H755 H 0.87215 0.23936 0.87751 0.0
H756 H 0.91028 0.26813 0.88432 0.0
H757 H 0.88072 0.27242 0.90593 0.0
C758 C 0.99233 0.32051 0.9434 0.0
C759 C 0.98678 0.34426 0.93981 0.0
C760 C 0.96915 0.29178 0.95266 0.0
C761 C 0.94003 0.28628 0.9583 0.0
C762 C 0.93478 0.31017 0.95635 0.0
H763 H 0.78711 0.1526 0.08378 0.0
H764 H 0.83404 0.19464 0.06168 0.0
C765 C 0.95775 0.33869 0.94708 0.0
C766 C 0.91492 0.25583 0.96666 0.0
H767 H 0.84501 0.20564 0.9333 0.0
C768 C 0.91556 0.24084 1.00285 0.0
C769 C 0.88958 0.24229 0.9404 0.0
C770 C 0.8882 0.25623 0.89964 0.0
C771 C 0.89097 0.21355 0.01465 0.0
C772 C 0.86484 0.20108 0.98996 0.0
C773 C 0.86483 0.21527 0.95256 0.0
C774 C 0.83671 0.17454 0.00375 0.0
C775 C 0.89318 0.19843 0.05368 0.0
C776 C 0.82195 0.14927 0.97812 0.0
C777 C 0.79475 0.12499 0.99063 0.0
C778 C 0.78162 0.12566 0.02885 0.0
C779 C 0.79651 0.15107 0.05428 0.0
C780 C 0.82359 0.17517 0.04183 0.0
H781 H 0.91658 0.20507 0.06081 0.0
H782 H 0.88436 0.20506 0.08068 0.0
H783 H 0.88013 0.17393 0.05057 0.0
H784 H 0.83146 0.14836 0.94837 0.0
H785 H 0.78386 0.1059 0.97016 0.0
loop_
_geom_bond_atom_site_label_1
_geom_bond_atom_site_label_2
_geom_bond_distance
_geom_bond_site_symmetry_2
_ccdc_geom_bond_type
Co0 O2 2.143 . S
Co0 O8 2.074 . S
Co0 O11 2.093 1_554 S
Co0 O24 2.097 . S
Co0 N41 2.151 1_554 S
Co0 N49 2.214 1_545 S
Co1 O2 2.160 . S
Co1 O7 2.058 . S
Co1 O17 2.057 . S
Co1 O32 2.037 . S
Co1 N36 2.145 . S
Co1 N57 2.257 . S
O2 Co0 2.143 . S
O2 Co1 2.160 . S
C3 O4 1.278 . S
C3 O11 1.224 . S
O4 C3 1.278 . S
C5 O6 1.257 . S
C5 O17 1.232 . S
O6 C5 1.257 . S
O7 Co1 2.058 . S
O7 C33 1.269 . S
O8 Co0 2.074 . S
O8 C33 1.257 . S
H9 C34 0.930 . S
H10 C40 0.930 . S
O11 Co0 2.093 1_556 S
O11 C3 1.224 . S
H12 C44 0.929 . S
H13 C46 0.930 1_556 S
H14 C47 0.930 . S
H15 C45 0.929 1_554 S
H16 C48 0.928 1_556 S
O17 Co1 2.057 . S
O17 C5 1.232 . S
H18 C37 0.929 . S
H19 C38 0.929 . S
H20 C50 0.931 . S
H21 C42 0.929 . S
H22 C51 0.930 . S
H23 C43 0.931 . S
O24 Co0 2.097 . S
O24 C52 1.214 . S
H25 C53 0.929 . S
H26 C54 0.929 . S
H27 C55 0.930 . S
H28 C56 0.929 . S
H29 C58 0.930 . S
H30 C35 0.930 . S
H31 C39 0.930 . S
O32 Co1 2.037 . S
O32 C52 1.234 . S
C33 O7 1.269 . S
C33 O8 1.257 . S
C34 H9 0.930 . S
C34 C37 1.388 . S
C34 C39 1.418 . S
C35 H30 0.930 . S
C35 C38 1.404 . S
C35 C39 1.353 . S
N36 Co1 2.145 . S
N36 C37 1.397 . S
N36 C38 1.334 . S
C37 H18 0.929 . S
C37 C34 1.388 . S
C37 N36 1.397 . S
C38 H19 0.929 . S
C38 C35 1.404 . S
C38 N36 1.334 . S
C39 H31 0.930 . S
C39 C34 1.418 . S
C39 C35 1.353 . S
C40 H10 0.930 . S
C40 N41 1.330 . S
C40 C42 1.446 . S
N41 Co0 2.151 1_556 S
N41 C40 1.330 . S
N41 C45 1.418 1_545 S
C42 H21 0.929 . S
C42 C40 1.446 . S
C42 C43 1.332 1_545 S
C43 H23 0.931 . S
C43 C42 1.332 1_565 S
C43 C44 1.267 . S
C44 H12 0.929 . S
C44 C43 1.267 . S
C44 C45 1.251 . S
C45 H15 0.929 1_556 S
C45 N41 1.418 1_565 S
C45 C44 1.251 . S
C46 H13 0.930 1_554 S
C46 C48 1.406 . S
C46 C51 1.261 . S
C47 H14 0.930 . S
C47 N49 1.325 . S
C47 C50 1.357 . S
C48 H16 0.928 1_554 S
C48 C46 1.406 . S
C48 N49 1.261 . S
N49 Co0 2.214 1_565 S
N49 C47 1.325 . S
N49 C48 1.261 . S
C50 H20 0.931 . S
C50 C47 1.357 . S
C50 C51 1.312 . S
C51 H22 0.930 . S
C51 C46 1.261 . S
C51 C50 1.312 . S
C52 O24 1.214 . S
C52 O32 1.234 . S
C53 H25 0.929 . S
C53 C56 1.391 . S
C53 C58 1.391 . S
C54 H26 0.929 . S
C54 C55 1.390 . S
C54 N57 1.391 . S
C55 H27 0.930 . S
C55 C54 1.390 . S
C55 C56 1.392 . S
C56 H28 0.929 . S
C56 C53 1.391 . S
C56 C55 1.392 . S
N57 Co1 2.257 . S
N57 C54 1.391 . S
N57 C58 1.388 . S
C58 H29 0.930 . S
C58 C53 1.391 . S
C58 N57 1.388 . S
Co59 O61 2.143 . S
Co59 O67 2.074 . S
Co59 O70 2.093 . S
Co59 O83 2.097 . S
Co59 N100 2.151 . S
Co59 N108 2.214 . S
Co60 O61 2.160 . S
Co60 O66 2.058 . S
Co60 O76 2.057 . S
Co60 O91 2.037 . S
Co60 N95 2.145 . S
Co60 N116 2.257 . S
O61 Co59 2.143 . S
O61 Co60 2.160 . S
C62 O63 1.278 . S
C62 O70 1.224 . S
O63 C62 1.278 . S
C64 O65 1.245 . S
C64 O76 1.232 . S
O65 C64 1.245 . S
O66 Co60 2.058 . S
O66 C92 1.269 . S
O67 Co59 2.074 . S
O67 C92 1.257 . S
H68 C93 0.930 . S
H69 C99 0.930 . S
O70 Co59 2.093 . S
O70 C62 1.224 . S
H71 C103 0.929 . S
H72 C105 0.930 . S
H73 C106 0.930 . S
H74 C104 0.929 . S
H75 C107 0.928 . S
O76 Co60 2.057 . S
O76 C64 1.232 . S
H77 C96 0.929 . S
H78 C97 0.929 . S
H79 C109 0.931 . S
H80 C101 0.929 . S
H81 C110 0.930 . S
H82 C102 0.931 . S
O83 Co59 2.097 . S
O83 C111 1.214 . S
H84 C112 0.929 . S
H85 C113 0.929 . S
H86 C114 0.930 . S
H87 C115 0.929 . S
H88 C117 0.930 . S
H89 C94 0.930 . S
H90 C98 0.930 . S
O91 Co60 2.037 . S
O91 C111 1.234 . S
C92 O66 1.269 . S
C92 O67 1.257 . S
C93 H68 0.930 . S
C93 C96 1.388 . S
C93 C98 1.418 . S
C94 H89 0.930 . S
C94 C97 1.404 . S
C94 C98 1.353 . S
N95 Co60 2.145 . S
N95 C96 1.397 . S
N95 C97 1.334 . S
C96 H77 0.929 . S
C96 C93 1.388 . S
C96 N95 1.397 . S
C97 H78 0.929 . S
C97 C94 1.404 . S
C97 N95 1.334 . S
C98 H90 0.930 . S
C98 C93 1.418 . S
C98 C94 1.353 . S
C99 H69 0.930 . S
C99 N100 1.330 . S
C99 C101 1.446 . S
N100 Co59 2.151 . S
N100 C99 1.330 . S
N100 C104 1.418 . S
C101 H80 0.929 . S
C101 C99 1.446 . S
C101 C102 1.332 . S
C102 H82 0.931 . S
C102 C101 1.332 . S
C102 C103 1.267 . S
C103 H71 0.929 . S
C103 C102 1.267 . S
C103 C104 1.251 . S
C104 H74 0.929 . S
C104 N100 1.418 . S
C104 C103 1.251 . S
C105 H72 0.930 . S
C105 C107 1.406 . S
C105 C110 1.261 . S
C106 H73 0.930 . S
C106 N108 1.325 . S
C106 C109 1.357 . S
C107 H75 0.928 . S
C107 C105 1.406 . S
C107 N108 1.261 . S
N108 Co59 2.214 . S
N108 C106 1.325 . S
N108 C107 1.261 . S
C109 H79 0.931 . S
C109 C106 1.357 . S
C109 C110 1.312 . S
C110 H81 0.930 . S
C110 C105 1.261 . S
C110 C109 1.312 . S
C111 O83 1.214 . S
C111 O91 1.234 . S
C112 H84 0.929 . S
C112 C115 1.391 . S
C112 C117 1.391 . S
C113 H85 0.929 . S
C113 C114 1.390 . S
C113 N116 1.391 . S
C114 H86 0.930 . S
C114 C113 1.390 . S
C114 C115 1.392 . S
C115 H87 0.929 . S
C115 C112 1.391 . S
C115 C114 1.392 . S
N116 Co60 2.257 . S
N116 C113 1.391 . S
N116 C117 1.388 . S
C117 H88 0.930 . S
C117 C112 1.391 . S
C117 N116 1.388 . S
Co118 O120 2.143 . S
Co118 O126 2.074 . S
Co118 O129 2.093 . S
Co118 O142 2.097 . S
Co118 N159 2.151 . S
Co118 N167 2.214 . S
Co119 O120 2.160 . S
Co119 O125 2.058 . S
Co119 O135 2.057 1_455 S
Co119 O150 2.037 . S
Co119 N154 2.145 1_455 S
Co119 N175 2.257 1_455 S
O120 Co118 2.143 . S
O120 Co119 2.160 . S
C121 O122 1.278 1_455 S
C121 O129 1.224 . S
O122 C121 1.278 1_655 S
C123 O124 1.245 . S
C123 O135 1.232 . S
O124 C123 1.245 . S
O125 Co119 2.058 . S
O125 C151 1.269 . S
O126 Co118 2.074 . S
O126 C151 1.257 . S
H127 C152 0.930 . S
H128 C158 0.930 . S
O129 Co118 2.093 . S
O129 C121 1.224 . S
H130 C162 0.929 . S
H131 C164 0.930 . S
H132 C165 0.930 . S
H133 C163 0.929 . S
H134 C166 0.928 . S
O135 Co119 2.057 1_655 S
O135 C123 1.232 . S
H136 C155 0.929 1_455 S
H137 C156 0.929 . S
H138 C168 0.931 . S
H139 C160 0.929 . S
H140 C169 0.930 . S
H141 C161 0.931 . S
O142 Co118 2.097 . S
O142 C170 1.214 . S
H143 C171 0.929 . S
H144 C172 0.929 . S
H145 C173 0.930 . S
H146 C174 0.929 . S
H147 C176 0.930 . S
H148 C153 0.930 . S
H149 C157 0.930 . S
O150 Co119 2.037 . S
O150 C170 1.234 . S
C151 O125 1.269 . S
C151 O126 1.257 . S
C152 H127 0.930 . S
C152 C155 1.388 . S
C152 C157 1.418 . S
C153 H148 0.930 . S
C153 C156 1.404 . S
C153 C157 1.353 . S
N154 Co119 2.145 1_655 S
N154 C155 1.397 . S
N154 C156 1.334 . S
C155 H136 0.929 1_655 S
C155 C152 1.388 . S
C155 N154 1.397 . S
C156 H137 0.929 . S
C156 C153 1.404 . S
C156 N154 1.334 . S
C157 H149 0.930 . S
C157 C152 1.418 . S
C157 C153 1.353 . S
C158 H128 0.930 . S
C158 N159 1.330 . S
C158 C160 1.446 . S
N159 Co118 2.151 . S
N159 C158 1.330 . S
N159 C163 1.418 . S
C160 H139 0.929 . S
C160 C158 1.446 . S
C160 C161 1.332 . S
C161 H141 0.931 . S
C161 C160 1.332 . S
C161 C162 1.267 . S
C162 H130 0.929 . S
C162 C161 1.267 . S
C162 C163 1.251 . S
C163 H133 0.929 . S
C163 N159 1.418 . S
C163 C162 1.251 . S
C164 H131 0.930 . S
C164 C166 1.406 . S
C164 C169 1.261 . S
C165 H132 0.930 . S
C165 N167 1.325 . S
C165 C168 1.357 . S
C166 H134 0.928 . S
C166 C164 1.406 . S
C166 N167 1.261 . S
N167 Co118 2.214 . S
N167 C165 1.325 . S
N167 C166 1.261 . S
C168 H138 0.931 . S
C168 C165 1.357 . S
C168 C169 1.312 . S
C169 H140 0.930 . S
C169 C164 1.261 . S
C169 C168 1.312 . S
C170 O142 1.214 . S
C170 O150 1.234 . S
C171 H143 0.929 . S
C171 C174 1.391 . S
C171 C176 1.391 . S
C172 H144 0.929 . S
C172 C173 1.390 . S
C172 N175 1.391 . S
C173 H145 0.930 . S
C173 C172 1.390 . S
C173 C174 1.392 . S
C174 H146 0.929 . S
C174 C171 1.391 . S
C174 C173 1.392 . S
N175 Co119 2.257 1_655 S
N175 C172 1.391 . S
N175 C176 1.388 . S
C176 H147 0.930 . S
C176 C171 1.391 . S
C176 N175 1.388 . S
Co177 O179 2.143 . S
Co177 O185 2.074 . S
Co177 O188 2.093 . S
Co177 O201 2.097 . S
Co177 N218 2.151 . S
Co177 N226 2.214 . S
Co178 O179 2.160 . S
Co178 O184 2.058 . S
Co178 O194 2.057 1_545 S
Co178 O209 2.037 . S
Co178 N213 2.145 1_545 S
Co178 N234 2.257 1_545 S
O179 Co177 2.143 . S
O179 Co178 2.160 . S
C180 O181 1.278 . S
C180 O188 1.224 . S
O181 C180 1.278 . S
C182 O183 1.245 . S
C182 O194 1.232 . S
O183 C182 1.245 . S
O184 Co178 2.058 . S
O184 C210 1.269 . S
O185 Co177 2.074 . S
O185 C210 1.257 . S
H186 C211 0.930 1_545 S
H187 C217 0.930 . S
O188 Co177 2.093 . S
O188 C180 1.224 . S
H189 C221 0.929 . S
H190 C223 0.930 . S
H191 C224 0.930 . S
H192 C222 0.929 . S
H193 C225 0.928 . S
O194 Co178 2.057 1_565 S
O194 C182 1.232 . S
H195 C214 0.929 . S
H196 C215 0.929 . S
H197 C227 0.931 . S
H198 C219 0.929 . S
H199 C228 0.930 . S
H200 C220 0.931 . S
O201 Co177 2.097 . S
O201 C229 1.214 . S
H202 C230 0.929 . S
H203 C231 0.929 . S
H204 C232 0.930 . S
H205 C233 0.929 . S
H206 C235 0.930 . S
H207 C212 0.930 . S
H208 C216 0.930 . S
O209 Co178 2.037 . S
O209 C229 1.234 . S
C210 O184 1.269 . S
C210 O185 1.257 . S
C211 H186 0.930 1_565 S
C211 C214 1.388 1_565 S
C211 C216 1.418 . S
C212 H207 0.930 . S
C212 C215 1.404 . S
C212 C216 1.353 . S
N213 Co178 2.145 1_565 S
N213 C214 1.397 1_565 S
N213 C215 1.334 . S
C214 H195 0.929 . S
C214 C211 1.388 1_545 S
C214 N213 1.397 1_545 S
C215 H196 0.929 . S
C215 C212 1.404 . S
C215 N213 1.334 . S
C216 H208 0.930 . S
C216 C211 1.418 . S
C216 C212 1.353 . S
C217 H187 0.930 . S
C217 N218 1.330 . S
C217 C219 1.446 . S
N218 Co177 2.151 . S
N218 C217 1.330 . S
N218 C222 1.418 . S
C219 H198 0.929 . S
C219 C217 1.446 . S
C219 C220 1.332 . S
C220 H200 0.931 . S
C220 C219 1.332 . S
C220 C221 1.267 . S
C221 H189 0.929 . S
C221 C220 1.267 . S
C221 C222 1.251 . S
C222 H192 0.929 . S
C222 N218 1.418 . S
C222 C221 1.251 . S
C223 H190 0.930 . S
C223 C225 1.406 . S
C223 C228 1.261 . S
C224 H191 0.930 . S
C224 N226 1.325 . S
C224 C227 1.357 . S
C225 H193 0.928 . S
C225 C223 1.406 . S
C225 N226 1.261 . S
N226 Co177 2.214 . S
N226 C224 1.325 . S
N226 C225 1.261 . S
C227 H197 0.931 . S
C227 C224 1.357 . S
C227 C228 1.312 . S
C228 H199 0.930 . S
C228 C223 1.261 . S
C228 C227 1.312 . S
C229 O201 1.214 . S
C229 O209 1.234 . S
C230 H202 0.929 . S
C230 C233 1.391 . S
C230 C235 1.391 . S
C231 H203 0.929 . S
C231 C232 1.390 . S
C231 N234 1.391 . S
C232 H204 0.930 . S
C232 C231 1.390 . S
C232 C233 1.392 . S
C233 H205 0.929 . S
C233 C230 1.391 . S
C233 C232 1.392 . S
N234 Co178 2.257 1_565 S
N234 C231 1.391 . S
N234 C235 1.388 . S
C235 H206 0.930 . S
C235 C230 1.391 . S
C235 N234 1.388 . S
Co236 O238 2.143 . S
Co236 O244 2.074 . S
Co236 O247 2.093 . S
Co236 O260 2.097 . S
Co236 N277 2.151 . S
Co236 N285 2.214 . S
Co237 O238 2.160 . S
Co237 O243 2.058 . S
Co237 O253 2.057 . S
Co237 O268 2.037 . S
Co237 N272 2.145 . S
Co237 N293 2.257 . S
O238 Co236 2.143 . S
O238 Co237 2.160 . S
C239 O240 1.278 . S
C239 O247 1.224 . S
O240 C239 1.278 . S
C241 O242 1.245 . S
C241 O253 1.232 . S
O242 C241 1.245 . S
O243 Co237 2.058 . S
O243 C269 1.269 . S
O244 Co236 2.074 . S
O244 C269 1.257 . S
H245 C270 0.930 . S
H246 C276 0.930 . S
O247 Co236 2.093 . S
O247 C239 1.224 . S
H248 C280 0.929 . S
H249 C282 0.930 . S
H250 C283 0.930 . S
H251 C281 0.929 . S
H252 C284 0.928 . S
O253 Co237 2.057 . S
O253 C241 1.232 . S
H254 C273 0.929 . S
H255 C274 0.929 . S
H256 C286 0.931 . S
H257 C278 0.929 . S
H258 C287 0.930 . S
H259 C279 0.931 . S
O260 Co236 2.097 . S
O260 C288 1.214 . S
H261 C289 0.929 . S
H262 C290 0.929 . S
H263 C291 0.930 . S
H264 C292 0.929 . S
H265 C294 0.930 . S
H266 C271 0.930 . S
H267 C275 0.930 . S
O268 Co237 2.037 . S
O268 C288 1.234 . S
C269 O243 1.269 . S
C269 O244 1.257 . S
C270 H245 0.930 . S
C270 C273 1.388 . S
C270 C275 1.418 . S
C271 H266 0.930 . S
C271 C274 1.404 . S
C271 C275 1.353 . S
N272 Co237 2.145 . S
N272 C273 1.397 . S
N272 C274 1.334 . S
C273 H254 0.929 . S
C273 C270 1.388 . S
C273 N272 1.397 . S
C274 H255 0.929 . S
C274 C271 1.404 . S
C274 N272 1.334 . S
C275 H267 0.930 . S
C275 C270 1.418 . S
C275 C271 1.353 . S
C276 H246 0.930 . S
C276 N277 1.330 . S
C276 C278 1.446 . S
N277 Co236 2.151 . S
N277 C276 1.330 . S
N277 C281 1.418 . S
C278 H257 0.929 . S
C278 C276 1.446 . S
C278 C279 1.332 . S
C279 H259 0.931 . S
C279 C278 1.332 . S
C279 C280 1.267 . S
C280 H248 0.929 . S
C280 C279 1.267 . S
C280 C281 1.251 . S
C281 H251 0.929 . S
C281 N277 1.418 . S
C281 C280 1.251 . S
C282 H249 0.930 . S
C282 C284 1.406 . S
C282 C287 1.261 . S
C283 H250 0.930 . S
C283 N285 1.325 . S
C283 C286 1.357 . S
C284 H252 0.928 . S
C284 C282 1.406 . S
C284 N285 1.261 . S
N285 Co236 2.214 . S
N285 C283 1.325 . S
N285 C284 1.261 . S
C286 H256 0.931 . S
C286 C283 1.357 . S
C286 C287 1.312 . S
C287 H258 0.930 . S
C287 C282 1.261 . S
C287 C286 1.312 . S
C288 O260 1.214 . S
C288 O268 1.234 . S
C289 H261 0.929 . S
C289 C292 1.391 . S
C289 C294 1.391 . S
C290 H262 0.929 . S
C290 C291 1.390 . S
C290 N293 1.391 . S
C291 H263 0.930 . S
C291 C290 1.390 . S
C291 C292 1.392 . S
C292 H264 0.929 . S
C292 C289 1.391 . S
C292 C291 1.392 . S
N293 Co237 2.257 . S
N293 C290 1.391 . S
N293 C294 1.388 . S
C294 H265 0.930 . S
C294 C289 1.391 . S
C294 N293 1.388 . S
Co295 O297 2.143 . S
Co295 O303 2.074 . S
Co295 O306 2.093 . S
Co295 O319 2.097 . S
Co295 N336 2.151 . S
Co295 N344 2.214 1_455 S
Co296 O297 2.160 . S
Co296 O302 2.058 . S
Co296 O312 2.057 . S
Co296 O327 2.037 . S
Co296 N331 2.145 . S
Co296 N352 2.257 . S
O297 Co295 2.143 . S
O297 Co296 2.160 . S
C298 O299 1.278 . S
C298 O306 1.224 . S
O299 C298 1.278 . S
C300 O301 1.245 . S
C300 O312 1.232 . S
O301 C300 1.245 . S
O302 Co296 2.058 . S
O302 C328 1.269 . S
O303 Co295 2.074 . S
O303 C328 1.257 . S
H304 C329 0.930 . S
H305 C335 0.930 . S
O306 Co295 2.093 . S
O306 C298 1.224 . S
H307 C339 0.929 . S
H308 C341 0.930 . S
H309 C342 0.930 . S
H310 C340 0.929 . S
H311 C343 0.928 . S
O312 Co296 2.057 . S
O312 C300 1.232 . S
H313 C332 0.929 . S
H314 C333 0.929 . S
H315 C345 0.931 . S
H316 C337 0.929 . S
H317 C346 0.930 . S
H318 C338 0.931 . S
O319 Co295 2.097 . S
O319 C347 1.214 . S
H320 C348 0.929 . S
H321 C349 0.929 . S
H322 C350 0.930 . S
H323 C351 0.929 . S
H324 C353 0.930 . S
H325 C330 0.930 . S
H326 C334 0.930 . S
O327 Co296 2.037 . S
O327 C347 1.234 . S
C328 O302 1.269 . S
C328 O303 1.257 . S
C329 H304 0.930 . S
C329 C332 1.388 . S
C329 C334 1.418 . S
C330 H325 0.930 . S
C330 C333 1.404 1_554 S
C330 C334 1.353 . S
N331 Co296 2.145 . S
N331 C332 1.397 1_556 S
N331 C333 1.334 . S
C332 H313 0.929 . S
C332 C329 1.388 . S
C332 N331 1.397 1_554 S
C333 H314 0.929 . S
C333 C330 1.404 1_556 S
C333 N331 1.334 . S
C334 H326 0.930 . S
C334 C329 1.418 . S
C334 C330 1.353 . S
C335 H305 0.930 . S
C335 N336 1.330 . S
C335 C337 1.446 . S
N336 Co295 2.151 . S
N336 C335 1.330 . S
N336 C340 1.418 1_455 S
C337 H316 0.929 . S
C337 C335 1.446 . S
C337 C338 1.332 1_455 S
C338 H318 0.931 . S
C338 C337 1.332 1_655 S
C338 C339 1.267 . S
C339 H307 0.929 . S
C339 C338 1.267 . S
C339 C340 1.251 . S
C340 H310 0.929 . S
C340 N336 1.418 1_655 S
C340 C339 1.251 . S
C341 H308 0.930 . S
C341 C343 1.406 . S
C341 C346 1.261 . S
C342 H309 0.930 . S
C342 N344 1.325 . S
C342 C345 1.357 . S
C343 H311 0.928 . S
C343 C341 1.406 . S
C343 N344 1.261 . S
N344 Co295 2.214 1_655 S
N344 C342 1.325 . S
N344 C343 1.261 . S
C345 H315 0.931 . S
C345 C342 1.357 . S
C345 C346 1.312 . S
C346 H317 0.930 . S
C346 C341 1.261 . S
C346 C345 1.312 . S
C347 O319 1.214 . S
C347 O327 1.234 . S
C348 H320 0.929 . S
C348 C351 1.391 . S
C348 C353 1.391 . S
C349 H321 0.929 . S
C349 C350 1.390 . S
C349 N352 1.391 . S
C350 H322 0.930 . S
C350 C349 1.390 . S
C350 C351 1.392 . S
C351 H323 0.929 . S
C351 C348 1.391 . S
C351 C350 1.392 . S
N352 Co296 2.257 . S
N352 C349 1.391 . S
N352 C353 1.388 . S
C353 H324 0.930 . S
C353 C348 1.391 . S
C353 N352 1.388 . S
H354 C362 0.929 . S
H355 C364 0.930 . S
H356 C366 0.930 1_565 S
H357 C369 0.929 1_565 S
H358 C372 0.930 . S
H359 C374 0.960 . S
H360 C374 0.960 . S
H361 C374 0.960 1_565 S
C362 H354 0.929 . S
C362 C363 1.377 . S
C362 C364 1.384 . S
C363 C362 1.377 . S
C363 C369 1.390 . S
C364 H355 0.930 . S
C364 C362 1.384 . S
C364 C365 1.372 . S
C365 C364 1.372 . S
C365 C366 1.400 . S
C365 C370 1.490 . S
C366 H356 0.930 1_545 S
C366 C365 1.400 . S
C366 C369 1.386 . S
H367 C383 0.930 1_565 S
H368 C384 0.931 1_565 S
C369 H357 0.929 1_545 S
C369 C363 1.390 . S
C369 C366 1.386 . S
C370 C365 1.490 . S
C370 C372 1.395 . S
C370 C373 1.403 . S
H371 C377 0.930 . S
C372 H358 0.930 . S
C372 C370 1.395 . S
C372 C375 1.403 . S
C373 C370 1.403 . S
C373 C374 1.524 . S
C373 C377 1.400 . S
C374 H359 0.960 . S
C374 H360 0.960 . S
C374 H361 0.960 1_545 S
C374 C373 1.524 . S
C375 C372 1.403 . S
C375 C376 1.392 . S
C375 C379 1.495 . S
C376 C375 1.392 . S
C376 C377 1.385 . S
C376 C378 1.478 . S
C377 H371 0.930 . S
C377 C373 1.400 . S
C377 C376 1.385 . S
C378 C376 1.478 . S
C378 C380 1.381 . S
C378 C384 1.383 . S
C379 C375 1.495 . S
C379 H385 0.959 . S
C379 H386 0.961 . S
C379 H387 0.960 . S
C380 C378 1.381 . S
C380 C381 1.394 . S
C380 H388 0.930 . S
C381 C380 1.394 . S
C381 C382 1.383 . S
C381 H389 0.929 . S
C382 C381 1.383 . S
C382 C383 1.377 . S
C383 H367 0.930 1_545 S
C383 C382 1.377 . S
C383 C384 1.379 . S
C384 H368 0.931 1_545 S
C384 C378 1.383 . S
C384 C383 1.379 . S
H385 C379 0.959 . S
H386 C379 0.961 . S
H387 C379 0.960 . S
H388 C380 0.930 . S
H389 C381 0.929 . S
H390 C398 0.929 . S
H391 C400 0.930 . S
H392 C402 0.930 . S
H393 C405 0.929 . S
H394 C408 0.930 . S
H395 C410 0.960 . S
H396 C410 0.960 . S
H397 C410 0.960 . S
C398 H390 0.929 . S
C398 C399 1.377 . S
C398 C400 1.384 . S
C399 C398 1.377 . S
C399 C405 1.390 . S
C400 H391 0.930 . S
C400 C398 1.384 . S
C400 C401 1.372 . S
C401 C400 1.372 . S
C401 C402 1.400 . S
C401 C406 1.490 . S
C402 H392 0.930 . S
C402 C401 1.400 . S
C402 C405 1.386 . S
H403 C419 0.930 . S
H404 C420 0.931 . S
C405 H393 0.929 . S
C405 C399 1.390 . S
C405 C402 1.386 . S
C406 C401 1.490 . S
C406 C408 1.395 . S
C406 C409 1.403 . S
H407 C413 0.930 . S
C408 H394 0.930 . S
C408 C406 1.395 . S
C408 C411 1.403 . S
C409 C406 1.403 . S
C409 C410 1.524 . S
C409 C413 1.400 . S
C410 H395 0.960 . S
C410 H396 0.960 . S
C410 H397 0.960 . S
C410 C409 1.524 . S
C411 C408 1.403 . S
C411 C412 1.392 . S
C411 C415 1.495 . S
C412 C411 1.392 . S
C412 C413 1.385 . S
C412 C414 1.478 . S
C413 H407 0.930 . S
C413 C409 1.400 . S
C413 C412 1.385 . S
C414 C412 1.478 . S
C414 C416 1.381 . S
C414 C420 1.383 . S
C415 C411 1.495 . S
C415 H421 0.959 . S
C415 H422 0.961 . S
C415 H423 0.960 . S
C416 C414 1.381 . S
C416 C417 1.394 . S
C416 H424 0.930 . S
C417 C416 1.394 . S
C417 C418 1.383 . S
C417 H425 0.929 . S
C418 C417 1.383 . S
C418 C419 1.377 . S
C419 H403 0.930 . S
C419 C418 1.377 . S
C419 C420 1.379 . S
C420 H404 0.931 . S
C420 C414 1.383 . S
C420 C419 1.379 . S
H421 C415 0.959 . S
H422 C415 0.961 . S
H423 C415 0.960 . S
H424 C416 0.930 . S
H425 C417 0.929 . S
H426 C434 0.929 . S
H427 C436 0.930 . S
H428 C438 0.930 . S
H429 C441 0.929 . S
H430 C444 0.930 . S
H431 C446 0.975 . S
H432 C446 0.961 1_455 S
H433 C446 0.956 . S
C434 H426 0.929 . S
C434 C435 1.377 . S
C434 C436 1.384 . S
C435 C434 1.377 . S
C435 C441 1.390 . S
C436 H427 0.930 . S
C436 C434 1.384 . S
C436 C437 1.372 . S
C437 C436 1.372 . S
C437 C438 1.400 . S
C437 C442 1.490 . S
C438 H428 0.930 . S
C438 C437 1.400 . S
C438 C441 1.386 . S
H439 C455 0.930 . S
H440 C456 0.931 . S
C441 H429 0.929 . S
C441 C435 1.390 . S
C441 C438 1.386 . S
C442 C437 1.490 . S
C442 C444 1.395 . S
C442 C445 1.403 . S
H443 C449 0.930 . S
C444 H430 0.930 . S
C444 C442 1.395 . S
C444 C447 1.403 . S
C445 C442 1.403 . S
C445 C446 1.513 1_455 S
C445 C449 1.400 . S
C446 H431 0.975 . S
C446 H432 0.961 1_655 S
C446 H433 0.956 . S
C446 C445 1.513 1_655 S
C447 C444 1.403 . S
C447 C448 1.392 . S
C447 C451 1.495 . S
C448 C447 1.392 . S
C448 C449 1.385 . S
C448 C450 1.478 . S
C449 H443 0.930 . S
C449 C445 1.400 . S
C449 C448 1.385 . S
C450 C448 1.478 . S
C450 C452 1.381 . S
C450 C456 1.383 . S
C451 C447 1.495 . S
C451 H457 0.959 . S
C451 H458 0.961 . S
C451 H459 0.960 . S
C452 C450 1.381 . S
C452 C453 1.394 . S
C452 H460 0.930 . S
C453 C452 1.394 . S
C453 C454 1.383 . S
C453 H461 0.929 . S
C454 C453 1.383 . S
C454 C455 1.377 . S
C455 H439 0.930 . S
C455 C454 1.377 . S
C455 C456 1.379 . S
C456 H440 0.931 . S
C456 C450 1.383 . S
C456 C455 1.379 . S
H457 C451 0.959 . S
H458 C451 0.961 . S
H459 C451 0.960 . S
H460 C452 0.930 . S
H461 C453 0.929 . S
H462 C470 0.929 . S
H463 C472 0.930 . S
H464 C474 0.930 . S
H465 C477 0.929 . S
H466 C480 0.930 . S
H467 C482 0.960 1_565 S
H468 C482 0.961 1_565 S
H469 C482 0.979 . S
C470 H462 0.929 . S
C470 C471 1.377 . S
C470 C472 1.384 . S
C471 C470 1.377 . S
C471 C477 1.390 . S
C472 H463 0.930 . S
C472 C470 1.384 . S
C472 C473 1.372 . S
C473 C472 1.372 . S
C473 C474 1.400 . S
C473 C478 1.490 . S
C474 H464 0.930 . S
C474 C473 1.400 . S
C474 C477 1.386 . S
H475 C491 0.930 . S
H476 C492 0.931 . S
C477 H465 0.929 . S
C477 C471 1.390 . S
C477 C474 1.386 . S
C478 C473 1.490 . S
C478 C480 1.395 . S
C478 C481 1.403 . S
H479 C485 0.930 . S
C480 H466 0.930 . S
C480 C478 1.395 . S
C480 C483 1.403 . S
C481 C478 1.403 . S
C481 C482 1.524 . S
C481 C485 1.400 . S
C482 H467 0.960 1_545 S
C482 H468 0.961 1_545 S
C482 H469 0.979 . S
C482 C481 1.524 . S
C483 C480 1.403 . S
C483 C484 1.392 . S
C483 C487 1.495 . S
C484 C483 1.392 . S
C484 C485 1.385 . S
C484 C486 1.478 . S
C485 H479 0.930 . S
C485 C481 1.400 . S
C485 C484 1.385 . S
C486 C484 1.478 . S
C486 C488 1.381 . S
C486 C492 1.383 . S
C487 C483 1.495 . S
C487 H493 0.959 . S
C487 H494 0.961 . S
C487 H495 0.960 . S
C488 C486 1.381 . S
C488 C489 1.394 . S
C488 H496 0.930 . S
C489 C488 1.394 . S
C489 C490 1.383 . S
C489 H497 0.929 . S
C490 C489 1.383 . S
C490 C491 1.377 . S
C491 H475 0.930 . S
C491 C490 1.377 . S
C491 C492 1.379 . S
C492 H476 0.931 . S
C492 C486 1.383 . S
C492 C491 1.379 . S
H493 C487 0.959 . S
H494 C487 0.961 . S
H495 C487 0.960 . S
H496 C488 0.930 . S
H497 C489 0.929 . S
H498 C506 0.929 . S
H499 C508 0.930 . S
H500 C510 0.930 . S
H501 C513 0.929 . S
H502 C516 0.930 . S
H503 C518 0.960 1_556 S
H504 C518 0.960 1_556 S
H505 C518 0.960 . S
C506 H498 0.929 . S
C506 C507 1.377 . S
C506 C508 1.384 . S
C507 C506 1.377 . S
C507 C513 1.390 . S
C508 H499 0.930 . S
C508 C506 1.384 . S
C508 C509 1.372 . S
C509 C508 1.372 . S
C509 C510 1.400 . S
C509 C514 1.490 1_554 S
C510 H500 0.930 . S
C510 C509 1.400 . S
C510 C513 1.386 . S
H511 C527 0.930 . S
H512 C528 0.931 . S
C513 H501 0.929 . S
C513 C507 1.390 . S
C513 C510 1.386 . S
C514 C509 1.490 1_556 S
C514 C516 1.395 . S
C514 C517 1.403 . S
H515 C521 0.930 . S
C516 H502 0.930 . S
C516 C514 1.395 . S
C516 C519 1.403 . S
C517 C514 1.403 . S
C517 C518 1.524 1_556 S
C517 C521 1.400 . S
C518 H503 0.960 1_554 S
C518 H504 0.960 1_554 S
C518 H505 0.960 . S
C518 C517 1.524 1_554 S
C519 C516 1.403 . S
C519 C520 1.392 . S
C519 C523 1.495 . S
C520 C519 1.392 . S
C520 C521 1.385 . S
C520 C522 1.478 . S
C521 H515 0.930 . S
C521 C517 1.400 . S
C521 C520 1.385 . S
C522 C520 1.478 . S
C522 C524 1.381 . S
C522 C528 1.383 . S
C523 C519 1.495 . S
C523 H529 0.959 . S
C523 H530 0.961 . S
C523 H531 0.960 . S
C524 C522 1.381 . S
C524 C525 1.394 . S
C524 H532 0.930 . S
C525 C524 1.394 . S
C525 C526 1.383 . S
C525 H533 0.929 . S
C526 C525 1.383 . S
C526 C527 1.377 . S
C527 H511 0.930 . S
C527 C526 1.377 . S
C527 C528 1.379 . S
C528 H512 0.931 . S
C528 C522 1.383 . S
C528 C527 1.379 . S
H529 C523 0.959 . S
H530 C523 0.961 . S
H531 C523 0.960 . S
H532 C524 0.930 . S
H533 C525 0.929 . S
H534 C542 0.929 . S
H535 C544 0.930 . S
H536 C546 0.930 . S
H537 C549 0.929 . S
H538 C552 0.930 . S
H539 C554 0.960 . S
H540 C554 0.960 . S
H541 C554 0.960 . S
C542 H534 0.929 . S
C542 C543 1.391 . S
C542 C544 1.384 . S
C543 C542 1.391 . S
C543 C549 1.388 1_554 S
C544 H535 0.930 . S
C544 C542 1.384 . S
C544 C545 1.372 . S
C545 C544 1.372 . S
C545 C546 1.400 . S
C545 C550 1.490 . S
C546 H536 0.930 . S
C546 C545 1.400 . S
C546 C549 1.386 1_554 S
H547 C563 0.930 . S
H548 C564 0.931 . S
C549 H537 0.929 . S
C549 C543 1.388 1_556 S
C549 C546 1.386 1_556 S
C550 C545 1.490 . S
C550 C552 1.395 . S
C550 C553 1.403 . S
H551 C557 0.901 1_655 S
C552 H538 0.930 . S
C552 C550 1.395 . S
C552 C555 1.403 . S
C553 C550 1.403 . S
C553 C554 1.524 1_455 S
C553 C557 1.400 . S
C554 H539 0.960 . S
C554 H540 0.960 . S
C554 H541 0.960 . S
C554 C553 1.524 1_655 S
C555 C552 1.403 . S
C555 C556 1.392 . S
C555 C559 1.495 . S
C556 C555 1.392 . S
C556 C557 1.385 . S
C556 C558 1.478 . S
C557 H551 0.901 1_455 S
C557 C553 1.400 . S
C557 C556 1.385 . S
C558 C556 1.478 . S
C558 C560 1.381 . S
C558 C564 1.383 . S
C559 C555 1.495 . S
C559 H565 0.959 . S
C559 H566 0.961 . S
C559 H567 0.960 . S
C560 C558 1.381 . S
C560 C561 1.394 . S
C560 H568 0.930 . S
C561 C560 1.394 . S
C561 C562 1.383 . S
C561 H569 0.929 . S
C562 C561 1.383 . S
C562 C563 1.377 . S
C563 H547 0.930 . S
C563 C562 1.377 . S
C563 C564 1.379 . S
C564 H548 0.931 . S
C564 C558 1.383 . S
C564 C563 1.379 . S
H565 C559 0.959 . S
H566 C559 0.961 . S
H567 C559 0.960 . S
H568 C560 0.930 . S
H569 C561 0.929 . S
H570 C578 0.929 . S
H571 C580 0.930 . S
H572 C582 0.930 . S
H573 C585 0.929 . S
H574 C588 0.930 . S
H575 C590 0.960 . S
H576 C590 0.960 . S
H577 C590 0.960 . S
C578 H570 0.929 . S
C578 C579 1.377 . S
C578 C580 1.384 . S
C579 C578 1.377 . S
C579 C585 1.390 . S
C580 H571 0.930 . S
C580 C578 1.384 . S
C580 C581 1.372 . S
C581 C580 1.372 . S
C581 C582 1.400 . S
C581 C586 1.490 . S
C582 H572 0.930 . S
C582 C581 1.400 . S
C582 C585 1.386 . S
H583 C599 0.930 . S
H584 C600 0.931 . S
C585 H573 0.929 . S
C585 C579 1.390 . S
C585 C582 1.386 . S
C586 C581 1.490 . S
C586 C588 1.395 . S
C586 C589 1.403 . S
H587 C593 0.930 . S
C588 H574 0.930 . S
C588 C586 1.395 . S
C588 C591 1.403 . S
C589 C586 1.403 . S
C589 C590 1.524 . S
C589 C593 1.400 . S
C590 H575 0.960 . S
C590 H576 0.960 . S
C590 H577 0.960 . S
C590 C589 1.524 . S
C591 C588 1.403 . S
C591 C592 1.392 . S
C591 C595 1.495 . S
C592 C591 1.392 . S
C592 C593 1.385 . S
C592 C594 1.478 . S
C593 H587 0.930 . S
C593 C589 1.400 . S
C593 C592 1.385 . S
C594 C592 1.478 . S
C594 C596 1.381 . S
C594 C600 1.383 . S
C595 C591 1.495 . S
C595 H601 0.959 . S
C595 H602 0.961 . S
C595 H603 0.960 . S
C596 C594 1.381 . S
C596 C597 1.394 . S
C596 H604 0.930 . S
C597 C596 1.394 . S
C597 C598 1.383 . S
C597 H605 0.929 1_565 S
C598 C597 1.383 . S
C598 C599 1.377 . S
C599 H583 0.930 . S
C599 C598 1.377 . S
C599 C600 1.379 . S
C600 H584 0.931 . S
C600 C594 1.383 . S
C600 C599 1.379 . S
H601 C595 0.959 . S
H602 C595 0.961 . S
H603 C595 0.960 . S
H604 C596 0.930 . S
H605 C597 0.929 1_545 S
H606 C614 0.929 . S
H607 C616 0.930 . S
H608 C618 0.930 . S
H609 C621 0.929 . S
H610 C624 0.930 . S
H611 C626 0.960 . S
H612 C626 0.960 . S
H613 C626 0.960 . S
C614 H606 0.929 . S
C614 C615 1.377 . S
C614 C616 1.384 . S
C615 C614 1.377 . S
C615 C621 1.390 . S
C616 H607 0.930 . S
C616 C614 1.384 . S
C616 C617 1.372 . S
C617 C616 1.372 . S
C617 C618 1.400 . S
C617 C622 1.490 . S
C618 H608 0.930 . S
C618 C617 1.400 . S
C618 C621 1.386 . S
H619 C635 0.930 . S
H620 C636 0.931 . S
C621 H609 0.929 . S
C621 C615 1.390 . S
C621 C618 1.386 . S
C622 C617 1.490 . S
C622 C624 1.395 . S
C622 C625 1.403 . S
H623 C629 0.930 . S
C624 H610 0.930 . S
C624 C622 1.395 . S
C624 C627 1.403 . S
C625 C622 1.403 . S
C625 C626 1.524 . S
C625 C629 1.400 . S
C626 H611 0.960 . S
C626 H612 0.960 . S
C626 H613 0.960 . S
C626 C625 1.524 . S
C627 C624 1.403 . S
C627 C628 1.392 . S
C627 C631 1.495 . S
C628 C627 1.392 . S
C628 C629 1.385 . S
C628 C630 1.478 . S
C629 H623 0.930 . S
C629 C625 1.400 . S
C629 C628 1.385 . S
C630 C628 1.478 . S
C630 C632 1.381 . S
C630 C636 1.383 . S
C631 C627 1.495 . S
C631 H637 0.959 . S
C631 H638 0.961 . S
C631 H639 0.960 . S
C632 C630 1.381 . S
C632 C633 1.394 . S
C632 H640 0.930 . S
C633 C632 1.394 . S
C633 C634 1.383 . S
C633 H641 0.929 . S
C634 C633 1.383 . S
C634 C635 1.377 . S
C635 H619 0.930 . S
C635 C634 1.377 . S
C635 C636 1.379 . S
C636 H620 0.931 . S
C636 C630 1.383 . S
C636 C635 1.379 . S
H637 C631 0.959 . S
H638 C631 0.961 . S
H639 C631 0.960 . S
H640 C632 0.930 . S
H641 C633 0.929 . S
H642 C650 0.929 . S
H643 C652 0.930 . S
H644 C654 0.930 . S
H645 C657 0.929 . S
H646 C660 0.930 . S
H647 C662 0.960 . S
H648 C662 0.960 . S
H649 C662 0.960 . S
C650 H642 0.929 . S
C650 C651 1.377 . S
C650 C652 1.384 . S
C651 C650 1.377 . S
C651 C657 1.390 . S
C652 H643 0.930 . S
C652 C650 1.384 . S
C652 C653 1.372 . S
C653 C652 1.372 . S
C653 C654 1.400 . S
C653 C658 1.490 . S
C654 H644 0.930 . S
C654 C653 1.400 . S
C654 C657 1.386 . S
H655 C671 0.930 . S
H656 C672 0.931 . S
C657 H645 0.929 . S
C657 C651 1.390 . S
C657 C654 1.386 . S
C658 C653 1.490 . S
C658 C660 1.395 . S
C658 C661 1.403 . S
H659 C665 0.930 . S
C660 H646 0.930 . S
C660 C658 1.395 . S
C660 C663 1.403 . S
C661 C658 1.403 . S
C661 C662 1.524 . S
C661 C665 1.400 . S
C662 H647 0.960 . S
C662 H648 0.960 . S
C662 H649 0.960 . S
C662 C661 1.524 . S
C663 C660 1.403 . S
C663 C664 1.392 . S
C663 C667 1.495 . S
C664 C663 1.392 . S
C664 C665 1.385 . S
C664 C666 1.478 . S
C665 H659 0.930 . S
C665 C661 1.400 . S
C665 C664 1.385 . S
C666 C664 1.478 . S
C666 C668 1.381 . S
C666 C672 1.383 . S
C667 C663 1.495 . S
C667 H673 0.959 . S
C667 H674 0.961 . S
C667 H675 0.960 . S
C668 C666 1.381 . S
C668 C669 1.394 . S
C668 H676 0.930 . S
C669 C668 1.394 . S
C669 C670 1.383 . S
C669 H677 0.929 . S
C670 C669 1.383 . S
C670 C671 1.377 . S
C671 H655 0.930 . S
C671 C670 1.377 . S
C671 C672 1.379 . S
C672 H656 0.931 . S
C672 C666 1.383 . S
C672 C671 1.379 . S
H673 C667 0.959 . S
H674 C667 0.961 . S
H675 C667 0.960 . S
H676 C668 0.930 . S
H677 C669 0.929 . S
H678 C686 0.929 . S
H679 C688 0.930 . S
H680 C690 0.930 . S
H681 C693 0.929 . S
H682 C696 0.930 . S
H683 C698 0.960 . S
H684 C698 0.960 . S
H685 C698 0.960 . S
C686 H678 0.929 . S
C686 C687 1.377 . S
C686 C688 1.384 . S
C687 C686 1.377 . S
C687 C693 1.390 . S
C688 H679 0.930 . S
C688 C686 1.384 . S
C688 C689 1.372 . S
C689 C688 1.372 . S
C689 C690 1.400 . S
C689 C694 1.490 . S
C690 H680 0.930 . S
C690 C689 1.400 . S
C690 C693 1.386 . S
H691 C707 0.930 . S
H692 C708 0.931 . S
C693 H681 0.929 . S
C693 C687 1.390 . S
C693 C690 1.386 . S
C694 C689 1.490 . S
C694 C696 1.395 . S
C694 C697 1.403 . S
H695 C701 0.930 . S
C696 H682 0.930 . S
C696 C694 1.395 . S
C696 C699 1.403 . S
C697 C694 1.403 . S
C697 C698 1.524 . S
C697 C701 1.400 . S
C698 H683 0.960 . S
C698 H684 0.960 . S
C698 H685 0.960 . S
C698 C697 1.524 . S
C699 C696 1.403 . S
C699 C700 1.392 . S
C699 C703 1.495 . S
C700 C699 1.392 . S
C700 C701 1.385 . S
C700 C702 1.478 . S
C701 H695 0.930 . S
C701 C697 1.400 . S
C701 C700 1.385 . S
C702 C700 1.478 . S
C702 C704 1.381 . S
C702 C708 1.383 . S
C703 C699 1.495 . S
C703 H709 0.959 . S
C703 H710 0.961 . S
C703 H711 0.960 . S
C704 C702 1.381 . S
C704 C705 1.394 . S
C704 H712 0.930 . S
C705 C704 1.394 . S
C705 C706 1.383 . S
C705 H713 0.929 . S
C706 C705 1.383 . S
C706 C707 1.377 . S
C707 H691 0.930 . S
C707 C706 1.377 . S
C707 C708 1.379 . S
C708 H692 0.931 . S
C708 C702 1.383 . S
C708 C707 1.379 . S
H709 C703 0.959 . S
H710 C703 0.961 . S
H711 C703 0.960 . S
H712 C704 0.930 . S
H713 C705 0.929 . S
H714 C722 0.929 . S
H715 C724 0.930 . S
H716 C726 0.930 . S
H717 C729 0.929 . S
H718 C732 0.930 . S
H719 C734 0.960 . S
H720 C734 0.960 . S
H721 C734 0.960 . S
C722 H714 0.929 . S
C722 C723 1.377 . S
C722 C724 1.384 . S
C723 C722 1.377 . S
C723 C729 1.390 . S
C724 H715 0.930 . S
C724 C722 1.384 . S
C724 C725 1.372 . S
C725 C724 1.372 . S
C725 C726 1.400 . S
C725 C730 1.490 . S
C726 H716 0.930 . S
C726 C725 1.400 . S
C726 C729 1.386 . S
H727 C743 0.930 . S
H728 C744 0.931 . S
C729 H717 0.929 . S
C729 C723 1.390 . S
C729 C726 1.386 . S
C730 C725 1.490 . S
C730 C732 1.395 . S
C730 C733 1.403 . S
H731 C737 0.930 . S
C732 H718 0.930 . S
C732 C730 1.395 . S
C732 C735 1.403 . S
C733 C730 1.403 . S
C733 C734 1.524 . S
C733 C737 1.400 . S
C734 H719 0.960 . S
C734 H720 0.960 . S
C734 H721 0.960 . S
C734 C733 1.524 . S
C735 C732 1.403 . S
C735 C736 1.392 . S
C735 C739 1.495 . S
C736 C735 1.392 . S
C736 C737 1.385 . S
C736 C738 1.478 . S
C737 H731 0.930 . S
C737 C733 1.400 . S
C737 C736 1.385 . S
C738 C736 1.478 . S
C738 C740 1.381 . S
C738 C744 1.383 . S
C739 C735 1.495 . S
C739 H745 0.959 . S
C739 H746 0.961 . S
C739 H747 0.960 . S
C740 C738 1.381 . S
C740 C741 1.394 . S
C740 H748 0.930 . S
C741 C740 1.394 . S
C741 C742 1.383 . S
C741 H749 0.929 . S
C742 C741 1.383 . S
C742 C743 1.377 . S
C743 H727 0.930 . S
C743 C742 1.377 . S
C743 C744 1.379 . S
C744 H728 0.931 . S
C744 C738 1.383 . S
C744 C743 1.379 . S
H745 C739 0.959 . S
H746 C739 0.961 . S
H747 C739 0.960 . S
H748 C740 0.930 . S
H749 C741 0.929 . S
H750 C758 0.929 . S
H751 C760 0.930 . S
H752 C762 0.930 1_554 S
H753 C765 0.929 1_554 S
H754 C768 0.930 . S
H755 C770 0.960 . S
H756 C770 0.960 1_556 S
H757 C770 0.960 . S
C758 H750 0.929 . S
C758 C759 1.377 . S
C758 C760 1.384 . S
C759 C758 1.377 . S
C759 C765 1.390 . S
C760 H751 0.930 . S
C760 C758 1.384 . S
C760 C761 1.372 . S
C761 C760 1.372 . S
C761 C762 1.400 . S
C761 C766 1.490 . S
C762 H752 0.930 1_556 S
C762 C761 1.400 . S
C762 C765 1.386 . S
H763 C779 0.930 . S
H764 C780 0.931 . S
C765 H753 0.929 1_556 S
C765 C759 1.390 . S
C765 C762 1.386 . S
C766 C761 1.490 . S
C766 C768 1.395 . S
C766 C769 1.403 . S
H767 C773 0.932 . S
C768 H754 0.930 . S
C768 C766 1.395 . S
C768 C771 1.403 . S
C769 C766 1.403 . S
C769 C770 1.524 1_556 S
C769 C773 1.399 1_556 S
C770 H755 0.960 . S
C770 H756 0.960 1_554 S
C770 H757 0.960 . S
C770 C769 1.524 1_554 S
C771 C768 1.403 . S
C771 C772 1.392 . S
C771 C775 1.495 . S
C772 C771 1.392 . S
C772 C773 1.384 1_556 S
C772 C774 1.478 . S
C773 H767 0.932 . S
C773 C769 1.399 1_554 S
C773 C772 1.384 1_554 S
C774 C772 1.478 . S
C774 C776 1.381 . S
C774 C780 1.383 1_556 S
C775 C771 1.495 . S
C775 H781 0.959 . S
C775 H782 0.961 . S
C775 H783 0.960 . S
C776 C774 1.381 . S
C776 C777 1.394 . S
C776 H784 0.930 . S
C777 C776 1.394 . S
C777 C778 1.383 1_556 S
C777 H785 0.929 . S
C778 C777 1.383 1_554 S
C778 C779 1.377 . S
C779 H763 0.930 . S
C779 C778 1.377 . S
C779 C780 1.379 . S
C780 H764 0.931 . S
C780 C774 1.383 1_554 S
C780 C779 1.379 . S
H781 C775 0.959 . S
H782 C775 0.961 . S
H783 C775 0.960 . S
H784 C776 0.930 . S
H785 C777 0.929 . S
C363 C52 1.919 . S
C382 C180 1.908 . S
C399 C111 1.917 . S
C418 C239 1.915 . S
C435 C298 1.907 . S
C454 C170 1.920 . S
C471 C3 1.906 . S
C490 C229 1.921 . S
C507 C62 1.911 . S
C526 C288 1.909 . S
C543 C347 1.908 1_554 S
C562 C121 1.894 . S
C579 C64 1.360 . S
C598 C33 1.354 1_565 S
C615 C123 1.360 . S
C634 C92 1.352 . S
C651 C151 1.351 . S
C670 C182 1.363 . S
C687 C241 1.358 . S
C706 C210 1.364 . S
C723 C300 1.359 . S
C742 C269 1.357 . S
C759 C328 1.350 1_655 S
C778 C5 1.367 . S
