# Generated by pormake.
# Topology yfr, (5)-cn, num edge types: 1
# Building blocks:
#     Node 0, Type 0, BuildingBlock: XOMCOT_clean_sbu_1, # of connection points: 5
#     Node 1, Type 0, BuildingBlock: XOMCOT_clean_sbu_1, # of connection points: 5
#     Node 2, Type 0, BuildingBlock: XOMCOT_clean_sbu_1, # of connection points: 5
#     Node 3, Type 0, BuildingBlock: XOMCOT_clean_sbu_1, # of connection points: 5
#     Node 4, Type 0, BuildingBlock: XOMCOT_clean_sbu_1, # of connection points: 5
#     Node 5, Type 0, BuildingBlock: XOMCOT_clean_sbu_1, # of connection points: 5
#     Node 6, Type 0, BuildingBlock: XOMCOT_clean_sbu_1, # of connection points: 5
#     Node 7, Type 0, BuildingBlock: XOMCOT_clean_sbu_1, # of connection points: 5
#     Node 8, Type 0, BuildingBlock: XOMCOT_clean_sbu_1, # of connection points: 5
#     Node 9, Type 0, BuildingBlock: XOMCOT_clean_sbu_1, # of connection points: 5
#     Node 10, Type 0, BuildingBlock: XOMCOT_clean_sbu_1, # of connection points: 5
#     Node 11, Type 0, BuildingBlock: XOMCOT_clean_sbu_1, # of connection points: 5
#     Node 12, Type 0, BuildingBlock: XOMCOT_clean_sbu_1, # of connection points: 5
#     Node 13, Type 0, BuildingBlock: XOMCOT_clean_sbu_1, # of connection points: 5
#     Node 14, Type 0, BuildingBlock: XOMCOT_clean_sbu_1, # of connection points: 5
#     Node 15, Type 0, BuildingBlock: XOMCOT_clean_sbu_1, # of connection points: 5
#     Node 16, Type 0, BuildingBlock: XOMCOT_clean_sbu_1, # of connection points: 5
#     Node 17, Type 0, BuildingBlock: XOMCOT_clean_sbu_1, # of connection points: 5
#     Node 18, Type 0, BuildingBlock: XOMCOT_clean_sbu_1, # of connection points: 5
#     Node 19, Type 0, BuildingBlock: XOMCOT_clean_sbu_1, # of connection points: 5
#     Node 20, Type 0, BuildingBlock: XOMCOT_clean_sbu_1, # of connection points: 5
#     Node 21, Type 0, BuildingBlock: XOMCOT_clean_sbu_1, # of connection points: 5
#     Node 22, Type 0, BuildingBlock: XOMCOT_clean_sbu_1, # of connection points: 5
#     Node 23, Type 0, BuildingBlock: XOMCOT_clean_sbu_1, # of connection points: 5
#     Node 24, Type 0, BuildingBlock: XOMCOT_clean_sbu_1, # of connection points: 5
#     Node 25, Type 0, BuildingBlock: XOMCOT_clean_sbu_1, # of connection points: 5
#     Node 26, Type 0, BuildingBlock: XOMCOT_clean_sbu_1, # of connection points: 5
#     Node 27, Type 0, BuildingBlock: XOMCOT_clean_sbu_1, # of connection points: 5
#     Node 28, Type 0, BuildingBlock: XOMCOT_clean_sbu_1, # of connection points: 5
#     Node 29, Type 0, BuildingBlock: XOMCOT_clean_sbu_1, # of connection points: 5
#     Node 30, Type 0, BuildingBlock: XOMCOT_clean_sbu_1, # of connection points: 5
#     Node 31, Type 0, BuildingBlock: XOMCOT_clean_sbu_1, # of connection points: 5
#     Edge 32, Type (0, 0), BuildingBlock: AJUNOK_clean_linker_0, # of connection points: 2
#     Edge 33, Type (0, 0), BuildingBlock: AJUNOK_clean_linker_0, # of connection points: 2
#     Edge 34, Type (0, 0), BuildingBlock: AJUNOK_clean_linker_0, # of connection points: 2
#     Edge 35, Type (0, 0), BuildingBlock: AJUNOK_clean_linker_0, # of connection points: 2
#     Edge 36, Type (0, 0), BuildingBlock: AJUNOK_clean_linker_0, # of connection points: 2
#     Edge 37, Type (0, 0), BuildingBlock: AJUNOK_clean_linker_0, # of connection points: 2
#     Edge 38, Type (0, 0), BuildingBlock: AJUNOK_clean_linker_0, # of connection points: 2
#     Edge 39, Type (0, 0), BuildingBlock: AJUNOK_clean_linker_0, # of connection points: 2
#     Edge 40, Type (0, 0), BuildingBlock: AJUNOK_clean_linker_0, # of connection points: 2
#     Edge 41, Type (0, 0), BuildingBlock: AJUNOK_clean_linker_0, # of connection points: 2
#     Edge 42, Type (0, 0), BuildingBlock: AJUNOK_clean_linker_0, # of connection points: 2
#     Edge 43, Type (0, 0), BuildingBlock: AJUNOK_clean_linker_0, # of connection points: 2
#     Edge 44, Type (0, 0), BuildingBlock: AJUNOK_clean_linker_0, # of connection points: 2
#     Edge 45, Type (0, 0), BuildingBlock: AJUNOK_clean_linker_0, # of connection points: 2
#     Edge 46, Type (0, 0), BuildingBlock: AJUNOK_clean_linker_0, # of connection points: 2
#     Edge 47, Type (0, 0), BuildingBlock: AJUNOK_clean_linker_0, # of connection points: 2
#     Edge 48, Type (0, 0), BuildingBlock: AJUNOK_clean_linker_0, # of connection points: 2
#     Edge 49, Type (0, 0), BuildingBlock: AJUNOK_clean_linker_0, # of connection points: 2
#     Edge 50, Type (0, 0), BuildingBlock: AJUNOK_clean_linker_0, # of connection points: 2
#     Edge 51, Type (0, 0), BuildingBlock: AJUNOK_clean_linker_0, # of connection points: 2
#     Edge 52, Type (0, 0), BuildingBlock: AJUNOK_clean_linker_0, # of connection points: 2
#     Edge 53, Type (0, 0), BuildingBlock: AJUNOK_clean_linker_0, # of connection points: 2
#     Edge 54, Type (0, 0), BuildingBlock: AJUNOK_clean_linker_0, # of connection points: 2
#     Edge 55, Type (0, 0), BuildingBlock: AJUNOK_clean_linker_0, # of connection points: 2
#     Edge 56, Type (0, 0), BuildingBlock: AJUNOK_clean_linker_0, # of connection points: 2
#     Edge 57, Type (0, 0), BuildingBlock: AJUNOK_clean_linker_0, # of connection points: 2
#     Edge 58, Type (0, 0), BuildingBlock: AJUNOK_clean_linker_0, # of connection points: 2
#     Edge 59, Type (0, 0), BuildingBlock: AJUNOK_clean_linker_0, # of connection points: 2
#     Edge 60, Type (0, 0), BuildingBlock: AJUNOK_clean_linker_0, # of connection points: 2
#     Edge 61, Type (0, 0), BuildingBlock: AJUNOK_clean_linker_0, # of connection points: 2
#     Edge 62, Type (0, 0), BuildingBlock: AJUNOK_clean_linker_0, # of connection points: 2
#     Edge 63, Type (0, 0), BuildingBlock: AJUNOK_clean_linker_0, # of connection points: 2
#     Edge 64, Type (0, 0), BuildingBlock: AJUNOK_clean_linker_0, # of connection points: 2
#     Edge 65, Type (0, 0), BuildingBlock: AJUNOK_clean_linker_0, # of connection points: 2
#     Edge 66, Type (0, 0), BuildingBlock: AJUNOK_clean_linker_0, # of connection points: 2
#     Edge 67, Type (0, 0), BuildingBlock: AJUNOK_clean_linker_0, # of connection points: 2
#     Edge 68, Type (0, 0), BuildingBlock: AJUNOK_clean_linker_0, # of connection points: 2
#     Edge 69, Type (0, 0), BuildingBlock: AJUNOK_clean_linker_0, # of connection points: 2
#     Edge 70, Type (0, 0), BuildingBlock: AJUNOK_clean_linker_0, # of connection points: 2
#     Edge 71, Type (0, 0), BuildingBlock: AJUNOK_clean_linker_0, # of connection points: 2
#     Edge 72, Type (0, 0), BuildingBlock: AJUNOK_clean_linker_0, # of connection points: 2
#     Edge 73, Type (0, 0), BuildingBlock: AJUNOK_clean_linker_0, # of connection points: 2
#     Edge 74, Type (0, 0), BuildingBlock: AJUNOK_clean_linker_0, # of connection points: 2
#     Edge 75, Type (0, 0), BuildingBlock: AJUNOK_clean_linker_0, # of connection points: 2
#     Edge 76, Type (0, 0), BuildingBlock: AJUNOK_clean_linker_0, # of connection points: 2
#     Edge 77, Type (0, 0), BuildingBlock: AJUNOK_clean_linker_0, # of connection points: 2
#     Edge 78, Type (0, 0), BuildingBlock: AJUNOK_clean_linker_0, # of connection points: 2
#     Edge 79, Type (0, 0), BuildingBlock: AJUNOK_clean_linker_0, # of connection points: 2
#     Edge 80, Type (0, 0), BuildingBlock: AJUNOK_clean_linker_0, # of connection points: 2
#     Edge 81, Type (0, 0), BuildingBlock: AJUNOK_clean_linker_0, # of connection points: 2
#     Edge 82, Type (0, 0), BuildingBlock: AJUNOK_clean_linker_0, # of connection points: 2
#     Edge 83, Type (0, 0), BuildingBlock: AJUNOK_clean_linker_0, # of connection points: 2
#     Edge 84, Type (0, 0), BuildingBlock: AJUNOK_clean_linker_0, # of connection points: 2
#     Edge 85, Type (0, 0), BuildingBlock: AJUNOK_clean_linker_0, # of connection points: 2
#     Edge 86, Type (0, 0), BuildingBlock: AJUNOK_clean_linker_0, # of connection points: 2
#     Edge 87, Type (0, 0), BuildingBlock: AJUNOK_clean_linker_0, # of connection points: 2
#     Edge 88, Type (0, 0), BuildingBlock: AJUNOK_clean_linker_0, # of connection points: 2
#     Edge 89, Type (0, 0), BuildingBlock: AJUNOK_clean_linker_0, # of connection points: 2
#     Edge 90, Type (0, 0), BuildingBlock: AJUNOK_clean_linker_0, # of connection points: 2
#     Edge 91, Type (0, 0), BuildingBlock: AJUNOK_clean_linker_0, # of connection points: 2
#     Edge 92, Type (0, 0), BuildingBlock: AJUNOK_clean_linker_0, # of connection points: 2
#     Edge 93, Type (0, 0), BuildingBlock: AJUNOK_clean_linker_0, # of connection points: 2
#     Edge 94, Type (0, 0), BuildingBlock: AJUNOK_clean_linker_0, # of connection points: 2
#     Edge 95, Type (0, 0), BuildingBlock: AJUNOK_clean_linker_0, # of connection points: 2
#     Edge 96, Type (0, 0), BuildingBlock: AJUNOK_clean_linker_0, # of connection points: 2
#     Edge 97, Type (0, 0), BuildingBlock: AJUNOK_clean_linker_0, # of connection points: 2
#     Edge 98, Type (0, 0), BuildingBlock: AJUNOK_clean_linker_0, # of connection points: 2
#     Edge 99, Type (0, 0), BuildingBlock: AJUNOK_clean_linker_0, # of connection points: 2
#     Edge 100, Type (0, 0), BuildingBlock: AJUNOK_clean_linker_0, # of connection points: 2
#     Edge 101, Type (0, 0), BuildingBlock: AJUNOK_clean_linker_0, # of connection points: 2
#     Edge 102, Type (0, 0), BuildingBlock: AJUNOK_clean_linker_0, # of connection points: 2
#     Edge 103, Type (0, 0), BuildingBlock: AJUNOK_clean_linker_0, # of connection points: 2
#     Edge 104, Type (0, 0), BuildingBlock: AJUNOK_clean_linker_0, # of connection points: 2
#     Edge 105, Type (0, 0), BuildingBlock: AJUNOK_clean_linker_0, # of connection points: 2
#     Edge 106, Type (0, 0), BuildingBlock: AJUNOK_clean_linker_0, # of connection points: 2
#     Edge 107, Type (0, 0), BuildingBlock: AJUNOK_clean_linker_0, # of connection points: 2
#     Edge 108, Type (0, 0), BuildingBlock: AJUNOK_clean_linker_0, # of connection points: 2
#     Edge 109, Type (0, 0), BuildingBlock: AJUNOK_clean_linker_0, # of connection points: 2
#     Edge 110, Type (0, 0), BuildingBlock: AJUNOK_clean_linker_0, # of connection points: 2
#     Edge 111, Type (0, 0), BuildingBlock: AJUNOK_clean_linker_0, # of connection points: 2
# Relax obj value: 0.569
# Max RMSD: 0.322
# Mean RMSD: 0.322
data_MOF--net-yfr--node1-XOMCOT_clean_sbu_1--edge1-AJUNOK_clean_linker_0
_symmetry_space_group_name_H-M    P1
_symmetry_Int_Tables_number       1
_symmetry_cell_setting            triclinic
loop_
_symmetry_equiv_pos_as_xyz
'x, y, z'
_cell_length_a     39.894543
_cell_length_b     39.908826
_cell_length_c     47.426997
_cell_angle_alpha  89.911118
_cell_angle_beta   90.087749
_cell_angle_gamma 90.153729
loop_
_atom_site_label
_atom_site_type_symbol
_atom_site_fract_x
_atom_site_fract_y
_atom_site_fract_z
_atom_type_partial_charge
C0 C 0.0859 0.11563 0.31385 0.0
C1 C 0.06308 0.10577 0.33377 0.0
N2 N 0.03217 0.10845 0.32253 0.0
N3 N 0.06942 0.12539 0.29039 0.0
C4 C 0.03674 0.12074 0.29631 0.0
H5 H 0.1128 0.11488 0.31623 0.0
Co6 Co 0.08836 0.13607 0.256 0.0
C7 C 0.05408 0.19818 0.23513 0.0
O8 O 0.08183 0.20556 0.22165 0.0
N9 N 0.10821 0.14514 0.2206 0.0
C10 C 0.14304 0.15853 0.1857 0.0
C11 C 0.13961 0.1556 0.21439 0.0
C12 C 0.09329 0.14141 0.19508 0.0
N13 N 0.11385 0.14979 0.17353 0.0
O14 O 0.06325 0.09952 0.23997 0.0
H15 H 0.1591 0.16127 0.22936 0.0
H16 H 0.06777 0.13274 0.19243 0.0
O17 O 0.05203 0.17006 0.24851 0.0
C18 C 0.08158 0.07423 0.24576 0.0
O19 O 0.11237 0.07981 0.25451 0.0
N20 N 0.11472 0.16837 0.27453 0.0
C21 C 0.14973 0.20019 0.3175 0.0
C22 C 0.11855 0.21207 0.30895 0.0
C23 C 0.10102 0.19524 0.2881 0.0
C24 C 0.14577 0.15712 0.2822 0.0
C25 C 0.16386 0.17273 0.3038 0.0
H26 H 0.07521 0.20182 0.28575 0.0
H27 H 0.15517 0.13402 0.27336 0.0
H28 H 0.01671 0.12582 0.2815 0.0
H29 H 0.06885 0.09817 0.35514 0.0
H30 H 0.16521 0.16705 0.17465 0.0
H31 H 0.10654 0.2325 0.32005 0.0
H32 H 0.1876 0.16245 0.31069 0.0
C33 C 0.1487 0.80175 0.56338 0.0
C34 C 0.16104 0.77765 0.58119 0.0
N35 N 0.15504 0.74736 0.56973 0.0
N36 N 0.13456 0.7869 0.54078 0.0
C37 C 0.13875 0.75364 0.54521 0.0
H38 H 0.15105 0.82852 0.56625 0.0
Co39 Co 0.12112 0.81047 0.50847 0.0
C40 C 0.06985 0.76739 0.47826 0.0
O41 O 0.08476 0.77261 0.45401 0.0
N42 N 0.10839 0.83486 0.47531 0.0
C43 C 0.07997 0.8659 0.44421 0.0
C44 C 0.08163 0.85527 0.4718 0.0
C45 C 0.12234 0.83347 0.44922 0.0
N46 N 0.10551 0.85203 0.43004 0.0
O47 O 0.156 0.78714 0.48851 0.0
H48 H 0.0632 0.86086 0.48777 0.0
H49 H 0.1433 0.81764 0.44377 0.0
O50 O 0.08395 0.77782 0.50093 0.0
C51 C 0.18003 0.80709 0.49535 0.0
O52 O 0.17225 0.83653 0.50587 0.0
N53 N 0.09244 0.83553 0.53076 0.0
C54 C 0.07035 0.86884 0.57834 0.0
C55 C 0.05726 0.83734 0.57134 0.0
C56 C 0.06915 0.82074 0.54775 0.0
C57 C 0.10345 0.86734 0.536 0.0
C58 C 0.09253 0.88467 0.5598 0.0
H59 H 0.06248 0.79477 0.54524 0.0
H60 H 0.12293 0.87816 0.52301 0.0
H61 H 0.13141 0.73462 0.53017 0.0
H62 H 0.17348 0.78208 0.60115 0.0
H63 H 0.06018 0.88073 0.43483 0.0
H64 H 0.03951 0.8247 0.58502 0.0
H65 H 0.10286 0.90915 0.56457 0.0
C66 C 0.43004 0.91629 0.81058 0.0
C67 C 0.45001 0.92948 0.83118 0.0
N68 N 0.48083 0.9162 0.82856 0.0
N69 N 0.44799 0.89494 0.79473 0.0
C70 C 0.47889 0.89507 0.80622 0.0
H71 H 0.40417 0.9228 0.80661 0.0
Co72 Co 0.42909 0.87973 0.7618 0.0
C73 C 0.45572 0.81311 0.74656 0.0
O74 O 0.424 0.80638 0.74188 0.0
N75 N 0.40806 0.86682 0.72739 0.0
C76 C 0.37294 0.84904 0.69389 0.0
C77 C 0.37715 0.85392 0.7223 0.0
C78 C 0.42173 0.87005 0.70137 0.0
N79 N 0.40094 0.85925 0.68087 0.0
O80 O 0.45488 0.9138 0.74255 0.0
H81 H 0.35844 0.84791 0.73781 0.0
H82 H 0.44632 0.88052 0.6974 0.0
O83 O 0.46405 0.84266 0.75562 0.0
C84 C 0.43566 0.93937 0.74203 0.0
O85 O 0.40337 0.93417 0.74552 0.0
N86 N 0.40276 0.85084 0.7837 0.0
C87 C 0.36482 0.81785 0.82402 0.0
C88 C 0.39847 0.80965 0.8202 0.0
C89 C 0.4173 0.8272 0.80062 0.0
C90 C 0.37065 0.8609 0.78886 0.0
C91 C 0.35078 0.84416 0.80866 0.0
H92 H 0.44395 0.82278 0.80027 0.0
H93 H 0.36068 0.88252 0.77794 0.0
H94 H 0.49923 0.87988 0.79837 0.0
H95 H 0.44241 0.94774 0.84674 0.0
H96 H 0.35057 0.8399 0.68345 0.0
H97 H 0.41038 0.79055 0.83301 0.0
H98 H 0.32516 0.85194 0.81223 0.0
C99 C 0.34314 0.17698 0.05553 0.0
C100 C 0.33294 0.19485 0.07845 0.0
N101 N 0.34799 0.22499 0.07751 0.0
N102 N 0.36379 0.19584 0.03961 0.0
C103 C 0.36637 0.22522 0.0535 0.0
H104 H 0.33722 0.1511 0.05134 0.0
Co105 Co 0.38024 0.17695 0.00703 0.0
C106 C 0.44655 0.206 -0.00714 0.0
O107 O 0.45435 0.17476 0.98739 0.0
N108 N 0.39476 0.15602 0.97311 0.0
C109 C 0.40999 0.11952 0.94004 0.0
C110 C 0.40443 0.12406 0.96831 0.0
C111 C 0.39476 0.1703 0.94712 0.0
N112 N 0.40347 0.14849 0.92665 0.0
O113 O 0.34571 0.20138 0.9867 0.0
H114 H 0.40726 0.10468 0.98388 0.0
H115 H 0.38743 0.19597 0.94316 0.0
O116 O 0.41632 0.21285 0.00115 0.0
C117 C 0.32095 0.18319 0.97882 0.0
O118 O 0.32698 0.15182 0.97225 0.0
N119 N 0.40975 0.15222 0.03 0.0
C120 C 0.44258 0.11855 0.07315 0.0
C121 C 0.44906 0.15233 0.06821 0.0
C122 C 0.43179 0.1689 0.04716 0.0
C123 C 0.4013 0.11978 0.03609 0.0
C124 C 0.41822 0.10198 0.05721 0.0
H125 H 0.43481 0.19571 0.04616 0.0
H126 H 0.3804 0.10811 0.02536 0.0
H127 H 0.38243 0.24568 0.04689 0.0
H128 H 0.31652 0.18592 0.095 0.0
H129 H 0.4182 0.09657 0.93011 0.0
H130 H 0.46687 0.16607 0.08109 0.0
H131 H 0.41189 0.07605 0.06142 0.0
C132 C 0.08852 0.91988 0.18335 0.0
C133 C 0.07323 0.9328 0.15984 0.0
N134 N 0.04221 0.91969 0.15818 0.0
N135 N 0.06739 0.89855 0.19644 0.0
C136 C 0.03925 0.89891 0.18065 0.0
H137 H 0.1138 0.92522 0.19031 0.0
Co138 Co 0.08078 0.87679 0.22917 0.0
C139 C 0.01468 0.83176 0.22995 0.0
O140 O 0.98863 0.85165 0.23194 0.0
N141 N 0.09554 0.8556 0.26303 0.0
C142 C 0.11534 0.81785 0.29343 0.0
C143 C 0.10825 0.82439 0.26563 0.0
C144 C 0.09471 0.86717 0.28995 0.0
N145 N 0.10687 0.84479 0.30889 0.0
O146 O 0.05583 0.90947 0.24967 0.0
H147 H 0.11195 0.80697 0.24853 0.0
H148 H 0.08414 0.89102 0.29577 0.0
O149 O 0.04395 0.84462 0.22926 0.0
C150 C 0.07511 0.93469 0.2528 0.0
O151 O 0.10726 0.93094 0.24781 0.0
N152 N 0.10561 0.84757 0.20679 0.0
C153 C 0.14203 0.8117 0.16749 0.0
C154 C 0.10714 0.81156 0.16661 0.0
C155 C 0.0894 0.82984 0.18622 0.0
C156 C 0.1398 0.84883 0.20752 0.0
C157 C 0.15876 0.83042 0.18812 0.0
H158 H 0.06253 0.8307 0.1839 0.0
H159 H 0.15228 0.86439 0.22299 0.0
H160 H 0.01774 0.88309 0.18471 0.0
H161 H 0.08435 0.94983 0.1447 0.0
H162 H 0.1258 0.7948 0.3016 0.0
H163 H 0.09366 0.79756 0.1506 0.0
H164 H 0.18587 0.83101 0.18903 0.0
C165 C 0.35268 0.82551 0.42919 0.0
C166 C 0.34747 0.80199 0.40876 0.0
N167 N 0.36082 0.77281 0.41756 0.0
N168 N 0.36965 0.81149 0.45074 0.0
C169 C 0.37389 0.77922 0.44333 0.0
H170 H 0.3449 0.8514 0.42826 0.0
Co171 Co 0.38115 0.83539 0.48249 0.0
C172 C 0.44657 0.8086 0.50439 0.0
O173 O 0.45385 0.83916 0.51246 0.0
N174 N 0.39126 0.86106 0.51504 0.0
C175 C 0.41128 0.89941 0.54472 0.0
C176 C 0.40545 0.8918 0.51698 0.0
C177 C 0.38792 0.8511 0.54221 0.0
N178 N 0.4 0.87393 0.56078 0.0
O179 O 0.34742 0.81021 0.50268 0.0
H180 H 0.41333 0.90734 0.49965 0.0
H181 H 0.37758 0.82706 0.54821 0.0
O182 O 0.41783 0.80271 0.49273 0.0
C183 C 0.31908 0.82304 0.49635 0.0
O184 O 0.31866 0.85163 0.48261 0.0
N185 N 0.41063 0.86036 0.45985 0.0
C186 C 0.44184 0.89417 0.41585 0.0
C187 C 0.45452 0.86369 0.42554 0.0
C188 C 0.43798 0.84665 0.44695 0.0
C189 C 0.3975 0.88975 0.45004 0.0
C190 C 0.41288 0.90729 0.42804 0.0
H191 H 0.44591 0.82142 0.45122 0.0
H192 H 0.37416 0.89889 0.45866 0.0
H193 H 0.38635 0.76103 0.45657 0.0
H194 H 0.33612 0.80649 0.38835 0.0
H195 H 0.42464 0.92131 0.55205 0.0
H196 H 0.476 0.85222 0.41549 0.0
H197 H 0.40195 0.93034 0.42027 0.0
C198 C 0.43508 0.09019 0.68457 0.0
C199 C 0.45054 0.07855 0.66071 0.0
N200 N 0.47896 0.09624 0.65706 0.0
N201 N 0.4538 0.11481 0.69609 0.0
C202 C 0.48053 0.11779 0.67899 0.0
H203 H 0.41136 0.08151 0.69285 0.0
Co204 Co 0.44061 0.13696 0.72848 0.0
C205 C 0.50714 0.18159 0.72915 0.0
O206 O 0.53283 0.16136 0.73204 0.0
N207 N 0.42637 0.15872 0.76181 0.0
C208 C 0.41051 0.19791 0.79251 0.0
C209 C 0.41793 0.19134 0.76473 0.0
C210 C 0.42402 0.14619 0.78827 0.0
N211 N 0.41414 0.16934 0.80723 0.0
O212 O 0.46535 0.10386 0.74938 0.0
H213 H 0.41731 0.20945 0.7478 0.0
H214 H 0.43048 0.12085 0.79399 0.0
O215 O 0.47765 0.16916 0.72826 0.0
C216 C 0.44491 0.07953 0.7528 0.0
O217 O 0.41288 0.08503 0.74826 0.0
N218 N 0.41558 0.16592 0.70603 0.0
C219 C 0.37758 0.19655 0.66449 0.0
C220 C 0.41242 0.19902 0.66408 0.0
C221 C 0.43099 0.18336 0.68487 0.0
C222 C 0.38148 0.16359 0.70705 0.0
C223 C 0.36174 0.17928 0.68648 0.0
H224 H 0.45789 0.18391 0.68286 0.0
H225 H 0.36972 0.14849 0.72323 0.0
H226 H 0.4999 0.13651 0.68172 0.0
H227 H 0.44131 0.0589 0.64705 0.0
H228 H 0.40292 0.22178 0.8012 0.0
H229 H 0.42527 0.21237 0.64733 0.0
H230 H 0.33469 0.17711 0.68721 0.0
C231 C 0.17217 0.18075 0.93211 0.0
C232 C 0.18562 0.19783 0.90971 0.0
N233 N 0.16962 0.22733 0.90754 0.0
N234 N 0.14795 0.19944 0.94408 0.0
C235 C 0.14712 0.2279 0.9288 0.0
H236 H 0.17945 0.15606 0.93922 0.0
Co237 Co 0.12533 0.18416 0.97563 0.0
C238 C 0.07733 0.24897 0.97631 0.0
O239 O 0.09659 0.27547 0.97939 0.0
N240 N 0.10318 0.16769 0.00857 0.0
C241 C 0.06631 0.14484 0.03848 0.0
C242 C 0.07345 0.15139 0.01063 0.0
C243 C 0.11342 0.17059 0.03573 0.0
N244 N 0.09161 0.1569 0.05415 0.0
O245 O 0.1576 0.2087 -0.00236 0.0
H246 H 0.05785 0.14399 -0.00687 0.0
H247 H 0.13633 0.18277 0.04231 0.0
O248 O 0.09102 0.22001 0.97541 0.0
C249 C 0.18046 0.18656 0.00073 0.0
O250 O 0.17244 0.15518 -0.0045 0.0
N251 N 0.09833 0.15882 0.95195 0.0
C252 C 0.06851 0.12071 0.9102 0.0
C253 C 0.06655 0.15558 0.90936 0.0
C254 C 0.08182 0.17421 0.93029 0.0
C255 C 0.10172 0.12481 0.9525 0.0
C256 C 0.08609 0.10497 0.93202 0.0
H257 H 0.08112 0.20115 0.92847 0.0
H258 H 0.1167 0.11315 0.96879 0.0
H259 H 0.12964 0.24809 0.93246 0.0
H260 H 0.20534 0.18908 0.89594 0.0
H261 H 0.04469 0.13144 0.04651 0.0
H262 H 0.05292 0.16833 0.89273 0.0
H263 H 0.0878 0.07792 0.93308 0.0
C264 C 0.93866 0.91166 0.67945 0.0
C265 C 0.96289 0.91888 0.66007 0.0
N266 N 0.99237 0.90675 0.66954 0.0
N267 N 0.95248 0.89461 0.70098 0.0
C268 C 0.98531 0.89247 0.69476 0.0
H269 H 0.91246 0.91826 0.67791 0.0
Co270 Co 0.92789 0.88288 0.73202 0.0
C271 C 0.95572 0.81922 0.75627 0.0
O272 O 0.92492 0.8119 0.76382 0.0
N273 N 0.9017 0.87348 0.76406 0.0
C274 C 0.86135 0.86232 0.79511 0.0
C275 C 0.86906 0.86497 0.76687 0.0
C276 C 0.91297 0.8764 0.79086 0.0
N277 N 0.889 0.86979 0.81012 0.0
O278 O 0.94999 0.91891 0.7518 0.0
H279 H 0.85169 0.86081 0.7498 0.0
H280 H 0.93874 0.88225 0.7961 0.0
O281 O 0.96171 0.8479 0.74442 0.0
C282 C 0.93232 0.94485 0.74665 0.0
O283 O 0.90314 0.94081 0.73422 0.0
N284 N 0.90553 0.85086 0.7093 0.0
C285 C 0.88133 0.82116 0.65989 0.0
C286 C 0.91044 0.80936 0.67289 0.0
C287 C 0.9227 0.82519 0.69682 0.0
C288 C 0.8761 0.8616 0.69764 0.0
C289 C 0.86334 0.84689 0.673 0.0
H290 H 0.94782 0.81884 0.70285 0.0
H291 H 0.86415 0.88385 0.70581 0.0
H292 H 1.00343 0.881 0.70867 0.0
H293 H 0.95865 0.93065 0.6398 0.0
H294 H 0.83722 0.85563 0.80392 0.0
H295 H 0.92497 0.78934 0.66356 0.0
H296 H 0.84088 0.85694 0.66337 0.0
C297 C 0.83913 0.193 0.43351 0.0
C298 C 0.82975 0.21398 0.41212 0.0
N299 N 0.84897 0.24172 0.41337 0.0
N300 N 0.86436 0.20713 0.44819 0.0
C301 C 0.86984 0.23695 0.43556 0.0
H302 H 0.82918 0.16821 0.43746 0.0
Co303 Co 0.8831 0.18383 0.47785 0.0
C304 C 0.95066 0.21076 0.48981 0.0
O305 O 0.95952 0.17913 0.49023 0.0
N306 N 0.90035 0.15898 0.50902 0.0
C307 C 0.92332 0.12204 0.53855 0.0
C308 C 0.91475 0.1284 0.51095 0.0
C309 C 0.90028 0.17032 0.5359 0.0
N310 N 0.91383 0.14834 0.55436 0.0
O311 O 0.8504 0.20505 0.50159 0.0
H312 H 0.91998 0.11181 0.49363 0.0
H313 H 0.89017 0.19439 0.54189 0.0
O314 O 0.9196 0.21858 0.48511 0.0
C315 C 0.82662 0.18351 0.50204 0.0
O316 O 0.8332 0.153 0.49326 0.0
N317 N 0.91001 0.16174 0.45155 0.0
C318 C 0.93536 0.13162 0.40336 0.0
C319 C 0.9443 0.16447 0.41028 0.0
C320 C 0.93067 0.17936 0.43393 0.0
C321 C 0.89985 0.13018 0.44438 0.0
C322 C 0.91293 0.11418 0.42064 0.0
H323 H 0.93532 0.20573 0.43688 0.0
H324 H 0.88053 0.11783 0.45659 0.0
H325 H 0.88964 0.25407 0.44168 0.0
H326 H 0.81202 0.20798 0.39557 0.0
H327 H 0.93636 0.10004 0.54606 0.0
H328 H 0.9612 0.17891 0.39711 0.0
H329 H 0.90488 0.08902 0.41537 0.0
C330 C 0.59274 0.10974 0.17242 0.0
C331 C 0.57336 0.09601 0.15169 0.0
N332 N 0.54143 0.10585 0.15559 0.0
N333 N 0.57344 0.12788 0.18989 0.0
C334 C 0.54227 0.12546 0.17895 0.0
H335 H 0.61923 0.10549 0.17514 0.0
Co336 Co 0.58946 0.14294 0.22434 0.0
C337 C 0.52588 0.18798 0.23326 0.0
O338 O 0.50221 0.16634 0.23966 0.0
N339 N 0.6064 0.15726 0.25949 0.0
C340 C 0.64068 0.17319 0.29401 0.0
C341 C 0.63811 0.16666 0.26573 0.0
C342 C 0.59018 0.15829 0.28457 0.0
N343 N 0.6106 0.16784 0.30594 0.0
O344 O 0.56259 0.10882 0.2418 0.0
H345 H 0.65865 0.16817 0.25109 0.0
H346 H 0.56423 0.15097 0.28723 0.0
O347 O 0.55537 0.17752 0.22804 0.0
C348 C 0.58167 0.08353 0.24525 0.0
O349 O 0.61395 0.08922 0.24809 0.0
N350 N 0.61719 0.17292 0.20505 0.0
C351 C 0.65644 0.20419 0.16476 0.0
C352 C 0.62586 0.21809 0.17279 0.0
C353 C 0.60621 0.20171 0.19253 0.0
C354 C 0.64764 0.15975 0.19809 0.0
C355 C 0.66774 0.17492 0.17766 0.0
H356 H 0.58135 0.21122 0.19565 0.0
H357 H 0.65533 0.1361 0.20719 0.0
H358 H 0.52091 0.13786 0.18808 0.0
H359 H 0.58229 0.07957 0.13524 0.0
H360 H 0.66313 0.18106 0.30503 0.0
H361 H 0.6162 0.24031 0.16242 0.0
H362 H 0.69107 0.16337 0.17133 0.0
C363 C 0.67757 0.83328 0.92822 0.0
C364 C 0.6902 0.81857 0.90446 0.0
N365 N 0.67522 0.7886 0.90146 0.0
N366 N 0.65486 0.81271 0.94035 0.0
C367 C 0.65393 0.78553 0.92351 0.0
H368 H 0.68435 0.85774 0.93619 0.0
Co369 Co 0.6343 0.82699 0.97325 0.0
C370 C 0.58496 0.7631 0.97203 0.0
O371 O 0.60307 0.73713 0.96471 0.0
N372 N 0.61475 0.84334 0.00666 0.0
C373 C 0.57724 0.86318 0.03686 0.0
C374 C 0.58331 0.85531 0.00923 0.0
C375 C 0.62737 0.84472 0.03316 0.0
N376 N 0.60483 0.85615 0.05215 0.0
O377 O 0.66561 0.79973 -0.00619 0.0
H378 H 0.56512 0.85676 -0.00764 0.0
H379 H 0.65263 0.83754 0.03835 0.0
O380 O 0.59877 0.79201 0.97401 0.0
C381 C 0.69205 0.81746 -0.00328 0.0
O382 O 0.69026 0.84972 -0.00861 0.0
N383 N 0.60695 0.85402 0.95129 0.0
C384 C 0.57625 0.89399 0.91134 0.0
C385 C 0.57182 0.85932 0.91082 0.0
C386 C 0.58747 0.83973 0.93089 0.0
C387 C 0.61172 0.88788 0.95213 0.0
C388 C 0.59593 0.90867 0.9324 0.0
H389 H 0.58534 0.81291 0.92884 0.0
H390 H 0.6284 0.89859 0.96772 0.0
H391 H 0.63739 0.76444 0.92667 0.0
H392 H 0.70892 0.8291 0.89051 0.0
H393 H 0.55351 0.87169 0.04517 0.0
H394 H 0.55656 0.84744 0.89473 0.0
H395 H 0.5995 0.93556 0.93323 0.0
C396 C 0.92384 0.1065 0.80489 0.0
C397 C 0.94074 0.09181 0.82675 0.0
N398 N 0.9724 0.10364 0.82679 0.0
N399 N 0.94472 0.12693 0.79066 0.0
C400 C 0.97419 0.12482 0.80444 0.0
H401 H 0.89809 0.10169 0.79897 0.0
Co402 Co 0.93105 0.14519 0.75676 0.0
C403 C 0.96355 0.21226 0.75038 0.0
O404 O 0.93304 0.22277 0.74531 0.0
N405 N 0.91579 0.16195 0.72104 0.0
C406 C 0.88808 0.18673 0.68572 0.0
C407 C 0.88999 0.18263 0.71442 0.0
C408 C 0.92882 0.15374 0.69556 0.0
N409 N 0.91233 0.1683 0.67395 0.0
O410 O 0.95688 0.11022 0.73875 0.0
H411 H 0.87365 0.19496 0.72916 0.0
H412 H 0.94991 0.13715 0.69263 0.0
O413 O 0.96868 0.18067 0.75555 0.0
C414 C 0.93556 0.08626 0.73654 0.0
O415 O 0.90361 0.0942 0.73746 0.0
N416 N 0.90354 0.17377 0.77735 0.0
C417 C 0.86206 0.20421 0.81624 0.0
C418 C 0.89669 0.2088 0.81769 0.0
C419 C 0.91706 0.19278 0.79847 0.0
C420 C 0.86997 0.16689 0.77714 0.0
C421 C 0.84837 0.18283 0.796 0.0
H422 H 0.94384 0.19454 0.80143 0.0
H423 H 0.86003 0.14874 0.7624 0.0
H424 H 0.99643 0.13847 0.79814 0.0
H425 H 0.93052 0.07312 0.84086 0.0
H426 H 0.86968 0.20133 0.6743 0.0
H427 H 0.90792 0.22454 0.83378 0.0
H428 H 0.82162 0.17831 0.795 0.0
C429 C 0.66018 0.17394 0.55426 0.0
C430 C 0.67612 0.18594 0.5779 0.0
N431 N 0.67323 0.21959 0.57815 0.0
N432 N 0.64751 0.19982 0.53951 0.0
C433 C 0.65569 0.22726 0.55459 0.0
H434 H 0.65726 0.1479 0.54846 0.0
Co435 Co 0.6242 0.19591 0.50567 0.0
C436 C 0.58029 0.26173 0.50993 0.0
O437 O 0.58697 0.29291 0.51676 0.0
N438 N 0.6007 0.19123 0.47103 0.0
C439 C 0.56004 0.18128 0.43977 0.0
C440 C 0.56741 0.18592 0.46776 0.0
C441 C 0.61286 0.18992 0.44441 0.0
N442 N 0.58864 0.184 0.42496 0.0
O443 O 0.66369 0.21404 0.48752 0.0
H444 H 0.54928 0.18486 0.48464 0.0
H445 H 0.63907 0.19297 0.43926 0.0
O446 O 0.6047 0.24078 0.51006 0.0
C447 C 0.68401 0.18953 0.48494 0.0
O448 O 0.67093 0.15929 0.48382 0.0
N449 N 0.5897 0.17581 0.52523 0.0
C450 C 0.55535 0.13687 0.56373 0.0
C451 C 0.55783 0.1715 0.56758 0.0
C452 C 0.57549 0.1906 0.54817 0.0
C453 C 0.58682 0.14216 0.52083 0.0
C454 C 0.56918 0.12207 0.53978 0.0
H455 H 0.58032 0.21652 0.55309 0.0
H456 H 0.60001 0.13068 0.50345 0.0
H457 H 0.64721 0.25215 0.54919 0.0
H458 H 0.68777 0.17092 0.59419 0.0
H459 H 0.53561 0.17523 0.43125 0.0
H460 H 0.54753 0.18341 0.58616 0.0
H461 H 0.56781 0.09524 0.53657 0.0
C462 C 0.5587 0.93937 0.2899 0.0
C463 C 0.54184 0.94984 0.3134 0.0
N464 N 0.51571 0.92905 0.3175 0.0
N465 N 0.54302 0.91249 0.27874 0.0
C466 C 0.51655 0.90701 0.29587 0.0
H467 H 0.58185 0.94996 0.2821 0.0
Co468 Co 0.56193 0.88947 0.2486 0.0
C469 C 0.4971 0.84122 0.23936 0.0
O470 O 0.46783 0.85573 0.23619 0.0
N471 N 0.58248 0.86682 0.21766 0.0
C472 C 0.60842 0.82911 0.19086 0.0
C473 C 0.59829 0.83691 0.21765 0.0
C474 C 0.58416 0.87678 0.19036 0.0
N475 N 0.60005 0.85453 0.17354 0.0
O476 O 0.5441 0.92361 0.22465 0.0
H477 H 0.60236 0.82113 0.2358 0.0
H478 H 0.57378 0.89999 0.18276 0.0
O479 O 0.52273 0.8602 0.24301 0.0
C480 C 0.56769 0.94507 0.2227 0.0
O481 O 0.59803 0.93578 0.23024 0.0
N482 N 0.58028 0.86003 0.27409 0.0
C483 C 0.60882 0.82751 0.3193 0.0
C484 C 0.57473 0.8238 0.31371 0.0
C485 C 0.56082 0.84062 0.29121 0.0
C486 C 0.61362 0.86431 0.27943 0.0
C487 C 0.62876 0.84759 0.30191 0.0
H488 H 0.53413 0.83877 0.28844 0.0
H489 H 0.62821 0.88127 0.26651 0.0
H490 H 0.49957 0.88598 0.29373 0.0
H491 H 0.54909 0.97035 0.32702 0.0
H492 H 0.61986 0.8057 0.18489 0.0
H493 H 0.55885 0.8083 0.32694 0.0
H494 H 0.65528 0.85085 0.30605 0.0
C495 C 0.85717 0.83592 0.05952 0.0
C496 C 0.84322 0.81925 0.08186 0.0
N497 N 0.85204 0.78676 0.08022 0.0
N498 N 0.87465 0.81417 0.04366 0.0
C499 C 0.8714 0.78441 0.05683 0.0
H500 H 0.85401 0.86219 0.05459 0.0
Co501 Co 0.89205 0.82744 0.00923 0.0
C502 C 0.93764 0.76226 0.00371 0.0
O503 O 0.91702 0.73736 -0.00166 0.0
N504 N 0.90865 0.84191 0.97421 0.0
C505 C 0.94372 0.85781 0.94025 0.0
C506 C 0.94106 0.84851 0.96806 0.0
C507 C 0.89215 0.84707 0.94963 0.0
N508 N 0.9129 0.85697 0.92874 0.0
O509 O 0.85713 0.80128 -0.00849 0.0
H510 H 0.96166 0.84626 0.98275 0.0
H511 H 0.86549 0.84347 0.94685 0.0
O512 O 0.9257 0.79162 0.00715 0.0
C513 C 0.83134 0.82015 -0.00712 0.0
O514 O 0.83617 0.85209 -0.00165 0.0
N515 N 0.92305 0.85382 0.02851 0.0
C516 C 0.95938 0.89323 0.0656 0.0
C517 C 0.96107 0.85841 0.06727 0.0
C518 C 0.94234 0.83915 0.04886 0.0
C519 C 0.92123 0.88787 0.02635 0.0
C520 C 0.93953 0.90832 0.04483 0.0
H521 H 0.94197 0.81238 0.05213 0.0
H522 H 0.9045 0.89909 0.01107 0.0
H523 H 0.8835 0.76184 0.04957 0.0
H524 H 0.82762 0.83029 0.09799 0.0
H525 H 0.96668 0.86359 0.92911 0.0
H526 H 0.9758 0.84618 0.08352 0.0
H527 H 0.93751 0.93532 0.04346 0.0
C528 C 0.59183 0.59996 0.80719 0.0
C529 C 0.57686 0.5868 0.83078 0.0
N530 N 0.54459 0.59671 0.83111 0.0
N531 N 0.5691 0.61763 0.79238 0.0
C532 C 0.54054 0.61526 0.8074 0.0
H533 H 0.61754 0.5962 0.80075 0.0
Co534 Co 0.57915 0.63731 0.75784 0.0
C535 C 0.5235 0.68307 0.74124 0.0
O536 O 0.52129 0.66702 0.71714 0.0
N537 N 0.59052 0.65648 0.72239 0.0
C538 C 0.60253 0.69391 0.68895 0.0
C539 C 0.59851 0.6889 0.71743 0.0
C540 C 0.58992 0.64237 0.6964 0.0
N541 N 0.5971 0.66461 0.67566 0.0
O542 O 0.5521 0.60267 0.74043 0.0
H543 H 0.60004 0.70816 0.7334 0.0
H544 H 0.58252 0.61674 0.69252 0.0
O545 O 0.54202 0.6708 0.76073 0.0
C546 C 0.57185 0.57749 0.73888 0.0
O547 O 0.60411 0.58307 0.74213 0.0
N548 N 0.60695 0.66729 0.77673 0.0
C549 C 0.64913 0.70207 0.81259 0.0
C550 C 0.61465 0.70202 0.81713 0.0
C551 C 0.59406 0.68419 0.79921 0.0
C552 C 0.64068 0.6669 0.77193 0.0
C553 C 0.66249 0.68474 0.7896 0.0
H554 H 0.56792 0.6822 0.8047 0.0
H555 H 0.65067 0.65196 0.75491 0.0
H556 H 0.51746 0.62751 0.80132 0.0
H557 H 0.58885 0.57062 0.84604 0.0
H558 H 0.60835 0.7175 0.67877 0.0
H559 H 0.60377 0.71506 0.83494 0.0
H560 H 0.68924 0.68438 0.78582 0.0
C561 C 0.68059 0.32759 0.04219 0.0
C562 C 0.69586 0.3105 0.06364 0.0
N563 N 0.67774 0.28272 0.06892 0.0
N564 N 0.65328 0.31053 0.03352 0.0
C565 C 0.65221 0.28306 0.05006 0.0
H566 H 0.68899 0.35106 0.0332 0.0
Co567 Co 0.62921 0.32742 0.00349 0.0
C568 C 0.56102 0.29742 0.00332 0.0
O569 O 0.55071 0.32857 0.00335 0.0
N570 N 0.60648 0.3462 0.97125 0.0
C571 C 0.5768 0.37712 0.94071 0.0
C572 C 0.58516 0.3725 0.96857 0.0
C573 C 0.61039 0.33552 0.9443 0.0
N574 N 0.59293 0.35394 0.92552 0.0
O575 O 0.65882 0.3019 0.97987 0.0
H576 H 0.57548 0.38755 0.98553 0.0
H577 H 0.62613 0.3148 0.93816 0.0
O578 O 0.59292 0.29108 0.00416 0.0
C579 C 0.68262 0.322 0.9735 0.0
O580 O 0.67765 0.35425 0.97714 0.0
N581 N 0.60561 0.35364 0.02927 0.0
C582 C 0.57825 0.39253 0.0715 0.0
C583 C 0.57573 0.35772 0.07276 0.0
C584 C 0.59009 0.33867 0.0517 0.0
C585 C 0.61162 0.38733 0.02955 0.0
C586 C 0.59688 0.40766 0.05003 0.0
H587 H 0.58863 0.31174 0.05349 0.0
H588 H 0.62717 0.39849 0.01339 0.0
H589 H 0.63254 0.26436 0.04896 0.0
H590 H 0.71853 0.31805 0.07446 0.0
H591 H 0.56111 0.39678 0.93217 0.0
H592 H 0.56193 0.34541 0.08954 0.0
H593 H 0.59964 0.43463 0.04898 0.0
C594 C 0.92265 0.40915 0.30384 0.0
C595 C 0.93879 0.41963 0.32777 0.0
N596 N 0.97014 0.40753 0.32719 0.0
N597 N 0.94334 0.38985 0.28821 0.0
C598 C 0.97261 0.39058 0.30265 0.0
H599 H 0.8979 0.41712 0.2977 0.0
Co600 Co 0.93371 0.37355 0.25156 0.0
C601 C 0.98263 0.31898 0.27066 0.0
O602 O 0.97142 0.31951 0.29671 0.0
N603 N 0.92379 0.35842 0.21486 0.0
C604 C 0.91784 0.32485 0.17776 0.0
C605 C 0.92957 0.32729 0.20477 0.0
C606 C 0.90898 0.37468 0.19303 0.0
N607 N 0.9047 0.35453 0.17037 0.0
O608 O 0.96248 0.40864 0.23735 0.0
H609 H 0.9424 0.30748 0.21575 0.0
H610 H 0.90181 0.40078 0.19351 0.0
O611 O 0.97142 0.34046 0.25278 0.0
C612 C 0.94441 0.43502 0.23811 0.0
O613 O 0.912 0.43129 0.24195 0.0
N614 N 0.90277 0.34221 0.26648 0.0
C615 C 0.86939 0.31026 0.30951 0.0
C616 C 0.8916 0.29231 0.29251 0.0
C617 C 0.90752 0.30867 0.27034 0.0
C618 C 0.87526 0.35703 0.27798 0.0
C619 C 0.85877 0.34192 0.30065 0.0
H620 H 0.92579 0.29488 0.25855 0.0
H621 H 0.86862 0.3822 0.27182 0.0
H622 H 0.99553 0.37919 0.29531 0.0
H623 H 0.9285 0.4357 0.34393 0.0
H624 H 0.92042 0.30339 0.164 0.0
H625 H 0.89884 0.26692 0.29786 0.0
H626 H 0.84042 0.35597 0.31256 0.0
C627 C 0.835 0.68966 0.54933 0.0
C628 C 0.82989 0.71289 0.57008 0.0
N629 N 0.84881 0.74014 0.56445 0.0
N630 N 0.85712 0.70192 0.53057 0.0
C631 C 0.86465 0.73297 0.53991 0.0
H632 H 0.82454 0.66465 0.54866 0.0
Co633 Co 0.87324 0.67559 0.50145 0.0
C634 C 0.93905 0.70212 0.483 0.0
O635 O 0.9478 0.67046 0.48343 0.0
N636 N 0.88827 0.64808 0.47113 0.0
C637 C 0.91068 0.60963 0.44289 0.0
C638 C 0.90175 0.61702 0.47018 0.0
C639 C 0.88865 0.65848 0.44397 0.0
N640 N 0.90227 0.63573 0.42634 0.0
O641 O 0.83701 0.69221 0.47859 0.0
H642 H 0.90649 0.60095 0.488 0.0
H643 H 0.87957 0.68278 0.43737 0.0
O644 O 0.90863 0.7104 0.48973 0.0
C645 C 0.81603 0.66815 0.48247 0.0
O646 O 0.82716 0.64023 0.49378 0.0
N647 N 0.90271 0.6568 0.527 0.0
C648 C 0.93057 0.63075 0.57541 0.0
C649 C 0.93963 0.66272 0.56629 0.0
C650 C 0.92481 0.67567 0.54231 0.0
C651 C 0.89263 0.62613 0.53658 0.0
C652 C 0.907 0.61207 0.56053 0.0
H653 H 0.92945 0.70162 0.53741 0.0
H654 H 0.87229 0.61308 0.52625 0.0
H655 H 0.88215 0.74935 0.52929 0.0
H656 H 0.81518 0.70894 0.58896 0.0
H657 H 0.9237 0.5873 0.43619 0.0
H658 H 0.95735 0.67786 0.57809 0.0
H659 H 0.89921 0.58749 0.56776 0.0
C660 C 0.59179 0.41528 0.6752 0.0
C661 C 0.57499 0.42584 0.65158 0.0
N662 N 0.54484 0.41069 0.65131 0.0
N663 N 0.57232 0.39363 0.68968 0.0
C664 C 0.54376 0.39133 0.67468 0.0
H665 H 0.61656 0.42318 0.6817 0.0
Co666 Co 0.58635 0.37623 0.72354 0.0
C667 C 0.52148 0.32905 0.72833 0.0
O668 O 0.49436 0.34761 0.72922 0.0
N669 N 0.60181 0.35922 0.75864 0.0
C670 C 0.62932 0.33063 0.7918 0.0
C671 C 0.62636 0.33653 0.76344 0.0
C672 C 0.59011 0.36638 0.7848 0.0
N673 N 0.60652 0.34936 0.80526 0.0
O674 O 0.56013 0.41049 0.74172 0.0
H675 H 0.64105 0.32397 0.74764 0.0
H676 H 0.57021 0.38403 0.78891 0.0
O677 O 0.55005 0.34335 0.7263 0.0
C678 C 0.57758 0.43713 0.74418 0.0
O679 O 0.60999 0.4354 0.73958 0.0
N680 N 0.61245 0.34564 0.70323 0.0
C681 C 0.6518 0.30669 0.66791 0.0
C682 C 0.61772 0.29978 0.67118 0.0
C683 C 0.59832 0.32003 0.68823 0.0
C684 C 0.64542 0.35375 0.69934 0.0
C685 C 0.66581 0.33434 0.68176 0.0
H686 H 0.57173 0.31554 0.68809 0.0
H687 H 0.65577 0.37552 0.7098 0.0
H688 H 0.52279 0.37557 0.68048 0.0
H689 H 0.58405 0.44359 0.63608 0.0
H690 H 0.64664 0.31343 0.80176 0.0
H691 H 0.60578 0.27959 0.6596 0.0
H692 H 0.69191 0.34095 0.67883 0.0
C693 C 0.85972 0.34812 0.91689 0.0
C694 C 0.84512 0.33247 0.89434 0.0
N695 N 0.84752 0.29905 0.89812 0.0
N696 N 0.87147 0.32486 0.93489 0.0
C697 C 0.86416 0.29522 0.92286 0.0
H698 H 0.86036 0.37483 0.92063 0.0
Co699 Co 0.88674 0.33611 0.97037 0.0
C700 C 0.9297 0.26813 0.97501 0.0
O701 O 0.9089 0.24271 0.97732 0.0
N702 N 0.90143 0.34896 0.00658 0.0
C703 C 0.93446 0.36579 0.04166 0.0
C704 C 0.9332 0.3571 0.01377 0.0
C705 C 0.88382 0.3529 0.03077 0.0
N706 N 0.90342 0.36316 0.05246 0.0
O707 O 0.84853 0.31164 0.98562 0.0
H708 H 0.95435 0.35708 -0.00033 0.0
H709 H 0.85716 0.34847 0.03251 0.0
O710 O 0.91764 0.29769 0.97291 0.0
C711 C 0.82343 0.33124 0.9825 0.0
O712 O 0.82977 0.36311 0.97781 0.0
N713 N 0.92084 0.36075 0.95318 0.0
C714 C 0.95979 0.39818 0.91661 0.0
C715 C 0.96149 0.36335 0.91631 0.0
C716 C 0.9415 0.34506 0.93442 0.0
C717 C 0.91953 0.39488 0.95436 0.0
C718 C 0.93919 0.41435 0.93615 0.0
H719 H 0.94087 0.31829 0.93149 0.0
H720 H 0.90189 0.4069 0.96837 0.0
H721 H 0.87123 0.2716 0.93219 0.0
H722 H 0.8329 0.34499 0.87692 0.0
H723 H 0.95678 0.37253 0.05339 0.0
H724 H 0.97703 0.35032 0.90115 0.0
H725 H 0.93742 0.44141 0.93656 0.0
C726 C 0.93544 0.60174 0.17251 0.0
C727 C 0.95458 0.58979 0.15083 0.0
N728 N 0.98704 0.59628 0.15668 0.0
N729 N 0.95551 0.61661 0.19164 0.0
C730 C 0.98679 0.61274 0.18161 0.0
H731 H 0.90846 0.60002 0.17414 0.0
Co732 Co 0.93979 0.63335 0.22537 0.0
C733 C 1.00196 0.68398 0.22998 0.0
O734 O 0.0292 0.66582 0.23259 0.0
N735 N 0.92303 0.64954 0.26026 0.0
C736 C 0.89819 0.68036 0.29338 0.0
C737 C 0.90356 0.67668 0.26499 0.0
C738 C 0.92906 0.63725 0.28645 0.0
N739 N 0.9141 0.65542 0.30685 0.0
O740 O 0.96733 0.60066 0.24408 0.0
H741 H 0.89363 0.69321 0.24905 0.0
H742 H 0.94468 0.61578 0.29076 0.0
O743 O 0.97362 0.66923 0.2277 0.0
C744 C 0.94944 0.57408 0.24382 0.0
O745 O 0.91788 0.57648 0.23614 0.0
N746 N 0.91206 0.66196 0.20476 0.0
C747 C 0.87168 0.69534 0.16651 0.0
C748 C 0.90617 0.70099 0.16688 0.0
C749 C 0.92601 0.68366 0.18578 0.0
C750 C 0.87842 0.65548 0.20427 0.0
C751 C 0.85744 0.6724 0.18533 0.0
H752 H 0.95279 0.68661 0.18397 0.0
H753 H 0.86807 0.63662 0.21818 0.0
H754 H 0.00891 0.62152 0.19254 0.0
H755 H 0.94492 0.57881 0.13164 0.0
H756 H 0.88328 0.69962 0.30334 0.0
H757 H 0.91782 0.71814 0.15206 0.0
H758 H 0.83077 0.66729 0.18506 0.0
C759 C 0.66005 0.70813 0.44066 0.0
C760 C 0.66555 0.72771 0.41777 0.0
N761 N 0.63576 0.73822 0.40865 0.0
N762 N 0.62669 0.70554 0.4462 0.0
C763 C 0.61248 0.72491 0.42611 0.0
H764 H 0.68015 0.69659 0.45208 0.0
Co765 Co 0.60882 0.68011 0.47656 0.0
C766 C 0.56071 0.71977 0.48323 0.0
O767 O 0.55423 0.6964 0.46457 0.0
N768 N 0.59378 0.65527 0.50882 0.0
C769 C 0.57929 0.61757 0.54154 0.0
C770 C 0.58259 0.62355 0.5131 0.0
C771 C 0.59713 0.66766 0.53532 0.0
N772 N 0.58879 0.64528 0.55552 0.0
O773 O 0.65305 0.68392 0.49431 0.0
H774 H 0.57841 0.60481 0.49713 0.0
H775 H 0.60729 0.69224 0.53985 0.0
O776 O 0.59057 0.72069 0.49364 0.0
C777 C 0.67302 0.66035 0.5011 0.0
O778 O 0.66112 0.62976 0.50368 0.0
N779 N 0.6184 0.64055 0.45575 0.0
C780 C 0.60834 0.60978 0.40353 0.0
C781 C 0.58204 0.61323 0.42256 0.0
C782 C 0.58739 0.62953 0.44786 0.0
C783 C 0.64551 0.63317 0.43912 0.0
C784 C 0.64082 0.6186 0.4123 0.0
H785 H 0.56549 0.63698 0.45949 0.0
H786 H 0.67022 0.6418 0.44466 0.0
H787 H 0.58584 0.7294 0.42428 0.0
H788 H 0.68964 0.73463 0.40898 0.0
H789 H 0.57103 0.59437 0.55115 0.0
H790 H 0.55648 0.6075 0.41639 0.0
H791 H 0.66178 0.61651 0.39793 0.0
C792 C 0.43698 0.42416 0.17882 0.0
C793 C 0.45408 0.43561 0.15569 0.0
N794 N 0.48399 0.42015 0.1551 0.0
N795 N 0.45601 0.4017 0.19277 0.0
C796 C 0.48465 0.39978 0.17789 0.0
H797 H 0.41208 0.43164 0.18515 0.0
Co798 Co 0.43976 0.38177 0.22506 0.0
C799 C 0.50305 0.33418 0.2305 0.0
O800 O 0.52837 0.35454 0.23519 0.0
N801 N 0.42186 0.3623 0.25848 0.0
C802 C 0.39709 0.32694 0.28849 0.0
C803 C 0.40407 0.33347 0.26073 0.0
C804 C 0.42551 0.37251 0.2856 0.0
N805 N 0.41043 0.3516 0.30415 0.0
O806 O 0.46648 0.41311 0.2461 0.0
H807 H 0.39693 0.31738 0.24348 0.0
H808 H 0.43918 0.39469 0.2919 0.0
O809 O 0.47379 0.34641 0.22711 0.0
C810 C 0.44919 0.43977 0.2486 0.0
O811 O 0.41698 0.43831 0.24293 0.0
N812 N 0.41371 0.35424 0.202 0.0
C813 C 0.37662 0.31928 0.16245 0.0
C814 C 0.41141 0.3169 0.16273 0.0
C815 C 0.42953 0.33486 0.18239 0.0
C816 C 0.37977 0.35836 0.20107 0.0
C817 C 0.3604 0.34035 0.1816 0.0
H818 H 0.45649 0.33368 0.18115 0.0
H819 H 0.3678 0.37546 0.21556 0.0
H820 H 0.50513 0.38318 0.18314 0.0
H821 H 0.44527 0.45399 0.14063 0.0
H822 H 0.38417 0.30507 0.29658 0.0
H823 H 0.42452 0.30106 0.14783 0.0
H824 H 0.33337 0.34272 0.18153 0.0
C825 C 0.34442 0.67788 0.93155 0.0
C826 C 0.32892 0.69563 0.91045 0.0
N827 N 0.34128 0.72707 0.91063 0.0
N828 N 0.36662 0.69796 0.94476 0.0
C829 C 0.36421 0.72775 0.93161 0.0
H830 H 0.33976 0.65199 0.93709 0.0
Co831 Co 0.39023 0.68543 0.97661 0.0
C832 C 0.44069 0.73879 0.98973 0.0
O833 O 0.42935 0.74081 0.01566 0.0
N834 N 0.41309 0.67168 0.00987 0.0
C835 C 0.45312 0.65635 0.04016 0.0
C836 C 0.44582 0.66331 0.01235 0.0
C837 C 0.40117 0.66965 0.0366 0.0
N838 N 0.42494 0.66024 0.05522 0.0
O839 O 0.35951 0.71267 -0.00238 0.0
H840 H 0.46363 0.66338 -0.00482 0.0
H841 H 0.37585 0.67582 0.04268 0.0
O842 O 0.42418 0.72147 0.97175 0.0
C843 C 0.33416 0.69337 0.00063 0.0
O844 O 0.338 0.66124 -0.00449 0.0
N845 N 0.41695 0.65788 0.95413 0.0
C846 C 0.4503 0.61748 0.91591 0.0
C847 C 0.44791 0.65188 0.91133 0.0
C848 C 0.43113 0.67159 0.93057 0.0
C849 C 0.41812 0.6241 0.95862 0.0
C850 C 0.43549 0.60328 0.93989 0.0
H851 H 0.4287 0.69794 0.92586 0.0
H852 H 0.40553 0.61335 0.97669 0.0
H853 H 0.37975 0.74912 0.93681 0.0
H854 H 0.31039 0.68605 0.89582 0.0
H855 H 0.47744 0.65009 0.04881 0.0
H856 H 0.45932 0.66357 0.89304 0.0
H857 H 0.43721 0.57664 0.94395 0.0
C858 C 0.06542 0.6024 0.68772 0.0
C859 C 0.04271 0.59054 0.66897 0.0
N860 N 0.0204 0.61478 0.66443 0.0
N861 N 0.05816 0.63441 0.69519 0.0
C862 C 0.03005 0.6412 0.68033 0.0
H863 H 0.08495 0.5871 0.69629 0.0
Co864 Co 0.08183 0.6565 0.72439 0.0
C865 C 0.03702 0.70161 0.72893 0.0
O866 O 0.05474 0.70642 0.70603 0.0
N867 N 0.10527 0.67603 0.75506 0.0
C868 C 0.13611 0.70643 0.78494 0.0
C869 C 0.12867 0.7006 0.757 0.0
C870 C 0.09877 0.66788 0.7822 0.0
N871 N 0.11725 0.68573 0.8007 0.0
O872 O 0.0802 0.61221 0.74338 0.0
H873 H 0.1399 0.71394 0.73962 0.0
H874 H 0.08032 0.64936 0.7884 0.0
O875 O 0.04024 0.67314 0.74156 0.0
C876 C 0.10325 0.59311 0.75279 0.0
O877 O 0.13329 0.60589 0.75667 0.0
N878 N 0.1224 0.6491 0.70416 0.0
C879 C 0.15916 0.65845 0.65475 0.0
C880 C 0.14535 0.68555 0.66892 0.0
C881 C 0.12654 0.68018 0.69281 0.0
C882 C 0.13963 0.62254 0.69293 0.0
C883 C 0.15742 0.62655 0.66733 0.0
H884 H 0.11265 0.70108 0.70074 0.0
H885 H 0.13749 0.59775 0.70182 0.0
H886 H 0.01679 0.66475 0.68104 0.0
H887 H 0.04226 0.56578 0.65965 0.0
H888 H 0.15441 0.72409 0.79296 0.0
H889 H 0.14578 0.7105 0.6598 0.0
H890 H 0.16794 0.60494 0.65683 0.0
C891 C 0.17808 0.32348 0.43968 0.0
C892 C 0.1908 0.30448 0.41841 0.0
N893 N 0.17165 0.27685 0.41584 0.0
N894 N 0.15155 0.30787 0.45124 0.0
C895 C 0.14788 0.27941 0.43618 0.0
H896 H 0.18662 0.34812 0.44567 0.0
Co897 Co 0.13189 0.3303 0.48064 0.0
C898 C 0.06522 0.30222 0.49436 0.0
O899 O 0.05641 0.33383 0.49602 0.0
N900 N 0.11442 0.35513 0.51145 0.0
C901 C 0.09937 0.39591 0.5408 0.0
C902 C 0.10684 0.38808 0.51336 0.0
C903 C 0.11115 0.34365 0.53825 0.0
N904 N 0.1022 0.36799 0.55647 0.0
O905 O 0.16422 0.30866 0.50522 0.0
H906 H 0.10811 0.40617 0.4966 0.0
H907 H 0.11753 0.31838 0.54458 0.0
O908 O 0.09588 0.29484 0.48773 0.0
C909 C 0.18863 0.3267 0.51399 0.0
O910 O 0.1818 0.35695 0.52317 0.0
N911 N 0.10403 0.35163 0.45397 0.0
C912 C 0.06708 0.38233 0.41169 0.0
C913 C 0.06265 0.34836 0.41746 0.0
C914 C 0.08211 0.33324 0.43801 0.0
C915 C 0.11173 0.38361 0.44593 0.0
C916 C 0.09279 0.39997 0.4252 0.0
H917 H 0.07971 0.30651 0.44053 0.0
H918 H 0.1328 0.3964 0.45546 0.0
H919 H 0.12723 0.26211 0.43901 0.0
H920 H 0.21163 0.31129 0.40495 0.0
H921 H 0.09394 0.42067 0.54888 0.0
H922 H 0.04422 0.3336 0.4061 0.0
H923 H 0.09793 0.4259 0.41999 0.0
C924 C 0.4619 0.60962 0.30868 0.0
C925 C 0.48657 0.5999 0.3271 0.0
N926 N 0.51626 0.61056 0.317 0.0
N927 N 0.47581 0.62657 0.28703 0.0
C928 C 0.50908 0.62678 0.29267 0.0
H929 H 0.43552 0.60376 0.3105 0.0
Co930 Co 0.45189 0.63914 0.25488 0.0
C931 C 0.50888 0.69332 0.23806 0.0
O932 O 0.53827 0.6802 0.23244 0.0
N933 N 0.42769 0.65132 0.2217 0.0
C934 C 0.39226 0.6745 0.19083 0.0
C935 C 0.39952 0.66995 0.21894 0.0
C936 C 0.43663 0.64453 0.19469 0.0
N937 N 0.41544 0.65824 0.17569 0.0
O938 O 0.47434 0.60349 0.23541 0.0
H939 H 0.38556 0.68104 0.23598 0.0
H940 H 0.45891 0.63079 0.18891 0.0
O941 O 0.48477 0.67377 0.24499 0.0
C942 C 0.45381 0.57963 0.24084 0.0
O943 O 0.42354 0.58764 0.24935 0.0
N944 N 0.42813 0.66929 0.27687 0.0
C945 C 0.39812 0.69445 0.32498 0.0
C946 C 0.42751 0.70904 0.31444 0.0
C947 C 0.44253 0.6957 0.29058 0.0
C948 C 0.39835 0.65622 0.28591 0.0
C949 C 0.38264 0.66868 0.30991 0.0
H950 H 0.46706 0.70479 0.28501 0.0
H951 H 0.38808 0.63429 0.27568 0.0
H952 H 0.52775 0.63746 0.27878 0.0
H953 H 0.48296 0.58618 0.34658 0.0
H954 H 0.37187 0.6891 0.18214 0.0
H955 H 0.43981 0.72937 0.32555 0.0
H956 H 0.35988 0.65695 0.31758 0.0
C957 C 0.15916 0.67094 0.05791 0.0
C958 C 0.16932 0.68658 0.0821 0.0
N959 N 0.16119 0.7192 0.08018 0.0
N960 N 0.14469 0.69342 0.04055 0.0
C961 C 0.14593 0.72264 0.05478 0.0
H962 H 0.16331 0.6449 0.05284 0.0
Co963 Co 0.13083 0.68174 0.00449 0.0
C964 C 0.08512 0.7478 -0.00067 0.0
O965 O 0.1038 0.77494 -0.00138 0.0
N966 N 0.11713 0.66892 0.96767 0.0
C967 C 0.09115 0.64341 0.93198 0.0
C968 C 0.09448 0.64499 0.96067 0.0
C969 C 0.12692 0.68171 0.94244 0.0
N970 N 0.11153 0.66646 0.92044 0.0
O971 O 0.16851 0.70734 0.99006 0.0
H972 H 0.08038 0.62966 0.97517 0.0
H973 H 0.14526 0.70153 0.94015 0.0
O974 O 0.09937 0.71925 0.00147 0.0
C975 C 0.19363 0.68753 -0.00865 0.0
O976 O 0.18746 0.6554 -0.00533 0.0
N977 N 0.0978 0.65518 0.02116 0.0
C978 C 0.06773 0.6181 0.06343 0.0
C979 C 0.05585 0.64999 0.05668 0.0
C980 C 0.07179 0.66852 0.03602 0.0
C981 C 0.10742 0.62275 0.02554 0.0
C982 C 0.09272 0.60358 0.04692 0.0
H983 H 0.06521 0.69452 0.03465 0.0
H984 H 0.12894 0.61301 0.01442 0.0
H985 H 0.1353 0.74565 0.04681 0.0
H986 H 0.18223 0.67482 0.09958 0.0
H987 H 0.07455 0.62687 0.92043 0.0
H988 H 0.03646 0.66177 0.0692 0.0
H989 H 0.10247 0.57896 0.05188 0.0
C990 C 0.09402 0.43187 0.80198 0.0
C991 C 0.07695 0.44294 0.82517 0.0
N992 N 0.04854 0.42492 0.82735 0.0
N993 N 0.07639 0.40736 0.78926 0.0
C994 C 0.04855 0.40369 0.80509 0.0
H995 H 0.11807 0.44087 0.79485 0.0
Co996 Co 0.0933 0.389 0.75664 0.0
C997 C 0.05772 0.32523 0.74291 0.0
O998 O 0.08808 0.31509 0.73664 0.0
N999 N 0.11181 0.37229 0.72252 0.0
C1000 C 0.14521 0.35397 0.68825 0.0
C1001 C 0.14289 0.36073 0.71658 0.0
C1002 C 0.09592 0.37243 0.69722 0.0
N1003 N 0.11558 0.36102 0.67626 0.0
O1004 O 0.07382 0.42737 0.73671 0.0
H1005 H 0.16331 0.3583 0.73127 0.0
H1006 H 0.0708 0.38194 0.69406 0.0
O1007 O 0.05346 0.35614 0.75107 0.0
C1008 C 0.09688 0.44866 0.73036 0.0
O1009 O 0.12669 0.43692 0.72424 0.0
N1010 N 0.11492 0.35693 0.77908 0.0
C1011 C 0.14795 0.31923 0.81954 0.0
C1012 C 0.11352 0.31558 0.81568 0.0
C1013 C 0.09728 0.33549 0.79608 0.0
C1014 C 0.14811 0.36263 0.78431 0.0
C1015 C 0.16549 0.34339 0.80415 0.0
H1016 H 0.0703 0.33462 0.79585 0.0
H1017 H 0.16085 0.38308 0.77382 0.0
H1018 H 0.02918 0.38533 0.80087 0.0
H1019 H 0.08494 0.46265 0.83932 0.0
H1020 H 0.1674 0.34594 0.67704 0.0
H1021 H 0.0991 0.29822 0.82846 0.0
H1022 H 0.19194 0.34774 0.80782 0.0
C1023 C 0.33472 0.32253 0.54526 0.0
C1024 C 0.32356 0.3042 0.56783 0.0
N1025 N 0.34478 0.27847 0.57172 0.0
N1026 N 0.36255 0.30827 0.53463 0.0
C1027 C 0.36805 0.28124 0.55108 0.0
H1028 H 0.32327 0.34503 0.53701 0.0
Co1029 Co 0.38277 0.32748 0.50353 0.0
C1030 C 0.44747 0.29378 0.49074 0.0
O1031 O 0.45793 0.3242 0.485 0.0
N1032 N 0.40117 0.3489 0.47083 0.0
C1033 C 0.42324 0.38478 0.43976 0.0
C1034 C 0.41624 0.37918 0.46771 0.0
C1035 C 0.39922 0.33691 0.44414 0.0
N1036 N 0.41218 0.35834 0.42496 0.0
O1037 O 0.34851 0.30626 0.48114 0.0
H1038 H 0.42196 0.39668 0.48426 0.0
H1039 H 0.38814 0.31296 0.4388 0.0
O1040 O 0.41676 0.28923 0.4989 0.0
C1041 C 0.32621 0.32858 0.47655 0.0
O1042 O 0.3356 0.36013 0.47825 0.0
N1043 N 0.41169 0.34993 0.52806 0.0
C1044 C 0.448 0.38441 0.56836 0.0
C1045 C 0.45292 0.35015 0.56461 0.0
C1046 C 0.43375 0.33316 0.54496 0.0
C1047 C 0.40396 0.38251 0.5338 0.0
C1048 C 0.42258 0.40074 0.55353 0.0
H1049 H 0.43593 0.30639 0.54426 0.0
H1050 H 0.38351 0.39447 0.52269 0.0
H1051 H 0.38921 0.26459 0.5486 0.0
H1052 H 0.30163 0.30954 0.58042 0.0
H1053 H 0.43448 0.40713 0.43085 0.0
H1054 H 0.47129 0.33659 0.57703 0.0
H1055 H 0.41742 0.42704 0.55699 0.0
C1056 C 0.12704 0.14385 0.09522 0.0
C1057 C 0.09599 0.15396 0.08418 0.0
C1058 C 0.13232 0.14176 0.12438 0.0
C1059 C 0.10683 0.14999 0.14366 0.0
H1060 H 0.14737 0.1374 0.08114 0.0
H1061 H 0.15663 0.13371 0.13193 0.0
S1062 S 0.0216 0.18 0.12525 0.0
N1063 N 0.03966 0.17312 0.09448 0.0
N1064 N 0.04973 0.17003 0.14942 0.0
C1065 C 0.0756 0.16016 0.13284 0.0
C1066 C 0.07015 0.16196 0.10306 0.0
C1067 C 0.10583 0.81986 0.38577 0.0
C1068 C 0.10856 0.85066 0.39981 0.0
C1069 C 0.10545 0.81823 0.35621 0.0
C1070 C 0.10819 0.84735 0.3394 0.0
H1071 H 0.10285 0.79696 0.3978 0.0
H1072 H 0.10211 0.79393 0.34652 0.0
S1073 S 0.11971 0.93391 0.3666 0.0
N1074 N 0.11583 0.91068 0.39528 0.0
N1075 N 0.11674 0.90783 0.33968 0.0
C1076 C 0.11214 0.87829 0.3534 0.0
C1077 C 0.11193 0.87988 0.38358 0.0
C1078 C 0.4035 0.83508 0.63332 0.0
C1079 C 0.40468 0.86315 0.65102 0.0
C1080 C 0.40276 0.83878 0.6039 0.0
C1081 C 0.40223 0.87076 0.59116 0.0
H1082 H 0.40277 0.81017 0.64238 0.0
H1083 H 0.40237 0.81634 0.59114 0.0
S1084 S 0.40329 0.95214 0.62948 0.0
N1085 N 0.40525 0.92355 0.65459 0.0
N1086 N 0.4019 0.93114 0.59953 0.0
C1087 C 0.40345 0.89907 0.60903 0.0
C1088 C 0.40509 0.89509 0.6389 0.0
C1089 C 0.41992 0.18946 0.85639 0.0
C1090 C 0.40965 0.1646 0.83714 0.0
C1091 C 0.41729 0.18437 0.88565 0.0
C1092 C 0.40435 0.15424 0.89663 0.0
H1093 H 0.43087 0.21261 0.84877 0.0
H1094 H 0.42627 0.2037 0.89979 0.0
S1095 S 0.36948 0.08347 0.85513 0.0
N1096 N 0.38291 0.11035 0.83116 0.0
N1097 N 0.37808 0.10071 0.88594 0.0
C1098 C 0.39281 0.1298 0.87757 0.0
C1099 C 0.39543 0.135 0.8479 0.0
C1100 C 0.88305 0.84018 0.88532 0.0
C1101 C 0.90467 0.86238 0.89951 0.0
C1102 C 0.87731 0.84326 0.85621 0.0
C1103 C 0.89293 0.86869 0.84033 0.0
H1104 H 0.87151 0.81957 0.89661 0.0
H1105 H 0.86149 0.82491 0.84588 0.0
S1106 S 0.94729 0.93637 0.86851 0.0
N1107 N 0.93881 0.91267 0.8962 0.0
N1108 N 0.92773 0.91874 0.84162 0.0
C1109 C 0.91321 0.89204 0.85459 0.0
C1110 C 0.91915 0.88881 0.88415 0.0
C1111 C 0.91853 0.18981 0.62559 0.0
C1112 C 0.91663 0.16259 0.64428 0.0
C1113 C 0.91891 0.18485 0.59633 0.0
C1114 C 0.91662 0.15246 0.5846 0.0
H1115 H 0.91933 0.21513 0.63375 0.0
H1116 H 0.92056 0.20664 0.5828 0.0
S1117 S 0.91 0.07294 0.62524 0.0
N1118 N 0.91257 0.10236 0.64958 0.0
N1119 N 0.91189 0.09269 0.59466 0.0
C1120 C 0.91515 0.12495 0.60332 0.0
C1121 C 0.91542 0.13012 0.63313 0.0
C1122 C 0.62785 0.16087 0.35556 0.0
C1123 C 0.60337 0.17026 0.33567 0.0
C1124 C 0.62273 0.16522 0.38454 0.0
C1125 C 0.59292 0.17925 0.39494 0.0
H1126 H 0.65127 0.15002 0.34863 0.0
H1127 H 0.64227 0.15731 0.39892 0.0
S1128 S 0.5211 0.20871 0.35153 0.0
N1129 N 0.54828 0.19438 0.32829 0.0
N1130 N 0.53855 0.20292 0.38275 0.0
C1131 C 0.56797 0.18841 0.37526 0.0
C1132 C 0.5732 0.1838 0.34567 0.0
C1133 C 0.58583 0.87916 0.09769 0.0
C1134 C 0.60735 0.85782 0.08262 0.0
C1135 C 0.58413 0.87838 0.12713 0.0
C1136 C 0.60447 0.85675 0.1432 0.0
H1137 H 0.5694 0.89627 0.08666 0.0
H1138 H 0.56577 0.89429 0.13706 0.0
S1139 S 0.66931 0.79935 0.11443 0.0
N1140 N 0.65141 0.81587 0.08633 0.0
N1141 N 0.65045 0.81668 0.14164 0.0
C1142 C 0.628 0.83698 0.12854 0.0
C1143 C 0.62901 0.83705 0.09834 0.0
C1144 C 0.58236 0.68032 0.59812 0.0
C1145 C 0.59139 0.64969 0.58568 0.0
C1146 C 0.58441 0.68503 0.62742 0.0
C1147 C 0.59578 0.65935 0.64549 0.0
H1148 H 0.57307 0.7006 0.5851 0.0
H1149 H 0.57645 0.70881 0.63602 0.0
S1150 S 0.62622 0.57578 0.62306 0.0
N1151 N 0.61446 0.59414 0.59345 0.0
N1152 N 0.61868 0.6031 0.64837 0.0
C1153 C 0.6057 0.62889 0.63321 0.0
C1154 C 0.60343 0.62405 0.60338 0.0
C1155 C 0.6272 0.35057 0.88257 0.0
C1156 C 0.59552 0.35255 0.89531 0.0
C1157 C 0.6305 0.35001 0.85318 0.0
C1158 C 0.60223 0.35125 0.8354 0.0
H1159 H 0.64961 0.34997 0.89548 0.0
H1160 H 0.65543 0.34887 0.84426 0.0
S1161 S 0.51355 0.35382 0.85855 0.0
N1162 N 0.5353 0.35434 0.88823 0.0
N1163 N 0.5414 0.35268 0.83282 0.0
C1164 C 0.57035 0.35288 0.84791 0.0
C1165 C 0.56702 0.35366 0.87791 0.0
C1166 C 0.91223 0.38913 0.12795 0.0
C1167 C 0.8953 0.36319 0.14201 0.0
C1168 C 0.91232 0.39076 0.09838 0.0
C1169 C 0.8953 0.36667 0.08195 0.0
H1170 H 0.92796 0.4063 0.13971 0.0
H1171 H 0.92767 0.40965 0.08823 0.0
S1172 S 0.84177 0.2979 0.10935 0.0
N1173 N 0.85693 0.31621 0.13787 0.0
N1174 N 0.85711 0.31909 0.08233 0.0
C1175 C 0.87527 0.34292 0.09596 0.0
C1176 C 0.87532 0.34123 0.12603 0.0
C1177 C 0.91534 0.67665 0.35562 0.0
C1178 C 0.91404 0.64948 0.33683 0.0
C1179 C 0.91242 0.67182 0.38478 0.0
C1180 C 0.90767 0.63963 0.39636 0.0
H1181 H 0.91846 0.7019 0.34766 0.0
H1182 H 0.91374 0.69358 0.39832 0.0
S1183 S 0.90259 0.56008 0.35591 0.0
N1184 N 0.90827 0.58924 0.33166 0.0
N1185 N 0.9021 0.58002 0.38638 0.0
C1186 C 0.90707 0.61211 0.37776 0.0
C1187 C 0.91039 0.61707 0.34803 0.0
C1188 C 0.43985 0.36498 0.37876 0.0
C1189 C 0.41162 0.35561 0.3947 0.0
C1190 C 0.43925 0.36398 0.34916 0.0
C1191 C 0.41032 0.35371 0.3345 0.0
H1192 H 0.46261 0.37289 0.38933 0.0
H1193 H 0.4617 0.37077 0.33768 0.0
S1194 S 0.32865 0.3305 0.36648 0.0
N1195 N 0.35333 0.33814 0.39372 0.0
N1196 N 0.35201 0.33644 0.33818 0.0
C1197 C 0.38173 0.34497 0.35025 0.0
C1198 C 0.38242 0.34586 0.38033 0.0
C1199 C 0.42465 0.68901 0.10112 0.0
C1200 C 0.42212 0.6593 0.08541 0.0
C1201 C 0.42256 0.68849 0.13071 0.0
C1202 C 0.41828 0.65817 0.14545 0.0
H1203 H 0.42838 0.71269 0.09037 0.0
H1204 H 0.42455 0.71182 0.14222 0.0
S1205 S 0.40813 0.57401 0.11383 0.0
N1206 N 0.41365 0.59915 0.08646 0.0
N1207 N 0.41004 0.59807 0.14214 0.0
C1208 C 0.41546 0.62839 0.12993 0.0
C1209 C 0.41731 0.62898 0.09984 0.0
C1210 C 0.11514 0.64477 0.87194 0.0
C1211 C 0.11567 0.67217 0.89061 0.0
C1212 C 0.11609 0.64946 0.84269 0.0
C1213 C 0.11771 0.68172 0.83089 0.0
H1214 H 0.11374 0.61944 0.88007 0.0
H1215 H 0.11554 0.62764 0.82915 0.0
S1216 S 0.11832 0.76186 0.87034 0.0
N1217 N 0.11713 0.73276 0.89514 0.0
N1218 N 0.11916 0.7416 0.83999 0.0
C1219 C 0.11871 0.70938 0.84923 0.0
C1220 C 0.11765 0.7046 0.87913 0.0
C1221 C 0.12305 0.39032 0.63133 0.0
C1222 C 0.10946 0.36343 0.64656 0.0
C1223 C 0.1198 0.39201 0.60196 0.0
C1224 C 0.10324 0.36656 0.58679 0.0
H1225 H 0.13674 0.40985 0.64227 0.0
H1226 H 0.13127 0.41285 0.59094 0.0
S1227 S 0.06214 0.29152 0.6174 0.0
N1228 N 0.07796 0.31143 0.64495 0.0
N1229 N 0.07199 0.3143 0.58945 0.0
C1230 C 0.08909 0.33974 0.60193 0.0
C1231 C 0.09213 0.33826 0.63194 0.0
C1232 C 0.05298 0.98597 0.22978 0.0
C1233 C 0.06245 0.96918 0.25475 0.0
C1234 C 0.05558 0.02111 0.22748 0.0
C1235 C 0.06772 0.04022 0.25016 0.0
H1236 H 0.04683 0.9717 0.21106 0.0
H1237 H 0.05117 0.03286 0.20722 0.0
S1238 S 0.09002 0.00852 0.32137 0.0
N1239 N 0.08005 0.97454 0.30336 0.0
N1240 N 0.08461 0.04019 0.29943 0.0
C1241 C 0.07374 0.02387 0.27601 0.0
C1242 C 0.07117 0.98838 0.27824 0.0
C1243 C 0.23274 0.80604 0.52282 0.0
C1244 C 0.21568 0.7972 0.49776 0.0
C1245 C 0.26769 0.81002 0.52352 0.0
C1246 C 0.28693 0.80489 0.49925 0.0
H1247 H 0.21865 0.81315 0.54138 0.0
H1248 H 0.27922 0.82038 0.5423 0.0
S1249 S 0.25539 0.77589 0.42977 0.0
N1250 N 0.22122 0.77933 0.44921 0.0
N1251 N 0.28707 0.78607 0.45058 0.0
C1252 C 0.27063 0.79244 0.47501 0.0
C1253 C 0.23492 0.78862 0.47424 0.0
C1254 C 0.43681 0.02486 0.77528 0.0
C1255 C 0.45534 0.04427 0.75621 0.0
C1256 C 0.43317 0.99035 0.77156 0.0
C1257 C 0.44818 0.97351 0.74877 0.0
H1258 H 0.42214 0.03694 0.79158 0.0
H1259 H 0.41611 0.9773 0.78549 0.0
S1260 S 0.50356 0.01211 0.69518 0.0
N1261 N 0.49233 0.04377 0.71551 0.0
N1262 N 0.48561 0.97831 0.70867 0.0
C1263 C 0.46966 0.99194 0.73115 0.0
C1264 C 0.4733 0.02749 0.73491 0.0
C1265 C 0.26672 0.21652 0.97886 0.0
C1266 C 0.28666 0.19031 0.98957 0.0
C1267 C 0.23207 0.21825 0.98521 0.0
C1268 C 0.21675 0.19429 0.00301 0.0
H1269 H 0.27728 0.23411 0.96387 0.0
H1270 H 0.21678 0.23651 0.97425 0.0
S1271 S 0.25879 0.12344 0.03891 0.0
N1272 N 0.28845 0.14114 0.01979 0.0
N1273 N 0.22509 0.14647 0.03373 0.0
C1274 C 0.2373 0.17027 0.01588 0.0
C1275 C 0.27175 0.16762 0.00855 0.0
C1276 C 0.92438 0.0349 0.76455 0.0
C1277 C 0.94396 0.05092 0.74373 0.0
C1278 C 0.9246 1.00013 0.76815 0.0
C1279 C 0.94414 0.97957 0.75089 0.0
H1280 H 0.90657 0.04899 0.77687 0.0
H1281 H 0.9069 0.98902 0.78278 0.0
S1282 S 1.00173 0.00838 0.69445 0.0
N1283 N 0.98547 0.04343 0.70695 0.0
N1284 N 0.98533 0.97753 0.71326 0.0
C1285 C 0.96573 0.99513 0.73129 0.0
C1286 C 0.96577 0.03094 0.72779 0.0
C1287 C 0.77602 0.21803 0.48874 0.0
C1288 C 0.7907 0.19229 0.50504 0.0
C1289 C 0.74106 0.21846 0.48333 0.0
C1290 C 0.72003 0.19259 0.49334 0.0
H1291 H 0.79185 0.23638 0.47838 0.0
H1292 H 0.73087 0.2378 0.46979 0.0
S1293 S 0.74619 0.12205 0.53983 0.0
N1294 N 0.78106 0.14313 0.53384 0.0
N1295 N 0.71671 0.14234 0.52247 0.0
C1296 C 0.7345 0.16804 0.511 0.0
C1297 C 0.76943 0.16836 0.51719 0.0
C1298 C 0.54442 0.03204 0.2454 0.0
C1299 C 0.57172 0.05011 0.23428 0.0
C1300 C 0.53969 0.99789 0.23854 0.0
C1301 C 0.56174 0.98136 0.21995 0.0
H1302 H 0.5284 0.04345 0.26107 0.0
H1303 H 0.52078 0.98371 0.24982 0.0
S1304 S 0.63287 0.01904 0.18134 0.0
N1305 N 0.61871 0.04941 0.20159 0.0
N1306 N 0.60795 0.9868 0.18733 0.0
C1307 C 0.58636 1.00032 0.20634 0.0
C1308 C 0.59199 0.03427 0.21398 0.0
C1309 C 0.77972 0.81796 0.0215 0.0
C1310 C 0.79709 0.80686 -0.00257 0.0
C1311 C 0.74477 0.81618 0.0232 0.0
C1312 C 0.72573 0.80321 0.0009 0.0
H1313 H 0.79287 0.83109 0.03811 0.0
H1314 H 0.73242 0.82839 0.04074 0.0
S1315 S 0.75912 0.76589 0.93514 0.0
N1316 N 0.79292 0.7786 0.95233 0.0
N1317 N 0.72687 0.77485 0.95561 0.0
C1318 C 0.74289 0.78852 0.9781 0.0
C1319 C 0.77873 0.7905 0.9763 0.0
C1320 C 0.57253 0.49082 0.76939 0.0
C1321 C 0.56257 0.47085 0.74662 0.0
C1322 C 0.5713 0.52583 0.76773 0.0
C1323 C 0.56035 0.54246 0.74317 0.0
H1324 H 0.58432 0.47943 0.78763 0.0
H1325 H 0.58216 0.53981 0.78491 0.0
S1326 S 0.52805 0.50148 0.67864 0.0
N1327 N 0.53794 0.46999 0.69973 0.0
N1328 N 0.53652 0.5361 0.69642 0.0
C1329 C 0.54758 0.52283 0.72111 0.0
C1330 C 0.54847 0.48692 0.72291 0.0
C1331 C 0.77039 0.29918 -0.00488 0.0
C1332 C 0.78891 0.31896 0.97607 0.0
C1333 C 0.73525 0.29546 -0.00798 0.0
C1334 C 0.71782 0.31126 0.96971 0.0
H1335 H 0.7825 0.28902 0.01371 0.0
H1336 H 0.72139 0.28294 0.00858 0.0
S1337 S 0.75545 0.36028 0.91161 0.0
N1338 N 0.78731 0.35068 0.93227 0.0
N1339 N 0.72233 0.34278 0.92634 0.0
C1340 C 0.73668 0.32766 0.94906 0.0
C1341 C 0.77193 0.33189 0.95234 0.0
C1342 C 0.94968 0.52086 0.26973 0.0
C1343 C 0.96304 0.54006 0.24768 0.0
C1344 C 0.94748 0.48594 0.26766 0.0
C1345 C 0.9585 0.46879 0.24344 0.0
H1346 H 0.93752 0.53311 0.28735 0.0
H1347 H 0.93408 0.47271 0.28405 0.0
S1348 S 0.99981 0.50715 0.18152 0.0
N1349 N 0.99119 0.53917 0.20232 0.0
N1350 N 0.9868 0.47328 0.19842 0.0
C1351 C 0.97508 0.48726 0.22254 0.0
C1352 C 0.97742 0.52303 0.22469 0.0
C1353 C 0.72713 0.63856 0.48275 0.0
C1354 C 0.70951 0.66489 0.49557 0.0
C1355 C 0.76088 0.64186 0.4754 0.0
C1356 C 0.77907 0.67135 0.48107 0.0
H1357 H 0.71476 0.61497 0.47821 0.0
H1358 H 0.77344 0.62022 0.4666 0.0
S1359 S 0.74459 0.74852 0.51319 0.0
N1360 N 0.71223 0.72258 0.51191 0.0
N1361 N 0.77666 0.72802 0.49957 0.0
C1362 C 0.76167 0.69849 0.49293 0.0
C1363 C 0.72674 0.69538 0.49992 0.0
C1364 C 0.45226 0.52873 0.27054 0.0
C1365 C 0.46449 0.54464 0.24604 0.0
C1366 C 0.45192 0.49382 0.27315 0.0
C1367 C 0.4643 0.47339 0.2516 0.0
H1368 H 0.44014 0.54323 0.28689 0.0
H1369 H 0.43895 0.48272 0.29094 0.0
S1370 S 0.50491 0.50264 0.1856 0.0
N1371 N 0.49338 0.53757 0.20153 0.0
N1372 N 0.49389 0.47163 0.20684 0.0
C1373 C 0.48032 0.48902 0.22854 0.0
C1374 C 0.48019 0.52481 0.22565 0.0
C1375 C 0.2826 0.72039 0.98115 0.0
C1376 C 0.29945 0.70536 0.00413 0.0
C1377 C 0.24738 0.71765 0.97812 0.0
C1378 C 0.22824 0.6994 -0.00221 0.0
H1379 H 0.29692 0.73134 0.96407 0.0
H1380 H 0.23565 0.72717 0.95913 0.0
S1381 S 0.26046 0.65895 0.06307 0.0
N1382 N 0.29405 0.67525 0.04811 0.0
N1383 N 0.22893 0.66888 0.04217 0.0
C1384 C 0.2448 0.6868 0.02184 0.0
C1385 C 0.28013 0.6902 0.02512 0.0
C1386 C 0.06803 0.50568 0.73428 0.0
C1387 C 0.09555 0.48461 0.73972 0.0
C1388 C 0.06962 0.5405 0.74021 0.0
C1389 C 0.09872 0.55559 0.75194 0.0
H1390 H 0.04582 0.49558 0.72422 0.0
H1391 H 0.04838 0.55589 0.73439 0.0
S1392 S 0.17521 0.51015 0.77479 0.0
N1393 N 0.15119 0.48097 0.76069 0.0
N1394 N 0.15366 0.54519 0.77216 0.0
C1395 C 0.12517 0.53412 0.75939 0.0
C1396 C 0.12376 0.49909 0.75314 0.0
C1397 C 0.26776 0.34869 0.47431 0.0
C1398 C 0.28965 0.32192 0.47996 0.0
C1399 C 0.23532 0.34939 0.4852 0.0
C1400 C 0.22219 0.32251 0.50089 0.0
H1401 H 0.27651 0.37068 0.46306 0.0
H1402 H 0.22053 0.37175 0.4817 0.0
S1403 S 0.26725 0.24435 0.51908 0.0
N1404 N 0.29505 0.26656 0.50115 0.0
N1405 N 0.23256 0.26694 0.51977 0.0
C1406 C 0.24257 0.29419 0.5048 0.0
C1407 C 0.27652 0.29397 0.49457 0.0
C1408 C 1.00005 0.25874 0.27726 0.0
C1409 C 1.00012 0.28806 0.26048 0.0
C1410 C 0.01491 0.22873 0.26801 0.0
C1411 C 0.03122 0.2268 0.24177 0.0
H1412 H 0.98837 0.25881 0.29786 0.0
H1413 H 0.01493 0.20739 0.28216 0.0
S1414 S 0.03557 0.29492 0.18836 0.0
N1415 N 0.01557 0.31201 0.21516 0.0
N1416 N 0.04392 0.25608 0.19805 0.0
C1417 C 0.03022 0.25543 0.22427 0.0
C1418 C 0.01474 0.28588 0.23355 0.0
C1419 C 0.01245 0.75889 0.50109 0.0
C1420 C 0.03485 0.75294 0.47853 0.0
C1421 C 0.97945 0.74569 0.50124 0.0
C1422 C 0.96734 0.72606 0.47875 0.0
H1423 H 0.0204 0.77352 0.519 0.0
H1424 H 0.96411 0.74924 0.51981 0.0
S1425 S 0.01466 0.70372 0.4142 0.0
N1426 N 0.04125 0.72675 0.43259 0.0
N1427 N 0.98002 0.70201 0.43313 0.0
C1428 C 0.98897 0.72096 0.45574 0.0
C1429 C 0.02236 0.73434 0.45553 0.0
C1430 C 0.47084 0.75983 0.72295 0.0
C1431 C 0.47876 0.7838 0.74377 0.0
C1432 C 0.48521 0.72779 0.72276 0.0
C1433 C 0.5084 0.71762 0.74344 0.0
H1434 H 0.45219 0.76548 0.70701 0.0
H1435 H 0.47744 0.71061 0.70633 0.0
S1436 S 0.54033 0.77194 0.80146 0.0
N1437 N 0.51289 0.79589 0.78488 0.0
N1438 N 0.54063 0.73588 0.78437 0.0
C1439 C 0.51775 0.74188 0.76384 0.0
C1440 C 0.50291 0.77485 0.76399 0.0
C1441 C 0.47489 0.25755 0.01308 0.0
C1442 C 0.47532 0.23018 -0.00549 0.0
C1443 C 0.50355 0.2778 0.01693 0.0
C1444 C 0.53405 0.27147 0.00266 0.0
H1445 H 0.45247 0.2631 0.02504 0.0
H1446 H 0.50169 0.29902 0.03106 0.0
S1447 S 0.54811 0.20412 0.95056 0.0
N1448 N 0.50891 0.19868 0.96078 0.0
N1449 N 0.56235 0.23657 0.96856 0.0
C1450 C 0.5349 0.24423 0.98416 0.0
C1451 C 0.50568 0.22378 0.97992 0.0
C1452 C 0.03574 0.7378 0.22794 0.0
C1453 C 1.00427 0.72176 0.22968 0.0
C1454 C 0.03878 0.77302 0.22781 0.0
C1455 C 0.01055 0.79421 0.22944 0.0
H1456 H 0.05843 0.72305 0.22663 0.0
H1457 H 0.06367 0.7836 0.22649 0.0
S1458 S 0.92214 0.76544 0.23434 0.0
N1459 N 0.94415 0.73054 0.23326 0.0
N1460 N 0.94982 0.79613 0.23263 0.0
C1461 C 0.97891 0.77859 0.23101 0.0
C1462 C 0.97581 0.74269 0.23122 0.0
C1463 C 0.50048 0.73647 0.47856 0.0
C1464 C 0.53224 0.74233 0.49111 0.0
C1465 C 0.47261 0.75675 0.4841 0.0
C1466 C 0.47491 0.78416 0.50243 0.0
H1467 H 0.49688 0.71611 0.4638 0.0
H1468 H 0.44939 0.75148 0.47311 0.0
S1469 S 0.55119 0.80933 0.5427 0.0
N1470 N 0.56353 0.77667 0.52409 0.0
N1471 N 0.5113 0.81504 0.53469 0.0
C1472 C 0.50616 0.7898 0.51597 0.0
C1473 C 0.5347 0.76893 0.51029 0.0
C1474 C 0.48447 0.24052 0.72316 0.0
C1475 C 0.51183 0.21909 0.7287 0.0
C1476 C 0.48783 0.27567 0.72318 0.0
C1477 C 0.51874 0.29142 0.72887 0.0
H1478 H 0.46002 0.23024 0.71869 0.0
H1479 H 0.46588 0.29061 0.7185 0.0
S1480 S 0.59815 0.24736 0.74639 0.0
N1481 N 0.57103 0.21679 0.74077 0.0
N1482 N 0.57707 0.28244 0.74167 0.0
C1483 C 0.54627 0.27039 0.73488 0.0
C1484 C 0.54291 0.2345 0.73456 0.0
C1485 C 0.02496 0.28503 0.9769 0.0
C1486 C 0.03956 0.25292 0.97508 0.0
C1487 C 0.98987 0.28967 0.97653 0.0
C1488 C 0.96721 0.26253 0.97457 0.0
H1489 H 0.04076 0.30703 0.97875 0.0
H1490 H 0.98058 0.31492 0.97795 0.0
S1491 S 0.99175 0.17323 0.96709 0.0
N1492 N 0.0277 0.19351 0.96972 0.0
N1493 N 0.96245 0.20218 0.96917 0.0
C1494 C 0.98138 0.23033 0.97216 0.0
C1495 C 0.01717 0.22558 0.97239 0.0
C1496 C 1.0056 0.79169 0.7339 0.0
C1497 C 0.97973 0.79047 0.75382 0.0
C1498 C 0.02385 0.7629 0.72683 0.0
C1499 C 0.01752 0.73123 0.73941 0.0
H1500 H 0.0108 0.81468 0.72253 0.0
H1501 H 0.04286 0.76568 0.71072 0.0
S1502 S 0.95527 0.71523 0.7957 0.0
N1503 N 0.95063 0.7554 0.78818 0.0
N1504 N 0.98535 0.70145 0.77484 0.0
C1505 C 0.9931 0.72999 0.76062 0.0
C1506 C 0.97418 0.75946 0.76779 0.0
C1507 C 0.00865 0.22818 0.4759 0.0
C1508 C 0.97856 0.23559 0.49037 0.0
C1509 C 0.03735 0.24867 0.4782 0.0
C1510 C 0.03725 0.27729 0.49536 0.0
H1511 H 0.00999 0.20627 0.46248 0.0
H1512 H 0.05933 0.24255 0.46588 0.0
S1513 S 0.96614 0.30584 0.53998 0.0
N1514 N 0.95132 0.27236 0.52371 0.0
N1515 N 1.00497 0.31069 0.52861 0.0
C1516 C 1.00754 0.28444 0.51052 0.0
C1517 C 0.97828 0.26376 0.50786 0.0
C1518 C 0.54035 0.28311 0.23448 0.0
C1519 C 0.50802 0.2967 0.23101 0.0
C1520 C 0.54573 0.24822 0.23555 0.0
C1521 C 0.51913 0.225 0.23285 0.0
H1522 H 0.56186 0.29953 0.23658 0.0
H1523 H 0.57109 0.23944 0.23883 0.0
S1524 S 0.42937 0.2468 0.22425 0.0
N1525 N 0.44875 0.28331 0.22582 0.0
N1526 N 0.45905 0.2183 0.22716 0.0
C1527 C 0.48667 0.2381 0.22969 0.0
C1528 C 0.48111 0.27365 0.22881 0.0
C1529 C 0.52896 0.73902 0.95735 0.0
C1530 C 0.54779 0.7591 0.97599 0.0
C1531 C 0.49415 0.73409 0.96096 0.0
C1532 C 0.47646 0.74867 0.98362 0.0
H1533 H 0.54127 0.7268 0.93983 0.0
H1534 H 0.48138 0.71772 0.94633 0.0
S1535 S 0.51422 0.8024 0.03909 0.0
N1536 N 0.54608 0.79268 0.0185 0.0
N1537 N 0.48103 0.7843 0.02492 0.0
C1538 C 0.49501 0.76915 0.00218 0.0
C1539 C 0.53044 0.77413 -0.00153 0.0
C1540 C 0.01731 0.23873 0.73359 0.0
C1541 C 0.98979 0.23904 0.75189 0.0
C1542 C 0.03777 0.26733 0.73017 0.0
C1543 C 0.0319 0.29772 0.74492 0.0
H1544 H 0.02229 0.21673 0.72093 0.0
H1545 H 0.05857 0.26551 0.7156 0.0
S1546 S 0.96357 0.3109 0.79655 0.0
N1547 N 0.95786 0.27206 0.78548 0.0
N1548 N 0.99675 0.32524 0.7795 0.0
C1549 C 1.00463 0.29814 0.76358 0.0
C1550 C 0.98362 0.26902 0.76696 0.0
C1551 C 0.4865 0.25908 0.52006 0.0
C1552 C 0.47484 0.26849 0.49312 0.0
C1553 C 0.52079 0.25223 0.52495 0.0
C1554 C 0.54467 0.25358 0.50303 0.0
H1555 H 0.47008 0.26093 0.5381 0.0
H1556 H 0.52909 0.2493 0.54656 0.0
S1557 S 0.52612 0.27193 0.42802 0.0
N1558 N 0.4893 0.27446 0.44374 0.0
N1559 N 0.55324 0.26184 0.45295 0.0
C1560 C 0.5326 0.25938 0.47563 0.0
C1561 C 0.49783 0.26636 0.47066 0.0
C1562 C 0.53025 0.78682 0.24321 0.0
C1563 C 0.4995 0.80336 0.23891 0.0
C1564 C 0.53298 0.75161 0.24282 0.0
C1565 C 0.50491 0.73082 0.23823 0.0
H1566 H 0.55256 0.80103 0.24712 0.0
H1567 H 0.5574 0.74061 0.24649 0.0
S1568 S 0.41819 0.76051 0.22493 0.0
N1569 N 0.44003 0.79527 0.22939 0.0
N1570 N 0.44523 0.72958 0.22852 0.0
C1571 C 0.47391 0.74679 0.2338 0.0
C1572 C 0.47117 0.78274 0.23415 0.0
C1573 C 0.03222 0.78063 0.00851 0.0
C1574 C 0.04748 0.75068 -0.00037 0.0
C1575 C 0.99709 0.78395 0.00984 0.0
C1576 C 0.97517 0.75744 0.00263 0.0
H1577 H 0.04754 0.80181 0.01476 0.0
H1578 H 0.98726 0.80776 0.01655 0.0
S1579 S 1.00215 0.67443 0.97551 0.0
N1580 N 0.03761 0.69471 0.98126 0.0
N1581 N 0.97199 0.70039 0.98481 0.0
C1582 C 0.99013 0.72743 -0.00671 0.0
C1583 C 0.02601 0.72422 -0.00848 0.0
C1584 C 0.18183 0.26663 0.3654 0.0
C1585 C 0.1723 0.2544 0.39214 0.0
C1586 C 0.17788 0.24721 0.34119 0.0
C1587 C 0.16452 0.21485 0.3429 0.0
H1588 H 0.19019 0.29224 0.36272 0.0
H1589 H 0.18293 0.25845 0.32081 0.0
S1590 S 0.13999 0.16926 0.40776 0.0
N1591 N 0.15264 0.20636 0.41907 0.0
N1592 N 0.14445 0.16995 0.37313 0.0
C1593 C 0.15719 0.20127 0.36951 0.0
C1594 C 0.16121 0.22107 0.39427 0.0
C1595 C 0.04535 0.91545 0.60586 0.0
C1596 C 0.06095 0.88407 0.60542 0.0
C1597 C 0.02649 0.92519 0.62927 0.0
C1598 C 0.02194 0.90337 0.65241 0.0
H1599 H 0.04507 0.93109 0.58717 0.0
H1600 H 0.01265 0.94844 0.628 0.0
S1601 S 0.06784 0.82374 0.66455 0.0
N1602 N 0.07896 0.83571 0.63258 0.0
N1603 N 0.0421 0.85296 0.67607 0.0
C1604 C 0.04202 0.87447 0.65386 0.0
C1605 C 0.06176 0.86497 0.63029 0.0
C1606 C 0.33791 0.76556 0.83919 0.0
C1607 C 0.34599 0.79899 0.84519 0.0
C1608 C 0.33311 0.74246 0.86096 0.0
C1609 C 0.3365 0.7522 0.88932 0.0
H1610 H 0.33864 0.75655 0.81765 0.0
H1611 H 0.33002 0.71634 0.85542 0.0
S1612 S 0.34992 0.83862 0.91559 0.0
N1613 N 0.35208 0.84205 0.88091 0.0
N1614 N 0.34185 0.79872 0.92211 0.0
C1615 C 0.34048 0.78643 0.89544 0.0
C1616 C 0.34554 0.8099 0.87323 0.0
C1617 C 0.52066 0.09221 0.10791 0.0
C1618 C 0.5139 0.0997 0.13643 0.0
C1619 C 0.49547 0.09318 0.08753 0.0
C1620 C 0.46271 0.10195 0.09482 0.0
H1621 H 0.54597 0.08839 0.10056 0.0
H1622 H 0.50241 0.0907 0.06554 0.0
S1623 S 0.4296 0.11548 0.16671 0.0
N1624 N 0.47008 0.10882 0.17139 0.0
N1625 N 0.4231 0.1129 0.13237 0.0
C1626 C 0.45459 0.10577 0.12335 0.0
C1627 C 0.48016 0.10417 0.14436 0.0
C1628 C 0.16386 0.73315 0.13075 0.0
C1629 C 0.16472 0.74364 0.10234 0.0
C1630 C 0.16128 0.75631 0.15266 0.0
C1631 C 0.15938 0.79067 0.14695 0.0
H1632 H 0.16249 0.70685 0.13614 0.0
H1633 H 0.15746 0.74712 0.17394 0.0
S1634 S 0.16723 0.83169 0.07724 0.0
N1635 N 0.16941 0.79119 0.07035 0.0
N1636 N 0.16269 0.8347 0.11176 0.0
C1637 C 0.16332 0.80178 0.1191 0.0
C1638 C 0.16638 0.77823 0.09671 0.0
C1639 C 0.44338 0.9084 0.36484 0.0
C1640 C 0.45816 0.91034 0.39167 0.0
C1641 C 0.46195 0.91613 0.34061 0.0
C1642 C 0.49569 0.92618 0.34258 0.0
H1643 H 0.41804 0.89895 0.36249 0.0
H1644 H 0.45031 0.91308 0.32013 0.0
S1645 S 0.54473 0.93673 0.4087 0.0
N1646 N 0.50726 0.9245 0.41929 0.0
N1647 N 0.54251 0.93885 0.37397 0.0
C1648 C 0.51005 0.92984 0.36958 0.0
C1649 C 0.49115 0.9219 0.3941 0.0
C1650 C 0.35677 0.22252 0.59091 0.0
C1651 C 0.34526 0.25538 0.59502 0.0
C1652 C 0.36365 0.20163 0.61389 0.0
C1653 C 0.359 0.21294 0.64165 0.0
H1654 H 0.36219 0.2136 0.56986 0.0
H1655 H 0.37505 0.17744 0.61004 0.0
S1656 S 0.32664 0.29538 0.66393 0.0
N1657 N 0.32724 0.29725 0.62915 0.0
N1658 N 0.3399 0.25747 0.6722 0.0
C1659 C 0.34496 0.24453 0.64606 0.0
C1660 C 0.33813 0.26597 0.62273 0.0
C1661 C 0.03207 0.10205 0.84021 0.0
C1662 C 0.99816 0.0975 0.84751 0.0
C1663 C 0.05681 0.10472 0.86101 0.0
C1664 C 0.04844 0.10215 0.88965 0.0
H1665 H 0.03921 0.10601 0.81846 0.0
H1666 H 0.08193 0.11207 0.85484 0.0
S1667 S 0.9652 0.08415 0.92008 0.0
N1668 N 0.95867 0.08619 0.88574 0.0
N1669 N 1.00582 0.09 0.92438 0.0
C1670 C 0.01574 0.09332 0.89709 0.0
C1671 C 0.99031 0.09131 0.8761 0.0
C1672 C 0.83864 0.79461 0.62824 0.0
C1673 C 0.87119 0.8071 0.63222 0.0
C1674 C 0.83076 0.77507 0.60459 0.0
C1675 C 0.85521 0.76697 0.58423 0.0
H1676 H 0.81972 0.79817 0.64432 0.0
H1677 H 0.80573 0.76471 0.60303 0.0
S1678 S 0.94245 0.79995 0.58238 0.0
N1679 N 0.92634 0.81549 0.61158 0.0
N1680 N 0.91227 0.77734 0.56799 0.0
C1681 C 0.88703 0.78209 0.58673 0.0
C1682 C 0.89483 0.80243 0.61058 0.0
C1683 C 0.95099 0.13477 0.35301 0.0
C1684 C 0.95079 0.11645 0.37835 0.0
C1685 C 0.97586 0.12945 0.33288 0.0
C1686 C 1.0011 0.10559 0.33756 0.0
H1687 H 0.93406 0.15571 0.35014 0.0
H1688 H 0.97734 0.14657 0.31521 0.0
S1689 S 1.00466 0.04408 0.39613 0.0
N1690 N 0.97289 0.06874 0.40413 0.0
N1691 N 0.01912 0.05776 0.36557 0.0
C1692 C 0.99777 0.08357 0.36057 0.0
C1693 C 0.97258 0.08919 0.3812 0.0
C1694 C 0.67121 0.22667 0.08986 0.0
C1695 C 0.68149 0.26026 0.09243 0.0
C1696 C 0.66732 0.2064 0.11372 0.0
C1697 C 0.67374 0.21922 0.14073 0.0
H1698 H 0.66409 0.21673 0.06948 0.0
H1699 H 0.65629 0.18172 0.11128 0.0
S1700 S 0.70562 0.3034 0.1589 0.0
N1701 N 0.70148 0.30401 0.12427 0.0
N1702 N 0.69442 0.26536 0.16885 0.0
C1703 C 0.6872 0.25139 0.14342 0.0
C1704 C 0.69104 0.27214 0.11927 0.0
C1705 C 0.52558 0.92403 0.89751 0.0
C1706 C 0.55788 0.91353 0.89035 0.0
C1707 C 0.50097 0.92738 0.87677 0.0
C1708 C 0.50804 0.92053 0.84822 0.0
H1709 H 0.51828 0.92581 0.91946 0.0
H1710 H 0.47565 0.93229 0.88369 0.0
S1711 S 0.5917 0.90123 0.81851 0.0
N1712 N 0.59768 0.90218 0.85298 0.0
N1713 N 0.55174 0.91028 0.81352 0.0
C1714 C 0.54152 0.91454 0.84057 0.0
C1715 C 0.56646 0.91072 0.86181 0.0
C1716 C 0.83714 0.25778 0.82817 0.0
C1717 C 0.84158 0.22409 0.83537 0.0
C1718 C 0.83585 0.28225 0.84906 0.0
C1719 C 0.83848 0.27364 0.87785 0.0
H1720 H 0.8393 0.26569 0.80636 0.0
H1721 H 0.83632 0.30806 0.84219 0.0
S1722 S 0.83791 0.18717 0.90685 0.0
N1723 N 0.84077 0.18214 0.87237 0.0
N1724 N 0.83538 0.22799 0.91205 0.0
C1725 C 0.83683 0.23941 0.8851 0.0
C1726 C 0.83902 0.21456 0.86369 0.0
C1727 C 0.55318 0.11652 0.61284 0.0
C1728 C 0.53921 0.11681 0.58569 0.0
C1729 C 0.5341 0.10647 0.636 0.0
C1730 C 0.50035 0.097 0.63273 0.0
H1731 H 0.57819 0.12633 0.6164 0.0
H1732 H 0.54506 0.10833 0.65685 0.0
S1733 S 0.45437 0.08906 0.56483 0.0
N1734 N 0.4919 0.10291 0.55588 0.0
N1735 N 0.45524 0.08471 0.59946 0.0
C1736 C 0.48726 0.09414 0.60519 0.0
C1737 C 0.50696 0.10402 0.58159 0.0
C1738 C 0.60842 0.81439 0.36993 0.0
C1739 C 0.62248 0.80911 0.34315 0.0
C1740 C 0.61265 0.79085 0.39134 0.0
C1741 C 0.63128 0.76179 0.3865 0.0
H1742 H 0.59251 0.83588 0.37374 0.0
H1743 H 0.6011 0.7951 0.41166 0.0
S1744 S 0.67511 0.7379 0.32073 0.0
N1745 N 0.65692 0.77398 0.31324 0.0
N1746 N 0.66585 0.72989 0.35402 0.0
C1747 C 0.64718 0.75728 0.36039 0.0
C1748 C 0.64261 0.78106 0.33852 0.0
C1749 C 0.03307 0.92191 0.10688 0.0
C1750 C 0.01994 0.92206 0.13443 0.0
C1751 C 0.0122 0.91693 0.08353 0.0
C1752 C 0.97762 0.91234 0.08706 0.0
H1753 H 0.05988 0.92276 0.10348 0.0
H1754 H 0.0235 0.91354 0.06297 0.0
S1755 S 0.93025 0.91694 0.15398 0.0
N1756 N 0.96978 0.92239 0.16339 0.0
N1757 N 0.9305 0.91238 0.11935 0.0
C1758 C 0.96381 0.91576 0.11406 0.0
C1759 C 0.98503 0.92075 0.13785 0.0
C1760 C 0.67221 0.70914 0.86025 0.0
C1761 C 0.66964 0.72116 0.83248 0.0
C1762 C 0.67655 0.7313 0.88277 0.0
C1763 C 0.67839 0.76601 0.87811 0.0
H1764 H 0.66739 0.68294 0.86479 0.0
H1765 H 0.67622 0.72151 0.90408 0.0
S1766 S 0.67681 0.80904 0.80867 0.0
N1767 N 0.67262 0.7689 0.80106 0.0
N1768 N 0.68064 0.81094 0.84331 0.0
C1769 C 0.67912 0.7779 0.85014 0.0
C1770 C 0.67485 0.75526 0.82728 0.0
C1771 C 0.54293 0.41922 0.14027 0.0
C1772 C 0.50879 0.42209 0.1333 0.0
C1773 C 0.56699 0.41386 0.11934 0.0
C1774 C 0.5575 0.41176 0.09092 0.0
H1775 H 0.55072 0.41902 0.16215 0.0
H1776 H 0.59257 0.40854 0.12557 0.0
S1777 S 0.47221 0.42031 0.0613 0.0
N1778 N 0.46723 0.42457 0.09567 0.0
N1779 N 0.51284 0.41537 0.05642 0.0
C1780 C 0.52409 0.41758 0.08344 0.0
C1781 C 0.49952 0.42256 0.10467 0.0
C1782 C 0.88471 0.27535 0.38211 0.0
C1783 C 0.85251 0.2656 0.39084 0.0
C1784 C 0.88953 0.29121 0.35617 0.0
C1785 C 0.86234 0.29798 0.33817 0.0
H1786 H 0.90658 0.26857 0.39436 0.0
H1787 H 0.91491 0.29699 0.3496 0.0
S1788 S 0.77262 0.28349 0.35358 0.0
N1789 N 0.79257 0.26847 0.38141 0.0
N1790 N 0.80194 0.29805 0.33221 0.0
C1791 C 0.82982 0.29123 0.34764 0.0
C1792 C 0.82484 0.27504 0.37413 0.0
C1793 C 1.00084 0.59851 0.61769 0.0
C1794 C 0.99427 0.61316 0.64404 0.0
C1795 C 0.97759 0.60065 0.59593 0.0
C1796 C 0.9473 0.61744 0.6001 0.0
H1797 H 0.02503 0.58746 0.61327 0.0
H1798 H 0.98453 0.59183 0.57514 0.0
S1799 S 0.91561 0.65379 0.66659 0.0
N1800 N 0.95351 0.63999 0.67447 0.0
N1801 N 0.90962 0.64483 0.63293 0.0
C1802 C 0.93907 0.6294 0.62695 0.0
C1803 C 0.96276 0.62715 0.64917 0.0
C1804 C 0.67086 0.2511 0.65208 0.0
C1805 C 0.67062 0.28592 0.64786 0.0
C1806 C 0.67513 0.22919 0.62943 0.0
C1807 C 0.67927 0.24146 0.60179 0.0
H1808 H 0.66426 0.24076 0.67249 0.0
H1809 H 0.67179 0.20269 0.63332 0.0
S1810 S 0.68921 0.33063 0.58124 0.0
N1811 N 0.68073 0.33182 0.61531 0.0
N1812 N 0.69031 0.29053 0.57271 0.0
C1813 C 0.68369 0.2762 0.59809 0.0
C1814 C 0.67903 0.29852 0.62119 0.0
C1815 C 0.96823 0.41482 0.86712 0.0
C1816 C 0.97919 0.41617 0.89525 0.0
C1817 C 0.99077 0.41957 0.84489 0.0
C1818 C 0.0249 0.42569 0.85019 0.0
H1819 H 0.94271 0.40739 0.8623 0.0
H1820 H 0.98182 0.41681 0.82346 0.0
S1821 S 0.06506 0.43335 0.92065 0.0
N1822 N 0.02519 0.42587 0.92752 0.0
N1823 N 0.06801 0.43462 0.88594 0.0
C1824 C 0.03557 0.4293 0.87839 0.0
C1825 C 0.01252 0.42458 0.90092 0.0
C1826 C 0.84307 0.77137 0.12999 0.0
C1827 C 0.84631 0.76164 0.10155 0.0
C1828 C 0.84587 0.74799 0.15178 0.0
C1829 C 0.85209 0.71423 0.14585 0.0
H1830 H 0.84159 0.79752 0.13576 0.0
H1831 H 0.84707 0.75696 0.17333 0.0
S1832 S 0.85374 0.67442 0.07546 0.0
N1833 N 0.8484 0.7147 0.06886 0.0
N1834 N 0.85558 0.67095 0.11015 0.0
C1835 C 0.85117 0.70345 0.11775 0.0
C1836 C 0.84789 0.72719 0.09547 0.0
C1837 C 0.5799 0.57597 0.36685 0.0
C1838 C 0.59861 0.60477 0.37368 0.0
C1839 C 0.55496 0.57701 0.346 0.0
C1840 C 0.54806 0.60677 0.33113 0.0
H1841 H 0.58165 0.55384 0.38004 0.0
H1842 H 0.53898 0.55528 0.34319 0.0
S1843 S 0.59424 0.68696 0.33744 0.0
N1844 N 0.61209 0.66219 0.36098 0.0
N1845 N 0.56526 0.66402 0.3217 0.0
C1846 C 0.56954 0.63427 0.33514 0.0
C1847 C 0.59498 0.63322 0.35639 0.0
C1848 C 0.35442 0.30745 0.11481 0.0
C1849 C 0.35859 0.29735 0.14296 0.0
C1850 C 0.34937 0.28367 0.09349 0.0
C1851 C 0.34865 0.24926 0.09981 0.0
H1852 H 0.35756 0.33354 0.10902 0.0
H1853 H 0.34749 0.29205 0.07183 0.0
S1854 S 0.35851 0.21076 0.17072 0.0
N1855 N 0.36077 0.25148 0.17637 0.0
N1856 N 0.35223 0.20655 0.13649 0.0
C1857 C 0.35128 0.23915 0.1282 0.0
C1858 C 0.35598 0.26334 0.14977 0.0
C1859 C 0.48576 0.59315 0.84666 0.0
C1860 C 0.52018 0.59174 0.85318 0.0
C1861 C 0.46174 0.59674 0.86789 0.0
C1862 C 0.47132 0.5984 0.89634 0.0
H1863 H 0.4775 0.59383 0.82493 0.0
H1864 H 0.43594 0.60142 0.86189 0.0
S1865 S 0.55686 0.58999 0.92536 0.0
N1866 N 0.56183 0.58803 0.89085 0.0
N1867 N 0.51615 0.59378 0.93048 0.0
C1868 C 0.50488 0.59296 0.90342 0.0
C1869 C 0.52954 0.58988 0.88188 0.0
C1870 C 0.19475 0.68785 0.62037 0.0
C1871 C 0.16842 0.665 0.62504 0.0
C1872 C 0.19194 0.71294 0.59974 0.0
C1873 C 0.16298 0.71567 0.58286 0.0
H1874 H 0.21509 0.68962 0.63548 0.0
H1875 H 0.211 0.73228 0.59893 0.0
S1876 S 0.09176 0.65596 0.58155 0.0
N1877 N 0.11636 0.64195 0.60699 0.0
N1878 N 0.11102 0.68906 0.56821 0.0
C1879 C 0.13934 0.68957 0.58412 0.0
C1880 C 0.14232 0.66394 0.60507 0.0
C1881 C 0.05335 0.40427 0.36395 0.0
C1882 C 0.04372 0.39829 0.39194 0.0
C1883 C 0.0291 0.40948 0.34297 0.0
C1884 C 0.99465 0.40871 0.34944 0.0
H1885 H 0.07948 0.40255 0.35795 0.0
H1886 H 0.03721 0.41251 0.32134 0.0
S1887 S 0.95752 0.39621 0.42048 0.0
N1888 N 0.99837 0.3943 0.42569 0.0
N1889 N 0.95263 0.40335 0.38643 0.0
C1890 C 0.98507 0.40494 0.37783 0.0
C1891 C 0.00972 0.39988 0.39906 0.0
C1892 C 0.35262 0.71921 0.35399 0.0
C1893 C 0.3849 0.70564 0.3523 0.0
C1894 C 0.34319 0.73806 0.37748 0.0
C1895 C 0.36596 0.74425 0.39966 0.0
H1896 H 0.33565 0.71759 0.33618 0.0
H1897 H 0.31898 0.75026 0.37721 0.0
S1898 S 0.45007 0.70587 0.40799 0.0
N1899 N 0.43672 0.69283 0.37693 0.0
N1900 N 0.41966 0.72936 0.4207 0.0
C1901 C 0.3966 0.72692 0.39972 0.0
C1902 C 0.40598 0.70744 0.37596 0.0
C1903 C 0.04055 0.61726 0.13809 0.0
C1904 C 0.01475 0.5932 0.13743 0.0
C1905 C 0.0612 0.62215 0.11479 0.0
C1906 C 0.05656 0.60331 0.09011 0.0
H1907 H 0.04272 0.63483 0.15533 0.0
H1908 H 0.07847 0.64318 0.11496 0.0
S1909 S 1.00111 0.52983 0.08122 0.0
N1910 N 0.99245 0.54409 0.11308 0.0
N1911 N 0.03042 0.5549 0.06845 0.0
C1912 C 0.03465 0.57599 0.09064 0.0
C1913 C 0.01386 0.57054 0.1146 0.0
C1914 C 0.16495 0.30875 0.86882 0.0
C1915 C 0.16412 0.29804 0.84067 0.0
C1916 C 0.16899 0.28557 0.89073 0.0
C1917 C 0.17222 0.25119 0.88501 0.0
H1918 H 0.15984 0.33468 0.87398 0.0
H1919 H 0.16778 0.29427 0.91232 0.0
S1920 S 0.17351 0.2115 0.8143 0.0
N1921 N 0.16876 0.25187 0.80786 0.0
N1922 N 0.17619 0.20801 0.84893 0.0
C1923 C 0.1737 0.24065 0.85674 0.0
C1924 C 0.16964 0.26425 0.83455 0.0
C1925 C 0.46125 0.40564 0.61599 0.0
C1926 C 0.47047 0.402 0.58766 0.0
C1927 C 0.48572 0.41086 0.6367 0.0
C1928 C 0.5199 0.41231 0.62957 0.0
H1929 H 0.43546 0.40178 0.62238 0.0
H1930 H 0.47811 0.41188 0.65859 0.0
S1931 S 0.55579 0.40669 0.5576 0.0
N1932 N 0.51496 0.40272 0.55296 0.0
N1933 N 0.56123 0.41203 0.59182 0.0
C1934 C 0.52897 0.41121 0.60095 0.0
C1935 C 0.50407 0.40612 0.57996 0.0
loop_
_geom_bond_atom_site_label_1
_geom_bond_atom_site_label_2
_geom_bond_distance
_geom_bond_site_symmetry_2
_ccdc_geom_bond_type
C0 C1 1.351 . S
C0 N3 1.368 . S
C0 H5 0.931 . S
C1 C0 1.351 . S
C1 N2 1.373 1_455 S
C1 H29 0.930 . S
N2 C1 1.373 1_655 S
N2 C4 1.340 1_655 S
N3 C0 1.368 . S
N3 C4 1.321 . S
N3 Co6 2.135 . S
C4 N2 1.340 1_455 S
C4 N3 1.321 . S
C4 H28 0.930 1_455 S
H5 C0 0.931 . S
Co6 N3 2.135 . S
Co6 N9 2.121 . S
Co6 O14 2.055 . S
Co6 O17 2.039 . S
Co6 N20 2.140 . S
C7 O8 1.227 . S
C7 O17 1.265 . S
O8 C7 1.227 . S
N9 Co6 2.121 . S
N9 C11 1.375 . S
N9 C12 1.313 . S
C10 C11 1.338 . S
C10 N13 1.377 . S
C10 H30 0.930 . S
C11 N9 1.375 . S
C11 C10 1.338 . S
C11 H15 0.931 . S
C12 N9 1.313 . S
C12 N13 1.344 . S
C12 H16 0.930 . S
N13 C10 1.377 . S
N13 C12 1.344 . S
O14 Co6 2.055 . S
O14 C18 1.253 . S
H15 C11 0.931 . S
H16 C12 0.930 . S
O17 Co6 2.039 . S
O17 C7 1.265 . S
C18 O14 1.253 . S
C18 O19 1.227 . S
O19 C18 1.227 . S
N20 Co6 2.140 . S
N20 C23 1.346 . S
N20 C24 1.345 . S
C21 C22 1.387 . S
C21 C25 1.391 . S
C22 C21 1.387 . S
C22 C23 1.369 . S
C22 H31 0.929 . S
C23 N20 1.346 . S
C23 C22 1.369 . S
C23 H26 0.928 . S
C24 N20 1.345 . S
C24 C25 1.371 . S
C24 H27 0.931 . S
C25 C21 1.391 . S
C25 C24 1.371 . S
C25 H32 0.930 . S
H26 C23 0.928 . S
H27 C24 0.931 . S
H28 C4 0.930 1_655 S
H29 C1 0.930 . S
H30 C10 0.930 . S
H31 C22 0.929 . S
H32 C25 0.930 . S
C33 C34 1.351 . S
C33 N36 1.368 . S
C33 H38 0.931 . S
C34 C33 1.351 . S
C34 N35 1.373 . S
C34 H62 0.930 . S
N35 C34 1.373 . S
N35 C37 1.340 . S
N36 C33 1.368 . S
N36 C37 1.321 . S
N36 Co39 2.135 . S
C37 N35 1.340 . S
C37 N36 1.321 . S
C37 H61 0.930 . S
H38 C33 0.931 . S
Co39 N36 2.135 . S
Co39 N42 2.121 . S
Co39 O47 2.055 . S
Co39 O50 2.039 . S
Co39 N53 2.140 . S
C40 O41 1.227 . S
C40 O50 1.265 . S
O41 C40 1.227 . S
N42 Co39 2.121 . S
N42 C44 1.375 . S
N42 C45 1.313 . S
C43 C44 1.338 . S
C43 N46 1.377 . S
C43 H63 0.930 . S
C44 N42 1.375 . S
C44 C43 1.338 . S
C44 H48 0.931 . S
C45 N42 1.313 . S
C45 N46 1.344 . S
C45 H49 0.930 . S
N46 C43 1.377 . S
N46 C45 1.344 . S
O47 Co39 2.055 . S
O47 C51 1.253 . S
H48 C44 0.931 . S
H49 C45 0.930 . S
O50 Co39 2.039 . S
O50 C40 1.265 . S
C51 O47 1.253 . S
C51 O52 1.227 . S
O52 C51 1.227 . S
N53 Co39 2.140 . S
N53 C56 1.346 . S
N53 C57 1.345 . S
C54 C55 1.387 . S
C54 C58 1.391 . S
C55 C54 1.387 . S
C55 C56 1.369 . S
C55 H64 0.929 . S
C56 N53 1.346 . S
C56 C55 1.369 . S
C56 H59 0.928 . S
C57 N53 1.345 . S
C57 C58 1.371 . S
C57 H60 0.931 . S
C58 C54 1.391 . S
C58 C57 1.371 . S
C58 H65 0.930 . S
H59 C56 0.928 . S
H60 C57 0.931 . S
H61 C37 0.930 . S
H62 C34 0.930 . S
H63 C43 0.930 . S
H64 C55 0.929 . S
H65 C58 0.930 . S
C66 C67 1.351 . S
C66 N69 1.368 . S
C66 H71 0.931 . S
C67 C66 1.351 . S
C67 N68 1.373 . S
C67 H95 0.930 . S
N68 C67 1.373 . S
N68 C70 1.340 . S
N69 C66 1.368 . S
N69 C70 1.321 . S
N69 Co72 2.135 . S
C70 N68 1.340 . S
C70 N69 1.321 . S
C70 H94 0.930 . S
H71 C66 0.931 . S
Co72 N69 2.135 . S
Co72 N75 2.121 . S
Co72 O80 2.055 . S
Co72 O83 2.039 . S
Co72 N86 2.140 . S
C73 O74 1.227 . S
C73 O83 1.265 . S
O74 C73 1.227 . S
N75 Co72 2.121 . S
N75 C77 1.375 . S
N75 C78 1.313 . S
C76 C77 1.338 . S
C76 N79 1.377 . S
C76 H96 0.930 . S
C77 N75 1.375 . S
C77 C76 1.338 . S
C77 H81 0.931 . S
C78 N75 1.313 . S
C78 N79 1.344 . S
C78 H82 0.930 . S
N79 C76 1.377 . S
N79 C78 1.344 . S
O80 Co72 2.055 . S
O80 C84 1.253 . S
H81 C77 0.931 . S
H82 C78 0.930 . S
O83 Co72 2.039 . S
O83 C73 1.265 . S
C84 O80 1.253 . S
C84 O85 1.227 . S
O85 C84 1.227 . S
N86 Co72 2.140 . S
N86 C89 1.346 . S
N86 C90 1.345 . S
C87 C88 1.387 . S
C87 C91 1.391 . S
C88 C87 1.387 . S
C88 C89 1.369 . S
C88 H97 0.929 . S
C89 N86 1.346 . S
C89 C88 1.369 . S
C89 H92 0.928 . S
C90 N86 1.345 . S
C90 C91 1.371 . S
C90 H93 0.931 . S
C91 C87 1.391 . S
C91 C90 1.371 . S
C91 H98 0.930 . S
H92 C89 0.928 . S
H93 C90 0.931 . S
H94 C70 0.930 . S
H95 C67 0.930 . S
H96 C76 0.930 . S
H97 C88 0.929 . S
H98 C91 0.930 . S
C99 C100 1.351 . S
C99 N102 1.368 . S
C99 H104 0.931 . S
C100 C99 1.351 . S
C100 N101 1.373 . S
C100 H128 0.930 . S
N101 C100 1.373 . S
N101 C103 1.340 . S
N102 C99 1.368 . S
N102 C103 1.321 . S
N102 Co105 2.135 . S
C103 N101 1.340 . S
C103 N102 1.321 . S
C103 H127 0.930 . S
H104 C99 0.931 . S
Co105 N102 2.135 . S
Co105 N108 2.121 1_554 S
Co105 O113 2.056 . S
Co105 O116 2.039 . S
Co105 N119 2.140 . S
C106 O107 1.227 . S
C106 O116 1.265 . S
O107 C106 1.227 . S
N108 Co105 2.121 1_556 S
N108 C110 1.375 . S
N108 C111 1.313 . S
C109 C110 1.338 . S
C109 N112 1.377 . S
C109 H129 0.930 . S
C110 N108 1.375 . S
C110 C109 1.338 . S
C110 H114 0.931 . S
C111 N108 1.313 . S
C111 N112 1.344 . S
C111 H115 0.930 . S
N112 C109 1.377 . S
N112 C111 1.344 . S
O113 Co105 2.056 . S
O113 C117 1.253 . S
H114 C110 0.931 . S
H115 C111 0.930 . S
O116 Co105 2.039 . S
O116 C106 1.265 . S
C117 O113 1.253 . S
C117 O118 1.227 . S
O118 C117 1.227 . S
N119 Co105 2.140 . S
N119 C122 1.346 . S
N119 C123 1.345 . S
C120 C121 1.387 . S
C120 C124 1.391 . S
C121 C120 1.387 . S
C121 C122 1.369 . S
C121 H130 0.929 . S
C122 N119 1.346 . S
C122 C121 1.369 . S
C122 H125 0.928 . S
C123 N119 1.345 . S
C123 C124 1.371 . S
C123 H126 0.931 . S
C124 C120 1.391 . S
C124 C123 1.371 . S
C124 H131 0.930 . S
H125 C122 0.928 . S
H126 C123 0.931 . S
H127 C103 0.930 . S
H128 C100 0.930 . S
H129 C109 0.930 . S
H130 C121 0.929 . S
H131 C124 0.930 . S
C132 C133 1.351 . S
C132 N135 1.368 . S
C132 H137 0.931 . S
C133 C132 1.351 . S
C133 N134 1.373 1_455 S
C133 H161 0.930 . S
N134 C133 1.373 1_655 S
N134 C136 1.340 1_655 S
N135 C132 1.368 . S
N135 C136 1.321 . S
N135 Co138 2.135 . S
C136 N134 1.340 1_455 S
C136 N135 1.321 . S
C136 H160 0.930 1_455 S
H137 C132 0.931 . S
Co138 N135 2.135 . S
Co138 N141 2.121 . S
Co138 O146 2.055 . S
Co138 O149 2.039 . S
Co138 N152 2.140 . S
C139 O140 1.227 . S
C139 O149 1.265 . S
O140 C139 1.227 . S
N141 Co138 2.121 . S
N141 C143 1.375 . S
N141 C144 1.313 . S
C142 C143 1.338 . S
C142 N145 1.377 . S
C142 H162 0.930 . S
C143 N141 1.375 . S
C143 C142 1.338 . S
C143 H147 0.931 . S
C144 N141 1.313 . S
C144 N145 1.344 . S
C144 H148 0.930 . S
N145 C142 1.377 . S
N145 C144 1.344 . S
O146 Co138 2.055 . S
O146 C150 1.253 . S
H147 C143 0.931 . S
H148 C144 0.930 . S
O149 Co138 2.039 . S
O149 C139 1.265 . S
C150 O146 1.253 . S
C150 O151 1.227 . S
O151 C150 1.227 . S
N152 Co138 2.140 . S
N152 C155 1.346 . S
N152 C156 1.345 . S
C153 C154 1.387 . S
C153 C157 1.391 . S
C154 C153 1.387 . S
C154 C155 1.369 . S
C154 H163 0.929 . S
C155 N152 1.346 . S
C155 C154 1.369 . S
C155 H158 0.928 . S
C156 N152 1.345 . S
C156 C157 1.371 . S
C156 H159 0.931 . S
C157 C153 1.391 . S
C157 C156 1.371 . S
C157 H164 0.930 . S
H158 C155 0.928 . S
H159 C156 0.931 . S
H160 C136 0.930 1_655 S
H161 C133 0.930 . S
H162 C142 0.930 . S
H163 C154 0.929 . S
H164 C157 0.930 . S
C165 C166 1.351 . S
C165 N168 1.368 . S
C165 H170 0.931 . S
C166 C165 1.351 . S
C166 N167 1.373 . S
C166 H194 0.930 . S
N167 C166 1.373 . S
N167 C169 1.340 . S
N168 C165 1.368 . S
N168 C169 1.321 . S
N168 Co171 2.135 . S
C169 N167 1.340 . S
C169 N168 1.321 . S
C169 H193 0.930 . S
H170 C165 0.931 . S
Co171 N168 2.135 . S
Co171 N174 2.121 . S
Co171 O179 2.055 . S
Co171 O182 2.039 . S
Co171 N185 2.140 . S
C172 O173 1.227 . S
C172 O182 1.265 . S
O173 C172 1.227 . S
N174 Co171 2.121 . S
N174 C176 1.375 . S
N174 C177 1.313 . S
C175 C176 1.338 . S
C175 N178 1.377 . S
C175 H195 0.930 . S
C176 N174 1.375 . S
C176 C175 1.338 . S
C176 H180 0.931 . S
C177 N174 1.313 . S
C177 N178 1.344 . S
C177 H181 0.930 . S
N178 C175 1.377 . S
N178 C177 1.344 . S
O179 Co171 2.055 . S
O179 C183 1.253 . S
H180 C176 0.931 . S
H181 C177 0.930 . S
O182 Co171 2.039 . S
O182 C172 1.265 . S
C183 O179 1.253 . S
C183 O184 1.227 . S
O184 C183 1.227 . S
N185 Co171 2.140 . S
N185 C188 1.346 . S
N185 C189 1.345 . S
C186 C187 1.387 . S
C186 C190 1.391 . S
C187 C186 1.387 . S
C187 C188 1.369 . S
C187 H196 0.929 . S
C188 N185 1.346 . S
C188 C187 1.369 . S
C188 H191 0.928 . S
C189 N185 1.345 . S
C189 C190 1.371 . S
C189 H192 0.931 . S
C190 C186 1.391 . S
C190 C189 1.371 . S
C190 H197 0.930 . S
H191 C188 0.928 . S
H192 C189 0.931 . S
H193 C169 0.930 . S
H194 C166 0.930 . S
H195 C175 0.930 . S
H196 C187 0.929 . S
H197 C190 0.930 . S
C198 C199 1.351 . S
C198 N201 1.368 . S
C198 H203 0.931 . S
C199 C198 1.351 . S
C199 N200 1.373 . S
C199 H227 0.930 . S
N200 C199 1.373 . S
N200 C202 1.340 . S
N201 C198 1.368 . S
N201 C202 1.321 . S
N201 Co204 2.135 . S
C202 N200 1.340 . S
C202 N201 1.321 . S
C202 H226 0.930 . S
H203 C198 0.931 . S
Co204 N201 2.135 . S
Co204 N207 2.121 . S
Co204 O212 2.055 . S
Co204 O215 2.039 . S
Co204 N218 2.140 . S
C205 O206 1.227 . S
C205 O215 1.265 . S
O206 C205 1.227 . S
N207 Co204 2.121 . S
N207 C209 1.375 . S
N207 C210 1.313 . S
C208 C209 1.338 . S
C208 N211 1.377 . S
C208 H228 0.930 . S
C209 N207 1.375 . S
C209 C208 1.338 . S
C209 H213 0.931 . S
C210 N207 1.313 . S
C210 N211 1.344 . S
C210 H214 0.930 . S
N211 C208 1.377 . S
N211 C210 1.344 . S
O212 Co204 2.055 . S
O212 C216 1.253 . S
H213 C209 0.931 . S
H214 C210 0.930 . S
O215 Co204 2.039 . S
O215 C205 1.265 . S
C216 O212 1.253 . S
C216 O217 1.227 . S
O217 C216 1.227 . S
N218 Co204 2.140 . S
N218 C221 1.346 . S
N218 C222 1.345 . S
C219 C220 1.387 . S
C219 C223 1.391 . S
C220 C219 1.387 . S
C220 C221 1.369 . S
C220 H229 0.929 . S
C221 N218 1.346 . S
C221 C220 1.369 . S
C221 H224 0.928 . S
C222 N218 1.345 . S
C222 C223 1.371 . S
C222 H225 0.931 . S
C223 C219 1.391 . S
C223 C222 1.371 . S
C223 H230 0.930 . S
H224 C221 0.928 . S
H225 C222 0.931 . S
H226 C202 0.930 . S
H227 C199 0.930 . S
H228 C208 0.930 . S
H229 C220 0.929 . S
H230 C223 0.930 . S
C231 C232 1.351 . S
C231 N234 1.368 . S
C231 H236 0.931 . S
C232 C231 1.351 . S
C232 N233 1.373 . S
C232 H260 0.930 . S
N233 C232 1.373 . S
N233 C235 1.340 . S
N234 C231 1.368 . S
N234 C235 1.321 . S
N234 Co237 2.135 . S
C235 N233 1.340 . S
C235 N234 1.321 . S
C235 H259 0.930 . S
H236 C231 0.931 . S
Co237 N234 2.135 . S
Co237 N240 2.121 1_556 S
Co237 O245 2.056 . S
Co237 O248 2.039 . S
Co237 N251 2.140 . S
C238 O239 1.227 . S
C238 O248 1.265 . S
O239 C238 1.227 . S
N240 Co237 2.121 1_554 S
N240 C242 1.375 . S
N240 C243 1.313 . S
C241 C242 1.338 . S
C241 N244 1.377 . S
C241 H261 0.930 . S
C242 N240 1.375 . S
C242 C241 1.338 . S
C242 H246 0.931 . S
C243 N240 1.313 . S
C243 N244 1.344 . S
C243 H247 0.930 . S
N244 C241 1.377 . S
N244 C243 1.344 . S
O245 Co237 2.056 . S
O245 C249 1.253 . S
H246 C242 0.931 . S
H247 C243 0.930 . S
O248 Co237 2.039 . S
O248 C238 1.265 . S
C249 O245 1.253 . S
C249 O250 1.227 . S
O250 C249 1.227 . S
N251 Co237 2.140 . S
N251 C254 1.346 . S
N251 C255 1.345 . S
C252 C253 1.387 . S
C252 C256 1.391 . S
C253 C252 1.387 . S
C253 C254 1.369 . S
C253 H262 0.929 . S
C254 N251 1.346 . S
C254 C253 1.369 . S
C254 H257 0.928 . S
C255 N251 1.345 . S
C255 C256 1.371 . S
C255 H258 0.931 . S
C256 C252 1.391 . S
C256 C255 1.371 . S
C256 H263 0.930 . S
H257 C254 0.928 . S
H258 C255 0.931 . S
H259 C235 0.930 . S
H260 C232 0.930 . S
H261 C241 0.930 . S
H262 C253 0.929 . S
H263 C256 0.930 . S
C264 C265 1.351 . S
C264 N267 1.368 . S
C264 H269 0.931 . S
C265 C264 1.351 . S
C265 N266 1.373 1_655 S
C265 H293 0.930 . S
N266 C265 1.373 1_455 S
N266 C268 1.340 1_455 S
N267 C264 1.368 . S
N267 C268 1.321 . S
N267 Co270 2.135 . S
C268 N266 1.340 1_655 S
C268 N267 1.321 . S
C268 H292 0.930 1_655 S
H269 C264 0.931 . S
Co270 N267 2.135 . S
Co270 N273 2.121 . S
Co270 O278 2.055 . S
Co270 O281 2.039 . S
Co270 N284 2.140 . S
C271 O272 1.227 . S
C271 O281 1.265 . S
O272 C271 1.227 . S
N273 Co270 2.121 . S
N273 C275 1.375 . S
N273 C276 1.313 . S
C274 C275 1.338 . S
C274 N277 1.377 . S
C274 H294 0.930 . S
C275 N273 1.375 . S
C275 C274 1.338 . S
C275 H279 0.931 . S
C276 N273 1.313 . S
C276 N277 1.344 . S
C276 H280 0.930 . S
N277 C274 1.377 . S
N277 C276 1.344 . S
O278 Co270 2.055 . S
O278 C282 1.253 . S
H279 C275 0.931 . S
H280 C276 0.930 . S
O281 Co270 2.039 . S
O281 C271 1.265 . S
C282 O278 1.253 . S
C282 O283 1.227 . S
O283 C282 1.227 . S
N284 Co270 2.140 . S
N284 C287 1.346 . S
N284 C288 1.345 . S
C285 C286 1.387 . S
C285 C289 1.391 . S
C286 C285 1.387 . S
C286 C287 1.369 . S
C286 H295 0.929 . S
C287 N284 1.346 . S
C287 C286 1.369 . S
C287 H290 0.928 . S
C288 N284 1.345 . S
C288 C289 1.371 . S
C288 H291 0.931 . S
C289 C285 1.391 . S
C289 C288 1.371 . S
C289 H296 0.930 . S
H290 C287 0.928 . S
H291 C288 0.931 . S
H292 C268 0.930 1_455 S
H293 C265 0.930 . S
H294 C274 0.930 . S
H295 C286 0.929 . S
H296 C289 0.930 . S
C297 C298 1.351 . S
C297 N300 1.368 . S
C297 H302 0.931 . S
C298 C297 1.351 . S
C298 N299 1.373 . S
C298 H326 0.930 . S
N299 C298 1.373 . S
N299 C301 1.340 . S
N300 C297 1.368 . S
N300 C301 1.321 . S
N300 Co303 2.135 . S
C301 N299 1.340 . S
C301 N300 1.321 . S
C301 H325 0.930 . S
H302 C297 0.931 . S
Co303 N300 2.135 . S
Co303 N306 2.121 . S
Co303 O311 2.055 . S
Co303 O314 2.039 . S
Co303 N317 2.140 . S
C304 O305 1.227 . S
C304 O314 1.265 . S
O305 C304 1.227 . S
N306 Co303 2.121 . S
N306 C308 1.375 . S
N306 C309 1.313 . S
C307 C308 1.338 . S
C307 N310 1.377 . S
C307 H327 0.930 . S
C308 N306 1.375 . S
C308 C307 1.338 . S
C308 H312 0.931 . S
C309 N306 1.313 . S
C309 N310 1.344 . S
C309 H313 0.930 . S
N310 C307 1.377 . S
N310 C309 1.344 . S
O311 Co303 2.055 . S
O311 C315 1.253 . S
H312 C308 0.931 . S
H313 C309 0.930 . S
O314 Co303 2.039 . S
O314 C304 1.265 . S
C315 O311 1.253 . S
C315 O316 1.227 . S
O316 C315 1.227 . S
N317 Co303 2.140 . S
N317 C320 1.346 . S
N317 C321 1.345 . S
C318 C319 1.387 . S
C318 C322 1.391 . S
C319 C318 1.387 . S
C319 C320 1.369 . S
C319 H328 0.929 . S
C320 N317 1.346 . S
C320 C319 1.369 . S
C320 H323 0.928 . S
C321 N317 1.345 . S
C321 C322 1.371 . S
C321 H324 0.931 . S
C322 C318 1.391 . S
C322 C321 1.371 . S
C322 H329 0.930 . S
H323 C320 0.928 . S
H324 C321 0.931 . S
H325 C301 0.930 . S
H326 C298 0.930 . S
H327 C307 0.930 . S
H328 C319 0.929 . S
H329 C322 0.930 . S
C330 C331 1.351 . S
C330 N333 1.368 . S
C330 H335 0.931 . S
C331 C330 1.351 . S
C331 N332 1.373 . S
C331 H359 0.930 . S
N332 C331 1.373 . S
N332 C334 1.340 . S
N333 C330 1.368 . S
N333 C334 1.321 . S
N333 Co336 2.135 . S
C334 N332 1.340 . S
C334 N333 1.321 . S
C334 H358 0.930 . S
H335 C330 0.931 . S
Co336 N333 2.135 . S
Co336 N339 2.121 . S
Co336 O344 2.055 . S
Co336 O347 2.039 . S
Co336 N350 2.140 . S
C337 O338 1.227 . S
C337 O347 1.265 . S
O338 C337 1.227 . S
N339 Co336 2.121 . S
N339 C341 1.375 . S
N339 C342 1.313 . S
C340 C341 1.338 . S
C340 N343 1.377 . S
C340 H360 0.930 . S
C341 N339 1.375 . S
C341 C340 1.338 . S
C341 H345 0.931 . S
C342 N339 1.313 . S
C342 N343 1.344 . S
C342 H346 0.930 . S
N343 C340 1.377 . S
N343 C342 1.344 . S
O344 Co336 2.055 . S
O344 C348 1.253 . S
H345 C341 0.931 . S
H346 C342 0.930 . S
O347 Co336 2.039 . S
O347 C337 1.265 . S
C348 O344 1.253 . S
C348 O349 1.227 . S
O349 C348 1.227 . S
N350 Co336 2.140 . S
N350 C353 1.346 . S
N350 C354 1.345 . S
C351 C352 1.387 . S
C351 C355 1.391 . S
C352 C351 1.387 . S
C352 C353 1.369 . S
C352 H361 0.929 . S
C353 N350 1.346 . S
C353 C352 1.369 . S
C353 H356 0.928 . S
C354 N350 1.345 . S
C354 C355 1.371 . S
C354 H357 0.931 . S
C355 C351 1.391 . S
C355 C354 1.371 . S
C355 H362 0.930 . S
H356 C353 0.928 . S
H357 C354 0.931 . S
H358 C334 0.930 . S
H359 C331 0.930 . S
H360 C340 0.930 . S
H361 C352 0.929 . S
H362 C355 0.930 . S
C363 C364 1.351 . S
C363 N366 1.368 . S
C363 H368 0.931 . S
C364 C363 1.351 . S
C364 N365 1.373 . S
C364 H392 0.930 . S
N365 C364 1.373 . S
N365 C367 1.340 . S
N366 C363 1.368 . S
N366 C367 1.321 . S
N366 Co369 2.135 . S
C367 N365 1.340 . S
C367 N366 1.321 . S
C367 H391 0.930 . S
H368 C363 0.931 . S
Co369 N366 2.135 . S
Co369 N372 2.121 1_556 S
Co369 O377 2.056 . S
Co369 O380 2.039 . S
Co369 N383 2.140 . S
C370 O371 1.227 . S
C370 O380 1.265 . S
O371 C370 1.227 . S
N372 Co369 2.121 1_554 S
N372 C374 1.375 . S
N372 C375 1.313 . S
C373 C374 1.338 . S
C373 N376 1.377 . S
C373 H393 0.930 . S
C374 N372 1.375 . S
C374 C373 1.338 . S
C374 H378 0.931 . S
C375 N372 1.313 . S
C375 N376 1.344 . S
C375 H379 0.930 . S
N376 C373 1.377 . S
N376 C375 1.344 . S
O377 Co369 2.056 . S
O377 C381 1.253 . S
H378 C374 0.931 . S
H379 C375 0.930 . S
O380 Co369 2.039 . S
O380 C370 1.265 . S
C381 O377 1.253 . S
C381 O382 1.227 . S
O382 C381 1.227 . S
N383 Co369 2.140 . S
N383 C386 1.346 . S
N383 C387 1.345 . S
C384 C385 1.387 . S
C384 C388 1.391 . S
C385 C384 1.387 . S
C385 C386 1.369 . S
C385 H394 0.929 . S
C386 N383 1.346 . S
C386 C385 1.369 . S
C386 H389 0.928 . S
C387 N383 1.345 . S
C387 C388 1.371 . S
C387 H390 0.931 . S
C388 C384 1.391 . S
C388 C387 1.371 . S
C388 H395 0.930 . S
H389 C386 0.928 . S
H390 C387 0.931 . S
H391 C367 0.930 . S
H392 C364 0.930 . S
H393 C373 0.930 . S
H394 C385 0.929 . S
H395 C388 0.930 . S
C396 C397 1.351 . S
C396 N399 1.368 . S
C396 H401 0.931 . S
C397 C396 1.351 . S
C397 N398 1.373 1_655 S
C397 H425 0.930 . S
N398 C397 1.373 1_455 S
N398 C400 1.340 1_455 S
N399 C396 1.368 . S
N399 C400 1.321 . S
N399 Co402 2.135 . S
C400 N398 1.340 1_655 S
C400 N399 1.321 . S
C400 H424 0.930 1_655 S
H401 C396 0.931 . S
Co402 N399 2.135 . S
Co402 N405 2.121 . S
Co402 O410 2.055 . S
Co402 O413 2.039 . S
Co402 N416 2.140 . S
C403 O404 1.227 . S
C403 O413 1.265 . S
O404 C403 1.227 . S
N405 Co402 2.121 . S
N405 C407 1.375 . S
N405 C408 1.313 . S
C406 C407 1.338 . S
C406 N409 1.377 . S
C406 H426 0.930 . S
C407 N405 1.375 . S
C407 C406 1.338 . S
C407 H411 0.931 . S
C408 N405 1.313 . S
C408 N409 1.344 . S
C408 H412 0.930 . S
N409 C406 1.377 . S
N409 C408 1.344 . S
O410 Co402 2.055 . S
O410 C414 1.253 . S
H411 C407 0.931 . S
H412 C408 0.930 . S
O413 Co402 2.039 . S
O413 C403 1.265 . S
C414 O410 1.253 . S
C414 O415 1.227 . S
O415 C414 1.227 . S
N416 Co402 2.140 . S
N416 C419 1.346 . S
N416 C420 1.345 . S
C417 C418 1.387 . S
C417 C421 1.391 . S
C418 C417 1.387 . S
C418 C419 1.369 . S
C418 H427 0.929 . S
C419 N416 1.346 . S
C419 C418 1.369 . S
C419 H422 0.928 . S
C420 N416 1.345 . S
C420 C421 1.371 . S
C420 H423 0.931 . S
C421 C417 1.391 . S
C421 C420 1.371 . S
C421 H428 0.930 . S
H422 C419 0.928 . S
H423 C420 0.931 . S
H424 C400 0.930 1_455 S
H425 C397 0.930 . S
H426 C406 0.930 . S
H427 C418 0.929 . S
H428 C421 0.930 . S
C429 C430 1.351 . S
C429 N432 1.368 . S
C429 H434 0.931 . S
C430 C429 1.351 . S
C430 N431 1.373 . S
C430 H458 0.930 . S
N431 C430 1.373 . S
N431 C433 1.340 . S
N432 C429 1.368 . S
N432 C433 1.321 . S
N432 Co435 2.135 . S
C433 N431 1.340 . S
C433 N432 1.321 . S
C433 H457 0.930 . S
H434 C429 0.931 . S
Co435 N432 2.135 . S
Co435 N438 2.121 . S
Co435 O443 2.055 . S
Co435 O446 2.039 . S
Co435 N449 2.140 . S
C436 O437 1.227 . S
C436 O446 1.265 . S
O437 C436 1.227 . S
N438 Co435 2.121 . S
N438 C440 1.375 . S
N438 C441 1.313 . S
C439 C440 1.338 . S
C439 N442 1.377 . S
C439 H459 0.930 . S
C440 N438 1.375 . S
C440 C439 1.338 . S
C440 H444 0.931 . S
C441 N438 1.313 . S
C441 N442 1.344 . S
C441 H445 0.930 . S
N442 C439 1.377 . S
N442 C441 1.344 . S
O443 Co435 2.055 . S
O443 C447 1.253 . S
H444 C440 0.931 . S
H445 C441 0.930 . S
O446 Co435 2.039 . S
O446 C436 1.265 . S
C447 O443 1.253 . S
C447 O448 1.227 . S
O448 C447 1.227 . S
N449 Co435 2.140 . S
N449 C452 1.346 . S
N449 C453 1.345 . S
C450 C451 1.387 . S
C450 C454 1.391 . S
C451 C450 1.387 . S
C451 C452 1.369 . S
C451 H460 0.929 . S
C452 N449 1.346 . S
C452 C451 1.369 . S
C452 H455 0.928 . S
C453 N449 1.345 . S
C453 C454 1.371 . S
C453 H456 0.931 . S
C454 C450 1.391 . S
C454 C453 1.371 . S
C454 H461 0.930 . S
H455 C452 0.928 . S
H456 C453 0.931 . S
H457 C433 0.930 . S
H458 C430 0.930 . S
H459 C439 0.930 . S
H460 C451 0.929 . S
H461 C454 0.930 . S
C462 C463 1.351 . S
C462 N465 1.368 . S
C462 H467 0.931 . S
C463 C462 1.351 . S
C463 N464 1.373 . S
C463 H491 0.930 . S
N464 C463 1.373 . S
N464 C466 1.340 . S
N465 C462 1.368 . S
N465 C466 1.321 . S
N465 Co468 2.135 . S
C466 N464 1.340 . S
C466 N465 1.321 . S
C466 H490 0.930 . S
H467 C462 0.931 . S
Co468 N465 2.135 . S
Co468 N471 2.121 . S
Co468 O476 2.055 . S
Co468 O479 2.039 . S
Co468 N482 2.140 . S
C469 O470 1.227 . S
C469 O479 1.265 . S
O470 C469 1.227 . S
N471 Co468 2.121 . S
N471 C473 1.375 . S
N471 C474 1.313 . S
C472 C473 1.338 . S
C472 N475 1.377 . S
C472 H492 0.930 . S
C473 N471 1.375 . S
C473 C472 1.338 . S
C473 H477 0.931 . S
C474 N471 1.313 . S
C474 N475 1.344 . S
C474 H478 0.930 . S
N475 C472 1.377 . S
N475 C474 1.344 . S
O476 Co468 2.055 . S
O476 C480 1.253 . S
H477 C473 0.931 . S
H478 C474 0.930 . S
O479 Co468 2.039 . S
O479 C469 1.265 . S
C480 O476 1.253 . S
C480 O481 1.227 . S
O481 C480 1.227 . S
N482 Co468 2.140 . S
N482 C485 1.346 . S
N482 C486 1.345 . S
C483 C484 1.387 . S
C483 C487 1.391 . S
C484 C483 1.387 . S
C484 C485 1.369 . S
C484 H493 0.929 . S
C485 N482 1.346 . S
C485 C484 1.369 . S
C485 H488 0.928 . S
C486 N482 1.345 . S
C486 C487 1.371 . S
C486 H489 0.931 . S
C487 C483 1.391 . S
C487 C486 1.371 . S
C487 H494 0.930 . S
H488 C485 0.928 . S
H489 C486 0.931 . S
H490 C466 0.930 . S
H491 C463 0.930 . S
H492 C472 0.930 . S
H493 C484 0.929 . S
H494 C487 0.930 . S
C495 C496 1.351 . S
C495 N498 1.368 . S
C495 H500 0.931 . S
C496 C495 1.351 . S
C496 N497 1.373 . S
C496 H524 0.930 . S
N497 C496 1.373 . S
N497 C499 1.340 . S
N498 C495 1.368 . S
N498 C499 1.321 . S
N498 Co501 2.135 . S
C499 N497 1.340 . S
C499 N498 1.321 . S
C499 H523 0.930 . S
H500 C495 0.931 . S
Co501 N498 2.135 . S
Co501 N504 2.121 1_554 S
Co501 O509 2.056 . S
Co501 O512 2.039 . S
Co501 N515 2.140 . S
C502 O503 1.227 . S
C502 O512 1.265 . S
O503 C502 1.227 . S
N504 Co501 2.121 1_556 S
N504 C506 1.375 . S
N504 C507 1.313 . S
C505 C506 1.338 . S
C505 N508 1.377 . S
C505 H525 0.930 . S
C506 N504 1.375 . S
C506 C505 1.338 . S
C506 H510 0.931 . S
C507 N504 1.313 . S
C507 N508 1.344 . S
C507 H511 0.930 . S
N508 C505 1.377 . S
N508 C507 1.344 . S
O509 Co501 2.056 . S
O509 C513 1.253 . S
H510 C506 0.931 . S
H511 C507 0.930 . S
O512 Co501 2.039 . S
O512 C502 1.265 . S
C513 O509 1.253 . S
C513 O514 1.227 . S
O514 C513 1.227 . S
N515 Co501 2.140 . S
N515 C518 1.346 . S
N515 C519 1.345 . S
C516 C517 1.387 . S
C516 C520 1.391 . S
C517 C516 1.387 . S
C517 C518 1.369 . S
C517 H526 0.929 . S
C518 N515 1.346 . S
C518 C517 1.369 . S
C518 H521 0.928 . S
C519 N515 1.345 . S
C519 C520 1.371 . S
C519 H522 0.931 . S
C520 C516 1.391 . S
C520 C519 1.371 . S
C520 H527 0.930 . S
H521 C518 0.928 . S
H522 C519 0.931 . S
H523 C499 0.930 . S
H524 C496 0.930 . S
H525 C505 0.930 . S
H526 C517 0.929 . S
H527 C520 0.930 . S
C528 C529 1.351 . S
C528 N531 1.368 . S
C528 H533 0.931 . S
C529 C528 1.351 . S
C529 N530 1.373 . S
C529 H557 0.930 . S
N530 C529 1.373 . S
N530 C532 1.340 . S
N531 C528 1.368 . S
N531 C532 1.321 . S
N531 Co534 2.135 . S
C532 N530 1.340 . S
C532 N531 1.321 . S
C532 H556 0.930 . S
H533 C528 0.931 . S
Co534 N531 2.135 . S
Co534 N537 2.121 . S
Co534 O542 2.055 . S
Co534 O545 2.039 . S
Co534 N548 2.140 . S
C535 O536 1.227 . S
C535 O545 1.265 . S
O536 C535 1.227 . S
N537 Co534 2.121 . S
N537 C539 1.375 . S
N537 C540 1.313 . S
C538 C539 1.338 . S
C538 N541 1.377 . S
C538 H558 0.930 . S
C539 N537 1.375 . S
C539 C538 1.338 . S
C539 H543 0.931 . S
C540 N537 1.313 . S
C540 N541 1.344 . S
C540 H544 0.930 . S
N541 C538 1.377 . S
N541 C540 1.344 . S
O542 Co534 2.055 . S
O542 C546 1.253 . S
H543 C539 0.931 . S
H544 C540 0.930 . S
O545 Co534 2.039 . S
O545 C535 1.265 . S
C546 O542 1.253 . S
C546 O547 1.227 . S
O547 C546 1.227 . S
N548 Co534 2.140 . S
N548 C551 1.346 . S
N548 C552 1.345 . S
C549 C550 1.387 . S
C549 C553 1.391 . S
C550 C549 1.387 . S
C550 C551 1.369 . S
C550 H559 0.929 . S
C551 N548 1.346 . S
C551 C550 1.369 . S
C551 H554 0.928 . S
C552 N548 1.345 . S
C552 C553 1.371 . S
C552 H555 0.931 . S
C553 C549 1.391 . S
C553 C552 1.371 . S
C553 H560 0.930 . S
H554 C551 0.928 . S
H555 C552 0.931 . S
H556 C532 0.930 . S
H557 C529 0.930 . S
H558 C538 0.930 . S
H559 C550 0.929 . S
H560 C553 0.930 . S
C561 C562 1.351 . S
C561 N564 1.368 . S
C561 H566 0.931 . S
C562 C561 1.351 . S
C562 N563 1.373 . S
C562 H590 0.930 . S
N563 C562 1.373 . S
N563 C565 1.340 . S
N564 C561 1.368 . S
N564 C565 1.321 . S
N564 Co567 2.135 . S
C565 N563 1.340 . S
C565 N564 1.321 . S
C565 H589 0.930 . S
H566 C561 0.931 . S
Co567 N564 2.135 . S
Co567 N570 2.121 1_554 S
Co567 O575 2.056 . S
Co567 O578 2.039 . S
Co567 N581 2.140 . S
C568 O569 1.227 . S
C568 O578 1.265 . S
O569 C568 1.227 . S
N570 Co567 2.121 1_556 S
N570 C572 1.375 . S
N570 C573 1.313 . S
C571 C572 1.338 . S
C571 N574 1.377 . S
C571 H591 0.930 . S
C572 N570 1.375 . S
C572 C571 1.338 . S
C572 H576 0.931 . S
C573 N570 1.313 . S
C573 N574 1.344 . S
C573 H577 0.930 . S
N574 C571 1.377 . S
N574 C573 1.344 . S
O575 Co567 2.056 . S
O575 C579 1.253 . S
H576 C572 0.931 . S
H577 C573 0.930 . S
O578 Co567 2.039 . S
O578 C568 1.265 . S
C579 O575 1.253 . S
C579 O580 1.227 . S
O580 C579 1.227 . S
N581 Co567 2.140 . S
N581 C584 1.346 . S
N581 C585 1.345 . S
C582 C583 1.387 . S
C582 C586 1.391 . S
C583 C582 1.387 . S
C583 C584 1.369 . S
C583 H592 0.929 . S
C584 N581 1.346 . S
C584 C583 1.369 . S
C584 H587 0.928 . S
C585 N581 1.345 . S
C585 C586 1.371 . S
C585 H588 0.931 . S
C586 C582 1.391 . S
C586 C585 1.371 . S
C586 H593 0.930 . S
H587 C584 0.928 . S
H588 C585 0.931 . S
H589 C565 0.930 . S
H590 C562 0.930 . S
H591 C571 0.930 . S
H592 C583 0.929 . S
H593 C586 0.930 . S
C594 C595 1.351 . S
C594 N597 1.368 . S
C594 H599 0.931 . S
C595 C594 1.351 . S
C595 N596 1.373 1_655 S
C595 H623 0.930 . S
N596 C595 1.373 1_455 S
N596 C598 1.340 1_455 S
N597 C594 1.368 . S
N597 C598 1.321 . S
N597 Co600 2.135 . S
C598 N596 1.340 1_655 S
C598 N597 1.321 . S
C598 H622 0.930 1_655 S
H599 C594 0.931 . S
Co600 N597 2.135 . S
Co600 N603 2.121 . S
Co600 O608 2.055 . S
Co600 O611 2.039 . S
Co600 N614 2.140 . S
C601 O602 1.227 . S
C601 O611 1.265 . S
O602 C601 1.227 . S
N603 Co600 2.121 . S
N603 C605 1.375 . S
N603 C606 1.313 . S
C604 C605 1.338 . S
C604 N607 1.377 . S
C604 H624 0.930 . S
C605 N603 1.375 . S
C605 C604 1.338 . S
C605 H609 0.931 . S
C606 N603 1.313 . S
C606 N607 1.344 . S
C606 H610 0.930 . S
N607 C604 1.377 . S
N607 C606 1.344 . S
O608 Co600 2.055 . S
O608 C612 1.253 . S
H609 C605 0.931 . S
H610 C606 0.930 . S
O611 Co600 2.039 . S
O611 C601 1.265 . S
C612 O608 1.253 . S
C612 O613 1.227 . S
O613 C612 1.227 . S
N614 Co600 2.140 . S
N614 C617 1.346 . S
N614 C618 1.345 . S
C615 C616 1.387 . S
C615 C619 1.391 . S
C616 C615 1.387 . S
C616 C617 1.369 . S
C616 H625 0.929 . S
C617 N614 1.346 . S
C617 C616 1.369 . S
C617 H620 0.928 . S
C618 N614 1.345 . S
C618 C619 1.371 . S
C618 H621 0.931 . S
C619 C615 1.391 . S
C619 C618 1.371 . S
C619 H626 0.930 . S
H620 C617 0.928 . S
H621 C618 0.931 . S
H622 C598 0.930 1_455 S
H623 C595 0.930 . S
H624 C604 0.930 . S
H625 C616 0.929 . S
H626 C619 0.930 . S
C627 C628 1.351 . S
C627 N630 1.368 . S
C627 H632 0.931 . S
C628 C627 1.351 . S
C628 N629 1.373 . S
C628 H656 0.930 . S
N629 C628 1.373 . S
N629 C631 1.340 . S
N630 C627 1.368 . S
N630 C631 1.321 . S
N630 Co633 2.135 . S
C631 N629 1.340 . S
C631 N630 1.321 . S
C631 H655 0.930 . S
H632 C627 0.931 . S
Co633 N630 2.135 . S
Co633 N636 2.121 . S
Co633 O641 2.055 . S
Co633 O644 2.039 . S
Co633 N647 2.140 . S
C634 O635 1.227 . S
C634 O644 1.265 . S
O635 C634 1.227 . S
N636 Co633 2.121 . S
N636 C638 1.375 . S
N636 C639 1.313 . S
C637 C638 1.338 . S
C637 N640 1.377 . S
C637 H657 0.930 . S
C638 N636 1.375 . S
C638 C637 1.338 . S
C638 H642 0.931 . S
C639 N636 1.313 . S
C639 N640 1.344 . S
C639 H643 0.930 . S
N640 C637 1.377 . S
N640 C639 1.344 . S
O641 Co633 2.055 . S
O641 C645 1.253 . S
H642 C638 0.931 . S
H643 C639 0.930 . S
O644 Co633 2.039 . S
O644 C634 1.265 . S
C645 O641 1.253 . S
C645 O646 1.227 . S
O646 C645 1.227 . S
N647 Co633 2.140 . S
N647 C650 1.346 . S
N647 C651 1.345 . S
C648 C649 1.387 . S
C648 C652 1.391 . S
C649 C648 1.387 . S
C649 C650 1.369 . S
C649 H658 0.929 . S
C650 N647 1.346 . S
C650 C649 1.369 . S
C650 H653 0.928 . S
C651 N647 1.345 . S
C651 C652 1.371 . S
C651 H654 0.931 . S
C652 C648 1.391 . S
C652 C651 1.371 . S
C652 H659 0.930 . S
H653 C650 0.928 . S
H654 C651 0.931 . S
H655 C631 0.930 . S
H656 C628 0.930 . S
H657 C637 0.930 . S
H658 C649 0.929 . S
H659 C652 0.930 . S
C660 C661 1.351 . S
C660 N663 1.368 . S
C660 H665 0.931 . S
C661 C660 1.351 . S
C661 N662 1.373 . S
C661 H689 0.930 . S
N662 C661 1.373 . S
N662 C664 1.340 . S
N663 C660 1.368 . S
N663 C664 1.321 . S
N663 Co666 2.135 . S
C664 N662 1.340 . S
C664 N663 1.321 . S
C664 H688 0.930 . S
H665 C660 0.931 . S
Co666 N663 2.135 . S
Co666 N669 2.121 . S
Co666 O674 2.055 . S
Co666 O677 2.039 . S
Co666 N680 2.140 . S
C667 O668 1.227 . S
C667 O677 1.265 . S
O668 C667 1.227 . S
N669 Co666 2.121 . S
N669 C671 1.375 . S
N669 C672 1.313 . S
C670 C671 1.338 . S
C670 N673 1.377 . S
C670 H690 0.930 . S
C671 N669 1.375 . S
C671 C670 1.338 . S
C671 H675 0.931 . S
C672 N669 1.313 . S
C672 N673 1.344 . S
C672 H676 0.930 . S
N673 C670 1.377 . S
N673 C672 1.344 . S
O674 Co666 2.055 . S
O674 C678 1.253 . S
H675 C671 0.931 . S
H676 C672 0.930 . S
O677 Co666 2.039 . S
O677 C667 1.265 . S
C678 O674 1.253 . S
C678 O679 1.227 . S
O679 C678 1.227 . S
N680 Co666 2.140 . S
N680 C683 1.346 . S
N680 C684 1.345 . S
C681 C682 1.387 . S
C681 C685 1.391 . S
C682 C681 1.387 . S
C682 C683 1.369 . S
C682 H691 0.929 . S
C683 N680 1.346 . S
C683 C682 1.369 . S
C683 H686 0.928 . S
C684 N680 1.345 . S
C684 C685 1.371 . S
C684 H687 0.931 . S
C685 C681 1.391 . S
C685 C684 1.371 . S
C685 H692 0.930 . S
H686 C683 0.928 . S
H687 C684 0.931 . S
H688 C664 0.930 . S
H689 C661 0.930 . S
H690 C670 0.930 . S
H691 C682 0.929 . S
H692 C685 0.930 . S
C693 C694 1.351 . S
C693 N696 1.368 . S
C693 H698 0.931 . S
C694 C693 1.351 . S
C694 N695 1.373 . S
C694 H722 0.930 . S
N695 C694 1.373 . S
N695 C697 1.340 . S
N696 C693 1.368 . S
N696 C697 1.321 . S
N696 Co699 2.135 . S
C697 N695 1.340 . S
C697 N696 1.321 . S
C697 H721 0.930 . S
H698 C693 0.931 . S
Co699 N696 2.135 . S
Co699 N702 2.121 1_556 S
Co699 O707 2.056 . S
Co699 O710 2.039 . S
Co699 N713 2.140 . S
C700 O701 1.227 . S
C700 O710 1.265 . S
O701 C700 1.227 . S
N702 Co699 2.121 1_554 S
N702 C704 1.375 . S
N702 C705 1.313 . S
C703 C704 1.338 . S
C703 N706 1.377 . S
C703 H723 0.930 . S
C704 N702 1.375 . S
C704 C703 1.338 . S
C704 H708 0.931 . S
C705 N702 1.313 . S
C705 N706 1.344 . S
C705 H709 0.930 . S
N706 C703 1.377 . S
N706 C705 1.344 . S
O707 Co699 2.056 . S
O707 C711 1.253 . S
H708 C704 0.931 . S
H709 C705 0.930 . S
O710 Co699 2.039 . S
O710 C700 1.265 . S
C711 O707 1.253 . S
C711 O712 1.227 . S
O712 C711 1.227 . S
N713 Co699 2.140 . S
N713 C716 1.346 . S
N713 C717 1.345 . S
C714 C715 1.387 . S
C714 C718 1.391 . S
C715 C714 1.387 . S
C715 C716 1.369 . S
C715 H724 0.929 . S
C716 N713 1.346 . S
C716 C715 1.369 . S
C716 H719 0.928 . S
C717 N713 1.345 . S
C717 C718 1.371 . S
C717 H720 0.931 . S
C718 C714 1.391 . S
C718 C717 1.371 . S
C718 H725 0.930 . S
H719 C716 0.928 . S
H720 C717 0.931 . S
H721 C697 0.930 . S
H722 C694 0.930 . S
H723 C703 0.930 . S
H724 C715 0.929 . S
H725 C718 0.930 . S
C726 C727 1.351 . S
C726 N729 1.368 . S
C726 H731 0.931 . S
C727 C726 1.351 . S
C727 N728 1.373 1_655 S
C727 H755 0.930 . S
N728 C727 1.373 1_455 S
N728 C730 1.340 1_455 S
N729 C726 1.368 . S
N729 C730 1.321 . S
N729 Co732 2.135 . S
C730 N728 1.340 1_655 S
C730 N729 1.321 . S
C730 H754 0.930 1_655 S
H731 C726 0.931 . S
Co732 N729 2.135 . S
Co732 N735 2.121 . S
Co732 O740 2.055 . S
Co732 O743 2.039 . S
Co732 N746 2.140 . S
C733 O734 1.227 . S
C733 O743 1.265 . S
O734 C733 1.227 . S
N735 Co732 2.121 . S
N735 C737 1.375 . S
N735 C738 1.313 . S
C736 C737 1.338 . S
C736 N739 1.377 . S
C736 H756 0.930 . S
C737 N735 1.375 . S
C737 C736 1.338 . S
C737 H741 0.931 . S
C738 N735 1.313 . S
C738 N739 1.344 . S
C738 H742 0.930 . S
N739 C736 1.377 . S
N739 C738 1.344 . S
O740 Co732 2.055 . S
O740 C744 1.253 . S
H741 C737 0.931 . S
H742 C738 0.930 . S
O743 Co732 2.039 . S
O743 C733 1.265 . S
C744 O740 1.253 . S
C744 O745 1.227 . S
O745 C744 1.227 . S
N746 Co732 2.140 . S
N746 C749 1.346 . S
N746 C750 1.345 . S
C747 C748 1.387 . S
C747 C751 1.391 . S
C748 C747 1.387 . S
C748 C749 1.369 . S
C748 H757 0.929 . S
C749 N746 1.346 . S
C749 C748 1.369 . S
C749 H752 0.928 . S
C750 N746 1.345 . S
C750 C751 1.371 . S
C750 H753 0.931 . S
C751 C747 1.391 . S
C751 C750 1.371 . S
C751 H758 0.930 . S
H752 C749 0.928 . S
H753 C750 0.931 . S
H754 C730 0.930 1_455 S
H755 C727 0.930 . S
H756 C736 0.930 . S
H757 C748 0.929 . S
H758 C751 0.930 . S
C759 C760 1.351 . S
C759 N762 1.368 . S
C759 H764 0.931 . S
C760 C759 1.351 . S
C760 N761 1.373 . S
C760 H788 0.930 . S
N761 C760 1.373 . S
N761 C763 1.340 . S
N762 C759 1.368 . S
N762 C763 1.321 . S
N762 Co765 2.135 . S
C763 N761 1.340 . S
C763 N762 1.321 . S
C763 H787 0.930 . S
H764 C759 0.931 . S
Co765 N762 2.135 . S
Co765 N768 2.121 . S
Co765 O773 2.055 . S
Co765 O776 2.039 . S
Co765 N779 2.140 . S
C766 O767 1.227 . S
C766 O776 1.265 . S
O767 C766 1.227 . S
N768 Co765 2.121 . S
N768 C770 1.375 . S
N768 C771 1.313 . S
C769 C770 1.338 . S
C769 N772 1.377 . S
C769 H789 0.930 . S
C770 N768 1.375 . S
C770 C769 1.338 . S
C770 H774 0.931 . S
C771 N768 1.313 . S
C771 N772 1.344 . S
C771 H775 0.930 . S
N772 C769 1.377 . S
N772 C771 1.344 . S
O773 Co765 2.055 . S
O773 C777 1.253 . S
H774 C770 0.931 . S
H775 C771 0.930 . S
O776 Co765 2.039 . S
O776 C766 1.265 . S
C777 O773 1.253 . S
C777 O778 1.227 . S
O778 C777 1.227 . S
N779 Co765 2.140 . S
N779 C782 1.346 . S
N779 C783 1.345 . S
C780 C781 1.387 . S
C780 C784 1.391 . S
C781 C780 1.387 . S
C781 C782 1.369 . S
C781 H790 0.929 . S
C782 N779 1.346 . S
C782 C781 1.369 . S
C782 H785 0.928 . S
C783 N779 1.345 . S
C783 C784 1.371 . S
C783 H786 0.931 . S
C784 C780 1.391 . S
C784 C783 1.371 . S
C784 H791 0.930 . S
H785 C782 0.928 . S
H786 C783 0.931 . S
H787 C763 0.930 . S
H788 C760 0.930 . S
H789 C769 0.930 . S
H790 C781 0.929 . S
H791 C784 0.930 . S
C792 C793 1.351 . S
C792 N795 1.368 . S
C792 H797 0.931 . S
C793 C792 1.351 . S
C793 N794 1.373 . S
C793 H821 0.930 . S
N794 C793 1.373 . S
N794 C796 1.340 . S
N795 C792 1.368 . S
N795 C796 1.321 . S
N795 Co798 2.135 . S
C796 N794 1.340 . S
C796 N795 1.321 . S
C796 H820 0.930 . S
H797 C792 0.931 . S
Co798 N795 2.135 . S
Co798 N801 2.121 . S
Co798 O806 2.055 . S
Co798 O809 2.039 . S
Co798 N812 2.140 . S
C799 O800 1.227 . S
C799 O809 1.265 . S
O800 C799 1.227 . S
N801 Co798 2.121 . S
N801 C803 1.375 . S
N801 C804 1.313 . S
C802 C803 1.338 . S
C802 N805 1.377 . S
C802 H822 0.930 . S
C803 N801 1.375 . S
C803 C802 1.338 . S
C803 H807 0.931 . S
C804 N801 1.313 . S
C804 N805 1.344 . S
C804 H808 0.930 . S
N805 C802 1.377 . S
N805 C804 1.344 . S
O806 Co798 2.055 . S
O806 C810 1.253 . S
H807 C803 0.931 . S
H808 C804 0.930 . S
O809 Co798 2.039 . S
O809 C799 1.265 . S
C810 O806 1.253 . S
C810 O811 1.227 . S
O811 C810 1.227 . S
N812 Co798 2.140 . S
N812 C815 1.346 . S
N812 C816 1.345 . S
C813 C814 1.387 . S
C813 C817 1.391 . S
C814 C813 1.387 . S
C814 C815 1.369 . S
C814 H823 0.929 . S
C815 N812 1.346 . S
C815 C814 1.369 . S
C815 H818 0.928 . S
C816 N812 1.345 . S
C816 C817 1.371 . S
C816 H819 0.931 . S
C817 C813 1.391 . S
C817 C816 1.371 . S
C817 H824 0.930 . S
H818 C815 0.928 . S
H819 C816 0.931 . S
H820 C796 0.930 . S
H821 C793 0.930 . S
H822 C802 0.930 . S
H823 C814 0.929 . S
H824 C817 0.930 . S
C825 C826 1.351 . S
C825 N828 1.368 . S
C825 H830 0.931 . S
C826 C825 1.351 . S
C826 N827 1.373 . S
C826 H854 0.930 . S
N827 C826 1.373 . S
N827 C829 1.340 . S
N828 C825 1.368 . S
N828 C829 1.321 . S
N828 Co831 2.135 . S
C829 N827 1.340 . S
C829 N828 1.321 . S
C829 H853 0.930 . S
H830 C825 0.931 . S
Co831 N828 2.135 . S
Co831 N834 2.121 1_556 S
Co831 O839 2.056 . S
Co831 O842 2.039 . S
Co831 N845 2.140 . S
C832 O833 1.227 . S
C832 O842 1.265 . S
O833 C832 1.227 . S
N834 Co831 2.121 1_554 S
N834 C836 1.375 . S
N834 C837 1.313 . S
C835 C836 1.338 . S
C835 N838 1.377 . S
C835 H855 0.930 . S
C836 N834 1.375 . S
C836 C835 1.338 . S
C836 H840 0.931 . S
C837 N834 1.313 . S
C837 N838 1.344 . S
C837 H841 0.930 . S
N838 C835 1.377 . S
N838 C837 1.344 . S
O839 Co831 2.056 . S
O839 C843 1.253 . S
H840 C836 0.931 . S
H841 C837 0.930 . S
O842 Co831 2.039 . S
O842 C832 1.265 . S
C843 O839 1.253 . S
C843 O844 1.227 . S
O844 C843 1.227 . S
N845 Co831 2.140 . S
N845 C848 1.346 . S
N845 C849 1.345 . S
C846 C847 1.387 . S
C846 C850 1.391 . S
C847 C846 1.387 . S
C847 C848 1.369 . S
C847 H856 0.929 . S
C848 N845 1.346 . S
C848 C847 1.369 . S
C848 H851 0.928 . S
C849 N845 1.345 . S
C849 C850 1.371 . S
C849 H852 0.931 . S
C850 C846 1.391 . S
C850 C849 1.371 . S
C850 H857 0.930 . S
H851 C848 0.928 . S
H852 C849 0.931 . S
H853 C829 0.930 . S
H854 C826 0.930 . S
H855 C835 0.930 . S
H856 C847 0.929 . S
H857 C850 0.930 . S
C858 C859 1.351 . S
C858 N861 1.368 . S
C858 H863 0.931 . S
C859 C858 1.351 . S
C859 N860 1.373 1_455 S
C859 H887 0.930 . S
N860 C859 1.373 1_655 S
N860 C862 1.340 1_655 S
N861 C858 1.368 . S
N861 C862 1.321 . S
N861 Co864 2.135 . S
C862 N860 1.340 1_455 S
C862 N861 1.321 . S
C862 H886 0.930 1_455 S
H863 C858 0.931 . S
Co864 N861 2.135 . S
Co864 N867 2.121 . S
Co864 O872 2.055 . S
Co864 O875 2.039 . S
Co864 N878 2.140 . S
C865 O866 1.227 . S
C865 O875 1.265 . S
O866 C865 1.227 . S
N867 Co864 2.121 . S
N867 C869 1.375 . S
N867 C870 1.313 . S
C868 C869 1.338 . S
C868 N871 1.377 . S
C868 H888 0.930 . S
C869 N867 1.375 . S
C869 C868 1.338 . S
C869 H873 0.931 . S
C870 N867 1.313 . S
C870 N871 1.344 . S
C870 H874 0.930 . S
N871 C868 1.377 . S
N871 C870 1.344 . S
O872 Co864 2.055 . S
O872 C876 1.253 . S
H873 C869 0.931 . S
H874 C870 0.930 . S
O875 Co864 2.039 . S
O875 C865 1.265 . S
C876 O872 1.253 . S
C876 O877 1.227 . S
O877 C876 1.227 . S
N878 Co864 2.140 . S
N878 C881 1.346 . S
N878 C882 1.345 . S
C879 C880 1.387 . S
C879 C883 1.391 . S
C880 C879 1.387 . S
C880 C881 1.369 . S
C880 H889 0.929 . S
C881 N878 1.346 . S
C881 C880 1.369 . S
C881 H884 0.928 . S
C882 N878 1.345 . S
C882 C883 1.371 . S
C882 H885 0.931 . S
C883 C879 1.391 . S
C883 C882 1.371 . S
C883 H890 0.930 . S
H884 C881 0.928 . S
H885 C882 0.931 . S
H886 C862 0.930 1_655 S
H887 C859 0.930 . S
H888 C868 0.930 . S
H889 C880 0.929 . S
H890 C883 0.930 . S
C891 C892 1.351 . S
C891 N894 1.368 . S
C891 H896 0.931 . S
C892 C891 1.351 . S
C892 N893 1.373 . S
C892 H920 0.930 . S
N893 C892 1.373 . S
N893 C895 1.340 . S
N894 C891 1.368 . S
N894 C895 1.321 . S
N894 Co897 2.135 . S
C895 N893 1.340 . S
C895 N894 1.321 . S
C895 H919 0.930 . S
H896 C891 0.931 . S
Co897 N894 2.135 . S
Co897 N900 2.121 . S
Co897 O905 2.055 . S
Co897 O908 2.039 . S
Co897 N911 2.140 . S
C898 O899 1.227 . S
C898 O908 1.265 . S
O899 C898 1.227 . S
N900 Co897 2.121 . S
N900 C902 1.375 . S
N900 C903 1.313 . S
C901 C902 1.338 . S
C901 N904 1.377 . S
C901 H921 0.930 . S
C902 N900 1.375 . S
C902 C901 1.338 . S
C902 H906 0.931 . S
C903 N900 1.313 . S
C903 N904 1.344 . S
C903 H907 0.930 . S
N904 C901 1.377 . S
N904 C903 1.344 . S
O905 Co897 2.055 . S
O905 C909 1.253 . S
H906 C902 0.931 . S
H907 C903 0.930 . S
O908 Co897 2.039 . S
O908 C898 1.265 . S
C909 O905 1.253 . S
C909 O910 1.227 . S
O910 C909 1.227 . S
N911 Co897 2.140 . S
N911 C914 1.346 . S
N911 C915 1.345 . S
C912 C913 1.387 . S
C912 C916 1.391 . S
C913 C912 1.387 . S
C913 C914 1.369 . S
C913 H922 0.929 . S
C914 N911 1.346 . S
C914 C913 1.369 . S
C914 H917 0.928 . S
C915 N911 1.345 . S
C915 C916 1.371 . S
C915 H918 0.931 . S
C916 C912 1.391 . S
C916 C915 1.371 . S
C916 H923 0.930 . S
H917 C914 0.928 . S
H918 C915 0.931 . S
H919 C895 0.930 . S
H920 C892 0.930 . S
H921 C901 0.930 . S
H922 C913 0.929 . S
H923 C916 0.930 . S
C924 C925 1.351 . S
C924 N927 1.368 . S
C924 H929 0.931 . S
C925 C924 1.351 . S
C925 N926 1.373 . S
C925 H953 0.930 . S
N926 C925 1.373 . S
N926 C928 1.340 . S
N927 C924 1.368 . S
N927 C928 1.321 . S
N927 Co930 2.135 . S
C928 N926 1.340 . S
C928 N927 1.321 . S
C928 H952 0.930 . S
H929 C924 0.931 . S
Co930 N927 2.135 . S
Co930 N933 2.121 . S
Co930 O938 2.055 . S
Co930 O941 2.039 . S
Co930 N944 2.140 . S
C931 O932 1.227 . S
C931 O941 1.265 . S
O932 C931 1.227 . S
N933 Co930 2.121 . S
N933 C935 1.375 . S
N933 C936 1.313 . S
C934 C935 1.338 . S
C934 N937 1.377 . S
C934 H954 0.930 . S
C935 N933 1.375 . S
C935 C934 1.338 . S
C935 H939 0.931 . S
C936 N933 1.313 . S
C936 N937 1.344 . S
C936 H940 0.930 . S
N937 C934 1.377 . S
N937 C936 1.344 . S
O938 Co930 2.055 . S
O938 C942 1.253 . S
H939 C935 0.931 . S
H940 C936 0.930 . S
O941 Co930 2.039 . S
O941 C931 1.265 . S
C942 O938 1.253 . S
C942 O943 1.227 . S
O943 C942 1.227 . S
N944 Co930 2.140 . S
N944 C947 1.346 . S
N944 C948 1.345 . S
C945 C946 1.387 . S
C945 C949 1.391 . S
C946 C945 1.387 . S
C946 C947 1.369 . S
C946 H955 0.929 . S
C947 N944 1.346 . S
C947 C946 1.369 . S
C947 H950 0.928 . S
C948 N944 1.345 . S
C948 C949 1.371 . S
C948 H951 0.931 . S
C949 C945 1.391 . S
C949 C948 1.371 . S
C949 H956 0.930 . S
H950 C947 0.928 . S
H951 C948 0.931 . S
H952 C928 0.930 . S
H953 C925 0.930 . S
H954 C934 0.930 . S
H955 C946 0.929 . S
H956 C949 0.930 . S
C957 C958 1.351 . S
C957 N960 1.368 . S
C957 H962 0.931 . S
C958 C957 1.351 . S
C958 N959 1.373 . S
C958 H986 0.930 . S
N959 C958 1.373 . S
N959 C961 1.340 . S
N960 C957 1.368 . S
N960 C961 1.321 . S
N960 Co963 2.135 . S
C961 N959 1.340 . S
C961 N960 1.321 . S
C961 H985 0.930 . S
H962 C957 0.931 . S
Co963 N960 2.135 . S
Co963 N966 2.121 1_554 S
Co963 O971 2.056 . S
Co963 O974 2.039 . S
Co963 N977 2.140 . S
C964 O965 1.227 . S
C964 O974 1.265 . S
O965 C964 1.227 . S
N966 Co963 2.121 1_556 S
N966 C968 1.375 . S
N966 C969 1.313 . S
C967 C968 1.338 . S
C967 N970 1.377 . S
C967 H987 0.930 . S
C968 N966 1.375 . S
C968 C967 1.338 . S
C968 H972 0.931 . S
C969 N966 1.313 . S
C969 N970 1.344 . S
C969 H973 0.930 . S
N970 C967 1.377 . S
N970 C969 1.344 . S
O971 Co963 2.056 . S
O971 C975 1.253 . S
H972 C968 0.931 . S
H973 C969 0.930 . S
O974 Co963 2.039 . S
O974 C964 1.265 . S
C975 O971 1.253 . S
C975 O976 1.227 . S
O976 C975 1.227 . S
N977 Co963 2.140 . S
N977 C980 1.346 . S
N977 C981 1.345 . S
C978 C979 1.387 . S
C978 C982 1.391 . S
C979 C978 1.387 . S
C979 C980 1.369 . S
C979 H988 0.929 . S
C980 N977 1.346 . S
C980 C979 1.369 . S
C980 H983 0.928 . S
C981 N977 1.345 . S
C981 C982 1.371 . S
C981 H984 0.931 . S
C982 C978 1.391 . S
C982 C981 1.371 . S
C982 H989 0.930 . S
H983 C980 0.928 . S
H984 C981 0.931 . S
H985 C961 0.930 . S
H986 C958 0.930 . S
H987 C967 0.930 . S
H988 C979 0.929 . S
H989 C982 0.930 . S
C990 C991 1.351 . S
C990 N993 1.368 . S
C990 H995 0.931 . S
C991 C990 1.351 . S
C991 N992 1.373 1_455 S
C991 H1019 0.930 . S
N992 C991 1.373 1_655 S
N992 C994 1.340 1_655 S
N993 C990 1.368 . S
N993 C994 1.321 . S
N993 Co996 2.135 . S
C994 N992 1.340 1_455 S
C994 N993 1.321 . S
C994 H1018 0.930 1_455 S
H995 C990 0.931 . S
Co996 N993 2.135 . S
Co996 N999 2.121 . S
Co996 O1004 2.055 . S
Co996 O1007 2.039 . S
Co996 N1010 2.140 . S
C997 O998 1.227 . S
C997 O1007 1.265 . S
O998 C997 1.227 . S
N999 Co996 2.121 . S
N999 C1001 1.375 . S
N999 C1002 1.313 . S
C1000 C1001 1.338 . S
C1000 N1003 1.377 . S
C1000 H1020 0.930 . S
C1001 N999 1.375 . S
C1001 C1000 1.338 . S
C1001 H1005 0.931 . S
C1002 N999 1.313 . S
C1002 N1003 1.344 . S
C1002 H1006 0.930 . S
N1003 C1000 1.377 . S
N1003 C1002 1.344 . S
O1004 Co996 2.055 . S
O1004 C1008 1.253 . S
H1005 C1001 0.931 . S
H1006 C1002 0.930 . S
O1007 Co996 2.039 . S
O1007 C997 1.265 . S
C1008 O1004 1.253 . S
C1008 O1009 1.227 . S
O1009 C1008 1.227 . S
N1010 Co996 2.140 . S
N1010 C1013 1.346 . S
N1010 C1014 1.345 . S
C1011 C1012 1.387 . S
C1011 C1015 1.391 . S
C1012 C1011 1.387 . S
C1012 C1013 1.369 . S
C1012 H1021 0.929 . S
C1013 N1010 1.346 . S
C1013 C1012 1.369 . S
C1013 H1016 0.928 . S
C1014 N1010 1.345 . S
C1014 C1015 1.371 . S
C1014 H1017 0.931 . S
C1015 C1011 1.391 . S
C1015 C1014 1.371 . S
C1015 H1022 0.930 . S
H1016 C1013 0.928 . S
H1017 C1014 0.931 . S
H1018 C994 0.930 1_655 S
H1019 C991 0.930 . S
H1020 C1000 0.930 . S
H1021 C1012 0.929 . S
H1022 C1015 0.930 . S
C1023 C1024 1.351 . S
C1023 N1026 1.368 . S
C1023 H1028 0.931 . S
C1024 C1023 1.351 . S
C1024 N1025 1.373 . S
C1024 H1052 0.930 . S
N1025 C1024 1.373 . S
N1025 C1027 1.340 . S
N1026 C1023 1.368 . S
N1026 C1027 1.321 . S
N1026 Co1029 2.135 . S
C1027 N1025 1.340 . S
C1027 N1026 1.321 . S
C1027 H1051 0.930 . S
H1028 C1023 0.931 . S
Co1029 N1026 2.135 . S
Co1029 N1032 2.121 . S
Co1029 O1037 2.055 . S
Co1029 O1040 2.039 . S
Co1029 N1043 2.140 . S
C1030 O1031 1.227 . S
C1030 O1040 1.265 . S
O1031 C1030 1.227 . S
N1032 Co1029 2.121 . S
N1032 C1034 1.375 . S
N1032 C1035 1.313 . S
C1033 C1034 1.338 . S
C1033 N1036 1.377 . S
C1033 H1053 0.930 . S
C1034 N1032 1.375 . S
C1034 C1033 1.338 . S
C1034 H1038 0.931 . S
C1035 N1032 1.313 . S
C1035 N1036 1.344 . S
C1035 H1039 0.930 . S
N1036 C1033 1.377 . S
N1036 C1035 1.344 . S
O1037 Co1029 2.055 . S
O1037 C1041 1.253 . S
H1038 C1034 0.931 . S
H1039 C1035 0.930 . S
O1040 Co1029 2.039 . S
O1040 C1030 1.265 . S
C1041 O1037 1.253 . S
C1041 O1042 1.227 . S
O1042 C1041 1.227 . S
N1043 Co1029 2.140 . S
N1043 C1046 1.346 . S
N1043 C1047 1.345 . S
C1044 C1045 1.387 . S
C1044 C1048 1.391 . S
C1045 C1044 1.387 . S
C1045 C1046 1.369 . S
C1045 H1054 0.929 . S
C1046 N1043 1.346 . S
C1046 C1045 1.369 . S
C1046 H1049 0.928 . S
C1047 N1043 1.345 . S
C1047 C1048 1.371 . S
C1047 H1050 0.931 . S
C1048 C1044 1.391 . S
C1048 C1047 1.371 . S
C1048 H1055 0.930 . S
H1049 C1046 0.928 . S
H1050 C1047 0.931 . S
H1051 C1027 0.930 . S
H1052 C1024 0.930 . S
H1053 C1033 0.930 . S
H1054 C1045 0.929 . S
H1055 C1048 0.930 . S
C1056 C1057 1.369 . S
C1056 C1058 1.419 . S
C1056 H1060 0.930 . S
C1057 C1056 1.369 . S
C1057 C1066 1.429 . S
C1058 C1056 1.419 . S
C1058 C1059 1.363 . S
C1058 H1061 0.929 . S
C1059 C1058 1.363 . S
C1059 C1065 1.428 . S
H1060 C1056 0.930 . S
H1061 C1058 0.929 . S
S1062 N1063 1.613 . S
S1062 N1064 1.610 . S
N1063 S1062 1.613 . S
N1063 C1066 1.350 . S
N1064 S1062 1.610 . S
N1064 C1065 1.351 . S
C1065 C1059 1.428 . S
C1065 N1064 1.351 . S
C1065 C1066 1.434 . S
C1066 C1057 1.429 . S
C1066 N1063 1.350 . S
C1066 C1065 1.434 . S
C1067 C1068 1.369 . S
C1067 C1069 1.419 . S
C1067 H1071 0.930 . S
C1068 C1067 1.369 . S
C1068 C1077 1.429 . S
C1069 C1067 1.419 . S
C1069 C1070 1.363 . S
C1069 H1072 0.929 . S
C1070 C1069 1.363 . S
C1070 C1076 1.428 . S
H1071 C1067 0.930 . S
H1072 C1069 0.929 . S
S1073 N1074 1.613 . S
S1073 N1075 1.610 . S
N1074 S1073 1.613 . S
N1074 C1077 1.350 . S
N1075 S1073 1.610 . S
N1075 C1076 1.351 . S
C1076 C1070 1.428 . S
C1076 N1075 1.351 . S
C1076 C1077 1.434 . S
C1077 C1068 1.429 . S
C1077 N1074 1.350 . S
C1077 C1076 1.434 . S
C1078 C1079 1.369 . S
C1078 C1080 1.419 . S
C1078 H1082 0.930 . S
C1079 C1078 1.369 . S
C1079 C1088 1.429 . S
C1080 C1078 1.419 . S
C1080 C1081 1.363 . S
C1080 H1083 0.929 . S
C1081 C1080 1.363 . S
C1081 C1087 1.428 . S
H1082 C1078 0.930 . S
H1083 C1080 0.929 . S
S1084 N1085 1.613 . S
S1084 N1086 1.610 . S
N1085 S1084 1.613 . S
N1085 C1088 1.350 . S
N1086 S1084 1.610 . S
N1086 C1087 1.351 . S
C1087 C1081 1.428 . S
C1087 N1086 1.351 . S
C1087 C1088 1.434 . S
C1088 C1079 1.429 . S
C1088 N1085 1.350 . S
C1088 C1087 1.434 . S
C1089 C1090 1.369 . S
C1089 C1091 1.419 . S
C1089 H1093 0.930 . S
C1090 C1089 1.369 . S
C1090 C1099 1.429 . S
C1091 C1089 1.419 . S
C1091 C1092 1.363 . S
C1091 H1094 0.929 . S
C1092 C1091 1.363 . S
C1092 C1098 1.428 . S
H1093 C1089 0.930 . S
H1094 C1091 0.929 . S
S1095 N1096 1.613 . S
S1095 N1097 1.610 . S
N1096 S1095 1.613 . S
N1096 C1099 1.350 . S
N1097 S1095 1.610 . S
N1097 C1098 1.351 . S
C1098 C1092 1.428 . S
C1098 N1097 1.351 . S
C1098 C1099 1.434 . S
C1099 C1090 1.429 . S
C1099 N1096 1.350 . S
C1099 C1098 1.434 . S
C1100 C1101 1.369 . S
C1100 C1102 1.419 . S
C1100 H1104 0.930 . S
C1101 C1100 1.369 . S
C1101 C1110 1.429 . S
C1102 C1100 1.419 . S
C1102 C1103 1.363 . S
C1102 H1105 0.929 . S
C1103 C1102 1.363 . S
C1103 C1109 1.428 . S
H1104 C1100 0.930 . S
H1105 C1102 0.929 . S
S1106 N1107 1.613 . S
S1106 N1108 1.610 . S
N1107 S1106 1.613 . S
N1107 C1110 1.350 . S
N1108 S1106 1.610 . S
N1108 C1109 1.351 . S
C1109 C1103 1.428 . S
C1109 N1108 1.351 . S
C1109 C1110 1.434 . S
C1110 C1101 1.429 . S
C1110 N1107 1.350 . S
C1110 C1109 1.434 . S
C1111 C1112 1.369 . S
C1111 C1113 1.419 . S
C1111 H1115 0.930 . S
C1112 C1111 1.369 . S
C1112 C1121 1.429 . S
C1113 C1111 1.419 . S
C1113 C1114 1.363 . S
C1113 H1116 0.929 . S
C1114 C1113 1.363 . S
C1114 C1120 1.428 . S
H1115 C1111 0.930 . S
H1116 C1113 0.929 . S
S1117 N1118 1.613 . S
S1117 N1119 1.610 . S
N1118 S1117 1.613 . S
N1118 C1121 1.350 . S
N1119 S1117 1.610 . S
N1119 C1120 1.351 . S
C1120 C1114 1.428 . S
C1120 N1119 1.351 . S
C1120 C1121 1.434 . S
C1121 C1112 1.429 . S
C1121 N1118 1.350 . S
C1121 C1120 1.434 . S
C1122 C1123 1.369 . S
C1122 C1124 1.419 . S
C1122 H1126 0.930 . S
C1123 C1122 1.369 . S
C1123 C1132 1.429 . S
C1124 C1122 1.419 . S
C1124 C1125 1.363 . S
C1124 H1127 0.929 . S
C1125 C1124 1.363 . S
C1125 C1131 1.428 . S
H1126 C1122 0.930 . S
H1127 C1124 0.929 . S
S1128 N1129 1.613 . S
S1128 N1130 1.610 . S
N1129 S1128 1.613 . S
N1129 C1132 1.350 . S
N1130 S1128 1.610 . S
N1130 C1131 1.351 . S
C1131 C1125 1.428 . S
C1131 N1130 1.351 . S
C1131 C1132 1.434 . S
C1132 C1123 1.429 . S
C1132 N1129 1.350 . S
C1132 C1131 1.434 . S
C1133 C1134 1.369 . S
C1133 C1135 1.419 . S
C1133 H1137 0.930 . S
C1134 C1133 1.369 . S
C1134 C1143 1.429 . S
C1135 C1133 1.419 . S
C1135 C1136 1.363 . S
C1135 H1138 0.929 . S
C1136 C1135 1.363 . S
C1136 C1142 1.428 . S
H1137 C1133 0.930 . S
H1138 C1135 0.929 . S
S1139 N1140 1.613 . S
S1139 N1141 1.610 . S
N1140 S1139 1.613 . S
N1140 C1143 1.350 . S
N1141 S1139 1.610 . S
N1141 C1142 1.351 . S
C1142 C1136 1.428 . S
C1142 N1141 1.351 . S
C1142 C1143 1.434 . S
C1143 C1134 1.429 . S
C1143 N1140 1.350 . S
C1143 C1142 1.434 . S
C1144 C1145 1.369 . S
C1144 C1146 1.419 . S
C1144 H1148 0.930 . S
C1145 C1144 1.369 . S
C1145 C1154 1.429 . S
C1146 C1144 1.419 . S
C1146 C1147 1.363 . S
C1146 H1149 0.929 . S
C1147 C1146 1.363 . S
C1147 C1153 1.428 . S
H1148 C1144 0.930 . S
H1149 C1146 0.929 . S
S1150 N1151 1.613 . S
S1150 N1152 1.610 . S
N1151 S1150 1.613 . S
N1151 C1154 1.350 . S
N1152 S1150 1.610 . S
N1152 C1153 1.351 . S
C1153 C1147 1.428 . S
C1153 N1152 1.351 . S
C1153 C1154 1.434 . S
C1154 C1145 1.429 . S
C1154 N1151 1.350 . S
C1154 C1153 1.434 . S
C1155 C1156 1.369 . S
C1155 C1157 1.419 . S
C1155 H1159 0.930 . S
C1156 C1155 1.369 . S
C1156 C1165 1.429 . S
C1157 C1155 1.419 . S
C1157 C1158 1.363 . S
C1157 H1160 0.929 . S
C1158 C1157 1.363 . S
C1158 C1164 1.428 . S
H1159 C1155 0.930 . S
H1160 C1157 0.929 . S
S1161 N1162 1.613 . S
S1161 N1163 1.610 . S
N1162 S1161 1.613 . S
N1162 C1165 1.350 . S
N1163 S1161 1.610 . S
N1163 C1164 1.351 . S
C1164 C1158 1.428 . S
C1164 N1163 1.351 . S
C1164 C1165 1.434 . S
C1165 C1156 1.429 . S
C1165 N1162 1.350 . S
C1165 C1164 1.434 . S
C1166 C1167 1.369 . S
C1166 C1168 1.419 . S
C1166 H1170 0.930 . S
C1167 C1166 1.369 . S
C1167 C1176 1.429 . S
C1168 C1166 1.419 . S
C1168 C1169 1.363 . S
C1168 H1171 0.929 . S
C1169 C1168 1.363 . S
C1169 C1175 1.428 . S
H1170 C1166 0.930 . S
H1171 C1168 0.929 . S
S1172 N1173 1.613 . S
S1172 N1174 1.610 . S
N1173 S1172 1.613 . S
N1173 C1176 1.350 . S
N1174 S1172 1.610 . S
N1174 C1175 1.351 . S
C1175 C1169 1.428 . S
C1175 N1174 1.351 . S
C1175 C1176 1.434 . S
C1176 C1167 1.429 . S
C1176 N1173 1.350 . S
C1176 C1175 1.434 . S
C1177 C1178 1.369 . S
C1177 C1179 1.419 . S
C1177 H1181 0.930 . S
C1178 C1177 1.369 . S
C1178 C1187 1.429 . S
C1179 C1177 1.419 . S
C1179 C1180 1.363 . S
C1179 H1182 0.929 . S
C1180 C1179 1.363 . S
C1180 C1186 1.428 . S
H1181 C1177 0.930 . S
H1182 C1179 0.929 . S
S1183 N1184 1.613 . S
S1183 N1185 1.610 . S
N1184 S1183 1.613 . S
N1184 C1187 1.350 . S
N1185 S1183 1.610 . S
N1185 C1186 1.351 . S
C1186 C1180 1.428 . S
C1186 N1185 1.351 . S
C1186 C1187 1.434 . S
C1187 C1178 1.429 . S
C1187 N1184 1.350 . S
C1187 C1186 1.434 . S
C1188 C1189 1.369 . S
C1188 C1190 1.419 . S
C1188 H1192 0.930 . S
C1189 C1188 1.369 . S
C1189 C1198 1.429 . S
C1190 C1188 1.419 . S
C1190 C1191 1.363 . S
C1190 H1193 0.929 . S
C1191 C1190 1.363 . S
C1191 C1197 1.428 . S
H1192 C1188 0.930 . S
H1193 C1190 0.929 . S
S1194 N1195 1.613 . S
S1194 N1196 1.610 . S
N1195 S1194 1.613 . S
N1195 C1198 1.350 . S
N1196 S1194 1.610 . S
N1196 C1197 1.351 . S
C1197 C1191 1.428 . S
C1197 N1196 1.351 . S
C1197 C1198 1.434 . S
C1198 C1189 1.429 . S
C1198 N1195 1.350 . S
C1198 C1197 1.434 . S
C1199 C1200 1.369 . S
C1199 C1201 1.419 . S
C1199 H1203 0.930 . S
C1200 C1199 1.369 . S
C1200 C1209 1.429 . S
C1201 C1199 1.419 . S
C1201 C1202 1.363 . S
C1201 H1204 0.929 . S
C1202 C1201 1.363 . S
C1202 C1208 1.428 . S
H1203 C1199 0.930 . S
H1204 C1201 0.929 . S
S1205 N1206 1.613 . S
S1205 N1207 1.610 . S
N1206 S1205 1.613 . S
N1206 C1209 1.350 . S
N1207 S1205 1.610 . S
N1207 C1208 1.351 . S
C1208 C1202 1.428 . S
C1208 N1207 1.351 . S
C1208 C1209 1.434 . S
C1209 C1200 1.429 . S
C1209 N1206 1.350 . S
C1209 C1208 1.434 . S
C1210 C1211 1.369 . S
C1210 C1212 1.419 . S
C1210 H1214 0.930 . S
C1211 C1210 1.369 . S
C1211 C1220 1.429 . S
C1212 C1210 1.419 . S
C1212 C1213 1.363 . S
C1212 H1215 0.929 . S
C1213 C1212 1.363 . S
C1213 C1219 1.428 . S
H1214 C1210 0.930 . S
H1215 C1212 0.929 . S
S1216 N1217 1.613 . S
S1216 N1218 1.610 . S
N1217 S1216 1.613 . S
N1217 C1220 1.350 . S
N1218 S1216 1.610 . S
N1218 C1219 1.351 . S
C1219 C1213 1.428 . S
C1219 N1218 1.351 . S
C1219 C1220 1.434 . S
C1220 C1211 1.429 . S
C1220 N1217 1.350 . S
C1220 C1219 1.434 . S
C1221 C1222 1.369 . S
C1221 C1223 1.419 . S
C1221 H1225 0.930 . S
C1222 C1221 1.369 . S
C1222 C1231 1.429 . S
C1223 C1221 1.419 . S
C1223 C1224 1.363 . S
C1223 H1226 0.929 . S
C1224 C1223 1.363 . S
C1224 C1230 1.428 . S
H1225 C1221 0.930 . S
H1226 C1223 0.929 . S
S1227 N1228 1.613 . S
S1227 N1229 1.610 . S
N1228 S1227 1.613 . S
N1228 C1231 1.350 . S
N1229 S1227 1.610 . S
N1229 C1230 1.351 . S
C1230 C1224 1.428 . S
C1230 N1229 1.351 . S
C1230 C1231 1.434 . S
C1231 C1222 1.429 . S
C1231 N1228 1.350 . S
C1231 C1230 1.434 . S
C1232 C1233 1.369 . S
C1232 C1234 1.419 1_565 S
C1232 H1236 0.930 . S
C1233 C1232 1.369 . S
C1233 C1242 1.429 . S
C1234 C1232 1.419 1_545 S
C1234 C1235 1.363 . S
C1234 H1237 0.929 . S
C1235 C1234 1.363 . S
C1235 C1241 1.428 . S
H1236 C1232 0.930 . S
H1237 C1234 0.929 . S
S1238 N1239 1.613 . S
S1238 N1240 1.610 1_565 S
N1239 S1238 1.613 . S
N1239 C1242 1.350 . S
N1240 S1238 1.610 1_545 S
N1240 C1241 1.351 . S
C1241 C1235 1.428 . S
C1241 N1240 1.351 . S
C1241 C1242 1.434 1_545 S
C1242 C1233 1.429 . S
C1242 N1239 1.350 . S
C1242 C1241 1.434 1_565 S
C1243 C1244 1.369 . S
C1243 C1245 1.419 . S
C1243 H1247 0.930 . S
C1244 C1243 1.369 . S
C1244 C1253 1.429 . S
C1245 C1243 1.419 . S
C1245 C1246 1.363 . S
C1245 H1248 0.929 . S
C1246 C1245 1.363 . S
C1246 C1252 1.428 . S
H1247 C1243 0.930 . S
H1248 C1245 0.929 . S
S1249 N1250 1.613 . S
S1249 N1251 1.610 . S
N1250 S1249 1.613 . S
N1250 C1253 1.350 . S
N1251 S1249 1.610 . S
N1251 C1252 1.351 . S
C1252 C1246 1.428 . S
C1252 N1251 1.351 . S
C1252 C1253 1.434 . S
C1253 C1244 1.429 . S
C1253 N1250 1.350 . S
C1253 C1252 1.434 . S
C1254 C1255 1.369 . S
C1254 C1256 1.419 1_545 S
C1254 H1258 0.930 . S
C1255 C1254 1.369 . S
C1255 C1264 1.429 . S
C1256 C1254 1.419 1_565 S
C1256 C1257 1.363 . S
C1256 H1259 0.929 . S
C1257 C1256 1.363 . S
C1257 C1263 1.428 . S
H1258 C1254 0.930 . S
H1259 C1256 0.929 . S
S1260 N1261 1.613 1_565 S
S1260 N1262 1.610 . S
N1261 S1260 1.613 1_545 S
N1261 C1264 1.350 . S
N1262 S1260 1.610 . S
N1262 C1263 1.351 . S
C1263 C1257 1.428 . S
C1263 N1262 1.351 . S
C1263 C1264 1.434 1_565 S
C1264 C1255 1.429 . S
C1264 N1261 1.350 . S
C1264 C1263 1.434 1_545 S
C1265 C1266 1.369 1_556 S
C1265 C1267 1.419 . S
C1265 H1269 0.930 . S
C1266 C1265 1.369 1_554 S
C1266 C1275 1.429 . S
C1267 C1265 1.419 . S
C1267 C1268 1.363 . S
C1267 H1270 0.929 . S
C1268 C1267 1.363 . S
C1268 C1274 1.428 1_556 S
H1269 C1265 0.930 . S
H1270 C1267 0.929 . S
S1271 N1272 1.613 . S
S1271 N1273 1.610 . S
N1272 S1271 1.613 . S
N1272 C1275 1.350 . S
N1273 S1271 1.610 . S
N1273 C1274 1.351 . S
C1274 C1268 1.428 1_554 S
C1274 N1273 1.351 . S
C1274 C1275 1.434 . S
C1275 C1266 1.429 . S
C1275 N1272 1.350 . S
C1275 C1274 1.434 . S
C1276 C1277 1.369 . S
C1276 C1278 1.419 1_545 S
C1276 H1280 0.930 . S
C1277 C1276 1.369 . S
C1277 C1286 1.429 . S
C1278 C1276 1.419 1_565 S
C1278 C1279 1.363 . S
C1278 H1281 0.929 . S
C1279 C1278 1.363 . S
C1279 C1285 1.428 . S
H1280 C1276 0.930 . S
H1281 C1278 0.929 . S
S1282 N1283 1.613 1_455 S
S1282 N1284 1.610 1_445 S
N1283 S1282 1.613 1_655 S
N1283 C1286 1.350 . S
N1284 S1282 1.610 1_665 S
N1284 C1285 1.351 . S
C1285 C1279 1.428 . S
C1285 N1284 1.351 . S
C1285 C1286 1.434 1_565 S
C1286 C1277 1.429 . S
C1286 N1283 1.350 . S
C1286 C1285 1.434 1_545 S
C1287 C1288 1.369 . S
C1287 C1289 1.419 . S
C1287 H1291 0.930 . S
C1288 C1287 1.369 . S
C1288 C1297 1.429 . S
C1289 C1287 1.419 . S
C1289 C1290 1.363 . S
C1289 H1292 0.929 . S
C1290 C1289 1.363 . S
C1290 C1296 1.428 . S
H1291 C1287 0.930 . S
H1292 C1289 0.929 . S
S1293 N1294 1.613 . S
S1293 N1295 1.610 . S
N1294 S1293 1.613 . S
N1294 C1297 1.350 . S
N1295 S1293 1.610 . S
N1295 C1296 1.351 . S
C1296 C1290 1.428 . S
C1296 N1295 1.351 . S
C1296 C1297 1.434 . S
C1297 C1288 1.429 . S
C1297 N1294 1.350 . S
C1297 C1296 1.434 . S
C1298 C1299 1.369 . S
C1298 C1300 1.419 1_545 S
C1298 H1302 0.930 . S
C1299 C1298 1.369 . S
C1299 C1308 1.429 . S
C1300 C1298 1.419 1_565 S
C1300 C1301 1.363 . S
C1300 H1303 0.929 . S
C1301 C1300 1.363 . S
C1301 C1307 1.428 . S
H1302 C1298 0.930 . S
H1303 C1300 0.929 . S
S1304 N1305 1.613 1_565 S
S1304 N1306 1.610 . S
N1305 S1304 1.613 1_545 S
N1305 C1308 1.350 . S
N1306 S1304 1.610 . S
N1306 C1307 1.351 . S
C1307 C1301 1.428 . S
C1307 N1306 1.351 . S
C1307 C1308 1.434 1_565 S
C1308 C1299 1.429 . S
C1308 N1305 1.350 . S
C1308 C1307 1.434 1_545 S
C1309 C1310 1.369 . S
C1309 C1311 1.419 . S
C1309 H1313 0.930 . S
C1310 C1309 1.369 . S
C1310 C1319 1.429 1_554 S
C1311 C1309 1.419 . S
C1311 C1312 1.363 1_554 S
C1311 H1314 0.929 . S
C1312 C1311 1.363 1_556 S
C1312 C1318 1.428 . S
H1313 C1309 0.930 . S
H1314 C1311 0.929 . S
S1315 N1316 1.613 . S
S1315 N1317 1.610 . S
N1316 S1315 1.613 . S
N1316 C1319 1.350 . S
N1317 S1315 1.610 . S
N1317 C1318 1.351 . S
C1318 C1312 1.428 . S
C1318 N1317 1.351 . S
C1318 C1319 1.434 . S
C1319 C1310 1.429 1_556 S
C1319 N1316 1.350 . S
C1319 C1318 1.434 . S
C1320 C1321 1.369 . S
C1320 C1322 1.419 . S
C1320 H1324 0.930 . S
C1321 C1320 1.369 . S
C1321 C1330 1.429 . S
C1322 C1320 1.419 . S
C1322 C1323 1.363 . S
C1322 H1325 0.929 . S
C1323 C1322 1.363 . S
C1323 C1329 1.428 . S
H1324 C1320 0.930 . S
H1325 C1322 0.929 . S
S1326 N1327 1.613 . S
S1326 N1328 1.610 . S
N1327 S1326 1.613 . S
N1327 C1330 1.350 . S
N1328 S1326 1.610 . S
N1328 C1329 1.351 . S
C1329 C1323 1.428 . S
C1329 N1328 1.351 . S
C1329 C1330 1.434 . S
C1330 C1321 1.429 . S
C1330 N1327 1.350 . S
C1330 C1329 1.434 . S
C1331 C1332 1.369 1_554 S
C1331 C1333 1.419 . S
C1331 H1335 0.930 . S
C1332 C1331 1.369 1_556 S
C1332 C1341 1.429 . S
C1333 C1331 1.419 . S
C1333 C1334 1.363 . S
C1333 H1336 0.929 . S
C1334 C1333 1.363 . S
C1334 C1340 1.428 1_554 S
H1335 C1331 0.930 . S
H1336 C1333 0.929 . S
S1337 N1338 1.613 . S
S1337 N1339 1.610 . S
N1338 S1337 1.613 . S
N1338 C1341 1.350 . S
N1339 S1337 1.610 . S
N1339 C1340 1.351 . S
C1340 C1334 1.428 1_556 S
C1340 N1339 1.351 . S
C1340 C1341 1.434 . S
C1341 C1332 1.429 . S
C1341 N1338 1.350 . S
C1341 C1340 1.434 . S
C1342 C1343 1.369 . S
C1342 C1344 1.419 . S
C1342 H1346 0.930 . S
C1343 C1342 1.369 . S
C1343 C1352 1.429 . S
C1344 C1342 1.419 . S
C1344 C1345 1.363 . S
C1344 H1347 0.929 . S
C1345 C1344 1.363 . S
C1345 C1351 1.428 . S
H1346 C1342 0.930 . S
H1347 C1344 0.929 . S
S1348 N1349 1.613 . S
S1348 N1350 1.610 . S
N1349 S1348 1.613 . S
N1349 C1352 1.350 . S
N1350 S1348 1.610 . S
N1350 C1351 1.351 . S
C1351 C1345 1.428 . S
C1351 N1350 1.351 . S
C1351 C1352 1.434 . S
C1352 C1343 1.429 . S
C1352 N1349 1.350 . S
C1352 C1351 1.434 . S
C1353 C1354 1.369 . S
C1353 C1355 1.419 . S
C1353 H1357 0.930 . S
C1354 C1353 1.369 . S
C1354 C1363 1.429 . S
C1355 C1353 1.419 . S
C1355 C1356 1.363 . S
C1355 H1358 0.929 . S
C1356 C1355 1.363 . S
C1356 C1362 1.428 . S
H1357 C1353 0.930 . S
H1358 C1355 0.929 . S
S1359 N1360 1.613 . S
S1359 N1361 1.610 . S
N1360 S1359 1.613 . S
N1360 C1363 1.350 . S
N1361 S1359 1.610 . S
N1361 C1362 1.351 . S
C1362 C1356 1.428 . S
C1362 N1361 1.351 . S
C1362 C1363 1.434 . S
C1363 C1354 1.429 . S
C1363 N1360 1.350 . S
C1363 C1362 1.434 . S
C1364 C1365 1.369 . S
C1364 C1366 1.419 . S
C1364 H1368 0.930 . S
C1365 C1364 1.369 . S
C1365 C1374 1.429 . S
C1366 C1364 1.419 . S
C1366 C1367 1.363 . S
C1366 H1369 0.929 . S
C1367 C1366 1.363 . S
C1367 C1373 1.428 . S
H1368 C1364 0.930 . S
H1369 C1366 0.929 . S
S1370 N1371 1.613 . S
S1370 N1372 1.610 . S
N1371 S1370 1.613 . S
N1371 C1374 1.350 . S
N1372 S1370 1.610 . S
N1372 C1373 1.351 . S
C1373 C1367 1.428 . S
C1373 N1372 1.351 . S
C1373 C1374 1.434 . S
C1374 C1365 1.429 . S
C1374 N1371 1.350 . S
C1374 C1373 1.434 . S
C1375 C1376 1.369 . S
C1375 C1377 1.419 . S
C1375 H1379 0.930 . S
C1376 C1375 1.369 . S
C1376 C1385 1.429 1_556 S
C1377 C1375 1.419 . S
C1377 C1378 1.363 1_556 S
C1377 H1380 0.929 . S
C1378 C1377 1.363 1_554 S
C1378 C1384 1.428 . S
H1379 C1375 0.930 . S
H1380 C1377 0.929 . S
S1381 N1382 1.613 . S
S1381 N1383 1.610 . S
N1382 S1381 1.613 . S
N1382 C1385 1.350 . S
N1383 S1381 1.610 . S
N1383 C1384 1.351 . S
C1384 C1378 1.428 . S
C1384 N1383 1.351 . S
C1384 C1385 1.434 . S
C1385 C1376 1.429 1_554 S
C1385 N1382 1.350 . S
C1385 C1384 1.434 . S
C1386 C1387 1.369 . S
C1386 C1388 1.419 . S
C1386 H1390 0.930 . S
C1387 C1386 1.369 . S
C1387 C1396 1.429 . S
C1388 C1386 1.419 . S
C1388 C1389 1.363 . S
C1388 H1391 0.929 . S
C1389 C1388 1.363 . S
C1389 C1395 1.428 . S
H1390 C1386 0.930 . S
H1391 C1388 0.929 . S
S1392 N1393 1.613 . S
S1392 N1394 1.610 . S
N1393 S1392 1.613 . S
N1393 C1396 1.350 . S
N1394 S1392 1.610 . S
N1394 C1395 1.351 . S
C1395 C1389 1.428 . S
C1395 N1394 1.351 . S
C1395 C1396 1.434 . S
C1396 C1387 1.429 . S
C1396 N1393 1.350 . S
C1396 C1395 1.434 . S
C1397 C1398 1.369 . S
C1397 C1399 1.419 . S
C1397 H1401 0.930 . S
C1398 C1397 1.369 . S
C1398 C1407 1.429 . S
C1399 C1397 1.419 . S
C1399 C1400 1.363 . S
C1399 H1402 0.929 . S
C1400 C1399 1.363 . S
C1400 C1406 1.428 . S
H1401 C1397 0.930 . S
H1402 C1399 0.929 . S
S1403 N1404 1.613 . S
S1403 N1405 1.610 . S
N1404 S1403 1.613 . S
N1404 C1407 1.350 . S
N1405 S1403 1.610 . S
N1405 C1406 1.351 . S
C1406 C1400 1.428 . S
C1406 N1405 1.351 . S
C1406 C1407 1.434 . S
C1407 C1398 1.429 . S
C1407 N1404 1.350 . S
C1407 C1406 1.434 . S
C1408 C1409 1.369 . S
C1408 C1410 1.419 . S
C1408 H1412 0.930 . S
C1409 C1408 1.369 . S
C1409 C1418 1.429 1_655 S
C1410 C1408 1.419 . S
C1410 C1411 1.363 1_655 S
C1410 H1413 0.929 . S
C1411 C1410 1.363 1_455 S
C1411 C1417 1.428 . S
H1412 C1408 0.930 . S
H1413 C1410 0.929 . S
S1414 N1415 1.613 . S
S1414 N1416 1.610 . S
N1415 S1414 1.613 . S
N1415 C1418 1.350 . S
N1416 S1414 1.610 . S
N1416 C1417 1.351 . S
C1417 C1411 1.428 . S
C1417 N1416 1.351 . S
C1417 C1418 1.434 . S
C1418 C1409 1.429 1_455 S
C1418 N1415 1.350 . S
C1418 C1417 1.434 . S
C1419 C1420 1.369 . S
C1419 C1421 1.419 1_455 S
C1419 H1423 0.930 . S
C1420 C1419 1.369 . S
C1420 C1429 1.429 . S
C1421 C1419 1.419 1_655 S
C1421 C1422 1.363 . S
C1421 H1424 0.929 . S
C1422 C1421 1.363 . S
C1422 C1428 1.428 . S
H1423 C1419 0.930 . S
H1424 C1421 0.929 . S
S1425 N1426 1.613 . S
S1425 N1427 1.610 1_455 S
N1426 S1425 1.613 . S
N1426 C1429 1.350 . S
N1427 S1425 1.610 1_655 S
N1427 C1428 1.351 . S
C1428 C1422 1.428 . S
C1428 N1427 1.351 . S
C1428 C1429 1.434 1_655 S
C1429 C1420 1.429 . S
C1429 N1426 1.350 . S
C1429 C1428 1.434 1_455 S
C1430 C1431 1.369 . S
C1430 C1432 1.419 . S
C1430 H1434 0.930 . S
C1431 C1430 1.369 . S
C1431 C1440 1.429 . S
C1432 C1430 1.419 . S
C1432 C1433 1.363 . S
C1432 H1435 0.929 . S
C1433 C1432 1.363 . S
C1433 C1439 1.428 . S
H1434 C1430 0.930 . S
H1435 C1432 0.929 . S
S1436 N1437 1.613 . S
S1436 N1438 1.610 . S
N1437 S1436 1.613 . S
N1437 C1440 1.350 . S
N1438 S1436 1.610 . S
N1438 C1439 1.351 . S
C1439 C1433 1.428 . S
C1439 N1438 1.351 . S
C1439 C1440 1.434 . S
C1440 C1431 1.429 . S
C1440 N1437 1.350 . S
C1440 C1439 1.434 . S
C1441 C1442 1.369 . S
C1441 C1443 1.419 . S
C1441 H1445 0.930 . S
C1442 C1441 1.369 . S
C1442 C1451 1.429 1_554 S
C1443 C1441 1.419 . S
C1443 C1444 1.363 . S
C1443 H1446 0.929 . S
C1444 C1443 1.363 . S
C1444 C1450 1.428 1_554 S
H1445 C1441 0.930 . S
H1446 C1443 0.929 . S
S1447 N1448 1.613 . S
S1447 N1449 1.610 . S
N1448 S1447 1.613 . S
N1448 C1451 1.350 . S
N1449 S1447 1.610 . S
N1449 C1450 1.351 . S
C1450 C1444 1.428 1_556 S
C1450 N1449 1.351 . S
C1450 C1451 1.434 . S
C1451 C1442 1.429 1_556 S
C1451 N1448 1.350 . S
C1451 C1450 1.434 . S
C1452 C1453 1.369 1_455 S
C1452 C1454 1.419 . S
C1452 H1456 0.930 . S
C1453 C1452 1.369 1_655 S
C1453 C1462 1.429 . S
C1454 C1452 1.419 . S
C1454 C1455 1.363 . S
C1454 H1457 0.929 . S
C1455 C1454 1.363 . S
C1455 C1461 1.428 1_455 S
H1456 C1452 0.930 . S
H1457 C1454 0.929 . S
S1458 N1459 1.613 . S
S1458 N1460 1.610 . S
N1459 S1458 1.613 . S
N1459 C1462 1.350 . S
N1460 S1458 1.610 . S
N1460 C1461 1.351 . S
C1461 C1455 1.428 1_655 S
C1461 N1460 1.351 . S
C1461 C1462 1.434 . S
C1462 C1453 1.429 . S
C1462 N1459 1.350 . S
C1462 C1461 1.434 . S
C1463 C1464 1.369 . S
C1463 C1465 1.419 . S
C1463 H1467 0.930 . S
C1464 C1463 1.369 . S
C1464 C1473 1.429 . S
C1465 C1463 1.419 . S
C1465 C1466 1.363 . S
C1465 H1468 0.929 . S
C1466 C1465 1.363 . S
C1466 C1472 1.428 . S
H1467 C1463 0.930 . S
H1468 C1465 0.929 . S
S1469 N1470 1.613 . S
S1469 N1471 1.610 . S
N1470 S1469 1.613 . S
N1470 C1473 1.350 . S
N1471 S1469 1.610 . S
N1471 C1472 1.351 . S
C1472 C1466 1.428 . S
C1472 N1471 1.351 . S
C1472 C1473 1.434 . S
C1473 C1464 1.429 . S
C1473 N1470 1.350 . S
C1473 C1472 1.434 . S
C1474 C1475 1.369 . S
C1474 C1476 1.419 . S
C1474 H1478 0.930 . S
C1475 C1474 1.369 . S
C1475 C1484 1.429 . S
C1476 C1474 1.419 . S
C1476 C1477 1.363 . S
C1476 H1479 0.929 . S
C1477 C1476 1.363 . S
C1477 C1483 1.428 . S
H1478 C1474 0.930 . S
H1479 C1476 0.929 . S
S1480 N1481 1.613 . S
S1480 N1482 1.610 . S
N1481 S1480 1.613 . S
N1481 C1484 1.350 . S
N1482 S1480 1.610 . S
N1482 C1483 1.351 . S
C1483 C1477 1.428 . S
C1483 N1482 1.351 . S
C1483 C1484 1.434 . S
C1484 C1475 1.429 . S
C1484 N1481 1.350 . S
C1484 C1483 1.434 . S
C1485 C1486 1.369 1_554 S
C1485 C1487 1.419 1_455 S
C1485 H1489 0.930 . S
C1486 C1485 1.369 1_556 S
C1486 C1495 1.429 . S
C1487 C1485 1.419 1_655 S
C1487 C1488 1.363 1_554 S
C1487 H1490 0.929 . S
C1488 C1487 1.363 1_556 S
C1488 C1494 1.428 . S
H1489 C1485 0.930 . S
H1490 C1487 0.929 . S
S1491 N1492 1.613 1_655 S
S1491 N1493 1.610 . S
N1492 S1491 1.613 1_455 S
N1492 C1495 1.350 . S
N1493 S1491 1.610 . S
N1493 C1494 1.351 . S
C1494 C1488 1.428 . S
C1494 N1493 1.351 . S
C1494 C1495 1.434 1_655 S
C1495 C1486 1.429 . S
C1495 N1492 1.350 . S
C1495 C1494 1.434 1_455 S
C1496 C1497 1.369 1_455 S
C1496 C1498 1.419 . S
C1496 H1500 0.930 . S
C1497 C1496 1.369 1_655 S
C1497 C1506 1.429 . S
C1498 C1496 1.419 . S
C1498 C1499 1.363 . S
C1498 H1501 0.929 . S
C1499 C1498 1.363 . S
C1499 C1505 1.428 1_455 S
H1500 C1496 0.930 . S
H1501 C1498 0.929 . S
S1502 N1503 1.613 . S
S1502 N1504 1.610 . S
N1503 S1502 1.613 . S
N1503 C1506 1.350 . S
N1504 S1502 1.610 . S
N1504 C1505 1.351 . S
C1505 C1499 1.428 1_655 S
C1505 N1504 1.351 . S
C1505 C1506 1.434 . S
C1506 C1497 1.429 . S
C1506 N1503 1.350 . S
C1506 C1505 1.434 . S
C1507 C1508 1.369 . S
C1507 C1509 1.419 1_655 S
C1507 H1511 0.930 . S
C1508 C1507 1.369 . S
C1508 C1517 1.429 . S
C1509 C1507 1.419 1_455 S
C1509 C1510 1.363 . S
C1509 H1512 0.929 . S
C1510 C1509 1.363 . S
C1510 C1516 1.428 . S
H1511 C1507 0.930 . S
H1512 C1509 0.929 . S
S1513 N1514 1.613 . S
S1513 N1515 1.610 1_655 S
N1514 S1513 1.613 . S
N1514 C1517 1.350 . S
N1515 S1513 1.610 1_455 S
N1515 C1516 1.351 . S
C1516 C1510 1.428 . S
C1516 N1515 1.351 . S
C1516 C1517 1.434 1_455 S
C1517 C1508 1.429 . S
C1517 N1514 1.350 . S
C1517 C1516 1.434 1_655 S
C1518 C1519 1.369 . S
C1518 C1520 1.419 . S
C1518 H1522 0.930 . S
C1519 C1518 1.369 . S
C1519 C1528 1.429 . S
C1520 C1518 1.419 . S
C1520 C1521 1.363 . S
C1520 H1523 0.929 . S
C1521 C1520 1.363 . S
C1521 C1527 1.428 . S
H1522 C1518 0.930 . S
H1523 C1520 0.929 . S
S1524 N1525 1.613 . S
S1524 N1526 1.610 . S
N1525 S1524 1.613 . S
N1525 C1528 1.350 . S
N1526 S1524 1.610 . S
N1526 C1527 1.351 . S
C1527 C1521 1.428 . S
C1527 N1526 1.351 . S
C1527 C1528 1.434 . S
C1528 C1519 1.429 . S
C1528 N1525 1.350 . S
C1528 C1527 1.434 . S
C1529 C1530 1.369 . S
C1529 C1531 1.419 . S
C1529 H1533 0.930 . S
C1530 C1529 1.369 . S
C1530 C1539 1.429 1_556 S
C1531 C1529 1.419 . S
C1531 C1532 1.363 . S
C1531 H1534 0.929 . S
C1532 C1531 1.363 . S
C1532 C1538 1.428 1_556 S
H1533 C1529 0.930 . S
H1534 C1531 0.929 . S
S1535 N1536 1.613 . S
S1535 N1537 1.610 . S
N1536 S1535 1.613 . S
N1536 C1539 1.350 . S
N1537 S1535 1.610 . S
N1537 C1538 1.351 . S
C1538 C1532 1.428 1_554 S
C1538 N1537 1.351 . S
C1538 C1539 1.434 . S
C1539 C1530 1.429 1_554 S
C1539 N1536 1.350 . S
C1539 C1538 1.434 . S
C1540 C1541 1.369 1_455 S
C1540 C1542 1.419 . S
C1540 H1544 0.930 . S
C1541 C1540 1.369 1_655 S
C1541 C1550 1.429 . S
C1542 C1540 1.419 . S
C1542 C1543 1.363 . S
C1542 H1545 0.929 . S
C1543 C1542 1.363 . S
C1543 C1549 1.428 1_455 S
H1544 C1540 0.930 . S
H1545 C1542 0.929 . S
S1546 N1547 1.613 . S
S1546 N1548 1.610 . S
N1547 S1546 1.613 . S
N1547 C1550 1.350 . S
N1548 S1546 1.610 . S
N1548 C1549 1.351 . S
C1549 C1543 1.428 1_655 S
C1549 N1548 1.351 . S
C1549 C1550 1.434 . S
C1550 C1541 1.429 . S
C1550 N1547 1.350 . S
C1550 C1549 1.434 . S
C1551 C1552 1.369 . S
C1551 C1553 1.419 . S
C1551 H1555 0.930 . S
C1552 C1551 1.369 . S
C1552 C1561 1.429 . S
C1553 C1551 1.419 . S
C1553 C1554 1.363 . S
C1553 H1556 0.929 . S
C1554 C1553 1.363 . S
C1554 C1560 1.428 . S
H1555 C1551 0.930 . S
H1556 C1553 0.929 . S
S1557 N1558 1.613 . S
S1557 N1559 1.610 . S
N1558 S1557 1.613 . S
N1558 C1561 1.350 . S
N1559 S1557 1.610 . S
N1559 C1560 1.351 . S
C1560 C1554 1.428 . S
C1560 N1559 1.351 . S
C1560 C1561 1.434 . S
C1561 C1552 1.429 . S
C1561 N1558 1.350 . S
C1561 C1560 1.434 . S
C1562 C1563 1.369 . S
C1562 C1564 1.419 . S
C1562 H1566 0.930 . S
C1563 C1562 1.369 . S
C1563 C1572 1.429 . S
C1564 C1562 1.419 . S
C1564 C1565 1.363 . S
C1564 H1567 0.929 . S
C1565 C1564 1.363 . S
C1565 C1571 1.428 . S
H1566 C1562 0.930 . S
H1567 C1564 0.929 . S
S1568 N1569 1.613 . S
S1568 N1570 1.610 . S
N1569 S1568 1.613 . S
N1569 C1572 1.350 . S
N1570 S1568 1.610 . S
N1570 C1571 1.351 . S
C1571 C1565 1.428 . S
C1571 N1570 1.351 . S
C1571 C1572 1.434 . S
C1572 C1563 1.429 . S
C1572 N1569 1.350 . S
C1572 C1571 1.434 . S
C1573 C1574 1.369 . S
C1573 C1575 1.419 1_455 S
C1573 H1577 0.930 . S
C1574 C1573 1.369 . S
C1574 C1583 1.425 1_554 S
C1575 C1573 1.419 1_655 S
C1575 C1576 1.363 . S
C1575 H1578 0.929 . S
C1576 C1575 1.363 . S
C1576 C1582 1.426 1_554 S
H1577 C1573 0.930 . S
H1578 C1575 0.929 . S
S1579 N1580 1.613 1_655 S
S1579 N1581 1.610 . S
N1580 S1579 1.613 1_455 S
N1580 C1583 1.355 . S
N1581 S1579 1.610 . S
N1581 C1582 1.354 . S
C1582 C1576 1.426 1_556 S
C1582 N1581 1.354 . S
C1582 C1583 1.434 1_655 S
C1583 C1574 1.425 1_556 S
C1583 N1580 1.355 . S
C1583 C1582 1.434 1_455 S
C1584 C1585 1.369 . S
C1584 C1586 1.419 . S
C1584 H1588 0.930 . S
C1585 C1584 1.369 . S
C1585 C1594 1.429 . S
C1586 C1584 1.419 . S
C1586 C1587 1.363 . S
C1586 H1589 0.929 . S
C1587 C1586 1.363 . S
C1587 C1593 1.428 . S
H1588 C1584 0.930 . S
H1589 C1586 0.929 . S
S1590 N1591 1.613 . S
S1590 N1592 1.610 . S
N1591 S1590 1.613 . S
N1591 C1594 1.350 . S
N1592 S1590 1.610 . S
N1592 C1593 1.351 . S
C1593 C1587 1.428 . S
C1593 N1592 1.351 . S
C1593 C1594 1.434 . S
C1594 C1585 1.429 . S
C1594 N1591 1.350 . S
C1594 C1593 1.434 . S
C1595 C1596 1.369 . S
C1595 C1597 1.419 . S
C1595 H1599 0.930 . S
C1596 C1595 1.369 . S
C1596 C1605 1.429 . S
C1597 C1595 1.419 . S
C1597 C1598 1.363 . S
C1597 H1600 0.929 . S
C1598 C1597 1.363 . S
C1598 C1604 1.428 . S
H1599 C1595 0.930 . S
H1600 C1597 0.929 . S
S1601 N1602 1.613 . S
S1601 N1603 1.610 . S
N1602 S1601 1.613 . S
N1602 C1605 1.350 . S
N1603 S1601 1.610 . S
N1603 C1604 1.351 . S
C1604 C1598 1.428 . S
C1604 N1603 1.351 . S
C1604 C1605 1.434 . S
C1605 C1596 1.429 . S
C1605 N1602 1.350 . S
C1605 C1604 1.434 . S
C1606 C1607 1.369 . S
C1606 C1608 1.419 . S
C1606 H1610 0.930 . S
C1607 C1606 1.369 . S
C1607 C1616 1.429 . S
C1608 C1606 1.419 . S
C1608 C1609 1.363 . S
C1608 H1611 0.929 . S
C1609 C1608 1.363 . S
C1609 C1615 1.428 . S
H1610 C1606 0.930 . S
H1611 C1608 0.929 . S
S1612 N1613 1.613 . S
S1612 N1614 1.610 . S
N1613 S1612 1.613 . S
N1613 C1616 1.350 . S
N1614 S1612 1.610 . S
N1614 C1615 1.351 . S
C1615 C1609 1.428 . S
C1615 N1614 1.351 . S
C1615 C1616 1.434 . S
C1616 C1607 1.429 . S
C1616 N1613 1.350 . S
C1616 C1615 1.434 . S
C1617 C1618 1.369 . S
C1617 C1619 1.419 . S
C1617 H1621 0.930 . S
C1618 C1617 1.369 . S
C1618 C1627 1.429 . S
C1619 C1617 1.419 . S
C1619 C1620 1.363 . S
C1619 H1622 0.929 . S
C1620 C1619 1.363 . S
C1620 C1626 1.428 . S
H1621 C1617 0.930 . S
H1622 C1619 0.929 . S
S1623 N1624 1.613 . S
S1623 N1625 1.610 . S
N1624 S1623 1.613 . S
N1624 C1627 1.350 . S
N1625 S1623 1.610 . S
N1625 C1626 1.351 . S
C1626 C1620 1.428 . S
C1626 N1625 1.351 . S
C1626 C1627 1.434 . S
C1627 C1618 1.429 . S
C1627 N1624 1.350 . S
C1627 C1626 1.434 . S
C1628 C1629 1.369 . S
C1628 C1630 1.419 . S
C1628 H1632 0.930 . S
C1629 C1628 1.369 . S
C1629 C1638 1.429 . S
C1630 C1628 1.419 . S
C1630 C1631 1.363 . S
C1630 H1633 0.929 . S
C1631 C1630 1.363 . S
C1631 C1637 1.428 . S
H1632 C1628 0.930 . S
H1633 C1630 0.929 . S
S1634 N1635 1.613 . S
S1634 N1636 1.610 . S
N1635 S1634 1.613 . S
N1635 C1638 1.350 . S
N1636 S1634 1.610 . S
N1636 C1637 1.351 . S
C1637 C1631 1.428 . S
C1637 N1636 1.351 . S
C1637 C1638 1.434 . S
C1638 C1629 1.429 . S
C1638 N1635 1.350 . S
C1638 C1637 1.434 . S
C1639 C1640 1.369 . S
C1639 C1641 1.419 . S
C1639 H1643 0.930 . S
C1640 C1639 1.369 . S
C1640 C1649 1.429 . S
C1641 C1639 1.419 . S
C1641 C1642 1.363 . S
C1641 H1644 0.929 . S
C1642 C1641 1.363 . S
C1642 C1648 1.428 . S
H1643 C1639 0.930 . S
H1644 C1641 0.929 . S
S1645 N1646 1.613 . S
S1645 N1647 1.610 . S
N1646 S1645 1.613 . S
N1646 C1649 1.350 . S
N1647 S1645 1.610 . S
N1647 C1648 1.351 . S
C1648 C1642 1.428 . S
C1648 N1647 1.351 . S
C1648 C1649 1.434 . S
C1649 C1640 1.429 . S
C1649 N1646 1.350 . S
C1649 C1648 1.434 . S
C1650 C1651 1.369 . S
C1650 C1652 1.419 . S
C1650 H1654 0.930 . S
C1651 C1650 1.369 . S
C1651 C1660 1.429 . S
C1652 C1650 1.419 . S
C1652 C1653 1.363 . S
C1652 H1655 0.929 . S
C1653 C1652 1.363 . S
C1653 C1659 1.428 . S
H1654 C1650 0.930 . S
H1655 C1652 0.929 . S
S1656 N1657 1.613 . S
S1656 N1658 1.610 . S
N1657 S1656 1.613 . S
N1657 C1660 1.350 . S
N1658 S1656 1.610 . S
N1658 C1659 1.351 . S
C1659 C1653 1.428 . S
C1659 N1658 1.351 . S
C1659 C1660 1.434 . S
C1660 C1651 1.429 . S
C1660 N1657 1.350 . S
C1660 C1659 1.434 . S
C1661 C1662 1.369 . S
C1661 C1663 1.419 . S
C1661 H1665 0.930 . S
C1662 C1661 1.369 . S
C1662 C1671 1.429 . S
C1663 C1661 1.419 . S
C1663 C1664 1.363 . S
C1663 H1666 0.929 . S
C1664 C1663 1.363 . S
C1664 C1670 1.428 . S
H1665 C1661 0.930 . S
H1666 C1663 0.929 . S
S1667 N1668 1.613 . S
S1667 N1669 1.610 1_655 S
N1668 S1667 1.613 . S
N1668 C1671 1.350 1_655 S
N1669 S1667 1.610 1_455 S
N1669 C1670 1.351 . S
C1670 C1664 1.428 . S
C1670 N1669 1.351 . S
C1670 C1671 1.434 . S
C1671 C1662 1.429 . S
C1671 N1668 1.350 1_455 S
C1671 C1670 1.434 . S
C1672 C1673 1.369 . S
C1672 C1674 1.419 . S
C1672 H1676 0.930 . S
C1673 C1672 1.369 . S
C1673 C1682 1.429 . S
C1674 C1672 1.419 . S
C1674 C1675 1.363 . S
C1674 H1677 0.929 . S
C1675 C1674 1.363 . S
C1675 C1681 1.428 . S
H1676 C1672 0.930 . S
H1677 C1674 0.929 . S
S1678 N1679 1.613 . S
S1678 N1680 1.610 . S
N1679 S1678 1.613 . S
N1679 C1682 1.350 . S
N1680 S1678 1.610 . S
N1680 C1681 1.351 . S
C1681 C1675 1.428 . S
C1681 N1680 1.351 . S
C1681 C1682 1.434 . S
C1682 C1673 1.429 . S
C1682 N1679 1.350 . S
C1682 C1681 1.434 . S
C1683 C1684 1.369 . S
C1683 C1685 1.419 . S
C1683 H1687 0.930 . S
C1684 C1683 1.369 . S
C1684 C1693 1.429 . S
C1685 C1683 1.419 . S
C1685 C1686 1.363 . S
C1685 H1688 0.929 . S
C1686 C1685 1.363 . S
C1686 C1692 1.428 . S
H1687 C1683 0.930 . S
H1688 C1685 0.929 . S
S1689 N1690 1.608 1_455 S
S1689 N1691 1.611 . S
N1690 S1689 1.608 1_655 S
N1690 C1693 1.350 . S
N1691 S1689 1.611 . S
N1691 C1692 1.351 1_455 S
C1692 C1686 1.428 . S
C1692 N1691 1.351 1_655 S
C1692 C1693 1.434 . S
C1693 C1684 1.429 . S
C1693 N1690 1.350 . S
C1693 C1692 1.434 . S
C1694 C1695 1.369 . S
C1694 C1696 1.419 . S
C1694 H1698 0.930 . S
C1695 C1694 1.369 . S
C1695 C1704 1.429 . S
C1696 C1694 1.419 . S
C1696 C1697 1.363 . S
C1696 H1699 0.929 . S
C1697 C1696 1.363 . S
C1697 C1703 1.428 . S
H1698 C1694 0.930 . S
H1699 C1696 0.929 . S
S1700 N1701 1.613 . S
S1700 N1702 1.610 . S
N1701 S1700 1.613 . S
N1701 C1704 1.350 . S
N1702 S1700 1.610 . S
N1702 C1703 1.351 . S
C1703 C1697 1.428 . S
C1703 N1702 1.351 . S
C1703 C1704 1.434 . S
C1704 C1695 1.429 . S
C1704 N1701 1.350 . S
C1704 C1703 1.434 . S
C1705 C1706 1.369 . S
C1705 C1707 1.419 . S
C1705 H1709 0.930 . S
C1706 C1705 1.369 . S
C1706 C1715 1.429 . S
C1707 C1705 1.419 . S
C1707 C1708 1.363 . S
C1707 H1710 0.929 . S
C1708 C1707 1.363 . S
C1708 C1714 1.428 . S
H1709 C1705 0.930 . S
H1710 C1707 0.929 . S
S1711 N1712 1.613 . S
S1711 N1713 1.610 . S
N1712 S1711 1.613 . S
N1712 C1715 1.350 . S
N1713 S1711 1.610 . S
N1713 C1714 1.351 . S
C1714 C1708 1.428 . S
C1714 N1713 1.351 . S
C1714 C1715 1.434 . S
C1715 C1706 1.429 . S
C1715 N1712 1.350 . S
C1715 C1714 1.434 . S
C1716 C1717 1.369 . S
C1716 C1718 1.419 . S
C1716 H1720 0.930 . S
C1717 C1716 1.369 . S
C1717 C1726 1.429 . S
C1718 C1716 1.419 . S
C1718 C1719 1.363 . S
C1718 H1721 0.929 . S
C1719 C1718 1.363 . S
C1719 C1725 1.428 . S
H1720 C1716 0.930 . S
H1721 C1718 0.929 . S
S1722 N1723 1.613 . S
S1722 N1724 1.610 . S
N1723 S1722 1.613 . S
N1723 C1726 1.350 . S
N1724 S1722 1.610 . S
N1724 C1725 1.351 . S
C1725 C1719 1.428 . S
C1725 N1724 1.351 . S
C1725 C1726 1.434 . S
C1726 C1717 1.429 . S
C1726 N1723 1.350 . S
C1726 C1725 1.434 . S
C1727 C1728 1.369 . S
C1727 C1729 1.419 . S
C1727 H1731 0.930 . S
C1728 C1727 1.369 . S
C1728 C1737 1.429 . S
C1729 C1727 1.419 . S
C1729 C1730 1.363 . S
C1729 H1732 0.929 . S
C1730 C1729 1.363 . S
C1730 C1736 1.428 . S
H1731 C1727 0.930 . S
H1732 C1729 0.929 . S
S1733 N1734 1.613 . S
S1733 N1735 1.610 . S
N1734 S1733 1.613 . S
N1734 C1737 1.350 . S
N1735 S1733 1.610 . S
N1735 C1736 1.351 . S
C1736 C1730 1.428 . S
C1736 N1735 1.351 . S
C1736 C1737 1.434 . S
C1737 C1728 1.429 . S
C1737 N1734 1.350 . S
C1737 C1736 1.434 . S
C1738 C1739 1.369 . S
C1738 C1740 1.419 . S
C1738 H1742 0.930 . S
C1739 C1738 1.369 . S
C1739 C1748 1.429 . S
C1740 C1738 1.419 . S
C1740 C1741 1.363 . S
C1740 H1743 0.929 . S
C1741 C1740 1.363 . S
C1741 C1747 1.428 . S
H1742 C1738 0.930 . S
H1743 C1740 0.929 . S
S1744 N1745 1.613 . S
S1744 N1746 1.610 . S
N1745 S1744 1.613 . S
N1745 C1748 1.350 . S
N1746 S1744 1.610 . S
N1746 C1747 1.351 . S
C1747 C1741 1.428 . S
C1747 N1746 1.351 . S
C1747 C1748 1.434 . S
C1748 C1739 1.429 . S
C1748 N1745 1.350 . S
C1748 C1747 1.434 . S
C1749 C1750 1.369 . S
C1749 C1751 1.419 . S
C1749 H1753 0.930 . S
C1750 C1749 1.369 . S
C1750 C1759 1.429 . S
C1751 C1749 1.419 . S
C1751 C1752 1.363 . S
C1751 H1754 0.929 . S
C1752 C1751 1.363 . S
C1752 C1758 1.428 . S
H1753 C1749 0.930 . S
H1754 C1751 0.929 . S
S1755 N1756 1.613 . S
S1755 N1757 1.610 . S
N1756 S1755 1.613 . S
N1756 C1759 1.350 . S
N1757 S1755 1.610 . S
N1757 C1758 1.351 . S
C1758 C1752 1.428 . S
C1758 N1757 1.351 . S
C1758 C1759 1.434 . S
C1759 C1750 1.429 . S
C1759 N1756 1.350 . S
C1759 C1758 1.434 . S
C1760 C1761 1.369 . S
C1760 C1762 1.419 . S
C1760 H1764 0.930 . S
C1761 C1760 1.369 . S
C1761 C1770 1.429 . S
C1762 C1760 1.419 . S
C1762 C1763 1.363 . S
C1762 H1765 0.929 . S
C1763 C1762 1.363 . S
C1763 C1769 1.428 . S
H1764 C1760 0.930 . S
H1765 C1762 0.929 . S
S1766 N1767 1.613 . S
S1766 N1768 1.610 . S
N1767 S1766 1.613 . S
N1767 C1770 1.350 . S
N1768 S1766 1.610 . S
N1768 C1769 1.351 . S
C1769 C1763 1.428 . S
C1769 N1768 1.351 . S
C1769 C1770 1.434 . S
C1770 C1761 1.429 . S
C1770 N1767 1.350 . S
C1770 C1769 1.434 . S
C1771 C1772 1.369 . S
C1771 C1773 1.419 . S
C1771 H1775 0.930 . S
C1772 C1771 1.369 . S
C1772 C1781 1.429 . S
C1773 C1771 1.419 . S
C1773 C1774 1.363 . S
C1773 H1776 0.929 . S
C1774 C1773 1.363 . S
C1774 C1780 1.428 . S
H1775 C1771 0.930 . S
H1776 C1773 0.929 . S
S1777 N1778 1.613 . S
S1777 N1779 1.610 . S
N1778 S1777 1.613 . S
N1778 C1781 1.350 . S
N1779 S1777 1.610 . S
N1779 C1780 1.351 . S
C1780 C1774 1.428 . S
C1780 N1779 1.351 . S
C1780 C1781 1.434 . S
C1781 C1772 1.429 . S
C1781 N1778 1.350 . S
C1781 C1780 1.434 . S
C1782 C1783 1.369 . S
C1782 C1784 1.419 . S
C1782 H1786 0.930 . S
C1783 C1782 1.369 . S
C1783 C1792 1.429 . S
C1784 C1782 1.419 . S
C1784 C1785 1.363 . S
C1784 H1787 0.929 . S
C1785 C1784 1.363 . S
C1785 C1791 1.428 . S
H1786 C1782 0.930 . S
H1787 C1784 0.929 . S
S1788 N1789 1.613 . S
S1788 N1790 1.610 . S
N1789 S1788 1.613 . S
N1789 C1792 1.350 . S
N1790 S1788 1.610 . S
N1790 C1791 1.351 . S
C1791 C1785 1.428 . S
C1791 N1790 1.351 . S
C1791 C1792 1.434 . S
C1792 C1783 1.429 . S
C1792 N1789 1.350 . S
C1792 C1791 1.434 . S
C1793 C1794 1.369 . S
C1793 C1795 1.419 . S
C1793 H1797 0.930 . S
C1794 C1793 1.369 . S
C1794 C1803 1.429 . S
C1795 C1793 1.419 . S
C1795 C1796 1.363 . S
C1795 H1798 0.929 . S
C1796 C1795 1.363 . S
C1796 C1802 1.428 . S
H1797 C1793 0.930 . S
H1798 C1795 0.929 . S
S1799 N1800 1.613 . S
S1799 N1801 1.610 . S
N1800 S1799 1.613 . S
N1800 C1803 1.350 . S
N1801 S1799 1.610 . S
N1801 C1802 1.351 . S
C1802 C1796 1.428 . S
C1802 N1801 1.351 . S
C1802 C1803 1.434 . S
C1803 C1794 1.429 . S
C1803 N1800 1.350 . S
C1803 C1802 1.434 . S
C1804 C1805 1.369 . S
C1804 C1806 1.419 . S
C1804 H1808 0.930 . S
C1805 C1804 1.369 . S
C1805 C1814 1.429 . S
C1806 C1804 1.419 . S
C1806 C1807 1.363 . S
C1806 H1809 0.929 . S
C1807 C1806 1.363 . S
C1807 C1813 1.428 . S
H1808 C1804 0.930 . S
H1809 C1806 0.929 . S
S1810 N1811 1.613 . S
S1810 N1812 1.610 . S
N1811 S1810 1.613 . S
N1811 C1814 1.350 . S
N1812 S1810 1.610 . S
N1812 C1813 1.351 . S
C1813 C1807 1.428 . S
C1813 N1812 1.351 . S
C1813 C1814 1.434 . S
C1814 C1805 1.429 . S
C1814 N1811 1.350 . S
C1814 C1813 1.434 . S
C1815 C1816 1.369 . S
C1815 C1817 1.419 . S
C1815 H1819 0.930 . S
C1816 C1815 1.369 . S
C1816 C1825 1.429 . S
C1817 C1815 1.419 . S
C1817 C1818 1.363 . S
C1817 H1820 0.929 . S
C1818 C1817 1.363 . S
C1818 C1824 1.428 . S
H1819 C1815 0.930 . S
H1820 C1817 0.929 . S
S1821 N1822 1.613 1_455 S
S1821 N1823 1.610 . S
N1822 S1821 1.613 1_655 S
N1822 C1825 1.350 . S
N1823 S1821 1.610 . S
N1823 C1824 1.351 1_455 S
C1824 C1818 1.428 . S
C1824 N1823 1.351 1_655 S
C1824 C1825 1.434 . S
C1825 C1816 1.429 . S
C1825 N1822 1.350 . S
C1825 C1824 1.434 . S
C1826 C1827 1.369 . S
C1826 C1828 1.419 . S
C1826 H1830 0.930 . S
C1827 C1826 1.369 . S
C1827 C1836 1.429 . S
C1828 C1826 1.419 . S
C1828 C1829 1.363 . S
C1828 H1831 0.929 . S
C1829 C1828 1.363 . S
C1829 C1835 1.428 . S
H1830 C1826 0.930 . S
H1831 C1828 0.929 . S
S1832 N1833 1.613 . S
S1832 N1834 1.610 . S
N1833 S1832 1.613 . S
N1833 C1836 1.350 . S
N1834 S1832 1.610 . S
N1834 C1835 1.351 . S
C1835 C1829 1.428 . S
C1835 N1834 1.351 . S
C1835 C1836 1.434 . S
C1836 C1827 1.429 . S
C1836 N1833 1.350 . S
C1836 C1835 1.434 . S
C1837 C1838 1.369 . S
C1837 C1839 1.419 . S
C1837 H1841 0.930 . S
C1838 C1837 1.369 . S
C1838 C1847 1.429 . S
C1839 C1837 1.419 . S
C1839 C1840 1.363 . S
C1839 H1842 0.929 . S
C1840 C1839 1.363 . S
C1840 C1846 1.428 . S
H1841 C1837 0.930 . S
H1842 C1839 0.929 . S
S1843 N1844 1.613 . S
S1843 N1845 1.610 . S
N1844 S1843 1.613 . S
N1844 C1847 1.350 . S
N1845 S1843 1.610 . S
N1845 C1846 1.351 . S
C1846 C1840 1.428 . S
C1846 N1845 1.351 . S
C1846 C1847 1.434 . S
C1847 C1838 1.429 . S
C1847 N1844 1.350 . S
C1847 C1846 1.434 . S
C1848 C1849 1.369 . S
C1848 C1850 1.419 . S
C1848 H1852 0.930 . S
C1849 C1848 1.369 . S
C1849 C1858 1.429 . S
C1850 C1848 1.419 . S
C1850 C1851 1.363 . S
C1850 H1853 0.929 . S
C1851 C1850 1.363 . S
C1851 C1857 1.428 . S
H1852 C1848 0.930 . S
H1853 C1850 0.929 . S
S1854 N1855 1.613 . S
S1854 N1856 1.610 . S
N1855 S1854 1.613 . S
N1855 C1858 1.350 . S
N1856 S1854 1.610 . S
N1856 C1857 1.351 . S
C1857 C1851 1.428 . S
C1857 N1856 1.351 . S
C1857 C1858 1.434 . S
C1858 C1849 1.429 . S
C1858 N1855 1.350 . S
C1858 C1857 1.434 . S
C1859 C1860 1.369 . S
C1859 C1861 1.419 . S
C1859 H1863 0.930 . S
C1860 C1859 1.369 . S
C1860 C1869 1.429 . S
C1861 C1859 1.419 . S
C1861 C1862 1.363 . S
C1861 H1864 0.929 . S
C1862 C1861 1.363 . S
C1862 C1868 1.428 . S
H1863 C1859 0.930 . S
H1864 C1861 0.929 . S
S1865 N1866 1.613 . S
S1865 N1867 1.610 . S
N1866 S1865 1.613 . S
N1866 C1869 1.350 . S
N1867 S1865 1.610 . S
N1867 C1868 1.351 . S
C1868 C1862 1.428 . S
C1868 N1867 1.351 . S
C1868 C1869 1.434 . S
C1869 C1860 1.429 . S
C1869 N1866 1.350 . S
C1869 C1868 1.434 . S
C1870 C1871 1.369 . S
C1870 C1872 1.419 . S
C1870 H1874 0.930 . S
C1871 C1870 1.369 . S
C1871 C1880 1.429 . S
C1872 C1870 1.419 . S
C1872 C1873 1.363 . S
C1872 H1875 0.929 . S
C1873 C1872 1.363 . S
C1873 C1879 1.428 . S
H1874 C1870 0.930 . S
H1875 C1872 0.929 . S
S1876 N1877 1.613 . S
S1876 N1878 1.610 . S
N1877 S1876 1.613 . S
N1877 C1880 1.350 . S
N1878 S1876 1.610 . S
N1878 C1879 1.351 . S
C1879 C1873 1.428 . S
C1879 N1878 1.351 . S
C1879 C1880 1.434 . S
C1880 C1871 1.429 . S
C1880 N1877 1.350 . S
C1880 C1879 1.434 . S
C1881 C1882 1.369 . S
C1881 C1883 1.419 . S
C1881 H1885 0.930 . S
C1882 C1881 1.369 . S
C1882 C1891 1.429 . S
C1883 C1881 1.419 . S
C1883 C1884 1.363 . S
C1883 H1886 0.929 . S
C1884 C1883 1.363 . S
C1884 C1890 1.428 . S
H1885 C1881 0.930 . S
H1886 C1883 0.929 . S
S1887 N1888 1.613 . S
S1887 N1889 1.610 . S
N1888 S1887 1.613 . S
N1888 C1891 1.350 . S
N1889 S1887 1.610 . S
N1889 C1890 1.351 . S
C1890 C1884 1.428 . S
C1890 N1889 1.351 . S
C1890 C1891 1.434 . S
C1891 C1882 1.429 . S
C1891 N1888 1.350 . S
C1891 C1890 1.434 . S
C1892 C1893 1.369 . S
C1892 C1894 1.419 . S
C1892 H1896 0.930 . S
C1893 C1892 1.369 . S
C1893 C1902 1.429 . S
C1894 C1892 1.419 . S
C1894 C1895 1.363 . S
C1894 H1897 0.929 . S
C1895 C1894 1.363 . S
C1895 C1901 1.428 . S
H1896 C1892 0.930 . S
H1897 C1894 0.929 . S
S1898 N1899 1.613 . S
S1898 N1900 1.610 . S
N1899 S1898 1.613 . S
N1899 C1902 1.350 . S
N1900 S1898 1.610 . S
N1900 C1901 1.351 . S
C1901 C1895 1.428 . S
C1901 N1900 1.351 . S
C1901 C1902 1.434 . S
C1902 C1893 1.429 . S
C1902 N1899 1.350 . S
C1902 C1901 1.434 . S
C1903 C1904 1.369 . S
C1903 C1905 1.419 . S
C1903 H1907 0.930 . S
C1904 C1903 1.369 . S
C1904 C1913 1.429 . S
C1905 C1903 1.419 . S
C1905 C1906 1.363 . S
C1905 H1908 0.929 . S
C1906 C1905 1.363 . S
C1906 C1912 1.428 . S
H1907 C1903 0.930 . S
H1908 C1905 0.929 . S
S1909 N1910 1.613 . S
S1909 N1911 1.610 . S
N1910 S1909 1.613 . S
N1910 C1913 1.350 . S
N1911 S1909 1.610 . S
N1911 C1912 1.351 . S
C1912 C1906 1.428 . S
C1912 N1911 1.351 . S
C1912 C1913 1.434 . S
C1913 C1904 1.429 . S
C1913 N1910 1.350 . S
C1913 C1912 1.434 . S
C1914 C1915 1.369 . S
C1914 C1916 1.419 . S
C1914 H1918 0.930 . S
C1915 C1914 1.369 . S
C1915 C1924 1.429 . S
C1916 C1914 1.419 . S
C1916 C1917 1.363 . S
C1916 H1919 0.929 . S
C1917 C1916 1.363 . S
C1917 C1923 1.428 . S
H1918 C1914 0.930 . S
H1919 C1916 0.929 . S
S1920 N1921 1.613 . S
S1920 N1922 1.610 . S
N1921 S1920 1.613 . S
N1921 C1924 1.350 . S
N1922 S1920 1.610 . S
N1922 C1923 1.351 . S
C1923 C1917 1.428 . S
C1923 N1922 1.351 . S
C1923 C1924 1.434 . S
C1924 C1915 1.429 . S
C1924 N1921 1.350 . S
C1924 C1923 1.434 . S
C1925 C1926 1.369 . S
C1925 C1927 1.419 . S
C1925 H1929 0.930 . S
C1926 C1925 1.369 . S
C1926 C1935 1.429 . S
C1927 C1925 1.419 . S
C1927 C1928 1.363 . S
C1927 H1930 0.929 . S
C1928 C1927 1.363 . S
C1928 C1934 1.428 . S
H1929 C1925 0.930 . S
H1930 C1927 0.929 . S
S1931 N1932 1.613 . S
S1931 N1933 1.610 . S
N1932 S1931 1.613 . S
N1932 C1935 1.350 . S
N1933 S1931 1.610 . S
N1933 C1934 1.351 . S
C1934 C1928 1.428 . S
C1934 N1933 1.351 . S
C1934 C1935 1.434 . S
C1935 C1926 1.429 . S
C1935 N1932 1.350 . S
C1935 C1934 1.434 . S
C1057 N244 1.781 . S
C1059 N13 1.782 . S
C1068 N46 1.790 . S
C1070 N145 1.788 . S
C1079 N79 1.786 . S
C1081 N178 1.788 . S
C1090 N211 1.790 . S
C1092 N112 1.790 . S
C1101 N508 1.790 . S
C1103 N277 1.787 . S
C1112 N409 1.783 . S
C1114 N310 1.787 . S
C1123 N343 1.781 . S
C1125 N442 1.782 . S
C1134 N376 1.781 . S
C1136 N475 1.785 . S
C1145 N772 1.791 . S
C1147 N541 1.788 . S
C1156 N574 1.781 . S
C1158 N673 1.782 . S
C1167 N607 1.787 . S
C1169 N706 1.784 . S
C1178 N739 1.786 . S
C1180 N640 1.788 . S
C1189 N1036 1.784 . S
C1191 N805 1.787 . S
C1200 N838 1.790 . S
C1202 N937 1.789 . S
C1211 N970 1.781 . S
C1213 N871 1.783 . S
C1222 N1003 1.782 . S
C1224 N904 1.782 . S
C1233 C150 1.084 . S
C1235 C18 1.080 . S
C1244 C51 1.084 . S
C1246 C183 1.082 . S
C1255 C216 1.080 . S
C1257 C84 1.084 . S
C1266 C117 1.081 . S
C1268 C249 1.082 . S
C1277 C414 1.084 . S
C1279 C282 1.081 . S
C1288 C315 1.081 . S
C1290 C447 1.082 . S
C1299 C348 1.079 . S
C1301 C480 1.083 . S
C1310 C513 1.084 . S
C1312 C381 1.080 . S
C1321 C678 1.079 . S
C1323 C546 1.084 . S
C1332 C711 1.079 . S
C1334 C579 1.083 . S
C1343 C744 1.079 . S
C1345 C612 1.084 . S
C1354 C777 1.083 . S
C1356 C645 1.083 . S
C1365 C942 1.084 . S
C1367 C810 1.080 . S
C1376 C843 1.082 . S
C1378 C975 1.080 . S
C1387 C1008 1.079 . S
C1389 C876 1.083 . S
C1398 C1041 1.083 . S
C1400 C909 1.083 . S
C1409 C601 1.405 . S
C1411 C7 1.401 . S
C1420 C40 1.407 . S
C1422 C634 1.399 . S
C1431 C73 1.406 . S
C1433 C535 1.395 . S
C1442 C106 1.395 . S
C1444 C568 1.405 . S
C1453 C733 1.394 . S
C1455 C139 1.404 . S
C1464 C766 1.405 . S
C1466 C172 1.401 . S
C1475 C205 1.407 . S
C1477 C667 1.397 . S
C1486 C238 1.393 . S
C1488 C700 1.402 . S
C1497 C271 1.402 . S
C1499 C865 1.404 . S
C1508 C304 1.407 . S
C1510 C898 1.399 . S
C1519 C799 1.394 . S
C1521 C337 1.404 . S
C1530 C370 1.399 . S
C1532 C832 1.405 . S
C1541 C403 1.393 . S
C1543 C997 1.401 . S
C1552 C1030 1.402 . S
C1554 C436 1.404 . S
C1563 C469 1.404 . S
C1565 C931 1.395 . S
C1574 C964 1.398 . S
C1576 C502 1.405 . S
C1585 N893 1.093 . S
C1587 C21 0.979 . S
C1596 C54 0.970 . S
C1598 N266 1.097 . S
C1607 C87 0.985 . S
C1609 N827 1.089 . S
C1618 N332 1.087 . S
C1620 C120 0.987 . S
C1629 N959 1.083 . S
C1631 C153 0.991 . S
C1640 C186 0.993 . S
C1642 N464 1.086 . S
C1651 N1025 1.094 . S
C1653 C219 0.979 . S
C1662 N398 1.090 . S
C1664 C252 0.983 . S
C1673 C285 0.972 . S
C1675 N629 1.096 . S
C1684 C318 0.989 . S
C1686 N2 1.088 . S
C1695 N563 1.084 . S
C1697 C351 0.990 . S
C1706 C384 0.990 . S
C1708 N68 1.087 . S
C1717 C417 0.994 . S
C1719 N695 1.085 . S
C1728 C450 0.981 . S
C1730 N200 1.091 . S
C1739 C483 0.974 . S
C1741 N761 1.095 . S
C1750 N134 1.085 . S
C1752 C516 0.990 . S
C1761 C549 0.979 . S
C1763 N365 1.093 . S
C1772 N794 1.098 . S
C1774 C582 0.973 . S
C1783 N299 1.086 . S
C1785 C615 0.989 . S
C1794 N860 1.084 . S
C1796 C648 0.991 . S
C1805 C681 0.992 . S
C1807 N431 1.087 . S
C1816 C714 0.985 . S
C1818 N992 1.090 . S
C1827 N497 1.089 . S
C1829 C747 0.983 . S
C1838 C780 0.970 . S
C1840 N926 1.097 . S
C1849 C813 0.970 . S
C1851 N101 1.096 . S
C1860 N530 1.086 . S
C1862 C846 0.988 . S
C1871 C879 0.972 . S
C1873 N35 1.096 . S
C1882 C912 0.971 . S
C1884 N596 1.097 . S
C1893 C945 0.972 . S
C1895 N167 1.096 . S
C1904 N728 1.084 . S
C1906 C978 0.991 . S
C1915 C1011 0.971 . S
C1917 N233 1.096 . S
C1926 C1044 0.970 . S
C1928 N662 1.097 . S
