# Generated by pormake.
# Topology oof, (8)-cn, num edge types: 1
# Building blocks:
#     Node 0, Type 0, BuildingBlock: VETTIZ_charged_sbu_0, # of connection points: 8
#     Node 1, Type 0, BuildingBlock: VETTIZ_charged_sbu_0, # of connection points: 8
#     Node 2, Type 0, BuildingBlock: VETTIZ_charged_sbu_0, # of connection points: 8
#     Node 3, Type 0, BuildingBlock: VETTIZ_charged_sbu_0, # of connection points: 8
#     Edge 4, Type (0, 0), BuildingBlock: UVAHIK_clean_linker_0, # of connection points: 2
#     Edge 5, Type (0, 0), BuildingBlock: UVAHIK_clean_linker_0, # of connection points: 2
#     Edge 6, Type (0, 0), BuildingBlock: UVAHIK_clean_linker_0, # of connection points: 2
#     Edge 7, Type (0, 0), BuildingBlock: UVAHIK_clean_linker_0, # of connection points: 2
#     Edge 8, Type (0, 0), BuildingBlock: UVAHIK_clean_linker_0, # of connection points: 2
#     Edge 9, Type (0, 0), BuildingBlock: UVAHIK_clean_linker_0, # of connection points: 2
#     Edge 10, Type (0, 0), BuildingBlock: UVAHIK_clean_linker_0, # of connection points: 2
#     Edge 11, Type (0, 0), BuildingBlock: UVAHIK_clean_linker_0, # of connection points: 2
#     Edge 12, Type (0, 0), BuildingBlock: UVAHIK_clean_linker_0, # of connection points: 2
#     Edge 13, Type (0, 0), BuildingBlock: UVAHIK_clean_linker_0, # of connection points: 2
#     Edge 14, Type (0, 0), BuildingBlock: UVAHIK_clean_linker_0, # of connection points: 2
#     Edge 15, Type (0, 0), BuildingBlock: UVAHIK_clean_linker_0, # of connection points: 2
#     Edge 16, Type (0, 0), BuildingBlock: UVAHIK_clean_linker_0, # of connection points: 2
#     Edge 17, Type (0, 0), BuildingBlock: UVAHIK_clean_linker_0, # of connection points: 2
#     Edge 18, Type (0, 0), BuildingBlock: UVAHIK_clean_linker_0, # of connection points: 2
#     Edge 19, Type (0, 0), BuildingBlock: UVAHIK_clean_linker_0, # of connection points: 2
# Relax obj value: 0.130
# Max RMSD: 0.230
# Mean RMSD: 0.230
data_MOF--net-oof--node1-VETTIZ_charged_sbu_0--edge1-UVAHIK_clean_linker_0
_symmetry_space_group_name_H-M    P1
_symmetry_Int_Tables_number       1
_symmetry_cell_setting            triclinic
loop_
_symmetry_equiv_pos_as_xyz
'x, y, z'
_cell_length_a     21.101947
_cell_length_b     69.298548
_cell_length_c     20.879303
_cell_angle_alpha  89.596413
_cell_angle_beta   99.855999
_cell_angle_gamma 90.425617
loop_
_atom_site_label
_atom_site_type_symbol
_atom_site_fract_x
_atom_site_fract_y
_atom_site_fract_z
_atom_type_partial_charge
Fe0 Fe 0.07494 0.1396 0.32439 0.0
O1 O 0.02543 0.15874 0.26362 0.0
Fe2 Fe 0.07291 0.09946 0.22256 0.0
Fe3 Fe 0.97705 0.17971 0.29598 0.0
O4 O 0.02967 0.12035 0.26133 0.0
O5 O 0.02554 0.12035 0.25544 0.0
O6 O 0.01938 0.1586 0.25837 0.0
Fe7 Fe 0.97263 0.13918 0.19664 0.0
C8 C 0.98898 0.15176 0.41227 0.0
O9 O 0.1174 0.16337 0.3806 0.0
O10 O 0.06906 0.18991 0.32506 0.0
O11 O 0.04233 0.14198 0.13977 0.0
O12 O 0.06522 0.11105 0.12928 0.0
O13 O 0.16329 0.11122 0.24621 0.0
O14 O 0.15146 0.14171 0.27507 0.0
O15 O 0.96133 0.18931 0.20037 0.0
O16 O 0.92384 0.16202 0.14275 0.0
C17 C 0.18512 0.12823 0.25732 0.0
O18 O 0.93236 0.11556 0.13854 0.0
O19 O 0.98124 0.08931 0.19408 0.0
O20 O 1.00187 0.13768 0.37823 0.0
O21 O 0.98723 0.16892 0.39002 0.0
C22 C 0.1144 0.18185 0.36653 0.0
C23 C 0.93174 0.18066 0.14856 0.0
C24 C 0.86567 0.15012 0.26681 0.0
O25 O 0.88687 0.16735 0.27477 0.0
O26 O 0.89926 0.13648 0.24972 0.0
C27 C 0.05935 0.12822 0.10669 0.0
O28 O 0.08538 0.08945 0.31622 0.0
O29 O 0.11702 0.116 0.38109 0.0
C30 C 0.93832 0.09701 0.14977 0.0
C31 C 0.10758 0.09748 0.37148 0.0
Fe32 Fe 0.93383 0.92898 0.79509 0.0
O33 O 0.97661 0.90804 0.75602 0.0
Fe34 Fe 0.03183 0.88868 0.82052 0.0
Fe35 Fe 0.93083 0.88923 0.69166 0.0
O36 O 0.98064 0.90798 0.76204 0.0
O37 O 0.98459 0.86973 0.75729 0.0
O38 O 0.9787 0.86966 0.75188 0.0
Fe39 Fe 0.02612 0.84855 0.71912 0.0
C40 C 0.82023 0.90081 0.75781 0.0
O41 O 0.92313 0.93938 0.70201 0.0
O42 O 0.89049 0.9132 0.63577 0.0
O43 O 0.11712 0.8604 0.74195 0.0
O44 O 0.10611 0.89122 0.76853 0.0
O45 O 0.07277 0.91193 0.88011 0.0
O46 O 0.02594 0.93858 0.82527 0.0
O47 O 1.00452 0.89097 0.63852 0.0
O48 O 0.01758 0.85969 0.62578 0.0
C49 C 0.06789 0.93054 0.86975 0.0
O50 O 0.03999 0.83858 0.81412 0.0
O51 O 0.07876 0.86538 0.87385 0.0
O52 O 0.84275 0.91772 0.76971 0.0
O53 O 0.85368 0.88727 0.74018 0.0
C54 C 0.90091 0.93164 0.64629 0.0
C55 C 0.01677 0.8769 0.60407 0.0
C56 C 0.88893 0.84741 0.6474 0.0
O57 O 0.88744 0.86592 0.63407 0.0
O58 O 0.93353 0.83888 0.68848 0.0
C59 C 0.13928 0.87751 0.7512 0.0
O60 O 0.96118 0.88605 0.87638 0.0
O61 O 0.9397 0.91706 0.8876 0.0
C62 C 0.06956 0.84681 0.86675 0.0
C63 C 0.94448 0.89982 0.90965 0.0
Fe64 Fe 0.5935 0.63431 0.39095 0.0
O65 O 0.52883 0.63488 0.31153 0.0
Fe66 Fe 0.55536 0.62581 0.22417 0.0
Fe67 Fe 0.47892 0.65845 0.27929 0.0
O68 O 0.53157 0.63334 0.30911 0.0
O69 O 0.50848 0.64994 0.19184 0.0
O70 O 0.5037 0.65124 0.19434 0.0
Fe71 Fe 0.44256 0.64993 0.11233 0.0
C72 C 0.47141 0.65127 0.42468 0.0
O73 O 0.60292 0.66401 0.39653 0.0
O74 O 0.55951 0.67578 0.29943 0.0
O75 O 0.52455 0.64831 0.07244 0.0
O76 O 0.57507 0.62211 0.12869 0.0
O77 O 0.64096 0.64084 0.24357 0.0
O78 O 0.67388 0.63304 0.34733 0.0
O79 O 0.42965 0.68248 0.23333 0.0
O80 O 0.44053 0.67947 0.12585 0.0
C81 C 0.68553 0.63851 0.29223 0.0
O82 O 0.44046 0.62008 0.10139 0.0
O83 O 0.4725 0.60981 0.20156 0.0
O84 O 0.51325 0.63751 0.43269 0.0
O85 O 0.45982 0.66269 0.3742 0.0
C86 C 0.59449 0.67776 0.35507 0.0
C87 C 0.42638 0.68922 0.17439 0.0
C88 C 0.35122 0.64341 0.21184 0.0
O89 O 0.39578 0.64219 0.26118 0.0
O90 O 0.3621 0.64873 0.15618 0.0
C91 C 0.56553 0.6342 0.07956 0.0
O92 O 0.59677 0.60058 0.27168 0.0
O93 O 0.58754 0.60507 0.37958 0.0
C94 C 0.44997 0.6063 0.14242 0.0
C95 C 0.59453 0.59438 0.33067 0.0
Fe96 Fe 0.4666 0.40249 0.78464 0.0
O97 O 0.48982 0.39486 0.69958 0.0
Fe98 Fe 0.57951 0.37832 0.89641 0.0
Fe99 Fe 0.42725 0.39389 0.61817 0.0
O100 O 0.51327 0.37833 0.81709 0.0
O101 O 0.51812 0.37706 0.81461 0.0
O102 O 0.49249 0.39333 0.69718 0.0
Fe103 Fe 0.54254 0.3698 0.72957 0.0
C104 C 0.33601 0.39005 0.71735 0.0
O105 O 0.42549 0.42774 0.73681 0.0
O106 O 0.43454 0.42312 0.62887 0.0
O107 O 0.62566 0.38608 0.74722 0.0
O108 O 0.65969 0.37948 0.85216 0.0
O109 O 0.58182 0.40819 0.90713 0.0
O110 O 0.54973 0.41838 0.80686 0.0
O111 O 0.50677 0.39025 0.57554 0.0
O112 O 0.56127 0.36538 0.63477 0.0
C113 C 0.57238 0.42194 0.86596 0.0
O114 O 0.59193 0.34587 0.77541 0.0
O115 O 0.58152 0.34871 0.88306 0.0
O116 O 0.38077 0.38756 0.76571 0.0
O117 O 0.34747 0.39569 0.66238 0.0
C118 C 0.42788 0.43388 0.67775 0.0
C119 C 0.54906 0.37662 0.58393 0.0
C120 C 0.4245 0.35064 0.656 0.0
O121 O 0.41598 0.36422 0.6139 0.0
O122 O 0.4621 0.35243 0.71023 0.0
C123 C 0.67033 0.38488 0.79648 0.0
O124 O 0.49768 0.38006 0.93655 0.0
O125 O 0.4473 0.40629 0.88019 0.0
C126 C 0.59543 0.33904 0.8342 0.0
C127 C 0.4568 0.3942 0.92936 0.0
C128 C 0.09142 0.1185 1.00083 0.0
C129 C 0.05996 0.13143 0.03636 0.0
C130 C 0.0854 0.1203 0.93311 0.0
C131 C 0.9743 0.1354 0.79061 0.0
H132 H 0.12116 0.14226 0.70338 0.0
C133 C 0.96886 0.13182 0.50835 0.0
C134 C 0.99154 0.14889 0.48311 0.0
C135 C 0.97597 0.12891 0.57584 0.0
C136 C 0.07983 0.14021 0.7272 0.0
H137 H 0.99746 0.1564 0.02825 0.0
H138 H 0.98586 0.15915 0.91008 0.0
H139 H 0.13794 0.13869 0.82223 0.0
H140 H 0.04012 0.17617 0.50871 0.0
H141 H 0.05384 0.17083 0.62602 0.0
H142 H 0.91627 0.13663 0.69543 0.0
C143 C 0.01581 0.14782 0.9349 0.0
C144 C 0.08943 0.13814 0.79497 0.0
C145 C 0.02303 0.14633 1.00264 0.0
C146 C 0.02134 0.16297 0.5266 0.0
C147 C 0.02977 0.15986 0.59373 0.0
C148 C 0.96481 0.13699 0.72268 0.0
C149 C 0.04648 0.13474 0.89944 0.0
C150 C 0.0367 0.136 0.82738 0.0
C151 C 0.00735 0.14281 0.61904 0.0
C152 C 0.01744 0.13967 0.69046 0.0
H153 H 0.11984 0.10681 0.02528 0.0
H154 H 0.10948 0.11003 0.90678 0.0
H155 H 0.9329 0.13367 0.81451 0.0
H156 H 0.9458 0.12074 0.47593 0.0
H157 H 0.95834 0.11562 0.5943 0.0
C158 C 0.98359 0.86583 0.48977 0.0
C159 C 0.01389 0.87984 0.53323 0.0
C160 C 0.97493 0.86894 0.42267 0.0
C161 C 0.03976 0.89138 0.2933 0.0
H162 H 0.86618 0.89016 0.19469 0.0
C163 C 0.98004 0.88162 0.01365 0.0
C164 C 0.94343 0.89657 0.97985 0.0
C165 C 0.98743 0.88023 0.08142 0.0
C166 C 0.91482 0.89058 0.22169 0.0
H167 H 0.06026 0.9079 0.54032 0.0
H168 H 0.04727 0.91304 0.42188 0.0
H169 H 0.88347 0.88689 0.31363 0.0
H170 H 0.88417 0.92134 0.99079 0.0
H171 H 0.89481 0.9183 0.10931 0.0
H172 H 0.07126 0.89426 0.20114 0.0
C173 C 0.02943 0.89979 0.44042 0.0
C174 C 0.9247 0.88869 0.2895 0.0
C175 C 0.03679 0.89688 0.50794 0.0
C176 C 0.91232 0.90961 0.0153 0.0
C177 C 0.91851 0.90791 0.08305 0.0
C178 C 0.02996 0.89279 0.22533 0.0
C179 C 0.99758 0.88594 0.39731 0.0
C180 C 0.98725 0.88904 0.3259 0.0
C181 C 0.95725 0.89345 0.11682 0.0
C182 C 0.9674 0.89236 0.1889 0.0
H183 H 0.96464 0.85265 0.50768 0.0
H184 H 0.9505 0.85802 0.39044 0.0
H185 H 0.08841 0.89158 0.3203 0.0
H186 H 0.00536 0.87147 0.98808 0.0
H187 H 0.01722 0.86887 0.10633 0.0
C188 C 0.6183 0.64519 0.98994 0.0
C189 C 0.5906 0.62992 0.02015 0.0
C190 C 0.6097 0.64637 0.92229 0.0
C191 C 0.48041 0.63325 0.79157 0.0
H192 H 0.58635 0.65854 0.6814 0.0
C193 C 0.41741 0.6404 0.51344 0.0
C194 C 0.44566 0.65564 0.48361 0.0
C195 C 0.42596 0.63907 0.58108 0.0
C196 C 0.55576 0.65183 0.71197 0.0
H197 H 0.54076 0.60251 1.00479 0.0
H198 H 0.52713 0.60424 0.8863 0.0
H199 H 0.63413 0.64878 0.79133 0.0
H200 H 0.49643 0.68287 0.49967 0.0
H201 H 0.50962 0.68096 0.61807 0.0
H202 H 0.40202 0.63632 0.71221 0.0
C203 C 0.55407 0.61556 0.91465 0.0
C204 C 0.58343 0.646 0.77464 0.0
C205 C 0.56311 0.61434 0.98248 0.0
C206 C 0.47354 0.67109 0.52166 0.0
C207 C 0.48239 0.66975 0.58945 0.0
C208 C 0.45273 0.63909 0.72889 0.0
C209 C 0.57315 0.63227 0.88409 0.0
C210 C 0.5461 0.63664 0.81516 0.0
C211 C 0.46291 0.65302 0.61962 0.0
C212 C 0.49004 0.64849 0.68841 0.0
H213 H 0.63905 0.65745 0.01821 0.0
H214 H 0.62533 0.65939 0.9004 0.0
H215 H 0.44985 0.62654 0.82217 0.0
H216 H 0.3964 0.62822 0.48489 0.0
H217 H 0.40999 0.62605 0.60266 0.0
C218 C 0.40189 0.38348 0.01768 0.0
C219 C 0.43181 0.39855 0.98871 0.0
C220 C 0.41036 0.38187 0.08522 0.0
C221 C 0.48412 0.40446 0.2415 0.0
H222 H 0.54445 0.35233 0.28348 0.0
C223 C 0.60637 0.38746 0.49764 0.0
C224 C 0.57559 0.37234 0.52544 0.0
C225 C 0.59929 0.38924 0.43019 0.0
C226 C 0.52771 0.36691 0.27258 0.0
H227 H 0.48573 0.4252 1.00623 0.0
H228 H 0.5003 0.42256 0.12424 0.0
H229 H 0.49462 0.36038 0.17258 0.0
H230 H 0.52134 0.34582 0.5061 0.0
H231 H 0.50944 0.3487 0.38836 0.0
H232 H 0.51708 0.41098 0.34155 0.0
C233 C 0.47054 0.4119 0.09534 0.0
C234 C 0.49845 0.37151 0.20923 0.0
C235 C 0.4615 0.41359 0.02762 0.0
C236 C 0.54638 0.35743 0.48564 0.0
C237 C 0.53884 0.35927 0.41804 0.0
C238 C 0.51336 0.39986 0.30488 0.0
C239 C 0.44922 0.39525 0.1245 0.0
C240 C 0.47602 0.39032 0.19302 0.0
C241 C 0.56106 0.37596 0.38987 0.0
C242 C 0.53551 0.38103 0.32115 0.0
H243 H 0.37911 0.37167 0.98842 0.0
H244 H 0.39162 0.3692 0.10646 0.0
H245 H 0.46729 0.41904 0.23059 0.0
H246 H 0.62868 0.39919 0.52759 0.0
H247 H 0.61862 0.40196 0.40978 0.0
C248 C 0.76528 0.12963 0.24764 0.0
C249 C 0.79755 0.14649 0.27266 0.0
C250 C 0.69921 0.12739 0.24734 0.0
C251 C 0.56373 0.14611 0.32043 0.0
H252 H 0.45912 0.12745 0.1618 0.0
C253 C 0.28569 0.14863 0.27916 0.0
C254 C 0.25363 0.13185 0.25304 0.0
C255 C 0.35185 0.15094 0.28012 0.0
C256 C 0.48768 0.13254 0.20665 0.0
H257 H 0.78607 0.17382 0.31954 0.0
H258 H 0.67152 0.16992 0.31876 0.0
H259 H 0.57566 0.1292 0.17 0.0
H260 H 0.26575 0.1047 0.20531 0.0
H261 H 0.38038 0.1087 0.20741 0.0
H262 H 0.47572 0.14943 0.35711 0.0
C263 C 0.69704 0.1584 0.29953 0.0
C264 C 0.5545 0.13347 0.21144 0.0
C265 C 0.76279 0.16068 0.29958 0.0
C266 C 0.2888 0.11779 0.22606 0.0
C267 C 0.35462 0.12013 0.22685 0.0
C268 C 0.49688 0.14517 0.31567 0.0
C269 C 0.66421 0.14189 0.27247 0.0
C270 C 0.59333 0.14026 0.26838 0.0
C271 C 0.38719 0.13659 0.25465 0.0
C272 C 0.45805 0.13835 0.25875 0.0
H273 H 0.79056 0.11842 0.22655 0.0
H274 H 0.67541 0.11437 0.22694 0.0
H275 H 0.59233 0.15122 0.36524 0.0
H276 H 0.2601 0.15975 0.30034 0.0
H277 H 0.37542 0.16392 0.30113 0.0
C278 C 0.71544 0.91175 0.78564 0.0
C279 C 0.7514 0.89733 0.76139 0.0
C280 C 0.64963 0.90931 0.78503 0.0
C281 C 0.50831 0.88237 0.70189 0.0
H282 H 0.42966 0.90045 0.84507 0.0
C283 C 0.24332 0.86642 0.72189 0.0
C284 C 0.20779 0.88096 0.74609 0.0
C285 C 0.30907 0.86878 0.72179 0.0
C286 C 0.45073 0.89557 0.80429 0.0
H287 H 0.74614 0.86877 0.71881 0.0
H288 H 0.631 0.86443 0.71841 0.0
H289 H 0.5459 0.90285 0.85172 0.0
H290 H 0.21363 0.90967 0.78753 0.0
H291 H 0.32862 0.91385 0.78681 0.0
H292 H 0.41307 0.87506 0.65453 0.0
C293 C 0.65389 0.87776 0.73712 0.0
C294 C 0.51743 0.89689 0.80818 0.0
C295 C 0.72 0.88018 0.73785 0.0
C296 C 0.23945 0.89817 0.76859 0.0
C297 C 0.30546 0.9005 0.76868 0.0
C298 C 0.44158 0.88104 0.69802 0.0
C299 C 0.61783 0.89239 0.76018 0.0
C300 C 0.54706 0.89034 0.75698 0.0
C301 C 0.34118 0.88573 0.74595 0.0
C302 C 0.41197 0.88764 0.74916 0.0
H303 H 0.73786 0.92516 0.80425 0.0
H304 H 0.62333 0.92097 0.80248 0.0
H305 H 0.52938 0.8775 0.6611 0.0
H306 H 0.22065 0.85298 0.70401 0.0
H307 H 0.33512 0.85704 0.70452 0.0
C308 C 0.77022 0.64296 0.2217 0.0
C309 C 0.75372 0.6407 0.28383 0.0
C310 C 0.83483 0.64327 0.21384 0.0
C311 C 0.99623 0.62786 0.29664 0.0
H312 H 0.0571 0.6621 0.17241 0.0
C313 C 0.26679 0.63813 0.28225 0.0
C314 C 0.28329 0.64035 0.2201 0.0
C315 C 0.20215 0.63741 0.28996 0.0
C316 C 0.04074 0.65227 0.20678 0.0
H317 H 0.79266 0.63772 0.38661 0.0
H318 H 0.90474 0.63856 0.3729 0.0
H319 H 0.94469 0.66318 0.18582 0.0
H320 H 0.24433 0.6427 0.11712 0.0
H321 H 0.13226 0.64119 0.13063 0.0
H322 H 0.0924 0.617 0.31772 0.0
C323 C 0.86785 0.63967 0.33008 0.0
C324 C 0.97623 0.6529 0.21448 0.0
C325 C 0.80342 0.63933 0.33795 0.0
C326 C 0.2336 0.64113 0.1658 0.0
C327 C 0.16917 0.64042 0.17353 0.0
C328 C 0.06077 0.62724 0.28898 0.0
C329 C 0.88443 0.64135 0.26789 0.0
C330 C 0.95314 0.64072 0.25956 0.0
C331 C 0.15257 0.63889 0.23574 0.0
C332 C 0.08383 0.63942 0.2439 0.0
H333 H 0.73327 0.64397 0.17889 0.0
H334 H 0.84581 0.64444 0.16515 0.0
H335 H 0.97989 0.61802 0.33102 0.0
H336 H 0.3037 0.63755 0.3252 0.0
H337 H 0.19107 0.63634 0.33863 0.0
C338 C 0.78773 0.38767 0.84261 0.0
C339 C 0.73816 0.38803 0.78816 0.0
C340 C 0.85218 0.38845 0.83502 0.0
C341 C 0.96062 0.40103 0.71911 0.0
H342 H 0.07717 0.36579 0.825 0.0
C343 C 0.21827 0.38884 0.67162 0.0
C344 C 0.26791 0.38785 0.72588 0.0
C345 C 0.15384 0.38848 0.67939 0.0
C346 C 0.0455 0.37587 0.79557 0.0
H347 H 0.7179 0.39017 0.68289 0.0
H348 H 0.8306 0.39148 0.66969 0.0
H349 H 0.96464 0.36685 0.83796 0.0
H350 H 0.28836 0.38519 0.831 0.0
H351 H 0.17573 0.38472 0.8446 0.0
H352 H 0.04148 0.41006 0.67675 0.0
C353 C 0.81941 0.39069 0.71837 0.0
C354 C 0.98093 0.3765 0.80301 0.0
C355 C 0.75474 0.38992 0.72594 0.0
C356 C 0.25141 0.38592 0.7881 0.0
C357 C 0.18678 0.38561 0.79588 0.0
C358 C 0.02522 0.40042 0.71172 0.0
C359 C 0.8689 0.3896 0.7728 0.0
C360 C 0.93768 0.38909 0.7649 0.0
C361 C 0.13721 0.38717 0.74164 0.0
C362 C 0.06847 0.3878 0.74978 0.0
H363 H 0.7769 0.38639 0.89134 0.0
H364 H 0.88901 0.38799 0.87805 0.0
H365 H 0.92885 0.41107 0.68959 0.0
H366 H 0.22908 0.39016 0.62289 0.0
H367 H 0.11697 0.38929 0.63646 0.0
C368 C 0.34682 0.33003 0.58155 0.0
C369 C 0.39234 0.33177 0.63885 0.0
C370 C 0.31908 0.31219 0.5625 0.0
C371 C 0.34457 0.25968 0.58085 0.0
H372 H 0.16693 0.25828 0.49372 0.0
C373 C 0.19016 0.19191 0.46829 0.0
C374 C 0.16159 0.19543 0.40328 0.0
C375 C 0.22391 0.20673 0.50567 0.0
C376 C 0.21651 0.25843 0.51831 0.0
H377 H 0.44379 0.31592 0.72153 0.0
H378 H 0.39458 0.28465 0.68825 0.0
H379 H 0.21119 0.28792 0.54576 0.0
H380 H 0.15093 0.21663 0.32516 0.0
H381 H 0.2087 0.24217 0.39008 0.0
H382 H 0.34916 0.22999 0.5522 0.0
C383 C 0.3809 0.29719 0.65791 0.0
C384 C 0.24204 0.27543 0.54779 0.0
C385 C 0.4087 0.31515 0.67719 0.0
C386 C 0.17137 0.2135 0.37534 0.0
C387 C 0.2044 0.22817 0.41246 0.0
C388 C 0.31864 0.24251 0.55164 0.0
C389 C 0.33582 0.2955 0.60017 0.0
C390 C 0.30697 0.27651 0.57754 0.0
C391 C 0.22908 0.22518 0.47843 0.0
C392 C 0.25492 0.24198 0.5184 0.0
H393 H 0.33306 0.34244 0.55061 0.0
H394 H 0.28548 0.31142 0.51713 0.0
H395 H 0.39481 0.26002 0.6032 0.0
H396 H 0.1832 0.17817 0.49124 0.0
H397 H 0.24279 0.2041 0.55653 0.0
C398 C 0.65756 0.31019 0.80698 0.0
C399 C 0.62071 0.31923 0.84819 0.0
C400 C 0.68734 0.29246 0.82452 0.0
C401 C 0.68791 0.25048 0.93643 0.0
H402 H 0.87032 0.24856 0.93005 0.0
C403 C 0.92262 0.21243 0.09015 0.0
C404 C 0.90088 0.19331 0.09469 0.0
C405 C 0.88858 0.22538 0.04581 0.0
C406 C 0.81931 0.2488 0.93172 0.0
H407 H 0.58361 0.31612 0.93851 0.0
H408 H 0.63511 0.28534 0.96869 0.0
H409 H 0.80643 0.27557 0.87933 0.0
H410 H 0.82782 0.17259 0.0538 0.0
H411 H 0.76784 0.19538 0.97639 0.0
H412 H 0.70137 0.22417 0.99132 0.0
C413 C 0.64109 0.29191 0.92286 0.0
C414 C 0.78257 0.2642 0.90218 0.0
C415 C 0.61194 0.30967 0.90573 0.0
C416 C 0.84591 0.1872 0.05149 0.0
C417 C 0.8113 0.20028 0.0075 0.0
C418 C 0.72456 0.23502 0.96559 0.0
C419 C 0.6802 0.28326 0.88317 0.0
C420 C 0.71681 0.2655 0.90579 0.0
C421 C 0.83157 0.21963 1.00517 0.0
C422 C 0.79106 0.23429 0.96518 0.0
H423 H 0.66539 0.31714 0.76234 0.0
H424 H 0.71678 0.28608 0.79267 0.0
H425 H 0.63721 0.25096 0.93944 0.0
H426 H 0.96501 0.21759 0.12237 0.0
H427 H 0.90527 0.2402 0.04576 0.0
C428 C 0.64678 0.70046 0.44124 0.0
C429 C 0.62066 0.69716 0.37559 0.0
C430 C 0.66617 0.71893 0.46279 0.0
C431 C 0.72086 0.766 0.41441 0.0
H432 H 0.66797 0.78252 0.57427 0.0
C433 C 0.81599 0.83715 0.54465 0.0
C434 C 0.83948 0.83446 0.61125 0.0
C435 C 0.77806 0.82279 0.50912 0.0
C436 C 0.68324 0.77816 0.52961 0.0
H437 H 0.59638 0.71079 0.28072 0.0
H438 H 0.63185 0.74319 0.31865 0.0
H439 H 0.62656 0.7523 0.52418 0.0
H440 H 0.83885 0.81527 0.69353 0.0
H441 H 0.77312 0.79055 0.6325 0.0
H442 H 0.77993 0.79149 0.42158 0.0
C443 C 0.63659 0.73134 0.35322 0.0
C444 C 0.65949 0.76084 0.50093 0.0
C445 C 0.6163 0.7128 0.33161 0.0
C446 C 0.82152 0.81774 0.64223 0.0
C447 C 0.78339 0.8036 0.60718 0.0
C448 C 0.74515 0.78334 0.44349 0.0
C449 C 0.6606 0.73463 0.41932 0.0
C450 C 0.67948 0.75427 0.44413 0.0
C451 C 0.76228 0.80568 0.53992 0.0
C452 C 0.72813 0.7893 0.50259 0.0
H453 H 0.6509 0.68885 0.47668 0.0
H454 H 0.6855 0.72096 0.51383 0.0
H455 H 0.7371 0.76128 0.37062 0.0
H456 H 0.82963 0.84983 0.51944 0.0
H457 H 0.76222 0.82489 0.45743 0.0
C458 C 0.36248 0.71813 0.19899 0.0
C459 C 0.40013 0.70888 0.15895 0.0
C460 C 0.32956 0.73521 0.17817 0.0
C461 C 0.25778 0.75794 0.0252 0.0
H462 H 0.23938 0.80396 0.12497 0.0
C463 C 0.07522 0.81468 0.92203 0.0
C464 C 0.09928 0.83359 0.91945 0.0
C465 C 0.10952 0.80079 0.96215 0.0
C466 C 0.2442 0.79118 0.09668 0.0
H467 H 0.43705 0.71133 0.06828 0.0
H468 H 0.38014 0.74084 0.03258 0.0
H469 H 0.30911 0.77757 0.17442 0.0
H470 H 0.17585 0.85311 0.9611 0.0
H471 H 0.2364 0.82861 0.03132 0.0
H472 H 0.19375 0.77125 0.94756 0.0
C473 C 0.37486 0.73474 0.0793 0.0
C474 C 0.28373 0.77608 0.12502 0.0
C475 C 0.40758 0.71779 0.09993 0.0
C476 C 0.15605 0.83867 0.96195 0.0
C477 C 0.19072 0.82464 1.00217 0.0
C478 C 0.21806 0.77282 0.99735 0.0
C479 C 0.33375 0.74328 0.11701 0.0
C480 C 0.29133 0.75938 0.08918 0.0
C481 C 0.16899 0.80537 1.00058 0.0
C482 C 0.2107 0.78962 0.03255 0.0
H483 H 0.35577 0.71169 0.24478 0.0
H484 H 0.2982 0.74149 0.20826 0.0
H485 H 0.26193 0.74518 0.99655 0.0
H486 H 0.03105 0.81035 0.89082 0.0
H487 H 0.09074 0.78617 0.961 0.0
C488 C 0.8877 0.06556 0.12068 0.0
C489 C 0.91122 0.08308 0.09957 0.0
C490 C 0.90063 0.04819 0.09196 0.0
C491 C 0.97648 0.02615 0.96098 0.0
H492 H 0.04931 0.99126 0.10012 0.0
C493 C 0.11919 0.96174 0.90113 0.0
C494 C 0.09492 0.94417 0.92098 0.0
C495 C 0.10607 0.97901 0.93034 0.0
C496 C 0.02907 1.00079 0.06069 0.0
H497 H 0.95637 0.09654 0.02496 0.0
H498 H 0.97826 0.0664 0.97423 0.0
H499 H 0.99182 0.01986 0.12498 0.0
H500 H 0.04849 0.93046 0.99422 0.0
H501 H 0.02639 0.96043 0.04593 0.0
H502 H 0.01387 1.00709 0.89672 0.0
C503 C 0.95079 0.06586 0.01352 0.0
C504 C 0.99542 0.01712 0.07474 0.0
C505 C 0.93724 0.08326 0.04199 0.0
C506 C 0.06813 0.94378 0.97811 0.0
C507 C 0.05446 0.96108 0.00713 0.0
C508 C 0.0102 1.00983 0.94695 0.0
C509 C 0.93705 0.0481 0.0415 0.0
C510 C 0.96853 0.03001 0.02505 0.0
C511 C 0.06885 0.97893 0.98015 0.0
C512 C 0.03713 0.99696 0.99663 0.0
H513 H 0.8676 0.06503 0.16508 0.0
H514 H 0.88721 0.03478 0.11316 0.0
H515 H 0.9562 0.03566 0.9215 0.0
H516 H 0.13994 0.96243 0.85713 0.0
H517 H 0.11991 0.99249 0.90993 0.0
C518 C 0.14254 0.06627 0.42216 0.0
C519 C 0.11212 0.08404 0.42692 0.0
C520 C 0.12177 0.04967 0.45111 0.0
C521 C 0.96923 0.03118 0.48886 0.0
H522 H 0.0694 0.98592 0.54901 0.0
C523 C 0.86697 0.9631 0.59683 0.0
C524 C 0.89713 0.94532 0.59154 0.0
C525 C 0.888 0.97975 0.56843 0.0
C526 C 0.04062 0.99832 0.53107 0.0
H527 H 0.04154 0.09886 0.47178 0.0
H528 H 0.00625 0.06999 0.52431 0.0
H529 H 0.12419 0.01614 0.53185 0.0
H530 H 0.96777 0.93057 0.54655 0.0
H531 H 1.00356 0.95955 0.49499 0.0
H532 H 0.88566 1.01336 0.48807 0.0
C533 C 0.0452 0.06876 0.49691 0.0
C534 C 0.07212 0.01572 0.52191 0.0
C535 C 0.0664 0.08541 0.46815 0.0
C536 C 0.94306 0.94403 0.55051 0.0
C537 C 0.96454 0.96073 0.52233 0.0
C538 C 0.93773 1.01378 0.49803 0.0
C539 C 0.06994 0.05053 0.48529 0.0
C540 C 0.03687 0.03239 0.5007 0.0
C541 C 0.93989 0.97895 0.53432 0.0
C542 C 0.97299 0.9971 0.51918 0.0
H543 H 0.1772 0.06477 0.38976 0.0
H544 H 0.14213 0.03595 0.44113 0.0
H545 H 0.94044 0.04357 0.47088 0.0
H546 H 0.83218 0.96453 0.62913 0.0
H547 H 0.86773 0.99346 0.57872 0.0
C548 C 0.49776 0.57309 0.15177 0.0
C549 C 0.45449 0.58634 0.11721 0.0
C550 C 0.50966 0.55532 0.12493 0.0
C551 C 0.44781 0.52071 0.99318 0.0
H552 H 0.62456 0.50309 0.02264 0.0
C553 C 0.52489 0.45519 0.8562 0.0
C554 C 0.56798 0.44193 0.89095 0.0
C555 C 0.51305 0.47299 0.88287 0.0
C556 C 0.57485 0.50766 0.01445 0.0
H557 H 0.38989 0.59112 0.02616 0.0
H558 H 0.41075 0.56009 0.97874 0.0
H559 H 0.5977 0.53327 0.07069 0.0
H560 H 0.63244 0.43717 0.98212 0.0
H561 H 0.61171 0.46827 0.02923 0.0
H562 H 0.42496 0.4951 0.93693 0.0
C563 C 0.43469 0.56333 0.02762 0.0
C564 C 0.55932 0.525 0.04212 0.0
C565 C 0.4227 0.58116 0.05479 0.0
C566 C 0.59974 0.44714 0.95336 0.0
C567 C 0.58783 0.46501 0.98035 0.0
C568 C 0.46334 0.50336 0.9655 0.0
C569 C 0.4792 0.55028 0.062 0.0
C570 C 0.49554 0.53178 0.03202 0.0
C571 C 0.54344 0.47806 0.9458 0.0
C572 C 0.52712 0.49658 0.97564 0.0
H573 H 0.52523 0.5768 0.19837 0.0
H574 H 0.5437 0.54565 0.15335 0.0
H575 H 0.39809 0.52527 0.985 0.0
H576 H 0.4975 0.45147 0.80958 0.0
H577 H 0.47911 0.48267 0.85434 0.0
C578 C 0.38885 0.4636 0.6178 0.0
C579 C 0.43476 0.45458 0.66488 0.0
C580 C 0.40578 0.47969 0.58329 0.0
C581 C 0.55077 0.49873 0.52857 0.0
H582 H 0.44102 0.54139 0.46155 0.0
C583 C 0.63375 0.56464 0.39041 0.0
C584 C 0.58787 0.57366 0.34329 0.0
C585 C 0.61686 0.54849 0.42468 0.0
C586 C 0.47187 0.52937 0.47897 0.0
H587 H 0.53408 0.45548 0.7131 0.0
H588 H 0.56242 0.48421 0.65666 0.0
H589 H 0.4061 0.51894 0.53908 0.0
H590 H 0.48866 0.57269 0.29477 0.0
H591 H 0.46041 0.54388 0.35082 0.0
H592 H 0.61656 0.50917 0.46849 0.0
C593 C 0.5134 0.47887 0.64593 0.0
C594 C 0.45196 0.51658 0.52383 0.0
C595 C 0.49654 0.46275 0.68002 0.0
C596 C 0.5262 0.56543 0.32787 0.0
C597 C 0.50937 0.54926 0.36173 0.0
C598 C 0.57069 0.51152 0.48373 0.0
C599 C 0.46925 0.4869 0.59484 0.0
C600 C 0.49122 0.50112 0.54934 0.0
C601 C 0.55346 0.54123 0.41288 0.0
C602 C 0.53144 0.52698 0.45824 0.0
H603 H 0.3417 0.45712 0.60347 0.0
H604 H 0.37064 0.48543 0.54398 0.0
H605 H 0.58162 0.48671 0.546 0.0
H606 H 0.68081 0.57116 0.40496 0.0
H607 H 0.65194 0.54276 0.46404 0.0
loop_
_geom_bond_atom_site_label_1
_geom_bond_atom_site_label_2
_geom_bond_distance
_geom_bond_site_symmetry_2
_ccdc_geom_bond_type
Fe0 O1 1.886 . S
Fe0 O4 1.715 . S
Fe0 O9 2.077 . S
Fe0 O14 1.935 . S
Fe0 O20 2.077 . S
Fe0 O29 1.935 . S
O1 Fe0 1.886 . S
O1 Fe3 1.715 1_455 S
Fe2 O4 1.886 . S
Fe2 O5 1.715 1_455 S
Fe2 O12 1.935 . S
Fe2 O13 2.077 . S
Fe2 O19 1.935 1_455 S
Fe2 O28 2.077 . S
Fe3 O1 1.715 1_655 S
Fe3 O6 1.886 . S
Fe3 O10 1.935 1_655 S
Fe3 O15 2.077 . S
Fe3 O21 1.935 . S
Fe3 O25 2.077 . S
O4 Fe0 1.715 . S
O4 Fe2 1.886 . S
O5 Fe2 1.715 1_655 S
O5 Fe7 1.886 . S
O6 Fe3 1.886 . S
O6 Fe7 1.715 . S
Fe7 O5 1.886 . S
Fe7 O6 1.715 . S
Fe7 O11 2.077 . S
Fe7 O16 1.935 . S
Fe7 O18 2.077 . S
Fe7 O26 1.935 . S
C8 O20 1.381 1_655 S
C8 O21 1.421 . S
O9 Fe0 2.077 . S
O9 C22 1.381 . S
O10 Fe3 1.935 1_455 S
O10 C22 1.421 . S
O11 Fe7 2.077 . S
O11 C27 1.381 1_655 S
O12 Fe2 1.935 . S
O12 C27 1.421 . S
O13 Fe2 2.077 . S
O13 C17 1.381 . S
O14 Fe0 1.935 . S
O14 C17 1.421 . S
O15 Fe3 2.077 . S
O15 C23 1.381 . S
O16 Fe7 1.935 . S
O16 C23 1.421 . S
C17 O13 1.381 . S
C17 O14 1.421 . S
O18 Fe7 2.077 . S
O18 C30 1.381 . S
O19 Fe2 1.935 1_655 S
O19 C30 1.421 . S
O20 Fe0 2.077 . S
O20 C8 1.381 1_455 S
O21 Fe3 1.935 . S
O21 C8 1.421 . S
C22 O9 1.381 . S
C22 O10 1.421 . S
C23 O15 1.381 . S
C23 O16 1.421 . S
C24 O25 1.381 . S
C24 O26 1.421 . S
O25 Fe3 2.077 . S
O25 C24 1.381 . S
O26 Fe7 1.935 . S
O26 C24 1.421 . S
C27 O11 1.381 1_455 S
C27 O12 1.421 . S
O28 Fe2 2.077 . S
O28 C31 1.381 . S
O29 Fe0 1.935 . S
O29 C31 1.421 . S
C30 O18 1.381 . S
C30 O19 1.421 . S
C31 O28 1.381 . S
C31 O29 1.421 . S
Fe32 O33 1.886 . S
Fe32 O36 1.715 1_655 S
Fe32 O41 2.077 . S
Fe32 O46 1.935 1_655 S
Fe32 O52 2.077 . S
Fe32 O61 1.935 . S
O33 Fe32 1.886 . S
O33 Fe35 1.715 . S
Fe34 O36 1.886 . S
Fe34 O37 1.715 . S
Fe34 O44 1.935 . S
Fe34 O45 2.077 . S
Fe34 O51 1.935 . S
Fe34 O60 2.077 . S
Fe35 O33 1.715 . S
Fe35 O38 1.886 . S
Fe35 O42 1.935 . S
Fe35 O47 2.077 . S
Fe35 O53 1.935 . S
Fe35 O57 2.077 . S
O36 Fe32 1.715 1_455 S
O36 Fe34 1.886 . S
O37 Fe34 1.715 . S
O37 Fe39 1.886 . S
O38 Fe35 1.886 . S
O38 Fe39 1.715 1_655 S
Fe39 O37 1.886 . S
Fe39 O38 1.715 1_455 S
Fe39 O43 2.077 . S
Fe39 O48 1.935 . S
Fe39 O50 2.077 . S
Fe39 O58 1.935 1_455 S
C40 O52 1.381 . S
C40 O53 1.421 . S
O41 Fe32 2.077 . S
O41 C54 1.381 . S
O42 Fe35 1.935 . S
O42 C54 1.421 . S
O43 Fe39 2.077 . S
O43 C59 1.381 . S
O44 Fe34 1.935 . S
O44 C59 1.421 . S
O45 Fe34 2.077 . S
O45 C49 1.381 . S
O46 Fe32 1.935 1_455 S
O46 C49 1.421 . S
O47 Fe35 2.077 . S
O47 C55 1.381 1_655 S
O48 Fe39 1.935 . S
O48 C55 1.421 . S
C49 O45 1.381 . S
C49 O46 1.421 . S
O50 Fe39 2.077 . S
O50 C62 1.381 . S
O51 Fe34 1.935 . S
O51 C62 1.421 . S
O52 Fe32 2.077 . S
O52 C40 1.381 . S
O53 Fe35 1.935 . S
O53 C40 1.421 . S
C54 O41 1.381 . S
C54 O42 1.421 . S
C55 O47 1.381 1_455 S
C55 O48 1.421 . S
C56 O57 1.381 . S
C56 O58 1.421 . S
O57 Fe35 2.077 . S
O57 C56 1.381 . S
O58 Fe39 1.935 1_655 S
O58 C56 1.421 . S
C59 O43 1.381 . S
C59 O44 1.421 . S
O60 Fe34 2.077 . S
O60 C63 1.381 1_455 S
O61 Fe32 1.935 . S
O61 C63 1.421 . S
C62 O50 1.381 . S
C62 O51 1.421 . S
C63 O60 1.381 1_655 S
C63 O61 1.421 . S
Fe64 O65 1.886 . S
Fe64 O68 1.715 . S
Fe64 O73 2.077 . S
Fe64 O78 1.935 . S
Fe64 O84 2.077 . S
Fe64 O93 1.935 . S
O65 Fe64 1.886 . S
O65 Fe67 1.715 . S
Fe66 O68 1.886 . S
Fe66 O69 1.715 . S
Fe66 O76 1.935 . S
Fe66 O77 2.077 . S
Fe66 O83 1.935 . S
Fe66 O92 2.077 . S
Fe67 O65 1.715 . S
Fe67 O70 1.886 . S
Fe67 O74 1.935 . S
Fe67 O79 2.077 . S
Fe67 O85 1.935 . S
Fe67 O89 2.077 . S
O68 Fe64 1.715 . S
O68 Fe66 1.886 . S
O69 Fe66 1.715 . S
O69 Fe71 1.886 . S
O70 Fe67 1.886 . S
O70 Fe71 1.715 . S
Fe71 O69 1.886 . S
Fe71 O70 1.715 . S
Fe71 O75 2.077 . S
Fe71 O80 1.935 . S
Fe71 O82 2.077 . S
Fe71 O90 1.935 . S
C72 O84 1.381 . S
C72 O85 1.421 . S
O73 Fe64 2.077 . S
O73 C86 1.381 . S
O74 Fe67 1.935 . S
O74 C86 1.421 . S
O75 Fe71 2.077 . S
O75 C91 1.381 . S
O76 Fe66 1.935 . S
O76 C91 1.421 . S
O77 Fe66 2.077 . S
O77 C81 1.381 . S
O78 Fe64 1.935 . S
O78 C81 1.421 . S
O79 Fe67 2.077 . S
O79 C87 1.381 . S
O80 Fe71 1.935 . S
O80 C87 1.421 . S
C81 O77 1.381 . S
C81 O78 1.421 . S
O82 Fe71 2.077 . S
O82 C94 1.381 . S
O83 Fe66 1.935 . S
O83 C94 1.421 . S
O84 Fe64 2.077 . S
O84 C72 1.381 . S
O85 Fe67 1.935 . S
O85 C72 1.421 . S
C86 O73 1.381 . S
C86 O74 1.421 . S
C87 O79 1.381 . S
C87 O80 1.421 . S
C88 O89 1.381 . S
C88 O90 1.421 . S
O89 Fe67 2.077 . S
O89 C88 1.381 . S
O90 Fe71 1.935 . S
O90 C88 1.421 . S
C91 O75 1.381 . S
C91 O76 1.421 . S
O92 Fe66 2.077 . S
O92 C95 1.381 . S
O93 Fe64 1.935 . S
O93 C95 1.421 . S
C94 O82 1.381 . S
C94 O83 1.421 . S
C95 O92 1.381 . S
C95 O93 1.421 . S
Fe96 O97 1.886 . S
Fe96 O100 1.715 . S
Fe96 O105 2.077 . S
Fe96 O110 1.935 . S
Fe96 O116 2.077 . S
Fe96 O125 1.935 . S
O97 Fe96 1.886 . S
O97 Fe99 1.715 . S
Fe98 O100 1.886 . S
Fe98 O101 1.715 . S
Fe98 O108 1.935 . S
Fe98 O109 2.077 . S
Fe98 O115 1.935 . S
Fe98 O124 2.077 . S
Fe99 O97 1.715 . S
Fe99 O102 1.886 . S
Fe99 O106 1.935 . S
Fe99 O111 2.077 . S
Fe99 O117 1.935 . S
Fe99 O121 2.077 . S
O100 Fe96 1.715 . S
O100 Fe98 1.886 . S
O101 Fe98 1.715 . S
O101 Fe103 1.886 . S
O102 Fe99 1.886 . S
O102 Fe103 1.715 . S
Fe103 O101 1.886 . S
Fe103 O102 1.715 . S
Fe103 O107 2.077 . S
Fe103 O112 1.935 . S
Fe103 O114 2.077 . S
Fe103 O122 1.935 . S
C104 O116 1.381 . S
C104 O117 1.421 . S
O105 Fe96 2.077 . S
O105 C118 1.381 . S
O106 Fe99 1.935 . S
O106 C118 1.421 . S
O107 Fe103 2.077 . S
O107 C123 1.381 . S
O108 Fe98 1.935 . S
O108 C123 1.421 . S
O109 Fe98 2.077 . S
O109 C113 1.381 . S
O110 Fe96 1.935 . S
O110 C113 1.421 . S
O111 Fe99 2.077 . S
O111 C119 1.381 . S
O112 Fe103 1.935 . S
O112 C119 1.421 . S
C113 O109 1.381 . S
C113 O110 1.421 . S
O114 Fe103 2.077 . S
O114 C126 1.381 . S
O115 Fe98 1.935 . S
O115 C126 1.421 . S
O116 Fe96 2.077 . S
O116 C104 1.381 . S
O117 Fe99 1.935 . S
O117 C104 1.421 . S
C118 O105 1.381 . S
C118 O106 1.421 . S
C119 O111 1.381 . S
C119 O112 1.421 . S
C120 O121 1.381 . S
C120 O122 1.421 . S
O121 Fe99 2.077 . S
O121 C120 1.381 . S
O122 Fe103 1.935 . S
O122 C120 1.421 . S
C123 O107 1.381 . S
C123 O108 1.421 . S
O124 Fe98 2.077 . S
O124 C127 1.381 . S
O125 Fe96 1.935 . S
O125 C127 1.421 . S
C126 O114 1.381 . S
C126 O115 1.421 . S
C127 O124 1.381 . S
C127 O125 1.421 . S
C128 C129 1.349 1_556 S
C128 C130 1.327 . S
C128 H153 0.950 1_556 S
C129 C128 1.349 1_554 S
C129 C145 1.341 1_454 S
C130 C128 1.327 . S
C130 C149 1.429 . S
C130 H154 0.950 . S
C131 C148 1.574 . S
C131 C150 1.368 1_655 S
C131 H155 0.949 . S
H132 C136 0.949 . S
C133 C134 1.349 . S
C133 C135 1.327 . S
C133 H156 0.950 . S
C134 C133 1.349 . S
C134 C146 1.349 1_655 S
C135 C133 1.327 . S
C135 C151 1.429 . S
C135 H157 0.950 . S
C136 H132 0.949 . S
C136 C144 1.574 . S
C136 C152 1.368 1_455 S
H137 C145 0.959 1_554 S
H138 C143 0.950 . S
H139 C144 0.949 . S
H140 C146 0.950 . S
H141 C147 0.950 . S
H142 C148 0.949 . S
C143 H138 0.950 . S
C143 C145 1.327 . S
C143 C149 1.429 1_655 S
C144 C136 1.574 . S
C144 H139 0.949 . S
C144 C150 1.368 . S
C145 C129 1.341 1_656 S
C145 H137 0.959 1_556 S
C145 C143 1.327 . S
C146 C134 1.349 1_455 S
C146 H140 0.950 . S
C146 C147 1.327 . S
C147 H141 0.950 . S
C147 C146 1.327 . S
C147 C151 1.429 1_455 S
C148 C131 1.574 . S
C148 H142 0.949 . S
C148 C152 1.368 . S
C149 C130 1.429 . S
C149 C143 1.429 1_455 S
C149 C150 1.523 . S
C150 C131 1.368 1_455 S
C150 C144 1.368 . S
C150 C149 1.523 . S
C151 C135 1.429 . S
C151 C147 1.429 1_655 S
C151 C152 1.523 . S
C152 C136 1.368 1_655 S
C152 C148 1.368 . S
C152 C151 1.523 . S
H153 C128 0.950 1_554 S
H154 C130 0.950 . S
H155 C131 0.949 . S
H156 C133 0.950 . S
H157 C135 0.950 . S
C158 C159 1.349 . S
C158 C160 1.327 1_455 S
C158 H183 0.950 1_455 S
C159 C158 1.349 . S
C159 C175 1.349 . S
C160 C158 1.327 1_655 S
C160 C179 1.429 1_655 S
C160 H184 0.950 . S
C161 C178 1.574 . S
C161 C180 1.368 . S
C161 H185 0.949 . S
H162 C166 0.949 . S
C163 C164 1.349 1_554 S
C163 C165 1.327 1_655 S
C163 H186 0.950 1_654 S
C164 C163 1.349 1_556 S
C164 C176 1.349 1_556 S
C165 C163 1.327 1_455 S
C165 C181 1.429 1_455 S
C165 H187 0.950 . S
C166 H162 0.949 . S
C166 C174 1.574 . S
C166 C182 1.368 . S
H167 C175 0.950 . S
H168 C173 0.950 . S
H169 C174 0.949 . S
H170 C176 0.950 1_556 S
H171 C177 0.950 . S
H172 C178 0.949 . S
C173 H168 0.950 . S
C173 C175 1.327 . S
C173 C179 1.429 . S
C174 C166 1.574 . S
C174 H169 0.949 . S
C174 C180 1.368 1_655 S
C175 C159 1.349 . S
C175 H167 0.950 . S
C175 C173 1.327 . S
C176 C164 1.349 1_554 S
C176 H170 0.950 1_554 S
C176 C177 1.327 . S
C177 H171 0.950 . S
C177 C176 1.327 . S
C177 C181 1.429 . S
C178 C161 1.574 . S
C178 H172 0.949 . S
C178 C182 1.368 1_455 S
C179 C160 1.429 1_455 S
C179 C173 1.429 . S
C179 C180 1.523 . S
C180 C161 1.368 . S
C180 C174 1.368 1_455 S
C180 C179 1.523 . S
C181 C165 1.429 1_655 S
C181 C177 1.429 . S
C181 C182 1.523 . S
C182 C166 1.368 . S
C182 C178 1.368 1_655 S
C182 C181 1.523 . S
H183 C158 0.950 1_655 S
H184 C160 0.950 . S
H185 C161 0.949 . S
H186 C163 0.950 1_456 S
H187 C165 0.950 . S
C188 C189 1.349 1_556 S
C188 C190 1.327 . S
C188 H213 0.950 1_556 S
C189 C188 1.349 1_554 S
C189 C205 1.349 1_554 S
C190 C188 1.327 . S
C190 C209 1.429 . S
C190 H214 0.950 . S
C191 C208 1.574 . S
C191 C210 1.368 . S
C191 H215 0.949 . S
H192 C196 0.949 . S
C193 C194 1.349 . S
C193 C195 1.327 . S
C193 H216 0.950 . S
C194 C193 1.349 . S
C194 C206 1.349 . S
C195 C193 1.327 . S
C195 C211 1.429 . S
C195 H217 0.950 . S
C196 H192 0.949 . S
C196 C204 1.574 . S
C196 C212 1.368 . S
H197 C205 0.950 1_554 S
H198 C203 0.950 . S
H199 C204 0.949 . S
H200 C206 0.950 . S
H201 C207 0.950 . S
H202 C208 0.949 . S
C203 H198 0.950 . S
C203 C205 1.327 . S
C203 C209 1.429 . S
C204 C196 1.574 . S
C204 H199 0.949 . S
C204 C210 1.368 . S
C205 C189 1.349 1_556 S
C205 H197 0.950 1_556 S
C205 C203 1.327 . S
C206 C194 1.349 . S
C206 H200 0.950 . S
C206 C207 1.327 . S
C207 H201 0.950 . S
C207 C206 1.327 . S
C207 C211 1.429 . S
C208 C191 1.574 . S
C208 H202 0.949 . S
C208 C212 1.368 . S
C209 C190 1.429 . S
C209 C203 1.429 . S
C209 C210 1.523 . S
C210 C191 1.368 . S
C210 C204 1.368 . S
C210 C209 1.523 . S
C211 C195 1.429 . S
C211 C207 1.429 . S
C211 C212 1.523 . S
C212 C196 1.368 . S
C212 C208 1.368 . S
C212 C211 1.523 . S
H213 C188 0.950 1_554 S
H214 C190 0.950 . S
H215 C191 0.949 . S
H216 C193 0.950 . S
H217 C195 0.950 . S
C218 C219 1.349 1_554 S
C218 C220 1.327 . S
C218 H243 0.950 1_554 S
C219 C218 1.349 1_556 S
C219 C235 1.349 1_556 S
C220 C218 1.327 . S
C220 C239 1.429 . S
C220 H244 0.950 . S
C221 C238 1.574 . S
C221 C240 1.368 . S
C221 H245 0.949 . S
H222 C226 0.949 . S
C223 C224 1.349 . S
C223 C225 1.327 . S
C223 H246 0.950 . S
C224 C223 1.349 . S
C224 C236 1.349 . S
C225 C223 1.327 . S
C225 C241 1.429 . S
C225 H247 0.950 . S
C226 H222 0.949 . S
C226 C234 1.574 . S
C226 C242 1.368 . S
H227 C235 0.950 1_556 S
H228 C233 0.950 . S
H229 C234 0.949 . S
H230 C236 0.950 . S
H231 C237 0.950 . S
H232 C238 0.949 . S
C233 H228 0.950 . S
C233 C235 1.327 . S
C233 C239 1.429 . S
C234 C226 1.574 . S
C234 H229 0.949 . S
C234 C240 1.368 . S
C235 C219 1.349 1_554 S
C235 H227 0.950 1_554 S
C235 C233 1.327 . S
C236 C224 1.349 . S
C236 H230 0.950 . S
C236 C237 1.327 . S
C237 H231 0.950 . S
C237 C236 1.327 . S
C237 C241 1.429 . S
C238 C221 1.574 . S
C238 H232 0.949 . S
C238 C242 1.368 . S
C239 C220 1.429 . S
C239 C233 1.429 . S
C239 C240 1.523 . S
C240 C221 1.368 . S
C240 C234 1.368 . S
C240 C239 1.523 . S
C241 C225 1.429 . S
C241 C237 1.429 . S
C241 C242 1.523 . S
C242 C226 1.368 . S
C242 C238 1.368 . S
C242 C241 1.523 . S
H243 C218 0.950 1_556 S
H244 C220 0.950 . S
H245 C221 0.949 . S
H246 C223 0.950 . S
H247 C225 0.950 . S
C248 C249 1.349 . S
C248 C250 1.327 . S
C248 H273 0.950 . S
C249 C248 1.349 . S
C249 C265 1.349 . S
C250 C248 1.327 . S
C250 C269 1.429 . S
C250 H274 0.950 . S
C251 C268 1.574 . S
C251 C270 1.368 . S
C251 H275 0.949 . S
H252 C256 0.949 . S
C253 C254 1.349 . S
C253 C255 1.327 . S
C253 H276 0.950 . S
C254 C253 1.349 . S
C254 C266 1.349 . S
C255 C253 1.327 . S
C255 C271 1.429 . S
C255 H277 0.950 . S
C256 H252 0.949 . S
C256 C264 1.574 . S
C256 C272 1.368 . S
H257 C265 0.950 . S
H258 C263 0.950 . S
H259 C264 0.949 . S
H260 C266 0.950 . S
H261 C267 0.950 . S
H262 C268 0.949 . S
C263 H258 0.950 . S
C263 C265 1.327 . S
C263 C269 1.429 . S
C264 C256 1.574 . S
C264 H259 0.949 . S
C264 C270 1.368 . S
C265 C249 1.349 . S
C265 H257 0.950 . S
C265 C263 1.327 . S
C266 C254 1.349 . S
C266 H260 0.950 . S
C266 C267 1.327 . S
C267 H261 0.950 . S
C267 C266 1.327 . S
C267 C271 1.429 . S
C268 C251 1.574 . S
C268 H262 0.949 . S
C268 C272 1.368 . S
C269 C250 1.429 . S
C269 C263 1.429 . S
C269 C270 1.523 . S
C270 C251 1.368 . S
C270 C264 1.368 . S
C270 C269 1.523 . S
C271 C255 1.429 . S
C271 C267 1.429 . S
C271 C272 1.523 . S
C272 C256 1.368 . S
C272 C268 1.368 . S
C272 C271 1.523 . S
H273 C248 0.950 . S
H274 C250 0.950 . S
H275 C251 0.949 . S
H276 C253 0.950 . S
H277 C255 0.950 . S
C278 C279 1.349 . S
C278 C280 1.327 . S
C278 H303 0.950 . S
C279 C278 1.349 . S
C279 C295 1.349 . S
C280 C278 1.327 . S
C280 C299 1.429 . S
C280 H304 0.950 . S
C281 C298 1.574 . S
C281 C300 1.368 . S
C281 H305 0.949 . S
H282 C286 0.949 . S
C283 C284 1.349 . S
C283 C285 1.327 . S
C283 H306 0.950 . S
C284 C283 1.349 . S
C284 C296 1.349 . S
C285 C283 1.327 . S
C285 C301 1.429 . S
C285 H307 0.950 . S
C286 H282 0.949 . S
C286 C294 1.574 . S
C286 C302 1.368 . S
H287 C295 0.950 . S
H288 C293 0.950 . S
H289 C294 0.949 . S
H290 C296 0.950 . S
H291 C297 0.950 . S
H292 C298 0.949 . S
C293 H288 0.950 . S
C293 C295 1.327 . S
C293 C299 1.429 . S
C294 C286 1.574 . S
C294 H289 0.949 . S
C294 C300 1.368 . S
C295 C279 1.349 . S
C295 H287 0.950 . S
C295 C293 1.327 . S
C296 C284 1.349 . S
C296 H290 0.950 . S
C296 C297 1.327 . S
C297 H291 0.950 . S
C297 C296 1.327 . S
C297 C301 1.429 . S
C298 C281 1.574 . S
C298 H292 0.949 . S
C298 C302 1.368 . S
C299 C280 1.429 . S
C299 C293 1.429 . S
C299 C300 1.523 . S
C300 C281 1.368 . S
C300 C294 1.368 . S
C300 C299 1.523 . S
C301 C285 1.429 . S
C301 C297 1.429 . S
C301 C302 1.523 . S
C302 C286 1.368 . S
C302 C298 1.368 . S
C302 C301 1.523 . S
H303 C278 0.950 . S
H304 C280 0.950 . S
H305 C281 0.949 . S
H306 C283 0.950 . S
H307 C285 0.950 . S
C308 C309 1.349 . S
C308 C310 1.327 . S
C308 H333 0.950 . S
C309 C308 1.349 . S
C309 C325 1.349 . S
C310 C308 1.327 . S
C310 C329 1.429 . S
C310 H334 0.950 . S
C311 C328 1.574 1_655 S
C311 C330 1.368 . S
C311 H335 0.949 . S
H312 C316 0.949 . S
C313 C314 1.349 . S
C313 C315 1.327 . S
C313 H336 0.950 . S
C314 C313 1.349 . S
C314 C326 1.349 . S
C315 C313 1.327 . S
C315 C331 1.429 . S
C315 H337 0.950 . S
C316 H312 0.949 . S
C316 C324 1.574 1_455 S
C316 C332 1.368 . S
H317 C325 0.950 . S
H318 C323 0.950 . S
H319 C324 0.949 . S
H320 C326 0.950 . S
H321 C327 0.950 . S
H322 C328 0.949 . S
C323 H318 0.950 . S
C323 C325 1.327 . S
C323 C329 1.429 . S
C324 C316 1.574 1_655 S
C324 H319 0.949 . S
C324 C330 1.368 . S
C325 C309 1.349 . S
C325 H317 0.950 . S
C325 C323 1.327 . S
C326 C314 1.349 . S
C326 H320 0.950 . S
C326 C327 1.327 . S
C327 H321 0.950 . S
C327 C326 1.327 . S
C327 C331 1.429 . S
C328 C311 1.574 1_455 S
C328 H322 0.949 . S
C328 C332 1.368 . S
C329 C310 1.429 . S
C329 C323 1.429 . S
C329 C330 1.523 . S
C330 C311 1.368 . S
C330 C324 1.368 . S
C330 C329 1.523 . S
C331 C315 1.429 . S
C331 C327 1.429 . S
C331 C332 1.523 . S
C332 C316 1.368 . S
C332 C328 1.368 . S
C332 C331 1.523 . S
H333 C308 0.950 . S
H334 C310 0.950 . S
H335 C311 0.949 . S
H336 C313 0.950 . S
H337 C315 0.950 . S
C338 C339 1.349 . S
C338 C340 1.327 . S
C338 H363 0.950 . S
C339 C338 1.349 . S
C339 C355 1.349 . S
C340 C338 1.327 . S
C340 C359 1.429 . S
C340 H364 0.950 . S
C341 C358 1.574 1_655 S
C341 C360 1.368 . S
C341 H365 0.949 . S
H342 C346 0.949 . S
C343 C344 1.349 . S
C343 C345 1.327 . S
C343 H366 0.950 . S
C344 C343 1.349 . S
C344 C356 1.349 . S
C345 C343 1.327 . S
C345 C361 1.429 . S
C345 H367 0.950 . S
C346 H342 0.949 . S
C346 C354 1.574 1_455 S
C346 C362 1.368 . S
H347 C355 0.950 . S
H348 C353 0.950 . S
H349 C354 0.949 . S
H350 C356 0.950 . S
H351 C357 0.950 . S
H352 C358 0.949 . S
C353 H348 0.950 . S
C353 C355 1.327 . S
C353 C359 1.429 . S
C354 C346 1.574 1_655 S
C354 H349 0.949 . S
C354 C360 1.368 . S
C355 C339 1.349 . S
C355 H347 0.950 . S
C355 C353 1.327 . S
C356 C344 1.349 . S
C356 H350 0.950 . S
C356 C357 1.327 . S
C357 H351 0.950 . S
C357 C356 1.327 . S
C357 C361 1.429 . S
C358 C341 1.574 1_455 S
C358 H352 0.949 . S
C358 C362 1.368 . S
C359 C340 1.429 . S
C359 C353 1.429 . S
C359 C360 1.523 . S
C360 C341 1.368 . S
C360 C354 1.368 . S
C360 C359 1.523 . S
C361 C345 1.429 . S
C361 C357 1.429 . S
C361 C362 1.523 . S
C362 C346 1.368 . S
C362 C358 1.368 . S
C362 C361 1.523 . S
H363 C338 0.950 . S
H364 C340 0.950 . S
H365 C341 0.949 . S
H366 C343 0.950 . S
H367 C345 0.950 . S
C368 C369 1.349 . S
C368 C370 1.327 . S
C368 H393 0.950 . S
C369 C368 1.349 . S
C369 C385 1.349 . S
C370 C368 1.327 . S
C370 C389 1.429 . S
C370 H394 0.950 . S
C371 C388 1.574 . S
C371 C390 1.368 . S
C371 H395 0.949 . S
H372 C376 0.949 . S
C373 C374 1.349 . S
C373 C375 1.327 . S
C373 H396 0.950 . S
C374 C373 1.349 . S
C374 C386 1.349 . S
C375 C373 1.327 . S
C375 C391 1.429 . S
C375 H397 0.950 . S
C376 H372 0.949 . S
C376 C384 1.574 . S
C376 C392 1.368 . S
H377 C385 0.950 . S
H378 C383 0.950 . S
H379 C384 0.949 . S
H380 C386 0.950 . S
H381 C387 0.950 . S
H382 C388 0.949 . S
C383 H378 0.950 . S
C383 C385 1.327 . S
C383 C389 1.429 . S
C384 C376 1.574 . S
C384 H379 0.949 . S
C384 C390 1.368 . S
C385 C369 1.349 . S
C385 H377 0.950 . S
C385 C383 1.327 . S
C386 C374 1.349 . S
C386 H380 0.950 . S
C386 C387 1.327 . S
C387 H381 0.950 . S
C387 C386 1.327 . S
C387 C391 1.429 . S
C388 C371 1.574 . S
C388 H382 0.949 . S
C388 C392 1.368 . S
C389 C370 1.429 . S
C389 C383 1.429 . S
C389 C390 1.523 . S
C390 C371 1.368 . S
C390 C384 1.368 . S
C390 C389 1.523 . S
C391 C375 1.429 . S
C391 C387 1.429 . S
C391 C392 1.523 . S
C392 C376 1.368 . S
C392 C388 1.368 . S
C392 C391 1.523 . S
H393 C368 0.950 . S
H394 C370 0.950 . S
H395 C371 0.949 . S
H396 C373 0.950 . S
H397 C375 0.950 . S
C398 C399 1.349 . S
C398 C400 1.327 . S
C398 H423 0.950 . S
C399 C398 1.349 . S
C399 C415 1.349 . S
C400 C398 1.327 . S
C400 C419 1.429 . S
C400 H424 0.950 . S
C401 C418 1.574 . S
C401 C420 1.368 1_554 S
C401 H425 0.949 . S
H402 C406 0.949 . S
C403 C404 1.349 . S
C403 C405 1.327 . S
C403 H426 0.950 . S
C404 C403 1.349 . S
C404 C416 1.349 . S
C405 C403 1.327 . S
C405 C421 1.429 . S
C405 H427 0.950 . S
C406 H402 0.949 . S
C406 C414 1.574 . S
C406 C422 1.368 1_556 S
H407 C415 0.950 . S
H408 C413 0.964 . S
H409 C414 0.949 . S
H410 C416 0.950 . S
H411 C417 0.964 . S
H412 C418 0.949 . S
C413 H408 0.964 . S
C413 C415 1.327 . S
C413 C419 1.429 . S
C414 C406 1.574 . S
C414 H409 0.949 . S
C414 C420 1.368 . S
C415 C399 1.349 . S
C415 H407 0.950 . S
C415 C413 1.327 . S
C416 C404 1.349 . S
C416 H410 0.950 . S
C416 C417 1.327 . S
C417 H411 0.964 . S
C417 C416 1.327 . S
C417 C421 1.429 . S
C418 C401 1.574 . S
C418 H412 0.949 . S
C418 C422 1.368 . S
C419 C400 1.429 . S
C419 C413 1.429 . S
C419 C420 1.523 . S
C420 C401 1.368 1_556 S
C420 C414 1.368 . S
C420 C419 1.523 . S
C421 C405 1.429 . S
C421 C417 1.429 . S
C421 C422 1.523 . S
C422 C406 1.368 1_554 S
C422 C418 1.368 . S
C422 C421 1.523 . S
H423 C398 0.950 . S
H424 C400 0.950 . S
H425 C401 0.949 . S
H426 C403 0.950 . S
H427 C405 0.950 . S
C428 C429 1.349 . S
C428 C430 1.327 . S
C428 H453 0.950 . S
C429 C428 1.349 . S
C429 C445 1.349 . S
C430 C428 1.327 . S
C430 C449 1.429 . S
C430 H454 0.950 . S
C431 C448 1.574 . S
C431 C450 1.368 . S
C431 H455 0.949 . S
H432 C436 0.949 . S
C433 C434 1.349 . S
C433 C435 1.327 . S
C433 H456 0.950 . S
C434 C433 1.349 . S
C434 C446 1.349 . S
C435 C433 1.327 . S
C435 C451 1.429 . S
C435 H457 0.950 . S
C436 H432 0.949 . S
C436 C444 1.574 . S
C436 C452 1.368 . S
H437 C445 0.950 . S
H438 C443 0.950 . S
H439 C444 0.949 . S
H440 C446 0.950 . S
H441 C447 0.950 . S
H442 C448 0.949 . S
C443 H438 0.950 . S
C443 C445 1.327 . S
C443 C449 1.429 . S
C444 C436 1.574 . S
C444 H439 0.949 . S
C444 C450 1.368 . S
C445 C429 1.349 . S
C445 H437 0.950 . S
C445 C443 1.327 . S
C446 C434 1.349 . S
C446 H440 0.950 . S
C446 C447 1.327 . S
C447 H441 0.950 . S
C447 C446 1.327 . S
C447 C451 1.429 . S
C448 C431 1.574 . S
C448 H442 0.949 . S
C448 C452 1.368 . S
C449 C430 1.429 . S
C449 C443 1.429 . S
C449 C450 1.523 . S
C450 C431 1.368 . S
C450 C444 1.368 . S
C450 C449 1.523 . S
C451 C435 1.429 . S
C451 C447 1.429 . S
C451 C452 1.523 . S
C452 C436 1.368 . S
C452 C448 1.368 . S
C452 C451 1.523 . S
H453 C428 0.950 . S
H454 C430 0.950 . S
H455 C431 0.949 . S
H456 C433 0.950 . S
H457 C435 0.950 . S
C458 C459 1.349 . S
C458 C460 1.327 . S
C458 H483 0.950 . S
C459 C458 1.349 . S
C459 C475 1.349 . S
C460 C458 1.327 . S
C460 C479 1.429 . S
C460 H484 0.950 . S
C461 C478 1.574 . S
C461 C480 1.368 1_556 S
C461 H485 0.949 . S
H462 C466 0.949 . S
C463 C464 1.349 . S
C463 C465 1.327 . S
C463 H486 0.950 . S
C464 C463 1.349 . S
C464 C476 1.349 . S
C465 C463 1.327 . S
C465 C481 1.429 . S
C465 H487 0.950 . S
C466 H462 0.949 . S
C466 C474 1.574 . S
C466 C482 1.368 1_554 S
H467 C475 0.950 . S
H468 C473 0.950 . S
H469 C474 0.949 . S
H470 C476 0.950 . S
H471 C477 0.950 . S
H472 C478 0.949 . S
C473 H468 0.950 . S
C473 C475 1.327 . S
C473 C479 1.429 . S
C474 C466 1.574 . S
C474 H469 0.949 . S
C474 C480 1.368 . S
C475 C459 1.349 . S
C475 H467 0.950 . S
C475 C473 1.327 . S
C476 C464 1.349 . S
C476 H470 0.950 . S
C476 C477 1.327 . S
C477 H471 0.950 . S
C477 C476 1.327 . S
C477 C481 1.429 . S
C478 C461 1.574 . S
C478 H472 0.949 . S
C478 C482 1.368 . S
C479 C460 1.429 . S
C479 C473 1.429 . S
C479 C480 1.523 . S
C480 C461 1.368 1_554 S
C480 C474 1.368 . S
C480 C479 1.523 . S
C481 C465 1.429 . S
C481 C477 1.429 . S
C481 C482 1.523 . S
C482 C466 1.368 1_556 S
C482 C478 1.368 . S
C482 C481 1.523 . S
H483 C458 0.950 . S
H484 C460 0.950 . S
H485 C461 0.949 . S
H486 C463 0.950 . S
H487 C465 0.950 . S
C488 C489 1.349 . S
C488 C490 1.327 . S
C488 H513 0.950 . S
C489 C488 1.349 . S
C489 C505 1.349 . S
C490 C488 1.327 . S
C490 C509 1.429 . S
C490 H514 0.950 . S
C491 C508 1.574 . S
C491 C510 1.368 1_456 S
C491 H515 0.949 . S
H492 C496 0.949 . S
C493 C494 1.349 . S
C493 C495 1.327 . S
C493 H516 0.950 . S
C494 C493 1.349 . S
C494 C506 1.349 . S
C495 C493 1.327 . S
C495 C511 1.429 . S
C495 H517 0.950 . S
C496 H492 0.949 . S
C496 C504 1.574 . S
C496 C512 1.368 1_654 S
H497 C505 0.950 . S
H498 C503 0.950 1_455 S
H499 C504 0.949 . S
H500 C506 0.950 . S
H501 C507 0.950 1_655 S
H502 C508 0.949 . S
C503 H498 0.950 1_655 S
C503 C505 1.327 . S
C503 C509 1.429 . S
C504 C496 1.574 . S
C504 H499 0.949 . S
C504 C510 1.368 1_565 S
C505 C489 1.349 . S
C505 H497 0.950 . S
C505 C503 1.327 . S
C506 C494 1.349 . S
C506 H500 0.950 . S
C506 C507 1.327 . S
C507 H501 0.950 1_455 S
C507 C506 1.327 . S
C507 C511 1.429 . S
C508 C491 1.574 . S
C508 H502 0.949 . S
C508 C512 1.368 1_545 S
C509 C490 1.429 . S
C509 C503 1.429 . S
C509 C510 1.523 . S
C510 C491 1.368 1_654 S
C510 C504 1.368 1_545 S
C510 C509 1.523 . S
C511 C495 1.429 . S
C511 C507 1.429 . S
C511 C512 1.523 . S
C512 C496 1.368 1_456 S
C512 C508 1.368 1_565 S
C512 C511 1.523 . S
H513 C488 0.950 . S
H514 C490 0.950 . S
H515 C491 0.949 . S
H516 C493 0.950 . S
H517 C495 0.950 . S
C518 C519 1.349 . S
C518 C520 1.327 . S
C518 H543 0.950 . S
C519 C518 1.349 . S
C519 C535 1.349 . S
C520 C518 1.327 . S
C520 C539 1.429 . S
C520 H544 0.950 . S
C521 C538 1.597 . S
C521 C540 1.368 1_655 S
C521 H545 0.949 . S
H522 C526 0.949 . S
C523 C524 1.349 . S
C523 C525 1.327 . S
C523 H546 0.950 . S
C524 C523 1.349 . S
C524 C536 1.349 . S
C525 C523 1.327 . S
C525 C541 1.429 . S
C525 H547 0.950 . S
C526 H522 0.949 . S
C526 C534 1.597 . S
C526 C542 1.368 1_455 S
H527 C535 0.950 . S
H528 C533 0.950 1_655 S
H529 C534 0.949 . S
H530 C536 0.950 . S
H531 C537 0.950 1_455 S
H532 C538 0.949 . S
C533 H528 0.950 1_455 S
C533 C535 1.327 . S
C533 C539 1.429 . S
C534 C526 1.597 . S
C534 H529 0.949 . S
C534 C540 1.345 1_565 S
C535 C519 1.349 . S
C535 H527 0.950 . S
C535 C533 1.327 . S
C536 C524 1.349 . S
C536 H530 0.950 . S
C536 C537 1.327 . S
C537 H531 0.950 1_655 S
C537 C536 1.327 . S
C537 C541 1.429 . S
C538 C521 1.597 . S
C538 H532 0.949 . S
C538 C542 1.345 1_545 S
C539 C520 1.429 . S
C539 C533 1.429 . S
C539 C540 1.523 . S
C540 C521 1.368 1_455 S
C540 C534 1.345 1_545 S
C540 C539 1.523 . S
C541 C525 1.429 . S
C541 C537 1.429 . S
C541 C542 1.523 . S
C542 C526 1.368 1_655 S
C542 C538 1.345 1_565 S
C542 C541 1.523 . S
H543 C518 0.950 . S
H544 C520 0.950 . S
H545 C521 0.949 . S
H546 C523 0.950 . S
H547 C525 0.950 . S
C548 C549 1.349 . S
C548 C550 1.327 . S
C548 H573 0.950 . S
C549 C548 1.349 . S
C549 C565 1.349 . S
C550 C548 1.327 . S
C550 C569 1.429 . S
C550 H574 0.950 . S
C551 C568 1.574 1_554 S
C551 C570 1.368 . S
C551 H575 0.949 . S
H552 C556 0.949 . S
C553 C554 1.349 . S
C553 C555 1.327 . S
C553 H576 0.950 . S
C554 C553 1.349 . S
C554 C566 1.349 . S
C555 C553 1.327 . S
C555 C571 1.429 . S
C555 H577 0.950 . S
C556 H552 0.949 . S
C556 C564 1.574 1_556 S
C556 C572 1.368 . S
H557 C565 0.950 . S
H558 C563 0.950 . S
H559 C564 0.949 . S
H560 C566 0.950 . S
H561 C567 0.950 . S
H562 C568 0.949 . S
C563 H558 0.950 . S
C563 C565 1.327 . S
C563 C569 1.429 . S
C564 C556 1.574 1_554 S
C564 H559 0.949 . S
C564 C570 1.368 . S
C565 C549 1.349 . S
C565 H557 0.950 . S
C565 C563 1.327 . S
C566 C554 1.349 . S
C566 H560 0.950 . S
C566 C567 1.327 . S
C567 H561 0.950 . S
C567 C566 1.327 . S
C567 C571 1.429 . S
C568 C551 1.574 1_556 S
C568 H562 0.949 . S
C568 C572 1.368 . S
C569 C550 1.429 . S
C569 C563 1.429 . S
C569 C570 1.523 . S
C570 C551 1.368 . S
C570 C564 1.368 . S
C570 C569 1.523 . S
C571 C555 1.429 . S
C571 C567 1.429 . S
C571 C572 1.523 . S
C572 C556 1.368 . S
C572 C568 1.368 . S
C572 C571 1.523 . S
H573 C548 0.950 . S
H574 C550 0.950 . S
H575 C551 0.949 . S
H576 C553 0.950 . S
H577 C555 0.950 . S
C578 C579 1.349 . S
C578 C580 1.327 . S
C578 H603 0.950 . S
C579 C578 1.349 . S
C579 C595 1.349 . S
C580 C578 1.327 . S
C580 C599 1.429 . S
C580 H604 0.950 . S
C581 C598 1.574 . S
C581 C600 1.368 . S
C581 H605 0.949 . S
H582 C586 0.949 . S
C583 C584 1.349 . S
C583 C585 1.327 . S
C583 H606 0.950 . S
C584 C583 1.349 . S
C584 C596 1.349 . S
C585 C583 1.327 . S
C585 C601 1.429 . S
C585 H607 0.950 . S
C586 H582 0.949 . S
C586 C594 1.574 . S
C586 C602 1.368 . S
H587 C595 0.950 . S
H588 C593 0.950 . S
H589 C594 0.949 . S
H590 C596 0.950 . S
H591 C597 0.950 . S
H592 C598 0.949 . S
C593 H588 0.950 . S
C593 C595 1.327 . S
C593 C599 1.429 . S
C594 C586 1.574 . S
C594 H589 0.949 . S
C594 C600 1.368 . S
C595 C579 1.349 . S
C595 H587 0.950 . S
C595 C593 1.327 . S
C596 C584 1.349 . S
C596 H590 0.950 . S
C596 C597 1.327 . S
C597 H591 0.950 . S
C597 C596 1.327 . S
C597 C601 1.429 . S
C598 C581 1.574 . S
C598 H592 0.949 . S
C598 C602 1.368 . S
C599 C580 1.429 . S
C599 C593 1.429 . S
C599 C600 1.523 . S
C600 C581 1.368 . S
C600 C594 1.368 . S
C600 C599 1.523 . S
C601 C585 1.429 . S
C601 C597 1.429 . S
C601 C602 1.523 . S
C602 C586 1.368 . S
C602 C598 1.368 . S
C602 C601 1.523 . S
H603 C578 0.950 . S
H604 C580 0.950 . S
H605 C581 0.949 . S
H606 C583 0.950 . S
H607 C585 0.950 . S
C129 C27 1.196 . S
C134 C8 1.196 . S
C159 C55 1.196 . S
C164 C63 1.196 . S
C189 C91 1.196 . S
C194 C72 1.196 . S
C219 C127 1.196 . S
C224 C119 1.196 . S
C249 C24 1.179 . S
C254 C17 1.179 . S
C279 C40 1.179 . S
C284 C59 1.179 . S
C309 C81 1.179 . S
C314 C88 1.179 . S
C339 C123 1.179 . S
C344 C104 1.179 . S
C369 C120 1.652 . S
C374 C22 1.652 . S
C399 C126 1.627 . S
C404 C23 1.627 . S
C429 C86 1.652 . S
C434 C56 1.652 . S
C459 C87 1.628 . S
C464 C62 1.628 . S
C489 C30 1.568 . S
C494 C49 1.568 . S
C519 C31 1.710 . S
C524 C54 1.710 . S
C549 C94 1.568 . S
C554 C113 1.568 . S
C579 C118 1.710 . S
C584 C95 1.710 . S
